# Generated by pormake.
# Topology wmi, (6)-cn, num edge types: 1
# Building blocks:
#     Node 0, Type 0, BuildingBlock: KUMJIN_clean_sbu_0, # of connection points: 6
#     Node 1, Type 0, BuildingBlock: KUMJIN_clean_sbu_0, # of connection points: 6
#     Node 2, Type 0, BuildingBlock: KUMJIN_clean_sbu_0, # of connection points: 6
#     Node 3, Type 0, BuildingBlock: KUMJIN_clean_sbu_0, # of connection points: 6
#     Node 4, Type 0, BuildingBlock: KUMJIN_clean_sbu_0, # of connection points: 6
#     Node 5, Type 0, BuildingBlock: KUMJIN_clean_sbu_0, # of connection points: 6
#     Node 6, Type 0, BuildingBlock: KUMJIN_clean_sbu_0, # of connection points: 6
#     Node 7, Type 0, BuildingBlock: KUMJIN_clean_sbu_0, # of connection points: 6
#     Node 8, Type 0, BuildingBlock: KUMJIN_clean_sbu_0, # of connection points: 6
#     Node 9, Type 0, BuildingBlock: KUMJIN_clean_sbu_0, # of connection points: 6
#     Node 10, Type 0, BuildingBlock: KUMJIN_clean_sbu_0, # of connection points: 6
#     Node 11, Type 0, BuildingBlock: KUMJIN_clean_sbu_0, # of connection points: 6
#     Node 12, Type 0, BuildingBlock: KUMJIN_clean_sbu_0, # of connection points: 6
#     Node 13, Type 0, BuildingBlock: KUMJIN_clean_sbu_0, # of connection points: 6
#     Node 14, Type 0, BuildingBlock: KUMJIN_clean_sbu_0, # of connection points: 6
#     Node 15, Type 0, BuildingBlock: KUMJIN_clean_sbu_0, # of connection points: 6
#     Node 16, Type 0, BuildingBlock: KUMJIN_clean_sbu_0, # of connection points: 6
#     Node 17, Type 0, BuildingBlock: KUMJIN_clean_sbu_0, # of connection points: 6
#     Edge 18, Type (0, 0), BuildingBlock: AJUNOK_clean_linker_0, # of connection points: 2
#     Edge 19, Type (0, 0), BuildingBlock: AJUNOK_clean_linker_0, # of connection points: 2
#     Edge 20, Type (0, 0), BuildingBlock: AJUNOK_clean_linker_0, # of connection points: 2
#     Edge 21, Type (0, 0), BuildingBlock: AJUNOK_clean_linker_0, # of connection points: 2
#     Edge 22, Type (0, 0), BuildingBlock: AJUNOK_clean_linker_0, # of connection points: 2
#     Edge 23, Type (0, 0), BuildingBlock: AJUNOK_clean_linker_0, # of connection points: 2
#     Edge 24, Type (0, 0), BuildingBlock: AJUNOK_clean_linker_0, # of connection points: 2
#     Edge 25, Type (0, 0), BuildingBlock: AJUNOK_clean_linker_0, # of connection points: 2
#     Edge 26, Type (0, 0), BuildingBlock: AJUNOK_clean_linker_0, # of connection points: 2
#     Edge 27, Type (0, 0), BuildingBlock: AJUNOK_clean_linker_0, # of connection points: 2
#     Edge 28, Type (0, 0), BuildingBlock: AJUNOK_clean_linker_0, # of connection points: 2
#     Edge 29, Type (0, 0), BuildingBlock: AJUNOK_clean_linker_0, # of connection points: 2
#     Edge 30, Type (0, 0), BuildingBlock: AJUNOK_clean_linker_0, # of connection points: 2
#     Edge 31, Type (0, 0), BuildingBlock: AJUNOK_clean_linker_0, # of connection points: 2
#     Edge 32, Type (0, 0), BuildingBlock: AJUNOK_clean_linker_0, # of connection points: 2
#     Edge 33, Type (0, 0), BuildingBlock: AJUNOK_clean_linker_0, # of connection points: 2
#     Edge 34, Type (0, 0), BuildingBlock: AJUNOK_clean_linker_0, # of connection points: 2
#     Edge 35, Type (0, 0), BuildingBlock: AJUNOK_clean_linker_0, # of connection points: 2
#     Edge 36, Type (0, 0), BuildingBlock: AJUNOK_clean_linker_0, # of connection points: 2
#     Edge 37, Type (0, 0), BuildingBlock: AJUNOK_clean_linker_0, # of connection points: 2
#     Edge 38, Type (0, 0), BuildingBlock: AJUNOK_clean_linker_0, # of connection points: 2
#     Edge 39, Type (0, 0), BuildingBlock: AJUNOK_clean_linker_0, # of connection points: 2
#     Edge 40, Type (0, 0), BuildingBlock: AJUNOK_clean_linker_0, # of connection points: 2
#     Edge 41, Type (0, 0), BuildingBlock: AJUNOK_clean_linker_0, # of connection points: 2
#     Edge 42, Type (0, 0), BuildingBlock: AJUNOK_clean_linker_0, # of connection points: 2
#     Edge 43, Type (0, 0), BuildingBlock: AJUNOK_clean_linker_0, # of connection points: 2
#     Edge 44, Type (0, 0), BuildingBlock: AJUNOK_clean_linker_0, # of connection points: 2
#     Edge 45, Type (0, 0), BuildingBlock: AJUNOK_clean_linker_0, # of connection points: 2
#     Edge 46, Type (0, 0), BuildingBlock: AJUNOK_clean_linker_0, # of connection points: 2
#     Edge 47, Type (0, 0), BuildingBlock: AJUNOK_clean_linker_0, # of connection points: 2
#     Edge 48, Type (0, 0), BuildingBlock: AJUNOK_clean_linker_0, # of connection points: 2
#     Edge 49, Type (0, 0), BuildingBlock: AJUNOK_clean_linker_0, # of connection points: 2
#     Edge 50, Type (0, 0), BuildingBlock: AJUNOK_clean_linker_0, # of connection points: 2
#     Edge 51, Type (0, 0), BuildingBlock: AJUNOK_clean_linker_0, # of connection points: 2
#     Edge 52, Type (0, 0), BuildingBlock: AJUNOK_clean_linker_0, # of connection points: 2
#     Edge 53, Type (0, 0), BuildingBlock: AJUNOK_clean_linker_0, # of connection points: 2
#     Edge 54, Type (0, 0), BuildingBlock: AJUNOK_clean_linker_0, # of connection points: 2
#     Edge 55, Type (0, 0), BuildingBlock: AJUNOK_clean_linker_0, # of connection points: 2
#     Edge 56, Type (0, 0), BuildingBlock: AJUNOK_clean_linker_0, # of connection points: 2
#     Edge 57, Type (0, 0), BuildingBlock: AJUNOK_clean_linker_0, # of connection points: 2
#     Edge 58, Type (0, 0), BuildingBlock: AJUNOK_clean_linker_0, # of connection points: 2
#     Edge 59, Type (0, 0), BuildingBlock: AJUNOK_clean_linker_0, # of connection points: 2
#     Edge 60, Type (0, 0), BuildingBlock: AJUNOK_clean_linker_0, # of connection points: 2
#     Edge 61, Type (0, 0), BuildingBlock: AJUNOK_clean_linker_0, # of connection points: 2
#     Edge 62, Type (0, 0), BuildingBlock: AJUNOK_clean_linker_0, # of connection points: 2
#     Edge 63, Type (0, 0), BuildingBlock: AJUNOK_clean_linker_0, # of connection points: 2
#     Edge 64, Type (0, 0), BuildingBlock: AJUNOK_clean_linker_0, # of connection points: 2
#     Edge 65, Type (0, 0), BuildingBlock: AJUNOK_clean_linker_0, # of connection points: 2
#     Edge 66, Type (0, 0), BuildingBlock: AJUNOK_clean_linker_0, # of connection points: 2
#     Edge 67, Type (0, 0), BuildingBlock: AJUNOK_clean_linker_0, # of connection points: 2
#     Edge 68, Type (0, 0), BuildingBlock: AJUNOK_clean_linker_0, # of connection points: 2
#     Edge 69, Type (0, 0), BuildingBlock: AJUNOK_clean_linker_0, # of connection points: 2
#     Edge 70, Type (0, 0), BuildingBlock: AJUNOK_clean_linker_0, # of connection points: 2
#     Edge 71, Type (0, 0), BuildingBlock: AJUNOK_clean_linker_0, # of connection points: 2
# Relax obj value: 0.080
# Max RMSD: 0.208
# Mean RMSD: 0.208
data_MOF--net-wmi--node1-KUMJIN_clean_sbu_0--edge1-AJUNOK_clean_linker_0
_symmetry_space_group_name_H-M    P1
_symmetry_Int_Tables_number       1
_symmetry_cell_setting            triclinic
loop_
_symmetry_equiv_pos_as_xyz
'x, y, z'
_cell_length_a     30.434028
_cell_length_b     30.257152
_cell_length_c     61.065131
_cell_angle_alpha  90.041648
_cell_angle_beta   89.876276
_cell_angle_gamma 119.84183
loop_
_atom_site_label
_atom_site_type_symbol
_atom_site_fract_x
_atom_site_fract_y
_atom_site_fract_z
_atom_type_partial_charge
Eu0 Eu 0.57048 0.09726 0.09595 0.0
C1 C 0.3731 0.03732 0.04336 0.0
C2 C 0.32891 0.06682 0.06698 0.0
C3 C 0.30438 0.04794 0.02885 0.0
C4 C 0.36535 0.0513 0.06399 0.0
C5 C 0.34158 0.03404 0.02574 0.0
C6 C 0.2987 0.06519 0.04932 0.0
C7 C 0.38562 1.00355 0.00292 0.0
N8 N 0.4099 1.0249 0.04061 0.0
C9 C 0.41648 1.00836 0.02064 0.0
C10 C 0.34722 1.01527 0.00565 0.0
Eu11 Eu 0.44667 1.01448 0.07304 0.0
N12 N 0.39315 0.04975 0.08109 0.0
C13 C 0.38849 0.06706 0.10124 0.0
C14 C 0.32351 0.08326 0.08767 0.0
C15 C 0.35391 0.08396 0.10478 0.0
H16 H 0.44391 0.99623 0.01852 0.0
H17 H 0.35084 0.09764 0.12078 0.0
H18 H 0.27028 0.07648 0.05141 0.0
H19 H 0.39043 0.9892 0.98739 0.0
H20 H 0.41224 0.06992 0.11473 0.0
H21 H 0.6813 1.00038 0.09916 0.0
H22 H 0.29634 0.09588 0.09054 0.0
H23 H 0.55749 0.1651 0.1365 0.0
H24 H 0.64278 0.04673 0.08168 0.0
H25 H 0.56211 0.16967 0.1771 0.0
H26 H 0.27994 0.04566 0.01551 0.0
H27 H 0.67055 0.98266 0.13891 0.0
H28 H 0.64256 0.99877 0.17528 0.0
H29 H 0.32156 1.00877 0.99226 0.0
H30 H 0.61404 0.04862 0.19687 0.0
N31 N 0.61064 0.05475 0.11128 0.0
C32 C 0.6385 0.03966 0.09911 0.0
C33 C 0.65439 1.00376 0.1314 0.0
C34 C 0.63032 1.0241 0.14404 0.0
C35 C 0.66039 1.0135 0.10894 0.0
C36 C 0.6098 0.051 0.13341 0.0
H37 H 0.58492 0.11353 0.19771 0.0
N38 N 0.57626 0.10633 0.1346 0.0
C39 C 0.57036 0.14346 0.16841 0.0
C40 C 0.5928 0.07823 0.14551 0.0
C41 C 0.56787 0.14095 0.14552 0.0
C42 C 0.58315 0.11159 0.18 0.0
C43 C 0.59554 0.07915 0.16853 0.0
O44 O 0.62273 0.17927 0.10043 0.0
O45 O 0.49503 0.09189 0.08882 0.0
O46 O 0.50087 0.06289 0.04631 0.0
O47 O 0.57524 0.07221 0.06035 0.0
O48 O 0.55856 0.15756 0.07978 0.0
O49 O 0.64976 0.13399 0.08456 0.0
O50 O 0.43597 0.95092 0.05309 0.0
O51 O 0.52354 1.02286 0.07989 0.0
O52 O 0.50756 0.05609 0.12377 0.0
O53 O 0.42823 1.00207 0.10799 0.0
O54 O 0.4618 0.95851 0.09207 0.0
O55 O 0.3721 0.94325 0.07314 0.0
C56 C 0.51012 0.13531 0.08009 0.0
C57 C 0.71066 0.20585 0.10505 0.0
C58 C 0.80348 0.26503 0.10799 0.0
C59 C 0.75851 0.23935 0.09508 0.0
C60 C 0.79861 0.25747 0.13084 0.0
C61 C 0.70878 0.1987 0.12777 0.0
C62 C 0.75215 0.22435 0.14049 0.0
C63 C 0.547 0.07073 0.04338 0.0
C64 C 0.66231 0.17888 0.09228 0.0
C65 C 0.61211 0.049 0.17922 0.0
C66 C 0.62875 1.02092 0.16695 0.0
C67 C 0.51012 0.98132 0.08972 0.0
C68 C 0.35882 0.87042 0.05018 0.0
C69 C 0.32546 0.828 0.06306 0.0
C70 C 0.3016 0.77854 0.0539 0.0
C71 C 0.31204 0.77261 0.03193 0.0
C72 C 0.36706 0.8632 0.02818 0.0
C73 C 0.344 0.8146 0.01918 0.0
C74 C 0.45781 1.02111 0.12507 0.0
C75 C 0.38937 0.92167 0.05967 0.0
H76 H 0.76067 0.24528 0.07754 0.0
H77 H 0.83081 0.27812 0.14156 0.0
H78 H 0.67345 0.17391 0.13589 0.0
H79 H 0.74962 0.21904 0.15808 0.0
H80 H 0.31841 0.83345 0.07998 0.0
H81 H 0.295 0.73518 0.02447 0.0
H82 H 0.39196 0.89527 0.01798 0.0
H83 H 0.35115 0.80941 0.00226 0.0
Eu84 Eu 0.0415 0.5472 0.09678 0.0
C85 C 0.04404 0.36289 0.07069 0.0
C86 C 0.07778 0.32363 0.09501 0.0
C87 C 1.00535 0.27052 0.07198 0.0
C88 C 0.07817 0.36739 0.08681 0.0
C89 C 1.00729 0.31426 0.06311 0.0
C90 C 0.04068 0.2752 0.08779 0.0
C91 C 0.97788 0.3555 0.03799 0.0
N92 N 0.04717 0.40586 0.06217 0.0
C93 C 1.01507 0.40284 0.04589 0.0
C94 C 0.97381 0.311 0.04669 0.0
Eu95 Eu 0.11072 0.48372 0.07719 0.0
N96 N 0.11321 0.41457 0.09379 0.0
C97 C 0.15264 0.42107 0.10673 0.0
C98 C 0.11566 0.3299 0.10973 0.0
C99 C 0.15379 0.37892 0.11531 0.0
H100 H 1.0171 0.43665 0.03916 0.0
H101 H 0.18444 0.38447 0.12596 0.0
H102 H 0.03946 0.24113 0.09409 0.0
H103 H 0.9523 0.35338 0.02522 0.0
H104 H 0.18272 0.45908 0.11061 0.0
H105 H 0.11611 0.72759 0.05209 0.0
H106 H 0.11668 0.29714 0.11622 0.0
H107 H 1.02161 0.54097 0.15194 0.0
H108 H 0.06046 0.63582 0.05837 0.0
H109 H 0.06604 0.59102 0.18487 0.0
H110 H 0.97721 0.2329 0.06645 0.0
H111 H 0.17674 0.78135 0.08073 0.0
H112 H 0.20927 0.78858 0.11926 0.0
H113 H 0.94498 0.27436 0.04051 0.0
H114 H 0.19693 0.75002 0.15572 0.0
N115 N 0.08987 0.63659 0.09013 0.0
C116 C 0.0866 0.65844 0.07106 0.0
C117 C 0.15213 0.74097 0.08363 0.0
C118 C 0.15233 0.71905 0.10375 0.0
C119 C 0.11793 0.71076 0.06745 0.0
C120 C 0.11916 0.66639 0.1067 0.0
H121 H 0.14185 0.6761 0.18073 0.0
N122 N 0.07392 0.59624 0.12959 0.0
C123 C 0.07979 0.60639 0.1687 0.0
C124 C 0.11173 0.64497 0.12715 0.0
C125 C 0.05453 0.57844 0.15006 0.0
C126 C 0.12292 0.65426 0.1663 0.0
C127 C 0.13803 0.67517 0.14534 0.0
O128 O 0.9745 0.54349 0.11244 0.0
O129 O 1.03162 0.47353 0.08268 0.0
O130 O 0.09634 0.51562 0.04696 0.0
O131 O 0.04652 0.55048 0.05871 0.0
O132 O 0.9897 0.46956 0.1104 0.0
O133 O 0.98377 0.55501 0.078 0.0
O134 O 0.14558 0.46588 0.04943 0.0
O135 O 0.11294 0.55792 0.08278 0.0
O136 O 0.07794 0.52418 0.12546 0.0
O137 O 0.09452 0.46183 0.11197 0.0
O138 O 0.17125 0.55207 0.0963 0.0
O139 O 0.19299 0.52078 0.07346 0.0
C140 C 0.99799 0.44298 0.09624 0.0
C141 C 0.94482 0.596 0.09675 0.0
C142 C 0.88598 0.63027 0.09363 0.0
C143 C 0.89656 0.58958 0.09094 0.0
C144 C 0.92495 0.67726 0.10141 0.0
C145 C 0.9818 0.64335 0.10498 0.0
C146 C 0.97213 0.68359 0.10704 0.0
C147 C 0.07064 0.53922 0.04329 0.0
C148 C 0.95731 0.55402 0.0949 0.0
C149 C 0.17572 0.72621 0.14207 0.0
C150 C 0.18256 0.74832 0.12129 0.0
C151 C 0.1551 0.5834 0.09218 0.0
C152 C 0.22453 0.47028 0.05891 0.0
C153 C 0.2775 0.50128 0.06222 0.0
C154 C 0.30829 0.47923 0.06633 0.0
C155 C 0.28464 0.42579 0.06785 0.0
C156 C 0.20296 0.4171 0.05949 0.0
C157 C 0.23274 0.39519 0.0642 0.0
C158 C 0.09162 0.48873 0.12802 0.0
C159 C 0.19176 0.49369 0.05679 0.0
H160 H 0.86723 0.55305 0.08491 0.0
H161 H 0.91878 0.70938 0.10327 0.0
H162 H 1.01833 0.64925 0.11001 0.0
H163 H 1.00136 0.71994 0.11327 0.0
H164 H 0.29459 0.54236 0.06153 0.0
H165 H 0.30635 0.40742 0.07189 0.0
H166 H 0.16273 0.39232 0.05697 0.0
H167 H 0.21537 0.35416 0.06523 0.0
Eu168 Eu 0.586 0.54622 0.09367 0.0
C169 C 0.68922 0.74178 0.02882 0.0
C170 C 0.77962 0.78507 0.03492 0.0
C171 C 0.7464 0.80247 0.00192 0.0
C172 C 0.72974 0.75015 0.04162 0.0
C173 C 0.69697 0.76733 0.00864 0.0
C174 C 0.78763 0.81173 0.01517 0.0
C175 C 0.60633 0.72604 0.00447 0.0
N176 N 0.642 0.71007 0.03656 0.0
C177 C 0.60066 0.70314 0.02497 0.0
C178 C 0.65475 0.75824 0.99623 0.0
Eu179 Eu 0.63465 0.67707 0.07262 0.0
N180 N 0.72026 0.72617 0.06122 0.0
C181 C 0.75914 0.73618 0.07511 0.0
C182 C 0.81975 0.79348 0.04867 0.0
C183 C 0.8094 0.76885 0.06889 0.0
H184 H 0.56306 0.6801 0.03144 0.0
H185 H 0.83999 0.77613 0.07998 0.0
H186 H 0.82555 0.83977 0.01005 0.0
H187 H 0.57333 0.71968 0.99527 0.0
H188 H 0.75146 0.72042 0.09134 0.0
H189 H 0.42754 0.51698 0.14582 0.0
H190 H 0.85863 0.81979 0.04407 0.0
H191 H 0.68759 0.53119 0.10673 0.0
H192 H 0.47344 0.5282 0.11102 0.0
H193 H 0.72814 0.52219 0.13952 0.0
H194 H 0.75304 0.82329 0.98671 0.0
H195 H 0.46595 0.51144 0.18065 0.0
H196 H 0.53639 0.50775 0.19999 0.0
H197 H 0.65911 0.7768 0.98056 0.0
H198 H 0.61806 0.5097 0.19828 0.0
N199 N 0.53721 0.53052 0.12598 0.0
C200 C 0.49044 0.52626 0.12608 0.0
C201 C 0.48587 0.516 0.16537 0.0
C202 C 0.53252 0.51744 0.16503 0.0
C203 C 0.46427 0.51945 0.14577 0.0
C204 C 0.55742 0.52411 0.14477 0.0
H205 H 0.68968 0.51526 0.17593 0.0
N206 N 0.62767 0.53356 0.124 0.0
C207 C 0.69357 0.52393 0.141 0.0
C208 C 0.60413 0.52634 0.14377 0.0
C209 C 0.67059 0.52996 0.12233 0.0
C210 C 0.67169 0.51987 0.1615 0.0
C211 C 0.62603 0.52022 0.16308 0.0
O212 O 0.57848 0.47074 0.08922 0.0
O213 O 0.6577 0.62001 0.08579 0.0
O214 O 0.62813 0.63233 0.0425 0.0
O215 O 0.57506 0.54927 0.0558 0.0
O216 O 0.6551 0.5534 0.07668 0.0
O217 O 0.51253 0.47955 0.08568 0.0
O218 O 0.59559 0.71944 0.08128 0.0
O219 O 0.56657 0.60082 0.0802 0.0
O220 O 0.592 0.60656 0.11984 0.0
O221 O 0.66384 0.66964 0.10514 0.0
O222 O 0.54997 0.65328 0.06869 0.0
O223 O 0.67147 0.74622 0.09244 0.0
C224 C 0.68358 0.60219 0.07675 0.0
C225 C 0.49834 0.39602 0.09586 0.0
C226 C 0.47302 0.30436 0.09872 0.0
C227 C 0.50402 0.35374 0.08949 0.0
C228 C 0.43647 0.29872 0.11434 0.0
C229 C 0.46159 0.38827 0.11163 0.0
C230 C 0.43103 0.34011 0.12071 0.0
C231 C 0.59679 0.58321 0.0395 0.0
C232 C 0.52979 0.44752 0.08566 0.0
C233 C 0.6015 0.51399 0.18331 0.0
C234 C 0.55495 0.51275 0.18429 0.0
C235 C 0.52974 0.60668 0.07496 0.0
C236 C 0.64874 0.80903 0.08447 0.0
C237 C 0.61422 0.82708 0.08739 0.0
C238 C 0.62802 0.87765 0.08162 0.0
C239 C 0.67701 0.90967 0.07321 0.0
C240 C 0.69698 0.84194 0.0757 0.0
C241 C 0.71093 0.89188 0.07024 0.0
C242 C 0.63271 0.6526 0.12174 0.0
C243 C 0.63479 0.75633 0.0908 0.0
H244 H 0.53292 0.3596 0.07762 0.0
H245 H 0.41153 0.26189 0.12162 0.0
H246 H 0.45618 0.41939 0.1169 0.0
H247 H 0.40266 0.33473 0.13278 0.0
H248 H 0.57665 0.80159 0.09374 0.0
H249 H 0.68932 0.94884 0.06888 0.0
H250 H 0.72419 0.82927 0.07312 0.0
H251 H 0.74831 0.917 0.06364 0.0
Eu252 Eu 0.10136 0.56095 0.89768 0.0
C253 C 0.09186 0.39854 0.94301 0.0
C254 C 0.12441 0.36233 0.91647 0.0
C255 C 0.15177 0.37164 0.95431 0.0
C256 C 0.0942 0.38435 0.9217 0.0
C257 C 0.11904 0.39019 0.95972 0.0
C258 C 0.15458 0.35788 0.9327 0.0
C259 C 0.07301 0.41024 0.98628 0.0
N260 N 0.05917 0.41551 0.94776 0.0
C261 C 0.04627 0.4168 0.96922 0.0
C262 C 0.11062 0.39826 0.9815 0.0
Eu263 Eu 1.02052 0.43227 0.91698 0.0
N264 N 0.06368 0.38796 0.90648 0.0
C265 C 0.05627 0.36357 0.88687 0.0
C266 C 0.12151 0.34316 0.89537 0.0
C267 C 0.0861 0.34239 0.88071 0.0
H268 H 1.01529 0.42302 0.97344 0.0
H269 H 0.08092 0.32446 0.86485 0.0
H270 H 0.17856 0.34184 0.92888 0.0
H271 H 0.064 0.41362 0.00312 0.0
H272 H 1.02626 0.35863 0.87614 0.0
H273 H 0.05093 0.69566 0.93309 0.0
H274 H 0.14413 0.32611 0.89069 0.0
H275 H 0.11573 0.55252 0.84191 0.0
H276 H 0.08798 0.64023 0.93253 0.0
H277 H 0.07526 0.55658 0.80805 0.0
H278 H 0.17356 0.36591 0.96687 0.0
H279 H 1.00525 0.701 0.90068 0.0
H280 H 0.96816 0.66778 0.8638 0.0
H281 H 0.1308 0.39245 0.99477 0.0
H282 H 0.9696 0.62386 0.83016 0.0
N283 N 0.06013 0.60991 0.90071 0.0
C284 C 0.06598 0.63955 0.91862 0.0
C285 C 1.01972 0.67477 0.90071 0.0
C286 C 1.01428 0.64506 0.88235 0.0
C287 C 0.04575 0.67208 0.91892 0.0
C288 C 1.03694 0.61413 0.88247 0.0
H289 H 1.01252 0.58557 0.80881 0.0
N290 N 0.06981 0.57 0.86288 0.0
C291 C 0.06375 0.56517 0.82349 0.0
C292 C 0.03976 0.59135 0.86328 0.0
C293 C 0.0858 0.56183 0.84299 0.0
C294 C 1.02823 0.58132 0.82401 0.0
C295 C 1.01757 0.59687 0.84389 0.0
O296 O 0.16571 0.61237 0.87661 0.0
O297 O 0.10035 0.48657 0.90348 0.0
O298 O 1.03526 0.48383 0.94565 0.0
O299 O 0.09372 0.56643 0.93504 0.0
O300 O 0.1563 0.55073 0.9185 0.0
O301 O 0.16432 0.63299 0.90992 0.0
O302 O 0.95395 0.39729 0.93791 0.0
O303 O 1.02542 0.50845 0.9115 0.0
O304 O 0.08483 0.49643 0.87148 0.0
O305 O 1.00791 0.42716 0.88115 0.0
O306 O 0.96202 0.44588 0.89944 0.0
O307 O 0.96205 0.35163 0.9124 0.0
C308 C 0.14175 0.50387 0.91425 0.0
C309 C 0.20049 0.70134 0.88469 0.0
C310 C 0.25564 0.79512 0.88672 0.0
C311 C 0.24513 0.74508 0.89238 0.0
C312 C 0.21963 0.80013 0.87418 0.0
C313 C 0.16696 0.70857 0.87147 0.0
C314 C 0.1761 0.75737 0.86653 0.0
C315 C 0.06621 0.53205 0.95013 0.0
C316 C 0.18709 0.64839 0.8912 0.0
C317 C 0.98876 0.62134 0.84464 0.0
C318 C 0.98815 0.64652 0.86372 0.0
C319 C 0.98364 0.49449 0.90206 0.0
C320 C 0.89696 0.30792 0.93977 0.0
C321 C 0.84854 0.27727 0.93075 0.0
C322 C 0.80843 0.24009 0.94349 0.0
C323 C 0.81925 0.2317 0.96504 0.0
C324 C 0.90674 0.29885 0.9612 0.0
C325 C 0.86814 0.2603 0.97363 0.0
C326 C 0.04216 0.45316 0.86636 0.0
C327 C 0.93324 0.35377 0.9277 0.0
H328 H 0.27174 0.74018 0.90239 0.0
H329 H 0.22524 0.83746 0.87016 0.0
H330 H 0.1333 0.67641 0.86501 0.0
H331 H 0.14921 0.76208 0.85664 0.0
H332 H 0.84202 0.28395 0.91396 0.0
H333 H 0.78967 0.20409 0.97557 0.0
H334 H 0.94365 0.3224 0.9685 0.0
H335 H 0.87565 0.25377 0.99028 0.0
Eu336 Eu 0.56131 0.57466 0.89159 0.0
C337 C 0.76173 0.7012 0.9519 0.0
C338 C 0.79438 0.78946 0.94175 0.0
C339 C 0.82312 0.7689 0.97526 0.0
C340 C 0.76302 0.73692 0.93747 0.0
C341 C 0.79196 0.71684 0.97096 0.0
C342 C 0.82394 0.80519 0.96082 0.0
C343 C 0.76468 0.6287 0.97841 0.0
N344 N 0.73426 0.65128 0.94642 0.0
C345 C 0.73716 0.61531 0.95889 0.0
C346 C 0.79201 0.67974 0.98457 0.0
Eu347 Eu 0.69179 0.63092 0.91221 0.0
N348 N 0.73716 0.72043 0.91837 0.0
C349 C 0.74367 0.75478 0.90237 0.0
C350 C 0.79742 0.82464 0.92615 0.0
C351 C 0.77232 0.80716 0.90625 0.0
H352 H 0.71872 0.57604 0.95385 0.0
H353 H 0.77585 0.83398 0.89369 0.0
H354 H 0.84862 0.8453 0.96425 0.0
H355 H 0.76581 0.59975 0.98841 0.0
H356 H 0.7267 0.74236 0.88647 0.0
H357 H 0.43937 0.38803 0.92735 0.0
H358 H 0.82069 0.86526 0.92891 0.0
H359 H 0.57003 0.61344 0.83974 0.0
H360 H 0.50593 0.47739 0.92725 0.0
H361 H 0.53251 0.57778 0.8037 0.0
H362 H 0.8475 0.78148 0.98951 0.0
H363 H 0.40041 0.34445 0.89251 0.0
H364 H 0.39112 0.35064 0.85223 0.0
H365 H 0.81438 0.69023 -0.00058 0.0
H366 H 0.41513 0.40278 0.81889 0.0
N367 N 0.50836 0.48496 0.8925 0.0
C368 C 0.49104 0.45893 0.91178 0.0
C369 C 0.431 0.38364 0.89228 0.0
C370 C 0.4472 0.41084 0.87265 0.0
C371 C 0.45282 0.40799 0.91194 0.0
C372 C 0.48709 0.46195 0.8732 0.0
H373 H 0.47003 0.48611 0.8003 0.0
N374 N 0.53615 0.54139 0.85572 0.0
C375 C 0.52384 0.55284 0.8177 0.0
C376 C 0.50186 0.49086 0.8542 0.0
C377 C 0.54574 0.57275 0.83803 0.0
C378 C 0.48868 0.50109 0.81585 0.0
C379 C 0.47606 0.46975 0.83434 0.0
O380 O 0.51135 0.60492 0.8828 0.0
O381 O 0.62542 0.64565 0.90681 0.0
O382 O 0.64798 0.62003 0.94282 0.0
O383 O 0.56529 0.56585 0.9298 0.0
O384 O 0.58854 0.65404 0.87975 0.0
O385 O 0.49019 0.55241 0.90959 0.0
O386 O 0.73204 0.58922 0.90573 0.0
O387 O 0.62378 0.56049 0.8992 0.0
O388 O 0.61984 0.58329 0.86398 0.0
O389 O 0.68859 0.65423 0.87803 0.0
O390 O 0.66382 0.5489 0.92331 0.0
O391 O 0.76095 0.66467 0.89248 0.0
C392 C 0.62211 0.67832 0.89458 0.0
C393 C 0.42283 0.5461 0.88717 0.0
C394 C 0.32972 0.50853 0.88833 0.0
C395 C 0.37824 0.53848 0.89823 0.0
C396 C 0.32657 0.48296 0.86866 0.0
C397 C 0.41736 0.52529 0.86617 0.0
C398 C 0.37004 0.4922 0.85747 0.0
C399 C 0.59942 0.5873 0.94599 0.0
C400 C 0.47526 0.57638 0.89652 0.0
C401 C 0.43599 0.41922 0.83387 0.0
C402 C 0.42222 0.38955 0.85287 0.0
C403 C 0.62542 0.52625 0.91048 0.0
C404 C 0.82006 0.64006 0.90372 0.0
C405 C 0.83673 0.60439 0.90163 0.0
C406 C 0.88259 0.61389 0.91121 0.0
C407 C 0.91173 0.66022 0.92252 0.0
C408 C 0.85009 0.68602 0.91489 0.0
C409 C 0.89577 0.69598 0.92416 0.0
C410 C 0.66755 0.62198 0.86205 0.0
C411 C 0.76956 0.62712 0.89579 0.0
H412 H 0.38143 0.55736 0.9137 0.0
H413 H 0.29018 0.45846 0.86107 0.0
H414 H 0.44979 0.53559 0.85609 0.0
H415 H 0.36707 0.47518 0.84155 0.0
H416 H 0.81315 0.56863 0.89326 0.0
H417 H 0.94721 0.66927 0.93018 0.0
H418 H 0.83798 0.71392 0.91678 0.0
H419 H 0.91866 0.73131 0.93289 0.0
Eu420 Eu 0.55312 1.01891 0.89902 0.0
C421 C 0.41832 0.09837 0.95273 0.0
C422 C 0.3316 0.04819 0.94048 0.0
C423 C 0.3505 0.10014 0.9732 0.0
C424 C 0.38376 0.06534 0.93784 0.0
C425 C 0.40211 0.11589 0.97075 0.0
C426 C 0.31519 0.06585 0.95822 0.0
C427 C 0.48957 0.16766 0.98127 0.0
N428 N 0.46814 0.11572 0.9489 0.0
C429 C 0.50381 0.15129 0.96252 0.0
C430 C 0.4384 0.14994 0.9854 0.0
Eu431 Eu 0.49049 0.09441 0.91468 0.0
N432 N 0.40145 0.05261 0.91996 0.0
C433 C 0.36888 1.02379 0.90382 0.0
C434 C 0.29782 1.01574 0.92464 0.0
C435 C 0.31664 1.00356 0.90616 0.0
H436 H 0.54348 0.16795 0.95887 0.0
H437 H 0.29115 0.98017 0.89333 0.0
H438 H 0.27542 0.05372 0.96036 0.0
H439 H 0.51819 0.19512 0.99213 0.0
H440 H 0.3832 1.0181 0.88867 0.0
H441 H 0.74096 0.14987 0.86592 0.0
H442 H 0.25747 1.00144 0.92613 0.0
H443 H 0.45906 0.91016 0.87633 0.0
H444 H 0.67459 0.11183 0.89407 0.0
H445 H 0.43727 0.86764 0.84061 0.0
H446 H 0.33748 0.11393 0.98671 0.0
H447 H 0.72424 0.11302 0.8287 0.0
H448 H 0.66434 0.04695 0.80241 0.0
H449 H 0.42734 0.16361 -0.0004 0.0
H450 H 0.58173 0.9708 0.7955 0.0
N451 N 0.61937 0.05738 0.87291 0.0
C452 C 0.666 0.09722 0.87779 0.0
C453 C 0.69453 0.09717 0.84091 0.0
C454 C 0.64732 0.05493 0.83617 0.0
C455 C 0.70406 0.11811 0.86189 0.0
C456 C 0.61026 0.03492 0.85285 0.0
H457 H 0.49703 0.90392 0.80956 0.0
N458 N 0.52907 0.97263 0.86561 0.0
C459 C 0.47274 0.90283 0.84268 0.0
C460 C 0.56363 0.99176 0.84903 0.0
C461 C 0.48499 0.92765 0.86293 0.0
C462 C 0.5066 0.92336 0.82521 0.0
C463 C 0.55307 0.96786 0.82833 0.0
O464 O 0.55825 0.94942 0.90415 0.0
O465 O 0.47773 1.0165 0.90298 0.0
O466 O 0.49842 0.06056 0.94624 0.0
O467 O 0.5597 0.03833 0.936 0.0
O468 O 0.47989 0.95206 0.91111 0.0
O469 O 0.61828 1.02276 0.91571 0.0
O470 O 0.53158 0.17553 0.90503 0.0
O471 O 0.56276 0.09218 0.91048 0.0
O472 O 0.55121 0.0699 0.87073 0.0
O473 O 0.4748 0.05619 0.88208 0.0
O474 O 0.57053 0.15787 0.92339 0.0
O475 O 0.45666 0.12724 0.89314 0.0
C476 C 0.45066 0.97142 0.91046 0.0
C477 C 0.63963 0.95559 0.9122 0.0
C478 C 0.66048 0.88607 0.91177 0.0
C479 C 0.62444 0.90292 0.9101 0.0
C480 C 0.71142 0.92236 0.91536 0.0
C481 C 0.69132 0.99052 0.91549 0.0
C482 C 0.72665 0.97401 0.91703 0.0
C483 C 0.53332 0.04794 0.95091 0.0
C484 C 0.60195 0.97378 0.91413 0.0
C485 C 0.58938 0.98852 0.81152 0.0
C486 C 0.63643 0.03186 0.81544 0.0
C487 C 0.59518 0.13534 0.91779 0.0
C488 C 0.48 0.21356 0.90098 0.0
C489 C 0.51543 0.26662 0.8992 0.0
C490 C 0.50231 0.30325 0.90631 0.0
C491 C 0.45355 0.28594 0.91486 0.0
C492 C 0.43144 0.19822 0.90938 0.0
C493 C 0.41844 0.23414 0.91615 0.0
C494 C 0.51002 0.07339 0.86703 0.0
C495 C 0.49354 0.174 0.89489 0.0
H496 H 0.58487 0.87513 0.90761 0.0
H497 H 0.73977 0.91073 0.91643 0.0
H498 H 0.70456 0.03081 0.91744 0.0
H499 H 0.7662 1.00151 0.91969 0.0
H500 H 0.55321 0.27918 0.89298 0.0
H501 H 0.44272 0.31261 0.921 0.0
H502 H 0.40341 0.15827 0.91103 0.0
H503 H 0.38109 0.2217 0.92282 0.0
Eu504 Eu 0.23617 0.41306 0.42968 0.0
C505 C 0.05922 0.2927 0.36098 0.0
C506 C 1.00909 0.33379 0.35609 0.0
C507 C 1.00488 0.27255 0.32912 0.0
C508 C 0.0452 0.3274 0.36794 0.0
C509 C 0.03947 0.265 0.34147 0.0
C510 C 0.98908 0.30623 0.33662 0.0
C511 C 0.0851 0.22033 0.34921 0.0
N512 N 0.09057 0.28442 0.3739 0.0
C513 C 0.10272 0.24797 0.3687 0.0
C514 C 0.05339 0.22896 0.33552 0.0
Eu515 Eu 0.11028 0.32452 0.40837 0.0
N516 N 0.06394 0.35197 0.3872 0.0
C517 C 0.04824 0.38338 0.39564 0.0
C518 C 0.99249 0.36582 0.36477 0.0
C519 C 1.01273 0.39134 0.38447 0.0
H520 H 0.12616 0.24048 0.37962 0.0
H521 H 0.99964 0.41565 0.39144 0.0
H522 H 0.96058 0.3098 0.32746 0.0
H523 H 0.09529 0.19186 0.34495 0.0
H524 H 0.06068 0.39949 0.41163 0.0
H525 H 0.37658 0.35898 0.40933 0.0
H526 H 0.96348 0.37045 0.35662 0.0
H527 H 0.21706 0.45472 0.47847 0.0
H528 H 0.31077 0.38095 0.40209 0.0
H529 H 0.24278 0.45909 0.51691 0.0
H530 H 0.98892 0.25135 0.31415 0.0
H531 H 0.39792 0.34944 0.44742 0.0
H532 H 0.39032 0.36303 0.4872 0.0
H533 H 1.03868 0.20662 0.32076 0.0
H534 H 0.35352 0.38993 0.51651 0.0
N535 N 0.2917 0.38096 0.43562 0.0
C536 C 0.31833 0.37572 0.41879 0.0
C537 C 0.36808 0.35829 0.44434 0.0
C538 C 0.34405 0.36836 0.46158 0.0
C539 C 0.35608 0.3634 0.42284 0.0
C540 C 0.30543 0.37986 0.45671 0.0
H541 H 0.29786 0.42462 0.52781 0.0
N542 N 0.25388 0.41422 0.46767 0.0
C543 C 0.25461 0.44091 0.50485 0.0
C544 C 0.28565 0.39656 0.47322 0.0
C545 C 0.24012 0.43828 0.48298 0.0
C546 C 0.28562 0.42131 0.51094 0.0
C547 C 0.30294 0.40043 0.49499 0.0
O548 O 0.31296 0.47593 0.43751 0.0
O549 O 0.16786 0.41042 0.41409 0.0
O550 O 0.15829 0.35545 0.37838 0.0
O551 O 0.23999 0.39107 0.39344 0.0
O552 O 0.20329 0.46175 0.4396 0.0
O553 O 0.27735 0.47969 0.40814 0.0
O554 O 0.0633 0.24345 0.41601 0.0
O555 O 0.18768 0.33622 0.41649 0.0
O556 O 0.17365 0.36603 0.45636 0.0
O557 O 0.10277 0.35827 0.43932 0.0
O558 O 0.12909 0.26573 0.42252 0.0
O559 O 1.03465 0.295 0.42261 0.0
C560 C 0.16774 0.44649 0.42521 0.0
C561 C 0.36777 0.51634 0.40702 0.0
C562 C 0.46049 0.57294 0.40182 0.0
C563 C 0.41478 0.55871 0.41367 0.0
C564 C 0.45771 0.54368 0.38342 0.0
C565 C 0.36731 0.48894 0.38838 0.0
C566 C 0.41172 0.50241 0.3768 0.0
C567 C 0.20789 0.37602 0.37651 0.0
C568 C 0.3193 0.50036 0.41929 0.0
C569 C 0.33961 0.38681 0.49993 0.0
C570 C 0.36049 0.37135 0.48324 0.0
C571 C 0.17712 0.29364 0.42425 0.0
C572 C 0.97505 0.20952 0.41153 0.0
C573 C 0.95605 0.15643 0.41407 0.0
C574 C 0.91119 0.12058 0.40324 0.0
C575 C 0.88595 0.13884 0.38996 0.0
C576 C 0.94794 0.22605 0.39856 0.0
C577 C 0.90392 0.19094 0.38782 0.0
C578 C 0.1255 0.35607 0.457 0.0
C579 C 1.02398 0.24734 0.42161 0.0
H580 H 0.41546 0.58079 0.42776 0.0
H581 H 0.49144 0.55238 0.37414 0.0
H582 H 0.33251 0.45682 0.38266 0.0
H583 H 0.41051 0.48051 0.36255 0.0
H584 H 0.97677 0.1432 0.42394 0.0
H585 H 0.85196 0.11268 0.38118 0.0
H586 H 0.96092 0.26619 0.39647 0.0
H587 H 0.88377 0.20422 0.37764 0.0
Eu588 Eu 0.69965 0.85709 0.42717 0.0
C589 C 0.72806 0.69349 0.3762 0.0
C590 C 0.67776 0.61871 0.39864 0.0
C591 C 0.69654 0.60848 0.36101 0.0
C592 C 0.70619 0.67238 0.39634 0.0
C593 C 0.72477 0.66155 0.35862 0.0
C594 C 0.67225 0.58716 0.3808 0.0
C595 C 0.7803 0.73651 0.33766 0.0
N596 N 0.75601 0.74498 0.37423 0.0
C597 C 0.78246 0.76655 0.35538 0.0
C598 C 0.7519 0.68378 0.3394 0.0
Eu599 Eu 0.76767 0.79327 0.40645 0.0
N600 N 0.71479 0.70368 0.41385 0.0
C601 C 0.69646 0.68265 0.43411 0.0
C602 C 0.65724 0.5979 0.41905 0.0
C603 C 0.66692 0.63 0.43685 0.0
H604 H 0.80656 0.80707 0.35424 0.0
H605 H 0.65167 0.61421 0.45281 0.0
H606 H 0.6508 0.54605 0.3824 0.0
H607 H 0.80174 0.75403 0.32291 0.0
H608 H 0.70191 0.70533 0.44846 0.0
H609 H 0.77581 0.05204 0.39824 0.0
H610 H 0.63491 0.55702 0.42136 0.0
H611 H 0.66316 0.80889 0.47815 0.0
H612 H 0.74936 0.96138 0.39518 0.0
H613 H 0.65605 0.83865 0.51479 0.0
H614 H 0.69382 0.58352 0.34771 0.0
H615 H 0.77563 0.08915 0.43424 0.0
H616 H 0.75225 0.07524 0.47388 0.0
H617 H 0.75237 0.66059 0.32602 0.0
H618 H 0.71766 1.01696 0.50519 0.0
N619 N 0.73737 0.94691 0.42942 0.0
C620 C 0.75085 0.97711 0.41118 0.0
C621 C 0.765 0.04931 0.43311 0.0
C622 C 0.74855 1.01779 0.45157 0.0
C623 C 0.76544 0.02864 0.41279 0.0
C624 C 0.73502 0.96607 0.44924 0.0
H625 H 0.6842 0.92964 0.52088 0.0
N626 N 0.70017 0.88311 0.46394 0.0
C627 C 0.67315 0.86571 0.50154 0.0
C628 C 0.71597 0.93329 0.467 0.0
C629 C 0.67772 0.84907 0.48075 0.0
C630 C 0.68914 0.91708 0.5049 0.0
C631 C 0.71002 0.95142 0.48748 0.0
O632 O 0.6173 0.82183 0.43077 0.0
O633 O 0.68986 0.78421 0.41225 0.0
O634 O 0.74015 0.81477 0.37641 0.0
O635 O 0.71338 0.87044 0.38953 0.0
O636 O 0.64881 0.77834 0.44028 0.0
O637 O 0.65656 0.88896 0.41099 0.0
O638 O 0.84052 0.82471 0.42364 0.0
O639 O 0.77441 0.86652 0.41794 0.0
O640 O 0.75083 0.85369 0.45492 0.0
O641 O 0.76241 0.78677 0.44297 0.0
O642 O 0.8201 0.87195 0.39182 0.0
O643 O 0.82319 0.76967 0.39833 0.0
C644 C 0.65549 0.7527 0.4251 0.0
C645 C 0.5859 0.87988 0.43185 0.0
C646 C 0.53119 0.91901 0.43227 0.0
C647 C 0.55845 0.89955 0.42048 0.0
C648 C 0.53256 0.91833 0.45536 0.0
C649 C 0.58559 0.88014 0.45483 0.0
C650 C 0.55966 0.89953 0.4664 0.0
C651 C 0.72546 0.84866 0.37333 0.0
C652 C 0.61376 0.85751 0.42033 0.0
C653 C 0.72309 1.00267 0.48975 0.0
C654 C 0.74266 0.03585 0.47189 0.0
C655 C 0.80947 0.89783 0.40552 0.0
C656 C 0.90833 0.83528 0.40106 0.0
C657 C 0.95336 0.84307 0.41112 0.0
C658 C 1.00065 0.87424 0.40087 0.0
C659 C 1.00225 0.89845 0.38099 0.0
C660 C 0.91138 0.8589 0.38087 0.0
C661 C 0.95792 0.89065 0.37108 0.0
C662 C 0.7651 0.8188 0.45818 0.0
C663 C 0.85817 0.80229 0.41122 0.0
H664 H 0.55829 0.89951 0.40275 0.0
H665 H 0.51128 0.93111 0.46514 0.0
H666 H 0.60459 0.8643 0.46405 0.0
H667 H 0.5597 0.89902 0.48413 0.0
H668 H 0.9515 0.82415 0.42644 0.0
H669 H 1.03803 0.92331 0.37297 0.0
H670 H 0.8779 0.85284 0.37246 0.0
H671 H 0.95961 0.90895 0.35562 0.0
Eu672 Eu 0.25853 0.87359 0.42913 0.0
C673 C 0.32316 0.07743 0.37155 0.0
C674 C 0.41364 0.12456 0.36502 0.0
C675 C 0.35832 0.14774 0.34562 0.0
C676 C 0.37107 0.08484 0.37557 0.0
C677 C 0.31625 0.10913 0.35673 0.0
C678 C 0.40694 0.15556 0.34982 0.0
C679 C 0.22731 0.06467 0.36627 0.0
N680 N 0.28372 0.04128 0.38322 0.0
C681 C 0.23624 0.03458 0.38095 0.0
C682 C 0.26757 0.10247 0.35428 0.0
Eu683 Eu 0.30472 1.00628 0.41302 0.0
N684 N 0.37644 0.05601 0.39119 0.0
C685 C 0.42321 0.06531 0.39727 0.0
C686 C 0.46184 0.13366 0.37097 0.0
C687 C 0.46661 0.1035 0.38701 0.0
H688 H 0.20541 1.00684 0.39085 0.0
H689 H 0.50375 0.11127 0.39223 0.0
H690 H 0.43921 0.18646 0.34164 0.0
H691 H 0.18962 0.05945 0.36459 0.0
H692 H 0.42698 0.04635 0.41129 0.0
H693 H 0.05304 0.75921 0.42225 0.0
H694 H 0.49566 0.16491 0.36385 0.0
H695 H 0.33316 0.8911 0.47367 0.0
H696 H 0.14102 0.81243 0.40922 0.0
H697 H 0.32335 0.86829 0.5126 0.0
H698 H 0.35382 0.17254 0.33417 0.0
H699 H 1.03656 0.73627 0.46142 0.0
H700 H 0.07102 0.73907 0.49888 0.0
H701 H 0.26079 0.12668 0.34338 0.0
H702 H 0.14408 0.77008 0.52351 0.0
N703 N 0.17312 0.82611 0.44101 0.0
C704 C 0.13374 0.80575 0.42655 0.0
C705 C 0.07493 0.76167 0.45591 0.0
C706 C 0.11565 0.77998 0.4705 0.0
C707 C 0.08406 0.77451 0.43381 0.0
C708 C 0.16503 0.8128 0.46249 0.0
H709 H 0.23795 0.81844 0.5288 0.0
N710 N 0.25371 0.8572 0.46762 0.0
C711 C 0.29015 0.85704 0.50257 0.0
C712 C 0.20643 0.8289 0.47621 0.0
C713 C 0.29545 0.86982 0.48037 0.0
C714 C 0.24191 0.82907 0.51167 0.0
C715 C 0.19934 0.81376 0.49842 0.0
O716 O 0.29143 0.82384 0.42516 0.0
O717 O 0.32527 0.94242 0.41375 0.0
O718 O 0.28151 0.96643 0.38057 0.0
O719 O 0.24219 0.88027 0.39189 0.0
O720 O 0.33955 0.89681 0.4348 0.0
O721 O 0.21534 0.79652 0.41475 0.0
O722 O 0.27865 0.05335 0.42929 0.0
O723 O 0.23639 0.9288 0.41781 0.0
O724 O 0.27135 0.93045 0.45789 0.0
O725 O 0.34093 0.99773 0.44287 0.0
O726 O 0.22922 0.98845 0.42826 0.0
O727 O 0.35869 0.07659 0.42958 0.0
C728 C 0.36039 0.93636 0.42243 0.0
C729 C 0.23375 0.73549 0.43051 0.0
C730 C 0.19719 0.64194 0.43237 0.0
C731 C 0.21195 0.68706 0.41993 0.0
C732 C 0.20591 0.64673 0.45512 0.0
C733 C 0.24096 0.73773 0.45326 0.0
C734 C 0.22718 0.69392 0.46539 0.0
C735 C 0.25555 0.91683 0.37652 0.0
C736 C 0.24987 0.78423 0.41845 0.0
C737 C 0.15021 0.78226 0.50655 0.0
C738 C 0.10857 0.76479 0.49254 0.0
C739 C 0.20585 0.9398 0.4268 0.0
C740 C 0.3365 0.14211 0.42696 0.0
C741 C 0.29892 0.15671 0.42766 0.0
C742 C 0.31016 0.20604 0.42105 0.0
C743 C 0.35954 0.24021 0.41371 0.0
C744 C 0.38549 0.17758 0.41977 0.0
C745 C 0.39672 0.22612 0.41314 0.0
C746 C 0.31227 0.97661 0.45992 0.0
C747 C 0.32452 0.08998 0.4335 0.0
H748 H 0.20635 0.68452 0.40237 0.0
H749 H 0.19685 0.61366 0.46509 0.0
H750 H 0.25816 0.77369 0.46177 0.0
H751 H 0.23354 0.69662 0.4829 0.0
H752 H 0.26087 0.1294 0.4329 0.0
H753 H 0.36976 0.27825 0.40852 0.0
H754 H 0.41522 0.16783 0.41907 0.0
H755 H 0.43453 0.25305 0.40751 0.0
Eu756 Eu 0.75511 0.89646 0.2268 0.0
C757 C 0.66327 0.69385 0.28781 0.0
C758 C 0.70044 0.64305 0.27629 0.0
C759 C 0.65153 0.6221 0.30998 0.0
C760 C 0.69118 0.68381 0.27282 0.0
C761 C 0.64425 0.66395 0.30689 0.0
C762 C 0.6799 0.61187 0.29481 0.0
C763 C 0.60812 0.716 0.31742 0.0
N764 N 0.6529 0.73153 0.28327 0.0
C765 C 0.6252 0.74256 0.29765 0.0
C766 C 0.61717 0.67606 0.32197 0.0
Eu767 Eu 0.67326 0.76623 0.2474 0.0
N768 N 0.7065 0.71176 0.25415 0.0
C769 C 0.73044 0.70034 0.23813 0.0
C770 C 0.72775 0.63322 0.26045 0.0
C771 C 0.74285 0.66208 0.24125 0.0
H772 H 0.6158 0.77163 0.29391 0.0
H773 H 0.76218 0.65351 0.22848 0.0
H774 H 0.68552 0.57963 0.2975 0.0
H775 H 0.58678 0.72544 0.32884 0.0
H776 H 0.73758 0.71889 0.22247 0.0
H777 H 0.69657 1.0273 0.259 0.0
H778 H 0.73581 0.60239 0.26253 0.0
H779 H 0.78804 0.88382 0.17537 0.0
H780 H 0.70821 0.95271 0.25987 0.0
H781 H 0.80105 0.92584 0.1395 0.0
H782 H 0.63531 0.59743 0.32405 0.0
H783 H 0.71208 0.07653 0.22473 0.0
H784 H 0.7387 0.08927 0.1854 0.0
H785 H 0.60263 0.65449 0.33699 0.0
H786 H 0.76492 0.06053 0.1528 0.0
N787 N 0.7278 0.95733 0.22606 0.0
C788 C 0.71382 0.97271 0.2446 0.0
C789 C 0.71631 0.04303 0.22489 0.0
C790 C 0.73101 1.02752 0.20603 0.0
C791 C 0.70751 1.01537 0.24424 0.0
C792 C 0.73618 0.98372 0.20707 0.0
H793 H 0.78601 0.9985 0.13529 0.0
N794 N 0.75972 0.92784 0.19074 0.0
C795 C 0.78689 0.93791 0.15318 0.0
C796 C 0.75186 0.96806 0.18881 0.0
C797 C 0.77875 0.91369 0.17347 0.0
C798 C 0.7784 0.97891 0.15087 0.0
C799 C 0.76184 0.99524 0.16892 0.0
O800 O 0.83787 0.93537 0.22427 0.0
O801 O 0.75569 0.82812 0.2416 0.0
O802 O 0.71687 0.81177 0.27653 0.0
O803 O 0.73779 0.89318 0.26424 0.0
O804 O 0.79877 0.86034 0.21372 0.0
O805 O 0.80415 0.96924 0.24392 0.0
O806 O 0.59052 0.7194 0.24645 0.0
O807 O 0.67661 0.83715 0.23467 0.0
O808 O 0.70439 0.84309 0.19851 0.0
O809 O 0.69452 0.76706 0.212 0.0
O810 O 0.61877 0.79477 0.25595 0.0
O811 O 0.63663 0.70199 0.22494 0.0
C812 C 0.78793 0.82633 0.22867 0.0
C813 C 0.87856 1.02614 0.22357 0.0
C814 C 0.93593 0.11974 0.22342 0.0
C815 C 0.90507 0.07343 0.23504 0.0
C816 C 0.93981 0.1172 0.2005 0.0
C817 C 0.88399 1.02628 0.2007 0.0
C818 C 0.91403 0.07121 0.18936 0.0
C819 C 0.73005 0.8598 0.28016 0.0
C820 C 0.84576 0.97616 0.23481 0.0
C821 C 0.75685 0.03887 0.16785 0.0
C822 C 0.74201 0.05528 0.18643 0.0
C823 C 0.63855 0.83519 0.2441 0.0
C824 C 0.55757 0.63306 0.23635 0.0
C825 C 0.50464 0.61196 0.23528 0.0
C826 C 0.47222 0.56031 0.24037 0.0
C827 C 0.49331 0.53008 0.24642 0.0
C828 C 0.57777 0.60165 0.24174 0.0
C829 C 0.5457 0.55046 0.24679 0.0
C830 C 0.69022 0.79371 0.19602 0.0
C831 C 0.59102 0.6878 0.23205 0.0
H832 H 0.90145 0.07416 0.25266 0.0
H833 H 0.96373 0.15112 0.19102 0.0
H834 H 0.86544 0.99134 0.1914 0.0
H835 H 0.91779 0.07032 0.17175 0.0
H836 H 0.48874 0.63595 0.23111 0.0
H837 H 0.4694 0.49075 0.25103 0.0
H838 H 0.61823 0.61658 0.24222 0.0
H839 H 0.56153 0.52664 0.25125 0.0
Eu840 Eu 0.21585 0.91277 0.22904 0.0
C841 C 0.41185 0.04636 0.29118 0.0
C842 C 0.44141 0.13359 0.28028 0.0
C843 C 0.46822 0.11598 0.31497 0.0
C844 C 0.41318 0.08076 0.27605 0.0
C845 C 0.43929 0.06352 0.31089 0.0
C846 C 0.46858 0.15097 0.2999 0.0
C847 C 0.4122 0.976 0.31992 0.0
N848 N 0.38618 0.9962 0.28604 0.0
C849 C 0.38717 0.9611 0.29979 0.0
C850 C 0.43842 0.02753 0.32553 0.0
Eu851 Eu 0.34771 0.97307 0.25108 0.0
N852 N 0.38929 0.06274 0.25666 0.0
C853 C 0.39396 0.09598 0.24046 0.0
C854 C 0.4435 0.16748 0.26423 0.0
C855 C 0.41986 0.14853 0.24416 0.0
H856 H 0.36885 0.92148 0.29524 0.0
H857 H 0.42226 0.1744 0.23137 0.0
H858 H 0.49125 0.19138 0.30328 0.0
H859 H 0.41207 0.94785 0.33089 0.0
H860 H 0.37742 0.08254 0.22457 0.0
H861 H 0.09531 0.70998 0.24464 0.0
H862 H 0.4645 0.20828 0.2669 0.0
H863 H 0.23926 0.97806 0.18105 0.0
H864 H 0.15484 0.79976 0.25392 0.0
H865 H 0.21537 0.96029 0.14233 0.0
H866 H 0.49161 0.12995 0.32939 0.0
H867 H 0.07009 0.68526 0.2062 0.0
H868 H 0.07171 0.71233 0.16738 0.0
H869 H 0.45867 0.03918 0.34093 0.0
H870 H 0.10493 0.77986 0.1396 0.0
N871 N 0.16739 0.82482 0.22086 0.0
C872 C 0.14635 0.78884 0.23694 0.0
C873 C 0.09753 0.72444 0.21009 0.0
C874 C 0.11704 0.76186 0.19379 0.0
C875 C 0.11186 0.73815 0.2318 0.0
C876 C 0.15265 0.81242 0.1997 0.0
H877 H 0.15964 0.87176 0.12996 0.0
N878 N 0.20082 0.89981 0.19066 0.0
C879 C 0.20237 0.92917 0.1539 0.0
C880 C 0.17014 0.85089 0.18414 0.0
C881 C 0.21584 0.93902 0.17596 0.0
C882 C 0.17109 0.87917 0.14698 0.0
C883 C 0.15365 0.83944 0.1622 0.0
O884 O 0.16743 0.94746 0.22867 0.0
O885 O 0.27853 0.98249 0.24534 0.0
O886 O 0.29877 0.95597 0.28072 0.0
O887 O 0.21825 0.89642 0.26663 0.0
O888 O 0.24024 0.99354 0.21972 0.0
O889 O 0.1387 0.87401 0.24335 0.0
O890 O 0.39416 0.93658 0.24714 0.0
O891 O 0.2793 0.90247 0.23957 0.0
O892 O 0.27513 0.92088 0.20249 0.0
O893 O 0.33968 0.99431 0.21688 0.0
O894 O 0.32643 0.8911 0.25986 0.0
O895 O 0.41329 1.00499 0.22911 0.0
C896 C 0.27426 1.01633 0.23452 0.0
C897 C 0.07937 0.88987 0.22409 0.0
C898 C 0.98683 0.85665 0.2211 0.0
C899 C 1.03097 0.8719 0.23418 0.0
C900 C 0.99283 0.86065 0.19815 0.0
C901 C 0.08253 0.89238 0.20116 0.0
C902 C 0.03985 0.87787 0.18839 0.0
C903 C 0.25098 0.91972 0.2832 0.0
C904 C 0.12747 0.90806 0.23676 0.0
C905 C 0.11861 0.78918 0.15628 0.0
C906 C 0.09994 0.75064 0.17208 0.0
C907 C 0.2857 0.86825 0.24837 0.0
C908 C 0.48001 0.98673 0.23601 0.0
C909 C 0.49616 0.95031 0.23465 0.0
C910 C 0.54802 0.96542 0.23608 0.0
C911 C 0.58331 1.01717 0.23911 0.0
C912 C 0.51629 0.03831 0.23893 0.0
C913 C 0.56758 0.05328 0.24046 0.0
C914 C 0.32131 0.96184 0.20074 0.0
C915 C 0.42566 0.97043 0.23347 0.0
H916 H 1.0278 0.86967 0.25186 0.0
H917 H 0.9609 0.85107 0.18751 0.0
H918 H 0.11847 0.90676 0.19294 0.0
H919 H 0.04336 0.88065 0.17073 0.0
H920 H 0.46848 0.91035 0.23251 0.0
H921 H 0.62308 0.02967 0.24078 0.0
H922 H 0.5051 0.0671 0.24001 0.0
H923 H 0.59531 0.09308 0.24278 0.0
Eu924 Eu 0.20098 0.3559 0.23223 0.0
C925 C 0.09401 0.4425 0.29813 0.0
C926 C 1.00393 0.39108 0.29177 0.0
C927 C 1.03431 0.44331 0.32446 0.0
C928 C 0.0545 0.40846 0.28529 0.0
C929 C 0.08441 0.4604 0.31792 0.0
C930 C 0.9941 0.40858 0.31144 0.0
C931 C 0.17412 0.51766 0.32137 0.0
N932 N 0.14175 0.46161 0.29031 0.0
C933 C 0.18143 0.50029 0.30122 0.0
C934 C 0.12537 0.49729 0.32989 0.0
Eu935 Eu 0.15175 0.43671 0.25453 0.0
N936 N 0.06549 0.39614 0.26549 0.0
C937 C 1.02754 0.3684 0.25105 0.0
C938 C 0.96481 0.35901 0.27766 0.0
C939 C 0.97675 0.34794 0.25708 0.0
H940 H 0.21885 0.51896 0.29423 0.0
H941 H 0.94698 0.32524 0.24555 0.0
H942 H 0.95556 0.39629 0.31651 0.0
H943 H 0.20591 0.54793 0.32999 0.0
H944 H 1.03637 0.36361 0.23457 0.0
H945 H 0.39466 0.41456 0.25649 0.0
H946 H 0.9255 0.34457 0.28209 0.0
H947 H 0.14658 0.30925 0.18303 0.0
H948 H 0.30676 0.39134 0.26222 0.0
H949 H 0.1726 0.30548 0.14535 0.0
H950 H 1.02631 0.45767 0.33931 0.0
H951 H 0.42944 0.426 0.21893 0.0
H952 H 0.41346 0.41652 0.17873 0.0
H953 H 0.11959 0.51179 0.34521 0.0
H954 H 0.35327 0.38916 0.14825 0.0
N955 N 0.28944 0.38917 0.22827 0.0
C956 C 0.32035 0.3961 0.24568 0.0
C957 C 0.39016 0.4156 0.22133 0.0
C958 C 0.35786 0.40552 0.2035 0.0
C959 C 0.37087 0.40947 0.2425 0.0
C960 C 0.30666 0.39106 0.2075 0.0
H961 H 0.26331 0.34657 0.1357 0.0
N962 N 0.22209 0.35308 0.19503 0.0
C963 C 0.20099 0.32557 0.15772 0.0
C964 C 0.27215 0.37338 0.19037 0.0
C965 C 0.18644 0.32758 0.17922 0.0
C966 C 0.25225 0.34876 0.15237 0.0
C967 C 0.28853 0.37181 0.16885 0.0
O968 O 0.21082 0.28964 0.22506 0.0
O969 O 0.13191 0.35306 0.24773 0.0
O970 O 0.17052 0.40461 0.28381 0.0
O971 O 0.22708 0.38193 0.26792 0.0
O972 O 0.12151 0.30609 0.22089 0.0
O973 O 0.17992 0.29433 0.25591 0.0
O974 O 0.19116 0.51945 0.2492 0.0
O975 O 0.21685 0.43347 0.23908 0.0
O976 O 0.18609 0.4008 0.20456 0.0
O977 O 0.12213 0.40945 0.2209 0.0
O978 O 0.23609 0.49306 0.26006 0.0
O979 O 0.11643 0.47289 0.23604 0.0
C980 C 0.09833 0.31786 0.23545 0.0
C981 C 0.23154 0.25533 0.25619 0.0
C982 C 0.26831 0.19905 0.26121 0.0
C983 C 0.23617 0.21272 0.24963 0.0
C984 C 0.29679 0.22993 0.27882 0.0
C985 C 0.25921 0.28354 0.27449 0.0
C986 C 0.29188 0.27134 0.28546 0.0
C987 C 0.20637 0.39208 0.28513 0.0
C988 C 0.19736 0.26997 0.24453 0.0
C989 C 0.34008 0.39002 0.16467 0.0
C990 C 0.3745 0.40607 0.182 0.0
C991 C 0.254 0.47273 0.24695 0.0
C992 C 0.13946 0.55716 0.24751 0.0
C993 C 0.17285 0.61008 0.24451 0.0
C994 C 0.16062 0.64627 0.25294 0.0
C995 C 0.1144 0.62834 0.26421 0.0
C996 C 0.09377 0.54089 0.25885 0.0
C997 C 0.08139 0.57629 0.26705 0.0
C998 C 0.14851 0.41166 0.20356 0.0
C999 C 0.15316 0.51926 0.23951 0.0
H1000 H 0.2142 0.18989 0.23586 0.0
H1001 H 0.32335 0.22233 0.28747 0.0
H1002 H 0.25578 0.31531 0.28043 0.0
H1003 H 0.31358 0.2942 0.29926 0.0
H1004 H 0.20866 0.62289 0.23619 0.0
H1005 H 0.10364 0.65472 0.27093 0.0
H1006 H 0.06764 0.50076 0.26153 0.0
H1007 H 0.0461 0.56331 0.27581 0.0
Eu1008 Eu 0.92721 0.76437 0.76209 0.0
C1009 C 0.73372 0.62559 0.70647 0.0
C1010 C 0.68255 0.6654 0.70088 0.0
C1011 C 0.66319 0.58803 0.68104 0.0
C1012 C 0.72327 0.66411 0.71116 0.0
C1013 C 0.70412 0.58727 0.69125 0.0
C1014 C 0.65223 0.62679 0.68596 0.0
C1015 C 0.75432 0.54754 0.69926 0.0
N1016 N 0.77134 0.62425 0.71774 0.0
C1017 C 0.78176 0.58584 0.7146 0.0
C1018 C 0.71509 0.54806 0.68762 0.0
Eu1019 Eu 0.80142 0.67706 0.7487 0.0
N1020 N 0.75077 0.6982 0.72697 0.0
C1021 C 0.74041 0.73539 0.73301 0.0
C1022 C 0.672 0.70387 0.70684 0.0
C1023 C 0.70156 0.73948 0.72275 0.0
H1024 H 0.81034 0.58404 0.7244 0.0
H1025 H 0.69298 0.76865 0.72781 0.0
H1026 H 0.61949 0.62578 0.67853 0.0
H1027 H 0.76254 0.51695 0.69684 0.0
H1028 H 0.75979 0.75968 0.74672 0.0
H1029 H 0.04932 0.68439 0.78043 0.0
H1030 H 0.64045 0.70575 0.6997 0.0
H1031 H 0.89996 0.83858 0.79273 0.0
H1032 H 0.997 0.70682 0.75724 0.0
H1033 H 0.91203 0.87074 0.83082 0.0
H1034 H 0.63906 0.55822 0.66971 0.0
H1035 H 0.06265 0.70988 0.81932 0.0
H1036 H 0.04764 0.75467 0.85047 0.0
H1037 H 0.69291 0.51751 0.67623 0.0
H1038 H 1.00935 0.80404 0.86438 0.0
N1039 N 0.97363 0.73627 0.78342 0.0
C1040 C 0.99865 0.71357 0.7746 0.0
C1041 C 1.03739 0.71726 0.80948 0.0
C1042 C 1.01395 0.74307 0.81823 0.0
C1043 C 1.02979 0.70257 0.78755 0.0
C1044 C 0.98218 0.75261 0.80459 0.0
H1045 H 0.95867 0.84738 0.85722 0.0
N1046 N 0.93518 0.79451 0.79826 0.0
C1047 C 0.92598 0.8456 0.82586 0.0
C1048 C 0.96228 0.78235 0.81225 0.0
C1049 C 0.91865 0.82706 0.80443 0.0
C1050 C 0.95234 0.83231 0.84071 0.0
C1051 C 0.97173 0.80116 0.83388 0.0
O1052 O 0.97822 0.8463 0.75868 0.0
O1053 O 0.85227 0.76213 0.75752 0.0
O1054 O 0.83729 0.70358 0.71574 0.0
O1055 O 0.92152 0.73402 0.72599 0.0
O1056 O 0.91298 0.81706 0.74096 0.0
O1057 O 1.00719 0.79567 0.75179 0.0
O1058 O 0.75627 0.60163 0.7636 0.0
O1059 O 0.8803 0.68549 0.75049 0.0
O1060 O 0.87084 0.72182 0.79256 0.0
O1061 O 0.80766 0.72653 0.77649 0.0
O1062 O 0.82372 0.62265 0.7652 0.0
O1063 O 0.72851 0.6548 0.76415 0.0
C1064 C 0.86658 0.80176 0.74556 0.0
C1065 C 0.06617 0.87954 0.76561 0.0
C1066 C 0.15854 0.94042 0.76694 0.0
C1067 C 0.11493 0.90358 0.75534 0.0
C1068 C 0.15201 0.95305 0.78843 0.0
C1069 C 0.0623 0.89348 0.78717 0.0
C1070 C 0.10466 0.92965 0.79841 0.0
C1071 C 0.88504 0.71993 0.7107 0.0
C1072 C 1.01846 0.84315 0.75384 0.0
C1073 C 1.00155 0.78981 0.84773 0.0
C1074 C 1.02316 0.76146 0.83983 0.0
C1075 C 0.87124 0.64588 0.76094 0.0
C1076 C 0.66818 0.56732 0.75811 0.0
C1077 C 0.6547 0.51533 0.75896 0.0
C1078 C 0.60879 0.4773 0.74965 0.0
C1079 C 0.57784 0.49289 0.73884 0.0
C1080 C 0.63515 0.58083 0.74795 0.0
C1081 C 0.59077 0.54393 0.73816 0.0
C1082 C 0.82466 0.7169 0.79428 0.0
C1083 C 0.71729 0.60757 0.76702 0.0
H1084 H 0.11883 0.8938 0.73867 0.0
H1085 H 0.18404 0.98151 0.79764 0.0
H1086 H 1.02611 0.8775 0.79529 0.0
H1087 H 0.10064 0.94009 0.81495 0.0
H1088 H 0.68043 0.5049 0.76649 0.0
H1089 H 0.54257 0.46552 0.73125 0.0
H1090 H 0.64388 0.62013 0.74718 0.0
H1091 H 0.56607 0.55493 0.73005 0.0
Eu1092 Eu 0.38788 0.19763 0.76462 0.0
C1093 C 0.44245 0.07333 0.70287 0.0
C1094 C 0.4223 0.9965 0.72307 0.0
C1095 C 0.43138 0.99763 0.68367 0.0
C1096 C 0.43406 0.04811 0.72272 0.0
C1097 C 0.44199 0.04831 0.68317 0.0
C1098 C 0.42053 0.97148 0.7035 0.0
C1099 C 0.46445 0.12554 0.6635 0.0
N1100 N 0.4542 0.12296 0.70279 0.0
C1101 C 0.4654 0.14901 0.68329 0.0
C1102 C 0.45378 0.07531 0.66348 0.0
Eu1103 Eu 0.47389 0.16458 0.73768 0.0
N1104 N 0.43941 0.07416 0.74164 0.0
C1105 C 0.43275 0.04969 0.76131 0.0
C1106 C 0.41474 0.97182 0.74316 0.0
C1107 C 0.42016 0.99862 0.76233 0.0
H1108 H 0.47966 0.18933 0.6827 0.0
H1109 H 0.41484 0.98 0.77804 0.0
H1110 H 0.41224 0.93225 0.70359 0.0
H1111 H 0.47414 0.14699 0.64836 0.0
H1112 H 0.43584 0.06798 0.77668 0.0
H1113 H 0.44328 0.38456 0.73046 0.0
H1114 H 0.40562 0.93238 0.74405 0.0
H1115 H 0.36347 0.17013 0.81897 0.0
H1116 H 0.40444 0.29077 0.7305 0.0
H1117 H 0.39806 0.21236 0.85456 0.0
H1118 H 0.4318 0.97835 0.66878 0.0
H1119 H 0.48888 0.43409 0.76339 0.0
H1120 H 0.52336 0.43452 0.80099 0.0
H1121 H 0.4548 0.05774 0.64816 0.0
H1122 H 0.51403 0.3865 0.83494 0.0
N1123 N 0.42722 0.2875 0.76305 0.0
C1124 C 0.42409 0.31206 0.7449 0.0
C1125 C 0.47198 0.39305 0.76335 0.0
C1126 C 0.47464 0.36746 0.78188 0.0
C1127 C 0.44595 0.36517 0.74484 0.0
C1128 C 0.44931 0.3139 0.78155 0.0
H1129 H 0.46345 0.30361 0.85559 0.0
N1130 N 0.41129 0.23613 0.80009 0.0
C1131 C 0.41157 0.23376 0.83947 0.0
C1132 C 0.44285 0.28709 0.80058 0.0
C1133 C 0.39196 0.21009 0.81931 0.0
C1134 C 0.44876 0.28518 0.83998 0.0
C1135 C 0.46349 0.31296 0.82042 0.0
O1136 O 0.31548 0.17742 0.78086 0.0
O1137 O 0.3893 0.13319 0.74598 0.0
O1138 O 0.45668 0.21273 0.71499 0.0
O1139 O 0.37777 0.195 0.72711 0.0
O1140 O 0.35314 0.11752 0.77634 0.0
O1141 O 0.32762 0.20556 0.74826 0.0
O1142 O 0.53726 0.20315 0.71502 0.0
O1143 O 0.46366 0.22994 0.74879 0.0
O1144 O 0.42792 0.17332 0.79072 0.0
O1145 O 0.48419 0.15417 0.7728 0.0
O1146 O 0.52777 0.23023 0.75945 0.0
O1147 O 0.54267 0.15878 0.74138 0.0
C1148 C 0.36155 0.09728 0.7594 0.0
C1149 C 0.28079 0.23046 0.7713 0.0
C1150 C 0.22029 0.26275 0.76923 0.0
C1151 C 0.23531 0.22674 0.76296 0.0
C1152 C 0.25208 0.30253 0.78341 0.0
C1153 C 0.3108 0.27071 0.78555 0.0
C1154 C 0.29674 0.30644 0.79141 0.0
C1155 C 0.41262 0.20958 0.71151 0.0
C1156 C 0.29825 0.1937 0.76521 0.0
C1157 C 0.4957 0.36598 0.82011 0.0
C1158 C 0.50067 0.39338 0.80086 0.0
C1159 C 0.50505 0.25638 0.75881 0.0
C1160 C 0.61726 0.23554 0.73192 0.0
C1161 C 0.65783 0.22795 0.73768 0.0
C1162 C 0.70485 0.26969 0.74396 0.0
C1163 C 0.71024 0.31855 0.74506 0.0
C1164 C 0.62469 0.2853 0.73219 0.0
C1165 C 0.67041 0.32623 0.73914 0.0
C1166 C 0.4633 0.15947 0.79066 0.0
C1167 C 0.5671 0.192 0.72598 0.0
H1168 H 0.21147 0.1957 0.75208 0.0
H1169 H 0.24229 0.33096 0.78837 0.0
H1170 H 0.34531 0.27456 0.79227 0.0
H1171 H 0.32055 0.33731 0.80236 0.0
H1172 H 0.65308 0.19 0.73704 0.0
H1173 H 0.74608 0.35126 0.74965 0.0
H1174 H 0.59504 0.29265 0.72703 0.0
H1175 H 0.67527 0.36418 0.73954 0.0
Eu1176 Eu 0.93257 0.21527 0.75919 0.0
C1177 C 0.08058 0.41689 0.70742 0.0
C1178 C 0.16134 0.42067 0.71161 0.0
C1179 C 0.14634 0.45956 0.67987 0.0
C1180 C 0.11178 0.4049 0.71913 0.0
C1181 C 0.09838 0.44659 0.68823 0.0
C1182 C 0.17767 0.44621 0.69147 0.0
C1183 C 1.02258 0.45321 0.68836 0.0
N1184 N 1.03464 0.40388 0.71603 0.0
C1185 C 1.00631 0.42302 0.70722 0.0
C1186 C 0.06868 0.46474 0.67873 0.0
Eu1187 Eu 1.00966 0.35481 0.74873 0.0
N1188 N 0.09556 0.38268 0.739 0.0
C1189 C 0.12909 0.38016 0.75307 0.0
C1190 C 0.19395 0.41302 0.72515 0.0
C1191 C 0.17809 0.39373 0.74619 0.0
H1192 H 0.97144 0.41599 0.71485 0.0
H1193 H 0.20369 0.38973 0.75723 0.0
H1194 H 0.21535 0.45808 0.68531 0.0
H1195 H 0.99978 0.46796 0.6814 0.0
H1196 H 0.11837 0.36699 0.7696 0.0
H1197 H 0.84734 0.08322 0.69067 0.0
H1198 H 0.23218 0.42429 0.71996 0.0
H1199 H 0.87284 0.22998 0.80333 0.0
H1200 H 0.91617 0.14251 0.71519 0.0
H1201 H 0.78711 0.20657 0.81503 0.0
H1202 H 0.16027 0.48155 0.66492 0.0
H1203 H 0.75914 0.06291 0.69775 0.0
H1204 H 0.69734 0.07115 0.72232 0.0
H1205 H 0.08162 0.4888 0.66432 0.0
H1206 H 0.68098 0.10417 0.75636 0.0
N1207 N 0.86795 0.1585 0.73486 0.0
C1208 C 0.87778 0.13426 0.7182 0.0
C1209 C 0.78928 0.08925 0.7084 0.0
C1210 C 0.77878 0.11021 0.72674 0.0
C1211 C 0.83896 0.1006 0.70435 0.0
C1212 C 0.81943 0.14445 0.74006 0.0
H1213 H 0.71402 0.15392 0.79109 0.0
N1214 N 0.8502 0.19284 0.7723 0.0
C1215 C 0.79306 0.19399 0.79927 0.0
C1216 C 0.81025 0.16222 0.75936 0.0
C1217 C 0.84204 0.20753 0.79239 0.0
C1218 C 0.75192 0.16431 0.78572 0.0
C1219 C 0.76007 0.14737 0.76564 0.0
O1220 O 0.91805 0.16445 0.78743 0.0
O1221 O 1.01225 0.28204 0.75628 0.0
O1222 O 0.98734 0.31801 0.71523 0.0
O1223 O 0.92444 0.23329 0.72332 0.0
O1224 O 0.99685 0.21748 0.73943 0.0
O1225 O 0.9479 0.15113 0.75813 0.0
O1226 O 0.97614 0.39646 0.76515 0.0
O1227 O 0.93376 0.28917 0.75912 0.0
O1228 O 0.95599 0.26595 0.79121 0.0
O1229 O 1.03168 0.3278 0.7786 0.0
O1230 O 0.93342 0.34122 0.73702 0.0
O1231 O 0.05573 0.42575 0.76684 0.0
C1232 C 1.03272 0.26208 0.74475 0.0
C1233 C 0.88421 0.07653 0.77639 0.0
C1234 C 0.85041 0.98377 0.76918 0.0
C1235 C 0.8916 0.03539 0.76936 0.0
C1236 C 0.80239 0.97505 0.77569 0.0
C1237 C 0.83518 0.06484 0.78279 0.0
C1238 C 0.79498 1.01493 0.78233 0.0
C1239 C 0.95027 0.27209 0.70959 0.0
C1240 C 0.92601 0.13173 0.77667 0.0
C1241 C 0.71965 0.1155 0.75189 0.0
C1242 C 0.72898 0.09682 0.7325 0.0
C1243 C 0.90558 0.30009 0.7478 0.0
C1244 C 1.02809 0.48756 0.76609 0.0
C1245 C 0.98848 0.5 0.76594 0.0
C1246 C 0.99945 0.55082 0.76171 0.0
C1247 C 0.05029 0.58854 0.75845 0.0
C1248 C 0.07812 0.52687 0.7625 0.0
C1249 C 0.08895 0.57666 0.7588 0.0
C1250 C 0.99989 0.30854 0.79487 0.0
C1251 C 1.01904 0.43494 0.77079 0.0
H1252 H 0.92904 0.0434 0.76441 0.0
H1253 H 0.76992 0.9369 0.77546 0.0
H1254 H 0.8275 0.09442 0.78816 0.0
H1255 H 0.75753 1.00706 0.7872 0.0
H1256 H 0.94964 0.47047 0.76874 0.0
H1257 H 0.06031 0.62775 0.75551 0.0
H1258 H 0.10942 0.51941 0.76275 0.0
H1259 H 0.12777 0.60641 0.75621 0.0
Eu1260 Eu 0.41584 0.22191 0.56562 0.0
C1261 C 0.36912 1.00963 0.6093 0.0
C1262 C 0.39785 0.97388 0.58106 0.0
C1263 C 0.37482 0.93356 0.61679 0.0
C1264 C 0.38383 1.00986 0.58791 0.0
C1265 C 0.36357 0.97092 0.62388 0.0
C1266 C 0.39263 0.93547 0.5955 0.0
C1267 C 0.33902 1.01032 0.65197 0.0
N1268 N 0.36067 0.04749 0.61596 0.0
C1269 C 0.34781 0.04932 0.63732 0.0
C1270 C 0.34641 0.97059 0.64515 0.0
Eu1271 Eu 0.3478 0.09446 0.58794 0.0
N1272 N 0.38679 0.04661 0.57416 0.0
C1273 C 0.40921 0.05211 0.55401 0.0
C1274 C 0.41763 0.97799 0.56006 0.0
C1275 C 0.42436 1.018 0.54667 0.0
H1276 H 0.34154 0.07937 0.64301 0.0
H1277 H 0.44121 1.02268 0.5306 0.0
H1278 H 0.40256 0.90723 0.59039 0.0
H1279 H 0.32701 1.01126 0.66858 0.0
H1280 H 0.41656 0.08287 0.54321 0.0
H1281 H 0.31646 0.32225 0.59216 0.0
H1282 H 0.42911 0.95138 0.55426 0.0
H1283 H 0.46401 0.23543 0.51418 0.0
H1284 H 0.37644 0.29045 0.59574 0.0
H1285 H 0.43825 0.24082 0.47623 0.0
H1286 H 0.3708 0.90364 0.62777 0.0
H1287 H 0.27002 0.31018 0.55743 0.0
H1288 H 0.25898 0.284 0.51776 0.0
H1289 H 0.33993 0.94054 0.65657 0.0
H1290 H 0.29421 0.26318 0.48568 0.0
N1291 N 0.36391 0.25989 0.5635 0.0
C1292 C 0.35712 0.2854 0.58042 0.0
C1293 C 0.29671 0.2965 0.55887 0.0
C1294 C 0.3077 0.27482 0.54094 0.0
C1295 C 0.32305 0.30362 0.57844 0.0
C1296 C 0.34314 0.25814 0.54366 0.0
H1297 H 0.36174 0.24807 0.46981 0.0
N1298 N 0.40089 0.23641 0.52876 0.0
C1299 C 0.41613 0.24162 0.48997 0.0
C1300 C 0.36213 0.24561 0.52563 0.0
C1301 C 0.43071 0.2388 0.51142 0.0
C1302 C 0.37276 0.24538 0.48641 0.0
C1303 C 0.34623 0.24924 0.50439 0.0
O1304 O 0.46845 0.30149 0.55594 0.0
O1305 O 0.42797 0.1614 0.58174 0.0
O1306 O 0.3895 0.14888 0.61566 0.0
O1307 O 0.39782 0.22467 0.60233 0.0
O1308 O 0.45944 0.18814 0.55097 0.0
O1309 O 0.48886 0.26989 0.58231 0.0
O1310 O 0.29073 0.07998 0.61246 0.0
O1311 O 0.34434 0.16633 0.58167 0.0
O1312 O 0.38223 0.16062 0.5373 0.0
O1313 O 0.33634 0.07886 0.55243 0.0
O1314 O 0.28733 0.10014 0.56833 0.0
O1315 O 0.27682 1.02021 0.58958 0.0
C1316 C 0.46 0.16267 0.56779 0.0
C1317 C 0.52291 0.3603 0.58281 0.0
C1318 C 0.58835 0.45119 0.58823 0.0
C1319 C 0.56981 0.40396 0.57684 0.0
C1320 C 0.55775 0.45365 0.60499 0.0
C1321 C 0.49535 0.36438 0.60032 0.0
C1322 C 0.51234 0.4107 0.6111 0.0
C1323 C 0.39537 0.19467 0.61883 0.0
C1324 C 0.50217 0.31071 0.57083 0.0
C1325 C 0.30676 0.26006 0.50185 0.0
C1326 C 0.28718 0.27254 0.52013 0.0
C1327 C 0.30246 0.14749 0.5718 0.0
C1328 C 0.20479 1.02557 0.60249 0.0
C1329 C 0.16509 0.97874 0.59439 0.0
C1330 C 0.11532 0.97092 0.59258 0.0
C1331 C 0.10589 1.01014 0.59867 0.0
C1332 C 0.19305 0.06278 0.60953 0.0
C1333 C 0.14439 0.05539 0.60737 0.0
C1334 C 0.35275 0.10989 0.53557 0.0
C1335 C 0.25759 0.03518 0.60509 0.0
H1336 H 0.59186 0.40093 0.56358 0.0
H1337 H 0.56856 0.48915 0.61336 0.0
H1338 H 0.46037 0.33169 0.60562 0.0
H1339 H 0.48995 0.41342 0.62427 0.0
H1340 H 0.17244 0.94824 0.59013 0.0
H1341 H 0.06787 1.00455 0.59788 0.0
H1342 H 0.2213 0.09759 0.61716 0.0
H1343 H 0.13627 0.08436 0.61315 0.0
Eu1344 Eu 0.88478 0.23611 0.56412 0.0
C1345 C 0.05792 0.40651 0.58746 0.0
C1346 C 0.10692 0.45079 0.55543 0.0
C1347 C 0.09211 0.49803 0.58388 0.0
C1348 C 0.07758 0.40522 0.56729 0.0
C1349 C 0.06581 0.45313 0.59622 0.0
C1350 C 0.1128 0.49689 0.56353 0.0
C1351 C 1.024 0.408 0.6292 0.0
N1352 N 1.03218 0.36234 0.59883 0.0
C1353 C 1.0189 0.36341 0.62007 0.0
C1354 C 0.04703 0.45311 0.61713 0.0
Eu1355 Eu 1.01468 0.28552 0.58079 0.0
N1356 N 0.07084 0.35994 0.55995 0.0
C1357 C 0.09949 0.3595 0.5427 0.0
C1358 C 0.13084 0.44892 0.53617 0.0
C1359 C 0.12812 0.40323 0.5301 0.0
H1360 H 1.00518 0.33038 0.63029 0.0
H1361 H 0.14842 0.40164 0.51585 0.0
H1362 H 0.13433 0.53204 0.55444 0.0
H1363 H 1.01004 0.40721 0.64553 0.0
H1364 H 0.10054 0.3254 0.53847 0.0
H1365 H 0.76293 0.09437 0.62411 0.0
H1366 H 0.15344 0.4829 0.52651 0.0
H1367 H 0.88097 0.2147 0.50805 0.0
H1368 H 0.82176 0.17929 0.61035 0.0
H1369 H 0.86685 0.14526 0.48347 0.0
H1370 H 0.09764 0.53396 0.59014 0.0
H1371 H 0.73718 1.0192 0.60063 0.0
H1372 H 0.74567 0.98287 0.56501 0.0
H1373 H 0.05122 0.48778 0.62428 0.0
H1374 H 0.78099 0.99681 0.52788 0.0
N1375 N 0.83487 0.15368 0.57969 0.0
C1376 C 0.81402 0.14726 0.60014 0.0
C1377 C 0.76514 0.0565 0.5947 0.0
C1378 C 0.78581 0.06295 0.57371 0.0
C1379 C 0.77942 0.09884 0.60798 0.0
C1380 C 0.82026 0.11278 0.56639 0.0
H1381 H 0.82929 0.0575 0.49765 0.0
N1382 N 0.86287 0.16972 0.53737 0.0
C1383 C 0.85917 0.13795 0.5008 0.0
C1384 C 0.83654 0.121 0.54486 0.0
C1385 C 0.86903 0.17778 0.51516 0.0
C1386 C 0.83741 0.08846 0.50879 0.0
C1387 C 0.82231 0.07909 0.53067 0.0
O1388 O 0.82232 0.23423 0.54548 0.0
O1389 O 0.95377 0.30863 0.57578 0.0
O1390 O 0.96628 0.24963 0.61003 0.0
O1391 O 0.89537 0.25585 0.60153 0.0
O1392 O 0.91714 0.31145 0.54726 0.0
O1393 O 0.8232 0.24318 0.58013 0.0
O1394 O 0.04625 0.27063 0.61031 0.0
O1395 O 0.9384 0.21381 0.57793 0.0
O1396 O 0.93949 0.26367 0.53351 0.0
O1397 O 1.01369 0.26796 0.54565 0.0
O1398 O 0.99875 0.20984 0.56517 0.0
O1399 O 0.09083 0.29474 0.58099 0.0
C1400 C 0.95266 0.33834 0.56104 0.0
C1401 C 0.74193 0.19251 0.56332 0.0
C1402 C 0.65067 0.16011 0.57072 0.0
C1403 C 0.70224 0.20047 0.57105 0.0
C1404 C 0.6406 0.11172 0.56364 0.0
C1405 C 0.72904 0.14407 0.55532 0.0
C1406 C 0.67935 0.10393 0.55602 0.0
C1407 C 0.92494 0.24988 0.61597 0.0
C1408 C 0.79637 0.23418 0.56245 0.0
C1409 C 0.79153 0.0293 0.53845 0.0
C1410 C 0.77183 1.02135 0.55967 0.0
C1411 C 0.95078 0.18356 0.56924 0.0
C1412 C 0.08903 0.22627 0.59964 0.0
C1413 C 0.13382 0.22768 0.59245 0.0
C1414 C 0.13398 0.18196 0.58796 0.0
C1415 C 0.08894 0.13523 0.59035 0.0
C1416 C 0.04551 0.17869 0.60326 0.0
C1417 C 0.04531 0.13363 0.59836 0.0
C1418 C 0.98502 0.26844 0.52994 0.0
C1419 C 0.08482 0.27306 0.59992 0.0
H1420 H 0.71137 0.23794 0.57679 0.0
H1421 H 0.60213 0.08014 0.56282 0.0
H1422 H 0.75725 0.13732 0.54793 0.0
H1423 H 0.67057 0.06683 0.5499 0.0
H1424 H 0.16793 0.264 0.58982 0.0
H1425 H 0.08783 0.09976 0.58652 0.0
H1426 H 1.01087 0.17635 0.60903 0.0
H1427 H 1.01101 0.09734 0.60058 0.0
Eu1428 Eu 0.88469 0.69404 0.56182 0.0
C1429 C 0.73136 0.72949 0.62309 0.0
C1430 C 0.64845 0.66281 0.61152 0.0
C1431 C 0.65799 0.70399 0.64663 0.0
C1432 C 0.70091 0.69418 0.60759 0.0
C1433 C 0.71 0.7352 0.6427 0.0
C1434 C 0.62745 0.66718 0.6313 0.0
C1435 C 0.79151 0.80672 0.65186 0.0
N1436 N 0.78095 0.76106 0.61827 0.0
C1437 C 0.81058 0.80057 0.63196 0.0
C1438 C 0.74104 0.77372 0.65732 0.0
Eu1439 Eu 0.81016 0.75009 0.58375 0.0
N1440 N 0.72165 0.69325 0.58802 0.0
C1441 C 0.69104 0.66456 0.57121 0.0
C1442 C 0.61802 0.63002 0.59497 0.0
C1443 C 0.63933 0.6315 0.5746 0.0
H1444 H 0.84891 0.82818 0.62764 0.0
H1445 H 0.61585 0.60762 0.56138 0.0
H1446 H 0.58724 0.64376 0.63451 0.0
H1447 H 0.8155 0.83765 0.66275 0.0
H1448 H 0.70601 0.66567 0.55512 0.0
H1449 H 0.08038 0.80016 0.59068 0.0
H1450 H 0.57773 0.60507 0.59743 0.0
H1451 H 0.84923 0.65413 0.50984 0.0
H1452 H 0.98856 0.73879 0.59346 0.0
H1453 H 0.88152 0.68353 0.47225 0.0
H1454 H 0.64068 0.70885 0.66122 0.0
H1455 H 0.11652 0.84634 0.55591 0.0
H1456 H 0.10331 0.8585 0.51603 0.0
H1457 H 0.72604 0.77941 0.6725 0.0
H1458 H 0.04839 0.82647 0.48353 0.0
N1459 N 0.97333 0.74981 0.56058 0.0
C1460 C 1.0042 0.7579 0.57809 0.0
C1461 C 0.07644 0.81885 0.55695 0.0
C1462 C 0.04506 0.80737 0.53863 0.0
C1463 C 0.0562 0.79271 0.57658 0.0
C1464 C 0.99335 0.77084 0.54086 0.0
H1465 H 0.96632 0.75931 0.46685 0.0
N1466 N 0.91517 0.71276 0.52524 0.0
C1467 C 0.90478 0.70321 0.48627 0.0
C1468 C 0.96314 0.75183 0.52255 0.0
C1469 C 0.88681 0.68635 0.5075 0.0
C1470 C 0.95263 0.74609 0.48329 0.0
C1471 C 0.98296 0.77025 0.50155 0.0
O1472 O 0.87808 0.62226 0.54977 0.0
O1473 O 0.8098 0.67578 0.57652 0.0
O1474 O 0.82805 0.72001 0.61385 0.0
O1475 O 0.89131 0.7033 0.60032 0.0
O1476 O 0.80781 0.63121 0.55041 0.0
O1477 O 0.91412 0.65254 0.58066 0.0
O1478 O 0.84814 0.83027 0.5732 0.0
O1479 O 0.88647 0.76485 0.57232 0.0
O1480 O 0.86896 0.74207 0.53593 0.0
O1481 O 0.79177 0.72353 0.54916 0.0
O1482 O 0.88594 0.80789 0.59851 0.0
O1483 O 0.7678 0.78417 0.56967 0.0
C1484 C 0.78046 0.63692 0.56503 0.0
C1485 C 0.94277 0.60371 0.56074 0.0
C1486 C 0.97551 0.54317 0.55949 0.0
C1487 C 0.93597 0.55409 0.56438 0.0
C1488 C 1.02168 0.58319 0.55151 0.0
C1489 C 0.98898 0.64154 0.55208 0.0
C1490 C 1.02812 0.63151 0.54774 0.0
C1491 C 0.86508 0.70955 0.61673 0.0
C1492 C 0.9026 0.61685 0.5661 0.0
C1493 C 1.03278 0.81096 0.49949 0.0
C1494 C 0.06401 0.82927 0.51801 0.0
C1495 C 0.91468 0.79901 0.5859 0.0
C1496 C 0.80101 0.87187 0.57845 0.0
C1497 C 0.83812 0.92369 0.57495 0.0
C1498 C 0.83329 0.96329 0.58497 0.0
C1499 C 0.78986 0.94942 0.59793 0.0
C1500 C 0.75907 0.86009 0.59186 0.0
C1501 C 0.75353 0.89868 0.60138 0.0
C1502 C 0.82564 0.74258 0.53365 0.0
C1503 C 0.80661 0.83011 0.5687 0.0
H1504 H 0.89993 0.52416 0.57049 0.0
H1505 H 0.05314 0.57703 0.54798 0.0
H1506 H 0.99505 0.67913 0.54866 0.0
H1507 H 0.06375 0.66144 0.54129 0.0
H1508 H 0.87086 0.9329 0.56482 0.0
H1509 H 0.7831 0.97777 0.60537 0.0
H1510 H 0.73038 0.82096 0.59507 0.0
H1511 H 0.72078 0.88924 0.61151 0.0
C1512 C 0.56388 0.95489 0.06871 0.0
C1513 C 0.5367 0.95146 0.08783 0.0
C1514 C 0.59046 0.92842 0.06648 0.0
C1515 C 0.59226 0.89804 0.08354 0.0
H1516 H 0.56694 0.98038 0.05578 0.0
H1517 H 0.6114 0.93339 0.05145 0.0
S1518 S 0.52677 0.87589 0.13719 0.0
N1519 N 0.51107 0.91357 0.12391 0.0
N1520 N 0.56334 0.86557 0.12035 0.0
C1521 C 0.56385 0.89289 0.10263 0.0
C1522 C 0.53564 0.9192 0.10463 0.0
C1523 C 0.21863 0.69861 0.05515 0.0
C1524 C 0.2635 0.73244 0.06604 0.0
C1525 C 0.18413 0.65175 0.06423 0.0
C1526 C 0.19175 0.63603 0.08474 0.0
H1527 H 0.21012 0.70817 0.03921 0.0
H1528 H 0.15062 0.62758 0.05501 0.0
S1529 S 0.30127 0.71166 0.12117 0.0
N1530 N 0.31306 0.74821 0.09933 0.0
N1531 N 0.24676 0.65918 0.11648 0.0
C1532 C 0.23566 0.66988 0.09635 0.0
C1533 C 0.27151 0.7184 0.08706 0.0
C1534 C 0.38756 0.55518 0.0818 0.0
C1535 C 0.36493 0.51089 0.06876 0.0
C1536 C 0.4407 0.58436 0.08427 0.0
C1537 C 0.4737 0.57019 0.07423 0.0
H1538 H 0.36406 0.56739 0.09021 0.0
H1539 H 0.45623 0.61866 0.09412 0.0
S1540 S 0.4338 0.4609 0.03607 0.0
N1541 N 0.38023 0.45707 0.04404 0.0
N1542 N 0.4787 0.51063 0.04905 0.0
C1543 C 0.45139 0.52639 0.06088 0.0
C1544 C 0.3975 0.49711 0.05812 0.0
C1545 C 0.92407 0.52299 0.8877 0.0
C1546 C 0.95253 0.51954 0.90509 0.0
C1547 C 0.89883 0.55129 0.88992 0.0
C1548 C 0.90045 0.57604 0.90977 0.0
H1549 H 0.92392 0.50646 0.87194 0.0
H1550 H 0.8807 0.55632 0.87565 0.0
S1551 S 0.95466 0.56352 0.96199 0.0
N1552 N 0.97076 0.53352 0.94389 0.0
N1553 N 0.92185 0.5841 0.94831 0.0
C1554 C 0.92319 0.56703 0.92786 0.0
C1555 C 0.94956 0.53942 0.92548 0.0
C1556 C 0.55371 0.38945 0.88761 0.0
C1557 C 0.53906 0.35949 0.90683 0.0
C1558 C 0.58123 0.44347 0.8886 0.0
C1559 C 0.59476 0.46938 0.90885 0.0
H1560 H 0.54256 0.37114 0.87178 0.0
H1561 H 0.59147 0.46502 0.87347 0.0
S1562 S 0.56792 0.40857 0.96371 0.0
N1563 N 0.54203 0.36012 0.9465 0.0
N1564 N 0.59375 0.46035 0.94835 0.0
C1565 C 0.58205 0.43958 0.928 0.0
C1566 C 0.55396 0.38511 0.927 0.0
C1567 C 0.67077 0.13524 0.9351 0.0
C1568 C 0.65041 0.15856 0.92178 0.0
C1569 C 0.72214 0.16097 0.94109 0.0
C1570 C 0.75502 0.21211 0.93502 0.0
H1571 H 0.64726 0.09763 0.94162 0.0
H1572 H 0.7358 0.14072 0.95104 0.0
S1573 S 0.71826 0.29225 0.90222 0.0
N1574 N 0.6663 0.23604 0.90335 0.0
N1575 N 0.76135 0.28603 0.91609 0.0
C1576 C 0.73457 0.23623 0.92212 0.0
C1577 C 0.6827 0.2093 0.9154 0.0
C1578 C 0.26822 0.25106 0.40376 0.0
C1579 C 0.27158 0.22314 0.42155 0.0
C1580 C 0.23729 0.27335 0.40467 0.0
C1581 C 0.20997 0.27035 0.42372 0.0
H1582 H 0.29022 0.25634 0.38904 0.0
H1583 H 0.23575 0.29416 0.39054 0.0
S1584 S 0.19409 0.19059 0.47234 0.0
N1585 N 0.23655 0.18576 0.45715 0.0
N1586 N 0.17962 0.22889 0.45884 0.0
C1587 C 0.20927 0.23899 0.4408 0.0
C1588 C 0.24003 0.21538 0.43979 0.0
C1589 C 0.87669 0.0348 0.38543 0.0
C1590 C 0.89038 0.06411 0.40477 0.0
C1591 C 0.85118 0.98132 0.38602 0.0
C1592 C 0.83694 0.95451 0.40596 0.0
H1593 H 0.88512 0.05344 0.3696 0.0
H1594 H 0.84114 0.96073 0.37066 0.0
S1595 S 0.86825 1.01236 0.46134 0.0
N1596 N 0.89099 0.06182 0.44458 0.0
N1597 N 0.8432 0.96114 0.4456 0.0
C1598 C 0.85264 0.98303 0.42547 0.0
C1599 C 0.87915 0.0378 0.42489 0.0
C1600 C 0.1329 0.89319 0.40173 0.0
C1601 C 0.15082 0.91323 0.42263 0.0
C1602 C 0.08296 0.87678 0.3956 0.0
C1603 C 0.04913 0.88147 0.40986 0.0
H1604 H 0.15798 0.89102 0.38983 0.0
H1605 H 0.07141 0.86253 0.3791 0.0
S1606 S 0.07742 0.93186 0.46655 0.0
N1607 N 0.13084 0.93595 0.4579 0.0
N1608 N 1.03675 0.90665 0.44614 0.0
C1609 C 0.06592 0.89999 0.43113 0.0
C1610 C 0.11697 0.91608 0.43747 0.0
C1611 C 0.59598 0.92488 0.21971 0.0
C1612 C 0.56566 0.92747 0.23657 0.0
C1613 C 0.61793 0.89341 0.22155 0.0
C1614 C 0.6132 0.86631 0.24097 0.0
H1615 H 0.603 0.94759 0.20512 0.0
H1616 H 0.63985 0.89145 0.20798 0.0
S1617 S 0.52707 0.85079 0.28735 0.0
N1618 N 0.52423 0.89303 0.27125 0.0
N1619 N 0.5665 0.83581 0.27526 0.0
C1620 C 0.57921 0.86538 0.25703 0.0
C1621 C 0.55578 0.896 0.25482 0.0
C1622 C 0.23263 0.78703 0.26846 0.0
C1623 C 0.2526 0.81214 0.24849 0.0
C1624 C 0.20414 0.7337 0.2697 0.0
C1625 C 0.19567 0.70275 0.25113 0.0
H1626 H 0.23799 0.80879 0.28321 0.0
H1627 H 0.18846 0.71651 0.28544 0.0
S1628 S 0.24831 0.75007 0.19567 0.0
N1629 N 0.26743 0.80251 0.21023 0.0
N1630 N 0.21474 0.70192 0.21246 0.0
C1631 C 0.21837 0.72744 0.23126 0.0
C1632 C 0.24669 0.78212 0.22997 0.0
C1633 C 0.39172 0.52427 0.26154 0.0
C1634 C 0.41654 0.53863 0.24122 0.0
C1635 C 0.33902 0.50231 0.26302 0.0
C1636 C 0.30885 0.49214 0.24425 0.0
H1637 H 0.41329 0.5302 0.27642 0.0
H1638 H 0.32166 0.4921 0.27898 0.0
S1639 S 0.35563 0.52491 0.18721 0.0
N1640 N 0.40748 0.5436 0.20192 0.0
N1641 N 0.30783 0.50076 0.20475 0.0
C1642 C 0.33316 0.507 0.22382 0.0
C1643 C 0.38717 0.53048 0.2223 0.0
C1644 C 0.8991 0.58711 0.77782 0.0
C1645 C 0.90088 0.61814 0.76014 0.0
C1646 C 0.92817 0.5622 0.77785 0.0
C1647 C 0.95991 0.56689 0.76007 0.0
H1648 H 0.87641 0.58351 0.79211 0.0
H1649 H 0.92745 0.54104 0.79226 0.0
S1650 S 0.97375 0.63822 0.70872 0.0
N1651 N 0.93388 0.64768 0.72363 0.0
N1652 N 0.98743 0.60114 0.72354 0.0
C1653 C 0.95928 0.59499 0.74179 0.0
C1654 C 0.92992 0.62021 0.74179 0.0
C1655 C 0.56338 0.38872 0.73391 0.0
C1656 C 0.59108 0.4213 0.75135 0.0
C1657 C 0.53607 0.33568 0.73645 0.0
C1658 C 0.53626 0.31254 0.75635 0.0
H1659 H 0.56085 0.40432 0.71832 0.0
H1660 H 0.51391 0.31269 0.72277 0.0
S1661 S 0.61179 0.3782 0.80546 0.0
N1662 N 0.62242 0.42494 0.78844 0.0
N1663 N 0.5736 0.3248 0.79242 0.0
C1664 C 0.56835 0.34371 0.77305 0.0
C1665 C 0.59523 0.39814 0.77075 0.0
C1666 C 0.78127 0.28651 0.76576 0.0
C1667 C 0.75046 0.26468 0.74722 0.0
C1668 C 0.83049 0.29366 0.7667 0.0
C1669 C 0.85037 0.27883 0.74923 0.0
H1670 H 0.76824 0.30075 0.77909 0.0
H1671 H 0.85416 0.31358 0.78062 0.0
S1672 S 0.78464 0.21866 0.69733 0.0
N1673 N 0.74273 0.22662 0.7114 0.0
N1674 N 0.83522 0.24071 0.71308 0.0
C1675 C 0.81932 0.25544 0.73098 0.0
C1676 C 0.76911 0.24762 0.73011 0.0
C1677 C 0.18485 0.15865 0.56287 0.0
C1678 C 0.18127 0.18162 0.58234 0.0
C1679 C 0.22572 0.15018 0.55916 0.0
C1680 C 0.26426 0.16404 0.57482 0.0
H1681 H 0.15503 0.14575 0.55075 0.0
H1682 H 0.22643 0.13131 0.54419 0.0
S1683 S 0.27016 0.22255 0.62904 0.0
N1684 N 0.21883 0.21731 0.6175 0.0
N1685 N 0.29419 0.19955 0.61107 0.0
C1686 C 0.26082 0.18702 0.59433 0.0
C1687 C 0.2198 0.19645 0.59791 0.0
C1688 C 0.89388 0.03928 0.56129 0.0
C1689 C 0.87158 1.01905 0.58187 0.0
C1690 C 0.92144 0.09257 0.55753 0.0
C1691 C 0.92579 0.1275 0.57387 0.0
H1692 H 0.88775 1.01397 0.54766 0.0
H1693 H 0.93659 0.10635 0.54132 0.0
S1694 S 0.88614 0.09485 0.63185 0.0
N1695 N 0.8675 0.03945 0.62003 0.0
N1696 N 0.91245 0.13773 0.61223 0.0
C1697 C 0.90724 0.10776 0.59482 0.0
C1698 C 0.88193 0.05415 0.59897 0.0
C1699 C 0.04131 0.91136 0.56911 0.0
C1700 C 0.07065 0.92012 0.58816 0.0
C1701 C 0.99194 0.86898 0.56748 0.0
C1702 C 0.97007 0.8347 0.58506 0.0
H1703 H 0.05558 0.93888 0.55589 0.0
H1704 H 0.96965 0.86487 0.55302 0.0
S1705 S 1.03206 0.83981 0.63798 0.0
N1706 N 0.07516 0.88976 0.62431 0.0
N1707 N 0.98253 0.81171 0.62161 0.0
C1708 C 0.99967 0.84272 0.60387 0.0
C1709 C 0.05004 0.88475 0.60527 0.0
C1710 C 0.57936 0.10783 0.00658 0.0
C1711 C 0.55993 0.06529 0.0205 0.0
C1712 C 0.57478 0.10187 0.98371 0.0
C1713 C 0.54917 0.05323 0.97406 0.0
H1714 H 0.59502 0.14575 0.01342 0.0
H1715 H 0.58928 0.13554 0.97358 0.0
S1716 S 0.49733 0.92989 0.00279 0.0
N1717 N 0.51899 0.97285 0.02254 0.0
N1718 N 0.50982 0.96227 0.97968 0.0
C1719 C 0.53348 1.0107 0.98753 0.0
C1720 C 0.53888 1.01663 0.01077 0.0
C1721 C 1.02223 0.51919 0.98604 0.0
C1722 C 0.06676 0.54626 0.97336 0.0
C1723 C 1.02278 0.52288 0.00889 0.0
C1724 C 0.06845 0.55124 0.02009 0.0
H1725 H 0.98684 0.49218 0.97841 0.0
H1726 H 0.98809 0.4992 0.01788 0.0
S1727 S 0.19621 0.6267 0.99489 0.0
N1728 N 0.15746 0.60348 0.9738 0.0
N1729 N 0.15987 0.60576 0.01688 0.0
C1730 C 0.11329 0.57901 0.00768 0.0
C1731 C 0.11215 0.5776 0.98429 0.0
C1732 C 0.61601 0.55644 0.98116 0.0
C1733 C 0.58568 0.57111 0.96923 0.0
C1734 C 0.61566 0.55513 0.00416 0.0
C1735 C 0.58405 0.56745 0.01626 0.0
H1736 H 0.64242 0.54854 0.97266 0.0
H1737 H 0.64284 0.54791 0.01251 0.0
S1738 S 0.49055 0.59946 0.99306 0.0
N1739 N 0.51869 0.59217 0.97129 0.0
N1740 N 0.51669 0.58845 0.01453 0.0
C1741 C 0.54999 0.57748 0.00454 0.0
C1742 C 0.55084 0.57931 0.98102 0.0
C1743 C 0.20783 0.33824 0.34038 0.0
C1744 C 0.22673 0.38165 0.35386 0.0
C1745 C 0.20593 0.34211 0.31752 0.0
C1746 C 0.22377 0.38971 0.30745 0.0
H1747 H 0.19104 0.3008 0.34765 0.0
H1748 H 0.18666 0.30748 0.30792 0.0
S1749 S 0.28806 0.51548 0.33518 0.0
N1750 N 0.27074 0.4738 0.35536 0.0
N1751 N 0.26937 0.48156 0.31243 0.0
C1752 C 0.24829 0.43363 0.32059 0.0
C1753 C 0.2496 0.42953 0.34384 0.0
C1754 C 0.77451 0.87674 0.33845 0.0
C1755 C 0.73086 0.86716 0.35036 0.0
C1756 C 0.77602 0.87943 0.3155 0.0
C1757 C 0.73477 0.87499 0.30353 0.0
H1758 H 0.80695 0.87946 0.34688 0.0
H1759 H 0.80849 0.88188 0.30702 0.0
S1760 S 0.61633 0.86159 0.32709 0.0
N1761 N 0.64838 0.86058 0.34868 0.0
N1762 N 0.65235 0.86919 0.30551 0.0
C1763 C 0.6934 0.87171 0.31536 0.0
C1764 C 0.69128 0.86734 0.33881 0.0
C1765 C 0.26328 0.88296 0.31763 0.0
C1766 C 0.23672 0.90297 0.30625 0.0
C1767 C 0.26481 0.88246 0.34067 0.0
C1768 C 0.2405 0.9028 0.35326 0.0
H1769 H 0.28616 0.87089 0.30868 0.0
H1770 H 0.2887 0.87007 0.34856 0.0
S1771 S 0.16155 0.95499 0.3316 0.0
N1772 N 0.18195 0.93939 0.30943 0.0
N1773 N 0.18525 0.93943 0.3526 0.0
C1774 C 0.21111 0.91989 0.34212 0.0
C1775 C 0.20903 0.91966 0.31866 0.0
C1776 C 0.90138 0.76217 0.67447 0.0
C1777 C 0.89541 0.7204 0.6868 0.0
C1778 C 0.89425 0.75876 0.65167 0.0
C1779 C 0.88218 0.71395 0.63992 0.0
H1780 H 0.90787 0.79665 0.68271 0.0
H1781 H 0.89663 0.79126 0.64322 0.0
S1782 S 0.86146 0.59316 0.66416 0.0
N1783 N 0.87496 0.63183 0.68533 0.0
N1784 N 0.86493 0.62698 0.64234 0.0
C1785 C 0.87816 0.67254 0.6518 0.0
C1786 C 0.8839 0.6754 0.67522 0.0
C1787 C 0.43816 0.24745 0.65192 0.0
C1788 C 0.39405 0.20935 0.64191 0.0
C1789 C 0.44192 0.25141 0.67489 0.0
C1790 C 0.40182 0.21716 0.68857 0.0
H1791 H 0.47126 0.27149 0.64207 0.0
H1792 H 0.47803 0.27856 0.682 0.0
S1793 S 0.27483 0.11767 0.67021 0.0
N1794 N 0.30676 0.1425 0.64737 0.0
N1795 N 0.31428 0.14941 0.69029 0.0
C1796 C 0.35583 0.18283 0.67869 0.0
C1797 C 0.35199 0.17882 0.65539 0.0
C1798 C 0.93534 0.22044 0.65247 0.0
C1799 C 0.91744 0.24779 0.64015 0.0
C1800 C 0.94318 0.22679 0.67502 0.0
C1801 C 0.9363 0.26304 0.68624 0.0
H1802 H 0.94768 0.19678 0.64449 0.0
H1803 H 0.95817 0.20564 0.68344 0.0
S1804 S 0.89032 0.34549 0.66262 0.0
N1805 N 0.89114 0.31148 0.64158 0.0
N1806 N 0.90996 0.32666 0.684 0.0
C1807 C 0.91794 0.29062 0.67455 0.0
C1808 C 0.90739 0.28216 0.65155 0.0
C1809 C 0.39735 1.02487 0.17899 0.0
C1810 C 0.35555 0.97463 0.18114 0.0
C1811 C 0.4332 0.03901 0.16198 0.0
C1812 C 0.42925 1.00364 0.14621 0.0
H1813 H 0.40227 0.05434 0.19042 0.0
H1814 H 0.46237 0.07854 0.16051 0.0
S1815 S 0.32896 0.86674 0.14441 0.0
N1816 N 0.31391 0.88924 0.16607 0.0
N1817 N 0.38082 0.91525 0.13412 0.0
C1818 C 0.38835 0.95295 0.14836 0.0
C1819 C 0.35165 0.93864 0.16568 0.0
C1820 C 0.15721 0.49016 0.15298 0.0
C1821 C 0.10619 0.47699 0.14946 0.0
C1822 C 0.17109 0.46698 0.16963 0.0
C1823 C 0.13427 0.42915 0.18324 0.0
H1824 H 0.18654 0.51758 0.14227 0.0
H1825 H 0.2108 0.4794 0.1721 0.0
S1826 S 0.99515 0.3782 0.17958 0.0
N1827 N 1.01901 0.4221 0.16025 0.0
N1828 N 0.04412 0.37837 0.19124 0.0
C1829 C 0.0831 0.41537 0.17958 0.0
C1830 C 0.0693 0.43924 0.16282 0.0
C1831 C 0.70845 0.76678 0.15989 0.0
C1832 C 0.67255 0.76551 0.17474 0.0
C1833 C 0.69477 0.72982 0.14325 0.0
C1834 C 0.6446 0.68867 0.1408 0.0
H1835 H 0.74803 0.79517 0.16174 0.0
H1836 H 0.7245 0.73311 0.13244 0.0
S1837 S 0.53558 0.66806 0.17526 0.0
N1838 N 0.58388 0.72017 0.18551 0.0
N1839 N 0.55865 0.6503 0.15468 0.0
C1840 C 0.60814 0.68714 0.15542 0.0
C1841 C 0.622 0.72546 0.17221 0.0
C1842 C 0.98438 0.39097 0.83823 0.0
C1843 C 1.03461 0.42382 0.84552 0.0
C1844 C 0.97252 0.35177 0.82283 0.0
C1845 C 1.01037 0.34338 0.814 0.0
H1846 H 0.95346 0.3946 0.84509 0.0
H1847 H 0.93361 0.32859 0.81753 0.0
S1848 S 0.14755 0.41726 0.8275 0.0
N1849 N 0.12204 0.44413 0.84249 0.0
N1850 N 0.10039 0.37141 0.81361 0.0
C1851 C 0.06078 0.37636 0.82082 0.0
C1852 C 0.0728 0.41638 0.83641 0.0
C1853 C 0.73959 0.6247 0.84004 0.0
C1854 C 0.69946 0.63572 0.8417 0.0
C1855 C 0.78154 0.65186 0.82558 0.0
C1856 C 0.7859 0.69227 0.8125 0.0
H1857 H 0.73942 0.59587 0.85059 0.0
H1858 H 0.81034 0.64088 0.82457 0.0
S1859 S 0.69278 0.73845 0.8117 0.0
N1860 N 0.6685 0.69101 0.82941 0.0
N1861 N 0.7457 0.74198 0.8029 0.0
C1862 C 0.74594 0.70352 0.81427 0.0
C1863 C 0.70342 0.67551 0.82861 0.0
C1864 C 0.44188 0.11613 0.8272 0.0
C1865 C 0.47829 0.1437 0.81118 0.0
C1866 C 0.45273 0.09288 0.84462 0.0
C1867 C 0.50087 0.09682 0.84722 0.0
H1868 H 0.40392 0.11041 0.82577 0.0
H1869 H 0.42236 0.07105 0.85607 0.0
S1870 S 0.61035 0.16637 0.80991 0.0
N1871 N 0.56517 0.17443 0.79902 0.0
N1872 N 0.58549 0.13159 0.83214 0.0
C1873 C 0.53797 0.12496 0.83147 0.0
C1874 C 0.52676 0.14828 0.81347 0.0
C1875 C 1.01686 0.32502 0.49677 0.0
C1876 C 1.0118 0.28268 0.50837 0.0
C1877 C 0.05535 0.34978 0.4809 0.0
C1878 C 0.09137 0.33432 0.47638 0.0
H1879 H 0.99278 0.34083 0.50077 0.0
H1880 H 0.05732 0.38189 0.47225 0.0
S1881 S 0.09212 0.22289 0.50088 0.0
N1882 N 0.04391 0.22388 0.51287 0.0
N1883 N 0.11673 0.27161 0.48376 0.0
C1884 C 0.08578 0.29124 0.48738 0.0
C1885 C 0.04582 0.26509 0.50303 0.0
C1886 C 0.7486 0.77848 0.49518 0.0
C1887 C 0.78384 0.81145 0.47973 0.0
C1888 C 0.76295 0.75693 0.51223 0.0
C1889 C 0.81328 0.76643 0.51463 0.0
H1890 H 0.70889 0.76682 0.49339 0.0
H1891 H 0.73348 0.73124 0.52333 0.0
S1892 S 0.92102 0.85228 0.47892 0.0
N1893 N 0.87204 0.8541 0.46829 0.0
N1894 N 0.89896 0.81388 0.50032 0.0
C1895 C 0.84928 0.80048 0.49959 0.0
C1896 C 0.83458 0.82271 0.48221 0.0
C1897 C 0.28413 1.00331 0.49414 0.0
C1898 C 0.32269 1.01064 0.47941 0.0
C1899 C 0.2933 0.03835 0.51121 0.0
C1900 C 0.34114 0.08262 0.51416 0.0
H1901 H 0.24661 0.97043 0.49248 0.0
H1902 H 0.26289 0.02992 0.52268 0.0
S1903 S 0.45569 0.11868 0.48076 0.0
N1904 N 0.41162 0.06526 0.46956 0.0
N1905 N 0.42759 0.13073 0.50116 0.0
C1906 C 0.37969 0.09076 0.49939 0.0
C1907 C 0.37083 0.05482 0.48226 0.0
C1908 C 0.47586 0.22469 0.10968 0.0
C1909 C 0.47835 0.25838 0.09301 0.0
C1910 C 0.48123 0.18183 0.10516 0.0
C1911 C 0.48843 0.16964 0.08368 0.0
H1912 H 0.47168 0.23253 0.12663 0.0
H1913 H 0.48235 0.15954 0.11879 0.0
S1914 S 0.49563 0.24299 0.03383 0.0
N1915 N 0.48648 0.27436 0.05382 0.0
N1916 N 0.49724 0.19456 0.0455 0.0
C1917 C 0.48981 0.20206 0.06681 0.0
C1918 C 0.48455 0.24596 0.07138 0.0
C1919 C 0.86253 0.34221 0.08472 0.0
C1920 C 0.85549 0.30239 0.0989 0.0
C1921 C 0.9111 0.38532 0.08125 0.0
C1922 C 0.95474 0.39068 0.09186 0.0
H1923 H 0.8299 0.34228 0.07772 0.0
H1924 H 0.91372 0.41693 0.07187 0.0
S1925 S 0.95867 0.29421 0.12785 0.0
N1926 N 0.89864 0.26789 0.12055 0.0
N1927 N 0.98772 0.35053 0.11584 0.0
C1928 C 0.94869 0.34957 0.1047 0.0
C1929 C 0.89984 0.30506 0.10763 0.0
C1930 C 0.76443 0.60715 0.06409 0.0
C1931 C 0.73908 0.6207 0.07986 0.0
C1932 C 0.8112 0.60949 0.06857 0.0
C1933 C 0.83487 0.62529 0.08913 0.0
H1934 H 0.74679 0.59252 0.04834 0.0
H1935 H 0.82883 0.59864 0.05584 0.0
S1936 S 0.78359 0.66173 0.13682 0.0
N1937 N 0.74103 0.64807 0.11744 0.0
N1938 N 0.82852 0.65365 0.12564 0.0
C1939 C 0.81024 0.63937 0.10499 0.0
C1940 C 0.76266 0.6368 0.10046 0.0
C1941 C 0.26107 0.49145 0.9168 0.0
C1942 C 0.28235 0.50791 0.89581 0.0
C1943 C 0.21393 0.48737 0.92243 0.0
C1944 C 0.18505 0.49699 0.90703 0.0
H1945 H 0.28095 0.48189 0.9289 0.0
H1946 H 0.2006 0.47781 0.93912 0.0
S1947 S 0.22947 0.55157 0.85154 0.0
N1948 N 0.27452 0.54153 0.86088 0.0
N1949 N 0.18628 0.53154 0.87107 0.0
C1950 C 0.20719 0.51512 0.88635 0.0
C1951 C 0.25544 0.5209 0.88085 0.0
C1952 C 0.65069 0.80175 0.92506 0.0
C1953 C 0.64739 0.8318 0.90806 0.0
C1954 C 0.64385 0.75249 0.92098 0.0
C1955 C 0.63524 0.73223 0.8996 0.0
H1956 H 0.65861 0.8165 0.94161 0.0
H1957 H 0.64515 0.73024 0.93459 0.0
S1958 S 0.62832 0.79784 0.84926 0.0
N1959 N 0.63729 0.83843 0.86915 0.0
N1960 N 0.62659 0.74808 0.8612 0.0
C1961 C 0.6334 0.76288 0.88253 0.0
C1962 C 0.63907 0.812 0.88679 0.0
C1963 C 0.36716 0.89613 0.9207 0.0
C1964 C 0.39625 0.9346 0.9053 0.0
C1965 C 0.32201 0.85133 0.91478 0.0
C1966 C 0.30397 0.84268 0.89308 0.0
H1967 H 0.38073 0.89964 0.93735 0.0
H1968 H 0.30141 0.823 0.92727 0.0
S1969 S 0.36713 0.92937 0.84593 0.0
N1970 N 0.40401 0.95911 0.86698 0.0
N1971 N 0.3199 0.87626 0.85596 0.0
C1972 C 0.33242 0.88105 0.87754 0.0
C1973 C 0.37822 0.92646 0.88357 0.0
C1974 C 0.2022 0.57736 0.40744 0.0
C1975 C 0.17486 0.58915 0.42278 0.0
C1976 C 0.19253 0.52675 0.40477 0.0
C1977 C 0.15588 0.48618 0.41761 0.0
H1978 H 0.23466 0.60788 0.39919 0.0
H1979 H 0.21841 0.52066 0.39472 0.0
S1980 S 0.06764 0.49556 0.45682 0.0
N1981 N 0.10291 0.55427 0.44761 0.0
N1982 N 0.08808 0.46113 0.44404 0.0
C1983 C 0.12473 0.49692 0.43101 0.0
C1984 C 0.13338 0.5478 0.43321 0.0
C1985 C 0.59375 0.69165 0.3969 0.0
C1986 C 0.61017 0.70296 0.41874 0.0
C1987 C 0.54553 0.65007 0.39168 0.0
C1988 C 0.51149 0.61768 0.40802 0.0
H1989 H 0.61728 0.71632 0.38382 0.0
H1990 H 0.53436 0.64408 0.37463 0.0
S1991 S 0.53919 0.62793 0.46756 0.0
N1992 N 0.58995 0.67654 0.4567 0.0
N1993 N 0.50082 0.59814 0.44689 0.0
C1994 C 0.52861 0.62765 0.42982 0.0
C1995 C 0.57741 0.67009 0.43512 0.0
C1996 C 0.49481 0.97784 0.43184 0.0
C1997 C 0.49818 0.93747 0.42184 0.0
C1998 C 0.45226 0.98385 0.429 0.0
C1999 C 0.41256 0.95236 0.41479 0.0
H2000 H 0.52251 1.00152 0.44397 0.0
H2001 H 0.44785 1.00953 0.43999 0.0
S2002 S 0.40828 0.84933 0.38034 0.0
N2003 N 0.46124 0.87042 0.39446 0.0
N2004 N 0.38389 0.88521 0.38765 0.0
C2005 C 0.41952 0.91745 0.402 0.0
C2006 C 0.4617 0.90933 0.40574 0.0
C2007 C 0.84316 0.78959 0.22046 0.0
C2008 C 0.83097 0.81825 0.23487 0.0
C2009 C 0.89262 0.79754 0.21868 0.0
C2010 C 0.9338 0.83741 0.22994 0.0
H2011 H 0.81559 0.76422 0.2087 0.0
H2012 H 0.89948 0.77555 0.20653 0.0
S2013 S 0.92235 0.92124 0.27125 0.0
N2014 N 0.86366 0.88432 0.26266 0.0
N2015 N 0.95763 0.9027 0.25784 0.0
C2016 C 0.92183 0.86395 0.24569 0.0
C2017 C 0.87047 0.85392 0.24831 0.0
C2018 C 0.2827 0.10107 0.22675 0.0
C2019 C 0.28274 0.06666 0.24233 0.0
C2020 C 0.2783 0.14354 0.23292 0.0
C2021 C 0.27341 0.15352 0.25503 0.0
H2022 H 0.28435 0.09407 0.20944 0.0
H2023 H 0.27832 0.1685 0.22022 0.0
S2024 S 0.27079 0.07431 0.30218 0.0
N2025 N 0.27805 0.04555 0.28072 0.0
N2026 N 0.26878 0.12435 0.29265 0.0
C2027 C 0.27458 0.11983 0.27086 0.0
C2028 C 0.27956 0.0768 0.26445 0.0
C2029 C 0.96737 0.21386 0.22332 0.0
C2030 C 0.96604 0.17172 0.23385 0.0
C2031 C 1.00752 0.26374 0.22647 0.0
C2032 C 0.04682 0.27523 0.24151 0.0
H2033 H 0.9402 0.20767 0.21056 0.0
H2034 H 1.01046 0.29239 0.21507 0.0
S2035 S 0.05666 0.18016 0.27641 0.0
N2036 N 1.00512 0.14555 0.26173 0.0
N2037 N 0.07754 0.24006 0.26931 0.0
C2038 C 0.04212 0.23427 0.25437 0.0
C2039 C 1.00241 0.18259 0.25031 0.0
C2040 C 0.83135 0.8474 0.76911 0.0
C2041 C 0.85534 0.8447 0.74981 0.0
C2042 C 0.83114 0.89241 0.77533 0.0
C2043 C 0.85494 0.93762 0.76261 0.0
H2044 H 0.81466 0.81537 0.78013 0.0
H2045 H 0.8127 0.89197 0.79058 0.0
S2046 S 0.91902 0.95004 0.70935 0.0
N2047 N 0.90088 0.89117 0.71721 0.0
N2048 N 0.90009 0.97487 0.72878 0.0
C2049 C 0.8777 0.93505 0.74292 0.0
C2050 C 0.87774 0.88906 0.73655 0.0
C2051 C 0.27916 0.04348 0.73941 0.0
C2052 C 0.31702 0.04643 0.75373 0.0
C2053 C 0.22757 1.00483 0.7417 0.0
C2054 C 0.21202 0.96704 0.75811 0.0
H2055 H 0.28824 0.07452 0.72815 0.0
H2056 H 0.19924 1.00762 0.73204 0.0
S2057 S 0.29613 0.95417 0.79823 0.0
N2058 N 0.33413 1.0061 0.7843 0.0
N2059 N 0.23988 0.93159 0.78685 0.0
C2060 C 0.2504 0.96635 0.77067 0.0
C2061 C 0.30204 1.00644 0.76897 0.0
C2062 C 0.13957 0.26345 0.77812 0.0
C2063 C 0.17138 0.2598 0.76219 0.0
C2064 C 0.09595 0.26575 0.77235 0.0
C2065 C 0.08236 0.26566 0.7503 0.0
H2066 H 0.14844 0.26438 0.79534 0.0
H2067 H 0.07233 0.26699 0.78534 0.0
S2068 S 0.15195 0.25673 0.70212 0.0
N2069 N 0.18553 0.2561 0.72324 0.0
N2070 N 0.10361 0.26039 0.71245 0.0
C2071 C 0.11325 0.26138 0.73419 0.0
C2072 C 0.15769 0.25868 0.74008 0.0
C2073 C 0.51511 0.12995 0.58492 0.0
C2074 C 0.51059 0.16749 0.57322 0.0
C2075 C 0.56161 0.12984 0.58556 0.0
C2076 C 0.60589 0.16773 0.57485 0.0
H2077 H 0.48216 0.09901 0.59264 0.0
H2078 H 0.5623 0.09844 0.59374 0.0
S2079 S 0.61675 0.27991 0.54539 0.0
N2080 N 0.5571 0.24793 0.55334 0.0
N2081 N 0.64272 0.24688 0.55442 0.0
C2082 C 0.60277 0.20781 0.56485 0.0
C2083 C 0.55573 0.20787 0.56407 0.0
C2084 C 0.98568 0.42494 0.54522 0.0
C2085 C 0.96504 0.39256 0.56344 0.0
C2086 C 0.9885 0.47275 0.54425 0.0
C2087 C 0.9699 0.49065 0.56129 0.0
H2088 H 0.99885 0.4126 0.53125 0.0
H2089 H 1.00453 0.49549 0.52963 0.0
S2090 S 0.9094 0.41933 0.61228 0.0
N2091 N 0.92324 0.38067 0.59858 0.0
N2092 N 0.92954 0.47103 0.59708 0.0
C2093 C 0.94873 0.45843 0.57962 0.0
C2094 C 0.94598 0.40944 0.5806 0.0
C2095 C 0.65338 0.51255 0.5608 0.0
C2096 C 0.63831 0.49858 0.58274 0.0
C2097 C 0.69848 0.55789 0.5554 0.0
C2098 C 0.73052 0.59204 0.57159 0.0
H2099 H 0.62985 0.48858 0.54761 0.0
H2100 H 0.70838 0.56639 0.53826 0.0
S2101 S 0.71214 0.57236 0.63141 0.0
N2102 N 0.66243 0.5221 0.62088 0.0
N2103 N 0.74552 0.60727 0.61044 0.0
C2104 C 0.71647 0.57859 0.59352 0.0
C2105 C 0.67095 0.53212 0.59912 0.0
loop_
_geom_bond_atom_site_label_1
_geom_bond_atom_site_label_2
_geom_bond_distance
_geom_bond_site_symmetry_2
_ccdc_geom_bond_type
Eu0 N31 2.657 . S
Eu0 N38 2.609 . S
Eu0 O44 2.558 . S
Eu0 O45 2.612 . S
Eu0 O47 2.339 . S
Eu0 O48 2.563 . S
Eu0 O49 2.419 . S
Eu0 O51 2.380 1_545 S
Eu0 O52 2.432 . S
Eu0 C64 2.848 . S
C1 C4 1.429 . S
C1 C5 1.411 . S
C1 N8 1.381 . S
C2 C4 1.420 . S
C2 C6 1.423 . S
C2 C14 1.392 . S
C3 C5 1.420 . S
C3 C6 1.351 . S
C3 H26 0.931 . S
C4 C1 1.429 . S
C4 C2 1.420 . S
C4 N12 1.362 . S
C5 C1 1.411 . S
C5 C3 1.420 . S
C5 C10 1.395 . S
C6 C2 1.423 . S
C6 C3 1.351 . S
C6 H18 0.930 . S
C7 C9 1.400 . S
C7 C10 1.386 1_565 S
C7 H19 0.930 1_554 S
N8 C1 1.381 . S
N8 C9 1.320 1_545 S
N8 Eu11 2.606 1_545 S
C9 C7 1.400 . S
C9 N8 1.320 1_565 S
C9 H16 0.930 . S
C10 C5 1.395 . S
C10 C7 1.386 1_545 S
C10 H29 0.930 . S
Eu11 N8 2.606 1_565 S
Eu11 N12 2.657 1_565 S
Eu11 O45 2.380 1_565 S
Eu11 O46 2.432 1_565 S
Eu11 O50 2.558 . S
Eu11 O51 2.612 . S
Eu11 O53 2.339 . S
Eu11 O54 2.563 . S
Eu11 O55 2.419 . S
Eu11 C75 2.848 . S
N12 C4 1.362 . S
N12 Eu11 2.657 1_545 S
N12 C13 1.334 . S
C13 N12 1.334 . S
C13 C15 1.413 . S
C13 H20 0.929 . S
C14 C2 1.392 . S
C14 C15 1.367 . S
C14 H22 0.930 . S
C15 C13 1.413 . S
C15 C14 1.367 . S
C15 H17 0.930 . S
H16 C9 0.930 . S
H17 C15 0.930 . S
H18 C6 0.930 . S
H19 C7 0.930 1_556 S
H20 C13 0.929 . S
H21 C35 0.930 . S
H22 C14 0.930 . S
H23 C41 0.930 . S
H24 C32 0.926 1_545 S
H25 C39 0.930 . S
H26 C3 0.931 . S
H27 C33 0.930 . S
H28 C66 0.930 . S
H29 C10 0.930 . S
H30 C65 0.931 . S
N31 Eu0 2.657 . S
N31 C32 1.334 1_545 S
N31 C36 1.362 1_545 S
C32 H24 0.926 1_565 S
C32 N31 1.334 1_565 S
C32 C35 1.413 . S
C33 H27 0.930 . S
C33 C34 1.392 . S
C33 C35 1.367 . S
C34 C33 1.392 . S
C34 C36 1.420 . S
C34 C66 1.423 . S
C35 H21 0.930 . S
C35 C32 1.413 . S
C35 C33 1.367 . S
C36 N31 1.362 1_565 S
C36 C34 1.420 . S
C36 C40 1.429 . S
H37 C42 0.930 1_565 S
N38 Eu0 2.609 . S
N38 C40 1.375 1_545 S
N38 C41 1.321 . S
C39 H25 0.930 . S
C39 C41 1.400 . S
C39 C42 1.386 . S
C40 C36 1.429 . S
C40 N38 1.375 1_565 S
C40 C43 1.412 . S
C41 H23 0.930 . S
C41 N38 1.321 . S
C41 C39 1.400 . S
C42 H37 0.930 1_545 S
C42 C39 1.386 . S
C42 C43 1.395 1_545 S
C43 C40 1.412 . S
C43 C42 1.395 1_565 S
C43 C65 1.420 . S
O44 Eu0 2.558 . S
O44 C64 1.257 . S
O45 Eu0 2.612 . S
O45 Eu11 2.380 1_545 S
O45 C56 1.276 . S
O46 Eu11 2.432 1_545 S
O46 C63 1.266 . S
O47 Eu0 2.339 . S
O47 C63 1.254 . S
O48 Eu0 2.563 . S
O48 C56 1.235 . S
O49 Eu0 2.419 . S
O49 C64 1.249 . S
O50 Eu11 2.558 . S
O50 C75 1.257 . S
O51 Eu0 2.380 1_565 S
O51 Eu11 2.612 . S
O51 C67 1.276 . S
O52 Eu0 2.432 . S
O52 C74 1.264 1_545 S
O53 Eu11 2.339 . S
O53 C74 1.254 . S
O54 Eu11 2.563 . S
O54 C67 1.235 . S
O55 Eu11 2.419 . S
O55 C75 1.249 . S
C56 O45 1.276 . S
C56 O48 1.235 . S
C57 C59 1.393 . S
C57 C61 1.395 . S
C57 C64 1.492 . S
C58 C59 1.392 . S
C58 C60 1.386 . S
C59 C57 1.393 . S
C59 C58 1.392 . S
C59 H76 0.930 . S
C60 C58 1.386 . S
C60 C62 1.395 . S
C60 H77 0.930 . S
C61 C57 1.395 . S
C61 C62 1.379 . S
C61 H78 0.930 . S
C62 C60 1.395 . S
C62 C61 1.379 . S
C62 H79 0.930 . S
C63 O46 1.266 . S
C63 O47 1.254 . S
C64 Eu0 2.848 . S
C64 O44 1.257 . S
C64 O49 1.249 . S
C64 C57 1.492 . S
C65 H30 0.931 . S
C65 C43 1.420 . S
C65 C66 1.351 . S
C66 H28 0.930 . S
C66 C34 1.423 . S
C66 C65 1.351 . S
C67 O51 1.276 . S
C67 O54 1.235 . S
C68 C69 1.393 . S
C68 C72 1.395 . S
C68 C75 1.492 . S
C69 C68 1.393 . S
C69 C70 1.392 . S
C69 H80 0.930 . S
C70 C69 1.392 . S
C70 C71 1.386 . S
C71 C70 1.386 . S
C71 C73 1.395 . S
C71 H81 0.930 . S
C72 C68 1.395 . S
C72 C73 1.379 . S
C72 H82 0.930 . S
C73 C71 1.395 . S
C73 C72 1.379 . S
C73 H83 0.930 . S
C74 O52 1.264 1_565 S
C74 O53 1.254 . S
C75 Eu11 2.848 . S
C75 O50 1.257 . S
C75 O55 1.249 . S
C75 C68 1.492 . S
H76 C59 0.930 . S
H77 C60 0.930 . S
H78 C61 0.930 . S
H79 C62 0.930 . S
H80 C69 0.930 . S
H81 C71 0.930 . S
H82 C72 0.930 . S
H83 C73 0.930 . S
Eu84 N115 2.657 . S
Eu84 N122 2.609 . S
Eu84 O128 2.558 1_455 S
Eu84 O129 2.612 . S
Eu84 O131 2.339 . S
Eu84 O132 2.563 1_455 S
Eu84 O133 2.419 1_455 S
Eu84 O135 2.380 . S
Eu84 O136 2.432 . S
Eu84 C148 2.848 1_455 S
C85 C88 1.429 . S
C85 C89 1.411 . S
C85 N92 1.377 . S
C86 C88 1.420 1_655 S
C86 C90 1.421 . S
C86 C98 1.394 . S
C87 C89 1.420 1_655 S
C87 C90 1.353 . S
C87 H110 0.929 . S
C88 C85 1.429 . S
C88 C86 1.420 1_455 S
C88 N96 1.362 . S
C89 C85 1.411 . S
C89 C87 1.420 1_455 S
C89 C94 1.395 . S
C90 C86 1.421 . S
C90 C87 1.353 . S
C90 H102 0.930 . S
C91 C93 1.400 . S
C91 C94 1.386 . S
C91 H103 0.930 1_554 S
N92 C85 1.377 . S
N92 C93 1.321 . S
N92 Eu95 2.609 . S
C93 C91 1.400 . S
C93 N92 1.321 . S
C93 H100 0.930 . S
C94 C89 1.395 . S
C94 C91 1.386 . S
C94 H113 0.930 . S
Eu95 N92 2.609 . S
Eu95 N96 2.657 . S
Eu95 O129 2.380 . S
Eu95 O130 2.432 . S
Eu95 O134 2.558 . S
Eu95 O135 2.612 . S
Eu95 O137 2.339 . S
Eu95 O138 2.563 . S
Eu95 O139 2.419 . S
Eu95 C159 2.848 . S
N96 C88 1.362 . S
N96 Eu95 2.657 . S
N96 C97 1.334 . S
C97 N96 1.334 . S
C97 C99 1.413 . S
C97 H104 0.929 . S
C98 C86 1.394 . S
C98 C99 1.367 1_655 S
C98 H106 0.930 . S
C99 C97 1.413 . S
C99 C98 1.367 1_455 S
C99 H101 0.930 1_455 S
H100 C93 0.930 . S
H101 C99 0.930 1_655 S
H102 C90 0.930 . S
H103 C91 0.930 1_556 S
H104 C97 0.929 . S
H105 C119 0.930 . S
H106 C98 0.930 . S
H107 C125 0.930 . S
H108 C116 0.929 . S
H109 C123 0.930 . S
H110 C87 0.929 . S
H111 C117 0.930 . S
H112 C150 0.930 . S
H113 C94 0.930 . S
H114 C149 0.931 . S
N115 Eu84 2.657 . S
N115 C116 1.334 . S
N115 C120 1.362 . S
C116 H108 0.929 . S
C116 N115 1.334 . S
C116 C119 1.413 . S
C117 H111 0.930 . S
C117 C118 1.392 . S
C117 C119 1.367 . S
C118 C117 1.392 . S
C118 C120 1.420 . S
C118 C150 1.423 . S
C119 H105 0.930 . S
C119 C116 1.413 . S
C119 C117 1.367 . S
C120 N115 1.362 . S
C120 C118 1.420 . S
C120 C124 1.429 . S
H121 C126 0.930 . S
N122 Eu84 2.609 . S
N122 C124 1.377 . S
N122 C125 1.321 . S
C123 H109 0.930 . S
C123 C125 1.400 . S
C123 C126 1.386 . S
C124 C120 1.429 . S
C124 N122 1.377 . S
C124 C127 1.411 . S
C125 H107 0.930 . S
C125 N122 1.321 . S
C125 C123 1.400 . S
C126 H121 0.930 . S
C126 C123 1.386 . S
C126 C127 1.395 . S
C127 C124 1.411 . S
C127 C126 1.395 . S
C127 C149 1.420 . S
O128 Eu84 2.558 1_655 S
O128 C148 1.257 . S
O129 Eu84 2.612 . S
O129 Eu95 2.380 . S
O129 C140 1.276 1_455 S
O130 Eu95 2.432 . S
O130 C147 1.264 . S
O131 Eu84 2.339 . S
O131 C147 1.254 . S
O132 Eu84 2.563 1_655 S
O132 C140 1.235 . S
O133 Eu84 2.419 1_655 S
O133 C148 1.249 . S
O134 Eu95 2.558 . S
O134 C159 1.257 . S
O135 Eu84 2.380 . S
O135 Eu95 2.612 . S
O135 C151 1.276 . S
O136 Eu84 2.432 . S
O136 C158 1.264 . S
O137 Eu95 2.339 . S
O137 C158 1.254 . S
O138 Eu95 2.563 . S
O138 C151 1.235 . S
O139 Eu95 2.419 . S
O139 C159 1.249 . S
C140 O129 1.276 1_655 S
C140 O132 1.235 . S
C141 C143 1.393 . S
C141 C145 1.395 . S
C141 C148 1.492 . S
C142 C143 1.392 . S
C142 C144 1.386 . S
C143 C141 1.393 . S
C143 C142 1.392 . S
C143 H160 0.930 . S
C144 C142 1.386 . S
C144 C146 1.395 . S
C144 H161 0.930 . S
C145 C141 1.395 . S
C145 C146 1.379 . S
C145 H162 0.930 . S
C146 C144 1.395 . S
C146 C145 1.379 . S
C146 H163 0.930 . S
C147 O130 1.264 . S
C147 O131 1.254 . S
C148 Eu84 2.848 1_655 S
C148 O128 1.257 . S
C148 O133 1.249 . S
C148 C141 1.492 . S
C149 H114 0.931 . S
C149 C127 1.420 . S
C149 C150 1.351 . S
C150 H112 0.930 . S
C150 C118 1.423 . S
C150 C149 1.351 . S
C151 O135 1.276 . S
C151 O138 1.235 . S
C152 C153 1.393 . S
C152 C156 1.395 . S
C152 C159 1.492 . S
C153 C152 1.393 . S
C153 C154 1.392 . S
C153 H164 0.930 . S
C154 C153 1.392 . S
C154 C155 1.386 . S
C155 C154 1.386 . S
C155 C157 1.395 . S
C155 H165 0.930 . S
C156 C152 1.395 . S
C156 C157 1.379 . S
C156 H166 0.930 . S
C157 C155 1.395 . S
C157 C156 1.379 . S
C157 H167 0.930 . S
C158 O136 1.264 . S
C158 O137 1.254 . S
C159 Eu95 2.848 . S
C159 O134 1.257 . S
C159 O139 1.249 . S
C159 C152 1.492 . S
H160 C143 0.930 . S
H161 C144 0.930 . S
H162 C145 0.930 . S
H163 C146 0.930 . S
H164 C153 0.930 . S
H165 C155 0.930 . S
H166 C156 0.930 . S
H167 C157 0.930 . S
Eu168 N199 2.657 . S
Eu168 N206 2.609 . S
Eu168 O212 2.558 . S
Eu168 O213 2.612 . S
Eu168 O215 2.339 . S
Eu168 O216 2.563 . S
Eu168 O217 2.419 . S
Eu168 O219 2.380 . S
Eu168 O220 2.432 . S
Eu168 C232 2.848 . S
C169 C172 1.429 . S
C169 C173 1.411 . S
C169 N176 1.377 . S
C170 C172 1.420 . S
C170 C174 1.423 . S
C170 C182 1.392 . S
C171 C173 1.420 . S
C171 C174 1.351 . S
C171 H194 0.931 . S
C172 C169 1.429 . S
C172 C170 1.420 . S
C172 N180 1.362 . S
C173 C169 1.411 . S
C173 C171 1.420 . S
C173 C178 1.395 . S
C174 C170 1.423 . S
C174 C171 1.351 . S
C174 H186 0.930 . S
C175 C177 1.400 . S
C175 C178 1.386 . S
C175 H187 0.930 1_554 S
N176 C169 1.377 . S
N176 C177 1.321 . S
N176 Eu179 2.609 . S
C177 C175 1.400 . S
C177 N176 1.321 . S
C177 H184 0.930 . S
C178 C173 1.395 . S
C178 C175 1.386 . S
C178 H197 0.930 . S
Eu179 N176 2.609 . S
Eu179 N180 2.657 . S
Eu179 O213 2.380 . S
Eu179 O214 2.432 . S
Eu179 O218 2.558 . S
Eu179 O219 2.612 . S
Eu179 O221 2.339 . S
Eu179 O222 2.563 . S
Eu179 O223 2.419 . S
Eu179 C243 2.848 . S
N180 C172 1.362 . S
N180 Eu179 2.657 . S
N180 C181 1.334 . S
C181 N180 1.334 . S
C181 C183 1.413 . S
C181 H188 0.929 . S
C182 C170 1.392 . S
C182 C183 1.367 . S
C182 H190 0.930 . S
C183 C181 1.413 . S
C183 C182 1.367 . S
C183 H185 0.930 . S
H184 C177 0.930 . S
H185 C183 0.930 . S
H186 C174 0.930 . S
H187 C175 0.930 1_556 S
H188 C181 0.929 . S
H189 C203 0.930 . S
H190 C182 0.930 . S
H191 C209 0.930 . S
H192 C200 0.929 . S
H193 C207 0.930 . S
H194 C171 0.931 . S
H195 C201 0.930 . S
H196 C234 0.930 . S
H197 C178 0.930 . S
H198 C233 0.931 . S
N199 Eu168 2.657 . S
N199 C200 1.334 . S
N199 C204 1.362 . S
C200 H192 0.929 . S
C200 N199 1.334 . S
C200 C203 1.413 . S
C201 H195 0.930 . S
C201 C202 1.392 . S
C201 C203 1.367 . S
C202 C201 1.392 . S
C202 C204 1.420 . S
C202 C234 1.423 . S
C203 H189 0.930 . S
C203 C200 1.413 . S
C203 C201 1.367 . S
C204 N199 1.362 . S
C204 C202 1.420 . S
C204 C208 1.429 . S
H205 C210 0.930 . S
N206 Eu168 2.609 . S
N206 C208 1.377 . S
N206 C209 1.321 . S
C207 H193 0.930 . S
C207 C209 1.400 . S
C207 C210 1.386 . S
C208 C204 1.429 . S
C208 N206 1.377 . S
C208 C211 1.411 . S
C209 H191 0.930 . S
C209 N206 1.321 . S
C209 C207 1.400 . S
C210 H205 0.930 . S
C210 C207 1.386 . S
C210 C211 1.395 . S
C211 C208 1.411 . S
C211 C210 1.395 . S
C211 C233 1.420 . S
O212 Eu168 2.558 . S
O212 C232 1.257 . S
O213 Eu168 2.612 . S
O213 Eu179 2.380 . S
O213 C224 1.276 . S
O214 Eu179 2.432 . S
O214 C231 1.264 . S
O215 Eu168 2.339 . S
O215 C231 1.254 . S
O216 Eu168 2.563 . S
O216 C224 1.235 . S
O217 Eu168 2.419 . S
O217 C232 1.249 . S
O218 Eu179 2.558 . S
O218 C243 1.257 . S
O219 Eu168 2.380 . S
O219 Eu179 2.612 . S
O219 C235 1.276 . S
O220 Eu168 2.432 . S
O220 C242 1.264 . S
O221 Eu179 2.339 . S
O221 C242 1.254 . S
O222 Eu179 2.563 . S
O222 C235 1.235 . S
O223 Eu179 2.419 . S
O223 C243 1.249 . S
C224 O213 1.276 . S
C224 O216 1.235 . S
C225 C227 1.393 . S
C225 C229 1.395 . S
C225 C232 1.492 . S
C226 C227 1.392 . S
C226 C228 1.386 . S
C227 C225 1.393 . S
C227 C226 1.392 . S
C227 H244 0.930 . S
C228 C226 1.386 . S
C228 C230 1.395 . S
C228 H245 0.930 . S
C229 C225 1.395 . S
C229 C230 1.379 . S
C229 H246 0.930 . S
C230 C228 1.395 . S
C230 C229 1.379 . S
C230 H247 0.930 . S
C231 O214 1.264 . S
C231 O215 1.254 . S
C232 Eu168 2.848 . S
C232 O212 1.257 . S
C232 O217 1.249 . S
C232 C225 1.492 . S
C233 H198 0.931 . S
C233 C211 1.420 . S
C233 C234 1.351 . S
C234 H196 0.930 . S
C234 C202 1.423 . S
C234 C233 1.351 . S
C235 O219 1.276 . S
C235 O222 1.235 . S
C236 C237 1.393 . S
C236 C240 1.395 . S
C236 C243 1.492 . S
C237 C236 1.393 . S
C237 C238 1.392 . S
C237 H248 0.930 . S
C238 C237 1.392 . S
C238 C239 1.386 . S
C239 C238 1.386 . S
C239 C241 1.395 . S
C239 H249 0.930 . S
C240 C236 1.395 . S
C240 C241 1.379 . S
C240 H250 0.930 . S
C241 C239 1.395 . S
C241 C240 1.379 . S
C241 H251 0.930 . S
C242 O220 1.264 . S
C242 O221 1.254 . S
C243 Eu179 2.848 . S
C243 O218 1.257 . S
C243 O223 1.249 . S
C243 C236 1.492 . S
H244 C227 0.930 . S
H245 C228 0.930 . S
H246 C229 0.930 . S
H247 C230 0.930 . S
H248 C237 0.930 . S
H249 C239 0.930 . S
H250 C240 0.930 . S
H251 C241 0.930 . S
Eu252 N283 2.657 . S
Eu252 N290 2.609 . S
Eu252 O296 2.558 . S
Eu252 O297 2.612 . S
Eu252 O299 2.339 . S
Eu252 O300 2.563 . S
Eu252 O301 2.419 . S
Eu252 O303 2.380 1_455 S
Eu252 O304 2.432 . S
Eu252 C316 2.848 . S
C253 C256 1.429 . S
C253 C257 1.411 . S
C253 N260 1.381 . S
C254 C256 1.420 . S
C254 C258 1.423 . S
C254 C266 1.392 . S
C255 C257 1.420 . S
C255 C258 1.351 . S
C255 H278 0.931 . S
C256 C253 1.429 . S
C256 C254 1.420 . S
C256 N264 1.362 . S
C257 C253 1.411 . S
C257 C255 1.420 . S
C257 C262 1.395 . S
C258 C254 1.423 . S
C258 C255 1.351 . S
C258 H270 0.930 . S
C259 C261 1.400 . S
C259 C262 1.386 1_655 S
C259 H271 0.930 1_556 S
N260 C253 1.381 . S
N260 C261 1.320 1_455 S
N260 Eu263 2.606 1_455 S
C261 C259 1.400 . S
C261 N260 1.320 1_655 S
C261 H268 0.930 . S
C262 C257 1.395 . S
C262 C259 1.386 1_455 S
C262 H281 0.930 . S
Eu263 N260 2.606 1_655 S
Eu263 N264 2.657 1_655 S
Eu263 O297 2.380 1_655 S
Eu263 O298 2.432 1_655 S
Eu263 O302 2.558 . S
Eu263 O303 2.612 . S
Eu263 O305 2.339 . S
Eu263 O306 2.563 . S
Eu263 O307 2.419 . S
Eu263 C327 2.848 . S
N264 C256 1.362 . S
N264 Eu263 2.657 1_455 S
N264 C265 1.334 . S
C265 N264 1.334 . S
C265 C267 1.413 . S
C265 H272 0.929 . S
C266 C254 1.392 . S
C266 C267 1.367 . S
C266 H274 0.930 . S
C267 C265 1.413 . S
C267 C266 1.367 . S
C267 H269 0.930 . S
H268 C261 0.930 . S
H269 C267 0.930 . S
H270 C258 0.930 . S
H271 C259 0.930 1_554 S
H272 C265 0.929 . S
H273 C287 0.930 . S
H274 C266 0.930 . S
H275 C293 0.930 . S
H276 C284 0.926 1_455 S
H277 C291 0.930 . S
H278 C255 0.931 . S
H279 C285 0.930 . S
H280 C318 0.930 . S
H281 C262 0.930 . S
H282 C317 0.931 . S
N283 Eu252 2.657 . S
N283 C284 1.334 1_455 S
N283 C288 1.362 1_455 S
C284 H276 0.926 1_655 S
C284 N283 1.334 1_655 S
C284 C287 1.413 . S
C285 H279 0.930 . S
C285 C286 1.392 . S
C285 C287 1.367 . S
C286 C285 1.392 . S
C286 C288 1.420 . S
C286 C318 1.423 . S
C287 H273 0.930 . S
C287 C284 1.413 . S
C287 C285 1.367 . S
C288 N283 1.362 1_655 S
C288 C286 1.420 . S
C288 C292 1.429 . S
H289 C294 0.930 1_655 S
N290 Eu252 2.609 . S
N290 C292 1.375 1_455 S
N290 C293 1.321 . S
C291 H277 0.930 . S
C291 C293 1.400 . S
C291 C294 1.386 . S
C292 C288 1.429 . S
C292 N290 1.375 1_655 S
C292 C295 1.412 . S
C293 H275 0.930 . S
C293 N290 1.321 . S
C293 C291 1.400 . S
C294 H289 0.930 1_455 S
C294 C291 1.386 . S
C294 C295 1.395 1_455 S
C295 C292 1.412 . S
C295 C294 1.395 1_655 S
C295 C317 1.420 . S
O296 Eu252 2.558 . S
O296 C316 1.257 . S
O297 Eu252 2.612 . S
O297 Eu263 2.380 1_455 S
O297 C308 1.276 . S
O298 Eu263 2.432 1_455 S
O298 C315 1.266 . S
O299 Eu252 2.339 . S
O299 C315 1.254 . S
O300 Eu252 2.563 . S
O300 C308 1.235 . S
O301 Eu252 2.419 . S
O301 C316 1.249 . S
O302 Eu263 2.558 . S
O302 C327 1.257 . S
O303 Eu252 2.380 1_655 S
O303 Eu263 2.612 . S
O303 C319 1.276 . S
O304 Eu252 2.432 . S
O304 C326 1.264 1_455 S
O305 Eu263 2.339 . S
O305 C326 1.254 . S
O306 Eu263 2.563 . S
O306 C319 1.235 . S
O307 Eu263 2.419 . S
O307 C327 1.249 . S
C308 O297 1.276 . S
C308 O300 1.235 . S
C309 C311 1.393 . S
C309 C313 1.395 . S
C309 C316 1.492 . S
C310 C311 1.392 . S
C310 C312 1.386 . S
C311 C309 1.393 . S
C311 C310 1.392 . S
C311 H328 0.930 . S
C312 C310 1.386 . S
C312 C314 1.395 . S
C312 H329 0.930 . S
C313 C309 1.395 . S
C313 C314 1.379 . S
C313 H330 0.930 . S
C314 C312 1.395 . S
C314 C313 1.379 . S
C314 H331 0.930 . S
C315 O298 1.266 . S
C315 O299 1.254 . S
C316 Eu252 2.848 . S
C316 O296 1.257 . S
C316 O301 1.249 . S
C316 C309 1.492 . S
C317 H282 0.931 . S
C317 C295 1.420 . S
C317 C318 1.351 . S
C318 H280 0.930 . S
C318 C286 1.423 . S
C318 C317 1.351 . S
C319 O303 1.276 . S
C319 O306 1.235 . S
C320 C321 1.393 . S
C320 C324 1.395 . S
C320 C327 1.492 . S
C321 C320 1.393 . S
C321 C322 1.392 . S
C321 H332 0.930 . S
C322 C321 1.392 . S
C322 C323 1.386 . S
C323 C322 1.386 . S
C323 C325 1.395 . S
C323 H333 0.930 . S
C324 C320 1.395 . S
C324 C325 1.379 . S
C324 H334 0.930 . S
C325 C323 1.395 . S
C325 C324 1.379 . S
C325 H335 0.930 . S
C326 O304 1.264 1_655 S
C326 O305 1.254 . S
C327 Eu263 2.848 . S
C327 O302 1.257 . S
C327 O307 1.249 . S
C327 C320 1.492 . S
H328 C311 0.930 . S
H329 C312 0.930 . S
H330 C313 0.930 . S
H331 C314 0.930 . S
H332 C321 0.930 . S
H333 C323 0.930 . S
H334 C324 0.930 . S
H335 C325 0.930 . S
Eu336 N367 2.657 . S
Eu336 N374 2.609 . S
Eu336 O380 2.558 . S
Eu336 O381 2.612 . S
Eu336 O383 2.339 . S
Eu336 O384 2.563 . S
Eu336 O385 2.419 . S
Eu336 O387 2.380 . S
Eu336 O388 2.432 . S
Eu336 C400 2.848 . S
C337 C340 1.429 . S
C337 C341 1.411 . S
C337 N344 1.377 . S
C338 C340 1.420 . S
C338 C342 1.423 . S
C338 C350 1.392 . S
C339 C341 1.420 . S
C339 C342 1.351 . S
C339 H362 0.931 . S
C340 C337 1.429 . S
C340 C338 1.420 . S
C340 N348 1.362 . S
C341 C337 1.411 . S
C341 C339 1.420 . S
C341 C346 1.395 . S
C342 C338 1.423 . S
C342 C339 1.351 . S
C342 H354 0.930 . S
C343 C345 1.400 . S
C343 C346 1.386 . S
C343 H355 0.930 1_556 S
N344 C337 1.377 . S
N344 C345 1.321 . S
N344 Eu347 2.609 . S
C345 C343 1.400 . S
C345 N344 1.321 . S
C345 H352 0.930 . S
C346 C341 1.395 . S
C346 C343 1.386 . S
C346 H365 0.930 . S
Eu347 N344 2.609 . S
Eu347 N348 2.657 . S
Eu347 O381 2.380 . S
Eu347 O382 2.432 . S
Eu347 O386 2.558 . S
Eu347 O387 2.612 . S
Eu347 O389 2.339 . S
Eu347 O390 2.563 . S
Eu347 O391 2.419 . S
Eu347 C411 2.848 . S
N348 C340 1.362 . S
N348 Eu347 2.657 . S
N348 C349 1.334 . S
C349 N348 1.334 . S
C349 C351 1.413 . S
C349 H356 0.929 . S
C350 C338 1.392 . S
C350 C351 1.367 . S
C350 H358 0.930 . S
C351 C349 1.413 . S
C351 C350 1.367 . S
C351 H353 0.930 . S
H352 C345 0.930 . S
H353 C351 0.930 . S
H354 C342 0.930 . S
H355 C343 0.930 1_554 S
H356 C349 0.929 . S
H357 C371 0.930 . S
H358 C350 0.930 . S
H359 C377 0.930 . S
H360 C368 0.929 . S
H361 C375 0.930 . S
H362 C339 0.931 . S
H363 C369 0.930 . S
H364 C402 0.930 . S
H365 C346 0.930 . S
H366 C401 0.931 . S
N367 Eu336 2.657 . S
N367 C368 1.334 . S
N367 C372 1.362 . S
C368 H360 0.929 . S
C368 N367 1.334 . S
C368 C371 1.413 . S
C369 H363 0.930 . S
C369 C370 1.392 . S
C369 C371 1.367 . S
C370 C369 1.392 . S
C370 C372 1.420 . S
C370 C402 1.423 . S
C371 H357 0.930 . S
C371 C368 1.413 . S
C371 C369 1.367 . S
C372 N367 1.362 . S
C372 C370 1.420 . S
C372 C376 1.429 . S
H373 C378 0.930 . S
N374 Eu336 2.609 . S
N374 C376 1.377 . S
N374 C377 1.321 . S
C375 H361 0.930 . S
C375 C377 1.400 . S
C375 C378 1.386 . S
C376 C372 1.429 . S
C376 N374 1.377 . S
C376 C379 1.411 . S
C377 H359 0.930 . S
C377 N374 1.321 . S
C377 C375 1.400 . S
C378 H373 0.930 . S
C378 C375 1.386 . S
C378 C379 1.395 . S
C379 C376 1.411 . S
C379 C378 1.395 . S
C379 C401 1.420 . S
O380 Eu336 2.558 . S
O380 C400 1.257 . S
O381 Eu336 2.612 . S
O381 Eu347 2.380 . S
O381 C392 1.276 . S
O382 Eu347 2.432 . S
O382 C399 1.264 . S
O383 Eu336 2.339 . S
O383 C399 1.254 . S
O384 Eu336 2.563 . S
O384 C392 1.235 . S
O385 Eu336 2.419 . S
O385 C400 1.249 . S
O386 Eu347 2.558 . S
O386 C411 1.257 . S
O387 Eu336 2.380 . S
O387 Eu347 2.612 . S
O387 C403 1.276 . S
O388 Eu336 2.432 . S
O388 C410 1.264 . S
O389 Eu347 2.339 . S
O389 C410 1.254 . S
O390 Eu347 2.563 . S
O390 C403 1.235 . S
O391 Eu347 2.419 . S
O391 C411 1.249 . S
C392 O381 1.276 . S
C392 O384 1.235 . S
C393 C395 1.393 . S
C393 C397 1.395 . S
C393 C400 1.492 . S
C394 C395 1.392 . S
C394 C396 1.386 . S
C395 C393 1.393 . S
C395 C394 1.392 . S
C395 H412 0.930 . S
C396 C394 1.386 . S
C396 C398 1.395 . S
C396 H413 0.930 . S
C397 C393 1.395 . S
C397 C398 1.379 . S
C397 H414 0.930 . S
C398 C396 1.395 . S
C398 C397 1.379 . S
C398 H415 0.930 . S
C399 O382 1.264 . S
C399 O383 1.254 . S
C400 Eu336 2.848 . S
C400 O380 1.257 . S
C400 O385 1.249 . S
C400 C393 1.492 . S
C401 H366 0.931 . S
C401 C379 1.420 . S
C401 C402 1.351 . S
C402 H364 0.930 . S
C402 C370 1.423 . S
C402 C401 1.351 . S
C403 O387 1.276 . S
C403 O390 1.235 . S
C404 C405 1.393 . S
C404 C408 1.395 . S
C404 C411 1.492 . S
C405 C404 1.393 . S
C405 C406 1.392 . S
C405 H416 0.930 . S
C406 C405 1.392 . S
C406 C407 1.386 . S
C407 C406 1.386 . S
C407 C409 1.395 . S
C407 H417 0.930 . S
C408 C404 1.395 . S
C408 C409 1.379 . S
C408 H418 0.930 . S
C409 C407 1.395 . S
C409 C408 1.379 . S
C409 H419 0.930 . S
C410 O388 1.264 . S
C410 O389 1.254 . S
C411 Eu347 2.848 . S
C411 O386 1.257 . S
C411 O391 1.249 . S
C411 C404 1.492 . S
H412 C395 0.930 . S
H413 C396 0.930 . S
H414 C397 0.930 . S
H415 C398 0.930 . S
H416 C405 0.930 . S
H417 C407 0.930 . S
H418 C408 0.930 . S
H419 C409 0.930 . S
Eu420 N451 2.657 . S
Eu420 N458 2.609 . S
Eu420 O464 2.558 1_545 S
Eu420 O465 2.612 . S
Eu420 O467 2.339 . S
Eu420 O468 2.563 1_545 S
Eu420 O469 2.419 1_545 S
Eu420 O471 2.380 . S
Eu420 O472 2.432 . S
Eu420 C484 2.848 1_545 S
C421 C424 1.429 . S
C421 C425 1.411 . S
C421 N428 1.377 . S
C422 C424 1.420 1_565 S
C422 C426 1.421 . S
C422 C434 1.394 . S
C423 C425 1.420 1_565 S
C423 C426 1.353 . S
C423 H446 0.929 . S
C424 C421 1.429 . S
C424 C422 1.420 1_545 S
C424 N432 1.362 . S
C425 C421 1.411 . S
C425 C423 1.420 1_545 S
C425 C430 1.395 . S
C426 C422 1.421 . S
C426 C423 1.353 . S
C426 H438 0.930 . S
C427 C429 1.400 . S
C427 C430 1.386 . S
C427 H439 0.930 1_556 S
N428 C421 1.377 . S
N428 C429 1.321 . S
N428 Eu431 2.609 . S
C429 C427 1.400 . S
C429 N428 1.321 . S
C429 H436 0.930 . S
C430 C425 1.395 . S
C430 C427 1.386 . S
C430 H449 0.930 . S
Eu431 N428 2.609 . S
Eu431 N432 2.657 . S
Eu431 O465 2.380 . S
Eu431 O466 2.432 . S
Eu431 O470 2.558 . S
Eu431 O471 2.612 . S
Eu431 O473 2.339 . S
Eu431 O474 2.563 . S
Eu431 O475 2.419 . S
Eu431 C495 2.848 . S
N432 C424 1.362 . S
N432 Eu431 2.657 . S
N432 C433 1.334 . S
C433 N432 1.334 . S
C433 C435 1.413 . S
C433 H440 0.929 . S
C434 C422 1.394 . S
C434 C435 1.367 1_565 S
C434 H442 0.930 . S
C435 C433 1.413 . S
C435 C434 1.367 1_545 S
C435 H437 0.930 1_545 S
H436 C429 0.930 . S
H437 C435 0.930 1_565 S
H438 C426 0.930 . S
H439 C427 0.930 1_554 S
H440 C433 0.929 . S
H441 C455 0.930 . S
H442 C434 0.930 . S
H443 C461 0.930 . S
H444 C452 0.929 . S
H445 C459 0.930 . S
H446 C423 0.929 . S
H447 C453 0.930 . S
H448 C486 0.930 . S
H449 C430 0.930 . S
H450 C485 0.931 . S
N451 Eu420 2.657 . S
N451 C452 1.334 . S
N451 C456 1.362 . S
C452 H444 0.929 . S
C452 N451 1.334 . S
C452 C455 1.413 . S
C453 H447 0.930 . S
C453 C454 1.392 . S
C453 C455 1.367 . S
C454 C453 1.392 . S
C454 C456 1.420 . S
C454 C486 1.423 . S
C455 H441 0.930 . S
C455 C452 1.413 . S
C455 C453 1.367 . S
C456 N451 1.362 . S
C456 C454 1.420 . S
C456 C460 1.429 . S
H457 C462 0.930 . S
N458 Eu420 2.609 . S
N458 C460 1.377 . S
N458 C461 1.321 . S
C459 H445 0.930 . S
C459 C461 1.400 . S
C459 C462 1.386 . S
C460 C456 1.429 . S
C460 N458 1.377 . S
C460 C463 1.411 . S
C461 H443 0.930 . S
C461 N458 1.321 . S
C461 C459 1.400 . S
C462 H457 0.930 . S
C462 C459 1.386 . S
C462 C463 1.395 . S
C463 C460 1.411 . S
C463 C462 1.395 . S
C463 C485 1.420 . S
O464 Eu420 2.558 1_565 S
O464 C484 1.257 . S
O465 Eu420 2.612 . S
O465 Eu431 2.380 . S
O465 C476 1.276 1_545 S
O466 Eu431 2.432 . S
O466 C483 1.264 . S
O467 Eu420 2.339 . S
O467 C483 1.254 . S
O468 Eu420 2.563 1_565 S
O468 C476 1.235 . S
O469 Eu420 2.419 1_565 S
O469 C484 1.249 . S
O470 Eu431 2.558 . S
O470 C495 1.257 . S
O471 Eu420 2.380 . S
O471 Eu431 2.612 . S
O471 C487 1.276 . S
O472 Eu420 2.432 . S
O472 C494 1.264 . S
O473 Eu431 2.339 . S
O473 C494 1.254 . S
O474 Eu431 2.563 . S
O474 C487 1.235 . S
O475 Eu431 2.419 . S
O475 C495 1.249 . S
C476 O465 1.276 1_565 S
C476 O468 1.235 . S
C477 C479 1.393 . S
C477 C481 1.395 . S
C477 C484 1.492 . S
C478 C479 1.392 . S
C478 C480 1.386 . S
C479 C477 1.393 . S
C479 C478 1.392 . S
C479 H496 0.930 . S
C480 C478 1.386 . S
C480 C482 1.395 . S
C480 H497 0.930 . S
C481 C477 1.395 . S
C481 C482 1.379 . S
C481 H498 0.930 . S
C482 C480 1.395 . S
C482 C481 1.379 . S
C482 H499 0.930 . S
C483 O466 1.264 . S
C483 O467 1.254 . S
C484 Eu420 2.848 1_565 S
C484 O464 1.257 . S
C484 O469 1.249 . S
C484 C477 1.492 . S
C485 H450 0.931 . S
C485 C463 1.420 . S
C485 C486 1.351 . S
C486 H448 0.930 . S
C486 C454 1.423 . S
C486 C485 1.351 . S
C487 O471 1.276 . S
C487 O474 1.235 . S
C488 C489 1.393 . S
C488 C492 1.395 . S
C488 C495 1.492 . S
C489 C488 1.393 . S
C489 C490 1.392 . S
C489 H500 0.930 . S
C490 C489 1.392 . S
C490 C491 1.386 . S
C491 C490 1.386 . S
C491 C493 1.395 . S
C491 H501 0.930 . S
C492 C488 1.395 . S
C492 C493 1.379 . S
C492 H502 0.930 . S
C493 C491 1.395 . S
C493 C492 1.379 . S
C493 H503 0.930 . S
C494 O472 1.264 . S
C494 O473 1.254 . S
C495 Eu431 2.848 . S
C495 O470 1.257 . S
C495 O475 1.249 . S
C495 C488 1.492 . S
H496 C479 0.930 . S
H497 C480 0.930 . S
H498 C481 0.930 . S
H499 C482 0.930 . S
H500 C489 0.930 . S
H501 C491 0.930 . S
H502 C492 0.930 . S
H503 C493 0.930 . S
Eu504 N535 2.657 . S
Eu504 N542 2.609 . S
Eu504 O548 2.558 . S
Eu504 O549 2.612 . S
Eu504 O551 2.339 . S
Eu504 O552 2.563 . S
Eu504 O553 2.419 . S
Eu504 O555 2.380 . S
Eu504 O556 2.432 . S
Eu504 C568 2.848 . S
C505 C508 1.429 . S
C505 C509 1.411 . S
C505 N512 1.377 . S
C506 C508 1.420 . S
C506 C510 1.423 1_455 S
C506 C518 1.392 . S
C507 C509 1.420 1_655 S
C507 C510 1.351 . S
C507 H530 0.931 . S
C508 C505 1.429 . S
C508 C506 1.420 . S
C508 N516 1.362 . S
C509 C505 1.411 . S
C509 C507 1.420 1_455 S
C509 C514 1.395 . S
C510 C506 1.423 1_655 S
C510 C507 1.351 . S
C510 H522 0.930 . S
C511 C513 1.400 . S
C511 C514 1.386 . S
C511 H523 0.930 . S
N512 C505 1.377 . S
N512 C513 1.321 . S
N512 Eu515 2.609 . S
C513 C511 1.400 . S
C513 N512 1.321 . S
C513 H520 0.930 . S
C514 C509 1.395 . S
C514 C511 1.386 . S
C514 H533 0.930 . S
Eu515 N512 2.609 . S
Eu515 N516 2.657 . S
Eu515 O549 2.380 . S
Eu515 O550 2.432 . S
Eu515 O554 2.558 . S
Eu515 O555 2.612 . S
Eu515 O557 2.339 . S
Eu515 O558 2.563 . S
Eu515 O559 2.419 . S
Eu515 C579 2.848 . S
N516 C508 1.362 . S
N516 Eu515 2.657 . S
N516 C517 1.334 . S
C517 N516 1.334 . S
C517 C519 1.413 . S
C517 H524 0.929 . S
C518 C506 1.392 . S
C518 C519 1.367 . S
C518 H526 0.930 1_455 S
C519 C517 1.413 . S
C519 C518 1.367 . S
C519 H521 0.930 . S
H520 C513 0.930 . S
H521 C519 0.930 . S
H522 C510 0.930 . S
H523 C511 0.930 . S
H524 C517 0.929 . S
H525 C539 0.930 . S
H526 C518 0.930 1_655 S
H527 C545 0.930 . S
H528 C536 0.929 . S
H529 C543 0.930 . S
H530 C507 0.931 . S
H531 C537 0.930 . S
H532 C570 0.930 . S
H533 C514 0.930 . S
H534 C569 0.931 . S
N535 Eu504 2.657 . S
N535 C536 1.334 . S
N535 C540 1.362 . S
C536 H528 0.929 . S
C536 N535 1.334 . S
C536 C539 1.413 . S
C537 H531 0.930 . S
C537 C538 1.392 . S
C537 C539 1.367 . S
C538 C537 1.392 . S
C538 C540 1.420 . S
C538 C570 1.423 . S
C539 H525 0.930 . S
C539 C536 1.413 . S
C539 C537 1.367 . S
C540 N535 1.362 . S
C540 C538 1.420 . S
C540 C544 1.429 . S
H541 C546 0.930 . S
N542 Eu504 2.609 . S
N542 C544 1.377 . S
N542 C545 1.321 . S
C543 H529 0.930 . S
C543 C545 1.400 . S
C543 C546 1.386 . S
C544 C540 1.429 . S
C544 N542 1.377 . S
C544 C547 1.411 . S
C545 H527 0.930 . S
C545 N542 1.321 . S
C545 C543 1.400 . S
C546 H541 0.930 . S
C546 C543 1.386 . S
C546 C547 1.395 . S
C547 C544 1.411 . S
C547 C546 1.395 . S
C547 C569 1.420 . S
O548 Eu504 2.558 . S
O548 C568 1.257 . S
O549 Eu504 2.612 . S
O549 Eu515 2.380 . S
O549 C560 1.276 . S
O550 Eu515 2.432 . S
O550 C567 1.264 . S
O551 Eu504 2.339 . S
O551 C567 1.254 . S
O552 Eu504 2.563 . S
O552 C560 1.235 . S
O553 Eu504 2.419 . S
O553 C568 1.249 . S
O554 Eu515 2.558 . S
O554 C579 1.257 . S
O555 Eu504 2.380 . S
O555 Eu515 2.612 . S
O555 C571 1.276 . S
O556 Eu504 2.432 . S
O556 C578 1.264 . S
O557 Eu515 2.339 . S
O557 C578 1.254 . S
O558 Eu515 2.563 . S
O558 C571 1.235 . S
O559 Eu515 2.419 . S
O559 C579 1.249 . S
C560 O549 1.276 . S
C560 O552 1.235 . S
C561 C563 1.393 . S
C561 C565 1.395 . S
C561 C568 1.492 . S
C562 C563 1.392 . S
C562 C564 1.386 . S
C563 C561 1.393 . S
C563 C562 1.392 . S
C563 H580 0.930 . S
C564 C562 1.386 . S
C564 C566 1.395 . S
C564 H581 0.930 . S
C565 C561 1.395 . S
C565 C566 1.379 . S
C565 H582 0.930 . S
C566 C564 1.395 . S
C566 C565 1.379 . S
C566 H583 0.930 . S
C567 O550 1.264 . S
C567 O551 1.254 . S
C568 Eu504 2.848 . S
C568 O548 1.257 . S
C568 O553 1.249 . S
C568 C561 1.492 . S
C569 H534 0.931 . S
C569 C547 1.420 . S
C569 C570 1.351 . S
C570 H532 0.930 . S
C570 C538 1.423 . S
C570 C569 1.351 . S
C571 O555 1.276 . S
C571 O558 1.235 . S
C572 C573 1.393 . S
C572 C576 1.395 . S
C572 C579 1.492 1_655 S
C573 C572 1.393 . S
C573 C574 1.392 . S
C573 H584 0.930 . S
C574 C573 1.392 . S
C574 C575 1.386 . S
C575 C574 1.386 . S
C575 C577 1.395 . S
C575 H585 0.930 . S
C576 C572 1.395 . S
C576 C577 1.379 . S
C576 H586 0.930 . S
C577 C575 1.395 . S
C577 C576 1.379 . S
C577 H587 0.930 . S
C578 O556 1.264 . S
C578 O557 1.254 . S
C579 Eu515 2.848 . S
C579 O554 1.257 . S
C579 O559 1.249 . S
C579 C572 1.492 1_455 S
H580 C563 0.930 . S
H581 C564 0.930 . S
H582 C565 0.930 . S
H583 C566 0.930 . S
H584 C573 0.930 . S
H585 C575 0.930 . S
H586 C576 0.930 . S
H587 C577 0.930 . S
Eu588 N619 2.657 . S
Eu588 N626 2.609 . S
Eu588 O632 2.558 . S
Eu588 O633 2.612 . S
Eu588 O635 2.339 . S
Eu588 O636 2.563 . S
Eu588 O637 2.419 . S
Eu588 O639 2.380 . S
Eu588 O640 2.432 . S
Eu588 C652 2.848 . S
C589 C592 1.429 . S
C589 C593 1.411 . S
C589 N596 1.377 . S
C590 C592 1.420 . S
C590 C594 1.423 . S
C590 C602 1.392 . S
C591 C593 1.420 . S
C591 C594 1.351 . S
C591 H614 0.931 . S
C592 C589 1.429 . S
C592 C590 1.420 . S
C592 N600 1.362 . S
C593 C589 1.411 . S
C593 C591 1.420 . S
C593 C598 1.395 . S
C594 C590 1.423 . S
C594 C591 1.351 . S
C594 H606 0.930 . S
C595 C597 1.400 . S
C595 C598 1.386 . S
C595 H607 0.930 . S
N596 C589 1.377 . S
N596 C597 1.321 . S
N596 Eu599 2.609 . S
C597 C595 1.400 . S
C597 N596 1.321 . S
C597 H604 0.930 . S
C598 C593 1.395 . S
C598 C595 1.386 . S
C598 H617 0.930 . S
Eu599 N596 2.609 . S
Eu599 N600 2.657 . S
Eu599 O633 2.380 . S
Eu599 O634 2.432 . S
Eu599 O638 2.558 . S
Eu599 O639 2.612 . S
Eu599 O641 2.339 . S
Eu599 O642 2.563 . S
Eu599 O643 2.419 . S
Eu599 C663 2.848 . S
N600 C592 1.362 . S
N600 Eu599 2.657 . S
N600 C601 1.334 . S
C601 N600 1.334 . S
C601 C603 1.413 . S
C601 H608 0.929 . S
C602 C590 1.392 . S
C602 C603 1.367 . S
C602 H610 0.930 . S
C603 C601 1.413 . S
C603 C602 1.367 . S
C603 H605 0.930 . S
H604 C597 0.930 . S
H605 C603 0.930 . S
H606 C594 0.930 . S
H607 C595 0.930 . S
H608 C601 0.929 . S
H609 C623 0.930 . S
H610 C602 0.930 . S
H611 C629 0.930 . S
H612 C620 0.929 . S
H613 C627 0.930 . S
H614 C591 0.931 . S
H615 C621 0.930 . S
H616 C654 0.930 . S
H617 C598 0.930 . S
H618 C653 0.931 . S
N619 Eu588 2.657 . S
N619 C620 1.334 . S
N619 C624 1.362 1_565 S
C620 H612 0.929 . S
C620 N619 1.334 . S
C620 C623 1.413 1_565 S
C621 H615 0.930 . S
C621 C622 1.392 . S
C621 C623 1.367 . S
C622 C621 1.392 . S
C622 C624 1.420 . S
C622 C654 1.423 . S
C623 H609 0.930 . S
C623 C620 1.413 1_545 S
C623 C621 1.367 . S
C624 N619 1.362 1_545 S
C624 C622 1.420 . S
C624 C628 1.429 1_545 S
H625 C630 0.930 . S
N626 Eu588 2.609 . S
N626 C628 1.377 . S
N626 C629 1.321 . S
C627 H613 0.930 . S
C627 C629 1.400 . S
C627 C630 1.386 1_565 S
C628 C624 1.429 1_565 S
C628 N626 1.377 . S
C628 C631 1.411 1_565 S
C629 H611 0.930 . S
C629 N626 1.321 . S
C629 C627 1.400 . S
C630 H625 0.930 . S
C630 C627 1.386 1_545 S
C630 C631 1.395 . S
C631 C628 1.411 1_545 S
C631 C630 1.395 . S
C631 C653 1.420 . S
O632 Eu588 2.558 . S
O632 C652 1.257 . S
O633 Eu588 2.612 . S
O633 Eu599 2.380 . S
O633 C644 1.276 . S
O634 Eu599 2.432 . S
O634 C651 1.264 . S
O635 Eu588 2.339 . S
O635 C651 1.254 . S
O636 Eu588 2.563 . S
O636 C644 1.235 . S
O637 Eu588 2.419 . S
O637 C652 1.249 . S
O638 Eu599 2.558 . S
O638 C663 1.257 . S
O639 Eu588 2.380 . S
O639 Eu599 2.612 . S
O639 C655 1.276 . S
O640 Eu588 2.432 . S
O640 C662 1.264 . S
O641 Eu599 2.339 . S
O641 C662 1.254 . S
O642 Eu599 2.563 . S
O642 C655 1.235 . S
O643 Eu599 2.419 . S
O643 C663 1.249 . S
C644 O633 1.276 . S
C644 O636 1.235 . S
C645 C647 1.393 . S
C645 C649 1.395 . S
C645 C652 1.492 . S
C646 C647 1.392 . S
C646 C648 1.386 . S
C647 C645 1.393 . S
C647 C646 1.392 . S
C647 H664 0.930 . S
C648 C646 1.386 . S
C648 C650 1.395 . S
C648 H665 0.930 . S
C649 C645 1.395 . S
C649 C650 1.379 . S
C649 H666 0.930 . S
C650 C648 1.395 . S
C650 C649 1.379 . S
C650 H667 0.930 . S
C651 O634 1.264 . S
C651 O635 1.254 . S
C652 Eu588 2.848 . S
C652 O632 1.257 . S
C652 O637 1.249 . S
C652 C645 1.492 . S
C653 H618 0.931 . S
C653 C631 1.420 . S
C653 C654 1.351 . S
C654 H616 0.930 . S
C654 C622 1.423 . S
C654 C653 1.351 . S
C655 O639 1.276 . S
C655 O642 1.235 . S
C656 C657 1.393 . S
C656 C660 1.395 . S
C656 C663 1.492 . S
C657 C656 1.393 . S
C657 C658 1.392 . S
C657 H668 0.930 . S
C658 C657 1.392 . S
C658 C659 1.386 . S
C659 C658 1.386 . S
C659 C661 1.395 . S
C659 H669 0.930 1_655 S
C660 C656 1.395 . S
C660 C661 1.379 . S
C660 H670 0.930 . S
C661 C659 1.395 . S
C661 C660 1.379 . S
C661 H671 0.930 . S
C662 O640 1.264 . S
C662 O641 1.254 . S
C663 Eu599 2.848 . S
C663 O638 1.257 . S
C663 O643 1.249 . S
C663 C656 1.492 . S
H664 C647 0.930 . S
H665 C648 0.930 . S
H666 C649 0.930 . S
H667 C650 0.930 . S
H668 C657 0.930 . S
H669 C659 0.930 1_455 S
H670 C660 0.930 . S
H671 C661 0.930 . S
Eu672 N703 2.657 . S
Eu672 N710 2.609 . S
Eu672 O716 2.558 . S
Eu672 O717 2.612 . S
Eu672 O719 2.339 . S
Eu672 O720 2.563 . S
Eu672 O721 2.419 . S
Eu672 O723 2.380 . S
Eu672 O724 2.432 . S
Eu672 C736 2.848 . S
C673 C676 1.429 . S
C673 C677 1.411 . S
C673 N680 1.377 1_545 S
C674 C676 1.420 . S
C674 C678 1.423 . S
C674 C686 1.392 . S
C675 C677 1.420 . S
C675 C678 1.351 . S
C675 H698 0.931 . S
C676 C673 1.429 . S
C676 C674 1.420 . S
C676 N684 1.362 1_545 S
C677 C673 1.411 . S
C677 C675 1.420 . S
C677 C682 1.395 . S
C678 C674 1.423 . S
C678 C675 1.351 . S
C678 H690 0.930 . S
C679 C681 1.400 1_545 S
C679 C682 1.386 . S
C679 H691 0.932 1_545 S
N680 C673 1.377 1_565 S
N680 C681 1.321 . S
N680 Eu683 2.609 . S
C681 C679 1.400 1_565 S
C681 N680 1.321 . S
C681 H688 0.930 . S
C682 C677 1.395 . S
C682 C679 1.386 . S
C682 H701 0.930 . S
Eu683 N680 2.609 . S
Eu683 N684 2.657 . S
Eu683 O717 2.380 . S
Eu683 O718 2.432 . S
Eu683 O722 2.558 1_565 S
Eu683 O723 2.612 . S
Eu683 O725 2.339 . S
Eu683 O726 2.563 . S
Eu683 O727 2.419 1_565 S
Eu683 C747 2.848 1_565 S
N684 C676 1.362 1_565 S
N684 Eu683 2.657 . S
N684 C685 1.333 . S
C685 N684 1.333 . S
C685 C687 1.414 1_565 S
C685 H692 0.930 . S
C686 C674 1.392 . S
C686 C687 1.367 . S
C686 H694 0.930 . S
C687 C685 1.414 1_545 S
C687 C686 1.367 . S
C687 H689 0.930 . S
H688 C681 0.930 . S
H689 C687 0.930 . S
H690 C678 0.930 . S
H691 C679 0.932 1_565 S
H692 C685 0.930 . S
H693 C707 0.930 . S
H694 C686 0.930 . S
H695 C713 0.930 . S
H696 C704 0.929 . S
H697 C711 0.930 . S
H698 C675 0.931 . S
H699 C705 0.930 . S
H700 C738 0.930 . S
H701 C682 0.930 . S
H702 C737 0.931 . S
N703 Eu672 2.657 . S
N703 C704 1.334 . S
N703 C708 1.362 . S
C704 H696 0.929 . S
C704 N703 1.334 . S
C704 C707 1.413 . S
C705 H699 0.930 . S
C705 C706 1.392 . S
C705 C707 1.367 1_655 S
C706 C705 1.392 . S
C706 C708 1.420 1_655 S
C706 C738 1.423 . S
C707 H693 0.930 . S
C707 C704 1.413 . S
C707 C705 1.367 1_455 S
C708 N703 1.362 . S
C708 C706 1.420 1_455 S
C708 C712 1.429 . S
H709 C714 0.930 . S
N710 Eu672 2.609 . S
N710 C712 1.377 . S
N710 C713 1.321 . S
C711 H697 0.930 . S
C711 C713 1.400 . S
C711 C714 1.386 . S
C712 C708 1.429 . S
C712 N710 1.377 . S
C712 C715 1.411 . S
C713 H695 0.930 . S
C713 N710 1.321 . S
C713 C711 1.400 . S
C714 H709 0.930 . S
C714 C711 1.386 . S
C714 C715 1.395 . S
C715 C712 1.411 . S
C715 C714 1.395 . S
C715 C737 1.420 1_455 S
O716 Eu672 2.558 . S
O716 C736 1.257 . S
O717 Eu672 2.612 . S
O717 Eu683 2.380 . S
O717 C728 1.276 . S
O718 Eu683 2.432 . S
O718 C735 1.264 . S
O719 Eu672 2.339 . S
O719 C735 1.254 . S
O720 Eu672 2.563 . S
O720 C728 1.235 . S
O721 Eu672 2.419 . S
O721 C736 1.249 . S
O722 Eu683 2.558 1_545 S
O722 C747 1.257 . S
O723 Eu672 2.380 . S
O723 Eu683 2.612 . S
O723 C739 1.276 . S
O724 Eu672 2.432 . S
O724 C746 1.264 . S
O725 Eu683 2.339 . S
O725 C746 1.254 . S
O726 Eu683 2.563 . S
O726 C739 1.235 . S
O727 Eu683 2.419 1_545 S
O727 C747 1.249 . S
C728 O717 1.276 . S
C728 O720 1.235 . S
C729 C731 1.393 . S
C729 C733 1.395 . S
C729 C736 1.492 . S
C730 C731 1.392 . S
C730 C732 1.386 . S
C731 C729 1.393 . S
C731 C730 1.392 . S
C731 H748 0.930 . S
C732 C730 1.386 . S
C732 C734 1.395 . S
C732 H749 0.930 . S
C733 C729 1.395 . S
C733 C734 1.379 . S
C733 H750 0.930 . S
C734 C732 1.395 . S
C734 C733 1.379 . S
C734 H751 0.930 . S
C735 O718 1.264 . S
C735 O719 1.254 . S
C736 Eu672 2.848 . S
C736 O716 1.257 . S
C736 O721 1.249 . S
C736 C729 1.492 . S
C737 H702 0.931 . S
C737 C715 1.420 1_655 S
C737 C738 1.351 . S
C738 H700 0.930 . S
C738 C706 1.423 . S
C738 C737 1.351 . S
C739 O723 1.276 . S
C739 O726 1.235 . S
C740 C741 1.393 . S
C740 C744 1.395 . S
C740 C747 1.492 . S
C741 C740 1.393 . S
C741 C742 1.392 . S
C741 H752 0.930 . S
C742 C741 1.392 . S
C742 C743 1.386 . S
C743 C742 1.386 . S
C743 C745 1.395 . S
C743 H753 0.930 . S
C744 C740 1.395 . S
C744 C745 1.379 . S
C744 H754 0.930 . S
C745 C743 1.395 . S
C745 C744 1.379 . S
C745 H755 0.930 . S
C746 O724 1.264 . S
C746 O725 1.254 . S
C747 Eu683 2.848 1_545 S
C747 O722 1.257 . S
C747 O727 1.249 . S
C747 C740 1.492 . S
H748 C731 0.930 . S
H749 C732 0.930 . S
H750 C733 0.930 . S
H751 C734 0.930 . S
H752 C741 0.930 . S
H753 C743 0.930 . S
H754 C744 0.930 . S
H755 C745 0.930 . S
Eu756 N787 2.657 . S
Eu756 N794 2.609 . S
Eu756 O800 2.558 . S
Eu756 O801 2.612 . S
Eu756 O803 2.339 . S
Eu756 O804 2.563 . S
Eu756 O805 2.419 . S
Eu756 O807 2.380 . S
Eu756 O808 2.432 . S
Eu756 C820 2.848 . S
C757 C760 1.429 . S
C757 C761 1.411 . S
C757 N764 1.377 . S
C758 C760 1.420 . S
C758 C762 1.423 . S
C758 C770 1.392 . S
C759 C761 1.420 . S
C759 C762 1.351 . S
C759 H782 0.931 . S
C760 C757 1.429 . S
C760 C758 1.420 . S
C760 N768 1.362 . S
C761 C757 1.411 . S
C761 C759 1.420 . S
C761 C766 1.395 . S
C762 C758 1.423 . S
C762 C759 1.351 . S
C762 H774 0.930 . S
C763 C765 1.400 . S
C763 C766 1.386 . S
C763 H775 0.930 . S
N764 C757 1.377 . S
N764 C765 1.321 . S
N764 Eu767 2.609 . S
C765 C763 1.400 . S
C765 N764 1.321 . S
C765 H772 0.930 . S
C766 C761 1.395 . S
C766 C763 1.386 . S
C766 H785 0.930 . S
Eu767 N764 2.609 . S
Eu767 N768 2.657 . S
Eu767 O801 2.380 . S
Eu767 O802 2.432 . S
Eu767 O806 2.558 . S
Eu767 O807 2.612 . S
Eu767 O809 2.339 . S
Eu767 O810 2.563 . S
Eu767 O811 2.419 . S
Eu767 C831 2.848 . S
N768 C760 1.362 . S
N768 Eu767 2.657 . S
N768 C769 1.334 . S
C769 N768 1.334 . S
C769 C771 1.413 . S
C769 H776 0.929 . S
C770 C758 1.392 . S
C770 C771 1.367 . S
C770 H778 0.930 . S
C771 C769 1.413 . S
C771 C770 1.367 . S
C771 H773 0.930 . S
H772 C765 0.930 . S
H773 C771 0.930 . S
H774 C762 0.930 . S
H775 C763 0.930 . S
H776 C769 0.929 . S
H777 C791 0.930 . S
H778 C770 0.930 . S
H779 C797 0.930 . S
H780 C788 0.929 . S
H781 C795 0.930 . S
H782 C759 0.931 . S
H783 C789 0.930 . S
H784 C822 0.930 . S
H785 C766 0.930 . S
H786 C821 0.931 . S
N787 Eu756 2.657 . S
N787 C788 1.334 . S
N787 C792 1.362 . S
C788 H780 0.929 . S
C788 N787 1.334 . S
C788 C791 1.413 . S
C789 H783 0.930 . S
C789 C790 1.390 1_545 S
C789 C791 1.367 1_545 S
C790 C789 1.390 1_565 S
C790 C792 1.428 . S
C790 C822 1.417 1_565 S
C791 H777 0.930 . S
C791 C788 1.413 . S
C791 C789 1.367 1_565 S
C792 N787 1.362 . S
C792 C790 1.428 . S
C792 C796 1.429 . S
H793 C798 0.930 1_545 S
N794 Eu756 2.609 . S
N794 C796 1.377 . S
N794 C797 1.321 . S
C795 H781 0.930 . S
C795 C797 1.400 . S
C795 C798 1.386 . S
C796 C792 1.429 . S
C796 N794 1.377 . S
C796 C799 1.411 . S
C797 H779 0.930 . S
C797 N794 1.321 . S
C797 C795 1.400 . S
C798 H793 0.930 1_565 S
C798 C795 1.386 . S
C798 C799 1.395 . S
C799 C796 1.411 . S
C799 C798 1.395 . S
C799 C821 1.420 1_565 S
O800 Eu756 2.558 . S
O800 C820 1.257 . S
O801 Eu756 2.612 . S
O801 Eu767 2.380 . S
O801 C812 1.276 . S
O802 Eu767 2.432 . S
O802 C819 1.264 . S
O803 Eu756 2.339 . S
O803 C819 1.254 . S
O804 Eu756 2.563 . S
O804 C812 1.235 . S
O805 Eu756 2.419 . S
O805 C820 1.249 . S
O806 Eu767 2.558 . S
O806 C831 1.257 . S
O807 Eu756 2.380 . S
O807 Eu767 2.612 . S
O807 C823 1.276 . S
O808 Eu756 2.432 . S
O808 C830 1.264 . S
O809 Eu767 2.339 . S
O809 C830 1.254 . S
O810 Eu767 2.563 . S
O810 C823 1.235 . S
O811 Eu767 2.419 . S
O811 C831 1.249 . S
C812 O801 1.276 . S
C812 O804 1.235 . S
C813 C815 1.393 . S
C813 C817 1.395 . S
C813 C820 1.492 1_545 S
C814 C815 1.392 . S
C814 C816 1.386 . S
C815 C813 1.393 . S
C815 C814 1.392 . S
C815 H832 0.930 . S
C816 C814 1.386 . S
C816 C818 1.395 . S
C816 H833 0.930 . S
C817 C813 1.395 . S
C817 C818 1.379 . S
C817 H834 0.930 . S
C818 C816 1.395 . S
C818 C817 1.379 . S
C818 H835 0.930 . S
C819 O802 1.264 . S
C819 O803 1.254 . S
C820 Eu756 2.848 . S
C820 O800 1.257 . S
C820 O805 1.249 . S
C820 C813 1.492 1_565 S
C821 H786 0.931 . S
C821 C799 1.420 1_545 S
C821 C822 1.351 . S
C822 H784 0.930 . S
C822 C790 1.417 1_545 S
C822 C821 1.351 . S
C823 O807 1.276 . S
C823 O810 1.235 . S
C824 C825 1.393 . S
C824 C828 1.395 . S
C824 C831 1.492 . S
C825 C824 1.393 . S
C825 C826 1.392 . S
C825 H836 0.930 . S
C826 C825 1.392 . S
C826 C827 1.386 . S
C827 C826 1.386 . S
C827 C829 1.395 . S
C827 H837 0.930 . S
C828 C824 1.395 . S
C828 C829 1.379 . S
C828 H838 0.930 . S
C829 C827 1.395 . S
C829 C828 1.379 . S
C829 H839 0.930 . S
C830 O808 1.264 . S
C830 O809 1.254 . S
C831 Eu767 2.848 . S
C831 O806 1.257 . S
C831 O811 1.249 . S
C831 C824 1.492 . S
H832 C815 0.930 . S
H833 C816 0.930 . S
H834 C817 0.930 . S
H835 C818 0.930 . S
H836 C825 0.930 . S
H837 C827 0.930 . S
H838 C828 0.930 . S
H839 C829 0.930 . S
Eu840 N871 2.657 . S
Eu840 N878 2.609 . S
Eu840 O884 2.558 . S
Eu840 O885 2.612 . S
Eu840 O887 2.339 . S
Eu840 O888 2.563 . S
Eu840 O889 2.419 . S
Eu840 O891 2.380 . S
Eu840 O892 2.432 . S
Eu840 C904 2.848 . S
C841 C844 1.429 . S
C841 C845 1.411 . S
C841 N848 1.377 1_545 S
C842 C844 1.420 . S
C842 C846 1.423 . S
C842 C854 1.392 . S
C843 C845 1.420 . S
C843 C846 1.351 . S
C843 H866 0.931 . S
C844 C841 1.429 . S
C844 C842 1.420 . S
C844 N852 1.362 1_545 S
C845 C841 1.411 . S
C845 C843 1.420 . S
C845 C850 1.395 . S
C846 C842 1.423 . S
C846 C843 1.351 . S
C846 H858 0.930 . S
C847 C849 1.400 . S
C847 C850 1.386 1_565 S
C847 H859 0.930 . S
N848 C841 1.377 1_565 S
N848 C849 1.321 . S
N848 Eu851 2.609 . S
C849 C847 1.400 . S
C849 N848 1.321 . S
C849 H856 0.930 . S
C850 C845 1.395 . S
C850 C847 1.386 1_545 S
C850 H869 0.930 . S
Eu851 N848 2.609 . S
Eu851 N852 2.657 . S
Eu851 O885 2.380 . S
Eu851 O886 2.432 . S
Eu851 O890 2.558 . S
Eu851 O891 2.612 . S
Eu851 O893 2.339 . S
Eu851 O894 2.563 . S
Eu851 O895 2.419 . S
Eu851 C915 2.848 . S
N852 C844 1.362 1_565 S
N852 Eu851 2.657 . S
N852 C853 1.334 1_565 S
C853 N852 1.334 1_545 S
C853 C855 1.413 . S
C853 H860 0.929 1_545 S
C854 C842 1.392 . S
C854 C855 1.367 . S
C854 H862 0.930 . S
C855 C853 1.413 . S
C855 C854 1.367 . S
C855 H857 0.930 . S
H856 C849 0.930 . S
H857 C855 0.930 . S
H858 C846 0.930 . S
H859 C847 0.930 . S
H860 C853 0.929 1_565 S
H861 C875 0.930 . S
H862 C854 0.930 . S
H863 C881 0.930 . S
H864 C872 0.929 . S
H865 C879 0.930 . S
H866 C843 0.931 . S
H867 C873 0.930 . S
H868 C906 0.930 . S
H869 C850 0.930 . S
H870 C905 0.931 . S
N871 Eu840 2.657 . S
N871 C872 1.334 . S
N871 C876 1.362 . S
C872 H864 0.929 . S
C872 N871 1.334 . S
C872 C875 1.413 . S
C873 H867 0.930 . S
C873 C874 1.392 . S
C873 C875 1.367 . S
C874 C873 1.392 . S
C874 C876 1.420 . S
C874 C906 1.423 . S
C875 H861 0.930 . S
C875 C872 1.413 . S
C875 C873 1.367 . S
C876 N871 1.362 . S
C876 C874 1.420 . S
C876 C880 1.429 . S
H877 C882 0.930 . S
N878 Eu840 2.609 . S
N878 C880 1.377 . S
N878 C881 1.321 . S
C879 H865 0.930 . S
C879 C881 1.400 . S
C879 C882 1.386 . S
C880 C876 1.429 . S
C880 N878 1.377 . S
C880 C883 1.411 . S
C881 H863 0.930 . S
C881 N878 1.321 . S
C881 C879 1.400 . S
C882 H877 0.930 . S
C882 C879 1.386 . S
C882 C883 1.395 . S
C883 C880 1.411 . S
C883 C882 1.395 . S
C883 C905 1.420 . S
O884 Eu840 2.558 . S
O884 C904 1.257 . S
O885 Eu840 2.612 . S
O885 Eu851 2.380 . S
O885 C896 1.276 . S
O886 Eu851 2.432 . S
O886 C903 1.264 . S
O887 Eu840 2.339 . S
O887 C903 1.254 . S
O888 Eu840 2.563 . S
O888 C896 1.235 . S
O889 Eu840 2.419 . S
O889 C904 1.249 . S
O890 Eu851 2.558 . S
O890 C915 1.257 . S
O891 Eu840 2.380 . S
O891 Eu851 2.612 . S
O891 C907 1.276 . S
O892 Eu840 2.432 . S
O892 C914 1.264 . S
O893 Eu851 2.339 . S
O893 C914 1.254 . S
O894 Eu851 2.563 . S
O894 C907 1.235 . S
O895 Eu851 2.419 . S
O895 C915 1.249 . S
C896 O885 1.276 . S
C896 O888 1.235 . S
C897 C899 1.393 1_455 S
C897 C901 1.395 1_455 S
C897 C904 1.492 . S
C898 C899 1.392 . S
C898 C900 1.386 . S
C899 C897 1.393 1_655 S
C899 C898 1.392 . S
C899 H916 0.930 1_655 S
C900 C898 1.386 . S
C900 C902 1.395 . S
C900 H917 0.930 . S
C901 C897 1.395 1_655 S
C901 C902 1.379 . S
C901 H918 0.930 1_655 S
C902 C900 1.395 . S
C902 C901 1.379 . S
C902 H919 0.930 . S
C903 O886 1.264 . S
C903 O887 1.254 . S
C904 Eu840 2.848 . S
C904 O884 1.257 . S
C904 O889 1.249 . S
C904 C897 1.492 . S
C905 H870 0.931 . S
C905 C883 1.420 . S
C905 C906 1.351 . S
C906 H868 0.930 . S
C906 C874 1.423 . S
C906 C905 1.351 . S
C907 O891 1.276 . S
C907 O894 1.235 . S
C908 C909 1.393 . S
C908 C912 1.395 . S
C908 C915 1.492 . S
C909 C908 1.393 . S
C909 C910 1.392 . S
C909 H920 0.930 . S
C910 C909 1.392 . S
C910 C911 1.386 . S
C911 C910 1.386 . S
C911 C913 1.395 . S
C911 H921 0.930 . S
C912 C908 1.395 . S
C912 C913 1.379 . S
C912 H922 0.930 . S
C913 C911 1.395 . S
C913 C912 1.379 . S
C913 H923 0.930 . S
C914 O892 1.264 . S
C914 O893 1.254 . S
C915 Eu851 2.848 . S
C915 O890 1.257 . S
C915 O895 1.249 . S
C915 C908 1.492 . S
H916 C899 0.930 1_455 S
H917 C900 0.930 . S
H918 C901 0.930 1_455 S
H919 C902 0.930 . S
H920 C909 0.930 . S
H921 C911 0.930 . S
H922 C912 0.930 . S
H923 C913 0.930 . S
Eu924 N955 2.657 . S
Eu924 N962 2.609 . S
Eu924 O968 2.558 . S
Eu924 O969 2.612 . S
Eu924 O971 2.339 . S
Eu924 O972 2.563 . S
Eu924 O973 2.419 . S
Eu924 O975 2.380 . S
Eu924 O976 2.432 . S
Eu924 C988 2.848 . S
C925 C928 1.429 . S
C925 C929 1.411 . S
C925 N932 1.377 . S
C926 C928 1.420 1_655 S
C926 C930 1.423 . S
C926 C938 1.392 . S
C927 C929 1.420 1_655 S
C927 C930 1.351 . S
C927 H950 0.931 . S
C928 C925 1.429 . S
C928 C926 1.420 1_455 S
C928 N936 1.362 . S
C929 C925 1.411 . S
C929 C927 1.420 1_455 S
C929 C934 1.395 . S
C930 C926 1.423 . S
C930 C927 1.351 . S
C930 H942 0.930 . S
C931 C933 1.400 . S
C931 C934 1.386 . S
C931 H943 0.930 . S
N932 C925 1.377 . S
N932 C933 1.321 . S
N932 Eu935 2.609 . S
C933 C931 1.400 . S
C933 N932 1.321 . S
C933 H940 0.930 . S
C934 C929 1.395 . S
C934 C931 1.386 . S
C934 H953 0.930 . S
Eu935 N932 2.609 . S
Eu935 N936 2.657 . S
Eu935 O969 2.380 . S
Eu935 O970 2.432 . S
Eu935 O974 2.558 . S
Eu935 O975 2.612 . S
Eu935 O977 2.339 . S
Eu935 O978 2.563 . S
Eu935 O979 2.419 . S
Eu935 C999 2.848 . S
N936 C928 1.362 . S
N936 Eu935 2.657 . S
N936 C937 1.334 . S
C937 N936 1.334 . S
C937 C939 1.413 . S
C937 H944 0.929 . S
C938 C926 1.392 . S
C938 C939 1.367 1_655 S
C938 H946 0.930 . S
C939 C937 1.413 . S
C939 C938 1.367 1_455 S
C939 H941 0.930 1_455 S
H940 C933 0.930 . S
H941 C939 0.930 1_655 S
H942 C930 0.930 . S
H943 C931 0.930 . S
H944 C937 0.929 . S
H945 C959 0.930 . S
H946 C938 0.930 . S
H947 C965 0.930 . S
H948 C956 0.929 . S
H949 C963 0.930 . S
H950 C927 0.931 . S
H951 C957 0.930 . S
H952 C990 0.930 . S
H953 C934 0.930 . S
H954 C989 0.931 . S
N955 Eu924 2.657 . S
N955 C956 1.334 . S
N955 C960 1.362 . S
C956 H948 0.929 . S
C956 N955 1.334 . S
C956 C959 1.413 . S
C957 H951 0.930 . S
C957 C958 1.392 . S
C957 C959 1.367 . S
C958 C957 1.392 . S
C958 C960 1.420 . S
C958 C990 1.423 . S
C959 H945 0.930 . S
C959 C956 1.413 . S
C959 C957 1.367 . S
C960 N955 1.362 . S
C960 C958 1.420 . S
C960 C964 1.429 . S
H961 C966 0.930 . S
N962 Eu924 2.609 . S
N962 C964 1.377 . S
N962 C965 1.321 . S
C963 H949 0.930 . S
C963 C965 1.400 . S
C963 C966 1.386 . S
C964 C960 1.429 . S
C964 N962 1.377 . S
C964 C967 1.411 . S
C965 H947 0.930 . S
C965 N962 1.321 . S
C965 C963 1.400 . S
C966 H961 0.930 . S
C966 C963 1.386 . S
C966 C967 1.395 . S
C967 C964 1.411 . S
C967 C966 1.395 . S
C967 C989 1.420 . S
O968 Eu924 2.558 . S
O968 C988 1.257 . S
O969 Eu924 2.612 . S
O969 Eu935 2.380 . S
O969 C980 1.276 . S
O970 Eu935 2.432 . S
O970 C987 1.264 . S
O971 Eu924 2.339 . S
O971 C987 1.254 . S
O972 Eu924 2.563 . S
O972 C980 1.235 . S
O973 Eu924 2.419 . S
O973 C988 1.249 . S
O974 Eu935 2.558 . S
O974 C999 1.257 . S
O975 Eu924 2.380 . S
O975 Eu935 2.612 . S
O975 C991 1.276 . S
O976 Eu924 2.432 . S
O976 C998 1.264 . S
O977 Eu935 2.339 . S
O977 C998 1.254 . S
O978 Eu935 2.563 . S
O978 C991 1.235 . S
O979 Eu935 2.419 . S
O979 C999 1.249 . S
C980 O969 1.276 . S
C980 O972 1.235 . S
C981 C983 1.393 . S
C981 C985 1.395 . S
C981 C988 1.492 . S
C982 C983 1.392 . S
C982 C984 1.386 . S
C983 C981 1.393 . S
C983 C982 1.392 . S
C983 H1000 0.930 . S
C984 C982 1.386 . S
C984 C986 1.395 . S
C984 H1001 0.930 . S
C985 C981 1.395 . S
C985 C986 1.379 . S
C985 H1002 0.930 . S
C986 C984 1.395 . S
C986 C985 1.379 . S
C986 H1003 0.930 . S
C987 O970 1.264 . S
C987 O971 1.254 . S
C988 Eu924 2.848 . S
C988 O968 1.257 . S
C988 O973 1.249 . S
C988 C981 1.492 . S
C989 H954 0.931 . S
C989 C967 1.420 . S
C989 C990 1.351 . S
C990 H952 0.930 . S
C990 C958 1.423 . S
C990 C989 1.351 . S
C991 O975 1.276 . S
C991 O978 1.235 . S
C992 C993 1.393 . S
C992 C996 1.395 . S
C992 C999 1.492 . S
C993 C992 1.393 . S
C993 C994 1.392 . S
C993 H1004 0.930 . S
C994 C993 1.392 . S
C994 C995 1.386 . S
C995 C994 1.386 . S
C995 C997 1.395 . S
C995 H1005 0.930 . S
C996 C992 1.395 . S
C996 C997 1.379 . S
C996 H1006 0.930 . S
C997 C995 1.395 . S
C997 C996 1.379 . S
C997 H1007 0.930 . S
C998 O976 1.264 . S
C998 O977 1.254 . S
C999 Eu935 2.848 . S
C999 O974 1.257 . S
C999 O979 1.249 . S
C999 C992 1.492 . S
H1000 C983 0.930 . S
H1001 C984 0.930 . S
H1002 C985 0.930 . S
H1003 C986 0.930 . S
H1004 C993 0.930 . S
H1005 C995 0.930 . S
H1006 C996 0.930 . S
H1007 C997 0.930 . S
Eu1008 N1039 2.657 . S
Eu1008 N1046 2.609 . S
Eu1008 O1052 2.558 . S
Eu1008 O1053 2.612 . S
Eu1008 O1055 2.339 . S
Eu1008 O1056 2.563 . S
Eu1008 O1057 2.419 . S
Eu1008 O1059 2.380 . S
Eu1008 O1060 2.432 . S
Eu1008 C1072 2.848 . S
C1009 C1012 1.429 . S
C1009 C1013 1.411 . S
C1009 N1016 1.377 . S
C1010 C1012 1.420 . S
C1010 C1014 1.423 . S
C1010 C1022 1.392 . S
C1011 C1013 1.420 . S
C1011 C1014 1.351 . S
C1011 H1034 0.931 . S
C1012 C1009 1.429 . S
C1012 C1010 1.420 . S
C1012 N1020 1.362 . S
C1013 C1009 1.411 . S
C1013 C1011 1.420 . S
C1013 C1018 1.395 . S
C1014 C1010 1.423 . S
C1014 C1011 1.351 . S
C1014 H1026 0.930 . S
C1015 C1017 1.400 . S
C1015 C1018 1.386 . S
C1015 H1027 0.930 . S
N1016 C1009 1.377 . S
N1016 C1017 1.321 . S
N1016 Eu1019 2.609 . S
C1017 C1015 1.400 . S
C1017 N1016 1.321 . S
C1017 H1024 0.930 . S
C1018 C1013 1.395 . S
C1018 C1015 1.386 . S
C1018 H1037 0.930 . S
Eu1019 N1016 2.609 . S
Eu1019 N1020 2.657 . S
Eu1019 O1053 2.380 . S
Eu1019 O1054 2.432 . S
Eu1019 O1058 2.558 . S
Eu1019 O1059 2.612 . S
Eu1019 O1061 2.339 . S
Eu1019 O1062 2.563 . S
Eu1019 O1063 2.419 . S
Eu1019 C1083 2.848 . S
N1020 C1012 1.362 . S
N1020 Eu1019 2.657 . S
N1020 C1021 1.334 . S
C1021 N1020 1.334 . S
C1021 C1023 1.413 . S
C1021 H1028 0.929 . S
C1022 C1010 1.392 . S
C1022 C1023 1.367 . S
C1022 H1030 0.930 . S
C1023 C1021 1.413 . S
C1023 C1022 1.367 . S
C1023 H1025 0.930 . S
H1024 C1017 0.930 . S
H1025 C1023 0.930 . S
H1026 C1014 0.930 . S
H1027 C1015 0.930 . S
H1028 C1021 0.929 . S
H1029 C1043 0.930 . S
H1030 C1022 0.930 . S
H1031 C1049 0.930 . S
H1032 C1040 0.929 . S
H1033 C1047 0.930 . S
H1034 C1011 0.931 . S
H1035 C1041 0.930 . S
H1036 C1074 0.930 . S
H1037 C1018 0.930 . S
H1038 C1073 0.931 . S
N1039 Eu1008 2.657 . S
N1039 C1040 1.334 . S
N1039 C1044 1.362 . S
C1040 H1032 0.929 . S
C1040 N1039 1.334 . S
C1040 C1043 1.413 . S
C1041 H1035 0.930 . S
C1041 C1042 1.390 1_455 S
C1041 C1043 1.367 1_455 S
C1042 C1041 1.390 1_655 S
C1042 C1044 1.428 . S
C1042 C1074 1.417 1_655 S
C1043 H1029 0.930 . S
C1043 C1040 1.413 . S
C1043 C1041 1.367 1_655 S
C1044 N1039 1.362 . S
C1044 C1042 1.428 . S
C1044 C1048 1.429 . S
H1045 C1050 0.930 1_455 S
N1046 Eu1008 2.609 . S
N1046 C1048 1.377 . S
N1046 C1049 1.321 . S
C1047 H1033 0.930 . S
C1047 C1049 1.400 . S
C1047 C1050 1.386 . S
C1048 C1044 1.429 . S
C1048 N1046 1.377 . S
C1048 C1051 1.411 . S
C1049 H1031 0.930 . S
C1049 N1046 1.321 . S
C1049 C1047 1.400 . S
C1050 H1045 0.930 1_655 S
C1050 C1047 1.386 . S
C1050 C1051 1.395 . S
C1051 C1048 1.411 . S
C1051 C1050 1.395 . S
C1051 C1073 1.420 1_655 S
O1052 Eu1008 2.558 . S
O1052 C1072 1.257 . S
O1053 Eu1008 2.612 . S
O1053 Eu1019 2.380 . S
O1053 C1064 1.276 . S
O1054 Eu1019 2.432 . S
O1054 C1071 1.264 . S
O1055 Eu1008 2.339 . S
O1055 C1071 1.254 . S
O1056 Eu1008 2.563 . S
O1056 C1064 1.235 . S
O1057 Eu1008 2.419 . S
O1057 C1072 1.249 . S
O1058 Eu1019 2.558 . S
O1058 C1083 1.257 . S
O1059 Eu1008 2.380 . S
O1059 Eu1019 2.612 . S
O1059 C1075 1.276 . S
O1060 Eu1008 2.432 . S
O1060 C1082 1.264 . S
O1061 Eu1019 2.339 . S
O1061 C1082 1.254 . S
O1062 Eu1019 2.563 . S
O1062 C1075 1.235 . S
O1063 Eu1019 2.419 . S
O1063 C1083 1.249 . S
C1064 O1053 1.276 . S
C1064 O1056 1.235 . S
C1065 C1067 1.393 . S
C1065 C1069 1.395 . S
C1065 C1072 1.492 1_455 S
C1066 C1067 1.392 . S
C1066 C1068 1.386 . S
C1067 C1065 1.393 . S
C1067 C1066 1.392 . S
C1067 H1084 0.930 . S
C1068 C1066 1.386 . S
C1068 C1070 1.395 . S
C1068 H1085 0.930 . S
C1069 C1065 1.395 . S
C1069 C1070 1.379 . S
C1069 H1086 0.930 . S
C1070 C1068 1.395 . S
C1070 C1069 1.379 . S
C1070 H1087 0.930 . S
C1071 O1054 1.264 . S
C1071 O1055 1.254 . S
C1072 Eu1008 2.848 . S
C1072 O1052 1.257 . S
C1072 O1057 1.249 . S
C1072 C1065 1.492 1_655 S
C1073 H1038 0.931 . S
C1073 C1051 1.420 1_455 S
C1073 C1074 1.351 . S
C1074 H1036 0.930 . S
C1074 C1042 1.417 1_455 S
C1074 C1073 1.351 . S
C1075 O1059 1.276 . S
C1075 O1062 1.235 . S
C1076 C1077 1.393 . S
C1076 C1080 1.395 . S
C1076 C1083 1.492 . S
C1077 C1076 1.393 . S
C1077 C1078 1.392 . S
C1077 H1088 0.930 . S
C1078 C1077 1.392 . S
C1078 C1079 1.386 . S
C1079 C1078 1.386 . S
C1079 C1081 1.395 . S
C1079 H1089 0.930 . S
C1080 C1076 1.395 . S
C1080 C1081 1.379 . S
C1080 H1090 0.930 . S
C1081 C1079 1.395 . S
C1081 C1080 1.379 . S
C1081 H1091 0.930 . S
C1082 O1060 1.264 . S
C1082 O1061 1.254 . S
C1083 Eu1019 2.848 . S
C1083 O1058 1.257 . S
C1083 O1063 1.249 . S
C1083 C1076 1.492 . S
H1084 C1067 0.930 . S
H1085 C1068 0.930 . S
H1086 C1069 0.930 . S
H1087 C1070 0.930 . S
H1088 C1077 0.930 . S
H1089 C1079 0.930 . S
H1090 C1080 0.930 . S
H1091 C1081 0.930 . S
Eu1092 N1123 2.657 . S
Eu1092 N1130 2.609 . S
Eu1092 O1136 2.558 . S
Eu1092 O1137 2.612 . S
Eu1092 O1139 2.339 . S
Eu1092 O1140 2.563 . S
Eu1092 O1141 2.419 . S
Eu1092 O1143 2.380 . S
Eu1092 O1144 2.432 . S
Eu1092 C1156 2.848 . S
C1093 C1096 1.429 . S
C1093 C1097 1.411 . S
C1093 N1100 1.377 . S
C1094 C1096 1.420 1_565 S
C1094 C1098 1.423 . S
C1094 C1106 1.392 . S
C1095 C1097 1.420 1_565 S
C1095 C1098 1.351 . S
C1095 H1118 0.931 . S
C1096 C1093 1.429 . S
C1096 C1094 1.420 1_545 S
C1096 N1104 1.362 . S
C1097 C1093 1.411 . S
C1097 C1095 1.420 1_545 S
C1097 C1102 1.395 . S
C1098 C1094 1.423 . S
C1098 C1095 1.351 . S
C1098 H1110 0.930 . S
C1099 C1101 1.400 . S
C1099 C1102 1.386 . S
C1099 H1111 0.930 . S
N1100 C1093 1.377 . S
N1100 C1101 1.321 . S
N1100 Eu1103 2.609 . S
C1101 C1099 1.400 . S
C1101 N1100 1.321 . S
C1101 H1108 0.930 . S
C1102 C1097 1.395 . S
C1102 C1099 1.386 . S
C1102 H1121 0.930 . S
Eu1103 N1100 2.609 . S
Eu1103 N1104 2.657 . S
Eu1103 O1137 2.380 . S
Eu1103 O1138 2.432 . S
Eu1103 O1142 2.558 . S
Eu1103 O1143 2.612 . S
Eu1103 O1145 2.339 . S
Eu1103 O1146 2.563 . S
Eu1103 O1147 2.419 . S
Eu1103 C1167 2.848 . S
N1104 C1096 1.362 . S
N1104 Eu1103 2.657 . S
N1104 C1105 1.334 . S
C1105 N1104 1.334 . S
C1105 C1107 1.413 . S
C1105 H1112 0.929 . S
C1106 C1094 1.392 . S
C1106 C1107 1.367 1_565 S
C1106 H1114 0.930 . S
C1107 C1105 1.413 . S
C1107 C1106 1.367 1_545 S
C1107 H1109 0.930 1_545 S
H1108 C1101 0.930 . S
H1109 C1107 0.930 1_565 S
H1110 C1098 0.930 . S
H1111 C1099 0.930 . S
H1112 C1105 0.929 . S
H1113 C1127 0.930 . S
H1114 C1106 0.930 . S
H1115 C1133 0.930 . S
H1116 C1124 0.929 . S
H1117 C1131 0.930 . S
H1118 C1095 0.931 . S
H1119 C1125 0.930 . S
H1120 C1158 0.930 . S
H1121 C1102 0.930 . S
H1122 C1157 0.931 . S
N1123 Eu1092 2.657 . S
N1123 C1124 1.334 . S
N1123 C1128 1.362 . S
C1124 H1116 0.929 . S
C1124 N1123 1.334 . S
C1124 C1127 1.413 . S
C1125 H1119 0.930 . S
C1125 C1126 1.392 . S
C1125 C1127 1.367 . S
C1126 C1125 1.392 . S
C1126 C1128 1.420 . S
C1126 C1158 1.423 . S
C1127 H1113 0.930 . S
C1127 C1124 1.413 . S
C1127 C1125 1.367 . S
C1128 N1123 1.362 . S
C1128 C1126 1.420 . S
C1128 C1132 1.429 . S
H1129 C1134 0.930 . S
N1130 Eu1092 2.609 . S
N1130 C1132 1.377 . S
N1130 C1133 1.321 . S
C1131 H1117 0.930 . S
C1131 C1133 1.400 . S
C1131 C1134 1.386 . S
C1132 C1128 1.429 . S
C1132 N1130 1.377 . S
C1132 C1135 1.411 . S
C1133 H1115 0.930 . S
C1133 N1130 1.321 . S
C1133 C1131 1.400 . S
C1134 H1129 0.930 . S
C1134 C1131 1.386 . S
C1134 C1135 1.395 . S
C1135 C1132 1.411 . S
C1135 C1134 1.395 . S
C1135 C1157 1.420 . S
O1136 Eu1092 2.558 . S
O1136 C1156 1.257 . S
O1137 Eu1092 2.612 . S
O1137 Eu1103 2.380 . S
O1137 C1148 1.276 . S
O1138 Eu1103 2.432 . S
O1138 C1155 1.264 . S
O1139 Eu1092 2.339 . S
O1139 C1155 1.254 . S
O1140 Eu1092 2.563 . S
O1140 C1148 1.235 . S
O1141 Eu1092 2.419 . S
O1141 C1156 1.249 . S
O1142 Eu1103 2.558 . S
O1142 C1167 1.257 . S
O1143 Eu1092 2.380 . S
O1143 Eu1103 2.612 . S
O1143 C1159 1.276 . S
O1144 Eu1092 2.432 . S
O1144 C1166 1.264 . S
O1145 Eu1103 2.339 . S
O1145 C1166 1.254 . S
O1146 Eu1103 2.563 . S
O1146 C1159 1.235 . S
O1147 Eu1103 2.419 . S
O1147 C1167 1.249 . S
C1148 O1137 1.276 . S
C1148 O1140 1.235 . S
C1149 C1151 1.393 . S
C1149 C1153 1.395 . S
C1149 C1156 1.492 . S
C1150 C1151 1.392 . S
C1150 C1152 1.386 . S
C1151 C1149 1.393 . S
C1151 C1150 1.392 . S
C1151 H1168 0.930 . S
C1152 C1150 1.386 . S
C1152 C1154 1.395 . S
C1152 H1169 0.930 . S
C1153 C1149 1.395 . S
C1153 C1154 1.379 . S
C1153 H1170 0.930 . S
C1154 C1152 1.395 . S
C1154 C1153 1.379 . S
C1154 H1171 0.930 . S
C1155 O1138 1.264 . S
C1155 O1139 1.254 . S
C1156 Eu1092 2.848 . S
C1156 O1136 1.257 . S
C1156 O1141 1.249 . S
C1156 C1149 1.492 . S
C1157 H1122 0.931 . S
C1157 C1135 1.420 . S
C1157 C1158 1.351 . S
C1158 H1120 0.930 . S
C1158 C1126 1.423 . S
C1158 C1157 1.351 . S
C1159 O1143 1.276 . S
C1159 O1146 1.235 . S
C1160 C1161 1.393 . S
C1160 C1164 1.395 . S
C1160 C1167 1.492 . S
C1161 C1160 1.393 . S
C1161 C1162 1.392 . S
C1161 H1172 0.930 . S
C1162 C1161 1.392 . S
C1162 C1163 1.386 . S
C1163 C1162 1.386 . S
C1163 C1165 1.395 . S
C1163 H1173 0.930 . S
C1164 C1160 1.395 . S
C1164 C1165 1.379 . S
C1164 H1174 0.930 . S
C1165 C1163 1.395 . S
C1165 C1164 1.379 . S
C1165 H1175 0.930 . S
C1166 O1144 1.264 . S
C1166 O1145 1.254 . S
C1167 Eu1103 2.848 . S
C1167 O1142 1.257 . S
C1167 O1147 1.249 . S
C1167 C1160 1.492 . S
H1168 C1151 0.930 . S
H1169 C1152 0.930 . S
H1170 C1153 0.930 . S
H1171 C1154 0.930 . S
H1172 C1161 0.930 . S
H1173 C1163 0.930 . S
H1174 C1164 0.930 . S
H1175 C1165 0.930 . S
Eu1176 N1207 2.657 . S
Eu1176 N1214 2.609 . S
Eu1176 O1220 2.558 . S
Eu1176 O1221 2.612 . S
Eu1176 O1223 2.339 . S
Eu1176 O1224 2.563 . S
Eu1176 O1225 2.419 . S
Eu1176 O1227 2.380 . S
Eu1176 O1228 2.432 . S
Eu1176 C1240 2.848 . S
C1177 C1180 1.429 . S
C1177 C1181 1.411 . S
C1177 N1184 1.377 1_455 S
C1178 C1180 1.420 . S
C1178 C1182 1.423 . S
C1178 C1190 1.392 . S
C1179 C1181 1.420 . S
C1179 C1182 1.351 . S
C1179 H1202 0.931 . S
C1180 C1177 1.429 . S
C1180 C1178 1.420 . S
C1180 N1188 1.362 1_455 S
C1181 C1177 1.411 . S
C1181 C1179 1.420 . S
C1181 C1186 1.395 . S
C1182 C1178 1.423 . S
C1182 C1179 1.351 . S
C1182 H1194 0.930 . S
C1183 C1185 1.400 . S
C1183 C1186 1.386 1_655 S
C1183 H1195 0.930 . S
N1184 C1177 1.377 1_655 S
N1184 C1185 1.321 . S
N1184 Eu1187 2.609 . S
C1185 C1183 1.400 . S
C1185 N1184 1.321 . S
C1185 H1192 0.930 . S
C1186 C1181 1.395 . S
C1186 C1183 1.386 1_455 S
C1186 H1205 0.930 . S
Eu1187 N1184 2.609 . S
Eu1187 N1188 2.657 . S
Eu1187 O1221 2.380 . S
Eu1187 O1222 2.432 . S
Eu1187 O1226 2.558 . S
Eu1187 O1227 2.612 . S
Eu1187 O1229 2.339 . S
Eu1187 O1230 2.563 . S
Eu1187 O1231 2.419 . S
Eu1187 C1251 2.848 . S
N1188 C1180 1.362 1_655 S
N1188 Eu1187 2.657 . S
N1188 C1189 1.334 1_655 S
C1189 N1188 1.334 1_455 S
C1189 C1191 1.413 . S
C1189 H1196 0.929 1_455 S
C1190 C1178 1.392 . S
C1190 C1191 1.367 . S
C1190 H1198 0.930 . S
C1191 C1189 1.413 . S
C1191 C1190 1.367 . S
C1191 H1193 0.930 . S
H1192 C1185 0.930 . S
H1193 C1191 0.930 . S
H1194 C1182 0.930 . S
H1195 C1183 0.930 . S
H1196 C1189 0.929 1_655 S
H1197 C1211 0.930 . S
H1198 C1190 0.930 . S
H1199 C1217 0.930 . S
H1200 C1208 0.929 . S
H1201 C1215 0.930 . S
H1202 C1179 0.931 . S
H1203 C1209 0.930 . S
H1204 C1242 0.930 . S
H1205 C1186 0.930 . S
H1206 C1241 0.931 . S
N1207 Eu1176 2.657 . S
N1207 C1208 1.334 . S
N1207 C1212 1.362 . S
C1208 H1200 0.929 . S
C1208 N1207 1.334 . S
C1208 C1211 1.413 . S
C1209 H1203 0.930 . S
C1209 C1210 1.392 . S
C1209 C1211 1.367 . S
C1210 C1209 1.392 . S
C1210 C1212 1.420 . S
C1210 C1242 1.423 . S
C1211 H1197 0.930 . S
C1211 C1208 1.413 . S
C1211 C1209 1.367 . S
C1212 N1207 1.362 . S
C1212 C1210 1.420 . S
C1212 C1216 1.429 . S
H1213 C1218 0.930 . S
N1214 Eu1176 2.609 . S
N1214 C1216 1.377 . S
N1214 C1217 1.321 . S
C1215 H1201 0.930 . S
C1215 C1217 1.400 . S
C1215 C1218 1.386 . S
C1216 C1212 1.429 . S
C1216 N1214 1.377 . S
C1216 C1219 1.411 . S
C1217 H1199 0.930 . S
C1217 N1214 1.321 . S
C1217 C1215 1.400 . S
C1218 H1213 0.930 . S
C1218 C1215 1.386 . S
C1218 C1219 1.395 . S
C1219 C1216 1.411 . S
C1219 C1218 1.395 . S
C1219 C1241 1.420 . S
O1220 Eu1176 2.558 . S
O1220 C1240 1.257 . S
O1221 Eu1176 2.612 . S
O1221 Eu1187 2.380 . S
O1221 C1232 1.276 . S
O1222 Eu1187 2.432 . S
O1222 C1239 1.264 . S
O1223 Eu1176 2.339 . S
O1223 C1239 1.254 . S
O1224 Eu1176 2.563 . S
O1224 C1232 1.235 . S
O1225 Eu1176 2.419 . S
O1225 C1240 1.249 . S
O1226 Eu1187 2.558 . S
O1226 C1251 1.257 . S
O1227 Eu1176 2.380 . S
O1227 Eu1187 2.612 . S
O1227 C1243 1.276 . S
O1228 Eu1176 2.432 . S
O1228 C1250 1.264 . S
O1229 Eu1187 2.339 . S
O1229 C1250 1.254 . S
O1230 Eu1187 2.563 . S
O1230 C1243 1.235 . S
O1231 Eu1187 2.419 . S
O1231 C1251 1.249 . S
C1232 O1221 1.276 . S
C1232 O1224 1.235 . S
C1233 C1235 1.393 1_545 S
C1233 C1237 1.395 1_545 S
C1233 C1240 1.492 . S
C1234 C1235 1.392 . S
C1234 C1236 1.386 . S
C1235 C1233 1.393 1_565 S
C1235 C1234 1.392 . S
C1235 H1252 0.930 1_565 S
C1236 C1234 1.386 . S
C1236 C1238 1.395 . S
C1236 H1253 0.930 . S
C1237 C1233 1.395 1_565 S
C1237 C1238 1.379 . S
C1237 H1254 0.930 1_565 S
C1238 C1236 1.395 . S
C1238 C1237 1.379 . S
C1238 H1255 0.930 . S
C1239 O1222 1.264 . S
C1239 O1223 1.254 . S
C1240 Eu1176 2.848 . S
C1240 O1220 1.257 . S
C1240 O1225 1.249 . S
C1240 C1233 1.492 . S
C1241 H1206 0.931 . S
C1241 C1219 1.420 . S
C1241 C1242 1.351 . S
C1242 H1204 0.930 . S
C1242 C1210 1.423 . S
C1242 C1241 1.351 . S
C1243 O1227 1.276 . S
C1243 O1230 1.235 . S
C1244 C1245 1.393 . S
C1244 C1248 1.395 . S
C1244 C1251 1.492 . S
C1245 C1244 1.393 . S
C1245 C1246 1.392 . S
C1245 H1256 0.930 . S
C1246 C1245 1.392 . S
C1246 C1247 1.386 . S
C1247 C1246 1.386 . S
C1247 C1249 1.395 . S
C1247 H1257 0.930 . S
C1248 C1244 1.395 . S
C1248 C1249 1.379 . S
C1248 H1258 0.930 . S
C1249 C1247 1.395 . S
C1249 C1248 1.379 . S
C1249 H1259 0.930 . S
C1250 O1228 1.264 . S
C1250 O1229 1.254 . S
C1251 Eu1187 2.848 . S
C1251 O1226 1.257 . S
C1251 O1231 1.249 . S
C1251 C1244 1.492 . S
H1252 C1235 0.930 1_545 S
H1253 C1236 0.930 . S
H1254 C1237 0.930 1_545 S
H1255 C1238 0.930 . S
H1256 C1245 0.930 . S
H1257 C1247 0.930 . S
H1258 C1248 0.930 . S
H1259 C1249 0.930 . S
Eu1260 N1291 2.657 . S
Eu1260 N1298 2.609 . S
Eu1260 O1304 2.558 . S
Eu1260 O1305 2.612 . S
Eu1260 O1307 2.339 . S
Eu1260 O1308 2.563 . S
Eu1260 O1309 2.419 . S
Eu1260 O1311 2.380 . S
Eu1260 O1312 2.432 . S
Eu1260 C1324 2.848 . S
C1261 C1264 1.429 . S
C1261 C1265 1.411 . S
C1261 N1268 1.377 . S
C1262 C1264 1.420 . S
C1262 C1266 1.423 1_545 S
C1262 C1274 1.392 . S
C1263 C1265 1.420 1_565 S
C1263 C1266 1.351 . S
C1263 H1286 0.931 . S
C1264 C1261 1.429 . S
C1264 C1262 1.420 . S
C1264 N1272 1.362 . S
C1265 C1261 1.411 . S
C1265 C1263 1.420 1_545 S
C1265 C1270 1.395 . S
C1266 C1262 1.423 1_565 S
C1266 C1263 1.351 . S
C1266 H1278 0.930 . S
C1267 C1269 1.400 . S
C1267 C1270 1.386 . S
C1267 H1279 0.930 . S
N1268 C1261 1.377 . S
N1268 C1269 1.321 . S
N1268 Eu1271 2.609 . S
C1269 C1267 1.400 . S
C1269 N1268 1.321 . S
C1269 H1276 0.930 . S
C1270 C1265 1.395 . S
C1270 C1267 1.386 . S
C1270 H1289 0.930 . S
Eu1271 N1268 2.609 . S
Eu1271 N1272 2.657 . S
Eu1271 O1305 2.380 . S
Eu1271 O1306 2.432 . S
Eu1271 O1310 2.558 . S
Eu1271 O1311 2.612 . S
Eu1271 O1313 2.339 . S
Eu1271 O1314 2.563 . S
Eu1271 O1315 2.419 . S
Eu1271 C1335 2.848 . S
N1272 C1264 1.362 . S
N1272 Eu1271 2.657 . S
N1272 C1273 1.334 . S
C1273 N1272 1.334 . S
C1273 C1275 1.413 . S
C1273 H1280 0.929 . S
C1274 C1262 1.392 . S
C1274 C1275 1.367 . S
C1274 H1282 0.930 1_545 S
C1275 C1273 1.413 . S
C1275 C1274 1.367 . S
C1275 H1277 0.930 . S
H1276 C1269 0.930 . S
H1277 C1275 0.930 . S
H1278 C1266 0.930 . S
H1279 C1267 0.930 . S
H1280 C1273 0.929 . S
H1281 C1295 0.930 . S
H1282 C1274 0.930 1_565 S
H1283 C1301 0.930 . S
H1284 C1292 0.929 . S
H1285 C1299 0.930 . S
H1286 C1263 0.931 . S
H1287 C1293 0.930 . S
H1288 C1326 0.930 . S
H1289 C1270 0.930 . S
H1290 C1325 0.931 . S
N1291 Eu1260 2.657 . S
N1291 C1292 1.334 . S
N1291 C1296 1.362 . S
C1292 H1284 0.929 . S
C1292 N1291 1.334 . S
C1292 C1295 1.413 . S
C1293 H1287 0.930 . S
C1293 C1294 1.392 . S
C1293 C1295 1.367 . S
C1294 C1293 1.392 . S
C1294 C1296 1.420 . S
C1294 C1326 1.423 . S
C1295 H1281 0.930 . S
C1295 C1292 1.413 . S
C1295 C1293 1.367 . S
C1296 N1291 1.362 . S
C1296 C1294 1.420 . S
C1296 C1300 1.429 . S
H1297 C1302 0.930 . S
N1298 Eu1260 2.609 . S
N1298 C1300 1.377 . S
N1298 C1301 1.321 . S
C1299 H1285 0.930 . S
C1299 C1301 1.400 . S
C1299 C1302 1.386 . S
C1300 C1296 1.429 . S
C1300 N1298 1.377 . S
C1300 C1303 1.411 . S
C1301 H1283 0.930 . S
C1301 N1298 1.321 . S
C1301 C1299 1.400 . S
C1302 H1297 0.930 . S
C1302 C1299 1.386 . S
C1302 C1303 1.395 . S
C1303 C1300 1.411 . S
C1303 C1302 1.395 . S
C1303 C1325 1.420 . S
O1304 Eu1260 2.558 . S
O1304 C1324 1.257 . S
O1305 Eu1260 2.612 . S
O1305 Eu1271 2.380 . S
O1305 C1316 1.276 . S
O1306 Eu1271 2.432 . S
O1306 C1323 1.264 . S
O1307 Eu1260 2.339 . S
O1307 C1323 1.254 . S
O1308 Eu1260 2.563 . S
O1308 C1316 1.235 . S
O1309 Eu1260 2.419 . S
O1309 C1324 1.249 . S
O1310 Eu1271 2.558 . S
O1310 C1335 1.257 . S
O1311 Eu1260 2.380 . S
O1311 Eu1271 2.612 . S
O1311 C1327 1.276 . S
O1312 Eu1260 2.432 . S
O1312 C1334 1.264 . S
O1313 Eu1271 2.339 . S
O1313 C1334 1.254 . S
O1314 Eu1271 2.563 . S
O1314 C1327 1.235 . S
O1315 Eu1271 2.419 . S
O1315 C1335 1.249 . S
C1316 O1305 1.276 . S
C1316 O1308 1.235 . S
C1317 C1319 1.393 . S
C1317 C1321 1.395 . S
C1317 C1324 1.492 . S
C1318 C1319 1.392 . S
C1318 C1320 1.386 . S
C1319 C1317 1.393 . S
C1319 C1318 1.392 . S
C1319 H1336 0.930 . S
C1320 C1318 1.386 . S
C1320 C1322 1.395 . S
C1320 H1337 0.930 . S
C1321 C1317 1.395 . S
C1321 C1322 1.379 . S
C1321 H1338 0.930 . S
C1322 C1320 1.395 . S
C1322 C1321 1.379 . S
C1322 H1339 0.930 . S
C1323 O1306 1.264 . S
C1323 O1307 1.254 . S
C1324 Eu1260 2.848 . S
C1324 O1304 1.257 . S
C1324 O1309 1.249 . S
C1324 C1317 1.492 . S
C1325 H1290 0.931 . S
C1325 C1303 1.420 . S
C1325 C1326 1.351 . S
C1326 H1288 0.930 . S
C1326 C1294 1.423 . S
C1326 C1325 1.351 . S
C1327 O1311 1.276 . S
C1327 O1314 1.235 . S
C1328 C1329 1.393 . S
C1328 C1332 1.395 . S
C1328 C1335 1.492 1_565 S
C1329 C1328 1.393 . S
C1329 C1330 1.392 . S
C1329 H1340 0.930 . S
C1330 C1329 1.392 . S
C1330 C1331 1.386 . S
C1331 C1330 1.386 . S
C1331 C1333 1.395 . S
C1331 H1341 0.930 . S
C1332 C1328 1.395 . S
C1332 C1333 1.379 . S
C1332 H1342 0.930 . S
C1333 C1331 1.395 . S
C1333 C1332 1.379 . S
C1333 H1343 0.930 . S
C1334 O1312 1.264 . S
C1334 O1313 1.254 . S
C1335 Eu1271 2.848 . S
C1335 O1310 1.257 . S
C1335 O1315 1.249 . S
C1335 C1328 1.492 1_545 S
H1336 C1319 0.930 . S
H1337 C1320 0.930 . S
H1338 C1321 0.930 . S
H1339 C1322 0.930 . S
H1340 C1329 0.930 . S
H1341 C1331 0.930 . S
H1342 C1332 0.930 . S
H1343 C1333 0.930 . S
Eu1344 N1375 2.657 . S
Eu1344 N1382 2.609 . S
Eu1344 O1388 2.558 . S
Eu1344 O1389 2.612 . S
Eu1344 O1391 2.339 . S
Eu1344 O1392 2.563 . S
Eu1344 O1393 2.419 . S
Eu1344 O1395 2.380 . S
Eu1344 O1396 2.432 . S
Eu1344 C1408 2.848 . S
C1345 C1348 1.429 . S
C1345 C1349 1.411 . S
C1345 N1352 1.377 1_455 S
C1346 C1348 1.420 . S
C1346 C1350 1.423 . S
C1346 C1358 1.392 . S
C1347 C1349 1.420 . S
C1347 C1350 1.351 . S
C1347 H1370 0.931 . S
C1348 C1345 1.429 . S
C1348 C1346 1.420 . S
C1348 N1356 1.362 1_455 S
C1349 C1345 1.411 . S
C1349 C1347 1.420 . S
C1349 C1354 1.395 . S
C1350 C1346 1.423 . S
C1350 C1347 1.351 . S
C1350 H1362 0.930 . S
C1351 C1353 1.400 1_455 S
C1351 C1354 1.386 . S
C1351 H1363 0.932 1_455 S
N1352 C1345 1.377 1_655 S
N1352 C1353 1.321 . S
N1352 Eu1355 2.609 . S
C1353 C1351 1.400 1_655 S
C1353 N1352 1.321 . S
C1353 H1360 0.930 . S
C1354 C1349 1.395 . S
C1354 C1351 1.386 . S
C1354 H1373 0.930 . S
Eu1355 N1352 2.609 . S
Eu1355 N1356 2.657 . S
Eu1355 O1389 2.380 . S
Eu1355 O1390 2.432 . S
Eu1355 O1394 2.558 1_655 S
Eu1355 O1395 2.612 . S
Eu1355 O1397 2.339 . S
Eu1355 O1398 2.563 . S
Eu1355 O1399 2.419 1_655 S
Eu1355 C1419 2.848 1_655 S
N1356 C1348 1.362 1_655 S
N1356 Eu1355 2.657 . S
N1356 C1357 1.333 . S
C1357 N1356 1.333 . S
C1357 C1359 1.414 1_655 S
C1357 H1364 0.930 . S
C1358 C1346 1.392 . S
C1358 C1359 1.367 . S
C1358 H1366 0.930 . S
C1359 C1357 1.414 1_455 S
C1359 C1358 1.367 . S
C1359 H1361 0.930 . S
H1360 C1353 0.930 . S
H1361 C1359 0.930 . S
H1362 C1350 0.930 . S
H1363 C1351 0.932 1_655 S
H1364 C1357 0.930 . S
H1365 C1379 0.930 . S
H1366 C1358 0.930 . S
H1367 C1385 0.930 . S
H1368 C1376 0.929 . S
H1369 C1383 0.930 . S
H1370 C1347 0.931 . S
H1371 C1377 0.930 . S
H1372 C1410 0.930 . S
H1373 C1354 0.930 . S
H1374 C1409 0.931 . S
N1375 Eu1344 2.657 . S
N1375 C1376 1.334 . S
N1375 C1380 1.362 . S
C1376 H1368 0.929 . S
C1376 N1375 1.334 . S
C1376 C1379 1.413 . S
C1377 H1371 0.930 . S
C1377 C1378 1.392 . S
C1377 C1379 1.367 1_565 S
C1378 C1377 1.392 . S
C1378 C1380 1.420 1_565 S
C1378 C1410 1.423 . S
C1379 H1365 0.930 . S
C1379 C1376 1.413 . S
C1379 C1377 1.367 1_545 S
C1380 N1375 1.362 . S
C1380 C1378 1.420 1_545 S
C1380 C1384 1.429 . S
H1381 C1386 0.930 . S
N1382 Eu1344 2.609 . S
N1382 C1384 1.377 . S
N1382 C1385 1.321 . S
C1383 H1369 0.930 . S
C1383 C1385 1.400 . S
C1383 C1386 1.386 . S
C1384 C1380 1.429 . S
C1384 N1382 1.377 . S
C1384 C1387 1.411 . S
C1385 H1367 0.930 . S
C1385 N1382 1.321 . S
C1385 C1383 1.400 . S
C1386 H1381 0.930 . S
C1386 C1383 1.386 . S
C1386 C1387 1.395 . S
C1387 C1384 1.411 . S
C1387 C1386 1.395 . S
C1387 C1409 1.420 1_545 S
O1388 Eu1344 2.558 . S
O1388 C1408 1.257 . S
O1389 Eu1344 2.612 . S
O1389 Eu1355 2.380 . S
O1389 C1400 1.276 . S
O1390 Eu1355 2.432 . S
O1390 C1407 1.264 . S
O1391 Eu1344 2.339 . S
O1391 C1407 1.254 . S
O1392 Eu1344 2.563 . S
O1392 C1400 1.235 . S
O1393 Eu1344 2.419 . S
O1393 C1408 1.249 . S
O1394 Eu1355 2.558 1_455 S
O1394 C1419 1.257 . S
O1395 Eu1344 2.380 . S
O1395 Eu1355 2.612 . S
O1395 C1411 1.276 . S
O1396 Eu1344 2.432 . S
O1396 C1418 1.264 . S
O1397 Eu1355 2.339 . S
O1397 C1418 1.254 . S
O1398 Eu1355 2.563 . S
O1398 C1411 1.235 . S
O1399 Eu1355 2.419 1_455 S
O1399 C1419 1.249 . S
C1400 O1389 1.276 . S
C1400 O1392 1.235 . S
C1401 C1403 1.393 . S
C1401 C1405 1.395 . S
C1401 C1408 1.492 . S
C1402 C1403 1.392 . S
C1402 C1404 1.386 . S
C1403 C1401 1.393 . S
C1403 C1402 1.392 . S
C1403 H1420 0.930 . S
C1404 C1402 1.386 . S
C1404 C1406 1.395 . S
C1404 H1421 0.930 . S
C1405 C1401 1.395 . S
C1405 C1406 1.379 . S
C1405 H1422 0.930 . S
C1406 C1404 1.395 . S
C1406 C1405 1.379 . S
C1406 H1423 0.930 . S
C1407 O1390 1.264 . S
C1407 O1391 1.254 . S
C1408 Eu1344 2.848 . S
C1408 O1388 1.257 . S
C1408 O1393 1.249 . S
C1408 C1401 1.492 . S
C1409 H1374 0.931 . S
C1409 C1387 1.420 1_565 S
C1409 C1410 1.351 . S
C1410 H1372 0.930 . S
C1410 C1378 1.423 . S
C1410 C1409 1.351 . S
C1411 O1395 1.276 . S
C1411 O1398 1.235 . S
C1412 C1413 1.393 . S
C1412 C1416 1.395 . S
C1412 C1419 1.492 . S
C1413 C1412 1.393 . S
C1413 C1414 1.392 . S
C1413 H1424 0.930 . S
C1414 C1413 1.392 . S
C1414 C1415 1.386 . S
C1415 C1414 1.386 . S
C1415 C1417 1.395 . S
C1415 H1425 0.930 . S
C1416 C1412 1.395 . S
C1416 C1417 1.379 . S
C1416 H1426 0.930 . S
C1417 C1415 1.395 . S
C1417 C1416 1.379 . S
C1417 H1427 0.930 . S
C1418 O1396 1.264 . S
C1418 O1397 1.254 . S
C1419 Eu1355 2.848 1_455 S
C1419 O1394 1.257 . S
C1419 O1399 1.249 . S
C1419 C1412 1.492 . S
H1420 C1403 0.930 . S
H1421 C1404 0.930 . S
H1422 C1405 0.930 . S
H1423 C1406 0.930 . S
H1424 C1413 0.930 . S
H1425 C1415 0.930 . S
H1426 C1416 0.930 . S
H1427 C1417 0.930 . S
Eu1428 N1459 2.657 . S
Eu1428 N1466 2.609 . S
Eu1428 O1472 2.558 . S
Eu1428 O1473 2.612 . S
Eu1428 O1475 2.339 . S
Eu1428 O1476 2.563 . S
Eu1428 O1477 2.419 . S
Eu1428 O1479 2.380 . S
Eu1428 O1480 2.432 . S
Eu1428 C1492 2.848 . S
C1429 C1432 1.429 . S
C1429 C1433 1.411 . S
C1429 N1436 1.377 . S
C1430 C1432 1.420 . S
C1430 C1434 1.423 . S
C1430 C1442 1.392 . S
C1431 C1433 1.420 . S
C1431 C1434 1.351 . S
C1431 H1454 0.931 . S
C1432 C1429 1.429 . S
C1432 C1430 1.420 . S
C1432 N1440 1.362 . S
C1433 C1429 1.411 . S
C1433 C1431 1.420 . S
C1433 C1438 1.395 . S
C1434 C1430 1.423 . S
C1434 C1431 1.351 . S
C1434 H1446 0.930 . S
C1435 C1437 1.400 . S
C1435 C1438 1.386 . S
C1435 H1447 0.930 . S
N1436 C1429 1.377 . S
N1436 C1437 1.321 . S
N1436 Eu1439 2.609 . S
C1437 C1435 1.400 . S
C1437 N1436 1.321 . S
C1437 H1444 0.930 . S
C1438 C1433 1.395 . S
C1438 C1435 1.386 . S
C1438 H1457 0.930 . S
Eu1439 N1436 2.609 . S
Eu1439 N1440 2.657 . S
Eu1439 O1473 2.380 . S
Eu1439 O1474 2.432 . S
Eu1439 O1478 2.558 . S
Eu1439 O1479 2.612 . S
Eu1439 O1481 2.339 . S
Eu1439 O1482 2.563 . S
Eu1439 O1483 2.419 . S
Eu1439 C1503 2.848 . S
N1440 C1432 1.362 . S
N1440 Eu1439 2.657 . S
N1440 C1441 1.334 . S
C1441 N1440 1.334 . S
C1441 C1443 1.413 . S
C1441 H1448 0.929 . S
C1442 C1430 1.392 . S
C1442 C1443 1.367 . S
C1442 H1450 0.930 . S
C1443 C1441 1.413 . S
C1443 C1442 1.367 . S
C1443 H1445 0.930 . S
H1444 C1437 0.930 . S
H1445 C1443 0.930 . S
H1446 C1434 0.930 . S
H1447 C1435 0.930 . S
H1448 C1441 0.929 . S
H1449 C1463 0.930 . S
H1450 C1442 0.930 . S
H1451 C1469 0.930 . S
H1452 C1460 0.929 . S
H1453 C1467 0.930 . S
H1454 C1431 0.931 . S
H1455 C1461 0.930 . S
H1456 C1494 0.930 . S
H1457 C1438 0.930 . S
H1458 C1493 0.931 . S
N1459 Eu1428 2.657 . S
N1459 C1460 1.334 . S
N1459 C1464 1.362 1_655 S
C1460 H1452 0.929 . S
C1460 N1459 1.334 . S
C1460 C1463 1.413 1_655 S
C1461 H1455 0.930 . S
C1461 C1462 1.392 . S
C1461 C1463 1.367 . S
C1462 C1461 1.392 . S
C1462 C1464 1.420 . S
C1462 C1494 1.423 . S
C1463 H1449 0.930 . S
C1463 C1460 1.413 1_455 S
C1463 C1461 1.367 . S
C1464 N1459 1.362 1_455 S
C1464 C1462 1.420 . S
C1464 C1468 1.429 1_455 S
H1465 C1470 0.930 . S
N1466 Eu1428 2.609 . S
N1466 C1468 1.377 . S
N1466 C1469 1.321 . S
C1467 H1453 0.930 . S
C1467 C1469 1.400 . S
C1467 C1470 1.386 1_655 S
C1468 C1464 1.429 1_655 S
C1468 N1466 1.377 . S
C1468 C1471 1.411 1_655 S
C1469 H1451 0.930 . S
C1469 N1466 1.321 . S
C1469 C1467 1.400 . S
C1470 H1465 0.930 . S
C1470 C1467 1.386 1_455 S
C1470 C1471 1.395 . S
C1471 C1468 1.411 1_455 S
C1471 C1470 1.395 . S
C1471 C1493 1.420 . S
O1472 Eu1428 2.558 . S
O1472 C1492 1.257 . S
O1473 Eu1428 2.612 . S
O1473 Eu1439 2.380 . S
O1473 C1484 1.276 . S
O1474 Eu1439 2.432 . S
O1474 C1491 1.264 . S
O1475 Eu1428 2.339 . S
O1475 C1491 1.254 . S
O1476 Eu1428 2.563 . S
O1476 C1484 1.235 . S
O1477 Eu1428 2.419 . S
O1477 C1492 1.249 . S
O1478 Eu1439 2.558 . S
O1478 C1503 1.257 . S
O1479 Eu1428 2.380 . S
O1479 Eu1439 2.612 . S
O1479 C1495 1.276 . S
O1480 Eu1428 2.432 . S
O1480 C1502 1.264 . S
O1481 Eu1439 2.339 . S
O1481 C1502 1.254 . S
O1482 Eu1439 2.563 . S
O1482 C1495 1.235 . S
O1483 Eu1439 2.419 . S
O1483 C1503 1.249 . S
C1484 O1473 1.276 . S
C1484 O1476 1.235 . S
C1485 C1487 1.393 . S
C1485 C1489 1.395 . S
C1485 C1492 1.492 . S
C1486 C1487 1.392 . S
C1486 C1488 1.386 . S
C1487 C1485 1.393 . S
C1487 C1486 1.392 . S
C1487 H1504 0.930 . S
C1488 C1486 1.386 . S
C1488 C1490 1.395 . S
C1488 H1505 0.930 . S
C1489 C1485 1.395 . S
C1489 C1490 1.379 . S
C1489 H1506 0.930 . S
C1490 C1488 1.395 . S
C1490 C1489 1.379 . S
C1490 H1507 0.930 . S
C1491 O1474 1.264 . S
C1491 O1475 1.254 . S
C1492 Eu1428 2.848 . S
C1492 O1472 1.257 . S
C1492 O1477 1.249 . S
C1492 C1485 1.492 . S
C1493 H1458 0.931 . S
C1493 C1471 1.420 . S
C1493 C1494 1.351 . S
C1494 H1456 0.930 . S
C1494 C1462 1.423 . S
C1494 C1493 1.351 . S
C1495 O1479 1.276 . S
C1495 O1482 1.235 . S
C1496 C1497 1.393 . S
C1496 C1500 1.395 . S
C1496 C1503 1.492 . S
C1497 C1496 1.393 . S
C1497 C1498 1.392 . S
C1497 H1508 0.930 . S
C1498 C1497 1.392 . S
C1498 C1499 1.386 . S
C1499 C1498 1.386 . S
C1499 C1501 1.395 . S
C1499 H1509 0.930 1_565 S
C1500 C1496 1.395 . S
C1500 C1501 1.379 . S
C1500 H1510 0.930 . S
C1501 C1499 1.395 . S
C1501 C1500 1.379 . S
C1501 H1511 0.930 . S
C1502 O1480 1.264 . S
C1502 O1481 1.254 . S
C1503 Eu1439 2.848 . S
C1503 O1478 1.257 . S
C1503 O1483 1.249 . S
C1503 C1496 1.492 . S
H1504 C1487 0.930 . S
H1505 C1488 0.930 . S
H1506 C1489 0.930 . S
H1507 C1490 0.930 . S
H1508 C1497 0.930 . S
H1509 C1499 0.930 1_545 S
H1510 C1500 0.930 . S
H1511 C1501 0.930 . S
C1512 C1513 1.369 . S
C1512 C1514 1.419 . S
C1512 H1516 0.930 . S
C1513 C1512 1.369 . S
C1513 C1522 1.429 . S
C1514 C1512 1.419 . S
C1514 C1515 1.363 . S
C1514 H1517 0.929 . S
C1515 C1514 1.363 . S
C1515 C1521 1.428 . S
H1516 C1512 0.930 . S
H1517 C1514 0.929 . S
S1518 N1519 1.613 . S
S1518 N1520 1.610 . S
N1519 S1518 1.613 . S
N1519 C1522 1.350 . S
N1520 S1518 1.610 . S
N1520 C1521 1.351 . S
C1521 C1515 1.428 . S
C1521 N1520 1.351 . S
C1521 C1522 1.434 . S
C1522 C1513 1.429 . S
C1522 N1519 1.350 . S
C1522 C1521 1.434 . S
C1523 C1524 1.369 . S
C1523 C1525 1.419 . S
C1523 H1527 0.930 . S
C1524 C1523 1.369 . S
C1524 C1533 1.429 . S
C1525 C1523 1.419 . S
C1525 C1526 1.363 . S
C1525 H1528 0.929 . S
C1526 C1525 1.363 . S
C1526 C1532 1.428 . S
H1527 C1523 0.930 . S
H1528 C1525 0.929 . S
S1529 N1530 1.613 . S
S1529 N1531 1.610 . S
N1530 S1529 1.613 . S
N1530 C1533 1.350 . S
N1531 S1529 1.610 . S
N1531 C1532 1.351 . S
C1532 C1526 1.428 . S
C1532 N1531 1.351 . S
C1532 C1533 1.434 . S
C1533 C1524 1.429 . S
C1533 N1530 1.350 . S
C1533 C1532 1.434 . S
C1534 C1535 1.369 . S
C1534 C1536 1.419 . S
C1534 H1538 0.930 . S
C1535 C1534 1.369 . S
C1535 C1544 1.429 . S
C1536 C1534 1.419 . S
C1536 C1537 1.363 . S
C1536 H1539 0.929 . S
C1537 C1536 1.363 . S
C1537 C1543 1.428 . S
H1538 C1534 0.930 . S
H1539 C1536 0.929 . S
S1540 N1541 1.613 . S
S1540 N1542 1.610 . S
N1541 S1540 1.613 . S
N1541 C1544 1.350 . S
N1542 S1540 1.610 . S
N1542 C1543 1.351 . S
C1543 C1537 1.428 . S
C1543 N1542 1.351 . S
C1543 C1544 1.434 . S
C1544 C1535 1.429 . S
C1544 N1541 1.350 . S
C1544 C1543 1.434 . S
C1545 C1546 1.369 . S
C1545 C1547 1.419 . S
C1545 H1549 0.930 . S
C1546 C1545 1.369 . S
C1546 C1555 1.429 . S
C1547 C1545 1.419 . S
C1547 C1548 1.363 . S
C1547 H1550 0.929 . S
C1548 C1547 1.363 . S
C1548 C1554 1.428 . S
H1549 C1545 0.930 . S
H1550 C1547 0.929 . S
S1551 N1552 1.613 . S
S1551 N1553 1.610 . S
N1552 S1551 1.613 . S
N1552 C1555 1.350 . S
N1553 S1551 1.610 . S
N1553 C1554 1.351 . S
C1554 C1548 1.428 . S
C1554 N1553 1.351 . S
C1554 C1555 1.434 . S
C1555 C1546 1.429 . S
C1555 N1552 1.350 . S
C1555 C1554 1.434 . S
C1556 C1557 1.369 . S
C1556 C1558 1.419 . S
C1556 H1560 0.930 . S
C1557 C1556 1.369 . S
C1557 C1566 1.429 . S
C1558 C1556 1.419 . S
C1558 C1559 1.363 . S
C1558 H1561 0.929 . S
C1559 C1558 1.363 . S
C1559 C1565 1.428 . S
H1560 C1556 0.930 . S
H1561 C1558 0.929 . S
S1562 N1563 1.613 . S
S1562 N1564 1.610 . S
N1563 S1562 1.613 . S
N1563 C1566 1.350 . S
N1564 S1562 1.610 . S
N1564 C1565 1.351 . S
C1565 C1559 1.428 . S
C1565 N1564 1.351 . S
C1565 C1566 1.434 . S
C1566 C1557 1.429 . S
C1566 N1563 1.350 . S
C1566 C1565 1.434 . S
C1567 C1568 1.369 . S
C1567 C1569 1.419 . S
C1567 H1571 0.930 . S
C1568 C1567 1.369 . S
C1568 C1577 1.429 . S
C1569 C1567 1.419 . S
C1569 C1570 1.363 . S
C1569 H1572 0.929 . S
C1570 C1569 1.363 . S
C1570 C1576 1.428 . S
H1571 C1567 0.930 . S
H1572 C1569 0.929 . S
S1573 N1574 1.613 . S
S1573 N1575 1.610 . S
N1574 S1573 1.613 . S
N1574 C1577 1.350 . S
N1575 S1573 1.610 . S
N1575 C1576 1.351 . S
C1576 C1570 1.428 . S
C1576 N1575 1.351 . S
C1576 C1577 1.434 . S
C1577 C1568 1.429 . S
C1577 N1574 1.350 . S
C1577 C1576 1.434 . S
C1578 C1579 1.369 . S
C1578 C1580 1.419 . S
C1578 H1582 0.930 . S
C1579 C1578 1.369 . S
C1579 C1588 1.429 . S
C1580 C1578 1.419 . S
C1580 C1581 1.363 . S
C1580 H1583 0.929 . S
C1581 C1580 1.363 . S
C1581 C1587 1.428 . S
H1582 C1578 0.930 . S
H1583 C1580 0.929 . S
S1584 N1585 1.613 . S
S1584 N1586 1.610 . S
N1585 S1584 1.613 . S
N1585 C1588 1.350 . S
N1586 S1584 1.610 . S
N1586 C1587 1.351 . S
C1587 C1581 1.428 . S
C1587 N1586 1.351 . S
C1587 C1588 1.434 . S
C1588 C1579 1.429 . S
C1588 N1585 1.350 . S
C1588 C1587 1.434 . S
C1589 C1590 1.369 . S
C1589 C1591 1.419 1_545 S
C1589 H1593 0.930 . S
C1590 C1589 1.369 . S
C1590 C1599 1.429 . S
C1591 C1589 1.419 1_565 S
C1591 C1592 1.363 . S
C1591 H1594 0.929 . S
C1592 C1591 1.363 . S
C1592 C1598 1.428 1_565 S
H1593 C1589 0.930 . S
H1594 C1591 0.929 . S
S1595 N1596 1.613 . S
S1595 N1597 1.610 1_545 S
N1596 S1595 1.613 . S
N1596 C1599 1.350 . S
N1597 S1595 1.610 1_565 S
N1597 C1598 1.351 1_565 S
C1598 C1592 1.428 1_545 S
C1598 N1597 1.351 1_545 S
C1598 C1599 1.434 . S
C1599 C1590 1.429 . S
C1599 N1596 1.350 . S
C1599 C1598 1.434 . S
C1600 C1601 1.369 . S
C1600 C1602 1.419 . S
C1600 H1604 0.930 . S
C1601 C1600 1.369 . S
C1601 C1610 1.429 . S
C1602 C1600 1.419 . S
C1602 C1603 1.363 1_455 S
C1602 H1605 0.929 1_455 S
C1603 C1602 1.363 1_655 S
C1603 C1609 1.428 1_655 S
H1604 C1600 0.930 . S
H1605 C1602 0.929 1_655 S
S1606 N1607 1.613 . S
S1606 N1608 1.610 . S
N1607 S1606 1.613 . S
N1607 C1610 1.350 . S
N1608 S1606 1.610 . S
N1608 C1609 1.351 . S
C1609 C1603 1.428 1_455 S
C1609 N1608 1.351 . S
C1609 C1610 1.434 . S
C1610 C1601 1.429 . S
C1610 N1607 1.350 . S
C1610 C1609 1.434 . S
C1611 C1612 1.369 . S
C1611 C1613 1.419 . S
C1611 H1615 0.930 . S
C1612 C1611 1.369 . S
C1612 C1621 1.429 . S
C1613 C1611 1.419 . S
C1613 C1614 1.363 . S
C1613 H1616 0.929 . S
C1614 C1613 1.363 . S
C1614 C1620 1.428 . S
H1615 C1611 0.930 . S
H1616 C1613 0.929 . S
S1617 N1618 1.613 . S
S1617 N1619 1.610 . S
N1618 S1617 1.613 . S
N1618 C1621 1.350 . S
N1619 S1617 1.610 . S
N1619 C1620 1.351 . S
C1620 C1614 1.428 . S
C1620 N1619 1.351 . S
C1620 C1621 1.434 . S
C1621 C1612 1.429 . S
C1621 N1618 1.350 . S
C1621 C1620 1.434 . S
C1622 C1623 1.369 . S
C1622 C1624 1.419 . S
C1622 H1626 0.930 . S
C1623 C1622 1.369 . S
C1623 C1632 1.429 . S
C1624 C1622 1.419 . S
C1624 C1625 1.363 . S
C1624 H1627 0.929 . S
C1625 C1624 1.363 . S
C1625 C1631 1.428 . S
H1626 C1622 0.930 . S
H1627 C1624 0.929 . S
S1628 N1629 1.613 . S
S1628 N1630 1.610 . S
N1629 S1628 1.613 . S
N1629 C1632 1.350 . S
N1630 S1628 1.610 . S
N1630 C1631 1.351 . S
C1631 C1625 1.428 . S
C1631 N1630 1.351 . S
C1631 C1632 1.434 . S
C1632 C1623 1.429 . S
C1632 N1629 1.350 . S
C1632 C1631 1.434 . S
C1633 C1634 1.369 . S
C1633 C1635 1.419 . S
C1633 H1637 0.930 . S
C1634 C1633 1.369 . S
C1634 C1643 1.429 . S
C1635 C1633 1.419 . S
C1635 C1636 1.363 . S
C1635 H1638 0.929 . S
C1636 C1635 1.363 . S
C1636 C1642 1.428 . S
H1637 C1633 0.930 . S
H1638 C1635 0.929 . S
S1639 N1640 1.613 . S
S1639 N1641 1.610 . S
N1640 S1639 1.613 . S
N1640 C1643 1.350 . S
N1641 S1639 1.610 . S
N1641 C1642 1.351 . S
C1642 C1636 1.428 . S
C1642 N1641 1.351 . S
C1642 C1643 1.434 . S
C1643 C1634 1.429 . S
C1643 N1640 1.350 . S
C1643 C1642 1.434 . S
C1644 C1645 1.369 . S
C1644 C1646 1.419 . S
C1644 H1648 0.930 . S
C1645 C1644 1.369 . S
C1645 C1654 1.429 . S
C1646 C1644 1.419 . S
C1646 C1647 1.363 . S
C1646 H1649 0.929 . S
C1647 C1646 1.363 . S
C1647 C1653 1.428 . S
H1648 C1644 0.930 . S
H1649 C1646 0.929 . S
S1650 N1651 1.613 . S
S1650 N1652 1.610 . S
N1651 S1650 1.613 . S
N1651 C1654 1.350 . S
N1652 S1650 1.610 . S
N1652 C1653 1.351 . S
C1653 C1647 1.428 . S
C1653 N1652 1.351 . S
C1653 C1654 1.434 . S
C1654 C1645 1.429 . S
C1654 N1651 1.350 . S
C1654 C1653 1.434 . S
C1655 C1656 1.369 . S
C1655 C1657 1.419 . S
C1655 H1659 0.930 . S
C1656 C1655 1.369 . S
C1656 C1665 1.429 . S
C1657 C1655 1.419 . S
C1657 C1658 1.363 . S
C1657 H1660 0.929 . S
C1658 C1657 1.363 . S
C1658 C1664 1.428 . S
H1659 C1655 0.930 . S
H1660 C1657 0.929 . S
S1661 N1662 1.613 . S
S1661 N1663 1.610 . S
N1662 S1661 1.613 . S
N1662 C1665 1.350 . S
N1663 S1661 1.610 . S
N1663 C1664 1.351 . S
C1664 C1658 1.428 . S
C1664 N1663 1.351 . S
C1664 C1665 1.434 . S
C1665 C1656 1.429 . S
C1665 N1662 1.350 . S
C1665 C1664 1.434 . S
C1666 C1667 1.369 . S
C1666 C1668 1.419 . S
C1666 H1670 0.930 . S
C1667 C1666 1.369 . S
C1667 C1676 1.429 . S
C1668 C1666 1.419 . S
C1668 C1669 1.363 . S
C1668 H1671 0.929 . S
C1669 C1668 1.363 . S
C1669 C1675 1.428 . S
H1670 C1666 0.930 . S
H1671 C1668 0.929 . S
S1672 N1673 1.613 . S
S1672 N1674 1.610 . S
N1673 S1672 1.613 . S
N1673 C1676 1.350 . S
N1674 S1672 1.610 . S
N1674 C1675 1.351 . S
C1675 C1669 1.428 . S
C1675 N1674 1.351 . S
C1675 C1676 1.434 . S
C1676 C1667 1.429 . S
C1676 N1673 1.350 . S
C1676 C1675 1.434 . S
C1677 C1678 1.369 . S
C1677 C1679 1.419 . S
C1677 H1681 0.930 . S
C1678 C1677 1.369 . S
C1678 C1687 1.429 . S
C1679 C1677 1.419 . S
C1679 C1680 1.363 . S
C1679 H1682 0.929 . S
C1680 C1679 1.363 . S
C1680 C1686 1.428 . S
H1681 C1677 0.930 . S
H1682 C1679 0.929 . S
S1683 N1684 1.613 . S
S1683 N1685 1.610 . S
N1684 S1683 1.613 . S
N1684 C1687 1.350 . S
N1685 S1683 1.610 . S
N1685 C1686 1.351 . S
C1686 C1680 1.428 . S
C1686 N1685 1.351 . S
C1686 C1687 1.434 . S
C1687 C1678 1.429 . S
C1687 N1684 1.350 . S
C1687 C1686 1.434 . S
C1688 C1689 1.369 1_545 S
C1688 C1690 1.419 . S
C1688 H1692 0.930 1_545 S
C1689 C1688 1.369 1_565 S
C1689 C1698 1.429 1_565 S
C1690 C1688 1.419 . S
C1690 C1691 1.363 . S
C1690 H1693 0.929 . S
C1691 C1690 1.363 . S
C1691 C1697 1.428 . S
H1692 C1688 0.930 1_565 S
H1693 C1690 0.929 . S
S1694 N1695 1.613 1_545 S
S1694 N1696 1.610 . S
N1695 S1694 1.613 1_565 S
N1695 C1698 1.350 1_565 S
N1696 S1694 1.610 . S
N1696 C1697 1.351 . S
C1697 C1691 1.428 . S
C1697 N1696 1.351 . S
C1697 C1698 1.434 . S
C1698 C1689 1.429 1_545 S
C1698 N1695 1.350 1_545 S
C1698 C1697 1.434 . S
C1699 C1700 1.369 . S
C1699 C1701 1.419 1_455 S
C1699 H1703 0.930 . S
C1700 C1699 1.369 . S
C1700 C1709 1.429 . S
C1701 C1699 1.419 1_655 S
C1701 C1702 1.363 . S
C1701 H1704 0.929 . S
C1702 C1701 1.363 . S
C1702 C1708 1.428 1_655 S
H1703 C1699 0.930 . S
H1704 C1701 0.929 . S
S1705 N1706 1.613 . S
S1705 N1707 1.610 1_455 S
N1706 S1705 1.613 . S
N1706 C1709 1.350 . S
N1707 S1705 1.610 1_655 S
N1707 C1708 1.351 1_655 S
C1708 C1702 1.428 1_455 S
C1708 N1707 1.351 1_455 S
C1708 C1709 1.434 . S
C1709 C1700 1.429 . S
C1709 N1706 1.350 . S
C1709 C1708 1.434 . S
C1710 C1711 1.369 . S
C1710 C1712 1.419 1_554 S
C1710 H1714 0.930 . S
C1711 C1710 1.369 . S
C1711 C1720 1.429 . S
C1712 C1710 1.419 1_556 S
C1712 C1713 1.363 . S
C1712 H1715 0.929 . S
C1713 C1712 1.363 . S
C1713 C1719 1.428 1_545 S
H1714 C1710 0.930 . S
H1715 C1712 0.929 . S
S1716 N1717 1.613 . S
S1716 N1718 1.610 1_554 S
N1717 S1716 1.613 . S
N1717 C1720 1.350 1_565 S
N1718 S1716 1.610 1_556 S
N1718 C1719 1.351 . S
C1719 C1713 1.428 1_565 S
C1719 N1718 1.351 . S
C1719 C1720 1.434 1_566 S
C1720 C1711 1.429 . S
C1720 N1717 1.350 1_545 S
C1720 C1719 1.434 1_544 S
C1721 C1722 1.369 . S
C1721 C1723 1.419 1_556 S
C1721 H1725 0.930 . S
C1722 C1721 1.369 . S
C1722 C1731 1.429 . S
C1723 C1721 1.419 1_554 S
C1723 C1724 1.363 . S
C1723 H1726 0.929 . S
C1724 C1723 1.363 . S
C1724 C1730 1.428 . S
H1725 C1721 0.930 . S
H1726 C1723 0.929 . S
S1727 N1728 1.613 1_554 S
S1727 N1729 1.610 . S
N1728 S1727 1.613 1_556 S
N1728 C1731 1.350 . S
N1729 S1727 1.610 . S
N1729 C1730 1.351 . S
C1730 C1724 1.428 . S
C1730 N1729 1.351 . S
C1730 C1731 1.434 1_554 S
C1731 C1722 1.429 . S
C1731 N1728 1.350 . S
C1731 C1730 1.434 1_556 S
C1732 C1733 1.369 . S
C1732 C1734 1.419 1_556 S
C1732 H1736 0.930 . S
C1733 C1732 1.369 . S
C1733 C1742 1.429 . S
C1734 C1732 1.419 1_554 S
C1734 C1735 1.363 . S
C1734 H1737 0.929 . S
C1735 C1734 1.363 . S
C1735 C1741 1.428 . S
H1736 C1732 0.930 . S
H1737 C1734 0.929 . S
S1738 N1739 1.613 1_554 S
S1738 N1740 1.610 . S
N1739 S1738 1.613 1_556 S
N1739 C1742 1.350 . S
N1740 S1738 1.610 . S
N1740 C1741 1.351 . S
C1741 C1735 1.428 . S
C1741 N1740 1.351 . S
C1741 C1742 1.434 1_554 S
C1742 C1733 1.429 . S
C1742 N1739 1.350 . S
C1742 C1741 1.434 1_556 S
C1743 C1744 1.369 . S
C1743 C1745 1.419 . S
C1743 H1747 0.930 . S
C1744 C1743 1.369 . S
C1744 C1753 1.429 . S
C1745 C1743 1.419 . S
C1745 C1746 1.363 . S
C1745 H1748 0.929 . S
C1746 C1745 1.363 . S
C1746 C1752 1.428 . S
H1747 C1743 0.930 . S
H1748 C1745 0.929 . S
S1749 N1750 1.613 . S
S1749 N1751 1.610 . S
N1750 S1749 1.613 . S
N1750 C1753 1.350 . S
N1751 S1749 1.610 . S
N1751 C1752 1.351 . S
C1752 C1746 1.428 . S
C1752 N1751 1.351 . S
C1752 C1753 1.434 . S
C1753 C1744 1.429 . S
C1753 N1750 1.350 . S
C1753 C1752 1.434 . S
C1754 C1755 1.369 . S
C1754 C1756 1.419 . S
C1754 H1758 0.930 . S
C1755 C1754 1.369 . S
C1755 C1764 1.429 . S
C1756 C1754 1.419 . S
C1756 C1757 1.363 . S
C1756 H1759 0.929 . S
C1757 C1756 1.363 . S
C1757 C1763 1.428 . S
H1758 C1754 0.930 . S
H1759 C1756 0.929 . S
S1760 N1761 1.613 . S
S1760 N1762 1.610 . S
N1761 S1760 1.613 . S
N1761 C1764 1.350 . S
N1762 S1760 1.610 . S
N1762 C1763 1.351 . S
C1763 C1757 1.428 . S
C1763 N1762 1.351 . S
C1763 C1764 1.434 . S
C1764 C1755 1.429 . S
C1764 N1761 1.350 . S
C1764 C1763 1.434 . S
C1765 C1766 1.369 . S
C1765 C1767 1.419 . S
C1765 H1769 0.930 . S
C1766 C1765 1.369 . S
C1766 C1775 1.429 . S
C1767 C1765 1.419 . S
C1767 C1768 1.363 . S
C1767 H1770 0.929 . S
C1768 C1767 1.363 . S
C1768 C1774 1.428 . S
H1769 C1765 0.930 . S
H1770 C1767 0.929 . S
S1771 N1772 1.613 . S
S1771 N1773 1.610 . S
N1772 S1771 1.613 . S
N1772 C1775 1.350 . S
N1773 S1771 1.610 . S
N1773 C1774 1.351 . S
C1774 C1768 1.428 . S
C1774 N1773 1.351 . S
C1774 C1775 1.434 . S
C1775 C1766 1.429 . S
C1775 N1772 1.350 . S
C1775 C1774 1.434 . S
C1776 C1777 1.369 . S
C1776 C1778 1.419 . S
C1776 H1780 0.930 . S
C1777 C1776 1.369 . S
C1777 C1786 1.429 . S
C1778 C1776 1.419 . S
C1778 C1779 1.363 . S
C1778 H1781 0.929 . S
C1779 C1778 1.363 . S
C1779 C1785 1.428 . S
H1780 C1776 0.930 . S
H1781 C1778 0.929 . S
S1782 N1783 1.613 . S
S1782 N1784 1.610 . S
N1783 S1782 1.613 . S
N1783 C1786 1.350 . S
N1784 S1782 1.610 . S
N1784 C1785 1.351 . S
C1785 C1779 1.428 . S
C1785 N1784 1.351 . S
C1785 C1786 1.434 . S
C1786 C1777 1.429 . S
C1786 N1783 1.350 . S
C1786 C1785 1.434 . S
C1787 C1788 1.369 . S
C1787 C1789 1.419 . S
C1787 H1791 0.930 . S
C1788 C1787 1.369 . S
C1788 C1797 1.429 . S
C1789 C1787 1.419 . S
C1789 C1790 1.363 . S
C1789 H1792 0.929 . S
C1790 C1789 1.363 . S
C1790 C1796 1.428 . S
H1791 C1787 0.930 . S
H1792 C1789 0.929 . S
S1793 N1794 1.613 . S
S1793 N1795 1.610 . S
N1794 S1793 1.613 . S
N1794 C1797 1.350 . S
N1795 S1793 1.610 . S
N1795 C1796 1.351 . S
C1796 C1790 1.428 . S
C1796 N1795 1.351 . S
C1796 C1797 1.434 . S
C1797 C1788 1.429 . S
C1797 N1794 1.350 . S
C1797 C1796 1.434 . S
C1798 C1799 1.369 . S
C1798 C1800 1.419 . S
C1798 H1802 0.930 . S
C1799 C1798 1.369 . S
C1799 C1808 1.429 . S
C1800 C1798 1.419 . S
C1800 C1801 1.363 . S
C1800 H1803 0.929 . S
C1801 C1800 1.363 . S
C1801 C1807 1.428 . S
H1802 C1798 0.930 . S
H1803 C1800 0.929 . S
S1804 N1805 1.613 . S
S1804 N1806 1.610 . S
N1805 S1804 1.613 . S
N1805 C1808 1.350 . S
N1806 S1804 1.610 . S
N1806 C1807 1.351 . S
C1807 C1801 1.428 . S
C1807 N1806 1.351 . S
C1807 C1808 1.434 . S
C1808 C1799 1.429 . S
C1808 N1805 1.350 . S
C1808 C1807 1.434 . S
C1809 C1810 1.369 . S
C1809 C1811 1.419 . S
C1809 H1813 0.930 . S
C1810 C1809 1.369 . S
C1810 C1819 1.429 . S
C1811 C1809 1.419 . S
C1811 C1812 1.363 . S
C1811 H1814 0.929 . S
C1812 C1811 1.363 . S
C1812 C1818 1.428 . S
H1813 C1809 0.930 . S
H1814 C1811 0.929 . S
S1815 N1816 1.613 . S
S1815 N1817 1.610 . S
N1816 S1815 1.613 . S
N1816 C1819 1.350 . S
N1817 S1815 1.610 . S
N1817 C1818 1.351 . S
C1818 C1812 1.428 . S
C1818 N1817 1.351 . S
C1818 C1819 1.434 . S
C1819 C1810 1.429 . S
C1819 N1816 1.350 . S
C1819 C1818 1.434 . S
C1820 C1821 1.369 . S
C1820 C1822 1.419 . S
C1820 H1824 0.930 . S
C1821 C1820 1.369 . S
C1821 C1830 1.429 . S
C1822 C1820 1.419 . S
C1822 C1823 1.363 . S
C1822 H1825 0.929 . S
C1823 C1822 1.363 . S
C1823 C1829 1.428 . S
H1824 C1820 0.930 . S
H1825 C1822 0.929 . S
S1826 N1827 1.613 . S
S1826 N1828 1.610 . S
N1827 S1826 1.613 . S
N1827 C1830 1.350 . S
N1828 S1826 1.610 . S
N1828 C1829 1.351 . S
C1829 C1823 1.428 . S
C1829 N1828 1.351 . S
C1829 C1830 1.434 . S
C1830 C1821 1.429 . S
C1830 N1827 1.350 . S
C1830 C1829 1.434 . S
C1831 C1832 1.369 . S
C1831 C1833 1.419 . S
C1831 H1835 0.930 . S
C1832 C1831 1.369 . S
C1832 C1841 1.429 . S
C1833 C1831 1.419 . S
C1833 C1834 1.363 . S
C1833 H1836 0.929 . S
C1834 C1833 1.363 . S
C1834 C1840 1.428 . S
H1835 C1831 0.930 . S
H1836 C1833 0.929 . S
S1837 N1838 1.613 . S
S1837 N1839 1.610 . S
N1838 S1837 1.613 . S
N1838 C1841 1.350 . S
N1839 S1837 1.610 . S
N1839 C1840 1.351 . S
C1840 C1834 1.428 . S
C1840 N1839 1.351 . S
C1840 C1841 1.434 . S
C1841 C1832 1.429 . S
C1841 N1838 1.350 . S
C1841 C1840 1.434 . S
C1842 C1843 1.369 . S
C1842 C1844 1.419 . S
C1842 H1846 0.930 . S
C1843 C1842 1.369 . S
C1843 C1852 1.429 . S
C1844 C1842 1.419 . S
C1844 C1845 1.363 . S
C1844 H1847 0.929 . S
C1845 C1844 1.363 . S
C1845 C1851 1.428 . S
H1846 C1842 0.930 . S
H1847 C1844 0.929 . S
S1848 N1849 1.613 . S
S1848 N1850 1.610 1_455 S
N1849 S1848 1.613 . S
N1849 C1852 1.350 1_455 S
N1850 S1848 1.610 1_655 S
N1850 C1851 1.351 . S
C1851 C1845 1.428 . S
C1851 N1850 1.351 . S
C1851 C1852 1.434 . S
C1852 C1843 1.429 . S
C1852 N1849 1.350 1_655 S
C1852 C1851 1.434 . S
C1853 C1854 1.369 . S
C1853 C1855 1.419 . S
C1853 H1857 0.930 . S
C1854 C1853 1.369 . S
C1854 C1863 1.429 . S
C1855 C1853 1.419 . S
C1855 C1856 1.363 . S
C1855 H1858 0.929 . S
C1856 C1855 1.363 . S
C1856 C1862 1.428 . S
H1857 C1853 0.930 . S
H1858 C1855 0.929 . S
S1859 N1860 1.613 . S
S1859 N1861 1.610 . S
N1860 S1859 1.613 . S
N1860 C1863 1.350 . S
N1861 S1859 1.610 . S
N1861 C1862 1.351 . S
C1862 C1856 1.428 . S
C1862 N1861 1.351 . S
C1862 C1863 1.434 . S
C1863 C1854 1.429 . S
C1863 N1860 1.350 . S
C1863 C1862 1.434 . S
C1864 C1865 1.369 . S
C1864 C1866 1.419 . S
C1864 H1868 0.930 . S
C1865 C1864 1.369 . S
C1865 C1874 1.429 . S
C1866 C1864 1.419 . S
C1866 C1867 1.363 . S
C1866 H1869 0.929 . S
C1867 C1866 1.363 . S
C1867 C1873 1.428 . S
H1868 C1864 0.930 . S
H1869 C1866 0.929 . S
S1870 N1871 1.613 . S
S1870 N1872 1.610 . S
N1871 S1870 1.613 . S
N1871 C1874 1.350 . S
N1872 S1870 1.610 . S
N1872 C1873 1.351 . S
C1873 C1867 1.428 . S
C1873 N1872 1.351 . S
C1873 C1874 1.434 . S
C1874 C1865 1.429 . S
C1874 N1871 1.350 . S
C1874 C1873 1.434 . S
C1875 C1876 1.369 1_455 S
C1875 C1877 1.419 . S
C1875 H1879 0.930 1_455 S
C1876 C1875 1.369 1_655 S
C1876 C1885 1.429 1_655 S
C1877 C1875 1.419 . S
C1877 C1878 1.363 . S
C1877 H1880 0.929 . S
C1878 C1877 1.363 . S
C1878 C1884 1.428 . S
H1879 C1875 0.930 1_655 S
H1880 C1877 0.929 . S
S1881 N1882 1.613 1_455 S
S1881 N1883 1.610 . S
N1882 S1881 1.613 1_655 S
N1882 C1885 1.350 1_655 S
N1883 S1881 1.610 . S
N1883 C1884 1.351 . S
C1884 C1878 1.428 . S
C1884 N1883 1.351 . S
C1884 C1885 1.434 . S
C1885 C1876 1.429 1_455 S
C1885 N1882 1.350 1_455 S
C1885 C1884 1.434 . S
C1886 C1887 1.369 . S
C1886 C1888 1.419 . S
C1886 H1890 0.930 . S
C1887 C1886 1.369 . S
C1887 C1896 1.429 . S
C1888 C1886 1.419 . S
C1888 C1889 1.363 . S
C1888 H1891 0.929 . S
C1889 C1888 1.363 . S
C1889 C1895 1.428 . S
H1890 C1886 0.930 . S
H1891 C1888 0.929 . S
S1892 N1893 1.613 . S
S1892 N1894 1.610 . S
N1893 S1892 1.613 . S
N1893 C1896 1.350 . S
N1894 S1892 1.610 . S
N1894 C1895 1.351 . S
C1895 C1889 1.428 . S
C1895 N1894 1.351 . S
C1895 C1896 1.434 . S
C1896 C1887 1.429 . S
C1896 N1893 1.350 . S
C1896 C1895 1.434 . S
C1897 C1898 1.369 . S
C1897 C1899 1.419 1_565 S
C1897 H1901 0.930 . S
C1898 C1897 1.369 . S
C1898 C1907 1.429 1_565 S
C1899 C1897 1.419 1_545 S
C1899 C1900 1.363 . S
C1899 H1902 0.929 . S
C1900 C1899 1.363 . S
C1900 C1906 1.428 . S
H1901 C1897 0.930 . S
H1902 C1899 0.929 . S
S1903 N1904 1.613 . S
S1903 N1905 1.610 . S
N1904 S1903 1.613 . S
N1904 C1907 1.350 . S
N1905 S1903 1.610 . S
N1905 C1906 1.351 . S
C1906 C1900 1.428 . S
C1906 N1905 1.351 . S
C1906 C1907 1.434 . S
C1907 C1898 1.429 1_545 S
C1907 N1904 1.350 . S
C1907 C1906 1.434 . S
C1908 C1909 1.369 . S
C1908 C1910 1.419 . S
C1908 H1912 0.930 . S
C1909 C1908 1.369 . S
C1909 C1918 1.429 . S
C1910 C1908 1.419 . S
C1910 C1911 1.363 . S
C1910 H1913 0.929 . S
C1911 C1910 1.363 . S
C1911 C1917 1.428 . S
H1912 C1908 0.930 . S
H1913 C1910 0.929 . S
S1914 N1915 1.613 . S
S1914 N1916 1.610 . S
N1915 S1914 1.613 . S
N1915 C1918 1.350 . S
N1916 S1914 1.610 . S
N1916 C1917 1.351 . S
C1917 C1911 1.428 . S
C1917 N1916 1.351 . S
C1917 C1918 1.434 . S
C1918 C1909 1.429 . S
C1918 N1915 1.350 . S
C1918 C1917 1.434 . S
C1919 C1920 1.369 . S
C1919 C1921 1.419 . S
C1919 H1923 0.930 . S
C1920 C1919 1.369 . S
C1920 C1929 1.429 . S
C1921 C1919 1.419 . S
C1921 C1922 1.363 . S
C1921 H1924 0.929 . S
C1922 C1921 1.363 . S
C1922 C1928 1.428 . S
H1923 C1919 0.930 . S
H1924 C1921 0.929 . S
S1925 N1926 1.613 . S
S1925 N1927 1.610 . S
N1926 S1925 1.613 . S
N1926 C1929 1.350 . S
N1927 S1925 1.610 . S
N1927 C1928 1.351 . S
C1928 C1922 1.428 . S
C1928 N1927 1.351 . S
C1928 C1929 1.434 . S
C1929 C1920 1.429 . S
C1929 N1926 1.350 . S
C1929 C1928 1.434 . S
C1930 C1931 1.369 . S
C1930 C1932 1.419 . S
C1930 H1934 0.930 . S
C1931 C1930 1.369 . S
C1931 C1940 1.429 . S
C1932 C1930 1.419 . S
C1932 C1933 1.363 . S
C1932 H1935 0.929 . S
C1933 C1932 1.363 . S
C1933 C1939 1.428 . S
H1934 C1930 0.930 . S
H1935 C1932 0.929 . S
S1936 N1937 1.613 . S
S1936 N1938 1.610 . S
N1937 S1936 1.613 . S
N1937 C1940 1.350 . S
N1938 S1936 1.610 . S
N1938 C1939 1.351 . S
C1939 C1933 1.428 . S
C1939 N1938 1.351 . S
C1939 C1940 1.434 . S
C1940 C1931 1.429 . S
C1940 N1937 1.350 . S
C1940 C1939 1.434 . S
C1941 C1942 1.369 . S
C1941 C1943 1.419 . S
C1941 H1945 0.930 . S
C1942 C1941 1.369 . S
C1942 C1951 1.429 . S
C1943 C1941 1.419 . S
C1943 C1944 1.363 . S
C1943 H1946 0.929 . S
C1944 C1943 1.363 . S
C1944 C1950 1.428 . S
H1945 C1941 0.930 . S
H1946 C1943 0.929 . S
S1947 N1948 1.613 . S
S1947 N1949 1.610 . S
N1948 S1947 1.613 . S
N1948 C1951 1.350 . S
N1949 S1947 1.610 . S
N1949 C1950 1.351 . S
C1950 C1944 1.428 . S
C1950 N1949 1.351 . S
C1950 C1951 1.434 . S
C1951 C1942 1.429 . S
C1951 N1948 1.350 . S
C1951 C1950 1.434 . S
C1952 C1953 1.369 . S
C1952 C1954 1.419 . S
C1952 H1956 0.930 . S
C1953 C1952 1.369 . S
C1953 C1962 1.429 . S
C1954 C1952 1.419 . S
C1954 C1955 1.363 . S
C1954 H1957 0.929 . S
C1955 C1954 1.363 . S
C1955 C1961 1.428 . S
H1956 C1952 0.930 . S
H1957 C1954 0.929 . S
S1958 N1959 1.613 . S
S1958 N1960 1.610 . S
N1959 S1958 1.613 . S
N1959 C1962 1.350 . S
N1960 S1958 1.610 . S
N1960 C1961 1.351 . S
C1961 C1955 1.428 . S
C1961 N1960 1.351 . S
C1961 C1962 1.434 . S
C1962 C1953 1.429 . S
C1962 N1959 1.350 . S
C1962 C1961 1.434 . S
C1963 C1964 1.369 . S
C1963 C1965 1.419 . S
C1963 H1967 0.930 . S
C1964 C1963 1.369 . S
C1964 C1973 1.429 . S
C1965 C1963 1.419 . S
C1965 C1966 1.363 . S
C1965 H1968 0.929 . S
C1966 C1965 1.363 . S
C1966 C1972 1.428 . S
H1967 C1963 0.930 . S
H1968 C1965 0.929 . S
S1969 N1970 1.613 . S
S1969 N1971 1.610 . S
N1970 S1969 1.613 . S
N1970 C1973 1.350 . S
N1971 S1969 1.610 . S
N1971 C1972 1.351 . S
C1972 C1966 1.428 . S
C1972 N1971 1.351 . S
C1972 C1973 1.434 . S
C1973 C1964 1.429 . S
C1973 N1970 1.350 . S
C1973 C1972 1.434 . S
C1974 C1975 1.369 . S
C1974 C1976 1.419 . S
C1974 H1978 0.930 . S
C1975 C1974 1.369 . S
C1975 C1984 1.429 . S
C1976 C1974 1.419 . S
C1976 C1977 1.363 . S
C1976 H1979 0.929 . S
C1977 C1976 1.363 . S
C1977 C1983 1.428 . S
H1978 C1974 0.930 . S
H1979 C1976 0.929 . S
S1980 N1981 1.613 . S
S1980 N1982 1.610 . S
N1981 S1980 1.613 . S
N1981 C1984 1.350 . S
N1982 S1980 1.610 . S
N1982 C1983 1.351 . S
C1983 C1977 1.428 . S
C1983 N1982 1.351 . S
C1983 C1984 1.434 . S
C1984 C1975 1.429 . S
C1984 N1981 1.350 . S
C1984 C1983 1.434 . S
C1985 C1986 1.369 . S
C1985 C1987 1.419 . S
C1985 H1989 0.930 . S
C1986 C1985 1.369 . S
C1986 C1995 1.429 . S
C1987 C1985 1.419 . S
C1987 C1988 1.363 . S
C1987 H1990 0.929 . S
C1988 C1987 1.363 . S
C1988 C1994 1.428 . S
H1989 C1985 0.930 . S
H1990 C1987 0.929 . S
S1991 N1992 1.613 . S
S1991 N1993 1.610 . S
N1992 S1991 1.613 . S
N1992 C1995 1.350 . S
N1993 S1991 1.610 . S
N1993 C1994 1.351 . S
C1994 C1988 1.428 . S
C1994 N1993 1.351 . S
C1994 C1995 1.434 . S
C1995 C1986 1.429 . S
C1995 N1992 1.350 . S
C1995 C1994 1.434 . S
C1996 C1997 1.369 . S
C1996 C1998 1.419 . S
C1996 H2000 0.930 . S
C1997 C1996 1.369 . S
C1997 C2006 1.429 . S
C1998 C1996 1.419 . S
C1998 C1999 1.363 . S
C1998 H2001 0.929 . S
C1999 C1998 1.363 . S
C1999 C2005 1.428 . S
H2000 C1996 0.930 . S
H2001 C1998 0.929 . S
S2002 N2003 1.613 . S
S2002 N2004 1.610 . S
N2003 S2002 1.613 . S
N2003 C2006 1.350 . S
N2004 S2002 1.610 . S
N2004 C2005 1.351 . S
C2005 C1999 1.428 . S
C2005 N2004 1.351 . S
C2005 C2006 1.434 . S
C2006 C1997 1.429 . S
C2006 N2003 1.350 . S
C2006 C2005 1.434 . S
C2007 C2008 1.369 . S
C2007 C2009 1.419 . S
C2007 H2011 0.930 . S
C2008 C2007 1.369 . S
C2008 C2017 1.429 . S
C2009 C2007 1.419 . S
C2009 C2010 1.363 . S
C2009 H2012 0.929 . S
C2010 C2009 1.363 . S
C2010 C2016 1.428 . S
H2011 C2007 0.930 . S
H2012 C2009 0.929 . S
S2013 N2014 1.613 . S
S2013 N2015 1.610 . S
N2014 S2013 1.613 . S
N2014 C2017 1.350 . S
N2015 S2013 1.610 . S
N2015 C2016 1.351 . S
C2016 C2010 1.428 . S
C2016 N2015 1.351 . S
C2016 C2017 1.434 . S
C2017 C2008 1.429 . S
C2017 N2014 1.350 . S
C2017 C2016 1.434 . S
C2018 C2019 1.369 . S
C2018 C2020 1.419 1_565 S
C2018 H2022 0.930 . S
C2019 C2018 1.369 . S
C2019 C2028 1.429 1_565 S
C2020 C2018 1.419 1_545 S
C2020 C2021 1.363 . S
C2020 H2023 0.929 . S
C2021 C2020 1.363 . S
C2021 C2027 1.428 . S
H2022 C2018 0.930 . S
H2023 C2020 0.929 . S
S2024 N2025 1.613 . S
S2024 N2026 1.610 . S
N2025 S2024 1.613 . S
N2025 C2028 1.350 . S
N2026 S2024 1.610 . S
N2026 C2027 1.351 . S
C2027 C2021 1.428 . S
C2027 N2026 1.351 . S
C2027 C2028 1.434 . S
C2028 C2019 1.429 1_545 S
C2028 N2025 1.350 . S
C2028 C2027 1.434 . S
C2029 C2030 1.369 . S
C2029 C2031 1.419 1_655 S
C2029 H2033 0.930 . S
C2030 C2029 1.369 . S
C2030 C2039 1.429 1_655 S
C2031 C2029 1.419 1_455 S
C2031 C2032 1.363 . S
C2031 H2034 0.929 . S
C2032 C2031 1.363 . S
C2032 C2038 1.428 . S
H2033 C2029 0.930 . S
H2034 C2031 0.929 . S
S2035 N2036 1.613 1_455 S
S2035 N2037 1.610 . S
N2036 S2035 1.613 1_655 S
N2036 C2039 1.350 1_655 S
N2037 S2035 1.610 . S
N2037 C2038 1.351 . S
C2038 C2032 1.428 . S
C2038 N2037 1.351 . S
C2038 C2039 1.434 . S
C2039 C2030 1.429 1_455 S
C2039 N2036 1.350 1_455 S
C2039 C2038 1.434 . S
C2040 C2041 1.369 . S
C2040 C2042 1.419 . S
C2040 H2044 0.930 . S
C2041 C2040 1.369 . S
C2041 C2050 1.429 . S
C2042 C2040 1.419 . S
C2042 C2043 1.363 . S
C2042 H2045 0.929 . S
C2043 C2042 1.363 . S
C2043 C2049 1.428 . S
H2044 C2040 0.930 . S
H2045 C2042 0.929 . S
S2046 N2047 1.613 . S
S2046 N2048 1.610 . S
N2047 S2046 1.613 . S
N2047 C2050 1.350 . S
N2048 S2046 1.610 . S
N2048 C2049 1.351 . S
C2049 C2043 1.428 . S
C2049 N2048 1.351 . S
C2049 C2050 1.434 . S
C2050 C2041 1.429 . S
C2050 N2047 1.350 . S
C2050 C2049 1.434 . S
C2051 C2052 1.369 . S
C2051 C2053 1.419 . S
C2051 H2055 0.930 . S
C2052 C2051 1.369 . S
C2052 C2061 1.429 . S
C2053 C2051 1.419 . S
C2053 C2054 1.363 1_545 S
C2053 H2056 0.929 . S
C2054 C2053 1.363 1_565 S
C2054 C2060 1.428 . S
H2055 C2051 0.930 . S
H2056 C2053 0.929 . S
S2057 N2058 1.613 1_565 S
S2057 N2059 1.610 . S
N2058 S2057 1.613 1_545 S
N2058 C2061 1.350 . S
N2059 S2057 1.610 . S
N2059 C2060 1.351 . S
C2060 C2054 1.428 . S
C2060 N2059 1.351 . S
C2060 C2061 1.434 1_565 S
C2061 C2052 1.429 . S
C2061 N2058 1.350 . S
C2061 C2060 1.434 1_545 S
C2062 C2063 1.369 . S
C2062 C2064 1.419 . S
C2062 H2066 0.930 . S
C2063 C2062 1.369 . S
C2063 C2072 1.429 . S
C2064 C2062 1.419 . S
C2064 C2065 1.363 1_455 S
C2064 H2067 0.919 1_455 S
C2065 C2064 1.363 1_655 S
C2065 C2071 1.428 1_655 S
H2066 C2062 0.930 . S
H2067 C2064 0.919 1_655 S
S2068 N2069 1.613 . S
S2068 N2070 1.610 . S
N2069 S2068 1.613 . S
N2069 C2072 1.350 . S
N2070 S2068 1.610 . S
N2070 C2071 1.351 . S
C2071 C2065 1.428 1_455 S
C2071 N2070 1.351 . S
C2071 C2072 1.434 . S
C2072 C2063 1.429 . S
C2072 N2069 1.350 . S
C2072 C2071 1.434 . S
C2073 C2074 1.369 . S
C2073 C2075 1.419 . S
C2073 H2077 0.930 . S
C2074 C2073 1.369 . S
C2074 C2083 1.429 . S
C2075 C2073 1.419 . S
C2075 C2076 1.363 . S
C2075 H2078 0.929 . S
C2076 C2075 1.363 . S
C2076 C2082 1.428 . S
H2077 C2073 0.930 . S
H2078 C2075 0.929 . S
S2079 N2080 1.613 . S
S2079 N2081 1.610 . S
N2080 S2079 1.613 . S
N2080 C2083 1.350 . S
N2081 S2079 1.610 . S
N2081 C2082 1.351 . S
C2082 C2076 1.428 . S
C2082 N2081 1.351 . S
C2082 C2083 1.434 . S
C2083 C2074 1.429 . S
C2083 N2080 1.350 . S
C2083 C2082 1.434 . S
C2084 C2085 1.369 . S
C2084 C2086 1.419 . S
C2084 H2088 0.930 . S
C2085 C2084 1.369 . S
C2085 C2094 1.429 . S
C2086 C2084 1.419 . S
C2086 C2087 1.363 . S
C2086 H2089 0.929 . S
C2087 C2086 1.363 . S
C2087 C2093 1.428 . S
H2088 C2084 0.930 . S
H2089 C2086 0.929 . S
S2090 N2091 1.613 . S
S2090 N2092 1.610 . S
N2091 S2090 1.613 . S
N2091 C2094 1.350 . S
N2092 S2090 1.610 . S
N2092 C2093 1.351 . S
C2093 C2087 1.428 . S
C2093 N2092 1.351 . S
C2093 C2094 1.434 . S
C2094 C2085 1.429 . S
C2094 N2091 1.350 . S
C2094 C2093 1.434 . S
C2095 C2096 1.369 . S
C2095 C2097 1.419 . S
C2095 H2099 0.930 . S
C2096 C2095 1.369 . S
C2096 C2105 1.429 . S
C2097 C2095 1.419 . S
C2097 C2098 1.363 . S
C2097 H2100 0.929 . S
C2098 C2097 1.363 . S
C2098 C2104 1.428 . S
H2099 C2095 0.930 . S
H2100 C2097 0.929 . S
S2101 N2102 1.613 . S
S2101 N2103 1.610 . S
N2102 S2101 1.613 . S
N2102 C2105 1.350 . S
N2103 S2101 1.610 . S
N2103 C2104 1.351 . S
C2104 C2098 1.428 . S
C2104 N2103 1.351 . S
C2104 C2105 1.434 . S
C2105 C2096 1.429 . S
C2105 N2102 1.350 . S
C2105 C2104 1.434 . S
C1513 C67 1.030 . S
C1515 C238 0.988 . S
C1524 C70 0.990 . S
C1526 C151 1.025 . S
C1535 C154 0.973 . S
C1537 C235 1.020 . S
C1546 C319 1.024 . S
C1548 C406 0.986 . S
C1557 C490 0.977 . S
C1559 C403 1.019 . S
C1568 C487 1.030 . S
C1570 C322 0.990 . S
C1579 C742 0.992 . S
C1581 C571 1.027 . S
C1590 C574 0.987 . S
C1592 C655 1.028 . S
C1601 C739 1.028 . S
C1603 C658 0.989 . S
C1612 C910 0.981 . S
C1614 C823 1.021 . S
C1623 C907 1.027 . S
C1625 C994 0.983 . S
C1634 C826 0.988 . S
C1636 C991 1.028 . S
C1645 C1075 1.017 . S
C1647 C1246 0.977 . S
C1656 C1078 0.990 . S
C1658 C1159 1.029 . S
C1667 C1162 0.980 . S
C1669 C1243 1.025 . S
C1678 C1414 0.980 . S
C1680 C1327 1.025 . S
C1689 C1498 0.973 . S
C1691 C1411 1.020 . S
C1700 C1330 0.979 . S
C1702 C1495 1.025 . S
C1711 C63 1.844 . S
C1713 C483 1.853 . S
C1722 C315 1.847 . S
C1724 C147 1.850 . S
C1733 C399 1.852 . S
C1735 C231 1.846 . S
C1744 C567 1.854 . S
C1746 C987 1.846 . S
C1755 C651 1.854 . S
C1757 C819 1.845 . S
C1766 C903 1.853 . S
C1768 C735 1.846 . S
C1777 C1071 1.844 . S
C1779 C1491 1.854 . S
C1788 C1323 1.851 . S
C1790 C1155 1.849 . S
C1799 C1407 1.855 . S
C1801 C1239 1.845 . S
C1810 C914 2.120 . S
C1812 C74 2.115 . S
C1821 C158 2.113 . S
C1823 C998 2.113 . S
C1832 C830 2.113 . S
C1834 C242 2.119 . S
C1843 C326 2.118 . S
C1845 C1250 2.112 . S
C1854 C410 2.113 . S
C1856 C1082 2.114 . S
C1865 C1166 2.111 . S
C1867 C494 2.117 . S
C1876 C1418 2.118 . S
C1878 C578 2.119 . S
C1887 C662 2.119 . S
C1889 C1502 2.118 . S
C1898 C746 2.112 . S
C1900 C1334 2.114 . S
C1909 C226 1.661 . S
C1911 C56 1.745 . S
C1920 C58 1.651 . S
C1922 C140 1.742 . S
C1931 C224 1.737 . S
C1933 C142 1.653 . S
C1942 C394 1.652 . S
C1944 C308 1.738 . S
C1953 C478 1.663 . S
C1955 C392 1.740 . S
C1964 C476 1.737 . S
C1966 C310 1.654 . S
C1975 C730 1.651 . S
C1977 C560 1.739 . S
C1986 C644 1.736 . S
C1988 C562 1.655 . S
C1997 C646 1.663 . S
C1999 C728 1.744 . S
C2008 C812 1.739 . S
C2010 C898 1.661 . S
C2019 C896 1.745 . S
C2021 C982 1.656 . S
C2030 C814 1.663 . S
C2032 C980 1.743 . S
C2041 C1064 1.742 . S
C2043 C1234 1.662 . S
C2052 C1148 1.744 . S
C2054 C1066 1.654 . S
C2063 C1150 1.661 . S
C2065 C1232 1.744 . S
C2074 C1316 1.738 . S
C2076 C1402 1.660 . S
C2085 C1400 1.744 . S
C2087 C1486 1.662 . S
C2096 C1318 1.659 . S
C2098 C1484 1.745 . S
