# Generated by pormake.
# Topology una, (4)-cn, num edge types: 1
# Building blocks:
#     Node 0, Type 0, BuildingBlock: GALJAG_clean_sbu_0, # of connection points: 4
#     Node 1, Type 0, BuildingBlock: GALJAG_clean_sbu_0, # of connection points: 4
#     Node 2, Type 0, BuildingBlock: GALJAG_clean_sbu_0, # of connection points: 4
#     Node 3, Type 0, BuildingBlock: GALJAG_clean_sbu_0, # of connection points: 4
#     Node 4, Type 0, BuildingBlock: GALJAG_clean_sbu_0, # of connection points: 4
#     Node 5, Type 0, BuildingBlock: GALJAG_clean_sbu_0, # of connection points: 4
#     Node 6, Type 0, BuildingBlock: GALJAG_clean_sbu_0, # of connection points: 4
#     Node 7, Type 0, BuildingBlock: GALJAG_clean_sbu_0, # of connection points: 4
#     Node 8, Type 0, BuildingBlock: GALJAG_clean_sbu_0, # of connection points: 4
#     Node 9, Type 0, BuildingBlock: GALJAG_clean_sbu_0, # of connection points: 4
#     Node 10, Type 0, BuildingBlock: GALJAG_clean_sbu_0, # of connection points: 4
#     Node 11, Type 0, BuildingBlock: GALJAG_clean_sbu_0, # of connection points: 4
#     Edge 12, Type (0, 0), BuildingBlock: ZUJKAS_clean_linker_0, # of connection points: 2
#     Edge 13, Type (0, 0), BuildingBlock: ZUJKAS_clean_linker_0, # of connection points: 2
#     Edge 14, Type (0, 0), BuildingBlock: ZUJKAS_clean_linker_0, # of connection points: 2
#     Edge 15, Type (0, 0), BuildingBlock: ZUJKAS_clean_linker_0, # of connection points: 2
#     Edge 16, Type (0, 0), BuildingBlock: ZUJKAS_clean_linker_0, # of connection points: 2
#     Edge 17, Type (0, 0), BuildingBlock: ZUJKAS_clean_linker_0, # of connection points: 2
#     Edge 18, Type (0, 0), BuildingBlock: ZUJKAS_clean_linker_0, # of connection points: 2
#     Edge 19, Type (0, 0), BuildingBlock: ZUJKAS_clean_linker_0, # of connection points: 2
#     Edge 20, Type (0, 0), BuildingBlock: ZUJKAS_clean_linker_0, # of connection points: 2
#     Edge 21, Type (0, 0), BuildingBlock: ZUJKAS_clean_linker_0, # of connection points: 2
#     Edge 22, Type (0, 0), BuildingBlock: ZUJKAS_clean_linker_0, # of connection points: 2
#     Edge 23, Type (0, 0), BuildingBlock: ZUJKAS_clean_linker_0, # of connection points: 2
#     Edge 24, Type (0, 0), BuildingBlock: ZUJKAS_clean_linker_0, # of connection points: 2
#     Edge 25, Type (0, 0), BuildingBlock: ZUJKAS_clean_linker_0, # of connection points: 2
#     Edge 26, Type (0, 0), BuildingBlock: ZUJKAS_clean_linker_0, # of connection points: 2
#     Edge 27, Type (0, 0), BuildingBlock: ZUJKAS_clean_linker_0, # of connection points: 2
#     Edge 28, Type (0, 0), BuildingBlock: ZUJKAS_clean_linker_0, # of connection points: 2
#     Edge 29, Type (0, 0), BuildingBlock: ZUJKAS_clean_linker_0, # of connection points: 2
#     Edge 30, Type (0, 0), BuildingBlock: ZUJKAS_clean_linker_0, # of connection points: 2
#     Edge 31, Type (0, 0), BuildingBlock: ZUJKAS_clean_linker_0, # of connection points: 2
#     Edge 32, Type (0, 0), BuildingBlock: ZUJKAS_clean_linker_0, # of connection points: 2
#     Edge 33, Type (0, 0), BuildingBlock: ZUJKAS_clean_linker_0, # of connection points: 2
#     Edge 34, Type (0, 0), BuildingBlock: ZUJKAS_clean_linker_0, # of connection points: 2
#     Edge 35, Type (0, 0), BuildingBlock: ZUJKAS_clean_linker_0, # of connection points: 2
# Relax obj value: 0.044
# Max RMSD: 0.038
# Mean RMSD: 0.038
data_MOF--net-una--node1-GALJAG_clean_sbu_0--edge1-ZUJKAS_clean_linker_0
_symmetry_space_group_name_H-M    P1
_symmetry_Int_Tables_number       1
_symmetry_cell_setting            triclinic
loop_
_symmetry_equiv_pos_as_xyz
'x, y, z'
_cell_length_a     78.857972
_cell_length_b     78.857588
_cell_length_c     25.968698
_cell_angle_alpha  90.024567
_cell_angle_beta   89.981361
_cell_angle_gamma 119.99447
loop_
_atom_site_label
_atom_site_type_symbol
_atom_site_fract_x
_atom_site_fract_y
_atom_site_fract_z
_atom_type_partial_charge
In0 In 0.12733 0.43946 0.06298 0.0
O1 O 0.09479 0.4157 0.06782 0.0
O2 O 0.10683 0.42752 0.99453 0.0
C3 C 0.14294 0.43198 0.14681 0.0
C4 C 0.12385 0.47128 0.08094 0.0
C5 C 0.1544 0.44146 0.9964 0.0
O6 O 0.12951 0.41845 0.12057 0.0
O7 O 0.1477 0.44901 0.13214 0.0
O8 O 0.15436 0.45654 0.01266 0.0
O9 O 0.1407 0.42546 0.01337 0.0
C10 C 0.09196 0.41572 0.01992 0.0
O11 O 0.13315 0.46999 0.043 0.0
O12 O 0.11619 0.45643 0.10996 0.0
In13 In 0.68684 0.1285 0.2311 0.0
O14 O 0.67691 0.09564 0.23544 0.0
O15 O 0.68479 0.10958 0.16261 0.0
C16 C 0.70909 0.14259 0.31689 0.0
C17 C 0.65203 0.12622 0.25009 0.0
C18 C 0.70994 0.15601 0.16262 0.0
O19 O 0.71014 0.13035 0.28758 0.0
O20 O 0.69619 0.14678 0.30428 0.0
O21 O 0.69154 0.14635 0.1578 0.0
O22 O 0.71656 0.15168 0.20154 0.0
C23 C 0.67862 0.09394 0.18766 0.0
O24 O 0.66575 0.14032 0.22616 0.0
O25 O 0.65584 0.11322 0.2646 0.0
In26 In 0.55888 0.68659 0.3893 0.0
O27 O 0.58365 0.67928 0.3997 0.0
O28 O 0.57247 0.67831 0.32468 0.0
C29 C 0.56277 0.71158 0.4656 0.0
C30 C 0.52671 0.65142 0.40742 0.0
C31 C 0.56047 0.71124 0.31612 0.0
O32 O 0.57509 0.70591 0.45982 0.0
O33 O 0.54844 0.7039 0.43517 0.0
O34 O 0.54475 0.69585 0.32792 0.0
O35 O 0.57548 0.71396 0.34068 0.0
C36 C 0.58436 0.67612 0.3522 0.0
O37 O 0.52923 0.66099 0.36653 0.0
O38 O 0.54041 0.65962 0.43974 0.0
In39 In 0.87266 0.5593 0.56284 0.0
O40 O 0.86756 0.52901 0.54324 0.0
O41 O 0.8837 0.54256 0.61125 0.0
C42 C 0.84584 0.55648 0.49441 0.0
C43 C 0.90789 0.5834 0.51938 0.0
C44 C 0.8561 0.56645 0.64523 0.0
O45 O 0.84659 0.54171 0.51 0.0
O46 O 0.85862 0.57261 0.51332 0.0
O47 O 0.87026 0.58007 0.62106 0.0
O48 O 0.85108 0.5495 0.62924 0.0
C49 C 0.87655 0.52779 0.58197 0.0
O50 O 0.90543 0.58267 0.56761 0.0
O51 O 0.89274 0.57226 0.49405 0.0
In52 In 0.31256 0.87235 0.72896 0.0
O53 O 0.33551 0.86318 0.71972 0.0
O54 O 0.34217 0.88698 0.77011 0.0
C55 C 0.28849 0.84615 0.65923 0.0
C56 C 0.32418 0.90731 0.68352 0.0
C57 C 0.28935 0.85656 0.81271 0.0
O58 O 0.30463 0.8476 0.67175 0.0
O59 O 0.28461 0.85802 0.68158 0.0
O60 O 0.2894 0.87014 0.7869 0.0
O61 O 0.30158 0.85178 0.79774 0.0
C62 C 0.34771 0.87597 0.75001 0.0
O63 O 0.32114 0.90485 0.73146 0.0
O64 O 0.32126 0.89226 0.65922 0.0
In65 In 0.44237 0.31384 0.89201 0.0
O66 O 0.41509 0.31728 0.89058 0.0
O67 O 0.43566 0.32962 0.82944 0.0
C68 C 0.43544 0.2892 0.97201 0.0
C69 C 0.47328 0.34809 0.92223 0.0
C70 C 0.44335 0.29103 0.81612 0.0
O71 O 0.42225 0.2921 0.95381 0.0
O72 O 0.45199 0.29929 0.95138 0.0
O73 O 0.4583 0.30671 0.82997 0.0
O74 O 0.42789 0.28698 0.84015 0.0
C75 C 0.41975 0.32671 0.84866 0.0
O76 O 0.4745 0.33697 0.88936 0.0
O77 O 0.45636 0.34186 0.94076 0.0
In78 In 0.55704 0.87286 0.89226 0.0
O79 O 0.52519 0.86476 0.90131 0.0
O80 O 0.54169 0.88521 0.84271 0.0
C81 C 0.55926 0.85145 0.96929 0.0
C82 C 0.58112 0.90864 0.93217 0.0
C83 C 0.5611 0.85183 0.81591 0.0
O84 O 0.5436 0.85136 0.95834 0.0
O85 O 0.57387 0.86262 0.94187 0.0
O86 O 0.57333 0.86984 0.82181 0.0
O87 O 0.54688 0.84507 0.8467 0.0
C88 C 0.52545 0.8757 0.86555 0.0
O89 O 0.58396 0.90386 0.88781 0.0
O90 O 0.56625 0.89556 0.95521 0.0
In91 In 0.68659 0.55711 0.05433 0.0
O92 O 0.66292 0.52535 0.06466 0.0
O93 O 0.65732 0.54242 0.01132 0.0
C94 C 0.71068 0.55519 0.1243 0.0
C95 C 0.67533 0.58065 0.10025 0.0
C96 C 0.71014 0.56439 0.97139 0.0
O97 O 0.69497 0.54029 0.11027 0.0
O98 O 0.71412 0.57103 0.10329 0.0
O99 O 0.70937 0.5779 0.99547 0.0
O100 O 0.69838 0.54742 0.98749 0.0
C101 C 0.65116 0.52602 0.03294 0.0
O102 O 0.67931 0.58194 0.05273 0.0
O103 O 0.67706 0.56764 0.12387 0.0
In104 In 0.12916 0.68536 0.22005 0.0
O105 O 0.09688 0.67761 0.21542 0.0
O106 O 0.10821 0.67528 0.28761 0.0
C107 C 0.14654 0.71001 0.13988 0.0
C108 C 0.1256 0.65037 0.19677 0.0
C109 C 0.1546 0.70928 0.29134 0.0
O110 O 0.13139 0.70831 0.16141 0.0
O111 O 0.15213 0.6987 0.15718 0.0
O112 O 0.15468 0.69421 0.27523 0.0
O113 O 0.14162 0.71216 0.2717 0.0
C114 C 0.09368 0.67344 0.26275 0.0
O115 O 0.13512 0.66045 0.23513 0.0
O116 O 0.11778 0.65794 0.16977 0.0
In117 In 0.44098 0.12838 0.38109 0.0
O118 O 0.47293 0.13735 0.39302 0.0
O119 O 0.45699 0.1156 0.33637 0.0
C120 C 0.44273 0.15462 0.4503 0.0
C121 C 0.41863 0.09292 0.42514 0.0
C122 C 0.43217 0.14333 0.29801 0.0
O123 O 0.45787 0.15501 0.43294 0.0
O124 O 0.42678 0.14092 0.4331 0.0
O125 O 0.4191 0.13041 0.32635 0.0
O126 O 0.44938 0.14788 0.31019 0.0
C127 C 0.47311 0.12591 0.35931 0.0
O128 O 0.41723 0.09588 0.37789 0.0
O129 O 0.43117 0.10774 0.4495 0.0
In130 In 0.31441 0.44314 0.55501 0.0
O131 O 0.33849 0.47474 0.56193 0.0
O132 O 0.34078 0.45812 0.50053 0.0
C133 C 0.29208 0.4436 0.63299 0.0
C134 C 0.32801 0.42052 0.5945 0.0
C135 C 0.28908 0.43674 0.47712 0.0
O136 O 0.30698 0.45885 0.61694 0.0
O137 O 0.28855 0.42807 0.61011 0.0
O138 O 0.29285 0.4237 0.49195 0.0
O139 O 0.29857 0.45288 0.50017 0.0
C140 C 0.34818 0.47439 0.52373 0.0
O141 O 0.31702 0.41534 0.55532 0.0
O142 O 0.33212 0.43694 0.61277 0.0
In143 In 0.87097 0.31359 0.72069 0.0
O144 O 0.8634 0.33756 0.73328 0.0
O145 O 0.88356 0.34186 0.67347 0.0
C146 C 0.84463 0.2898 0.79041 0.0
C147 C 0.906 0.32374 0.76443 0.0
C148 C 0.85368 0.28983 0.63902 0.0
O149 O 0.84935 0.30758 0.78588 0.0
O150 O 0.85334 0.28414 0.76019 0.0
O151 O 0.86852 0.29095 0.66095 0.0
O152 O 0.84838 0.30135 0.65668 0.0
C153 C 0.87429 0.34853 0.69785 0.0
O154 O 0.90354 0.32209 0.71623 0.0
O155 O 0.89093 0.32008 0.78965 0.0
H156 H 0.14143 0.39748 0.17207 0.0
H157 H 0.16297 0.39307 0.23219 0.0
H158 H 0.19124 0.45433 0.27178 0.0
H159 H 0.16984 0.45881 0.21235 0.0
H160 H 0.20434 0.41286 0.22567 0.0
H161 H 0.18035 0.42746 0.41256 0.0
H162 H 0.16556 0.42138 0.35503 0.0
H163 H 0.18523 0.446 0.36545 0.0
C164 C 0.15197 0.40989 0.19445 0.0
C165 C 0.1539 0.42847 0.18767 0.0
C166 C 0.16431 0.40737 0.22854 0.0
C167 C 0.17856 0.42332 0.25685 0.0
C168 C 0.18011 0.44174 0.25109 0.0
H169 H 0.28009 0.46336 0.43923 0.0
H170 H 0.25247 0.45735 0.3846 0.0
C171 C 0.1679 0.44429 0.21693 0.0
C172 C 0.19285 0.42132 0.28972 0.0
H173 H 0.21245 0.43104 0.41058 0.0
C174 C 0.20592 0.41645 0.26635 0.0
C175 C 0.19483 0.42598 0.34276 0.0
C176 C 0.18062 0.43031 0.37058 0.0
C177 C 0.22166 0.41728 0.29398 0.0
C178 C 0.22419 0.42291 0.34637 0.0
C179 C 0.21056 0.42687 0.37027 0.0
C180 C 0.24163 0.4263 0.37626 0.0
C181 C 0.23604 0.41315 0.26639 0.0
C182 C 0.24488 0.41085 0.38912 0.0
C183 C 0.26078 0.41427 0.42039 0.0
C184 C 0.27358 0.43317 0.43939 0.0
C185 C 0.27051 0.44863 0.42525 0.0
C186 C 0.2547 0.44522 0.39414 0.0
H187 H 0.23374 0.41202 0.22403 0.0
H188 H 0.25129 0.42484 0.27458 0.0
H189 H 0.23434 0.3991 0.28049 0.0
H190 H 0.23483 0.39609 0.37621 0.0
H191 H 0.2627 0.40205 0.43096 0.0
H192 H 0.82065 0.28434 0.59114 0.0
H193 H 0.79806 0.25648 0.53841 0.0
H194 H 0.83649 0.23246 0.54848 0.0
H195 H 0.8593 0.26041 0.60183 0.0
H196 H 0.81813 0.23228 0.44352 0.0
H197 H 0.76586 0.19968 0.60628 0.0
H198 H 0.77501 0.22531 0.59495 0.0
H199 H 0.79152 0.21721 0.6156 0.0
C200 C 0.82448 0.2733 0.58161 0.0
C201 C 0.84172 0.27452 0.60087 0.0
C202 C 0.81151 0.25735 0.55166 0.0
C203 C 0.8155 0.24232 0.5403 0.0
C204 C 0.83314 0.2439 0.55719 0.0
H205 H 0.74161 0.14032 0.34294 0.0
H206 H 0.76818 0.16229 0.40085 0.0
C207 C 0.84615 0.25988 0.58746 0.0
C208 C 0.80074 0.2247 0.51243 0.0
H209 H 0.75406 0.18632 0.52322 0.0
C210 C 0.80422 0.222 0.46097 0.0
C211 C 0.78267 0.2114 0.53557 0.0
C212 C 0.7785 0.21337 0.59129 0.0
C213 C 0.78962 0.20688 0.43108 0.0
C214 C 0.77125 0.19392 0.45378 0.0
C215 C 0.76813 0.19623 0.5059 0.0
C216 C 0.7545 0.17912 0.423 0.0
C217 C 0.7936 0.20555 0.3748 0.0
C218 C 0.73758 0.18063 0.41834 0.0
C219 C 0.72234 0.168 0.38592 0.0
C220 C 0.72369 0.15354 0.35751 0.0
C221 C 0.74018 0.15134 0.36427 0.0
C222 C 0.75545 0.164 0.39691 0.0
H223 H 0.8069 0.21894 0.36107 0.0
H224 H 0.79588 0.1929 0.36885 0.0
H225 H 0.78097 0.20323 0.3508 0.0
H226 H 0.73647 0.1921 0.43835 0.0
H227 H 0.70983 0.17007 0.38162 0.0
H228 H 0.54975 0.73694 0.45128 0.0
H229 H 0.55319 0.76301 0.50806 0.0
H230 H 0.5843 0.74756 0.61797 0.0
H231 H 0.5819 0.72202 0.55901 0.0
H232 H 0.53814 0.76016 0.59558 0.0
H233 H 0.6184 0.80534 0.62115 0.0
H234 H 0.60751 0.78615 0.57357 0.0
H235 H 0.60922 0.78036 0.63977 0.0
C236 C 0.55749 0.7392 0.48739 0.0
C237 C 0.56547 0.72741 0.50097 0.0
C238 C 0.55948 0.75415 0.51984 0.0
C239 C 0.56915 0.75748 0.56732 0.0
C240 C 0.57723 0.74571 0.58103 0.0
H241 H 0.54227 0.81226 0.81697 0.0
H242 H 0.54555 0.79038 0.75698 0.0
C243 C 0.57568 0.73098 0.54766 0.0
C244 C 0.56932 0.77232 0.60324 0.0
H245 H 0.59862 0.81205 0.67818 0.0
C246 C 0.55145 0.77158 0.61319 0.0
C247 C 0.58667 0.78747 0.62587 0.0
C248 C 0.60655 0.79004 0.61414 0.0
C249 C 0.55036 0.78533 0.64508 0.0
C250 C 0.56748 0.79981 0.66996 0.0
C251 C 0.58546 0.80082 0.65958 0.0
C252 C 0.56674 0.8135 0.70805 0.0
C253 C 0.53083 0.78438 0.65082 0.0
C254 C 0.57829 0.83392 0.7021 0.0
C255 C 0.57671 0.8466 0.73725 0.0
C256 C 0.56345 0.83899 0.77854 0.0
C257 C 0.55233 0.81859 0.78496 0.0
C258 C 0.55414 0.80602 0.75054 0.0
H259 H 0.52129 0.77731 0.61688 0.0
H260 H 0.52316 0.77545 0.68516 0.0
H261 H 0.53265 0.79919 0.65568 0.0
H262 H 0.58825 0.84002 0.66982 0.0
H263 H 0.58559 0.86227 0.73168 0.0
H264 H 0.85951 0.60134 0.67605 0.0
H265 H 0.83782 0.60591 0.73541 0.0
H266 H 0.80494 0.54361 0.76186 0.0
H267 H 0.82652 0.53899 0.70357 0.0
H268 H 0.79753 0.59011 0.72452 0.0
H269 H 0.8138 0.56525 0.90739 0.0
H270 H 0.82963 0.57171 0.85186 0.0
H271 H 0.80816 0.54781 0.8566 0.0
C272 C 0.84789 0.58869 0.6954 0.0
C273 C 0.84477 0.56982 0.68537 0.0
C274 C 0.83547 0.59131 0.72906 0.0
C275 C 0.81991 0.57513 0.75358 0.0
C276 C 0.81708 0.55636 0.74431 0.0
H277 H 0.71446 0.53718 0.91772 0.0
H278 H 0.74199 0.54257 0.86338 0.0
C279 C 0.8294 0.55373 0.71074 0.0
C280 C 0.80573 0.57741 0.78627 0.0
H281 H 0.78288 0.56444 0.9031 0.0
C282 C 0.79456 0.58487 0.76392 0.0
C283 C 0.80192 0.57064 0.83773 0.0
C284 C 0.81416 0.5636 0.86498 0.0
C285 C 0.77894 0.58463 0.79073 0.0
C286 C 0.7745 0.57684 0.84108 0.0
C287 C 0.78622 0.57023 0.86423 0.0
C288 C 0.75701 0.57414 0.86943 0.0
C289 C 0.76667 0.59181 0.76437 0.0
C290 C 0.75617 0.59016 0.89 0.0
C291 C 0.74038 0.58713 0.92122 0.0
C292 C 0.72526 0.56801 0.93233 0.0
C293 C 0.72584 0.55208 0.90988 0.0
C294 C 0.74159 0.55512 0.87894 0.0
H295 H 0.77076 0.59551 0.72327 0.0
H296 H 0.75092 0.5805 0.76665 0.0
H297 H 0.76858 0.60509 0.78439 0.0
H298 H 0.76803 0.60495 0.88343 0.0
H299 H 0.74039 0.59968 0.93823 0.0
H300 H 0.28756 0.82751 0.87286 0.0
H301 H 0.26117 0.80584 0.93067 0.0
H302 H 0.23139 0.83821 0.90158 0.0
H303 H 0.25777 0.85992 0.8427 0.0
H304 H 0.24583 0.81302 0.01935 0.0
H305 H 0.19018 0.78185 0.86292 0.0
H306 H 0.21606 0.79648 0.8498 0.0
H307 H 0.20254 0.80799 0.8708 0.0
C308 C 0.27552 0.83019 0.87913 0.0
C309 C 0.27469 0.84536 0.85299 0.0
C310 C 0.26043 0.81777 0.91219 0.0
C311 C 0.24414 0.82018 0.91972 0.0
C312 C 0.24364 0.83585 0.8955 0.0
H313 H 0.14055 0.7394 0.1041 0.0
H314 H 0.16297 0.76744 0.05039 0.0
C315 C 0.2588 0.84835 0.86229 0.0
C316 C 0.22763 0.80581 0.95191 0.0
H317 H 0.18022 0.76828 0.94563 0.0
C318 C 0.23142 0.8034 0.00337 0.0
C319 C 0.20881 0.79326 0.931 0.0
C320 C 0.20408 0.79484 0.87552 0.0
C321 C 0.21712 0.78844 0.03404 0.0
C322 C 0.19861 0.77541 0.01252 0.0
C323 C 0.19446 0.7783 0.96184 0.0
C324 C 0.1841 0.75781 0.04097 0.0
C325 C 0.22203 0.7864 0.08901 0.0
C326 C 0.18828 0.74286 0.05178 0.0
C327 C 0.17554 0.72688 0.08197 0.0
C328 C 0.15832 0.72551 0.10197 0.0
C329 C 0.15369 0.74006 0.08917 0.0
C330 C 0.16648 0.75609 0.05868 0.0
H331 H 0.23475 0.80014 0.10346 0.0
H332 H 0.20931 0.78234 0.11472 0.0
H333 H 0.2258 0.77461 0.09118 0.0
H334 H 0.20167 0.7438 0.03779 0.0
H335 H 0.17951 0.7159 0.09094 0.0
H336 H 0.39745 0.14204 0.27732 0.0
H337 H 0.39225 0.16333 0.21817 0.0
H338 H 0.45267 0.19063 0.17077 0.0
H339 H 0.45791 0.16945 0.22913 0.0
H340 H 0.41204 0.20434 0.22284 0.0
H341 H 0.42383 0.17968 0.03366 0.0
H342 H 0.41875 0.16514 0.09138 0.0
H343 H 0.44319 0.18473 0.07818 0.0
C344 C 0.40948 0.15229 0.25341 0.0
C345 C 0.42807 0.15404 0.25769 0.0
C346 C 0.40652 0.16449 0.21986 0.0
C347 C 0.42201 0.17841 0.18965 0.0
C348 C 0.4404 0.17974 0.19291 0.0
H349 H 0.46204 0.28103 0.01428 0.0
H350 H 0.45573 0.25323 0.06855 0.0
C351 C 0.4434 0.16767 0.22648 0.0
C352 C 0.41965 0.19264 0.15752 0.0
H353 H 0.42826 0.21221 0.03665 0.0
C354 C 0.41516 0.20583 0.18189 0.0
C355 C 0.42366 0.19451 0.1041 0.0
C356 C 0.42743 0.18012 0.07518 0.0
C357 C 0.41582 0.2216 0.15482 0.0
C358 C 0.42097 0.22408 0.10214 0.0
C359 C 0.42447 0.21033 0.07723 0.0
C360 C 0.42448 0.24169 0.07302 0.0
C361 C 0.41206 0.2361 0.18313 0.0
C362 C 0.40898 0.24458 0.05828 0.0
C363 C 0.41254 0.26055 0.02709 0.0
C364 C 0.43165 0.27378 0.01023 0.0
C365 C 0.44716 0.27113 0.0266 0.0
C366 C 0.44359 0.25521 0.05751 0.0
H367 H 0.41011 0.23314 0.22518 0.0
H368 H 0.42441 0.25121 0.17694 0.0
H369 H 0.39862 0.23543 0.16766 0.0
H370 H 0.3941 0.23419 0.06958 0.0
H371 H 0.40029 0.26216 0.01484 0.0
H372 H 0.13755 0.50391 0.02104 0.0
H373 H 0.13649 0.53379 0.03927 0.0
H374 H 0.10644 0.50883 0.1822 0.0
H375 H 0.10714 0.4787 0.16376 0.0
H376 H 0.09049 0.5279 0.12744 0.0
H377 H 0.17113 0.57469 0.14547 0.0
H378 H 0.16328 0.56171 0.08548 0.0
H379 H 0.15902 0.5483 0.14459 0.0
C380 C 0.13068 0.50476 0.05631 0.0
C381 C 0.12255 0.48903 0.09118 0.0
C382 C 0.13017 0.52188 0.06678 0.0
C383 C 0.1217 0.52366 0.11251 0.0
C384 C 0.11314 0.50779 0.1468 0.0
H385 H 0.14028 0.63121 0.25169 0.0
H386 H 0.13827 0.60001 0.2311 0.0
C387 C 0.11357 0.49061 0.13626 0.0
C388 C 0.12196 0.54214 0.12483 0.0
H389 H 0.15268 0.59093 0.14584 0.0
C390 C 0.10407 0.54169 0.13156 0.0
C391 C 0.13971 0.56005 0.1308 0.0
C392 C 0.15939 0.56127 0.12672 0.0
C393 C 0.10347 0.55876 0.14355 0.0
C394 C 0.12122 0.57676 0.14812 0.0
C395 C 0.13909 0.57714 0.14186 0.0
C396 C 0.1217 0.59532 0.16092 0.0
C397 C 0.08386 0.55729 0.15233 0.0
C398 C 0.11313 0.60308 0.12813 0.0
C399 C 0.1142 0.62091 0.13991 0.0
C400 C 0.12401 0.63133 0.18446 0.0
C401 C 0.13261 0.62352 0.21711 0.0
C402 C 0.13148 0.60571 0.20539 0.0
H403 H 0.0722 0.54199 0.16024 0.0
H404 H 0.08455 0.56669 0.18505 0.0
H405 H 0.07965 0.56235 0.11728 0.0
H406 H 0.10585 0.5955 0.09306 0.0
H407 H 0.10753 0.62663 0.11391 0.0
H408 H 0.64195 0.1539 0.22917 0.0
H409 H 0.61089 0.15251 0.24794 0.0
H410 H 0.58815 0.09468 0.31201 0.0
H411 H 0.61938 0.09616 0.2944 0.0
H412 H 0.57395 0.12717 0.21398 0.0
H413 H 0.5776 0.12317 0.42675 0.0
H414 H 0.59838 0.1294 0.38572 0.0
H415 H 0.5795 0.10426 0.39333 0.0
C416 C 0.63035 0.14091 0.24741 0.0
C417 C 0.63313 0.12519 0.26065 0.0
C418 C 0.61261 0.14012 0.25802 0.0
C419 C 0.59731 0.12362 0.28207 0.0
C420 C 0.59991 0.10774 0.29449 0.0
H421 H 0.47656 0.10033 0.29493 0.0
H422 H 0.50626 0.09892 0.27564 0.0
C423 C 0.61771 0.10856 0.28415 0.0
C424 C 0.57861 0.12306 0.29361 0.0
H425 H 0.54801 0.11902 0.3918 0.0
C426 C 0.56825 0.12538 0.25285 0.0
C427 C 0.57135 0.12097 0.34443 0.0
C428 C 0.58235 0.11949 0.39017 0.0
C429 C 0.55081 0.12565 0.26149 0.0
C430 C 0.54331 0.12309 0.31216 0.0
C431 C 0.55368 0.12079 0.35292 0.0
C432 C 0.52516 0.12357 0.32414 0.0
C433 C 0.54092 0.12925 0.21647 0.0
C434 C 0.52581 0.1375 0.35893 0.0
C435 C 0.50885 0.13817 0.37048 0.0
C436 C 0.49091 0.12491 0.34741 0.0
C437 C 0.49022 0.11083 0.31296 0.0
C438 C 0.50719 0.11009 0.30168 0.0
H439 H 0.55108 0.13597 0.18343 0.0
H440 H 0.52848 0.11508 0.20333 0.0
H441 H 0.5351 0.13897 0.22759 0.0
H442 H 0.5395 0.148 0.37685 0.0
H443 H 0.50985 0.14918 0.39723 0.0
H444 H 0.36592 0.51033 0.56861 0.0
H445 H 0.39655 0.53927 0.54361 0.0
H446 H 0.40321 0.50698 0.41879 0.0
H447 H 0.37247 0.47771 0.44398 0.0
H448 H 0.43775 0.52951 0.47816 0.0
H449 H 0.40424 0.57349 0.41648 0.0
H450 H 0.39716 0.56347 0.48009 0.0
H451 H 0.39012 0.54731 0.42551 0.0
C452 C 0.37385 0.50936 0.53573 0.0
C453 C 0.36674 0.49178 0.50803 0.0
C454 C 0.39131 0.52594 0.52139 0.0
C455 C 0.40196 0.52533 0.47891 0.0
C456 C 0.3951 0.50774 0.45153 0.0
H457 H 0.49668 0.63067 0.34072 0.0
H458 H 0.46704 0.59919 0.35562 0.0
C459 C 0.37756 0.49108 0.46587 0.0
C460 C 0.42037 0.5431 0.46377 0.0
H461 H 0.43886 0.59074 0.42776 0.0
C462 C 0.43803 0.54287 0.46669 0.0
C463 C 0.42062 0.56041 0.44827 0.0
C464 C 0.40201 0.56121 0.44187 0.0
C465 C 0.45603 0.55973 0.456 0.0
C466 C 0.45634 0.57729 0.44281 0.0
C467 C 0.43862 0.57732 0.43842 0.0
C468 C 0.47484 0.59586 0.43333 0.0
C469 C 0.47453 0.55854 0.45855 0.0
C470 C 0.48903 0.60449 0.47221 0.0
C471 C 0.50603 0.62248 0.46374 0.0
C472 C 0.50902 0.63221 0.41641 0.0
C473 C 0.49479 0.62353 0.3776 0.0
C474 C 0.47785 0.60554 0.38603 0.0
H475 H 0.4714 0.54321 0.45486 0.0
H476 H 0.48496 0.5675 0.42778 0.0
H477 H 0.48172 0.56424 0.49633 0.0
H478 H 0.48679 0.59749 0.50942 0.0
H479 H 0.5167 0.62888 0.49442 0.0
H480 H 0.86439 0.49566 0.52091 0.0
H481 H 0.8655 0.46587 0.53992 0.0
H482 H 0.89271 0.49005 0.68633 0.0
H483 H 0.89201 0.52013 0.6671 0.0
H484 H 0.90985 0.47153 0.63502 0.0
H485 H 0.82905 0.42416 0.64157 0.0
H486 H 0.83794 0.4375 0.5824 0.0
H487 H 0.84098 0.45054 0.64164 0.0
C488 C 0.87066 0.49466 0.55711 0.0
C489 C 0.87798 0.51016 0.59272 0.0
C490 C 0.87119 0.47759 0.56801 0.0
C491 C 0.87883 0.47561 0.61494 0.0
C492 C 0.88664 0.49126 0.65 0.0
H493 H 0.85758 0.36642 0.74984 0.0
H494 H 0.8598 0.39777 0.73021 0.0
C495 C 0.88621 0.5084 0.63901 0.0
C496 C 0.87848 0.45712 0.62765 0.0
H497 H 0.84765 0.40807 0.64405 0.0
C498 C 0.89627 0.45765 0.63714 0.0
C499 C 0.86071 0.43908 0.63106 0.0
C500 C 0.84107 0.43774 0.62414 0.0
C501 C 0.89677 0.44055 0.64931 0.0
C502 C 0.87903 0.42242 0.6511 0.0
C503 C 0.86125 0.42196 0.64217 0.0
C504 C 0.87843 0.40378 0.66353 0.0
C505 C 0.91623 0.44211 0.66118 0.0
C506 C 0.88809 0.39669 0.63238 0.0
C507 C 0.88693 0.37879 0.6437 0.0
C508 C 0.8759 0.3676 0.68602 0.0
C509 C 0.86619 0.37471 0.71697 0.0
C510 C 0.86744 0.39261 0.7058 0.0
H511 H 0.9275 0.45732 0.67153 0.0
H512 H 0.91487 0.43222 0.69332 0.0
H513 H 0.92146 0.43778 0.62664 0.0
H514 H 0.8963 0.40485 0.5989 0.0
H515 H 0.89447 0.37361 0.61902 0.0
H516 H 0.37845 0.90516 0.80287 0.0
H517 H 0.41043 0.90818 0.81969 0.0
H518 H 0.392 0.85365 0.74014 0.0
H519 H 0.36034 0.85088 0.72189 0.0
H520 H 0.4197 0.88522 0.8733 0.0
H521 H 0.44379 0.88816 0.67194 0.0
H522 H 0.42297 0.89071 0.68864 0.0
H523 H 0.42047 0.86678 0.68351 0.0
C524 C 0.3813 0.8939 0.78871 0.0
C525 C 0.36696 0.87784 0.7608 0.0
C526 C 0.39956 0.89564 0.79831 0.0
C527 C 0.40377 0.88135 0.78024 0.0
C528 C 0.38932 0.86516 0.75311 0.0
H529 H 0.48812 0.85284 0.89985 0.0
H530 H 0.45943 0.85564 0.87906 0.0
C531 C 0.37116 0.86351 0.74308 0.0
C532 C 0.42293 0.88287 0.79165 0.0
H533 H 0.46106 0.88074 0.73605 0.0
C534 C 0.42885 0.88446 0.84324 0.0
C535 C 0.43508 0.88227 0.75239 0.0
C536 C 0.43036 0.88211 0.69601 0.0
C537 C 0.44619 0.8847 0.85678 0.0
C538 C 0.45764 0.88273 0.81776 0.0
C539 C 0.45213 0.88193 0.76603 0.0
C540 C 0.4751 0.88099 0.82985 0.0
C541 C 0.45211 0.88719 0.91276 0.0
C542 C 0.49333 0.89382 0.80746 0.0
C543 C 0.50972 0.89201 0.81857 0.0
C544 C 0.50814 0.87737 0.85233 0.0
C545 C 0.48983 0.86439 0.87411 0.0
C546 C 0.47344 0.86608 0.86259 0.0
H547 H 0.44575 0.89485 0.93443 0.0
H548 H 0.44653 0.87255 0.93051 0.0
H549 H 0.46827 0.89559 0.91717 0.0
H550 H 0.49491 0.90534 0.78174 0.0
H551 H 0.52365 0.9022 0.8012 0.0
H552 H 0.47386 0.37742 0.98023 0.0
H553 H 0.50229 0.40962 0.99934 0.0
H554 H 0.53958 0.39356 0.91637 0.0
H555 H 0.51131 0.36173 0.8961 0.0
H556 H 0.53582 0.41997 0.05123 0.0
H557 H 0.55363 0.44508 0.84951 0.0
H558 H 0.5308 0.4238 0.86753 0.0
H559 H 0.55254 0.42204 0.85896 0.0
C560 C 0.48814 0.38081 0.96607 0.0
C561 C 0.49036 0.36715 0.93633 0.0
C562 C 0.50434 0.39919 0.97694 0.0
C563 C 0.52298 0.40416 0.95822 0.0
C564 C 0.52526 0.39028 0.92986 0.0
H565 H 0.63696 0.48868 0.06687 0.0
H566 H 0.60486 0.46023 0.0499 0.0
C567 C 0.5091 0.37203 0.91867 0.0
C568 C 0.54023 0.42363 0.96922 0.0
H569 H 0.57913 0.46254 0.91162 0.0
C570 C 0.54517 0.4294 0.02071 0.0
C571 C 0.5522 0.43614 0.92938 0.0
C572 C 0.54691 0.43155 0.87327 0.0
C573 C 0.56226 0.44691 0.03347 0.0
C574 C 0.57498 0.45868 0.99368 0.0
C575 C 0.56955 0.45337 0.94216 0.0
C576 C 0.59433 0.47613 0.00457 0.0
C577 C 0.56647 0.45258 0.08948 0.0
C578 C 0.5994 0.49443 0.98321 0.0
C579 C 0.61792 0.51069 0.99215 0.0
C580 C 0.63167 0.5089 0.0226 0.0
C581 C 0.62661 0.49055 0.0436 0.0
C582 C 0.60819 0.4743 0.03432 0.0
H583 H 0.55278 0.44602 0.11258 0.0
H584 H 0.57588 0.44705 0.10517 0.0
H585 H 0.57419 0.46873 0.09445 0.0
H586 H 0.58899 0.49613 0.95973 0.0
H587 H 0.62142 0.52466 0.97546 0.0
H588 H 0.25941 0.41261 0.67374 0.0
H589 H 0.23734 0.41356 0.73855 0.0
H590 H 0.27388 0.47628 0.74945 0.0
H591 H 0.29598 0.47551 0.68444 0.0
H592 H 0.24635 0.42937 0.84202 0.0
H593 H 0.21825 0.46692 0.71595 0.0
H594 H 0.23101 0.45502 0.69083 0.0
H595 H 0.24444 0.47851 0.72143 0.0
C596 C 0.26278 0.4266 0.69007 0.0
C597 C 0.27933 0.444 0.6739 0.0
C598 C 0.25018 0.4271 0.72705 0.0
C599 C 0.25389 0.44501 0.7481 0.0
C600 C 0.27065 0.46237 0.73294 0.0
H601 H 0.18651 0.47413 0.95931 0.0
H602 H 0.21161 0.47547 0.9011 0.0
C603 C 0.28327 0.46188 0.69604 0.0
C604 C 0.24009 0.4455 0.78566 0.0
H605 H 0.20708 0.46101 0.80193 0.0
C606 C 0.23775 0.43629 0.8334 0.0
C607 C 0.22902 0.45461 0.7741 0.0
C608 C 0.23062 0.46422 0.72268 0.0
C609 C 0.22462 0.43602 0.87024 0.0
C610 C 0.21328 0.44485 0.85836 0.0
C611 C 0.21581 0.45427 0.81083 0.0
C612 C 0.1983 0.44401 0.89416 0.0
C613 C 0.22319 0.42652 0.92172 0.0
C614 C 0.18241 0.4259 0.90881 0.0
C615 C 0.16813 0.42509 0.94207 0.0
C616 C 0.1694 0.44241 0.96079 0.0
C617 C 0.18519 0.46055 0.9455 0.0
C618 C 0.19952 0.46134 0.91234 0.0
H619 H 0.23653 0.42562 0.93013 0.0
H620 H 0.22097 0.4347 0.95334 0.0
H621 H 0.21051 0.41139 0.92129 0.0
H622 H 0.18096 0.41237 0.89417 0.0
H623 H 0.15605 0.4109 0.95294 0.0
H624 H 0.74802 0.18378 0.17643 0.0
H625 H 0.77004 0.20799 0.11416 0.0
H626 H 0.72349 0.18559 0.00178 0.0
H627 H 0.70114 0.16182 0.06485 0.0
H628 H 0.78232 0.20192 0.02621 0.0
H629 H 0.74374 0.24315 0.98857 0.0
H630 H 0.73712 0.226 0.04106 0.0
H631 H 0.72854 0.21742 0.9768 0.0
C632 C 0.74243 0.18417 0.13861 0.0
C633 C 0.72289 0.17099 0.1254 0.0
C634 C 0.75502 0.198 0.10308 0.0
C635 C 0.74836 0.1988 0.05352 0.0
C636 C 0.72881 0.18561 0.04022 0.0
H637 H 0.82642 0.25005 0.79287 0.0
H638 H 0.80265 0.22807 0.85617 0.0
C639 C 0.7161 0.17195 0.07611 0.0
C640 C 0.76226 0.21267 0.0151 0.0
H641 H 0.76958 0.24885 0.93058 0.0
C642 C 0.77958 0.21227 0.00555 0.0
C643 C 0.75881 0.22635 0.98868 0.0
C644 C 0.74114 0.22843 -0.00035 0.0
C645 C 0.79346 0.22502 0.97 0.0
C646 C 0.78959 0.23806 0.9418 0.0
C647 C 0.7724 0.23866 0.95178 0.0
C648 C 0.80329 0.25131 0.90214 0.0
C649 C 0.81232 0.22464 0.96395 0.0
C650 C 0.81088 0.27161 0.9057 0.0
C651 C 0.82417 0.28417 0.86895 0.0
C652 C 0.83015 0.27661 0.82832 0.0
C653 C 0.82226 0.25628 0.82426 0.0
C654 C 0.80877 0.24372 0.86054 0.0
H655 H 0.81557 0.21854 0.99869 0.0
H656 H 0.81095 0.21515 0.93081 0.0
H657 H 0.82489 0.23953 0.95675 0.0
H658 H 0.80675 0.27775 0.93734 0.0
H659 H 0.83 0.2998 0.87285 0.0
H660 H 0.52959 0.71082 0.26798 0.0
H661 H 0.5305 0.73559 0.20938 0.0
H662 H 0.59344 0.76857 0.22121 0.0
H663 H 0.5927 0.74393 0.28004 0.0
H664 H 0.54968 0.77846 0.23604 0.0
H665 H 0.5795 0.76126 0.06176 0.0
H666 H 0.567 0.74357 0.11227 0.0
H667 H 0.59155 0.76322 0.12216 0.0
C668 C 0.54363 0.72326 0.25774 0.0
C669 C 0.56109 0.72547 0.27844 0.0
C670 C 0.54411 0.73738 0.22445 0.0
C671 C 0.56203 0.75375 0.21098 0.0
C672 C 0.5795 0.75589 0.23095 0.0
H673 H 0.59161 0.85086 0.00364 0.0
H674 H 0.59278 0.82819 0.06594 0.0
C675 C 0.57904 0.74185 0.26453 0.0
C676 C 0.56239 0.76897 0.17739 0.0
H677 H 0.5749 0.78855 0.05702 0.0
C678 C 0.55517 0.78072 0.19686 0.0
C679 C 0.56972 0.77184 0.12665 0.0
C680 C 0.5773 0.75927 0.10406 0.0
C681 C 0.5552 0.79548 0.16676 0.0
C682 C 0.56219 0.79815 0.11555 0.0
C683 C 0.56957 0.78646 0.09632 0.0
C684 C 0.56159 0.81264 0.0807 0.0
C685 C 0.54806 0.80828 0.19038 0.0
C686 C 0.54366 0.8114 0.06854 0.0
C687 C 0.54298 0.82441 0.03334 0.0
C688 C 0.56018 0.83868 0.00922 0.0
C689 C 0.57813 0.84001 0.02174 0.0
C690 C 0.57882 0.82708 0.05721 0.0
H691 H 0.54889 0.80833 0.2331 0.0
H692 H 0.55672 0.82359 0.17636 0.0
H693 H 0.53252 0.80252 0.17955 0.0
H694 H 0.53014 0.80007 0.08531 0.0
H695 H 0.52892 0.82296 0.02406 0.0
H696 H 0.84313 0.5865 0.45132 0.0
H697 H 0.81919 0.5843 0.38784 0.0
H698 H 0.79192 0.52134 0.38823 0.0
H699 H 0.81582 0.52338 0.4519 0.0
H700 H 0.81198 0.56507 0.2871 0.0
H701 H 0.74654 0.53347 0.41503 0.0
H702 H 0.77124 0.54597 0.4399 0.0
H703 H 0.76095 0.52157 0.41497 0.0
C704 C 0.83199 0.57218 0.43804 0.0
C705 C 0.83128 0.5551 0.45657 0.0
C706 C 0.81838 0.57096 0.40181 0.0
C707 C 0.80376 0.55266 0.3839 0.0
C708 C 0.80299 0.53557 0.40222 0.0
H709 H 0.70773 0.52261 0.16971 0.0
H710 H 0.73054 0.52117 0.23123 0.0
C711 C 0.81667 0.53677 0.43835 0.0
C712 C 0.78961 0.5516 0.34507 0.0
H713 H 0.74162 0.53808 0.32776 0.0
C714 C 0.79658 0.55914 0.29583 0.0
C715 C 0.76957 0.54373 0.35678 0.0
C716 C 0.76154 0.53581 0.40959 0.0
C717 C 0.78397 0.55906 0.25772 0.0
C718 C 0.76399 0.55166 0.26977 0.0
C719 C 0.75696 0.54378 0.31879 0.0
C720 C 0.75028 0.5525 0.23251 0.0
C721 C 0.79212 0.56672 0.2048 0.0
C722 C 0.75371 0.57062 0.21361 0.0
C723 C 0.74081 0.57147 0.17842 0.0
C724 C 0.72412 0.55423 0.162 0.0
C725 C 0.72051 0.53612 0.18165 0.0
C726 C 0.73349 0.53527 0.21673 0.0
H727 H 0.80582 0.56635 0.19759 0.0
H728 H 0.78134 0.55809 0.17432 0.0
H729 H 0.7956 0.58217 0.20166 0.0
H730 H 0.76634 0.58411 0.22631 0.0
H731 H 0.74388 0.58564 0.16421 0.0
H732 H 0.15539 0.74093 0.33589 0.0
H733 H 0.17889 0.76331 0.39929 0.0
H734 H 0.2089 0.73021 0.39739 0.0
H735 H 0.18544 0.7077 0.33386 0.0
H736 H 0.18775 0.75233 0.49987 0.0
H737 H 0.25196 0.78862 0.3683 0.0
H738 H 0.22707 0.77531 0.34487 0.0
H739 H 0.23868 0.76227 0.36866 0.0
C740 C 0.16701 0.73842 0.34892 0.0
C741 C 0.16865 0.72262 0.3299 0.0
C742 C 0.18037 0.75119 0.38511 0.0
C743 C 0.19567 0.74846 0.40245 0.0
C744 C 0.1973 0.73264 0.38385 0.0
H745 H 0.29244 0.81749 0.61137 0.0
H746 H 0.26968 0.79292 0.55042 0.0
C747 C 0.18387 0.71979 0.34781 0.0
C748 C 0.20974 0.76209 0.44061 0.0
H749 H 0.25725 0.79821 0.45554 0.0
C750 C 0.20296 0.76236 0.49034 0.0
C751 C 0.22953 0.77501 0.42783 0.0
C752 C 0.23733 0.77549 0.37446 0.0
C753 C 0.21554 0.77527 0.52794 0.0
C754 C 0.23527 0.78853 0.5149 0.0
C755 C 0.2421 0.78804 0.46531 0.0
C756 C 0.24896 0.80332 0.55182 0.0
C757 C 0.20766 0.77441 0.58143 0.0
C758 C 0.24495 0.81744 0.57206 0.0
C759 C 0.25784 0.83139 0.60697 0.0
C760 C 0.27506 0.83158 0.62175 0.0
C761 C 0.27924 0.81765 0.60072 0.0
C762 C 0.26628 0.80363 0.56595 0.0
H763 H 0.19436 0.76005 0.58908 0.0
H764 H 0.21882 0.777 0.61118 0.0
H765 H 0.20357 0.78593 0.58535 0.0
H766 H 0.23189 0.81774 0.56065 0.0
H767 H 0.25432 0.84205 0.62227 0.0
H768 H 0.41292 0.25703 0.77937 0.0
H769 H 0.41422 0.235 0.7151 0.0
H770 H 0.47639 0.27381 0.69804 0.0
H771 H 0.47526 0.29591 0.76252 0.0
H772 H 0.42847 0.24411 0.61021 0.0
H773 H 0.47026 0.21936 0.73115 0.0
H774 H 0.45772 0.23121 0.75801 0.0
H775 H 0.4806 0.2454 0.72503 0.0
C776 C 0.42686 0.26089 0.76187 0.0
C777 C 0.44401 0.27813 0.77605 0.0
C778 C 0.42757 0.24831 0.72521 0.0
C779 C 0.44543 0.25271 0.70246 0.0
C780 C 0.46253 0.27006 0.71585 0.0
H781 H 0.47521 0.18724 0.4861 0.0
H782 H 0.47632 0.21189 0.54563 0.0
C783 C 0.46183 0.28268 0.75244 0.0
C784 C 0.44609 0.23909 0.66458 0.0
H785 H 0.46327 0.20752 0.64584 0.0
C786 C 0.43608 0.2361 0.61786 0.0
C787 C 0.45613 0.2288 0.67482 0.0
C788 C 0.46669 0.23117 0.72509 0.0
C789 C 0.43587 0.22306 0.5808 0.0
C790 C 0.44558 0.21246 0.59144 0.0
C791 C 0.45583 0.21567 0.6379 0.0
C792 C 0.44489 0.19761 0.55537 0.0
C793 C 0.42549 0.22098 0.53037 0.0
C794 C 0.42688 0.18129 0.54192 0.0
C795 C 0.4262 0.16728 0.50783 0.0
C796 C 0.44355 0.16924 0.48713 0.0
C797 C 0.46161 0.18539 0.50143 0.0
C798 C 0.46227 0.19946 0.53535 0.0
H799 H 0.42392 0.23396 0.52231 0.0
H800 H 0.43344 0.21895 0.49782 0.0
H801 H 0.41059 0.20797 0.53226 0.0
H802 H 0.41334 0.17934 0.55798 0.0
H803 H 0.41208 0.1549 0.4978 0.0
H804 H 0.05625 0.39308 0.066 0.0
H805 H 0.0243 0.37451 0.02326 0.0
H806 H 0.05245 0.39244 0.8751 0.0
H807 H 0.08427 0.41095 0.91725 0.0
H808 H 0.00837 0.39161 0.95368 0.0
H809 H 0.01601 0.33235 0.86063 0.0
H810 H 0.03113 0.34653 0.91408 0.0
H811 H 0.03613 0.3567 0.85029 0.0
C812 C 0.05562 0.39286 0.02433 0.0
C813 C 0.07274 0.40346 0.99497 0.0
C814 C 0.03739 0.38227 0.0 0.0
C815 C 0.03607 0.38191 0.94603 0.0
C816 C 0.05319 0.39223 0.91673 0.0
H817 H 0.94225 0.33843 0.71988 0.0
H818 H 0.9739 0.35201 0.76436 0.0
C819 C 0.07134 0.4029 0.94094 0.0
C820 C 0.01675 0.37193 0.92017 0.0
H821 H 0.98892 0.33567 0.83445 0.0
C822 C 0.00401 0.37926 0.92799 0.0
C823 C 0.01127 0.35599 0.8862 0.0
C824 C 0.02425 0.34728 0.87746 0.0
C825 C 0.98606 0.37134 0.90194 0.0
C826 C 0.98049 0.35531 0.86811 0.0
C827 C 0.99322 0.34794 0.86038 0.0
C828 C 0.96139 0.34596 0.84095 0.0
C829 C 0.97348 0.38058 0.9098 0.0
C830 C 0.9439 0.33756 0.86921 0.0
C831 C 0.92592 0.32995 0.84404 0.0
C832 C 0.92504 0.33035 0.79001 0.0
C833 C 0.9425 0.33798 0.76155 0.0
C834 C 0.96055 0.34572 0.78689 0.0
H835 H 0.98211 0.39574 0.925 0.0
H836 H 0.96639 0.38098 0.87324 0.0
H837 H 0.96181 0.37181 0.93816 0.0
H838 H 0.94417 0.33715 0.91088 0.0
H839 H 0.91271 0.32399 0.86704 0.0
H840 H 0.61109 0.94168 0.88771 0.0
H841 H 0.63156 0.97373 0.92889 0.0
H842 H 0.60065 0.95084 0.07187 0.0
H843 H 0.58021 0.91904 0.03131 0.0
H844 H 0.61608 0.99649 0.98045 0.0
H845 H 0.65997 0.97766 0.111 0.0
H846 H 0.64777 0.96342 0.05439 0.0
H847 H 0.63403 0.96081 0.11194 0.0
C848 C 0.60879 0.94349 0.92799 0.0
C849 C 0.59405 0.92788 0.95628 0.0
C850 C 0.62047 0.96175 0.95142 0.0
C851 C 0.61777 0.96452 0.00357 0.0
C852 C 0.60318 0.9489 0.03184 0.0
H853 H 0.65759 0.05706 0.2283 0.0
H854 H 0.64423 0.02589 0.18181 0.0
C855 C 0.59143 0.93078 0.00846 0.0
C856 C 0.62927 0.98397 0.02816 0.0
H857 H 0.66086 0.00782 0.12713 0.0
C858 C 0.62609 0.99911 0.01205 0.0
C859 C 0.64211 0.98717 0.06973 0.0
C860 C 0.64635 0.97148 0.08767 0.0
C861 C 0.63489 0.01722 0.0376 0.0
C862 C 0.64765 0.02043 0.07953 0.0
C863 C 0.6511 0.00536 0.09502 0.0
C864 C 0.65712 0.03916 0.10852 0.0
C865 C 0.62976 0.03244 0.02077 0.0
C866 C 0.66931 0.05689 0.08319 0.0
C867 C 0.67679 0.07465 0.10949 0.0
C868 C 0.67247 0.07502 0.16188 0.0
C869 C 0.66114 0.05722 0.18794 0.0
C870 C 0.6535 0.03942 0.16142 0.0
H871 H 0.61601 0.02588 0.99793 0.0
H872 H 0.62805 0.04013 0.05446 0.0
H873 H 0.6417 0.04345 0.99618 0.0
H874 H 0.67274 0.05701 0.04275 0.0
H875 H 0.68566 0.08814 0.0885 0.0
H876 H 0.66918 0.58196 0.2029 0.0
H877 H 0.65642 0.60072 0.24666 0.0
H878 H 0.65364 0.62578 0.10158 0.0
H879 H 0.66642 0.60698 0.05727 0.0
H880 H 0.67108 0.64306 0.2472 0.0
H881 H 0.59678 0.59868 0.16214 0.0
H882 H 0.61447 0.59051 0.16266 0.0
H883 H 0.61686 0.60876 0.11734 0.0
C884 C 0.66595 0.59153 0.18026 0.0
C885 C 0.66866 0.5929 0.12656 0.0
C886 C 0.65873 0.60228 0.20539 0.0
C887 C 0.65394 0.61446 0.17728 0.0
C888 C 0.65708 0.61628 0.12383 0.0
H889 H 0.59335 0.67672 0.25139 0.0
H890 H 0.61208 0.66333 0.21132 0.0
C891 C 0.66441 0.60559 0.09862 0.0
C892 C 0.64495 0.62465 0.2038 0.0
H893 H 0.60225 0.62545 0.21401 0.0
C894 C 0.65604 0.63927 0.24003 0.0
C895 C 0.62531 0.61953 0.1945 0.0
C896 C 0.61254 0.60342 0.15738 0.0
C897 C 0.64809 0.64927 0.26644 0.0
C898 C 0.62842 0.64416 0.25706 0.0
C899 C 0.61734 0.62941 0.22107 0.0
C900 C 0.61898 0.6541 0.28293 0.0
C901 C 0.66095 0.6655 0.30311 0.0
C902 C 0.61687 0.65367 0.33679 0.0
C903 C 0.60628 0.66156 0.36001 0.0
C904 C 0.59739 0.66967 0.32956 0.0
C905 C 0.59995 0.67047 0.27588 0.0
C906 C 0.61065 0.66282 0.25287 0.0
H907 H 0.67674 0.67104 0.29567 0.0
H908 H 0.65813 0.67793 0.30021 0.0
H909 H 0.65772 0.65984 0.34313 0.0
H910 H 0.62282 0.64666 0.36071 0.0
H911 H 0.60441 0.66063 0.40143 0.0
H912 H 0.05848 0.66339 0.21719 0.0
H913 H 0.02658 0.6507 0.25998 0.0
H914 H 0.05384 0.65536 0.40722 0.0
H915 H 0.08557 0.66795 0.36507 0.0
H916 H 0.0085 0.61596 0.32438 0.0
H917 H 0.02079 0.68245 0.42989 0.0
H918 H 0.03545 0.68347 0.37519 0.0
H919 H 0.03976 0.67633 0.43729 0.0
C920 C 0.05766 0.66187 0.25871 0.0
C921 C 0.0745 0.66666 0.28778 0.0
C922 C 0.03948 0.65464 0.28306 0.0
C923 C 0.03794 0.65236 0.3368 0.0
C924 C 0.05477 0.65735 0.36584 0.0
H925 H 0.9444 0.6029 0.56344 0.0
H926 H 0.97601 0.62029 0.51849 0.0
C927 C 0.07287 0.66442 0.34159 0.0
C928 C 0.01862 0.64359 0.36256 0.0
H929 H 0.9925 0.65245 0.45293 0.0
C930 C 0.00489 0.62397 0.3521 0.0
C931 C 0.01412 0.65404 0.39917 0.0
C932 C 0.02822 0.6753 0.4109 0.0
C933 C 0.9869 0.61434 0.37814 0.0
C934 C 0.98232 0.62479 0.41467 0.0
C935 C 0.99603 0.64447 0.42494 0.0
C936 C 0.96329 0.6155 0.44228 0.0
C937 C 0.97325 0.59287 0.36741 0.0
C938 C 0.94572 0.6076 0.4145 0.0
C939 C 0.92776 0.59758 0.43993 0.0
C940 C 0.92699 0.59552 0.49379 0.0
C941 C 0.94457 0.60423 0.52191 0.0
C942 C 0.9626 0.61414 0.49629 0.0
H943 H 0.98113 0.58585 0.35025 0.0
H944 H 0.96582 0.58486 0.40314 0.0
H945 H 0.96188 0.5913 0.33957 0.0
H946 H 0.94589 0.60893 0.37297 0.0
H947 H 0.91446 0.59122 0.41723 0.0
H948 H 0.41698 0.08482 0.52744 0.0
H949 H 0.3986 0.05293 0.56961 0.0
H950 H 0.3754 0.02563 0.42276 0.0
H951 H 0.39375 0.0576 0.38005 0.0
H952 H 0.35571 0.02454 0.5645 0.0
H953 H 0.403 0.99649 0.48782 0.0
H954 H 0.41092 0.02229 0.48995 0.0
H955 H 0.39367 0.00692 0.44204 0.0
C956 C 0.40791 0.07205 0.50407 0.0
C957 C 0.40687 0.07368 0.45037 0.0
C958 C 0.3974 0.05387 0.52827 0.0
C959 C 0.3858 0.03697 0.49923 0.0
C960 C 0.38443 0.03853 0.44572 0.0
H961 H 0.32603 0.91398 0.5805 0.0
H962 H 0.3394 0.9454 0.53629 0.0
C963 C 0.39486 0.05678 0.42144 0.0
C964 C 0.37554 0.01767 0.52508 0.0
H965 H 0.37623 0.97503 0.53925 0.0
C966 C 0.36011 0.01365 0.55899 0.0
C967 C 0.38139 0.00359 0.51773 0.0
C968 C 0.39823 0.00747 0.48271 0.0
C969 C 0.35017 0.99572 0.58537 0.0
C970 C 0.3562 0.9817 0.57858 0.0
C971 C 0.37161 0.98577 0.54445 0.0
C972 C 0.34678 0.96264 0.60614 0.0
C973 C 0.33308 0.99184 0.61937 0.0
C974 C 0.34636 0.96182 0.66024 0.0
C975 C 0.3385 0.94379 0.6857 0.0
C976 C 0.33125 0.92633 0.65743 0.0
C977 C 0.33155 0.9272 0.60336 0.0
C978 C 0.3392 0.94515 0.57801 0.0
H979 H 0.32681 0.00121 0.60863 0.0
H980 H 0.32133 0.97626 0.61719 0.0
H981 H 0.33814 0.99521 0.65989 0.0
H982 H 0.35256 0.97514 0.68281 0.0
H983 H 0.33861 0.94357 0.7274 0.0
H984 H 0.31549 0.38165 0.57774 0.0
H985 H 0.3266 0.36145 0.62225 0.0
H986 H 0.3683 0.41203 0.70847 0.0
H987 H 0.35685 0.43196 0.66573 0.0
H988 H 0.36091 0.36302 0.6258 0.0
H989 H 0.34219 0.37386 0.82313 0.0
H990 H 0.33374 0.38097 0.76703 0.0
H991 H 0.35779 0.39699 0.79303 0.0
C992 C 0.32699 0.38839 0.60631 0.0
C993 C 0.33519 0.40832 0.61863 0.0
C994 C 0.33329 0.37685 0.63177 0.0
C995 C 0.34792 0.38509 0.66978 0.0
C996 C 0.35652 0.40515 0.68071 0.0
H997 H 0.43029 0.35223 0.76884 0.0
H998 H 0.41065 0.36391 0.7256 0.0
C999 C 0.35009 0.41659 0.65584 0.0
C1000 C 0.35485 0.37308 0.69686 0.0
H1001 H 0.36634 0.36364 0.81621 0.0
C1002 C 0.36182 0.36291 0.66747 0.0
C1003 C 0.35558 0.37245 0.75129 0.0
C1004 C 0.3467 0.38148 0.78538 0.0
C1005 C 0.37055 0.35312 0.6909 0.0
C1006 C 0.37293 0.35405 0.74509 0.0
C1007 C 0.36489 0.36322 0.77462 0.0
C1008 C 0.38465 0.34665 0.77157 0.0
C1009 C 0.37717 0.34193 0.65717 0.0
C1010 C 0.37692 0.33369 0.81347 0.0
C1011 C 0.38833 0.32729 0.83913 0.0
C1012 C 0.40763 0.33371 0.82317 0.0
C1013 C 0.41538 0.34684 0.78168 0.0
C1014 C 0.40409 0.35339 0.75654 0.0
H1015 H 0.36821 0.33666 0.62154 0.0
H1016 H 0.39259 0.35178 0.64536 0.0
H1017 H 0.37625 0.32915 0.67769 0.0
H1018 H 0.36202 0.32846 0.82614 0.0
H1019 H 0.38199 0.31718 0.87102 0.0
loop_
_geom_bond_atom_site_label_1
_geom_bond_atom_site_label_2
_geom_bond_distance
_geom_bond_site_symmetry_2
_ccdc_geom_bond_type
In0 O1 2.294 . S
In0 O2 2.340 . S
In0 O6 2.266 . S
In0 O7 2.326 . S
In0 O8 2.266 1_554 S
In0 O9 2.326 . S
In0 O11 2.294 . S
In0 O12 2.326 . S
O1 In0 2.294 . S
O1 C10 1.240 . S
O2 In0 2.340 . S
O2 C10 1.263 . S
C3 O6 1.252 . S
C3 O7 1.260 . S
C4 O11 1.240 . S
C4 O12 1.252 . S
C5 O8 1.252 . S
C5 O9 1.260 1_556 S
O6 In0 2.266 . S
O6 C3 1.252 . S
O7 In0 2.326 . S
O7 C3 1.260 . S
O8 In0 2.266 1_556 S
O8 C5 1.252 . S
O9 In0 2.326 . S
O9 C5 1.260 1_554 S
C10 O1 1.240 . S
C10 O2 1.263 . S
O11 In0 2.294 . S
O11 C4 1.240 . S
O12 In0 2.326 . S
O12 C4 1.252 . S
In13 O14 2.294 . S
In13 O15 2.326 . S
In13 O19 2.266 . S
In13 O20 2.326 . S
In13 O21 2.266 . S
In13 O22 2.326 . S
In13 O24 2.294 . S
In13 O25 2.326 . S
O14 In13 2.294 . S
O14 C23 1.240 . S
O15 In13 2.326 . S
O15 C23 1.252 . S
C16 O19 1.252 . S
C16 O20 1.260 . S
C17 O24 1.240 . S
C17 O25 1.252 . S
C18 O21 1.252 . S
C18 O22 1.260 . S
O19 In13 2.266 . S
O19 C16 1.252 . S
O20 In13 2.326 . S
O20 C16 1.260 . S
O21 In13 2.266 . S
O21 C18 1.252 . S
O22 In13 2.326 . S
O22 C18 1.260 . S
C23 O14 1.240 . S
C23 O15 1.252 . S
O24 In13 2.294 . S
O24 C17 1.240 . S
O25 In13 2.326 . S
O25 C17 1.252 . S
In26 O27 2.294 . S
In26 O28 2.326 . S
In26 O32 2.266 . S
In26 O33 2.326 . S
In26 O34 2.266 . S
In26 O35 2.326 . S
In26 O37 2.294 . S
In26 O38 2.326 . S
O27 In26 2.294 . S
O27 C36 1.240 . S
O28 In26 2.326 . S
O28 C36 1.252 . S
C29 O32 1.252 . S
C29 O33 1.260 . S
C30 O37 1.240 . S
C30 O38 1.252 . S
C31 O34 1.252 . S
C31 O35 1.260 . S
O32 In26 2.266 . S
O32 C29 1.252 . S
O33 In26 2.326 . S
O33 C29 1.260 . S
O34 In26 2.266 . S
O34 C31 1.252 . S
O35 In26 2.326 . S
O35 C31 1.260 . S
C36 O27 1.240 . S
C36 O28 1.252 . S
O37 In26 2.294 . S
O37 C30 1.240 . S
O38 In26 2.326 . S
O38 C30 1.252 . S
In39 O40 2.294 . S
In39 O41 2.326 . S
In39 O45 2.266 . S
In39 O46 2.326 . S
In39 O47 2.266 . S
In39 O48 2.326 . S
In39 O50 2.294 . S
In39 O51 2.326 . S
O40 In39 2.294 . S
O40 C49 1.240 . S
O41 In39 2.326 . S
O41 C49 1.252 . S
C42 O45 1.252 . S
C42 O46 1.260 . S
C43 O50 1.240 . S
C43 O51 1.252 . S
C44 O47 1.252 . S
C44 O48 1.260 . S
O45 In39 2.266 . S
O45 C42 1.252 . S
O46 In39 2.326 . S
O46 C42 1.260 . S
O47 In39 2.266 . S
O47 C44 1.252 . S
O48 In39 2.326 . S
O48 C44 1.260 . S
C49 O40 1.240 . S
C49 O41 1.252 . S
O50 In39 2.294 . S
O50 C43 1.240 . S
O51 In39 2.326 . S
O51 C43 1.252 . S
In52 O53 2.294 . S
In52 O54 2.326 . S
In52 O58 2.266 . S
In52 O59 2.326 . S
In52 O60 2.266 . S
In52 O61 2.326 . S
In52 O63 2.294 . S
In52 O64 2.326 . S
O53 In52 2.294 . S
O53 C62 1.240 . S
O54 In52 2.326 . S
O54 C62 1.252 . S
C55 O58 1.252 . S
C55 O59 1.260 . S
C56 O63 1.240 . S
C56 O64 1.252 . S
C57 O60 1.252 . S
C57 O61 1.260 . S
O58 In52 2.266 . S
O58 C55 1.252 . S
O59 In52 2.326 . S
O59 C55 1.260 . S
O60 In52 2.266 . S
O60 C57 1.252 . S
O61 In52 2.326 . S
O61 C57 1.260 . S
C62 O53 1.240 . S
C62 O54 1.252 . S
O63 In52 2.294 . S
O63 C56 1.240 . S
O64 In52 2.326 . S
O64 C56 1.252 . S
In65 O66 2.294 . S
In65 O67 2.326 . S
In65 O71 2.266 . S
In65 O72 2.326 . S
In65 O73 2.266 . S
In65 O74 2.326 . S
In65 O76 2.294 . S
In65 O77 2.326 . S
O66 In65 2.294 . S
O66 C75 1.240 . S
O67 In65 2.326 . S
O67 C75 1.252 . S
C68 O71 1.252 . S
C68 O72 1.260 . S
C69 O76 1.240 . S
C69 O77 1.252 . S
C70 O73 1.252 . S
C70 O74 1.260 . S
O71 In65 2.266 . S
O71 C68 1.252 . S
O72 In65 2.326 . S
O72 C68 1.260 . S
O73 In65 2.266 . S
O73 C70 1.252 . S
O74 In65 2.326 . S
O74 C70 1.260 . S
C75 O66 1.240 . S
C75 O67 1.252 . S
O76 In65 2.294 . S
O76 C69 1.240 . S
O77 In65 2.326 . S
O77 C69 1.252 . S
In78 O79 2.294 . S
In78 O80 2.326 . S
In78 O84 2.266 . S
In78 O85 2.326 . S
In78 O86 2.266 . S
In78 O87 2.326 . S
In78 O89 2.294 . S
In78 O90 2.326 . S
O79 In78 2.294 . S
O79 C88 1.240 . S
O80 In78 2.326 . S
O80 C88 1.252 . S
C81 O84 1.252 . S
C81 O85 1.260 . S
C82 O89 1.240 . S
C82 O90 1.252 . S
C83 O86 1.252 . S
C83 O87 1.260 . S
O84 In78 2.266 . S
O84 C81 1.252 . S
O85 In78 2.326 . S
O85 C81 1.260 . S
O86 In78 2.266 . S
O86 C83 1.252 . S
O87 In78 2.326 . S
O87 C83 1.260 . S
C88 O79 1.240 . S
C88 O80 1.252 . S
O89 In78 2.294 . S
O89 C82 1.240 . S
O90 In78 2.326 . S
O90 C82 1.252 . S
In91 O92 2.294 . S
In91 O93 2.326 . S
In91 O97 2.266 . S
In91 O98 2.326 . S
In91 O99 2.266 1_554 S
In91 O100 2.326 . S
In91 O102 2.294 . S
In91 O103 2.326 . S
O92 In91 2.294 . S
O92 C101 1.240 . S
O93 In91 2.326 . S
O93 C101 1.252 . S
C94 O97 1.252 . S
C94 O98 1.260 . S
C95 O102 1.240 . S
C95 O103 1.252 . S
C96 O99 1.252 . S
C96 O100 1.260 1_556 S
O97 In91 2.266 . S
O97 C94 1.252 . S
O98 In91 2.326 . S
O98 C94 1.260 . S
O99 In91 2.266 1_556 S
O99 C96 1.252 . S
O100 In91 2.326 . S
O100 C96 1.260 1_554 S
C101 O92 1.240 . S
C101 O93 1.252 . S
O102 In91 2.294 . S
O102 C95 1.240 . S
O103 In91 2.326 . S
O103 C95 1.252 . S
In104 O105 2.294 . S
In104 O106 2.326 . S
In104 O110 2.266 . S
In104 O111 2.326 . S
In104 O112 2.266 . S
In104 O113 2.326 . S
In104 O115 2.294 . S
In104 O116 2.326 . S
O105 In104 2.294 . S
O105 C114 1.240 . S
O106 In104 2.326 . S
O106 C114 1.252 . S
C107 O110 1.252 . S
C107 O111 1.260 . S
C108 O115 1.240 . S
C108 O116 1.252 . S
C109 O112 1.252 . S
C109 O113 1.260 . S
O110 In104 2.266 . S
O110 C107 1.252 . S
O111 In104 2.326 . S
O111 C107 1.260 . S
O112 In104 2.266 . S
O112 C109 1.252 . S
O113 In104 2.326 . S
O113 C109 1.260 . S
C114 O105 1.240 . S
C114 O106 1.252 . S
O115 In104 2.294 . S
O115 C108 1.240 . S
O116 In104 2.326 . S
O116 C108 1.252 . S
In117 O118 2.294 . S
In117 O119 2.326 . S
In117 O123 2.266 . S
In117 O124 2.326 . S
In117 O125 2.266 . S
In117 O126 2.326 . S
In117 O128 2.294 . S
In117 O129 2.326 . S
O118 In117 2.294 . S
O118 C127 1.240 . S
O119 In117 2.326 . S
O119 C127 1.252 . S
C120 O123 1.252 . S
C120 O124 1.260 . S
C121 O128 1.240 . S
C121 O129 1.252 . S
C122 O125 1.252 . S
C122 O126 1.260 . S
O123 In117 2.266 . S
O123 C120 1.252 . S
O124 In117 2.326 . S
O124 C120 1.260 . S
O125 In117 2.266 . S
O125 C122 1.252 . S
O126 In117 2.326 . S
O126 C122 1.260 . S
C127 O118 1.240 . S
C127 O119 1.252 . S
O128 In117 2.294 . S
O128 C121 1.240 . S
O129 In117 2.326 . S
O129 C121 1.252 . S
In130 O131 2.294 . S
In130 O132 2.326 . S
In130 O136 2.266 . S
In130 O137 2.326 . S
In130 O138 2.266 . S
In130 O139 2.326 . S
In130 O141 2.294 . S
In130 O142 2.326 . S
O131 In130 2.294 . S
O131 C140 1.240 . S
O132 In130 2.326 . S
O132 C140 1.252 . S
C133 O136 1.252 . S
C133 O137 1.260 . S
C134 O141 1.240 . S
C134 O142 1.252 . S
C135 O138 1.252 . S
C135 O139 1.260 . S
O136 In130 2.266 . S
O136 C133 1.252 . S
O137 In130 2.326 . S
O137 C133 1.260 . S
O138 In130 2.266 . S
O138 C135 1.252 . S
O139 In130 2.326 . S
O139 C135 1.260 . S
C140 O131 1.240 . S
C140 O132 1.252 . S
O141 In130 2.294 . S
O141 C134 1.240 . S
O142 In130 2.326 . S
O142 C134 1.252 . S
In143 O144 2.294 . S
In143 O145 2.326 . S
In143 O149 2.266 . S
In143 O150 2.326 . S
In143 O151 2.266 . S
In143 O152 2.326 . S
In143 O154 2.294 . S
In143 O155 2.326 . S
O144 In143 2.294 . S
O144 C153 1.240 . S
O145 In143 2.326 . S
O145 C153 1.252 . S
C146 O149 1.252 . S
C146 O150 1.260 . S
C147 O154 1.240 . S
C147 O155 1.252 . S
C148 O151 1.252 . S
C148 O152 1.260 . S
O149 In143 2.266 . S
O149 C146 1.252 . S
O150 In143 2.326 . S
O150 C146 1.260 . S
O151 In143 2.266 . S
O151 C148 1.252 . S
O152 In143 2.326 . S
O152 C148 1.260 . S
C153 O144 1.240 . S
C153 O145 1.252 . S
O154 In143 2.294 . S
O154 C147 1.240 . S
O155 In143 2.326 . S
O155 C147 1.252 . S
H156 C164 0.929 . S
H157 C166 0.930 . S
H158 C168 0.930 . S
H159 C171 0.929 . S
H160 C174 0.930 . S
H161 C176 0.960 . S
H162 C176 0.960 . S
H163 C176 0.960 . S
C164 H156 0.929 . S
C164 C165 1.377 . S
C164 C166 1.384 . S
C165 C164 1.377 . S
C165 C171 1.390 . S
C166 H157 0.930 . S
C166 C164 1.384 . S
C166 C167 1.372 . S
C167 C166 1.372 . S
C167 C168 1.400 . S
C167 C172 1.490 . S
C168 H158 0.930 . S
C168 C167 1.400 . S
C168 C171 1.386 . S
H169 C185 0.930 . S
H170 C186 0.931 . S
C171 H159 0.929 . S
C171 C165 1.390 . S
C171 C168 1.386 . S
C172 C167 1.490 . S
C172 C174 1.395 . S
C172 C175 1.403 . S
H173 C179 0.930 . S
C174 H160 0.930 . S
C174 C172 1.395 . S
C174 C177 1.403 . S
C175 C172 1.403 . S
C175 C176 1.524 . S
C175 C179 1.400 . S
C176 H161 0.960 . S
C176 H162 0.960 . S
C176 H163 0.960 . S
C176 C175 1.524 . S
C177 C174 1.403 . S
C177 C178 1.392 . S
C177 C181 1.495 . S
C178 C177 1.392 . S
C178 C179 1.385 . S
C178 C180 1.478 . S
C179 H173 0.930 . S
C179 C175 1.400 . S
C179 C178 1.385 . S
C180 C178 1.478 . S
C180 C182 1.381 . S
C180 C186 1.383 . S
C181 C177 1.495 . S
C181 H187 0.959 . S
C181 H188 0.961 . S
C181 H189 0.960 . S
C182 C180 1.381 . S
C182 C183 1.394 . S
C182 H190 0.930 . S
C183 C182 1.394 . S
C183 C184 1.383 . S
C183 H191 0.929 . S
C184 C183 1.383 . S
C184 C185 1.377 . S
C185 H169 0.930 . S
C185 C184 1.377 . S
C185 C186 1.379 . S
C186 H170 0.931 . S
C186 C180 1.383 . S
C186 C185 1.379 . S
H187 C181 0.959 . S
H188 C181 0.961 . S
H189 C181 0.960 . S
H190 C182 0.930 . S
H191 C183 0.929 . S
H192 C200 0.929 . S
H193 C202 0.930 . S
H194 C204 0.930 . S
H195 C207 0.929 . S
H196 C210 0.930 . S
H197 C212 0.960 . S
H198 C212 0.960 . S
H199 C212 0.960 . S
C200 H192 0.929 . S
C200 C201 1.377 . S
C200 C202 1.384 . S
C201 C200 1.377 . S
C201 C207 1.390 . S
C202 H193 0.930 . S
C202 C200 1.384 . S
C202 C203 1.372 . S
C203 C202 1.372 . S
C203 C204 1.400 . S
C203 C208 1.490 . S
C204 H194 0.930 . S
C204 C203 1.400 . S
C204 C207 1.386 . S
H205 C221 0.930 . S
H206 C222 0.931 . S
C207 H195 0.929 . S
C207 C201 1.390 . S
C207 C204 1.386 . S
C208 C203 1.490 . S
C208 C210 1.395 . S
C208 C211 1.403 . S
H209 C215 0.930 . S
C210 H196 0.930 . S
C210 C208 1.395 . S
C210 C213 1.403 . S
C211 C208 1.403 . S
C211 C212 1.524 . S
C211 C215 1.400 . S
C212 H197 0.960 . S
C212 H198 0.960 . S
C212 H199 0.960 . S
C212 C211 1.524 . S
C213 C210 1.403 . S
C213 C214 1.392 . S
C213 C217 1.495 . S
C214 C213 1.392 . S
C214 C215 1.385 . S
C214 C216 1.478 . S
C215 H209 0.930 . S
C215 C211 1.400 . S
C215 C214 1.385 . S
C216 C214 1.478 . S
C216 C218 1.381 . S
C216 C222 1.383 . S
C217 C213 1.495 . S
C217 H223 0.959 . S
C217 H224 0.961 . S
C217 H225 0.960 . S
C218 C216 1.381 . S
C218 C219 1.394 . S
C218 H226 0.930 . S
C219 C218 1.394 . S
C219 C220 1.383 . S
C219 H227 0.929 . S
C220 C219 1.383 . S
C220 C221 1.377 . S
C221 H205 0.930 . S
C221 C220 1.377 . S
C221 C222 1.379 . S
C222 H206 0.931 . S
C222 C216 1.383 . S
C222 C221 1.379 . S
H223 C217 0.959 . S
H224 C217 0.961 . S
H225 C217 0.960 . S
H226 C218 0.930 . S
H227 C219 0.929 . S
H228 C236 0.929 . S
H229 C238 0.930 . S
H230 C240 0.930 . S
H231 C243 0.929 . S
H232 C246 0.930 . S
H233 C248 0.960 . S
H234 C248 0.960 . S
H235 C248 0.960 . S
C236 H228 0.929 . S
C236 C237 1.377 . S
C236 C238 1.384 . S
C237 C236 1.377 . S
C237 C243 1.390 . S
C238 H229 0.930 . S
C238 C236 1.384 . S
C238 C239 1.372 . S
C239 C238 1.372 . S
C239 C240 1.400 . S
C239 C244 1.490 . S
C240 H230 0.930 . S
C240 C239 1.400 . S
C240 C243 1.386 . S
H241 C257 0.930 . S
H242 C258 0.931 . S
C243 H231 0.929 . S
C243 C237 1.390 . S
C243 C240 1.386 . S
C244 C239 1.490 . S
C244 C246 1.395 . S
C244 C247 1.403 . S
H245 C251 0.930 . S
C246 H232 0.930 . S
C246 C244 1.395 . S
C246 C249 1.403 . S
C247 C244 1.403 . S
C247 C248 1.524 . S
C247 C251 1.400 . S
C248 H233 0.960 . S
C248 H234 0.960 . S
C248 H235 0.960 . S
C248 C247 1.524 . S
C249 C246 1.403 . S
C249 C250 1.392 . S
C249 C253 1.495 . S
C250 C249 1.392 . S
C250 C251 1.385 . S
C250 C252 1.478 . S
C251 H245 0.930 . S
C251 C247 1.400 . S
C251 C250 1.385 . S
C252 C250 1.478 . S
C252 C254 1.381 . S
C252 C258 1.383 . S
C253 C249 1.495 . S
C253 H259 0.959 . S
C253 H260 0.961 . S
C253 H261 0.960 . S
C254 C252 1.381 . S
C254 C255 1.394 . S
C254 H262 0.930 . S
C255 C254 1.394 . S
C255 C256 1.383 . S
C255 H263 0.929 . S
C256 C255 1.383 . S
C256 C257 1.377 . S
C257 H241 0.930 . S
C257 C256 1.377 . S
C257 C258 1.379 . S
C258 H242 0.931 . S
C258 C252 1.383 . S
C258 C257 1.379 . S
H259 C253 0.959 . S
H260 C253 0.961 . S
H261 C253 0.960 . S
H262 C254 0.930 . S
H263 C255 0.929 . S
H264 C272 0.929 . S
H265 C274 0.930 . S
H266 C276 0.930 . S
H267 C279 0.929 . S
H268 C282 0.930 . S
H269 C284 0.960 . S
H270 C284 0.960 . S
H271 C284 0.960 . S
C272 H264 0.929 . S
C272 C273 1.377 . S
C272 C274 1.384 . S
C273 C272 1.377 . S
C273 C279 1.390 . S
C274 H265 0.930 . S
C274 C272 1.384 . S
C274 C275 1.372 . S
C275 C274 1.372 . S
C275 C276 1.400 . S
C275 C280 1.490 . S
C276 H266 0.930 . S
C276 C275 1.400 . S
C276 C279 1.386 . S
H277 C293 0.930 . S
H278 C294 0.931 . S
C279 H267 0.929 . S
C279 C273 1.390 . S
C279 C276 1.386 . S
C280 C275 1.490 . S
C280 C282 1.395 . S
C280 C283 1.403 . S
H281 C287 0.930 . S
C282 H268 0.930 . S
C282 C280 1.395 . S
C282 C285 1.403 . S
C283 C280 1.403 . S
C283 C284 1.524 . S
C283 C287 1.400 . S
C284 H269 0.960 . S
C284 H270 0.960 . S
C284 H271 0.960 . S
C284 C283 1.524 . S
C285 C282 1.403 . S
C285 C286 1.392 . S
C285 C289 1.495 . S
C286 C285 1.392 . S
C286 C287 1.385 . S
C286 C288 1.478 . S
C287 H281 0.930 . S
C287 C283 1.400 . S
C287 C286 1.385 . S
C288 C286 1.478 . S
C288 C290 1.381 . S
C288 C294 1.383 . S
C289 C285 1.495 . S
C289 H295 0.959 . S
C289 H296 0.961 . S
C289 H297 0.960 . S
C290 C288 1.381 . S
C290 C291 1.394 . S
C290 H298 0.930 . S
C291 C290 1.394 . S
C291 C292 1.383 . S
C291 H299 0.929 . S
C292 C291 1.383 . S
C292 C293 1.377 . S
C293 H277 0.930 . S
C293 C292 1.377 . S
C293 C294 1.379 . S
C294 H278 0.931 . S
C294 C288 1.383 . S
C294 C293 1.379 . S
H295 C289 0.959 . S
H296 C289 0.961 . S
H297 C289 0.960 . S
H298 C290 0.930 . S
H299 C291 0.929 . S
H300 C308 0.929 . S
H301 C310 0.930 . S
H302 C312 0.930 . S
H303 C315 0.929 . S
H304 C318 0.930 . S
H305 C320 0.960 . S
H306 C320 0.960 . S
H307 C320 0.960 . S
C308 H300 0.929 . S
C308 C309 1.377 . S
C308 C310 1.384 . S
C309 C308 1.377 . S
C309 C315 1.390 . S
C310 H301 0.930 . S
C310 C308 1.384 . S
C310 C311 1.372 . S
C311 C310 1.372 . S
C311 C312 1.400 . S
C311 C316 1.490 . S
C312 H302 0.930 . S
C312 C311 1.400 . S
C312 C315 1.386 . S
H313 C329 0.930 . S
H314 C330 0.931 . S
C315 H303 0.929 . S
C315 C309 1.390 . S
C315 C312 1.386 . S
C316 C311 1.490 . S
C316 C318 1.395 . S
C316 C319 1.403 . S
H317 C323 0.930 . S
C318 H304 0.930 . S
C318 C316 1.395 . S
C318 C321 1.403 1_556 S
C319 C316 1.403 . S
C319 C320 1.524 . S
C319 C323 1.400 . S
C320 H305 0.960 . S
C320 H306 0.960 . S
C320 H307 0.960 . S
C320 C319 1.524 . S
C321 C318 1.403 1_554 S
C321 C322 1.392 . S
C321 C325 1.495 . S
C322 C321 1.392 . S
C322 C323 1.385 1_554 S
C322 C324 1.478 . S
C323 H317 0.930 . S
C323 C319 1.400 . S
C323 C322 1.385 1_556 S
C324 C322 1.478 . S
C324 C326 1.381 . S
C324 C330 1.383 . S
C325 C321 1.495 . S
C325 H331 0.959 . S
C325 H332 0.961 . S
C325 H333 0.960 . S
C326 C324 1.381 . S
C326 C327 1.394 . S
C326 H334 0.930 . S
C327 C326 1.394 . S
C327 C328 1.383 . S
C327 H335 0.929 . S
C328 C327 1.383 . S
C328 C329 1.377 . S
C329 H313 0.930 . S
C329 C328 1.377 . S
C329 C330 1.379 . S
C330 H314 0.931 . S
C330 C324 1.383 . S
C330 C329 1.379 . S
H331 C325 0.959 . S
H332 C325 0.961 . S
H333 C325 0.960 . S
H334 C326 0.930 . S
H335 C327 0.929 . S
H336 C344 0.929 . S
H337 C346 0.930 . S
H338 C348 0.930 . S
H339 C351 0.929 . S
H340 C354 0.930 . S
H341 C356 0.960 . S
H342 C356 0.960 . S
H343 C356 0.960 . S
C344 H336 0.929 . S
C344 C345 1.377 . S
C344 C346 1.384 . S
C345 C344 1.377 . S
C345 C351 1.390 . S
C346 H337 0.930 . S
C346 C344 1.384 . S
C346 C347 1.372 . S
C347 C346 1.372 . S
C347 C348 1.400 . S
C347 C352 1.490 . S
C348 H338 0.930 . S
C348 C347 1.400 . S
C348 C351 1.386 . S
H349 C365 0.930 1_556 S
H350 C366 0.931 . S
C351 H339 0.929 . S
C351 C345 1.390 . S
C351 C348 1.386 . S
C352 C347 1.490 . S
C352 C354 1.395 . S
C352 C355 1.403 . S
H353 C359 0.930 . S
C354 H340 0.930 . S
C354 C352 1.395 . S
C354 C357 1.403 . S
C355 C352 1.403 . S
C355 C356 1.524 . S
C355 C359 1.400 . S
C356 H341 0.960 . S
C356 H342 0.960 . S
C356 H343 0.960 . S
C356 C355 1.524 . S
C357 C354 1.403 . S
C357 C358 1.392 . S
C357 C361 1.495 . S
C358 C357 1.392 . S
C358 C359 1.385 . S
C358 C360 1.478 . S
C359 H353 0.930 . S
C359 C355 1.400 . S
C359 C358 1.385 . S
C360 C358 1.478 . S
C360 C362 1.381 . S
C360 C366 1.383 . S
C361 C357 1.495 . S
C361 H367 0.959 . S
C361 H368 0.961 . S
C361 H369 0.960 . S
C362 C360 1.381 . S
C362 C363 1.394 . S
C362 H370 0.930 . S
C363 C362 1.394 . S
C363 C364 1.383 . S
C363 H371 0.929 . S
C364 C363 1.383 . S
C364 C365 1.377 . S
C365 H349 0.930 1_554 S
C365 C364 1.377 . S
C365 C366 1.379 . S
C366 H350 0.931 . S
C366 C360 1.383 . S
C366 C365 1.379 . S
H367 C361 0.959 . S
H368 C361 0.961 . S
H369 C361 0.960 . S
H370 C362 0.930 . S
H371 C363 0.929 . S
H372 C380 0.929 . S
H373 C382 0.930 . S
H374 C384 0.930 . S
H375 C387 0.929 . S
H376 C390 0.930 . S
H377 C392 0.960 . S
H378 C392 0.960 . S
H379 C392 0.960 . S
C380 H372 0.929 . S
C380 C381 1.377 . S
C380 C382 1.384 . S
C381 C380 1.377 . S
C381 C387 1.390 . S
C382 H373 0.930 . S
C382 C380 1.384 . S
C382 C383 1.372 . S
C383 C382 1.372 . S
C383 C384 1.400 . S
C383 C388 1.490 . S
C384 H374 0.930 . S
C384 C383 1.400 . S
C384 C387 1.386 . S
H385 C401 0.930 . S
H386 C402 0.931 . S
C387 H375 0.929 . S
C387 C381 1.390 . S
C387 C384 1.386 . S
C388 C383 1.490 . S
C388 C390 1.395 . S
C388 C391 1.403 . S
H389 C395 0.930 . S
C390 H376 0.930 . S
C390 C388 1.395 . S
C390 C393 1.403 . S
C391 C388 1.403 . S
C391 C392 1.524 . S
C391 C395 1.400 . S
C392 H377 0.960 . S
C392 H378 0.960 . S
C392 H379 0.960 . S
C392 C391 1.524 . S
C393 C390 1.403 . S
C393 C394 1.392 . S
C393 C397 1.495 . S
C394 C393 1.392 . S
C394 C395 1.385 . S
C394 C396 1.478 . S
C395 H389 0.930 . S
C395 C391 1.400 . S
C395 C394 1.385 . S
C396 C394 1.478 . S
C396 C398 1.381 . S
C396 C402 1.383 . S
C397 C393 1.495 . S
C397 H403 0.959 . S
C397 H404 0.961 . S
C397 H405 0.960 . S
C398 C396 1.381 . S
C398 C399 1.394 . S
C398 H406 0.930 . S
C399 C398 1.394 . S
C399 C400 1.383 . S
C399 H407 0.929 . S
C400 C399 1.383 . S
C400 C401 1.377 . S
C401 H385 0.930 . S
C401 C400 1.377 . S
C401 C402 1.379 . S
C402 H386 0.931 . S
C402 C396 1.383 . S
C402 C401 1.379 . S
H403 C397 0.959 . S
H404 C397 0.961 . S
H405 C397 0.960 . S
H406 C398 0.930 . S
H407 C399 0.929 . S
H408 C416 0.929 . S
H409 C418 0.930 . S
H410 C420 0.930 . S
H411 C423 0.929 . S
H412 C426 0.930 . S
H413 C428 0.960 . S
H414 C428 0.960 . S
H415 C428 0.960 . S
C416 H408 0.929 . S
C416 C417 1.377 . S
C416 C418 1.384 . S
C417 C416 1.377 . S
C417 C423 1.390 . S
C418 H409 0.930 . S
C418 C416 1.384 . S
C418 C419 1.372 . S
C419 C418 1.372 . S
C419 C420 1.400 . S
C419 C424 1.490 . S
C420 H410 0.930 . S
C420 C419 1.400 . S
C420 C423 1.386 . S
H421 C437 0.930 . S
H422 C438 0.931 . S
C423 H411 0.929 . S
C423 C417 1.390 . S
C423 C420 1.386 . S
C424 C419 1.490 . S
C424 C426 1.395 . S
C424 C427 1.403 . S
H425 C431 0.930 . S
C426 H412 0.930 . S
C426 C424 1.395 . S
C426 C429 1.403 . S
C427 C424 1.403 . S
C427 C428 1.524 . S
C427 C431 1.400 . S
C428 H413 0.960 . S
C428 H414 0.960 . S
C428 H415 0.960 . S
C428 C427 1.524 . S
C429 C426 1.403 . S
C429 C430 1.392 . S
C429 C433 1.495 . S
C430 C429 1.392 . S
C430 C431 1.385 . S
C430 C432 1.478 . S
C431 H425 0.930 . S
C431 C427 1.400 . S
C431 C430 1.385 . S
C432 C430 1.478 . S
C432 C434 1.381 . S
C432 C438 1.383 . S
C433 C429 1.495 . S
C433 H439 0.959 . S
C433 H440 0.961 . S
C433 H441 0.960 . S
C434 C432 1.381 . S
C434 C435 1.394 . S
C434 H442 0.930 . S
C435 C434 1.394 . S
C435 C436 1.383 . S
C435 H443 0.929 . S
C436 C435 1.383 . S
C436 C437 1.377 . S
C437 H421 0.930 . S
C437 C436 1.377 . S
C437 C438 1.379 . S
C438 H422 0.931 . S
C438 C432 1.383 . S
C438 C437 1.379 . S
H439 C433 0.959 . S
H440 C433 0.961 . S
H441 C433 0.960 . S
H442 C434 0.930 . S
H443 C435 0.929 . S
H444 C452 0.929 . S
H445 C454 0.930 . S
H446 C456 0.930 . S
H447 C459 0.929 . S
H448 C462 0.930 . S
H449 C464 0.960 . S
H450 C464 0.960 . S
H451 C464 0.960 . S
C452 H444 0.929 . S
C452 C453 1.377 . S
C452 C454 1.384 . S
C453 C452 1.377 . S
C453 C459 1.390 . S
C454 H445 0.930 . S
C454 C452 1.384 . S
C454 C455 1.372 . S
C455 C454 1.372 . S
C455 C456 1.400 . S
C455 C460 1.490 . S
C456 H446 0.930 . S
C456 C455 1.400 . S
C456 C459 1.386 . S
H457 C473 0.930 . S
H458 C474 0.931 . S
C459 H447 0.929 . S
C459 C453 1.390 . S
C459 C456 1.386 . S
C460 C455 1.490 . S
C460 C462 1.395 . S
C460 C463 1.403 . S
H461 C467 0.930 . S
C462 H448 0.930 . S
C462 C460 1.395 . S
C462 C465 1.403 . S
C463 C460 1.403 . S
C463 C464 1.524 . S
C463 C467 1.400 . S
C464 H449 0.960 . S
C464 H450 0.960 . S
C464 H451 0.960 . S
C464 C463 1.524 . S
C465 C462 1.403 . S
C465 C466 1.392 . S
C465 C469 1.495 . S
C466 C465 1.392 . S
C466 C467 1.385 . S
C466 C468 1.478 . S
C467 H461 0.930 . S
C467 C463 1.400 . S
C467 C466 1.385 . S
C468 C466 1.478 . S
C468 C470 1.381 . S
C468 C474 1.383 . S
C469 C465 1.495 . S
C469 H475 0.959 . S
C469 H476 0.961 . S
C469 H477 0.960 . S
C470 C468 1.381 . S
C470 C471 1.394 . S
C470 H478 0.930 . S
C471 C470 1.394 . S
C471 C472 1.383 . S
C471 H479 0.929 . S
C472 C471 1.383 . S
C472 C473 1.377 . S
C473 H457 0.930 . S
C473 C472 1.377 . S
C473 C474 1.379 . S
C474 H458 0.931 . S
C474 C468 1.383 . S
C474 C473 1.379 . S
H475 C469 0.959 . S
H476 C469 0.961 . S
H477 C469 0.960 . S
H478 C470 0.930 . S
H479 C471 0.929 . S
H480 C488 0.929 . S
H481 C490 0.930 . S
H482 C492 0.930 . S
H483 C495 0.929 . S
H484 C498 0.930 . S
H485 C500 0.960 . S
H486 C500 0.960 . S
H487 C500 0.960 . S
C488 H480 0.929 . S
C488 C489 1.377 . S
C488 C490 1.384 . S
C489 C488 1.377 . S
C489 C495 1.390 . S
C490 H481 0.930 . S
C490 C488 1.384 . S
C490 C491 1.372 . S
C491 C490 1.372 . S
C491 C492 1.400 . S
C491 C496 1.490 . S
C492 H482 0.930 . S
C492 C491 1.400 . S
C492 C495 1.386 . S
H493 C509 0.930 . S
H494 C510 0.931 . S
C495 H483 0.929 . S
C495 C489 1.390 . S
C495 C492 1.386 . S
C496 C491 1.490 . S
C496 C498 1.395 . S
C496 C499 1.403 . S
H497 C503 0.930 . S
C498 H484 0.930 . S
C498 C496 1.395 . S
C498 C501 1.403 . S
C499 C496 1.403 . S
C499 C500 1.524 . S
C499 C503 1.400 . S
C500 H485 0.960 . S
C500 H486 0.960 . S
C500 H487 0.960 . S
C500 C499 1.524 . S
C501 C498 1.403 . S
C501 C502 1.392 . S
C501 C505 1.495 . S
C502 C501 1.392 . S
C502 C503 1.385 . S
C502 C504 1.478 . S
C503 H497 0.930 . S
C503 C499 1.400 . S
C503 C502 1.385 . S
C504 C502 1.478 . S
C504 C506 1.381 . S
C504 C510 1.383 . S
C505 C501 1.495 . S
C505 H511 0.959 . S
C505 H512 0.961 . S
C505 H513 0.960 . S
C506 C504 1.381 . S
C506 C507 1.394 . S
C506 H514 0.930 . S
C507 C506 1.394 . S
C507 C508 1.383 . S
C507 H515 0.929 . S
C508 C507 1.383 . S
C508 C509 1.377 . S
C509 H493 0.930 . S
C509 C508 1.377 . S
C509 C510 1.379 . S
C510 H494 0.931 . S
C510 C504 1.383 . S
C510 C509 1.379 . S
H511 C505 0.959 . S
H512 C505 0.961 . S
H513 C505 0.960 . S
H514 C506 0.930 . S
H515 C507 0.929 . S
H516 C524 0.929 . S
H517 C526 0.930 . S
H518 C528 0.930 . S
H519 C531 0.929 . S
H520 C534 0.930 . S
H521 C536 0.960 . S
H522 C536 0.960 . S
H523 C536 0.960 . S
C524 H516 0.929 . S
C524 C525 1.377 . S
C524 C526 1.384 . S
C525 C524 1.377 . S
C525 C531 1.390 . S
C526 H517 0.930 . S
C526 C524 1.384 . S
C526 C527 1.372 . S
C527 C526 1.372 . S
C527 C528 1.400 . S
C527 C532 1.490 . S
C528 H518 0.930 . S
C528 C527 1.400 . S
C528 C531 1.386 . S
H529 C545 0.930 . S
H530 C546 0.931 . S
C531 H519 0.929 . S
C531 C525 1.390 . S
C531 C528 1.386 . S
C532 C527 1.490 . S
C532 C534 1.395 . S
C532 C535 1.403 . S
H533 C539 0.930 . S
C534 H520 0.930 . S
C534 C532 1.395 . S
C534 C537 1.403 . S
C535 C532 1.403 . S
C535 C536 1.524 . S
C535 C539 1.400 . S
C536 H521 0.960 . S
C536 H522 0.960 . S
C536 H523 0.960 . S
C536 C535 1.524 . S
C537 C534 1.403 . S
C537 C538 1.392 . S
C537 C541 1.495 . S
C538 C537 1.392 . S
C538 C539 1.385 . S
C538 C540 1.478 . S
C539 H533 0.930 . S
C539 C535 1.400 . S
C539 C538 1.385 . S
C540 C538 1.478 . S
C540 C542 1.381 . S
C540 C546 1.383 . S
C541 C537 1.495 . S
C541 H547 0.959 . S
C541 H548 0.961 . S
C541 H549 0.960 . S
C542 C540 1.381 . S
C542 C543 1.394 . S
C542 H550 0.930 . S
C543 C542 1.394 . S
C543 C544 1.383 . S
C543 H551 0.929 . S
C544 C543 1.383 . S
C544 C545 1.377 . S
C545 H529 0.930 . S
C545 C544 1.377 . S
C545 C546 1.379 . S
C546 H530 0.931 . S
C546 C540 1.383 . S
C546 C545 1.379 . S
H547 C541 0.959 . S
H548 C541 0.961 . S
H549 C541 0.960 . S
H550 C542 0.930 . S
H551 C543 0.929 . S
H552 C560 0.929 . S
H553 C562 0.930 . S
H554 C564 0.930 . S
H555 C567 0.929 . S
H556 C570 0.930 . S
H557 C572 0.960 . S
H558 C572 0.960 . S
H559 C572 0.960 . S
C560 H552 0.929 . S
C560 C561 1.377 . S
C560 C562 1.384 . S
C561 C560 1.377 . S
C561 C567 1.390 . S
C562 H553 0.930 . S
C562 C560 1.384 . S
C562 C563 1.372 . S
C563 C562 1.372 . S
C563 C564 1.400 . S
C563 C568 1.490 . S
C564 H554 0.930 . S
C564 C563 1.400 . S
C564 C567 1.386 . S
H565 C581 0.930 . S
H566 C582 0.931 . S
C567 H555 0.929 . S
C567 C561 1.390 . S
C567 C564 1.386 . S
C568 C563 1.490 . S
C568 C570 1.395 1_556 S
C568 C571 1.403 . S
H569 C575 0.930 . S
C570 H556 0.930 . S
C570 C568 1.395 1_554 S
C570 C573 1.403 . S
C571 C568 1.403 . S
C571 C572 1.524 . S
C571 C575 1.400 . S
C572 H557 0.960 . S
C572 H558 0.960 . S
C572 H559 0.960 . S
C572 C571 1.524 . S
C573 C570 1.403 . S
C573 C574 1.392 1_554 S
C573 C577 1.495 . S
C574 C573 1.392 1_556 S
C574 C575 1.385 . S
C574 C576 1.478 1_556 S
C575 H569 0.930 . S
C575 C571 1.400 . S
C575 C574 1.385 . S
C576 C574 1.478 1_554 S
C576 C578 1.381 . S
C576 C582 1.383 . S
C577 C573 1.495 . S
C577 H583 0.959 . S
C577 H584 0.961 . S
C577 H585 0.960 . S
C578 C576 1.381 . S
C578 C579 1.394 . S
C578 H586 0.930 . S
C579 C578 1.394 . S
C579 C580 1.383 . S
C579 H587 0.929 . S
C580 C579 1.383 . S
C580 C581 1.377 . S
C581 H565 0.930 . S
C581 C580 1.377 . S
C581 C582 1.379 . S
C582 H566 0.931 . S
C582 C576 1.383 . S
C582 C581 1.379 . S
H583 C577 0.959 . S
H584 C577 0.961 . S
H585 C577 0.960 . S
H586 C578 0.930 . S
H587 C579 0.929 . S
H588 C596 0.929 . S
H589 C598 0.930 . S
H590 C600 0.930 . S
H591 C603 0.929 . S
H592 C606 0.930 . S
H593 C608 0.960 . S
H594 C608 0.960 . S
H595 C608 0.960 . S
C596 H588 0.929 . S
C596 C597 1.377 . S
C596 C598 1.384 . S
C597 C596 1.377 . S
C597 C603 1.390 . S
C598 H589 0.930 . S
C598 C596 1.384 . S
C598 C599 1.372 . S
C599 C598 1.372 . S
C599 C600 1.400 . S
C599 C604 1.490 . S
C600 H590 0.930 . S
C600 C599 1.400 . S
C600 C603 1.386 . S
H601 C617 0.930 1_554 S
H602 C618 0.931 . S
C603 H591 0.929 . S
C603 C597 1.390 . S
C603 C600 1.386 . S
C604 C599 1.490 . S
C604 C606 1.395 . S
C604 C607 1.403 . S
H605 C611 0.930 . S
C606 H592 0.930 . S
C606 C604 1.395 . S
C606 C609 1.403 . S
C607 C604 1.403 . S
C607 C608 1.524 . S
C607 C611 1.400 . S
C608 H593 0.960 . S
C608 H594 0.960 . S
C608 H595 0.960 . S
C608 C607 1.524 . S
C609 C606 1.403 . S
C609 C610 1.392 . S
C609 C613 1.495 . S
C610 C609 1.392 . S
C610 C611 1.385 . S
C610 C612 1.478 . S
C611 H605 0.930 . S
C611 C607 1.400 . S
C611 C610 1.385 . S
C612 C610 1.478 . S
C612 C614 1.381 . S
C612 C618 1.383 . S
C613 C609 1.495 . S
C613 H619 0.959 . S
C613 H620 0.961 . S
C613 H621 0.960 . S
C614 C612 1.381 . S
C614 C615 1.394 . S
C614 H622 0.930 . S
C615 C614 1.394 . S
C615 C616 1.383 . S
C615 H623 0.929 . S
C616 C615 1.383 . S
C616 C617 1.377 . S
C617 H601 0.930 1_556 S
C617 C616 1.377 . S
C617 C618 1.379 . S
C618 H602 0.931 . S
C618 C612 1.383 . S
C618 C617 1.379 . S
H619 C613 0.959 . S
H620 C613 0.961 . S
H621 C613 0.960 . S
H622 C614 0.930 . S
H623 C615 0.929 . S
H624 C632 0.929 . S
H625 C634 0.930 . S
H626 C636 0.930 1_556 S
H627 C639 0.929 . S
H628 C642 0.930 . S
H629 C644 0.960 . S
H630 C644 0.960 1_554 S
H631 C644 0.960 . S
C632 H624 0.929 . S
C632 C633 1.377 . S
C632 C634 1.384 . S
C633 C632 1.377 . S
C633 C639 1.390 . S
C634 H625 0.930 . S
C634 C632 1.384 . S
C634 C635 1.372 . S
C635 C634 1.372 . S
C635 C636 1.400 . S
C635 C640 1.490 . S
C636 H626 0.930 1_554 S
C636 C635 1.400 . S
C636 C639 1.386 . S
H637 C653 0.930 . S
H638 C654 0.931 . S
C639 H627 0.929 . S
C639 C633 1.390 . S
C639 C636 1.386 . S
C640 C635 1.490 . S
C640 C642 1.395 . S
C640 C643 1.403 1_554 S
H641 C647 0.930 . S
C642 H628 0.930 . S
C642 C640 1.395 . S
C642 C645 1.403 1_554 S
C643 C640 1.403 1_556 S
C643 C644 1.524 . S
C643 C647 1.400 . S
C644 H629 0.960 . S
C644 H630 0.960 1_556 S
C644 H631 0.960 . S
C644 C643 1.524 . S
C645 C642 1.403 1_556 S
C645 C646 1.392 . S
C645 C649 1.495 . S
C646 C645 1.392 . S
C646 C647 1.385 . S
C646 C648 1.478 . S
C647 H641 0.930 . S
C647 C643 1.400 . S
C647 C646 1.385 . S
C648 C646 1.478 . S
C648 C650 1.381 . S
C648 C654 1.383 . S
C649 C645 1.495 . S
C649 H655 0.959 1_556 S
C649 H656 0.961 . S
C649 H657 0.960 . S
C650 C648 1.381 . S
C650 C651 1.394 . S
C650 H658 0.930 . S
C651 C650 1.394 . S
C651 C652 1.383 . S
C651 H659 0.929 . S
C652 C651 1.383 . S
C652 C653 1.377 . S
C653 H637 0.930 . S
C653 C652 1.377 . S
C653 C654 1.379 . S
C654 H638 0.931 . S
C654 C648 1.383 . S
C654 C653 1.379 . S
H655 C649 0.959 1_554 S
H656 C649 0.961 . S
H657 C649 0.960 . S
H658 C650 0.930 . S
H659 C651 0.929 . S
H660 C668 0.929 . S
H661 C670 0.930 . S
H662 C672 0.930 . S
H663 C675 0.929 . S
H664 C678 0.930 . S
H665 C680 0.960 . S
H666 C680 0.960 . S
H667 C680 0.960 . S
C668 H660 0.929 . S
C668 C669 1.377 . S
C668 C670 1.384 . S
C669 C668 1.377 . S
C669 C675 1.390 . S
C670 H661 0.930 . S
C670 C668 1.384 . S
C670 C671 1.372 . S
C671 C670 1.372 . S
C671 C672 1.400 . S
C671 C676 1.490 . S
C672 H662 0.930 . S
C672 C671 1.400 . S
C672 C675 1.386 . S
H673 C689 0.930 . S
H674 C690 0.931 . S
C675 H663 0.929 . S
C675 C669 1.390 . S
C675 C672 1.386 . S
C676 C671 1.490 . S
C676 C678 1.395 . S
C676 C679 1.403 . S
H677 C683 0.930 . S
C678 H664 0.930 . S
C678 C676 1.395 . S
C678 C681 1.403 . S
C679 C676 1.403 . S
C679 C680 1.524 . S
C679 C683 1.400 . S
C680 H665 0.960 . S
C680 H666 0.960 . S
C680 H667 0.960 . S
C680 C679 1.524 . S
C681 C678 1.403 . S
C681 C682 1.392 . S
C681 C685 1.495 . S
C682 C681 1.392 . S
C682 C683 1.385 . S
C682 C684 1.478 . S
C683 H677 0.930 . S
C683 C679 1.400 . S
C683 C682 1.385 . S
C684 C682 1.478 . S
C684 C686 1.381 . S
C684 C690 1.383 . S
C685 C681 1.495 . S
C685 H691 0.959 . S
C685 H692 0.961 . S
C685 H693 0.960 . S
C686 C684 1.381 . S
C686 C687 1.394 . S
C686 H694 0.930 . S
C687 C686 1.394 . S
C687 C688 1.383 1_554 S
C687 H695 0.929 1_554 S
C688 C687 1.383 1_556 S
C688 C689 1.377 1_556 S
C689 H673 0.930 . S
C689 C688 1.377 1_554 S
C689 C690 1.379 . S
C690 H674 0.931 . S
C690 C684 1.383 . S
C690 C689 1.379 . S
H691 C685 0.959 . S
H692 C685 0.961 . S
H693 C685 0.960 . S
H694 C686 0.930 . S
H695 C687 0.929 1_556 S
H696 C704 0.929 . S
H697 C706 0.930 . S
H698 C708 0.930 . S
H699 C711 0.929 . S
H700 C714 0.930 . S
H701 C716 0.960 . S
H702 C716 0.960 . S
H703 C716 0.960 . S
C704 H696 0.929 . S
C704 C705 1.377 . S
C704 C706 1.384 . S
C705 C704 1.377 . S
C705 C711 1.390 . S
C706 H697 0.930 . S
C706 C704 1.384 . S
C706 C707 1.372 . S
C707 C706 1.372 . S
C707 C708 1.400 . S
C707 C712 1.490 . S
C708 H698 0.930 . S
C708 C707 1.400 . S
C708 C711 1.386 . S
H709 C725 0.930 . S
H710 C726 0.931 . S
C711 H699 0.929 . S
C711 C705 1.390 . S
C711 C708 1.386 . S
C712 C707 1.490 . S
C712 C714 1.395 . S
C712 C715 1.403 . S
H713 C719 0.930 . S
C714 H700 0.930 . S
C714 C712 1.395 . S
C714 C717 1.403 . S
C715 C712 1.403 . S
C715 C716 1.524 . S
C715 C719 1.400 . S
C716 H701 0.960 . S
C716 H702 0.960 . S
C716 H703 0.960 . S
C716 C715 1.524 . S
C717 C714 1.403 . S
C717 C718 1.392 . S
C717 C721 1.495 . S
C718 C717 1.392 . S
C718 C719 1.385 . S
C718 C720 1.478 . S
C719 H713 0.930 . S
C719 C715 1.400 . S
C719 C718 1.385 . S
C720 C718 1.478 . S
C720 C722 1.381 . S
C720 C726 1.383 . S
C721 C717 1.495 . S
C721 H727 0.959 . S
C721 H728 0.961 . S
C721 H729 0.960 . S
C722 C720 1.381 . S
C722 C723 1.394 . S
C722 H730 0.930 . S
C723 C722 1.394 . S
C723 C724 1.383 . S
C723 H731 0.929 . S
C724 C723 1.383 . S
C724 C725 1.377 . S
C725 H709 0.930 . S
C725 C724 1.377 . S
C725 C726 1.379 . S
C726 H710 0.931 . S
C726 C720 1.383 . S
C726 C725 1.379 . S
H727 C721 0.959 . S
H728 C721 0.961 . S
H729 C721 0.960 . S
H730 C722 0.930 . S
H731 C723 0.929 . S
H732 C740 0.929 . S
H733 C742 0.930 . S
H734 C744 0.930 . S
H735 C747 0.929 . S
H736 C750 0.930 . S
H737 C752 0.960 . S
H738 C752 0.960 . S
H739 C752 0.960 . S
C740 H732 0.929 . S
C740 C741 1.377 . S
C740 C742 1.384 . S
C741 C740 1.377 . S
C741 C747 1.390 . S
C742 H733 0.930 . S
C742 C740 1.384 . S
C742 C743 1.372 . S
C743 C742 1.372 . S
C743 C744 1.400 . S
C743 C748 1.490 . S
C744 H734 0.930 . S
C744 C743 1.400 . S
C744 C747 1.386 . S
H745 C761 0.930 . S
H746 C762 0.931 . S
C747 H735 0.929 . S
C747 C741 1.390 . S
C747 C744 1.386 . S
C748 C743 1.490 . S
C748 C750 1.395 . S
C748 C751 1.403 . S
H749 C755 0.930 . S
C750 H736 0.930 . S
C750 C748 1.395 . S
C750 C753 1.403 . S
C751 C748 1.403 . S
C751 C752 1.524 . S
C751 C755 1.400 . S
C752 H737 0.960 . S
C752 H738 0.960 . S
C752 H739 0.960 . S
C752 C751 1.524 . S
C753 C750 1.403 . S
C753 C754 1.392 . S
C753 C757 1.495 . S
C754 C753 1.392 . S
C754 C755 1.385 . S
C754 C756 1.478 . S
C755 H749 0.930 . S
C755 C751 1.400 . S
C755 C754 1.385 . S
C756 C754 1.478 . S
C756 C758 1.381 . S
C756 C762 1.383 . S
C757 C753 1.495 . S
C757 H763 0.959 . S
C757 H764 0.961 . S
C757 H765 0.960 . S
C758 C756 1.381 . S
C758 C759 1.394 . S
C758 H766 0.930 . S
C759 C758 1.394 . S
C759 C760 1.383 . S
C759 H767 0.929 . S
C760 C759 1.383 . S
C760 C761 1.377 . S
C761 H745 0.930 . S
C761 C760 1.377 . S
C761 C762 1.379 . S
C762 H746 0.931 . S
C762 C756 1.383 . S
C762 C761 1.379 . S
H763 C757 0.959 . S
H764 C757 0.961 . S
H765 C757 0.960 . S
H766 C758 0.930 . S
H767 C759 0.929 . S
H768 C776 0.929 . S
H769 C778 0.930 . S
H770 C780 0.930 . S
H771 C783 0.929 . S
H772 C786 0.930 . S
H773 C788 0.960 . S
H774 C788 0.960 . S
H775 C788 0.960 . S
C776 H768 0.929 . S
C776 C777 1.377 . S
C776 C778 1.384 . S
C777 C776 1.377 . S
C777 C783 1.390 . S
C778 H769 0.930 . S
C778 C776 1.384 . S
C778 C779 1.372 . S
C779 C778 1.372 . S
C779 C780 1.400 . S
C779 C784 1.490 . S
C780 H770 0.930 . S
C780 C779 1.400 . S
C780 C783 1.386 . S
H781 C797 0.930 . S
H782 C798 0.931 . S
C783 H771 0.929 . S
C783 C777 1.390 . S
C783 C780 1.386 . S
C784 C779 1.490 . S
C784 C786 1.395 . S
C784 C787 1.403 . S
H785 C791 0.930 . S
C786 H772 0.930 . S
C786 C784 1.395 . S
C786 C789 1.403 . S
C787 C784 1.403 . S
C787 C788 1.524 . S
C787 C791 1.400 . S
C788 H773 0.960 . S
C788 H774 0.960 . S
C788 H775 0.960 . S
C788 C787 1.524 . S
C789 C786 1.403 . S
C789 C790 1.392 . S
C789 C793 1.495 . S
C790 C789 1.392 . S
C790 C791 1.385 . S
C790 C792 1.478 . S
C791 H785 0.930 . S
C791 C787 1.400 . S
C791 C790 1.385 . S
C792 C790 1.478 . S
C792 C794 1.381 . S
C792 C798 1.383 . S
C793 C789 1.495 . S
C793 H799 0.959 . S
C793 H800 0.961 . S
C793 H801 0.960 . S
C794 C792 1.381 . S
C794 C795 1.394 . S
C794 H802 0.930 . S
C795 C794 1.394 . S
C795 C796 1.383 . S
C795 H803 0.929 . S
C796 C795 1.383 . S
C796 C797 1.377 . S
C797 H781 0.930 . S
C797 C796 1.377 . S
C797 C798 1.379 . S
C798 H782 0.931 . S
C798 C792 1.383 . S
C798 C797 1.379 . S
H799 C793 0.959 . S
H800 C793 0.961 . S
H801 C793 0.960 . S
H802 C794 0.930 . S
H803 C795 0.929 . S
H804 C812 0.929 . S
H805 C814 0.930 1_554 S
H806 C816 0.930 . S
H807 C819 0.929 . S
H808 C822 0.930 . S
H809 C824 0.960 . S
H810 C824 0.960 . S
H811 C824 0.960 . S
C812 H804 0.929 . S
C812 C813 1.377 . S
C812 C814 1.384 1_554 S
C813 C812 1.377 . S
C813 C819 1.390 1_554 S
C814 H805 0.930 1_556 S
C814 C812 1.384 1_556 S
C814 C815 1.372 . S
C815 C814 1.372 . S
C815 C816 1.400 . S
C815 C820 1.490 . S
C816 H806 0.930 . S
C816 C815 1.400 . S
C816 C819 1.386 . S
H817 C833 0.930 . S
H818 C834 0.931 . S
C819 H807 0.929 . S
C819 C813 1.390 1_556 S
C819 C816 1.386 . S
C820 C815 1.490 . S
C820 C822 1.395 . S
C820 C823 1.403 . S
H821 C827 0.930 . S
C822 H808 0.930 . S
C822 C820 1.395 . S
C822 C825 1.403 1_455 S
C823 C820 1.403 . S
C823 C824 1.524 . S
C823 C827 1.400 1_455 S
C824 H809 0.960 . S
C824 H810 0.960 . S
C824 H811 0.960 . S
C824 C823 1.524 . S
C825 C822 1.403 1_655 S
C825 C826 1.392 . S
C825 C829 1.495 . S
C826 C825 1.392 . S
C826 C827 1.385 . S
C826 C828 1.478 . S
C827 H821 0.930 . S
C827 C823 1.400 1_655 S
C827 C826 1.385 . S
C828 C826 1.478 . S
C828 C830 1.381 . S
C828 C834 1.383 . S
C829 C825 1.495 . S
C829 H835 0.959 . S
C829 H836 0.961 . S
C829 H837 0.960 . S
C830 C828 1.381 . S
C830 C831 1.394 . S
C830 H838 0.930 . S
C831 C830 1.394 . S
C831 C832 1.383 . S
C831 H839 0.929 . S
C832 C831 1.383 . S
C832 C833 1.377 . S
C833 H817 0.930 . S
C833 C832 1.377 . S
C833 C834 1.379 . S
C834 H818 0.931 . S
C834 C828 1.383 . S
C834 C833 1.379 . S
H835 C829 0.959 . S
H836 C829 0.961 . S
H837 C829 0.960 . S
H838 C830 0.930 . S
H839 C831 0.929 . S
H840 C848 0.929 . S
H841 C850 0.930 . S
H842 C852 0.930 . S
H843 C855 0.929 1_554 S
H844 C858 0.930 1_556 S
H845 C860 0.960 . S
H846 C860 0.960 . S
H847 C860 0.960 . S
C848 H840 0.929 . S
C848 C849 1.377 . S
C848 C850 1.384 . S
C849 C848 1.377 . S
C849 C855 1.390 . S
C850 H841 0.930 . S
C850 C848 1.384 . S
C850 C851 1.371 1_556 S
C851 C850 1.371 1_554 S
C851 C852 1.400 . S
C851 C856 1.490 . S
C852 H842 0.930 . S
C852 C851 1.400 . S
C852 C855 1.386 1_554 S
H853 C869 0.930 . S
H854 C870 0.931 . S
C855 H843 0.929 1_556 S
C855 C849 1.390 . S
C855 C852 1.386 1_556 S
C856 C851 1.490 . S
C856 C858 1.395 . S
C856 C859 1.403 . S
H857 C863 0.930 . S
C858 H844 0.930 1_554 S
C858 C856 1.395 . S
C858 C861 1.403 1_565 S
C859 C856 1.403 . S
C859 C860 1.524 . S
C859 C863 1.400 1_565 S
C860 H845 0.960 . S
C860 H846 0.960 . S
C860 H847 0.960 . S
C860 C859 1.524 . S
C861 C858 1.403 1_545 S
C861 C862 1.392 . S
C861 C865 1.495 . S
C862 C861 1.392 . S
C862 C863 1.385 . S
C862 C864 1.478 . S
C863 H857 0.930 . S
C863 C859 1.400 1_545 S
C863 C862 1.385 . S
C864 C862 1.478 . S
C864 C866 1.381 . S
C864 C870 1.383 . S
C865 C861 1.495 . S
C865 H871 0.959 1_554 S
C865 H872 0.961 . S
C865 H873 0.960 . S
C866 C864 1.381 . S
C866 C867 1.394 . S
C866 H874 0.930 . S
C867 C866 1.394 . S
C867 C868 1.383 . S
C867 H875 0.929 . S
C868 C867 1.383 . S
C868 C869 1.377 . S
C869 H853 0.930 . S
C869 C868 1.377 . S
C869 C870 1.379 . S
C870 H854 0.931 . S
C870 C864 1.383 . S
C870 C869 1.379 . S
H871 C865 0.959 1_556 S
H872 C865 0.961 . S
H873 C865 0.960 . S
H874 C866 0.930 . S
H875 C867 0.929 . S
H876 C884 0.929 . S
H877 C886 0.930 . S
H878 C888 0.930 . S
H879 C891 0.929 . S
H880 C894 0.930 . S
H881 C896 0.960 . S
H882 C896 0.960 . S
H883 C896 0.960 . S
C884 H876 0.929 . S
C884 C885 1.377 . S
C884 C886 1.384 . S
C885 C884 1.377 . S
C885 C891 1.390 . S
C886 H877 0.930 . S
C886 C884 1.384 . S
C886 C887 1.372 . S
C887 C886 1.372 . S
C887 C888 1.400 . S
C887 C892 1.490 . S
C888 H878 0.930 . S
C888 C887 1.400 . S
C888 C891 1.386 . S
H889 C905 0.930 . S
H890 C906 0.931 . S
C891 H879 0.929 . S
C891 C885 1.390 . S
C891 C888 1.386 . S
C892 C887 1.490 . S
C892 C894 1.395 . S
C892 C895 1.403 . S
H893 C899 0.930 . S
C894 H880 0.930 . S
C894 C892 1.395 . S
C894 C897 1.403 . S
C895 C892 1.403 . S
C895 C896 1.524 . S
C895 C899 1.400 . S
C896 H881 0.960 . S
C896 H882 0.960 . S
C896 H883 0.960 . S
C896 C895 1.524 . S
C897 C894 1.403 . S
C897 C898 1.392 . S
C897 C901 1.495 . S
C898 C897 1.392 . S
C898 C899 1.385 . S
C898 C900 1.478 . S
C899 H893 0.930 . S
C899 C895 1.400 . S
C899 C898 1.385 . S
C900 C898 1.478 . S
C900 C902 1.381 . S
C900 C906 1.383 . S
C901 C897 1.495 . S
C901 H907 0.959 . S
C901 H908 0.961 . S
C901 H909 0.960 . S
C902 C900 1.381 . S
C902 C903 1.394 . S
C902 H910 0.930 . S
C903 C902 1.394 . S
C903 C904 1.383 . S
C903 H911 0.929 . S
C904 C903 1.383 . S
C904 C905 1.377 . S
C905 H889 0.930 . S
C905 C904 1.377 . S
C905 C906 1.379 . S
C906 H890 0.931 . S
C906 C900 1.383 . S
C906 C905 1.379 . S
H907 C901 0.959 . S
H908 C901 0.961 . S
H909 C901 0.960 . S
H910 C902 0.930 . S
H911 C903 0.929 . S
H912 C920 0.929 . S
H913 C922 0.930 . S
H914 C924 0.930 . S
H915 C927 0.929 . S
H916 C930 0.939 . S
H917 C932 0.960 . S
H918 C932 0.960 . S
H919 C932 0.960 . S
C920 H912 0.929 . S
C920 C921 1.377 . S
C920 C922 1.384 . S
C921 C920 1.377 . S
C921 C927 1.390 . S
C922 H913 0.930 . S
C922 C920 1.384 . S
C922 C923 1.372 . S
C923 C922 1.372 . S
C923 C924 1.400 . S
C923 C928 1.490 . S
C924 H914 0.930 . S
C924 C923 1.400 . S
C924 C927 1.386 . S
H925 C941 0.930 . S
H926 C942 0.931 . S
C927 H915 0.929 . S
C927 C921 1.390 . S
C927 C924 1.386 . S
C928 C923 1.490 . S
C928 C930 1.411 . S
C928 C931 1.403 . S
H929 C935 0.930 . S
C930 H916 0.939 . S
C930 C928 1.411 . S
C930 C933 1.379 1_455 S
C931 C928 1.403 . S
C931 C932 1.524 . S
C931 C935 1.400 1_455 S
C932 H917 0.960 . S
C932 H918 0.960 . S
C932 H919 0.960 . S
C932 C931 1.524 . S
C933 C930 1.379 1_655 S
C933 C934 1.392 . S
C933 C937 1.495 . S
C934 C933 1.392 . S
C934 C935 1.385 . S
C934 C936 1.478 . S
C935 H929 0.930 . S
C935 C931 1.400 1_655 S
C935 C934 1.385 . S
C936 C934 1.478 . S
C936 C938 1.381 . S
C936 C942 1.383 . S
C937 C933 1.495 . S
C937 H943 0.959 . S
C937 H944 0.961 . S
C937 H945 0.960 . S
C938 C936 1.381 . S
C938 C939 1.394 . S
C938 H946 0.930 . S
C939 C938 1.394 . S
C939 C940 1.383 . S
C939 H947 0.929 . S
C940 C939 1.383 . S
C940 C941 1.377 . S
C941 H925 0.930 . S
C941 C940 1.377 . S
C941 C942 1.379 . S
C942 H926 0.931 . S
C942 C936 1.383 . S
C942 C941 1.379 . S
H943 C937 0.959 . S
H944 C937 0.961 . S
H945 C937 0.960 . S
H946 C938 0.930 . S
H947 C939 0.929 . S
H948 C956 0.929 . S
H949 C958 0.930 . S
H950 C960 0.930 . S
H951 C963 0.929 . S
H952 C966 0.930 . S
H953 C968 0.960 1_565 S
H954 C968 0.960 . S
H955 C968 0.960 . S
C956 H948 0.929 . S
C956 C957 1.377 . S
C956 C958 1.384 . S
C957 C956 1.377 . S
C957 C963 1.390 . S
C958 H949 0.930 . S
C958 C956 1.384 . S
C958 C959 1.372 . S
C959 C958 1.372 . S
C959 C960 1.400 . S
C959 C964 1.490 . S
C960 H950 0.930 . S
C960 C959 1.400 . S
C960 C963 1.386 . S
H961 C977 0.930 . S
H962 C978 0.931 . S
C963 H951 0.929 . S
C963 C957 1.390 . S
C963 C960 1.386 . S
C964 C959 1.490 . S
C964 C966 1.395 . S
C964 C967 1.403 . S
H965 C971 0.930 . S
C966 H952 0.930 . S
C966 C964 1.395 . S
C966 C969 1.386 1_545 S
C967 C964 1.403 . S
C967 C968 1.524 . S
C967 C971 1.400 1_545 S
C968 H953 0.960 1_545 S
C968 H954 0.960 . S
C968 H955 0.960 . S
C968 C967 1.524 . S
C969 C966 1.386 1_565 S
C969 C970 1.416 . S
C969 C973 1.488 . S
C970 C969 1.416 . S
C970 C971 1.385 . S
C970 C972 1.478 . S
C971 H965 0.930 . S
C971 C967 1.400 1_565 S
C971 C970 1.385 . S
C972 C970 1.478 . S
C972 C974 1.381 . S
C972 C978 1.383 . S
C973 C969 1.488 . S
C973 H979 0.959 1_565 S
C973 H980 0.961 . S
C973 H981 0.960 . S
C974 C972 1.381 . S
C974 C975 1.394 . S
C974 H982 0.930 . S
C975 C974 1.394 . S
C975 C976 1.383 . S
C975 H983 0.929 . S
C976 C975 1.383 . S
C976 C977 1.377 . S
C977 H961 0.930 . S
C977 C976 1.377 . S
C977 C978 1.379 . S
C978 H962 0.931 . S
C978 C972 1.383 . S
C978 C977 1.379 . S
H979 C973 0.959 1_545 S
H980 C973 0.961 . S
H981 C973 0.960 . S
H982 C974 0.930 . S
H983 C975 0.929 . S
H984 C992 0.929 . S
H985 C994 0.930 . S
H986 C996 0.930 . S
H987 C999 0.929 . S
H988 C1002 0.930 . S
H989 C1004 0.960 . S
H990 C1004 0.960 . S
H991 C1004 0.960 . S
C992 H984 0.929 . S
C992 C993 1.377 . S
C992 C994 1.384 . S
C993 C992 1.377 . S
C993 C999 1.390 . S
C994 H985 0.930 . S
C994 C992 1.384 . S
C994 C995 1.372 . S
C995 C994 1.372 . S
C995 C996 1.400 . S
C995 C1000 1.490 . S
C996 H986 0.930 . S
C996 C995 1.400 . S
C996 C999 1.386 . S
H997 C1013 0.930 . S
H998 C1014 0.931 . S
C999 H987 0.929 . S
C999 C993 1.390 . S
C999 C996 1.386 . S
C1000 C995 1.490 . S
C1000 C1002 1.395 . S
C1000 C1003 1.403 . S
H1001 C1007 0.930 . S
C1002 H988 0.930 . S
C1002 C1000 1.395 . S
C1002 C1005 1.403 . S
C1003 C1000 1.403 . S
C1003 C1004 1.524 . S
C1003 C1007 1.400 . S
C1004 H989 0.960 . S
C1004 H990 0.960 . S
C1004 H991 0.960 . S
C1004 C1003 1.524 . S
C1005 C1002 1.403 . S
C1005 C1006 1.392 . S
C1005 C1009 1.495 . S
C1006 C1005 1.392 . S
C1006 C1007 1.385 . S
C1006 C1008 1.478 . S
C1007 H1001 0.930 . S
C1007 C1003 1.400 . S
C1007 C1006 1.385 . S
C1008 C1006 1.478 . S
C1008 C1010 1.381 . S
C1008 C1014 1.383 . S
C1009 C1005 1.495 . S
C1009 H1015 0.959 . S
C1009 H1016 0.961 . S
C1009 H1017 0.960 . S
C1010 C1008 1.381 . S
C1010 C1011 1.394 . S
C1010 H1018 0.930 . S
C1011 C1010 1.394 . S
C1011 C1012 1.383 . S
C1011 H1019 0.929 . S
C1012 C1011 1.383 . S
C1012 C1013 1.377 . S
C1013 H997 0.930 . S
C1013 C1012 1.377 . S
C1013 C1014 1.379 . S
C1014 H998 0.931 . S
C1014 C1008 1.383 . S
C1014 C1013 1.379 . S
H1015 C1009 0.959 . S
H1016 C1009 0.961 . S
H1017 C1009 0.960 . S
H1018 C1010 0.930 . S
H1019 C1011 0.929 . S
C165 C3 1.487 . S
C184 C135 1.492 . S
C201 C148 1.484 . S
C220 C16 1.479 . S
C237 C29 1.485 . S
C256 C83 1.480 . S
C273 C44 1.487 . S
C292 C96 1.493 . S
C309 C57 1.483 . S
C328 C107 1.470 . S
C345 C122 1.487 . S
C364 C68 1.490 1_554 S
C381 C4 1.805 . S
C400 C108 1.804 . S
C417 C17 1.806 . S
C436 C127 1.808 . S
C453 C140 1.805 . S
C472 C30 1.808 . S
C489 C49 1.805 . S
C508 C153 1.807 . S
C525 C62 1.807 . S
C544 C88 1.798 . S
C561 C69 1.806 . S
C580 C101 1.799 . S
C597 C133 1.461 . S
C616 C5 1.463 . S
C633 C18 1.461 . S
C652 C146 1.464 . S
C669 C31 1.461 . S
C688 C81 1.457 . S
C705 C42 1.461 . S
C724 C94 1.459 . S
C741 C109 1.462 . S
C760 C55 1.460 . S
C777 C70 1.461 . S
C796 C120 1.463 . S
C813 C10 1.364 . S
C832 C147 1.355 . S
C849 C82 1.364 . S
C868 C23 1.350 . S
C885 C95 1.360 . S
C904 C36 1.368 . S
C921 C114 1.363 . S
C940 C43 1.349 . S
C957 C121 1.360 . S
C976 C56 1.369 . S
C993 C134 1.361 . S
C1012 C75 1.352 . S
