# Generated by pormake.
# Topology utp, (3)-cn, num edge types: 1
# Building blocks:
#     Node 0, Type 0, BuildingBlock: WUSLED_clean_sbu_0, # of connection points: 3
#     Node 1, Type 0, BuildingBlock: WUSLED_clean_sbu_0, # of connection points: 3
#     Node 2, Type 0, BuildingBlock: WUSLED_clean_sbu_0, # of connection points: 3
#     Node 3, Type 0, BuildingBlock: WUSLED_clean_sbu_0, # of connection points: 3
#     Node 4, Type 0, BuildingBlock: WUSLED_clean_sbu_0, # of connection points: 3
#     Node 5, Type 0, BuildingBlock: WUSLED_clean_sbu_0, # of connection points: 3
#     Node 6, Type 0, BuildingBlock: WUSLED_clean_sbu_0, # of connection points: 3
#     Node 7, Type 0, BuildingBlock: WUSLED_clean_sbu_0, # of connection points: 3
#     Edge 8, Type (0, 0), BuildingBlock: KIFKEQ_clean_linker_1, # of connection points: 2
#     Edge 9, Type (0, 0), BuildingBlock: KIFKEQ_clean_linker_1, # of connection points: 2
#     Edge 10, Type (0, 0), BuildingBlock: KIFKEQ_clean_linker_1, # of connection points: 2
#     Edge 11, Type (0, 0), BuildingBlock: KIFKEQ_clean_linker_1, # of connection points: 2
#     Edge 12, Type (0, 0), BuildingBlock: KIFKEQ_clean_linker_1, # of connection points: 2
#     Edge 13, Type (0, 0), BuildingBlock: KIFKEQ_clean_linker_1, # of connection points: 2
#     Edge 14, Type (0, 0), BuildingBlock: KIFKEQ_clean_linker_1, # of connection points: 2
#     Edge 15, Type (0, 0), BuildingBlock: KIFKEQ_clean_linker_1, # of connection points: 2
#     Edge 16, Type (0, 0), BuildingBlock: KIFKEQ_clean_linker_1, # of connection points: 2
#     Edge 17, Type (0, 0), BuildingBlock: KIFKEQ_clean_linker_1, # of connection points: 2
#     Edge 18, Type (0, 0), BuildingBlock: KIFKEQ_clean_linker_1, # of connection points: 2
#     Edge 19, Type (0, 0), BuildingBlock: KIFKEQ_clean_linker_1, # of connection points: 2
# Relax obj value: 0.000
# Max RMSD: 0.003
# Mean RMSD: 0.003
data_MOF--net-utp--node1-WUSLED_clean_sbu_0--edge1-KIFKEQ_clean_linker_1
_symmetry_space_group_name_H-M    P1
_symmetry_Int_Tables_number       1
_symmetry_cell_setting            triclinic
loop_
_symmetry_equiv_pos_as_xyz
'x, y, z'
_cell_length_a     78.389353
_cell_length_b     68.860073
_cell_length_c     19.2346
_cell_angle_alpha  90.043626
_cell_angle_beta   90.129309
_cell_angle_gamma 89.963822
loop_
_atom_site_label
_atom_site_type_symbol
_atom_site_fract_x
_atom_site_fract_y
_atom_site_fract_z
_atom_type_partial_charge
C0 C 0.09777 0.09602 0.09376 0.0
C1 C 0.101 0.07927 0.05415 0.0
C2 C 0.07108 0.06968 0.06278 0.0
C3 C 0.08776 0.06627 0.03858 0.0
C4 C 0.06801 0.08637 0.10318 0.0
C5 C 0.08121 0.0994 0.11834 0.0
U6 U 0.1447 0.10992 0.12425 0.0
O7 O 0.15906 0.13553 0.08823 0.0
O8 O 0.15592 0.13022 0.19996 0.0
C9 C 0.16151 0.1421 0.15163 0.0
C10 C 0.11134 0.11029 0.10915 0.0
C11 C 0.15828 0.16303 0.16256 0.0
C12 C 0.14058 0.18991 0.20243 0.0
C13 C 0.14286 0.16997 0.19017 0.0
C14 C 0.16898 0.19617 0.15867 0.0
C15 C 0.15365 0.20328 0.18695 0.0
C16 C 0.17125 0.1763 0.14668 0.0
C17 C 0.17892 0.06948 0.11486 0.0
C18 C 0.20964 0.07401 0.10595 0.0
C19 C 0.19812 0.04197 0.12775 0.0
C20 C 0.1816 0.04964 0.12668 0.0
C21 C 0.21239 0.054 0.11679 0.0
C22 C 0.19305 0.08168 0.10502 0.0
C23 C 0.16125 0.07686 0.11149 0.0
O24 O 0.11893 0.10845 0.1698 0.0
O25 O 0.12203 0.11403 0.05829 0.0
O26 O 0.15757 0.08823 0.05868 0.0
O27 O 0.15467 0.08289 0.17045 0.0
H28 H 0.11372 0.07629 0.03501 0.0
H29 H 0.09063 0.05345 0.0081 0.0
H30 H 0.0553 0.08958 0.12203 0.0
H31 H 0.07844 0.11224 0.1489 0.0
H32 H 0.12855 0.19487 0.22356 0.0
H33 H 0.13264 0.15999 0.20263 0.0
H34 H 0.17942 0.20592 0.14707 0.0
H35 H 0.18328 0.17125 0.12566 0.0
H36 H 0.22027 0.08369 0.09675 0.0
H37 H 0.19971 0.0266 0.13759 0.0
H38 H 0.17087 0.04 0.13471 0.0
H39 H 0.19125 0.09707 0.09588 0.0
C40 C 0.4462 0.95253 0.08674 0.0
C41 C 0.44263 0.97199 0.07061 0.0
C42 C 0.47301 0.97848 0.05382 0.0
C43 C 0.4559 0.98486 0.05432 0.0
C44 C 0.47644 0.95896 0.07057 0.0
C45 C 0.46318 0.94615 0.08677 0.0
U46 U 0.39922 0.93944 0.12031 0.0
O47 O 0.38455 0.91394 0.08493 0.0
O48 O 0.38826 0.91918 0.19648 0.0
C49 C 0.38235 0.90736 0.14841 0.0
C50 C 0.4325 0.93861 0.10298 0.0
C51 C 0.38551 0.88642 0.15901 0.0
C52 C 0.40337 0.85939 0.19644 0.0
C53 C 0.40115 0.87933 0.18426 0.0
C54 C 0.37448 0.85341 0.15729 0.0
C55 C 0.39003 0.84616 0.18325 0.0
C56 C 0.37227 0.87328 0.14537 0.0
C57 C 0.36482 0.97961 0.11374 0.0
C58 C 0.3344 0.97633 0.09031 0.0
C59 C 0.34519 1.00566 0.14416 0.0
C60 C 0.36175 0.99807 0.14196 0.0
C61 C 0.33131 0.99497 0.11783 0.0
C62 C 0.35098 0.9687 0.08849 0.0
C63 C 0.38258 0.97248 0.1091 0.0
O64 O 0.4252 0.94067 0.164 0.0
O65 O 0.42152 0.93522 0.05267 0.0
O66 O 0.38621 0.96126 0.05577 0.0
O67 O 0.38954 0.9665 0.16751 0.0
H68 H 0.42958 0.97719 0.07022 0.0
H69 H 0.45274 0.99971 0.04104 0.0
H70 H 0.48941 0.95358 0.07193 0.0
H71 H 0.4662 0.9312 0.09933 0.0
H72 H 0.41558 0.85431 0.21572 0.0
H73 H 0.41158 0.88922 0.19497 0.0
H74 H 0.36383 0.84377 0.14752 0.0
H75 H 0.36007 0.87845 0.1262 0.0
H76 H 0.32399 0.96761 0.07043 0.0
H77 H 0.34333 1.02012 0.16501 0.0
H78 H 0.37223 1.00676 0.16152 0.0
H79 H 0.35299 0.95436 0.06681 0.0
C80 C 0.0975 0.45495 0.40675 0.0
C81 C 0.1004 0.4702 0.45392 0.0
C82 C 0.07085 0.481 0.44148 0.0
C83 C 0.08718 0.48305 0.47132 0.0
C84 C 0.06811 0.46582 0.39369 0.0
C85 C 0.08128 0.45295 0.37668 0.0
U86 U 0.14427 0.44064 0.37188 0.0
O87 O 0.15828 0.41417 0.40123 0.0
O88 O 0.15473 0.42132 0.29096 0.0
C89 C 0.1601 0.40843 0.3364 0.0
C90 C 0.11098 0.44079 0.3888 0.0
C91 C 0.15621 0.38781 0.32052 0.0
C92 C 0.14507 0.356 0.35279 0.0
C93 C 0.14737 0.3758 0.36733 0.0
C94 C 0.16005 0.35996 0.24389 0.0
C95 C 0.1515 0.34779 0.29107 0.0
C96 C 0.16241 0.37969 0.25857 0.0
C97 C 0.17913 0.48029 0.38479 0.0
C98 C 0.20983 0.47498 0.38195 0.0
C99 C 0.19859 0.50773 0.37913 0.0
C100 C 0.18199 0.50036 0.38185 0.0
C101 C 0.21277 0.49517 0.37928 0.0
C102 C 0.19316 0.4676 0.38453 0.0
C103 C 0.16143 0.47314 0.38892 0.0
O104 O 0.11834 0.44325 0.32813 0.0
O105 O 0.12182 0.43625 0.43851 0.0
O106 O 0.15803 0.46105 0.43991 0.0
O107 O 0.15432 0.46808 0.32971 0.0
H108 H 0.11284 0.47214 0.4775 0.0
H109 H 0.0898 0.4947 0.50764 0.0
H110 H 0.05567 0.46365 0.37033 0.0
H111 H 0.07875 0.44128 0.34027 0.0
H112 H 0.13826 0.34712 0.38994 0.0
H113 H 0.14241 0.38162 0.41555 0.0
H114 H 0.16539 0.35414 0.19635 0.0
H115 H 0.1694 0.38857 0.2219 0.0
H116 H 0.22042 0.46487 0.3814 0.0
H117 H 0.20032 0.52333 0.3782 0.0
H118 H 0.17133 0.51039 0.38221 0.0
H119 H 0.19121 0.45204 0.3865 0.0
C120 C 0.44665 0.59579 0.40697 0.0
C121 C 0.44306 0.57824 0.441 0.0
C122 C 0.47338 0.56989 0.44217 0.0
C123 C 0.4563 0.56542 0.45851 0.0
C124 C 0.4768 0.58745 0.40741 0.0
C125 C 0.46358 0.60024 0.39013 0.0
U126 U 0.39965 0.60946 0.37467 0.0
O127 O 0.3857 0.63599 0.40361 0.0
O128 O 0.38861 0.62832 0.2935 0.0
C129 C 0.38348 0.64141 0.33865 0.0
C130 C 0.43304 0.60972 0.38884 0.0
C131 C 0.38729 0.66195 0.32151 0.0
C132 C 0.3991 0.6937 0.35074 0.0
C133 C 0.39684 0.67396 0.36619 0.0
C134 C 0.38269 0.68966 0.24502 0.0
C135 C 0.39195 0.70185 0.29015 0.0
C136 C 0.38036 0.67 0.26065 0.0
C137 C 0.36496 0.56983 0.39435 0.0
C138 C 0.33584 0.57072 0.35004 0.0
C139 C 0.34429 0.54563 0.43127 0.0
C140 C 0.36075 0.55344 0.43386 0.0
C141 C 0.33162 0.55404 0.38885 0.0
C142 C 0.35235 0.57854 0.35277 0.0
C143 C 0.38269 0.57706 0.39604 0.0
O144 O 0.42531 0.60671 0.32911 0.0
O145 O 0.42247 0.61439 0.43914 0.0
O146 O 0.38642 0.58942 0.44587 0.0
O147 O 0.38944 0.58175 0.33585 0.0
H148 H 0.43005 0.57452 0.45438 0.0
H149 H 0.45317 0.55215 0.48583 0.0
H150 H 0.4897 0.59126 0.3928 0.0
H151 H 0.4666 0.61366 0.36351 0.0
H152 H 0.40646 0.70259 0.38626 0.0
H153 H 0.40238 0.66819 0.41349 0.0
H154 H 0.3768 0.69544 0.19844 0.0
H155 H 0.37284 0.6611 0.22563 0.0
H156 H 0.32649 0.5775 0.31638 0.0
H157 H 0.34147 0.53304 0.46289 0.0
H158 H 0.37027 0.54654 0.46649 0.0
H159 H 0.35533 0.59123 0.32183 0.0
C160 C 0.94684 0.95273 0.90597 0.0
C161 C 0.94522 0.97269 0.89242 0.0
C162 C 0.97341 0.97868 0.94234 0.0
C163 C 0.95841 0.98553 0.91017 0.0
C164 C 0.97485 0.95869 0.95645 0.0
C165 C 0.96171 0.94587 0.93833 0.0
U166 U 0.90009 0.93958 0.86788 0.0
O167 O 0.88923 0.92079 0.78604 0.0
O168 O 0.88552 0.91346 0.89604 0.0
C169 C 0.88347 0.90802 0.83099 0.0
C170 C 0.93334 0.93879 0.88622 0.0
C171 C 0.8866 0.88729 0.8145 0.0
C172 C 0.89765 0.8552 0.84406 0.0
C173 C 0.89632 0.87516 0.8581 0.0
C174 C 0.88003 0.85933 0.74168 0.0
C175 C 0.88927 0.84696 0.78625 0.0
C176 C 0.87869 0.8792 0.75577 0.0
C177 C 0.86599 0.97996 0.88426 0.0
C178 C 0.83567 0.97603 0.86056 0.0
C179 C 0.84636 1.00674 0.90391 0.0
C180 C 0.86291 0.99915 0.90501 0.0
C181 C 0.83249 0.99528 0.88199 0.0
C182 C 0.85229 0.96842 0.86184 0.0
C183 C 0.88359 0.97243 0.88715 0.0
O184 O 0.92241 0.9343 0.93533 0.0
O185 O 0.92606 0.94162 0.82541 0.0
O186 O 0.89043 0.96742 0.82746 0.0
O187 O 0.88688 0.96005 0.93737 0.0
H188 H 0.93379 0.97834 0.86793 0.0
H189 H 0.95679 1.00085 0.89934 0.0
H190 H 0.98627 0.95288 0.9804 0.0
H191 H 0.96322 0.93053 0.94918 0.0
H192 H 0.90477 0.84614 0.87981 0.0
H193 H 0.90258 0.88098 0.90384 0.0
H194 H 0.87368 0.85362 0.69597 0.0
H195 H 0.87115 0.88824 0.72132 0.0
H196 H 0.82529 0.96675 0.84398 0.0
H197 H 0.84447 1.02169 0.91969 0.0
H198 H 0.87334 1.0083 0.92223 0.0
H199 H 0.85443 0.95354 0.84575 0.0
C200 C 0.59837 0.09518 0.90993 0.0
C201 C 0.59921 0.07561 0.88941 0.0
C202 C 0.57139 0.06935 0.94187 0.0
C203 C 0.58582 0.06285 0.90499 0.0
C204 C 0.57074 0.08893 0.96285 0.0
C205 C 0.58407 0.10168 0.94693 0.0
U206 U 0.64537 0.10831 0.87637 0.0
O207 O 0.65654 0.1283 0.79976 0.0
O208 O 0.66 0.13387 0.91124 0.0
C209 C 0.66235 0.14025 0.84761 0.0
C210 C 0.61209 0.10911 0.89299 0.0
C211 C 0.65924 0.16118 0.83627 0.0
C212 C 0.64145 0.18817 0.79793 0.0
C213 C 0.64367 0.16822 0.81017 0.0
C214 C 0.67021 0.19421 0.83861 0.0
C215 C 0.65472 0.20143 0.81194 0.0
C216 C 0.67242 0.17434 0.85057 0.0
C217 C 0.67952 0.0679 0.88878 0.0
C218 C 0.70894 0.06977 0.84894 0.0
C219 C 0.70016 0.04342 0.92405 0.0
C220 C 0.68359 0.05093 0.92543 0.0
C221 C 0.71308 0.05271 0.8858 0.0
C222 C 0.69232 0.07734 0.85061 0.0
C223 C 0.66183 0.07525 0.89116 0.0
O224 O 0.62294 0.11288 0.94338 0.0
O225 O 0.61949 0.10697 0.83215 0.0
O226 O 0.65518 0.08105 0.83188 0.0
O227 O 0.6582 0.08683 0.9434 0.0
H228 H 0.61019 0.07021 0.86124 0.0
H229 H 0.58685 0.04783 0.88879 0.0
H230 H 0.55977 0.0945 0.99059 0.0
H231 H 0.58315 0.11671 0.9632 0.0
H232 H 0.6293 0.19322 0.77806 0.0
H233 H 0.63328 0.15832 0.79898 0.0
H234 H 0.6808 0.20388 0.84903 0.0
H235 H 0.68455 0.1692 0.87045 0.0
H236 H 0.71861 0.07741 0.81958 0.0
H237 H 0.70279 0.03014 0.95225 0.0
H238 H 0.67389 0.04341 0.95505 0.0
H239 H 0.68947 0.09053 0.82219 0.0
C240 C 0.9456 0.59668 0.59879 0.0
C241 C 0.94231 0.57691 0.58711 0.0
C242 C 0.97266 0.57086 0.5676 0.0
C243 C 0.95571 0.56412 0.57165 0.0
C244 C 0.9758 0.59073 0.5795 0.0
C245 C 0.96241 0.60347 0.59493 0.0
U246 U 0.89834 0.60885 0.62776 0.0
O247 O 0.88641 0.62851 0.70371 0.0
O248 O 0.88344 0.63413 0.59205 0.0
C249 C 0.88058 0.64034 0.65558 0.0
C250 C 0.93171 0.61046 0.6144 0.0
C251 C 0.8831 0.66132 0.66787 0.0
C252 C 0.90045 0.68893 0.70388 0.0
C253 C 0.89882 0.66898 0.68996 0.0
C254 C 0.87081 0.69372 0.67264 0.0
C255 C 0.88639 0.70153 0.69609 0.0
C256 C 0.86921 0.67387 0.65881 0.0
C257 C 0.86511 0.56764 0.61338 0.0
C258 C 0.83476 0.57108 0.63696 0.0
C259 C 0.84574 0.54074 0.59163 0.0
C260 C 0.86221 0.54854 0.5912 0.0
C261 C 0.83177 0.5519 0.61432 0.0
C262 C 0.85129 0.5789 0.63633 0.0
C263 C 0.88264 0.57537 0.61184 0.0
O264 O 0.92104 0.61393 0.56309 0.0
O265 O 0.92402 0.60803 0.67443 0.0
O266 O 0.8889 0.58137 0.67156 0.0
O267 O 0.88621 0.58707 0.55994 0.0
H268 H 0.92939 0.57139 0.58996 0.0
H269 H 0.9528 0.54891 0.56362 0.0
H270 H 0.9886 0.59653 0.57579 0.0
H271 H 0.9652 0.61869 0.60351 0.0
H272 H 0.9126 0.69439 0.72218 0.0
H273 H 0.90973 0.65953 0.6972 0.0
H274 H 0.8598 0.70297 0.66465 0.0
H275 H 0.857 0.66827 0.64146 0.0
H276 H 0.82429 0.58015 0.65411 0.0
H277 H 0.84399 0.52585 0.57487 0.0
H278 H 0.87272 0.5396 0.57353 0.0
H279 H 0.85328 0.59372 0.65348 0.0
C280 C 0.59766 0.45212 0.59391 0.0
C281 C 0.60035 0.47225 0.59713 0.0
C282 C 0.57085 0.47819 0.56133 0.0
C283 C 0.58707 0.48517 0.58107 0.0
C284 C 0.56837 0.45796 0.5575 0.0
C285 C 0.58162 0.4451 0.57369 0.0
U286 U 0.64462 0.43851 0.62709 0.0
O287 O 0.65565 0.41947 0.70772 0.0
O288 O 0.65866 0.41212 0.59737 0.0
C289 C 0.66085 0.40652 0.66216 0.0
C290 C 0.61126 0.43817 0.61209 0.0
C291 C 0.65708 0.38592 0.67854 0.0
C292 C 0.64556 0.35414 0.6477 0.0
C293 C 0.64778 0.37393 0.63291 0.0
C294 C 0.66153 0.35808 0.7546 0.0
C295 C 0.65252 0.34593 0.70854 0.0
C296 C 0.66381 0.3778 0.73963 0.0
C297 C 0.67925 0.4782 0.60789 0.0
C298 C 0.70878 0.47625 0.64687 0.0
C299 C 0.69981 0.50264 0.5721 0.0
C300 C 0.68323 0.49516 0.57113 0.0
C301 C 0.71282 0.49332 0.61002 0.0
C302 C 0.69214 0.46872 0.64565 0.0
C303 C 0.66152 0.47101 0.60651 0.0
O304 O 0.62187 0.43365 0.56182 0.0
O305 O 0.61894 0.44105 0.67204 0.0
O306 O 0.65486 0.46615 0.66671 0.0
O307 O 0.65775 0.45875 0.55641 0.0
H308 H 0.61266 0.47797 0.61259 0.0
H309 H 0.58943 0.50061 0.5853 0.0
H310 H 0.55621 0.45201 0.54134 0.0
H311 H 0.57932 0.42961 0.57054 0.0
H312 H 0.63839 0.34527 0.61146 0.0
H313 H 0.64239 0.37975 0.58539 0.0
H314 H 0.66726 0.35225 0.80141 0.0
H315 H 0.67114 0.38667 0.77538 0.0
H316 H 0.71851 0.46858 0.67599 0.0
H317 H 0.70236 0.51594 0.54397 0.0
H318 H 0.67344 0.50273 0.54189 0.0
H319 H 0.68934 0.45555 0.6742 0.0
H320 H 0.1639 0.23385 0.10593 0.0
H321 H 0.13873 0.2209 0.29992 0.0
H322 H 0.16228 0.26839 0.13188 0.0
H323 H 0.1365 0.2556 0.32473 0.0
H324 H 0.15535 0.31739 0.38208 0.0
H325 H 0.15449 0.28269 0.35672 0.0
H326 H 0.14298 0.29531 0.14171 0.0
H327 H 0.14395 0.32998 0.16706 0.0
C328 C 0.15795 0.23836 0.15407 0.0
C329 C 0.15155 0.2245 0.20098 0.0
C330 C 0.15683 0.25824 0.16861 0.0
C331 C 0.14926 0.26488 0.2305 0.0
C332 C 0.14259 0.25104 0.27693 0.0
C333 C 0.14369 0.23112 0.26231 0.0
C334 C 0.15239 0.31277 0.32959 0.0
C335 C 0.14982 0.32654 0.27658 0.0
C336 C 0.15189 0.29283 0.315 0.0
C337 C 0.14877 0.28611 0.247 0.0
C338 C 0.14576 0.2999 0.19439 0.0
C339 C 0.1463 0.31982 0.20895 0.0
H340 H 0.40602 0.82855 0.29397 0.0
H341 H 0.37859 0.81557 0.1046 0.0
H342 H 0.40818 0.79388 0.31908 0.0
H343 H 0.38014 0.78107 0.13099 0.0
H344 H 0.39813 0.71927 0.16447 0.0
H345 H 0.39916 0.75388 0.13815 0.0
H346 H 0.39035 0.76711 0.35469 0.0
H347 H 0.38945 0.73248 0.381 0.0
C348 C 0.40055 0.81832 0.25742 0.0
C349 C 0.39208 0.82493 0.19733 0.0
C350 C 0.40161 0.79842 0.27226 0.0
C351 C 0.39428 0.78458 0.22727 0.0
C352 C 0.38609 0.79121 0.16657 0.0
C353 C 0.38502 0.81107 0.15181 0.0
C354 C 0.39639 0.72956 0.20649 0.0
C355 C 0.39362 0.72303 0.27483 0.0
C356 C 0.39696 0.74944 0.19138 0.0
C357 C 0.39473 0.76338 0.24415 0.0
C358 C 0.39235 0.75685 0.31279 0.0
C359 C 0.39182 0.73695 0.32793 0.0
H360 H 0.91607 0.82136 0.80185 0.0
H361 H 0.86292 0.82384 0.74278 0.0
H362 H 0.91598 0.78621 0.78321 0.0
H363 H 0.86302 0.78905 0.72174 0.0
H364 H 0.86295 0.72435 0.76277 0.0
H365 H 0.86423 0.75905 0.78569 0.0
H366 H 0.91413 0.76159 0.69142 0.0
H367 H 0.91284 0.72668 0.66833 0.0
C368 C 0.90438 0.81445 0.78489 0.0
C369 C 0.88951 0.82552 0.77375 0.0
C370 C 0.90437 0.79431 0.77349 0.0
C371 C 0.88948 0.78472 0.75112 0.0
C372 C 0.87467 0.79584 0.73983 0.0
C373 C 0.87468 0.8159 0.75104 0.0
C374 C 0.87417 0.73228 0.7464 0.0
C375 C 0.88771 0.72268 0.71294 0.0
C376 C 0.87491 0.75224 0.7596 0.0
C377 C 0.88921 0.76324 0.7398 0.0
C378 C 0.90297 0.75358 0.70791 0.0
C379 C 0.90223 0.73354 0.69465 0.0
H380 H 0.64593 0.3282 0.83333 0.0
H381 H 0.65555 0.3155 0.61707 0.0
H382 H 0.64498 0.29354 0.85866 0.0
H383 H 0.65472 0.28082 0.64241 0.0
H384 H 0.63907 0.21915 0.70065 0.0
H385 H 0.63685 0.25386 0.67622 0.0
H386 H 0.66415 0.26647 0.86628 0.0
H387 H 0.66576 0.23192 0.89192 0.0
C388 C 0.64789 0.31802 0.79117 0.0
C389 C 0.6509 0.3247 0.72319 0.0
C390 C 0.64737 0.2981 0.80571 0.0
C391 C 0.64988 0.28428 0.75273 0.0
C392 C 0.6525 0.29097 0.68444 0.0
C393 C 0.65299 0.31091 0.66986 0.0
C394 C 0.64437 0.22934 0.73775 0.0
C395 C 0.65265 0.22267 0.79818 0.0
C396 C 0.64327 0.24927 0.72332 0.0
C397 C 0.65037 0.26306 0.76908 0.0
C398 C 0.65837 0.25636 0.83011 0.0
C399 C 0.65948 0.23648 0.84444 0.0
H400 H 0.31565 1.01575 0.22146 0.0
H401 H 0.30725 0.99349 0.01429 0.0
H402 H 0.28718 0.03006 0.2208 0.0
H403 H 0.27887 1.00797 0.01317 0.0
H404 H 0.22278 1.01927 0.06107 0.0
H405 H 0.25114 1.00493 0.0629 0.0
H406 H 0.27053 0.05558 0.16953 0.0
H407 H 0.24193 0.06955 0.17064 0.0
C408 C 0.30777 1.01402 0.17553 0.0
C409 C 0.31376 1.00342 0.11797 0.0
C410 C 0.29144 1.02229 0.17505 0.0
C411 C 0.28066 1.02024 0.11689 0.0
C412 C 0.28666 1.00961 0.05936 0.0
C413 C 0.30297 1.00128 0.05997 0.0
C414 C 0.23303 0.02729 0.08565 0.0
C415 C 0.22997 0.04556 0.11608 0.0
C416 C 0.24939 1.01915 0.08588 0.0
C417 C 0.26321 0.02905 0.11633 0.0
C418 C 0.26019 0.04739 0.14634 0.0
C419 C 0.2438 0.05554 0.1462 0.0
H420 H 0.32305 0.51541 0.38566 0.0
H421 H 0.30064 0.57272 0.38293 0.0
H422 H 0.2947 0.501 0.38164 0.0
H423 H 0.27224 0.55829 0.37868 0.0
H424 H 0.22474 0.52591 0.30288 0.0
H425 H 0.25328 0.53993 0.30361 0.0
H426 H 0.2695 0.49682 0.45278 0.0
H427 H 0.24093 0.48279 0.45209 0.0
C428 C 0.31208 0.52497 0.38478 0.0
C429 C 0.3142 0.54527 0.38494 0.0
C430 C 0.29579 0.51668 0.38243 0.0
C431 C 0.28113 0.52845 0.38 0.0
C432 C 0.28323 0.54875 0.37953 0.0
C433 C 0.29954 0.55705 0.38196 0.0
C434 C 0.23436 0.51947 0.33619 0.0
C435 C 0.23046 0.50323 0.37762 0.0
C436 C 0.25075 0.52754 0.33664 0.0
C437 C 0.26373 0.51959 0.37845 0.0
C438 C 0.2599 0.50319 0.4192 0.0
C439 C 0.2435 0.49511 0.41877 0.0
H440 H 0.7349 0.04945 0.77476 0.0
H441 H 0.73126 0.03744 0.99455 0.0
H442 H 0.76365 0.03567 0.77339 0.0
H443 H 0.7597 1.02315 0.99275 0.0
H444 H 0.81772 1.01844 0.98082 0.0
H445 H 0.78927 0.03265 0.98031 0.0
H446 H 0.77848 1.00444 0.78449 0.0
H447 H 0.80723 0.99068 0.78389 0.0
C448 C 0.74024 0.04394 0.82283 0.0
C449 C 0.73073 0.04456 0.88476 0.0
C450 C 0.75665 0.03582 0.82188 0.0
C451 C 0.76401 0.02825 0.88293 0.0
C452 C 0.75453 0.029 0.94488 0.0
C453 C 0.73812 0.03702 0.94576 0.0
C454 C 0.80935 1.01537 0.9373 0.0
C455 C 0.81484 1.00345 0.88226 0.0
C456 C 0.79294 1.02337 0.93738 0.0
C457 C 0.78153 1.0197 0.88239 0.0
C458 C 0.78698 1.00774 0.82735 0.0
C459 C 0.8034 0.99967 0.82739 0.0
H460 H 0.73073 0.50891 0.50138 0.0
H461 H 0.73489 0.49637 0.72073 0.0
H462 H 0.75906 0.5234 0.50324 0.0
H463 H 0.76354 0.51034 0.72211 0.0
H464 H 0.80667 0.55576 0.71302 0.0
H465 H 0.77807 0.54165 0.71217 0.0
H466 H 0.78875 0.51434 0.51479 0.0
H467 H 0.81704 0.52892 0.51453 0.0
C468 C 0.73769 0.50924 0.55008 0.0
C469 C 0.73046 0.5015 0.61096 0.0
C470 C 0.75404 0.51738 0.55099 0.0
C471 C 0.76364 0.51806 0.61282 0.0
C472 C 0.75646 0.51025 0.67371 0.0
C473 C 0.7401 0.50203 0.67275 0.0
C474 C 0.80285 0.5469 0.66912 0.0
C475 C 0.8142 0.54349 0.61388 0.0
C476 C 0.78651 0.53862 0.66901 0.0
C477 C 0.78107 0.52681 0.61347 0.0
C478 C 0.79241 0.5235 0.55812 0.0
C479 C 0.80873 0.53171 0.55834 0.0
H480 H 0.98626 1.0087 0.86471 0.0
H481 H 0.99275 0.97935 0.06132 0.0
H482 H 1.00969 0.03061 0.89412 0.0
H483 H 1.01644 1.00094 0.08997 0.0
H484 H 0.04563 0.05658 0.14839 0.0
H485 H 0.02197 0.03501 0.11939 0.0
H486 H 0.04084 0.02999 0.9094 0.0
H487 H 0.06429 0.05195 0.93796 0.0
C488 C 0.99263 1.00696 0.91433 0.0
C489 C 0.98759 0.99224 0.96062 0.0
C490 C 1.0062 1.01939 0.93087 0.0
C491 C 1.015 1.01752 0.99436 0.0
C492 C 1.00987 1.00291 0.04088 0.0
C493 C 0.99638 0.9904 0.02415 0.0
C494 C 0.04469 0.05097 0.0959 0.0
C495 C 0.05688 0.05605 0.04551 0.0
C496 C 0.0312 0.03845 0.07944 0.0
C497 C 0.02947 0.03075 0.01202 0.0
C498 C 0.04167 0.0358 0.96164 0.0
C499 C 0.05523 0.04823 0.97823 0.0
H500 H 0.47676 1.01684 0.09075 0.0
H501 H 0.50159 0.97089 0.97618 0.0
H502 H 0.50012 0.03876 0.06221 0.0
H503 H 0.52529 0.99251 0.95038 0.0
H504 H 0.55688 0.04184 0.85716 0.0
H505 H 0.53303 1.02029 0.88282 0.0
H506 H 0.52954 0.04472 0.08925 0.0
H507 H 0.55326 0.06639 0.0632 0.0
C508 C 0.48716 1.0114 0.05932 0.0
C509 C 0.48724 0.99203 0.03594 0.0
C510 C 0.5007 1.02393 0.04366 0.0
C511 C 0.5147 1.01745 0.00413 0.0
C512 C 0.51469 0.99812 0.98033 0.0
C513 C 0.50116 0.98561 0.99593 0.0
C514 C 0.55112 0.0425 0.90822 0.0
C515 C 0.55701 0.05588 0.95805 0.0
C516 C 0.53742 0.03012 0.92301 0.0
C517 C 0.52928 0.03072 0.98817 0.0
C518 C 0.53525 0.04405 0.03809 0.0
C519 C 0.5489 0.05648 0.0232 0.0
H520 H 0.97293 0.54086 0.47329 0.0
H521 H 1.00499 0.57021 0.62299 0.0
H522 H 0.99641 0.5191 0.44463 0.0
H523 H 0.02869 0.54904 0.59208 0.0
H524 H 0.0625 0.49503 0.5706 0.0
H525 H 0.03883 0.51631 0.60186 0.0
H526 H 0.02341 0.51884 0.38627 0.0
H527 H 0.04696 0.49742 0.35529 0.0
C528 C 0.98496 0.54266 0.50031 0.0
C529 C 0.987 0.55736 0.5505 0.0
C530 C 0.99853 0.53031 0.48318 0.0
C531 C 1.01454 0.53231 0.51572 0.0
C532 C 1.01654 0.54691 0.56632 0.0
C533 C 1.00297 0.55924 0.58348 0.0
C534 C 0.05414 0.50027 0.52978 0.0
C535 C 0.05664 0.49446 0.46042 0.0
C536 C 0.04055 0.5125 0.5477 0.0
C537 C 0.02911 0.51931 0.49669 0.0
C538 C 0.03172 0.51362 0.42723 0.0
C539 C 0.04527 0.50134 0.40938 0.0
H540 H 0.47371 0.52997 0.43736 0.0
H541 H 0.50538 0.57915 0.49027 0.0
H542 H 0.49709 0.50806 0.46688 0.0
H543 H 0.52876 0.55726 0.51913 0.0
H544 H 0.57225 0.51295 0.49125 0.0
H545 H 0.54881 0.53498 0.4637 0.0
H546 H 0.51354 0.4964 0.56641 0.0
H547 H 0.53695 0.47447 0.5945 0.0
C548 C 0.48558 0.53613 0.45588 0.0
C549 C 0.4876 0.55639 0.46118 0.0
C550 C 0.49902 0.52355 0.47275 0.0
C551 C 0.51486 0.53087 0.49525 0.0
C552 C 0.51686 0.55111 0.50087 0.0
C553 C 0.50341 0.56368 0.48422 0.0
C554 C 0.55954 0.50924 0.50867 0.0
C555 C 0.55656 0.49185 0.54503 0.0
C556 C 0.54607 0.52189 0.49277 0.0
C557 C 0.52924 0.51747 0.51265 0.0
C558 C 0.52627 0.50013 0.54923 0.0
C559 C 0.53973 0.48752 0.5653 0.0
loop_
_geom_bond_atom_site_label_1
_geom_bond_atom_site_label_2
_geom_bond_distance
_geom_bond_site_symmetry_2
_ccdc_geom_bond_type
C0 C1 1.264 . S
C0 C5 1.479 . S
C0 C10 1.465 . S
C1 C0 1.264 . S
C1 C3 1.339 . S
C1 H28 0.931 . S
C2 C3 1.395 . S
C2 C4 1.320 . S
C3 C1 1.339 . S
C3 C2 1.395 . S
C3 H29 0.929 . S
C4 C2 1.320 . S
C4 C5 1.405 . S
C4 H30 0.930 . S
C5 C0 1.479 . S
C5 C4 1.405 . S
C5 H31 0.931 . S
U6 O7 2.454 . S
U6 O8 2.458 . S
U6 C9 2.984 . S
U6 C10 2.847 . S
U6 C23 2.882 . S
U6 O24 2.441 . S
U6 O25 2.420 . S
U6 O26 2.455 . S
U6 O27 2.449 . S
O7 U6 2.454 . S
O7 C9 1.353 . S
O8 U6 2.458 . S
O8 C9 1.286 . S
C9 U6 2.984 . S
C9 O7 1.353 . S
C9 O8 1.286 . S
C9 C11 1.363 . S
C10 C0 1.465 . S
C10 U6 2.847 . S
C10 O24 1.249 . S
C10 O25 1.202 . S
C11 C9 1.363 . S
C11 C13 1.408 . S
C11 C16 1.342 . S
C12 C13 1.310 . S
C12 C15 1.461 . S
C12 H32 0.932 . S
C13 C11 1.408 . S
C13 C12 1.310 . S
C13 H33 0.930 . S
C14 C15 1.474 . S
C14 C16 1.285 . S
C14 H34 0.929 . S
C15 C12 1.461 . S
C15 C14 1.474 . S
C16 C11 1.342 . S
C16 C14 1.285 . S
C16 H35 0.930 . S
C17 C20 1.424 . S
C17 C22 1.245 . S
C17 C23 1.428 . S
C18 C21 1.260 . S
C18 C22 1.477 . S
C18 H36 0.932 . S
C19 C20 1.384 . S
C19 C21 1.479 . S
C19 H37 0.929 . S
C20 C17 1.424 . S
C20 C19 1.384 . S
C20 H38 0.928 . S
C21 C18 1.260 . S
C21 C19 1.479 . S
C22 C17 1.245 . S
C22 C18 1.477 . S
C22 H39 0.932 . S
C23 U6 2.882 . S
C23 C17 1.428 . S
C23 O26 1.301 . S
C23 O27 1.282 . S
O24 U6 2.441 . S
O24 C10 1.249 . S
O25 U6 2.420 . S
O25 C10 1.202 . S
O26 U6 2.455 . S
O26 C23 1.301 . S
O27 U6 2.449 . S
O27 C23 1.282 . S
H28 C1 0.931 . S
H29 C3 0.929 . S
H30 C4 0.930 . S
H31 C5 0.931 . S
H32 C12 0.932 . S
H33 C13 0.930 . S
H34 C14 0.929 . S
H35 C16 0.930 . S
H36 C18 0.932 . S
H37 C19 0.929 . S
H38 C20 0.928 . S
H39 C22 0.932 . S
C40 C41 1.264 . S
C40 C45 1.479 . S
C40 C50 1.465 . S
C41 C40 1.264 . S
C41 C43 1.339 . S
C41 H68 0.931 . S
C42 C43 1.395 . S
C42 C44 1.320 . S
C43 C41 1.339 . S
C43 C42 1.395 . S
C43 H69 0.929 . S
C44 C42 1.320 . S
C44 C45 1.405 . S
C44 H70 0.930 . S
C45 C40 1.479 . S
C45 C44 1.405 . S
C45 H71 0.931 . S
U46 O47 2.454 . S
U46 O48 2.458 . S
U46 C49 2.984 . S
U46 C50 2.847 . S
U46 C63 2.882 . S
U46 O64 2.441 . S
U46 O65 2.420 . S
U46 O66 2.455 . S
U46 O67 2.449 . S
O47 U46 2.454 . S
O47 C49 1.353 . S
O48 U46 2.458 . S
O48 C49 1.286 . S
C49 U46 2.984 . S
C49 O47 1.353 . S
C49 O48 1.286 . S
C49 C51 1.363 . S
C50 C40 1.465 . S
C50 U46 2.847 . S
C50 O64 1.249 . S
C50 O65 1.202 . S
C51 C49 1.363 . S
C51 C53 1.408 . S
C51 C56 1.342 . S
C52 C53 1.310 . S
C52 C55 1.461 . S
C52 H72 0.932 . S
C53 C51 1.408 . S
C53 C52 1.310 . S
C53 H73 0.930 . S
C54 C55 1.474 . S
C54 C56 1.285 . S
C54 H74 0.929 . S
C55 C52 1.461 . S
C55 C54 1.474 . S
C56 C51 1.342 . S
C56 C54 1.285 . S
C56 H75 0.930 . S
C57 C60 1.424 . S
C57 C62 1.245 . S
C57 C63 1.428 . S
C58 C61 1.260 . S
C58 C62 1.477 . S
C58 H76 0.932 . S
C59 C60 1.384 . S
C59 C61 1.479 . S
C59 H77 0.929 . S
C60 C57 1.424 . S
C60 C59 1.384 . S
C60 H78 0.928 . S
C61 C58 1.260 . S
C61 C59 1.479 . S
C62 C57 1.245 . S
C62 C58 1.477 . S
C62 H79 0.932 . S
C63 U46 2.882 . S
C63 C57 1.428 . S
C63 O66 1.301 . S
C63 O67 1.282 . S
O64 U46 2.441 . S
O64 C50 1.249 . S
O65 U46 2.420 . S
O65 C50 1.202 . S
O66 U46 2.455 . S
O66 C63 1.301 . S
O67 U46 2.449 . S
O67 C63 1.282 . S
H68 C41 0.931 . S
H69 C43 0.929 . S
H70 C44 0.930 . S
H71 C45 0.931 . S
H72 C52 0.932 . S
H73 C53 0.930 . S
H74 C54 0.929 . S
H75 C56 0.930 . S
H76 C58 0.932 . S
H77 C59 0.929 . S
H78 C60 0.928 . S
H79 C62 0.932 . S
C80 C81 1.264 . S
C80 C85 1.479 . S
C80 C90 1.465 . S
C81 C80 1.264 . S
C81 C83 1.339 . S
C81 H108 0.931 . S
C82 C83 1.395 . S
C82 C84 1.320 . S
C83 C81 1.339 . S
C83 C82 1.395 . S
C83 H109 0.929 . S
C84 C82 1.320 . S
C84 C85 1.405 . S
C84 H110 0.930 . S
C85 C80 1.479 . S
C85 C84 1.405 . S
C85 H111 0.931 . S
U86 O87 2.454 . S
U86 O88 2.458 . S
U86 C89 2.984 . S
U86 C90 2.847 . S
U86 C103 2.882 . S
U86 O104 2.441 . S
U86 O105 2.420 . S
U86 O106 2.455 . S
U86 O107 2.449 . S
O87 U86 2.454 . S
O87 C89 1.353 . S
O88 U86 2.458 . S
O88 C89 1.286 . S
C89 U86 2.984 . S
C89 O87 1.353 . S
C89 O88 1.286 . S
C89 C91 1.363 . S
C90 C80 1.465 . S
C90 U86 2.847 . S
C90 O104 1.249 . S
C90 O105 1.202 . S
C91 C89 1.363 . S
C91 C93 1.408 . S
C91 C96 1.342 . S
C92 C93 1.310 . S
C92 C95 1.461 . S
C92 H112 0.932 . S
C93 C91 1.408 . S
C93 C92 1.310 . S
C93 H113 0.930 . S
C94 C95 1.474 . S
C94 C96 1.285 . S
C94 H114 0.929 . S
C95 C92 1.461 . S
C95 C94 1.474 . S
C96 C91 1.342 . S
C96 C94 1.285 . S
C96 H115 0.930 . S
C97 C100 1.424 . S
C97 C102 1.245 . S
C97 C103 1.428 . S
C98 C101 1.260 . S
C98 C102 1.477 . S
C98 H116 0.932 . S
C99 C100 1.384 . S
C99 C101 1.479 . S
C99 H117 0.929 . S
C100 C97 1.424 . S
C100 C99 1.384 . S
C100 H118 0.928 . S
C101 C98 1.260 . S
C101 C99 1.479 . S
C102 C97 1.245 . S
C102 C98 1.477 . S
C102 H119 0.932 . S
C103 U86 2.882 . S
C103 C97 1.428 . S
C103 O106 1.301 . S
C103 O107 1.282 . S
O104 U86 2.441 . S
O104 C90 1.249 . S
O105 U86 2.420 . S
O105 C90 1.202 . S
O106 U86 2.455 . S
O106 C103 1.301 . S
O107 U86 2.449 . S
O107 C103 1.282 . S
H108 C81 0.931 . S
H109 C83 0.929 . S
H110 C84 0.930 . S
H111 C85 0.931 . S
H112 C92 0.932 . S
H113 C93 0.930 . S
H114 C94 0.929 . S
H115 C96 0.930 . S
H116 C98 0.932 . S
H117 C99 0.929 . S
H118 C100 0.928 . S
H119 C102 0.932 . S
C120 C121 1.264 . S
C120 C125 1.479 . S
C120 C130 1.465 . S
C121 C120 1.264 . S
C121 C123 1.339 . S
C121 H148 0.931 . S
C122 C123 1.395 . S
C122 C124 1.320 . S
C123 C121 1.339 . S
C123 C122 1.395 . S
C123 H149 0.929 . S
C124 C122 1.320 . S
C124 C125 1.405 . S
C124 H150 0.930 . S
C125 C120 1.479 . S
C125 C124 1.405 . S
C125 H151 0.931 . S
U126 O127 2.454 . S
U126 O128 2.458 . S
U126 C129 2.984 . S
U126 C130 2.847 . S
U126 C143 2.882 . S
U126 O144 2.441 . S
U126 O145 2.420 . S
U126 O146 2.455 . S
U126 O147 2.449 . S
O127 U126 2.454 . S
O127 C129 1.353 . S
O128 U126 2.458 . S
O128 C129 1.286 . S
C129 U126 2.984 . S
C129 O127 1.353 . S
C129 O128 1.286 . S
C129 C131 1.363 . S
C130 C120 1.465 . S
C130 U126 2.847 . S
C130 O144 1.249 . S
C130 O145 1.202 . S
C131 C129 1.363 . S
C131 C133 1.408 . S
C131 C136 1.342 . S
C132 C133 1.310 . S
C132 C135 1.461 . S
C132 H152 0.932 . S
C133 C131 1.408 . S
C133 C132 1.310 . S
C133 H153 0.930 . S
C134 C135 1.474 . S
C134 C136 1.285 . S
C134 H154 0.929 . S
C135 C132 1.461 . S
C135 C134 1.474 . S
C136 C131 1.342 . S
C136 C134 1.285 . S
C136 H155 0.930 . S
C137 C140 1.424 . S
C137 C142 1.245 . S
C137 C143 1.428 . S
C138 C141 1.260 . S
C138 C142 1.477 . S
C138 H156 0.932 . S
C139 C140 1.384 . S
C139 C141 1.479 . S
C139 H157 0.929 . S
C140 C137 1.424 . S
C140 C139 1.384 . S
C140 H158 0.928 . S
C141 C138 1.260 . S
C141 C139 1.479 . S
C142 C137 1.245 . S
C142 C138 1.477 . S
C142 H159 0.932 . S
C143 U126 2.882 . S
C143 C137 1.428 . S
C143 O146 1.301 . S
C143 O147 1.282 . S
O144 U126 2.441 . S
O144 C130 1.249 . S
O145 U126 2.420 . S
O145 C130 1.202 . S
O146 U126 2.455 . S
O146 C143 1.301 . S
O147 U126 2.449 . S
O147 C143 1.282 . S
H148 C121 0.931 . S
H149 C123 0.929 . S
H150 C124 0.930 . S
H151 C125 0.931 . S
H152 C132 0.932 . S
H153 C133 0.930 . S
H154 C134 0.929 . S
H155 C136 0.930 . S
H156 C138 0.932 . S
H157 C139 0.929 . S
H158 C140 0.928 . S
H159 C142 0.932 . S
C160 C161 1.264 . S
C160 C165 1.479 . S
C160 C170 1.465 . S
C161 C160 1.264 . S
C161 C163 1.339 . S
C161 H188 0.931 . S
C162 C163 1.395 . S
C162 C164 1.320 . S
C163 C161 1.339 . S
C163 C162 1.395 . S
C163 H189 0.929 . S
C164 C162 1.320 . S
C164 C165 1.405 . S
C164 H190 0.930 . S
C165 C160 1.479 . S
C165 C164 1.405 . S
C165 H191 0.931 . S
U166 O167 2.454 . S
U166 O168 2.458 . S
U166 C169 2.984 . S
U166 C170 2.847 . S
U166 C183 2.882 . S
U166 O184 2.441 . S
U166 O185 2.420 . S
U166 O186 2.455 . S
U166 O187 2.449 . S
O167 U166 2.454 . S
O167 C169 1.353 . S
O168 U166 2.458 . S
O168 C169 1.286 . S
C169 U166 2.984 . S
C169 O167 1.353 . S
C169 O168 1.286 . S
C169 C171 1.363 . S
C170 C160 1.465 . S
C170 U166 2.847 . S
C170 O184 1.249 . S
C170 O185 1.202 . S
C171 C169 1.363 . S
C171 C173 1.408 . S
C171 C176 1.342 . S
C172 C173 1.310 . S
C172 C175 1.461 . S
C172 H192 0.932 . S
C173 C171 1.408 . S
C173 C172 1.310 . S
C173 H193 0.930 . S
C174 C175 1.474 . S
C174 C176 1.285 . S
C174 H194 0.929 . S
C175 C172 1.461 . S
C175 C174 1.474 . S
C176 C171 1.342 . S
C176 C174 1.285 . S
C176 H195 0.930 . S
C177 C180 1.424 . S
C177 C182 1.245 . S
C177 C183 1.428 . S
C178 C181 1.260 . S
C178 C182 1.477 . S
C178 H196 0.932 . S
C179 C180 1.384 . S
C179 C181 1.479 . S
C179 H197 0.929 . S
C180 C177 1.424 . S
C180 C179 1.384 . S
C180 H198 0.928 . S
C181 C178 1.260 . S
C181 C179 1.479 . S
C182 C177 1.245 . S
C182 C178 1.477 . S
C182 H199 0.932 . S
C183 U166 2.882 . S
C183 C177 1.428 . S
C183 O186 1.301 . S
C183 O187 1.282 . S
O184 U166 2.441 . S
O184 C170 1.249 . S
O185 U166 2.420 . S
O185 C170 1.202 . S
O186 U166 2.455 . S
O186 C183 1.301 . S
O187 U166 2.449 . S
O187 C183 1.282 . S
H188 C161 0.931 . S
H189 C163 0.929 . S
H190 C164 0.930 . S
H191 C165 0.931 . S
H192 C172 0.932 . S
H193 C173 0.930 . S
H194 C174 0.929 . S
H195 C176 0.930 . S
H196 C178 0.932 . S
H197 C179 0.929 . S
H198 C180 0.928 . S
H199 C182 0.932 . S
C200 C201 1.264 . S
C200 C205 1.479 . S
C200 C210 1.465 . S
C201 C200 1.264 . S
C201 C203 1.339 . S
C201 H228 0.931 . S
C202 C203 1.395 . S
C202 C204 1.320 . S
C203 C201 1.339 . S
C203 C202 1.395 . S
C203 H229 0.929 . S
C204 C202 1.320 . S
C204 C205 1.405 . S
C204 H230 0.930 . S
C205 C200 1.479 . S
C205 C204 1.405 . S
C205 H231 0.931 . S
U206 O207 2.454 . S
U206 O208 2.458 . S
U206 C209 2.984 . S
U206 C210 2.847 . S
U206 C223 2.882 . S
U206 O224 2.441 . S
U206 O225 2.420 . S
U206 O226 2.455 . S
U206 O227 2.449 . S
O207 U206 2.454 . S
O207 C209 1.353 . S
O208 U206 2.458 . S
O208 C209 1.286 . S
C209 U206 2.984 . S
C209 O207 1.353 . S
C209 O208 1.286 . S
C209 C211 1.363 . S
C210 C200 1.465 . S
C210 U206 2.847 . S
C210 O224 1.249 . S
C210 O225 1.202 . S
C211 C209 1.363 . S
C211 C213 1.408 . S
C211 C216 1.342 . S
C212 C213 1.310 . S
C212 C215 1.461 . S
C212 H232 0.932 . S
C213 C211 1.408 . S
C213 C212 1.310 . S
C213 H233 0.930 . S
C214 C215 1.474 . S
C214 C216 1.285 . S
C214 H234 0.929 . S
C215 C212 1.461 . S
C215 C214 1.474 . S
C216 C211 1.342 . S
C216 C214 1.285 . S
C216 H235 0.930 . S
C217 C220 1.424 . S
C217 C222 1.245 . S
C217 C223 1.428 . S
C218 C221 1.260 . S
C218 C222 1.477 . S
C218 H236 0.932 . S
C219 C220 1.384 . S
C219 C221 1.479 . S
C219 H237 0.929 . S
C220 C217 1.424 . S
C220 C219 1.384 . S
C220 H238 0.928 . S
C221 C218 1.260 . S
C221 C219 1.479 . S
C222 C217 1.245 . S
C222 C218 1.477 . S
C222 H239 0.932 . S
C223 U206 2.882 . S
C223 C217 1.428 . S
C223 O226 1.301 . S
C223 O227 1.282 . S
O224 U206 2.441 . S
O224 C210 1.249 . S
O225 U206 2.420 . S
O225 C210 1.202 . S
O226 U206 2.455 . S
O226 C223 1.301 . S
O227 U206 2.449 . S
O227 C223 1.282 . S
H228 C201 0.931 . S
H229 C203 0.929 . S
H230 C204 0.930 . S
H231 C205 0.931 . S
H232 C212 0.932 . S
H233 C213 0.930 . S
H234 C214 0.929 . S
H235 C216 0.930 . S
H236 C218 0.932 . S
H237 C219 0.929 . S
H238 C220 0.928 . S
H239 C222 0.932 . S
C240 C241 1.264 . S
C240 C245 1.479 . S
C240 C250 1.465 . S
C241 C240 1.264 . S
C241 C243 1.339 . S
C241 H268 0.931 . S
C242 C243 1.395 . S
C242 C244 1.320 . S
C243 C241 1.339 . S
C243 C242 1.395 . S
C243 H269 0.929 . S
C244 C242 1.320 . S
C244 C245 1.405 . S
C244 H270 0.930 . S
C245 C240 1.479 . S
C245 C244 1.405 . S
C245 H271 0.931 . S
U246 O247 2.454 . S
U246 O248 2.458 . S
U246 C249 2.984 . S
U246 C250 2.847 . S
U246 C263 2.882 . S
U246 O264 2.441 . S
U246 O265 2.420 . S
U246 O266 2.455 . S
U246 O267 2.449 . S
O247 U246 2.454 . S
O247 C249 1.353 . S
O248 U246 2.458 . S
O248 C249 1.286 . S
C249 U246 2.984 . S
C249 O247 1.353 . S
C249 O248 1.286 . S
C249 C251 1.363 . S
C250 C240 1.465 . S
C250 U246 2.847 . S
C250 O264 1.249 . S
C250 O265 1.202 . S
C251 C249 1.363 . S
C251 C253 1.408 . S
C251 C256 1.342 . S
C252 C253 1.310 . S
C252 C255 1.461 . S
C252 H272 0.932 . S
C253 C251 1.408 . S
C253 C252 1.310 . S
C253 H273 0.930 . S
C254 C255 1.474 . S
C254 C256 1.285 . S
C254 H274 0.929 . S
C255 C252 1.461 . S
C255 C254 1.474 . S
C256 C251 1.342 . S
C256 C254 1.285 . S
C256 H275 0.930 . S
C257 C260 1.424 . S
C257 C262 1.245 . S
C257 C263 1.428 . S
C258 C261 1.260 . S
C258 C262 1.477 . S
C258 H276 0.932 . S
C259 C260 1.384 . S
C259 C261 1.479 . S
C259 H277 0.929 . S
C260 C257 1.424 . S
C260 C259 1.384 . S
C260 H278 0.928 . S
C261 C258 1.260 . S
C261 C259 1.479 . S
C262 C257 1.245 . S
C262 C258 1.477 . S
C262 H279 0.932 . S
C263 U246 2.882 . S
C263 C257 1.428 . S
C263 O266 1.301 . S
C263 O267 1.282 . S
O264 U246 2.441 . S
O264 C250 1.249 . S
O265 U246 2.420 . S
O265 C250 1.202 . S
O266 U246 2.455 . S
O266 C263 1.301 . S
O267 U246 2.449 . S
O267 C263 1.282 . S
H268 C241 0.931 . S
H269 C243 0.929 . S
H270 C244 0.930 . S
H271 C245 0.931 . S
H272 C252 0.932 . S
H273 C253 0.930 . S
H274 C254 0.929 . S
H275 C256 0.930 . S
H276 C258 0.932 . S
H277 C259 0.929 . S
H278 C260 0.928 . S
H279 C262 0.932 . S
C280 C281 1.264 . S
C280 C285 1.479 . S
C280 C290 1.465 . S
C281 C280 1.264 . S
C281 C283 1.339 . S
C281 H308 0.931 . S
C282 C283 1.395 . S
C282 C284 1.320 . S
C283 C281 1.339 . S
C283 C282 1.395 . S
C283 H309 0.929 . S
C284 C282 1.320 . S
C284 C285 1.405 . S
C284 H310 0.930 . S
C285 C280 1.479 . S
C285 C284 1.405 . S
C285 H311 0.931 . S
U286 O287 2.454 . S
U286 O288 2.458 . S
U286 C289 2.984 . S
U286 C290 2.847 . S
U286 C303 2.882 . S
U286 O304 2.441 . S
U286 O305 2.420 . S
U286 O306 2.455 . S
U286 O307 2.449 . S
O287 U286 2.454 . S
O287 C289 1.353 . S
O288 U286 2.458 . S
O288 C289 1.286 . S
C289 U286 2.984 . S
C289 O287 1.353 . S
C289 O288 1.286 . S
C289 C291 1.363 . S
C290 C280 1.465 . S
C290 U286 2.847 . S
C290 O304 1.249 . S
C290 O305 1.202 . S
C291 C289 1.363 . S
C291 C293 1.408 . S
C291 C296 1.342 . S
C292 C293 1.310 . S
C292 C295 1.461 . S
C292 H312 0.932 . S
C293 C291 1.408 . S
C293 C292 1.310 . S
C293 H313 0.930 . S
C294 C295 1.474 . S
C294 C296 1.285 . S
C294 H314 0.929 . S
C295 C292 1.461 . S
C295 C294 1.474 . S
C296 C291 1.342 . S
C296 C294 1.285 . S
C296 H315 0.930 . S
C297 C300 1.424 . S
C297 C302 1.245 . S
C297 C303 1.428 . S
C298 C301 1.260 . S
C298 C302 1.477 . S
C298 H316 0.932 . S
C299 C300 1.384 . S
C299 C301 1.479 . S
C299 H317 0.929 . S
C300 C297 1.424 . S
C300 C299 1.384 . S
C300 H318 0.928 . S
C301 C298 1.260 . S
C301 C299 1.479 . S
C302 C297 1.245 . S
C302 C298 1.477 . S
C302 H319 0.932 . S
C303 U286 2.882 . S
C303 C297 1.428 . S
C303 O306 1.301 . S
C303 O307 1.282 . S
O304 U286 2.441 . S
O304 C290 1.249 . S
O305 U286 2.420 . S
O305 C290 1.202 . S
O306 U286 2.455 . S
O306 C303 1.301 . S
O307 U286 2.449 . S
O307 C303 1.282 . S
H308 C281 0.931 . S
H309 C283 0.929 . S
H310 C284 0.930 . S
H311 C285 0.931 . S
H312 C292 0.932 . S
H313 C293 0.930 . S
H314 C294 0.929 . S
H315 C296 0.930 . S
H316 C298 0.932 . S
H317 C299 0.929 . S
H318 C300 0.928 . S
H319 C302 0.932 . S
H320 C328 0.950 . S
H321 C333 0.950 . S
H322 C330 0.950 . S
H323 C332 0.950 . S
H324 C334 0.950 . S
H325 C336 0.950 . S
H326 C338 0.950 . S
H327 C339 0.950 . S
C328 H320 0.950 . S
C328 C329 1.386 . S
C328 C330 1.391 . S
C329 C328 1.386 . S
C329 C333 1.393 . S
C330 H322 0.950 . S
C330 C328 1.391 . S
C330 C331 1.400 . S
C331 C330 1.400 . S
C331 C332 1.398 . S
C331 C337 1.491 . S
C332 H323 0.950 . S
C332 C331 1.398 . S
C332 C333 1.391 . S
C333 H321 0.950 . S
C333 C329 1.393 . S
C333 C332 1.391 . S
C334 H324 0.950 . S
C334 C335 1.386 . S
C334 C336 1.391 . S
C335 C334 1.386 . S
C335 C339 1.393 . S
C336 H325 0.950 . S
C336 C334 1.391 . S
C336 C337 1.400 . S
C337 C331 1.491 . S
C337 C336 1.400 . S
C337 C338 1.398 . S
C338 H326 0.950 . S
C338 C337 1.398 . S
C338 C339 1.391 . S
C339 H327 0.950 . S
C339 C335 1.393 . S
C339 C338 1.391 . S
H340 C348 0.950 . S
H341 C353 0.950 . S
H342 C350 0.950 . S
H343 C352 0.950 . S
H344 C354 0.950 . S
H345 C356 0.950 . S
H346 C358 0.950 . S
H347 C359 0.950 . S
C348 H340 0.950 . S
C348 C349 1.386 . S
C348 C350 1.391 . S
C349 C348 1.386 . S
C349 C353 1.393 . S
C350 H342 0.950 . S
C350 C348 1.391 . S
C350 C351 1.400 . S
C351 C350 1.400 . S
C351 C352 1.398 . S
C351 C357 1.491 . S
C352 H343 0.950 . S
C352 C351 1.398 . S
C352 C353 1.391 . S
C353 H341 0.950 . S
C353 C349 1.393 . S
C353 C352 1.391 . S
C354 H344 0.950 . S
C354 C355 1.386 . S
C354 C356 1.391 . S
C355 C354 1.386 . S
C355 C359 1.393 . S
C356 H345 0.950 . S
C356 C354 1.391 . S
C356 C357 1.400 . S
C357 C351 1.491 . S
C357 C356 1.400 . S
C357 C358 1.398 . S
C358 H346 0.950 . S
C358 C357 1.398 . S
C358 C359 1.391 . S
C359 H347 0.950 . S
C359 C355 1.393 . S
C359 C358 1.391 . S
H360 C368 0.950 . S
H361 C373 0.950 . S
H362 C370 0.950 . S
H363 C372 0.950 . S
H364 C374 0.950 . S
H365 C376 0.950 . S
H366 C378 0.950 . S
H367 C379 0.950 . S
C368 H360 0.950 . S
C368 C369 1.386 . S
C368 C370 1.391 . S
C369 C368 1.386 . S
C369 C373 1.393 . S
C370 H362 0.950 . S
C370 C368 1.391 . S
C370 C371 1.400 . S
C371 C370 1.400 . S
C371 C372 1.398 . S
C371 C377 1.491 . S
C372 H363 0.950 . S
C372 C371 1.398 . S
C372 C373 1.391 . S
C373 H361 0.950 . S
C373 C369 1.393 . S
C373 C372 1.391 . S
C374 H364 0.950 . S
C374 C375 1.386 . S
C374 C376 1.391 . S
C375 C374 1.386 . S
C375 C379 1.393 . S
C376 H365 0.950 . S
C376 C374 1.391 . S
C376 C377 1.400 . S
C377 C371 1.491 . S
C377 C376 1.400 . S
C377 C378 1.398 . S
C378 H366 0.950 . S
C378 C377 1.398 . S
C378 C379 1.391 . S
C379 H367 0.950 . S
C379 C375 1.393 . S
C379 C378 1.391 . S
H380 C388 0.950 . S
H381 C393 0.950 . S
H382 C390 0.950 . S
H383 C392 0.950 . S
H384 C394 0.950 . S
H385 C396 0.950 . S
H386 C398 0.950 . S
H387 C399 0.950 . S
C388 H380 0.950 . S
C388 C389 1.386 . S
C388 C390 1.391 . S
C389 C388 1.386 . S
C389 C393 1.393 . S
C390 H382 0.950 . S
C390 C388 1.391 . S
C390 C391 1.400 . S
C391 C390 1.400 . S
C391 C392 1.398 . S
C391 C397 1.491 . S
C392 H383 0.950 . S
C392 C391 1.398 . S
C392 C393 1.391 . S
C393 H381 0.950 . S
C393 C389 1.393 . S
C393 C392 1.391 . S
C394 H384 0.950 . S
C394 C395 1.386 . S
C394 C396 1.391 . S
C395 C394 1.386 . S
C395 C399 1.393 . S
C396 H385 0.950 . S
C396 C394 1.391 . S
C396 C397 1.400 . S
C397 C391 1.491 . S
C397 C396 1.400 . S
C397 C398 1.398 . S
C398 H386 0.950 . S
C398 C397 1.398 . S
C398 C399 1.391 . S
C399 H387 0.950 . S
C399 C395 1.393 . S
C399 C398 1.391 . S
H400 C408 0.950 . S
H401 C413 0.950 . S
H402 C410 0.950 1_545 S
H403 C412 0.950 . S
H404 C414 0.950 . S
H405 C416 0.950 1_565 S
H406 C418 0.950 . S
H407 C419 0.950 . S
C408 H400 0.950 . S
C408 C409 1.386 . S
C408 C410 1.391 . S
C409 C408 1.386 . S
C409 C413 1.393 . S
C410 H402 0.950 1_565 S
C410 C408 1.391 . S
C410 C411 1.400 . S
C411 C410 1.400 . S
C411 C412 1.398 . S
C411 C417 1.491 1_565 S
C412 H403 0.950 . S
C412 C411 1.398 . S
C412 C413 1.391 . S
C413 H401 0.950 . S
C413 C409 1.393 . S
C413 C412 1.391 . S
C414 H404 0.950 . S
C414 C415 1.386 . S
C414 C416 1.391 . S
C415 C414 1.386 . S
C415 C419 1.393 . S
C416 H405 0.950 1_545 S
C416 C414 1.391 . S
C416 C417 1.400 . S
C417 C411 1.491 1_545 S
C417 C416 1.400 . S
C417 C418 1.398 . S
C418 H406 0.950 . S
C418 C417 1.398 . S
C418 C419 1.391 . S
C419 H407 0.950 . S
C419 C415 1.393 . S
C419 C418 1.391 . S
H420 C428 0.950 . S
H421 C433 0.950 . S
H422 C430 0.950 . S
H423 C432 0.950 . S
H424 C434 0.950 . S
H425 C436 0.950 . S
H426 C438 0.950 . S
H427 C439 0.950 . S
C428 H420 0.950 . S
C428 C429 1.386 . S
C428 C430 1.391 . S
C429 C428 1.386 . S
C429 C433 1.393 . S
C430 H422 0.950 . S
C430 C428 1.391 . S
C430 C431 1.400 . S
C431 C430 1.400 . S
C431 C432 1.398 . S
C431 C437 1.491 . S
C432 H423 0.950 . S
C432 C431 1.398 . S
C432 C433 1.391 . S
C433 H421 0.950 . S
C433 C429 1.393 . S
C433 C432 1.391 . S
C434 H424 0.950 . S
C434 C435 1.386 . S
C434 C436 1.391 . S
C435 C434 1.386 . S
C435 C439 1.393 . S
C436 H425 0.950 . S
C436 C434 1.391 . S
C436 C437 1.400 . S
C437 C431 1.491 . S
C437 C436 1.400 . S
C437 C438 1.398 . S
C438 H426 0.950 . S
C438 C437 1.398 . S
C438 C439 1.391 . S
C439 H427 0.950 . S
C439 C435 1.393 . S
C439 C438 1.391 . S
H440 C448 0.950 . S
H441 C453 0.950 . S
H442 C450 0.960 . S
H443 C452 0.950 . S
H444 C454 0.950 . S
H445 C456 0.960 . S
H446 C458 0.950 . S
H447 C459 0.950 . S
C448 H440 0.950 . S
C448 C449 1.386 . S
C448 C450 1.391 . S
C449 C448 1.386 . S
C449 C453 1.393 . S
C450 H442 0.960 . S
C450 C448 1.391 . S
C450 C451 1.400 . S
C451 C450 1.400 . S
C451 C452 1.398 . S
C451 C457 1.491 1_545 S
C452 H443 0.950 . S
C452 C451 1.398 . S
C452 C453 1.391 . S
C453 H441 0.950 . S
C453 C449 1.393 . S
C453 C452 1.391 . S
C454 H444 0.950 . S
C454 C455 1.386 . S
C454 C456 1.391 . S
C455 C454 1.386 . S
C455 C459 1.393 . S
C456 H445 0.960 . S
C456 C454 1.391 . S
C456 C457 1.400 . S
C457 C451 1.491 1_565 S
C457 C456 1.400 . S
C457 C458 1.398 . S
C458 H446 0.950 . S
C458 C457 1.398 . S
C458 C459 1.391 . S
C459 H447 0.950 . S
C459 C455 1.393 . S
C459 C458 1.391 . S
H460 C468 0.950 . S
H461 C473 0.950 . S
H462 C470 0.950 . S
H463 C472 0.950 . S
H464 C474 0.950 . S
H465 C476 0.950 . S
H466 C478 0.950 . S
H467 C479 0.950 . S
C468 H460 0.950 . S
C468 C469 1.386 . S
C468 C470 1.391 . S
C469 C468 1.386 . S
C469 C473 1.393 . S
C470 H462 0.950 . S
C470 C468 1.391 . S
C470 C471 1.400 . S
C471 C470 1.400 . S
C471 C472 1.398 . S
C471 C477 1.491 . S
C472 H463 0.950 . S
C472 C471 1.398 . S
C472 C473 1.391 . S
C473 H461 0.950 . S
C473 C469 1.393 . S
C473 C472 1.391 . S
C474 H464 0.950 . S
C474 C475 1.386 . S
C474 C476 1.391 . S
C475 C474 1.386 . S
C475 C479 1.393 . S
C476 H465 0.950 . S
C476 C474 1.391 . S
C476 C477 1.400 . S
C477 C471 1.491 . S
C477 C476 1.400 . S
C477 C478 1.398 . S
C478 H466 0.950 . S
C478 C477 1.398 . S
C478 C479 1.391 . S
C479 H467 0.950 . S
C479 C475 1.393 . S
C479 C478 1.391 . S
H480 C488 0.950 . S
H481 C493 0.950 . S
H482 C490 0.950 1_545 S
H483 C492 0.950 . S
H484 C494 0.950 . S
H485 C496 0.950 1_565 S
H486 C498 0.950 . S
H487 C499 0.950 . S
C488 H480 0.950 . S
C488 C489 1.386 . S
C488 C490 1.391 . S
C489 C488 1.386 . S
C489 C493 1.393 1_556 S
C490 H482 0.950 1_565 S
C490 C488 1.391 . S
C490 C491 1.400 . S
C491 C490 1.400 . S
C491 C492 1.398 1_556 S
C491 C497 1.491 1_666 S
C492 H483 0.950 . S
C492 C491 1.398 1_554 S
C492 C493 1.391 . S
C493 H481 0.950 . S
C493 C489 1.393 1_554 S
C493 C492 1.391 . S
C494 H484 0.950 . S
C494 C495 1.386 . S
C494 C496 1.391 . S
C495 C494 1.386 . S
C495 C499 1.393 1_554 S
C496 H485 0.950 1_545 S
C496 C494 1.391 . S
C496 C497 1.400 . S
C497 C491 1.491 1_444 S
C497 C496 1.400 . S
C497 C498 1.398 1_554 S
C498 H486 0.950 . S
C498 C497 1.398 1_556 S
C498 C499 1.391 . S
C499 H487 0.950 . S
C499 C495 1.393 1_556 S
C499 C498 1.391 . S
H500 C508 0.950 . S
H501 C513 0.950 . S
H502 C510 0.962 . S
H503 C512 0.950 . S
H504 C514 0.950 . S
H505 C516 0.962 . S
H506 C518 0.950 . S
H507 C519 0.950 . S
C508 H500 0.950 . S
C508 C509 1.386 . S
C508 C510 1.384 1_565 S
C509 C508 1.386 . S
C509 C513 1.393 1_554 S
C510 H502 0.962 . S
C510 C508 1.384 1_545 S
C510 C511 1.396 1_545 S
C511 C510 1.396 1_565 S
C511 C512 1.398 1_554 S
C511 C517 1.491 1_564 S
C512 H503 0.950 . S
C512 C511 1.398 1_556 S
C512 C513 1.391 . S
C513 H501 0.950 . S
C513 C509 1.393 1_556 S
C513 C512 1.391 . S
C514 H504 0.950 . S
C514 C515 1.386 . S
C514 C516 1.384 1_545 S
C515 C514 1.386 . S
C515 C519 1.393 1_556 S
C516 H505 0.962 . S
C516 C514 1.384 1_565 S
C516 C517 1.396 1_565 S
C517 C511 1.491 1_546 S
C517 C516 1.396 1_545 S
C517 C518 1.398 1_556 S
C518 H506 0.950 . S
C518 C517 1.398 1_554 S
C518 C519 1.391 . S
C519 H507 0.950 . S
C519 C515 1.393 1_554 S
C519 C518 1.391 . S
H520 C528 0.950 . S
H521 C533 0.950 . S
H522 C530 0.950 . S
H523 C532 0.985 . S
H524 C534 0.950 . S
H525 C536 0.950 . S
H526 C538 0.985 . S
H527 C539 0.950 . S
C528 H520 0.950 . S
C528 C529 1.386 . S
C528 C530 1.391 . S
C529 C528 1.386 . S
C529 C533 1.393 . S
C530 H522 0.950 . S
C530 C528 1.391 . S
C530 C531 1.400 . S
C531 C530 1.400 . S
C531 C532 1.398 . S
C531 C537 1.491 1_655 S
C532 H523 0.985 . S
C532 C531 1.398 . S
C532 C533 1.391 . S
C533 H521 0.950 . S
C533 C529 1.393 . S
C533 C532 1.391 . S
C534 H524 0.950 . S
C534 C535 1.386 . S
C534 C536 1.391 . S
C535 C534 1.386 . S
C535 C539 1.393 . S
C536 H525 0.950 . S
C536 C534 1.391 . S
C536 C537 1.400 . S
C537 C531 1.491 1_455 S
C537 C536 1.400 . S
C537 C538 1.398 . S
C538 H526 0.985 . S
C538 C537 1.398 . S
C538 C539 1.391 . S
C539 H527 0.950 . S
C539 C535 1.393 . S
C539 C538 1.391 . S
H540 C548 0.950 . S
H541 C553 0.950 . S
H542 C550 0.950 . S
H543 C552 0.950 . S
H544 C554 0.950 . S
H545 C556 0.950 . S
H546 C558 0.950 . S
H547 C559 0.950 . S
C548 H540 0.950 . S
C548 C549 1.386 . S
C548 C550 1.391 . S
C549 C548 1.386 . S
C549 C553 1.393 . S
C550 H542 0.950 . S
C550 C548 1.391 . S
C550 C551 1.400 . S
C551 C550 1.400 . S
C551 C552 1.398 . S
C551 C557 1.491 . S
C552 H543 0.950 . S
C552 C551 1.398 . S
C552 C553 1.391 . S
C553 H541 0.950 . S
C553 C549 1.393 . S
C553 C552 1.391 . S
C554 H544 0.950 . S
C554 C555 1.386 . S
C554 C556 1.391 . S
C555 C554 1.386 . S
C555 C559 1.393 . S
C556 H545 0.950 . S
C556 C554 1.391 . S
C556 C557 1.400 . S
C557 C551 1.491 . S
C557 C556 1.400 . S
C557 C558 1.398 . S
C558 H546 0.950 . S
C558 C557 1.398 . S
C558 C559 1.391 . S
C559 H547 0.950 . S
C559 C555 1.393 . S
C559 C558 1.391 . S
C329 C15 1.499 . S
C335 C95 1.499 . S
C349 C55 1.500 . S
C355 C135 1.500 . S
C369 C175 1.500 . S
C375 C255 1.500 . S
C389 C295 1.499 . S
C395 C215 1.500 . S
C409 C61 1.485 . S
C415 C21 1.491 . S
C429 C141 1.481 . S
C435 C101 1.493 . S
C449 C221 1.490 . S
C455 C181 1.491 . S
C469 C301 1.487 . S
C475 C261 1.486 . S
C489 C162 1.493 . S
C495 C2 1.486 . S
C509 C42 1.485 . S
C515 C202 1.482 . S
C529 C242 1.487 . S
C535 C82 1.480 . S
C549 C122 1.491 . S
C555 C282 1.482 . S
