# Generated by pormake.
# Topology vma, (5)-cn, num edge types: 1
# Building blocks:
#     Node 0, Type 0, BuildingBlock: XOMCOT_clean_sbu_1, # of connection points: 5
#     Node 1, Type 0, BuildingBlock: XOMCOT_clean_sbu_1, # of connection points: 5
#     Node 2, Type 0, BuildingBlock: XOMCOT_clean_sbu_1, # of connection points: 5
#     Node 3, Type 0, BuildingBlock: XOMCOT_clean_sbu_1, # of connection points: 5
#     Node 4, Type 0, BuildingBlock: XOMCOT_clean_sbu_1, # of connection points: 5
#     Node 5, Type 0, BuildingBlock: XOMCOT_clean_sbu_1, # of connection points: 5
#     Node 6, Type 0, BuildingBlock: XOMCOT_clean_sbu_1, # of connection points: 5
#     Node 7, Type 0, BuildingBlock: XOMCOT_clean_sbu_1, # of connection points: 5
#     Edge 8, Type (0, 0), BuildingBlock: EZIPEK_clean_linker_0, # of connection points: 2
#     Edge 9, Type (0, 0), BuildingBlock: EZIPEK_clean_linker_0, # of connection points: 2
#     Edge 10, Type (0, 0), BuildingBlock: EZIPEK_clean_linker_0, # of connection points: 2
#     Edge 11, Type (0, 0), BuildingBlock: EZIPEK_clean_linker_0, # of connection points: 2
#     Edge 12, Type (0, 0), BuildingBlock: EZIPEK_clean_linker_0, # of connection points: 2
#     Edge 13, Type (0, 0), BuildingBlock: EZIPEK_clean_linker_0, # of connection points: 2
#     Edge 14, Type (0, 0), BuildingBlock: EZIPEK_clean_linker_0, # of connection points: 2
#     Edge 15, Type (0, 0), BuildingBlock: EZIPEK_clean_linker_0, # of connection points: 2
#     Edge 16, Type (0, 0), BuildingBlock: EZIPEK_clean_linker_0, # of connection points: 2
#     Edge 17, Type (0, 0), BuildingBlock: EZIPEK_clean_linker_0, # of connection points: 2
#     Edge 18, Type (0, 0), BuildingBlock: EZIPEK_clean_linker_0, # of connection points: 2
#     Edge 19, Type (0, 0), BuildingBlock: EZIPEK_clean_linker_0, # of connection points: 2
#     Edge 20, Type (0, 0), BuildingBlock: EZIPEK_clean_linker_0, # of connection points: 2
#     Edge 21, Type (0, 0), BuildingBlock: EZIPEK_clean_linker_0, # of connection points: 2
#     Edge 22, Type (0, 0), BuildingBlock: EZIPEK_clean_linker_0, # of connection points: 2
#     Edge 23, Type (0, 0), BuildingBlock: EZIPEK_clean_linker_0, # of connection points: 2
#     Edge 24, Type (0, 0), BuildingBlock: EZIPEK_clean_linker_0, # of connection points: 2
#     Edge 25, Type (0, 0), BuildingBlock: EZIPEK_clean_linker_0, # of connection points: 2
#     Edge 26, Type (0, 0), BuildingBlock: EZIPEK_clean_linker_0, # of connection points: 2
#     Edge 27, Type (0, 0), BuildingBlock: EZIPEK_clean_linker_0, # of connection points: 2
# Relax obj value: 0.098
# Max RMSD: 0.172
# Mean RMSD: 0.169
data_MOF--net-vma--node1-XOMCOT_clean_sbu_1--edge1-EZIPEK_clean_linker_0
_symmetry_space_group_name_H-M    P1
_symmetry_Int_Tables_number       1
_symmetry_cell_setting            triclinic
loop_
_symmetry_equiv_pos_as_xyz
'x, y, z'
_cell_length_a     30.46972
_cell_length_b     21.894004
_cell_length_c     27.709629
_cell_angle_alpha  90.52983
_cell_angle_beta   98.625879
_cell_angle_gamma 90.538185
loop_
_atom_site_label
_atom_site_type_symbol
_atom_site_fract_x
_atom_site_fract_y
_atom_site_fract_z
_atom_type_partial_charge
C0 C 0.38233 0.10163 0.28698 0.0
C1 C 0.42059 0.10008 0.26593 0.0
N2 N 0.45537 0.09681 0.30193 0.0
N3 N 0.39305 0.09909 0.33597 0.0
C4 C 0.438 0.09643 0.34394 0.0
H5 H 0.34873 0.10331 0.26781 0.0
Co6 Co 0.35217 0.09494 0.38021 0.0
C7 C 0.40319 0.03056 0.46552 0.0
O8 O 0.36802 9e-05 0.47442 0.0
N9 N 0.30968 0.0913 0.42597 0.0
C10 C 0.25061 0.06818 0.46216 0.0
C11 C 0.27872 0.04777 0.43105 0.0
C12 C 0.30041 0.13645 0.45684 0.0
N13 N 0.26409 0.1243 0.47801 0.0
O14 O 0.36375 0.18007 0.39543 0.0
H15 H 0.27557 0.00382 0.4129 0.0
H16 H 0.31955 0.17803 0.46351 0.0
O17 O 0.40002 0.06932 0.431 0.0
C18 C 0.33403 0.21027 0.3684 0.0
O19 O 0.30142 0.18003 0.34191 0.0
N20 N 0.33844 0.01526 0.35795 0.0
C21 C 0.3138 0.91101 0.30183 0.0
C22 C 0.3555 0.91474 0.33111 0.0
C23 C 0.36762 0.96819 0.35831 0.0
C24 C 0.29879 0.01302 0.32771 0.0
C25 C 0.2854 0.96089 0.30012 0.0
H26 H 0.40117 0.97321 0.37692 0.0
H27 H 0.27763 0.05262 0.32461 0.0
H28 H 0.45784 0.0932 0.3796 0.0
H29 H 0.42277 0.10044 0.22731 0.0
H30 H 0.22156 0.04457 0.47111 0.0
H31 H 0.37877 0.87757 0.33172 0.0
H32 H 0.25342 0.95986 0.27695 0.0
C33 C 0.70671 0.0476 0.278 0.0
C34 C 0.66955 0.04557 0.30105 0.0
N35 N 0.63699 0.07671 0.27393 0.0
N36 N 0.69754 0.07967 0.2363 0.0
C37 C 0.65499 0.09787 0.23561 0.0
H38 H 0.7382 0.02654 0.29076 0.0
Co39 Co 0.73419 0.0971 0.1883 0.0
C40 C 0.65361 0.03053 0.13274 0.0
O41 O 0.64544 0.00067 0.17131 0.0
N42 N 0.76984 0.11479 0.13938 0.0
C43 C 0.79901 0.10398 0.07064 0.0
C44 C 0.77455 0.07609 0.10224 0.0
C45 C 0.79243 0.16591 0.12973 0.0
N46 N 0.81024 0.16038 0.08795 0.0
O47 O 0.71167 0.1783 0.18547 0.0
H48 H 0.75968 0.03097 0.09743 0.0
H49 H 0.79408 0.20749 0.15128 0.0
O50 O 0.68695 0.06731 0.13543 0.0
C51 C 0.73783 0.20316 0.22086 0.0
O52 O 0.77147 0.17141 0.2423 0.0
N53 N 0.76227 0.02182 0.19861 0.0
C54 C 0.80977 0.92756 0.24711 0.0
C55 C 0.76898 0.91575 0.21768 0.0
C56 C 0.7457 0.96373 0.19333 0.0
C57 C 0.80373 0.03269 0.22378 0.0
C58 C 0.82828 0.98607 0.24823 0.0
H59 H 0.71403 0.95386 0.17269 0.0
H60 H 0.8169 0.07873 0.22736 0.0
H61 H 0.63687 0.12428 0.20646 0.0
H62 H 0.66628 0.02187 0.33446 0.0
H63 H 0.80643 0.08534 0.03648 0.0
H64 H 0.75455 0.8702 0.21504 0.0
H65 H 0.86034 -0.00391 0.26962 0.0
C66 C 0.65149 0.00012 0.5925 0.0
C67 C 0.61638 0.02338 0.56108 0.0
N68 N 0.58135 0.98532 0.56059 0.0
N69 N 0.63848 0.94798 0.61211 0.0
C70 C 0.59604 0.93909 0.59046 0.0
H71 H 0.68413 0.02073 0.60145 0.0
Co72 Co 0.67304 0.89956 0.65864 0.0
C73 C 0.58545 0.907 0.70331 0.0
O74 O 0.56969 0.95617 0.68052 0.0
N75 N 0.70724 0.85062 0.70509 0.0
C76 C 0.73433 0.81152 0.77717 0.0
C77 C 0.70539 0.85293 0.75354 0.0
C78 C 0.73798 0.80767 0.70021 0.0
N79 N 0.75457 0.78316 0.74357 0.0
O80 O 0.6582 0.82887 0.61698 0.0
H81 H 0.6844 0.88319 0.77077 0.0
H82 H 0.74795 0.79412 0.66588 0.0
O83 O 0.62265 0.88469 0.69588 0.0
C84 C 0.68733 0.82992 0.58814 0.0
O85 O 0.71615 0.87552 0.59323 0.0
N86 N 0.6937 0.9698 0.69567 0.0
C87 C 0.73752 0.07312 0.73957 0.0
C88 C 0.69116 0.06809 0.73445 0.0
C89 C 0.66976 0.01604 0.71196 0.0
C90 C 0.73882 0.97511 0.69968 0.0
C91 C 0.76145 0.02573 0.72227 0.0
H92 H 0.63425 0.01469 0.70604 0.0
H93 H 0.75752 0.94011 0.68429 0.0
H94 H 0.57563 0.90053 0.59781 0.0
H95 H 0.61599 0.066 0.54153 0.0
H96 H 0.74001 0.80249 0.81594 0.0
H97 H 0.67169 0.10472 0.74665 0.0
H98 H 0.79725 0.02869 0.72498 0.0
C99 C 0.42624 0.97074 0.98869 0.0
C100 C 0.46259 0.99314 1.0191 0.0
N101 N 0.4991 0.97579 1.00108 0.0
N102 N 0.4395 0.93947 0.95131 0.0
C103 C 0.48443 0.94305 0.96012 0.0
H104 H 0.39217 0.97564 0.99442 0.0
Co105 Co 0.39906 0.90094 0.90263 0.0
C106 C 0.45283 0.86141 0.82338 0.0
O107 O 0.41681 0.85387 0.79131 0.0
N108 N 0.3562 0.86293 0.85556 0.0
C109 C 0.29135 0.84454 0.80842 0.0
C110 C 0.31747 0.88803 0.83506 0.0
C111 C 0.35237 0.80361 0.84121 0.0
N112 N 0.31336 0.79169 0.81258 0.0
O113 O 0.40368 0.82655 0.94085 0.0
H114 H 0.30739 0.93428 0.84068 0.0
H115 H 0.37753 0.76981 0.85163 0.0
O116 O 0.44936 0.87716 0.86742 0.0
C117 C 0.37145 0.82285 0.96555 0.0
O118 O 0.34163 0.86619 0.9607 0.0
N119 N 0.3908 0.97581 0.86921 0.0
C120 C 0.35847 0.08291 0.8247 0.0
C121 C 0.38884 0.04773 0.80391 0.0
C122 C 0.40466 0.99404 0.82677 0.0
C123 C 0.36263 0.01162 0.89062 0.0
C124 C 0.34614 0.06545 0.86909 0.0
H125 H 0.42626 0.96711 0.80851 0.0
H126 H 0.34981 -0.0043 0.92255 0.0
H127 H 0.50616 0.92079 0.93817 0.0
H128 H 0.4624 0.01942 0.05237 0.0
H129 H 0.25809 0.85049 0.78907 0.0
H130 H 0.39846 0.06007 0.76917 0.0
H131 H 0.32193 0.09133 0.88545 0.0
C132 C 0.8621 0.56057 0.27948 0.0
C133 C 0.89617 0.55732 0.25178 0.0
N134 N 0.93364 0.57769 0.27949 0.0
N135 N 0.87833 0.58277 0.32437 0.0
C136 C 0.92196 0.59297 0.32297 0.0
H137 H 0.82776 0.54781 0.26768 0.0
Co138 Co 0.84888 0.59871 0.37818 0.0
C139 C 0.91779 0.52766 0.44786 0.0
O140 O 0.8906 0.4827 0.45446 0.0
N141 N 0.81936 0.61698 0.43297 0.0
C142 C 0.80217 0.62643 0.50814 0.0
C143 C 0.82913 0.59808 0.47957 0.0
C144 C 0.7847 0.65541 0.43423 0.0
N145 N 0.77399 0.66266 0.47978 0.0
O146 O 0.8701 0.6809 0.37834 0.0
H147 H 0.85406 0.56578 0.49299 0.0
H148 H 0.76795 0.67846 0.40242 0.0
O149 O 0.90403 0.57348 0.42151 0.0
C150 C 0.84326 0.70703 0.34528 0.0
O151 O 0.8083 0.67611 0.32413 0.0
N152 N 0.82329 0.52023 0.37181 0.0
C153 C 0.77579 0.42249 0.32443 0.0
C154 C 0.82202 0.42025 0.33552 0.0
C155 C 0.84526 0.46991 0.35894 0.0
C156 C 0.77794 0.52145 0.36305 0.0
C157 C 0.75341 0.4726 0.33986 0.0
H158 H 0.88085 0.47033 0.36189 0.0
H159 H 0.76052 0.5626 0.36974 0.0
H160 H 0.94499 0.61127 0.35331 0.0
H161 H 0.8938 0.54086 0.21452 0.0
H162 H 0.80327 0.62098 0.5471 0.0
H163 H 0.84008 0.38181 0.32381 0.0
H164 H 0.71759 0.47529 0.33168 0.0
C165 C 0.1857 0.56857 0.27963 0.0
C166 C 0.14394 0.56483 0.29214 0.0
N167 N 0.11509 0.58435 0.2543 0.0
N168 N 0.18359 0.58963 0.23347 0.0
C169 C 0.13965 0.60016 0.21952 0.0
H170 H 0.21536 0.55724 0.30391 0.0
Co171 Co 0.2317 0.60448 0.19711 0.0
C172 C 0.16814 0.52016 0.13599 0.0
O173 O 0.16286 0.48926 0.17518 0.0
N174 N 0.27927 0.62003 0.16111 0.0
C175 C 0.34679 0.62404 0.13883 0.0
C176 C 0.3218 0.60097 0.17185 0.0
C177 C 0.27967 0.65501 0.12095 0.0
N178 N 0.32039 0.65844 0.10717 0.0
O179 O 0.20396 0.67978 0.17458 0.0
H180 H 0.33503 0.57343 0.20254 0.0
H181 H 0.25101 0.67877 0.10275 0.0
O182 O 0.19769 0.56267 0.13925 0.0
C183 C 0.21033 0.73736 0.18094 0.0
O184 O 0.18029 0.77379 0.15802 0.0
N185 N 0.26022 0.53318 0.22228 0.0
C186 C 0.30071 0.43697 0.27553 0.0
C187 C 0.27964 0.42738 0.22749 0.0
C188 C 0.26027 0.47676 0.20085 0.0
C189 C 0.28482 0.54391 0.26697 0.0
C190 C 0.30497 0.49629 0.29457 0.0
H191 H 0.24519 0.46916 0.16354 0.0
H192 H 0.28716 0.58967 0.28216 0.0
H193 H 0.12576 0.61774 0.18419 0.0
H194 H 0.13525 0.54882 0.32638 0.0
H195 H 0.38217 0.61869 0.13946 0.0
H196 H 0.27729 0.38203 0.21128 0.0
H197 H 0.32209 0.50524 0.33115 0.0
C198 C 0.16163 0.48178 0.58161 0.0
C199 C 0.12993 0.50678 0.54704 0.0
N200 N 0.09234 0.47384 0.54576 0.0
N201 N 0.14386 0.43397 0.60268 0.0
C202 C 0.10188 0.42897 0.57869 0.0
H203 H 0.19522 0.49869 0.59195 0.0
Co204 Co 0.17494 0.38954 0.65428 0.0
C205 C 0.08334 0.4008 0.69277 0.0
O206 O 0.06682 0.44611 0.66549 0.0
N207 N 0.20644 0.34564 0.70537 0.0
C208 C 0.23057 0.3118 0.78001 0.0
C209 C 0.20204 0.35099 0.75307 0.0
C210 C 0.23842 0.30364 0.7043 0.0
N211 N 0.25316 0.28228 0.74913 0.0
O212 O 0.16223 0.31419 0.6168 0.0
H213 H 0.1794 0.38127 0.7675 0.0
H214 H 0.25043 0.28828 0.67155 0.0
O215 O 0.12174 0.37938 0.68869 0.0
C216 C 0.19149 0.30857 0.5883 0.0
O217 O 0.22046 0.35323 0.5874 0.0
N218 N 0.19317 0.46279 0.68796 0.0
C219 C 0.23269 0.56889 0.73128 0.0
C220 C 0.18638 0.5631 0.72164 0.0
C221 C 0.16717 0.50968 0.69929 0.0
C222 C 0.23832 0.46902 0.69588 0.0
C223 C 0.2588 0.52127 0.71817 0.0
H224 H 0.13176 0.50721 0.68994 0.0
H225 H 0.25875 0.43331 0.68415 0.0
H226 H 0.07826 0.39441 0.58617 0.0
H227 H 0.13351 0.5474 0.52594 0.0
H228 H 0.23365 0.30408 0.8189 0.0
H229 H 0.16539 0.60004 0.73032 0.0
H230 H 0.29469 0.52505 0.72422 0.0
C231 C 0.94049 0.49648 0.98014 0.0
C232 C 0.97837 0.51327 1.01079 0.0
N233 N 1.01171 0.47799 1.00057 0.0
N234 N 0.94958 0.45075 0.95027 0.0
C235 C 0.9935 0.44023 0.96383 0.0
H236 H 0.9081 0.51592 0.98046 0.0
Co237 Co 0.90643 0.41139 0.90433 0.0
C238 C 0.95437 0.37283 0.82145 0.0
O239 O 0.91694 0.37628 0.7912 0.0
N240 N 0.86195 0.37108 0.85943 0.0
C241 C 0.80024 0.34826 0.80793 0.0
C242 C 0.82509 0.39441 0.83274 0.0
C243 C 0.85829 0.31011 0.85006 0.0
N244 N 0.82107 0.29544 0.81904 0.0
O245 O 0.90978 0.33918 0.94459 0.0
H246 H 0.81572 0.44167 0.83119 0.0
H247 H 0.88217 0.27691 0.86594 0.0
O248 O 0.95431 0.38305 0.8672 0.0
C249 C 0.88595 0.3469 0.97852 0.0
O250 O 0.87068 0.40175 0.98521 0.0
N251 N 0.89807 0.48513 0.86904 0.0
C252 C 0.86479 0.58986 0.82102 0.0
C253 C 0.90156 0.5605 0.80707 0.0
C254 C 0.91823 0.50837 0.83215 0.0
C255 C 0.86466 0.51666 0.8853 0.0
C256 C 0.84719 0.56875 0.86155 0.0
H257 H 0.94636 0.48699 0.82058 0.0
H258 H 0.84918 0.49841 0.91482 0.0
H259 H 1.01172 0.40526 0.94769 0.0
H260 H 0.98134 0.54873 0.03863 0.0
H261 H 0.76897 0.35288 0.78398 0.0
H262 H 0.91635 0.57667 0.7763 0.0
H263 H 0.8189 0.59081 0.8734 0.0
C264 C 0.21377 0.19861 0.58072 0.0
C265 C 0.19671 0.25298 0.55787 0.0
C266 C 0.21525 0.21412 0.47972 0.0
C267 C 0.23985 0.1663 0.5047 0.0
N268 N 0.2639 0.11303 0.5791 0.0
N269 N 0.17904 0.31191 0.48477 0.0
C270 C 0.239 0.1581 0.5552 0.0
C271 C 0.19646 0.26017 0.50689 0.0
N272 N 0.20549 0.18541 0.62652 0.0
N273 N 0.20898 0.21438 0.42988 0.0
H274 H 0.16218 0.34408 0.5029 0.0
H275 H 0.18253 0.32395 0.44927 0.0
H276 H 0.2222 0.18104 0.40927 0.0
H277 H 0.18809 0.24459 0.40895 0.0
H278 H 0.21397 0.14424 0.64378 0.0
H279 H 0.18562 0.21297 0.64495 0.0
H280 H 0.2687 0.10833 0.61688 0.0
H281 H 0.2826 0.08302 0.56117 0.0
C282 C 0.80205 0.24974 0.03367 0.0
C283 C 0.82988 0.20758 0.06161 0.0
C284 C 0.89554 0.25455 0.03393 0.0
C285 C 0.86739 0.29489 1.00398 0.0
N286 N 0.79315 0.32357 0.96845 0.0
N287 N 0.90178 0.16402 0.08486 0.0
C288 C 0.82042 0.29059 1.00216 0.0
C289 C 0.87629 0.20822 0.06051 0.0
N290 N 0.7578 0.2504 0.03721 0.0
N291 N 0.94054 0.26247 0.03887 0.0
H292 H 0.88874 0.13173 0.10645 0.0
H293 H 0.93498 0.15718 0.08166 0.0
H294 H 0.95563 0.29561 1.01992 0.0
H295 H 0.96292 0.23905 0.06398 0.0
H296 H 0.73643 0.28484 1.02315 0.0
H297 H 0.74267 0.2183 0.05706 0.0
H298 H 0.75878 0.31862 0.96205 0.0
H299 H 0.80488 0.351 0.94249 0.0
C300 C 0.69432 0.71831 0.56136 0.0
C301 C 0.69296 0.78174 0.55079 0.0
C302 C 0.73873 0.76497 0.48636 0.0
C303 C 0.74113 0.7017 0.4972 0.0
N304 N 0.70695 0.61624 0.53153 0.0
N305 N 0.69646 0.85769 0.48924 0.0
C306 C 0.71406 0.67778 0.5303 0.0
C307 C 0.70887 0.802 0.50806 0.0
N308 N 0.67922 0.69669 0.60194 0.0
N309 N 0.76749 0.7914 0.45934 0.0
H310 H 0.67383 0.88499 0.50416 0.0
H311 H 0.70461 0.87301 0.45615 0.0
H312 H 0.79286 0.76769 0.44662 0.0
H313 H 0.76936 0.83845 0.45442 0.0
H314 H 0.68498 0.6523 0.61441 0.0
H315 H 0.6626 0.72345 0.62439 0.0
H316 H 0.68483 0.59619 0.5521 0.0
H317 H 0.71942 0.58623 0.50756 0.0
C318 C 0.37072 0.79489 0.05299 0.0
C319 C 0.36828 0.7756 1.00349 0.0
C320 C 0.33342 0.67888 1.02283 0.0
C321 C 0.33541 0.69862 0.07189 0.0
N322 N 0.36272 0.76941 0.13639 0.0
N323 N 0.35837 0.69364 0.94447 0.0
C324 C 0.35623 0.75489 0.08775 0.0
C325 C 0.35303 0.7157 0.98938 0.0
N326 N 0.3863 0.85217 0.06646 0.0
N327 N 0.31207 0.6252 1.00833 0.0
H328 H 0.37464 0.71875 0.92074 0.0
H329 H 0.35091 0.64895 0.93272 0.0
H330 H 0.29851 0.59705 0.0326 0.0
H331 H 0.30519 0.61057 0.97211 0.0
H332 H 0.38346 0.87282 0.09981 0.0
H333 H 0.40145 0.8798 0.04329 0.0
H334 H 0.38229 0.80594 0.15161 0.0
H335 H 0.35015 0.74284 0.16231 0.0
C336 C 0.56335 0.02892 0.27763 0.0
C337 C 0.5912 0.08168 0.28166 0.0
C338 C 0.52839 0.14471 0.29724 0.0
C339 C 0.50151 0.09155 0.2963 0.0
N340 N 0.49365 0.98248 0.29197 0.0
N341 N 0.60217 0.18854 0.30057 0.0
C342 C 0.51917 0.03339 0.28841 0.0
C343 C 0.57413 0.13934 0.29277 0.0
N344 N 0.57857 0.97526 0.26126 0.0
N345 N 0.50963 0.20047 0.3014 0.0
H346 H 0.63552 0.18586 0.2969 0.0
H347 H 0.5934 0.23064 0.31378 0.0
H348 H 0.47665 0.20502 0.30636 0.0
H349 H 0.52558 0.24185 0.29705 0.0
H350 H 0.55875 0.93654 0.25279 0.0
H351 H 0.61039 0.97084 0.25225 0.0
H352 H 0.50563 0.93814 0.29162 0.0
H353 H 0.46096 0.98486 0.29887 0.0
C354 C 0.56178 0.92003 0.78503 0.0
C355 C 0.56201 0.88332 0.74288 0.0
C356 C 0.50408 0.81836 0.76903 0.0
C357 C 0.49633 0.86364 0.80397 0.0
N358 N 0.51789 0.96239 0.84201 0.0
N359 N 0.53456 0.79539 0.69474 0.0
C360 C 0.52578 0.91518 0.81205 0.0
C361 C 0.534 0.83114 0.73527 0.0
N362 N 0.59613 0.95989 0.79913 0.0
N363 N 0.48282 0.76309 0.76838 0.0
H364 H 0.55719 0.80253 0.6705 0.0
H365 H 0.51132 0.76086 0.68394 0.0
H366 H 0.46175 0.75207 0.79353 0.0
H367 H 0.48951 0.72643 0.74651 0.0
H368 H 0.60007 0.98409 0.83209 0.0
H369 H 0.6234 0.96278 0.78059 0.0
H370 H 0.53515 0.00384 0.84365 0.0
H371 H 0.49198 0.96324 0.86222 0.0
C372 C 0.04545 0.63907 0.25959 0.0
C373 C 0.06758 0.58409 0.25211 0.0
C374 C 1.00067 0.5248 0.26104 0.0
C375 C 0.97792 0.57987 0.26698 0.0
N376 N 0.97556 0.68945 0.26399 0.0
N377 N 0.06505 0.47619 0.23605 0.0
C378 C 0.99945 0.63711 0.26369 0.0
C379 C 0.04457 0.52742 0.24955 0.0
N380 N 0.0691 0.69261 0.26519 0.0
N381 N 0.98129 0.47018 0.26943 0.0
H382 H 0.09734 0.47727 0.22783 0.0
H383 H 0.04898 0.43418 0.22893 0.0
H384 H 0.94968 0.4668 0.27931 0.0
H385 H 0.99784 0.42871 0.27078 0.0
H386 H 0.05635 0.7336 0.27605 0.0
H387 H 0.1027 0.69519 0.2618 0.0
H388 H 0.98781 0.73252 0.25708 0.0
H389 H 0.94207 0.68898 0.26756 0.0
C390 C 0.0646 0.41512 0.77743 0.0
C391 C 0.05905 0.38102 0.73314 0.0
C392 C 0.9969 0.32511 0.76023 0.0
C393 C 0.99644 0.36784 0.7992 0.0
N394 N 1.0315 0.45521 0.84475 0.0
N395 N 1.02076 0.302 0.68219 0.0
C396 C 1.03137 0.41236 0.80859 0.0
C397 C 1.0258 0.33489 0.72483 0.0
N398 N 0.10172 0.45068 0.78965 0.0
N399 N 0.96972 0.27479 0.7575 0.0
H400 H 0.04262 0.30631 0.65675 0.0
H401 H 0.99391 0.27284 0.67095 0.0
H402 H 0.94922 0.26583 0.78367 0.0
H403 H 0.97068 0.2392 0.73252 0.0
H404 H 0.11067 0.47109 0.82385 0.0
H405 H 0.12597 0.45478 0.76717 0.0
H406 H 0.05176 0.49405 0.84805 0.0
H407 H 1.00975 0.45483 0.87006 0.0
C408 C 0.25776 0.75915 0.26269 0.0
C409 C 0.25018 0.76651 0.21125 0.0
C410 C 0.29988 0.85663 0.22092 0.0
C411 C 0.29909 0.85587 0.2719 0.0
N412 N 0.27724 0.80719 0.34227 0.0
N413 N 0.26735 0.81961 0.14047 0.0
C414 C 0.27865 0.80679 0.29317 0.0
C415 C 0.27292 0.81406 0.19011 0.0
N416 N 0.24556 0.70631 0.28241 0.0
N417 N 0.32618 0.89849 0.20225 0.0
H418 H 0.25056 0.7868 0.11694 0.0
H419 H 0.27831 0.85702 0.12251 0.0
H420 H 0.34611 0.92997 0.22428 0.0
H421 H 0.33115 0.89908 0.16593 0.0
H422 H 0.25294 0.69567 0.31927 0.0
H423 H 0.23391 0.66993 0.26027 0.0
H424 H 0.25778 0.77705 0.35906 0.0
H425 H 0.29347 0.84019 0.36606 0.0
C426 C 0.83303 0.87504 0.32742 0.0
C427 C 0.83268 0.87777 0.27612 0.0
C428 C 0.85397 0.77136 0.2739 0.0
C429 C 0.85238 0.76728 0.32483 0.0
N430 N 0.85626 0.81934 0.40214 0.0
N431 N 0.8582 0.83673 0.20469 0.0
C432 C 0.84772 0.8208 0.35242 0.0
C433 C 0.84871 0.82863 0.25088 0.0
N434 N 0.81651 0.92219 0.3516 0.0
N435 N 0.85784 0.71992 0.24687 0.0
H436 H 0.85459 0.87878 0.18714 0.0
H437 H 0.87379 0.80386 0.18598 0.0
H438 H 0.86412 0.6777 0.26284 0.0
H439 H 0.85305 0.71883 0.20885 0.0
H440 H 0.8111 0.91956 0.38776 0.0
H441 H 0.8054 0.96265 0.33463 0.0
H442 H 0.85666 0.8582 0.42419 0.0
H443 H 0.86723 0.78002 0.42099 0.0
C444 C 0.78038 0.17001 0.73038 0.0
C445 C 0.76115 0.12904 0.761 0.0
C446 C 0.78441 0.19667 0.8314 0.0
C447 C 0.80519 0.23603 0.8012 0.0
N448 N 0.83121 0.25508 0.72529 0.0
N449 N 0.75178 0.09707 0.84194 0.0
C450 C 0.80574 0.22088 0.75164 0.0
C451 C 0.76522 0.1405 0.81199 0.0
N452 N 0.77273 0.16182 0.68083 0.0
N453 N 0.7816 0.21436 0.87814 0.0
H454 H 0.73753 0.05544 0.82898 0.0
H455 H 0.75789 0.10009 0.87988 0.0
H456 H 0.79644 0.25446 0.89329 0.0
H457 H 0.7625 0.19166 0.90065 0.0
H458 H 0.7821 0.19346 0.65637 0.0
H459 H 0.75368 0.12573 0.66374 0.0
H460 H 0.83676 0.24338 0.69022 0.0
H461 H 0.85017 0.29237 0.74049 0.0
C462 C 0.32712 0.24186 0.77856 0.0
C463 C 0.28165 0.23137 0.76117 0.0
C464 C 0.29077 0.12182 0.77356 0.0
C465 C 0.33461 0.1332 0.79743 0.0
N466 N 0.39533 0.20281 0.82399 0.0
N467 N 0.21828 0.164 0.74608 0.0
C468 C 0.35334 0.19288 0.7998 0.0
C469 C 0.26301 0.17191 0.75921 0.0
N470 N 0.34472 0.29889 0.77477 0.0
N471 N 0.27591 0.06309 0.76447 0.0
H472 H 0.19706 0.20004 0.73516 0.0
H473 H 0.20175 0.12271 0.74917 0.0
H474 H 0.2955 0.02516 0.77463 0.0
H475 H 0.24579 0.05196 0.74303 0.0
H476 H 0.37845 0.30918 0.78295 0.0
H477 H 0.32553 0.33535 0.75998 0.0
H478 H 0.40938 0.24601 0.83145 0.0
H479 H 0.41563 0.16748 0.83882 0.0
C480 C 0.74398 0.37325 0.24466 0.0
C481 C 0.7515 0.37166 0.29646 0.0
C482 C 0.72998 0.26415 0.29482 0.0
C483 C 0.72996 0.26288 0.2434 0.0
N484 N 0.73357 0.31556 0.16824 0.0
N485 N 0.74768 0.31971 0.3717 0.0
C486 C 0.73468 0.31766 0.21772 0.0
C487 C 0.74223 0.31855 0.32174 0.0
N488 N 0.74662 0.42782 0.22163 0.0
N489 N 0.71945 0.21234 0.31785 0.0
H490 H 0.75439 0.35985 0.39219 0.0
H491 H 0.74688 0.28134 0.39338 0.0
H492 H 0.71156 0.17146 0.29921 0.0
H493 H 0.71509 0.21027 0.3543 0.0
H494 H 0.73829 0.43357 0.18417 0.0
H495 H 0.75425 0.46882 0.24064 0.0
H496 H 0.74213 0.35204 0.14763 0.0
H497 H 0.72504 0.27608 0.14752 0.0
C498 C 0.35502 0.35353 0.30088 0.0
C499 C 0.31567 0.38464 0.30707 0.0
C500 C 0.30407 0.31476 0.37242 0.0
C501 C 0.33775 0.27671 0.35946 0.0
N502 N 0.39716 0.2603 0.31291 0.0
N503 N 0.25077 0.39366 0.34713 0.0
C504 C 0.36442 0.29691 0.32482 0.0
C505 C 0.28994 0.36552 0.34295 0.0
N506 N 0.38341 0.37838 0.27246 0.0
N507 N 0.28601 0.30245 0.4134 0.0
H508 H 0.23891 0.43092 0.32609 0.0
H509 H 0.22825 0.37706 0.36876 0.0
H510 H 0.29746 0.26688 0.4363 0.0
H511 H 0.26404 0.33136 0.42756 0.0
H512 H 0.41471 0.36094 0.27014 0.0
H513 H 0.37712 0.41959 0.25421 0.0
H514 H 0.41308 0.26739 0.28268 0.0
H515 H 0.40727 0.22157 0.33288 0.0
C516 C 0.27283 0.66774 0.72234 0.0
C517 C 0.25421 0.62596 0.75279 0.0
C518 C 0.27513 0.69418 0.82325 0.0
C519 C 0.29613 0.73372 0.79345 0.0
N520 N 0.32115 0.7557 0.71747 0.0
N521 N 0.24358 0.59381 0.83333 0.0
C522 C 0.29687 0.71957 0.74376 0.0
C523 C 0.25707 0.63754 0.80367 0.0
N524 N 0.2661 0.65896 0.67283 0.0
N525 N 0.27106 0.71215 0.86969 0.0
H526 H 0.22972 0.55205 0.82013 0.0
H527 H 0.24915 0.59688 0.87128 0.0
H528 H 0.28434 0.75328 0.88496 0.0
H529 H 0.25219 0.68853 0.89192 0.0
H530 H 0.27494 0.69085 0.64828 0.0
H531 H 0.24844 0.62166 0.65577 0.0
H532 H 0.3269 0.74506 0.68229 0.0
H533 H 0.33859 0.79429 0.73257 0.0
C534 C 0.82906 0.74902 0.77859 0.0
C535 C 0.78625 0.73494 0.75335 0.0
C536 C 0.80223 0.62578 0.75963 0.0
C537 C 0.84191 0.63978 0.79174 0.0
N538 N 0.89405 0.71383 0.83237 0.0
N539 N 0.73014 0.66114 0.72176 0.0
C540 C 0.85603 0.70126 0.80083 0.0
C541 C 0.77256 0.67358 0.74355 0.0
N542 N 0.84347 0.80836 0.7811 0.0
N543 N 0.79296 0.56668 0.74491 0.0
H544 H 0.70754 0.69531 0.71006 0.0
H545 H 0.71632 0.61738 0.71828 0.0
H546 H 0.81402 0.53063 0.75642 0.0
H547 H 0.76666 0.55408 0.7181 0.0
H548 H 0.87562 0.82197 0.79553 0.0
H549 H 0.82391 0.84366 0.76484 0.0
H550 H 0.90375 0.75759 0.84485 0.0
H551 H 0.91511 0.67974 0.84805 0.0
C552 C 0.47035 0.06113 0.52566 0.0
C553 C 0.44776 0.0168 0.4931 0.0
C554 C 0.5147 0.95365 0.50303 0.0
C555 C 0.53613 -0.00427 0.53807 0.0
N556 N 0.53056 0.08134 0.59183 0.0
N557 N 0.44511 0.91376 0.46036 0.0
C558 C 0.51292 0.04737 0.55189 0.0
C559 C 0.46884 0.96074 0.4848 0.0
N560 N 0.45113 0.11626 0.53179 0.0
N561 N 0.53874 0.90828 0.48569 0.0
H562 H 0.41128 0.91614 0.44759 0.0
H563 H 0.45792 0.8702 0.45724 0.0
H564 H 0.57262 0.90294 0.49754 0.0
H565 H 0.5262 0.87989 0.45638 0.0
H566 H 0.46809 0.15289 0.55059 0.0
H567 H 0.41896 0.12669 0.51558 0.0
H568 H 0.51346 0.1161 0.60663 0.0
H569 H 0.56051 0.07054 0.61332 0.0
C570 C 0.59483 0.06727 0.06549 0.0
C571 C 0.62274 0.01998 0.08651 0.0
C572 C 0.57244 0.9428 0.04333 0.0
C573 C 0.54404 0.98975 1.02309 0.0
N574 N 0.53415 0.09544 1.00262 0.0
N575 N 0.64661 0.91614 0.08085 0.0
C576 C 0.5575 0.05173 1.03 0.0
C577 C 0.61433 0.95879 0.07036 0.0
N578 N 0.6021 0.1262 0.08153 0.0
N579 N 0.55828 0.88337 0.0399 0.0
H580 H 0.67832 0.9279 0.09827 0.0
H581 H 0.64369 0.87162 0.06705 0.0
H582 H 0.52723 0.86992 1.02173 0.0
H583 H 0.57586 0.84806 0.05863 0.0
H584 H 0.57972 0.16124 0.0718 0.0
H585 H 0.62944 0.13965 0.10673 0.0
H586 H 0.54412 0.14109 1.00283 0.0
H587 H 0.50708 0.08447 0.97607 0.0
C588 C 1.03486 0.46576 0.47319 0.0
C589 C 0.04931 0.48999 0.52036 0.0
C590 C 0.98013 0.54774 0.51707 0.0
C591 C 0.96532 0.52272 0.46992 0.0
N592 N 0.98253 0.47083 0.39822 0.0
N593 N 1.03999 0.55948 0.58548 0.0
C594 C 0.99391 0.48542 0.44652 0.0
C595 C 1.02312 0.53274 0.54178 0.0
N596 N 0.06022 0.42303 0.45449 0.0
N597 N 0.95277 0.58524 0.53827 0.0
H598 H 0.07072 0.54782 0.60491 0.0
H599 H 1.02495 0.59511 0.60165 0.0
H600 H 0.92349 0.60217 0.51909 0.0
H601 H 0.95854 0.59929 0.57464 0.0
H602 H 0.04992 0.3984 0.42242 0.0
H603 H 0.09084 0.4093 0.47303 0.0
H604 H 1.00327 0.44808 0.37761 0.0
H605 H 0.95391 0.48721 0.37736 0.0
C606 C 0.12045 0.44669 0.0809 0.0
C607 C 0.13624 0.50772 0.09009 0.0
C608 C 0.07904 0.54082 1.02357 0.0
C609 C 0.05729 0.48359 1.02399 0.0
N610 N 0.05601 0.38192 0.05618 0.0
N611 N 0.12679 0.61548 0.06989 0.0
C612 C 0.07795 0.43597 0.05287 0.0
C613 C 0.11524 0.55559 0.06068 0.0
N614 N 0.14624 0.39895 0.0988 0.0
N615 N 0.06451 0.58129 0.98767 0.0
H616 H 0.15252 0.63054 0.0962 0.0
H617 H 0.10825 0.65143 0.05335 0.0
H618 H 1.03836 0.57068 0.95988 0.0
H619 H 0.08132 0.62183 0.98253 0.0
H620 H 0.13779 0.35349 0.09018 0.0
H621 H 0.17838 0.40533 0.11745 0.0
H622 H 0.0677 0.3481 0.08093 0.0
H623 H 1.02444 0.37293 0.03714 0.0
loop_
_geom_bond_atom_site_label_1
_geom_bond_atom_site_label_2
_geom_bond_distance
_geom_bond_site_symmetry_2
_ccdc_geom_bond_type
C0 C1 1.351 . S
C0 N3 1.368 . S
C0 H5 0.931 . S
C1 C0 1.351 . S
C1 N2 1.373 . S
C1 H29 0.930 . S
N2 C1 1.373 . S
N2 C4 1.340 . S
N3 C0 1.368 . S
N3 C4 1.321 . S
N3 Co6 2.135 . S
C4 N2 1.340 . S
C4 N3 1.321 . S
C4 H28 0.930 . S
H5 C0 0.931 . S
Co6 N3 2.135 . S
Co6 N9 2.121 . S
Co6 O14 2.055 . S
Co6 O17 2.039 . S
Co6 N20 2.140 . S
C7 O8 1.227 . S
C7 O17 1.265 . S
O8 C7 1.227 . S
N9 Co6 2.121 . S
N9 C11 1.375 . S
N9 C12 1.313 . S
C10 C11 1.338 . S
C10 N13 1.377 . S
C10 H30 0.930 . S
C11 N9 1.375 . S
C11 C10 1.338 . S
C11 H15 0.931 . S
C12 N9 1.313 . S
C12 N13 1.344 . S
C12 H16 0.930 . S
N13 C10 1.377 . S
N13 C12 1.344 . S
O14 Co6 2.055 . S
O14 C18 1.253 . S
H15 C11 0.931 . S
H16 C12 0.930 . S
O17 Co6 2.039 . S
O17 C7 1.265 . S
C18 O14 1.253 . S
C18 O19 1.227 . S
O19 C18 1.227 . S
N20 Co6 2.140 . S
N20 C23 1.346 . S
N20 C24 1.345 . S
C21 C22 1.387 . S
C21 C25 1.391 1_565 S
C22 C21 1.387 . S
C22 C23 1.369 1_565 S
C22 H31 0.929 . S
C23 N20 1.346 . S
C23 C22 1.369 1_545 S
C23 H26 0.928 . S
C24 N20 1.345 . S
C24 C25 1.371 . S
C24 H27 0.931 . S
C25 C21 1.391 1_545 S
C25 C24 1.371 . S
C25 H32 0.930 . S
H26 C23 0.928 . S
H27 C24 0.931 . S
H28 C4 0.930 . S
H29 C1 0.930 . S
H30 C10 0.930 . S
H31 C22 0.929 . S
H32 C25 0.930 . S
C33 C34 1.351 . S
C33 N36 1.368 . S
C33 H38 0.931 . S
C34 C33 1.351 . S
C34 N35 1.373 . S
C34 H62 0.930 . S
N35 C34 1.373 . S
N35 C37 1.340 . S
N36 C33 1.368 . S
N36 C37 1.321 . S
N36 Co39 2.135 . S
C37 N35 1.340 . S
C37 N36 1.321 . S
C37 H61 0.930 . S
H38 C33 0.931 . S
Co39 N36 2.135 . S
Co39 N42 2.121 . S
Co39 O47 2.055 . S
Co39 O50 2.039 . S
Co39 N53 2.140 . S
C40 O41 1.227 . S
C40 O50 1.265 . S
O41 C40 1.227 . S
N42 Co39 2.121 . S
N42 C44 1.375 . S
N42 C45 1.313 . S
C43 C44 1.338 . S
C43 N46 1.377 . S
C43 H63 0.930 . S
C44 N42 1.375 . S
C44 C43 1.338 . S
C44 H48 0.931 . S
C45 N42 1.313 . S
C45 N46 1.344 . S
C45 H49 0.930 . S
N46 C43 1.377 . S
N46 C45 1.344 . S
O47 Co39 2.055 . S
O47 C51 1.253 . S
H48 C44 0.931 . S
H49 C45 0.930 . S
O50 Co39 2.039 . S
O50 C40 1.265 . S
C51 O47 1.253 . S
C51 O52 1.227 . S
O52 C51 1.227 . S
N53 Co39 2.140 . S
N53 C56 1.346 . S
N53 C57 1.345 . S
C54 C55 1.387 . S
C54 C58 1.391 1_565 S
C55 C54 1.387 . S
C55 C56 1.369 1_565 S
C55 H64 0.929 . S
C56 N53 1.346 . S
C56 C55 1.369 1_545 S
C56 H59 0.928 . S
C57 N53 1.345 . S
C57 C58 1.371 . S
C57 H60 0.931 . S
C58 C54 1.391 1_545 S
C58 C57 1.371 . S
C58 H65 0.930 . S
H59 C56 0.928 . S
H60 C57 0.931 . S
H61 C37 0.930 . S
H62 C34 0.930 . S
H63 C43 0.930 . S
H64 C55 0.929 . S
H65 C58 0.930 . S
C66 C67 1.351 . S
C66 N69 1.368 . S
C66 H71 0.931 . S
C67 C66 1.351 . S
C67 N68 1.373 . S
C67 H95 0.938 . S
N68 C67 1.373 . S
N68 C70 1.340 . S
N69 C66 1.368 . S
N69 C70 1.321 . S
N69 Co72 2.135 . S
C70 N68 1.340 . S
C70 N69 1.321 . S
C70 H94 0.930 . S
H71 C66 0.931 . S
Co72 N69 2.135 . S
Co72 N75 2.121 . S
Co72 O80 2.055 . S
Co72 O83 2.039 . S
Co72 N86 2.140 . S
C73 O74 1.227 . S
C73 O83 1.265 . S
O74 C73 1.227 . S
N75 Co72 2.121 . S
N75 C77 1.375 . S
N75 C78 1.313 . S
C76 C77 1.338 . S
C76 N79 1.377 . S
C76 H96 0.930 . S
C77 N75 1.375 . S
C77 C76 1.338 . S
C77 H81 0.931 . S
C78 N75 1.313 . S
C78 N79 1.344 . S
C78 H82 0.930 . S
N79 C76 1.377 . S
N79 C78 1.344 . S
O80 Co72 2.055 . S
O80 C84 1.253 . S
H81 C77 0.931 . S
H82 C78 0.930 . S
O83 Co72 2.039 . S
O83 C73 1.265 . S
C84 O80 1.253 . S
C84 O85 1.227 . S
O85 C84 1.227 . S
N86 Co72 2.140 . S
N86 C89 1.346 . S
N86 C90 1.345 . S
C87 C88 1.387 . S
C87 C91 1.391 1_545 S
C88 C87 1.387 . S
C88 C89 1.369 1_545 S
C88 H97 0.929 . S
C89 N86 1.346 . S
C89 C88 1.369 1_565 S
C89 H92 0.928 . S
C90 N86 1.345 . S
C90 C91 1.371 . S
C90 H93 0.931 . S
C91 C87 1.391 1_565 S
C91 C90 1.371 . S
C91 H98 0.930 . S
H92 C89 0.928 . S
H93 C90 0.931 . S
H94 C70 0.930 . S
H95 C67 0.938 . S
H96 C76 0.930 . S
H97 C88 0.929 . S
H98 C91 0.930 . S
C99 C100 1.351 . S
C99 N102 1.368 . S
C99 H104 0.931 . S
C100 C99 1.351 . S
C100 N101 1.373 . S
C100 H128 0.938 1_556 S
N101 C100 1.373 . S
N101 C103 1.340 . S
N102 C99 1.368 . S
N102 C103 1.321 . S
N102 Co105 2.135 . S
C103 N101 1.340 . S
C103 N102 1.321 . S
C103 H127 0.930 . S
H104 C99 0.931 . S
Co105 N102 2.135 . S
Co105 N108 2.121 . S
Co105 O113 2.055 . S
Co105 O116 2.039 . S
Co105 N119 2.140 . S
C106 O107 1.227 . S
C106 O116 1.265 . S
O107 C106 1.227 . S
N108 Co105 2.121 . S
N108 C110 1.375 . S
N108 C111 1.313 . S
C109 C110 1.338 . S
C109 N112 1.377 . S
C109 H129 0.930 . S
C110 N108 1.375 . S
C110 C109 1.338 . S
C110 H114 0.931 . S
C111 N108 1.313 . S
C111 N112 1.344 . S
C111 H115 0.930 . S
N112 C109 1.377 . S
N112 C111 1.344 . S
O113 Co105 2.055 . S
O113 C117 1.253 . S
H114 C110 0.931 . S
H115 C111 0.930 . S
O116 Co105 2.039 . S
O116 C106 1.265 . S
C117 O113 1.253 . S
C117 O118 1.227 . S
O118 C117 1.227 . S
N119 Co105 2.140 . S
N119 C122 1.346 . S
N119 C123 1.345 . S
C120 C121 1.387 . S
C120 C124 1.391 1_545 S
C121 C120 1.387 . S
C121 C122 1.369 1_545 S
C121 H130 0.929 . S
C122 N119 1.346 . S
C122 C121 1.369 1_565 S
C122 H125 0.928 . S
C123 N119 1.345 . S
C123 C124 1.371 . S
C123 H126 0.931 . S
C124 C120 1.391 1_565 S
C124 C123 1.371 . S
C124 H131 0.930 . S
H125 C122 0.928 . S
H126 C123 0.931 . S
H127 C103 0.930 . S
H128 C100 0.938 1_554 S
H129 C109 0.930 . S
H130 C121 0.929 . S
H131 C124 0.930 . S
C132 C133 1.351 . S
C132 N135 1.368 . S
C132 H137 0.931 . S
C133 C132 1.351 . S
C133 N134 1.373 . S
C133 H161 0.930 . S
N134 C133 1.373 . S
N134 C136 1.340 . S
N135 C132 1.368 . S
N135 C136 1.321 . S
N135 Co138 2.135 . S
C136 N134 1.340 . S
C136 N135 1.321 . S
C136 H160 0.930 . S
H137 C132 0.931 . S
Co138 N135 2.135 . S
Co138 N141 2.121 . S
Co138 O146 2.055 . S
Co138 O149 2.039 . S
Co138 N152 2.140 . S
C139 O140 1.227 . S
C139 O149 1.265 . S
O140 C139 1.227 . S
N141 Co138 2.121 . S
N141 C143 1.375 . S
N141 C144 1.313 . S
C142 C143 1.338 . S
C142 N145 1.377 . S
C142 H162 0.930 . S
C143 N141 1.375 . S
C143 C142 1.338 . S
C143 H147 0.931 . S
C144 N141 1.313 . S
C144 N145 1.344 . S
C144 H148 0.930 . S
N145 C142 1.377 . S
N145 C144 1.344 . S
O146 Co138 2.055 . S
O146 C150 1.253 . S
H147 C143 0.931 . S
H148 C144 0.930 . S
O149 Co138 2.039 . S
O149 C139 1.265 . S
C150 O146 1.253 . S
C150 O151 1.227 . S
O151 C150 1.227 . S
N152 Co138 2.140 . S
N152 C155 1.346 . S
N152 C156 1.345 . S
C153 C154 1.387 . S
C153 C157 1.391 . S
C154 C153 1.387 . S
C154 C155 1.369 . S
C154 H163 0.929 . S
C155 N152 1.346 . S
C155 C154 1.369 . S
C155 H158 0.928 . S
C156 N152 1.345 . S
C156 C157 1.371 . S
C156 H159 0.931 . S
C157 C153 1.391 . S
C157 C156 1.371 . S
C157 H164 0.930 . S
H158 C155 0.928 . S
H159 C156 0.931 . S
H160 C136 0.930 . S
H161 C133 0.930 . S
H162 C142 0.930 . S
H163 C154 0.929 . S
H164 C157 0.930 . S
C165 C166 1.351 . S
C165 N168 1.368 . S
C165 H170 0.931 . S
C166 C165 1.351 . S
C166 N167 1.373 . S
C166 H194 0.930 . S
N167 C166 1.373 . S
N167 C169 1.340 . S
N168 C165 1.368 . S
N168 C169 1.321 . S
N168 Co171 2.135 . S
C169 N167 1.340 . S
C169 N168 1.321 . S
C169 H193 0.930 . S
H170 C165 0.931 . S
Co171 N168 2.135 . S
Co171 N174 2.121 . S
Co171 O179 2.055 . S
Co171 O182 2.039 . S
Co171 N185 2.140 . S
C172 O173 1.227 . S
C172 O182 1.265 . S
O173 C172 1.227 . S
N174 Co171 2.121 . S
N174 C176 1.375 . S
N174 C177 1.313 . S
C175 C176 1.338 . S
C175 N178 1.377 . S
C175 H195 0.930 . S
C176 N174 1.375 . S
C176 C175 1.338 . S
C176 H180 0.931 . S
C177 N174 1.313 . S
C177 N178 1.344 . S
C177 H181 0.930 . S
N178 C175 1.377 . S
N178 C177 1.344 . S
O179 Co171 2.055 . S
O179 C183 1.253 . S
H180 C176 0.931 . S
H181 C177 0.930 . S
O182 Co171 2.039 . S
O182 C172 1.265 . S
C183 O179 1.253 . S
C183 O184 1.227 . S
O184 C183 1.227 . S
N185 Co171 2.140 . S
N185 C188 1.346 . S
N185 C189 1.345 . S
C186 C187 1.387 . S
C186 C190 1.391 . S
C187 C186 1.387 . S
C187 C188 1.369 . S
C187 H196 0.929 . S
C188 N185 1.346 . S
C188 C187 1.369 . S
C188 H191 0.928 . S
C189 N185 1.345 . S
C189 C190 1.371 . S
C189 H192 0.931 . S
C190 C186 1.391 . S
C190 C189 1.371 . S
C190 H197 0.930 . S
H191 C188 0.928 . S
H192 C189 0.931 . S
H193 C169 0.930 . S
H194 C166 0.930 . S
H195 C175 0.930 . S
H196 C187 0.929 . S
H197 C190 0.930 . S
C198 C199 1.351 . S
C198 N201 1.368 . S
C198 H203 0.931 . S
C199 C198 1.351 . S
C199 N200 1.373 . S
C199 H227 0.930 . S
N200 C199 1.373 . S
N200 C202 1.340 . S
N201 C198 1.368 . S
N201 C202 1.321 . S
N201 Co204 2.135 . S
C202 N200 1.340 . S
C202 N201 1.321 . S
C202 H226 0.930 . S
H203 C198 0.931 . S
Co204 N201 2.135 . S
Co204 N207 2.121 . S
Co204 O212 2.055 . S
Co204 O215 2.039 . S
Co204 N218 2.140 . S
C205 O206 1.227 . S
C205 O215 1.265 . S
O206 C205 1.227 . S
N207 Co204 2.121 . S
N207 C209 1.375 . S
N207 C210 1.313 . S
C208 C209 1.338 . S
C208 N211 1.377 . S
C208 H228 0.930 . S
C209 N207 1.375 . S
C209 C208 1.338 . S
C209 H213 0.931 . S
C210 N207 1.313 . S
C210 N211 1.344 . S
C210 H214 0.930 . S
N211 C208 1.377 . S
N211 C210 1.344 . S
O212 Co204 2.055 . S
O212 C216 1.253 . S
H213 C209 0.931 . S
H214 C210 0.930 . S
O215 Co204 2.039 . S
O215 C205 1.265 . S
C216 O212 1.253 . S
C216 O217 1.227 . S
O217 C216 1.227 . S
N218 Co204 2.140 . S
N218 C221 1.346 . S
N218 C222 1.345 . S
C219 C220 1.387 . S
C219 C223 1.391 . S
C220 C219 1.387 . S
C220 C221 1.369 . S
C220 H229 0.929 . S
C221 N218 1.346 . S
C221 C220 1.369 . S
C221 H224 0.928 . S
C222 N218 1.345 . S
C222 C223 1.371 . S
C222 H225 0.931 . S
C223 C219 1.391 . S
C223 C222 1.371 . S
C223 H230 0.930 . S
H224 C221 0.928 . S
H225 C222 0.931 . S
H226 C202 0.930 . S
H227 C199 0.930 . S
H228 C208 0.930 . S
H229 C220 0.929 . S
H230 C223 0.930 . S
C231 C232 1.351 . S
C231 N234 1.368 . S
C231 H236 0.931 . S
C232 C231 1.351 . S
C232 N233 1.373 . S
C232 H260 0.930 1_556 S
N233 C232 1.373 . S
N233 C235 1.340 . S
N234 C231 1.368 . S
N234 C235 1.321 . S
N234 Co237 2.135 . S
C235 N233 1.340 . S
C235 N234 1.321 . S
C235 H259 0.930 . S
H236 C231 0.931 . S
Co237 N234 2.135 . S
Co237 N240 2.121 . S
Co237 O245 2.055 . S
Co237 O248 2.039 . S
Co237 N251 2.140 . S
C238 O239 1.227 . S
C238 O248 1.265 . S
O239 C238 1.227 . S
N240 Co237 2.121 . S
N240 C242 1.375 . S
N240 C243 1.313 . S
C241 C242 1.338 . S
C241 N244 1.377 . S
C241 H261 0.930 . S
C242 N240 1.375 . S
C242 C241 1.338 . S
C242 H246 0.931 . S
C243 N240 1.313 . S
C243 N244 1.344 . S
C243 H247 0.930 . S
N244 C241 1.377 . S
N244 C243 1.344 . S
O245 Co237 2.055 . S
O245 C249 1.253 . S
H246 C242 0.931 . S
H247 C243 0.930 . S
O248 Co237 2.039 . S
O248 C238 1.265 . S
C249 O245 1.253 . S
C249 O250 1.227 . S
O250 C249 1.227 . S
N251 Co237 2.140 . S
N251 C254 1.346 . S
N251 C255 1.345 . S
C252 C253 1.387 . S
C252 C256 1.391 . S
C253 C252 1.387 . S
C253 C254 1.369 . S
C253 H262 0.929 . S
C254 N251 1.346 . S
C254 C253 1.369 . S
C254 H257 0.928 . S
C255 N251 1.345 . S
C255 C256 1.371 . S
C255 H258 0.931 . S
C256 C252 1.391 . S
C256 C255 1.371 . S
C256 H263 0.930 . S
H257 C254 0.928 . S
H258 C255 0.931 . S
H259 C235 0.930 . S
H260 C232 0.930 1_554 S
H261 C241 0.930 . S
H262 C253 0.929 . S
H263 C256 0.930 . S
C264 C265 1.363 . S
C264 C270 1.379 . S
C264 N272 1.356 . S
C265 C264 1.363 . S
C265 C271 1.363 . S
C266 C267 1.363 . S
C266 C271 1.379 . S
C266 N273 1.356 . S
C267 C266 1.363 . S
C267 C270 1.363 . S
N268 C270 1.356 . S
N268 H280 0.984 . S
N268 H281 0.985 . S
N269 C271 1.356 . S
N269 H274 0.984 . S
N269 H275 0.985 . S
C270 C264 1.379 . S
C270 C267 1.363 . S
C270 N268 1.356 . S
C271 C265 1.363 . S
C271 C266 1.379 . S
C271 N269 1.356 . S
N272 C264 1.356 . S
N272 H278 0.984 . S
N272 H279 0.984 . S
N273 C266 1.356 . S
N273 H276 0.984 . S
N273 H277 0.985 . S
H274 N269 0.984 . S
H275 N269 0.985 . S
H276 N273 0.984 . S
H277 N273 0.985 . S
H278 N272 0.984 . S
H279 N272 0.984 . S
H280 N268 0.984 . S
H281 N268 0.985 . S
C282 C283 1.363 1_556 S
C282 C288 1.379 . S
C282 N290 1.356 1_556 S
C283 C282 1.363 1_554 S
C283 C289 1.363 . S
C284 C285 1.363 . S
C284 C289 1.379 1_556 S
C284 N291 1.356 . S
C285 C284 1.363 . S
C285 C288 1.363 . S
N286 C288 1.356 . S
N286 H298 0.984 . S
N286 H299 0.985 . S
N287 C289 1.356 . S
N287 H292 0.984 . S
N287 H293 0.985 . S
C288 C282 1.379 . S
C288 C285 1.363 . S
C288 N286 1.356 . S
C289 C283 1.363 . S
C289 C284 1.379 1_554 S
C289 N287 1.356 . S
N290 C282 1.356 1_554 S
N290 H296 0.984 1_554 S
N290 H297 0.984 . S
N291 C284 1.356 . S
N291 H294 0.984 . S
N291 H295 0.985 1_556 S
H292 N287 0.984 . S
H293 N287 0.985 . S
H294 N291 0.984 . S
H295 N291 0.985 1_554 S
H296 N290 0.984 1_556 S
H297 N290 0.984 . S
H298 N286 0.984 . S
H299 N286 0.985 . S
C300 C301 1.363 . S
C300 C306 1.379 . S
C300 N308 1.356 . S
C301 C300 1.363 . S
C301 C307 1.363 . S
C302 C303 1.363 . S
C302 C307 1.379 . S
C302 N309 1.356 . S
C303 C302 1.363 . S
C303 C306 1.363 . S
N304 C306 1.356 . S
N304 H316 0.984 . S
N304 H317 0.985 . S
N305 C307 1.356 . S
N305 H310 0.984 . S
N305 H311 0.985 . S
C306 C300 1.379 . S
C306 C303 1.363 . S
C306 N304 1.356 . S
C307 C301 1.363 . S
C307 C302 1.379 . S
C307 N305 1.356 . S
N308 C300 1.356 . S
N308 H314 0.984 . S
N308 H315 0.984 . S
N309 C302 1.356 . S
N309 H312 0.984 . S
N309 H313 0.985 . S
H310 N305 0.984 . S
H311 N305 0.985 . S
H312 N309 0.984 . S
H313 N309 0.985 . S
H314 N308 0.984 . S
H315 N308 0.984 . S
H316 N304 0.984 . S
H317 N304 0.985 . S
C318 C319 1.363 1_554 S
C318 C324 1.379 . S
C318 N326 1.356 . S
C319 C318 1.363 1_556 S
C319 C325 1.363 . S
C320 C321 1.363 1_556 S
C320 C325 1.379 . S
C320 N327 1.356 . S
C321 C320 1.363 1_554 S
C321 C324 1.363 . S
N322 C324 1.356 . S
N322 H334 0.984 . S
N322 H335 0.985 . S
N323 C325 1.356 . S
N323 H328 0.984 . S
N323 H329 0.985 . S
C324 C318 1.379 . S
C324 C321 1.363 . S
C324 N322 1.356 . S
C325 C319 1.363 . S
C325 C320 1.379 . S
C325 N323 1.356 . S
N326 C318 1.356 . S
N326 H332 0.984 . S
N326 H333 0.984 1_554 S
N327 C320 1.356 . S
N327 H330 0.984 1_556 S
N327 H331 0.985 . S
H328 N323 0.984 . S
H329 N323 0.985 . S
H330 N327 0.984 1_554 S
H331 N327 0.985 . S
H332 N326 0.984 . S
H333 N326 0.984 1_556 S
H334 N322 0.984 . S
H335 N322 0.985 . S
C336 C337 1.363 . S
C336 C342 1.379 . S
C336 N344 1.356 . S
C337 C336 1.363 . S
C337 C343 1.363 . S
C338 C339 1.363 . S
C338 C343 1.379 . S
C338 N345 1.356 . S
C339 C338 1.363 . S
C339 C342 1.363 . S
N340 C342 1.356 . S
N340 H352 0.984 1_545 S
N340 H353 0.985 . S
N341 C343 1.356 . S
N341 H346 0.984 . S
N341 H347 0.985 . S
C342 C336 1.379 . S
C342 C339 1.363 . S
C342 N340 1.356 . S
C343 C337 1.363 . S
C343 C338 1.379 . S
C343 N341 1.356 . S
N344 C336 1.356 . S
N344 H350 0.984 1_545 S
N344 H351 0.984 . S
N345 C338 1.356 . S
N345 H348 0.984 . S
N345 H349 0.985 . S
H346 N341 0.984 . S
H347 N341 0.985 . S
H348 N345 0.984 . S
H349 N345 0.985 . S
H350 N344 0.984 1_565 S
H351 N344 0.984 . S
H352 N340 0.984 1_565 S
H353 N340 0.985 . S
C354 C355 1.363 . S
C354 C360 1.379 . S
C354 N362 1.356 . S
C355 C354 1.363 . S
C355 C361 1.363 . S
C356 C357 1.363 . S
C356 C361 1.379 . S
C356 N363 1.356 . S
C357 C356 1.363 . S
C357 C360 1.363 . S
N358 C360 1.356 . S
N358 H370 0.984 . S
N358 H371 0.985 . S
N359 C361 1.356 . S
N359 H364 0.984 . S
N359 H365 0.985 . S
C360 C354 1.379 . S
C360 C357 1.363 . S
C360 N358 1.356 . S
C361 C355 1.363 . S
C361 C356 1.379 . S
C361 N359 1.356 . S
N362 C354 1.356 . S
N362 H368 0.984 . S
N362 H369 0.984 . S
N363 C356 1.356 . S
N363 H366 0.984 . S
N363 H367 0.985 . S
H364 N359 0.984 . S
H365 N359 0.985 . S
H366 N363 0.984 . S
H367 N363 0.985 . S
H368 N362 0.984 . S
H369 N362 0.984 . S
H370 N358 0.984 . S
H371 N358 0.985 . S
C372 C373 1.363 . S
C372 C378 1.379 1_455 S
C372 N380 1.356 . S
C373 C372 1.363 . S
C373 C379 1.363 . S
C374 C375 1.363 . S
C374 C379 1.379 1_655 S
C374 N381 1.356 . S
C375 C374 1.363 . S
C375 C378 1.363 . S
N376 C378 1.356 . S
N376 H388 0.984 . S
N376 H389 0.985 . S
N377 C379 1.356 . S
N377 H382 0.984 . S
N377 H383 0.985 . S
C378 C372 1.379 1_655 S
C378 C375 1.363 . S
C378 N376 1.356 . S
C379 C373 1.363 . S
C379 C374 1.379 1_455 S
C379 N377 1.356 . S
N380 C372 1.356 . S
N380 H386 0.984 . S
N380 H387 0.984 . S
N381 C374 1.356 . S
N381 H384 0.984 . S
N381 H385 0.985 . S
H382 N377 0.984 . S
H383 N377 0.985 . S
H384 N381 0.984 . S
H385 N381 0.985 . S
H386 N380 0.984 . S
H387 N380 0.984 . S
H388 N376 0.984 . S
H389 N376 0.985 . S
C390 C391 1.363 . S
C390 C396 1.379 . S
C390 N398 1.356 . S
C391 C390 1.363 . S
C391 C397 1.363 1_455 S
C392 C393 1.363 . S
C392 C397 1.379 . S
C392 N399 1.356 . S
C393 C392 1.363 . S
C393 C396 1.363 1_655 S
N394 C396 1.356 . S
N394 H406 0.984 . S
N394 H407 0.985 1_455 S
N395 C397 1.356 . S
N395 H400 0.984 1_655 S
N395 H401 0.985 . S
C396 C390 1.379 . S
C396 C393 1.363 1_455 S
C396 N394 1.356 . S
C397 C391 1.363 1_655 S
C397 C392 1.379 . S
C397 N395 1.356 . S
N398 C390 1.356 . S
N398 H404 0.984 . S
N398 H405 0.984 . S
N399 C392 1.356 . S
N399 H402 0.984 . S
N399 H403 0.985 . S
H400 N395 0.984 1_455 S
H401 N395 0.985 . S
H402 N399 0.984 . S
H403 N399 0.985 . S
H404 N398 0.984 . S
H405 N398 0.984 . S
H406 N394 0.984 . S
H407 N394 0.985 1_655 S
C408 C409 1.363 . S
C408 C414 1.379 . S
C408 N416 1.356 . S
C409 C408 1.363 . S
C409 C415 1.363 . S
C410 C411 1.363 . S
C410 C415 1.379 . S
C410 N417 1.356 . S
C411 C410 1.363 . S
C411 C414 1.363 . S
N412 C414 1.356 . S
N412 H424 0.984 . S
N412 H425 0.985 . S
N413 C415 1.356 . S
N413 H418 0.984 . S
N413 H419 0.985 . S
C414 C408 1.379 . S
C414 C411 1.363 . S
C414 N412 1.356 . S
C415 C409 1.363 . S
C415 C410 1.379 . S
C415 N413 1.356 . S
N416 C408 1.356 . S
N416 H422 0.984 . S
N416 H423 0.984 . S
N417 C410 1.356 . S
N417 H420 0.984 . S
N417 H421 0.985 . S
H418 N413 0.984 . S
H419 N413 0.985 . S
H420 N417 0.984 . S
H421 N417 0.985 . S
H422 N416 0.984 . S
H423 N416 0.984 . S
H424 N412 0.984 . S
H425 N412 0.985 . S
C426 C427 1.363 . S
C426 C432 1.379 . S
C426 N434 1.356 . S
C427 C426 1.363 . S
C427 C433 1.363 . S
C428 C429 1.363 . S
C428 C433 1.379 . S
C428 N435 1.356 . S
C429 C428 1.363 . S
C429 C432 1.363 . S
N430 C432 1.356 . S
N430 H442 0.984 . S
N430 H443 0.985 . S
N431 C433 1.356 . S
N431 H436 0.984 . S
N431 H437 0.985 . S
C432 C426 1.379 . S
C432 C429 1.363 . S
C432 N430 1.356 . S
C433 C427 1.363 . S
C433 C428 1.379 . S
C433 N431 1.356 . S
N434 C426 1.356 . S
N434 H440 0.984 . S
N434 H441 0.993 . S
N435 C428 1.356 . S
N435 H438 0.984 . S
N435 H439 0.985 . S
H436 N431 0.984 . S
H437 N431 0.985 . S
H438 N435 0.984 . S
H439 N435 0.985 . S
H440 N434 0.984 . S
H441 N434 0.993 . S
H442 N430 0.984 . S
H443 N430 0.985 . S
C444 C445 1.363 . S
C444 C450 1.379 . S
C444 N452 1.356 . S
C445 C444 1.363 . S
C445 C451 1.363 . S
C446 C447 1.363 . S
C446 C451 1.379 . S
C446 N453 1.356 . S
C447 C446 1.363 . S
C447 C450 1.363 . S
N448 C450 1.356 . S
N448 H460 0.984 . S
N448 H461 0.985 . S
N449 C451 1.356 . S
N449 H454 0.984 . S
N449 H455 0.985 . S
C450 C444 1.379 . S
C450 C447 1.363 . S
C450 N448 1.356 . S
C451 C445 1.363 . S
C451 C446 1.379 . S
C451 N449 1.356 . S
N452 C444 1.356 . S
N452 H458 0.984 . S
N452 H459 0.984 . S
N453 C446 1.356 . S
N453 H456 0.984 . S
N453 H457 0.985 . S
H454 N449 0.984 . S
H455 N449 0.985 . S
H456 N453 0.984 . S
H457 N453 0.985 . S
H458 N452 0.984 . S
H459 N452 0.984 . S
H460 N448 0.984 . S
H461 N448 0.985 . S
C462 C463 1.363 . S
C462 C468 1.379 . S
C462 N470 1.356 . S
C463 C462 1.363 . S
C463 C469 1.363 . S
C464 C465 1.363 . S
C464 C469 1.379 . S
C464 N471 1.356 . S
C465 C464 1.363 . S
C465 C468 1.363 . S
N466 C468 1.356 . S
N466 H478 0.984 . S
N466 H479 0.985 . S
N467 C469 1.356 . S
N467 H472 0.984 . S
N467 H473 0.985 . S
C468 C462 1.379 . S
C468 C465 1.363 . S
C468 N466 1.356 . S
C469 C463 1.363 . S
C469 C464 1.379 . S
C469 N467 1.356 . S
N470 C462 1.356 . S
N470 H476 0.984 . S
N470 H477 0.984 . S
N471 C464 1.356 . S
N471 H474 0.984 . S
N471 H475 0.985 . S
H472 N467 0.984 . S
H473 N467 0.985 . S
H474 N471 0.984 . S
H475 N471 0.985 . S
H476 N470 0.984 . S
H477 N470 0.984 . S
H478 N466 0.984 . S
H479 N466 0.985 . S
C480 C481 1.363 . S
C480 C486 1.379 . S
C480 N488 1.356 . S
C481 C480 1.363 . S
C481 C487 1.363 . S
C482 C483 1.363 . S
C482 C487 1.379 . S
C482 N489 1.356 . S
C483 C482 1.363 . S
C483 C486 1.363 . S
N484 C486 1.356 . S
N484 H496 0.984 . S
N484 H497 0.985 . S
N485 C487 1.356 . S
N485 H490 0.984 . S
N485 H491 0.985 . S
C486 C480 1.379 . S
C486 C483 1.363 . S
C486 N484 1.356 . S
C487 C481 1.363 . S
C487 C482 1.379 . S
C487 N485 1.356 . S
N488 C480 1.356 . S
N488 H494 0.984 . S
N488 H495 0.984 . S
N489 C482 1.356 . S
N489 H492 0.984 . S
N489 H493 0.985 . S
H490 N485 0.984 . S
H491 N485 0.985 . S
H492 N489 0.984 . S
H493 N489 0.985 . S
H494 N488 0.984 . S
H495 N488 0.984 . S
H496 N484 0.984 . S
H497 N484 0.985 . S
C498 C499 1.363 . S
C498 C504 1.379 . S
C498 N506 1.356 . S
C499 C498 1.363 . S
C499 C505 1.363 . S
C500 C501 1.363 . S
C500 C505 1.379 . S
C500 N507 1.356 . S
C501 C500 1.363 . S
C501 C504 1.363 . S
N502 C504 1.356 . S
N502 H514 0.984 . S
N502 H515 0.985 . S
N503 C505 1.356 . S
N503 H508 0.984 . S
N503 H509 0.985 . S
C504 C498 1.379 . S
C504 C501 1.363 . S
C504 N502 1.356 . S
C505 C499 1.363 . S
C505 C500 1.379 . S
C505 N503 1.356 . S
N506 C498 1.356 . S
N506 H512 0.984 . S
N506 H513 0.984 . S
N507 C500 1.356 . S
N507 H510 0.984 . S
N507 H511 0.985 . S
H508 N503 0.984 . S
H509 N503 0.985 . S
H510 N507 0.984 . S
H511 N507 0.985 . S
H512 N506 0.984 . S
H513 N506 0.984 . S
H514 N502 0.984 . S
H515 N502 0.985 . S
C516 C517 1.363 . S
C516 C522 1.379 . S
C516 N524 1.356 . S
C517 C516 1.363 . S
C517 C523 1.363 . S
C518 C519 1.363 . S
C518 C523 1.379 . S
C518 N525 1.356 . S
C519 C518 1.363 . S
C519 C522 1.363 . S
N520 C522 1.356 . S
N520 H532 0.984 . S
N520 H533 0.985 . S
N521 C523 1.356 . S
N521 H526 0.984 . S
N521 H527 0.985 . S
C522 C516 1.379 . S
C522 C519 1.363 . S
C522 N520 1.356 . S
C523 C517 1.363 . S
C523 C518 1.379 . S
C523 N521 1.356 . S
N524 C516 1.356 . S
N524 H530 0.984 . S
N524 H531 0.984 . S
N525 C518 1.356 . S
N525 H528 0.984 . S
N525 H529 0.985 . S
H526 N521 0.984 . S
H527 N521 0.985 . S
H528 N525 0.984 . S
H529 N525 0.985 . S
H530 N524 0.984 . S
H531 N524 0.984 . S
H532 N520 0.984 . S
H533 N520 0.985 . S
C534 C535 1.363 . S
C534 C540 1.379 . S
C534 N542 1.356 . S
C535 C534 1.363 . S
C535 C541 1.363 . S
C536 C537 1.363 . S
C536 C541 1.379 . S
C536 N543 1.356 . S
C537 C536 1.363 . S
C537 C540 1.363 . S
N538 C540 1.356 . S
N538 H550 0.984 . S
N538 H551 0.985 . S
N539 C541 1.356 . S
N539 H544 0.984 . S
N539 H545 0.985 . S
C540 C534 1.379 . S
C540 C537 1.363 . S
C540 N538 1.356 . S
C541 C535 1.363 . S
C541 C536 1.379 . S
C541 N539 1.356 . S
N542 C534 1.356 . S
N542 H548 0.984 . S
N542 H549 0.984 . S
N543 C536 1.356 . S
N543 H546 0.984 . S
N543 H547 0.985 . S
H544 N539 0.984 . S
H545 N539 0.985 . S
H546 N543 0.984 . S
H547 N543 0.985 . S
H548 N542 0.984 . S
H549 N542 0.984 . S
H550 N538 0.984 . S
H551 N538 0.985 . S
C552 C553 1.363 . S
C552 C558 1.379 . S
C552 N560 1.356 . S
C553 C552 1.363 . S
C553 C559 1.363 . S
C554 C555 1.363 1_565 S
C554 C559 1.379 1_565 S
C554 N561 1.356 . S
C555 C554 1.363 1_545 S
C555 C558 1.363 . S
N556 C558 1.356 . S
N556 H568 0.984 . S
N556 H569 0.985 . S
N557 C559 1.356 1_565 S
N557 H562 0.984 1_565 S
N557 H563 0.985 . S
C558 C552 1.379 . S
C558 C555 1.363 . S
C558 N556 1.356 . S
C559 C553 1.363 . S
C559 C554 1.379 1_545 S
C559 N557 1.356 1_545 S
N560 C552 1.356 . S
N560 H566 0.984 . S
N560 H567 0.984 . S
N561 C554 1.356 . S
N561 H564 0.984 . S
N561 H565 0.985 . S
H562 N557 0.984 1_545 S
H563 N557 0.985 . S
H564 N561 0.984 . S
H565 N561 0.985 . S
H566 N560 0.984 . S
H567 N560 0.984 . S
H568 N556 0.984 . S
H569 N556 0.985 . S
C570 C571 1.363 . S
C570 C576 1.379 1_554 S
C570 N578 1.356 . S
C571 C570 1.363 . S
C571 C577 1.363 . S
C572 C573 1.363 1_564 S
C572 C577 1.379 1_565 S
C572 N579 1.356 . S
C573 C572 1.363 1_546 S
C573 C576 1.363 . S
N574 C576 1.356 . S
N574 H586 0.984 . S
N574 H587 0.985 . S
N575 C577 1.356 1_565 S
N575 H580 0.984 1_565 S
N575 H581 0.985 . S
C576 C570 1.379 1_556 S
C576 C573 1.363 . S
C576 N574 1.356 . S
C577 C571 1.363 . S
C577 C572 1.379 1_545 S
C577 N575 1.356 1_545 S
N578 C570 1.356 . S
N578 H584 0.984 1_554 S
N578 H585 0.984 . S
N579 C572 1.356 . S
N579 H582 0.984 1_554 S
N579 H583 0.985 . S
H580 N575 0.984 1_545 S
H581 N575 0.985 . S
H582 N579 0.984 1_556 S
H583 N579 0.985 . S
H584 N578 0.984 1_556 S
H585 N578 0.984 . S
H586 N574 0.984 . S
H587 N574 0.985 . S
C588 C589 1.363 . S
C588 C594 1.379 1_455 S
C588 N596 1.356 . S
C589 C588 1.363 . S
C589 C595 1.363 1_455 S
C590 C591 1.363 . S
C590 C595 1.379 . S
C590 N597 1.356 . S
C591 C590 1.363 . S
C591 C594 1.363 . S
N592 C594 1.356 . S
N592 H604 0.984 . S
N592 H605 0.985 . S
N593 C595 1.356 . S
N593 H598 0.984 1_655 S
N593 H599 0.985 . S
C594 C588 1.379 1_655 S
C594 C591 1.363 . S
C594 N592 1.356 . S
C595 C589 1.363 1_655 S
C595 C590 1.379 . S
C595 N593 1.356 . S
N596 C588 1.356 . S
N596 H602 0.984 . S
N596 H603 0.984 . S
N597 C590 1.356 . S
N597 H600 0.984 . S
N597 H601 0.985 . S
H598 N593 0.984 1_455 S
H599 N593 0.985 . S
H600 N597 0.984 . S
H601 N597 0.985 . S
H602 N596 0.984 . S
H603 N596 0.984 . S
H604 N592 0.984 . S
H605 N592 0.985 . S
C606 C607 1.363 . S
C606 C612 1.379 1_554 S
C606 N614 1.356 . S
C607 C606 1.363 . S
C607 C613 1.363 . S
C608 C609 1.363 . S
C608 C613 1.361 1_656 S
C608 N615 1.377 . S
C609 C608 1.363 . S
C609 C612 1.363 1_655 S
N610 C612 1.356 . S
N610 H622 0.984 . S
N610 H623 0.985 1_455 S
N611 C613 1.356 . S
N611 H616 0.984 . S
N611 H617 0.985 . S
C612 C606 1.379 1_556 S
C612 C609 1.363 1_455 S
C612 N610 1.356 . S
C613 C607 1.363 . S
C613 C608 1.361 1_454 S
C613 N611 1.356 . S
N614 C606 1.356 . S
N614 H620 0.984 . S
N614 H621 0.984 . S
N615 C608 1.377 . S
N615 H618 0.984 . S
N615 H619 0.985 . S
H616 N611 0.984 . S
H617 N611 0.985 . S
H618 N615 0.984 . S
H619 N615 0.985 . S
H620 N614 0.984 . S
H621 N614 0.984 . S
H622 N610 0.984 . S
H623 N610 0.985 1_655 S
C265 C216 1.657 . S
C267 N13 1.613 . S
C283 N46 1.613 . S
C285 C249 1.657 . S
C301 C84 1.657 . S
C303 N145 1.613 . S
C319 C117 1.657 . S
C321 N178 1.613 . S
C337 N35 1.305 . S
C339 N2 1.305 . S
C355 C73 1.443 . S
C357 C106 1.443 . S
C373 N167 1.305 . S
C375 N134 1.305 . S
C391 C205 1.443 . S
C393 C238 1.443 . S
C409 C183 1.457 . S
C411 C21 1.458 . S
C427 C54 1.458 . S
C429 C150 1.457 . S
C445 C87 1.383 . S
C447 N244 1.363 . S
C463 N211 1.363 . S
C465 C120 1.383 . S
C481 C153 1.458 . S
C483 C51 1.457 . S
C499 C186 1.458 . S
C501 C18 1.457 . S
C517 C219 1.383 . S
C519 N112 1.363 . S
C535 N79 1.363 . S
C537 C252 1.383 . S
C553 C7 1.546 . S
C555 N68 1.527 1_545 S
C571 C40 1.546 . S
C573 N101 1.527 1_545 S
C589 N200 1.527 . S
C591 C139 1.546 . S
C607 C172 1.546 . S
C609 N233 1.527 . S
