# Generated by pormake.
# Topology wlj, (5)-cn, num edge types: 1
# Building blocks:
#     Node 0, Type 0, BuildingBlock: XOMCOT_clean_sbu_1, # of connection points: 5
#     Node 1, Type 0, BuildingBlock: XOMCOT_clean_sbu_1, # of connection points: 5
#     Node 2, Type 0, BuildingBlock: XOMCOT_clean_sbu_1, # of connection points: 5
#     Node 3, Type 0, BuildingBlock: XOMCOT_clean_sbu_1, # of connection points: 5
#     Node 4, Type 0, BuildingBlock: XOMCOT_clean_sbu_1, # of connection points: 5
#     Node 5, Type 0, BuildingBlock: XOMCOT_clean_sbu_1, # of connection points: 5
#     Edge 6, Type (0, 0), BuildingBlock: MIFKUJ_clean_linker_0, # of connection points: 2
#     Edge 7, Type (0, 0), BuildingBlock: MIFKUJ_clean_linker_0, # of connection points: 2
#     Edge 8, Type (0, 0), BuildingBlock: MIFKUJ_clean_linker_0, # of connection points: 2
#     Edge 9, Type (0, 0), BuildingBlock: MIFKUJ_clean_linker_0, # of connection points: 2
#     Edge 10, Type (0, 0), BuildingBlock: MIFKUJ_clean_linker_0, # of connection points: 2
#     Edge 11, Type (0, 0), BuildingBlock: MIFKUJ_clean_linker_0, # of connection points: 2
#     Edge 12, Type (0, 0), BuildingBlock: MIFKUJ_clean_linker_0, # of connection points: 2
#     Edge 13, Type (0, 0), BuildingBlock: MIFKUJ_clean_linker_0, # of connection points: 2
#     Edge 14, Type (0, 0), BuildingBlock: MIFKUJ_clean_linker_0, # of connection points: 2
#     Edge 15, Type (0, 0), BuildingBlock: MIFKUJ_clean_linker_0, # of connection points: 2
#     Edge 16, Type (0, 0), BuildingBlock: MIFKUJ_clean_linker_0, # of connection points: 2
#     Edge 17, Type (0, 0), BuildingBlock: MIFKUJ_clean_linker_0, # of connection points: 2
#     Edge 18, Type (0, 0), BuildingBlock: MIFKUJ_clean_linker_0, # of connection points: 2
#     Edge 19, Type (0, 0), BuildingBlock: MIFKUJ_clean_linker_0, # of connection points: 2
#     Edge 20, Type (0, 0), BuildingBlock: MIFKUJ_clean_linker_0, # of connection points: 2
# Relax obj value: 0.123
# Max RMSD: 0.180
# Mean RMSD: 0.180
data_MOF--net-wlj--node1-XOMCOT_clean_sbu_1--edge1-MIFKUJ_clean_linker_0
_symmetry_space_group_name_H-M    P1
_symmetry_Int_Tables_number       1
_symmetry_cell_setting            triclinic
loop_
_symmetry_equiv_pos_as_xyz
'x, y, z'
_cell_length_a     32.037876
_cell_length_b     31.89564
_cell_length_c     70.092603
_cell_angle_alpha  90.080408
_cell_angle_beta   89.752851
_cell_angle_gamma 119.96585
loop_
_atom_site_label
_atom_site_type_symbol
_atom_site_fract_x
_atom_site_fract_y
_atom_site_fract_z
_atom_type_partial_charge
C0 C 0.64388 0.30124 0.28859 0.0
C1 C 0.64754 0.27066 0.30143 0.0
N2 N 0.60822 0.22638 0.2998 0.0
N3 N 0.60247 0.27658 0.27878 0.0
C4 C 0.5814 0.23103 0.28595 0.0
H5 H 0.67 0.33905 0.28638 0.0
Co6 Co 0.58139 0.30338 0.25977 0.0
C7 C 0.53979 0.21385 0.2344 0.0
O8 O 0.57807 0.23289 0.22343 0.0
N9 N 0.55861 0.32995 0.24073 0.0
C10 C 0.53686 0.34544 0.21263 0.0
C11 C 0.55395 0.31944 0.22189 0.0
C12 C 0.54439 0.36345 0.2424 0.0
N13 N 0.53065 0.37313 0.22547 0.0
O14 O 0.53188 0.29878 0.27709 0.0
H15 H 0.56444 0.2963 0.21482 0.0
H16 H 0.54406 0.38049 0.2557 0.0
O17 O 0.53724 0.23712 0.24895 0.0
C18 C 0.55345 0.33593 0.28792 0.0
O19 O 0.59956 0.36577 0.28484 0.0
N20 N 0.63563 0.31567 0.24426 0.0
C21 C 0.71952 0.34626 0.22257 0.0
C22 C 0.69859 0.30196 0.23236 0.0
C23 C 0.65704 0.28769 0.24346 0.0
C24 C 0.65898 0.361 0.23646 0.0
C25 C 0.6998 0.37631 0.22513 0.0
H26 H 0.64118 0.25339 0.25087 0.0
H27 H 0.64631 0.38614 0.23909 0.0
H28 H 0.54681 0.202 0.28127 0.0
H29 H 0.6774 0.28023 0.311 0.0
H30 H 0.53109 0.34522 0.19741 0.0
H31 H 0.71375 0.27837 0.23124 0.0
H32 H 0.71649 0.41202 0.21874 0.0
C33 C 0.72405 0.3575 0.95398 0.0
C34 C 0.75509 0.39058 0.96696 0.0
N35 N 0.79779 0.39195 0.9658 0.0
N36 N 0.74672 0.33782 0.94451 0.0
C37 C 0.79163 0.35942 0.95202 0.0
H38 H 0.68735 0.34884 0.95137 0.0
Co39 Co 0.7184 0.29234 0.92482 0.0
C40 C 0.79953 0.28694 0.90745 0.0
O41 O 0.77458 0.23956 0.90891 0.0
N42 N 0.68987 0.24712 0.90481 0.0
C43 C 0.67512 0.21641 0.8755 0.0
C44 C 0.70025 0.25764 0.88612 0.0
C45 C 0.65774 0.19898 0.90511 0.0
N46 N 0.64852 0.17935 0.88741 0.0
O47 O 0.71822 0.24296 0.94097 0.0
H48 H 0.72552 0.293 0.88052 0.0
H49 H 0.64253 0.17836 0.91804 0.0
O50 O 0.78209 0.31232 0.91407 0.0
C51 C 0.68111 0.22814 0.95173 0.0
O52 O 0.65407 0.24806 0.94958 0.0
N53 N 0.7129 0.33846 0.91036 0.0
C54 C 0.68866 0.39924 0.89073 0.0
C55 C 0.7368 0.4097 0.89145 0.0
C56 C 0.74838 0.37896 0.90162 0.0
C57 C 0.66624 0.32801 0.90982 0.0
C58 C 0.65331 0.35774 0.90009 0.0
H59 H 0.78555 0.38773 0.90245 0.0
H60 H 0.63879 0.29603 0.91702 0.0
H61 H 0.81917 0.35138 0.94747 0.0
H62 H 0.74695 0.4128 0.97619 0.0
H63 H 0.67655 0.21399 0.86013 0.0
H64 H 0.76516 0.44162 0.88451 0.0
H65 H 0.61569 0.34787 0.89971 0.0
C66 C 0.6739 0.38335 0.62129 0.0
C67 C 0.63759 0.37836 0.63325 0.0
N68 N 0.63462 0.41906 0.63234 0.0
N69 N 0.69406 0.42694 0.61273 0.0
C70 C 0.66953 0.44801 0.61978 0.0
H71 H 0.68444 0.35647 0.61873 0.0
Co72 Co 0.74307 0.44848 0.59425 0.0
C73 C 0.74197 0.53408 0.57896 0.0
O74 O 0.78761 0.56091 0.58354 0.0
N75 N 0.7914 0.46951 0.57551 0.0
C76 C 0.82641 0.4886 0.54701 0.0
C77 C 0.7846 0.47483 0.55689 0.0
C78 C 0.83781 0.47994 0.57656 0.0
N79 N 0.86018 0.49208 0.55933 0.0
O80 O 0.78718 0.49893 0.61122 0.0
H81 H 0.75094 0.46827 0.55076 0.0
H82 H 0.85469 0.47844 0.58968 0.0
O83 O 0.71983 0.48896 0.58291 0.0
C84 C 0.80175 0.48018 0.62379 0.0
O85 O 0.78366 0.43305 0.62374 0.0
N86 N 0.70295 0.39615 0.57876 0.0
C87 C 0.65415 0.31177 0.55725 0.0
C88 C 0.6393 0.34647 0.5571 0.0
C89 C 0.66405 0.38855 0.56821 0.0
C90 C 0.71758 0.36281 0.57906 0.0
C91 C 0.69386 0.32053 0.56843 0.0
H92 H 0.65206 0.41472 0.56827 0.0
H93 H 0.74834 0.36948 0.58761 0.0
H94 H 0.67714 0.48385 0.61571 0.0
H95 H 0.61436 0.34643 0.64154 0.0
H96 H 0.8309 0.49414 0.53174 0.0
H97 H 0.60859 0.34081 0.54872 0.0
H98 H 0.70702 0.29517 0.56877 0.0
C99 C 0.30027 0.64493 0.74231 0.0
C100 C 0.2681 0.65116 0.73144 0.0
N101 N 0.22472 0.61057 0.73259 0.0
N102 N 0.27745 0.60055 0.75031 0.0
C103 C 0.23138 0.58046 0.74415 0.0
H104 H 0.33818 0.67079 0.74401 0.0
Co105 Co 0.30656 0.5733 0.76505 0.0
C106 C 0.23888 0.52529 0.79685 0.0
O107 O 0.27678 0.5441 0.80804 0.0
N108 N 0.33532 0.54385 0.77943 0.0
C109 C 0.34124 0.4817 0.79063 0.0
C110 C 0.31261 0.49516 0.78114 0.0
C111 C 0.3786 0.55904 0.78794 0.0
N112 N 0.38289 0.52183 0.79502 0.0
O113 O 0.29253 0.52509 0.74568 0.0
H114 H 0.27736 0.47053 0.77542 0.0
H115 H 0.40689 0.59628 0.78878 0.0
O116 O 0.24452 0.53288 0.7788 0.0
C117 C 0.32607 0.54464 0.73318 0.0
O118 O 0.3564 0.59137 0.73443 0.0
N119 N 0.32644 0.62492 0.78248 0.0
C120 C 0.36898 0.71164 0.80314 0.0
C121 C 0.31878 0.68045 0.80352 0.0
C122 C 0.29805 0.63772 0.7927 0.0
C123 C 0.37465 0.65625 0.78107 0.0
C124 C 0.3968 0.69886 0.79164 0.0
H125 H 0.25927 0.61596 0.79209 0.0
H126 H 0.39605 0.64866 0.77121 0.0
H127 H 0.20366 0.54386 0.74754 0.0
H128 H 0.27609 0.6831 0.72326 0.0
H129 H 0.33246 0.44483 0.79343 0.0
H130 H 0.29559 0.68978 0.81153 0.0
H131 H 0.43552 0.72176 0.79058 0.0
C132 C 0.38975 0.67322 0.40616 0.0
C133 C 0.38501 0.6367 0.39433 0.0
N134 N 0.42196 0.6287 0.39753 0.0
N135 N 0.4297 0.68886 0.4168 0.0
C136 C 0.44868 0.66114 0.41121 0.0
H137 H 0.36511 0.68705 0.40717 0.0
Co138 Co 0.44836 0.73606 0.43594 0.0
C139 C 0.53337 0.73659 0.45217 0.0
O140 O 0.55917 0.78294 0.44815 0.0
N141 N 0.46663 0.78264 0.45538 0.0
C142 C 0.4825 0.81489 0.48436 0.0
C143 C 0.4672 0.77324 0.47409 0.0
C144 C 0.48173 0.83057 0.45465 0.0
N145 N 0.49211 0.85135 0.47218 0.0
O146 O 0.49965 0.78299 0.41976 0.0
H147 H 0.45725 0.73814 0.47998 0.0
H148 H 0.4855 0.84983 0.44151 0.0
O149 O 0.48894 0.71332 0.44753 0.0
C150 C 0.48156 0.79947 0.4077 0.0
O151 O 0.4347 0.78166 0.4078 0.0
N152 N 0.39516 0.69306 0.45053 0.0
C153 C 0.30985 0.63941 0.47111 0.0
C154 C 0.34484 0.62507 0.47054 0.0
C155 C 0.38734 0.65227 0.45992 0.0
C156 C 0.36137 0.707 0.45075 0.0
C157 C 0.3187 0.68095 0.46099 0.0
H158 H 0.41367 0.64062 0.45927 0.0
H159 H 0.36808 0.73914 0.44303 0.0
H160 H 0.48075 0.66383 0.41743 0.0
H161 H 0.35632 0.61765 0.38415 0.0
H162 H 0.48569 0.81755 0.49972 0.0
H163 H 0.33912 0.59289 0.478 0.0
H164 H 0.29313 0.69378 0.46118 0.0
C165 C 0.35181 0.72434 0.07073 0.0
C166 C 0.38746 0.75681 0.05885 0.0
N167 N 0.39484 0.80151 0.06258 0.0
N168 N 0.33597 0.74788 0.08192 0.0
C169 C 0.36282 0.79495 0.07664 0.0
H170 H 0.33864 0.68586 0.07134 0.0
Co171 Co 0.28918 0.71651 0.10098 0.0
C172 C 0.28146 0.79536 0.11915 0.0
O173 O 0.23483 0.771 0.11602 0.0
N174 N 0.24295 0.68452 0.12021 0.0
C175 C 0.2102 0.66124 0.14903 0.0
C176 C 0.25067 0.69326 0.13911 0.0
C177 C 0.19728 0.64696 0.11902 0.0
N178 N 0.17666 0.63212 0.13641 0.0
O179 O 0.24102 0.71906 0.0852 0.0
H180 H 0.28386 0.72106 0.14534 0.0
H181 H 0.17983 0.62999 0.10576 0.0
O182 O 0.30786 0.77847 0.1132 0.0
C183 C 0.22585 0.68471 0.07302 0.0
O184 O 0.24518 0.65683 0.07294 0.0
N185 N 0.33369 0.70848 0.1152 0.0
C186 C 0.38795 0.67783 0.13574 0.0
C187 C 0.39879 0.72635 0.13661 0.0
C188 C 0.37129 0.7412 0.12601 0.0
C189 C 0.32339 0.66175 0.11395 0.0
C190 C 0.34975 0.64561 0.12412 0.0
H191 H 0.37976 0.77848 0.12674 0.0
H192 H 0.2935 0.63652 0.10524 0.0
H193 H 0.35975 0.82391 0.0833 0.0
H194 H 0.40626 0.74777 0.04823 0.0
H195 H 0.20561 0.65977 0.16438 0.0
H196 H 0.42815 0.75245 0.14533 0.0
H197 H 0.33928 0.60771 0.12325 0.0
H198 H 0.50263 0.20153 0.19937 0.0
H199 H 0.44687 0.12584 0.18379 0.0
H200 H 0.42746 0.0491 0.23672 0.0
H201 H 0.4847 0.12596 0.25243 0.0
H202 H 0.44593 1.0049 0.20851 0.0
H203 H 0.33352 0.05824 0.21673 0.0
H204 H 0.30249 0.11508 0.2165 0.0
H205 H 0.32077 0.12965 0.1557 0.0
H206 H 0.35259 0.07344 0.15557 0.0
H207 H 0.23271 0.82591 0.14216 0.0
H208 H 0.26608 0.89178 0.16535 0.0
H209 H 0.40996 0.92853 0.14824 0.0
H210 H 0.37669 0.86145 0.12548 0.0
H211 H 0.31673 0.98362 0.16403 0.0
H212 H 0.48781 0.97437 0.18448 0.0
H213 H 0.51309 0.91305 0.18655 0.0
H214 H 0.36592 0.80148 0.19462 0.0
H215 H 0.33983 0.86219 0.19292 0.0
C216 C 0.48541 0.16871 0.20785 0.0
C217 C 0.4975 0.16959 0.22714 0.0
C218 C 0.45341 0.12535 0.19892 0.0
C219 C 0.43243 0.08153 0.20905 0.0
C220 C 0.44299 0.08244 0.22861 0.0
C221 C 0.47516 0.12631 0.23764 0.0
C222 C 0.40308 0.03513 0.19851 0.0
C223 C 0.41733 1.00002 0.19894 0.0
C224 C 0.36505 0.02803 0.18623 0.0
C225 C 0.34568 0.06174 0.18617 0.0
C226 C 0.33122 0.07379 0.20332 0.0
C227 C 0.31345 0.10588 0.20325 0.0
C228 C 0.30972 0.12601 0.1861 0.0
C229 C 0.32367 0.11402 0.16897 0.0
C230 C 0.3415 0.08196 0.16896 0.0
C231 C 0.27149 0.84811 0.14325 0.0
C232 C 0.30201 0.83816 0.132 0.0
C233 C 0.29057 0.88586 0.15657 0.0
C234 C 0.34063 0.91481 0.15891 0.0
C235 C 0.37121 0.90603 0.14716 0.0
C236 C 0.35214 0.86785 0.13401 0.0
C237 C 0.36078 0.95427 0.17351 0.0
C238 C 0.34483 0.98807 0.17379 0.0
C239 C 0.39633 0.95945 0.1868 0.0
C240 C 0.41186 0.92285 0.18842 0.0
C241 C 0.46088 0.93681 0.18684 0.0
C242 C 0.47534 0.90214 0.18791 0.0
C243 C 0.44112 0.85339 0.19065 0.0
C244 C 0.39238 0.83923 0.19244 0.0
C245 C 0.37774 0.87376 0.19142 0.0
H246 H 0.45237 0.82659 0.19142 0.0
H247 H 0.29596 0.15086 0.18608 0.0
H248 H 0.15451 0.44748 0.78383 0.0
H249 H 0.07729 0.40436 0.80106 0.0
H250 H 0.13728 0.50783 0.84703 0.0
H251 H 0.21441 0.5486 0.83046 0.0
H252 H 0.0925 0.427 0.86225 0.0
H253 H 0.05037 0.50143 0.81219 0.0
H254 H 0.04253 0.5209 0.77882 0.0
H255 H 0.9468 0.37031 0.76722 0.0
H256 H 0.95461 0.34984 0.80048 0.0
H257 H 0.87242 0.38152 0.90807 0.0
H258 H 0.94438 0.42 0.88757 0.0
H259 H 0.89785 0.2843 0.85884 0.0
H260 H 0.82664 0.24526 0.87959 0.0
H261 H 0.93235 0.37629 0.83419 0.0
H262 H 0.97759 0.30603 0.88609 0.0
H263 H 0.98605 0.29221 0.92012 0.0
H264 H 0.07686 0.44513 0.9286 0.0
H265 H 0.06835 0.45988 0.89466 0.0
C266 C 0.15084 0.46098 0.79755 0.0
C267 C 0.1905 0.50112 0.80587 0.0
C268 C 0.10664 0.43651 0.8074 0.0
C269 C 0.10094 0.45278 0.82544 0.0
C270 C 0.14043 0.49393 0.83332 0.0
C271 C 0.18463 0.51742 0.82377 0.0
C272 C 0.05499 0.42653 0.83665 0.0
C273 C 0.05771 0.41661 0.85603 0.0
C274 C 1.00902 0.41181 0.82869 0.0
C275 C 1.00347 0.42405 0.80878 0.0
C276 C 0.02784 0.47243 0.8025 0.0
C277 C 0.0234 0.48365 0.78361 0.0
C278 C 0.99429 0.44685 0.7709 0.0
C279 C 0.96939 0.39876 0.77708 0.0
C280 C 0.97379 0.38733 0.79596 0.0
C281 C 0.87765 0.35984 0.89745 0.0
C282 C 0.84405 0.31023 0.8956 0.0
C283 C 0.91862 0.38191 0.88569 0.0
C284 C 0.92627 0.35505 0.87159 0.0
C285 C 0.89249 0.30572 0.86954 0.0
C286 C 0.85208 0.2834 0.88155 0.0
C287 C 0.97065 0.37804 0.85961 0.0
C288 C 0.96742 0.387 0.8402 0.0
C289 C 0.01637 0.39293 0.86756 0.0
C290 C 0.02193 0.38407 0.8879 0.0
C291 C 0.99902 0.33672 0.89526 0.0
C292 C 1.00389 0.32872 0.91451 0.0
C293 C 0.03187 0.36778 0.92653 0.0
C294 C 0.05515 0.41492 0.91929 0.0
C295 C 0.05035 0.42311 0.90004 0.0
H296 H 0.03559 0.36151 0.94144 0.0
H297 H 0.99094 0.45564 0.75628 0.0
H298 H 0.62507 0.77705 0.46623 0.0
H299 H 0.6581 0.74019 0.48738 0.0
H300 H 0.52276 0.60597 0.48634 0.0
H301 H 0.48932 0.64267 0.46517 0.0
H302 H 0.55684 0.62929 0.52245 0.0
H303 H 0.61902 0.61629 0.46208 0.0
H304 H 0.66055 0.64486 0.43112 0.0
H305 H 0.79116 0.74452 0.45987 0.0
H306 H 0.7502 0.71698 0.49101 0.0
H307 H 0.64814 0.48939 0.56665 0.0
H308 H 0.61129 0.52165 0.54506 0.0
H309 H 0.74447 0.65798 0.54293 0.0
H310 H 0.7819 0.62565 0.56416 0.0
H311 H 0.70905 0.63037 0.50792 0.0
H312 H 0.64521 0.64283 0.56858 0.0
H313 H 0.60298 0.61215 0.59929 0.0
H314 H 0.47434 0.51129 0.56974 0.0
H315 H 0.51604 0.54088 0.53883 0.0
C316 C 0.60233 0.73956 0.47034 0.0
C317 C 0.5544 0.71294 0.46396 0.0
C318 C 0.62136 0.71846 0.48245 0.0
C319 C 0.59306 0.67015 0.48843 0.0
C320 C 0.54531 0.64332 0.48198 0.0
C321 C 0.52627 0.66437 0.4698 0.0
C322 C 0.61318 0.64811 0.50167 0.0
C323 C 0.58975 0.62888 0.51915 0.0
C324 C 0.65659 0.64827 0.49757 0.0
C325 C 0.6814 0.66489 0.47888 0.0
C326 C 0.65649 0.64458 0.4618 0.0
C327 C 0.67995 0.66053 0.44422 0.0
C328 C 0.72843 0.69657 0.44353 0.0
C329 C 0.75359 0.71665 0.46043 0.0
C330 C 0.73028 0.70084 0.47805 0.0
C331 C 0.66961 0.5263 0.56166 0.0
C332 C 0.71813 0.55479 0.56714 0.0
C333 C 0.64835 0.54483 0.54937 0.0
C334 C 0.67494 0.59244 0.54239 0.0
C335 C 0.72317 0.62114 0.54805 0.0
C336 C 0.74447 0.60262 0.56031 0.0
C337 C 0.65304 0.61202 0.52882 0.0
C338 C 0.67612 0.63072 0.51124 0.0
C339 C 0.60921 0.61118 0.53282 0.0
C340 C 0.58391 0.59375 0.55139 0.0
C341 C 0.60802 0.61387 0.56863 0.0
C342 C 0.58416 0.59671 0.58607 0.0
C343 C 0.53605 0.5597 0.58647 0.0
C344 C 0.51164 0.5399 0.56941 0.0
C345 C 0.53535 0.55688 0.55192 0.0
H346 H 0.51766 0.54643 0.59999 0.0
H347 H 0.74654 0.70888 0.4299 0.0
H348 H 0.41792 0.69848 0.17308 0.0
H349 H 0.4484 0.65638 0.1931 0.0
H350 H 0.44534 0.5716 0.14466 0.0
H351 H 0.41698 0.61442 0.12448 0.0
H352 H 0.38469 0.52341 0.18271 0.0
H353 H 0.54292 0.63347 0.1542 0.0
H354 H 0.61147 0.71501 0.14774 0.0
H355 H 0.63182 0.74321 0.2079 0.0
H356 H 0.56284 0.66198 0.21469 0.0
H357 H 0.46753 0.36337 0.19817 0.0
H358 H 0.44684 0.4232 0.18787 0.0
H359 H 0.53405 0.51908 0.2329 0.0
H360 H 0.55782 0.45969 0.24239 0.0
H361 H 0.55038 0.56983 0.20305 0.0
H362 H 0.39841 0.46256 0.23288 0.0
H363 H 0.32842 0.38315 0.24129 0.0
H364 H 0.29204 0.3538 0.18203 0.0
H365 H 0.36236 0.43253 0.17333 0.0
C366 C 0.42517 0.67194 0.16658 0.0
C367 C 0.4143 0.65928 0.14724 0.0
C368 C 0.44231 0.64779 0.17805 0.0
C369 C 0.44872 0.61076 0.17032 0.0
C370 C 0.4404 0.59997 0.15087 0.0
C371 C 0.42393 0.62432 0.1394 0.0
C372 C 0.4591 0.57946 0.18263 0.0
C373 C 0.42087 0.53344 0.18721 0.0
C374 C 0.50594 0.59338 0.18905 0.0
C375 C 0.54733 0.64201 0.18494 0.0
C376 C 0.56164 0.65728 0.16604 0.0
C377 C 0.60066 0.70337 0.16232 0.0
C378 C 0.62587 0.73435 0.1774 0.0
C379 C 0.61219 0.71923 0.19623 0.0
C380 C 0.57315 0.67317 0.20002 0.0
C381 C 0.48221 0.39708 0.20597 0.0
C382 C 0.51418 0.40671 0.22118 0.0
C383 C 0.46964 0.43114 0.20026 0.0
C384 C 0.4876 0.47545 0.2099 0.0
C385 C 0.51918 0.48504 0.22531 0.0
C386 C 0.5323 0.45091 0.23091 0.0
C387 C 0.476 0.51254 0.20274 0.0
C388 C 0.51389 0.55981 0.19906 0.0
C389 C 0.42852 0.50012 0.19741 0.0
C390 C 0.38608 0.45289 0.2025 0.0
C391 C 0.37589 0.4387 0.22168 0.0
C392 C 0.33609 0.39398 0.22649 0.0
C393 C 0.30598 0.36335 0.2122 0.0
C394 C 0.31547 0.37749 0.19308 0.0
C395 C 0.35525 0.42218 0.18821 0.0
H396 H 0.27517 0.32875 0.21595 0.0
H397 H 0.65608 0.77001 0.17449 0.0
H398 H 0.34722 0.73035 0.83914 0.0
H399 H 0.39003 0.80614 0.85726 0.0
H400 H 0.48726 0.87325 0.80989 0.0
H401 H 0.44414 0.79887 0.79155 0.0
H402 H 0.53415 0.88508 0.8449 0.0
H403 H 0.40284 0.90071 0.81822 0.0
H404 H 0.31713 0.87435 0.81303 0.0
H405 H 0.29585 0.87743 0.87344 0.0
H406 H 0.38138 0.90319 0.879 0.0
H407 H 0.66111 0.13466 0.85696 0.0
H408 H 0.60948 0.05164 0.84671 0.0
H409 H 0.51665 0.02581 0.89531 0.0
H410 H 0.56817 0.11016 0.90549 0.0
H411 H 0.4638 0.98552 0.86553 0.0
H412 H 0.59619 0.97853 0.89244 0.0
H413 H 0.68108 1.00313 0.89846 0.0
H414 H 0.70011 0.98054 0.8394 0.0
H415 H 0.61542 0.95649 0.83299 0.0
C416 C 0.37727 0.76147 0.83248 0.0
C417 C 0.39255 0.75815 0.81395 0.0
C418 C 0.40182 0.80465 0.8429 0.0
C419 C 0.44207 0.84518 0.83496 0.0
C420 C 0.45668 0.84224 0.81637 0.0
C421 C 0.43204 0.79947 0.80594 0.0
C422 C 0.47003 0.89072 0.84593 0.0
C423 C 0.51891 0.90723 0.84935 0.0
C424 C 0.4496 0.91857 0.85239 0.0
C425 C 0.39831 0.90327 0.84904 0.0
C426 C 0.37977 0.89533 0.83041 0.0
C427 C 0.33126 0.88059 0.8274 0.0
C428 C 0.30102 0.87406 0.8429 0.0
C429 C 0.31929 0.8824 0.86145 0.0
C430 C 0.36778 0.89709 0.86453 0.0
C431 C 0.62972 0.11152 0.86551 0.0
C432 C 0.61879 0.1292 0.88206 0.0
C433 C 0.60046 0.06365 0.85975 0.0
C434 C 0.55977 0.0318 0.87051 0.0
C435 C 0.54836 0.04937 0.88697 0.0
C436 C 0.57789 0.09749 0.89282 0.0
C437 C 0.52864 0.98091 0.86398 0.0
C438 C 0.4791 0.9632 0.86143 0.0
C439 C 0.54838 0.95159 0.85848 0.0
C440 C 0.59944 0.96604 0.86224 0.0
C441 C 0.61853 0.97918 0.88072 0.0
C442 C 0.66663 0.99297 0.8842 0.0
C443 C 0.69602 0.9935 0.86931 0.0
C444 C 0.67731 0.98014 0.85092 0.0
C445 C 0.62922 0.96636 0.84737 0.0
H446 H 0.73325 1.00417 0.87203 0.0
H447 H 0.26347 0.86266 0.84054 0.0
H448 H 0.91169 0.54264 0.52839 0.0
H449 H 0.98978 0.55595 0.51801 0.0
H450 H 1.00032 0.48578 0.56875 0.0
H451 H 0.92039 0.47029 0.57908 0.0
H452 H 0.08939 0.5823 0.55531 0.0
H453 H 0.97711 0.42013 0.53537 0.0
H454 H 0.90121 0.35693 0.5212 0.0
H455 H 0.93923 0.43333 0.46783 0.0
H456 H 1.015 0.49742 0.48177 0.0
H457 H 0.29707 0.60216 0.50743 0.0
H458 H 0.22267 0.56572 0.52654 0.0
H459 H 0.14605 0.58058 0.47894 0.0
H460 H 0.21935 0.61524 0.45975 0.0
H461 H 0.09109 0.49783 0.49604 0.0
H462 H 0.19222 0.66435 0.51605 0.0
H463 H 0.26597 0.7334 0.5291 0.0
H464 H 0.2479 0.65455 0.58099 0.0
H465 H 0.17433 0.58476 0.56812 0.0
C466 C 0.93005 0.52949 0.53737 0.0
C467 C 0.90891 0.50434 0.55442 0.0
C468 C 0.97505 0.53758 0.53144 0.0
C469 C 1.00049 0.52136 0.54249 0.0
C470 C 0.98104 0.49843 0.56001 0.0
C471 C 0.93542 0.48974 0.5659 0.0
C472 C 0.04634 0.52708 0.53494 0.0
C473 C 0.09 0.56295 0.54267 0.0
C474 C 0.04687 0.50255 0.5182 0.0
C475 C 1.00163 0.46372 0.50966 0.0
C476 C 0.96913 0.42364 0.52065 0.0
C477 C 0.92615 0.38762 0.51266 0.0
C478 C 0.91538 0.39114 0.49364 0.0
C479 C 0.94762 0.43064 0.48256 0.0
C480 C 0.99063 0.46679 0.4905 0.0
C481 C 0.26408 0.5967 0.50097 0.0
C482 C 0.26422 0.61211 0.48215 0.0
C483 C 0.2217 0.5763 0.51195 0.0
C484 C 0.17883 0.57108 0.50429 0.0
C485 C 0.17858 0.58433 0.48522 0.0
C486 C 0.22068 0.60453 0.4743 0.0
C487 C 0.13448 0.55407 0.51609 0.0
C488 C 0.09088 0.5162 0.50905 0.0
C489 C 0.13405 0.57727 0.53331 0.0
C490 C 0.17821 0.61914 0.54103 0.0
C491 C 0.20422 0.66161 0.53018 0.0
C492 C 0.24594 0.7009 0.53755 0.0
C493 C 0.26171 0.6983 0.55584 0.0
C494 C 0.23571 0.65646 0.56681 0.0
C495 C 0.19401 0.61703 0.55949 0.0
H496 H 0.294 0.72876 0.56152 0.0
H497 H 0.88207 0.36324 0.48747 0.0
H498 H 0.71552 0.43703 0.85466 0.0
H499 H 0.68188 0.47814 0.83592 0.0
H500 H 0.59383 0.47027 0.88406 0.0
H501 H 0.62805 0.43062 0.90283 0.0
H502 H 0.5911 0.44085 0.82544 0.0
H503 H 0.56679 0.55786 0.88374 0.0
H504 H 0.61145 0.6083 0.91128 0.0
H505 H 0.74454 0.63181 0.8868 0.0
H506 H 0.70081 0.58211 0.85897 0.0
H507 H 0.38164 0.45312 0.81814 0.0
H508 H 0.45042 0.45078 0.83133 0.0
H509 H 0.54635 0.59156 0.80762 0.0
H510 H 0.47737 0.5936 0.79351 0.0
H511 H 0.56454 0.5733 0.84806 0.0
H512 H 0.54819 0.51243 0.78501 0.0
H513 H 0.50273 0.46347 0.75733 0.0
H514 H 0.4577 0.33324 0.78952 0.0
H515 H 0.50169 0.3815 0.81762 0.0
C516 C 0.68996 0.44531 0.86136 0.0
C517 C 0.67419 0.43034 0.88017 0.0
C518 C 0.67053 0.4685 0.85061 0.0
C519 C 0.63549 0.47763 0.85858 0.0
C520 C 0.62134 0.46446 0.87764 0.0
C521 C 0.6406 0.44131 0.88832 0.0
C522 C 0.60989 0.4963 0.84669 0.0
C523 C 0.58601 0.47034 0.83024 0.0
C524 C 0.60372 0.53533 0.85272 0.0
C525 C 0.63042 0.56603 0.86928 0.0
C526 C 0.60562 0.57407 0.88415 0.0
C527 C 0.63077 0.60247 0.89984 0.0
C528 C 0.68079 0.62318 0.9008 0.0
C529 C 0.70578 0.61564 0.88605 0.0
C530 C 0.68081 0.5873 0.87033 0.0
C531 C 0.4172 0.48357 0.81549 0.0
C532 C 0.42371 0.52316 0.80437 0.0
C533 C 0.45653 0.48227 0.82321 0.0
C534 C 0.50341 0.52072 0.82027 0.0
C535 C 0.51033 0.56147 0.81 0.0
C536 C 0.47079 0.56259 0.802 0.0
C537 C 0.54461 0.5165 0.82745 0.0
C538 C 0.57094 0.54481 0.84303 0.0
C539 C 0.55357 0.48006 0.8205 0.0
C540 C 0.52803 0.45067 0.80349 0.0
C541 C 0.52828 0.47336 0.78625 0.0
C542 C 0.50274 0.44573 0.77049 0.0
C543 C 0.47731 0.39526 0.77167 0.0
C544 C 0.47741 0.37234 0.78863 0.0
C545 C 0.50262 0.39984 0.8045 0.0
H546 H 0.45763 0.37392 0.75942 0.0
H547 H 0.70018 0.64511 0.91297 0.0
H548 H 0.62661 0.22054 0.56922 0.0
H549 H 0.59863 0.14803 0.54974 0.0
H550 H 0.59789 0.22724 0.50006 0.0
H551 H 0.62647 0.30068 0.51963 0.0
H552 H 0.51803 0.12908 0.50221 0.0
H553 H 0.68937 0.21381 0.50392 0.0
H554 H 0.76933 0.25855 0.51897 0.0
H555 H 0.7376 0.1338 0.55275 0.0
H556 H 0.65711 0.08853 0.53812 0.0
H557 H 0.49352 0.92299 0.45015 0.0
H558 H 0.52271 1.00708 0.45957 0.0
H559 H 0.55932 0.97783 0.51509 0.0
H560 H 0.53341 0.89553 0.50571 0.0
H561 H 0.6276 0.06112 0.50316 0.0
H562 H 0.45156 0.98165 0.50449 0.0
H563 H 0.37109 0.93804 0.48972 0.0
H564 H 0.41259 0.05395 0.44957 0.0
H565 H 0.49354 0.09789 0.46394 0.0
C566 C 0.62008 0.2225 0.55418 0.0
C567 C 0.62945 0.26647 0.54588 0.0
C568 C 0.60403 0.18102 0.54307 0.0
C569 C 0.59709 0.18252 0.5234 0.0
C570 C 0.60328 0.22545 0.51522 0.0
C571 C 0.61944 0.26726 0.5264 0.0
C572 C 0.5866 0.1398 0.51152 0.0
C573 C 0.5423 0.1146 0.50206 0.0
C574 C 0.61836 0.12103 0.51133 0.0
C575 C 0.66706 0.14785 0.51999 0.0
C576 C 0.69931 0.196 0.51464 0.0
C577 C 0.74475 0.22145 0.52309 0.0
C578 C 0.75851 0.19905 0.53683 0.0
C579 C 0.72689 0.1511 0.54211 0.0
C580 C 0.68137 0.1255 0.53372 0.0
C581 C 0.50817 0.93441 0.4643 0.0
C582 C 0.51016 0.9016 0.47721 0.0
C583 C 0.52443 0.98251 0.4697 0.0
C584 C 0.54238 0.99866 0.48812 0.0
C585 C 0.5454 0.96635 0.50081 0.0
C586 C 0.52982 0.91872 0.49543 0.0
C587 C 0.55785 0.04883 0.4946 0.0
C588 C 0.60349 0.07579 0.50298 0.0
C589 C 0.52735 0.06915 0.49369 0.0
C590 C 0.47867 0.0428 0.48516 0.0
C591 C 0.44358 0.99766 0.49244 0.0
C592 C 0.3979 0.97291 0.48415 0.0
C593 C 0.38675 0.99318 0.46871 0.0
C594 C 0.42124 0.03831 0.46155 0.0
C595 C 0.46703 0.06312 0.46974 0.0
H596 H 0.35138 0.97395 0.4623 0.0
H597 H 0.79369 0.21882 0.54336 0.0
H598 H 0.15071 0.5717 0.16652 0.0
H599 H 0.06887 0.51252 0.17651 0.0
H600 H 1.01212 0.54672 0.12696 0.0
H601 H 0.09453 0.6062 0.11684 0.0
H602 H 0.97031 0.55168 0.16159 0.0
H603 H 1.00277 0.4398 0.1289 0.0
H604 H 0.04948 0.40023 0.12028 0.0
H605 H 0.04061 0.35222 0.17813 0.0
H606 H 0.99445 0.39215 0.18717 0.0
H607 H 0.73239 0.38272 0.18664 0.0
H608 H 0.80679 0.42104 0.16788 0.0
H609 H 0.87886 0.38701 0.21193 0.0
H610 H 0.80389 0.34769 0.23065 0.0
H611 H 0.90996 0.37877 0.1768 0.0
H612 H 0.88699 0.49711 0.2104 0.0
H613 H 0.84268 0.53838 0.22026 0.0
H614 H 0.83706 0.57661 0.16199 0.0
H615 H 0.88072 0.53488 0.15175 0.0
C616 C 0.1208 0.56624 0.15766 0.0
C617 C 0.12885 0.5937 0.14098 0.0
C618 C 0.07411 0.53219 0.16331 0.0
C619 C 0.03443 0.52509 0.15245 0.0
C620 C 0.04232 0.55157 0.1355 0.0
C621 C 0.08927 0.58528 0.12969 0.0
C622 C 0.9849 0.49284 0.15976 0.0
C623 C 0.95662 0.51359 0.1645 0.0
C624 C 0.96781 0.44356 0.16413 0.0
C625 C 0.99543 0.41932 0.15875 0.0
C626 C 1.01111 0.42116 0.13983 0.0
C627 C 0.03743 0.39859 0.13485 0.0
C628 C 0.04809 0.3738 0.14866 0.0
C629 C 0.03235 0.37145 0.16745 0.0
C630 C 1.00605 0.394 0.17251 0.0
C631 C 0.76396 0.38285 0.1922 0.0
C632 C 0.76261 0.36279 0.2102 0.0
C633 C 0.80644 0.40479 0.18148 0.0
C634 C 0.8487 0.40785 0.18868 0.0
C635 C 0.84672 0.38524 0.20613 0.0
C636 C 0.80394 0.36277 0.21681 0.0
C637 C 0.89548 0.4377 0.17869 0.0
C638 C 0.92334 0.41665 0.17359 0.0
C639 C 0.91255 0.48696 0.17415 0.0
C640 C 0.88663 0.51241 0.18029 0.0
C641 C 0.87598 0.514 0.19967 0.0
C642 C 0.85103 0.53751 0.20533 0.0
C643 C 0.83694 0.55998 0.19175 0.0
C644 C 0.84791 0.55911 0.17249 0.0
C645 C 0.87277 0.53554 0.16675 0.0
H646 H 0.81763 0.57818 0.19616 0.0
H647 H 0.06847 0.35635 0.14478 0.0
H648 H 0.55691 0.88852 0.41754 0.0
H649 H 0.58674 0.96339 0.39877 0.0
H650 H 0.49863 0.88047 0.35138 0.0
H651 H 0.46825 0.80628 0.37017 0.0
H652 H 0.58568 0.95549 0.33913 0.0
H653 H 0.45796 0.92789 0.3817 0.0
H654 H 0.41495 0.91528 0.41224 0.0
H655 H 0.52426 0.05532 0.43148 0.0
H656 H 0.56912 0.06791 0.40138 0.0
H657 H 0.55422 0.13232 0.28868 0.0
H658 H 0.5397 0.06029 0.30663 0.0
H659 H 0.62521 0.15084 0.35307 0.0
H660 H 0.63895 0.22264 0.33544 0.0
H661 H 0.54371 0.07367 0.36608 0.0
H662 H 0.67056 0.10024 0.32215 0.0
H663 H 0.70821 0.1123 0.29036 0.0
H664 H 0.59354 0.97359 0.27242 0.0
H665 H 0.55484 0.96099 0.30403 0.0
C666 C 0.54542 0.88623 0.40288 0.0
C667 C 0.51069 0.8416 0.39521 0.0
C668 C 0.562 0.92903 0.39223 0.0
C669 C 0.5445 0.92768 0.3737 0.0
C670 C 0.51273 0.88258 0.36559 0.0
C671 C 0.49555 0.84013 0.37631 0.0
C672 C 0.55549 0.97293 0.3633 0.0
C673 C 0.57638 0.98124 0.34502 0.0
C674 C 0.54346 1.00676 0.37094 0.0
C675 C 0.51745 0.99846 0.38938 0.0
C676 C 0.47341 0.9556 0.39258 0.0
C677 C 0.44862 0.94847 0.40982 0.0
C678 C 0.46697 0.98434 0.42383 0.0
C679 C 0.51024 0.02738 0.42067 0.0
C680 C 0.53551 0.03443 0.40356 0.0
C681 C 0.56957 0.13689 0.30277 0.0
C682 C 0.59803 0.18346 0.31053 0.0
C683 C 0.56163 0.09566 0.31297 0.0
C684 C 0.58191 0.10004 0.33114 0.0
C685 C 0.60939 0.1464 0.33906 0.0
C686 C 0.61752 0.18755 0.32887 0.0
C687 C 0.57435 0.0565 0.34203 0.0
C688 C 0.55374 0.04832 0.36033 0.0
C689 C 0.58615 0.02258 0.33435 0.0
C690 C 0.60961 0.02987 0.3154 0.0
C691 C 0.65321 0.07245 0.31138 0.0
C692 C 0.67476 0.07936 0.29341 0.0
C693 C 0.65322 0.04378 0.27937 0.0
C694 C 0.61016 1.00114 0.2833 0.0
C695 C 0.58843 0.99407 0.30125 0.0
H696 H 0.66995 0.04921 0.26546 0.0
H697 H 0.44762 0.97876 0.43713 0.0
H698 H 0.80299 0.43514 0.99992 0.0
H699 H 0.87523 0.49072 0.01745 0.0
H700 H 0.96338 0.47509 0.9746 0.0
H701 H 0.89106 0.41986 0.95666 0.0
H702 H 0.99246 0.47012 1.01084 0.0
H703 H 0.95378 0.57627 0.97618 0.0
H704 H 0.90101 0.60736 0.9656 0.0
H705 H 0.88317 0.63902 0.02364 0.0
H706 H 0.93533 0.60746 0.0346 0.0
H707 H 0.21763 0.65644 0.0364 0.0
H708 H 0.14374 0.6131 0.01789 0.0
H709 H 0.06416 0.63388 0.06311 0.0
H710 H 0.13902 0.67856 0.08167 0.0
H711 H 0.02877 0.63668 0.02683 0.0
H712 H 0.06606 0.53143 0.06184 0.0
H713 H 0.11769 0.49976 0.07323 0.0
H714 H 0.13565 0.46457 0.01574 0.0
H715 H 0.08469 0.49675 1.00396 0.0
C716 C 0.83761 0.44374 0.99401 0.0
C717 C 0.84083 0.4231 0.97665 0.0
C718 C 0.87904 0.47561 1.00415 0.0
C719 C 0.92491 0.48779 0.99724 0.0
C720 C 0.9284 0.46641 0.9802 0.0
C721 C 0.88688 0.43458 0.96998 0.0
C722 C 0.96909 0.52239 1.00794 0.0
C723 C 1.00068 0.50673 1.01408 0.0
C724 C 0.97914 0.56974 1.01279 0.0
C725 C 0.94809 0.58908 1.00622 0.0
C726 C 0.93832 0.58953 0.9867 0.0
C727 C 0.90856 0.60729 0.98064 0.0
C728 C 0.88865 0.62504 0.99395 0.0
C729 C 0.89857 0.6252 1.01335 0.0
C730 C 0.92826 0.60742 0.01949 0.0
C731 C 0.18466 0.65315 0.04215 0.0
C732 C 0.18405 0.67099 0.06043 0.0
C733 C 0.14235 0.62801 0.03162 0.0
C734 C 0.09812 0.61916 0.03927 0.0
C735 C 0.09784 0.64009 0.05694 0.0
C736 C 0.14062 0.66591 0.06748 0.0
C737 C 0.05239 0.58456 0.02945 0.0
C738 C 0.02047 0.60007 0.02357 0.0
C739 C 0.04168 0.53682 0.02496 0.0
C740 C 0.07189 0.51689 0.032 0.0
C741 C 0.08128 0.51724 0.05161 0.0
C742 C 0.1104 0.49917 0.05814 0.0
C743 C 0.13002 0.48026 0.04521 0.0
C744 C 0.12046 0.47927 0.02573 0.0
C745 C 0.09142 0.49739 0.01912 0.0
H746 H 0.15257 0.46628 0.05029 0.0
H747 H 0.86561 0.63877 0.98922 0.0
H748 H 0.3643 0.57165 0.69794 0.0
H749 H 0.4068 0.53936 0.67969 0.0
H750 H 0.36303 0.42391 0.72066 0.0
H751 H 0.32041 0.45677 0.73918 0.0
H752 H 0.4589 0.4706 0.71511 0.0
H753 H 0.32244 0.40119 0.67396 0.0
H754 H 0.25869 0.39917 0.65374 0.0
H755 H 0.36579 0.50559 0.61646 0.0
H756 H 0.43023 0.50881 0.6366 0.0
H757 H 0.58177 0.37297 0.66395 0.0
H758 H 0.52084 0.385 0.67963 0.0
H759 H 0.5482 0.4992 0.63993 0.0
H760 H 0.60774 0.48562 0.6234 0.0
H761 H 0.45492 0.44478 0.64518 0.0
H762 H 0.58992 0.52285 0.68783 0.0
H763 H 0.65561 0.52828 0.70784 0.0
H764 H 0.55301 0.40861 0.7417 0.0
H765 H 0.48664 0.40253 0.72189 0.0
C766 C 0.36226 0.53837 0.70271 0.0
C767 C 0.33861 0.51647 0.71989 0.0
C768 C 0.38668 0.5199 0.69225 0.0
C769 C 0.38816 0.47901 0.6987 0.0
C770 C 0.36233 0.45541 0.71535 0.0
C771 C 0.33742 0.47379 0.7258 0.0
C772 C 0.42077 0.46455 0.68907 0.0
C773 C 0.45727 0.46386 0.69987 0.0
C774 C 0.4199 0.45733 0.66907 0.0
C775 C 0.3812 0.45549 0.6569 0.0
C776 C 0.33243 0.42446 0.66154 0.0
C777 C 0.29616 0.42305 0.65007 0.0
C778 C 0.30818 0.4523 0.63385 0.0
C779 C 0.35652 0.48297 0.62904 0.0
C780 C 0.39294 0.48455 0.64047 0.0
C781 C 0.57481 0.40043 0.65833 0.0
C782 C 0.60004 0.42817 0.64225 0.0
C783 C 0.54012 0.40769 0.66755 0.0
C784 C 0.53016 0.44352 0.66121 0.0
C785 C 0.55522 0.47139 0.64519 0.0
C786 C 0.58975 0.46387 0.63583 0.0
C787 C 0.49328 0.45144 0.67118 0.0
C788 C 0.45614 0.451 0.66044 0.0
C789 C 0.49376 0.45806 0.6912 0.0
C790 C 0.53341 0.462 0.70329 0.0
C791 C 0.58141 0.49761 0.69951 0.0
C792 C 0.61872 0.50087 0.71084 0.0
C793 C 0.60846 0.4688 0.72603 0.0
C794 C 0.56085 0.43347 0.72995 0.0
C795 C 0.52336 0.43019 0.71871 0.0
H796 H 0.6374 0.47133 0.73477 0.0
H797 H 0.28004 0.45115 0.62499 0.0
H798 H 0.13248 0.55603 0.74505 0.0
H799 H 0.05916 0.54115 0.72845 0.0
H800 H 0.14524 0.6278 0.68102 0.0
H801 H 0.21837 0.64388 0.69785 0.0
H802 H 0.07697 0.64746 0.68702 0.0
H803 H 0.08014 0.49787 0.68093 0.0
H804 H 0.08427 0.42767 0.69332 0.0
H805 H 0.95575 0.38413 0.7263 0.0
H806 H 0.95113 0.45435 0.71423 0.0
H807 H 0.89142 0.55613 0.6154 0.0
H808 H 0.96323 0.58569 0.63554 0.0
H809 H 0.8744 0.49622 0.6819 0.0
H810 H 0.80346 0.46534 0.66152 0.0
H811 H 0.9435 0.47954 0.67736 0.0
H812 H 0.9371 0.62632 0.68207 0.0
H813 H 0.93337 0.69706 0.67013 0.0
H814 H 0.0672 0.7465 0.64023 0.0
H815 H 0.07142 0.67571 0.6518 0.0
C816 C 0.13564 0.57168 0.73106 0.0
C817 C 0.18125 0.60102 0.72276 0.0
C818 C 0.0937 0.56315 0.72153 0.0
C819 C 0.09633 0.58274 0.70326 0.0
C820 C 0.14197 0.61233 0.69507 0.0
C821 C 0.18387 0.62148 0.70471 0.0
C822 C 0.05182 0.57208 0.69251 0.0
C823 C 0.04798 0.61068 0.68475 0.0
C824 C 1.01329 0.52425 0.68983 0.0
C825 C 1.0155 0.48151 0.69678 0.0
C826 C 0.05286 0.47339 0.69087 0.0
C827 C 0.05528 0.43361 0.69783 0.0
C828 C 0.02034 0.40151 0.71062 0.0
C829 C 0.98278 0.40901 0.7164 0.0
C830 C 0.9802 0.44875 0.70948 0.0
C831 C 0.88719 0.54432 0.63012 0.0
C832 C 0.84189 0.50896 0.63701 0.0
C833 C 0.92829 0.56101 0.64164 0.0
C834 C 0.92456 0.54325 0.66036 0.0
C835 C 0.8786 0.51033 0.66754 0.0
C836 C 0.8379 0.49309 0.65595 0.0
C837 C 0.96835 0.55495 0.67188 0.0
C838 C 0.97222 0.51642 0.67971 0.0
C839 C 1.00677 0.60284 0.67462 0.0
C840 C 1.00434 0.64546 0.66767 0.0
C841 C 0.96555 0.65208 0.67283 0.0
C842 C 0.96338 0.69223 0.66615 0.0
C843 C 0.99996 0.72619 0.65439 0.0
C844 C 0.03886 0.72014 0.64932 0.0
C845 C 0.04118 0.68004 0.65596 0.0
H846 H 0.99821 0.75724 0.64923 0.0
H847 H 0.02234 0.37079 0.71602 0.0
H848 H 0.45749 0.31172 0.29074 0.0
H849 H 0.42408 0.3482 0.3126 0.0
H850 H 0.56265 0.42942 0.33977 0.0
H851 H 0.59526 0.3924 0.31863 0.0
H852 H 0.49691 0.40723 0.36576 0.0
H853 H 0.5287 0.48342 0.30387 0.0
H854 H 0.52219 0.48002 0.26891 0.0
H855 H 0.36802 0.4103 0.2733 0.0
H856 H 0.37383 0.41379 0.30847 0.0
H857 H 0.5056 0.62555 0.39588 0.0
H858 H 0.5185 0.56452 0.38011 0.0
H859 H 0.36985 0.48784 0.36263 0.0
H860 H 0.35625 0.54779 0.37858 0.0
H861 H 0.43051 0.49904 0.33311 0.0
H862 H 0.40818 0.44341 0.39817 0.0
H863 H 0.42467 0.45284 0.43271 0.0
H864 H 0.57158 0.49111 0.42203 0.0
H865 H 0.55612 0.48249 0.3874 0.0
C866 C 0.48029 0.33633 0.30173 0.0
C867 C 0.52912 0.34951 0.3028 0.0
C868 C 0.46138 0.35758 0.31412 0.0
C869 C 0.49107 0.39249 0.32768 0.0
C870 C 0.53885 0.40287 0.3295 0.0
C871 C 0.55757 0.38176 0.31725 0.0
C872 C 0.47465 0.42183 0.33879 0.0
C873 C 0.48233 0.42723 0.35861 0.0
C874 C 0.4555 0.44808 0.32966 0.0
C875 C 0.45166 0.44836 0.30868 0.0
C876 C 0.49344 0.46747 0.29734 0.0
C877 C 0.48986 0.46543 0.2775 0.0
C878 C 0.44466 0.44433 0.26884 0.0
C879 C 0.40298 0.42632 0.28003 0.0
C880 C 0.40639 0.42852 0.29993 0.0
C881 C 0.4754 0.5955 0.38891 0.0
C882 C 0.42986 0.59217 0.38854 0.0
C883 C 0.48289 0.56052 0.37985 0.0
C884 C 0.44506 0.52129 0.37024 0.0
C885 C 0.39966 0.51777 0.36988 0.0
C886 C 0.39206 0.5525 0.37898 0.0
C887 C 0.45307 0.48472 0.36006 0.0
C888 C 0.44403 0.47824 0.34038 0.0
C889 C 0.47192 0.45834 0.36933 0.0
C890 C 0.48105 0.4626 0.39018 0.0
C891 C 0.44406 0.45407 0.40318 0.0
C892 C 0.45322 0.45924 0.42278 0.0
C893 C 0.49917 0.47265 0.42956 0.0
C894 C 0.53601 0.48073 0.41676 0.0
C895 C 0.52705 0.47562 0.39714 0.0
H896 H 0.50621 0.47672 0.44474 0.0
H897 H 0.44201 0.44182 0.25349 0.0
H898 H 0.7004 0.15243 0.95234 0.0
H899 H 0.66193 0.08053 0.97318 0.0
H900 H 0.58497 0.14048 1.00251 0.0
H901 H 0.62361 0.21175 0.98232 0.0
H902 H 0.60932 0.09789 0.02748 0.0
H903 H 0.53258 0.05407 0.9662 0.0
H904 H 0.52472 0.0404 0.93148 0.0
H905 H 0.58058 0.94333 0.93622 0.0
H906 H 0.58897 0.95664 0.97105 0.0
H907 H 0.39605 0.88778 0.06149 0.0
H908 H 0.45443 0.96172 0.04489 0.0
H909 H 0.53212 0.89113 0.02606 0.0
H910 H 0.47513 0.81788 0.04287 0.0
H911 H 0.51493 0.93729 0.99673 0.0
H912 H 0.57842 0.9752 0.06036 0.0
H913 H 0.57405 0.985 0.09509 0.0
H914 H 0.53386 0.09309 0.0856 0.0
H915 H 0.53732 0.08345 0.0508 0.0
C916 C 0.67608 0.15054 0.96352 0.0
C917 C 0.66489 0.18768 0.96559 0.0
C918 C 0.6537 0.10926 0.97531 0.0
C919 C 0.61983 0.10455 0.98932 0.0
C920 C 0.61077 0.14288 0.9919 0.0
C921 C 0.63287 0.18371 0.98022 0.0
C922 C 0.59158 0.05926 1.00077 0.0
C923 C 0.58862 0.06284 0.0207 0.0
C924 C 0.56476 0.01316 0.99213 0.0
C925 C 0.56198 1.00683 0.97115 0.0
C926 C 0.54378 0.03031 0.9598 0.0
C927 C 0.53908 0.0225 0.94012 0.0
C928 C 0.55223 0.99108 0.93165 0.0
C929 C 0.57046 0.96768 0.94282 0.0
C930 C 0.57516 0.97531 0.96253 0.0
C931 C 0.42583 0.88803 0.05406 0.0
C932 C 0.43021 0.84624 0.05348 0.0
C933 C 0.45924 0.93044 0.04453 0.0
C934 C 0.4978 0.93207 0.03422 0.0
C935 C 0.50257 0.89074 0.0338 0.0
C936 C 0.46953 0.84858 0.04339 0.0
C937 C 0.53226 0.97616 0.02331 0.0
C938 C 0.5363 0.97226 1.00351 0.0
C939 C 0.55929 0.02203 0.03204 0.0
C940 C 0.55777 0.02832 0.05297 0.0
C941 C 0.56834 1.00083 0.06568 0.0
C942 C 0.56607 1.00639 0.08538 0.0
C943 C 0.55359 0.03957 0.09255 0.0
C944 C 0.54349 0.06738 0.08003 0.0
C945 C 0.54566 0.06192 0.06031 0.0
H946 H 0.55182 0.0438 0.1078 0.0
H947 H 0.54785 0.98447 0.91648 0.0
loop_
_geom_bond_atom_site_label_1
_geom_bond_atom_site_label_2
_geom_bond_distance
_geom_bond_site_symmetry_2
_ccdc_geom_bond_type
C0 C1 1.351 . S
C0 N3 1.368 . S
C0 H5 0.931 . S
C1 C0 1.351 . S
C1 N2 1.373 . S
C1 H29 0.930 . S
N2 C1 1.373 . S
N2 C4 1.340 . S
N3 C0 1.368 . S
N3 C4 1.321 . S
N3 Co6 2.135 . S
C4 N2 1.340 . S
C4 N3 1.321 . S
C4 H28 0.930 . S
H5 C0 0.931 . S
Co6 N3 2.135 . S
Co6 N9 2.121 . S
Co6 O14 2.055 . S
Co6 O17 2.039 . S
Co6 N20 2.140 . S
C7 O8 1.227 . S
C7 O17 1.265 . S
O8 C7 1.227 . S
N9 Co6 2.121 . S
N9 C11 1.375 . S
N9 C12 1.313 . S
C10 C11 1.338 . S
C10 N13 1.377 . S
C10 H30 0.930 . S
C11 N9 1.375 . S
C11 C10 1.338 . S
C11 H15 0.931 . S
C12 N9 1.313 . S
C12 N13 1.344 . S
C12 H16 0.930 . S
N13 C10 1.377 . S
N13 C12 1.344 . S
O14 Co6 2.055 . S
O14 C18 1.253 . S
H15 C11 0.931 . S
H16 C12 0.930 . S
O17 Co6 2.039 . S
O17 C7 1.265 . S
C18 O14 1.253 . S
C18 O19 1.227 . S
O19 C18 1.227 . S
N20 Co6 2.140 . S
N20 C23 1.346 . S
N20 C24 1.345 . S
C21 C22 1.387 . S
C21 C25 1.391 . S
C22 C21 1.387 . S
C22 C23 1.369 . S
C22 H31 0.929 . S
C23 N20 1.346 . S
C23 C22 1.369 . S
C23 H26 0.928 . S
C24 N20 1.345 . S
C24 C25 1.371 . S
C24 H27 0.931 . S
C25 C21 1.391 . S
C25 C24 1.371 . S
C25 H32 0.930 . S
H26 C23 0.928 . S
H27 C24 0.931 . S
H28 C4 0.930 . S
H29 C1 0.930 . S
H30 C10 0.930 . S
H31 C22 0.929 . S
H32 C25 0.930 . S
C33 C34 1.351 . S
C33 N36 1.368 . S
C33 H38 0.931 . S
C34 C33 1.351 . S
C34 N35 1.373 . S
C34 H62 0.930 . S
N35 C34 1.373 . S
N35 C37 1.340 . S
N36 C33 1.368 . S
N36 C37 1.321 . S
N36 Co39 2.135 . S
C37 N35 1.340 . S
C37 N36 1.321 . S
C37 H61 0.930 . S
H38 C33 0.931 . S
Co39 N36 2.135 . S
Co39 N42 2.121 . S
Co39 O47 2.055 . S
Co39 O50 2.039 . S
Co39 N53 2.140 . S
C40 O41 1.227 . S
C40 O50 1.265 . S
O41 C40 1.227 . S
N42 Co39 2.121 . S
N42 C44 1.375 . S
N42 C45 1.313 . S
C43 C44 1.338 . S
C43 N46 1.377 . S
C43 H63 0.930 . S
C44 N42 1.375 . S
C44 C43 1.338 . S
C44 H48 0.931 . S
C45 N42 1.313 . S
C45 N46 1.344 . S
C45 H49 0.930 . S
N46 C43 1.377 . S
N46 C45 1.344 . S
O47 Co39 2.055 . S
O47 C51 1.253 . S
H48 C44 0.931 . S
H49 C45 0.930 . S
O50 Co39 2.039 . S
O50 C40 1.265 . S
C51 O47 1.253 . S
C51 O52 1.227 . S
O52 C51 1.227 . S
N53 Co39 2.140 . S
N53 C56 1.346 . S
N53 C57 1.345 . S
C54 C55 1.387 . S
C54 C58 1.391 . S
C55 C54 1.387 . S
C55 C56 1.369 . S
C55 H64 0.929 . S
C56 N53 1.346 . S
C56 C55 1.369 . S
C56 H59 0.928 . S
C57 N53 1.345 . S
C57 C58 1.371 . S
C57 H60 0.931 . S
C58 C54 1.391 . S
C58 C57 1.371 . S
C58 H65 0.930 . S
H59 C56 0.928 . S
H60 C57 0.931 . S
H61 C37 0.930 . S
H62 C34 0.930 . S
H63 C43 0.930 . S
H64 C55 0.929 . S
H65 C58 0.930 . S
C66 C67 1.351 . S
C66 N69 1.368 . S
C66 H71 0.931 . S
C67 C66 1.351 . S
C67 N68 1.373 . S
C67 H95 0.930 . S
N68 C67 1.373 . S
N68 C70 1.340 . S
N69 C66 1.368 . S
N69 C70 1.321 . S
N69 Co72 2.135 . S
C70 N68 1.340 . S
C70 N69 1.321 . S
C70 H94 0.930 . S
H71 C66 0.931 . S
Co72 N69 2.135 . S
Co72 N75 2.121 . S
Co72 O80 2.055 . S
Co72 O83 2.039 . S
Co72 N86 2.140 . S
C73 O74 1.227 . S
C73 O83 1.265 . S
O74 C73 1.227 . S
N75 Co72 2.121 . S
N75 C77 1.375 . S
N75 C78 1.313 . S
C76 C77 1.338 . S
C76 N79 1.377 . S
C76 H96 0.930 . S
C77 N75 1.375 . S
C77 C76 1.338 . S
C77 H81 0.931 . S
C78 N75 1.313 . S
C78 N79 1.344 . S
C78 H82 0.930 . S
N79 C76 1.377 . S
N79 C78 1.344 . S
O80 Co72 2.055 . S
O80 C84 1.253 . S
H81 C77 0.931 . S
H82 C78 0.930 . S
O83 Co72 2.039 . S
O83 C73 1.265 . S
C84 O80 1.253 . S
C84 O85 1.227 . S
O85 C84 1.227 . S
N86 Co72 2.140 . S
N86 C89 1.346 . S
N86 C90 1.345 . S
C87 C88 1.387 . S
C87 C91 1.391 . S
C88 C87 1.387 . S
C88 C89 1.369 . S
C88 H97 0.929 . S
C89 N86 1.346 . S
C89 C88 1.369 . S
C89 H92 0.928 . S
C90 N86 1.345 . S
C90 C91 1.371 . S
C90 H93 0.931 . S
C91 C87 1.391 . S
C91 C90 1.371 . S
C91 H98 0.930 . S
H92 C89 0.928 . S
H93 C90 0.931 . S
H94 C70 0.930 . S
H95 C67 0.930 . S
H96 C76 0.930 . S
H97 C88 0.929 . S
H98 C91 0.930 . S
C99 C100 1.351 . S
C99 N102 1.368 . S
C99 H104 0.931 . S
C100 C99 1.351 . S
C100 N101 1.373 . S
C100 H128 0.930 . S
N101 C100 1.373 . S
N101 C103 1.340 . S
N102 C99 1.368 . S
N102 C103 1.321 . S
N102 Co105 2.135 . S
C103 N101 1.340 . S
C103 N102 1.321 . S
C103 H127 0.930 . S
H104 C99 0.931 . S
Co105 N102 2.135 . S
Co105 N108 2.121 . S
Co105 O113 2.055 . S
Co105 O116 2.039 . S
Co105 N119 2.140 . S
C106 O107 1.227 . S
C106 O116 1.265 . S
O107 C106 1.227 . S
N108 Co105 2.121 . S
N108 C110 1.375 . S
N108 C111 1.313 . S
C109 C110 1.338 . S
C109 N112 1.377 . S
C109 H129 0.930 . S
C110 N108 1.375 . S
C110 C109 1.338 . S
C110 H114 0.931 . S
C111 N108 1.313 . S
C111 N112 1.344 . S
C111 H115 0.930 . S
N112 C109 1.377 . S
N112 C111 1.344 . S
O113 Co105 2.055 . S
O113 C117 1.253 . S
H114 C110 0.931 . S
H115 C111 0.930 . S
O116 Co105 2.039 . S
O116 C106 1.265 . S
C117 O113 1.253 . S
C117 O118 1.227 . S
O118 C117 1.227 . S
N119 Co105 2.140 . S
N119 C122 1.346 . S
N119 C123 1.345 . S
C120 C121 1.387 . S
C120 C124 1.391 . S
C121 C120 1.387 . S
C121 C122 1.369 . S
C121 H130 0.929 . S
C122 N119 1.346 . S
C122 C121 1.369 . S
C122 H125 0.928 . S
C123 N119 1.345 . S
C123 C124 1.371 . S
C123 H126 0.931 . S
C124 C120 1.391 . S
C124 C123 1.371 . S
C124 H131 0.930 . S
H125 C122 0.928 . S
H126 C123 0.931 . S
H127 C103 0.930 . S
H128 C100 0.930 . S
H129 C109 0.930 . S
H130 C121 0.929 . S
H131 C124 0.930 . S
C132 C133 1.351 . S
C132 N135 1.368 . S
C132 H137 0.931 . S
C133 C132 1.351 . S
C133 N134 1.373 . S
C133 H161 0.930 . S
N134 C133 1.373 . S
N134 C136 1.340 . S
N135 C132 1.368 . S
N135 C136 1.321 . S
N135 Co138 2.135 . S
C136 N134 1.340 . S
C136 N135 1.321 . S
C136 H160 0.930 . S
H137 C132 0.931 . S
Co138 N135 2.135 . S
Co138 N141 2.121 . S
Co138 O146 2.055 . S
Co138 O149 2.039 . S
Co138 N152 2.140 . S
C139 O140 1.227 . S
C139 O149 1.265 . S
O140 C139 1.227 . S
N141 Co138 2.121 . S
N141 C143 1.375 . S
N141 C144 1.313 . S
C142 C143 1.338 . S
C142 N145 1.377 . S
C142 H162 0.930 . S
C143 N141 1.375 . S
C143 C142 1.338 . S
C143 H147 0.931 . S
C144 N141 1.313 . S
C144 N145 1.344 . S
C144 H148 0.930 . S
N145 C142 1.377 . S
N145 C144 1.344 . S
O146 Co138 2.055 . S
O146 C150 1.253 . S
H147 C143 0.931 . S
H148 C144 0.930 . S
O149 Co138 2.039 . S
O149 C139 1.265 . S
C150 O146 1.253 . S
C150 O151 1.227 . S
O151 C150 1.227 . S
N152 Co138 2.140 . S
N152 C155 1.346 . S
N152 C156 1.345 . S
C153 C154 1.387 . S
C153 C157 1.391 . S
C154 C153 1.387 . S
C154 C155 1.369 . S
C154 H163 0.929 . S
C155 N152 1.346 . S
C155 C154 1.369 . S
C155 H158 0.928 . S
C156 N152 1.345 . S
C156 C157 1.371 . S
C156 H159 0.931 . S
C157 C153 1.391 . S
C157 C156 1.371 . S
C157 H164 0.930 . S
H158 C155 0.928 . S
H159 C156 0.931 . S
H160 C136 0.930 . S
H161 C133 0.930 . S
H162 C142 0.930 . S
H163 C154 0.929 . S
H164 C157 0.930 . S
C165 C166 1.351 . S
C165 N168 1.368 . S
C165 H170 0.931 . S
C166 C165 1.351 . S
C166 N167 1.373 . S
C166 H194 0.930 . S
N167 C166 1.373 . S
N167 C169 1.340 . S
N168 C165 1.368 . S
N168 C169 1.321 . S
N168 Co171 2.135 . S
C169 N167 1.340 . S
C169 N168 1.321 . S
C169 H193 0.930 . S
H170 C165 0.931 . S
Co171 N168 2.135 . S
Co171 N174 2.121 . S
Co171 O179 2.055 . S
Co171 O182 2.039 . S
Co171 N185 2.140 . S
C172 O173 1.227 . S
C172 O182 1.265 . S
O173 C172 1.227 . S
N174 Co171 2.121 . S
N174 C176 1.375 . S
N174 C177 1.313 . S
C175 C176 1.338 . S
C175 N178 1.377 . S
C175 H195 0.930 . S
C176 N174 1.375 . S
C176 C175 1.338 . S
C176 H180 0.931 . S
C177 N174 1.313 . S
C177 N178 1.344 . S
C177 H181 0.930 . S
N178 C175 1.377 . S
N178 C177 1.344 . S
O179 Co171 2.055 . S
O179 C183 1.253 . S
H180 C176 0.931 . S
H181 C177 0.930 . S
O182 Co171 2.039 . S
O182 C172 1.265 . S
C183 O179 1.253 . S
C183 O184 1.227 . S
O184 C183 1.227 . S
N185 Co171 2.140 . S
N185 C188 1.346 . S
N185 C189 1.345 . S
C186 C187 1.387 . S
C186 C190 1.391 . S
C187 C186 1.387 . S
C187 C188 1.369 . S
C187 H196 0.929 . S
C188 N185 1.346 . S
C188 C187 1.369 . S
C188 H191 0.928 . S
C189 N185 1.345 . S
C189 C190 1.371 . S
C189 H192 0.931 . S
C190 C186 1.391 . S
C190 C189 1.371 . S
C190 H197 0.930 . S
H191 C188 0.928 . S
H192 C189 0.931 . S
H193 C169 0.930 . S
H194 C166 0.930 . S
H195 C175 0.930 . S
H196 C187 0.929 . S
H197 C190 0.930 . S
H198 C216 0.951 . S
H199 C218 0.951 . S
H200 C220 0.950 . S
H201 C221 0.950 . S
H202 C223 0.950 . S
H203 C226 0.950 . S
H204 C227 0.950 . S
H205 C229 0.950 . S
H206 C230 0.950 . S
H207 C231 0.951 . S
H208 C233 0.951 . S
H209 C235 0.950 . S
H210 C236 0.950 . S
H211 C238 0.950 . S
H212 C241 0.950 . S
H213 C242 0.950 . S
H214 C244 0.950 . S
H215 C245 0.950 . S
C216 H198 0.951 . S
C216 C217 1.366 . S
C216 C218 1.388 . S
C217 C216 1.366 . S
C217 C221 1.385 . S
C218 H199 0.951 . S
C218 C216 1.388 . S
C218 C219 1.366 . S
C219 C218 1.366 . S
C219 C220 1.414 . S
C219 C222 1.499 . S
C220 H200 0.950 . S
C220 C219 1.414 . S
C220 C221 1.374 . S
C221 H201 0.950 . S
C221 C217 1.385 . S
C221 C220 1.374 . S
C222 C219 1.499 . S
C222 C223 1.373 . S
C222 C224 1.389 . S
C223 H202 0.950 . S
C223 C222 1.373 . S
C223 C239 1.377 1_545 S
C224 C222 1.389 . S
C224 C225 1.524 . S
C224 C238 1.377 1_545 S
C225 C224 1.524 . S
C225 C226 1.397 . S
C225 C230 1.363 . S
C226 H203 0.950 . S
C226 C225 1.397 . S
C226 C227 1.334 . S
C227 H204 0.950 . S
C227 C226 1.334 . S
C227 C228 1.287 . S
C228 C227 1.287 . S
C228 C229 1.524 . S
C228 H247 0.913 . S
C229 H205 0.950 . S
C229 C228 1.524 . S
C229 C230 1.415 . S
C230 H206 0.950 . S
C230 C225 1.363 . S
C230 C229 1.415 . S
C231 H207 0.951 . S
C231 C232 1.366 . S
C231 C233 1.388 . S
C232 C231 1.366 . S
C232 C236 1.385 . S
C233 H208 0.951 . S
C233 C231 1.388 . S
C233 C234 1.366 . S
C234 C233 1.366 . S
C234 C235 1.414 . S
C234 C237 1.499 . S
C235 H209 0.950 . S
C235 C234 1.414 . S
C235 C236 1.374 . S
C236 H210 0.950 . S
C236 C232 1.385 . S
C236 C235 1.374 . S
C237 C234 1.499 . S
C237 C238 1.373 . S
C237 C239 1.389 . S
C238 H211 0.950 . S
C238 C224 1.377 1_565 S
C238 C237 1.373 . S
C239 C223 1.377 1_565 S
C239 C237 1.389 . S
C239 C240 1.524 . S
C240 C239 1.524 . S
C240 C241 1.397 . S
C240 C245 1.363 . S
C241 H212 0.950 . S
C241 C240 1.397 . S
C241 C242 1.334 . S
C242 H213 0.950 . S
C242 C241 1.334 . S
C242 C243 1.287 . S
C243 C242 1.287 . S
C243 C244 1.524 . S
C243 H246 0.999 . S
C244 H214 0.950 . S
C244 C243 1.524 . S
C244 C245 1.415 . S
C245 H215 0.950 . S
C245 C240 1.363 . S
C245 C244 1.415 . S
H246 C243 0.999 . S
H247 C228 0.913 . S
H248 C266 0.951 . S
H249 C268 0.951 . S
H250 C270 0.950 . S
H251 C271 0.950 . S
H252 C273 0.950 . S
H253 C276 0.950 . S
H254 C277 0.950 . S
H255 C279 0.950 . S
H256 C280 0.950 . S
H257 C281 0.951 . S
H258 C283 0.951 . S
H259 C285 0.950 . S
H260 C286 0.950 . S
H261 C288 0.950 . S
H262 C291 0.950 . S
H263 C292 0.950 . S
H264 C294 0.950 . S
H265 C295 0.950 . S
C266 H248 0.951 . S
C266 C267 1.366 . S
C266 C268 1.388 . S
C267 C266 1.366 . S
C267 C271 1.385 . S
C268 H249 0.951 . S
C268 C266 1.388 . S
C268 C269 1.366 . S
C269 C268 1.366 . S
C269 C270 1.414 . S
C269 C272 1.499 . S
C270 H250 0.950 . S
C270 C269 1.414 . S
C270 C271 1.374 . S
C271 H251 0.950 . S
C271 C267 1.385 . S
C271 C270 1.374 . S
C272 C269 1.499 . S
C272 C273 1.373 . S
C272 C274 1.389 . S
C273 H252 0.950 . S
C273 C272 1.373 . S
C273 C289 1.377 1_455 S
C274 C272 1.389 . S
C274 C275 1.524 . S
C274 C288 1.377 1_455 S
C275 C274 1.524 . S
C275 C276 1.397 . S
C275 C280 1.363 . S
C276 H253 0.950 . S
C276 C275 1.397 . S
C276 C277 1.334 . S
C277 H254 0.950 . S
C277 C276 1.334 . S
C277 C278 1.287 . S
C278 C277 1.287 . S
C278 C279 1.524 . S
C278 H297 0.913 . S
C279 H255 0.950 . S
C279 C278 1.524 . S
C279 C280 1.415 . S
C280 H256 0.950 . S
C280 C275 1.363 . S
C280 C279 1.415 . S
C281 H257 0.951 . S
C281 C282 1.366 . S
C281 C283 1.388 . S
C282 C281 1.366 . S
C282 C286 1.385 . S
C283 H258 0.951 . S
C283 C281 1.388 . S
C283 C284 1.366 . S
C284 C283 1.366 . S
C284 C285 1.414 . S
C284 C287 1.499 . S
C285 H259 0.950 . S
C285 C284 1.414 . S
C285 C286 1.374 . S
C286 H260 0.950 . S
C286 C282 1.385 . S
C286 C285 1.374 . S
C287 C284 1.499 . S
C287 C288 1.373 . S
C287 C289 1.389 . S
C288 H261 0.950 . S
C288 C274 1.377 1_655 S
C288 C287 1.373 . S
C289 C273 1.377 1_655 S
C289 C287 1.389 . S
C289 C290 1.524 . S
C290 C289 1.524 . S
C290 C291 1.397 . S
C290 C295 1.363 . S
C291 H262 0.950 . S
C291 C290 1.397 . S
C291 C292 1.334 . S
C292 H263 0.950 . S
C292 C291 1.334 . S
C292 C293 1.287 . S
C293 C292 1.287 . S
C293 C294 1.524 . S
C293 H296 0.999 . S
C294 H264 0.950 . S
C294 C293 1.524 . S
C294 C295 1.415 . S
C295 H265 0.950 . S
C295 C290 1.363 . S
C295 C294 1.415 . S
H296 C293 0.999 . S
H297 C278 0.913 . S
H298 C316 0.951 . S
H299 C318 0.951 . S
H300 C320 0.950 . S
H301 C321 0.950 . S
H302 C323 0.950 . S
H303 C326 0.950 . S
H304 C327 0.950 . S
H305 C329 0.950 . S
H306 C330 0.950 . S
H307 C331 0.951 . S
H308 C333 0.951 . S
H309 C335 0.950 . S
H310 C336 0.950 . S
H311 C338 0.950 . S
H312 C341 0.950 . S
H313 C342 0.950 . S
H314 C344 0.950 . S
H315 C345 0.950 . S
C316 H298 0.951 . S
C316 C317 1.366 . S
C316 C318 1.388 . S
C317 C316 1.366 . S
C317 C321 1.385 . S
C318 H299 0.951 . S
C318 C316 1.388 . S
C318 C319 1.366 . S
C319 C318 1.366 . S
C319 C320 1.414 . S
C319 C322 1.499 . S
C320 H300 0.950 . S
C320 C319 1.414 . S
C320 C321 1.374 . S
C321 H301 0.950 . S
C321 C317 1.385 . S
C321 C320 1.374 . S
C322 C319 1.499 . S
C322 C323 1.373 . S
C322 C324 1.389 . S
C323 H302 0.950 . S
C323 C322 1.373 . S
C323 C339 1.377 . S
C324 C322 1.389 . S
C324 C325 1.524 . S
C324 C338 1.377 . S
C325 C324 1.524 . S
C325 C326 1.397 . S
C325 C330 1.363 . S
C326 H303 0.950 . S
C326 C325 1.397 . S
C326 C327 1.334 . S
C327 H304 0.950 . S
C327 C326 1.334 . S
C327 C328 1.287 . S
C328 C327 1.287 . S
C328 C329 1.524 . S
C328 H347 0.913 . S
C329 H305 0.950 . S
C329 C328 1.524 . S
C329 C330 1.415 . S
C330 H306 0.950 . S
C330 C325 1.363 . S
C330 C329 1.415 . S
C331 H307 0.951 . S
C331 C332 1.366 . S
C331 C333 1.388 . S
C332 C331 1.366 . S
C332 C336 1.385 . S
C333 H308 0.951 . S
C333 C331 1.388 . S
C333 C334 1.366 . S
C334 C333 1.366 . S
C334 C335 1.414 . S
C334 C337 1.499 . S
C335 H309 0.950 . S
C335 C334 1.414 . S
C335 C336 1.374 . S
C336 H310 0.950 . S
C336 C332 1.385 . S
C336 C335 1.374 . S
C337 C334 1.499 . S
C337 C338 1.373 . S
C337 C339 1.389 . S
C338 H311 0.950 . S
C338 C324 1.377 . S
C338 C337 1.373 . S
C339 C323 1.377 . S
C339 C337 1.389 . S
C339 C340 1.524 . S
C340 C339 1.524 . S
C340 C341 1.397 . S
C340 C345 1.363 . S
C341 H312 0.950 . S
C341 C340 1.397 . S
C341 C342 1.334 . S
C342 H313 0.950 . S
C342 C341 1.334 . S
C342 C343 1.287 . S
C343 C342 1.287 . S
C343 C344 1.524 . S
C343 H346 0.999 . S
C344 H314 0.950 . S
C344 C343 1.524 . S
C344 C345 1.415 . S
C345 H315 0.950 . S
C345 C340 1.363 . S
C345 C344 1.415 . S
H346 C343 0.999 . S
H347 C328 0.913 . S
H348 C366 0.951 . S
H349 C368 0.951 . S
H350 C370 0.950 . S
H351 C371 0.950 . S
H352 C373 0.950 . S
H353 C376 0.950 . S
H354 C377 0.950 . S
H355 C379 0.950 . S
H356 C380 0.950 . S
H357 C381 0.951 . S
H358 C383 0.951 . S
H359 C385 0.950 . S
H360 C386 0.950 . S
H361 C388 0.950 . S
H362 C391 0.950 . S
H363 C392 0.950 . S
H364 C394 0.950 . S
H365 C395 0.950 . S
C366 H348 0.951 . S
C366 C367 1.366 . S
C366 C368 1.388 . S
C367 C366 1.366 . S
C367 C371 1.385 . S
C368 H349 0.951 . S
C368 C366 1.388 . S
C368 C369 1.366 . S
C369 C368 1.366 . S
C369 C370 1.414 . S
C369 C372 1.499 . S
C370 H350 0.950 . S
C370 C369 1.414 . S
C370 C371 1.374 . S
C371 H351 0.950 . S
C371 C367 1.385 . S
C371 C370 1.374 . S
C372 C369 1.499 . S
C372 C373 1.373 . S
C372 C374 1.389 . S
C373 H352 0.950 . S
C373 C372 1.373 . S
C373 C389 1.377 . S
C374 C372 1.389 . S
C374 C375 1.524 . S
C374 C388 1.377 . S
C375 C374 1.524 . S
C375 C376 1.397 . S
C375 C380 1.363 . S
C376 H353 0.950 . S
C376 C375 1.397 . S
C376 C377 1.334 . S
C377 H354 0.950 . S
C377 C376 1.334 . S
C377 C378 1.287 . S
C378 C377 1.287 . S
C378 C379 1.524 . S
C378 H397 0.913 . S
C379 H355 0.950 . S
C379 C378 1.524 . S
C379 C380 1.415 . S
C380 H356 0.950 . S
C380 C375 1.363 . S
C380 C379 1.415 . S
C381 H357 0.951 . S
C381 C382 1.366 . S
C381 C383 1.388 . S
C382 C381 1.366 . S
C382 C386 1.385 . S
C383 H358 0.951 . S
C383 C381 1.388 . S
C383 C384 1.366 . S
C384 C383 1.366 . S
C384 C385 1.414 . S
C384 C387 1.499 . S
C385 H359 0.950 . S
C385 C384 1.414 . S
C385 C386 1.374 . S
C386 H360 0.950 . S
C386 C382 1.385 . S
C386 C385 1.374 . S
C387 C384 1.499 . S
C387 C388 1.373 . S
C387 C389 1.389 . S
C388 H361 0.950 . S
C388 C374 1.377 . S
C388 C387 1.373 . S
C389 C373 1.377 . S
C389 C387 1.389 . S
C389 C390 1.524 . S
C390 C389 1.524 . S
C390 C391 1.397 . S
C390 C395 1.363 . S
C391 H362 0.950 . S
C391 C390 1.397 . S
C391 C392 1.334 . S
C392 H363 0.950 . S
C392 C391 1.334 . S
C392 C393 1.287 . S
C393 C392 1.287 . S
C393 C394 1.524 . S
C393 H396 0.999 . S
C394 H364 0.950 . S
C394 C393 1.524 . S
C394 C395 1.415 . S
C395 H365 0.950 . S
C395 C390 1.363 . S
C395 C394 1.415 . S
H396 C393 0.999 . S
H397 C378 0.913 . S
H398 C416 0.951 . S
H399 C418 0.951 . S
H400 C420 0.950 . S
H401 C421 0.950 . S
H402 C423 0.950 . S
H403 C426 0.950 . S
H404 C427 0.950 . S
H405 C429 0.950 . S
H406 C430 0.950 . S
H407 C431 0.951 . S
H408 C433 0.951 . S
H409 C435 0.950 . S
H410 C436 0.950 . S
H411 C438 0.950 . S
H412 C441 0.950 . S
H413 C442 0.950 . S
H414 C444 0.950 . S
H415 C445 0.950 . S
C416 H398 0.951 . S
C416 C417 1.366 . S
C416 C418 1.388 . S
C417 C416 1.366 . S
C417 C421 1.385 . S
C418 H399 0.951 . S
C418 C416 1.388 . S
C418 C419 1.366 . S
C419 C418 1.366 . S
C419 C420 1.414 . S
C419 C422 1.499 . S
C420 H400 0.950 . S
C420 C419 1.414 . S
C420 C421 1.374 . S
C421 H401 0.950 . S
C421 C417 1.385 . S
C421 C420 1.374 . S
C422 C419 1.499 . S
C422 C423 1.373 . S
C422 C424 1.389 . S
C423 H402 0.950 . S
C423 C422 1.373 . S
C423 C439 1.377 . S
C424 C422 1.389 . S
C424 C425 1.524 . S
C424 C438 1.377 . S
C425 C424 1.524 . S
C425 C426 1.397 . S
C425 C430 1.363 . S
C426 H403 0.950 . S
C426 C425 1.397 . S
C426 C427 1.334 . S
C427 H404 0.950 . S
C427 C426 1.334 . S
C427 C428 1.287 . S
C428 C427 1.287 . S
C428 C429 1.524 . S
C428 H447 0.913 . S
C429 H405 0.950 . S
C429 C428 1.524 . S
C429 C430 1.415 . S
C430 H406 0.950 . S
C430 C425 1.363 . S
C430 C429 1.415 . S
C431 H407 0.951 . S
C431 C432 1.366 . S
C431 C433 1.388 1_545 S
C432 C431 1.366 . S
C432 C436 1.385 . S
C433 H408 0.951 . S
C433 C431 1.388 1_565 S
C433 C434 1.366 . S
C434 C433 1.366 . S
C434 C435 1.414 . S
C434 C437 1.499 . S
C435 H409 0.950 . S
C435 C434 1.414 . S
C435 C436 1.374 1_565 S
C436 H410 0.950 . S
C436 C432 1.385 . S
C436 C435 1.374 1_545 S
C437 C434 1.499 . S
C437 C438 1.373 . S
C437 C439 1.389 . S
C438 H411 0.950 . S
C438 C424 1.377 . S
C438 C437 1.373 . S
C439 C423 1.377 . S
C439 C437 1.389 . S
C439 C440 1.524 . S
C440 C439 1.524 . S
C440 C441 1.397 . S
C440 C445 1.363 . S
C441 H412 0.950 . S
C441 C440 1.397 . S
C441 C442 1.334 . S
C442 H413 0.950 . S
C442 C441 1.334 . S
C442 C443 1.287 . S
C443 C442 1.287 . S
C443 C444 1.524 . S
C443 H446 0.999 . S
C444 H414 0.950 . S
C444 C443 1.524 . S
C444 C445 1.415 . S
C445 H415 0.950 . S
C445 C440 1.363 . S
C445 C444 1.415 . S
H446 C443 0.999 . S
H447 C428 0.913 . S
H448 C466 0.951 . S
H449 C468 0.951 . S
H450 C470 0.950 . S
H451 C471 0.950 . S
H452 C473 0.950 . S
H453 C476 0.950 . S
H454 C477 0.950 . S
H455 C479 0.950 . S
H456 C480 0.950 . S
H457 C481 0.951 . S
H458 C483 0.951 . S
H459 C485 0.950 . S
H460 C486 0.950 . S
H461 C488 0.950 . S
H462 C491 0.950 . S
H463 C492 0.950 . S
H464 C494 0.950 . S
H465 C495 0.950 . S
C466 H448 0.951 . S
C466 C467 1.366 . S
C466 C468 1.388 1_655 S
C467 C466 1.366 . S
C467 C471 1.385 . S
C468 H449 0.951 . S
C468 C466 1.388 1_455 S
C468 C469 1.366 . S
C469 C468 1.366 . S
C469 C470 1.414 . S
C469 C472 1.499 . S
C470 H450 0.950 . S
C470 C469 1.414 . S
C470 C471 1.374 1_455 S
C471 H451 0.950 . S
C471 C467 1.385 . S
C471 C470 1.374 1_655 S
C472 C469 1.499 . S
C472 C473 1.373 . S
C472 C474 1.389 . S
C473 H452 0.950 . S
C473 C472 1.373 . S
C473 C489 1.377 . S
C474 C472 1.389 . S
C474 C475 1.524 . S
C474 C488 1.377 . S
C475 C474 1.524 . S
C475 C476 1.397 . S
C475 C480 1.363 . S
C476 H453 0.950 . S
C476 C475 1.397 . S
C476 C477 1.334 1_455 S
C477 H454 0.950 . S
C477 C476 1.334 1_655 S
C477 C478 1.287 . S
C478 C477 1.287 . S
C478 C479 1.524 1_655 S
C478 H497 0.913 . S
C479 H455 0.950 . S
C479 C478 1.524 1_455 S
C479 C480 1.415 . S
C480 H456 0.950 . S
C480 C475 1.363 . S
C480 C479 1.415 . S
C481 H457 0.951 . S
C481 C482 1.366 . S
C481 C483 1.388 . S
C482 C481 1.366 . S
C482 C486 1.385 . S
C483 H458 0.951 . S
C483 C481 1.388 . S
C483 C484 1.366 . S
C484 C483 1.366 . S
C484 C485 1.414 . S
C484 C487 1.499 . S
C485 H459 0.950 . S
C485 C484 1.414 . S
C485 C486 1.374 . S
C486 H460 0.950 . S
C486 C482 1.385 . S
C486 C485 1.374 . S
C487 C484 1.499 . S
C487 C488 1.373 . S
C487 C489 1.389 . S
C488 H461 0.950 . S
C488 C474 1.377 . S
C488 C487 1.373 . S
C489 C473 1.377 . S
C489 C487 1.389 . S
C489 C490 1.524 . S
C490 C489 1.524 . S
C490 C491 1.397 . S
C490 C495 1.363 . S
C491 H462 0.950 . S
C491 C490 1.397 . S
C491 C492 1.334 . S
C492 H463 0.950 . S
C492 C491 1.334 . S
C492 C493 1.287 . S
C493 C492 1.287 . S
C493 C494 1.524 . S
C493 H496 0.999 . S
C494 H464 0.950 . S
C494 C493 1.524 . S
C494 C495 1.415 . S
C495 H465 0.950 . S
C495 C490 1.363 . S
C495 C494 1.415 . S
H496 C493 0.999 . S
H497 C478 0.913 . S
H498 C516 0.951 . S
H499 C518 0.951 . S
H500 C520 0.950 . S
H501 C521 0.950 . S
H502 C523 0.950 . S
H503 C526 0.950 . S
H504 C527 0.950 . S
H505 C529 0.950 . S
H506 C530 0.950 . S
H507 C531 0.951 . S
H508 C533 0.951 . S
H509 C535 0.950 . S
H510 C536 0.950 . S
H511 C538 0.950 . S
H512 C541 0.950 . S
H513 C542 0.950 . S
H514 C544 0.950 . S
H515 C545 0.950 . S
C516 H498 0.951 . S
C516 C517 1.366 . S
C516 C518 1.388 . S
C517 C516 1.366 . S
C517 C521 1.385 . S
C518 H499 0.951 . S
C518 C516 1.388 . S
C518 C519 1.366 . S
C519 C518 1.366 . S
C519 C520 1.414 . S
C519 C522 1.499 . S
C520 H500 0.950 . S
C520 C519 1.414 . S
C520 C521 1.374 . S
C521 H501 0.950 . S
C521 C517 1.385 . S
C521 C520 1.374 . S
C522 C519 1.499 . S
C522 C523 1.373 . S
C522 C524 1.389 . S
C523 H502 0.950 . S
C523 C522 1.373 . S
C523 C539 1.377 . S
C524 C522 1.389 . S
C524 C525 1.524 . S
C524 C538 1.377 . S
C525 C524 1.524 . S
C525 C526 1.397 . S
C525 C530 1.363 . S
C526 H503 0.950 . S
C526 C525 1.397 . S
C526 C527 1.334 . S
C527 H504 0.950 . S
C527 C526 1.334 . S
C527 C528 1.287 . S
C528 C527 1.287 . S
C528 C529 1.524 . S
C528 H547 0.913 . S
C529 H505 0.950 . S
C529 C528 1.524 . S
C529 C530 1.415 . S
C530 H506 0.950 . S
C530 C525 1.363 . S
C530 C529 1.415 . S
C531 H507 0.951 . S
C531 C532 1.366 . S
C531 C533 1.388 . S
C532 C531 1.366 . S
C532 C536 1.385 . S
C533 H508 0.951 . S
C533 C531 1.388 . S
C533 C534 1.366 . S
C534 C533 1.366 . S
C534 C535 1.414 . S
C534 C537 1.499 . S
C535 H509 0.950 . S
C535 C534 1.414 . S
C535 C536 1.374 . S
C536 H510 0.950 . S
C536 C532 1.385 . S
C536 C535 1.374 . S
C537 C534 1.499 . S
C537 C538 1.373 . S
C537 C539 1.389 . S
C538 H511 0.950 . S
C538 C524 1.377 . S
C538 C537 1.373 . S
C539 C523 1.377 . S
C539 C537 1.389 . S
C539 C540 1.524 . S
C540 C539 1.524 . S
C540 C541 1.397 . S
C540 C545 1.363 . S
C541 H512 0.950 . S
C541 C540 1.397 . S
C541 C542 1.334 . S
C542 H513 0.950 . S
C542 C541 1.334 . S
C542 C543 1.287 . S
C543 C542 1.287 . S
C543 C544 1.524 . S
C543 H546 0.999 . S
C544 H514 0.950 . S
C544 C543 1.524 . S
C544 C545 1.415 . S
C545 H515 0.950 . S
C545 C540 1.363 . S
C545 C544 1.415 . S
H546 C543 0.999 . S
H547 C528 0.913 . S
H548 C566 0.951 . S
H549 C568 0.951 . S
H550 C570 0.950 . S
H551 C571 0.950 . S
H552 C573 0.950 . S
H553 C576 0.950 . S
H554 C577 0.950 . S
H555 C579 0.950 . S
H556 C580 0.950 . S
H557 C581 0.951 . S
H558 C583 0.951 . S
H559 C585 0.950 . S
H560 C586 0.950 . S
H561 C588 0.950 . S
H562 C591 0.950 . S
H563 C592 0.950 1_565 S
H564 C594 0.950 . S
H565 C595 0.950 . S
C566 H548 0.951 . S
C566 C567 1.366 . S
C566 C568 1.388 . S
C567 C566 1.366 . S
C567 C571 1.385 . S
C568 H549 0.951 . S
C568 C566 1.388 . S
C568 C569 1.366 . S
C569 C568 1.366 . S
C569 C570 1.414 . S
C569 C572 1.499 . S
C570 H550 0.950 . S
C570 C569 1.414 . S
C570 C571 1.374 . S
C571 H551 0.950 . S
C571 C567 1.385 . S
C571 C570 1.374 . S
C572 C569 1.499 . S
C572 C573 1.373 . S
C572 C574 1.389 . S
C573 H552 0.950 . S
C573 C572 1.373 . S
C573 C589 1.377 . S
C574 C572 1.389 . S
C574 C575 1.524 . S
C574 C588 1.377 . S
C575 C574 1.524 . S
C575 C576 1.397 . S
C575 C580 1.363 . S
C576 H553 0.950 . S
C576 C575 1.397 . S
C576 C577 1.334 . S
C577 H554 0.950 . S
C577 C576 1.334 . S
C577 C578 1.287 . S
C578 C577 1.287 . S
C578 C579 1.524 . S
C578 H597 0.913 . S
C579 H555 0.950 . S
C579 C578 1.524 . S
C579 C580 1.415 . S
C580 H556 0.950 . S
C580 C575 1.363 . S
C580 C579 1.415 . S
C581 H557 0.951 . S
C581 C582 1.366 . S
C581 C583 1.388 1_565 S
C582 C581 1.366 . S
C582 C586 1.385 . S
C583 H558 0.951 . S
C583 C581 1.388 1_545 S
C583 C584 1.366 . S
C584 C583 1.366 . S
C584 C585 1.414 . S
C584 C587 1.499 . S
C585 H559 0.950 . S
C585 C584 1.414 . S
C585 C586 1.374 1_545 S
C586 H560 0.950 . S
C586 C582 1.385 . S
C586 C585 1.374 1_565 S
C587 C584 1.499 . S
C587 C588 1.373 . S
C587 C589 1.389 . S
C588 H561 0.950 . S
C588 C574 1.377 . S
C588 C587 1.373 . S
C589 C573 1.377 . S
C589 C587 1.389 . S
C589 C590 1.524 . S
C590 C589 1.524 . S
C590 C591 1.397 . S
C590 C595 1.363 . S
C591 H562 0.950 . S
C591 C590 1.397 . S
C591 C592 1.334 . S
C592 H563 0.950 1_545 S
C592 C591 1.334 . S
C592 C593 1.287 . S
C593 C592 1.287 . S
C593 C594 1.524 . S
C593 H596 0.999 . S
C594 H564 0.950 . S
C594 C593 1.524 . S
C594 C595 1.415 . S
C595 H565 0.950 . S
C595 C590 1.363 . S
C595 C594 1.415 . S
H596 C593 0.999 . S
H597 C578 0.913 . S
H598 C616 0.951 . S
H599 C618 0.951 . S
H600 C620 0.950 . S
H601 C621 0.950 . S
H602 C623 0.950 . S
H603 C626 0.950 . S
H604 C627 0.950 . S
H605 C629 0.950 . S
H606 C630 0.950 . S
H607 C631 0.951 . S
H608 C633 0.951 . S
H609 C635 0.950 . S
H610 C636 0.950 . S
H611 C638 0.950 . S
H612 C641 0.950 . S
H613 C642 0.950 . S
H614 C644 0.950 . S
H615 C645 0.950 . S
C616 H598 0.951 . S
C616 C617 1.366 . S
C616 C618 1.388 1_455 S
C617 C616 1.366 . S
C617 C621 1.385 . S
C618 H599 0.951 . S
C618 C616 1.388 1_655 S
C618 C619 1.366 . S
C619 C618 1.366 . S
C619 C620 1.414 . S
C619 C622 1.499 . S
C620 H600 0.950 . S
C620 C619 1.414 . S
C620 C621 1.374 1_655 S
C621 H601 0.950 . S
C621 C617 1.385 . S
C621 C620 1.374 1_455 S
C622 C619 1.499 . S
C622 C623 1.373 . S
C622 C624 1.389 . S
C623 H602 0.950 . S
C623 C622 1.373 . S
C623 C639 1.377 . S
C624 C622 1.389 . S
C624 C625 1.524 . S
C624 C638 1.377 . S
C625 C624 1.524 . S
C625 C626 1.397 . S
C625 C630 1.363 . S
C626 H603 0.950 . S
C626 C625 1.397 . S
C626 C627 1.334 . S
C627 H604 0.950 . S
C627 C626 1.334 . S
C627 C628 1.287 . S
C628 C627 1.287 . S
C628 C629 1.524 . S
C628 H647 0.913 . S
C629 H605 0.950 . S
C629 C628 1.524 . S
C629 C630 1.415 . S
C630 H606 0.950 . S
C630 C625 1.363 . S
C630 C629 1.415 . S
C631 H607 0.951 . S
C631 C632 1.366 . S
C631 C633 1.388 . S
C632 C631 1.366 . S
C632 C636 1.385 . S
C633 H608 0.951 . S
C633 C631 1.388 . S
C633 C634 1.366 . S
C634 C633 1.366 . S
C634 C635 1.414 . S
C634 C637 1.499 . S
C635 H609 0.950 . S
C635 C634 1.414 . S
C635 C636 1.374 . S
C636 H610 0.950 . S
C636 C632 1.385 . S
C636 C635 1.374 . S
C637 C634 1.499 . S
C637 C638 1.373 . S
C637 C639 1.389 . S
C638 H611 0.950 . S
C638 C624 1.377 . S
C638 C637 1.373 . S
C639 C623 1.377 . S
C639 C637 1.389 . S
C639 C640 1.524 . S
C640 C639 1.524 . S
C640 C641 1.397 . S
C640 C645 1.363 . S
C641 H612 0.950 . S
C641 C640 1.397 . S
C641 C642 1.334 . S
C642 H613 0.950 . S
C642 C641 1.334 . S
C642 C643 1.287 . S
C643 C642 1.287 . S
C643 C644 1.524 . S
C643 H646 0.999 . S
C644 H614 0.950 . S
C644 C643 1.524 . S
C644 C645 1.415 . S
C645 H615 0.950 . S
C645 C640 1.363 . S
C645 C644 1.415 . S
H646 C643 0.999 . S
H647 C628 0.913 . S
H648 C666 0.951 . S
H649 C668 0.951 1_545 S
H650 C670 0.950 . S
H651 C671 0.950 . S
H652 C673 0.950 1_565 S
H653 C676 0.950 . S
H654 C677 0.950 . S
H655 C679 0.950 . S
H656 C680 0.950 . S
H657 C681 0.951 . S
H658 C683 0.951 . S
H659 C685 0.950 . S
H660 C686 0.950 . S
H661 C688 0.950 . S
H662 C691 0.950 . S
H663 C692 0.950 . S
H664 C694 0.950 1_565 S
H665 C695 0.950 1_565 S
C666 H648 0.951 . S
C666 C667 1.366 . S
C666 C668 1.388 . S
C667 C666 1.366 . S
C667 C671 1.385 . S
C668 H649 0.951 1_565 S
C668 C666 1.388 . S
C668 C669 1.366 . S
C669 C668 1.366 . S
C669 C670 1.414 . S
C669 C672 1.499 1_565 S
C670 H650 0.950 . S
C670 C669 1.414 . S
C670 C671 1.374 . S
C671 H651 0.950 . S
C671 C667 1.385 . S
C671 C670 1.374 . S
C672 C669 1.499 1_545 S
C672 C673 1.373 . S
C672 C674 1.389 . S
C673 H652 0.950 1_545 S
C673 C672 1.373 . S
C673 C689 1.377 . S
C674 C672 1.389 . S
C674 C675 1.524 . S
C674 C688 1.377 . S
C675 C674 1.524 . S
C675 C676 1.397 1_545 S
C675 C680 1.363 . S
C676 H653 0.950 . S
C676 C675 1.397 1_565 S
C676 C677 1.334 . S
C677 H654 0.950 . S
C677 C676 1.334 . S
C677 C678 1.287 1_565 S
C678 C677 1.287 1_545 S
C678 C679 1.524 . S
C678 H697 0.913 . S
C679 H655 0.950 . S
C679 C678 1.524 . S
C679 C680 1.415 . S
C680 H656 0.950 . S
C680 C675 1.363 . S
C680 C679 1.415 . S
C681 H657 0.951 . S
C681 C682 1.366 . S
C681 C683 1.388 . S
C682 C681 1.366 . S
C682 C686 1.385 . S
C683 H658 0.951 . S
C683 C681 1.388 . S
C683 C684 1.366 . S
C684 C683 1.366 . S
C684 C685 1.414 . S
C684 C687 1.499 . S
C685 H659 0.950 . S
C685 C684 1.414 . S
C685 C686 1.374 . S
C686 H660 0.950 . S
C686 C682 1.385 . S
C686 C685 1.374 . S
C687 C684 1.499 . S
C687 C688 1.373 . S
C687 C689 1.389 . S
C688 H661 0.950 . S
C688 C674 1.377 . S
C688 C687 1.373 . S
C689 C673 1.377 . S
C689 C687 1.389 . S
C689 C690 1.524 . S
C690 C689 1.524 . S
C690 C691 1.397 . S
C690 C695 1.363 . S
C691 H662 0.950 . S
C691 C690 1.397 . S
C691 C692 1.334 . S
C692 H663 0.950 . S
C692 C691 1.334 . S
C692 C693 1.287 . S
C693 C692 1.287 . S
C693 C694 1.524 . S
C693 H696 0.999 . S
C694 H664 0.950 1_545 S
C694 C693 1.524 . S
C694 C695 1.415 . S
C695 H665 0.950 1_545 S
C695 C690 1.363 . S
C695 C694 1.415 . S
H696 C693 0.999 . S
H697 C678 0.913 . S
H698 C716 0.951 . S
H699 C718 0.951 . S
H700 C720 0.950 . S
H701 C721 0.950 . S
H702 C723 0.950 . S
H703 C726 0.950 . S
H704 C727 0.950 . S
H705 C729 0.950 . S
H706 C730 0.950 . S
H707 C731 0.951 . S
H708 C733 0.951 . S
H709 C735 0.950 1_655 S
H710 C736 0.950 . S
H711 C738 0.950 . S
H712 C741 0.950 . S
H713 C742 0.950 . S
H714 C744 0.950 . S
H715 C745 0.950 . S
C716 H698 0.951 . S
C716 C717 1.366 . S
C716 C718 1.388 . S
C717 C716 1.366 . S
C717 C721 1.385 . S
C718 H699 0.951 . S
C718 C716 1.388 . S
C718 C719 1.366 . S
C719 C718 1.366 . S
C719 C720 1.414 . S
C719 C722 1.499 . S
C720 H700 0.950 . S
C720 C719 1.414 . S
C720 C721 1.374 . S
C721 H701 0.950 . S
C721 C717 1.385 . S
C721 C720 1.374 . S
C722 C719 1.499 . S
C722 C723 1.373 . S
C722 C724 1.389 1_556 S
C723 H702 0.950 . S
C723 C722 1.373 . S
C723 C739 1.377 1_556 S
C724 C722 1.389 1_554 S
C724 C725 1.519 1_554 S
C724 C738 1.377 . S
C725 C724 1.519 1_556 S
C725 C726 1.454 . S
C725 C730 1.314 1_556 S
C726 H703 0.950 . S
C726 C725 1.454 . S
C726 C727 1.334 . S
C727 H704 0.950 . S
C727 C726 1.334 . S
C727 C728 1.287 . S
C728 C727 1.287 . S
C728 C729 1.524 1_556 S
C728 H747 0.913 . S
C729 H705 0.950 . S
C729 C728 1.524 1_554 S
C729 C730 1.415 . S
C730 H706 0.950 . S
C730 C725 1.314 1_554 S
C730 C729 1.415 . S
C731 H707 0.951 . S
C731 C732 1.366 . S
C731 C733 1.388 . S
C732 C731 1.366 . S
C732 C736 1.385 . S
C733 H708 0.951 . S
C733 C731 1.388 . S
C733 C734 1.366 . S
C734 C733 1.366 . S
C734 C735 1.414 . S
C734 C737 1.499 1_455 S
C735 H709 0.950 1_455 S
C735 C734 1.414 . S
C735 C736 1.374 . S
C736 H710 0.950 . S
C736 C732 1.385 . S
C736 C735 1.374 . S
C737 C734 1.499 1_655 S
C737 C738 1.373 . S
C737 C739 1.389 . S
C738 H711 0.950 . S
C738 C724 1.377 . S
C738 C737 1.373 . S
C739 C723 1.377 1_554 S
C739 C737 1.389 . S
C739 C740 1.524 1_655 S
C740 C739 1.524 1_455 S
C740 C741 1.397 . S
C740 C745 1.363 1_554 S
C741 H712 0.950 . S
C741 C740 1.397 . S
C741 C742 1.334 . S
C742 H713 0.950 . S
C742 C741 1.334 . S
C742 C743 1.287 . S
C743 C742 1.287 . S
C743 C744 1.524 1_554 S
C743 H746 0.999 . S
C744 H714 0.950 . S
C744 C743 1.524 1_556 S
C744 C745 1.415 . S
C745 H715 0.950 . S
C745 C740 1.363 1_556 S
C745 C744 1.415 . S
H746 C743 0.999 . S
H747 C728 0.913 . S
H748 C766 0.951 . S
H749 C768 0.951 . S
H750 C770 0.950 . S
H751 C771 0.950 . S
H752 C773 0.950 . S
H753 C776 0.950 . S
H754 C777 0.950 . S
H755 C779 0.950 . S
H756 C780 0.950 . S
H757 C781 0.951 . S
H758 C783 0.951 . S
H759 C785 0.950 . S
H760 C786 0.950 . S
H761 C788 0.950 . S
H762 C791 0.950 . S
H763 C792 0.950 . S
H764 C794 0.950 . S
H765 C795 0.950 . S
C766 H748 0.951 . S
C766 C767 1.366 . S
C766 C768 1.388 . S
C767 C766 1.366 . S
C767 C771 1.385 . S
C768 H749 0.951 . S
C768 C766 1.388 . S
C768 C769 1.366 . S
C769 C768 1.366 . S
C769 C770 1.414 . S
C769 C772 1.499 . S
C770 H750 0.950 . S
C770 C769 1.414 . S
C770 C771 1.374 . S
C771 H751 0.950 . S
C771 C767 1.385 . S
C771 C770 1.374 . S
C772 C769 1.499 . S
C772 C773 1.373 . S
C772 C774 1.389 . S
C773 H752 0.950 . S
C773 C772 1.373 . S
C773 C789 1.377 . S
C774 C772 1.389 . S
C774 C775 1.524 . S
C774 C788 1.377 . S
C775 C774 1.524 . S
C775 C776 1.397 . S
C775 C780 1.363 . S
C776 H753 0.950 . S
C776 C775 1.397 . S
C776 C777 1.334 . S
C777 H754 0.950 . S
C777 C776 1.334 . S
C777 C778 1.287 . S
C778 C777 1.287 . S
C778 C779 1.524 . S
C778 H797 0.913 . S
C779 H755 0.950 . S
C779 C778 1.524 . S
C779 C780 1.415 . S
C780 H756 0.950 . S
C780 C775 1.363 . S
C780 C779 1.415 . S
C781 H757 0.951 . S
C781 C782 1.366 . S
C781 C783 1.388 . S
C782 C781 1.366 . S
C782 C786 1.385 . S
C783 H758 0.951 . S
C783 C781 1.388 . S
C783 C784 1.366 . S
C784 C783 1.366 . S
C784 C785 1.414 . S
C784 C787 1.499 . S
C785 H759 0.950 . S
C785 C784 1.414 . S
C785 C786 1.374 . S
C786 H760 0.950 . S
C786 C782 1.385 . S
C786 C785 1.374 . S
C787 C784 1.499 . S
C787 C788 1.373 . S
C787 C789 1.389 . S
C788 H761 0.950 . S
C788 C774 1.377 . S
C788 C787 1.373 . S
C789 C773 1.377 . S
C789 C787 1.389 . S
C789 C790 1.524 . S
C790 C789 1.524 . S
C790 C791 1.397 . S
C790 C795 1.363 . S
C791 H762 0.950 . S
C791 C790 1.397 . S
C791 C792 1.334 . S
C792 H763 0.950 . S
C792 C791 1.334 . S
C792 C793 1.287 . S
C793 C792 1.287 . S
C793 C794 1.524 . S
C793 H796 0.999 . S
C794 H764 0.950 . S
C794 C793 1.524 . S
C794 C795 1.415 . S
C795 H765 0.950 . S
C795 C790 1.363 . S
C795 C794 1.415 . S
H796 C793 0.999 . S
H797 C778 0.913 . S
H798 C816 0.951 . S
H799 C818 0.951 . S
H800 C820 0.950 . S
H801 C821 0.950 . S
H802 C823 0.950 . S
H803 C826 0.950 . S
H804 C827 0.940 1_455 S
H805 C829 0.950 . S
H806 C830 0.950 . S
H807 C831 0.951 . S
H808 C833 0.951 . S
H809 C835 0.950 . S
H810 C836 0.950 . S
H811 C838 0.950 . S
H812 C841 0.950 . S
H813 C842 0.950 . S
H814 C844 0.950 . S
H815 C845 0.950 . S
C816 H798 0.951 . S
C816 C817 1.366 . S
C816 C818 1.388 . S
C817 C816 1.366 . S
C817 C821 1.385 . S
C818 H799 0.951 . S
C818 C816 1.388 . S
C818 C819 1.366 . S
C819 C818 1.366 . S
C819 C820 1.414 . S
C819 C822 1.499 . S
C820 H800 0.950 . S
C820 C819 1.414 . S
C820 C821 1.374 . S
C821 H801 0.950 . S
C821 C817 1.385 . S
C821 C820 1.374 . S
C822 C819 1.499 . S
C822 C823 1.373 . S
C822 C824 1.389 . S
C823 H802 0.950 . S
C823 C822 1.373 . S
C823 C839 1.377 . S
C824 C822 1.389 . S
C824 C825 1.524 . S
C824 C838 1.377 1_455 S
C825 C824 1.524 . S
C825 C826 1.397 . S
C825 C830 1.363 1_455 S
C826 H803 0.950 . S
C826 C825 1.397 . S
C826 C827 1.333 1_455 S
C827 H804 0.940 1_655 S
C827 C826 1.333 1_655 S
C827 C828 1.299 . S
C828 C827 1.299 . S
C828 C829 1.524 . S
C828 H847 0.913 . S
C829 H805 0.950 . S
C829 C828 1.524 . S
C829 C830 1.415 . S
C830 H806 0.950 . S
C830 C825 1.363 1_655 S
C830 C829 1.415 . S
C831 H807 0.951 . S
C831 C832 1.366 . S
C831 C833 1.388 . S
C832 C831 1.366 . S
C832 C836 1.385 . S
C833 H808 0.951 . S
C833 C831 1.388 . S
C833 C834 1.366 . S
C834 C833 1.366 . S
C834 C835 1.414 . S
C834 C837 1.499 1_655 S
C835 H809 0.950 . S
C835 C834 1.414 . S
C835 C836 1.374 . S
C836 H810 0.950 . S
C836 C832 1.385 . S
C836 C835 1.374 . S
C837 C834 1.499 1_455 S
C837 C838 1.373 1_455 S
C837 C839 1.389 . S
C838 H811 0.950 . S
C838 C824 1.377 1_655 S
C838 C837 1.373 1_655 S
C839 C823 1.377 . S
C839 C837 1.389 . S
C839 C840 1.524 . S
C840 C839 1.524 . S
C840 C841 1.397 . S
C840 C845 1.363 . S
C841 H812 0.950 . S
C841 C840 1.397 . S
C841 C842 1.334 . S
C842 H813 0.950 . S
C842 C841 1.334 . S
C842 C843 1.287 . S
C843 C842 1.287 . S
C843 C844 1.524 . S
C843 H846 0.999 . S
C844 H814 0.950 . S
C844 C843 1.524 . S
C844 C845 1.415 . S
C845 H815 0.950 . S
C845 C840 1.363 . S
C845 C844 1.415 . S
H846 C843 0.999 . S
H847 C828 0.913 . S
H848 C866 0.951 . S
H849 C868 0.951 . S
H850 C870 0.950 . S
H851 C871 0.950 . S
H852 C873 0.950 . S
H853 C876 0.950 . S
H854 C877 0.950 . S
H855 C879 0.950 . S
H856 C880 0.950 . S
H857 C881 0.951 . S
H858 C883 0.951 . S
H859 C885 0.950 . S
H860 C886 0.950 . S
H861 C888 0.950 . S
H862 C891 0.950 . S
H863 C892 0.950 . S
H864 C894 0.950 . S
H865 C895 0.950 . S
C866 H848 0.951 . S
C866 C867 1.366 . S
C866 C868 1.388 . S
C867 C866 1.366 . S
C867 C871 1.385 . S
C868 H849 0.951 . S
C868 C866 1.388 . S
C868 C869 1.366 . S
C869 C868 1.366 . S
C869 C870 1.414 . S
C869 C872 1.499 . S
C870 H850 0.950 . S
C870 C869 1.414 . S
C870 C871 1.374 . S
C871 H851 0.950 . S
C871 C867 1.385 . S
C871 C870 1.374 . S
C872 C869 1.499 . S
C872 C873 1.373 . S
C872 C874 1.389 . S
C873 H852 0.950 . S
C873 C872 1.373 . S
C873 C889 1.377 . S
C874 C872 1.389 . S
C874 C875 1.524 . S
C874 C888 1.377 . S
C875 C874 1.524 . S
C875 C876 1.397 . S
C875 C880 1.363 . S
C876 H853 0.950 . S
C876 C875 1.397 . S
C876 C877 1.334 . S
C877 H854 0.950 . S
C877 C876 1.334 . S
C877 C878 1.287 . S
C878 C877 1.287 . S
C878 C879 1.524 . S
C878 H897 0.913 . S
C879 H855 0.950 . S
C879 C878 1.524 . S
C879 C880 1.415 . S
C880 H856 0.950 . S
C880 C875 1.363 . S
C880 C879 1.415 . S
C881 H857 0.951 . S
C881 C882 1.366 . S
C881 C883 1.388 . S
C882 C881 1.366 . S
C882 C886 1.385 . S
C883 H858 0.951 . S
C883 C881 1.388 . S
C883 C884 1.366 . S
C884 C883 1.366 . S
C884 C885 1.414 . S
C884 C887 1.499 . S
C885 H859 0.950 . S
C885 C884 1.414 . S
C885 C886 1.374 . S
C886 H860 0.950 . S
C886 C882 1.385 . S
C886 C885 1.374 . S
C887 C884 1.499 . S
C887 C888 1.373 . S
C887 C889 1.389 . S
C888 H861 0.950 . S
C888 C874 1.377 . S
C888 C887 1.373 . S
C889 C873 1.377 . S
C889 C887 1.389 . S
C889 C890 1.524 . S
C890 C889 1.524 . S
C890 C891 1.397 . S
C890 C895 1.363 . S
C891 H862 0.950 . S
C891 C890 1.397 . S
C891 C892 1.334 . S
C892 H863 0.950 . S
C892 C891 1.334 . S
C892 C893 1.287 . S
C893 C892 1.287 . S
C893 C894 1.524 . S
C893 H896 0.999 . S
C894 H864 0.950 . S
C894 C893 1.524 . S
C894 C895 1.415 . S
C895 H865 0.950 . S
C895 C890 1.363 . S
C895 C894 1.415 . S
H896 C893 0.999 . S
H897 C878 0.913 . S
H898 C916 0.951 . S
H899 C918 0.951 . S
H900 C920 0.950 . S
H901 C921 0.950 . S
H902 C923 0.948 1_554 S
H903 C926 0.950 . S
H904 C927 0.950 . S
H905 C929 0.950 . S
H906 C930 0.950 . S
H907 C931 0.951 . S
H908 C933 0.951 . S
H909 C935 0.950 . S
H910 C936 0.950 . S
H911 C938 0.950 . S
H912 C941 0.950 . S
H913 C942 0.949 1_565 S
H914 C944 0.950 . S
H915 C945 0.950 . S
C916 H898 0.951 . S
C916 C917 1.366 . S
C916 C918 1.388 . S
C917 C916 1.366 . S
C917 C921 1.385 . S
C918 H899 0.951 . S
C918 C916 1.388 . S
C918 C919 1.366 . S
C919 C918 1.366 . S
C919 C920 1.414 . S
C919 C922 1.499 1_545 S
C920 H900 0.950 . S
C920 C919 1.414 . S
C920 C921 1.374 . S
C921 H901 0.950 . S
C921 C917 1.385 . S
C921 C920 1.374 . S
C922 C919 1.499 1_565 S
C922 C923 1.373 1_565 S
C922 C924 1.389 . S
C923 H902 0.948 1_556 S
C923 C922 1.373 1_545 S
C923 C939 1.377 1_546 S
C924 C922 1.389 . S
C924 C925 1.524 . S
C924 C938 1.377 . S
C925 C924 1.524 . S
C925 C926 1.397 . S
C925 C930 1.363 . S
C926 H903 0.950 . S
C926 C925 1.397 . S
C926 C927 1.334 . S
C927 H904 0.950 . S
C927 C926 1.334 . S
C927 C928 1.287 . S
C928 C927 1.287 . S
C928 C929 1.524 . S
C928 H947 0.913 . S
C929 H905 0.950 . S
C929 C928 1.524 . S
C929 C930 1.415 . S
C930 H906 0.950 . S
C930 C925 1.363 . S
C930 C929 1.415 . S
C931 H907 0.951 . S
C931 C932 1.366 . S
C931 C933 1.388 . S
C932 C931 1.366 . S
C932 C936 1.385 . S
C933 H908 0.951 . S
C933 C931 1.388 . S
C933 C934 1.366 . S
C934 C933 1.366 . S
C934 C935 1.414 . S
C934 C937 1.499 . S
C935 H909 0.950 . S
C935 C934 1.414 . S
C935 C936 1.374 . S
C936 H910 0.950 . S
C936 C932 1.385 . S
C936 C935 1.374 . S
C937 C934 1.499 . S
C937 C938 1.373 1_554 S
C937 C939 1.389 . S
C938 H911 0.950 . S
C938 C924 1.377 . S
C938 C937 1.373 1_556 S
C939 C923 1.377 1_564 S
C939 C937 1.389 . S
C939 C940 1.524 . S
C940 C939 1.524 . S
C940 C941 1.397 . S
C940 C945 1.363 1_565 S
C941 H912 0.950 . S
C941 C940 1.397 . S
C941 C942 1.333 1_565 S
C942 H913 0.949 1_545 S
C942 C941 1.333 1_545 S
C942 C943 1.290 . S
C943 C942 1.290 . S
C943 C944 1.524 . S
C943 H946 0.999 . S
C944 H914 0.950 . S
C944 C943 1.524 . S
C944 C945 1.415 . S
C945 H915 0.950 . S
C945 C940 1.363 1_545 S
C945 C944 1.415 . S
H946 C943 0.999 . S
H947 C928 0.913 . S
C217 C7 1.406 . S
C232 C172 1.407 . S
C267 C106 1.406 . S
C282 C40 1.406 . S
C317 C139 1.406 . S
C332 C73 1.406 . S
C367 C186 1.075 . S
C382 N13 1.064 . S
C417 C120 1.075 . S
C432 N46 1.064 . S
C467 N79 1.064 . S
C482 C153 1.076 . S
C517 C54 1.075 . S
C532 N112 1.064 . S
C567 C87 1.076 . S
C582 N145 1.064 . S
C617 N178 1.064 . S
C632 C21 1.076 . S
C667 C150 1.643 . S
C682 N2 1.595 . S
C717 N35 1.595 . S
C732 C183 1.643 . S
C767 C117 1.643 . S
C782 N68 1.596 . S
C817 N101 1.595 . S
C832 C84 1.643 . S
C867 C18 1.643 . S
C882 N134 1.595 . S
C917 C51 1.643 . S
C932 N167 1.595 . S
