# Generated by pormake.
# Topology vme, (6)-cn, num edge types: 1
# Building blocks:
#     Node 0, Type 0, BuildingBlock: IZENUY_clean_sbu_0, # of connection points: 6
#     Node 1, Type 0, BuildingBlock: IZENUY_clean_sbu_0, # of connection points: 6
#     Node 2, Type 0, BuildingBlock: IZENUY_clean_sbu_0, # of connection points: 6
#     Node 3, Type 0, BuildingBlock: IZENUY_clean_sbu_0, # of connection points: 6
#     Edge 4, Type (0, 0), BuildingBlock: ZUJKAS_clean_linker_0, # of connection points: 2
#     Edge 5, Type (0, 0), BuildingBlock: ZUJKAS_clean_linker_0, # of connection points: 2
#     Edge 6, Type (0, 0), BuildingBlock: ZUJKAS_clean_linker_0, # of connection points: 2
#     Edge 7, Type (0, 0), BuildingBlock: ZUJKAS_clean_linker_0, # of connection points: 2
#     Edge 8, Type (0, 0), BuildingBlock: ZUJKAS_clean_linker_0, # of connection points: 2
#     Edge 9, Type (0, 0), BuildingBlock: ZUJKAS_clean_linker_0, # of connection points: 2
#     Edge 10, Type (0, 0), BuildingBlock: ZUJKAS_clean_linker_0, # of connection points: 2
#     Edge 11, Type (0, 0), BuildingBlock: ZUJKAS_clean_linker_0, # of connection points: 2
#     Edge 12, Type (0, 0), BuildingBlock: ZUJKAS_clean_linker_0, # of connection points: 2
#     Edge 13, Type (0, 0), BuildingBlock: ZUJKAS_clean_linker_0, # of connection points: 2
#     Edge 14, Type (0, 0), BuildingBlock: ZUJKAS_clean_linker_0, # of connection points: 2
#     Edge 15, Type (0, 0), BuildingBlock: ZUJKAS_clean_linker_0, # of connection points: 2
# Relax obj value: 0.240
# Max RMSD: 0.243
# Mean RMSD: 0.243
data_MOF--net-vme--node1-IZENUY_clean_sbu_0--edge1-ZUJKAS_clean_linker_0
_symmetry_space_group_name_H-M    P1
_symmetry_Int_Tables_number       1
_symmetry_cell_setting            triclinic
loop_
_symmetry_equiv_pos_as_xyz
'x, y, z'
_cell_length_a     32.999628
_cell_length_b     32.925478
_cell_length_c     35.837489
_cell_angle_alpha  88.738864
_cell_angle_beta   117.10853
_cell_angle_gamma 90.652064
loop_
_atom_site_label
_atom_site_type_symbol
_atom_site_fract_x
_atom_site_fract_y
_atom_site_fract_z
_atom_type_partial_charge
Fe0 Fe 0.14165 0.38898 0.34257 0.0
Fe1 Fe 0.22943 0.34071 0.39256 0.0
O2 O 0.19458 0.38295 0.38741 0.0
Fe3 Fe 0.21213 0.41917 0.42727 0.0
O4 O 0.16373 0.40816 0.4361 0.0
O5 O 0.11349 0.41463 0.37013 0.0
O6 O 0.12124 0.34205 0.35414 0.0
C7 C 0.13939 0.308 0.35689 0.0
C8 C 0.16885 0.46707 0.35171 0.0
O9 O 0.18088 0.30554 0.36422 0.0
C10 C 0.29212 0.40672 0.42499 0.0
O11 O 0.15961 0.36411 0.30682 0.0
O12 O 0.23303 0.35492 0.34516 0.0
O13 O 0.18299 0.46251 0.39106 0.0
O14 O 0.15955 0.43646 0.32883 0.0
C15 C 0.23838 0.34435 0.47202 0.0
O16 O 0.28385 0.3687 0.42206 0.0
O17 O 0.26165 0.43173 0.42068 0.0
C18 C 0.19876 0.35747 0.30972 0.0
O19 O 0.22752 0.32359 0.4398 0.0
O20 O 0.24357 0.38255 0.47071 0.0
C21 C 0.12325 0.41294 0.40872 0.0
Fe22 Fe 0.79479 0.84528 0.12732 0.0
Fe23 Fe 0.82414 0.9274 0.1047 0.0
O24 O 0.83424 0.88607 0.14058 0.0
Fe25 Fe 0.88457 0.88553 0.18894 0.0
O26 O 0.89126 0.83073 0.19301 0.0
O27 O 0.83804 0.80756 0.13372 0.0
O28 O 0.77992 0.84715 0.07132 0.0
C29 C 0.80208 0.86171 0.05306 0.0
C30 C 0.82233 0.85712 0.2142 0.0
O31 O 0.8256 0.89359 0.06602 0.0
C32 C 0.85652 0.96798 0.17801 0.0
O33 O 0.74835 0.87938 0.11999 0.0
O34 O 0.76219 0.92465 0.08152 0.0
O35 O 0.85262 0.88329 0.21901 0.0
O36 O 0.80327 0.83657 0.18108 0.0
C37 C 0.91757 0.91474 0.13602 0.0
O38 O 0.82331 0.96379 0.14196 0.0
O39 O 0.88655 0.9406 0.19415 0.0
C40 C 0.7362 0.90997 0.09551 0.0
O41 O 0.88388 0.93825 0.12056 0.0
O42 O 0.92033 0.88697 0.16194 0.0
C43 C 0.87526 0.80295 0.16654 0.0
Fe44 Fe 0.81526 0.58598 0.60316 0.0
Fe45 Fe 0.88503 0.62282 0.68467 0.0
O46 O 0.83054 0.62389 0.64117 0.0
Fe47 Fe 0.79184 0.66318 0.63539 0.0
O48 O 0.7901 0.68013 0.58646 0.0
O49 O 0.77935 0.61968 0.55867 0.0
O50 O 0.861 0.60033 0.5915 0.0
C51 C 0.90227 0.5996 0.61775 0.0
C52 C 0.73563 0.59255 0.60749 0.0
O53 O 0.91395 0.59933 0.65672 0.0
C54 C 0.82731 0.6494 0.71913 0.0
O55 O 0.84951 0.54553 0.6409 0.0
O56 O 0.87386 0.57412 0.70213 0.0
O57 O 0.74029 0.63101 0.60851 0.0
O58 O 0.76821 0.56987 0.61237 0.0
C59 C 0.8775 0.70347 0.6662 0.0
O60 O 0.86635 0.64628 0.7206 0.0
O61 O 0.79187 0.64882 0.68441 0.0
C62 C 0.86615 0.54263 0.68061 0.0
O63 O 0.89904 0.67126 0.66932 0.0
O64 O 0.83674 0.70218 0.6611 0.0
C65 C 0.78107 0.65805 0.55541 0.0
Fe66 Fe 0.23292 0.15729 0.90422 0.0
Fe67 Fe 0.20435 0.07533 0.92784 0.0
O68 O 0.19433 0.11579 0.89102 0.0
Fe69 Fe 0.1452 0.11497 0.84177 0.0
O70 O 0.13711 0.16972 0.83686 0.0
O71 O 0.18847 0.19414 0.89644 0.0
O72 O 0.24708 0.15609 0.96002 0.0
C73 C 0.22443 0.142 0.97794 0.0
C74 C 0.20806 0.14484 0.818 0.0
O75 O 0.20115 0.11 0.96514 0.0
C76 C 0.17467 0.0327 0.85586 0.0
O77 O 0.28021 0.12375 0.91277 0.0
O78 O 0.26635 0.07905 0.9518 0.0
O79 O 0.17895 0.11748 0.81326 0.0
O80 O 0.22527 0.16591 0.85079 0.0
C81 C 0.11006 0.08598 0.8933 0.0
O82 O 0.20681 0.03785 0.89229 0.0
O83 O 0.14484 0.05984 0.83768 0.0
C84 C 0.29247 0.09356 0.93783 0.0
O85 O 0.14467 0.06377 0.91116 0.0
O86 O 0.10752 0.11302 0.86678 0.0
C87 C 0.15154 0.1979 0.86308 0.0
H88 H 0.90453 0.98214 0.26068 0.0
H89 H 0.94377 0.04466 0.29232 0.0
H90 H 0.87581 0.10703 0.17252 0.0
H91 H 0.83712 0.04361 0.1402 0.0
H92 H 0.96629 0.11423 0.2053 0.0
H93 H 0.91617 0.15036 0.32816 0.0
H94 H 0.93457 0.09864 0.33333 0.0
H95 H 0.8845 0.115 0.28712 0.0
C96 C 0.89673 0.0095 0.2413 0.0
C97 C 0.86796 0.00801 0.19795 0.0
C98 C 0.91906 0.04535 0.25952 0.0
C99 C 0.91262 0.08066 0.23491 0.0
C100 C 0.88116 0.0801 0.19211 0.0
H101 H 0.05038 0.30547 0.34026 0.0
H102 H 0.99659 0.25023 0.31093 0.0
C103 C 0.85872 0.04401 0.17375 0.0
C104 C 0.94346 0.11584 0.25282 0.0
H105 H 0.98862 0.17725 0.33774 0.0
C106 C 0.97069 0.12848 0.23392 0.0
C107 C 0.94921 0.13443 0.29012 0.0
C108 C 0.91917 0.12416 0.31056 0.0
C109 C 1.0042 0.15852 0.25179 0.0
C110 C 1.01163 0.17553 0.29033 0.0
C111 C 0.98363 0.16359 0.30867 0.0
C112 C 0.04603 0.20782 0.31065 0.0
C113 C 0.03073 0.17214 0.2288 0.0
C114 C 0.09231 0.2021 0.32151 0.0
C115 C 0.12349 0.23411 0.33799 0.0
C116 C 0.10886 0.27211 0.3443 0.0
C117 C 0.06295 0.27681 0.33544 0.0
C118 C 0.03197 0.24515 0.3187 0.0
H119 H 1.01277 0.16436 0.19508 0.0
H120 H 0.03678 0.20544 0.23121 0.0
H121 H 0.06422 0.1566 0.24283 0.0
H122 H 0.10418 0.17312 0.31667 0.0
H123 H 0.15863 0.22939 0.34478 0.0
H124 H 0.1428 0.4883 0.26991 0.0
H125 H 0.0971 0.547 0.23141 0.0
H126 H 0.10535 0.59339 0.34624 0.0
H127 H 0.15127 0.53483 0.38513 0.0
H128 H 1.01244 0.56309 0.22708 0.0
H129 H 0.12831 0.69468 0.29028 0.0
H130 H 0.14878 0.6431 0.29636 0.0
H131 H 0.12692 0.66191 0.33039 0.0
C132 C 0.1359 0.5115 0.28722 0.0
C133 C 0.15061 0.50676 0.33065 0.0
C134 C 0.10961 0.54495 0.26508 0.0
C135 C 0.09785 0.57458 0.2859 0.0
C136 C 0.1146 0.5712 0.3296 0.0
H137 H 0.91831 0.76917 0.24373 0.0
H138 H 0.97022 0.71168 0.26647 0.0
C139 C 0.14096 0.53769 0.35185 0.0
C140 C 0.06458 0.60678 0.26157 0.0
H141 H 0.04851 0.70935 0.25417 0.0
C142 C 0.02044 0.59514 0.23244 0.0
C143 C 0.07519 0.64849 0.26849 0.0
C144 C 0.1225 0.66289 0.29777 0.0
C145 C 0.98593 0.62407 0.21181 0.0
C146 C 0.9961 0.66568 0.22017 0.0
C147 C 0.04075 0.67737 0.24789 0.0
C148 C 0.96031 0.69744 0.20425 0.0
C149 C 0.93839 0.6099 0.18294 0.0
C150 C 0.93619 0.70779 0.16133 0.0
C151 C 0.90578 0.74074 0.14803 0.0
C152 C 0.89982 0.76385 0.17766 0.0
C153 C 0.92254 0.75211 0.22021 0.0
C154 C 0.95233 0.71932 0.23331 0.0
H155 H 0.93469 0.57643 0.1847 0.0
H156 H 0.91322 0.62477 0.19071 0.0
H157 H 0.93007 0.61857 0.15014 0.0
H158 H 0.94219 0.69147 0.13841 0.0
H159 H 0.88899 0.74946 0.11512 0.0
H160 H 0.14631 0.01217 0.77524 0.0
H161 H 0.10047 0.95246 0.74158 0.0
H162 H 0.12519 0.90324 0.86261 0.0
H163 H 0.17227 0.96256 0.89652 0.0
H164 H 0.11805 0.84333 0.80532 0.0
H165 H 0.97411 0.95199 0.73708 0.0
H166 H 0.01925 0.96407 0.72387 0.0
H167 H 0.02958 0.9658 0.77762 0.0
C168 C 0.14361 0.98771 0.79472 0.0
C169 C 0.16282 0.99179 0.83839 0.0
C170 C 0.11692 0.95394 0.77547 0.0
C171 C 0.10826 0.92417 0.79953 0.0
C172 C 0.13116 0.92613 0.84348 0.0
H173 H 0.8682 0.76766 0.70909 0.0
H174 H 0.92377 0.82238 0.74146 0.0
C175 C 0.15846 0.95977 0.86286 0.0
C176 C 0.07196 0.89357 0.77872 0.0
H177 H 0.95822 0.88431 0.71291 0.0
C178 C 0.08311 0.85221 0.78514 0.0
C179 C 0.0261 0.90528 0.75335 0.0
C180 C 1.01133 0.94917 0.74785 0.0
C181 C 0.04984 0.82221 0.76583 0.0
C182 C 1.00446 0.83401 0.7386 0.0
C183 C 0.99311 0.87535 0.73319 0.0
C184 C 0.96837 0.80382 0.71557 0.0
C185 C 0.06353 0.77814 0.77542 0.0
C186 C 0.97382 0.77667 0.68859 0.0
C187 C 0.94237 0.74551 0.67031 0.0
C188 C 0.90438 0.74134 0.67801 0.0
C189 C 0.897 0.77038 0.70239 0.0
C190 C 0.92889 0.80139 0.72114 0.0
H191 H 0.09499 0.7744 0.80555 0.0
H192 H 0.03603 0.75963 0.77706 0.0
H193 H 0.07044 0.76607 0.75023 0.0
H194 H 1.0032 0.7788 0.68272 0.0
H195 H 0.94865 0.7237 0.65134 0.0
H196 H 0.90351 0.5258 0.76481 0.0
H197 H 0.9533 0.46899 0.80268 0.0
H198 H 0.92851 0.41573 0.68535 0.0
H199 H 0.87922 0.47283 0.64704 0.0
H200 H 0.94414 0.38404 0.80279 0.0
H201 H 0.06705 0.43305 0.74482 0.0
H202 H 0.02035 0.46461 0.73967 0.0
H203 H 1.01076 0.42416 0.70364 0.0
C204 C 0.90801 0.5017 0.74693 0.0
C205 C 0.88786 0.50423 0.70282 0.0
C206 C 0.93654 0.46925 0.76872 0.0
C207 C 0.94553 0.43876 0.74686 0.0
C208 C 0.92283 0.43953 0.70282 0.0
H209 H 0.08966 0.22183 0.7852 0.0
H210 H 0.04401 0.28314 0.76395 0.0
C211 C 0.89429 0.472 0.68095 0.0
C212 C 0.98049 0.40743 0.77001 0.0
H213 H 0.08001 0.36815 0.77918 0.0
C214 C 0.97415 0.38081 0.79809 0.0
C215 C 0.02005 0.40382 0.76438 0.0
C216 C 0.03033 0.43317 0.73683 0.0
C217 C 1.00509 0.34916 0.81881 0.0
C218 C 0.04334 0.3444 0.81146 0.0
C219 C 0.05064 0.37203 0.78479 0.0
C220 C 0.07247 0.3078 0.82616 0.0
C221 C 0.9957 0.31978 0.84682 0.0
C222 C 0.10421 0.30155 0.86842 0.0
C223 C 0.13097 0.26617 0.88093 0.0
C224 C 0.12587 0.23664 0.8513 0.0
C225 C 0.09431 0.24362 0.80905 0.0
C226 C 0.06814 0.27877 0.79668 0.0
H227 H 0.96308 0.32637 0.84745 0.0
H228 H 0.99454 0.28824 0.83599 0.0
H229 H 0.02374 0.32133 0.87926 0.0
H230 H 0.10821 0.32392 0.89156 0.0
H231 H 0.15493 0.26162 0.91366 0.0
H232 H 0.97548 0.54864 0.65297 0.0
H233 H 0.01527 0.51908 0.61661 0.0
H234 H 0.94034 0.59768 0.5094 0.0
H235 H 0.89998 0.6266 0.54518 0.0
H236 H 0.93036 0.51706 0.48987 0.0
H237 H 0.11308 0.55561 0.58351 0.0
H238 H 0.0874 0.53331 0.61379 0.0
H239 H 0.06837 0.58215 0.58871 0.0
C240 C 0.96887 0.56061 0.62231 0.0
C241 C 0.93475 0.58977 0.60176 0.0
C242 C 0.99148 0.54367 0.60152 0.0
C243 C 0.9807 0.55625 0.56032 0.0
C244 C 0.94903 0.58751 0.54111 0.0
H245 H 0.05404 0.46804 0.37189 0.0
H246 H 0.01425 0.50144 0.40632 0.0
C247 C 0.9262 0.6041 0.56163 0.0
C248 C 0.99812 0.53378 0.53536 0.0
H249 H 0.09523 0.50478 0.53209 0.0
C250 C 0.96641 0.51461 0.49888 0.0
C251 C 0.04509 0.53057 0.54734 0.0
C252 C 0.08048 0.5518 0.58526 0.0
C253 C 0.98051 0.49159 0.47445 0.0
C254 C 0.02747 0.48807 0.48668 0.0
C255 C 0.05917 0.50747 0.52296 0.0
C256 C 0.04493 0.46403 0.4628 0.0
C257 C 0.94523 0.47042 0.43642 0.0
C258 C 0.07422 0.43137 0.48273 0.0
C259 C 0.0969 0.41247 0.46329 0.0
C260 C 0.09068 0.42594 0.42356 0.0
C261 C 0.0589 0.45675 0.40227 0.0
C262 C 0.03633 0.47591 0.42196 0.0
H263 H 0.91171 0.46867 0.43668 0.0
H264 H 0.94062 0.48754 0.40775 0.0
H265 H 0.95639 0.43918 0.43453 0.0
H266 H 0.08112 0.42171 0.51417 0.0
H267 H 0.12121 0.38871 0.4803 0.0
H268 H 0.97702 0.97713 0.15899 0.0
H269 H 1.01093 0.00616 0.11614 0.0
H270 H 0.96597 0.90203 0.03625 0.0
H271 H 0.93274 0.87264 0.07969 0.0
H272 H 0.05278 0.93598 0.04871 0.0
H273 H 0.91616 0.05181 1.00079 0.0
H274 H 0.95229 0.04756 0.05629 0.0
H275 H 0.91629 0.0057 0.02904 0.0
C276 C 0.97667 0.95948 0.13366 0.0
C277 C 0.95324 0.92232 0.12307 0.0
C278 C 0.99525 0.97639 0.10875 0.0
C279 C 0.98993 0.9567 0.07245 0.0
C280 C 0.97028 0.91778 0.06405 0.0
H281 H 0.05101 0.02324 0.86717 0.0
H282 H 0.01489 0.99259 0.90749 0.0
C283 C 0.95192 0.90071 0.0892 0.0
C284 C 1.00049 0.97845 0.0412 0.0
H285 H 0.9699 0.06112 0.97459 0.0
C286 C 0.03459 0.96322 0.03235 0.0
C287 C 0.97643 0.0139 0.01974 0.0
C288 C 0.93795 0.03061 0.02656 0.0
C289 C 0.04618 0.98312 1.00344 0.0
C290 C 0.02226 0.0187 0.98211 0.0
C291 C 0.98799 0.03379 0.99081 0.0
C292 C 0.03383 0.0413 0.95192 0.0
C293 C 0.08484 0.96652 0.99683 0.0
C294 C 0.05294 0.08037 0.96143 0.0
C295 C 0.07253 0.09836 0.93772 0.0
C296 C 0.07295 0.07758 0.90412 0.0
C297 C 0.04998 0.04029 0.89225 0.0
C298 C 0.03018 0.02243 0.91577 0.0
H299 H 0.10629 0.94498 0.02238 0.0
H300 H 0.07072 0.95 0.96685 0.0
H301 H 0.10683 0.99147 0.99499 0.0
H302 H 0.05597 0.09551 0.98913 0.0
H303 H 0.09133 0.1265 0.94824 0.0
H304 H 0.27283 0.21024 1.01476 0.0
H305 H 0.2703 0.24892 0.07098 0.0
H306 H 0.1747 0.16288 0.07853 0.0
H307 H 0.17718 0.12363 0.02238 0.0
H308 H 0.19296 0.28496 0.07039 0.0
H309 H 0.27364 0.17233 0.20105 0.0
H310 H 0.27748 0.16885 0.15254 0.0
H311 H 0.22639 0.15322 0.15499 0.0
C312 C 0.25164 0.19916 0.02865 0.0
C313 C 0.22545 0.1636 1.01421 0.0
C314 C 0.25013 0.22146 0.06068 0.0
C315 C 0.22264 0.20859 0.07913 0.0
C316 C 0.19672 0.17296 0.06515 0.0
H317 H 0.1306 0.34509 0.23032 0.0
H318 H 0.13708 0.3122 0.17277 0.0
C319 C 0.19816 0.15059 0.03302 0.0
C320 C 0.22015 0.23325 0.1121 0.0
H321 H 0.24144 0.2307 0.21466 0.0
C322 C 0.20364 0.27319 0.10199 0.0
C323 C 0.2346 0.21791 0.15335 0.0
C324 C 0.25441 0.17586 0.16641 0.0
C325 C 0.20058 0.29805 0.13195 0.0
C326 C 0.21394 0.28234 0.1729 0.0
C327 C 0.23103 0.24259 0.18315 0.0
C328 C 0.2104 0.30637 0.20577 0.0
C329 C 0.18367 0.34105 0.11974 0.0
C330 C 0.2495 0.31436 0.24324 0.0
C331 C 0.24595 0.33307 0.27623 0.0
C332 C 0.2031 0.34385 0.27253 0.0
C333 C 0.16414 0.33734 0.23423 0.0
C334 C 0.16776 0.31861 0.20122 0.0
H335 H 0.18572 0.35158 0.09098 0.0
H336 H 0.14751 0.34252 0.1134 0.0
H337 H 0.20353 0.36222 0.14549 0.0
H338 H 0.28273 0.30516 0.24735 0.0
H339 H 0.2767 0.3377 0.30518 0.0
H340 H 0.88407 0.8515 0.2969 0.0
H341 H 0.87253 0.81911 0.35353 0.0
H342 H 0.72978 0.80386 0.26895 0.0
H343 H 0.74191 0.83392 0.21178 0.0
H344 H 0.82643 0.8319 0.39377 0.0
H345 H 0.76044 0.68969 0.30696 0.0
H346 H 0.78391 0.73 0.28794 0.0
H347 H 0.72568 0.73231 0.27927 0.0
C348 C 0.85015 0.84169 0.29063 0.0
C349 C 0.81393 0.84489 0.24996 0.0
C350 C 0.84357 0.82301 0.32294 0.0
C351 C 0.80052 0.80775 0.31529 0.0
C352 C 0.76367 0.81379 0.27534 0.0
H353 H 0.74554 0.7327 0.52372 0.0
H354 H 0.74668 0.76862 0.46372 0.0
C355 C 0.77047 0.83146 0.24281 0.0
C356 C 0.79455 0.78482 0.3488 0.0
H357 H 0.75324 0.6961 0.36962 0.0
C358 C 0.81057 0.80213 0.3885 0.0
C359 C 0.7748 0.74548 0.34239 0.0
C360 C 0.76072 0.72311 0.30199 0.0
C361 C 0.80717 0.78152 0.42172 0.0
C362 C 0.78514 0.74317 0.41462 0.0
C363 C 0.76942 0.72573 0.37501 0.0
C364 C 0.77965 0.71992 0.44822 0.0
C365 C 0.82882 0.80059 0.4644 0.0
C366 C 0.79456 0.6794 0.45767 0.0
C367 C 0.79222 0.65825 0.49095 0.0
C368 C 0.77557 0.67744 0.5158 0.0
C369 C 0.75885 0.7173 0.50524 0.0
C370 C 0.76009 0.73805 0.47131 0.0
H371 H 0.85619 0.8223 0.46757 0.0
H372 H 0.80265 0.81782 0.46878 0.0
H373 H 0.84365 0.77724 0.48983 0.0
H374 H 0.80949 0.66453 0.44022 0.0
H375 H 0.80574 0.62769 0.49862 0.0
H376 H 0.75418 0.7932 0.01614 0.0
H377 H 0.75756 0.75463 0.9602 0.0
H378 H 0.85136 0.8423 0.95199 0.0
H379 H 0.84804 0.88143 1.00782 0.0
H380 H 0.78044 0.81853 0.87339 0.0
H381 H 0.86818 0.68569 0.97565 0.0
H382 H 0.81677 0.70072 0.97714 0.0
H383 H 0.86495 0.73441 0.99631 0.0
C384 C 0.77529 0.80455 1.00228 0.0
C385 C 0.8009 0.84044 0.01656 0.0
C386 C 0.77742 0.78225 0.97051 0.0
C387 C 0.80533 0.79524 0.95254 0.0
C388 C 0.82983 0.83166 0.9657 0.0
H389 H 0.89655 0.66581 0.79688 0.0
H390 H 0.89042 0.69909 0.85444 0.0
C391 C 0.82778 0.85402 0.99753 0.0
C392 C 0.80894 0.7708 0.91999 0.0
H393 H 0.84283 0.67847 0.9026 0.0
C394 C 0.79408 0.78793 0.87973 0.0
C395 C 0.82728 0.73107 0.92859 0.0
C396 C 0.84562 0.7119 0.97184 0.0
C397 C 0.79646 0.76613 0.84757 0.0
C398 C 0.81362 0.72598 0.85585 0.0
C399 C 0.82916 0.70906 0.89628 0.0
C400 C 0.81686 0.7017 0.82303 0.0
C401 C 0.78132 0.78647 0.80517 0.0
C402 C 0.77743 0.69071 0.78707 0.0
C403 C 0.78074 0.67161 0.75413 0.0
C404 C 0.82362 0.66313 0.7566 0.0
C405 C 0.863 0.67203 0.7938 0.0
C406 C 0.8596 0.69111 0.82674 0.0
H407 H 0.77865 0.81996 0.8066 0.0
H408 H 0.80533 0.77977 0.79226 0.0
H409 H 0.7473 0.77465 0.78312 0.0
H410 H 0.7441 0.69796 0.784 0.0
H411 H 0.74969 0.66491 0.72614 0.0
H412 H 0.2784 0.19139 0.82162 0.0
H413 H 0.28752 0.22192 0.76324 0.0
H414 H 0.16781 0.15874 0.67566 0.0
H415 H 0.15809 0.12811 0.73416 0.0
H416 H 0.2964 0.18892 0.69499 0.0
H417 H 0.13891 0.28065 0.6437 0.0
H418 H 0.16572 0.25481 0.69407 0.0
H419 H 0.13196 0.22674 0.64757 0.0
C420 C 0.25422 0.18354 0.78997 0.0
C421 C 0.2172 0.15761 0.78257 0.0
C422 C 0.25956 0.20102 0.75663 0.0
C423 C 0.22789 0.19323 0.71514 0.0
C424 C 0.19221 0.1657 0.7075 0.0
H425 H 0.24445 0.26274 0.48831 0.0
H426 H 0.24502 0.22705 0.54882 0.0
C427 C 0.18693 0.14794 0.74096 0.0
C428 C 0.23142 0.21549 0.68025 0.0
H429 H 0.17776 0.28641 0.6024 0.0
C430 C 0.27043 0.21015 0.67464 0.0
C431 C 0.19794 0.24382 0.65434 0.0
C432 C 0.1564 0.25227 0.66027 0.0
C433 C 0.2765 0.2319 0.64335 0.0
C434 C 0.24246 0.25946 0.61676 0.0
C435 C 0.20377 0.26522 0.62277 0.0
C436 C 0.2455 0.2816 0.58156 0.0
C437 C 0.31961 0.22565 0.63943 0.0
C438 C 0.24535 0.32429 0.57965 0.0
C439 C 0.24503 0.34498 0.54489 0.0
C440 C 0.24428 0.32327 0.51122 0.0
C441 C 0.24523 0.28051 0.51371 0.0
C442 C 0.24576 0.25996 0.54843 0.0
H443 H 0.34717 0.21251 0.66871 0.0
H444 H 0.31269 0.20423 0.61373 0.0
H445 H 0.33183 0.25472 0.63181 0.0
H446 H 0.24485 0.34158 0.6048 0.0
H447 H 0.24383 0.37787 0.54378 0.0
H448 H 0.37353 0.36491 0.46218 0.0
H449 H 0.45053 0.39447 0.49478 0.0
H450 H 0.39348 0.51404 0.45426 0.0
H451 H 0.31714 0.48518 0.42195 0.0
H452 H 0.49741 0.44715 0.46026 0.0
H453 H 0.46867 0.52253 0.58316 0.0
H454 H 0.43269 0.48206 0.55182 0.0
H455 H 0.42577 0.53292 0.53055 0.0
C456 C 0.37749 0.39741 0.45977 0.0
C457 C 0.33911 0.42269 0.43992 0.0
C458 C 0.42144 0.41426 0.47853 0.0
C459 C 0.42754 0.45655 0.47778 0.0
C460 C 0.38947 0.48147 0.4561 0.0
H461 H 0.65144 0.62935 0.57242 0.0
H462 H 0.5768 0.59564 0.54203 0.0
C463 C 0.34582 0.4648 0.43747 0.0
C464 C 0.47339 0.4752 0.50008 0.0
H465 H 0.53521 0.54201 0.57739 0.0
C466 C 0.5059 0.46758 0.48612 0.0
C467 C 0.48422 0.50205 0.53367 0.0
C468 C 0.4512 0.51019 0.55102 0.0
C469 C 0.54858 0.48696 0.50412 0.0
C470 C 0.55929 0.51407 0.53751 0.0
C471 C 0.52689 0.52138 0.55171 0.0
C472 C 0.60418 0.53476 0.55834 0.0
C473 C 0.58136 0.47913 0.48641 0.0
C474 C 0.64413 0.51184 0.57892 0.0
C475 C 0.68661 0.53092 0.59627 0.0
C476 C 0.69016 0.57346 0.5937 0.0
C477 C 0.64996 0.59658 0.5749 0.0
C478 C 0.60731 0.57735 0.5574 0.0
H479 H 0.56383 0.46635 0.45446 0.0
H480 H 0.59918 0.50749 0.48499 0.0
H481 H 0.60735 0.45687 0.50699 0.0
H482 H 0.6425 0.47905 0.58102 0.0
H483 H 0.71679 0.51213 0.61098 0.0
H484 H 0.36187 0.11643 0.91883 0.0
H485 H 0.43735 0.08487 0.94512 0.0
H486 H 0.40283 0.99932 0.01896 0.0
H487 H 0.32797 0.02998 0.99294 0.0
H488 H 0.50572 0.0744 0.02997 0.0
H489 H 0.44593 0.92599 0.95308 0.0
H490 H 0.41047 0.97075 0.93758 0.0
H491 H 0.41812 0.94159 0.98333 0.0
C492 C 0.37037 0.09086 0.9406 0.0
C493 C 0.33868 0.07574 0.95359 0.0
C494 C 0.41347 0.07287 0.95558 0.0
C495 C 0.42537 0.03929 0.98343 0.0
C496 C 0.39406 0.0246 0.99681 0.0
H497 H 0.66702 0.88686 0.11474 0.0
H498 H 0.59168 0.91857 0.08906 0.0
C499 C 0.35126 0.04246 0.98201 0.0
C500 C 0.4708 0.01991 0.99955 0.0
H501 H 0.52328 0.9295 1.00482 0.0
C502 C 0.50963 0.04282 0.02423 0.0
C503 C 0.47576 0.97856 0.99235 0.0
C504 C 0.43542 0.95282 0.96483 0.0
C505 C 0.55324 0.02533 0.04248 0.0
C506 C 0.55821 0.984 0.03524 0.0
C507 C 0.51937 0.96108 1.01059 0.0
C508 C 0.60365 0.96465 0.05119 0.0
C509 C 0.59355 0.05108 0.07003 0.0
C510 C 0.63492 0.97959 0.03788 0.0
C511 C 0.67765 0.96167 0.05236 0.0
C512 C 0.69018 0.92804 0.08033 0.0
C513 C 0.65855 0.9127 0.09331 0.0
C514 C 0.61554 0.93078 0.07867 0.0
H515 H 0.58303 0.07772 0.08203 0.0
H516 H 0.61867 0.03308 0.09713 0.0
H517 H 0.61065 0.06261 0.05147 0.0
H518 H 0.62616 0.00509 0.01599 0.0
H519 H 0.70088 0.97432 0.04144 0.0
loop_
_geom_bond_atom_site_label_1
_geom_bond_atom_site_label_2
_geom_bond_distance
_geom_bond_site_symmetry_2
_ccdc_geom_bond_type
Fe0 O2 1.918 . S
Fe0 O5 1.997 . S
Fe0 O6 2.002 . S
Fe0 O11 1.976 . S
Fe0 O14 1.996 . S
Fe1 O2 1.918 . S
Fe1 O9 1.997 . S
Fe1 O12 1.996 . S
Fe1 O16 1.976 . S
Fe1 O19 2.002 . S
O2 Fe0 1.918 . S
O2 Fe1 1.918 . S
O2 Fe3 1.918 . S
Fe3 O2 1.918 . S
Fe3 O4 2.002 . S
Fe3 O13 1.976 . S
Fe3 O17 1.996 . S
Fe3 O20 1.997 . S
O4 Fe3 2.002 . S
O4 C21 1.295 . S
O5 Fe0 1.997 . S
O5 C21 1.235 . S
O6 Fe0 2.002 . S
O6 C7 1.295 . S
C7 O6 1.295 . S
C7 O9 1.235 . S
C8 O13 1.287 . S
C8 O14 1.255 . S
O9 Fe1 1.997 . S
O9 C7 1.235 . S
C10 O16 1.287 . S
C10 O17 1.255 . S
O11 Fe0 1.976 . S
O11 C18 1.287 . S
O12 Fe1 1.996 . S
O12 C18 1.255 . S
O13 Fe3 1.976 . S
O13 C8 1.287 . S
O14 Fe0 1.996 . S
O14 C8 1.255 . S
C15 O19 1.295 . S
C15 O20 1.235 . S
O16 Fe1 1.976 . S
O16 C10 1.287 . S
O17 Fe3 1.996 . S
O17 C10 1.255 . S
C18 O11 1.287 . S
C18 O12 1.255 . S
O19 Fe1 2.002 . S
O19 C15 1.295 . S
O20 Fe3 1.997 . S
O20 C15 1.235 . S
C21 O4 1.295 . S
C21 O5 1.235 . S
Fe22 O24 1.918 . S
Fe22 O27 1.997 . S
Fe22 O28 2.002 . S
Fe22 O33 1.976 . S
Fe22 O36 1.996 . S
Fe23 O24 1.918 . S
Fe23 O31 1.997 . S
Fe23 O34 1.996 . S
Fe23 O38 1.976 . S
Fe23 O41 2.002 . S
O24 Fe22 1.918 . S
O24 Fe23 1.918 . S
O24 Fe25 1.918 . S
Fe25 O24 1.918 . S
Fe25 O26 2.002 . S
Fe25 O35 1.976 . S
Fe25 O39 1.996 . S
Fe25 O42 1.997 . S
O26 Fe25 2.002 . S
O26 C43 1.295 . S
O27 Fe22 1.997 . S
O27 C43 1.235 . S
O28 Fe22 2.002 . S
O28 C29 1.295 . S
C29 O28 1.295 . S
C29 O31 1.235 . S
C30 O35 1.287 . S
C30 O36 1.255 . S
O31 Fe23 1.997 . S
O31 C29 1.235 . S
C32 O38 1.287 . S
C32 O39 1.255 . S
O33 Fe22 1.976 . S
O33 C40 1.287 . S
O34 Fe23 1.996 . S
O34 C40 1.255 . S
O35 Fe25 1.976 . S
O35 C30 1.287 . S
O36 Fe22 1.996 . S
O36 C30 1.255 . S
C37 O41 1.295 . S
C37 O42 1.235 . S
O38 Fe23 1.976 . S
O38 C32 1.287 . S
O39 Fe25 1.996 . S
O39 C32 1.255 . S
C40 O33 1.287 . S
C40 O34 1.255 . S
O41 Fe23 2.002 . S
O41 C37 1.295 . S
O42 Fe25 1.997 . S
O42 C37 1.235 . S
C43 O26 1.295 . S
C43 O27 1.235 . S
Fe44 O46 1.918 . S
Fe44 O49 1.997 . S
Fe44 O50 2.002 . S
Fe44 O55 1.976 . S
Fe44 O58 1.996 . S
Fe45 O46 1.918 . S
Fe45 O53 1.997 . S
Fe45 O56 1.996 . S
Fe45 O60 1.976 . S
Fe45 O63 2.002 . S
O46 Fe44 1.918 . S
O46 Fe45 1.918 . S
O46 Fe47 1.918 . S
Fe47 O46 1.918 . S
Fe47 O48 2.002 . S
Fe47 O57 1.976 . S
Fe47 O61 1.996 . S
Fe47 O64 1.997 . S
O48 Fe47 2.002 . S
O48 C65 1.295 . S
O49 Fe44 1.997 . S
O49 C65 1.235 . S
O50 Fe44 2.002 . S
O50 C51 1.295 . S
C51 O50 1.295 . S
C51 O53 1.235 . S
C52 O57 1.287 . S
C52 O58 1.255 . S
O53 Fe45 1.997 . S
O53 C51 1.235 . S
C54 O60 1.287 . S
C54 O61 1.255 . S
O55 Fe44 1.976 . S
O55 C62 1.287 . S
O56 Fe45 1.996 . S
O56 C62 1.255 . S
O57 Fe47 1.976 . S
O57 C52 1.287 . S
O58 Fe44 1.996 . S
O58 C52 1.255 . S
C59 O63 1.295 . S
C59 O64 1.235 . S
O60 Fe45 1.976 . S
O60 C54 1.287 . S
O61 Fe47 1.996 . S
O61 C54 1.255 . S
C62 O55 1.287 . S
C62 O56 1.255 . S
O63 Fe45 2.002 . S
O63 C59 1.295 . S
O64 Fe47 1.997 . S
O64 C59 1.235 . S
C65 O48 1.295 . S
C65 O49 1.235 . S
Fe66 O68 1.918 . S
Fe66 O71 1.997 . S
Fe66 O72 2.002 . S
Fe66 O77 1.976 . S
Fe66 O80 1.996 . S
Fe67 O68 1.918 . S
Fe67 O75 1.997 . S
Fe67 O78 1.996 . S
Fe67 O82 1.976 . S
Fe67 O85 2.002 . S
O68 Fe66 1.918 . S
O68 Fe67 1.918 . S
O68 Fe69 1.918 . S
Fe69 O68 1.918 . S
Fe69 O70 2.002 . S
Fe69 O79 1.976 . S
Fe69 O83 1.996 . S
Fe69 O86 1.997 . S
O70 Fe69 2.002 . S
O70 C87 1.295 . S
O71 Fe66 1.997 . S
O71 C87 1.235 . S
O72 Fe66 2.002 . S
O72 C73 1.295 . S
C73 O72 1.295 . S
C73 O75 1.235 . S
C74 O79 1.287 . S
C74 O80 1.255 . S
O75 Fe67 1.997 . S
O75 C73 1.235 . S
C76 O82 1.287 . S
C76 O83 1.255 . S
O77 Fe66 1.976 . S
O77 C84 1.287 . S
O78 Fe67 1.996 . S
O78 C84 1.255 . S
O79 Fe69 1.976 . S
O79 C74 1.287 . S
O80 Fe66 1.996 . S
O80 C74 1.255 . S
C81 O85 1.295 . S
C81 O86 1.235 . S
O82 Fe67 1.976 . S
O82 C76 1.287 . S
O83 Fe69 1.996 . S
O83 C76 1.255 . S
C84 O77 1.287 . S
C84 O78 1.255 . S
O85 Fe67 2.002 . S
O85 C81 1.295 . S
O86 Fe69 1.997 . S
O86 C81 1.235 . S
C87 O70 1.295 . S
C87 O71 1.235 . S
H88 C96 0.929 1_565 S
H89 C98 0.930 . S
H90 C100 0.930 . S
H91 C103 0.929 . S
H92 C106 0.937 . S
H93 C108 0.960 . S
H94 C108 0.960 . S
H95 C108 0.960 . S
C96 H88 0.929 1_545 S
C96 C97 1.377 . S
C96 C98 1.384 . S
C97 C96 1.377 . S
C97 C103 1.390 . S
C98 H89 0.930 . S
C98 C96 1.384 . S
C98 C99 1.372 . S
C99 C98 1.372 . S
C99 C100 1.400 . S
C99 C104 1.490 . S
C100 H90 0.930 . S
C100 C99 1.400 . S
C100 C103 1.386 . S
H101 C117 0.930 . S
H102 C118 0.931 . S
C103 H91 0.929 . S
C103 C97 1.390 . S
C103 C100 1.386 . S
C104 C99 1.490 . S
C104 C106 1.377 1_655 S
C104 C107 1.403 . S
H105 C111 0.930 . S
C106 H92 0.937 . S
C106 C104 1.377 1_455 S
C106 C109 1.414 . S
C107 C104 1.403 . S
C107 C108 1.524 . S
C107 C111 1.400 . S
C108 H93 0.960 . S
C108 H94 0.960 . S
C108 H95 0.960 . S
C108 C107 1.524 . S
C109 C106 1.414 . S
C109 C110 1.392 . S
C109 C113 1.495 . S
C110 C109 1.392 . S
C110 C111 1.385 1_455 S
C110 C112 1.478 . S
C111 H105 0.930 . S
C111 C107 1.400 . S
C111 C110 1.385 1_655 S
C112 C110 1.478 . S
C112 C114 1.381 . S
C112 C118 1.383 . S
C113 C109 1.495 . S
C113 H119 0.959 . S
C113 H120 0.961 . S
C113 H121 0.960 . S
C114 C112 1.381 . S
C114 C115 1.394 . S
C114 H122 0.930 . S
C115 C114 1.394 . S
C115 C116 1.383 . S
C115 H123 0.929 . S
C116 C115 1.383 . S
C116 C117 1.377 . S
C117 H101 0.930 . S
C117 C116 1.377 . S
C117 C118 1.379 . S
C118 H102 0.931 . S
C118 C112 1.383 . S
C118 C117 1.379 . S
H119 C113 0.959 . S
H120 C113 0.961 . S
H121 C113 0.960 . S
H122 C114 0.930 . S
H123 C115 0.929 . S
H124 C132 0.929 . S
H125 C134 0.930 . S
H126 C136 0.930 . S
H127 C139 0.929 . S
H128 C142 0.930 . S
H129 C144 0.960 . S
H130 C144 0.960 . S
H131 C144 0.960 . S
C132 H124 0.929 . S
C132 C133 1.377 . S
C132 C134 1.384 . S
C133 C132 1.377 . S
C133 C139 1.390 . S
C134 H125 0.930 . S
C134 C132 1.384 . S
C134 C135 1.372 . S
C135 C134 1.372 . S
C135 C136 1.400 . S
C135 C140 1.490 . S
C136 H126 0.930 . S
C136 C135 1.400 . S
C136 C139 1.386 . S
H137 C153 0.930 . S
H138 C154 0.931 . S
C139 H127 0.929 . S
C139 C133 1.390 . S
C139 C136 1.386 . S
C140 C135 1.490 . S
C140 C142 1.395 1_455 S
C140 C143 1.403 . S
H141 C147 0.930 . S
C142 H128 0.930 . S
C142 C140 1.395 1_655 S
C142 C145 1.403 . S
C143 C140 1.403 . S
C143 C144 1.524 . S
C143 C147 1.400 . S
C144 H129 0.960 . S
C144 H130 0.960 . S
C144 H131 0.960 . S
C144 C143 1.524 . S
C145 C142 1.403 . S
C145 C146 1.392 . S
C145 C149 1.495 . S
C146 C145 1.392 . S
C146 C147 1.385 1_655 S
C146 C148 1.478 . S
C147 H141 0.930 . S
C147 C143 1.400 . S
C147 C146 1.385 1_455 S
C148 C146 1.478 . S
C148 C150 1.381 . S
C148 C154 1.383 . S
C149 C145 1.495 . S
C149 H155 0.959 . S
C149 H156 0.961 . S
C149 H157 0.960 . S
C150 C148 1.381 . S
C150 C151 1.394 . S
C150 H158 0.930 . S
C151 C150 1.394 . S
C151 C152 1.383 . S
C151 H159 0.929 . S
C152 C151 1.383 . S
C152 C153 1.377 . S
C153 H137 0.930 . S
C153 C152 1.377 . S
C153 C154 1.379 . S
C154 H138 0.931 . S
C154 C148 1.383 . S
C154 C153 1.379 . S
H155 C149 0.959 . S
H156 C149 0.961 . S
H157 C149 0.960 . S
H158 C150 0.930 . S
H159 C151 0.929 . S
H160 C168 0.929 . S
H161 C170 0.930 . S
H162 C172 0.930 . S
H163 C175 0.946 . S
H164 C178 0.930 . S
H165 C180 0.960 . S
H166 C180 0.960 1_455 S
H167 C180 0.960 . S
C168 H160 0.929 . S
C168 C169 1.377 . S
C168 C170 1.384 . S
C169 C168 1.377 . S
C169 C175 1.390 . S
C170 H161 0.930 . S
C170 C168 1.384 . S
C170 C171 1.372 . S
C171 C170 1.372 . S
C171 C172 1.400 . S
C171 C176 1.490 . S
C172 H162 0.930 . S
C172 C171 1.400 . S
C172 C175 1.386 . S
H173 C189 0.930 . S
H174 C190 0.931 . S
C175 H163 0.946 . S
C175 C169 1.390 . S
C175 C172 1.386 . S
C176 C171 1.490 . S
C176 C178 1.395 . S
C176 C179 1.403 . S
H177 C183 0.930 . S
C178 H164 0.930 . S
C178 C176 1.395 . S
C178 C181 1.403 . S
C179 C176 1.403 . S
C179 C180 1.524 1_455 S
C179 C183 1.400 1_455 S
C180 H165 0.960 . S
C180 H166 0.960 1_655 S
C180 H167 0.960 . S
C180 C179 1.524 1_655 S
C181 C178 1.403 . S
C181 C182 1.392 1_455 S
C181 C185 1.495 . S
C182 C181 1.392 1_655 S
C182 C183 1.385 . S
C182 C184 1.478 . S
C183 H177 0.930 . S
C183 C179 1.400 1_655 S
C183 C182 1.385 . S
C184 C182 1.478 . S
C184 C186 1.381 . S
C184 C190 1.383 . S
C185 C181 1.495 . S
C185 H191 0.959 . S
C185 H192 0.961 . S
C185 H193 0.960 . S
C186 C184 1.381 . S
C186 C187 1.394 . S
C186 H194 0.930 . S
C187 C186 1.394 . S
C187 C188 1.383 . S
C187 H195 0.929 . S
C188 C187 1.383 . S
C188 C189 1.377 . S
C189 H173 0.930 . S
C189 C188 1.377 . S
C189 C190 1.379 . S
C190 H174 0.931 . S
C190 C184 1.383 . S
C190 C189 1.379 . S
H191 C185 0.959 . S
H192 C185 0.961 . S
H193 C185 0.960 . S
H194 C186 0.930 . S
H195 C187 0.929 . S
H196 C204 0.929 . S
H197 C206 0.930 . S
H198 C208 0.930 . S
H199 C211 0.929 . S
H200 C214 0.930 . S
H201 C216 0.960 . S
H202 C216 0.960 . S
H203 C216 0.960 . S
C204 H196 0.929 . S
C204 C205 1.377 . S
C204 C206 1.384 . S
C205 C204 1.377 . S
C205 C211 1.390 . S
C206 H197 0.930 . S
C206 C204 1.384 . S
C206 C207 1.372 . S
C207 C206 1.372 . S
C207 C208 1.400 . S
C207 C212 1.490 . S
C208 H198 0.930 . S
C208 C207 1.400 . S
C208 C211 1.386 . S
H209 C225 0.930 . S
H210 C226 0.931 . S
C211 H199 0.929 . S
C211 C205 1.390 . S
C211 C208 1.386 . S
C212 C207 1.490 . S
C212 C214 1.395 . S
C212 C215 1.403 . S
H213 C219 0.930 . S
C214 H200 0.930 . S
C214 C212 1.395 . S
C214 C217 1.403 . S
C215 C212 1.403 . S
C215 C216 1.524 1_655 S
C215 C219 1.400 1_655 S
C216 H201 0.960 . S
C216 H202 0.960 . S
C216 H203 0.960 . S
C216 C215 1.524 1_455 S
C217 C214 1.403 . S
C217 C218 1.392 1_655 S
C217 C221 1.495 . S
C218 C217 1.392 1_455 S
C218 C219 1.385 . S
C218 C220 1.478 . S
C219 H213 0.930 . S
C219 C215 1.400 1_455 S
C219 C218 1.385 . S
C220 C218 1.478 . S
C220 C222 1.381 . S
C220 C226 1.383 . S
C221 C217 1.495 . S
C221 H227 0.959 . S
C221 H228 0.961 . S
C221 H229 0.960 . S
C222 C220 1.381 . S
C222 C223 1.394 . S
C222 H230 0.930 . S
C223 C222 1.394 . S
C223 C224 1.383 . S
C223 H231 0.929 . S
C224 C223 1.383 . S
C224 C225 1.377 . S
C225 H209 0.930 . S
C225 C224 1.377 . S
C225 C226 1.379 . S
C226 H210 0.931 . S
C226 C220 1.383 . S
C226 C225 1.379 . S
H227 C221 0.959 . S
H228 C221 0.961 . S
H229 C221 0.960 . S
H230 C222 0.930 . S
H231 C223 0.929 . S
H232 C240 0.929 . S
H233 C242 0.930 . S
H234 C244 0.930 . S
H235 C247 0.929 . S
H236 C250 0.930 . S
H237 C252 0.960 . S
H238 C252 0.960 . S
H239 C252 0.960 . S
C240 H232 0.929 . S
C240 C241 1.377 . S
C240 C242 1.384 . S
C241 C240 1.377 . S
C241 C247 1.390 . S
C242 H233 0.930 . S
C242 C240 1.384 . S
C242 C243 1.372 . S
C243 C242 1.372 . S
C243 C244 1.400 . S
C243 C248 1.490 . S
C244 H234 0.930 . S
C244 C243 1.400 . S
C244 C247 1.386 . S
H245 C261 0.930 . S
H246 C262 0.931 . S
C247 H235 0.929 . S
C247 C241 1.390 . S
C247 C244 1.386 . S
C248 C243 1.490 . S
C248 C250 1.395 . S
C248 C251 1.403 1_655 S
H249 C255 0.930 . S
C250 H236 0.930 . S
C250 C248 1.395 . S
C250 C253 1.403 . S
C251 C248 1.403 1_455 S
C251 C252 1.524 . S
C251 C255 1.400 . S
C252 H237 0.960 . S
C252 H238 0.960 . S
C252 H239 0.960 . S
C252 C251 1.524 . S
C253 C250 1.403 . S
C253 C254 1.392 1_655 S
C253 C257 1.495 . S
C254 C253 1.392 1_455 S
C254 C255 1.385 . S
C254 C256 1.478 . S
C255 H249 0.930 . S
C255 C251 1.400 . S
C255 C254 1.385 . S
C256 C254 1.478 . S
C256 C258 1.381 . S
C256 C262 1.383 . S
C257 C253 1.495 . S
C257 H263 0.959 . S
C257 H264 0.961 . S
C257 H265 0.960 . S
C258 C256 1.381 . S
C258 C259 1.394 . S
C258 H266 0.930 . S
C259 C258 1.394 . S
C259 C260 1.383 . S
C259 H267 0.929 . S
C260 C259 1.383 . S
C260 C261 1.377 . S
C261 H245 0.930 . S
C261 C260 1.377 . S
C261 C262 1.379 . S
C262 H246 0.931 . S
C262 C256 1.383 . S
C262 C261 1.379 . S
H263 C257 0.959 . S
H264 C257 0.961 . S
H265 C257 0.960 . S
H266 C258 0.930 . S
H267 C259 0.929 . S
H268 C276 0.929 . S
H269 C278 0.930 1_455 S
H270 C280 0.930 . S
H271 C283 0.929 . S
H272 C286 0.930 . S
H273 C288 0.958 1_556 S
H274 C288 0.960 . S
H275 C288 0.960 . S
C276 H268 0.929 . S
C276 C277 1.377 . S
C276 C278 1.384 . S
C277 C276 1.377 . S
C277 C283 1.390 . S
C278 H269 0.930 1_655 S
C278 C276 1.384 . S
C278 C279 1.372 . S
C279 C278 1.372 . S
C279 C280 1.400 . S
C279 C284 1.490 . S
C280 H270 0.930 . S
C280 C279 1.400 . S
C280 C283 1.386 . S
H281 C297 0.930 . S
H282 C298 0.931 1_655 S
C283 H271 0.929 . S
C283 C277 1.390 . S
C283 C280 1.386 . S
C284 C279 1.490 . S
C284 C286 1.395 1_655 S
C284 C287 1.403 1_565 S
H285 C291 0.930 . S
C286 H272 0.930 . S
C286 C284 1.395 1_455 S
C286 C289 1.403 1_554 S
C287 C284 1.403 1_545 S
C287 C288 1.524 . S
C287 C291 1.400 1_554 S
C288 H273 0.958 1_554 S
C288 H274 0.960 . S
C288 H275 0.960 . S
C288 C287 1.524 . S
C289 C286 1.403 1_556 S
C289 C290 1.392 1_565 S
C289 C293 1.495 . S
C290 C289 1.392 1_545 S
C290 C291 1.385 1_455 S
C290 C292 1.478 . S
C291 H285 0.930 . S
C291 C287 1.400 1_556 S
C291 C290 1.385 1_655 S
C292 C290 1.478 . S
C292 C294 1.381 . S
C292 C298 1.383 . S
C293 C289 1.495 . S
C293 H299 0.959 1_556 S
C293 H300 0.961 . S
C293 H301 0.960 1_556 S
C294 C292 1.381 . S
C294 C295 1.394 . S
C294 H302 0.923 1_556 S
C295 C294 1.394 . S
C295 C296 1.383 . S
C295 H303 0.929 . S
C296 C295 1.383 . S
C296 C297 1.377 . S
C297 H281 0.930 . S
C297 C296 1.377 . S
C297 C298 1.379 . S
C298 H282 0.931 1_455 S
C298 C292 1.383 . S
C298 C297 1.379 . S
H299 C293 0.959 1_554 S
H300 C293 0.961 . S
H301 C293 0.960 1_554 S
H302 C294 0.923 1_554 S
H303 C295 0.929 . S
H304 C312 0.929 . S
H305 C314 0.930 . S
H306 C316 0.930 . S
H307 C319 0.929 . S
H308 C322 0.930 . S
H309 C324 0.960 . S
H310 C324 0.960 . S
H311 C324 0.960 . S
C312 H304 0.929 . S
C312 C313 1.377 . S
C312 C314 1.384 . S
C313 C312 1.377 . S
C313 C319 1.390 . S
C314 H305 0.930 . S
C314 C312 1.384 . S
C314 C315 1.372 . S
C315 C314 1.372 . S
C315 C316 1.400 . S
C315 C320 1.490 . S
C316 H306 0.930 . S
C316 C315 1.400 . S
C316 C319 1.386 . S
H317 C333 0.930 . S
H318 C334 0.931 . S
C319 H307 0.929 . S
C319 C313 1.390 . S
C319 C316 1.386 . S
C320 C315 1.490 . S
C320 C322 1.395 . S
C320 C323 1.403 . S
H321 C327 0.930 . S
C322 H308 0.930 . S
C322 C320 1.395 . S
C322 C325 1.403 . S
C323 C320 1.403 . S
C323 C324 1.524 . S
C323 C327 1.400 . S
C324 H309 0.960 . S
C324 H310 0.960 . S
C324 H311 0.960 . S
C324 C323 1.524 . S
C325 C322 1.403 . S
C325 C326 1.392 . S
C325 C329 1.495 . S
C326 C325 1.392 . S
C326 C327 1.385 . S
C326 C328 1.478 . S
C327 H321 0.930 . S
C327 C323 1.400 . S
C327 C326 1.385 . S
C328 C326 1.478 . S
C328 C330 1.381 . S
C328 C334 1.383 . S
C329 C325 1.495 . S
C329 H335 0.959 . S
C329 H336 0.961 . S
C329 H337 0.960 . S
C330 C328 1.381 . S
C330 C331 1.394 . S
C330 H338 0.930 . S
C331 C330 1.394 . S
C331 C332 1.383 . S
C331 H339 0.929 . S
C332 C331 1.383 . S
C332 C333 1.377 . S
C333 H317 0.930 . S
C333 C332 1.377 . S
C333 C334 1.379 . S
C334 H318 0.931 . S
C334 C328 1.383 . S
C334 C333 1.379 . S
H335 C329 0.959 . S
H336 C329 0.961 . S
H337 C329 0.960 . S
H338 C330 0.930 . S
H339 C331 0.929 . S
H340 C348 0.929 . S
H341 C350 0.930 . S
H342 C352 0.930 . S
H343 C355 0.929 . S
H344 C358 0.930 . S
H345 C360 0.960 . S
H346 C360 0.960 . S
H347 C360 0.960 . S
C348 H340 0.929 . S
C348 C349 1.377 . S
C348 C350 1.384 . S
C349 C348 1.377 . S
C349 C355 1.390 . S
C350 H341 0.930 . S
C350 C348 1.384 . S
C350 C351 1.372 . S
C351 C350 1.372 . S
C351 C352 1.400 . S
C351 C356 1.490 . S
C352 H342 0.930 . S
C352 C351 1.400 . S
C352 C355 1.386 . S
H353 C369 0.930 . S
H354 C370 0.931 . S
C355 H343 0.929 . S
C355 C349 1.390 . S
C355 C352 1.386 . S
C356 C351 1.490 . S
C356 C358 1.395 . S
C356 C359 1.403 . S
H357 C363 0.930 . S
C358 H344 0.930 . S
C358 C356 1.395 . S
C358 C361 1.403 . S
C359 C356 1.403 . S
C359 C360 1.524 . S
C359 C363 1.400 . S
C360 H345 0.960 . S
C360 H346 0.960 . S
C360 H347 0.960 . S
C360 C359 1.524 . S
C361 C358 1.403 . S
C361 C362 1.392 . S
C361 C365 1.495 . S
C362 C361 1.392 . S
C362 C363 1.385 . S
C362 C364 1.478 . S
C363 H357 0.930 . S
C363 C359 1.400 . S
C363 C362 1.385 . S
C364 C362 1.478 . S
C364 C366 1.381 . S
C364 C370 1.383 . S
C365 C361 1.495 . S
C365 H371 0.959 . S
C365 H372 0.961 . S
C365 H373 0.960 . S
C366 C364 1.381 . S
C366 C367 1.394 . S
C366 H374 0.930 . S
C367 C366 1.394 . S
C367 C368 1.383 . S
C367 H375 0.929 . S
C368 C367 1.383 . S
C368 C369 1.377 . S
C369 H353 0.930 . S
C369 C368 1.377 . S
C369 C370 1.379 . S
C370 H354 0.931 . S
C370 C364 1.383 . S
C370 C369 1.379 . S
H371 C365 0.959 . S
H372 C365 0.961 . S
H373 C365 0.960 . S
H374 C366 0.930 . S
H375 C367 0.929 . S
H376 C384 0.929 . S
H377 C386 0.930 . S
H378 C388 0.930 . S
H379 C391 0.929 1_554 S
H380 C394 0.930 . S
H381 C396 0.960 . S
H382 C396 0.960 . S
H383 C396 0.960 . S
C384 H376 0.929 . S
C384 C385 1.377 . S
C384 C386 1.384 . S
C385 C384 1.377 . S
C385 C391 1.390 . S
C386 H377 0.930 . S
C386 C384 1.384 . S
C386 C387 1.372 . S
C387 C386 1.372 . S
C387 C388 1.400 . S
C387 C392 1.490 . S
C388 H378 0.930 . S
C388 C387 1.400 . S
C388 C391 1.386 . S
H389 C405 0.930 . S
H390 C406 0.931 . S
C391 H379 0.929 1_556 S
C391 C385 1.390 . S
C391 C388 1.386 . S
C392 C387 1.490 . S
C392 C394 1.395 . S
C392 C395 1.403 . S
H393 C399 0.930 . S
C394 H380 0.930 . S
C394 C392 1.395 . S
C394 C397 1.403 . S
C395 C392 1.403 . S
C395 C396 1.524 . S
C395 C399 1.400 . S
C396 H381 0.960 . S
C396 H382 0.960 . S
C396 H383 0.960 . S
C396 C395 1.524 . S
C397 C394 1.403 . S
C397 C398 1.392 . S
C397 C401 1.495 . S
C398 C397 1.392 . S
C398 C399 1.385 . S
C398 C400 1.478 . S
C399 H393 0.930 . S
C399 C395 1.400 . S
C399 C398 1.385 . S
C400 C398 1.478 . S
C400 C402 1.381 . S
C400 C406 1.383 . S
C401 C397 1.495 . S
C401 H407 0.959 . S
C401 H408 0.961 . S
C401 H409 0.960 . S
C402 C400 1.381 . S
C402 C403 1.394 . S
C402 H410 0.930 . S
C403 C402 1.394 . S
C403 C404 1.383 . S
C403 H411 0.929 . S
C404 C403 1.383 . S
C404 C405 1.377 . S
C405 H389 0.930 . S
C405 C404 1.377 . S
C405 C406 1.379 . S
C406 H390 0.931 . S
C406 C400 1.383 . S
C406 C405 1.379 . S
H407 C401 0.959 . S
H408 C401 0.961 . S
H409 C401 0.960 . S
H410 C402 0.930 . S
H411 C403 0.929 . S
H412 C420 0.929 . S
H413 C422 0.930 . S
H414 C424 0.930 . S
H415 C427 0.929 . S
H416 C430 0.930 . S
H417 C432 0.960 . S
H418 C432 0.960 . S
H419 C432 0.960 . S
C420 H412 0.929 . S
C420 C421 1.377 . S
C420 C422 1.384 . S
C421 C420 1.377 . S
C421 C427 1.390 . S
C422 H413 0.930 . S
C422 C420 1.384 . S
C422 C423 1.372 . S
C423 C422 1.372 . S
C423 C424 1.400 . S
C423 C428 1.490 . S
C424 H414 0.930 . S
C424 C423 1.400 . S
C424 C427 1.386 . S
H425 C441 0.930 . S
H426 C442 0.931 . S
C427 H415 0.929 . S
C427 C421 1.390 . S
C427 C424 1.386 . S
C428 C423 1.490 . S
C428 C430 1.395 . S
C428 C431 1.403 . S
H429 C435 0.930 . S
C430 H416 0.930 . S
C430 C428 1.395 . S
C430 C433 1.403 . S
C431 C428 1.403 . S
C431 C432 1.524 . S
C431 C435 1.400 . S
C432 H417 0.960 . S
C432 H418 0.960 . S
C432 H419 0.960 . S
C432 C431 1.524 . S
C433 C430 1.403 . S
C433 C434 1.392 . S
C433 C437 1.495 . S
C434 C433 1.392 . S
C434 C435 1.385 . S
C434 C436 1.478 . S
C435 H429 0.930 . S
C435 C431 1.400 . S
C435 C434 1.385 . S
C436 C434 1.478 . S
C436 C438 1.381 . S
C436 C442 1.383 . S
C437 C433 1.495 . S
C437 H443 0.959 . S
C437 H444 0.961 . S
C437 H445 0.960 . S
C438 C436 1.381 . S
C438 C439 1.394 . S
C438 H446 0.930 . S
C439 C438 1.394 . S
C439 C440 1.383 . S
C439 H447 0.929 . S
C440 C439 1.383 . S
C440 C441 1.377 . S
C441 H425 0.930 . S
C441 C440 1.377 . S
C441 C442 1.379 . S
C442 H426 0.931 . S
C442 C436 1.383 . S
C442 C441 1.379 . S
H443 C437 0.959 . S
H444 C437 0.961 . S
H445 C437 0.960 . S
H446 C438 0.930 . S
H447 C439 0.929 . S
H448 C456 0.929 . S
H449 C458 0.930 . S
H450 C460 0.930 . S
H451 C463 0.929 . S
H452 C466 0.930 . S
H453 C468 0.960 . S
H454 C468 0.960 . S
H455 C468 0.960 . S
C456 H448 0.929 . S
C456 C457 1.377 . S
C456 C458 1.384 . S
C457 C456 1.377 . S
C457 C463 1.390 . S
C458 H449 0.930 . S
C458 C456 1.384 . S
C458 C459 1.372 . S
C459 C458 1.372 . S
C459 C460 1.400 . S
C459 C464 1.490 . S
C460 H450 0.930 . S
C460 C459 1.400 . S
C460 C463 1.386 . S
H461 C477 0.930 . S
H462 C478 0.931 . S
C463 H451 0.929 . S
C463 C457 1.390 . S
C463 C460 1.386 . S
C464 C459 1.490 . S
C464 C466 1.395 . S
C464 C467 1.403 . S
H465 C471 0.930 . S
C466 H452 0.930 . S
C466 C464 1.395 . S
C466 C469 1.403 . S
C467 C464 1.403 . S
C467 C468 1.524 . S
C467 C471 1.400 . S
C468 H453 0.960 . S
C468 H454 0.960 . S
C468 H455 0.960 . S
C468 C467 1.524 . S
C469 C466 1.403 . S
C469 C470 1.392 . S
C469 C473 1.495 . S
C470 C469 1.392 . S
C470 C471 1.385 . S
C470 C472 1.478 . S
C471 H465 0.930 . S
C471 C467 1.400 . S
C471 C470 1.385 . S
C472 C470 1.478 . S
C472 C474 1.381 . S
C472 C478 1.383 . S
C473 C469 1.495 . S
C473 H479 0.959 . S
C473 H480 0.961 . S
C473 H481 0.960 . S
C474 C472 1.381 . S
C474 C475 1.394 . S
C474 H482 0.930 . S
C475 C474 1.394 . S
C475 C476 1.383 . S
C475 H483 0.929 . S
C476 C475 1.383 . S
C476 C477 1.377 . S
C477 H461 0.930 . S
C477 C476 1.377 . S
C477 C478 1.379 . S
C478 H462 0.931 . S
C478 C472 1.383 . S
C478 C477 1.379 . S
H479 C473 0.959 . S
H480 C473 0.961 . S
H481 C473 0.960 . S
H482 C474 0.930 . S
H483 C475 0.929 . S
H484 C492 0.929 . S
H485 C494 0.930 . S
H486 C496 0.930 1_554 S
H487 C499 0.929 1_554 S
H488 C502 0.930 . S
H489 C504 0.960 . S
H490 C504 0.960 . S
H491 C504 0.960 . S
C492 H484 0.929 . S
C492 C493 1.377 . S
C492 C494 1.384 . S
C493 C492 1.377 . S
C493 C499 1.390 . S
C494 H485 0.930 . S
C494 C492 1.384 . S
C494 C495 1.372 . S
C495 C494 1.372 . S
C495 C496 1.400 . S
C495 C500 1.490 . S
C496 H486 0.930 1_556 S
C496 C495 1.400 . S
C496 C499 1.386 . S
H497 C513 0.930 . S
H498 C514 0.931 . S
C499 H487 0.929 1_556 S
C499 C493 1.390 . S
C499 C496 1.386 . S
C500 C495 1.490 . S
C500 C502 1.395 . S
C500 C503 1.403 1_546 S
H501 C507 0.930 . S
C502 H488 0.930 . S
C502 C500 1.395 . S
C502 C505 1.403 . S
C503 C500 1.403 1_564 S
C503 C504 1.524 . S
C503 C507 1.400 . S
C504 H489 0.960 . S
C504 H490 0.960 . S
C504 H491 0.960 . S
C504 C503 1.524 . S
C505 C502 1.403 . S
C505 C506 1.392 1_546 S
C505 C509 1.495 . S
C506 C505 1.392 1_564 S
C506 C507 1.385 . S
C506 C508 1.478 . S
C507 H501 0.930 . S
C507 C503 1.400 . S
C507 C506 1.385 . S
C508 C506 1.478 . S
C508 C510 1.380 . S
C508 C514 1.383 . S
C509 C505 1.495 . S
C509 H515 0.959 . S
C509 H516 0.961 . S
C509 H517 0.960 . S
C510 C508 1.380 . S
C510 C511 1.394 . S
C510 H518 0.931 1_554 S
C511 C510 1.394 . S
C511 C512 1.383 . S
C511 H519 0.919 1_554 S
C512 C511 1.383 . S
C512 C513 1.377 . S
C513 H497 0.930 . S
C513 C512 1.377 . S
C513 C514 1.379 . S
C514 H498 0.931 . S
C514 C508 1.383 . S
C514 C513 1.379 . S
H515 C509 0.959 . S
H516 C509 0.961 . S
H517 C509 0.960 . S
H518 C510 0.931 1_556 S
H519 C511 0.919 1_556 S
C97 C32 1.430 1_545 S
C116 C7 1.447 . S
C133 C8 1.429 . S
C152 C43 1.445 . S
C169 C76 1.427 1_565 S
C188 C59 1.426 . S
C205 C62 1.423 . S
C224 C87 1.440 . S
C241 C51 0.764 . S
C260 C21 0.807 . S
C277 C37 0.764 . S
C296 C81 0.716 . S
C313 C73 1.496 1_554 S
C332 C18 1.491 . S
C349 C30 1.477 . S
C368 C65 1.478 . S
C385 C29 1.494 1_556 S
C404 C54 1.463 . S
C421 C74 1.477 . S
C440 C15 1.495 . S
C457 C10 1.553 . S
C476 C52 1.544 . S
C493 C84 1.553 . S
C512 C40 1.543 . S
