# Generated by pormake.
# Topology atn, (4)-cn, num edge types: 1
# Building blocks:
#     Node 0, Type 0, BuildingBlock: UXUYUI_clean_sbu_0, # of connection points: 4
#     Node 1, Type 0, BuildingBlock: UXUYUI_clean_sbu_0, # of connection points: 4
#     Node 2, Type 0, BuildingBlock: UXUYUI_clean_sbu_0, # of connection points: 4
#     Node 3, Type 0, BuildingBlock: UXUYUI_clean_sbu_0, # of connection points: 4
#     Node 4, Type 0, BuildingBlock: UXUYUI_clean_sbu_0, # of connection points: 4
#     Node 5, Type 0, BuildingBlock: UXUYUI_clean_sbu_0, # of connection points: 4
#     Node 6, Type 0, BuildingBlock: UXUYUI_clean_sbu_0, # of connection points: 4
#     Node 7, Type 0, BuildingBlock: UXUYUI_clean_sbu_0, # of connection points: 4
#     Node 8, Type 0, BuildingBlock: UXUYUI_clean_sbu_0, # of connection points: 4
#     Node 9, Type 0, BuildingBlock: UXUYUI_clean_sbu_0, # of connection points: 4
#     Node 10, Type 0, BuildingBlock: UXUYUI_clean_sbu_0, # of connection points: 4
#     Node 11, Type 0, BuildingBlock: UXUYUI_clean_sbu_0, # of connection points: 4
#     Node 12, Type 0, BuildingBlock: UXUYUI_clean_sbu_0, # of connection points: 4
#     Node 13, Type 0, BuildingBlock: UXUYUI_clean_sbu_0, # of connection points: 4
#     Node 14, Type 0, BuildingBlock: UXUYUI_clean_sbu_0, # of connection points: 4
#     Node 15, Type 0, BuildingBlock: UXUYUI_clean_sbu_0, # of connection points: 4
#     Edge 16, Type (0, 0), BuildingBlock: CIFDUS_clean_linker_0, # of connection points: 2
#     Edge 17, Type (0, 0), BuildingBlock: CIFDUS_clean_linker_0, # of connection points: 2
#     Edge 18, Type (0, 0), BuildingBlock: CIFDUS_clean_linker_0, # of connection points: 2
#     Edge 19, Type (0, 0), BuildingBlock: CIFDUS_clean_linker_0, # of connection points: 2
#     Edge 20, Type (0, 0), BuildingBlock: CIFDUS_clean_linker_0, # of connection points: 2
#     Edge 21, Type (0, 0), BuildingBlock: CIFDUS_clean_linker_0, # of connection points: 2
#     Edge 22, Type (0, 0), BuildingBlock: CIFDUS_clean_linker_0, # of connection points: 2
#     Edge 23, Type (0, 0), BuildingBlock: CIFDUS_clean_linker_0, # of connection points: 2
#     Edge 24, Type (0, 0), BuildingBlock: CIFDUS_clean_linker_0, # of connection points: 2
#     Edge 25, Type (0, 0), BuildingBlock: CIFDUS_clean_linker_0, # of connection points: 2
#     Edge 26, Type (0, 0), BuildingBlock: CIFDUS_clean_linker_0, # of connection points: 2
#     Edge 27, Type (0, 0), BuildingBlock: CIFDUS_clean_linker_0, # of connection points: 2
#     Edge 28, Type (0, 0), BuildingBlock: CIFDUS_clean_linker_0, # of connection points: 2
#     Edge 29, Type (0, 0), BuildingBlock: CIFDUS_clean_linker_0, # of connection points: 2
#     Edge 30, Type (0, 0), BuildingBlock: CIFDUS_clean_linker_0, # of connection points: 2
#     Edge 31, Type (0, 0), BuildingBlock: CIFDUS_clean_linker_0, # of connection points: 2
#     Edge 32, Type (0, 0), BuildingBlock: CIFDUS_clean_linker_0, # of connection points: 2
#     Edge 33, Type (0, 0), BuildingBlock: CIFDUS_clean_linker_0, # of connection points: 2
#     Edge 34, Type (0, 0), BuildingBlock: CIFDUS_clean_linker_0, # of connection points: 2
#     Edge 35, Type (0, 0), BuildingBlock: CIFDUS_clean_linker_0, # of connection points: 2
#     Edge 36, Type (0, 0), BuildingBlock: CIFDUS_clean_linker_0, # of connection points: 2
#     Edge 37, Type (0, 0), BuildingBlock: CIFDUS_clean_linker_0, # of connection points: 2
#     Edge 38, Type (0, 0), BuildingBlock: CIFDUS_clean_linker_0, # of connection points: 2
#     Edge 39, Type (0, 0), BuildingBlock: CIFDUS_clean_linker_0, # of connection points: 2
#     Edge 40, Type (0, 0), BuildingBlock: CIFDUS_clean_linker_0, # of connection points: 2
#     Edge 41, Type (0, 0), BuildingBlock: CIFDUS_clean_linker_0, # of connection points: 2
#     Edge 42, Type (0, 0), BuildingBlock: CIFDUS_clean_linker_0, # of connection points: 2
#     Edge 43, Type (0, 0), BuildingBlock: CIFDUS_clean_linker_0, # of connection points: 2
#     Edge 44, Type (0, 0), BuildingBlock: CIFDUS_clean_linker_0, # of connection points: 2
#     Edge 45, Type (0, 0), BuildingBlock: CIFDUS_clean_linker_0, # of connection points: 2
#     Edge 46, Type (0, 0), BuildingBlock: CIFDUS_clean_linker_0, # of connection points: 2
#     Edge 47, Type (0, 0), BuildingBlock: CIFDUS_clean_linker_0, # of connection points: 2
# Relax obj value: 0.164
# Max RMSD: 0.140
# Mean RMSD: 0.140
data_MOF--net-atn--node1-UXUYUI_clean_sbu_0--edge1-CIFDUS_clean_linker_0
_symmetry_space_group_name_H-M    P1
_symmetry_Int_Tables_number       1
_symmetry_cell_setting            triclinic
loop_
_symmetry_equiv_pos_as_xyz
'x, y, z'
_cell_length_a     83.671452
_cell_length_b     83.663336
_cell_length_c     34.354185
_cell_angle_alpha  89.997678
_cell_angle_beta   89.998353
_cell_angle_gamma 89.997374
loop_
_atom_site_label
_atom_site_type_symbol
_atom_site_fract_x
_atom_site_fract_y
_atom_site_fract_z
_atom_type_partial_charge
Li0 Li 0.21072 0.39643 0.01393 0.0
Li1 Li 0.19765 0.37286 0.04198 0.0
Li2 Li 0.2252 0.37061 0.01259 0.0
Li3 Li 0.20136 0.37356 0.97189 0.0
C4 C 0.22724 0.39038 0.086 0.0
N5 N 0.24607 0.40498 0.14174 0.0
C6 C 0.22106 0.39355 0.12301 0.0
C7 C 0.24308 0.39439 0.07758 0.0
C8 C 0.23074 0.40102 0.15072 0.0
C9 C 0.25238 0.40182 0.10608 0.0
C10 C 0.17365 0.39199 0.0183 0.0
C11 C 0.14588 0.3851 0.02681 0.0
N12 N 0.14366 0.39874 0.04766 0.0
C13 C 0.17105 0.40602 0.03944 0.0
C14 C 0.16094 0.38151 0.01156 0.0
C15 C 0.15582 0.40919 0.05418 0.0
C16 C 0.2133 0.42755 0.98361 0.0
N17 N 0.21269 0.41908 0.01733 0.0
C18 C 0.21371 0.44314 0.05474 0.0
C19 C 0.21279 0.42651 0.0525 0.0
C20 C 0.2143 0.45226 0.02041 0.0
C21 C 0.21412 0.44422 0.98446 0.0
H22 H 0.21294 0.42133 0.95602 0.0
H23 H 0.21183 0.4196 0.07888 0.0
C24 C 0.18369 0.34957 0.09034 0.0
N25 N 0.18491 0.36558 0.08436 0.0
C26 C 0.17585 0.3437 0.12321 0.0
C27 C 0.1704 0.37089 0.14292 0.0
C28 C 0.17844 0.37624 0.10976 0.0
C29 C 0.16926 0.35441 0.15026 0.0
H30 H 0.18923 0.34135 0.07021 0.0
H31 H 0.18001 0.38891 0.10506 0.0
C32 C 0.23531 0.39064 0.95066 0.0
N33 N 0.26282 0.40041 0.91296 0.0
C34 C 0.23905 0.38461 0.91381 0.0
C35 C 0.24542 0.40188 0.96797 0.0
C36 C 0.25305 0.38962 0.89534 0.0
C37 C 0.2593 0.40661 0.94854 0.0
C38 C 0.20196 0.34211 0.99057 0.0
C39 C 0.21333 0.33134 0.97639 0.0
C40 C 0.18571 0.3387 0.98629 0.0
C41 C 0.20823 0.31747 0.95748 0.0
C42 C 0.18108 0.32471 0.96718 0.0
N43 N 0.19235 0.31448 0.95325 0.0
C44 C 0.25028 0.35528 0.05243 0.0
C45 C 0.25266 0.35475 0.98371 0.0
C46 C 0.26361 0.34539 0.05631 0.0
N47 N 0.24504 0.35966 0.01653 0.0
C48 C 0.26602 0.3448 0.98622 0.0
C49 C 0.27148 0.33974 0.02288 0.0
H50 H 0.24376 0.35902 0.07803 0.0
H51 H 0.24789 0.35783 0.95551 0.0
C52 C 0.17913 0.37344 0.90852 0.0
N53 N 0.19312 0.36748 0.92247 0.0
C54 C 0.17349 0.36867 0.87197 0.0
C55 C 0.19666 0.35165 0.86531 0.0
C56 C 0.20196 0.35694 0.90152 0.0
C57 C 0.18228 0.35757 0.84979 0.0
H58 H 0.17243 0.38197 0.92563 0.0
H59 H 0.21315 0.35258 0.91306 0.0
O60 O 0.2179 0.38307 0.05857 0.0
O61 O 0.18851 0.38864 0.00382 0.0
O62 O 0.22158 0.38591 0.96902 0.0
O63 O 0.20673 0.35588 0.00866 0.0
H64 H 0.20888 0.39039 0.13019 0.0
H65 H 0.24823 0.39158 0.04958 0.0
H66 H 0.22607 0.40364 0.17937 0.0
H67 H 0.26466 0.405 0.09991 0.0
H68 H 0.13596 0.37705 0.02199 0.0
H69 H 0.18072 0.41432 0.04471 0.0
H70 H 0.16266 0.37076 0.99468 0.0
H71 H 0.15366 0.41995 0.07083 0.0
H72 H 0.21395 0.44877 0.08311 0.0
H73 H 0.21425 0.45073 0.95722 0.0
H74 H 0.17517 0.3309 0.12771 0.0
H75 H 0.16571 0.37955 0.16338 0.0
H76 H 0.23126 0.37607 0.89971 0.0
H77 H 0.24251 0.40705 0.99588 0.0
H78 H 0.25614 0.38494 0.86696 0.0
H79 H 0.26724 0.41527 0.96169 0.0
H80 H 0.22596 0.33371 0.97974 0.0
H81 H 0.17677 0.34679 0.99755 0.0
H82 H 0.2169 0.30908 0.94614 0.0
H83 H 0.16854 0.32197 0.96346 0.0
H84 H 0.26747 0.34187 0.08516 0.0
H85 H 0.27148 0.34046 0.95966 0.0
H86 H 0.16248 0.3738 0.86108 0.0
H87 H 0.20375 0.34287 0.84991 0.0
Li88 Li 0.60271 0.21418 -2e-05 0.0
Li89 Li 0.62537 0.20439 0.03668 0.0
Li90 Li 0.62746 0.22867 0.99828 0.0
Li91 Li 0.62573 0.20331 0.96607 0.0
C92 C 0.60804 0.23916 0.05597 0.0
N93 N 0.59749 0.26895 0.07922 0.0
C94 C 0.61119 0.24461 0.09364 0.0
C95 C 0.59958 0.24887 0.03006 0.0
C96 C 0.60574 0.25971 0.10485 0.0
C97 C 0.59432 0.26388 0.0424 0.0
C98 C 0.60073 0.18235 0.02238 0.0
C99 C 0.58439 0.15871 0.02755 0.0
N100 N 0.57953 0.16349 0.06349 0.0
C101 C 0.59558 0.18703 0.05938 0.0
C102 C 0.5951 0.16809 0.0063 0.0
C103 C 0.58486 0.17733 0.07969 0.0
C104 C 0.57131 0.21265 0.96881 0.0
N105 N 0.58001 0.21542 0.00153 0.0
C106 C 0.55622 0.21819 0.03936 0.0
C107 C 0.57282 0.21826 0.03634 0.0
C108 C 0.54687 0.21511 0.00626 0.0
C109 C 0.55461 0.21248 0.97049 0.0
H110 H 0.57737 0.21027 0.94159 0.0
H111 H 0.57999 0.22031 0.06202 0.0
C112 C 0.63937 0.20546 0.10941 0.0
N113 N 0.6329 0.19504 0.08355 0.0
C114 C 0.64575 0.19996 0.1444 0.0
C115 C 0.63884 0.173 0.12535 0.0
C116 C 0.63258 0.17905 0.09063 0.0
C117 C 0.64559 0.18352 0.15274 0.0
H118 H 0.6397 0.21807 0.10258 0.0
H119 H 0.62764 0.17099 0.06918 0.0
C120 C 0.61919 0.22949 0.9193 0.0
N121 N 0.63073 0.24199 0.85037 0.0
C122 C 0.63561 0.23171 0.91411 0.0
C123 C 0.60864 0.23362 0.88943 0.0
C124 C 0.64121 0.23805 0.87906 0.0
C125 C 0.61471 0.23993 0.85479 0.0
C126 C 0.65509 0.20013 0.00501 0.0
C127 C 0.67073 0.20555 0.01035 0.0
C128 C 0.65203 0.18371 0.00359 0.0
C129 C 0.68309 0.19442 0.0141 0.0
C130 C 0.66471 0.17297 0.00748 0.0
N131 N 0.67985 0.1785 0.01261 0.0
C132 C 0.65024 0.24939 0.02446 0.0
C133 C 0.63387 0.26152 0.97647 0.0
C134 C 0.66001 0.26282 0.02592 0.0
N135 N 0.63774 0.24883 0.99936 0.0
C136 C 0.64344 0.27525 0.9768 0.0
C137 C 0.65695 0.2758 0.00108 0.0
H138 H 0.65283 0.23918 0.04272 0.0
H139 H 0.62371 0.2608 0.95711 0.0
C140 C 0.62335 0.1815 0.90229 0.0
N141 N 0.6332 0.19169 0.9217 0.0
C142 C 0.62895 0.17312 0.86973 0.0
C143 C 0.65465 0.18586 0.87803 0.0
C144 C 0.64854 0.19408 0.90998 0.0
C145 C 0.64485 0.17519 0.85751 0.0
H146 H 0.61117 0.17991 0.9121 0.0
H147 H 0.65609 0.20243 0.92533 0.0
O148 O 0.61382 0.22467 0.04406 0.0
O149 O 0.61108 0.1917 0.00161 0.0
O150 O 0.61335 0.22319 0.95321 0.0
O151 O 0.64289 0.21093 0.0016 0.0
H152 H 0.61781 0.23729 0.11398 0.0
H153 H 0.59723 0.24493 0.00061 0.0
H154 H 0.60811 0.26409 0.13391 0.0
H155 H 0.58778 0.27154 0.02264 0.0
H156 H 0.57993 0.14763 0.01545 0.0
H157 H 0.59981 0.19802 0.07232 0.0
H158 H 0.59896 0.16432 0.97764 0.0
H159 H 0.58077 0.18081 0.10833 0.0
H160 H 0.55076 0.22049 0.06739 0.0
H161 H 0.54786 0.2099 0.94434 0.0
H162 H 0.65069 0.20851 0.16478 0.0
H163 H 0.63869 0.16022 0.13034 0.0
H164 H 0.64396 0.22864 0.93692 0.0
H165 H 0.59589 0.23195 0.89299 0.0
H166 H 0.65389 0.23984 0.87469 0.0
H167 H 0.60668 0.24318 0.83141 0.0
H168 H 0.67329 0.21822 0.01155 0.0
H169 H 0.64001 0.17928 0.9995 0.0
H170 H 0.69526 0.19844 0.01822 0.0
H171 H 0.66251 0.16024 0.00643 0.0
H172 H 0.67006 0.26291 0.04579 0.0
H173 H 0.64066 0.285 0.95722 0.0
H174 H 0.62103 0.16498 0.85461 0.0
H175 H 0.66688 0.18802 0.86912 0.0
Li176 Li 0.79998 0.62635 0.02981 0.0
Li177 Li 0.78818 0.60388 0.9945 0.0
Li178 Li 0.80075 0.62683 0.95974 0.0
Li179 Li 0.77469 0.63021 0.99062 0.0
C180 C 0.82438 0.60674 0.0144 0.0
N181 N 0.8514 0.59848 0.056 0.0
C182 C 0.82556 0.59164 0.03158 0.0
C183 C 0.83701 0.61757 0.018 0.0
C184 C 0.83931 0.5877 0.05257 0.0
C185 C 0.85055 0.61319 0.03928 0.0
C186 C 0.76766 0.60988 0.06208 0.0
C187 C 0.7406 0.6022 0.07777 0.0
N188 N 0.74566 0.59672 0.11293 0.0
C189 C 0.77253 0.60437 0.09863 0.0
C190 C 0.75151 0.60897 0.05177 0.0
C191 C 0.76126 0.59767 0.12381 0.0
C192 C 0.81257 0.64805 0.08474 0.0
N193 N 0.81042 0.63227 0.077 0.0
C194 C 0.82188 0.62511 0.13833 0.0
C195 C 0.81495 0.62083 0.10287 0.0
C196 C 0.8241 0.64133 0.14735 0.0
C197 C 0.81946 0.65288 0.11986 0.0
H198 H 0.80865 0.65692 0.06395 0.0
H199 H 0.813 0.60837 0.09619 0.0
C200 C 0.78857 0.574 0.95879 0.0
N201 N 0.78571 0.58126 0.99347 0.0
C202 C 0.78828 0.55737 0.95592 0.0
C203 C 0.78191 0.55597 0.02447 0.0
C204 C 0.78236 0.57265 0.02601 0.0
C205 C 0.7851 0.54812 0.98916 0.0
H206 H 0.79137 0.58116 0.93347 0.0
H207 H 0.78052 0.57863 0.05343 0.0
C208 C 0.7994 0.65744 0.97618 0.0
N209 N 0.81098 0.6835 0.93563 0.0
C210 C 0.78909 0.66668 0.95339 0.0
C211 C 0.81555 0.66156 0.97871 0.0
C212 C 0.79519 0.67979 0.93304 0.0
C213 C 0.82119 0.67475 0.95787 0.0
C214 C 0.76789 0.6092 0.9271 0.0
C215 C 0.76639 0.61198 0.88713 0.0
C216 C 0.75664 0.59964 0.94608 0.0
C217 C 0.75347 0.60538 0.867 0.0
C218 C 0.7439 0.59324 0.92495 0.0
N219 N 0.74257 0.59624 0.88618 0.0
C220 C 0.82809 0.6305 0.90999 0.0
C221 C 0.80348 0.64068 0.8865 0.0
C222 C 0.83591 0.63552 0.87612 0.0
N223 N 0.81217 0.63319 0.91445 0.0
C224 C 0.81076 0.64588 0.85232 0.0
C225 C 0.82719 0.64328 0.84666 0.0
H226 H 0.8347 0.62442 0.9326 0.0
H227 H 0.79085 0.64273 0.891 0.0
C228 C 0.75013 0.64928 0.0209 0.0
N229 N 0.75523 0.64188 0.98796 0.0
C230 C 0.73705 0.65965 0.0197 0.0
C231 C 0.73452 0.65429 0.95084 0.0
C232 C 0.74766 0.64408 0.95336 0.0
C233 C 0.72922 0.66249 0.98415 0.0
H234 H 0.75658 0.64753 0.04786 0.0
H235 H 0.75218 0.63842 0.92737 0.0
O236 O 0.81096 0.61085 0.99398 0.0
O237 O 0.77853 0.6167 0.0373 0.0
O238 O 0.79374 0.64434 0.99559 0.0
O239 O 0.78051 0.61558 0.94717 0.0
H240 H 0.81595 0.58308 0.02893 0.0
H241 H 0.83631 0.62927 0.0048 0.0
H242 H 0.84036 0.57609 0.06618 0.0
H243 H 0.86036 0.6215 0.04254 0.0
H244 H 0.72809 0.60138 0.07005 0.0
H245 H 0.78489 0.60512 0.10739 0.0
H246 H 0.74737 0.61357 0.02417 0.0
H247 H 0.76491 0.59325 0.15203 0.0
H248 H 0.82542 0.61581 0.15849 0.0
H249 H 0.82071 0.66552 0.12585 0.0
H250 H 0.79065 0.55181 0.92805 0.0
H251 H 0.77967 0.54929 0.05092 0.0
H252 H 0.77656 0.66367 0.95112 0.0
H253 H 0.82367 0.65459 0.99636 0.0
H254 H 0.78737 0.68698 0.91508 0.0
H255 H 0.83368 0.67801 0.95935 0.0
H256 H 0.77509 0.61918 0.8718 0.0
H257 H 0.75785 0.59698 0.97666 0.0
H258 H 0.75211 0.60751 0.83612 0.0
H259 H 0.73511 0.58583 0.93934 0.0
H260 H 0.84856 0.63316 0.8728 0.0
H261 H 0.80363 0.65207 0.83076 0.0
H262 H 0.73358 0.66589 0.04598 0.0
H263 H 0.72878 0.65601 0.9229 0.0
Li264 Li 0.37323 0.79982 0.03133 0.0
Li265 Li 0.39769 0.78858 0.00273 0.0
Li266 Li 0.37569 0.79972 0.96157 0.0
Li267 Li 0.3722 0.774 0.99397 0.0
C268 C 0.39218 0.8246 0.02053 0.0
N269 N 0.39692 0.85173 0.06488 0.0
C270 C 0.4063 0.82648 0.04179 0.0
C271 C 0.38054 0.83657 0.02152 0.0
C272 C 0.40846 0.84028 0.06409 0.0
C273 C 0.38314 0.85018 0.04423 0.0
C274 C 0.38885 0.76812 0.0695 0.0
C275 C 0.39681 0.74122 0.0859 0.0
N276 N 0.39903 0.7458 0.12348 0.0
C277 C 0.39103 0.7725 0.10842 0.0
C278 C 0.39162 0.7523 0.05824 0.0
C279 C 0.39625 0.76107 0.13521 0.0
C280 C 0.34857 0.81182 0.0786 0.0
N281 N 0.36469 0.81017 0.07611 0.0
C282 C 0.36799 0.82106 0.13994 0.0
C283 C 0.37444 0.81475 0.10574 0.0
C284 C 0.35134 0.82258 0.14372 0.0
C285 C 0.34161 0.81809 0.11221 0.0
H286 H 0.34107 0.80792 0.05482 0.0
H287 H 0.38721 0.81311 0.10323 0.0
C288 C 0.42959 0.78934 0.9773 0.0
N289 N 0.42022 0.7868 0.009 0.0
C290 C 0.44622 0.78876 0.98062 0.0
C291 C 0.44322 0.78287 0.04911 0.0
C292 C 0.42667 0.78365 0.04449 0.0
C293 C 0.45326 0.78554 0.01696 0.0
H294 H 0.42412 0.79199 0.94951 0.0
H295 H 0.419 0.78197 0.06939 0.0
C296 C 0.34458 0.79653 0.97029 0.0
N297 N 0.3196 0.80514 0.92207 0.0
C298 C 0.33706 0.78503 0.94714 0.0
C299 C 0.33929 0.81237 0.96921 0.0
C300 C 0.32446 0.78963 0.92291 0.0
C301 C 0.32669 0.8165 0.94453 0.0
C302 C 0.39512 0.76686 0.93529 0.0
C303 C 0.39211 0.76397 0.89588 0.0
C304 C 0.40537 0.75669 0.95574 0.0
C305 C 0.39917 0.75077 0.87781 0.0
C306 C 0.41221 0.74363 0.93665 0.0
N307 N 0.40898 0.74095 0.89841 0.0
C308 C 0.3723 0.82691 0.91174 0.0
C309 C 0.36389 0.80211 0.88545 0.0
C310 C 0.36727 0.83491 0.87816 0.0
N311 N 0.37039 0.81082 0.91483 0.0
C312 C 0.35874 0.80959 0.85141 0.0
C313 C 0.36032 0.82623 0.84748 0.0
H314 H 0.37753 0.83355 0.9355 0.0
H315 H 0.3623 0.78937 0.88894 0.0
C316 C 0.35155 0.75192 0.02454 0.0
N317 N 0.36136 0.75405 0.99348 0.0
C318 C 0.3417 0.73853 0.02674 0.0
C319 C 0.35252 0.72945 0.96535 0.0
C320 C 0.36214 0.74312 0.96422 0.0
C321 C 0.34192 0.7272 0.9966 0.0
H322 H 0.35115 0.76088 0.04724 0.0
H323 H 0.36983 0.74517 0.93953 0.0
O324 O 0.38979 0.8111 0.99884 0.0
O325 O 0.3836 0.77917 0.04298 0.0
O326 O 0.35716 0.79233 0.99355 0.0
O327 O 0.3883 0.77976 0.95332 0.0
H328 H 0.41546 0.81737 0.04124 0.0
H329 H 0.36954 0.83529 0.00532 0.0
H330 H 0.41929 0.84187 0.08083 0.0
H331 H 0.37418 0.85949 0.04551 0.0
H332 H 0.39902 0.72895 0.0775 0.0
H333 H 0.38882 0.78461 0.11786 0.0
H334 H 0.38961 0.7485 0.02861 0.0
H335 H 0.39808 0.76435 0.16534 0.0
H336 H 0.37593 0.82418 0.16365 0.0
H337 H 0.32873 0.81923 0.11364 0.0
H338 H 0.45346 0.79116 0.95517 0.0
H339 H 0.44807 0.7802 0.07759 0.0
H340 H 0.34101 0.77272 0.94755 0.0
H341 H 0.34498 0.82141 0.98694 0.0
H342 H 0.31859 0.78088 0.90467 0.0
H343 H 0.32256 0.82874 0.94316 0.0
H344 H 0.38438 0.77179 0.87938 0.0
H345 H 0.40816 0.7589 0.98593 0.0
H346 H 0.39687 0.74836 0.84739 0.0
H347 H 0.42014 0.73566 0.95222 0.0
H348 H 0.36883 0.84774 0.87619 0.0
H349 H 0.3532 0.80246 0.82885 0.0
H350 H 0.33382 0.73715 0.05155 0.0
H351 H 0.35291 0.72106 0.94135 0.0
Li352 Li 0.2014 0.62301 0.03573 0.0
Li353 Li 0.22705 0.62878 0.00151 0.0
Li354 Li 0.20288 0.62391 0.96239 0.0
Li355 Li 0.21551 0.60279 0.99702 0.0
C356 C 0.20329 0.65485 0.98117 0.0
N357 N 0.19536 0.68139 0.9373 0.0
C358 C 0.21462 0.66187 0.9566 0.0
C359 C 0.18793 0.66135 0.98339 0.0
C360 C 0.21038 0.67528 0.9347 0.0
C361 C 0.18415 0.67476 0.96098 0.0
C362 C 0.2373 0.61364 0.0638 0.0
C363 C 0.26447 0.60436 0.07017 0.0
N364 N 0.26678 0.61478 0.10003 0.0
C365 C 0.23992 0.6242 0.09469 0.0
C366 C 0.24966 0.6036 0.05153 0.0
C367 C 0.25491 0.62462 0.11256 0.0
C368 C 0.19508 0.6251 0.11625 0.0
N369 N 0.18891 0.62792 0.08033 0.0
C370 C 0.1661 0.64076 0.10818 0.0
C371 C 0.17449 0.63516 0.07576 0.0
C372 C 0.17263 0.63887 0.14564 0.0
C373 C 0.18716 0.63057 0.14945 0.0
H374 H 0.20639 0.619 0.11909 0.0
H375 H 0.16969 0.6369 0.04688 0.0
C376 C 0.25747 0.64157 0.97911 0.0
N377 N 0.24535 0.64217 0.00542 0.0
C378 C 0.26967 0.653 0.98012 0.0
C379 C 0.25683 0.66511 0.03582 0.0
C380 C 0.24483 0.65361 0.03343 0.0
C381 C 0.26931 0.66515 0.00841 0.0
H382 H 0.25733 0.63267 0.95635 0.0
H383 H 0.23482 0.65405 0.05329 0.0
C384 C 0.18518 0.59372 0.99583 0.0
N385 N 0.17236 0.56333 0.99472 0.0
C386 C 0.18077 0.58672 0.96051 0.0
C387 C 0.18293 0.58538 0.03062 0.0
C388 C 0.17433 0.57132 0.96056 0.0
C389 C 0.17648 0.56998 0.02943 0.0
C390 C 0.23242 0.60598 0.92879 0.0
C391 C 0.22524 0.60168 0.89355 0.0
C392 C 0.24767 0.60024 0.93769 0.0
C393 C 0.23335 0.59148 0.8681 0.0
C394 C 0.25538 0.59005 0.9115 0.0
N395 N 0.24812 0.58591 0.87755 0.0
C396 C 0.20074 0.63697 0.88773 0.0
C397 C 0.17575 0.62918 0.91415 0.0
C398 C 0.19338 0.64226 0.85371 0.0
N399 N 0.19189 0.63056 0.91696 0.0
C400 C 0.16786 0.63434 0.88053 0.0
C401 C 0.17671 0.64101 0.84975 0.0
H402 H 0.21357 0.63792 0.89088 0.0
H403 H 0.16902 0.62414 0.93807 0.0
C404 C 0.22229 0.57256 0.03021 0.0
N405 N 0.21921 0.5801 0.99593 0.0
C406 C 0.22384 0.55594 0.03145 0.0
C407 C 0.21901 0.55511 0.96216 0.0
C408 C 0.21735 0.57169 0.96236 0.0
C409 C 0.22222 0.54703 0.99706 0.0
H410 H 0.22319 0.57943 0.05677 0.0
H411 H 0.21396 0.57772 0.93593 0.0
O412 O 0.20705 0.64142 0.00201 0.0
O413 O 0.22278 0.61326 0.04538 0.0
O414 O 0.19191 0.6086 0.9963 0.0
O415 O 0.22472 0.61608 0.95389 0.0
H416 H 0.22647 0.65686 0.95386 0.0
H417 H 0.17896 0.65602 0.00194 0.0
H418 H 0.21901 0.68077 0.91544 0.0
H419 H 0.17228 0.67987 0.96233 0.0
H420 H 0.27414 0.59667 0.06089 0.0
H421 H 0.23059 0.63222 0.10433 0.0
H422 H 0.24785 0.59528 0.0279 0.0
H423 H 0.25713 0.63282 0.1363 0.0
H424 H 0.15476 0.64674 0.10388 0.0
H425 H 0.19272 0.62887 0.17761 0.0
H426 H 0.27887 0.6527 0.95797 0.0
H427 H 0.25614 0.67408 0.05848 0.0
H428 H 0.18251 0.59304 0.93333 0.0
H429 H 0.18634 0.59066 0.05817 0.0
H430 H 0.17096 0.56568 0.93343 0.0
H431 H 0.1748 0.5633 0.05608 0.0
H432 H 0.21341 0.6059 0.88621 0.0
H433 H 0.25354 0.60365 0.96443 0.0
H434 H 0.22787 0.58795 0.84091 0.0
H435 H 0.26716 0.58548 0.91812 0.0
H436 H 0.20071 0.64709 0.83055 0.0
H437 H 0.15498 0.63331 0.87887 0.0
H438 H 0.22623 0.55011 0.059 0.0
H439 H 0.21724 0.54862 0.93522 0.0
Li440 Li 0.37085 0.22866 0.9974 0.0
Li441 Li 0.37301 0.2019 0.03433 0.0
Li442 Li 0.39568 0.21343 0.99871 0.0
Li443 Li 0.37395 0.20319 0.96363 0.0
C444 C 0.39634 0.22992 0.06293 0.0
N445 N 0.42237 0.24367 0.09927 0.0
C446 C 0.40572 0.2209 0.08843 0.0
C447 C 0.40013 0.24593 0.05602 0.0
C448 C 0.41886 0.22807 0.10646 0.0
C449 C 0.41335 0.25267 0.07468 0.0
C450 C 0.34332 0.20454 0.97752 0.0
C451 C 0.3253 0.18334 0.95918 0.0
N452 N 0.31834 0.19324 0.93274 0.0
C453 C 0.33591 0.21454 0.95041 0.0
C454 C 0.33792 0.18884 0.98218 0.0
C455 C 0.32332 0.20859 0.92796 0.0
C456 C 0.3569 0.25633 0.96455 0.0
N457 N 0.36065 0.24877 0.99833 0.0
C458 C 0.3472 0.26875 0.03554 0.0
C459 C 0.35622 0.25475 0.03345 0.0
C460 C 0.34258 0.27656 0.0011 0.0
C461 C 0.34781 0.27034 0.96526 0.0
H462 H 0.3605 0.25117 0.93704 0.0
H463 H 0.35938 0.24841 0.0598 0.0
C464 C 0.37561 0.18363 0.10436 0.0
N465 N 0.36558 0.19177 0.08035 0.0
C466 C 0.36999 0.17756 0.13978 0.0
C467 C 0.34382 0.18805 0.12438 0.0
C468 C 0.34993 0.19393 0.08944 0.0
C469 C 0.35394 0.17997 0.15045 0.0
H470 H 0.38803 0.18215 0.09637 0.0
H471 H 0.34226 0.20051 0.06983 0.0
C472 C 0.39531 0.22453 0.92305 0.0
N473 N 0.41638 0.22623 0.86131 0.0
C474 C 0.40289 0.21073 0.90954 0.0
C475 C 0.39842 0.2392 0.90518 0.0
C476 C 0.41351 0.21183 0.87829 0.0
C477 C 0.40912 0.23982 0.87399 0.0
C478 C 0.38888 0.17508 0.99194 0.0
C479 C 0.40114 0.16885 0.96879 0.0
C480 C 0.37754 0.16475 0.0081 0.0
C481 C 0.40164 0.15243 0.96152 0.0
C482 C 0.37847 0.1484 0.00019 0.0
N483 N 0.39038 0.14263 0.97721 0.0
C484 C 0.42737 0.20291 0.00923 0.0
C485 C 0.42506 0.22971 0.98754 0.0
C486 C 0.44401 0.20381 0.00746 0.0
N487 N 0.4183 0.2157 0.99899 0.0
C488 C 0.44166 0.23114 0.98535 0.0
C489 C 0.45137 0.21803 0.99506 0.0
H490 H 0.42166 0.19193 0.01829 0.0
H491 H 0.41754 0.23972 0.97978 0.0
C492 C 0.36401 0.2039 0.8862 0.0
N493 N 0.3672 0.19343 0.91546 0.0
C494 C 0.35916 0.19843 0.84974 0.0
C495 C 0.36052 0.1714 0.8741 0.0
C496 C 0.36533 0.17742 0.9102 0.0
C497 C 0.35747 0.18196 0.84317 0.0
H498 H 0.3651 0.21661 0.89129 0.0
H499 H 0.36742 0.16925 0.93383 0.0
O500 O 0.38372 0.223 0.04413 0.0
O501 O 0.35601 0.20998 0.9988 0.0
O502 O 0.38506 0.22379 0.95401 0.0
O503 O 0.38838 0.19109 0.9999 0.0
H504 H 0.403 0.20846 0.09384 0.0
H505 H 0.39304 0.25303 0.03612 0.0
H506 H 0.42629 0.22122 0.12609 0.0
H507 H 0.41647 0.26503 0.06948 0.0
H508 H 0.32107 0.17119 0.96228 0.0
H509 H 0.33998 0.22669 0.94636 0.0
H510 H 0.3435 0.18097 0.0031 0.0
H511 H 0.31755 0.21616 0.90663 0.0
H512 H 0.34366 0.27325 0.06381 0.0
H513 H 0.34437 0.27584 0.93798 0.0
H514 H 0.37825 0.17152 0.1591 0.0
H515 H 0.33131 0.18995 0.13105 0.0
H516 H 0.40059 0.19931 0.92306 0.0
H517 H 0.39267 0.25001 0.91543 0.0
H518 H 0.41946 0.20123 0.86755 0.0
H519 H 0.41167 0.2511 0.85989 0.0
H520 H 0.41023 0.17658 0.9567 0.0
H521 H 0.36804 0.16928 0.02628 0.0
H522 H 0.41101 0.14746 0.94351 0.0
H523 H 0.3697 0.14029 0.0123 0.0
H524 H 0.45101 0.19336 0.01485 0.0
H525 H 0.44682 0.24241 0.97622 0.0
H526 H 0.35656 0.20705 0.82709 0.0
H527 H 0.35939 0.15859 0.87038 0.0
Li528 Li 0.79849 0.37435 0.04099 0.0
Li529 Li 0.77401 0.3712 0.00305 0.0
Li530 Li 0.79992 0.37539 0.96855 0.0
Li531 Li 0.78643 0.39728 0.00234 0.0
C532 C 0.80317 0.34438 0.00551 0.0
N533 N 0.82323 0.31822 0.01062 0.0
C534 C 0.79682 0.32906 0.01044 0.0
C535 C 0.81971 0.34636 0.00277 0.0
C536 C 0.80716 0.31599 0.0131 0.0
C537 C 0.82966 0.33301 0.00549 0.0
C538 C 0.7638 0.38424 0.06877 0.0
C539 C 0.73631 0.39167 0.07974 0.0
N540 N 0.73546 0.38086 0.10925 0.0
C541 C 0.76271 0.37336 0.09952 0.0
C542 C 0.75056 0.3936 0.05905 0.0
C543 C 0.74825 0.37177 0.1195 0.0
C544 C 0.81799 0.37669 0.10991 0.0
N545 N 0.80812 0.36735 0.0882 0.0
C546 C 0.8093 0.34652 0.1356 0.0
C547 C 0.8037 0.35256 0.10044 0.0
C548 C 0.81929 0.35591 0.15918 0.0
C549 C 0.82378 0.37116 0.14573 0.0
H550 H 0.82108 0.38855 0.09982 0.0
H551 H 0.79545 0.34556 0.08333 0.0
C552 C 0.74288 0.36052 0.9778 0.0
N553 N 0.75514 0.35873 0.00344 0.0
C554 C 0.73027 0.34953 0.97752 0.0
C555 C 0.74307 0.33541 0.03045 0.0
C556 C 0.75533 0.34663 0.02978 0.0
C557 C 0.73051 0.33658 0.00354 0.0
H558 H 0.74317 0.3701 0.95671 0.0
H559 H 0.76531 0.34545 0.04956 0.0
C560 C 0.82445 0.3958 0.00011 0.0
N561 N 0.85509 0.40687 0.98651 0.0
C562 C 0.82692 0.40926 0.97677 0.0
C563 C 0.83757 0.38819 0.01723 0.0
C564 C 0.8425 0.4146 0.97001 0.0
C565 C 0.85296 0.39391 0.00982 0.0
C566 C 0.77108 0.39465 0.93174 0.0
C567 C 0.77805 0.39819 0.89578 0.0
C568 C 0.7564 0.4015 0.9416 0.0
C569 C 0.77032 0.40875 0.87052 0.0
C570 C 0.74905 0.41201 0.91557 0.0
N571 N 0.75611 0.4154 0.88088 0.0
C572 C 0.81002 0.35401 0.91074 0.0
C573 C 0.82027 0.38013 0.90209 0.0
C574 C 0.81755 0.34883 0.87686 0.0
N575 N 0.81165 0.36936 0.92303 0.0
C576 C 0.82778 0.37554 0.86748 0.0
C577 C 0.82644 0.35967 0.85432 0.0
H578 H 0.80262 0.34577 0.92688 0.0
H579 H 0.82085 0.39243 0.91138 0.0
C580 C 0.77821 0.42709 0.03535 0.0
N581 N 0.78304 0.41982 0.00198 0.0
C582 C 0.77616 0.44366 0.03651 0.0
C583 C 0.78401 0.44492 0.96889 0.0
C584 C 0.78597 0.42837 0.96911 0.0
C585 C 0.77919 0.45282 0.003 0.0
H586 H 0.77618 0.42004 0.06126 0.0
H587 H 0.79006 0.42239 0.94312 0.0
O588 O 0.7932 0.35733 0.0031 0.0
O589 O 0.77777 0.38576 0.04839 0.0
O590 O 0.80925 0.39056 0.00761 0.0
O591 O 0.77856 0.38443 0.95694 0.0
H592 H 0.78404 0.32726 0.01226 0.0
H593 H 0.82476 0.35805 0.99796 0.0
H594 H 0.80241 0.30408 0.01707 0.0
H595 H 0.84248 0.33439 0.00338 0.0
H596 H 0.72595 0.39879 0.0724 0.0
H597 H 0.77286 0.36611 0.10766 0.0
H598 H 0.75128 0.40231 0.0359 0.0
H599 H 0.74721 0.36329 0.14314 0.0
H600 H 0.80568 0.33462 0.14433 0.0
H601 H 0.8313 0.3789 0.16313 0.0
H602 H 0.72084 0.35074 0.95612 0.0
H603 H 0.7436 0.3257 0.05127 0.0
H604 H 0.81695 0.41541 0.96362 0.0
H605 H 0.83592 0.37805 0.03631 0.0
H606 H 0.84457 0.42491 0.95168 0.0
H607 H 0.8632 0.38808 0.02275 0.0
H608 H 0.78933 0.3929 0.8875 0.0
H609 H 0.75075 0.39875 0.96906 0.0
H610 H 0.77561 0.41166 0.84268 0.0
H611 H 0.73772 0.41747 0.92294 0.0
H612 H 0.81631 0.33642 0.86844 0.0
H613 H 0.83416 0.38445 0.85074 0.0
H614 H 0.77265 0.44926 0.06361 0.0
H615 H 0.7863 0.45144 0.94224 0.0
Li616 Li 0.62692 0.80108 0.04254 0.0
Li617 Li 0.6305 0.77523 0.00554 0.0
Li618 Li 0.62568 0.80011 0.97212 0.0
Li619 Li 0.60429 0.78814 0.00728 0.0
C620 C 0.65653 0.79975 0.98375 0.0
N621 N 0.68065 0.81052 0.93546 0.0
C622 C 0.66409 0.7892 0.95815 0.0
C623 C 0.66131 0.81576 0.98498 0.0
C624 C 0.67625 0.79488 0.93394 0.0
C625 C 0.6735 0.82097 0.96027 0.0
C626 C 0.60906 0.76685 0.06789 0.0
C627 C 0.5977 0.7405 0.06152 0.0
N628 N 0.59311 0.74103 0.09948 0.0
C629 C 0.60422 0.76717 0.10679 0.0
C630 C 0.60578 0.75344 0.04501 0.0
C631 C 0.59617 0.75398 0.12225 0.0
C632 C 0.62234 0.81604 0.11561 0.0
N633 N 0.63329 0.81225 0.08788 0.0
C634 C 0.65414 0.82462 0.12451 0.0
C635 C 0.64895 0.81623 0.0918 0.0
C636 C 0.64315 0.82867 0.15373 0.0
C637 C 0.62706 0.82423 0.14917 0.0
H638 H 0.60997 0.81265 0.11166 0.0
H639 H 0.65743 0.81281 0.06963 0.0
C640 C 0.64356 0.74703 0.97306 0.0
N641 N 0.64194 0.75572 0.00624 0.0
C642 C 0.65287 0.73318 0.97294 0.0
C643 C 0.65832 0.73732 0.04134 0.0
C644 C 0.64895 0.75112 0.0401 0.0
C645 C 0.66055 0.72826 0.00732 0.0
H646 H 0.63788 0.75107 0.94654 0.0
H647 H 0.64748 0.75836 0.06595 0.0
C648 C 0.60793 0.8268 0.00334 0.0
N649 N 0.60199 0.85909 0.99416 0.0
C650 C 0.59431 0.83195 0.98336 0.0
C651 C 0.61839 0.8381 0.01917 0.0
C652 C 0.59156 0.84831 0.97886 0.0
C653 C 0.61521 0.85436 0.01407 0.0
C654 C 0.60567 0.77862 0.93043 0.0
C655 C 0.59748 0.79243 0.91933 0.0
C656 C 0.60335 0.76445 0.90967 0.0
C657 C 0.5871 0.79187 0.88754 0.0
C658 C 0.59285 0.76435 0.87804 0.0
N659 N 0.58501 0.77795 0.86773 0.0
C660 C 0.63565 0.80197 0.89399 0.0
C661 C 0.63356 0.82735 0.92411 0.0
C662 C 0.64156 0.80895 0.86001 0.0
N663 N 0.6318 0.81119 0.92525 0.0
C664 C 0.63953 0.83481 0.89086 0.0
C665 C 0.64374 0.82557 0.85839 0.0
H666 H 0.63461 0.78912 0.89587 0.0
H667 H 0.63095 0.83447 0.94935 0.0
C668 C 0.57259 0.79663 0.02358 0.0
N669 N 0.58185 0.78476 0.00884 0.0
C670 C 0.55596 0.79534 0.02262 0.0
C671 C 0.55874 0.76938 0.99252 0.0
C672 C 0.57532 0.77122 0.99382 0.0
C673 C 0.5488 0.78163 0.00662 0.0
H674 H 0.57812 0.80725 0.03537 0.0
H675 H 0.58297 0.76194 0.98231 0.0
O676 O 0.64426 0.79451 0.00675 0.0
O677 O 0.61687 0.7797 0.0523 0.0
O678 O 0.61061 0.81081 0.00881 0.0
O679 O 0.61572 0.7788 0.96185 0.0
H680 H 0.66049 0.77681 0.95665 0.0
H681 H 0.65543 0.82415 0.0042 0.0
H682 H 0.68214 0.78687 0.91381 0.0
H683 H 0.67721 0.83336 0.96065 0.0
H684 H 0.59505 0.73005 0.04414 0.0
H685 H 0.60666 0.7775 0.12483 0.0
H686 H 0.60932 0.75306 0.01473 0.0
H687 H 0.59236 0.75404 0.15233 0.0
H688 H 0.66669 0.82759 0.12733 0.0
H689 H 0.61826 0.82716 0.17115 0.0
H690 H 0.65415 0.72646 0.94617 0.0
H691 H 0.66418 0.73409 0.06833 0.0
H692 H 0.58587 0.82342 0.97161 0.0
H693 H 0.62901 0.83441 0.03461 0.0
H694 H 0.5811 0.85245 0.96335 0.0
H695 H 0.62329 0.86322 0.02587 0.0
H696 H 0.59918 0.80348 0.93501 0.0
H697 H 0.60952 0.75361 0.91806 0.0
H698 H 0.58069 0.80249 0.87864 0.0
H699 H 0.59092 0.75346 0.86174 0.0
H700 H 0.64492 0.80137 0.83579 0.0
H701 H 0.64101 0.84767 0.89074 0.0
H702 H 0.54882 0.8052 0.03335 0.0
H703 H 0.55379 0.75849 0.98048 0.0
Li704 Li 0.71392 0.89611 0.50685 0.0
Li705 Li 0.70264 0.87451 0.54198 0.0
Li706 Li 0.72748 0.87073 0.50834 0.0
Li707 Li 0.70223 0.87356 0.47209 0.0
C708 C 0.73735 0.89219 0.56328 0.0
N709 N 0.76582 0.90647 0.58455 0.0
C710 C 0.74149 0.89348 0.60255 0.0
C711 C 0.74769 0.89816 0.5348 0.0
C712 C 0.75593 0.90074 0.61272 0.0
C713 C 0.76202 0.90534 0.54615 0.0
C714 C 0.68203 0.90009 0.52535 0.0
C715 C 0.65931 0.91782 0.52748 0.0
N716 N 0.66367 0.92254 0.56385 0.0
C717 C 0.68628 0.90511 0.56276 0.0
C718 C 0.66844 0.90648 0.50754 0.0
C719 C 0.67685 0.91647 0.58173 0.0
C720 C 0.71625 0.92645 0.47114 0.0
N721 N 0.71662 0.91869 0.50588 0.0
C722 C 0.72025 0.94334 0.53986 0.0
C723 C 0.71857 0.92676 0.5399 0.0
C724 C 0.71987 0.95173 0.50447 0.0
C725 C 0.71785 0.94307 0.46974 0.0
H726 H 0.71463 0.91971 0.44455 0.0
H727 H 0.71867 0.92035 0.5672 0.0
C728 C 0.70027 0.86302 0.61811 0.0
N729 N 0.6914 0.86801 0.58732 0.0
C730 C 0.6928 0.85713 0.65143 0.0
C731 C 0.66718 0.86164 0.62069 0.0
C732 C 0.67516 0.86757 0.58805 0.0
C733 C 0.67604 0.85627 0.65285 0.0
H734 H 0.71318 0.86336 0.6164 0.0
H735 H 0.66841 0.87151 0.56299 0.0
C736 C 0.72956 0.87831 0.42836 0.0
N737 N 0.74243 0.86589 0.36073 0.0
C738 C 0.73025 0.86177 0.4228 0.0
C739 C 0.7354 0.88853 0.3995 0.0
C740 C 0.7368 0.85573 0.38842 0.0
C741 C 0.74187 0.88202 0.36552 0.0
C742 C 0.69886 0.84436 0.52052 0.0
C743 C 0.70496 0.83153 0.54192 0.0
C744 C 0.68247 0.84515 0.51286 0.0
C745 C 0.69454 0.81973 0.55547 0.0
C746 C 0.67244 0.8331 0.52688 0.0
N747 N 0.67863 0.82076 0.54775 0.0
C748 C 0.74908 0.84913 0.54 0.0
C749 C 0.75987 0.86325 0.4863 0.0
C750 C 0.76295 0.83996 0.54317 0.0
N751 N 0.74762 0.86016 0.51123 0.0
C752 C 0.77397 0.85434 0.48836 0.0
C753 C 0.77552 0.8423 0.51666 0.0
H754 H 0.73936 0.84733 0.56021 0.0
H755 H 0.75868 0.87249 0.46454 0.0
C756 C 0.68324 0.87767 0.40442 0.0
N757 N 0.69092 0.86678 0.42707 0.0
C758 C 0.6749 0.87269 0.37128 0.0
C759 C 0.68246 0.84543 0.38579 0.0
C760 C 0.69083 0.85095 0.41818 0.0
C761 C 0.67435 0.85636 0.36193 0.0
H762 H 0.68361 0.8902 0.41213 0.0
H763 H 0.69728 0.84257 0.43623 0.0
O764 O 0.72323 0.88505 0.55313 0.0
O765 O 0.69109 0.88907 0.50593 0.0
O766 O 0.72304 0.8846 0.46153 0.0
O767 O 0.7088 0.85627 0.50777 0.0
H768 H 0.73361 0.88891 0.62494 0.0
H769 H 0.74473 0.89732 0.50427 0.0
H770 H 0.75929 0.90183 0.64302 0.0
H771 H 0.77013 0.91001 0.52443 0.0
H772 H 0.64877 0.92287 0.51403 0.0
H773 H 0.69675 0.90033 0.57703 0.0
H774 H 0.66501 0.90272 0.47856 0.0
H775 H 0.68001 0.92047 0.61067 0.0
H776 H 0.72152 0.94954 0.56736 0.0
H777 H 0.71762 0.94906 0.4418 0.0
H778 H 0.70006 0.85291 0.67544 0.0
H779 H 0.65425 0.86127 0.62079 0.0
H780 H 0.72587 0.85365 0.44482 0.0
H781 H 0.73492 0.90137 0.40333 0.0
H782 H 0.73743 0.84296 0.38378 0.0
H783 H 0.74643 0.8898 0.34295 0.0
H784 H 0.7176 0.83065 0.54802 0.0
H785 H 0.67748 0.85511 0.49689 0.0
H786 H 0.6991 0.80975 0.57214 0.0
H787 H 0.65972 0.83363 0.52137 0.0
H788 H 0.76358 0.8308 0.56539 0.0
H789 H 0.7835 0.85677 0.46788 0.0
H790 H 0.66879 0.88145 0.35346 0.0
H791 H 0.68255 0.83278 0.37909 0.0
Li792 Li 0.10286 0.71052 0.4994 0.0
Li793 Li 0.12659 0.70058 0.53335 0.0
Li794 Li 0.12799 0.72594 0.49398 0.0
Li795 Li 0.12636 0.69956 0.46316 0.0
C796 C 0.10666 0.73092 0.56549 0.0
N797 N 0.08968 0.75079 0.61474 0.0
C798 C 0.10174 0.72545 0.60201 0.0
C799 C 0.10323 0.74663 0.5544 0.0
C800 C 0.09308 0.73563 0.62638 0.0
C801 C 0.09456 0.75646 0.57959 0.0
C802 C 0.10915 0.67464 0.52014 0.0
C803 C 0.11859 0.64933 0.5447 0.0
N804 N 0.10438 0.64714 0.56317 0.0
C805 C 0.09459 0.67207 0.53909 0.0
C806 C 0.1212 0.66312 0.52267 0.0
C807 C 0.09243 0.65811 0.56079 0.0
C808 C 0.07265 0.71146 0.46454 0.0
N809 N 0.0801 0.71162 0.49968 0.0
C810 C 0.05493 0.71171 0.53264 0.0
C811 C 0.07162 0.71169 0.53344 0.0
C812 C 0.04689 0.71158 0.49671 0.0
C813 C 0.05601 0.71158 0.46235 0.0
H814 H 0.07966 0.7111 0.43812 0.0
H815 H 0.07777 0.71123 0.56101 0.0
C816 C 0.15046 0.69151 0.5859 0.0
N817 N 0.13439 0.69116 0.58017 0.0
C818 C 0.157 0.68599 0.62074 0.0
C819 C 0.13036 0.67966 0.64315 0.0
C820 C 0.12432 0.68534 0.60784 0.0
C821 C 0.1469 0.68015 0.65013 0.0
H822 H 0.15819 0.69639 0.56372 0.0
H823 H 0.11157 0.68544 0.60289 0.0
C824 C 0.10791 0.73156 0.42985 0.0
N825 N 0.09662 0.75694 0.3863 0.0
C826 C 0.11271 0.73345 0.39114 0.0
C827 C 0.09716 0.74245 0.44617 0.0
C828 C 0.10693 0.7464 0.36967 0.0
C829 C 0.09164 0.75523 0.42375 0.0
C830 C 0.15711 0.70355 0.47804 0.0
C831 C 0.16551 0.71465 0.45557 0.0
C832 C 0.16256 0.68779 0.48036 0.0
C833 C 0.17911 0.70972 0.43524 0.0
C834 C 0.17619 0.68332 0.45956 0.0
N835 N 0.18411 0.69428 0.43759 0.0
C836 C 0.1428 0.75245 0.52724 0.0
C837 C 0.14122 0.75396 0.45845 0.0
C838 C 0.15171 0.76653 0.52859 0.0
N839 N 0.13786 0.74642 0.49254 0.0
C840 C 0.15016 0.76806 0.45842 0.0
C841 C 0.15575 0.77438 0.4938 0.0
H842 H 0.14025 0.74601 0.55382 0.0
H843 H 0.13755 0.74871 0.43118 0.0
C844 C 0.12923 0.67209 0.41479 0.0
N845 N 0.13283 0.68787 0.41823 0.0
C846 C 0.13401 0.66354 0.38183 0.0
C847 C 0.14601 0.68768 0.35653 0.0
C848 C 0.14098 0.69574 0.38991 0.0
C849 C 0.14251 0.67135 0.35209 0.0
H850 H 0.12256 0.66616 0.43752 0.0
H851 H 0.14367 0.7083 0.39337 0.0
O852 O 0.1153 0.72113 0.54144 0.0
O853 O 0.11153 0.6883 0.49902 0.0
O854 O 0.11351 0.71895 0.45129 0.0
O855 O 0.1436 0.70808 0.49761 0.0
H856 H 0.10444 0.71342 0.61134 0.0
H857 H 0.10737 0.75129 0.52686 0.0
H858 H 0.08907 0.73149 0.65457 0.0
H859 H 0.09178 0.76862 0.57128 0.0
H860 H 0.12786 0.64037 0.54712 0.0
H861 H 0.08508 0.68077 0.53719 0.0
H862 H 0.13249 0.66485 0.50797 0.0
H863 H 0.08125 0.65601 0.57576 0.0
H864 H 0.04841 0.71136 0.55986 0.0
H865 H 0.05036 0.71165 0.43399 0.0
H866 H 0.16983 0.68642 0.62471 0.0
H867 H 0.12214 0.67542 0.6652 0.0
H868 H 0.12086 0.72504 0.37783 0.0
H869 H 0.09295 0.74093 0.47562 0.0
H870 H 0.11063 0.74805 0.33977 0.0
H871 H 0.08333 0.76375 0.43608 0.0
H872 H 0.16152 0.7269 0.45355 0.0
H873 H 0.1563 0.67909 0.49791 0.0
H874 H 0.18567 0.71816 0.41754 0.0
H875 H 0.18047 0.67113 0.46089 0.0
H876 H 0.156 0.77083 0.55644 0.0
H877 H 0.15297 0.77375 0.43095 0.0
H878 H 0.13088 0.65102 0.37941 0.0
H879 H 0.15273 0.69414 0.33467 0.0
Li880 Li 0.29637 0.12583 0.53535 0.0
Li881 Li 0.28728 0.10202 0.50103 0.0
Li882 Li 0.29808 0.12461 0.46249 0.0
Li883 Li 0.27243 0.12601 0.49418 0.0
C884 C 0.32516 0.11459 0.50375 0.0
N885 N 0.35734 0.12192 0.50596 0.0
C886 C 0.33655 0.10238 0.50359 0.0
C887 C 0.33013 0.13054 0.50509 0.0
C888 C 0.35277 0.10633 0.50471 0.0
C889 C 0.34646 0.13399 0.50618 0.0
C890 C 0.26711 0.10282 0.56094 0.0
C891 C 0.2449 0.08445 0.56059 0.0
N892 N 0.24923 0.07922 0.59656 0.0
C893 C 0.27125 0.09738 0.59807 0.0
C894 C 0.25375 0.09642 0.54219 0.0
C895 C 0.26209 0.0854 0.61552 0.0
C896 C 0.30888 0.14876 0.58849 0.0
N897 N 0.30646 0.13294 0.58164 0.0
C898 C 0.31745 0.12613 0.64364 0.0
C899 C 0.31088 0.12164 0.60792 0.0
C900 C 0.31962 0.14241 0.65215 0.0
C901 C 0.31546 0.15379 0.62378 0.0
H902 H 0.30553 0.15747 0.56675 0.0
H903 H 0.30915 0.10913 0.60122 0.0
C904 C 0.28083 0.07023 0.47668 0.0
N905 N 0.28685 0.07943 0.50575 0.0
C906 C 0.28076 0.0536 0.48021 0.0
C907 C 0.29309 0.05628 0.54352 0.0
C908 C 0.29303 0.07284 0.5386 0.0
C909 C 0.28695 0.04639 0.51402 0.0
H910 H 0.27626 0.07578 0.45055 0.0
H911 H 0.29793 0.08049 0.56102 0.0
C912 C 0.28166 0.15598 0.49517 0.0
N913 N 0.26305 0.18325 0.49336 0.0
C914 C 0.27448 0.16163 0.52924 0.0
C915 C 0.27942 0.16422 0.4602 0.0
C916 C 0.26509 0.17543 0.52771 0.0
C917 C 0.26998 0.178 0.45991 0.0
C918 C 0.26802 0.1118 0.42274 0.0
C919 C 0.27036 0.12188 0.39076 0.0
C920 C 0.25444 0.10209 0.42422 0.0
C921 C 0.25893 0.12226 0.36112 0.0
C922 C 0.24327 0.10285 0.39403 0.0
N923 N 0.24573 0.11283 0.36338 0.0
C924 C 0.31306 0.1195 0.38991 0.0
C925 C 0.31626 0.14561 0.41557 0.0
C926 C 0.32095 0.1239 0.35569 0.0
N927 N 0.31062 0.13043 0.41857 0.0
C928 C 0.32423 0.15051 0.38193 0.0
C929 C 0.32641 0.13968 0.35107 0.0
H930 H 0.3084 0.10751 0.39315 0.0
H931 H 0.31428 0.154 0.43902 0.0
C932 C 0.24304 0.13666 0.52514 0.0
N933 N 0.25147 0.13554 0.49138 0.0
C934 C 0.22887 0.14546 0.52658 0.0
C935 C 0.23196 0.15141 0.4582 0.0
C936 C 0.24616 0.14266 0.4582 0.0
C937 C 0.22331 0.15315 0.4929 0.0
H938 H 0.24769 0.13134 0.55147 0.0
H939 H 0.25335 0.14239 0.43223 0.0
O940 O 0.30925 0.11085 0.50264 0.0
O941 O 0.27613 0.11428 0.54293 0.0
O942 O 0.29049 0.14223 0.49588 0.0
O943 O 0.27921 0.11106 0.45177 0.0
H944 H 0.33287 0.08997 0.50261 0.0
H945 H 0.32151 0.14016 0.50534 0.0
H946 H 0.36172 0.09699 0.50458 0.0
H947 H 0.35047 0.14628 0.5072 0.0
H948 H 0.23457 0.07934 0.54629 0.0
H949 H 0.28145 0.1023 0.6132 0.0
H950 H 0.25027 0.10067 0.51374 0.0
H951 H 0.26521 0.081 0.64415 0.0
H952 H 0.32078 0.11696 0.66437 0.0
H953 H 0.31688 0.16646 0.62919 0.0
H954 H 0.27622 0.04647 0.45634 0.0
H955 H 0.29783 0.05131 0.57023 0.0
H956 H 0.27587 0.15524 0.55642 0.0
H957 H 0.28468 0.15988 0.43345 0.0
H958 H 0.25933 0.17985 0.55377 0.0
H959 H 0.26807 0.18445 0.43302 0.0
H960 H 0.28069 0.12959 0.38913 0.0
H961 H 0.25254 0.09399 0.44827 0.0
H962 H 0.26053 0.13011 0.3364 0.0
H963 H 0.23268 0.09544 0.39491 0.0
H964 H 0.32223 0.11519 0.33257 0.0
H965 H 0.32849 0.1627 0.37994 0.0
H966 H 0.22255 0.14659 0.55395 0.0
H967 H 0.22827 0.15748 0.43184 0.0
Li968 Li 0.87549 0.29648 0.54101 0.0
Li969 Li 0.89666 0.2838 0.50675 0.0
Li970 Li 0.87453 0.29763 0.46992 0.0
Li971 Li 0.87073 0.2718 0.50595 0.0
C972 C 0.89279 0.32231 0.51816 0.0
N973 N 0.89681 0.35336 0.54393 0.0
C974 C 0.90084 0.32535 0.55308 0.0
C975 C 0.88681 0.3351 0.49635 0.0
C976 C 0.90274 0.34112 0.56561 0.0
C977 C 0.88896 0.3507 0.50988 0.0
C978 C 0.89712 0.26934 0.57238 0.0
C979 C 0.9169 0.24892 0.584 0.0
N980 N 0.92346 0.25812 0.61247 0.0
C981 C 0.90402 0.27857 0.60182 0.0
C982 C 0.90356 0.25436 0.56345 0.0
C983 C 0.91733 0.27269 0.62175 0.0
C984 C 0.86558 0.29734 0.61824 0.0
N985 N 0.8687 0.30721 0.58772 0.0
C986 C 0.85924 0.32975 0.6239 0.0
C987 C 0.86549 0.32315 0.5898 0.0
C988 C 0.85577 0.31975 0.65549 0.0
C989 C 0.85901 0.30337 0.65251 0.0
H990 H 0.86774 0.28465 0.61551 0.0
H991 H 0.86716 0.33068 0.56464 0.0
C992 C 0.92562 0.26838 0.48261 0.0
N993 N 0.91922 0.27996 0.50562 0.0
C994 C 0.94216 0.26595 0.48183 0.0
C995 C 0.94515 0.2874 0.52835 0.0
C996 C 0.92862 0.28938 0.52826 0.0
C997 C 0.95215 0.27565 0.5047 0.0
H998 H 0.91792 0.26114 0.46458 0.0
H999 H 0.92329 0.29842 0.54637 0.0
C1000 C 0.84449 0.29558 0.52801 0.0
N1001 N 0.81962 0.30458 0.57624 0.0
C1002 C 0.8374 0.28441 0.55287 0.0
C1003 C 0.83891 0.31133 0.52769 0.0
C1004 C 0.82484 0.28919 0.57702 0.0
C1005 C 0.82633 0.31565 0.55228 0.0
C1006 C 0.88078 0.26382 0.43629 0.0
C1007 C 0.87109 0.26643 0.40374 0.0
C1008 C 0.886 0.24835 0.44488 0.0
C1009 C 0.86673 0.25346 0.38041 0.0
C1010 C 0.88135 0.2357 0.42088 0.0
N1011 N 0.8719 0.2385 0.38941 0.0
C1012 C 0.87982 0.31138 0.39587 0.0
C1013 C 0.85366 0.31479 0.42091 0.0
C1014 C 0.87557 0.31918 0.36139 0.0
N1015 N 0.86884 0.30926 0.42456 0.0
C1016 C 0.84898 0.32288 0.38732 0.0
C1017 C 0.8599 0.32497 0.35659 0.0
H1018 H 0.89178 0.30669 0.39948 0.0
H1019 H 0.8451 0.31272 0.44385 0.0
C1020 C 0.86054 0.24161 0.53442 0.0
N1021 N 0.85835 0.25267 0.50593 0.0
C1022 C 0.85048 0.22832 0.53684 0.0
C1023 C 0.8363 0.23792 0.48016 0.0
C1024 C 0.84653 0.2511 0.47907 0.0
C1025 C 0.83808 0.22643 0.50966 0.0
H1026 H 0.86979 0.24334 0.55596 0.0
H1027 H 0.84478 0.26031 0.45741 0.0
O1028 O 0.89104 0.30699 0.50489 0.0
O1029 O 0.88433 0.27507 0.55185 0.0
O1030 O 0.85714 0.29123 0.50506 0.0
O1031 O 0.88498 0.27633 0.45984 0.0
H1032 H 0.9052 0.31566 0.57091 0.0
H1033 H 0.88061 0.33303 0.46923 0.0
H1034 H 0.90883 0.34362 0.59271 0.0
H1035 H 0.88439 0.36069 0.49329 0.0
H1036 H 0.92208 0.23741 0.57722 0.0
H1037 H 0.89929 0.29024 0.60891 0.0
H1038 H 0.89846 0.24711 0.54056 0.0
H1039 H 0.92285 0.27975 0.64447 0.0
H1040 H 0.85654 0.34241 0.62505 0.0
H1041 H 0.85634 0.2953 0.67631 0.0
H1042 H 0.9471 0.25684 0.46294 0.0
H1043 H 0.95237 0.29498 0.5469 0.0
H1044 H 0.84167 0.27222 0.55398 0.0
H1045 H 0.84451 0.32026 0.50945 0.0
H1046 H 0.81931 0.28069 0.59653 0.0
H1047 H 0.82199 0.32782 0.55257 0.0
H1048 H 0.86686 0.27829 0.39672 0.0
H1049 H 0.89336 0.24608 0.47016 0.0
H1050 H 0.8592 0.25529 0.35522 0.0
H1051 H 0.88522 0.22365 0.42735 0.0
H1052 H 0.88436 0.32024 0.3384 0.0
H1053 H 0.83686 0.32735 0.38546 0.0
H1054 H 0.85225 0.21972 0.56001 0.0
H1055 H 0.82671 0.23707 0.45907 0.0
Li1056 Li 0.72397 0.12854 0.50184 0.0
Li1057 Li 0.6987 0.12514 0.53695 0.0
Li1058 Li 0.70983 0.10254 0.49756 0.0
Li1059 Li 0.69761 0.12592 0.46688 0.0
C1060 C 0.73227 0.10736 0.56359 0.0
N1061 N 0.75887 0.09559 0.60172 0.0
C1062 C 0.73504 0.11132 0.60255 0.0
C1063 C 0.74292 0.09726 0.54421 0.0
C1064 C 0.74858 0.10529 0.62127 0.0
C1065 C 0.75632 0.09147 0.56393 0.0
C1066 C 0.70124 0.15624 0.52345 0.0
C1067 C 0.68163 0.17498 0.54722 0.0
N1068 N 0.69321 0.1825 0.56811 0.0
C1069 C 0.71297 0.16423 0.54491 0.0
C1070 C 0.68546 0.16172 0.52434 0.0
C1071 C 0.70866 0.17746 0.56738 0.0
C1072 C 0.74566 0.14897 0.46735 0.0
N1073 N 0.74379 0.13974 0.49956 0.0
C1074 C 0.76866 0.14902 0.52532 0.0
C1075 C 0.75496 0.13954 0.52831 0.0
C1076 C 0.77079 0.15894 0.49266 0.0
C1077 C 0.7591 0.1587 0.46328 0.0
H1078 H 0.73648 0.14902 0.44518 0.0
H1079 H 0.75316 0.13232 0.55392 0.0
C1080 C 0.67223 0.12748 0.58894 0.0
N1081 N 0.68796 0.13094 0.58382 0.0
C1082 C 0.66431 0.13237 0.62274 0.0
C1083 C 0.68901 0.14407 0.6455 0.0
C1084 C 0.69643 0.13892 0.61139 0.0
C1085 C 0.67271 0.14086 0.65153 0.0
H1086 H 0.6658 0.12095 0.56679 0.0
H1087 H 0.70893 0.14152 0.60655 0.0
C1088 C 0.72868 0.1092 0.42849 0.0
N1089 N 0.74944 0.09605 0.37466 0.0
C1090 C 0.72319 0.10486 0.39153 0.0
C1091 C 0.74482 0.10714 0.43773 0.0
C1092 C 0.73384 0.09814 0.36483 0.0
C1093 C 0.75511 0.10041 0.41022 0.0
C1094 C 0.67293 0.10724 0.48463 0.0
C1095 C 0.66982 0.09245 0.46729 0.0
C1096 C 0.66127 0.1192 0.48372 0.0
C1097 C 0.65516 0.08995 0.4488 0.0
C1098 C 0.64677 0.11624 0.4649 0.0
N1099 N 0.64405 0.10181 0.44795 0.0
C1100 C 0.71325 0.07107 0.5265 0.0
C1101 C 0.71099 0.07292 0.45789 0.0
C1102 C 0.71392 0.05441 0.52437 0.0
N1103 N 0.71189 0.07994 0.49351 0.0
C1104 C 0.71156 0.05631 0.4544 0.0
C1105 C 0.71298 0.04682 0.48794 0.0
H1106 H 0.71355 0.07693 0.55455 0.0
H1107 H 0.70938 0.08019 0.43225 0.0
C1108 C 0.68487 0.14886 0.41568 0.0
N1109 N 0.6863 0.13289 0.42201 0.0
C1110 C 0.67753 0.15448 0.38186 0.0
C1111 C 0.67304 0.12711 0.36201 0.0
C1112 C 0.68059 0.12203 0.39607 0.0
C1113 C 0.67162 0.14354 0.35439 0.0
H1114 H 0.68968 0.15723 0.43659 0.0
H1115 H 0.68215 0.1094 0.40147 0.0
O1116 O 0.71906 0.11321 0.54488 0.0
O1117 O 0.70517 0.14309 0.50183 0.0
O1118 O 0.71842 0.11598 0.4548 0.0
O1119 O 0.68728 0.10995 0.50254 0.0
H1120 H 0.72685 0.11899 0.61816 0.0
H1121 H 0.74079 0.09376 0.51442 0.0
H1122 H 0.75091 0.10832 0.65135 0.0
H1123 H 0.76467 0.08366 0.54923 0.0
H1124 H 0.66945 0.17928 0.54838 0.0
H1125 H 0.72524 0.16015 0.54461 0.0
H1126 H 0.67627 0.15575 0.5077 0.0
H1127 H 0.71759 0.1837 0.58435 0.0
H1128 H 0.77741 0.14867 0.54851 0.0
H1129 H 0.76004 0.16633 0.43791 0.0
H1130 H 0.65179 0.12945 0.62638 0.0
H1131 H 0.69591 0.15078 0.66657 0.0
H1132 H 0.7108 0.10655 0.38362 0.0
H1133 H 0.74945 0.11086 0.46565 0.0
H1134 H 0.7297 0.09461 0.33626 0.0
H1135 H 0.76761 0.09871 0.41708 0.0
H1136 H 0.67864 0.08301 0.46802 0.0
H1137 H 0.66346 0.13069 0.49707 0.0
H1138 H 0.65263 0.07859 0.43511 0.0
H1139 H 0.63769 0.12544 0.46372 0.0
H1140 H 0.71472 0.04754 0.55102 0.0
H1141 H 0.71084 0.05097 0.42574 0.0
H1142 H 0.67657 0.16724 0.37715 0.0
H1143 H 0.66883 0.1183 0.34133 0.0
Li1144 Li 0.87104 0.72781 0.49424 0.0
Li1145 Li 0.87248 0.70258 0.52768 0.0
Li1146 Li 0.89616 0.71411 0.49877 0.0
Li1147 Li 0.87553 0.70351 0.45775 0.0
C1148 C 0.87599 0.72917 0.57453 0.0
N1149 N 0.86121 0.74167 0.6397 0.0
C1150 C 0.85934 0.73049 0.5759 0.0
C1151 C 0.88511 0.73422 0.60629 0.0
C1152 C 0.85209 0.73684 0.60911 0.0
C1153 C 0.87742 0.74051 0.63898 0.0
C1154 C 0.84487 0.69802 0.48309 0.0
C1155 C 0.83666 0.6704 0.48078 0.0
N1156 N 0.82154 0.67511 0.47182 0.0
C1157 C 0.82926 0.70258 0.47386 0.0
C1158 C 0.84862 0.68179 0.4866 0.0
C1159 C 0.81763 0.69082 0.46828 0.0
C1160 C 0.84805 0.7483 0.4653 0.0
N1161 N 0.8603 0.74775 0.49119 0.0
C1162 C 0.85492 0.77451 0.5117 0.0
C1163 C 0.86405 0.76055 0.51383 0.0
C1164 C 0.84192 0.77528 0.48583 0.0
C1165 C 0.83866 0.762 0.46211 0.0
H1166 H 0.84541 0.73794 0.44762 0.0
H1167 H 0.87396 0.75984 0.53397 0.0
C1168 C 0.87485 0.68216 0.5931 0.0
N1169 N 0.8645 0.69092 0.57129 0.0
C1170 C 0.86945 0.67406 0.62622 0.0
C1171 C 0.84286 0.68408 0.61348 0.0
C1172 C 0.84877 0.69204 0.58089 0.0
C1173 C 0.85324 0.67496 0.6367 0.0
H1174 H 0.88732 0.6816 0.58495 0.0
H1175 H 0.84082 0.69932 0.56358 0.0
C1176 C 0.89416 0.73836 0.4435 0.0
N1177 N 0.90922 0.7669 0.42635 0.0
C1178 C 0.89618 0.74309 0.40481 0.0
C1179 C 0.89982 0.74814 0.47349 0.0
C1180 C 0.90382 0.75756 0.39672 0.0
C1181 C 0.9074 0.76252 0.46421 0.0
C1182 C 0.90022 0.68237 0.47783 0.0
C1183 C 0.90642 0.68698 0.44176 0.0
C1184 C 0.90582 0.66844 0.49566 0.0
C1185 C 0.91815 0.67758 0.42411 0.0
C1186 C 0.91757 0.65935 0.47707 0.0
N1187 N 0.92344 0.66407 0.44198 0.0
C1188 C 0.92539 0.71554 0.53995 0.0
C1189 C 0.92777 0.71816 0.47147 0.0
C1190 C 0.94198 0.71646 0.54422 0.0
N1191 N 0.91868 0.71632 0.50396 0.0
C1192 C 0.94436 0.71904 0.47435 0.0
C1193 C 0.95168 0.71806 0.51105 0.0
H1194 H 0.91785 0.71399 0.56524 0.0
H1195 H 0.92216 0.71878 0.44318 0.0
C1196 C 0.86663 0.70389 0.38014 0.0
N1197 N 0.87053 0.69369 0.40938 0.0
C1198 C 0.86251 0.698 0.34352 0.0
C1199 C 0.86639 0.67115 0.36782 0.0
C1200 C 0.87049 0.67758 0.40403 0.0
C1201 C 0.86233 0.68143 0.33697 0.0
H1202 H 0.8666 0.71663 0.38545 0.0
H1203 H 0.87361 0.66973 0.42786 0.0
O1204 O 0.88343 0.72291 0.54249 0.0
O1205 O 0.85636 0.70945 0.48838 0.0
O1206 O 0.88667 0.72421 0.45166 0.0
O1207 O 0.88881 0.69141 0.49597 0.0
H1208 H 0.85206 0.72671 0.55161 0.0
H1209 H 0.89801 0.73327 0.60567 0.0
H1210 H 0.83922 0.73793 0.61054 0.0
H1211 H 0.88434 0.74445 0.66378 0.0
H1212 H 0.83939 0.65781 0.4834 0.0
H1213 H 0.82616 0.71509 0.47106 0.0
H1214 H 0.86061 0.67801 0.49379 0.0
H1215 H 0.8055 0.69418 0.46112 0.0
H1216 H 0.85792 0.78455 0.53022 0.0
H1217 H 0.82864 0.76198 0.44215 0.0
H1218 H 0.87782 0.66711 0.64328 0.0
H1219 H 0.83034 0.68534 0.62091 0.0
H1220 H 0.89189 0.73564 0.38126 0.0
H1221 H 0.89845 0.74469 0.50361 0.0
H1222 H 0.90546 0.76137 0.3669 0.0
H1223 H 0.91183 0.7702 0.48713 0.0
H1224 H 0.90226 0.69773 0.42751 0.0
H1225 H 0.90115 0.66472 0.52362 0.0
H1226 H 0.92306 0.68102 0.39622 0.0
H1227 H 0.92202 0.64855 0.49055 0.0
H1228 H 0.94718 0.71553 0.573 0.0
H1229 H 0.95138 0.72049 0.44811 0.0
H1230 H 0.8592 0.70634 0.3208 0.0
H1231 H 0.8665 0.65831 0.36392 0.0
Li1232 Li 0.273 0.86933 0.49529 0.0
Li1233 Li 0.29889 0.87279 0.53165 0.0
Li1234 Li 0.28579 0.89586 0.49862 0.0
Li1235 Li 0.29739 0.87489 0.46185 0.0
C1236 C 0.26936 0.88223 0.5761 0.0
N1237 N 0.25283 0.88123 0.64568 0.0
C1238 C 0.27107 0.86914 0.60102 0.0
C1239 C 0.25934 0.89487 0.58669 0.0
C1240 C 0.26258 0.86884 0.63603 0.0
C1241 C 0.25106 0.89413 0.62195 0.0
C1242 C 0.29961 0.84427 0.47351 0.0
C1243 C 0.32332 0.82969 0.45525 0.0
N1244 N 0.31471 0.82162 0.42801 0.0
C1245 C 0.29097 0.83576 0.44553 0.0
C1246 C 0.3159 0.84118 0.47857 0.0
C1247 C 0.29884 0.82438 0.42274 0.0
C1248 C 0.24813 0.85414 0.45579 0.0
N1249 N 0.25359 0.85739 0.49221 0.0
C1250 C 0.23298 0.84127 0.52022 0.0
C1251 C 0.24623 0.85131 0.52423 0.0
C1252 C 0.22732 0.83739 0.48286 0.0
C1253 C 0.23492 0.84422 0.45042 0.0
H1254 H 0.25435 0.85889 0.43074 0.0
H1255 H 0.2509 0.85378 0.55282 0.0
C1256 C 0.31785 0.87631 0.60005 0.0
N1257 N 0.31058 0.86573 0.57578 0.0
C1258 C 0.32614 0.87084 0.63283 0.0
C1259 C 0.3193 0.84376 0.61476 0.0
C1260 C 0.31114 0.84974 0.58253 0.0
C1261 C 0.32697 0.85434 0.64045 0.0
H1262 H 0.31715 0.88898 0.59396 0.0
H1263 H 0.30504 0.84162 0.56306 0.0
C1264 C 0.26208 0.89176 0.4427 0.0
N1265 N 0.23325 0.90572 0.4231 0.0
C1266 C 0.25853 0.89509 0.40378 0.0
C1267 C 0.25094 0.89548 0.47163 0.0
C1268 C 0.2439 0.90217 0.39447 0.0
C1269 C 0.23644 0.90254 0.46114 0.0
C1270 C 0.3174 0.90087 0.4789 0.0
C1271 C 0.31207 0.90677 0.4431 0.0
C1272 C 0.33145 0.90689 0.49525 0.0
C1273 C 0.32091 0.91863 0.42426 0.0
C1274 C 0.33996 0.91876 0.47549 0.0
N1275 N 0.33455 0.92433 0.4407 0.0
C1276 C 0.28497 0.92584 0.53678 0.0
C1277 C 0.27837 0.92671 0.46971 0.0
C1278 C 0.28326 0.94243 0.53967 0.0
N1279 N 0.28247 0.91836 0.50218 0.0
C1280 C 0.27631 0.94322 0.4714 0.0
C1281 C 0.27882 0.95128 0.50666 0.0
H1282 H 0.28844 0.91892 0.56201 0.0
H1283 H 0.27697 0.92063 0.44222 0.0
C1284 C 0.29899 0.86655 0.38343 0.0
N1285 N 0.30829 0.86991 0.41477 0.0
C1286 C 0.30595 0.86206 0.34824 0.0
C1287 C 0.33199 0.86481 0.37803 0.0
C1288 C 0.3245 0.86925 0.41275 0.0
C1289 C 0.32266 0.861 0.34528 0.0
H1290 H 0.28612 0.86712 0.38602 0.0
H1291 H 0.33159 0.8719 0.43829 0.0
O1292 O 0.2778 0.88293 0.54202 0.0
O1293 O 0.29224 0.8558 0.49528 0.0
O1294 O 0.27641 0.88485 0.45203 0.0
O1295 O 0.30893 0.88933 0.49817 0.0
H1296 H 0.27867 0.8592 0.59317 0.0
H1297 H 0.25799 0.90517 0.5679 0.0
H1298 H 0.26372 0.85874 0.6555 0.0
H1299 H 0.24324 0.90381 0.63048 0.0
H1300 H 0.33594 0.82726 0.45864 0.0
H1301 H 0.27838 0.83805 0.44116 0.0
H1302 H 0.32279 0.84778 0.49985 0.0
H1303 H 0.29233 0.81779 0.40078 0.0
H1304 H 0.22767 0.83609 0.54604 0.0
H1305 H 0.23089 0.8417 0.42111 0.0
H1306 H 0.33196 0.8794 0.65176 0.0
H1307 H 0.31936 0.83099 0.61988 0.0
H1308 H 0.26704 0.89229 0.38103 0.0
H1309 H 0.2534 0.89292 0.50181 0.0
H1310 H 0.24101 0.90484 0.36447 0.0
H1311 H 0.22772 0.90548 0.48325 0.0
H1312 H 0.30124 0.90226 0.42995 0.0
H1313 H 0.33572 0.90246 0.52298 0.0
H1314 H 0.31691 0.92331 0.39656 0.0
H1315 H 0.35085 0.92354 0.48782 0.0
H1316 H 0.28532 0.94826 0.56737 0.0
H1317 H 0.27321 0.94967 0.44513 0.0
H1318 H 0.29831 0.85945 0.3236 0.0
H1319 H 0.3449 0.86398 0.37712 0.0
Li1320 Li 0.12566 0.29691 0.54286 0.0
Li1321 Li 0.12938 0.27036 0.50992 0.0
Li1322 Li 0.12562 0.29441 0.47243 0.0
Li1323 Li 0.10329 0.2836 0.50708 0.0
C1324 C 0.15631 0.29436 0.48794 0.0
N1325 N 0.18158 0.30427 0.44204 0.0
C1326 C 0.16649 0.28312 0.47089 0.0
C1327 C 0.15909 0.31066 0.48194 0.0
C1328 C 0.17918 0.28836 0.44774 0.0
C1329 C 0.17188 0.31542 0.45853 0.0
C1330 C 0.10747 0.26235 0.56817 0.0
C1331 C 0.09506 0.23673 0.55694 0.0
N1332 N 0.09271 0.23508 0.59591 0.0
C1333 C 0.10496 0.26038 0.6081 0.0
C1334 C 0.10251 0.25041 0.54235 0.0
C1335 C 0.09746 0.24652 0.62155 0.0
C1336 C 0.122 0.30663 0.62062 0.0
N1337 N 0.13104 0.30881 0.58821 0.0
C1338 C 0.14846 0.32649 0.6226 0.0
C1339 C 0.14406 0.3185 0.58858 0.0
C1340 C 0.13967 0.32412 0.65707 0.0
C1341 C 0.12618 0.31409 0.65557 0.0
H1342 H 0.11174 0.29879 0.61952 0.0
H1343 H 0.15115 0.31994 0.56257 0.0
C1344 C 0.14533 0.24332 0.48031 0.0
N1345 N 0.14052 0.25069 0.51354 0.0
C1346 C 0.15525 0.22991 0.48214 0.0
C1347 C 0.15423 0.23139 0.55237 0.0
C1348 C 0.14456 0.24492 0.54916 0.0
C1349 C 0.16008 0.2239 0.51857 0.0
H1350 H 0.14205 0.24831 0.45238 0.0
H1351 H 0.14061 0.25109 0.57511 0.0
C1352 C 0.10644 0.32153 0.49752 0.0
N1353 N 0.09842 0.35289 0.48142 0.0
C1354 C 0.09224 0.32506 0.47784 0.0
C1355 C 0.11642 0.33398 0.50957 0.0
C1356 C 0.08844 0.34098 0.46982 0.0
C1357 C 0.11219 0.34975 0.50099 0.0
C1358 C 0.10657 0.27217 0.43098 0.0
C1359 C 0.09835 0.28553 0.41705 0.0
C1360 C 0.10565 0.25771 0.41076 0.0
C1361 C 0.08927 0.28419 0.3831 0.0
C1362 C 0.09643 0.25685 0.37691 0.0
N1363 N 0.0885 0.26999 0.3639 0.0
C1364 C 0.13883 0.29311 0.39843 0.0
C1365 C 0.13102 0.31948 0.41478 0.0
C1366 C 0.14467 0.29826 0.36256 0.0
N1367 N 0.13223 0.3037 0.4238 0.0
C1368 C 0.13677 0.32518 0.37919 0.0
C1369 C 0.1438 0.31452 0.35261 0.0
H1370 H 0.13971 0.28063 0.40634 0.0
H1371 H 0.12592 0.32776 0.43527 0.0
C1372 C 0.07293 0.2925 0.52985 0.0
N1373 N 0.0807 0.28143 0.50803 0.0
C1374 C 0.05628 0.29303 0.53015 0.0
C1375 C 0.05588 0.27035 0.48655 0.0
C1376 C 0.07259 0.27024 0.48718 0.0
C1377 C 0.04752 0.28206 0.50771 0.0
H1378 H 0.07972 0.30115 0.54639 0.0
H1379 H 0.07905 0.26143 0.4704 0.0
O1380 O 0.14358 0.28942 0.50991 0.0
O1381 O 0.1148 0.27587 0.5546 0.0
O1382 O 0.11024 0.30602 0.50616 0.0
O1383 O 0.11551 0.27314 0.46422 0.0
H1384 H 0.16462 0.27048 0.47537 0.0
H1385 H 0.1512 0.31953 0.49428 0.0
H1386 H 0.18711 0.27978 0.43425 0.0
H1387 H 0.17404 0.32799 0.45327 0.0
H1388 H 0.09115 0.22742 0.53728 0.0
H1389 H 0.10879 0.26946 0.62852 0.0
H1390 H 0.10441 0.25164 0.51138 0.0
H1391 H 0.09544 0.24485 0.65238 0.0
H1392 H 0.15874 0.33434 0.62179 0.0
H1393 H 0.11913 0.31161 0.68129 0.0
H1394 H 0.15961 0.22477 0.45525 0.0
H1395 H 0.15733 0.22706 0.58108 0.0
H1396 H 0.08417 0.31562 0.46901 0.0
H1397 H 0.12737 0.33151 0.52503 0.0
H1398 H 0.07752 0.34387 0.45448 0.0
H1399 H 0.11987 0.35949 0.5099 0.0
H1400 H 0.09904 0.2968 0.43217 0.0
H1401 H 0.11196 0.24726 0.42122 0.0
H1402 H 0.08285 0.29445 0.37199 0.0
H1403 H 0.09559 0.24572 0.36099 0.0
H1404 H 0.14978 0.28956 0.34282 0.0
H1405 H 0.13605 0.33785 0.37299 0.0
H1406 H 0.05035 0.30204 0.54755 0.0
H1407 H 0.04962 0.26171 0.46874 0.0
H1408 H 0.20734 0.52677 0.04691 0.0
H1409 H 0.23903 0.52773 0.94794 0.0
H1410 H 0.23971 0.49849 0.94695 0.0
H1411 H 0.23103 0.47272 0.97377 0.0
H1412 H 0.19826 0.47187 0.07087 0.0
H1413 H 0.19858 0.50097 0.07356 0.0
C1414 C 0.21454 0.52055 0.02544 0.0
C1415 C 0.22317 0.52935 0.99763 0.0
C1416 C 0.21471 0.50377 0.02475 0.0
C1417 C 0.23222 0.52118 0.96951 0.0
C1418 C 0.23264 0.50449 0.96898 0.0
C1419 C 0.22384 0.47888 0.99533 0.0
C1420 C 0.21467 0.47004 0.02212 0.0
C1421 C 0.22383 0.49566 0.99628 0.0
C1422 C 0.20565 0.47829 0.05026 0.0
C1423 C 0.20572 0.49497 0.05167 0.0
H1424 H 0.47363 0.20631 0.04527 0.0
H1425 H 0.46883 0.23209 0.93709 0.0
H1426 H 0.49788 0.23356 0.93103 0.0
H1427 H 0.52469 0.22737 0.95632 0.0
H1428 H 0.52932 0.2009 0.06357 0.0
H1429 H 0.50032 0.19979 0.06996 0.0
C1430 C 0.47893 0.21213 0.02018 0.0
C1431 C 0.46905 0.21908 0.99171 0.0
C1432 C 0.49563 0.21282 0.0167 0.0
C1433 C 0.47614 0.22682 0.95973 0.0
C1434 C 0.49276 0.22757 0.95608 0.0
C1435 C 0.51934 0.22124 0.9809 0.0
C1436 C 0.52918 0.21429 0.00947 0.0
C1437 C 0.50262 0.22058 0.98435 0.0
C1438 C 0.52205 0.20657 0.04144 0.0
C1439 C 0.50545 0.20585 0.04503 0.0
H1440 H 0.79901 0.47447 0.96908 0.0
H1441 H 0.75631 0.47103 0.03908 0.0
H1442 H 0.75437 0.50017 0.04112 0.0
H1443 H 0.76475 0.52666 0.02259 0.0
H1444 H 0.8073 0.52981 0.95197 0.0
H1445 H 0.80906 0.50073 0.94971 0.0
C1446 C 0.78914 0.48006 0.98436 0.0
C1447 C 0.77781 0.47054 0.00382 0.0
C1448 C 0.78801 0.49678 0.98511 0.0
C1449 C 0.7653 0.47805 0.0242 0.0
C1450 C 0.76413 0.49472 0.0252 0.0
C1451 C 0.77444 0.52096 0.00686 0.0
C1452 C 0.78583 0.5304 0.98738 0.0
C1453 C 0.77544 0.5042 0.00582 0.0
C1454 C 0.79823 0.52284 0.96674 0.0
C1455 C 0.79931 0.50621 0.96565 0.0
H1456 H 0.52652 0.79135 0.05955 0.0
H1457 H 0.5312 0.76914 0.94667 0.0
H1458 H 0.50219 0.76779 0.94069 0.0
H1459 H 0.47547 0.77353 0.96666 0.0
H1460 H 0.47088 0.7973 0.07767 0.0
H1461 H 0.49985 0.79741 0.08509 0.0
C1462 C 0.52122 0.78633 0.03347 0.0
C1463 C 0.5311 0.78037 0.00364 0.0
C1464 C 0.50452 0.78585 0.02984 0.0
C1465 C 0.52395 0.77361 0.9704 0.0
C1466 C 0.50734 0.77294 0.96678 0.0
C1467 C 0.48079 0.77886 0.99233 0.0
C1468 C 0.47095 0.78537 0.02154 0.0
C1469 C 0.4975 0.77914 0.99618 0.0
C1470 C 0.4781 0.79197 0.05495 0.0
C1471 C 0.4947 0.79215 0.05913 0.0
H1472 H 0.73172 0.02573 0.52741 0.0
H1473 H 0.69395 0.02813 0.44208 0.0
H1474 H 0.69323 0.999 0.43842 0.0
H1475 H 0.70255 0.97283 0.46139 0.0
H1476 H 0.74021 0.97039 0.54702 0.0
H1477 H 0.74154 0.99953 0.54913 0.0
C1478 C 0.72328 0.01987 0.50815 0.0
C1479 C 0.71291 0.0291 0.48508 0.0
C1480 C 0.72284 0.00311 0.50641 0.0
C1481 C 0.70221 0.02133 0.45982 0.0
C1482 C 0.70172 0.00466 0.45787 0.0
C1483 C 0.7112 0.97867 0.48012 0.0
C1484 C 0.72122 0.96943 0.5041 0.0
C1485 C 0.71191 0.99543 0.48119 0.0
C1486 C 0.7322 0.97721 0.52865 0.0
C1487 C 0.73302 0.99388 0.52976 0.0
H1488 H 0.97305 0.70202 0.46646 0.0
H1489 H 0.96994 0.73468 0.56332 0.0
H1490 H 0.99912 0.73548 0.56774 0.0
H1491 H 0.0255 0.72739 0.54286 0.0
H1492 H 0.02832 0.69425 0.44674 0.0
H1493 H 0.99926 0.69347 0.44269 0.0
C1494 C 0.97876 0.70941 0.48836 0.0
C1495 C 0.96936 0.71835 0.51436 0.0
C1496 C 0.99549 0.70982 0.49068 0.0
C1497 C 0.97692 0.72761 0.54311 0.0
C1498 C 0.9936 0.72813 0.54552 0.0
C1499 C 0.01977 0.71987 0.52127 0.0
C1500 C 0.02914 0.711 0.49496 0.0
C1501 C 0.003 0.71932 0.51936 0.0
C1502 C 0.02146 0.70146 0.46688 0.0
C1503 C 0.00482 0.70091 0.4647 0.0
H1504 H 0.26427 0.02496 0.49102 0.0
H1505 H 0.31057 0.0279 0.54604 0.0
H1506 H 0.31155 0.99886 0.55129 0.0
H1507 H 0.29992 0.97248 0.53723 0.0
H1508 H 0.25436 0.96951 0.47902 0.0
H1509 H 0.25255 0.99868 0.47748 0.0
C1510 C 0.27464 0.01927 0.50389 0.0
C1511 C 0.28732 0.02867 0.51805 0.0
C1512 C 0.2753 0.00252 0.5061 0.0
C1513 C 0.30052 0.02104 0.53536 0.0
C1514 C 0.30116 0.00439 0.53814 0.0
C1515 C 0.28951 0.97825 0.52468 0.0
C1516 C 0.27729 0.96891 0.50829 0.0
C1517 C 0.28868 0.99501 0.52334 0.0
C1518 C 0.26397 0.9765 0.49159 0.0
C1519 C 0.26292 0.99315 0.49075 0.0
H1520 H 0.02561 0.25777 0.50776 0.0
H1521 H 0.02963 0.30918 0.50208 0.0
H1522 H 0.00064 0.31162 0.50024 0.0
H1523 H 0.97416 0.29932 0.50069 0.0
H1524 H 0.96972 0.248 0.50579 0.0
H1525 H 0.99886 0.24534 0.50629 0.0
C1526 C 0.02014 0.26949 0.50575 0.0
C1527 C 0.02982 0.28327 0.50551 0.0
C1528 C 0.0034 0.27083 0.50439 0.0
C1529 C 0.0225 0.29838 0.50317 0.0
C1530 C 0.00591 0.2998 0.50183 0.0
C1531 C 0.97957 0.28755 0.50218 0.0
C1532 C 0.9698 0.27389 0.50352 0.0
C1533 C 0.99625 0.28613 0.50269 0.0
C1534 C 0.97698 0.2587 0.50453 0.0
C1535 C 0.99364 0.25719 0.50503 0.0
H1536 H 0.29916 0.33793 0.98085 0.0
H1537 H 0.27262 0.31402 0.07156 0.0
H1538 H 0.29268 0.29296 0.07413 0.0
H1539 H 0.31674 0.28041 0.04796 0.0
H1540 H 0.34338 0.30387 0.95682 0.0
H1541 H 0.32408 0.32582 0.95647 0.0
C1542 C 0.29778 0.32811 0.00118 0.0
C1543 C 0.2844 0.3276 0.02601 0.0
C1544 C 0.30927 0.31586 0.00215 0.0
C1545 C 0.2829 0.31488 0.05252 0.0
C1546 C 0.2943 0.30273 0.0538 0.0
C1547 C 0.31853 0.29045 0.02849 0.0
C1548 C 0.33151 0.29046 0.00246 0.0
C1549 C 0.30743 0.30301 0.02847 0.0
C1550 C 0.3334 0.30345 0.97686 0.0
C1551 C 0.3224 0.31604 0.97676 0.0
H1552 H 0.69802 0.33943 0.9981 0.0
H1553 H 0.7361 0.30469 0.00324 0.0
H1554 H 0.7167 0.283 0.00193 0.0
H1555 H 0.68914 0.27384 0.0004 0.0
H1556 H 0.65057 0.30801 0.99672 0.0
H1557 H 0.66994 0.33 0.99544 0.0
C1558 C 0.70201 0.3271 0.99866 0.0
C1559 C 0.71844 0.32366 0.00122 0.0
C1560 C 0.69075 0.31462 0.99807 0.0
C1561 C 0.7235 0.30764 0.00201 0.0
C1562 C 0.71243 0.29523 0.00106 0.0
C1563 C 0.68493 0.28611 0.99975 0.0
C1564 C 0.66845 0.2893 0.99919 0.0
C1565 C 0.69606 0.29858 0.99949 0.0
C1566 C 0.66321 0.30524 0.99713 0.0
C1567 C 0.67427 0.31781 0.99658 0.0
H1568 H 0.70507 0.66832 0.03579 0.0
H1569 H 0.72466 0.6844 0.92629 0.0
H1570 H 0.7046 0.70545 0.9228 0.0
H1571 H 0.68254 0.72032 0.95248 0.0
H1572 H 0.66319 0.70482 0.06261 0.0
H1573 H 0.68233 0.68275 0.06457 0.0
C1574 C 0.70497 0.67645 0.01121 0.0
C1575 C 0.71637 0.67472 0.98134 0.0
C1576 C 0.69354 0.68874 0.00964 0.0
C1577 C 0.7159 0.68525 0.94942 0.0
C1578 C 0.70451 0.6974 0.94753 0.0
C1579 C 0.68232 0.71197 0.97662 0.0
C1580 C 0.67145 0.71424 0.00736 0.0
C1581 C 0.69338 0.69936 0.97763 0.0
C1582 C 0.67155 0.70345 0.03877 0.0
C1583 C 0.68245 0.6908 0.03985 0.0
H1584 H 0.30137 0.66339 0.99257 0.0
H1585 H 0.26399 0.6968 0.02267 0.0
H1586 H 0.28318 0.71861 0.02259 0.0
H1587 H 0.31036 0.72843 0.01294 0.0
H1588 H 0.34782 0.69566 0.98041 0.0
H1589 H 0.32873 0.67345 0.98143 0.0
C1590 C 0.2974 0.67545 0.99882 0.0
C1591 C 0.28124 0.67834 0.00808 0.0
C1592 C 0.30848 0.68809 0.99804 0.0
C1593 C 0.27637 0.69408 0.01639 0.0
C1594 C 0.28732 0.70663 0.01601 0.0
C1595 C 0.31439 0.7164 0.00644 0.0
C1596 C 0.33049 0.71365 0.99696 0.0
C1597 C 0.30338 0.70378 0.00694 0.0
C1598 C 0.33546 0.69807 0.9877 0.0
C1599 C 0.32457 0.68537 0.98842 0.0
H1600 H 0.8304 0.79219 0.54735 0.0
H1601 H 0.82927 0.79003 0.42188 0.0
H1602 H 0.80934 0.81134 0.42033 0.0
H1603 H 0.7908 0.82908 0.45477 0.0
H1604 H 0.79198 0.83139 0.58023 0.0
H1605 H 0.81342 0.81158 0.58159 0.0
C1606 C 0.82604 0.7966 0.51963 0.0
C1607 C 0.83123 0.78944 0.4848 0.0
C1608 C 0.81449 0.80878 0.51896 0.0
C1609 C 0.82529 0.79517 0.44914 0.0
C1610 C 0.81393 0.80738 0.44822 0.0
C1611 C 0.79596 0.82551 0.48239 0.0
C1612 C 0.78971 0.83163 0.51735 0.0
C1613 C 0.80822 0.81406 0.48297 0.0
C1614 C 0.7964 0.82667 0.55291 0.0
C1615 C 0.8087 0.81539 0.55372 0.0
H1616 H 0.19996 0.83421 0.52562 0.0
H1617 H 0.22552 0.81363 0.42862 0.0
H1618 H 0.20504 0.79313 0.42176 0.0
H1619 H 0.18087 0.77997 0.4458 0.0
H1620 H 0.15549 0.7999 0.54375 0.0
H1621 H 0.17505 0.82155 0.54815 0.0
C1622 C 0.20106 0.82522 0.50303 0.0
C1623 C 0.21428 0.8255 0.47768 0.0
C1624 C 0.18934 0.81327 0.49958 0.0
C1625 C 0.21538 0.81388 0.4482 0.0
C1626 C 0.20373 0.80206 0.44441 0.0
C1627 C 0.17943 0.78921 0.46766 0.0
C1628 C 0.16674 0.78832 0.4944 0.0
C1629 C 0.19076 0.80153 0.47018 0.0
C1630 C 0.16525 0.80023 0.52304 0.0
C1631 C 0.1764 0.81263 0.52551 0.0
H1632 H 0.21771 0.17638 0.5459 0.0
H1633 H 0.19795 0.1546 0.44287 0.0
H1634 H 0.17601 0.17398 0.44301 0.0
H1635 H 0.16308 0.19771 0.47118 0.0
H1636 H 0.1842 0.22043 0.57175 0.0
H1637 H 0.20463 0.19979 0.57449 0.0
C1638 C 0.20844 0.17572 0.52387 0.0
C1639 C 0.20936 0.16405 0.49455 0.0
C1640 C 0.19608 0.18705 0.52376 0.0
C1641 C 0.19749 0.16353 0.46568 0.0
C1642 C 0.18496 0.17459 0.46578 0.0
C1643 C 0.17218 0.19822 0.49361 0.0
C1644 C 0.17197 0.21067 0.52125 0.0
C1645 C 0.18425 0.18654 0.4944 0.0
C1646 C 0.18377 0.21089 0.55048 0.0
C1647 C 0.19561 0.19916 0.55189 0.0
H1648 H 0.82661 0.20719 0.45217 0.0
H1649 H 0.82329 0.216 0.57562 0.0
H1650 H 0.80276 0.19541 0.58158 0.0
H1651 H 0.78461 0.17612 0.55114 0.0
H1652 H 0.78824 0.1668 0.42783 0.0
H1653 H 0.80956 0.18657 0.42234 0.0
C1654 C 0.82139 0.20456 0.48036 0.0
C1655 C 0.82643 0.21314 0.51337 0.0
C1656 C 0.80954 0.19274 0.48356 0.0
C1657 C 0.81973 0.20947 0.54982 0.0
C1658 C 0.80791 0.19777 0.55321 0.0
C1659 C 0.79024 0.17816 0.52315 0.0
C1660 C 0.78469 0.17002 0.48992 0.0
C1661 C 0.8026 0.18945 0.52022 0.0
C1662 C 0.79203 0.17308 0.45381 0.0
C1663 C 0.8043 0.18433 0.45065 0.0
H1664 H 0.13128 0.33697 0.3036 0.0
H1665 H 0.1715 0.30513 0.31735 0.0
H1666 H 0.18253 0.31427 0.25557 0.0
H1667 H 0.18111 0.33163 0.19829 0.0
H1668 H 0.14143 0.36407 0.18488 0.0
H1669 H 0.13 0.35461 0.24631 0.0
C1670 C 0.14253 0.33213 0.29326 0.0
C1671 C 0.15048 0.32031 0.31507 0.0
C1672 C 0.14893 0.33758 0.25784 0.0
C1673 C 0.16496 0.31403 0.3009 0.0
C1674 C 0.17134 0.31932 0.26567 0.0
C1675 C 0.16986 0.3365 0.20859 0.0
C1676 C 0.16207 0.34846 0.18698 0.0
C1677 C 0.16343 0.33107 0.24391 0.0
C1678 C 0.14768 0.3549 0.20112 0.0
C1679 C 0.14113 0.34947 0.23614 0.0
H1680 H 0.68326 0.16649 0.30653 0.0
H1681 H 0.64428 0.13314 0.3189 0.0
H1682 H 0.63287 0.14237 0.25727 0.0
H1683 H 0.63381 0.16026 0.20041 0.0
H1684 H 0.67322 0.19316 0.18786 0.0
H1685 H 0.68447 0.18395 0.24936 0.0
C1686 C 0.67218 0.16135 0.29589 0.0
C1687 C 0.66457 0.14923 0.3173 0.0
C1688 C 0.66575 0.16666 0.26049 0.0
C1689 C 0.6504 0.14244 0.3028 0.0
C1690 C 0.64386 0.14775 0.26766 0.0
C1691 C 0.64494 0.16529 0.21094 0.0
C1692 C 0.65259 0.17746 0.18963 0.0
C1693 C 0.65144 0.15985 0.24625 0.0
C1694 C 0.66692 0.18398 0.20396 0.0
C1695 C 0.67343 0.17866 0.23904 0.0
H1696 H 0.84284 0.65612 0.32186 0.0
H1697 H 0.87115 0.69243 0.26525 0.0
H1698 H 0.86214 0.68301 0.20166 0.0
H1699 H 0.84573 0.66488 0.16218 0.0
H1700 H 0.81717 0.62878 0.21884 0.0
H1701 H 0.82709 0.63743 0.28223 0.0
C1702 C 0.84722 0.66183 0.29559 0.0
C1703 C 0.85759 0.67501 0.29834 0.0
C1704 C 0.84197 0.65637 0.2591 0.0
C1705 C 0.86298 0.6824 0.26399 0.0
C1706 C 0.85789 0.67699 0.2276 0.0
C1707 C 0.84163 0.65895 0.18841 0.0
C1708 C 0.8307 0.64622 0.18571 0.0
C1709 C 0.84725 0.66409 0.22483 0.0
C1710 C 0.82571 0.63849 0.21999 0.0
C1711 C 0.8313 0.6435 0.25631 0.0
H1712 H 0.31298 0.83687 0.29807 0.0
H1713 H 0.34939 0.87306 0.30977 0.0
H1714 H 0.36156 0.86436 0.24859 0.0
H1715 H 0.36148 0.84677 0.19108 0.0
H1716 H 0.32496 0.81059 0.18013 0.0
H1717 H 0.31296 0.81931 0.24116 0.0
C1718 C 0.32348 0.84297 0.28706 0.0
C1719 C 0.33021 0.85565 0.30838 0.0
C1720 C 0.33032 0.838 0.25182 0.0
C1721 C 0.34405 0.86318 0.2941 0.0
C1722 C 0.35095 0.85828 0.25901 0.0
C1723 C 0.35096 0.84073 0.20219 0.0
C1724 C 0.34409 0.82811 0.18085 0.0
C1725 C 0.34417 0.84571 0.23758 0.0
C1726 C 0.33034 0.82053 0.19551 0.0
C1727 C 0.32353 0.82542 0.23059 0.0
H1728 H 0.13881 0.65406 0.6936 0.0
H1729 H 0.16999 0.69515 0.69248 0.0
H1730 H 0.18162 0.68688 0.75436 0.0
H1731 H 0.18313 0.66794 0.80846 0.0
H1732 H 0.15234 0.62658 0.80972 0.0
H1733 H 0.14002 0.63525 0.74874 0.0
C1734 C 0.14805 0.66127 0.70709 0.0
C1735 C 0.15361 0.67513 0.68825 0.0
C1736 C 0.15468 0.65646 0.74281 0.0
C1737 C 0.16569 0.68427 0.70597 0.0
C1738 C 0.17228 0.67961 0.7415 0.0
C1739 C 0.17381 0.66075 0.79528 0.0
C1740 C 0.16874 0.64658 0.81356 0.0
C1741 C 0.16695 0.66568 0.76002 0.0
C1742 C 0.15638 0.6376 0.79648 0.0
C1743 C 0.14941 0.6425 0.76146 0.0
H1744 H 0.34155 0.16561 0.6677 0.0
H1745 H 0.31131 0.13068 0.72347 0.0
H1746 H 0.32063 0.13949 0.7873 0.0
H1747 H 0.33662 0.15777 0.82737 0.0
H1748 H 0.36702 0.1926 0.77161 0.0
H1749 H 0.35812 0.18341 0.70778 0.0
C1750 C 0.33695 0.15999 0.69384 0.0
C1751 C 0.32574 0.14752 0.69079 0.0
C1752 C 0.34229 0.16517 0.73048 0.0
C1753 C 0.32008 0.14017 0.72495 0.0
C1754 C 0.32533 0.14527 0.76148 0.0
C1755 C 0.34146 0.16322 0.80127 0.0
C1756 C 0.35242 0.17591 0.80437 0.0
C1757 C 0.33637 0.15781 0.76461 0.0
C1758 C 0.35838 0.18298 0.77015 0.0
C1759 C 0.35336 0.17768 0.7336 0.0
H1760 H 0.81462 0.3383 0.80175 0.0
H1761 H 0.85496 0.36941 0.82224 0.0
H1762 H 0.8671 0.36057 0.76132 0.0
H1763 H 0.86676 0.34314 0.70319 0.0
H1764 H 0.8275 0.31051 0.68642 0.0
H1765 H 0.81459 0.32054 0.74548 0.0
C1766 C 0.82619 0.34301 0.7934 0.0
C1767 C 0.83385 0.35447 0.81692 0.0
C1768 C 0.83334 0.33752 0.75901 0.0
C1769 C 0.84864 0.36073 0.80466 0.0
C1770 C 0.85567 0.35559 0.76991 0.0
C1771 C 0.85535 0.33833 0.71256 0.0
C1772 C 0.84803 0.32615 0.69078 0.0
C1773 C 0.84818 0.34391 0.74698 0.0
C1774 C 0.83333 0.31985 0.70306 0.0
C1775 C 0.82596 0.32559 0.73669 0.0
H1776 H 0.63645 0.82016 0.7824 0.0
H1777 H 0.66737 0.84793 0.85672 0.0
H1778 H 0.67987 0.86012 0.79973 0.0
H1779 H 0.68233 0.86256 0.7288 0.0
H1780 H 0.65153 0.83476 0.65427 0.0
H1781 H 0.63862 0.82295 0.71128 0.0
C1782 C 0.64597 0.82884 0.78603 0.0
C1783 C 0.65098 0.83315 0.82364 0.0
C1784 C 0.65309 0.83581 0.75315 0.0
C1785 C 0.66318 0.84456 0.82803 0.0
C1786 C 0.67039 0.85147 0.79549 0.0
C1787 C 0.67283 0.85386 0.72509 0.0
C1788 C 0.66791 0.8495 0.68745 0.0
C1789 C 0.66549 0.84713 0.75793 0.0
C1790 C 0.65542 0.83842 0.683 0.0
C1791 C 0.6481 0.8316 0.71555 0.0
H1792 H 0.86678 0.67401 0.70882 0.0
H1793 H 0.82582 0.65763 0.64377 0.0
H1794 H 0.81452 0.64583 0.70264 0.0
H1795 H 0.81577 0.64102 0.77285 0.0
H1796 H 0.85632 0.65787 0.83866 0.0
H1797 H 0.86849 0.66826 0.77908 0.0
C1798 C 0.85549 0.66766 0.70747 0.0
C1799 C 0.8471 0.66679 0.67202 0.0
C1800 C 0.849 0.66098 0.74153 0.0
C1801 C 0.8324 0.65866 0.6708 0.0
C1802 C 0.82596 0.65187 0.70441 0.0
C1803 C 0.82724 0.64703 0.77422 0.0
C1804 C 0.83506 0.64877 0.81023 0.0
C1805 C 0.83404 0.65315 0.74001 0.0
C1806 C 0.85009 0.65627 0.81131 0.0
C1807 C 0.85701 0.6623 0.77728 0.0
H1808 H 0.32657 0.86614 0.71453 0.0
H1809 H 0.34661 0.82835 0.6443 0.0
H1810 H 0.35913 0.81669 0.70181 0.0
H1811 H 0.36363 0.81665 0.77229 0.0
H1812 H 0.34344 0.85419 0.84297 0.0
H1813 H 0.33212 0.86675 0.78494 0.0
C1814 C 0.33387 0.85549 0.71173 0.0
C1815 C 0.33553 0.84806 0.67517 0.0
C1816 C 0.34104 0.84881 0.74499 0.0
C1817 C 0.3449 0.83416 0.67216 0.0
C1818 C 0.35213 0.82752 0.70501 0.0
C1819 C 0.35672 0.82756 0.77502 0.0
C1820 C 0.35432 0.83441 0.81195 0.0
C1821 C 0.3501 0.83461 0.74163 0.0
C1822 C 0.34559 0.84873 0.81487 0.0
C1823 C 0.33902 0.85587 0.78172 0.0
H1824 H 0.1702 0.33007 0.68132 0.0
H1825 H 0.12101 0.33486 0.7178 0.0
H1826 H 0.12978 0.3454 0.78039 0.0
H1827 H 0.15144 0.35262 0.82545 0.0
H1828 H 0.20039 0.35039 0.78564 0.0
H1829 H 0.19155 0.33966 0.72352 0.0
C1830 C 0.1613 0.33372 0.70242 0.0
C1831 C 0.14492 0.33151 0.69453 0.0
C1832 C 0.16638 0.34018 0.73802 0.0
C1833 C 0.13371 0.33604 0.72307 0.0
C1834 C 0.13871 0.34221 0.75888 0.0
C1835 C 0.1602 0.35007 0.80305 0.0
C1836 C 0.17662 0.35212 0.8108 0.0
C1837 C 0.15502 0.34424 0.76678 0.0
C1838 C 0.18772 0.34854 0.78123 0.0
C1839 C 0.18267 0.34251 0.74542 0.0
H1840 H 0.63121 0.17169 0.78602 0.0
H1841 H 0.67317 0.15936 0.85251 0.0
H1842 H 0.68516 0.14701 0.79512 0.0
H1843 H 0.68423 0.14072 0.72558 0.0
H1844 H 0.64278 0.15388 0.65806 0.0
H1845 H 0.62994 0.16454 0.71642 0.0
C1846 C 0.64287 0.16609 0.78799 0.0
C1847 C 0.65133 0.16651 0.82335 0.0
C1848 C 0.64979 0.15917 0.7547 0.0
C1849 C 0.66651 0.15935 0.82546 0.0
C1850 C 0.67336 0.15226 0.79271 0.0
C1851 C 0.67242 0.14599 0.72355 0.0
C1852 C 0.66454 0.14657 0.6874 0.0
C1853 C 0.66522 0.15233 0.75705 0.0
C1854 C 0.64908 0.15313 0.68553 0.0
C1855 C 0.64176 0.15934 0.71887 0.0
H1856 H 0.83097 0.32233 0.32089 0.0
H1857 H 0.87724 0.34458 0.30794 0.0
H1858 H 0.86885 0.35612 0.24589 0.0
H1859 H 0.84842 0.35954 0.19472 0.0
H1860 H 0.80164 0.33878 0.21134 0.0
H1861 H 0.8102 0.32726 0.27284 0.0
C1862 C 0.83919 0.32996 0.30506 0.0
C1863 C 0.85474 0.33254 0.31935 0.0
C1864 C 0.83421 0.33682 0.26987 0.0
C1865 C 0.86527 0.34214 0.29755 0.0
C1866 C 0.86045 0.34886 0.26213 0.0
C1867 C 0.84003 0.35267 0.21202 0.0
C1868 C 0.82447 0.34985 0.19793 0.0
C1869 C 0.84495 0.34623 0.24792 0.0
C1870 C 0.81382 0.34082 0.22078 0.0
C1871 C 0.81865 0.3343 0.25619 0.0
H1872 H 0.63707 0.82046 0.22857 0.0
H1873 H 0.66188 0.85524 0.1584 0.0
H1874 H 0.67284 0.8677 0.21706 0.0
H1875 H 0.67666 0.86763 0.28811 0.0
H1876 H 0.65288 0.832 0.35786 0.0
H1877 H 0.64012 0.82098 0.2997 0.0
C1878 C 0.64469 0.83091 0.22625 0.0
C1879 C 0.64868 0.83695 0.18936 0.0
C1880 C 0.65119 0.83778 0.26 0.0
C1881 C 0.65875 0.85035 0.18658 0.0
C1882 C 0.66499 0.85747 0.22006 0.0
C1883 C 0.6685 0.8576 0.29053 0.0
C1884 C 0.6657 0.85061 0.32707 0.0
C1885 C 0.66148 0.85114 0.25689 0.0
C1886 C 0.65528 0.83748 0.3299 0.0
C1887 C 0.64798 0.83121 0.29671 0.0
H1888 H 0.14178 0.68175 0.27705 0.0
H1889 H 0.15503 0.64117 0.34757 0.0
H1890 H 0.16455 0.62712 0.28969 0.0
H1891 H 0.17008 0.62679 0.2194 0.0
H1892 H 0.15802 0.66804 0.14976 0.0
H1893 H 0.14696 0.68128 0.20687 0.0
C1894 C 0.14685 0.66987 0.27983 0.0
C1895 C 0.14777 0.66258 0.31668 0.0
C1896 C 0.15247 0.66193 0.24653 0.0
C1897 C 0.15404 0.64703 0.31956 0.0
C1898 C 0.15958 0.63901 0.28649 0.0
C1899 C 0.16508 0.6387 0.2167 0.0
C1900 C 0.16492 0.64636 0.18019 0.0
C1901 C 0.159 0.64642 0.24988 0.0
C1902 C 0.15812 0.6617 0.17725 0.0
C1903 C 0.15191 0.66938 0.21001 0.0
H1904 H 0.32108 0.16766 0.31316 0.0
H1905 H 0.34769 0.12362 0.30451 0.0
H1906 H 0.35859 0.13214 0.24179 0.0
H1907 H 0.36022 0.152 0.18885 0.0
H1908 H 0.33401 0.19625 0.19916 0.0
H1909 H 0.32337 0.18773 0.2618 0.0
C1910 C 0.32945 0.16 0.2979 0.0
C1911 C 0.33358 0.14504 0.31365 0.0
C1912 C 0.33569 0.16498 0.26197 0.0
C1913 C 0.34418 0.13514 0.29293 0.0
C1914 C 0.35048 0.14003 0.25712 0.0
C1915 C 0.3523 0.15984 0.20498 0.0
C1916 C 0.34784 0.1747 0.18906 0.0
C1917 C 0.34626 0.15491 0.24127 0.0
C1918 C 0.33742 0.18463 0.21026 0.0
C1919 C 0.3314 0.17982 0.24626 0.0
loop_
_geom_bond_atom_site_label_1
_geom_bond_atom_site_label_2
_geom_bond_distance
_geom_bond_site_symmetry_2
_ccdc_geom_bond_type
Li0 N17 1.990 . S
Li0 O60 1.956 . S
Li0 O61 1.970 1_554 S
Li0 O62 1.961 1_554 S
Li1 N25 1.990 . S
Li1 O60 1.970 . S
Li1 O61 1.956 1_554 S
Li1 O63 1.961 . S
Li2 N47 1.991 . S
Li2 O60 1.938 1_556 S
Li2 O62 1.978 . S
Li2 O63 1.969 1_556 S
Li3 N53 1.990 . S
Li3 O61 1.961 . S
Li3 O62 1.970 . S
Li3 O63 1.956 1_556 S
C4 C6 1.348 . S
C4 C7 1.356 . S
C4 O60 1.325 . S
N5 C8 1.314 . S
N5 C9 1.279 . S
C6 C4 1.348 . S
C6 C8 1.353 . S
C6 H64 0.929 . S
C7 C4 1.356 . S
C7 C9 1.358 . S
C7 H65 0.930 . S
C8 N5 1.314 . S
C8 C6 1.353 . S
C8 H66 0.930 . S
C9 N5 1.279 . S
C9 C7 1.358 . S
C9 H67 0.930 . S
C10 C13 1.348 1_556 S
C10 C14 1.356 . S
C10 O61 1.325 . S
C11 N12 1.279 1_556 S
C11 C14 1.358 . S
C11 H68 0.930 . S
N12 C11 1.279 1_554 S
N12 C15 1.314 . S
C13 C10 1.348 1_554 S
C13 C15 1.353 . S
C13 H69 0.929 . S
C14 C10 1.356 . S
C14 C11 1.358 . S
C14 H70 0.930 . S
C15 N12 1.314 . S
C15 C13 1.353 . S
C15 H71 0.930 . S
C16 N17 1.314 1_556 S
C16 C21 1.353 . S
C16 H22 0.930 . S
N17 Li0 1.990 . S
N17 C16 1.314 1_554 S
N17 C19 1.279 . S
C18 C19 1.358 . S
C18 C20 1.359 . S
C18 H72 0.930 . S
C19 N17 1.279 . S
C19 C18 1.358 . S
C19 H23 0.930 . S
C20 C18 1.359 . S
C20 C21 1.345 1_554 S
C21 C16 1.353 . S
C21 C20 1.345 1_556 S
C21 H73 0.929 . S
H22 C16 0.930 . S
H23 C19 0.930 . S
C24 N25 1.314 . S
C24 C26 1.353 . S
C24 H30 0.930 . S
N25 Li1 1.990 . S
N25 C24 1.314 . S
N25 C28 1.279 . S
C26 C24 1.353 . S
C26 C29 1.348 . S
C26 H74 0.929 . S
C27 C28 1.358 . S
C27 C29 1.356 . S
C27 H75 0.930 . S
C28 N25 1.279 . S
C28 C27 1.358 . S
C28 H31 0.930 . S
C29 C26 1.348 . S
C29 C27 1.356 . S
H30 C24 0.930 . S
H31 C28 0.930 . S
C32 C34 1.348 . S
C32 C35 1.356 . S
C32 O62 1.325 . S
N33 C36 1.314 . S
N33 C37 1.279 . S
C34 C32 1.348 . S
C34 C36 1.353 . S
C34 H76 0.929 . S
C35 C32 1.356 . S
C35 C37 1.358 . S
C35 H77 0.930 . S
C36 N33 1.314 . S
C36 C34 1.353 . S
C36 H78 0.930 . S
C37 N33 1.279 . S
C37 C35 1.358 . S
C37 H79 0.930 . S
C38 C39 1.347 1_554 S
C38 C40 1.357 . S
C38 O63 1.325 . S
C39 C38 1.347 1_556 S
C39 C41 1.353 . S
C39 H80 0.929 . S
C40 C38 1.357 . S
C40 C42 1.358 . S
C40 H81 0.930 . S
C41 C39 1.353 . S
C41 N43 1.314 . S
C41 H82 0.930 . S
C42 C40 1.358 . S
C42 N43 1.279 1_554 S
C42 H83 0.930 . S
N43 C41 1.314 . S
N43 C42 1.279 1_556 S
C44 C46 1.353 . S
C44 N47 1.314 1_554 S
C44 H50 0.930 . S
C45 N47 1.279 . S
C45 C48 1.358 . S
C45 H51 0.930 . S
C46 C44 1.353 . S
C46 C49 1.345 . S
C46 H84 0.929 . S
N47 Li2 1.991 . S
N47 C44 1.314 1_556 S
N47 C45 1.279 . S
C48 C45 1.358 . S
C48 C49 1.359 1_556 S
C48 H85 0.930 . S
C49 C46 1.345 . S
C49 C48 1.359 1_554 S
H50 C44 0.930 . S
H51 C45 0.930 . S
C52 N53 1.314 . S
C52 C54 1.353 . S
C52 H58 0.930 . S
N53 Li3 1.990 . S
N53 C52 1.314 . S
N53 C56 1.279 . S
C54 C52 1.353 . S
C54 C57 1.348 . S
C54 H86 0.929 . S
C55 C56 1.358 . S
C55 C57 1.356 . S
C55 H87 0.930 . S
C56 N53 1.279 . S
C56 C55 1.358 . S
C56 H59 0.930 . S
C57 C54 1.348 . S
C57 C55 1.356 . S
H58 C52 0.930 . S
H59 C56 0.930 . S
O60 Li0 1.956 . S
O60 Li1 1.970 . S
O60 Li2 1.938 1_554 S
O60 C4 1.325 . S
O61 Li0 1.970 1_556 S
O61 Li1 1.956 1_556 S
O61 Li3 1.961 . S
O61 C10 1.325 . S
O62 Li0 1.961 1_556 S
O62 Li2 1.978 . S
O62 Li3 1.970 . S
O62 C32 1.325 . S
O63 Li1 1.961 . S
O63 Li2 1.969 1_554 S
O63 Li3 1.956 1_554 S
O63 C38 1.325 . S
H64 C6 0.929 . S
H65 C7 0.930 . S
H66 C8 0.930 . S
H67 C9 0.930 . S
H68 C11 0.930 . S
H69 C13 0.929 . S
H70 C14 0.930 . S
H71 C15 0.930 . S
H72 C18 0.930 . S
H73 C21 0.929 . S
H74 C26 0.929 . S
H75 C27 0.930 . S
H76 C34 0.929 . S
H77 C35 0.930 . S
H78 C36 0.930 . S
H79 C37 0.930 . S
H80 C39 0.929 . S
H81 C40 0.930 . S
H82 C41 0.930 . S
H83 C42 0.930 . S
H84 C46 0.929 . S
H85 C48 0.930 . S
H86 C54 0.929 . S
H87 C55 0.930 . S
Li88 N105 1.990 . S
Li88 O148 1.956 . S
Li88 O149 1.970 1_554 S
Li88 O150 1.961 1_554 S
Li89 N113 1.990 . S
Li89 O148 1.970 . S
Li89 O149 1.956 1_554 S
Li89 O151 1.961 . S
Li90 N135 1.991 . S
Li90 O148 1.938 1_556 S
Li90 O150 1.978 . S
Li90 O151 1.969 1_556 S
Li91 N141 1.990 . S
Li91 O149 1.961 . S
Li91 O150 1.970 . S
Li91 O151 1.956 1_556 S
C92 C94 1.348 . S
C92 C95 1.356 . S
C92 O148 1.325 . S
N93 C96 1.314 . S
N93 C97 1.279 . S
C94 C92 1.348 . S
C94 C96 1.353 . S
C94 H152 0.929 . S
C95 C92 1.356 . S
C95 C97 1.358 . S
C95 H153 0.930 . S
C96 N93 1.314 . S
C96 C94 1.353 . S
C96 H154 0.930 . S
C97 N93 1.279 . S
C97 C95 1.358 . S
C97 H155 0.930 . S
C98 C101 1.348 1_556 S
C98 C102 1.356 . S
C98 O149 1.325 . S
C99 N100 1.279 1_556 S
C99 C102 1.358 . S
C99 H156 0.930 . S
N100 C99 1.279 1_554 S
N100 C103 1.314 . S
C101 C98 1.348 1_554 S
C101 C103 1.353 . S
C101 H157 0.929 . S
C102 C98 1.356 . S
C102 C99 1.358 . S
C102 H158 0.930 . S
C103 N100 1.314 . S
C103 C101 1.353 . S
C103 H159 0.930 . S
C104 N105 1.314 1_556 S
C104 C109 1.353 . S
C104 H110 0.930 . S
N105 Li88 1.990 . S
N105 C104 1.314 1_554 S
N105 C107 1.279 . S
C106 C107 1.358 . S
C106 C108 1.359 . S
C106 H160 0.930 . S
C107 N105 1.279 . S
C107 C106 1.358 . S
C107 H111 0.930 . S
C108 C106 1.359 . S
C108 C109 1.345 1_554 S
C109 C104 1.353 . S
C109 C108 1.345 1_556 S
C109 H161 0.929 . S
H110 C104 0.930 . S
H111 C107 0.930 . S
C112 N113 1.314 . S
C112 C114 1.353 . S
C112 H118 0.930 . S
N113 Li89 1.990 . S
N113 C112 1.314 . S
N113 C116 1.279 . S
C114 C112 1.353 . S
C114 C117 1.348 . S
C114 H162 0.929 . S
C115 C116 1.358 . S
C115 C117 1.356 . S
C115 H163 0.930 . S
C116 N113 1.279 . S
C116 C115 1.358 . S
C116 H119 0.930 . S
C117 C114 1.348 . S
C117 C115 1.356 . S
H118 C112 0.930 . S
H119 C116 0.930 . S
C120 C122 1.348 . S
C120 C123 1.356 . S
C120 O150 1.325 . S
N121 C124 1.314 . S
N121 C125 1.279 . S
C122 C120 1.348 . S
C122 C124 1.353 . S
C122 H164 0.929 . S
C123 C120 1.356 . S
C123 C125 1.358 . S
C123 H165 0.930 . S
C124 N121 1.314 . S
C124 C122 1.353 . S
C124 H166 0.930 . S
C125 N121 1.279 . S
C125 C123 1.358 . S
C125 H167 0.930 . S
C126 C127 1.347 1_554 S
C126 C128 1.357 . S
C126 O151 1.325 . S
C127 C126 1.347 1_556 S
C127 C129 1.353 . S
C127 H168 0.929 . S
C128 C126 1.357 . S
C128 C130 1.358 . S
C128 H169 0.930 . S
C129 C127 1.353 . S
C129 N131 1.314 . S
C129 H170 0.930 . S
C130 C128 1.358 . S
C130 N131 1.279 1_554 S
C130 H171 0.930 . S
N131 C129 1.314 . S
N131 C130 1.279 1_556 S
C132 C134 1.353 . S
C132 N135 1.314 1_554 S
C132 H138 0.930 . S
C133 N135 1.279 . S
C133 C136 1.358 . S
C133 H139 0.930 . S
C134 C132 1.353 . S
C134 C137 1.345 . S
C134 H172 0.929 . S
N135 Li90 1.991 . S
N135 C132 1.314 1_556 S
N135 C133 1.279 . S
C136 C133 1.358 . S
C136 C137 1.359 1_556 S
C136 H173 0.930 . S
C137 C134 1.345 . S
C137 C136 1.359 1_554 S
H138 C132 0.930 . S
H139 C133 0.930 . S
C140 N141 1.314 . S
C140 C142 1.353 . S
C140 H146 0.930 . S
N141 Li91 1.990 . S
N141 C140 1.314 . S
N141 C144 1.279 . S
C142 C140 1.353 . S
C142 C145 1.348 . S
C142 H174 0.929 . S
C143 C144 1.358 . S
C143 C145 1.356 . S
C143 H175 0.930 . S
C144 N141 1.279 . S
C144 C143 1.358 . S
C144 H147 0.930 . S
C145 C142 1.348 . S
C145 C143 1.356 . S
H146 C140 0.930 . S
H147 C144 0.930 . S
O148 Li88 1.956 . S
O148 Li89 1.970 . S
O148 Li90 1.938 1_554 S
O148 C92 1.325 . S
O149 Li88 1.970 1_556 S
O149 Li89 1.956 1_556 S
O149 Li91 1.961 . S
O149 C98 1.325 . S
O150 Li88 1.961 1_556 S
O150 Li90 1.978 . S
O150 Li91 1.970 . S
O150 C120 1.325 . S
O151 Li89 1.961 . S
O151 Li90 1.969 1_554 S
O151 Li91 1.956 1_554 S
O151 C126 1.325 . S
H152 C94 0.929 . S
H153 C95 0.930 . S
H154 C96 0.930 . S
H155 C97 0.930 . S
H156 C99 0.930 . S
H157 C101 0.929 . S
H158 C102 0.930 . S
H159 C103 0.930 . S
H160 C106 0.930 . S
H161 C109 0.929 . S
H162 C114 0.929 . S
H163 C115 0.930 . S
H164 C122 0.929 . S
H165 C123 0.930 . S
H166 C124 0.930 . S
H167 C125 0.930 . S
H168 C127 0.929 . S
H169 C128 0.930 . S
H170 C129 0.930 . S
H171 C130 0.930 . S
H172 C134 0.929 . S
H173 C136 0.930 . S
H174 C142 0.929 . S
H175 C143 0.930 . S
Li176 N193 1.990 . S
Li176 O236 1.956 1_554 S
Li176 O237 1.970 . S
Li176 O238 1.961 . S
Li177 N201 1.990 . S
Li177 O236 1.970 1_554 S
Li177 O237 1.956 . S
Li177 O239 1.961 1_554 S
Li178 N223 1.990 . S
Li178 O236 1.961 . S
Li178 O238 1.956 1_556 S
Li178 O239 1.970 . S
Li179 N229 1.991 . S
Li179 O237 1.938 1_556 S
Li179 O238 1.969 1_556 S
Li179 O239 1.978 . S
C180 C182 1.348 1_556 S
C180 C183 1.356 . S
C180 O236 1.325 . S
N181 C184 1.314 . S
N181 C185 1.279 1_554 S
C182 C180 1.348 1_554 S
C182 C184 1.353 . S
C182 H240 0.929 . S
C183 C180 1.356 . S
C183 C185 1.358 . S
C183 H241 0.930 . S
C184 N181 1.314 . S
C184 C182 1.353 . S
C184 H242 0.930 . S
C185 N181 1.279 1_556 S
C185 C183 1.358 . S
C185 H243 0.930 . S
C186 C189 1.348 . S
C186 C190 1.356 . S
C186 O237 1.325 . S
C187 N188 1.279 . S
C187 C190 1.358 . S
C187 H244 0.930 . S
N188 C187 1.279 . S
N188 C191 1.314 . S
C189 C186 1.348 . S
C189 C191 1.353 . S
C189 H245 0.929 . S
C190 C186 1.356 . S
C190 C187 1.358 . S
C190 H246 0.930 . S
C191 N188 1.314 . S
C191 C189 1.353 . S
C191 H247 0.930 . S
C192 N193 1.314 . S
C192 C197 1.353 . S
C192 H198 0.930 . S
N193 Li176 1.990 . S
N193 C192 1.314 . S
N193 C195 1.279 . S
C194 C195 1.358 . S
C194 C196 1.356 . S
C194 H248 0.930 . S
C195 N193 1.279 . S
C195 C194 1.358 . S
C195 H199 0.930 . S
C196 C194 1.356 . S
C196 C197 1.348 . S
C197 C192 1.353 . S
C197 C196 1.348 . S
C197 H249 0.929 . S
H198 C192 0.930 . S
H199 C195 0.930 . S
C200 N201 1.314 1_556 S
C200 C202 1.353 . S
C200 H206 0.930 . S
N201 Li177 1.990 . S
N201 C200 1.314 1_554 S
N201 C204 1.279 . S
C202 C200 1.353 . S
C202 C205 1.345 1_556 S
C202 H250 0.929 . S
C203 C204 1.358 . S
C203 C205 1.359 . S
C203 H251 0.930 . S
C204 N201 1.279 . S
C204 C203 1.358 . S
C204 H207 0.930 . S
C205 C202 1.345 1_554 S
C205 C203 1.359 . S
H206 C200 0.930 . S
H207 C204 0.930 . S
C208 C210 1.347 1_554 S
C208 C211 1.357 . S
C208 O238 1.325 . S
N209 C212 1.314 . S
N209 C213 1.279 1_556 S
C210 C208 1.347 1_556 S
C210 C212 1.353 . S
C210 H252 0.929 . S
C211 C208 1.357 . S
C211 C213 1.358 . S
C211 H253 0.930 . S
C212 N209 1.314 . S
C212 C210 1.353 . S
C212 H254 0.930 . S
C213 N209 1.279 1_554 S
C213 C211 1.358 . S
C213 H255 0.930 . S
C214 C215 1.348 . S
C214 C216 1.356 . S
C214 O239 1.325 . S
C215 C214 1.348 . S
C215 C217 1.353 . S
C215 H256 0.929 . S
C216 C214 1.356 . S
C216 C218 1.358 . S
C216 H257 0.930 . S
C217 C215 1.353 . S
C217 N219 1.314 . S
C217 H258 0.930 . S
C218 C216 1.358 . S
C218 N219 1.279 . S
C218 H259 0.930 . S
N219 C217 1.314 . S
N219 C218 1.279 . S
C220 C222 1.353 . S
C220 N223 1.314 . S
C220 H226 0.930 . S
C221 N223 1.279 . S
C221 C224 1.358 . S
C221 H227 0.930 . S
C222 C220 1.353 . S
C222 C225 1.348 . S
C222 H260 0.929 . S
N223 Li178 1.990 . S
N223 C220 1.314 . S
N223 C221 1.279 . S
C224 C221 1.358 . S
C224 C225 1.356 . S
C224 H261 0.930 . S
C225 C222 1.348 . S
C225 C224 1.356 . S
H226 C220 0.930 . S
H227 C221 0.930 . S
C228 N229 1.314 1_554 S
C228 C230 1.353 . S
C228 H234 0.930 . S
N229 Li179 1.991 . S
N229 C228 1.314 1_556 S
N229 C232 1.279 . S
C230 C228 1.353 . S
C230 C233 1.345 . S
C230 H262 0.929 . S
C231 C232 1.358 . S
C231 C233 1.359 1_556 S
C231 H263 0.930 . S
C232 N229 1.279 . S
C232 C231 1.358 . S
C232 H235 0.930 . S
C233 C230 1.345 . S
C233 C231 1.359 1_554 S
H234 C228 0.930 . S
H235 C232 0.930 . S
O236 Li176 1.956 1_556 S
O236 Li177 1.970 1_556 S
O236 Li178 1.961 . S
O236 C180 1.325 . S
O237 Li176 1.970 . S
O237 Li177 1.956 . S
O237 Li179 1.938 1_554 S
O237 C186 1.325 . S
O238 Li176 1.961 . S
O238 Li178 1.956 1_554 S
O238 Li179 1.969 1_554 S
O238 C208 1.325 . S
O239 Li177 1.961 1_556 S
O239 Li178 1.970 . S
O239 Li179 1.978 . S
O239 C214 1.325 . S
H240 C182 0.929 . S
H241 C183 0.930 . S
H242 C184 0.930 . S
H243 C185 0.930 . S
H244 C187 0.930 . S
H245 C189 0.929 . S
H246 C190 0.930 . S
H247 C191 0.930 . S
H248 C194 0.930 . S
H249 C197 0.929 . S
H250 C202 0.929 . S
H251 C203 0.930 . S
H252 C210 0.929 . S
H253 C211 0.930 . S
H254 C212 0.930 . S
H255 C213 0.930 . S
H256 C215 0.929 . S
H257 C216 0.930 . S
H258 C217 0.930 . S
H259 C218 0.930 . S
H260 C222 0.929 . S
H261 C224 0.930 . S
H262 C230 0.929 . S
H263 C231 0.930 . S
Li264 N281 1.990 . S
Li264 O324 1.956 1_554 S
Li264 O325 1.970 . S
Li264 O326 1.961 . S
Li265 N289 1.990 . S
Li265 O324 1.970 1_554 S
Li265 O325 1.956 . S
Li265 O327 1.961 1_554 S
Li266 N311 1.990 . S
Li266 O324 1.961 . S
Li266 O326 1.956 1_556 S
Li266 O327 1.970 . S
Li267 N317 1.991 . S
Li267 O325 1.938 1_556 S
Li267 O326 1.969 1_556 S
Li267 O327 1.978 . S
C268 C270 1.348 1_556 S
C268 C271 1.356 . S
C268 O324 1.325 . S
N269 C272 1.314 . S
N269 C273 1.279 1_554 S
C270 C268 1.348 1_554 S
C270 C272 1.353 . S
C270 H328 0.929 . S
C271 C268 1.356 . S
C271 C273 1.358 . S
C271 H329 0.930 . S
C272 N269 1.314 . S
C272 C270 1.353 . S
C272 H330 0.930 . S
C273 N269 1.279 1_556 S
C273 C271 1.358 . S
C273 H331 0.930 . S
C274 C277 1.348 . S
C274 C278 1.356 . S
C274 O325 1.325 . S
C275 N276 1.279 . S
C275 C278 1.358 . S
C275 H332 0.930 . S
N276 C275 1.279 . S
N276 C279 1.314 . S
C277 C274 1.348 . S
C277 C279 1.353 . S
C277 H333 0.929 . S
C278 C274 1.356 . S
C278 C275 1.358 . S
C278 H334 0.930 . S
C279 N276 1.314 . S
C279 C277 1.353 . S
C279 H335 0.930 . S
C280 N281 1.314 . S
C280 C285 1.353 . S
C280 H286 0.930 . S
N281 Li264 1.990 . S
N281 C280 1.314 . S
N281 C283 1.279 . S
C282 C283 1.358 . S
C282 C284 1.356 . S
C282 H336 0.930 . S
C283 N281 1.279 . S
C283 C282 1.358 . S
C283 H287 0.930 . S
C284 C282 1.356 . S
C284 C285 1.348 . S
C285 C280 1.353 . S
C285 C284 1.348 . S
C285 H337 0.929 . S
H286 C280 0.930 . S
H287 C283 0.930 . S
C288 N289 1.314 1_556 S
C288 C290 1.353 . S
C288 H294 0.930 . S
N289 Li265 1.990 . S
N289 C288 1.314 1_554 S
N289 C292 1.279 . S
C290 C288 1.353 . S
C290 C293 1.345 1_556 S
C290 H338 0.929 . S
C291 C292 1.358 . S
C291 C293 1.359 . S
C291 H339 0.930 . S
C292 N289 1.279 . S
C292 C291 1.358 . S
C292 H295 0.930 . S
C293 C290 1.345 1_554 S
C293 C291 1.359 . S
H294 C288 0.930 . S
H295 C292 0.930 . S
C296 C298 1.347 1_554 S
C296 C299 1.357 . S
C296 O326 1.325 . S
N297 C300 1.314 . S
N297 C301 1.279 1_556 S
C298 C296 1.347 1_556 S
C298 C300 1.353 . S
C298 H340 0.929 . S
C299 C296 1.357 . S
C299 C301 1.358 . S
C299 H341 0.930 . S
C300 N297 1.314 . S
C300 C298 1.353 . S
C300 H342 0.930 . S
C301 N297 1.279 1_554 S
C301 C299 1.358 . S
C301 H343 0.930 . S
C302 C303 1.348 . S
C302 C304 1.356 . S
C302 O327 1.325 . S
C303 C302 1.348 . S
C303 C305 1.353 . S
C303 H344 0.929 . S
C304 C302 1.356 . S
C304 C306 1.358 . S
C304 H345 0.930 . S
C305 C303 1.353 . S
C305 N307 1.314 . S
C305 H346 0.930 . S
C306 C304 1.358 . S
C306 N307 1.279 . S
C306 H347 0.930 . S
N307 C305 1.314 . S
N307 C306 1.279 . S
C308 C310 1.353 . S
C308 N311 1.314 . S
C308 H314 0.930 . S
C309 N311 1.279 . S
C309 C312 1.358 . S
C309 H315 0.930 . S
C310 C308 1.353 . S
C310 C313 1.348 . S
C310 H348 0.929 . S
N311 Li266 1.990 . S
N311 C308 1.314 . S
N311 C309 1.279 . S
C312 C309 1.358 . S
C312 C313 1.356 . S
C312 H349 0.930 . S
C313 C310 1.348 . S
C313 C312 1.356 . S
H314 C308 0.930 . S
H315 C309 0.930 . S
C316 N317 1.314 1_554 S
C316 C318 1.353 . S
C316 H322 0.930 . S
N317 Li267 1.991 . S
N317 C316 1.314 1_556 S
N317 C320 1.279 . S
C318 C316 1.353 . S
C318 C321 1.345 . S
C318 H350 0.929 . S
C319 C320 1.358 . S
C319 C321 1.359 1_556 S
C319 H351 0.930 . S
C320 N317 1.279 . S
C320 C319 1.358 . S
C320 H323 0.930 . S
C321 C318 1.345 . S
C321 C319 1.359 1_554 S
H322 C316 0.930 . S
H323 C320 0.930 . S
O324 Li264 1.956 1_556 S
O324 Li265 1.970 1_556 S
O324 Li266 1.961 . S
O324 C268 1.325 . S
O325 Li264 1.970 . S
O325 Li265 1.956 . S
O325 Li267 1.938 1_554 S
O325 C274 1.325 . S
O326 Li264 1.961 . S
O326 Li266 1.956 1_554 S
O326 Li267 1.969 1_554 S
O326 C296 1.325 . S
O327 Li265 1.961 1_556 S
O327 Li266 1.970 . S
O327 Li267 1.978 . S
O327 C302 1.325 . S
H328 C270 0.929 . S
H329 C271 0.930 . S
H330 C272 0.930 . S
H331 C273 0.930 . S
H332 C275 0.930 . S
H333 C277 0.929 . S
H334 C278 0.930 . S
H335 C279 0.930 . S
H336 C282 0.930 . S
H337 C285 0.929 . S
H338 C290 0.929 . S
H339 C291 0.930 . S
H340 C298 0.929 . S
H341 C299 0.930 . S
H342 C300 0.930 . S
H343 C301 0.930 . S
H344 C303 0.929 . S
H345 C304 0.930 . S
H346 C305 0.930 . S
H347 C306 0.930 . S
H348 C310 0.929 . S
H349 C312 0.930 . S
H350 C318 0.929 . S
H351 C319 0.930 . S
Li352 N369 1.990 . S
Li352 O412 1.956 1_554 S
Li352 O413 1.970 . S
Li352 O414 1.961 . S
Li353 N377 1.990 . S
Li353 O412 1.970 1_554 S
Li353 O413 1.956 . S
Li353 O415 1.961 1_554 S
Li354 N399 1.990 . S
Li354 O412 1.961 . S
Li354 O414 1.956 1_556 S
Li354 O415 1.970 . S
Li355 N405 1.991 . S
Li355 O413 1.938 1_556 S
Li355 O414 1.969 1_556 S
Li355 O415 1.978 . S
C356 C358 1.348 1_556 S
C356 C359 1.356 . S
C356 O412 1.325 . S
N357 C360 1.314 . S
N357 C361 1.279 1_554 S
C358 C356 1.348 1_554 S
C358 C360 1.353 . S
C358 H416 0.929 . S
C359 C356 1.356 . S
C359 C361 1.358 . S
C359 H417 0.930 . S
C360 N357 1.314 . S
C360 C358 1.353 . S
C360 H418 0.930 . S
C361 N357 1.279 1_556 S
C361 C359 1.358 . S
C361 H419 0.930 . S
C362 C365 1.348 . S
C362 C366 1.356 . S
C362 O413 1.325 . S
C363 N364 1.279 . S
C363 C366 1.358 . S
C363 H420 0.930 . S
N364 C363 1.279 . S
N364 C367 1.314 . S
C365 C362 1.348 . S
C365 C367 1.353 . S
C365 H421 0.929 . S
C366 C362 1.356 . S
C366 C363 1.358 . S
C366 H422 0.930 . S
C367 N364 1.314 . S
C367 C365 1.353 . S
C367 H423 0.930 . S
C368 N369 1.314 . S
C368 C373 1.353 . S
C368 H374 0.930 . S
N369 Li352 1.990 . S
N369 C368 1.314 . S
N369 C371 1.279 . S
C370 C371 1.358 . S
C370 C372 1.356 . S
C370 H424 0.930 . S
C371 N369 1.279 . S
C371 C370 1.358 . S
C371 H375 0.930 . S
C372 C370 1.356 . S
C372 C373 1.348 . S
C373 C368 1.353 . S
C373 C372 1.348 . S
C373 H425 0.929 . S
H374 C368 0.930 . S
H375 C371 0.930 . S
C376 N377 1.314 1_556 S
C376 C378 1.353 . S
C376 H382 0.930 . S
N377 Li353 1.990 . S
N377 C376 1.314 1_554 S
N377 C380 1.279 . S
C378 C376 1.353 . S
C378 C381 1.345 1_556 S
C378 H426 0.929 . S
C379 C380 1.358 . S
C379 C381 1.359 . S
C379 H427 0.930 . S
C380 N377 1.279 . S
C380 C379 1.358 . S
C380 H383 0.930 . S
C381 C378 1.345 1_554 S
C381 C379 1.359 . S
H382 C376 0.930 . S
H383 C380 0.930 . S
C384 C386 1.346 1_554 S
C384 C387 1.357 . S
C384 O414 1.325 . S
N385 C388 1.314 . S
N385 C389 1.279 1_556 S
C386 C384 1.346 1_556 S
C386 C388 1.353 . S
C386 H428 0.929 . S
C387 C384 1.357 . S
C387 C389 1.358 . S
C387 H429 0.930 . S
C388 N385 1.314 . S
C388 C386 1.353 . S
C388 H430 0.930 . S
C389 N385 1.279 1_554 S
C389 C387 1.358 . S
C389 H431 0.930 . S
C390 C391 1.348 . S
C390 C392 1.356 . S
C390 O415 1.325 . S
C391 C390 1.348 . S
C391 C393 1.353 . S
C391 H432 0.929 . S
C392 C390 1.356 . S
C392 C394 1.358 . S
C392 H433 0.930 . S
C393 C391 1.353 . S
C393 N395 1.314 . S
C393 H434 0.930 . S
C394 C392 1.358 . S
C394 N395 1.279 . S
C394 H435 0.930 . S
N395 C393 1.314 . S
N395 C394 1.279 . S
C396 C398 1.353 . S
C396 N399 1.314 . S
C396 H402 0.930 . S
C397 N399 1.279 . S
C397 C400 1.358 . S
C397 H403 0.930 . S
C398 C396 1.353 . S
C398 C401 1.348 . S
C398 H436 0.929 . S
N399 Li354 1.990 . S
N399 C396 1.314 . S
N399 C397 1.279 . S
C400 C397 1.358 . S
C400 C401 1.356 . S
C400 H437 0.930 . S
C401 C398 1.348 . S
C401 C400 1.356 . S
H402 C396 0.930 . S
H403 C397 0.930 . S
C404 N405 1.314 1_554 S
C404 C406 1.353 . S
C404 H410 0.930 . S
N405 Li355 1.991 . S
N405 C404 1.314 1_556 S
N405 C408 1.279 . S
C406 C404 1.353 . S
C406 C409 1.345 . S
C406 H438 0.929 . S
C407 C408 1.358 . S
C407 C409 1.359 1_556 S
C407 H439 0.930 . S
C408 N405 1.279 . S
C408 C407 1.358 . S
C408 H411 0.930 . S
C409 C406 1.345 . S
C409 C407 1.359 1_554 S
H410 C404 0.930 . S
H411 C408 0.930 . S
O412 Li352 1.956 1_556 S
O412 Li353 1.970 1_556 S
O412 Li354 1.961 . S
O412 C356 1.325 . S
O413 Li352 1.970 . S
O413 Li353 1.956 . S
O413 Li355 1.938 1_554 S
O413 C362 1.325 . S
O414 Li352 1.961 . S
O414 Li354 1.956 1_554 S
O414 Li355 1.969 1_554 S
O414 C384 1.325 . S
O415 Li353 1.961 1_556 S
O415 Li354 1.970 . S
O415 Li355 1.978 . S
O415 C390 1.325 . S
H416 C358 0.929 . S
H417 C359 0.930 . S
H418 C360 0.930 . S
H419 C361 0.930 . S
H420 C363 0.930 . S
H421 C365 0.929 . S
H422 C366 0.930 . S
H423 C367 0.930 . S
H424 C370 0.930 . S
H425 C373 0.929 . S
H426 C378 0.929 . S
H427 C379 0.930 . S
H428 C386 0.929 . S
H429 C387 0.930 . S
H430 C388 0.930 . S
H431 C389 0.930 . S
H432 C391 0.929 . S
H433 C392 0.930 . S
H434 C393 0.930 . S
H435 C394 0.930 . S
H436 C398 0.929 . S
H437 C400 0.930 . S
H438 C406 0.929 . S
H439 C407 0.930 . S
Li440 N457 1.990 . S
Li440 O500 1.956 . S
Li440 O501 1.970 1_554 S
Li440 O502 1.961 1_554 S
Li441 N465 1.990 . S
Li441 O500 1.970 . S
Li441 O501 1.956 1_554 S
Li441 O503 1.961 . S
Li442 N487 1.991 . S
Li442 O500 1.938 1_556 S
Li442 O502 1.978 . S
Li442 O503 1.969 1_556 S
Li443 N493 1.990 . S
Li443 O501 1.961 . S
Li443 O502 1.970 . S
Li443 O503 1.956 1_556 S
C444 C446 1.348 . S
C444 C447 1.356 . S
C444 O500 1.325 . S
N445 C448 1.314 . S
N445 C449 1.279 . S
C446 C444 1.348 . S
C446 C448 1.353 . S
C446 H504 0.929 . S
C447 C444 1.356 . S
C447 C449 1.358 . S
C447 H505 0.930 . S
C448 N445 1.314 . S
C448 C446 1.353 . S
C448 H506 0.930 . S
C449 N445 1.279 . S
C449 C447 1.358 . S
C449 H507 0.930 . S
C450 C453 1.348 1_556 S
C450 C454 1.356 . S
C450 O501 1.325 . S
C451 N452 1.279 1_556 S
C451 C454 1.358 . S
C451 H508 0.930 . S
N452 C451 1.279 1_554 S
N452 C455 1.314 . S
C453 C450 1.348 1_554 S
C453 C455 1.353 . S
C453 H509 0.929 . S
C454 C450 1.356 . S
C454 C451 1.358 . S
C454 H510 0.930 . S
C455 N452 1.314 . S
C455 C453 1.353 . S
C455 H511 0.930 . S
C456 N457 1.314 1_556 S
C456 C461 1.353 . S
C456 H462 0.930 . S
N457 Li440 1.990 . S
N457 C456 1.314 1_554 S
N457 C459 1.279 . S
C458 C459 1.358 . S
C458 C460 1.359 . S
C458 H512 0.930 . S
C459 N457 1.279 . S
C459 C458 1.358 . S
C459 H463 0.930 . S
C460 C458 1.359 . S
C460 C461 1.345 1_554 S
C461 C456 1.353 . S
C461 C460 1.345 1_556 S
C461 H513 0.929 . S
H462 C456 0.930 . S
H463 C459 0.930 . S
C464 N465 1.314 . S
C464 C466 1.353 . S
C464 H470 0.930 . S
N465 Li441 1.990 . S
N465 C464 1.314 . S
N465 C468 1.279 . S
C466 C464 1.353 . S
C466 C469 1.348 . S
C466 H514 0.929 . S
C467 C468 1.358 . S
C467 C469 1.356 . S
C467 H515 0.930 . S
C468 N465 1.279 . S
C468 C467 1.358 . S
C468 H471 0.930 . S
C469 C466 1.348 . S
C469 C467 1.356 . S
H470 C464 0.930 . S
H471 C468 0.930 . S
C472 C474 1.348 . S
C472 C475 1.356 . S
C472 O502 1.325 . S
N473 C476 1.314 . S
N473 C477 1.279 . S
C474 C472 1.348 . S
C474 C476 1.353 . S
C474 H516 0.929 . S
C475 C472 1.356 . S
C475 C477 1.358 . S
C475 H517 0.930 . S
C476 N473 1.314 . S
C476 C474 1.353 . S
C476 H518 0.930 . S
C477 N473 1.279 . S
C477 C475 1.358 . S
C477 H519 0.930 . S
C478 C479 1.346 1_554 S
C478 C480 1.357 . S
C478 O503 1.325 . S
C479 C478 1.346 1_556 S
C479 C481 1.353 . S
C479 H520 0.929 . S
C480 C478 1.357 . S
C480 C482 1.358 . S
C480 H521 0.930 . S
C481 C479 1.353 . S
C481 N483 1.314 . S
C481 H522 0.930 . S
C482 C480 1.358 . S
C482 N483 1.279 1_554 S
C482 H523 0.930 . S
N483 C481 1.314 . S
N483 C482 1.279 1_556 S
C484 C486 1.353 . S
C484 N487 1.314 1_554 S
C484 H490 0.930 . S
C485 N487 1.279 . S
C485 C488 1.358 . S
C485 H491 0.930 . S
C486 C484 1.353 . S
C486 C489 1.345 . S
C486 H524 0.929 . S
N487 Li442 1.991 . S
N487 C484 1.314 1_556 S
N487 C485 1.279 . S
C488 C485 1.358 . S
C488 C489 1.359 1_556 S
C488 H525 0.930 . S
C489 C486 1.345 . S
C489 C488 1.359 1_554 S
H490 C484 0.930 . S
H491 C485 0.930 . S
C492 N493 1.314 . S
C492 C494 1.353 . S
C492 H498 0.930 . S
N493 Li443 1.990 . S
N493 C492 1.314 . S
N493 C496 1.279 . S
C494 C492 1.353 . S
C494 C497 1.348 . S
C494 H526 0.929 . S
C495 C496 1.358 . S
C495 C497 1.356 . S
C495 H527 0.930 . S
C496 N493 1.279 . S
C496 C495 1.358 . S
C496 H499 0.930 . S
C497 C494 1.348 . S
C497 C495 1.356 . S
H498 C492 0.930 . S
H499 C496 0.930 . S
O500 Li440 1.956 . S
O500 Li441 1.970 . S
O500 Li442 1.938 1_554 S
O500 C444 1.325 . S
O501 Li440 1.970 1_556 S
O501 Li441 1.956 1_556 S
O501 Li443 1.961 . S
O501 C450 1.325 . S
O502 Li440 1.961 1_556 S
O502 Li442 1.978 . S
O502 Li443 1.970 . S
O502 C472 1.325 . S
O503 Li441 1.961 . S
O503 Li442 1.969 1_554 S
O503 Li443 1.956 1_554 S
O503 C478 1.325 . S
H504 C446 0.929 . S
H505 C447 0.930 . S
H506 C448 0.930 . S
H507 C449 0.930 . S
H508 C451 0.930 . S
H509 C453 0.929 . S
H510 C454 0.930 . S
H511 C455 0.930 . S
H512 C458 0.930 . S
H513 C461 0.929 . S
H514 C466 0.929 . S
H515 C467 0.930 . S
H516 C474 0.929 . S
H517 C475 0.930 . S
H518 C476 0.930 . S
H519 C477 0.930 . S
H520 C479 0.929 . S
H521 C480 0.930 . S
H522 C481 0.930 . S
H523 C482 0.930 . S
H524 C486 0.929 . S
H525 C488 0.930 . S
H526 C494 0.929 . S
H527 C495 0.930 . S
Li528 N545 1.990 . S
Li528 O588 1.956 1_554 S
Li528 O589 1.970 . S
Li528 O590 1.961 . S
Li529 N553 1.990 . S
Li529 O588 1.970 1_554 S
Li529 O589 1.956 . S
Li529 O591 1.961 1_554 S
Li530 N575 1.990 . S
Li530 O588 1.961 . S
Li530 O590 1.956 1_556 S
Li530 O591 1.970 . S
Li531 N581 1.991 . S
Li531 O589 1.938 1_556 S
Li531 O590 1.969 1_556 S
Li531 O591 1.978 . S
C532 C534 1.348 1_556 S
C532 C535 1.356 . S
C532 O588 1.325 . S
N533 C536 1.314 . S
N533 C537 1.279 1_554 S
C534 C532 1.348 1_554 S
C534 C536 1.353 . S
C534 H592 0.929 . S
C535 C532 1.356 . S
C535 C537 1.358 . S
C535 H593 0.930 . S
C536 N533 1.314 . S
C536 C534 1.353 . S
C536 H594 0.930 . S
C537 N533 1.279 1_556 S
C537 C535 1.358 . S
C537 H595 0.930 . S
C538 C541 1.348 . S
C538 C542 1.356 . S
C538 O589 1.325 . S
C539 N540 1.279 . S
C539 C542 1.358 . S
C539 H596 0.930 . S
N540 C539 1.279 . S
N540 C543 1.314 . S
C541 C538 1.348 . S
C541 C543 1.353 . S
C541 H597 0.929 . S
C542 C538 1.356 . S
C542 C539 1.358 . S
C542 H598 0.930 . S
C543 N540 1.314 . S
C543 C541 1.353 . S
C543 H599 0.930 . S
C544 N545 1.314 . S
C544 C549 1.353 . S
C544 H550 0.930 . S
N545 Li528 1.990 . S
N545 C544 1.314 . S
N545 C547 1.279 . S
C546 C547 1.358 . S
C546 C548 1.356 . S
C546 H600 0.930 . S
C547 N545 1.279 . S
C547 C546 1.358 . S
C547 H551 0.930 . S
C548 C546 1.356 . S
C548 C549 1.348 . S
C549 C544 1.353 . S
C549 C548 1.348 . S
C549 H601 0.929 . S
H550 C544 0.930 . S
H551 C547 0.930 . S
C552 N553 1.314 1_556 S
C552 C554 1.353 . S
C552 H558 0.930 . S
N553 Li529 1.990 . S
N553 C552 1.314 1_554 S
N553 C556 1.279 . S
C554 C552 1.353 . S
C554 C557 1.345 1_556 S
C554 H602 0.929 . S
C555 C556 1.358 . S
C555 C557 1.359 . S
C555 H603 0.930 . S
C556 N553 1.279 . S
C556 C555 1.358 . S
C556 H559 0.930 . S
C557 C554 1.345 1_554 S
C557 C555 1.359 . S
H558 C552 0.930 . S
H559 C556 0.930 . S
C560 C562 1.346 1_554 S
C560 C563 1.357 . S
C560 O590 1.325 . S
N561 C564 1.314 . S
N561 C565 1.279 1_556 S
C562 C560 1.346 1_556 S
C562 C564 1.353 . S
C562 H604 0.929 . S
C563 C560 1.357 . S
C563 C565 1.358 . S
C563 H605 0.930 . S
C564 N561 1.314 . S
C564 C562 1.353 . S
C564 H606 0.930 . S
C565 N561 1.279 1_554 S
C565 C563 1.358 . S
C565 H607 0.930 . S
C566 C567 1.348 . S
C566 C568 1.356 . S
C566 O591 1.325 . S
C567 C566 1.348 . S
C567 C569 1.353 . S
C567 H608 0.929 . S
C568 C566 1.356 . S
C568 C570 1.358 . S
C568 H609 0.930 . S
C569 C567 1.353 . S
C569 N571 1.314 . S
C569 H610 0.930 . S
C570 C568 1.358 . S
C570 N571 1.279 . S
C570 H611 0.930 . S
N571 C569 1.314 . S
N571 C570 1.279 . S
C572 C574 1.353 . S
C572 N575 1.314 . S
C572 H578 0.930 . S
C573 N575 1.279 . S
C573 C576 1.358 . S
C573 H579 0.930 . S
C574 C572 1.353 . S
C574 C577 1.348 . S
C574 H612 0.929 . S
N575 Li530 1.990 . S
N575 C572 1.314 . S
N575 C573 1.279 . S
C576 C573 1.358 . S
C576 C577 1.356 . S
C576 H613 0.930 . S
C577 C574 1.348 . S
C577 C576 1.356 . S
H578 C572 0.930 . S
H579 C573 0.930 . S
C580 N581 1.314 1_554 S
C580 C582 1.353 . S
C580 H586 0.930 . S
N581 Li531 1.991 . S
N581 C580 1.314 1_556 S
N581 C584 1.279 . S
C582 C580 1.353 . S
C582 C585 1.345 . S
C582 H614 0.929 . S
C583 C584 1.358 . S
C583 C585 1.359 1_556 S
C583 H615 0.930 . S
C584 N581 1.279 . S
C584 C583 1.358 . S
C584 H587 0.930 . S
C585 C582 1.345 . S
C585 C583 1.359 1_554 S
H586 C580 0.930 . S
H587 C584 0.930 . S
O588 Li528 1.956 1_556 S
O588 Li529 1.970 1_556 S
O588 Li530 1.961 . S
O588 C532 1.325 . S
O589 Li528 1.970 . S
O589 Li529 1.956 . S
O589 Li531 1.938 1_554 S
O589 C538 1.325 . S
O590 Li528 1.961 . S
O590 Li530 1.956 1_554 S
O590 Li531 1.969 1_554 S
O590 C560 1.325 . S
O591 Li529 1.961 1_556 S
O591 Li530 1.970 . S
O591 Li531 1.978 . S
O591 C566 1.325 . S
H592 C534 0.929 . S
H593 C535 0.930 . S
H594 C536 0.930 . S
H595 C537 0.930 . S
H596 C539 0.930 . S
H597 C541 0.929 . S
H598 C542 0.930 . S
H599 C543 0.930 . S
H600 C546 0.930 . S
H601 C549 0.929 . S
H602 C554 0.929 . S
H603 C555 0.930 . S
H604 C562 0.929 . S
H605 C563 0.930 . S
H606 C564 0.930 . S
H607 C565 0.930 . S
H608 C567 0.929 . S
H609 C568 0.930 . S
H610 C569 0.930 . S
H611 C570 0.930 . S
H612 C574 0.929 . S
H613 C576 0.930 . S
H614 C582 0.929 . S
H615 C583 0.930 . S
Li616 N633 1.990 . S
Li616 O676 1.956 1_554 S
Li616 O677 1.970 . S
Li616 O678 1.961 . S
Li617 N641 1.990 . S
Li617 O676 1.970 1_554 S
Li617 O677 1.956 . S
Li617 O679 1.961 1_554 S
Li618 N663 1.990 . S
Li618 O676 1.961 . S
Li618 O678 1.956 1_556 S
Li618 O679 1.970 . S
Li619 N669 1.991 . S
Li619 O677 1.938 1_556 S
Li619 O678 1.969 1_556 S
Li619 O679 1.978 . S
C620 C622 1.348 1_556 S
C620 C623 1.356 . S
C620 O676 1.325 . S
N621 C624 1.314 . S
N621 C625 1.279 1_554 S
C622 C620 1.348 1_554 S
C622 C624 1.353 . S
C622 H680 0.929 . S
C623 C620 1.356 . S
C623 C625 1.358 . S
C623 H681 0.930 . S
C624 N621 1.314 . S
C624 C622 1.353 . S
C624 H682 0.930 . S
C625 N621 1.279 1_556 S
C625 C623 1.358 . S
C625 H683 0.930 . S
C626 C629 1.348 . S
C626 C630 1.356 . S
C626 O677 1.325 . S
C627 N628 1.279 . S
C627 C630 1.358 . S
C627 H684 0.930 . S
N628 C627 1.279 . S
N628 C631 1.314 . S
C629 C626 1.348 . S
C629 C631 1.353 . S
C629 H685 0.929 . S
C630 C626 1.356 . S
C630 C627 1.358 . S
C630 H686 0.930 . S
C631 N628 1.314 . S
C631 C629 1.353 . S
C631 H687 0.930 . S
C632 N633 1.314 . S
C632 C637 1.353 . S
C632 H638 0.930 . S
N633 Li616 1.990 . S
N633 C632 1.314 . S
N633 C635 1.279 . S
C634 C635 1.358 . S
C634 C636 1.356 . S
C634 H688 0.930 . S
C635 N633 1.279 . S
C635 C634 1.358 . S
C635 H639 0.930 . S
C636 C634 1.356 . S
C636 C637 1.348 . S
C637 C632 1.353 . S
C637 C636 1.348 . S
C637 H689 0.929 . S
H638 C632 0.930 . S
H639 C635 0.930 . S
C640 N641 1.314 1_556 S
C640 C642 1.353 . S
C640 H646 0.930 . S
N641 Li617 1.990 . S
N641 C640 1.314 1_554 S
N641 C644 1.279 . S
C642 C640 1.353 . S
C642 C645 1.345 1_556 S
C642 H690 0.929 . S
C643 C644 1.358 . S
C643 C645 1.359 . S
C643 H691 0.930 . S
C644 N641 1.279 . S
C644 C643 1.358 . S
C644 H647 0.930 . S
C645 C642 1.345 1_554 S
C645 C643 1.359 . S
H646 C640 0.930 . S
H647 C644 0.930 . S
C648 C650 1.346 1_554 S
C648 C651 1.357 . S
C648 O678 1.325 . S
N649 C652 1.314 . S
N649 C653 1.279 1_556 S
C650 C648 1.346 1_556 S
C650 C652 1.353 . S
C650 H692 0.929 . S
C651 C648 1.357 . S
C651 C653 1.358 . S
C651 H693 0.930 . S
C652 N649 1.314 . S
C652 C650 1.353 . S
C652 H694 0.930 . S
C653 N649 1.279 1_554 S
C653 C651 1.358 . S
C653 H695 0.930 . S
C654 C655 1.348 . S
C654 C656 1.356 . S
C654 O679 1.325 . S
C655 C654 1.348 . S
C655 C657 1.353 . S
C655 H696 0.929 . S
C656 C654 1.356 . S
C656 C658 1.358 . S
C656 H697 0.930 . S
C657 C655 1.353 . S
C657 N659 1.314 . S
C657 H698 0.930 . S
C658 C656 1.358 . S
C658 N659 1.279 . S
C658 H699 0.930 . S
N659 C657 1.314 . S
N659 C658 1.279 . S
C660 C662 1.353 . S
C660 N663 1.314 . S
C660 H666 0.930 . S
C661 N663 1.279 . S
C661 C664 1.358 . S
C661 H667 0.930 . S
C662 C660 1.353 . S
C662 C665 1.348 . S
C662 H700 0.929 . S
N663 Li618 1.990 . S
N663 C660 1.314 . S
N663 C661 1.279 . S
C664 C661 1.358 . S
C664 C665 1.356 . S
C664 H701 0.930 . S
C665 C662 1.348 . S
C665 C664 1.356 . S
H666 C660 0.930 . S
H667 C661 0.930 . S
C668 N669 1.314 1_554 S
C668 C670 1.353 . S
C668 H674 0.930 . S
N669 Li619 1.991 . S
N669 C668 1.314 1_556 S
N669 C672 1.279 . S
C670 C668 1.353 . S
C670 C673 1.345 . S
C670 H702 0.929 . S
C671 C672 1.358 . S
C671 C673 1.359 1_556 S
C671 H703 0.930 . S
C672 N669 1.279 . S
C672 C671 1.358 . S
C672 H675 0.930 . S
C673 C670 1.345 . S
C673 C671 1.359 1_554 S
H674 C668 0.930 . S
H675 C672 0.930 . S
O676 Li616 1.956 1_556 S
O676 Li617 1.970 1_556 S
O676 Li618 1.961 . S
O676 C620 1.325 . S
O677 Li616 1.970 . S
O677 Li617 1.956 . S
O677 Li619 1.938 1_554 S
O677 C626 1.325 . S
O678 Li616 1.961 . S
O678 Li618 1.956 1_554 S
O678 Li619 1.969 1_554 S
O678 C648 1.325 . S
O679 Li617 1.961 1_556 S
O679 Li618 1.970 . S
O679 Li619 1.978 . S
O679 C654 1.325 . S
H680 C622 0.929 . S
H681 C623 0.930 . S
H682 C624 0.930 . S
H683 C625 0.930 . S
H684 C627 0.930 . S
H685 C629 0.929 . S
H686 C630 0.930 . S
H687 C631 0.930 . S
H688 C634 0.930 . S
H689 C637 0.929 . S
H690 C642 0.929 . S
H691 C643 0.930 . S
H692 C650 0.929 . S
H693 C651 0.930 . S
H694 C652 0.930 . S
H695 C653 0.930 . S
H696 C655 0.929 . S
H697 C656 0.930 . S
H698 C657 0.930 . S
H699 C658 0.930 . S
H700 C662 0.929 . S
H701 C664 0.930 . S
H702 C670 0.929 . S
H703 C671 0.930 . S
Li704 N721 1.990 . S
Li704 O764 1.956 . S
Li704 O765 1.970 . S
Li704 O766 1.961 . S
Li705 N729 1.990 . S
Li705 O764 1.970 . S
Li705 O765 1.956 . S
Li705 O767 1.961 . S
Li706 N751 1.990 . S
Li706 O764 1.961 . S
Li706 O766 1.956 . S
Li706 O767 1.970 . S
Li707 N757 1.990 . S
Li707 O765 1.961 . S
Li707 O766 1.970 . S
Li707 O767 1.956 . S
C708 C710 1.348 . S
C708 C711 1.356 . S
C708 O764 1.325 . S
N709 C712 1.314 . S
N709 C713 1.279 . S
C710 C708 1.348 . S
C710 C712 1.353 . S
C710 H768 0.929 . S
C711 C708 1.356 . S
C711 C713 1.358 . S
C711 H769 0.930 . S
C712 N709 1.314 . S
C712 C710 1.353 . S
C712 H770 0.930 . S
C713 N709 1.279 . S
C713 C711 1.358 . S
C713 H771 0.930 . S
C714 C717 1.348 . S
C714 C718 1.356 . S
C714 O765 1.325 . S
C715 N716 1.279 . S
C715 C718 1.358 . S
C715 H772 0.930 . S
N716 C715 1.279 . S
N716 C719 1.314 . S
C717 C714 1.348 . S
C717 C719 1.353 . S
C717 H773 0.929 . S
C718 C714 1.356 . S
C718 C715 1.358 . S
C718 H774 0.930 . S
C719 N716 1.314 . S
C719 C717 1.353 . S
C719 H775 0.930 . S
C720 N721 1.314 . S
C720 C725 1.353 . S
C720 H726 0.930 . S
N721 Li704 1.990 . S
N721 C720 1.314 . S
N721 C723 1.279 . S
C722 C723 1.358 . S
C722 C724 1.356 . S
C722 H776 0.930 . S
C723 N721 1.279 . S
C723 C722 1.358 . S
C723 H727 0.930 . S
C724 C722 1.356 . S
C724 C725 1.348 . S
C725 C720 1.353 . S
C725 C724 1.348 . S
C725 H777 0.929 . S
H726 C720 0.930 . S
H727 C723 0.930 . S
C728 N729 1.314 . S
C728 C730 1.353 . S
C728 H734 0.930 . S
N729 Li705 1.990 . S
N729 C728 1.314 . S
N729 C732 1.279 . S
C730 C728 1.353 . S
C730 C733 1.348 . S
C730 H778 0.929 . S
C731 C732 1.358 . S
C731 C733 1.356 . S
C731 H779 0.930 . S
C732 N729 1.279 . S
C732 C731 1.358 . S
C732 H735 0.930 . S
C733 C730 1.348 . S
C733 C731 1.356 . S
H734 C728 0.930 . S
H735 C732 0.930 . S
C736 C738 1.348 . S
C736 C739 1.356 . S
C736 O766 1.325 . S
N737 C740 1.314 . S
N737 C741 1.279 . S
C738 C736 1.348 . S
C738 C740 1.353 . S
C738 H780 0.929 . S
C739 C736 1.356 . S
C739 C741 1.358 . S
C739 H781 0.930 . S
C740 N737 1.314 . S
C740 C738 1.353 . S
C740 H782 0.930 . S
C741 N737 1.279 . S
C741 C739 1.358 . S
C741 H783 0.930 . S
C742 C743 1.348 . S
C742 C744 1.356 . S
C742 O767 1.325 . S
C743 C742 1.348 . S
C743 C745 1.353 . S
C743 H784 0.929 . S
C744 C742 1.356 . S
C744 C746 1.358 . S
C744 H785 0.930 . S
C745 C743 1.353 . S
C745 N747 1.314 . S
C745 H786 0.930 . S
C746 C744 1.358 . S
C746 N747 1.279 . S
C746 H787 0.930 . S
N747 C745 1.314 . S
N747 C746 1.279 . S
C748 C750 1.353 . S
C748 N751 1.314 . S
C748 H754 0.930 . S
C749 N751 1.279 . S
C749 C752 1.358 . S
C749 H755 0.930 . S
C750 C748 1.353 . S
C750 C753 1.348 . S
C750 H788 0.929 . S
N751 Li706 1.990 . S
N751 C748 1.314 . S
N751 C749 1.279 . S
C752 C749 1.358 . S
C752 C753 1.356 . S
C752 H789 0.930 . S
C753 C750 1.348 . S
C753 C752 1.356 . S
H754 C748 0.930 . S
H755 C749 0.930 . S
C756 N757 1.314 . S
C756 C758 1.353 . S
C756 H762 0.930 . S
N757 Li707 1.990 . S
N757 C756 1.314 . S
N757 C760 1.279 . S
C758 C756 1.353 . S
C758 C761 1.348 . S
C758 H790 0.929 . S
C759 C760 1.358 . S
C759 C761 1.356 . S
C759 H791 0.930 . S
C760 N757 1.279 . S
C760 C759 1.358 . S
C760 H763 0.930 . S
C761 C758 1.348 . S
C761 C759 1.356 . S
H762 C756 0.930 . S
H763 C760 0.930 . S
O764 Li704 1.956 . S
O764 Li705 1.970 . S
O764 Li706 1.961 . S
O764 C708 1.325 . S
O765 Li704 1.970 . S
O765 Li705 1.956 . S
O765 Li707 1.961 . S
O765 C714 1.325 . S
O766 Li704 1.961 . S
O766 Li706 1.956 . S
O766 Li707 1.970 . S
O766 C736 1.325 . S
O767 Li705 1.961 . S
O767 Li706 1.970 . S
O767 Li707 1.956 . S
O767 C742 1.325 . S
H768 C710 0.929 . S
H769 C711 0.930 . S
H770 C712 0.930 . S
H771 C713 0.930 . S
H772 C715 0.930 . S
H773 C717 0.929 . S
H774 C718 0.930 . S
H775 C719 0.930 . S
H776 C722 0.930 . S
H777 C725 0.929 . S
H778 C730 0.929 . S
H779 C731 0.930 . S
H780 C738 0.929 . S
H781 C739 0.930 . S
H782 C740 0.930 . S
H783 C741 0.930 . S
H784 C743 0.929 . S
H785 C744 0.930 . S
H786 C745 0.930 . S
H787 C746 0.930 . S
H788 C750 0.929 . S
H789 C752 0.930 . S
H790 C758 0.929 . S
H791 C759 0.930 . S
Li792 N809 1.990 . S
Li792 O852 1.956 . S
Li792 O853 1.970 . S
Li792 O854 1.961 . S
Li793 N817 1.990 . S
Li793 O852 1.970 . S
Li793 O853 1.956 . S
Li793 O855 1.961 . S
Li794 N839 1.990 . S
Li794 O852 1.961 . S
Li794 O854 1.956 . S
Li794 O855 1.970 . S
Li795 N845 1.990 . S
Li795 O853 1.961 . S
Li795 O854 1.970 . S
Li795 O855 1.956 . S
C796 C798 1.348 . S
C796 C799 1.356 . S
C796 O852 1.325 . S
N797 C800 1.314 . S
N797 C801 1.279 . S
C798 C796 1.348 . S
C798 C800 1.353 . S
C798 H856 0.929 . S
C799 C796 1.356 . S
C799 C801 1.358 . S
C799 H857 0.930 . S
C800 N797 1.314 . S
C800 C798 1.353 . S
C800 H858 0.930 . S
C801 N797 1.279 . S
C801 C799 1.358 . S
C801 H859 0.930 . S
C802 C805 1.348 . S
C802 C806 1.356 . S
C802 O853 1.325 . S
C803 N804 1.279 . S
C803 C806 1.358 . S
C803 H860 0.930 . S
N804 C803 1.279 . S
N804 C807 1.314 . S
C805 C802 1.348 . S
C805 C807 1.353 . S
C805 H861 0.929 . S
C806 C802 1.356 . S
C806 C803 1.358 . S
C806 H862 0.930 . S
C807 N804 1.314 . S
C807 C805 1.353 . S
C807 H863 0.930 . S
C808 N809 1.314 . S
C808 C813 1.353 . S
C808 H814 0.930 . S
N809 Li792 1.990 . S
N809 C808 1.314 . S
N809 C811 1.279 . S
C810 C811 1.358 . S
C810 C812 1.356 . S
C810 H864 0.930 . S
C811 N809 1.279 . S
C811 C810 1.358 . S
C811 H815 0.930 . S
C812 C810 1.356 . S
C812 C813 1.348 . S
C813 C808 1.353 . S
C813 C812 1.348 . S
C813 H865 0.929 . S
H814 C808 0.930 . S
H815 C811 0.930 . S
C816 N817 1.314 . S
C816 C818 1.353 . S
C816 H822 0.930 . S
N817 Li793 1.990 . S
N817 C816 1.314 . S
N817 C820 1.279 . S
C818 C816 1.353 . S
C818 C821 1.348 . S
C818 H866 0.929 . S
C819 C820 1.358 . S
C819 C821 1.356 . S
C819 H867 0.930 . S
C820 N817 1.279 . S
C820 C819 1.358 . S
C820 H823 0.930 . S
C821 C818 1.348 . S
C821 C819 1.356 . S
H822 C816 0.930 . S
H823 C820 0.930 . S
C824 C826 1.348 . S
C824 C827 1.356 . S
C824 O854 1.325 . S
N825 C828 1.314 . S
N825 C829 1.279 . S
C826 C824 1.348 . S
C826 C828 1.353 . S
C826 H868 0.929 . S
C827 C824 1.356 . S
C827 C829 1.358 . S
C827 H869 0.930 . S
C828 N825 1.314 . S
C828 C826 1.353 . S
C828 H870 0.930 . S
C829 N825 1.279 . S
C829 C827 1.358 . S
C829 H871 0.930 . S
C830 C831 1.348 . S
C830 C832 1.356 . S
C830 O855 1.325 . S
C831 C830 1.348 . S
C831 C833 1.353 . S
C831 H872 0.929 . S
C832 C830 1.356 . S
C832 C834 1.358 . S
C832 H873 0.930 . S
C833 C831 1.353 . S
C833 N835 1.314 . S
C833 H874 0.930 . S
C834 C832 1.358 . S
C834 N835 1.279 . S
C834 H875 0.930 . S
N835 C833 1.314 . S
N835 C834 1.279 . S
C836 C838 1.353 . S
C836 N839 1.314 . S
C836 H842 0.930 . S
C837 N839 1.279 . S
C837 C840 1.358 . S
C837 H843 0.930 . S
C838 C836 1.353 . S
C838 C841 1.348 . S
C838 H876 0.929 . S
N839 Li794 1.990 . S
N839 C836 1.314 . S
N839 C837 1.279 . S
C840 C837 1.358 . S
C840 C841 1.356 . S
C840 H877 0.930 . S
C841 C838 1.348 . S
C841 C840 1.356 . S
H842 C836 0.930 . S
H843 C837 0.930 . S
C844 N845 1.314 . S
C844 C846 1.353 . S
C844 H850 0.930 . S
N845 Li795 1.990 . S
N845 C844 1.314 . S
N845 C848 1.279 . S
C846 C844 1.353 . S
C846 C849 1.348 . S
C846 H878 0.929 . S
C847 C848 1.358 . S
C847 C849 1.356 . S
C847 H879 0.930 . S
C848 N845 1.279 . S
C848 C847 1.358 . S
C848 H851 0.930 . S
C849 C846 1.348 . S
C849 C847 1.356 . S
H850 C844 0.930 . S
H851 C848 0.930 . S
O852 Li792 1.956 . S
O852 Li793 1.970 . S
O852 Li794 1.961 . S
O852 C796 1.325 . S
O853 Li792 1.970 . S
O853 Li793 1.956 . S
O853 Li795 1.961 . S
O853 C802 1.325 . S
O854 Li792 1.961 . S
O854 Li794 1.956 . S
O854 Li795 1.970 . S
O854 C824 1.325 . S
O855 Li793 1.961 . S
O855 Li794 1.970 . S
O855 Li795 1.956 . S
O855 C830 1.325 . S
H856 C798 0.929 . S
H857 C799 0.930 . S
H858 C800 0.930 . S
H859 C801 0.930 . S
H860 C803 0.930 . S
H861 C805 0.929 . S
H862 C806 0.930 . S
H863 C807 0.930 . S
H864 C810 0.930 . S
H865 C813 0.929 . S
H866 C818 0.929 . S
H867 C819 0.930 . S
H868 C826 0.929 . S
H869 C827 0.930 . S
H870 C828 0.930 . S
H871 C829 0.930 . S
H872 C831 0.929 . S
H873 C832 0.930 . S
H874 C833 0.930 . S
H875 C834 0.930 . S
H876 C838 0.929 . S
H877 C840 0.930 . S
H878 C846 0.929 . S
H879 C847 0.930 . S
Li880 N897 1.990 . S
Li880 O940 1.956 . S
Li880 O941 1.970 . S
Li880 O942 1.961 . S
Li881 N905 1.990 . S
Li881 O940 1.970 . S
Li881 O941 1.956 . S
Li881 O943 1.961 . S
Li882 N927 1.990 . S
Li882 O940 1.961 . S
Li882 O942 1.956 . S
Li882 O943 1.970 . S
Li883 N933 1.990 . S
Li883 O941 1.961 . S
Li883 O942 1.970 . S
Li883 O943 1.956 . S
C884 C886 1.348 . S
C884 C887 1.356 . S
C884 O940 1.325 . S
N885 C888 1.314 . S
N885 C889 1.279 . S
C886 C884 1.348 . S
C886 C888 1.353 . S
C886 H944 0.929 . S
C887 C884 1.356 . S
C887 C889 1.358 . S
C887 H945 0.930 . S
C888 N885 1.314 . S
C888 C886 1.353 . S
C888 H946 0.930 . S
C889 N885 1.279 . S
C889 C887 1.358 . S
C889 H947 0.930 . S
C890 C893 1.348 . S
C890 C894 1.356 . S
C890 O941 1.325 . S
C891 N892 1.279 . S
C891 C894 1.358 . S
C891 H948 0.930 . S
N892 C891 1.279 . S
N892 C895 1.314 . S
C893 C890 1.348 . S
C893 C895 1.353 . S
C893 H949 0.929 . S
C894 C890 1.356 . S
C894 C891 1.358 . S
C894 H950 0.930 . S
C895 N892 1.314 . S
C895 C893 1.353 . S
C895 H951 0.930 . S
C896 N897 1.314 . S
C896 C901 1.353 . S
C896 H902 0.930 . S
N897 Li880 1.990 . S
N897 C896 1.314 . S
N897 C899 1.279 . S
C898 C899 1.358 . S
C898 C900 1.356 . S
C898 H952 0.930 . S
C899 N897 1.279 . S
C899 C898 1.358 . S
C899 H903 0.930 . S
C900 C898 1.356 . S
C900 C901 1.348 . S
C901 C896 1.353 . S
C901 C900 1.348 . S
C901 H953 0.929 . S
H902 C896 0.930 . S
H903 C899 0.930 . S
C904 N905 1.314 . S
C904 C906 1.353 . S
C904 H910 0.930 . S
N905 Li881 1.990 . S
N905 C904 1.314 . S
N905 C908 1.279 . S
C906 C904 1.353 . S
C906 C909 1.348 . S
C906 H954 0.929 . S
C907 C908 1.358 . S
C907 C909 1.356 . S
C907 H955 0.930 . S
C908 N905 1.279 . S
C908 C907 1.358 . S
C908 H911 0.930 . S
C909 C906 1.348 . S
C909 C907 1.356 . S
H910 C904 0.930 . S
H911 C908 0.930 . S
C912 C914 1.348 . S
C912 C915 1.356 . S
C912 O942 1.325 . S
N913 C916 1.314 . S
N913 C917 1.279 . S
C914 C912 1.348 . S
C914 C916 1.353 . S
C914 H956 0.929 . S
C915 C912 1.356 . S
C915 C917 1.358 . S
C915 H957 0.930 . S
C916 N913 1.314 . S
C916 C914 1.353 . S
C916 H958 0.930 . S
C917 N913 1.279 . S
C917 C915 1.358 . S
C917 H959 0.930 . S
C918 C919 1.348 . S
C918 C920 1.356 . S
C918 O943 1.325 . S
C919 C918 1.348 . S
C919 C921 1.353 . S
C919 H960 0.929 . S
C920 C918 1.356 . S
C920 C922 1.358 . S
C920 H961 0.930 . S
C921 C919 1.353 . S
C921 N923 1.314 . S
C921 H962 0.930 . S
C922 C920 1.358 . S
C922 N923 1.279 . S
C922 H963 0.930 . S
N923 C921 1.314 . S
N923 C922 1.279 . S
C924 C926 1.353 . S
C924 N927 1.314 . S
C924 H930 0.930 . S
C925 N927 1.279 . S
C925 C928 1.358 . S
C925 H931 0.930 . S
C926 C924 1.353 . S
C926 C929 1.348 . S
C926 H964 0.929 . S
N927 Li882 1.990 . S
N927 C924 1.314 . S
N927 C925 1.279 . S
C928 C925 1.358 . S
C928 C929 1.356 . S
C928 H965 0.930 . S
C929 C926 1.348 . S
C929 C928 1.356 . S
H930 C924 0.930 . S
H931 C925 0.930 . S
C932 N933 1.314 . S
C932 C934 1.353 . S
C932 H938 0.930 . S
N933 Li883 1.990 . S
N933 C932 1.314 . S
N933 C936 1.279 . S
C934 C932 1.353 . S
C934 C937 1.348 . S
C934 H966 0.929 . S
C935 C936 1.358 . S
C935 C937 1.356 . S
C935 H967 0.930 . S
C936 N933 1.279 . S
C936 C935 1.358 . S
C936 H939 0.930 . S
C937 C934 1.348 . S
C937 C935 1.356 . S
H938 C932 0.930 . S
H939 C936 0.930 . S
O940 Li880 1.956 . S
O940 Li881 1.970 . S
O940 Li882 1.961 . S
O940 C884 1.325 . S
O941 Li880 1.970 . S
O941 Li881 1.956 . S
O941 Li883 1.961 . S
O941 C890 1.325 . S
O942 Li880 1.961 . S
O942 Li882 1.956 . S
O942 Li883 1.970 . S
O942 C912 1.325 . S
O943 Li881 1.961 . S
O943 Li882 1.970 . S
O943 Li883 1.956 . S
O943 C918 1.325 . S
H944 C886 0.929 . S
H945 C887 0.930 . S
H946 C888 0.930 . S
H947 C889 0.930 . S
H948 C891 0.930 . S
H949 C893 0.929 . S
H950 C894 0.930 . S
H951 C895 0.930 . S
H952 C898 0.930 . S
H953 C901 0.929 . S
H954 C906 0.929 . S
H955 C907 0.930 . S
H956 C914 0.929 . S
H957 C915 0.930 . S
H958 C916 0.930 . S
H959 C917 0.930 . S
H960 C919 0.929 . S
H961 C920 0.930 . S
H962 C921 0.930 . S
H963 C922 0.930 . S
H964 C926 0.929 . S
H965 C928 0.930 . S
H966 C934 0.929 . S
H967 C935 0.930 . S
Li968 N985 1.990 . S
Li968 O1028 1.956 . S
Li968 O1029 1.970 . S
Li968 O1030 1.961 . S
Li969 N993 1.990 . S
Li969 O1028 1.970 . S
Li969 O1029 1.956 . S
Li969 O1031 1.961 . S
Li970 N1015 1.990 . S
Li970 O1028 1.961 . S
Li970 O1030 1.956 . S
Li970 O1031 1.970 . S
Li971 N1021 1.990 . S
Li971 O1029 1.961 . S
Li971 O1030 1.970 . S
Li971 O1031 1.956 . S
C972 C974 1.348 . S
C972 C975 1.356 . S
C972 O1028 1.325 . S
N973 C976 1.314 . S
N973 C977 1.279 . S
C974 C972 1.348 . S
C974 C976 1.353 . S
C974 H1032 0.929 . S
C975 C972 1.356 . S
C975 C977 1.358 . S
C975 H1033 0.930 . S
C976 N973 1.314 . S
C976 C974 1.353 . S
C976 H1034 0.930 . S
C977 N973 1.279 . S
C977 C975 1.358 . S
C977 H1035 0.930 . S
C978 C981 1.348 . S
C978 C982 1.356 . S
C978 O1029 1.325 . S
C979 N980 1.279 . S
C979 C982 1.358 . S
C979 H1036 0.930 . S
N980 C979 1.279 . S
N980 C983 1.314 . S
C981 C978 1.348 . S
C981 C983 1.353 . S
C981 H1037 0.929 . S
C982 C978 1.356 . S
C982 C979 1.358 . S
C982 H1038 0.930 . S
C983 N980 1.314 . S
C983 C981 1.353 . S
C983 H1039 0.930 . S
C984 N985 1.314 . S
C984 C989 1.353 . S
C984 H990 0.930 . S
N985 Li968 1.990 . S
N985 C984 1.314 . S
N985 C987 1.279 . S
C986 C987 1.358 . S
C986 C988 1.356 . S
C986 H1040 0.930 . S
C987 N985 1.279 . S
C987 C986 1.358 . S
C987 H991 0.930 . S
C988 C986 1.356 . S
C988 C989 1.348 . S
C989 C984 1.353 . S
C989 C988 1.348 . S
C989 H1041 0.929 . S
H990 C984 0.930 . S
H991 C987 0.930 . S
C992 N993 1.314 . S
C992 C994 1.353 . S
C992 H998 0.930 . S
N993 Li969 1.990 . S
N993 C992 1.314 . S
N993 C996 1.279 . S
C994 C992 1.353 . S
C994 C997 1.348 . S
C994 H1042 0.929 . S
C995 C996 1.358 . S
C995 C997 1.356 . S
C995 H1043 0.930 . S
C996 N993 1.279 . S
C996 C995 1.358 . S
C996 H999 0.930 . S
C997 C994 1.348 . S
C997 C995 1.356 . S
H998 C992 0.930 . S
H999 C996 0.930 . S
C1000 C1002 1.348 . S
C1000 C1003 1.356 . S
C1000 O1030 1.325 . S
N1001 C1004 1.314 . S
N1001 C1005 1.279 . S
C1002 C1000 1.348 . S
C1002 C1004 1.353 . S
C1002 H1044 0.929 . S
C1003 C1000 1.356 . S
C1003 C1005 1.358 . S
C1003 H1045 0.930 . S
C1004 N1001 1.314 . S
C1004 C1002 1.353 . S
C1004 H1046 0.930 . S
C1005 N1001 1.279 . S
C1005 C1003 1.358 . S
C1005 H1047 0.930 . S
C1006 C1007 1.348 . S
C1006 C1008 1.356 . S
C1006 O1031 1.325 . S
C1007 C1006 1.348 . S
C1007 C1009 1.353 . S
C1007 H1048 0.929 . S
C1008 C1006 1.356 . S
C1008 C1010 1.358 . S
C1008 H1049 0.930 . S
C1009 C1007 1.353 . S
C1009 N1011 1.314 . S
C1009 H1050 0.930 . S
C1010 C1008 1.358 . S
C1010 N1011 1.279 . S
C1010 H1051 0.930 . S
N1011 C1009 1.314 . S
N1011 C1010 1.279 . S
C1012 C1014 1.353 . S
C1012 N1015 1.314 . S
C1012 H1018 0.930 . S
C1013 N1015 1.279 . S
C1013 C1016 1.358 . S
C1013 H1019 0.930 . S
C1014 C1012 1.353 . S
C1014 C1017 1.348 . S
C1014 H1052 0.929 . S
N1015 Li970 1.990 . S
N1015 C1012 1.314 . S
N1015 C1013 1.279 . S
C1016 C1013 1.358 . S
C1016 C1017 1.356 . S
C1016 H1053 0.930 . S
C1017 C1014 1.348 . S
C1017 C1016 1.356 . S
H1018 C1012 0.930 . S
H1019 C1013 0.930 . S
C1020 N1021 1.314 . S
C1020 C1022 1.353 . S
C1020 H1026 0.930 . S
N1021 Li971 1.990 . S
N1021 C1020 1.314 . S
N1021 C1024 1.279 . S
C1022 C1020 1.353 . S
C1022 C1025 1.348 . S
C1022 H1054 0.929 . S
C1023 C1024 1.358 . S
C1023 C1025 1.356 . S
C1023 H1055 0.930 . S
C1024 N1021 1.279 . S
C1024 C1023 1.358 . S
C1024 H1027 0.930 . S
C1025 C1022 1.348 . S
C1025 C1023 1.356 . S
H1026 C1020 0.930 . S
H1027 C1024 0.930 . S
O1028 Li968 1.956 . S
O1028 Li969 1.970 . S
O1028 Li970 1.961 . S
O1028 C972 1.325 . S
O1029 Li968 1.970 . S
O1029 Li969 1.956 . S
O1029 Li971 1.961 . S
O1029 C978 1.325 . S
O1030 Li968 1.961 . S
O1030 Li970 1.956 . S
O1030 Li971 1.970 . S
O1030 C1000 1.325 . S
O1031 Li969 1.961 . S
O1031 Li970 1.970 . S
O1031 Li971 1.956 . S
O1031 C1006 1.325 . S
H1032 C974 0.929 . S
H1033 C975 0.930 . S
H1034 C976 0.930 . S
H1035 C977 0.930 . S
H1036 C979 0.930 . S
H1037 C981 0.929 . S
H1038 C982 0.930 . S
H1039 C983 0.930 . S
H1040 C986 0.930 . S
H1041 C989 0.929 . S
H1042 C994 0.929 . S
H1043 C995 0.930 . S
H1044 C1002 0.929 . S
H1045 C1003 0.930 . S
H1046 C1004 0.930 . S
H1047 C1005 0.930 . S
H1048 C1007 0.929 . S
H1049 C1008 0.930 . S
H1050 C1009 0.930 . S
H1051 C1010 0.930 . S
H1052 C1014 0.929 . S
H1053 C1016 0.930 . S
H1054 C1022 0.929 . S
H1055 C1023 0.930 . S
Li1056 N1073 1.990 . S
Li1056 O1116 1.956 . S
Li1056 O1117 1.970 . S
Li1056 O1118 1.961 . S
Li1057 N1081 1.990 . S
Li1057 O1116 1.970 . S
Li1057 O1117 1.956 . S
Li1057 O1119 1.961 . S
Li1058 N1103 1.990 . S
Li1058 O1116 1.961 . S
Li1058 O1118 1.956 . S
Li1058 O1119 1.970 . S
Li1059 N1109 1.990 . S
Li1059 O1117 1.961 . S
Li1059 O1118 1.970 . S
Li1059 O1119 1.956 . S
C1060 C1062 1.348 . S
C1060 C1063 1.356 . S
C1060 O1116 1.325 . S
N1061 C1064 1.314 . S
N1061 C1065 1.279 . S
C1062 C1060 1.348 . S
C1062 C1064 1.353 . S
C1062 H1120 0.929 . S
C1063 C1060 1.356 . S
C1063 C1065 1.358 . S
C1063 H1121 0.930 . S
C1064 N1061 1.314 . S
C1064 C1062 1.353 . S
C1064 H1122 0.930 . S
C1065 N1061 1.279 . S
C1065 C1063 1.358 . S
C1065 H1123 0.930 . S
C1066 C1069 1.348 . S
C1066 C1070 1.356 . S
C1066 O1117 1.325 . S
C1067 N1068 1.279 . S
C1067 C1070 1.358 . S
C1067 H1124 0.930 . S
N1068 C1067 1.279 . S
N1068 C1071 1.314 . S
C1069 C1066 1.348 . S
C1069 C1071 1.353 . S
C1069 H1125 0.929 . S
C1070 C1066 1.356 . S
C1070 C1067 1.358 . S
C1070 H1126 0.930 . S
C1071 N1068 1.314 . S
C1071 C1069 1.353 . S
C1071 H1127 0.930 . S
C1072 N1073 1.314 . S
C1072 C1077 1.353 . S
C1072 H1078 0.930 . S
N1073 Li1056 1.990 . S
N1073 C1072 1.314 . S
N1073 C1075 1.279 . S
C1074 C1075 1.358 . S
C1074 C1076 1.356 . S
C1074 H1128 0.930 . S
C1075 N1073 1.279 . S
C1075 C1074 1.358 . S
C1075 H1079 0.930 . S
C1076 C1074 1.356 . S
C1076 C1077 1.348 . S
C1077 C1072 1.353 . S
C1077 C1076 1.348 . S
C1077 H1129 0.929 . S
H1078 C1072 0.930 . S
H1079 C1075 0.930 . S
C1080 N1081 1.314 . S
C1080 C1082 1.353 . S
C1080 H1086 0.930 . S
N1081 Li1057 1.990 . S
N1081 C1080 1.314 . S
N1081 C1084 1.279 . S
C1082 C1080 1.353 . S
C1082 C1085 1.348 . S
C1082 H1130 0.929 . S
C1083 C1084 1.358 . S
C1083 C1085 1.356 . S
C1083 H1131 0.930 . S
C1084 N1081 1.279 . S
C1084 C1083 1.358 . S
C1084 H1087 0.930 . S
C1085 C1082 1.348 . S
C1085 C1083 1.356 . S
H1086 C1080 0.930 . S
H1087 C1084 0.930 . S
C1088 C1090 1.348 . S
C1088 C1091 1.356 . S
C1088 O1118 1.325 . S
N1089 C1092 1.314 . S
N1089 C1093 1.279 . S
C1090 C1088 1.348 . S
C1090 C1092 1.353 . S
C1090 H1132 0.929 . S
C1091 C1088 1.356 . S
C1091 C1093 1.358 . S
C1091 H1133 0.930 . S
C1092 N1089 1.314 . S
C1092 C1090 1.353 . S
C1092 H1134 0.930 . S
C1093 N1089 1.279 . S
C1093 C1091 1.358 . S
C1093 H1135 0.930 . S
C1094 C1095 1.348 . S
C1094 C1096 1.356 . S
C1094 O1119 1.325 . S
C1095 C1094 1.348 . S
C1095 C1097 1.353 . S
C1095 H1136 0.929 . S
C1096 C1094 1.356 . S
C1096 C1098 1.358 . S
C1096 H1137 0.930 . S
C1097 C1095 1.353 . S
C1097 N1099 1.314 . S
C1097 H1138 0.930 . S
C1098 C1096 1.358 . S
C1098 N1099 1.279 . S
C1098 H1139 0.930 . S
N1099 C1097 1.314 . S
N1099 C1098 1.279 . S
C1100 C1102 1.353 . S
C1100 N1103 1.314 . S
C1100 H1106 0.930 . S
C1101 N1103 1.279 . S
C1101 C1104 1.358 . S
C1101 H1107 0.930 . S
C1102 C1100 1.353 . S
C1102 C1105 1.348 . S
C1102 H1140 0.929 . S
N1103 Li1058 1.990 . S
N1103 C1100 1.314 . S
N1103 C1101 1.279 . S
C1104 C1101 1.358 . S
C1104 C1105 1.356 . S
C1104 H1141 0.930 . S
C1105 C1102 1.348 . S
C1105 C1104 1.356 . S
H1106 C1100 0.930 . S
H1107 C1101 0.930 . S
C1108 N1109 1.314 . S
C1108 C1110 1.353 . S
C1108 H1114 0.930 . S
N1109 Li1059 1.990 . S
N1109 C1108 1.314 . S
N1109 C1112 1.279 . S
C1110 C1108 1.353 . S
C1110 C1113 1.348 . S
C1110 H1142 0.929 . S
C1111 C1112 1.358 . S
C1111 C1113 1.356 . S
C1111 H1143 0.930 . S
C1112 N1109 1.279 . S
C1112 C1111 1.358 . S
C1112 H1115 0.930 . S
C1113 C1110 1.348 . S
C1113 C1111 1.356 . S
H1114 C1108 0.930 . S
H1115 C1112 0.930 . S
O1116 Li1056 1.956 . S
O1116 Li1057 1.970 . S
O1116 Li1058 1.961 . S
O1116 C1060 1.325 . S
O1117 Li1056 1.970 . S
O1117 Li1057 1.956 . S
O1117 Li1059 1.961 . S
O1117 C1066 1.325 . S
O1118 Li1056 1.961 . S
O1118 Li1058 1.956 . S
O1118 Li1059 1.970 . S
O1118 C1088 1.325 . S
O1119 Li1057 1.961 . S
O1119 Li1058 1.970 . S
O1119 Li1059 1.956 . S
O1119 C1094 1.325 . S
H1120 C1062 0.929 . S
H1121 C1063 0.930 . S
H1122 C1064 0.930 . S
H1123 C1065 0.930 . S
H1124 C1067 0.930 . S
H1125 C1069 0.929 . S
H1126 C1070 0.930 . S
H1127 C1071 0.930 . S
H1128 C1074 0.930 . S
H1129 C1077 0.929 . S
H1130 C1082 0.929 . S
H1131 C1083 0.930 . S
H1132 C1090 0.929 . S
H1133 C1091 0.930 . S
H1134 C1092 0.930 . S
H1135 C1093 0.930 . S
H1136 C1095 0.929 . S
H1137 C1096 0.930 . S
H1138 C1097 0.930 . S
H1139 C1098 0.930 . S
H1140 C1102 0.929 . S
H1141 C1104 0.930 . S
H1142 C1110 0.929 . S
H1143 C1111 0.930 . S
Li1144 N1161 1.990 . S
Li1144 O1204 1.956 . S
Li1144 O1205 1.970 . S
Li1144 O1206 1.961 . S
Li1145 N1169 1.990 . S
Li1145 O1204 1.970 . S
Li1145 O1205 1.956 . S
Li1145 O1207 1.961 . S
Li1146 N1191 1.990 . S
Li1146 O1204 1.961 . S
Li1146 O1206 1.956 . S
Li1146 O1207 1.970 . S
Li1147 N1197 1.990 . S
Li1147 O1205 1.961 . S
Li1147 O1206 1.970 . S
Li1147 O1207 1.956 . S
C1148 C1150 1.348 . S
C1148 C1151 1.356 . S
C1148 O1204 1.325 . S
N1149 C1152 1.314 . S
N1149 C1153 1.279 . S
C1150 C1148 1.348 . S
C1150 C1152 1.353 . S
C1150 H1208 0.929 . S
C1151 C1148 1.356 . S
C1151 C1153 1.358 . S
C1151 H1209 0.930 . S
C1152 N1149 1.314 . S
C1152 C1150 1.353 . S
C1152 H1210 0.930 . S
C1153 N1149 1.279 . S
C1153 C1151 1.358 . S
C1153 H1211 0.930 . S
C1154 C1157 1.348 . S
C1154 C1158 1.356 . S
C1154 O1205 1.325 . S
C1155 N1156 1.279 . S
C1155 C1158 1.358 . S
C1155 H1212 0.930 . S
N1156 C1155 1.279 . S
N1156 C1159 1.314 . S
C1157 C1154 1.348 . S
C1157 C1159 1.353 . S
C1157 H1213 0.929 . S
C1158 C1154 1.356 . S
C1158 C1155 1.358 . S
C1158 H1214 0.930 . S
C1159 N1156 1.314 . S
C1159 C1157 1.353 . S
C1159 H1215 0.930 . S
C1160 N1161 1.314 . S
C1160 C1165 1.353 . S
C1160 H1166 0.930 . S
N1161 Li1144 1.990 . S
N1161 C1160 1.314 . S
N1161 C1163 1.279 . S
C1162 C1163 1.358 . S
C1162 C1164 1.356 . S
C1162 H1216 0.930 . S
C1163 N1161 1.279 . S
C1163 C1162 1.358 . S
C1163 H1167 0.930 . S
C1164 C1162 1.356 . S
C1164 C1165 1.348 . S
C1165 C1160 1.353 . S
C1165 C1164 1.348 . S
C1165 H1217 0.929 . S
H1166 C1160 0.930 . S
H1167 C1163 0.930 . S
C1168 N1169 1.314 . S
C1168 C1170 1.353 . S
C1168 H1174 0.930 . S
N1169 Li1145 1.990 . S
N1169 C1168 1.314 . S
N1169 C1172 1.279 . S
C1170 C1168 1.353 . S
C1170 C1173 1.348 . S
C1170 H1218 0.929 . S
C1171 C1172 1.358 . S
C1171 C1173 1.356 . S
C1171 H1219 0.930 . S
C1172 N1169 1.279 . S
C1172 C1171 1.358 . S
C1172 H1175 0.930 . S
C1173 C1170 1.348 . S
C1173 C1171 1.356 . S
H1174 C1168 0.930 . S
H1175 C1172 0.930 . S
C1176 C1178 1.348 . S
C1176 C1179 1.356 . S
C1176 O1206 1.325 . S
N1177 C1180 1.314 . S
N1177 C1181 1.279 . S
C1178 C1176 1.348 . S
C1178 C1180 1.353 . S
C1178 H1220 0.929 . S
C1179 C1176 1.356 . S
C1179 C1181 1.358 . S
C1179 H1221 0.930 . S
C1180 N1177 1.314 . S
C1180 C1178 1.353 . S
C1180 H1222 0.930 . S
C1181 N1177 1.279 . S
C1181 C1179 1.358 . S
C1181 H1223 0.930 . S
C1182 C1183 1.348 . S
C1182 C1184 1.356 . S
C1182 O1207 1.325 . S
C1183 C1182 1.348 . S
C1183 C1185 1.353 . S
C1183 H1224 0.929 . S
C1184 C1182 1.356 . S
C1184 C1186 1.358 . S
C1184 H1225 0.930 . S
C1185 C1183 1.353 . S
C1185 N1187 1.314 . S
C1185 H1226 0.930 . S
C1186 C1184 1.358 . S
C1186 N1187 1.279 . S
C1186 H1227 0.930 . S
N1187 C1185 1.314 . S
N1187 C1186 1.279 . S
C1188 C1190 1.353 . S
C1188 N1191 1.314 . S
C1188 H1194 0.930 . S
C1189 N1191 1.279 . S
C1189 C1192 1.358 . S
C1189 H1195 0.930 . S
C1190 C1188 1.353 . S
C1190 C1193 1.348 . S
C1190 H1228 0.929 . S
N1191 Li1146 1.990 . S
N1191 C1188 1.314 . S
N1191 C1189 1.279 . S
C1192 C1189 1.358 . S
C1192 C1193 1.356 . S
C1192 H1229 0.930 . S
C1193 C1190 1.348 . S
C1193 C1192 1.356 . S
H1194 C1188 0.930 . S
H1195 C1189 0.930 . S
C1196 N1197 1.314 . S
C1196 C1198 1.353 . S
C1196 H1202 0.930 . S
N1197 Li1147 1.990 . S
N1197 C1196 1.314 . S
N1197 C1200 1.279 . S
C1198 C1196 1.353 . S
C1198 C1201 1.348 . S
C1198 H1230 0.929 . S
C1199 C1200 1.358 . S
C1199 C1201 1.356 . S
C1199 H1231 0.930 . S
C1200 N1197 1.279 . S
C1200 C1199 1.358 . S
C1200 H1203 0.930 . S
C1201 C1198 1.348 . S
C1201 C1199 1.356 . S
H1202 C1196 0.930 . S
H1203 C1200 0.930 . S
O1204 Li1144 1.956 . S
O1204 Li1145 1.970 . S
O1204 Li1146 1.961 . S
O1204 C1148 1.325 . S
O1205 Li1144 1.970 . S
O1205 Li1145 1.956 . S
O1205 Li1147 1.961 . S
O1205 C1154 1.325 . S
O1206 Li1144 1.961 . S
O1206 Li1146 1.956 . S
O1206 Li1147 1.970 . S
O1206 C1176 1.325 . S
O1207 Li1145 1.961 . S
O1207 Li1146 1.970 . S
O1207 Li1147 1.956 . S
O1207 C1182 1.325 . S
H1208 C1150 0.929 . S
H1209 C1151 0.930 . S
H1210 C1152 0.930 . S
H1211 C1153 0.930 . S
H1212 C1155 0.930 . S
H1213 C1157 0.929 . S
H1214 C1158 0.930 . S
H1215 C1159 0.930 . S
H1216 C1162 0.930 . S
H1217 C1165 0.929 . S
H1218 C1170 0.929 . S
H1219 C1171 0.930 . S
H1220 C1178 0.929 . S
H1221 C1179 0.930 . S
H1222 C1180 0.930 . S
H1223 C1181 0.930 . S
H1224 C1183 0.929 . S
H1225 C1184 0.930 . S
H1226 C1185 0.930 . S
H1227 C1186 0.930 . S
H1228 C1190 0.929 . S
H1229 C1192 0.930 . S
H1230 C1198 0.929 . S
H1231 C1199 0.930 . S
Li1232 N1249 1.990 . S
Li1232 O1292 1.956 . S
Li1232 O1293 1.970 . S
Li1232 O1294 1.961 . S
Li1233 N1257 1.990 . S
Li1233 O1292 1.970 . S
Li1233 O1293 1.956 . S
Li1233 O1295 1.961 . S
Li1234 N1279 1.990 . S
Li1234 O1292 1.961 . S
Li1234 O1294 1.956 . S
Li1234 O1295 1.970 . S
Li1235 N1285 1.990 . S
Li1235 O1293 1.961 . S
Li1235 O1294 1.970 . S
Li1235 O1295 1.956 . S
C1236 C1238 1.348 . S
C1236 C1239 1.356 . S
C1236 O1292 1.325 . S
N1237 C1240 1.314 . S
N1237 C1241 1.279 . S
C1238 C1236 1.348 . S
C1238 C1240 1.353 . S
C1238 H1296 0.929 . S
C1239 C1236 1.356 . S
C1239 C1241 1.358 . S
C1239 H1297 0.930 . S
C1240 N1237 1.314 . S
C1240 C1238 1.353 . S
C1240 H1298 0.930 . S
C1241 N1237 1.279 . S
C1241 C1239 1.358 . S
C1241 H1299 0.930 . S
C1242 C1245 1.348 . S
C1242 C1246 1.356 . S
C1242 O1293 1.325 . S
C1243 N1244 1.279 . S
C1243 C1246 1.358 . S
C1243 H1300 0.930 . S
N1244 C1243 1.279 . S
N1244 C1247 1.314 . S
C1245 C1242 1.348 . S
C1245 C1247 1.353 . S
C1245 H1301 0.929 . S
C1246 C1242 1.356 . S
C1246 C1243 1.358 . S
C1246 H1302 0.930 . S
C1247 N1244 1.314 . S
C1247 C1245 1.353 . S
C1247 H1303 0.930 . S
C1248 N1249 1.314 . S
C1248 C1253 1.353 . S
C1248 H1254 0.930 . S
N1249 Li1232 1.990 . S
N1249 C1248 1.314 . S
N1249 C1251 1.279 . S
C1250 C1251 1.358 . S
C1250 C1252 1.356 . S
C1250 H1304 0.930 . S
C1251 N1249 1.279 . S
C1251 C1250 1.358 . S
C1251 H1255 0.930 . S
C1252 C1250 1.356 . S
C1252 C1253 1.348 . S
C1253 C1248 1.353 . S
C1253 C1252 1.348 . S
C1253 H1305 0.929 . S
H1254 C1248 0.930 . S
H1255 C1251 0.930 . S
C1256 N1257 1.314 . S
C1256 C1258 1.353 . S
C1256 H1262 0.930 . S
N1257 Li1233 1.990 . S
N1257 C1256 1.314 . S
N1257 C1260 1.279 . S
C1258 C1256 1.353 . S
C1258 C1261 1.348 . S
C1258 H1306 0.929 . S
C1259 C1260 1.358 . S
C1259 C1261 1.356 . S
C1259 H1307 0.930 . S
C1260 N1257 1.279 . S
C1260 C1259 1.358 . S
C1260 H1263 0.930 . S
C1261 C1258 1.348 . S
C1261 C1259 1.356 . S
H1262 C1256 0.930 . S
H1263 C1260 0.930 . S
C1264 C1266 1.348 . S
C1264 C1267 1.356 . S
C1264 O1294 1.325 . S
N1265 C1268 1.314 . S
N1265 C1269 1.279 . S
C1266 C1264 1.348 . S
C1266 C1268 1.353 . S
C1266 H1308 0.929 . S
C1267 C1264 1.356 . S
C1267 C1269 1.358 . S
C1267 H1309 0.930 . S
C1268 N1265 1.314 . S
C1268 C1266 1.353 . S
C1268 H1310 0.930 . S
C1269 N1265 1.279 . S
C1269 C1267 1.358 . S
C1269 H1311 0.930 . S
C1270 C1271 1.348 . S
C1270 C1272 1.356 . S
C1270 O1295 1.325 . S
C1271 C1270 1.348 . S
C1271 C1273 1.353 . S
C1271 H1312 0.929 . S
C1272 C1270 1.356 . S
C1272 C1274 1.358 . S
C1272 H1313 0.930 . S
C1273 C1271 1.353 . S
C1273 N1275 1.314 . S
C1273 H1314 0.930 . S
C1274 C1272 1.358 . S
C1274 N1275 1.279 . S
C1274 H1315 0.930 . S
N1275 C1273 1.314 . S
N1275 C1274 1.279 . S
C1276 C1278 1.353 . S
C1276 N1279 1.314 . S
C1276 H1282 0.930 . S
C1277 N1279 1.279 . S
C1277 C1280 1.358 . S
C1277 H1283 0.930 . S
C1278 C1276 1.353 . S
C1278 C1281 1.348 . S
C1278 H1316 0.929 . S
N1279 Li1234 1.990 . S
N1279 C1276 1.314 . S
N1279 C1277 1.279 . S
C1280 C1277 1.358 . S
C1280 C1281 1.356 . S
C1280 H1317 0.930 . S
C1281 C1278 1.348 . S
C1281 C1280 1.356 . S
H1282 C1276 0.930 . S
H1283 C1277 0.930 . S
C1284 N1285 1.314 . S
C1284 C1286 1.353 . S
C1284 H1290 0.930 . S
N1285 Li1235 1.990 . S
N1285 C1284 1.314 . S
N1285 C1288 1.279 . S
C1286 C1284 1.353 . S
C1286 C1289 1.348 . S
C1286 H1318 0.929 . S
C1287 C1288 1.358 . S
C1287 C1289 1.356 . S
C1287 H1319 0.930 . S
C1288 N1285 1.279 . S
C1288 C1287 1.358 . S
C1288 H1291 0.930 . S
C1289 C1286 1.348 . S
C1289 C1287 1.356 . S
H1290 C1284 0.930 . S
H1291 C1288 0.930 . S
O1292 Li1232 1.956 . S
O1292 Li1233 1.970 . S
O1292 Li1234 1.961 . S
O1292 C1236 1.325 . S
O1293 Li1232 1.970 . S
O1293 Li1233 1.956 . S
O1293 Li1235 1.961 . S
O1293 C1242 1.325 . S
O1294 Li1232 1.961 . S
O1294 Li1234 1.956 . S
O1294 Li1235 1.970 . S
O1294 C1264 1.325 . S
O1295 Li1233 1.961 . S
O1295 Li1234 1.970 . S
O1295 Li1235 1.956 . S
O1295 C1270 1.325 . S
H1296 C1238 0.929 . S
H1297 C1239 0.930 . S
H1298 C1240 0.930 . S
H1299 C1241 0.930 . S
H1300 C1243 0.930 . S
H1301 C1245 0.929 . S
H1302 C1246 0.930 . S
H1303 C1247 0.930 . S
H1304 C1250 0.930 . S
H1305 C1253 0.929 . S
H1306 C1258 0.929 . S
H1307 C1259 0.930 . S
H1308 C1266 0.929 . S
H1309 C1267 0.930 . S
H1310 C1268 0.930 . S
H1311 C1269 0.930 . S
H1312 C1271 0.929 . S
H1313 C1272 0.930 . S
H1314 C1273 0.930 . S
H1315 C1274 0.930 . S
H1316 C1278 0.929 . S
H1317 C1280 0.930 . S
H1318 C1286 0.929 . S
H1319 C1287 0.930 . S
Li1320 N1337 1.990 . S
Li1320 O1380 1.956 . S
Li1320 O1381 1.970 . S
Li1320 O1382 1.961 . S
Li1321 N1345 1.990 . S
Li1321 O1380 1.970 . S
Li1321 O1381 1.956 . S
Li1321 O1383 1.961 . S
Li1322 N1367 1.990 . S
Li1322 O1380 1.961 . S
Li1322 O1382 1.956 . S
Li1322 O1383 1.970 . S
Li1323 N1373 1.990 . S
Li1323 O1381 1.961 . S
Li1323 O1382 1.970 . S
Li1323 O1383 1.956 . S
C1324 C1326 1.348 . S
C1324 C1327 1.356 . S
C1324 O1380 1.325 . S
N1325 C1328 1.314 . S
N1325 C1329 1.279 . S
C1326 C1324 1.348 . S
C1326 C1328 1.353 . S
C1326 H1384 0.929 . S
C1327 C1324 1.356 . S
C1327 C1329 1.358 . S
C1327 H1385 0.930 . S
C1328 N1325 1.314 . S
C1328 C1326 1.353 . S
C1328 H1386 0.930 . S
C1329 N1325 1.279 . S
C1329 C1327 1.358 . S
C1329 H1387 0.930 . S
C1330 C1333 1.348 . S
C1330 C1334 1.356 . S
C1330 O1381 1.325 . S
C1331 N1332 1.279 . S
C1331 C1334 1.358 . S
C1331 H1388 0.930 . S
N1332 C1331 1.279 . S
N1332 C1335 1.314 . S
C1333 C1330 1.348 . S
C1333 C1335 1.353 . S
C1333 H1389 0.929 . S
C1334 C1330 1.356 . S
C1334 C1331 1.358 . S
C1334 H1390 0.930 . S
C1335 N1332 1.314 . S
C1335 C1333 1.353 . S
C1335 H1391 0.930 . S
C1336 N1337 1.314 . S
C1336 C1341 1.353 . S
C1336 H1342 0.930 . S
N1337 Li1320 1.990 . S
N1337 C1336 1.314 . S
N1337 C1339 1.279 . S
C1338 C1339 1.358 . S
C1338 C1340 1.356 . S
C1338 H1392 0.930 . S
C1339 N1337 1.279 . S
C1339 C1338 1.358 . S
C1339 H1343 0.930 . S
C1340 C1338 1.356 . S
C1340 C1341 1.348 . S
C1341 C1336 1.353 . S
C1341 C1340 1.348 . S
C1341 H1393 0.929 . S
H1342 C1336 0.930 . S
H1343 C1339 0.930 . S
C1344 N1345 1.314 . S
C1344 C1346 1.353 . S
C1344 H1350 0.930 . S
N1345 Li1321 1.990 . S
N1345 C1344 1.314 . S
N1345 C1348 1.279 . S
C1346 C1344 1.353 . S
C1346 C1349 1.348 . S
C1346 H1394 0.929 . S
C1347 C1348 1.358 . S
C1347 C1349 1.356 . S
C1347 H1395 0.930 . S
C1348 N1345 1.279 . S
C1348 C1347 1.358 . S
C1348 H1351 0.930 . S
C1349 C1346 1.348 . S
C1349 C1347 1.356 . S
H1350 C1344 0.930 . S
H1351 C1348 0.930 . S
C1352 C1354 1.348 . S
C1352 C1355 1.356 . S
C1352 O1382 1.325 . S
N1353 C1356 1.314 . S
N1353 C1357 1.279 . S
C1354 C1352 1.348 . S
C1354 C1356 1.353 . S
C1354 H1396 0.929 . S
C1355 C1352 1.356 . S
C1355 C1357 1.358 . S
C1355 H1397 0.930 . S
C1356 N1353 1.314 . S
C1356 C1354 1.353 . S
C1356 H1398 0.930 . S
C1357 N1353 1.279 . S
C1357 C1355 1.358 . S
C1357 H1399 0.930 . S
C1358 C1359 1.348 . S
C1358 C1360 1.356 . S
C1358 O1383 1.325 . S
C1359 C1358 1.348 . S
C1359 C1361 1.353 . S
C1359 H1400 0.929 . S
C1360 C1358 1.356 . S
C1360 C1362 1.358 . S
C1360 H1401 0.930 . S
C1361 C1359 1.353 . S
C1361 N1363 1.314 . S
C1361 H1402 0.930 . S
C1362 C1360 1.358 . S
C1362 N1363 1.279 . S
C1362 H1403 0.930 . S
N1363 C1361 1.314 . S
N1363 C1362 1.279 . S
C1364 C1366 1.353 . S
C1364 N1367 1.314 . S
C1364 H1370 0.930 . S
C1365 N1367 1.279 . S
C1365 C1368 1.358 . S
C1365 H1371 0.930 . S
C1366 C1364 1.353 . S
C1366 C1369 1.348 . S
C1366 H1404 0.929 . S
N1367 Li1322 1.990 . S
N1367 C1364 1.314 . S
N1367 C1365 1.279 . S
C1368 C1365 1.358 . S
C1368 C1369 1.356 . S
C1368 H1405 0.930 . S
C1369 C1366 1.348 . S
C1369 C1368 1.356 . S
H1370 C1364 0.930 . S
H1371 C1365 0.930 . S
C1372 N1373 1.314 . S
C1372 C1374 1.353 . S
C1372 H1378 0.930 . S
N1373 Li1323 1.990 . S
N1373 C1372 1.314 . S
N1373 C1376 1.279 . S
C1374 C1372 1.353 . S
C1374 C1377 1.348 . S
C1374 H1406 0.929 . S
C1375 C1376 1.358 . S
C1375 C1377 1.356 . S
C1375 H1407 0.930 . S
C1376 N1373 1.279 . S
C1376 C1375 1.358 . S
C1376 H1379 0.930 . S
C1377 C1374 1.348 . S
C1377 C1375 1.356 . S
H1378 C1372 0.930 . S
H1379 C1376 0.930 . S
O1380 Li1320 1.956 . S
O1380 Li1321 1.970 . S
O1380 Li1322 1.961 . S
O1380 C1324 1.325 . S
O1381 Li1320 1.970 . S
O1381 Li1321 1.956 . S
O1381 Li1323 1.961 . S
O1381 C1330 1.325 . S
O1382 Li1320 1.961 . S
O1382 Li1322 1.956 . S
O1382 Li1323 1.970 . S
O1382 C1352 1.325 . S
O1383 Li1321 1.961 . S
O1383 Li1322 1.970 . S
O1383 Li1323 1.956 . S
O1383 C1358 1.325 . S
H1384 C1326 0.929 . S
H1385 C1327 0.930 . S
H1386 C1328 0.930 . S
H1387 C1329 0.930 . S
H1388 C1331 0.930 . S
H1389 C1333 0.929 . S
H1390 C1334 0.930 . S
H1391 C1335 0.930 . S
H1392 C1338 0.930 . S
H1393 C1341 0.929 . S
H1394 C1346 0.929 . S
H1395 C1347 0.930 . S
H1396 C1354 0.929 . S
H1397 C1355 0.930 . S
H1398 C1356 0.930 . S
H1399 C1357 0.930 . S
H1400 C1359 0.929 . S
H1401 C1360 0.930 . S
H1402 C1361 0.930 . S
H1403 C1362 0.930 . S
H1404 C1366 0.929 . S
H1405 C1368 0.930 . S
H1406 C1374 0.929 . S
H1407 C1375 0.930 . S
H1408 C1414 0.930 . S
H1409 C1417 0.930 . S
H1410 C1418 0.930 . S
H1411 C1419 0.930 . S
H1412 C1422 0.930 . S
H1413 C1423 0.930 . S
C1414 H1408 0.930 . S
C1414 C1415 1.342 1_554 S
C1414 C1416 1.415 . S
C1415 C1414 1.342 1_556 S
C1415 C1417 1.435 . S
C1416 C1414 1.415 . S
C1416 C1421 1.425 1_554 S
C1416 C1423 1.409 . S
C1417 H1409 0.930 . S
C1417 C1415 1.435 . S
C1417 C1418 1.362 . S
C1418 H1410 0.930 . S
C1418 C1417 1.362 . S
C1418 C1421 1.409 . S
C1419 H1411 0.930 . S
C1419 C1420 1.355 1_556 S
C1419 C1421 1.415 . S
C1420 C1419 1.355 1_554 S
C1420 C1422 1.419 . S
C1421 C1416 1.425 1_556 S
C1421 C1418 1.409 . S
C1421 C1419 1.415 . S
C1422 H1412 0.930 . S
C1422 C1420 1.419 . S
C1422 C1423 1.362 . S
C1423 H1413 0.930 . S
C1423 C1416 1.409 . S
C1423 C1422 1.362 . S
H1424 C1430 0.930 . S
H1425 C1433 0.930 . S
H1426 C1434 0.930 . S
H1427 C1435 0.930 . S
H1428 C1438 0.930 . S
H1429 C1439 0.930 . S
C1430 H1424 0.930 . S
C1430 C1431 1.355 1_554 S
C1430 C1432 1.415 . S
C1431 C1430 1.355 1_556 S
C1431 C1433 1.419 . S
C1432 C1430 1.415 . S
C1432 C1437 1.425 1_554 S
C1432 C1439 1.409 . S
C1433 H1425 0.930 . S
C1433 C1431 1.419 . S
C1433 C1434 1.362 . S
C1434 H1426 0.930 . S
C1434 C1433 1.362 . S
C1434 C1437 1.409 . S
C1435 H1427 0.930 . S
C1435 C1436 1.355 1_556 S
C1435 C1437 1.415 . S
C1436 C1435 1.355 1_554 S
C1436 C1438 1.419 . S
C1437 C1432 1.425 1_556 S
C1437 C1434 1.409 . S
C1437 C1435 1.415 . S
C1438 H1428 0.930 . S
C1438 C1436 1.419 . S
C1438 C1439 1.362 . S
C1439 H1429 0.930 . S
C1439 C1432 1.409 . S
C1439 C1438 1.362 . S
H1440 C1446 0.930 . S
H1441 C1449 0.930 . S
H1442 C1450 0.930 . S
H1443 C1451 0.930 . S
H1444 C1454 0.930 . S
H1445 C1455 0.930 . S
C1446 H1440 0.930 . S
C1446 C1447 1.355 1_556 S
C1446 C1448 1.415 . S
C1447 C1446 1.355 1_554 S
C1447 C1449 1.419 . S
C1448 C1446 1.415 . S
C1448 C1453 1.425 1_556 S
C1448 C1455 1.409 . S
C1449 H1441 0.930 . S
C1449 C1447 1.419 . S
C1449 C1450 1.362 . S
C1450 H1442 0.930 . S
C1450 C1449 1.362 . S
C1450 C1453 1.409 . S
C1451 H1443 0.930 . S
C1451 C1452 1.355 1_554 S
C1451 C1453 1.415 . S
C1452 C1451 1.355 1_556 S
C1452 C1454 1.419 . S
C1453 C1448 1.425 1_554 S
C1453 C1450 1.409 . S
C1453 C1451 1.415 . S
C1454 H1444 0.930 . S
C1454 C1452 1.419 . S
C1454 C1455 1.362 . S
C1455 H1445 0.930 . S
C1455 C1448 1.409 . S
C1455 C1454 1.362 . S
H1456 C1462 0.930 . S
H1457 C1465 0.930 . S
H1458 C1466 0.930 . S
H1459 C1467 0.930 . S
H1460 C1470 0.930 . S
H1461 C1471 0.930 . S
C1462 H1456 0.930 . S
C1462 C1463 1.355 1_554 S
C1462 C1464 1.415 . S
C1463 C1462 1.355 1_556 S
C1463 C1465 1.419 . S
C1464 C1462 1.415 . S
C1464 C1469 1.425 1_554 S
C1464 C1471 1.409 . S
C1465 H1457 0.930 . S
C1465 C1463 1.419 . S
C1465 C1466 1.362 . S
C1466 H1458 0.930 . S
C1466 C1465 1.362 . S
C1466 C1469 1.409 . S
C1467 H1459 0.930 . S
C1467 C1468 1.355 1_556 S
C1467 C1469 1.415 . S
C1468 C1467 1.355 1_554 S
C1468 C1470 1.419 . S
C1469 C1464 1.425 1_556 S
C1469 C1466 1.409 . S
C1469 C1467 1.415 . S
C1470 H1460 0.930 . S
C1470 C1468 1.419 . S
C1470 C1471 1.362 . S
C1471 H1461 0.930 . S
C1471 C1464 1.409 . S
C1471 C1470 1.362 . S
H1472 C1478 0.930 . S
H1473 C1481 0.930 . S
H1474 C1482 0.930 . S
H1475 C1483 0.930 . S
H1476 C1486 0.930 . S
H1477 C1487 0.930 . S
C1478 H1472 0.930 . S
C1478 C1479 1.355 . S
C1478 C1480 1.415 . S
C1479 C1478 1.355 . S
C1479 C1481 1.419 . S
C1480 C1478 1.415 . S
C1480 C1485 1.425 1_545 S
C1480 C1487 1.409 1_545 S
C1481 H1473 0.930 . S
C1481 C1479 1.419 . S
C1481 C1482 1.362 . S
C1482 H1474 0.930 . S
C1482 C1481 1.362 . S
C1482 C1485 1.409 1_545 S
C1483 H1475 0.930 . S
C1483 C1484 1.355 . S
C1483 C1485 1.415 . S
C1484 C1483 1.355 . S
C1484 C1486 1.419 . S
C1485 C1480 1.425 1_565 S
C1485 C1482 1.409 1_565 S
C1485 C1483 1.415 . S
C1486 H1476 0.930 . S
C1486 C1484 1.419 . S
C1486 C1487 1.362 . S
C1487 H1477 0.930 . S
C1487 C1480 1.409 1_565 S
C1487 C1486 1.362 . S
H1488 C1494 0.930 . S
H1489 C1497 0.930 . S
H1490 C1498 0.930 . S
H1491 C1499 0.930 . S
H1492 C1502 0.930 . S
H1493 C1503 0.930 . S
C1494 H1488 0.930 . S
C1494 C1495 1.355 . S
C1494 C1496 1.415 . S
C1495 C1494 1.355 . S
C1495 C1497 1.419 . S
C1496 C1494 1.415 . S
C1496 C1501 1.425 1_655 S
C1496 C1503 1.409 1_655 S
C1497 H1489 0.930 . S
C1497 C1495 1.419 . S
C1497 C1498 1.362 . S
C1498 H1490 0.930 . S
C1498 C1497 1.362 . S
C1498 C1501 1.409 1_655 S
C1499 H1491 0.930 . S
C1499 C1500 1.355 . S
C1499 C1501 1.415 . S
C1500 C1499 1.355 . S
C1500 C1502 1.419 . S
C1501 C1496 1.425 1_455 S
C1501 C1498 1.409 1_455 S
C1501 C1499 1.415 . S
C1502 H1492 0.930 . S
C1502 C1500 1.419 . S
C1502 C1503 1.362 . S
C1503 H1493 0.930 . S
C1503 C1496 1.409 1_455 S
C1503 C1502 1.362 . S
H1504 C1510 0.930 . S
H1505 C1513 0.930 . S
H1506 C1514 0.930 . S
H1507 C1515 0.930 . S
H1508 C1518 0.930 . S
H1509 C1519 0.930 . S
C1510 H1504 0.930 . S
C1510 C1511 1.355 . S
C1510 C1512 1.415 . S
C1511 C1510 1.355 . S
C1511 C1513 1.419 . S
C1512 C1510 1.415 . S
C1512 C1517 1.425 1_545 S
C1512 C1519 1.409 1_545 S
C1513 H1505 0.930 . S
C1513 C1511 1.419 . S
C1513 C1514 1.362 . S
C1514 H1506 0.930 . S
C1514 C1513 1.362 . S
C1514 C1517 1.409 1_545 S
C1515 H1507 0.930 . S
C1515 C1516 1.355 . S
C1515 C1517 1.415 . S
C1516 C1515 1.355 . S
C1516 C1518 1.419 . S
C1517 C1512 1.425 1_565 S
C1517 C1514 1.409 1_565 S
C1517 C1515 1.415 . S
C1518 H1508 0.930 . S
C1518 C1516 1.419 . S
C1518 C1519 1.362 . S
C1519 H1509 0.930 . S
C1519 C1512 1.409 1_565 S
C1519 C1518 1.362 . S
H1520 C1526 0.930 . S
H1521 C1529 0.930 . S
H1522 C1530 0.930 . S
H1523 C1531 0.930 . S
H1524 C1534 0.930 . S
H1525 C1535 0.930 . S
C1526 H1520 0.930 . S
C1526 C1527 1.355 . S
C1526 C1528 1.415 . S
C1527 C1526 1.355 . S
C1527 C1529 1.419 . S
C1528 C1526 1.415 . S
C1528 C1533 1.425 1_455 S
C1528 C1535 1.409 1_455 S
C1529 H1521 0.930 . S
C1529 C1527 1.419 . S
C1529 C1530 1.362 . S
C1530 H1522 0.930 . S
C1530 C1529 1.362 . S
C1530 C1533 1.409 1_455 S
C1531 H1523 0.930 . S
C1531 C1532 1.355 . S
C1531 C1533 1.415 . S
C1532 C1531 1.355 . S
C1532 C1534 1.419 . S
C1533 C1528 1.425 1_655 S
C1533 C1530 1.409 1_655 S
C1533 C1531 1.415 . S
C1534 H1524 0.930 . S
C1534 C1532 1.419 . S
C1534 C1535 1.362 . S
C1535 H1525 0.930 . S
C1535 C1528 1.409 1_655 S
C1535 C1534 1.362 . S
H1536 C1542 0.930 . S
H1537 C1545 0.930 . S
H1538 C1546 0.930 . S
H1539 C1547 0.930 . S
H1540 C1550 0.930 . S
H1541 C1551 0.930 . S
C1542 H1536 0.930 . S
C1542 C1543 1.355 1_556 S
C1542 C1544 1.415 . S
C1543 C1542 1.355 1_554 S
C1543 C1545 1.419 . S
C1544 C1542 1.415 . S
C1544 C1549 1.425 1_556 S
C1544 C1551 1.409 . S
C1545 H1537 0.930 . S
C1545 C1543 1.419 . S
C1545 C1546 1.362 . S
C1546 H1538 0.930 . S
C1546 C1545 1.362 . S
C1546 C1549 1.409 . S
C1547 H1539 0.930 . S
C1547 C1548 1.355 1_554 S
C1547 C1549 1.415 . S
C1548 C1547 1.355 1_556 S
C1548 C1550 1.419 . S
C1549 C1544 1.425 1_554 S
C1549 C1546 1.409 . S
C1549 C1547 1.415 . S
C1550 H1540 0.930 . S
C1550 C1548 1.419 . S
C1550 C1551 1.362 . S
C1551 H1541 0.930 . S
C1551 C1544 1.409 . S
C1551 C1550 1.362 . S
H1552 C1558 0.930 . S
H1553 C1561 0.930 . S
H1554 C1562 0.930 . S
H1555 C1563 0.930 . S
H1556 C1566 0.930 . S
H1557 C1567 0.930 . S
C1558 H1552 0.930 . S
C1558 C1559 1.355 1_556 S
C1558 C1560 1.415 . S
C1559 C1558 1.355 1_554 S
C1559 C1561 1.419 . S
C1560 C1558 1.415 . S
C1560 C1565 1.425 1_556 S
C1560 C1567 1.409 . S
C1561 H1553 0.930 . S
C1561 C1559 1.419 . S
C1561 C1562 1.362 . S
C1562 H1554 0.930 . S
C1562 C1561 1.362 . S
C1562 C1565 1.409 . S
C1563 H1555 0.930 . S
C1563 C1564 1.355 1_554 S
C1563 C1565 1.415 . S
C1564 C1563 1.355 1_556 S
C1564 C1566 1.419 . S
C1565 C1560 1.425 1_554 S
C1565 C1562 1.409 . S
C1565 C1563 1.415 . S
C1566 H1556 0.930 . S
C1566 C1564 1.419 . S
C1566 C1567 1.362 . S
C1567 H1557 0.930 . S
C1567 C1560 1.409 . S
C1567 C1566 1.362 . S
H1568 C1574 0.930 . S
H1569 C1577 0.930 . S
H1570 C1578 0.930 . S
H1571 C1579 0.930 . S
H1572 C1582 0.930 . S
H1573 C1583 0.930 . S
C1574 H1568 0.930 . S
C1574 C1575 1.355 1_554 S
C1574 C1576 1.415 . S
C1575 C1574 1.355 1_556 S
C1575 C1577 1.419 . S
C1576 C1574 1.415 . S
C1576 C1581 1.425 1_554 S
C1576 C1583 1.409 . S
C1577 H1569 0.930 . S
C1577 C1575 1.419 . S
C1577 C1578 1.362 . S
C1578 H1570 0.930 . S
C1578 C1577 1.362 . S
C1578 C1581 1.409 . S
C1579 H1571 0.930 . S
C1579 C1580 1.355 1_556 S
C1579 C1581 1.415 . S
C1580 C1579 1.355 1_554 S
C1580 C1582 1.419 . S
C1581 C1576 1.425 1_556 S
C1581 C1578 1.409 . S
C1581 C1579 1.415 . S
C1582 H1572 0.930 . S
C1582 C1580 1.419 . S
C1582 C1583 1.362 . S
C1583 H1573 0.930 . S
C1583 C1576 1.409 . S
C1583 C1582 1.362 . S
H1584 C1590 0.930 . S
H1585 C1593 0.930 . S
H1586 C1594 0.930 . S
H1587 C1595 0.930 . S
H1588 C1598 0.930 . S
H1589 C1599 0.930 . S
C1590 H1584 0.930 . S
C1590 C1591 1.355 1_556 S
C1590 C1592 1.415 . S
C1591 C1590 1.355 1_554 S
C1591 C1593 1.419 . S
C1592 C1590 1.415 . S
C1592 C1597 1.425 1_556 S
C1592 C1599 1.409 . S
C1593 H1585 0.930 . S
C1593 C1591 1.419 . S
C1593 C1594 1.362 . S
C1594 H1586 0.930 . S
C1594 C1593 1.362 . S
C1594 C1597 1.409 . S
C1595 H1587 0.930 . S
C1595 C1596 1.355 1_554 S
C1595 C1597 1.415 . S
C1596 C1595 1.355 1_556 S
C1596 C1598 1.419 . S
C1597 C1592 1.425 1_554 S
C1597 C1594 1.409 . S
C1597 C1595 1.415 . S
C1598 H1588 0.930 . S
C1598 C1596 1.419 . S
C1598 C1599 1.362 . S
C1599 H1589 0.930 . S
C1599 C1592 1.409 . S
C1599 C1598 1.362 . S
H1600 C1606 0.930 . S
H1601 C1609 0.930 . S
H1602 C1610 0.930 . S
H1603 C1611 0.930 . S
H1604 C1614 0.930 . S
H1605 C1615 0.930 . S
C1606 H1600 0.930 . S
C1606 C1607 1.355 . S
C1606 C1608 1.415 . S
C1607 C1606 1.355 . S
C1607 C1609 1.419 . S
C1608 C1606 1.415 . S
C1608 C1613 1.425 . S
C1608 C1615 1.409 . S
C1609 H1601 0.930 . S
C1609 C1607 1.419 . S
C1609 C1610 1.362 . S
C1610 H1602 0.930 . S
C1610 C1609 1.362 . S
C1610 C1613 1.409 . S
C1611 H1603 0.930 . S
C1611 C1612 1.355 . S
C1611 C1613 1.415 . S
C1612 C1611 1.355 . S
C1612 C1614 1.419 . S
C1613 C1608 1.425 . S
C1613 C1610 1.409 . S
C1613 C1611 1.415 . S
C1614 H1604 0.930 . S
C1614 C1612 1.419 . S
C1614 C1615 1.362 . S
C1615 H1605 0.930 . S
C1615 C1608 1.409 . S
C1615 C1614 1.362 . S
H1616 C1622 0.930 . S
H1617 C1625 0.930 . S
H1618 C1626 0.930 . S
H1619 C1627 0.930 . S
H1620 C1630 0.930 . S
H1621 C1631 0.930 . S
C1622 H1616 0.930 . S
C1622 C1623 1.355 . S
C1622 C1624 1.415 . S
C1623 C1622 1.355 . S
C1623 C1625 1.419 . S
C1624 C1622 1.415 . S
C1624 C1629 1.425 . S
C1624 C1631 1.409 . S
C1625 H1617 0.930 . S
C1625 C1623 1.419 . S
C1625 C1626 1.362 . S
C1626 H1618 0.930 . S
C1626 C1625 1.362 . S
C1626 C1629 1.409 . S
C1627 H1619 0.930 . S
C1627 C1628 1.355 . S
C1627 C1629 1.415 . S
C1628 C1627 1.355 . S
C1628 C1630 1.419 . S
C1629 C1624 1.425 . S
C1629 C1626 1.409 . S
C1629 C1627 1.415 . S
C1630 H1620 0.930 . S
C1630 C1628 1.419 . S
C1630 C1631 1.362 . S
C1631 H1621 0.930 . S
C1631 C1624 1.409 . S
C1631 C1630 1.362 . S
H1632 C1638 0.930 . S
H1633 C1641 0.930 . S
H1634 C1642 0.930 . S
H1635 C1643 0.930 . S
H1636 C1646 0.930 . S
H1637 C1647 0.930 . S
C1638 H1632 0.930 . S
C1638 C1639 1.355 . S
C1638 C1640 1.415 . S
C1639 C1638 1.355 . S
C1639 C1641 1.419 . S
C1640 C1638 1.415 . S
C1640 C1645 1.425 . S
C1640 C1647 1.409 . S
C1641 H1633 0.930 . S
C1641 C1639 1.419 . S
C1641 C1642 1.362 . S
C1642 H1634 0.930 . S
C1642 C1641 1.362 . S
C1642 C1645 1.409 . S
C1643 H1635 0.930 . S
C1643 C1644 1.355 . S
C1643 C1645 1.415 . S
C1644 C1643 1.355 . S
C1644 C1646 1.419 . S
C1645 C1640 1.425 . S
C1645 C1642 1.409 . S
C1645 C1643 1.415 . S
C1646 H1636 0.930 . S
C1646 C1644 1.419 . S
C1646 C1647 1.362 . S
C1647 H1637 0.930 . S
C1647 C1640 1.409 . S
C1647 C1646 1.362 . S
H1648 C1654 0.930 . S
H1649 C1657 0.930 . S
H1650 C1658 0.930 . S
H1651 C1659 0.930 . S
H1652 C1662 0.930 . S
H1653 C1663 0.930 . S
C1654 H1648 0.930 . S
C1654 C1655 1.355 . S
C1654 C1656 1.415 . S
C1655 C1654 1.355 . S
C1655 C1657 1.419 . S
C1656 C1654 1.415 . S
C1656 C1661 1.425 . S
C1656 C1663 1.409 . S
C1657 H1649 0.930 . S
C1657 C1655 1.419 . S
C1657 C1658 1.362 . S
C1658 H1650 0.930 . S
C1658 C1657 1.362 . S
C1658 C1661 1.409 . S
C1659 H1651 0.930 . S
C1659 C1660 1.355 . S
C1659 C1661 1.415 . S
C1660 C1659 1.355 . S
C1660 C1662 1.419 . S
C1661 C1656 1.425 . S
C1661 C1658 1.409 . S
C1661 C1659 1.415 . S
C1662 H1652 0.930 . S
C1662 C1660 1.419 . S
C1662 C1663 1.362 . S
C1663 H1653 0.930 . S
C1663 C1656 1.409 . S
C1663 C1662 1.362 . S
H1664 C1670 0.930 . S
H1665 C1673 0.930 . S
H1666 C1674 0.930 . S
H1667 C1675 0.930 . S
H1668 C1678 0.930 . S
H1669 C1679 0.930 . S
C1670 H1664 0.930 . S
C1670 C1671 1.355 . S
C1670 C1672 1.415 . S
C1671 C1670 1.355 . S
C1671 C1673 1.419 . S
C1672 C1670 1.415 . S
C1672 C1677 1.425 . S
C1672 C1679 1.409 . S
C1673 H1665 0.930 . S
C1673 C1671 1.419 . S
C1673 C1674 1.362 . S
C1674 H1666 0.930 . S
C1674 C1673 1.362 . S
C1674 C1677 1.409 . S
C1675 H1667 0.930 . S
C1675 C1676 1.355 . S
C1675 C1677 1.415 . S
C1676 C1675 1.355 . S
C1676 C1678 1.419 . S
C1677 C1672 1.425 . S
C1677 C1674 1.409 . S
C1677 C1675 1.415 . S
C1678 H1668 0.930 . S
C1678 C1676 1.419 . S
C1678 C1679 1.362 . S
C1679 H1669 0.930 . S
C1679 C1672 1.409 . S
C1679 C1678 1.362 . S
H1680 C1686 0.930 . S
H1681 C1689 0.930 . S
H1682 C1690 0.930 . S
H1683 C1691 0.930 . S
H1684 C1694 0.930 . S
H1685 C1695 0.930 . S
C1686 H1680 0.930 . S
C1686 C1687 1.355 . S
C1686 C1688 1.415 . S
C1687 C1686 1.355 . S
C1687 C1689 1.419 . S
C1688 C1686 1.415 . S
C1688 C1693 1.425 . S
C1688 C1695 1.409 . S
C1689 H1681 0.930 . S
C1689 C1687 1.419 . S
C1689 C1690 1.362 . S
C1690 H1682 0.930 . S
C1690 C1689 1.362 . S
C1690 C1693 1.409 . S
C1691 H1683 0.930 . S
C1691 C1692 1.355 . S
C1691 C1693 1.415 . S
C1692 C1691 1.355 . S
C1692 C1694 1.419 . S
C1693 C1688 1.425 . S
C1693 C1690 1.409 . S
C1693 C1691 1.415 . S
C1694 H1684 0.930 . S
C1694 C1692 1.419 . S
C1694 C1695 1.362 . S
C1695 H1685 0.930 . S
C1695 C1688 1.409 . S
C1695 C1694 1.362 . S
H1696 C1702 0.930 . S
H1697 C1705 0.930 . S
H1698 C1706 0.930 . S
H1699 C1707 0.930 . S
H1700 C1710 0.930 . S
H1701 C1711 0.930 . S
C1702 H1696 0.930 . S
C1702 C1703 1.355 . S
C1702 C1704 1.415 . S
C1703 C1702 1.355 . S
C1703 C1705 1.419 . S
C1704 C1702 1.415 . S
C1704 C1709 1.425 . S
C1704 C1711 1.409 . S
C1705 H1697 0.930 . S
C1705 C1703 1.419 . S
C1705 C1706 1.362 . S
C1706 H1698 0.930 . S
C1706 C1705 1.362 . S
C1706 C1709 1.409 . S
C1707 H1699 0.930 . S
C1707 C1708 1.355 . S
C1707 C1709 1.415 . S
C1708 C1707 1.355 . S
C1708 C1710 1.419 . S
C1709 C1704 1.425 . S
C1709 C1706 1.409 . S
C1709 C1707 1.415 . S
C1710 H1700 0.930 . S
C1710 C1708 1.419 . S
C1710 C1711 1.362 . S
C1711 H1701 0.930 . S
C1711 C1704 1.409 . S
C1711 C1710 1.362 . S
H1712 C1718 0.930 . S
H1713 C1721 0.930 . S
H1714 C1722 0.930 . S
H1715 C1723 0.930 . S
H1716 C1726 0.930 . S
H1717 C1727 0.930 . S
C1718 H1712 0.930 . S
C1718 C1719 1.355 . S
C1718 C1720 1.415 . S
C1719 C1718 1.355 . S
C1719 C1721 1.419 . S
C1720 C1718 1.415 . S
C1720 C1725 1.425 . S
C1720 C1727 1.409 . S
C1721 H1713 0.930 . S
C1721 C1719 1.419 . S
C1721 C1722 1.362 . S
C1722 H1714 0.930 . S
C1722 C1721 1.362 . S
C1722 C1725 1.409 . S
C1723 H1715 0.930 . S
C1723 C1724 1.355 . S
C1723 C1725 1.415 . S
C1724 C1723 1.355 . S
C1724 C1726 1.419 . S
C1725 C1720 1.425 . S
C1725 C1722 1.409 . S
C1725 C1723 1.415 . S
C1726 H1716 0.930 . S
C1726 C1724 1.419 . S
C1726 C1727 1.362 . S
C1727 H1717 0.930 . S
C1727 C1720 1.409 . S
C1727 C1726 1.362 . S
H1728 C1734 0.930 . S
H1729 C1737 0.930 . S
H1730 C1738 0.930 . S
H1731 C1739 0.930 . S
H1732 C1742 0.930 . S
H1733 C1743 0.930 . S
C1734 H1728 0.930 . S
C1734 C1735 1.355 . S
C1734 C1736 1.415 . S
C1735 C1734 1.355 . S
C1735 C1737 1.419 . S
C1736 C1734 1.415 . S
C1736 C1741 1.425 . S
C1736 C1743 1.409 . S
C1737 H1729 0.930 . S
C1737 C1735 1.419 . S
C1737 C1738 1.362 . S
C1738 H1730 0.930 . S
C1738 C1737 1.362 . S
C1738 C1741 1.409 . S
C1739 H1731 0.930 . S
C1739 C1740 1.355 . S
C1739 C1741 1.415 . S
C1740 C1739 1.355 . S
C1740 C1742 1.419 . S
C1741 C1736 1.425 . S
C1741 C1738 1.409 . S
C1741 C1739 1.415 . S
C1742 H1732 0.930 . S
C1742 C1740 1.419 . S
C1742 C1743 1.362 . S
C1743 H1733 0.930 . S
C1743 C1736 1.409 . S
C1743 C1742 1.362 . S
H1744 C1750 0.930 . S
H1745 C1753 0.930 . S
H1746 C1754 0.930 . S
H1747 C1755 0.930 . S
H1748 C1758 0.930 . S
H1749 C1759 0.930 . S
C1750 H1744 0.930 . S
C1750 C1751 1.355 . S
C1750 C1752 1.415 . S
C1751 C1750 1.355 . S
C1751 C1753 1.419 . S
C1752 C1750 1.415 . S
C1752 C1757 1.425 . S
C1752 C1759 1.409 . S
C1753 H1745 0.930 . S
C1753 C1751 1.419 . S
C1753 C1754 1.362 . S
C1754 H1746 0.930 . S
C1754 C1753 1.362 . S
C1754 C1757 1.409 . S
C1755 H1747 0.930 . S
C1755 C1756 1.355 . S
C1755 C1757 1.415 . S
C1756 C1755 1.355 . S
C1756 C1758 1.419 . S
C1757 C1752 1.425 . S
C1757 C1754 1.409 . S
C1757 C1755 1.415 . S
C1758 H1748 0.930 . S
C1758 C1756 1.419 . S
C1758 C1759 1.362 . S
C1759 H1749 0.930 . S
C1759 C1752 1.409 . S
C1759 C1758 1.362 . S
H1760 C1766 0.930 . S
H1761 C1769 0.930 . S
H1762 C1770 0.930 . S
H1763 C1771 0.930 . S
H1764 C1774 0.930 . S
H1765 C1775 0.930 . S
C1766 H1760 0.930 . S
C1766 C1767 1.355 . S
C1766 C1768 1.415 . S
C1767 C1766 1.355 . S
C1767 C1769 1.419 . S
C1768 C1766 1.415 . S
C1768 C1773 1.425 . S
C1768 C1775 1.409 . S
C1769 H1761 0.930 . S
C1769 C1767 1.419 . S
C1769 C1770 1.362 . S
C1770 H1762 0.930 . S
C1770 C1769 1.362 . S
C1770 C1773 1.409 . S
C1771 H1763 0.930 . S
C1771 C1772 1.355 . S
C1771 C1773 1.415 . S
C1772 C1771 1.355 . S
C1772 C1774 1.419 . S
C1773 C1768 1.425 . S
C1773 C1770 1.409 . S
C1773 C1771 1.415 . S
C1774 H1764 0.930 . S
C1774 C1772 1.419 . S
C1774 C1775 1.362 . S
C1775 H1765 0.930 . S
C1775 C1768 1.409 . S
C1775 C1774 1.362 . S
H1776 C1782 0.930 . S
H1777 C1785 0.930 . S
H1778 C1786 0.930 . S
H1779 C1787 0.930 . S
H1780 C1790 0.930 . S
H1781 C1791 0.930 . S
C1782 H1776 0.930 . S
C1782 C1783 1.355 . S
C1782 C1784 1.415 . S
C1783 C1782 1.355 . S
C1783 C1785 1.419 . S
C1784 C1782 1.415 . S
C1784 C1789 1.425 . S
C1784 C1791 1.409 . S
C1785 H1777 0.930 . S
C1785 C1783 1.419 . S
C1785 C1786 1.362 . S
C1786 H1778 0.930 . S
C1786 C1785 1.362 . S
C1786 C1789 1.409 . S
C1787 H1779 0.930 . S
C1787 C1788 1.355 . S
C1787 C1789 1.415 . S
C1788 C1787 1.355 . S
C1788 C1790 1.419 . S
C1789 C1784 1.425 . S
C1789 C1786 1.409 . S
C1789 C1787 1.415 . S
C1790 H1780 0.930 . S
C1790 C1788 1.419 . S
C1790 C1791 1.362 . S
C1791 H1781 0.930 . S
C1791 C1784 1.409 . S
C1791 C1790 1.362 . S
H1792 C1798 0.930 . S
H1793 C1801 0.930 . S
H1794 C1802 0.930 . S
H1795 C1803 0.930 . S
H1796 C1806 0.930 . S
H1797 C1807 0.930 . S
C1798 H1792 0.930 . S
C1798 C1799 1.355 . S
C1798 C1800 1.415 . S
C1799 C1798 1.355 . S
C1799 C1801 1.419 . S
C1800 C1798 1.415 . S
C1800 C1805 1.425 . S
C1800 C1807 1.409 . S
C1801 H1793 0.930 . S
C1801 C1799 1.419 . S
C1801 C1802 1.362 . S
C1802 H1794 0.930 . S
C1802 C1801 1.362 . S
C1802 C1805 1.409 . S
C1803 H1795 0.930 . S
C1803 C1804 1.355 . S
C1803 C1805 1.415 . S
C1804 C1803 1.355 . S
C1804 C1806 1.419 . S
C1805 C1800 1.425 . S
C1805 C1802 1.409 . S
C1805 C1803 1.415 . S
C1806 H1796 0.930 . S
C1806 C1804 1.419 . S
C1806 C1807 1.362 . S
C1807 H1797 0.930 . S
C1807 C1800 1.409 . S
C1807 C1806 1.362 . S
H1808 C1814 0.930 . S
H1809 C1817 0.930 . S
H1810 C1818 0.930 . S
H1811 C1819 0.930 . S
H1812 C1822 0.930 . S
H1813 C1823 0.930 . S
C1814 H1808 0.930 . S
C1814 C1815 1.355 . S
C1814 C1816 1.415 . S
C1815 C1814 1.355 . S
C1815 C1817 1.419 . S
C1816 C1814 1.415 . S
C1816 C1821 1.425 . S
C1816 C1823 1.409 . S
C1817 H1809 0.930 . S
C1817 C1815 1.419 . S
C1817 C1818 1.362 . S
C1818 H1810 0.930 . S
C1818 C1817 1.362 . S
C1818 C1821 1.409 . S
C1819 H1811 0.930 . S
C1819 C1820 1.355 . S
C1819 C1821 1.415 . S
C1820 C1819 1.355 . S
C1820 C1822 1.419 . S
C1821 C1816 1.425 . S
C1821 C1818 1.409 . S
C1821 C1819 1.415 . S
C1822 H1812 0.930 . S
C1822 C1820 1.419 . S
C1822 C1823 1.362 . S
C1823 H1813 0.930 . S
C1823 C1816 1.409 . S
C1823 C1822 1.362 . S
H1824 C1830 0.930 . S
H1825 C1833 0.930 . S
H1826 C1834 0.930 . S
H1827 C1835 0.930 . S
H1828 C1838 0.930 . S
H1829 C1839 0.930 . S
C1830 H1824 0.930 . S
C1830 C1831 1.355 . S
C1830 C1832 1.415 . S
C1831 C1830 1.355 . S
C1831 C1833 1.419 . S
C1832 C1830 1.415 . S
C1832 C1837 1.425 . S
C1832 C1839 1.409 . S
C1833 H1825 0.930 . S
C1833 C1831 1.419 . S
C1833 C1834 1.362 . S
C1834 H1826 0.930 . S
C1834 C1833 1.362 . S
C1834 C1837 1.409 . S
C1835 H1827 0.930 . S
C1835 C1836 1.355 . S
C1835 C1837 1.415 . S
C1836 C1835 1.355 . S
C1836 C1838 1.419 . S
C1837 C1832 1.425 . S
C1837 C1834 1.409 . S
C1837 C1835 1.415 . S
C1838 H1828 0.930 . S
C1838 C1836 1.419 . S
C1838 C1839 1.362 . S
C1839 H1829 0.930 . S
C1839 C1832 1.409 . S
C1839 C1838 1.362 . S
H1840 C1846 0.930 . S
H1841 C1849 0.930 . S
H1842 C1850 0.930 . S
H1843 C1851 0.930 . S
H1844 C1854 0.930 . S
H1845 C1855 0.930 . S
C1846 H1840 0.930 . S
C1846 C1847 1.355 . S
C1846 C1848 1.415 . S
C1847 C1846 1.355 . S
C1847 C1849 1.419 . S
C1848 C1846 1.415 . S
C1848 C1853 1.425 . S
C1848 C1855 1.409 . S
C1849 H1841 0.930 . S
C1849 C1847 1.419 . S
C1849 C1850 1.362 . S
C1850 H1842 0.930 . S
C1850 C1849 1.362 . S
C1850 C1853 1.409 . S
C1851 H1843 0.930 . S
C1851 C1852 1.355 . S
C1851 C1853 1.415 . S
C1852 C1851 1.355 . S
C1852 C1854 1.419 . S
C1853 C1848 1.425 . S
C1853 C1850 1.409 . S
C1853 C1851 1.415 . S
C1854 H1844 0.930 . S
C1854 C1852 1.419 . S
C1854 C1855 1.362 . S
C1855 H1845 0.930 . S
C1855 C1848 1.409 . S
C1855 C1854 1.362 . S
H1856 C1862 0.930 . S
H1857 C1865 0.930 . S
H1858 C1866 0.930 . S
H1859 C1867 0.930 . S
H1860 C1870 0.930 . S
H1861 C1871 0.930 . S
C1862 H1856 0.930 . S
C1862 C1863 1.355 . S
C1862 C1864 1.415 . S
C1863 C1862 1.355 . S
C1863 C1865 1.419 . S
C1864 C1862 1.415 . S
C1864 C1869 1.425 . S
C1864 C1871 1.409 . S
C1865 H1857 0.930 . S
C1865 C1863 1.419 . S
C1865 C1866 1.362 . S
C1866 H1858 0.930 . S
C1866 C1865 1.362 . S
C1866 C1869 1.409 . S
C1867 H1859 0.930 . S
C1867 C1868 1.355 . S
C1867 C1869 1.415 . S
C1868 C1867 1.355 . S
C1868 C1870 1.419 . S
C1869 C1864 1.425 . S
C1869 C1866 1.409 . S
C1869 C1867 1.415 . S
C1870 H1860 0.930 . S
C1870 C1868 1.419 . S
C1870 C1871 1.362 . S
C1871 H1861 0.930 . S
C1871 C1864 1.409 . S
C1871 C1870 1.362 . S
H1872 C1878 0.930 . S
H1873 C1881 0.930 . S
H1874 C1882 0.930 . S
H1875 C1883 0.930 . S
H1876 C1886 0.930 . S
H1877 C1887 0.930 . S
C1878 H1872 0.930 . S
C1878 C1879 1.355 . S
C1878 C1880 1.415 . S
C1879 C1878 1.355 . S
C1879 C1881 1.419 . S
C1880 C1878 1.415 . S
C1880 C1885 1.425 . S
C1880 C1887 1.409 . S
C1881 H1873 0.930 . S
C1881 C1879 1.419 . S
C1881 C1882 1.362 . S
C1882 H1874 0.930 . S
C1882 C1881 1.362 . S
C1882 C1885 1.409 . S
C1883 H1875 0.930 . S
C1883 C1884 1.355 . S
C1883 C1885 1.415 . S
C1884 C1883 1.355 . S
C1884 C1886 1.419 . S
C1885 C1880 1.425 . S
C1885 C1882 1.409 . S
C1885 C1883 1.415 . S
C1886 H1876 0.930 . S
C1886 C1884 1.419 . S
C1886 C1887 1.362 . S
C1887 H1877 0.930 . S
C1887 C1880 1.409 . S
C1887 C1886 1.362 . S
H1888 C1894 0.930 . S
H1889 C1897 0.930 . S
H1890 C1898 0.930 . S
H1891 C1899 0.930 . S
H1892 C1902 0.930 . S
H1893 C1903 0.930 . S
C1894 H1888 0.930 . S
C1894 C1895 1.355 . S
C1894 C1896 1.415 . S
C1895 C1894 1.355 . S
C1895 C1897 1.419 . S
C1896 C1894 1.415 . S
C1896 C1901 1.425 . S
C1896 C1903 1.409 . S
C1897 H1889 0.930 . S
C1897 C1895 1.419 . S
C1897 C1898 1.362 . S
C1898 H1890 0.930 . S
C1898 C1897 1.362 . S
C1898 C1901 1.409 . S
C1899 H1891 0.930 . S
C1899 C1900 1.355 . S
C1899 C1901 1.415 . S
C1900 C1899 1.355 . S
C1900 C1902 1.419 . S
C1901 C1896 1.425 . S
C1901 C1898 1.409 . S
C1901 C1899 1.415 . S
C1902 H1892 0.930 . S
C1902 C1900 1.419 . S
C1902 C1903 1.362 . S
C1903 H1893 0.930 . S
C1903 C1896 1.409 . S
C1903 C1902 1.362 . S
H1904 C1910 0.930 . S
H1905 C1913 0.930 . S
H1906 C1914 0.930 . S
H1907 C1915 0.930 . S
H1908 C1918 0.930 . S
H1909 C1919 0.930 . S
C1910 H1904 0.930 . S
C1910 C1911 1.355 . S
C1910 C1912 1.415 . S
C1911 C1910 1.355 . S
C1911 C1913 1.419 . S
C1912 C1910 1.415 . S
C1912 C1917 1.425 . S
C1912 C1919 1.409 . S
C1913 H1905 0.930 . S
C1913 C1911 1.419 . S
C1913 C1914 1.362 . S
C1914 H1906 0.930 . S
C1914 C1913 1.362 . S
C1914 C1917 1.409 . S
C1915 H1907 0.930 . S
C1915 C1916 1.355 . S
C1915 C1917 1.415 . S
C1916 C1915 1.355 . S
C1916 C1918 1.419 . S
C1917 C1912 1.425 . S
C1917 C1914 1.409 . S
C1917 C1915 1.415 . S
C1918 H1908 0.930 . S
C1918 C1916 1.419 . S
C1918 C1919 1.362 . S
C1919 H1909 0.930 . S
C1919 C1912 1.409 . S
C1919 C1918 1.362 . S
C1415 C409 0.919 1_556 S
C1420 C20 0.900 . S
C1431 C489 0.914 1_556 S
C1436 C108 0.904 . S
C1447 C585 0.917 . S
C1452 C205 0.906 1_556 S
C1463 C673 0.913 1_556 S
C1468 C293 0.905 . S
C1479 C1105 0.906 . S
C1484 C724 0.912 . S
C1495 C1193 0.920 . S
C1500 C812 0.903 . S
C1511 C909 0.908 . S
C1516 C1281 0.909 . S
C1527 C1377 0.903 . S
C1532 C997 0.920 . S
C1543 C49 1.264 . S
C1548 C460 1.304 1_556 S
C1559 C557 1.263 . S
C1564 C137 1.302 1_556 S
C1575 C233 1.279 1_556 S
C1580 C645 1.286 . S
C1591 C381 1.273 . S
C1596 C321 1.292 1_556 S
C1607 C1164 1.275 . S
C1612 C753 1.294 . S
C1623 C1252 1.262 . S
C1628 C841 1.305 . S
C1639 C937 1.305 . S
C1644 C1349 1.262 . S
C1655 C1025 1.262 . S
C1660 C1076 1.305 . S
C1671 C1369 1.522 . S
C1676 C29 1.538 . S
C1687 C1113 1.536 . S
C1692 C117 1.518 . S
C1703 C1201 1.527 . S
C1708 C196 1.536 . S
C1719 C1289 1.539 . S
C1724 C284 1.517 . S
C1735 C821 1.523 . S
C1740 C401 1.544 . S
C1751 C900 1.541 . S
C1756 C497 1.524 . S
C1767 C577 1.537 . S
C1772 C988 1.523 . S
C1783 C665 1.538 . S
C1788 C733 1.523 . S
C1799 C1173 1.523 . S
C1804 C225 1.535 . S
C1815 C1261 1.522 . S
C1820 C313 1.537 . S
C1831 C1340 1.543 . S
C1836 C57 1.525 . S
C1847 C145 1.523 . S
C1852 C1085 1.536 . S
C1863 C1017 1.543 . S
C1868 C548 1.520 . S
C1879 C636 1.529 . S
C1884 C761 1.523 . S
C1895 C849 1.543 . S
C1900 C372 1.517 . S
C1911 C929 1.543 . S
C1916 C469 1.517 . S
