# Generated by pormake.
# Topology unl, (4)-cn, num edge types: 1
# Building blocks:
#     Node 0, Type 0, BuildingBlock: KUFVIS_clean_sbu_0, # of connection points: 4
#     Node 1, Type 0, BuildingBlock: KUFVIS_clean_sbu_0, # of connection points: 4
#     Node 2, Type 0, BuildingBlock: KUFVIS_clean_sbu_0, # of connection points: 4
#     Node 3, Type 0, BuildingBlock: KUFVIS_clean_sbu_0, # of connection points: 4
#     Node 4, Type 0, BuildingBlock: KUFVIS_clean_sbu_0, # of connection points: 4
#     Node 5, Type 0, BuildingBlock: KUFVIS_clean_sbu_0, # of connection points: 4
#     Node 6, Type 0, BuildingBlock: KUFVIS_clean_sbu_0, # of connection points: 4
#     Node 7, Type 0, BuildingBlock: KUFVIS_clean_sbu_0, # of connection points: 4
#     Node 8, Type 0, BuildingBlock: KUFVIS_clean_sbu_0, # of connection points: 4
#     Node 9, Type 0, BuildingBlock: KUFVIS_clean_sbu_0, # of connection points: 4
#     Node 10, Type 0, BuildingBlock: KUFVIS_clean_sbu_0, # of connection points: 4
#     Node 11, Type 0, BuildingBlock: KUFVIS_clean_sbu_0, # of connection points: 4
#     Node 12, Type 0, BuildingBlock: KUFVIS_clean_sbu_0, # of connection points: 4
#     Node 13, Type 0, BuildingBlock: KUFVIS_clean_sbu_0, # of connection points: 4
#     Node 14, Type 0, BuildingBlock: KUFVIS_clean_sbu_0, # of connection points: 4
#     Node 15, Type 0, BuildingBlock: KUFVIS_clean_sbu_0, # of connection points: 4
#     Node 16, Type 0, BuildingBlock: KUFVIS_clean_sbu_0, # of connection points: 4
#     Node 17, Type 0, BuildingBlock: KUFVIS_clean_sbu_0, # of connection points: 4
#     Node 18, Type 0, BuildingBlock: KUFVIS_clean_sbu_0, # of connection points: 4
#     Node 19, Type 0, BuildingBlock: KUFVIS_clean_sbu_0, # of connection points: 4
#     Node 20, Type 0, BuildingBlock: KUFVIS_clean_sbu_0, # of connection points: 4
#     Node 21, Type 0, BuildingBlock: KUFVIS_clean_sbu_0, # of connection points: 4
#     Node 22, Type 0, BuildingBlock: KUFVIS_clean_sbu_0, # of connection points: 4
#     Node 23, Type 0, BuildingBlock: KUFVIS_clean_sbu_0, # of connection points: 4
#     Node 24, Type 0, BuildingBlock: KUFVIS_clean_sbu_0, # of connection points: 4
#     Node 25, Type 0, BuildingBlock: KUFVIS_clean_sbu_0, # of connection points: 4
#     Node 26, Type 0, BuildingBlock: KUFVIS_clean_sbu_0, # of connection points: 4
#     Node 27, Type 0, BuildingBlock: KUFVIS_clean_sbu_0, # of connection points: 4
#     Node 28, Type 0, BuildingBlock: KUFVIS_clean_sbu_0, # of connection points: 4
#     Node 29, Type 0, BuildingBlock: KUFVIS_clean_sbu_0, # of connection points: 4
#     Node 30, Type 0, BuildingBlock: KUFVIS_clean_sbu_0, # of connection points: 4
#     Node 31, Type 0, BuildingBlock: KUFVIS_clean_sbu_0, # of connection points: 4
#     Node 32, Type 0, BuildingBlock: KUFVIS_clean_sbu_0, # of connection points: 4
#     Node 33, Type 0, BuildingBlock: KUFVIS_clean_sbu_0, # of connection points: 4
#     Node 34, Type 0, BuildingBlock: KUFVIS_clean_sbu_0, # of connection points: 4
#     Node 35, Type 0, BuildingBlock: KUFVIS_clean_sbu_0, # of connection points: 4
#     Edge 36, Type (0, 0), BuildingBlock: XIVTED_clean_linker_0, # of connection points: 2
#     Edge 37, Type (0, 0), BuildingBlock: XIVTED_clean_linker_0, # of connection points: 2
#     Edge 38, Type (0, 0), BuildingBlock: XIVTED_clean_linker_0, # of connection points: 2
#     Edge 39, Type (0, 0), BuildingBlock: XIVTED_clean_linker_0, # of connection points: 2
#     Edge 40, Type (0, 0), BuildingBlock: XIVTED_clean_linker_0, # of connection points: 2
#     Edge 41, Type (0, 0), BuildingBlock: XIVTED_clean_linker_0, # of connection points: 2
#     Edge 42, Type (0, 0), BuildingBlock: XIVTED_clean_linker_0, # of connection points: 2
#     Edge 43, Type (0, 0), BuildingBlock: XIVTED_clean_linker_0, # of connection points: 2
#     Edge 44, Type (0, 0), BuildingBlock: XIVTED_clean_linker_0, # of connection points: 2
#     Edge 45, Type (0, 0), BuildingBlock: XIVTED_clean_linker_0, # of connection points: 2
#     Edge 46, Type (0, 0), BuildingBlock: XIVTED_clean_linker_0, # of connection points: 2
#     Edge 47, Type (0, 0), BuildingBlock: XIVTED_clean_linker_0, # of connection points: 2
#     Edge 48, Type (0, 0), BuildingBlock: XIVTED_clean_linker_0, # of connection points: 2
#     Edge 49, Type (0, 0), BuildingBlock: XIVTED_clean_linker_0, # of connection points: 2
#     Edge 50, Type (0, 0), BuildingBlock: XIVTED_clean_linker_0, # of connection points: 2
#     Edge 51, Type (0, 0), BuildingBlock: XIVTED_clean_linker_0, # of connection points: 2
#     Edge 52, Type (0, 0), BuildingBlock: XIVTED_clean_linker_0, # of connection points: 2
#     Edge 53, Type (0, 0), BuildingBlock: XIVTED_clean_linker_0, # of connection points: 2
#     Edge 54, Type (0, 0), BuildingBlock: XIVTED_clean_linker_0, # of connection points: 2
#     Edge 55, Type (0, 0), BuildingBlock: XIVTED_clean_linker_0, # of connection points: 2
#     Edge 56, Type (0, 0), BuildingBlock: XIVTED_clean_linker_0, # of connection points: 2
#     Edge 57, Type (0, 0), BuildingBlock: XIVTED_clean_linker_0, # of connection points: 2
#     Edge 58, Type (0, 0), BuildingBlock: XIVTED_clean_linker_0, # of connection points: 2
#     Edge 59, Type (0, 0), BuildingBlock: XIVTED_clean_linker_0, # of connection points: 2
#     Edge 60, Type (0, 0), BuildingBlock: XIVTED_clean_linker_0, # of connection points: 2
#     Edge 61, Type (0, 0), BuildingBlock: XIVTED_clean_linker_0, # of connection points: 2
#     Edge 62, Type (0, 0), BuildingBlock: XIVTED_clean_linker_0, # of connection points: 2
#     Edge 63, Type (0, 0), BuildingBlock: XIVTED_clean_linker_0, # of connection points: 2
#     Edge 64, Type (0, 0), BuildingBlock: XIVTED_clean_linker_0, # of connection points: 2
#     Edge 65, Type (0, 0), BuildingBlock: XIVTED_clean_linker_0, # of connection points: 2
#     Edge 66, Type (0, 0), BuildingBlock: XIVTED_clean_linker_0, # of connection points: 2
#     Edge 67, Type (0, 0), BuildingBlock: XIVTED_clean_linker_0, # of connection points: 2
#     Edge 68, Type (0, 0), BuildingBlock: XIVTED_clean_linker_0, # of connection points: 2
#     Edge 69, Type (0, 0), BuildingBlock: XIVTED_clean_linker_0, # of connection points: 2
#     Edge 70, Type (0, 0), BuildingBlock: XIVTED_clean_linker_0, # of connection points: 2
#     Edge 71, Type (0, 0), BuildingBlock: XIVTED_clean_linker_0, # of connection points: 2
#     Edge 72, Type (0, 0), BuildingBlock: XIVTED_clean_linker_0, # of connection points: 2
#     Edge 73, Type (0, 0), BuildingBlock: XIVTED_clean_linker_0, # of connection points: 2
#     Edge 74, Type (0, 0), BuildingBlock: XIVTED_clean_linker_0, # of connection points: 2
#     Edge 75, Type (0, 0), BuildingBlock: XIVTED_clean_linker_0, # of connection points: 2
#     Edge 76, Type (0, 0), BuildingBlock: XIVTED_clean_linker_0, # of connection points: 2
#     Edge 77, Type (0, 0), BuildingBlock: XIVTED_clean_linker_0, # of connection points: 2
#     Edge 78, Type (0, 0), BuildingBlock: XIVTED_clean_linker_0, # of connection points: 2
#     Edge 79, Type (0, 0), BuildingBlock: XIVTED_clean_linker_0, # of connection points: 2
#     Edge 80, Type (0, 0), BuildingBlock: XIVTED_clean_linker_0, # of connection points: 2
#     Edge 81, Type (0, 0), BuildingBlock: XIVTED_clean_linker_0, # of connection points: 2
#     Edge 82, Type (0, 0), BuildingBlock: XIVTED_clean_linker_0, # of connection points: 2
#     Edge 83, Type (0, 0), BuildingBlock: XIVTED_clean_linker_0, # of connection points: 2
#     Edge 84, Type (0, 0), BuildingBlock: XIVTED_clean_linker_0, # of connection points: 2
#     Edge 85, Type (0, 0), BuildingBlock: XIVTED_clean_linker_0, # of connection points: 2
#     Edge 86, Type (0, 0), BuildingBlock: XIVTED_clean_linker_0, # of connection points: 2
#     Edge 87, Type (0, 0), BuildingBlock: XIVTED_clean_linker_0, # of connection points: 2
#     Edge 88, Type (0, 0), BuildingBlock: XIVTED_clean_linker_0, # of connection points: 2
#     Edge 89, Type (0, 0), BuildingBlock: XIVTED_clean_linker_0, # of connection points: 2
#     Edge 90, Type (0, 0), BuildingBlock: XIVTED_clean_linker_0, # of connection points: 2
#     Edge 91, Type (0, 0), BuildingBlock: XIVTED_clean_linker_0, # of connection points: 2
#     Edge 92, Type (0, 0), BuildingBlock: XIVTED_clean_linker_0, # of connection points: 2
#     Edge 93, Type (0, 0), BuildingBlock: XIVTED_clean_linker_0, # of connection points: 2
#     Edge 94, Type (0, 0), BuildingBlock: XIVTED_clean_linker_0, # of connection points: 2
#     Edge 95, Type (0, 0), BuildingBlock: XIVTED_clean_linker_0, # of connection points: 2
#     Edge 96, Type (0, 0), BuildingBlock: XIVTED_clean_linker_0, # of connection points: 2
#     Edge 97, Type (0, 0), BuildingBlock: XIVTED_clean_linker_0, # of connection points: 2
#     Edge 98, Type (0, 0), BuildingBlock: XIVTED_clean_linker_0, # of connection points: 2
#     Edge 99, Type (0, 0), BuildingBlock: XIVTED_clean_linker_0, # of connection points: 2
#     Edge 100, Type (0, 0), BuildingBlock: XIVTED_clean_linker_0, # of connection points: 2
#     Edge 101, Type (0, 0), BuildingBlock: XIVTED_clean_linker_0, # of connection points: 2
#     Edge 102, Type (0, 0), BuildingBlock: XIVTED_clean_linker_0, # of connection points: 2
#     Edge 103, Type (0, 0), BuildingBlock: XIVTED_clean_linker_0, # of connection points: 2
#     Edge 104, Type (0, 0), BuildingBlock: XIVTED_clean_linker_0, # of connection points: 2
#     Edge 105, Type (0, 0), BuildingBlock: XIVTED_clean_linker_0, # of connection points: 2
#     Edge 106, Type (0, 0), BuildingBlock: XIVTED_clean_linker_0, # of connection points: 2
#     Edge 107, Type (0, 0), BuildingBlock: XIVTED_clean_linker_0, # of connection points: 2
# Relax obj value: 0.072
# Max RMSD: 0.161
# Mean RMSD: 0.161
data_MOF--net-unl--node1-KUFVIS_clean_sbu_0--edge1-XIVTED_clean_linker_0
_symmetry_space_group_name_H-M    P1
_symmetry_Int_Tables_number       1
_symmetry_cell_setting            triclinic
loop_
_symmetry_equiv_pos_as_xyz
'x, y, z'
_cell_length_a     65.54257
_cell_length_b     65.511694
_cell_length_c     40.98546
_cell_angle_alpha  90.005476
_cell_angle_beta   89.943875
_cell_angle_gamma 120.01224
loop_
_atom_site_label
_atom_site_type_symbol
_atom_site_fract_x
_atom_site_fract_y
_atom_site_fract_z
_atom_type_partial_charge
Mn0 Mn 0.21269 0.13687 0.10538 0.0
Mn1 Mn 0.15382 0.10272 0.10812 0.0
C2 C 0.19113 0.14542 0.14208 0.0
C3 C 0.24993 0.14451 0.12094 0.0
C4 C 0.18021 0.13787 0.05422 0.0
O5 O 0.20604 0.10694 0.08046 0.0
O6 O 0.16758 0.08362 0.09295 0.0
C7 C 0.14717 0.0683 0.15964 0.0
N8 N 0.14313 0.08539 0.14786 0.0
C9 C 0.11512 0.07839 0.19038 0.0
C10 C 0.11881 0.06058 0.20292 0.0
C11 C 0.13512 0.0557 0.18768 0.0
C12 C 0.12803 0.09071 0.16288 0.0
H13 H 0.15931 0.06419 0.14754 0.0
C14 C 0.18707 0.08687 0.08112 0.0
O15 O 0.24662 0.1528 0.09395 0.0
O16 O 0.23146 0.13123 0.13853 0.0
N17 N 0.13854 0.11941 0.12281 0.0
C18 C 0.13751 0.13758 0.10823 0.0
C19 C 0.12306 0.14559 0.12163 0.0
C20 C 0.10937 0.13446 0.14935 0.0
C21 C 0.11049 0.11559 0.1636 0.0
C22 C 0.12565 0.10877 0.14968 0.0
H23 H 0.14759 0.14591 0.08655 0.0
O24 O 0.2124 0.16145 0.13423 0.0
O25 O 0.18351 0.12485 0.12903 0.0
O26 O 0.20043 0.14787 0.06749 0.0
O27 O 0.16233 0.11979 0.06613 0.0
C28 C 0.09675 0.10293 0.19062 0.0
C29 C 0.09885 0.08414 0.20374 0.0
H30 H 0.10928 0.05059 0.22426 0.0
H31 H 0.13812 0.04202 0.19724 0.0
H32 H 0.12224 0.1601 0.11038 0.0
H33 H 0.09798 0.14046 0.15938 0.0
H34 H 0.0843 0.10737 0.20104 0.0
H35 H 0.08771 0.07399 0.22387 0.0
Mn36 Mn 0.85674 0.0755 0.10134 0.0
Mn37 Mn 0.8901 0.0499 0.10022 0.0
C38 C 0.84801 0.04428 0.13616 0.0
C39 C 0.84968 0.1051 0.11908 0.0
C40 C 0.85499 0.04348 0.04752 0.0
O41 O 0.88673 0.09915 0.07676 0.0
O42 O 0.90965 0.08322 0.08731 0.0
C43 C 0.92515 0.07515 0.15217 0.0
N44 N 0.90773 0.05466 0.13925 0.0
C45 C 0.9159 0.03152 0.17685 0.0
C46 C 0.93404 0.05235 0.19052 0.0
C47 C 0.93847 0.07427 0.17841 0.0
C48 C 0.90277 0.03353 0.15149 0.0
H49 H 0.92898 0.09198 0.1423 0.0
C50 C 0.90667 0.09998 0.07695 0.0
O51 O 0.84118 0.09408 0.09177 0.0
O52 O 0.86277 0.09925 0.1359 0.0
N53 N 0.87291 0.01745 0.11274 0.0
C54 C 0.8539 -0.00088 0.09815 0.0
C55 C 0.84595 0.97604 0.10911 0.0
C56 C 0.85801 0.97201 0.13432 0.0
C57 C 0.87762 0.99118 0.14877 0.0
C58 C 0.88422 0.01382 0.13759 0.0
H59 H 0.84493 0.00202 0.07821 0.0
O60 O 0.83215 0.05001 0.12949 0.0
O61 O 0.86854 0.0574 0.12312 0.0
O62 O 0.84516 0.05328 0.06233 0.0
O63 O 0.873 0.04313 0.05843 0.0
C64 C 0.89121 0.98868 0.1733 0.0
C65 C 0.91056 0.00885 0.18698 0.0
H66 H 0.94463 0.05171 0.21035 0.0
H67 H 0.9524 0.09043 0.18886 0.0
H68 H 0.83083 0.96135 0.09776 0.0
H69 H 0.85213 0.95415 0.14228 0.0
H70 H 0.88703 0.97131 0.18148 0.0
H71 H 0.92121 0.00676 0.20539 0.0
Mn72 Mn 0.92032 0.7834 0.10216 0.0
Mn73 Mn 0.94675 0.84244 0.10552 0.0
C74 C 0.94973 0.80402 0.14017 0.0
C75 C 0.88948 0.74662 0.11705 0.0
C76 C 0.95587 0.81568 0.0525 0.0
O77 O 0.89821 0.79107 0.07616 0.0
O78 O 0.9146 0.82972 0.08821 0.0
C79 C 0.91769 0.84906 0.15501 0.0
N80 N 0.93907 0.85298 0.14453 0.0
C81 C 0.95889 0.87987 0.18858 0.0
C82 C 0.93714 0.87639 0.19971 0.0
C83 C 0.9164 0.8607 0.18305 0.0
C84 C 0.95903 0.86746 0.16092 0.0
H85 H 0.90178 0.83725 0.14199 0.0
C86 C 0.89802 0.8105 0.07629 0.0
O87 O 0.90153 0.74948 0.09059 0.0
O88 O 0.89503 0.76524 0.13446 0.0
N89 N 0.97808 0.85677 0.12242 0.0
C90 C -0.00252 0.85725 0.10948 0.0
C91 C 0.01948 0.87094 0.12452 0.0
C92 C 0.02137 0.88437 0.15225 0.0
C93 C 0.00118 0.88376 0.16488 0.0
C94 C 0.97968 0.86943 0.14927 0.0
H95 H 0.99622 0.84731 0.08784 0.0
O96 O 0.94407 0.78264 0.13221 0.0
O97 O 0.93765 0.81231 0.12628 0.0
O98 O 0.9444 0.79527 0.06514 0.0
O99 O 0.95637 0.83391 0.06441 0.0
C100 C 0.0016 0.89709 0.19203 0.0
C101 C 0.98048 0.89532 0.20366 0.0
H102 H 0.93613 0.88554 0.22112 0.0
H103 H 0.89952 0.85779 0.19157 0.0
H104 H 0.03497 0.87135 0.11455 0.0
H105 H 0.03841 0.89513 0.16359 0.0
H106 H 0.01816 0.90889 0.20381 0.0
H107 H 0.98091 0.90597 0.22406 0.0
Mn108 Mn 0.13204 0.21384 0.3803 0.0
Mn109 Mn 0.09961 0.15482 0.37523 0.0
C110 C 0.14082 0.19392 0.34108 0.0
C111 C 0.13852 0.25109 0.36692 0.0
C112 C 0.13535 0.1808 0.42852 0.0
O113 O 0.1022 0.2056 0.40673 0.0
O114 O 0.08004 0.16708 0.39368 0.0
C115 C 0.06365 0.14847 0.32648 0.0
N116 N 0.08142 0.1448 0.33619 0.0
C117 C 0.07507 0.11925 0.2906 0.0
C118 C 0.05656 0.12257 0.28019 0.0
C119 C 0.05097 0.13743 0.29805 0.0
C120 C 0.08729 0.13098 0.31879 0.0
H121 H 0.05912 0.15962 0.34044 0.0
C122 C 0.08264 0.18606 0.40654 0.0
O123 O 0.14732 0.24749 0.39318 0.0
O124 O 0.12523 0.23286 0.34899 0.0
N125 N 0.11684 0.141 0.35734 0.0
C126 C 0.13577 0.14041 0.36994 0.0
C127 C 0.14448 0.1274 0.35389 0.0
C128 C 0.13336 0.11478 0.32545 0.0
C129 C 0.11374 0.11546 0.31323 0.0
C130 C 0.10609 0.12902 0.32994 0.0
H131 H 0.1442 0.14978 0.39203 0.0
O132 O 0.15656 0.21512 0.34967 0.0
O133 O 0.12046 0.18534 0.35517 0.0
O134 O 0.14426 0.20137 0.41649 0.0
O135 O 0.11768 0.16273 0.41629 0.0
C136 C 0.10128 0.10295 0.28535 0.0
C137 C 0.08177 0.10463 0.27429 0.0
H138 H 0.0466 0.11389 0.25843 0.0
H139 H 0.03677 0.14017 0.29011 0.0
H140 H 0.15961 0.12694 0.36356 0.0
H141 H 0.14 0.10461 0.31325 0.0
H142 H 0.1065 0.09184 0.27259 0.0
H143 H 0.07181 0.09445 0.25344 0.0
Mn144 Mn 0.78632 0.91905 0.37827 0.0
Mn145 Mn 0.84506 0.94889 0.36618 0.0
C146 C 0.80241 0.94648 0.33654 0.0
C147 C 0.74949 0.8864 0.36816 0.0
C148 C 0.82087 0.9603 0.42051 0.0
O149 O 0.79733 0.89955 0.4038 0.0
O150 O 0.83582 0.91936 0.39038 0.0
C151 C 0.84979 0.91561 0.32229 0.0
N152 N 0.85322 0.93755 0.32836 0.0
C153 C 0.87516 0.95269 0.27864 0.0
C154 C 0.87202 0.93031 0.27188 0.0
C155 C 0.85912 0.91164 0.2937 0.0
C156 C 0.86522 0.95551 0.30726 0.0
H157 H 0.84015 0.90131 0.33923 0.0
C158 C 0.81797 0.9021 0.40411 0.0
O159 O 0.75333 0.89923 0.39408 0.0
O160 O 0.76723 0.89207 0.34888 0.0
N161 N 0.85646 0.97779 0.34272 0.0
C162 C 0.85684 0.99796 0.35194 0.0
C163 C 0.86854 0.01818 0.33236 0.0
C164 C 0.87985 0.01748 0.30365 0.0
C165 C 0.87901 0.99644 0.29455 0.0
C166 C 0.86706 0.97686 0.31498 0.0
H167 H 0.84796 -0.00147 0.37374 0.0
O168 O 0.78164 0.9403 0.3479 0.0
O169 O 0.81305 0.93631 0.34965 0.0
O170 O 0.79971 0.94489 0.41341 0.0
O171 O 0.83874 0.96246 0.40505 0.0
C172 C 0.88969 0.99419 0.2661 0.0
C173 C 0.88785 0.97235 0.2582 0.0
H174 H 0.87934 0.92724 0.24997 0.0
H175 H 0.85655 0.8943 0.28862 0.0
H176 H 0.86886 0.03426 0.3394 0.0
H177 H 0.88903 0.03316 0.28871 0.0
H178 H 0.89937 0.00927 0.25037 0.0
H179 H 0.89637 0.97078 0.23655 0.0
Mn180 Mn 0.07516 0.86021 0.38014 0.0
Mn181 Mn 0.04674 0.89094 0.37611 0.0
C182 C 0.04626 0.85072 0.34117 0.0
C183 C 0.10702 0.85565 0.36669 0.0
C184 C 0.03782 0.85467 0.42835 0.0
O185 O 0.09599 0.88995 0.40698 0.0
O186 O 0.07822 0.91095 0.39522 0.0
C187 C 0.0764 0.92798 0.32853 0.0
N188 N 0.05499 0.9098 0.33767 0.0
C189 C 0.03593 0.91664 0.29246 0.0
C190 C 0.05769 0.93565 0.28272 0.0
C191 C 0.07807 0.94118 0.30064 0.0
C192 C 0.03542 0.90389 0.32007 0.0
H193 H 0.09203 0.93244 0.34251 0.0
C194 C 0.09514 0.90904 0.40744 0.0
O195 O 0.09453 0.84604 0.39268 0.0
O196 O 0.10131 0.86841 0.34884 0.0
N197 N 0.01595 0.87345 0.35752 0.0
C198 C 0.99644 0.85417 0.36961 0.0
C199 C 0.97483 0.84545 0.35331 0.0
C200 C 0.97338 0.85696 0.32523 0.0
C201 C 0.99362 0.87699 0.31363 0.0
C202 C 0.01474 0.88461 0.33052 0.0
H203 H -0.00265 0.84548 0.39147 0.0
O204 O 0.05255 0.83551 0.34928 0.0
O205 O 0.05742 0.87106 0.35548 0.0
O206 O 0.05045 0.84688 0.41625 0.0
O207 O 0.03652 0.87199 0.41652 0.0
C208 C 0.99358 0.88997 0.2863 0.0
C209 C 0.01469 0.90999 0.27606 0.0
H210 H 0.05897 0.94602 0.26141 0.0
H211 H 0.09496 0.95572 0.29318 0.0
H212 H 0.95928 0.83004 0.36253 0.0
H213 H 0.95664 0.85031 0.31287 0.0
H214 H 0.97733 0.8848 0.27335 0.0
H215 H 0.01451 0.92043 0.25582 0.0
Mn216 Mn 0.78402 0.86281 0.87838 0.0
Mn217 Mn 0.8429 0.89637 0.87565 0.0
C218 C 0.80527 0.85377 0.84196 0.0
C219 C 0.74707 0.85579 0.86281 0.0
C220 C 0.81612 0.86174 0.92988 0.0
O221 O 0.79107 0.89298 0.90281 0.0
O222 O 0.82949 0.91601 0.88981 0.0
C223 C 0.85013 0.93028 0.82304 0.0
N224 N 0.85384 0.91314 0.8355 0.0
C225 C 0.88122 0.91869 0.79271 0.0
C226 C 0.8779 0.93656 0.77951 0.0
C227 C 0.86208 0.94221 0.79456 0.0
C228 C 0.86851 0.90713 0.82073 0.0
H229 H 0.83828 0.93491 0.83488 0.0
C230 C 0.81004 0.91301 0.90148 0.0
O231 O 0.75016 0.84739 0.88985 0.0
O232 O 0.76559 0.86872 0.8451 0.0
N233 N 0.85774 0.87905 0.86177 0.0
C234 C 0.85841 0.86087 0.87693 0.0
C235 C 0.87232 0.85213 0.8638 0.0
C236 C 0.88581 0.8625 0.83566 0.0
C237 C 0.88507 0.88139 0.82077 0.0
C238 C 0.87052 0.88903 0.83456 0.0
H239 H 0.84844 0.85306 0.89887 0.0
O240 O 0.78391 0.83792 0.84979 0.0
O241 O 0.81311 0.87439 0.85489 0.0
O242 O 0.796 0.85171 0.91637 0.0
O243 O 0.83409 0.8798 0.91807 0.0
C244 C 0.89855 0.89321 0.79314 0.0
C245 C 0.89687 0.91207 0.77941 0.0
H246 H 0.88731 0.94598 0.75777 0.0
H247 H 0.85933 0.95591 0.78447 0.0
H248 H 0.87284 0.8376 0.87553 0.0
H249 H 0.89672 0.85589 0.82577 0.0
H250 H 0.91045 0.88806 0.78266 0.0
H251 H 0.9079 0.92164 0.75892 0.0
Mn252 Mn 0.13818 0.92224 0.8808 0.0
Mn253 Mn 0.10376 0.94668 0.87909 0.0
C254 C 0.14637 0.95249 0.84453 0.0
C255 C 0.14606 0.89297 0.86415 0.0
C256 C 0.13907 0.95533 0.93263 0.0
O257 O 0.10838 0.89866 0.90575 0.0
O258 O 0.08488 0.91371 0.89394 0.0
C259 C 0.06942 0.91902 0.82746 0.0
N260 N 0.08638 0.94015 0.83943 0.0
C261 C 0.07942 0.96123 0.797 0.0
C262 C 0.06171 0.93972 0.78432 0.0
C263 C 0.05688 0.91851 0.79942 0.0
C264 C 0.09165 0.9606 0.82455 0.0
H265 H 0.0654 0.90273 0.83938 0.0
C266 C 0.08827 0.89745 0.90537 0.0
O267 O 0.15438 0.90432 0.89131 0.0
O268 O 0.13257 0.89815 0.84712 0.0
N269 N 0.12028 0.97874 0.86466 0.0
C270 C 0.13841 0.99793 0.87928 0.0
C271 C 0.14639 0.02043 0.866 0.0
C272 C 0.1353 0.02302 0.83831 0.0
C273 C 0.11648 0.00305 0.82399 0.0
C274 C 0.10964 0.98103 0.83784 0.0
H275 H 0.14674 0.99614 0.90092 0.0
O276 O 0.16256 0.9474 0.852 0.0
O277 O 0.12592 0.93937 0.85777 0.0
O278 O 0.14914 0.94527 0.91903 0.0
O279 O 0.12093 0.95511 0.92098 0.0
C280 C 0.10392 0.00416 0.7969 0.0
C281 C 0.08519 0.98328 0.7837 0.0
H282 H 0.0518 0.9393 0.76294 0.0
H283 H 0.04331 0.90183 0.78971 0.0
H284 H 0.16088 0.03575 0.8773 0.0
H285 H 0.1413 0.04043 0.82834 0.0
H286 H 0.1084 0.02106 0.78646 0.0
H287 H 0.07511 0.9843 0.76355 0.0
Mn288 Mn 0.07365 0.2119 0.87994 0.0
Mn289 Mn 0.0467 0.15277 0.87726 0.0
C290 C 0.04397 0.19132 0.84242 0.0
C291 C 0.10449 0.24877 0.86527 0.0
C292 C 0.03854 0.18013 0.93029 0.0
O293 O 0.09564 0.20395 0.90571 0.0
O294 O 0.07919 0.16531 0.89334 0.0
C295 C 0.07427 0.14488 0.82668 0.0
N296 N 0.05328 0.14164 0.83785 0.0
C297 C 0.03225 0.11477 0.7942 0.0
C298 C 0.0536 0.11761 0.78236 0.0
C299 C 0.07474 0.13293 0.79849 0.0
C300 C 0.03293 0.12743 0.82204 0.0
H301 H 0.09049 0.15636 0.83933 0.0
C302 C 0.09584 0.18451 0.90526 0.0
O303 O 0.09247 0.24567 0.8918 0.0
O304 O 0.09897 0.23027 0.84756 0.0
N305 N 0.01501 0.13865 0.86162 0.0
C306 C 0.99598 0.13832 0.87565 0.0
C307 C 0.97365 0.12487 0.86139 0.0
C308 C 0.97103 0.11152 0.8333 0.0
C309 C 0.99081 0.11185 0.81963 0.0
C310 C 0.01267 0.12589 0.83457 0.0
H311 H -0.00225 0.14822 0.89752 0.0
O312 O 0.04988 0.21281 0.8501 0.0
O313 O 0.05597 0.18291 0.85619 0.0
O314 O 0.04972 0.20031 0.91702 0.0
O315 O 0.03809 0.1618 0.91885 0.0
C316 C 0.98961 0.09849 0.79209 0.0
C317 C 0.01028 0.09969 0.77969 0.0
H318 H 0.05398 0.10822 0.76082 0.0
H319 H 0.0913 0.13531 0.78942 0.0
H320 H 0.95846 0.12465 0.8722 0.0
H321 H 0.95375 0.101 0.8225 0.0
H322 H 0.97282 0.08705 0.78059 0.0
H323 H 0.00911 0.08872 0.7593 0.0
Mn324 Mn 0.86135 0.78149 0.60697 0.0
Mn325 Mn 0.89866 0.83977 0.61125 0.0
C326 C 0.85445 0.8041 0.64388 0.0
C327 C 0.85116 0.74352 0.62306 0.0
C328 C 0.86388 0.81587 0.55605 0.0
O329 O 0.89083 0.78634 0.58259 0.0
O330 O 0.91614 0.82418 0.5964 0.0
C331 C 0.93107 0.8432 0.66392 0.0
N332 N 0.91528 0.84892 0.65165 0.0
C333 C 0.92227 0.87576 0.69582 0.0
C334 C 0.93875 0.87031 0.70888 0.0
C335 C 0.943 0.85379 0.693 0.0
C336 C 0.91067 0.86439 0.66709 0.0
H337 H 0.93461 0.83076 0.65149 0.0
C338 C 0.91155 0.80439 0.58398 0.0
O339 O 0.84358 0.74735 0.59577 0.0
O340 O 0.86521 0.76179 0.64037 0.0
N341 N 0.88344 0.85656 0.62576 0.0
C342 C 0.86621 0.85903 0.61083 0.0
C343 C 0.85892 0.87395 0.62462 0.0
C344 C 0.8697 0.88649 0.65324 0.0
C345 C 0.8875 0.88379 0.66796 0.0
C346 C 0.89377 0.86839 0.65343 0.0
H347 H 0.85809 0.84975 0.58858 0.0
O348 O 0.83746 0.78343 0.63546 0.0
O349 O 0.87481 0.81047 0.63103 0.0
O350 O 0.85234 0.79547 0.56881 0.0
O351 O 0.8824 0.83277 0.56876 0.0
C352 C 0.89948 0.896 0.69625 0.0
C353 C 0.91701 0.89216 0.71002 0.0
H354 H 0.94813 0.87861 0.73115 0.0
H355 H 0.95562 0.84941 0.70298 0.0
H356 H 0.84519 0.87596 0.61305 0.0
H357 H 0.86418 0.89815 0.66368 0.0
H358 H 0.89539 0.90853 0.70727 0.0
H359 H 0.92654 0.90202 0.73134 0.0
Mn360 Mn 0.21286 0.07732 0.60442 0.0
Mn361 Mn 0.15415 0.05264 0.61046 0.0
C362 C 0.19257 0.04891 0.6438 0.0
C363 C 0.25031 0.10767 0.61747 0.0
C364 C 0.17888 0.04168 0.5565 0.0
O365 O 0.20536 0.09942 0.5781 0.0
O366 O 0.16731 0.08477 0.59256 0.0
C367 C 0.14945 0.08272 0.66028 0.0
N368 N 0.14491 0.06107 0.65004 0.0
C369 C 0.11981 0.04222 0.69619 0.0
C370 C 0.12402 0.06427 0.70715 0.0
C371 C 0.13908 0.08464 0.68925 0.0
C372 C 0.13087 0.04144 0.66743 0.0
H373 H 0.1608 0.09836 0.64635 0.0
C374 C 0.18641 0.1005 0.57914 0.0
O375 O 0.24655 0.09508 0.59133 0.0
O376 O 0.2322 0.10301 0.6355 0.0
N377 N 0.13955 0.02141 0.62792 0.0
C378 C 0.1381 0.00161 0.61478 0.0
C379 C 0.12473 0.97988 0.63069 0.0
C380 C 0.11266 0.97867 0.6596 0.0
C381 C 0.11423 -0.00075 0.67241 0.0
C382 C 0.12807 0.02044 0.65575 0.0
H383 H 0.14706 0.00233 0.59235 0.0
O384 O 0.21357 0.05378 0.63502 0.0
O385 O 0.1845 0.06117 0.62985 0.0
O386 O 0.19954 0.05251 0.56843 0.0
O387 O 0.16135 0.04228 0.56894 0.0
C388 C 0.10238 -0.00048 0.70087 0.0
C389 C 0.10498 0.02097 0.71257 0.0
H390 H 0.11589 0.06579 0.72936 0.0
H391 H 0.14252 0.10175 0.69762 0.0
H392 H 0.12358 0.96408 0.62057 0.0
H393 H 0.10222 0.96186 0.67171 0.0
H394 H 0.09111 0.98323 0.71364 0.0
H395 H 0.09538 0.021 0.73397 0.0
Mn396 Mn 0.91641 0.13508 0.60748 0.0
Mn397 Mn 0.93718 0.09763 0.60936 0.0
C398 C 0.94488 0.14072 0.64519 0.0
C399 C 0.88758 0.1438 0.62312 0.0
C400 C 0.94965 0.13489 0.55707 0.0
O401 O 0.89308 0.1069 0.58009 0.0
O402 O 0.9043 0.08046 0.59314 0.0
C403 C 0.90718 0.06345 0.65991 0.0
N404 N 0.92893 0.07967 0.64873 0.0
C405 C 0.94786 0.07207 0.69352 0.0
C406 C 0.92569 0.05518 0.70547 0.0
C407 C 0.90525 0.05098 0.6887 0.0
C408 C 0.94867 0.08414 0.66496 0.0
H409 H 0.89147 0.06001 0.64685 0.0
C410 C 0.88996 0.086 0.58012 0.0
O411 O 0.90006 0.15291 0.59693 0.0
O412 O 0.89152 0.12925 0.63968 0.0
N413 N 0.9689 0.1124 0.62497 0.0
C414 C 0.98892 0.12992 0.61097 0.0
C415 C 0.01082 0.13696 0.62552 0.0
C416 C 0.01198 0.12567 0.65397 0.0
C417 C 0.99118 0.10754 0.6677 0.0
C418 C 0.96983 0.10145 0.65236 0.0
H419 H 0.98826 0.13848 0.58888 0.0
O420 O 0.941 0.15781 0.63819 0.0
O421 O 0.93139 0.12079 0.6308 0.0
O422 O 0.94077 0.14604 0.5709 0.0
O423 O 0.94728 0.11553 0.5679 0.0
C424 C 0.99084 0.09514 0.69585 0.0
C425 C 0.96921 0.07734 0.70873 0.0
H426 H 0.92414 0.04541 0.72755 0.0
H427 H 0.88806 0.03803 0.69781 0.0
H428 H 0.02679 0.15094 0.6147 0.0
H429 H 0.02893 0.13104 0.66505 0.0
H430 H 0.00723 0.09915 0.70747 0.0
H431 H 0.96916 0.0677 0.73019 0.0
Mn432 Mn 0.87873 0.47086 0.43613 0.0
Mn433 Mn 0.81952 0.4407 0.43604 0.0
C434 C 0.85815 0.48141 0.47175 0.0
C435 C 0.91454 0.47536 0.453 0.0
C436 C 0.84918 0.47596 0.38393 0.0
O437 O 0.87046 0.44059 0.41103 0.0
O438 O 0.83133 0.42 0.42048 0.0
C439 C 0.80884 0.40397 0.48578 0.0
N440 N 0.80664 0.42232 0.47454 0.0
C441 C 0.77671 0.41495 0.51418 0.0
C442 C 0.77849 0.39583 0.52612 0.0
C443 C 0.79486 0.39052 0.51213 0.0
C444 C 0.79158 0.42811 0.48858 0.0
H445 H 0.82099 0.3995 0.4745 0.0
C446 C 0.8505 0.42155 0.41019 0.0
O447 O 0.9126 0.48455 0.42597 0.0
O448 O 0.89548 0.46306 0.47003 0.0
N449 N 0.80588 0.45885 0.45106 0.0
C450 C 0.80723 0.47855 0.43776 0.0
C451 C 0.79329 0.48734 0.45064 0.0
C452 C 0.77763 0.4754 0.47638 0.0
C453 C 0.77638 0.455 0.48935 0.0
C454 C 0.79127 0.44754 0.47627 0.0
H455 H 0.81878 0.48746 0.41745 0.0
O456 O 0.88001 0.49621 0.46472 0.0
O457 O 0.84927 0.46068 0.45862 0.0
O458 O 0.86905 0.48388 0.39772 0.0
O459 O 0.83012 0.45889 0.3951 0.0
C460 C 0.76058 0.44147 0.51425 0.0
C461 C 0.76052 0.42124 0.52631 0.0
H462 H 0.76742 0.38517 0.54606 0.0
H463 H 0.7964 0.37584 0.52124 0.0
H464 H 0.79431 0.50306 0.44039 0.0
H465 H 0.76657 0.48197 0.48586 0.0
H466 H 0.74828 0.44638 0.524 0.0
H467 H 0.74807 0.41067 0.54509 0.0
Mn468 Mn 0.52946 0.41242 0.44127 0.0
Mn469 Mn 0.56313 0.3872 0.44592 0.0
C470 C 0.5206 0.38285 0.47904 0.0
C471 C 0.52202 0.44238 0.45566 0.0
C472 C 0.52808 0.37768 0.39166 0.0
O473 O 0.55953 0.43525 0.41626 0.0
O474 O 0.58235 0.41966 0.42933 0.0
C475 C 0.59742 0.41625 0.49681 0.0
N476 N 0.58043 0.39481 0.48574 0.0
C477 C 0.58659 0.37499 0.53066 0.0
C478 C 0.60436 0.39681 0.54242 0.0
C479 C 0.60962 0.41756 0.52559 0.0
C480 C 0.57478 0.37482 0.50221 0.0
H481 H 0.60169 0.43219 0.48368 0.0
C482 C 0.57943 0.436 0.41713 0.0
O483 O 0.51377 0.43048 0.42888 0.0
O484 O 0.53517 0.4373 0.47366 0.0
N485 N 0.54637 0.35561 0.46212 0.0
C486 C 0.52832 0.33604 0.44807 0.0
C487 C 0.52004 0.31396 0.46291 0.0
C488 C 0.53071 0.31216 0.4916 0.0
C489 C 0.54949 0.3325 0.50529 0.0
C490 C 0.55672 0.35407 0.48975 0.0
H491 H 0.52027 0.33722 0.42575 0.0
O492 O 0.50468 0.38806 0.47054 0.0
O493 O 0.54118 0.39544 0.46584 0.0
O494 O 0.51849 0.38862 0.40401 0.0
O495 O 0.54592 0.37768 0.40407 0.0
C496 C 0.56156 0.33217 0.53344 0.0
C497 C 0.5803 0.35339 0.54586 0.0
H498 H 0.61397 0.39784 0.56443 0.0
H499 H 0.62321 0.43448 0.53459 0.0
H500 H 0.5056 0.29834 0.45209 0.0
H501 H 0.52442 0.29507 0.50284 0.0
H502 H 0.55667 0.31561 0.54537 0.0
H503 H 0.59004 0.35299 0.56684 0.0
Mn504 Mn 0.58293 0.11577 0.44114 0.0
Mn505 Mn 0.60941 0.17484 0.44397 0.0
C506 C 0.61221 0.13653 0.47921 0.0
C507 C 0.55225 0.07887 0.45617 0.0
C508 C 0.61861 0.14787 0.39142 0.0
O509 O 0.56095 0.12336 0.4147 0.0
O510 O 0.5773 0.16209 0.4264 0.0
C511 C 0.58037 0.18192 0.49299 0.0
N512 N 0.60172 0.18561 0.48278 0.0
C513 C 0.62151 0.21239 0.52697 0.0
C514 C 0.59977 0.2091 0.53786 0.0
C515 C 0.57907 0.1936 0.52097 0.0
C516 C 0.62165 0.19998 0.49932 0.0
H517 H 0.56449 0.17027 0.47978 0.0
C518 C 0.56081 0.14284 0.41439 0.0
O519 O 0.56434 0.08185 0.42972 0.0
O520 O 0.55753 0.09749 0.47342 0.0
N521 N 0.64071 0.18916 0.461 0.0
C522 C 0.66011 0.18956 0.44819 0.0
C523 C 0.68206 0.20312 0.46339 0.0
C524 C 0.68393 0.2165 0.49116 0.0
C525 C 0.66375 0.21599 0.50364 0.0
C526 C 0.64229 0.20182 0.48784 0.0
H527 H 0.65888 0.17963 0.42655 0.0
O528 O 0.60661 0.11514 0.47147 0.0
O529 O 0.60017 0.14477 0.46507 0.0
O530 O 0.60714 0.12752 0.40426 0.0
O531 O 0.61908 0.16614 0.40306 0.0
C532 C 0.66415 0.22924 0.53087 0.0
C533 C 0.64306 0.22763 0.54231 0.0
H534 H 0.59876 0.21828 0.55924 0.0
H535 H 0.56221 0.19087 0.52929 0.0
H536 H 0.69755 0.20345 0.45353 0.0
H537 H 0.70093 0.22712 0.50266 0.0
H538 H 0.68067 0.24086 0.54286 0.0
H539 H 0.64352 0.23827 0.56274 0.0
Mn540 Mn 0.80053 0.54601 0.7166 0.0
Mn541 Mn 0.77492 0.48703 0.70779 0.0
C542 C 0.8116 0.53007 0.67434 0.0
C543 C 0.8026 0.58183 0.70579 0.0
C544 C 0.81236 0.51465 0.75821 0.0
O545 O 0.77068 0.53406 0.74415 0.0
O546 O 0.75506 0.49518 0.73493 0.0
C547 C 0.73325 0.47893 0.66953 0.0
N548 N 0.75287 0.47695 0.67273 0.0
C549 C 0.74464 0.45533 0.62255 0.0
C550 C 0.72422 0.45692 0.6188 0.0
C551 C 0.71859 0.46892 0.6423 0.0
C552 C 0.75867 0.4658 0.65 0.0
H553 H 0.72878 0.48803 0.68762 0.0
C554 C 0.75425 0.51266 0.74742 0.0
O555 O 0.81268 0.579 0.73126 0.0
O556 O 0.79045 0.56355 0.6874 0.0
N557 N 0.79203 0.47655 0.68155 0.0
C558 C 0.81261 0.47702 0.68835 0.0
C559 C 0.8212 0.46653 0.66657 0.0
C560 C 0.80831 0.45528 0.63838 0.0
C561 C 0.78693 0.45461 0.63229 0.0
C562 C 0.77935 0.4655 0.65473 0.0
H563 H 0.82244 0.4854 0.71014 0.0
O564 O 0.8258 0.55133 0.68448 0.0
O565 O 0.79146 0.51876 0.68918 0.0
O566 O 0.81544 0.53493 0.7512 0.0
O567 O 0.79763 0.49569 0.74382 0.0
C568 C 0.77283 0.4435 0.60487 0.0
C569 C 0.75162 0.44377 0.60012 0.0
H570 H 0.71282 0.44912 0.59788 0.0
H571 H 0.70292 0.47034 0.63953 0.0
H572 H 0.83765 0.46704 0.67156 0.0
H573 H 0.81496 0.44719 0.62161 0.0
H574 H 0.77821 0.43469 0.58749 0.0
H575 H 0.74062 0.43497 0.57931 0.0
Mn576 Mn 0.44965 0.25238 0.71254 0.0
Mn577 Mn 0.50848 0.27706 0.7107 0.0
C578 C 0.47157 0.28301 0.67677 0.0
C579 C 0.41256 0.22301 0.69624 0.0
C580 C 0.48161 0.28485 0.76486 0.0
O581 O 0.45604 0.22873 0.7368 0.0
O582 O 0.49456 0.24392 0.72468 0.0
C583 C 0.51548 0.25021 0.65811 0.0
N584 N 0.51946 0.27113 0.67067 0.0
C585 C 0.54744 0.29288 0.62843 0.0
C586 C 0.54381 0.2716 0.6151 0.0
C587 C 0.52755 0.25015 0.62982 0.0
C588 C 0.53453 0.29181 0.65618 0.0
H589 H 0.50333 0.23374 0.66976 0.0
C590 C 0.47495 0.22754 0.73602 0.0
O591 O 0.41569 0.23428 0.72349 0.0
O592 O 0.43112 0.22844 0.67871 0.0
N593 N 0.52385 0.30929 0.69709 0.0
C594 C 0.52478 0.32822 0.71238 0.0
C595 C 0.53925 0.35091 0.69966 0.0
C596 C 0.55301 0.35396 0.67185 0.0
C597 C 0.55196 0.33423 0.65682 0.0
C598 C 0.53682 0.31201 0.67013 0.0
H599 H 0.51463 0.32608 0.73412 0.0
O600 O 0.45024 0.2777 0.68439 0.0
O601 O 0.479 0.26983 0.68952 0.0
O602 O 0.46159 0.275 0.75108 0.0
O603 O 0.4996 0.28483 0.75305 0.0
C604 C 0.5657 0.33579 0.62956 0.0
C605 C 0.56362 0.31513 0.61558 0.0
H606 H 0.55334 0.27152 0.59354 0.0
H607 H 0.52459 0.23364 0.61965 0.0
H608 H 0.54 0.36605 0.71149 0.0
H609 H 0.56439 0.37152 0.66233 0.0
H610 H 0.57811 0.35287 0.61957 0.0
H611 H 0.57471 0.31648 0.5952 0.0
Mn612 Mn 0.73982 0.19459 0.71636 0.0
Mn613 Mn 0.7123 0.2262 0.71338 0.0
C614 C 0.71039 0.18532 0.67837 0.0
C615 C 0.77114 0.18945 0.70146 0.0
C616 C 0.70357 0.19007 0.76579 0.0
O617 O 0.76136 0.22431 0.74276 0.0
O618 O 0.74425 0.24599 0.73133 0.0
C619 C 0.74135 0.26265 0.66472 0.0
N620 N 0.72003 0.24471 0.67462 0.0
C621 C 0.70036 0.25134 0.62997 0.0
C622 C 0.72204 0.27007 0.61942 0.0
C623 C 0.74268 0.27558 0.63669 0.0
C624 C 0.70019 0.23884 0.65768 0.0
H625 H 0.75719 0.26712 0.67822 0.0
C626 C 0.76104 0.24367 0.7432 0.0
O627 O 0.75908 0.18002 0.72784 0.0
O628 O 0.76536 0.20238 0.68416 0.0
N629 N 0.68111 0.20893 0.69598 0.0
C630 C 0.66169 0.18996 0.70884 0.0
C631 C 0.63981 0.18133 0.69334 0.0
C632 C 0.63802 0.19261 0.66524 0.0
C633 C 0.65818 0.21233 0.65283 0.0
C634 C 0.67958 0.21986 0.66895 0.0
H635 H 0.66286 0.18144 0.73071 0.0
O636 O 0.71653 0.16993 0.68611 0.0
O637 O 0.72206 0.20572 0.69239 0.0
O638 O 0.71559 0.18173 0.7532 0.0
O639 O 0.70262 0.20763 0.75413 0.0
C640 C 0.65782 0.22505 0.62542 0.0
C641 C 0.67886 0.24475 0.61428 0.0
H642 H 0.72307 0.28024 0.59801 0.0
H643 H 0.75951 0.28992 0.62863 0.0
H644 H 0.62432 0.16616 0.70318 0.0
H645 H 0.62108 0.18604 0.65349 0.0
H646 H 0.64136 0.21994 0.61309 0.0
H647 H 0.67841 0.25495 0.59388 0.0
Mn648 Mn 0.44933 0.19789 0.21352 0.0
Mn649 Mn 0.50829 0.23023 0.20768 0.0
C650 C 0.46902 0.18825 0.17506 0.0
C651 C 0.41222 0.19161 0.19997 0.0
C652 C 0.48254 0.19536 0.26215 0.0
O653 O 0.45772 0.22812 0.23891 0.0
O654 O 0.49608 0.25013 0.22509 0.0
C655 C 0.51414 0.2651 0.15732 0.0
N656 N 0.51796 0.24759 0.16787 0.0
C657 C 0.54308 0.25298 0.12209 0.0
C658 C 0.5396 0.27123 0.1108 0.0
C659 C 0.52487 0.27716 0.12835 0.0
C660 C 0.53161 0.24135 0.15076 0.0
H661 H 0.5031 0.26992 0.17104 0.0
C662 C 0.4772 0.24771 0.23798 0.0
O663 O 0.41571 0.18302 0.22655 0.0
O664 O 0.43045 0.20444 0.18175 0.0
N665 N 0.52216 0.21277 0.19075 0.0
C666 C 0.52328 0.19442 0.20452 0.0
C667 C 0.5364 0.18558 0.18911 0.0
C668 C 0.54862 0.19601 0.16012 0.0
C669 C 0.54748 0.2151 0.14673 0.0
C670 C 0.53382 0.22291 0.16286 0.0
H671 H 0.51425 0.18655 0.22706 0.0
O672 O 0.44778 0.17277 0.18391 0.0
O673 O 0.4777 0.20889 0.1883 0.0
O674 O 0.46191 0.18623 0.25027 0.0
O675 O 0.50055 0.2129 0.24945 0.0
C676 C 0.55967 0.22695 0.1183 0.0
C677 C 0.55768 0.24606 0.10621 0.0
H678 H 0.54807 0.28073 0.08864 0.0
H679 H 0.52202 0.29115 0.11975 0.0
H680 H 0.53726 0.1709 0.19971 0.0
H681 H 0.55889 0.18928 0.14843 0.0
H682 H 0.57082 0.22159 0.10591 0.0
H683 H 0.56764 0.25558 0.08495 0.0
Mn684 Mn 0.79924 0.25248 0.21706 0.0
Mn685 Mn 0.76576 0.27787 0.21387 0.0
C686 C 0.80798 0.28229 0.1797 0.0
C687 C 0.80605 0.22221 0.20192 0.0
C688 C 0.80059 0.28619 0.26795 0.0
O689 O 0.76922 0.22981 0.24238 0.0
O690 O 0.74611 0.24497 0.22872 0.0
C691 C 0.73152 0.25083 0.16182 0.0
N692 N 0.7488 0.27175 0.17389 0.0
C693 C 0.74322 0.29332 0.13074 0.0
C694 C 0.72523 0.27204 0.11793 0.0
C695 C 0.71953 0.25067 0.13336 0.0
C696 C 0.75483 0.29234 0.15878 0.0
H697 H 0.72684 0.23443 0.17398 0.0
C698 C 0.7492 0.22878 0.24115 0.0
O699 O 0.8147 0.23402 0.22867 0.0
O700 O 0.79296 0.22763 0.18436 0.0
N701 N 0.78316 0.30989 0.19938 0.0
C702 C 0.80157 0.3288 0.21407 0.0
C703 C 0.81039 0.35135 0.20053 0.0
C704 C 0.79989 0.3543 0.17245 0.0
C705 C 0.78081 0.33462 0.15802 0.0
C706 C 0.77308 0.31252 0.17221 0.0
H707 H 0.80949 0.32677 0.23595 0.0
O708 O 0.82387 0.27687 0.18759 0.0
O709 O 0.78753 0.26973 0.1932 0.0
O710 O 0.8107 0.27612 0.25453 0.0
O711 O 0.78248 0.28594 0.25611 0.0
C712 C 0.76891 0.33611 0.13042 0.0
C713 C 0.74992 0.31551 0.11704 0.0
H714 H 0.71577 0.27188 0.09619 0.0
H715 H 0.70573 0.23416 0.12356 0.0
H716 H 0.82508 0.36645 0.21191 0.0
H717 H 0.80656 0.37176 0.16225 0.0
H718 H 0.77411 0.35311 0.11969 0.0
H719 H 0.74039 0.31689 0.09645 0.0
Mn720 Mn 0.7418 0.54853 0.21392 0.0
Mn721 Mn 0.71764 0.48979 0.21578 0.0
C722 C 0.71108 0.52531 0.17898 0.0
C723 C 0.77101 0.5852 0.19578 0.0
C724 C 0.71018 0.51818 0.26796 0.0
O725 O 0.76574 0.54302 0.23903 0.0
O726 O 0.75113 0.50435 0.22818 0.0
C727 C 0.74312 0.48077 0.16318 0.0
N728 N 0.72254 0.47718 0.17651 0.0
C729 C 0.69971 0.44706 0.13721 0.0
C730 C 0.72063 0.45026 0.12317 0.0
C731 C 0.74244 0.46739 0.13599 0.0
C732 C 0.7015 0.46127 0.16375 0.0
H733 H 0.75987 0.49364 0.17336 0.0
C734 C 0.7674 0.52436 0.23861 0.0
O735 O 0.75978 0.58281 0.22289 0.0
O736 O 0.76555 0.56617 0.17941 0.0
N737 N 0.68511 0.47396 0.20365 0.0
C738 C 0.6666 0.47401 0.21879 0.0
C739 C 0.64361 0.45897 0.20757 0.0
C740 C 0.63983 0.44365 0.1814 0.0
C741 C 0.65914 0.44384 0.16637 0.0
C742 C 0.68169 0.45963 0.17806 0.0
H743 H 0.66928 0.48534 0.23934 0.0
O744 O 0.71622 0.54681 0.18516 0.0
O745 O 0.72445 0.51849 0.19265 0.0
O746 O 0.71931 0.53762 0.25265 0.0
O747 O 0.7108 0.50013 0.25767 0.0
C748 C 0.65686 0.42867 0.14062 0.0
C749 C 0.67713 0.43014 0.12621 0.0
H750 H 0.72016 0.43975 0.10248 0.0
H751 H 0.75868 0.47005 0.12521 0.0
H752 H 0.62881 0.45893 0.21937 0.0
H753 H 0.62204 0.43181 0.17309 0.0
H754 H 0.63954 0.41567 0.13213 0.0
H755 H 0.6752 0.41808 0.10684 0.0
Mn756 Mn 0.52209 0.11308 0.93939 0.0
Mn757 Mn 0.55698 0.17188 0.94042 0.0
C758 C 0.51448 0.13554 0.97574 0.0
C759 C 0.51405 0.07591 0.95599 0.0
C760 C 0.52113 0.14512 0.88748 0.0
O761 O 0.55155 0.11889 0.91389 0.0
O762 O 0.57549 0.15744 0.92541 0.0
C763 C 0.59148 0.17838 0.99168 0.0
N764 N 0.57466 0.18278 0.97982 0.0
C765 C 0.58217 0.21105 0.02215 0.0
C766 C 0.59975 0.20703 0.03469 0.0
C767 C 0.60424 0.19041 0.01959 0.0
C768 C 0.5697 0.19818 -0.00526 0.0
H769 H 0.59521 0.1659 0.97978 0.0
C770 C 0.57178 0.13767 0.914 0.0
O771 O 0.50555 0.07896 0.92902 0.0
O772 O 0.52776 0.09458 0.97292 0.0
N773 N 0.54087 0.18779 0.95497 0.0
C774 C 0.52281 0.18904 0.94049 0.0
C775 C 0.5152 0.20386 0.95376 0.0
C776 C 0.52658 0.21763 0.98128 0.0
C777 C 0.54531 0.21625 -0.00454 0.0
C778 C 0.55178 0.20079 0.98162 0.0
H779 H 0.51427 0.17887 0.91897 0.0
O780 O 0.4981 0.11426 0.96859 0.0
O781 O 0.53478 0.14261 0.96218 0.0
O782 O 0.51101 0.12511 0.90139 0.0
O783 O 0.53949 0.16303 0.89875 0.0
C784 C 0.55813 0.22996 0.02238 0.0
C785 C 0.57674 0.22756 0.03547 0.0
H786 H 0.60984 0.21652 0.05597 0.0
H787 H 0.6177 0.18711 0.0292 0.0
H788 H 0.50078 0.20487 0.94258 0.0
H789 H 0.52087 0.22927 0.99123 0.0
H790 H 0.55394 0.2426 0.03279 0.0
H791 H 0.58698 0.23864 0.05555 0.0
Mn792 Mn 0.88151 0.409 0.94238 0.0
Mn793 Mn 0.82319 0.38747 0.94607 0.0
C794 C 0.85944 0.38077 0.98104 0.0
C795 C 0.91925 0.43814 0.95672 0.0
C796 C 0.84754 0.37513 0.89307 0.0
O797 O 0.87597 0.43207 0.91524 0.0
O798 O 0.83829 0.42011 0.92911 0.0
C799 C 0.81921 0.41776 -0.00372 0.0
N800 N 0.81386 0.39597 0.98555 0.0
C801 C 0.78777 0.37726 0.03089 0.0
C802 C 0.79285 0.39948 0.04237 0.0
C803 C 0.8088 0.41984 0.02512 0.0
C804 C 0.79891 0.37631 0.00228 0.0
H805 H 0.83123 0.4334 0.98282 0.0
C806 C 0.85792 0.43473 0.91568 0.0
O807 O 0.91551 0.4255 0.93062 0.0
O808 O 0.90101 0.43419 0.97394 0.0
N809 N 0.80679 0.3559 0.96243 0.0
C810 C 0.80438 0.33584 0.94874 0.0
C811 C 0.78992 0.31403 0.9639 0.0
C812 C 0.77777 0.31301 0.99263 0.0
C813 C 0.7803 0.33385 0.00599 0.0
C814 C 0.79518 0.35511 0.99006 0.0
H815 H 0.81339 0.3364 0.92645 0.0
O816 O 0.88031 0.38471 0.97328 0.0
O817 O 0.8526 0.39394 0.96668 0.0
O818 O 0.8678 0.3844 0.90619 0.0
O819 O 0.83052 0.37713 0.90457 0.0
C820 C 0.76844 0.33432 0.0343 0.0
C821 C 0.77198 0.35599 0.04657 0.0
H822 H 0.78471 0.40113 0.06447 0.0
H823 H 0.81288 0.43706 0.03387 0.0
H824 H 0.78802 0.29802 0.95335 0.0
H825 H 0.76652 0.29614 0.00419 0.0
H826 H 0.75641 0.31802 0.04647 0.0
H827 H 0.76234 0.35616 0.06788 0.0
Mn828 Mn 0.58301 0.46328 0.94234 0.0
Mn829 Mn 0.60641 0.42832 0.95233 0.0
C830 C 0.61168 0.47249 0.98148 0.0
C831 C 0.55333 0.47167 0.95442 0.0
C832 C 0.61797 0.46205 0.89552 0.0
O833 O 0.56023 0.43291 0.91813 0.0
O834 O 0.57417 0.4094 0.93489 0.0
C835 C 0.57588 0.39581 0.00396 0.0
N836 N 0.59767 0.41219 0.99314 0.0
C837 C 0.61614 0.40699 0.04053 0.0
C838 C 0.59392 0.38994 0.05217 0.0
C839 C 0.57368 0.38448 0.03392 0.0
C840 C 0.6172 0.41794 0.0108 0.0
H841 H 0.56033 0.39132 0.98972 0.0
C842 C 0.5587 0.41273 0.92065 0.0
O843 O 0.56558 0.4793 0.92773 0.0
O844 O 0.5579 0.45866 0.97346 0.0
N845 N 0.63775 0.44475 0.96938 0.0
C846 C 0.65784 0.46189 0.95504 0.0
C847 C 0.67954 0.47013 0.97091 0.0
C848 C 0.68042 0.46035 0.00099 0.0
C849 C 0.65956 0.44246 0.01494 0.0
C850 C 0.63842 0.43518 -0.00176 0.0
H851 H 0.65736 0.46926 0.93172 0.0
O852 O 0.60712 0.48851 0.97116 0.0
O853 O 0.59893 0.45161 0.96925 0.0
O854 O 0.60747 0.4727 0.9059 0.0
O855 O 0.61699 0.44428 0.9098 0.0
C856 C 0.65897 0.43134 0.04454 0.0
C857 C 0.63729 0.41341 0.0571 0.0
H858 H 0.59219 0.38101 0.07512 0.0
H859 H 0.55646 0.37139 0.04276 0.0
H860 H 0.69556 0.48387 0.95987 0.0
H861 H 0.6972 0.46664 0.01309 0.0
H862 H 0.67516 0.43635 0.05749 0.0
H863 H 0.637 0.40438 0.07925 0.0
Mn864 Mn 0.54765 0.8028 0.77119 0.0
Mn865 Mn 0.48874 0.76954 0.77292 0.0
C866 C 0.52621 0.81196 0.80722 0.0
C867 C 0.58443 0.80958 0.78721 0.0
C868 C 0.51617 0.80457 0.71935 0.0
O869 O 0.54067 0.77281 0.74624 0.0
O870 O 0.50212 0.74991 0.75855 0.0
C871 C 0.48098 0.73505 0.8249 0.0
N872 N 0.47729 0.75223 0.81256 0.0
C873 C 0.44813 0.74498 0.85341 0.0
C874 C 0.45141 0.72703 0.86647 0.0
C875 C 0.46815 0.72226 0.8524 0.0
C876 C 0.4619 0.75755 0.82662 0.0
H877 H 0.49345 0.73103 0.81367 0.0
C878 C 0.52157 0.75289 0.74699 0.0
O879 O 0.58155 0.81813 0.76017 0.0
O880 O 0.56578 0.79659 0.80467 0.0
N881 N 0.47374 0.78667 0.7869 0.0
C882 C 0.47343 0.80519 0.77223 0.0
C883 C 0.45881 0.81329 0.78476 0.0
C884 C 0.44419 0.80185 0.81162 0.0
C885 C 0.44462 0.78266 0.82601 0.0
C886 C 0.46008 0.77585 0.81312 0.0
H887 H 0.48418 0.81369 0.75111 0.0
O888 O 0.54771 0.82764 0.79975 0.0
O889 O 0.51833 0.79129 0.79436 0.0
O890 O 0.53617 0.81427 0.73312 0.0
O891 O 0.49797 0.7866 0.73087 0.0
C892 C 0.42992 0.76965 0.85213 0.0
C893 C 0.43148 0.75062 0.86555 0.0
H894 H 0.44124 0.71688 0.88733 0.0
H895 H 0.47086 0.70851 0.86239 0.0
H896 H 0.45853 0.82806 0.77341 0.0
H897 H 0.43262 0.80787 0.82088 0.0
H898 H 0.41718 0.77402 0.8617 0.0
H899 H 0.4198 0.74037 0.88521 0.0
Mn900 Mn 0.19166 0.74207 0.7711 0.0
Mn901 Mn 0.21659 0.70806 0.7796 0.0
C902 C 0.18 0.71464 0.81294 0.0
C903 C 0.18958 0.77578 0.78224 0.0
C904 C 0.17904 0.69854 0.72951 0.0
O905 O 0.22172 0.7602 0.74423 0.0
O906 O 0.23618 0.73581 0.75169 0.0
C907 C 0.25908 0.74191 0.8164 0.0
N908 N 0.23949 0.72021 0.81366 0.0
C909 C 0.24983 0.7064 0.8617 0.0
C910 C 0.27023 0.72851 0.86493 0.0
C911 C 0.27477 0.74641 0.84232 0.0
C912 C 0.23471 0.70305 0.83566 0.0
H913 H 0.26277 0.75563 0.79888 0.0
C914 C 0.23758 0.75459 0.73999 0.0
O915 O 0.17975 0.76311 0.75649 0.0
O916 O 0.20145 0.7694 0.80078 0.0
N917 N 0.20008 0.68072 0.80647 0.0
C918 C 0.17901 0.66085 0.80101 0.0
C919 C 0.17143 0.64147 0.82203 0.0
C920 C 0.18578 0.6426 0.84815 0.0
C921 C 0.20738 0.66328 0.85334 0.0
C922 C 0.21392 0.68206 0.83171 0.0
H923 H 0.16807 0.65987 0.78089 0.0
O924 O 0.16602 0.72185 0.80243 0.0
O925 O 0.20039 0.72352 0.79868 0.0
O926 O 0.17705 0.71652 0.73572 0.0
O927 O 0.19303 0.69363 0.7446 0.0
C928 C 0.22271 0.66596 0.87905 0.0
C929 C 0.24394 0.68753 0.88324 0.0
H930 H 0.28246 0.73198 0.88476 0.0
H931 H 0.29042 0.76356 0.8447 0.0
H932 H 0.15467 0.62564 0.81794 0.0
H933 H 0.18002 0.62751 0.86408 0.0
H934 H 0.21823 0.65147 0.8956 0.0
H935 H 0.25573 0.68952 0.90296 0.0
Mn936 Mn 0.25143 0.44863 0.77332 0.0
Mn937 Mn 0.27557 0.50742 0.77671 0.0
C938 C 0.28079 0.47016 0.81101 0.0
C939 C 0.22178 0.41116 0.7881 0.0
C940 C 0.28521 0.48165 0.72285 0.0
O941 O 0.22833 0.45523 0.74783 0.0
O942 O 0.24284 0.4935 0.76103 0.0
C943 C 0.24714 0.51336 0.82795 0.0
N944 N 0.26843 0.51771 0.81642 0.0
C945 C 0.28883 0.54486 0.86004 0.0
C946 C 0.26714 0.54086 0.87231 0.0
C947 C 0.24618 0.52484 0.85637 0.0
C948 C 0.28864 0.53261 0.83201 0.0
H949 H 0.23104 0.50134 0.81544 0.0
C950 C 0.22693 0.47403 0.74872 0.0
O951 O 0.23383 0.41474 0.76146 0.0
O952 O 0.22659 0.42947 0.8058 0.0
N953 N 0.30737 0.5227 0.79201 0.0
C954 C 0.32673 0.52378 0.7779 0.0
C955 C 0.34899 0.53792 0.79202 0.0
C956 C 0.35116 0.55116 0.82007 0.0
C957 C 0.33101 0.54992 0.83391 0.0
C958 C 0.30925 0.53519 0.81916 0.0
H959 H 0.32527 0.51397 0.75605 0.0
O960 O 0.27599 0.44904 0.80299 0.0
O961 O 0.26793 0.47762 0.79738 0.0
O962 O 0.27521 0.46138 0.73603 0.0
O963 O 0.28461 0.49932 0.73477 0.0
C964 C 0.3317 0.563 0.86151 0.0
C965 C 0.31064 0.56067 0.87433 0.0
H966 H 0.26638 0.54988 0.89402 0.0
H967 H 0.22937 0.52157 0.86574 0.0
H968 H 0.36445 0.5388 0.78111 0.0
H969 H 0.36839 0.56225 0.83072 0.0
H970 H 0.34842 0.57504 0.87268 0.0
H971 H 0.31133 0.57127 0.89495 0.0
Mn972 Mn 0.46856 0.87922 0.04881 0.0
Mn973 Mn 0.44113 0.81999 0.04265 0.0
C974 C 0.4791 0.86165 0.00815 0.0
C975 C 0.47153 0.9152 0.03651 0.0
C976 C 0.47799 0.84791 0.09375 0.0
O977 O 0.43861 0.86853 0.07583 0.0
O978 O 0.42095 0.82947 0.06633 0.0
C979 C 0.40137 0.8121 0.00012 0.0
N980 N 0.42046 0.8096 0.006 0.0
C981 C 0.41333 0.78643 0.95752 0.0
C982 C 0.39341 0.78846 0.9511 0.0
C983 C 0.38752 0.80154 0.97237 0.0
C984 C 0.42658 0.79753 0.98533 0.0
H985 H 0.39673 0.82205 0.0165 0.0
C986 C 0.42106 0.8476 0.07814 0.0
O987 O 0.48141 0.9125 0.0623 0.0
O988 O 0.45926 0.89676 0.01841 0.0
N989 N 0.45866 0.80841 0.01965 0.0
C990 C 0.47876 0.80864 0.02883 0.0
C991 C 0.48766 0.79726 0.00929 0.0
C992 C 0.47558 0.7854 0.9809 0.0
C993 C 0.45469 0.78503 0.97234 0.0
C994 C 0.44679 0.79686 0.99256 0.0
H995 H 0.48795 0.81746 0.05082 0.0
O996 O 0.49369 0.88309 0.01727 0.0
O997 O 0.4589 0.85126 0.02291 0.0
O998 O 0.48283 0.86835 0.08437 0.0
O999 O 0.46233 0.82882 0.08063 0.0
C1000 C 0.44131 0.77325 0.94466 0.0
C1001 C 0.42052 0.77379 0.93744 0.0
H1002 H 0.38261 0.78021 0.92979 0.0
H1003 H 0.37228 0.80334 0.96749 0.0
H1004 H 0.50373 0.79753 0.01619 0.0
H1005 H 0.48245 0.77658 0.96591 0.0
H1006 H 0.44687 0.76364 0.92901 0.0
H1007 H 0.40997 0.76434 0.91661 0.0
Mn1008 Mn 0.11567 0.58819 0.05269 0.0
Mn1009 Mn 0.17501 0.61958 0.05129 0.0
C1010 C 0.1347 0.61883 0.01584 0.0
C1011 C 0.08004 0.55597 0.03716 0.0
C1012 C 0.14506 0.62494 0.1031 0.0
O1013 O 0.12532 0.56741 0.07809 0.0
O1014 O 0.16452 0.58792 0.06935 0.0
C1015 C 0.18634 0.59257 0.00397 0.0
N1016 N 0.18808 0.61326 0.01369 0.0
C1017 C 0.2175 0.635 0.97305 0.0
C1018 C 0.21625 0.61399 0.96273 0.0
C1019 C 0.20037 0.59263 0.97801 0.0
C1020 C 0.20275 0.63377 -0.00147 0.0
H1021 H 0.1745 0.57623 0.01614 0.0
C1022 C 0.14586 0.56975 0.07974 0.0
O1023 O 0.08216 0.56732 0.06403 0.0
O1024 O 0.0989 0.56292 0.01959 0.0
N1025 N 0.18758 0.65064 0.03388 0.0
C1026 C 0.18529 0.66896 0.04518 0.0
C1027 C 0.19845 0.69125 0.0306 0.0
C1028 C 0.21422 0.69458 0.00518 0.0
C1029 C 0.21639 0.67548 -0.0058 0.0
C1030 C 0.20237 0.65357 0.00907 0.0
H1031 H 0.17357 0.66658 0.06518 0.0
O1032 O 0.11286 0.61114 0.02378 0.0
O1033 O 0.14467 0.60799 0.02907 0.0
O1034 O 0.12507 0.61134 0.09055 0.0
O1035 O 0.16442 0.6282 0.09127 0.0
C1036 C 0.23209 0.67733 0.96938 0.0
C1037 C 0.2329 0.65715 0.95922 0.0
H1038 H 0.22726 0.61403 0.94298 0.0
H1039 H 0.1992 0.57632 0.9701 0.0
H1040 H 0.19669 0.7059 0.03926 0.0
H1041 H 0.22459 0.71187 -0.00571 0.0
H1042 H 0.24365 0.6942 0.95807 0.0
H1043 H 0.24529 0.65873 0.94054 0.0
Mn1044 Mn 0.41065 0.53026 0.04552 0.0
Mn1045 Mn 0.38579 0.56423 0.04179 0.0
C1046 C 0.38084 0.52147 0.00833 0.0
C1047 C 0.44051 0.5228 0.0307 0.0
C1048 C 0.37676 0.52926 0.09607 0.0
O1049 O 0.43352 0.56022 0.07063 0.0
O1050 O 0.41865 0.58359 0.05701 0.0
C1051 C 0.41362 0.59817 0.98976 0.0
N1052 N 0.39248 0.58119 0.00171 0.0
C1053 C 0.37159 0.58718 0.95805 0.0
C1054 C 0.39311 0.6049 0.94539 0.0
C1055 C 0.41424 0.61024 0.96113 0.0
C1056 C 0.37211 0.57546 0.98626 0.0
H1057 H 0.42984 0.60254 0.00211 0.0
C1058 C 0.4347 0.5803 0.06945 0.0
O1059 O 0.42869 0.51452 0.05755 0.0
O1060 O 0.43542 0.53601 0.01282 0.0
N1061 N 0.35386 0.54729 0.02699 0.0
C1062 C 0.33465 0.52925 0.04176 0.0
C1063 C 0.31224 0.52085 0.02798 0.0
C1064 C 0.30976 0.53141 -0.00039 0.0
C1065 C 0.32976 0.55016 0.98516 0.0
C1066 C 0.35167 0.55747 -0.0004 0.0
H1067 H 0.33632 0.5213 0.06387 0.0
O1068 O 0.38616 0.50555 0.01646 0.0
O1069 O 0.39357 0.54207 0.02139 0.0
O1070 O 0.38702 0.51922 0.08299 0.0
O1071 O 0.37716 0.54742 0.08408 0.0
C1072 C 0.32873 0.56217 0.95735 0.0
C1073 C 0.34962 0.58087 0.94405 0.0
H1074 H 0.39361 0.61444 0.92352 0.0
H1075 H 0.43093 0.62381 0.95144 0.0
H1076 H 0.2969 0.50642 0.03938 0.0
H1077 H 0.29243 0.52505 0.98921 0.0
H1078 H 0.31189 0.55728 0.94641 0.0
H1079 H 0.34866 0.59053 0.9233 0.0
Mn1080 Mn 0.11202 0.52378 0.54892 0.0
Mn1081 Mn 0.17061 0.5596 0.549 0.0
C1082 C 0.13501 0.51698 0.51272 0.0
C1083 C 0.07501 0.51596 0.53207 0.0
C1084 C 0.14377 0.52295 0.60116 0.0
O1085 O 0.11724 0.55267 0.57509 0.0
O1086 O 0.15555 0.57772 0.56362 0.0
C1087 C 0.17738 0.59431 0.49784 0.0
N1088 N 0.18179 0.57749 0.50974 0.0
C1089 C 0.21025 0.58518 0.46756 0.0
C1090 C 0.20615 0.6027 0.45491 0.0
C1091 C 0.18947 0.60712 0.46994 0.0
C1092 C 0.19735 0.57268 0.49498 0.0
H1093 H 0.16487 0.59802 0.5097 0.0
C1094 C 0.13555 0.57323 0.57514 0.0
O1095 O 0.07777 0.50691 0.55872 0.0
O1096 O 0.09383 0.52988 0.51553 0.0
N1097 N 0.18704 0.54389 0.53489 0.0
C1098 C 0.18844 0.52594 0.5495 0.0
C1099 C 0.20343 0.51848 0.53639 0.0
C1100 C 0.21719 0.52989 0.50886 0.0
C1101 C 0.21568 0.54852 0.49455 0.0
C1102 C 0.20009 0.55487 0.50826 0.0
H1103 H 0.17826 0.51735 0.571 0.0
O1104 O 0.11371 0.50036 0.51926 0.0
O1105 O 0.14175 0.53712 0.52665 0.0
O1106 O 0.12401 0.51241 0.58666 0.0
O1107 O 0.16144 0.54186 0.59057 0.0
C1108 C 0.22936 0.56131 0.46756 0.0
C1109 C 0.22683 0.57982 0.4543 0.0
H1110 H 0.21566 0.61281 0.43363 0.0
H1111 H 0.18615 0.62057 0.46029 0.0
H1112 H 0.20454 0.50414 0.54769 0.0
H1113 H 0.22893 0.52426 0.49899 0.0
H1114 H 0.24205 0.55718 0.45724 0.0
H1115 H 0.23789 0.59002 0.43414 0.0
Mn1116 Mn 0.46633 0.58697 0.54771 0.0
Mn1117 Mn 0.43317 0.61271 0.54277 0.0
C1118 C 0.4752 0.61615 0.50937 0.0
C1119 C 0.47327 0.55661 0.53379 0.0
C1120 C 0.46817 0.622 0.59701 0.0
O1121 O 0.43629 0.5647 0.57316 0.0
O1122 O 0.41358 0.58033 0.55957 0.0
C1123 C 0.39844 0.58407 0.49209 0.0
N1124 N 0.41586 0.60535 0.50297 0.0
C1125 C 0.41045 0.62545 0.45767 0.0
C1126 C 0.39232 0.60379 0.44604 0.0
C1127 C 0.38644 0.58298 0.46319 0.0
C1128 C 0.422 0.6254 0.4863 0.0
H1129 H 0.39367 0.5681 0.50548 0.0
C1130 C 0.41646 0.56408 0.57227 0.0
O1131 O 0.48176 0.56871 0.56037 0.0
O1132 O 0.46014 0.5617 0.51576 0.0
N1133 N 0.45048 0.64424 0.52641 0.0
C1134 C 0.46894 0.6636 0.54022 0.0
C1135 C 0.47785 0.68566 0.52508 0.0
C1136 C 0.46743 0.68768 0.49627 0.0
C1137 C 0.44827 0.66756 0.48278 0.0
C1138 C 0.44037 0.64598 0.49866 0.0
H1139 H 0.47685 0.66226 0.56258 0.0
O1140 O 0.49106 0.61086 0.51794 0.0
O1141 O 0.45471 0.6039 0.52292 0.0
O1142 O 0.47774 0.61108 0.58458 0.0
O1143 O 0.45035 0.62204 0.58463 0.0
C1144 C 0.43652 0.66812 0.45442 0.0
C1145 C 0.41742 0.64712 0.44211 0.0
H1146 H 0.38289 0.60292 0.42391 0.0
H1147 H 0.37253 0.56618 0.45432 0.0
H1148 H 0.4926 0.70111 0.53573 0.0
H1149 H 0.47423 0.70475 0.48475 0.0
H1150 H 0.44195 0.6847 0.44222 0.0
H1151 H 0.40799 0.64777 0.42092 0.0
Mn1152 Mn 0.40949 0.87727 0.5471 0.0
Mn1153 Mn 0.38644 0.8188 0.54002 0.0
C1154 C 0.38035 0.8565 0.50894 0.0
C1155 C 0.43881 0.91512 0.53299 0.0
C1156 C 0.37589 0.84229 0.59614 0.0
O1157 O 0.43289 0.87052 0.57128 0.0
O1158 O 0.41921 0.83284 0.55553 0.0
C1159 C 0.41534 0.81517 0.48732 0.0
N1160 N 0.3939 0.81009 0.49924 0.0
C1161 C 0.37393 0.78456 0.45394 0.0
C1162 C 0.39576 0.78933 0.44123 0.0
C1163 C 0.41658 0.8049 0.45785 0.0
C1164 C 0.37382 0.79559 0.48307 0.0
H1165 H 0.43132 0.82684 0.50032 0.0
C1166 C 0.43481 0.85207 0.56878 0.0
O1167 O 0.42694 0.91113 0.55994 0.0
O1168 O 0.43403 0.89706 0.51484 0.0
N1169 N 0.35462 0.80346 0.52474 0.0
C1170 C 0.33504 0.80138 0.53957 0.0
C1171 C 0.31288 0.78752 0.52504 0.0
C1172 C 0.31103 0.77559 0.49578 0.0
C1173 C 0.33139 0.77778 0.48122 0.0
C1174 C 0.35303 0.79214 0.49651 0.0
H1175 H 0.33624 0.8102 0.5623 0.0
O1176 O 0.38474 0.87725 0.51824 0.0
O1177 O 0.39344 0.84899 0.52168 0.0
O1178 O 0.38563 0.86306 0.5844 0.0
O1179 O 0.37711 0.82536 0.58275 0.0
C1180 C 0.33102 0.76601 0.45237 0.0
C1181 C 0.35226 0.76914 0.439 0.0
H1182 H 0.39675 0.78125 0.41867 0.0
H1183 H 0.4335 0.80875 0.44815 0.0
H1184 H 0.29725 0.78588 0.53653 0.0
H1185 H 0.29389 0.76475 0.48474 0.0
H1186 H 0.31442 0.75432 0.44064 0.0
H1187 H 0.35179 0.7594 0.41751 0.0
Mn1188 Mn 0.1977 0.45236 0.27518 0.0
Mn1189 Mn 0.231 0.5112 0.28169 0.0
C1190 C 0.18866 0.47227 0.31406 0.0
C1191 C 0.19034 0.41478 0.28847 0.0
C1192 C 0.19632 0.48633 0.22679 0.0
O1193 O 0.2279 0.46037 0.2499 0.0
O1194 O 0.25057 0.49856 0.26441 0.0
C1195 C 0.26541 0.51645 0.33238 0.0
N1196 N 0.24813 0.52057 0.32168 0.0
C1197 C 0.2534 0.54547 0.36769 0.0
C1198 C 0.27138 0.54167 0.37915 0.0
C1199 C 0.27727 0.52692 0.36155 0.0
C1200 C 0.242 0.53433 0.33874 0.0
H1201 H 0.27017 0.50538 0.31864 0.0
C1202 C 0.24774 0.4796 0.25117 0.0
O1203 O 0.18215 0.41874 0.26187 0.0
O1204 O 0.20353 0.43283 0.30676 0.0
N1205 N 0.21373 0.5253 0.29853 0.0
C1206 C 0.19535 0.52641 0.28486 0.0
C1207 C 0.18645 0.53943 0.3004 0.0
C1208 C 0.1968 0.55151 0.32948 0.0
C1209 C 0.21586 0.55031 0.34283 0.0
C1210 C 0.22375 0.53679 0.32653 0.0
H1211 H 0.18749 0.51743 0.26231 0.0
O1212 O 0.17281 0.45126 0.30489 0.0
O1213 O 0.20924 0.48061 0.30074 0.0
O1214 O 0.18662 0.46561 0.23857 0.0
O1215 O 0.21405 0.50398 0.23974 0.0
C1216 C 0.22748 0.5622 0.3715 0.0
C1217 C 0.24642 0.55999 0.38372 0.0
H1218 H 0.28069 0.54987 0.4015 0.0
H1219 H 0.29106 0.52382 0.37028 0.0
H1220 H 0.17177 0.54031 0.28986 0.0
H1221 H 0.19001 0.56168 0.3413 0.0
H1222 H 0.22203 0.57321 0.38403 0.0
H1223 H 0.2557 0.56968 0.40526 0.0
Mn1224 Mn 0.54973 0.74249 0.27281 0.0
Mn1225 Mn 0.49135 0.72108 0.27445 0.0
C1226 C 0.52663 0.71321 0.30967 0.0
C1227 C 0.58736 0.77083 0.28923 0.0
C1228 C 0.51667 0.71015 0.22125 0.0
O1229 O 0.545 0.76658 0.24688 0.0
O1230 O 0.50695 0.75413 0.25922 0.0
C1231 C 0.48631 0.75005 0.32574 0.0
N1232 N 0.48116 0.72855 0.31401 0.0
C1233 C 0.45343 0.70865 0.35732 0.0
C1234 C 0.45831 0.73056 0.36983 0.0
C1235 C 0.47499 0.75136 0.35412 0.0
C1236 C 0.46555 0.70846 0.32933 0.0
H1237 H 0.49884 0.76604 0.31339 0.0
C1238 C 0.52691 0.7692 0.24706 0.0
O1239 O 0.58392 0.75896 0.26243 0.0
O1240 O 0.56887 0.76665 0.30602 0.0
N1241 N 0.47452 0.6891 0.28915 0.0
C1242 C 0.4725 0.66942 0.27473 0.0
C1243 C 0.45743 0.6472 0.28843 0.0
C1244 C 0.44427 0.64541 0.31641 0.0
C1245 C 0.44648 0.6659 0.33057 0.0
C1246 C 0.46207 0.68758 0.3162 0.0
H1247 H 0.48225 0.67059 0.25293 0.0
O1248 O 0.54757 0.71711 0.30241 0.0
O1249 O 0.5203 0.72695 0.29586 0.0
O1250 O 0.53668 0.71906 0.23507 0.0
O1251 O 0.49944 0.7118 0.23267 0.0
C1252 C 0.43356 0.66561 0.35812 0.0
C1253 C 0.43686 0.68696 0.37133 0.0
H1254 H 0.44943 0.73162 0.39152 0.0
H1255 H 0.47891 0.76835 0.36366 0.0
H1256 H 0.4558 0.63148 0.27727 0.0
H1257 H 0.43249 0.62823 0.32677 0.0
H1258 H 0.42087 0.64898 0.36896 0.0
H1259 H 0.42644 0.68656 0.39205 0.0
Mn1260 Mn 0.25357 0.80298 0.27343 0.0
Mn1261 Mn 0.27433 0.76557 0.27611 0.0
C1262 C 0.28335 0.80968 0.30959 0.0
C1263 C 0.22561 0.81275 0.28959 0.0
C1264 C 0.28449 0.8005 0.22137 0.0
O1265 O 0.2288 0.77356 0.24916 0.0
O1266 O 0.24083 0.74793 0.26332 0.0
C1267 C 0.24704 0.73333 0.33005 0.0
N1268 N 0.26813 0.74915 0.31662 0.0
C1269 C 0.28938 0.74172 0.3583 0.0
C1270 C 0.2679 0.72523 0.37253 0.0
C1271 C 0.24663 0.72121 0.35853 0.0
C1272 C 0.28868 0.75363 0.33039 0.0
H1273 H 0.23068 0.72989 0.31895 0.0
C1274 C 0.22566 0.75268 0.25124 0.0
O1275 O 0.23717 0.82063 0.26244 0.0
O1276 O 0.23003 0.79887 0.30702 0.0
N1277 N 0.30676 0.781 0.2887 0.0
C1278 C 0.32599 0.79828 0.27291 0.0
C1279 C 0.34861 0.80541 0.28495 0.0
C1280 C 0.35128 0.79437 0.31265 0.0
C1281 C 0.33124 0.77653 0.32829 0.0
C1282 C 0.30913 0.77055 0.31567 0.0
H1283 H 0.32417 0.80654 0.25125 0.0
O1284 O 0.27955 0.82671 0.30185 0.0
O1285 O 0.26923 0.78939 0.29673 0.0
O1286 O 0.2764 0.81234 0.23516 0.0
O1287 O 0.28234 0.78152 0.23326 0.0
C1288 C 0.33238 0.76414 0.35555 0.0
C1289 C 0.31147 0.74659 0.37039 0.0
H1290 H 0.26753 0.71562 0.39424 0.0
H1291 H 0.22998 0.70857 0.36941 0.0
H1292 H 0.36397 0.81917 0.27266 0.0
H1293 H 0.36877 0.79969 0.32164 0.0
H1294 H 0.34933 0.76785 0.36483 0.0
H1295 H 0.31251 0.73673 0.39084 0.0
H1296 H 0.21494 0.08506 0.03189 0.0
H1297 H 0.11702 0.9567 0.98776 0.0
H1298 H 0.15744 0.04099 0.09642 0.0
H1299 H 0.18531 0.98826 0.94189 0.0
H1300 H 0.13335 0.98671 0.03028 0.0
H1301 H 0.20712 0.0497 0.00095 0.0
C1302 C 0.20109 0.06795 0.04 0.0
C1303 C 0.18646 0.06601 0.06626 0.0
C1304 C 0.14499 0.98687 0.01137 0.0
C1305 C 0.17735 0.02578 0.03108 0.0
C1306 C 0.13563 0.96972 0.98717 0.0
C1307 C 0.1499 0.97009 0.96153 0.0
C1308 C 0.16862 0.00501 0.00932 0.0
C1309 C 0.17386 0.98737 0.96157 0.0
C1310 C 0.1966 0.0478 0.02234 0.0
C1311 C 0.1688 0.04341 0.07583 0.0
N1312 N 0.18242 0.00454 0.98476 0.0
N1313 N 0.16451 0.02428 0.05796 0.0
H1314 H 0.95185 0.11717 0.09621 0.0
H1315 H 0.00805 0.19668 0.9381 0.0
H1316 H 0.90975 0.12933 0.02653 0.0
H1317 H 0.03377 0.15516 0.98532 0.0
H1318 H 0.97718 0.18409 0.98017 0.0
H1319 H 0.98719 0.14426 0.0662 0.0
C1320 C 0.95008 0.12592 0.07489 0.0
C1321 C 0.92779 0.12058 0.06336 0.0
C1322 C 0.98996 0.17825 0.98163 0.0
C1323 C 0.96826 0.15146 0.02875 0.0
C1324 C 0.0076 0.18551 0.9579 0.0
C1325 C 0.02331 0.17683 0.95843 0.0
C1326 C 0.98853 0.16268 0.00621 0.0
C1327 C 0.02188 0.16212 0.98411 0.0
C1328 C 0.97028 0.14136 0.05778 0.0
C1329 C 0.92661 0.13281 0.036 0.0
N1330 N 0.00473 0.15545 0.00695 0.0
N1331 N 0.94662 0.14741 0.01911 0.0
H1332 H 0.84058 0.88357 0.98446 0.0
H1333 H 0.86791 0.7833 0.02698 0.0
H1334 H 0.80157 0.81523 0.93921 0.0
H1335 H 0.8832 0.84119 0.09175 0.0
H1336 H 0.84082 0.79208 -0.00338 0.0
H1337 H 0.85398 0.8666 0.02641 0.0
C1338 C 0.83445 0.86484 0.98389 0.0
C1339 C 0.82 0.85072 0.95859 0.0
C1340 C 0.84976 0.80247 0.01795 0.0
C1341 C 0.83585 0.83126 0.00568 0.0
C1342 C 0.86518 0.79746 0.03524 0.0
C1343 C 0.87824 0.8119 0.0614 0.0
C1344 C 0.84762 0.82205 0.02699 0.0
C1345 C 0.87397 0.82996 0.07122 0.0
C1346 C 0.84208 0.85511 0.00777 0.0
C1347 C 0.8126 0.82658 0.95864 0.0
N1348 N 0.85935 0.83472 0.05374 0.0
N1349 N 0.82105 0.81764 0.98148 0.0
H1350 H 0.95273 0.11253 0.50326 0.0
H1351 H 0.08022 0.21325 0.45641 0.0
H1352 H 0.98286 0.1812 0.54777 0.0
H1353 H 0.03692 0.15412 0.3939 0.0
H1354 H 0.04496 0.204 0.48877 0.0
H1355 H 0.98328 0.12886 0.46146 0.0
C1356 C 0.9656 0.13118 0.5038 0.0
C1357 C 0.96534 0.14557 0.52883 0.0
C1358 C 0.04321 0.19339 0.46755 0.0
C1359 C 0.00082 0.16435 0.48167 0.0
C1360 C 0.06329 0.19868 0.44909 0.0
C1361 C 0.0616 0.18413 0.42286 0.0
C1362 C 0.0215 0.17341 0.45965 0.0
C1363 C 0.03921 0.16551 0.41437 0.0
C1364 C 0.98306 0.14055 0.47996 0.0
C1365 C 0.98244 0.16962 0.5286 0.0
N1366 N 0.02018 0.16051 0.43294 0.0
N1367 N -0.00016 0.17823 0.5057 0.0
H1368 H 0.85629 0.89652 0.39861 0.0
H1369 H 0.8178 0.80076 0.54073 0.0
H1370 H 0.78911 0.86734 0.44779 0.0
H1371 H 0.88894 0.84483 0.50624 0.0
H1372 H 0.80391 0.81761 0.49849 0.0
H1373 H 0.86505 0.87029 0.42953 0.0
C1374 C 0.84329 0.88455 0.41589 0.0
C1375 C 0.82209 0.88453 0.42107 0.0
C1376 C 0.82248 0.82322 0.49985 0.0
C1377 C 0.83216 0.85426 0.45674 0.0
C1378 C 0.83037 0.81346 0.52367 0.0
C1379 C 0.85454 0.82156 0.52694 0.0
C1380 C 0.83892 0.84089 0.47912 0.0
C1381 C 0.87018 0.83826 0.50462 0.0
C1382 C 0.84832 0.86949 0.43351 0.0
C1383 C 0.80578 0.86815 0.44329 0.0
N1384 N 0.86212 0.84747 0.48182 0.0
N1385 N 0.81128 0.85382 0.46067 0.0
H1386 H 0.10749 0.95432 0.39428 0.0
H1387 H 0.19398 0.01012 0.54619 0.0
H1388 H 0.12627 0.91277 0.45582 0.0
H1389 H 0.15192 0.03708 0.50403 0.0
H1390 H 0.17899 0.97892 0.50436 0.0
H1391 H 0.13418 0.98929 0.42485 0.0
C1392 C 0.11742 0.95255 0.41409 0.0
C1393 C 0.11421 0.93045 0.42299 0.0
C1394 C 0.17348 0.99199 0.50398 0.0
C1395 C 0.14481 0.97067 0.45838 0.0
C1396 C 0.18213 0.00983 0.52755 0.0
C1397 C 0.17406 0.02603 0.52838 0.0
C1398 C 0.15706 0.99081 0.48097 0.0
C1399 C 0.15845 0.02481 0.50419 0.0
C1400 C 0.13269 0.9726 0.43153 0.0
C1401 C 0.12802 0.92944 0.44843 0.0
N1402 N 0.15041 0.00745 0.48154 0.0
N1403 N 0.14251 0.94929 0.46571 0.0
H1404 H 0.80841 0.01179 0.03825 0.0
H1405 H 0.83939 0.95849 0.88388 0.0
H1406 H 0.87642 0.04208 0.99173 0.0
H1407 H 0.78201 0.91591 0.94945 0.0
H1408 H 0.8457 0.99369 0.9124 0.0
H1409 H 0.79206 0.98139 -0.00452 0.0
C1410 C 0.81966 0.01249 0.01837 0.0
C1411 C 0.84377 0.02927 0.01836 0.0
C1412 C 0.83149 0.97669 0.92029 0.0
C1413 C 0.82537 0.99487 0.9699 0.0
C1414 C 0.82787 0.95655 0.90406 0.0
C1415 C 0.81053 0.93417 0.91488 0.0
C1416 C 0.81785 0.97454 0.9478 0.0
C1417 C 0.79579 0.93282 0.94065 0.0
C1418 C 0.81039 0.99508 -0.00575 0.0
C1419 C 0.85776 0.02932 0.99255 0.0
N1420 N 0.80008 0.95278 0.95675 0.0
N1421 N 0.84839 0.01225 0.96947 0.0
H1422 H 0.95794 0.83853 -0.00339 0.0
H1423 H 0.0865 0.86875 0.95593 0.0
H1424 H 0.98888 0.80227 0.04528 0.0
H1425 H 0.04256 0.88 0.88846 0.0
H1426 H 0.05098 0.84146 0.98687 0.0
H1427 H 0.98824 0.85146 0.95451 0.0
C1428 C 0.9709 0.8329 -0.00209 0.0
C1429 C 0.971 0.81933 0.02415 0.0
C1430 C 0.04915 0.84951 0.96482 0.0
C1431 C 0.00624 0.83467 0.97688 0.0
C1432 C 0.06938 0.86502 0.94716 0.0
C1433 C 0.06749 0.87706 0.92007 0.0
C1434 C 0.02712 0.84628 0.95525 0.0
C1435 C 0.0449 0.87156 0.90968 0.0
C1436 C 0.98821 0.84026 0.97396 0.0
C1437 C 0.98822 0.81259 0.02509 0.0
N1438 N 0.0257 0.85692 0.92756 0.0
N1439 N 0.00555 0.82078 0.00211 0.0
H1440 H 0.11029 0.15342 0.89014 0.0
H1441 H 0.19522 0.18445 0.04388 0.0
H1442 H 0.12663 0.21223 0.95364 0.0
H1443 H 0.15496 0.11563 0.00034 0.0
H1444 H 0.18069 0.20057 0.00136 0.0
H1445 H 0.13783 0.14602 0.92023 0.0
C1446 C 0.1199 0.165 0.91023 0.0
C1447 C 0.11571 0.18314 0.91991 0.0
C1448 C 0.17553 0.18207 0.00079 0.0
C1449 C 0.14725 0.17456 0.95466 0.0
C1450 C 0.18393 0.17294 0.02476 0.0
C1451 C 0.17615 0.14872 0.02544 0.0
C1452 C 0.15966 0.16686 0.97724 0.0
C1453 C 0.16124 0.13439 0.00061 0.0
C1454 C 0.13564 0.16074 0.92737 0.0
C1455 C 0.12913 0.19788 0.94565 0.0
N1456 N 0.1534 0.14366 0.9776 0.0
N1457 N 0.14407 0.19301 0.96261 0.0
H1458 H 0.9575 0.82954 0.60163 0.0
H1459 H 0.00628 0.80774 0.43488 0.0
H1460 H 0.91142 0.77854 0.53083 0.0
H1461 H 0.03482 0.87435 0.48483 0.0
H1462 H 0.97664 0.78924 0.47857 0.0
H1463 H 0.99131 0.83708 0.56825 0.0
C1464 C 0.95452 0.81952 0.57937 0.0
C1465 C 0.93159 0.80382 0.56852 0.0
C1466 C 0.98976 0.80777 0.48019 0.0
C1467 C 0.97025 0.81256 0.53018 0.0
C1468 C 0.00665 0.81825 0.45552 0.0
C1469 C 0.02282 0.84253 0.45652 0.0
C1470 C 0.9896 0.82166 0.50613 0.0
C1471 C 0.02254 0.85559 0.4833 0.0
C1472 C 0.97384 0.82388 0.56035 0.0
C1473 C 0.92882 0.79098 0.53984 0.0
N1474 N 0.00614 0.84499 0.50706 0.0
N1475 N 0.94798 0.796 0.52117 0.0
H1476 H 0.11424 0.15778 0.48414 0.0
H1477 H 0.21292 0.12831 0.52758 0.0
H1478 H 0.18166 0.19378 0.43586 0.0
H1479 H 0.15716 0.11725 0.59405 0.0
H1480 H 0.20436 0.15482 0.49534 0.0
H1481 H 0.13133 0.14479 0.52648 0.0
C1482 C 0.13281 0.16331 0.48295 0.0
C1483 C 0.14664 0.17686 0.45679 0.0
C1484 C 0.1944 0.14695 0.51741 0.0
C1485 C 0.16622 0.16148 0.50436 0.0
C1486 C 0.19929 0.13187 0.5358 0.0
C1487 C 0.18535 0.12013 0.56305 0.0
C1488 C 0.17542 0.15007 0.52644 0.0
C1489 C 0.16797 0.12543 0.57273 0.0
C1490 C 0.14261 0.15592 0.50705 0.0
C1491 C 0.17057 0.18348 0.456 0.0
N1492 N 0.16327 0.13968 0.55419 0.0
N1493 N 0.17957 0.17529 0.47915 0.0
H1494 H 0.87244 0.09079 0.52219 0.0
H1495 H 0.79239 0.95755 0.47229 0.0
H1496 H 0.86402 0.03903 0.59409 0.0
H1497 H 0.86005 0.00334 0.42773 0.0
H1498 H 0.80178 0.98806 0.51444 0.0
H1499 H 0.84856 0.05869 0.48403 0.0
C1500 C 0.86476 0.0727 0.5304 0.0
C1501 C 0.87043 0.06746 0.56106 0.0
C1502 C 0.81419 0.99129 0.49492 0.0
C1503 C 0.84298 0.03105 0.51805 0.0
C1504 C 0.80897 0.974 0.47106 0.0
C1505 C 0.8254 0.9779 0.4463 0.0
C1506 C 0.8355 0.01272 0.493 0.0
C1507 C 0.8467 -0.0005 0.446 0.0
C1508 C 0.85123 0.05449 0.50866 0.0
C1509 C 0.86024 0.04371 0.57043 0.0
N1510 N 0.85102 0.01611 0.46879 0.0
N1511 N 0.84724 0.02628 0.54876 0.0
H1512 H 0.77843 0.28837 0.32244 0.0
H1513 H 0.87922 0.41693 0.3649 0.0
H1514 H 0.84693 0.31881 0.2774 0.0
H1515 H 0.81706 0.37652 0.42385 0.0
H1516 H 0.87062 0.38049 0.33622 0.0
H1517 H 0.79462 0.31914 0.36385 0.0
C1518 C 0.79706 0.30131 0.32183 0.0
C1519 C 0.8114 0.30117 0.29666 0.0
C1520 C 0.85917 0.37962 0.35589 0.0
C1521 C 0.83 0.33702 0.34314 0.0
C1522 C 0.86408 0.40039 0.37223 0.0
C1523 C 0.84853 0.39984 0.39623 0.0
C1524 C 0.83862 0.35836 0.36375 0.0
C1525 C 0.82924 0.37792 0.40496 0.0
C1526 C 0.80634 0.31893 0.34538 0.0
C1527 C 0.8354 0.31833 0.2967 0.0
N1528 N 0.8247 0.35819 0.38847 0.0
N1529 N 0.8439 0.33596 0.31922 0.0
H1530 H 0.62496 0.452 0.43387 0.0
H1531 H 0.67871 0.53345 0.27677 0.0
H1532 H 0.58223 0.46569 0.36723 0.0
H1533 H 0.7075 0.49445 0.32354 0.0
H1534 H 0.64814 0.51987 0.31931 0.0
H1535 H 0.65995 0.47942 0.40362 0.0
C1536 C 0.62295 0.46104 0.41309 0.0
C1537 C 0.60055 0.45611 0.40256 0.0
C1538 C 0.66151 0.5148 0.32059 0.0
C1539 C 0.64072 0.48748 0.36765 0.0
C1540 C 0.67903 0.52267 0.2966 0.0
C1541 C 0.6955 0.51494 0.29679 0.0
C1542 C 0.6609 0.49952 0.34505 0.0
C1543 C 0.69501 0.50069 0.32255 0.0
C1544 C 0.64298 0.47671 0.39585 0.0
C1545 C 0.59915 0.4688 0.37591 0.0
N1546 N 0.6779 0.49334 0.34557 0.0
N1547 N 0.619 0.48365 0.35888 0.0
H1548 H 0.53194 0.11591 0.36393 0.0
H1549 H 0.50779 0.2174 0.31597 0.0
H1550 H 0.54577 0.1736 0.42826 0.0
H1551 H 0.46752 0.14874 0.27205 0.0
H1552 H 0.52042 0.2003 0.35876 0.0
H1553 H 0.50615 0.12526 0.3313 0.0
C1554 C 0.52911 0.13012 0.37163 0.0
C1555 C 0.54143 0.14434 0.39836 0.0
C1556 C 0.50844 0.18879 0.34018 0.0
C1557 C 0.51237 0.15519 0.3613 0.0
C1558 C 0.50128 0.19859 0.31581 0.0
C1559 C 0.48661 0.18439 0.29074 0.0
C1560 C 0.5015 0.16473 0.33887 0.0
C1561 C 0.47872 0.16015 0.29131 0.0
C1562 C 0.51446 0.13547 0.35302 0.0
C1563 C 0.5371 0.16251 0.40736 0.0
N1564 N 0.48667 0.15108 0.3147 0.0
N1565 N 0.52328 0.16764 0.3886 0.0
H1566 H 0.64775 0.50833 0.87919 0.0
H1567 H 0.71286 0.47111 0.74722 0.0
H1568 H 0.6252 0.43712 0.8489 0.0
H1569 H 0.74533 0.54136 0.78773 0.0
H1570 H 0.67735 0.46071 0.77746 0.0
H1571 H 0.67991 0.52283 0.83889 0.0
C1572 C 0.6492 0.49584 0.86343 0.0
C1573 C 0.63394 0.47152 0.86731 0.0
C1574 C 0.69216 0.47844 0.77982 0.0
C1575 C 0.67052 0.48781 0.82181 0.0
C1576 C 0.71261 0.48444 0.76258 0.0
C1577 C 0.73241 0.5071 0.76532 0.0
C1578 C 0.69126 0.49507 0.80038 0.0
C1579 C 0.7306 0.52362 0.78516 0.0
C1580 C 0.66765 0.50408 0.84075 0.0
C1581 C 0.6367 0.45601 0.84676 0.0
N1582 N 0.71041 0.5172 0.80227 0.0
N1583 N 0.6547 0.46441 0.82508 0.0
H1584 H 0.50401 0.21087 0.71954 0.0
H1585 H 0.4745 0.12972 0.87731 0.0
H1586 H 0.44716 0.19778 0.78515 0.0
H1587 H 0.54309 0.16978 0.83295 0.0
H1588 H 0.45797 0.14307 0.83384 0.0
H1589 H 0.51108 0.18336 0.75051 0.0
C1590 C 0.49272 0.20189 0.74019 0.0
C1591 C 0.47534 0.20706 0.75032 0.0
C1592 C 0.47651 0.14844 0.83332 0.0
C1593 C 0.48353 0.17564 0.78598 0.0
C1594 C 0.48589 0.14074 0.85786 0.0
C1595 C 0.51016 0.14881 0.85857 0.0
C1596 C 0.49152 0.16386 0.80921 0.0
C1597 C 0.52431 0.16331 0.83325 0.0
C1598 C 0.4968 0.18619 0.75784 0.0
C1599 C 0.46092 0.19448 0.7768 0.0
N1600 N 0.51479 0.17046 0.80966 0.0
N1601 N 0.46564 0.1796 0.79422 0.0
H1602 H 0.86114 0.34241 0.8825 0.0
H1603 H 0.77424 0.28926 0.73044 0.0
H1604 H 0.82134 0.3719 0.84022 0.0
H1605 H 0.79221 0.24658 0.79089 0.0
H1606 H 0.80163 0.32391 0.7611 0.0
H1607 H 0.84552 0.31154 0.84025 0.0
C1608 C 0.84965 0.34274 0.86377 0.0
C1609 C 0.84237 0.35956 0.86473 0.0
C1610 C 0.79981 0.30703 0.76751 0.0
C1611 C 0.82464 0.32466 0.81682 0.0
C1612 C 0.78414 0.28718 0.75002 0.0
C1613 C 0.78051 0.26486 0.75861 0.0
C1614 C 0.8119 0.30469 0.79408 0.0
C1615 C 0.79429 0.26342 0.78374 0.0
C1616 C 0.84064 0.32508 0.83995 0.0
C1617 C 0.82723 0.35913 0.84035 0.0
N1618 N 0.80916 0.28309 0.80106 0.0
N1619 N 0.8188 0.34189 0.81748 0.0
H1620 H 0.48125 0.34759 0.3805 0.0
H1621 H 0.50878 0.29331 0.22371 0.0
H1622 H 0.55023 0.37266 0.339 0.0
H1623 H 0.45051 0.25071 0.28803 0.0
H1624 H 0.51773 0.32791 0.25599 0.0
H1625 H 0.46433 0.31731 0.3375 0.0
C1626 C 0.49269 0.34709 0.3618 0.0
C1627 C 0.51713 0.3625 0.36312 0.0
C1628 C 0.50278 0.31106 0.2628 0.0
C1629 C 0.49805 0.32836 0.31429 0.0
C1630 C 0.49761 0.29126 0.24441 0.0
C1631 C 0.47919 0.26895 0.25368 0.0
C1632 C 0.48951 0.30867 0.29081 0.0
C1633 C 0.46503 0.26754 0.28028 0.0
C1634 C 0.48308 0.32978 0.33755 0.0
C1635 C 0.53131 0.36101 0.3388 0.0
N1636 N 0.47074 0.28714 0.29837 0.0
N1637 N 0.52157 0.3442 0.3154 0.0
H1638 H 0.70355 0.21203 0.22424 0.0
H1639 H 0.65029 0.13272 0.38351 0.0
H1640 H 0.74685 0.19996 0.29192 0.0
H1641 H 0.62204 0.17197 0.33616 0.0
H1642 H 0.68093 0.14596 0.34095 0.0
H1643 H 0.66877 0.18508 0.25537 0.0
C1644 C 0.70572 0.20341 0.24542 0.0
C1645 C 0.72821 0.20869 0.25599 0.0
C1646 C 0.66766 0.15117 0.33959 0.0
C1647 C 0.68833 0.17789 0.29187 0.0
C1648 C 0.65015 0.14352 0.36359 0.0
C1649 C 0.63377 0.15137 0.36312 0.0
C1650 C 0.66832 0.16631 0.31485 0.0
C1651 C 0.63445 0.16564 0.33729 0.0
C1652 C 0.68583 0.18803 0.26316 0.0
C1653 C 0.72985 0.19656 0.28318 0.0
N1654 N 0.6515 0.17271 0.31423 0.0
N1655 N 0.71013 0.18198 0.30066 0.0
H1656 H 0.86434 0.5228 0.37801 0.0
H1657 H 0.78652 0.49827 0.2182 0.0
H1658 H 0.82812 0.45674 0.32639 0.0
H1659 H 0.7962 0.5511 0.28905 0.0
H1660 H 0.81515 0.49178 0.24716 0.0
H1661 H 0.85194 0.54099 0.33563 0.0
C1662 C 0.85451 0.51241 0.35711 0.0
C1663 C 0.84714 0.48832 0.35542 0.0
C1664 C 0.81136 0.50511 0.25607 0.0
C1665 C 0.83309 0.50878 0.30742 0.0
C1666 C 0.79502 0.50885 0.23958 0.0
C1667 C 0.78856 0.52483 0.25176 0.0
C1668 C 0.82116 0.51723 0.28522 0.0
C1669 C 0.80052 0.5384 0.27913 0.0
C1670 C 0.84732 0.5227 0.33321 0.0
C1671 C 0.83407 0.47538 0.32842 0.0
N1672 N 0.81596 0.53393 0.29548 0.0
N1673 N 0.82734 0.48575 0.30553 0.0
H1674 H 0.57294 0.11156 0.86194 0.0
H1675 H 0.70167 0.20981 0.82277 0.0
H1676 H 0.61752 0.16465 0.93151 0.0
H1677 H 0.67031 0.1436 0.7714 0.0
H1678 H 0.67144 0.19168 0.86486 0.0
H1679 H 0.60826 0.12001 0.83031 0.0
C1680 C 0.59015 0.12447 0.87102 0.0
C1681 C 0.59231 0.13781 0.89893 0.0
C1682 C 0.67136 0.18087 0.84481 0.0
C1683 C 0.63245 0.1477 0.86299 0.0
C1684 C 0.68863 0.19126 0.82086 0.0
C1685 C 0.6884 0.17808 0.79392 0.0
C1686 C 0.65325 0.15734 0.84117 0.0
C1687 C 0.67107 0.15418 0.79217 0.0
C1688 C 0.61027 0.12934 0.85297 0.0
C1689 C 0.615 0.15434 0.90969 0.0
N1690 N 0.65378 0.14462 0.81519 0.0
N1691 N 0.6341 0.1591 0.89144 0.0
H1692 H 0.83293 0.45661 0.92941 0.0
H1693 H 0.85056 0.50927 0.75147 0.0
H1694 H 0.88401 0.45801 0.86162 0.0
H1695 H 0.80529 0.51407 0.82352 0.0
H1696 H 0.86821 0.49679 0.79404 0.0
H1697 H 0.82795 0.48386 0.89448 0.0
C1698 C 0.84339 0.46298 0.90736 0.0
C1699 C 0.85861 0.45473 0.89808 0.0
C1700 C 0.85478 0.50104 0.80076 0.0
C1701 C 0.85268 0.48568 0.85758 0.0
C1702 C 0.84474 0.50814 0.77648 0.0
C1703 C 0.82646 0.51249 0.78424 0.0
C1704 C 0.84611 0.49791 0.83283 0.0
C1705 C 0.81944 0.51088 0.8168 0.0
C1706 C 0.84056 0.47858 0.88741 0.0
C1707 C 0.87198 0.46382 0.86954 0.0
N1708 N 0.82904 0.50336 0.8399 0.0
N1709 N 0.86834 0.47846 0.84992 0.0
H1710 H 0.53012 0.41127 0.87024 0.0
H1711 H 0.50642 0.28691 0.81881 0.0
H1712 H 0.54289 0.36662 0.93448 0.0
H1713 H 0.46581 0.31556 0.7768 0.0
H1714 H 0.51834 0.31557 0.86303 0.0
H1715 H 0.50423 0.37646 0.8373 0.0
C1716 C 0.52706 0.39413 0.87785 0.0
C1717 C 0.53916 0.39193 0.90462 0.0
C1718 C 0.50642 0.31534 0.84456 0.0
C1719 C 0.50994 0.35235 0.8671 0.0
C1720 C 0.49968 0.29901 0.81936 0.0
C1721 C 0.48518 0.29899 0.79434 0.0
C1722 C 0.49922 0.33226 0.84414 0.0
C1723 C 0.47692 0.31502 0.79592 0.0
C1724 C 0.51231 0.3743 0.85905 0.0
C1725 C 0.53445 0.36927 0.91351 0.0
N1726 N 0.48449 0.33145 0.82009 0.0
N1727 N 0.52058 0.35047 0.89447 0.0
H1728 H 0.44562 0.62698 0.64908 0.0
H1729 H 0.49666 0.70798 0.76903 0.0
H1730 H 0.51496 0.65173 0.60909 0.0
H1731 H 0.54396 0.74986 0.69192 0.0
H1732 H 0.487 0.67234 0.73858 0.0
H1733 H 0.46288 0.65648 0.69207 0.0
C1734 C 0.46459 0.63832 0.64992 0.0
C1735 C 0.47895 0.63691 0.62582 0.0
C1736 C 0.49964 0.6893 0.72842 0.0
C1737 C 0.49891 0.67084 0.67474 0.0
C1738 C 0.50531 0.70964 0.74587 0.0
C1739 C 0.5207 0.73188 0.73255 0.0
C1740 C 0.50907 0.69122 0.69712 0.0
C1741 C 0.53181 0.733 0.7028 0.0
C1742 C 0.47449 0.65505 0.67457 0.0
C1743 C 0.50341 0.65217 0.62763 0.0
N1744 N 0.5254 0.71287 0.68564 0.0
N1745 N 0.51264 0.66895 0.65133 0.0
H1746 H 0.34514 0.85789 0.61083 0.0
H1747 H 0.27828 0.75309 0.73876 0.0
H1748 H 0.3697 0.81158 0.6445 0.0
H1749 H 0.24761 0.79352 0.7019 0.0
H1750 H 0.31437 0.77884 0.71004 0.0
H1751 H 0.31242 0.83958 0.65014 0.0
C1752 C 0.34404 0.8444 0.6272 0.0
C1753 C 0.36001 0.83611 0.62444 0.0
C1754 C 0.29984 0.78222 0.70813 0.0
C1755 C 0.32268 0.81496 0.66874 0.0
C1756 C 0.27904 0.76737 0.72447 0.0
C1757 C 0.2596 0.77084 0.72238 0.0
C1758 C 0.30143 0.80074 0.68908 0.0
C1759 C 0.26205 0.79003 0.70393 0.0
C1760 C 0.32525 0.83379 0.64931 0.0
C1761 C 0.35766 0.81836 0.64574 0.0
N1762 N 0.28256 0.80417 0.68767 0.0
N1763 N 0.33925 0.80827 0.66675 0.0
H1764 H 0.16658 0.54423 0.65698 0.0
H1765 H 0.19834 0.44691 0.69821 0.0
H1766 H 0.131 0.4767 0.60894 0.0
H1767 H 0.20957 0.50254 0.76499 0.0
H1768 H 0.17085 0.45477 0.66726 0.0
H1769 H 0.18009 0.52743 0.69904 0.0
C1770 C 0.16122 0.52569 0.65579 0.0
C1771 C 0.1477 0.51178 0.62968 0.0
C1772 C 0.17896 0.46484 0.68914 0.0
C1773 C 0.16369 0.49254 0.67697 0.0
C1774 C 0.1946 0.46034 0.7068 0.0
C1775 C 0.20666 0.47447 0.73372 0.0
C1776 C 0.17563 0.48363 0.69855 0.0
C1777 C 0.20113 0.4916 0.7439 0.0
C1778 C 0.16891 0.51606 0.67974 0.0
C1779 C 0.14128 0.48788 0.62898 0.0
N1780 N 0.18635 0.49594 0.72603 0.0
N1781 N 0.14979 0.47908 0.65195 0.0
H1782 H 0.3777 0.80882 0.07218 0.0
H1783 H 0.31627 0.84677 0.20839 0.0
H1784 H 0.41374 0.87672 0.11976 0.0
H1785 H 0.28869 0.77641 0.17047 0.0
H1786 H 0.34835 0.86117 0.16814 0.0
H1787 H 0.34177 0.80014 0.10008 0.0
C1788 C 0.37812 0.822 0.08855 0.0
C1789 C 0.39901 0.84341 0.09408 0.0
C1790 C 0.33498 0.84269 0.16825 0.0
C1791 C 0.35747 0.83334 0.12653 0.0
C1792 C 0.31656 0.83451 0.19091 0.0
C1793 C 0.29996 0.81036 0.19274 0.0
C1794 C 0.33651 0.82655 0.14727 0.0
C1795 C 0.30125 0.79514 0.16996 0.0
C1796 C 0.35745 0.81701 0.10445 0.0
C1797 C 0.39812 0.8599 0.11508 0.0
N1798 N 0.31933 0.80346 0.14838 0.0
N1799 N 0.3777 0.85438 0.13096 0.0
H1800 H 0.18141 0.56089 0.06793 0.0
H1801 H 0.1496 0.46972 0.21448 0.0
H1802 H 0.11786 0.53581 0.12494 0.0
H1803 H 0.21922 0.51464 0.17552 0.0
H1804 H 0.13348 0.48471 0.17259 0.0
H1805 H 0.19049 0.53432 0.09733 0.0
C1806 C 0.1692 0.54962 0.08651 0.0
C1807 C 0.14908 0.55098 0.0945 0.0
C1808 C 0.15219 0.49086 0.1729 0.0
C1809 C 0.15963 0.52053 0.12861 0.0
C1810 C 0.16135 0.48221 0.19651 0.0
C1811 C 0.18574 0.4911 0.19833 0.0
C1812 C 0.1676 0.50815 0.15086 0.0
C1813 C 0.20032 0.50748 0.17495 0.0
C1814 C 0.17443 0.53442 0.10328 0.0
C1815 C 0.13369 0.5355 0.1183 0.0
N1816 N 0.19104 0.51555 0.15229 0.0
N1817 N 0.13949 0.52113 0.13501 0.0
H1818 H 0.49059 0.70778 0.16871 0.0
H1819 H 0.45476 0.62562 0.04882 0.0
H1820 H 0.53106 0.67826 0.20856 0.0
H1821 H 0.46019 0.58255 0.12407 0.0
H1822 H 0.48167 0.66081 0.07935 0.0
H1823 H 0.4767 0.67843 0.12547 0.0
C1824 C 0.49702 0.69543 0.16776 0.0
C1825 C 0.51205 0.69545 0.192 0.0
C1826 C 0.47705 0.6437 0.0892 0.0
C1827 C 0.49622 0.66165 0.1426 0.0
C1828 C 0.46185 0.62359 0.07167 0.0
C1829 C 0.45481 0.60114 0.08436 0.0
C1830 C 0.4849 0.64136 0.12004 0.0
C1831 C 0.46499 0.59957 0.11366 0.0
C1832 C 0.48925 0.67875 0.14292 0.0
C1833 C 0.51968 0.67892 0.18997 0.0
N1834 N 0.47925 0.61948 0.13093 0.0
N1835 N 0.51125 0.66227 0.16604 0.0
H1836 H 0.1622 0.6199 0.5608 0.0
H1837 H 0.1781 0.70856 0.66503 0.0
H1838 H 0.10721 0.57169 0.62557 0.0
H1839 H 0.14747 0.65174 0.73467 0.0
H1840 H 0.16062 0.67963 0.62071 0.0
H1841 H 0.16656 0.65275 0.59348 0.0
C1842 C 0.15062 0.61628 0.58153 0.0
C1843 C 0.13457 0.59301 0.59081 0.0
C1844 C 0.15769 0.67349 0.64571 0.0
C1845 C 0.1393 0.63071 0.62841 0.0
C1846 C 0.1674 0.69002 0.67093 0.0
C1847 C 0.16474 0.68236 0.70335 0.0
C1848 C 0.1454 0.64926 0.65327 0.0
C1849 C 0.15061 0.65826 0.70994 0.0
C1850 C 0.15293 0.63515 0.60006 0.0
C1851 C 0.11988 0.58936 0.61769 0.0
N1852 N 0.14167 0.64253 0.68511 0.0
N1853 N 0.12302 0.60801 0.63605 0.0
H1854 H 0.28711 0.50617 0.6687 0.0
H1855 H 0.41432 0.53412 0.62127 0.0
H1856 H 0.31777 0.46795 0.71252 0.0
H1857 H 0.37062 0.54929 0.55864 0.0
H1858 H 0.37906 0.50719 0.65287 0.0
H1859 H 0.31694 0.51987 0.6259 0.0
C1860 C 0.29992 0.50031 0.66882 0.0
C1861 C 0.30009 0.48597 0.69396 0.0
C1862 C 0.37721 0.51607 0.63177 0.0
C1863 C 0.33477 0.50212 0.64579 0.0
C1864 C 0.3973 0.53141 0.61375 0.0
C1865 C 0.39548 0.54439 0.58781 0.0
C1866 C 0.35536 0.51394 0.62372 0.0
C1867 C 0.37298 0.54013 0.57898 0.0
C1868 C 0.31696 0.5081 0.64444 0.0
C1869 C 0.31706 0.47889 0.69326 0.0
N1870 N 0.35393 0.52559 0.59718 0.0
N1871 N 0.33412 0.48747 0.66989 0.0
H1872 H 0.53209 0.85132 0.70971 0.0
H1873 H 0.45252 0.82408 0.55105 0.0
H1874 H 0.49176 0.7831 0.66449 0.0
H1875 H 0.46356 0.87891 0.61927 0.0
H1876 H 0.48 0.81687 0.5818 0.0
H1877 H 0.51917 0.86842 0.66648 0.0
C1878 C 0.52113 0.84014 0.6901 0.0
C1879 C 0.51283 0.81581 0.69048 0.0
C1880 C 0.47673 0.83076 0.58973 0.0
C1881 C 0.4983 0.83509 0.64142 0.0
C1882 C 0.46103 0.8349 0.57224 0.0
C1883 C 0.45525 0.8517 0.58317 0.0
C1884 C 0.4867 0.8434 0.61846 0.0
C1885 C 0.4673 0.86557 0.6103 0.0
C1886 C 0.51367 0.84984 0.66571 0.0
C1887 C 0.49839 0.80192 0.665 0.0
N1888 N 0.4822 0.8608 0.62751 0.0
N1889 N 0.4915 0.81175 0.64153 0.0
H1890 H 0.29352 0.51054 0.26532 0.0
H1891 H 0.34626 0.4825 0.10726 0.0
H1892 H 0.25012 0.45284 0.20073 0.0
H1893 H 0.37247 0.55153 0.14918 0.0
H1894 H 0.31618 0.46581 0.15056 0.0
H1895 H 0.32787 0.51914 0.23262 0.0
C1896 C 0.29124 0.49941 0.24448 0.0
C1897 C 0.26878 0.48127 0.23527 0.0
C1898 C 0.32885 0.48451 0.15054 0.0
C1899 C 0.30821 0.49119 0.19767 0.0
C1900 C 0.34607 0.49399 0.12612 0.0
C1901 C 0.36174 0.51839 0.12482 0.0
C1902 C 0.32779 0.49956 0.174 0.0
C1903 C 0.36061 0.53265 0.14936 0.0
C1904 C 0.31089 0.50438 0.22585 0.0
C1905 C 0.26706 0.46715 0.20846 0.0
N1906 N 0.34389 0.52302 0.17292 0.0
N1907 N 0.28654 0.47266 0.19016 0.0
H1908 H 0.55415 0.79428 0.19466 0.0
H1909 H 0.46766 0.8437 0.15828 0.0
H1910 H 0.50132 0.79027 0.26142 0.0
H1911 H 0.5185 0.84649 0.08912 0.0
H1912 H 0.48627 0.83243 0.20099 0.0
H1913 H 0.5481 0.82162 0.16064 0.0
C1914 C 0.54175 0.79963 0.20258 0.0
C1915 C 0.52785 0.78964 0.23047 0.0
C1916 C 0.49368 0.83591 0.17664 0.0
C1917 C 0.52067 0.82056 0.19173 0.0
C1918 C 0.4831 0.84241 0.15241 0.0
C1919 C 0.49162 0.84584 0.12045 0.0
C1920 C 0.51258 0.83239 0.16852 0.0
C1921 C 0.51149 0.84384 0.11367 0.0
C1922 C 0.53819 0.81511 0.18309 0.0
C1923 C 0.51204 0.79717 0.23969 0.0
N1924 N 0.52114 0.83688 0.13744 0.0
N1925 N 0.50865 0.81189 0.22014 0.0
H1926 H 0.20408 0.70728 0.27184 0.0
H1927 H 0.13129 0.65771 0.10731 0.0
H1928 H 0.1987 0.75215 0.1994 0.0
H1929 H 0.1636 0.62524 0.16205 0.0
H1930 H 0.14291 0.68779 0.15033 0.0
H1931 H 0.1753 0.67281 0.24174 0.0
C1932 C 0.19647 0.70988 0.24988 0.0
C1933 C 0.20423 0.73258 0.23756 0.0
C1934 C 0.14682 0.67367 0.15327 0.0
C1935 C 0.17148 0.69316 0.20289 0.0
C1936 C 0.14009 0.65651 0.12898 0.0
C1937 C 0.14658 0.63917 0.13147 0.0
C1938 C 0.15976 0.67307 0.18017 0.0
C1939 C 0.15834 0.63842 0.15946 0.0
C1940 C 0.18005 0.69018 0.23275 0.0
C1941 C 0.19338 0.73492 0.20944 0.0
N1942 N 0.16468 0.65524 0.18269 0.0
N1943 N 0.17786 0.71535 0.19253 0.0
H1944 H 0.11459 0.18024 0.28588 0.0
H1945 H 0.17897 0.17938 0.14732 0.0
H1946 H 0.17607 0.18415 0.33011 0.0
H1947 H 0.17732 0.12133 0.1991 0.0
H1948 H 0.16226 0.18801 0.19574 0.0
H1949 H 0.12306 0.16548 0.23533 0.0
C1950 C 0.12963 0.17759 0.28503 0.0
C1951 C 0.14456 0.18306 0.31206 0.0
C1952 C 0.16525 0.17317 0.19616 0.0
C1953 C 0.1542 0.16642 0.25498 0.0
C1954 C 0.17478 0.16833 0.16878 0.0
C1955 C 0.179 0.1494 0.16932 0.0
C1956 C 0.16101 0.15962 0.22451 0.0
C1957 C 0.17382 0.13581 0.19778 0.0
C1958 C 0.13445 0.16934 0.25632 0.0
C1959 C 0.16412 0.17991 0.30973 0.0
N1960 N 0.16546 0.14145 0.22461 0.0
N1961 N 0.16831 0.17155 0.28165 0.0
H1962 H 0.80682 0.98937 0.32541 0.0
H1963 H 0.87571 0.05272 0.18913 0.0
H1964 H 0.81577 0.9351 0.27972 0.0
H1965 H 0.81103 -0.00028 0.14506 0.0
H1966 H 0.86622 0.02802 0.23814 0.0
H1967 H 0.82068 0.01275 0.27482 0.0
C1968 C 0.81177 0.98249 0.30471 0.0
C1969 C 0.81093 0.96076 0.30675 0.0
C1970 C 0.85444 0.02168 0.21741 0.0
C1971 C 0.82577 0.98669 0.24924 0.0
C1972 C 0.85986 0.03557 0.18948 0.0
C1973 C 0.84422 0.02797 0.16307 0.0
C1974 C 0.83332 0.00011 0.2187 0.0
C1975 C 0.82353 0.006 0.165 0.0
C1976 C 0.81966 0.99575 0.27613 0.0
C1977 C 0.81691 0.95217 0.27915 0.0
N1978 N 0.81861 0.99271 0.1925 0.0
N1979 N 0.82401 0.96514 0.25125 0.0
H1980 H 0.93801 0.81895 0.19494 0.0
H1981 H 0.00152 0.81462 0.33217 0.0
H1982 H 0.99461 0.81327 0.1506 0.0
H1983 H 0.0572 0.87635 0.28541 0.0
H1984 H 0.97727 0.80661 0.28274 0.0
H1985 H 0.96125 0.83312 0.24551 0.0
C1986 C 0.95554 0.82119 0.19572 0.0
C1987 C 0.96468 0.81527 0.16872 0.0
C1988 C 0.99471 0.82203 0.28363 0.0
C1989 C 0.99091 0.83116 0.22582 0.0
C1990 C 0.00847 0.82652 0.31155 0.0
C1991 C 0.031 0.84641 0.31281 0.0
C1992 C 0.00408 0.83699 0.25655 0.0
C1993 C 0.03962 0.86113 0.28537 0.0
C1994 C 0.9686 0.82909 0.22444 0.0
C1995 C 0.98716 0.81786 0.17098 0.0
N1996 N 0.02623 0.85594 0.258 0.0
N1997 N -0.00033 0.82578 0.19913 0.0
H1998 H 0.87952 0.81535 0.6999 0.0
H1999 H 0.81735 0.81978 0.83659 0.0
H2000 H 0.82257 0.81876 0.6527 0.0
H2001 H 0.81878 0.87778 0.78498 0.0
H2002 H 0.83435 0.81144 0.78829 0.0
H2003 H 0.87171 0.83085 0.75016 0.0
C2004 C 0.86568 0.81983 0.70004 0.0
C2005 C 0.85174 0.81608 0.67233 0.0
C2006 C 0.83129 0.82623 0.78787 0.0
C2007 C 0.8427 0.83337 0.72917 0.0
C2008 C 0.82155 0.83087 0.81518 0.0
C2009 C 0.81721 0.8497 0.81465 0.0
C2010 C 0.83566 0.83994 0.75963 0.0
C2011 C 0.82238 0.86337 0.78627 0.0
C2012 C 0.86119 0.82845 0.72861 0.0
C2013 C 0.8337 0.82159 0.67368 0.0
N2014 N 0.831 0.85796 0.75952 0.0
N2015 N 0.82973 0.83013 0.70173 0.0
H2016 H 0.1806 0.06277 0.69933 0.0
H2017 H 0.17974 -0.00123 0.83836 0.0
H2018 H 0.18098 0.00336 0.65483 0.0
H2019 H 0.1218 0.94129 0.78802 0.0
H2020 H 0.18751 0.02357 0.78956 0.0
H2021 H 0.16618 0.04016 0.75042 0.0
C2022 C 0.17723 0.04481 0.70026 0.0
C2023 C 0.18165 0.03465 0.67302 0.0
C2024 C 0.17287 0.00564 0.78954 0.0
C2025 C 0.16546 0.00911 0.73072 0.0
C2026 C 0.16853 0.99157 0.81714 0.0
C2027 C 0.1499 0.96827 0.8171 0.0
C2028 C 0.1591 0.99588 0.7615 0.0
C2029 C 0.13607 0.95939 0.78895 0.0
C2030 C 0.16919 0.03209 0.72926 0.0
C2031 C 0.17757 0.0116 0.6754 0.0
N2032 N 0.14122 0.97311 0.7619 0.0
N2033 N 0.16948 -0.00056 0.7038 0.0
H2034 H 0.93171 0.11493 0.70083 0.0
H2035 H -0.00168 0.18043 0.83578 0.0
H2036 H 0.99134 0.17257 0.65319 0.0
H2037 H 0.0545 0.17694 0.78619 0.0
H2038 H 0.97306 0.16269 0.78763 0.0
H2039 H 0.95529 0.12328 0.75097 0.0
C2040 C 0.94994 0.12895 0.7008 0.0
C2041 C 0.95985 0.143 0.67305 0.0
C2042 C 0.99081 0.1655 0.78764 0.0
C2043 C 0.98645 0.15263 0.72965 0.0
C2044 C 0.00516 0.17569 0.81482 0.0
C2045 C 0.02817 0.17957 0.81487 0.0
C2046 C 2e-05 0.16023 0.76005 0.0
C2047 C 0.0366 0.17369 0.78706 0.0
C2048 C 0.96321 0.13376 0.72928 0.0
C2049 C 0.98329 0.16132 0.67419 0.0
N2050 N 0.02261 0.16462 0.76038 0.0
N2051 N 0.99593 0.16559 0.70212 0.0
H2052 H 0.78335 0.51467 0.62101 0.0
H2053 H 0.85375 0.5203 0.47855 0.0
H2054 H 0.85073 0.52812 0.65703 0.0
H2055 H 0.8379 0.4553 0.52605 0.0
H2056 H 0.83937 0.53142 0.52726 0.0
H2057 H 0.79153 0.50148 0.56873 0.0
C2058 C 0.79974 0.51461 0.61792 0.0
C2059 C 0.81621 0.52185 0.64336 0.0
C2060 C 0.83872 0.51457 0.52656 0.0
C2061 C 0.82553 0.50717 0.58437 0.0
C2062 C 0.84684 0.50826 0.49902 0.0
C2063 C 0.84651 0.48672 0.49832 0.0
C2064 C 0.83106 0.49955 0.55368 0.0
C2065 C 0.83788 0.47181 0.52556 0.0
C2066 C 0.80436 0.50724 0.58826 0.0
C2067 C 0.83751 0.52226 0.63804 0.0
N2068 N 0.83078 0.47867 0.55251 0.0
N2069 N 0.84149 0.51468 0.60912 0.0
H2070 H 0.48453 0.32939 0.67163 0.0
H2071 H 0.48703 0.3367 0.48594 0.0
H2072 H 0.48473 0.27232 0.61966 0.0
H2073 H 0.54448 0.39474 0.53618 0.0
H2074 H 0.47921 0.31223 0.53512 0.0
H2075 H 0.50078 0.35441 0.62281 0.0
C2076 C 0.48831 0.32232 0.65004 0.0
C2077 C 0.48373 0.29905 0.64951 0.0
C2078 C 0.49369 0.33025 0.53509 0.0
C2079 C 0.50105 0.32685 0.59386 0.0
C2080 C 0.49806 0.34413 0.50728 0.0
C2081 C 0.51664 0.36745 0.50713 0.0
C2082 C 0.50729 0.34025 0.56319 0.0
C2083 C 0.53025 0.37662 0.53542 0.0
C2084 C 0.49757 0.33651 0.62242 0.0
C2085 C 0.48844 0.29037 0.62094 0.0
N2086 N 0.52508 0.36307 0.56265 0.0
N2087 N 0.49647 0.30416 0.59389 0.0
H2088 H 0.60045 0.15157 0.53383 0.0
H2089 H 0.66523 0.14975 0.67107 0.0
H2090 H 0.6572 0.14611 0.48955 0.0
H2091 H 0.72079 0.21036 0.62215 0.0
H2092 H 0.64039 0.14129 0.62219 0.0
H2093 H 0.62396 0.16648 0.58409 0.0
C2094 C 0.61805 0.15399 0.53457 0.0
C2095 C 0.62717 0.14796 0.50767 0.0
C2096 C 0.65793 0.1566 0.6225 0.0
C2097 C 0.65371 0.1647 0.56439 0.0
C2098 C 0.67201 0.16135 0.65012 0.0
C2099 C 0.69471 0.18102 0.65057 0.0
C2100 C 0.66712 0.17105 0.59492 0.0
C2101 C 0.7031 0.19532 0.62272 0.0
C2102 C 0.63127 0.16232 0.5631 0.0
C2103 C 0.64976 0.15078 0.50986 0.0
N2104 N 0.68939 0.18984 0.59564 0.0
N2105 N 0.66242 0.15914 0.5378 0.0
H2106 H 0.48177 0.14932 0.98224 0.0
H2107 H 0.48017 0.1537 0.16783 0.0
H2108 H 0.53932 0.14867 0.03203 0.0
H2109 H 0.48104 0.21192 0.11765 0.0
H2110 H 0.49553 0.14484 0.11818 0.0
H2111 H 0.47445 0.16647 0.03135 0.0
C2112 C 0.49298 0.15309 0.00342 0.0
C2113 C 0.51135 0.14804 0.00323 0.0
C2114 C 0.49261 0.15972 0.11832 0.0
C2115 C 0.50251 0.16638 0.05922 0.0
C2116 C 0.48384 0.16468 0.14641 0.0
C2117 C 0.47987 0.18377 0.14671 0.0
C2118 C 0.49622 0.17324 0.09011 0.0
C2119 C 0.48435 0.1973 0.1183 0.0
C2120 C 0.48888 0.16286 0.03119 0.0
C2121 C 0.52521 0.15274 0.03129 0.0
N2122 N 0.49197 0.19155 0.09081 0.0
N2123 N 0.52024 0.16129 0.05852 0.0
H2124 H 0.84784 0.39442 0.03718 0.0
H2125 H 0.78266 0.27056 0.12381 0.0
H2126 H 0.84466 0.33425 0.98956 0.0
H2127 H 0.84216 0.3282 0.17152 0.0
H2128 H 0.79151 0.2949 0.07431 0.0
H2129 H 0.83173 0.37068 0.08715 0.0
C2130 C 0.84326 0.37607 0.03714 0.0
C2131 C 0.84718 0.36601 0.00937 0.0
C2132 C 0.80231 0.30222 0.09588 0.0
C2133 C 0.82888 0.33915 0.06564 0.0
C2134 C 0.79729 0.28851 0.12397 0.0
C2135 C 0.81164 0.29763 0.15161 0.0
C2136 C 0.82157 0.32522 0.09582 0.0
C2137 C 0.83068 0.32073 0.15062 0.0
C2138 C 0.83424 0.3627 0.0655 0.0
C2139 C 0.84159 0.34242 0.01052 0.0
N2140 N 0.83506 0.33389 0.12311 0.0
N2141 N 0.8325 0.32964 0.03823 0.0
H2142 H 0.65794 0.50557 0.98715 0.0
H2143 H 0.72203 0.50874 0.12533 0.0
H2144 H 0.5994 0.45076 0.04032 0.0
H2145 H 0.66528 0.51379 0.17043 0.0
H2146 H 0.69777 0.49233 0.07611 0.0
H2147 H 0.68257 0.51439 0.03624 0.0
C2148 C 0.65044 0.49532 0.00913 0.0
C2149 C 0.62697 0.4771 0.00981 0.0
C2150 C 0.6906 0.49673 0.09705 0.0
C2151 C 0.65442 0.48748 0.06566 0.0
C2152 C 0.70425 0.50586 0.12505 0.0
C2153 C 0.69541 0.51237 0.15178 0.0
C2154 C 0.66805 0.49409 0.09605 0.0
C2155 C 0.67254 0.50886 0.15018 0.0
C2156 C 0.66441 0.50023 0.03689 0.0
C2157 C 0.61767 0.46459 0.03892 0.0
N2158 N 0.6595 0.49984 0.12265 0.0
N2159 N 0.63138 0.47023 0.06603 0.0
H2160 H 0.45153 0.84701 0.95426 0.0
H2161 H 0.51591 0.84724 0.81198 0.0
H2162 H 0.51663 0.85616 -0.00673 0.0
H2163 H 0.51076 0.78762 0.86386 0.0
H2164 H 0.50067 0.85743 0.86061 0.0
H2165 H 0.45939 0.83267 0.90279 0.0
C2166 C 0.46733 0.84573 0.952 0.0
C2167 C 0.48333 0.8523 0.97795 0.0
C2168 C 0.50256 0.84192 0.86097 0.0
C2169 C 0.49219 0.83607 0.91995 0.0
C2170 C 0.5112 0.83615 0.83346 0.0
C2171 C 0.51412 0.8164 0.83404 0.0
C2172 C 0.49789 0.8284 0.8894 0.0
C2173 C 0.50828 0.80274 0.86251 0.0
C2174 C 0.47177 0.83769 0.92281 0.0
C2175 C 0.50383 0.85097 0.9738 0.0
N2176 N 0.50083 0.80926 0.88945 0.0
N2177 N 0.50758 0.84266 0.94536 0.0
H2178 H 0.13819 0.6766 0.83045 0.0
H2179 H 0.15984 0.61597 0.96502 0.0
H2180 H 0.20875 0.72285 0.86512 0.0
H2181 H 0.13091 0.65752 0.00286 0.0
H2182 H 0.17359 0.64142 0.91659 0.0
H2183 H 0.12915 0.65453 0.88221 0.0
C2184 C 0.15176 0.68194 0.84888 0.0
C2185 C 0.17445 0.70093 0.84331 0.0
C2186 C 0.16457 0.64509 0.93579 0.0
C2187 C 0.16421 0.67629 0.90187 0.0
C2188 C 0.15708 0.63091 0.96356 0.0
C2189 C 0.14514 0.63535 0.98842 0.0
C2190 C 0.15919 0.66313 0.93248 0.0
C2191 C 0.14051 0.65391 0.9844 0.0
C2192 C 0.14661 0.66945 0.87816 0.0
C2193 C 0.19134 0.70766 0.86816 0.0
N2194 N 0.14739 0.66709 0.95669 0.0
N2195 N 0.18597 0.69517 0.89644 0.0
H2196 H 0.33475 0.48755 0.00355 0.0
H2197 H 0.26826 0.48371 0.86633 0.0
H2198 H 0.39116 0.54494 0.95076 0.0
H2199 H 0.32666 0.48221 0.82036 0.0
H2200 H 0.29199 0.49951 0.91619 0.0
H2201 H 0.30928 0.4786 0.95531 0.0
C2202 C 0.34158 0.49839 0.98189 0.0
C2203 C 0.36475 0.51725 0.98105 0.0
C2204 C 0.2996 0.49597 0.89497 0.0
C2205 C 0.33638 0.50668 0.92604 0.0
C2206 C 0.28623 0.48713 0.86664 0.0
C2207 C 0.29575 0.48195 0.83937 0.0
C2208 C 0.32259 0.49971 0.89573 0.0
C2209 C 0.31888 0.48616 0.84098 0.0
C2210 C 0.32713 0.49337 0.95461 0.0
C2211 C 0.37315 0.53054 0.95233 0.0
N2212 N 0.33166 0.49499 0.86875 0.0
N2213 N 0.35906 0.52474 0.9256 0.0
H2214 H 0.14915 0.48455 0.50757 0.0
H2215 H 0.21386 0.48442 0.37009 0.0
H2216 H 0.14891 0.54187 0.45637 0.0
H2217 H 0.15409 0.48313 0.32423 0.0
H2218 H 0.20502 0.49875 0.42071 0.0
H2219 H 0.16701 0.47722 0.45936 0.0
C2220 C 0.15323 0.49576 0.4863 0.0
C2221 C 0.14811 0.51408 0.48585 0.0
C2222 C 0.19408 0.49556 0.39937 0.0
C2223 C 0.1674 0.50531 0.43084 0.0
C2224 C 0.19912 0.48756 0.37063 0.0
C2225 C 0.18476 0.48293 0.34313 0.0
C2226 C 0.17466 0.49903 0.40031 0.0
C2227 C 0.16558 0.4867 0.34501 0.0
C2228 C 0.16341 0.49166 0.45903 0.0
C2229 C 0.15311 0.52787 0.45762 0.0
N2230 N 0.16115 0.49476 0.37317 0.0
N2231 N 0.16212 0.52292 0.43085 0.0
H2232 H 0.45002 0.60328 0.45335 0.0
H2233 H 0.5142 0.72653 0.36524 0.0
H2234 H 0.50939 0.66183 0.49988 0.0
H2235 H 0.51172 0.66659 0.3179 0.0
H2236 H 0.49791 0.70276 0.41507 0.0
H2237 H 0.45861 0.6269 0.40315 0.0
C2238 C 0.46458 0.62126 0.45307 0.0
C2239 C 0.47892 0.63091 0.48061 0.0
C2240 C 0.50059 0.69482 0.3935 0.0
C2241 C 0.48852 0.65765 0.4241 0.0
C2242 C 0.5097 0.70821 0.36521 0.0
C2243 C 0.51397 0.69825 0.33762 0.0
C2244 C 0.4955 0.67137 0.39377 0.0
C2245 C 0.50844 0.67468 0.33877 0.0
C2246 C 0.46945 0.63457 0.4246 0.0
C2247 C 0.49789 0.654 0.47908 0.0
N2248 N 0.49931 0.66189 0.36647 0.0
N2249 N 0.50208 0.66677 0.45124 0.0
H2250 H 0.39435 0.84651 0.45206 0.0
H2251 H 0.27017 0.78459 0.36561 0.0
H2252 H 0.334 0.84258 0.5002 0.0
H2253 H 0.33014 0.84116 0.31696 0.0
H2254 H 0.2941 0.79237 0.41519 0.0
H2255 H 0.37092 0.83121 0.40186 0.0
C2256 C 0.37604 0.84202 0.4521 0.0
C2257 C 0.36583 0.84544 0.48009 0.0
C2258 C 0.30202 0.80274 0.39341 0.0
C2259 C 0.33929 0.828 0.42356 0.0
C2260 C 0.28854 0.79829 0.36526 0.0
C2261 C 0.29844 0.8122 0.3374 0.0
C2262 C 0.32551 0.821 0.39331 0.0
C2263 C 0.32208 0.83006 0.33809 0.0
C2264 C 0.36283 0.83343 0.42362 0.0
C2265 C 0.34228 0.83993 0.47902 0.0
N2266 N 0.33496 0.83394 0.36571 0.0
N2267 N 0.32964 0.83124 0.45114 0.0
H2268 H 0.29163 0.17232 0.08949 0.0
H2269 H 0.37067 0.16436 0.23225 0.0
H2270 H 0.26273 0.13167 0.17751 0.0
H2271 H 0.39928 0.20524 0.14434 0.0
H2272 H 0.33101 0.15265 0.21311 0.0
H2273 H 0.33121 0.18451 0.10925 0.0
C2274 C 0.2936 0.16586 0.11293 0.0
C2275 C 0.27385 0.15095 0.13189 0.0
C2276 C 0.34596 0.16425 0.19805 0.0
C2277 C 0.31915 0.16497 0.15478 0.0
C2278 C 0.36862 0.171 0.20902 0.0
C2279 C 0.3883 0.18578 0.18983 0.0
C2280 C 0.34297 0.1723 0.16766 0.0
C2281 C 0.38461 0.19382 0.15992 0.0
C2282 C 0.31623 0.17289 0.12424 0.0
C2283 C 0.27747 0.14317 0.16208 0.0
N2284 N 0.36237 0.18692 0.14971 0.0
N2285 N 0.29969 0.1503 0.17262 0.0
H2286 H 0.83345 0.20757 0.23301 0.0
H2287 H 0.82267 0.12031 0.08877 0.0
H2288 H 0.79199 0.19601 0.14601 0.0
H2289 H 0.86305 0.13005 0.17639 0.0
H2290 H 0.81161 0.14832 0.10941 0.0
H2291 H 0.84443 0.17918 0.21309 0.0
C2292 C 0.82656 0.19897 0.20979 0.0
C2293 C 0.81179 0.20417 0.19112 0.0
C2294 C 0.82291 0.14439 0.12415 0.0
C2295 C 0.8244 0.1718 0.1681 0.0
C2296 C 0.82929 0.12841 0.11234 0.0
C2297 C 0.84381 0.12283 0.1309 0.0
C2298 C 0.83109 0.1549 0.15479 0.0
C2299 C 0.85184 0.13387 0.16126 0.0
C2300 C 0.83288 0.18281 0.19841 0.0
C2301 C 0.80341 0.19253 0.16121 0.0
N2302 N 0.84534 0.14938 0.1723 0.0
N2303 N 0.80988 0.17695 0.15061 0.0
H2304 H 0.79679 0.59616 0.13932 0.0
H2305 H 0.86212 0.73529 0.17179 0.0
H2306 H 0.78531 0.6278 0.22461 0.0
H2307 H 0.87492 0.70424 0.08694 0.0
H2308 H 0.83315 0.69595 0.19074 0.0
H2309 H 0.82511 0.63553 0.11919 0.0
C2310 C 0.80028 0.61138 0.15385 0.0
C2311 C 0.78871 0.60872 0.18369 0.0
C2312 C 0.84223 0.69772 0.16792 0.0
C2313 C 0.82095 0.65376 0.16077 0.0
C2314 C 0.85874 0.72019 0.15705 0.0
C2315 C 0.87097 0.72303 0.12777 0.0
C2316 C 0.83792 0.67791 0.14941 0.0
C2317 C 0.8659 0.70285 0.10967 0.0
C2318 C 0.8164 0.63384 0.14232 0.0
C2319 C 0.79385 0.62903 0.20148 0.0
N2320 N 0.84979 0.68112 0.12084 0.0
N2321 N 0.80957 0.65068 0.18974 0.0
H2322 H 0.16191 0.3735 0.25631 0.0
H2323 H 0.16633 0.29242 0.39917 0.0
H2324 H 0.20286 0.40095 0.3443 0.0
H2325 H 0.12559 0.26463 0.31108 0.0
H2326 H 0.17932 0.33231 0.37981 0.0
H2327 H 0.14849 0.33348 0.27575 0.0
C2328 C 0.16821 0.37111 0.27962 0.0
C2329 C 0.18353 0.39059 0.29872 0.0
C2330 C 0.16747 0.3175 0.36474 0.0
C2331 C 0.16807 0.34485 0.32126 0.0
C2332 C 0.15997 0.2947 0.37585 0.0
C2333 C 0.14487 0.27517 0.35669 0.0
C2334 C 0.15986 0.32083 0.3342 0.0
C2335 C 0.13723 0.27919 0.32665 0.0
C2336 C 0.16047 0.34826 0.29076 0.0
C2337 C 0.19108 0.38645 0.32875 0.0
N2338 N 0.14487 0.30158 0.31628 0.0
N2339 N 0.18322 0.36404 0.33913 0.0
H2340 H 0.62932 0.78238 0.26011 0.0
H2341 H 0.70796 0.8725 0.40061 0.0
H2342 H 0.6 0.79718 0.34515 0.0
H2343 H 0.73665 0.85739 0.31514 0.0
H2344 H 0.66828 0.84369 0.38216 0.0
H2345 H 0.66884 0.80908 0.28081 0.0
C2346 C 0.6312 0.79131 0.28309 0.0
C2347 C 0.61135 0.78761 0.30089 0.0
C2348 C 0.68327 0.84659 0.36755 0.0
C2349 C 0.65655 0.81811 0.32487 0.0
C2350 C 0.70593 0.86296 0.37814 0.0
C2351 C 0.72562 0.86741 0.35932 0.0
C2352 C 0.68033 0.83464 0.33791 0.0
C2353 C 0.72196 0.85457 0.33039 0.0
C2354 C 0.65378 0.80651 0.29497 0.0
C2355 C 0.61483 0.79958 0.33059 0.0
N2356 N 0.69977 0.83887 0.3205 0.0
N2357 N 0.637 0.81431 0.34165 0.0
H2358 H 0.21284 0.8417 0.25873 0.0
H2359 H 0.12272 0.82986 0.39935 0.0
H2360 H 0.19981 0.79988 0.34584 0.0
H2361 H 0.13441 0.87086 0.31172 0.0
H2362 H 0.15224 0.82011 0.38105 0.0
H2363 H 0.18508 0.85361 0.2783 0.0
C2364 C 0.20411 0.835 0.28194 0.0
C2365 C 0.20857 0.81974 0.30067 0.0
C2366 C 0.14844 0.83132 0.36585 0.0
C2367 C 0.17693 0.83335 0.32325 0.0
C2368 C 0.13161 0.83694 0.37633 0.0
C2369 C 0.12605 0.85112 0.35695 0.0
C2370 C 0.15976 0.8399 0.33573 0.0
C2371 C 0.13815 0.85983 0.32739 0.0
C2372 C 0.18831 0.84184 0.29313 0.0
C2373 C 0.19684 0.81163 0.33058 0.0
N2374 N 0.15438 0.854 0.3176 0.0
N2375 N 0.18155 0.81854 0.34094 0.0
H2376 H 0.73491 0.86958 0.80665 0.0
H2377 H 0.59643 0.79588 0.84367 0.0
H2378 H 0.7052 0.8285 0.89415 0.0
H2379 H 0.62635 0.83672 0.75605 0.0
H2380 H 0.63613 0.80747 0.86259 0.0
H2381 H 0.6952 0.85801 0.78796 0.0
C2382 C 0.72003 0.85821 0.822 0.0
C2383 C 0.72333 0.84997 0.85197 0.0
C2384 C 0.634 0.81385 0.83919 0.0
C2385 C 0.67786 0.83654 0.83068 0.0
C2386 C 0.61134 0.80719 0.82835 0.0
C2387 C 0.60811 0.81537 0.79827 0.0
C2388 C 0.65353 0.8288 0.8198 0.0
C2389 C 0.62804 0.83001 0.77942 0.0
C2390 C 0.69736 0.85156 0.81128 0.0
C2391 C 0.70344 0.83526 0.87086 0.0
N2392 N 0.64991 0.8363 0.79053 0.0
N2393 N 0.68154 0.82898 0.85986 0.0
H2394 H 0.16389 0.79188 0.74988 0.0
H2395 H 0.17469 0.87937 0.89385 0.0
H2396 H 0.20553 0.80348 0.83671 0.0
H2397 H 0.13289 0.8678 0.80721 0.0
H2398 H 0.18694 0.85232 0.87265 0.0
H2399 H 0.15376 0.82099 0.76924 0.0
C2400 C 0.17111 0.80073 0.77286 0.0
C2401 C 0.18551 0.79519 0.79177 0.0
C2402 C 0.17508 0.85568 0.85826 0.0
C2403 C 0.17378 0.82832 0.81426 0.0
C2404 C 0.168 0.87106 0.87042 0.0
C2405 C 0.1527 0.8758 0.8523 0.0
C2406 C 0.16679 0.84494 0.82774 0.0
C2407 C 0.14466 0.8646 0.82203 0.0
C2408 C 0.16523 0.81728 0.78397 0.0
C2409 C 0.19434 0.80718 0.82136 0.0
N2410 N 0.15181 0.84969 0.8107 0.0
N2411 N 0.18822 0.82308 0.83178 0.0
H2412 H 0.20835 0.36959 0.7564 0.0
H2413 H 0.11931 0.29031 0.89747 0.0
H2414 H 0.19522 0.398 0.8438 0.0
H2415 H 0.13104 0.2615 0.80938 0.0
H2416 H 0.14777 0.32984 0.87863 0.0
H2417 H 0.18037 0.32984 0.77542 0.0
C2418 C 0.1995 0.36747 0.77953 0.0
C2419 C 0.2041 0.38713 0.79855 0.0
C2420 C 0.14419 0.31489 0.86343 0.0
C2421 C 0.17218 0.3417 0.82056 0.0
C2422 C 0.12797 0.29229 0.87422 0.0
C2423 C 0.12277 0.27258 0.85493 0.0
C2424 C 0.1553 0.31785 0.83308 0.0
C2425 C 0.13453 0.27621 0.82502 0.0
C2426 C 0.18357 0.34477 0.79041 0.0
C2427 C 0.19217 0.38335 0.82834 0.0
N2428 N 0.15022 0.29843 0.81496 0.0
N2429 N 0.17679 0.36107 0.83845 0.0
H2430 H 0.82082 0.70156 0.59348 0.0
H2431 H 0.82827 0.6235 0.73837 0.0
H2432 H 0.86314 0.73062 0.68003 0.0
H2433 H 0.78705 0.59384 0.6511 0.0
H2434 H 0.83912 0.66286 0.71884 0.0
H2435 H 0.80683 0.6619 0.61503 0.0
C2436 C 0.82724 0.6996 0.61694 0.0
C2437 C 0.84324 0.71941 0.63493 0.0
C2438 C 0.82757 0.64774 0.70404 0.0
C2439 C 0.82717 0.67414 0.65985 0.0
C2440 C 0.82128 0.62525 0.71526 0.0
C2441 C 0.80683 0.60537 0.69625 0.0
C2442 C 0.81942 0.65041 0.67353 0.0
C2443 C 0.79828 0.60869 0.66651 0.0
C2444 C 0.81918 0.67696 0.62929 0.0
C2445 C 0.85088 0.71584 0.66527 0.0
N2446 N 0.80484 0.6308 0.65595 0.0
N2447 N 0.84278 0.69366 0.67675 0.0
H2448 H 0.29185 0.12072 0.58571 0.0
H2449 H 0.37082 0.209 0.72741 0.0
H2450 H 0.26345 0.13518 0.67206 0.0
H2451 H 0.39999 0.19745 0.63952 0.0
H2452 H 0.33134 0.18149 0.70758 0.0
H2453 H 0.33162 0.14873 0.60466 0.0
C2454 C 0.29398 0.1299 0.60855 0.0
C2455 C 0.27433 0.12562 0.62737 0.0
C2456 C 0.34636 0.18492 0.69261 0.0
C2457 C 0.31972 0.1575 0.64928 0.0
C2458 C 0.36892 0.20059 0.70397 0.0
C2459 C 0.38871 0.20551 0.68507 0.0
C2460 C 0.34352 0.17406 0.66211 0.0
C2461 C 0.3852 0.19413 0.65488 0.0
C2462 C 0.31668 0.14583 0.61939 0.0
C2463 C 0.2781 0.13795 0.65677 0.0
N2464 N 0.36301 0.17893 0.6443 0.0
N2465 N 0.30035 0.15327 0.66687 0.0
H2466 H 0.86034 0.12852 0.67792 0.0
H2467 H 0.79856 0.20565 0.64662 0.0
H2468 H 0.87565 0.17421 0.59454 0.0
H2469 H 0.78574 0.16174 0.73142 0.0
H2470 H 0.82727 0.19492 0.62733 0.0
H2471 H 0.8329 0.14061 0.69772 0.0
C2472 C 0.85786 0.14105 0.6637 0.0
C2473 C 0.87027 0.15036 0.63451 0.0
C2474 C 0.81824 0.18772 0.65022 0.0
C2475 C 0.83893 0.16438 0.65714 0.0
C2476 C 0.8019 0.19388 0.66129 0.0
C2477 C 0.78971 0.18452 0.69063 0.0
C2478 C 0.82237 0.17205 0.66861 0.0
C2479 C 0.79471 0.16934 0.70864 0.0
C2480 C 0.84223 0.148 0.67508 0.0
C2481 C 0.8664 0.16657 0.61714 0.0
N2482 N 0.81059 0.16351 0.69727 0.0
N2483 N 0.85105 0.17308 0.62873 0.0
H2484 H 0.0639 0.53093 0.47621 0.0
H2485 H 0.92486 0.46002 0.50951 0.0
H2486 H 0.03242 0.48759 0.5614 0.0
H2487 H 0.95702 0.50097 0.42267 0.0
H2488 H 0.96393 0.4696 0.52908 0.0
H2489 H 0.02469 0.52022 0.45656 0.0
C2490 C 0.04873 0.5192 0.49084 0.0
C2491 C 0.05141 0.51014 0.52049 0.0
C2492 C 0.96241 0.47641 0.50569 0.0
C2493 C 0.00642 0.49772 0.49809 0.0
C2494 C 0.94012 0.47091 0.49449 0.0
C2495 C 0.93771 0.47975 0.46446 0.0
C2496 C 0.98239 0.49089 0.48672 0.0
C2497 C 0.95806 0.49379 0.446 0.0
C2498 C 0.02632 0.51304 0.47956 0.0
C2499 C 0.03113 0.49498 0.5384 0.0
N2500 N 0.97953 0.49898 0.45748 0.0
N2501 N 0.00947 0.48924 0.52691 0.0
H2502 H 0.50095 0.54289 0.56594 0.0
H2503 H 0.49423 0.45601 0.42362 0.0
H2504 H 0.46016 0.53019 0.47796 0.0
H2505 H 0.53485 0.46852 0.51173 0.0
H2506 H 0.48179 0.48336 0.44293 0.0
H2507 H 0.51325 0.51539 0.54675 0.0
C2508 C 0.49446 0.5342 0.54267 0.0
C2509 C 0.47951 0.53883 0.5235 0.0
C2510 C 0.49347 0.48018 0.45802 0.0
C2511 C 0.49367 0.50749 0.50126 0.0
C2512 C 0.50064 0.46461 0.44696 0.0
C2513 C 0.51559 0.45998 0.46612 0.0
C2514 C 0.50128 0.49118 0.48848 0.0
C2515 C 0.52332 0.4716 0.49617 0.0
C2516 C 0.50155 0.51856 0.53167 0.0
C2517 C 0.47168 0.52712 0.49353 0.0
N2518 N 0.51603 0.48663 0.50646 0.0
N2519 N 0.47891 0.51203 0.48329 0.0
H2520 H 0.52563 0.0667 0.51196 0.0
H2521 H 0.46557 0.92816 0.4777 0.0
H2522 H 0.53833 0.03686 0.4257 0.0
H2523 H 0.45127 0.95696 0.56373 0.0
H2524 H 0.49252 0.96805 0.45868 0.0
H2525 H 0.49804 0.02686 0.53133 0.0
C2526 C 0.52249 0.05178 0.49699 0.0
C2527 C 0.5343 0.05509 0.46718 0.0
C2528 C 0.48355 0.96569 0.48176 0.0
C2529 C 0.50295 0.00951 0.4893 0.0
C2530 C 0.46819 0.94289 0.4927 0.0
C2531 C 0.45615 0.93923 0.52236 0.0
C2532 C 0.48693 0.98505 0.50058 0.0
C2533 C 0.46022 0.959 0.54073 0.0
C2534 C 0.50681 0.02905 0.50812 0.0
C2535 C 0.52962 0.03514 0.44883 0.0
N2536 N 0.47525 0.98109 0.52951 0.0
N2537 N 0.51437 0.01322 0.46023 0.0
H2538 H 0.48531 0.03377 0.92615 0.0
H2539 H 0.49715 0.95695 0.06887 0.0
H2540 H 0.52753 0.06382 0.01253 0.0
H2541 H 0.45575 0.92693 0.98182 0.0
H2542 H 0.50698 0.99615 0.04983 0.0
H2543 H 0.47338 0.99441 0.94686 0.0
C2544 C 0.49214 0.03209 0.94943 0.0
C2545 C 0.50749 0.05209 0.96762 0.0
C2546 C 0.49565 0.98098 0.03496 0.0
C2547 C 0.49378 0.0071 0.99157 0.0
C2548 C 0.48996 0.95859 0.04587 0.0
C2549 C 0.47568 0.93867 0.02683 0.0
C2550 C 0.48705 0.98349 0.00474 0.0
C2551 C 0.46685 0.94182 -0.00275 0.0
C2552 C 0.48526 0.0096 0.96129 0.0
C2553 C 0.51572 0.04887 -0.00233 0.0
N2554 N 0.47278 0.96383 0.98703 0.0
N2555 N 0.50876 0.02679 0.00871 0.0
H2556 H 0.96115 0.45079 0.926 0.0
H2557 H 0.03827 0.53826 0.06949 0.0
H2558 H 0.93205 0.46485 0.01195 0.0
H2559 H 0.06871 0.53081 0.97997 0.0
H2560 H -0.00063 0.50932 0.04974 0.0
H2561 H 0.00082 0.47856 0.94584 0.0
C2562 C 0.9631 0.45978 0.94896 0.0
C2563 C 0.94329 0.45554 0.96735 0.0
C2564 C 0.01452 0.51392 0.03439 0.0
C2565 C 0.9885 0.48708 0.99025 0.0
C2566 C 0.03679 0.53041 0.04572 0.0
C2567 C 0.05675 0.53701 0.02628 0.0
C2568 C 0.01212 0.50391 0.00335 0.0
C2569 C 0.05375 0.52621 -0.00428 0.0
C2570 C 0.98573 0.47557 0.96028 0.0
C2571 C 0.94681 0.4676 -0.00306 0.0
N2572 N 0.0318 0.51022 0.9851 0.0
N2573 N 0.96896 0.48277 0.00747 0.0
H2574 H 0.54106 0.5004 0.92147 0.0
H2575 H 0.45425 0.49527 0.063 0.0
H2576 H 0.52625 0.45902 0.00938 0.0
H2577 H 0.46639 0.53518 0.97418 0.0
H2578 H 0.48133 0.48255 0.04384 0.0
H2579 H 0.51396 0.51354 0.93997 0.0
C2580 C 0.532 0.49397 0.94454 0.0
C2581 C 0.53592 0.47861 0.96393 0.0
C2582 C 0.47814 0.49413 0.02852 0.0
C2583 C 0.5051 0.49369 0.98533 0.0
C2584 C 0.46272 0.50147 0.03951 0.0
C2585 C 0.45804 0.51629 0.02014 0.0
C2586 C 0.489 0.50164 -0.00212 0.0
C2587 C 0.46952 0.52375 0.9899 0.0
C2588 C 0.5166 0.50153 0.95513 0.0
C2589 C 0.52377 0.47087 -0.00636 0.0
N2590 N 0.48444 0.51629 0.97965 0.0
N2591 N 0.50898 0.47855 0.00345 0.0
loop_
_geom_bond_atom_site_label_1
_geom_bond_atom_site_label_2
_geom_bond_distance
_geom_bond_site_symmetry_2
_ccdc_geom_bond_type
Mn0 O5 2.095 . S
Mn0 O15 2.162 . S
Mn0 O16 2.297 . S
Mn0 O24 2.385 . S
Mn0 O25 2.209 . S
Mn0 O26 2.094 . S
Mn1 O6 2.121 . S
Mn1 N8 2.257 . S
Mn1 N17 2.282 . S
Mn1 O25 2.215 . S
Mn1 O27 2.117 . S
C2 O24 1.234 . S
C2 O25 1.283 . S
C3 O15 1.281 . S
C3 O16 1.236 . S
C4 O26 1.240 . S
C4 O27 1.264 . S
O5 Mn0 2.095 . S
O5 C14 1.250 . S
O6 Mn1 2.121 . S
O6 C14 1.258 . S
C7 N8 1.326 . S
C7 C11 1.460 . S
C7 H13 0.929 . S
N8 Mn1 2.257 . S
N8 C7 1.326 . S
N8 C12 1.362 . S
C9 C10 1.258 . S
C9 C12 1.431 . S
C9 C29 1.449 . S
C10 C9 1.258 . S
C10 C11 1.477 . S
C10 H30 0.931 . S
C11 C7 1.460 . S
C11 C10 1.477 . S
C11 H31 0.930 . S
C12 N8 1.362 . S
C12 C9 1.431 . S
C12 C22 1.476 . S
H13 C7 0.929 . S
C14 O5 1.250 . S
C14 O6 1.258 . S
O15 Mn0 2.162 . S
O15 C3 1.281 . S
O16 Mn0 2.297 . S
O16 C3 1.236 . S
N17 Mn1 2.282 . S
N17 C18 1.328 . S
N17 C22 1.318 . S
C18 N17 1.328 . S
C18 C19 1.457 . S
C18 H23 0.929 . S
C19 C18 1.457 . S
C19 C20 1.291 . S
C19 H32 0.931 . S
C20 C19 1.291 . S
C20 C21 1.373 . S
C20 H33 0.929 . S
C21 C20 1.373 . S
C21 C22 1.396 . S
C21 C28 1.403 . S
C22 C12 1.476 . S
C22 N17 1.318 . S
C22 C21 1.396 . S
H23 C18 0.929 . S
O24 Mn0 2.385 . S
O24 C2 1.234 . S
O25 Mn0 2.209 . S
O25 Mn1 2.215 . S
O25 C2 1.283 . S
O26 Mn0 2.094 . S
O26 C4 1.240 . S
O27 Mn1 2.117 . S
O27 C4 1.264 . S
C28 C21 1.403 . S
C28 C29 1.399 . S
C28 H34 0.929 . S
C29 C9 1.449 . S
C29 C28 1.399 . S
C29 H35 0.930 . S
H30 C10 0.931 . S
H31 C11 0.930 . S
H32 C19 0.931 . S
H33 C20 0.929 . S
H34 C28 0.929 . S
H35 C29 0.930 . S
Mn36 O41 2.095 . S
Mn36 O51 2.162 . S
Mn36 O52 2.297 . S
Mn36 O60 2.385 . S
Mn36 O61 2.209 . S
Mn36 O62 2.094 . S
Mn37 O42 2.121 . S
Mn37 N44 2.257 . S
Mn37 N53 2.282 . S
Mn37 O61 2.215 . S
Mn37 O63 2.117 . S
C38 O60 1.234 . S
C38 O61 1.283 . S
C39 O51 1.281 . S
C39 O52 1.236 . S
C40 O62 1.240 . S
C40 O63 1.264 . S
O41 Mn36 2.095 . S
O41 C50 1.250 . S
O42 Mn37 2.121 . S
O42 C50 1.258 . S
C43 N44 1.326 . S
C43 C47 1.460 . S
C43 H49 0.929 . S
N44 Mn37 2.257 . S
N44 C43 1.326 . S
N44 C48 1.362 . S
C45 C46 1.258 . S
C45 C48 1.431 . S
C45 C65 1.449 . S
C46 C45 1.258 . S
C46 C47 1.477 . S
C46 H66 0.931 . S
C47 C43 1.460 . S
C47 C46 1.477 . S
C47 H67 0.930 . S
C48 N44 1.362 . S
C48 C45 1.431 . S
C48 C58 1.476 . S
H49 C43 0.929 . S
C50 O41 1.250 . S
C50 O42 1.258 . S
O51 Mn36 2.162 . S
O51 C39 1.281 . S
O52 Mn36 2.297 . S
O52 C39 1.236 . S
N53 Mn37 2.282 . S
N53 C54 1.328 1_545 S
N53 C58 1.318 . S
C54 N53 1.328 1_565 S
C54 C55 1.457 . S
C54 H59 0.929 . S
C55 C54 1.457 . S
C55 C56 1.291 . S
C55 H68 0.931 . S
C56 C55 1.291 . S
C56 C57 1.373 . S
C56 H69 0.929 . S
C57 C56 1.373 . S
C57 C58 1.396 1_565 S
C57 C64 1.403 . S
C58 C48 1.476 . S
C58 N53 1.318 . S
C58 C57 1.396 1_545 S
H59 C54 0.929 . S
O60 Mn36 2.385 . S
O60 C38 1.234 . S
O61 Mn36 2.209 . S
O61 Mn37 2.215 . S
O61 C38 1.283 . S
O62 Mn36 2.094 . S
O62 C40 1.240 . S
O63 Mn37 2.117 . S
O63 C40 1.264 . S
C64 C57 1.403 . S
C64 C65 1.399 1_565 S
C64 H70 0.929 . S
C65 C45 1.449 . S
C65 C64 1.399 1_545 S
C65 H71 0.930 . S
H66 C46 0.931 . S
H67 C47 0.930 . S
H68 C55 0.931 . S
H69 C56 0.929 . S
H70 C64 0.929 . S
H71 C65 0.930 . S
Mn72 O77 2.095 . S
Mn72 O87 2.162 . S
Mn72 O88 2.297 . S
Mn72 O96 2.385 . S
Mn72 O97 2.209 . S
Mn72 O98 2.094 . S
Mn73 O78 2.121 . S
Mn73 N80 2.257 . S
Mn73 N89 2.282 . S
Mn73 O97 2.215 . S
Mn73 O99 2.117 . S
C74 O96 1.234 . S
C74 O97 1.283 . S
C75 O87 1.281 . S
C75 O88 1.236 . S
C76 O98 1.240 . S
C76 O99 1.264 . S
O77 Mn72 2.095 . S
O77 C86 1.250 . S
O78 Mn73 2.121 . S
O78 C86 1.258 . S
C79 N80 1.326 . S
C79 C83 1.460 . S
C79 H85 0.929 . S
N80 Mn73 2.257 . S
N80 C79 1.326 . S
N80 C84 1.362 . S
C81 C82 1.258 . S
C81 C84 1.431 . S
C81 C101 1.449 . S
C82 C81 1.258 . S
C82 C83 1.477 . S
C82 H102 0.931 . S
C83 C79 1.460 . S
C83 C82 1.477 . S
C83 H103 0.930 . S
C84 N80 1.362 . S
C84 C81 1.431 . S
C84 C94 1.476 . S
H85 C79 0.929 . S
C86 O77 1.250 . S
C86 O78 1.258 . S
O87 Mn72 2.162 . S
O87 C75 1.281 . S
O88 Mn72 2.297 . S
O88 C75 1.236 . S
N89 Mn73 2.282 . S
N89 C90 1.328 1_655 S
N89 C94 1.318 . S
C90 N89 1.328 1_455 S
C90 C91 1.457 . S
C90 H95 0.929 . S
C91 C90 1.457 . S
C91 C92 1.291 . S
C91 H104 0.931 . S
C92 C91 1.291 . S
C92 C93 1.373 . S
C92 H105 0.929 . S
C93 C92 1.373 . S
C93 C94 1.396 1_455 S
C93 C100 1.403 . S
C94 C84 1.476 . S
C94 N89 1.318 . S
C94 C93 1.396 1_655 S
H95 C90 0.929 . S
O96 Mn72 2.385 . S
O96 C74 1.234 . S
O97 Mn72 2.209 . S
O97 Mn73 2.215 . S
O97 C74 1.283 . S
O98 Mn72 2.094 . S
O98 C76 1.240 . S
O99 Mn73 2.117 . S
O99 C76 1.264 . S
C100 C93 1.403 . S
C100 C101 1.399 1_455 S
C100 H106 0.929 . S
C101 C81 1.449 . S
C101 C100 1.399 1_655 S
C101 H107 0.930 . S
H102 C82 0.931 . S
H103 C83 0.930 . S
H104 C91 0.931 . S
H105 C92 0.929 . S
H106 C100 0.929 . S
H107 C101 0.930 . S
Mn108 O113 2.095 . S
Mn108 O123 2.162 . S
Mn108 O124 2.297 . S
Mn108 O132 2.385 . S
Mn108 O133 2.209 . S
Mn108 O134 2.094 . S
Mn109 O114 2.121 . S
Mn109 N116 2.257 . S
Mn109 N125 2.282 . S
Mn109 O133 2.215 . S
Mn109 O135 2.117 . S
C110 O132 1.234 . S
C110 O133 1.283 . S
C111 O123 1.281 . S
C111 O124 1.236 . S
C112 O134 1.240 . S
C112 O135 1.264 . S
O113 Mn108 2.095 . S
O113 C122 1.250 . S
O114 Mn109 2.121 . S
O114 C122 1.258 . S
C115 N116 1.326 . S
C115 C119 1.460 . S
C115 H121 0.929 . S
N116 Mn109 2.257 . S
N116 C115 1.326 . S
N116 C120 1.362 . S
C117 C118 1.258 . S
C117 C120 1.431 . S
C117 C137 1.449 . S
C118 C117 1.258 . S
C118 C119 1.477 . S
C118 H138 0.931 . S
C119 C115 1.460 . S
C119 C118 1.477 . S
C119 H139 0.930 . S
C120 N116 1.362 . S
C120 C117 1.431 . S
C120 C130 1.476 . S
H121 C115 0.929 . S
C122 O113 1.250 . S
C122 O114 1.258 . S
O123 Mn108 2.162 . S
O123 C111 1.281 . S
O124 Mn108 2.297 . S
O124 C111 1.236 . S
N125 Mn109 2.282 . S
N125 C126 1.328 . S
N125 C130 1.318 . S
C126 N125 1.328 . S
C126 C127 1.457 . S
C126 H131 0.929 . S
C127 C126 1.457 . S
C127 C128 1.291 . S
C127 H140 0.931 . S
C128 C127 1.291 . S
C128 C129 1.373 . S
C128 H141 0.929 . S
C129 C128 1.373 . S
C129 C130 1.396 . S
C129 C136 1.403 . S
C130 C120 1.476 . S
C130 N125 1.318 . S
C130 C129 1.396 . S
H131 C126 0.929 . S
O132 Mn108 2.385 . S
O132 C110 1.234 . S
O133 Mn108 2.209 . S
O133 Mn109 2.215 . S
O133 C110 1.283 . S
O134 Mn108 2.094 . S
O134 C112 1.240 . S
O135 Mn109 2.117 . S
O135 C112 1.264 . S
C136 C129 1.403 . S
C136 C137 1.399 . S
C136 H142 0.929 . S
C137 C117 1.449 . S
C137 C136 1.399 . S
C137 H143 0.930 . S
H138 C118 0.931 . S
H139 C119 0.930 . S
H140 C127 0.931 . S
H141 C128 0.929 . S
H142 C136 0.929 . S
H143 C137 0.930 . S
Mn144 O149 2.095 . S
Mn144 O159 2.162 . S
Mn144 O160 2.297 . S
Mn144 O168 2.385 . S
Mn144 O169 2.209 . S
Mn144 O170 2.094 . S
Mn145 O150 2.121 . S
Mn145 N152 2.257 . S
Mn145 N161 2.282 . S
Mn145 O169 2.215 . S
Mn145 O171 2.117 . S
C146 O168 1.234 . S
C146 O169 1.283 . S
C147 O159 1.281 . S
C147 O160 1.236 . S
C148 O170 1.240 . S
C148 O171 1.264 . S
O149 Mn144 2.095 . S
O149 C158 1.250 . S
O150 Mn145 2.121 . S
O150 C158 1.258 . S
C151 N152 1.326 . S
C151 C155 1.460 . S
C151 H157 0.929 . S
N152 Mn145 2.257 . S
N152 C151 1.326 . S
N152 C156 1.362 . S
C153 C154 1.258 . S
C153 C156 1.431 . S
C153 C173 1.449 . S
C154 C153 1.258 . S
C154 C155 1.477 . S
C154 H174 0.931 . S
C155 C151 1.460 . S
C155 C154 1.477 . S
C155 H175 0.930 . S
C156 N152 1.362 . S
C156 C153 1.431 . S
C156 C166 1.476 . S
H157 C151 0.929 . S
C158 O149 1.250 . S
C158 O150 1.258 . S
O159 Mn144 2.162 . S
O159 C147 1.281 . S
O160 Mn144 2.297 . S
O160 C147 1.236 . S
N161 Mn145 2.282 . S
N161 C162 1.328 1_565 S
N161 C166 1.318 . S
C162 N161 1.328 1_545 S
C162 C163 1.457 . S
C162 H167 0.929 . S
C163 C162 1.457 . S
C163 C164 1.291 . S
C163 H176 0.931 . S
C164 C163 1.291 . S
C164 C165 1.373 . S
C164 H177 0.929 . S
C165 C164 1.373 . S
C165 C166 1.396 1_545 S
C165 C172 1.403 . S
C166 C156 1.476 . S
C166 N161 1.318 . S
C166 C165 1.396 1_565 S
H167 C162 0.929 . S
O168 Mn144 2.385 . S
O168 C146 1.234 . S
O169 Mn144 2.209 . S
O169 Mn145 2.215 . S
O169 C146 1.283 . S
O170 Mn144 2.094 . S
O170 C148 1.240 . S
O171 Mn145 2.117 . S
O171 C148 1.264 . S
C172 C165 1.403 . S
C172 C173 1.399 1_545 S
C172 H178 0.929 . S
C173 C153 1.449 . S
C173 C172 1.399 1_565 S
C173 H179 0.930 . S
H174 C154 0.931 . S
H175 C155 0.930 . S
H176 C163 0.931 . S
H177 C164 0.929 . S
H178 C172 0.929 . S
H179 C173 0.930 . S
Mn180 O185 2.095 . S
Mn180 O195 2.162 . S
Mn180 O196 2.297 . S
Mn180 O204 2.385 . S
Mn180 O205 2.209 . S
Mn180 O206 2.094 . S
Mn181 O186 2.121 . S
Mn181 N188 2.257 . S
Mn181 N197 2.282 . S
Mn181 O205 2.215 . S
Mn181 O207 2.117 . S
C182 O204 1.234 . S
C182 O205 1.283 . S
C183 O195 1.281 . S
C183 O196 1.236 . S
C184 O206 1.240 . S
C184 O207 1.264 . S
O185 Mn180 2.095 . S
O185 C194 1.250 . S
O186 Mn181 2.121 . S
O186 C194 1.258 . S
C187 N188 1.326 . S
C187 C191 1.460 . S
C187 H193 0.929 . S
N188 Mn181 2.257 . S
N188 C187 1.326 . S
N188 C192 1.362 . S
C189 C190 1.258 . S
C189 C192 1.431 . S
C189 C209 1.449 . S
C190 C189 1.258 . S
C190 C191 1.477 . S
C190 H210 0.931 . S
C191 C187 1.460 . S
C191 C190 1.477 . S
C191 H211 0.930 . S
C192 N188 1.362 . S
C192 C189 1.431 . S
C192 C202 1.476 . S
H193 C187 0.929 . S
C194 O185 1.250 . S
C194 O186 1.258 . S
O195 Mn180 2.162 . S
O195 C183 1.281 . S
O196 Mn180 2.297 . S
O196 C183 1.236 . S
N197 Mn181 2.282 . S
N197 C198 1.328 1_455 S
N197 C202 1.318 . S
C198 N197 1.328 1_655 S
C198 C199 1.457 . S
C198 H203 0.929 . S
C199 C198 1.457 . S
C199 C200 1.291 . S
C199 H212 0.931 . S
C200 C199 1.291 . S
C200 C201 1.373 . S
C200 H213 0.929 . S
C201 C200 1.373 . S
C201 C202 1.396 1_655 S
C201 C208 1.403 . S
C202 C192 1.476 . S
C202 N197 1.318 . S
C202 C201 1.396 1_455 S
H203 C198 0.929 . S
O204 Mn180 2.385 . S
O204 C182 1.234 . S
O205 Mn180 2.209 . S
O205 Mn181 2.215 . S
O205 C182 1.283 . S
O206 Mn180 2.094 . S
O206 C184 1.240 . S
O207 Mn181 2.117 . S
O207 C184 1.264 . S
C208 C201 1.403 . S
C208 C209 1.399 1_655 S
C208 H214 0.929 . S
C209 C189 1.449 . S
C209 C208 1.399 1_455 S
C209 H215 0.930 . S
H210 C190 0.931 . S
H211 C191 0.930 . S
H212 C199 0.931 . S
H213 C200 0.929 . S
H214 C208 0.929 . S
H215 C209 0.930 . S
Mn216 O221 2.095 . S
Mn216 O231 2.162 . S
Mn216 O232 2.297 . S
Mn216 O240 2.385 . S
Mn216 O241 2.209 . S
Mn216 O242 2.094 . S
Mn217 O222 2.121 . S
Mn217 N224 2.257 . S
Mn217 N233 2.282 . S
Mn217 O241 2.215 . S
Mn217 O243 2.117 . S
C218 O240 1.234 . S
C218 O241 1.283 . S
C219 O231 1.281 . S
C219 O232 1.236 . S
C220 O242 1.240 . S
C220 O243 1.264 . S
O221 Mn216 2.095 . S
O221 C230 1.250 . S
O222 Mn217 2.121 . S
O222 C230 1.258 . S
C223 N224 1.326 . S
C223 C227 1.460 . S
C223 H229 0.929 . S
N224 Mn217 2.257 . S
N224 C223 1.326 . S
N224 C228 1.362 . S
C225 C226 1.258 . S
C225 C228 1.431 . S
C225 C245 1.449 . S
C226 C225 1.258 . S
C226 C227 1.477 . S
C226 H246 0.931 . S
C227 C223 1.460 . S
C227 C226 1.477 . S
C227 H247 0.930 . S
C228 N224 1.362 . S
C228 C225 1.431 . S
C228 C238 1.476 . S
H229 C223 0.929 . S
C230 O221 1.250 . S
C230 O222 1.258 . S
O231 Mn216 2.162 . S
O231 C219 1.281 . S
O232 Mn216 2.297 . S
O232 C219 1.236 . S
N233 Mn217 2.282 . S
N233 C234 1.328 . S
N233 C238 1.318 . S
C234 N233 1.328 . S
C234 C235 1.457 . S
C234 H239 0.929 . S
C235 C234 1.457 . S
C235 C236 1.291 . S
C235 H248 0.931 . S
C236 C235 1.291 . S
C236 C237 1.373 . S
C236 H249 0.929 . S
C237 C236 1.373 . S
C237 C238 1.396 . S
C237 C244 1.403 . S
C238 C228 1.476 . S
C238 N233 1.318 . S
C238 C237 1.396 . S
H239 C234 0.929 . S
O240 Mn216 2.385 . S
O240 C218 1.234 . S
O241 Mn216 2.209 . S
O241 Mn217 2.215 . S
O241 C218 1.283 . S
O242 Mn216 2.094 . S
O242 C220 1.240 . S
O243 Mn217 2.117 . S
O243 C220 1.264 . S
C244 C237 1.403 . S
C244 C245 1.399 . S
C244 H250 0.929 . S
C245 C225 1.449 . S
C245 C244 1.399 . S
C245 H251 0.930 . S
H246 C226 0.931 . S
H247 C227 0.930 . S
H248 C235 0.931 . S
H249 C236 0.929 . S
H250 C244 0.929 . S
H251 C245 0.930 . S
Mn252 O257 2.095 . S
Mn252 O267 2.162 . S
Mn252 O268 2.297 . S
Mn252 O276 2.385 . S
Mn252 O277 2.209 . S
Mn252 O278 2.094 . S
Mn253 O258 2.121 . S
Mn253 N260 2.257 . S
Mn253 N269 2.282 . S
Mn253 O277 2.215 . S
Mn253 O279 2.117 . S
C254 O276 1.234 . S
C254 O277 1.283 . S
C255 O267 1.281 . S
C255 O268 1.236 . S
C256 O278 1.240 . S
C256 O279 1.264 . S
O257 Mn252 2.095 . S
O257 C266 1.250 . S
O258 Mn253 2.121 . S
O258 C266 1.258 . S
C259 N260 1.326 . S
C259 C263 1.460 . S
C259 H265 0.929 . S
N260 Mn253 2.257 . S
N260 C259 1.326 . S
N260 C264 1.362 . S
C261 C262 1.258 . S
C261 C264 1.431 . S
C261 C281 1.449 . S
C262 C261 1.258 . S
C262 C263 1.477 . S
C262 H282 0.931 . S
C263 C259 1.460 . S
C263 C262 1.477 . S
C263 H283 0.930 . S
C264 N260 1.362 . S
C264 C261 1.431 . S
C264 C274 1.476 . S
H265 C259 0.929 . S
C266 O257 1.250 . S
C266 O258 1.258 . S
O267 Mn252 2.162 . S
O267 C255 1.281 . S
O268 Mn252 2.297 . S
O268 C255 1.236 . S
N269 Mn253 2.282 . S
N269 C270 1.328 1_565 S
N269 C274 1.318 . S
C270 N269 1.328 1_545 S
C270 C271 1.457 . S
C270 H275 0.929 . S
C271 C270 1.457 . S
C271 C272 1.291 . S
C271 H284 0.931 . S
C272 C271 1.291 . S
C272 C273 1.373 . S
C272 H285 0.929 . S
C273 C272 1.373 . S
C273 C274 1.396 1_545 S
C273 C280 1.403 . S
C274 C264 1.476 . S
C274 N269 1.318 . S
C274 C273 1.396 1_565 S
H275 C270 0.929 . S
O276 Mn252 2.385 . S
O276 C254 1.234 . S
O277 Mn252 2.209 . S
O277 Mn253 2.215 . S
O277 C254 1.283 . S
O278 Mn252 2.094 . S
O278 C256 1.240 . S
O279 Mn253 2.117 . S
O279 C256 1.264 . S
C280 C273 1.403 . S
C280 C281 1.399 1_545 S
C280 H286 0.929 . S
C281 C261 1.449 . S
C281 C280 1.399 1_565 S
C281 H287 0.930 . S
H282 C262 0.931 . S
H283 C263 0.930 . S
H284 C271 0.931 . S
H285 C272 0.929 . S
H286 C280 0.929 . S
H287 C281 0.930 . S
Mn288 O293 2.095 . S
Mn288 O303 2.162 . S
Mn288 O304 2.297 . S
Mn288 O312 2.385 . S
Mn288 O313 2.209 . S
Mn288 O314 2.094 . S
Mn289 O294 2.121 . S
Mn289 N296 2.257 . S
Mn289 N305 2.282 . S
Mn289 O313 2.215 . S
Mn289 O315 2.117 . S
C290 O312 1.234 . S
C290 O313 1.283 . S
C291 O303 1.281 . S
C291 O304 1.236 . S
C292 O314 1.240 . S
C292 O315 1.264 . S
O293 Mn288 2.095 . S
O293 C302 1.250 . S
O294 Mn289 2.121 . S
O294 C302 1.258 . S
C295 N296 1.326 . S
C295 C299 1.460 . S
C295 H301 0.929 . S
N296 Mn289 2.257 . S
N296 C295 1.326 . S
N296 C300 1.362 . S
C297 C298 1.258 . S
C297 C300 1.431 . S
C297 C317 1.449 . S
C298 C297 1.258 . S
C298 C299 1.477 . S
C298 H318 0.931 . S
C299 C295 1.460 . S
C299 C298 1.477 . S
C299 H319 0.930 . S
C300 N296 1.362 . S
C300 C297 1.431 . S
C300 C310 1.476 . S
H301 C295 0.929 . S
C302 O293 1.250 . S
C302 O294 1.258 . S
O303 Mn288 2.162 . S
O303 C291 1.281 . S
O304 Mn288 2.297 . S
O304 C291 1.236 . S
N305 Mn289 2.282 . S
N305 C306 1.328 1_455 S
N305 C310 1.318 . S
C306 N305 1.328 1_655 S
C306 C307 1.457 . S
C306 H311 0.929 . S
C307 C306 1.457 . S
C307 C308 1.291 . S
C307 H320 0.931 . S
C308 C307 1.291 . S
C308 C309 1.373 . S
C308 H321 0.929 . S
C309 C308 1.373 . S
C309 C310 1.396 1_655 S
C309 C316 1.403 . S
C310 C300 1.476 . S
C310 N305 1.318 . S
C310 C309 1.396 1_455 S
H311 C306 0.929 . S
O312 Mn288 2.385 . S
O312 C290 1.234 . S
O313 Mn288 2.209 . S
O313 Mn289 2.215 . S
O313 C290 1.283 . S
O314 Mn288 2.094 . S
O314 C292 1.240 . S
O315 Mn289 2.117 . S
O315 C292 1.264 . S
C316 C309 1.403 . S
C316 C317 1.399 1_655 S
C316 H322 0.929 . S
C317 C297 1.449 . S
C317 C316 1.399 1_455 S
C317 H323 0.930 . S
H318 C298 0.931 . S
H319 C299 0.930 . S
H320 C307 0.931 . S
H321 C308 0.929 . S
H322 C316 0.929 . S
H323 C317 0.930 . S
Mn324 O329 2.095 . S
Mn324 O339 2.162 . S
Mn324 O340 2.297 . S
Mn324 O348 2.385 . S
Mn324 O349 2.209 . S
Mn324 O350 2.094 . S
Mn325 O330 2.121 . S
Mn325 N332 2.257 . S
Mn325 N341 2.282 . S
Mn325 O349 2.215 . S
Mn325 O351 2.117 . S
C326 O348 1.234 . S
C326 O349 1.283 . S
C327 O339 1.281 . S
C327 O340 1.236 . S
C328 O350 1.240 . S
C328 O351 1.264 . S
O329 Mn324 2.095 . S
O329 C338 1.250 . S
O330 Mn325 2.121 . S
O330 C338 1.258 . S
C331 N332 1.326 . S
C331 C335 1.460 . S
C331 H337 0.929 . S
N332 Mn325 2.257 . S
N332 C331 1.326 . S
N332 C336 1.362 . S
C333 C334 1.258 . S
C333 C336 1.431 . S
C333 C353 1.449 . S
C334 C333 1.258 . S
C334 C335 1.477 . S
C334 H354 0.931 . S
C335 C331 1.460 . S
C335 C334 1.477 . S
C335 H355 0.930 . S
C336 N332 1.362 . S
C336 C333 1.431 . S
C336 C346 1.476 . S
H337 C331 0.929 . S
C338 O329 1.250 . S
C338 O330 1.258 . S
O339 Mn324 2.162 . S
O339 C327 1.281 . S
O340 Mn324 2.297 . S
O340 C327 1.236 . S
N341 Mn325 2.282 . S
N341 C342 1.328 . S
N341 C346 1.318 . S
C342 N341 1.328 . S
C342 C343 1.457 . S
C342 H347 0.929 . S
C343 C342 1.457 . S
C343 C344 1.291 . S
C343 H356 0.931 . S
C344 C343 1.291 . S
C344 C345 1.373 . S
C344 H357 0.929 . S
C345 C344 1.373 . S
C345 C346 1.396 . S
C345 C352 1.403 . S
C346 C336 1.476 . S
C346 N341 1.318 . S
C346 C345 1.396 . S
H347 C342 0.929 . S
O348 Mn324 2.385 . S
O348 C326 1.234 . S
O349 Mn324 2.209 . S
O349 Mn325 2.215 . S
O349 C326 1.283 . S
O350 Mn324 2.094 . S
O350 C328 1.240 . S
O351 Mn325 2.117 . S
O351 C328 1.264 . S
C352 C345 1.403 . S
C352 C353 1.399 . S
C352 H358 0.929 . S
C353 C333 1.449 . S
C353 C352 1.399 . S
C353 H359 0.930 . S
H354 C334 0.931 . S
H355 C335 0.930 . S
H356 C343 0.931 . S
H357 C344 0.929 . S
H358 C352 0.929 . S
H359 C353 0.930 . S
Mn360 O365 2.095 . S
Mn360 O375 2.162 . S
Mn360 O376 2.297 . S
Mn360 O384 2.385 . S
Mn360 O385 2.209 . S
Mn360 O386 2.094 . S
Mn361 O366 2.121 . S
Mn361 N368 2.257 . S
Mn361 N377 2.282 . S
Mn361 O385 2.215 . S
Mn361 O387 2.117 . S
C362 O384 1.234 . S
C362 O385 1.283 . S
C363 O375 1.281 . S
C363 O376 1.236 . S
C364 O386 1.240 . S
C364 O387 1.264 . S
O365 Mn360 2.095 . S
O365 C374 1.250 . S
O366 Mn361 2.121 . S
O366 C374 1.258 . S
C367 N368 1.326 . S
C367 C371 1.460 . S
C367 H373 0.929 . S
N368 Mn361 2.257 . S
N368 C367 1.326 . S
N368 C372 1.362 . S
C369 C370 1.258 . S
C369 C372 1.431 . S
C369 C389 1.449 . S
C370 C369 1.258 . S
C370 C371 1.477 . S
C370 H390 0.931 . S
C371 C367 1.460 . S
C371 C370 1.477 . S
C371 H391 0.930 . S
C372 N368 1.362 . S
C372 C369 1.431 . S
C372 C382 1.476 . S
H373 C367 0.929 . S
C374 O365 1.250 . S
C374 O366 1.258 . S
O375 Mn360 2.162 . S
O375 C363 1.281 . S
O376 Mn360 2.297 . S
O376 C363 1.236 . S
N377 Mn361 2.282 . S
N377 C378 1.328 1_545 S
N377 C382 1.318 . S
C378 N377 1.328 1_565 S
C378 C379 1.457 . S
C378 H383 0.929 . S
C379 C378 1.457 . S
C379 C380 1.291 . S
C379 H392 0.931 . S
C380 C379 1.291 . S
C380 C381 1.373 . S
C380 H393 0.929 . S
C381 C380 1.373 . S
C381 C382 1.396 1_565 S
C381 C388 1.403 . S
C382 C372 1.476 . S
C382 N377 1.318 . S
C382 C381 1.396 1_545 S
H383 C378 0.929 . S
O384 Mn360 2.385 . S
O384 C362 1.234 . S
O385 Mn360 2.209 . S
O385 Mn361 2.215 . S
O385 C362 1.283 . S
O386 Mn360 2.094 . S
O386 C364 1.240 . S
O387 Mn361 2.117 . S
O387 C364 1.264 . S
C388 C381 1.403 . S
C388 C389 1.399 1_565 S
C388 H394 0.929 . S
C389 C369 1.449 . S
C389 C388 1.399 1_545 S
C389 H395 0.930 . S
H390 C370 0.931 . S
H391 C371 0.930 . S
H392 C379 0.931 . S
H393 C380 0.929 . S
H394 C388 0.929 . S
H395 C389 0.930 . S
Mn396 O401 2.095 . S
Mn396 O411 2.162 . S
Mn396 O412 2.297 . S
Mn396 O420 2.385 . S
Mn396 O421 2.209 . S
Mn396 O422 2.094 . S
Mn397 O402 2.121 . S
Mn397 N404 2.257 . S
Mn397 N413 2.282 . S
Mn397 O421 2.215 . S
Mn397 O423 2.117 . S
C398 O420 1.234 . S
C398 O421 1.283 . S
C399 O411 1.281 . S
C399 O412 1.236 . S
C400 O422 1.240 . S
C400 O423 1.264 . S
O401 Mn396 2.095 . S
O401 C410 1.250 . S
O402 Mn397 2.121 . S
O402 C410 1.258 . S
C403 N404 1.326 . S
C403 C407 1.460 . S
C403 H409 0.929 . S
N404 Mn397 2.257 . S
N404 C403 1.326 . S
N404 C408 1.362 . S
C405 C406 1.258 . S
C405 C408 1.431 . S
C405 C425 1.449 . S
C406 C405 1.258 . S
C406 C407 1.477 . S
C406 H426 0.931 . S
C407 C403 1.460 . S
C407 C406 1.477 . S
C407 H427 0.930 . S
C408 N404 1.362 . S
C408 C405 1.431 . S
C408 C418 1.476 . S
H409 C403 0.929 . S
C410 O401 1.250 . S
C410 O402 1.258 . S
O411 Mn396 2.162 . S
O411 C399 1.281 . S
O412 Mn396 2.297 . S
O412 C399 1.236 . S
N413 Mn397 2.282 . S
N413 C414 1.328 1_655 S
N413 C418 1.318 . S
C414 N413 1.328 1_455 S
C414 C415 1.457 . S
C414 H419 0.929 . S
C415 C414 1.457 . S
C415 C416 1.291 . S
C415 H428 0.931 . S
C416 C415 1.291 . S
C416 C417 1.373 . S
C416 H429 0.929 . S
C417 C416 1.373 . S
C417 C418 1.396 1_455 S
C417 C424 1.403 . S
C418 C408 1.476 . S
C418 N413 1.318 . S
C418 C417 1.396 1_655 S
H419 C414 0.929 . S
O420 Mn396 2.385 . S
O420 C398 1.234 . S
O421 Mn396 2.209 . S
O421 Mn397 2.215 . S
O421 C398 1.283 . S
O422 Mn396 2.094 . S
O422 C400 1.240 . S
O423 Mn397 2.117 . S
O423 C400 1.264 . S
C424 C417 1.403 . S
C424 C425 1.399 1_455 S
C424 H430 0.929 . S
C425 C405 1.449 . S
C425 C424 1.399 1_655 S
C425 H431 0.930 . S
H426 C406 0.931 . S
H427 C407 0.930 . S
H428 C415 0.931 . S
H429 C416 0.929 . S
H430 C424 0.929 . S
H431 C425 0.930 . S
Mn432 O437 2.095 . S
Mn432 O447 2.162 . S
Mn432 O448 2.297 . S
Mn432 O456 2.385 . S
Mn432 O457 2.209 . S
Mn432 O458 2.094 . S
Mn433 O438 2.121 . S
Mn433 N440 2.257 . S
Mn433 N449 2.282 . S
Mn433 O457 2.215 . S
Mn433 O459 2.117 . S
C434 O456 1.234 . S
C434 O457 1.283 . S
C435 O447 1.281 . S
C435 O448 1.236 . S
C436 O458 1.240 . S
C436 O459 1.264 . S
O437 Mn432 2.095 . S
O437 C446 1.250 . S
O438 Mn433 2.121 . S
O438 C446 1.258 . S
C439 N440 1.326 . S
C439 C443 1.460 . S
C439 H445 0.929 . S
N440 Mn433 2.257 . S
N440 C439 1.326 . S
N440 C444 1.362 . S
C441 C442 1.258 . S
C441 C444 1.431 . S
C441 C461 1.449 . S
C442 C441 1.258 . S
C442 C443 1.477 . S
C442 H462 0.931 . S
C443 C439 1.460 . S
C443 C442 1.477 . S
C443 H463 0.930 . S
C444 N440 1.362 . S
C444 C441 1.431 . S
C444 C454 1.476 . S
H445 C439 0.929 . S
C446 O437 1.250 . S
C446 O438 1.258 . S
O447 Mn432 2.162 . S
O447 C435 1.281 . S
O448 Mn432 2.297 . S
O448 C435 1.236 . S
N449 Mn433 2.282 . S
N449 C450 1.328 . S
N449 C454 1.318 . S
C450 N449 1.328 . S
C450 C451 1.457 . S
C450 H455 0.929 . S
C451 C450 1.457 . S
C451 C452 1.291 . S
C451 H464 0.931 . S
C452 C451 1.291 . S
C452 C453 1.373 . S
C452 H465 0.929 . S
C453 C452 1.373 . S
C453 C454 1.396 . S
C453 C460 1.403 . S
C454 C444 1.476 . S
C454 N449 1.318 . S
C454 C453 1.396 . S
H455 C450 0.929 . S
O456 Mn432 2.385 . S
O456 C434 1.234 . S
O457 Mn432 2.209 . S
O457 Mn433 2.215 . S
O457 C434 1.283 . S
O458 Mn432 2.094 . S
O458 C436 1.240 . S
O459 Mn433 2.117 . S
O459 C436 1.264 . S
C460 C453 1.403 . S
C460 C461 1.399 . S
C460 H466 0.929 . S
C461 C441 1.449 . S
C461 C460 1.399 . S
C461 H467 0.930 . S
H462 C442 0.931 . S
H463 C443 0.930 . S
H464 C451 0.931 . S
H465 C452 0.929 . S
H466 C460 0.929 . S
H467 C461 0.930 . S
Mn468 O473 2.095 . S
Mn468 O483 2.162 . S
Mn468 O484 2.297 . S
Mn468 O492 2.385 . S
Mn468 O493 2.209 . S
Mn468 O494 2.094 . S
Mn469 O474 2.121 . S
Mn469 N476 2.257 . S
Mn469 N485 2.282 . S
Mn469 O493 2.215 . S
Mn469 O495 2.117 . S
C470 O492 1.234 . S
C470 O493 1.283 . S
C471 O483 1.281 . S
C471 O484 1.236 . S
C472 O494 1.240 . S
C472 O495 1.264 . S
O473 Mn468 2.095 . S
O473 C482 1.250 . S
O474 Mn469 2.121 . S
O474 C482 1.258 . S
C475 N476 1.326 . S
C475 C479 1.460 . S
C475 H481 0.929 . S
N476 Mn469 2.257 . S
N476 C475 1.326 . S
N476 C480 1.362 . S
C477 C478 1.258 . S
C477 C480 1.431 . S
C477 C497 1.449 . S
C478 C477 1.258 . S
C478 C479 1.477 . S
C478 H498 0.931 . S
C479 C475 1.460 . S
C479 C478 1.477 . S
C479 H499 0.930 . S
C480 N476 1.362 . S
C480 C477 1.431 . S
C480 C490 1.476 . S
H481 C475 0.929 . S
C482 O473 1.250 . S
C482 O474 1.258 . S
O483 Mn468 2.162 . S
O483 C471 1.281 . S
O484 Mn468 2.297 . S
O484 C471 1.236 . S
N485 Mn469 2.282 . S
N485 C486 1.328 . S
N485 C490 1.318 . S
C486 N485 1.328 . S
C486 C487 1.457 . S
C486 H491 0.929 . S
C487 C486 1.457 . S
C487 C488 1.291 . S
C487 H500 0.931 . S
C488 C487 1.291 . S
C488 C489 1.373 . S
C488 H501 0.929 . S
C489 C488 1.373 . S
C489 C490 1.396 . S
C489 C496 1.403 . S
C490 C480 1.476 . S
C490 N485 1.318 . S
C490 C489 1.396 . S
H491 C486 0.929 . S
O492 Mn468 2.385 . S
O492 C470 1.234 . S
O493 Mn468 2.209 . S
O493 Mn469 2.215 . S
O493 C470 1.283 . S
O494 Mn468 2.094 . S
O494 C472 1.240 . S
O495 Mn469 2.117 . S
O495 C472 1.264 . S
C496 C489 1.403 . S
C496 C497 1.399 . S
C496 H502 0.929 . S
C497 C477 1.449 . S
C497 C496 1.399 . S
C497 H503 0.930 . S
H498 C478 0.931 . S
H499 C479 0.930 . S
H500 C487 0.931 . S
H501 C488 0.929 . S
H502 C496 0.929 . S
H503 C497 0.930 . S
Mn504 O509 2.095 . S
Mn504 O519 2.162 . S
Mn504 O520 2.297 . S
Mn504 O528 2.385 . S
Mn504 O529 2.209 . S
Mn504 O530 2.094 . S
Mn505 O510 2.121 . S
Mn505 N512 2.257 . S
Mn505 N521 2.282 . S
Mn505 O529 2.215 . S
Mn505 O531 2.117 . S
C506 O528 1.234 . S
C506 O529 1.283 . S
C507 O519 1.281 . S
C507 O520 1.236 . S
C508 O530 1.240 . S
C508 O531 1.264 . S
O509 Mn504 2.095 . S
O509 C518 1.250 . S
O510 Mn505 2.121 . S
O510 C518 1.258 . S
C511 N512 1.326 . S
C511 C515 1.460 . S
C511 H517 0.929 . S
N512 Mn505 2.257 . S
N512 C511 1.326 . S
N512 C516 1.362 . S
C513 C514 1.258 . S
C513 C516 1.431 . S
C513 C533 1.449 . S
C514 C513 1.258 . S
C514 C515 1.477 . S
C514 H534 0.931 . S
C515 C511 1.460 . S
C515 C514 1.477 . S
C515 H535 0.930 . S
C516 N512 1.362 . S
C516 C513 1.431 . S
C516 C526 1.476 . S
H517 C511 0.929 . S
C518 O509 1.250 . S
C518 O510 1.258 . S
O519 Mn504 2.162 . S
O519 C507 1.281 . S
O520 Mn504 2.297 . S
O520 C507 1.236 . S
N521 Mn505 2.282 . S
N521 C522 1.328 . S
N521 C526 1.318 . S
C522 N521 1.328 . S
C522 C523 1.457 . S
C522 H527 0.929 . S
C523 C522 1.457 . S
C523 C524 1.291 . S
C523 H536 0.931 . S
C524 C523 1.291 . S
C524 C525 1.373 . S
C524 H537 0.929 . S
C525 C524 1.373 . S
C525 C526 1.396 . S
C525 C532 1.403 . S
C526 C516 1.476 . S
C526 N521 1.318 . S
C526 C525 1.396 . S
H527 C522 0.929 . S
O528 Mn504 2.385 . S
O528 C506 1.234 . S
O529 Mn504 2.209 . S
O529 Mn505 2.215 . S
O529 C506 1.283 . S
O530 Mn504 2.094 . S
O530 C508 1.240 . S
O531 Mn505 2.117 . S
O531 C508 1.264 . S
C532 C525 1.403 . S
C532 C533 1.399 . S
C532 H538 0.929 . S
C533 C513 1.449 . S
C533 C532 1.399 . S
C533 H539 0.930 . S
H534 C514 0.931 . S
H535 C515 0.930 . S
H536 C523 0.931 . S
H537 C524 0.929 . S
H538 C532 0.929 . S
H539 C533 0.930 . S
Mn540 O545 2.095 . S
Mn540 O555 2.162 . S
Mn540 O556 2.297 . S
Mn540 O564 2.385 . S
Mn540 O565 2.209 . S
Mn540 O566 2.094 . S
Mn541 O546 2.121 . S
Mn541 N548 2.257 . S
Mn541 N557 2.282 . S
Mn541 O565 2.215 . S
Mn541 O567 2.117 . S
C542 O564 1.234 . S
C542 O565 1.283 . S
C543 O555 1.281 . S
C543 O556 1.236 . S
C544 O566 1.240 . S
C544 O567 1.264 . S
O545 Mn540 2.095 . S
O545 C554 1.250 . S
O546 Mn541 2.121 . S
O546 C554 1.258 . S
C547 N548 1.326 . S
C547 C551 1.460 . S
C547 H553 0.929 . S
N548 Mn541 2.257 . S
N548 C547 1.326 . S
N548 C552 1.362 . S
C549 C550 1.258 . S
C549 C552 1.431 . S
C549 C569 1.449 . S
C550 C549 1.258 . S
C550 C551 1.477 . S
C550 H570 0.931 . S
C551 C547 1.460 . S
C551 C550 1.477 . S
C551 H571 0.930 . S
C552 N548 1.362 . S
C552 C549 1.431 . S
C552 C562 1.476 . S
H553 C547 0.929 . S
C554 O545 1.250 . S
C554 O546 1.258 . S
O555 Mn540 2.162 . S
O555 C543 1.281 . S
O556 Mn540 2.297 . S
O556 C543 1.236 . S
N557 Mn541 2.282 . S
N557 C558 1.328 . S
N557 C562 1.318 . S
C558 N557 1.328 . S
C558 C559 1.457 . S
C558 H563 0.929 . S
C559 C558 1.457 . S
C559 C560 1.291 . S
C559 H572 0.931 . S
C560 C559 1.291 . S
C560 C561 1.373 . S
C560 H573 0.929 . S
C561 C560 1.373 . S
C561 C562 1.396 . S
C561 C568 1.403 . S
C562 C552 1.476 . S
C562 N557 1.318 . S
C562 C561 1.396 . S
H563 C558 0.929 . S
O564 Mn540 2.385 . S
O564 C542 1.234 . S
O565 Mn540 2.209 . S
O565 Mn541 2.215 . S
O565 C542 1.283 . S
O566 Mn540 2.094 . S
O566 C544 1.240 . S
O567 Mn541 2.117 . S
O567 C544 1.264 . S
C568 C561 1.403 . S
C568 C569 1.399 . S
C568 H574 0.929 . S
C569 C549 1.449 . S
C569 C568 1.399 . S
C569 H575 0.930 . S
H570 C550 0.931 . S
H571 C551 0.930 . S
H572 C559 0.931 . S
H573 C560 0.929 . S
H574 C568 0.929 . S
H575 C569 0.930 . S
Mn576 O581 2.095 . S
Mn576 O591 2.162 . S
Mn576 O592 2.297 . S
Mn576 O600 2.385 . S
Mn576 O601 2.209 . S
Mn576 O602 2.094 . S
Mn577 O582 2.121 . S
Mn577 N584 2.257 . S
Mn577 N593 2.282 . S
Mn577 O601 2.215 . S
Mn577 O603 2.117 . S
C578 O600 1.234 . S
C578 O601 1.283 . S
C579 O591 1.281 . S
C579 O592 1.236 . S
C580 O602 1.240 . S
C580 O603 1.264 . S
O581 Mn576 2.095 . S
O581 C590 1.250 . S
O582 Mn577 2.121 . S
O582 C590 1.258 . S
C583 N584 1.326 . S
C583 C587 1.460 . S
C583 H589 0.929 . S
N584 Mn577 2.257 . S
N584 C583 1.326 . S
N584 C588 1.362 . S
C585 C586 1.258 . S
C585 C588 1.431 . S
C585 C605 1.449 . S
C586 C585 1.258 . S
C586 C587 1.477 . S
C586 H606 0.931 . S
C587 C583 1.460 . S
C587 C586 1.477 . S
C587 H607 0.930 . S
C588 N584 1.362 . S
C588 C585 1.431 . S
C588 C598 1.476 . S
H589 C583 0.929 . S
C590 O581 1.250 . S
C590 O582 1.258 . S
O591 Mn576 2.162 . S
O591 C579 1.281 . S
O592 Mn576 2.297 . S
O592 C579 1.236 . S
N593 Mn577 2.282 . S
N593 C594 1.328 . S
N593 C598 1.318 . S
C594 N593 1.328 . S
C594 C595 1.457 . S
C594 H599 0.929 . S
C595 C594 1.457 . S
C595 C596 1.291 . S
C595 H608 0.931 . S
C596 C595 1.291 . S
C596 C597 1.373 . S
C596 H609 0.929 . S
C597 C596 1.373 . S
C597 C598 1.396 . S
C597 C604 1.403 . S
C598 C588 1.476 . S
C598 N593 1.318 . S
C598 C597 1.396 . S
H599 C594 0.929 . S
O600 Mn576 2.385 . S
O600 C578 1.234 . S
O601 Mn576 2.209 . S
O601 Mn577 2.215 . S
O601 C578 1.283 . S
O602 Mn576 2.094 . S
O602 C580 1.240 . S
O603 Mn577 2.117 . S
O603 C580 1.264 . S
C604 C597 1.403 . S
C604 C605 1.399 . S
C604 H610 0.929 . S
C605 C585 1.449 . S
C605 C604 1.399 . S
C605 H611 0.930 . S
H606 C586 0.931 . S
H607 C587 0.930 . S
H608 C595 0.931 . S
H609 C596 0.929 . S
H610 C604 0.929 . S
H611 C605 0.930 . S
Mn612 O617 2.095 . S
Mn612 O627 2.162 . S
Mn612 O628 2.297 . S
Mn612 O636 2.385 . S
Mn612 O637 2.209 . S
Mn612 O638 2.094 . S
Mn613 O618 2.121 . S
Mn613 N620 2.257 . S
Mn613 N629 2.282 . S
Mn613 O637 2.215 . S
Mn613 O639 2.117 . S
C614 O636 1.234 . S
C614 O637 1.283 . S
C615 O627 1.281 . S
C615 O628 1.236 . S
C616 O638 1.240 . S
C616 O639 1.264 . S
O617 Mn612 2.095 . S
O617 C626 1.250 . S
O618 Mn613 2.121 . S
O618 C626 1.258 . S
C619 N620 1.326 . S
C619 C623 1.460 . S
C619 H625 0.929 . S
N620 Mn613 2.257 . S
N620 C619 1.326 . S
N620 C624 1.362 . S
C621 C622 1.258 . S
C621 C624 1.431 . S
C621 C641 1.449 . S
C622 C621 1.258 . S
C622 C623 1.477 . S
C622 H642 0.931 . S
C623 C619 1.460 . S
C623 C622 1.477 . S
C623 H643 0.930 . S
C624 N620 1.362 . S
C624 C621 1.431 . S
C624 C634 1.476 . S
H625 C619 0.929 . S
C626 O617 1.250 . S
C626 O618 1.258 . S
O627 Mn612 2.162 . S
O627 C615 1.281 . S
O628 Mn612 2.297 . S
O628 C615 1.236 . S
N629 Mn613 2.282 . S
N629 C630 1.328 . S
N629 C634 1.318 . S
C630 N629 1.328 . S
C630 C631 1.457 . S
C630 H635 0.929 . S
C631 C630 1.457 . S
C631 C632 1.291 . S
C631 H644 0.931 . S
C632 C631 1.291 . S
C632 C633 1.373 . S
C632 H645 0.929 . S
C633 C632 1.373 . S
C633 C634 1.396 . S
C633 C640 1.403 . S
C634 C624 1.476 . S
C634 N629 1.318 . S
C634 C633 1.396 . S
H635 C630 0.929 . S
O636 Mn612 2.385 . S
O636 C614 1.234 . S
O637 Mn612 2.209 . S
O637 Mn613 2.215 . S
O637 C614 1.283 . S
O638 Mn612 2.094 . S
O638 C616 1.240 . S
O639 Mn613 2.117 . S
O639 C616 1.264 . S
C640 C633 1.403 . S
C640 C641 1.399 . S
C640 H646 0.929 . S
C641 C621 1.449 . S
C641 C640 1.399 . S
C641 H647 0.930 . S
H642 C622 0.931 . S
H643 C623 0.930 . S
H644 C631 0.931 . S
H645 C632 0.929 . S
H646 C640 0.929 . S
H647 C641 0.930 . S
Mn648 O653 2.095 . S
Mn648 O663 2.162 . S
Mn648 O664 2.297 . S
Mn648 O672 2.385 . S
Mn648 O673 2.209 . S
Mn648 O674 2.094 . S
Mn649 O654 2.121 . S
Mn649 N656 2.257 . S
Mn649 N665 2.282 . S
Mn649 O673 2.215 . S
Mn649 O675 2.117 . S
C650 O672 1.234 . S
C650 O673 1.283 . S
C651 O663 1.281 . S
C651 O664 1.236 . S
C652 O674 1.240 . S
C652 O675 1.264 . S
O653 Mn648 2.095 . S
O653 C662 1.250 . S
O654 Mn649 2.121 . S
O654 C662 1.258 . S
C655 N656 1.326 . S
C655 C659 1.460 . S
C655 H661 0.929 . S
N656 Mn649 2.257 . S
N656 C655 1.326 . S
N656 C660 1.362 . S
C657 C658 1.258 . S
C657 C660 1.431 . S
C657 C677 1.449 . S
C658 C657 1.258 . S
C658 C659 1.477 . S
C658 H678 0.931 . S
C659 C655 1.460 . S
C659 C658 1.477 . S
C659 H679 0.930 . S
C660 N656 1.362 . S
C660 C657 1.431 . S
C660 C670 1.476 . S
H661 C655 0.929 . S
C662 O653 1.250 . S
C662 O654 1.258 . S
O663 Mn648 2.162 . S
O663 C651 1.281 . S
O664 Mn648 2.297 . S
O664 C651 1.236 . S
N665 Mn649 2.282 . S
N665 C666 1.328 . S
N665 C670 1.318 . S
C666 N665 1.328 . S
C666 C667 1.457 . S
C666 H671 0.929 . S
C667 C666 1.457 . S
C667 C668 1.291 . S
C667 H680 0.931 . S
C668 C667 1.291 . S
C668 C669 1.373 . S
C668 H681 0.929 . S
C669 C668 1.373 . S
C669 C670 1.396 . S
C669 C676 1.403 . S
C670 C660 1.476 . S
C670 N665 1.318 . S
C670 C669 1.396 . S
H671 C666 0.929 . S
O672 Mn648 2.385 . S
O672 C650 1.234 . S
O673 Mn648 2.209 . S
O673 Mn649 2.215 . S
O673 C650 1.283 . S
O674 Mn648 2.094 . S
O674 C652 1.240 . S
O675 Mn649 2.117 . S
O675 C652 1.264 . S
C676 C669 1.403 . S
C676 C677 1.399 . S
C676 H682 0.929 . S
C677 C657 1.449 . S
C677 C676 1.399 . S
C677 H683 0.930 . S
H678 C658 0.931 . S
H679 C659 0.930 . S
H680 C667 0.931 . S
H681 C668 0.929 . S
H682 C676 0.929 . S
H683 C677 0.930 . S
Mn684 O689 2.095 . S
Mn684 O699 2.162 . S
Mn684 O700 2.297 . S
Mn684 O708 2.385 . S
Mn684 O709 2.209 . S
Mn684 O710 2.094 . S
Mn685 O690 2.121 . S
Mn685 N692 2.257 . S
Mn685 N701 2.282 . S
Mn685 O709 2.215 . S
Mn685 O711 2.117 . S
C686 O708 1.234 . S
C686 O709 1.283 . S
C687 O699 1.281 . S
C687 O700 1.236 . S
C688 O710 1.240 . S
C688 O711 1.264 . S
O689 Mn684 2.095 . S
O689 C698 1.250 . S
O690 Mn685 2.121 . S
O690 C698 1.258 . S
C691 N692 1.326 . S
C691 C695 1.460 . S
C691 H697 0.929 . S
N692 Mn685 2.257 . S
N692 C691 1.326 . S
N692 C696 1.362 . S
C693 C694 1.258 . S
C693 C696 1.431 . S
C693 C713 1.449 . S
C694 C693 1.258 . S
C694 C695 1.477 . S
C694 H714 0.931 . S
C695 C691 1.460 . S
C695 C694 1.477 . S
C695 H715 0.930 . S
C696 N692 1.362 . S
C696 C693 1.431 . S
C696 C706 1.476 . S
H697 C691 0.929 . S
C698 O689 1.250 . S
C698 O690 1.258 . S
O699 Mn684 2.162 . S
O699 C687 1.281 . S
O700 Mn684 2.297 . S
O700 C687 1.236 . S
N701 Mn685 2.282 . S
N701 C702 1.328 . S
N701 C706 1.318 . S
C702 N701 1.328 . S
C702 C703 1.457 . S
C702 H707 0.929 . S
C703 C702 1.457 . S
C703 C704 1.291 . S
C703 H716 0.931 . S
C704 C703 1.291 . S
C704 C705 1.373 . S
C704 H717 0.929 . S
C705 C704 1.373 . S
C705 C706 1.396 . S
C705 C712 1.403 . S
C706 C696 1.476 . S
C706 N701 1.318 . S
C706 C705 1.396 . S
H707 C702 0.929 . S
O708 Mn684 2.385 . S
O708 C686 1.234 . S
O709 Mn684 2.209 . S
O709 Mn685 2.215 . S
O709 C686 1.283 . S
O710 Mn684 2.094 . S
O710 C688 1.240 . S
O711 Mn685 2.117 . S
O711 C688 1.264 . S
C712 C705 1.403 . S
C712 C713 1.399 . S
C712 H718 0.929 . S
C713 C693 1.449 . S
C713 C712 1.399 . S
C713 H719 0.930 . S
H714 C694 0.931 . S
H715 C695 0.930 . S
H716 C703 0.931 . S
H717 C704 0.929 . S
H718 C712 0.929 . S
H719 C713 0.930 . S
Mn720 O725 2.095 . S
Mn720 O735 2.162 . S
Mn720 O736 2.297 . S
Mn720 O744 2.385 . S
Mn720 O745 2.209 . S
Mn720 O746 2.094 . S
Mn721 O726 2.121 . S
Mn721 N728 2.257 . S
Mn721 N737 2.282 . S
Mn721 O745 2.215 . S
Mn721 O747 2.117 . S
C722 O744 1.234 . S
C722 O745 1.283 . S
C723 O735 1.281 . S
C723 O736 1.236 . S
C724 O746 1.240 . S
C724 O747 1.264 . S
O725 Mn720 2.095 . S
O725 C734 1.250 . S
O726 Mn721 2.121 . S
O726 C734 1.258 . S
C727 N728 1.326 . S
C727 C731 1.460 . S
C727 H733 0.929 . S
N728 Mn721 2.257 . S
N728 C727 1.326 . S
N728 C732 1.362 . S
C729 C730 1.258 . S
C729 C732 1.431 . S
C729 C749 1.449 . S
C730 C729 1.258 . S
C730 C731 1.477 . S
C730 H750 0.931 . S
C731 C727 1.460 . S
C731 C730 1.477 . S
C731 H751 0.930 . S
C732 N728 1.362 . S
C732 C729 1.431 . S
C732 C742 1.476 . S
H733 C727 0.929 . S
C734 O725 1.250 . S
C734 O726 1.258 . S
O735 Mn720 2.162 . S
O735 C723 1.281 . S
O736 Mn720 2.297 . S
O736 C723 1.236 . S
N737 Mn721 2.282 . S
N737 C738 1.328 . S
N737 C742 1.318 . S
C738 N737 1.328 . S
C738 C739 1.457 . S
C738 H743 0.929 . S
C739 C738 1.457 . S
C739 C740 1.291 . S
C739 H752 0.931 . S
C740 C739 1.291 . S
C740 C741 1.373 . S
C740 H753 0.929 . S
C741 C740 1.373 . S
C741 C742 1.396 . S
C741 C748 1.403 . S
C742 C732 1.476 . S
C742 N737 1.318 . S
C742 C741 1.396 . S
H743 C738 0.929 . S
O744 Mn720 2.385 . S
O744 C722 1.234 . S
O745 Mn720 2.209 . S
O745 Mn721 2.215 . S
O745 C722 1.283 . S
O746 Mn720 2.094 . S
O746 C724 1.240 . S
O747 Mn721 2.117 . S
O747 C724 1.264 . S
C748 C741 1.403 . S
C748 C749 1.399 . S
C748 H754 0.929 . S
C749 C729 1.449 . S
C749 C748 1.399 . S
C749 H755 0.930 . S
H750 C730 0.931 . S
H751 C731 0.930 . S
H752 C739 0.931 . S
H753 C740 0.929 . S
H754 C748 0.929 . S
H755 C749 0.930 . S
Mn756 O761 2.095 . S
Mn756 O771 2.162 . S
Mn756 O772 2.297 . S
Mn756 O780 2.385 . S
Mn756 O781 2.209 . S
Mn756 O782 2.094 . S
Mn757 O762 2.121 . S
Mn757 N764 2.257 . S
Mn757 N773 2.282 . S
Mn757 O781 2.215 . S
Mn757 O783 2.117 . S
C758 O780 1.234 . S
C758 O781 1.283 . S
C759 O771 1.281 . S
C759 O772 1.236 . S
C760 O782 1.240 . S
C760 O783 1.264 . S
O761 Mn756 2.095 . S
O761 C770 1.250 . S
O762 Mn757 2.121 . S
O762 C770 1.258 . S
C763 N764 1.326 . S
C763 C767 1.460 1_556 S
C763 H769 0.929 . S
N764 Mn757 2.257 . S
N764 C763 1.326 . S
N764 C768 1.362 . S
C765 C766 1.258 . S
C765 C768 1.431 1_554 S
C765 C785 1.449 . S
C766 C765 1.258 . S
C766 C767 1.477 . S
C766 H786 0.931 . S
C767 C763 1.460 1_554 S
C767 C766 1.477 . S
C767 H787 0.930 . S
C768 N764 1.362 . S
C768 C765 1.431 1_556 S
C768 C778 1.476 . S
H769 C763 0.929 . S
C770 O761 1.250 . S
C770 O762 1.258 . S
O771 Mn756 2.162 . S
O771 C759 1.281 . S
O772 Mn756 2.297 . S
O772 C759 1.236 . S
N773 Mn757 2.282 . S
N773 C774 1.328 . S
N773 C778 1.318 . S
C774 N773 1.328 . S
C774 C775 1.457 . S
C774 H779 0.929 . S
C775 C774 1.457 . S
C775 C776 1.291 1_556 S
C775 H788 0.931 . S
C776 C775 1.291 1_554 S
C776 C777 1.373 . S
C776 H789 0.929 . S
C777 C776 1.373 . S
C777 C778 1.396 1_554 S
C777 C784 1.403 . S
C778 C768 1.476 . S
C778 N773 1.318 . S
C778 C777 1.396 1_556 S
H779 C774 0.929 . S
O780 Mn756 2.385 . S
O780 C758 1.234 . S
O781 Mn756 2.209 . S
O781 Mn757 2.215 . S
O781 C758 1.283 . S
O782 Mn756 2.094 . S
O782 C760 1.240 . S
O783 Mn757 2.117 . S
O783 C760 1.264 . S
C784 C777 1.403 . S
C784 C785 1.399 . S
C784 H790 0.929 . S
C785 C765 1.449 . S
C785 C784 1.399 . S
C785 H791 0.930 . S
H786 C766 0.931 . S
H787 C767 0.930 . S
H788 C775 0.931 . S
H789 C776 0.929 . S
H790 C784 0.929 . S
H791 C785 0.930 . S
Mn792 O797 2.095 . S
Mn792 O807 2.162 . S
Mn792 O808 2.297 . S
Mn792 O816 2.385 . S
Mn792 O817 2.209 . S
Mn792 O818 2.094 . S
Mn793 O798 2.121 . S
Mn793 N800 2.257 . S
Mn793 N809 2.282 . S
Mn793 O817 2.215 . S
Mn793 O819 2.117 . S
C794 O816 1.234 . S
C794 O817 1.283 . S
C795 O807 1.281 . S
C795 O808 1.236 . S
C796 O818 1.240 . S
C796 O819 1.264 . S
O797 Mn792 2.095 . S
O797 C806 1.250 . S
O798 Mn793 2.121 . S
O798 C806 1.258 . S
C799 N800 1.326 . S
C799 C803 1.460 1_556 S
C799 H805 0.929 . S
N800 Mn793 2.257 . S
N800 C799 1.326 . S
N800 C804 1.362 . S
C801 C802 1.258 . S
C801 C804 1.431 1_554 S
C801 C821 1.449 . S
C802 C801 1.258 . S
C802 C803 1.477 . S
C802 H822 0.931 . S
C803 C799 1.460 1_554 S
C803 C802 1.477 . S
C803 H823 0.930 . S
C804 N800 1.362 . S
C804 C801 1.431 1_556 S
C804 C814 1.476 . S
H805 C799 0.929 . S
C806 O797 1.250 . S
C806 O798 1.258 . S
O807 Mn792 2.162 . S
O807 C795 1.281 . S
O808 Mn792 2.297 . S
O808 C795 1.236 . S
N809 Mn793 2.282 . S
N809 C810 1.328 . S
N809 C814 1.318 . S
C810 N809 1.328 . S
C810 C811 1.457 . S
C810 H815 0.929 . S
C811 C810 1.457 . S
C811 C812 1.291 1_556 S
C811 H824 0.931 . S
C812 C811 1.291 1_554 S
C812 C813 1.373 . S
C812 H825 0.929 . S
C813 C812 1.373 . S
C813 C814 1.396 1_554 S
C813 C820 1.403 . S
C814 C804 1.476 . S
C814 N809 1.318 . S
C814 C813 1.396 1_556 S
H815 C810 0.929 . S
O816 Mn792 2.385 . S
O816 C794 1.234 . S
O817 Mn792 2.209 . S
O817 Mn793 2.215 . S
O817 C794 1.283 . S
O818 Mn792 2.094 . S
O818 C796 1.240 . S
O819 Mn793 2.117 . S
O819 C796 1.264 . S
C820 C813 1.403 . S
C820 C821 1.399 . S
C820 H826 0.929 . S
C821 C801 1.449 . S
C821 C820 1.399 . S
C821 H827 0.930 . S
H822 C802 0.931 . S
H823 C803 0.930 . S
H824 C811 0.931 . S
H825 C812 0.929 . S
H826 C820 0.929 . S
H827 C821 0.930 . S
Mn828 O833 2.095 . S
Mn828 O843 2.162 . S
Mn828 O844 2.297 . S
Mn828 O852 2.385 . S
Mn828 O853 2.209 . S
Mn828 O854 2.094 . S
Mn829 O834 2.121 . S
Mn829 N836 2.257 . S
Mn829 N845 2.282 . S
Mn829 O853 2.215 . S
Mn829 O855 2.117 . S
C830 O852 1.234 . S
C830 O853 1.283 . S
C831 O843 1.281 . S
C831 O844 1.236 . S
C832 O854 1.240 . S
C832 O855 1.264 . S
O833 Mn828 2.095 . S
O833 C842 1.250 . S
O834 Mn829 2.121 . S
O834 C842 1.258 . S
C835 N836 1.326 . S
C835 C839 1.460 1_556 S
C835 H841 0.929 . S
N836 Mn829 2.257 . S
N836 C835 1.326 . S
N836 C840 1.362 . S
C837 C838 1.258 . S
C837 C840 1.431 1_554 S
C837 C857 1.449 . S
C838 C837 1.258 . S
C838 C839 1.477 . S
C838 H858 0.931 . S
C839 C835 1.460 1_554 S
C839 C838 1.477 . S
C839 H859 0.930 . S
C840 N836 1.362 . S
C840 C837 1.431 1_556 S
C840 C850 1.476 . S
H841 C835 0.929 . S
C842 O833 1.250 . S
C842 O834 1.258 . S
O843 Mn828 2.162 . S
O843 C831 1.281 . S
O844 Mn828 2.297 . S
O844 C831 1.236 . S
N845 Mn829 2.282 . S
N845 C846 1.328 . S
N845 C850 1.318 . S
C846 N845 1.328 . S
C846 C847 1.457 . S
C846 H851 0.929 . S
C847 C846 1.457 . S
C847 C848 1.291 1_556 S
C847 H860 0.931 . S
C848 C847 1.291 1_554 S
C848 C849 1.373 . S
C848 H861 0.929 . S
C849 C848 1.373 . S
C849 C850 1.396 1_554 S
C849 C856 1.403 . S
C850 C840 1.476 . S
C850 N845 1.318 . S
C850 C849 1.396 1_556 S
H851 C846 0.929 . S
O852 Mn828 2.385 . S
O852 C830 1.234 . S
O853 Mn828 2.209 . S
O853 Mn829 2.215 . S
O853 C830 1.283 . S
O854 Mn828 2.094 . S
O854 C832 1.240 . S
O855 Mn829 2.117 . S
O855 C832 1.264 . S
C856 C849 1.403 . S
C856 C857 1.399 . S
C856 H862 0.929 . S
C857 C837 1.449 . S
C857 C856 1.399 . S
C857 H863 0.930 . S
H858 C838 0.931 . S
H859 C839 0.930 . S
H860 C847 0.931 . S
H861 C848 0.929 . S
H862 C856 0.929 . S
H863 C857 0.930 . S
Mn864 O869 2.095 . S
Mn864 O879 2.162 . S
Mn864 O880 2.297 . S
Mn864 O888 2.385 . S
Mn864 O889 2.209 . S
Mn864 O890 2.094 . S
Mn865 O870 2.121 . S
Mn865 N872 2.257 . S
Mn865 N881 2.282 . S
Mn865 O889 2.215 . S
Mn865 O891 2.117 . S
C866 O888 1.234 . S
C866 O889 1.283 . S
C867 O879 1.281 . S
C867 O880 1.236 . S
C868 O890 1.240 . S
C868 O891 1.264 . S
O869 Mn864 2.095 . S
O869 C878 1.250 . S
O870 Mn865 2.121 . S
O870 C878 1.258 . S
C871 N872 1.326 . S
C871 C875 1.460 . S
C871 H877 0.929 . S
N872 Mn865 2.257 . S
N872 C871 1.326 . S
N872 C876 1.362 . S
C873 C874 1.258 . S
C873 C876 1.431 . S
C873 C893 1.449 . S
C874 C873 1.258 . S
C874 C875 1.477 . S
C874 H894 0.931 . S
C875 C871 1.460 . S
C875 C874 1.477 . S
C875 H895 0.930 . S
C876 N872 1.362 . S
C876 C873 1.431 . S
C876 C886 1.476 . S
H877 C871 0.929 . S
C878 O869 1.250 . S
C878 O870 1.258 . S
O879 Mn864 2.162 . S
O879 C867 1.281 . S
O880 Mn864 2.297 . S
O880 C867 1.236 . S
N881 Mn865 2.282 . S
N881 C882 1.328 . S
N881 C886 1.318 . S
C882 N881 1.328 . S
C882 C883 1.457 . S
C882 H887 0.929 . S
C883 C882 1.457 . S
C883 C884 1.291 . S
C883 H896 0.931 . S
C884 C883 1.291 . S
C884 C885 1.373 . S
C884 H897 0.929 . S
C885 C884 1.373 . S
C885 C886 1.396 . S
C885 C892 1.403 . S
C886 C876 1.476 . S
C886 N881 1.318 . S
C886 C885 1.396 . S
H887 C882 0.929 . S
O888 Mn864 2.385 . S
O888 C866 1.234 . S
O889 Mn864 2.209 . S
O889 Mn865 2.215 . S
O889 C866 1.283 . S
O890 Mn864 2.094 . S
O890 C868 1.240 . S
O891 Mn865 2.117 . S
O891 C868 1.264 . S
C892 C885 1.403 . S
C892 C893 1.399 . S
C892 H898 0.929 . S
C893 C873 1.449 . S
C893 C892 1.399 . S
C893 H899 0.930 . S
H894 C874 0.931 . S
H895 C875 0.930 . S
H896 C883 0.931 . S
H897 C884 0.929 . S
H898 C892 0.929 . S
H899 C893 0.930 . S
Mn900 O905 2.095 . S
Mn900 O915 2.162 . S
Mn900 O916 2.297 . S
Mn900 O924 2.385 . S
Mn900 O925 2.209 . S
Mn900 O926 2.094 . S
Mn901 O906 2.121 . S
Mn901 N908 2.257 . S
Mn901 N917 2.282 . S
Mn901 O925 2.215 . S
Mn901 O927 2.117 . S
C902 O924 1.234 . S
C902 O925 1.283 . S
C903 O915 1.281 . S
C903 O916 1.236 . S
C904 O926 1.240 . S
C904 O927 1.264 . S
O905 Mn900 2.095 . S
O905 C914 1.250 . S
O906 Mn901 2.121 . S
O906 C914 1.258 . S
C907 N908 1.326 . S
C907 C911 1.460 . S
C907 H913 0.929 . S
N908 Mn901 2.257 . S
N908 C907 1.326 . S
N908 C912 1.362 . S
C909 C910 1.258 . S
C909 C912 1.431 . S
C909 C929 1.449 . S
C910 C909 1.258 . S
C910 C911 1.477 . S
C910 H930 0.931 . S
C911 C907 1.460 . S
C911 C910 1.477 . S
C911 H931 0.930 . S
C912 N908 1.362 . S
C912 C909 1.431 . S
C912 C922 1.476 . S
H913 C907 0.929 . S
C914 O905 1.250 . S
C914 O906 1.258 . S
O915 Mn900 2.162 . S
O915 C903 1.281 . S
O916 Mn900 2.297 . S
O916 C903 1.236 . S
N917 Mn901 2.282 . S
N917 C918 1.328 . S
N917 C922 1.318 . S
C918 N917 1.328 . S
C918 C919 1.457 . S
C918 H923 0.929 . S
C919 C918 1.457 . S
C919 C920 1.291 . S
C919 H932 0.931 . S
C920 C919 1.291 . S
C920 C921 1.373 . S
C920 H933 0.929 . S
C921 C920 1.373 . S
C921 C922 1.396 . S
C921 C928 1.403 . S
C922 C912 1.476 . S
C922 N917 1.318 . S
C922 C921 1.396 . S
H923 C918 0.929 . S
O924 Mn900 2.385 . S
O924 C902 1.234 . S
O925 Mn900 2.209 . S
O925 Mn901 2.215 . S
O925 C902 1.283 . S
O926 Mn900 2.094 . S
O926 C904 1.240 . S
O927 Mn901 2.117 . S
O927 C904 1.264 . S
C928 C921 1.403 . S
C928 C929 1.399 . S
C928 H934 0.929 . S
C929 C909 1.449 . S
C929 C928 1.399 . S
C929 H935 0.930 . S
H930 C910 0.931 . S
H931 C911 0.930 . S
H932 C919 0.931 . S
H933 C920 0.929 . S
H934 C928 0.929 . S
H935 C929 0.930 . S
Mn936 O941 2.095 . S
Mn936 O951 2.162 . S
Mn936 O952 2.297 . S
Mn936 O960 2.385 . S
Mn936 O961 2.209 . S
Mn936 O962 2.094 . S
Mn937 O942 2.121 . S
Mn937 N944 2.257 . S
Mn937 N953 2.282 . S
Mn937 O961 2.215 . S
Mn937 O963 2.117 . S
C938 O960 1.234 . S
C938 O961 1.283 . S
C939 O951 1.281 . S
C939 O952 1.236 . S
C940 O962 1.240 . S
C940 O963 1.264 . S
O941 Mn936 2.095 . S
O941 C950 1.250 . S
O942 Mn937 2.121 . S
O942 C950 1.258 . S
C943 N944 1.326 . S
C943 C947 1.460 . S
C943 H949 0.929 . S
N944 Mn937 2.257 . S
N944 C943 1.326 . S
N944 C948 1.362 . S
C945 C946 1.258 . S
C945 C948 1.431 . S
C945 C965 1.449 . S
C946 C945 1.258 . S
C946 C947 1.477 . S
C946 H966 0.931 . S
C947 C943 1.460 . S
C947 C946 1.477 . S
C947 H967 0.930 . S
C948 N944 1.362 . S
C948 C945 1.431 . S
C948 C958 1.476 . S
H949 C943 0.929 . S
C950 O941 1.250 . S
C950 O942 1.258 . S
O951 Mn936 2.162 . S
O951 C939 1.281 . S
O952 Mn936 2.297 . S
O952 C939 1.236 . S
N953 Mn937 2.282 . S
N953 C954 1.328 . S
N953 C958 1.318 . S
C954 N953 1.328 . S
C954 C955 1.457 . S
C954 H959 0.929 . S
C955 C954 1.457 . S
C955 C956 1.291 . S
C955 H968 0.931 . S
C956 C955 1.291 . S
C956 C957 1.373 . S
C956 H969 0.929 . S
C957 C956 1.373 . S
C957 C958 1.396 . S
C957 C964 1.403 . S
C958 C948 1.476 . S
C958 N953 1.318 . S
C958 C957 1.396 . S
H959 C954 0.929 . S
O960 Mn936 2.385 . S
O960 C938 1.234 . S
O961 Mn936 2.209 . S
O961 Mn937 2.215 . S
O961 C938 1.283 . S
O962 Mn936 2.094 . S
O962 C940 1.240 . S
O963 Mn937 2.117 . S
O963 C940 1.264 . S
C964 C957 1.403 . S
C964 C965 1.399 . S
C964 H970 0.929 . S
C965 C945 1.449 . S
C965 C964 1.399 . S
C965 H971 0.930 . S
H966 C946 0.931 . S
H967 C947 0.930 . S
H968 C955 0.931 . S
H969 C956 0.929 . S
H970 C964 0.929 . S
H971 C965 0.930 . S
Mn972 O977 2.095 . S
Mn972 O987 2.162 . S
Mn972 O988 2.297 . S
Mn972 O996 2.385 . S
Mn972 O997 2.209 . S
Mn972 O998 2.094 . S
Mn973 O978 2.121 . S
Mn973 N980 2.257 . S
Mn973 N989 2.282 . S
Mn973 O997 2.215 . S
Mn973 O999 2.117 . S
C974 O996 1.234 . S
C974 O997 1.283 . S
C975 O987 1.281 . S
C975 O988 1.236 . S
C976 O998 1.240 . S
C976 O999 1.264 . S
O977 Mn972 2.095 . S
O977 C986 1.250 . S
O978 Mn973 2.121 . S
O978 C986 1.258 . S
C979 N980 1.326 . S
C979 C983 1.460 1_554 S
C979 H985 0.929 . S
N980 Mn973 2.257 . S
N980 C979 1.326 . S
N980 C984 1.362 . S
C981 C982 1.258 . S
C981 C984 1.431 1_556 S
C981 C1001 1.449 . S
C982 C981 1.258 . S
C982 C983 1.477 . S
C982 H1002 0.931 . S
C983 C979 1.460 1_556 S
C983 C982 1.477 . S
C983 H1003 0.930 . S
C984 N980 1.362 . S
C984 C981 1.431 1_554 S
C984 C994 1.476 . S
H985 C979 0.929 . S
C986 O977 1.250 . S
C986 O978 1.258 . S
O987 Mn972 2.162 . S
O987 C975 1.281 . S
O988 Mn972 2.297 . S
O988 C975 1.236 . S
N989 Mn973 2.282 . S
N989 C990 1.328 . S
N989 C994 1.318 . S
C990 N989 1.328 . S
C990 C991 1.457 . S
C990 H995 0.929 . S
C991 C990 1.457 . S
C991 C992 1.291 1_554 S
C991 H1004 0.931 . S
C992 C991 1.291 1_556 S
C992 C993 1.373 . S
C992 H1005 0.929 . S
C993 C992 1.373 . S
C993 C994 1.396 1_556 S
C993 C1000 1.403 . S
C994 C984 1.476 . S
C994 N989 1.318 . S
C994 C993 1.396 1_554 S
H995 C990 0.929 . S
O996 Mn972 2.385 . S
O996 C974 1.234 . S
O997 Mn972 2.209 . S
O997 Mn973 2.215 . S
O997 C974 1.283 . S
O998 Mn972 2.094 . S
O998 C976 1.240 . S
O999 Mn973 2.117 . S
O999 C976 1.264 . S
C1000 C993 1.403 . S
C1000 C1001 1.399 . S
C1000 H1006 0.929 . S
C1001 C981 1.449 . S
C1001 C1000 1.399 . S
C1001 H1007 0.930 . S
H1002 C982 0.931 . S
H1003 C983 0.930 . S
H1004 C991 0.931 . S
H1005 C992 0.929 . S
H1006 C1000 0.929 . S
H1007 C1001 0.930 . S
Mn1008 O1013 2.095 . S
Mn1008 O1023 2.162 . S
Mn1008 O1024 2.297 . S
Mn1008 O1032 2.385 . S
Mn1008 O1033 2.209 . S
Mn1008 O1034 2.094 . S
Mn1009 O1014 2.121 . S
Mn1009 N1016 2.257 . S
Mn1009 N1025 2.282 . S
Mn1009 O1033 2.215 . S
Mn1009 O1035 2.117 . S
C1010 O1032 1.234 . S
C1010 O1033 1.283 . S
C1011 O1023 1.281 . S
C1011 O1024 1.236 . S
C1012 O1034 1.240 . S
C1012 O1035 1.264 . S
O1013 Mn1008 2.095 . S
O1013 C1022 1.250 . S
O1014 Mn1009 2.121 . S
O1014 C1022 1.258 . S
C1015 N1016 1.326 . S
C1015 C1019 1.460 1_554 S
C1015 H1021 0.929 . S
N1016 Mn1009 2.257 . S
N1016 C1015 1.326 . S
N1016 C1020 1.362 . S
C1017 C1018 1.258 . S
C1017 C1020 1.431 1_556 S
C1017 C1037 1.449 . S
C1018 C1017 1.258 . S
C1018 C1019 1.477 . S
C1018 H1038 0.931 . S
C1019 C1015 1.460 1_556 S
C1019 C1018 1.477 . S
C1019 H1039 0.930 . S
C1020 N1016 1.362 . S
C1020 C1017 1.431 1_554 S
C1020 C1030 1.476 . S
H1021 C1015 0.929 . S
C1022 O1013 1.250 . S
C1022 O1014 1.258 . S
O1023 Mn1008 2.162 . S
O1023 C1011 1.281 . S
O1024 Mn1008 2.297 . S
O1024 C1011 1.236 . S
N1025 Mn1009 2.282 . S
N1025 C1026 1.328 . S
N1025 C1030 1.318 . S
C1026 N1025 1.328 . S
C1026 C1027 1.457 . S
C1026 H1031 0.929 . S
C1027 C1026 1.457 . S
C1027 C1028 1.291 1_554 S
C1027 H1040 0.931 . S
C1028 C1027 1.291 1_556 S
C1028 C1029 1.373 . S
C1028 H1041 0.929 . S
C1029 C1028 1.373 . S
C1029 C1030 1.396 1_556 S
C1029 C1036 1.403 . S
C1030 C1020 1.476 . S
C1030 N1025 1.318 . S
C1030 C1029 1.396 1_554 S
H1031 C1026 0.929 . S
O1032 Mn1008 2.385 . S
O1032 C1010 1.234 . S
O1033 Mn1008 2.209 . S
O1033 Mn1009 2.215 . S
O1033 C1010 1.283 . S
O1034 Mn1008 2.094 . S
O1034 C1012 1.240 . S
O1035 Mn1009 2.117 . S
O1035 C1012 1.264 . S
C1036 C1029 1.403 . S
C1036 C1037 1.399 . S
C1036 H1042 0.929 . S
C1037 C1017 1.449 . S
C1037 C1036 1.399 . S
C1037 H1043 0.930 . S
H1038 C1018 0.931 . S
H1039 C1019 0.930 . S
H1040 C1027 0.931 . S
H1041 C1028 0.929 . S
H1042 C1036 0.929 . S
H1043 C1037 0.930 . S
Mn1044 O1049 2.095 . S
Mn1044 O1059 2.162 . S
Mn1044 O1060 2.297 . S
Mn1044 O1068 2.385 . S
Mn1044 O1069 2.209 . S
Mn1044 O1070 2.094 . S
Mn1045 O1050 2.121 . S
Mn1045 N1052 2.257 . S
Mn1045 N1061 2.282 . S
Mn1045 O1069 2.215 . S
Mn1045 O1071 2.117 . S
C1046 O1068 1.234 . S
C1046 O1069 1.283 . S
C1047 O1059 1.281 . S
C1047 O1060 1.236 . S
C1048 O1070 1.240 . S
C1048 O1071 1.264 . S
O1049 Mn1044 2.095 . S
O1049 C1058 1.250 . S
O1050 Mn1045 2.121 . S
O1050 C1058 1.258 . S
C1051 N1052 1.326 . S
C1051 C1055 1.460 1_554 S
C1051 H1057 0.929 . S
N1052 Mn1045 2.257 . S
N1052 C1051 1.326 . S
N1052 C1056 1.362 . S
C1053 C1054 1.258 . S
C1053 C1056 1.431 1_556 S
C1053 C1073 1.449 . S
C1054 C1053 1.258 . S
C1054 C1055 1.477 . S
C1054 H1074 0.931 . S
C1055 C1051 1.460 1_556 S
C1055 C1054 1.477 . S
C1055 H1075 0.930 . S
C1056 N1052 1.362 . S
C1056 C1053 1.431 1_554 S
C1056 C1066 1.476 . S
H1057 C1051 0.929 . S
C1058 O1049 1.250 . S
C1058 O1050 1.258 . S
O1059 Mn1044 2.162 . S
O1059 C1047 1.281 . S
O1060 Mn1044 2.297 . S
O1060 C1047 1.236 . S
N1061 Mn1045 2.282 . S
N1061 C1062 1.328 . S
N1061 C1066 1.318 . S
C1062 N1061 1.328 . S
C1062 C1063 1.457 . S
C1062 H1067 0.929 . S
C1063 C1062 1.457 . S
C1063 C1064 1.291 1_554 S
C1063 H1076 0.931 . S
C1064 C1063 1.291 1_556 S
C1064 C1065 1.373 . S
C1064 H1077 0.929 . S
C1065 C1064 1.373 . S
C1065 C1066 1.396 1_556 S
C1065 C1072 1.403 . S
C1066 C1056 1.476 . S
C1066 N1061 1.318 . S
C1066 C1065 1.396 1_554 S
H1067 C1062 0.929 . S
O1068 Mn1044 2.385 . S
O1068 C1046 1.234 . S
O1069 Mn1044 2.209 . S
O1069 Mn1045 2.215 . S
O1069 C1046 1.283 . S
O1070 Mn1044 2.094 . S
O1070 C1048 1.240 . S
O1071 Mn1045 2.117 . S
O1071 C1048 1.264 . S
C1072 C1065 1.403 . S
C1072 C1073 1.399 . S
C1072 H1078 0.929 . S
C1073 C1053 1.449 . S
C1073 C1072 1.399 . S
C1073 H1079 0.930 . S
H1074 C1054 0.931 . S
H1075 C1055 0.930 . S
H1076 C1063 0.931 . S
H1077 C1064 0.929 . S
H1078 C1072 0.929 . S
H1079 C1073 0.930 . S
Mn1080 O1085 2.095 . S
Mn1080 O1095 2.162 . S
Mn1080 O1096 2.297 . S
Mn1080 O1104 2.385 . S
Mn1080 O1105 2.209 . S
Mn1080 O1106 2.094 . S
Mn1081 O1086 2.121 . S
Mn1081 N1088 2.257 . S
Mn1081 N1097 2.282 . S
Mn1081 O1105 2.215 . S
Mn1081 O1107 2.117 . S
C1082 O1104 1.234 . S
C1082 O1105 1.283 . S
C1083 O1095 1.281 . S
C1083 O1096 1.236 . S
C1084 O1106 1.240 . S
C1084 O1107 1.264 . S
O1085 Mn1080 2.095 . S
O1085 C1094 1.250 . S
O1086 Mn1081 2.121 . S
O1086 C1094 1.258 . S
C1087 N1088 1.326 . S
C1087 C1091 1.460 . S
C1087 H1093 0.929 . S
N1088 Mn1081 2.257 . S
N1088 C1087 1.326 . S
N1088 C1092 1.362 . S
C1089 C1090 1.258 . S
C1089 C1092 1.431 . S
C1089 C1109 1.449 . S
C1090 C1089 1.258 . S
C1090 C1091 1.477 . S
C1090 H1110 0.931 . S
C1091 C1087 1.460 . S
C1091 C1090 1.477 . S
C1091 H1111 0.930 . S
C1092 N1088 1.362 . S
C1092 C1089 1.431 . S
C1092 C1102 1.476 . S
H1093 C1087 0.929 . S
C1094 O1085 1.250 . S
C1094 O1086 1.258 . S
O1095 Mn1080 2.162 . S
O1095 C1083 1.281 . S
O1096 Mn1080 2.297 . S
O1096 C1083 1.236 . S
N1097 Mn1081 2.282 . S
N1097 C1098 1.328 . S
N1097 C1102 1.318 . S
C1098 N1097 1.328 . S
C1098 C1099 1.457 . S
C1098 H1103 0.929 . S
C1099 C1098 1.457 . S
C1099 C1100 1.291 . S
C1099 H1112 0.931 . S
C1100 C1099 1.291 . S
C1100 C1101 1.373 . S
C1100 H1113 0.929 . S
C1101 C1100 1.373 . S
C1101 C1102 1.396 . S
C1101 C1108 1.403 . S
C1102 C1092 1.476 . S
C1102 N1097 1.318 . S
C1102 C1101 1.396 . S
H1103 C1098 0.929 . S
O1104 Mn1080 2.385 . S
O1104 C1082 1.234 . S
O1105 Mn1080 2.209 . S
O1105 Mn1081 2.215 . S
O1105 C1082 1.283 . S
O1106 Mn1080 2.094 . S
O1106 C1084 1.240 . S
O1107 Mn1081 2.117 . S
O1107 C1084 1.264 . S
C1108 C1101 1.403 . S
C1108 C1109 1.399 . S
C1108 H1114 0.929 . S
C1109 C1089 1.449 . S
C1109 C1108 1.399 . S
C1109 H1115 0.930 . S
H1110 C1090 0.931 . S
H1111 C1091 0.930 . S
H1112 C1099 0.931 . S
H1113 C1100 0.929 . S
H1114 C1108 0.929 . S
H1115 C1109 0.930 . S
Mn1116 O1121 2.095 . S
Mn1116 O1131 2.162 . S
Mn1116 O1132 2.297 . S
Mn1116 O1140 2.385 . S
Mn1116 O1141 2.209 . S
Mn1116 O1142 2.094 . S
Mn1117 O1122 2.121 . S
Mn1117 N1124 2.257 . S
Mn1117 N1133 2.282 . S
Mn1117 O1141 2.215 . S
Mn1117 O1143 2.117 . S
C1118 O1140 1.234 . S
C1118 O1141 1.283 . S
C1119 O1131 1.281 . S
C1119 O1132 1.236 . S
C1120 O1142 1.240 . S
C1120 O1143 1.264 . S
O1121 Mn1116 2.095 . S
O1121 C1130 1.250 . S
O1122 Mn1117 2.121 . S
O1122 C1130 1.258 . S
C1123 N1124 1.326 . S
C1123 C1127 1.460 . S
C1123 H1129 0.929 . S
N1124 Mn1117 2.257 . S
N1124 C1123 1.326 . S
N1124 C1128 1.362 . S
C1125 C1126 1.258 . S
C1125 C1128 1.431 . S
C1125 C1145 1.449 . S
C1126 C1125 1.258 . S
C1126 C1127 1.477 . S
C1126 H1146 0.931 . S
C1127 C1123 1.460 . S
C1127 C1126 1.477 . S
C1127 H1147 0.930 . S
C1128 N1124 1.362 . S
C1128 C1125 1.431 . S
C1128 C1138 1.476 . S
H1129 C1123 0.929 . S
C1130 O1121 1.250 . S
C1130 O1122 1.258 . S
O1131 Mn1116 2.162 . S
O1131 C1119 1.281 . S
O1132 Mn1116 2.297 . S
O1132 C1119 1.236 . S
N1133 Mn1117 2.282 . S
N1133 C1134 1.328 . S
N1133 C1138 1.318 . S
C1134 N1133 1.328 . S
C1134 C1135 1.457 . S
C1134 H1139 0.929 . S
C1135 C1134 1.457 . S
C1135 C1136 1.291 . S
C1135 H1148 0.931 . S
C1136 C1135 1.291 . S
C1136 C1137 1.373 . S
C1136 H1149 0.929 . S
C1137 C1136 1.373 . S
C1137 C1138 1.396 . S
C1137 C1144 1.403 . S
C1138 C1128 1.476 . S
C1138 N1133 1.318 . S
C1138 C1137 1.396 . S
H1139 C1134 0.929 . S
O1140 Mn1116 2.385 . S
O1140 C1118 1.234 . S
O1141 Mn1116 2.209 . S
O1141 Mn1117 2.215 . S
O1141 C1118 1.283 . S
O1142 Mn1116 2.094 . S
O1142 C1120 1.240 . S
O1143 Mn1117 2.117 . S
O1143 C1120 1.264 . S
C1144 C1137 1.403 . S
C1144 C1145 1.399 . S
C1144 H1150 0.929 . S
C1145 C1125 1.449 . S
C1145 C1144 1.399 . S
C1145 H1151 0.930 . S
H1146 C1126 0.931 . S
H1147 C1127 0.930 . S
H1148 C1135 0.931 . S
H1149 C1136 0.929 . S
H1150 C1144 0.929 . S
H1151 C1145 0.930 . S
Mn1152 O1157 2.095 . S
Mn1152 O1167 2.162 . S
Mn1152 O1168 2.297 . S
Mn1152 O1176 2.385 . S
Mn1152 O1177 2.209 . S
Mn1152 O1178 2.094 . S
Mn1153 O1158 2.121 . S
Mn1153 N1160 2.257 . S
Mn1153 N1169 2.282 . S
Mn1153 O1177 2.215 . S
Mn1153 O1179 2.117 . S
C1154 O1176 1.234 . S
C1154 O1177 1.283 . S
C1155 O1167 1.281 . S
C1155 O1168 1.236 . S
C1156 O1178 1.240 . S
C1156 O1179 1.264 . S
O1157 Mn1152 2.095 . S
O1157 C1166 1.250 . S
O1158 Mn1153 2.121 . S
O1158 C1166 1.258 . S
C1159 N1160 1.326 . S
C1159 C1163 1.460 . S
C1159 H1165 0.929 . S
N1160 Mn1153 2.257 . S
N1160 C1159 1.326 . S
N1160 C1164 1.362 . S
C1161 C1162 1.258 . S
C1161 C1164 1.431 . S
C1161 C1181 1.449 . S
C1162 C1161 1.258 . S
C1162 C1163 1.477 . S
C1162 H1182 0.931 . S
C1163 C1159 1.460 . S
C1163 C1162 1.477 . S
C1163 H1183 0.930 . S
C1164 N1160 1.362 . S
C1164 C1161 1.431 . S
C1164 C1174 1.476 . S
H1165 C1159 0.929 . S
C1166 O1157 1.250 . S
C1166 O1158 1.258 . S
O1167 Mn1152 2.162 . S
O1167 C1155 1.281 . S
O1168 Mn1152 2.297 . S
O1168 C1155 1.236 . S
N1169 Mn1153 2.282 . S
N1169 C1170 1.328 . S
N1169 C1174 1.318 . S
C1170 N1169 1.328 . S
C1170 C1171 1.457 . S
C1170 H1175 0.929 . S
C1171 C1170 1.457 . S
C1171 C1172 1.291 . S
C1171 H1184 0.931 . S
C1172 C1171 1.291 . S
C1172 C1173 1.373 . S
C1172 H1185 0.929 . S
C1173 C1172 1.373 . S
C1173 C1174 1.396 . S
C1173 C1180 1.403 . S
C1174 C1164 1.476 . S
C1174 N1169 1.318 . S
C1174 C1173 1.396 . S
H1175 C1170 0.929 . S
O1176 Mn1152 2.385 . S
O1176 C1154 1.234 . S
O1177 Mn1152 2.209 . S
O1177 Mn1153 2.215 . S
O1177 C1154 1.283 . S
O1178 Mn1152 2.094 . S
O1178 C1156 1.240 . S
O1179 Mn1153 2.117 . S
O1179 C1156 1.264 . S
C1180 C1173 1.403 . S
C1180 C1181 1.399 . S
C1180 H1186 0.929 . S
C1181 C1161 1.449 . S
C1181 C1180 1.399 . S
C1181 H1187 0.930 . S
H1182 C1162 0.931 . S
H1183 C1163 0.930 . S
H1184 C1171 0.931 . S
H1185 C1172 0.929 . S
H1186 C1180 0.929 . S
H1187 C1181 0.930 . S
Mn1188 O1193 2.095 . S
Mn1188 O1203 2.162 . S
Mn1188 O1204 2.297 . S
Mn1188 O1212 2.385 . S
Mn1188 O1213 2.209 . S
Mn1188 O1214 2.094 . S
Mn1189 O1194 2.121 . S
Mn1189 N1196 2.257 . S
Mn1189 N1205 2.282 . S
Mn1189 O1213 2.215 . S
Mn1189 O1215 2.117 . S
C1190 O1212 1.234 . S
C1190 O1213 1.283 . S
C1191 O1203 1.281 . S
C1191 O1204 1.236 . S
C1192 O1214 1.240 . S
C1192 O1215 1.264 . S
O1193 Mn1188 2.095 . S
O1193 C1202 1.250 . S
O1194 Mn1189 2.121 . S
O1194 C1202 1.258 . S
C1195 N1196 1.326 . S
C1195 C1199 1.460 . S
C1195 H1201 0.929 . S
N1196 Mn1189 2.257 . S
N1196 C1195 1.326 . S
N1196 C1200 1.362 . S
C1197 C1198 1.258 . S
C1197 C1200 1.431 . S
C1197 C1217 1.449 . S
C1198 C1197 1.258 . S
C1198 C1199 1.477 . S
C1198 H1218 0.931 . S
C1199 C1195 1.460 . S
C1199 C1198 1.477 . S
C1199 H1219 0.930 . S
C1200 N1196 1.362 . S
C1200 C1197 1.431 . S
C1200 C1210 1.476 . S
H1201 C1195 0.929 . S
C1202 O1193 1.250 . S
C1202 O1194 1.258 . S
O1203 Mn1188 2.162 . S
O1203 C1191 1.281 . S
O1204 Mn1188 2.297 . S
O1204 C1191 1.236 . S
N1205 Mn1189 2.282 . S
N1205 C1206 1.328 . S
N1205 C1210 1.318 . S
C1206 N1205 1.328 . S
C1206 C1207 1.457 . S
C1206 H1211 0.929 . S
C1207 C1206 1.457 . S
C1207 C1208 1.291 . S
C1207 H1220 0.931 . S
C1208 C1207 1.291 . S
C1208 C1209 1.373 . S
C1208 H1221 0.929 . S
C1209 C1208 1.373 . S
C1209 C1210 1.396 . S
C1209 C1216 1.403 . S
C1210 C1200 1.476 . S
C1210 N1205 1.318 . S
C1210 C1209 1.396 . S
H1211 C1206 0.929 . S
O1212 Mn1188 2.385 . S
O1212 C1190 1.234 . S
O1213 Mn1188 2.209 . S
O1213 Mn1189 2.215 . S
O1213 C1190 1.283 . S
O1214 Mn1188 2.094 . S
O1214 C1192 1.240 . S
O1215 Mn1189 2.117 . S
O1215 C1192 1.264 . S
C1216 C1209 1.403 . S
C1216 C1217 1.399 . S
C1216 H1222 0.929 . S
C1217 C1197 1.449 . S
C1217 C1216 1.399 . S
C1217 H1223 0.930 . S
H1218 C1198 0.931 . S
H1219 C1199 0.930 . S
H1220 C1207 0.931 . S
H1221 C1208 0.929 . S
H1222 C1216 0.929 . S
H1223 C1217 0.930 . S
Mn1224 O1229 2.095 . S
Mn1224 O1239 2.162 . S
Mn1224 O1240 2.297 . S
Mn1224 O1248 2.385 . S
Mn1224 O1249 2.209 . S
Mn1224 O1250 2.094 . S
Mn1225 O1230 2.121 . S
Mn1225 N1232 2.257 . S
Mn1225 N1241 2.282 . S
Mn1225 O1249 2.215 . S
Mn1225 O1251 2.117 . S
C1226 O1248 1.234 . S
C1226 O1249 1.283 . S
C1227 O1239 1.281 . S
C1227 O1240 1.236 . S
C1228 O1250 1.240 . S
C1228 O1251 1.264 . S
O1229 Mn1224 2.095 . S
O1229 C1238 1.250 . S
O1230 Mn1225 2.121 . S
O1230 C1238 1.258 . S
C1231 N1232 1.326 . S
C1231 C1235 1.460 . S
C1231 H1237 0.929 . S
N1232 Mn1225 2.257 . S
N1232 C1231 1.326 . S
N1232 C1236 1.362 . S
C1233 C1234 1.258 . S
C1233 C1236 1.431 . S
C1233 C1253 1.449 . S
C1234 C1233 1.258 . S
C1234 C1235 1.477 . S
C1234 H1254 0.931 . S
C1235 C1231 1.460 . S
C1235 C1234 1.477 . S
C1235 H1255 0.930 . S
C1236 N1232 1.362 . S
C1236 C1233 1.431 . S
C1236 C1246 1.476 . S
H1237 C1231 0.929 . S
C1238 O1229 1.250 . S
C1238 O1230 1.258 . S
O1239 Mn1224 2.162 . S
O1239 C1227 1.281 . S
O1240 Mn1224 2.297 . S
O1240 C1227 1.236 . S
N1241 Mn1225 2.282 . S
N1241 C1242 1.328 . S
N1241 C1246 1.318 . S
C1242 N1241 1.328 . S
C1242 C1243 1.457 . S
C1242 H1247 0.929 . S
C1243 C1242 1.457 . S
C1243 C1244 1.291 . S
C1243 H1256 0.931 . S
C1244 C1243 1.291 . S
C1244 C1245 1.373 . S
C1244 H1257 0.929 . S
C1245 C1244 1.373 . S
C1245 C1246 1.396 . S
C1245 C1252 1.403 . S
C1246 C1236 1.476 . S
C1246 N1241 1.318 . S
C1246 C1245 1.396 . S
H1247 C1242 0.929 . S
O1248 Mn1224 2.385 . S
O1248 C1226 1.234 . S
O1249 Mn1224 2.209 . S
O1249 Mn1225 2.215 . S
O1249 C1226 1.283 . S
O1250 Mn1224 2.094 . S
O1250 C1228 1.240 . S
O1251 Mn1225 2.117 . S
O1251 C1228 1.264 . S
C1252 C1245 1.403 . S
C1252 C1253 1.399 . S
C1252 H1258 0.929 . S
C1253 C1233 1.449 . S
C1253 C1252 1.399 . S
C1253 H1259 0.930 . S
H1254 C1234 0.931 . S
H1255 C1235 0.930 . S
H1256 C1243 0.931 . S
H1257 C1244 0.929 . S
H1258 C1252 0.929 . S
H1259 C1253 0.930 . S
Mn1260 O1265 2.095 . S
Mn1260 O1275 2.162 . S
Mn1260 O1276 2.297 . S
Mn1260 O1284 2.385 . S
Mn1260 O1285 2.209 . S
Mn1260 O1286 2.094 . S
Mn1261 O1266 2.121 . S
Mn1261 N1268 2.257 . S
Mn1261 N1277 2.282 . S
Mn1261 O1285 2.215 . S
Mn1261 O1287 2.117 . S
C1262 O1284 1.234 . S
C1262 O1285 1.283 . S
C1263 O1275 1.281 . S
C1263 O1276 1.236 . S
C1264 O1286 1.240 . S
C1264 O1287 1.264 . S
O1265 Mn1260 2.095 . S
O1265 C1274 1.250 . S
O1266 Mn1261 2.121 . S
O1266 C1274 1.258 . S
C1267 N1268 1.326 . S
C1267 C1271 1.460 . S
C1267 H1273 0.929 . S
N1268 Mn1261 2.257 . S
N1268 C1267 1.326 . S
N1268 C1272 1.362 . S
C1269 C1270 1.258 . S
C1269 C1272 1.431 . S
C1269 C1289 1.449 . S
C1270 C1269 1.258 . S
C1270 C1271 1.477 . S
C1270 H1290 0.931 . S
C1271 C1267 1.460 . S
C1271 C1270 1.477 . S
C1271 H1291 0.930 . S
C1272 N1268 1.362 . S
C1272 C1269 1.431 . S
C1272 C1282 1.476 . S
H1273 C1267 0.929 . S
C1274 O1265 1.250 . S
C1274 O1266 1.258 . S
O1275 Mn1260 2.162 . S
O1275 C1263 1.281 . S
O1276 Mn1260 2.297 . S
O1276 C1263 1.236 . S
N1277 Mn1261 2.282 . S
N1277 C1278 1.328 . S
N1277 C1282 1.318 . S
C1278 N1277 1.328 . S
C1278 C1279 1.457 . S
C1278 H1283 0.929 . S
C1279 C1278 1.457 . S
C1279 C1280 1.291 . S
C1279 H1292 0.931 . S
C1280 C1279 1.291 . S
C1280 C1281 1.373 . S
C1280 H1293 0.929 . S
C1281 C1280 1.373 . S
C1281 C1282 1.396 . S
C1281 C1288 1.403 . S
C1282 C1272 1.476 . S
C1282 N1277 1.318 . S
C1282 C1281 1.396 . S
H1283 C1278 0.929 . S
O1284 Mn1260 2.385 . S
O1284 C1262 1.234 . S
O1285 Mn1260 2.209 . S
O1285 Mn1261 2.215 . S
O1285 C1262 1.283 . S
O1286 Mn1260 2.094 . S
O1286 C1264 1.240 . S
O1287 Mn1261 2.117 . S
O1287 C1264 1.264 . S
C1288 C1281 1.403 . S
C1288 C1289 1.399 . S
C1288 H1294 0.929 . S
C1289 C1269 1.449 . S
C1289 C1288 1.399 . S
C1289 H1295 0.930 . S
H1290 C1270 0.931 . S
H1291 C1271 0.930 . S
H1292 C1279 0.931 . S
H1293 C1280 0.929 . S
H1294 C1288 0.929 . S
H1295 C1289 0.930 . S
H1296 C1302 0.930 . S
H1297 C1306 0.930 1_554 S
H1298 C1311 0.929 . S
H1299 C1309 0.929 . S
H1300 C1304 0.929 . S
H1301 C1310 0.929 1_556 S
C1302 H1296 0.930 . S
C1302 C1303 1.367 . S
C1302 C1310 1.378 . S
C1303 C1302 1.367 . S
C1303 C1311 1.433 . S
C1304 H1300 0.929 . S
C1304 C1306 1.378 1_544 S
C1304 C1308 1.350 . S
C1305 C1308 1.463 . S
C1305 C1310 1.350 . S
C1305 N1313 1.427 . S
C1306 H1297 0.930 1_556 S
C1306 C1304 1.378 1_566 S
C1306 C1307 1.367 . S
C1307 C1306 1.367 . S
C1307 C1309 1.433 1_565 S
C1308 C1304 1.350 . S
C1308 C1305 1.463 . S
C1308 N1312 1.427 1_554 S
C1309 H1299 0.929 . S
C1309 C1307 1.433 1_545 S
C1309 N1312 1.384 . S
C1310 H1301 0.929 1_554 S
C1310 C1302 1.378 . S
C1310 C1305 1.350 . S
C1311 H1298 0.929 . S
C1311 C1303 1.433 . S
C1311 N1313 1.384 . S
N1312 C1308 1.427 1_556 S
N1312 C1309 1.384 . S
N1313 C1305 1.427 . S
N1313 C1311 1.384 . S
H1314 C1320 0.930 . S
H1315 C1324 0.930 . S
H1316 C1329 0.929 . S
H1317 C1327 0.929 . S
H1318 C1322 0.929 . S
H1319 C1328 0.929 . S
C1320 H1314 0.930 . S
C1320 C1321 1.367 . S
C1320 C1328 1.378 . S
C1321 C1320 1.367 . S
C1321 C1329 1.433 . S
C1322 H1318 0.929 . S
C1322 C1324 1.378 . S
C1322 C1326 1.353 . S
C1323 C1326 1.460 1_554 S
C1323 C1328 1.350 . S
C1323 N1331 1.427 . S
C1324 H1315 0.930 . S
C1324 C1322 1.378 . S
C1324 C1325 1.367 1_655 S
C1325 C1324 1.367 1_455 S
C1325 C1327 1.433 . S
C1326 C1322 1.353 . S
C1326 C1323 1.460 1_556 S
C1326 N1330 1.399 1_656 S
C1327 H1317 0.929 . S
C1327 C1325 1.433 . S
C1327 N1330 1.400 1_556 S
C1328 H1319 0.929 . S
C1328 C1320 1.378 . S
C1328 C1323 1.350 . S
C1329 H1316 0.929 . S
C1329 C1321 1.433 . S
C1329 N1331 1.384 . S
N1330 C1326 1.399 1_454 S
N1330 C1327 1.400 1_554 S
N1331 C1323 1.427 . S
N1331 C1329 1.384 . S
H1332 C1338 0.930 . S
H1333 C1342 0.930 . S
H1334 C1347 0.929 . S
H1335 C1345 0.929 . S
H1336 C1340 0.929 1_556 S
H1337 C1346 0.929 . S
C1338 H1332 0.930 . S
C1338 C1339 1.367 . S
C1338 C1346 1.378 1_556 S
C1339 C1338 1.367 . S
C1339 C1347 1.433 . S
C1340 H1336 0.929 1_554 S
C1340 C1342 1.378 . S
C1340 C1344 1.350 . S
C1341 C1344 1.463 . S
C1341 C1346 1.350 . S
C1341 N1349 1.427 1_554 S
C1342 H1333 0.930 . S
C1342 C1340 1.378 . S
C1342 C1343 1.367 . S
C1343 C1342 1.367 . S
C1343 C1345 1.433 . S
C1344 C1340 1.350 . S
C1344 C1341 1.463 . S
C1344 N1348 1.427 . S
C1345 H1335 0.929 . S
C1345 C1343 1.433 . S
C1345 N1348 1.384 . S
C1346 H1337 0.929 . S
C1346 C1338 1.378 1_554 S
C1346 C1341 1.350 . S
C1347 H1334 0.929 . S
C1347 C1339 1.433 . S
C1347 N1349 1.384 . S
N1348 C1344 1.427 . S
N1348 C1345 1.384 . S
N1349 C1341 1.427 1_556 S
N1349 C1347 1.384 . S
H1350 C1356 0.930 . S
H1351 C1360 0.930 . S
H1352 C1365 0.929 . S
H1353 C1363 0.929 . S
H1354 C1358 0.929 . S
H1355 C1364 0.929 . S
C1356 H1350 0.930 . S
C1356 C1357 1.367 . S
C1356 C1364 1.378 1_655 S
C1357 C1356 1.367 . S
C1357 C1365 1.433 . S
C1358 H1354 0.929 . S
C1358 C1360 1.378 . S
C1358 C1362 1.350 . S
C1359 C1362 1.463 . S
C1359 C1364 1.350 . S
C1359 N1367 1.427 . S
C1360 H1351 0.930 . S
C1360 C1358 1.378 . S
C1360 C1361 1.367 . S
C1361 C1360 1.367 . S
C1361 C1363 1.433 . S
C1362 C1358 1.350 . S
C1362 C1359 1.463 . S
C1362 N1366 1.427 . S
C1363 H1353 0.929 . S
C1363 C1361 1.433 . S
C1363 N1366 1.384 . S
C1364 H1355 0.929 . S
C1364 C1356 1.378 1_455 S
C1364 C1359 1.350 . S
C1365 H1352 0.929 . S
C1365 C1357 1.433 . S
C1365 N1367 1.384 1_655 S
N1366 C1362 1.427 . S
N1366 C1363 1.384 . S
N1367 C1359 1.427 . S
N1367 C1365 1.384 1_455 S
H1368 C1374 0.930 . S
H1369 C1378 0.930 . S
H1370 C1383 0.929 . S
H1371 C1381 0.929 . S
H1372 C1376 0.929 . S
H1373 C1382 0.929 . S
C1374 H1368 0.930 . S
C1374 C1375 1.367 . S
C1374 C1382 1.378 . S
C1375 C1374 1.367 . S
C1375 C1383 1.433 . S
C1376 H1372 0.929 . S
C1376 C1378 1.378 . S
C1376 C1380 1.350 . S
C1377 C1380 1.463 . S
C1377 C1382 1.350 . S
C1377 N1385 1.427 . S
C1378 H1369 0.930 . S
C1378 C1376 1.378 . S
C1378 C1379 1.367 . S
C1379 C1378 1.367 . S
C1379 C1381 1.433 . S
C1380 C1376 1.350 . S
C1380 C1377 1.463 . S
C1380 N1384 1.427 . S
C1381 H1371 0.929 . S
C1381 C1379 1.433 . S
C1381 N1384 1.384 . S
C1382 H1373 0.929 . S
C1382 C1374 1.378 . S
C1382 C1377 1.350 . S
C1383 H1370 0.929 . S
C1383 C1375 1.433 . S
C1383 N1385 1.384 . S
N1384 C1380 1.427 . S
N1384 C1381 1.384 . S
N1385 C1377 1.427 . S
N1385 C1383 1.384 . S
H1386 C1392 0.930 . S
H1387 C1396 0.930 . S
H1388 C1401 0.929 . S
H1389 C1399 0.929 . S
H1390 C1394 0.929 . S
H1391 C1400 0.929 . S
C1392 H1386 0.930 . S
C1392 C1393 1.367 . S
C1392 C1400 1.378 . S
C1393 C1392 1.367 . S
C1393 C1401 1.433 . S
C1394 H1390 0.929 . S
C1394 C1396 1.378 . S
C1394 C1398 1.350 . S
C1395 C1398 1.463 . S
C1395 C1400 1.350 . S
C1395 N1403 1.427 . S
C1396 H1387 0.930 . S
C1396 C1394 1.378 . S
C1396 C1397 1.367 1_565 S
C1397 C1396 1.367 1_545 S
C1397 C1399 1.433 . S
C1398 C1394 1.350 . S
C1398 C1395 1.463 . S
C1398 N1402 1.482 . S
C1399 H1389 0.929 . S
C1399 C1397 1.433 . S
C1399 N1402 1.353 1_545 S
C1400 H1391 0.929 . S
C1400 C1392 1.378 . S
C1400 C1395 1.350 . S
C1401 H1388 0.929 . S
C1401 C1393 1.433 . S
C1401 N1403 1.384 . S
N1402 C1398 1.482 . S
N1402 C1399 1.353 1_565 S
N1403 C1395 1.427 . S
N1403 C1401 1.384 . S
H1404 C1410 0.930 . S
H1405 C1414 0.930 . S
H1406 C1419 0.929 . S
H1407 C1417 0.929 . S
H1408 C1412 0.929 . S
H1409 C1418 0.929 . S
C1410 H1404 0.930 . S
C1410 C1411 1.367 1_565 S
C1410 C1418 1.378 . S
C1411 C1410 1.367 1_545 S
C1411 C1419 1.433 . S
C1412 H1408 0.929 . S
C1412 C1414 1.378 . S
C1412 C1416 1.350 . S
C1413 C1416 1.460 1_554 S
C1413 C1418 1.353 . S
C1413 N1421 1.399 1_564 S
C1414 H1405 0.930 . S
C1414 C1412 1.378 . S
C1414 C1415 1.367 . S
C1415 C1414 1.367 . S
C1415 C1417 1.433 . S
C1416 C1412 1.350 . S
C1416 C1413 1.460 1_556 S
C1416 N1420 1.427 . S
C1417 H1407 0.929 . S
C1417 C1415 1.433 . S
C1417 N1420 1.384 . S
C1418 H1409 0.929 . S
C1418 C1410 1.378 . S
C1418 C1413 1.353 . S
C1419 H1406 0.929 . S
C1419 C1411 1.433 . S
C1419 N1421 1.420 1_554 S
N1420 C1416 1.427 . S
N1420 C1417 1.384 . S
N1421 C1413 1.399 1_546 S
N1421 C1419 1.420 1_556 S
H1422 C1428 0.930 . S
H1423 C1432 0.930 . S
H1424 C1437 0.929 . S
H1425 C1435 0.929 . S
H1426 C1430 0.929 . S
H1427 C1436 0.950 . S
C1428 H1422 0.930 . S
C1428 C1429 1.367 . S
C1428 C1436 1.378 1_654 S
C1429 C1428 1.367 . S
C1429 C1437 1.433 1_655 S
C1430 H1426 0.929 . S
C1430 C1432 1.378 . S
C1430 C1434 1.350 . S
C1431 C1434 1.478 . S
C1431 C1436 1.351 . S
C1431 N1439 1.411 1_556 S
C1432 H1423 0.930 . S
C1432 C1430 1.378 . S
C1432 C1433 1.367 . S
C1433 C1432 1.367 . S
C1433 C1435 1.433 . S
C1434 C1430 1.350 . S
C1434 C1431 1.478 . S
C1434 N1438 1.427 . S
C1435 H1425 0.929 . S
C1435 C1433 1.433 . S
C1435 N1438 1.384 . S
C1436 H1427 0.950 . S
C1436 C1428 1.378 1_456 S
C1436 C1431 1.351 . S
C1437 H1424 0.929 . S
C1437 C1429 1.433 1_455 S
C1437 N1439 1.384 . S
N1438 C1434 1.427 . S
N1438 C1435 1.384 . S
N1439 C1431 1.411 1_554 S
N1439 C1437 1.384 . S
H1440 C1446 0.930 . S
H1441 C1450 0.930 . S
H1442 C1455 0.929 . S
H1443 C1453 0.929 . S
H1444 C1448 0.929 . S
H1445 C1454 0.929 . S
C1446 H1440 0.930 . S
C1446 C1447 1.367 . S
C1446 C1454 1.378 . S
C1447 C1446 1.367 . S
C1447 C1455 1.433 . S
C1448 H1444 0.929 . S
C1448 C1450 1.378 . S
C1448 C1452 1.349 . S
C1449 C1452 1.464 1_556 S
C1449 C1454 1.350 . S
C1449 N1457 1.427 . S
C1450 H1441 0.930 . S
C1450 C1448 1.378 . S
C1450 C1451 1.367 . S
C1451 C1450 1.367 . S
C1451 C1453 1.433 . S
C1452 C1448 1.349 . S
C1452 C1449 1.464 1_554 S
C1452 N1456 1.428 1_554 S
C1453 H1443 0.929 . S
C1453 C1451 1.433 . S
C1453 N1456 1.384 1_554 S
C1454 H1445 0.929 . S
C1454 C1446 1.378 . S
C1454 C1449 1.350 . S
C1455 H1442 0.929 . S
C1455 C1447 1.433 . S
C1455 N1457 1.384 . S
N1456 C1452 1.428 1_556 S
N1456 C1453 1.384 1_556 S
N1457 C1449 1.427 . S
N1457 C1455 1.384 . S
H1458 C1464 0.930 . S
H1459 C1468 0.930 . S
H1460 C1473 0.929 . S
H1461 C1471 0.929 . S
H1462 C1466 0.929 . S
H1463 C1472 0.929 . S
C1464 H1458 0.930 . S
C1464 C1465 1.367 . S
C1464 C1472 1.378 . S
C1465 C1464 1.367 . S
C1465 C1473 1.433 . S
C1466 H1462 0.929 . S
C1466 C1468 1.378 . S
C1466 C1470 1.350 . S
C1467 C1470 1.463 . S
C1467 C1472 1.350 . S
C1467 N1475 1.427 . S
C1468 H1459 0.930 . S
C1468 C1466 1.378 . S
C1468 C1469 1.367 1_655 S
C1469 C1468 1.367 1_455 S
C1469 C1471 1.433 . S
C1470 C1466 1.350 . S
C1470 C1467 1.463 . S
C1470 N1474 1.427 1_655 S
C1471 H1461 0.929 . S
C1471 C1469 1.433 . S
C1471 N1474 1.384 . S
C1472 H1463 0.929 . S
C1472 C1464 1.378 . S
C1472 C1467 1.350 . S
C1473 H1460 0.929 . S
C1473 C1465 1.433 . S
C1473 N1475 1.384 . S
N1474 C1470 1.427 1_455 S
N1474 C1471 1.384 . S
N1475 C1467 1.427 . S
N1475 C1473 1.384 . S
H1476 C1482 0.930 . S
H1477 C1486 0.930 . S
H1478 C1491 0.929 . S
H1479 C1489 0.929 . S
H1480 C1484 0.929 . S
H1481 C1490 0.929 . S
C1482 H1476 0.930 . S
C1482 C1483 1.367 . S
C1482 C1490 1.378 . S
C1483 C1482 1.367 . S
C1483 C1491 1.433 . S
C1484 H1480 0.929 . S
C1484 C1486 1.378 . S
C1484 C1488 1.350 . S
C1485 C1488 1.463 . S
C1485 C1490 1.350 . S
C1485 N1493 1.427 . S
C1486 H1477 0.930 . S
C1486 C1484 1.378 . S
C1486 C1487 1.367 . S
C1487 C1486 1.367 . S
C1487 C1489 1.433 . S
C1488 C1484 1.350 . S
C1488 C1485 1.463 . S
C1488 N1492 1.427 . S
C1489 H1479 0.929 . S
C1489 C1487 1.433 . S
C1489 N1492 1.384 . S
C1490 H1481 0.929 . S
C1490 C1482 1.378 . S
C1490 C1485 1.350 . S
C1491 H1478 0.929 . S
C1491 C1483 1.433 . S
C1491 N1493 1.384 . S
N1492 C1488 1.427 . S
N1492 C1489 1.384 . S
N1493 C1485 1.427 . S
N1493 C1491 1.384 . S
H1494 C1500 0.930 . S
H1495 C1504 0.930 . S
H1496 C1509 0.929 . S
H1497 C1507 0.929 . S
H1498 C1502 0.929 . S
H1499 C1508 0.929 . S
C1500 H1494 0.930 . S
C1500 C1501 1.367 . S
C1500 C1508 1.378 . S
C1501 C1500 1.367 . S
C1501 C1509 1.433 . S
C1502 H1498 0.929 . S
C1502 C1504 1.378 1_545 S
C1502 C1506 1.350 . S
C1503 C1506 1.463 . S
C1503 C1508 1.350 . S
C1503 N1511 1.427 . S
C1504 H1495 0.930 . S
C1504 C1502 1.378 1_565 S
C1504 C1505 1.367 . S
C1505 C1504 1.367 . S
C1505 C1507 1.433 1_565 S
C1506 C1502 1.350 . S
C1506 C1503 1.463 . S
C1506 N1510 1.427 . S
C1507 H1497 0.929 . S
C1507 C1505 1.433 1_545 S
C1507 N1510 1.384 . S
C1508 H1499 0.929 . S
C1508 C1500 1.378 . S
C1508 C1503 1.350 . S
C1509 H1496 0.929 . S
C1509 C1501 1.433 . S
C1509 N1511 1.384 . S
N1510 C1506 1.427 . S
N1510 C1507 1.384 . S
N1511 C1503 1.427 . S
N1511 C1509 1.384 . S
H1512 C1518 0.930 . S
H1513 C1522 0.930 . S
H1514 C1527 0.929 . S
H1515 C1525 0.929 . S
H1516 C1520 0.929 . S
H1517 C1526 0.929 . S
C1518 H1512 0.930 . S
C1518 C1519 1.367 . S
C1518 C1526 1.378 . S
C1519 C1518 1.367 . S
C1519 C1527 1.433 . S
C1520 H1516 0.929 . S
C1520 C1522 1.378 . S
C1520 C1524 1.350 . S
C1521 C1524 1.463 . S
C1521 C1526 1.350 . S
C1521 N1529 1.427 . S
C1522 H1513 0.930 . S
C1522 C1520 1.378 . S
C1522 C1523 1.367 . S
C1523 C1522 1.367 . S
C1523 C1525 1.433 . S
C1524 C1520 1.350 . S
C1524 C1521 1.463 . S
C1524 N1528 1.427 . S
C1525 H1515 0.929 . S
C1525 C1523 1.433 . S
C1525 N1528 1.384 . S
C1526 H1517 0.929 . S
C1526 C1518 1.378 . S
C1526 C1521 1.350 . S
C1527 H1514 0.929 . S
C1527 C1519 1.433 . S
C1527 N1529 1.384 . S
N1528 C1524 1.427 . S
N1528 C1525 1.384 . S
N1529 C1521 1.427 . S
N1529 C1527 1.384 . S
H1530 C1536 0.930 . S
H1531 C1540 0.930 . S
H1532 C1545 0.929 . S
H1533 C1543 0.929 . S
H1534 C1538 0.929 . S
H1535 C1544 0.929 . S
C1536 H1530 0.930 . S
C1536 C1537 1.367 . S
C1536 C1544 1.378 . S
C1537 C1536 1.367 . S
C1537 C1545 1.433 . S
C1538 H1534 0.929 . S
C1538 C1540 1.378 . S
C1538 C1542 1.350 . S
C1539 C1542 1.463 . S
C1539 C1544 1.350 . S
C1539 N1547 1.427 . S
C1540 H1531 0.930 . S
C1540 C1538 1.378 . S
C1540 C1541 1.367 . S
C1541 C1540 1.367 . S
C1541 C1543 1.433 . S
C1542 C1538 1.350 . S
C1542 C1539 1.463 . S
C1542 N1546 1.427 . S
C1543 H1533 0.929 . S
C1543 C1541 1.433 . S
C1543 N1546 1.384 . S
C1544 H1535 0.929 . S
C1544 C1536 1.378 . S
C1544 C1539 1.350 . S
C1545 H1532 0.929 . S
C1545 C1537 1.433 . S
C1545 N1547 1.384 . S
N1546 C1542 1.427 . S
N1546 C1543 1.384 . S
N1547 C1539 1.427 . S
N1547 C1545 1.384 . S
H1548 C1554 0.930 . S
H1549 C1558 0.930 . S
H1550 C1563 0.929 . S
H1551 C1561 0.929 . S
H1552 C1556 0.929 . S
H1553 C1562 0.929 . S
C1554 H1548 0.930 . S
C1554 C1555 1.367 . S
C1554 C1562 1.378 . S
C1555 C1554 1.367 . S
C1555 C1563 1.433 . S
C1556 H1552 0.929 . S
C1556 C1558 1.378 . S
C1556 C1560 1.350 . S
C1557 C1560 1.463 . S
C1557 C1562 1.350 . S
C1557 N1565 1.427 . S
C1558 H1549 0.930 . S
C1558 C1556 1.378 . S
C1558 C1559 1.367 . S
C1559 C1558 1.367 . S
C1559 C1561 1.433 . S
C1560 C1556 1.350 . S
C1560 C1557 1.463 . S
C1560 N1564 1.427 . S
C1561 H1551 0.929 . S
C1561 C1559 1.433 . S
C1561 N1564 1.384 . S
C1562 H1553 0.929 . S
C1562 C1554 1.378 . S
C1562 C1557 1.350 . S
C1563 H1550 0.929 . S
C1563 C1555 1.433 . S
C1563 N1565 1.384 . S
N1564 C1560 1.427 . S
N1564 C1561 1.384 . S
N1565 C1557 1.427 . S
N1565 C1563 1.384 . S
H1566 C1572 0.930 . S
H1567 C1576 0.930 . S
H1568 C1581 0.929 . S
H1569 C1579 0.929 . S
H1570 C1574 0.929 . S
H1571 C1580 0.929 . S
C1572 H1566 0.930 . S
C1572 C1573 1.367 . S
C1572 C1580 1.378 . S
C1573 C1572 1.367 . S
C1573 C1581 1.433 . S
C1574 H1570 0.929 . S
C1574 C1576 1.378 . S
C1574 C1578 1.350 . S
C1575 C1578 1.463 . S
C1575 C1580 1.350 . S
C1575 N1583 1.427 . S
C1576 H1567 0.930 . S
C1576 C1574 1.378 . S
C1576 C1577 1.367 . S
C1577 C1576 1.367 . S
C1577 C1579 1.433 . S
C1578 C1574 1.350 . S
C1578 C1575 1.463 . S
C1578 N1582 1.427 . S
C1579 H1569 0.929 . S
C1579 C1577 1.433 . S
C1579 N1582 1.384 . S
C1580 H1571 0.929 . S
C1580 C1572 1.378 . S
C1580 C1575 1.350 . S
C1581 H1568 0.929 . S
C1581 C1573 1.433 . S
C1581 N1583 1.384 . S
N1582 C1578 1.427 . S
N1582 C1579 1.384 . S
N1583 C1575 1.427 . S
N1583 C1581 1.384 . S
H1584 C1590 0.930 . S
H1585 C1594 0.930 . S
H1586 C1599 0.929 . S
H1587 C1597 0.929 . S
H1588 C1592 0.929 . S
H1589 C1598 0.929 . S
C1590 H1584 0.930 . S
C1590 C1591 1.367 . S
C1590 C1598 1.378 . S
C1591 C1590 1.367 . S
C1591 C1599 1.433 . S
C1592 H1588 0.929 . S
C1592 C1594 1.378 . S
C1592 C1596 1.350 . S
C1593 C1596 1.463 . S
C1593 C1598 1.350 . S
C1593 N1601 1.427 . S
C1594 H1585 0.930 . S
C1594 C1592 1.378 . S
C1594 C1595 1.367 . S
C1595 C1594 1.367 . S
C1595 C1597 1.433 . S
C1596 C1592 1.350 . S
C1596 C1593 1.463 . S
C1596 N1600 1.427 . S
C1597 H1587 0.929 . S
C1597 C1595 1.433 . S
C1597 N1600 1.384 . S
C1598 H1589 0.929 . S
C1598 C1590 1.378 . S
C1598 C1593 1.350 . S
C1599 H1586 0.929 . S
C1599 C1591 1.433 . S
C1599 N1601 1.384 . S
N1600 C1596 1.427 . S
N1600 C1597 1.384 . S
N1601 C1593 1.427 . S
N1601 C1599 1.384 . S
H1602 C1608 0.930 . S
H1603 C1612 0.930 . S
H1604 C1617 0.929 . S
H1605 C1615 0.929 . S
H1606 C1610 0.929 . S
H1607 C1616 0.929 . S
C1608 H1602 0.930 . S
C1608 C1609 1.367 . S
C1608 C1616 1.378 . S
C1609 C1608 1.367 . S
C1609 C1617 1.433 . S
C1610 H1606 0.929 . S
C1610 C1612 1.378 . S
C1610 C1614 1.350 . S
C1611 C1614 1.463 . S
C1611 C1616 1.350 . S
C1611 N1619 1.427 . S
C1612 H1603 0.930 . S
C1612 C1610 1.378 . S
C1612 C1613 1.367 . S
C1613 C1612 1.367 . S
C1613 C1615 1.433 . S
C1614 C1610 1.350 . S
C1614 C1611 1.463 . S
C1614 N1618 1.427 . S
C1615 H1605 0.929 . S
C1615 C1613 1.433 . S
C1615 N1618 1.384 . S
C1616 H1607 0.929 . S
C1616 C1608 1.378 . S
C1616 C1611 1.350 . S
C1617 H1604 0.929 . S
C1617 C1609 1.433 . S
C1617 N1619 1.384 . S
N1618 C1614 1.427 . S
N1618 C1615 1.384 . S
N1619 C1611 1.427 . S
N1619 C1617 1.384 . S
H1620 C1626 0.930 . S
H1621 C1630 0.930 . S
H1622 C1635 0.929 . S
H1623 C1633 0.929 . S
H1624 C1628 0.929 . S
H1625 C1634 0.929 . S
C1626 H1620 0.930 . S
C1626 C1627 1.367 . S
C1626 C1634 1.378 . S
C1627 C1626 1.367 . S
C1627 C1635 1.433 . S
C1628 H1624 0.929 . S
C1628 C1630 1.378 . S
C1628 C1632 1.350 . S
C1629 C1632 1.463 . S
C1629 C1634 1.350 . S
C1629 N1637 1.427 . S
C1630 H1621 0.930 . S
C1630 C1628 1.378 . S
C1630 C1631 1.367 . S
C1631 C1630 1.367 . S
C1631 C1633 1.433 . S
C1632 C1628 1.350 . S
C1632 C1629 1.463 . S
C1632 N1636 1.427 . S
C1633 H1623 0.929 . S
C1633 C1631 1.433 . S
C1633 N1636 1.384 . S
C1634 H1625 0.929 . S
C1634 C1626 1.378 . S
C1634 C1629 1.350 . S
C1635 H1622 0.929 . S
C1635 C1627 1.433 . S
C1635 N1637 1.384 . S
N1636 C1632 1.427 . S
N1636 C1633 1.384 . S
N1637 C1629 1.427 . S
N1637 C1635 1.384 . S
H1638 C1644 0.930 . S
H1639 C1648 0.930 . S
H1640 C1653 0.929 . S
H1641 C1651 0.929 . S
H1642 C1646 0.929 . S
H1643 C1652 0.929 . S
C1644 H1638 0.930 . S
C1644 C1645 1.367 . S
C1644 C1652 1.378 . S
C1645 C1644 1.367 . S
C1645 C1653 1.433 . S
C1646 H1642 0.929 . S
C1646 C1648 1.378 . S
C1646 C1650 1.350 . S
C1647 C1650 1.463 . S
C1647 C1652 1.350 . S
C1647 N1655 1.427 . S
C1648 H1639 0.930 . S
C1648 C1646 1.378 . S
C1648 C1649 1.367 . S
C1649 C1648 1.367 . S
C1649 C1651 1.433 . S
C1650 C1646 1.350 . S
C1650 C1647 1.463 . S
C1650 N1654 1.427 . S
C1651 H1641 0.929 . S
C1651 C1649 1.433 . S
C1651 N1654 1.384 . S
C1652 H1643 0.929 . S
C1652 C1644 1.378 . S
C1652 C1647 1.350 . S
C1653 H1640 0.929 . S
C1653 C1645 1.433 . S
C1653 N1655 1.384 . S
N1654 C1650 1.427 . S
N1654 C1651 1.384 . S
N1655 C1647 1.427 . S
N1655 C1653 1.384 . S
H1656 C1662 0.930 . S
H1657 C1666 0.930 . S
H1658 C1671 0.929 . S
H1659 C1669 0.929 . S
H1660 C1664 0.929 . S
H1661 C1670 0.929 . S
C1662 H1656 0.930 . S
C1662 C1663 1.367 . S
C1662 C1670 1.378 . S
C1663 C1662 1.367 . S
C1663 C1671 1.433 . S
C1664 H1660 0.929 . S
C1664 C1666 1.378 . S
C1664 C1668 1.350 . S
C1665 C1668 1.463 . S
C1665 C1670 1.350 . S
C1665 N1673 1.427 . S
C1666 H1657 0.930 . S
C1666 C1664 1.378 . S
C1666 C1667 1.367 . S
C1667 C1666 1.367 . S
C1667 C1669 1.433 . S
C1668 C1664 1.350 . S
C1668 C1665 1.463 . S
C1668 N1672 1.427 . S
C1669 H1659 0.929 . S
C1669 C1667 1.433 . S
C1669 N1672 1.384 . S
C1670 H1661 0.929 . S
C1670 C1662 1.378 . S
C1670 C1665 1.350 . S
C1671 H1658 0.929 . S
C1671 C1663 1.433 . S
C1671 N1673 1.384 . S
N1672 C1668 1.427 . S
N1672 C1669 1.384 . S
N1673 C1665 1.427 . S
N1673 C1671 1.384 . S
H1674 C1680 0.930 . S
H1675 C1684 0.930 . S
H1676 C1689 0.929 . S
H1677 C1687 0.929 . S
H1678 C1682 0.929 . S
H1679 C1688 0.929 . S
C1680 H1674 0.930 . S
C1680 C1681 1.367 . S
C1680 C1688 1.378 . S
C1681 C1680 1.367 . S
C1681 C1689 1.433 . S
C1682 H1678 0.929 . S
C1682 C1684 1.378 . S
C1682 C1686 1.350 . S
C1683 C1686 1.463 . S
C1683 C1688 1.350 . S
C1683 N1691 1.427 . S
C1684 H1675 0.930 . S
C1684 C1682 1.378 . S
C1684 C1685 1.367 . S
C1685 C1684 1.367 . S
C1685 C1687 1.433 . S
C1686 C1682 1.350 . S
C1686 C1683 1.463 . S
C1686 N1690 1.427 . S
C1687 H1677 0.929 . S
C1687 C1685 1.433 . S
C1687 N1690 1.384 . S
C1688 H1679 0.929 . S
C1688 C1680 1.378 . S
C1688 C1683 1.350 . S
C1689 H1676 0.929 . S
C1689 C1681 1.433 . S
C1689 N1691 1.384 . S
N1690 C1686 1.427 . S
N1690 C1687 1.384 . S
N1691 C1683 1.427 . S
N1691 C1689 1.384 . S
H1692 C1698 0.930 . S
H1693 C1702 0.930 . S
H1694 C1707 0.929 . S
H1695 C1705 0.929 . S
H1696 C1700 0.929 . S
H1697 C1706 0.929 . S
C1698 H1692 0.930 . S
C1698 C1699 1.367 . S
C1698 C1706 1.378 . S
C1699 C1698 1.367 . S
C1699 C1707 1.433 . S
C1700 H1696 0.929 . S
C1700 C1702 1.378 . S
C1700 C1704 1.350 . S
C1701 C1704 1.463 . S
C1701 C1706 1.350 . S
C1701 N1709 1.427 . S
C1702 H1693 0.930 . S
C1702 C1700 1.378 . S
C1702 C1703 1.367 . S
C1703 C1702 1.367 . S
C1703 C1705 1.433 . S
C1704 C1700 1.350 . S
C1704 C1701 1.463 . S
C1704 N1708 1.427 . S
C1705 H1695 0.929 . S
C1705 C1703 1.433 . S
C1705 N1708 1.384 . S
C1706 H1697 0.929 . S
C1706 C1698 1.378 . S
C1706 C1701 1.350 . S
C1707 H1694 0.929 . S
C1707 C1699 1.433 . S
C1707 N1709 1.384 . S
N1708 C1704 1.427 . S
N1708 C1705 1.384 . S
N1709 C1701 1.427 . S
N1709 C1707 1.384 . S
H1710 C1716 0.930 . S
H1711 C1720 0.930 . S
H1712 C1725 0.929 . S
H1713 C1723 0.929 . S
H1714 C1718 0.929 . S
H1715 C1724 0.929 . S
C1716 H1710 0.930 . S
C1716 C1717 1.367 . S
C1716 C1724 1.378 . S
C1717 C1716 1.367 . S
C1717 C1725 1.433 . S
C1718 H1714 0.929 . S
C1718 C1720 1.378 . S
C1718 C1722 1.350 . S
C1719 C1722 1.463 . S
C1719 C1724 1.350 . S
C1719 N1727 1.427 . S
C1720 H1711 0.930 . S
C1720 C1718 1.378 . S
C1720 C1721 1.367 . S
C1721 C1720 1.367 . S
C1721 C1723 1.433 . S
C1722 C1718 1.350 . S
C1722 C1719 1.463 . S
C1722 N1726 1.427 . S
C1723 H1713 0.929 . S
C1723 C1721 1.433 . S
C1723 N1726 1.384 . S
C1724 H1715 0.929 . S
C1724 C1716 1.378 . S
C1724 C1719 1.350 . S
C1725 H1712 0.929 . S
C1725 C1717 1.433 . S
C1725 N1727 1.384 . S
N1726 C1722 1.427 . S
N1726 C1723 1.384 . S
N1727 C1719 1.427 . S
N1727 C1725 1.384 . S
H1728 C1734 0.930 . S
H1729 C1738 0.930 . S
H1730 C1743 0.929 . S
H1731 C1741 0.929 . S
H1732 C1736 0.929 . S
H1733 C1742 0.929 . S
C1734 H1728 0.930 . S
C1734 C1735 1.367 . S
C1734 C1742 1.378 . S
C1735 C1734 1.367 . S
C1735 C1743 1.433 . S
C1736 H1732 0.929 . S
C1736 C1738 1.378 . S
C1736 C1740 1.350 . S
C1737 C1740 1.463 . S
C1737 C1742 1.350 . S
C1737 N1745 1.427 . S
C1738 H1729 0.930 . S
C1738 C1736 1.378 . S
C1738 C1739 1.367 . S
C1739 C1738 1.367 . S
C1739 C1741 1.433 . S
C1740 C1736 1.350 . S
C1740 C1737 1.463 . S
C1740 N1744 1.427 . S
C1741 H1731 0.929 . S
C1741 C1739 1.433 . S
C1741 N1744 1.384 . S
C1742 H1733 0.929 . S
C1742 C1734 1.378 . S
C1742 C1737 1.350 . S
C1743 H1730 0.929 . S
C1743 C1735 1.433 . S
C1743 N1745 1.384 . S
N1744 C1740 1.427 . S
N1744 C1741 1.384 . S
N1745 C1737 1.427 . S
N1745 C1743 1.384 . S
H1746 C1752 0.930 . S
H1747 C1756 0.930 . S
H1748 C1761 0.929 . S
H1749 C1759 0.929 . S
H1750 C1754 0.929 . S
H1751 C1760 0.929 . S
C1752 H1746 0.930 . S
C1752 C1753 1.367 . S
C1752 C1760 1.378 . S
C1753 C1752 1.367 . S
C1753 C1761 1.433 . S
C1754 H1750 0.929 . S
C1754 C1756 1.378 . S
C1754 C1758 1.350 . S
C1755 C1758 1.463 . S
C1755 C1760 1.350 . S
C1755 N1763 1.427 . S
C1756 H1747 0.930 . S
C1756 C1754 1.378 . S
C1756 C1757 1.367 . S
C1757 C1756 1.367 . S
C1757 C1759 1.433 . S
C1758 C1754 1.350 . S
C1758 C1755 1.463 . S
C1758 N1762 1.427 . S
C1759 H1749 0.929 . S
C1759 C1757 1.433 . S
C1759 N1762 1.384 . S
C1760 H1751 0.929 . S
C1760 C1752 1.378 . S
C1760 C1755 1.350 . S
C1761 H1748 0.929 . S
C1761 C1753 1.433 . S
C1761 N1763 1.384 . S
N1762 C1758 1.427 . S
N1762 C1759 1.384 . S
N1763 C1755 1.427 . S
N1763 C1761 1.384 . S
H1764 C1770 0.930 . S
H1765 C1774 0.930 . S
H1766 C1779 0.929 . S
H1767 C1777 0.929 . S
H1768 C1772 0.929 . S
H1769 C1778 0.929 . S
C1770 H1764 0.930 . S
C1770 C1771 1.367 . S
C1770 C1778 1.378 . S
C1771 C1770 1.367 . S
C1771 C1779 1.433 . S
C1772 H1768 0.929 . S
C1772 C1774 1.378 . S
C1772 C1776 1.350 . S
C1773 C1776 1.463 . S
C1773 C1778 1.350 . S
C1773 N1781 1.427 . S
C1774 H1765 0.930 . S
C1774 C1772 1.378 . S
C1774 C1775 1.367 . S
C1775 C1774 1.367 . S
C1775 C1777 1.433 . S
C1776 C1772 1.350 . S
C1776 C1773 1.463 . S
C1776 N1780 1.427 . S
C1777 H1767 0.929 . S
C1777 C1775 1.433 . S
C1777 N1780 1.384 . S
C1778 H1769 0.929 . S
C1778 C1770 1.378 . S
C1778 C1773 1.350 . S
C1779 H1766 0.929 . S
C1779 C1771 1.433 . S
C1779 N1781 1.384 . S
N1780 C1776 1.427 . S
N1780 C1777 1.384 . S
N1781 C1773 1.427 . S
N1781 C1779 1.384 . S
H1782 C1788 0.930 . S
H1783 C1792 0.930 . S
H1784 C1797 0.929 . S
H1785 C1795 0.929 . S
H1786 C1790 0.929 . S
H1787 C1796 0.929 . S
C1788 H1782 0.930 . S
C1788 C1789 1.367 . S
C1788 C1796 1.378 . S
C1789 C1788 1.367 . S
C1789 C1797 1.433 . S
C1790 H1786 0.929 . S
C1790 C1792 1.378 . S
C1790 C1794 1.350 . S
C1791 C1794 1.463 . S
C1791 C1796 1.350 . S
C1791 N1799 1.427 . S
C1792 H1783 0.930 . S
C1792 C1790 1.378 . S
C1792 C1793 1.367 . S
C1793 C1792 1.367 . S
C1793 C1795 1.433 . S
C1794 C1790 1.350 . S
C1794 C1791 1.463 . S
C1794 N1798 1.427 . S
C1795 H1785 0.929 . S
C1795 C1793 1.433 . S
C1795 N1798 1.384 . S
C1796 H1787 0.929 . S
C1796 C1788 1.378 . S
C1796 C1791 1.350 . S
C1797 H1784 0.929 . S
C1797 C1789 1.433 . S
C1797 N1799 1.384 . S
N1798 C1794 1.427 . S
N1798 C1795 1.384 . S
N1799 C1791 1.427 . S
N1799 C1797 1.384 . S
H1800 C1806 0.930 . S
H1801 C1810 0.930 . S
H1802 C1815 0.929 . S
H1803 C1813 0.929 . S
H1804 C1808 0.929 . S
H1805 C1814 0.929 . S
C1806 H1800 0.930 . S
C1806 C1807 1.367 . S
C1806 C1814 1.378 . S
C1807 C1806 1.367 . S
C1807 C1815 1.433 . S
C1808 H1804 0.929 . S
C1808 C1810 1.378 . S
C1808 C1812 1.350 . S
C1809 C1812 1.463 . S
C1809 C1814 1.350 . S
C1809 N1817 1.427 . S
C1810 H1801 0.930 . S
C1810 C1808 1.378 . S
C1810 C1811 1.367 . S
C1811 C1810 1.367 . S
C1811 C1813 1.433 . S
C1812 C1808 1.350 . S
C1812 C1809 1.463 . S
C1812 N1816 1.427 . S
C1813 H1803 0.929 . S
C1813 C1811 1.433 . S
C1813 N1816 1.384 . S
C1814 H1805 0.929 . S
C1814 C1806 1.378 . S
C1814 C1809 1.350 . S
C1815 H1802 0.929 . S
C1815 C1807 1.433 . S
C1815 N1817 1.384 . S
N1816 C1812 1.427 . S
N1816 C1813 1.384 . S
N1817 C1809 1.427 . S
N1817 C1815 1.384 . S
H1818 C1824 0.930 . S
H1819 C1828 0.930 . S
H1820 C1833 0.929 . S
H1821 C1831 0.929 . S
H1822 C1826 0.929 . S
H1823 C1832 0.929 . S
C1824 H1818 0.930 . S
C1824 C1825 1.367 . S
C1824 C1832 1.378 . S
C1825 C1824 1.367 . S
C1825 C1833 1.433 . S
C1826 H1822 0.929 . S
C1826 C1828 1.378 . S
C1826 C1830 1.350 . S
C1827 C1830 1.463 . S
C1827 C1832 1.350 . S
C1827 N1835 1.427 . S
C1828 H1819 0.930 . S
C1828 C1826 1.378 . S
C1828 C1829 1.367 . S
C1829 C1828 1.367 . S
C1829 C1831 1.433 . S
C1830 C1826 1.350 . S
C1830 C1827 1.463 . S
C1830 N1834 1.427 . S
C1831 H1821 0.929 . S
C1831 C1829 1.433 . S
C1831 N1834 1.384 . S
C1832 H1823 0.929 . S
C1832 C1824 1.378 . S
C1832 C1827 1.350 . S
C1833 H1820 0.929 . S
C1833 C1825 1.433 . S
C1833 N1835 1.384 . S
N1834 C1830 1.427 . S
N1834 C1831 1.384 . S
N1835 C1827 1.427 . S
N1835 C1833 1.384 . S
H1836 C1842 0.930 . S
H1837 C1846 0.930 . S
H1838 C1851 0.929 . S
H1839 C1849 0.929 . S
H1840 C1844 0.929 . S
H1841 C1850 0.929 . S
C1842 H1836 0.930 . S
C1842 C1843 1.367 . S
C1842 C1850 1.378 . S
C1843 C1842 1.367 . S
C1843 C1851 1.433 . S
C1844 H1840 0.929 . S
C1844 C1846 1.378 . S
C1844 C1848 1.350 . S
C1845 C1848 1.463 . S
C1845 C1850 1.350 . S
C1845 N1853 1.427 . S
C1846 H1837 0.930 . S
C1846 C1844 1.378 . S
C1846 C1847 1.367 . S
C1847 C1846 1.367 . S
C1847 C1849 1.433 . S
C1848 C1844 1.350 . S
C1848 C1845 1.463 . S
C1848 N1852 1.427 . S
C1849 H1839 0.929 . S
C1849 C1847 1.433 . S
C1849 N1852 1.384 . S
C1850 H1841 0.929 . S
C1850 C1842 1.378 . S
C1850 C1845 1.350 . S
C1851 H1838 0.929 . S
C1851 C1843 1.433 . S
C1851 N1853 1.384 . S
N1852 C1848 1.427 . S
N1852 C1849 1.384 . S
N1853 C1845 1.427 . S
N1853 C1851 1.384 . S
H1854 C1860 0.930 . S
H1855 C1864 0.930 . S
H1856 C1869 0.929 . S
H1857 C1867 0.929 . S
H1858 C1862 0.929 . S
H1859 C1868 0.929 . S
C1860 H1854 0.930 . S
C1860 C1861 1.367 . S
C1860 C1868 1.378 . S
C1861 C1860 1.367 . S
C1861 C1869 1.433 . S
C1862 H1858 0.929 . S
C1862 C1864 1.378 . S
C1862 C1866 1.350 . S
C1863 C1866 1.463 . S
C1863 C1868 1.350 . S
C1863 N1871 1.427 . S
C1864 H1855 0.930 . S
C1864 C1862 1.378 . S
C1864 C1865 1.367 . S
C1865 C1864 1.367 . S
C1865 C1867 1.433 . S
C1866 C1862 1.350 . S
C1866 C1863 1.463 . S
C1866 N1870 1.427 . S
C1867 H1857 0.929 . S
C1867 C1865 1.433 . S
C1867 N1870 1.384 . S
C1868 H1859 0.929 . S
C1868 C1860 1.378 . S
C1868 C1863 1.350 . S
C1869 H1856 0.929 . S
C1869 C1861 1.433 . S
C1869 N1871 1.384 . S
N1870 C1866 1.427 . S
N1870 C1867 1.384 . S
N1871 C1863 1.427 . S
N1871 C1869 1.384 . S
H1872 C1878 0.930 . S
H1873 C1882 0.930 . S
H1874 C1887 0.929 . S
H1875 C1885 0.929 . S
H1876 C1880 0.929 . S
H1877 C1886 0.929 . S
C1878 H1872 0.930 . S
C1878 C1879 1.367 . S
C1878 C1886 1.378 . S
C1879 C1878 1.367 . S
C1879 C1887 1.433 . S
C1880 H1876 0.929 . S
C1880 C1882 1.378 . S
C1880 C1884 1.350 . S
C1881 C1884 1.463 . S
C1881 C1886 1.350 . S
C1881 N1889 1.427 . S
C1882 H1873 0.930 . S
C1882 C1880 1.378 . S
C1882 C1883 1.367 . S
C1883 C1882 1.367 . S
C1883 C1885 1.433 . S
C1884 C1880 1.350 . S
C1884 C1881 1.463 . S
C1884 N1888 1.427 . S
C1885 H1875 0.929 . S
C1885 C1883 1.433 . S
C1885 N1888 1.384 . S
C1886 H1877 0.929 . S
C1886 C1878 1.378 . S
C1886 C1881 1.350 . S
C1887 H1874 0.929 . S
C1887 C1879 1.433 . S
C1887 N1889 1.384 . S
N1888 C1884 1.427 . S
N1888 C1885 1.384 . S
N1889 C1881 1.427 . S
N1889 C1887 1.384 . S
H1890 C1896 0.930 . S
H1891 C1900 0.930 . S
H1892 C1905 0.929 . S
H1893 C1903 0.929 . S
H1894 C1898 0.929 . S
H1895 C1904 0.929 . S
C1896 H1890 0.930 . S
C1896 C1897 1.367 . S
C1896 C1904 1.378 . S
C1897 C1896 1.367 . S
C1897 C1905 1.433 . S
C1898 H1894 0.929 . S
C1898 C1900 1.378 . S
C1898 C1902 1.350 . S
C1899 C1902 1.463 . S
C1899 C1904 1.350 . S
C1899 N1907 1.427 . S
C1900 H1891 0.930 . S
C1900 C1898 1.378 . S
C1900 C1901 1.367 . S
C1901 C1900 1.367 . S
C1901 C1903 1.433 . S
C1902 C1898 1.350 . S
C1902 C1899 1.463 . S
C1902 N1906 1.427 . S
C1903 H1893 0.929 . S
C1903 C1901 1.433 . S
C1903 N1906 1.384 . S
C1904 H1895 0.929 . S
C1904 C1896 1.378 . S
C1904 C1899 1.350 . S
C1905 H1892 0.929 . S
C1905 C1897 1.433 . S
C1905 N1907 1.384 . S
N1906 C1902 1.427 . S
N1906 C1903 1.384 . S
N1907 C1899 1.427 . S
N1907 C1905 1.384 . S
H1908 C1914 0.930 . S
H1909 C1918 0.930 . S
H1910 C1923 0.929 . S
H1911 C1921 0.929 . S
H1912 C1916 0.929 . S
H1913 C1922 0.929 . S
C1914 H1908 0.930 . S
C1914 C1915 1.367 . S
C1914 C1922 1.378 . S
C1915 C1914 1.367 . S
C1915 C1923 1.433 . S
C1916 H1912 0.929 . S
C1916 C1918 1.378 . S
C1916 C1920 1.350 . S
C1917 C1920 1.463 . S
C1917 C1922 1.350 . S
C1917 N1925 1.427 . S
C1918 H1909 0.930 . S
C1918 C1916 1.378 . S
C1918 C1919 1.367 . S
C1919 C1918 1.367 . S
C1919 C1921 1.433 . S
C1920 C1916 1.350 . S
C1920 C1917 1.463 . S
C1920 N1924 1.427 . S
C1921 H1911 0.929 . S
C1921 C1919 1.433 . S
C1921 N1924 1.384 . S
C1922 H1913 0.929 . S
C1922 C1914 1.378 . S
C1922 C1917 1.350 . S
C1923 H1910 0.929 . S
C1923 C1915 1.433 . S
C1923 N1925 1.384 . S
N1924 C1920 1.427 . S
N1924 C1921 1.384 . S
N1925 C1917 1.427 . S
N1925 C1923 1.384 . S
H1926 C1932 0.930 . S
H1927 C1936 0.930 . S
H1928 C1941 0.929 . S
H1929 C1939 0.929 . S
H1930 C1934 0.929 . S
H1931 C1940 0.929 . S
C1932 H1926 0.930 . S
C1932 C1933 1.367 . S
C1932 C1940 1.378 . S
C1933 C1932 1.367 . S
C1933 C1941 1.433 . S
C1934 H1930 0.929 . S
C1934 C1936 1.378 . S
C1934 C1938 1.350 . S
C1935 C1938 1.463 . S
C1935 C1940 1.350 . S
C1935 N1943 1.427 . S
C1936 H1927 0.930 . S
C1936 C1934 1.378 . S
C1936 C1937 1.367 . S
C1937 C1936 1.367 . S
C1937 C1939 1.433 . S
C1938 C1934 1.350 . S
C1938 C1935 1.463 . S
C1938 N1942 1.427 . S
C1939 H1929 0.929 . S
C1939 C1937 1.433 . S
C1939 N1942 1.384 . S
C1940 H1931 0.929 . S
C1940 C1932 1.378 . S
C1940 C1935 1.350 . S
C1941 H1928 0.929 . S
C1941 C1933 1.433 . S
C1941 N1943 1.384 . S
N1942 C1938 1.427 . S
N1942 C1939 1.384 . S
N1943 C1935 1.427 . S
N1943 C1941 1.384 . S
H1944 C1950 0.930 . S
H1945 C1954 0.930 . S
H1946 C1959 0.929 . S
H1947 C1957 0.929 . S
H1948 C1952 0.929 . S
H1949 C1958 0.929 . S
C1950 H1944 0.930 . S
C1950 C1951 1.367 . S
C1950 C1958 1.378 . S
C1951 C1950 1.367 . S
C1951 C1959 1.433 . S
C1952 H1948 0.929 . S
C1952 C1954 1.378 . S
C1952 C1956 1.350 . S
C1953 C1956 1.463 . S
C1953 C1958 1.350 . S
C1953 N1961 1.427 . S
C1954 H1945 0.930 . S
C1954 C1952 1.378 . S
C1954 C1955 1.367 . S
C1955 C1954 1.367 . S
C1955 C1957 1.433 . S
C1956 C1952 1.350 . S
C1956 C1953 1.463 . S
C1956 N1960 1.427 . S
C1957 H1947 0.929 . S
C1957 C1955 1.433 . S
C1957 N1960 1.384 . S
C1958 H1949 0.929 . S
C1958 C1950 1.378 . S
C1958 C1953 1.350 . S
C1959 H1946 0.929 . S
C1959 C1951 1.433 . S
C1959 N1961 1.384 . S
N1960 C1956 1.427 . S
N1960 C1957 1.384 . S
N1961 C1953 1.427 . S
N1961 C1959 1.384 . S
H1962 C1968 0.930 . S
H1963 C1972 0.930 . S
H1964 C1977 0.929 . S
H1965 C1975 0.929 . S
H1966 C1970 0.929 . S
H1967 C1976 0.929 . S
C1968 H1962 0.930 . S
C1968 C1969 1.367 . S
C1968 C1976 1.378 . S
C1969 C1968 1.367 . S
C1969 C1977 1.433 . S
C1970 H1966 0.929 . S
C1970 C1972 1.378 . S
C1970 C1974 1.350 . S
C1971 C1974 1.463 1_565 S
C1971 C1976 1.350 . S
C1971 N1979 1.427 . S
C1972 H1963 0.930 . S
C1972 C1970 1.378 . S
C1972 C1973 1.367 . S
C1973 C1972 1.367 . S
C1973 C1975 1.433 . S
C1974 C1970 1.350 . S
C1974 C1971 1.463 1_545 S
C1974 N1978 1.427 . S
C1975 H1965 0.929 . S
C1975 C1973 1.433 . S
C1975 N1978 1.384 . S
C1976 H1967 0.929 . S
C1976 C1968 1.378 . S
C1976 C1971 1.350 . S
C1977 H1964 0.929 . S
C1977 C1969 1.433 . S
C1977 N1979 1.384 . S
N1978 C1974 1.427 . S
N1978 C1975 1.384 . S
N1979 C1971 1.427 . S
N1979 C1977 1.384 . S
H1980 C1986 0.930 . S
H1981 C1990 0.930 . S
H1982 C1995 0.929 . S
H1983 C1993 0.929 . S
H1984 C1988 0.929 . S
H1985 C1994 0.929 . S
C1986 H1980 0.930 . S
C1986 C1987 1.367 . S
C1986 C1994 1.378 . S
C1987 C1986 1.367 . S
C1987 C1995 1.433 . S
C1988 H1984 0.929 . S
C1988 C1990 1.378 . S
C1988 C1992 1.350 . S
C1989 C1992 1.463 1_655 S
C1989 C1994 1.350 . S
C1989 N1997 1.427 . S
C1990 H1981 0.930 . S
C1990 C1988 1.378 . S
C1990 C1991 1.367 . S
C1991 C1990 1.367 . S
C1991 C1993 1.433 . S
C1992 C1988 1.350 . S
C1992 C1989 1.463 1_455 S
C1992 N1996 1.427 . S
C1993 H1983 0.929 . S
C1993 C1991 1.433 . S
C1993 N1996 1.384 . S
C1994 H1985 0.929 . S
C1994 C1986 1.378 . S
C1994 C1989 1.350 . S
C1995 H1982 0.929 . S
C1995 C1987 1.433 . S
C1995 N1997 1.384 . S
N1996 C1992 1.427 . S
N1996 C1993 1.384 . S
N1997 C1989 1.427 . S
N1997 C1995 1.384 . S
H1998 C2004 0.930 . S
H1999 C2008 0.930 . S
H2000 C2013 0.929 . S
H2001 C2011 0.929 . S
H2002 C2006 0.929 . S
H2003 C2012 0.929 . S
C2004 H1998 0.930 . S
C2004 C2005 1.367 . S
C2004 C2012 1.378 . S
C2005 C2004 1.367 . S
C2005 C2013 1.433 . S
C2006 H2002 0.929 . S
C2006 C2008 1.378 . S
C2006 C2010 1.350 . S
C2007 C2010 1.463 . S
C2007 C2012 1.350 . S
C2007 N2015 1.427 . S
C2008 H1999 0.930 . S
C2008 C2006 1.378 . S
C2008 C2009 1.367 . S
C2009 C2008 1.367 . S
C2009 C2011 1.433 . S
C2010 C2006 1.350 . S
C2010 C2007 1.463 . S
C2010 N2014 1.427 . S
C2011 H2001 0.929 . S
C2011 C2009 1.433 . S
C2011 N2014 1.384 . S
C2012 H2003 0.929 . S
C2012 C2004 1.378 . S
C2012 C2007 1.350 . S
C2013 H2000 0.929 . S
C2013 C2005 1.433 . S
C2013 N2015 1.384 . S
N2014 C2010 1.427 . S
N2014 C2011 1.384 . S
N2015 C2007 1.427 . S
N2015 C2013 1.384 . S
H2016 C2022 0.930 . S
H2017 C2026 0.930 . S
H2018 C2031 0.929 . S
H2019 C2029 0.929 . S
H2020 C2024 0.929 . S
H2021 C2030 0.929 . S
C2022 H2016 0.930 . S
C2022 C2023 1.367 . S
C2022 C2030 1.378 . S
C2023 C2022 1.367 . S
C2023 C2031 1.433 . S
C2024 H2020 0.929 . S
C2024 C2026 1.378 . S
C2024 C2028 1.350 . S
C2025 C2028 1.463 1_545 S
C2025 C2030 1.350 . S
C2025 N2033 1.427 . S
C2026 H2017 0.930 . S
C2026 C2024 1.378 . S
C2026 C2027 1.367 . S
C2027 C2026 1.367 . S
C2027 C2029 1.433 . S
C2028 C2024 1.350 . S
C2028 C2025 1.463 1_565 S
C2028 N2032 1.427 . S
C2029 H2019 0.929 . S
C2029 C2027 1.433 . S
C2029 N2032 1.384 . S
C2030 H2021 0.929 . S
C2030 C2022 1.378 . S
C2030 C2025 1.350 . S
C2031 H2018 0.929 . S
C2031 C2023 1.433 . S
C2031 N2033 1.384 . S
N2032 C2028 1.427 . S
N2032 C2029 1.384 . S
N2033 C2025 1.427 . S
N2033 C2031 1.384 . S
H2034 C2040 0.930 . S
H2035 C2044 0.930 . S
H2036 C2049 0.929 . S
H2037 C2047 0.929 . S
H2038 C2042 0.929 . S
H2039 C2048 0.929 . S
C2040 H2034 0.930 . S
C2040 C2041 1.367 . S
C2040 C2048 1.378 . S
C2041 C2040 1.367 . S
C2041 C2049 1.433 . S
C2042 H2038 0.929 . S
C2042 C2044 1.378 . S
C2042 C2046 1.350 . S
C2043 C2046 1.463 1_655 S
C2043 C2048 1.350 . S
C2043 N2051 1.427 . S
C2044 H2035 0.930 . S
C2044 C2042 1.378 . S
C2044 C2045 1.367 . S
C2045 C2044 1.367 . S
C2045 C2047 1.433 . S
C2046 C2042 1.350 . S
C2046 C2043 1.463 1_455 S
C2046 N2050 1.427 . S
C2047 H2037 0.929 . S
C2047 C2045 1.433 . S
C2047 N2050 1.384 . S
C2048 H2039 0.929 . S
C2048 C2040 1.378 . S
C2048 C2043 1.350 . S
C2049 H2036 0.929 . S
C2049 C2041 1.433 . S
C2049 N2051 1.384 . S
N2050 C2046 1.427 . S
N2050 C2047 1.384 . S
N2051 C2043 1.427 . S
N2051 C2049 1.384 . S
H2052 C2058 0.930 . S
H2053 C2062 0.930 . S
H2054 C2067 0.929 . S
H2055 C2065 0.929 . S
H2056 C2060 0.929 . S
H2057 C2066 0.929 . S
C2058 H2052 0.930 . S
C2058 C2059 1.367 . S
C2058 C2066 1.378 . S
C2059 C2058 1.367 . S
C2059 C2067 1.433 . S
C2060 H2056 0.929 . S
C2060 C2062 1.378 . S
C2060 C2064 1.350 . S
C2061 C2064 1.463 . S
C2061 C2066 1.350 . S
C2061 N2069 1.427 . S
C2062 H2053 0.930 . S
C2062 C2060 1.378 . S
C2062 C2063 1.367 . S
C2063 C2062 1.367 . S
C2063 C2065 1.433 . S
C2064 C2060 1.350 . S
C2064 C2061 1.463 . S
C2064 N2068 1.427 . S
C2065 H2055 0.929 . S
C2065 C2063 1.433 . S
C2065 N2068 1.384 . S
C2066 H2057 0.929 . S
C2066 C2058 1.378 . S
C2066 C2061 1.350 . S
C2067 H2054 0.929 . S
C2067 C2059 1.433 . S
C2067 N2069 1.384 . S
N2068 C2064 1.427 . S
N2068 C2065 1.384 . S
N2069 C2061 1.427 . S
N2069 C2067 1.384 . S
H2070 C2076 0.930 . S
H2071 C2080 0.930 . S
H2072 C2085 0.929 . S
H2073 C2083 0.929 . S
H2074 C2078 0.929 . S
H2075 C2084 0.929 . S
C2076 H2070 0.930 . S
C2076 C2077 1.367 . S
C2076 C2084 1.378 . S
C2077 C2076 1.367 . S
C2077 C2085 1.433 . S
C2078 H2074 0.929 . S
C2078 C2080 1.378 . S
C2078 C2082 1.350 . S
C2079 C2082 1.463 . S
C2079 C2084 1.350 . S
C2079 N2087 1.427 . S
C2080 H2071 0.930 . S
C2080 C2078 1.378 . S
C2080 C2081 1.367 . S
C2081 C2080 1.367 . S
C2081 C2083 1.433 . S
C2082 C2078 1.350 . S
C2082 C2079 1.463 . S
C2082 N2086 1.427 . S
C2083 H2073 0.929 . S
C2083 C2081 1.433 . S
C2083 N2086 1.384 . S
C2084 H2075 0.929 . S
C2084 C2076 1.378 . S
C2084 C2079 1.350 . S
C2085 H2072 0.929 . S
C2085 C2077 1.433 . S
C2085 N2087 1.384 . S
N2086 C2082 1.427 . S
N2086 C2083 1.384 . S
N2087 C2079 1.427 . S
N2087 C2085 1.384 . S
H2088 C2094 0.930 . S
H2089 C2098 0.930 . S
H2090 C2103 0.929 . S
H2091 C2101 0.929 . S
H2092 C2096 0.929 . S
H2093 C2102 0.929 . S
C2094 H2088 0.930 . S
C2094 C2095 1.367 . S
C2094 C2102 1.378 . S
C2095 C2094 1.367 . S
C2095 C2103 1.433 . S
C2096 H2092 0.929 . S
C2096 C2098 1.378 . S
C2096 C2100 1.350 . S
C2097 C2100 1.463 . S
C2097 C2102 1.350 . S
C2097 N2105 1.427 . S
C2098 H2089 0.930 . S
C2098 C2096 1.378 . S
C2098 C2099 1.367 . S
C2099 C2098 1.367 . S
C2099 C2101 1.433 . S
C2100 C2096 1.350 . S
C2100 C2097 1.463 . S
C2100 N2104 1.427 . S
C2101 H2091 0.929 . S
C2101 C2099 1.433 . S
C2101 N2104 1.384 . S
C2102 H2093 0.929 . S
C2102 C2094 1.378 . S
C2102 C2097 1.350 . S
C2103 H2090 0.929 . S
C2103 C2095 1.433 . S
C2103 N2105 1.384 . S
N2104 C2100 1.427 . S
N2104 C2101 1.384 . S
N2105 C2097 1.427 . S
N2105 C2103 1.384 . S
H2106 C2112 0.930 1_556 S
H2107 C2116 0.930 . S
H2108 C2121 0.929 . S
H2109 C2119 0.929 . S
H2110 C2114 0.929 . S
H2111 C2120 0.929 . S
C2112 H2106 0.930 1_554 S
C2112 C2113 1.367 . S
C2112 C2120 1.378 . S
C2113 C2112 1.367 . S
C2113 C2121 1.433 . S
C2114 H2110 0.929 . S
C2114 C2116 1.378 . S
C2114 C2118 1.350 . S
C2115 C2118 1.463 . S
C2115 C2120 1.350 . S
C2115 N2123 1.427 . S
C2116 H2107 0.930 . S
C2116 C2114 1.378 . S
C2116 C2117 1.367 . S
C2117 C2116 1.367 . S
C2117 C2119 1.433 . S
C2118 C2114 1.350 . S
C2118 C2115 1.463 . S
C2118 N2122 1.427 . S
C2119 H2109 0.929 . S
C2119 C2117 1.433 . S
C2119 N2122 1.384 . S
C2120 H2111 0.929 . S
C2120 C2112 1.378 . S
C2120 C2115 1.350 . S
C2121 H2108 0.929 . S
C2121 C2113 1.433 . S
C2121 N2123 1.384 . S
N2122 C2118 1.427 . S
N2122 C2119 1.384 . S
N2123 C2115 1.427 . S
N2123 C2121 1.384 . S
H2124 C2130 0.930 . S
H2125 C2134 0.930 . S
H2126 C2139 0.929 1_556 S
H2127 C2137 0.929 . S
H2128 C2132 0.929 . S
H2129 C2138 0.929 . S
C2130 H2124 0.930 . S
C2130 C2131 1.367 . S
C2130 C2138 1.378 . S
C2131 C2130 1.367 . S
C2131 C2139 1.433 . S
C2132 H2128 0.929 . S
C2132 C2134 1.378 . S
C2132 C2136 1.350 . S
C2133 C2136 1.463 . S
C2133 C2138 1.350 . S
C2133 N2141 1.427 . S
C2134 H2125 0.930 . S
C2134 C2132 1.378 . S
C2134 C2135 1.367 . S
C2135 C2134 1.367 . S
C2135 C2137 1.433 . S
C2136 C2132 1.350 . S
C2136 C2133 1.463 . S
C2136 N2140 1.427 . S
C2137 H2127 0.929 . S
C2137 C2135 1.433 . S
C2137 N2140 1.384 . S
C2138 H2129 0.929 . S
C2138 C2130 1.378 . S
C2138 C2133 1.350 . S
C2139 H2126 0.929 1_554 S
C2139 C2131 1.433 . S
C2139 N2141 1.384 . S
N2140 C2136 1.427 . S
N2140 C2137 1.384 . S
N2141 C2133 1.427 . S
N2141 C2139 1.384 . S
H2142 C2148 0.930 . S
H2143 C2152 0.930 . S
H2144 C2157 0.929 . S
H2145 C2155 0.929 . S
H2146 C2150 0.929 . S
H2147 C2156 0.929 . S
C2148 H2142 0.930 . S
C2148 C2149 1.367 . S
C2148 C2156 1.378 . S
C2149 C2148 1.367 . S
C2149 C2157 1.433 . S
C2150 H2146 0.929 . S
C2150 C2152 1.378 . S
C2150 C2154 1.350 . S
C2151 C2154 1.463 . S
C2151 C2156 1.350 . S
C2151 N2159 1.427 . S
C2152 H2143 0.930 . S
C2152 C2150 1.378 . S
C2152 C2153 1.367 . S
C2153 C2152 1.367 . S
C2153 C2155 1.433 . S
C2154 C2150 1.350 . S
C2154 C2151 1.463 . S
C2154 N2158 1.427 . S
C2155 H2145 0.929 . S
C2155 C2153 1.433 . S
C2155 N2158 1.384 . S
C2156 H2147 0.929 . S
C2156 C2148 1.378 . S
C2156 C2151 1.350 . S
C2157 H2144 0.929 . S
C2157 C2149 1.433 . S
C2157 N2159 1.384 . S
N2158 C2154 1.427 . S
N2158 C2155 1.384 . S
N2159 C2151 1.427 . S
N2159 C2157 1.384 . S
H2160 C2166 0.930 . S
H2161 C2170 0.930 . S
H2162 C2175 0.929 . S
H2163 C2173 0.929 . S
H2164 C2168 0.929 . S
H2165 C2174 0.929 . S
C2166 H2160 0.930 . S
C2166 C2167 1.367 . S
C2166 C2174 1.378 . S
C2167 C2166 1.367 . S
C2167 C2175 1.433 . S
C2168 H2164 0.929 . S
C2168 C2170 1.378 . S
C2168 C2172 1.350 . S
C2169 C2172 1.463 . S
C2169 C2174 1.350 . S
C2169 N2177 1.427 . S
C2170 H2161 0.930 . S
C2170 C2168 1.378 . S
C2170 C2171 1.367 . S
C2171 C2170 1.367 . S
C2171 C2173 1.433 . S
C2172 C2168 1.350 . S
C2172 C2169 1.463 . S
C2172 N2176 1.427 . S
C2173 H2163 0.929 . S
C2173 C2171 1.433 . S
C2173 N2176 1.384 . S
C2174 H2165 0.929 . S
C2174 C2166 1.378 . S
C2174 C2169 1.350 . S
C2175 H2162 0.929 . S
C2175 C2167 1.433 . S
C2175 N2177 1.384 . S
N2176 C2172 1.427 . S
N2176 C2173 1.384 . S
N2177 C2169 1.427 . S
N2177 C2175 1.384 . S
H2178 C2184 0.930 . S
H2179 C2188 0.930 . S
H2180 C2193 0.929 . S
H2181 C2191 0.929 . S
H2182 C2186 0.929 . S
H2183 C2192 0.929 . S
C2184 H2178 0.930 . S
C2184 C2185 1.367 . S
C2184 C2192 1.378 . S
C2185 C2184 1.367 . S
C2185 C2193 1.433 . S
C2186 H2182 0.929 . S
C2186 C2188 1.378 . S
C2186 C2190 1.350 . S
C2187 C2190 1.463 . S
C2187 C2192 1.350 . S
C2187 N2195 1.427 . S
C2188 H2179 0.930 . S
C2188 C2186 1.378 . S
C2188 C2189 1.367 . S
C2189 C2188 1.367 . S
C2189 C2191 1.433 . S
C2190 C2186 1.350 . S
C2190 C2187 1.463 . S
C2190 N2194 1.427 . S
C2191 H2181 0.929 . S
C2191 C2189 1.433 . S
C2191 N2194 1.384 . S
C2192 H2183 0.929 . S
C2192 C2184 1.378 . S
C2192 C2187 1.350 . S
C2193 H2180 0.929 . S
C2193 C2185 1.433 . S
C2193 N2195 1.384 . S
N2194 C2190 1.427 . S
N2194 C2191 1.384 . S
N2195 C2187 1.427 . S
N2195 C2193 1.384 . S
H2196 C2202 0.930 . S
H2197 C2206 0.930 . S
H2198 C2211 0.929 . S
H2199 C2209 0.929 . S
H2200 C2204 0.929 . S
H2201 C2210 0.929 . S
C2202 H2196 0.930 . S
C2202 C2203 1.367 . S
C2202 C2210 1.378 . S
C2203 C2202 1.367 . S
C2203 C2211 1.433 . S
C2204 H2200 0.929 . S
C2204 C2206 1.378 . S
C2204 C2208 1.350 . S
C2205 C2208 1.463 . S
C2205 C2210 1.350 . S
C2205 N2213 1.427 . S
C2206 H2197 0.930 . S
C2206 C2204 1.378 . S
C2206 C2207 1.367 . S
C2207 C2206 1.367 . S
C2207 C2209 1.433 . S
C2208 C2204 1.350 . S
C2208 C2205 1.463 . S
C2208 N2212 1.427 . S
C2209 H2199 0.929 . S
C2209 C2207 1.433 . S
C2209 N2212 1.384 . S
C2210 H2201 0.929 . S
C2210 C2202 1.378 . S
C2210 C2205 1.350 . S
C2211 H2198 0.929 . S
C2211 C2203 1.433 . S
C2211 N2213 1.384 . S
N2212 C2208 1.427 . S
N2212 C2209 1.384 . S
N2213 C2205 1.427 . S
N2213 C2211 1.384 . S
H2214 C2220 0.930 . S
H2215 C2224 0.930 . S
H2216 C2229 0.929 . S
H2217 C2227 0.929 . S
H2218 C2222 0.929 . S
H2219 C2228 0.929 . S
C2220 H2214 0.930 . S
C2220 C2221 1.367 . S
C2220 C2228 1.378 . S
C2221 C2220 1.367 . S
C2221 C2229 1.433 . S
C2222 H2218 0.929 . S
C2222 C2224 1.378 . S
C2222 C2226 1.350 . S
C2223 C2226 1.463 . S
C2223 C2228 1.350 . S
C2223 N2231 1.427 . S
C2224 H2215 0.930 . S
C2224 C2222 1.378 . S
C2224 C2225 1.367 . S
C2225 C2224 1.367 . S
C2225 C2227 1.433 . S
C2226 C2222 1.350 . S
C2226 C2223 1.463 . S
C2226 N2230 1.427 . S
C2227 H2217 0.929 . S
C2227 C2225 1.433 . S
C2227 N2230 1.384 . S
C2228 H2219 0.929 . S
C2228 C2220 1.378 . S
C2228 C2223 1.350 . S
C2229 H2216 0.929 . S
C2229 C2221 1.433 . S
C2229 N2231 1.384 . S
N2230 C2226 1.427 . S
N2230 C2227 1.384 . S
N2231 C2223 1.427 . S
N2231 C2229 1.384 . S
H2232 C2238 0.930 . S
H2233 C2242 0.930 . S
H2234 C2247 0.929 . S
H2235 C2245 0.929 . S
H2236 C2240 0.929 . S
H2237 C2246 0.929 . S
C2238 H2232 0.930 . S
C2238 C2239 1.367 . S
C2238 C2246 1.378 . S
C2239 C2238 1.367 . S
C2239 C2247 1.433 . S
C2240 H2236 0.929 . S
C2240 C2242 1.378 . S
C2240 C2244 1.350 . S
C2241 C2244 1.463 . S
C2241 C2246 1.350 . S
C2241 N2249 1.427 . S
C2242 H2233 0.930 . S
C2242 C2240 1.378 . S
C2242 C2243 1.367 . S
C2243 C2242 1.367 . S
C2243 C2245 1.433 . S
C2244 C2240 1.350 . S
C2244 C2241 1.463 . S
C2244 N2248 1.427 . S
C2245 H2235 0.929 . S
C2245 C2243 1.433 . S
C2245 N2248 1.384 . S
C2246 H2237 0.929 . S
C2246 C2238 1.378 . S
C2246 C2241 1.350 . S
C2247 H2234 0.929 . S
C2247 C2239 1.433 . S
C2247 N2249 1.384 . S
N2248 C2244 1.427 . S
N2248 C2245 1.384 . S
N2249 C2241 1.427 . S
N2249 C2247 1.384 . S
H2250 C2256 0.930 . S
H2251 C2260 0.930 . S
H2252 C2265 0.929 . S
H2253 C2263 0.929 . S
H2254 C2258 0.929 . S
H2255 C2264 0.929 . S
C2256 H2250 0.930 . S
C2256 C2257 1.367 . S
C2256 C2264 1.378 . S
C2257 C2256 1.367 . S
C2257 C2265 1.433 . S
C2258 H2254 0.929 . S
C2258 C2260 1.378 . S
C2258 C2262 1.350 . S
C2259 C2262 1.463 . S
C2259 C2264 1.350 . S
C2259 N2267 1.427 . S
C2260 H2251 0.930 . S
C2260 C2258 1.378 . S
C2260 C2261 1.367 . S
C2261 C2260 1.367 . S
C2261 C2263 1.433 . S
C2262 C2258 1.350 . S
C2262 C2259 1.463 . S
C2262 N2266 1.427 . S
C2263 H2253 0.929 . S
C2263 C2261 1.433 . S
C2263 N2266 1.384 . S
C2264 H2255 0.929 . S
C2264 C2256 1.378 . S
C2264 C2259 1.350 . S
C2265 H2252 0.929 . S
C2265 C2257 1.433 . S
C2265 N2267 1.384 . S
N2266 C2262 1.427 . S
N2266 C2263 1.384 . S
N2267 C2259 1.427 . S
N2267 C2265 1.384 . S
H2268 C2274 0.930 . S
H2269 C2278 0.930 . S
H2270 C2283 0.929 . S
H2271 C2281 0.929 . S
H2272 C2276 0.929 . S
H2273 C2282 0.929 . S
C2274 H2268 0.930 . S
C2274 C2275 1.367 . S
C2274 C2282 1.378 . S
C2275 C2274 1.367 . S
C2275 C2283 1.433 . S
C2276 H2272 0.929 . S
C2276 C2278 1.378 . S
C2276 C2280 1.350 . S
C2277 C2280 1.463 . S
C2277 C2282 1.350 . S
C2277 N2285 1.427 . S
C2278 H2269 0.930 . S
C2278 C2276 1.378 . S
C2278 C2279 1.367 . S
C2279 C2278 1.367 . S
C2279 C2281 1.433 . S
C2280 C2276 1.350 . S
C2280 C2277 1.463 . S
C2280 N2284 1.427 . S
C2281 H2271 0.929 . S
C2281 C2279 1.433 . S
C2281 N2284 1.384 . S
C2282 H2273 0.929 . S
C2282 C2274 1.378 . S
C2282 C2277 1.350 . S
C2283 H2270 0.929 . S
C2283 C2275 1.433 . S
C2283 N2285 1.384 . S
N2284 C2280 1.427 . S
N2284 C2281 1.384 . S
N2285 C2277 1.427 . S
N2285 C2283 1.384 . S
H2286 C2292 0.930 . S
H2287 C2296 0.930 . S
H2288 C2301 0.929 . S
H2289 C2299 0.929 . S
H2290 C2294 0.929 . S
H2291 C2300 0.929 . S
C2292 H2286 0.930 . S
C2292 C2293 1.367 . S
C2292 C2300 1.378 . S
C2293 C2292 1.367 . S
C2293 C2301 1.433 . S
C2294 H2290 0.929 . S
C2294 C2296 1.378 . S
C2294 C2298 1.350 . S
C2295 C2298 1.463 . S
C2295 C2300 1.350 . S
C2295 N2303 1.427 . S
C2296 H2287 0.930 . S
C2296 C2294 1.378 . S
C2296 C2297 1.367 . S
C2297 C2296 1.367 . S
C2297 C2299 1.433 . S
C2298 C2294 1.350 . S
C2298 C2295 1.463 . S
C2298 N2302 1.427 . S
C2299 H2289 0.929 . S
C2299 C2297 1.433 . S
C2299 N2302 1.384 . S
C2300 H2291 0.929 . S
C2300 C2292 1.378 . S
C2300 C2295 1.350 . S
C2301 H2288 0.929 . S
C2301 C2293 1.433 . S
C2301 N2303 1.384 . S
N2302 C2298 1.427 . S
N2302 C2299 1.384 . S
N2303 C2295 1.427 . S
N2303 C2301 1.384 . S
H2304 C2310 0.930 . S
H2305 C2314 0.930 . S
H2306 C2319 0.929 . S
H2307 C2317 0.929 . S
H2308 C2312 0.929 . S
H2309 C2318 0.929 . S
C2310 H2304 0.930 . S
C2310 C2311 1.367 . S
C2310 C2318 1.378 . S
C2311 C2310 1.367 . S
C2311 C2319 1.433 . S
C2312 H2308 0.929 . S
C2312 C2314 1.378 . S
C2312 C2316 1.350 . S
C2313 C2316 1.463 . S
C2313 C2318 1.350 . S
C2313 N2321 1.427 . S
C2314 H2305 0.930 . S
C2314 C2312 1.378 . S
C2314 C2315 1.367 . S
C2315 C2314 1.367 . S
C2315 C2317 1.433 . S
C2316 C2312 1.350 . S
C2316 C2313 1.463 . S
C2316 N2320 1.427 . S
C2317 H2307 0.929 . S
C2317 C2315 1.433 . S
C2317 N2320 1.384 . S
C2318 H2309 0.929 . S
C2318 C2310 1.378 . S
C2318 C2313 1.350 . S
C2319 H2306 0.929 . S
C2319 C2311 1.433 . S
C2319 N2321 1.384 . S
N2320 C2316 1.427 . S
N2320 C2317 1.384 . S
N2321 C2313 1.427 . S
N2321 C2319 1.384 . S
H2322 C2328 0.930 . S
H2323 C2332 0.930 . S
H2324 C2337 0.929 . S
H2325 C2335 0.929 . S
H2326 C2330 0.929 . S
H2327 C2336 0.929 . S
C2328 H2322 0.930 . S
C2328 C2329 1.367 . S
C2328 C2336 1.378 . S
C2329 C2328 1.367 . S
C2329 C2337 1.433 . S
C2330 H2326 0.929 . S
C2330 C2332 1.378 . S
C2330 C2334 1.350 . S
C2331 C2334 1.463 . S
C2331 C2336 1.350 . S
C2331 N2339 1.427 . S
C2332 H2323 0.930 . S
C2332 C2330 1.378 . S
C2332 C2333 1.367 . S
C2333 C2332 1.367 . S
C2333 C2335 1.433 . S
C2334 C2330 1.350 . S
C2334 C2331 1.463 . S
C2334 N2338 1.427 . S
C2335 H2325 0.929 . S
C2335 C2333 1.433 . S
C2335 N2338 1.384 . S
C2336 H2327 0.929 . S
C2336 C2328 1.378 . S
C2336 C2331 1.350 . S
C2337 H2324 0.929 . S
C2337 C2329 1.433 . S
C2337 N2339 1.384 . S
N2338 C2334 1.427 . S
N2338 C2335 1.384 . S
N2339 C2331 1.427 . S
N2339 C2337 1.384 . S
H2340 C2346 0.930 . S
H2341 C2350 0.930 . S
H2342 C2355 0.929 . S
H2343 C2353 0.929 . S
H2344 C2348 0.929 . S
H2345 C2354 0.929 . S
C2346 H2340 0.930 . S
C2346 C2347 1.367 . S
C2346 C2354 1.378 . S
C2347 C2346 1.367 . S
C2347 C2355 1.433 . S
C2348 H2344 0.929 . S
C2348 C2350 1.378 . S
C2348 C2352 1.350 . S
C2349 C2352 1.463 . S
C2349 C2354 1.350 . S
C2349 N2357 1.427 . S
C2350 H2341 0.930 . S
C2350 C2348 1.378 . S
C2350 C2351 1.367 . S
C2351 C2350 1.367 . S
C2351 C2353 1.433 . S
C2352 C2348 1.350 . S
C2352 C2349 1.463 . S
C2352 N2356 1.427 . S
C2353 H2343 0.929 . S
C2353 C2351 1.433 . S
C2353 N2356 1.384 . S
C2354 H2345 0.929 . S
C2354 C2346 1.378 . S
C2354 C2349 1.350 . S
C2355 H2342 0.929 . S
C2355 C2347 1.433 . S
C2355 N2357 1.384 . S
N2356 C2352 1.427 . S
N2356 C2353 1.384 . S
N2357 C2349 1.427 . S
N2357 C2355 1.384 . S
H2358 C2364 0.930 . S
H2359 C2368 0.930 . S
H2360 C2373 0.929 . S
H2361 C2371 0.929 . S
H2362 C2366 0.929 . S
H2363 C2372 0.929 . S
C2364 H2358 0.930 . S
C2364 C2365 1.367 . S
C2364 C2372 1.378 . S
C2365 C2364 1.367 . S
C2365 C2373 1.433 . S
C2366 H2362 0.929 . S
C2366 C2368 1.378 . S
C2366 C2370 1.350 . S
C2367 C2370 1.463 . S
C2367 C2372 1.350 . S
C2367 N2375 1.427 . S
C2368 H2359 0.930 . S
C2368 C2366 1.378 . S
C2368 C2369 1.367 . S
C2369 C2368 1.367 . S
C2369 C2371 1.433 . S
C2370 C2366 1.350 . S
C2370 C2367 1.463 . S
C2370 N2374 1.427 . S
C2371 H2361 0.929 . S
C2371 C2369 1.433 . S
C2371 N2374 1.384 . S
C2372 H2363 0.929 . S
C2372 C2364 1.378 . S
C2372 C2367 1.350 . S
C2373 H2360 0.929 . S
C2373 C2365 1.433 . S
C2373 N2375 1.384 . S
N2374 C2370 1.427 . S
N2374 C2371 1.384 . S
N2375 C2367 1.427 . S
N2375 C2373 1.384 . S
H2376 C2382 0.930 . S
H2377 C2386 0.930 . S
H2378 C2391 0.929 . S
H2379 C2389 0.929 . S
H2380 C2384 0.929 . S
H2381 C2390 0.929 . S
C2382 H2376 0.930 . S
C2382 C2383 1.367 . S
C2382 C2390 1.378 . S
C2383 C2382 1.367 . S
C2383 C2391 1.433 . S
C2384 H2380 0.929 . S
C2384 C2386 1.378 . S
C2384 C2388 1.350 . S
C2385 C2388 1.463 . S
C2385 C2390 1.350 . S
C2385 N2393 1.427 . S
C2386 H2377 0.930 . S
C2386 C2384 1.378 . S
C2386 C2387 1.367 . S
C2387 C2386 1.367 . S
C2387 C2389 1.433 . S
C2388 C2384 1.350 . S
C2388 C2385 1.463 . S
C2388 N2392 1.427 . S
C2389 H2379 0.929 . S
C2389 C2387 1.433 . S
C2389 N2392 1.384 . S
C2390 H2381 0.929 . S
C2390 C2382 1.378 . S
C2390 C2385 1.350 . S
C2391 H2378 0.929 . S
C2391 C2383 1.433 . S
C2391 N2393 1.384 . S
N2392 C2388 1.427 . S
N2392 C2389 1.384 . S
N2393 C2385 1.427 . S
N2393 C2391 1.384 . S
H2394 C2400 0.930 . S
H2395 C2404 0.930 . S
H2396 C2409 0.929 . S
H2397 C2407 0.929 . S
H2398 C2402 0.929 . S
H2399 C2408 0.929 . S
C2400 H2394 0.930 . S
C2400 C2401 1.367 . S
C2400 C2408 1.378 . S
C2401 C2400 1.367 . S
C2401 C2409 1.433 . S
C2402 H2398 0.929 . S
C2402 C2404 1.378 . S
C2402 C2406 1.350 . S
C2403 C2406 1.463 . S
C2403 C2408 1.350 . S
C2403 N2411 1.427 . S
C2404 H2395 0.930 . S
C2404 C2402 1.378 . S
C2404 C2405 1.367 . S
C2405 C2404 1.367 . S
C2405 C2407 1.433 . S
C2406 C2402 1.350 . S
C2406 C2403 1.463 . S
C2406 N2410 1.427 . S
C2407 H2397 0.929 . S
C2407 C2405 1.433 . S
C2407 N2410 1.384 . S
C2408 H2399 0.929 . S
C2408 C2400 1.378 . S
C2408 C2403 1.350 . S
C2409 H2396 0.929 . S
C2409 C2401 1.433 . S
C2409 N2411 1.384 . S
N2410 C2406 1.427 . S
N2410 C2407 1.384 . S
N2411 C2403 1.427 . S
N2411 C2409 1.384 . S
H2412 C2418 0.930 . S
H2413 C2422 0.930 . S
H2414 C2427 0.929 . S
H2415 C2425 0.929 . S
H2416 C2420 0.929 . S
H2417 C2426 0.929 . S
C2418 H2412 0.930 . S
C2418 C2419 1.367 . S
C2418 C2426 1.378 . S
C2419 C2418 1.367 . S
C2419 C2427 1.433 . S
C2420 H2416 0.929 . S
C2420 C2422 1.378 . S
C2420 C2424 1.350 . S
C2421 C2424 1.463 . S
C2421 C2426 1.350 . S
C2421 N2429 1.427 . S
C2422 H2413 0.930 . S
C2422 C2420 1.378 . S
C2422 C2423 1.367 . S
C2423 C2422 1.367 . S
C2423 C2425 1.433 . S
C2424 C2420 1.350 . S
C2424 C2421 1.463 . S
C2424 N2428 1.427 . S
C2425 H2415 0.929 . S
C2425 C2423 1.433 . S
C2425 N2428 1.384 . S
C2426 H2417 0.929 . S
C2426 C2418 1.378 . S
C2426 C2421 1.350 . S
C2427 H2414 0.929 . S
C2427 C2419 1.433 . S
C2427 N2429 1.384 . S
N2428 C2424 1.427 . S
N2428 C2425 1.384 . S
N2429 C2421 1.427 . S
N2429 C2427 1.384 . S
H2430 C2436 0.930 . S
H2431 C2440 0.930 . S
H2432 C2445 0.929 . S
H2433 C2443 0.929 . S
H2434 C2438 0.929 . S
H2435 C2444 0.929 . S
C2436 H2430 0.930 . S
C2436 C2437 1.367 . S
C2436 C2444 1.378 . S
C2437 C2436 1.367 . S
C2437 C2445 1.433 . S
C2438 H2434 0.929 . S
C2438 C2440 1.378 . S
C2438 C2442 1.350 . S
C2439 C2442 1.463 . S
C2439 C2444 1.350 . S
C2439 N2447 1.427 . S
C2440 H2431 0.930 . S
C2440 C2438 1.378 . S
C2440 C2441 1.367 . S
C2441 C2440 1.367 . S
C2441 C2443 1.433 . S
C2442 C2438 1.350 . S
C2442 C2439 1.463 . S
C2442 N2446 1.427 . S
C2443 H2433 0.929 . S
C2443 C2441 1.433 . S
C2443 N2446 1.384 . S
C2444 H2435 0.929 . S
C2444 C2436 1.378 . S
C2444 C2439 1.350 . S
C2445 H2432 0.929 . S
C2445 C2437 1.433 . S
C2445 N2447 1.384 . S
N2446 C2442 1.427 . S
N2446 C2443 1.384 . S
N2447 C2439 1.427 . S
N2447 C2445 1.384 . S
H2448 C2454 0.930 . S
H2449 C2458 0.930 . S
H2450 C2463 0.929 . S
H2451 C2461 0.929 . S
H2452 C2456 0.929 . S
H2453 C2462 0.929 . S
C2454 H2448 0.930 . S
C2454 C2455 1.367 . S
C2454 C2462 1.378 . S
C2455 C2454 1.367 . S
C2455 C2463 1.433 . S
C2456 H2452 0.929 . S
C2456 C2458 1.378 . S
C2456 C2460 1.350 . S
C2457 C2460 1.463 . S
C2457 C2462 1.350 . S
C2457 N2465 1.427 . S
C2458 H2449 0.930 . S
C2458 C2456 1.378 . S
C2458 C2459 1.367 . S
C2459 C2458 1.367 . S
C2459 C2461 1.433 . S
C2460 C2456 1.350 . S
C2460 C2457 1.463 . S
C2460 N2464 1.427 . S
C2461 H2451 0.929 . S
C2461 C2459 1.433 . S
C2461 N2464 1.384 . S
C2462 H2453 0.929 . S
C2462 C2454 1.378 . S
C2462 C2457 1.350 . S
C2463 H2450 0.929 . S
C2463 C2455 1.433 . S
C2463 N2465 1.384 . S
N2464 C2460 1.427 . S
N2464 C2461 1.384 . S
N2465 C2457 1.427 . S
N2465 C2463 1.384 . S
H2466 C2472 0.930 . S
H2467 C2476 0.930 . S
H2468 C2481 0.929 . S
H2469 C2479 0.929 . S
H2470 C2474 0.929 . S
H2471 C2480 0.929 . S
C2472 H2466 0.930 . S
C2472 C2473 1.367 . S
C2472 C2480 1.378 . S
C2473 C2472 1.367 . S
C2473 C2481 1.433 . S
C2474 H2470 0.929 . S
C2474 C2476 1.378 . S
C2474 C2478 1.350 . S
C2475 C2478 1.463 . S
C2475 C2480 1.350 . S
C2475 N2483 1.427 . S
C2476 H2467 0.930 . S
C2476 C2474 1.378 . S
C2476 C2477 1.367 . S
C2477 C2476 1.367 . S
C2477 C2479 1.433 . S
C2478 C2474 1.350 . S
C2478 C2475 1.463 . S
C2478 N2482 1.427 . S
C2479 H2469 0.929 . S
C2479 C2477 1.433 . S
C2479 N2482 1.384 . S
C2480 H2471 0.929 . S
C2480 C2472 1.378 . S
C2480 C2475 1.350 . S
C2481 H2468 0.929 . S
C2481 C2473 1.433 . S
C2481 N2483 1.384 . S
N2482 C2478 1.427 . S
N2482 C2479 1.384 . S
N2483 C2475 1.427 . S
N2483 C2481 1.384 . S
H2484 C2490 0.930 . S
H2485 C2494 0.930 . S
H2486 C2499 0.929 . S
H2487 C2497 0.929 . S
H2488 C2492 0.929 . S
H2489 C2498 0.929 . S
C2490 H2484 0.930 . S
C2490 C2491 1.367 . S
C2490 C2498 1.378 . S
C2491 C2490 1.367 . S
C2491 C2499 1.433 . S
C2492 H2488 0.929 . S
C2492 C2494 1.378 . S
C2492 C2496 1.350 . S
C2493 C2496 1.463 1_455 S
C2493 C2498 1.350 . S
C2493 N2501 1.427 . S
C2494 H2485 0.930 . S
C2494 C2492 1.378 . S
C2494 C2495 1.367 . S
C2495 C2494 1.367 . S
C2495 C2497 1.433 . S
C2496 C2492 1.350 . S
C2496 C2493 1.463 1_655 S
C2496 N2500 1.427 . S
C2497 H2487 0.929 . S
C2497 C2495 1.433 . S
C2497 N2500 1.384 . S
C2498 H2489 0.929 . S
C2498 C2490 1.378 . S
C2498 C2493 1.350 . S
C2499 H2486 0.929 . S
C2499 C2491 1.433 . S
C2499 N2501 1.384 . S
N2500 C2496 1.427 . S
N2500 C2497 1.384 . S
N2501 C2493 1.427 . S
N2501 C2499 1.384 . S
H2502 C2508 0.930 . S
H2503 C2512 0.930 . S
H2504 C2517 0.929 . S
H2505 C2515 0.929 . S
H2506 C2510 0.929 . S
H2507 C2516 0.929 . S
C2508 H2502 0.930 . S
C2508 C2509 1.367 . S
C2508 C2516 1.378 . S
C2509 C2508 1.367 . S
C2509 C2517 1.433 . S
C2510 H2506 0.929 . S
C2510 C2512 1.378 . S
C2510 C2514 1.350 . S
C2511 C2514 1.463 . S
C2511 C2516 1.350 . S
C2511 N2519 1.427 . S
C2512 H2503 0.930 . S
C2512 C2510 1.378 . S
C2512 C2513 1.367 . S
C2513 C2512 1.367 . S
C2513 C2515 1.433 . S
C2514 C2510 1.350 . S
C2514 C2511 1.463 . S
C2514 N2518 1.427 . S
C2515 H2505 0.929 . S
C2515 C2513 1.433 . S
C2515 N2518 1.384 . S
C2516 H2507 0.929 . S
C2516 C2508 1.378 . S
C2516 C2511 1.350 . S
C2517 H2504 0.929 . S
C2517 C2509 1.433 . S
C2517 N2519 1.384 . S
N2518 C2514 1.427 . S
N2518 C2515 1.384 . S
N2519 C2511 1.427 . S
N2519 C2517 1.384 . S
H2520 C2526 0.930 . S
H2521 C2530 0.930 . S
H2522 C2535 0.929 . S
H2523 C2533 0.929 . S
H2524 C2528 0.929 . S
H2525 C2534 0.929 . S
C2526 H2520 0.930 . S
C2526 C2527 1.367 . S
C2526 C2534 1.378 . S
C2527 C2526 1.367 . S
C2527 C2535 1.433 . S
C2528 H2524 0.929 . S
C2528 C2530 1.378 . S
C2528 C2532 1.350 . S
C2529 C2532 1.463 1_545 S
C2529 C2534 1.350 . S
C2529 N2537 1.427 . S
C2530 H2521 0.930 . S
C2530 C2528 1.378 . S
C2530 C2531 1.367 . S
C2531 C2530 1.367 . S
C2531 C2533 1.433 . S
C2532 C2528 1.350 . S
C2532 C2529 1.463 1_565 S
C2532 N2536 1.427 . S
C2533 H2523 0.929 . S
C2533 C2531 1.433 . S
C2533 N2536 1.384 . S
C2534 H2525 0.929 . S
C2534 C2526 1.378 . S
C2534 C2529 1.350 . S
C2535 H2522 0.929 . S
C2535 C2527 1.433 . S
C2535 N2537 1.384 . S
N2536 C2532 1.427 . S
N2536 C2533 1.384 . S
N2537 C2529 1.427 . S
N2537 C2535 1.384 . S
H2538 C2544 0.930 . S
H2539 C2548 0.930 . S
H2540 C2553 0.929 . S
H2541 C2551 0.929 . S
H2542 C2546 0.929 1_556 S
H2543 C2552 0.929 1_554 S
C2544 H2538 0.930 . S
C2544 C2545 1.367 . S
C2544 C2552 1.378 . S
C2545 C2544 1.367 . S
C2545 C2553 1.433 . S
C2546 H2542 0.929 1_554 S
C2546 C2548 1.378 . S
C2546 C2550 1.350 . S
C2547 C2550 1.463 1_546 S
C2547 C2552 1.350 . S
C2547 N2555 1.427 . S
C2548 H2539 0.930 . S
C2548 C2546 1.378 . S
C2548 C2549 1.367 . S
C2549 C2548 1.367 . S
C2549 C2551 1.433 . S
C2550 C2546 1.350 . S
C2550 C2547 1.463 1_564 S
C2550 N2554 1.427 . S
C2551 H2541 0.929 . S
C2551 C2549 1.433 . S
C2551 N2554 1.384 . S
C2552 H2543 0.929 1_556 S
C2552 C2544 1.378 . S
C2552 C2547 1.350 . S
C2553 H2540 0.929 . S
C2553 C2545 1.433 . S
C2553 N2555 1.384 . S
N2554 C2550 1.427 . S
N2554 C2551 1.384 . S
N2555 C2547 1.427 . S
N2555 C2553 1.384 . S
H2556 C2562 0.930 . S
H2557 C2566 0.930 . S
H2558 C2571 0.929 . S
H2559 C2569 0.929 . S
H2560 C2564 0.942 . S
H2561 C2570 0.942 . S
C2562 H2556 0.930 . S
C2562 C2563 1.367 . S
C2562 C2570 1.378 . S
C2563 C2562 1.367 . S
C2563 C2571 1.433 . S
C2564 H2560 0.942 . S
C2564 C2566 1.378 . S
C2564 C2568 1.350 . S
C2565 C2568 1.463 1_656 S
C2565 C2570 1.350 . S
C2565 N2573 1.427 . S
C2566 H2557 0.930 . S
C2566 C2564 1.378 . S
C2566 C2567 1.367 . S
C2567 C2566 1.367 . S
C2567 C2569 1.433 . S
C2568 C2564 1.350 . S
C2568 C2565 1.463 1_454 S
C2568 N2572 1.427 . S
C2569 H2559 0.929 . S
C2569 C2567 1.433 . S
C2569 N2572 1.384 . S
C2570 H2561 0.942 . S
C2570 C2562 1.378 . S
C2570 C2565 1.350 . S
C2571 H2558 0.929 . S
C2571 C2563 1.433 . S
C2571 N2573 1.384 . S
N2572 C2568 1.427 . S
N2572 C2569 1.384 . S
N2573 C2565 1.427 . S
N2573 C2571 1.384 . S
H2574 C2580 0.930 . S
H2575 C2584 0.930 . S
H2576 C2589 0.929 . S
H2577 C2587 0.929 . S
H2578 C2582 0.929 . S
H2579 C2588 0.929 . S
C2580 H2574 0.930 . S
C2580 C2581 1.367 . S
C2580 C2588 1.378 . S
C2581 C2580 1.367 . S
C2581 C2589 1.433 . S
C2582 H2578 0.929 . S
C2582 C2584 1.378 . S
C2582 C2586 1.350 . S
C2583 C2586 1.463 1_556 S
C2583 C2588 1.350 . S
C2583 N2591 1.427 1_556 S
C2584 H2575 0.930 . S
C2584 C2582 1.378 . S
C2584 C2585 1.367 . S
C2585 C2584 1.367 . S
C2585 C2587 1.433 . S
C2586 C2582 1.350 . S
C2586 C2583 1.463 1_554 S
C2586 N2590 1.427 1_554 S
C2587 H2577 0.929 . S
C2587 C2585 1.433 . S
C2587 N2590 1.384 1_554 S
C2588 H2579 0.929 . S
C2588 C2580 1.378 . S
C2588 C2583 1.350 . S
C2589 H2576 0.929 . S
C2589 C2581 1.433 . S
C2589 N2591 1.384 1_556 S
N2590 C2586 1.427 1_556 S
N2590 C2587 1.384 1_556 S
N2591 C2583 1.427 1_554 S
N2591 C2589 1.384 1_554 S
C1303 C14 1.190 . S
C1307 C256 1.207 . S
C1321 C50 1.195 . S
C1325 C292 1.203 . S
C1339 C220 1.201 . S
C1343 C86 1.197 . S
C1357 C400 1.194 . S
C1361 C122 1.204 . S
C1375 C158 1.199 . S
C1379 C328 1.200 . S
C1393 C194 1.193 . S
C1397 C364 1.205 . S
C1411 C40 1.203 . S
C1415 C230 1.195 . S
C1429 C76 1.198 . S
C1433 C266 1.201 . S
C1447 C302 1.194 . S
C1451 C4 1.205 . S
C1465 C338 1.198 . S
C1469 C184 1.200 . S
C1483 C112 1.205 . S
C1487 C374 1.193 . S
C1501 C410 1.190 . S
C1505 C148 1.208 . S
C1519 C688 1.201 . S
C1523 C446 1.197 . S
C1537 C482 1.188 . S
C1541 C724 1.209 . S
C1555 C518 1.200 . S
C1559 C652 1.198 . S
C1573 C832 1.209 . S
C1577 C554 1.189 . S
C1591 C590 1.201 . S
C1595 C760 1.196 . S
C1609 C796 1.197 . S
C1613 C626 1.202 . S
C1627 C472 1.203 . S
C1631 C662 1.195 . S
C1645 C698 1.198 . S
C1649 C508 1.201 . S
C1663 C436 1.202 . S
C1667 C734 1.195 . S
C1681 C770 1.195 . S
C1685 C616 1.203 . S
C1699 C806 1.203 . S
C1703 C544 1.196 . S
C1717 C842 1.200 . S
C1721 C580 1.198 . S
C1735 C1120 1.195 . S
C1739 C878 1.203 . S
C1753 C1156 1.209 . S
C1757 C914 1.189 . S
C1771 C1084 1.196 . S
C1775 C950 1.202 . S
C1789 C986 1.190 . S
C1793 C1264 1.209 . S
C1807 C1022 1.195 . S
C1811 C1192 1.202 . S
C1825 C1228 1.196 . S
C1829 C1058 1.202 . S
C1843 C1094 1.189 . S
C1847 C904 1.208 . S
C1861 C940 1.199 . S
C1865 C1130 1.199 . S
C1879 C868 1.208 . S
C1883 C1166 1.189 . S
C1897 C1202 1.191 . S
C1901 C1048 1.207 . S
C1915 C1238 1.191 . S
C1919 C976 1.205 . S
C1933 C1274 1.191 . S
C1937 C1012 1.207 . S
C1951 C110 1.380 . S
C1955 C2 1.373 . S
C1969 C146 1.380 . S
C1973 C38 1.386 . S
C1987 C74 1.384 . S
C1991 C182 1.374 . S
C2005 C326 1.381 . S
C2009 C218 1.373 . S
C2023 C362 1.386 . S
C2027 C254 1.378 . S
C2041 C398 1.386 . S
C2045 C290 1.377 . S
C2059 C542 1.382 . S
C2063 C434 1.373 . S
C2077 C578 1.377 . S
C2081 C470 1.373 . S
C2095 C506 1.385 . S
C2099 C614 1.375 . S
C2113 C758 1.378 1_554 S
C2117 C650 1.373 . S
C2131 C794 1.386 1_554 S
C2135 C686 1.381 . S
C2149 C830 1.373 1_554 S
C2153 C722 1.382 . S
C2167 C974 1.383 1_556 S
C2171 C866 1.373 . S
C2185 C902 1.378 . S
C2189 C1010 1.386 1_556 S
C2203 C1046 1.372 1_556 S
C2207 C938 1.380 . S
C2221 C1082 1.373 . S
C2225 C1190 1.382 . S
C2239 C1118 1.386 . S
C2243 C1226 1.380 . S
C2257 C1154 1.380 . S
C2261 C1262 1.386 . S
C2275 C3 1.423 . S
C2279 C651 1.423 . S
C2293 C687 1.426 . S
C2297 C39 1.426 . S
C2311 C723 1.423 . S
C2315 C75 1.423 . S
C2329 C1191 1.424 . S
C2333 C111 1.424 . S
C2347 C1227 1.427 . S
C2351 C147 1.427 . S
C2365 C1263 1.427 . S
C2369 C183 1.427 . S
C2383 C219 1.421 . S
C2387 C867 1.421 . S
C2401 C903 1.425 . S
C2405 C255 1.425 . S
C2419 C939 1.425 . S
C2423 C291 1.425 . S
C2437 C327 1.425 . S
C2441 C543 1.425 . S
C2455 C363 1.427 . S
C2459 C579 1.427 . S
C2473 C399 1.421 . S
C2477 C615 1.421 . S
C2491 C1083 1.422 . S
C2495 C435 1.422 . S
C2509 C1119 1.424 . S
C2513 C471 1.424 . S
C2527 C507 1.421 . S
C2531 C1155 1.421 . S
C2545 C759 1.426 . S
C2549 C975 1.426 . S
C2563 C795 1.426 . S
C2567 C1011 1.426 . S
C2581 C831 1.427 . S
C2585 C1047 1.427 . S
