# Generated by pormake.
# Topology kag, (6)-cn, num edge types: 1
# Building blocks:
#     Node 0, Type 0, BuildingBlock: KUMBUR_clean_sbu_0, # of connection points: 6
#     Node 1, Type 0, BuildingBlock: KUMBUR_clean_sbu_0, # of connection points: 6
#     Node 2, Type 0, BuildingBlock: KUMBUR_clean_sbu_0, # of connection points: 6
#     Edge 3, Type (0, 0), BuildingBlock: XIVTED_clean_linker_0, # of connection points: 2
#     Edge 4, Type (0, 0), BuildingBlock: XIVTED_clean_linker_0, # of connection points: 2
#     Edge 5, Type (0, 0), BuildingBlock: XIVTED_clean_linker_0, # of connection points: 2
#     Edge 6, Type (0, 0), BuildingBlock: XIVTED_clean_linker_0, # of connection points: 2
#     Edge 7, Type (0, 0), BuildingBlock: XIVTED_clean_linker_0, # of connection points: 2
#     Edge 8, Type (0, 0), BuildingBlock: XIVTED_clean_linker_0, # of connection points: 2
#     Edge 9, Type (0, 0), BuildingBlock: XIVTED_clean_linker_0, # of connection points: 2
#     Edge 10, Type (0, 0), BuildingBlock: XIVTED_clean_linker_0, # of connection points: 2
#     Edge 11, Type (0, 0), BuildingBlock: XIVTED_clean_linker_0, # of connection points: 2
# Relax obj value: 0.071
# Max RMSD: 0.191
# Mean RMSD: 0.141
data_MOF--net-kag--node1-KUMBUR_clean_sbu_0--edge1-XIVTED_clean_linker_0
_symmetry_space_group_name_H-M    P1
_symmetry_Int_Tables_number       1
_symmetry_cell_setting            triclinic
loop_
_symmetry_equiv_pos_as_xyz
'x, y, z'
_cell_length_a     39.844391
_cell_length_b     30.522544
_cell_length_c     15.327827
_cell_angle_alpha  94.035286
_cell_angle_beta   114.31249
_cell_angle_gamma 98.555359
loop_
_atom_site_label
_atom_site_type_symbol
_atom_site_fract_x
_atom_site_fract_y
_atom_site_fract_z
_atom_type_partial_charge
Tb0 Tb 1.00478 0.47439 0.98053 0.0
C1 C 0.99772 0.66326 0.11946 0.0
C2 C 0.93455 0.67119 0.01626 0.0
C3 C 0.96711 0.71333 0.17839 0.0
C4 C 0.96614 0.65164 0.03268 0.0
C5 C 0.99894 0.69486 0.1928 0.0
C6 C 0.93494 0.70146 0.09028 0.0
C7 C 0.06371 0.68977 0.286 0.0
N8 N 0.02783 0.64467 0.13044 0.0
C9 C 0.06113 0.65864 0.21093 0.0
C10 C 0.03235 0.70763 0.27738 0.0
Tb11 Tb 0.02077 0.5941 0.00353 0.0
N12 N 0.96705 0.6226 0.96284 0.0
C13 C 0.93795 0.61387 0.87232 0.0
C14 C 0.9039 0.66047 0.92533 0.0
C15 C 0.90581 0.63208 0.85273 0.0
H16 H 0.08549 0.64498 0.21837 0.0
H17 H 0.88252 0.62418 0.7816 0.0
H18 H 0.91082 0.71655 0.07938 0.0
H19 H 0.08987 0.70001 0.3504 0.0
H20 H 0.9389 0.59201 0.81529 0.0
H21 H 0.14331 0.44475 0.20141 0.0
H22 H 0.87901 0.67462 0.90987 0.0
H23 H 0.93951 0.42256 0.76703 0.0
H24 H 0.08695 0.47679 0.16828 0.0
H25 H 0.93479 0.36703 0.63555 0.0
H26 H 0.96735 0.73742 0.23415 0.0
H27 H 0.14645 0.3938 0.07332 0.0
H28 H 0.11417 0.3511 0.90455 0.0
H29 H 0.03446 0.73183 0.3355 0.0
H30 H 0.05729 0.32962 0.75069 0.0
N31 N 0.05835 0.4456 0.02116 0.0
C32 C 0.08768 0.45467 0.11132 0.0
C33 C 0.12155 0.40787 0.05812 0.0
C34 C 0.09065 0.39673 0.9677 0.0
C35 C 0.11984 0.43654 0.13062 0.0
C36 C 0.05903 0.41617 0.95163 0.0
H37 H 0.99006 0.33499 0.6501 0.0
N38 N 0.99724 0.42291 0.85458 0.0
C39 C 0.96104 0.37737 0.69965 0.0
C40 C 0.02726 0.40419 0.86543 0.0
C41 C 0.96383 0.40881 0.77448 0.0
C42 C 0.99231 0.35939 0.70808 0.0
C43 C 0.02586 0.37234 0.79226 0.0
O44 O 0.95659 0.43064 0.96832 0.0
O45 O 0.98242 0.53375 0.99136 0.0
O46 O 0.01584 0.57667 0.13416 0.0
O47 O 0.0302 0.50548 0.13472 0.0
O48 O 0.94608 0.48073 0.89622 0.0
O49 O 1.01049 0.43267 0.08743 0.0
O50 O 0.06818 0.64029 0.01836 0.0
O51 O 0.04308 0.53481 -0.00745 0.0
O52 O 1.00926 0.49128 0.84913 0.0
O53 O 0.99597 0.56312 0.84927 0.0
O54 O 0.0797 0.58788 0.08623 0.0
O55 O 0.01473 0.63512 0.89546 0.0
C56 C 0.94805 0.52043 0.93453 0.0
C57 C 0.96561 0.36444 0.03617 0.0
C58 C 0.92157 0.29909 0.03408 0.0
C59 C 0.93266 0.34571 0.0431 0.0
C60 C 0.94436 0.27126 0.01879 0.0
C61 C 0.9879 0.33634 0.01992 0.0
C62 C 0.97726 0.28988 0.0115 0.0
C63 C 0.02455 0.54127 0.17758 0.0
C64 C 0.97513 0.41338 0.04491 0.0
C65 C 0.05767 0.35391 0.80633 0.0
C66 C 0.09005 0.36614 0.8939 0.0
C67 C 0.07754 0.54798 0.04857 0.0
C68 C 0.05548 0.70614 0.95193 0.0
C69 C 0.08684 0.7296 0.94386 0.0
C70 C 0.09498 0.77662 0.95917 0.0
C71 C 0.07142 0.80007 0.98307 0.0
C72 C 0.0317 0.73 0.9736 0.0
C73 C 0.03979 0.77676 0.98955 0.0
C74 C 1.00098 0.5269 0.80606 0.0
C75 C 0.0493 0.65702 0.94112 0.0
H76 H 0.91579 0.36774 0.05665 0.0
H77 H 0.9365 0.23519 0.01112 0.0
H78 H 0.01337 0.35017 0.01386 0.0
H79 H 0.99451 0.26822 -0.001 0.0
H80 H 0.10527 0.71122 0.92716 0.0
H81 H 0.0771 0.83634 -0.00512 0.0
H82 H 1.00699 0.71271 0.97825 0.0
H83 H 0.02145 0.79497 0.00679 0.0
Tb84 Tb 0.56726 0.04963 0.05714 0.0
C85 C 0.42891 0.09008 0.79774 0.0
C86 C 0.42958 0.15831 0.88939 0.0
C87 C 0.401 0.14938 0.71377 0.0
C88 C 0.43944 0.11591 0.88557 0.0
C89 C 0.40791 0.10561 0.71079 0.0
C90 C 0.41178 0.17571 0.80312 0.0
C91 C 0.39494 1.03069 0.62733 0.0
N92 N 0.43443 0.04729 0.79851 0.0
C93 C 0.41518 1.01668 0.7158 0.0
C94 C 0.39209 0.07565 0.62442 0.0
Tb95 Tb 0.46994 1.02818 0.94734 0.0
N96 N 0.45603 0.09755 0.9671 0.0
C97 C 0.46101 0.11865 0.05455 0.0
C98 C 0.43634 0.18096 0.97933 0.0
C99 C 0.45134 0.16055 0.06198 0.0
H100 H 0.41729 0.98181 0.7176 0.0
H101 H 0.45583 0.17726 0.13165 0.0
H102 H 0.4047 0.20861 0.80463 0.0
H103 H 0.38136 1.00675 0.56162 0.0
H104 H 0.47236 0.10334 0.11892 0.0
H105 H 0.6244 0.98078 0.81978 0.0
H106 H 0.42909 0.21352 0.98536 0.0
H107 H 0.58147 1.0232 0.2769 0.0
H108 H 0.60585 0.03989 0.89536 0.0
H109 H 0.59312 0.95903 0.36311 0.0
H110 H 0.38551 0.16223 0.64768 0.0
H111 H 0.62679 0.90753 0.8786 0.0
H112 H 0.624 0.86116 0.00449 0.0
H113 H 0.37582 0.08627 0.55607 0.0
H114 H 0.61715 0.85598 0.15579 0.0
N115 N 0.5907 0.99883 0.98683 0.0
C116 C 0.60386 1.00729 0.91825 0.0
C117 C 0.61707 0.93296 0.90999 0.0
C118 C 0.60887 0.9265 0.98887 0.0
C119 C 0.61561 0.97412 0.8764 0.0
C120 C 0.59616 0.96071 0.02695 0.0
H121 H 0.60627 0.8925 0.29078 0.0
N122 N 0.58128 0.99192 0.14762 0.0
C123 C 0.59202 0.95756 0.29119 0.0
C124 C 0.59209 0.95759 0.11137 0.0
C125 C 0.58391 0.99361 0.23978 0.0
C126 C 0.59978 0.92032 0.25065 0.0
C127 C 0.60095 0.9205 0.16088 0.0
O128 O 0.60365 0.08904 0.19094 0.0
O129 O 0.51919 0.08417 0.0178 0.0
O130 O 0.48605 1.0327 0.82877 0.0
O131 O 0.55109 0.05099 0.90328 0.0
O132 O 0.56274 0.11147 0.98901 0.0
O133 O 0.62376 0.073 0.08578 0.0
O134 O 0.42321 0.97459 0.8923 0.0
O135 O 0.5181 0.99475 0.01751 0.0
O136 O 0.54737 0.06836 0.16555 0.0
O137 O 0.4896 1.02141 0.09966 0.0
O138 O 0.4766 0.96389 0.88729 0.0
O139 O 0.43061 1.02416 0.00698 0.0
C140 C 0.53092 0.11842 0.98468 0.0
C141 C 0.64839 0.14498 0.17582 0.0
C142 C 0.69541 0.20046 0.1583 0.0
C143 C 0.67989 0.15562 0.15609 0.0
C144 C 0.67924 0.2347 0.18204 0.0
C145 C 0.63278 0.17978 0.19961 0.0
C146 C 0.64822 0.22432 0.20272 0.0
C147 C 0.51879 0.04199 0.82611 0.0
C148 C 0.63117 0.0975 0.16631 0.0
C149 C 0.61115 0.88513 0.11997 0.0
C150 C 0.6149 0.88802 0.03371 0.0
C151 C 0.50726 0.95827 0.95631 0.0
C152 C 0.36837 0.99094 0.89957 0.0
C153 C 0.34199 0.95863 0.91073 0.0
C154 C 0.30345 0.95937 0.86388 0.0
C155 C 0.29153 0.99246 0.80527 0.0
C156 C 0.35594 1.02463 0.84348 0.0
C157 C 0.31775 1.0251 0.79579 0.0
C158 C 0.51773 0.04705 0.17364 0.0
C159 C 0.40855 0.98913 0.94722 0.0
H160 H 0.69162 0.12882 0.13624 0.0
H161 H 0.69077 0.26956 0.18543 0.0
H162 H 0.60848 0.17266 0.21492 0.0
H163 H 0.63595 0.25092 0.22078 0.0
H164 H 0.35137 0.93292 0.95538 0.0
H165 H 0.26199 0.99378 0.76902 0.0
H166 H 0.37554 0.05079 0.83698 0.0
H167 H 0.3085 0.05112 0.7522 0.0
Tb168 Tb 0.46499 0.52439 0.94372 0.0
C169 C 0.60143 0.64565 0.17689 0.0
C170 C 0.60138 0.70131 0.07208 0.0
C171 C 0.6267 0.72431 0.24537 0.0
C172 C 0.59218 0.6565 0.08532 0.0
C173 C 0.62024 0.67927 0.25845 0.0
C174 C 0.61742 0.73531 0.1522 0.0
C175 C 0.63228 0.62107 0.35917 0.0
N176 N 0.59635 0.60164 0.18642 0.0
C177 C 0.61448 0.58915 0.27598 0.0
C178 C 0.63432 0.66642 0.35056 0.0
Tb179 Tb 0.56464 0.55147 0.04437 0.0
N180 N 0.57654 0.62274 0.00969 0.0
C181 C 0.57206 0.63144 0.91951 0.0
C182 C 0.59513 0.71044 0.97918 0.0
C183 C 0.58105 0.67519 0.90289 0.0
H184 H 0.61467 0.55421 0.28362 0.0
H185 H 0.57697 0.68166 0.83103 0.0
H186 H 0.62395 0.76997 0.14319 0.0
H187 H 0.64504 0.61065 0.42967 0.0
H188 H 0.56206 0.60494 0.85976 0.0
H189 H 0.45584 0.39661 0.16524 0.0
H190 H 0.60186 0.74434 0.96603 0.0
H191 H 0.4156 0.51797 0.70286 0.0
H192 H 0.4677 0.47292 0.13139 0.0
H193 H 0.38728 0.45979 0.56012 0.0
H194 H 0.64056 0.75061 0.30703 0.0
H195 H 0.43301 0.33253 0.03395 0.0
H196 H 0.41147 0.30494 0.8578 0.0
H197 H 0.64886 0.69117 0.41494 0.0
H198 H 0.39468 0.32224 0.6924 0.0
N199 N 0.45461 0.45363 0.98275 0.0
C200 C 0.45905 0.44588 0.07341 0.0
C201 C 0.43871 0.36626 0.01868 0.0
C202 C 0.43212 0.37435 0.92498 0.0
C203 C 0.45167 0.40231 0.0929 0.0
C204 C 0.44014 0.41897 0.90905 0.0
H205 H 0.38528 0.37996 0.58034 0.0
N206 N 0.4345 0.47239 0.80428 0.0
C207 C 0.39996 0.45048 0.63175 0.0
C208 C 0.43071 0.42866 0.81655 0.0
C209 C 0.41663 0.48343 0.71322 0.0
C210 C 0.39895 0.40552 0.64345 0.0
C211 C 0.41302 0.39402 0.73677 0.0
O212 O 0.40994 0.53643 0.86825 0.0
O213 O 0.5135 0.58166 0.00954 0.0
O214 O 0.54961 0.54064 0.16408 0.0
O215 O 0.48709 0.54717 0.09869 0.0
O216 O 0.4657 0.59114 0.89733 0.0
O217 O 0.4305 0.53018 0.01733 0.0
O218 O 0.61691 0.53191 0.11418 0.0
O219 O 0.51626 0.49422 0.97686 0.0
O220 O 0.47969 0.53776 0.82444 0.0
O221 O 0.5417 0.52898 0.8888 0.0
O222 O 0.56352 0.48511 0.09163 0.0
O223 O 0.60115 0.55144 0.97472 0.0
C224 C 0.49874 0.61207 0.95848 0.0
C225 C 0.36435 0.5061 0.92292 0.0
C226 C 0.30164 0.49425 0.92524 0.0
C227 C 0.33699 0.52243 0.94733 0.0
C228 C 0.2952 0.44973 0.88206 0.0
C229 C 0.35585 0.46172 0.8782 0.0
C230 C 0.32192 0.43379 0.85894 0.0
C231 C 0.51877 0.54526 0.17268 0.0
C232 C 0.40133 0.53474 0.9412 0.0
C233 C 0.40768 0.34928 0.75265 0.0
C234 C 0.41704 0.33946 0.8467 0.0
C235 C 0.53085 0.46402 0.02895 0.0
C236 C 0.66702 0.56639 0.07977 0.0
C237 C 0.69206 0.55489 0.04072 0.0
C238 C 0.7299 0.57919 0.07805 0.0
C239 C 0.74166 0.61404 0.15608 0.0
C240 C 0.68023 0.60239 0.15494 0.0
C241 C 0.71706 0.62573 0.19278 0.0
C242 C 0.51037 0.53261 0.81535 0.0
C243 C 0.62796 0.53997 0.04707 0.0
H244 H 0.34278 0.55681 0.98083 0.0
H245 H 0.26918 0.42682 0.86599 0.0
H246 H 0.37533 0.4485 0.85706 0.0
H247 H 0.31616 0.39951 0.82496 0.0
H248 H 0.68208 0.52738 0.98204 0.0
H249 H 0.77038 0.63227 0.19107 0.0
H250 H 0.66241 0.61206 0.18671 0.0
H251 H 0.72685 0.65279 0.25233 0.0
H252 H 0.98585 0.59311 0.69015 0.0
H253 H 0.03993 0.47509 0.29363 0.0
H254 H 0.01833 0.46407 0.70235 0.0
H255 H 1.00641 0.60353 0.28043 0.0
H256 H 0.03288 0.4708 0.44423 0.0
H257 H 0.99276 0.59722 0.53942 0.0
C258 C 0.99406 0.56541 0.6609 0.0
C259 C 1.00133 0.52809 0.70941 0.0
C260 C 0.02728 0.50005 0.40861 0.0
C261 C 1.00975 0.53285 0.53666 0.0
C262 C 0.03147 0.50263 0.32265 0.0
C263 C 0.024 0.53986 0.27395 0.0
C264 C 0.01542 0.53488 0.44647 0.0
C265 C 0.01287 0.57432 0.31532 0.0
C266 C 0.99817 0.56788 0.57482 0.0
C267 C 1.01209 0.49339 0.66764 0.0
N268 N 1.00885 0.57093 0.39871 0.0
N269 N 0.01607 0.49669 0.58416 0.0
H270 H 0.46465 1.00062 0.21906 0.0
H271 H 0.57099 0.09379 0.78469 0.0
H272 H 0.56794 0.09913 0.3449 0.0
H273 H 0.46787 0.99553 0.65195 0.0
H274 H 0.57035 0.09784 0.62499 0.0
H275 H 0.46458 1.00114 0.37741 0.0
C276 C 0.48729 1.02258 0.27997 0.0
C277 C 0.51656 0.04959 0.26882 0.0
C278 C 0.54778 0.07558 0.63087 0.0
C279 C 0.51672 0.05013 0.45113 0.0
C280 C 0.54824 0.07306 0.72191 0.0
C281 C 0.51921 0.04457 0.73114 0.0
C282 C 0.51814 0.04925 0.54892 0.0
C283 C 0.49028 1.01871 0.64773 0.0
C284 C 0.48726 1.02277 0.37063 0.0
C285 C 0.54499 0.07749 0.35046 0.0
N286 N 0.4905 1.02164 0.56014 0.0
N287 N 0.54449 0.07686 0.43851 0.0
H288 H 0.56164 0.50542 0.75908 0.0
H289 H 0.46764 0.57315 0.22877 0.0
H290 H 0.46065 0.56032 0.65351 0.0
H291 H 0.56855 0.51815 0.33509 0.0
H292 H 0.46485 0.56928 0.38409 0.0
H293 H 0.5645 0.50979 0.6041 0.0
C294 C 0.53986 0.51811 0.70306 0.0
C295 C 0.51066 0.5322 0.71918 0.0
C296 C 0.48775 0.55833 0.37372 0.0
C297 C 0.51397 0.5376 0.54142 0.0
C298 C 0.48942 0.56059 0.28504 0.0
C299 C 0.5186 0.54632 0.26906 0.0
C300 C 0.51536 0.54149 0.44705 0.0
C301 C 0.54596 0.5303 0.34463 0.0
C302 C 0.54158 0.52066 0.61455 0.0
C303 C 0.48332 0.5484 0.64387 0.0
N304 N 0.54361 0.5282 0.43025 0.0
N305 N 0.48569 0.55075 0.55831 0.0
H306 H 0.07802 0.50269 0.88486 0.0
H307 H 0.30404 0.54097 0.09161 0.0
H308 H 0.15228 0.57048 0.17154 0.0
H309 H 0.22684 0.47994 0.80155 0.0
H310 H 0.25002 0.55321 0.12384 0.0
H311 H 0.13253 0.4925 0.85626 0.0
C312 C 0.10568 0.51485 0.94258 0.0
C313 C 0.11018 0.53681 0.03158 0.0
C314 C 0.24495 0.53737 0.05294 0.0
C315 C 0.17372 0.52652 -0.00202 0.0
C316 C 0.27591 0.53082 0.03422 0.0
C317 C 0.27029 0.50915 0.94376 0.0
C318 C 0.20793 0.52224 0.98075 0.0
C319 C 0.23284 0.4963 0.8728 0.0
C320 C 0.13708 0.50943 0.92582 0.0
C321 C 0.14728 0.55289 0.10217 0.0
N322 N 0.20345 0.50274 0.89286 0.0
N323 N 0.17742 0.54746 0.08405 0.0
H324 H 0.75852 0.16331 0.21398 0.0
H325 H 0.85352 0.32451 0.9534 0.0
H326 H 0.70641 0.26266 0.04739 0.0
H327 H 0.9095 0.23079 0.13196 0.0
H328 H 0.79763 0.298 0.97778 0.0
H329 H 0.81221 0.18329 0.17559 0.0
C330 C 0.75825 0.18912 0.16883 0.0
C331 C 0.72798 0.21154 0.13438 0.0
C332 C 0.82204 0.28305 0.01142 0.0
C333 C 0.78945 0.23474 0.09061 0.0
C334 C 0.85404 0.29829 -0.00222 0.0
C335 C 0.88643 0.28021 0.04164 0.0
C336 C 0.82226 0.24943 0.06955 0.0
C337 C 0.88514 0.24559 0.09656 0.0
C338 C 0.78899 0.20064 0.14729 0.0
C339 C 0.72936 0.24501 0.07694 0.0
N340 N 0.85368 0.23154 0.10955 0.0
N341 N 0.75956 0.2556 0.05706 0.0
H342 H 0.51345 0.90975 0.11431 0.0
H343 H 0.49082 0.66583 0.81819 0.0
H344 H 0.50922 0.89068 0.8294 0.0
H345 H 0.52257 0.6804 0.1242 0.0
H346 H 0.49567 0.74716 0.82409 0.0
H347 H 0.51535 0.82902 0.1234 0.0
C348 C 0.51362 0.88919 0.05405 0.0
C349 C 0.51259 0.90909 0.97206 0.0
C350 C 0.50213 0.73319 0.89082 0.0
C351 C 0.51291 0.81337 0.98027 0.0
C352 C 0.49957 0.686 0.88769 0.0
C353 C 0.50789 0.66454 0.97124 0.0
C354 C 0.51168 0.76147 0.97805 0.0
C355 C 0.5173 0.69416 0.05768 0.0
C356 C 0.51441 0.84238 0.05906 0.0
C357 C 0.51105 0.87852 0.89555 0.0
N358 N 0.51885 0.74017 0.05858 0.0
N359 N 0.51125 0.83351 0.90158 0.0
H360 H 0.94727 0.57088 0.09236 0.0
H361 H 0.73656 0.49779 -0.0047 0.0
H362 H 0.87317 0.49062 0.81833 0.0
H363 H 0.78891 0.638 0.07273 0.0
H364 H 0.78802 0.48328 0.95402 0.0
H365 H 0.89249 0.58522 0.116 0.0
C366 C 0.91966 0.5569 0.03617 0.0
C367 C 0.9152 0.53116 0.95098 0.0
C368 C 0.78797 0.51713 0.98029 0.0
C369 C 0.85187 0.54454 0.98168 0.0
C370 C 0.75843 0.52559 0.00339 0.0
C371 C 0.75828 0.56914 0.04066 0.0
C372 C 0.81812 0.55216 -0.00355 0.0
C373 C 0.78802 0.60347 0.04897 0.0
C374 C 0.88827 0.56464 0.05044 0.0
C375 C 0.87814 0.51167 0.88399 0.0
N376 N 0.81678 0.59414 0.02919 0.0
N377 N 0.84801 0.51843 0.9009 0.0
H378 H 0.15028 0.84429 0.0865 0.0
H379 H 0.24039 0.90507 0.72585 0.0
H380 H 0.11396 0.76426 0.80873 0.0
H381 H 0.30276 0.94129 0.03487 0.0
H382 H 0.19104 0.85717 0.75123 0.0
H383 H 0.20384 0.88521 0.06608 0.0
C384 C 0.15366 0.83544 0.02128 0.0
C385 C 0.12779 0.80105 0.94904 0.0
C386 C 0.21571 0.87522 0.81349 0.0
C387 C 0.18849 0.84756 0.92503 0.0
C388 C 0.24373 0.90253 0.79902 0.0
C389 C 0.2755 0.92696 0.87848 0.0
C390 C 0.21919 0.87319 0.90799 0.0
C391 C 0.27871 0.92265 0.97191 0.0
C392 C 0.18426 0.85848 0.00998 0.0
C393 C 0.13346 0.79047 0.86622 0.0
N394 N 0.25061 0.89669 0.98418 0.0
N395 N 0.16304 0.81396 0.85597 0.0
H396 H 0.50691 0.40031 0.85688 0.0
H397 H 0.54021 0.18083 0.14195 0.0
H398 H 0.54227 0.40598 0.16348 0.0
H399 H 0.51088 0.17222 0.83765 0.0
H400 H 0.53758 0.26137 0.14789 0.0
H401 H 0.50432 0.31808 0.84418 0.0
C402 C 0.51338 0.38461 0.92155 0.0
C403 C 0.52346 0.41157 0.01128 0.0
C404 C 0.53115 0.24204 0.07908 0.0
C405 C 0.52189 0.31489 -0.00247 0.0
C406 C 0.53238 0.19528 0.07551 0.0
C407 C 0.52422 0.16762 0.98825 0.0
C408 C 0.52233 0.26336 -0.00491 0.0
C409 C 0.51618 0.19066 0.90645 0.0
C410 C 0.51227 0.33707 0.91438 0.0
C411 C 0.53322 0.38769 0.09196 0.0
N412 N 0.51517 0.23602 0.9117 0.0
N413 N 0.53196 0.34198 0.08315 0.0
loop_
_geom_bond_atom_site_label_1
_geom_bond_atom_site_label_2
_geom_bond_distance
_geom_bond_site_symmetry_2
_ccdc_geom_bond_type
Tb0 N31 2.660 1_656 S
Tb0 N38 2.600 . S
Tb0 O44 2.546 . S
Tb0 O45 2.610 . S
Tb0 O47 2.319 1_556 S
Tb0 O48 2.552 . S
Tb0 O49 2.413 1_556 S
Tb0 O51 2.362 1_656 S
Tb0 O52 2.421 . S
Tb0 C64 2.833 . S
C1 C4 1.432 . S
C1 C5 1.414 . S
C1 N8 1.359 1_655 S
C2 C4 1.417 1_556 S
C2 C6 1.432 1_556 S
C2 C14 1.410 . S
C3 C5 1.444 . S
C3 C6 1.317 . S
C3 H26 0.929 . S
C4 C1 1.432 . S
C4 C2 1.417 1_554 S
C4 N12 1.360 1_554 S
C5 C1 1.414 . S
C5 C3 1.444 . S
C5 C10 1.385 1_655 S
C6 C2 1.432 1_554 S
C6 C3 1.317 . S
C6 H18 0.930 1_554 S
C7 C9 1.392 . S
C7 C10 1.370 . S
C7 H19 0.931 . S
N8 C1 1.359 1_455 S
N8 C9 1.327 . S
N8 Tb11 2.600 . S
C9 C7 1.392 . S
C9 N8 1.327 . S
C9 H16 0.930 . S
C10 C5 1.385 1_455 S
C10 C7 1.370 . S
C10 H29 0.944 . S
Tb11 N8 2.600 . S
Tb11 N12 2.660 1_454 S
Tb11 O45 2.362 1_454 S
Tb11 O46 2.421 . S
Tb11 O50 2.546 . S
Tb11 O51 2.610 . S
Tb11 O53 2.320 1_554 S
Tb11 O54 2.552 . S
Tb11 O55 2.413 1_554 S
Tb11 C75 2.833 . S
N12 C4 1.360 1_556 S
N12 Tb11 2.660 1_656 S
N12 C13 1.305 . S
C13 N12 1.305 . S
C13 C15 1.407 . S
C13 H20 0.930 . S
C14 C2 1.410 . S
C14 C15 1.345 . S
C14 H22 0.930 . S
C15 C13 1.407 . S
C15 C14 1.345 . S
C15 H17 0.930 . S
H16 C9 0.930 . S
H17 C15 0.930 . S
H18 C6 0.930 1_556 S
H19 C7 0.931 . S
H20 C13 0.930 . S
H21 C35 0.930 . S
H22 C14 0.930 . S
H23 C41 0.930 . S
H24 C32 0.930 . S
H25 C39 0.931 . S
H26 C3 0.929 . S
H27 C33 0.930 . S
H28 C66 0.930 1_554 S
H29 C10 0.944 . S
H30 C65 0.929 . S
N31 Tb0 2.660 1_454 S
N31 C32 1.305 . S
N31 C36 1.354 1_554 S
C32 H24 0.930 . S
C32 N31 1.305 . S
C32 C35 1.407 . S
C33 H27 0.930 . S
C33 C34 1.410 . S
C33 C35 1.345 . S
C34 C33 1.410 . S
C34 C36 1.415 1_554 S
C34 C66 1.432 1_554 S
C35 H21 0.930 . S
C35 C32 1.407 . S
C35 C33 1.345 . S
C36 N31 1.354 1_556 S
C36 C34 1.415 1_556 S
C36 C40 1.439 . S
H37 C42 0.925 1_455 S
N38 Tb0 2.600 . S
N38 C40 1.359 1_655 S
N38 C41 1.327 . S
C39 H25 0.931 . S
C39 C41 1.392 . S
C39 C42 1.370 . S
C40 C36 1.439 . S
C40 N38 1.359 1_455 S
C40 C43 1.414 . S
C41 H23 0.930 . S
C41 N38 1.327 . S
C41 C39 1.392 . S
C42 H37 0.925 1_655 S
C42 C39 1.370 . S
C42 C43 1.385 1_655 S
C43 C40 1.414 . S
C43 C42 1.385 1_455 S
C43 C65 1.444 . S
O44 Tb0 2.546 . S
O44 C64 1.251 . S
O45 Tb0 2.610 . S
O45 Tb11 2.362 1_656 S
O45 C56 1.283 . S
O46 Tb11 2.421 . S
O46 C63 1.262 . S
O47 Tb0 2.319 1_554 S
O47 C63 1.261 1_655 S
O48 Tb0 2.552 . S
O48 C56 1.243 . S
O49 Tb0 2.413 1_554 S
O49 C64 1.256 1_554 S
O50 Tb11 2.546 . S
O50 C75 1.251 . S
O51 Tb0 2.362 1_454 S
O51 Tb11 2.610 . S
O51 C67 1.283 . S
O52 Tb0 2.421 . S
O52 C74 1.262 . S
O53 Tb11 2.320 1_556 S
O53 C74 1.260 1_455 S
O54 Tb11 2.552 . S
O54 C67 1.243 . S
O55 Tb11 2.413 1_556 S
O55 C75 1.256 1_556 S
C56 O45 1.283 . S
C56 O48 1.243 . S
C57 C59 1.383 1_556 S
C57 C61 1.393 . S
C57 C64 1.500 . S
C58 C59 1.400 1_556 S
C58 C60 1.384 . S
C59 C57 1.383 1_554 S
C59 C58 1.400 1_554 S
C59 H76 0.929 . S
C60 C58 1.384 . S
C60 C62 1.392 . S
C60 H77 0.931 . S
C61 C57 1.393 . S
C61 C62 1.401 . S
C61 H78 0.930 . S
C62 C60 1.392 . S
C62 C61 1.401 . S
C62 H79 0.930 . S
C63 O46 1.262 . S
C63 O47 1.261 1_455 S
C64 Tb0 2.833 . S
C64 O44 1.251 . S
C64 O49 1.256 1_556 S
C64 C57 1.500 . S
C65 H30 0.929 . S
C65 C43 1.444 . S
C65 C66 1.317 . S
C66 H28 0.930 1_556 S
C66 C34 1.432 1_556 S
C66 C65 1.317 . S
C67 O51 1.283 . S
C67 O54 1.243 . S
C68 C69 1.382 . S
C68 C72 1.393 . S
C68 C75 1.500 . S
C69 C68 1.382 . S
C69 C70 1.400 . S
C69 H80 0.930 1_554 S
C70 C69 1.400 . S
C70 C71 1.384 . S
C71 C70 1.384 . S
C71 C73 1.392 . S
C71 H81 0.931 . S
C72 C68 1.393 . S
C72 C73 1.401 . S
C72 H82 0.930 . S
C73 C71 1.392 . S
C73 C72 1.401 . S
C73 H83 0.930 . S
C74 O52 1.262 . S
C74 O53 1.260 1_655 S
C75 Tb11 2.833 . S
C75 O50 1.251 . S
C75 O55 1.256 1_554 S
C75 C68 1.500 . S
H76 C59 0.929 . S
H77 C60 0.931 . S
H78 C61 0.930 . S
H79 C62 0.930 . S
H80 C69 0.930 1_556 S
H81 C71 0.931 . S
H82 C72 0.930 . S
H83 C73 0.930 . S
Tb84 N115 2.660 1_545 S
Tb84 N122 2.600 1_545 S
Tb84 O128 2.546 . S
Tb84 O129 2.610 1_554 S
Tb84 O131 2.320 1_554 S
Tb84 O132 2.552 . S
Tb84 O133 2.413 . S
Tb84 O135 2.362 1_545 S
Tb84 O136 2.421 . S
Tb84 C148 2.833 . S
C85 C88 1.432 . S
C85 C89 1.414 . S
C85 N92 1.359 . S
C86 C88 1.417 . S
C86 C90 1.432 . S
C86 C98 1.410 1_556 S
C87 C89 1.444 . S
C87 C90 1.317 . S
C87 H110 0.929 . S
C88 C85 1.432 . S
C88 C86 1.417 . S
C88 N96 1.360 . S
C89 C85 1.414 . S
C89 C87 1.444 . S
C89 C94 1.385 . S
C90 C86 1.432 . S
C90 C87 1.317 . S
C90 H102 0.930 . S
C91 C93 1.392 1_545 S
C91 C94 1.370 . S
C91 H103 0.931 1_545 S
N92 C85 1.359 . S
N92 C93 1.327 1_545 S
N92 Tb95 2.600 1_545 S
C93 C91 1.392 1_565 S
C93 N92 1.327 1_565 S
C93 H100 0.930 . S
C94 C89 1.385 . S
C94 C91 1.370 . S
C94 H113 0.930 . S
Tb95 N92 2.600 1_565 S
Tb95 N96 2.660 1_565 S
Tb95 O129 2.362 1_565 S
Tb95 O130 2.421 . S
Tb95 O134 2.546 . S
Tb95 O135 2.610 1_556 S
Tb95 O137 2.320 1_556 S
Tb95 O138 2.552 . S
Tb95 O139 2.413 . S
Tb95 C159 2.833 . S
N96 C88 1.360 . S
N96 Tb95 2.660 1_545 S
N96 C97 1.305 1_556 S
C97 N96 1.305 1_554 S
C97 C99 1.407 . S
C97 H104 0.930 . S
C98 C86 1.410 1_554 S
C98 C99 1.345 . S
C98 H106 0.930 . S
C99 C97 1.407 . S
C99 C98 1.345 . S
C99 H101 0.930 . S
H100 C93 0.930 . S
H101 C99 0.930 . S
H102 C90 0.930 . S
H103 C91 0.931 1_565 S
H104 C97 0.930 . S
H105 C119 0.930 . S
H106 C98 0.930 . S
H107 C125 0.930 . S
H108 C116 0.930 . S
H109 C123 0.932 . S
H110 C87 0.929 . S
H111 C117 0.930 . S
H112 C150 0.930 . S
H113 C94 0.930 . S
H114 C149 0.929 . S
N115 Tb84 2.660 1_565 S
N115 C116 1.305 1_554 S
N115 C120 1.360 . S
C116 H108 0.930 . S
C116 N115 1.305 1_556 S
C116 C119 1.407 . S
C117 H111 0.930 . S
C117 C118 1.410 1_556 S
C117 C119 1.345 . S
C118 C117 1.410 1_554 S
C118 C120 1.417 . S
C118 C150 1.432 . S
C119 H105 0.930 . S
C119 C116 1.407 . S
C119 C117 1.345 . S
C120 N115 1.360 . S
C120 C118 1.417 . S
C120 C124 1.432 . S
H121 C126 0.930 . S
N122 Tb84 2.600 1_565 S
N122 C124 1.359 . S
N122 C125 1.327 1_565 S
C123 H109 0.932 . S
C123 C125 1.394 . S
C123 C126 1.367 1_545 S
C124 C120 1.432 . S
C124 N122 1.359 . S
C124 C127 1.414 . S
C125 H107 0.930 . S
C125 N122 1.327 1_545 S
C125 C123 1.394 . S
C126 H121 0.930 . S
C126 C123 1.367 1_565 S
C126 C127 1.385 . S
C127 C124 1.414 . S
C127 C126 1.385 . S
C127 C149 1.444 . S
O128 Tb84 2.546 . S
O128 C148 1.251 . S
O129 Tb84 2.610 1_556 S
O129 Tb95 2.362 1_545 S
O129 C140 1.283 . S
O130 Tb95 2.421 . S
O130 C147 1.262 1_565 S
O131 Tb84 2.320 1_556 S
O131 C147 1.260 . S
O132 Tb84 2.552 . S
O132 C140 1.243 1_554 S
O133 Tb84 2.413 . S
O133 C148 1.256 . S
O134 Tb95 2.546 . S
O134 C159 1.251 . S
O135 Tb84 2.362 1_565 S
O135 Tb95 2.610 1_554 S
O135 C151 1.283 . S
O136 Tb84 2.421 . S
O136 C158 1.262 . S
O137 Tb95 2.320 1_554 S
O137 C158 1.260 1_565 S
O138 Tb95 2.552 . S
O138 C151 1.243 1_556 S
O139 Tb95 2.413 . S
O139 C159 1.256 . S
C140 O129 1.283 . S
C140 O132 1.243 1_556 S
C141 C143 1.382 . S
C141 C145 1.393 . S
C141 C148 1.500 . S
C142 C143 1.400 . S
C142 C144 1.384 . S
C143 C141 1.382 . S
C143 C142 1.400 . S
C143 H160 0.930 1_554 S
C144 C142 1.384 . S
C144 C146 1.392 . S
C144 H161 0.931 . S
C145 C141 1.393 . S
C145 C146 1.401 . S
C145 H162 0.930 . S
C146 C144 1.392 . S
C146 C145 1.401 . S
C146 H163 0.930 . S
C147 O130 1.262 1_545 S
C147 O131 1.260 . S
C148 Tb84 2.833 . S
C148 O128 1.251 . S
C148 O133 1.256 . S
C148 C141 1.500 . S
C149 H114 0.929 . S
C149 C127 1.444 . S
C149 C150 1.317 . S
C150 H112 0.930 . S
C150 C118 1.432 . S
C150 C149 1.317 . S
C151 O135 1.283 . S
C151 O138 1.243 1_554 S
C152 C153 1.382 . S
C152 C156 1.393 . S
C152 C159 1.500 . S
C153 C152 1.382 . S
C153 C154 1.400 . S
C153 H164 0.930 1_556 S
C154 C153 1.400 . S
C154 C155 1.384 . S
C155 C154 1.384 . S
C155 C157 1.392 . S
C155 H165 0.931 . S
C156 C152 1.393 . S
C156 C157 1.401 . S
C156 H166 0.930 . S
C157 C155 1.392 . S
C157 C156 1.401 . S
C157 H167 0.930 . S
C158 O136 1.262 . S
C158 O137 1.260 1_545 S
C159 Tb95 2.833 . S
C159 O134 1.251 . S
C159 O139 1.256 . S
C159 C152 1.500 . S
H160 C143 0.930 1_556 S
H161 C144 0.931 . S
H162 C145 0.930 . S
H163 C146 0.930 . S
H164 C153 0.930 1_554 S
H165 C155 0.931 . S
H166 C156 0.930 . S
H167 C157 0.930 . S
Tb168 N199 2.660 . S
Tb168 N206 2.600 . S
Tb168 O212 2.546 . S
Tb168 O213 2.610 1_556 S
Tb168 O215 2.320 1_556 S
Tb168 O216 2.552 . S
Tb168 O217 2.413 . S
Tb168 O219 2.362 . S
Tb168 O220 2.421 . S
Tb168 C232 2.833 . S
C169 C172 1.432 . S
C169 C173 1.414 . S
C169 N176 1.359 . S
C170 C172 1.417 . S
C170 C174 1.432 . S
C170 C182 1.410 1_554 S
C171 C173 1.444 . S
C171 C174 1.317 . S
C171 H194 0.929 . S
C172 C169 1.432 . S
C172 C170 1.417 . S
C172 N180 1.360 . S
C173 C169 1.414 . S
C173 C171 1.444 . S
C173 C178 1.385 . S
C174 C170 1.432 . S
C174 C171 1.317 . S
C174 H186 0.930 . S
C175 C177 1.392 . S
C175 C178 1.370 . S
C175 H187 0.931 . S
N176 C169 1.359 . S
N176 C177 1.327 . S
N176 Tb179 2.600 . S
C177 C175 1.392 . S
C177 N176 1.327 . S
C177 H184 0.930 . S
C178 C173 1.385 . S
C178 C175 1.370 . S
C178 H197 0.930 . S
Tb179 N176 2.600 . S
Tb179 N180 2.660 . S
Tb179 O213 2.362 . S
Tb179 O214 2.421 . S
Tb179 O218 2.546 . S
Tb179 O219 2.610 1_554 S
Tb179 O221 2.320 1_554 S
Tb179 O222 2.552 . S
Tb179 O223 2.413 . S
Tb179 C243 2.833 . S
N180 C172 1.360 . S
N180 Tb179 2.660 . S
N180 C181 1.305 1_554 S
C181 N180 1.305 1_556 S
C181 C183 1.407 . S
C181 H188 0.930 . S
C182 C170 1.410 1_556 S
C182 C183 1.345 . S
C182 H190 0.930 . S
C183 C181 1.407 . S
C183 C182 1.345 . S
C183 H185 0.930 . S
H184 C177 0.930 . S
H185 C183 0.930 . S
H186 C174 0.930 . S
H187 C175 0.931 . S
H188 C181 0.930 . S
H189 C203 0.930 . S
H190 C182 0.930 . S
H191 C209 0.930 . S
H192 C200 0.930 . S
H193 C207 0.931 . S
H194 C171 0.929 . S
H195 C201 0.930 . S
H196 C234 0.930 . S
H197 C178 0.930 . S
H198 C233 0.929 . S
N199 Tb168 2.660 . S
N199 C200 1.305 1_556 S
N199 C204 1.360 . S
C200 H192 0.930 . S
C200 N199 1.305 1_554 S
C200 C203 1.407 . S
C201 H195 0.930 . S
C201 C202 1.410 1_554 S
C201 C203 1.345 . S
C202 C201 1.410 1_556 S
C202 C204 1.417 . S
C202 C234 1.432 . S
C203 H189 0.930 . S
C203 C200 1.407 . S
C203 C201 1.345 . S
C204 N199 1.360 . S
C204 C202 1.417 . S
C204 C208 1.432 . S
H205 C210 0.930 . S
N206 Tb168 2.600 . S
N206 C208 1.359 . S
N206 C209 1.327 . S
C207 H193 0.931 . S
C207 C209 1.392 . S
C207 C210 1.370 . S
C208 C204 1.432 . S
C208 N206 1.359 . S
C208 C211 1.414 . S
C209 H191 0.930 . S
C209 N206 1.327 . S
C209 C207 1.392 . S
C210 H205 0.930 . S
C210 C207 1.370 . S
C210 C211 1.385 . S
C211 C208 1.414 . S
C211 C210 1.385 . S
C211 C233 1.444 . S
O212 Tb168 2.546 . S
O212 C232 1.251 . S
O213 Tb168 2.610 1_554 S
O213 Tb179 2.362 . S
O213 C224 1.283 . S
O214 Tb179 2.421 . S
O214 C231 1.262 . S
O215 Tb168 2.320 1_554 S
O215 C231 1.260 . S
O216 Tb168 2.552 . S
O216 C224 1.243 1_556 S
O217 Tb168 2.413 . S
O217 C232 1.256 . S
O218 Tb179 2.546 . S
O218 C243 1.251 . S
O219 Tb168 2.362 . S
O219 Tb179 2.610 1_556 S
O219 C235 1.283 . S
O220 Tb168 2.421 . S
O220 C242 1.262 . S
O221 Tb179 2.320 1_556 S
O221 C242 1.260 . S
O222 Tb179 2.552 . S
O222 C235 1.243 1_554 S
O223 Tb179 2.413 . S
O223 C243 1.256 . S
C224 O213 1.283 . S
C224 O216 1.243 1_554 S
C225 C227 1.382 . S
C225 C229 1.393 . S
C225 C232 1.500 . S
C226 C227 1.400 . S
C226 C228 1.384 . S
C227 C225 1.382 . S
C227 C226 1.400 . S
C227 H244 0.930 1_556 S
C228 C226 1.384 . S
C228 C230 1.392 . S
C228 H245 0.931 . S
C229 C225 1.393 . S
C229 C230 1.401 . S
C229 H246 0.930 . S
C230 C228 1.392 . S
C230 C229 1.401 . S
C230 H247 0.930 . S
C231 O214 1.262 . S
C231 O215 1.260 . S
C232 Tb168 2.833 . S
C232 O212 1.251 . S
C232 O217 1.256 . S
C232 C225 1.500 . S
C233 H198 0.929 . S
C233 C211 1.444 . S
C233 C234 1.317 . S
C234 H196 0.930 . S
C234 C202 1.432 . S
C234 C233 1.317 . S
C235 O219 1.283 . S
C235 O222 1.243 1_556 S
C236 C237 1.382 . S
C236 C240 1.393 . S
C236 C243 1.500 . S
C237 C236 1.382 . S
C237 C238 1.400 . S
C237 H248 0.930 1_554 S
C238 C237 1.400 . S
C238 C239 1.384 . S
C239 C238 1.384 . S
C239 C241 1.392 . S
C239 H249 0.931 . S
C240 C236 1.393 . S
C240 C241 1.401 . S
C240 H250 0.930 . S
C241 C239 1.392 . S
C241 C240 1.401 . S
C241 H251 0.930 . S
C242 O220 1.262 . S
C242 O221 1.260 . S
C243 Tb179 2.833 . S
C243 O218 1.251 . S
C243 O223 1.256 . S
C243 C236 1.500 . S
H244 C227 0.930 1_554 S
H245 C228 0.931 . S
H246 C229 0.930 . S
H247 C230 0.930 . S
H248 C237 0.930 1_556 S
H249 C239 0.931 . S
H250 C240 0.930 . S
H251 C241 0.930 . S
H252 C258 0.930 . S
H253 C262 0.930 . S
H254 C267 0.929 . S
H255 C265 0.929 . S
H256 C260 0.929 . S
H257 C266 0.929 . S
C258 H252 0.930 . S
C258 C259 1.367 1_455 S
C258 C266 1.378 . S
C259 C258 1.367 1_655 S
C259 C267 1.433 . S
C260 H256 0.929 . S
C260 C262 1.378 . S
C260 C264 1.349 1_655 S
C261 C264 1.473 . S
C261 C266 1.355 . S
C261 N269 1.410 1_455 S
C262 H253 0.930 . S
C262 C260 1.378 . S
C262 C263 1.367 1_655 S
C263 C262 1.367 1_455 S
C263 C265 1.433 . S
C264 C260 1.349 1_455 S
C264 C261 1.473 . S
C264 N268 1.431 . S
C265 H255 0.929 . S
C265 C263 1.433 . S
C265 N268 1.384 . S
C266 H257 0.929 . S
C266 C258 1.378 . S
C266 C261 1.355 . S
C267 H254 0.929 . S
C267 C259 1.433 . S
C267 N269 1.384 . S
N268 C264 1.431 . S
N268 C265 1.384 . S
N269 C261 1.410 1_655 S
N269 C267 1.384 . S
H270 C276 0.930 . S
H271 C280 0.930 . S
H272 C285 0.929 . S
H273 C283 0.929 . S
H274 C278 0.929 . S
H275 C284 0.929 . S
C276 H270 0.930 . S
C276 C277 1.367 . S
C276 C284 1.378 . S
C277 C276 1.367 . S
C277 C285 1.433 1_565 S
C278 H274 0.929 . S
C278 C280 1.378 . S
C278 C282 1.350 . S
C279 C282 1.463 1_565 S
C279 C284 1.350 . S
C279 N287 1.427 1_565 S
C280 H271 0.930 . S
C280 C278 1.378 . S
C280 C281 1.367 . S
C281 C280 1.367 . S
C281 C283 1.433 1_545 S
C282 C278 1.350 . S
C282 C279 1.463 1_545 S
C282 N286 1.427 1_545 S
C283 H273 0.929 . S
C283 C281 1.433 1_565 S
C283 N286 1.384 . S
C284 H275 0.929 . S
C284 C276 1.378 . S
C284 C279 1.350 . S
C285 H272 0.929 . S
C285 C277 1.433 1_545 S
C285 N287 1.384 . S
N286 C282 1.427 1_565 S
N286 C283 1.384 . S
N287 C279 1.427 1_545 S
N287 C285 1.384 . S
H288 C294 0.930 . S
H289 C298 0.930 . S
H290 C303 0.929 . S
H291 C301 0.929 . S
H292 C296 0.929 . S
H293 C302 0.929 . S
C294 H288 0.930 . S
C294 C295 1.367 . S
C294 C302 1.378 . S
C295 C294 1.367 . S
C295 C303 1.433 . S
C296 H292 0.929 . S
C296 C298 1.378 . S
C296 C300 1.350 . S
C297 C300 1.463 . S
C297 C302 1.350 . S
C297 N305 1.427 . S
C298 H289 0.930 . S
C298 C296 1.378 . S
C298 C299 1.367 . S
C299 C298 1.367 . S
C299 C301 1.433 . S
C300 C296 1.350 . S
C300 C297 1.463 . S
C300 N304 1.427 . S
C301 H291 0.929 . S
C301 C299 1.433 . S
C301 N304 1.384 . S
C302 H293 0.929 . S
C302 C294 1.378 . S
C302 C297 1.350 . S
C303 H290 0.929 . S
C303 C295 1.433 . S
C303 N305 1.384 . S
N304 C300 1.427 . S
N304 C301 1.384 . S
N305 C297 1.427 . S
N305 C303 1.384 . S
H306 C312 0.930 . S
H307 C316 0.930 . S
H308 C321 0.929 . S
H309 C319 0.929 . S
H310 C314 0.929 . S
H311 C320 0.929 . S
C312 H306 0.930 . S
C312 C313 1.367 1_556 S
C312 C320 1.378 . S
C313 C312 1.367 1_554 S
C313 C321 1.433 . S
C314 H310 0.929 . S
C314 C316 1.378 . S
C314 C318 1.350 . S
C315 C318 1.463 . S
C315 C320 1.350 1_554 S
C315 N323 1.427 . S
C316 H307 0.930 . S
C316 C314 1.378 . S
C316 C317 1.369 . S
C317 C316 1.369 . S
C317 C319 1.433 1_554 S
C318 C314 1.350 . S
C318 C315 1.463 . S
C318 N322 1.427 1_554 S
C319 H309 0.929 . S
C319 C317 1.433 1_556 S
C319 N322 1.384 . S
C320 H311 0.929 . S
C320 C312 1.378 . S
C320 C315 1.350 1_556 S
C321 H308 0.929 . S
C321 C313 1.433 . S
C321 N323 1.384 . S
N322 C318 1.427 1_556 S
N322 C319 1.384 . S
N323 C315 1.427 . S
N323 C321 1.384 . S
H324 C330 0.930 . S
H325 C334 0.930 1_556 S
H326 C339 0.929 . S
H327 C337 0.929 . S
H328 C332 0.929 1_556 S
H329 C338 0.929 . S
C330 H324 0.930 . S
C330 C331 1.367 . S
C330 C338 1.378 . S
C331 C330 1.367 . S
C331 C339 1.433 1_554 S
C332 H328 0.929 1_554 S
C332 C334 1.378 . S
C332 C336 1.350 . S
C333 C336 1.463 . S
C333 C338 1.350 . S
C333 N341 1.427 . S
C334 H325 0.930 1_554 S
C334 C332 1.378 . S
C334 C335 1.367 . S
C335 C334 1.367 . S
C335 C337 1.433 . S
C336 C332 1.350 . S
C336 C333 1.463 . S
C336 N340 1.427 . S
C337 H327 0.929 . S
C337 C335 1.433 . S
C337 N340 1.384 . S
C338 H329 0.929 . S
C338 C330 1.378 . S
C338 C333 1.350 . S
C339 H326 0.929 . S
C339 C331 1.433 1_556 S
C339 N341 1.384 1_556 S
N340 C336 1.427 . S
N340 C337 1.384 . S
N341 C333 1.427 . S
N341 C339 1.384 1_554 S
H342 C348 0.930 . S
H343 C352 0.930 . S
H344 C357 0.929 . S
H345 C355 0.929 . S
H346 C350 0.929 . S
H347 C356 0.929 . S
C348 H342 0.930 . S
C348 C349 1.367 . S
C348 C356 1.378 . S
C349 C348 1.367 . S
C349 C357 1.433 1_554 S
C350 H346 0.929 . S
C350 C352 1.378 . S
C350 C354 1.350 1_556 S
C351 C354 1.463 . S
C351 C356 1.350 . S
C351 N359 1.427 1_554 S
C352 H343 0.930 . S
C352 C350 1.378 . S
C352 C353 1.367 1_556 S
C353 C352 1.367 1_554 S
C353 C355 1.433 . S
C354 C350 1.350 1_554 S
C354 C351 1.463 . S
C354 N358 1.427 . S
C355 H345 0.929 . S
C355 C353 1.433 . S
C355 N358 1.384 . S
C356 H347 0.929 . S
C356 C348 1.378 . S
C356 C351 1.350 . S
C357 H344 0.929 . S
C357 C349 1.433 1_556 S
C357 N359 1.384 . S
N358 C354 1.427 . S
N358 C355 1.384 . S
N359 C351 1.427 1_556 S
N359 C357 1.384 . S
H360 C366 0.930 . S
H361 C370 0.930 . S
H362 C375 0.929 . S
H363 C373 0.929 . S
H364 C368 0.929 . S
H365 C374 0.929 . S
C366 H360 0.930 . S
C366 C367 1.367 1_554 S
C366 C374 1.378 . S
C367 C366 1.367 1_556 S
C367 C375 1.433 . S
C368 H364 0.929 . S
C368 C370 1.378 . S
C368 C372 1.350 . S
C369 C372 1.463 . S
C369 C374 1.350 1_556 S
C369 N377 1.427 . S
C370 H361 0.930 . S
C370 C368 1.378 . S
C370 C371 1.376 . S
C371 C370 1.376 . S
C371 C373 1.429 1_556 S
C372 C368 1.350 . S
C372 C369 1.463 . S
C372 N376 1.427 1_556 S
C373 H363 0.929 . S
C373 C371 1.429 1_554 S
C373 N376 1.384 . S
C374 H365 0.929 . S
C374 C366 1.378 . S
C374 C369 1.350 1_554 S
C375 H362 0.929 . S
C375 C367 1.433 . S
C375 N377 1.384 . S
N376 C372 1.427 1_554 S
N376 C373 1.384 . S
N377 C369 1.427 . S
N377 C375 1.384 . S
H378 C384 0.930 . S
H379 C388 0.930 . S
H380 C393 0.929 . S
H381 C391 0.929 . S
H382 C386 0.929 . S
H383 C392 0.929 . S
C384 H378 0.930 . S
C384 C385 1.367 1_554 S
C384 C392 1.378 . S
C385 C384 1.367 1_556 S
C385 C393 1.433 . S
C386 H382 0.929 . S
C386 C388 1.378 . S
C386 C390 1.350 . S
C387 C390 1.463 . S
C387 C392 1.350 1_556 S
C387 N395 1.427 . S
C388 H379 0.930 . S
C388 C386 1.378 . S
C388 C389 1.367 . S
C389 C388 1.367 . S
C389 C391 1.433 1_556 S
C390 C386 1.350 . S
C390 C387 1.463 . S
C390 N394 1.427 1_556 S
C391 H381 0.929 . S
C391 C389 1.433 1_554 S
C391 N394 1.384 . S
C392 H383 0.929 . S
C392 C384 1.378 . S
C392 C387 1.350 1_554 S
C393 H380 0.929 . S
C393 C385 1.433 . S
C393 N395 1.384 . S
N394 C390 1.427 1_554 S
N394 C391 1.384 . S
N395 C387 1.427 . S
N395 C393 1.384 . S
H396 C402 0.930 . S
H397 C406 0.930 . S
H398 C411 0.929 . S
H399 C409 0.929 . S
H400 C404 0.929 . S
H401 C410 0.929 . S
C402 H396 0.930 . S
C402 C403 1.367 . S
C402 C410 1.378 . S
C403 C402 1.367 . S
C403 C411 1.433 1_556 S
C404 H400 0.929 . S
C404 C406 1.378 . S
C404 C408 1.350 1_554 S
C405 C408 1.463 . S
C405 C410 1.350 . S
C405 N413 1.427 1_556 S
C406 H397 0.930 . S
C406 C404 1.378 . S
C406 C407 1.367 1_554 S
C407 C406 1.367 1_556 S
C407 C409 1.433 . S
C408 C404 1.350 1_556 S
C408 C405 1.463 . S
C408 N412 1.427 . S
C409 H399 0.929 . S
C409 C407 1.433 . S
C409 N412 1.384 . S
C410 H401 0.929 . S
C410 C402 1.378 . S
C410 C405 1.350 . S
C411 H398 0.929 . S
C411 C403 1.433 1_554 S
C411 N413 1.384 . S
N412 C408 1.427 . S
N412 C409 1.384 . S
N413 C405 1.427 1_554 S
N413 C411 1.384 . S
C259 C74 1.490 . S
C263 C63 1.490 . S
C277 C158 1.482 1_565 S
C281 C147 1.482 . S
C295 C242 1.484 . S
C299 C231 1.484 . S
C313 C67 1.565 . S
C317 C226 1.483 1_554 S
C331 C142 0.776 . S
C335 C58 0.798 1_554 S
C349 C151 2.314 . S
C353 C224 2.373 . S
C367 C56 1.580 . S
C371 C238 1.494 1_556 S
C385 C70 0.776 1_556 S
C389 C154 0.766 . S
C403 C235 2.379 . S
C407 C140 2.309 . S
