# Generated by pormake.
# Topology rhr, (4)-cn, num edge types: 1
# Building blocks:
#     Node 0, Type 0, BuildingBlock: ESEHIV_clean_sbu_0, # of connection points: 4
#     Node 1, Type 0, BuildingBlock: ESEHIV_clean_sbu_0, # of connection points: 4
#     Node 2, Type 0, BuildingBlock: ESEHIV_clean_sbu_0, # of connection points: 4
#     Node 3, Type 0, BuildingBlock: ESEHIV_clean_sbu_0, # of connection points: 4
#     Node 4, Type 0, BuildingBlock: ESEHIV_clean_sbu_0, # of connection points: 4
#     Node 5, Type 0, BuildingBlock: ESEHIV_clean_sbu_0, # of connection points: 4
#     Node 6, Type 0, BuildingBlock: ESEHIV_clean_sbu_0, # of connection points: 4
#     Node 7, Type 0, BuildingBlock: ESEHIV_clean_sbu_0, # of connection points: 4
#     Node 8, Type 0, BuildingBlock: ESEHIV_clean_sbu_0, # of connection points: 4
#     Node 9, Type 0, BuildingBlock: ESEHIV_clean_sbu_0, # of connection points: 4
#     Node 10, Type 0, BuildingBlock: ESEHIV_clean_sbu_0, # of connection points: 4
#     Node 11, Type 0, BuildingBlock: ESEHIV_clean_sbu_0, # of connection points: 4
#     Node 12, Type 0, BuildingBlock: ESEHIV_clean_sbu_0, # of connection points: 4
#     Node 13, Type 0, BuildingBlock: ESEHIV_clean_sbu_0, # of connection points: 4
#     Node 14, Type 0, BuildingBlock: ESEHIV_clean_sbu_0, # of connection points: 4
#     Node 15, Type 0, BuildingBlock: ESEHIV_clean_sbu_0, # of connection points: 4
#     Node 16, Type 0, BuildingBlock: ESEHIV_clean_sbu_0, # of connection points: 4
#     Node 17, Type 0, BuildingBlock: ESEHIV_clean_sbu_0, # of connection points: 4
#     Node 18, Type 0, BuildingBlock: ESEHIV_clean_sbu_0, # of connection points: 4
#     Node 19, Type 0, BuildingBlock: ESEHIV_clean_sbu_0, # of connection points: 4
#     Node 20, Type 0, BuildingBlock: ESEHIV_clean_sbu_0, # of connection points: 4
#     Node 21, Type 0, BuildingBlock: ESEHIV_clean_sbu_0, # of connection points: 4
#     Node 22, Type 0, BuildingBlock: ESEHIV_clean_sbu_0, # of connection points: 4
#     Node 23, Type 0, BuildingBlock: ESEHIV_clean_sbu_0, # of connection points: 4
#     Edge 24, Type (0, 0), BuildingBlock: ZUJKAS_clean_linker_0, # of connection points: 2
#     Edge 25, Type (0, 0), BuildingBlock: ZUJKAS_clean_linker_0, # of connection points: 2
#     Edge 26, Type (0, 0), BuildingBlock: ZUJKAS_clean_linker_0, # of connection points: 2
#     Edge 27, Type (0, 0), BuildingBlock: ZUJKAS_clean_linker_0, # of connection points: 2
#     Edge 28, Type (0, 0), BuildingBlock: ZUJKAS_clean_linker_0, # of connection points: 2
#     Edge 29, Type (0, 0), BuildingBlock: ZUJKAS_clean_linker_0, # of connection points: 2
#     Edge 30, Type (0, 0), BuildingBlock: ZUJKAS_clean_linker_0, # of connection points: 2
#     Edge 31, Type (0, 0), BuildingBlock: ZUJKAS_clean_linker_0, # of connection points: 2
#     Edge 32, Type (0, 0), BuildingBlock: ZUJKAS_clean_linker_0, # of connection points: 2
#     Edge 33, Type (0, 0), BuildingBlock: ZUJKAS_clean_linker_0, # of connection points: 2
#     Edge 34, Type (0, 0), BuildingBlock: ZUJKAS_clean_linker_0, # of connection points: 2
#     Edge 35, Type (0, 0), BuildingBlock: ZUJKAS_clean_linker_0, # of connection points: 2
#     Edge 36, Type (0, 0), BuildingBlock: ZUJKAS_clean_linker_0, # of connection points: 2
#     Edge 37, Type (0, 0), BuildingBlock: ZUJKAS_clean_linker_0, # of connection points: 2
#     Edge 38, Type (0, 0), BuildingBlock: ZUJKAS_clean_linker_0, # of connection points: 2
#     Edge 39, Type (0, 0), BuildingBlock: ZUJKAS_clean_linker_0, # of connection points: 2
#     Edge 40, Type (0, 0), BuildingBlock: ZUJKAS_clean_linker_0, # of connection points: 2
#     Edge 41, Type (0, 0), BuildingBlock: ZUJKAS_clean_linker_0, # of connection points: 2
#     Edge 42, Type (0, 0), BuildingBlock: ZUJKAS_clean_linker_0, # of connection points: 2
#     Edge 43, Type (0, 0), BuildingBlock: ZUJKAS_clean_linker_0, # of connection points: 2
#     Edge 44, Type (0, 0), BuildingBlock: ZUJKAS_clean_linker_0, # of connection points: 2
#     Edge 45, Type (0, 0), BuildingBlock: ZUJKAS_clean_linker_0, # of connection points: 2
#     Edge 46, Type (0, 0), BuildingBlock: ZUJKAS_clean_linker_0, # of connection points: 2
#     Edge 47, Type (0, 0), BuildingBlock: ZUJKAS_clean_linker_0, # of connection points: 2
#     Edge 48, Type (0, 0), BuildingBlock: ZUJKAS_clean_linker_0, # of connection points: 2
#     Edge 49, Type (0, 0), BuildingBlock: ZUJKAS_clean_linker_0, # of connection points: 2
#     Edge 50, Type (0, 0), BuildingBlock: ZUJKAS_clean_linker_0, # of connection points: 2
#     Edge 51, Type (0, 0), BuildingBlock: ZUJKAS_clean_linker_0, # of connection points: 2
#     Edge 52, Type (0, 0), BuildingBlock: ZUJKAS_clean_linker_0, # of connection points: 2
#     Edge 53, Type (0, 0), BuildingBlock: ZUJKAS_clean_linker_0, # of connection points: 2
#     Edge 54, Type (0, 0), BuildingBlock: ZUJKAS_clean_linker_0, # of connection points: 2
#     Edge 55, Type (0, 0), BuildingBlock: ZUJKAS_clean_linker_0, # of connection points: 2
#     Edge 56, Type (0, 0), BuildingBlock: ZUJKAS_clean_linker_0, # of connection points: 2
#     Edge 57, Type (0, 0), BuildingBlock: ZUJKAS_clean_linker_0, # of connection points: 2
#     Edge 58, Type (0, 0), BuildingBlock: ZUJKAS_clean_linker_0, # of connection points: 2
#     Edge 59, Type (0, 0), BuildingBlock: ZUJKAS_clean_linker_0, # of connection points: 2
#     Edge 60, Type (0, 0), BuildingBlock: ZUJKAS_clean_linker_0, # of connection points: 2
#     Edge 61, Type (0, 0), BuildingBlock: ZUJKAS_clean_linker_0, # of connection points: 2
#     Edge 62, Type (0, 0), BuildingBlock: ZUJKAS_clean_linker_0, # of connection points: 2
#     Edge 63, Type (0, 0), BuildingBlock: ZUJKAS_clean_linker_0, # of connection points: 2
#     Edge 64, Type (0, 0), BuildingBlock: ZUJKAS_clean_linker_0, # of connection points: 2
#     Edge 65, Type (0, 0), BuildingBlock: ZUJKAS_clean_linker_0, # of connection points: 2
#     Edge 66, Type (0, 0), BuildingBlock: ZUJKAS_clean_linker_0, # of connection points: 2
#     Edge 67, Type (0, 0), BuildingBlock: ZUJKAS_clean_linker_0, # of connection points: 2
#     Edge 68, Type (0, 0), BuildingBlock: ZUJKAS_clean_linker_0, # of connection points: 2
#     Edge 69, Type (0, 0), BuildingBlock: ZUJKAS_clean_linker_0, # of connection points: 2
#     Edge 70, Type (0, 0), BuildingBlock: ZUJKAS_clean_linker_0, # of connection points: 2
#     Edge 71, Type (0, 0), BuildingBlock: ZUJKAS_clean_linker_0, # of connection points: 2
# Relax obj value: 0.006
# Max RMSD: 0.128
# Mean RMSD: 0.095
data_MOF--net-rhr--node1-ESEHIV_clean_sbu_0--edge1-ZUJKAS_clean_linker_0
_symmetry_space_group_name_H-M    P1
_symmetry_Int_Tables_number       1
_symmetry_cell_setting            triclinic
loop_
_symmetry_equiv_pos_as_xyz
'x, y, z'
_cell_length_a     70.134288
_cell_length_b     70.01815
_cell_length_c     70.13272
_cell_angle_alpha  90.276304
_cell_angle_beta   92.505065
_cell_angle_gamma 92.150889
loop_
_atom_site_label
_atom_site_type_symbol
_atom_site_fract_x
_atom_site_fract_y
_atom_site_fract_z
_atom_type_partial_charge
Cu0 Cu 0.38339 0.03158 0.35335 0.0
N1 N 0.40512 1.01726 0.35134 0.0
N2 N 0.43024 1.00532 0.33754 0.0
C3 C 0.41458 1.0158 0.33518 0.0
C4 C 0.43063 0.9999 0.356 0.0
C5 C 0.41507 1.00726 0.36448 0.0
O6 O 0.38297 0.04737 0.33018 0.0
C7 C 0.36118 1.00609 0.3737 0.0
O8 O 0.37563 1.00998 0.3858 0.0
H9 H 0.41025 0.02269 0.32201 0.0
H10 H 0.41146 1.00557 0.37922 0.0
N11 N 0.3861 0.04794 0.3745 0.0
N12 N 0.37947 0.0707 0.39528 0.0
C13 C 0.37381 0.06136 0.37902 0.0
C14 C 0.40008 0.04889 0.3883 0.0
C15 C 0.39595 0.06287 0.40123 0.0
C16 C 0.3957 0.06095 0.33023 0.0
O17 O 0.40645 0.06403 0.34583 0.0
H18 H 0.36079 0.06394 0.37073 0.0
H19 H 0.41238 0.04004 0.38896 0.0
O20 O 0.36116 1.01417 0.35738 0.0
H21 H 0.44128 0.99115 0.36287 0.0
H22 H 0.40445 0.06703 0.41393 0.0
Cu23 Cu 0.02998 0.33808 0.36196 0.0
N24 N 0.0461 0.31699 0.36221 0.0
N25 N 0.06562 0.29498 0.37463 0.0
C26 C 0.05424 0.30966 0.37826 0.0
C27 C 0.06458 0.29309 0.3554 0.0
C28 C 0.05256 0.30663 0.34781 0.0
O29 O 1.01445 0.33436 0.38416 0.0
C30 C 0.05447 0.36325 0.34551 0.0
O31 O 0.05059 0.35042 0.33203 0.0
H32 H 0.05206 0.31529 0.39236 0.0
H33 H 0.04894 0.30881 0.33286 0.0
N34 N 1.01273 0.33999 0.34057 0.0
N35 N 0.99159 0.35329 0.31995 0.0
C36 C 1.00294 0.35574 0.336 0.0
C37 C 1.00743 0.32704 0.32695 0.0
C38 C 0.99446 0.33516 0.31428 0.0
C39 C 1.00597 0.3179 0.38407 0.0
O40 O 1.00791 0.30651 0.36939 0.0
H41 H 1.00403 0.36869 0.34451 0.0
H42 H 1.01264 0.31272 0.32626 0.0
O43 O 0.04678 0.36097 0.36155 0.0
H44 H 0.07185 0.28258 0.34734 0.0
H45 H 0.98787 0.32821 0.30171 0.0
Cu46 Cu 0.70685 0.02481 0.35503 0.0
N47 N 0.7069 0.04254 0.33532 0.0
N48 N 0.69677 0.0647 0.31488 0.0
C49 C 0.69163 0.05061 0.32689 0.0
C50 C 0.71605 0.06531 0.31559 0.0
C51 C 0.72224 0.05162 0.32822 0.0
O52 O 0.68692 1.00508 0.34962 0.0
C53 C 0.699 0.0546 0.38152 0.0
O54 O 0.68775 0.06113 0.36779 0.0
H55 H 0.67709 0.04706 0.33047 0.0
H56 H 0.7369 0.04897 0.33252 0.0
N57 N 0.72998 1.01269 0.35544 0.0
N58 N 0.7567 0.99973 0.36687 0.0
C59 C 0.74071 1.0087 0.37116 0.0
C60 C 0.73941 1.00605 0.34065 0.0
C61 C 0.75597 0.99808 0.34766 0.0
C62 C 0.66889 1.00675 0.34938 0.0
O63 O 0.66189 0.02291 0.3549 0.0
H64 H 0.73689 1.01249 0.38544 0.0
H65 H 0.73452 1.0069 0.32584 0.0
O66 O 0.70648 0.03847 0.37937 0.0
H67 H 0.72506 0.07526 0.30797 0.0
H68 H 0.76643 0.99127 0.33929 0.0
Cu69 Cu 1.00798 0.68829 0.34901 0.0
N70 N 0.02352 0.66664 0.34826 0.0
N71 N 0.0429 0.64461 0.33696 0.0
C72 C 0.03388 0.66109 0.33347 0.0
C73 C 0.03813 0.63967 0.35478 0.0
C74 C 0.02622 0.65318 0.36165 0.0
O75 O 0.99062 0.68584 0.32639 0.0
C76 C 0.03591 0.71112 0.36664 0.0
O77 O 0.03593 0.69554 0.37701 0.0
H78 H 0.03498 0.66908 0.32043 0.0
H79 H 0.01985 0.65308 0.37542 0.0
N80 N 0.99213 0.68869 0.37019 0.0
N81 N 0.9733 0.70028 0.39253 0.0
C82 C 0.98615 0.70448 0.37906 0.0
C83 C 0.98273 0.67395 0.37824 0.0
C84 C 0.97125 0.68098 0.39197 0.0
C85 C 0.99532 0.68568 0.30903 0.0
O86 O 1.0127 0.69136 0.30487 0.0
H87 H 0.99095 0.71879 0.37538 0.0
H88 H 0.98366 0.65916 0.37399 0.0
O89 O 0.02454 0.71144 0.35191 0.0
H90 H 0.04255 0.62697 0.36223 0.0
H91 H 0.96165 0.6724 0.40037 0.0
Cu92 Cu 0.34217 1.00839 0.69985 0.0
N93 N 0.34428 0.02373 0.72205 0.0
N94 N 0.35791 0.04161 0.74602 0.0
C95 C 0.35967 0.02648 0.73419 0.0
C96 C 0.3406 0.04843 0.74127 0.0
C97 C 0.33234 0.03752 0.7265 0.0
O98 O 0.36114 0.98826 0.70259 0.0
C99 C 0.3376 0.02306 0.66115 0.0
O100 O 0.33683 1.00523 0.65526 0.0
H101 H 0.37247 0.01846 0.73352 0.0
H102 H 0.31913 0.0403 0.71867 0.0
N103 N 0.31794 0.99594 0.69705 0.0
N104 N 0.29336 0.98043 0.6813 0.0
C105 C 0.31254 0.98353 0.68288 0.0
C106 C 0.30165 1.0004 0.70519 0.0
C107 C 0.28652 0.99086 0.69557 0.0
C108 C 0.37921 0.99068 0.70521 0.0
O109 O 0.38705 1.00779 0.70282 0.0
H110 H 0.32249 0.97759 0.67336 0.0
H111 H 0.30062 1.01078 0.7165 0.0
O112 O 0.34259 0.02677 0.67856 0.0
H113 H 0.33463 0.06096 0.74742 0.0
H114 H 0.27157 0.99261 0.69807 0.0
Cu115 Cu 0.04599 0.38934 0.67128 0.0
N116 N 0.05986 0.3895 0.64911 0.0
N117 N 0.07861 0.37815 0.62709 0.0
C118 C 0.06842 0.37409 0.64253 0.0
C119 C 0.07635 0.39693 0.62381 0.0
C120 C 0.06469 0.4039 0.6374 0.0
O121 O 0.02655 0.36866 0.66844 0.0
C122 C 0.07699 0.40162 0.69314 0.0
O123 O 0.0767 0.41371 0.67887 0.0
H124 H 0.06775 0.36031 0.64946 0.0
H125 H 0.06051 0.41851 0.63895 0.0
N126 N 0.03344 0.41192 0.67528 0.0
N127 N 0.01978 0.43429 0.69234 0.0
C128 C 0.0293 0.41791 0.69279 0.0
C129 C 0.02625 0.4249 0.66313 0.0
C130 C 1.01776 0.43875 0.67365 0.0
C131 C 1.01615 0.36972 0.65311 0.0
O132 O 0.01949 0.38406 0.64156 0.0
H133 H 0.03281 0.40999 0.7056 0.0
H134 H 0.02691 0.42425 0.64777 0.0
O135 O 0.06435 0.388 0.69297 0.0
H136 H 0.08281 0.40508 0.61254 0.0
H137 H 1.01067 0.45108 0.66796 0.0
Cu138 Cu 0.69067 0.02046 0.67287 0.0
N139 N 0.66916 1.00392 0.67372 0.0
N140 N 0.64691 0.98571 0.68762 0.0
C141 C 0.66341 0.99616 0.69008 0.0
C142 C 0.64209 0.987 0.6688 0.0
C143 C 0.65585 0.99828 0.66025 0.0
O144 O 0.68702 0.03905 0.694 0.0
C145 C 0.71172 0.99197 0.6581 0.0
O146 O 0.69608 0.99177 0.64709 0.0
H147 H 0.67094 0.99883 0.70368 0.0
H148 H 0.65598 1.00231 0.64539 0.0
N149 N 0.69183 0.03431 0.65019 0.0
N150 N 0.70583 0.05089 0.62714 0.0
C151 C 0.70846 0.04042 0.64305 0.0
C152 C 0.67809 0.04103 0.63829 0.0
C153 C 0.68672 0.05143 0.6241 0.0
C154 C 0.67069 0.04677 0.69254 0.0
O155 O 0.65963 0.04234 0.67747 0.0
H156 H 0.72227 0.03775 0.64981 0.0
H157 H 0.66291 0.03882 0.63993 0.0
O158 O 0.71312 1.00394 0.67207 0.0
H159 H 0.62952 0.98039 0.66169 0.0
H160 H 0.67953 0.05886 0.61253 0.0
Cu161 Cu 0.02347 0.6818 0.68646 0.0
N162 N 0.03924 0.70389 0.68441 0.0
N163 N 0.05936 0.72498 0.67095 0.0
C164 C 0.05007 0.70772 0.66938 0.0
C165 C 0.05412 0.73224 0.68776 0.0
C166 C 0.04167 0.71924 0.69598 0.0
O167 O 1.01069 0.67939 0.66148 0.0
C168 C 0.04996 0.66339 0.70847 0.0
O169 O 0.05107 0.68056 0.71616 0.0
H170 H 0.05104 0.69793 0.65751 0.0
H171 H 0.03472 0.72097 0.70931 0.0
N172 N 1.00518 0.68364 0.70506 0.0
N173 N 0.9831 0.67351 0.7253 0.0
C174 C 0.9977 0.66861 0.71453 0.0
C175 C 0.9951 0.69869 0.71007 0.0
C176 C 0.98154 0.69251 0.72261 0.0
C177 C 0.99279 0.67626 0.65878 0.0
O178 O 0.98291 0.66904 0.67269 0.0
H179 H 1.0026 0.65424 0.71302 0.0
H180 H 0.99695 0.71294 0.70439 0.0
O181 O 0.03885 0.66041 0.69383 0.0
H182 H 0.05857 0.74613 0.69354 0.0
H183 H 0.97081 0.70122 0.72855 0.0
Cu184 Cu 0.35003 0.36209 0.02417 0.0
N185 N 0.32664 0.36213 0.03658 0.0
N186 N 0.30347 0.37342 0.05435 0.0
C187 C 0.32118 0.37659 0.04773 0.0
C188 C 0.29762 0.35617 0.04702 0.0
C189 C 0.31189 0.34926 0.03614 0.0
O190 O 0.35198 0.38753 1.01356 0.0
C191 C 0.36848 0.3421 0.05234 0.0
O192 O 0.35382 0.33039 0.04807 0.0
H193 H 0.32995 0.38942 0.05057 0.0
H194 H 0.31149 0.33583 0.02843 0.0
N195 N 0.35136 0.34338 1.00469 0.0
N196 N 0.36369 0.32458 0.98249 0.0
C197 C 0.3674 0.336 0.99802 0.0
C198 C 0.33702 0.33627 0.99309 0.0
C199 C 0.34452 0.32472 0.9795 0.0
C200 C 0.35418 0.39118 0.99604 0.0
O201 O 0.35964 0.37766 0.98468 0.0
H202 H 0.38158 0.33968 1.00391 0.0
H203 H 0.3222 0.33976 0.99404 0.0
O204 O 0.37005 0.35773 0.04328 0.0
H205 H 0.28406 0.34892 0.04946 0.0
H206 H 0.33641 0.31719 0.96813 0.0
Cu207 Cu 0.70992 0.33494 0.022 0.0
N208 N 0.7304 0.33432 1.00564 0.0
N209 N 0.75075 0.34557 0.9842 0.0
C210 C 0.73505 0.34889 0.99403 0.0
C211 C 0.75619 0.3281 0.98991 0.0
C212 C 0.74359 0.32118 1.0031 0.0
O213 O 0.71419 0.35929 0.03596 0.0
C214 C 0.68608 0.31313 0.99911 0.0
O215 O 0.70105 0.30269 1.0023 0.0
H216 H 0.72727 0.36195 0.99324 0.0
H217 H 0.7441 0.30761 1.01035 0.0
N218 N 0.70879 0.31522 0.04018 0.0
N219 N 0.69477 0.29416 0.05976 0.0
C220 C 0.69235 0.30904 0.04777 0.0
C221 C 0.72225 0.30388 0.04762 0.0
C222 C 0.71367 0.29092 0.0597 0.0
C223 C 0.73006 0.35975 0.0457 0.0
O224 O 0.74029 0.34442 0.04562 0.0
H225 H 0.67874 0.3151 0.04402 0.0
H226 H 0.73719 0.30482 0.04442 0.0
O227 O 0.68656 0.33012 1.00595 0.0
H228 H 0.76834 0.32078 0.98487 0.0
H229 H 0.72089 0.28002 0.06779 0.0
Cu230 Cu 0.66141 0.66928 1.00822 0.0
N231 N 0.64002 0.6685 0.02317 0.0
N232 N 0.61947 0.68074 0.04289 0.0
C233 C 0.63218 0.68446 0.02942 0.0
C234 C 0.61918 0.66163 0.04522 0.0
C235 C 0.6318 0.65405 0.03287 0.0
O236 O 0.65799 0.69166 0.99144 0.0
C237 C 0.68553 0.65123 0.03373 0.0
O238 O 0.67226 0.63807 0.02922 0.0
H239 H 0.63688 0.6987 0.02531 0.0
H240 H 0.63548 0.63924 0.03192 0.0
N241 N 0.66275 0.648 0.99223 0.0
N242 N 0.67764 0.62642 0.97535 0.0
C243 C 0.6787 0.64399 0.98332 0.0
C244 C 0.65095 0.63249 0.98968 0.0
C245 C 0.66018 0.61907 0.97928 0.0
C246 C 0.6436 0.68951 0.97962 0.0
O247 O 0.63369 0.67321 0.97976 0.0
H248 H 0.69141 0.65329 0.98396 0.0
H249 H 0.63712 0.63066 0.99579 0.0
O250 O 0.68403 0.6678 0.02619 0.0
H251 H 0.6111 0.65384 0.05566 0.0
H252 H 0.65475 0.60481 0.97551 0.0
Cu253 Cu 0.34785 0.70295 0.04245 0.0
N254 N 0.32777 0.70335 0.02393 0.0
N255 N 0.30839 0.69322 0.99941 0.0
C256 C 0.32335 0.68914 1.01129 0.0
C257 C 0.30324 0.71078 1.00482 0.0
C258 C 0.31526 0.71701 0.0199 0.0
O259 O 0.34525 0.67914 0.05678 0.0
C260 C 0.37244 0.72439 0.022 0.0
O261 O 0.3584 0.73589 0.02466 0.0
H262 H 0.33087 0.67593 1.01108 0.0
H263 H 0.31497 0.73058 0.02729 0.0
N264 N 0.34761 0.72274 0.06051 0.0
N265 N 0.35977 0.74441 0.08175 0.0
C266 C 0.36356 0.73047 0.06924 0.0
C267 C 0.33307 0.73189 0.06786 0.0
C268 C 0.34053 0.7453 0.08098 0.0
C269 C 0.32833 0.6752 0.06196 0.0
O270 O 0.3147 0.68674 0.05685 0.0
H271 H 0.3777 0.72574 0.06653 0.0
H272 H 0.31813 0.72904 0.06398 0.0
O273 O 0.37121 0.70747 0.02866 0.0
H274 H 0.2918 0.71872 0.99821 0.0
H275 H 0.33242 0.7551 0.08909 0.0
Cu276 Cu 0.87027 0.51873 0.86552 0.0
N277 N 0.89557 0.51159 0.86499 0.0
N278 N 0.92219 0.50366 0.85096 0.0
C279 C 0.90353 0.50736 0.8485 0.0
C280 C 0.92614 0.50548 0.86993 0.0
C281 C 0.90966 0.5105 0.87857 0.0
O282 O 0.86762 0.53445 0.8425 0.0
C283 C 0.8579 0.48405 0.87987 0.0
O284 O 0.87366 0.48755 0.89031 0.0
H285 H 0.89561 0.50699 0.8349 0.0
H286 H 0.90813 0.51332 0.89359 0.0
N287 N 0.86509 0.5328 0.8872 0.0
N288 N 0.84684 0.5467 0.90818 0.0
C289 C 0.84723 0.53534 0.89263 0.0
C290 C 0.8766 0.54283 0.89976 0.0
C291 C 0.86533 0.5515 0.91274 0.0
C292 C 0.86862 0.55268 0.84351 0.0
O293 O 0.86685 0.561 0.86011 0.0
H294 H 0.83471 0.52947 0.88477 0.0
H295 H 0.89197 0.54415 0.89927 0.0
O296 O 0.85349 0.49576 0.86663 0.0
H297 H 0.93998 0.50371 0.877 0.0
H298 H 0.87038 0.56072 0.92447 0.0
Cu299 Cu 0.51389 0.85324 0.85496 0.0
N300 N 0.49887 0.8527 0.87634 0.0
N301 N 0.48262 0.83976 0.9002 0.0
C302 C 0.49279 0.83643 0.88467 0.0
C303 C 0.48235 0.85902 0.90162 0.0
C304 C 0.4924 0.86695 0.88691 0.0
O305 O 0.53038 0.83102 0.85831 0.0
C306 C 0.48936 0.87218 0.83044 0.0
O307 O 0.49226 0.8843 0.84471 0.0
H308 H 0.49622 0.82243 0.87958 0.0
H309 H 0.49491 0.88201 0.88421 0.0
N310 N 0.53023 0.87493 0.8541 0.0
N311 N 0.54784 0.89762 0.8401 0.0
C312 C 0.53721 0.88131 0.83766 0.0
C313 C 0.53669 0.88766 0.86756 0.0
C314 C 0.54775 0.90165 0.85894 0.0
C315 C 0.54145 0.83239 0.87334 0.0
O316 O 0.54083 0.84789 0.88387 0.0
H317 H 0.53438 0.87411 0.82409 0.0
H318 H 0.53339 0.88698 0.88247 0.0
O319 O 0.49694 0.85581 0.83175 0.0
H320 H 0.47533 0.86691 0.91242 0.0
H321 H 0.55473 0.91405 0.86586 0.0
Cu322 Cu 0.18306 0.52756 0.86951 0.0
N323 N 0.15821 0.53602 0.86639 0.0
N324 N 0.13273 0.54657 0.85 0.0
C325 C 0.1503 0.5396 0.84905 0.0
C326 C 0.12937 0.5474 0.86879 0.0
C327 C 0.14511 0.54074 0.8789 0.0
O328 O 0.18511 0.50938 0.84858 0.0
C329 C 0.19768 0.56278 0.88168 0.0
O330 O 0.18171 0.56155 0.89075 0.0
H331 H 0.15774 0.53788 0.83598 0.0
H332 H 0.14706 0.54008 0.89425 0.0
N333 N 0.18817 0.51487 0.89232 0.0
N334 N 0.20626 0.49968 0.91389 0.0
C335 C 0.20542 0.50798 0.89661 0.0
C336 C 0.17757 0.51086 0.90744 0.0
C337 C 0.18877 0.50149 0.92086 0.0
C338 C 0.17559 0.49366 0.85049 0.0
O339 O 0.16707 0.4906 0.86657 0.0
H340 H 0.21724 0.50936 0.88723 0.0
H341 H 0.1628 0.51435 0.90864 0.0
O342 O 0.20127 0.54941 0.8701 0.0
H343 H 0.11664 0.55274 0.8748 0.0
H344 H 0.18431 0.49617 0.93449 0.0
Cu345 Cu 0.52931 0.1888 0.84836 0.0
N346 N 0.51157 0.20861 0.84767 0.0
N347 N 0.49026 0.22877 0.85881 0.0
C348 C 0.50269 0.21491 0.86313 0.0
C349 C 0.49144 0.23125 0.83977 0.0
C350 C 0.50456 0.21888 0.83298 0.0
O351 O 0.54555 0.19486 0.87128 0.0
C352 C 0.50469 0.1628 0.83108 0.0
O353 O 0.5072 0.17612 0.81819 0.0
H354 H 0.5051 0.20912 0.87727 0.0
H355 H 0.50857 0.21741 0.81835 0.0
N356 N 0.54577 0.18756 0.82756 0.0
N357 N 0.56687 0.17574 0.80759 0.0
C358 C 0.5557 0.17218 0.82259 0.0
C359 C 0.55076 0.2013 0.8152 0.0
C360 C 0.56371 0.19411 0.80296 0.0
C361 C 0.55284 0.21186 0.8707 0.0
O362 O 0.54958 0.22191 0.85521 0.0
H363 H 0.55498 0.15873 0.83011 0.0
H364 H 0.54548 0.21562 0.81515 0.0
O365 O 0.51367 0.16493 0.84726 0.0
H366 H 0.48352 0.2414 0.83131 0.0
H367 H 0.57016 0.20185 0.79142 0.0
Cu368 Cu 0.84691 0.52498 0.18965 0.0
N369 N 0.82503 0.54 0.18867 0.0
N370 N 0.80343 0.55975 0.17572 0.0
C371 C 0.8188 0.54913 0.17277 0.0
C372 C 0.79988 0.5571 0.19435 0.0
C373 C 0.81318 0.54501 0.20227 0.0
O374 O 0.84315 0.50886 0.16665 0.0
C375 C 0.86863 0.55275 0.20796 0.0
O376 O 0.85486 0.54862 0.21954 0.0
H377 H 0.82581 0.54828 0.15937 0.0
H378 H 0.81427 0.54053 0.21698 0.0
N379 N 0.84965 0.50821 0.21074 0.0
N380 N 0.86302 0.48669 0.23056 0.0
C381 C 0.8651 0.49768 0.21484 0.0
C382 C 0.83736 0.50378 0.22438 0.0
C383 C 0.84551 0.49061 0.23655 0.0
C384 C 0.82871 0.49727 0.16788 0.0
O385 O 0.81949 0.49719 0.18379 0.0
H386 H 0.87749 0.49788 0.20617 0.0
H387 H 0.82334 0.50949 0.22535 0.0
O388 O 0.86877 0.54342 0.19224 0.0
H389 H 0.78847 0.56339 0.20182 0.0
H390 H 0.83897 0.48454 0.24894 0.0
Cu391 Cu 0.54438 0.87218 0.1915 0.0
N392 N 0.56212 0.86223 0.17544 0.0
N393 N 0.57606 0.84163 0.15665 0.0
C394 C 0.56165 0.84432 0.16835 0.0
C395 C 0.58602 0.85848 0.15634 0.0
C396 C 0.57725 0.87125 0.16783 0.0
O397 O 0.5201 0.85789 0.18689 0.0
C398 C 0.57122 0.87397 0.22304 0.0
O399 O 0.58371 0.87113 0.21003 0.0
H400 H 0.55089 0.8335 0.17166 0.0
H401 H 0.58149 0.88609 0.17037 0.0
N402 N 0.54096 0.89794 0.18637 0.0
N403 N 0.53546 0.9282 0.19381 0.0
C404 C 0.54064 0.91106 0.20037 0.0
C405 C 0.53605 0.90719 0.17019 0.0
C406 C 0.53239 0.9259 0.1748 0.0
C407 C 0.51351 0.85674 0.16967 0.0
O408 O 0.52324 0.86519 0.15631 0.0
H409 H 0.54269 0.90771 0.21534 0.0
H410 H 0.53436 0.90067 0.15619 0.0
O411 O 0.55346 0.87237 0.21832 0.0
H412 H 0.59842 0.86147 0.14802 0.0
H413 H 0.52711 0.93669 0.16513 0.0
Cu414 Cu 0.19998 0.51955 0.21408 0.0
N415 N 0.20059 0.50432 0.23608 0.0
N416 N 0.18977 0.48638 0.26 0.0
C417 C 0.18523 0.49567 0.24368 0.0
C418 C 0.20883 0.48925 0.26276 0.0
C419 C 0.21546 0.50026 0.24797 0.0
O420 O 0.17856 0.53673 0.21702 0.0
C421 C 0.21712 0.49405 0.19095 0.0
O422 O 0.22938 0.49648 0.20554 0.0
H423 H 0.1709 0.49651 0.23758 0.0
H424 H 0.2301 0.50502 0.24609 0.0
N425 N 0.22178 0.53583 0.21334 0.0
N426 N 0.2447 0.55447 0.20094 0.0
C427 C 0.22909 0.54292 0.19727 0.0
C428 C 0.23306 0.54324 0.22775 0.0
C429 C 0.24728 0.55467 0.22014 0.0
C430 C 0.16069 0.53263 0.21739 0.0
O431 O 0.15422 0.51557 0.2118 0.0
H432 H 0.22306 0.53954 0.18314 0.0
H433 H 0.23096 0.54075 0.24273 0.0
O434 O 0.20132 0.50265 0.1914 0.0
H435 H 0.21741 0.48369 0.27452 0.0
H436 H 0.25832 0.56287 0.22815 0.0
Cu437 Cu 0.52248 0.20566 0.19558 0.0
N438 N 0.5099 0.22853 0.19623 0.0
N439 N 0.49343 0.25339 0.18586 0.0
C440 C 0.5023 0.23743 0.18093 0.0
C441 C 0.49565 0.25457 0.20507 0.0
C442 C 0.50578 0.23915 0.21143 0.0
O443 O 0.53569 0.20586 0.17153 0.0
C444 C 0.50497 0.16734 0.19907 0.0
O445 O 0.52078 0.16051 0.19289 0.0
H446 H 0.50325 0.23218 0.16648 0.0
H447 H 0.50961 0.23574 0.22609 0.0
N448 N 0.54089 0.20571 0.21553 0.0
N449 N 0.56377 0.19504 0.23541 0.0
C450 C 0.54874 0.19026 0.22344 0.0
C451 C 0.55105 0.22086 0.22296 0.0
C452 C 0.56515 0.21432 0.23531 0.0
C453 C 0.55163 0.19812 0.16937 0.0
O454 O 0.55794 0.18619 0.18236 0.0
H455 H 0.54408 0.17577 0.21979 0.0
H456 H 0.549 0.23554 0.21889 0.0
O457 O 0.50318 0.18536 0.19981 0.0
H458 H 0.48988 0.26544 0.21394 0.0
H459 H 0.57627 0.22301 0.24267 0.0
Cu460 Cu 0.87236 0.86254 0.53733 0.0
N461 N 0.89147 0.85547 0.55492 0.0
N462 N 0.90972 0.83546 0.57157 0.0
C463 C 0.89415 0.83721 0.55984 0.0
C464 C 0.91714 0.8534 0.5742 0.0
C465 C 0.90579 0.86576 0.56392 0.0
O466 O 0.87084 0.84123 0.51842 0.0
C467 C 0.85259 0.8837 0.56293 0.0
O468 O 0.86991 0.89156 0.56427 0.0
H469 H 0.88521 0.82535 0.55429 0.0
H470 H 0.90803 0.88107 0.56287 0.0
N471 N 0.87932 0.88467 0.52416 0.0
N472 N 0.87561 0.9092 0.5043 0.0
C473 C 0.86696 0.89442 0.51316 0.0
C474 C 0.89647 0.89363 0.52232 0.0
C475 C 0.89423 0.90876 0.50996 0.0
C476 C 0.88596 0.83981 0.50893 0.0
O477 O 0.90003 0.85247 0.51214 0.0
H478 H 0.85197 0.89027 0.5112 0.0
H479 H 0.90974 0.88919 0.52901 0.0
O480 O 0.84964 0.86936 0.55158 0.0
H481 H 0.92986 0.85731 0.58285 0.0
H482 H 0.90541 0.91855 0.50539 0.0
Cu483 Cu 0.19038 0.85478 0.49504 0.0
N484 N 0.21134 0.85725 0.47905 0.0
N485 N 0.23294 0.87091 0.46008 0.0
C486 C 0.21756 0.87355 0.4707 0.0
C487 C 0.23641 0.85212 0.46183 0.0
C488 C 0.22313 0.84379 0.47347 0.0
O489 O 0.19194 0.87682 0.51247 0.0
C490 C 0.1676 0.83593 0.46793 0.0
O491 O 0.18288 0.82565 0.46922 0.0
H492 H 0.21106 0.88715 0.47271 0.0
H493 H 0.22209 0.8289 0.47743 0.0
N494 N 0.19108 0.83348 0.51119 0.0
N495 N 0.18094 0.81297 0.53343 0.0
C496 C 0.17627 0.82733 0.52148 0.0
C497 C 0.20573 0.82269 0.51681 0.0
C498 C 0.19951 0.81 0.53046 0.0
C499 C 0.20841 0.87946 0.52081 0.0
O500 O 0.22204 0.86801 0.51652 0.0
H501 H 0.16255 0.83392 0.52073 0.0
H502 H 0.22007 0.82431 0.51185 0.0
O503 O 0.16717 0.8508 0.47852 0.0
H504 H 0.24759 0.84477 0.455 0.0
H505 H 0.20815 0.79958 0.53775 0.0
Cu506 Cu 0.21753 0.19136 0.53328 0.0
N507 N 0.21459 0.21159 0.55018 0.0
N508 N 0.20403 0.23794 0.56369 0.0
C509 C 0.20359 0.22684 0.54785 0.0
C510 C 0.21604 0.22946 0.57632 0.0
C511 C 0.22251 0.21324 0.56795 0.0
O512 O 0.19648 0.19127 0.51366 0.0
C513 C 0.22752 0.15241 0.54282 0.0
O514 O 0.22694 0.14915 0.52435 0.0
H515 H 0.19521 0.2296 0.53491 0.0
H516 H 0.23193 0.20304 0.5745 0.0
N517 N 0.23992 0.19629 0.52059 0.0
N518 N 0.2641 0.19122 0.5018 0.0
C519 C 0.24635 0.18553 0.50652 0.0
C520 C 0.2539 0.20955 0.52472 0.0
C521 C 0.26888 0.20648 0.51307 0.0
C522 C 0.17927 0.19522 0.51686 0.0
O523 O 0.17403 0.19587 0.53461 0.0
H524 H 0.23836 0.17344 0.50016 0.0
H525 H 0.25357 0.22015 0.53595 0.0
O526 O 0.22202 0.16842 0.54895 0.0
H527 H 0.21927 0.23416 0.59087 0.0
H528 H 0.28258 0.21415 0.5136 0.0
Cu529 Cu 0.84675 0.21279 0.53053 0.0
N530 N 0.82346 0.21132 0.51643 0.0
N531 N 0.79933 0.19707 0.49895 0.0
C532 C 0.81565 0.1947 0.50953 0.0
C533 C 0.79678 0.21613 0.49938 0.0
C534 C 0.81168 0.22487 0.51015 0.0
O535 O 0.84765 0.18801 0.54311 0.0
C536 C 0.86725 0.23575 0.50695 0.0
O537 O 0.85331 0.2467 0.51149 0.0
H538 H 0.82202 0.18111 0.51227 0.0
H539 H 0.8139 0.24002 0.51292 0.0
N540 N 0.84867 0.23235 0.54898 0.0
N541 N 0.86293 0.25281 0.57022 0.0
C542 C 0.86522 0.23818 0.55802 0.0
C543 C 0.83535 0.2437 0.55561 0.0
C544 C 0.8441 0.25629 0.56881 0.0
C545 C 0.83819 0.18627 0.55817 0.0
O546 O 0.83119 0.2016 0.56561 0.0
H547 H 0.8787 0.23173 0.55562 0.0
H548 H 0.8204 0.24296 0.55108 0.0
O549 O 0.86722 0.21868 0.51325 0.0
H550 H 0.78528 0.22341 0.49208 0.0
H551 H 0.83722 0.26744 0.57639 0.0
H552 H 0.26414 0.15313 0.49578 0.0
H553 H 0.28515 0.13588 0.47561 0.0
H554 H 0.31277 0.18916 0.45961 0.0
H555 H 0.29181 0.20658 0.4802 0.0
H556 H 0.28945 0.13763 0.43778 0.0
H557 H 0.35792 0.15813 0.47675 0.0
H558 H 0.335 0.1625 0.48628 0.0
H559 H 0.34439 0.17785 0.46818 0.0
C560 C 0.27456 0.16122 0.48785 0.0
C561 C 0.27629 0.18123 0.48949 0.0
C562 C 0.28663 0.15133 0.47639 0.0
C563 C 0.30067 0.1612 0.46626 0.0
C564 C 0.3023 0.18122 0.46762 0.0
H565 H 0.35844 0.09804 0.37851 0.0
H566 H 0.34014 0.12202 0.39453 0.0
C567 C 0.29031 0.19116 0.4793 0.0
C568 C 0.31334 0.15025 0.45426 0.0
H569 H 0.35977 0.13885 0.44925 0.0
C570 C 0.30485 0.13796 0.44019 0.0
C571 C 0.33339 0.1506 0.4576 0.0
C572 C 0.34326 0.16284 0.47312 0.0
C573 C 0.31576 0.12564 0.4297 0.0
C574 C 0.33584 0.12607 0.43294 0.0
C575 C 0.34439 0.13866 0.44671 0.0
C576 C 0.34805 0.11267 0.42308 0.0
C577 C 0.30556 0.11171 0.41588 0.0
C578 C 0.35923 0.10002 0.4338 0.0
C579 C 0.3699 0.08654 0.42468 0.0
C580 C 0.36947 0.08538 0.40467 0.0
C581 C 0.35871 0.0984 0.39395 0.0
C582 C 0.34824 0.11206 0.40308 0.0
H583 H 0.29014 0.10985 0.41874 0.0
H584 H 0.30668 0.11719 0.40114 0.0
H585 H 0.31204 0.09749 0.4166 0.0
H586 H 0.35932 0.10026 0.44926 0.0
H587 H 0.37799 0.07661 0.43327 0.0
H588 H 0.98694 0.33864 0.41035 0.0
H589 H 0.96519 0.3257 0.43423 0.0
H590 H 0.97748 0.26838 0.4172 0.0
H591 H 0.99885 0.28103 0.39347 0.0
H592 H 0.93228 0.29898 0.42315 0.0
H593 H 0.98267 0.26826 0.47699 0.0
H594 H 0.98972 0.28715 0.46098 0.0
H595 H 0.98703 0.26293 0.45249 0.0
C596 C 0.9852 0.32331 0.41197 0.0
C597 C 0.99449 0.31086 0.39998 0.0
C598 C 0.97279 0.31594 0.42555 0.0
C599 C 0.9699 0.29607 0.42757 0.0
C600 C 0.9797 0.28372 0.41606 0.0
H601 H 0.89589 0.21724 0.4893 0.0
H602 H 0.92102 0.23191 0.47009 0.0
C603 C 0.99181 0.29101 0.4024 0.0
C604 C 0.95544 0.28798 0.44039 0.0
H605 H 0.94987 0.25887 0.47888 0.0
C606 C 0.93609 0.29041 0.43549 0.0
C607 C 0.96049 0.27648 0.4562 0.0
C608 C 0.98111 0.2736 0.46214 0.0
C609 C 0.92162 0.28132 0.44574 0.0
C610 C 0.92663 0.26992 0.4617 0.0
C611 C 0.94602 0.26757 0.46665 0.0
C612 C 0.9119 0.26086 0.47373 0.0
C613 C 0.9011 0.28354 0.43894 0.0
C614 C 0.89875 0.27225 0.48248 0.0
C615 C 0.88437 0.26394 0.49317 0.0
C616 C 0.88295 0.24402 0.4957 0.0
C617 C 0.89652 0.2326 0.48751 0.0
C618 C 0.91089 0.24097 0.47657 0.0
H619 H 0.89998 0.28743 0.4236 0.0
H620 H 0.89242 0.27018 0.44101 0.0
H621 H 0.89491 0.29517 0.44719 0.0
H622 H 0.89956 0.28765 0.481 0.0
H623 H 0.87439 0.27325 0.49954 0.0
H624 H 0.83932 0.92079 0.50388 0.0
H625 H 0.82321 0.93965 0.47924 0.0
H626 H 0.87553 0.94531 0.44933 0.0
H627 H 0.89172 0.9261 0.47387 0.0
H628 H 0.833 0.97785 0.46527 0.0
H629 H 0.83513 0.92059 0.40999 0.0
H630 H 0.83897 0.91584 0.43512 0.0
H631 H 0.85732 0.92792 0.42221 0.0
C632 C 0.8474 0.92603 0.49206 0.0
C633 C 0.86673 0.92179 0.4907 0.0
C634 C 0.83822 0.9369 0.47808 0.0
C635 C 0.84814 0.94364 0.46239 0.0
C636 C 0.86761 0.94003 0.46126 0.0
H637 H 0.79405 0.99453 0.36033 0.0
H638 H 0.81839 0.98276 0.38303 0.0
C639 C 0.87686 0.92921 0.47534 0.0
C640 C 0.83772 0.95384 0.44701 0.0
H641 H 0.81865 0.94811 0.40164 0.0
C642 C 0.83002 0.97148 0.45127 0.0
C643 C 0.83398 0.94549 0.42877 0.0
C644 C 0.84164 0.92637 0.42365 0.0
C645 C 0.81825 0.98081 0.43789 0.0
C646 C 0.81375 0.97202 0.41997 0.0
C647 C 0.8221 0.95477 0.41542 0.0
C648 C 0.7993 0.97973 0.40633 0.0
C649 C 0.81063 0.99991 0.44314 0.0
C650 C 0.78047 0.9816 0.41182 0.0
C651 C 0.76657 0.98822 0.39891 0.0
C652 C 0.77116 0.99297 0.38016 0.0
C653 C 0.79001 0.99088 0.37461 0.0
C654 C 0.80396 0.98427 0.38759 0.0
H655 H 0.82 1.00735 0.45423 0.0
H656 H 0.80924 1.00931 0.43049 0.0
H657 H 0.7963 0.99766 0.44905 0.0
H658 H 0.77643 0.97762 0.42603 0.0
H659 H 0.75213 0.98923 0.40355 0.0
H660 H 0.1298 0.8466 0.46659 0.0
H661 H 0.10322 0.83216 0.44657 0.0
H662 H 0.1425 0.79543 0.42006 0.0
H663 H 0.16878 0.8098 0.43947 0.0
H664 H 0.11607 0.80923 0.39392 0.0
H665 H 0.08073 0.77872 0.45714 0.0
H666 H 0.08449 0.80424 0.45668 0.0
H667 H 0.10463 0.78919 0.45882 0.0
C668 C 0.13274 0.83564 0.45629 0.0
C669 C 0.15141 0.82923 0.45482 0.0
C670 C 0.11754 0.82729 0.44495 0.0
C671 C 0.12079 0.81246 0.43195 0.0
C672 C 0.13955 0.80678 0.42994 0.0
H673 H 0.06535 0.71122 0.39295 0.0
H674 H 0.08346 0.73839 0.40707 0.0
C675 C 0.1546 0.815 0.4412 0.0
C676 C 0.10493 0.80177 0.42113 0.0
H677 H 0.06866 0.76861 0.42702 0.0
C678 C 0.10543 0.80062 0.40111 0.0
C679 C 0.09114 0.7904 0.43051 0.0
C680 C 0.09017 0.7905 0.45197 0.0
C681 C 0.09324 0.78777 0.39038 0.0
C682 C 0.08 0.77587 0.39987 0.0
C683 C 0.07879 0.77776 0.41975 0.0
C684 C 0.06913 0.75963 0.39005 0.0
C685 C 0.09542 0.78616 0.36914 0.0
C686 C 0.05512 0.76239 0.3754 0.0
C687 C 0.04466 0.74667 0.36709 0.0
C688 C 0.04797 0.72797 0.3734 0.0
C689 C 0.0623 0.72537 0.38775 0.0
C690 C 0.07268 0.74095 0.39593 0.0
H691 H 0.10817 0.79443 0.36439 0.0
H692 H 0.09661 0.77097 0.36488 0.0
H693 H 0.08259 0.79169 0.36154 0.0
H694 H 0.05196 0.77669 0.37073 0.0
H695 H 0.03363 0.74918 0.3562 0.0
H696 H 0.24258 0.89711 0.52949 0.0
H697 H 0.25177 0.917 0.55724 0.0
H698 H 0.19359 0.91438 0.57479 0.0
H699 H 0.18418 0.8943 0.54667 0.0
H700 H 0.23694 0.95318 0.5708 0.0
H701 H 0.22707 0.89209 0.62053 0.0
H702 H 0.22911 0.88849 0.59519 0.0
H703 H 0.20761 0.89754 0.60408 0.0
C704 C 0.23163 0.90098 0.53907 0.0
C705 C 0.21266 0.89408 0.53592 0.0
C706 C 0.23693 0.91238 0.55494 0.0
C707 C 0.22346 0.91698 0.56823 0.0
C708 C 0.20426 0.91083 0.56479 0.0
H709 H 0.25649 0.96665 0.68133 0.0
H710 H 0.23742 0.95259 0.65435 0.0
C711 C 0.19886 0.89953 0.54866 0.0
C712 C 0.23009 0.92738 0.586 0.0
H713 H 0.24163 0.92034 0.63325 0.0
C714 C 0.23771 0.94611 0.58452 0.0
C715 C 0.23109 0.91816 0.6039 0.0
C716 C 0.2234 0.89793 0.60619 0.0
C717 C 0.24672 0.95569 0.60034 0.0
C718 C 0.24867 0.94609 0.61802 0.0
C719 C 0.24029 0.92766 0.6197 0.0
C720 C 0.26022 0.95452 0.63457 0.0
C721 C 0.25415 0.97599 0.59787 0.0
C722 C 0.27953 0.95988 0.63265 0.0
C723 C 0.29043 0.96804 0.64798 0.0
C724 C 0.28239 0.97087 0.66579 0.0
C725 C 0.26315 0.96497 0.66783 0.0
C726 C 0.25222 0.95684 0.65241 0.0
H727 H 0.24619 0.98319 0.58608 0.0
H728 H 0.25309 0.9845 0.61116 0.0
H729 H 0.26938 0.9759 0.5942 0.0
H730 H 0.28622 0.9578 0.6192 0.0
H731 H 0.30507 0.97249 0.64564 0.0
H732 H 0.11142 0.387 0.60939 0.0
H733 H 0.13303 0.36448 0.59565 0.0
H734 H 0.09443 0.31757 0.60917 0.0
H735 H 0.07287 0.33995 0.62293 0.0
H736 H 0.13112 0.31215 0.62219 0.0
H737 H 0.12966 0.33348 0.54602 0.0
H738 H 0.13522 0.35274 0.56259 0.0
H739 H 0.11204 0.34087 0.56228 0.0
C740 C 0.10737 0.37193 0.60908 0.0
C741 C 0.09048 0.36524 0.61735 0.0
C742 C 0.11972 0.35907 0.6012 0.0
C743 C 0.11527 0.33935 0.60125 0.0
C744 C 0.09816 0.33272 0.609 0.0
H745 H 0.16925 0.2452 0.54737 0.0
H746 H 0.14846 0.27091 0.55581 0.0
C747 C 0.08589 0.34552 0.61693 0.0
C748 C 0.129 0.32542 0.59459 0.0
H749 H 0.15279 0.31114 0.55581 0.0
C750 C 0.13584 0.31192 0.60766 0.0
C751 C 0.13501 0.32506 0.5756 0.0
C752 C 0.12749 0.33869 0.56073 0.0
C753 C 0.14857 0.29809 0.60232 0.0
C754 C 0.15496 0.29799 0.58347 0.0
C755 C 0.14803 0.3114 0.57031 0.0
C756 C 0.16835 0.28363 0.57709 0.0
C757 C 0.1547 0.28341 0.61682 0.0
C758 C 0.18666 0.2826 0.58584 0.0
C759 C 0.19858 0.26793 0.58106 0.0
C760 C 0.19249 0.25408 0.5673 0.0
C761 C 0.17447 0.25569 0.55792 0.0
C762 C 0.16253 0.27034 0.56277 0.0
H763 H 0.14498 0.28254 0.6289 0.0
H764 H 0.15516 0.26903 0.61015 0.0
H765 H 0.16925 0.28744 0.62272 0.0
H766 H 0.1916 0.29297 0.59664 0.0
H767 H 0.2125 0.26731 0.58828 0.0
H768 H 0.83641 0.15161 0.53917 0.0
H769 H 0.81817 0.12271 0.54841 0.0
H770 H 0.80497 0.15011 0.60121 0.0
H771 H 0.82355 0.17847 0.59245 0.0
H772 H 0.81084 0.11319 0.60672 0.0
H773 H 0.76052 0.12182 0.54404 0.0
H774 H 0.78488 0.11799 0.53862 0.0
H775 H 0.77894 0.13958 0.5506 0.0
C776 C 0.83008 0.15121 0.55298 0.0
C777 C 0.83125 0.16739 0.56501 0.0
C778 C 0.81943 0.1348 0.55813 0.0
C779 C 0.80973 0.13443 0.57527 0.0
C780 C 0.81216 0.15006 0.58784 0.0
H781 H 0.70414 0.08548 0.61024 0.0
H782 H 0.73046 0.10345 0.5959 0.0
C783 C 0.8228 0.16631 0.58279 0.0
C784 C 0.79597 0.11862 0.57993 0.0
H785 H 0.75249 0.09815 0.56613 0.0
C786 C 0.7982 0.10969 0.59773 0.0
C787 C 0.77932 0.11427 0.5683 0.0
C788 C 0.7756 0.12399 0.54939 0.0
C789 C 0.78396 0.09723 0.60461 0.0
C790 C 0.76723 0.09301 0.59306 0.0
C791 C 0.76533 0.10133 0.57493 0.0
C792 C 0.75092 0.08127 0.60016 0.0
C793 C 0.78653 0.08964 0.62464 0.0
C794 C 0.75343 0.0626 0.60679 0.0
C795 C 0.73847 0.05246 0.61522 0.0
C796 C 0.72057 0.0606 0.61679 0.0
C797 C 0.71774 0.07883 0.60915 0.0
C798 C 0.7328 0.0891 0.60099 0.0
H799 H 0.79767 0.09803 0.63317 0.0
H800 H 0.77297 0.08988 0.63223 0.0
H801 H 0.79105 0.07464 0.624 0.0
H802 H 0.76707 0.056 0.60579 0.0
H803 H 0.74093 0.03828 0.62067 0.0
H804 H 0.9543 0.67676 0.65038 0.0
H805 H 0.9379 0.7001 0.63043 0.0
H806 H 0.9922 0.72301 0.61267 0.0
H807 H 1.00863 0.69948 0.63199 0.0
H808 H 0.94232 0.73711 0.63859 0.0
H809 H 0.96118 0.72658 0.56368 0.0
H810 H 0.96476 0.70851 0.58164 0.0
H811 H 0.98205 0.72797 0.57939 0.0
C812 C 0.96273 0.6863 0.64168 0.0
C813 C 0.98279 0.68637 0.64299 0.0
C814 C 0.95332 0.69969 0.63033 0.0
C815 C 0.96379 0.71333 0.62004 0.0
C816 C 0.98375 0.71244 0.62015 0.0
H817 H 0.9468 0.82783 0.5798 0.0
H818 H 0.95925 0.79742 0.59115 0.0
C819 C 0.99315 0.69897 0.63135 0.0
C820 C 0.95427 0.73016 0.61173 0.0
H821 H 0.95086 0.75801 0.57193 0.0
C822 C 0.94392 0.74147 0.62391 0.0
C823 C 0.95649 0.73597 0.59262 0.0
C824 C 0.96657 0.72399 0.57855 0.0
C825 C 0.93626 0.75869 0.61771 0.0
C826 C 0.93897 0.76473 0.59882 0.0
C827 C 0.94898 0.75334 0.58648 0.0
C828 C 0.93149 0.78295 0.59173 0.0
C829 C 0.92579 0.77063 0.63153 0.0
C830 C 0.91181 0.78478 0.58836 0.0
C831 C 0.90469 0.80207 0.58194 0.0
C832 C 0.91712 0.81787 0.57881 0.0
C833 C 0.93686 0.816 0.5823 0.0
C834 C 0.94399 0.79862 0.5886 0.0
H835 H 0.92741 0.76538 0.64641 0.0
H836 H 0.93108 0.78577 0.63113 0.0
H837 H 0.91035 0.77022 0.62728 0.0
H838 H 0.90197 0.7728 0.59069 0.0
H839 H 0.88941 0.80312 0.57957 0.0
H840 H 0.40156 0.36191 0.06406 0.0
H841 H 0.42536 0.35232 0.08855 0.0
H842 H 0.39155 0.30096 0.09871 0.0
H843 H 0.36777 0.3104 0.07457 0.0
H844 H 0.40533 0.32084 0.13238 0.0
H845 H 0.46244 0.3082 0.08149 0.0
H846 H 0.45191 0.33124 0.08094 0.0
H847 H 0.43776 0.31038 0.07365 0.0
C848 C 0.39921 0.3486 0.07155 0.0
C849 C 0.38283 0.33686 0.0673 0.0
C850 C 0.41283 0.34313 0.08548 0.0
C851 C 0.41025 0.32587 0.0953 0.0
C852 C 0.39378 0.31434 0.09129 0.0
H853 H 0.47633 0.24413 0.15149 0.0
H854 H 0.45792 0.26479 0.13049 0.0
C855 C 0.38023 0.31975 0.07742 0.0
C856 C 0.42472 0.3193 0.10953 0.0
H857 H 0.46871 0.30009 0.11353 0.0
C858 C 0.41933 0.31658 0.12839 0.0
C859 C 0.44288 0.31367 0.10416 0.0
C860 C 0.44917 0.31586 0.08395 0.0
C861 C 0.43132 0.30763 0.14187 0.0
C862 C 0.44925 0.30149 0.13634 0.0
C863 C 0.45497 0.30492 0.11769 0.0
C864 C 0.46131 0.2896 0.14899 0.0
C865 C 0.42428 0.30386 0.16158 0.0
C866 C 0.46952 0.29678 0.1663 0.0
C867 C 0.48016 0.28495 0.17839 0.0
C868 C 0.48286 0.2658 0.1733 0.0
C869 C 0.47483 0.25884 0.15578 0.0
C870 C 0.46422 0.27062 0.14376 0.0
H871 H 0.40888 0.30673 0.16255 0.0
H872 H 0.42656 0.2888 0.16573 0.0
H873 H 0.43248 0.31324 0.17205 0.0
H874 H 0.46766 0.31148 0.17046 0.0
H875 H 0.48638 0.29084 0.19164 0.0
H876 H 0.83171 0.50187 0.1288 0.0
H877 H 0.814 0.48309 0.1034 0.0
H878 H 0.79033 0.44602 0.14596 0.0
H879 H 0.80758 0.46454 0.17102 0.0
H880 H 0.81306 0.4443 0.09291 0.0
H881 H 0.74243 0.46348 0.11724 0.0
H882 H 0.76425 0.47615 0.12525 0.0
H883 H 0.75695 0.45411 0.13642 0.0
C884 C 0.82294 0.48954 0.13263 0.0
C885 C 0.82093 0.48481 0.15194 0.0
C886 C 0.8127 0.47892 0.11815 0.0
C887 C 0.80031 0.46349 0.12281 0.0
C888 C 0.79924 0.45821 0.14199 0.0
H889 H 0.75957 0.36093 0.07188 0.0
H890 H 0.77549 0.38849 0.08747 0.0
C891 C 0.80929 0.46876 0.15633 0.0
C892 C 0.78852 0.45249 0.10796 0.0
H893 H 0.74304 0.43447 0.09833 0.0
C894 C 0.79771 0.44247 0.09385 0.0
C895 C 0.76838 0.45033 0.10881 0.0
C896 C 0.75741 0.46177 0.12262 0.0
C897 C 0.78753 0.4293 0.08163 0.0
C898 C 0.76769 0.42578 0.08377 0.0
C899 C 0.75827 0.43689 0.09684 0.0
C900 C 0.75713 0.4092 0.07422 0.0
C901 C 0.79826 0.41889 0.06685 0.0
C902 C 0.74075 0.41143 0.06217 0.0
C903 C 0.73134 0.39543 0.05317 0.0
C904 C 0.73812 0.37697 0.05623 0.0
C905 C 0.75404 0.37489 0.0689 0.0
C906 C 0.76332 0.39071 0.07778 0.0
H907 H 0.81098 0.42749 0.06253 0.0
H908 H 0.80335 0.40532 0.07299 0.0
H909 H 0.78901 0.41545 0.05394 0.0
H910 H 0.73551 0.42555 0.05943 0.0
H911 H 0.71914 0.39754 0.04352 0.0
H912 H 0.60323 0.71299 0.03099 0.0
H913 H 0.5935 0.73934 0.05108 0.0
H914 H 0.60892 0.70725 0.10146 0.0
H915 H 0.61777 0.68056 0.08129 0.0
H916 H 0.57817 0.72649 0.10732 0.0
H917 H 0.63188 0.77568 0.07625 0.0
H918 H 0.61488 0.76634 0.05846 0.0
H919 H 0.63061 0.75044 0.07102 0.0
C920 C 0.60421 0.71153 0.04636 0.0
C921 C 0.61129 0.69487 0.05464 0.0
C922 C 0.59886 0.72661 0.05782 0.0
C923 C 0.60108 0.72555 0.07779 0.0
C924 C 0.60723 0.70849 0.0861 0.0
H925 H 0.61034 0.8275 0.14959 0.0
H926 H 0.6163 0.7984 0.13159 0.0
C927 C 0.61221 0.69322 0.0746 0.0
C928 C 0.59765 0.74242 0.08996 0.0
H929 H 0.60967 0.78981 0.09618 0.0
C930 C 0.58512 0.74032 0.10496 0.0
C931 C 0.60708 0.76038 0.08718 0.0
C932 C 0.62202 0.76331 0.0725 0.0
C933 C 0.58151 0.75573 0.11702 0.0
C934 C 0.59014 0.77394 0.11356 0.0
C935 C 0.60287 0.77594 0.09874 0.0
C936 C 0.58639 0.79113 0.12517 0.0
C937 C 0.5689 0.75214 0.13362 0.0
C938 C 0.56764 0.79686 0.12749 0.0
C939 C 0.56425 0.81327 0.13807 0.0
C940 C 0.57957 0.82456 0.14608 0.0
C941 C 0.59832 0.81906 0.14348 0.0
C942 C 0.60169 0.80244 0.13323 0.0
H943 H 0.56881 0.7369 0.13797 0.0
H944 H 0.57361 0.76111 0.14617 0.0
H945 H 0.55401 0.75558 0.12933 0.0
H946 H 0.5556 0.78883 0.12088 0.0
H947 H 0.54968 0.81742 0.1396 0.0
H948 H 0.23223 0.56724 0.16633 0.0
H949 H 0.25059 0.58567 0.14346 0.0
H950 H 0.3005 0.58446 0.18146 0.0
H951 H 0.28222 0.56578 0.20445 0.0
H952 H 0.27106 0.62286 0.15349 0.0
H953 H 0.31804 0.5671 0.12673 0.0
H954 H 0.29548 0.56106 0.13712 0.0
H955 H 0.31549 0.56928 0.1521 0.0
C956 C 0.24717 0.57062 0.16975 0.0
C957 C 0.25573 0.56497 0.18725 0.0
C958 C 0.25763 0.58123 0.15669 0.0
C959 C 0.27694 0.58627 0.16069 0.0
C960 C 0.28566 0.58053 0.17801 0.0
H961 H 0.35161 0.65775 0.0889 0.0
H962 H 0.34115 0.6353 0.11371 0.0
C963 C 0.27514 0.57002 0.1912 0.0
C964 C 0.28748 0.59847 0.14711 0.0
H965 H 0.32103 0.59779 0.11316 0.0
C966 C 0.28208 0.61742 0.14477 0.0
C967 C 0.302 0.5914 0.13593 0.0
C968 C 0.30815 0.57108 0.13792 0.0
C969 C 0.29051 0.62939 0.13126 0.0
C970 C 0.3044 0.62208 0.11939 0.0
C971 C 0.31033 0.60333 0.1222 0.0
C972 C 0.31166 0.63343 0.10319 0.0
C973 C 0.28435 0.64977 0.12973 0.0
C974 C 0.29878 0.63907 0.08863 0.0
C975 C 0.30465 0.65183 0.07467 0.0
C976 C 0.32362 0.65907 0.07473 0.0
C977 C 0.33692 0.65236 0.08848 0.0
C978 C 0.33095 0.63962 0.10267 0.0
H979 H 0.2782 0.6547 0.14315 0.0
H980 H 0.29652 0.6596 0.12635 0.0
H981 H 0.27319 0.65072 0.1181 0.0
H982 H 0.28395 0.63414 0.08849 0.0
H983 H 0.29411 0.65654 0.06413 0.0
H984 H 0.38696 0.76052 0.023 0.0
H985 H 0.41046 0.77505 1.00237 0.0
H986 H 0.41858 0.72019 0.97637 0.0
H987 H 0.39489 0.70536 0.99733 0.0
H988 H 0.45062 0.76545 0.99493 0.0
H989 H 0.3989 0.75731 0.93247 0.0
H990 H 0.39125 0.75568 0.95667 0.0
H991 H 0.40403 0.73661 0.94667 0.0
C992 C 0.39397 0.75144 1.01311 0.0
C993 C 0.38902 0.73183 1.01165 0.0
C994 C 0.40743 0.75978 1.00138 0.0
C995 C 0.4161 0.74876 0.98772 0.0
C996 C 0.41193 0.72895 0.98678 0.0
H997 H 0.47445 0.80206 0.89239 0.0
H998 H 0.4608 0.77823 0.91354 0.0
C999 C 0.39853 0.72048 0.9988 0.0
C1000 C 0.42824 0.75864 0.97375 0.0
H1001 H 0.42653 0.77643 0.92848 0.0
C1002 C 0.44555 0.76761 0.98029 0.0
C1003 C 0.42156 0.76145 0.95469 0.0
C1004 C 0.40289 0.75237 0.94708 0.0
C1005 C 0.45613 0.77971 0.96841 0.0
C1006 C 0.44891 0.78339 0.94966 0.0
C1007 C 0.43201 0.77374 0.94288 0.0
C1008 C 0.45812 0.79782 0.93713 0.0
C1009 C 0.47489 0.78848 0.97612 0.0
C1010 C 0.461 0.8169 0.94319 0.0
C1011 C 0.46905 0.83061 0.93117 0.0
C1012 C 0.47422 0.82563 0.91267 0.0
C1013 C 0.47105 0.8065 0.90658 0.0
C1014 C 0.4631 0.7928 0.91866 0.0
H1015 H 0.48134 0.77955 0.98758 0.0
H1016 H 0.48526 0.79036 0.9647 0.0
H1017 H 0.47241 0.80271 0.9824 0.0
H1018 H 0.45679 0.82129 0.95717 0.0
H1019 H 0.47129 0.84508 0.93648 0.0
H1020 H 0.33521 0.41859 1.01472 0.0
H1021 H 0.31305 0.4409 1.00023 0.0
H1022 H 0.33037 0.42498 0.9443 0.0
H1023 H 0.35233 0.40223 0.95861 0.0
H1024 H 0.31352 0.47159 0.97418 0.0
H1025 H 0.2739 0.40705 0.94461 0.0
H1026 H 0.29327 0.40566 0.96226 0.0
H1027 H 0.29818 0.40966 0.93762 0.0
C1028 C 0.33471 0.42014 0.99935 0.0
C1029 C 0.34522 0.40827 0.98778 0.0
C1030 C 0.32201 0.43293 0.9911 0.0
C1031 C 0.3197 0.43415 0.9712 0.0
C1032 C 0.33165 0.42387 0.9597 0.0
H1033 H 0.23414 0.48227 0.89578 0.0
H1034 H 0.26227 0.46776 0.91027 0.0
C1035 C 0.34428 0.41096 0.96791 0.0
C1036 C 0.30337 0.44435 0.9626 0.0
H1037 H 0.26157 0.4369 0.93638 0.0
C1038 C 0.30217 0.46405 0.96588 0.0
C1039 C 0.28844 0.43438 0.95205 0.0
C1040 C 0.28834 0.413 0.94904 0.0
C1041 C 0.28657 0.47414 0.95848 0.0
C1042 C 0.27179 0.46416 0.94777 0.0
C1043 C 0.27298 0.44448 0.94457 0.0
C1044 C 0.25509 0.47384 0.9393 0.0
C1045 C 0.28613 0.4954 0.96187 0.0
C1046 C 0.2416 0.48186 0.95086 0.0
C1047 C 0.22543 0.49022 0.94259 0.0
C1048 C 0.22256 0.49068 0.92263 0.0
C1049 C 0.23608 0.48247 0.91117 0.0
C1050 C 0.25214 0.4741 0.91942 0.0
H1051 H 0.30027 0.50152 0.96705 0.0
H1052 H 0.28159 0.50284 0.94858 0.0
H1053 H 0.27562 0.49829 0.97281 0.0
H1054 H 0.24348 0.48147 0.96627 0.0
H1055 H 0.21532 0.4965 0.95177 0.0
H1056 H 0.5605 0.24977 0.87574 0.0
H1057 H 0.58054 0.2659 0.90043 0.0
H1058 H 0.59094 0.21184 0.92736 0.0
H1059 H 0.57064 0.19531 0.90232 0.0
H1060 H 0.57836 0.26674 0.94101 0.0
H1061 H 0.64498 0.23524 0.91692 0.0
H1062 H 0.62309 0.23453 0.90236 0.0
H1063 H 0.62575 0.21867 0.92225 0.0
C1064 C 0.56696 0.24118 0.88689 0.0
C1065 C 0.56412 0.22115 0.88689 0.0
C1066 C 0.57837 0.25052 0.9011 0.0
C1067 C 0.58742 0.24013 0.91564 0.0
C1068 C 0.58425 0.22014 0.91612 0.0
H1069 H 0.67582 0.27569 0.9994 0.0
H1070 H 0.65053 0.2588 0.98061 0.0
C1071 C 0.5726 0.21071 0.90187 0.0
C1072 C 0.60073 0.25043 0.92965 0.0
H1073 H 0.64802 0.25681 0.94269 0.0
C1074 C 0.59359 0.26449 0.94151 0.0
C1075 C 0.62061 0.24766 0.93011 0.0
C1076 C 0.62919 0.23333 0.91717 0.0
C1077 C 0.60577 0.27567 0.95399 0.0
C1078 C 0.6257 0.27303 0.95431 0.0
C1079 C 0.63277 0.2589 0.94247 0.0
C1080 C 0.63958 0.28414 0.9672 0.0
C1081 C 0.59716 0.28994 0.96695 0.0
C1082 C 0.6417 0.30423 0.96637 0.0
C1083 C 0.65621 0.3141 0.97742 0.0
C1084 C 0.66899 0.30394 0.98914 0.0
C1085 C 0.66637 0.28396 0.99033 0.0
C1086 C 0.65187 0.27423 0.97958 0.0
H1087 H 0.58169 0.28671 0.96864 0.0
H1088 H 0.60455 0.29022 0.98128 0.0
H1089 H 0.5987 0.30441 0.9607 0.0
H1090 H 0.63262 0.31222 0.9567 0.0
H1091 H 0.65796 0.32946 0.97612 0.0
H1092 H 0.68535 0.58879 0.97764 0.0
H1093 H 0.71381 0.57358 0.96642 0.0
H1094 H 0.73379 0.62742 0.94362 0.0
H1095 H 0.70535 0.64261 0.95462 0.0
H1096 H 0.73646 0.59402 0.91881 0.0
H1097 H 0.7686 0.58474 0.99202 0.0
H1098 H 0.74432 0.57594 0.98788 0.0
H1099 H 0.7498 0.60114 0.98685 0.0
C1100 C 0.69565 0.59728 0.96996 0.0
C1101 C 0.69319 0.61691 0.96708 0.0
C1102 C 0.71198 0.58864 0.96374 0.0
C1103 C 0.726 0.59947 0.95446 0.0
C1104 C 0.72319 0.61886 0.95089 0.0
H1105 H 0.84338 0.57946 0.92859 0.0
H1106 H 0.81392 0.5917 0.94072 0.0
C1107 C 0.70699 0.62752 0.95722 0.0
C1108 C 0.74381 0.59078 0.9487 0.0
H1109 H 0.78552 0.5727 0.96642 0.0
C1110 C 0.74716 0.58927 0.92919 0.0
C1111 C 0.75781 0.58487 0.96233 0.0
C1112 C 0.75513 0.58683 0.98347 0.0
C1113 C 0.76412 0.58182 0.92293 0.0
C1114 C 0.77801 0.57568 0.93654 0.0
C1115 C 0.77476 0.57734 0.95606 0.0
C1116 C 0.79604 0.56759 0.93064 0.0
C1117 C 0.76723 0.58083 0.9018 0.0
C1118 C 0.79576 0.54976 0.92147 0.0
C1119 C 0.81254 0.54265 0.91469 0.0
C1120 C 0.82996 0.55329 0.91685 0.0
C1121 C 0.83029 0.57085 0.92673 0.0
C1122 C 0.81346 0.57791 0.9336 0.0
H1123 H 0.7568 0.58931 0.89338 0.0
H1124 H 0.78191 0.58611 0.89874 0.0
H1125 H 0.76563 0.56573 0.89693 0.0
H1126 H 0.78249 0.54145 0.91933 0.0
H1127 H 0.81181 0.52888 0.90758 0.0
H1128 H 0.06199 0.37724 0.31073 0.0
H1129 H 0.08546 0.40199 0.30257 0.0
H1130 H 0.10046 0.41131 0.36223 0.0
H1131 H 0.07658 0.38629 0.37067 0.0
H1132 H 0.08928 0.44286 0.31691 0.0
H1133 H 0.15145 0.39756 0.33388 0.0
H1134 H 0.12783 0.38702 0.32897 0.0
H1135 H 0.13311 0.39973 0.35092 0.0
C1136 C 0.07014 0.3846 0.3222 0.0
C1137 C 0.06752 0.3797 0.34136 0.0
C1138 C 0.08353 0.3988 0.31748 0.0
C1139 C 0.09479 0.40836 0.33175 0.0
C1140 C 0.09194 0.40398 0.351 0.0
H1141 H 0.19405 0.47992 0.29818 0.0
H1142 H 0.17141 0.4629 0.31836 0.0
C1143 C 0.07827 0.38979 0.3558 0.0
C1144 C 0.10984 0.42234 0.32594 0.0
H1145 H 0.15727 0.42572 0.31671 0.0
C1146 C 0.10422 0.43933 0.3172 0.0
C1147 C 0.1293 0.41771 0.32637 0.0
C1148 C 0.13595 0.39951 0.33547 0.0
C1149 C 0.11742 0.45144 0.30818 0.0
C1150 C 0.13667 0.44614 0.30743 0.0
C1151 C 0.1425 0.42971 0.31715 0.0
C1152 C 0.15051 0.45659 0.29538 0.0
C1153 C 0.11052 0.46962 0.29924 0.0
C1154 C 0.14653 0.45831 0.27568 0.0
C1155 C 0.15943 0.46794 0.26414 0.0
C1156 C 0.17675 0.47597 0.27196 0.0
C1157 C 0.18092 0.47385 0.29165 0.0
C1158 C 0.16794 0.46421 0.30323 0.0
H1159 H 0.09783 0.47476 0.30639 0.0
H1160 H 0.12188 0.48112 0.29993 0.0
H1161 H 0.10626 0.46683 0.28403 0.0
H1162 H 0.13347 0.45202 0.26916 0.0
H1163 H 0.1559 0.46887 0.24901 0.0
H1164 H 0.13096 0.53322 0.8137 0.0
H1165 H 0.11517 0.54792 0.78595 0.0
H1166 H 0.09305 0.59073 0.82254 0.0
H1167 H 0.10876 0.57604 0.85036 0.0
H1168 H 0.06668 0.57724 0.79336 0.0
H1169 H 0.13731 0.59841 0.76519 0.0
H1170 H 0.13333 0.57332 0.7694 0.0
H1171 H 0.13477 0.58979 0.78917 0.0
C1172 C 0.12263 0.5457 0.81583 0.0
C1173 C 0.12132 0.55365 0.83417 0.0
C1174 C 0.11362 0.55406 0.79998 0.0
C1175 C 0.10328 0.57062 0.80216 0.0
C1176 C 0.10104 0.57797 0.82056 0.0
H1177 H 0.07848 0.6666 0.73577 0.0
H1178 H 0.09122 0.64143 0.75591 0.0
C1179 C 0.10997 0.56954 0.83645 0.0
C1180 C 0.09581 0.58106 0.78527 0.0
H1181 H 0.11008 0.60779 0.74749 0.0
C1182 C 0.0761 0.58374 0.78317 0.0
C1183 C 0.10822 0.58961 0.77211 0.0
C1184 C 0.1296 0.58782 0.77407 0.0
C1185 C 0.0685 0.59521 0.76854 0.0
C1186 C 0.08096 0.60401 0.75559 0.0
C1187 C 0.10058 0.60083 0.75734 0.0
C1188 C 0.07431 0.61858 0.74184 0.0
C1189 C 0.04737 0.59863 0.76765 0.0
C1190 C 0.061 0.61397 0.72682 0.0
C1191 C 0.05366 0.62842 0.71518 0.0
C1192 C 0.05954 0.64763 0.71848 0.0
C1193 C 0.07355 0.65197 0.73294 0.0
C1194 C 0.08088 0.63759 0.74446 0.0
H1195 H 0.04022 0.5931 0.78044 0.0
H1196 H 0.04482 0.61414 0.76635 0.0
H1197 H 0.0406 0.59133 0.75486 0.0
H1198 H 0.05597 0.59931 0.72441 0.0
H1199 H 0.04287 0.62466 0.70415 0.0
H1200 H 0.36205 0.07915 0.75598 0.0
H1201 H 0.38796 0.09456 0.77531 0.0
H1202 H 0.41344 0.04006 0.78425 0.0
H1203 H 0.38749 0.02446 0.76463 0.0
H1204 H 0.40126 0.09084 0.8121 0.0
H1205 H 0.45706 0.07098 0.76245 0.0
H1206 H 0.43191 0.06773 0.75632 0.0
H1207 H 0.4436 0.05125 0.77209 0.0
C1208 C 0.37296 0.07031 0.76223 0.0
C1209 C 0.37264 0.0505 0.75861 0.0
C1210 C 0.38787 0.07921 0.77328 0.0
C1211 C 0.40288 0.06858 0.78105 0.0
C1212 C 0.4023 0.04868 0.77807 0.0
H1213 H 0.49016 0.13432 0.85454 0.0
H1214 H 0.46651 0.10858 0.84524 0.0
C1215 C 0.38741 0.03976 0.76686 0.0
C1216 C 0.41933 0.07866 0.79157 0.0
H1217 H 0.46702 0.08984 0.78901 0.0
C1218 C 0.4157 0.09044 0.80721 0.0
C1219 C 0.43819 0.07821 0.78516 0.0
C1220 C 0.44299 0.06651 0.76801 0.0
C1221 C 0.43018 0.10232 0.81607 0.0
C1222 C 0.44891 0.10222 0.80934 0.0
C1223 C 0.45271 0.08981 0.79427 0.0
C1224 C 0.46396 0.11686 0.81554 0.0
C1225 C 0.42506 0.1157 0.83182 0.0
C1226 C 0.47078 0.12971 0.80195 0.0
C1227 C 0.48422 0.14417 0.80715 0.0
C1228 C 0.49134 0.14629 0.82616 0.0
C1229 C 0.48493 0.13313 0.83981 0.0
C1230 C 0.47132 0.11851 0.83452 0.0
H1231 H 0.40938 0.11608 0.83337 0.0
H1232 H 0.43168 0.11093 0.84555 0.0
H1233 H 0.43066 0.13044 0.82907 0.0
H1234 H 0.4654 0.12878 0.78723 0.0
H1235 H 0.48884 0.15388 0.79615 0.0
H1236 H 0.91901 0.51352 0.81366 0.0
H1237 H 0.93848 0.50304 0.78799 0.0
H1238 H 0.97447 0.4735 0.82865 0.0
H1239 H 0.9544 0.48325 0.85447 0.0
H1240 H 0.97603 0.50855 0.78093 0.0
H1241 H 0.95859 0.43125 0.79086 0.0
H1242 H 0.94602 0.44969 0.80254 0.0
H1243 H 0.96922 0.44315 0.81165 0.0
C1244 C 0.93092 0.50461 0.8172 0.0
C1245 C 0.93487 0.49887 0.83613 0.0
C1246 C 0.94217 0.49879 0.80248 0.0
C1247 C 0.95769 0.48716 0.80632 0.0
C1248 C 0.96227 0.48211 0.8253 0.0
H1249 H 0.03349 0.4332 0.72909 0.0
H1250 H 0.01953 0.44716 0.75694 0.0
C1251 C 0.95092 0.48786 0.84008 0.0
C1252 C 0.96866 0.48005 0.79027 0.0
H1253 H 0.98042 0.43931 0.76726 0.0
C1254 C 0.97704 0.49341 0.77796 0.0
C1255 C 0.96985 0.46029 0.78635 0.0
C1256 C 0.96031 0.44524 0.79842 0.0
C1257 C 0.98658 0.48753 0.76187 0.0
C1258 C 0.98766 0.4678 0.75794 0.0
C1259 C 0.97957 0.45444 0.77037 0.0
C1260 C 0.99681 0.46062 0.74082 0.0
C1261 C 0.99553 0.50241 0.74923 0.0
C1262 C 0.98869 0.46365 0.72248 0.0
C1263 C 0.99651 0.45548 0.70647 0.0
C1264 C 1.01255 0.44406 0.70854 0.0
C1265 C 0.02092 0.44156 0.72695 0.0
C1266 C 1.01305 0.44964 0.74291 0.0
H1267 H 0.99702 0.51663 0.75635 0.0
H1268 H 1.00983 0.49808 0.74501 0.0
H1269 H 0.98639 0.50382 0.73603 0.0
H1270 H 0.97597 0.47187 0.72062 0.0
H1271 H 0.98959 0.45756 0.69259 0.0
H1272 H 0.66084 0.97428 0.72233 0.0
H1273 H 0.64281 0.96021 0.74802 0.0
H1274 H 0.59119 0.96082 0.71246 0.0
H1275 H 0.60898 0.97552 0.6867 0.0
H1276 H 0.60718 0.97749 0.76405 0.0
H1277 H 0.59743 0.90385 0.73385 0.0
H1278 H 0.61667 0.92 0.72717 0.0
H1279 H 0.59275 0.92367 0.71827 0.0
C1280 C 0.64563 0.97164 0.71991 0.0
C1281 C 0.63639 0.97625 0.70238 0.0
C1282 C 0.63538 0.96347 0.73463 0.0
C1283 C 0.61572 0.9595 0.7321 0.0
C1284 C 0.60641 0.96371 0.7146 0.0
H1285 H 0.53436 0.90187 0.80381 0.0
H1286 H 0.55042 0.91823 0.77796 0.0
C1287 C 0.61664 0.97203 0.69986 0.0
C1288 C 0.60498 0.9512 0.74796 0.0
H1289 H 0.58346 0.90984 0.76308 0.0
C1290 C 0.60194 0.96271 0.76389 0.0
C1291 C 0.59817 0.93197 0.74759 0.0
C1292 C 0.60143 0.91902 0.73089 0.0
C1293 C 0.59203 0.95552 0.77946 0.0
C1294 C 0.58547 0.93614 0.77927 0.0
C1295 C 0.58849 0.92468 0.76324 0.0
C1296 C 0.57534 0.92738 0.79543 0.0
C1297 C 0.58831 0.96887 0.79572 0.0
C1298 C 0.58391 0.92717 0.81393 0.0
C1299 C 0.57463 0.91793 0.8288 0.0
C1300 C 0.55682 0.90843 0.82531 0.0
C1301 C 0.5482 0.90886 0.80685 0.0
C1302 C 0.55734 0.91824 0.79208 0.0
H1303 H 0.58905 0.98406 0.79118 0.0
H1304 H 0.57408 0.96572 0.80156 0.0
H1305 H 0.59936 0.96711 0.80732 0.0
H1306 H 0.59798 0.93371 0.81678 0.0
H1307 H 0.58167 0.91762 0.84284 0.0
H1308 H 0.9582 0.67279 0.31239 0.0
H1309 H 0.93874 0.65259 0.28995 0.0
H1310 H 0.98383 0.65517 0.25012 0.0
H1311 H 1.00347 0.67535 0.27251 0.0
H1312 H 0.92617 0.65854 0.25087 0.0
H1313 H 0.97398 0.59708 0.25855 0.0
H1314 H 0.97522 0.61689 0.27519 0.0
H1315 H 0.98488 0.61964 0.25204 0.0
C1316 C 0.96393 0.66929 0.29877 0.0
C1317 C 0.98248 0.6757 0.29434 0.0
C1318 C 0.95278 0.65769 0.28595 0.0
C1319 C 0.95993 0.65206 0.26847 0.0
C1320 C 0.97812 0.65903 0.26364 0.0
H1321 H 0.90255 0.56392 0.19118 0.0
H1322 H 0.9259 0.58917 0.20265 0.0
C1323 C 0.98927 0.67074 0.27642 0.0
C1324 C 0.94841 0.63854 0.25566 0.0
H1325 H 0.94601 0.59238 0.23912 0.0
C1326 C 0.93062 0.64415 0.24813 0.0
C1327 C 0.95425 0.61978 0.2519 0.0
C1328 C 0.97306 0.61283 0.2599 0.0
C1329 C 0.91833 0.63141 0.23746 0.0
C1330 C 0.92372 0.61234 0.23454 0.0
C1331 C 0.94188 0.60697 0.2413 0.0
C1332 C 0.90976 0.59731 0.22683 0.0
C1333 C 0.89948 0.63842 0.22966 0.0
C1334 C 0.89315 0.5933 0.23669 0.0
C1335 C 0.88 0.57903 0.23027 0.0
C1336 C 0.88302 0.56815 0.21379 0.0
C1337 C 0.89971 0.57207 0.20383 0.0
C1338 C 0.91306 0.58646 0.2104 0.0
H1339 H 0.90023 0.65411 0.22732 0.0
H1340 H 0.895 0.63118 0.21598 0.0
H1341 H 0.88836 0.63536 0.24012 0.0
H1342 H 0.89044 0.6011 0.24961 0.0
H1343 H 0.8674 0.57651 0.23843 0.0
H1344 H 0.46762 0.99718 0.34325 0.0
H1345 H 0.49013 0.98987 0.31875 0.0
H1346 H 0.44582 0.99664 0.27498 0.0
H1347 H 0.42329 1.00379 0.29925 0.0
H1348 H 0.48651 0.9599 0.29324 0.0
H1349 H 0.49003 0.02837 0.25411 0.0
H1350 H 0.48061 0.02633 0.27762 0.0
H1351 H 0.46602 0.01934 0.25683 0.0
C1352 C 0.46267 0.99711 0.32842 0.0
C1353 C 0.44365 1.00115 0.32324 0.0
C1354 C 0.47559 0.9931 0.31443 0.0
C1355 C 0.46975 0.99316 0.29503 0.0
C1356 C 0.45079 0.99713 0.28983 0.0
H1357 H 0.5039 0.94898 0.18948 0.0
H1358 H 0.4905 0.96835 0.21446 0.0
C1359 C 0.4379 1.00114 0.30376 0.0
C1360 C 0.48289 0.98739 0.28028 0.0
H1361 H 0.50117 1.00089 0.23782 0.0
C1362 C 0.49002 0.96897 0.2813 0.0
C1363 C 0.48732 0.99926 0.26468 0.0
C1364 C 0.48075 0.0195 0.2633 0.0
C1365 C 0.50072 0.96171 0.26669 0.0
C1366 C 0.50476 0.97339 0.25082 0.0
C1367 C 0.49809 0.99202 0.25003 0.0
C1368 C 0.51471 0.9658 0.23439 0.0
C1369 C 0.50679 0.94126 0.26795 0.0
C1370 C 0.5332 0.95901 0.23693 0.0
C1371 C 0.54075 0.94786 0.22277 0.0
C1372 C 0.53007 0.94362 0.20576 0.0
C1373 C 0.51244 0.95214 0.20242 0.0
C1374 C 0.50476 0.96313 0.2167 0.0
H1375 H 0.49902 0.93307 0.2789 0.0
H1376 H 0.50432 0.93381 0.25399 0.0
H1377 H 0.52228 0.9411 0.27189 0.0
H1378 H 0.54125 0.96128 0.25033 0.0
H1379 H 0.55446 0.94154 0.22555 0.0
H1380 H 0.70529 0.10144 0.30512 0.0
H1381 H 0.6832 0.1245 0.29167 0.0
H1382 H 0.63767 0.08134 0.29026 0.0
H1383 H 0.6597 0.05809 0.3035 0.0
H1384 H 0.66021 0.1231 0.25723 0.0
H1385 H 0.61689 0.12572 0.32154 0.0
H1386 H 0.64028 0.11574 0.32184 0.0
H1387 H 0.61982 0.1021 0.31226 0.0
C1388 C 0.69066 0.09674 0.3017 0.0
C1389 C 0.68423 0.07793 0.30554 0.0
C1390 C 0.67804 0.10998 0.29413 0.0
C1391 C 0.65877 0.10469 0.29035 0.0
C1392 C 0.65242 0.08579 0.29352 0.0
H1393 H 0.57238 0.15996 0.22253 0.0
H1394 H 0.59589 0.13877 0.23648 0.0
C1395 C 0.66502 0.07254 0.30107 0.0
C1396 C 0.64526 0.11894 0.28313 0.0
H1397 H 0.6046 0.1413 0.29382 0.0
C1398 C 0.6481 0.12716 0.26524 0.0
C1399 C 0.62967 0.1244 0.2938 0.0
C1400 C 0.62652 0.11669 0.31351 0.0
C1401 C 0.6354 0.14034 0.25745 0.0
C1402 C 0.61937 0.14518 0.26777 0.0
C1403 C 0.61684 0.13739 0.28591 0.0
C1404 C 0.6048 0.15794 0.25973 0.0
C1405 C 0.63925 0.14901 0.23828 0.0
C1406 C 0.60164 0.17549 0.26855 0.0
C1407 C 0.58801 0.18762 0.2607 0.0
C1408 C 0.57721 0.18226 0.24404 0.0
C1409 C 0.58022 0.16445 0.23551 0.0
C1410 C 0.59384 0.15241 0.24331 0.0
H1411 H 0.6544 0.1477 0.2346 0.0
H1412 H 0.63014 0.14142 0.2271 0.0
H1413 H 0.63576 0.16435 0.238 0.0
H1414 H 0.60987 0.17991 0.28135 0.0
H1415 H 0.58588 0.20114 0.26769 0.0
H1416 H 0.70694 0.95848 0.63884 0.0
H1417 H 0.73092 0.93901 0.62511 0.0
H1418 H 0.77551 0.97634 0.65026 0.0
H1419 H 0.75122 0.99602 0.66439 0.0
H1420 H 0.75589 0.95022 0.59878 0.0
H1421 H 0.79602 0.92398 0.66272 0.0
H1422 H 0.7731 0.93468 0.66413 0.0
H1423 H 0.79433 0.94949 0.66168 0.0
C1424 C 0.72186 0.96247 0.64179 0.0
C1425 C 0.72708 0.97888 0.65282 0.0
C1426 C 0.73561 0.95127 0.63382 0.0
C1427 C 0.75515 0.95603 0.63655 0.0
C1428 C 0.76057 0.97208 0.64811 0.0
H1429 H 0.8573 0.91227 0.58933 0.0
H1430 H 0.83339 0.92853 0.60667 0.0
C1431 C 0.74667 0.98335 0.65625 0.0
C1432 C 0.76941 0.94471 0.62625 0.0
H1433 H 0.80848 0.91712 0.63267 0.0
C1434 C 0.76734 0.94293 0.60625 0.0
C1435 C 0.78441 0.9351 0.63584 0.0
C1436 C 0.78708 0.93571 0.65728 0.0
C1437 C 0.7799 0.93223 0.59563 0.0
C1438 C 0.7949 0.92256 0.6052 0.0
C1439 C 0.79697 0.92434 0.62522 0.0
C1440 C 0.80932 0.91166 0.59467 0.0
C1441 C 0.77733 0.93192 0.57415 0.0
C1442 C 0.80403 0.89632 0.58214 0.0
C1443 C 0.81788 0.88684 0.57196 0.0
C1444 C 0.83735 0.89245 0.57415 0.0
C1445 C 0.84251 0.90748 0.58707 0.0
C1446 C 0.82878 0.91686 0.59714 0.0
H1447 H 0.7684 0.94371 0.56883 0.0
H1448 H 0.79133 0.93309 0.56737 0.0
H1449 H 0.77009 0.9182 0.56954 0.0
H1450 H 0.78918 0.89165 0.58021 0.0
H1451 H 0.81333 0.87532 0.56225 0.0
H1452 H 0.14206 0.81061 0.53281 0.0
H1453 H 0.12186 0.79594 0.55661 0.0
H1454 H 0.17191 0.77925 0.58927 0.0
H1455 H 0.19228 0.79408 0.56566 0.0
H1456 H 0.1438 0.74996 0.58521 0.0
H1457 H 0.11286 0.81698 0.61003 0.0
H1458 H 0.11032 0.81312 0.5847 0.0
H1459 H 0.13373 0.81686 0.59585 0.0
C1460 C 0.14885 0.80403 0.54512 0.0
C1461 C 0.16891 0.80373 0.54726 0.0
C1462 C 0.13723 0.79562 0.55876 0.0
C1463 C 0.14533 0.78675 0.57493 0.0
C1464 C 0.16531 0.78607 0.57696 0.0
H1465 H 0.08677 0.75311 0.67776 0.0
H1466 H 0.10785 0.76791 0.6547 0.0
C1467 C 0.17696 0.79451 0.56334 0.0
C1468 C 0.133 0.77794 0.58957 0.0
H1469 H 0.09894 0.78792 0.62125 0.0
C1470 C 0.13403 0.75827 0.59312 0.0
C1471 C 0.12042 0.78881 0.60011 0.0
C1472 C 0.11933 0.81014 0.59766 0.0
C1473 C 0.12257 0.74913 0.6066 0.0
C1474 C 0.10952 0.75988 0.61668 0.0
C1475 C 0.10879 0.77963 0.61342 0.0
C1476 C 0.09655 0.75091 0.63067 0.0
C1477 C 0.12473 0.72807 0.61012 0.0
C1478 C 0.08293 0.73661 0.62484 0.0
C1479 C 0.07077 0.72817 0.63799 0.0
C1480 C 0.07186 0.73386 0.65732 0.0
C1481 C 0.08536 0.7484 0.66304 0.0
C1482 C 0.09751 0.75686 0.64986 0.0
H1483 H 0.13855 0.72309 0.60517 0.0
H1484 H 0.12378 0.72473 0.62552 0.0
H1485 H 0.11307 0.71988 0.60216 0.0
H1486 H 0.08157 0.73209 0.61004 0.0
H1487 H 0.06034 0.71736 0.63287 0.0
H1488 H 0.23755 0.15704 0.58111 0.0
H1489 H 0.25692 0.13614 0.60144 0.0
H1490 H 0.25908 0.09593 0.55493 0.0
H1491 H 0.24011 0.11683 0.53448 0.0
H1492 H 0.25238 0.09939 0.61378 0.0
H1493 H 0.3152 0.10439 0.56871 0.0
H1494 H 0.29528 0.11979 0.56542 0.0
H1495 H 0.29392 0.09588 0.55576 0.0
C1496 C 0.242 0.14367 0.57523 0.0
C1497 C 0.23728 0.13875 0.55604 0.0
C1498 C 0.25316 0.13173 0.58689 0.0
C1499 C 0.25997 0.1146 0.57966 0.0
C1500 C 0.25457 0.10929 0.56077 0.0
H1501 H 0.32553 0.02005 0.62347 0.0
H1502 H 0.30745 0.04291 0.60438 0.0
C1503 C 0.24349 0.12122 0.54911 0.0
C1504 C 0.2727 0.10231 0.59178 0.0
H1505 H 0.31587 0.08082 0.59309 0.0
C1506 C 0.26632 0.09548 0.60931 0.0
C1507 C 0.291 0.09715 0.58608 0.0
C1508 C 0.29936 0.10483 0.56807 0.0
C1509 C 0.27737 0.08327 0.62091 0.0
C1510 C 0.29551 0.07788 0.61504 0.0
C1511 C 0.30198 0.08486 0.59763 0.0
C1512 C 0.3077 0.06456 0.62649 0.0
C1513 C 0.26924 0.07575 0.63909 0.0
C1514 C 0.31451 0.06925 0.64516 0.0
C1515 C 0.32504 0.0562 0.65613 0.0
C1516 C 0.32903 0.03811 0.6487 0.0
C1517 C 0.32281 0.0338 0.62973 0.0
C1518 C 0.31238 0.04687 0.61876 0.0
H1519 H 0.25359 0.07758 0.63937 0.0
H1520 H 0.2721 0.06036 0.64091 0.0
H1521 H 0.27614 0.08368 0.65143 0.0
H1522 H 0.31147 0.08293 0.65137 0.0
H1523 H 0.3295 0.06008 0.67066 0.0
H1524 H 0.85917 0.27133 0.60391 0.0
H1525 H 0.88425 0.28907 0.62281 0.0
H1526 H 0.92524 0.27523 0.5813 0.0
H1527 H 0.90037 0.25744 0.56249 0.0
H1528 H 0.93977 0.27141 0.6182 0.0
H1529 H 0.90587 0.34144 0.60872 0.0
H1530 H 0.89124 0.32319 0.6194 0.0
H1531 H 0.89793 0.3205 0.59511 0.0
C1532 C 0.8735 0.27215 0.59878 0.0
C1533 C 0.8777 0.26301 0.58162 0.0
C1534 C 0.88784 0.28228 0.6096 0.0
C1535 C 0.90661 0.2837 0.60337 0.0
C1536 C 0.91089 0.2743 0.58645 0.0
H1537 H 0.99593 0.36699 0.61933 0.0
H1538 H 0.96947 0.34506 0.61016 0.0
C1539 C 0.89663 0.2641 0.5757 0.0
C1540 C 0.92177 0.29541 0.614 0.0
H1541 H 0.93478 0.34133 0.62691 0.0
C1542 C 0.93863 0.28668 0.62028 0.0
C1543 C 0.92031 0.31535 0.61662 0.0
C1544 C 0.90296 0.32576 0.60949 0.0
C1545 C 0.95425 0.29741 0.62859 0.0
C1546 C 0.95287 0.31739 0.63093 0.0
C1547 C 0.93578 0.32599 0.62523 0.0
C1548 C 0.96958 0.33004 0.63702 0.0
C1549 C 0.97241 0.28747 0.63395 0.0
C1550 C 0.97868 0.32885 0.65525 0.0
C1551 C 0.9941 0.34147 0.6606 0.0
C1552 C 1.0005 0.35553 0.64785 0.0
C1553 C 0.99138 0.35645 0.62961 0.0
C1554 C 0.97617 0.3439 0.6243 0.0
H1555 H 0.97224 0.27263 0.62826 0.0
H1556 H 0.98498 0.29552 0.62853 0.0
H1557 H 0.97421 0.28686 0.64973 0.0
H1558 H 0.97368 0.31843 0.66541 0.0
H1559 H 1.00076 0.34044 0.67477 0.0
H1560 H 0.68668 0.09018 0.39019 0.0
H1561 H 0.702 0.11363 0.4125 0.0
H1562 H 0.74297 0.07235 0.43064 0.0
H1563 H 0.7278 0.04877 0.40839 0.0
H1564 H 0.71206 0.11226 0.45434 0.0
H1565 H 0.77456 0.11876 0.40832 0.0
H1566 H 0.7518 0.10829 0.39987 0.0
H1567 H 0.76746 0.09491 0.41519 0.0
C1568 C 0.69874 0.08593 0.39916 0.0
C1569 C 0.70608 0.06759 0.39735 0.0
C1570 C 0.70748 0.09939 0.41191 0.0
C1571 C 0.72379 0.09482 0.423 0.0
C1572 C 0.73052 0.07623 0.42203 0.0
H1573 H 0.80911 0.16064 0.49065 0.0
H1574 H 0.78982 0.1361 0.47355 0.0
C1575 C 0.72175 0.06273 0.40936 0.0
C1576 C 0.73449 0.10984 0.43461 0.0
H1577 H 0.77649 0.13623 0.43718 0.0
C1578 C 0.72614 0.11755 0.45062 0.0
C1579 C 0.75283 0.11673 0.42968 0.0
C1580 C 0.76221 0.10941 0.41226 0.0
C1581 C 0.73586 0.13168 0.4621 0.0
C1582 C 0.75422 0.13862 0.45714 0.0
C1583 C 0.76246 0.13094 0.44103 0.0
C1584 C 0.76537 0.1536 0.46852 0.0
C1585 C 0.72659 0.13864 0.47973 0.0
C1586 C 0.75815 0.17178 0.47146 0.0
C1587 C 0.76913 0.18596 0.48156 0.0
C1588 C 0.78772 0.18236 0.4888 0.0
C1589 C 0.79486 0.16409 0.4857 0.0
C1590 C 0.78384 0.14995 0.47573 0.0
H1591 H 0.71532 0.12832 0.48439 0.0
H1592 H 0.7373 0.14107 0.49171 0.0
H1593 H 0.71977 0.15237 0.47654 0.0
H1594 H 0.74411 0.17514 0.46568 0.0
H1595 H 0.76299 0.1997 0.48364 0.0
H1596 H 0.97058 0.73907 0.38853 0.0
H1597 H 0.95331 0.76081 0.40822 0.0
H1598 H 0.93462 0.71355 0.44274 0.0
H1599 H 0.95244 0.69183 0.42374 0.0
H1600 H 0.91587 0.76283 0.41468 0.0
H1601 H 0.95434 0.74994 0.48385 0.0
H1602 H 0.96274 0.74149 0.4615 0.0
H1603 H 0.94386 0.72855 0.47304 0.0
C1604 C 0.96308 0.7332 0.40043 0.0
C1605 C 0.96317 0.71344 0.40436 0.0
C1606 C 0.95302 0.74574 0.41169 0.0
C1607 C 0.94279 0.73901 0.42728 0.0
C1608 C 0.9427 0.71933 0.43114 0.0
H1609 H 0.87581 0.80121 0.51089 0.0
H1610 H 0.88728 0.77544 0.49062 0.0
C1611 C 0.9528 0.70678 0.41998 0.0
C1612 C 0.93192 0.7525 0.43914 0.0
H1613 H 0.92702 0.76878 0.48482 0.0
C1614 C 0.91836 0.76408 0.43002 0.0
C1615 C 0.93494 0.75422 0.45924 0.0
C1616 C 0.94988 0.74303 0.46999 0.0
C1617 C 0.90791 0.77722 0.44029 0.0
C1618 C 0.91111 0.7791 0.46032 0.0
C1619 C 0.92436 0.76727 0.46952 0.0
C1620 C 0.90229 0.79446 0.47163 0.0
C1621 C 0.89345 0.78899 0.42958 0.0
C1622 C 0.90663 0.81373 0.46768 0.0
C1623 C 0.90018 0.82831 0.4792 0.0
C1624 C 0.88903 0.82416 0.49499 0.0
C1625 C 0.884 0.80492 0.49862 0.0
C1626 C 0.89074 0.79019 0.48714 0.0
H1627 H 0.88854 0.78209 0.41584 0.0
H1628 H 0.88083 0.79128 0.43823 0.0
H1629 H 0.9001 0.80316 0.42634 0.0
H1630 H 0.91574 0.81751 0.45609 0.0
H1631 H 0.90451 0.84295 0.47612 0.0
H1632 H 0.35962 0.98711 0.40727 0.0
H1633 H 0.3347 0.96548 0.41832 0.0
H1634 H 0.30192 0.97273 0.36559 0.0
H1635 H 0.32728 0.9946 0.35413 0.0
H1636 H 0.29693 0.97276 0.42412 0.0
H1637 H 0.30292 0.91412 0.37112 0.0
H1638 H 0.3211 0.93291 0.37458 0.0
H1639 H 0.29909 0.93761 0.36175 0.0
C1640 C 0.3472 0.98417 0.39786 0.0
C1641 C 0.34556 0.99267 0.37972 0.0
C1642 C 0.33287 0.97175 0.40429 0.0
C1643 C 0.31643 0.96731 0.39282 0.0
C1644 C 0.3146 0.97571 0.37464 0.0
H1645 H 0.22079 0.9051 0.44661 0.0
H1646 H 0.23914 0.92904 0.429 0.0
C1647 C 0.32906 0.98827 0.36812 0.0
C1648 C 0.30142 0.95407 0.40042 0.0
H1649 H 0.28097 0.90909 0.39519 0.0
C1650 C 0.29324 0.95893 0.41766 0.0
C1651 C 0.29675 0.93593 0.39212 0.0
C1652 C 0.30547 0.92966 0.37394 0.0
C1653 C 0.28103 0.94604 0.42707 0.0
C1654 C 0.27654 0.92779 0.41891 0.0
C1655 C 0.28432 0.92309 0.40142 0.0
C1656 C 0.2649 0.91298 0.42895 0.0
C1657 C 0.27375 0.95175 0.44613 0.0
C1658 C 0.27303 0.89573 0.43449 0.0
C1659 C 0.26259 0.882 0.44461 0.0
C1660 C 0.24363 0.88508 0.44939 0.0
C1661 C 0.2354 0.90228 0.44354 0.0
C1662 C 0.24589 0.91602 0.4334 0.0
H1663 H 0.28178 0.96446 0.45233 0.0
H1664 H 0.25851 0.95533 0.44429 0.0
H1665 H 0.27478 0.93981 0.45645 0.0
H1666 H 0.28767 0.89303 0.4313 0.0
H1667 H 0.26957 0.86912 0.44897 0.0
H1668 H 0.18612 0.19897 0.47858 0.0
H1669 H 0.16643 0.21472 0.45399 0.0
H1670 H 0.12371 0.22425 0.49497 0.0
H1671 H 0.14326 0.20868 0.51959 0.0
H1672 H 0.12834 0.20753 0.43924 0.0
H1673 H 0.13591 0.27826 0.47531 0.0
H1674 H 0.15088 0.25868 0.48177 0.0
H1675 H 0.12701 0.25933 0.49005 0.0
C1676 C 0.17244 0.20421 0.48234 0.0
C1677 C 0.16639 0.20255 0.50118 0.0
C1678 C 0.16119 0.21328 0.46824 0.0
C1679 C 0.1437 0.22106 0.47265 0.0
C1680 C 0.1373 0.21876 0.49124 0.0
H1681 H 0.05881 0.28921 0.41218 0.0
H1682 H 0.0776 0.27088 0.43532 0.0
C1683 C 0.14848 0.20966 0.50531 0.0
C1684 C 0.13232 0.23188 0.458 0.0
H1685 H 0.11414 0.27572 0.44857 0.0
C1686 C 0.12531 0.22246 0.44124 0.0
C1687 C 0.12829 0.25139 0.46054 0.0
C1688 C 0.13604 0.26261 0.47779 0.0
C1689 C 0.11405 0.23184 0.42725 0.0
C1690 C 0.11001 0.25138 0.42978 0.0
C1691 C 0.11712 0.26078 0.44653 0.0
C1692 C 0.09841 0.26234 0.41537 0.0
C1693 C 0.10613 0.22051 0.41014 0.0
C1694 C 0.10381 0.26397 0.39634 0.0
C1695 C 0.09304 0.27449 0.38301 0.0
C1696 C 0.07666 0.2839 0.38836 0.0
C1697 C 0.07139 0.28239 0.40748 0.0
C1698 C 0.08212 0.2718 0.42077 0.0
H1699 H 0.1057 0.20491 0.413 0.0
H1700 H 0.09149 0.22482 0.40586 0.0
H1701 H 0.11545 0.22314 0.39797 0.0
H1702 H 0.11657 0.25733 0.39182 0.0
H1703 H 0.0978 0.27555 0.36857 0.0
H1704 H 0.62023 0.68461 0.94805 0.0
H1705 H 0.60555 0.70867 0.92796 0.0
H1706 H 0.63588 0.75317 0.96093 0.0
H1707 H 0.65103 0.72883 0.98119 0.0
H1708 H 0.58161 0.73544 0.93895 0.0
H1709 H 0.64434 0.77097 0.90668 0.0
H1710 H 0.64575 0.74838 0.91887 0.0
H1711 H 0.64571 0.77031 0.9323 0.0
C1712 C 0.62406 0.6995 0.95098 0.0
C1713 C 0.63686 0.70472 0.96633 0.0
C1714 C 0.61556 0.7133 0.93942 0.0
C1715 C 0.61956 0.73283 0.94275 0.0
C1716 C 0.63275 0.73821 0.95777 0.0
H1717 H 0.57162 0.83633 0.8987 0.0
H1718 H 0.5904 0.81166 0.91379 0.0
C1719 C 0.64141 0.72428 0.9694 0.0
C1720 C 0.60893 0.74725 0.93109 0.0
H1721 H 0.61444 0.7852 0.90096 0.0
C1722 C 0.58883 0.74624 0.93056 0.0
C1723 C 0.61823 0.76138 0.92006 0.0
C1724 C 0.63969 0.7628 0.91931 0.0
C1725 C 0.57785 0.75912 0.91975 0.0
C1726 C 0.58713 0.7733 0.90874 0.0
C1727 C 0.60724 0.77427 0.90921 0.0
C1728 C 0.5763 0.7882 0.89798 0.0
C1729 C 0.55639 0.75782 0.92075 0.0
C1730 C 0.56229 0.78346 0.88349 0.0
C1731 C 0.55135 0.79774 0.87467 0.0
C1732 C 0.55423 0.81701 0.88021 0.0
C1733 C 0.56881 0.82166 0.89412 0.0
C1734 C 0.57969 0.80751 0.9028 0.0
H1735 H 0.55177 0.74911 0.93304 0.0
H1736 H 0.55051 0.77226 0.92198 0.0
H1737 H 0.55012 0.75099 0.9075 0.0
H1738 H 0.55962 0.7687 0.87919 0.0
H1739 H 0.54027 0.79363 0.86404 0.0
H1740 H 0.32501 0.66524 0.97966 0.0
H1741 H 0.30991 0.64426 0.95496 0.0
H1742 H 0.2569 0.67269 0.96019 0.0
H1743 H 0.27186 0.69368 0.9849 0.0
H1744 H 0.27972 0.61903 0.95787 0.0
H1745 H 0.26206 0.67266 0.90287 0.0
H1746 H 0.27845 0.67794 0.92293 0.0
H1747 H 0.25307 0.67855 0.92563 0.0
C1748 C 0.31014 0.66706 0.97559 0.0
C1749 C 0.29968 0.68122 0.98433 0.0
C1750 C 0.30155 0.6551 0.96136 0.0
C1751 C 0.28235 0.65709 0.95544 0.0
C1752 C 0.27187 0.6712 0.96411 0.0
H1753 H 0.19072 0.59696 0.89767 0.0
H1754 H 0.21378 0.61984 0.91276 0.0
C1755 C 0.28045 0.68319 0.9783 0.0
C1756 C 0.27291 0.6437 0.94107 0.0
H1757 H 0.24536 0.64211 0.89962 0.0
C1758 C 0.27249 0.62403 0.94495 0.0
C1759 C 0.26356 0.65021 0.92415 0.0
C1760 C 0.26445 0.67098 0.91852 0.0
C1761 C 0.26209 0.61084 0.93298 0.0
C1762 C 0.25204 0.61747 0.91652 0.0
C1763 C 0.25308 0.63704 0.91223 0.0
C1764 C 0.23861 0.60468 0.90495 0.0
C1765 C 0.26108 0.59006 0.9386 0.0
C1766 C 0.24491 0.58887 0.89484 0.0
C1767 C 0.23166 0.57571 0.88603 0.0
C1768 C 0.21195 0.57816 0.88733 0.0
C1769 C 0.20581 0.59459 0.89651 0.0
C1770 C 0.21898 0.60772 0.90514 0.0
H1771 H 0.26716 0.58778 0.95327 0.0
H1772 H 0.24606 0.58441 0.93779 0.0
H1773 H 0.26926 0.58164 0.92855 0.0
H1774 H 0.26003 0.5864 0.89428 0.0
H1775 H 0.23682 0.56315 0.87913 0.0
H1776 H 0.35914 0.31491 0.94486 0.0
H1777 H 0.3816 0.29881 0.92517 0.0
H1778 H 0.42193 0.29707 0.9732 0.0
H1779 H 0.39932 0.31298 0.99317 0.0
H1780 H 0.41928 0.3106 0.91633 0.0
H1781 H 0.41859 0.24108 0.95419 0.0
H1782 H 0.40056 0.25845 0.95727 0.0
H1783 H 0.42376 0.26187 0.96892 0.0
C1784 C 0.37267 0.31094 0.95139 0.0
C1785 C 0.37723 0.31518 0.97078 0.0
C1786 C 0.3856 0.30181 0.94001 0.0
C1787 C 0.40344 0.29642 0.94767 0.0
C1788 C 0.40817 0.30075 0.96696 0.0
H1789 H 0.49612 0.23449 0.89718 0.0
H1790 H 0.47574 0.25126 0.91871 0.0
C1791 C 0.39526 0.31004 0.97836 0.0
C1792 C 0.41708 0.28663 0.93527 0.0
H1793 H 0.43981 0.24471 0.92914 0.0
C1794 C 0.42375 0.29618 0.91915 0.0
C1795 C 0.42309 0.26784 0.93891 0.0
C1796 C 0.41606 0.25658 0.95566 0.0
C1797 C 0.4363 0.28762 0.90673 0.0
C1798 C 0.442 0.26864 0.9101 0.0
C1799 C 0.43549 0.25918 0.92639 0.0
C1800 C 0.45449 0.25832 0.89683 0.0
C1801 C 0.44365 0.29925 0.89036 0.0
C1802 C 0.44937 0.25629 0.87728 0.0
C1803 C 0.46108 0.24674 0.86488 0.0
C1804 C 0.47815 0.23864 0.87169 0.0
C1805 C 0.48307 0.24037 0.89135 0.0
C1806 C 0.4714 0.25005 0.90373 0.0
H1807 H 0.44307 0.31483 0.89324 0.0
H1808 H 0.4586 0.29588 0.88746 0.0
H1809 H 0.43456 0.29598 0.87732 0.0
H1810 H 0.43616 0.26194 0.87156 0.0
H1811 H 0.45654 0.24543 0.84998 0.0
H1812 H 0.73429 0.37305 0.96252 0.0
H1813 H 0.75003 0.39528 0.94091 0.0
H1814 H 0.80394 0.36973 0.95431 0.0
H1815 H 0.78826 0.34738 0.97583 0.0
H1816 H 0.77774 0.42217 0.94828 0.0
H1817 H 0.80388 0.3701 0.89691 0.0
H1818 H 0.78658 0.36352 0.91426 0.0
H1819 H 0.81166 0.3651 0.92101 0.0
C1820 C 0.74949 0.37212 0.96088 0.0
C1821 C 0.75997 0.35833 0.97094 0.0
C1822 C 0.75848 0.38482 0.94842 0.0
C1823 C 0.77815 0.38403 0.94565 0.0
C1824 C 0.78866 0.37033 0.95572 0.0
H1825 H 0.86761 0.45245 0.89968 0.0
H1826 H 0.84646 0.42816 0.91324 0.0
C1827 C 0.77967 0.35755 0.96811 0.0
C1828 C 0.78782 0.39809 0.93296 0.0
H1829 H 0.81796 0.40183 0.89598 0.0
C1830 C 0.78629 0.41772 0.93666 0.0
C1831 C 0.79893 0.39235 0.91769 0.0
C1832 C 0.80022 0.37162 0.91209 0.0
C1833 C 0.79624 0.43165 0.92615 0.0
C1834 C 0.8079 0.42585 0.91137 0.0
C1835 C 0.80901 0.40627 0.90729 0.0
C1836 C 0.82046 0.43975 0.90128 0.0
C1837 C 0.79488 0.45244 0.93148 0.0
C1838 C 0.81293 0.45409 0.88948 0.0
C1839 C 0.8251 0.46803 0.8815 0.0
C1840 C 0.84495 0.4679 0.88534 0.0
C1841 C 0.85239 0.45304 0.89649 0.0
C1842 C 0.84031 0.4391 0.90427 0.0
H1843 H 0.78765 0.45434 0.9451 0.0
H1844 H 0.80934 0.45948 0.93284 0.0
H1845 H 0.78663 0.45984 0.92005 0.0
H1846 H 0.79765 0.45474 0.88679 0.0
H1847 H 0.81892 0.47935 0.87306 0.0
H1848 H 0.69672 0.25859 0.07541 0.0
H1849 H 0.67185 0.24107 0.09224 0.0
H1850 H 0.63442 0.288 0.08402 0.0
H1851 H 0.6592 0.3058 0.06753 0.0
H1852 H 0.65325 0.25247 0.12566 0.0
H1853 H 0.60152 0.24128 0.06406 0.0
H1854 H 0.62635 0.24795 0.0612 0.0
H1855 H 0.60993 0.2656 0.06797 0.0
C1856 C 0.68329 0.26532 0.07722 0.0
C1857 C 0.68011 0.2837 0.06989 0.0
C1858 C 0.669 0.25518 0.08679 0.0
C1859 C 0.65112 0.26306 0.08911 0.0
C1860 C 0.64792 0.28142 0.08202 0.0
H1861 H 0.54738 0.2291 0.14582 0.0
H1862 H 0.57141 0.24399 0.12575 0.0
C1863 C 0.66221 0.29161 0.07254 0.0
C1864 C 0.63604 0.25237 0.09952 0.0
H1865 H 0.59061 0.23287 0.09458 0.0
C1866 C 0.6396 0.24806 0.11884 0.0
C1867 C 0.61817 0.24673 0.09065 0.0
C1868 C 0.61374 0.25046 0.06978 0.0
C1869 C 0.62568 0.23867 0.12964 0.0
C1870 C 0.60781 0.23291 0.12076 0.0
C1871 C 0.60428 0.23719 0.1014 0.0
C1872 C 0.59255 0.22278 0.13147 0.0
C1873 C 0.63005 0.23559 0.15064 0.0
C1874 C 0.59605 0.20545 0.14077 0.0
C1875 C 0.58237 0.19693 0.15232 0.0
C1876 C 0.56472 0.20541 0.15466 0.0
C1877 C 0.56078 0.22214 0.14438 0.0
C1878 C 0.57455 0.23072 0.13292 0.0
H1879 H 0.64184 0.24538 0.15624 0.0
H1880 H 0.61728 0.23778 0.15909 0.0
H1881 H 0.63457 0.22072 0.15286 0.0
H1882 H 0.60958 0.19871 0.13946 0.0
H1883 H 0.58586 0.18398 0.15988 0.0
H1884 H 0.78025 0.58916 0.1831 0.0
H1885 H 0.76247 0.60841 0.16001 0.0
H1886 H 0.78551 0.57711 0.11384 0.0
H1887 H 0.8032 0.5576 0.13679 0.0
H1888 H 0.78543 0.6176 0.10781 0.0
H1889 H 0.71462 0.58855 0.12888 0.0
H1890 H 0.72978 0.59853 0.14801 0.0
H1891 H 0.73663 0.5774 0.13582 0.0
C1892 C 0.78149 0.58618 0.16808 0.0
C1893 C 0.79318 0.57156 0.16199 0.0
C1894 C 0.77131 0.59731 0.15483 0.0
C1895 C 0.77245 0.59415 0.13512 0.0
C1896 C 0.78439 0.5799 0.12895 0.0
H1897 H 0.69734 0.61556 0.04028 0.0
H1898 H 0.71947 0.60452 0.06504 0.0
C1899 C 0.79456 0.56872 0.14217 0.0
C1900 C 0.76074 0.60519 0.12094 0.0
H1901 H 0.71466 0.61238 0.10535 0.0
C1902 C 0.76995 0.6166 0.10737 0.0
C1903 C 0.74052 0.60384 0.12024 0.0
C1904 C 0.72973 0.59132 0.13388 0.0
C1905 C 0.7595 0.62646 0.09309 0.0
C1906 C 0.73931 0.62492 0.09232 0.0
C1907 C 0.73014 0.61376 0.10606 0.0
C1908 C 0.7274 0.63267 0.07614 0.0
C1909 C 0.77005 0.63786 0.07844 0.0
C1910 C 0.7247 0.65239 0.07369 0.0
C1911 C 0.71182 0.65891 0.0593 0.0
C1912 C 0.7014 0.64575 0.04726 0.0
C1913 C 0.70488 0.62616 0.04938 0.0
C1914 C 0.7176 0.61975 0.06358 0.0
H1915 H 0.78575 0.63636 0.08 0.0
H1916 H 0.76508 0.6332 0.06384 0.0
H1917 H 0.76691 0.6532 0.07993 0.0
H1918 H 0.73202 0.66266 0.0833 0.0
H1919 H 0.70942 0.67405 0.05814 0.0
H1920 H 0.35421 0.76284 0.11525 0.0
H1921 H 0.37797 0.78193 0.13456 0.0
H1922 H 0.42042 0.77105 0.09364 0.0
H1923 H 0.39687 0.75229 0.07421 0.0
H1924 H 0.43286 0.7653 0.13239 0.0
H1925 H 0.40002 0.83576 0.12119 0.0
H1926 H 0.38481 0.81674 0.12982 0.0
H1927 H 0.39363 0.81524 0.10624 0.0
C1928 C 0.36854 0.76466 0.11026 0.0
C1929 C 0.37357 0.75592 0.09315 0.0
C1930 C 0.38212 0.77555 0.12135 0.0
C1931 C 0.40095 0.77798 0.1155 0.0
C1932 C 0.406 0.76928 0.09848 0.0
H1933 H 0.49452 0.85602 0.13504 0.0
H1934 H 0.4662 0.83682 0.12489 0.0
C1935 C 0.39249 0.75845 0.08741 0.0
C1936 C 0.41557 0.78959 0.1269 0.0
H1937 H 0.42877 0.8355 0.13973 0.0
C1938 C 0.43188 0.78062 0.13424 0.0
C1939 C 0.41428 0.80958 0.12916 0.0
C1940 C 0.39734 0.82002 0.12111 0.0
C1941 C 0.44717 0.79117 0.14332 0.0
C1942 C 0.44604 0.81121 0.14525 0.0
C1943 C 0.42951 0.82011 0.13838 0.0
C1944 C 0.46271 0.82341 0.15228 0.0
C1945 C 0.4648 0.78096 0.14996 0.0
C1946 C 0.47007 0.82247 0.17121 0.0
C1947 C 0.48639 0.83354 0.17715 0.0
C1948 C 0.49561 0.84566 0.1642 0.0
C1949 C 0.4879 0.84679 0.1454 0.0
C1950 C 0.47163 0.83585 0.13955 0.0
H1951 H 0.46449 0.76587 0.14492 0.0
H1952 H 0.47782 0.78843 0.14479 0.0
H1953 H 0.46591 0.78101 0.16579 0.0
H1954 H 0.46327 0.81309 0.18134 0.0
H1955 H 0.49195 0.83238 0.19173 0.0
H1956 H 0.26484 0.37487 0.05701 0.0
H1957 H 0.24735 0.39596 0.07738 0.0
H1958 H 0.30064 0.42113 0.10013 0.0
H1959 H 0.31817 0.40029 0.07968 0.0
H1960 H 0.24612 0.40002 0.11517 0.0
H1961 H 0.27333 0.46856 0.08632 0.0
H1962 H 0.27703 0.44598 0.07483 0.0
H1963 H 0.29245 0.45408 0.09469 0.0
C1964 C 0.27289 0.38487 0.06634 0.0
C1965 C 0.29302 0.38588 0.06649 0.0
C1966 C 0.26281 0.39702 0.07799 0.0
C1967 C 0.27255 0.41055 0.09011 0.0
C1968 C 0.29265 0.41132 0.09054 0.0
H1969 H 0.25295 0.48375 0.18361 0.0
H1970 H 0.26365 0.46399 0.15792 0.0
C1971 C 0.30272 0.39929 0.07881 0.0
C1972 C 0.2618 0.42347 0.10266 0.0
H1973 H 0.25852 0.47021 0.11649 0.0
C1974 C 0.24863 0.41539 0.11521 0.0
C1975 C 0.2648 0.44364 0.10274 0.0
C1976 C 0.27751 0.45359 0.08877 0.0
C1977 C 0.23925 0.42672 0.12836 0.0
C1978 C 0.24298 0.44673 0.12901 0.0
C1979 C 0.25563 0.45488 0.11606 0.0
C1980 C 0.23565 0.45913 0.14433 0.0
C1981 C 0.22604 0.41715 0.1421 0.0
C1982 C 0.2162 0.46333 0.14528 0.0
C1983 C 0.20989 0.47495 0.16011 0.0
C1984 C 0.22293 0.48238 0.17436 0.0
C1985 C 0.24236 0.47822 0.17309 0.0
C1986 C 0.2486 0.4669 0.1583 0.0
H1987 H 0.22604 0.40132 0.14104 0.0
H1988 H 0.23027 0.42153 0.15698 0.0
H1989 H 0.21126 0.42179 0.13907 0.0
H1990 H 0.20591 0.45765 0.13456 0.0
H1991 H 0.19486 0.47785 0.16059 0.0
H1992 H 0.88663 0.54046 0.81174 0.0
H1993 H 0.90474 0.56045 0.78964 0.0
H1994 H 0.88654 0.61113 0.81766 0.0
H1995 H 0.86855 0.59139 0.83976 0.0
H1996 H 0.89486 0.59207 0.76427 0.0
H1997 H 0.94572 0.61443 0.82379 0.0
H1998 H 0.92916 0.5942 0.82545 0.0
H1999 H 0.92108 0.61807 0.82819 0.0
C2000 C 0.88609 0.55586 0.8129 0.0
C2001 C 0.87621 0.56431 0.82763 0.0
C2002 C 0.89655 0.56727 0.80032 0.0
C2003 C 0.89733 0.58728 0.80227 0.0
C2004 C 0.88646 0.59572 0.81613 0.0
H2005 H 0.96137 0.68302 0.75488 0.0
H2006 H 0.94017 0.6618 0.77263 0.0
C2007 C 0.87607 0.58439 0.82869 0.0
C2008 C 0.91027 0.59939 0.79064 0.0
H2009 H 0.94903 0.63051 0.79442 0.0
C2010 C 0.90677 0.6004 0.77081 0.0
C2011 C 0.92584 0.61024 0.79919 0.0
C2012 C 0.93085 0.60911 0.8203 0.0
C2013 C 0.91809 0.61239 0.75941 0.0
C2014 C 0.93357 0.62339 0.76801 0.0
C2015 C 0.93715 0.62218 0.78781 0.0
C2016 C 0.94622 0.63629 0.75682 0.0
C2017 C 0.91303 0.61358 0.73833 0.0
C2018 C 0.95692 0.62905 0.74214 0.0
C2019 C 0.96901 0.64119 0.73188 0.0
C2020 C 0.97082 0.66089 0.73612 0.0
C2021 C 0.96021 0.66804 0.751 0.0
C2022 C 0.94812 0.65588 0.76125 0.0
H2023 H 0.89808 0.60847 0.73492 0.0
H2024 H 0.9149 0.62847 0.73315 0.0
H2025 H 0.92261 0.60445 0.7304 0.0
H2026 H 0.95605 0.61394 0.73869 0.0
H2027 H 0.97674 0.63508 0.72047 0.0
H2028 H 0.90156 0.48576 0.22618 0.0
H2029 H 0.92388 0.46354 0.24084 0.0
H2030 H 0.87765 0.4352 0.26931 0.0
H2031 H 0.85524 0.45717 0.25467 0.0
H2032 H 0.90899 0.44194 0.29361 0.0
H2033 H 0.93114 0.40779 0.227 0.0
H2034 H 0.93432 0.43336 0.22745 0.0
H2035 H 0.91065 0.42259 0.22761 0.0
C2036 C 0.89602 0.4747 0.23536 0.0
C2037 C 0.87641 0.47342 0.23909 0.0
C2038 C 0.90888 0.46192 0.24377 0.0
C2039 C 0.90251 0.44743 0.25606 0.0
C2040 C 0.88301 0.44619 0.2599 0.0
H2041 H 0.96143 0.34598 0.29464 0.0
H2042 H 0.94043 0.36901 0.27944 0.0
C2043 C 0.87015 0.45891 0.25151 0.0
C2044 C 0.9161 0.43378 0.26524 0.0
H2045 H 0.94802 0.3995 0.25562 0.0
C2046 C 0.91753 0.43269 0.28527 0.0
C2047 C 0.92714 0.42145 0.25446 0.0
C2048 C 0.92567 0.42116 0.23294 0.0
C2049 C 0.92971 0.41986 0.29475 0.0
C2050 C 0.94107 0.40783 0.28399 0.0
C2051 C 0.93951 0.40878 0.26395 0.0
C2052 C 0.95427 0.39385 0.29322 0.0
C2053 C 0.92993 0.41898 0.31625 0.0
C2054 C 0.96935 0.39999 0.30594 0.0
C2055 C 0.98153 0.38679 0.31466 0.0
C2056 C 0.97905 0.36702 0.31085 0.0
C2057 C 0.96404 0.36098 0.2979 0.0
C2058 C 0.9519 0.3742 0.28919 0.0
H2059 H 0.91706 0.4253 0.32201 0.0
H2060 H 0.93072 0.404 0.32127 0.0
H2061 H 0.94267 0.42718 0.32224 0.0
H2062 H 0.97184 0.41507 0.30901 0.0
H2063 H 0.99304 0.39218 0.32419 0.0
H2064 H 0.62966 1.00535 0.34524 0.0
H2065 H 0.60915 0.98067 0.32894 0.0
H2066 H 0.65877 0.94876 0.31726 0.0
H2067 H 0.67921 0.97296 0.33383 0.0
H2068 H 0.60869 0.96988 0.29226 0.0
H2069 H 0.62431 0.90682 0.33637 0.0
H2070 H 0.63102 0.93084 0.34417 0.0
H2071 H 0.64586 0.91815 0.32844 0.0
C2072 C 0.63618 0.99291 0.33949 0.0
C2073 C 0.65612 0.99115 0.34097 0.0
C2074 C 0.62442 0.97882 0.33013 0.0
C2075 C 0.63232 0.96262 0.32212 0.0
C2076 C 0.6522 0.96078 0.32376 0.0
H2077 H 0.60752 0.87651 0.23863 0.0
H2078 H 0.61972 0.89722 0.26486 0.0
C2079 C 0.66393 0.97477 0.33316 0.0
C2080 C 0.62013 0.94833 0.31083 0.0
H2081 H 0.61144 0.90028 0.30438 0.0
C2082 C 0.60899 0.95469 0.29513 0.0
C2083 C 0.6204 0.92847 0.31459 0.0
C2084 C 0.63088 0.92069 0.33194 0.0
C2085 C 0.59908 0.94174 0.28251 0.0
C2086 C 0.60019 0.92185 0.28574 0.0
C2087 C 0.61067 0.91551 0.30186 0.0
C2088 C 0.59209 0.90749 0.2716 0.0
C2089 C 0.58828 0.94939 0.26527 0.0
C2090 C 0.57236 0.90573 0.26717 0.0
C2091 C 0.56528 0.89373 0.2522 0.0
C2092 C 0.57785 0.88337 0.24133 0.0
C2093 C 0.59745 0.88432 0.24662 0.0
C2094 C 0.60446 0.89619 0.26162 0.0
H2095 H 0.59147 0.96488 0.26312 0.0
H2096 H 0.59176 0.94152 0.25217 0.0
H2097 H 0.57271 0.94736 0.26717 0.0
H2098 H 0.5625 0.91407 0.27489 0.0
H2099 H 0.55011 0.89335 0.24854 0.0
H2100 H 0.12175 0.52898 0.22062 0.0
H2101 H 0.10126 0.54903 0.239 0.0
H2102 H 0.14994 0.58584 0.25538 0.0
H2103 H 0.17037 0.5662 0.23661 0.0
H2104 H 0.10162 0.55577 0.27601 0.0
H2105 H 0.11263 0.62541 0.24056 0.0
H2106 H 0.12042 0.6034 0.23053 0.0
H2107 H 0.13474 0.61576 0.24899 0.0
C2108 C 0.12807 0.54155 0.22782 0.0
C2109 C 0.14777 0.54597 0.22691 0.0
C2110 C 0.11631 0.553 0.23846 0.0
C2111 C 0.12386 0.56923 0.2485 0.0
C2112 C 0.14351 0.57378 0.24744 0.0
H2113 H 0.0712 0.62042 0.34667 0.0
H2114 H 0.09048 0.60236 0.32523 0.0
C2115 C 0.15526 0.56241 0.2367 0.0
C2116 C 0.11144 0.58068 0.26086 0.0
H2117 H 0.09802 0.62614 0.2707 0.0
C2118 C 0.10079 0.57115 0.27472 0.0
C2119 C 0.10999 0.60077 0.25919 0.0
C2120 C 0.11989 0.61191 0.24388 0.0
C2121 C 0.08915 0.58104 0.28705 0.0
C2122 C 0.08839 0.60123 0.28596 0.0
C2123 C 0.09871 0.61073 0.27184 0.0
C2124 C 0.07686 0.61269 0.29918 0.0
C2125 C 0.07746 0.56961 0.30085 0.0
C2126 C 0.06314 0.62522 0.2919 0.0
C2127 C 0.05217 0.63578 0.30421 0.0
C2128 C 0.05461 0.63414 0.32419 0.0
C2129 C 0.0686 0.62183 0.33143 0.0
C2130 C 0.07964 0.61139 0.31912 0.0
H2131 H 0.07499 0.55457 0.29597 0.0
H2132 H 0.08529 0.56939 0.31494 0.0
H2133 H 0.0634 0.57598 0.30274 0.0
H2134 H 0.06068 0.62663 0.27662 0.0
H2135 H 0.04149 0.64494 0.29802 0.0
H2136 H 0.50435 0.12811 0.20135 0.0
H2137 H 0.48192 0.10733 0.21822 0.0
H2138 H 0.45042 0.15641 0.23357 0.0
H2139 H 0.47241 0.17715 0.21642 0.0
H2140 H 0.47627 0.10747 0.25523 0.0
H2141 H 0.40696 0.12009 0.2179 0.0
H2142 H 0.42944 0.12745 0.2081 0.0
H2143 H 0.41875 0.14213 0.22558 0.0
C2144 C 0.49243 0.13446 0.20798 0.0
C2145 C 0.49023 0.15435 0.20745 0.0
C2146 C 0.4796 0.12253 0.21767 0.0
C2147 C 0.46422 0.13019 0.227 0.0
C2148 C 0.46178 0.15 0.22611 0.0
H2149 H 0.41291 0.09606 0.32881 0.0
H2150 H 0.42781 0.11121 0.3017 0.0
C2151 C 0.47453 0.1619 0.21637 0.0
C2152 C 0.45192 0.11785 0.2392 0.0
H2153 H 0.40548 0.10734 0.24988 0.0
C2154 C 0.46081 0.10722 0.25378 0.0
C2155 C 0.43167 0.11724 0.23733 0.0
C2156 C 0.42116 0.12718 0.22124 0.0
C2157 C 0.45011 0.09691 0.26704 0.0
C2158 C 0.42994 0.09737 0.26593 0.0
C2159 C 0.42095 0.10715 0.25083 0.0
C2160 C 0.41835 0.08916 0.28141 0.0
C2161 C 0.46048 0.08592 0.2825 0.0
C2162 C 0.40731 0.07207 0.27884 0.0
C2163 C 0.39859 0.06332 0.29445 0.0
C2164 C 0.40086 0.07157 0.31279 0.0
C2165 C 0.41095 0.08926 0.31492 0.0
C2166 C 0.41954 0.09794 0.29943 0.0
H2167 H 0.47544 0.08332 0.2789 0.0
H2168 H 0.46082 0.09426 0.29602 0.0
H2169 H 0.45297 0.07197 0.28499 0.0
H2170 H 0.40619 0.06507 0.26501 0.0
H2171 H 0.39108 0.04961 0.29239 0.0
H2172 H 0.07804 0.38507 0.7289 0.0
H2173 H 0.09851 0.39535 0.75674 0.0
H2174 H 0.12644 0.43797 0.72236 0.0
H2175 H 0.10672 0.42752 0.69468 0.0
H2176 H 0.15182 0.42165 0.74655 0.0
H2177 H 0.08889 0.44399 0.78557 0.0
H2178 H 0.08861 0.41913 0.77914 0.0
H2179 H 0.08711 0.43692 0.76078 0.0
C2180 C 0.08876 0.39641 0.72726 0.0
C2181 C 0.09056 0.40562 0.70962 0.0
C2182 C 0.10034 0.40239 0.7432 0.0
C2183 C 0.11374 0.41775 0.74175 0.0
C2184 C 0.11617 0.42619 0.72391 0.0
H2185 H 0.17989 0.4997 0.81209 0.0
H2186 H 0.16698 0.47918 0.78571 0.0
C2187 C 0.10476 0.42021 0.70807 0.0
C2188 C 0.12462 0.42598 0.75875 0.0
H2189 H 0.11909 0.44968 0.80073 0.0
C2190 C 0.14466 0.42764 0.75848 0.0
C2191 C 0.1153 0.43398 0.77424 0.0
C2192 C 0.0938 0.43361 0.77497 0.0
C2193 C 0.15557 0.43721 0.77315 0.0
C2194 C 0.1462 0.44542 0.78844 0.0
C2195 C 0.12624 0.44335 0.78897 0.0
C2196 C 0.15662 0.45656 0.80396 0.0
C2197 C 0.17702 0.43848 0.77221 0.0
C2198 C 0.15536 0.45054 0.8229 0.0
C2199 C 0.16267 0.46219 0.83791 0.0
C2200 C 0.17131 0.48021 0.83433 0.0
C2201 C 0.17347 0.48584 0.8153 0.0
C2202 C 0.1661 0.47412 0.80023 0.0
H2203 H 0.18227 0.42774 0.76217 0.0
H2204 H 0.18147 0.4529 0.76716 0.0
H2205 H 0.18397 0.43638 0.78654 0.0
H2206 H 0.14811 0.43708 0.82612 0.0
H2207 H 0.16085 0.45736 0.85238 0.0
H2208 H 0.56415 0.13675 0.80574 0.0
H2209 H 0.58485 0.11542 0.78905 0.0
H2210 H 0.61947 0.16401 0.77196 0.0
H2211 H 0.59868 0.18535 0.78831 0.0
H2212 H 0.6128 0.14166 0.74267 0.0
H2213 H 0.63633 0.09553 0.80222 0.0
H2214 H 0.6108 0.09544 0.79928 0.0
H2215 H 0.6239 0.11723 0.80603 0.0
C2216 C 0.57631 0.14291 0.79866 0.0
C2217 C 0.57961 0.16289 0.79843 0.0
C2218 C 0.58828 0.13062 0.78915 0.0
C2219 C 0.6041 0.13791 0.77939 0.0
C2220 C 0.60748 0.15785 0.77933 0.0
H2221 H 0.68885 0.06445 0.72488 0.0
H2222 H 0.67475 0.08714 0.74699 0.0
C2223 C 0.59545 0.17013 0.78867 0.0
C2224 C 0.61639 0.12503 0.76824 0.0
H2225 H 0.64178 0.08402 0.77062 0.0
C2226 C 0.61926 0.1292 0.74895 0.0
C2227 C 0.62528 0.10881 0.77626 0.0
C2228 C 0.62411 0.10408 0.79713 0.0
C2229 C 0.62995 0.11742 0.73742 0.0
C2230 C 0.63783 0.1006 0.7451 0.0
C2231 C 0.63567 0.09676 0.76457 0.0
C2232 C 0.64676 0.08619 0.73261 0.0
C2233 C 0.63263 0.12313 0.71696 0.0
C2234 C 0.63576 0.07767 0.7175 0.0
C2235 C 0.64371 0.06491 0.70498 0.0
C2236 C 0.66302 0.05996 0.70711 0.0
C2237 C 0.67402 0.06796 0.72267 0.0
C2238 C 0.66593 0.08093 0.73533 0.0
H2239 H 0.63132 0.13878 0.71502 0.0
H2240 H 0.64679 0.11903 0.71212 0.0
H2241 H 0.62139 0.11579 0.70767 0.0
H2242 H 0.62087 0.08099 0.71525 0.0
H2243 H 0.63452 0.05896 0.69346 0.0
H2244 H 0.45943 0.85552 0.80825 0.0
H2245 H 0.44031 0.87132 0.78286 0.0
H2246 H 0.47796 0.92133 0.78822 0.0
H2247 H 0.49674 0.90581 0.81339 0.0
H2248 H 0.42158 0.9072 0.78798 0.0
H2249 H 0.47253 0.91291 0.73 0.0
H2250 H 0.47506 0.89603 0.74927 0.0
H2251 H 0.48259 0.92067 0.75285 0.0
C2252 C 0.46388 0.86965 0.80357 0.0
C2253 C 0.4797 0.87934 0.81268 0.0
C2254 C 0.45287 0.87876 0.78919 0.0
C2255 C 0.45775 0.89753 0.78342 0.0
C2256 C 0.474 0.9068 0.79208 0.0
H2257 H 0.41668 0.99287 0.71839 0.0
H2258 H 0.43454 0.96886 0.73604 0.0
C2259 C 0.48474 0.89789 0.80653 0.0
C2260 C 0.4453 0.90824 0.76957 0.0
H2261 H 0.44634 0.93386 0.72811 0.0
C2262 C 0.42685 0.91275 0.7747 0.0
C2263 C 0.45219 0.91572 0.75233 0.0
C2264 C 0.47162 0.91097 0.74565 0.0
C2265 C 0.41551 0.92517 0.76362 0.0
C2266 C 0.42256 0.933 0.74654 0.0
C2267 C 0.44082 0.92799 0.74114 0.0
C2268 C 0.41172 0.94716 0.73466 0.0
C2269 C 0.39651 0.93056 0.77093 0.0
C2270 C 0.39299 0.943 0.72737 0.0
C2271 C 0.38262 0.95684 0.71729 0.0
C2272 C 0.3908 0.97515 0.71398 0.0
C2273 C 0.40984 0.97898 0.72058 0.0
C2274 C 0.42012 0.9652 0.73075 0.0
H2275 H 0.39551 0.92754 0.7864 0.0
H2276 H 0.39402 0.94596 0.76858 0.0
H2277 H 0.38492 0.92209 0.76318 0.0
H2278 H 0.38626 0.92907 0.72962 0.0
H2279 H 0.36807 0.95326 0.71238 0.0
loop_
_geom_bond_atom_site_label_1
_geom_bond_atom_site_label_2
_geom_bond_distance
_geom_bond_site_symmetry_2
_ccdc_geom_bond_type
Cu0 N1 1.999 1_545 S
Cu0 O6 1.974 . S
Cu0 N11 1.985 . S
Cu0 O20 1.950 1_545 S
N1 Cu0 1.999 1_565 S
N1 C3 1.263 . S
N1 C5 1.389 . S
N2 C3 1.358 . S
N2 C4 1.400 . S
C3 N1 1.263 . S
C3 N2 1.358 . S
C3 H9 0.930 1_565 S
C4 N2 1.400 . S
C4 C5 1.351 . S
C4 H21 0.930 . S
C5 N1 1.389 . S
C5 C4 1.351 . S
C5 H10 0.930 . S
O6 Cu0 1.974 . S
O6 C16 1.282 . S
C7 O8 1.261 . S
C7 O20 1.256 . S
O8 C7 1.261 . S
H9 C3 0.930 1_545 S
H10 C5 0.930 . S
N11 Cu0 1.985 . S
N11 C13 1.335 . S
N11 C14 1.390 . S
N12 C13 1.345 . S
N12 C15 1.336 . S
C13 N11 1.335 . S
C13 N12 1.345 . S
C13 H18 0.930 . S
C14 N11 1.390 . S
C14 C15 1.346 . S
C14 H19 0.930 . S
C15 N12 1.336 . S
C15 C14 1.346 . S
C15 H22 0.929 . S
C16 O6 1.282 . S
C16 O17 1.216 . S
O17 C16 1.216 . S
H18 C13 0.930 . S
H19 C14 0.930 . S
O20 Cu0 1.950 1_565 S
O20 C7 1.256 . S
H21 C4 0.930 . S
H22 C15 0.929 . S
Cu23 N24 1.999 . S
Cu23 O29 1.974 1_455 S
Cu23 N34 1.985 1_455 S
Cu23 O43 1.959 . S
N24 Cu23 1.999 . S
N24 C26 1.263 . S
N24 C28 1.389 . S
N25 C26 1.358 . S
N25 C27 1.400 . S
C26 N24 1.263 . S
C26 N25 1.358 . S
C26 H32 0.930 . S
C27 N25 1.400 . S
C27 C28 1.351 . S
C27 H44 0.930 . S
C28 N24 1.389 . S
C28 C27 1.351 . S
C28 H33 0.930 . S
O29 Cu23 1.974 1_655 S
O29 C39 1.282 . S
C30 O31 1.261 . S
C30 O43 1.251 . S
O31 C30 1.261 . S
H32 C26 0.930 . S
H33 C28 0.930 . S
N34 Cu23 1.985 1_655 S
N34 C36 1.335 . S
N34 C37 1.390 . S
N35 C36 1.345 . S
N35 C38 1.336 . S
C36 N34 1.335 . S
C36 N35 1.345 . S
C36 H41 0.930 1_655 S
C37 N34 1.390 . S
C37 C38 1.346 . S
C37 H42 0.930 . S
C38 N35 1.336 . S
C38 C37 1.346 . S
C38 H45 0.929 . S
C39 O29 1.282 . S
C39 O40 1.216 . S
O40 C39 1.216 . S
H41 C36 0.930 1_455 S
H42 C37 0.930 . S
O43 Cu23 1.959 . S
O43 C30 1.251 . S
H44 C27 0.930 . S
H45 C38 0.929 . S
Cu46 N47 1.999 . S
Cu46 O52 1.974 1_545 S
Cu46 N57 1.985 1_545 S
Cu46 O66 1.959 . S
N47 Cu46 1.999 . S
N47 C49 1.263 . S
N47 C51 1.389 . S
N48 C49 1.358 . S
N48 C50 1.400 . S
C49 N47 1.263 . S
C49 N48 1.358 . S
C49 H55 0.930 . S
C50 N48 1.400 . S
C50 C51 1.351 . S
C50 H67 0.930 . S
C51 N47 1.389 . S
C51 C50 1.351 . S
C51 H56 0.930 . S
O52 Cu46 1.974 1_565 S
O52 C62 1.282 . S
C53 O54 1.261 . S
C53 O66 1.251 . S
O54 C53 1.261 . S
H55 C49 0.930 . S
H56 C51 0.930 . S
N57 Cu46 1.985 1_565 S
N57 C59 1.335 . S
N57 C60 1.390 . S
N58 C59 1.345 . S
N58 C61 1.336 . S
C59 N57 1.335 . S
C59 N58 1.345 . S
C59 H64 0.930 . S
C60 N57 1.390 . S
C60 C61 1.346 . S
C60 H65 0.930 . S
C61 N58 1.336 . S
C61 C60 1.346 . S
C61 H68 0.929 . S
C62 O52 1.282 . S
C62 O63 1.216 . S
O63 C62 1.216 . S
H64 C59 0.930 . S
H65 C60 0.930 . S
O66 Cu46 1.959 . S
O66 C53 1.251 . S
H67 C50 0.930 . S
H68 C61 0.929 . S
Cu69 N70 1.999 . S
Cu69 O75 1.974 1_455 S
Cu69 N80 1.985 1_455 S
Cu69 O89 1.959 . S
N70 Cu69 1.999 . S
N70 C72 1.263 . S
N70 C74 1.389 . S
N71 C72 1.358 . S
N71 C73 1.400 . S
C72 N70 1.263 . S
C72 N71 1.358 . S
C72 H78 0.930 . S
C73 N71 1.400 . S
C73 C74 1.351 . S
C73 H90 0.930 . S
C74 N70 1.389 . S
C74 C73 1.351 . S
C74 H79 0.930 . S
O75 Cu69 1.974 1_655 S
O75 C85 1.282 . S
C76 O77 1.261 . S
C76 O89 1.251 . S
O77 C76 1.261 . S
H78 C72 0.930 . S
H79 C74 0.930 . S
N80 Cu69 1.985 1_655 S
N80 C82 1.335 . S
N80 C83 1.390 . S
N81 C82 1.345 . S
N81 C84 1.336 . S
C82 N80 1.335 . S
C82 N81 1.345 . S
C82 H87 0.930 . S
C83 N80 1.390 . S
C83 C84 1.346 . S
C83 H88 0.930 . S
C84 N81 1.336 . S
C84 C83 1.346 . S
C84 H91 0.929 . S
C85 O75 1.282 . S
C85 O86 1.216 . S
O86 C85 1.216 . S
H87 C82 0.930 . S
H88 C83 0.930 . S
O89 Cu69 1.959 . S
O89 C76 1.251 . S
H90 C73 0.930 . S
H91 C84 0.929 . S
Cu92 N93 1.999 . S
Cu92 O98 1.974 1_545 S
Cu92 N103 1.985 1_545 S
Cu92 O112 1.959 . S
N93 Cu92 1.999 . S
N93 C95 1.263 . S
N93 C97 1.389 . S
N94 C95 1.358 . S
N94 C96 1.400 . S
C95 N93 1.263 . S
C95 N94 1.358 . S
C95 H101 0.930 . S
C96 N94 1.400 . S
C96 C97 1.351 . S
C96 H113 0.930 . S
C97 N93 1.389 . S
C97 C96 1.351 . S
C97 H102 0.930 . S
O98 Cu92 1.974 1_565 S
O98 C108 1.282 . S
C99 O100 1.261 . S
C99 O112 1.251 . S
O100 C99 1.261 . S
H101 C95 0.930 . S
H102 C97 0.930 . S
N103 Cu92 1.985 1_565 S
N103 C105 1.335 . S
N103 C106 1.390 . S
N104 C105 1.345 . S
N104 C107 1.336 . S
C105 N103 1.335 . S
C105 N104 1.345 . S
C105 H110 0.930 . S
C106 N103 1.390 . S
C106 C107 1.346 . S
C106 H111 0.930 . S
C107 N104 1.336 . S
C107 C106 1.346 . S
C107 H114 0.929 . S
C108 O98 1.282 . S
C108 O109 1.216 . S
O109 C108 1.216 . S
H110 C105 0.930 . S
H111 C106 0.930 . S
O112 Cu92 1.959 . S
O112 C99 1.251 . S
H113 C96 0.930 . S
H114 C107 0.929 . S
Cu115 N116 1.999 . S
Cu115 O121 1.974 1_455 S
Cu115 N126 1.985 1_455 S
Cu115 O135 1.959 . S
N116 Cu115 1.999 . S
N116 C118 1.263 . S
N116 C120 1.389 . S
N117 C118 1.358 . S
N117 C119 1.400 . S
C118 N116 1.263 . S
C118 N117 1.358 . S
C118 H124 0.930 . S
C119 N117 1.400 . S
C119 C120 1.351 . S
C119 H136 0.930 . S
C120 N116 1.389 . S
C120 C119 1.351 . S
C120 H125 0.930 . S
O121 Cu115 1.974 1_655 S
O121 C131 1.282 . S
C122 O123 1.261 . S
C122 O135 1.251 . S
O123 C122 1.261 . S
H124 C118 0.930 . S
H125 C120 0.930 . S
N126 Cu115 1.985 1_655 S
N126 C128 1.335 . S
N126 C129 1.390 . S
N127 C128 1.345 . S
N127 C130 1.336 . S
C128 N126 1.335 . S
C128 N127 1.345 . S
C128 H133 0.930 1_655 S
C129 N126 1.390 . S
C129 C130 1.346 . S
C129 H134 0.930 . S
C130 N127 1.336 . S
C130 C129 1.346 . S
C130 H137 0.929 . S
C131 O121 1.282 . S
C131 O132 1.216 . S
O132 C131 1.216 . S
H133 C128 0.930 1_455 S
H134 C129 0.930 . S
O135 Cu115 1.959 . S
O135 C122 1.251 . S
H136 C119 0.930 . S
H137 C130 0.929 . S
Cu138 N139 1.999 1_545 S
Cu138 O144 1.974 . S
Cu138 N149 1.985 . S
Cu138 O158 1.959 1_545 S
N139 Cu138 1.999 1_565 S
N139 C141 1.263 . S
N139 C143 1.389 . S
N140 C141 1.358 . S
N140 C142 1.400 . S
C141 N139 1.263 . S
C141 N140 1.358 . S
C141 H147 0.930 . S
C142 N140 1.400 . S
C142 C143 1.351 . S
C142 H159 0.930 . S
C143 N139 1.389 . S
C143 C142 1.351 . S
C143 H148 0.930 . S
O144 Cu138 1.974 . S
O144 C154 1.282 . S
C145 O146 1.261 . S
C145 O158 1.251 . S
O146 C145 1.261 . S
H147 C141 0.930 . S
H148 C143 0.930 . S
N149 Cu138 1.985 . S
N149 C151 1.335 . S
N149 C152 1.390 . S
N150 C151 1.345 . S
N150 C153 1.336 . S
C151 N149 1.335 . S
C151 N150 1.345 . S
C151 H156 0.930 . S
C152 N149 1.390 . S
C152 C153 1.346 . S
C152 H157 0.930 . S
C153 N150 1.336 . S
C153 C152 1.346 . S
C153 H160 0.929 . S
C154 O144 1.282 . S
C154 O155 1.216 . S
O155 C154 1.216 . S
H156 C151 0.930 . S
H157 C152 0.930 . S
O158 Cu138 1.959 1_565 S
O158 C145 1.251 . S
H159 C142 0.930 . S
H160 C153 0.929 . S
Cu161 N162 1.999 . S
Cu161 O167 1.974 1_455 S
Cu161 N172 1.985 1_455 S
Cu161 O181 1.959 . S
N162 Cu161 1.999 . S
N162 C164 1.263 . S
N162 C166 1.389 . S
N163 C164 1.358 . S
N163 C165 1.400 . S
C164 N162 1.263 . S
C164 N163 1.358 . S
C164 H170 0.930 . S
C165 N163 1.400 . S
C165 C166 1.351 . S
C165 H182 0.930 . S
C166 N162 1.389 . S
C166 C165 1.351 . S
C166 H171 0.930 . S
O167 Cu161 1.974 1_655 S
O167 C177 1.282 . S
C168 O169 1.261 . S
C168 O181 1.251 . S
O169 C168 1.261 . S
H170 C164 0.930 . S
H171 C166 0.930 . S
N172 Cu161 1.985 1_655 S
N172 C174 1.335 . S
N172 C175 1.390 . S
N173 C174 1.345 . S
N173 C176 1.336 . S
C174 N172 1.335 . S
C174 N173 1.345 . S
C174 H179 0.930 . S
C175 N172 1.390 . S
C175 C176 1.346 . S
C175 H180 0.930 . S
C176 N173 1.336 . S
C176 C175 1.346 . S
C176 H183 0.929 . S
C177 O167 1.282 . S
C177 O178 1.216 . S
O178 C177 1.216 . S
H179 C174 0.930 . S
H180 C175 0.930 . S
O181 Cu161 1.959 . S
O181 C168 1.251 . S
H182 C165 0.930 . S
H183 C176 0.929 . S
Cu184 N185 1.999 . S
Cu184 O190 1.974 1_554 S
Cu184 N195 1.985 1_554 S
Cu184 O204 1.959 . S
N185 Cu184 1.999 . S
N185 C187 1.263 . S
N185 C189 1.389 . S
N186 C187 1.358 . S
N186 C188 1.400 . S
C187 N185 1.263 . S
C187 N186 1.358 . S
C187 H193 0.930 . S
C188 N186 1.400 . S
C188 C189 1.351 . S
C188 H205 0.930 . S
C189 N185 1.389 . S
C189 C188 1.351 . S
C189 H194 0.930 . S
O190 Cu184 1.974 1_556 S
O190 C200 1.282 . S
C191 O192 1.261 . S
C191 O204 1.251 . S
O192 C191 1.261 . S
H193 C187 0.930 . S
H194 C189 0.930 . S
N195 Cu184 1.985 1_556 S
N195 C197 1.335 . S
N195 C198 1.390 . S
N196 C197 1.345 . S
N196 C199 1.336 . S
C197 N195 1.335 . S
C197 N196 1.345 . S
C197 H202 0.947 . S
C198 N195 1.390 . S
C198 C199 1.346 . S
C198 H203 0.930 . S
C199 N196 1.336 . S
C199 C198 1.346 . S
C199 H206 0.929 . S
C200 O190 1.282 . S
C200 O201 1.216 . S
O201 C200 1.216 . S
H202 C197 0.947 . S
H203 C198 0.930 . S
O204 Cu184 1.959 . S
O204 C191 1.251 . S
H205 C188 0.930 . S
H206 C199 0.929 . S
Cu207 N208 1.999 1_554 S
Cu207 O213 1.974 . S
Cu207 N218 1.985 . S
Cu207 O227 1.959 1_554 S
N208 Cu207 1.999 1_556 S
N208 C210 1.263 . S
N208 C212 1.389 . S
N209 C210 1.358 . S
N209 C211 1.400 . S
C210 N208 1.263 . S
C210 N209 1.358 . S
C210 H216 0.930 . S
C211 N209 1.400 . S
C211 C212 1.351 . S
C211 H228 0.930 . S
C212 N208 1.389 . S
C212 C211 1.351 . S
C212 H217 0.930 . S
O213 Cu207 1.974 . S
O213 C223 1.282 . S
C214 O215 1.261 . S
C214 O227 1.251 . S
O215 C214 1.261 . S
H216 C210 0.930 . S
H217 C212 0.930 . S
N218 Cu207 1.985 . S
N218 C220 1.335 . S
N218 C221 1.390 . S
N219 C220 1.345 . S
N219 C222 1.336 . S
C220 N218 1.335 . S
C220 N219 1.345 . S
C220 H225 0.930 . S
C221 N218 1.390 . S
C221 C222 1.346 . S
C221 H226 0.930 . S
C222 N219 1.336 . S
C222 C221 1.346 . S
C222 H229 0.929 . S
C223 O213 1.282 . S
C223 O224 1.216 . S
O224 C223 1.216 . S
H225 C220 0.930 . S
H226 C221 0.930 . S
O227 Cu207 1.959 1_556 S
O227 C214 1.251 . S
H228 C211 0.930 . S
H229 C222 0.929 . S
Cu230 N231 1.988 1_556 S
Cu230 O236 1.983 . S
Cu230 N241 1.996 . S
Cu230 O250 1.950 1_556 S
N231 Cu230 1.988 1_554 S
N231 C233 1.263 . S
N231 C235 1.389 . S
N232 C233 1.358 . S
N232 C234 1.400 . S
C233 N231 1.263 . S
C233 N232 1.358 . S
C233 H239 0.930 . S
C234 N232 1.400 . S
C234 C235 1.351 . S
C234 H251 0.930 . S
C235 N231 1.389 . S
C235 C234 1.351 . S
C235 H240 0.930 . S
O236 Cu230 1.983 . S
O236 C246 1.282 . S
C237 O238 1.261 . S
C237 O250 1.251 . S
O238 C237 1.261 . S
H239 C233 0.930 . S
H240 C235 0.930 . S
N241 Cu230 1.996 . S
N241 C243 1.335 . S
N241 C244 1.390 . S
N242 C243 1.345 . S
N242 C245 1.336 . S
C243 N241 1.335 . S
C243 N242 1.345 . S
C243 H248 0.930 . S
C244 N241 1.390 . S
C244 C245 1.346 . S
C244 H249 0.930 . S
C245 N242 1.336 . S
C245 C244 1.346 . S
C245 H252 0.929 . S
C246 O236 1.282 . S
C246 O247 1.216 . S
O247 C246 1.216 . S
H248 C243 0.930 . S
H249 C244 0.930 . S
O250 Cu230 1.950 1_554 S
O250 C237 1.251 . S
H251 C234 0.930 . S
H252 C245 0.929 . S
Cu253 N254 1.999 1_554 S
Cu253 O259 1.974 . S
Cu253 N264 1.985 . S
Cu253 O273 1.959 1_554 S
N254 Cu253 1.999 1_556 S
N254 C256 1.263 . S
N254 C258 1.389 . S
N255 C256 1.358 . S
N255 C257 1.400 . S
C256 N254 1.263 . S
C256 N255 1.358 . S
C256 H262 0.930 . S
C257 N255 1.400 . S
C257 C258 1.351 . S
C257 H274 0.930 . S
C258 N254 1.389 . S
C258 C257 1.351 . S
C258 H263 0.930 . S
O259 Cu253 1.974 . S
O259 C269 1.282 . S
C260 O261 1.261 . S
C260 O273 1.251 . S
O261 C260 1.261 . S
H262 C256 0.930 . S
H263 C258 0.930 . S
N264 Cu253 1.985 . S
N264 C266 1.335 . S
N264 C267 1.390 . S
N265 C266 1.345 . S
N265 C268 1.336 . S
C266 N264 1.335 . S
C266 N265 1.345 . S
C266 H271 0.930 . S
C267 N264 1.390 . S
C267 C268 1.346 . S
C267 H272 0.930 . S
C268 N265 1.336 . S
C268 C267 1.346 . S
C268 H275 0.929 . S
C269 O259 1.282 . S
C269 O270 1.216 . S
O270 C269 1.216 . S
H271 C266 0.930 . S
H272 C267 0.930 . S
O273 Cu253 1.959 1_556 S
O273 C260 1.251 . S
H274 C257 0.930 . S
H275 C268 0.929 . S
Cu276 N277 1.999 . S
Cu276 O282 1.974 . S
Cu276 N287 1.985 . S
Cu276 O296 1.959 . S
N277 Cu276 1.999 . S
N277 C279 1.263 . S
N277 C281 1.389 . S
N278 C279 1.358 . S
N278 C280 1.400 . S
C279 N277 1.263 . S
C279 N278 1.358 . S
C279 H285 0.930 . S
C280 N278 1.400 . S
C280 C281 1.351 . S
C280 H297 0.930 . S
C281 N277 1.389 . S
C281 C280 1.351 . S
C281 H286 0.930 . S
O282 Cu276 1.974 . S
O282 C292 1.282 . S
C283 O284 1.261 . S
C283 O296 1.251 . S
O284 C283 1.261 . S
H285 C279 0.930 . S
H286 C281 0.930 . S
N287 Cu276 1.985 . S
N287 C289 1.335 . S
N287 C290 1.390 . S
N288 C289 1.345 . S
N288 C291 1.336 . S
C289 N287 1.335 . S
C289 N288 1.345 . S
C289 H294 0.930 . S
C290 N287 1.390 . S
C290 C291 1.346 . S
C290 H295 0.930 . S
C291 N288 1.336 . S
C291 C290 1.346 . S
C291 H298 0.929 . S
C292 O282 1.282 . S
C292 O293 1.216 . S
O293 C292 1.216 . S
H294 C289 0.930 . S
H295 C290 0.930 . S
O296 Cu276 1.959 . S
O296 C283 1.251 . S
H297 C280 0.930 . S
H298 C291 0.929 . S
Cu299 N300 1.999 . S
Cu299 O305 1.974 . S
Cu299 N310 1.985 . S
Cu299 O319 1.959 . S
N300 Cu299 1.999 . S
N300 C302 1.263 . S
N300 C304 1.389 . S
N301 C302 1.358 . S
N301 C303 1.400 . S
C302 N300 1.263 . S
C302 N301 1.358 . S
C302 H308 0.930 . S
C303 N301 1.400 . S
C303 C304 1.351 . S
C303 H320 0.930 . S
C304 N300 1.389 . S
C304 C303 1.351 . S
C304 H309 0.930 . S
O305 Cu299 1.974 . S
O305 C315 1.282 . S
C306 O307 1.261 . S
C306 O319 1.251 . S
O307 C306 1.261 . S
H308 C302 0.930 . S
H309 C304 0.930 . S
N310 Cu299 1.985 . S
N310 C312 1.335 . S
N310 C313 1.390 . S
N311 C312 1.345 . S
N311 C314 1.336 . S
C312 N310 1.335 . S
C312 N311 1.345 . S
C312 H317 0.930 . S
C313 N310 1.390 . S
C313 C314 1.346 . S
C313 H318 0.930 . S
C314 N311 1.336 . S
C314 C313 1.346 . S
C314 H321 0.929 . S
C315 O305 1.282 . S
C315 O316 1.216 . S
O316 C315 1.216 . S
H317 C312 0.930 . S
H318 C313 0.930 . S
O319 Cu299 1.959 . S
O319 C306 1.251 . S
H320 C303 0.930 . S
H321 C314 0.929 . S
Cu322 N323 1.999 . S
Cu322 O328 1.974 . S
Cu322 N333 1.985 . S
Cu322 O342 1.959 . S
N323 Cu322 1.999 . S
N323 C325 1.263 . S
N323 C327 1.389 . S
N324 C325 1.358 . S
N324 C326 1.400 . S
C325 N323 1.263 . S
C325 N324 1.358 . S
C325 H331 0.930 . S
C326 N324 1.400 . S
C326 C327 1.351 . S
C326 H343 0.930 . S
C327 N323 1.389 . S
C327 C326 1.351 . S
C327 H332 0.930 . S
O328 Cu322 1.974 . S
O328 C338 1.282 . S
C329 O330 1.261 . S
C329 O342 1.251 . S
O330 C329 1.261 . S
H331 C325 0.930 . S
H332 C327 0.930 . S
N333 Cu322 1.985 . S
N333 C335 1.335 . S
N333 C336 1.390 . S
N334 C335 1.345 . S
N334 C337 1.336 . S
C335 N333 1.335 . S
C335 N334 1.345 . S
C335 H340 0.930 . S
C336 N333 1.390 . S
C336 C337 1.346 . S
C336 H341 0.930 . S
C337 N334 1.336 . S
C337 C336 1.346 . S
C337 H344 0.929 . S
C338 O328 1.282 . S
C338 O339 1.216 . S
O339 C338 1.216 . S
H340 C335 0.930 . S
H341 C336 0.930 . S
O342 Cu322 1.959 . S
O342 C329 1.251 . S
H343 C326 0.930 . S
H344 C337 0.929 . S
Cu345 N346 1.999 . S
Cu345 O351 1.974 . S
Cu345 N356 1.985 . S
Cu345 O365 1.959 . S
N346 Cu345 1.999 . S
N346 C348 1.263 . S
N346 C350 1.389 . S
N347 C348 1.358 . S
N347 C349 1.400 . S
C348 N346 1.263 . S
C348 N347 1.358 . S
C348 H354 0.930 . S
C349 N347 1.400 . S
C349 C350 1.351 . S
C349 H366 0.930 . S
C350 N346 1.389 . S
C350 C349 1.351 . S
C350 H355 0.930 . S
O351 Cu345 1.974 . S
O351 C361 1.282 . S
C352 O353 1.261 . S
C352 O365 1.251 . S
O353 C352 1.261 . S
H354 C348 0.930 . S
H355 C350 0.930 . S
N356 Cu345 1.985 . S
N356 C358 1.335 . S
N356 C359 1.390 . S
N357 C358 1.345 . S
N357 C360 1.336 . S
C358 N356 1.335 . S
C358 N357 1.345 . S
C358 H363 0.930 . S
C359 N356 1.390 . S
C359 C360 1.346 . S
C359 H364 0.930 . S
C360 N357 1.336 . S
C360 C359 1.346 . S
C360 H367 0.929 . S
C361 O351 1.282 . S
C361 O362 1.216 . S
O362 C361 1.216 . S
H363 C358 0.930 . S
H364 C359 0.930 . S
O365 Cu345 1.959 . S
O365 C352 1.251 . S
H366 C349 0.930 . S
H367 C360 0.929 . S
Cu368 N369 1.999 . S
Cu368 O374 1.974 . S
Cu368 N379 1.985 . S
Cu368 O388 1.959 . S
N369 Cu368 1.999 . S
N369 C371 1.263 . S
N369 C373 1.389 . S
N370 C371 1.358 . S
N370 C372 1.400 . S
C371 N369 1.263 . S
C371 N370 1.358 . S
C371 H377 0.930 . S
C372 N370 1.400 . S
C372 C373 1.351 . S
C372 H389 0.930 . S
C373 N369 1.389 . S
C373 C372 1.351 . S
C373 H378 0.930 . S
O374 Cu368 1.974 . S
O374 C384 1.282 . S
C375 O376 1.261 . S
C375 O388 1.251 . S
O376 C375 1.261 . S
H377 C371 0.930 . S
H378 C373 0.930 . S
N379 Cu368 1.985 . S
N379 C381 1.335 . S
N379 C382 1.390 . S
N380 C381 1.345 . S
N380 C383 1.336 . S
C381 N379 1.335 . S
C381 N380 1.345 . S
C381 H386 0.930 . S
C382 N379 1.390 . S
C382 C383 1.346 . S
C382 H387 0.930 . S
C383 N380 1.336 . S
C383 C382 1.346 . S
C383 H390 0.929 . S
C384 O374 1.282 . S
C384 O385 1.216 . S
O385 C384 1.216 . S
H386 C381 0.930 . S
H387 C382 0.930 . S
O388 Cu368 1.959 . S
O388 C375 1.251 . S
H389 C372 0.930 . S
H390 C383 0.929 . S
Cu391 N392 1.999 . S
Cu391 O397 1.974 . S
Cu391 N402 1.985 . S
Cu391 O411 1.959 . S
N392 Cu391 1.999 . S
N392 C394 1.263 . S
N392 C396 1.389 . S
N393 C394 1.358 . S
N393 C395 1.400 . S
C394 N392 1.263 . S
C394 N393 1.358 . S
C394 H400 0.930 . S
C395 N393 1.400 . S
C395 C396 1.351 . S
C395 H412 0.930 . S
C396 N392 1.389 . S
C396 C395 1.351 . S
C396 H401 0.930 . S
O397 Cu391 1.974 . S
O397 C407 1.282 . S
C398 O399 1.261 . S
C398 O411 1.251 . S
O399 C398 1.261 . S
H400 C394 0.930 . S
H401 C396 0.930 . S
N402 Cu391 1.985 . S
N402 C404 1.335 . S
N402 C405 1.390 . S
N403 C404 1.345 . S
N403 C406 1.336 . S
C404 N402 1.335 . S
C404 N403 1.345 . S
C404 H409 0.930 . S
C405 N402 1.390 . S
C405 C406 1.346 . S
C405 H410 0.930 . S
C406 N403 1.336 . S
C406 C405 1.346 . S
C406 H413 0.929 . S
C407 O397 1.282 . S
C407 O408 1.216 . S
O408 C407 1.216 . S
H409 C404 0.930 . S
H410 C405 0.930 . S
O411 Cu391 1.959 . S
O411 C398 1.251 . S
H412 C395 0.930 . S
H413 C406 0.929 . S
Cu414 N415 1.999 . S
Cu414 O420 1.974 . S
Cu414 N425 1.985 . S
Cu414 O434 1.959 . S
N415 Cu414 1.999 . S
N415 C417 1.263 . S
N415 C419 1.389 . S
N416 C417 1.358 . S
N416 C418 1.400 . S
C417 N415 1.263 . S
C417 N416 1.358 . S
C417 H423 0.930 . S
C418 N416 1.400 . S
C418 C419 1.351 . S
C418 H435 0.930 . S
C419 N415 1.389 . S
C419 C418 1.351 . S
C419 H424 0.930 . S
O420 Cu414 1.974 . S
O420 C430 1.282 . S
C421 O422 1.261 . S
C421 O434 1.251 . S
O422 C421 1.261 . S
H423 C417 0.930 . S
H424 C419 0.930 . S
N425 Cu414 1.985 . S
N425 C427 1.335 . S
N425 C428 1.390 . S
N426 C427 1.345 . S
N426 C429 1.336 . S
C427 N425 1.335 . S
C427 N426 1.345 . S
C427 H432 0.930 . S
C428 N425 1.390 . S
C428 C429 1.346 . S
C428 H433 0.930 . S
C429 N426 1.336 . S
C429 C428 1.346 . S
C429 H436 0.929 . S
C430 O420 1.282 . S
C430 O431 1.216 . S
O431 C430 1.216 . S
H432 C427 0.930 . S
H433 C428 0.930 . S
O434 Cu414 1.959 . S
O434 C421 1.251 . S
H435 C418 0.930 . S
H436 C429 0.929 . S
Cu437 N438 1.999 . S
Cu437 O443 1.974 . S
Cu437 N448 1.985 . S
Cu437 O457 1.959 . S
N438 Cu437 1.999 . S
N438 C440 1.263 . S
N438 C442 1.389 . S
N439 C440 1.358 . S
N439 C441 1.400 . S
C440 N438 1.263 . S
C440 N439 1.358 . S
C440 H446 0.930 . S
C441 N439 1.400 . S
C441 C442 1.351 . S
C441 H458 0.930 . S
C442 N438 1.389 . S
C442 C441 1.351 . S
C442 H447 0.930 . S
O443 Cu437 1.974 . S
O443 C453 1.282 . S
C444 O445 1.261 . S
C444 O457 1.251 . S
O445 C444 1.261 . S
H446 C440 0.930 . S
H447 C442 0.930 . S
N448 Cu437 1.985 . S
N448 C450 1.335 . S
N448 C451 1.390 . S
N449 C450 1.345 . S
N449 C452 1.336 . S
C450 N448 1.335 . S
C450 N449 1.345 . S
C450 H455 0.930 . S
C451 N448 1.390 . S
C451 C452 1.346 . S
C451 H456 0.930 . S
C452 N449 1.336 . S
C452 C451 1.346 . S
C452 H459 0.929 . S
C453 O443 1.282 . S
C453 O454 1.216 . S
O454 C453 1.216 . S
H455 C450 0.930 . S
H456 C451 0.930 . S
O457 Cu437 1.959 . S
O457 C444 1.251 . S
H458 C441 0.930 . S
H459 C452 0.929 . S
Cu460 N461 1.999 . S
Cu460 O466 1.974 . S
Cu460 N471 1.985 . S
Cu460 O480 1.959 . S
N461 Cu460 1.999 . S
N461 C463 1.263 . S
N461 C465 1.389 . S
N462 C463 1.358 . S
N462 C464 1.400 . S
C463 N461 1.263 . S
C463 N462 1.358 . S
C463 H469 0.930 . S
C464 N462 1.400 . S
C464 C465 1.351 . S
C464 H481 0.930 . S
C465 N461 1.389 . S
C465 C464 1.351 . S
C465 H470 0.930 . S
O466 Cu460 1.974 . S
O466 C476 1.282 . S
C467 O468 1.261 . S
C467 O480 1.251 . S
O468 C467 1.261 . S
H469 C463 0.930 . S
H470 C465 0.930 . S
N471 Cu460 1.985 . S
N471 C473 1.335 . S
N471 C474 1.390 . S
N472 C473 1.345 . S
N472 C475 1.336 . S
C473 N471 1.335 . S
C473 N472 1.345 . S
C473 H478 0.930 . S
C474 N471 1.390 . S
C474 C475 1.346 . S
C474 H479 0.930 . S
C475 N472 1.336 . S
C475 C474 1.346 . S
C475 H482 0.929 . S
C476 O466 1.282 . S
C476 O477 1.216 . S
O477 C476 1.216 . S
H478 C473 0.930 . S
H479 C474 0.930 . S
O480 Cu460 1.959 . S
O480 C467 1.251 . S
H481 C464 0.930 . S
H482 C475 0.929 . S
Cu483 N484 1.999 . S
Cu483 O489 1.974 . S
Cu483 N494 1.985 . S
Cu483 O503 1.959 . S
N484 Cu483 1.999 . S
N484 C486 1.263 . S
N484 C488 1.389 . S
N485 C486 1.358 . S
N485 C487 1.400 . S
C486 N484 1.263 . S
C486 N485 1.358 . S
C486 H492 0.930 . S
C487 N485 1.400 . S
C487 C488 1.351 . S
C487 H504 0.930 . S
C488 N484 1.389 . S
C488 C487 1.351 . S
C488 H493 0.930 . S
O489 Cu483 1.974 . S
O489 C499 1.282 . S
C490 O491 1.261 . S
C490 O503 1.251 . S
O491 C490 1.261 . S
H492 C486 0.930 . S
H493 C488 0.930 . S
N494 Cu483 1.985 . S
N494 C496 1.335 . S
N494 C497 1.390 . S
N495 C496 1.345 . S
N495 C498 1.336 . S
C496 N494 1.335 . S
C496 N495 1.345 . S
C496 H501 0.930 . S
C497 N494 1.390 . S
C497 C498 1.346 . S
C497 H502 0.930 . S
C498 N495 1.336 . S
C498 C497 1.346 . S
C498 H505 0.929 . S
C499 O489 1.282 . S
C499 O500 1.216 . S
O500 C499 1.216 . S
H501 C496 0.930 . S
H502 C497 0.930 . S
O503 Cu483 1.959 . S
O503 C490 1.251 . S
H504 C487 0.930 . S
H505 C498 0.929 . S
Cu506 N507 1.999 . S
Cu506 O512 1.974 . S
Cu506 N517 1.985 . S
Cu506 O526 1.959 . S
N507 Cu506 1.999 . S
N507 C509 1.263 . S
N507 C511 1.389 . S
N508 C509 1.358 . S
N508 C510 1.400 . S
C509 N507 1.263 . S
C509 N508 1.358 . S
C509 H515 0.930 . S
C510 N508 1.400 . S
C510 C511 1.351 . S
C510 H527 0.930 . S
C511 N507 1.389 . S
C511 C510 1.351 . S
C511 H516 0.930 . S
O512 Cu506 1.974 . S
O512 C522 1.282 . S
C513 O514 1.261 . S
C513 O526 1.251 . S
O514 C513 1.261 . S
H515 C509 0.930 . S
H516 C511 0.930 . S
N517 Cu506 1.985 . S
N517 C519 1.335 . S
N517 C520 1.390 . S
N518 C519 1.345 . S
N518 C521 1.336 . S
C519 N517 1.335 . S
C519 N518 1.345 . S
C519 H524 0.930 . S
C520 N517 1.390 . S
C520 C521 1.346 . S
C520 H525 0.930 . S
C521 N518 1.336 . S
C521 C520 1.346 . S
C521 H528 0.929 . S
C522 O512 1.282 . S
C522 O523 1.216 . S
O523 C522 1.216 . S
H524 C519 0.930 . S
H525 C520 0.930 . S
O526 Cu506 1.959 . S
O526 C513 1.251 . S
H527 C510 0.930 . S
H528 C521 0.929 . S
Cu529 N530 1.999 . S
Cu529 O535 1.974 . S
Cu529 N540 1.985 . S
Cu529 O549 1.959 . S
N530 Cu529 1.999 . S
N530 C532 1.263 . S
N530 C534 1.389 . S
N531 C532 1.358 . S
N531 C533 1.400 . S
C532 N530 1.263 . S
C532 N531 1.358 . S
C532 H538 0.930 . S
C533 N531 1.400 . S
C533 C534 1.351 . S
C533 H550 0.930 . S
C534 N530 1.389 . S
C534 C533 1.351 . S
C534 H539 0.930 . S
O535 Cu529 1.974 . S
O535 C545 1.282 . S
C536 O537 1.261 . S
C536 O549 1.251 . S
O537 C536 1.261 . S
H538 C532 0.930 . S
H539 C534 0.930 . S
N540 Cu529 1.985 . S
N540 C542 1.335 . S
N540 C543 1.390 . S
N541 C542 1.345 . S
N541 C544 1.336 . S
C542 N540 1.335 . S
C542 N541 1.345 . S
C542 H547 0.930 . S
C543 N540 1.390 . S
C543 C544 1.346 . S
C543 H548 0.930 . S
C544 N541 1.336 . S
C544 C543 1.346 . S
C544 H551 0.929 . S
C545 O535 1.282 . S
C545 O546 1.216 . S
O546 C545 1.216 . S
H547 C542 0.930 . S
H548 C543 0.930 . S
O549 Cu529 1.959 . S
O549 C536 1.251 . S
H550 C533 0.930 . S
H551 C544 0.929 . S
H552 C560 0.929 . S
H553 C562 0.930 . S
H554 C564 0.930 . S
H555 C567 0.929 . S
H556 C570 0.930 . S
H557 C572 0.960 . S
H558 C572 0.960 . S
H559 C572 0.960 . S
C560 H552 0.929 . S
C560 C561 1.377 . S
C560 C562 1.384 . S
C561 C560 1.377 . S
C561 C567 1.390 . S
C562 H553 0.930 . S
C562 C560 1.384 . S
C562 C563 1.372 . S
C563 C562 1.372 . S
C563 C564 1.400 . S
C563 C568 1.490 . S
C564 H554 0.930 . S
C564 C563 1.400 . S
C564 C567 1.386 . S
H565 C581 0.930 . S
H566 C582 0.931 . S
C567 H555 0.929 . S
C567 C561 1.390 . S
C567 C564 1.386 . S
C568 C563 1.490 . S
C568 C570 1.395 . S
C568 C571 1.403 . S
H569 C575 0.930 . S
C570 H556 0.930 . S
C570 C568 1.395 . S
C570 C573 1.403 . S
C571 C568 1.403 . S
C571 C572 1.524 . S
C571 C575 1.400 . S
C572 H557 0.960 . S
C572 H558 0.960 . S
C572 H559 0.960 . S
C572 C571 1.524 . S
C573 C570 1.403 . S
C573 C574 1.392 . S
C573 C577 1.495 . S
C574 C573 1.392 . S
C574 C575 1.385 . S
C574 C576 1.478 . S
C575 H569 0.930 . S
C575 C571 1.400 . S
C575 C574 1.385 . S
C576 C574 1.478 . S
C576 C578 1.381 . S
C576 C582 1.383 . S
C577 C573 1.495 . S
C577 H583 0.959 . S
C577 H584 0.961 . S
C577 H585 0.960 . S
C578 C576 1.381 . S
C578 C579 1.394 . S
C578 H586 0.930 . S
C579 C578 1.394 . S
C579 C580 1.383 . S
C579 H587 0.929 . S
C580 C579 1.383 . S
C580 C581 1.377 . S
C581 H565 0.930 . S
C581 C580 1.377 . S
C581 C582 1.379 . S
C582 H566 0.931 . S
C582 C576 1.383 . S
C582 C581 1.379 . S
H583 C577 0.959 . S
H584 C577 0.961 . S
H585 C577 0.960 . S
H586 C578 0.930 . S
H587 C579 0.929 . S
H588 C596 0.929 . S
H589 C598 0.930 . S
H590 C600 0.930 . S
H591 C603 0.929 . S
H592 C606 0.930 . S
H593 C608 0.960 . S
H594 C608 0.960 . S
H595 C608 0.960 . S
C596 H588 0.929 . S
C596 C597 1.377 . S
C596 C598 1.384 . S
C597 C596 1.377 . S
C597 C603 1.390 . S
C598 H589 0.930 . S
C598 C596 1.384 . S
C598 C599 1.372 . S
C599 C598 1.372 . S
C599 C600 1.400 . S
C599 C604 1.490 . S
C600 H590 0.930 . S
C600 C599 1.400 . S
C600 C603 1.386 . S
H601 C617 0.930 . S
H602 C618 0.931 . S
C603 H591 0.929 . S
C603 C597 1.390 . S
C603 C600 1.386 . S
C604 C599 1.490 . S
C604 C606 1.395 . S
C604 C607 1.403 . S
H605 C611 0.930 . S
C606 H592 0.930 . S
C606 C604 1.395 . S
C606 C609 1.403 . S
C607 C604 1.403 . S
C607 C608 1.524 . S
C607 C611 1.400 . S
C608 H593 0.960 . S
C608 H594 0.960 . S
C608 H595 0.960 . S
C608 C607 1.524 . S
C609 C606 1.403 . S
C609 C610 1.392 . S
C609 C613 1.495 . S
C610 C609 1.392 . S
C610 C611 1.385 . S
C610 C612 1.478 . S
C611 H605 0.930 . S
C611 C607 1.400 . S
C611 C610 1.385 . S
C612 C610 1.478 . S
C612 C614 1.381 . S
C612 C618 1.383 . S
C613 C609 1.495 . S
C613 H619 0.959 . S
C613 H620 0.961 . S
C613 H621 0.960 . S
C614 C612 1.381 . S
C614 C615 1.394 . S
C614 H622 0.930 . S
C615 C614 1.394 . S
C615 C616 1.383 . S
C615 H623 0.929 . S
C616 C615 1.383 . S
C616 C617 1.377 . S
C617 H601 0.930 . S
C617 C616 1.377 . S
C617 C618 1.379 . S
C618 H602 0.931 . S
C618 C612 1.383 . S
C618 C617 1.379 . S
H619 C613 0.959 . S
H620 C613 0.961 . S
H621 C613 0.960 . S
H622 C614 0.930 . S
H623 C615 0.929 . S
H624 C632 0.929 . S
H625 C634 0.930 . S
H626 C636 0.930 . S
H627 C639 0.929 . S
H628 C642 0.930 . S
H629 C644 0.960 . S
H630 C644 0.960 . S
H631 C644 0.960 . S
C632 H624 0.929 . S
C632 C633 1.377 . S
C632 C634 1.384 . S
C633 C632 1.377 . S
C633 C639 1.390 . S
C634 H625 0.930 . S
C634 C632 1.384 . S
C634 C635 1.372 . S
C635 C634 1.372 . S
C635 C636 1.400 . S
C635 C640 1.490 . S
C636 H626 0.930 . S
C636 C635 1.400 . S
C636 C639 1.386 . S
H637 C653 0.930 . S
H638 C654 0.931 . S
C639 H627 0.929 . S
C639 C633 1.390 . S
C639 C636 1.386 . S
C640 C635 1.490 . S
C640 C642 1.395 . S
C640 C643 1.403 . S
H641 C647 0.930 . S
C642 H628 0.930 . S
C642 C640 1.395 . S
C642 C645 1.403 . S
C643 C640 1.403 . S
C643 C644 1.524 . S
C643 C647 1.400 . S
C644 H629 0.960 . S
C644 H630 0.960 . S
C644 H631 0.960 . S
C644 C643 1.524 . S
C645 C642 1.403 . S
C645 C646 1.392 . S
C645 C649 1.495 . S
C646 C645 1.392 . S
C646 C647 1.385 . S
C646 C648 1.478 . S
C647 H641 0.930 . S
C647 C643 1.400 . S
C647 C646 1.385 . S
C648 C646 1.478 . S
C648 C650 1.381 . S
C648 C654 1.383 . S
C649 C645 1.495 . S
C649 H655 0.959 . S
C649 H656 0.961 . S
C649 H657 0.960 . S
C650 C648 1.381 . S
C650 C651 1.394 . S
C650 H658 0.930 . S
C651 C650 1.394 . S
C651 C652 1.383 . S
C651 H659 0.929 . S
C652 C651 1.383 . S
C652 C653 1.377 . S
C653 H637 0.930 . S
C653 C652 1.377 . S
C653 C654 1.379 . S
C654 H638 0.931 . S
C654 C648 1.383 . S
C654 C653 1.379 . S
H655 C649 0.959 . S
H656 C649 0.961 . S
H657 C649 0.960 . S
H658 C650 0.930 . S
H659 C651 0.929 . S
H660 C668 0.929 . S
H661 C670 0.930 . S
H662 C672 0.930 . S
H663 C675 0.929 . S
H664 C678 0.930 . S
H665 C680 0.960 . S
H666 C680 0.960 . S
H667 C680 0.960 . S
C668 H660 0.929 . S
C668 C669 1.377 . S
C668 C670 1.384 . S
C669 C668 1.377 . S
C669 C675 1.390 . S
C670 H661 0.930 . S
C670 C668 1.384 . S
C670 C671 1.372 . S
C671 C670 1.372 . S
C671 C672 1.400 . S
C671 C676 1.490 . S
C672 H662 0.930 . S
C672 C671 1.400 . S
C672 C675 1.386 . S
H673 C689 0.930 . S
H674 C690 0.931 . S
C675 H663 0.929 . S
C675 C669 1.390 . S
C675 C672 1.386 . S
C676 C671 1.490 . S
C676 C678 1.395 . S
C676 C679 1.403 . S
H677 C683 0.930 . S
C678 H664 0.930 . S
C678 C676 1.395 . S
C678 C681 1.403 . S
C679 C676 1.403 . S
C679 C680 1.524 . S
C679 C683 1.400 . S
C680 H665 0.960 . S
C680 H666 0.960 . S
C680 H667 0.960 . S
C680 C679 1.524 . S
C681 C678 1.403 . S
C681 C682 1.392 . S
C681 C685 1.495 . S
C682 C681 1.392 . S
C682 C683 1.385 . S
C682 C684 1.478 . S
C683 H677 0.930 . S
C683 C679 1.400 . S
C683 C682 1.385 . S
C684 C682 1.478 . S
C684 C686 1.381 . S
C684 C690 1.383 . S
C685 C681 1.495 . S
C685 H691 0.959 . S
C685 H692 0.961 . S
C685 H693 0.960 . S
C686 C684 1.381 . S
C686 C687 1.394 . S
C686 H694 0.930 . S
C687 C686 1.394 . S
C687 C688 1.383 . S
C687 H695 0.929 . S
C688 C687 1.383 . S
C688 C689 1.377 . S
C689 H673 0.930 . S
C689 C688 1.377 . S
C689 C690 1.379 . S
C690 H674 0.931 . S
C690 C684 1.383 . S
C690 C689 1.379 . S
H691 C685 0.959 . S
H692 C685 0.961 . S
H693 C685 0.960 . S
H694 C686 0.930 . S
H695 C687 0.929 . S
H696 C704 0.929 . S
H697 C706 0.930 . S
H698 C708 0.930 . S
H699 C711 0.929 . S
H700 C714 0.930 . S
H701 C716 0.960 . S
H702 C716 0.960 . S
H703 C716 0.960 . S
C704 H696 0.929 . S
C704 C705 1.377 . S
C704 C706 1.384 . S
C705 C704 1.377 . S
C705 C711 1.390 . S
C706 H697 0.930 . S
C706 C704 1.384 . S
C706 C707 1.372 . S
C707 C706 1.372 . S
C707 C708 1.400 . S
C707 C712 1.490 . S
C708 H698 0.930 . S
C708 C707 1.400 . S
C708 C711 1.386 . S
H709 C725 0.930 . S
H710 C726 0.931 . S
C711 H699 0.929 . S
C711 C705 1.390 . S
C711 C708 1.386 . S
C712 C707 1.490 . S
C712 C714 1.395 . S
C712 C715 1.403 . S
H713 C719 0.930 . S
C714 H700 0.930 . S
C714 C712 1.395 . S
C714 C717 1.403 . S
C715 C712 1.403 . S
C715 C716 1.524 . S
C715 C719 1.400 . S
C716 H701 0.960 . S
C716 H702 0.960 . S
C716 H703 0.960 . S
C716 C715 1.524 . S
C717 C714 1.403 . S
C717 C718 1.392 . S
C717 C721 1.495 . S
C718 C717 1.392 . S
C718 C719 1.385 . S
C718 C720 1.478 . S
C719 H713 0.930 . S
C719 C715 1.400 . S
C719 C718 1.385 . S
C720 C718 1.478 . S
C720 C722 1.381 . S
C720 C726 1.383 . S
C721 C717 1.495 . S
C721 H727 0.959 . S
C721 H728 0.961 . S
C721 H729 0.960 . S
C722 C720 1.381 . S
C722 C723 1.394 . S
C722 H730 0.930 . S
C723 C722 1.394 . S
C723 C724 1.383 . S
C723 H731 0.929 . S
C724 C723 1.383 . S
C724 C725 1.377 . S
C725 H709 0.930 . S
C725 C724 1.377 . S
C725 C726 1.379 . S
C726 H710 0.931 . S
C726 C720 1.383 . S
C726 C725 1.379 . S
H727 C721 0.959 . S
H728 C721 0.961 . S
H729 C721 0.960 . S
H730 C722 0.930 . S
H731 C723 0.929 . S
H732 C740 0.929 . S
H733 C742 0.930 . S
H734 C744 0.930 . S
H735 C747 0.929 . S
H736 C750 0.930 . S
H737 C752 0.960 . S
H738 C752 0.960 . S
H739 C752 0.960 . S
C740 H732 0.929 . S
C740 C741 1.377 . S
C740 C742 1.384 . S
C741 C740 1.377 . S
C741 C747 1.390 . S
C742 H733 0.930 . S
C742 C740 1.384 . S
C742 C743 1.372 . S
C743 C742 1.372 . S
C743 C744 1.400 . S
C743 C748 1.490 . S
C744 H734 0.930 . S
C744 C743 1.400 . S
C744 C747 1.386 . S
H745 C761 0.930 . S
H746 C762 0.931 . S
C747 H735 0.929 . S
C747 C741 1.390 . S
C747 C744 1.386 . S
C748 C743 1.490 . S
C748 C750 1.395 . S
C748 C751 1.403 . S
H749 C755 0.930 . S
C750 H736 0.930 . S
C750 C748 1.395 . S
C750 C753 1.403 . S
C751 C748 1.403 . S
C751 C752 1.524 . S
C751 C755 1.400 . S
C752 H737 0.960 . S
C752 H738 0.960 . S
C752 H739 0.960 . S
C752 C751 1.524 . S
C753 C750 1.403 . S
C753 C754 1.392 . S
C753 C757 1.495 . S
C754 C753 1.392 . S
C754 C755 1.385 . S
C754 C756 1.478 . S
C755 H749 0.930 . S
C755 C751 1.400 . S
C755 C754 1.385 . S
C756 C754 1.478 . S
C756 C758 1.381 . S
C756 C762 1.383 . S
C757 C753 1.495 . S
C757 H763 0.959 . S
C757 H764 0.961 . S
C757 H765 0.960 . S
C758 C756 1.381 . S
C758 C759 1.394 . S
C758 H766 0.930 . S
C759 C758 1.394 . S
C759 C760 1.383 . S
C759 H767 0.929 . S
C760 C759 1.383 . S
C760 C761 1.377 . S
C761 H745 0.930 . S
C761 C760 1.377 . S
C761 C762 1.379 . S
C762 H746 0.931 . S
C762 C756 1.383 . S
C762 C761 1.379 . S
H763 C757 0.959 . S
H764 C757 0.961 . S
H765 C757 0.960 . S
H766 C758 0.930 . S
H767 C759 0.929 . S
H768 C776 0.929 . S
H769 C778 0.930 . S
H770 C780 0.930 . S
H771 C783 0.929 . S
H772 C786 0.930 . S
H773 C788 0.960 . S
H774 C788 0.960 . S
H775 C788 0.960 . S
C776 H768 0.929 . S
C776 C777 1.377 . S
C776 C778 1.384 . S
C777 C776 1.377 . S
C777 C783 1.390 . S
C778 H769 0.930 . S
C778 C776 1.384 . S
C778 C779 1.372 . S
C779 C778 1.372 . S
C779 C780 1.400 . S
C779 C784 1.490 . S
C780 H770 0.930 . S
C780 C779 1.400 . S
C780 C783 1.386 . S
H781 C797 0.930 . S
H782 C798 0.931 . S
C783 H771 0.929 . S
C783 C777 1.390 . S
C783 C780 1.386 . S
C784 C779 1.490 . S
C784 C786 1.395 . S
C784 C787 1.403 . S
H785 C791 0.930 . S
C786 H772 0.930 . S
C786 C784 1.395 . S
C786 C789 1.403 . S
C787 C784 1.403 . S
C787 C788 1.524 . S
C787 C791 1.400 . S
C788 H773 0.960 . S
C788 H774 0.960 . S
C788 H775 0.960 . S
C788 C787 1.524 . S
C789 C786 1.403 . S
C789 C790 1.392 . S
C789 C793 1.495 . S
C790 C789 1.392 . S
C790 C791 1.385 . S
C790 C792 1.478 . S
C791 H785 0.930 . S
C791 C787 1.400 . S
C791 C790 1.385 . S
C792 C790 1.478 . S
C792 C794 1.381 . S
C792 C798 1.383 . S
C793 C789 1.495 . S
C793 H799 0.959 . S
C793 H800 0.961 . S
C793 H801 0.960 . S
C794 C792 1.381 . S
C794 C795 1.394 . S
C794 H802 0.930 . S
C795 C794 1.394 . S
C795 C796 1.383 . S
C795 H803 0.929 . S
C796 C795 1.383 . S
C796 C797 1.377 . S
C797 H781 0.930 . S
C797 C796 1.377 . S
C797 C798 1.379 . S
C798 H782 0.931 . S
C798 C792 1.383 . S
C798 C797 1.379 . S
H799 C793 0.959 . S
H800 C793 0.961 . S
H801 C793 0.960 . S
H802 C794 0.930 . S
H803 C795 0.929 . S
H804 C812 0.929 . S
H805 C814 0.930 . S
H806 C816 0.930 . S
H807 C819 0.929 . S
H808 C822 0.930 . S
H809 C824 0.960 . S
H810 C824 0.960 . S
H811 C824 0.960 . S
C812 H804 0.929 . S
C812 C813 1.377 . S
C812 C814 1.384 . S
C813 C812 1.377 . S
C813 C819 1.390 . S
C814 H805 0.930 . S
C814 C812 1.384 . S
C814 C815 1.372 . S
C815 C814 1.372 . S
C815 C816 1.400 . S
C815 C820 1.490 . S
C816 H806 0.930 . S
C816 C815 1.400 . S
C816 C819 1.386 . S
H817 C833 0.930 . S
H818 C834 0.931 . S
C819 H807 0.929 . S
C819 C813 1.390 . S
C819 C816 1.386 . S
C820 C815 1.490 . S
C820 C822 1.395 . S
C820 C823 1.403 . S
H821 C827 0.930 . S
C822 H808 0.930 . S
C822 C820 1.395 . S
C822 C825 1.403 . S
C823 C820 1.403 . S
C823 C824 1.524 . S
C823 C827 1.400 . S
C824 H809 0.960 . S
C824 H810 0.960 . S
C824 H811 0.960 . S
C824 C823 1.524 . S
C825 C822 1.403 . S
C825 C826 1.392 . S
C825 C829 1.495 . S
C826 C825 1.392 . S
C826 C827 1.385 . S
C826 C828 1.478 . S
C827 H821 0.930 . S
C827 C823 1.400 . S
C827 C826 1.385 . S
C828 C826 1.478 . S
C828 C830 1.381 . S
C828 C834 1.383 . S
C829 C825 1.495 . S
C829 H835 0.959 . S
C829 H836 0.961 . S
C829 H837 0.960 . S
C830 C828 1.381 . S
C830 C831 1.394 . S
C830 H838 0.930 . S
C831 C830 1.394 . S
C831 C832 1.383 . S
C831 H839 0.929 . S
C832 C831 1.383 . S
C832 C833 1.377 . S
C833 H817 0.930 . S
C833 C832 1.377 . S
C833 C834 1.379 . S
C834 H818 0.931 . S
C834 C828 1.383 . S
C834 C833 1.379 . S
H835 C829 0.959 . S
H836 C829 0.961 . S
H837 C829 0.960 . S
H838 C830 0.930 . S
H839 C831 0.929 . S
H840 C848 0.929 . S
H841 C850 0.930 . S
H842 C852 0.930 . S
H843 C855 0.929 . S
H844 C858 0.930 . S
H845 C860 0.960 . S
H846 C860 0.960 . S
H847 C860 0.960 . S
C848 H840 0.929 . S
C848 C849 1.377 . S
C848 C850 1.384 . S
C849 C848 1.377 . S
C849 C855 1.390 . S
C850 H841 0.930 . S
C850 C848 1.384 . S
C850 C851 1.372 . S
C851 C850 1.372 . S
C851 C852 1.400 . S
C851 C856 1.490 . S
C852 H842 0.930 . S
C852 C851 1.400 . S
C852 C855 1.386 . S
H853 C869 0.930 . S
H854 C870 0.931 . S
C855 H843 0.929 . S
C855 C849 1.390 . S
C855 C852 1.386 . S
C856 C851 1.490 . S
C856 C858 1.395 . S
C856 C859 1.403 . S
H857 C863 0.930 . S
C858 H844 0.930 . S
C858 C856 1.395 . S
C858 C861 1.403 . S
C859 C856 1.403 . S
C859 C860 1.524 . S
C859 C863 1.400 . S
C860 H845 0.960 . S
C860 H846 0.960 . S
C860 H847 0.960 . S
C860 C859 1.524 . S
C861 C858 1.403 . S
C861 C862 1.392 . S
C861 C865 1.495 . S
C862 C861 1.392 . S
C862 C863 1.385 . S
C862 C864 1.478 . S
C863 H857 0.930 . S
C863 C859 1.400 . S
C863 C862 1.385 . S
C864 C862 1.478 . S
C864 C866 1.381 . S
C864 C870 1.383 . S
C865 C861 1.495 . S
C865 H871 0.959 . S
C865 H872 0.961 . S
C865 H873 0.960 . S
C866 C864 1.381 . S
C866 C867 1.394 . S
C866 H874 0.930 . S
C867 C866 1.394 . S
C867 C868 1.383 . S
C867 H875 0.929 . S
C868 C867 1.383 . S
C868 C869 1.377 . S
C869 H853 0.930 . S
C869 C868 1.377 . S
C869 C870 1.379 . S
C870 H854 0.931 . S
C870 C864 1.383 . S
C870 C869 1.379 . S
H871 C865 0.959 . S
H872 C865 0.961 . S
H873 C865 0.960 . S
H874 C866 0.930 . S
H875 C867 0.929 . S
H876 C884 0.929 . S
H877 C886 0.930 . S
H878 C888 0.930 . S
H879 C891 0.929 . S
H880 C894 0.930 . S
H881 C896 0.960 . S
H882 C896 0.960 . S
H883 C896 0.960 . S
C884 H876 0.929 . S
C884 C885 1.377 . S
C884 C886 1.384 . S
C885 C884 1.377 . S
C885 C891 1.390 . S
C886 H877 0.930 . S
C886 C884 1.384 . S
C886 C887 1.372 . S
C887 C886 1.372 . S
C887 C888 1.400 . S
C887 C892 1.490 . S
C888 H878 0.930 . S
C888 C887 1.400 . S
C888 C891 1.386 . S
H889 C905 0.930 . S
H890 C906 0.931 . S
C891 H879 0.929 . S
C891 C885 1.390 . S
C891 C888 1.386 . S
C892 C887 1.490 . S
C892 C894 1.395 . S
C892 C895 1.403 . S
H893 C899 0.930 . S
C894 H880 0.930 . S
C894 C892 1.395 . S
C894 C897 1.403 . S
C895 C892 1.403 . S
C895 C896 1.524 . S
C895 C899 1.400 . S
C896 H881 0.960 . S
C896 H882 0.960 . S
C896 H883 0.960 . S
C896 C895 1.524 . S
C897 C894 1.403 . S
C897 C898 1.392 . S
C897 C901 1.495 . S
C898 C897 1.392 . S
C898 C899 1.385 . S
C898 C900 1.478 . S
C899 H893 0.930 . S
C899 C895 1.400 . S
C899 C898 1.385 . S
C900 C898 1.478 . S
C900 C902 1.381 . S
C900 C906 1.383 . S
C901 C897 1.495 . S
C901 H907 0.959 . S
C901 H908 0.961 . S
C901 H909 0.960 . S
C902 C900 1.381 . S
C902 C903 1.394 . S
C902 H910 0.930 . S
C903 C902 1.394 . S
C903 C904 1.383 . S
C903 H911 0.929 . S
C904 C903 1.383 . S
C904 C905 1.377 . S
C905 H889 0.930 . S
C905 C904 1.377 . S
C905 C906 1.379 . S
C906 H890 0.931 . S
C906 C900 1.383 . S
C906 C905 1.379 . S
H907 C901 0.959 . S
H908 C901 0.961 . S
H909 C901 0.960 . S
H910 C902 0.930 . S
H911 C903 0.929 . S
H912 C920 0.929 . S
H913 C922 0.930 . S
H914 C924 0.930 . S
H915 C927 0.929 . S
H916 C930 0.930 . S
H917 C932 0.960 . S
H918 C932 0.960 . S
H919 C932 0.960 . S
C920 H912 0.929 . S
C920 C921 1.377 . S
C920 C922 1.384 . S
C921 C920 1.377 . S
C921 C927 1.390 . S
C922 H913 0.930 . S
C922 C920 1.384 . S
C922 C923 1.372 . S
C923 C922 1.372 . S
C923 C924 1.400 . S
C923 C928 1.490 . S
C924 H914 0.930 . S
C924 C923 1.400 . S
C924 C927 1.386 . S
H925 C941 0.930 . S
H926 C942 0.931 . S
C927 H915 0.929 . S
C927 C921 1.390 . S
C927 C924 1.386 . S
C928 C923 1.490 . S
C928 C930 1.395 . S
C928 C931 1.403 . S
H929 C935 0.930 . S
C930 H916 0.930 . S
C930 C928 1.395 . S
C930 C933 1.403 . S
C931 C928 1.403 . S
C931 C932 1.524 . S
C931 C935 1.400 . S
C932 H917 0.960 . S
C932 H918 0.960 . S
C932 H919 0.960 . S
C932 C931 1.524 . S
C933 C930 1.403 . S
C933 C934 1.392 . S
C933 C937 1.495 . S
C934 C933 1.392 . S
C934 C935 1.385 . S
C934 C936 1.478 . S
C935 H929 0.930 . S
C935 C931 1.400 . S
C935 C934 1.385 . S
C936 C934 1.478 . S
C936 C938 1.381 . S
C936 C942 1.383 . S
C937 C933 1.495 . S
C937 H943 0.959 . S
C937 H944 0.961 . S
C937 H945 0.960 . S
C938 C936 1.381 . S
C938 C939 1.394 . S
C938 H946 0.930 . S
C939 C938 1.394 . S
C939 C940 1.383 . S
C939 H947 0.929 . S
C940 C939 1.383 . S
C940 C941 1.377 . S
C941 H925 0.930 . S
C941 C940 1.377 . S
C941 C942 1.379 . S
C942 H926 0.931 . S
C942 C936 1.383 . S
C942 C941 1.379 . S
H943 C937 0.959 . S
H944 C937 0.961 . S
H945 C937 0.960 . S
H946 C938 0.930 . S
H947 C939 0.929 . S
H948 C956 0.929 . S
H949 C958 0.930 . S
H950 C960 0.930 . S
H951 C963 0.929 . S
H952 C966 0.930 . S
H953 C968 0.960 . S
H954 C968 0.960 . S
H955 C968 0.960 . S
C956 H948 0.929 . S
C956 C957 1.377 . S
C956 C958 1.384 . S
C957 C956 1.377 . S
C957 C963 1.390 . S
C958 H949 0.930 . S
C958 C956 1.384 . S
C958 C959 1.372 . S
C959 C958 1.372 . S
C959 C960 1.400 . S
C959 C964 1.490 . S
C960 H950 0.930 . S
C960 C959 1.400 . S
C960 C963 1.386 . S
H961 C977 0.930 . S
H962 C978 0.931 . S
C963 H951 0.929 . S
C963 C957 1.390 . S
C963 C960 1.386 . S
C964 C959 1.490 . S
C964 C966 1.395 . S
C964 C967 1.403 . S
H965 C971 0.930 . S
C966 H952 0.930 . S
C966 C964 1.395 . S
C966 C969 1.403 . S
C967 C964 1.403 . S
C967 C968 1.524 . S
C967 C971 1.400 . S
C968 H953 0.960 . S
C968 H954 0.960 . S
C968 H955 0.960 . S
C968 C967 1.524 . S
C969 C966 1.403 . S
C969 C970 1.392 . S
C969 C973 1.495 . S
C970 C969 1.392 . S
C970 C971 1.385 . S
C970 C972 1.478 . S
C971 H965 0.930 . S
C971 C967 1.400 . S
C971 C970 1.385 . S
C972 C970 1.478 . S
C972 C974 1.381 . S
C972 C978 1.383 . S
C973 C969 1.495 . S
C973 H979 0.959 . S
C973 H980 0.961 . S
C973 H981 0.960 . S
C974 C972 1.381 . S
C974 C975 1.394 . S
C974 H982 0.930 . S
C975 C974 1.394 . S
C975 C976 1.383 . S
C975 H983 0.929 . S
C976 C975 1.383 . S
C976 C977 1.377 . S
C977 H961 0.930 . S
C977 C976 1.377 . S
C977 C978 1.379 . S
C978 H962 0.931 . S
C978 C972 1.383 . S
C978 C977 1.379 . S
H979 C973 0.959 . S
H980 C973 0.961 . S
H981 C973 0.960 . S
H982 C974 0.930 . S
H983 C975 0.929 . S
H984 C992 0.929 . S
H985 C994 0.930 . S
H986 C996 0.930 . S
H987 C999 0.929 . S
H988 C1002 0.930 . S
H989 C1004 0.960 . S
H990 C1004 0.960 . S
H991 C1004 0.960 . S
C992 H984 0.929 . S
C992 C993 1.377 . S
C992 C994 1.384 . S
C993 C992 1.377 . S
C993 C999 1.390 . S
C994 H985 0.930 . S
C994 C992 1.384 . S
C994 C995 1.372 . S
C995 C994 1.372 . S
C995 C996 1.400 . S
C995 C1000 1.490 . S
C996 H986 0.930 . S
C996 C995 1.400 . S
C996 C999 1.386 . S
H997 C1013 0.930 . S
H998 C1014 0.931 . S
C999 H987 0.929 . S
C999 C993 1.390 . S
C999 C996 1.386 . S
C1000 C995 1.490 . S
C1000 C1002 1.395 . S
C1000 C1003 1.403 . S
H1001 C1007 0.930 . S
C1002 H988 0.930 . S
C1002 C1000 1.395 . S
C1002 C1005 1.403 . S
C1003 C1000 1.403 . S
C1003 C1004 1.524 . S
C1003 C1007 1.400 . S
C1004 H989 0.960 . S
C1004 H990 0.960 . S
C1004 H991 0.960 . S
C1004 C1003 1.524 . S
C1005 C1002 1.403 . S
C1005 C1006 1.392 . S
C1005 C1009 1.495 . S
C1006 C1005 1.392 . S
C1006 C1007 1.385 . S
C1006 C1008 1.478 . S
C1007 H1001 0.930 . S
C1007 C1003 1.400 . S
C1007 C1006 1.385 . S
C1008 C1006 1.478 . S
C1008 C1010 1.381 . S
C1008 C1014 1.383 . S
C1009 C1005 1.495 . S
C1009 H1015 0.959 . S
C1009 H1016 0.961 . S
C1009 H1017 0.960 . S
C1010 C1008 1.381 . S
C1010 C1011 1.394 . S
C1010 H1018 0.930 . S
C1011 C1010 1.394 . S
C1011 C1012 1.383 . S
C1011 H1019 0.929 . S
C1012 C1011 1.383 . S
C1012 C1013 1.377 . S
C1013 H997 0.930 . S
C1013 C1012 1.377 . S
C1013 C1014 1.379 . S
C1014 H998 0.931 . S
C1014 C1008 1.383 . S
C1014 C1013 1.379 . S
H1015 C1009 0.959 . S
H1016 C1009 0.961 . S
H1017 C1009 0.960 . S
H1018 C1010 0.930 . S
H1019 C1011 0.929 . S
H1020 C1028 0.929 . S
H1021 C1030 0.930 . S
H1022 C1032 0.930 . S
H1023 C1035 0.929 . S
H1024 C1038 0.930 . S
H1025 C1040 0.960 . S
H1026 C1040 0.960 . S
H1027 C1040 0.960 . S
C1028 H1020 0.929 . S
C1028 C1029 1.377 . S
C1028 C1030 1.384 . S
C1029 C1028 1.377 . S
C1029 C1035 1.390 . S
C1030 H1021 0.930 . S
C1030 C1028 1.384 . S
C1030 C1031 1.372 . S
C1031 C1030 1.372 . S
C1031 C1032 1.400 . S
C1031 C1036 1.490 . S
C1032 H1022 0.930 . S
C1032 C1031 1.400 . S
C1032 C1035 1.386 . S
H1033 C1049 0.930 . S
H1034 C1050 0.931 . S
C1035 H1023 0.929 . S
C1035 C1029 1.390 . S
C1035 C1032 1.386 . S
C1036 C1031 1.490 . S
C1036 C1038 1.395 . S
C1036 C1039 1.403 . S
H1037 C1043 0.930 . S
C1038 H1024 0.930 . S
C1038 C1036 1.395 . S
C1038 C1041 1.403 . S
C1039 C1036 1.403 . S
C1039 C1040 1.524 . S
C1039 C1043 1.400 . S
C1040 H1025 0.960 . S
C1040 H1026 0.960 . S
C1040 H1027 0.960 . S
C1040 C1039 1.524 . S
C1041 C1038 1.403 . S
C1041 C1042 1.392 . S
C1041 C1045 1.495 . S
C1042 C1041 1.392 . S
C1042 C1043 1.385 . S
C1042 C1044 1.478 . S
C1043 H1037 0.930 . S
C1043 C1039 1.400 . S
C1043 C1042 1.385 . S
C1044 C1042 1.478 . S
C1044 C1046 1.381 . S
C1044 C1050 1.383 . S
C1045 C1041 1.495 . S
C1045 H1051 0.959 . S
C1045 H1052 0.961 . S
C1045 H1053 0.960 . S
C1046 C1044 1.381 . S
C1046 C1047 1.394 . S
C1046 H1054 0.930 . S
C1047 C1046 1.394 . S
C1047 C1048 1.383 . S
C1047 H1055 0.929 . S
C1048 C1047 1.383 . S
C1048 C1049 1.377 . S
C1049 H1033 0.930 . S
C1049 C1048 1.377 . S
C1049 C1050 1.379 . S
C1050 H1034 0.931 . S
C1050 C1044 1.383 . S
C1050 C1049 1.379 . S
H1051 C1045 0.959 . S
H1052 C1045 0.961 . S
H1053 C1045 0.960 . S
H1054 C1046 0.930 . S
H1055 C1047 0.929 . S
H1056 C1064 0.929 . S
H1057 C1066 0.930 . S
H1058 C1068 0.930 . S
H1059 C1071 0.929 . S
H1060 C1074 0.930 . S
H1061 C1076 0.960 . S
H1062 C1076 0.960 . S
H1063 C1076 0.960 . S
C1064 H1056 0.929 . S
C1064 C1065 1.377 . S
C1064 C1066 1.384 . S
C1065 C1064 1.377 . S
C1065 C1071 1.390 . S
C1066 H1057 0.930 . S
C1066 C1064 1.384 . S
C1066 C1067 1.372 . S
C1067 C1066 1.372 . S
C1067 C1068 1.400 . S
C1067 C1072 1.490 . S
C1068 H1058 0.930 . S
C1068 C1067 1.400 . S
C1068 C1071 1.386 . S
H1069 C1085 0.930 . S
H1070 C1086 0.931 . S
C1071 H1059 0.929 . S
C1071 C1065 1.390 . S
C1071 C1068 1.386 . S
C1072 C1067 1.490 . S
C1072 C1074 1.395 . S
C1072 C1075 1.403 . S
H1073 C1079 0.930 . S
C1074 H1060 0.930 . S
C1074 C1072 1.395 . S
C1074 C1077 1.403 . S
C1075 C1072 1.403 . S
C1075 C1076 1.524 . S
C1075 C1079 1.400 . S
C1076 H1061 0.960 . S
C1076 H1062 0.960 . S
C1076 H1063 0.960 . S
C1076 C1075 1.524 . S
C1077 C1074 1.403 . S
C1077 C1078 1.392 . S
C1077 C1081 1.495 . S
C1078 C1077 1.392 . S
C1078 C1079 1.385 . S
C1078 C1080 1.478 . S
C1079 H1073 0.930 . S
C1079 C1075 1.400 . S
C1079 C1078 1.385 . S
C1080 C1078 1.478 . S
C1080 C1082 1.381 . S
C1080 C1086 1.383 . S
C1081 C1077 1.495 . S
C1081 H1087 0.959 . S
C1081 H1088 0.961 . S
C1081 H1089 0.960 . S
C1082 C1080 1.381 . S
C1082 C1083 1.394 . S
C1082 H1090 0.930 . S
C1083 C1082 1.394 . S
C1083 C1084 1.383 . S
C1083 H1091 0.929 . S
C1084 C1083 1.383 . S
C1084 C1085 1.377 . S
C1085 H1069 0.930 . S
C1085 C1084 1.377 . S
C1085 C1086 1.379 . S
C1086 H1070 0.931 . S
C1086 C1080 1.383 . S
C1086 C1085 1.379 . S
H1087 C1081 0.959 . S
H1088 C1081 0.961 . S
H1089 C1081 0.960 . S
H1090 C1082 0.930 . S
H1091 C1083 0.929 . S
H1092 C1100 0.929 . S
H1093 C1102 0.930 . S
H1094 C1104 0.930 . S
H1095 C1107 0.929 . S
H1096 C1110 0.930 . S
H1097 C1112 0.960 . S
H1098 C1112 0.960 . S
H1099 C1112 0.960 . S
C1100 H1092 0.929 . S
C1100 C1101 1.377 . S
C1100 C1102 1.384 . S
C1101 C1100 1.377 . S
C1101 C1107 1.390 . S
C1102 H1093 0.930 . S
C1102 C1100 1.384 . S
C1102 C1103 1.372 . S
C1103 C1102 1.372 . S
C1103 C1104 1.400 . S
C1103 C1108 1.490 . S
C1104 H1094 0.930 . S
C1104 C1103 1.400 . S
C1104 C1107 1.386 . S
H1105 C1121 0.930 . S
H1106 C1122 0.931 . S
C1107 H1095 0.929 . S
C1107 C1101 1.390 . S
C1107 C1104 1.386 . S
C1108 C1103 1.490 . S
C1108 C1110 1.395 . S
C1108 C1111 1.403 . S
H1109 C1115 0.930 . S
C1110 H1096 0.930 . S
C1110 C1108 1.395 . S
C1110 C1113 1.403 . S
C1111 C1108 1.403 . S
C1111 C1112 1.524 . S
C1111 C1115 1.400 . S
C1112 H1097 0.960 . S
C1112 H1098 0.960 . S
C1112 H1099 0.960 . S
C1112 C1111 1.524 . S
C1113 C1110 1.403 . S
C1113 C1114 1.392 . S
C1113 C1117 1.495 . S
C1114 C1113 1.392 . S
C1114 C1115 1.385 . S
C1114 C1116 1.478 . S
C1115 H1109 0.930 . S
C1115 C1111 1.400 . S
C1115 C1114 1.385 . S
C1116 C1114 1.478 . S
C1116 C1118 1.381 . S
C1116 C1122 1.383 . S
C1117 C1113 1.495 . S
C1117 H1123 0.959 . S
C1117 H1124 0.961 . S
C1117 H1125 0.960 . S
C1118 C1116 1.381 . S
C1118 C1119 1.394 . S
C1118 H1126 0.930 . S
C1119 C1118 1.394 . S
C1119 C1120 1.383 . S
C1119 H1127 0.929 . S
C1120 C1119 1.383 . S
C1120 C1121 1.377 . S
C1121 H1105 0.930 . S
C1121 C1120 1.377 . S
C1121 C1122 1.379 . S
C1122 H1106 0.931 . S
C1122 C1116 1.383 . S
C1122 C1121 1.379 . S
H1123 C1117 0.959 . S
H1124 C1117 0.961 . S
H1125 C1117 0.960 . S
H1126 C1118 0.930 . S
H1127 C1119 0.929 . S
H1128 C1136 0.929 . S
H1129 C1138 0.930 . S
H1130 C1140 0.930 . S
H1131 C1143 0.929 . S
H1132 C1146 0.930 . S
H1133 C1148 0.960 . S
H1134 C1148 0.960 . S
H1135 C1148 0.960 . S
C1136 H1128 0.929 . S
C1136 C1137 1.377 . S
C1136 C1138 1.384 . S
C1137 C1136 1.377 . S
C1137 C1143 1.390 . S
C1138 H1129 0.930 . S
C1138 C1136 1.384 . S
C1138 C1139 1.372 . S
C1139 C1138 1.372 . S
C1139 C1140 1.400 . S
C1139 C1144 1.490 . S
C1140 H1130 0.930 . S
C1140 C1139 1.400 . S
C1140 C1143 1.386 . S
H1141 C1157 0.930 . S
H1142 C1158 0.931 . S
C1143 H1131 0.929 . S
C1143 C1137 1.390 . S
C1143 C1140 1.386 . S
C1144 C1139 1.490 . S
C1144 C1146 1.395 . S
C1144 C1147 1.403 . S
H1145 C1151 0.930 . S
C1146 H1132 0.930 . S
C1146 C1144 1.395 . S
C1146 C1149 1.403 . S
C1147 C1144 1.403 . S
C1147 C1148 1.524 . S
C1147 C1151 1.400 . S
C1148 H1133 0.960 . S
C1148 H1134 0.960 . S
C1148 H1135 0.960 . S
C1148 C1147 1.524 . S
C1149 C1146 1.403 . S
C1149 C1150 1.392 . S
C1149 C1153 1.495 . S
C1150 C1149 1.392 . S
C1150 C1151 1.385 . S
C1150 C1152 1.478 . S
C1151 H1145 0.930 . S
C1151 C1147 1.400 . S
C1151 C1150 1.385 . S
C1152 C1150 1.478 . S
C1152 C1154 1.381 . S
C1152 C1158 1.383 . S
C1153 C1149 1.495 . S
C1153 H1159 0.959 . S
C1153 H1160 0.961 . S
C1153 H1161 0.960 . S
C1154 C1152 1.381 . S
C1154 C1155 1.394 . S
C1154 H1162 0.930 . S
C1155 C1154 1.394 . S
C1155 C1156 1.383 . S
C1155 H1163 0.929 . S
C1156 C1155 1.383 . S
C1156 C1157 1.377 . S
C1157 H1141 0.930 . S
C1157 C1156 1.377 . S
C1157 C1158 1.379 . S
C1158 H1142 0.931 . S
C1158 C1152 1.383 . S
C1158 C1157 1.379 . S
H1159 C1153 0.959 . S
H1160 C1153 0.961 . S
H1161 C1153 0.960 . S
H1162 C1154 0.930 . S
H1163 C1155 0.929 . S
H1164 C1172 0.929 . S
H1165 C1174 0.930 . S
H1166 C1176 0.930 . S
H1167 C1179 0.929 . S
H1168 C1182 0.930 . S
H1169 C1184 0.960 . S
H1170 C1184 0.960 . S
H1171 C1184 0.960 . S
C1172 H1164 0.929 . S
C1172 C1173 1.377 . S
C1172 C1174 1.384 . S
C1173 C1172 1.377 . S
C1173 C1179 1.390 . S
C1174 H1165 0.930 . S
C1174 C1172 1.384 . S
C1174 C1175 1.372 . S
C1175 C1174 1.372 . S
C1175 C1176 1.400 . S
C1175 C1180 1.490 . S
C1176 H1166 0.930 . S
C1176 C1175 1.400 . S
C1176 C1179 1.386 . S
H1177 C1193 0.930 . S
H1178 C1194 0.931 . S
C1179 H1167 0.929 . S
C1179 C1173 1.390 . S
C1179 C1176 1.386 . S
C1180 C1175 1.490 . S
C1180 C1182 1.395 . S
C1180 C1183 1.403 . S
H1181 C1187 0.930 . S
C1182 H1168 0.930 . S
C1182 C1180 1.395 . S
C1182 C1185 1.403 . S
C1183 C1180 1.403 . S
C1183 C1184 1.524 . S
C1183 C1187 1.400 . S
C1184 H1169 0.960 . S
C1184 H1170 0.960 . S
C1184 H1171 0.960 . S
C1184 C1183 1.524 . S
C1185 C1182 1.403 . S
C1185 C1186 1.392 . S
C1185 C1189 1.495 . S
C1186 C1185 1.392 . S
C1186 C1187 1.385 . S
C1186 C1188 1.478 . S
C1187 H1181 0.930 . S
C1187 C1183 1.400 . S
C1187 C1186 1.385 . S
C1188 C1186 1.478 . S
C1188 C1190 1.381 . S
C1188 C1194 1.383 . S
C1189 C1185 1.495 . S
C1189 H1195 0.959 . S
C1189 H1196 0.961 . S
C1189 H1197 0.960 . S
C1190 C1188 1.381 . S
C1190 C1191 1.394 . S
C1190 H1198 0.930 . S
C1191 C1190 1.394 . S
C1191 C1192 1.383 . S
C1191 H1199 0.929 . S
C1192 C1191 1.383 . S
C1192 C1193 1.377 . S
C1193 H1177 0.930 . S
C1193 C1192 1.377 . S
C1193 C1194 1.379 . S
C1194 H1178 0.931 . S
C1194 C1188 1.383 . S
C1194 C1193 1.379 . S
H1195 C1189 0.959 . S
H1196 C1189 0.961 . S
H1197 C1189 0.960 . S
H1198 C1190 0.930 . S
H1199 C1191 0.929 . S
H1200 C1208 0.929 . S
H1201 C1210 0.930 . S
H1202 C1212 0.930 . S
H1203 C1215 0.929 . S
H1204 C1218 0.930 . S
H1205 C1220 0.960 . S
H1206 C1220 0.960 . S
H1207 C1220 0.960 . S
C1208 H1200 0.929 . S
C1208 C1209 1.377 . S
C1208 C1210 1.384 . S
C1209 C1208 1.377 . S
C1209 C1215 1.390 . S
C1210 H1201 0.930 . S
C1210 C1208 1.384 . S
C1210 C1211 1.372 . S
C1211 C1210 1.372 . S
C1211 C1212 1.400 . S
C1211 C1216 1.490 . S
C1212 H1202 0.930 . S
C1212 C1211 1.400 . S
C1212 C1215 1.386 . S
H1213 C1229 0.930 . S
H1214 C1230 0.931 . S
C1215 H1203 0.929 . S
C1215 C1209 1.390 . S
C1215 C1212 1.386 . S
C1216 C1211 1.490 . S
C1216 C1218 1.395 . S
C1216 C1219 1.403 . S
H1217 C1223 0.930 . S
C1218 H1204 0.930 . S
C1218 C1216 1.395 . S
C1218 C1221 1.403 . S
C1219 C1216 1.403 . S
C1219 C1220 1.524 . S
C1219 C1223 1.400 . S
C1220 H1205 0.960 . S
C1220 H1206 0.960 . S
C1220 H1207 0.960 . S
C1220 C1219 1.524 . S
C1221 C1218 1.403 . S
C1221 C1222 1.392 . S
C1221 C1225 1.495 . S
C1222 C1221 1.392 . S
C1222 C1223 1.385 . S
C1222 C1224 1.478 . S
C1223 H1217 0.930 . S
C1223 C1219 1.400 . S
C1223 C1222 1.385 . S
C1224 C1222 1.478 . S
C1224 C1226 1.381 . S
C1224 C1230 1.383 . S
C1225 C1221 1.495 . S
C1225 H1231 0.959 . S
C1225 H1232 0.961 . S
C1225 H1233 0.960 . S
C1226 C1224 1.381 . S
C1226 C1227 1.394 . S
C1226 H1234 0.930 . S
C1227 C1226 1.394 . S
C1227 C1228 1.383 . S
C1227 H1235 0.929 . S
C1228 C1227 1.383 . S
C1228 C1229 1.377 . S
C1229 H1213 0.930 . S
C1229 C1228 1.377 . S
C1229 C1230 1.379 . S
C1230 H1214 0.931 . S
C1230 C1224 1.383 . S
C1230 C1229 1.379 . S
H1231 C1225 0.959 . S
H1232 C1225 0.961 . S
H1233 C1225 0.960 . S
H1234 C1226 0.930 . S
H1235 C1227 0.929 . S
H1236 C1244 0.929 . S
H1237 C1246 0.930 . S
H1238 C1248 0.930 . S
H1239 C1251 0.929 . S
H1240 C1254 0.930 . S
H1241 C1256 0.960 . S
H1242 C1256 0.960 . S
H1243 C1256 0.960 . S
C1244 H1236 0.929 . S
C1244 C1245 1.377 . S
C1244 C1246 1.384 . S
C1245 C1244 1.377 . S
C1245 C1251 1.390 . S
C1246 H1237 0.930 . S
C1246 C1244 1.384 . S
C1246 C1247 1.372 . S
C1247 C1246 1.372 . S
C1247 C1248 1.400 . S
C1247 C1252 1.490 . S
C1248 H1238 0.930 . S
C1248 C1247 1.400 . S
C1248 C1251 1.386 . S
H1249 C1265 0.930 . S
H1250 C1266 0.931 . S
C1251 H1239 0.929 . S
C1251 C1245 1.390 . S
C1251 C1248 1.386 . S
C1252 C1247 1.490 . S
C1252 C1254 1.395 . S
C1252 C1255 1.403 . S
H1253 C1259 0.930 . S
C1254 H1240 0.930 . S
C1254 C1252 1.395 . S
C1254 C1257 1.403 . S
C1255 C1252 1.403 . S
C1255 C1256 1.524 . S
C1255 C1259 1.400 . S
C1256 H1241 0.960 . S
C1256 H1242 0.960 . S
C1256 H1243 0.960 . S
C1256 C1255 1.524 . S
C1257 C1254 1.403 . S
C1257 C1258 1.392 . S
C1257 C1261 1.495 . S
C1258 C1257 1.392 . S
C1258 C1259 1.385 . S
C1258 C1260 1.478 . S
C1259 H1253 0.930 . S
C1259 C1255 1.400 . S
C1259 C1258 1.385 . S
C1260 C1258 1.478 . S
C1260 C1262 1.381 . S
C1260 C1266 1.383 . S
C1261 C1257 1.495 . S
C1261 H1267 0.959 . S
C1261 H1268 0.961 . S
C1261 H1269 0.960 . S
C1262 C1260 1.381 . S
C1262 C1263 1.394 . S
C1262 H1270 0.930 . S
C1263 C1262 1.394 . S
C1263 C1264 1.383 . S
C1263 H1271 0.929 . S
C1264 C1263 1.383 . S
C1264 C1265 1.377 . S
C1265 H1249 0.930 . S
C1265 C1264 1.377 . S
C1265 C1266 1.379 . S
C1266 H1250 0.931 . S
C1266 C1260 1.383 . S
C1266 C1265 1.379 . S
H1267 C1261 0.959 . S
H1268 C1261 0.961 . S
H1269 C1261 0.960 . S
H1270 C1262 0.930 . S
H1271 C1263 0.929 . S
H1272 C1280 0.929 . S
H1273 C1282 0.930 . S
H1274 C1284 0.930 . S
H1275 C1287 0.929 . S
H1276 C1290 0.930 . S
H1277 C1292 0.960 . S
H1278 C1292 0.960 . S
H1279 C1292 0.960 . S
C1280 H1272 0.929 . S
C1280 C1281 1.377 . S
C1280 C1282 1.384 . S
C1281 C1280 1.377 . S
C1281 C1287 1.390 . S
C1282 H1273 0.930 . S
C1282 C1280 1.384 . S
C1282 C1283 1.372 . S
C1283 C1282 1.372 . S
C1283 C1284 1.400 . S
C1283 C1288 1.490 . S
C1284 H1274 0.930 . S
C1284 C1283 1.400 . S
C1284 C1287 1.386 . S
H1285 C1301 0.930 . S
H1286 C1302 0.931 . S
C1287 H1275 0.929 . S
C1287 C1281 1.390 . S
C1287 C1284 1.386 . S
C1288 C1283 1.490 . S
C1288 C1290 1.395 . S
C1288 C1291 1.403 . S
H1289 C1295 0.930 . S
C1290 H1276 0.930 . S
C1290 C1288 1.395 . S
C1290 C1293 1.403 . S
C1291 C1288 1.403 . S
C1291 C1292 1.524 . S
C1291 C1295 1.400 . S
C1292 H1277 0.960 . S
C1292 H1278 0.960 . S
C1292 H1279 0.960 . S
C1292 C1291 1.524 . S
C1293 C1290 1.403 . S
C1293 C1294 1.392 . S
C1293 C1297 1.495 . S
C1294 C1293 1.392 . S
C1294 C1295 1.385 . S
C1294 C1296 1.478 . S
C1295 H1289 0.930 . S
C1295 C1291 1.400 . S
C1295 C1294 1.385 . S
C1296 C1294 1.478 . S
C1296 C1298 1.381 . S
C1296 C1302 1.383 . S
C1297 C1293 1.495 . S
C1297 H1303 0.959 . S
C1297 H1304 0.961 . S
C1297 H1305 0.960 . S
C1298 C1296 1.381 . S
C1298 C1299 1.394 . S
C1298 H1306 0.930 . S
C1299 C1298 1.394 . S
C1299 C1300 1.383 . S
C1299 H1307 0.929 . S
C1300 C1299 1.383 . S
C1300 C1301 1.377 . S
C1301 H1285 0.930 . S
C1301 C1300 1.377 . S
C1301 C1302 1.379 . S
C1302 H1286 0.931 . S
C1302 C1296 1.383 . S
C1302 C1301 1.379 . S
H1303 C1297 0.959 . S
H1304 C1297 0.961 . S
H1305 C1297 0.960 . S
H1306 C1298 0.930 . S
H1307 C1299 0.929 . S
H1308 C1316 0.929 . S
H1309 C1318 0.930 . S
H1310 C1320 0.930 . S
H1311 C1323 0.929 . S
H1312 C1326 0.930 . S
H1313 C1328 0.960 . S
H1314 C1328 0.960 . S
H1315 C1328 0.960 . S
C1316 H1308 0.929 . S
C1316 C1317 1.377 . S
C1316 C1318 1.384 . S
C1317 C1316 1.377 . S
C1317 C1323 1.390 . S
C1318 H1309 0.930 . S
C1318 C1316 1.384 . S
C1318 C1319 1.372 . S
C1319 C1318 1.372 . S
C1319 C1320 1.400 . S
C1319 C1324 1.490 . S
C1320 H1310 0.930 . S
C1320 C1319 1.400 . S
C1320 C1323 1.386 . S
H1321 C1337 0.930 . S
H1322 C1338 0.931 . S
C1323 H1311 0.929 . S
C1323 C1317 1.390 . S
C1323 C1320 1.386 . S
C1324 C1319 1.490 . S
C1324 C1326 1.395 . S
C1324 C1327 1.403 . S
H1325 C1331 0.930 . S
C1326 H1312 0.930 . S
C1326 C1324 1.395 . S
C1326 C1329 1.403 . S
C1327 C1324 1.403 . S
C1327 C1328 1.524 . S
C1327 C1331 1.400 . S
C1328 H1313 0.960 . S
C1328 H1314 0.960 . S
C1328 H1315 0.960 . S
C1328 C1327 1.524 . S
C1329 C1326 1.403 . S
C1329 C1330 1.392 . S
C1329 C1333 1.495 . S
C1330 C1329 1.392 . S
C1330 C1331 1.385 . S
C1330 C1332 1.478 . S
C1331 H1325 0.930 . S
C1331 C1327 1.400 . S
C1331 C1330 1.385 . S
C1332 C1330 1.478 . S
C1332 C1334 1.381 . S
C1332 C1338 1.383 . S
C1333 C1329 1.495 . S
C1333 H1339 0.959 . S
C1333 H1340 0.961 . S
C1333 H1341 0.960 . S
C1334 C1332 1.381 . S
C1334 C1335 1.394 . S
C1334 H1342 0.930 . S
C1335 C1334 1.394 . S
C1335 C1336 1.383 . S
C1335 H1343 0.929 . S
C1336 C1335 1.383 . S
C1336 C1337 1.377 . S
C1337 H1321 0.930 . S
C1337 C1336 1.377 . S
C1337 C1338 1.379 . S
C1338 H1322 0.931 . S
C1338 C1332 1.383 . S
C1338 C1337 1.379 . S
H1339 C1333 0.959 . S
H1340 C1333 0.961 . S
H1341 C1333 0.960 . S
H1342 C1334 0.930 . S
H1343 C1335 0.929 . S
H1344 C1352 0.929 . S
H1345 C1354 0.930 . S
H1346 C1356 0.930 . S
H1347 C1359 0.929 . S
H1348 C1362 0.930 . S
H1349 C1364 0.960 . S
H1350 C1364 0.960 . S
H1351 C1364 0.960 . S
C1352 H1344 0.929 . S
C1352 C1353 1.377 . S
C1352 C1354 1.384 . S
C1353 C1352 1.377 . S
C1353 C1359 1.390 . S
C1354 H1345 0.930 . S
C1354 C1352 1.384 . S
C1354 C1355 1.372 . S
C1355 C1354 1.372 . S
C1355 C1356 1.400 . S
C1355 C1360 1.490 . S
C1356 H1346 0.930 . S
C1356 C1355 1.400 . S
C1356 C1359 1.386 . S
H1357 C1373 0.930 . S
H1358 C1374 0.931 . S
C1359 H1347 0.929 . S
C1359 C1353 1.390 . S
C1359 C1356 1.386 . S
C1360 C1355 1.490 . S
C1360 C1362 1.395 . S
C1360 C1363 1.403 . S
H1361 C1367 0.930 . S
C1362 H1348 0.930 . S
C1362 C1360 1.395 . S
C1362 C1365 1.403 . S
C1363 C1360 1.403 . S
C1363 C1364 1.524 . S
C1363 C1367 1.400 . S
C1364 H1349 0.960 . S
C1364 H1350 0.960 . S
C1364 H1351 0.960 . S
C1364 C1363 1.524 . S
C1365 C1362 1.403 . S
C1365 C1366 1.392 . S
C1365 C1369 1.495 . S
C1366 C1365 1.392 . S
C1366 C1367 1.385 . S
C1366 C1368 1.478 . S
C1367 H1361 0.930 . S
C1367 C1363 1.400 . S
C1367 C1366 1.385 . S
C1368 C1366 1.478 . S
C1368 C1370 1.381 . S
C1368 C1374 1.383 . S
C1369 C1365 1.495 . S
C1369 H1375 0.959 . S
C1369 H1376 0.961 . S
C1369 H1377 0.960 . S
C1370 C1368 1.381 . S
C1370 C1371 1.394 . S
C1370 H1378 0.930 . S
C1371 C1370 1.394 . S
C1371 C1372 1.383 . S
C1371 H1379 0.929 . S
C1372 C1371 1.383 . S
C1372 C1373 1.377 . S
C1373 H1357 0.930 . S
C1373 C1372 1.377 . S
C1373 C1374 1.379 . S
C1374 H1358 0.931 . S
C1374 C1368 1.383 . S
C1374 C1373 1.379 . S
H1375 C1369 0.959 . S
H1376 C1369 0.961 . S
H1377 C1369 0.960 . S
H1378 C1370 0.930 . S
H1379 C1371 0.929 . S
H1380 C1388 0.929 . S
H1381 C1390 0.930 . S
H1382 C1392 0.930 . S
H1383 C1395 0.929 . S
H1384 C1398 0.930 . S
H1385 C1400 0.960 . S
H1386 C1400 0.960 . S
H1387 C1400 0.960 . S
C1388 H1380 0.929 . S
C1388 C1389 1.377 . S
C1388 C1390 1.384 . S
C1389 C1388 1.377 . S
C1389 C1395 1.390 . S
C1390 H1381 0.930 . S
C1390 C1388 1.384 . S
C1390 C1391 1.372 . S
C1391 C1390 1.372 . S
C1391 C1392 1.400 . S
C1391 C1396 1.490 . S
C1392 H1382 0.930 . S
C1392 C1391 1.400 . S
C1392 C1395 1.386 . S
H1393 C1409 0.930 . S
H1394 C1410 0.931 . S
C1395 H1383 0.929 . S
C1395 C1389 1.390 . S
C1395 C1392 1.386 . S
C1396 C1391 1.490 . S
C1396 C1398 1.395 . S
C1396 C1399 1.403 . S
H1397 C1403 0.930 . S
C1398 H1384 0.930 . S
C1398 C1396 1.395 . S
C1398 C1401 1.403 . S
C1399 C1396 1.403 . S
C1399 C1400 1.524 . S
C1399 C1403 1.400 . S
C1400 H1385 0.960 . S
C1400 H1386 0.960 . S
C1400 H1387 0.960 . S
C1400 C1399 1.524 . S
C1401 C1398 1.403 . S
C1401 C1402 1.392 . S
C1401 C1405 1.495 . S
C1402 C1401 1.392 . S
C1402 C1403 1.385 . S
C1402 C1404 1.478 . S
C1403 H1397 0.930 . S
C1403 C1399 1.400 . S
C1403 C1402 1.385 . S
C1404 C1402 1.478 . S
C1404 C1406 1.381 . S
C1404 C1410 1.383 . S
C1405 C1401 1.495 . S
C1405 H1411 0.959 . S
C1405 H1412 0.961 . S
C1405 H1413 0.960 . S
C1406 C1404 1.381 . S
C1406 C1407 1.394 . S
C1406 H1414 0.930 . S
C1407 C1406 1.394 . S
C1407 C1408 1.383 . S
C1407 H1415 0.929 . S
C1408 C1407 1.383 . S
C1408 C1409 1.377 . S
C1409 H1393 0.930 . S
C1409 C1408 1.377 . S
C1409 C1410 1.379 . S
C1410 H1394 0.931 . S
C1410 C1404 1.383 . S
C1410 C1409 1.379 . S
H1411 C1405 0.959 . S
H1412 C1405 0.961 . S
H1413 C1405 0.960 . S
H1414 C1406 0.930 . S
H1415 C1407 0.929 . S
H1416 C1424 0.929 . S
H1417 C1426 0.930 . S
H1418 C1428 0.930 . S
H1419 C1431 0.929 . S
H1420 C1434 0.930 . S
H1421 C1436 0.960 . S
H1422 C1436 0.960 . S
H1423 C1436 0.960 . S
C1424 H1416 0.929 . S
C1424 C1425 1.377 . S
C1424 C1426 1.384 . S
C1425 C1424 1.377 . S
C1425 C1431 1.390 . S
C1426 H1417 0.930 . S
C1426 C1424 1.384 . S
C1426 C1427 1.372 . S
C1427 C1426 1.372 . S
C1427 C1428 1.400 . S
C1427 C1432 1.490 . S
C1428 H1418 0.930 . S
C1428 C1427 1.400 . S
C1428 C1431 1.386 . S
H1429 C1445 0.930 . S
H1430 C1446 0.931 . S
C1431 H1419 0.929 . S
C1431 C1425 1.390 . S
C1431 C1428 1.386 . S
C1432 C1427 1.490 . S
C1432 C1434 1.395 . S
C1432 C1435 1.403 . S
H1433 C1439 0.930 . S
C1434 H1420 0.930 . S
C1434 C1432 1.395 . S
C1434 C1437 1.403 . S
C1435 C1432 1.403 . S
C1435 C1436 1.524 . S
C1435 C1439 1.400 . S
C1436 H1421 0.960 . S
C1436 H1422 0.960 . S
C1436 H1423 0.960 . S
C1436 C1435 1.524 . S
C1437 C1434 1.403 . S
C1437 C1438 1.392 . S
C1437 C1441 1.495 . S
C1438 C1437 1.392 . S
C1438 C1439 1.385 . S
C1438 C1440 1.478 . S
C1439 H1433 0.930 . S
C1439 C1435 1.400 . S
C1439 C1438 1.385 . S
C1440 C1438 1.478 . S
C1440 C1442 1.381 . S
C1440 C1446 1.383 . S
C1441 C1437 1.495 . S
C1441 H1447 0.959 . S
C1441 H1448 0.961 . S
C1441 H1449 0.960 . S
C1442 C1440 1.381 . S
C1442 C1443 1.394 . S
C1442 H1450 0.930 . S
C1443 C1442 1.394 . S
C1443 C1444 1.383 . S
C1443 H1451 0.929 . S
C1444 C1443 1.383 . S
C1444 C1445 1.377 . S
C1445 H1429 0.930 . S
C1445 C1444 1.377 . S
C1445 C1446 1.379 . S
C1446 H1430 0.931 . S
C1446 C1440 1.383 . S
C1446 C1445 1.379 . S
H1447 C1441 0.959 . S
H1448 C1441 0.961 . S
H1449 C1441 0.960 . S
H1450 C1442 0.930 . S
H1451 C1443 0.929 . S
H1452 C1460 0.929 . S
H1453 C1462 0.930 . S
H1454 C1464 0.930 . S
H1455 C1467 0.929 . S
H1456 C1470 0.930 . S
H1457 C1472 0.960 . S
H1458 C1472 0.960 . S
H1459 C1472 0.960 . S
C1460 H1452 0.929 . S
C1460 C1461 1.377 . S
C1460 C1462 1.384 . S
C1461 C1460 1.377 . S
C1461 C1467 1.390 . S
C1462 H1453 0.930 . S
C1462 C1460 1.384 . S
C1462 C1463 1.372 . S
C1463 C1462 1.372 . S
C1463 C1464 1.400 . S
C1463 C1468 1.490 . S
C1464 H1454 0.930 . S
C1464 C1463 1.400 . S
C1464 C1467 1.386 . S
H1465 C1481 0.930 . S
H1466 C1482 0.931 . S
C1467 H1455 0.929 . S
C1467 C1461 1.390 . S
C1467 C1464 1.386 . S
C1468 C1463 1.490 . S
C1468 C1470 1.395 . S
C1468 C1471 1.403 . S
H1469 C1475 0.930 . S
C1470 H1456 0.930 . S
C1470 C1468 1.395 . S
C1470 C1473 1.403 . S
C1471 C1468 1.403 . S
C1471 C1472 1.524 . S
C1471 C1475 1.400 . S
C1472 H1457 0.960 . S
C1472 H1458 0.960 . S
C1472 H1459 0.960 . S
C1472 C1471 1.524 . S
C1473 C1470 1.403 . S
C1473 C1474 1.392 . S
C1473 C1477 1.495 . S
C1474 C1473 1.392 . S
C1474 C1475 1.385 . S
C1474 C1476 1.478 . S
C1475 H1469 0.930 . S
C1475 C1471 1.400 . S
C1475 C1474 1.385 . S
C1476 C1474 1.478 . S
C1476 C1478 1.381 . S
C1476 C1482 1.383 . S
C1477 C1473 1.495 . S
C1477 H1483 0.959 . S
C1477 H1484 0.961 . S
C1477 H1485 0.960 . S
C1478 C1476 1.381 . S
C1478 C1479 1.394 . S
C1478 H1486 0.930 . S
C1479 C1478 1.394 . S
C1479 C1480 1.383 . S
C1479 H1487 0.929 . S
C1480 C1479 1.383 . S
C1480 C1481 1.377 . S
C1481 H1465 0.930 . S
C1481 C1480 1.377 . S
C1481 C1482 1.379 . S
C1482 H1466 0.931 . S
C1482 C1476 1.383 . S
C1482 C1481 1.379 . S
H1483 C1477 0.959 . S
H1484 C1477 0.961 . S
H1485 C1477 0.960 . S
H1486 C1478 0.930 . S
H1487 C1479 0.929 . S
H1488 C1496 0.929 . S
H1489 C1498 0.930 . S
H1490 C1500 0.930 . S
H1491 C1503 0.929 . S
H1492 C1506 0.930 . S
H1493 C1508 0.960 . S
H1494 C1508 0.960 . S
H1495 C1508 0.960 . S
C1496 H1488 0.929 . S
C1496 C1497 1.377 . S
C1496 C1498 1.384 . S
C1497 C1496 1.377 . S
C1497 C1503 1.390 . S
C1498 H1489 0.930 . S
C1498 C1496 1.384 . S
C1498 C1499 1.372 . S
C1499 C1498 1.372 . S
C1499 C1500 1.400 . S
C1499 C1504 1.490 . S
C1500 H1490 0.930 . S
C1500 C1499 1.400 . S
C1500 C1503 1.386 . S
H1501 C1517 0.930 . S
H1502 C1518 0.931 . S
C1503 H1491 0.929 . S
C1503 C1497 1.390 . S
C1503 C1500 1.386 . S
C1504 C1499 1.490 . S
C1504 C1506 1.395 . S
C1504 C1507 1.403 . S
H1505 C1511 0.930 . S
C1506 H1492 0.930 . S
C1506 C1504 1.395 . S
C1506 C1509 1.403 . S
C1507 C1504 1.403 . S
C1507 C1508 1.524 . S
C1507 C1511 1.400 . S
C1508 H1493 0.960 . S
C1508 H1494 0.960 . S
C1508 H1495 0.960 . S
C1508 C1507 1.524 . S
C1509 C1506 1.403 . S
C1509 C1510 1.392 . S
C1509 C1513 1.495 . S
C1510 C1509 1.392 . S
C1510 C1511 1.385 . S
C1510 C1512 1.478 . S
C1511 H1505 0.930 . S
C1511 C1507 1.400 . S
C1511 C1510 1.385 . S
C1512 C1510 1.478 . S
C1512 C1514 1.381 . S
C1512 C1518 1.383 . S
C1513 C1509 1.495 . S
C1513 H1519 0.959 . S
C1513 H1520 0.961 . S
C1513 H1521 0.960 . S
C1514 C1512 1.381 . S
C1514 C1515 1.394 . S
C1514 H1522 0.930 . S
C1515 C1514 1.394 . S
C1515 C1516 1.383 . S
C1515 H1523 0.929 . S
C1516 C1515 1.383 . S
C1516 C1517 1.377 . S
C1517 H1501 0.930 . S
C1517 C1516 1.377 . S
C1517 C1518 1.379 . S
C1518 H1502 0.931 . S
C1518 C1512 1.383 . S
C1518 C1517 1.379 . S
H1519 C1513 0.959 . S
H1520 C1513 0.961 . S
H1521 C1513 0.960 . S
H1522 C1514 0.930 . S
H1523 C1515 0.929 . S
H1524 C1532 0.929 . S
H1525 C1534 0.930 . S
H1526 C1536 0.930 . S
H1527 C1539 0.929 . S
H1528 C1542 0.930 . S
H1529 C1544 0.960 . S
H1530 C1544 0.960 . S
H1531 C1544 0.960 . S
C1532 H1524 0.929 . S
C1532 C1533 1.377 . S
C1532 C1534 1.384 . S
C1533 C1532 1.377 . S
C1533 C1539 1.390 . S
C1534 H1525 0.930 . S
C1534 C1532 1.384 . S
C1534 C1535 1.372 . S
C1535 C1534 1.372 . S
C1535 C1536 1.400 . S
C1535 C1540 1.490 . S
C1536 H1526 0.930 . S
C1536 C1535 1.400 . S
C1536 C1539 1.386 . S
H1537 C1553 0.930 1_455 S
H1538 C1554 0.931 . S
C1539 H1527 0.929 . S
C1539 C1533 1.390 . S
C1539 C1536 1.386 . S
C1540 C1535 1.490 . S
C1540 C1542 1.395 . S
C1540 C1543 1.403 . S
H1541 C1547 0.930 . S
C1542 H1528 0.930 . S
C1542 C1540 1.395 . S
C1542 C1545 1.403 . S
C1543 C1540 1.403 . S
C1543 C1544 1.524 . S
C1543 C1547 1.400 . S
C1544 H1529 0.960 . S
C1544 H1530 0.960 . S
C1544 H1531 0.960 . S
C1544 C1543 1.524 . S
C1545 C1542 1.403 . S
C1545 C1546 1.392 . S
C1545 C1549 1.495 . S
C1546 C1545 1.392 . S
C1546 C1547 1.385 . S
C1546 C1548 1.478 . S
C1547 H1541 0.930 . S
C1547 C1543 1.400 . S
C1547 C1546 1.385 . S
C1548 C1546 1.478 . S
C1548 C1550 1.381 . S
C1548 C1554 1.383 . S
C1549 C1545 1.495 . S
C1549 H1555 0.959 . S
C1549 H1556 0.961 . S
C1549 H1557 0.960 . S
C1550 C1548 1.381 . S
C1550 C1551 1.394 . S
C1550 H1558 0.930 . S
C1551 C1550 1.394 . S
C1551 C1552 1.383 . S
C1551 H1559 0.929 . S
C1552 C1551 1.383 . S
C1552 C1553 1.377 . S
C1553 H1537 0.930 1_655 S
C1553 C1552 1.377 . S
C1553 C1554 1.379 . S
C1554 H1538 0.931 . S
C1554 C1548 1.383 . S
C1554 C1553 1.379 . S
H1555 C1549 0.959 . S
H1556 C1549 0.961 . S
H1557 C1549 0.960 . S
H1558 C1550 0.930 . S
H1559 C1551 0.929 . S
H1560 C1568 0.929 . S
H1561 C1570 0.930 . S
H1562 C1572 0.930 . S
H1563 C1575 0.929 . S
H1564 C1578 0.930 . S
H1565 C1580 0.960 . S
H1566 C1580 0.960 . S
H1567 C1580 0.960 . S
C1568 H1560 0.929 . S
C1568 C1569 1.377 . S
C1568 C1570 1.384 . S
C1569 C1568 1.377 . S
C1569 C1575 1.390 . S
C1570 H1561 0.930 . S
C1570 C1568 1.384 . S
C1570 C1571 1.372 . S
C1571 C1570 1.372 . S
C1571 C1572 1.400 . S
C1571 C1576 1.490 . S
C1572 H1562 0.930 . S
C1572 C1571 1.400 . S
C1572 C1575 1.386 . S
H1573 C1589 0.930 . S
H1574 C1590 0.931 . S
C1575 H1563 0.929 . S
C1575 C1569 1.390 . S
C1575 C1572 1.386 . S
C1576 C1571 1.490 . S
C1576 C1578 1.395 . S
C1576 C1579 1.403 . S
H1577 C1583 0.930 . S
C1578 H1564 0.930 . S
C1578 C1576 1.395 . S
C1578 C1581 1.403 . S
C1579 C1576 1.403 . S
C1579 C1580 1.524 . S
C1579 C1583 1.400 . S
C1580 H1565 0.960 . S
C1580 H1566 0.960 . S
C1580 H1567 0.960 . S
C1580 C1579 1.524 . S
C1581 C1578 1.403 . S
C1581 C1582 1.392 . S
C1581 C1585 1.495 . S
C1582 C1581 1.392 . S
C1582 C1583 1.385 . S
C1582 C1584 1.478 . S
C1583 H1577 0.930 . S
C1583 C1579 1.400 . S
C1583 C1582 1.385 . S
C1584 C1582 1.478 . S
C1584 C1586 1.381 . S
C1584 C1590 1.383 . S
C1585 C1581 1.495 . S
C1585 H1591 0.959 . S
C1585 H1592 0.961 . S
C1585 H1593 0.960 . S
C1586 C1584 1.381 . S
C1586 C1587 1.394 . S
C1586 H1594 0.930 . S
C1587 C1586 1.394 . S
C1587 C1588 1.383 . S
C1587 H1595 0.929 . S
C1588 C1587 1.383 . S
C1588 C1589 1.377 . S
C1589 H1573 0.930 . S
C1589 C1588 1.377 . S
C1589 C1590 1.379 . S
C1590 H1574 0.931 . S
C1590 C1584 1.383 . S
C1590 C1589 1.379 . S
H1591 C1585 0.959 . S
H1592 C1585 0.961 . S
H1593 C1585 0.960 . S
H1594 C1586 0.930 . S
H1595 C1587 0.929 . S
H1596 C1604 0.929 . S
H1597 C1606 0.930 . S
H1598 C1608 0.930 . S
H1599 C1611 0.929 . S
H1600 C1614 0.930 . S
H1601 C1616 0.960 . S
H1602 C1616 0.960 . S
H1603 C1616 0.960 . S
C1604 H1596 0.929 . S
C1604 C1605 1.377 . S
C1604 C1606 1.384 . S
C1605 C1604 1.377 . S
C1605 C1611 1.390 . S
C1606 H1597 0.930 . S
C1606 C1604 1.384 . S
C1606 C1607 1.372 . S
C1607 C1606 1.372 . S
C1607 C1608 1.400 . S
C1607 C1612 1.490 . S
C1608 H1598 0.930 . S
C1608 C1607 1.400 . S
C1608 C1611 1.386 . S
H1609 C1625 0.930 . S
H1610 C1626 0.931 . S
C1611 H1599 0.929 . S
C1611 C1605 1.390 . S
C1611 C1608 1.386 . S
C1612 C1607 1.490 . S
C1612 C1614 1.395 . S
C1612 C1615 1.403 . S
H1613 C1619 0.930 . S
C1614 H1600 0.930 . S
C1614 C1612 1.395 . S
C1614 C1617 1.403 . S
C1615 C1612 1.403 . S
C1615 C1616 1.524 . S
C1615 C1619 1.400 . S
C1616 H1601 0.960 . S
C1616 H1602 0.960 . S
C1616 H1603 0.960 . S
C1616 C1615 1.524 . S
C1617 C1614 1.403 . S
C1617 C1618 1.392 . S
C1617 C1621 1.495 . S
C1618 C1617 1.392 . S
C1618 C1619 1.385 . S
C1618 C1620 1.478 . S
C1619 H1613 0.930 . S
C1619 C1615 1.400 . S
C1619 C1618 1.385 . S
C1620 C1618 1.478 . S
C1620 C1622 1.381 . S
C1620 C1626 1.383 . S
C1621 C1617 1.495 . S
C1621 H1627 0.959 . S
C1621 H1628 0.961 . S
C1621 H1629 0.960 . S
C1622 C1620 1.381 . S
C1622 C1623 1.394 . S
C1622 H1630 0.930 . S
C1623 C1622 1.394 . S
C1623 C1624 1.383 . S
C1623 H1631 0.929 . S
C1624 C1623 1.383 . S
C1624 C1625 1.377 . S
C1625 H1609 0.930 . S
C1625 C1624 1.377 . S
C1625 C1626 1.379 . S
C1626 H1610 0.931 . S
C1626 C1620 1.383 . S
C1626 C1625 1.379 . S
H1627 C1621 0.959 . S
H1628 C1621 0.961 . S
H1629 C1621 0.960 . S
H1630 C1622 0.930 . S
H1631 C1623 0.929 . S
H1632 C1640 0.929 . S
H1633 C1642 0.930 . S
H1634 C1644 0.930 . S
H1635 C1647 0.929 . S
H1636 C1650 0.930 . S
H1637 C1652 0.960 . S
H1638 C1652 0.960 . S
H1639 C1652 0.960 . S
C1640 H1632 0.929 . S
C1640 C1641 1.377 . S
C1640 C1642 1.384 . S
C1641 C1640 1.377 . S
C1641 C1647 1.390 . S
C1642 H1633 0.930 . S
C1642 C1640 1.384 . S
C1642 C1643 1.372 . S
C1643 C1642 1.372 . S
C1643 C1644 1.400 . S
C1643 C1648 1.490 . S
C1644 H1634 0.930 . S
C1644 C1643 1.400 . S
C1644 C1647 1.386 . S
H1645 C1661 0.930 . S
H1646 C1662 0.931 . S
C1647 H1635 0.929 . S
C1647 C1641 1.390 . S
C1647 C1644 1.386 . S
C1648 C1643 1.490 . S
C1648 C1650 1.395 . S
C1648 C1651 1.403 . S
H1649 C1655 0.930 . S
C1650 H1636 0.930 . S
C1650 C1648 1.395 . S
C1650 C1653 1.403 . S
C1651 C1648 1.403 . S
C1651 C1652 1.524 . S
C1651 C1655 1.400 . S
C1652 H1637 0.960 . S
C1652 H1638 0.960 . S
C1652 H1639 0.960 . S
C1652 C1651 1.524 . S
C1653 C1650 1.403 . S
C1653 C1654 1.392 . S
C1653 C1657 1.495 . S
C1654 C1653 1.392 . S
C1654 C1655 1.385 . S
C1654 C1656 1.478 . S
C1655 H1649 0.930 . S
C1655 C1651 1.400 . S
C1655 C1654 1.385 . S
C1656 C1654 1.478 . S
C1656 C1658 1.381 . S
C1656 C1662 1.383 . S
C1657 C1653 1.495 . S
C1657 H1663 0.959 . S
C1657 H1664 0.961 . S
C1657 H1665 0.960 . S
C1658 C1656 1.381 . S
C1658 C1659 1.394 . S
C1658 H1666 0.930 . S
C1659 C1658 1.394 . S
C1659 C1660 1.383 . S
C1659 H1667 0.929 . S
C1660 C1659 1.383 . S
C1660 C1661 1.377 . S
C1661 H1645 0.930 . S
C1661 C1660 1.377 . S
C1661 C1662 1.379 . S
C1662 H1646 0.931 . S
C1662 C1656 1.383 . S
C1662 C1661 1.379 . S
H1663 C1657 0.959 . S
H1664 C1657 0.961 . S
H1665 C1657 0.960 . S
H1666 C1658 0.930 . S
H1667 C1659 0.929 . S
H1668 C1676 0.929 . S
H1669 C1678 0.930 . S
H1670 C1680 0.930 . S
H1671 C1683 0.929 . S
H1672 C1686 0.930 . S
H1673 C1688 0.960 . S
H1674 C1688 0.960 . S
H1675 C1688 0.960 . S
C1676 H1668 0.929 . S
C1676 C1677 1.377 . S
C1676 C1678 1.384 . S
C1677 C1676 1.377 . S
C1677 C1683 1.390 . S
C1678 H1669 0.930 . S
C1678 C1676 1.384 . S
C1678 C1679 1.372 . S
C1679 C1678 1.372 . S
C1679 C1680 1.400 . S
C1679 C1684 1.490 . S
C1680 H1670 0.930 . S
C1680 C1679 1.400 . S
C1680 C1683 1.386 . S
H1681 C1697 0.930 . S
H1682 C1698 0.931 . S
C1683 H1671 0.929 . S
C1683 C1677 1.390 . S
C1683 C1680 1.386 . S
C1684 C1679 1.490 . S
C1684 C1686 1.395 . S
C1684 C1687 1.403 . S
H1685 C1691 0.930 . S
C1686 H1672 0.930 . S
C1686 C1684 1.395 . S
C1686 C1689 1.403 . S
C1687 C1684 1.403 . S
C1687 C1688 1.524 . S
C1687 C1691 1.400 . S
C1688 H1673 0.960 . S
C1688 H1674 0.960 . S
C1688 H1675 0.960 . S
C1688 C1687 1.524 . S
C1689 C1686 1.403 . S
C1689 C1690 1.392 . S
C1689 C1693 1.495 . S
C1690 C1689 1.392 . S
C1690 C1691 1.385 . S
C1690 C1692 1.478 . S
C1691 H1685 0.930 . S
C1691 C1687 1.400 . S
C1691 C1690 1.385 . S
C1692 C1690 1.478 . S
C1692 C1694 1.381 . S
C1692 C1698 1.383 . S
C1693 C1689 1.495 . S
C1693 H1699 0.959 . S
C1693 H1700 0.961 . S
C1693 H1701 0.960 . S
C1694 C1692 1.381 . S
C1694 C1695 1.394 . S
C1694 H1702 0.930 . S
C1695 C1694 1.394 . S
C1695 C1696 1.383 . S
C1695 H1703 0.929 . S
C1696 C1695 1.383 . S
C1696 C1697 1.377 . S
C1697 H1681 0.930 . S
C1697 C1696 1.377 . S
C1697 C1698 1.379 . S
C1698 H1682 0.931 . S
C1698 C1692 1.383 . S
C1698 C1697 1.379 . S
H1699 C1693 0.959 . S
H1700 C1693 0.961 . S
H1701 C1693 0.960 . S
H1702 C1694 0.930 . S
H1703 C1695 0.929 . S
H1704 C1712 0.929 . S
H1705 C1714 0.930 . S
H1706 C1716 0.930 . S
H1707 C1719 0.929 . S
H1708 C1722 0.930 . S
H1709 C1724 0.960 . S
H1710 C1724 0.960 . S
H1711 C1724 0.960 . S
C1712 H1704 0.929 . S
C1712 C1713 1.377 . S
C1712 C1714 1.384 . S
C1713 C1712 1.377 . S
C1713 C1719 1.390 . S
C1714 H1705 0.930 . S
C1714 C1712 1.384 . S
C1714 C1715 1.372 . S
C1715 C1714 1.372 . S
C1715 C1716 1.400 . S
C1715 C1720 1.490 . S
C1716 H1706 0.930 . S
C1716 C1715 1.400 . S
C1716 C1719 1.386 . S
H1717 C1733 0.930 . S
H1718 C1734 0.931 . S
C1719 H1707 0.929 . S
C1719 C1713 1.390 . S
C1719 C1716 1.386 . S
C1720 C1715 1.490 . S
C1720 C1722 1.395 . S
C1720 C1723 1.403 . S
H1721 C1727 0.930 . S
C1722 H1708 0.930 . S
C1722 C1720 1.395 . S
C1722 C1725 1.403 . S
C1723 C1720 1.403 . S
C1723 C1724 1.524 . S
C1723 C1727 1.400 . S
C1724 H1709 0.960 . S
C1724 H1710 0.960 . S
C1724 H1711 0.960 . S
C1724 C1723 1.524 . S
C1725 C1722 1.403 . S
C1725 C1726 1.392 . S
C1725 C1729 1.495 . S
C1726 C1725 1.392 . S
C1726 C1727 1.385 . S
C1726 C1728 1.478 . S
C1727 H1721 0.930 . S
C1727 C1723 1.400 . S
C1727 C1726 1.385 . S
C1728 C1726 1.478 . S
C1728 C1730 1.381 . S
C1728 C1734 1.383 . S
C1729 C1725 1.495 . S
C1729 H1735 0.959 . S
C1729 H1736 0.961 . S
C1729 H1737 0.960 . S
C1730 C1728 1.381 . S
C1730 C1731 1.394 . S
C1730 H1738 0.930 . S
C1731 C1730 1.394 . S
C1731 C1732 1.383 . S
C1731 H1739 0.929 . S
C1732 C1731 1.383 . S
C1732 C1733 1.377 . S
C1733 H1717 0.930 . S
C1733 C1732 1.377 . S
C1733 C1734 1.379 . S
C1734 H1718 0.931 . S
C1734 C1728 1.383 . S
C1734 C1733 1.379 . S
H1735 C1729 0.959 . S
H1736 C1729 0.961 . S
H1737 C1729 0.960 . S
H1738 C1730 0.930 . S
H1739 C1731 0.929 . S
H1740 C1748 0.929 . S
H1741 C1750 0.930 . S
H1742 C1752 0.930 . S
H1743 C1755 0.929 . S
H1744 C1758 0.930 . S
H1745 C1760 0.960 . S
H1746 C1760 0.960 . S
H1747 C1760 0.960 . S
C1748 H1740 0.929 . S
C1748 C1749 1.377 . S
C1748 C1750 1.384 . S
C1749 C1748 1.377 . S
C1749 C1755 1.390 . S
C1750 H1741 0.930 . S
C1750 C1748 1.384 . S
C1750 C1751 1.372 . S
C1751 C1750 1.372 . S
C1751 C1752 1.400 . S
C1751 C1756 1.490 . S
C1752 H1742 0.930 . S
C1752 C1751 1.400 . S
C1752 C1755 1.386 . S
H1753 C1769 0.930 . S
H1754 C1770 0.931 . S
C1755 H1743 0.929 . S
C1755 C1749 1.390 . S
C1755 C1752 1.386 . S
C1756 C1751 1.490 . S
C1756 C1758 1.395 . S
C1756 C1759 1.403 . S
H1757 C1763 0.930 . S
C1758 H1744 0.930 . S
C1758 C1756 1.395 . S
C1758 C1761 1.403 . S
C1759 C1756 1.403 . S
C1759 C1760 1.524 . S
C1759 C1763 1.400 . S
C1760 H1745 0.960 . S
C1760 H1746 0.960 . S
C1760 H1747 0.960 . S
C1760 C1759 1.524 . S
C1761 C1758 1.403 . S
C1761 C1762 1.392 . S
C1761 C1765 1.495 . S
C1762 C1761 1.392 . S
C1762 C1763 1.385 . S
C1762 C1764 1.478 . S
C1763 H1757 0.930 . S
C1763 C1759 1.400 . S
C1763 C1762 1.385 . S
C1764 C1762 1.478 . S
C1764 C1766 1.381 . S
C1764 C1770 1.383 . S
C1765 C1761 1.495 . S
C1765 H1771 0.959 . S
C1765 H1772 0.961 . S
C1765 H1773 0.960 . S
C1766 C1764 1.381 . S
C1766 C1767 1.394 . S
C1766 H1774 0.930 . S
C1767 C1766 1.394 . S
C1767 C1768 1.383 . S
C1767 H1775 0.929 . S
C1768 C1767 1.383 . S
C1768 C1769 1.377 . S
C1769 H1753 0.930 . S
C1769 C1768 1.377 . S
C1769 C1770 1.379 . S
C1770 H1754 0.931 . S
C1770 C1764 1.383 . S
C1770 C1769 1.379 . S
H1771 C1765 0.959 . S
H1772 C1765 0.961 . S
H1773 C1765 0.960 . S
H1774 C1766 0.930 . S
H1775 C1767 0.929 . S
H1776 C1784 0.929 . S
H1777 C1786 0.930 . S
H1778 C1788 0.930 . S
H1779 C1791 0.929 . S
H1780 C1794 0.930 . S
H1781 C1796 0.960 . S
H1782 C1796 0.960 . S
H1783 C1796 0.960 . S
C1784 H1776 0.929 . S
C1784 C1785 1.377 . S
C1784 C1786 1.384 . S
C1785 C1784 1.377 . S
C1785 C1791 1.390 . S
C1786 H1777 0.930 . S
C1786 C1784 1.384 . S
C1786 C1787 1.372 . S
C1787 C1786 1.372 . S
C1787 C1788 1.400 . S
C1787 C1792 1.490 . S
C1788 H1778 0.930 . S
C1788 C1787 1.400 . S
C1788 C1791 1.386 . S
H1789 C1805 0.930 . S
H1790 C1806 0.931 . S
C1791 H1779 0.929 . S
C1791 C1785 1.390 . S
C1791 C1788 1.386 . S
C1792 C1787 1.490 . S
C1792 C1794 1.395 . S
C1792 C1795 1.403 . S
H1793 C1799 0.930 . S
C1794 H1780 0.930 . S
C1794 C1792 1.395 . S
C1794 C1797 1.403 . S
C1795 C1792 1.403 . S
C1795 C1796 1.524 . S
C1795 C1799 1.400 . S
C1796 H1781 0.960 . S
C1796 H1782 0.960 . S
C1796 H1783 0.960 . S
C1796 C1795 1.524 . S
C1797 C1794 1.403 . S
C1797 C1798 1.392 . S
C1797 C1801 1.495 . S
C1798 C1797 1.392 . S
C1798 C1799 1.385 . S
C1798 C1800 1.478 . S
C1799 H1793 0.930 . S
C1799 C1795 1.400 . S
C1799 C1798 1.385 . S
C1800 C1798 1.478 . S
C1800 C1802 1.381 . S
C1800 C1806 1.383 . S
C1801 C1797 1.495 . S
C1801 H1807 0.959 . S
C1801 H1808 0.961 . S
C1801 H1809 0.960 . S
C1802 C1800 1.381 . S
C1802 C1803 1.394 . S
C1802 H1810 0.930 . S
C1803 C1802 1.394 . S
C1803 C1804 1.383 . S
C1803 H1811 0.929 . S
C1804 C1803 1.383 . S
C1804 C1805 1.377 . S
C1805 H1789 0.930 . S
C1805 C1804 1.377 . S
C1805 C1806 1.379 . S
C1806 H1790 0.931 . S
C1806 C1800 1.383 . S
C1806 C1805 1.379 . S
H1807 C1801 0.959 . S
H1808 C1801 0.961 . S
H1809 C1801 0.960 . S
H1810 C1802 0.930 . S
H1811 C1803 0.929 . S
H1812 C1820 0.929 . S
H1813 C1822 0.930 . S
H1814 C1824 0.930 . S
H1815 C1827 0.929 . S
H1816 C1830 0.930 . S
H1817 C1832 0.960 . S
H1818 C1832 0.960 . S
H1819 C1832 0.960 . S
C1820 H1812 0.929 . S
C1820 C1821 1.377 . S
C1820 C1822 1.384 . S
C1821 C1820 1.377 . S
C1821 C1827 1.390 . S
C1822 H1813 0.930 . S
C1822 C1820 1.384 . S
C1822 C1823 1.372 . S
C1823 C1822 1.372 . S
C1823 C1824 1.400 . S
C1823 C1828 1.490 . S
C1824 H1814 0.930 . S
C1824 C1823 1.400 . S
C1824 C1827 1.386 . S
H1825 C1841 0.930 . S
H1826 C1842 0.931 . S
C1827 H1815 0.929 . S
C1827 C1821 1.390 . S
C1827 C1824 1.386 . S
C1828 C1823 1.490 . S
C1828 C1830 1.395 . S
C1828 C1831 1.403 . S
H1829 C1835 0.930 . S
C1830 H1816 0.930 . S
C1830 C1828 1.395 . S
C1830 C1833 1.403 . S
C1831 C1828 1.403 . S
C1831 C1832 1.524 . S
C1831 C1835 1.400 . S
C1832 H1817 0.960 . S
C1832 H1818 0.960 . S
C1832 H1819 0.960 . S
C1832 C1831 1.524 . S
C1833 C1830 1.403 . S
C1833 C1834 1.392 . S
C1833 C1837 1.495 . S
C1834 C1833 1.392 . S
C1834 C1835 1.385 . S
C1834 C1836 1.478 . S
C1835 H1829 0.930 . S
C1835 C1831 1.400 . S
C1835 C1834 1.385 . S
C1836 C1834 1.478 . S
C1836 C1838 1.381 . S
C1836 C1842 1.383 . S
C1837 C1833 1.495 . S
C1837 H1843 0.959 . S
C1837 H1844 0.961 . S
C1837 H1845 0.960 . S
C1838 C1836 1.381 . S
C1838 C1839 1.394 . S
C1838 H1846 0.930 . S
C1839 C1838 1.394 . S
C1839 C1840 1.383 . S
C1839 H1847 0.929 . S
C1840 C1839 1.383 . S
C1840 C1841 1.377 . S
C1841 H1825 0.930 . S
C1841 C1840 1.377 . S
C1841 C1842 1.379 . S
C1842 H1826 0.931 . S
C1842 C1836 1.383 . S
C1842 C1841 1.379 . S
H1843 C1837 0.959 . S
H1844 C1837 0.961 . S
H1845 C1837 0.960 . S
H1846 C1838 0.930 . S
H1847 C1839 0.929 . S
H1848 C1856 0.929 . S
H1849 C1858 0.930 . S
H1850 C1860 0.930 . S
H1851 C1863 0.929 . S
H1852 C1866 0.930 . S
H1853 C1868 0.960 . S
H1854 C1868 0.960 . S
H1855 C1868 0.960 . S
C1856 H1848 0.929 . S
C1856 C1857 1.377 . S
C1856 C1858 1.384 . S
C1857 C1856 1.377 . S
C1857 C1863 1.390 . S
C1858 H1849 0.930 . S
C1858 C1856 1.384 . S
C1858 C1859 1.372 . S
C1859 C1858 1.372 . S
C1859 C1860 1.400 . S
C1859 C1864 1.490 . S
C1860 H1850 0.930 . S
C1860 C1859 1.400 . S
C1860 C1863 1.386 . S
H1861 C1877 0.930 . S
H1862 C1878 0.931 . S
C1863 H1851 0.929 . S
C1863 C1857 1.390 . S
C1863 C1860 1.386 . S
C1864 C1859 1.490 . S
C1864 C1866 1.395 . S
C1864 C1867 1.403 . S
H1865 C1871 0.930 . S
C1866 H1852 0.930 . S
C1866 C1864 1.395 . S
C1866 C1869 1.403 . S
C1867 C1864 1.403 . S
C1867 C1868 1.524 . S
C1867 C1871 1.400 . S
C1868 H1853 0.960 . S
C1868 H1854 0.960 . S
C1868 H1855 0.960 . S
C1868 C1867 1.524 . S
C1869 C1866 1.403 . S
C1869 C1870 1.392 . S
C1869 C1873 1.495 . S
C1870 C1869 1.392 . S
C1870 C1871 1.385 . S
C1870 C1872 1.478 . S
C1871 H1865 0.930 . S
C1871 C1867 1.400 . S
C1871 C1870 1.385 . S
C1872 C1870 1.478 . S
C1872 C1874 1.381 . S
C1872 C1878 1.383 . S
C1873 C1869 1.495 . S
C1873 H1879 0.959 . S
C1873 H1880 0.961 . S
C1873 H1881 0.960 . S
C1874 C1872 1.381 . S
C1874 C1875 1.394 . S
C1874 H1882 0.930 . S
C1875 C1874 1.394 . S
C1875 C1876 1.383 . S
C1875 H1883 0.929 . S
C1876 C1875 1.383 . S
C1876 C1877 1.377 . S
C1877 H1861 0.930 . S
C1877 C1876 1.377 . S
C1877 C1878 1.379 . S
C1878 H1862 0.931 . S
C1878 C1872 1.383 . S
C1878 C1877 1.379 . S
H1879 C1873 0.959 . S
H1880 C1873 0.961 . S
H1881 C1873 0.960 . S
H1882 C1874 0.930 . S
H1883 C1875 0.929 . S
H1884 C1892 0.929 . S
H1885 C1894 0.930 . S
H1886 C1896 0.930 . S
H1887 C1899 0.929 . S
H1888 C1902 0.930 . S
H1889 C1904 0.960 . S
H1890 C1904 0.960 . S
H1891 C1904 0.960 . S
C1892 H1884 0.929 . S
C1892 C1893 1.377 . S
C1892 C1894 1.384 . S
C1893 C1892 1.377 . S
C1893 C1899 1.390 . S
C1894 H1885 0.930 . S
C1894 C1892 1.384 . S
C1894 C1895 1.372 . S
C1895 C1894 1.372 . S
C1895 C1896 1.400 . S
C1895 C1900 1.490 . S
C1896 H1886 0.930 . S
C1896 C1895 1.400 . S
C1896 C1899 1.386 . S
H1897 C1913 0.930 . S
H1898 C1914 0.931 . S
C1899 H1887 0.929 . S
C1899 C1893 1.390 . S
C1899 C1896 1.386 . S
C1900 C1895 1.490 . S
C1900 C1902 1.395 . S
C1900 C1903 1.403 . S
H1901 C1907 0.930 . S
C1902 H1888 0.930 . S
C1902 C1900 1.395 . S
C1902 C1905 1.403 . S
C1903 C1900 1.403 . S
C1903 C1904 1.524 . S
C1903 C1907 1.400 . S
C1904 H1889 0.960 . S
C1904 H1890 0.960 . S
C1904 H1891 0.960 . S
C1904 C1903 1.524 . S
C1905 C1902 1.403 . S
C1905 C1906 1.392 . S
C1905 C1909 1.495 . S
C1906 C1905 1.392 . S
C1906 C1907 1.385 . S
C1906 C1908 1.478 . S
C1907 H1901 0.930 . S
C1907 C1903 1.400 . S
C1907 C1906 1.385 . S
C1908 C1906 1.478 . S
C1908 C1910 1.381 . S
C1908 C1914 1.383 . S
C1909 C1905 1.495 . S
C1909 H1915 0.959 . S
C1909 H1916 0.961 . S
C1909 H1917 0.960 . S
C1910 C1908 1.381 . S
C1910 C1911 1.394 . S
C1910 H1918 0.930 . S
C1911 C1910 1.394 . S
C1911 C1912 1.383 . S
C1911 H1919 0.929 . S
C1912 C1911 1.383 . S
C1912 C1913 1.377 . S
C1913 H1897 0.930 . S
C1913 C1912 1.377 . S
C1913 C1914 1.379 . S
C1914 H1898 0.931 . S
C1914 C1908 1.383 . S
C1914 C1913 1.379 . S
H1915 C1909 0.959 . S
H1916 C1909 0.961 . S
H1917 C1909 0.960 . S
H1918 C1910 0.930 . S
H1919 C1911 0.929 . S
H1920 C1928 0.929 . S
H1921 C1930 0.930 . S
H1922 C1932 0.930 . S
H1923 C1935 0.929 . S
H1924 C1938 0.930 . S
H1925 C1940 0.960 . S
H1926 C1940 0.960 . S
H1927 C1940 0.960 . S
C1928 H1920 0.929 . S
C1928 C1929 1.377 . S
C1928 C1930 1.384 . S
C1929 C1928 1.377 . S
C1929 C1935 1.390 . S
C1930 H1921 0.930 . S
C1930 C1928 1.384 . S
C1930 C1931 1.372 . S
C1931 C1930 1.372 . S
C1931 C1932 1.400 . S
C1931 C1936 1.490 . S
C1932 H1922 0.930 . S
C1932 C1931 1.400 . S
C1932 C1935 1.386 . S
H1933 C1949 0.930 . S
H1934 C1950 0.931 . S
C1935 H1923 0.929 . S
C1935 C1929 1.390 . S
C1935 C1932 1.386 . S
C1936 C1931 1.490 . S
C1936 C1938 1.395 . S
C1936 C1939 1.403 . S
H1937 C1943 0.930 . S
C1938 H1924 0.930 . S
C1938 C1936 1.395 . S
C1938 C1941 1.403 . S
C1939 C1936 1.403 . S
C1939 C1940 1.524 . S
C1939 C1943 1.400 . S
C1940 H1925 0.960 . S
C1940 H1926 0.960 . S
C1940 H1927 0.960 . S
C1940 C1939 1.524 . S
C1941 C1938 1.403 . S
C1941 C1942 1.392 . S
C1941 C1945 1.495 . S
C1942 C1941 1.392 . S
C1942 C1943 1.385 . S
C1942 C1944 1.478 . S
C1943 H1937 0.930 . S
C1943 C1939 1.400 . S
C1943 C1942 1.385 . S
C1944 C1942 1.478 . S
C1944 C1946 1.381 . S
C1944 C1950 1.383 . S
C1945 C1941 1.495 . S
C1945 H1951 0.959 . S
C1945 H1952 0.961 . S
C1945 H1953 0.960 . S
C1946 C1944 1.381 . S
C1946 C1947 1.394 . S
C1946 H1954 0.930 . S
C1947 C1946 1.394 . S
C1947 C1948 1.383 . S
C1947 H1955 0.929 . S
C1948 C1947 1.383 . S
C1948 C1949 1.377 . S
C1949 H1933 0.930 . S
C1949 C1948 1.377 . S
C1949 C1950 1.379 . S
C1950 H1934 0.931 . S
C1950 C1944 1.383 . S
C1950 C1949 1.379 . S
H1951 C1945 0.959 . S
H1952 C1945 0.961 . S
H1953 C1945 0.960 . S
H1954 C1946 0.930 . S
H1955 C1947 0.929 . S
H1956 C1964 0.929 . S
H1957 C1966 0.930 . S
H1958 C1968 0.930 . S
H1959 C1971 0.929 . S
H1960 C1974 0.930 . S
H1961 C1976 0.960 . S
H1962 C1976 0.960 . S
H1963 C1976 0.960 . S
C1964 H1956 0.929 . S
C1964 C1965 1.377 . S
C1964 C1966 1.384 . S
C1965 C1964 1.377 . S
C1965 C1971 1.390 . S
C1966 H1957 0.930 . S
C1966 C1964 1.384 . S
C1966 C1967 1.372 . S
C1967 C1966 1.372 . S
C1967 C1968 1.400 . S
C1967 C1972 1.490 . S
C1968 H1958 0.930 . S
C1968 C1967 1.400 . S
C1968 C1971 1.386 . S
H1969 C1985 0.930 . S
H1970 C1986 0.931 . S
C1971 H1959 0.929 . S
C1971 C1965 1.390 . S
C1971 C1968 1.386 . S
C1972 C1967 1.490 . S
C1972 C1974 1.395 . S
C1972 C1975 1.403 . S
H1973 C1979 0.930 . S
C1974 H1960 0.930 . S
C1974 C1972 1.395 . S
C1974 C1977 1.403 . S
C1975 C1972 1.403 . S
C1975 C1976 1.524 . S
C1975 C1979 1.400 . S
C1976 H1961 0.960 . S
C1976 H1962 0.960 . S
C1976 H1963 0.960 . S
C1976 C1975 1.524 . S
C1977 C1974 1.403 . S
C1977 C1978 1.392 . S
C1977 C1981 1.495 . S
C1978 C1977 1.392 . S
C1978 C1979 1.385 . S
C1978 C1980 1.478 . S
C1979 H1973 0.930 . S
C1979 C1975 1.400 . S
C1979 C1978 1.385 . S
C1980 C1978 1.478 . S
C1980 C1982 1.381 . S
C1980 C1986 1.383 . S
C1981 C1977 1.495 . S
C1981 H1987 0.959 . S
C1981 H1988 0.961 . S
C1981 H1989 0.960 . S
C1982 C1980 1.381 . S
C1982 C1983 1.394 . S
C1982 H1990 0.930 . S
C1983 C1982 1.394 . S
C1983 C1984 1.383 . S
C1983 H1991 0.929 . S
C1984 C1983 1.383 . S
C1984 C1985 1.377 . S
C1985 H1969 0.930 . S
C1985 C1984 1.377 . S
C1985 C1986 1.379 . S
C1986 H1970 0.931 . S
C1986 C1980 1.383 . S
C1986 C1985 1.379 . S
H1987 C1981 0.959 . S
H1988 C1981 0.961 . S
H1989 C1981 0.960 . S
H1990 C1982 0.930 . S
H1991 C1983 0.929 . S
H1992 C2000 0.929 . S
H1993 C2002 0.930 . S
H1994 C2004 0.930 . S
H1995 C2007 0.929 . S
H1996 C2010 0.930 . S
H1997 C2012 0.960 . S
H1998 C2012 0.960 . S
H1999 C2012 0.960 . S
C2000 H1992 0.929 . S
C2000 C2001 1.377 . S
C2000 C2002 1.384 . S
C2001 C2000 1.377 . S
C2001 C2007 1.390 . S
C2002 H1993 0.930 . S
C2002 C2000 1.384 . S
C2002 C2003 1.372 . S
C2003 C2002 1.372 . S
C2003 C2004 1.400 . S
C2003 C2008 1.490 . S
C2004 H1994 0.930 . S
C2004 C2003 1.400 . S
C2004 C2007 1.386 . S
H2005 C2021 0.930 . S
H2006 C2022 0.931 . S
C2007 H1995 0.929 . S
C2007 C2001 1.390 . S
C2007 C2004 1.386 . S
C2008 C2003 1.490 . S
C2008 C2010 1.395 . S
C2008 C2011 1.403 . S
H2009 C2015 0.930 . S
C2010 H1996 0.930 . S
C2010 C2008 1.395 . S
C2010 C2013 1.403 . S
C2011 C2008 1.403 . S
C2011 C2012 1.524 . S
C2011 C2015 1.400 . S
C2012 H1997 0.960 . S
C2012 H1998 0.960 . S
C2012 H1999 0.960 . S
C2012 C2011 1.524 . S
C2013 C2010 1.403 . S
C2013 C2014 1.392 . S
C2013 C2017 1.495 . S
C2014 C2013 1.392 . S
C2014 C2015 1.385 . S
C2014 C2016 1.478 . S
C2015 H2009 0.930 . S
C2015 C2011 1.400 . S
C2015 C2014 1.385 . S
C2016 C2014 1.478 . S
C2016 C2018 1.381 . S
C2016 C2022 1.383 . S
C2017 C2013 1.495 . S
C2017 H2023 0.959 . S
C2017 H2024 0.961 . S
C2017 H2025 0.960 . S
C2018 C2016 1.381 . S
C2018 C2019 1.394 . S
C2018 H2026 0.930 . S
C2019 C2018 1.394 . S
C2019 C2020 1.383 . S
C2019 H2027 0.929 . S
C2020 C2019 1.383 . S
C2020 C2021 1.377 . S
C2021 H2005 0.930 . S
C2021 C2020 1.377 . S
C2021 C2022 1.379 . S
C2022 H2006 0.931 . S
C2022 C2016 1.383 . S
C2022 C2021 1.379 . S
H2023 C2017 0.959 . S
H2024 C2017 0.961 . S
H2025 C2017 0.960 . S
H2026 C2018 0.930 . S
H2027 C2019 0.929 . S
H2028 C2036 0.929 . S
H2029 C2038 0.930 . S
H2030 C2040 0.930 . S
H2031 C2043 0.929 . S
H2032 C2046 0.930 . S
H2033 C2048 0.960 . S
H2034 C2048 0.960 . S
H2035 C2048 0.960 . S
C2036 H2028 0.929 . S
C2036 C2037 1.377 . S
C2036 C2038 1.384 . S
C2037 C2036 1.377 . S
C2037 C2043 1.390 . S
C2038 H2029 0.930 . S
C2038 C2036 1.384 . S
C2038 C2039 1.372 . S
C2039 C2038 1.372 . S
C2039 C2040 1.400 . S
C2039 C2044 1.490 . S
C2040 H2030 0.930 . S
C2040 C2039 1.400 . S
C2040 C2043 1.386 . S
H2041 C2057 0.930 . S
H2042 C2058 0.931 . S
C2043 H2031 0.929 . S
C2043 C2037 1.390 . S
C2043 C2040 1.386 . S
C2044 C2039 1.490 . S
C2044 C2046 1.395 . S
C2044 C2047 1.403 . S
H2045 C2051 0.930 . S
C2046 H2032 0.930 . S
C2046 C2044 1.395 . S
C2046 C2049 1.403 . S
C2047 C2044 1.403 . S
C2047 C2048 1.524 . S
C2047 C2051 1.400 . S
C2048 H2033 0.960 . S
C2048 H2034 0.960 . S
C2048 H2035 0.960 . S
C2048 C2047 1.524 . S
C2049 C2046 1.403 . S
C2049 C2050 1.392 . S
C2049 C2053 1.495 . S
C2050 C2049 1.392 . S
C2050 C2051 1.385 . S
C2050 C2052 1.478 . S
C2051 H2045 0.930 . S
C2051 C2047 1.400 . S
C2051 C2050 1.385 . S
C2052 C2050 1.478 . S
C2052 C2054 1.381 . S
C2052 C2058 1.383 . S
C2053 C2049 1.495 . S
C2053 H2059 0.959 . S
C2053 H2060 0.961 . S
C2053 H2061 0.960 . S
C2054 C2052 1.381 . S
C2054 C2055 1.394 . S
C2054 H2062 0.930 . S
C2055 C2054 1.394 . S
C2055 C2056 1.383 . S
C2055 H2063 0.929 . S
C2056 C2055 1.383 . S
C2056 C2057 1.377 . S
C2057 H2041 0.930 . S
C2057 C2056 1.377 . S
C2057 C2058 1.379 . S
C2058 H2042 0.931 . S
C2058 C2052 1.383 . S
C2058 C2057 1.379 . S
H2059 C2053 0.959 . S
H2060 C2053 0.961 . S
H2061 C2053 0.960 . S
H2062 C2054 0.930 . S
H2063 C2055 0.929 . S
H2064 C2072 0.929 . S
H2065 C2074 0.930 . S
H2066 C2076 0.930 . S
H2067 C2079 0.929 . S
H2068 C2082 0.930 . S
H2069 C2084 0.960 . S
H2070 C2084 0.960 . S
H2071 C2084 0.960 . S
C2072 H2064 0.929 . S
C2072 C2073 1.377 . S
C2072 C2074 1.384 . S
C2073 C2072 1.377 . S
C2073 C2079 1.390 . S
C2074 H2065 0.930 . S
C2074 C2072 1.384 . S
C2074 C2075 1.372 . S
C2075 C2074 1.372 . S
C2075 C2076 1.400 . S
C2075 C2080 1.490 . S
C2076 H2066 0.930 . S
C2076 C2075 1.400 . S
C2076 C2079 1.386 . S
H2077 C2093 0.930 . S
H2078 C2094 0.931 . S
C2079 H2067 0.929 . S
C2079 C2073 1.390 . S
C2079 C2076 1.386 . S
C2080 C2075 1.490 . S
C2080 C2082 1.395 . S
C2080 C2083 1.403 . S
H2081 C2087 0.930 . S
C2082 H2068 0.930 . S
C2082 C2080 1.395 . S
C2082 C2085 1.403 . S
C2083 C2080 1.403 . S
C2083 C2084 1.524 . S
C2083 C2087 1.400 . S
C2084 H2069 0.960 . S
C2084 H2070 0.960 . S
C2084 H2071 0.960 . S
C2084 C2083 1.524 . S
C2085 C2082 1.403 . S
C2085 C2086 1.392 . S
C2085 C2089 1.495 . S
C2086 C2085 1.392 . S
C2086 C2087 1.385 . S
C2086 C2088 1.478 . S
C2087 H2081 0.930 . S
C2087 C2083 1.400 . S
C2087 C2086 1.385 . S
C2088 C2086 1.478 . S
C2088 C2090 1.381 . S
C2088 C2094 1.383 . S
C2089 C2085 1.495 . S
C2089 H2095 0.959 . S
C2089 H2096 0.961 . S
C2089 H2097 0.960 . S
C2090 C2088 1.381 . S
C2090 C2091 1.394 . S
C2090 H2098 0.930 . S
C2091 C2090 1.394 . S
C2091 C2092 1.383 . S
C2091 H2099 0.929 . S
C2092 C2091 1.383 . S
C2092 C2093 1.377 . S
C2093 H2077 0.930 . S
C2093 C2092 1.377 . S
C2093 C2094 1.379 . S
C2094 H2078 0.931 . S
C2094 C2088 1.383 . S
C2094 C2093 1.379 . S
H2095 C2089 0.959 . S
H2096 C2089 0.961 . S
H2097 C2089 0.960 . S
H2098 C2090 0.930 . S
H2099 C2091 0.929 . S
H2100 C2108 0.929 . S
H2101 C2110 0.930 . S
H2102 C2112 0.930 . S
H2103 C2115 0.929 . S
H2104 C2118 0.930 . S
H2105 C2120 0.960 . S
H2106 C2120 0.960 . S
H2107 C2120 0.960 . S
C2108 H2100 0.929 . S
C2108 C2109 1.377 . S
C2108 C2110 1.384 . S
C2109 C2108 1.377 . S
C2109 C2115 1.390 . S
C2110 H2101 0.930 . S
C2110 C2108 1.384 . S
C2110 C2111 1.372 . S
C2111 C2110 1.372 . S
C2111 C2112 1.400 . S
C2111 C2116 1.490 . S
C2112 H2102 0.930 . S
C2112 C2111 1.400 . S
C2112 C2115 1.386 . S
H2113 C2129 0.930 . S
H2114 C2130 0.931 . S
C2115 H2103 0.929 . S
C2115 C2109 1.390 . S
C2115 C2112 1.386 . S
C2116 C2111 1.490 . S
C2116 C2118 1.395 . S
C2116 C2119 1.403 . S
H2117 C2123 0.930 . S
C2118 H2104 0.930 . S
C2118 C2116 1.395 . S
C2118 C2121 1.403 . S
C2119 C2116 1.403 . S
C2119 C2120 1.524 . S
C2119 C2123 1.400 . S
C2120 H2105 0.960 . S
C2120 H2106 0.960 . S
C2120 H2107 0.960 . S
C2120 C2119 1.524 . S
C2121 C2118 1.403 . S
C2121 C2122 1.392 . S
C2121 C2125 1.495 . S
C2122 C2121 1.392 . S
C2122 C2123 1.385 . S
C2122 C2124 1.478 . S
C2123 H2117 0.930 . S
C2123 C2119 1.400 . S
C2123 C2122 1.385 . S
C2124 C2122 1.478 . S
C2124 C2126 1.381 . S
C2124 C2130 1.383 . S
C2125 C2121 1.495 . S
C2125 H2131 0.959 . S
C2125 H2132 0.961 . S
C2125 H2133 0.960 . S
C2126 C2124 1.381 . S
C2126 C2127 1.394 . S
C2126 H2134 0.930 . S
C2127 C2126 1.394 . S
C2127 C2128 1.383 . S
C2127 H2135 0.929 . S
C2128 C2127 1.383 . S
C2128 C2129 1.377 . S
C2129 H2113 0.930 . S
C2129 C2128 1.377 . S
C2129 C2130 1.379 . S
C2130 H2114 0.931 . S
C2130 C2124 1.383 . S
C2130 C2129 1.379 . S
H2131 C2125 0.959 . S
H2132 C2125 0.961 . S
H2133 C2125 0.960 . S
H2134 C2126 0.930 . S
H2135 C2127 0.929 . S
H2136 C2144 0.929 . S
H2137 C2146 0.930 . S
H2138 C2148 0.930 . S
H2139 C2151 0.929 . S
H2140 C2154 0.930 . S
H2141 C2156 0.960 . S
H2142 C2156 0.960 . S
H2143 C2156 0.960 . S
C2144 H2136 0.929 . S
C2144 C2145 1.377 . S
C2144 C2146 1.384 . S
C2145 C2144 1.377 . S
C2145 C2151 1.390 . S
C2146 H2137 0.930 . S
C2146 C2144 1.384 . S
C2146 C2147 1.372 . S
C2147 C2146 1.372 . S
C2147 C2148 1.400 . S
C2147 C2152 1.490 . S
C2148 H2138 0.930 . S
C2148 C2147 1.400 . S
C2148 C2151 1.386 . S
H2149 C2165 0.930 . S
H2150 C2166 0.931 . S
C2151 H2139 0.929 . S
C2151 C2145 1.390 . S
C2151 C2148 1.386 . S
C2152 C2147 1.490 . S
C2152 C2154 1.395 . S
C2152 C2155 1.403 . S
H2153 C2159 0.930 . S
C2154 H2140 0.930 . S
C2154 C2152 1.395 . S
C2154 C2157 1.403 . S
C2155 C2152 1.403 . S
C2155 C2156 1.524 . S
C2155 C2159 1.400 . S
C2156 H2141 0.960 . S
C2156 H2142 0.960 . S
C2156 H2143 0.960 . S
C2156 C2155 1.524 . S
C2157 C2154 1.403 . S
C2157 C2158 1.392 . S
C2157 C2161 1.495 . S
C2158 C2157 1.392 . S
C2158 C2159 1.385 . S
C2158 C2160 1.478 . S
C2159 H2153 0.930 . S
C2159 C2155 1.400 . S
C2159 C2158 1.385 . S
C2160 C2158 1.478 . S
C2160 C2162 1.381 . S
C2160 C2166 1.383 . S
C2161 C2157 1.495 . S
C2161 H2167 0.959 . S
C2161 H2168 0.961 . S
C2161 H2169 0.960 . S
C2162 C2160 1.381 . S
C2162 C2163 1.394 . S
C2162 H2170 0.930 . S
C2163 C2162 1.394 . S
C2163 C2164 1.383 . S
C2163 H2171 0.929 . S
C2164 C2163 1.383 . S
C2164 C2165 1.377 . S
C2165 H2149 0.930 . S
C2165 C2164 1.377 . S
C2165 C2166 1.379 . S
C2166 H2150 0.931 . S
C2166 C2160 1.383 . S
C2166 C2165 1.379 . S
H2167 C2161 0.959 . S
H2168 C2161 0.961 . S
H2169 C2161 0.960 . S
H2170 C2162 0.930 . S
H2171 C2163 0.929 . S
H2172 C2180 0.929 . S
H2173 C2182 0.930 . S
H2174 C2184 0.930 . S
H2175 C2187 0.929 . S
H2176 C2190 0.930 . S
H2177 C2192 0.960 . S
H2178 C2192 0.960 . S
H2179 C2192 0.960 . S
C2180 H2172 0.929 . S
C2180 C2181 1.377 . S
C2180 C2182 1.384 . S
C2181 C2180 1.377 . S
C2181 C2187 1.390 . S
C2182 H2173 0.930 . S
C2182 C2180 1.384 . S
C2182 C2183 1.372 . S
C2183 C2182 1.372 . S
C2183 C2184 1.400 . S
C2183 C2188 1.490 . S
C2184 H2174 0.930 . S
C2184 C2183 1.400 . S
C2184 C2187 1.386 . S
H2185 C2201 0.930 . S
H2186 C2202 0.931 . S
C2187 H2175 0.929 . S
C2187 C2181 1.390 . S
C2187 C2184 1.386 . S
C2188 C2183 1.490 . S
C2188 C2190 1.395 . S
C2188 C2191 1.403 . S
H2189 C2195 0.930 . S
C2190 H2176 0.930 . S
C2190 C2188 1.395 . S
C2190 C2193 1.403 . S
C2191 C2188 1.403 . S
C2191 C2192 1.524 . S
C2191 C2195 1.400 . S
C2192 H2177 0.960 . S
C2192 H2178 0.960 . S
C2192 H2179 0.960 . S
C2192 C2191 1.524 . S
C2193 C2190 1.403 . S
C2193 C2194 1.392 . S
C2193 C2197 1.495 . S
C2194 C2193 1.392 . S
C2194 C2195 1.385 . S
C2194 C2196 1.478 . S
C2195 H2189 0.930 . S
C2195 C2191 1.400 . S
C2195 C2194 1.385 . S
C2196 C2194 1.478 . S
C2196 C2198 1.381 . S
C2196 C2202 1.383 . S
C2197 C2193 1.495 . S
C2197 H2203 0.959 . S
C2197 H2204 0.961 . S
C2197 H2205 0.960 . S
C2198 C2196 1.381 . S
C2198 C2199 1.394 . S
C2198 H2206 0.930 . S
C2199 C2198 1.394 . S
C2199 C2200 1.383 . S
C2199 H2207 0.929 . S
C2200 C2199 1.383 . S
C2200 C2201 1.377 . S
C2201 H2185 0.930 . S
C2201 C2200 1.377 . S
C2201 C2202 1.379 . S
C2202 H2186 0.931 . S
C2202 C2196 1.383 . S
C2202 C2201 1.379 . S
H2203 C2197 0.959 . S
H2204 C2197 0.961 . S
H2205 C2197 0.960 . S
H2206 C2198 0.930 . S
H2207 C2199 0.929 . S
H2208 C2216 0.929 . S
H2209 C2218 0.930 . S
H2210 C2220 0.930 . S
H2211 C2223 0.929 . S
H2212 C2226 0.930 . S
H2213 C2228 0.960 . S
H2214 C2228 0.960 . S
H2215 C2228 0.960 . S
C2216 H2208 0.929 . S
C2216 C2217 1.377 . S
C2216 C2218 1.384 . S
C2217 C2216 1.377 . S
C2217 C2223 1.390 . S
C2218 H2209 0.930 . S
C2218 C2216 1.384 . S
C2218 C2219 1.372 . S
C2219 C2218 1.372 . S
C2219 C2220 1.400 . S
C2219 C2224 1.490 . S
C2220 H2210 0.930 . S
C2220 C2219 1.400 . S
C2220 C2223 1.386 . S
H2221 C2237 0.930 . S
H2222 C2238 0.931 . S
C2223 H2211 0.929 . S
C2223 C2217 1.390 . S
C2223 C2220 1.386 . S
C2224 C2219 1.490 . S
C2224 C2226 1.395 . S
C2224 C2227 1.403 . S
H2225 C2231 0.930 . S
C2226 H2212 0.930 . S
C2226 C2224 1.395 . S
C2226 C2229 1.403 . S
C2227 C2224 1.403 . S
C2227 C2228 1.524 . S
C2227 C2231 1.400 . S
C2228 H2213 0.960 . S
C2228 H2214 0.960 . S
C2228 H2215 0.960 . S
C2228 C2227 1.524 . S
C2229 C2226 1.403 . S
C2229 C2230 1.392 . S
C2229 C2233 1.495 . S
C2230 C2229 1.392 . S
C2230 C2231 1.385 . S
C2230 C2232 1.478 . S
C2231 H2225 0.930 . S
C2231 C2227 1.400 . S
C2231 C2230 1.385 . S
C2232 C2230 1.478 . S
C2232 C2234 1.381 . S
C2232 C2238 1.383 . S
C2233 C2229 1.495 . S
C2233 H2239 0.959 . S
C2233 H2240 0.961 . S
C2233 H2241 0.960 . S
C2234 C2232 1.381 . S
C2234 C2235 1.394 . S
C2234 H2242 0.930 . S
C2235 C2234 1.394 . S
C2235 C2236 1.383 . S
C2235 H2243 0.929 . S
C2236 C2235 1.383 . S
C2236 C2237 1.377 . S
C2237 H2221 0.930 . S
C2237 C2236 1.377 . S
C2237 C2238 1.379 . S
C2238 H2222 0.931 . S
C2238 C2232 1.383 . S
C2238 C2237 1.379 . S
H2239 C2233 0.959 . S
H2240 C2233 0.961 . S
H2241 C2233 0.960 . S
H2242 C2234 0.930 . S
H2243 C2235 0.929 . S
H2244 C2252 0.929 . S
H2245 C2254 0.930 . S
H2246 C2256 0.930 . S
H2247 C2259 0.929 . S
H2248 C2262 0.930 . S
H2249 C2264 0.960 . S
H2250 C2264 0.960 . S
H2251 C2264 0.960 . S
C2252 H2244 0.929 . S
C2252 C2253 1.377 . S
C2252 C2254 1.384 . S
C2253 C2252 1.377 . S
C2253 C2259 1.390 . S
C2254 H2245 0.930 . S
C2254 C2252 1.384 . S
C2254 C2255 1.372 . S
C2255 C2254 1.372 . S
C2255 C2256 1.400 . S
C2255 C2260 1.490 . S
C2256 H2246 0.930 . S
C2256 C2255 1.400 . S
C2256 C2259 1.386 . S
H2257 C2273 0.930 . S
H2258 C2274 0.931 . S
C2259 H2247 0.929 . S
C2259 C2253 1.390 . S
C2259 C2256 1.386 . S
C2260 C2255 1.490 . S
C2260 C2262 1.395 . S
C2260 C2263 1.403 . S
H2261 C2267 0.930 . S
C2262 H2248 0.930 . S
C2262 C2260 1.395 . S
C2262 C2265 1.403 . S
C2263 C2260 1.403 . S
C2263 C2264 1.524 . S
C2263 C2267 1.400 . S
C2264 H2249 0.960 . S
C2264 H2250 0.960 . S
C2264 H2251 0.960 . S
C2264 C2263 1.524 . S
C2265 C2262 1.403 . S
C2265 C2266 1.392 . S
C2265 C2269 1.495 . S
C2266 C2265 1.392 . S
C2266 C2267 1.385 . S
C2266 C2268 1.478 . S
C2267 H2261 0.930 . S
C2267 C2263 1.400 . S
C2267 C2266 1.385 . S
C2268 C2266 1.478 . S
C2268 C2270 1.381 . S
C2268 C2274 1.383 . S
C2269 C2265 1.495 . S
C2269 H2275 0.959 . S
C2269 H2276 0.961 . S
C2269 H2277 0.960 . S
C2270 C2268 1.381 . S
C2270 C2271 1.394 . S
C2270 H2278 0.930 . S
C2271 C2270 1.394 . S
C2271 C2272 1.383 . S
C2271 H2279 0.929 . S
C2272 C2271 1.383 . S
C2272 C2273 1.377 . S
C2273 H2257 0.930 . S
C2273 C2272 1.377 . S
C2273 C2274 1.379 . S
C2274 H2258 0.931 . S
C2274 C2268 1.383 . S
C2274 C2273 1.379 . S
H2275 C2269 0.959 . S
H2276 C2269 0.961 . S
H2277 C2269 0.960 . S
H2278 C2270 0.930 . S
H2279 C2271 0.929 . S
C561 N518 1.146 . S
C580 N12 1.181 . S
C597 C39 1.653 . S
C616 C536 1.657 . S
C633 N472 1.174 . S
C652 N58 1.193 . S
C669 C490 1.753 . S
C688 C76 1.754 . S
C705 C499 1.593 . S
C724 N104 1.561 . S
C741 N117 1.258 . S
C760 N508 1.264 . S
C777 C545 1.484 . S
C796 N150 1.445 . S
C813 C177 1.298 . S
C832 N462 1.259 . S
C849 C191 1.293 . S
C868 N439 1.260 . S
C885 C384 1.804 . S
C904 C223 1.801 . S
C921 N232 1.135 . S
C940 N393 1.140 . S
C957 N426 1.565 . S
C976 C269 1.609 . S
C993 C260 1.617 . S
C1012 N301 1.609 . S
C1029 C200 1.421 . S
C1048 N334 1.389 . S
C1065 C361 1.647 . S
C1084 C214 1.643 . S
C1101 N242 1.172 . S
C1120 N288 1.183 . S
C1137 C30 1.606 . S
C1156 N416 1.593 . S
C1173 N324 1.482 . S
C1192 C168 1.510 . S
C1209 N94 1.533 . S
C1228 C352 1.547 . S
C1245 N278 1.304 . S
C1264 N127 1.271 . S
C1281 N140 1.388 . S
C1300 N311 1.335 . S
C1317 C85 1.837 . S
C1336 C375 1.836 . S
C1353 N2 1.152 . S
C1372 N403 1.144 . S
C1389 N48 1.262 . S
C1408 N449 1.212 . S
C1425 C145 1.986 . S
C1444 C467 1.986 . S
C1461 N495 1.395 . S
C1480 N163 1.361 . S
C1497 C513 1.894 . S
C1516 C99 1.890 . S
C1533 N541 1.306 . S
C1552 C131 1.348 . S
C1569 C53 1.481 . S
C1588 N531 1.467 . S
C1605 N81 1.782 . S
C1624 C476 1.791 . S
C1641 C7 1.602 . S
C1660 N485 1.576 . S
C1677 C522 1.613 . S
C1696 N25 1.598 . S
C1713 C246 1.733 . S
C1732 C315 1.734 . S
C1749 N255 1.340 . S
C1768 C329 1.387 . S
C1785 N196 1.722 . S
C1804 N347 1.687 . S
C1821 N209 1.360 . S
C1840 C283 1.408 . S
C1857 N219 1.562 . S
C1876 C453 1.574 . S
C1893 N370 1.583 . S
C1912 C237 1.633 . S
C1929 N265 1.346 . S
C1948 C407 1.373 . S
C1965 N186 1.683 . S
C1984 C421 1.731 . S
C2001 C292 1.265 . S
C2020 N173 1.221 . S
C2037 N380 1.510 . S
C2056 N35 1.502 . S
C2073 C62 1.478 . S
C2092 C398 1.482 . S
C2109 C430 1.753 . S
C2128 N71 1.710 . S
C2145 C444 1.635 . S
C2164 C16 1.617 . S
C2181 C122 1.343 . S
C2200 C338 1.344 . S
C2217 N357 1.877 . S
C2236 C154 1.882 . S
C2253 C306 1.962 . S
C2272 C108 1.954 . S
