# Generated by pormake.
# Topology npo, (4)-cn, num edge types: 1
# Building blocks:
#     Node 0, Type 0, BuildingBlock: KUFVIS_clean_sbu_0, # of connection points: 4
#     Node 1, Type 0, BuildingBlock: KUFVIS_clean_sbu_0, # of connection points: 4
#     Node 2, Type 0, BuildingBlock: KUFVIS_clean_sbu_0, # of connection points: 4
#     Node 3, Type 0, BuildingBlock: KUFVIS_clean_sbu_0, # of connection points: 4
#     Node 4, Type 0, BuildingBlock: KUFVIS_clean_sbu_0, # of connection points: 4
#     Node 5, Type 0, BuildingBlock: KUFVIS_clean_sbu_0, # of connection points: 4
#     Edge 6, Type (0, 0), BuildingBlock: FUNLAD_clean_linker_0, # of connection points: 2
#     Edge 7, Type (0, 0), BuildingBlock: FUNLAD_clean_linker_0, # of connection points: 2
#     Edge 8, Type (0, 0), BuildingBlock: FUNLAD_clean_linker_0, # of connection points: 2
#     Edge 9, Type (0, 0), BuildingBlock: FUNLAD_clean_linker_0, # of connection points: 2
#     Edge 10, Type (0, 0), BuildingBlock: FUNLAD_clean_linker_0, # of connection points: 2
#     Edge 11, Type (0, 0), BuildingBlock: FUNLAD_clean_linker_0, # of connection points: 2
#     Edge 12, Type (0, 0), BuildingBlock: FUNLAD_clean_linker_0, # of connection points: 2
#     Edge 13, Type (0, 0), BuildingBlock: FUNLAD_clean_linker_0, # of connection points: 2
#     Edge 14, Type (0, 0), BuildingBlock: FUNLAD_clean_linker_0, # of connection points: 2
#     Edge 15, Type (0, 0), BuildingBlock: FUNLAD_clean_linker_0, # of connection points: 2
#     Edge 16, Type (0, 0), BuildingBlock: FUNLAD_clean_linker_0, # of connection points: 2
#     Edge 17, Type (0, 0), BuildingBlock: FUNLAD_clean_linker_0, # of connection points: 2
# Relax obj value: 0.273
# Max RMSD: 0.236
# Mean RMSD: 0.233
data_MOF--net-npo--node1-KUFVIS_clean_sbu_0--edge1-FUNLAD_clean_linker_0
_symmetry_space_group_name_H-M    P1
_symmetry_Int_Tables_number       1
_symmetry_cell_setting            triclinic
loop_
_symmetry_equiv_pos_as_xyz
'x, y, z'
_cell_length_a     49.338062
_cell_length_b     52.051094
_cell_length_c     27.83828
_cell_angle_alpha  89.904334
_cell_angle_beta   91.395519
_cell_angle_gamma 122.05249
loop_
_atom_site_label
_atom_site_type_symbol
_atom_site_fract_x
_atom_site_fract_y
_atom_site_fract_z
_atom_type_partial_charge
Mn0 Mn 0.55437 0.11919 0.27667 0.0
Mn1 Mn 0.61247 0.10603 0.25023 0.0
C2 C 0.60728 0.15501 0.29487 0.0
C3 C 0.52265 0.13885 0.2569 0.0
C4 C 0.56999 0.07858 0.33574 0.0
O5 O 0.53187 0.08451 0.22772 0.0
O6 O 0.57268 0.07812 0.21246 0.0
C7 C 0.62161 0.12623 0.14919 0.0
N8 N 0.63384 0.12855 0.19449 0.0
C9 C 0.68619 0.16842 0.17101 0.0
C10 C 0.67419 0.1663 0.12404 0.0
C11 C 0.64175 0.14513 0.11311 0.0
C12 C 0.66504 0.14881 0.20538 0.0
H13 H 0.59665 0.11013 0.14067 0.0
C14 C 0.54377 0.07131 0.20585 0.0
O15 O 0.51414 0.11829 0.28961 0.0
O16 O 0.54837 0.14643 0.23398 0.0
N17 N 0.65238 0.13186 0.28385 0.0
C18 C 0.65979 0.13214 0.33141 0.0
C19 C 0.69114 0.15263 0.34854 0.0
C20 C 0.71456 0.17249 0.3166 0.0
C21 C 0.70646 0.17156 0.26774 0.0
C22 C 0.6749 0.15044 0.25265 0.0
H23 H 0.64185 0.11703 0.35616 0.0
O24 O 0.58471 0.15499 0.31781 0.0
O25 O 0.59822 0.13401 0.26223 0.0
O26 O 0.5533 0.09041 0.32811 0.0
O27 O 0.59245 0.08271 0.30862 0.0
C28 C 0.72828 0.1912 0.23361 0.0
C29 C 0.71814 0.18966 0.18529 0.0
H30 H 0.68959 0.181 0.09619 0.0
H31 H 0.63227 0.14347 0.077 0.0
H32 H 0.6972 0.15324 0.38631 0.0
H33 H 0.73862 0.18851 0.33005 0.0
H34 H 0.75279 0.20789 0.24427 0.0
H35 H 0.73502 0.20517 0.15954 0.0
Mn36 Mn 0.43662 0.5628 0.72665 0.0
Mn37 Mn 0.38148 0.48933 0.74866 0.0
C38 C 0.38267 0.54408 0.71583 0.0
C39 C 0.46828 0.61399 0.74849 0.0
C40 C 0.42084 0.50965 0.65928 0.0
O41 O 0.46181 0.55029 0.76932 0.0
O42 O 0.42294 0.50143 0.78123 0.0
C43 C 0.37578 0.49502 0.85325 0.0
N44 N 0.36197 0.48687 0.80841 0.0
C45 C 0.31017 0.47073 0.83914 0.0
C46 C 0.32382 0.47879 0.88566 0.0
C47 C 0.35677 0.49103 0.89271 0.0
C48 C 0.33027 0.47504 0.80123 0.0
H49 H 0.40112 0.50457 0.85887 0.0
C50 C 0.45153 0.52429 0.78787 0.0
O51 O 0.47528 0.60297 0.71245 0.0
O52 O 0.444 0.5949 0.77359 0.0
N53 N 0.34016 0.47513 0.7199 0.0
C54 C 0.33103 0.47001 0.67253 0.0
C55 C 0.29891 0.4585 0.65922 0.0
C56 C 0.27651 0.45226 0.6947 0.0
C57 C 0.28642 0.45746 0.74322 0.0
C58 C 0.31869 0.46869 0.75437 0.0
H59 H 0.34815 0.47489 0.64508 0.0
O60 O 0.40354 0.56781 0.69262 0.0
O61 O 0.39393 0.53176 0.74379 0.0
O62 O 0.4369 0.53777 0.67042 0.0
O63 O 0.39944 0.48943 0.68592 0.0
C64 C 0.26567 0.4525 0.78089 0.0
C65 C 0.27754 0.45915 0.8288 0.0
H66 H 0.30929 0.47593 0.91616 0.0
H67 H 0.36751 0.49744 0.92848 0.0
H68 H 0.29146 0.4546 0.62168 0.0
H69 H 0.25183 0.44371 0.68425 0.0
H70 H 0.24062 0.44397 0.77334 0.0
H71 H 0.26144 0.45562 0.85738 0.0
Mn72 Mn 0.87054 0.45603 0.24401 0.0
Mn73 Mn 0.90834 0.42143 0.2837 0.0
C74 C 0.84497 0.40403 0.23986 0.0
C75 C 0.83909 0.47625 0.25528 0.0
C76 C 0.92131 0.45302 0.18807 0.0
O77 O 0.90658 0.48843 0.28621 0.0
O78 O 0.929 0.46275 0.31305 0.0
C79 C 0.89189 0.41592 0.38641 0.0
N80 N 0.89142 0.4027 0.34394 0.0
C81 C 0.86337 0.35308 0.37887 0.0
C82 C 0.86377 0.36621 0.42303 0.0
C83 C 0.87806 0.39776 0.42678 0.0
C84 C 0.87778 0.37235 0.33996 0.0
H85 H 0.90264 0.44013 0.38947 0.0
C86 C 0.92677 0.48621 0.31247 0.0
O87 O 0.85873 0.48478 0.22013 0.0
O88 O 0.83849 0.45667 0.28494 0.0
N89 N 0.89003 0.38103 0.25903 0.0
C90 C 0.88993 0.37173 0.21324 0.0
C91 C 0.8756 0.34067 0.20308 0.0
C92 C 0.86162 0.31951 0.24006 0.0
C93 C 0.86225 0.32963 0.28695 0.0
C94 C 0.87716 0.36089 0.29504 0.0
H95 H 0.90046 0.38783 0.18458 0.0
O96 O 0.83586 0.41816 0.2118 0.0
O97 O 0.86874 0.42074 0.26959 0.0
O98 O 0.90121 0.46104 0.19227 0.0
O99 O 0.92682 0.43903 0.22079 0.0
C100 C 0.84806 0.30986 0.32577 0.0
C101 C 0.84861 0.32158 0.37169 0.0
H102 H 0.85291 0.35226 0.45417 0.0
H103 H 0.87831 0.40804 0.46068 0.0
H104 H 0.87515 0.33304 0.16677 0.0
H105 H 0.85027 0.29555 0.23196 0.0
H106 H 0.83626 0.28558 0.32055 0.0
H107 H 0.83723 0.30612 0.40109 0.0
Mn108 Mn 0.46703 0.87932 0.76151 0.0
Mn109 Mn 0.41832 0.90558 0.73988 0.0
C110 C 0.41238 0.84823 0.76908 0.0
C111 C 0.49273 0.85447 0.73928 0.0
C112 C 0.45868 0.92032 0.83093 0.0
O113 O 0.49507 0.91682 0.72149 0.0
O114 O 0.46045 0.93243 0.71047 0.0
C115 C 0.41056 0.89551 0.63444 0.0
N116 N 0.39739 0.89043 0.67855 0.0
C117 C 0.34434 0.85833 0.6443 0.0
C118 C 0.35733 0.86337 0.5985 0.0
C119 C 0.39059 0.88201 0.59358 0.0
C120 C 0.3654 0.87253 0.68369 0.0
H121 H 0.43612 0.90968 0.63046 0.0
C122 C 0.48758 0.9352 0.70457 0.0
O123 O 0.50252 0.87262 0.77633 0.0
O124 O 0.46945 0.85243 0.71329 0.0
N125 N 0.37661 0.88112 0.76584 0.0
C126 C 0.36801 0.87757 0.81268 0.0
C127 C 0.33557 0.8591 0.82387 0.0
C128 C 0.31234 0.84459 0.78683 0.0
C129 C 0.32175 0.84882 0.73889 0.0
C130 C 0.35439 0.86775 0.72989 0.0
H131 H 0.38577 0.88856 0.84131 0.0
O132 O 0.43149 0.84244 0.7927 0.0
O133 O 0.42582 0.8723 0.74293 0.0
O134 O 0.47177 0.9058 0.81917 0.0
O135 O 0.43808 0.92163 0.80415 0.0
C136 C 0.30007 0.83461 0.69974 0.0
C137 C 0.31136 0.83933 0.65248 0.0
H138 H 0.34204 0.85285 0.56691 0.0
H139 H 0.40082 0.88589 0.55837 0.0
H140 H 0.32851 0.85593 0.86096 0.0
H141 H 0.28738 0.83008 0.79563 0.0
H142 H 0.27471 0.81971 0.70562 0.0
H143 H 0.29451 0.828 0.62273 0.0
Mn144 Mn 0.52119 0.40797 0.23731 0.0
Mn145 Mn 0.56337 0.48337 0.26004 0.0
C146 C 0.57616 0.4362 0.23128 0.0
C147 C 0.50014 0.35791 0.26089 0.0
C148 C 0.52548 0.45562 0.16737 0.0
O149 O 0.48993 0.41338 0.27593 0.0
O150 O 0.52039 0.46408 0.28839 0.0
C151 C 0.57058 0.48139 0.36569 0.0
N152 N 0.58403 0.49074 0.32194 0.0
C153 C 0.6371 0.516 0.35762 0.0
C154 C 0.62379 0.50679 0.40307 0.0
C155 C 0.59039 0.48939 0.40709 0.0
C156 C 0.61616 0.50754 0.31767 0.0
H157 H 0.54493 0.46785 0.369 0.0
C158 C 0.49457 0.43816 0.29341 0.0
O159 O 0.48902 0.36424 0.22294 0.0
O160 O 0.52184 0.38068 0.28658 0.0
N161 N 0.60562 0.5044 0.23523 0.0
C162 C 0.61467 0.51026 0.18862 0.0
C163 C 0.64735 0.52688 0.17832 0.0
C164 C 0.67037 0.53736 0.21597 0.0
C165 C 0.66049 0.53129 0.26365 0.0
C166 C 0.62759 0.51491 0.27177 0.0
H167 H 0.59709 0.5021 0.15951 0.0
O168 O 0.55922 0.41083 0.2076 0.0
O169 O 0.56041 0.44449 0.25682 0.0
O170 O 0.51452 0.42808 0.17863 0.0
O171 O 0.54383 0.47803 0.19524 0.0
C172 C 0.682 0.54039 0.30338 0.0
C173 C 0.67031 0.53274 0.35033 0.0
H174 H 0.63899 0.51273 0.43506 0.0
H175 H 0.57994 0.48206 0.44202 0.0
H176 H 0.65478 0.53143 0.14142 0.0
H177 H 0.69556 0.54987 0.20785 0.0
H178 H 0.70758 0.55297 0.29819 0.0
H179 H 0.68708 0.53954 0.38054 0.0
Mn180 Mn 0.11413 0.57007 0.75107 0.0
Mn181 Mn 0.07268 0.4978 0.70979 0.0
C182 C 0.13766 0.54194 0.75096 0.0
C183 C 0.1473 0.62192 0.74114 0.0
C184 C 0.06311 0.51649 0.8076 0.0
O185 O 0.078 0.56822 0.7117 0.0
O186 O 0.05306 0.52006 0.68347 0.0
C187 C 0.08684 0.50914 0.60639 0.0
N188 N 0.0878 0.49587 0.6481 0.0
C189 C 0.1138 0.47353 0.60975 0.0
C190 C 0.11289 0.48679 0.56635 0.0
C191 C 0.09937 0.50469 0.56469 0.0
C192 C 0.10065 0.47851 0.65005 0.0
H193 H 0.07669 0.5231 0.60492 0.0
C194 C 0.05664 0.54633 0.68559 0.0
O195 O 0.12821 0.61081 0.77696 0.0
O196 O 0.14622 0.60284 0.70991 0.0
N197 N 0.09005 0.4744 0.73167 0.0
C198 C 0.09082 0.46472 0.77691 0.0
C199 C 0.10456 0.44734 0.78501 0.0
C200 C 0.11729 0.44003 0.74656 0.0
C201 C 0.11605 0.45008 0.70027 0.0
C202 C 0.10177 0.46708 0.69427 0.0
H203 H 0.0813 0.47043 0.8067 0.0
O204 O 0.14828 0.56501 0.78001 0.0
O205 O 0.11351 0.53598 0.72291 0.0
O206 O 0.08417 0.54448 0.8036 0.0
O207 O 0.05585 0.49697 0.77413 0.0
C208 C 0.129 0.44441 0.66006 0.0
C209 C 0.12788 0.45613 0.61483 0.0
H210 H 0.12277 0.48362 0.53419 0.0
H211 H 0.09873 0.51513 0.53138 0.0
H212 H 0.10551 0.43974 0.82087 0.0
H213 H 0.12818 0.4269 0.75306 0.0
H214 H 0.14026 0.4314 0.66364 0.0
H215 H 0.13828 0.45194 0.58432 0.0
C216 C 0.52241 0.18351 0.22519 0.0
C217 C 0.50687 0.15622 0.25068 0.0
C218 C 0.51109 0.20301 0.22586 0.0
C219 C 0.48366 0.19545 0.25131 0.0
C220 C 0.46671 0.16728 0.27399 0.0
C221 C 0.47845 0.14791 0.2742 0.0
C222 C 0.47423 0.21798 0.25649 0.0
C223 C 0.49572 0.24596 0.27363 0.0
C224 C 0.49049 0.2715 0.27587 0.0
C225 C 0.50882 0.29494 0.30934 0.0
C226 C 0.50973 0.32217 0.30685 0.0
C227 C 0.49277 0.32681 0.27016 0.0
H228 H 0.45738 0.25761 0.21466 0.0
C229 C 0.47267 0.30262 0.23852 0.0
C230 C 0.47145 0.2751 0.24141 0.0
H231 H 0.45935 0.30551 0.20979 0.0
H232 H 0.5443 0.19063 0.20662 0.0
H233 H 0.52429 0.22447 0.20752 0.0
H234 H 0.44539 0.16098 0.2936 0.0
H235 H 0.46594 0.12701 0.29407 0.0
H236 H 0.44983 0.21143 0.2474 0.0
H237 H 0.51897 0.25065 0.28638 0.0
H238 H 0.5237 0.29274 0.33622 0.0
H239 H 0.52538 0.34024 0.33192 0.0
C240 C 0.3308 0.53501 0.68233 0.0
C241 C 0.35046 0.53824 0.72196 0.0
C242 C 0.30044 0.53017 0.68933 0.0
C243 C 0.28968 0.52907 0.73623 0.0
C244 C 0.31002 0.5333 0.77555 0.0
C245 C 0.34012 0.53794 0.76849 0.0
C246 C 0.25872 0.52605 0.74611 0.0
C247 C 0.23393 0.51527 0.71438 0.0
C248 C 0.20574 0.51736 0.7239 0.0
C249 C 0.19147 0.52395 0.68566 0.0
C250 C 0.1682 0.53074 0.69439 0.0
C251 C 0.15811 0.53008 0.7413 0.0
H252 H 0.20439 0.50947 0.8008 0.0
C253 C 0.17123 0.52214 0.77934 0.0
C254 C 0.19458 0.51541 0.77068 0.0
H255 H 0.16387 0.52176 0.81583 0.0
H256 H 0.33883 0.53599 0.64612 0.0
H257 H 0.28604 0.52815 0.65798 0.0
H258 H 0.30264 0.5331 0.81197 0.0
H259 H 0.35545 0.54143 0.79954 0.0
H260 H 0.25692 0.53429 0.78098 0.0
H261 H 0.23542 0.50741 0.67904 0.0
H262 H 0.19957 0.52551 0.64933 0.0
H263 H 0.159 0.53769 0.66472 0.0
C264 C 0.65265 0.1972 0.25286 0.0
C265 C 0.63946 0.18234 0.29595 0.0
C266 C 0.68243 0.22416 0.25306 0.0
C267 C 0.69943 0.23697 0.29664 0.0
C268 C 0.68567 0.22248 0.33992 0.0
C269 C 0.65578 0.19538 0.33962 0.0
C270 C 0.72985 0.26686 0.29816 0.0
C271 C 0.75004 0.27746 0.26124 0.0
C272 C 0.77696 0.30948 0.25772 0.0
C273 C 0.78865 0.32094 0.21199 0.0
C274 C 0.81151 0.35168 0.2061 0.0
C275 C 0.82364 0.37128 0.24606 0.0
H276 H 0.78232 0.32139 0.33391 0.0
C277 C 0.81254 0.3599 0.29184 0.0
C278 C 0.7898 0.32922 0.29784 0.0
H279 H 0.82105 0.37491 0.32298 0.0
H280 H 0.63966 0.18816 0.21896 0.0
H281 H 0.69144 0.23531 0.21916 0.0
H282 H 0.69796 0.23228 0.37401 0.0
H283 H 0.64546 0.18459 0.37333 0.0
H284 H 0.73447 0.28081 0.32985 0.0
H285 H 0.74519 0.26278 0.23032 0.0
H286 H 0.77925 0.30629 0.18046 0.0
H287 H 0.81947 0.36022 0.17037 0.0
C288 C 0.52142 0.82923 0.76786 0.0
C289 C 0.5038 0.83337 0.73155 0.0
C290 C 0.52623 0.80508 0.76511 0.0
C291 C 0.51363 0.78469 0.72582 0.0
C292 C 0.49833 0.79034 0.6878 0.0
C293 C 0.4932 0.81426 0.69078 0.0
C294 C 0.5142 0.75639 0.72445 0.0
C295 C 0.51231 0.74081 0.76435 0.0
C296 C 0.50532 0.70926 0.76271 0.0
C297 C 0.48734 0.68931 0.79943 0.0
C298 C 0.47666 0.65853 0.79615 0.0
C299 C 0.48423 0.64712 0.75641 0.0
H300 H 0.52936 0.71314 0.6963 0.0
C301 C 0.50423 0.66748 0.72142 0.0
C302 C 0.51464 0.69824 0.72445 0.0
H303 H 0.51068 0.65945 0.69049 0.0
H304 H 0.53008 0.84368 0.79963 0.0
H305 H 0.53909 0.80202 0.79433 0.0
H306 H 0.48875 0.77522 0.65681 0.0
H307 H 0.47972 0.81694 0.66207 0.0
H308 H 0.51171 0.74613 0.68938 0.0
H309 H 0.5116 0.74973 0.79923 0.0
H310 H 0.48014 0.69725 0.82961 0.0
H311 H 0.46146 0.64348 0.82386 0.0
C312 C 0.63146 0.45514 0.20421 0.0
C313 C 0.61014 0.44832 0.24141 0.0
C314 C 0.6634 0.46498 0.21491 0.0
C315 C 0.67412 0.46739 0.26305 0.0
C316 C 0.65246 0.45998 0.29998 0.0
C317 C 0.62077 0.45056 0.28928 0.0
C318 C 0.70649 0.47394 0.27573 0.0
C319 C 0.73222 0.4914 0.249 0.0
C320 C 0.76293 0.49271 0.2557 0.0
C321 C 0.7837 0.50216 0.21699 0.0
C322 C 0.80989 0.4987 0.21812 0.0
C323 C 0.81573 0.4856 0.25803 0.0
H324 H 0.75647 0.47626 0.32925 0.0
C325 C 0.79667 0.47855 0.29841 0.0
C326 C 0.77072 0.48237 0.29754 0.0
H327 H 0.80109 0.46904 0.33008 0.0
H328 H 0.62337 0.45279 0.16703 0.0
H329 H 0.6792 0.46944 0.18549 0.0
H330 H 0.65998 0.46111 0.33723 0.0
H331 H 0.60435 0.44447 0.31845 0.0
H332 H 0.70829 0.46254 0.30712 0.0
H333 H 0.72979 0.50294 0.21817 0.0
H334 H 0.77866 0.51066 0.18461 0.0
H335 H 0.82438 0.50462 0.18657 0.0
C336 C 0.35825 0.80864 0.79693 0.0
C337 C 0.37912 0.82389 0.75947 0.0
C338 C 0.32676 0.78512 0.78654 0.0
C339 C 0.31618 0.77616 0.73854 0.0
C340 C 0.33758 0.79084 0.70141 0.0
C341 C 0.36874 0.81459 0.71177 0.0
C342 C 0.28398 0.74988 0.72621 0.0
C343 C 0.25797 0.74251 0.75148 0.0
C344 C 0.22675 0.71356 0.74401 0.0
C345 C 0.20544 0.70245 0.78205 0.0
C346 C 0.17829 0.6732 0.77983 0.0
C347 C 0.17198 0.6545 0.73943 0.0
H348 H 0.23351 0.70398 0.67053 0.0
C349 C 0.19175 0.66645 0.69972 0.0
C350 C 0.21873 0.69581 0.70174 0.0
H351 H 0.18707 0.65273 0.66772 0.0
H352 H 0.36619 0.81512 0.834 0.0
H353 H 0.31109 0.77347 0.81605 0.0
H354 H 0.33014 0.78397 0.66428 0.0
H355 H 0.38488 0.82559 0.68243 0.0
H356 H 0.28233 0.73602 0.69592 0.0
H357 H 0.26032 0.75703 0.78137 0.0
H358 H 0.21068 0.71577 0.8147 0.0
H359 H 0.16329 0.6647 0.81089 0.0
C360 C 0.45197 0.95018 0.89551 0.0
C361 C 0.4678 0.93631 0.87818 0.0
C362 C 0.46087 0.96536 0.94003 0.0
C363 C 0.48583 0.96696 0.96818 0.0
C364 C 0.50157 0.95312 0.95075 0.0
C365 C 0.49263 0.93789 0.90651 0.0
C366 C 0.49747 0.98388 0.01467 0.0
C367 C 0.48081 0.99185 0.04201 0.0
C368 C 0.49443 0.00959 0.08757 0.0
C369 C 0.48465 0.02911 0.10277 0.0
C370 C 0.49947 0.04825 0.14289 0.0
C371 C 0.52431 0.04811 0.16845 0.0
H372 H 0.52466 0.99209 0.10658 0.0
C373 C 0.53255 0.02715 0.15508 0.0
C374 C 0.51761 0.00792 0.11547 0.0
H375 H 0.55109 0.02599 0.17472 0.0
H376 H 0.43276 0.94945 0.87462 0.0
H377 H 0.44858 0.97628 0.95147 0.0
H378 H 0.521 0.95411 0.97147 0.0
H379 H 0.50544 0.92757 0.89443 0.0
H380 H 0.52135 0.99014 0.02662 0.0
H381 H 0.45723 0.98648 0.03018 0.0
H382 H 0.46645 0.03045 0.08244 0.0
H383 H 0.49252 0.06409 0.15243 0.0
C384 C 0.4692 0.46309 0.3317 0.0
C385 C 0.47112 0.43729 0.32637 0.0
C386 C 0.45374 0.46598 0.37067 0.0
C387 C 0.44043 0.44335 0.40575 0.0
C388 C 0.43958 0.41626 0.39788 0.0
C389 C 0.45483 0.41322 0.35844 0.0
C390 C 0.42957 0.44843 0.4522 0.0
C391 C 0.44401 0.47625 0.47287 0.0
C392 C 0.43711 0.48336 0.52119 0.0
C393 C 0.45719 0.51299 0.53938 0.0
C394 C 0.45211 0.52135 0.58424 0.0
C395 C 0.42673 0.50024 0.61236 0.0
H396 H 0.39526 0.43913 0.53673 0.0
C397 C 0.40659 0.47047 0.59443 0.0
C398 C 0.41162 0.4621 0.54927 0.0
H399 H 0.38663 0.45366 0.61496 0.0
H400 H 0.48107 0.48177 0.307 0.0
H401 H 0.45343 0.48653 0.37419 0.0
H402 H 0.42896 0.39824 0.42391 0.0
H403 H 0.45596 0.39307 0.35521 0.0
H404 H 0.41171 0.42863 0.47118 0.0
H405 H 0.46349 0.49518 0.45428 0.0
H406 H 0.47702 0.52993 0.51873 0.0
H407 H 0.46814 0.54448 0.59674 0.0
C408 C 0.0184 0.47916 0.85947 0.0
C409 C 0.04824 0.50619 0.85483 0.0
C410 C 0.00487 0.46998 0.90472 0.0
C411 C 0.02128 0.48747 0.94604 0.0
C412 C 0.05148 0.51385 0.94146 0.0
C413 C 0.06466 0.52332 0.89635 0.0
C414 C 0.00749 0.47924 0.99437 0.0
C415 C 0.97625 0.46754 0.0014 0.0
C416 C 0.96312 0.46399 0.04993 0.0
C417 C 0.93755 0.4681 0.05572 0.0
C418 C 0.92475 0.46546 0.10085 0.0
C419 C 0.93685 0.45803 0.14123 0.0
H420 H 0.99477 0.45273 0.08664 0.0
C421 C 0.96231 0.45357 0.13538 0.0
C422 C 0.97544 0.45665 0.09016 0.0
H423 H 0.97194 0.4475 0.16562 0.0
H424 H 0.00539 0.46536 0.82816 0.0
H425 H 0.98177 0.44915 0.90738 0.0
H426 H 0.06464 0.52757 0.97279 0.0
H427 H 0.08798 0.54398 0.89413 0.0
H428 H 0.02401 0.48633 0.02512 0.0
H429 H 0.96037 0.4635 0.97069 0.0
H430 H 0.92759 0.47366 0.02525 0.0
H431 H 0.90488 0.46867 0.10378 0.0
C432 C 0.54678 0.06182 0.41734 0.0
C433 C 0.56426 0.06031 0.37952 0.0
C434 C 0.54297 0.04596 0.45973 0.0
C435 C 0.55648 0.02811 0.46519 0.0
C436 C 0.57316 0.02591 0.42699 0.0
C437 C 0.57734 0.04208 0.38479 0.0
C438 C 0.55182 0.01022 0.50922 0.0
C439 C 0.54945 0.01974 0.55299 0.0
C440 C 0.53897 1.0002 0.59608 0.0
C441 C 0.52341 0.00623 0.63173 0.0
C442 C 0.5086 0.98602 0.66913 0.0
C443 C 0.50955 0.95957 0.67225 0.0
H444 H 0.55489 0.9701 0.57536 0.0
C445 C 0.52755 0.95481 0.63917 0.0
C446 C 0.54209 0.97493 0.6012 0.0
H447 H 0.52867 0.93459 0.6408 0.0
H448 H 0.53634 0.07558 0.41451 0.0
H449 H 0.52896 0.04733 0.48778 0.0
H450 H 0.58334 0.01193 0.43001 0.0
H451 H 0.59081 0.04026 0.35628 0.0
H452 H 0.5494 0.98838 0.50475 0.0
H453 H 0.55242 0.04189 0.55661 0.0
H454 H 0.52103 0.02572 0.62914 0.0
H455 H 0.4951 0.99037 0.69441 0.0
C456 C 0.46498 0.49124 0.83406 0.0
C457 C 0.47191 0.52051 0.8234 0.0
C458 C 0.47908 0.48634 0.87415 0.0
C459 C 0.50013 0.51058 0.90501 0.0
C460 C 0.50917 0.54016 0.8921 0.0
C461 C 0.49516 0.54512 0.85165 0.0
C462 C 0.51177 0.50556 0.95178 0.0
C463 C 0.49447 0.47983 0.97691 0.0
C464 C 0.50368 0.47454 0.0255 0.0
C465 C 0.48911 0.44459 0.04163 0.0
C466 C 0.49602 0.4384 0.08761 0.0
C467 C 0.51751 0.46212 0.11889 0.0
H468 H 0.53612 0.52179 0.04654 0.0
C469 C 0.5319 0.49217 0.10293 0.0
C470 C 0.52507 0.49834 0.05683 0.0
H471 H 0.54853 0.51106 0.12602 0.0
H472 H 0.44764 0.47186 0.8124 0.0
H473 H 0.47275 0.4634 0.8814 0.0
H474 H 0.52579 0.55931 0.91477 0.0
H475 H 0.50103 0.56795 0.84434 0.0
H476 H 0.53413 0.52422 0.96679 0.0
H477 H 0.47189 0.46154 0.96173 0.0
H478 H 0.4723 0.4258 0.01848 0.0
H479 H 0.48444 0.41499 0.09859 0.0
C480 C 0.00951 0.52963 0.63016 0.0
C481 C 0.03923 0.55298 0.64881 0.0
C482 C -0.00277 0.53339 0.5868 0.0
C483 C 0.0148 0.56041 0.56092 0.0
C484 C 0.04337 0.58445 0.58124 0.0
C485 C 0.05525 0.58097 0.62524 0.0
C486 C 0.00686 0.5616 0.50964 0.0
C487 C 0.97665 0.54672 0.49208 0.0
C488 C 0.9687 0.53863 0.44049 0.0
C489 C 0.94059 0.53517 0.42047 0.0
C490 C 0.92873 0.52096 0.37565 0.0
C491 C 0.94429 0.50907 0.35091 0.0
H492 H 0.00724 0.53099 0.42854 0.0
C493 C 0.97352 0.51427 0.36949 0.0
C494 C 0.98581 0.5292 0.41368 0.0
H495 H 0.98582 0.50513 0.35132 0.0
H496 H -0.0032 0.50778 0.64744 0.0
H497 H 0.97541 0.51418 0.5717 0.0
H498 H 0.05744 0.60535 0.56177 0.0
H499 H 0.07843 0.59926 0.63845 0.0
H500 H 0.02659 0.57274 0.4851 0.0
H501 H 0.95692 0.53777 0.51664 0.0
H502 H 0.92687 0.54198 0.44067 0.0
H503 H 0.90591 0.5169 0.36252 0.0
loop_
_geom_bond_atom_site_label_1
_geom_bond_atom_site_label_2
_geom_bond_distance
_geom_bond_site_symmetry_2
_ccdc_geom_bond_type
Mn0 O5 2.095 . S
Mn0 O15 2.162 . S
Mn0 O16 2.297 . S
Mn0 O24 2.385 . S
Mn0 O25 2.209 . S
Mn0 O26 2.094 . S
Mn1 O6 2.121 . S
Mn1 N8 2.257 . S
Mn1 N17 2.282 . S
Mn1 O25 2.215 . S
Mn1 O27 2.117 . S
C2 O24 1.234 . S
C2 O25 1.283 . S
C3 O15 1.281 . S
C3 O16 1.236 . S
C4 O26 1.240 . S
C4 O27 1.264 . S
O5 Mn0 2.095 . S
O5 C14 1.250 . S
O6 Mn1 2.121 . S
O6 C14 1.258 . S
C7 N8 1.326 . S
C7 C11 1.460 . S
C7 H13 0.929 . S
N8 Mn1 2.257 . S
N8 C7 1.326 . S
N8 C12 1.362 . S
C9 C10 1.258 . S
C9 C12 1.431 . S
C9 C29 1.449 . S
C10 C9 1.258 . S
C10 C11 1.477 . S
C10 H30 0.931 . S
C11 C7 1.460 . S
C11 C10 1.477 . S
C11 H31 0.930 . S
C12 N8 1.362 . S
C12 C9 1.431 . S
C12 C22 1.476 . S
H13 C7 0.929 . S
C14 O5 1.250 . S
C14 O6 1.258 . S
O15 Mn0 2.162 . S
O15 C3 1.281 . S
O16 Mn0 2.297 . S
O16 C3 1.236 . S
N17 Mn1 2.282 . S
N17 C18 1.328 . S
N17 C22 1.318 . S
C18 N17 1.328 . S
C18 C19 1.457 . S
C18 H23 0.929 . S
C19 C18 1.457 . S
C19 C20 1.291 . S
C19 H32 0.931 . S
C20 C19 1.291 . S
C20 C21 1.373 . S
C20 H33 0.929 . S
C21 C20 1.373 . S
C21 C22 1.396 . S
C21 C28 1.403 . S
C22 C12 1.476 . S
C22 N17 1.318 . S
C22 C21 1.396 . S
H23 C18 0.929 . S
O24 Mn0 2.385 . S
O24 C2 1.234 . S
O25 Mn0 2.209 . S
O25 Mn1 2.215 . S
O25 C2 1.283 . S
O26 Mn0 2.094 . S
O26 C4 1.240 . S
O27 Mn1 2.117 . S
O27 C4 1.264 . S
C28 C21 1.403 . S
C28 C29 1.399 . S
C28 H34 0.929 . S
C29 C9 1.449 . S
C29 C28 1.399 . S
C29 H35 0.930 . S
H30 C10 0.931 . S
H31 C11 0.930 . S
H32 C19 0.931 . S
H33 C20 0.929 . S
H34 C28 0.929 . S
H35 C29 0.930 . S
Mn36 O41 2.095 . S
Mn36 O51 2.162 . S
Mn36 O52 2.297 . S
Mn36 O60 2.385 . S
Mn36 O61 2.209 . S
Mn36 O62 2.094 . S
Mn37 O42 2.121 . S
Mn37 N44 2.257 . S
Mn37 N53 2.282 . S
Mn37 O61 2.215 . S
Mn37 O63 2.117 . S
C38 O60 1.234 . S
C38 O61 1.283 . S
C39 O51 1.281 . S
C39 O52 1.236 . S
C40 O62 1.240 . S
C40 O63 1.264 . S
O41 Mn36 2.095 . S
O41 C50 1.250 . S
O42 Mn37 2.121 . S
O42 C50 1.258 . S
C43 N44 1.326 . S
C43 C47 1.460 . S
C43 H49 0.929 . S
N44 Mn37 2.257 . S
N44 C43 1.326 . S
N44 C48 1.362 . S
C45 C46 1.258 . S
C45 C48 1.431 . S
C45 C65 1.449 . S
C46 C45 1.258 . S
C46 C47 1.477 . S
C46 H66 0.931 . S
C47 C43 1.460 . S
C47 C46 1.477 . S
C47 H67 0.930 . S
C48 N44 1.362 . S
C48 C45 1.431 . S
C48 C58 1.476 . S
H49 C43 0.929 . S
C50 O41 1.250 . S
C50 O42 1.258 . S
O51 Mn36 2.162 . S
O51 C39 1.281 . S
O52 Mn36 2.297 . S
O52 C39 1.236 . S
N53 Mn37 2.282 . S
N53 C54 1.328 . S
N53 C58 1.318 . S
C54 N53 1.328 . S
C54 C55 1.457 . S
C54 H59 0.929 . S
C55 C54 1.457 . S
C55 C56 1.291 . S
C55 H68 0.931 . S
C56 C55 1.291 . S
C56 C57 1.373 . S
C56 H69 0.929 . S
C57 C56 1.373 . S
C57 C58 1.396 . S
C57 C64 1.403 . S
C58 C48 1.476 . S
C58 N53 1.318 . S
C58 C57 1.396 . S
H59 C54 0.929 . S
O60 Mn36 2.385 . S
O60 C38 1.234 . S
O61 Mn36 2.209 . S
O61 Mn37 2.215 . S
O61 C38 1.283 . S
O62 Mn36 2.094 . S
O62 C40 1.240 . S
O63 Mn37 2.117 . S
O63 C40 1.264 . S
C64 C57 1.403 . S
C64 C65 1.399 . S
C64 H70 0.929 . S
C65 C45 1.449 . S
C65 C64 1.399 . S
C65 H71 0.930 . S
H66 C46 0.931 . S
H67 C47 0.930 . S
H68 C55 0.931 . S
H69 C56 0.929 . S
H70 C64 0.929 . S
H71 C65 0.930 . S
Mn72 O77 2.095 . S
Mn72 O87 2.162 . S
Mn72 O88 2.297 . S
Mn72 O96 2.385 . S
Mn72 O97 2.209 . S
Mn72 O98 2.094 . S
Mn73 O78 2.121 . S
Mn73 N80 2.257 . S
Mn73 N89 2.282 . S
Mn73 O97 2.215 . S
Mn73 O99 2.117 . S
C74 O96 1.234 . S
C74 O97 1.283 . S
C75 O87 1.281 . S
C75 O88 1.236 . S
C76 O98 1.240 . S
C76 O99 1.264 . S
O77 Mn72 2.095 . S
O77 C86 1.250 . S
O78 Mn73 2.121 . S
O78 C86 1.258 . S
C79 N80 1.326 . S
C79 C83 1.460 . S
C79 H85 0.929 . S
N80 Mn73 2.257 . S
N80 C79 1.326 . S
N80 C84 1.362 . S
C81 C82 1.258 . S
C81 C84 1.431 . S
C81 C101 1.449 . S
C82 C81 1.258 . S
C82 C83 1.477 . S
C82 H102 0.931 . S
C83 C79 1.460 . S
C83 C82 1.477 . S
C83 H103 0.930 . S
C84 N80 1.362 . S
C84 C81 1.431 . S
C84 C94 1.476 . S
H85 C79 0.929 . S
C86 O77 1.250 . S
C86 O78 1.258 . S
O87 Mn72 2.162 . S
O87 C75 1.281 . S
O88 Mn72 2.297 . S
O88 C75 1.236 . S
N89 Mn73 2.282 . S
N89 C90 1.328 . S
N89 C94 1.318 . S
C90 N89 1.328 . S
C90 C91 1.457 . S
C90 H95 0.929 . S
C91 C90 1.457 . S
C91 C92 1.291 . S
C91 H104 0.931 . S
C92 C91 1.291 . S
C92 C93 1.373 . S
C92 H105 0.929 . S
C93 C92 1.373 . S
C93 C94 1.396 . S
C93 C100 1.403 . S
C94 C84 1.476 . S
C94 N89 1.318 . S
C94 C93 1.396 . S
H95 C90 0.929 . S
O96 Mn72 2.385 . S
O96 C74 1.234 . S
O97 Mn72 2.209 . S
O97 Mn73 2.215 . S
O97 C74 1.283 . S
O98 Mn72 2.094 . S
O98 C76 1.240 . S
O99 Mn73 2.117 . S
O99 C76 1.264 . S
C100 C93 1.403 . S
C100 C101 1.399 . S
C100 H106 0.929 . S
C101 C81 1.449 . S
C101 C100 1.399 . S
C101 H107 0.930 . S
H102 C82 0.931 . S
H103 C83 0.930 . S
H104 C91 0.931 . S
H105 C92 0.929 . S
H106 C100 0.929 . S
H107 C101 0.930 . S
Mn108 O113 2.095 . S
Mn108 O123 2.162 . S
Mn108 O124 2.297 . S
Mn108 O132 2.385 . S
Mn108 O133 2.209 . S
Mn108 O134 2.094 . S
Mn109 O114 2.121 . S
Mn109 N116 2.257 . S
Mn109 N125 2.282 . S
Mn109 O133 2.215 . S
Mn109 O135 2.117 . S
C110 O132 1.234 . S
C110 O133 1.283 . S
C111 O123 1.281 . S
C111 O124 1.236 . S
C112 O134 1.240 . S
C112 O135 1.264 . S
O113 Mn108 2.095 . S
O113 C122 1.250 . S
O114 Mn109 2.121 . S
O114 C122 1.258 . S
C115 N116 1.326 . S
C115 C119 1.460 . S
C115 H121 0.929 . S
N116 Mn109 2.257 . S
N116 C115 1.326 . S
N116 C120 1.362 . S
C117 C118 1.258 . S
C117 C120 1.431 . S
C117 C137 1.449 . S
C118 C117 1.258 . S
C118 C119 1.477 . S
C118 H138 0.931 . S
C119 C115 1.460 . S
C119 C118 1.477 . S
C119 H139 0.930 . S
C120 N116 1.362 . S
C120 C117 1.431 . S
C120 C130 1.476 . S
H121 C115 0.929 . S
C122 O113 1.250 . S
C122 O114 1.258 . S
O123 Mn108 2.162 . S
O123 C111 1.281 . S
O124 Mn108 2.297 . S
O124 C111 1.236 . S
N125 Mn109 2.282 . S
N125 C126 1.328 . S
N125 C130 1.318 . S
C126 N125 1.328 . S
C126 C127 1.457 . S
C126 H131 0.929 . S
C127 C126 1.457 . S
C127 C128 1.291 . S
C127 H140 0.931 . S
C128 C127 1.291 . S
C128 C129 1.373 . S
C128 H141 0.929 . S
C129 C128 1.373 . S
C129 C130 1.396 . S
C129 C136 1.403 . S
C130 C120 1.476 . S
C130 N125 1.318 . S
C130 C129 1.396 . S
H131 C126 0.929 . S
O132 Mn108 2.385 . S
O132 C110 1.234 . S
O133 Mn108 2.209 . S
O133 Mn109 2.215 . S
O133 C110 1.283 . S
O134 Mn108 2.094 . S
O134 C112 1.240 . S
O135 Mn109 2.117 . S
O135 C112 1.264 . S
C136 C129 1.403 . S
C136 C137 1.399 . S
C136 H142 0.929 . S
C137 C117 1.449 . S
C137 C136 1.399 . S
C137 H143 0.930 . S
H138 C118 0.931 . S
H139 C119 0.930 . S
H140 C127 0.931 . S
H141 C128 0.929 . S
H142 C136 0.929 . S
H143 C137 0.930 . S
Mn144 O149 2.095 . S
Mn144 O159 2.162 . S
Mn144 O160 2.297 . S
Mn144 O168 2.385 . S
Mn144 O169 2.209 . S
Mn144 O170 2.094 . S
Mn145 O150 2.121 . S
Mn145 N152 2.257 . S
Mn145 N161 2.282 . S
Mn145 O169 2.215 . S
Mn145 O171 2.117 . S
C146 O168 1.234 . S
C146 O169 1.283 . S
C147 O159 1.281 . S
C147 O160 1.236 . S
C148 O170 1.240 . S
C148 O171 1.264 . S
O149 Mn144 2.095 . S
O149 C158 1.250 . S
O150 Mn145 2.121 . S
O150 C158 1.258 . S
C151 N152 1.326 . S
C151 C155 1.460 . S
C151 H157 0.929 . S
N152 Mn145 2.257 . S
N152 C151 1.326 . S
N152 C156 1.362 . S
C153 C154 1.258 . S
C153 C156 1.431 . S
C153 C173 1.449 . S
C154 C153 1.258 . S
C154 C155 1.477 . S
C154 H174 0.931 . S
C155 C151 1.460 . S
C155 C154 1.477 . S
C155 H175 0.930 . S
C156 N152 1.362 . S
C156 C153 1.431 . S
C156 C166 1.476 . S
H157 C151 0.929 . S
C158 O149 1.250 . S
C158 O150 1.258 . S
O159 Mn144 2.162 . S
O159 C147 1.281 . S
O160 Mn144 2.297 . S
O160 C147 1.236 . S
N161 Mn145 2.282 . S
N161 C162 1.328 . S
N161 C166 1.318 . S
C162 N161 1.328 . S
C162 C163 1.457 . S
C162 H167 0.929 . S
C163 C162 1.457 . S
C163 C164 1.291 . S
C163 H176 0.931 . S
C164 C163 1.291 . S
C164 C165 1.373 . S
C164 H177 0.929 . S
C165 C164 1.373 . S
C165 C166 1.396 . S
C165 C172 1.403 . S
C166 C156 1.476 . S
C166 N161 1.318 . S
C166 C165 1.396 . S
H167 C162 0.929 . S
O168 Mn144 2.385 . S
O168 C146 1.234 . S
O169 Mn144 2.209 . S
O169 Mn145 2.215 . S
O169 C146 1.283 . S
O170 Mn144 2.094 . S
O170 C148 1.240 . S
O171 Mn145 2.117 . S
O171 C148 1.264 . S
C172 C165 1.403 . S
C172 C173 1.399 . S
C172 H178 0.929 . S
C173 C153 1.449 . S
C173 C172 1.399 . S
C173 H179 0.930 . S
H174 C154 0.931 . S
H175 C155 0.930 . S
H176 C163 0.931 . S
H177 C164 0.929 . S
H178 C172 0.929 . S
H179 C173 0.930 . S
Mn180 O185 2.095 . S
Mn180 O195 2.162 . S
Mn180 O196 2.297 . S
Mn180 O204 2.385 . S
Mn180 O205 2.209 . S
Mn180 O206 2.094 . S
Mn181 O186 2.121 . S
Mn181 N188 2.257 . S
Mn181 N197 2.282 . S
Mn181 O205 2.215 . S
Mn181 O207 2.117 . S
C182 O204 1.234 . S
C182 O205 1.283 . S
C183 O195 1.281 . S
C183 O196 1.236 . S
C184 O206 1.240 . S
C184 O207 1.264 . S
O185 Mn180 2.095 . S
O185 C194 1.250 . S
O186 Mn181 2.121 . S
O186 C194 1.258 . S
C187 N188 1.326 . S
C187 C191 1.460 . S
C187 H193 0.929 . S
N188 Mn181 2.257 . S
N188 C187 1.326 . S
N188 C192 1.362 . S
C189 C190 1.258 . S
C189 C192 1.431 . S
C189 C209 1.449 . S
C190 C189 1.258 . S
C190 C191 1.477 . S
C190 H210 0.931 . S
C191 C187 1.460 . S
C191 C190 1.477 . S
C191 H211 0.930 . S
C192 N188 1.362 . S
C192 C189 1.431 . S
C192 C202 1.476 . S
H193 C187 0.929 . S
C194 O185 1.250 . S
C194 O186 1.258 . S
O195 Mn180 2.162 . S
O195 C183 1.281 . S
O196 Mn180 2.297 . S
O196 C183 1.236 . S
N197 Mn181 2.282 . S
N197 C198 1.328 . S
N197 C202 1.318 . S
C198 N197 1.328 . S
C198 C199 1.457 . S
C198 H203 0.929 . S
C199 C198 1.457 . S
C199 C200 1.291 . S
C199 H212 0.931 . S
C200 C199 1.291 . S
C200 C201 1.373 . S
C200 H213 0.929 . S
C201 C200 1.373 . S
C201 C202 1.396 . S
C201 C208 1.403 . S
C202 C192 1.476 . S
C202 N197 1.318 . S
C202 C201 1.396 . S
H203 C198 0.929 . S
O204 Mn180 2.385 . S
O204 C182 1.234 . S
O205 Mn180 2.209 . S
O205 Mn181 2.215 . S
O205 C182 1.283 . S
O206 Mn180 2.094 . S
O206 C184 1.240 . S
O207 Mn181 2.117 . S
O207 C184 1.264 . S
C208 C201 1.403 . S
C208 C209 1.399 . S
C208 H214 0.929 . S
C209 C189 1.449 . S
C209 C208 1.399 . S
C209 H215 0.930 . S
H210 C190 0.931 . S
H211 C191 0.930 . S
H212 C199 0.931 . S
H213 C200 0.929 . S
H214 C208 0.929 . S
H215 C209 0.930 . S
C216 C217 1.386 . S
C216 C218 1.383 . S
C216 H232 0.951 . S
C217 C216 1.386 . S
C217 C221 1.383 . S
C218 C216 1.383 . S
C218 C219 1.402 . S
C218 H233 0.951 . S
C219 C218 1.402 . S
C219 C220 1.375 . S
C219 C222 1.481 . S
C220 C219 1.375 . S
C220 C221 1.367 . S
C220 H234 0.951 . S
C221 C217 1.383 . S
C221 C220 1.367 . S
C221 H235 0.950 . S
C222 C219 1.481 . S
C222 C223 1.297 . S
C222 H236 0.950 . S
C223 C222 1.297 . S
C223 C224 1.479 . S
C223 H237 0.950 . S
C224 C223 1.479 . S
C224 C225 1.375 . S
C224 C230 1.404 . S
C225 C224 1.375 . S
C225 C226 1.369 . S
C225 H238 0.950 . S
C226 C225 1.369 . S
C226 C227 1.392 . S
C226 H239 0.951 . S
C227 C226 1.392 . S
C227 C229 1.384 . S
H228 C230 0.949 . S
C229 C227 1.384 . S
C229 C230 1.385 . S
C229 H231 0.950 . S
C230 C224 1.404 . S
C230 H228 0.949 . S
C230 C229 1.385 . S
H231 C229 0.950 . S
H232 C216 0.951 . S
H233 C218 0.951 . S
H234 C220 0.951 . S
H235 C221 0.950 . S
H236 C222 0.950 . S
H237 C223 0.950 . S
H238 C225 0.950 . S
H239 C226 0.951 . S
C240 C241 1.386 . S
C240 C242 1.383 . S
C240 H256 0.951 . S
C241 C240 1.386 . S
C241 C245 1.383 . S
C242 C240 1.383 . S
C242 C243 1.402 . S
C242 H257 0.951 . S
C243 C242 1.402 . S
C243 C244 1.375 . S
C243 C246 1.481 . S
C244 C243 1.375 . S
C244 C245 1.367 . S
C244 H258 0.951 . S
C245 C241 1.383 . S
C245 C244 1.367 . S
C245 H259 0.950 . S
C246 C243 1.481 . S
C246 C247 1.297 . S
C246 H260 0.950 . S
C247 C246 1.297 . S
C247 C248 1.479 . S
C247 H261 0.950 . S
C248 C247 1.479 . S
C248 C249 1.375 . S
C248 C254 1.404 . S
C249 C248 1.375 . S
C249 C250 1.369 . S
C249 H262 0.950 . S
C250 C249 1.369 . S
C250 C251 1.392 . S
C250 H263 0.951 . S
C251 C250 1.392 . S
C251 C253 1.384 . S
H252 C254 0.949 . S
C253 C251 1.384 . S
C253 C254 1.385 . S
C253 H255 0.950 . S
C254 C248 1.404 . S
C254 H252 0.949 . S
C254 C253 1.385 . S
H255 C253 0.950 . S
H256 C240 0.951 . S
H257 C242 0.951 . S
H258 C244 0.951 . S
H259 C245 0.950 . S
H260 C246 0.950 . S
H261 C247 0.950 . S
H262 C249 0.950 . S
H263 C250 0.951 . S
C264 C265 1.386 . S
C264 C266 1.383 . S
C264 H280 0.951 . S
C265 C264 1.386 . S
C265 C269 1.383 . S
C266 C264 1.383 . S
C266 C267 1.402 . S
C266 H281 0.951 . S
C267 C266 1.402 . S
C267 C268 1.375 . S
C267 C270 1.481 . S
C268 C267 1.375 . S
C268 C269 1.367 . S
C268 H282 0.951 . S
C269 C265 1.383 . S
C269 C268 1.367 . S
C269 H283 0.950 . S
C270 C267 1.481 . S
C270 C271 1.297 . S
C270 H284 0.950 . S
C271 C270 1.297 . S
C271 C272 1.479 . S
C271 H285 0.950 . S
C272 C271 1.479 . S
C272 C273 1.375 . S
C272 C278 1.404 . S
C273 C272 1.375 . S
C273 C274 1.369 . S
C273 H286 0.950 . S
C274 C273 1.369 . S
C274 C275 1.392 . S
C274 H287 0.951 . S
C275 C274 1.392 . S
C275 C277 1.384 . S
H276 C278 0.949 . S
C277 C275 1.384 . S
C277 C278 1.385 . S
C277 H279 0.950 . S
C278 C272 1.404 . S
C278 H276 0.949 . S
C278 C277 1.385 . S
H279 C277 0.950 . S
H280 C264 0.951 . S
H281 C266 0.951 . S
H282 C268 0.951 . S
H283 C269 0.950 . S
H284 C270 0.950 . S
H285 C271 0.950 . S
H286 C273 0.950 . S
H287 C274 0.951 . S
C288 C289 1.386 . S
C288 C290 1.383 . S
C288 H304 0.951 . S
C289 C288 1.386 . S
C289 C293 1.383 . S
C290 C288 1.383 . S
C290 C291 1.402 . S
C290 H305 0.951 . S
C291 C290 1.402 . S
C291 C292 1.375 . S
C291 C294 1.481 . S
C292 C291 1.375 . S
C292 C293 1.367 . S
C292 H306 0.951 . S
C293 C289 1.383 . S
C293 C292 1.367 . S
C293 H307 0.950 . S
C294 C291 1.481 . S
C294 C295 1.297 . S
C294 H308 0.950 . S
C295 C294 1.297 . S
C295 C296 1.479 . S
C295 H309 0.950 . S
C296 C295 1.479 . S
C296 C297 1.375 . S
C296 C302 1.404 . S
C297 C296 1.375 . S
C297 C298 1.369 . S
C297 H310 0.950 . S
C298 C297 1.369 . S
C298 C299 1.392 . S
C298 H311 0.951 . S
C299 C298 1.392 . S
C299 C301 1.384 . S
H300 C302 0.949 . S
C301 C299 1.384 . S
C301 C302 1.385 . S
C301 H303 0.950 . S
C302 C296 1.404 . S
C302 H300 0.949 . S
C302 C301 1.385 . S
H303 C301 0.950 . S
H304 C288 0.951 . S
H305 C290 0.951 . S
H306 C292 0.951 . S
H307 C293 0.950 . S
H308 C294 0.950 . S
H309 C295 0.950 . S
H310 C297 0.950 . S
H311 C298 0.951 . S
C312 C313 1.386 . S
C312 C314 1.383 . S
C312 H328 0.951 . S
C313 C312 1.386 . S
C313 C317 1.383 . S
C314 C312 1.383 . S
C314 C315 1.402 . S
C314 H329 0.951 . S
C315 C314 1.402 . S
C315 C316 1.375 . S
C315 C318 1.481 . S
C316 C315 1.375 . S
C316 C317 1.367 . S
C316 H330 0.951 . S
C317 C313 1.383 . S
C317 C316 1.367 . S
C317 H331 0.950 . S
C318 C315 1.481 . S
C318 C319 1.297 . S
C318 H332 0.950 . S
C319 C318 1.297 . S
C319 C320 1.479 . S
C319 H333 0.950 . S
C320 C319 1.479 . S
C320 C321 1.375 . S
C320 C326 1.404 . S
C321 C320 1.375 . S
C321 C322 1.369 . S
C321 H334 0.950 . S
C322 C321 1.369 . S
C322 C323 1.392 . S
C322 H335 0.951 . S
C323 C322 1.392 . S
C323 C325 1.384 . S
H324 C326 0.949 . S
C325 C323 1.384 . S
C325 C326 1.385 . S
C325 H327 0.950 . S
C326 C320 1.404 . S
C326 H324 0.949 . S
C326 C325 1.385 . S
H327 C325 0.950 . S
H328 C312 0.951 . S
H329 C314 0.951 . S
H330 C316 0.951 . S
H331 C317 0.950 . S
H332 C318 0.950 . S
H333 C319 0.950 . S
H334 C321 0.950 . S
H335 C322 0.951 . S
C336 C337 1.386 . S
C336 C338 1.383 . S
C336 H352 0.951 . S
C337 C336 1.386 . S
C337 C341 1.383 . S
C338 C336 1.383 . S
C338 C339 1.402 . S
C338 H353 0.951 . S
C339 C338 1.402 . S
C339 C340 1.375 . S
C339 C342 1.481 . S
C340 C339 1.375 . S
C340 C341 1.367 . S
C340 H354 0.951 . S
C341 C337 1.383 . S
C341 C340 1.367 . S
C341 H355 0.950 . S
C342 C339 1.481 . S
C342 C343 1.297 . S
C342 H356 0.950 . S
C343 C342 1.297 . S
C343 C344 1.479 . S
C343 H357 0.950 . S
C344 C343 1.479 . S
C344 C345 1.375 . S
C344 C350 1.404 . S
C345 C344 1.375 . S
C345 C346 1.369 . S
C345 H358 0.950 . S
C346 C345 1.369 . S
C346 C347 1.392 . S
C346 H359 0.951 . S
C347 C346 1.392 . S
C347 C349 1.384 . S
H348 C350 0.949 . S
C349 C347 1.384 . S
C349 C350 1.385 . S
C349 H351 0.950 . S
C350 C344 1.404 . S
C350 H348 0.949 . S
C350 C349 1.385 . S
H351 C349 0.950 . S
H352 C336 0.951 . S
H353 C338 0.951 . S
H354 C340 0.951 . S
H355 C341 0.950 . S
H356 C342 0.950 . S
H357 C343 0.950 . S
H358 C345 0.950 . S
H359 C346 0.951 . S
C360 C361 1.386 . S
C360 C362 1.383 . S
C360 H376 0.951 . S
C361 C360 1.386 . S
C361 C365 1.383 . S
C362 C360 1.383 . S
C362 C363 1.402 . S
C362 H377 0.951 . S
C363 C362 1.402 . S
C363 C364 1.375 . S
C363 C366 1.481 1_556 S
C364 C363 1.375 . S
C364 C365 1.367 . S
C364 H378 0.951 . S
C365 C361 1.383 . S
C365 C364 1.367 . S
C365 H379 0.950 . S
C366 C363 1.481 1_554 S
C366 C367 1.296 1_565 S
C366 H380 0.950 . S
C367 C366 1.296 1_545 S
C367 C368 1.480 . S
C367 H381 0.950 1_545 S
C368 C367 1.480 . S
C368 C369 1.375 . S
C368 C374 1.404 . S
C369 C368 1.375 . S
C369 C370 1.369 . S
C369 H382 0.950 . S
C370 C369 1.369 . S
C370 C371 1.392 . S
C370 H383 0.951 . S
C371 C370 1.392 . S
C371 C373 1.384 . S
H372 C374 0.949 . S
C373 C371 1.384 . S
C373 C374 1.385 . S
C373 H375 0.950 . S
C374 C368 1.404 . S
C374 H372 0.949 . S
C374 C373 1.385 . S
H375 C373 0.950 . S
H376 C360 0.951 . S
H377 C362 0.951 . S
H378 C364 0.951 . S
H379 C365 0.950 . S
H380 C366 0.950 . S
H381 C367 0.950 1_565 S
H382 C369 0.950 . S
H383 C370 0.951 . S
C384 C385 1.386 . S
C384 C386 1.383 . S
C384 H400 0.951 . S
C385 C384 1.386 . S
C385 C389 1.383 . S
C386 C384 1.383 . S
C386 C387 1.402 . S
C386 H401 0.951 . S
C387 C386 1.402 . S
C387 C388 1.375 . S
C387 C390 1.481 . S
C388 C387 1.375 . S
C388 C389 1.367 . S
C388 H402 0.951 . S
C389 C385 1.383 . S
C389 C388 1.367 . S
C389 H403 0.950 . S
C390 C387 1.481 . S
C390 C391 1.297 . S
C390 H404 0.950 . S
C391 C390 1.297 . S
C391 C392 1.479 . S
C391 H405 0.950 . S
C392 C391 1.479 . S
C392 C393 1.375 . S
C392 C398 1.404 . S
C393 C392 1.375 . S
C393 C394 1.369 . S
C393 H406 0.950 . S
C394 C393 1.369 . S
C394 C395 1.392 . S
C394 H407 0.951 . S
C395 C394 1.392 . S
C395 C397 1.384 . S
H396 C398 0.949 . S
C397 C395 1.384 . S
C397 C398 1.385 . S
C397 H399 0.950 . S
C398 C392 1.404 . S
C398 H396 0.949 . S
C398 C397 1.385 . S
H399 C397 0.950 . S
H400 C384 0.951 . S
H401 C386 0.951 . S
H402 C388 0.951 . S
H403 C389 0.950 . S
H404 C390 0.950 . S
H405 C391 0.950 . S
H406 C393 0.950 . S
H407 C394 0.951 . S
C408 C409 1.386 . S
C408 C410 1.383 . S
C408 H424 0.951 . S
C409 C408 1.386 . S
C409 C413 1.383 . S
C410 C408 1.383 . S
C410 C411 1.402 . S
C410 H425 0.951 1_455 S
C411 C410 1.402 . S
C411 C412 1.375 . S
C411 C414 1.481 . S
C412 C411 1.375 . S
C412 C413 1.367 . S
C412 H426 0.951 . S
C413 C409 1.383 . S
C413 C412 1.367 . S
C413 H427 0.950 . S
C414 C411 1.481 . S
C414 C415 1.297 1_456 S
C414 H428 0.950 1_556 S
C415 C414 1.297 1_654 S
C415 C416 1.479 . S
C415 H429 0.950 1_554 S
C416 C415 1.479 . S
C416 C417 1.375 . S
C416 C422 1.404 . S
C417 C416 1.375 . S
C417 C418 1.369 . S
C417 H430 0.950 . S
C418 C417 1.369 . S
C418 C419 1.392 . S
C418 H431 0.951 . S
C419 C418 1.392 . S
C419 C421 1.384 . S
H420 C422 0.968 . S
C421 C419 1.384 . S
C421 C422 1.385 . S
C421 H423 0.950 . S
C422 C416 1.404 . S
C422 H420 0.968 . S
C422 C421 1.385 . S
H423 C421 0.950 . S
H424 C408 0.951 . S
H425 C410 0.951 1_655 S
H426 C412 0.951 . S
H427 C413 0.950 . S
H428 C414 0.950 1_554 S
H429 C415 0.950 1_556 S
H430 C417 0.950 . S
H431 C418 0.951 . S
C432 C433 1.386 . S
C432 C434 1.383 . S
C432 H448 0.951 . S
C433 C432 1.386 . S
C433 C437 1.383 . S
C434 C432 1.383 . S
C434 C435 1.402 . S
C434 H449 0.951 . S
C435 C434 1.402 . S
C435 C436 1.375 . S
C435 C438 1.481 1_545 S
C436 C435 1.375 . S
C436 C437 1.367 . S
C436 H450 0.951 . S
C437 C433 1.383 . S
C437 C436 1.367 . S
C437 H451 0.950 . S
C438 C435 1.481 1_565 S
C438 C439 1.297 . S
C438 H452 0.950 . S
C439 C438 1.297 . S
C439 C440 1.479 . S
C439 H453 0.950 . S
C440 C439 1.479 . S
C440 C441 1.375 . S
C440 C446 1.404 . S
C441 C440 1.375 . S
C441 C442 1.369 . S
C441 H454 0.950 . S
C442 C441 1.369 . S
C442 C443 1.392 . S
C442 H455 0.951 . S
C443 C442 1.392 . S
C443 C445 1.384 . S
H444 C446 0.949 . S
C445 C443 1.384 . S
C445 C446 1.385 . S
C445 H447 0.950 . S
C446 C440 1.404 . S
C446 H444 0.949 . S
C446 C445 1.385 . S
H447 C445 0.950 . S
H448 C432 0.951 . S
H449 C434 0.951 . S
H450 C436 0.951 . S
H451 C437 0.950 . S
H452 C438 0.950 . S
H453 C439 0.950 . S
H454 C441 0.950 . S
H455 C442 0.951 . S
C456 C457 1.386 . S
C456 C458 1.383 . S
C456 H472 0.951 . S
C457 C456 1.386 . S
C457 C461 1.383 . S
C458 C456 1.383 . S
C458 C459 1.402 . S
C458 H473 0.951 . S
C459 C458 1.402 . S
C459 C460 1.375 . S
C459 C462 1.481 . S
C460 C459 1.375 . S
C460 C461 1.367 . S
C460 H474 0.951 . S
C461 C457 1.383 . S
C461 C460 1.367 . S
C461 H475 0.950 . S
C462 C459 1.481 . S
C462 C463 1.297 . S
C462 H476 0.950 1_556 S
C463 C462 1.297 . S
C463 C464 1.479 1_556 S
C463 H477 0.950 . S
C464 C463 1.479 1_554 S
C464 C465 1.375 . S
C464 C470 1.404 . S
C465 C464 1.375 . S
C465 C466 1.369 . S
C465 H478 0.950 . S
C466 C465 1.369 . S
C466 C467 1.392 . S
C466 H479 0.951 . S
C467 C466 1.392 . S
C467 C469 1.384 . S
H468 C470 0.949 . S
C469 C467 1.384 . S
C469 C470 1.385 . S
C469 H471 0.950 . S
C470 C464 1.404 . S
C470 H468 0.949 . S
C470 C469 1.385 . S
H471 C469 0.950 . S
H472 C456 0.951 . S
H473 C458 0.951 . S
H474 C460 0.951 . S
H475 C461 0.950 . S
H476 C462 0.950 1_554 S
H477 C463 0.950 . S
H478 C465 0.950 . S
H479 C466 0.951 . S
C480 C481 1.386 . S
C480 C482 1.383 . S
C480 H496 0.951 . S
C481 C480 1.386 . S
C481 C485 1.383 . S
C482 C480 1.383 . S
C482 C483 1.402 . S
C482 H497 0.951 1_455 S
C483 C482 1.402 . S
C483 C484 1.375 . S
C483 C486 1.481 . S
C484 C483 1.375 . S
C484 C485 1.367 . S
C484 H498 0.951 . S
C485 C481 1.383 . S
C485 C484 1.367 . S
C485 H499 0.950 . S
C486 C483 1.481 . S
C486 C487 1.297 1_455 S
C486 H500 0.950 . S
C487 C486 1.297 1_655 S
C487 C488 1.479 . S
C487 H501 0.950 . S
C488 C487 1.479 . S
C488 C489 1.375 . S
C488 C494 1.404 . S
C489 C488 1.375 . S
C489 C490 1.369 . S
C489 H502 0.950 . S
C490 C489 1.369 . S
C490 C491 1.392 . S
C490 H503 0.951 . S
C491 C490 1.392 . S
C491 C493 1.384 . S
H492 C494 0.949 1_455 S
C493 C491 1.384 . S
C493 C494 1.385 . S
C493 H495 0.950 . S
C494 C488 1.404 . S
C494 H492 0.949 1_655 S
C494 C493 1.385 . S
H495 C493 0.950 . S
H496 C480 0.951 . S
H497 C482 0.951 1_655 S
H498 C484 0.951 . S
H499 C485 0.950 . S
H500 C486 0.950 . S
H501 C487 0.950 . S
H502 C489 0.950 . S
H503 C490 0.951 . S
C217 C3 0.949 . S
C227 C147 0.894 . S
C241 C38 0.970 . S
C251 C182 0.999 . S
C265 C2 0.938 . S
C275 C74 0.880 . S
C289 C111 0.903 . S
C299 C39 0.897 . S
C313 C146 0.937 . S
C323 C75 0.999 . S
C337 C110 0.932 . S
C347 C183 0.997 . S
C361 C112 1.368 . S
C371 C14 1.301 . S
C385 C158 1.316 . S
C395 C40 1.372 . S
C409 C184 1.378 . S
C419 C76 1.367 . S
C433 C4 1.377 . S
C443 C122 1.285 . S
C457 C50 1.343 . S
C467 C148 1.337 . S
C481 C194 1.338 . S
C491 C86 1.356 . S
