# Generated by pormake.
# Topology ana, (4)-cn, num edge types: 1
# Building blocks:
#     Node 0, Type 0, BuildingBlock: TATPOV_clean_sbu_0, # of connection points: 4
#     Node 1, Type 0, BuildingBlock: TATPOV_clean_sbu_0, # of connection points: 4
#     Node 2, Type 0, BuildingBlock: TATPOV_clean_sbu_0, # of connection points: 4
#     Node 3, Type 0, BuildingBlock: TATPOV_clean_sbu_0, # of connection points: 4
#     Node 4, Type 0, BuildingBlock: TATPOV_clean_sbu_0, # of connection points: 4
#     Node 5, Type 0, BuildingBlock: TATPOV_clean_sbu_0, # of connection points: 4
#     Node 6, Type 0, BuildingBlock: TATPOV_clean_sbu_0, # of connection points: 4
#     Node 7, Type 0, BuildingBlock: TATPOV_clean_sbu_0, # of connection points: 4
#     Node 8, Type 0, BuildingBlock: TATPOV_clean_sbu_0, # of connection points: 4
#     Node 9, Type 0, BuildingBlock: TATPOV_clean_sbu_0, # of connection points: 4
#     Node 10, Type 0, BuildingBlock: TATPOV_clean_sbu_0, # of connection points: 4
#     Node 11, Type 0, BuildingBlock: TATPOV_clean_sbu_0, # of connection points: 4
#     Node 12, Type 0, BuildingBlock: TATPOV_clean_sbu_0, # of connection points: 4
#     Node 13, Type 0, BuildingBlock: TATPOV_clean_sbu_0, # of connection points: 4
#     Node 14, Type 0, BuildingBlock: TATPOV_clean_sbu_0, # of connection points: 4
#     Node 15, Type 0, BuildingBlock: TATPOV_clean_sbu_0, # of connection points: 4
#     Node 16, Type 0, BuildingBlock: TATPOV_clean_sbu_0, # of connection points: 4
#     Node 17, Type 0, BuildingBlock: TATPOV_clean_sbu_0, # of connection points: 4
#     Node 18, Type 0, BuildingBlock: TATPOV_clean_sbu_0, # of connection points: 4
#     Node 19, Type 0, BuildingBlock: TATPOV_clean_sbu_0, # of connection points: 4
#     Node 20, Type 0, BuildingBlock: TATPOV_clean_sbu_0, # of connection points: 4
#     Node 21, Type 0, BuildingBlock: TATPOV_clean_sbu_0, # of connection points: 4
#     Node 22, Type 0, BuildingBlock: TATPOV_clean_sbu_0, # of connection points: 4
#     Node 23, Type 0, BuildingBlock: TATPOV_clean_sbu_0, # of connection points: 4
#     Node 24, Type 0, BuildingBlock: TATPOV_clean_sbu_0, # of connection points: 4
#     Node 25, Type 0, BuildingBlock: TATPOV_clean_sbu_0, # of connection points: 4
#     Node 26, Type 0, BuildingBlock: TATPOV_clean_sbu_0, # of connection points: 4
#     Node 27, Type 0, BuildingBlock: TATPOV_clean_sbu_0, # of connection points: 4
#     Node 28, Type 0, BuildingBlock: TATPOV_clean_sbu_0, # of connection points: 4
#     Node 29, Type 0, BuildingBlock: TATPOV_clean_sbu_0, # of connection points: 4
#     Node 30, Type 0, BuildingBlock: TATPOV_clean_sbu_0, # of connection points: 4
#     Node 31, Type 0, BuildingBlock: TATPOV_clean_sbu_0, # of connection points: 4
#     Node 32, Type 0, BuildingBlock: TATPOV_clean_sbu_0, # of connection points: 4
#     Node 33, Type 0, BuildingBlock: TATPOV_clean_sbu_0, # of connection points: 4
#     Node 34, Type 0, BuildingBlock: TATPOV_clean_sbu_0, # of connection points: 4
#     Node 35, Type 0, BuildingBlock: TATPOV_clean_sbu_0, # of connection points: 4
#     Node 36, Type 0, BuildingBlock: TATPOV_clean_sbu_0, # of connection points: 4
#     Node 37, Type 0, BuildingBlock: TATPOV_clean_sbu_0, # of connection points: 4
#     Node 38, Type 0, BuildingBlock: TATPOV_clean_sbu_0, # of connection points: 4
#     Node 39, Type 0, BuildingBlock: TATPOV_clean_sbu_0, # of connection points: 4
#     Node 40, Type 0, BuildingBlock: TATPOV_clean_sbu_0, # of connection points: 4
#     Node 41, Type 0, BuildingBlock: TATPOV_clean_sbu_0, # of connection points: 4
#     Node 42, Type 0, BuildingBlock: TATPOV_clean_sbu_0, # of connection points: 4
#     Node 43, Type 0, BuildingBlock: TATPOV_clean_sbu_0, # of connection points: 4
#     Node 44, Type 0, BuildingBlock: TATPOV_clean_sbu_0, # of connection points: 4
#     Node 45, Type 0, BuildingBlock: TATPOV_clean_sbu_0, # of connection points: 4
#     Node 46, Type 0, BuildingBlock: TATPOV_clean_sbu_0, # of connection points: 4
#     Node 47, Type 0, BuildingBlock: TATPOV_clean_sbu_0, # of connection points: 4
#     Edge 48, Type (0, 0), BuildingBlock: EZIPEK_clean_linker_0, # of connection points: 2
#     Edge 49, Type (0, 0), BuildingBlock: EZIPEK_clean_linker_0, # of connection points: 2
#     Edge 50, Type (0, 0), BuildingBlock: EZIPEK_clean_linker_0, # of connection points: 2
#     Edge 51, Type (0, 0), BuildingBlock: EZIPEK_clean_linker_0, # of connection points: 2
#     Edge 52, Type (0, 0), BuildingBlock: EZIPEK_clean_linker_0, # of connection points: 2
#     Edge 53, Type (0, 0), BuildingBlock: EZIPEK_clean_linker_0, # of connection points: 2
#     Edge 54, Type (0, 0), BuildingBlock: EZIPEK_clean_linker_0, # of connection points: 2
#     Edge 55, Type (0, 0), BuildingBlock: EZIPEK_clean_linker_0, # of connection points: 2
#     Edge 56, Type (0, 0), BuildingBlock: EZIPEK_clean_linker_0, # of connection points: 2
#     Edge 57, Type (0, 0), BuildingBlock: EZIPEK_clean_linker_0, # of connection points: 2
#     Edge 58, Type (0, 0), BuildingBlock: EZIPEK_clean_linker_0, # of connection points: 2
#     Edge 59, Type (0, 0), BuildingBlock: EZIPEK_clean_linker_0, # of connection points: 2
#     Edge 60, Type (0, 0), BuildingBlock: EZIPEK_clean_linker_0, # of connection points: 2
#     Edge 61, Type (0, 0), BuildingBlock: EZIPEK_clean_linker_0, # of connection points: 2
#     Edge 62, Type (0, 0), BuildingBlock: EZIPEK_clean_linker_0, # of connection points: 2
#     Edge 63, Type (0, 0), BuildingBlock: EZIPEK_clean_linker_0, # of connection points: 2
#     Edge 64, Type (0, 0), BuildingBlock: EZIPEK_clean_linker_0, # of connection points: 2
#     Edge 65, Type (0, 0), BuildingBlock: EZIPEK_clean_linker_0, # of connection points: 2
#     Edge 66, Type (0, 0), BuildingBlock: EZIPEK_clean_linker_0, # of connection points: 2
#     Edge 67, Type (0, 0), BuildingBlock: EZIPEK_clean_linker_0, # of connection points: 2
#     Edge 68, Type (0, 0), BuildingBlock: EZIPEK_clean_linker_0, # of connection points: 2
#     Edge 69, Type (0, 0), BuildingBlock: EZIPEK_clean_linker_0, # of connection points: 2
#     Edge 70, Type (0, 0), BuildingBlock: EZIPEK_clean_linker_0, # of connection points: 2
#     Edge 71, Type (0, 0), BuildingBlock: EZIPEK_clean_linker_0, # of connection points: 2
#     Edge 72, Type (0, 0), BuildingBlock: EZIPEK_clean_linker_0, # of connection points: 2
#     Edge 73, Type (0, 0), BuildingBlock: EZIPEK_clean_linker_0, # of connection points: 2
#     Edge 74, Type (0, 0), BuildingBlock: EZIPEK_clean_linker_0, # of connection points: 2
#     Edge 75, Type (0, 0), BuildingBlock: EZIPEK_clean_linker_0, # of connection points: 2
#     Edge 76, Type (0, 0), BuildingBlock: EZIPEK_clean_linker_0, # of connection points: 2
#     Edge 77, Type (0, 0), BuildingBlock: EZIPEK_clean_linker_0, # of connection points: 2
#     Edge 78, Type (0, 0), BuildingBlock: EZIPEK_clean_linker_0, # of connection points: 2
#     Edge 79, Type (0, 0), BuildingBlock: EZIPEK_clean_linker_0, # of connection points: 2
#     Edge 80, Type (0, 0), BuildingBlock: EZIPEK_clean_linker_0, # of connection points: 2
#     Edge 81, Type (0, 0), BuildingBlock: EZIPEK_clean_linker_0, # of connection points: 2
#     Edge 82, Type (0, 0), BuildingBlock: EZIPEK_clean_linker_0, # of connection points: 2
#     Edge 83, Type (0, 0), BuildingBlock: EZIPEK_clean_linker_0, # of connection points: 2
#     Edge 84, Type (0, 0), BuildingBlock: EZIPEK_clean_linker_0, # of connection points: 2
#     Edge 85, Type (0, 0), BuildingBlock: EZIPEK_clean_linker_0, # of connection points: 2
#     Edge 86, Type (0, 0), BuildingBlock: EZIPEK_clean_linker_0, # of connection points: 2
#     Edge 87, Type (0, 0), BuildingBlock: EZIPEK_clean_linker_0, # of connection points: 2
#     Edge 88, Type (0, 0), BuildingBlock: EZIPEK_clean_linker_0, # of connection points: 2
#     Edge 89, Type (0, 0), BuildingBlock: EZIPEK_clean_linker_0, # of connection points: 2
#     Edge 90, Type (0, 0), BuildingBlock: EZIPEK_clean_linker_0, # of connection points: 2
#     Edge 91, Type (0, 0), BuildingBlock: EZIPEK_clean_linker_0, # of connection points: 2
#     Edge 92, Type (0, 0), BuildingBlock: EZIPEK_clean_linker_0, # of connection points: 2
#     Edge 93, Type (0, 0), BuildingBlock: EZIPEK_clean_linker_0, # of connection points: 2
#     Edge 94, Type (0, 0), BuildingBlock: EZIPEK_clean_linker_0, # of connection points: 2
#     Edge 95, Type (0, 0), BuildingBlock: EZIPEK_clean_linker_0, # of connection points: 2
#     Edge 96, Type (0, 0), BuildingBlock: EZIPEK_clean_linker_0, # of connection points: 2
#     Edge 97, Type (0, 0), BuildingBlock: EZIPEK_clean_linker_0, # of connection points: 2
#     Edge 98, Type (0, 0), BuildingBlock: EZIPEK_clean_linker_0, # of connection points: 2
#     Edge 99, Type (0, 0), BuildingBlock: EZIPEK_clean_linker_0, # of connection points: 2
#     Edge 100, Type (0, 0), BuildingBlock: EZIPEK_clean_linker_0, # of connection points: 2
#     Edge 101, Type (0, 0), BuildingBlock: EZIPEK_clean_linker_0, # of connection points: 2
#     Edge 102, Type (0, 0), BuildingBlock: EZIPEK_clean_linker_0, # of connection points: 2
#     Edge 103, Type (0, 0), BuildingBlock: EZIPEK_clean_linker_0, # of connection points: 2
#     Edge 104, Type (0, 0), BuildingBlock: EZIPEK_clean_linker_0, # of connection points: 2
#     Edge 105, Type (0, 0), BuildingBlock: EZIPEK_clean_linker_0, # of connection points: 2
#     Edge 106, Type (0, 0), BuildingBlock: EZIPEK_clean_linker_0, # of connection points: 2
#     Edge 107, Type (0, 0), BuildingBlock: EZIPEK_clean_linker_0, # of connection points: 2
#     Edge 108, Type (0, 0), BuildingBlock: EZIPEK_clean_linker_0, # of connection points: 2
#     Edge 109, Type (0, 0), BuildingBlock: EZIPEK_clean_linker_0, # of connection points: 2
#     Edge 110, Type (0, 0), BuildingBlock: EZIPEK_clean_linker_0, # of connection points: 2
#     Edge 111, Type (0, 0), BuildingBlock: EZIPEK_clean_linker_0, # of connection points: 2
#     Edge 112, Type (0, 0), BuildingBlock: EZIPEK_clean_linker_0, # of connection points: 2
#     Edge 113, Type (0, 0), BuildingBlock: EZIPEK_clean_linker_0, # of connection points: 2
#     Edge 114, Type (0, 0), BuildingBlock: EZIPEK_clean_linker_0, # of connection points: 2
#     Edge 115, Type (0, 0), BuildingBlock: EZIPEK_clean_linker_0, # of connection points: 2
#     Edge 116, Type (0, 0), BuildingBlock: EZIPEK_clean_linker_0, # of connection points: 2
#     Edge 117, Type (0, 0), BuildingBlock: EZIPEK_clean_linker_0, # of connection points: 2
#     Edge 118, Type (0, 0), BuildingBlock: EZIPEK_clean_linker_0, # of connection points: 2
#     Edge 119, Type (0, 0), BuildingBlock: EZIPEK_clean_linker_0, # of connection points: 2
#     Edge 120, Type (0, 0), BuildingBlock: EZIPEK_clean_linker_0, # of connection points: 2
#     Edge 121, Type (0, 0), BuildingBlock: EZIPEK_clean_linker_0, # of connection points: 2
#     Edge 122, Type (0, 0), BuildingBlock: EZIPEK_clean_linker_0, # of connection points: 2
#     Edge 123, Type (0, 0), BuildingBlock: EZIPEK_clean_linker_0, # of connection points: 2
#     Edge 124, Type (0, 0), BuildingBlock: EZIPEK_clean_linker_0, # of connection points: 2
#     Edge 125, Type (0, 0), BuildingBlock: EZIPEK_clean_linker_0, # of connection points: 2
#     Edge 126, Type (0, 0), BuildingBlock: EZIPEK_clean_linker_0, # of connection points: 2
#     Edge 127, Type (0, 0), BuildingBlock: EZIPEK_clean_linker_0, # of connection points: 2
#     Edge 128, Type (0, 0), BuildingBlock: EZIPEK_clean_linker_0, # of connection points: 2
#     Edge 129, Type (0, 0), BuildingBlock: EZIPEK_clean_linker_0, # of connection points: 2
#     Edge 130, Type (0, 0), BuildingBlock: EZIPEK_clean_linker_0, # of connection points: 2
#     Edge 131, Type (0, 0), BuildingBlock: EZIPEK_clean_linker_0, # of connection points: 2
#     Edge 132, Type (0, 0), BuildingBlock: EZIPEK_clean_linker_0, # of connection points: 2
#     Edge 133, Type (0, 0), BuildingBlock: EZIPEK_clean_linker_0, # of connection points: 2
#     Edge 134, Type (0, 0), BuildingBlock: EZIPEK_clean_linker_0, # of connection points: 2
#     Edge 135, Type (0, 0), BuildingBlock: EZIPEK_clean_linker_0, # of connection points: 2
#     Edge 136, Type (0, 0), BuildingBlock: EZIPEK_clean_linker_0, # of connection points: 2
#     Edge 137, Type (0, 0), BuildingBlock: EZIPEK_clean_linker_0, # of connection points: 2
#     Edge 138, Type (0, 0), BuildingBlock: EZIPEK_clean_linker_0, # of connection points: 2
#     Edge 139, Type (0, 0), BuildingBlock: EZIPEK_clean_linker_0, # of connection points: 2
#     Edge 140, Type (0, 0), BuildingBlock: EZIPEK_clean_linker_0, # of connection points: 2
#     Edge 141, Type (0, 0), BuildingBlock: EZIPEK_clean_linker_0, # of connection points: 2
#     Edge 142, Type (0, 0), BuildingBlock: EZIPEK_clean_linker_0, # of connection points: 2
#     Edge 143, Type (0, 0), BuildingBlock: EZIPEK_clean_linker_0, # of connection points: 2
# Relax obj value: 0.167
# Max RMSD: 0.202
# Mean RMSD: 0.183
data_MOF--net-ana--node1-TATPOV_clean_sbu_0--edge1-EZIPEK_clean_linker_0
_symmetry_space_group_name_H-M    P1
_symmetry_Int_Tables_number       1
_symmetry_cell_setting            triclinic
loop_
_symmetry_equiv_pos_as_xyz
'x, y, z'
_cell_length_a     48.505018
_cell_length_b     49.078653
_cell_length_c     48.870529
_cell_angle_alpha  90.664426
_cell_angle_beta   89.872107
_cell_angle_gamma 91.393576
loop_
_atom_site_label
_atom_site_type_symbol
_atom_site_fract_x
_atom_site_fract_y
_atom_site_fract_z
_atom_type_partial_charge
Zn0 Zn 0.12771 0.1403 0.32235 0.0
Zn1 Zn 0.11449 0.13675 0.37642 0.0
O2 O 0.08041 0.1196 0.35779 0.0
O3 O 0.0918 0.12047 0.31396 0.0
O4 O 0.10994 0.1287 0.41687 0.0
O5 O 0.16309 0.12008 0.32605 0.0
O6 O 0.15115 0.11761 0.36948 0.0
C7 C 0.07464 0.1148 0.33275 0.0
C8 C 0.11812 0.19238 0.34966 0.0
O9 O 0.11379 0.17835 0.37116 0.0
O10 O 0.12539 0.18107 0.32745 0.0
C11 C 0.08987 0.13253 0.43313 0.0
O12 O 0.06789 0.14505 0.42468 0.0
C13 C 0.16776 0.11215 0.35007 0.0
Zn14 Zn 0.03876 0.81038 0.67972 0.0
Zn15 Zn 0.06148 0.84903 0.6495 0.0
O16 O 0.02026 0.84847 0.63892 0.0
O17 O 0.0008 0.82307 0.67072 0.0
O18 O 0.07797 0.88221 0.63111 0.0
O19 O 0.0567 0.82235 0.71461 0.0
O20 O 0.07262 0.85649 0.68976 0.0
C21 C -0.00127 0.83783 0.6498 0.0
C22 C 0.07489 0.79125 0.6356 0.0
O23 O 0.0805 0.81641 0.63185 0.0
O24 O 0.0578 0.78397 0.65396 0.0
C25 C 0.07086 0.89093 0.60785 0.0
O26 O 0.05189 0.87759 0.59357 0.0
C27 C 0.07027 0.84453 0.7127 0.0
Zn28 Zn 0.32948 0.77902 0.84405 0.0
Zn29 Zn 0.34468 0.79235 0.89527 0.0
O30 O 0.37712 0.80839 0.87358 0.0
O31 O 0.36637 0.79439 0.83184 0.0
O32 O 0.35213 0.80362 0.93448 0.0
O33 O 0.29586 0.80233 0.84632 0.0
O34 O 0.3083 0.81195 0.88872 0.0
C35 C 0.38308 0.80617 0.84826 0.0
C36 C 0.33907 0.7324 0.87588 0.0
O37 O 0.3454 0.75019 0.89421 0.0
O38 O 0.32908 0.73949 0.85324 0.0
C39 C 0.35229 0.82919 0.93908 0.0
O40 O 0.35089 0.84587 0.91833 0.0
C41 C 0.29185 0.81472 0.86876 0.0
Zn42 Zn 0.41253 0.15356 0.19547 0.0
Zn43 Zn 0.39154 0.11435 0.16444 0.0
O44 O 0.43203 0.11429 0.15205 0.0
O45 O 0.44954 0.14827 0.17676 0.0
O46 O 0.3739 0.08174 0.14546 0.0
O47 O 0.40354 0.13648 0.23121 0.0
O48 O 0.38191 0.10606 0.20504 0.0
C49 C 0.45228 0.13011 0.15836 0.0
C50 C 0.37234 0.17207 0.15676 0.0
O51 O 0.37346 0.14767 0.14773 0.0
O52 O 0.3846 0.17871 0.17881 0.0
C53 C 0.38072 0.073 0.1219 0.0
O54 O 0.39986 0.08605 0.10781 0.0
C55 C 0.38799 0.1156 0.22872 0.0
Zn56 Zn 0.0942 0.88619 0.06645 0.0
Zn57 Zn 0.10058 0.83138 0.06955 0.0
O58 O 0.13625 0.84668 0.08704 0.0
O59 O 0.13284 0.89102 0.08195 0.0
O60 O 0.10286 0.79058 0.07451 0.0
O61 O 0.05957 0.88406 0.08999 0.0
O62 O 0.06383 0.83944 0.08864 0.0
C63 C 0.14676 0.87068 0.08881 0.0
C64 C 0.09674 0.85863 0.01372 0.0
O65 O 0.10067 0.83744 0.02795 0.0
O66 O 0.09194 0.88132 0.0252 0.0
C67 C 0.10488 0.78201 0.09888 0.0
O68 O 0.10743 0.79976 0.1191 0.0
C69 C 0.05055 0.86041 0.09581 0.0
Zn70 Zn 0.42184 0.80615 0.27229 0.0
Zn71 Zn 0.39383 0.84698 0.29758 0.0
O72 O 0.43368 0.85543 0.30882 0.0
O73 O 0.45686 0.82231 0.28931 0.0
O74 O 0.37343 0.87762 0.31499 0.0
O75 O 0.40713 0.81821 0.23549 0.0
O76 O 0.38371 0.8499 0.25709 0.0
C77 C 0.45617 0.84321 0.30475 0.0
C78 C 0.38272 0.78804 0.31359 0.0
O79 O 0.37831 0.81333 0.31665 0.0
O80 O 0.39943 0.77964 0.29558 0.0
C81 C 0.37393 0.88085 0.34079 0.0
O82 O 0.38731 0.86372 0.35602 0.0
C83 C 0.39036 0.83758 0.23507 0.0
Zn84 Zn 0.35683 0.07146 0.58867 0.0
Zn85 Zn 0.35446 0.12614 0.58818 0.0
O86 O 0.31527 0.11277 0.59894 0.0
O87 O 0.31727 0.06804 0.60157 0.0
O88 O 0.35459 0.16678 0.5943 0.0
O89 O 0.39046 0.07155 0.61344 0.0
O90 O 0.38869 0.11613 0.60992 0.0
C91 C 0.30343 0.08958 0.60253 0.0
C92 C 0.36181 0.0975 0.53453 0.0
O93 O 0.3603 0.12011 0.54738 0.0
O94 O 0.36154 0.0752 0.54744 0.0
C95 C 0.33407 0.18233 0.59341 0.0
O96 O 0.30961 0.17248 0.58652 0.0
C97 C 0.40053 0.09507 0.61856 0.0
Zn98 Zn 0.02788 0.13944 0.77637 0.0
Zn99 Zn 0.0558 0.10309 0.80344 0.0
O100 O 0.01628 0.09203 0.81369 0.0
O101 O -0.00717 0.12431 0.79398 0.0
O102 O 0.07801 0.07268 0.81895 0.0
O103 O 0.04083 0.12793 0.73918 0.0
O104 O 0.06714 0.10053 0.76231 0.0
C105 C -0.00638 0.10375 0.80938 0.0
C106 C 0.06289 0.16322 0.81816 0.0
O107 O 0.06659 0.13845 0.8245 0.0
O108 O 0.04973 0.16865 0.79663 0.0
C109 C 0.09924 0.07388 0.83418 0.0
O110 O 0.10891 0.09754 0.8431 0.0
C111 C 0.05974 0.11068 0.73962 0.0
Zn112 Zn 0.16786 0.43083 0.06039 0.0
Zn113 Zn 0.1414 0.40731 0.10368 0.0
O114 O 0.1817 0.39715 0.10961 0.0
O115 O 0.20384 0.41562 0.07473 0.0
O116 O 0.12221 0.39052 0.13616 0.0
O117 O 0.15368 0.46794 0.07272 0.0
O118 O 0.13205 0.44802 0.10712 0.0
C119 C 0.20389 0.40126 0.09614 0.0
C120 C 0.12754 0.38862 0.04521 0.0
O121 O 0.1239 0.38704 0.07095 0.0
O122 O 0.14451 0.40596 0.03536 0.0
C123 C 0.11483 0.36552 0.13732 0.0
O124 O 0.11992 0.34893 0.11675 0.0
C125 C 0.13821 0.4694 0.0936 0.0
Zn126 Zn 0.66975 0.01329 0.89676 0.0
Zn127 Zn 0.6489 0.04341 0.85585 0.0
O128 O 0.68974 0.04874 0.84944 0.0
O129 O 0.7073 0.02005 0.87827 0.0
O130 O 0.6309 0.06262 0.82462 0.0
O131 O 0.64383 -0.01832 0.88622 0.0
O132 O 0.63541 0.00464 0.84914 0.0
C133 C 0.71058 0.03675 0.85881 0.0
C134 C 0.63948 0.05923 0.91594 0.0
O135 O 0.63421 0.06207 0.89061 0.0
O136 O 0.65535 0.04083 0.92389 0.0
C137 C 0.63924 0.08529 0.81499 0.0
O138 O 0.6606 0.09817 0.82601 0.0
C139 C 0.63267 -0.01704 0.86293 0.0
Zn140 Zn 0.77634 0.92564 0.388 0.0
Zn141 Zn 0.80046 0.89342 0.35041 0.0
O142 O 0.76022 0.88958 0.33911 0.0
O143 O 0.73991 0.91417 0.37062 0.0
O144 O 0.82124 0.87506 0.31989 0.0
O145 O 0.79555 0.95977 0.37602 0.0
O146 O 0.81761 0.93194 0.34829 0.0
C147 C 0.73833 0.8992 0.34933 0.0
C148 C 0.80593 0.87973 0.41031 0.0
O149 O 0.80816 0.87223 0.3854 0.0
O150 O 0.79517 0.90238 0.41603 0.0
C151 C 0.81565 0.85166 0.30972 0.0
O152 O 0.79556 0.83661 0.32014 0.0
C153 C 0.81394 0.95566 0.35824 0.0
Zn154 Zn 0.77715 0.01929 0.06209 0.0
Zn155 Zn 0.80471 0.04617 0.10176 0.0
O156 O 0.76422 0.05404 0.11092 0.0
O157 O 0.74111 0.03226 0.07826 0.0
O158 O 0.82515 0.06301 0.13377 0.0
O159 O 0.79384 -0.01677 0.07155 0.0
O160 O 0.81733 0.00605 0.10318 0.0
C161 C 0.7415 0.04792 0.09906 0.0
C162 C 0.81142 0.06473 0.04302 0.0
O163 O 0.8171 0.06841 0.06825 0.0
O164 O 0.79607 0.0448 0.0354 0.0
C165 C 0.83454 0.08734 0.13597 0.0
O166 O 0.83101 0.10473 0.11614 0.0
C167 C 0.81154 -0.01625 0.09054 0.0
Zn168 Zn 0.27879 0.51749 0.55795 0.0
Zn169 Zn 0.30566 0.54329 0.59913 0.0
O170 O 0.26497 0.5511 0.60739 0.0
O171 O 0.2426 0.53089 0.57327 0.0
O172 O 0.32503 0.55829 0.63261 0.0
O173 O 0.29396 0.48088 0.56781 0.0
O174 O 0.3177 0.50323 0.59965 0.0
C175 C 0.24253 0.54562 0.59473 0.0
C176 C 0.315 0.5627 0.54114 0.0
O177 O 0.31953 0.56611 0.56664 0.0
O178 O 0.29968 0.54309 0.53264 0.0
C179 C 0.33728 0.58126 0.63587 0.0
O180 O 0.33806 0.59896 0.61591 0.0
C181 C 0.31148 0.4811 0.58695 0.0
Zn182 Zn 0.16088 0.5194 0.39696 0.0
Zn183 Zn 0.13588 0.54722 0.35996 0.0
O184 O 0.1756 0.55569 0.34962 0.0
O185 O 0.19538 0.54141 0.38708 0.0
O186 O 0.1153 0.56469 0.32943 0.0
O187 O 0.15153 0.48293 0.38026 0.0
O188 O 0.12271 0.50738 0.35652 0.0
C189 C 0.19659 0.55465 0.36498 0.0
C190 C 0.12474 0.55827 0.41971 0.0
O191 O 0.12572 0.56743 0.39545 0.0
O192 O 0.13433 0.53506 0.42452 0.0
C193 C 0.11424 0.59027 0.3263 0.0
O194 O 0.12528 0.60694 0.34464 0.0
C195 C 0.1314 0.48438 0.36404 0.0
Zn196 Zn 0.26919 0.42179 0.89962 0.0
Zn197 Zn 0.29459 0.39538 0.85646 0.0
O198 O 0.2538 0.3908 0.84725 0.0
O199 O 0.23338 0.41447 0.87948 0.0
O200 O 0.31396 0.38059 0.82301 0.0
O201 O 0.29086 0.45648 0.8924 0.0
O202 O 0.30914 0.4345 0.85737 0.0
C203 C 0.23194 0.40042 0.85757 0.0
C204 C 0.30071 0.3742 0.91432 0.0
O205 O 0.30658 0.37267 0.88895 0.0
O206 O 0.28542 0.39274 0.9236 0.0
C207 C 0.32851 0.35942 0.82194 0.0
O208 O 0.33151 0.3445 0.84381 0.0
C209 C 0.30663 0.45602 0.87179 0.0
Zn210 Zn 0.88402 0.79572 0.53952 0.0
Zn211 Zn 0.84193 0.81593 0.56802 0.0
O212 O 0.83619 0.77625 0.57795 0.0
O213 O 0.87221 0.75923 0.5569 0.0
O214 O 0.80943 0.83502 0.58424 0.0
O215 O 0.87105 0.81088 0.50353 0.0
O216 O 0.83581 0.82425 0.52761 0.0
C217 C 0.85186 0.75637 0.57312 0.0
C218 C 0.90225 0.83077 0.58276 0.0
O219 O 0.87652 0.83161 0.5881 0.0
O220 O 0.91069 0.81814 0.56178 0.0
C221 C 0.80747 0.84891 0.60622 0.0
O222 O 0.82844 0.8511 0.62313 0.0
C223 C 0.84812 0.82253 0.5047 0.0
Zn224 Zn 0.92336 0.05304 0.26918 0.0
Zn225 Zn 0.9026 0.09622 0.29857 0.0
O226 O 0.88887 0.1031 0.25945 0.0
O227 O 0.90671 0.06937 0.23548 0.0
O228 O 0.88932 0.12776 0.32151 0.0
O229 O 0.96171 0.06321 0.28212 0.0
O230 O 0.94432 0.0981 0.30464 0.0
C231 C 0.89204 0.09034 0.23683 0.0
C232 C 0.88366 0.03807 0.31061 0.0
O233 O 0.88334 0.06352 0.31573 0.0
O234 O 0.89896 0.02847 0.29202 0.0
C235 C 0.86642 0.13904 0.31742 0.0
O236 O 0.84998 0.12944 0.29808 0.0
C237 C 0.96484 0.08392 0.29755 0.0
Zn238 Zn 0.56843 0.16164 0.03583 0.0
Zn239 Zn 0.60549 0.13656 0.06675 0.0
O240 O 0.6171 0.17691 0.07129 0.0
O241 O 0.58855 0.19731 0.044 0.0
O242 O 0.6369 0.11638 0.08363 0.0
O243 O 0.57692 0.14073 0.00146 0.0
O244 O 0.6072 0.12065 0.02751 0.0
C245 C 0.6087 0.19868 0.06048 0.0
C246 C 0.54561 0.13531 0.08459 0.0
O247 O 0.57034 0.12854 0.08935 0.0
O248 O 0.53982 0.14827 0.06313 0.0
C249 C 0.63796 0.10129 0.10454 0.0
O250 O 0.61625 0.0981 0.12039 0.0
C251 C 0.59572 0.12365 0.00437 0.0
Zn252 Zn 0.52372 0.87809 0.77589 0.0
Zn253 Zn 0.55151 0.83728 0.79711 0.0
O254 O 0.56136 0.8328 0.75667 0.0
O255 O 0.54062 0.86813 0.73918 0.0
O256 O 0.56858 0.80497 0.8155 0.0
O257 O 0.48718 0.86428 0.78827 0.0
O258 O 0.51024 0.83127 0.80698 0.0
C259 C 0.5561 0.84785 0.73637 0.0
C260 C 0.56487 0.89655 0.81354 0.0
O261 O 0.57136 0.87154 0.81309 0.0
O262 O 0.54347 0.90394 0.80121 0.0
C263 C 0.58724 0.80539 0.83378 0.0
O264 O 0.59805 0.82869 0.8424 0.0
C265 C 0.48752 0.84301 0.80255 0.0
Zn266 Zn 0.80451 0.15639 0.90343 0.0
Zn267 Zn 0.85084 0.13239 0.89144 0.0
O268 O 0.84552 0.12299 0.93178 0.0
O269 O 0.81434 0.15273 0.94385 0.0
O270 O 0.88762 0.11839 0.87936 0.0
O271 O 0.81407 0.18914 0.88034 0.0
O272 O 0.8556 0.17265 0.88054 0.0
C273 C 0.83026 0.13361 0.95004 0.0
C274 C 0.79743 0.1076 0.87095 0.0
O275 O 0.82353 0.10932 0.86898 0.0
O276 O 0.78436 0.12452 0.88543 0.0
C277 C 0.8914 0.09555 0.86758 0.0
O278 O 0.87109 0.07744 0.86573 0.0
C279 C 0.83937 0.19165 0.87445 0.0
Zn280 Zn 0.54822 0.15766 0.68688 0.0
Zn281 Zn 0.57252 0.11698 0.65729 0.0
O282 O 0.53113 0.1096 0.65151 0.0
O283 O 0.51077 0.14152 0.67588 0.0
O284 O 0.59039 0.08533 0.63801 0.0
O285 O 0.56734 0.14525 0.72127 0.0
O286 O 0.58653 0.11288 0.69663 0.0
C287 C 0.50932 0.1209 0.66007 0.0
C288 C 0.58278 0.17643 0.64149 0.0
O289 O 0.58684 0.15117 0.63721 0.0
O290 O 0.56783 0.18421 0.66126 0.0
C291 C 0.58285 0.0613 0.64467 0.0
O292 O 0.56351 0.05781 0.66324 0.0
C293 C 0.58301 0.12505 0.71949 0.0
Zn294 Zn 0.6411 0.7891 0.40428 0.0
Zn295 Zn 0.59534 0.81445 0.39116 0.0
O296 O 0.60094 0.82758 0.43055 0.0
O297 O 0.63222 0.79879 0.44408 0.0
O298 O 0.55965 0.82937 0.37766 0.0
O299 O 0.62813 0.75469 0.38453 0.0
O300 O 0.58773 0.77366 0.38448 0.0
C301 C 0.61631 0.81839 0.44922 0.0
C302 C 0.65001 0.83312 0.36711 0.0
O303 O 0.62383 0.83284 0.3663 0.0
O304 O 0.66261 0.81715 0.38262 0.0
C305 C 0.55738 0.85132 0.36438 0.0
O306 O 0.57867 0.86813 0.36177 0.0
C307 C 0.60258 0.75315 0.37956 0.0
Zn308 Zn 0.91003 0.79645 0.17365 0.0
Zn309 Zn 0.88177 0.83693 0.14896 0.0
O310 O 0.92256 0.84574 0.13996 0.0
O311 O 0.94597 0.81412 0.16093 0.0
O312 O 0.86133 0.86988 0.13563 0.0
O313 O 0.89333 0.80511 0.21062 0.0
O314 O 0.87011 0.83668 0.18954 0.0
C315 C 0.9454 0.83496 0.14592 0.0
C316 C 0.87265 0.77845 0.12943 0.0
O317 O 0.86706 0.80357 0.12694 0.0
O318 O 0.88938 0.77079 0.14753 0.0
C319 C 0.86761 0.88338 0.11436 0.0
O320 O 0.8878 0.87527 0.09851 0.0
C321 C 0.87579 0.82377 0.21122 0.0
Zn322 Zn 0.78793 0.51581 0.90878 0.0
Zn323 Zn 0.81031 0.53509 0.86113 0.0
O324 O 0.77056 0.54784 0.86053 0.0
O325 O 0.7516 0.53305 0.89883 0.0
O326 O 0.82557 0.54767 0.82527 0.0
O327 O 0.79769 0.47717 0.89714 0.0
O328 O 0.8171 0.49418 0.85998 0.0
C329 C 0.75006 0.54618 0.87675 0.0
C330 C 0.83371 0.55556 0.91493 0.0
O331 O 0.83389 0.55614 0.88894 0.0
O332 O 0.81692 0.54011 0.92772 0.0
C333 C 0.81939 0.57076 0.81592 0.0
O334 O 0.80273 0.58653 0.82975 0.0
C335 C 0.81103 0.47395 0.87508 0.0
Zn336 Zn 0.29586 0.9347 0.05346 0.0
Zn337 Zn 0.32179 0.90954 0.09478 0.0
O338 O 0.28094 0.90011 0.10265 0.0
O339 O 0.25953 0.92139 0.06964 0.0
O340 O 0.34168 0.89397 0.12689 0.0
O341 O 0.3128 0.9713 0.06424 0.0
O342 O 0.33372 0.95007 0.09753 0.0
C343 C 0.25878 0.90641 0.09056 0.0
C344 C 0.33138 0.89096 0.03582 0.0
O345 O 0.33619 0.88839 0.06127 0.0
O346 O 0.31561 0.90926 0.02741 0.0
C347 C 0.33744 0.8697 0.13489 0.0
O348 O 0.32001 0.85355 0.12155 0.0
C349 C 0.32886 0.97184 0.08462 0.0
Zn350 Zn 0.15411 0.03189 0.54511 0.0
Zn351 Zn 0.12713 0.05514 0.58771 0.0
O352 O 0.16784 0.06497 0.59645 0.0
O353 O 0.18995 0.04562 0.56215 0.0
O354 O 0.10679 0.06751 0.62161 0.0
O355 O 0.13819 -0.00561 0.5537 0.0
O356 O 0.11629 0.0143 0.58772 0.0
C357 C 0.19025 0.05949 0.58417 0.0
C358 C 0.11702 0.07485 0.52944 0.0
O359 O 0.11197 0.07687 0.55504 0.0
O360 O 0.13348 0.05722 0.52038 0.0
C361 C 0.11327 0.08866 0.63563 0.0
O362 O 0.13325 0.10505 0.62715 0.0
C363 C 0.1218 -0.00702 0.57384 0.0
Zn364 Zn 0.17891 0.92536 0.81979 0.0
Zn365 Zn 0.14473 0.90994 0.85992 0.0
O366 O 0.14075 0.9517 0.85726 0.0
O367 O 0.17284 0.96503 0.828 0.0
O368 O 0.12443 0.8994 0.89437 0.0
O369 O 0.21078 0.90488 0.83458 0.0
O370 O 0.18201 0.89197 0.86711 0.0
C371 C 0.15308 0.97058 0.84392 0.0
C372 C 0.13053 0.89256 0.80275 0.0
O373 O 0.1244 0.89163 0.82807 0.0
O374 O 0.1519 0.9054 0.7945 0.0
C375 C 0.11832 0.87457 0.89916 0.0
O376 O 0.12277 0.85589 0.88031 0.0
C377 C 0.20559 0.891 0.85568 0.0
Zn378 Zn 0.65779 0.42925 0.32138 0.0
Zn379 Zn 0.62745 0.40398 0.35497 0.0
O380 O 0.62049 0.44491 0.36297 0.0
O381 O 0.64197 0.46577 0.32919 0.0
O382 O 0.61016 0.38596 0.38795 0.0
O383 O 0.69392 0.41876 0.33732 0.0
O384 O 0.6666 0.38743 0.35514 0.0
C385 C 0.6261 0.46658 0.3497 0.0
C386 C 0.61666 0.39233 0.29646 0.0
O387 O 0.60641 0.39167 0.3205 0.0
O388 O 0.6397 0.40448 0.29255 0.0
C389 C 0.6065 0.36046 0.39106 0.0
O390 O 0.6117 0.34357 0.37077 0.0
C391 C 0.69079 0.39597 0.34883 0.0
Zn392 Zn 0.79538 0.42404 0.53985 0.0
Zn393 Zn 0.81917 0.40007 0.58329 0.0
O394 O 0.77795 0.39071 0.58924 0.0
O395 O 0.75833 0.41069 0.55431 0.0
O396 O 0.83741 0.38645 0.61736 0.0
O397 O 0.81119 0.46114 0.55063 0.0
O398 O 0.8306 0.44073 0.58532 0.0
C399 C 0.75648 0.39654 0.57576 0.0
C400 C 0.83259 0.38043 0.52537 0.0
O401 O 0.83582 0.37825 0.55115 0.0
O402 O 0.81729 0.39854 0.51575 0.0
C403 C 0.832 0.36347 0.62804 0.0
O404 O 0.81422 0.34656 0.61616 0.0
C405 C 0.82624 0.46219 0.57174 0.0
Zn406 Zn 0.66651 0.52915 0.13042 0.0
Zn407 Zn 0.64076 0.55123 0.0897 0.0
O408 O 0.63282 0.51056 0.08234 0.0
O409 O 0.6508 0.49223 0.11899 0.0
O410 O 0.62646 0.56864 0.05527 0.0
O411 O 0.7042 0.54121 0.11949 0.0
O412 O 0.68203 0.56412 0.08827 0.0
C413 C 0.63719 0.48982 0.09698 0.0
C414 C 0.62319 0.56382 0.14831 0.0
O415 O 0.61727 0.56399 0.12287 0.0
O416 O 0.64533 0.55314 0.15594 0.0
C417 C 0.60281 0.57765 0.0496 0.0
O418 O 0.58308 0.57693 0.06805 0.0
C419 C 0.70442 0.55808 0.1002 0.0
Zn420 Zn 0.61634 0.64498 0.83322 0.0
Zn421 Zn 0.60464 0.63926 0.88754 0.0
O422 O 0.57039 0.62172 0.86938 0.0
O423 O 0.57862 0.62867 0.82556 0.0
O424 O 0.60039 0.63292 0.92848 0.0
O425 O 0.64964 0.62131 0.83601 0.0
O426 O 0.6402 0.61856 0.88007 0.0
C427 C 0.56287 0.62003 0.84443 0.0
C428 C 0.61143 0.69608 0.86167 0.0
O429 O 0.60574 0.68113 0.88225 0.0
O430 O 0.61849 0.68552 0.83905 0.0
C431 C 0.58821 0.61143 0.93718 0.0
O432 O 0.57604 0.59466 0.91961 0.0
C433 C 0.65519 0.6126 0.85956 0.0
Zn434 Zn 0.54824 0.30052 0.16306 0.0
Zn435 Zn 0.564 0.34463 0.13551 0.0
O436 O 0.52436 0.33993 0.12229 0.0
O437 O 0.50902 0.30845 0.15074 0.0
O438 O 0.57799 0.3796 0.11894 0.0
O439 O 0.56486 0.31544 0.19834 0.0
O440 O 0.56876 0.35396 0.17634 0.0
C441 C 0.50477 0.32492 0.13144 0.0
C442 C 0.58793 0.28942 0.1209 0.0
O443 O 0.58889 0.31529 0.11897 0.0
O444 O 0.57169 0.27794 0.13775 0.0
C445 C 0.59038 0.38233 0.09617 0.0
O446 O 0.59362 0.36116 0.0799 0.0
C447 C 0.57056 0.34072 0.19847 0.0
Zn448 Zn 0.82364 0.29126 0.32696 0.0
Zn449 Zn 0.8352 0.30021 0.37954 0.0
O450 O 0.87002 0.31558 0.36108 0.0
O451 O 0.85955 0.31072 0.31731 0.0
O452 O 0.83928 0.31068 0.4195 0.0
O453 O 0.78789 0.31073 0.32854 0.0
O454 O 0.79969 0.32111 0.37085 0.0
C455 C 0.87634 0.31818 0.33592 0.0
C456 C 0.83216 0.24199 0.35608 0.0
O457 O 0.83565 0.25797 0.37666 0.0
O458 O 0.82568 0.25123 0.33299 0.0
C459 C 0.86158 0.31596 0.43233 0.0
O460 O 0.88543 0.31178 0.42043 0.0
C461 C 0.78323 0.32326 0.35075 0.0
Zn462 Zn 0.90178 0.6451 0.68522 0.0
Zn463 Zn 0.8815 0.60562 0.65431 0.0
O464 O 0.92341 0.60605 0.64653 0.0
O465 O 0.94028 0.63152 0.68006 0.0
O466 O 0.8666 0.57223 0.63457 0.0
O467 O 0.88098 0.634 0.71865 0.0
O468 O 0.8682 0.59814 0.6938 0.0
C469 C 0.94407 0.61654 0.65924 0.0
C470 C 0.86919 0.66287 0.63865 0.0
O471 O 0.86333 0.6376 0.63553 0.0
O472 O 0.88548 0.67086 0.65753 0.0
C473 C 0.87506 0.56382 0.61143 0.0
O474 O 0.89451 0.57756 0.59842 0.0
C475 C 0.86862 0.61114 0.71652 0.0
Zn476 Zn 0.59051 0.37905 0.55549 0.0
Zn477 Zn 0.59448 0.32453 0.5636 0.0
O478 O 0.63191 0.33975 0.57738 0.0
O479 O 0.6297 0.38381 0.56962 0.0
O480 O 0.59395 0.28486 0.57454 0.0
O481 O 0.55669 0.38154 0.58006 0.0
O482 O 0.55955 0.33698 0.5835 0.0
C483 C 0.64323 0.36346 0.57718 0.0
C484 C 0.5894 0.34566 0.50552 0.0
O485 O 0.59255 0.32558 0.5215 0.0
O486 O 0.58668 0.36959 0.51503 0.0
C487 C 0.61484 0.27039 0.57892 0.0
O488 O 0.63974 0.28021 0.57388 0.0
C489 C 0.5473 0.35904 0.58891 0.0
Zn490 Zn 0.914 0.30571 0.76729 0.0
Zn491 Zn 0.88587 0.34294 0.79464 0.0
O492 O 0.92519 0.35424 0.80509 0.0
O493 O 0.9485 0.32072 0.78654 0.0
O494 O 0.86355 0.37227 0.81251 0.0
O495 O 0.90159 0.31872 0.73053 0.0
O496 O 0.87475 0.34613 0.75389 0.0
C497 C 0.94769 0.34187 0.80163 0.0
C498 C 0.87808 0.28257 0.80792 0.0
O499 O 0.87505 0.30752 0.81449 0.0
O500 O 0.89125 0.27652 0.78637 0.0
C501 C 0.86015 0.37416 0.83823 0.0
O502 O 0.87047 0.35574 0.85432 0.0
C503 C 0.88278 0.33612 0.73111 0.0
Zn504 Zn 0.87008 0.57048 0.05967 0.0
Zn505 Zn 0.8661 0.62542 0.06181 0.0
O506 O 0.82756 0.61171 0.07349 0.0
O507 O 0.83015 0.56691 0.07093 0.0
O508 O 0.86579 0.66602 0.06964 0.0
O509 O 0.9011 0.56967 0.08687 0.0
O510 O 0.89958 0.61445 0.08457 0.0
C511 C 0.8164 0.58807 0.07555 0.0
C512 C 0.87729 0.59844 0.00724 0.0
O513 O 0.87167 0.62004 0.02063 0.0
O514 O 0.87865 0.57591 0.01957 0.0
C515 C 0.84445 0.68055 0.07074 0.0
O516 O 0.82025 0.66987 0.06414 0.0
C517 C 0.91071 0.59301 0.09335 0.0
Zn518 Zn 0.52595 0.64142 0.2712 0.0
Zn519 Zn 0.54649 0.60122 0.30167 0.0
O520 O 0.50623 0.59452 0.30914 0.0
O521 O 0.48819 0.6279 0.28581 0.0
O522 O 0.56472 0.56999 0.32012 0.0
O523 O 0.54438 0.62858 0.23641 0.0
O524 O 0.55829 0.59511 0.26165 0.0
C525 C 0.48547 0.60802 0.30209 0.0
C526 C 0.55896 0.66119 0.31626 0.0
O527 O 0.55987 0.63603 0.32223 0.0
O528 O 0.54743 0.66834 0.29436 0.0
C529 C 0.57526 0.56941 0.34389 0.0
O530 O 0.57446 0.59091 0.3601 0.0
C531 C 0.55742 0.60672 0.23849 0.0
Zn532 Zn 0.66849 0.93274 0.56644 0.0
Zn533 Zn 0.64089 0.90264 0.60387 0.0
O534 O 0.68104 0.89458 0.6126 0.0
O535 O 0.70422 0.91836 0.58179 0.0
O536 O 0.62029 0.88333 0.63386 0.0
O537 O 0.6517 0.96768 0.58033 0.0
O538 O 0.62881 0.94227 0.61 0.0
C539 C 0.70377 0.90161 0.60135 0.0
C540 C 0.63468 0.88859 0.54334 0.0
O541 O 0.62917 0.88314 0.5682 0.0
O542 O 0.6496 0.90926 0.53739 0.0
C543 C 0.609 0.8597 0.63314 0.0
O544 O 0.61035 0.84451 0.61091 0.0
C545 C 0.63456 0.96549 0.59978 0.0
Zn546 Zn 0.36874 0.27831 0.03683 0.0
Zn547 Zn 0.34051 0.31273 0.06617 0.0
O548 O 0.32929 0.27632 0.08382 0.0
O549 O 0.35538 0.24773 0.0611 0.0
O550 O 0.31286 0.33922 0.08102 0.0
O551 O 0.35305 0.28674 -8e-05 0.0
O552 O 0.33507 0.31932 0.025 0.0
C553 C 0.33915 0.25265 0.08076 0.0
C554 C 0.40219 0.31448 0.07146 0.0
O555 O 0.37916 0.32261 0.08072 0.0
O556 O 0.40295 0.29847 0.05091 0.0
C557 C 0.30507 0.34379 0.10542 0.0
O558 O 0.31676 0.33138 0.12587 0.0
C559 C 0.33955 0.30837 0.00173 0.0
Zn560 Zn 0.41504 0.54784 0.78037 0.0
Zn561 Zn 0.39323 0.59387 0.80316 0.0
O562 O 0.38155 0.59719 0.76309 0.0
O563 O 0.40092 0.56139 0.74394 0.0
O564 O 0.37806 0.62665 0.82264 0.0
O565 O 0.45216 0.5592 0.79574 0.0
O566 O 0.43469 0.59776 0.81032 0.0
C567 C 0.38642 0.58242 0.74209 0.0
C568 C 0.37396 0.53675 0.82071 0.0
O569 O 0.37355 0.56257 0.82265 0.0
O570 O 0.38981 0.52507 0.80394 0.0
C571 C 0.3743 0.6266 0.84842 0.0
O572 O 0.38033 0.60505 0.8627 0.0
C573 C 0.45521 0.5823 0.80727 0.0
Zn574 Zn 0.0554 0.65153 0.55004 0.0
Zn575 Zn 0.10021 0.63209 0.57538 0.0
O576 O 0.10663 0.67263 0.58272 0.0
O577 O 0.06956 0.68898 0.56348 0.0
O578 O 0.13488 0.61404 0.58798 0.0
O579 O 0.06387 0.63353 0.51372 0.0
O580 O 0.10078 0.62053 0.53517 0.0
C581 C 0.09119 0.69257 0.5778 0.0
C582 C 0.04199 0.61872 0.5966 0.0
O583 O 0.06807 0.61743 0.59943 0.0
O584 O 0.03176 0.63097 0.57654 0.0
C585 C 0.13762 0.59659 0.60675 0.0
O586 O 0.11657 0.58999 0.62248 0.0
C587 C 0.08631 0.621 0.5135 0.0
Zn588 Zn 0.02589 0.38514 0.27462 0.0
Zn589 Zn 0.04831 0.34093 0.29914 0.0
O590 O 0.06171 0.33751 0.25919 0.0
O591 O 0.04246 0.37235 0.23906 0.0
O592 O 0.06252 0.30802 0.31857 0.0
O593 O -0.01217 0.37329 0.28683 0.0
O594 O 0.00657 0.33781 0.30619 0.0
C595 C 0.05788 0.35191 0.23804 0.0
C596 C 0.06632 0.39825 0.31625 0.0
O597 O 0.06759 0.37258 0.31894 0.0
O598 O 0.05 0.40858 0.2993 0.0
C599 C 0.08514 0.29676 0.31272 0.0
O600 O 0.10095 0.30705 0.29338 0.0
C601 C -0.01451 0.3517 0.30062 0.0
Zn602 Zn 0.30667 0.66904 0.41397 0.0
Zn603 Zn 0.3465 0.64087 0.39122 0.0
O604 O 0.34495 0.62855 0.43155 0.0
O605 O 0.31934 0.65927 0.45181 0.0
O606 O 0.38056 0.6254 0.37449 0.0
O607 O 0.31708 0.70463 0.39649 0.0
O608 O 0.35146 0.68089 0.38008 0.0
C609 C 0.33367 0.63809 0.4531 0.0
C610 C 0.2897 0.624 0.37671 0.0
O611 O 0.31512 0.62216 0.3711 0.0
O612 O 0.28149 0.64158 0.39394 0.0
C613 C 0.38142 0.60505 0.3582 0.0
O614 O 0.35917 0.58993 0.35362 0.0
C615 C 0.33891 0.70326 0.38247 0.0
Zn616 Zn 0.0418 0.65566 0.18446 0.0
Zn617 Zn 0.07429 0.61783 0.15916 0.0
O618 O 0.03465 0.608 0.14709 0.0
O619 O 0.00799 0.63764 0.16791 0.0
O620 O 0.09631 0.58602 0.14418 0.0
O621 O 0.05516 0.64478 0.22164 0.0
O622 O 0.08185 0.61534 0.20057 0.0
C623 C 0.01088 0.61753 0.15183 0.0
C624 C 0.08124 0.67785 0.14453 0.0
O625 O 0.08869 0.6533 0.14076 0.0
O626 O 0.06263 0.68351 0.16177 0.0
C627 C 0.08995 0.57334 0.12213 0.0
O628 O 0.06988 0.58225 0.10689 0.0
C629 C 0.07305 0.62649 0.22249 0.0
Zn630 Zn 0.13171 0.29582 0.91249 0.0
Zn631 Zn 0.0851 0.31821 0.89503 0.0
O632 O 0.0845 0.32932 0.93536 0.0
O633 O 0.1185 0.30552 0.9512 0.0
O634 O 0.04979 0.33104 0.87842 0.0
O635 O 0.12212 0.26073 0.89181 0.0
O636 O 0.08106 0.27743 0.88668 0.0
C637 C 0.0986 0.32138 0.95557 0.0
C638 C 0.14108 0.33957 0.87528 0.0
O639 O 0.11495 0.33865 0.87326 0.0
O640 O 0.15334 0.32415 0.8916 0.0
C641 C 0.04736 0.35231 0.8641 0.0
O642 O 0.06815 0.36977 0.86175 0.0
C643 C 0.0975 0.25783 0.88363 0.0
Zn644 Zn 0.41281 0.30237 0.68083 0.0
Zn645 Zn 0.38316 0.3417 0.65633 0.0
O646 O 0.42317 0.34955 0.64392 0.0
O647 O 0.44784 0.31837 0.66402 0.0
O648 O 0.36247 0.37344 0.64144 0.0
O649 O 0.39912 0.31406 0.71828 0.0
O650 O 0.37404 0.34437 0.6974 0.0
C651 C 0.44628 0.33857 0.64826 0.0
C652 C 0.37133 0.28255 0.64132 0.0
O653 O 0.36622 0.30759 0.63774 0.0
O654 O 0.38947 0.27548 0.65829 0.0
C655 C 0.36548 0.38189 0.61712 0.0
O656 O 0.38191 0.3691 0.60016 0.0
C657 C 0.38153 0.33267 0.7192 0.0
Zn658 Zn 0.29422 0.01661 0.41342 0.0
Zn659 Zn 0.32487 0.0409 0.37285 0.0
O660 O 0.28545 0.05344 0.36678 0.0
O661 O 0.25965 0.03289 0.39797 0.0
O662 O 0.34504 0.05497 0.33986 0.0
O663 O 0.30696 -0.02073 0.40142 0.0
O664 O 0.33226 0.00022 0.37015 0.0
C665 C 0.26208 0.04879 0.37785 0.0
C666 C 0.33688 0.05718 0.43095 0.0
O667 O 0.34268 0.06003 0.40574 0.0
O668 O 0.31808 0.04056 0.43863 0.0
C669 C 0.34003 0.07819 0.33014 0.0
O670 O 0.32229 0.09395 0.34255 0.0
C671 C 0.32416 -0.02151 0.38195 0.0
C672 C 0.0735 0.24906 0.32828 0.0
C673 C 0.09287 0.2712 0.32652 0.0
C674 C 0.12871 0.24247 0.34561 0.0
C675 C 0.10904 0.22087 0.34812 0.0
N676 N 0.06127 0.20614 0.34951 0.0
N677 N 0.13677 0.29109 0.34034 0.0
C678 C 0.0809 0.22519 0.3423 0.0
C679 C 0.11988 0.26857 0.3373 0.0
N680 N 0.04893 0.24972 0.31464 0.0
N681 N 0.15589 0.23783 0.35055 0.0
H682 H 0.13062 0.31065 0.33541 0.0
H683 H 0.15574 0.2908 0.35025 0.0
H684 H 0.16261 0.21932 0.3581 0.0
H685 H 0.17172 0.25176 0.34595 0.0
H686 H 0.0355 0.2329 0.31289 0.0
H687 H 0.04319 0.26586 0.30241 0.0
H688 H 0.04019 0.20943 0.34805 0.0
H689 H 0.06594 0.18818 0.3595 0.0
C690 C 0.96081 0.86227 0.62512 0.0
C691 C 0.97203 0.83776 0.63504 0.0
C692 C 0.93146 0.81215 0.61856 0.0
C693 C 0.92261 0.83551 0.60475 0.0
N694 N 0.92894 0.88273 0.59336 0.0
N695 N 0.97106 0.78826 0.63392 0.0
C696 C 0.93721 0.86069 0.60771 0.0
C697 C 0.95806 0.81237 0.63011 0.0
N698 N 0.9723 0.88688 0.63272 0.0
N699 N 0.91477 0.78934 0.61981 0.0
H700 H -0.00827 0.78701 0.63943 0.0
H701 H 0.96244 0.76943 0.62807 0.0
H702 H 0.89516 0.78828 0.6111 0.0
H703 H 0.9193 0.77263 0.63184 0.0
H704 H 0.96369 0.90546 0.62798 0.0
H705 H -0.01077 0.88866 0.6458 0.0
H706 H 0.94039 0.90091 0.59222 0.0
H707 H 0.91107 0.88219 0.58147 0.0
C708 C 0.32768 0.68276 0.87345 0.0
C709 C 0.34771 0.70378 0.87814 0.0
C710 C 0.38453 0.67076 0.87234 0.0
C711 C 0.36476 0.65147 0.86238 0.0
N712 N 0.31747 0.63778 0.85421 0.0
N713 N 0.39578 0.7183 0.8809 0.0
C714 C 0.33622 0.65693 0.86353 0.0
C715 C 0.37632 0.69783 0.87801 0.0
N716 N 0.30054 0.68777 0.87845 0.0
N717 N 0.41124 0.66329 0.87594 0.0
H718 H 0.39114 0.73844 0.88539 0.0
H719 H 0.41669 0.7157 0.87711 0.0
H720 H 0.41803 0.64377 0.8713 0.0
H721 H 0.42603 0.67558 0.88582 0.0
H722 H 0.2849 0.67289 0.87751 0.0
H723 H 0.29407 0.70654 0.88606 0.0
H724 H 0.29662 0.64151 0.85155 0.0
H725 H 0.32308 0.61829 0.8479 0.0
C726 C 0.49246 0.1067 0.13553 0.0
C727 C 0.47743 0.13071 0.14092 0.0
C728 C 0.51152 0.1574 0.11501 0.0
C729 C 0.52412 0.13309 0.10615 0.0
N730 N 0.5254 0.08405 0.10597 0.0
N731 N 0.46908 0.17766 0.12922 0.0
C732 C 0.51442 0.10751 0.11599 0.0
C733 C 0.48603 0.15578 0.12898 0.0
N734 N 0.48624 0.08341 0.14953 0.0
N735 N 0.52414 0.18217 0.1105 0.0
H736 H 0.44915 0.17698 0.13721 0.0
H737 H 0.47351 0.19546 0.11845 0.0
H738 H 0.54342 0.18426 0.10113 0.0
H739 H 0.51692 0.20032 0.11882 0.0
H740 H 0.49808 0.06601 0.1484 0.0
H741 H 0.47058 0.08228 0.16418 0.0
H742 H 0.5172 0.06471 0.11009 0.0
H743 H 0.54163 0.08401 0.09192 0.0
C744 C 0.11651 0.7145 0.13358 0.0
C745 C 0.09167 0.70022 0.12695 0.0
C746 C 0.07716 0.73789 0.09832 0.0
C747 C 0.10188 0.75254 0.10518 0.0
N748 N 0.14805 0.75222 0.12325 0.0
N749 N 0.0526 0.69423 0.09715 0.0
C750 C 0.12257 0.73994 0.12086 0.0
C751 C 0.07353 0.71057 0.10717 0.0
N752 N 0.13361 0.70433 0.15293 0.0
N753 N 0.05619 0.7506 0.0853 0.0
H754 H 0.04956 0.67412 0.10341 0.0
H755 H 0.04017 0.6996 0.08081 0.0
H756 H 0.0574 0.77079 0.07902 0.0
H757 H 0.03658 0.74183 0.08276 0.0
H758 H 0.15037 0.71523 0.16118 0.0
H759 H 0.13017 0.68527 0.16172 0.0
H760 H 0.16478 0.74308 0.13239 0.0
H761 H 0.15314 0.77063 0.11378 0.0
C762 C 0.48129 0.85114 0.34932 0.0
C763 C 0.48133 0.85148 0.3202 0.0
C764 C 0.53174 0.85535 0.31995 0.0
C765 C 0.53161 0.85564 0.34904 0.0
N766 N 0.50648 0.86156 0.3911 0.0
N767 N 0.50558 0.86158 0.27836 0.0
C768 C 0.50639 0.8562 0.36359 0.0
C769 C 0.50628 0.85618 0.30572 0.0
N770 N 0.45788 0.84398 0.36342 0.0
N771 N 0.55587 0.85234 0.30584 0.0
H772 H 0.48714 0.86266 0.2675 0.0
H773 H 0.52292 0.86771 0.26719 0.0
H774 H 0.57504 0.85114 0.31525 0.0
H775 H 0.55664 0.84875 0.2848 0.0
H776 H 0.45765 0.8403 0.38437 0.0
H777 H 0.43908 0.83931 0.35407 0.0
H778 H 0.4886 0.86487 0.40239 0.0
H779 H 0.52464 0.86547 0.40204 0.0
C780 C 0.32716 0.21973 0.62808 0.0
C781 C 0.33792 0.21106 0.60245 0.0
C782 C 0.36644 0.25286 0.59956 0.0
C783 C 0.35642 0.26098 0.62559 0.0
N784 N 0.32245 0.25661 0.66125 0.0
N785 N 0.36193 0.22177 0.56067 0.0
C786 C 0.33505 0.24587 0.63866 0.0
C787 C 0.35566 0.22851 0.58714 0.0
N788 N 0.31093 0.20232 0.64313 0.0
N789 N 0.38714 0.26776 0.58738 0.0
H790 H 0.35407 0.20412 0.5511 0.0
H791 H 0.37281 0.23462 0.54748 0.0
H792 H 0.39465 0.28626 0.59546 0.0
H793 H 0.39775 0.26132 0.57004 0.0
H794 H 0.30523 0.20614 0.66333 0.0
H795 H 0.30444 0.1831 0.63606 0.0
H796 H 0.30501 0.24788 0.67038 0.0
H797 H 0.328 0.27573 0.66937 0.0
C798 C 0.96787 0.0981 0.85375 0.0
C799 C 0.96844 0.09559 0.82472 0.0
C800 C 0.9182 0.08954 0.82387 0.0
C801 C 0.91772 0.09139 0.85292 0.0
N802 N 0.94219 0.08999 0.89563 0.0
N803 N 0.94554 0.08183 0.783 0.0
C804 C 0.94266 0.09313 0.86788 0.0
C805 C 0.944 0.0889 0.81008 0.0
N806 N -0.00924 0.10715 0.86776 0.0
N807 N 0.89422 0.09033 0.80928 0.0
H808 H 0.96425 0.081 0.77247 0.0
H809 H 0.92874 0.07421 0.77182 0.0
H810 H 0.8748 0.09122 0.81834 0.0
H811 H 0.89367 0.09233 0.7881 0.0
H812 H -0.00955 0.11242 0.88846 0.0
H813 H 0.00962 0.11169 0.85844 0.0
H814 H 0.95995 0.0884 0.9074 0.0
H815 H 0.92396 0.08621 0.90649 0.0
C816 C 0.39296 0.09439 0.2747 0.0
C817 C 0.37556 0.10353 0.25358 0.0
C818 C 0.3349 0.09199 0.28131 0.0
C819 C 0.35236 0.08639 0.3037 0.0
N820 N 0.39807 0.08567 0.32309 0.0
N821 N 0.33001 0.11536 0.23838 0.0
C822 C 0.38145 0.08835 0.30076 0.0
C823 C 0.3465 0.10338 0.25721 0.0
N824 N 0.42036 0.0908 0.2696 0.0
N825 N 0.30734 0.08555 0.28266 0.0
H826 H 0.33755 0.12438 0.22058 0.0
H827 H 0.3091 0.11856 0.24163 0.0
H828 H 0.29807 0.0766 0.29973 0.0
H829 H 0.2942 0.08653 0.26589 0.0
H830 H 0.43355 0.08159 0.2833 0.0
H831 H 0.42937 0.09462 0.25058 0.0
H832 H 0.41922 0.08983 0.32275 0.0
H833 H 0.39043 0.08164 0.34263 0.0
C834 C 0.07599 0.09762 0.46811 0.0
C835 C 0.09145 0.12157 0.46131 0.0
C836 C 0.11662 0.11927 0.50483 0.0
C837 C 0.10427 0.09324 0.50944 0.0
N838 N 0.07142 0.05777 0.49713 0.0
N839 N 0.1252 0.15645 0.47319 0.0
C840 C 0.08334 0.08269 0.49177 0.0
C841 C 0.11114 0.13296 0.47991 0.0
N842 N 0.05465 0.08896 0.45169 0.0
N843 N 0.13378 0.13062 0.52422 0.0
H844 H 0.12043 0.16778 0.45596 0.0
H845 H 0.14206 0.1644 0.48399 0.0
H846 H 0.13834 0.12084 0.54244 0.0
H847 H 0.14193 0.15039 0.52342 0.0
H848 H 0.04091 0.07316 0.4566 0.0
H849 H 0.04939 0.09877 0.43371 0.0
H850 H 0.05846 0.04706 0.48367 0.0
H851 H 0.07527 0.04721 0.51509 0.0
C852 C 0.09208 0.89429 0.76907 0.0
C853 C 0.11253 0.87907 0.78228 0.0
C854 C 0.10553 0.84138 0.74972 0.0
C855 C 0.08427 0.85612 0.7371 0.0
N856 N 0.05345 0.89396 0.73764 0.0
N857 N 0.13527 0.83664 0.78916 0.0
C858 C 0.07641 0.88186 0.74759 0.0
C859 C 0.11807 0.85205 0.7739 0.0
N860 N 0.08815 0.92084 0.77663 0.0
N861 N 0.11481 0.81797 0.73776 0.0
H862 H 0.14507 0.84407 0.8068 0.0
H863 H 0.13796 0.81589 0.78576 0.0
H864 H 0.10655 0.80968 0.71973 0.0
H865 H 0.13223 0.80795 0.74432 0.0
H866 H 0.07605 0.93408 0.76563 0.0
H867 H 0.09829 0.93017 0.79319 0.0
H868 H 0.045 0.91134 0.74631 0.0
H869 H 0.04136 0.88532 0.72202 0.0
C870 C 0.32851 0.8333 -0.01519 0.0
C871 C 0.35093 0.84053 0.96732 0.0
C872 C 0.36426 0.87818 -0.00157 0.0
C873 C 0.34178 0.87099 0.01564 0.0
N874 N 0.30773 0.83755 0.02979 0.0
N875 N 0.39413 0.86488 0.96089 0.0
C876 C 0.32583 0.84697 0.01042 0.0
C877 C 0.37014 0.8614 0.9753 0.0
N878 N 0.30845 0.81514 0.97616 0.0
N879 N 0.37936 0.90149 0.00377 0.0
H880 H 0.39915 0.85251 0.94418 0.0
H881 H 0.41009 0.87817 0.96693 0.0
H882 H 0.37635 0.91335 0.02135 0.0
H883 H 0.39391 0.9097 -0.0097 0.0
H884 H 0.29004 0.81172 -0.01327 0.0
H885 H 0.30883 0.80511 0.95728 0.0
H886 H 0.29737 0.81875 0.02828 0.0
H887 H 0.30524 0.84729 0.04867 0.0
C888 C 0.39323 0.855 0.18694 0.0
C889 C 0.37705 0.84494 0.20902 0.0
C890 C 0.33482 0.85238 0.18295 0.0
C891 C 0.35106 0.86033 0.16007 0.0
N892 N 0.39567 0.86443 0.13839 0.0
N893 N 0.333 0.82851 0.22601 0.0
C894 C 0.38029 0.86029 0.16152 0.0
C895 C 0.34798 0.84203 0.20645 0.0
N896 N 0.42075 0.86054 0.19058 0.0
N897 N 0.30694 0.85589 0.1828 0.0
H898 H 0.34188 0.8202 0.24336 0.0
H899 H 0.31219 0.82322 0.22377 0.0
H900 H 0.29645 0.86384 0.16621 0.0
H901 H 0.29453 0.85332 0.20005 0.0
H902 H 0.43298 0.8707 0.17623 0.0
H903 H 0.43094 0.8571 0.20894 0.0
H904 H 0.4169 0.86181 0.13754 0.0
H905 H 0.38692 0.86802 0.11933 0.0
C906 C 0.33989 0.10692 0.48885 0.0
C907 C 0.36196 0.0961 0.50419 0.0
C908 C 0.37365 0.06582 0.46593 0.0
C909 C 0.35019 0.07482 0.45189 0.0
N910 N 0.31755 0.10995 0.44457 0.0
N911 N 0.40524 0.07323 0.50394 0.0
C912 C 0.33568 0.09762 0.46152 0.0
C913 C 0.38079 0.07829 0.49139 0.0
N914 N 0.32162 0.1242 0.50079 0.0
N915 N 0.3881 0.04449 0.45557 0.0
H916 H 0.41089 0.08269 0.52241 0.0
H917 H 0.42081 0.06194 0.49494 0.0
H918 H 0.38381 0.03583 0.43638 0.0
H919 H 0.4035 0.0348 0.4663 0.0
H920 H 0.30304 0.12931 0.49177 0.0
H921 H 0.32411 0.13266 0.52023 0.0
H922 H 0.30793 0.12812 0.44943 0.0
H923 H 0.31443 0.10336 0.4244 0.0
C924 C 0.05765 0.09531 0.69042 0.0
C925 C 0.07373 0.10316 0.71358 0.0
C926 C 0.11582 0.09741 0.68642 0.0
C927 C 0.09962 0.09358 0.66244 0.0
N928 N 0.0548 0.09363 0.641 0.0
N929 N 0.11828 0.11685 0.73204 0.0
C930 C 0.07041 0.09376 0.66425 0.0
C931 C 0.10289 0.10555 0.71123 0.0
N932 N 0.03036 0.08841 0.69352 0.0
N933 N 0.14337 0.0922 0.68591 0.0
H934 H 0.10977 0.12407 0.75024 0.0
H935 H 0.13924 0.12162 0.73008 0.0
H936 H 0.15354 0.08517 0.66849 0.0
H937 H 0.15547 0.09201 0.70351 0.0
H938 H 0.01834 0.08 0.67777 0.0
H939 H 0.02049 0.0883 0.7125 0.0
H940 H 0.0336 0.09656 0.64116 0.0
H941 H 0.06331 0.09337 0.62139 0.0
C942 C 0.07906 0.86517 0.96618 0.0
C943 C 0.10095 0.85799 -0.01633 0.0
C944 C 0.13232 0.8558 0.94426 0.0
C945 C 0.11139 0.86648 0.92749 0.0
N946 N 0.06523 0.88252 0.92204 0.0
N947 N 0.14939 0.84965 -0.00978 0.0
C948 C 0.08479 0.87138 0.9383 0.0
C949 C 0.12777 0.8537 0.97291 0.0
N950 N 0.05272 0.86547 -0.0238 0.0
N951 N 0.15677 0.84806 0.93291 0.0
H952 H 0.14725 0.84826 0.01137 0.0
H953 H 0.16993 0.84989 -0.01604 0.0
H954 H 0.16173 0.85074 0.91233 0.0
H955 H 0.1714 0.83709 0.94342 0.0
H956 H 0.03539 0.86809 0.96408 0.0
H957 H 0.04795 0.86069 -0.00355 0.0
H958 H 0.0465 0.88956 0.92936 0.0
H959 H 0.06835 0.88608 0.90124 0.0
C960 C 0.25393 0.34429 0.11052 0.0
C961 C 0.27937 0.35904 0.10954 0.0
C962 C 0.25453 0.40193 0.10721 0.0
C963 C 0.22939 0.38687 0.10365 0.0
N964 N 0.2057 0.34313 0.09819 0.0
N965 N 0.30461 0.40169 0.10615 0.0
C966 C 0.22909 0.35789 0.10479 0.0
C967 C 0.27988 0.38787 0.10786 0.0
N968 N 0.25351 0.31712 0.11641 0.0
N969 N 0.25405 0.4296 0.11056 0.0
H970 H 0.32347 0.39209 0.10799 0.0
H971 H 0.30647 0.42232 0.10157 0.0
H972 H 0.23576 0.44036 0.11073 0.0
H973 H 0.27134 0.44155 0.11569 0.0
H974 H 0.23544 0.30595 0.12036 0.0
H975 H 0.27135 0.30625 0.11986 0.0
H976 H 0.20526 0.32205 0.09546 0.0
H977 H 0.18717 0.35188 0.09282 0.0
C978 C 0.76188 0.03871 0.86631 0.0
C979 C 0.73887 0.04649 0.85083 0.0
C980 C 0.76301 0.08853 0.83771 0.0
C981 C 0.7821 0.08414 0.859 0.0
N982 N 0.80214 0.05398 0.89188 0.0
N983 N 0.72556 0.06945 0.81001 0.0
C984 C 0.78286 0.05852 0.87221 0.0
C985 C 0.74202 0.0685 0.83255 0.0
N986 N 0.76385 0.01234 0.87447 0.0
N987 N 0.7642 0.11239 0.8236 0.0
H988 H 0.71174 0.0535 0.80508 0.0
H989 H 0.72779 0.08404 0.79483 0.0
H990 H 0.78026 0.12673 0.82624 0.0
H991 H 0.74901 0.11831 0.81003 0.0
H992 H 0.78106 0.00484 0.8843 0.0
H993 H 0.7496 -0.00271 0.86812 0.0
H994 H 0.80148 0.03709 0.90458 0.0
H995 H 0.81817 0.0678 0.89648 0.0
C996 C 0.14348 0.51898 0.10747 0.0
C997 C 0.12608 0.49597 0.1015 0.0
C998 C 0.08552 0.52297 0.1126 0.0
C999 C 0.10264 0.54673 0.11543 0.0
N1000 N 0.1477 0.56823 0.11155 0.0
N1001 N 0.08017 0.47765 0.09303 0.0
C1002 C 0.13161 0.54498 0.11184 0.0
C1003 C 0.09698 0.49838 0.10263 0.0
N1004 N 0.17128 0.51584 0.10999 0.0
N1005 N 0.05849 0.52348 0.12056 0.0
H1006 H 0.08761 0.45952 0.08487 0.0
H1007 H 0.05897 0.47952 0.09061 0.0
H1008 H 0.0494 0.54077 0.12885 0.0
H1009 H 0.04587 0.50604 0.12165 0.0
H1010 H 0.18468 0.53122 0.11712 0.0
H1011 H 0.18068 0.49709 0.10741 0.0
H1012 H 0.16846 0.56852 0.10607 0.0
H1013 H 0.13976 0.58762 0.11443 0.0
C1014 C 0.68621 0.84543 0.33282 0.0
C1015 C 0.66623 0.85394 0.35217 0.0
C1016 C 0.68707 0.89971 0.35272 0.0
C1017 C 0.71064 0.88884 0.34016 0.0
N1018 N 0.7257 0.85847 0.30464 0.0
N1019 N 0.64581 0.8901 0.37899 0.0
C1020 C 0.70803 0.86384 0.32565 0.0
C1021 C 0.66544 0.88166 0.36089 0.0
N1022 N 0.68488 0.81945 0.3225 0.0
N1023 N 0.68577 0.9272 0.3568 0.0
H1024 H 0.62964 0.87757 0.38579 0.0
H1025 H 0.64641 0.90918 0.38854 0.0
H1026 H 0.7014 0.9404 0.3498 0.0
H1027 H 0.6683 0.93686 0.36409 0.0
H1028 H 0.70039 0.81085 0.31071 0.0
H1029 H 0.66821 0.80619 0.32644 0.0
H1030 H 0.72431 0.8411 0.29226 0.0
H1031 H 0.73972 0.87326 0.29759 0.0
C1032 C 0.82403 0.90916 0.10656 0.0
C1033 C 0.85324 0.90913 0.10847 0.0
C1034 C 0.85522 0.95765 0.09669 0.0
C1035 C 0.82596 0.95831 0.09753 0.0
N1036 N 0.78272 0.93585 0.10903 0.0
N1037 N 0.89619 0.93496 0.11161 0.0
C1038 C 0.8104 0.93437 0.1041 0.0
C1039 C 0.86874 0.93383 0.10529 0.0
N1040 N 0.8093 0.88506 0.10595 0.0
N1041 N 0.87016 -0.02075 0.08653 0.0
H1042 H 0.90678 0.91829 0.11887 0.0
H1043 H 0.90776 0.95312 0.1124 0.0
H1044 H 0.86116 -0.00316 0.07928 0.0
H1045 H 0.89128 -0.02138 0.08274 0.0
H1046 H 0.78827 0.88375 0.10169 0.0
H1047 H 0.8185 0.86612 0.107 0.0
H1048 H 0.77088 0.91963 0.11664 0.0
H1049 H 0.77209 0.95404 0.10822 0.0
C1050 C 0.16597 0.55407 0.60609 0.0
C1051 C 0.16441 0.58282 0.6093 0.0
C1052 C 0.21468 0.58726 0.60533 0.0
C1053 C 0.21638 0.55839 0.60335 0.0
N1054 N 0.19444 0.51432 0.60945 0.0
N1055 N 0.18754 0.62563 0.61986 0.0
C1056 C 0.19224 0.5418 0.60627 0.0
C1057 C 0.18891 0.599 0.61157 0.0
N1058 N 0.14271 0.53858 0.60099 0.0
N1059 N 0.23702 0.60366 0.5993 0.0
H1060 H 0.16897 0.63472 0.625 0.0
H1061 H 0.20494 0.6377 0.6244 0.0
H1062 H 0.25617 0.59632 0.59359 0.0
H1063 H 0.23583 0.62473 0.59741 0.0
H1064 H 0.14319 0.51805 0.59538 0.0
H1065 H 0.12307 0.5466 0.5999 0.0
H1066 H 0.17771 0.50151 0.61423 0.0
H1067 H 0.21343 0.50481 0.61017 0.0
C1068 C 0.1128 0.41921 0.32524 0.0
C1069 C 0.08449 0.41661 0.33241 0.0
C1070 C 0.08952 0.4543 0.36528 0.0
C1071 C 0.11652 0.45943 0.35512 0.0
N1072 N 0.15417 0.44803 0.32519 0.0
N1073 N 0.04538 0.43081 0.35902 0.0
C1074 C 0.12848 0.44196 0.33536 0.0
C1075 C 0.07274 0.43379 0.35256 0.0
N1076 N 0.12452 0.40017 0.30851 0.0
N1077 N 0.08027 0.46872 0.38746 0.0
H1078 H 0.03295 0.4148 0.35145 0.0
H1079 H 0.03465 0.44475 0.37091 0.0
H1080 H 0.09222 0.4838 0.39736 0.0
H1081 H 0.06181 0.46431 0.39755 0.0
H1082 H 0.14561 0.39934 0.30476 0.0
H1083 H 0.11346 0.38377 0.2999 0.0
H1084 H 0.16281 0.43808 0.30844 0.0
H1085 H 0.16641 0.46431 0.33245 0.0
C1086 C 0.36782 0.50268 0.85753 0.0
C1087 C 0.35578 0.51996 0.83811 0.0
C1088 C 0.31002 0.50065 0.84835 0.0
C1089 C 0.32273 0.48045 0.8641 0.0
N1090 N 0.36315 0.46168 0.88453 0.0
N1091 N 0.31586 0.53547 0.81392 0.0
C1092 C 0.35148 0.48148 0.86921 0.0
C1093 C 0.32689 0.5194 0.83357 0.0
N1094 N 0.39474 0.50697 0.86505 0.0
N1095 N 0.28189 0.50158 0.84725 0.0
H1096 H 0.3275 0.5496 0.80273 0.0
H1097 H 0.2955 0.53367 0.80734 0.0
H1098 H 0.26899 0.48764 0.85733 0.0
H1099 H 0.27131 0.51738 0.83833 0.0
H1100 H 0.40413 0.49669 0.88089 0.0
H1101 H 0.4071 0.52264 0.85701 0.0
H1102 H 0.38433 0.45925 0.88624 0.0
H1103 H 0.35149 0.44675 0.89469 0.0
C1104 C 0.86087 0.6826 0.59171 0.0
C1105 C 0.8573 0.68366 0.62057 0.0
C1106 C 0.84596 0.73179 0.61824 0.0
C1107 C 0.849 0.73083 0.58919 0.0
N1108 N 0.85017 0.70309 0.5482 0.0
N1109 N 0.83635 0.70594 0.65918 0.0
C1110 C 0.85334 0.70541 0.5759 0.0
C1111 C 0.84625 0.70714 0.63302 0.0
N1112 N 0.87311 0.66083 0.57945 0.0
N1113 N 0.84532 0.75603 0.6323 0.0
H1114 H 0.83591 0.68792 0.67034 0.0
H1115 H 0.82583 0.72188 0.66843 0.0
H1116 H 0.84681 0.77509 0.62333 0.0
H1117 H 0.84627 0.75725 0.65359 0.0
H1118 H 0.87902 0.66066 0.55894 0.0
H1119 H 0.87936 0.64378 0.59004 0.0
H1120 H 0.8508 0.68451 0.5377 0.0
H1121 H 0.84388 0.71928 0.53625 0.0
C1122 C 0.00715 0.07435 0.32479 0.0
C1123 C -0.00732 0.09189 0.30723 0.0
C1124 C 0.03044 0.12566 0.30994 0.0
C1125 C 0.04618 0.1069 0.32491 0.0
N1126 N 0.05117 0.06237 0.34426 0.0
N1127 N -0.00802 0.13222 0.27948 0.0
C1128 C 0.03497 0.08096 0.33182 0.0
C1129 C 0.00467 0.11705 0.29887 0.0
N1130 N -0.00603 0.05193 0.33548 0.0
N1131 N 0.03969 0.15204 0.30711 0.0
H1132 H 0.97311 0.12654 0.27066 0.0
H1133 H 0.00128 0.14916 0.27033 0.0
H1134 H 0.05844 0.15934 0.315 0.0
H1135 H 0.02767 0.16737 0.29918 0.0
H1136 H 0.00244 0.03995 0.35061 0.0
H1137 H 0.97354 0.04655 0.33094 0.0
H1138 H 0.04516 0.04209 0.34712 0.0
H1139 H 0.07155 0.06669 0.34992 0.0
C1140 C 0.60812 0.24938 0.05768 0.0
C1141 C 0.61798 0.22617 0.07096 0.0
C1142 C 0.62143 0.25203 0.11386 0.0
C1143 C 0.60426 0.27195 0.10233 0.0
N1144 N 0.58268 0.29086 0.06231 0.0
N1145 N 0.64823 0.21123 0.10628 0.0
C1146 C 0.59886 0.27163 0.07372 0.0
C1147 C 0.62932 0.2293 0.09748 0.0
N1148 N 0.60762 0.24976 0.02978 0.0
N1149 N 0.62908 0.25445 0.14069 0.0
H1150 H 0.65632 0.1965 0.09318 0.0
H1151 H 0.65825 0.2127 0.12505 0.0
H1152 H 0.62495 0.27178 0.15243 0.0
H1153 H 0.63896 0.23934 0.15143 0.0
H1154 H 0.60265 0.26686 0.01855 0.0
H1155 H 0.61532 0.23367 0.0181 0.0
H1156 H 0.57534 0.28949 0.04232 0.0
H1157 H 0.57509 0.30744 0.07314 0.0
C1158 C 0.41102 0.82945 0.81187 0.0
C1159 C 0.40998 0.81647 0.83764 0.0
C1160 C 0.45991 0.82351 0.842 0.0
C1161 C 0.46127 0.83242 0.81444 0.0
N1162 N 0.43796 0.83599 0.77091 0.0
N1163 N 0.43526 0.7946 0.87377 0.0
C1164 C 0.43678 0.83307 0.79866 0.0
C1165 C 0.43492 0.81158 0.85182 0.0
N1166 N 0.38767 0.83924 0.80034 0.0
N1167 N 0.48174 0.82749 0.85933 0.0
H1168 H 0.41789 0.7839 0.88078 0.0
H1169 H 0.45351 0.78868 0.88295 0.0
H1170 H 0.49989 0.83783 0.85383 0.0
H1171 H 0.48049 0.82335 0.88018 0.0
H1172 H 0.38805 0.85078 0.78256 0.0
H1173 H 0.36858 0.83878 0.81022 0.0
H1174 H 0.42051 0.83437 0.75851 0.0
H1175 H 0.45647 0.83657 0.76001 0.0
C1176 C 0.87167 0.21264 0.83946 0.0
C1177 C 0.84977 0.21561 0.85857 0.0
C1178 C 0.84387 0.26216 0.84215 0.0
C1179 C 0.86846 0.26028 0.8264 0.0
N1180 N 0.91109 0.23596 0.82021 0.0
N1181 N 0.82098 0.2472 0.88344 0.0
C1182 C 0.88409 0.23625 0.82816 0.0
C1183 C 0.83759 0.24159 0.86161 0.0
N1184 N 0.87981 0.18758 0.8306 0.0
N1185 N 0.8258 0.2826 0.83796 0.0
H1186 H 0.81776 0.2337 0.8995 0.0
H1187 H 0.81345 0.2666 0.88728 0.0
H1188 H 0.82824 0.29692 0.82252 0.0
H1189 H 0.80667 0.28321 0.8477 0.0
H1190 H 0.89471 0.18525 0.81537 0.0
H1191 H 0.86921 0.16949 0.83521 0.0
H1192 H 0.92331 0.219 0.82295 0.0
H1193 H 0.9222 0.25351 0.81469 0.0
C1194 C 0.45057 0.10409 0.61084 0.0
C1195 C 0.42883 0.09822 0.62947 0.0
C1196 C 0.46121 0.10226 0.66783 0.0
C1197 C 0.48206 0.11156 0.64946 0.0
N1198 N 0.49546 0.12542 0.60391 0.0
N1199 N 0.41233 0.09324 0.67564 0.0
C1200 C 0.47655 0.11334 0.62102 0.0
C1201 C 0.43385 0.09755 0.65799 0.0
N1202 N 0.44644 0.1005 0.58333 0.0
N1203 N 0.4678 0.09724 0.69445 0.0
H1204 H 0.39226 0.08893 0.66895 0.0
H1205 H 0.41398 0.09553 0.69678 0.0
H1206 H 0.4877 0.10021 0.70217 0.0
H1207 H 0.45426 0.08799 0.70826 0.0
H1208 H 0.4623 0.10157 0.56895 0.0
H1209 H 0.4276 0.09391 0.57502 0.0
H1210 H 0.49124 0.13015 0.58365 0.0
H1211 H 0.51458 0.1331 0.61046 0.0
C1212 C 0.56814 0.73133 0.34685 0.0
C1213 C 0.59032 0.72858 0.36551 0.0
C1214 C 0.59338 0.68057 0.35139 0.0
C1215 C 0.56898 0.68291 0.3356 0.0
N1216 N 0.52743 0.70857 0.32924 0.0
N1217 N 0.61774 0.69737 0.39151 0.0
C1218 C 0.55444 0.70762 0.33692 0.0
C1219 C 0.60107 0.7022 0.36971 0.0
N1220 N 0.56114 0.75608 0.33677 0.0
N1221 N 0.61001 0.6587 0.34825 0.0
H1222 H 0.62203 0.71196 0.40667 0.0
H1223 H 0.62426 0.67791 0.39629 0.0
H1224 H 0.60633 0.64312 0.33399 0.0
H1225 H 0.62914 0.65764 0.35782 0.0
H1226 H 0.54596 0.75801 0.32187 0.0
H1227 H 0.57287 0.77389 0.33986 0.0
H1228 H 0.51594 0.72616 0.33158 0.0
H1229 H 0.51572 0.69112 0.32418 0.0
C1230 C 0.00025 0.84927 0.09178 0.0
C1231 C 0.02303 0.85681 0.10858 0.0
C1232 C -0.00675 0.85541 0.14921 0.0
C1233 C 0.97134 0.84471 0.1328 0.0
N1234 N 0.95476 0.82805 0.08896 0.0
N1235 N 0.04239 0.86548 0.15326 0.0
C1236 C -0.02507 0.84098 0.10415 0.0
C1237 C 0.01983 0.85964 0.13731 0.0
N1238 N 0.00274 0.85043 0.06392 0.0
N1239 N -0.01162 0.86208 0.176 0.0
H1240 H 0.06197 0.86935 0.1451 0.0
H1241 H 0.04214 0.86482 0.17454 0.0
H1242 H 0.96908 0.85935 0.18519 0.0
H1243 H 0.00264 0.87238 0.18846 0.0
H1244 H -0.01391 0.84813 0.0506 0.0
H1245 H 0.02109 0.85608 0.05409 0.0
H1246 H 0.95751 0.82176 0.06874 0.0
H1247 H 0.93587 0.82153 0.09708 0.0
C1248 C 0.56675 0.84562 0.65985 0.0
C1249 C 0.5958 0.84926 0.65833 0.0
C1250 C 0.59941 0.84707 0.70815 0.0
C1251 C 0.57025 0.84379 0.70983 0.0
N1252 N 0.52712 0.83259 0.68767 0.0
N1253 N 0.64018 0.84493 0.67949 0.0
C1254 C 0.55423 0.84058 0.68571 0.0
C1255 C 0.61224 0.84704 0.68204 0.0
N1256 N 0.55102 0.84858 0.63695 0.0
N1257 N 0.61471 0.85233 0.73117 0.0
H1258 H 0.65008 0.84468 0.6605 0.0
H1259 H 0.65308 0.84063 0.69582 0.0
H1260 H 0.60638 0.85307 0.75082 0.0
H1261 H 0.63548 0.85818 0.73064 0.0
H1262 H 0.5296 0.84943 0.63735 0.0
H1263 H 0.55949 0.85181 0.6176 0.0
H1264 H 0.51488 0.82753 0.6708 0.0
H1265 H 0.51761 0.82852 0.70641 0.0
C1266 C 0.8437 0.82697 0.45299 0.0
C1267 C 0.83619 0.83549 0.47991 0.0
C1268 C 0.80267 0.86525 0.45933 0.0
C1269 C 0.81523 0.86225 0.43323 0.0
N1270 N 0.85363 0.84332 0.40768 0.0
N1271 N 0.8139 0.87109 0.50669 0.0
C1272 C 0.83745 0.84393 0.43056 0.0
C1273 C 0.81714 0.857 0.48268 0.0
N1274 N 0.85567 0.80246 0.44834 0.0
N1275 N 0.77681 0.8753 0.46209 0.0
H1276 H 0.82705 0.86944 0.52335 0.0
H1277 H 0.80085 0.88764 0.50831 0.0
H1278 H 0.7641 0.87879 0.44537 0.0
H1279 H 0.76684 0.87633 0.48101 0.0
H1280 H 0.85974 0.79517 0.42864 0.0
H1281 H 0.85775 0.78789 0.46348 0.0
H1282 H 0.8711 0.83137 0.40637 0.0
H1283 H 0.85205 0.85696 0.39167 0.0
C1284 C 0.87743 0.10069 0.16214 0.0
C1285 C 0.84849 0.09584 0.16167 0.0
C1286 C 0.84721 0.09383 0.21167 0.0
C1287 C 0.87634 0.09776 0.21218 0.0
N1288 N 0.91798 0.11239 0.18937 0.0
N1289 N 0.80499 0.09621 0.18535 0.0
C1290 C 0.89103 0.10377 0.1878 0.0
C1291 C 0.83311 0.09531 0.18631 0.0
N1292 N 0.89209 0.10071 0.13822 0.0
N1293 N 0.83321 0.0867 0.23493 0.0
H1294 H 0.79419 0.09741 0.16696 0.0
H1295 H 0.79263 0.0985 0.20264 0.0
H1296 H 0.84248 0.08551 0.25406 0.0
H1297 H 0.81263 0.08015 0.23502 0.0
H1298 H 0.91354 0.10087 0.13736 0.0
H1299 H 0.88277 0.09901 0.11905 0.0
H1300 H 0.92933 0.11937 0.17264 0.0
H1301 H 0.9282 0.11498 0.20803 0.0
C1302 C 0.63499 0.1043 0.9399 0.0
C1303 C 0.62615 0.07668 0.93669 0.0
C1304 C 0.5945 0.0812 0.97566 0.0
C1305 C 0.60533 0.10789 -0.01954 0.0
N1306 N 0.63687 0.14474 0.96902 0.0
N1307 N 0.5983 0.03809 0.95127 0.0
C1308 C 0.62569 0.11953 0.96294 0.0
C1309 C 0.60604 0.06493 0.95448 0.0
N1310 N 0.65228 0.11589 0.92094 0.0
N1311 N 0.57273 0.07175 -0.009 0.0
H1312 H 0.60473 0.02607 0.93482 0.0
H1313 H 0.58645 0.02726 0.96541 0.0
H1314 H 0.56413 0.08303 0.00696 0.0
H1315 H 0.56188 0.05363 -0.01311 0.0
H1316 H 0.65715 0.13664 0.92033 0.0
H1317 H 0.66051 0.10505 0.9045 0.0
H1318 H 0.65396 0.15321 0.95908 0.0
H1319 H 0.6301 0.15675 -0.01466 0.0
C1320 C 0.59632 0.10097 0.79199 0.0
C1321 C 0.62513 0.09664 0.79091 0.0
C1322 C 0.62669 0.11434 0.7442 0.0
C1323 C 0.59749 0.11556 0.74418 0.0
N1324 N 0.55401 0.10519 0.76638 0.0
N1325 N 0.66691 0.09424 0.7641 0.0
C1326 C 0.58212 0.10761 0.76765 0.0
C1327 C 0.64016 0.10204 0.76652 0.0
N1328 N 0.58264 0.09966 0.81645 0.0
N1329 N 0.64169 0.12578 0.72338 0.0
H1330 H 0.67733 0.08446 0.77965 0.0
H1331 H 0.67788 0.09501 0.74576 0.0
H1332 H 0.63267 0.13552 0.70692 0.0
H1333 H 0.6631 0.12799 0.72381 0.0
H1334 H 0.56224 0.10539 0.81891 0.0
H1335 H 0.59241 0.09546 0.83486 0.0
H1336 H 0.54202 0.09667 0.78194 0.0
H1337 H 0.5428 0.10921 0.74875 0.0
C1338 C 0.59762 0.84113 0.49188 0.0
C1339 C 0.62033 0.83442 0.47488 0.0
C1340 C 0.65179 0.8577 0.50692 0.0
C1341 C 0.629 0.86804 0.52154 0.0
N1342 N 0.57984 0.87131 0.52722 0.0
N1343 N 0.66836 0.84286 0.46296 0.0
C1344 C 0.60171 0.86008 0.514 0.0
C1345 C 0.64729 0.84434 0.48154 0.0
N1346 N 0.57239 0.829 0.48725 0.0
N1347 N 0.67782 0.86017 0.51752 0.0
H1348 H 0.6659 0.83521 0.44311 0.0
H1349 H 0.68758 0.85231 0.46613 0.0
H1350 H 0.68197 0.86903 0.53664 0.0
H1351 H 0.69473 0.85066 0.50875 0.0
H1352 H 0.55564 0.8311 0.5004 0.0
H1353 H 0.56889 0.81491 0.47141 0.0
H1354 H 0.55949 0.86856 0.52081 0.0
H1355 H 0.58222 0.88497 0.54361 0.0
C1356 C 0.8165 0.83606 0.26047 0.0
C1357 C 0.83092 0.84241 0.28508 0.0
C1358 C 0.87501 0.83801 0.26087 0.0
C1359 C 0.86056 0.82959 0.23689 0.0
N1360 N 0.81785 0.81428 0.21583 0.0
N1361 N 0.87371 0.84377 0.31018 0.0
C1362 C 0.83137 0.82674 0.23726 0.0
C1363 C 0.86016 0.84171 0.28572 0.0
N1364 N 0.78881 0.84028 0.25869 0.0
N1365 N 0.90273 0.84363 0.25969 0.0
H1366 H 0.86349 0.8459 0.32886 0.0
H1367 H 0.89477 0.84066 0.31224 0.0
H1368 H 0.91429 0.84157 0.2418 0.0
H1369 H 0.91379 0.85267 0.27578 0.0
H1370 H 0.77793 0.8389 0.24035 0.0
H1371 H 0.77713 0.84772 0.27491 0.0
H1372 H 0.7969 0.80909 0.21632 0.0
H1373 H 0.82799 0.80659 0.19866 0.0
C1374 C 0.84895 0.11203 -0.00726 0.0
C1375 C 0.82609 0.11927 -0.0236 0.0
C1376 C 0.79478 0.09787 0.00949 0.0
C1377 C 0.81747 0.08639 0.02288 0.0
N1378 N 0.86654 0.0814 0.02701 0.0
N1379 N 0.77736 0.11233 0.96623 0.0
C1380 C 0.84478 0.09337 0.01467 0.0
C1381 C 0.79895 0.11066 -0.01594 0.0
N1382 N 0.87443 0.12326 -0.01247 0.0
N1383 N 0.7691 0.09649 0.02106 0.0
H1384 H 0.77939 0.11893 0.94614 0.0
H1385 H 0.7579 0.1038 0.97026 0.0
H1386 H 0.76533 0.08772 0.04011 0.0
H1387 H 0.75235 0.10675 0.01319 0.0
H1388 H 0.89143 0.12066 0.00013 0.0
H1389 H 0.87794 0.13724 0.97189 0.0
H1390 H 0.88677 0.08335 0.01998 0.0
H1391 H 0.86408 0.06808 0.04336 0.0
C1392 C 0.72831 0.59178 0.87505 0.0
C1393 C 0.72574 0.563 0.87169 0.0
C1394 C 0.67727 0.56703 0.85847 0.0
C1395 C 0.67948 0.59556 0.86341 0.0
N1396 N 0.70547 0.63513 0.87912 0.0
N1397 N 0.69785 0.52261 0.86279 0.0
C1398 C 0.70458 0.60796 0.87241 0.0
C1399 C 0.70019 0.55042 0.86416 0.0
N1400 N 0.75352 0.60367 0.88063 0.0
N1401 N 0.65337 0.55597 0.84787 0.0
H1402 H 0.71455 0.50993 0.86555 0.0
H1403 H 0.67921 0.51191 0.86042 0.0
H1404 H 0.63592 0.56742 0.84428 0.0
H1405 H 0.65118 0.53589 0.84104 0.0
H1406 H 0.75759 0.62456 0.87989 0.0
H1407 H 0.77108 0.59258 0.88458 0.0
H1408 H 0.72205 0.64488 0.88892 0.0
H1409 H 0.68878 0.64785 0.87648 0.0
C1410 C 0.21197 0.90751 0.11255 0.0
C1411 C 0.23217 0.89303 0.09786 0.0
C1412 C 0.19711 0.86056 0.0809 0.0
C1413 C 0.17649 0.87509 0.09546 0.0
N1414 N 0.1656 0.90716 0.13139 0.0
N1415 N 0.2457 0.85116 0.0762 0.0
C1416 C 0.18441 0.89689 0.11342 0.0
C1417 C 0.22528 0.86781 0.08508 0.0
N1418 N 0.21898 0.9318 0.1249 0.0
N1419 N 0.19011 0.84169 0.06112 0.0
H1420 H 0.26655 0.85609 0.07888 0.0
H1421 H 0.24193 0.83136 0.06898 0.0
H1422 H 0.16998 0.83625 0.05582 0.0
H1423 H 0.20447 0.83321 0.04784 0.0
H1424 H 0.2046 0.94497 0.13323 0.0
H1425 H 0.2393 0.93929 0.12562 0.0
H1426 H 0.17062 0.92159 0.14646 0.0
H1427 H 0.14553 0.89915 0.13295 0.0
C1428 C 0.84846 0.44014 0.87792 0.0
C1429 C 0.82212 0.447 0.86796 0.0
C1430 C 0.81885 0.40368 0.84259 0.0
C1431 C 0.84651 0.39836 0.84992 0.0
N1432 N 0.8892 0.41326 0.87134 0.0
N1433 N 0.78277 0.43693 0.83932 0.0
C1434 C 0.86169 0.41689 0.86698 0.0
C1435 C 0.80739 0.42918 0.84992 0.0
N1436 N 0.86084 0.45588 0.89789 0.0
N1437 N 0.80333 0.38399 0.82938 0.0
H1438 H 0.77332 0.45499 0.84509 0.0
H1439 H 0.77252 0.42637 0.82362 0.0
H1440 H 0.81098 0.36496 0.82406 0.0
H1441 H 0.78228 0.38551 0.82581 0.0
H1442 H 0.87858 0.4503 0.90816 0.0
H1443 H 0.85214 0.47352 0.90587 0.0
H1444 H 0.90205 0.42772 0.88093 0.0
H1445 H 0.89994 0.39684 0.86331 0.0
C1446 C 0.23077 0.06245 0.61656 0.0
C1447 C 0.21681 0.07207 0.59325 0.0
C1448 C 0.25861 0.09621 0.578 0.0
C1449 C 0.27285 0.08692 0.60146 0.0
N1450 N 0.27106 0.06654 0.64601 0.0
N1451 N 0.21448 0.10487 0.55718 0.0
C1452 C 0.25839 0.07178 0.62177 0.0
C1453 C 0.22978 0.09134 0.57589 0.0
N1454 N 0.21812 0.04352 0.63292 0.0
N1455 N 0.27272 0.10748 0.55648 0.0
H1456 H 0.1932 0.10178 0.55523 0.0
H1457 H 0.22234 0.12111 0.54577 0.0
H1458 H 0.29404 0.11024 0.55591 0.0
H1459 H 0.26352 0.11158 0.53777 0.0
H1460 H 0.22819 0.03334 0.64841 0.0
H1461 H 0.19772 0.03691 0.63 0.0
H1462 H 0.26101 0.05764 0.66262 0.0
H1463 H 0.29114 0.07342 0.65033 0.0
C1464 C 0.13232 0.00726 0.81617 0.0
C1465 C 0.14063 -0.00218 0.8422 0.0
C1466 C 0.12134 0.03857 0.86385 0.0
C1467 C 0.11544 0.0489 0.83751 0.0
N1468 N 0.12289 0.04646 0.78867 0.0
N1469 N 0.14706 0.00628 0.89046 0.0
C1470 C 0.1233 0.03429 0.8137 0.0
C1471 C 0.13632 0.01402 0.86601 0.0
N1472 N 0.13137 -0.01 0.79399 0.0
N1473 N 0.11167 0.05152 0.8867 0.0
H1474 H 0.15815 -0.01151 0.89262 0.0
H1475 H 0.14698 0.01856 0.90798 0.0
H1476 H 0.10066 0.06948 0.88589 0.0
H1477 H 0.11272 0.0434 0.90625 0.0
H1478 H 0.12273 -0.00468 0.77534 0.0
H1479 H 0.13617 0.96945 0.79489 0.0
H1480 H 0.13096 0.03747 0.77106 0.0
H1481 H 0.11744 0.0667 0.78604 0.0
C1482 C 0.74087 0.34257 0.37383 0.0
C1483 C 0.76026 0.34273 0.35196 0.0
C1484 C 0.7321 0.37478 0.32729 0.0
C1485 C 0.71459 0.37754 0.35044 0.0
N1486 N 0.70545 0.36745 0.39792 0.0
N1487 N 0.77832 0.366 0.31213 0.0
C1488 C 0.71985 0.36241 0.37442 0.0
C1489 C 0.75713 0.36101 0.33001 0.0
N1490 N 0.74167 0.3229 0.39333 0.0
N1491 N 0.72425 0.38372 0.30214 0.0
H1492 H 0.79777 0.35768 0.31429 0.0
H1493 H 0.77753 0.381 0.29723 0.0
H1494 H 0.70492 0.39165 0.29829 0.0
H1495 H 0.73557 0.3799 0.2844 0.0
H1496 H 0.72633 0.32024 0.40808 0.0
H1497 H 0.75623 0.30763 0.39325 0.0
H1498 H 0.71023 0.35877 0.41662 0.0
H1499 H 0.69046 0.38227 0.39934 0.0
C1500 C 0.82178 0.51055 0.58818 0.0
C1501 C 0.83887 0.48857 0.58077 0.0
C1502 C 0.8799 0.5157 0.59417 0.0
C1503 C 0.86296 0.53835 0.59951 0.0
N1504 N 0.81857 0.55918 0.59611 0.0
N1505 N 0.88436 0.47195 0.57131 0.0
C1506 C 0.8341 0.53631 0.59491 0.0
C1507 C 0.86801 0.49164 0.5822 0.0
N1508 N 0.79384 0.50653 0.59 0.0
N1509 N 0.90704 0.51665 0.60169 0.0
H1510 H 0.87645 0.45417 0.56206 0.0
H1511 H 0.90565 0.47437 0.56914 0.0
H1512 H 0.91653 0.53372 0.61084 0.0
H1513 H 0.91956 0.4997 0.6011 0.0
H1514 H 0.78068 0.52096 0.59821 0.0
H1515 H 0.78398 0.48786 0.58567 0.0
H1516 H 0.79797 0.55943 0.59017 0.0
H1517 H 0.82694 0.57852 0.60046 0.0
C1518 C 0.64255 0.44046 0.0862 0.0
C1519 C 0.62492 0.46283 0.08967 0.0
C1520 C 0.58467 0.43175 0.08744 0.0
C1521 C 0.60242 0.40936 0.08928 0.0
N1522 N 0.64854 0.39202 0.09184 0.0
N1523 N 0.57892 0.48005 0.09526 0.0
C1524 C 0.63149 0.41351 0.08852 0.0
C1525 C 0.59583 0.45866 0.09021 0.0
N1526 N 0.66987 0.4451 0.08058 0.0
N1527 N 0.55713 0.42717 0.08299 0.0
H1528 H 0.58606 0.50014 0.09749 0.0
H1529 H 0.5579 0.47766 0.09922 0.0
H1530 H 0.54847 0.40759 0.08072 0.0
H1531 H 0.54345 0.44262 0.07885 0.0
H1532 H 0.68335 0.4297 0.07529 0.0
H1533 H 0.6784 0.46471 0.07855 0.0
H1534 H 0.66972 0.3943 0.09481 0.0
H1535 H 0.64138 0.37193 0.09358 0.0
C1536 C 0.62848 0.74382 0.85474 0.0
C1537 C 0.60658 0.72578 0.86229 0.0
C1538 C 0.5742 0.7632 0.8593 0.0
C1539 C 0.59502 0.77948 0.84665 0.0
N1540 N 0.64211 0.78527 0.83128 0.0
N1541 N 0.55776 0.71766 0.86995 0.0
C1542 C 0.62238 0.77003 0.84453 0.0
C1543 C 0.57925 0.73538 0.86463 0.0
N1544 N 0.65509 0.73572 0.85734 0.0
N1545 N 0.54967 0.77446 0.86648 0.0
H1546 H 0.56022 0.69711 0.87411 0.0
H1547 H 0.53716 0.72293 0.86832 0.0
H1548 H 0.54547 0.79493 0.86319 0.0
H1549 H 0.53471 0.76436 0.87815 0.0
H1550 H 0.67216 0.74866 0.85452 0.0
H1551 H 0.65995 0.71665 0.865 0.0
H1552 H 0.66154 0.7781 0.82633 0.0
H1553 H 0.63847 0.8045 0.82341 0.0
C1554 C 0.46223 0.34661 0.11229 0.0
C1555 C 0.47818 0.32313 0.11655 0.0
C1556 C 0.44204 0.29451 0.09554 0.0
C1557 C 0.42766 0.31816 0.08799 0.0
N1558 N 0.42562 0.36713 0.08628 0.0
N1559 N 0.48637 0.27585 0.10526 0.0
C1560 C 0.4381 0.3444 0.09565 0.0
C1561 C 0.46898 0.29738 0.10622 0.0
N1562 N 0.46964 0.37075 0.12474 0.0
N1563 N 0.42965 0.26923 0.09351 0.0
H1564 H 0.50693 0.27723 0.11141 0.0
H1565 H 0.48133 0.25748 0.09535 0.0
H1566 H 0.40931 0.26601 0.08721 0.0
H1567 H 0.43853 0.25173 0.10109 0.0
H1568 H 0.45738 0.38787 0.12461 0.0
H1569 H 0.487 0.37297 0.13721 0.0
H1570 H 0.43391 0.38676 0.08883 0.0
H1571 H 0.40805 0.36617 0.07401 0.0
C1572 C 0.87797 0.18626 0.33571 0.0
C1573 C 0.8589 0.16388 0.33321 0.0
C1574 C 0.82273 0.19167 0.35385 0.0
C1575 C 0.8419 0.21371 0.35638 0.0
N1576 N 0.88933 0.2293 0.35817 0.0
N1577 N 0.81566 0.14294 0.34726 0.0
C1578 C 0.87014 0.20986 0.35053 0.0
C1579 C 0.83202 0.16582 0.34467 0.0
N1580 N 0.90255 0.18622 0.32192 0.0
N1581 N 0.79553 0.19576 0.35936 0.0
H1582 H 0.82224 0.12358 0.34163 0.0
H1583 H 0.79679 0.14275 0.35747 0.0
H1584 H 0.7886 0.21414 0.36749 0.0
H1585 H 0.77992 0.18149 0.35479 0.0
H1586 H 0.91569 0.20328 0.32074 0.0
H1587 H 0.90863 0.17038 0.30909 0.0
H1588 H 0.9105 0.2265 0.35655 0.0
H1589 H 0.88417 0.24704 0.36874 0.0
C1590 C -0.01839 0.58953 0.63627 0.0
C1591 C 0.9723 0.61456 0.64755 0.0
C1592 C 0.01683 0.63603 0.63624 0.0
C1593 C 0.02325 0.61328 0.61975 0.0
N1594 N 0.01219 0.56804 0.60342 0.0
N1595 N -0.02035 0.66369 0.65169 0.0
C1596 C 0.00589 0.58973 0.61979 0.0
C1597 C -0.01032 0.63836 0.64631 0.0
N1598 N 0.96761 0.56569 0.64159 0.0
N1599 N 0.03619 0.65624 0.64076 0.0
H1600 H 0.95895 0.66741 0.65546 0.0
H1601 H -0.0088 0.68159 0.64861 0.0
H1602 H 0.05624 0.65515 0.63314 0.0
H1603 H 0.03314 0.67239 0.6544 0.0
H1604 H -0.02538 0.54666 0.63552 0.0
H1605 H 0.95043 0.56473 0.65445 0.0
H1606 H -0.00123 0.55144 0.60007 0.0
H1607 H 0.03056 0.56744 0.59226 0.0
C1608 C 0.59463 0.22293 0.58042 0.0
C1609 C 0.61082 0.24398 0.59306 0.0
C1610 C 0.61485 0.21623 0.63424 0.0
C1611 C 0.59517 0.19735 0.62327 0.0
N1612 N 0.56481 0.18305 0.58651 0.0
N1613 N 0.63419 0.26211 0.63322 0.0
C1614 C 0.5849 0.20054 0.59634 0.0
C1615 C 0.62074 0.24089 0.62017 0.0
N1616 N 0.58892 0.22422 0.5531 0.0
N1617 N 0.62808 0.2104 0.65807 0.0
H1618 H 0.63866 0.28073 0.62398 0.0
H1619 H 0.63895 0.26213 0.65399 0.0
H1620 H 0.62424 0.1924 0.66875 0.0
H1621 H 0.64464 0.22199 0.66575 0.0
H1622 H 0.57951 0.20833 0.54202 0.0
H1623 H 0.59593 0.2403 0.54092 0.0
H1624 H 0.5541 0.1862 0.56843 0.0
H1625 H 0.55749 0.16617 0.59733 0.0
C1626 C 0.02288 0.35459 0.81883 0.0
C1627 C 0.02189 0.35542 0.8479 0.0
C1628 C 0.97162 0.35006 0.84675 0.0
C1629 C 0.9725 0.35013 0.81764 0.0
N1630 N -0.0021 0.35969 0.77633 0.0
N1631 N -0.00463 0.36148 0.88911 0.0
C1632 C -0.00216 0.35482 0.80381 0.0
C1633 C -0.00379 0.35571 0.86169 0.0
N1634 N 0.04748 0.35172 0.80552 0.0
N1635 N 0.94791 0.34265 0.86024 0.0
H1636 H 0.0131 0.36587 0.90056 0.0
H1637 H -0.02291 0.36465 0.89979 0.0
H1638 H 0.92949 0.33737 0.85041 0.0
H1639 H 0.94712 0.33927 0.88123 0.0
H1640 H 0.04897 0.34779 0.78458 0.0
H1641 H 0.06637 0.35096 0.81556 0.0
H1642 H 0.0155 0.36583 0.76557 0.0
H1643 H -0.0202 0.3603 0.76487 0.0
C1644 C 0.86284 0.72869 0.06993 0.0
C1645 C 0.84675 0.70822 0.08318 0.0
C1646 C 0.84019 0.73895 0.12249 0.0
C1647 C 0.85995 0.75735 0.11125 0.0
N1648 N 0.89051 0.77041 0.07451 0.0
N1649 N 0.82131 0.69283 0.12294 0.0
C1650 C 0.87108 0.75265 0.0848 0.0
C1651 C 0.83528 0.71322 0.1095 0.0
N1652 N 0.86996 0.72523 0.04305 0.0
N1653 N 0.82619 0.74622 0.14565 0.0
H1654 H 0.81735 0.67359 0.11438 0.0
H1655 H 0.81538 0.69423 0.14338 0.0
H1656 H 0.82947 0.76501 0.15549 0.0
H1657 H 0.80962 0.73492 0.15355 0.0
H1658 H 0.87953 0.74034 0.03137 0.0
H1659 H 0.86409 0.70791 0.0317 0.0
H1660 H 0.90198 0.76655 0.05693 0.0
H1661 H 0.89615 0.78863 0.08441 0.0
C1662 C 0.40833 0.60119 0.31414 0.0
C1663 C 0.40737 0.60013 0.3432 0.0
C1664 C 0.4576 0.60365 0.34521 0.0
C1665 C 0.45877 0.60305 0.31611 0.0
N1666 N 0.43569 0.5944 0.27315 0.0
N1667 N 0.43097 0.59224 0.38557 0.0
C1668 C 0.43424 0.59957 0.30064 0.0
C1669 C 0.43203 0.59856 0.35843 0.0
N1670 N 0.38494 0.60558 0.29945 0.0
N1671 N 0.4803 0.61113 0.36035 0.0
H1672 H 0.41245 0.588 0.39576 0.0
H1673 H 0.44848 0.58835 0.39707 0.0
H1674 H 0.49921 0.61694 0.35182 0.0
H1675 H 0.47953 0.61454 0.38142 0.0
H1676 H 0.38515 0.60964 0.27857 0.0
H1677 H 0.36554 0.60752 0.30833 0.0
H1678 H 0.41851 0.58909 0.26131 0.0
H1679 H 0.4544 0.59273 0.26274 0.0
C1680 C 0.86089 0.58422 0.78838 0.0
C1681 C 0.83187 0.58028 0.79008 0.0
C1682 C 0.82671 0.59688 0.74332 0.0
C1683 C 0.85582 0.59905 0.74107 0.0
N1684 N 0.90087 0.58978 0.75902 0.0
N1685 N 0.78739 0.57812 0.76807 0.0
C1686 C 0.873 0.59122 0.7629 0.0
C1687 C 0.81479 0.58529 0.76723 0.0
N1688 N 0.87676 0.58252 0.81138 0.0
N1689 N 0.81047 0.60683 0.72308 0.0
H1690 H 0.77795 0.56948 0.78522 0.0
H1691 H 0.77448 0.57856 0.7511 0.0
H1692 H 0.81848 0.61515 0.70511 0.0
H1693 H 0.78921 0.60871 0.72494 0.0
H1694 H 0.89759 0.58815 0.81197 0.0
H1695 H 0.86866 0.57783 0.83059 0.0
H1696 H 0.91413 0.5814 0.7732 0.0
H1697 H 0.91049 0.59461 0.74052 0.0
C1698 C 0.6025 0.56784 -0.00079 0.0
C1699 C 0.59713 0.58621 0.0211 0.0
C1700 C 0.58269 0.62036 -0.01204 0.0
C1701 C 0.59133 0.60312 0.96618 0.0
N1702 N 0.6156 0.56295 0.95174 0.0
N1703 N 0.58581 0.63151 0.03639 0.0
C1704 C 0.60288 0.57751 0.97197 0.0
C1705 C 0.5881 0.61291 0.01554 0.0
N1706 N 0.60635 0.54087 0.00431 0.0
N1707 N 0.56855 0.64338 -0.01762 0.0
H1708 H 0.58971 0.6269 0.05677 0.0
H1709 H 0.58229 0.65209 0.03324 0.0
H1710 H 0.56404 0.64935 0.9625 0.0
H1711 H 0.55923 0.65523 -0.00258 0.0
H1712 H 0.60756 0.52613 -0.01114 0.0
H1713 H 0.60529 0.53271 0.02392 0.0
H1714 H 0.62679 0.54553 0.95553 0.0
H1715 H 0.61769 0.56979 0.93171 0.0
C1716 C 0.57161 0.3458 0.25027 0.0
C1717 C 0.58059 0.35473 0.22402 0.0
C1718 C 0.60524 0.39267 0.24649 0.0
C1719 C 0.60181 0.38016 0.27237 0.0
N1720 N 0.58554 0.34027 0.29718 0.0
N1721 N 0.61383 0.38297 0.19907 0.0
C1722 C 0.58597 0.35544 0.27394 0.0
C1723 C 0.59961 0.37718 0.22254 0.0
N1724 N 0.54888 0.32908 0.25297 0.0
N1725 N 0.6132 0.41946 0.24453 0.0
H1726 H 0.61355 0.37028 0.18184 0.0
H1727 H 0.62905 0.39834 0.19827 0.0
H1728 H 0.61503 0.43237 0.26157 0.0
H1729 H 0.61421 0.42948 0.22583 0.0
H1730 H 0.54072 0.32383 0.27201 0.0
H1731 H 0.53615 0.32354 0.23658 0.0
H1732 H 0.57595 0.32104 0.29801 0.0
H1733 H 0.5973 0.34512 0.31441 0.0
C1734 C 0.83645 0.334 0.50349 0.0
C1735 C 0.84595 0.36152 0.50585 0.0
C1736 C 0.86972 0.35786 0.46172 0.0
C1737 C 0.86003 0.33038 0.45915 0.0
N1738 N 0.84054 0.29025 0.48027 0.0
N1739 N 0.87771 0.39701 0.49174 0.0
C1740 C 0.8455 0.31778 0.48102 0.0
C1741 C 0.86473 0.37249 0.48644 0.0
N1742 N 0.81752 0.32387 0.52173 0.0
N1743 N 0.88187 0.37071 0.43996 0.0
H1744 H 0.87445 0.40803 0.50981 0.0
H1745 H 0.89361 0.405 0.47967 0.0
H1746 H 0.88566 0.36109 0.42126 0.0
H1747 H 0.88627 0.39158 0.43965 0.0
H1748 H 0.80721 0.30517 0.51914 0.0
H1749 H 0.81083 0.33488 0.53875 0.0
H1750 H 0.83231 0.27936 0.49665 0.0
H1751 H 0.84712 0.27791 0.46411 0.0
C1752 C 0.84064 0.3404 0.70165 0.0
C1753 C 0.86957 0.34407 0.70512 0.0
C1754 C 0.87407 0.35742 0.65708 0.0
C1755 C 0.84492 0.35644 0.65446 0.0
N1756 N 0.80022 0.35289 0.67622 0.0
N1757 N 0.91309 0.3615 0.6878 0.0
C1758 C 0.8281 0.34958 0.67729 0.0
C1759 C 0.88611 0.35413 0.68329 0.0
N1760 N 0.82524 0.32705 0.721 0.0
N1761 N 0.89035 0.36037 0.63438 0.0
H1762 H 0.92248 0.36008 0.7069 0.0
H1763 H 0.92533 0.37156 0.67338 0.0
H1764 H 0.88239 0.36212 0.61469 0.0
H1765 H 0.91168 0.35838 0.63472 0.0
H1766 H 0.80464 0.32126 0.71807 0.0
H1767 H 0.8336 0.31933 0.73887 0.0
H1768 H 0.7874 0.35095 0.69326 0.0
H1769 H 0.7902 0.36029 0.65907 0.0
C1770 C 0.87746 0.56237 0.94101 0.0
C1771 C 0.8528 0.57332 0.93086 0.0
C1772 C 0.85792 0.61242 0.96207 0.0
C1773 C 0.87752 0.59758 -0.02324 0.0
N1774 N 0.91492 0.56677 0.97407 0.0
N1775 N 0.82163 0.61059 0.92791 0.0
C1776 C 0.89051 0.57536 0.96383 0.0
C1777 C 0.84405 0.59932 0.93978 0.0
N1778 N 0.88713 0.53877 0.92988 0.0
N1779 N 0.85317 0.63887 0.9691 0.0
H1780 H 0.81209 0.60195 0.91067 0.0
H1781 H 0.81206 0.62787 0.9355 0.0
H1782 H 0.86521 0.64936 -0.0164 0.0
H1783 H 0.84003 0.65132 0.95836 0.0
H1784 H 0.90358 0.52817 0.93774 0.0
H1785 H 0.8782 0.52955 0.91258 0.0
H1786 H 0.92648 0.55132 0.96538 0.0
H1787 H 0.92455 0.57696 -0.00952 0.0
C1788 C 0.56613 0.60173 0.18699 0.0
C1789 C 0.57295 0.59529 0.21456 0.0
C1790 C 0.60527 0.56246 0.19647 0.0
C1791 C 0.60385 0.57384 0.16992 0.0
N1792 N 0.58534 0.60984 0.14211 0.0
N1793 N 0.608 0.57567 0.24362 0.0
C1794 C 0.58497 0.59512 0.16564 0.0
C1795 C 0.59514 0.57745 0.2189 0.0
N1796 N 0.54143 0.61277 0.18066 0.0
N1797 N 0.61531 0.53708 0.20053 0.0
H1798 H 0.60491 0.58934 0.25973 0.0
H1799 H 0.62498 0.56334 0.2464 0.0
H1800 H 0.61968 0.52371 0.18444 0.0
H1801 H 0.61527 0.52813 0.21981 0.0
H1802 H 0.53539 0.616 0.1605 0.0
H1803 H 0.52552 0.61491 0.1948 0.0
H1804 H 0.57303 0.62676 0.13955 0.0
H1805 H 0.59996 0.60746 0.12672 0.0
C1806 C 0.61797 0.33693 0.46355 0.0
C1807 C 0.59183 0.3422 0.47541 0.0
C1808 C 0.57377 0.35474 0.43053 0.0
C1809 C 0.60008 0.35017 0.41882 0.0
N1810 N 0.64545 0.33136 0.42241 0.0
N1811 N 0.54339 0.34968 0.46992 0.0
C1812 C 0.62149 0.33913 0.43473 0.0
C1813 C 0.56922 0.349 0.45871 0.0
N1814 N 0.64001 0.3319 0.48 0.0
N1815 N 0.55344 0.3653 0.41481 0.0
H1816 H 0.53962 0.34524 0.49045 0.0
H1817 H 0.52551 0.35226 0.45862 0.0
H1818 H 0.55565 0.36824 0.39379 0.0
H1819 H 0.53487 0.37221 0.42263 0.0
H1820 H 0.66032 0.33163 0.47312 0.0
H1821 H 0.63838 0.32966 0.5011 0.0
H1822 H 0.66053 0.32039 0.43226 0.0
H1823 H 0.64953 0.334 0.40166 0.0
C1824 C 0.73103 0.85896 0.60633 0.0
C1825 C 0.72957 0.88782 0.60865 0.0
C1826 C 0.77984 0.89131 0.61376 0.0
C1827 C 0.78108 0.86245 0.61205 0.0
N1828 N 0.75753 0.8189 0.61551 0.0
N1829 N 0.75134 0.93055 0.62195 0.0
C1830 C 0.75648 0.84634 0.61138 0.0
C1831 C 0.75362 0.9037 0.61485 0.0
N1832 N 0.70891 0.84365 0.59718 0.0
N1833 N 0.80346 0.90699 0.61257 0.0
H1834 H 0.73234 0.94003 0.62328 0.0
H1835 H 0.76783 0.94258 0.62914 0.0
H1836 H 0.82309 0.89885 0.61171 0.0
H1837 H 0.80353 0.92808 0.61042 0.0
H1838 H 0.71009 0.82301 0.59223 0.0
H1839 H 0.69005 0.85179 0.59189 0.0
H1840 H 0.73997 0.80646 0.61778 0.0
H1841 H 0.77594 0.80915 0.61961 0.0
C1842 C 0.22021 0.59977 0.35457 0.0
C1843 C 0.22173 0.57121 0.35904 0.0
C1844 C 0.27095 0.57623 0.3688 0.0
C1845 C 0.26919 0.60475 0.36462 0.0
N1846 N 0.24545 0.64138 0.34349 0.0
N1847 N 0.24996 0.53159 0.36047 0.0
C1848 C 0.24493 0.61561 0.35376 0.0
C1849 C 0.2477 0.55922 0.36261 0.0
N1850 N 0.19543 0.6124 0.35387 0.0
N1851 N 0.29367 0.56552 0.38072 0.0
H1852 H 0.23315 0.51878 0.35553 0.0
H1853 H 0.26883 0.52188 0.36065 0.0
H1854 H 0.31113 0.577 0.38622 0.0
H1855 H 0.29434 0.54536 0.3871 0.0
H1856 H 0.19373 0.63352 0.35357 0.0
H1857 H 0.17655 0.60234 0.35639 0.0
H1858 H 0.2288 0.64955 0.33321 0.0
H1859 H 0.26357 0.65329 0.34266 0.0
C1860 C 0.61422 0.0218 0.64963 0.0
C1861 C 0.59677 0.03732 0.63284 0.0
C1862 C 0.6029 0.00485 0.59483 0.0
C1863 C 0.62156 -0.00978 0.61111 0.0
N1864 N 0.64861 -0.01318 0.6522 0.0
N1865 N 0.57689 0.04597 0.58869 0.0
C1866 C 0.62813 -0.00082 0.63809 0.0
C1867 C 0.59195 0.02961 0.60514 0.0
N1868 N 0.61747 0.02869 0.67666 0.0
N1869 N 0.59466 -0.00564 0.57003 0.0
H1870 H 0.56727 0.06346 0.59583 0.0
H1871 H 0.57532 0.04329 0.56759 0.0
H1872 H 0.60212 -0.02377 0.56188 0.0
H1873 H 0.57886 0.00231 0.55843 0.0
H1874 H 0.62692 0.01631 0.69082 0.0
H1875 H 0.60937 0.04624 0.68546 0.0
H1876 H 0.6566 -0.00583 0.67068 0.0
H1877 H 0.65936 0.97028 0.64441 0.0
C1878 C 0.15775 0.38723 0.86634 0.0
C1879 C 0.15782 0.3591 0.85925 0.0
C1880 C 0.20084 0.36591 0.83382 0.0
C1881 C 0.2042 0.39129 0.84751 0.0
N1882 N 0.18112 0.43146 0.86224 0.0
N1883 N 0.17575 0.32248 0.83185 0.0
C1884 C 0.18079 0.40383 0.85876 0.0
C1885 C 0.17796 0.34885 0.841 0.0
N1886 N 0.13715 0.39738 0.88229 0.0
N1887 N 0.21896 0.35877 0.81374 0.0
H1888 H 0.15834 0.31021 0.83578 0.0
H1889 H 0.19121 0.31265 0.82105 0.0
H1890 H 0.234 0.37248 0.80656 0.0
H1891 H 0.21708 0.34097 0.80205 0.0
H1892 H 0.13772 0.41691 0.89084 0.0
H1893 H 0.11975 0.38588 0.88786 0.0
H1894 H 0.16415 0.44241 0.86874 0.0
H1895 H 0.1979 0.44351 0.85579 0.0
C1896 C 0.36757 0.42993 0.59984 0.0
C1897 C 0.35158 0.40699 0.60855 0.0
C1898 C 0.30948 0.4335 0.60526 0.0
C1899 C 0.32521 0.45556 0.59429 0.0
N1900 N 0.36835 0.47309 0.57623 0.0
N1901 N 0.30695 0.38516 0.61488 0.0
C1902 C 0.35403 0.45331 0.59018 0.0
C1903 C 0.3224 0.40827 0.60999 0.0
N1904 N 0.39568 0.42996 0.60201 0.0
N1905 N 0.28243 0.43695 0.61213 0.0
H1906 H 0.31563 0.36621 0.618 0.0
H1907 H 0.28554 0.3842 0.61333 0.0
H1908 H 0.27226 0.45515 0.6091 0.0
H1909 H 0.27075 0.42264 0.62301 0.0
H1910 H 0.40816 0.4472 0.59881 0.0
H1911 H 0.40647 0.41353 0.60951 0.0
H1912 H 0.38874 0.47109 0.56993 0.0
H1913 H 0.35918 0.49049 0.56872 0.0
C1914 C 0.69131 0.04582 0.11148 0.0
C1915 C 0.7157 0.06171 0.10707 0.0
C1916 C 0.68886 0.10326 0.11143 0.0
C1917 C 0.66414 0.08733 0.11024 0.0
N1918 N 0.64161 0.04292 0.10717 0.0
N1919 N 0.73706 0.10617 0.09928 0.0
C1920 C 0.66521 0.05841 0.11023 0.0
C1921 C 0.71447 0.09065 0.10656 0.0
N1922 N 0.69317 0.0187 0.11699 0.0
N1923 N 0.68779 0.13053 0.11719 0.0
H1924 H 0.75616 0.09817 0.09443 0.0
H1925 H 0.73618 0.12698 0.0955 0.0
H1926 H 0.66929 0.14026 0.1212 0.0
H1927 H 0.7053 0.14274 0.12086 0.0
H1928 H 0.67635 0.00652 0.12287 0.0
H1929 H 0.71207 0.00906 0.11837 0.0
H1930 H 0.64157 0.02193 0.10374 0.0
H1931 H 0.62207 0.05117 0.10598 0.0
C1932 C 0.61874 0.93243 0.8592 0.0
C1933 C 0.61505 0.96013 0.85181 0.0
C1934 C 0.58367 0.94454 0.81593 0.0
C1935 C 0.58297 0.91779 0.82667 0.0
N1936 N 0.59462 0.8893 0.86498 0.0
N1937 N 0.58381 -0.00864 0.83007 0.0
C1938 C 0.59896 0.91246 0.85026 0.0
C1939 C 0.59439 0.96595 0.83231 0.0
N1940 N 0.64135 0.92463 0.87343 0.0
N1941 N 0.57537 0.94971 0.78986 0.0
H1942 H 0.58787 0.00699 0.84423 0.0
H1943 H 0.56778 -0.00459 0.8166 0.0
H1944 H 0.57072 0.93432 0.77559 0.0
H1945 H 0.57711 0.96914 0.78147 0.0
H1946 H 0.64515 0.90422 0.87736 0.0
H1947 H 0.65796 0.9377 0.87801 0.0
H1948 H 0.60486 0.88583 0.88331 0.0
H1949 H 0.57838 0.87557 0.86098 0.0
C1950 C 0.87683 5e-05 0.34349 0.0
C1951 C 0.86527 0.01933 0.32571 0.0
C1952 C 0.81957 -0.0023 0.33052 0.0
C1953 C 0.8311 -0.0214 0.34848 0.0
N1954 N 0.86874 0.96403 0.3764 0.0
N1955 N 0.82544 0.03984 0.30559 0.0
C1956 C 0.85921 -0.01951 0.35626 0.0
C1957 C 0.8365 0.01934 0.32045 0.0
N1958 N 0.9047 0.00027 0.3478 0.0
N1959 N 0.79286 -0.00577 0.32194 0.0
H1960 H 0.83726 0.05523 0.29644 0.0
H1961 H 0.80435 0.04276 0.30377 0.0
H1962 H 0.77969 -0.02123 0.3291 0.0
H1963 H 0.78414 0.00542 0.30636 0.0
H1964 H 0.91492 -0.01517 0.35772 0.0
H1965 H 0.91801 0.01548 0.34033 0.0
H1966 H 0.88829 0.9661 0.38501 0.0
H1967 H 0.85629 0.94947 0.38615 0.0
C1968 C 0.36131 0.24102 0.12433 0.0
C1969 C 0.3407 0.23453 0.10467 0.0
C1970 C 0.33566 0.18893 0.12435 0.0
C1971 C 0.36025 0.19379 0.13973 0.0
N1972 N 0.40065 0.22329 0.14709 0.0
N1973 N 0.3087 0.20183 0.08485 0.0
C1974 C 0.37411 0.21962 0.13809 0.0
C1975 C 0.32789 0.20831 0.10438 0.0
N1976 N 0.36973 0.26742 0.12908 0.0
N1977 N 0.3194 0.16641 0.12925 0.0
H1978 H 0.30178 0.21616 0.07097 0.0
H1979 H 0.30082 0.18211 0.08167 0.0
H1980 H 0.32368 0.1526 0.14464 0.0
H1981 H 0.30025 0.16303 0.12006 0.0
H1982 H 0.38317 0.273 0.14492 0.0
H1983 H 0.3612 0.28398 0.11938 0.0
H1984 H 0.41201 0.24134 0.14431 0.0
H1985 H 0.41283 0.20751 0.15372 0.0
C1986 C 0.533 0.59102 0.81363 0.0
C1987 C 0.53536 0.60846 0.8369 0.0
C1988 C 0.48546 0.60419 0.84362 0.0
C1989 C 0.48279 0.59113 0.81761 0.0
N1990 N 0.50468 0.57836 0.77488 0.0
N1991 N 0.51224 0.6367 0.87048 0.0
C1992 C 0.50674 0.58619 0.80173 0.0
C1993 C 0.51119 0.61645 0.85105 0.0
N1994 N 0.55563 0.57847 0.80322 0.0
N1995 N 0.46396 0.60407 0.86173 0.0
H1996 H 0.53023 0.6476 0.87559 0.0
H1997 H 0.49457 0.64475 0.87929 0.0
H1998 H 0.44528 0.59376 0.85801 0.0
H1999 H 0.46592 0.61143 0.88175 0.0
H2000 H 0.55434 0.56385 0.78759 0.0
H2001 H 0.57504 0.58018 0.81234 0.0
H2002 H 0.52182 0.57684 0.76209 0.0
H2003 H 0.48596 0.57667 0.76449 0.0
C2004 C 0.10037 0.72172 0.62025 0.0
C2005 C 0.09608 0.71957 0.59141 0.0
C2006 C 0.0843 0.76789 0.5902 0.0
C2007 C 0.08801 0.76964 0.61898 0.0
N2008 N 0.1098 0.7519 0.65888 0.0
N2009 N 0.09384 0.74275 0.54834 0.0
C2010 C 0.09974 0.74777 0.63303 0.0
C2011 C 0.09146 0.74349 0.57618 0.0
N2012 N 0.10252 0.69908 0.63609 0.0
N2013 N 0.07222 0.78852 0.57647 0.0
H2014 H 0.09971 0.72524 0.53772 0.0
H2015 H 0.09294 0.76006 0.53626 0.0
H2016 H 0.0667 0.80679 0.58577 0.0
H2017 H 0.06601 0.78677 0.55611 0.0
H2018 H 0.10207 0.69991 0.6574 0.0
H2019 H 0.10235 0.67919 0.62862 0.0
H2020 H 0.12087 0.73731 0.66927 0.0
H2021 H 0.10972 0.77099 0.66855 0.0
C2022 C 0.9467 0.31715 0.30213 0.0
C2023 C 0.95798 0.34278 0.31061 0.0
C2024 C 0.9152 0.35297 0.33516 0.0
C2025 C 0.90469 0.32663 0.32813 0.0
N2026 N 0.9129 0.28122 0.31076 0.0
N2027 N 0.95558 0.38273 0.33974 0.0
C2028 C 0.92116 0.30799 0.3133 0.0
C2029 C 0.94297 0.36007 0.32844 0.0
N2030 N 0.95974 0.30205 0.28254 0.0
N2031 N 0.8984 0.3715 0.34738 0.0
H2032 H -0.02394 0.38834 0.33571 0.0
H2033 H 0.94664 0.39454 0.35505 0.0
H2034 H 0.87797 0.36698 0.35267 0.0
H2035 H 0.90398 0.39196 0.35027 0.0
H2036 H 0.95087 0.28468 0.27341 0.0
H2037 H -0.02165 0.30816 0.27351 0.0
H2038 H 0.92549 0.26616 0.30279 0.0
H2039 H 0.89457 0.27346 0.31909 0.0
C2040 C 0.37628 0.76799 0.36016 0.0
C2041 C 0.36919 0.76815 0.33196 0.0
C2042 C 0.34138 0.72629 0.3373 0.0
C2043 C 0.34788 0.72654 0.36562 0.0
N2044 N 0.36688 0.74967 0.40526 0.0
N2045 N 0.34085 0.75128 0.29476 0.0
C2046 C 0.36378 0.74816 0.37748 0.0
C2047 C 0.35051 0.74838 0.32082 0.0
N2048 N 0.39608 0.7858 0.37004 0.0
N2049 N 0.32685 0.70468 0.3261 0.0
H2050 H 0.34695 0.76744 0.28225 0.0
H2051 H 0.32507 0.73918 0.28632 0.0
H2052 H 0.31842 0.68883 0.33771 0.0
H2053 H 0.32441 0.70159 0.30513 0.0
H2054 H 0.40443 0.7847 0.38959 0.0
H2055 H 0.40584 0.80057 0.35803 0.0
H2056 H 0.37572 0.76645 0.41545 0.0
H2057 H 0.35866 0.73498 0.41842 0.0
C2058 C -0.0144 0.61023 0.10761 0.0
C2059 C -0.01342 0.60705 0.13645 0.0
C2060 C 0.93775 0.59286 0.13704 0.0
C2061 C 0.93706 0.59554 0.10822 0.0
N2062 N 0.96127 0.60009 0.06533 0.0
N2063 N 0.9659 0.58996 0.17789 0.0
C2064 C 0.96134 0.60205 0.09327 0.0
C2065 C 0.96331 0.59667 0.15096 0.0
N2066 N 0.00708 0.62268 0.09407 0.0
N2067 N 0.91385 0.58765 0.15112 0.0
H2068 H -0.0155 0.5922 0.18848 0.0
H2069 H 0.95048 0.57997 0.18904 0.0
H2070 H 0.89494 0.58409 0.14142 0.0
H2071 H 0.91238 0.5885 0.17236 0.0
H2072 H 0.00602 0.62862 0.07372 0.0
H2073 H 0.02532 0.62916 0.10357 0.0
H2074 H -0.02092 0.60166 0.05344 0.0
H2075 H 0.94376 0.59438 0.05407 0.0
C2076 C 0.06695 0.23423 0.84836 0.0
C2077 C 0.08832 0.23277 0.86815 0.0
C2078 C 0.09576 0.18569 0.85294 0.0
C2079 C 0.07142 0.18617 0.83682 0.0
N2080 N 0.02818 0.20905 0.82985 0.0
N2081 N 0.11699 0.20284 0.89452 0.0
C2082 C 0.05513 0.20979 0.83791 0.0
C2083 C 0.10097 0.2072 0.87215 0.0
N2084 N 0.05893 0.25847 0.83786 0.0
N2085 N 0.11462 0.16579 0.84926 0.0
H2086 H 0.11918 0.21691 0.91054 0.0
H2087 H 0.12493 0.18379 0.89879 0.0
H2088 H 0.11304 0.15116 0.83372 0.0
H2089 H 0.13351 0.16609 0.85943 0.0
H2090 H 0.04421 0.25943 0.82237 0.0
H2091 H 0.06968 0.27684 0.84115 0.0
H2092 H 0.01563 0.22593 0.83191 0.0
H2093 H 0.01752 0.19095 0.82494 0.0
C2094 C 0.49622 0.35171 0.58929 0.0
C2095 C 0.52081 0.35777 0.60397 0.0
C2096 C 0.49494 0.35718 0.64717 0.0
C2097 C 0.47117 0.34756 0.63279 0.0
N2098 N 0.44988 0.33231 0.59043 0.0
N2099 N 0.5446 0.36498 0.64673 0.0
C2100 C 0.47185 0.34425 0.60386 0.0
C2101 C 0.52044 0.36034 0.6329 0.0
N2102 N 0.49619 0.35318 0.56136 0.0
N2103 N 0.49289 0.36391 0.67431 0.0
H2104 H 0.56343 0.36835 0.63683 0.0
H2105 H 0.54631 0.36392 0.66792 0.0
H2106 H 0.47442 0.3621 0.6852 0.0
H2107 H 0.50871 0.37347 0.68544 0.0
H2108 H 0.4783 0.35191 0.54962 0.0
H2109 H 0.51381 0.35811 0.54999 0.0
H2110 H 0.45046 0.32638 0.56991 0.0
H2111 H 0.4317 0.32613 0.60017 0.0
C2112 C 0.10276 0.35329 0.21244 0.0
C2113 C 0.07392 0.34739 0.21267 0.0
C2114 C 0.07278 0.34848 0.16255 0.0
C2115 C 0.10138 0.35522 0.16246 0.0
N2116 N 0.14501 0.35613 0.18582 0.0
N2117 N 0.03308 0.33223 0.18866 0.0
C2118 C 0.11684 0.35494 0.18698 0.0
C2119 C 0.05949 0.34254 0.18784 0.0
N2120 N 0.11638 0.35926 0.23632 0.0
N2121 N 0.05808 0.34926 0.13876 0.0
H2122 H 0.02313 0.32754 0.20704 0.0
H2123 H 0.02204 0.32599 0.17135 0.0
H2124 H 0.06723 0.35306 0.1198 0.0
H2125 H 0.03666 0.34771 0.13791 0.0
H2126 H 0.13646 0.36721 0.23707 0.0
H2127 H 0.10715 0.35795 0.25553 0.0
H2128 H 0.15759 0.35331 0.20274 0.0
H2129 H 0.15584 0.3573 0.16737 0.0
C2130 C 0.30131 0.32903 0.93754 0.0
C2131 C 0.31323 0.3554 0.93378 0.0
C2132 C 0.34617 0.34777 0.97061 0.0
C2133 C 0.33184 0.32305 -0.0232 0.0
N2134 N 0.29541 0.29007 0.96742 0.0
N2135 N 0.34635 0.39069 0.94653 0.0
C2136 C 0.30951 0.31342 0.96038 0.0
C2137 C 0.33562 0.36494 0.95016 0.0
N2138 N 0.28214 0.31905 0.91931 0.0
N2139 N 0.37029 0.35439 -0.01615 0.0
H2140 H 0.34029 0.40327 0.93068 0.0
H2141 H 0.36023 0.40021 0.95999 0.0
H2142 H 0.37874 0.34215 -0.00116 0.0
H2143 H 0.38324 0.37068 -0.02156 0.0
H2144 H 0.27454 0.29904 0.91926 0.0
H2145 H 0.27526 0.33028 0.90278 0.0
H2146 H 0.27706 0.28345 0.95824 0.0
H2147 H 0.30122 0.27796 -0.01627 0.0
C2148 C 0.33248 0.58819 0.6862 0.0
C2149 C 0.34977 0.58789 0.66281 0.0
C2150 C 0.39046 0.59285 0.69226 0.0
C2151 C 0.37343 0.58825 0.71546 0.0
N2152 N 0.32814 0.57922 0.7346 0.0
N2153 N 0.3954 0.58874 0.64302 0.0
C2154 C 0.34434 0.58575 0.71257 0.0
C2155 C 0.37884 0.59036 0.66562 0.0
N2156 N 0.30469 0.59101 0.68313 0.0
N2157 N 0.41767 0.59983 0.69582 0.0
H2158 H 0.38769 0.58721 0.62315 0.0
H2159 H 0.41673 0.5871 0.64401 0.0
H2160 H 0.42662 0.602 0.71516 0.0
H2161 H 0.43066 0.60595 0.67993 0.0
H2162 H 0.29126 0.59404 0.69948 0.0
H2163 H 0.29545 0.59308 0.66401 0.0
H2164 H 0.3073 0.57386 0.73299 0.0
H2165 H 0.33582 0.57703 0.75433 0.0
C2166 C 0.11172 0.58197 0.49233 0.0
C2167 C 0.09524 0.60521 0.4889 0.0
C2168 C 0.09393 0.59492 0.43971 0.0
C2169 C 0.11472 0.57525 0.44301 0.0
N2170 N 0.15067 0.55946 0.47321 0.0
N2171 N 0.07753 0.63791 0.45678 0.0
C2172 C 0.12591 0.57156 0.46951 0.0
C2173 C 0.08825 0.61301 0.46184 0.0
N2174 N 0.11308 0.56882 0.51676 0.0
N2175 N 0.07877 0.59589 0.41625 0.0
H2176 H 0.07549 0.65299 0.47175 0.0
H2177 H 0.07414 0.64476 0.43697 0.0
H2178 H 0.0803 0.58163 0.40041 0.0
H2179 H 0.06217 0.60882 0.41419 0.0
H2180 H 0.12409 0.55098 0.51902 0.0
H2181 H 0.1002 0.57314 0.53327 0.0
H2182 H 0.15968 0.55798 0.4925 0.0
H2183 H 0.16393 0.55479 0.45709 0.0
C2184 C 0.06551 0.60377 0.2676 0.0
C2185 C 0.0835 0.61777 0.2493 0.0
C2186 C 0.12189 0.61308 0.28124 0.0
C2187 C 0.10344 0.60091 0.30039 0.0
N2188 N 0.05709 0.58849 0.31398 0.0
N2189 N 0.12738 0.64003 0.24024 0.0
C2190 C 0.07504 0.59734 0.29419 0.0
C2191 C 0.11132 0.62365 0.25655 0.0
N2192 N 0.03968 0.59567 0.25918 0.0
N2193 N 0.14967 0.61344 0.28607 0.0
H2194 H 0.12039 0.64807 0.22192 0.0
H2195 H 0.14682 0.64755 0.24594 0.0
H2196 H 0.15833 0.60582 0.30384 0.0
H2197 H 0.16435 0.61918 0.27152 0.0
H2198 H 0.02671 0.58281 0.27044 0.0
H2199 H 0.03198 0.5999 0.23981 0.0
H2200 H 0.03575 0.58821 0.3117 0.0
H2201 H 0.0634 0.5836 0.33369 0.0
C2202 C 0.09384 0.37832 0.00734 0.0
C2203 C 0.11328 0.36892 0.02652 0.0
C2204 C 0.1101 0.32327 0.00569 0.0
C2205 C 0.0956 0.33423 -0.01657 0.0
N2206 N 0.06086 0.3663 0.97164 0.0
N2207 N 0.13947 0.33207 0.04495 0.0
C2208 C 0.08345 0.36007 -0.01326 0.0
C2209 C 0.12071 0.34106 0.02648 0.0
N2210 N 0.08595 0.40485 0.00839 0.0
N2211 N 0.11263 0.29569 0.00729 0.0
H2212 H 0.14773 0.34432 0.06058 0.0
H2213 H 0.14824 0.31294 0.04377 0.0
H2214 H 0.10314 0.28241 -0.00686 0.0
H2215 H 0.121 0.28594 0.02405 0.0
H2216 H 0.07467 0.41395 -0.00697 0.0
H2217 H 0.09181 0.41822 0.02422 0.0
H2218 H 0.05 0.38419 0.97416 0.0
H2219 H 0.0505 0.35181 0.95945 0.0
C2220 C 0.32608 0.34209 0.77354 0.0
C2221 C 0.34223 0.35188 0.79592 0.0
C2222 C 0.38394 0.35098 0.76737 0.0
C2223 C 0.36807 0.33949 0.74558 0.0
N2224 N 0.3252 0.31941 0.72921 0.0
N2225 N 0.38673 0.36293 0.81563 0.0
C2226 C 0.33941 0.33387 0.74895 0.0
C2227 C 0.37127 0.35537 0.79332 0.0
N2228 N 0.29796 0.34069 0.77576 0.0
N2229 N 0.41079 0.35888 0.76285 0.0
H2230 H 0.37813 0.36787 0.83457 0.0
H2231 H 0.40818 0.36268 0.81597 0.0
H2232 H 0.42067 0.35618 0.74407 0.0
H2233 H 0.42269 0.37009 0.77688 0.0
H2234 H 0.28487 0.33709 0.75918 0.0
H2235 H 0.28745 0.34477 0.79394 0.0
H2236 H 0.30507 0.312 0.73171 0.0
H2237 H 0.33423 0.31265 0.71106 0.0
C2238 C 0.35321 0.61042 0.49172 0.0
C2239 C 0.33017 0.6204 0.47735 0.0
C2240 C 0.29892 0.59812 0.5099 0.0
C2241 C 0.32145 0.58488 0.52175 0.0
N2242 N 0.37016 0.5769 0.52355 0.0
N2243 N 0.28093 0.61713 0.46874 0.0
C2244 C 0.34876 0.59074 0.51273 0.0
C2245 C 0.30295 0.61262 0.48542 0.0
N2246 N 0.37911 0.62007 0.4856 0.0
N2247 N 0.27354 0.59696 0.52215 0.0
H2248 H 0.28276 0.62566 0.44938 0.0
H2249 H 0.26117 0.6093 0.47267 0.0
H2250 H 0.2698 0.58685 0.54052 0.0
H2251 H 0.25706 0.6085 0.51567 0.0
H2252 H 0.39652 0.61549 0.49691 0.0
H2253 H 0.38284 0.63442 0.47036 0.0
H2254 H 0.39021 0.57807 0.51592 0.0
H2255 H 0.36745 0.56294 0.53934 0.0
C2256 C 0.196 0.07032 0.34354 0.0
C2257 C 0.19263 0.0964 0.35588 0.0
C2258 C 0.2341 0.09042 0.38343 0.0
C2259 C 0.23841 0.06518 0.36982 0.0
N2260 N 0.22653 0.03284 0.3341 0.0
N2261 N 0.21107 0.13368 0.38333 0.0
C2262 C 0.22031 0.05568 0.34893 0.0
C2263 C 0.21242 0.10714 0.37467 0.0
N2264 N 0.17536 0.05895 0.3278 0.0
N2265 N 0.2504 0.09816 0.40511 0.0
H2266 H 0.19572 0.14672 0.377 0.0
H2267 H 0.2265 0.14358 0.39473 0.0
H2268 H 0.26695 0.0868 0.41174 0.0
H2269 H 0.24632 0.11473 0.41785 0.0
H2270 H 0.17529 0.03886 0.32073 0.0
H2271 H 0.15709 0.06884 0.32362 0.0
H2272 H 0.21579 0.02651 0.31664 0.0
H2273 H 0.24382 0.02129 0.33807 0.0
C2274 C 0.72133 0.35945 0.56929 0.0
C2275 C 0.72937 0.38403 0.58272 0.0
C2276 C 0.6824 0.38865 0.60041 0.0
C2277 C 0.67328 0.36729 0.5825 0.0
N2278 N 0.68435 0.33377 0.54745 0.0
N2279 N 0.71836 0.42228 0.61156 0.0
C2280 C 0.69284 0.35259 0.56671 0.0
C2281 C 0.71019 0.39856 0.59875 0.0
N2282 N 0.74098 0.34292 0.55854 0.0
N2283 N 0.66448 0.39917 0.61914 0.0
H2284 H 0.73886 0.42929 0.61164 0.0
H2285 H 0.70475 0.43557 0.62093 0.0
H2286 H 0.64422 0.39178 0.62115 0.0
H2287 H 0.67033 0.41321 0.6343 0.0
H2288 H 0.73661 0.32338 0.5509 0.0
H2289 H 0.76204 0.34765 0.5598 0.0
H2290 H 0.6976 0.3252 0.53313 0.0
H2291 H 0.66384 0.32825 0.54392 0.0
C2292 C 0.37741 0.9254 0.36612 0.0
C2293 C 0.36079 0.90477 0.35334 0.0
C2294 C 0.31976 0.93237 0.35958 0.0
C2295 C 0.33617 0.95235 0.37354 0.0
N2296 N 0.37907 0.96568 0.39529 0.0
N2297 N 0.31575 0.88585 0.34246 0.0
C2298 C 0.36456 0.94818 0.37839 0.0
C2299 C 0.3318 0.90744 0.35141 0.0
N2300 N 0.40553 0.92393 0.36536 0.0
N2301 N 0.29301 0.93768 0.35313 0.0
H2302 H 0.32391 0.86723 0.33645 0.0
H2303 H 0.2943 0.88551 0.34324 0.0
H2304 H 0.2834 0.95561 0.35901 0.0
H2305 H 0.28095 0.92528 0.34025 0.0
H2306 H 0.41875 0.93986 0.37151 0.0
H2307 H 0.41584 0.90767 0.35644 0.0
H2308 H 0.39903 0.96212 0.40195 0.0
H2309 H 0.3703 -0.01743 0.40474 0.0
C2310 C 0.76964 0.57332 0.05944 0.0
C2311 C 0.78643 0.585 0.08045 0.0
C2312 C 0.74649 0.58638 0.11105 0.0
C2313 C 0.73111 0.57048 0.09173 0.0
N2314 N 0.72824 0.54711 0.04805 0.0
N2315 N 0.79164 0.60224 0.12658 0.0
C2316 C 0.74255 0.56381 0.06586 0.0
C2317 C 0.77501 0.59182 0.10627 0.0
N2318 N 0.7795 0.5718 0.03324 0.0
N2319 N 0.73362 0.59656 0.13375 0.0
H2320 H 0.81254 0.60686 0.12365 0.0
H2321 H 0.78524 0.60469 0.14678 0.0
H2322 H 0.71264 0.59316 0.13757 0.0
H2323 H 0.74295 0.61038 0.14737 0.0
H2324 H 0.76734 0.56601 0.01652 0.0
H2325 H 0.79918 0.57891 0.02777 0.0
H2326 H 0.73688 0.53885 0.03038 0.0
H2327 H 0.70823 0.53984 0.05181 0.0
C2328 C 0.57068 0.51993 0.35387 0.0
C2329 C 0.58762 0.5438 0.35304 0.0
C2330 C 0.62836 0.51639 0.36075 0.0
C2331 C 0.61208 0.49241 0.35601 0.0
N2332 N 0.56753 0.47124 0.34617 0.0
N2333 N 0.63282 0.56534 0.35522 0.0
C2334 C 0.58306 0.49403 0.35264 0.0
C2335 C 0.61652 0.5423 0.35691 0.0
N2336 N 0.54271 0.52213 0.35581 0.0
N2337 N 0.65512 0.51423 0.36894 0.0
H2338 H 0.6249 0.58471 0.35276 0.0
H2339 H 0.65427 0.5651 0.35456 0.0
H2340 H 0.6641 0.49541 0.37214 0.0
H2341 H 0.66747 0.53083 0.37508 0.0
H2342 H 0.52935 0.50555 0.35914 0.0
H2343 H 0.53314 0.54094 0.35693 0.0
H2344 H 0.54699 0.47188 0.34011 0.0
H2345 H 0.5755 0.45176 0.34477 0.0
C2346 C 0.22031 0.84283 0.86273 0.0
C2347 C 0.22616 0.87132 0.86491 0.0
C2348 C 0.27498 0.86256 0.8727 0.0
C2349 C 0.26906 0.83411 0.87086 0.0
N2350 N 0.23566 0.79706 0.87142 0.0
N2351 N 0.25702 0.90794 0.87897 0.0
C2352 C 0.24152 0.82423 0.8683 0.0
C2353 C 0.25289 0.88104 0.87225 0.0
N2354 N 0.19515 0.83348 0.85355 0.0
N2355 N 0.30172 0.87205 0.87313 0.0
H2356 H 0.24108 0.92185 0.87902 0.0
H2357 H 0.27543 0.91583 0.88704 0.0
H2358 H 0.31858 0.85929 0.87315 0.0
H2359 H 0.30729 0.89257 0.87129 0.0
H2360 H 0.19096 0.81315 0.8484 0.0
H2361 H 0.17895 0.84617 0.84897 0.0
H2362 H 0.21566 0.78894 0.87255 0.0
H2363 H 0.25084 0.78296 0.87556 0.0
C2364 C 0.37137 0.00074 0.09345 0.0
C2365 C 0.34218 -0.00203 0.09343 0.0
C2366 C 0.33857 0.04575 0.10796 0.0
C2367 C 0.36765 0.04753 0.11099 0.0
N2368 N 0.41151 0.02525 0.11122 0.0
N2369 N 0.29786 0.01631 0.10503 0.0
C2370 C 0.38405 0.02466 0.1049 0.0
C2371 C 0.32569 0.02009 0.1018 0.0
N2372 N 0.387 -0.01906 0.08169 0.0
N2373 N 0.32331 0.06875 0.11008 0.0
H2374 H 0.28765 -0.00229 0.10118 0.0
H2375 H 0.28525 0.03084 0.11393 0.0
H2376 H 0.33205 0.08801 0.1141 0.0
H2377 H 0.30243 0.06919 0.10525 0.0
H2378 H 0.40816 -0.01679 0.07848 0.0
H2379 H 0.3785 0.96326 0.07276 0.0
H2380 H 0.42376 0.00813 0.11005 0.0
H2381 H 0.42159 0.04215 0.12006 0.0
C2382 C 0.06707 0.93926 0.59197 0.0
C2383 C 0.08366 0.91652 0.5974 0.0
C2384 C 0.12541 0.94436 0.58881 0.0
C2385 C 0.10875 0.96643 0.58128 0.0
N2386 N 0.06381 -0.0169 0.57007 0.0
N2387 N 0.12816 0.89565 0.59545 0.0
C2388 C 0.07957 0.96337 0.58122 0.0
C2389 C 0.11273 0.91855 0.5942 0.0
N2390 N 0.03958 0.93838 0.59829 0.0
N2391 N 0.15322 0.94831 0.59206 0.0
H2392 H 0.11955 0.8763 0.59887 0.0
H2393 H 0.14904 0.89541 0.59047 0.0
H2394 H 0.16331 0.967 0.58877 0.0
H2395 H 0.16592 0.93379 0.60044 0.0
H2396 H 0.02717 0.95538 0.59763 0.0
H2397 H 0.02962 0.92132 0.6066 0.0
H2398 H 0.04267 -0.01932 0.56683 0.0
H2399 H 0.0722 0.00087 0.56159 0.0
loop_
_geom_bond_atom_site_label_1
_geom_bond_atom_site_label_2
_geom_bond_distance
_geom_bond_site_symmetry_2
_ccdc_geom_bond_type
Zn0 O3 2.031 . S
Zn0 O5 2.049 . S
Zn0 O10 2.067 . S
Zn1 O2 1.962 . S
Zn1 O4 1.986 . S
Zn1 O6 1.996 . S
Zn1 O9 1.943 . S
O2 Zn1 1.962 . S
O2 C7 1.254 . S
O3 Zn0 2.031 . S
O3 C7 1.269 . S
O4 Zn1 1.986 . S
O4 C11 1.262 . S
O5 Zn0 2.049 . S
O5 C13 1.260 . S
O6 Zn1 1.996 . S
O6 C13 1.257 . S
C7 O2 1.254 . S
C7 O3 1.269 . S
C8 O9 1.249 . S
C8 O10 1.270 . S
O9 Zn1 1.943 . S
O9 C8 1.249 . S
O10 Zn0 2.067 . S
O10 C8 1.270 . S
C11 O4 1.262 . S
C11 O12 1.232 . S
O12 C11 1.232 . S
C13 O5 1.260 . S
C13 O6 1.257 . S
Zn14 O17 2.031 . S
Zn14 O19 2.049 . S
Zn14 O24 2.067 . S
Zn15 O16 1.962 . S
Zn15 O18 1.986 . S
Zn15 O20 1.996 . S
Zn15 O23 1.943 . S
O16 Zn15 1.962 . S
O16 C21 1.254 . S
O17 Zn14 2.031 . S
O17 C21 1.269 . S
O18 Zn15 1.986 . S
O18 C25 1.262 . S
O19 Zn14 2.049 . S
O19 C27 1.260 . S
O20 Zn15 1.996 . S
O20 C27 1.257 . S
C21 O16 1.254 . S
C21 O17 1.269 . S
C22 O23 1.249 . S
C22 O24 1.270 . S
O23 Zn15 1.943 . S
O23 C22 1.249 . S
O24 Zn14 2.067 . S
O24 C22 1.270 . S
C25 O18 1.262 . S
C25 O26 1.232 . S
O26 C25 1.232 . S
C27 O19 1.260 . S
C27 O20 1.257 . S
Zn28 O31 2.031 . S
Zn28 O33 2.049 . S
Zn28 O38 2.067 . S
Zn29 O30 1.962 . S
Zn29 O32 1.986 . S
Zn29 O34 1.996 . S
Zn29 O37 1.943 . S
O30 Zn29 1.962 . S
O30 C35 1.254 . S
O31 Zn28 2.031 . S
O31 C35 1.269 . S
O32 Zn29 1.986 . S
O32 C39 1.262 . S
O33 Zn28 2.049 . S
O33 C41 1.260 . S
O34 Zn29 1.996 . S
O34 C41 1.257 . S
C35 O30 1.254 . S
C35 O31 1.269 . S
C36 O37 1.249 . S
C36 O38 1.270 . S
O37 Zn29 1.943 . S
O37 C36 1.249 . S
O38 Zn28 2.067 . S
O38 C36 1.270 . S
C39 O32 1.262 . S
C39 O40 1.232 . S
O40 C39 1.232 . S
C41 O33 1.260 . S
C41 O34 1.257 . S
Zn42 O45 2.031 . S
Zn42 O47 2.049 . S
Zn42 O52 2.067 . S
Zn43 O44 1.962 . S
Zn43 O46 1.986 . S
Zn43 O48 1.996 . S
Zn43 O51 1.943 . S
O44 Zn43 1.962 . S
O44 C49 1.254 . S
O45 Zn42 2.031 . S
O45 C49 1.269 . S
O46 Zn43 1.986 . S
O46 C53 1.262 . S
O47 Zn42 2.049 . S
O47 C55 1.260 . S
O48 Zn43 1.996 . S
O48 C55 1.257 . S
C49 O44 1.254 . S
C49 O45 1.269 . S
C50 O51 1.249 . S
C50 O52 1.270 . S
O51 Zn43 1.943 . S
O51 C50 1.249 . S
O52 Zn42 2.067 . S
O52 C50 1.270 . S
C53 O46 1.262 . S
C53 O54 1.232 . S
O54 C53 1.232 . S
C55 O47 1.260 . S
C55 O48 1.257 . S
Zn56 O59 2.031 . S
Zn56 O61 2.049 . S
Zn56 O66 2.067 . S
Zn57 O58 1.962 . S
Zn57 O60 1.986 . S
Zn57 O62 1.996 . S
Zn57 O65 1.943 . S
O58 Zn57 1.962 . S
O58 C63 1.254 . S
O59 Zn56 2.031 . S
O59 C63 1.269 . S
O60 Zn57 1.986 . S
O60 C67 1.262 . S
O61 Zn56 2.049 . S
O61 C69 1.260 . S
O62 Zn57 1.996 . S
O62 C69 1.257 . S
C63 O58 1.254 . S
C63 O59 1.269 . S
C64 O65 1.249 . S
C64 O66 1.270 . S
O65 Zn57 1.943 . S
O65 C64 1.249 . S
O66 Zn56 2.067 . S
O66 C64 1.270 . S
C67 O60 1.262 . S
C67 O68 1.232 . S
O68 C67 1.232 . S
C69 O61 1.260 . S
C69 O62 1.257 . S
Zn70 O73 2.031 . S
Zn70 O75 2.049 . S
Zn70 O80 2.067 . S
Zn71 O72 1.962 . S
Zn71 O74 1.986 . S
Zn71 O76 1.996 . S
Zn71 O79 1.943 . S
O72 Zn71 1.962 . S
O72 C77 1.254 . S
O73 Zn70 2.031 . S
O73 C77 1.269 . S
O74 Zn71 1.986 . S
O74 C81 1.262 . S
O75 Zn70 2.049 . S
O75 C83 1.260 . S
O76 Zn71 1.996 . S
O76 C83 1.257 . S
C77 O72 1.254 . S
C77 O73 1.269 . S
C78 O79 1.249 . S
C78 O80 1.270 . S
O79 Zn71 1.943 . S
O79 C78 1.249 . S
O80 Zn70 2.067 . S
O80 C78 1.270 . S
C81 O74 1.262 . S
C81 O82 1.232 . S
O82 C81 1.232 . S
C83 O75 1.260 . S
C83 O76 1.257 . S
Zn84 O87 2.031 . S
Zn84 O89 2.049 . S
Zn84 O94 2.067 . S
Zn85 O86 1.962 . S
Zn85 O88 1.986 . S
Zn85 O90 1.996 . S
Zn85 O93 1.943 . S
O86 Zn85 1.962 . S
O86 C91 1.254 . S
O87 Zn84 2.031 . S
O87 C91 1.269 . S
O88 Zn85 1.986 . S
O88 C95 1.262 . S
O89 Zn84 2.049 . S
O89 C97 1.260 . S
O90 Zn85 1.996 . S
O90 C97 1.257 . S
C91 O86 1.254 . S
C91 O87 1.269 . S
C92 O93 1.249 . S
C92 O94 1.270 . S
O93 Zn85 1.943 . S
O93 C92 1.249 . S
O94 Zn84 2.067 . S
O94 C92 1.270 . S
C95 O88 1.262 . S
C95 O96 1.232 . S
O96 C95 1.232 . S
C97 O89 1.260 . S
C97 O90 1.257 . S
Zn98 O101 2.031 . S
Zn98 O103 2.049 . S
Zn98 O108 2.067 . S
Zn99 O100 1.962 . S
Zn99 O102 1.986 . S
Zn99 O104 1.996 . S
Zn99 O107 1.943 . S
O100 Zn99 1.962 . S
O100 C105 1.254 . S
O101 Zn98 2.031 . S
O101 C105 1.269 . S
O102 Zn99 1.986 . S
O102 C109 1.262 . S
O103 Zn98 2.049 . S
O103 C111 1.260 . S
O104 Zn99 1.996 . S
O104 C111 1.257 . S
C105 O100 1.254 . S
C105 O101 1.269 . S
C106 O107 1.249 . S
C106 O108 1.270 . S
O107 Zn99 1.943 . S
O107 C106 1.249 . S
O108 Zn98 2.067 . S
O108 C106 1.270 . S
C109 O102 1.262 . S
C109 O110 1.232 . S
O110 C109 1.232 . S
C111 O103 1.260 . S
C111 O104 1.257 . S
Zn112 O115 2.031 . S
Zn112 O117 2.049 . S
Zn112 O122 2.067 . S
Zn113 O114 1.962 . S
Zn113 O116 1.986 . S
Zn113 O118 1.996 . S
Zn113 O121 1.943 . S
O114 Zn113 1.962 . S
O114 C119 1.254 . S
O115 Zn112 2.031 . S
O115 C119 1.269 . S
O116 Zn113 1.986 . S
O116 C123 1.262 . S
O117 Zn112 2.049 . S
O117 C125 1.260 . S
O118 Zn113 1.996 . S
O118 C125 1.257 . S
C119 O114 1.254 . S
C119 O115 1.269 . S
C120 O121 1.249 . S
C120 O122 1.270 . S
O121 Zn113 1.943 . S
O121 C120 1.249 . S
O122 Zn112 2.067 . S
O122 C120 1.270 . S
C123 O116 1.262 . S
C123 O124 1.232 . S
O124 C123 1.232 . S
C125 O117 1.260 . S
C125 O118 1.257 . S
Zn126 O129 2.031 . S
Zn126 O131 2.049 . S
Zn126 O136 2.067 . S
Zn127 O128 1.962 . S
Zn127 O130 1.986 . S
Zn127 O132 1.996 . S
Zn127 O135 1.943 . S
O128 Zn127 1.962 . S
O128 C133 1.254 . S
O129 Zn126 2.031 . S
O129 C133 1.269 . S
O130 Zn127 1.986 . S
O130 C137 1.262 . S
O131 Zn126 2.049 . S
O131 C139 1.260 . S
O132 Zn127 1.996 . S
O132 C139 1.257 . S
C133 O128 1.254 . S
C133 O129 1.269 . S
C134 O135 1.249 . S
C134 O136 1.270 . S
O135 Zn127 1.943 . S
O135 C134 1.249 . S
O136 Zn126 2.067 . S
O136 C134 1.270 . S
C137 O130 1.262 . S
C137 O138 1.232 . S
O138 C137 1.232 . S
C139 O131 1.260 . S
C139 O132 1.257 . S
Zn140 O143 2.031 . S
Zn140 O145 2.049 . S
Zn140 O150 2.067 . S
Zn141 O142 1.962 . S
Zn141 O144 1.986 . S
Zn141 O146 1.996 . S
Zn141 O149 1.943 . S
O142 Zn141 1.962 . S
O142 C147 1.254 . S
O143 Zn140 2.031 . S
O143 C147 1.269 . S
O144 Zn141 1.986 . S
O144 C151 1.262 . S
O145 Zn140 2.049 . S
O145 C153 1.260 . S
O146 Zn141 1.996 . S
O146 C153 1.257 . S
C147 O142 1.254 . S
C147 O143 1.269 . S
C148 O149 1.249 . S
C148 O150 1.270 . S
O149 Zn141 1.943 . S
O149 C148 1.249 . S
O150 Zn140 2.067 . S
O150 C148 1.270 . S
C151 O144 1.262 . S
C151 O152 1.232 . S
O152 C151 1.232 . S
C153 O145 1.260 . S
C153 O146 1.257 . S
Zn154 O157 2.031 . S
Zn154 O159 2.049 . S
Zn154 O164 2.067 . S
Zn155 O156 1.962 . S
Zn155 O158 1.986 . S
Zn155 O160 1.996 . S
Zn155 O163 1.943 . S
O156 Zn155 1.962 . S
O156 C161 1.254 . S
O157 Zn154 2.031 . S
O157 C161 1.269 . S
O158 Zn155 1.986 . S
O158 C165 1.262 . S
O159 Zn154 2.049 . S
O159 C167 1.260 . S
O160 Zn155 1.996 . S
O160 C167 1.257 . S
C161 O156 1.254 . S
C161 O157 1.269 . S
C162 O163 1.249 . S
C162 O164 1.270 . S
O163 Zn155 1.943 . S
O163 C162 1.249 . S
O164 Zn154 2.067 . S
O164 C162 1.270 . S
C165 O158 1.262 . S
C165 O166 1.232 . S
O166 C165 1.232 . S
C167 O159 1.260 . S
C167 O160 1.257 . S
Zn168 O171 2.031 . S
Zn168 O173 2.049 . S
Zn168 O178 2.067 . S
Zn169 O170 1.962 . S
Zn169 O172 1.986 . S
Zn169 O174 1.996 . S
Zn169 O177 1.943 . S
O170 Zn169 1.962 . S
O170 C175 1.254 . S
O171 Zn168 2.031 . S
O171 C175 1.269 . S
O172 Zn169 1.986 . S
O172 C179 1.262 . S
O173 Zn168 2.049 . S
O173 C181 1.260 . S
O174 Zn169 1.996 . S
O174 C181 1.257 . S
C175 O170 1.254 . S
C175 O171 1.269 . S
C176 O177 1.249 . S
C176 O178 1.270 . S
O177 Zn169 1.943 . S
O177 C176 1.249 . S
O178 Zn168 2.067 . S
O178 C176 1.270 . S
C179 O172 1.262 . S
C179 O180 1.232 . S
O180 C179 1.232 . S
C181 O173 1.260 . S
C181 O174 1.257 . S
Zn182 O185 2.031 . S
Zn182 O187 2.049 . S
Zn182 O192 2.067 . S
Zn183 O184 1.962 . S
Zn183 O186 1.986 . S
Zn183 O188 1.996 . S
Zn183 O191 1.943 . S
O184 Zn183 1.962 . S
O184 C189 1.254 . S
O185 Zn182 2.031 . S
O185 C189 1.269 . S
O186 Zn183 1.986 . S
O186 C193 1.262 . S
O187 Zn182 2.049 . S
O187 C195 1.260 . S
O188 Zn183 1.996 . S
O188 C195 1.257 . S
C189 O184 1.254 . S
C189 O185 1.269 . S
C190 O191 1.249 . S
C190 O192 1.270 . S
O191 Zn183 1.943 . S
O191 C190 1.249 . S
O192 Zn182 2.067 . S
O192 C190 1.270 . S
C193 O186 1.262 . S
C193 O194 1.232 . S
O194 C193 1.232 . S
C195 O187 1.260 . S
C195 O188 1.257 . S
Zn196 O199 2.031 . S
Zn196 O201 2.049 . S
Zn196 O206 2.067 . S
Zn197 O198 1.962 . S
Zn197 O200 1.986 . S
Zn197 O202 1.996 . S
Zn197 O205 1.943 . S
O198 Zn197 1.962 . S
O198 C203 1.254 . S
O199 Zn196 2.031 . S
O199 C203 1.269 . S
O200 Zn197 1.986 . S
O200 C207 1.262 . S
O201 Zn196 2.049 . S
O201 C209 1.260 . S
O202 Zn197 1.996 . S
O202 C209 1.257 . S
C203 O198 1.254 . S
C203 O199 1.269 . S
C204 O205 1.249 . S
C204 O206 1.270 . S
O205 Zn197 1.943 . S
O205 C204 1.249 . S
O206 Zn196 2.067 . S
O206 C204 1.270 . S
C207 O200 1.262 . S
C207 O208 1.232 . S
O208 C207 1.232 . S
C209 O201 1.260 . S
C209 O202 1.257 . S
Zn210 O213 2.031 . S
Zn210 O215 2.049 . S
Zn210 O220 2.067 . S
Zn211 O212 1.962 . S
Zn211 O214 1.986 . S
Zn211 O216 1.996 . S
Zn211 O219 1.943 . S
O212 Zn211 1.962 . S
O212 C217 1.254 . S
O213 Zn210 2.031 . S
O213 C217 1.269 . S
O214 Zn211 1.986 . S
O214 C221 1.262 . S
O215 Zn210 2.049 . S
O215 C223 1.260 . S
O216 Zn211 1.996 . S
O216 C223 1.257 . S
C217 O212 1.254 . S
C217 O213 1.269 . S
C218 O219 1.249 . S
C218 O220 1.270 . S
O219 Zn211 1.943 . S
O219 C218 1.249 . S
O220 Zn210 2.067 . S
O220 C218 1.270 . S
C221 O214 1.262 . S
C221 O222 1.232 . S
O222 C221 1.232 . S
C223 O215 1.260 . S
C223 O216 1.257 . S
Zn224 O227 2.031 . S
Zn224 O229 2.049 . S
Zn224 O234 2.067 . S
Zn225 O226 1.962 . S
Zn225 O228 1.986 . S
Zn225 O230 1.996 . S
Zn225 O233 1.943 . S
O226 Zn225 1.962 . S
O226 C231 1.254 . S
O227 Zn224 2.031 . S
O227 C231 1.269 . S
O228 Zn225 1.986 . S
O228 C235 1.262 . S
O229 Zn224 2.049 . S
O229 C237 1.260 . S
O230 Zn225 1.996 . S
O230 C237 1.257 . S
C231 O226 1.254 . S
C231 O227 1.269 . S
C232 O233 1.249 . S
C232 O234 1.270 . S
O233 Zn225 1.943 . S
O233 C232 1.249 . S
O234 Zn224 2.067 . S
O234 C232 1.270 . S
C235 O228 1.262 . S
C235 O236 1.232 . S
O236 C235 1.232 . S
C237 O229 1.260 . S
C237 O230 1.257 . S
Zn238 O241 2.031 . S
Zn238 O243 2.049 . S
Zn238 O248 2.067 . S
Zn239 O240 1.962 . S
Zn239 O242 1.986 . S
Zn239 O244 1.996 . S
Zn239 O247 1.943 . S
O240 Zn239 1.962 . S
O240 C245 1.254 . S
O241 Zn238 2.031 . S
O241 C245 1.269 . S
O242 Zn239 1.986 . S
O242 C249 1.262 . S
O243 Zn238 2.049 . S
O243 C251 1.260 . S
O244 Zn239 1.996 . S
O244 C251 1.257 . S
C245 O240 1.254 . S
C245 O241 1.269 . S
C246 O247 1.249 . S
C246 O248 1.270 . S
O247 Zn239 1.943 . S
O247 C246 1.249 . S
O248 Zn238 2.067 . S
O248 C246 1.270 . S
C249 O242 1.262 . S
C249 O250 1.232 . S
O250 C249 1.232 . S
C251 O243 1.260 . S
C251 O244 1.257 . S
Zn252 O255 2.031 . S
Zn252 O257 2.049 . S
Zn252 O262 2.067 . S
Zn253 O254 1.962 . S
Zn253 O256 1.986 . S
Zn253 O258 1.996 . S
Zn253 O261 1.943 . S
O254 Zn253 1.962 . S
O254 C259 1.254 . S
O255 Zn252 2.031 . S
O255 C259 1.269 . S
O256 Zn253 1.986 . S
O256 C263 1.262 . S
O257 Zn252 2.049 . S
O257 C265 1.260 . S
O258 Zn253 1.996 . S
O258 C265 1.257 . S
C259 O254 1.254 . S
C259 O255 1.269 . S
C260 O261 1.249 . S
C260 O262 1.270 . S
O261 Zn253 1.943 . S
O261 C260 1.249 . S
O262 Zn252 2.067 . S
O262 C260 1.270 . S
C263 O256 1.262 . S
C263 O264 1.232 . S
O264 C263 1.232 . S
C265 O257 1.260 . S
C265 O258 1.257 . S
Zn266 O269 2.031 . S
Zn266 O271 2.049 . S
Zn266 O276 2.067 . S
Zn267 O268 1.962 . S
Zn267 O270 1.986 . S
Zn267 O272 1.996 . S
Zn267 O275 1.943 . S
O268 Zn267 1.962 . S
O268 C273 1.254 . S
O269 Zn266 2.031 . S
O269 C273 1.269 . S
O270 Zn267 1.986 . S
O270 C277 1.262 . S
O271 Zn266 2.049 . S
O271 C279 1.260 . S
O272 Zn267 1.996 . S
O272 C279 1.257 . S
C273 O268 1.254 . S
C273 O269 1.269 . S
C274 O275 1.249 . S
C274 O276 1.270 . S
O275 Zn267 1.943 . S
O275 C274 1.249 . S
O276 Zn266 2.067 . S
O276 C274 1.270 . S
C277 O270 1.262 . S
C277 O278 1.232 . S
O278 C277 1.232 . S
C279 O271 1.260 . S
C279 O272 1.257 . S
Zn280 O283 2.031 . S
Zn280 O285 2.049 . S
Zn280 O290 2.067 . S
Zn281 O282 1.962 . S
Zn281 O284 1.986 . S
Zn281 O286 1.996 . S
Zn281 O289 1.943 . S
O282 Zn281 1.962 . S
O282 C287 1.254 . S
O283 Zn280 2.031 . S
O283 C287 1.269 . S
O284 Zn281 1.986 . S
O284 C291 1.262 . S
O285 Zn280 2.049 . S
O285 C293 1.260 . S
O286 Zn281 1.996 . S
O286 C293 1.257 . S
C287 O282 1.254 . S
C287 O283 1.269 . S
C288 O289 1.249 . S
C288 O290 1.270 . S
O289 Zn281 1.943 . S
O289 C288 1.249 . S
O290 Zn280 2.067 . S
O290 C288 1.270 . S
C291 O284 1.262 . S
C291 O292 1.232 . S
O292 C291 1.232 . S
C293 O285 1.260 . S
C293 O286 1.257 . S
Zn294 O297 2.031 . S
Zn294 O299 2.049 . S
Zn294 O304 2.067 . S
Zn295 O296 1.962 . S
Zn295 O298 1.986 . S
Zn295 O300 1.996 . S
Zn295 O303 1.943 . S
O296 Zn295 1.962 . S
O296 C301 1.254 . S
O297 Zn294 2.031 . S
O297 C301 1.269 . S
O298 Zn295 1.986 . S
O298 C305 1.262 . S
O299 Zn294 2.049 . S
O299 C307 1.260 . S
O300 Zn295 1.996 . S
O300 C307 1.257 . S
C301 O296 1.254 . S
C301 O297 1.269 . S
C302 O303 1.249 . S
C302 O304 1.270 . S
O303 Zn295 1.943 . S
O303 C302 1.249 . S
O304 Zn294 2.067 . S
O304 C302 1.270 . S
C305 O298 1.262 . S
C305 O306 1.232 . S
O306 C305 1.232 . S
C307 O299 1.260 . S
C307 O300 1.257 . S
Zn308 O311 2.031 . S
Zn308 O313 2.049 . S
Zn308 O318 2.067 . S
Zn309 O310 1.962 . S
Zn309 O312 1.986 . S
Zn309 O314 1.996 . S
Zn309 O317 1.943 . S
O310 Zn309 1.962 . S
O310 C315 1.254 . S
O311 Zn308 2.031 . S
O311 C315 1.269 . S
O312 Zn309 1.986 . S
O312 C319 1.262 . S
O313 Zn308 2.049 . S
O313 C321 1.260 . S
O314 Zn309 1.996 . S
O314 C321 1.257 . S
C315 O310 1.254 . S
C315 O311 1.269 . S
C316 O317 1.249 . S
C316 O318 1.270 . S
O317 Zn309 1.943 . S
O317 C316 1.249 . S
O318 Zn308 2.067 . S
O318 C316 1.270 . S
C319 O312 1.262 . S
C319 O320 1.232 . S
O320 C319 1.232 . S
C321 O313 1.260 . S
C321 O314 1.257 . S
Zn322 O325 2.031 . S
Zn322 O327 2.049 . S
Zn322 O332 2.067 . S
Zn323 O324 1.962 . S
Zn323 O326 1.986 . S
Zn323 O328 1.996 . S
Zn323 O331 1.943 . S
O324 Zn323 1.962 . S
O324 C329 1.254 . S
O325 Zn322 2.031 . S
O325 C329 1.269 . S
O326 Zn323 1.986 . S
O326 C333 1.262 . S
O327 Zn322 2.049 . S
O327 C335 1.260 . S
O328 Zn323 1.996 . S
O328 C335 1.257 . S
C329 O324 1.254 . S
C329 O325 1.269 . S
C330 O331 1.249 . S
C330 O332 1.270 . S
O331 Zn323 1.943 . S
O331 C330 1.249 . S
O332 Zn322 2.067 . S
O332 C330 1.270 . S
C333 O326 1.262 . S
C333 O334 1.232 . S
O334 C333 1.232 . S
C335 O327 1.260 . S
C335 O328 1.257 . S
Zn336 O339 2.031 . S
Zn336 O341 2.049 . S
Zn336 O346 2.067 . S
Zn337 O338 1.962 . S
Zn337 O340 1.986 . S
Zn337 O342 1.996 . S
Zn337 O345 1.943 . S
O338 Zn337 1.962 . S
O338 C343 1.254 . S
O339 Zn336 2.031 . S
O339 C343 1.269 . S
O340 Zn337 1.986 . S
O340 C347 1.262 . S
O341 Zn336 2.049 . S
O341 C349 1.260 . S
O342 Zn337 1.996 . S
O342 C349 1.257 . S
C343 O338 1.254 . S
C343 O339 1.269 . S
C344 O345 1.249 . S
C344 O346 1.270 . S
O345 Zn337 1.943 . S
O345 C344 1.249 . S
O346 Zn336 2.067 . S
O346 C344 1.270 . S
C347 O340 1.262 . S
C347 O348 1.232 . S
O348 C347 1.232 . S
C349 O341 1.260 . S
C349 O342 1.257 . S
Zn350 O353 2.031 . S
Zn350 O355 2.049 . S
Zn350 O360 2.067 . S
Zn351 O352 1.962 . S
Zn351 O354 1.986 . S
Zn351 O356 1.996 . S
Zn351 O359 1.943 . S
O352 Zn351 1.962 . S
O352 C357 1.254 . S
O353 Zn350 2.031 . S
O353 C357 1.269 . S
O354 Zn351 1.986 . S
O354 C361 1.262 . S
O355 Zn350 2.049 . S
O355 C363 1.260 . S
O356 Zn351 1.996 . S
O356 C363 1.257 . S
C357 O352 1.254 . S
C357 O353 1.269 . S
C358 O359 1.249 . S
C358 O360 1.270 . S
O359 Zn351 1.943 . S
O359 C358 1.249 . S
O360 Zn350 2.067 . S
O360 C358 1.270 . S
C361 O354 1.262 . S
C361 O362 1.232 . S
O362 C361 1.232 . S
C363 O355 1.260 . S
C363 O356 1.257 . S
Zn364 O367 2.031 . S
Zn364 O369 2.049 . S
Zn364 O374 2.067 . S
Zn365 O366 1.962 . S
Zn365 O368 1.986 . S
Zn365 O370 1.996 . S
Zn365 O373 1.943 . S
O366 Zn365 1.962 . S
O366 C371 1.254 . S
O367 Zn364 2.031 . S
O367 C371 1.269 . S
O368 Zn365 1.986 . S
O368 C375 1.262 . S
O369 Zn364 2.049 . S
O369 C377 1.260 . S
O370 Zn365 1.996 . S
O370 C377 1.257 . S
C371 O366 1.254 . S
C371 O367 1.269 . S
C372 O373 1.249 . S
C372 O374 1.270 . S
O373 Zn365 1.943 . S
O373 C372 1.249 . S
O374 Zn364 2.067 . S
O374 C372 1.270 . S
C375 O368 1.262 . S
C375 O376 1.232 . S
O376 C375 1.232 . S
C377 O369 1.260 . S
C377 O370 1.257 . S
Zn378 O381 2.031 . S
Zn378 O383 2.049 . S
Zn378 O388 2.067 . S
Zn379 O380 1.962 . S
Zn379 O382 1.986 . S
Zn379 O384 1.996 . S
Zn379 O387 1.943 . S
O380 Zn379 1.962 . S
O380 C385 1.254 . S
O381 Zn378 2.031 . S
O381 C385 1.269 . S
O382 Zn379 1.986 . S
O382 C389 1.262 . S
O383 Zn378 2.049 . S
O383 C391 1.260 . S
O384 Zn379 1.996 . S
O384 C391 1.257 . S
C385 O380 1.254 . S
C385 O381 1.269 . S
C386 O387 1.249 . S
C386 O388 1.270 . S
O387 Zn379 1.943 . S
O387 C386 1.249 . S
O388 Zn378 2.067 . S
O388 C386 1.270 . S
C389 O382 1.262 . S
C389 O390 1.232 . S
O390 C389 1.232 . S
C391 O383 1.260 . S
C391 O384 1.257 . S
Zn392 O395 2.031 . S
Zn392 O397 2.049 . S
Zn392 O402 2.067 . S
Zn393 O394 1.962 . S
Zn393 O396 1.986 . S
Zn393 O398 1.996 . S
Zn393 O401 1.943 . S
O394 Zn393 1.962 . S
O394 C399 1.254 . S
O395 Zn392 2.031 . S
O395 C399 1.269 . S
O396 Zn393 1.986 . S
O396 C403 1.262 . S
O397 Zn392 2.049 . S
O397 C405 1.260 . S
O398 Zn393 1.996 . S
O398 C405 1.257 . S
C399 O394 1.254 . S
C399 O395 1.269 . S
C400 O401 1.249 . S
C400 O402 1.270 . S
O401 Zn393 1.943 . S
O401 C400 1.249 . S
O402 Zn392 2.067 . S
O402 C400 1.270 . S
C403 O396 1.262 . S
C403 O404 1.232 . S
O404 C403 1.232 . S
C405 O397 1.260 . S
C405 O398 1.257 . S
Zn406 O409 2.031 . S
Zn406 O411 2.049 . S
Zn406 O416 2.067 . S
Zn407 O408 1.962 . S
Zn407 O410 1.986 . S
Zn407 O412 1.996 . S
Zn407 O415 1.943 . S
O408 Zn407 1.962 . S
O408 C413 1.254 . S
O409 Zn406 2.031 . S
O409 C413 1.269 . S
O410 Zn407 1.986 . S
O410 C417 1.262 . S
O411 Zn406 2.049 . S
O411 C419 1.260 . S
O412 Zn407 1.996 . S
O412 C419 1.257 . S
C413 O408 1.254 . S
C413 O409 1.269 . S
C414 O415 1.249 . S
C414 O416 1.270 . S
O415 Zn407 1.943 . S
O415 C414 1.249 . S
O416 Zn406 2.067 . S
O416 C414 1.270 . S
C417 O410 1.262 . S
C417 O418 1.232 . S
O418 C417 1.232 . S
C419 O411 1.260 . S
C419 O412 1.257 . S
Zn420 O423 2.031 . S
Zn420 O425 2.049 . S
Zn420 O430 2.067 . S
Zn421 O422 1.962 . S
Zn421 O424 1.986 . S
Zn421 O426 1.996 . S
Zn421 O429 1.943 . S
O422 Zn421 1.962 . S
O422 C427 1.254 . S
O423 Zn420 2.031 . S
O423 C427 1.269 . S
O424 Zn421 1.986 . S
O424 C431 1.262 . S
O425 Zn420 2.049 . S
O425 C433 1.260 . S
O426 Zn421 1.996 . S
O426 C433 1.257 . S
C427 O422 1.254 . S
C427 O423 1.269 . S
C428 O429 1.249 . S
C428 O430 1.270 . S
O429 Zn421 1.943 . S
O429 C428 1.249 . S
O430 Zn420 2.067 . S
O430 C428 1.270 . S
C431 O424 1.262 . S
C431 O432 1.232 . S
O432 C431 1.232 . S
C433 O425 1.260 . S
C433 O426 1.257 . S
Zn434 O437 2.031 . S
Zn434 O439 2.049 . S
Zn434 O444 2.067 . S
Zn435 O436 1.962 . S
Zn435 O438 1.986 . S
Zn435 O440 1.996 . S
Zn435 O443 1.943 . S
O436 Zn435 1.962 . S
O436 C441 1.254 . S
O437 Zn434 2.031 . S
O437 C441 1.269 . S
O438 Zn435 1.986 . S
O438 C445 1.262 . S
O439 Zn434 2.049 . S
O439 C447 1.260 . S
O440 Zn435 1.996 . S
O440 C447 1.257 . S
C441 O436 1.254 . S
C441 O437 1.269 . S
C442 O443 1.249 . S
C442 O444 1.270 . S
O443 Zn435 1.943 . S
O443 C442 1.249 . S
O444 Zn434 2.067 . S
O444 C442 1.270 . S
C445 O438 1.262 . S
C445 O446 1.232 . S
O446 C445 1.232 . S
C447 O439 1.260 . S
C447 O440 1.257 . S
Zn448 O451 2.031 . S
Zn448 O453 2.049 . S
Zn448 O458 2.067 . S
Zn449 O450 1.962 . S
Zn449 O452 1.986 . S
Zn449 O454 1.996 . S
Zn449 O457 1.943 . S
O450 Zn449 1.962 . S
O450 C455 1.254 . S
O451 Zn448 2.031 . S
O451 C455 1.269 . S
O452 Zn449 1.986 . S
O452 C459 1.262 . S
O453 Zn448 2.049 . S
O453 C461 1.260 . S
O454 Zn449 1.996 . S
O454 C461 1.257 . S
C455 O450 1.254 . S
C455 O451 1.269 . S
C456 O457 1.249 . S
C456 O458 1.270 . S
O457 Zn449 1.943 . S
O457 C456 1.249 . S
O458 Zn448 2.067 . S
O458 C456 1.270 . S
C459 O452 1.262 . S
C459 O460 1.232 . S
O460 C459 1.232 . S
C461 O453 1.260 . S
C461 O454 1.257 . S
Zn462 O465 2.031 . S
Zn462 O467 2.049 . S
Zn462 O472 2.067 . S
Zn463 O464 1.962 . S
Zn463 O466 1.986 . S
Zn463 O468 1.996 . S
Zn463 O471 1.943 . S
O464 Zn463 1.962 . S
O464 C469 1.254 . S
O465 Zn462 2.031 . S
O465 C469 1.269 . S
O466 Zn463 1.986 . S
O466 C473 1.262 . S
O467 Zn462 2.049 . S
O467 C475 1.260 . S
O468 Zn463 1.996 . S
O468 C475 1.257 . S
C469 O464 1.254 . S
C469 O465 1.269 . S
C470 O471 1.249 . S
C470 O472 1.270 . S
O471 Zn463 1.943 . S
O471 C470 1.249 . S
O472 Zn462 2.067 . S
O472 C470 1.270 . S
C473 O466 1.262 . S
C473 O474 1.232 . S
O474 C473 1.232 . S
C475 O467 1.260 . S
C475 O468 1.257 . S
Zn476 O479 2.031 . S
Zn476 O481 2.049 . S
Zn476 O486 2.067 . S
Zn477 O478 1.962 . S
Zn477 O480 1.986 . S
Zn477 O482 1.996 . S
Zn477 O485 1.943 . S
O478 Zn477 1.962 . S
O478 C483 1.254 . S
O479 Zn476 2.031 . S
O479 C483 1.269 . S
O480 Zn477 1.986 . S
O480 C487 1.262 . S
O481 Zn476 2.049 . S
O481 C489 1.260 . S
O482 Zn477 1.996 . S
O482 C489 1.257 . S
C483 O478 1.254 . S
C483 O479 1.269 . S
C484 O485 1.249 . S
C484 O486 1.270 . S
O485 Zn477 1.943 . S
O485 C484 1.249 . S
O486 Zn476 2.067 . S
O486 C484 1.270 . S
C487 O480 1.262 . S
C487 O488 1.232 . S
O488 C487 1.232 . S
C489 O481 1.260 . S
C489 O482 1.257 . S
Zn490 O493 2.031 . S
Zn490 O495 2.049 . S
Zn490 O500 2.067 . S
Zn491 O492 1.962 . S
Zn491 O494 1.986 . S
Zn491 O496 1.996 . S
Zn491 O499 1.943 . S
O492 Zn491 1.962 . S
O492 C497 1.254 . S
O493 Zn490 2.031 . S
O493 C497 1.269 . S
O494 Zn491 1.986 . S
O494 C501 1.262 . S
O495 Zn490 2.049 . S
O495 C503 1.260 . S
O496 Zn491 1.996 . S
O496 C503 1.257 . S
C497 O492 1.254 . S
C497 O493 1.269 . S
C498 O499 1.249 . S
C498 O500 1.270 . S
O499 Zn491 1.943 . S
O499 C498 1.249 . S
O500 Zn490 2.067 . S
O500 C498 1.270 . S
C501 O494 1.262 . S
C501 O502 1.232 . S
O502 C501 1.232 . S
C503 O495 1.260 . S
C503 O496 1.257 . S
Zn504 O507 2.031 . S
Zn504 O509 2.049 . S
Zn504 O514 2.067 . S
Zn505 O506 1.962 . S
Zn505 O508 1.986 . S
Zn505 O510 1.996 . S
Zn505 O513 1.943 . S
O506 Zn505 1.962 . S
O506 C511 1.254 . S
O507 Zn504 2.031 . S
O507 C511 1.269 . S
O508 Zn505 1.986 . S
O508 C515 1.262 . S
O509 Zn504 2.049 . S
O509 C517 1.260 . S
O510 Zn505 1.996 . S
O510 C517 1.257 . S
C511 O506 1.254 . S
C511 O507 1.269 . S
C512 O513 1.249 . S
C512 O514 1.270 . S
O513 Zn505 1.943 . S
O513 C512 1.249 . S
O514 Zn504 2.067 . S
O514 C512 1.270 . S
C515 O508 1.262 . S
C515 O516 1.232 . S
O516 C515 1.232 . S
C517 O509 1.260 . S
C517 O510 1.257 . S
Zn518 O521 2.031 . S
Zn518 O523 2.049 . S
Zn518 O528 2.067 . S
Zn519 O520 1.962 . S
Zn519 O522 1.986 . S
Zn519 O524 1.996 . S
Zn519 O527 1.943 . S
O520 Zn519 1.962 . S
O520 C525 1.254 . S
O521 Zn518 2.031 . S
O521 C525 1.269 . S
O522 Zn519 1.986 . S
O522 C529 1.262 . S
O523 Zn518 2.049 . S
O523 C531 1.260 . S
O524 Zn519 1.996 . S
O524 C531 1.257 . S
C525 O520 1.254 . S
C525 O521 1.269 . S
C526 O527 1.249 . S
C526 O528 1.270 . S
O527 Zn519 1.943 . S
O527 C526 1.249 . S
O528 Zn518 2.067 . S
O528 C526 1.270 . S
C529 O522 1.262 . S
C529 O530 1.232 . S
O530 C529 1.232 . S
C531 O523 1.260 . S
C531 O524 1.257 . S
Zn532 O535 2.031 . S
Zn532 O537 2.049 . S
Zn532 O542 2.067 . S
Zn533 O534 1.962 . S
Zn533 O536 1.986 . S
Zn533 O538 1.996 . S
Zn533 O541 1.943 . S
O534 Zn533 1.962 . S
O534 C539 1.254 . S
O535 Zn532 2.031 . S
O535 C539 1.269 . S
O536 Zn533 1.986 . S
O536 C543 1.262 . S
O537 Zn532 2.049 . S
O537 C545 1.260 . S
O538 Zn533 1.996 . S
O538 C545 1.257 . S
C539 O534 1.254 . S
C539 O535 1.269 . S
C540 O541 1.249 . S
C540 O542 1.270 . S
O541 Zn533 1.943 . S
O541 C540 1.249 . S
O542 Zn532 2.067 . S
O542 C540 1.270 . S
C543 O536 1.262 . S
C543 O544 1.232 . S
O544 C543 1.232 . S
C545 O537 1.260 . S
C545 O538 1.257 . S
Zn546 O549 2.031 . S
Zn546 O551 2.049 . S
Zn546 O556 2.067 . S
Zn547 O548 1.962 . S
Zn547 O550 1.986 . S
Zn547 O552 1.996 . S
Zn547 O555 1.943 . S
O548 Zn547 1.962 . S
O548 C553 1.254 . S
O549 Zn546 2.031 . S
O549 C553 1.269 . S
O550 Zn547 1.986 . S
O550 C557 1.262 . S
O551 Zn546 2.049 . S
O551 C559 1.260 . S
O552 Zn547 1.996 . S
O552 C559 1.257 . S
C553 O548 1.254 . S
C553 O549 1.269 . S
C554 O555 1.249 . S
C554 O556 1.270 . S
O555 Zn547 1.943 . S
O555 C554 1.249 . S
O556 Zn546 2.067 . S
O556 C554 1.270 . S
C557 O550 1.262 . S
C557 O558 1.232 . S
O558 C557 1.232 . S
C559 O551 1.260 . S
C559 O552 1.257 . S
Zn560 O563 2.031 . S
Zn560 O565 2.049 . S
Zn560 O570 2.067 . S
Zn561 O562 1.962 . S
Zn561 O564 1.986 . S
Zn561 O566 1.996 . S
Zn561 O569 1.943 . S
O562 Zn561 1.962 . S
O562 C567 1.254 . S
O563 Zn560 2.031 . S
O563 C567 1.269 . S
O564 Zn561 1.986 . S
O564 C571 1.262 . S
O565 Zn560 2.049 . S
O565 C573 1.260 . S
O566 Zn561 1.996 . S
O566 C573 1.257 . S
C567 O562 1.254 . S
C567 O563 1.269 . S
C568 O569 1.249 . S
C568 O570 1.270 . S
O569 Zn561 1.943 . S
O569 C568 1.249 . S
O570 Zn560 2.067 . S
O570 C568 1.270 . S
C571 O564 1.262 . S
C571 O572 1.232 . S
O572 C571 1.232 . S
C573 O565 1.260 . S
C573 O566 1.257 . S
Zn574 O577 2.031 . S
Zn574 O579 2.049 . S
Zn574 O584 2.067 . S
Zn575 O576 1.962 . S
Zn575 O578 1.986 . S
Zn575 O580 1.996 . S
Zn575 O583 1.943 . S
O576 Zn575 1.962 . S
O576 C581 1.254 . S
O577 Zn574 2.031 . S
O577 C581 1.269 . S
O578 Zn575 1.986 . S
O578 C585 1.262 . S
O579 Zn574 2.049 . S
O579 C587 1.260 . S
O580 Zn575 1.996 . S
O580 C587 1.257 . S
C581 O576 1.254 . S
C581 O577 1.269 . S
C582 O583 1.249 . S
C582 O584 1.270 . S
O583 Zn575 1.943 . S
O583 C582 1.249 . S
O584 Zn574 2.067 . S
O584 C582 1.270 . S
C585 O578 1.262 . S
C585 O586 1.232 . S
O586 C585 1.232 . S
C587 O579 1.260 . S
C587 O580 1.257 . S
Zn588 O591 2.031 . S
Zn588 O593 2.049 . S
Zn588 O598 2.067 . S
Zn589 O590 1.962 . S
Zn589 O592 1.986 . S
Zn589 O594 1.996 . S
Zn589 O597 1.943 . S
O590 Zn589 1.962 . S
O590 C595 1.254 . S
O591 Zn588 2.031 . S
O591 C595 1.269 . S
O592 Zn589 1.986 . S
O592 C599 1.262 . S
O593 Zn588 2.049 . S
O593 C601 1.260 . S
O594 Zn589 1.996 . S
O594 C601 1.257 . S
C595 O590 1.254 . S
C595 O591 1.269 . S
C596 O597 1.249 . S
C596 O598 1.270 . S
O597 Zn589 1.943 . S
O597 C596 1.249 . S
O598 Zn588 2.067 . S
O598 C596 1.270 . S
C599 O592 1.262 . S
C599 O600 1.232 . S
O600 C599 1.232 . S
C601 O593 1.260 . S
C601 O594 1.257 . S
Zn602 O605 2.031 . S
Zn602 O607 2.049 . S
Zn602 O612 2.067 . S
Zn603 O604 1.962 . S
Zn603 O606 1.986 . S
Zn603 O608 1.996 . S
Zn603 O611 1.943 . S
O604 Zn603 1.962 . S
O604 C609 1.254 . S
O605 Zn602 2.031 . S
O605 C609 1.269 . S
O606 Zn603 1.986 . S
O606 C613 1.262 . S
O607 Zn602 2.049 . S
O607 C615 1.260 . S
O608 Zn603 1.996 . S
O608 C615 1.257 . S
C609 O604 1.254 . S
C609 O605 1.269 . S
C610 O611 1.249 . S
C610 O612 1.270 . S
O611 Zn603 1.943 . S
O611 C610 1.249 . S
O612 Zn602 2.067 . S
O612 C610 1.270 . S
C613 O606 1.262 . S
C613 O614 1.232 . S
O614 C613 1.232 . S
C615 O607 1.260 . S
C615 O608 1.257 . S
Zn616 O619 2.031 . S
Zn616 O621 2.049 . S
Zn616 O626 2.067 . S
Zn617 O618 1.962 . S
Zn617 O620 1.986 . S
Zn617 O622 1.996 . S
Zn617 O625 1.943 . S
O618 Zn617 1.962 . S
O618 C623 1.254 . S
O619 Zn616 2.031 . S
O619 C623 1.269 . S
O620 Zn617 1.986 . S
O620 C627 1.262 . S
O621 Zn616 2.049 . S
O621 C629 1.260 . S
O622 Zn617 1.996 . S
O622 C629 1.257 . S
C623 O618 1.254 . S
C623 O619 1.269 . S
C624 O625 1.249 . S
C624 O626 1.270 . S
O625 Zn617 1.943 . S
O625 C624 1.249 . S
O626 Zn616 2.067 . S
O626 C624 1.270 . S
C627 O620 1.262 . S
C627 O628 1.232 . S
O628 C627 1.232 . S
C629 O621 1.260 . S
C629 O622 1.257 . S
Zn630 O633 2.031 . S
Zn630 O635 2.049 . S
Zn630 O640 2.067 . S
Zn631 O632 1.962 . S
Zn631 O634 1.986 . S
Zn631 O636 1.996 . S
Zn631 O639 1.943 . S
O632 Zn631 1.962 . S
O632 C637 1.254 . S
O633 Zn630 2.031 . S
O633 C637 1.269 . S
O634 Zn631 1.986 . S
O634 C641 1.262 . S
O635 Zn630 2.049 . S
O635 C643 1.260 . S
O636 Zn631 1.996 . S
O636 C643 1.257 . S
C637 O632 1.254 . S
C637 O633 1.269 . S
C638 O639 1.249 . S
C638 O640 1.270 . S
O639 Zn631 1.943 . S
O639 C638 1.249 . S
O640 Zn630 2.067 . S
O640 C638 1.270 . S
C641 O634 1.262 . S
C641 O642 1.232 . S
O642 C641 1.232 . S
C643 O635 1.260 . S
C643 O636 1.257 . S
Zn644 O647 2.031 . S
Zn644 O649 2.049 . S
Zn644 O654 2.067 . S
Zn645 O646 1.962 . S
Zn645 O648 1.986 . S
Zn645 O650 1.996 . S
Zn645 O653 1.943 . S
O646 Zn645 1.962 . S
O646 C651 1.254 . S
O647 Zn644 2.031 . S
O647 C651 1.269 . S
O648 Zn645 1.986 . S
O648 C655 1.262 . S
O649 Zn644 2.049 . S
O649 C657 1.260 . S
O650 Zn645 1.996 . S
O650 C657 1.257 . S
C651 O646 1.254 . S
C651 O647 1.269 . S
C652 O653 1.249 . S
C652 O654 1.270 . S
O653 Zn645 1.943 . S
O653 C652 1.249 . S
O654 Zn644 2.067 . S
O654 C652 1.270 . S
C655 O648 1.262 . S
C655 O656 1.232 . S
O656 C655 1.232 . S
C657 O649 1.260 . S
C657 O650 1.257 . S
Zn658 O661 2.031 . S
Zn658 O663 2.049 . S
Zn658 O668 2.067 . S
Zn659 O660 1.962 . S
Zn659 O662 1.986 . S
Zn659 O664 1.996 . S
Zn659 O667 1.943 . S
O660 Zn659 1.962 . S
O660 C665 1.254 . S
O661 Zn658 2.031 . S
O661 C665 1.269 . S
O662 Zn659 1.986 . S
O662 C669 1.262 . S
O663 Zn658 2.049 . S
O663 C671 1.260 . S
O664 Zn659 1.996 . S
O664 C671 1.257 . S
C665 O660 1.254 . S
C665 O661 1.269 . S
C666 O667 1.249 . S
C666 O668 1.270 . S
O667 Zn659 1.943 . S
O667 C666 1.249 . S
O668 Zn658 2.067 . S
O668 C666 1.270 . S
C669 O662 1.262 . S
C669 O670 1.232 . S
O670 C669 1.232 . S
C671 O663 1.260 . S
C671 O664 1.257 . S
C672 C673 1.363 . S
C672 C678 1.379 . S
C672 N680 1.356 . S
C673 C672 1.363 . S
C673 C679 1.363 . S
C674 C675 1.363 . S
C674 C679 1.379 . S
C674 N681 1.356 . S
C675 C674 1.363 . S
C675 C678 1.363 . S
N676 C678 1.356 . S
N676 H688 0.984 . S
N676 H689 0.985 . S
N677 C679 1.356 . S
N677 H682 0.984 . S
N677 H683 0.985 . S
C678 C672 1.379 . S
C678 C675 1.363 . S
C678 N676 1.356 . S
C679 C673 1.363 . S
C679 C674 1.379 . S
C679 N677 1.356 . S
N680 C672 1.356 . S
N680 H686 0.984 . S
N680 H687 0.984 . S
N681 C674 1.356 . S
N681 H684 0.984 . S
N681 H685 0.985 . S
H682 N677 0.984 . S
H683 N677 0.985 . S
H684 N681 0.984 . S
H685 N681 0.985 . S
H686 N680 0.984 . S
H687 N680 0.984 . S
H688 N676 0.984 . S
H689 N676 0.985 . S
C690 C691 1.363 1_655 S
C690 C696 1.379 . S
C690 N698 1.356 1_655 S
C691 C690 1.363 1_455 S
C691 C697 1.363 1_455 S
C692 C693 1.363 . S
C692 C697 1.379 . S
C692 N699 1.356 . S
C693 C692 1.363 . S
C693 C696 1.363 . S
N694 C696 1.356 . S
N694 H706 0.984 . S
N694 H707 0.985 . S
N695 C697 1.356 1_455 S
N695 H700 0.984 . S
N695 H701 0.985 . S
C696 C690 1.379 . S
C696 C693 1.363 . S
C696 N694 1.356 . S
C697 C691 1.363 1_655 S
C697 C692 1.379 . S
C697 N695 1.356 1_655 S
N698 C690 1.356 1_455 S
N698 H704 0.978 1_455 S
N698 H705 0.984 . S
N699 C692 1.356 . S
N699 H702 0.984 . S
N699 H703 0.985 . S
H700 N695 0.984 . S
H701 N695 0.985 . S
H702 N699 0.984 . S
H703 N699 0.985 . S
H704 N698 0.978 1_655 S
H705 N698 0.984 . S
H706 N694 0.984 . S
H707 N694 0.985 . S
C708 C709 1.363 . S
C708 C714 1.379 . S
C708 N716 1.356 . S
C709 C708 1.363 . S
C709 C715 1.363 . S
C710 C711 1.363 . S
C710 C715 1.379 . S
C710 N717 1.356 . S
C711 C710 1.363 . S
C711 C714 1.363 . S
N712 C714 1.356 . S
N712 H724 0.984 . S
N712 H725 0.985 . S
N713 C715 1.356 . S
N713 H718 0.984 . S
N713 H719 0.985 . S
C714 C708 1.379 . S
C714 C711 1.363 . S
C714 N712 1.356 . S
C715 C709 1.363 . S
C715 C710 1.379 . S
C715 N713 1.356 . S
N716 C708 1.356 . S
N716 H722 0.984 . S
N716 H723 0.984 . S
N717 C710 1.356 . S
N717 H720 0.984 . S
N717 H721 0.985 . S
H718 N713 0.984 . S
H719 N713 0.985 . S
H720 N717 0.984 . S
H721 N717 0.985 . S
H722 N716 0.984 . S
H723 N716 0.984 . S
H724 N712 0.984 . S
H725 N712 0.985 . S
C726 C727 1.363 . S
C726 C732 1.379 . S
C726 N734 1.356 . S
C727 C726 1.363 . S
C727 C733 1.363 . S
C728 C729 1.363 . S
C728 C733 1.379 . S
C728 N735 1.356 . S
C729 C728 1.363 . S
C729 C732 1.363 . S
N730 C732 1.356 . S
N730 H742 0.984 . S
N730 H743 0.985 . S
N731 C733 1.356 . S
N731 H736 0.984 . S
N731 H737 0.985 . S
C732 C726 1.379 . S
C732 C729 1.363 . S
C732 N730 1.356 . S
C733 C727 1.363 . S
C733 C728 1.379 . S
C733 N731 1.356 . S
N734 C726 1.356 . S
N734 H740 0.984 . S
N734 H741 0.984 . S
N735 C728 1.356 . S
N735 H738 0.984 . S
N735 H739 0.985 . S
H736 N731 0.984 . S
H737 N731 0.985 . S
H738 N735 0.984 . S
H739 N735 0.985 . S
H740 N734 0.984 . S
H741 N734 0.984 . S
H742 N730 0.984 . S
H743 N730 0.985 . S
C744 C745 1.363 . S
C744 C750 1.379 . S
C744 N752 1.356 . S
C745 C744 1.363 . S
C745 C751 1.363 . S
C746 C747 1.363 . S
C746 C751 1.379 . S
C746 N753 1.356 . S
C747 C746 1.363 . S
C747 C750 1.363 . S
N748 C750 1.356 . S
N748 H760 0.984 . S
N748 H761 0.985 . S
N749 C751 1.356 . S
N749 H754 0.984 . S
N749 H755 0.985 . S
C750 C744 1.379 . S
C750 C747 1.363 . S
C750 N748 1.356 . S
C751 C745 1.363 . S
C751 C746 1.379 . S
C751 N749 1.356 . S
N752 C744 1.356 . S
N752 H758 0.984 . S
N752 H759 0.984 . S
N753 C746 1.356 . S
N753 H756 0.984 . S
N753 H757 0.985 . S
H754 N749 0.984 . S
H755 N749 0.985 . S
H756 N753 0.984 . S
H757 N753 0.985 . S
H758 N752 0.984 . S
H759 N752 0.984 . S
H760 N748 0.984 . S
H761 N748 0.985 . S
C762 C763 1.363 . S
C762 C768 1.379 . S
C762 N770 1.356 . S
C763 C762 1.363 . S
C763 C769 1.363 . S
C764 C765 1.363 . S
C764 C769 1.379 . S
C764 N771 1.356 . S
C765 C764 1.363 . S
C765 C768 1.363 . S
N766 C768 1.356 . S
N766 H778 0.984 . S
N766 H779 0.985 . S
N767 C769 1.356 . S
N767 H772 0.984 . S
N767 H773 0.985 . S
C768 C762 1.379 . S
C768 C765 1.363 . S
C768 N766 1.356 . S
C769 C763 1.363 . S
C769 C764 1.379 . S
C769 N767 1.356 . S
N770 C762 1.356 . S
N770 H776 0.984 . S
N770 H777 0.984 . S
N771 C764 1.356 . S
N771 H774 0.984 . S
N771 H775 0.985 . S
H772 N767 0.984 . S
H773 N767 0.985 . S
H774 N771 0.984 . S
H775 N771 0.985 . S
H776 N770 0.984 . S
H777 N770 0.984 . S
H778 N766 0.984 . S
H779 N766 0.985 . S
C780 C781 1.363 . S
C780 C786 1.379 . S
C780 N788 1.356 . S
C781 C780 1.363 . S
C781 C787 1.363 . S
C782 C783 1.363 . S
C782 C787 1.379 . S
C782 N789 1.356 . S
C783 C782 1.363 . S
C783 C786 1.363 . S
N784 C786 1.356 . S
N784 H796 0.984 . S
N784 H797 0.985 . S
N785 C787 1.356 . S
N785 H790 0.984 . S
N785 H791 0.985 . S
C786 C780 1.379 . S
C786 C783 1.363 . S
C786 N784 1.356 . S
C787 C781 1.363 . S
C787 C782 1.379 . S
C787 N785 1.356 . S
N788 C780 1.356 . S
N788 H794 0.984 . S
N788 H795 0.984 . S
N789 C782 1.356 . S
N789 H792 0.984 . S
N789 H793 0.985 . S
H790 N785 0.984 . S
H791 N785 0.985 . S
H792 N789 0.984 . S
H793 N789 0.985 . S
H794 N788 0.984 . S
H795 N788 0.984 . S
H796 N784 0.984 . S
H797 N784 0.985 . S
C798 C799 1.379 . S
C798 C804 1.341 1_455 S
C798 N806 1.387 . S
C799 C798 1.379 . S
C799 C805 1.363 1_455 S
C800 C801 1.363 . S
C800 C805 1.379 . S
C800 N807 1.356 . S
C801 C800 1.363 . S
C801 C804 1.363 . S
N802 C804 1.356 . S
N802 H814 0.984 . S
N802 H815 0.985 . S
N803 C805 1.356 1_455 S
N803 H808 0.984 . S
N803 H809 0.985 . S
C804 C798 1.341 1_655 S
C804 C801 1.363 . S
C804 N802 1.356 . S
C805 C799 1.363 1_655 S
C805 C800 1.379 . S
C805 N803 1.356 1_655 S
N806 C798 1.387 . S
N806 H812 0.984 . S
N806 H813 0.984 . S
N807 C800 1.356 . S
N807 H810 0.984 . S
N807 H811 0.985 . S
H808 N803 0.984 . S
H809 N803 0.985 . S
H810 N807 0.984 . S
H811 N807 0.985 . S
H812 N806 0.984 . S
H813 N806 0.984 . S
H814 N802 0.984 . S
H815 N802 0.985 . S
C816 C817 1.363 . S
C816 C822 1.379 . S
C816 N824 1.356 . S
C817 C816 1.363 . S
C817 C823 1.363 . S
C818 C819 1.363 . S
C818 C823 1.379 . S
C818 N825 1.356 . S
C819 C818 1.363 . S
C819 C822 1.363 . S
N820 C822 1.356 . S
N820 H832 0.984 . S
N820 H833 0.985 . S
N821 C823 1.356 . S
N821 H826 0.984 . S
N821 H827 0.985 . S
C822 C816 1.379 . S
C822 C819 1.363 . S
C822 N820 1.356 . S
C823 C817 1.363 . S
C823 C818 1.379 . S
C823 N821 1.356 . S
N824 C816 1.356 . S
N824 H830 0.984 . S
N824 H831 0.984 . S
N825 C818 1.356 . S
N825 H828 0.984 . S
N825 H829 0.985 . S
H826 N821 0.984 . S
H827 N821 0.985 . S
H828 N825 0.984 . S
H829 N825 0.985 . S
H830 N824 0.984 . S
H831 N824 0.984 . S
H832 N820 0.984 . S
H833 N820 0.985 . S
C834 C835 1.363 . S
C834 C840 1.379 . S
C834 N842 1.356 . S
C835 C834 1.363 . S
C835 C841 1.363 . S
C836 C837 1.363 . S
C836 C841 1.379 . S
C836 N843 1.356 . S
C837 C836 1.363 . S
C837 C840 1.363 . S
N838 C840 1.356 . S
N838 H850 0.984 . S
N838 H851 0.985 . S
N839 C841 1.356 . S
N839 H844 0.984 . S
N839 H845 0.985 . S
C840 C834 1.379 . S
C840 C837 1.363 . S
C840 N838 1.356 . S
C841 C835 1.363 . S
C841 C836 1.379 . S
C841 N839 1.356 . S
N842 C834 1.356 . S
N842 H848 0.984 . S
N842 H849 0.984 . S
N843 C836 1.356 . S
N843 H846 0.984 . S
N843 H847 0.985 . S
H844 N839 0.984 . S
H845 N839 0.985 . S
H846 N843 0.984 . S
H847 N843 0.985 . S
H848 N842 0.984 . S
H849 N842 0.984 . S
H850 N838 0.984 . S
H851 N838 0.985 . S
C852 C853 1.363 . S
C852 C858 1.379 . S
C852 N860 1.356 . S
C853 C852 1.363 . S
C853 C859 1.363 . S
C854 C855 1.363 . S
C854 C859 1.379 . S
C854 N861 1.356 . S
C855 C854 1.363 . S
C855 C858 1.363 . S
N856 C858 1.356 . S
N856 H868 0.984 . S
N856 H869 0.985 . S
N857 C859 1.356 . S
N857 H862 0.984 . S
N857 H863 0.985 . S
C858 C852 1.379 . S
C858 C855 1.363 . S
C858 N856 1.356 . S
C859 C853 1.363 . S
C859 C854 1.379 . S
C859 N857 1.356 . S
N860 C852 1.356 . S
N860 H866 0.984 . S
N860 H867 0.984 . S
N861 C854 1.356 . S
N861 H864 0.984 . S
N861 H865 0.985 . S
H862 N857 0.984 . S
H863 N857 0.985 . S
H864 N861 0.984 . S
H865 N861 0.985 . S
H866 N860 0.984 . S
H867 N860 0.984 . S
H868 N856 0.984 . S
H869 N856 0.985 . S
C870 C871 1.363 1_554 S
C870 C876 1.379 . S
C870 N878 1.356 1_554 S
C871 C870 1.363 1_556 S
C871 C877 1.363 1_556 S
C872 C873 1.363 . S
C872 C877 1.379 . S
C872 N879 1.356 . S
C873 C872 1.363 . S
C873 C876 1.363 . S
N874 C876 1.356 . S
N874 H886 0.984 . S
N874 H887 0.985 . S
N875 C877 1.356 1_556 S
N875 H880 0.984 . S
N875 H881 0.985 1_556 S
C876 C870 1.379 . S
C876 C873 1.363 . S
C876 N874 1.356 . S
C877 C871 1.363 1_554 S
C877 C872 1.379 . S
C877 N875 1.356 1_554 S
N878 C870 1.356 1_556 S
N878 H884 0.984 . S
N878 H885 0.984 . S
N879 C872 1.356 . S
N879 H882 0.984 . S
N879 H883 0.985 . S
H880 N875 0.984 . S
H881 N875 0.985 1_554 S
H882 N879 0.984 . S
H883 N879 0.985 . S
H884 N878 0.984 . S
H885 N878 0.984 . S
H886 N874 0.984 . S
H887 N874 0.985 . S
C888 C889 1.363 . S
C888 C894 1.379 . S
C888 N896 1.356 . S
C889 C888 1.363 . S
C889 C895 1.363 . S
C890 C891 1.363 . S
C890 C895 1.379 . S
C890 N897 1.356 . S
C891 C890 1.363 . S
C891 C894 1.363 . S
N892 C894 1.356 . S
N892 H904 0.984 . S
N892 H905 0.985 . S
N893 C895 1.356 . S
N893 H898 0.984 . S
N893 H899 0.985 . S
C894 C888 1.379 . S
C894 C891 1.363 . S
C894 N892 1.356 . S
C895 C889 1.363 . S
C895 C890 1.379 . S
C895 N893 1.356 . S
N896 C888 1.356 . S
N896 H902 0.984 . S
N896 H903 0.984 . S
N897 C890 1.356 . S
N897 H900 0.984 . S
N897 H901 0.985 . S
H898 N893 0.984 . S
H899 N893 0.985 . S
H900 N897 0.984 . S
H901 N897 0.985 . S
H902 N896 0.984 . S
H903 N896 0.984 . S
H904 N892 0.984 . S
H905 N892 0.985 . S
C906 C907 1.363 . S
C906 C912 1.379 . S
C906 N914 1.356 . S
C907 C906 1.363 . S
C907 C913 1.363 . S
C908 C909 1.363 . S
C908 C913 1.379 . S
C908 N915 1.356 . S
C909 C908 1.363 . S
C909 C912 1.363 . S
N910 C912 1.356 . S
N910 H922 0.984 . S
N910 H923 0.985 . S
N911 C913 1.356 . S
N911 H916 0.984 . S
N911 H917 0.985 . S
C912 C906 1.379 . S
C912 C909 1.363 . S
C912 N910 1.356 . S
C913 C907 1.363 . S
C913 C908 1.379 . S
C913 N911 1.356 . S
N914 C906 1.356 . S
N914 H920 0.984 . S
N914 H921 0.984 . S
N915 C908 1.356 . S
N915 H918 0.984 . S
N915 H919 0.985 . S
H916 N911 0.984 . S
H917 N911 0.985 . S
H918 N915 0.984 . S
H919 N915 0.985 . S
H920 N914 0.984 . S
H921 N914 0.984 . S
H922 N910 0.984 . S
H923 N910 0.985 . S
C924 C925 1.363 . S
C924 C930 1.379 . S
C924 N932 1.356 . S
C925 C924 1.363 . S
C925 C931 1.363 . S
C926 C927 1.363 . S
C926 C931 1.379 . S
C926 N933 1.356 . S
C927 C926 1.363 . S
C927 C930 1.363 . S
N928 C930 1.356 . S
N928 H940 0.984 . S
N928 H941 0.985 . S
N929 C931 1.356 . S
N929 H934 0.984 . S
N929 H935 0.985 . S
C930 C924 1.379 . S
C930 C927 1.363 . S
C930 N928 1.356 . S
C931 C925 1.363 . S
C931 C926 1.379 . S
C931 N929 1.356 . S
N932 C924 1.356 . S
N932 H938 0.984 . S
N932 H939 0.984 . S
N933 C926 1.356 . S
N933 H936 0.984 . S
N933 H937 0.985 . S
H934 N929 0.984 . S
H935 N929 0.985 . S
H936 N933 0.984 . S
H937 N933 0.985 . S
H938 N932 0.984 . S
H939 N932 0.984 . S
H940 N928 0.984 . S
H941 N928 0.985 . S
C942 C943 1.363 . S
C942 C948 1.379 1_554 S
C942 N950 1.356 . S
C943 C942 1.363 . S
C943 C949 1.363 1_554 S
C944 C945 1.363 . S
C944 C949 1.379 . S
C944 N951 1.356 . S
C945 C944 1.363 . S
C945 C948 1.363 . S
N946 C948 1.356 . S
N946 H958 0.984 . S
N946 H959 0.985 . S
N947 C949 1.356 1_554 S
N947 H952 0.984 . S
N947 H953 0.985 1_554 S
C948 C942 1.379 1_556 S
C948 C945 1.363 . S
C948 N946 1.356 . S
C949 C943 1.363 1_556 S
C949 C944 1.379 . S
C949 N947 1.356 1_556 S
N950 C942 1.356 . S
N950 H956 0.984 . S
N950 H957 0.984 . S
N951 C944 1.356 . S
N951 H954 0.984 . S
N951 H955 0.985 . S
H952 N947 0.984 . S
H953 N947 0.985 1_556 S
H954 N951 0.984 . S
H955 N951 0.985 . S
H956 N950 0.984 . S
H957 N950 0.984 . S
H958 N946 0.984 . S
H959 N946 0.985 . S
C960 C961 1.363 . S
C960 C966 1.379 . S
C960 N968 1.356 . S
C961 C960 1.363 . S
C961 C967 1.363 . S
C962 C963 1.363 . S
C962 C967 1.379 . S
C962 N969 1.356 . S
C963 C962 1.363 . S
C963 C966 1.363 . S
N964 C966 1.356 . S
N964 H976 0.984 . S
N964 H977 0.985 . S
N965 C967 1.356 . S
N965 H970 0.984 . S
N965 H971 0.985 . S
C966 C960 1.379 . S
C966 C963 1.363 . S
C966 N964 1.356 . S
C967 C961 1.363 . S
C967 C962 1.379 . S
C967 N965 1.356 . S
N968 C960 1.356 . S
N968 H974 0.984 . S
N968 H975 0.984 . S
N969 C962 1.356 . S
N969 H972 0.984 . S
N969 H973 0.985 . S
H970 N965 0.984 . S
H971 N965 0.985 . S
H972 N969 0.984 . S
H973 N969 0.985 . S
H974 N968 0.984 . S
H975 N968 0.984 . S
H976 N964 0.984 . S
H977 N964 0.985 . S
C978 C979 1.363 . S
C978 C984 1.379 . S
C978 N986 1.356 . S
C979 C978 1.363 . S
C979 C985 1.363 . S
C980 C981 1.363 . S
C980 C985 1.379 . S
C980 N987 1.356 . S
C981 C980 1.363 . S
C981 C984 1.363 . S
N982 C984 1.356 . S
N982 H994 0.984 . S
N982 H995 0.985 . S
N983 C985 1.356 . S
N983 H988 0.984 . S
N983 H989 0.985 . S
C984 C978 1.379 . S
C984 C981 1.363 . S
C984 N982 1.356 . S
C985 C979 1.363 . S
C985 C980 1.379 . S
C985 N983 1.356 . S
N986 C978 1.356 . S
N986 H992 0.984 . S
N986 H993 0.984 . S
N987 C980 1.356 . S
N987 H990 0.984 . S
N987 H991 0.985 . S
H988 N983 0.984 . S
H989 N983 0.985 . S
H990 N987 0.984 . S
H991 N987 0.985 . S
H992 N986 0.984 . S
H993 N986 0.984 . S
H994 N982 0.984 . S
H995 N982 0.985 . S
C996 C997 1.363 . S
C996 C1002 1.379 . S
C996 N1004 1.356 . S
C997 C996 1.363 . S
C997 C1003 1.363 . S
C998 C999 1.363 . S
C998 C1003 1.379 . S
C998 N1005 1.356 . S
C999 C998 1.363 . S
C999 C1002 1.363 . S
N1000 C1002 1.356 . S
N1000 H1012 0.984 . S
N1000 H1013 0.985 . S
N1001 C1003 1.356 . S
N1001 H1006 0.984 . S
N1001 H1007 0.985 . S
C1002 C996 1.379 . S
C1002 C999 1.363 . S
C1002 N1000 1.356 . S
C1003 C997 1.363 . S
C1003 C998 1.379 . S
C1003 N1001 1.356 . S
N1004 C996 1.356 . S
N1004 H1010 0.984 . S
N1004 H1011 0.984 . S
N1005 C998 1.356 . S
N1005 H1008 0.984 . S
N1005 H1009 0.985 . S
H1006 N1001 0.984 . S
H1007 N1001 0.985 . S
H1008 N1005 0.984 . S
H1009 N1005 0.985 . S
H1010 N1004 0.984 . S
H1011 N1004 0.984 . S
H1012 N1000 0.984 . S
H1013 N1000 0.985 . S
C1014 C1015 1.363 . S
C1014 C1020 1.379 . S
C1014 N1022 1.356 . S
C1015 C1014 1.363 . S
C1015 C1021 1.363 . S
C1016 C1017 1.363 . S
C1016 C1021 1.379 . S
C1016 N1023 1.356 . S
C1017 C1016 1.363 . S
C1017 C1020 1.363 . S
N1018 C1020 1.356 . S
N1018 H1030 0.984 . S
N1018 H1031 0.985 . S
N1019 C1021 1.356 . S
N1019 H1024 0.984 . S
N1019 H1025 0.985 . S
C1020 C1014 1.379 . S
C1020 C1017 1.363 . S
C1020 N1018 1.356 . S
C1021 C1015 1.363 . S
C1021 C1016 1.379 . S
C1021 N1019 1.356 . S
N1022 C1014 1.356 . S
N1022 H1028 0.984 . S
N1022 H1029 0.984 . S
N1023 C1016 1.356 . S
N1023 H1026 0.984 . S
N1023 H1027 0.985 . S
H1024 N1019 0.984 . S
H1025 N1019 0.985 . S
H1026 N1023 0.984 . S
H1027 N1023 0.985 . S
H1028 N1022 0.984 . S
H1029 N1022 0.984 . S
H1030 N1018 0.984 . S
H1031 N1018 0.985 . S
C1032 C1033 1.363 . S
C1032 C1038 1.379 . S
C1032 N1040 1.356 . S
C1033 C1032 1.363 . S
C1033 C1039 1.363 . S
C1034 C1035 1.363 . S
C1034 C1039 1.379 1_545 S
C1034 N1041 1.356 . S
C1035 C1034 1.363 . S
C1035 C1038 1.363 1_545 S
N1036 C1038 1.356 1_545 S
N1036 H1048 0.984 . S
N1036 H1049 0.985 . S
N1037 C1039 1.356 . S
N1037 H1042 0.984 . S
N1037 H1043 0.985 . S
C1038 C1032 1.379 . S
C1038 C1035 1.363 1_565 S
C1038 N1036 1.356 1_565 S
C1039 C1033 1.363 . S
C1039 C1034 1.379 1_565 S
C1039 N1037 1.356 . S
N1040 C1032 1.356 . S
N1040 H1046 0.984 . S
N1040 H1047 0.984 . S
N1041 C1034 1.356 . S
N1041 H1044 0.984 . S
N1041 H1045 0.985 . S
H1042 N1037 0.984 . S
H1043 N1037 0.985 . S
H1044 N1041 0.984 . S
H1045 N1041 0.985 . S
H1046 N1040 0.984 . S
H1047 N1040 0.984 . S
H1048 N1036 0.984 . S
H1049 N1036 0.985 . S
C1050 C1051 1.363 . S
C1050 C1056 1.379 . S
C1050 N1058 1.356 . S
C1051 C1050 1.363 . S
C1051 C1057 1.363 . S
C1052 C1053 1.363 . S
C1052 C1057 1.379 . S
C1052 N1059 1.356 . S
C1053 C1052 1.363 . S
C1053 C1056 1.363 . S
N1054 C1056 1.356 . S
N1054 H1066 0.984 . S
N1054 H1067 0.985 . S
N1055 C1057 1.356 . S
N1055 H1060 0.984 . S
N1055 H1061 0.985 . S
C1056 C1050 1.379 . S
C1056 C1053 1.363 . S
C1056 N1054 1.356 . S
C1057 C1051 1.363 . S
C1057 C1052 1.379 . S
C1057 N1055 1.356 . S
N1058 C1050 1.356 . S
N1058 H1064 0.984 . S
N1058 H1065 0.984 . S
N1059 C1052 1.356 . S
N1059 H1062 0.984 . S
N1059 H1063 0.985 . S
H1060 N1055 0.984 . S
H1061 N1055 0.985 . S
H1062 N1059 0.984 . S
H1063 N1059 0.985 . S
H1064 N1058 0.984 . S
H1065 N1058 0.984 . S
H1066 N1054 0.984 . S
H1067 N1054 0.985 . S
C1068 C1069 1.363 . S
C1068 C1074 1.379 . S
C1068 N1076 1.356 . S
C1069 C1068 1.363 . S
C1069 C1075 1.363 . S
C1070 C1071 1.363 . S
C1070 C1075 1.379 . S
C1070 N1077 1.356 . S
C1071 C1070 1.363 . S
C1071 C1074 1.363 . S
N1072 C1074 1.356 . S
N1072 H1084 0.984 . S
N1072 H1085 0.985 . S
N1073 C1075 1.356 . S
N1073 H1078 0.984 . S
N1073 H1079 0.985 . S
C1074 C1068 1.379 . S
C1074 C1071 1.363 . S
C1074 N1072 1.356 . S
C1075 C1069 1.363 . S
C1075 C1070 1.379 . S
C1075 N1073 1.356 . S
N1076 C1068 1.356 . S
N1076 H1082 0.984 . S
N1076 H1083 0.984 . S
N1077 C1070 1.356 . S
N1077 H1080 0.984 . S
N1077 H1081 0.985 . S
H1078 N1073 0.984 . S
H1079 N1073 0.985 . S
H1080 N1077 0.984 . S
H1081 N1077 0.985 . S
H1082 N1076 0.984 . S
H1083 N1076 0.984 . S
H1084 N1072 0.984 . S
H1085 N1072 0.985 . S
C1086 C1087 1.363 . S
C1086 C1092 1.379 . S
C1086 N1094 1.356 . S
C1087 C1086 1.363 . S
C1087 C1093 1.363 . S
C1088 C1089 1.363 . S
C1088 C1093 1.379 . S
C1088 N1095 1.356 . S
C1089 C1088 1.363 . S
C1089 C1092 1.363 . S
N1090 C1092 1.356 . S
N1090 H1102 0.984 . S
N1090 H1103 0.985 . S
N1091 C1093 1.356 . S
N1091 H1096 0.984 . S
N1091 H1097 0.985 . S
C1092 C1086 1.379 . S
C1092 C1089 1.363 . S
C1092 N1090 1.356 . S
C1093 C1087 1.363 . S
C1093 C1088 1.379 . S
C1093 N1091 1.356 . S
N1094 C1086 1.356 . S
N1094 H1100 0.984 . S
N1094 H1101 0.984 . S
N1095 C1088 1.356 . S
N1095 H1098 0.984 . S
N1095 H1099 0.985 . S
H1096 N1091 0.984 . S
H1097 N1091 0.985 . S
H1098 N1095 0.984 . S
H1099 N1095 0.985 . S
H1100 N1094 0.984 . S
H1101 N1094 0.984 . S
H1102 N1090 0.984 . S
H1103 N1090 0.985 . S
C1104 C1105 1.363 . S
C1104 C1110 1.379 . S
C1104 N1112 1.356 . S
C1105 C1104 1.363 . S
C1105 C1111 1.363 . S
C1106 C1107 1.363 . S
C1106 C1111 1.379 . S
C1106 N1113 1.356 . S
C1107 C1106 1.363 . S
C1107 C1110 1.363 . S
N1108 C1110 1.356 . S
N1108 H1120 0.984 . S
N1108 H1121 0.985 . S
N1109 C1111 1.356 . S
N1109 H1114 0.984 . S
N1109 H1115 0.985 . S
C1110 C1104 1.379 . S
C1110 C1107 1.363 . S
C1110 N1108 1.356 . S
C1111 C1105 1.363 . S
C1111 C1106 1.379 . S
C1111 N1109 1.356 . S
N1112 C1104 1.356 . S
N1112 H1118 0.984 . S
N1112 H1119 0.984 . S
N1113 C1106 1.356 . S
N1113 H1116 0.984 . S
N1113 H1117 0.985 . S
H1114 N1109 0.984 . S
H1115 N1109 0.985 . S
H1116 N1113 0.984 . S
H1117 N1113 0.985 . S
H1118 N1112 0.984 . S
H1119 N1112 0.984 . S
H1120 N1108 0.984 . S
H1121 N1108 0.985 . S
C1122 C1123 1.363 1_455 S
C1122 C1128 1.379 . S
C1122 N1130 1.356 1_455 S
C1123 C1122 1.363 1_655 S
C1123 C1129 1.363 1_655 S
C1124 C1125 1.363 . S
C1124 C1129 1.379 . S
C1124 N1131 1.356 . S
C1125 C1124 1.363 . S
C1125 C1128 1.363 . S
N1126 C1128 1.356 . S
N1126 H1138 0.984 . S
N1126 H1139 0.985 . S
N1127 C1129 1.356 1_655 S
N1127 H1132 0.984 . S
N1127 H1133 0.985 . S
C1128 C1122 1.379 . S
C1128 C1125 1.363 . S
C1128 N1126 1.356 . S
C1129 C1123 1.363 1_455 S
C1129 C1124 1.379 . S
C1129 N1127 1.356 1_455 S
N1130 C1122 1.356 1_655 S
N1130 H1136 0.984 . S
N1130 H1137 0.984 . S
N1131 C1124 1.356 . S
N1131 H1134 0.984 . S
N1131 H1135 0.985 . S
H1132 N1127 0.984 . S
H1133 N1127 0.985 . S
H1134 N1131 0.984 . S
H1135 N1131 0.985 . S
H1136 N1130 0.984 . S
H1137 N1130 0.984 . S
H1138 N1126 0.984 . S
H1139 N1126 0.985 . S
C1140 C1141 1.363 . S
C1140 C1146 1.379 . S
C1140 N1148 1.356 . S
C1141 C1140 1.363 . S
C1141 C1147 1.363 . S
C1142 C1143 1.363 . S
C1142 C1147 1.379 . S
C1142 N1149 1.356 . S
C1143 C1142 1.363 . S
C1143 C1146 1.363 . S
N1144 C1146 1.356 . S
N1144 H1156 0.984 . S
N1144 H1157 0.985 . S
N1145 C1147 1.356 . S
N1145 H1150 0.984 . S
N1145 H1151 0.985 . S
C1146 C1140 1.379 . S
C1146 C1143 1.363 . S
C1146 N1144 1.356 . S
C1147 C1141 1.363 . S
C1147 C1142 1.379 . S
C1147 N1145 1.356 . S
N1148 C1140 1.356 . S
N1148 H1154 0.984 . S
N1148 H1155 0.984 . S
N1149 C1142 1.356 . S
N1149 H1152 0.984 . S
N1149 H1153 0.985 . S
H1150 N1145 0.984 . S
H1151 N1145 0.985 . S
H1152 N1149 0.984 . S
H1153 N1149 0.985 . S
H1154 N1148 0.984 . S
H1155 N1148 0.984 . S
H1156 N1144 0.984 . S
H1157 N1144 0.985 . S
C1158 C1159 1.363 . S
C1158 C1164 1.379 . S
C1158 N1166 1.356 . S
C1159 C1158 1.363 . S
C1159 C1165 1.363 . S
C1160 C1161 1.363 . S
C1160 C1165 1.379 . S
C1160 N1167 1.356 . S
C1161 C1160 1.363 . S
C1161 C1164 1.363 . S
N1162 C1164 1.356 . S
N1162 H1174 0.984 . S
N1162 H1175 0.985 . S
N1163 C1165 1.356 . S
N1163 H1168 0.984 . S
N1163 H1169 0.985 . S
C1164 C1158 1.379 . S
C1164 C1161 1.363 . S
C1164 N1162 1.356 . S
C1165 C1159 1.363 . S
C1165 C1160 1.379 . S
C1165 N1163 1.356 . S
N1166 C1158 1.356 . S
N1166 H1172 0.984 . S
N1166 H1173 0.984 . S
N1167 C1160 1.356 . S
N1167 H1170 0.984 . S
N1167 H1171 0.985 . S
H1168 N1163 0.984 . S
H1169 N1163 0.985 . S
H1170 N1167 0.984 . S
H1171 N1167 0.985 . S
H1172 N1166 0.984 . S
H1173 N1166 0.984 . S
H1174 N1162 0.984 . S
H1175 N1162 0.985 . S
C1176 C1177 1.363 . S
C1176 C1182 1.379 . S
C1176 N1184 1.356 . S
C1177 C1176 1.363 . S
C1177 C1183 1.363 . S
C1178 C1179 1.363 . S
C1178 C1183 1.379 . S
C1178 N1185 1.356 . S
C1179 C1178 1.363 . S
C1179 C1182 1.363 . S
N1180 C1182 1.356 . S
N1180 H1192 0.984 . S
N1180 H1193 0.985 . S
N1181 C1183 1.356 . S
N1181 H1186 0.984 . S
N1181 H1187 0.985 . S
C1182 C1176 1.379 . S
C1182 C1179 1.363 . S
C1182 N1180 1.356 . S
C1183 C1177 1.363 . S
C1183 C1178 1.379 . S
C1183 N1181 1.356 . S
N1184 C1176 1.356 . S
N1184 H1190 0.984 . S
N1184 H1191 0.984 . S
N1185 C1178 1.356 . S
N1185 H1188 0.984 . S
N1185 H1189 0.985 . S
H1186 N1181 0.984 . S
H1187 N1181 0.985 . S
H1188 N1185 0.984 . S
H1189 N1185 0.985 . S
H1190 N1184 0.984 . S
H1191 N1184 0.984 . S
H1192 N1180 0.984 . S
H1193 N1180 0.985 . S
C1194 C1195 1.363 . S
C1194 C1200 1.379 . S
C1194 N1202 1.356 . S
C1195 C1194 1.363 . S
C1195 C1201 1.363 . S
C1196 C1197 1.363 . S
C1196 C1201 1.379 . S
C1196 N1203 1.356 . S
C1197 C1196 1.363 . S
C1197 C1200 1.363 . S
N1198 C1200 1.356 . S
N1198 H1210 0.984 . S
N1198 H1211 0.985 . S
N1199 C1201 1.356 . S
N1199 H1204 0.984 . S
N1199 H1205 0.985 . S
C1200 C1194 1.379 . S
C1200 C1197 1.363 . S
C1200 N1198 1.356 . S
C1201 C1195 1.363 . S
C1201 C1196 1.379 . S
C1201 N1199 1.356 . S
N1202 C1194 1.356 . S
N1202 H1208 0.984 . S
N1202 H1209 0.984 . S
N1203 C1196 1.356 . S
N1203 H1206 0.984 . S
N1203 H1207 0.985 . S
H1204 N1199 0.984 . S
H1205 N1199 0.985 . S
H1206 N1203 0.984 . S
H1207 N1203 0.985 . S
H1208 N1202 0.984 . S
H1209 N1202 0.984 . S
H1210 N1198 0.984 . S
H1211 N1198 0.985 . S
C1212 C1213 1.363 . S
C1212 C1218 1.379 . S
C1212 N1220 1.356 . S
C1213 C1212 1.363 . S
C1213 C1219 1.363 . S
C1214 C1215 1.363 . S
C1214 C1219 1.379 . S
C1214 N1221 1.356 . S
C1215 C1214 1.363 . S
C1215 C1218 1.363 . S
N1216 C1218 1.356 . S
N1216 H1228 0.984 . S
N1216 H1229 0.985 . S
N1217 C1219 1.356 . S
N1217 H1222 0.984 . S
N1217 H1223 0.985 . S
C1218 C1212 1.379 . S
C1218 C1215 1.363 . S
C1218 N1216 1.356 . S
C1219 C1213 1.363 . S
C1219 C1214 1.379 . S
C1219 N1217 1.356 . S
N1220 C1212 1.356 . S
N1220 H1226 0.984 . S
N1220 H1227 0.984 . S
N1221 C1214 1.356 . S
N1221 H1224 0.984 . S
N1221 H1225 0.985 . S
H1222 N1217 0.984 . S
H1223 N1217 0.985 . S
H1224 N1221 0.984 . S
H1225 N1221 0.985 . S
H1226 N1220 0.984 . S
H1227 N1220 0.984 . S
H1228 N1216 0.984 . S
H1229 N1216 0.985 . S
C1230 C1231 1.363 . S
C1230 C1236 1.379 1_455 S
C1230 N1238 1.356 . S
C1231 C1230 1.363 . S
C1231 C1237 1.363 . S
C1232 C1233 1.363 1_455 S
C1232 C1237 1.379 . S
C1232 N1239 1.356 1_455 S
C1233 C1232 1.363 1_655 S
C1233 C1236 1.363 . S
N1234 C1236 1.356 . S
N1234 H1246 0.984 . S
N1234 H1247 0.985 . S
N1235 C1237 1.356 . S
N1235 H1240 0.984 . S
N1235 H1241 0.985 . S
C1236 C1230 1.379 1_655 S
C1236 C1233 1.363 . S
C1236 N1234 1.356 . S
C1237 C1231 1.363 . S
C1237 C1232 1.379 . S
C1237 N1235 1.356 . S
N1238 C1230 1.356 . S
N1238 H1244 0.984 . S
N1238 H1245 0.984 . S
N1239 C1232 1.356 1_655 S
N1239 H1242 0.984 . S
N1239 H1243 0.985 . S
H1240 N1235 0.984 . S
H1241 N1235 0.985 . S
H1242 N1239 0.984 . S
H1243 N1239 0.985 . S
H1244 N1238 0.984 . S
H1245 N1238 0.984 . S
H1246 N1234 0.984 . S
H1247 N1234 0.985 . S
C1248 C1249 1.363 . S
C1248 C1254 1.379 . S
C1248 N1256 1.356 . S
C1249 C1248 1.363 . S
C1249 C1255 1.363 . S
C1250 C1251 1.363 . S
C1250 C1255 1.379 . S
C1250 N1257 1.356 . S
C1251 C1250 1.363 . S
C1251 C1254 1.363 . S
N1252 C1254 1.356 . S
N1252 H1264 0.984 . S
N1252 H1265 0.985 . S
N1253 C1255 1.356 . S
N1253 H1258 0.984 . S
N1253 H1259 0.985 . S
C1254 C1248 1.379 . S
C1254 C1251 1.363 . S
C1254 N1252 1.356 . S
C1255 C1249 1.363 . S
C1255 C1250 1.379 . S
C1255 N1253 1.356 . S
N1256 C1248 1.356 . S
N1256 H1262 0.984 . S
N1256 H1263 0.984 . S
N1257 C1250 1.356 . S
N1257 H1260 0.984 . S
N1257 H1261 0.985 . S
H1258 N1253 0.984 . S
H1259 N1253 0.985 . S
H1260 N1257 0.984 . S
H1261 N1257 0.985 . S
H1262 N1256 0.984 . S
H1263 N1256 0.984 . S
H1264 N1252 0.984 . S
H1265 N1252 0.985 . S
C1266 C1267 1.363 . S
C1266 C1272 1.379 . S
C1266 N1274 1.356 . S
C1267 C1266 1.363 . S
C1267 C1273 1.363 . S
C1268 C1269 1.363 . S
C1268 C1273 1.379 . S
C1268 N1275 1.356 . S
C1269 C1268 1.363 . S
C1269 C1272 1.363 . S
N1270 C1272 1.356 . S
N1270 H1282 0.984 . S
N1270 H1283 0.985 . S
N1271 C1273 1.356 . S
N1271 H1276 0.984 . S
N1271 H1277 0.985 . S
C1272 C1266 1.379 . S
C1272 C1269 1.363 . S
C1272 N1270 1.356 . S
C1273 C1267 1.363 . S
C1273 C1268 1.379 . S
C1273 N1271 1.356 . S
N1274 C1266 1.356 . S
N1274 H1280 0.984 . S
N1274 H1281 0.984 . S
N1275 C1268 1.356 . S
N1275 H1278 0.984 . S
N1275 H1279 0.985 . S
H1276 N1271 0.984 . S
H1277 N1271 0.985 . S
H1278 N1275 0.984 . S
H1279 N1275 0.985 . S
H1280 N1274 0.984 . S
H1281 N1274 0.984 . S
H1282 N1270 0.984 . S
H1283 N1270 0.985 . S
C1284 C1285 1.363 . S
C1284 C1290 1.379 . S
C1284 N1292 1.356 . S
C1285 C1284 1.363 . S
C1285 C1291 1.363 . S
C1286 C1287 1.363 . S
C1286 C1291 1.379 . S
C1286 N1293 1.356 . S
C1287 C1286 1.363 . S
C1287 C1290 1.363 . S
N1288 C1290 1.356 . S
N1288 H1300 0.984 . S
N1288 H1301 0.985 . S
N1289 C1291 1.356 . S
N1289 H1294 0.984 . S
N1289 H1295 0.985 . S
C1290 C1284 1.379 . S
C1290 C1287 1.363 . S
C1290 N1288 1.356 . S
C1291 C1285 1.363 . S
C1291 C1286 1.379 . S
C1291 N1289 1.356 . S
N1292 C1284 1.356 . S
N1292 H1298 0.984 . S
N1292 H1299 0.984 . S
N1293 C1286 1.356 . S
N1293 H1296 0.984 . S
N1293 H1297 0.985 . S
H1294 N1289 0.984 . S
H1295 N1289 0.985 . S
H1296 N1293 0.984 . S
H1297 N1293 0.985 . S
H1298 N1292 0.984 . S
H1299 N1292 0.984 . S
H1300 N1288 0.984 . S
H1301 N1288 0.985 . S
C1302 C1303 1.363 . S
C1302 C1308 1.379 . S
C1302 N1310 1.356 . S
C1303 C1302 1.363 . S
C1303 C1309 1.363 . S
C1304 C1305 1.363 . S
C1304 C1309 1.379 . S
C1304 N1311 1.356 1_556 S
C1305 C1304 1.363 . S
C1305 C1308 1.363 . S
N1306 C1308 1.356 . S
N1306 H1318 0.984 . S
N1306 H1319 0.985 1_556 S
N1307 C1309 1.356 . S
N1307 H1312 0.984 . S
N1307 H1313 0.985 . S
C1308 C1302 1.379 . S
C1308 C1305 1.363 . S
C1308 N1306 1.356 . S
C1309 C1303 1.363 . S
C1309 C1304 1.379 . S
C1309 N1307 1.356 . S
N1310 C1302 1.356 . S
N1310 H1316 0.984 . S
N1310 H1317 0.984 . S
N1311 C1304 1.356 1_554 S
N1311 H1314 0.984 . S
N1311 H1315 0.985 . S
H1312 N1307 0.984 . S
H1313 N1307 0.985 . S
H1314 N1311 0.984 . S
H1315 N1311 0.985 . S
H1316 N1310 0.984 . S
H1317 N1310 0.984 . S
H1318 N1306 0.984 . S
H1319 N1306 0.985 1_554 S
C1320 C1321 1.363 . S
C1320 C1326 1.379 . S
C1320 N1328 1.356 . S
C1321 C1320 1.363 . S
C1321 C1327 1.363 . S
C1322 C1323 1.363 . S
C1322 C1327 1.379 . S
C1322 N1329 1.356 . S
C1323 C1322 1.363 . S
C1323 C1326 1.363 . S
N1324 C1326 1.356 . S
N1324 H1336 0.984 . S
N1324 H1337 0.985 . S
N1325 C1327 1.356 . S
N1325 H1330 0.984 . S
N1325 H1331 0.985 . S
C1326 C1320 1.379 . S
C1326 C1323 1.363 . S
C1326 N1324 1.356 . S
C1327 C1321 1.363 . S
C1327 C1322 1.379 . S
C1327 N1325 1.356 . S
N1328 C1320 1.356 . S
N1328 H1334 0.984 . S
N1328 H1335 0.984 . S
N1329 C1322 1.356 . S
N1329 H1332 0.984 . S
N1329 H1333 0.985 . S
H1330 N1325 0.984 . S
H1331 N1325 0.985 . S
H1332 N1329 0.984 . S
H1333 N1329 0.985 . S
H1334 N1328 0.984 . S
H1335 N1328 0.984 . S
H1336 N1324 0.984 . S
H1337 N1324 0.985 . S
C1338 C1339 1.363 . S
C1338 C1344 1.379 . S
C1338 N1346 1.356 . S
C1339 C1338 1.363 . S
C1339 C1345 1.363 . S
C1340 C1341 1.363 . S
C1340 C1345 1.379 . S
C1340 N1347 1.356 . S
C1341 C1340 1.363 . S
C1341 C1344 1.363 . S
N1342 C1344 1.356 . S
N1342 H1354 0.984 . S
N1342 H1355 0.985 . S
N1343 C1345 1.356 . S
N1343 H1348 0.984 . S
N1343 H1349 0.985 . S
C1344 C1338 1.379 . S
C1344 C1341 1.363 . S
C1344 N1342 1.356 . S
C1345 C1339 1.363 . S
C1345 C1340 1.379 . S
C1345 N1343 1.356 . S
N1346 C1338 1.356 . S
N1346 H1352 0.984 . S
N1346 H1353 0.984 . S
N1347 C1340 1.356 . S
N1347 H1350 0.984 . S
N1347 H1351 0.985 . S
H1348 N1343 0.984 . S
H1349 N1343 0.985 . S
H1350 N1347 0.984 . S
H1351 N1347 0.985 . S
H1352 N1346 0.984 . S
H1353 N1346 0.984 . S
H1354 N1342 0.984 . S
H1355 N1342 0.985 . S
C1356 C1357 1.363 . S
C1356 C1362 1.379 . S
C1356 N1364 1.356 . S
C1357 C1356 1.363 . S
C1357 C1363 1.363 . S
C1358 C1359 1.363 . S
C1358 C1363 1.379 . S
C1358 N1365 1.356 . S
C1359 C1358 1.363 . S
C1359 C1362 1.363 . S
N1360 C1362 1.356 . S
N1360 H1372 0.984 . S
N1360 H1373 0.985 . S
N1361 C1363 1.356 . S
N1361 H1366 0.984 . S
N1361 H1367 0.985 . S
C1362 C1356 1.379 . S
C1362 C1359 1.363 . S
C1362 N1360 1.356 . S
C1363 C1357 1.363 . S
C1363 C1358 1.379 . S
C1363 N1361 1.356 . S
N1364 C1356 1.356 . S
N1364 H1370 0.984 . S
N1364 H1371 0.984 . S
N1365 C1358 1.356 . S
N1365 H1368 0.984 . S
N1365 H1369 0.985 . S
H1366 N1361 0.984 . S
H1367 N1361 0.985 . S
H1368 N1365 0.984 . S
H1369 N1365 0.985 . S
H1370 N1364 0.984 . S
H1371 N1364 0.984 . S
H1372 N1360 0.984 . S
H1373 N1360 0.985 . S
C1374 C1375 1.379 . S
C1374 C1380 1.379 . S
C1374 N1382 1.356 . S
C1375 C1374 1.379 . S
C1375 C1381 1.371 . S
C1376 C1377 1.363 . S
C1376 C1381 1.379 . S
C1376 N1383 1.356 . S
C1377 C1376 1.363 . S
C1377 C1380 1.363 . S
N1378 C1380 1.356 . S
N1378 H1390 0.984 . S
N1378 H1391 0.985 . S
N1379 C1381 1.356 1_556 S
N1379 H1384 0.984 . S
N1379 H1385 0.985 . S
C1380 C1374 1.379 . S
C1380 C1377 1.363 . S
C1380 N1378 1.356 . S
C1381 C1375 1.371 . S
C1381 C1376 1.379 . S
C1381 N1379 1.356 1_554 S
N1382 C1374 1.356 . S
N1382 H1388 0.984 . S
N1382 H1389 0.984 1_554 S
N1383 C1376 1.356 . S
N1383 H1386 0.984 . S
N1383 H1387 0.985 . S
H1384 N1379 0.984 . S
H1385 N1379 0.985 . S
H1386 N1383 0.984 . S
H1387 N1383 0.985 . S
H1388 N1382 0.984 . S
H1389 N1382 0.984 1_556 S
H1390 N1378 0.984 . S
H1391 N1378 0.985 . S
C1392 C1393 1.363 . S
C1392 C1398 1.379 . S
C1392 N1400 1.356 . S
C1393 C1392 1.363 . S
C1393 C1399 1.363 . S
C1394 C1395 1.363 . S
C1394 C1399 1.379 . S
C1394 N1401 1.356 . S
C1395 C1394 1.363 . S
C1395 C1398 1.363 . S
N1396 C1398 1.356 . S
N1396 H1408 0.984 . S
N1396 H1409 0.985 . S
N1397 C1399 1.356 . S
N1397 H1402 0.984 . S
N1397 H1403 0.985 . S
C1398 C1392 1.379 . S
C1398 C1395 1.363 . S
C1398 N1396 1.356 . S
C1399 C1393 1.363 . S
C1399 C1394 1.379 . S
C1399 N1397 1.356 . S
N1400 C1392 1.356 . S
N1400 H1406 0.984 . S
N1400 H1407 0.984 . S
N1401 C1394 1.356 . S
N1401 H1404 0.984 . S
N1401 H1405 0.985 . S
H1402 N1397 0.984 . S
H1403 N1397 0.985 . S
H1404 N1401 0.984 . S
H1405 N1401 0.985 . S
H1406 N1400 0.984 . S
H1407 N1400 0.984 . S
H1408 N1396 0.984 . S
H1409 N1396 0.985 . S
C1410 C1411 1.363 . S
C1410 C1416 1.379 . S
C1410 N1418 1.356 . S
C1411 C1410 1.363 . S
C1411 C1417 1.363 . S
C1412 C1413 1.363 . S
C1412 C1417 1.379 . S
C1412 N1419 1.356 . S
C1413 C1412 1.363 . S
C1413 C1416 1.363 . S
N1414 C1416 1.356 . S
N1414 H1426 0.984 . S
N1414 H1427 0.985 . S
N1415 C1417 1.356 . S
N1415 H1420 0.984 . S
N1415 H1421 0.985 . S
C1416 C1410 1.379 . S
C1416 C1413 1.363 . S
C1416 N1414 1.356 . S
C1417 C1411 1.363 . S
C1417 C1412 1.379 . S
C1417 N1415 1.356 . S
N1418 C1410 1.356 . S
N1418 H1424 0.984 . S
N1418 H1425 0.984 . S
N1419 C1412 1.356 . S
N1419 H1422 0.984 . S
N1419 H1423 0.985 . S
H1420 N1415 0.984 . S
H1421 N1415 0.985 . S
H1422 N1419 0.984 . S
H1423 N1419 0.985 . S
H1424 N1418 0.984 . S
H1425 N1418 0.984 . S
H1426 N1414 0.984 . S
H1427 N1414 0.985 . S
C1428 C1429 1.363 . S
C1428 C1434 1.379 . S
C1428 N1436 1.356 . S
C1429 C1428 1.363 . S
C1429 C1435 1.363 . S
C1430 C1431 1.363 . S
C1430 C1435 1.379 . S
C1430 N1437 1.356 . S
C1431 C1430 1.363 . S
C1431 C1434 1.363 . S
N1432 C1434 1.356 . S
N1432 H1444 0.984 . S
N1432 H1445 0.985 . S
N1433 C1435 1.356 . S
N1433 H1438 0.984 . S
N1433 H1439 0.985 . S
C1434 C1428 1.379 . S
C1434 C1431 1.363 . S
C1434 N1432 1.356 . S
C1435 C1429 1.363 . S
C1435 C1430 1.379 . S
C1435 N1433 1.356 . S
N1436 C1428 1.356 . S
N1436 H1442 0.984 . S
N1436 H1443 0.984 . S
N1437 C1430 1.356 . S
N1437 H1440 0.984 . S
N1437 H1441 0.985 . S
H1438 N1433 0.984 . S
H1439 N1433 0.985 . S
H1440 N1437 0.984 . S
H1441 N1437 0.985 . S
H1442 N1436 0.984 . S
H1443 N1436 0.984 . S
H1444 N1432 0.984 . S
H1445 N1432 0.985 . S
C1446 C1447 1.363 . S
C1446 C1452 1.379 . S
C1446 N1454 1.356 . S
C1447 C1446 1.363 . S
C1447 C1453 1.363 . S
C1448 C1449 1.363 . S
C1448 C1453 1.379 . S
C1448 N1455 1.356 . S
C1449 C1448 1.363 . S
C1449 C1452 1.363 . S
N1450 C1452 1.356 . S
N1450 H1462 0.984 . S
N1450 H1463 0.985 . S
N1451 C1453 1.356 . S
N1451 H1456 0.984 . S
N1451 H1457 0.985 . S
C1452 C1446 1.379 . S
C1452 C1449 1.363 . S
C1452 N1450 1.356 . S
C1453 C1447 1.363 . S
C1453 C1448 1.379 . S
C1453 N1451 1.356 . S
N1454 C1446 1.356 . S
N1454 H1460 0.984 . S
N1454 H1461 0.984 . S
N1455 C1448 1.356 . S
N1455 H1458 0.984 . S
N1455 H1459 0.985 . S
H1456 N1451 0.984 . S
H1457 N1451 0.985 . S
H1458 N1455 0.984 . S
H1459 N1455 0.985 . S
H1460 N1454 0.984 . S
H1461 N1454 0.984 . S
H1462 N1450 0.984 . S
H1463 N1450 0.985 . S
C1464 C1465 1.363 . S
C1464 C1470 1.379 1_565 S
C1464 N1472 1.356 . S
C1465 C1464 1.363 . S
C1465 C1471 1.363 . S
C1466 C1467 1.363 . S
C1466 C1471 1.379 1_545 S
C1466 N1473 1.356 . S
C1467 C1466 1.363 . S
C1467 C1470 1.363 . S
N1468 C1470 1.356 . S
N1468 H1480 0.984 . S
N1468 H1481 0.985 . S
N1469 C1471 1.356 . S
N1469 H1474 0.984 . S
N1469 H1475 0.985 . S
C1470 C1464 1.379 1_545 S
C1470 C1467 1.363 . S
C1470 N1468 1.356 . S
C1471 C1465 1.363 . S
C1471 C1466 1.379 1_565 S
C1471 N1469 1.356 . S
N1472 C1464 1.356 . S
N1472 H1478 0.984 . S
N1472 H1479 0.984 . S
N1473 C1466 1.356 . S
N1473 H1476 0.984 . S
N1473 H1477 0.985 . S
H1474 N1469 0.984 . S
H1475 N1469 0.985 . S
H1476 N1473 0.984 . S
H1477 N1473 0.985 . S
H1478 N1472 0.984 . S
H1479 N1472 0.984 . S
H1480 N1468 0.984 . S
H1481 N1468 0.985 . S
C1482 C1483 1.363 . S
C1482 C1488 1.379 . S
C1482 N1490 1.356 . S
C1483 C1482 1.363 . S
C1483 C1489 1.363 . S
C1484 C1485 1.363 . S
C1484 C1489 1.379 . S
C1484 N1491 1.356 . S
C1485 C1484 1.363 . S
C1485 C1488 1.363 . S
N1486 C1488 1.356 . S
N1486 H1498 0.984 . S
N1486 H1499 0.985 . S
N1487 C1489 1.356 . S
N1487 H1492 0.984 . S
N1487 H1493 0.985 . S
C1488 C1482 1.379 . S
C1488 C1485 1.363 . S
C1488 N1486 1.356 . S
C1489 C1483 1.363 . S
C1489 C1484 1.379 . S
C1489 N1487 1.356 . S
N1490 C1482 1.356 . S
N1490 H1496 0.984 . S
N1490 H1497 0.984 . S
N1491 C1484 1.356 . S
N1491 H1494 0.984 . S
N1491 H1495 0.985 . S
H1492 N1487 0.984 . S
H1493 N1487 0.985 . S
H1494 N1491 0.984 . S
H1495 N1491 0.985 . S
H1496 N1490 0.984 . S
H1497 N1490 0.984 . S
H1498 N1486 0.984 . S
H1499 N1486 0.985 . S
C1500 C1501 1.363 . S
C1500 C1506 1.379 . S
C1500 N1508 1.356 . S
C1501 C1500 1.363 . S
C1501 C1507 1.363 . S
C1502 C1503 1.363 . S
C1502 C1507 1.379 . S
C1502 N1509 1.356 . S
C1503 C1502 1.363 . S
C1503 C1506 1.363 . S
N1504 C1506 1.356 . S
N1504 H1516 0.984 . S
N1504 H1517 0.985 . S
N1505 C1507 1.356 . S
N1505 H1510 0.984 . S
N1505 H1511 0.985 . S
C1506 C1500 1.379 . S
C1506 C1503 1.363 . S
C1506 N1504 1.356 . S
C1507 C1501 1.363 . S
C1507 C1502 1.379 . S
C1507 N1505 1.356 . S
N1508 C1500 1.356 . S
N1508 H1514 0.984 . S
N1508 H1515 0.984 . S
N1509 C1502 1.356 . S
N1509 H1512 0.984 . S
N1509 H1513 0.985 . S
H1510 N1505 0.984 . S
H1511 N1505 0.985 . S
H1512 N1509 0.984 . S
H1513 N1509 0.985 . S
H1514 N1508 0.984 . S
H1515 N1508 0.984 . S
H1516 N1504 0.984 . S
H1517 N1504 0.985 . S
C1518 C1519 1.363 . S
C1518 C1524 1.379 . S
C1518 N1526 1.356 . S
C1519 C1518 1.363 . S
C1519 C1525 1.363 . S
C1520 C1521 1.363 . S
C1520 C1525 1.379 . S
C1520 N1527 1.356 . S
C1521 C1520 1.363 . S
C1521 C1524 1.363 . S
N1522 C1524 1.356 . S
N1522 H1534 0.984 . S
N1522 H1535 0.985 . S
N1523 C1525 1.356 . S
N1523 H1528 0.984 . S
N1523 H1529 0.985 . S
C1524 C1518 1.379 . S
C1524 C1521 1.363 . S
C1524 N1522 1.356 . S
C1525 C1519 1.363 . S
C1525 C1520 1.379 . S
C1525 N1523 1.356 . S
N1526 C1518 1.356 . S
N1526 H1532 0.984 . S
N1526 H1533 0.984 . S
N1527 C1520 1.356 . S
N1527 H1530 0.984 . S
N1527 H1531 0.985 . S
H1528 N1523 0.984 . S
H1529 N1523 0.985 . S
H1530 N1527 0.984 . S
H1531 N1527 0.985 . S
H1532 N1526 0.984 . S
H1533 N1526 0.984 . S
H1534 N1522 0.984 . S
H1535 N1522 0.985 . S
C1536 C1537 1.363 . S
C1536 C1542 1.379 . S
C1536 N1544 1.356 . S
C1537 C1536 1.363 . S
C1537 C1543 1.363 . S
C1538 C1539 1.363 . S
C1538 C1543 1.379 . S
C1538 N1545 1.356 . S
C1539 C1538 1.363 . S
C1539 C1542 1.363 . S
N1540 C1542 1.356 . S
N1540 H1552 0.984 . S
N1540 H1553 0.985 . S
N1541 C1543 1.356 . S
N1541 H1546 0.984 . S
N1541 H1547 0.985 . S
C1542 C1536 1.379 . S
C1542 C1539 1.363 . S
C1542 N1540 1.356 . S
C1543 C1537 1.363 . S
C1543 C1538 1.379 . S
C1543 N1541 1.356 . S
N1544 C1536 1.356 . S
N1544 H1550 0.984 . S
N1544 H1551 0.984 . S
N1545 C1538 1.356 . S
N1545 H1548 0.984 . S
N1545 H1549 0.985 . S
H1546 N1541 0.984 . S
H1547 N1541 0.985 . S
H1548 N1545 0.984 . S
H1549 N1545 0.985 . S
H1550 N1544 0.984 . S
H1551 N1544 0.984 . S
H1552 N1540 0.984 . S
H1553 N1540 0.985 . S
C1554 C1555 1.363 . S
C1554 C1560 1.379 . S
C1554 N1562 1.356 . S
C1555 C1554 1.363 . S
C1555 C1561 1.363 . S
C1556 C1557 1.363 . S
C1556 C1561 1.379 . S
C1556 N1563 1.356 . S
C1557 C1556 1.363 . S
C1557 C1560 1.363 . S
N1558 C1560 1.356 . S
N1558 H1570 0.984 . S
N1558 H1571 0.985 . S
N1559 C1561 1.356 . S
N1559 H1564 0.984 . S
N1559 H1565 0.985 . S
C1560 C1554 1.379 . S
C1560 C1557 1.363 . S
C1560 N1558 1.356 . S
C1561 C1555 1.363 . S
C1561 C1556 1.379 . S
C1561 N1559 1.356 . S
N1562 C1554 1.356 . S
N1562 H1568 0.984 . S
N1562 H1569 0.984 . S
N1563 C1556 1.356 . S
N1563 H1566 0.984 . S
N1563 H1567 0.985 . S
H1564 N1559 0.984 . S
H1565 N1559 0.985 . S
H1566 N1563 0.984 . S
H1567 N1563 0.985 . S
H1568 N1562 0.984 . S
H1569 N1562 0.984 . S
H1570 N1558 0.984 . S
H1571 N1558 0.985 . S
C1572 C1573 1.363 . S
C1572 C1578 1.379 . S
C1572 N1580 1.356 . S
C1573 C1572 1.363 . S
C1573 C1579 1.363 . S
C1574 C1575 1.363 . S
C1574 C1579 1.379 . S
C1574 N1581 1.356 . S
C1575 C1574 1.363 . S
C1575 C1578 1.363 . S
N1576 C1578 1.356 . S
N1576 H1588 0.984 . S
N1576 H1589 0.985 . S
N1577 C1579 1.356 . S
N1577 H1582 0.984 . S
N1577 H1583 0.985 . S
C1578 C1572 1.379 . S
C1578 C1575 1.363 . S
C1578 N1576 1.356 . S
C1579 C1573 1.363 . S
C1579 C1574 1.379 . S
C1579 N1577 1.356 . S
N1580 C1572 1.356 . S
N1580 H1586 0.984 . S
N1580 H1587 0.984 . S
N1581 C1574 1.356 . S
N1581 H1584 0.984 . S
N1581 H1585 0.985 . S
H1582 N1577 0.984 . S
H1583 N1577 0.985 . S
H1584 N1581 0.984 . S
H1585 N1581 0.985 . S
H1586 N1580 0.984 . S
H1587 N1580 0.984 . S
H1588 N1576 0.984 . S
H1589 N1576 0.985 . S
C1590 C1591 1.363 1_455 S
C1590 C1596 1.379 . S
C1590 N1598 1.356 1_455 S
C1591 C1590 1.363 1_655 S
C1591 C1597 1.363 1_655 S
C1592 C1593 1.363 . S
C1592 C1597 1.379 . S
C1592 N1599 1.356 . S
C1593 C1592 1.363 . S
C1593 C1596 1.363 . S
N1594 C1596 1.356 . S
N1594 H1606 0.984 . S
N1594 H1607 0.985 . S
N1595 C1597 1.356 1_655 S
N1595 H1600 0.984 . S
N1595 H1601 0.985 . S
C1596 C1590 1.379 . S
C1596 C1593 1.363 . S
C1596 N1594 1.356 . S
C1597 C1591 1.363 1_455 S
C1597 C1592 1.379 . S
C1597 N1595 1.356 1_455 S
N1598 C1590 1.356 1_655 S
N1598 H1604 0.984 1_655 S
N1598 H1605 0.984 . S
N1599 C1592 1.356 . S
N1599 H1602 0.984 . S
N1599 H1603 0.985 . S
H1600 N1595 0.984 . S
H1601 N1595 0.985 . S
H1602 N1599 0.984 . S
H1603 N1599 0.985 . S
H1604 N1598 0.984 1_455 S
H1605 N1598 0.984 . S
H1606 N1594 0.984 . S
H1607 N1594 0.985 . S
C1608 C1609 1.363 . S
C1608 C1614 1.379 . S
C1608 N1616 1.356 . S
C1609 C1608 1.363 . S
C1609 C1615 1.363 . S
C1610 C1611 1.363 . S
C1610 C1615 1.379 . S
C1610 N1617 1.356 . S
C1611 C1610 1.363 . S
C1611 C1614 1.363 . S
N1612 C1614 1.356 . S
N1612 H1624 0.984 . S
N1612 H1625 0.985 . S
N1613 C1615 1.356 . S
N1613 H1618 0.984 . S
N1613 H1619 0.985 . S
C1614 C1608 1.379 . S
C1614 C1611 1.363 . S
C1614 N1612 1.356 . S
C1615 C1609 1.363 . S
C1615 C1610 1.379 . S
C1615 N1613 1.356 . S
N1616 C1608 1.356 . S
N1616 H1622 0.984 . S
N1616 H1623 0.984 . S
N1617 C1610 1.356 . S
N1617 H1620 0.984 . S
N1617 H1621 0.985 . S
H1618 N1613 0.984 . S
H1619 N1613 0.985 . S
H1620 N1617 0.984 . S
H1621 N1617 0.985 . S
H1622 N1616 0.984 . S
H1623 N1616 0.984 . S
H1624 N1612 0.984 . S
H1625 N1612 0.985 . S
C1626 C1627 1.363 . S
C1626 C1632 1.379 . S
C1626 N1634 1.356 . S
C1627 C1626 1.363 . S
C1627 C1633 1.363 . S
C1628 C1629 1.363 . S
C1628 C1633 1.379 1_655 S
C1628 N1635 1.356 . S
C1629 C1628 1.363 . S
C1629 C1632 1.363 1_655 S
N1630 C1632 1.356 1_655 S
N1630 H1642 0.984 . S
N1630 H1643 0.985 . S
N1631 C1633 1.356 . S
N1631 H1636 0.984 . S
N1631 H1637 0.985 . S
C1632 C1626 1.379 . S
C1632 C1629 1.363 1_455 S
C1632 N1630 1.356 1_455 S
C1633 C1627 1.363 . S
C1633 C1628 1.379 1_455 S
C1633 N1631 1.356 . S
N1634 C1626 1.356 . S
N1634 H1640 0.984 . S
N1634 H1641 0.984 . S
N1635 C1628 1.356 . S
N1635 H1638 0.984 . S
N1635 H1639 0.985 . S
H1636 N1631 0.984 . S
H1637 N1631 0.985 . S
H1638 N1635 0.984 . S
H1639 N1635 0.985 . S
H1640 N1634 0.984 . S
H1641 N1634 0.984 . S
H1642 N1630 0.984 . S
H1643 N1630 0.985 . S
C1644 C1645 1.363 . S
C1644 C1650 1.379 . S
C1644 N1652 1.356 . S
C1645 C1644 1.363 . S
C1645 C1651 1.363 . S
C1646 C1647 1.363 . S
C1646 C1651 1.379 . S
C1646 N1653 1.356 . S
C1647 C1646 1.363 . S
C1647 C1650 1.363 . S
N1648 C1650 1.356 . S
N1648 H1660 0.984 . S
N1648 H1661 0.985 . S
N1649 C1651 1.356 . S
N1649 H1654 0.984 . S
N1649 H1655 0.985 . S
C1650 C1644 1.379 . S
C1650 C1647 1.363 . S
C1650 N1648 1.356 . S
C1651 C1645 1.363 . S
C1651 C1646 1.379 . S
C1651 N1649 1.356 . S
N1652 C1644 1.356 . S
N1652 H1658 0.984 . S
N1652 H1659 0.984 . S
N1653 C1646 1.356 . S
N1653 H1656 0.984 . S
N1653 H1657 0.985 . S
H1654 N1649 0.984 . S
H1655 N1649 0.985 . S
H1656 N1653 0.984 . S
H1657 N1653 0.985 . S
H1658 N1652 0.984 . S
H1659 N1652 0.984 . S
H1660 N1648 0.984 . S
H1661 N1648 0.985 . S
C1662 C1663 1.363 . S
C1662 C1668 1.379 . S
C1662 N1670 1.356 . S
C1663 C1662 1.363 . S
C1663 C1669 1.363 . S
C1664 C1665 1.363 . S
C1664 C1669 1.379 . S
C1664 N1671 1.356 . S
C1665 C1664 1.363 . S
C1665 C1668 1.363 . S
N1666 C1668 1.356 . S
N1666 H1678 0.984 . S
N1666 H1679 0.985 . S
N1667 C1669 1.356 . S
N1667 H1672 0.984 . S
N1667 H1673 0.985 . S
C1668 C1662 1.379 . S
C1668 C1665 1.363 . S
C1668 N1666 1.356 . S
C1669 C1663 1.363 . S
C1669 C1664 1.379 . S
C1669 N1667 1.356 . S
N1670 C1662 1.356 . S
N1670 H1676 0.984 . S
N1670 H1677 0.984 . S
N1671 C1664 1.356 . S
N1671 H1674 0.984 . S
N1671 H1675 0.985 . S
H1672 N1667 0.984 . S
H1673 N1667 0.985 . S
H1674 N1671 0.984 . S
H1675 N1671 0.985 . S
H1676 N1670 0.984 . S
H1677 N1670 0.984 . S
H1678 N1666 0.984 . S
H1679 N1666 0.985 . S
C1680 C1681 1.363 . S
C1680 C1686 1.379 . S
C1680 N1688 1.356 . S
C1681 C1680 1.363 . S
C1681 C1687 1.363 . S
C1682 C1683 1.363 . S
C1682 C1687 1.379 . S
C1682 N1689 1.356 . S
C1683 C1682 1.363 . S
C1683 C1686 1.363 . S
N1684 C1686 1.356 . S
N1684 H1696 0.984 . S
N1684 H1697 0.985 . S
N1685 C1687 1.356 . S
N1685 H1690 0.984 . S
N1685 H1691 0.985 . S
C1686 C1680 1.379 . S
C1686 C1683 1.363 . S
C1686 N1684 1.356 . S
C1687 C1681 1.363 . S
C1687 C1682 1.379 . S
C1687 N1685 1.356 . S
N1688 C1680 1.356 . S
N1688 H1694 0.984 . S
N1688 H1695 0.984 . S
N1689 C1682 1.356 . S
N1689 H1692 0.984 . S
N1689 H1693 0.985 . S
H1690 N1685 0.984 . S
H1691 N1685 0.985 . S
H1692 N1689 0.984 . S
H1693 N1689 0.985 . S
H1694 N1688 0.984 . S
H1695 N1688 0.984 . S
H1696 N1684 0.984 . S
H1697 N1684 0.985 . S
C1698 C1699 1.363 . S
C1698 C1704 1.379 . S
C1698 N1706 1.356 . S
C1699 C1698 1.363 . S
C1699 C1705 1.363 . S
C1700 C1701 1.363 1_554 S
C1700 C1705 1.379 . S
C1700 N1707 1.356 1_554 S
C1701 C1700 1.363 1_556 S
C1701 C1704 1.363 1_556 S
N1702 C1704 1.356 1_556 S
N1702 H1714 0.984 . S
N1702 H1715 0.985 . S
N1703 C1705 1.356 . S
N1703 H1708 0.984 . S
N1703 H1709 0.985 . S
C1704 C1698 1.379 . S
C1704 C1701 1.363 1_554 S
C1704 N1702 1.356 1_554 S
C1705 C1699 1.363 . S
C1705 C1700 1.379 . S
C1705 N1703 1.356 . S
N1706 C1698 1.356 . S
N1706 H1712 0.984 . S
N1706 H1713 0.984 . S
N1707 C1700 1.356 1_556 S
N1707 H1710 0.984 . S
N1707 H1711 0.985 1_556 S
H1708 N1703 0.984 . S
H1709 N1703 0.985 . S
H1710 N1707 0.984 . S
H1711 N1707 0.985 1_554 S
H1712 N1706 0.984 . S
H1713 N1706 0.984 . S
H1714 N1702 0.984 . S
H1715 N1702 0.985 . S
C1716 C1717 1.363 . S
C1716 C1722 1.379 . S
C1716 N1724 1.356 . S
C1717 C1716 1.363 . S
C1717 C1723 1.363 . S
C1718 C1719 1.363 . S
C1718 C1723 1.379 . S
C1718 N1725 1.356 . S
C1719 C1718 1.363 . S
C1719 C1722 1.363 . S
N1720 C1722 1.356 . S
N1720 H1732 0.984 . S
N1720 H1733 0.985 . S
N1721 C1723 1.356 . S
N1721 H1726 0.984 . S
N1721 H1727 0.985 . S
C1722 C1716 1.379 . S
C1722 C1719 1.363 . S
C1722 N1720 1.356 . S
C1723 C1717 1.363 . S
C1723 C1718 1.379 . S
C1723 N1721 1.356 . S
N1724 C1716 1.356 . S
N1724 H1730 0.984 . S
N1724 H1731 0.984 . S
N1725 C1718 1.356 . S
N1725 H1728 0.984 . S
N1725 H1729 0.985 . S
H1726 N1721 0.984 . S
H1727 N1721 0.985 . S
H1728 N1725 0.984 . S
H1729 N1725 0.985 . S
H1730 N1724 0.984 . S
H1731 N1724 0.984 . S
H1732 N1720 0.984 . S
H1733 N1720 0.985 . S
C1734 C1735 1.363 . S
C1734 C1740 1.379 . S
C1734 N1742 1.356 . S
C1735 C1734 1.363 . S
C1735 C1741 1.363 . S
C1736 C1737 1.363 . S
C1736 C1741 1.379 . S
C1736 N1743 1.356 . S
C1737 C1736 1.363 . S
C1737 C1740 1.363 . S
N1738 C1740 1.356 . S
N1738 H1750 0.984 . S
N1738 H1751 0.985 . S
N1739 C1741 1.356 . S
N1739 H1744 0.984 . S
N1739 H1745 0.985 . S
C1740 C1734 1.379 . S
C1740 C1737 1.363 . S
C1740 N1738 1.356 . S
C1741 C1735 1.363 . S
C1741 C1736 1.379 . S
C1741 N1739 1.356 . S
N1742 C1734 1.356 . S
N1742 H1748 0.984 . S
N1742 H1749 0.984 . S
N1743 C1736 1.356 . S
N1743 H1746 0.984 . S
N1743 H1747 0.985 . S
H1744 N1739 0.984 . S
H1745 N1739 0.985 . S
H1746 N1743 0.984 . S
H1747 N1743 0.985 . S
H1748 N1742 0.984 . S
H1749 N1742 0.984 . S
H1750 N1738 0.984 . S
H1751 N1738 0.985 . S
C1752 C1753 1.363 . S
C1752 C1758 1.379 . S
C1752 N1760 1.356 . S
C1753 C1752 1.363 . S
C1753 C1759 1.363 . S
C1754 C1755 1.363 . S
C1754 C1759 1.379 . S
C1754 N1761 1.356 . S
C1755 C1754 1.363 . S
C1755 C1758 1.363 . S
N1756 C1758 1.356 . S
N1756 H1768 0.984 . S
N1756 H1769 0.985 . S
N1757 C1759 1.356 . S
N1757 H1762 0.984 . S
N1757 H1763 0.985 . S
C1758 C1752 1.379 . S
C1758 C1755 1.363 . S
C1758 N1756 1.356 . S
C1759 C1753 1.363 . S
C1759 C1754 1.379 . S
C1759 N1757 1.356 . S
N1760 C1752 1.356 . S
N1760 H1766 0.984 . S
N1760 H1767 0.984 . S
N1761 C1754 1.356 . S
N1761 H1764 0.984 . S
N1761 H1765 0.985 . S
H1762 N1757 0.984 . S
H1763 N1757 0.985 . S
H1764 N1761 0.984 . S
H1765 N1761 0.985 . S
H1766 N1760 0.984 . S
H1767 N1760 0.984 . S
H1768 N1756 0.984 . S
H1769 N1756 0.985 . S
C1770 C1771 1.363 . S
C1770 C1776 1.379 . S
C1770 N1778 1.356 . S
C1771 C1770 1.363 . S
C1771 C1777 1.363 . S
C1772 C1773 1.363 1_556 S
C1772 C1777 1.379 . S
C1772 N1779 1.356 1_556 S
C1773 C1772 1.363 1_554 S
C1773 C1776 1.363 1_554 S
N1774 C1776 1.356 1_554 S
N1774 H1786 0.984 . S
N1774 H1787 0.985 . S
N1775 C1777 1.356 . S
N1775 H1780 0.984 . S
N1775 H1781 0.985 . S
C1776 C1770 1.379 . S
C1776 C1773 1.363 1_556 S
C1776 N1774 1.356 1_556 S
C1777 C1771 1.363 . S
C1777 C1772 1.379 . S
C1777 N1775 1.356 . S
N1778 C1770 1.356 . S
N1778 H1784 0.984 . S
N1778 H1785 0.984 . S
N1779 C1772 1.356 1_554 S
N1779 H1782 0.984 . S
N1779 H1783 0.985 . S
H1780 N1775 0.984 . S
H1781 N1775 0.985 . S
H1782 N1779 0.984 . S
H1783 N1779 0.985 . S
H1784 N1778 0.984 . S
H1785 N1778 0.984 . S
H1786 N1774 0.984 . S
H1787 N1774 0.985 . S
C1788 C1789 1.363 . S
C1788 C1794 1.379 . S
C1788 N1796 1.356 . S
C1789 C1788 1.363 . S
C1789 C1795 1.363 . S
C1790 C1791 1.363 . S
C1790 C1795 1.379 . S
C1790 N1797 1.356 . S
C1791 C1790 1.363 . S
C1791 C1794 1.363 . S
N1792 C1794 1.356 . S
N1792 H1804 0.984 . S
N1792 H1805 0.985 . S
N1793 C1795 1.356 . S
N1793 H1798 0.984 . S
N1793 H1799 0.985 . S
C1794 C1788 1.379 . S
C1794 C1791 1.363 . S
C1794 N1792 1.356 . S
C1795 C1789 1.363 . S
C1795 C1790 1.379 . S
C1795 N1793 1.356 . S
N1796 C1788 1.356 . S
N1796 H1802 0.984 . S
N1796 H1803 0.984 . S
N1797 C1790 1.356 . S
N1797 H1800 0.984 . S
N1797 H1801 0.985 . S
H1798 N1793 0.984 . S
H1799 N1793 0.985 . S
H1800 N1797 0.984 . S
H1801 N1797 0.985 . S
H1802 N1796 0.984 . S
H1803 N1796 0.984 . S
H1804 N1792 0.984 . S
H1805 N1792 0.985 . S
C1806 C1807 1.363 . S
C1806 C1812 1.379 . S
C1806 N1814 1.356 . S
C1807 C1806 1.363 . S
C1807 C1813 1.363 . S
C1808 C1809 1.363 . S
C1808 C1813 1.379 . S
C1808 N1815 1.356 . S
C1809 C1808 1.363 . S
C1809 C1812 1.363 . S
N1810 C1812 1.356 . S
N1810 H1822 0.984 . S
N1810 H1823 0.985 . S
N1811 C1813 1.356 . S
N1811 H1816 0.984 . S
N1811 H1817 0.985 . S
C1812 C1806 1.379 . S
C1812 C1809 1.363 . S
C1812 N1810 1.356 . S
C1813 C1807 1.363 . S
C1813 C1808 1.379 . S
C1813 N1811 1.356 . S
N1814 C1806 1.356 . S
N1814 H1820 0.984 . S
N1814 H1821 0.984 . S
N1815 C1808 1.356 . S
N1815 H1818 0.984 . S
N1815 H1819 0.985 . S
H1816 N1811 0.984 . S
H1817 N1811 0.985 . S
H1818 N1815 0.984 . S
H1819 N1815 0.985 . S
H1820 N1814 0.984 . S
H1821 N1814 0.984 . S
H1822 N1810 0.984 . S
H1823 N1810 0.985 . S
C1824 C1825 1.363 . S
C1824 C1830 1.379 . S
C1824 N1832 1.356 . S
C1825 C1824 1.363 . S
C1825 C1831 1.363 . S
C1826 C1827 1.363 . S
C1826 C1831 1.379 . S
C1826 N1833 1.356 . S
C1827 C1826 1.363 . S
C1827 C1830 1.363 . S
N1828 C1830 1.356 . S
N1828 H1840 0.984 . S
N1828 H1841 0.985 . S
N1829 C1831 1.356 . S
N1829 H1834 0.984 . S
N1829 H1835 0.985 . S
C1830 C1824 1.379 . S
C1830 C1827 1.363 . S
C1830 N1828 1.356 . S
C1831 C1825 1.363 . S
C1831 C1826 1.379 . S
C1831 N1829 1.356 . S
N1832 C1824 1.356 . S
N1832 H1838 0.984 . S
N1832 H1839 0.984 . S
N1833 C1826 1.356 . S
N1833 H1836 0.984 . S
N1833 H1837 0.985 . S
H1834 N1829 0.984 . S
H1835 N1829 0.985 . S
H1836 N1833 0.984 . S
H1837 N1833 0.985 . S
H1838 N1832 0.984 . S
H1839 N1832 0.984 . S
H1840 N1828 0.984 . S
H1841 N1828 0.985 . S
C1842 C1843 1.363 . S
C1842 C1848 1.379 . S
C1842 N1850 1.356 . S
C1843 C1842 1.363 . S
C1843 C1849 1.363 . S
C1844 C1845 1.363 . S
C1844 C1849 1.379 . S
C1844 N1851 1.356 . S
C1845 C1844 1.363 . S
C1845 C1848 1.363 . S
N1846 C1848 1.356 . S
N1846 H1858 0.984 . S
N1846 H1859 0.985 . S
N1847 C1849 1.356 . S
N1847 H1852 0.984 . S
N1847 H1853 0.985 . S
C1848 C1842 1.379 . S
C1848 C1845 1.363 . S
C1848 N1846 1.356 . S
C1849 C1843 1.363 . S
C1849 C1844 1.379 . S
C1849 N1847 1.356 . S
N1850 C1842 1.356 . S
N1850 H1856 0.984 . S
N1850 H1857 0.984 . S
N1851 C1844 1.356 . S
N1851 H1854 0.984 . S
N1851 H1855 0.985 . S
H1852 N1847 0.984 . S
H1853 N1847 0.985 . S
H1854 N1851 0.984 . S
H1855 N1851 0.985 . S
H1856 N1850 0.984 . S
H1857 N1850 0.984 . S
H1858 N1846 0.984 . S
H1859 N1846 0.985 . S
C1860 C1861 1.363 . S
C1860 C1866 1.379 1_545 S
C1860 N1868 1.356 . S
C1861 C1860 1.363 . S
C1861 C1867 1.363 . S
C1862 C1863 1.363 . S
C1862 C1867 1.379 1_565 S
C1862 N1869 1.356 . S
C1863 C1862 1.363 . S
C1863 C1866 1.363 . S
N1864 C1866 1.356 . S
N1864 H1876 0.984 . S
N1864 H1877 0.985 . S
N1865 C1867 1.356 . S
N1865 H1870 0.984 . S
N1865 H1871 0.985 . S
C1866 C1860 1.379 1_565 S
C1866 C1863 1.363 . S
C1866 N1864 1.356 . S
C1867 C1861 1.363 . S
C1867 C1862 1.379 1_545 S
C1867 N1865 1.356 . S
N1868 C1860 1.356 . S
N1868 H1874 0.984 . S
N1868 H1875 0.984 . S
N1869 C1862 1.356 . S
N1869 H1872 0.984 . S
N1869 H1873 0.985 . S
H1870 N1865 0.984 . S
H1871 N1865 0.985 . S
H1872 N1869 0.984 . S
H1873 N1869 0.985 . S
H1874 N1868 0.984 . S
H1875 N1868 0.984 . S
H1876 N1864 0.984 . S
H1877 N1864 0.985 . S
C1878 C1879 1.363 . S
C1878 C1884 1.379 . S
C1878 N1886 1.356 . S
C1879 C1878 1.363 . S
C1879 C1885 1.363 . S
C1880 C1881 1.363 . S
C1880 C1885 1.379 . S
C1880 N1887 1.356 . S
C1881 C1880 1.363 . S
C1881 C1884 1.363 . S
N1882 C1884 1.356 . S
N1882 H1894 0.984 . S
N1882 H1895 0.985 . S
N1883 C1885 1.356 . S
N1883 H1888 0.984 . S
N1883 H1889 0.985 . S
C1884 C1878 1.379 . S
C1884 C1881 1.363 . S
C1884 N1882 1.356 . S
C1885 C1879 1.363 . S
C1885 C1880 1.379 . S
C1885 N1883 1.356 . S
N1886 C1878 1.356 . S
N1886 H1892 0.984 . S
N1886 H1893 0.984 . S
N1887 C1880 1.356 . S
N1887 H1890 0.984 . S
N1887 H1891 0.985 . S
H1888 N1883 0.984 . S
H1889 N1883 0.985 . S
H1890 N1887 0.984 . S
H1891 N1887 0.985 . S
H1892 N1886 0.984 . S
H1893 N1886 0.984 . S
H1894 N1882 0.984 . S
H1895 N1882 0.985 . S
C1896 C1897 1.363 . S
C1896 C1902 1.379 . S
C1896 N1904 1.356 . S
C1897 C1896 1.363 . S
C1897 C1903 1.363 . S
C1898 C1899 1.363 . S
C1898 C1903 1.379 . S
C1898 N1905 1.356 . S
C1899 C1898 1.363 . S
C1899 C1902 1.363 . S
N1900 C1902 1.356 . S
N1900 H1912 0.984 . S
N1900 H1913 0.985 . S
N1901 C1903 1.356 . S
N1901 H1906 0.984 . S
N1901 H1907 0.985 . S
C1902 C1896 1.379 . S
C1902 C1899 1.363 . S
C1902 N1900 1.356 . S
C1903 C1897 1.363 . S
C1903 C1898 1.379 . S
C1903 N1901 1.356 . S
N1904 C1896 1.356 . S
N1904 H1910 0.984 . S
N1904 H1911 0.984 . S
N1905 C1898 1.356 . S
N1905 H1908 0.984 . S
N1905 H1909 0.985 . S
H1906 N1901 0.984 . S
H1907 N1901 0.985 . S
H1908 N1905 0.984 . S
H1909 N1905 0.985 . S
H1910 N1904 0.984 . S
H1911 N1904 0.984 . S
H1912 N1900 0.984 . S
H1913 N1900 0.985 . S
C1914 C1915 1.363 . S
C1914 C1920 1.379 . S
C1914 N1922 1.356 . S
C1915 C1914 1.363 . S
C1915 C1921 1.363 . S
C1916 C1917 1.363 . S
C1916 C1921 1.379 . S
C1916 N1923 1.356 . S
C1917 C1916 1.363 . S
C1917 C1920 1.363 . S
N1918 C1920 1.356 . S
N1918 H1930 0.984 . S
N1918 H1931 0.985 . S
N1919 C1921 1.356 . S
N1919 H1924 0.984 . S
N1919 H1925 0.985 . S
C1920 C1914 1.379 . S
C1920 C1917 1.363 . S
C1920 N1918 1.356 . S
C1921 C1915 1.363 . S
C1921 C1916 1.379 . S
C1921 N1919 1.356 . S
N1922 C1914 1.356 . S
N1922 H1928 0.984 . S
N1922 H1929 0.984 . S
N1923 C1916 1.356 . S
N1923 H1926 0.984 . S
N1923 H1927 0.985 . S
H1924 N1919 0.984 . S
H1925 N1919 0.985 . S
H1926 N1923 0.984 . S
H1927 N1923 0.985 . S
H1928 N1922 0.984 . S
H1929 N1922 0.984 . S
H1930 N1918 0.984 . S
H1931 N1918 0.985 . S
C1932 C1933 1.363 1_565 S
C1932 C1938 1.379 . S
C1932 N1940 1.356 1_565 S
C1933 C1932 1.363 1_545 S
C1933 C1939 1.363 1_545 S
C1934 C1935 1.363 . S
C1934 C1939 1.379 . S
C1934 N1941 1.356 . S
C1935 C1934 1.363 . S
C1935 C1938 1.363 . S
N1936 C1938 1.356 . S
N1936 H1948 0.984 . S
N1936 H1949 0.985 . S
N1937 C1939 1.356 1_545 S
N1937 H1942 0.984 . S
N1937 H1943 0.985 . S
C1938 C1932 1.379 . S
C1938 C1935 1.363 . S
C1938 N1936 1.356 . S
C1939 C1933 1.363 1_565 S
C1939 C1934 1.379 . S
C1939 N1937 1.356 1_565 S
N1940 C1932 1.356 1_545 S
N1940 H1946 0.984 . S
N1940 H1947 0.984 . S
N1941 C1934 1.356 . S
N1941 H1944 0.984 . S
N1941 H1945 0.985 . S
H1942 N1937 0.984 . S
H1943 N1937 0.985 . S
H1944 N1941 0.984 . S
H1945 N1941 0.985 . S
H1946 N1940 0.984 . S
H1947 N1940 0.984 . S
H1948 N1936 0.984 . S
H1949 N1936 0.985 . S
C1950 C1951 1.363 . S
C1950 C1956 1.379 . S
C1950 N1958 1.356 . S
C1951 C1950 1.363 . S
C1951 C1957 1.363 . S
C1952 C1953 1.363 1_545 S
C1952 C1957 1.379 . S
C1952 N1959 1.356 1_545 S
C1953 C1952 1.363 1_565 S
C1953 C1956 1.363 1_565 S
N1954 C1956 1.356 1_565 S
N1954 H1966 0.984 . S
N1954 H1967 0.985 . S
N1955 C1957 1.356 . S
N1955 H1960 0.984 . S
N1955 H1961 0.985 . S
C1956 C1950 1.379 . S
C1956 C1953 1.363 1_545 S
C1956 N1954 1.356 1_545 S
C1957 C1951 1.363 . S
C1957 C1952 1.379 . S
C1957 N1955 1.356 . S
N1958 C1950 1.356 . S
N1958 H1964 0.984 . S
N1958 H1965 0.984 . S
N1959 C1952 1.356 1_565 S
N1959 H1962 0.984 . S
N1959 H1963 0.985 . S
H1960 N1955 0.984 . S
H1961 N1955 0.985 . S
H1962 N1959 0.984 . S
H1963 N1959 0.985 . S
H1964 N1958 0.984 . S
H1965 N1958 0.984 . S
H1966 N1954 0.984 . S
H1967 N1954 0.985 . S
C1968 C1969 1.363 . S
C1968 C1974 1.379 . S
C1968 N1976 1.356 . S
C1969 C1968 1.363 . S
C1969 C1975 1.363 . S
C1970 C1971 1.363 . S
C1970 C1975 1.379 . S
C1970 N1977 1.356 . S
C1971 C1970 1.363 . S
C1971 C1974 1.363 . S
N1972 C1974 1.356 . S
N1972 H1984 0.984 . S
N1972 H1985 0.985 . S
N1973 C1975 1.356 . S
N1973 H1978 0.984 . S
N1973 H1979 0.985 . S
C1974 C1968 1.379 . S
C1974 C1971 1.363 . S
C1974 N1972 1.356 . S
C1975 C1969 1.363 . S
C1975 C1970 1.379 . S
C1975 N1973 1.356 . S
N1976 C1968 1.356 . S
N1976 H1982 0.984 . S
N1976 H1983 0.984 . S
N1977 C1970 1.356 . S
N1977 H1980 0.984 . S
N1977 H1981 0.985 . S
H1978 N1973 0.984 . S
H1979 N1973 0.985 . S
H1980 N1977 0.984 . S
H1981 N1977 0.985 . S
H1982 N1976 0.984 . S
H1983 N1976 0.984 . S
H1984 N1972 0.984 . S
H1985 N1972 0.985 . S
C1986 C1987 1.363 . S
C1986 C1992 1.379 . S
C1986 N1994 1.356 . S
C1987 C1986 1.363 . S
C1987 C1993 1.363 . S
C1988 C1989 1.363 . S
C1988 C1993 1.379 . S
C1988 N1995 1.356 . S
C1989 C1988 1.363 . S
C1989 C1992 1.363 . S
N1990 C1992 1.356 . S
N1990 H2002 0.984 . S
N1990 H2003 0.985 . S
N1991 C1993 1.356 . S
N1991 H1996 0.984 . S
N1991 H1997 0.985 . S
C1992 C1986 1.379 . S
C1992 C1989 1.363 . S
C1992 N1990 1.356 . S
C1993 C1987 1.363 . S
C1993 C1988 1.379 . S
C1993 N1991 1.356 . S
N1994 C1986 1.356 . S
N1994 H2000 0.984 . S
N1994 H2001 0.984 . S
N1995 C1988 1.356 . S
N1995 H1998 0.984 . S
N1995 H1999 0.985 . S
H1996 N1991 0.984 . S
H1997 N1991 0.985 . S
H1998 N1995 0.984 . S
H1999 N1995 0.985 . S
H2000 N1994 0.984 . S
H2001 N1994 0.984 . S
H2002 N1990 0.984 . S
H2003 N1990 0.985 . S
C2004 C2005 1.363 . S
C2004 C2010 1.379 . S
C2004 N2012 1.356 . S
C2005 C2004 1.363 . S
C2005 C2011 1.363 . S
C2006 C2007 1.363 . S
C2006 C2011 1.379 . S
C2006 N2013 1.356 . S
C2007 C2006 1.363 . S
C2007 C2010 1.363 . S
N2008 C2010 1.356 . S
N2008 H2020 0.984 . S
N2008 H2021 0.985 . S
N2009 C2011 1.356 . S
N2009 H2014 0.984 . S
N2009 H2015 0.985 . S
C2010 C2004 1.379 . S
C2010 C2007 1.363 . S
C2010 N2008 1.356 . S
C2011 C2005 1.363 . S
C2011 C2006 1.379 . S
C2011 N2009 1.356 . S
N2012 C2004 1.356 . S
N2012 H2018 0.984 . S
N2012 H2019 0.984 . S
N2013 C2006 1.356 . S
N2013 H2016 0.984 . S
N2013 H2017 0.985 . S
H2014 N2009 0.984 . S
H2015 N2009 0.985 . S
H2016 N2013 0.984 . S
H2017 N2013 0.985 . S
H2018 N2012 0.984 . S
H2019 N2012 0.984 . S
H2020 N2008 0.984 . S
H2021 N2008 0.985 . S
C2022 C2023 1.363 1_655 S
C2022 C2028 1.379 . S
C2022 N2030 1.356 1_655 S
C2023 C2022 1.363 1_455 S
C2023 C2029 1.363 1_455 S
C2024 C2025 1.363 . S
C2024 C2029 1.379 . S
C2024 N2031 1.356 . S
C2025 C2024 1.363 . S
C2025 C2028 1.363 . S
N2026 C2028 1.356 . S
N2026 H2038 0.984 . S
N2026 H2039 0.985 . S
N2027 C2029 1.356 1_455 S
N2027 H2032 0.984 . S
N2027 H2033 0.985 . S
C2028 C2022 1.379 . S
C2028 C2025 1.363 . S
C2028 N2026 1.356 . S
C2029 C2023 1.363 1_655 S
C2029 C2024 1.379 . S
C2029 N2027 1.356 1_655 S
N2030 C2022 1.356 1_455 S
N2030 H2036 0.984 . S
N2030 H2037 0.984 . S
N2031 C2024 1.356 . S
N2031 H2034 0.984 . S
N2031 H2035 0.985 . S
H2032 N2027 0.984 . S
H2033 N2027 0.985 . S
H2034 N2031 0.984 . S
H2035 N2031 0.985 . S
H2036 N2030 0.984 . S
H2037 N2030 0.984 . S
H2038 N2026 0.984 . S
H2039 N2026 0.985 . S
C2040 C2041 1.363 . S
C2040 C2046 1.379 . S
C2040 N2048 1.356 . S
C2041 C2040 1.363 . S
C2041 C2047 1.363 . S
C2042 C2043 1.363 . S
C2042 C2047 1.379 . S
C2042 N2049 1.356 . S
C2043 C2042 1.363 . S
C2043 C2046 1.363 . S
N2044 C2046 1.356 . S
N2044 H2056 0.984 . S
N2044 H2057 0.985 . S
N2045 C2047 1.356 . S
N2045 H2050 0.984 . S
N2045 H2051 0.985 . S
C2046 C2040 1.379 . S
C2046 C2043 1.363 . S
C2046 N2044 1.356 . S
C2047 C2041 1.363 . S
C2047 C2042 1.379 . S
C2047 N2045 1.356 . S
N2048 C2040 1.356 . S
N2048 H2054 0.984 . S
N2048 H2055 0.984 . S
N2049 C2042 1.356 . S
N2049 H2052 0.984 . S
N2049 H2053 0.985 . S
H2050 N2045 0.984 . S
H2051 N2045 0.985 . S
H2052 N2049 0.984 . S
H2053 N2049 0.985 . S
H2054 N2048 0.984 . S
H2055 N2048 0.984 . S
H2056 N2044 0.984 . S
H2057 N2044 0.985 . S
C2058 C2059 1.363 1_655 S
C2058 C2064 1.379 . S
C2058 N2066 1.356 1_655 S
C2059 C2058 1.363 1_455 S
C2059 C2065 1.363 1_455 S
C2060 C2061 1.363 . S
C2060 C2065 1.379 . S
C2060 N2067 1.356 . S
C2061 C2060 1.363 . S
C2061 C2064 1.363 . S
N2062 C2064 1.356 . S
N2062 H2074 0.984 . S
N2062 H2075 0.985 . S
N2063 C2065 1.356 1_455 S
N2063 H2068 0.984 . S
N2063 H2069 0.985 . S
C2064 C2058 1.379 . S
C2064 C2061 1.363 . S
C2064 N2062 1.356 . S
C2065 C2059 1.363 1_655 S
C2065 C2060 1.379 . S
C2065 N2063 1.356 1_655 S
N2066 C2058 1.356 1_455 S
N2066 H2072 0.984 . S
N2066 H2073 0.984 . S
N2067 C2060 1.356 . S
N2067 H2070 0.984 . S
N2067 H2071 0.985 . S
H2068 N2063 0.984 . S
H2069 N2063 0.985 . S
H2070 N2067 0.984 . S
H2071 N2067 0.985 . S
H2072 N2066 0.984 . S
H2073 N2066 0.984 . S
H2074 N2062 0.984 . S
H2075 N2062 0.985 . S
C2076 C2077 1.363 . S
C2076 C2082 1.379 . S
C2076 N2084 1.356 . S
C2077 C2076 1.363 . S
C2077 C2083 1.363 . S
C2078 C2079 1.363 . S
C2078 C2083 1.379 . S
C2078 N2085 1.356 . S
C2079 C2078 1.363 . S
C2079 C2082 1.363 . S
N2080 C2082 1.356 . S
N2080 H2092 0.984 . S
N2080 H2093 0.985 . S
N2081 C2083 1.356 . S
N2081 H2086 0.984 . S
N2081 H2087 0.985 . S
C2082 C2076 1.379 . S
C2082 C2079 1.363 . S
C2082 N2080 1.356 . S
C2083 C2077 1.363 . S
C2083 C2078 1.379 . S
C2083 N2081 1.356 . S
N2084 C2076 1.356 . S
N2084 H2090 0.984 . S
N2084 H2091 0.984 . S
N2085 C2078 1.356 . S
N2085 H2088 0.984 . S
N2085 H2089 0.985 . S
H2086 N2081 0.984 . S
H2087 N2081 0.985 . S
H2088 N2085 0.984 . S
H2089 N2085 0.985 . S
H2090 N2084 0.984 . S
H2091 N2084 0.984 . S
H2092 N2080 0.984 . S
H2093 N2080 0.985 . S
C2094 C2095 1.363 . S
C2094 C2100 1.379 . S
C2094 N2102 1.356 . S
C2095 C2094 1.363 . S
C2095 C2101 1.363 . S
C2096 C2097 1.363 . S
C2096 C2101 1.379 . S
C2096 N2103 1.356 . S
C2097 C2096 1.363 . S
C2097 C2100 1.363 . S
N2098 C2100 1.356 . S
N2098 H2110 0.984 . S
N2098 H2111 0.985 . S
N2099 C2101 1.356 . S
N2099 H2104 0.984 . S
N2099 H2105 0.985 . S
C2100 C2094 1.379 . S
C2100 C2097 1.363 . S
C2100 N2098 1.356 . S
C2101 C2095 1.363 . S
C2101 C2096 1.379 . S
C2101 N2099 1.356 . S
N2102 C2094 1.356 . S
N2102 H2108 0.984 . S
N2102 H2109 0.984 . S
N2103 C2096 1.356 . S
N2103 H2106 0.984 . S
N2103 H2107 0.985 . S
H2104 N2099 0.984 . S
H2105 N2099 0.985 . S
H2106 N2103 0.984 . S
H2107 N2103 0.985 . S
H2108 N2102 0.984 . S
H2109 N2102 0.984 . S
H2110 N2098 0.984 . S
H2111 N2098 0.985 . S
C2112 C2113 1.363 . S
C2112 C2118 1.379 . S
C2112 N2120 1.356 . S
C2113 C2112 1.363 . S
C2113 C2119 1.363 . S
C2114 C2115 1.363 . S
C2114 C2119 1.379 . S
C2114 N2121 1.356 . S
C2115 C2114 1.363 . S
C2115 C2118 1.363 . S
N2116 C2118 1.356 . S
N2116 H2128 0.984 . S
N2116 H2129 0.985 . S
N2117 C2119 1.356 . S
N2117 H2122 0.984 . S
N2117 H2123 0.985 . S
C2118 C2112 1.379 . S
C2118 C2115 1.363 . S
C2118 N2116 1.356 . S
C2119 C2113 1.363 . S
C2119 C2114 1.379 . S
C2119 N2117 1.356 . S
N2120 C2112 1.356 . S
N2120 H2126 0.984 . S
N2120 H2127 0.984 . S
N2121 C2114 1.356 . S
N2121 H2124 0.984 . S
N2121 H2125 0.985 . S
H2122 N2117 0.984 . S
H2123 N2117 0.985 . S
H2124 N2121 0.984 . S
H2125 N2121 0.985 . S
H2126 N2120 0.984 . S
H2127 N2120 0.984 . S
H2128 N2116 0.984 . S
H2129 N2116 0.985 . S
C2130 C2131 1.363 . S
C2130 C2136 1.379 . S
C2130 N2138 1.356 . S
C2131 C2130 1.363 . S
C2131 C2137 1.363 . S
C2132 C2133 1.363 . S
C2132 C2137 1.379 . S
C2132 N2139 1.356 1_556 S
C2133 C2132 1.363 . S
C2133 C2136 1.363 . S
N2134 C2136 1.356 . S
N2134 H2146 0.984 . S
N2134 H2147 0.985 1_556 S
N2135 C2137 1.356 . S
N2135 H2140 0.984 . S
N2135 H2141 0.985 . S
C2136 C2130 1.379 . S
C2136 C2133 1.363 . S
C2136 N2134 1.356 . S
C2137 C2131 1.363 . S
C2137 C2132 1.379 . S
C2137 N2135 1.356 . S
N2138 C2130 1.356 . S
N2138 H2144 0.984 . S
N2138 H2145 0.984 . S
N2139 C2132 1.356 1_554 S
N2139 H2142 0.984 . S
N2139 H2143 0.985 . S
H2140 N2135 0.984 . S
H2141 N2135 0.985 . S
H2142 N2139 0.984 . S
H2143 N2139 0.985 . S
H2144 N2138 0.984 . S
H2145 N2138 0.984 . S
H2146 N2134 0.984 . S
H2147 N2134 0.985 1_554 S
C2148 C2149 1.363 . S
C2148 C2154 1.379 . S
C2148 N2156 1.356 . S
C2149 C2148 1.363 . S
C2149 C2155 1.363 . S
C2150 C2151 1.363 . S
C2150 C2155 1.379 . S
C2150 N2157 1.356 . S
C2151 C2150 1.363 . S
C2151 C2154 1.363 . S
N2152 C2154 1.356 . S
N2152 H2164 0.984 . S
N2152 H2165 0.985 . S
N2153 C2155 1.356 . S
N2153 H2158 0.984 . S
N2153 H2159 0.985 . S
C2154 C2148 1.379 . S
C2154 C2151 1.363 . S
C2154 N2152 1.356 . S
C2155 C2149 1.363 . S
C2155 C2150 1.379 . S
C2155 N2153 1.356 . S
N2156 C2148 1.356 . S
N2156 H2162 0.984 . S
N2156 H2163 0.984 . S
N2157 C2150 1.356 . S
N2157 H2160 0.984 . S
N2157 H2161 0.985 . S
H2158 N2153 0.984 . S
H2159 N2153 0.985 . S
H2160 N2157 0.984 . S
H2161 N2157 0.985 . S
H2162 N2156 0.984 . S
H2163 N2156 0.984 . S
H2164 N2152 0.984 . S
H2165 N2152 0.985 . S
C2166 C2167 1.363 . S
C2166 C2172 1.379 . S
C2166 N2174 1.356 . S
C2167 C2166 1.363 . S
C2167 C2173 1.363 . S
C2168 C2169 1.363 . S
C2168 C2173 1.379 . S
C2168 N2175 1.356 . S
C2169 C2168 1.363 . S
C2169 C2172 1.363 . S
N2170 C2172 1.356 . S
N2170 H2182 0.984 . S
N2170 H2183 0.985 . S
N2171 C2173 1.356 . S
N2171 H2176 0.984 . S
N2171 H2177 0.985 . S
C2172 C2166 1.379 . S
C2172 C2169 1.363 . S
C2172 N2170 1.356 . S
C2173 C2167 1.363 . S
C2173 C2168 1.379 . S
C2173 N2171 1.356 . S
N2174 C2166 1.356 . S
N2174 H2180 0.984 . S
N2174 H2181 0.984 . S
N2175 C2168 1.356 . S
N2175 H2178 0.984 . S
N2175 H2179 0.985 . S
H2176 N2171 0.984 . S
H2177 N2171 0.985 . S
H2178 N2175 0.984 . S
H2179 N2175 0.985 . S
H2180 N2174 0.984 . S
H2181 N2174 0.984 . S
H2182 N2170 0.984 . S
H2183 N2170 0.985 . S
C2184 C2185 1.363 . S
C2184 C2190 1.379 . S
C2184 N2192 1.356 . S
C2185 C2184 1.363 . S
C2185 C2191 1.363 . S
C2186 C2187 1.363 . S
C2186 C2191 1.379 . S
C2186 N2193 1.356 . S
C2187 C2186 1.363 . S
C2187 C2190 1.363 . S
N2188 C2190 1.356 . S
N2188 H2200 0.984 . S
N2188 H2201 0.985 . S
N2189 C2191 1.356 . S
N2189 H2194 0.984 . S
N2189 H2195 0.985 . S
C2190 C2184 1.379 . S
C2190 C2187 1.363 . S
C2190 N2188 1.356 . S
C2191 C2185 1.363 . S
C2191 C2186 1.379 . S
C2191 N2189 1.356 . S
N2192 C2184 1.356 . S
N2192 H2198 0.984 . S
N2192 H2199 0.984 . S
N2193 C2186 1.356 . S
N2193 H2196 0.984 . S
N2193 H2197 0.985 . S
H2194 N2189 0.984 . S
H2195 N2189 0.985 . S
H2196 N2193 0.984 . S
H2197 N2193 0.985 . S
H2198 N2192 0.984 . S
H2199 N2192 0.984 . S
H2200 N2188 0.984 . S
H2201 N2188 0.985 . S
C2202 C2203 1.363 . S
C2202 C2208 1.379 . S
C2202 N2210 1.356 . S
C2203 C2202 1.363 . S
C2203 C2209 1.363 . S
C2204 C2205 1.389 . S
C2204 C2209 1.379 . S
C2204 N2211 1.356 . S
C2205 C2204 1.389 . S
C2205 C2208 1.376 . S
N2206 C2208 1.356 1_556 S
N2206 H2218 0.984 . S
N2206 H2219 0.985 . S
N2207 C2209 1.356 . S
N2207 H2212 0.984 . S
N2207 H2213 0.985 . S
C2208 C2202 1.379 . S
C2208 C2205 1.376 . S
C2208 N2206 1.356 1_554 S
C2209 C2203 1.363 . S
C2209 C2204 1.379 . S
C2209 N2207 1.356 . S
N2210 C2202 1.356 . S
N2210 H2216 0.984 . S
N2210 H2217 0.984 . S
N2211 C2204 1.356 . S
N2211 H2214 0.984 1_554 S
N2211 H2215 0.985 . S
H2212 N2207 0.984 . S
H2213 N2207 0.985 . S
H2214 N2211 0.984 1_556 S
H2215 N2211 0.985 . S
H2216 N2210 0.984 . S
H2217 N2210 0.984 . S
H2218 N2206 0.984 . S
H2219 N2206 0.985 . S
C2220 C2221 1.363 . S
C2220 C2226 1.379 . S
C2220 N2228 1.356 . S
C2221 C2220 1.363 . S
C2221 C2227 1.363 . S
C2222 C2223 1.363 . S
C2222 C2227 1.379 . S
C2222 N2229 1.356 . S
C2223 C2222 1.363 . S
C2223 C2226 1.363 . S
N2224 C2226 1.356 . S
N2224 H2236 0.984 . S
N2224 H2237 0.985 . S
N2225 C2227 1.356 . S
N2225 H2230 0.984 . S
N2225 H2231 0.985 . S
C2226 C2220 1.379 . S
C2226 C2223 1.363 . S
C2226 N2224 1.356 . S
C2227 C2221 1.363 . S
C2227 C2222 1.379 . S
C2227 N2225 1.356 . S
N2228 C2220 1.356 . S
N2228 H2234 0.984 . S
N2228 H2235 0.984 . S
N2229 C2222 1.356 . S
N2229 H2232 0.984 . S
N2229 H2233 0.985 . S
H2230 N2225 0.984 . S
H2231 N2225 0.985 . S
H2232 N2229 0.984 . S
H2233 N2229 0.985 . S
H2234 N2228 0.984 . S
H2235 N2228 0.984 . S
H2236 N2224 0.984 . S
H2237 N2224 0.985 . S
C2238 C2239 1.363 . S
C2238 C2244 1.379 . S
C2238 N2246 1.356 . S
C2239 C2238 1.363 . S
C2239 C2245 1.363 . S
C2240 C2241 1.363 . S
C2240 C2245 1.379 . S
C2240 N2247 1.356 . S
C2241 C2240 1.363 . S
C2241 C2244 1.363 . S
N2242 C2244 1.356 . S
N2242 H2254 0.984 . S
N2242 H2255 0.985 . S
N2243 C2245 1.356 . S
N2243 H2248 0.984 . S
N2243 H2249 0.985 . S
C2244 C2238 1.379 . S
C2244 C2241 1.363 . S
C2244 N2242 1.356 . S
C2245 C2239 1.363 . S
C2245 C2240 1.379 . S
C2245 N2243 1.356 . S
N2246 C2238 1.356 . S
N2246 H2252 0.984 . S
N2246 H2253 0.984 . S
N2247 C2240 1.356 . S
N2247 H2250 0.984 . S
N2247 H2251 0.985 . S
H2248 N2243 0.984 . S
H2249 N2243 0.985 . S
H2250 N2247 0.984 . S
H2251 N2247 0.985 . S
H2252 N2246 0.984 . S
H2253 N2246 0.984 . S
H2254 N2242 0.984 . S
H2255 N2242 0.985 . S
C2256 C2257 1.363 . S
C2256 C2262 1.379 . S
C2256 N2264 1.356 . S
C2257 C2256 1.363 . S
C2257 C2263 1.363 . S
C2258 C2259 1.363 . S
C2258 C2263 1.379 . S
C2258 N2265 1.356 . S
C2259 C2258 1.363 . S
C2259 C2262 1.363 . S
N2260 C2262 1.356 . S
N2260 H2272 0.984 . S
N2260 H2273 0.985 . S
N2261 C2263 1.356 . S
N2261 H2266 0.984 . S
N2261 H2267 0.985 . S
C2262 C2256 1.379 . S
C2262 C2259 1.363 . S
C2262 N2260 1.356 . S
C2263 C2257 1.363 . S
C2263 C2258 1.379 . S
C2263 N2261 1.356 . S
N2264 C2256 1.356 . S
N2264 H2270 0.984 . S
N2264 H2271 0.984 . S
N2265 C2258 1.356 . S
N2265 H2268 0.984 . S
N2265 H2269 0.985 . S
H2266 N2261 0.984 . S
H2267 N2261 0.985 . S
H2268 N2265 0.984 . S
H2269 N2265 0.985 . S
H2270 N2264 0.984 . S
H2271 N2264 0.984 . S
H2272 N2260 0.984 . S
H2273 N2260 0.985 . S
C2274 C2275 1.363 . S
C2274 C2280 1.379 . S
C2274 N2282 1.356 . S
C2275 C2274 1.363 . S
C2275 C2281 1.363 . S
C2276 C2277 1.363 . S
C2276 C2281 1.379 . S
C2276 N2283 1.356 . S
C2277 C2276 1.363 . S
C2277 C2280 1.363 . S
N2278 C2280 1.356 . S
N2278 H2290 0.984 . S
N2278 H2291 0.985 . S
N2279 C2281 1.356 . S
N2279 H2284 0.984 . S
N2279 H2285 0.985 . S
C2280 C2274 1.379 . S
C2280 C2277 1.363 . S
C2280 N2278 1.356 . S
C2281 C2275 1.363 . S
C2281 C2276 1.379 . S
C2281 N2279 1.356 . S
N2282 C2274 1.356 . S
N2282 H2288 0.984 . S
N2282 H2289 0.984 . S
N2283 C2276 1.356 . S
N2283 H2286 0.984 . S
N2283 H2287 0.985 . S
H2284 N2279 0.984 . S
H2285 N2279 0.985 . S
H2286 N2283 0.984 . S
H2287 N2283 0.985 . S
H2288 N2282 0.984 . S
H2289 N2282 0.984 . S
H2290 N2278 0.984 . S
H2291 N2278 0.985 . S
C2292 C2293 1.363 . S
C2292 C2298 1.379 1_565 S
C2292 N2300 1.356 . S
C2293 C2292 1.363 . S
C2293 C2299 1.363 . S
C2294 C2295 1.363 . S
C2294 C2299 1.379 1_545 S
C2294 N2301 1.356 . S
C2295 C2294 1.363 . S
C2295 C2298 1.363 . S
N2296 C2298 1.356 . S
N2296 H2308 0.984 . S
N2296 H2309 0.985 . S
N2297 C2299 1.356 . S
N2297 H2302 0.984 . S
N2297 H2303 0.985 . S
C2298 C2292 1.379 1_545 S
C2298 C2295 1.363 . S
C2298 N2296 1.356 . S
C2299 C2293 1.363 . S
C2299 C2294 1.379 1_565 S
C2299 N2297 1.356 . S
N2300 C2292 1.356 . S
N2300 H2306 0.984 . S
N2300 H2307 0.984 . S
N2301 C2294 1.356 . S
N2301 H2304 0.984 . S
N2301 H2305 0.985 . S
H2302 N2297 0.984 . S
H2303 N2297 0.985 . S
H2304 N2301 0.984 . S
H2305 N2301 0.985 . S
H2306 N2300 0.984 . S
H2307 N2300 0.984 . S
H2308 N2296 0.984 . S
H2309 N2296 0.985 . S
C2310 C2311 1.363 . S
C2310 C2316 1.379 . S
C2310 N2318 1.356 . S
C2311 C2310 1.363 . S
C2311 C2317 1.363 . S
C2312 C2313 1.363 . S
C2312 C2317 1.379 . S
C2312 N2319 1.356 . S
C2313 C2312 1.363 . S
C2313 C2316 1.363 . S
N2314 C2316 1.356 . S
N2314 H2326 0.984 . S
N2314 H2327 0.985 . S
N2315 C2317 1.356 . S
N2315 H2320 0.984 . S
N2315 H2321 0.985 . S
C2316 C2310 1.379 . S
C2316 C2313 1.363 . S
C2316 N2314 1.356 . S
C2317 C2311 1.363 . S
C2317 C2312 1.379 . S
C2317 N2315 1.356 . S
N2318 C2310 1.356 . S
N2318 H2324 0.984 . S
N2318 H2325 0.984 . S
N2319 C2312 1.356 . S
N2319 H2322 0.984 . S
N2319 H2323 0.985 . S
H2320 N2315 0.984 . S
H2321 N2315 0.985 . S
H2322 N2319 0.984 . S
H2323 N2319 0.985 . S
H2324 N2318 0.984 . S
H2325 N2318 0.984 . S
H2326 N2314 0.984 . S
H2327 N2314 0.985 . S
C2328 C2329 1.363 . S
C2328 C2334 1.379 . S
C2328 N2336 1.356 . S
C2329 C2328 1.363 . S
C2329 C2335 1.363 . S
C2330 C2331 1.363 . S
C2330 C2335 1.379 . S
C2330 N2337 1.356 . S
C2331 C2330 1.363 . S
C2331 C2334 1.363 . S
N2332 C2334 1.356 . S
N2332 H2344 0.984 . S
N2332 H2345 0.985 . S
N2333 C2335 1.356 . S
N2333 H2338 0.984 . S
N2333 H2339 0.985 . S
C2334 C2328 1.379 . S
C2334 C2331 1.363 . S
C2334 N2332 1.356 . S
C2335 C2329 1.363 . S
C2335 C2330 1.379 . S
C2335 N2333 1.356 . S
N2336 C2328 1.356 . S
N2336 H2342 0.984 . S
N2336 H2343 0.984 . S
N2337 C2330 1.356 . S
N2337 H2340 0.984 . S
N2337 H2341 0.985 . S
H2338 N2333 0.984 . S
H2339 N2333 0.985 . S
H2340 N2337 0.984 . S
H2341 N2337 0.985 . S
H2342 N2336 0.984 . S
H2343 N2336 0.984 . S
H2344 N2332 0.984 . S
H2345 N2332 0.985 . S
C2346 C2347 1.363 . S
C2346 C2352 1.379 . S
C2346 N2354 1.356 . S
C2347 C2346 1.363 . S
C2347 C2353 1.363 . S
C2348 C2349 1.363 . S
C2348 C2353 1.379 . S
C2348 N2355 1.356 . S
C2349 C2348 1.363 . S
C2349 C2352 1.363 . S
N2350 C2352 1.356 . S
N2350 H2362 0.984 . S
N2350 H2363 0.985 . S
N2351 C2353 1.356 . S
N2351 H2356 0.984 . S
N2351 H2357 0.985 . S
C2352 C2346 1.379 . S
C2352 C2349 1.363 . S
C2352 N2350 1.356 . S
C2353 C2347 1.363 . S
C2353 C2348 1.379 . S
C2353 N2351 1.356 . S
N2354 C2346 1.356 . S
N2354 H2360 0.984 . S
N2354 H2361 0.984 . S
N2355 C2348 1.356 . S
N2355 H2358 0.984 . S
N2355 H2359 0.985 . S
H2356 N2351 0.984 . S
H2357 N2351 0.985 . S
H2358 N2355 0.984 . S
H2359 N2355 0.985 . S
H2360 N2354 0.984 . S
H2361 N2354 0.984 . S
H2362 N2350 0.984 . S
H2363 N2350 0.985 . S
C2364 C2365 1.363 . S
C2364 C2370 1.379 1_565 S
C2364 N2372 1.356 . S
C2365 C2364 1.363 . S
C2365 C2371 1.363 1_565 S
C2366 C2367 1.363 . S
C2366 C2371 1.379 . S
C2366 N2373 1.356 . S
C2367 C2366 1.363 . S
C2367 C2370 1.363 . S
N2368 C2370 1.356 . S
N2368 H2380 0.984 . S
N2368 H2381 0.985 . S
N2369 C2371 1.356 1_565 S
N2369 H2374 0.984 . S
N2369 H2375 0.985 . S
C2370 C2364 1.379 1_545 S
C2370 C2367 1.363 . S
C2370 N2368 1.356 . S
C2371 C2365 1.363 1_545 S
C2371 C2366 1.379 . S
C2371 N2369 1.356 1_545 S
N2372 C2364 1.356 . S
N2372 H2378 0.984 . S
N2372 H2379 0.984 . S
N2373 C2366 1.356 . S
N2373 H2376 0.984 . S
N2373 H2377 0.985 . S
H2374 N2369 0.984 . S
H2375 N2369 0.985 . S
H2376 N2373 0.984 . S
H2377 N2373 0.985 . S
H2378 N2372 0.984 . S
H2379 N2372 0.984 . S
H2380 N2368 0.984 . S
H2381 N2368 0.985 . S
C2382 C2383 1.363 . S
C2382 C2388 1.349 1_565 S
C2382 N2390 1.356 . S
C2383 C2382 1.363 . S
C2383 C2389 1.363 . S
C2384 C2385 1.363 1_565 S
C2384 C2389 1.379 . S
C2384 N2391 1.356 1_565 S
C2385 C2384 1.363 1_545 S
C2385 C2388 1.376 . S
N2386 C2388 1.381 . S
N2386 H2398 0.984 . S
N2386 H2399 0.985 . S
N2387 C2389 1.356 . S
N2387 H2392 0.984 . S
N2387 H2393 0.985 . S
C2388 C2382 1.349 1_545 S
C2388 C2385 1.376 . S
C2388 N2386 1.381 . S
C2389 C2383 1.363 . S
C2389 C2384 1.379 . S
C2389 N2387 1.356 . S
N2390 C2382 1.356 . S
N2390 H2396 0.984 . S
N2390 H2397 0.984 . S
N2391 C2384 1.356 1_545 S
N2391 H2394 0.984 . S
N2391 H2395 0.985 . S
H2392 N2387 0.984 . S
H2393 N2387 0.985 . S
H2394 N2391 0.984 . S
H2395 N2391 0.985 . S
H2396 N2390 0.984 . S
H2397 N2390 0.984 . S
H2398 N2386 0.984 . S
H2399 N2386 0.985 . S
C673 C599 1.320 . S
C675 C8 1.337 . S
C691 C21 1.394 . S
C693 C218 1.328 . S
C709 C36 1.334 . S
C711 C571 1.306 . S
C727 C49 1.359 . S
C729 C246 1.290 . S
C745 C624 1.165 . S
C747 C67 1.238 . S
C763 C77 1.385 . S
C765 C305 1.359 . S
C781 C95 1.250 . S
C783 C652 1.182 . S
C799 C105 1.390 . S
C801 C277 1.364 . S
C817 C55 1.348 . S
C819 C669 1.399 . S
C835 C11 1.145 . S
C837 C358 1.081 . S
C853 C372 1.418 . S
C855 C27 1.423 . S
C871 C39 1.243 . S
C873 C344 1.152 . S
C889 C83 1.287 . S
C891 C347 1.342 . S
C907 C92 1.369 . S
C909 C666 1.295 . S
C925 C111 1.186 . S
C927 C361 1.235 . S
C943 C64 1.324 . S
C945 C375 1.308 . S
C961 C557 1.261 . S
C963 C119 1.286 . S
C979 C133 1.488 . S
C981 C274 1.420 . S
C997 C125 1.183 . S
C999 C627 1.234 . S
C1015 C302 1.424 . S
C1017 C147 1.493 . S
C1033 C319 1.244 . S
C1035 C167 1.197 . S
C1051 C585 1.269 . S
C1053 C175 1.297 . S
C1069 C596 1.412 . S
C1071 C195 1.423 . S
C1087 C568 1.432 . S
C1089 C209 1.448 . S
C1105 C470 1.254 . S
C1107 C217 1.331 . S
C1123 C237 1.276 . S
C1125 C7 1.356 . S
C1141 C245 1.374 . S
C1143 C442 1.311 . S
C1159 C35 1.347 . S
C1161 C265 1.265 . S
C1177 C279 1.290 . S
C1179 C498 1.279 . S
C1195 C97 1.313 . S
C1197 C287 1.333 . S
C1213 C307 1.332 . S
C1215 C526 1.331 . S
C1231 C69 1.275 . S
C1233 C315 1.295 . S
C1249 C543 1.383 . S
C1251 C259 1.425 . S
C1267 C223 1.285 . S
C1269 C148 1.277 . S
C1285 C165 1.388 . S
C1287 C231 1.429 . S
C1303 C134 1.268 . S
C1305 C251 1.277 1_556 S
C1321 C137 1.321 . S
C1323 C293 1.267 . S
C1339 C301 1.388 . S
C1341 C540 1.295 . S
C1357 C151 1.308 . S
C1359 C321 1.253 . S
C1375 C273 1.382 1_554 S
C1377 C162 1.313 . S
C1393 C329 1.397 . S
C1395 C433 1.396 . S
C1411 C343 1.380 . S
C1413 C63 1.378 . S
C1429 C335 1.310 . S
C1431 C501 1.373 . S
C1447 C357 1.313 . S
C1449 C91 1.321 . S
C1465 C371 1.451 . S
C1467 C109 1.407 . S
C1483 C461 1.263 . S
C1485 C391 1.201 . S
C1501 C405 1.261 . S
C1503 C473 1.318 . S
C1519 C413 1.331 . S
C1521 C445 1.302 . S
C1537 C428 1.306 . S
C1539 C263 1.284 . S
C1555 C441 1.400 . S
C1557 C554 1.342 . S
C1573 C235 1.306 . S
C1575 C456 1.335 . S
C1591 C469 1.366 . S
C1593 C582 1.300 . S
C1609 C487 1.229 . S
C1611 C288 1.151 . S
C1627 C641 1.363 . S
C1629 C497 1.388 . S
C1645 C515 1.260 . S
C1647 C316 1.174 . S
C1663 C613 1.397 . S
C1665 C525 1.422 . S
C1681 C333 1.409 . S
C1683 C475 1.363 . S
C1699 C417 1.067 . S
C1701 C431 1.095 . S
C1717 C447 1.335 . S
C1719 C386 1.331 . S
C1735 C400 1.160 . S
C1737 C459 1.249 . S
C1753 C503 1.280 . S
C1755 C403 1.336 . S
C1771 C330 1.388 . S
C1773 C512 1.483 . S
C1789 C531 1.255 . S
C1791 C414 1.255 . S
C1807 C484 1.313 . S
C1809 C389 1.298 . S
C1825 C539 1.297 . S
C1827 C221 1.270 . S
C1843 C189 1.482 . S
C1845 C610 1.412 . S
C1861 C291 1.243 . S
C1863 C545 1.194 . S
C1879 C638 1.432 . S
C1881 C203 1.499 . S
C1897 C655 1.233 . S
C1899 C181 1.186 . S
C1915 C161 1.305 . S
C1917 C249 1.279 . S
C1933 C139 1.429 . S
C1935 C260 1.417 . S
C1951 C232 1.420 . S
C1953 C153 1.436 . S
C1969 C553 1.331 . S
C1971 C50 1.250 . S
C1987 C427 1.314 . S
C1989 C573 1.230 . S
C2005 C581 1.347 . S
C2007 C22 1.274 . S
C2023 C601 1.262 . S
C2025 C455 1.347 . S
C2041 C78 1.275 . S
C2043 C615 1.284 . S
C2059 C623 1.306 . S
C2061 C517 1.288 . S
C2077 C643 1.280 . S
C2079 C106 1.274 . S
C2095 C489 1.277 . S
C2097 C651 1.295 . S
C2113 C595 1.423 . S
C2115 C123 1.381 . S
C2131 C204 1.305 . S
C2133 C559 1.312 1_556 S
C2149 C179 1.370 . S
C2151 C567 1.413 . S
C2167 C587 1.262 . S
C2169 C190 1.253 . S
C2185 C629 1.247 . S
C2187 C193 1.301 . S
C2203 C120 1.271 . S
C2205 C637 1.333 1_554 S
C2221 C207 1.334 . S
C2223 C657 1.277 . S
C2239 C609 1.400 . S
C2241 C176 1.309 . S
C2257 C13 1.336 . S
C2259 C665 1.345 . S
C2275 C399 1.376 . S
C2277 C483 1.372 . S
C2293 C81 1.362 . S
C2295 C671 1.300 . S
C2311 C511 1.283 . S
C2313 C419 1.225 . S
C2329 C529 1.367 . S
C2331 C385 1.403 . S
C2347 C377 1.210 . S
C2349 C41 1.274 . S
C2365 C349 1.258 . S
C2367 C53 1.316 . S
C2383 C25 1.257 . S
C2385 C363 1.209 . S
