# Generated by pormake.
# Topology umb, (4)-cn, num edge types: 1
# Building blocks:
#     Node 0, Type 0, BuildingBlock: KUFVIS_clean_sbu_0, # of connection points: 4
#     Node 1, Type 0, BuildingBlock: KUFVIS_clean_sbu_0, # of connection points: 4
#     Node 2, Type 0, BuildingBlock: KUFVIS_clean_sbu_0, # of connection points: 4
#     Node 3, Type 0, BuildingBlock: KUFVIS_clean_sbu_0, # of connection points: 4
#     Node 4, Type 0, BuildingBlock: KUFVIS_clean_sbu_0, # of connection points: 4
#     Node 5, Type 0, BuildingBlock: KUFVIS_clean_sbu_0, # of connection points: 4
#     Node 6, Type 0, BuildingBlock: KUFVIS_clean_sbu_0, # of connection points: 4
#     Node 7, Type 0, BuildingBlock: KUFVIS_clean_sbu_0, # of connection points: 4
#     Node 8, Type 0, BuildingBlock: KUFVIS_clean_sbu_0, # of connection points: 4
#     Node 9, Type 0, BuildingBlock: KUFVIS_clean_sbu_0, # of connection points: 4
#     Node 10, Type 0, BuildingBlock: KUFVIS_clean_sbu_0, # of connection points: 4
#     Node 11, Type 0, BuildingBlock: KUFVIS_clean_sbu_0, # of connection points: 4
#     Edge 12, Type (0, 0), BuildingBlock: XUDNAN_clean_linker_2, # of connection points: 2
#     Edge 13, Type (0, 0), BuildingBlock: XUDNAN_clean_linker_2, # of connection points: 2
#     Edge 14, Type (0, 0), BuildingBlock: XUDNAN_clean_linker_2, # of connection points: 2
#     Edge 15, Type (0, 0), BuildingBlock: XUDNAN_clean_linker_2, # of connection points: 2
#     Edge 16, Type (0, 0), BuildingBlock: XUDNAN_clean_linker_2, # of connection points: 2
#     Edge 17, Type (0, 0), BuildingBlock: XUDNAN_clean_linker_2, # of connection points: 2
#     Edge 18, Type (0, 0), BuildingBlock: XUDNAN_clean_linker_2, # of connection points: 2
#     Edge 19, Type (0, 0), BuildingBlock: XUDNAN_clean_linker_2, # of connection points: 2
#     Edge 20, Type (0, 0), BuildingBlock: XUDNAN_clean_linker_2, # of connection points: 2
#     Edge 21, Type (0, 0), BuildingBlock: XUDNAN_clean_linker_2, # of connection points: 2
#     Edge 22, Type (0, 0), BuildingBlock: XUDNAN_clean_linker_2, # of connection points: 2
#     Edge 23, Type (0, 0), BuildingBlock: XUDNAN_clean_linker_2, # of connection points: 2
#     Edge 24, Type (0, 0), BuildingBlock: XUDNAN_clean_linker_2, # of connection points: 2
#     Edge 25, Type (0, 0), BuildingBlock: XUDNAN_clean_linker_2, # of connection points: 2
#     Edge 26, Type (0, 0), BuildingBlock: XUDNAN_clean_linker_2, # of connection points: 2
#     Edge 27, Type (0, 0), BuildingBlock: XUDNAN_clean_linker_2, # of connection points: 2
#     Edge 28, Type (0, 0), BuildingBlock: XUDNAN_clean_linker_2, # of connection points: 2
#     Edge 29, Type (0, 0), BuildingBlock: XUDNAN_clean_linker_2, # of connection points: 2
#     Edge 30, Type (0, 0), BuildingBlock: XUDNAN_clean_linker_2, # of connection points: 2
#     Edge 31, Type (0, 0), BuildingBlock: XUDNAN_clean_linker_2, # of connection points: 2
#     Edge 32, Type (0, 0), BuildingBlock: XUDNAN_clean_linker_2, # of connection points: 2
#     Edge 33, Type (0, 0), BuildingBlock: XUDNAN_clean_linker_2, # of connection points: 2
#     Edge 34, Type (0, 0), BuildingBlock: XUDNAN_clean_linker_2, # of connection points: 2
#     Edge 35, Type (0, 0), BuildingBlock: XUDNAN_clean_linker_2, # of connection points: 2
# Relax obj value: 0.255
# Max RMSD: 0.281
# Mean RMSD: 0.280
data_MOF--net-umb--node1-KUFVIS_clean_sbu_0--edge1-XUDNAN_clean_linker_2
_symmetry_space_group_name_H-M    P1
_symmetry_Int_Tables_number       1
_symmetry_cell_setting            triclinic
loop_
_symmetry_equiv_pos_as_xyz
'x, y, z'
_cell_length_a     45.772013
_cell_length_b     45.33417
_cell_length_c     38.189415
_cell_angle_alpha  90.347799
_cell_angle_beta   89.825609
_cell_angle_gamma 120.04326
loop_
_atom_site_label
_atom_site_type_symbol
_atom_site_fract_x
_atom_site_fract_y
_atom_site_fract_z
_atom_type_partial_charge
Mn0 Mn 0.48422 0.18398 0.35463 0.0
Mn1 Mn 0.51284 0.13072 0.37624 0.0
C2 C 0.54054 0.20472 0.36911 0.0
C3 C 0.47541 0.21398 0.30824 0.0
C4 C 0.47286 0.14923 0.42648 0.0
O5 O 0.44608 0.13688 0.33771 0.0
O6 O 0.47278 0.10701 0.34627 0.0
C7 C 0.5352 0.12406 0.3052 0.0
N8 N 0.54171 0.13083 0.33996 0.0
C9 C 0.59733 0.13848 0.33332 0.0
C10 C 0.59085 0.1305 0.29762 0.0
C11 C 0.55981 0.12374 0.28339 0.0
C12 C 0.5721 0.13916 0.3535 0.0
H13 H 0.51163 0.11946 0.2942 0.0
C14 C 0.44847 0.11001 0.33403 0.0
O15 O 0.45949 0.20839 0.33793 0.0
O16 O 0.49469 0.20093 0.30518 0.0
N17 N 0.55231 0.15048 0.40514 0.0
C18 C 0.55516 0.15905 0.43975 0.0
C19 C 0.58478 0.16683 0.45792 0.0
C20 C 0.61088 0.165 0.44059 0.0
C21 C 0.60749 0.15631 0.40499 0.0
C22 C 0.5775 0.149 0.38817 0.0
H23 H 0.53479 0.15926 0.45366 0.0
O24 O 0.52814 0.22493 0.36971 0.0
O25 O 0.51993 0.17391 0.35965 0.0
O26 O 0.47097 0.1715 0.40729 0.0
O27 O 0.48461 0.13049 0.41559 0.0
C28 C 0.63241 0.1538 0.38577 0.0
C29 C 0.62769 0.14561 0.34976 0.0
H30 H 0.60966 0.12987 0.28083 0.0
H31 H 0.55482 0.11819 0.25574 0.0
H32 H 0.58729 0.17362 0.48538 0.0
H33 H 0.63349 0.17048 0.45485 0.0
H34 H 0.65513 0.15791 0.39867 0.0
H35 H 0.64737 0.14445 0.33505 0.0
Mn36 Mn 0.41369 0.58548 0.65325 0.0
Mn37 Mn 0.49236 0.6532 0.6609 0.0
C38 C 0.42118 0.6386 0.66033 0.0
C39 C 0.37003 0.55136 0.61295 0.0
C40 C 0.45469 0.60761 0.72226 0.0
O41 O 0.44335 0.56625 0.63829 0.0
O42 O 0.49468 0.61336 0.64212 0.0
C43 C 0.50732 0.6636 0.58506 0.0
N44 N 0.50386 0.67567 0.61662 0.0
C45 C 0.51527 0.72877 0.59101 0.0
C46 C 0.5192 0.717 0.55827 0.0
C47 C 0.51517 0.68426 0.55529 0.0
C48 C 0.50751 0.70707 0.61975 0.0
H49 H 0.50397 0.63835 0.58259 0.0
C50 C 0.47536 0.58173 0.63488 0.0
O51 O 0.37023 0.5404 0.64438 0.0
O52 O 0.39571 0.58026 0.60491 0.0
N53 N 0.49406 0.69366 0.67849 0.0
C54 C 0.48998 0.70139 0.71206 0.0
C55 C 0.49327 0.73328 0.71954 0.0
C56 C 0.50113 0.75701 0.69257 0.0
C57 C 0.506 0.7488 0.6584 0.0
C58 C 0.50266 0.71673 0.65256 0.0
H59 H 0.48394 0.68327 0.73292 0.0
O60 O 0.3919 0.61207 0.66589 0.0
O61 O 0.44491 0.63326 0.64906 0.0
O62 O 0.42707 0.58689 0.7061 0.0
O63 O 0.48067 0.63167 0.70725 0.0
C64 C 0.51404 0.77115 0.62988 0.0
C65 C 0.51854 0.76109 0.5962 0.0
H66 H 0.52517 0.73283 0.53523 0.0
H67 H 0.51799 0.67494 0.53009 0.0
H68 H 0.48965 0.7395 0.74601 0.0
H69 H 0.50362 0.78154 0.6985 0.0
H70 H 0.51684 0.79613 0.63352 0.0
H71 H 0.52455 0.77844 0.57446 0.0
Mn72 Mn 0.80247 0.31272 0.99881 0.0
Mn73 Mn 0.84857 0.39598 1.02504 0.0
C74 C 0.7743 0.3397 1.01922 0.0
C75 C 0.77284 0.27203 0.95397 0.0
C76 C 0.8367 0.33729 0.07143 0.0
O77 O 0.84868 0.32703 0.97773 0.0
O78 O 0.87487 0.38136 0.99646 0.0
C79 C 0.85873 0.42695 0.95478 0.0
N80 N 0.85042 0.42594 0.98916 0.0
C81 C 0.84909 0.47811 0.98431 0.0
C82 C 0.85795 0.47995 0.94886 0.0
C83 C 0.86253 0.4541 0.93397 0.0
C84 C 0.84555 0.4504 1.00365 0.0
H85 H 0.86257 0.40727 0.94348 0.0
C86 C 0.87441 0.3567 0.97985 0.0
O87 O 0.78365 0.26406 0.98181 0.0
O88 O 0.78117 0.3037 0.95126 0.0
N89 N 0.82888 0.41633 0.05339 0.0
C90 C 0.81641 0.40851 0.08657 0.0
C91 C 0.80832 0.4306 0.10459 0.0
C92 C 0.81404 0.46093 0.08874 0.0
C93 C 0.8273 0.46865 0.05473 0.0
C94 C 0.83469 0.44563 0.03799 0.0
H95 H 0.81267 0.38562 0.09908 0.0
O96 O 0.76054 0.30687 1.01849 0.0
O97 O 0.80524 0.35726 1.0072 0.0
O98 O 0.8197 0.3126 0.04983 0.0
O99 O 0.84848 0.3685 0.06403 0.0
C100 C 0.83261 0.49782 0.03642 0.0
C101 C 0.84314 0.50238 1.00112 0.0
H102 H 0.86094 0.50087 0.93275 0.0
H103 H 0.86919 0.45523 0.9066 0.0
H104 H 0.79786 0.42444 0.13071 0.0
H105 H 0.80766 0.47782 0.10269 0.0
H106 H 0.82794 0.51653 0.04902 0.0
H107 H 0.84615 0.52439 0.98701 0.0
Mn108 Mn 0.38263 0.82914 0.31733 0.0
Mn109 Mn 0.30048 0.80263 0.33023 0.0
C110 C 0.34521 0.77165 0.32547 0.0
C111 C 0.42484 0.8352 0.27652 0.0
C112 C 0.35155 0.832 0.3888 0.0
O113 O 0.38029 0.87045 0.3003 0.0
O114 O 0.32637 0.8509 0.31534 0.0
C115 C 0.28691 0.80584 0.25497 0.0
N116 N 0.27887 0.78834 0.28565 0.0
C117 C 0.22985 0.74095 0.25983 0.0
C118 C 0.23752 0.75849 0.22796 0.0
C119 C 0.26635 0.79097 0.22546 0.0
C120 C 0.25193 0.75661 0.28799 0.0
H121 H 0.30881 0.83097 0.25304 0.0
C122 C 0.3548 0.87448 0.30407 0.0
O123 O 0.43317 0.85056 0.3068 0.0
O124 O 0.39317 0.81939 0.26941 0.0
N125 N 0.27007 0.75699 0.34503 0.0
C126 C 0.26401 0.74548 0.37864 0.0
C127 C 0.23382 0.71563 0.38693 0.0
C128 C 0.2102 0.69751 0.3605 0.0
C129 C 0.21678 0.70973 0.3261 0.0
C130 C 0.24668 0.74044 0.31974 0.0
H131 H 0.2814 0.75975 0.39937 0.0
O132 O 0.37687 0.78527 0.33294 0.0
O133 O 0.33553 0.79261 0.3144 0.0
O134 O 0.37798 0.84136 0.36957 0.0
O135 O 0.32142 0.81607 0.37689 0.0
C136 C 0.19404 0.6935 0.29825 0.0
C137 C 0.20089 0.70884 0.26495 0.0
H138 H 0.22138 0.74734 0.20532 0.0
H139 H 0.27247 0.80467 0.20095 0.0
H140 H 0.22879 0.70658 0.41365 0.0
H141 H 0.18709 0.67429 0.36694 0.0
H142 H 0.17101 0.66946 0.30228 0.0
H143 H 0.1832 0.69622 0.24374 0.0
Mn144 Mn 0.65365 0.45499 0.66263 0.0
Mn145 Mn 0.57366 0.3928 0.67775 0.0
C146 C 0.64421 0.40339 0.68333 0.0
C147 C 0.69605 0.47675 0.61818 0.0
C148 C 0.61403 0.44959 0.73034 0.0
O149 O 0.62643 0.47388 0.63984 0.0
O150 O 0.57481 0.42879 0.64783 0.0
C151 C 0.55969 0.3676 0.60461 0.0
N152 N 0.5595 0.36143 0.63947 0.0
C153 C 0.52846 0.30089 0.62997 0.0
C154 C 0.52817 0.30649 0.59392 0.0
C155 C 0.54427 0.34001 0.58114 0.0
C156 C 0.54571 0.32939 0.65182 0.0
H157 H 0.57121 0.39337 0.59492 0.0
C158 C 0.59461 0.45838 0.63565 0.0
O159 O 0.69862 0.49525 0.6455 0.0
O160 O 0.6688 0.44783 0.61618 0.0
N161 N 0.56576 0.35498 0.70627 0.0
C162 C 0.56628 0.35411 0.74193 0.0
C163 C 0.54789 0.32289 0.75933 0.0
C164 C 0.5288 0.29279 0.73998 0.0
C165 C 0.52919 0.29404 0.7033 0.0
C166 C 0.54776 0.32597 0.6874 0.0
H167 H 0.5793 0.37724 0.75713 0.0
O168 O 0.67377 0.43025 0.68475 0.0
O169 O 0.62076 0.40686 0.66798 0.0
O170 O 0.64193 0.46569 0.71288 0.0
O171 O 0.58734 0.42364 0.71857 0.0
C172 C 0.51127 0.26493 0.68195 0.0
C173 C 0.51142 0.2683 0.64525 0.0
H174 H 0.51527 0.28534 0.57587 0.0
H175 H 0.54409 0.34455 0.55337 0.0
H176 H 0.54792 0.32207 0.78764 0.0
H177 H 0.51449 0.26876 0.75353 0.0
H178 H 0.49717 0.23985 0.69351 0.0
H179 H 0.49745 0.24574 0.62917 0.0
Mn180 Mn 0.12921 0.60937 1.02066 0.0
Mn181 Mn 0.14041 0.54484 0.06394 0.0
C182 C 0.18353 0.62222 0.03906 0.0
C183 C 0.13313 0.63159 0.96327 0.0
C184 C 0.11299 0.58832 0.0852 0.0
O185 O 0.08878 0.56123 1.00896 0.0
O186 O 0.1092 0.52555 1.02322 0.0
C187 C 0.1218 0.4727 0.05617 0.0
N188 N 0.13778 0.50252 0.07451 0.0
C189 C 0.15681 0.47763 0.11782 0.0
C190 C 0.14018 0.44652 0.09963 0.0
C191 C 0.12265 0.44408 0.06863 0.0
C192 C 0.15492 0.50527 0.10423 0.0
H193 H 0.10867 0.47086 0.03211 0.0
C194 C 0.08777 0.53212 1.0082 0.0
O195 O 0.11524 0.63519 0.98763 0.0
O196 O 0.14618 0.61305 0.97142 0.0
N197 N 0.1677 0.56194 0.1057 0.0
C198 C 0.1827 0.59372 0.12038 0.0
C199 C 0.20311 0.60081 0.15006 0.0
C200 C 0.20639 0.57476 0.16582 0.0
C201 C 0.18987 0.54198 0.15113 0.0
C202 C 0.17091 0.53669 0.1206 0.0
H203 H 0.17978 0.61384 0.10913 0.0
O204 O 0.17742 0.64649 0.03119 0.0
O205 O 0.15646 0.59231 0.04323 0.0
O206 O 0.10847 0.61083 0.07113 0.0
O207 O 0.12941 0.57989 0.06478 0.0
C208 C 0.19191 0.51448 0.16537 0.0
C209 C 0.17533 0.48231 0.14877 0.0
H210 H 0.14088 0.42441 0.10911 0.0
H211 H 0.10993 0.42023 0.05432 0.0
H212 H 0.21609 0.62632 0.16092 0.0
H213 H 0.22171 0.58024 0.18915 0.0
H214 H 0.2063 0.51783 0.18901 0.0
H215 H 0.17719 0.46139 0.1599 0.0
Mn216 Mn 0.82681 0.40417 0.38622 0.0
Mn217 Mn 0.82676 0.3302 0.37499 0.0
C218 C 0.77831 0.35607 0.36898 0.0
C219 C 0.81866 0.43749 0.42975 0.0
C220 C 0.85264 0.38562 0.31979 0.0
O221 O 0.87192 0.41425 0.40691 0.0
O222 O 0.8652 0.36162 0.40464 0.0
C223 C 0.81074 0.30762 0.44861 0.0
N224 N 0.80325 0.30179 0.41387 0.0
C225 C 0.75399 0.24761 0.42571 0.0
C226 C 0.76127 0.25289 0.4616 0.0
C227 C 0.78969 0.28313 0.47311 0.0
C228 C 0.77551 0.27323 0.40261 0.0
H229 H 0.83255 0.33084 0.45754 0.0
C230 C 0.88153 0.39293 0.41387 0.0
O231 O 0.83423 0.4512 0.40054 0.0
O232 O 0.80962 0.40591 0.43356 0.0
N233 N 0.79101 0.29647 0.34684 0.0
C234 C 0.789 0.29404 0.31121 0.0
C235 C 0.76251 0.2649 0.29538 0.0
C236 C 0.739 0.23811 0.31627 0.0
C237 C 0.74257 0.24049 0.35277 0.0
C238 C 0.76937 0.27015 0.36709 0.0
H239 H 0.8075 0.31406 0.29493 0.0
O240 O 0.78046 0.38555 0.3668 0.0
O241 O 0.80362 0.35552 0.38328 0.0
O242 O 0.84513 0.40637 0.33535 0.0
O243 O 0.84949 0.35852 0.33372 0.0
C244 C 0.72112 0.2141 0.37539 0.0
C245 C 0.7265 0.21776 0.4119 0.0
H246 H 0.74526 0.23391 0.48054 0.0
H247 H 0.79541 0.28747 0.50077 0.0
H248 H 0.76035 0.26289 0.26718 0.0
H249 H 0.71865 0.2156 0.30399 0.0
H250 H 0.70088 0.19071 0.36467 0.0
H251 H 0.70968 0.1973 0.42908 0.0
Mn252 Mn 0.28972 0.79919 0.70934 0.0
Mn253 Mn 0.37321 0.84984 0.69274 0.0
C254 C 0.32127 0.77548 0.69005 0.0
C255 C 0.24892 0.76903 0.75383 0.0
C256 C 0.31852 0.8402 0.64151 0.0
O257 O 0.30066 0.84551 0.73018 0.0
O258 O 0.35723 0.87193 0.72579 0.0
C259 C 0.39819 0.84783 0.76358 0.0
N260 N 0.39873 0.84349 0.72832 0.0
C261 C 0.44454 0.8322 0.73338 0.0
C262 C 0.44484 0.83703 0.76971 0.0
C263 C 0.42129 0.84449 0.78492 0.0
C264 C 0.42024 0.83479 0.71361 0.0
H265 H 0.38026 0.85377 0.77527 0.0
C266 C 0.33016 0.87014 0.73711 0.0
O267 O 0.24059 0.77786 0.72478 0.0
O268 O 0.28044 0.77843 0.75707 0.0
N269 N 0.39363 0.83259 0.66097 0.0
C270 C 0.39193 0.83133 0.62527 0.0
C271 C 0.41363 0.82383 0.60606 0.0
C272 C 0.43788 0.81911 0.62357 0.0
C273 C 0.44047 0.82238 0.66011 0.0
C274 C 0.41778 0.82934 0.67793 0.0
H275 H 0.37422 0.83604 0.61142 0.0
O276 O 0.28861 0.75754 0.68968 0.0
O277 O 0.33436 0.80562 0.70364 0.0
O278 O 0.29273 0.81707 0.65823 0.0
O279 O 0.34832 0.85649 0.65438 0.0
C280 C 0.46549 0.82023 0.67938 0.0
C281 C 0.46765 0.82531 0.71596 0.0
H282 H 0.46298 0.83498 0.78616 0.0
H283 H 0.42118 0.84803 0.81296 0.0
H284 H 0.41192 0.82211 0.57779 0.0
H285 H 0.45481 0.81364 0.60866 0.0
H286 H 0.48347 0.81513 0.66624 0.0
H287 H 0.48705 0.82362 0.73049 0.0
Mn288 Mn 0.5546 0.40272 0.05915 0.0
Mn289 Mn 0.62788 0.46906 1.02841 0.0
C290 C 0.6017 0.39713 0.05373 0.0
C291 C 0.52245 0.37083 0.1087 0.0
C292 C 0.56917 0.42358 0.98093 0.0
O293 O 0.54705 0.44313 0.06654 0.0
O294 O 0.59733 0.48472 0.04642 0.0
C295 C 0.65634 0.50716 0.09462 0.0
N296 N 0.6599 0.4928 0.06469 0.0
C297 C 0.71915 0.51544 0.07555 0.0
C298 C 0.71624 0.5309 0.10627 0.0
C299 C 0.68466 0.52655 0.11595 0.0
C300 C 0.69014 0.4967 0.05519 0.0
H301 H 0.6321 0.5038 0.10208 0.0
C302 C 0.56828 0.47443 0.06017 0.0
O303 O 0.5083 0.36745 0.07828 0.0
O304 O 0.55361 0.3945 0.11075 0.0
N305 N 0.66044 0.45831 1.01044 0.0
C306 C 0.6575 0.43703 0.98368 0.0
C307 C 0.68613 0.43593 0.97224 0.0
C308 C 0.7175 0.45694 0.9883 0.0
C309 C 0.71978 0.47836 1.0161 0.0
C310 C 0.69042 0.47843 1.02627 0.0
H311 H 0.63348 0.42096 0.97136 0.0
O312 O 0.57168 0.37073 0.05277 0.0
O313 O 0.60373 0.4268 0.05601 0.0
O314 O 0.5482 0.40409 1.00445 0.0
O315 O 0.5986 0.4478 0.98801 0.0
C316 C 0.74968 0.49853 0.0351 0.0
C317 C 0.74938 0.51693 0.06491 0.0
H318 H 0.73795 0.54565 0.12295 0.0
H319 H 0.68217 0.53812 0.1398 0.0
H320 H 0.68404 0.419 0.95109 0.0
H321 H 0.73949 0.45585 0.9796 0.0
H322 H 0.77274 0.49919 1.02752 0.0
H323 H 0.77234 0.53145 0.07994 0.0
Mn324 Mn 0.17372 0.4842 0.36369 0.0
Mn325 Mn 0.17714 0.55844 0.38878 0.0
C326 C 0.22194 0.53748 0.34898 0.0
C327 C 0.20588 0.49057 0.41983 0.0
C328 C 0.14879 0.52771 0.31999 0.0
O329 O 0.1317 0.46628 0.39351 0.0
O330 O 0.13441 0.51661 0.401 0.0
C331 C 0.17877 0.54331 0.46418 0.0
N332 N 0.19329 0.56422 0.43615 0.0
C333 C 0.23695 0.60667 0.47274 0.0
C334 C 0.22294 0.58522 0.50168 0.0
C335 C 0.19382 0.5533 0.49733 0.0
C336 C 0.22162 0.59473 0.43999 0.0
H337 H 0.15592 0.51906 0.46134 0.0
C338 C 0.1191 0.48423 0.40381 0.0
O339 O 0.19601 0.46608 0.39859 0.0
O340 O 0.1983 0.5124 0.40936 0.0
N341 N 0.21576 0.60196 0.38055 0.0
C342 C 0.2207 0.62256 0.35276 0.0
C343 C 0.24691 0.65642 0.35374 0.0
C344 C 0.26659 0.66957 0.38396 0.0
C345 C 0.25915 0.64891 0.41345 0.0
C346 C 0.23318 0.61496 0.41071 0.0
H347 H 0.20429 0.61336 0.33021 0.0
O348 O 0.21687 0.50928 0.3357 0.0
O349 O 0.20167 0.534 0.37488 0.0
O350 O 0.15043 0.50082 0.32724 0.0
O351 O 0.16061 0.55367 0.34034 0.0
C352 C 0.27559 0.66122 0.44583 0.0
C353 C 0.2647 0.63997 0.47541 0.0
H354 H 0.23392 0.59329 0.5275 0.0
H355 H 0.18264 0.53668 0.51959 0.0
H356 H 0.2509 0.67277 0.33178 0.0
H357 H 0.28651 0.69598 0.38475 0.0
H358 H 0.29607 0.68727 0.44845 0.0
H359 H 0.27709 0.64986 0.50036 0.0
Mn360 Mn 0.56589 0.11955 0.71922 0.0
Mn361 Mn 0.53498 0.16985 0.74553 0.0
C362 C 0.5983 0.17932 0.71157 0.0
C363 C 0.59861 0.13462 0.77703 0.0
C364 C 0.52506 0.14538 0.67332 0.0
O365 O 0.52376 0.08593 0.7454 0.0
O366 O 0.50146 0.12008 0.74667 0.0
C367 C 0.5289 0.14542 0.81895 0.0
N368 N 0.5419 0.1715 0.79542 0.0
C369 C 0.56755 0.21271 0.8419 0.0
C370 C 0.55497 0.18624 0.86635 0.0
C371 C 0.53571 0.15243 0.85477 0.0
C372 C 0.56094 0.20409 0.80634 0.0
H373 H 0.51333 0.11936 0.81073 0.0
C374 C 0.49886 0.09077 0.74942 0.0
O375 O 0.59835 0.11445 0.75407 0.0
O376 O 0.57956 0.14616 0.76813 0.0
N377 N 0.56258 0.2182 0.7476 0.0
C378 C 0.56674 0.24074 0.72216 0.0
C379 C 0.584 0.27566 0.72991 0.0
C380 C 0.59529 0.2871 0.76404 0.0
C381 C 0.58864 0.2634 0.79038 0.0
C382 C 0.57177 0.22882 0.78107 0.0
H383 H 0.55659 0.23187 0.69632 0.0
O384 O 0.60559 0.15901 0.69531 0.0
O385 O 0.57512 0.16501 0.73576 0.0
O386 O 0.53425 0.12371 0.68165 0.0
O387 O 0.52772 0.1687 0.69437 0.0
C388 C 0.59626 0.27273 0.8258 0.0
C389 C 0.58567 0.24737 0.85158 0.0
H390 H 0.55962 0.19162 0.89409 0.0
H391 H 0.52564 0.13182 0.87349 0.0
H392 H 0.58772 0.29384 0.70991 0.0
H393 H 0.6076 0.31406 0.77007 0.0
H394 H 0.60936 0.29932 0.8336 0.0
H395 H 0.59102 0.25479 0.87887 0.0
Mn396 Mn 0.46944 0.68897 0.04673 0.0
Mn397 Mn 0.41074 0.6109 1.01756 0.0
C398 C 0.4145 0.67557 0.03861 0.0
C399 C 0.49011 0.72572 0.09681 0.0
C400 C 0.46243 0.66492 0.96962 0.0
O401 O 0.49197 0.66096 0.05743 0.0
O402 O 0.45103 0.6105 0.03581 0.0
C403 C 0.39288 0.57356 0.08481 0.0
N404 N 0.3834 0.58353 0.05545 0.0
C405 C 0.32469 0.55019 0.07108 0.0
C406 C 0.33383 0.53945 0.10139 0.0
C407 C 0.36808 0.55128 0.10833 0.0
C408 C 0.3505 0.57225 0.04849 0.0
H409 H 0.41915 0.5825 0.09023 0.0
C410 C 0.47968 0.62917 0.05069 0.0
O411 O 0.5068 0.73412 0.06741 0.0
O412 O 0.46448 0.69548 0.09758 0.0
N413 N 0.37021 0.60801 1.00014 0.0
C414 C 0.36603 0.62419 0.97232 0.0
C415 C 0.33346 0.61717 0.96323 0.0
C416 C 0.3055 0.59341 0.98268 0.0
C417 C 0.31044 0.57715 1.01129 0.0
C418 C 0.34351 0.58532 1.01922 0.0
H419 H 0.38746 0.64262 0.95754 0.0
O420 O 0.43852 0.70692 0.03682 0.0
O421 O 0.42344 0.65288 0.04295 0.0
O422 O 0.47934 0.68794 0.99295 0.0
O423 O 0.43647 0.63634 0.97655 0.0
C424 C 0.28395 0.55394 0.03288 0.0
C425 C 0.29107 0.54053 0.06281 0.0
H426 H 0.3148 0.52243 0.11971 0.0
H427 H 0.37534 0.54322 0.13175 0.0
H428 H 0.32991 0.63011 0.94134 0.0
H429 H 0.28043 0.58825 0.97575 0.0
H430 H 0.25807 0.54686 1.0272 0.0
H431 H 0.27055 0.52338 0.0797 0.0
H432 H 0.50686 0.19788 0.477 0.0
H433 H 0.42729 0.09341 0.46221 0.0
H434 H 0.42905 0.08256 0.52528 0.0
H435 H 0.55414 0.17808 0.53329 0.0
H436 H 0.56954 0.21556 0.56043 0.0
H437 H 0.5579 0.21665 0.51567 0.0
H438 H 0.51593 0.236 0.53682 0.0
H439 H 0.52853 0.23513 0.58128 0.0
H440 H 0.48454 0.21103 0.5692 0.0
H441 H 0.4463 0.07998 0.58714 0.0
H442 H 0.47322 0.08773 0.64517 0.0
H443 H 0.54087 0.19432 0.62231 0.0
C444 C 0.48841 0.17338 0.48753 0.0
C445 C 0.46582 0.14684 0.4648 0.0
C446 C 0.44381 0.1144 0.47922 0.0
C447 C 0.44497 0.10792 0.51502 0.0
C448 C 0.46854 0.13408 0.5364 0.0
C449 C 0.48958 0.16638 0.52337 0.0
C450 C 0.51494 0.18889 0.55122 0.0
C451 C 0.55128 0.2005 0.53942 0.0
C452 C 0.51068 0.21957 0.56017 0.0
C453 C 0.50479 0.1643 0.58187 0.0
C454 C 0.47823 0.13268 0.5725 0.0
C455 C 0.46654 0.10485 0.59499 0.0
C456 C 0.4821 0.10941 0.62787 0.0
C457 C 0.50878 0.14168 0.6385 0.0
C458 C 0.52004 0.16955 0.61518 0.0
H459 H 0.41406 0.61549 0.76996 0.0
H460 H 0.50358 0.60643 0.76115 0.0
H461 H 0.51876 0.62626 0.82237 0.0
H462 H 0.416 0.68108 0.84644 0.0
H463 H 0.40985 0.66282 0.80319 0.0
H464 H 0.4519 0.69162 0.81883 0.0
H465 H 0.37659 0.60183 0.8286 0.0
H466 H 0.38151 0.61991 0.87178 0.0
H467 H 0.39517 0.58957 0.86305 0.0
H468 H 0.52627 0.65099 0.88399 0.0
H469 H 0.51985 0.66866 0.94377 0.0
H470 H 0.42666 0.66342 0.91203 0.0
C471 C 0.43595 0.61611 0.78152 0.0
C472 C 0.45702 0.60821 0.76109 0.0
C473 C 0.48653 0.61129 0.77662 0.0
C474 C 0.49564 0.62307 0.81123 0.0
C475 C 0.47519 0.63214 0.83016 0.0
C476 C 0.44558 0.62815 0.8161 0.0
C477 C 0.42853 0.64051 0.84174 0.0
C478 C 0.42645 0.6708 0.82664 0.0
C479 C 0.39337 0.61121 0.8519 0.0
C480 C 0.45292 0.65164 0.87248 0.0
C481 C 0.47995 0.64708 0.86513 0.0
C482 C 0.50525 0.65478 0.88993 0.0
C483 C 0.50181 0.66549 0.9237 0.0
C484 C 0.47325 0.66831 0.93246 0.0
C485 C 0.44919 0.66232 0.90598 0.0
H486 H 0.80852 0.37352 0.26681 0.0
H487 H 0.91082 0.39723 0.28812 0.0
H488 H 0.91599 0.38103 0.22728 0.0
H489 H 0.78616 0.29912 0.21688 0.0
H490 H 0.75935 0.30535 0.18704 0.0
H491 H 0.76564 0.32232 0.23093 0.0
H492 H 0.78612 0.38269 0.20534 0.0
H493 H 0.77974 0.36536 0.16167 0.0
H494 H 0.82049 0.40018 0.17442 0.0
H495 H 0.90868 0.35943 0.16419 0.0
H496 H 0.89213 0.34188 0.10255 0.0
H497 H 0.79293 0.32728 0.12403 0.0
C498 C 0.83257 0.37698 0.25804 0.0
C499 C 0.85987 0.38818 0.28174 0.0
C500 C 0.89016 0.39013 0.26999 0.0
C501 C 0.89304 0.38034 0.23565 0.0
C502 C 0.86509 0.36784 0.21347 0.0
C503 C 0.83556 0.36653 0.22408 0.0
C504 C 0.80873 0.35072 0.19578 0.0
C505 C 0.77814 0.31741 0.20845 0.0
C506 C 0.79814 0.37626 0.18356 0.0
C507 C 0.82783 0.34371 0.16737 0.0
C508 C 0.86026 0.35355 0.17816 0.0
C509 C 0.88318 0.35121 0.15572 0.0
C510 C 0.87336 0.34047 0.12088 0.0
C511 C 0.84076 0.33169 0.10879 0.0
C512 C 0.81743 0.33218 0.1329 0.0
H513 H 0.32295 0.78751 0.44314 0.0
H514 H 0.38434 0.89503 0.4201 0.0
H515 H 0.3775 0.9089 0.48153 0.0
H516 H 0.26361 0.7921 0.49827 0.0
H517 H 0.26008 0.76039 0.52893 0.0
H518 H 0.27147 0.7587 0.48407 0.0
H519 H 0.32607 0.75984 0.50408 0.0
H520 H 0.3143 0.76048 0.549 0.0
H521 H 0.35478 0.79317 0.53326 0.0
H522 H 0.36106 0.91072 0.54506 0.0
H523 H 0.34485 0.90068 0.6075 0.0
H524 H 0.2937 0.79172 0.58936 0.0
C525 C 0.33545 0.81397 0.45122 0.0
C526 C 0.35446 0.84026 0.42687 0.0
C527 C 0.37033 0.87453 0.43843 0.0
C528 C 0.36613 0.88258 0.47317 0.0
C529 C 0.34616 0.85604 0.49614 0.0
C530 C 0.33181 0.82237 0.48584 0.0
C531 C 0.31207 0.79856 0.51574 0.0
C532 C 0.27458 0.77612 0.50616 0.0
C533 C 0.32774 0.77673 0.52613 0.0
C534 C 0.31691 0.82403 0.5444 0.0
C535 C 0.33656 0.85706 0.53247 0.0
C536 C 0.34556 0.88496 0.5545 0.0
C537 C 0.33577 0.87902 0.58989 0.0
C538 C 0.31698 0.84544 0.60324 0.0
C539 C 0.30666 0.81763 0.57976 0.0
H540 H 0.59099 0.39584 0.93082 0.0
H541 H 0.53477 0.44841 0.94492 0.0
H542 H 0.54303 0.46424 0.88215 0.0
H543 H 0.65378 0.45726 0.87909 0.0
H544 H 0.65932 0.42858 0.8506 0.0
H545 H 0.64392 0.41578 0.89452 0.0
H546 H 0.59071 0.36219 0.87125 0.0
H547 H 0.6063 0.37402 0.82722 0.0
H548 H 0.56496 0.36674 0.83852 0.0
H549 H 0.56237 0.47876 0.81794 0.0
H550 H 0.58446 0.48407 0.75752 0.0
H551 H 0.63254 0.42658 0.78707 0.0
C552 C 0.57921 0.40947 0.92039 0.0
C553 C 0.56124 0.41993 0.94279 0.0
C554 C 0.54729 0.43878 0.92815 0.0
C555 C 0.55252 0.4485 0.89257 0.0
C556 C 0.57214 0.43952 0.87181 0.0
C557 C 0.5847 0.41979 0.8851 0.0
C558 C 0.60663 0.41513 0.85811 0.0
C559 C 0.64307 0.43008 0.87139 0.0
C560 C 0.59123 0.37728 0.84818 0.0
C561 C 0.60492 0.43568 0.82767 0.0
C562 C 0.58478 0.44945 0.83598 0.0
C563 C 0.57842 0.46832 0.81143 0.0
C564 C 0.5916 0.47181 0.77726 0.0
C565 C 0.6116 0.45721 0.76787 0.0
C566 C 0.6188 0.43953 0.79384 0.0
H567 H 0.1493 0.58345 0.28905 0.0
H568 H 0.11669 0.47665 0.27124 0.0
H569 H 0.09652 0.48013 0.21254 0.0
H570 H 0.07866 0.58343 0.23707 0.0
H571 H 0.10657 0.62582 0.22103 0.0
H572 H 0.11345 0.61352 0.26368 0.0
H573 H 0.17304 0.63336 0.24545 0.0
H574 H 0.16856 0.64141 0.20021 0.0
H575 H 0.18209 0.61153 0.212 0.0
H576 H 0.08229 0.49497 0.15503 0.0
H577 H 0.08186 0.52176 0.09939 0.0
H578 H 0.12593 0.62025 0.15099 0.0
C579 C 0.13716 0.56052 0.27319 0.0
C580 C 0.13438 0.52957 0.28531 0.0
C581 C 0.11905 0.50057 0.26305 0.0
C582 C 0.10726 0.50224 0.22959 0.0
C583 C 0.11056 0.53303 0.21847 0.0
C584 C 0.12505 0.5617 0.23956 0.0
C585 C 0.12818 0.59235 0.21984 0.0
C586 C 0.10535 0.60448 0.2364 0.0
C587 C 0.16511 0.62141 0.21914 0.0
C588 C 0.11503 0.5768 0.18364 0.0
C589 C 0.10377 0.5422 0.18419 0.0
C590 C 0.09063 0.52191 0.15441 0.0
C591 C 0.09012 0.53735 0.1229 0.0
C592 C 0.10305 0.57295 0.12077 0.0
C593 C 0.11479 0.59284 0.15193 0.0
H594 H 0.73277 0.32067 0.4181 0.0
H595 H 0.75029 0.3277 0.30638 0.0
H596 H 0.69252 0.27926 0.29674 0.0
H597 H 0.66961 0.22884 0.42693 0.0
H598 H 0.64436 0.23785 0.45687 0.0
H599 H 0.68948 0.26538 0.45546 0.0
H600 H 0.68108 0.31689 0.44425 0.0
H601 H 0.63606 0.28949 0.44507 0.0
H602 H 0.65603 0.31585 0.40741 0.0
H603 H 0.63295 0.23434 0.29891 0.0
H604 H 0.57164 0.20538 0.30976 0.0
H605 H 0.58982 0.23565 0.41896 0.0
C606 C 0.72464 0.31078 0.39185 0.0
C607 C 0.74608 0.32564 0.36304 0.0
C608 C 0.73436 0.3148 0.32867 0.0
C609 C 0.70178 0.28745 0.32309 0.0
C610 C 0.68107 0.27282 0.35216 0.0
C611 C 0.69165 0.28497 0.38576 0.0
C612 C 0.6625 0.27113 0.41123 0.0
C613 C 0.66668 0.24945 0.43929 0.0
C614 C 0.65871 0.30006 0.42794 0.0
C615 C 0.63365 0.24967 0.38659 0.0
C616 C 0.64524 0.24994 0.35298 0.0
C617 C 0.62351 0.23367 0.32508 0.0
C618 C 0.58891 0.21749 0.33142 0.0
C619 C 0.57665 0.2185 0.36511 0.0
C620 C 0.59904 0.23446 0.39314 0.0
H621 H 0.35205 0.7523 0.73233 0.0
H622 H 0.33238 0.7623 0.62359 0.0
H623 H 0.36985 0.74014 0.60526 0.0
H624 H 0.4384 0.75955 0.72955 0.0
H625 H 0.42223 0.72473 0.75948 0.0
H626 H 0.4055 0.75329 0.76001 0.0
H627 H 0.3461 0.69595 0.75283 0.0
H628 H 0.3667 0.67127 0.748 0.0
H629 H 0.33909 0.67043 0.71398 0.0
H630 H 0.41018 0.71871 0.59911 0.0
H631 H 0.42956 0.67676 0.60336 0.0
H632 H 0.41261 0.67031 0.7153 0.0
C633 C 0.35664 0.75068 0.70473 0.0
C634 C 0.34159 0.7608 0.67909 0.0
C635 C 0.34521 0.7558 0.64326 0.0
C636 C 0.36665 0.74373 0.63275 0.0
C637 C 0.38282 0.73558 0.65864 0.0
C638 C 0.37653 0.73708 0.6939 0.0
C639 C 0.38844 0.71746 0.71578 0.0
C640 C 0.41517 0.74021 0.74281 0.0
C641 C 0.3583 0.68697 0.73366 0.0
C642 C 0.40363 0.70603 0.68743 0.0
C643 C 0.40147 0.71801 0.65488 0.0
C644 C 0.41228 0.70931 0.62442 0.0
C645 C 0.42357 0.68591 0.62706 0.0
C646 C 0.42318 0.67143 0.65977 0.0
C647 C 0.41409 0.68222 0.69032 0.0
H648 H 0.6045 0.33837 0.04578 0.0
H649 H 0.66003 0.44 0.08796 0.0
H650 H 0.71357 0.43873 0.083 0.0
H651 H 0.6588 0.31683 0.10872 0.0
H652 H 0.65267 0.28196 0.08083 0.0
H653 H 0.61957 0.29228 0.08545 0.0
H654 H 0.61831 0.29764 1.01802 0.0
H655 H 0.65189 0.28826 1.01313 0.0
H656 H 0.65647 0.32709 0.99533 0.0
H657 H 0.75235 0.42877 0.03453 0.0
H658 H 0.78254 0.40273 1.00526 0.0
H659 H 0.70903 0.30429 0.04166 0.0
C660 C 0.62796 0.36034 0.05404 0.0
C661 C 0.6304 0.39219 0.06054 0.0
C662 C 0.65995 0.41843 0.07602 0.0
C663 C 0.68978 0.41722 0.07475 0.0
C664 C 0.68763 0.38727 0.06286 0.0
C665 C 0.65708 0.35803 0.05753 0.0
C666 C 0.66173 0.32758 0.05249 0.0
C667 C 0.64735 0.30322 0.08375 0.0
C668 C 0.64618 0.30909 1.01767 0.0
C669 C 0.69988 0.34544 0.05173 0.0
C670 C 0.7141 0.38031 0.05499 0.0
C671 C 0.74446 0.40219 0.03844 0.0
C672 C 0.76236 0.38794 1.02311 0.0
C673 C 0.75284 0.35387 1.02944 0.0
C674 C 0.71984 0.33169 0.04183 0.0
H675 H 0.35717 0.72406 0.35324 0.0
H676 H 0.29848 0.73845 0.27358 0.0
H677 H 0.27202 0.67764 0.25733 0.0
H678 H 0.35576 0.64807 0.28944 0.0
H679 H 0.36099 0.62851 0.32797 0.0
H680 H 0.38399 0.67428 0.32358 0.0
H681 H 0.36133 0.67983 0.3825 0.0
H682 H 0.33802 0.63439 0.38692 0.0
H683 H 0.31695 0.65843 0.39051 0.0
H684 H 0.24253 0.6149 0.26082 0.0
H685 H 0.20946 0.55836 0.28775 0.0
H686 H 0.28603 0.58609 0.36735 0.0
C687 C 0.33914 0.71439 0.33195 0.0
C688 C 0.32792 0.73516 0.31625 0.0
C689 C 0.30532 0.72226 0.28773 0.0
C690 C 0.29157 0.68821 0.27712 0.0
C691 C 0.30198 0.66788 0.29424 0.0
C692 C 0.32639 0.68091 0.3202 0.0
C693 C 0.33047 0.65281 0.33667 0.0
C694 C 0.35947 0.65079 0.31831 0.0
C695 C 0.33688 0.6566 0.37645 0.0
C696 C 0.29702 0.62256 0.32577 0.0
C697 C 0.28386 0.63107 0.29736 0.0
C698 C 0.25274 0.60801 0.2828 0.0
C699 C 0.2336 0.5764 0.29897 0.0
C700 C 0.24437 0.56939 0.33089 0.0
C701 C 0.27707 0.59186 0.3436 0.0
H702 H 0.62463 0.34888 0.63958 0.0
H703 H 0.664 0.38836 0.74287 0.0
H704 H 0.67553 0.34154 0.75226 0.0
H705 H 0.57914 0.27096 0.65248 0.0
H706 H 0.59006 0.25056 0.61839 0.0
H707 H 0.597 0.29271 0.61233 0.0
H708 H 0.65917 0.31688 0.59918 0.0
H709 H 0.65331 0.27457 0.60279 0.0
H710 H 0.68546 0.30911 0.62827 0.0
H711 H 0.66847 0.28612 0.75776 0.0
H712 H 0.63874 0.22358 0.76069 0.0
H713 H 0.60506 0.21683 0.6537 0.0
C714 C 0.63542 0.34716 0.66415 0.0
C715 C 0.64234 0.37113 0.69114 0.0
C716 C 0.6576 0.36935 0.72247 0.0
C717 C 0.66542 0.34367 0.72744 0.0
C718 C 0.6582 0.32005 0.70061 0.0
C719 C 0.64381 0.32167 0.66928 0.0
C720 C 0.63368 0.29007 0.64722 0.0
C721 C 0.59784 0.27512 0.63191 0.0
C722 C 0.65945 0.29815 0.61764 0.0
C723 C 0.63698 0.26759 0.6745 0.0
C724 C 0.65419 0.28652 0.70381 0.0
C725 C 0.65619 0.27119 0.7346 0.0
C726 C 0.63875 0.23571 0.73636 0.0
C727 C 0.61958 0.2161 0.70761 0.0
C728 C 0.62005 0.2319 0.67572 0.0
H729 H 0.24377 0.68027 1.02529 0.0
H730 H 0.20138 0.57465 0.05326 0.0
H731 H 0.25619 0.58586 0.07552 0.0
H732 H 0.30401 0.66791 0.9789 0.0
H733 H 0.33722 0.71184 0.98076 0.0
H734 H 0.2938 0.70145 0.98176 0.0
H735 H 0.30499 0.73535 0.03995 0.0
H736 H 0.34844 0.74544 0.03934 0.0
H737 H 0.3223 0.72461 0.07685 0.0
H738 H 0.31505 0.61106 0.0984 0.0
H739 H 0.37526 0.63132 0.088 0.0
H740 H 0.38086 0.70796 1.01672 0.0
C741 C 0.24611 0.65997 0.03732 0.0
C742 C 0.21759 0.62796 0.04421 0.0
C743 C 0.22199 0.60059 0.05428 0.0
C744 C 0.25319 0.6066 0.06602 0.0
C745 C 0.28055 0.6392 0.06214 0.0
C746 C 0.27788 0.66435 0.04464 0.0
C747 C 0.31187 0.69148 0.03097 0.0
C748 C 0.31171 0.69325 0.99072 0.0
C749 C 0.32252 0.72629 0.0478 0.0
C750 C 0.33365 0.67733 0.04371 0.0
C751 C 0.31523 0.64883 0.06408 0.0
C752 C 0.3296 0.63227 0.08104 0.0
C753 C 0.36333 0.64332 0.07431 0.0
C754 C 0.38093 0.66836 0.04865 0.0
C755 C 0.36688 0.68722 0.03479 0.0
H756 H 0.46019 0.07309 0.2869 0.0
H757 H 0.37939 0.07624 0.34259 0.0
H758 H 0.34138 0.01515 0.32844 0.0
H759 H 0.40725 0.00164 0.22124 0.0
H760 H 0.43541 0.98496 0.22635 0.0
H761 H 0.45153 0.03025 0.22925 0.0
H762 H 0.47688 0.0311 0.28996 0.0
H763 H 0.46022 0.98595 0.28791 0.0
H764 H 0.44952 0.00426 0.32431 0.0
H765 H 0.31724 0.95212 0.32048 0.0
H766 H 0.30891 0.89424 0.32078 0.0
H767 H 0.40853 0.9321 0.27576 0.0
C768 C 0.43401 0.06146 0.29449 0.0
C769 C 0.42256 0.07947 0.31539 0.0
C770 C 0.38837 0.06316 0.32575 0.0
C771 C 0.36676 0.02837 0.318 0.0
C772 C 0.37987 0.01061 0.29983 0.0
C773 C 0.41274 0.02687 0.28782 0.0
C774 C 0.42323 0.0017 0.27535 0.0
C775 C 0.42973 0.00482 0.23568 0.0
C776 C 0.45426 0.00602 0.29561 0.0
C777 C 0.39188 0.96849 0.28424 0.0
C778 C 0.36675 0.9741 0.29714 0.0
C779 C 0.33651 0.94749 0.30977 0.0
C780 C 0.33213 0.91459 0.30992 0.0
C781 C 0.35817 0.90847 0.29833 0.0
C782 C 0.38807 0.93579 0.28453 0.0
H783 H 0.54065 0.59706 0.64493 0.0
H784 H 0.4456 0.52117 0.59892 0.0
H785 H 0.47094 0.48592 0.58344 0.0
H786 H 0.59799 0.58449 0.58373 0.0
H787 H 0.62658 0.58984 0.61875 0.0
H788 H 0.60322 0.61215 0.6202 0.0
H789 H 0.57908 0.58601 0.681 0.0
H790 H 0.60246 0.5639 0.6798 0.0
H791 H 0.55737 0.54036 0.68603 0.0
H792 H 0.50308 0.45542 0.58093 0.0
H793 H 0.53838 0.43016 0.59504 0.0
H794 H 0.61297 0.52543 0.64257 0.0
C795 C 0.52546 0.57349 0.63067 0.0
C796 C 0.49123 0.56197 0.62288 0.0
C797 C 0.47189 0.53052 0.6051 0.0
C798 C 0.48616 0.51048 0.59593 0.0
C799 C 0.5198 0.52227 0.60461 0.0
C800 C 0.53922 0.55304 0.62163 0.0
C801 C 0.57322 0.55777 0.63214 0.0
C802 C 0.60195 0.58785 0.61252 0.0
C803 C 0.57829 0.56225 0.67209 0.0
C804 C 0.5693 0.52416 0.6198 0.0
C805 C 0.53857 0.5044 0.60327 0.0
C806 C 0.52751 0.4709 0.59307 0.0
C807 C 0.54771 0.45677 0.60119 0.0
C808 C 0.57856 0.47608 0.61939 0.0
C809 C 0.59005 0.51056 0.62761 0.0
H810 H 0.92571 0.35381 1.00956 0.0
H811 H 0.89524 0.38353 0.91554 0.0
H812 H 0.95382 0.42917 0.90578 0.0
H813 H 0.96862 0.42631 0.04235 0.0
H814 H 0.00364 0.42431 0.06122 0.0
H815 H 0.96444 0.38583 0.05387 0.0
H816 H -0.00638 0.36087 1.0156 0.0
H817 H 0.03362 0.39877 1.02402 0.0
H818 H 0.02013 0.38525 0.9796 0.0
H819 H 0.00754 0.48246 0.9189 0.0
H820 H 0.0568 0.53199 0.94655 0.0
H821 H 0.05342 0.46728 0.03124 0.0
C822 C 0.93214 0.36799 0.98531 0.0
C823 C 0.90636 0.36505 0.96304 0.0
C824 C 0.91492 0.38503 0.93244 0.0
C825 C 0.94815 0.41134 0.92695 0.0
C826 C 0.97251 0.41648 0.95184 0.0
C827 C 0.96527 0.39435 0.97968 0.0
C828 C -0.00608 0.40854 1.00596 0.0
C829 C 0.98191 0.41142 0.04298 0.0
C830 C 0.01136 0.38708 1.0063 0.0
C831 C 0.01671 0.44325 0.99036 0.0
C832 C 0.00434 0.44731 0.95889 0.0
C833 C 0.01834 0.47911 0.94267 0.0
C834 C 0.04595 0.50718 0.95872 0.0
C835 C 0.05921 0.5031 0.99051 0.0
C836 C 0.04453 0.4707 1.00619 0.0
H837 H 0.07667 0.50968 0.40446 0.0
H838 H 0.08299 0.42068 0.43351 0.0
H839 H 0.02319 0.39189 0.45222 0.0
H840 H 0.01377 0.50226 0.4724 0.0
H841 H -0.0071 0.51542 0.44147 0.0
H842 H 0.03771 0.53171 0.43807 0.0
H843 H 0.03016 0.51028 0.3738 0.0
H844 H -0.01441 0.49422 0.37697 0.0
H845 H 0.00094 0.46605 0.36428 0.0
H846 H 0.96182 0.37029 0.45956 0.0
H847 H 0.90289 0.35475 0.4485 0.0
H848 H 0.93625 0.45736 0.41243 0.0
C849 C 0.06585 0.48454 0.41585 0.0
C850 C 0.08451 0.46751 0.41799 0.0
C851 C 0.06912 0.4342 0.43185 0.0
C852 C 0.03533 0.41785 0.44285 0.0
C853 C 0.01744 0.43521 0.43973 0.0
C854 C 0.03218 0.4678 0.42637 0.0
C855 C 0.00646 0.47892 0.42032 0.0
C856 C 0.01311 0.50885 0.44452 0.0
C857 C 0.00575 0.48785 0.38156 0.0
C858 C 0.97454 0.44681 0.43069 0.0
C859 C 0.98156 0.42231 0.44288 0.0
C860 C 0.95605 0.38942 0.45065 0.0
C861 C 0.92264 0.38084 0.44419 0.0
C862 C 0.91506 0.40491 0.42955 0.0
C863 C 0.94125 0.4387 0.42429 0.0
H864 H 0.48222 0.03278 0.78628 0.0
H865 H 0.4391 0.08294 0.72702 0.0
H866 H 0.3825 0.03237 0.73317 0.0
H867 H 0.43808 0.95526 0.75016 0.0
H868 H 0.43224 0.9311 0.78949 0.0
H869 H 0.4672 0.97361 0.78623 0.0
H870 H 0.44725 0.98957 0.84338 0.0
H871 H 0.41149 0.94697 0.84597 0.0
H872 H 0.40511 0.98312 0.84594 0.0
H873 H 0.33493 0.97277 0.73216 0.0
H874 H 0.30308 0.91048 0.72285 0.0
H875 H 0.37265 0.89985 0.79056 0.0
C876 C 0.46065 0.03329 0.77543 0.0
C877 C 0.46492 0.06156 0.75616 0.0
C878 C 0.43628 0.06151 0.74214 0.0
C879 C 0.40398 0.033 0.74571 0.0
C880 C 0.40054 0.00513 0.76437 0.0
C881 C 0.42809 0.00531 0.77955 0.0
C882 C 0.41836 0.9709 0.79475 0.0
C883 C 0.44023 0.95691 0.7792 0.0
C884 C 0.42069 0.97277 0.8349 0.0
C885 C 0.38195 0.95053 0.78281 0.0
C886 C 0.37176 0.97084 0.76602 0.0
C887 C 0.34191 0.95669 0.74646 0.0
C888 C 0.32359 0.92117 0.7416 0.0
C889 C 0.33538 0.90057 0.75632 0.0
C890 C 0.36287 0.91518 0.77976 0.0
H891 H 0.45517 0.56069 0.05412 0.0
H892 H 0.54679 0.65819 0.0691 0.0
H893 H 0.5782 0.62791 0.08064 0.0
H894 H 0.47337 0.51279 0.12032 0.0
H895 H 0.45485 0.47477 0.09364 0.0
H896 H 0.43905 0.504 0.09111 0.0
H897 H 0.44931 0.50895 1.02408 0.0
H898 H 0.4652 0.47991 1.02639 0.0
H899 H 0.49083 0.52151 1.00748 0.0
H900 H 0.60043 0.58758 0.08287 0.0
H901 H 0.61237 0.54068 0.0764 0.0
H902 H 0.50569 0.46913 0.06118 0.0
C903 C 0.48177 0.57586 0.0603 0.0
C904 C 0.4986 0.61192 0.06057 0.0
C905 C 0.53337 0.63059 0.06886 0.0
C906 C 0.55135 0.6136 0.07551 0.0
C907 C 0.534 0.57802 0.07427 0.0
C908 C 0.49991 0.55939 0.06716 0.0
C909 C 0.48755 0.52157 0.06484 0.0
C910 C 0.46221 0.50214 0.09424 0.0
C911 C 0.47235 0.50716 1.02854 0.0
C912 C 0.52035 0.52181 0.07035 0.0
C913 C 0.54674 0.55461 0.07617 0.0
C914 C 0.57991 0.56177 0.07902 0.0
C915 C 0.5864 0.53488 0.07519 0.0
C916 C 0.55986 0.50115 0.06859 0.0
C917 C 0.52633 0.49448 0.06697 0.0
H918 H 0.52626 0.25466 0.26355 0.0
H919 H 0.42257 0.22394 0.28857 0.0
H920 H 0.42172 0.25944 0.23949 0.0
H921 H 0.55167 0.34211 0.24424 0.0
H922 H 0.58051 0.34554 0.21014 0.0
H923 H 0.57178 0.31664 0.24597 0.0
H924 H 0.55388 0.2668 0.20196 0.0
H925 H 0.56244 0.29554 0.16601 0.0
H926 H 0.52139 0.25805 0.17024 0.0
H927 H 0.43267 0.2972 0.18311 0.0
H928 H 0.456 0.33742 0.13292 0.0
H929 H 0.55379 0.34699 0.15058 0.0
C930 C 0.50326 0.25526 0.25869 0.0
C931 C 0.4743 0.23608 0.27977 0.0
C932 C 0.44503 0.23825 0.27282 0.0
C933 C 0.44434 0.2583 0.24484 0.0
C934 C 0.47339 0.27676 0.22439 0.0
C935 C 0.50249 0.27578 0.23162 0.0
C936 C 0.53102 0.29908 0.20735 0.0
C937 C 0.56048 0.32753 0.22817 0.0
C938 C 0.54287 0.27864 0.18507 0.0
C939 C 0.5136 0.31324 0.18497 0.0
C940 C 0.48018 0.29978 0.19456 0.0
C941 C 0.45897 0.30816 0.17595 0.0
C942 C 0.47235 0.33098 0.14736 0.0
C943 C 0.50686 0.34591 0.1381 0.0
C944 C 0.52746 0.33665 0.15736 0.0
H945 H 0.26039 0.5479 0.44785 0.0
H946 H 0.19557 0.43952 0.4642 0.0
H947 H 0.22869 0.44274 0.51674 0.0
H948 H 0.3365 0.54723 0.46946 0.0
H949 H 0.35681 0.58892 0.48949 0.0
H950 H 0.32606 0.57873 0.45539 0.0
H951 H 0.29228 0.59578 0.49628 0.0
H952 H 0.32212 0.60548 0.53111 0.0
H953 H 0.27809 0.57535 0.53829 0.0
H954 H 0.26957 0.45849 0.5689 0.0
H955 H 0.31678 0.48446 0.61183 0.0
H956 H 0.35768 0.58075 0.55725 0.0
C957 C 0.25294 0.525 0.46287 0.0
C958 C 0.22506 0.49351 0.45232 0.0
C959 C 0.21666 0.46393 0.47202 0.0
C960 C 0.23532 0.46553 0.50194 0.0
C961 C 0.26297 0.49683 0.5115 0.0
C962 C 0.27202 0.52596 0.49221 0.0
C963 C 0.30448 0.55575 0.50619 0.0
C964 C 0.33262 0.56839 0.47848 0.0
C965 C 0.29885 0.58479 0.51874 0.0
C966 C 0.31182 0.5391 0.5367 0.0
C967 C 0.28752 0.50519 0.53967 0.0
C968 C 0.28886 0.48501 0.56658 0.0
C969 C 0.31573 0.49991 0.5909 0.0
C970 C 0.34122 0.5345 0.58783 0.0
C971 C 0.33894 0.55408 0.56022 0.0
H972 H 0.72515 0.27549 0.91399 0.0
H973 H 0.76574 0.20947 0.93682 0.0
H974 H 0.72478 0.16637 0.89519 0.0
H975 H 0.63957 0.20705 0.91214 0.0
H976 H 0.62626 0.2253 0.87862 0.0
H977 H 0.66011 0.25273 0.9075 0.0
H978 H 0.70009 0.28178 0.85523 0.0
H979 H 0.66597 0.25589 0.82578 0.0
H980 H 0.70529 0.25592 0.82251 0.0
H981 H 0.68011 0.13145 0.84836 0.0
H982 H 0.63466 0.10684 0.80395 0.0
H983 H 0.61945 0.19328 0.8165 0.0
C984 C 0.72583 0.25218 0.90984 0.0
C985 C 0.74917 0.24615 0.92825 0.0
C986 C 0.74836 0.21481 0.92286 0.0
C987 C 0.72515 0.19021 0.89922 0.0
C988 C 0.70235 0.19693 0.88164 0.0
C989 C 0.70238 0.2271 0.887 0.0
C990 C 0.67374 0.22719 0.8671 0.0
C991 C 0.64845 0.22815 0.89292 0.0
C992 C 0.68709 0.25697 0.84111 0.0
C993 C 0.65843 0.19308 0.84818 0.0
C994 C 0.67528 0.17595 0.85697 0.0
C995 C 0.66662 0.14458 0.84168 0.0
C996 C 0.64066 0.13072 0.81646 0.0
C997 C 0.62315 0.14787 0.80681 0.0
C998 C 0.63193 0.17924 0.82352 0.0
H999 H 0.45579 0.71 0.1584 0.0
H1000 H 0.53201 0.79643 0.10054 0.0
H1001 H 0.52914 0.83545 0.14479 0.0
H1002 H 0.40495 0.74442 0.17516 0.0
H1003 H 0.39133 0.72531 0.21771 0.0
H1004 H 0.40398 0.70513 0.18516 0.0
H1005 H 0.44821 0.70603 0.22804 0.0
H1006 H 0.43548 0.7261 0.26081 0.0
H1007 H 0.47911 0.74578 0.2477 0.0
H1008 H 0.51227 0.8652 0.19436 0.0
H1009 H 0.4827 0.88056 0.23967 0.0
H1010 H 0.41624 0.77353 0.26095 0.0
C1011 C 0.47274 0.73711 0.15535 0.0
C1012 C 0.49456 0.74997 0.126 0.0
C1013 C 0.51556 0.78577 0.12299 0.0
C1014 C 0.51391 0.80815 0.14802 0.0
C1015 C 0.49109 0.79442 0.17598 0.0
C1016 C 0.47101 0.75953 0.17959 0.0
C1017 C 0.44608 0.75052 0.20942 0.0
C1018 C 0.40944 0.73017 0.19605 0.0
C1019 C 0.45263 0.73096 0.2382 0.0
C1020 C 0.45466 0.78569 0.22195 0.0
C1021 C 0.48099 0.81095 0.20294 0.0
C1022 C 0.49195 0.84544 0.20951 0.0
C1023 C 0.4752 0.85406 0.23546 0.0
C1024 C 0.44753 0.82827 0.25419 0.0
C1025 C 0.43768 0.79383 0.24744 0.0
H1026 H 0.71608 0.43272 0.59922 0.0
H1027 H 0.73659 0.53507 0.57847 0.0
H1028 H 0.77424 0.53915 0.52898 0.0
H1029 H 0.80033 0.44654 0.57784 0.0
H1030 H 0.78292 0.40444 0.55917 0.0
H1031 H 0.76106 0.41213 0.59417 0.0
H1032 H 0.70735 0.38776 0.55568 0.0
H1033 H 0.72902 0.38034 0.52043 0.0
H1034 H 0.70969 0.40599 0.51321 0.0
H1035 H 0.80557 0.52748 0.47612 0.0
H1036 H 0.82756 0.50339 0.43114 0.0
H1037 H 0.7858 0.40975 0.49054 0.0
C1038 C 0.72912 0.4564 0.58482 0.0
C1039 C 0.72367 0.48371 0.59293 0.0
C1040 C 0.74087 0.51405 0.57316 0.0
C1041 C 0.76209 0.51639 0.54483 0.0
C1042 C 0.76611 0.48832 0.53694 0.0
C1043 C 0.7503 0.45913 0.55703 0.0
C1044 C 0.75693 0.4317 0.54322 0.0
C1045 C 0.77648 0.42322 0.5702 0.0
C1046 C 0.72379 0.39958 0.5325 0.0
C1047 C 0.77851 0.44944 0.51166 0.0
C1048 C 0.78381 0.48209 0.50806 0.0
C1049 C 0.8018 0.50209 0.47925 0.0
C1050 C 0.81429 0.48826 0.45375 0.0
C1051 C 0.80877 0.4547 0.45718 0.0
C1052 C 0.79094 0.43559 0.48693 0.0
H1053 H 0.18819 0.64835 0.92217 0.0
H1054 H 0.10013 0.66025 0.92881 0.0
H1055 H 0.11823 0.69483 0.87443 0.0
H1056 H 0.24483 0.73341 0.89541 0.0
H1057 H 0.2693 0.72184 0.8674 0.0
H1058 H 0.2477 0.69602 0.9048 0.0
H1059 H 0.21682 0.6429 0.86465 0.0
H1060 H 0.23837 0.66855 0.8271 0.0
H1061 H 0.19292 0.64396 0.82773 0.0
H1062 H 0.1474 0.72871 0.81736 0.0
H1063 H 0.18594 0.76117 0.76837 0.0
H1064 H 0.25634 0.72998 0.80331 0.0
C1065 C 0.17232 0.65772 0.91195 0.0
C1066 C 0.1423 0.65096 0.92956 0.0
C1067 C 0.12297 0.66469 0.91569 0.0
C1068 C 0.13312 0.68438 0.88475 0.0
C1069 C 0.16304 0.69072 0.86817 0.0
C1070 C 0.18246 0.67795 0.88168 0.0
C1071 C 0.21459 0.68993 0.86063 0.0
C1072 C 0.24595 0.71159 0.88342 0.0
C1073 C 0.21573 0.65952 0.84404 0.0
C1074 C 0.21039 0.7114 0.83296 0.0
C1075 C 0.18034 0.7113 0.83726 0.0
C1076 C 0.17103 0.72899 0.81406 0.0
C1077 C 0.19303 0.74733 0.78619 0.0
C1078 C 0.22435 0.74844 0.782 0.0
C1079 C 0.23279 0.73002 0.80583 0.0
loop_
_geom_bond_atom_site_label_1
_geom_bond_atom_site_label_2
_geom_bond_distance
_geom_bond_site_symmetry_2
_ccdc_geom_bond_type
Mn0 O5 2.095 . S
Mn0 O15 2.162 . S
Mn0 O16 2.297 . S
Mn0 O24 2.385 . S
Mn0 O25 2.209 . S
Mn0 O26 2.094 . S
Mn1 O6 2.121 . S
Mn1 N8 2.257 . S
Mn1 N17 2.282 . S
Mn1 O25 2.215 . S
Mn1 O27 2.117 . S
C2 O24 1.234 . S
C2 O25 1.283 . S
C3 O15 1.281 . S
C3 O16 1.236 . S
C4 O26 1.240 . S
C4 O27 1.264 . S
O5 Mn0 2.095 . S
O5 C14 1.250 . S
O6 Mn1 2.121 . S
O6 C14 1.258 . S
C7 N8 1.326 . S
C7 C11 1.460 . S
C7 H13 0.929 . S
N8 Mn1 2.257 . S
N8 C7 1.326 . S
N8 C12 1.362 . S
C9 C10 1.258 . S
C9 C12 1.431 . S
C9 C29 1.449 . S
C10 C9 1.258 . S
C10 C11 1.477 . S
C10 H30 0.931 . S
C11 C7 1.460 . S
C11 C10 1.477 . S
C11 H31 0.930 . S
C12 N8 1.362 . S
C12 C9 1.431 . S
C12 C22 1.476 . S
H13 C7 0.929 . S
C14 O5 1.250 . S
C14 O6 1.258 . S
O15 Mn0 2.162 . S
O15 C3 1.281 . S
O16 Mn0 2.297 . S
O16 C3 1.236 . S
N17 Mn1 2.282 . S
N17 C18 1.328 . S
N17 C22 1.318 . S
C18 N17 1.328 . S
C18 C19 1.457 . S
C18 H23 0.929 . S
C19 C18 1.457 . S
C19 C20 1.291 . S
C19 H32 0.931 . S
C20 C19 1.291 . S
C20 C21 1.373 . S
C20 H33 0.929 . S
C21 C20 1.373 . S
C21 C22 1.396 . S
C21 C28 1.403 . S
C22 C12 1.476 . S
C22 N17 1.318 . S
C22 C21 1.396 . S
H23 C18 0.929 . S
O24 Mn0 2.385 . S
O24 C2 1.234 . S
O25 Mn0 2.209 . S
O25 Mn1 2.215 . S
O25 C2 1.283 . S
O26 Mn0 2.094 . S
O26 C4 1.240 . S
O27 Mn1 2.117 . S
O27 C4 1.264 . S
C28 C21 1.403 . S
C28 C29 1.399 . S
C28 H34 0.929 . S
C29 C9 1.449 . S
C29 C28 1.399 . S
C29 H35 0.930 . S
H30 C10 0.931 . S
H31 C11 0.930 . S
H32 C19 0.931 . S
H33 C20 0.929 . S
H34 C28 0.929 . S
H35 C29 0.930 . S
Mn36 O41 2.095 . S
Mn36 O51 2.162 . S
Mn36 O52 2.297 . S
Mn36 O60 2.385 . S
Mn36 O61 2.209 . S
Mn36 O62 2.094 . S
Mn37 O42 2.121 . S
Mn37 N44 2.257 . S
Mn37 N53 2.282 . S
Mn37 O61 2.215 . S
Mn37 O63 2.117 . S
C38 O60 1.234 . S
C38 O61 1.283 . S
C39 O51 1.281 . S
C39 O52 1.236 . S
C40 O62 1.240 . S
C40 O63 1.264 . S
O41 Mn36 2.095 . S
O41 C50 1.250 . S
O42 Mn37 2.121 . S
O42 C50 1.258 . S
C43 N44 1.326 . S
C43 C47 1.460 . S
C43 H49 0.929 . S
N44 Mn37 2.257 . S
N44 C43 1.326 . S
N44 C48 1.362 . S
C45 C46 1.258 . S
C45 C48 1.431 . S
C45 C65 1.449 . S
C46 C45 1.258 . S
C46 C47 1.477 . S
C46 H66 0.931 . S
C47 C43 1.460 . S
C47 C46 1.477 . S
C47 H67 0.930 . S
C48 N44 1.362 . S
C48 C45 1.431 . S
C48 C58 1.476 . S
H49 C43 0.929 . S
C50 O41 1.250 . S
C50 O42 1.258 . S
O51 Mn36 2.162 . S
O51 C39 1.281 . S
O52 Mn36 2.297 . S
O52 C39 1.236 . S
N53 Mn37 2.282 . S
N53 C54 1.328 . S
N53 C58 1.318 . S
C54 N53 1.328 . S
C54 C55 1.457 . S
C54 H59 0.929 . S
C55 C54 1.457 . S
C55 C56 1.291 . S
C55 H68 0.931 . S
C56 C55 1.291 . S
C56 C57 1.373 . S
C56 H69 0.929 . S
C57 C56 1.373 . S
C57 C58 1.396 . S
C57 C64 1.403 . S
C58 C48 1.476 . S
C58 N53 1.318 . S
C58 C57 1.396 . S
H59 C54 0.929 . S
O60 Mn36 2.385 . S
O60 C38 1.234 . S
O61 Mn36 2.209 . S
O61 Mn37 2.215 . S
O61 C38 1.283 . S
O62 Mn36 2.094 . S
O62 C40 1.240 . S
O63 Mn37 2.117 . S
O63 C40 1.264 . S
C64 C57 1.403 . S
C64 C65 1.399 . S
C64 H70 0.929 . S
C65 C45 1.449 . S
C65 C64 1.399 . S
C65 H71 0.930 . S
H66 C46 0.931 . S
H67 C47 0.930 . S
H68 C55 0.931 . S
H69 C56 0.929 . S
H70 C64 0.929 . S
H71 C65 0.930 . S
Mn72 O77 2.095 . S
Mn72 O87 2.162 . S
Mn72 O88 2.297 . S
Mn72 O96 2.385 . S
Mn72 O97 2.209 . S
Mn72 O98 2.094 1_556 S
Mn73 O78 2.121 1_554 S
Mn73 N80 2.257 . S
Mn73 N89 2.282 . S
Mn73 O97 2.215 1_554 S
Mn73 O99 2.117 . S
C74 O96 1.234 . S
C74 O97 1.283 . S
C75 O87 1.281 . S
C75 O88 1.236 . S
C76 O98 1.240 . S
C76 O99 1.264 . S
O77 Mn72 2.095 . S
O77 C86 1.250 . S
O78 Mn73 2.121 1_556 S
O78 C86 1.258 . S
C79 N80 1.326 1_556 S
C79 C83 1.460 . S
C79 H85 0.929 . S
N80 Mn73 2.257 . S
N80 C79 1.326 1_554 S
N80 C84 1.362 . S
C81 C82 1.258 1_554 S
C81 C84 1.431 . S
C81 C101 1.449 . S
C82 C81 1.258 1_556 S
C82 C83 1.477 . S
C82 H102 0.931 . S
C83 C79 1.460 . S
C83 C82 1.477 . S
C83 H103 0.930 . S
C84 N80 1.362 . S
C84 C81 1.431 . S
C84 C94 1.476 . S
H85 C79 0.929 . S
C86 O77 1.250 . S
C86 O78 1.258 . S
O87 Mn72 2.162 . S
O87 C75 1.281 . S
O88 Mn72 2.297 . S
O88 C75 1.236 . S
N89 Mn73 2.282 . S
N89 C90 1.328 . S
N89 C94 1.318 . S
C90 N89 1.328 . S
C90 C91 1.457 . S
C90 H95 0.929 . S
C91 C90 1.457 . S
C91 C92 1.291 . S
C91 H104 0.931 . S
C92 C91 1.291 . S
C92 C93 1.373 . S
C92 H105 0.929 . S
C93 C92 1.373 . S
C93 C94 1.396 . S
C93 C100 1.403 . S
C94 C84 1.476 . S
C94 N89 1.318 . S
C94 C93 1.396 . S
H95 C90 0.929 . S
O96 Mn72 2.385 . S
O96 C74 1.234 . S
O97 Mn72 2.209 . S
O97 Mn73 2.215 1_556 S
O97 C74 1.283 . S
O98 Mn72 2.094 1_554 S
O98 C76 1.240 . S
O99 Mn73 2.117 . S
O99 C76 1.264 . S
C100 C93 1.403 . S
C100 C101 1.399 . S
C100 H106 0.929 . S
C101 C81 1.449 . S
C101 C100 1.399 . S
C101 H107 0.930 . S
H102 C82 0.931 . S
H103 C83 0.930 . S
H104 C91 0.931 . S
H105 C92 0.929 . S
H106 C100 0.929 . S
H107 C101 0.930 . S
Mn108 O113 2.095 . S
Mn108 O123 2.162 . S
Mn108 O124 2.297 . S
Mn108 O132 2.385 . S
Mn108 O133 2.209 . S
Mn108 O134 2.094 . S
Mn109 O114 2.121 . S
Mn109 N116 2.257 . S
Mn109 N125 2.282 . S
Mn109 O133 2.215 . S
Mn109 O135 2.117 . S
C110 O132 1.234 . S
C110 O133 1.283 . S
C111 O123 1.281 . S
C111 O124 1.236 . S
C112 O134 1.240 . S
C112 O135 1.264 . S
O113 Mn108 2.095 . S
O113 C122 1.250 . S
O114 Mn109 2.121 . S
O114 C122 1.258 . S
C115 N116 1.326 . S
C115 C119 1.460 . S
C115 H121 0.929 . S
N116 Mn109 2.257 . S
N116 C115 1.326 . S
N116 C120 1.362 . S
C117 C118 1.258 . S
C117 C120 1.431 . S
C117 C137 1.449 . S
C118 C117 1.258 . S
C118 C119 1.477 . S
C118 H138 0.931 . S
C119 C115 1.460 . S
C119 C118 1.477 . S
C119 H139 0.930 . S
C120 N116 1.362 . S
C120 C117 1.431 . S
C120 C130 1.476 . S
H121 C115 0.929 . S
C122 O113 1.250 . S
C122 O114 1.258 . S
O123 Mn108 2.162 . S
O123 C111 1.281 . S
O124 Mn108 2.297 . S
O124 C111 1.236 . S
N125 Mn109 2.282 . S
N125 C126 1.328 . S
N125 C130 1.318 . S
C126 N125 1.328 . S
C126 C127 1.457 . S
C126 H131 0.929 . S
C127 C126 1.457 . S
C127 C128 1.291 . S
C127 H140 0.931 . S
C128 C127 1.291 . S
C128 C129 1.373 . S
C128 H141 0.929 . S
C129 C128 1.373 . S
C129 C130 1.396 . S
C129 C136 1.403 . S
C130 C120 1.476 . S
C130 N125 1.318 . S
C130 C129 1.396 . S
H131 C126 0.929 . S
O132 Mn108 2.385 . S
O132 C110 1.234 . S
O133 Mn108 2.209 . S
O133 Mn109 2.215 . S
O133 C110 1.283 . S
O134 Mn108 2.094 . S
O134 C112 1.240 . S
O135 Mn109 2.117 . S
O135 C112 1.264 . S
C136 C129 1.403 . S
C136 C137 1.399 . S
C136 H142 0.929 . S
C137 C117 1.449 . S
C137 C136 1.399 . S
C137 H143 0.930 . S
H138 C118 0.931 . S
H139 C119 0.930 . S
H140 C127 0.931 . S
H141 C128 0.929 . S
H142 C136 0.929 . S
H143 C137 0.930 . S
Mn144 O149 2.095 . S
Mn144 O159 2.162 . S
Mn144 O160 2.297 . S
Mn144 O168 2.385 . S
Mn144 O169 2.209 . S
Mn144 O170 2.094 . S
Mn145 O150 2.121 . S
Mn145 N152 2.257 . S
Mn145 N161 2.282 . S
Mn145 O169 2.215 . S
Mn145 O171 2.117 . S
C146 O168 1.234 . S
C146 O169 1.283 . S
C147 O159 1.281 . S
C147 O160 1.236 . S
C148 O170 1.240 . S
C148 O171 1.264 . S
O149 Mn144 2.095 . S
O149 C158 1.250 . S
O150 Mn145 2.121 . S
O150 C158 1.258 . S
C151 N152 1.326 . S
C151 C155 1.460 . S
C151 H157 0.929 . S
N152 Mn145 2.257 . S
N152 C151 1.326 . S
N152 C156 1.362 . S
C153 C154 1.258 . S
C153 C156 1.431 . S
C153 C173 1.449 . S
C154 C153 1.258 . S
C154 C155 1.477 . S
C154 H174 0.931 . S
C155 C151 1.460 . S
C155 C154 1.477 . S
C155 H175 0.930 . S
C156 N152 1.362 . S
C156 C153 1.431 . S
C156 C166 1.476 . S
H157 C151 0.929 . S
C158 O149 1.250 . S
C158 O150 1.258 . S
O159 Mn144 2.162 . S
O159 C147 1.281 . S
O160 Mn144 2.297 . S
O160 C147 1.236 . S
N161 Mn145 2.282 . S
N161 C162 1.328 . S
N161 C166 1.318 . S
C162 N161 1.328 . S
C162 C163 1.457 . S
C162 H167 0.929 . S
C163 C162 1.457 . S
C163 C164 1.291 . S
C163 H176 0.931 . S
C164 C163 1.291 . S
C164 C165 1.373 . S
C164 H177 0.929 . S
C165 C164 1.373 . S
C165 C166 1.396 . S
C165 C172 1.403 . S
C166 C156 1.476 . S
C166 N161 1.318 . S
C166 C165 1.396 . S
H167 C162 0.929 . S
O168 Mn144 2.385 . S
O168 C146 1.234 . S
O169 Mn144 2.209 . S
O169 Mn145 2.215 . S
O169 C146 1.283 . S
O170 Mn144 2.094 . S
O170 C148 1.240 . S
O171 Mn145 2.117 . S
O171 C148 1.264 . S
C172 C165 1.403 . S
C172 C173 1.399 . S
C172 H178 0.929 . S
C173 C153 1.449 . S
C173 C172 1.399 . S
C173 H179 0.930 . S
H174 C154 0.931 . S
H175 C155 0.930 . S
H176 C163 0.931 . S
H177 C164 0.929 . S
H178 C172 0.929 . S
H179 C173 0.930 . S
Mn180 O185 2.095 . S
Mn180 O195 2.162 . S
Mn180 O196 2.297 . S
Mn180 O204 2.385 . S
Mn180 O205 2.209 . S
Mn180 O206 2.094 1_556 S
Mn181 O186 2.121 1_554 S
Mn181 N188 2.257 . S
Mn181 N197 2.282 . S
Mn181 O205 2.215 1_554 S
Mn181 O207 2.117 . S
C182 O204 1.234 . S
C182 O205 1.283 . S
C183 O195 1.281 . S
C183 O196 1.236 . S
C184 O206 1.240 . S
C184 O207 1.264 . S
O185 Mn180 2.095 . S
O185 C194 1.250 . S
O186 Mn181 2.121 1_556 S
O186 C194 1.258 . S
C187 N188 1.326 1_556 S
C187 C191 1.460 . S
C187 H193 0.929 . S
N188 Mn181 2.257 . S
N188 C187 1.326 1_554 S
N188 C192 1.362 . S
C189 C190 1.258 1_554 S
C189 C192 1.431 . S
C189 C209 1.449 . S
C190 C189 1.258 1_556 S
C190 C191 1.477 . S
C190 H210 0.931 . S
C191 C187 1.460 . S
C191 C190 1.477 . S
C191 H211 0.930 . S
C192 N188 1.362 . S
C192 C189 1.431 . S
C192 C202 1.476 . S
H193 C187 0.929 . S
C194 O185 1.250 . S
C194 O186 1.258 . S
O195 Mn180 2.162 . S
O195 C183 1.281 . S
O196 Mn180 2.297 . S
O196 C183 1.236 . S
N197 Mn181 2.282 . S
N197 C198 1.328 . S
N197 C202 1.318 . S
C198 N197 1.328 . S
C198 C199 1.457 . S
C198 H203 0.929 . S
C199 C198 1.457 . S
C199 C200 1.291 . S
C199 H212 0.931 . S
C200 C199 1.291 . S
C200 C201 1.373 . S
C200 H213 0.929 . S
C201 C200 1.373 . S
C201 C202 1.396 . S
C201 C208 1.403 . S
C202 C192 1.476 . S
C202 N197 1.318 . S
C202 C201 1.396 . S
H203 C198 0.929 . S
O204 Mn180 2.385 . S
O204 C182 1.234 . S
O205 Mn180 2.209 . S
O205 Mn181 2.215 1_556 S
O205 C182 1.283 . S
O206 Mn180 2.094 1_554 S
O206 C184 1.240 . S
O207 Mn181 2.117 . S
O207 C184 1.264 . S
C208 C201 1.403 . S
C208 C209 1.399 . S
C208 H214 0.929 . S
C209 C189 1.449 . S
C209 C208 1.399 . S
C209 H215 0.930 . S
H210 C190 0.931 . S
H211 C191 0.930 . S
H212 C199 0.931 . S
H213 C200 0.929 . S
H214 C208 0.929 . S
H215 C209 0.930 . S
Mn216 O221 2.095 . S
Mn216 O231 2.162 . S
Mn216 O232 2.297 . S
Mn216 O240 2.385 . S
Mn216 O241 2.209 . S
Mn216 O242 2.094 . S
Mn217 O222 2.121 . S
Mn217 N224 2.257 . S
Mn217 N233 2.282 . S
Mn217 O241 2.215 . S
Mn217 O243 2.117 . S
C218 O240 1.234 . S
C218 O241 1.283 . S
C219 O231 1.281 . S
C219 O232 1.236 . S
C220 O242 1.240 . S
C220 O243 1.264 . S
O221 Mn216 2.095 . S
O221 C230 1.250 . S
O222 Mn217 2.121 . S
O222 C230 1.258 . S
C223 N224 1.326 . S
C223 C227 1.460 . S
C223 H229 0.929 . S
N224 Mn217 2.257 . S
N224 C223 1.326 . S
N224 C228 1.362 . S
C225 C226 1.258 . S
C225 C228 1.431 . S
C225 C245 1.449 . S
C226 C225 1.258 . S
C226 C227 1.477 . S
C226 H246 0.931 . S
C227 C223 1.460 . S
C227 C226 1.477 . S
C227 H247 0.930 . S
C228 N224 1.362 . S
C228 C225 1.431 . S
C228 C238 1.476 . S
H229 C223 0.929 . S
C230 O221 1.250 . S
C230 O222 1.258 . S
O231 Mn216 2.162 . S
O231 C219 1.281 . S
O232 Mn216 2.297 . S
O232 C219 1.236 . S
N233 Mn217 2.282 . S
N233 C234 1.328 . S
N233 C238 1.318 . S
C234 N233 1.328 . S
C234 C235 1.457 . S
C234 H239 0.929 . S
C235 C234 1.457 . S
C235 C236 1.291 . S
C235 H248 0.931 . S
C236 C235 1.291 . S
C236 C237 1.373 . S
C236 H249 0.929 . S
C237 C236 1.373 . S
C237 C238 1.396 . S
C237 C244 1.403 . S
C238 C228 1.476 . S
C238 N233 1.318 . S
C238 C237 1.396 . S
H239 C234 0.929 . S
O240 Mn216 2.385 . S
O240 C218 1.234 . S
O241 Mn216 2.209 . S
O241 Mn217 2.215 . S
O241 C218 1.283 . S
O242 Mn216 2.094 . S
O242 C220 1.240 . S
O243 Mn217 2.117 . S
O243 C220 1.264 . S
C244 C237 1.403 . S
C244 C245 1.399 . S
C244 H250 0.929 . S
C245 C225 1.449 . S
C245 C244 1.399 . S
C245 H251 0.930 . S
H246 C226 0.931 . S
H247 C227 0.930 . S
H248 C235 0.931 . S
H249 C236 0.929 . S
H250 C244 0.929 . S
H251 C245 0.930 . S
Mn252 O257 2.095 . S
Mn252 O267 2.162 . S
Mn252 O268 2.297 . S
Mn252 O276 2.385 . S
Mn252 O277 2.209 . S
Mn252 O278 2.094 . S
Mn253 O258 2.121 . S
Mn253 N260 2.257 . S
Mn253 N269 2.282 . S
Mn253 O277 2.215 . S
Mn253 O279 2.117 . S
C254 O276 1.234 . S
C254 O277 1.283 . S
C255 O267 1.281 . S
C255 O268 1.236 . S
C256 O278 1.240 . S
C256 O279 1.264 . S
O257 Mn252 2.095 . S
O257 C266 1.250 . S
O258 Mn253 2.121 . S
O258 C266 1.258 . S
C259 N260 1.326 . S
C259 C263 1.460 . S
C259 H265 0.929 . S
N260 Mn253 2.257 . S
N260 C259 1.326 . S
N260 C264 1.362 . S
C261 C262 1.258 . S
C261 C264 1.431 . S
C261 C281 1.449 . S
C262 C261 1.258 . S
C262 C263 1.477 . S
C262 H282 0.931 . S
C263 C259 1.460 . S
C263 C262 1.477 . S
C263 H283 0.930 . S
C264 N260 1.362 . S
C264 C261 1.431 . S
C264 C274 1.476 . S
H265 C259 0.929 . S
C266 O257 1.250 . S
C266 O258 1.258 . S
O267 Mn252 2.162 . S
O267 C255 1.281 . S
O268 Mn252 2.297 . S
O268 C255 1.236 . S
N269 Mn253 2.282 . S
N269 C270 1.328 . S
N269 C274 1.318 . S
C270 N269 1.328 . S
C270 C271 1.457 . S
C270 H275 0.929 . S
C271 C270 1.457 . S
C271 C272 1.291 . S
C271 H284 0.931 . S
C272 C271 1.291 . S
C272 C273 1.373 . S
C272 H285 0.929 . S
C273 C272 1.373 . S
C273 C274 1.396 . S
C273 C280 1.403 . S
C274 C264 1.476 . S
C274 N269 1.318 . S
C274 C273 1.396 . S
H275 C270 0.929 . S
O276 Mn252 2.385 . S
O276 C254 1.234 . S
O277 Mn252 2.209 . S
O277 Mn253 2.215 . S
O277 C254 1.283 . S
O278 Mn252 2.094 . S
O278 C256 1.240 . S
O279 Mn253 2.117 . S
O279 C256 1.264 . S
C280 C273 1.403 . S
C280 C281 1.399 . S
C280 H286 0.929 . S
C281 C261 1.449 . S
C281 C280 1.399 . S
C281 H287 0.930 . S
H282 C262 0.931 . S
H283 C263 0.930 . S
H284 C271 0.931 . S
H285 C272 0.929 . S
H286 C280 0.929 . S
H287 C281 0.930 . S
Mn288 O293 2.095 . S
Mn288 O303 2.162 . S
Mn288 O304 2.297 . S
Mn288 O312 2.385 . S
Mn288 O313 2.209 . S
Mn288 O314 2.094 1_554 S
Mn289 O294 2.121 1_556 S
Mn289 N296 2.257 . S
Mn289 N305 2.282 . S
Mn289 O313 2.215 1_556 S
Mn289 O315 2.117 . S
C290 O312 1.234 . S
C290 O313 1.283 . S
C291 O303 1.281 . S
C291 O304 1.236 . S
C292 O314 1.240 . S
C292 O315 1.264 . S
O293 Mn288 2.095 . S
O293 C302 1.250 . S
O294 Mn289 2.121 1_554 S
O294 C302 1.258 . S
C295 N296 1.326 1_554 S
C295 C299 1.460 . S
C295 H301 0.929 . S
N296 Mn289 2.257 . S
N296 C295 1.326 1_556 S
N296 C300 1.362 . S
C297 C298 1.258 1_556 S
C297 C300 1.431 . S
C297 C317 1.449 . S
C298 C297 1.258 1_554 S
C298 C299 1.477 . S
C298 H318 0.931 . S
C299 C295 1.460 . S
C299 C298 1.477 . S
C299 H319 0.930 . S
C300 N296 1.362 . S
C300 C297 1.431 . S
C300 C310 1.476 . S
H301 C295 0.929 . S
C302 O293 1.250 . S
C302 O294 1.258 . S
O303 Mn288 2.162 . S
O303 C291 1.281 . S
O304 Mn288 2.297 . S
O304 C291 1.236 . S
N305 Mn289 2.282 . S
N305 C306 1.328 . S
N305 C310 1.318 . S
C306 N305 1.328 . S
C306 C307 1.457 . S
C306 H311 0.929 . S
C307 C306 1.457 . S
C307 C308 1.291 . S
C307 H320 0.931 . S
C308 C307 1.291 . S
C308 C309 1.373 . S
C308 H321 0.929 . S
C309 C308 1.373 . S
C309 C310 1.396 . S
C309 C316 1.403 . S
C310 C300 1.476 . S
C310 N305 1.318 . S
C310 C309 1.396 . S
H311 C306 0.929 . S
O312 Mn288 2.385 . S
O312 C290 1.234 . S
O313 Mn288 2.209 . S
O313 Mn289 2.215 1_554 S
O313 C290 1.283 . S
O314 Mn288 2.094 1_556 S
O314 C292 1.240 . S
O315 Mn289 2.117 . S
O315 C292 1.264 . S
C316 C309 1.403 . S
C316 C317 1.399 . S
C316 H322 0.929 . S
C317 C297 1.449 . S
C317 C316 1.399 . S
C317 H323 0.930 . S
H318 C298 0.931 . S
H319 C299 0.930 . S
H320 C307 0.931 . S
H321 C308 0.929 . S
H322 C316 0.929 . S
H323 C317 0.930 . S
Mn324 O329 2.095 . S
Mn324 O339 2.162 . S
Mn324 O340 2.297 . S
Mn324 O348 2.385 . S
Mn324 O349 2.209 . S
Mn324 O350 2.094 . S
Mn325 O330 2.121 . S
Mn325 N332 2.257 . S
Mn325 N341 2.282 . S
Mn325 O349 2.215 . S
Mn325 O351 2.117 . S
C326 O348 1.234 . S
C326 O349 1.283 . S
C327 O339 1.281 . S
C327 O340 1.236 . S
C328 O350 1.240 . S
C328 O351 1.264 . S
O329 Mn324 2.095 . S
O329 C338 1.250 . S
O330 Mn325 2.121 . S
O330 C338 1.258 . S
C331 N332 1.326 . S
C331 C335 1.460 . S
C331 H337 0.929 . S
N332 Mn325 2.257 . S
N332 C331 1.326 . S
N332 C336 1.362 . S
C333 C334 1.258 . S
C333 C336 1.431 . S
C333 C353 1.449 . S
C334 C333 1.258 . S
C334 C335 1.477 . S
C334 H354 0.931 . S
C335 C331 1.460 . S
C335 C334 1.477 . S
C335 H355 0.930 . S
C336 N332 1.362 . S
C336 C333 1.431 . S
C336 C346 1.476 . S
H337 C331 0.929 . S
C338 O329 1.250 . S
C338 O330 1.258 . S
O339 Mn324 2.162 . S
O339 C327 1.281 . S
O340 Mn324 2.297 . S
O340 C327 1.236 . S
N341 Mn325 2.282 . S
N341 C342 1.328 . S
N341 C346 1.318 . S
C342 N341 1.328 . S
C342 C343 1.457 . S
C342 H347 0.929 . S
C343 C342 1.457 . S
C343 C344 1.291 . S
C343 H356 0.931 . S
C344 C343 1.291 . S
C344 C345 1.373 . S
C344 H357 0.929 . S
C345 C344 1.373 . S
C345 C346 1.396 . S
C345 C352 1.403 . S
C346 C336 1.476 . S
C346 N341 1.318 . S
C346 C345 1.396 . S
H347 C342 0.929 . S
O348 Mn324 2.385 . S
O348 C326 1.234 . S
O349 Mn324 2.209 . S
O349 Mn325 2.215 . S
O349 C326 1.283 . S
O350 Mn324 2.094 . S
O350 C328 1.240 . S
O351 Mn325 2.117 . S
O351 C328 1.264 . S
C352 C345 1.403 . S
C352 C353 1.399 . S
C352 H358 0.929 . S
C353 C333 1.449 . S
C353 C352 1.399 . S
C353 H359 0.930 . S
H354 C334 0.931 . S
H355 C335 0.930 . S
H356 C343 0.931 . S
H357 C344 0.929 . S
H358 C352 0.929 . S
H359 C353 0.930 . S
Mn360 O365 2.095 . S
Mn360 O375 2.162 . S
Mn360 O376 2.297 . S
Mn360 O384 2.385 . S
Mn360 O385 2.209 . S
Mn360 O386 2.094 . S
Mn361 O366 2.121 . S
Mn361 N368 2.257 . S
Mn361 N377 2.282 . S
Mn361 O385 2.215 . S
Mn361 O387 2.117 . S
C362 O384 1.234 . S
C362 O385 1.283 . S
C363 O375 1.281 . S
C363 O376 1.236 . S
C364 O386 1.240 . S
C364 O387 1.264 . S
O365 Mn360 2.095 . S
O365 C374 1.250 . S
O366 Mn361 2.121 . S
O366 C374 1.258 . S
C367 N368 1.326 . S
C367 C371 1.460 . S
C367 H373 0.929 . S
N368 Mn361 2.257 . S
N368 C367 1.326 . S
N368 C372 1.362 . S
C369 C370 1.258 . S
C369 C372 1.431 . S
C369 C389 1.449 . S
C370 C369 1.258 . S
C370 C371 1.477 . S
C370 H390 0.931 . S
C371 C367 1.460 . S
C371 C370 1.477 . S
C371 H391 0.930 . S
C372 N368 1.362 . S
C372 C369 1.431 . S
C372 C382 1.476 . S
H373 C367 0.929 . S
C374 O365 1.250 . S
C374 O366 1.258 . S
O375 Mn360 2.162 . S
O375 C363 1.281 . S
O376 Mn360 2.297 . S
O376 C363 1.236 . S
N377 Mn361 2.282 . S
N377 C378 1.328 . S
N377 C382 1.318 . S
C378 N377 1.328 . S
C378 C379 1.457 . S
C378 H383 0.929 . S
C379 C378 1.457 . S
C379 C380 1.291 . S
C379 H392 0.931 . S
C380 C379 1.291 . S
C380 C381 1.373 . S
C380 H393 0.929 . S
C381 C380 1.373 . S
C381 C382 1.396 . S
C381 C388 1.403 . S
C382 C372 1.476 . S
C382 N377 1.318 . S
C382 C381 1.396 . S
H383 C378 0.929 . S
O384 Mn360 2.385 . S
O384 C362 1.234 . S
O385 Mn360 2.209 . S
O385 Mn361 2.215 . S
O385 C362 1.283 . S
O386 Mn360 2.094 . S
O386 C364 1.240 . S
O387 Mn361 2.117 . S
O387 C364 1.264 . S
C388 C381 1.403 . S
C388 C389 1.399 . S
C388 H394 0.929 . S
C389 C369 1.449 . S
C389 C388 1.399 . S
C389 H395 0.930 . S
H390 C370 0.931 . S
H391 C371 0.930 . S
H392 C379 0.931 . S
H393 C380 0.929 . S
H394 C388 0.929 . S
H395 C389 0.930 . S
Mn396 O401 2.095 . S
Mn396 O411 2.162 . S
Mn396 O412 2.297 . S
Mn396 O420 2.385 . S
Mn396 O421 2.209 . S
Mn396 O422 2.094 1_554 S
Mn397 O402 2.121 1_556 S
Mn397 N404 2.257 . S
Mn397 N413 2.282 . S
Mn397 O421 2.215 1_556 S
Mn397 O423 2.117 . S
C398 O420 1.234 . S
C398 O421 1.283 . S
C399 O411 1.281 . S
C399 O412 1.236 . S
C400 O422 1.240 . S
C400 O423 1.264 . S
O401 Mn396 2.095 . S
O401 C410 1.250 . S
O402 Mn397 2.121 1_554 S
O402 C410 1.258 . S
C403 N404 1.326 1_554 S
C403 C407 1.460 . S
C403 H409 0.929 . S
N404 Mn397 2.257 . S
N404 C403 1.326 1_556 S
N404 C408 1.362 . S
C405 C406 1.258 1_556 S
C405 C408 1.431 . S
C405 C425 1.449 . S
C406 C405 1.258 1_554 S
C406 C407 1.477 . S
C406 H426 0.931 . S
C407 C403 1.460 . S
C407 C406 1.477 . S
C407 H427 0.930 . S
C408 N404 1.362 . S
C408 C405 1.431 . S
C408 C418 1.476 . S
H409 C403 0.929 . S
C410 O401 1.250 . S
C410 O402 1.258 . S
O411 Mn396 2.162 . S
O411 C399 1.281 . S
O412 Mn396 2.297 . S
O412 C399 1.236 . S
N413 Mn397 2.282 . S
N413 C414 1.328 . S
N413 C418 1.318 . S
C414 N413 1.328 . S
C414 C415 1.457 . S
C414 H419 0.929 . S
C415 C414 1.457 . S
C415 C416 1.291 . S
C415 H428 0.931 . S
C416 C415 1.291 . S
C416 C417 1.373 . S
C416 H429 0.929 . S
C417 C416 1.373 . S
C417 C418 1.396 . S
C417 C424 1.403 . S
C418 C408 1.476 . S
C418 N413 1.318 . S
C418 C417 1.396 . S
H419 C414 0.929 . S
O420 Mn396 2.385 . S
O420 C398 1.234 . S
O421 Mn396 2.209 . S
O421 Mn397 2.215 1_554 S
O421 C398 1.283 . S
O422 Mn396 2.094 1_556 S
O422 C400 1.240 . S
O423 Mn397 2.117 . S
O423 C400 1.264 . S
C424 C417 1.403 . S
C424 C425 1.399 . S
C424 H430 0.929 . S
C425 C405 1.449 . S
C425 C424 1.399 . S
C425 H431 0.930 . S
H426 C406 0.931 . S
H427 C407 0.930 . S
H428 C415 0.931 . S
H429 C416 0.929 . S
H430 C424 0.929 . S
H431 C425 0.930 . S
H432 C444 0.930 . S
H433 C446 0.930 . S
H434 C447 0.930 . S
H435 C451 0.959 . S
H436 C451 0.959 . S
H437 C451 0.961 . S
H438 C452 0.960 . S
H439 C452 0.961 . S
H440 C452 0.959 . S
H441 C455 0.929 . S
H442 C456 0.931 . S
H443 C458 0.930 . S
C444 H432 0.930 . S
C444 C445 1.399 . S
C444 C449 1.399 . S
C445 C444 1.399 . S
C445 C446 1.376 . S
C446 H433 0.930 . S
C446 C445 1.376 . S
C446 C447 1.388 . S
C447 H434 0.930 . S
C447 C446 1.388 . S
C447 C448 1.390 . S
C448 C447 1.390 . S
C448 C449 1.394 . S
C448 C454 1.465 . S
C449 C444 1.399 . S
C449 C448 1.394 . S
C449 C450 1.516 . S
C450 C449 1.516 . S
C450 C451 1.502 . S
C450 C452 1.561 . S
C450 C453 1.526 . S
C451 H435 0.959 . S
C451 H436 0.959 . S
C451 H437 0.961 . S
C451 C450 1.502 . S
C452 H438 0.960 . S
C452 H439 0.961 . S
C452 H440 0.959 . S
C452 C450 1.561 . S
C453 C450 1.526 . S
C453 C454 1.396 . S
C453 C458 1.390 . S
C454 C448 1.465 . S
C454 C453 1.396 . S
C454 C455 1.399 . S
C455 H441 0.929 . S
C455 C454 1.399 . S
C455 C456 1.385 . S
C456 H442 0.931 . S
C456 C455 1.385 . S
C456 C457 1.389 . S
C457 C456 1.389 . S
C457 C458 1.387 . S
C458 H443 0.930 . S
C458 C453 1.390 . S
C458 C457 1.387 . S
H459 C471 0.930 . S
H460 C473 0.930 . S
H461 C474 0.930 . S
H462 C478 0.959 . S
H463 C478 0.959 . S
H464 C478 0.961 . S
H465 C479 0.960 . S
H466 C479 0.961 . S
H467 C479 0.959 . S
H468 C482 0.929 . S
H469 C483 0.931 . S
H470 C485 0.930 . S
C471 H459 0.930 . S
C471 C472 1.399 . S
C471 C476 1.399 . S
C472 C471 1.399 . S
C472 C473 1.376 . S
C473 H460 0.930 . S
C473 C472 1.376 . S
C473 C474 1.388 . S
C474 H461 0.930 . S
C474 C473 1.388 . S
C474 C475 1.390 . S
C475 C474 1.390 . S
C475 C476 1.394 . S
C475 C481 1.465 . S
C476 C471 1.399 . S
C476 C475 1.394 . S
C476 C477 1.516 . S
C477 C476 1.516 . S
C477 C478 1.502 . S
C477 C479 1.561 . S
C477 C480 1.526 . S
C478 H462 0.959 . S
C478 H463 0.959 . S
C478 H464 0.961 . S
C478 C477 1.502 . S
C479 H465 0.960 . S
C479 H466 0.961 . S
C479 H467 0.959 . S
C479 C477 1.561 . S
C480 C477 1.526 . S
C480 C481 1.396 . S
C480 C485 1.390 . S
C481 C475 1.465 . S
C481 C480 1.396 . S
C481 C482 1.399 . S
C482 H468 0.929 . S
C482 C481 1.399 . S
C482 C483 1.385 . S
C483 H469 0.931 . S
C483 C482 1.385 . S
C483 C484 1.389 . S
C484 C483 1.389 . S
C484 C485 1.387 . S
C485 H470 0.930 . S
C485 C480 1.390 . S
C485 C484 1.387 . S
H486 C498 0.930 . S
H487 C500 0.930 . S
H488 C501 0.930 . S
H489 C505 0.959 . S
H490 C505 0.959 . S
H491 C505 0.961 . S
H492 C506 0.960 . S
H493 C506 0.961 . S
H494 C506 0.959 . S
H495 C509 0.929 . S
H496 C510 0.931 . S
H497 C512 0.930 . S
C498 H486 0.930 . S
C498 C499 1.399 . S
C498 C503 1.399 . S
C499 C498 1.399 . S
C499 C500 1.376 . S
C500 H487 0.930 . S
C500 C499 1.376 . S
C500 C501 1.388 . S
C501 H488 0.930 . S
C501 C500 1.388 . S
C501 C502 1.390 . S
C502 C501 1.390 . S
C502 C503 1.394 . S
C502 C508 1.465 . S
C503 C498 1.399 . S
C503 C502 1.394 . S
C503 C504 1.516 . S
C504 C503 1.516 . S
C504 C505 1.502 . S
C504 C506 1.561 . S
C504 C507 1.526 . S
C505 H489 0.959 . S
C505 H490 0.959 . S
C505 H491 0.961 . S
C505 C504 1.502 . S
C506 H492 0.960 . S
C506 H493 0.961 . S
C506 H494 0.959 . S
C506 C504 1.561 . S
C507 C504 1.526 . S
C507 C508 1.396 . S
C507 C512 1.390 . S
C508 C502 1.465 . S
C508 C507 1.396 . S
C508 C509 1.399 . S
C509 H495 0.929 . S
C509 C508 1.399 . S
C509 C510 1.385 . S
C510 H496 0.931 . S
C510 C509 1.385 . S
C510 C511 1.389 . S
C511 C510 1.389 . S
C511 C512 1.387 . S
C512 H497 0.930 . S
C512 C507 1.390 . S
C512 C511 1.387 . S
H513 C525 0.930 . S
H514 C527 0.930 . S
H515 C528 0.930 . S
H516 C532 0.959 . S
H517 C532 0.959 . S
H518 C532 0.961 . S
H519 C533 0.960 . S
H520 C533 0.961 . S
H521 C533 0.959 . S
H522 C536 0.929 . S
H523 C537 0.931 . S
H524 C539 0.930 . S
C525 H513 0.930 . S
C525 C526 1.399 . S
C525 C530 1.399 . S
C526 C525 1.399 . S
C526 C527 1.376 . S
C527 H514 0.930 . S
C527 C526 1.376 . S
C527 C528 1.388 . S
C528 H515 0.930 . S
C528 C527 1.388 . S
C528 C529 1.390 . S
C529 C528 1.390 . S
C529 C530 1.394 . S
C529 C535 1.465 . S
C530 C525 1.399 . S
C530 C529 1.394 . S
C530 C531 1.516 . S
C531 C530 1.516 . S
C531 C532 1.502 . S
C531 C533 1.561 . S
C531 C534 1.526 . S
C532 H516 0.959 . S
C532 H517 0.959 . S
C532 H518 0.961 . S
C532 C531 1.502 . S
C533 H519 0.960 . S
C533 H520 0.961 . S
C533 H521 0.959 . S
C533 C531 1.561 . S
C534 C531 1.526 . S
C534 C535 1.396 . S
C534 C539 1.390 . S
C535 C529 1.465 . S
C535 C534 1.396 . S
C535 C536 1.399 . S
C536 H522 0.929 . S
C536 C535 1.399 . S
C536 C537 1.385 . S
C537 H523 0.931 . S
C537 C536 1.385 . S
C537 C538 1.389 . S
C538 C537 1.389 . S
C538 C539 1.387 . S
C539 H524 0.930 . S
C539 C534 1.390 . S
C539 C538 1.387 . S
H540 C552 0.930 . S
H541 C554 0.930 . S
H542 C555 0.930 . S
H543 C559 0.959 . S
H544 C559 0.959 . S
H545 C559 0.961 . S
H546 C560 0.960 . S
H547 C560 0.961 . S
H548 C560 0.959 . S
H549 C563 0.929 . S
H550 C564 0.931 . S
H551 C566 0.930 . S
C552 H540 0.930 . S
C552 C553 1.399 . S
C552 C557 1.399 . S
C553 C552 1.399 . S
C553 C554 1.376 . S
C554 H541 0.930 . S
C554 C553 1.376 . S
C554 C555 1.388 . S
C555 H542 0.930 . S
C555 C554 1.388 . S
C555 C556 1.390 . S
C556 C555 1.390 . S
C556 C557 1.394 . S
C556 C562 1.465 . S
C557 C552 1.399 . S
C557 C556 1.394 . S
C557 C558 1.516 . S
C558 C557 1.516 . S
C558 C559 1.502 . S
C558 C560 1.561 . S
C558 C561 1.526 . S
C559 H543 0.959 . S
C559 H544 0.959 . S
C559 H545 0.961 . S
C559 C558 1.502 . S
C560 H546 0.960 . S
C560 H547 0.961 . S
C560 H548 0.959 . S
C560 C558 1.561 . S
C561 C558 1.526 . S
C561 C562 1.396 . S
C561 C566 1.390 . S
C562 C556 1.465 . S
C562 C561 1.396 . S
C562 C563 1.399 . S
C563 H549 0.929 . S
C563 C562 1.399 . S
C563 C564 1.385 . S
C564 H550 0.931 . S
C564 C563 1.385 . S
C564 C565 1.389 . S
C565 C564 1.389 . S
C565 C566 1.387 . S
C566 H551 0.930 . S
C566 C561 1.390 . S
C566 C565 1.387 . S
H567 C579 0.930 . S
H568 C581 0.930 . S
H569 C582 0.930 . S
H570 C586 0.959 . S
H571 C586 0.959 . S
H572 C586 0.961 . S
H573 C587 0.960 . S
H574 C587 0.961 . S
H575 C587 0.959 . S
H576 C590 0.929 . S
H577 C591 0.931 . S
H578 C593 0.930 . S
C579 H567 0.930 . S
C579 C580 1.399 . S
C579 C584 1.399 . S
C580 C579 1.399 . S
C580 C581 1.376 . S
C581 H568 0.930 . S
C581 C580 1.376 . S
C581 C582 1.388 . S
C582 H569 0.930 . S
C582 C581 1.388 . S
C582 C583 1.390 . S
C583 C582 1.390 . S
C583 C584 1.394 . S
C583 C589 1.465 . S
C584 C579 1.399 . S
C584 C583 1.394 . S
C584 C585 1.516 . S
C585 C584 1.516 . S
C585 C586 1.502 . S
C585 C587 1.561 . S
C585 C588 1.526 . S
C586 H570 0.959 . S
C586 H571 0.959 . S
C586 H572 0.961 . S
C586 C585 1.502 . S
C587 H573 0.960 . S
C587 H574 0.961 . S
C587 H575 0.959 . S
C587 C585 1.561 . S
C588 C585 1.526 . S
C588 C589 1.396 . S
C588 C593 1.390 . S
C589 C583 1.465 . S
C589 C588 1.396 . S
C589 C590 1.399 . S
C590 H576 0.929 . S
C590 C589 1.399 . S
C590 C591 1.385 . S
C591 H577 0.931 . S
C591 C590 1.385 . S
C591 C592 1.389 . S
C592 C591 1.389 . S
C592 C593 1.387 . S
C593 H578 0.930 . S
C593 C588 1.390 . S
C593 C592 1.387 . S
H594 C606 0.930 . S
H595 C608 0.930 . S
H596 C609 0.930 . S
H597 C613 0.959 . S
H598 C613 0.959 . S
H599 C613 0.961 . S
H600 C614 0.960 . S
H601 C614 0.961 . S
H602 C614 0.959 . S
H603 C617 0.929 . S
H604 C618 0.931 . S
H605 C620 0.930 . S
C606 H594 0.930 . S
C606 C607 1.399 . S
C606 C611 1.399 . S
C607 C606 1.399 . S
C607 C608 1.376 . S
C608 H595 0.930 . S
C608 C607 1.376 . S
C608 C609 1.388 . S
C609 H596 0.930 . S
C609 C608 1.388 . S
C609 C610 1.390 . S
C610 C609 1.390 . S
C610 C611 1.394 . S
C610 C616 1.465 . S
C611 C606 1.399 . S
C611 C610 1.394 . S
C611 C612 1.516 . S
C612 C611 1.516 . S
C612 C613 1.502 . S
C612 C614 1.561 . S
C612 C615 1.526 . S
C613 H597 0.959 . S
C613 H598 0.959 . S
C613 H599 0.961 . S
C613 C612 1.502 . S
C614 H600 0.960 . S
C614 H601 0.961 . S
C614 H602 0.959 . S
C614 C612 1.561 . S
C615 C612 1.526 . S
C615 C616 1.396 . S
C615 C620 1.390 . S
C616 C610 1.465 . S
C616 C615 1.396 . S
C616 C617 1.399 . S
C617 H603 0.929 . S
C617 C616 1.399 . S
C617 C618 1.385 . S
C618 H604 0.931 . S
C618 C617 1.385 . S
C618 C619 1.389 . S
C619 C618 1.389 . S
C619 C620 1.387 . S
C620 H605 0.930 . S
C620 C615 1.390 . S
C620 C619 1.387 . S
H621 C633 0.930 . S
H622 C635 0.930 . S
H623 C636 0.930 . S
H624 C640 0.959 . S
H625 C640 0.959 . S
H626 C640 0.961 . S
H627 C641 0.960 . S
H628 C641 0.961 . S
H629 C641 0.959 . S
H630 C644 0.929 . S
H631 C645 0.931 . S
H632 C647 0.930 . S
C633 H621 0.930 . S
C633 C634 1.399 . S
C633 C638 1.399 . S
C634 C633 1.399 . S
C634 C635 1.376 . S
C635 H622 0.930 . S
C635 C634 1.376 . S
C635 C636 1.388 . S
C636 H623 0.930 . S
C636 C635 1.388 . S
C636 C637 1.390 . S
C637 C636 1.390 . S
C637 C638 1.394 . S
C637 C643 1.465 . S
C638 C633 1.399 . S
C638 C637 1.394 . S
C638 C639 1.516 . S
C639 C638 1.516 . S
C639 C640 1.502 . S
C639 C641 1.561 . S
C639 C642 1.526 . S
C640 H624 0.959 . S
C640 H625 0.959 . S
C640 H626 0.961 . S
C640 C639 1.502 . S
C641 H627 0.960 . S
C641 H628 0.961 . S
C641 H629 0.959 . S
C641 C639 1.561 . S
C642 C639 1.526 . S
C642 C643 1.396 . S
C642 C647 1.390 . S
C643 C637 1.465 . S
C643 C642 1.396 . S
C643 C644 1.399 . S
C644 H630 0.929 . S
C644 C643 1.399 . S
C644 C645 1.385 . S
C645 H631 0.931 . S
C645 C644 1.385 . S
C645 C646 1.389 . S
C646 C645 1.389 . S
C646 C647 1.387 . S
C647 H632 0.930 . S
C647 C642 1.390 . S
C647 C646 1.387 . S
H648 C660 0.930 . S
H649 C662 0.930 . S
H650 C663 0.930 . S
H651 C667 0.959 . S
H652 C667 0.959 . S
H653 C667 0.961 . S
H654 C668 0.960 . S
H655 C668 0.961 . S
H656 C668 0.959 . S
H657 C671 0.929 . S
H658 C672 0.931 . S
H659 C674 0.930 1_554 S
C660 H648 0.930 . S
C660 C661 1.399 . S
C660 C665 1.399 . S
C661 C660 1.399 . S
C661 C662 1.376 1_554 S
C662 H649 0.930 . S
C662 C661 1.376 1_556 S
C662 C663 1.388 . S
C663 H650 0.930 . S
C663 C662 1.388 . S
C663 C664 1.390 . S
C664 C663 1.390 . S
C664 C665 1.394 1_556 S
C664 C670 1.465 . S
C665 C660 1.399 . S
C665 C664 1.394 1_554 S
C665 C666 1.516 . S
C666 C665 1.516 . S
C666 C667 1.502 . S
C666 C668 1.561 1_554 S
C666 C669 1.526 1_554 S
C667 H651 0.959 . S
C667 H652 0.959 . S
C667 H653 0.961 . S
C667 C666 1.502 . S
C668 H654 0.960 . S
C668 H655 0.961 . S
C668 H656 0.959 . S
C668 C666 1.561 1_556 S
C669 C666 1.526 1_556 S
C669 C670 1.396 . S
C669 C674 1.390 . S
C670 C664 1.465 . S
C670 C669 1.396 . S
C670 C671 1.399 . S
C671 H657 0.929 . S
C671 C670 1.399 . S
C671 C672 1.385 . S
C672 H658 0.931 . S
C672 C671 1.385 . S
C672 C673 1.389 . S
C673 C672 1.389 . S
C673 C674 1.387 . S
C674 H659 0.930 1_556 S
C674 C669 1.390 . S
C674 C673 1.387 . S
H675 C687 0.930 . S
H676 C689 0.930 . S
H677 C690 0.930 . S
H678 C694 0.959 . S
H679 C694 0.959 . S
H680 C694 0.961 . S
H681 C695 0.960 . S
H682 C695 0.961 . S
H683 C695 0.959 . S
H684 C698 0.929 . S
H685 C699 0.931 . S
H686 C701 0.930 . S
C687 H675 0.930 . S
C687 C688 1.399 . S
C687 C692 1.399 . S
C688 C687 1.399 . S
C688 C689 1.376 . S
C689 H676 0.930 . S
C689 C688 1.376 . S
C689 C690 1.388 . S
C690 H677 0.930 . S
C690 C689 1.388 . S
C690 C691 1.390 . S
C691 C690 1.390 . S
C691 C692 1.394 . S
C691 C697 1.465 . S
C692 C687 1.399 . S
C692 C691 1.394 . S
C692 C693 1.516 . S
C693 C692 1.516 . S
C693 C694 1.502 . S
C693 C695 1.561 . S
C693 C696 1.526 . S
C694 H678 0.959 . S
C694 H679 0.959 . S
C694 H680 0.961 . S
C694 C693 1.502 . S
C695 H681 0.960 . S
C695 H682 0.961 . S
C695 H683 0.959 . S
C695 C693 1.561 . S
C696 C693 1.526 . S
C696 C697 1.396 . S
C696 C701 1.390 . S
C697 C691 1.465 . S
C697 C696 1.396 . S
C697 C698 1.399 . S
C698 H684 0.929 . S
C698 C697 1.399 . S
C698 C699 1.385 . S
C699 H685 0.931 . S
C699 C698 1.385 . S
C699 C700 1.389 . S
C700 C699 1.389 . S
C700 C701 1.387 . S
C701 H686 0.930 . S
C701 C696 1.390 . S
C701 C700 1.387 . S
H702 C714 0.930 . S
H703 C716 0.930 . S
H704 C717 0.930 . S
H705 C721 0.959 . S
H706 C721 0.959 . S
H707 C721 0.961 . S
H708 C722 0.960 . S
H709 C722 0.961 . S
H710 C722 0.959 . S
H711 C725 0.929 . S
H712 C726 0.931 . S
H713 C728 0.930 . S
C714 H702 0.930 . S
C714 C715 1.399 . S
C714 C719 1.399 . S
C715 C714 1.399 . S
C715 C716 1.376 . S
C716 H703 0.930 . S
C716 C715 1.376 . S
C716 C717 1.388 . S
C717 H704 0.930 . S
C717 C716 1.388 . S
C717 C718 1.390 . S
C718 C717 1.390 . S
C718 C719 1.394 . S
C718 C724 1.465 . S
C719 C714 1.399 . S
C719 C718 1.394 . S
C719 C720 1.516 . S
C720 C719 1.516 . S
C720 C721 1.502 . S
C720 C722 1.561 . S
C720 C723 1.526 . S
C721 H705 0.959 . S
C721 H706 0.959 . S
C721 H707 0.961 . S
C721 C720 1.502 . S
C722 H708 0.960 . S
C722 H709 0.961 . S
C722 H710 0.959 . S
C722 C720 1.561 . S
C723 C720 1.526 . S
C723 C724 1.396 . S
C723 C728 1.390 . S
C724 C718 1.465 . S
C724 C723 1.396 . S
C724 C725 1.399 . S
C725 H711 0.929 . S
C725 C724 1.399 . S
C725 C726 1.385 . S
C726 H712 0.931 . S
C726 C725 1.385 . S
C726 C727 1.389 . S
C727 C726 1.389 . S
C727 C728 1.387 . S
C728 H713 0.930 . S
C728 C723 1.390 . S
C728 C727 1.387 . S
H729 C741 0.930 . S
H730 C743 0.930 . S
H731 C744 0.930 . S
H732 C748 0.959 . S
H733 C748 0.959 . S
H734 C748 0.961 . S
H735 C749 0.960 . S
H736 C749 0.961 . S
H737 C749 0.959 1_554 S
H738 C752 0.929 . S
H739 C753 0.931 . S
H740 C755 0.930 1_556 S
C741 H729 0.930 . S
C741 C742 1.399 . S
C741 C746 1.399 . S
C742 C741 1.399 . S
C742 C743 1.376 1_556 S
C743 H730 0.930 . S
C743 C742 1.376 1_554 S
C743 C744 1.388 . S
C744 H731 0.930 . S
C744 C743 1.388 . S
C744 C745 1.390 . S
C745 C744 1.390 . S
C745 C746 1.394 1_554 S
C745 C751 1.465 . S
C746 C741 1.399 . S
C746 C745 1.394 1_556 S
C746 C747 1.516 . S
C747 C746 1.516 . S
C747 C748 1.502 . S
C747 C749 1.561 . S
C747 C750 1.536 . S
C748 H732 0.959 . S
C748 H733 0.959 . S
C748 H734 0.961 . S
C748 C747 1.502 . S
C749 H735 0.960 . S
C749 H736 0.961 . S
C749 H737 0.959 1_556 S
C749 C747 1.561 . S
C750 C747 1.536 . S
C750 C751 1.386 1_556 S
C750 C755 1.388 1_556 S
C751 C745 1.465 . S
C751 C750 1.386 1_554 S
C751 C752 1.399 . S
C752 H738 0.929 . S
C752 C751 1.399 . S
C752 C753 1.385 . S
C753 H739 0.931 . S
C753 C752 1.385 . S
C753 C754 1.389 . S
C754 C753 1.389 . S
C754 C755 1.387 . S
C755 H740 0.930 1_554 S
C755 C750 1.388 1_554 S
C755 C754 1.387 . S
H756 C768 0.930 . S
H757 C770 0.930 . S
H758 C771 0.930 . S
H759 C775 0.959 . S
H760 C775 0.959 1_565 S
H761 C775 0.961 . S
H762 C776 0.960 1_545 S
H763 C776 0.961 . S
H764 C776 0.959 . S
H765 C779 0.929 . S
H766 C780 0.931 . S
H767 C782 0.930 . S
C768 H756 0.930 . S
C768 C769 1.399 . S
C768 C773 1.399 . S
C769 C768 1.399 . S
C769 C770 1.376 . S
C770 H757 0.930 . S
C770 C769 1.376 . S
C770 C771 1.388 . S
C771 H758 0.930 . S
C771 C770 1.388 . S
C771 C772 1.390 . S
C772 C771 1.390 . S
C772 C773 1.394 . S
C772 C778 1.465 1_545 S
C773 C768 1.399 . S
C773 C772 1.394 . S
C773 C774 1.516 . S
C774 C773 1.516 . S
C774 C775 1.502 . S
C774 C776 1.561 1_545 S
C774 C777 1.526 1_545 S
C775 H759 0.959 . S
C775 H760 0.959 1_545 S
C775 H761 0.961 . S
C775 C774 1.502 . S
C776 H762 0.960 1_565 S
C776 H763 0.961 . S
C776 H764 0.959 . S
C776 C774 1.561 1_565 S
C777 C774 1.526 1_565 S
C777 C778 1.396 . S
C777 C782 1.390 . S
C778 C772 1.465 1_565 S
C778 C777 1.396 . S
C778 C779 1.399 . S
C779 H765 0.929 . S
C779 C778 1.399 . S
C779 C780 1.385 . S
C780 H766 0.931 . S
C780 C779 1.385 . S
C780 C781 1.389 . S
C781 C780 1.389 . S
C781 C782 1.387 . S
C782 H767 0.930 . S
C782 C777 1.390 . S
C782 C781 1.387 . S
H783 C795 0.930 . S
H784 C797 0.930 . S
H785 C798 0.930 . S
H786 C802 0.959 . S
H787 C802 0.959 . S
H788 C802 0.961 . S
H789 C803 0.960 . S
H790 C803 0.961 . S
H791 C803 0.959 . S
H792 C806 0.929 . S
H793 C807 0.931 . S
H794 C809 0.930 . S
C795 H783 0.930 . S
C795 C796 1.399 . S
C795 C800 1.399 . S
C796 C795 1.399 . S
C796 C797 1.376 . S
C797 H784 0.930 . S
C797 C796 1.376 . S
C797 C798 1.388 . S
C798 H785 0.930 . S
C798 C797 1.388 . S
C798 C799 1.390 . S
C799 C798 1.390 . S
C799 C800 1.394 . S
C799 C805 1.465 . S
C800 C795 1.399 . S
C800 C799 1.394 . S
C800 C801 1.516 . S
C801 C800 1.516 . S
C801 C802 1.502 . S
C801 C803 1.561 . S
C801 C804 1.526 . S
C802 H786 0.959 . S
C802 H787 0.959 . S
C802 H788 0.961 . S
C802 C801 1.502 . S
C803 H789 0.960 . S
C803 H790 0.961 . S
C803 H791 0.959 . S
C803 C801 1.561 . S
C804 C801 1.526 . S
C804 C805 1.396 . S
C804 C809 1.390 . S
C805 C799 1.465 . S
C805 C804 1.396 . S
C805 C806 1.399 . S
C806 H792 0.929 . S
C806 C805 1.399 . S
C806 C807 1.385 . S
C807 H793 0.931 . S
C807 C806 1.385 . S
C807 C808 1.389 . S
C808 C807 1.389 . S
C808 C809 1.387 . S
C809 H794 0.930 . S
C809 C804 1.390 . S
C809 C808 1.387 . S
H810 C822 0.930 1_554 S
H811 C824 0.930 . S
H812 C825 0.930 . S
H813 C829 0.959 . S
H814 C829 0.959 1_455 S
H815 C829 0.961 . S
H816 C830 0.960 1_655 S
H817 C830 0.961 . S
H818 C830 0.959 . S
H819 C833 0.929 . S
H820 C834 0.931 . S
H821 C836 0.930 1_554 S
C822 H810 0.930 1_556 S
C822 C823 1.399 . S
C822 C827 1.399 . S
C823 C822 1.399 . S
C823 C824 1.376 . S
C824 H811 0.930 . S
C824 C823 1.376 . S
C824 C825 1.388 . S
C825 H812 0.930 . S
C825 C824 1.388 . S
C825 C826 1.390 . S
C826 C825 1.390 . S
C826 C827 1.394 . S
C826 C832 1.465 1_655 S
C827 C822 1.399 . S
C827 C826 1.394 . S
C827 C828 1.516 1_556 S
C828 C827 1.516 1_554 S
C828 C829 1.502 . S
C828 C830 1.561 1_655 S
C828 C831 1.526 1_654 S
C829 H813 0.959 . S
C829 H814 0.959 1_655 S
C829 H815 0.961 . S
C829 C828 1.502 . S
C830 H816 0.960 1_455 S
C830 H817 0.961 . S
C830 H818 0.959 . S
C830 C828 1.561 1_455 S
C831 C828 1.526 1_456 S
C831 C832 1.396 . S
C831 C836 1.390 . S
C832 C826 1.465 1_455 S
C832 C831 1.396 . S
C832 C833 1.399 . S
C833 H819 0.929 . S
C833 C832 1.399 . S
C833 C834 1.385 . S
C834 H820 0.931 . S
C834 C833 1.385 . S
C834 C835 1.389 . S
C835 C834 1.389 . S
C835 C836 1.387 . S
C836 H821 0.930 1_556 S
C836 C831 1.390 . S
C836 C835 1.387 . S
H837 C849 0.930 . S
H838 C851 0.930 . S
H839 C852 0.930 . S
H840 C856 0.959 . S
H841 C856 0.959 1_655 S
H842 C856 0.961 . S
H843 C857 0.960 1_455 S
H844 C857 0.961 . S
H845 C857 0.959 . S
H846 C860 0.929 . S
H847 C861 0.931 . S
H848 C863 0.930 . S
C849 H837 0.930 . S
C849 C850 1.399 . S
C849 C854 1.399 . S
C850 C849 1.399 . S
C850 C851 1.376 . S
C851 H838 0.930 . S
C851 C850 1.376 . S
C851 C852 1.388 . S
C852 H839 0.930 . S
C852 C851 1.388 . S
C852 C853 1.390 . S
C853 C852 1.390 . S
C853 C854 1.394 . S
C853 C859 1.465 1_455 S
C854 C849 1.399 . S
C854 C853 1.394 . S
C854 C855 1.516 . S
C855 C854 1.516 . S
C855 C856 1.502 . S
C855 C857 1.561 1_455 S
C855 C858 1.526 1_455 S
C856 H840 0.959 . S
C856 H841 0.959 1_455 S
C856 H842 0.961 . S
C856 C855 1.502 . S
C857 H843 0.960 1_655 S
C857 H844 0.961 . S
C857 H845 0.959 . S
C857 C855 1.561 1_655 S
C858 C855 1.526 1_655 S
C858 C859 1.396 . S
C858 C863 1.390 . S
C859 C853 1.465 1_655 S
C859 C858 1.396 . S
C859 C860 1.399 . S
C860 H846 0.929 . S
C860 C859 1.399 . S
C860 C861 1.385 . S
C861 H847 0.931 . S
C861 C860 1.385 . S
C861 C862 1.389 . S
C862 C861 1.389 . S
C862 C863 1.387 . S
C863 H848 0.930 . S
C863 C858 1.390 . S
C863 C862 1.387 . S
H864 C876 0.930 . S
H865 C878 0.930 . S
H866 C879 0.930 . S
H867 C883 0.959 . S
H868 C883 0.959 . S
H869 C883 0.961 . S
H870 C884 0.960 1_545 S
H871 C884 0.961 . S
H872 C884 0.959 . S
H873 C887 0.929 . S
H874 C888 0.931 . S
H875 C890 0.930 . S
C876 H864 0.930 . S
C876 C877 1.399 . S
C876 C881 1.399 . S
C877 C876 1.399 . S
C877 C878 1.376 . S
C878 H865 0.930 . S
C878 C877 1.376 . S
C878 C879 1.388 . S
C879 H866 0.930 . S
C879 C878 1.388 . S
C879 C880 1.390 . S
C880 C879 1.390 . S
C880 C881 1.394 . S
C880 C886 1.465 1_545 S
C881 C876 1.399 . S
C881 C880 1.394 . S
C881 C882 1.516 1_545 S
C882 C881 1.516 1_565 S
C882 C883 1.502 . S
C882 C884 1.561 . S
C882 C885 1.526 . S
C883 H867 0.959 . S
C883 H868 0.959 . S
C883 H869 0.961 . S
C883 C882 1.502 . S
C884 H870 0.960 1_565 S
C884 H871 0.961 . S
C884 H872 0.959 . S
C884 C882 1.561 . S
C885 C882 1.526 . S
C885 C886 1.396 . S
C885 C890 1.390 . S
C886 C880 1.465 1_565 S
C886 C885 1.396 . S
C886 C887 1.399 . S
C887 H873 0.929 . S
C887 C886 1.399 . S
C887 C888 1.385 . S
C888 H874 0.931 . S
C888 C887 1.385 . S
C888 C889 1.389 . S
C889 C888 1.389 . S
C889 C890 1.387 . S
C890 H875 0.930 . S
C890 C885 1.390 . S
C890 C889 1.387 . S
H891 C903 0.930 . S
H892 C905 0.930 . S
H893 C906 0.930 . S
H894 C910 0.959 . S
H895 C910 0.959 . S
H896 C910 0.961 . S
H897 C911 0.960 . S
H898 C911 0.961 . S
H899 C911 0.959 . S
H900 C914 0.929 . S
H901 C915 0.931 . S
H902 C917 0.930 . S
C903 H891 0.930 . S
C903 C904 1.399 . S
C903 C908 1.399 . S
C904 C903 1.399 . S
C904 C905 1.376 1_554 S
C905 H892 0.930 . S
C905 C904 1.376 1_556 S
C905 C906 1.388 . S
C906 H893 0.930 . S
C906 C905 1.388 . S
C906 C907 1.390 1_556 S
C907 C906 1.390 1_554 S
C907 C908 1.394 . S
C907 C913 1.465 . S
C908 C903 1.399 . S
C908 C907 1.394 . S
C908 C909 1.516 . S
C909 C908 1.516 . S
C909 C910 1.502 . S
C909 C911 1.561 . S
C909 C912 1.526 . S
C910 H894 0.959 . S
C910 H895 0.959 . S
C910 H896 0.961 . S
C910 C909 1.502 . S
C911 H897 0.960 . S
C911 H898 0.961 . S
C911 H899 0.959 . S
C911 C909 1.561 . S
C912 C909 1.526 . S
C912 C913 1.396 . S
C912 C917 1.390 . S
C913 C907 1.465 . S
C913 C912 1.396 . S
C913 C914 1.399 1_554 S
C914 H900 0.929 . S
C914 C913 1.399 1_556 S
C914 C915 1.385 . S
C915 H901 0.931 . S
C915 C914 1.385 . S
C915 C916 1.389 1_556 S
C916 C915 1.389 1_554 S
C916 C917 1.387 . S
C917 H902 0.930 . S
C917 C912 1.390 . S
C917 C916 1.387 . S
H918 C930 0.930 . S
H919 C932 0.930 . S
H920 C933 0.930 . S
H921 C937 0.959 . S
H922 C937 0.959 . S
H923 C937 0.961 . S
H924 C938 0.960 . S
H925 C938 0.961 . S
H926 C938 0.959 . S
H927 C941 0.929 . S
H928 C942 0.931 . S
H929 C944 0.930 . S
C930 H918 0.930 . S
C930 C931 1.399 . S
C930 C935 1.399 . S
C931 C930 1.399 . S
C931 C932 1.376 . S
C932 H919 0.930 . S
C932 C931 1.376 . S
C932 C933 1.388 . S
C933 H920 0.930 . S
C933 C932 1.388 . S
C933 C934 1.390 . S
C934 C933 1.390 . S
C934 C935 1.394 . S
C934 C940 1.465 . S
C935 C930 1.399 . S
C935 C934 1.394 . S
C935 C936 1.516 . S
C936 C935 1.516 . S
C936 C937 1.502 . S
C936 C938 1.561 . S
C936 C939 1.526 . S
C937 H921 0.959 . S
C937 H922 0.959 . S
C937 H923 0.961 . S
C937 C936 1.502 . S
C938 H924 0.960 . S
C938 H925 0.961 . S
C938 H926 0.959 . S
C938 C936 1.561 . S
C939 C936 1.526 . S
C939 C940 1.396 . S
C939 C944 1.390 . S
C940 C934 1.465 . S
C940 C939 1.396 . S
C940 C941 1.399 . S
C941 H927 0.929 . S
C941 C940 1.399 . S
C941 C942 1.385 . S
C942 H928 0.931 . S
C942 C941 1.385 . S
C942 C943 1.389 . S
C943 C942 1.389 . S
C943 C944 1.387 . S
C944 H929 0.930 . S
C944 C939 1.390 . S
C944 C943 1.387 . S
H945 C957 0.930 . S
H946 C959 0.930 . S
H947 C960 0.930 . S
H948 C964 0.959 . S
H949 C964 0.959 . S
H950 C964 0.961 . S
H951 C965 0.960 . S
H952 C965 0.961 . S
H953 C965 0.959 . S
H954 C968 0.929 . S
H955 C969 0.931 . S
H956 C971 0.930 . S
C957 H945 0.930 . S
C957 C958 1.399 . S
C957 C962 1.399 . S
C958 C957 1.399 . S
C958 C959 1.376 . S
C959 H946 0.930 . S
C959 C958 1.376 . S
C959 C960 1.388 . S
C960 H947 0.930 . S
C960 C959 1.388 . S
C960 C961 1.390 . S
C961 C960 1.390 . S
C961 C962 1.394 . S
C961 C967 1.465 . S
C962 C957 1.399 . S
C962 C961 1.394 . S
C962 C963 1.516 . S
C963 C962 1.516 . S
C963 C964 1.502 . S
C963 C965 1.561 . S
C963 C966 1.526 . S
C964 H948 0.959 . S
C964 H949 0.959 . S
C964 H950 0.961 . S
C964 C963 1.502 . S
C965 H951 0.960 . S
C965 H952 0.961 . S
C965 H953 0.959 . S
C965 C963 1.561 . S
C966 C963 1.526 . S
C966 C967 1.396 . S
C966 C971 1.390 . S
C967 C961 1.465 . S
C967 C966 1.396 . S
C967 C968 1.399 . S
C968 H954 0.929 . S
C968 C967 1.399 . S
C968 C969 1.385 . S
C969 H955 0.931 . S
C969 C968 1.385 . S
C969 C970 1.389 . S
C970 C969 1.389 . S
C970 C971 1.387 . S
C971 H956 0.930 . S
C971 C966 1.390 . S
C971 C970 1.387 . S
H972 C984 0.930 . S
H973 C986 0.930 . S
H974 C987 0.930 . S
H975 C991 0.959 . S
H976 C991 0.959 . S
H977 C991 0.961 . S
H978 C992 0.960 . S
H979 C992 0.961 . S
H980 C992 0.959 . S
H981 C995 0.929 . S
H982 C996 0.931 . S
H983 C998 0.930 . S
C984 H972 0.930 . S
C984 C985 1.399 . S
C984 C989 1.399 . S
C985 C984 1.399 . S
C985 C986 1.376 . S
C986 H973 0.930 . S
C986 C985 1.376 . S
C986 C987 1.388 . S
C987 H974 0.930 . S
C987 C986 1.388 . S
C987 C988 1.390 . S
C988 C987 1.390 . S
C988 C989 1.394 . S
C988 C994 1.465 . S
C989 C984 1.399 . S
C989 C988 1.394 . S
C989 C990 1.516 . S
C990 C989 1.516 . S
C990 C991 1.502 . S
C990 C992 1.561 . S
C990 C993 1.526 . S
C991 H975 0.959 . S
C991 H976 0.959 . S
C991 H977 0.961 . S
C991 C990 1.502 . S
C992 H978 0.960 . S
C992 H979 0.961 . S
C992 H980 0.959 . S
C992 C990 1.561 . S
C993 C990 1.526 . S
C993 C994 1.396 . S
C993 C998 1.390 . S
C994 C988 1.465 . S
C994 C993 1.396 . S
C994 C995 1.399 . S
C995 H981 0.929 . S
C995 C994 1.399 . S
C995 C996 1.385 . S
C996 H982 0.931 . S
C996 C995 1.385 . S
C996 C997 1.389 . S
C997 C996 1.389 . S
C997 C998 1.387 . S
C998 H983 0.930 . S
C998 C993 1.390 . S
C998 C997 1.387 . S
H999 C1011 0.930 . S
H1000 C1013 0.930 . S
H1001 C1014 0.930 . S
H1002 C1018 0.959 . S
H1003 C1018 0.959 . S
H1004 C1018 0.961 . S
H1005 C1019 0.960 . S
H1006 C1019 0.961 . S
H1007 C1019 0.959 . S
H1008 C1022 0.929 . S
H1009 C1023 0.931 . S
H1010 C1025 0.930 . S
C1011 H999 0.930 . S
C1011 C1012 1.399 . S
C1011 C1016 1.399 . S
C1012 C1011 1.399 . S
C1012 C1013 1.376 . S
C1013 H1000 0.930 . S
C1013 C1012 1.376 . S
C1013 C1014 1.388 . S
C1014 H1001 0.930 . S
C1014 C1013 1.388 . S
C1014 C1015 1.390 . S
C1015 C1014 1.390 . S
C1015 C1016 1.394 . S
C1015 C1021 1.465 . S
C1016 C1011 1.399 . S
C1016 C1015 1.394 . S
C1016 C1017 1.516 . S
C1017 C1016 1.516 . S
C1017 C1018 1.502 . S
C1017 C1019 1.561 . S
C1017 C1020 1.526 . S
C1018 H1002 0.959 . S
C1018 H1003 0.959 . S
C1018 H1004 0.961 . S
C1018 C1017 1.502 . S
C1019 H1005 0.960 . S
C1019 H1006 0.961 . S
C1019 H1007 0.959 . S
C1019 C1017 1.561 . S
C1020 C1017 1.526 . S
C1020 C1021 1.396 . S
C1020 C1025 1.390 . S
C1021 C1015 1.465 . S
C1021 C1020 1.396 . S
C1021 C1022 1.399 . S
C1022 H1008 0.929 . S
C1022 C1021 1.399 . S
C1022 C1023 1.385 . S
C1023 H1009 0.931 . S
C1023 C1022 1.385 . S
C1023 C1024 1.389 . S
C1024 C1023 1.389 . S
C1024 C1025 1.387 . S
C1025 H1010 0.930 . S
C1025 C1020 1.390 . S
C1025 C1024 1.387 . S
H1026 C1038 0.930 . S
H1027 C1040 0.930 . S
H1028 C1041 0.930 . S
H1029 C1045 0.959 . S
H1030 C1045 0.959 . S
H1031 C1045 0.961 . S
H1032 C1046 0.960 . S
H1033 C1046 0.961 . S
H1034 C1046 0.959 . S
H1035 C1049 0.929 . S
H1036 C1050 0.931 . S
H1037 C1052 0.930 . S
C1038 H1026 0.930 . S
C1038 C1039 1.399 . S
C1038 C1043 1.399 . S
C1039 C1038 1.399 . S
C1039 C1040 1.376 . S
C1040 H1027 0.930 . S
C1040 C1039 1.376 . S
C1040 C1041 1.388 . S
C1041 H1028 0.930 . S
C1041 C1040 1.388 . S
C1041 C1042 1.390 . S
C1042 C1041 1.390 . S
C1042 C1043 1.394 . S
C1042 C1048 1.465 . S
C1043 C1038 1.399 . S
C1043 C1042 1.394 . S
C1043 C1044 1.516 . S
C1044 C1043 1.516 . S
C1044 C1045 1.502 . S
C1044 C1046 1.561 . S
C1044 C1047 1.526 . S
C1045 H1029 0.959 . S
C1045 H1030 0.959 . S
C1045 H1031 0.961 . S
C1045 C1044 1.502 . S
C1046 H1032 0.960 . S
C1046 H1033 0.961 . S
C1046 H1034 0.959 . S
C1046 C1044 1.561 . S
C1047 C1044 1.526 . S
C1047 C1048 1.396 . S
C1047 C1052 1.390 . S
C1048 C1042 1.465 . S
C1048 C1047 1.396 . S
C1048 C1049 1.399 . S
C1049 H1035 0.929 . S
C1049 C1048 1.399 . S
C1049 C1050 1.385 . S
C1050 H1036 0.931 . S
C1050 C1049 1.385 . S
C1050 C1051 1.389 . S
C1051 C1050 1.389 . S
C1051 C1052 1.387 . S
C1052 H1037 0.930 . S
C1052 C1047 1.390 . S
C1052 C1051 1.387 . S
H1053 C1065 0.930 . S
H1054 C1067 0.930 . S
H1055 C1068 0.930 . S
H1056 C1072 0.959 . S
H1057 C1072 0.959 . S
H1058 C1072 0.961 . S
H1059 C1073 0.960 . S
H1060 C1073 0.961 . S
H1061 C1073 0.959 . S
H1062 C1076 0.929 . S
H1063 C1077 0.931 . S
H1064 C1079 0.930 . S
C1065 H1053 0.930 . S
C1065 C1066 1.399 . S
C1065 C1070 1.399 . S
C1066 C1065 1.399 . S
C1066 C1067 1.376 . S
C1067 H1054 0.930 . S
C1067 C1066 1.376 . S
C1067 C1068 1.388 . S
C1068 H1055 0.930 . S
C1068 C1067 1.388 . S
C1068 C1069 1.390 . S
C1069 C1068 1.390 . S
C1069 C1070 1.394 . S
C1069 C1075 1.465 . S
C1070 C1065 1.399 . S
C1070 C1069 1.394 . S
C1070 C1071 1.516 . S
C1071 C1070 1.516 . S
C1071 C1072 1.502 . S
C1071 C1073 1.561 . S
C1071 C1074 1.526 . S
C1072 H1056 0.959 . S
C1072 H1057 0.959 . S
C1072 H1058 0.961 . S
C1072 C1071 1.502 . S
C1073 H1059 0.960 . S
C1073 H1060 0.961 . S
C1073 H1061 0.959 . S
C1073 C1071 1.561 . S
C1074 C1071 1.526 . S
C1074 C1075 1.396 . S
C1074 C1079 1.390 . S
C1075 C1069 1.465 . S
C1075 C1074 1.396 . S
C1075 C1076 1.399 . S
C1076 H1062 0.929 . S
C1076 C1075 1.399 . S
C1076 C1077 1.385 . S
C1077 H1063 0.931 . S
C1077 C1076 1.385 . S
C1077 C1078 1.389 . S
C1078 C1077 1.389 . S
C1078 C1079 1.387 . S
C1079 H1064 0.930 . S
C1079 C1074 1.390 . S
C1079 C1078 1.387 . S
C445 C4 1.570 . S
C457 C364 1.502 . S
C472 C40 1.581 . S
C484 C400 1.480 . S
C499 C220 1.464 . S
C511 C76 1.579 . S
C526 C112 1.567 . S
C538 C256 1.506 . S
C553 C292 1.555 . S
C565 C148 1.522 . S
C580 C328 1.577 . S
C592 C184 1.465 . S
C607 C218 0.424 . S
C619 C2 0.378 . S
C634 C254 0.348 . S
C646 C38 0.520 . S
C661 C290 0.466 . S
C673 C74 0.573 . S
C688 C110 0.527 . S
C700 C326 0.352 . S
C715 C146 0.563 . S
C727 C362 0.504 . S
C742 C182 0.446 . S
C754 C398 0.574 . S
C769 C14 1.274 . S
C781 C122 1.256 . S
C796 C50 1.276 . S
C808 C158 1.267 . S
C823 C86 1.271 . S
C835 C194 1.248 . S
C850 C338 1.274 . S
C862 C230 1.255 . S
C877 C374 1.193 . S
C889 C266 1.230 . S
C904 C410 1.163 . S
C916 C302 1.186 . S
C931 C3 1.530 . S
C943 C291 1.515 . S
C958 C327 1.513 . S
C970 C39 1.506 . S
C985 C75 1.504 . S
C997 C363 1.510 . S
C1012 C399 1.504 . S
C1024 C111 1.512 . S
C1039 C147 1.544 . S
C1051 C219 1.555 . S
C1066 C183 1.558 . S
C1078 C255 1.551 . S
