# Generated by pormake.
# Topology sod-f, (3)-cn, num edge types: 1
# Building blocks:
#     Node 0, Type 0, BuildingBlock: OLANEW_clean_sbu_2, # of connection points: 3
#     Node 1, Type 0, BuildingBlock: OLANEW_clean_sbu_2, # of connection points: 3
#     Node 2, Type 0, BuildingBlock: OLANEW_clean_sbu_2, # of connection points: 3
#     Node 3, Type 0, BuildingBlock: OLANEW_clean_sbu_2, # of connection points: 3
#     Node 4, Type 0, BuildingBlock: OLANEW_clean_sbu_2, # of connection points: 3
#     Node 5, Type 0, BuildingBlock: OLANEW_clean_sbu_2, # of connection points: 3
#     Node 6, Type 0, BuildingBlock: OLANEW_clean_sbu_2, # of connection points: 3
#     Node 7, Type 0, BuildingBlock: OLANEW_clean_sbu_2, # of connection points: 3
#     Node 8, Type 0, BuildingBlock: OLANEW_clean_sbu_2, # of connection points: 3
#     Node 9, Type 0, BuildingBlock: OLANEW_clean_sbu_2, # of connection points: 3
#     Node 10, Type 0, BuildingBlock: OLANEW_clean_sbu_2, # of connection points: 3
#     Node 11, Type 0, BuildingBlock: OLANEW_clean_sbu_2, # of connection points: 3
#     Node 12, Type 0, BuildingBlock: OLANEW_clean_sbu_2, # of connection points: 3
#     Node 13, Type 0, BuildingBlock: OLANEW_clean_sbu_2, # of connection points: 3
#     Node 14, Type 0, BuildingBlock: OLANEW_clean_sbu_2, # of connection points: 3
#     Node 15, Type 0, BuildingBlock: OLANEW_clean_sbu_2, # of connection points: 3
#     Node 16, Type 0, BuildingBlock: OLANEW_clean_sbu_2, # of connection points: 3
#     Node 17, Type 0, BuildingBlock: OLANEW_clean_sbu_2, # of connection points: 3
#     Node 18, Type 0, BuildingBlock: OLANEW_clean_sbu_2, # of connection points: 3
#     Node 19, Type 0, BuildingBlock: OLANEW_clean_sbu_2, # of connection points: 3
#     Node 20, Type 0, BuildingBlock: OLANEW_clean_sbu_2, # of connection points: 3
#     Node 21, Type 0, BuildingBlock: OLANEW_clean_sbu_2, # of connection points: 3
#     Node 22, Type 0, BuildingBlock: OLANEW_clean_sbu_2, # of connection points: 3
#     Node 23, Type 0, BuildingBlock: OLANEW_clean_sbu_2, # of connection points: 3
#     Node 24, Type 0, BuildingBlock: OLANEW_clean_sbu_2, # of connection points: 3
#     Node 25, Type 0, BuildingBlock: OLANEW_clean_sbu_2, # of connection points: 3
#     Node 26, Type 0, BuildingBlock: OLANEW_clean_sbu_2, # of connection points: 3
#     Node 27, Type 0, BuildingBlock: OLANEW_clean_sbu_2, # of connection points: 3
#     Node 28, Type 0, BuildingBlock: OLANEW_clean_sbu_2, # of connection points: 3
#     Node 29, Type 0, BuildingBlock: OLANEW_clean_sbu_2, # of connection points: 3
#     Node 30, Type 0, BuildingBlock: OLANEW_clean_sbu_2, # of connection points: 3
#     Node 31, Type 0, BuildingBlock: OLANEW_clean_sbu_2, # of connection points: 3
#     Node 32, Type 0, BuildingBlock: OLANEW_clean_sbu_2, # of connection points: 3
#     Node 33, Type 0, BuildingBlock: OLANEW_clean_sbu_2, # of connection points: 3
#     Node 34, Type 0, BuildingBlock: OLANEW_clean_sbu_2, # of connection points: 3
#     Node 35, Type 0, BuildingBlock: OLANEW_clean_sbu_2, # of connection points: 3
#     Node 36, Type 0, BuildingBlock: OLANEW_clean_sbu_2, # of connection points: 3
#     Node 37, Type 0, BuildingBlock: OLANEW_clean_sbu_2, # of connection points: 3
#     Node 38, Type 0, BuildingBlock: OLANEW_clean_sbu_2, # of connection points: 3
#     Node 39, Type 0, BuildingBlock: OLANEW_clean_sbu_2, # of connection points: 3
#     Node 40, Type 0, BuildingBlock: OLANEW_clean_sbu_2, # of connection points: 3
#     Node 41, Type 0, BuildingBlock: OLANEW_clean_sbu_2, # of connection points: 3
#     Node 42, Type 0, BuildingBlock: OLANEW_clean_sbu_2, # of connection points: 3
#     Node 43, Type 0, BuildingBlock: OLANEW_clean_sbu_2, # of connection points: 3
#     Node 44, Type 0, BuildingBlock: OLANEW_clean_sbu_2, # of connection points: 3
#     Node 45, Type 0, BuildingBlock: OLANEW_clean_sbu_2, # of connection points: 3
#     Node 46, Type 0, BuildingBlock: OLANEW_clean_sbu_2, # of connection points: 3
#     Node 47, Type 0, BuildingBlock: OLANEW_clean_sbu_2, # of connection points: 3
#     Edge 48, Type (0, 0), BuildingBlock: KIFKEQ_clean_linker_1, # of connection points: 2
#     Edge 49, Type (0, 0), BuildingBlock: KIFKEQ_clean_linker_1, # of connection points: 2
#     Edge 50, Type (0, 0), BuildingBlock: KIFKEQ_clean_linker_1, # of connection points: 2
#     Edge 51, Type (0, 0), BuildingBlock: KIFKEQ_clean_linker_1, # of connection points: 2
#     Edge 52, Type (0, 0), BuildingBlock: KIFKEQ_clean_linker_1, # of connection points: 2
#     Edge 53, Type (0, 0), BuildingBlock: KIFKEQ_clean_linker_1, # of connection points: 2
#     Edge 54, Type (0, 0), BuildingBlock: KIFKEQ_clean_linker_1, # of connection points: 2
#     Edge 55, Type (0, 0), BuildingBlock: KIFKEQ_clean_linker_1, # of connection points: 2
#     Edge 56, Type (0, 0), BuildingBlock: KIFKEQ_clean_linker_1, # of connection points: 2
#     Edge 57, Type (0, 0), BuildingBlock: KIFKEQ_clean_linker_1, # of connection points: 2
#     Edge 58, Type (0, 0), BuildingBlock: KIFKEQ_clean_linker_1, # of connection points: 2
#     Edge 59, Type (0, 0), BuildingBlock: KIFKEQ_clean_linker_1, # of connection points: 2
#     Edge 60, Type (0, 0), BuildingBlock: KIFKEQ_clean_linker_1, # of connection points: 2
#     Edge 61, Type (0, 0), BuildingBlock: KIFKEQ_clean_linker_1, # of connection points: 2
#     Edge 62, Type (0, 0), BuildingBlock: KIFKEQ_clean_linker_1, # of connection points: 2
#     Edge 63, Type (0, 0), BuildingBlock: KIFKEQ_clean_linker_1, # of connection points: 2
#     Edge 64, Type (0, 0), BuildingBlock: KIFKEQ_clean_linker_1, # of connection points: 2
#     Edge 65, Type (0, 0), BuildingBlock: KIFKEQ_clean_linker_1, # of connection points: 2
#     Edge 66, Type (0, 0), BuildingBlock: KIFKEQ_clean_linker_1, # of connection points: 2
#     Edge 67, Type (0, 0), BuildingBlock: KIFKEQ_clean_linker_1, # of connection points: 2
#     Edge 68, Type (0, 0), BuildingBlock: KIFKEQ_clean_linker_1, # of connection points: 2
#     Edge 69, Type (0, 0), BuildingBlock: KIFKEQ_clean_linker_1, # of connection points: 2
#     Edge 70, Type (0, 0), BuildingBlock: KIFKEQ_clean_linker_1, # of connection points: 2
#     Edge 71, Type (0, 0), BuildingBlock: KIFKEQ_clean_linker_1, # of connection points: 2
#     Edge 72, Type (0, 0), BuildingBlock: KIFKEQ_clean_linker_1, # of connection points: 2
#     Edge 73, Type (0, 0), BuildingBlock: KIFKEQ_clean_linker_1, # of connection points: 2
#     Edge 74, Type (0, 0), BuildingBlock: KIFKEQ_clean_linker_1, # of connection points: 2
#     Edge 75, Type (0, 0), BuildingBlock: KIFKEQ_clean_linker_1, # of connection points: 2
#     Edge 76, Type (0, 0), BuildingBlock: KIFKEQ_clean_linker_1, # of connection points: 2
#     Edge 77, Type (0, 0), BuildingBlock: KIFKEQ_clean_linker_1, # of connection points: 2
#     Edge 78, Type (0, 0), BuildingBlock: KIFKEQ_clean_linker_1, # of connection points: 2
#     Edge 79, Type (0, 0), BuildingBlock: KIFKEQ_clean_linker_1, # of connection points: 2
#     Edge 80, Type (0, 0), BuildingBlock: KIFKEQ_clean_linker_1, # of connection points: 2
#     Edge 81, Type (0, 0), BuildingBlock: KIFKEQ_clean_linker_1, # of connection points: 2
#     Edge 82, Type (0, 0), BuildingBlock: KIFKEQ_clean_linker_1, # of connection points: 2
#     Edge 83, Type (0, 0), BuildingBlock: KIFKEQ_clean_linker_1, # of connection points: 2
#     Edge 84, Type (0, 0), BuildingBlock: KIFKEQ_clean_linker_1, # of connection points: 2
#     Edge 85, Type (0, 0), BuildingBlock: KIFKEQ_clean_linker_1, # of connection points: 2
#     Edge 86, Type (0, 0), BuildingBlock: KIFKEQ_clean_linker_1, # of connection points: 2
#     Edge 87, Type (0, 0), BuildingBlock: KIFKEQ_clean_linker_1, # of connection points: 2
#     Edge 88, Type (0, 0), BuildingBlock: KIFKEQ_clean_linker_1, # of connection points: 2
#     Edge 89, Type (0, 0), BuildingBlock: KIFKEQ_clean_linker_1, # of connection points: 2
#     Edge 90, Type (0, 0), BuildingBlock: KIFKEQ_clean_linker_1, # of connection points: 2
#     Edge 91, Type (0, 0), BuildingBlock: KIFKEQ_clean_linker_1, # of connection points: 2
#     Edge 92, Type (0, 0), BuildingBlock: KIFKEQ_clean_linker_1, # of connection points: 2
#     Edge 93, Type (0, 0), BuildingBlock: KIFKEQ_clean_linker_1, # of connection points: 2
#     Edge 94, Type (0, 0), BuildingBlock: KIFKEQ_clean_linker_1, # of connection points: 2
#     Edge 95, Type (0, 0), BuildingBlock: KIFKEQ_clean_linker_1, # of connection points: 2
#     Edge 96, Type (0, 0), BuildingBlock: KIFKEQ_clean_linker_1, # of connection points: 2
#     Edge 97, Type (0, 0), BuildingBlock: KIFKEQ_clean_linker_1, # of connection points: 2
#     Edge 98, Type (0, 0), BuildingBlock: KIFKEQ_clean_linker_1, # of connection points: 2
#     Edge 99, Type (0, 0), BuildingBlock: KIFKEQ_clean_linker_1, # of connection points: 2
#     Edge 100, Type (0, 0), BuildingBlock: KIFKEQ_clean_linker_1, # of connection points: 2
#     Edge 101, Type (0, 0), BuildingBlock: KIFKEQ_clean_linker_1, # of connection points: 2
#     Edge 102, Type (0, 0), BuildingBlock: KIFKEQ_clean_linker_1, # of connection points: 2
#     Edge 103, Type (0, 0), BuildingBlock: KIFKEQ_clean_linker_1, # of connection points: 2
#     Edge 104, Type (0, 0), BuildingBlock: KIFKEQ_clean_linker_1, # of connection points: 2
#     Edge 105, Type (0, 0), BuildingBlock: KIFKEQ_clean_linker_1, # of connection points: 2
#     Edge 106, Type (0, 0), BuildingBlock: KIFKEQ_clean_linker_1, # of connection points: 2
#     Edge 107, Type (0, 0), BuildingBlock: KIFKEQ_clean_linker_1, # of connection points: 2
#     Edge 108, Type (0, 0), BuildingBlock: KIFKEQ_clean_linker_1, # of connection points: 2
#     Edge 109, Type (0, 0), BuildingBlock: KIFKEQ_clean_linker_1, # of connection points: 2
#     Edge 110, Type (0, 0), BuildingBlock: KIFKEQ_clean_linker_1, # of connection points: 2
#     Edge 111, Type (0, 0), BuildingBlock: KIFKEQ_clean_linker_1, # of connection points: 2
#     Edge 112, Type (0, 0), BuildingBlock: KIFKEQ_clean_linker_1, # of connection points: 2
#     Edge 113, Type (0, 0), BuildingBlock: KIFKEQ_clean_linker_1, # of connection points: 2
#     Edge 114, Type (0, 0), BuildingBlock: KIFKEQ_clean_linker_1, # of connection points: 2
#     Edge 115, Type (0, 0), BuildingBlock: KIFKEQ_clean_linker_1, # of connection points: 2
#     Edge 116, Type (0, 0), BuildingBlock: KIFKEQ_clean_linker_1, # of connection points: 2
#     Edge 117, Type (0, 0), BuildingBlock: KIFKEQ_clean_linker_1, # of connection points: 2
#     Edge 118, Type (0, 0), BuildingBlock: KIFKEQ_clean_linker_1, # of connection points: 2
#     Edge 119, Type (0, 0), BuildingBlock: KIFKEQ_clean_linker_1, # of connection points: 2
# Relax obj value: 0.022
# Max RMSD: 0.081
# Mean RMSD: 0.053
data_MOF--net-sod-f--node1-OLANEW_clean_sbu_2--edge1-KIFKEQ_clean_linker_1
_symmetry_space_group_name_H-M    P1
_symmetry_Int_Tables_number       1
_symmetry_cell_setting            triclinic
loop_
_symmetry_equiv_pos_as_xyz
'x, y, z'
_cell_length_a     103.29454
_cell_length_b     96.651023
_cell_length_c     96.760062
_cell_angle_alpha  88.410497
_cell_angle_beta   92.178698
_cell_angle_gamma 95.4479
loop_
_atom_site_label
_atom_site_type_symbol
_atom_site_fract_x
_atom_site_fract_y
_atom_site_fract_z
_atom_type_partial_charge
O0 O 0.0626 0.29873 0.4232 0.0
Cd1 Cd 0.04548 0.29507 0.40518 0.0
O2 O 0.06235 0.27638 0.42822 0.0
Cd3 Cd 0.04335 0.27165 0.41797 0.0
O4 O 0.02334 0.26828 0.42468 0.0
C5 C 0.02063 0.25776 0.43258 0.0
O6 O 0.0295 0.24904 0.43509 0.0
C7 C 0.06744 0.28876 0.42979 0.0
C8 C 0.04985 0.31368 0.38294 0.0
O9 O 0.05523 0.30226 0.38377 0.0
O10 O 0.04235 0.31629 0.3926 0.0
O11 O 0.73986 0.03149 0.43829 0.0
Cd12 Cd 0.73557 0.01254 0.42199 0.0
O13 O 0.75602 0.02183 0.44903 0.0
Cd14 Cd 0.75416 0.00226 0.4381 0.0
O15 O 0.75636 0.98013 0.44123 0.0
C16 C 0.75763 0.97652 0.45391 0.0
O17 O 0.75726 0.98602 0.46331 0.0
C18 C 0.74891 0.03184 0.4476 0.0
C19 C 0.71805 0.01894 0.40054 0.0
O20 O 0.71404 0.01316 0.41188 0.0
O21 O 0.73035 0.02173 0.39935 0.0
O22 O 0.05917 0.77722 0.37679 0.0
Cd23 Cd 0.05042 0.77616 0.35297 0.0
O24 O 0.03976 0.78117 0.38313 0.0
Cd25 Cd 0.02472 0.78421 0.39785 0.0
O26 O 0.00989 0.7881 0.41242 0.0
C27 C 0.00286 0.79807 0.41008 0.0
O28 O 0.00464 0.80584 0.39883 0.0
C29 C 0.05163 0.77971 0.38631 0.0
C30 C 0.04486 0.74907 0.34378 0.0
O31 O 0.05601 0.75575 0.34193 0.0
O32 O 0.03639 0.75516 0.35009 0.0
O33 O 0.28714 0.06723 0.4363 0.0
Cd34 Cd 0.29533 0.08964 0.42613 0.0
O35 O 0.27302 0.07563 0.44953 0.0
Cd36 Cd 0.27763 0.09764 0.4444 0.0
O37 O 0.27803 0.11812 0.4535 0.0
C38 C 0.27679 0.11746 0.46653 0.0
O39 O 0.27569 0.10515 0.47272 0.0
C40 C 0.27834 0.06532 0.44517 0.0
C41 C 0.31312 0.08563 0.4059 0.0
O42 O 0.31668 0.08638 0.41871 0.0
O43 O 0.30116 0.08696 0.4026 0.0
O44 O 0.04177 0.77999 0.62868 0.0
Cd45 Cd 0.02303 0.77822 0.64353 0.0
O46 O 0.04147 0.80256 0.62531 0.0
Cd47 Cd 0.02223 0.80318 0.63377 0.0
O48 O 0.0024 0.80616 0.6264 0.0
C49 C 0.00171 0.81579 0.61726 0.0
O50 O 0.01247 0.82337 0.61405 0.0
C51 C 0.04683 0.79145 0.62361 0.0
C52 C 0.02881 0.76573 0.66909 0.0
O53 O 0.02392 0.75845 0.65896 0.0
O54 O 0.03091 0.77891 0.66713 0.0
O55 O 0.26441 0.98773 0.63081 0.0
Cd56 Cd 0.26569 0.00194 0.65144 0.0
O57 O 0.2694 0.00631 0.61795 0.0
Cd58 Cd 0.27151 0.01906 0.599 0.0
O59 O 0.27175 0.03825 0.58649 0.0
C60 C 0.26492 0.04742 0.59078 0.0
O61 O 0.25813 0.04458 0.60189 0.0
C62 C 0.26631 0.99328 0.61891 0.0
C63 C 0.29037 0.00623 0.66423 0.0
O64 O 0.28271 0.99538 0.66705 0.0
O65 O 0.28646 0.01494 0.65512 0.0
O66 O 0.04019 0.29225 0.66445 0.0
Cd67 Cd 0.02441 0.29023 0.68278 0.0
O68 O 0.02396 0.28985 0.64923 0.0
Cd69 Cd 0.01402 0.2868 0.62895 0.0
O70 O 0.99939 0.28232 0.61229 0.0
C71 C 0.98752 0.28168 0.6155 0.0
O72 O 0.9848 0.28383 0.62838 0.0
C73 C 0.03616 0.29154 0.65189 0.0
C74 C 0.02243 0.31532 0.69578 0.0
O75 O 0.03061 0.30692 0.70026 0.0
O76 O 0.01526 0.31189 0.68509 0.0
O77 O 0.77812 0.04776 0.64146 0.0
Cd78 Cd 0.78054 0.028 0.65738 0.0
O79 O 0.76982 0.03262 0.62641 0.0
Cd80 Cd 0.76283 0.02481 0.60622 0.0
O81 O 0.76027 0.00942 0.58995 0.0
C82 C 0.77038 0.00405 0.58641 0.0
O83 O 0.78168 0.00845 0.5922 0.0
C84 C 0.77323 0.04518 0.62945 0.0
C85 C 0.7643 0.02732 0.67983 0.0
O86 O 0.77595 0.0332 0.68068 0.0
O87 O 0.76029 0.02187 0.66833 0.0
O88 O 0.40733 0.08071 0.30644 0.0
Cd89 Cd 0.39452 0.05955 0.31424 0.0
O90 O 0.41385 0.07144 0.2877 0.0
Cd91 Cd 0.4057 0.05017 0.29211 0.0
O92 O 0.41132 0.02892 0.29251 0.0
C93 C 0.41302 0.02214 0.30377 0.0
O94 O 0.4102 0.02757 0.31545 0.0
C95 C 0.41365 0.08188 0.29538 0.0
C96 C 0.37679 0.06542 0.33387 0.0
O97 O 0.38863 0.06371 0.33738 0.0
O98 O 0.37329 0.06429 0.32106 0.0
O99 O 0.08315 0.41566 0.27848 0.0
Cd100 Cd 0.06534 0.39709 0.27741 0.0
O101 O 0.0683 0.42917 0.27156 0.0
Cd102 Cd 0.05922 0.44759 0.26396 0.0
O103 O 0.04419 0.46039 0.25584 0.0
C104 C 0.03371 0.45411 0.25094 0.0
O105 O 0.03255 0.44046 0.25084 0.0
C106 C 0.0801 0.42777 0.27512 0.0
C107 C 0.06373 0.37982 0.30097 0.0
O108 O 0.06983 0.37652 0.29043 0.0
O109 O 0.05855 0.39137 0.30043 0.0
O110 O 0.61965 0.02239 0.29953 0.0
Cd111 Cd 0.63585 0.04253 0.30093 0.0
O112 O 0.60482 0.03376 0.3088 0.0
Cd113 Cd 0.61488 0.05457 0.30625 0.0
O114 O 0.61091 0.07501 0.29774 0.0
C115 C 0.61018 0.08544 0.3053 0.0
O116 O 0.61303 0.08432 0.31861 0.0
C117 C 0.6084 0.02251 0.30438 0.0
C118 C 0.65415 0.03863 0.32237 0.0
O119 O 0.6437 0.04429 0.32454 0.0
O120 O 0.65599 0.03492 0.31003 0.0
O121 O 0.03344 0.61338 0.29436 0.0
Cd122 Cd 0.01504 0.62758 0.2936 0.0
O123 O 0.04001 0.62081 0.27387 0.0
Cd124 Cd 0.02234 0.631 0.26915 0.0
O125 O 0.00286 0.62731 0.25968 0.0
C126 C 0.00236 0.62417 0.24699 0.0
O127 O 0.01329 0.62475 0.24038 0.0
C128 C 0.04163 0.61354 0.28486 0.0
C129 C 0.02186 0.65365 0.30485 0.0
O130 O 0.01714 0.64341 0.31237 0.0
O131 O 0.02334 0.65156 0.29201 0.0
O132 O 0.40659 0.04439 0.74595 0.0
Cd133 Cd 0.38714 0.02839 0.74958 0.0
O134 O 0.41783 0.02637 0.74454 0.0
Cd135 Cd 0.43605 0.01645 0.74461 0.0
O136 O 0.45436 0.00675 0.74542 0.0
C137 C 0.465 0.01359 0.7491 0.0
O138 O 0.4649 0.02668 0.75237 0.0
C139 C 0.41745 0.03949 0.74462 0.0
C140 C 0.36915 0.02555 0.72735 0.0
O141 O 0.36889 0.03533 0.73599 0.0
O142 O 0.37815 0.01733 0.72901 0.0
O143 O 0.02857 0.4417 0.76502 0.0
Cd144 Cd 0.00799 0.428 0.75942 0.0
O145 O 0.02584 0.44004 0.78746 0.0
Cd146 Cd 0.00556 0.43152 0.78505 0.0
O147 O 0.98565 0.4374 0.7849 0.0
C148 C 0.97927 0.43652 0.79592 0.0
O149 O 0.98435 0.43074 0.80706 0.0
C150 C 0.03283 0.44413 0.77731 0.0
C151 C 0.01168 0.40384 0.74553 0.0
O152 O 0.01008 0.41523 0.73887 0.0
O153 O 0.01156 0.40389 0.75878 0.0
O154 O 0.67447 0.00042 0.7856 0.0
Cd155 Cd 0.69224 0.01904 0.78609 0.0
O156 O 0.66139 0.01693 0.78464 0.0
Cd157 Cd 0.6431 0.0266 0.78474 0.0
O158 O 0.62662 0.03915 0.78341 0.0
C159 C 0.62775 0.05117 0.7886 0.0
O160 O 0.6388 0.05563 0.79489 0.0
C161 C 0.66294 0.00402 0.78498 0.0
C162 C 0.70733 0.02024 0.76271 0.0
O163 O 0.71054 0.01334 0.77361 0.0
O164 O 0.69692 0.02647 0.76282 0.0
O165 O 0.06221 0.68996 0.79109 0.0
Cd166 Cd 0.05362 0.71271 0.78969 0.0
O167 O 0.04212 0.6805 0.79005 0.0
Cd168 Cd 0.026 0.66406 0.78884 0.0
O169 O 0.00871 0.64916 0.78861 0.0
C170 C 0.00411 0.64444 0.79998 0.0
O171 O 0.01 0.64855 0.81164 0.0
C172 C 0.05425 0.67909 0.7912 0.0
C173 C 0.049 0.72253 0.76273 0.0
O174 O 0.05999 0.72547 0.76908 0.0
O175 O 0.04025 0.71477 0.76908 0.0
O176 O 0.25359 0.36935 0.98927 0.0
Cd177 Cd 0.25372 0.34755 0.0027 0.0
O178 O 0.26235 0.3794 0.00784 0.0
Cd179 Cd 0.26793 0.39774 0.02024 0.0
O180 O 0.27125 0.41698 0.03165 0.0
C181 C 0.26483 0.42722 0.02828 0.0
O182 O 0.25635 0.42604 0.01781 0.0
C183 C 0.25795 0.38036 0.99543 0.0
C184 C 0.27837 0.33835 0.007 0.0
O185 O 0.27081 0.33388 0.99695 0.0
O186 O 0.27435 0.34733 0.01492 0.0
O187 O 0.26761 0.6587 0.07495 0.0
Cd188 Cd 0.26926 0.6818 0.06388 0.0
O189 O 0.26871 0.64865 0.05507 0.0
Cd190 Cd 0.26779 0.6314 0.04079 0.0
O191 O 0.26555 0.61559 0.02497 0.0
C192 C 0.25456 0.6132 0.0187 0.0
O193 O 0.24491 0.62025 0.02201 0.0
C194 C 0.26776 0.64766 0.06814 0.0
C195 C 0.29484 0.69095 0.05771 0.0
O196 O 0.29056 0.69234 0.0698 0.0
O197 O 0.28702 0.68522 0.04849 0.0
O198 O 0.40407 0.29148 0.04051 0.0
Cd199 Cd 0.38822 0.28695 0.02133 0.0
O200 O 0.41751 0.29381 0.02352 0.0
Cd201 Cd 0.43642 0.29561 0.01381 0.0
O202 O 0.45358 0.29604 0.00122 0.0
C203 C 0.45743 0.28462 0.99758 0.0
O204 O 0.45113 0.27289 0.00178 0.0
C205 C 0.41564 0.29381 0.03645 0.0
C206 C 0.36503 0.29945 0.02212 0.0
O207 O 0.36584 0.28705 0.02692 0.0
O208 O 0.37531 0.3061 0.01734 0.0
O209 O 0.76258 0.41097 0.05166 0.0
Cd210 Cd 0.76053 0.39236 0.03487 0.0
O211 O 0.76354 0.42597 0.03431 0.0
Cd212 Cd 0.76667 0.44621 0.02371 0.0
O213 O 0.76892 0.46538 0.01125 0.0
C214 C 0.77927 0.46851 0.00471 0.0
O215 O 0.78859 0.46014 0.00572 0.0
C216 C 0.76376 0.42354 0.0473 0.0
C217 C 0.73564 0.37846 0.03253 0.0
O218 O 0.74412 0.37445 0.04141 0.0
O219 O 0.73889 0.38917 0.02488 0.0
O220 O 0.62364 0.78704 0.02601 0.0
Cd221 Cd 0.63453 0.78431 0.04865 0.0
O222 O 0.61674 0.80719 0.03064 0.0
Cd223 Cd 0.62197 0.80609 0.05271 0.0
O224 O 0.61543 0.8057 0.07396 0.0
C225 C 0.61021 0.81627 0.07782 0.0
O226 O 0.60996 0.82708 0.06931 0.0
C227 C 0.61788 0.79761 0.02214 0.0
C228 C 0.65865 0.77419 0.04556 0.0
O229 O 0.64839 0.76588 0.04732 0.0
O230 O 0.65753 0.78729 0.04544 0.0
O231 O 0.76871 0.71059 0.00711 0.0
Cd232 Cd 0.76945 0.729 0.02404 0.0
O233 O 0.76621 0.69526 0.02414 0.0
Cd234 Cd 0.76544 0.67425 0.03341 0.0
O235 O 0.76472 0.65347 0.04308 0.0
C236 C 0.76607 0.64283 0.03604 0.0
O237 O 0.76793 0.6444 0.02271 0.0
C238 C 0.76731 0.69798 0.01127 0.0
C239 C 0.74513 0.73813 0.02837 0.0
O240 O 0.75248 0.74384 0.01903 0.0
O241 O 0.74924 0.72801 0.03559 0.0
O242 O 0.42229 0.74643 0.05749 0.0
Cd243 Cd 0.41273 0.7388 0.03516 0.0
O244 O 0.42692 0.76822 0.0508 0.0
Cd245 Cd 0.42219 0.76457 0.02893 0.0
O246 O 0.42972 0.7661 0.00809 0.0
C247 C 0.43167 0.75545 0.00133 0.0
O248 O 0.42807 0.74304 0.00654 0.0
C249 C 0.42668 0.75882 0.06027 0.0
C250 C 0.3871 0.72753 0.03824 0.0
O251 O 0.39665 0.72015 0.0406 0.0
O252 O 0.38964 0.74022 0.03425 0.0
O253 O 0.61323 0.3049 0.03801 0.0
Cd254 Cd 0.62412 0.30771 0.01598 0.0
O255 O 0.60587 0.28311 0.0346 0.0
Cd256 Cd 0.61202 0.2831 0.01326 0.0
O257 O 0.60904 0.28117 0.99089 0.0
C258 C 0.60472 0.29121 0.98393 0.0
O259 O 0.60296 0.30267 0.99031 0.0
C260 C 0.60713 0.29365 0.04229 0.0
C261 C 0.64818 0.32324 0.01923 0.0
O262 O 0.63781 0.32918 0.01628 0.0
O263 O 0.64717 0.30995 0.02053 0.0
O264 O 0.55436 0.80754 0.93302 0.0
Cd265 Cd 0.53568 0.80919 0.91698 0.0
O266 O 0.54902 0.78557 0.93859 0.0
Cd267 Cd 0.52969 0.78445 0.92845 0.0
O268 O 0.50897 0.77972 0.93214 0.0
C269 C 0.50583 0.76813 0.93823 0.0
O270 O 0.51487 0.75963 0.94081 0.0
C271 C 0.5569 0.79647 0.93954 0.0
C272 C 0.54276 0.82523 0.89354 0.0
O273 O 0.53886 0.83084 0.90429 0.0
O274 O 0.54324 0.81201 0.89385 0.0
O275 O 0.22842 0.53448 0.9429 0.0
Cd276 Cd 0.22042 0.51425 0.92934 0.0
O277 O 0.24249 0.52325 0.9554 0.0
Cd278 Cd 0.23838 0.50283 0.94629 0.0
O279 O 0.24042 0.48066 0.94947 0.0
C280 C 0.24564 0.47768 0.96115 0.0
O281 O 0.24908 0.4878 0.96972 0.0
C282 C 0.2372 0.53436 0.95247 0.0
C283 C 0.20179 0.52097 0.90918 0.0
O284 O 0.19864 0.51791 0.92165 0.0
O285 O 0.21376 0.52083 0.90619 0.0
O286 O 0.57373 0.2763 0.87692 0.0
Cd287 Cd 0.56325 0.27457 0.85383 0.0
O288 O 0.55433 0.27647 0.88524 0.0
Cd289 Cd 0.54035 0.27643 0.90173 0.0
O290 O 0.52605 0.27615 0.91783 0.0
C291 C 0.52781 0.28425 0.928 0.0
O292 O 0.53843 0.29286 0.92878 0.0
C293 C 0.56662 0.27721 0.88722 0.0
C294 C 0.55792 0.24755 0.8443 0.0
O295 O 0.56873 0.25467 0.84184 0.0
O296 O 0.54972 0.25312 0.8515 0.0
O297 O 0.79786 0.55953 0.93822 0.0
Cd298 Cd 0.80267 0.58103 0.92472 0.0
O299 O 0.78655 0.56908 0.95361 0.0
Cd300 Cd 0.78883 0.59042 0.94554 0.0
O301 O 0.78683 0.61207 0.95019 0.0
C302 C 0.77554 0.61514 0.95298 0.0
O303 O 0.7657 0.60552 0.95186 0.0
C304 C 0.79119 0.55845 0.94903 0.0
C305 C 0.82078 0.57708 0.90483 0.0
O306 O 0.82446 0.58138 0.91689 0.0
O307 O 0.80854 0.57481 0.90211 0.0
O308 O 0.53974 0.28065 0.12371 0.0
Cd309 Cd 0.51995 0.27749 0.13696 0.0
O310 O 0.53561 0.30134 0.11564 0.0
Cd311 Cd 0.51546 0.29953 0.122 0.0
O312 O 0.49588 0.29874 0.11247 0.0
C313 C 0.4959 0.29815 0.09936 0.0
O314 O 0.50711 0.29794 0.09341 0.0
C315 C 0.54317 0.2917 0.1168 0.0
C316 C 0.52147 0.25654 0.15726 0.0
O317 O 0.52572 0.26916 0.15974 0.0
O318 O 0.51647 0.25385 0.14519 0.0
O319 O 0.78303 0.49446 0.13053 0.0
Cd320 Cd 0.78774 0.51166 0.14854 0.0
O321 O 0.78108 0.51153 0.11555 0.0
Cd322 Cd 0.77695 0.52306 0.09631 0.0
O323 O 0.77472 0.54086 0.08224 0.0
C324 C 0.76653 0.54927 0.08514 0.0
O325 O 0.75942 0.54658 0.09604 0.0
C326 C 0.78073 0.49852 0.11815 0.0
C327 C 0.81264 0.51118 0.16069 0.0
O328 O 0.80293 0.50358 0.16556 0.0
O329 O 0.81058 0.51893 0.15002 0.0
O330 O 0.53734 0.81781 0.1533 0.0
Cd331 Cd 0.51662 0.8171 0.16488 0.0
O332 O 0.53292 0.79657 0.14572 0.0
Cd333 Cd 0.51256 0.79432 0.15147 0.0
O334 O 0.49256 0.78962 0.1436 0.0
C335 C 0.48942 0.77736 0.13945 0.0
O336 O 0.49789 0.76808 0.14124 0.0
C337 C 0.54076 0.80747 0.14696 0.0
C338 C 0.51587 0.83885 0.18315 0.0
O339 O 0.52037 0.82741 0.1871 0.0
O340 O 0.51178 0.84002 0.17053 0.0
O341 O 0.26816 0.56044 0.13911 0.0
Cd342 Cd 0.26962 0.5393 0.15336 0.0
O343 O 0.26863 0.54707 0.12141 0.0
Cd344 Cd 0.2693 0.53872 0.10066 0.0
O345 O 0.26922 0.52281 0.08503 0.0
C346 C 0.27009 0.51048 0.08966 0.0
O347 O 0.27107 0.50831 0.10311 0.0
C348 C 0.26806 0.55919 0.12606 0.0
C349 C 0.25342 0.53741 0.17587 0.0
O350 O 0.26521 0.54282 0.17709 0.0
O351 O 0.24926 0.53304 0.16397 0.0
O352 O 0.92126 0.56897 0.81318 0.0
Cd353 Cd 0.90472 0.54946 0.81662 0.0
O354 O 0.92806 0.56066 0.79409 0.0
Cd355 Cd 0.91661 0.54053 0.79566 0.0
O356 O 0.91775 0.51808 0.79567 0.0
C357 C 0.9232 0.51262 0.80619 0.0
O358 O 0.92666 0.52044 0.81685 0.0
C359 C 0.92865 0.57023 0.80292 0.0
C360 C 0.88649 0.55573 0.83553 0.0
O361 O 0.89678 0.55011 0.83954 0.0
O362 O 0.88479 0.55835 0.82256 0.0
O363 O 0.59116 0.91579 0.78531 0.0
Cd364 Cd 0.57378 0.89682 0.78331 0.0
O365 O 0.57663 0.93043 0.78071 0.0
Cd366 Cd 0.56784 0.9498 0.77567 0.0
O367 O 0.55327 0.96451 0.77131 0.0
C368 C 0.54588 0.96284 0.76055 0.0
O369 O 0.54765 0.95274 0.75221 0.0
C370 C 0.58845 0.92826 0.78333 0.0
C371 C 0.56824 0.88243 0.80812 0.0
O372 O 0.57699 0.87879 0.80027 0.0
O373 O 0.56225 0.893 0.80433 0.0
O374 O 0.10361 0.52675 0.80747 0.0
Cd375 Cd 0.11383 0.54858 0.81676 0.0
O376 O 0.09331 0.53655 0.79 0.0
Cd377 Cd 0.0991 0.55823 0.79497 0.0
O378 O 0.09561 0.58022 0.79439 0.0
C379 C 0.08839 0.5847 0.80328 0.0
O380 O 0.08386 0.57617 0.81315 0.0
C381 C 0.09613 0.52568 0.79673 0.0
C382 C 0.13313 0.54345 0.83679 0.0
O383 O 0.12115 0.54308 0.8399 0.0
O384 O 0.13604 0.54636 0.82421 0.0
O385 O 0.54793 0.11557 0.78893 0.0
Cd386 Cd 0.52874 0.12859 0.78828 0.0
O387 O 0.54529 0.10941 0.76721 0.0
Cd388 Cd 0.5257 0.11591 0.76439 0.0
O389 O 0.5056 0.10805 0.75934 0.0
C390 C 0.50425 0.09515 0.75676 0.0
O391 O 0.51464 0.08826 0.75729 0.0
C392 C 0.55195 0.10968 0.77854 0.0
C393 C 0.53461 0.15428 0.80071 0.0
O394 O 0.53013 0.14358 0.80776 0.0
O395 O 0.53619 0.15285 0.78777 0.0
O396 O 0.93445 0.54067 0.2249 0.0
Cd397 Cd 0.92645 0.5164 0.22091 0.0
O398 O 0.94074 0.5447 0.2036 0.0
Cd399 Cd 0.94026 0.52243 0.20041 0.0
O400 O 0.95291 0.50636 0.20678 0.0
C401 C 0.95964 0.50914 0.21781 0.0
O402 O 0.95789 0.52056 0.22429 0.0
C403 C 0.93893 0.54914 0.21556 0.0
C404 C 0.90186 0.51434 0.20773 0.0
O405 O 0.90315 0.51425 0.22096 0.0
O406 O 0.91221 0.51534 0.20074 0.0
O407 O 0.52995 0.94855 0.2762 0.0
Cd408 Cd 0.50857 0.93773 0.26862 0.0
O409 O 0.5246 0.94975 0.2979 0.0
Cd410 Cd 0.50392 0.94357 0.29393 0.0
O411 O 0.48401 0.94947 0.29435 0.0
C412 C 0.48138 0.9559 0.30502 0.0
O413 O 0.49031 0.95768 0.31501 0.0
C414 C 0.53306 0.95165 0.28866 0.0
C415 C 0.51052 0.91639 0.25015 0.0
O416 O 0.51027 0.92903 0.24586 0.0
O417 O 0.50986 0.91384 0.26319 0.0
O418 O 0.16341 0.50329 0.28006 0.0
Cd419 Cd 0.18077 0.52231 0.28159 0.0
O420 O 0.14986 0.51934 0.2794 0.0
Cd421 Cd 0.13154 0.52894 0.27964 0.0
O422 O 0.1174 0.54434 0.28006 0.0
C423 C 0.10697 0.54222 0.28667 0.0
O424 O 0.1044 0.53026 0.29325 0.0
C425 C 0.15176 0.50652 0.27937 0.0
C426 C 0.19611 0.52515 0.25838 0.0
O427 O 0.19935 0.51776 0.26894 0.0
O428 O 0.18556 0.53109 0.25876 0.0
O429 O 0.54315 0.15182 0.25968 0.0
Cd430 Cd 0.52225 0.15907 0.25081 0.0
O431 O 0.53739 0.15221 0.28132 0.0
Cd432 Cd 0.51755 0.15722 0.27625 0.0
O433 O 0.49646 0.15214 0.27545 0.0
C434 C 0.49088 0.15014 0.28691 0.0
O435 O 0.49786 0.15217 0.29844 0.0
C436 C 0.54582 0.15013 0.27253 0.0
C437 C 0.52419 0.18043 0.23078 0.0
O438 O 0.52369 0.1831 0.24364 0.0
O439 O 0.52398 0.16767 0.22743 0.0
O440 O 0.77546 0.86999 0.4783 0.0
Cd441 Cd 0.77842 0.84625 0.48644 0.0
O442 O 0.77361 0.87665 0.4996 0.0
Cd443 Cd 0.77194 0.89279 0.5148 0.0
O444 O 0.7723 0.91076 0.52815 0.0
C445 C 0.76438 0.91994 0.52594 0.0
O446 O 0.7557 0.91835 0.5157 0.0
C447 C 0.77347 0.87941 0.48666 0.0
C448 C 0.80415 0.84099 0.49259 0.0
O449 O 0.79932 0.84009 0.48021 0.0
O450 O 0.79688 0.84465 0.50203 0.0
O451 O 0.75729 0.14182 0.58203 0.0
Cd452 Cd 0.75515 0.16502 0.57203 0.0
O453 O 0.76272 0.13509 0.56178 0.0
Cd454 Cd 0.76669 0.11967 0.54679 0.0
O455 O 0.76671 0.10588 0.5293 0.0
C456 C 0.75596 0.10253 0.52285 0.0
O457 O 0.74535 0.10737 0.52705 0.0
C458 C 0.76058 0.1323 0.57446 0.0
C459 C 0.77916 0.17973 0.56704 0.0
O460 O 0.77369 0.18058 0.57862 0.0
O461 O 0.77331 0.17185 0.55786 0.0
O462 O 0.92691 0.80065 0.53961 0.0
Cd463 Cd 0.91601 0.79549 0.51716 0.0
O464 O 0.93495 0.82168 0.53333 0.0
Cd465 Cd 0.93036 0.81802 0.51146 0.0
O466 O 0.93697 0.81287 0.49121 0.0
C467 C 0.944 0.82214 0.48463 0.0
O468 O 0.94615 0.83461 0.48979 0.0
C469 C 0.93318 0.8122 0.54263 0.0
C470 C 0.89234 0.80714 0.51332 0.0
O471 O 0.89298 0.79538 0.51963 0.0
O472 O 0.90291 0.81347 0.50891 0.0
O473 O 0.25701 0.91453 0.54218 0.0
Cd474 Cd 0.25502 0.89729 0.52401 0.0
O475 O 0.25489 0.9308 0.52637 0.0
Cd476 Cd 0.25294 0.95112 0.51633 0.0
O477 O 0.25391 0.97017 0.50359 0.0
C478 C 0.26458 0.97412 0.49794 0.0
O479 O 0.27452 0.9667 0.50012 0.0
C480 C 0.25656 0.92735 0.53907 0.0
C481 C 0.23077 0.88186 0.52315 0.0
O482 O 0.2402 0.87793 0.53081 0.0
O483 O 0.23279 0.89313 0.51594 0.0
O484 O 0.12514 0.29588 0.524 0.0
Cd485 Cd 0.13475 0.29637 0.54743 0.0
O486 O 0.11124 0.31123 0.52751 0.0
Cd487 Cd 0.11362 0.31117 0.55002 0.0
O488 O 0.1037 0.31048 0.56961 0.0
C489 C 0.10099 0.29897 0.57602 0.0
O490 O 0.10509 0.28763 0.57125 0.0
C491 C 0.11652 0.30352 0.51936 0.0
C492 C 0.15839 0.28461 0.54724 0.0
O493 O 0.14802 0.2774 0.55106 0.0
O494 O 0.15763 0.29741 0.54382 0.0
O495 O 0.26858 0.21205 0.5222 0.0
Cd496 Cd 0.26627 0.22848 0.54057 0.0
O497 O 0.26942 0.19707 0.53952 0.0
Cd498 Cd 0.26992 0.17604 0.54843 0.0
O499 O 0.26969 0.1548 0.55678 0.0
C500 C 0.26851 0.14448 0.5488 0.0
O501 O 0.26745 0.14675 0.53538 0.0
C502 C 0.26992 0.19974 0.52659 0.0
C503 C 0.24257 0.24013 0.54028 0.0
O504 O 0.25259 0.24667 0.53488 0.0
O505 O 0.24368 0.22797 0.54557 0.0
O506 O 0.90148 0.25888 0.55133 0.0
Cd507 Cd 0.88301 0.25614 0.53472 0.0
O508 O 0.91384 0.26116 0.53342 0.0
Cd509 Cd 0.93166 0.26321 0.5217 0.0
O510 O 0.94682 0.26413 0.50648 0.0
C511 C 0.94746 0.25382 0.49874 0.0
O512 O 0.93912 0.2428 0.50031 0.0
C513 C 0.91278 0.26097 0.54649 0.0
C514 C 0.8618 0.23876 0.54395 0.0
O515 O 0.87086 0.23389 0.5374 0.0
O516 O 0.86288 0.25181 0.54631 0.0
O517 O 0.11088 0.80397 0.53883 0.0
Cd518 Cd 0.12006 0.80795 0.51598 0.0
O519 O 0.09854 0.78517 0.53266 0.0
Cd520 Cd 0.10289 0.78684 0.51073 0.0
O521 O 0.0979 0.78643 0.48857 0.0
C522 C 0.08582 0.78607 0.48535 0.0
O523 O 0.07752 0.78613 0.49531 0.0
C524 C 0.10273 0.79375 0.5419 0.0
C525 C 0.14398 0.82402 0.51751 0.0
O526 O 0.13329 0.82972 0.5159 0.0
O527 O 0.14335 0.81072 0.51835 0.0
H528 H 0.09881 0.31892 0.50605 0.0
H529 H 0.124 0.28666 0.49937 0.0
H530 H 0.08961 0.3162 0.4827 0.0
H531 H 0.1149 0.28412 0.47582 0.0
H532 H 0.07953 0.26994 0.44606 0.0
H533 H 0.09377 0.27468 0.46628 0.0
H534 H 0.09348 0.31881 0.45802 0.0
H535 H 0.07898 0.31409 0.43787 0.0
C536 C 0.10254 0.31139 0.49953 0.0
C537 C 0.11204 0.3029 0.50465 0.0
C538 C 0.09733 0.30991 0.48608 0.0
C539 C 0.1015 0.29991 0.4774 0.0
C540 C 0.11139 0.29181 0.48231 0.0
C541 C 0.11663 0.29331 0.49579 0.0
C542 C 0.08268 0.28066 0.44838 0.0
C543 C 0.07795 0.29164 0.44046 0.0
C544 C 0.09093 0.28338 0.45996 0.0
C545 C 0.09464 0.29713 0.46386 0.0
C546 C 0.0906 0.3081 0.45541 0.0
C547 C 0.08235 0.30539 0.44381 0.0
H548 H 0.73429 0.09164 0.50843 0.0
H549 H 0.77621 0.09234 0.51023 0.0
H550 H 0.73314 0.07558 0.48938 0.0
H551 H 0.77509 0.07657 0.4909 0.0
H552 H 0.76642 0.03479 0.46939 0.0
H553 H 0.76839 0.05261 0.48672 0.0
H554 H 0.73782 0.07323 0.46537 0.0
H555 H 0.73558 0.05509 0.44814 0.0
C556 C 0.74328 0.08847 0.50468 0.0
C557 C 0.75534 0.09319 0.51092 0.0
C558 C 0.74262 0.07934 0.49367 0.0
C559 C 0.75402 0.07476 0.4886 0.0
C560 C 0.7661 0.07972 0.49468 0.0
C561 C 0.76675 0.0888 0.50573 0.0
C562 C 0.76017 0.04317 0.46829 0.0
C563 C 0.75079 0.04346 0.45739 0.0
C564 C 0.76136 0.05346 0.47821 0.0
C565 C 0.75325 0.06436 0.47748 0.0
C566 C 0.7441 0.06487 0.46636 0.0
C567 C 0.74287 0.05452 0.45643 0.0
H568 H 0.99633 0.78371 0.43397 0.0
H569 H 0.98717 0.81936 0.4088 0.0
H570 H 0.98088 0.78936 0.4509 0.0
H571 H 0.97158 0.82488 0.42567 0.0
H572 H 0.95937 0.83962 0.46814 0.0
H573 H 0.97258 0.83344 0.44934 0.0
H574 H 0.9575 0.79042 0.45424 0.0
H575 H 0.94437 0.79656 0.47321 0.0
C576 C 0.99095 0.79269 0.43199 0.0
C577 C 0.99305 0.80113 0.42007 0.0
C578 C 0.98202 0.79587 0.44165 0.0
C579 C 0.975 0.80758 0.43963 0.0
C580 C 0.97694 0.81588 0.42759 0.0
C581 C 0.98584 0.81268 0.41791 0.0
C582 C 0.95875 0.82886 0.46512 0.0
C583 C 0.95088 0.81857 0.47224 0.0
C584 C 0.96629 0.82533 0.45429 0.0
C585 C 0.96615 0.81143 0.45035 0.0
C586 C 0.95795 0.8012 0.45717 0.0
C587 C 0.95037 0.80473 0.46797 0.0
H588 H 0.28757 0.04076 0.43852 0.0
H589 H 0.26146 0.05809 0.46579 0.0
H590 H 0.28338 0.01813 0.45011 0.0
H591 H 0.25757 0.03564 0.47757 0.0
H592 H 0.24559 0.99088 0.48986 0.0
H593 H 0.2479 0.01214 0.47565 0.0
H594 H 0.28888 0.0077 0.47218 0.0
H595 H 0.2865 0.98628 0.48605 0.0
C596 C 0.28088 0.03974 0.44692 0.0
C597 C 0.27491 0.05127 0.45127 0.0
C598 C 0.27855 0.02678 0.45363 0.0
C599 C 0.27022 0.02508 0.46485 0.0
C600 C 0.26393 0.03651 0.46888 0.0
C601 C 0.26622 0.04944 0.46215 0.0
C602 C 0.25508 0.99441 0.48601 0.0
C603 C 0.26588 0.98691 0.48913 0.0
C604 C 0.25642 0.00663 0.4779 0.0
C605 C 0.26858 0.01165 0.47278 0.0
C606 C 0.27933 0.00403 0.47577 0.0
C607 C 0.27798 0.9918 0.48382 0.0
H608 H 0.10775 0.81124 0.56371 0.0
H609 H 0.08539 0.77309 0.55178 0.0
H610 H 0.09684 0.81021 0.58572 0.0
H611 H 0.07435 0.77223 0.57354 0.0
H612 H 0.05914 0.81389 0.61012 0.0
H613 H 0.07496 0.81373 0.59218 0.0
H614 H 0.07594 0.76941 0.59846 0.0
H615 H 0.05984 0.76949 0.61626 0.0
C616 C 0.10063 0.80255 0.56583 0.0
C617 C 0.09735 0.79233 0.55591 0.0
C618 C 0.09433 0.802 0.57842 0.0
C619 C 0.08466 0.79119 0.58137 0.0
C620 C 0.08186 0.78062 0.57171 0.0
C621 C 0.08813 0.78118 0.55915 0.0
C622 C 0.06288 0.80413 0.60786 0.0
C623 C 0.05807 0.79167 0.6145 0.0
C624 C 0.07203 0.80406 0.59761 0.0
C625 C 0.07662 0.79153 0.59377 0.0
C626 C 0.07242 0.7792 0.60101 0.0
C627 C 0.06325 0.77926 0.61127 0.0
H628 H 0.2692 0.13628 0.57604 0.0
H629 H 0.26698 0.12017 0.5347 0.0
H630 H 0.26828 0.11267 0.58565 0.0
H631 H 0.26587 0.09648 0.54437 0.0
H632 H 0.27842 0.05722 0.56808 0.0
H633 H 0.27934 0.08059 0.55762 0.0
H634 H 0.25248 0.09229 0.58739 0.0
H635 H 0.2517 0.0691 0.59794 0.0
C636 C 0.26849 0.1277 0.56899 0.0
C637 C 0.26812 0.13011 0.5546 0.0
C638 C 0.26788 0.11416 0.57451 0.0
C639 C 0.26692 0.1027 0.56577 0.0
C640 C 0.2667 0.1051 0.55137 0.0
C641 C 0.26727 0.11867 0.54584 0.0
C642 C 0.27268 0.06477 0.57235 0.0
C643 C 0.26504 0.06131 0.58389 0.0
C644 C 0.27316 0.07813 0.56632 0.0
C645 C 0.26606 0.08832 0.57174 0.0
C646 C 0.25825 0.08476 0.58312 0.0
C647 C 0.25774 0.07142 0.58911 0.0
H648 H 0.98952 0.27601 0.58806 0.0
H649 H 0.96138 0.27997 0.61929 0.0
H650 H 0.97183 0.27032 0.57108 0.0
H651 H 0.94378 0.27459 0.60233 0.0
H652 H 0.9154 0.25086 0.57283 0.0
H653 H 0.93376 0.25532 0.58919 0.0
H654 H 0.95432 0.28102 0.55832 0.0
H655 H 0.93592 0.27655 0.542 0.0
C656 C 0.97958 0.27571 0.59129 0.0
C657 C 0.97688 0.27841 0.60505 0.0
C658 C 0.96944 0.27252 0.58155 0.0
C659 C 0.95638 0.27193 0.58535 0.0
C660 C 0.95372 0.2747 0.5991 0.0
C661 C 0.96383 0.27789 0.60881 0.0
C662 C 0.92388 0.25738 0.56951 0.0
C663 C 0.9243 0.26314 0.55603 0.0
C664 C 0.93438 0.26 0.5789 0.0
C665 C 0.94552 0.26855 0.57508 0.0
C666 C 0.94599 0.27419 0.56153 0.0
C667 C 0.93548 0.27154 0.55212 0.0
H668 H 0.75009 0.94233 0.52279 0.0
H669 H 0.7803 0.92582 0.54867 0.0
H670 H 0.75157 0.96306 0.53678 0.0
H671 H 0.78156 0.94639 0.56282 0.0
H672 H 0.79022 0.99088 0.57653 0.0
H673 H 0.78869 0.97092 0.56157 0.0
H674 H 0.7468 0.97052 0.55964 0.0
H675 H 0.74834 0.99073 0.57439 0.0
C676 C 0.757 0.94308 0.53151 0.0
C677 C 0.76509 0.93241 0.53461 0.0
C678 C 0.7578 0.95494 0.53957 0.0
C679 C 0.7667 0.95642 0.55091 0.0
C680 C 0.77474 0.94571 0.55403 0.0
C681 C 0.77396 0.93386 0.54597 0.0
C682 C 0.78068 0.9866 0.57286 0.0
C683 C 0.7694 0.99239 0.5767 0.0
C684 C 0.7798 0.97508 0.56435 0.0
C685 C 0.76762 0.96903 0.55949 0.0
C686 C 0.75634 0.97499 0.5631 0.0
C687 C 0.75723 0.98655 0.5716 0.0
H688 H 0.47381 0.14378 0.2651 0.0
H689 H 0.47725 0.14172 0.30974 0.0
H690 H 0.45272 0.13012 0.26588 0.0
H691 H 0.45648 0.12776 0.3105 0.0
H692 H 0.42969 0.087 0.27367 0.0
H693 H 0.44639 0.10615 0.27081 0.0
H694 H 0.43335 0.12544 0.3069 0.0
H695 H 0.41682 0.10595 0.31003 0.0
C696 C 0.47001 0.14056 0.27508 0.0
C697 C 0.4773 0.14368 0.28735 0.0
C698 C 0.45794 0.13267 0.27553 0.0
C699 C 0.45294 0.12768 0.28824 0.0
C700 C 0.45992 0.13152 0.30052 0.0
C701 C 0.47192 0.13946 0.30008 0.0
C702 C 0.43021 0.09543 0.28088 0.0
C703 C 0.42204 0.0948 0.29222 0.0
C704 C 0.43976 0.10651 0.27917 0.0
C705 C 0.44134 0.1173 0.28872 0.0
C706 C 0.43257 0.11717 0.29951 0.0
C707 C 0.42303 0.10603 0.30126 0.0
H708 H 0.03271 0.48232 0.24996 0.0
H709 H 0.01005 0.44371 0.24014 0.0
H710 H 0.01461 0.49519 0.2418 0.0
H711 H 0.99187 0.45658 0.23221 0.0
H712 H 0.96737 0.48593 0.20596 0.0
H713 H 0.9853 0.4725 0.2137 0.0
H714 H 0.99293 0.49903 0.24886 0.0
H715 H 0.97524 0.51255 0.24104 0.0
C716 C 0.02387 0.47657 0.24608 0.0
C717 C 0.02283 0.46198 0.24573 0.0
C718 C 0.01346 0.48394 0.24148 0.0
C719 C 0.00176 0.4769 0.23642 0.0
C720 C 0.00078 0.46232 0.23592 0.0
C721 C 0.01119 0.45495 0.24054 0.0
C722 C 0.97284 0.48884 0.21538 0.0
C723 C 0.96991 0.50035 0.22284 0.0
C724 C 0.98308 0.48112 0.21984 0.0
C725 C 0.99061 0.48477 0.23184 0.0
C726 C 0.98749 0.49611 0.23943 0.0
C727 C 0.97727 0.5038 0.23499 0.0
H728 H 0.55269 0.96003 0.27114 0.0
H729 H 0.54282 0.95967 0.31417 0.0
H730 H 0.57238 0.97519 0.2764 0.0
H731 H 0.56262 0.97463 0.31944 0.0
H732 H 0.58498 0.01853 0.31666 0.0
H733 H 0.56839 0.99916 0.31397 0.0
H734 H 0.59381 0.97846 0.28865 0.0
H735 H 0.61049 0.99805 0.2912 0.0
C736 C 0.55485 0.96293 0.28177 0.0
C737 C 0.54606 0.9588 0.29219 0.0
C738 C 0.56619 0.97157 0.2848 0.0
C739 C 0.56898 0.97626 0.29831 0.0
C740 C 0.56062 0.9714 0.30888 0.0
C741 C 0.54929 0.96277 0.30586 0.0
C742 C 0.58714 0.00979 0.31065 0.0
C743 C 0.59904 0.0099 0.30406 0.0
C744 C 0.57764 0.99861 0.3092 0.0
C745 C 0.57976 0.98726 0.30107 0.0
C746 C 0.59184 0.98712 0.29487 0.0
C747 C 0.60142 0.9983 0.2964 0.0
H748 H 0.04835 0.59708 0.30698 0.0
H749 H 0.05917 0.60918 0.26534 0.0
H750 H 0.06476 0.5805 0.30808 0.0
H751 H 0.07529 0.59238 0.26631 0.0
H752 H 0.1105 0.56881 0.27617 0.0
H753 H 0.09566 0.58689 0.2767 0.0
H754 H 0.06798 0.55852 0.29822 0.0
H755 H 0.083 0.54054 0.29803 0.0
C756 C 0.05427 0.59627 0.29809 0.0
C757 C 0.05241 0.60444 0.28606 0.0
C758 C 0.06361 0.58668 0.29868 0.0
C759 C 0.07128 0.58501 0.28725 0.0
C760 C 0.06967 0.59348 0.27537 0.0
C761 C 0.06037 0.6031 0.2748 0.0
C762 C 0.10126 0.56643 0.28104 0.0
C763 C 0.09792 0.55321 0.28702 0.0
C764 C 0.09272 0.57679 0.2813 0.0
C765 C 0.08061 0.57417 0.28749 0.0
C766 C 0.07731 0.56097 0.29356 0.0
C767 C 0.08588 0.55062 0.29335 0.0
H768 H 0.52827 0.96162 0.73873 0.0
H769 H 0.53844 0.98343 0.77659 0.0
H770 H 0.50927 0.97459 0.73522 0.0
H771 H 0.51926 0.99621 0.7732 0.0
H772 H 0.48939 0.02513 0.75666 0.0
H773 H 0.50949 0.0137 0.7586 0.0
H774 H 0.4884 0.97518 0.74577 0.0
H775 H 0.4684 0.98661 0.74359 0.0
C776 C 0.52648 0.96922 0.74629 0.0
C777 C 0.53484 0.97143 0.75798 0.0
C778 C 0.51554 0.97659 0.74432 0.0
C779 C 0.51268 0.98636 0.75398 0.0
C780 C 0.52124 0.98885 0.76549 0.0
C781 C 0.5322 0.98147 0.76747 0.0
C782 C 0.48906 0.01423 0.7542 0.0
C783 C 0.47728 0.00678 0.74999 0.0
C784 C 0.50057 0.00767 0.75538 0.0
C785 C 0.50056 0.99352 0.75234 0.0
C786 C 0.4888 0.98613 0.748 0.0
C787 C 0.4773 0.99267 0.74683 0.0
H788 H 0.04945 0.45615 0.75807 0.0
H789 H 0.04393 0.45265 0.80213 0.0
H790 H 0.06742 0.47403 0.76194 0.0
H791 H 0.06166 0.47068 0.80594 0.0
H792 H 0.09738 0.50048 0.81026 0.0
H793 H 0.08469 0.47854 0.80489 0.0
H794 H 0.06767 0.498 0.76872 0.0
H795 H 0.08046 0.51974 0.7739 0.0
C796 C 0.05219 0.45902 0.76859 0.0
C797 C 0.04512 0.4531 0.77977 0.0
C798 C 0.06245 0.46933 0.7708 0.0
C799 C 0.06587 0.47393 0.78423 0.0
C800 C 0.05937 0.46733 0.79547 0.0
C801 C 0.04912 0.45703 0.79327 0.0
C802 C 0.0911 0.5 0.80103 0.0
C803 C 0.08983 0.51192 0.7926 0.0
C804 C 0.08378 0.48744 0.79799 0.0
C805 C 0.07509 0.48652 0.78643 0.0
C806 C 0.07437 0.49826 0.77762 0.0
C807 C 0.08164 0.51079 0.78067 0.0
H808 H 0.60409 0.04547 0.77533 0.0
H809 H 0.62683 0.07715 0.79886 0.0
H810 H 0.58632 0.06031 0.77288 0.0
H811 H 0.60908 0.09208 0.79621 0.0
H812 H 0.56814 0.10706 0.80139 0.0
H813 H 0.58673 0.09326 0.80385 0.0
H814 H 0.58145 0.08199 0.76098 0.0
H815 H 0.56279 0.09557 0.75854 0.0
C816 C 0.60532 0.05561 0.77996 0.0
C817 C 0.61689 0.06012 0.78728 0.0
C818 C 0.59516 0.06415 0.77847 0.0
C819 C 0.59633 0.0774 0.78429 0.0
C820 C 0.60785 0.08188 0.79171 0.0
C821 C 0.61804 0.07334 0.79317 0.0
C822 C 0.57101 0.10173 0.79246 0.0
C823 C 0.56392 0.10235 0.77979 0.0
C824 C 0.58169 0.09386 0.79386 0.0
C825 C 0.58549 0.08643 0.78264 0.0
C826 C 0.57863 0.08739 0.76988 0.0
C827 C 0.56798 0.09526 0.76847 0.0
H828 H 0.98882 0.63495 0.77786 0.0
H829 H 0.99273 0.63126 0.82241 0.0
H830 H 0.96963 0.6182 0.77811 0.0
H831 H 0.97377 0.61426 0.82261 0.0
H832 H 0.93298 0.59259 0.81988 0.0
H833 H 0.95043 0.61141 0.81876 0.0
H834 H 0.96445 0.5937 0.78229 0.0
H835 H 0.94688 0.57514 0.78319 0.0
C836 C 0.98561 0.63055 0.78771 0.0
C837 C 0.99234 0.63441 0.80011 0.0
C838 C 0.97463 0.6209 0.78784 0.0
C839 C 0.97016 0.61485 0.80038 0.0
C840 C 0.97682 0.61885 0.81279 0.0
C841 C 0.98777 0.62853 0.81266 0.0
C842 C 0.93971 0.59279 0.81154 0.0
C843 C 0.93855 0.58231 0.80166 0.0
C844 C 0.94977 0.60354 0.81095 0.0
C845 C 0.9589 0.60403 0.80049 0.0
C846 C 0.95751 0.59375 0.7904 0.0
C847 C 0.94745 0.58305 0.79097 0.0
H848 H 0.28179 0.43313 0.05015 0.0
H849 H 0.25149 0.4503 0.02495 0.0
H850 H 0.28371 0.45368 0.06434 0.0
H851 H 0.2532 0.47074 0.03938 0.0
H852 H 0.26784 0.51103 0.0613 0.0
H853 H 0.26731 0.49136 0.04588 0.0
H854 H 0.27095 0.46358 0.08128 0.0
H855 H 0.27175 0.48316 0.09661 0.0
C856 C 0.27554 0.44129 0.04763 0.0
C857 C 0.26642 0.44002 0.03647 0.0
C858 C 0.27659 0.45304 0.05582 0.0
C859 C 0.26853 0.46381 0.05308 0.0
C860 C 0.25963 0.4627 0.04171 0.0
C861 C 0.2586 0.45094 0.03349 0.0
C862 C 0.26858 0.50072 0.06577 0.0
C863 C 0.26986 0.49867 0.08018 0.0
C864 C 0.2682 0.48944 0.05694 0.0
C865 C 0.26912 0.47589 0.06234 0.0
C866 C 0.27043 0.47389 0.07675 0.0
C867 C 0.2708 0.48513 0.08556 0.0
H868 H 0.23188 0.60418 0.00493 0.0
H869 H 0.27279 0.59801 0.00816 0.0
H870 H 0.22842 0.58593 0.98798 0.0
H871 H 0.26939 0.58 0.99091 0.0
H872 H 0.25469 0.537 0.97431 0.0
H873 H 0.2593 0.55665 0.98939 0.0
H874 H 0.23271 0.57985 0.96466 0.0
H875 H 0.2278 0.55996 0.9497 0.0
C876 C 0.24017 0.59902 0.00193 0.0
C877 C 0.25259 0.60249 0.00798 0.0
C878 C 0.2382 0.58862 0.99211 0.0
C879 C 0.24862 0.58148 0.98807 0.0
C880 C 0.26111 0.58515 0.99393 0.0
C881 C 0.26307 0.59552 0.00379 0.0
C882 C 0.24989 0.54632 0.97199 0.0
C883 C 0.24081 0.54686 0.96083 0.0
C884 C 0.2526 0.55764 0.98061 0.0
C885 C 0.24635 0.56983 0.97828 0.0
C886 C 0.23755 0.57054 0.96687 0.0
C887 C 0.2348 0.55917 0.95825 0.0
H888 H 0.47219 0.30695 0.98654 0.0
H889 H 0.46751 0.26203 0.98733 0.0
H890 H 0.48952 0.30671 0.97014 0.0
H891 H 0.48497 0.2618 0.97112 0.0
H892 H 0.50495 0.26761 0.9295 0.0
H893 H 0.48843 0.2677 0.9468 0.0
H894 H 0.51178 0.30049 0.96816 0.0
H895 H 0.52824 0.30057 0.95071 0.0
C896 C 0.47492 0.29702 0.9833 0.0
C897 C 0.46841 0.28451 0.98819 0.0
C898 C 0.48491 0.29689 0.97396 0.0
C899 C 0.48859 0.28424 0.96928 0.0
C900 C 0.48223 0.27173 0.97436 0.0
C901 C 0.47227 0.27186 0.98372 0.0
C902 C 0.50658 0.27483 0.93789 0.0
C903 C 0.51791 0.2841 0.9387 0.0
C904 C 0.49715 0.27482 0.94786 0.0
C905 C 0.4988 0.28409 0.95887 0.0
C906 C 0.51015 0.29332 0.95972 0.0
C907 C 0.51961 0.29332 0.94976 0.0
H908 H 0.79917 0.53329 0.94227 0.0
H909 H 0.77834 0.55303 0.973 0.0
H910 H 0.79593 0.51124 0.95518 0.0
H911 H 0.7754 0.53116 0.986 0.0
H912 H 0.76131 0.48712 0.99916 0.0
H913 H 0.76381 0.50837 0.98502 0.0
H914 H 0.80321 0.50047 0.97671 0.0
H915 H 0.80062 0.47901 0.9906 0.0
C916 C 0.79391 0.53294 0.95177 0.0
C917 C 0.78901 0.54493 0.95659 0.0
C918 C 0.79212 0.52032 0.95921 0.0
C919 C 0.78541 0.51943 0.97163 0.0
C920 C 0.78044 0.53141 0.97637 0.0
C921 C 0.7822 0.54399 0.96894 0.0
C922 C 0.77051 0.48989 0.9943 0.0
C923 C 0.78078 0.48139 0.99605 0.0
C924 C 0.77195 0.50212 0.98624 0.0
C925 C 0.78373 0.50615 0.97977 0.0
C926 C 0.79396 0.49758 0.98141 0.0
C927 C 0.7925 0.48532 0.98945 0.0
H928 H 0.56484 0.77476 0.95534 0.0
H929 H 0.57483 0.81834 0.94587 0.0
H930 H 0.58166 0.77557 0.97364 0.0
H931 H 0.59189 0.81906 0.96406 0.0
H932 H 0.61719 0.77844 0.0017 0.0
H933 H 0.60473 0.77844 0.97977 0.0
H934 H 0.59163 0.81816 0.98915 0.0
H935 H 0.60425 0.81832 0.01087 0.0
C936 C 0.57079 0.78446 0.95698 0.0
C937 C 0.56837 0.79653 0.94923 0.0
C938 C 0.58051 0.7849 0.96743 0.0
C939 C 0.58807 0.79741 0.97039 0.0
C940 C 0.5861 0.80931 0.96217 0.0
C941 C 0.57637 0.80888 0.9517 0.0
C942 C 0.61181 0.78728 0.99899 0.0
C943 C 0.61162 0.79832 0.00812 0.0
C944 C 0.60462 0.78723 0.98645 0.0
C945 C 0.59709 0.79824 0.98275 0.0
C946 C 0.59742 0.80958 0.99159 0.0
C947 C 0.6046 0.80962 0.00411 0.0
H948 H 0.74993 0.56916 0.08864 0.0
H949 H 0.78116 0.55914 0.06331 0.0
H950 H 0.74926 0.59137 0.07627 0.0
H951 H 0.78066 0.58153 0.05112 0.0
H952 H 0.76824 0.61789 0.02398 0.0
H953 H 0.76764 0.59492 0.0352 0.0
H954 H 0.76265 0.61325 0.07464 0.0
H955 H 0.76298 0.63612 0.06342 0.0
C956 C 0.75664 0.57167 0.08041 0.0
C957 C 0.76563 0.56239 0.07701 0.0
C958 C 0.75631 0.58446 0.07337 0.0
C959 C 0.76497 0.58829 0.06277 0.0
C960 C 0.77377 0.57886 0.05914 0.0
C961 C 0.77409 0.56605 0.06618 0.0
C962 C 0.76699 0.61701 0.03505 0.0
C963 C 0.76566 0.62885 0.0428 0.0
C964 C 0.7667 0.60385 0.04148 0.0
C965 C 0.76508 0.60223 0.05582 0.0
C966 C 0.76372 0.61408 0.06355 0.0
C967 C 0.76399 0.62723 0.05712 0.0
H968 H 0.42801 0.74137 0.08301 0.0
H969 H 0.4391 0.78349 0.06886 0.0
H970 H 0.44056 0.74578 0.10455 0.0
H971 H 0.45189 0.78775 0.09016 0.0
H972 H 0.48104 0.75278 0.12739 0.0
H973 H 0.46347 0.74852 0.11021 0.0
H974 H 0.4528 0.79027 0.11483 0.0
H975 H 0.4707 0.79467 0.13182 0.0
C976 C 0.43299 0.75162 0.08455 0.0
C977 C 0.43267 0.76202 0.07412 0.0
C978 C 0.44024 0.75412 0.09688 0.0
C979 C 0.44737 0.76706 0.09904 0.0
C980 C 0.44643 0.7777 0.08893 0.0
C981 C 0.43915 0.77522 0.07664 0.0
C982 C 0.47483 0.761 0.12492 0.0
C983 C 0.4774 0.77414 0.13084 0.0
C984 C 0.46467 0.75851 0.11512 0.0
C985 C 0.45677 0.76909 0.11102 0.0
C986 C 0.45884 0.78197 0.11757 0.0
C987 C 0.46905 0.78447 0.12737 0.0
H988 H 0.60677 0.31446 0.06092 0.0
H989 H 0.59259 0.2716 0.05399 0.0
H990 H 0.59377 0.3143 0.08146 0.0
H991 H 0.57942 0.27155 0.07427 0.0
H992 H 0.55295 0.31357 0.10066 0.0
H993 H 0.57065 0.314 0.08479 0.0
H994 H 0.57867 0.27286 0.09919 0.0
H995 H 0.56069 0.27228 0.11491 0.0
C996 C 0.601 0.30496 0.06385 0.0
C997 C 0.60061 0.29309 0.0557 0.0
C998 C 0.59351 0.30489 0.07559 0.0
C999 C 0.58546 0.29296 0.07945 0.0
C1000 C 0.58561 0.28088 0.0717 0.0
C1001 C 0.59309 0.28094 0.05998 0.0
C1002 C 0.5586 0.30468 0.10063 0.0
C1003 C 0.55527 0.29281 0.10893 0.0
C1004 C 0.56884 0.30498 0.09157 0.0
C1005 C 0.57601 0.29341 0.09062 0.0
C1006 C 0.57319 0.28185 0.09951 0.0
C1007 C 0.56293 0.28155 0.10858 0.0
H1008 H 0.99822 0.83341 0.59531 0.0
H1009 H 0.97768 0.80143 0.62037 0.0
H1010 H 0.97947 0.83366 0.57956 0.0
H1011 H 0.95855 0.80204 0.6048 0.0
H1012 H 0.93795 0.79206 0.56201 0.0
H1013 H 0.95264 0.79436 0.58219 0.0
H1014 H 0.95796 0.83883 0.57483 0.0
H1015 H 0.9437 0.8364 0.55423 0.0
C1016 C 0.98958 0.82663 0.59764 0.0
C1017 C 0.98952 0.81727 0.60901 0.0
C1018 C 0.97872 0.82685 0.58864 0.0
C1019 C 0.96745 0.81782 0.59082 0.0
C1020 C 0.96714 0.80898 0.60265 0.0
C1021 C 0.97808 0.80868 0.61163 0.0
C1022 C 0.94205 0.80236 0.56484 0.0
C1023 C 0.93984 0.81401 0.55637 0.0
C1024 C 0.95045 0.80371 0.5765 0.0
C1025 C 0.95671 0.81677 0.58006 0.0
C1026 C 0.95361 0.82856 0.5722 0.0
C1027 C 0.94536 0.82719 0.56043 0.0
H1028 H 0.25342 0.92219 0.56651 0.0
H1029 H 0.26319 0.95578 0.53728 0.0
H1030 H 0.25582 0.93845 0.58523 0.0
H1031 H 0.26452 0.97229 0.55587 0.0
H1032 H 0.27964 0.99585 0.59488 0.0
H1033 H 0.27719 0.98037 0.57524 0.0
H1034 H 0.24578 0.95588 0.59544 0.0
H1035 H 0.24871 0.97098 0.6152 0.0
C1036 C 0.25585 0.9331 0.56401 0.0
C1037 C 0.25774 0.93767 0.55025 0.0
C1038 C 0.25709 0.94249 0.57478 0.0
C1039 C 0.26014 0.95679 0.57212 0.0
C1040 C 0.26216 0.96137 0.55836 0.0
C1041 C 0.26109 0.9519 0.54758 0.0
C1042 C 0.27213 0.98725 0.59499 0.0
C1043 C 0.26436 0.98461 0.60654 0.0
C1044 C 0.27069 0.97835 0.58373 0.0
C1045 C 0.26134 0.96675 0.58373 0.0
C1046 C 0.25332 0.96445 0.59517 0.0
C1047 C 0.25492 0.97317 0.60648 0.0
H1048 H 0.06049 0.28295 0.65325 0.0
H1049 H 0.0335 0.30257 0.62569 0.0
H1050 H 0.07658 0.28489 0.63526 0.0
H1051 H 0.04951 0.30432 0.60761 0.0
H1052 H 0.08696 0.3193 0.58519 0.0
H1053 H 0.07135 0.31741 0.60361 0.0
H1054 H 0.07941 0.2749 0.61192 0.0
H1055 H 0.09504 0.27674 0.5935 0.0
C1056 C 0.05797 0.28759 0.64331 0.0
C1057 C 0.04566 0.29239 0.64078 0.0
C1058 C 0.06715 0.28864 0.633 0.0
C1059 C 0.06429 0.29472 0.62003 0.0
C1060 C 0.052 0.29962 0.61754 0.0
C1061 C 0.04276 0.29843 0.62781 0.0
C1062 C 0.08549 0.30957 0.59101 0.0
C1063 C 0.09224 0.29815 0.58786 0.0
C1064 C 0.07647 0.30847 0.60148 0.0
C1065 C 0.0741 0.29598 0.60914 0.0
C1066 C 0.08108 0.28468 0.60624 0.0
C1067 C 0.09001 0.28573 0.59566 0.0
H1068 H 0.75318 0.0479 0.61066 0.0
H1069 H 0.78964 0.06855 0.62584 0.0
H1070 H 0.74974 0.06818 0.59555 0.0
H1071 H 0.78636 0.08858 0.61046 0.0
H1072 H 0.77919 0.11498 0.56962 0.0
H1073 H 0.78234 0.09264 0.58139 0.0
H1074 H 0.74793 0.09579 0.60457 0.0
H1075 H 0.74496 0.11827 0.59312 0.0
C1076 C 0.76058 0.05662 0.61051 0.0
C1077 C 0.7717 0.05668 0.61934 0.0
C1078 C 0.75858 0.0682 0.60195 0.0
C1079 C 0.76784 0.07982 0.60185 0.0
C1080 C 0.77916 0.07966 0.6103 0.0
C1081 C 0.781 0.06826 0.61911 0.0
C1082 C 0.77218 0.11076 0.57704 0.0
C1083 C 0.76179 0.11826 0.58043 0.0
C1084 C 0.77403 0.09806 0.5838 0.0
C1085 C 0.76532 0.09255 0.59378 0.0
C1086 C 0.75468 0.09981 0.5968 0.0
C1087 C 0.75303 0.11265 0.59032 0.0
H1088 H 0.96477 0.2757 0.49132 0.0
H1089 H 0.95262 0.23285 0.48197 0.0
H1090 H 0.98138 0.27621 0.47402 0.0
H1091 H 0.96917 0.23343 0.46458 0.0
H1092 H 0.01163 0.23609 0.44938 0.0
H1093 H 0.99319 0.23499 0.46447 0.0
H1094 H 0.98373 0.27517 0.44865 0.0
H1095 H 0.00228 0.27636 0.43362 0.0
C1096 C 0.9656 0.26641 0.48554 0.0
C1097 C 0.9574 0.25422 0.48807 0.0
C1098 C 0.97505 0.26674 0.47554 0.0
C1099 C 0.97656 0.25487 0.46791 0.0
C1100 C 0.9683 0.24271 0.47037 0.0
C1101 C 0.9588 0.2424 0.48031 0.0
C1102 C 0.00553 0.24463 0.44898 0.0
C1103 C 0.00848 0.25636 0.44036 0.0
C1104 C 0.99493 0.24396 0.4576 0.0
C1105 C 0.98707 0.25505 0.45783 0.0
C1106 C 0.98973 0.26656 0.44884 0.0
C1107 C 1.0003 0.26719 0.44015 0.0
H1108 H 0.76019 0.95437 0.43736 0.0
H1109 H 0.75983 0.96594 0.48016 0.0
H1110 H 0.76374 0.93057 0.44475 0.0
H1111 H 0.76355 0.94236 0.48748 0.0
H1112 H 0.75602 0.89601 0.49591 0.0
H1113 H 0.75185 0.91921 0.48737 0.0
H1114 H 0.78055 0.91725 0.45634 0.0
H1115 H 0.7846 0.89388 0.46486 0.0
C1116 C 0.76087 0.95185 0.44832 0.0
C1117 C 0.75969 0.96204 0.45817 0.0
C1118 C 0.76299 0.93825 0.45255 0.0
C1119 C 0.76389 0.93457 0.4667 0.0
C1120 C 0.76271 0.94479 0.4765 0.0
C1121 C 0.76064 0.95835 0.47229 0.0
C1122 C 0.76162 0.90066 0.48745 0.0
C1123 C 0.77093 0.89338 0.48133 0.0
C1124 C 0.75919 0.9139 0.48251 0.0
C1125 C 0.76604 0.92017 0.47135 0.0
C1126 C 0.7751 0.91269 0.46494 0.0
C1127 C 0.77747 0.89937 0.46985 0.0
H1128 H 0.071 0.766 0.39861 0.0
H1129 H 0.04428 0.79637 0.40643 0.0
H1130 H 0.0795 0.76766 0.42248 0.0
H1131 H 0.05264 0.79796 0.43028 0.0
H1132 H 0.06069 0.78541 0.47549 0.0
H1133 H 0.05264 0.78389 0.45157 0.0
H1134 H 0.09202 0.78381 0.4381 0.0
H1135 H 0.10011 0.7851 0.46213 0.0
C1136 C 0.06691 0.77298 0.40546 0.0
C1137 C 0.0567 0.78073 0.40078 0.0
C1138 C 0.07182 0.77399 0.4191 0.0
C1139 C 0.06667 0.78285 0.42833 0.0
C1140 C 0.0566 0.79078 0.42354 0.0
C1141 C 0.05171 0.78977 0.4099 0.0
C1142 C 0.06766 0.78509 0.46744 0.0
C1143 C 0.08105 0.78538 0.47073 0.0
C1144 C 0.06303 0.78429 0.45371 0.0
C1145 C 0.07168 0.78376 0.44292 0.0
C1146 C 0.08509 0.78405 0.44619 0.0
C1147 C 0.08973 0.78487 0.45995 0.0
H1148 H 0.27744 0.14465 0.45719 0.0
H1149 H 0.27506 0.11889 0.49442 0.0
H1150 H 0.27653 0.16534 0.47106 0.0
H1151 H 0.27397 0.13938 0.5081 0.0
H1152 H 0.28577 0.17901 0.53045 0.0
H1153 H 0.28804 0.15973 0.51534 0.0
H1154 H 0.26121 0.17645 0.4854 0.0
H1155 H 0.25899 0.19588 0.50065 0.0
C1156 C 0.27673 0.1434 0.4683 0.0
C1157 C 0.27637 0.13013 0.4747 0.0
C1158 C 0.27614 0.15523 0.47623 0.0
C1159 C 0.27525 0.15401 0.49069 0.0
C1160 C 0.27487 0.14072 0.49702 0.0
C1161 C 0.27542 0.12895 0.48914 0.0
C1162 C 0.28023 0.17847 0.52073 0.0
C1163 C 0.27188 0.18866 0.5169 0.0
C1164 C 0.28158 0.16747 0.51203 0.0
C1165 C 0.27462 0.16642 0.49928 0.0
C1166 C 0.26671 0.17698 0.49515 0.0
C1167 C 0.2654 0.18805 0.50388 0.0
H1168 H 0.6385 0.0055 0.77311 0.0
H1169 H 0.66222 0.97795 0.79635 0.0
H1170 H 0.62022 0.98755 0.77317 0.0
H1171 H 0.64402 0.95992 0.79624 0.0
H1172 H 0.61403 0.9264 0.77903 0.0
H1173 H 0.63178 0.94486 0.77951 0.0
H1174 H 0.60484 0.97447 0.7891 0.0
H1175 H 0.58707 0.95592 0.7888 0.0
C1176 C 0.63973 0.99576 0.77853 0.0
C1177 C 0.65172 0.99328 0.78501 0.0
C1178 C 0.62928 0.98542 0.77846 0.0
C1179 C 0.63065 0.97232 0.78474 0.0
C1180 C 0.64268 0.96984 0.79118 0.0
C1181 C 0.65309 0.98019 0.79128 0.0
C1182 C 0.61187 0.93684 0.78125 0.0
C1183 C 0.59906 0.93972 0.78361 0.0
C1184 C 0.62207 0.94742 0.78158 0.0
C1185 C 0.61972 0.96114 0.78432 0.0
C1186 C 0.60692 0.96404 0.78672 0.0
C1187 C 0.5967 0.95342 0.78643 0.0
H1188 H 0.07778 0.67187 0.78372 0.0
H1189 H 0.04237 0.6552 0.80285 0.0
H1190 H 0.08658 0.64943 0.78704 0.0
H1191 H 0.05077 0.63257 0.80538 0.0
H1192 H 0.07452 0.59805 0.82143 0.0
H1193 H 0.06658 0.62092 0.81858 0.0
H1194 H 0.08435 0.62621 0.77882 0.0
H1195 H 0.09264 0.60351 0.78188 0.0
C1196 C 0.07179 0.66334 0.78844 0.0
C1197 C 0.05922 0.66523 0.79267 0.0
C1198 C 0.07679 0.65045 0.79025 0.0
C1199 C 0.06937 0.63913 0.7964 0.0
C1200 C 0.05681 0.64106 0.80068 0.0
C1201 C 0.05183 0.65398 0.79892 0.0
C1202 C 0.07681 0.60413 0.81212 0.0
C1203 C 0.08421 0.59894 0.80188 0.0
C1204 C 0.07216 0.61721 0.81043 0.0
C1205 C 0.07471 0.6254 0.79841 0.0
C1206 C 0.0823 0.62028 0.78827 0.0
C1207 C 0.08702 0.60723 0.79001 0.0
H1208 H 0.48072 0.10614 0.75384 0.0
H1209 H 0.49846 0.06749 0.7525 0.0
H1210 H 0.45937 0.09366 0.74914 0.0
H1211 H 0.47723 0.05504 0.7482 0.0
H1212 H 0.43903 0.0371 0.72971 0.0
H1213 H 0.45979 0.05139 0.73127 0.0
H1214 H 0.44385 0.07752 0.7606 0.0
H1215 H 0.42306 0.06328 0.75885 0.0
C1216 C 0.48007 0.095 0.75255 0.0
C1217 C 0.49129 0.08781 0.75358 0.0
C1218 C 0.46784 0.08783 0.74991 0.0
C1219 C 0.46657 0.07334 0.74828 0.0
C1220 C 0.47784 0.06622 0.74916 0.0
C1221 C 0.49003 0.07337 0.75174 0.0
C1222 C 0.44001 0.04586 0.73654 0.0
C1223 C 0.42958 0.04889 0.74443 0.0
C1224 C 0.45188 0.05408 0.7374 0.0
C1225 C 0.45357 0.06549 0.74623 0.0
C1226 C 0.44289 0.06888 0.75364 0.0
C1227 C 0.43099 0.0607 0.75268 0.0
H1228 H 0.96832 0.45268 0.7759 0.0
H1229 H 0.96379 0.43776 0.81811 0.0
H1230 H 0.95185 0.46859 0.77878 0.0
H1231 H 0.94696 0.45345 0.82088 0.0
H1232 H 0.93729 0.49913 0.82584 0.0
H1233 H 0.94798 0.47812 0.8232 0.0
H1234 H 0.92979 0.47291 0.78246 0.0
H1235 H 0.91935 0.49427 0.78497 0.0
C1236 C 0.96358 0.45254 0.7857 0.0
C1237 C 0.96755 0.44412 0.79685 0.0
C1238 C 0.95403 0.46162 0.78733 0.0
C1239 C 0.94817 0.46244 0.80013 0.0
C1240 C 0.95147 0.45328 0.81097 0.0
C1241 C 0.96107 0.44423 0.80936 0.0
C1242 C 0.93537 0.4934 0.8164 0.0
C1243 C 0.92763 0.49852 0.80553 0.0
C1244 C 0.94144 0.48124 0.81492 0.0
C1245 C 0.93987 0.47387 0.80254 0.0
C1246 C 0.93141 0.47848 0.79203 0.0
C1247 C 0.92536 0.49069 0.7935 0.0
H1248 H 0.59963 0.08919 0.27928 0.0
H1249 H 0.60685 0.10957 0.31838 0.0
H1250 H 0.58642 0.10745 0.27118 0.0
H1251 H 0.59396 0.12818 0.31008 0.0
H1252 H 0.5533 0.14294 0.29892 0.0
H1253 H 0.57128 0.12974 0.30622 0.0
H1254 H 0.58432 0.13098 0.26425 0.0
H1255 H 0.56596 0.14386 0.25682 0.0
C1256 C 0.59866 0.09775 0.28605 0.0
C1257 C 0.60413 0.09779 0.29957 0.0
C1258 C 0.59113 0.10832 0.28135 0.0
C1259 C 0.58897 0.11925 0.29002 0.0
C1260 C 0.59518 0.11977 0.30322 0.0
C1261 C 0.60265 0.10913 0.30796 0.0
C1262 C 0.5601 0.14062 0.29126 0.0
C1263 C 0.55806 0.1443 0.27724 0.0
C1264 C 0.57052 0.1331 0.29548 0.0
C1265 C 0.57922 0.12914 0.28581 0.0
C1266 C 0.57766 0.13361 0.27193 0.0
C1267 C 0.56718 0.14108 0.26768 0.0
H1268 H 0.97804 0.62057 0.25777 0.0
H1269 H 0.99923 0.61234 0.22171 0.0
H1270 H 0.95929 0.60574 0.24891 0.0
H1271 H 0.98086 0.59716 0.21318 0.0
H1272 H 0.94708 0.57069 0.19803 0.0
H1273 H 0.95942 0.5925 0.20433 0.0
H1274 H 0.95501 0.58141 0.24761 0.0
H1275 H 0.94224 0.56004 0.2413 0.0
C1276 C 0.97863 0.61577 0.24786 0.0
C1277 C 0.99021 0.61744 0.24056 0.0
C1278 C 0.96791 0.60719 0.24281 0.0
C1279 C 0.96859 0.60003 0.23043 0.0
C1280 C 0.97986 0.60256 0.22267 0.0
C1281 C 0.9905 0.61122 0.22764 0.0
C1282 C 0.94846 0.57311 0.20888 0.0
C1283 C 0.94387 0.56352 0.21916 0.0
C1284 C 0.95562 0.58557 0.2125 0.0
C1285 C 0.95849 0.58862 0.22649 0.0
C1286 C 0.95296 0.57953 0.23673 0.0
C1287 C 0.94567 0.56717 0.23311 0.0
H1288 H 0.47414 0.97216 0.3254 0.0
H1289 H 0.46098 0.95516 0.28592 0.0
H1290 H 0.45558 0.98576 0.3252 0.0
H1291 H 0.44206 0.96851 0.28592 0.0
H1292 H 0.4238 0.01071 0.28191 0.0
H1293 H 0.43842 0.99244 0.28269 0.0
H1294 H 0.43268 0.98631 0.32653 0.0
H1295 H 0.41835 0.00498 0.32583 0.0
C1296 C 0.46714 0.97111 0.31678 0.0
C1297 C 0.46914 0.96269 0.3056 0.0
C1298 C 0.4564 0.97885 0.31672 0.0
C1299 C 0.44731 0.97831 0.30551 0.0
C1300 C 0.44897 0.96936 0.29462 0.0
C1301 C 0.45978 0.96164 0.29465 0.0
C1302 C 0.42548 0.00533 0.29169 0.0
C1303 C 0.42005 0.00947 0.30385 0.0
C1304 C 0.43383 0.99476 0.29212 0.0
C1305 C 0.43688 0.98798 0.30471 0.0
C1306 C 0.43077 0.99151 0.31671 0.0
C1307 C 0.42248 0.00216 0.3163 0.0
H1308 H 0.15173 0.48018 0.28982 0.0
H1309 H 0.12727 0.50762 0.26747 0.0
H1310 H 0.13419 0.46152 0.28877 0.0
H1311 H 0.10968 0.48891 0.26629 0.0
H1312 H 0.0772 0.45529 0.27924 0.0
H1313 H 0.09421 0.47461 0.28014 0.0
H1314 H 0.12296 0.44634 0.27235 0.0
H1315 H 0.10598 0.42709 0.27161 0.0
C1316 C 0.14258 0.48223 0.28469 0.0
C1317 C 0.14083 0.49544 0.27892 0.0
C1318 C 0.13253 0.47151 0.28401 0.0
C1319 C 0.12051 0.47367 0.2774 0.0
C1320 C 0.11873 0.48693 0.27166 0.0
C1321 C 0.1288 0.4977 0.2724 0.0
C1322 C 0.0871 0.45327 0.27744 0.0
C1323 C 0.09021 0.43969 0.27516 0.0
C1324 C 0.09688 0.46433 0.27802 0.0
C1325 C 0.10998 0.46205 0.27636 0.0
C1326 C 0.11302 0.44846 0.27393 0.0
C1327 C 0.10327 0.43743 0.27342 0.0
H1328 H 0.7535 0.67244 0.01174 0.0
H1329 H 0.78131 0.69834 0.98798 0.0
H1330 H 0.75515 0.65333 0.99622 0.0
H1331 H 0.78261 0.67937 0.97203 0.0
H1332 H 0.79423 0.63611 0.95975 0.0
H1333 H 0.79151 0.65691 0.97259 0.0
H1334 H 0.75003 0.64561 0.97293 0.0
H1335 H 0.75278 0.62466 0.96035 0.0
C1336 C 0.76005 0.674 0.00326 0.0
C1337 C 0.76759 0.68671 0.00131 0.0
C1338 C 0.76081 0.66313 0.99419 0.0
C1339 C 0.76909 0.66478 0.98292 0.0
C1340 C 0.7763 0.67769 0.98073 0.0
C1341 C 0.7755 0.68857 0.98979 0.0
C1342 C 0.78451 0.63815 0.96241 0.0
C1343 C 0.77374 0.62865 0.95914 0.0
C1344 C 0.78294 0.65012 0.96973 0.0
C1345 C 0.77056 0.65286 0.97391 0.0
C1346 C 0.75973 0.64367 0.97009 0.0
C1347 C 0.7613 0.6317 0.9628 0.0
H1348 H 0.77089 0.47169 0.12189 0.0
H1349 H 0.78372 0.50146 0.09 0.0
H1350 H 0.76636 0.45392 0.10459 0.0
H1351 H 0.77905 0.48366 0.07261 0.0
H1352 H 0.77517 0.42227 0.07297 0.0
H1353 H 0.77894 0.44069 0.08973 0.0
H1354 H 0.76077 0.46885 0.06131 0.0
H1355 H 0.7568 0.45029 0.04461 0.0
C1356 C 0.77268 0.47448 0.11117 0.0
C1357 C 0.7775 0.48808 0.10732 0.0
C1358 C 0.77012 0.46427 0.10125 0.0
C1359 C 0.77237 0.46736 0.08723 0.0
C1360 C 0.77704 0.481 0.08332 0.0
C1361 C 0.77963 0.49125 0.09328 0.0
C1362 C 0.77197 0.43239 0.07029 0.0
C1363 C 0.76595 0.4349 0.05732 0.0
C1364 C 0.77409 0.44294 0.07992 0.0
C1365 C 0.77019 0.45625 0.07684 0.0
C1366 C 0.76411 0.45877 0.06388 0.0
C1367 C 0.76194 0.44817 0.05426 0.0
H1368 H 0.59637 0.8363 0.08774 0.0
H1369 H 0.60733 0.79492 0.09705 0.0
H1370 H 0.58163 0.83413 0.10682 0.0
H1371 H 0.59278 0.79289 0.11644 0.0
H1372 H 0.55062 0.78742 0.13225 0.0
H1373 H 0.56949 0.78993 0.1179 0.0
H1374 H 0.5785 0.83212 0.13137 0.0
H1375 H 0.55931 0.82972 0.14554 0.0
C1376 C 0.59584 0.82684 0.09404 0.0
C1377 C 0.60289 0.81571 0.09073 0.0
C1378 C 0.58744 0.82563 0.10507 0.0
C1379 C 0.58591 0.81328 0.11311 0.0
C1380 C 0.59355 0.80245 0.11031 0.0
C1381 C 0.60194 0.80365 0.09923 0.0
C1382 C 0.55671 0.79719 0.13233 0.0
C1383 C 0.55334 0.80843 0.13992 0.0
C1384 C 0.56762 0.79859 0.12416 0.0
C1385 C 0.57549 0.81126 0.12339 0.0
C1386 C 0.57253 0.82228 0.13156 0.0
C1387 C 0.56157 0.82089 0.13974 0.0
H1388 H 0.2716 0.5862 0.13364 0.0
H1389 H 0.26302 0.56084 0.09776 0.0
H1390 H 0.27087 0.60702 0.1191 0.0
H1391 H 0.26251 0.58175 0.08318 0.0
H1392 H 0.27833 0.62375 0.06154 0.0
H1393 H 0.27763 0.60189 0.0749 0.0
H1394 H 0.2548 0.61928 0.1054 0.0
H1395 H 0.25537 0.64103 0.09198 0.0
C1396 C 0.26958 0.58501 0.12264 0.0
C1397 C 0.26757 0.57174 0.11689 0.0
C1398 C 0.26911 0.59699 0.11432 0.0
C1399 C 0.26663 0.59604 0.09998 0.0
C1400 C 0.26461 0.58281 0.09417 0.0
C1401 C 0.26499 0.57079 0.10255 0.0
C1402 C 0.27282 0.62276 0.07086 0.0
C1403 C 0.26671 0.63404 0.07557 0.0
C1404 C 0.27251 0.61027 0.07858 0.0
C1405 C 0.26619 0.60887 0.09123 0.0
C1406 C 0.2599 0.62009 0.09579 0.0
C1407 C 0.26019 0.63253 0.08808 0.0
H1408 H 0.41771 0.28207 0.06231 0.0
H1409 H 0.43838 0.31024 0.03359 0.0
H1410 H 0.43679 0.28363 0.07817 0.0
H1411 H 0.4574 0.31183 0.04934 0.0
H1412 H 0.49332 0.29672 0.07134 0.0
H1413 H 0.47356 0.29641 0.05693 0.0
H1414 H 0.45098 0.29898 0.0933 0.0
H1415 H 0.47089 0.29903 0.10787 0.0
C1416 C 0.42631 0.28867 0.05945 0.0
C1417 C 0.42673 0.2957 0.04654 0.0
C1418 C 0.43721 0.28961 0.06854 0.0
C1419 C 0.4487 0.29767 0.06492 0.0
C1420 C 0.44885 0.3052 0.05227 0.0
C1421 C 0.43798 0.30424 0.0432 0.0
C1422 C 0.48417 0.29722 0.07631 0.0
C1423 C 0.4837 0.29792 0.09077 0.0
C1424 C 0.47283 0.29715 0.06802 0.0
C1425 C 0.46069 0.29779 0.07394 0.0
C1426 C 0.46017 0.29839 0.08842 0.0
C1427 C 0.47157 0.29847 0.09676 0.0
H1428 H 0.27552 0.40318 0.99712 0.0
H1429 H 0.2385 0.38842 0.97812 0.0
H1430 H 0.273 0.42654 0.98791 0.0
H1431 H 0.23588 0.41184 0.96888 0.0
H1432 H 0.24037 0.45414 0.94588 0.0
H1433 H 0.24412 0.4303 0.95287 0.0
H1434 H 0.25933 0.4447 0.99269 0.0
H1435 H 0.25586 0.4684 0.98565 0.0
C1436 C 0.26679 0.40498 0.99106 0.0
C1437 C 0.25703 0.39412 0.98866 0.0
C1438 C 0.26535 0.41834 0.98573 0.0
C1439 C 0.25413 0.42112 0.97784 0.0
C1440 C 0.24466 0.41006 0.97487 0.0
C1441 C 0.24613 0.39666 0.98018 0.0
C1442 C 0.24455 0.45219 0.9561 0.0
C1443 C 0.24783 0.46318 0.9652 0.0
C1444 C 0.24665 0.43853 0.96013 0.0
C1445 C 0.25209 0.4356 0.97331 0.0
C1446 C 0.25535 0.44661 0.98237 0.0
C1447 C 0.25327 0.46021 0.97836 0.0
H1448 H 0.60449 0.26794 0.96836 0.0
H1449 H 0.59538 0.31069 0.9662 0.0
H1450 H 0.59574 0.26468 0.9448 0.0
H1451 H 0.58692 0.30751 0.94255 0.0
H1452 H 0.55839 0.29237 0.90799 0.0
H1453 H 0.56818 0.29559 0.93108 0.0
H1454 H 0.59919 0.27114 0.92066 0.0
H1455 H 0.58893 0.26734 0.8977 0.0
C1456 C 0.60078 0.27669 0.9628 0.0
C1457 C 0.60055 0.28955 0.96921 0.0
C1458 C 0.59581 0.27484 0.94926 0.0
C1459 C 0.59052 0.2858 0.94182 0.0
C1460 C 0.59069 0.29877 0.94808 0.0
C1461 C 0.59563 0.30062 0.96162 0.0
C1462 C 0.56707 0.28733 0.91076 0.0
C1463 C 0.57265 0.27921 0.90121 0.0
C1464 C 0.57286 0.28944 0.9239 0.0
C1465 C 0.58447 0.2836 0.92775 0.0
C1466 C 0.59016 0.27562 0.9181 0.0
C1467 C 0.58433 0.27351 0.90494 0.0
H1468 H 0.4851 0.78395 0.93617 0.0
H1469 H 0.49711 0.74543 0.95378 0.0
H1470 H 0.46486 0.78026 0.94855 0.0
H1471 H 0.47719 0.74197 0.96643 0.0
H1472 H 0.4383 0.73501 0.98461 0.0
H1473 H 0.4541 0.73732 0.96639 0.0
H1474 H 0.45943 0.7817 0.97222 0.0
H1475 H 0.44339 0.77945 0.99003 0.0
C1476 C 0.48336 0.77463 0.94255 0.0
C1477 C 0.4928 0.76507 0.94411 0.0
C1478 C 0.47179 0.77254 0.94971 0.0
C1479 C 0.46942 0.76089 0.95862 0.0
C1480 C 0.47857 0.75099 0.95956 0.0
C1481 C 0.49009 0.75303 0.95237 0.0
C1482 C 0.44267 0.74529 0.98181 0.0
C1483 C 0.4397 0.75701 0.98891 0.0
C1484 C 0.45179 0.74661 0.97142 0.0
C1485 C 0.45819 0.75968 0.96794 0.0
C1486 C 0.45463 0.77149 0.97449 0.0
C1487 C 0.44547 0.77018 0.98482 0.0
H1488 H 0.06902 0.31419 0.36423 0.0
H1489 H 0.03606 0.3355 0.37504 0.0
H1490 H 0.07306 0.33053 0.34492 0.0
H1491 H 0.03967 0.35145 0.35536 0.0
H1492 H 0.05605 0.38586 0.32664 0.0
H1493 H 0.05333 0.37022 0.3467 0.0
H1494 H 0.06502 0.33663 0.32282 0.0
H1495 H 0.06831 0.35248 0.30302 0.0
C1496 C 0.06257 0.32231 0.3624 0.0
C1497 C 0.05222 0.32356 0.37115 0.0
C1498 C 0.06483 0.33164 0.35127 0.0
C1499 C 0.05668 0.34234 0.3485 0.0
C1500 C 0.04631 0.34353 0.35728 0.0
C1501 C 0.04417 0.33432 0.36853 0.0
C1502 C 0.0581 0.37515 0.32572 0.0
C1503 C 0.0624 0.3704 0.31325 0.0
C1504 C 0.05645 0.36613 0.33719 0.0
C1505 C 0.05888 0.35209 0.33642 0.0
C1506 C 0.06326 0.3474 0.32392 0.0
C1507 C 0.06508 0.35647 0.31251 0.0
H1508 H 0.69147 0.01509 0.40032 0.0
H1509 H 0.7236 0.03021 0.37495 0.0
H1510 H 0.67619 0.02013 0.38143 0.0
H1511 H 0.70829 0.03543 0.35613 0.0
H1512 H 0.67745 0.02757 0.32086 0.0
H1513 H 0.6929 0.02308 0.33977 0.0
H1514 H 0.668 0.03993 0.36863 0.0
H1515 H 0.65245 0.04425 0.34976 0.0
C1516 C 0.69528 0.01954 0.39073 0.0
C1517 C 0.70876 0.02222 0.38914 0.0
C1518 C 0.68651 0.02251 0.37993 0.0
C1519 C 0.69102 0.02819 0.36727 0.0
C1520 C 0.7045 0.03091 0.36569 0.0
C1521 C 0.71327 0.02798 0.37651 0.0
C1522 C 0.67528 0.03035 0.33123 0.0
C1523 C 0.6637 0.03625 0.3338 0.0
C1524 C 0.68417 0.02784 0.34206 0.0
C1525 C 0.68168 0.03113 0.35572 0.0
C1526 C 0.67014 0.03711 0.35826 0.0
C1527 C 0.66126 0.03966 0.34743 0.0
H1528 H 0.01824 0.66183 0.33115 0.0
H1529 H 0.03365 0.67679 0.29201 0.0
H1530 H 0.0241 0.6847 0.34089 0.0
H1531 H 0.03938 0.69967 0.30174 0.0
H1532 H 0.06 0.73426 0.32825 0.0
H1533 H 0.05467 0.71104 0.31915 0.0
H1534 H 0.01736 0.70853 0.33822 0.0
H1535 H 0.02272 0.73169 0.34744 0.0
C1536 C 0.02287 0.66999 0.32462 0.0
C1537 C 0.02547 0.66749 0.3108 0.0
C1538 C 0.02617 0.68311 0.33019 0.0
C1539 C 0.0322 0.69399 0.32208 0.0
C1540 C 0.03487 0.69146 0.30829 0.0
C1541 C 0.03151 0.67837 0.3027 0.0
C1542 C 0.05068 0.72874 0.33055 0.0
C1543 C 0.04177 0.73483 0.33856 0.0
C1544 C 0.0476 0.71547 0.32526 0.0
C1545 C 0.03558 0.70797 0.32794 0.0
C1546 C 0.02675 0.71399 0.33609 0.0
C1547 C 0.0298 0.72729 0.34131 0.0
H1548 H 0.3823 0.07506 0.35986 0.0
H1549 H 0.35024 0.06308 0.33142 0.0
H1550 H 0.36706 0.0806 0.37698 0.0
H1551 H 0.3349 0.06789 0.34877 0.0
H1552 H 0.31054 0.08965 0.37789 0.0
H1553 H 0.326 0.08535 0.36046 0.0
H1554 H 0.35202 0.07072 0.39255 0.0
H1555 H 0.33686 0.07573 0.40995 0.0
C1556 C 0.37197 0.07348 0.35732 0.0
C1557 C 0.36747 0.06863 0.34429 0.0
C1558 C 0.3632 0.07657 0.36718 0.0
C1559 C 0.34968 0.07466 0.36436 0.0
C1560 C 0.34521 0.06975 0.35129 0.0
C1561 C 0.35401 0.06688 0.34134 0.0
C1562 C 0.3196 0.08557 0.3812 0.0
C1563 C 0.3225 0.08307 0.39529 0.0
C1564 C 0.32844 0.083 0.37119 0.0
C1565 C 0.34032 0.07765 0.37502 0.0
C1566 C 0.34314 0.0751 0.38917 0.0
C1567 C 0.33439 0.07789 0.39917 0.0
H1568 H 0.0271 0.7173 0.74619 0.0
H1569 H 0.06489 0.74073 0.74744 0.0
H1570 H 0.0224 0.72752 0.72342 0.0
H1571 H 0.06022 0.75082 0.72461 0.0
H1572 H 0.04057 0.77816 0.69193 0.0
H1573 H 0.04562 0.76733 0.7143 0.0
H1574 H 0.02934 0.7275 0.69929 0.0
H1575 H 0.02414 0.73835 0.67693 0.0
C1576 C 0.03444 0.72456 0.74157 0.0
C1577 C 0.04636 0.72823 0.74865 0.0
C1578 C 0.03176 0.73036 0.7285 0.0
C1579 C 0.04092 0.74001 0.72223 0.0
C1580 C 0.0529 0.74355 0.72924 0.0
C1581 C 0.0556 0.7377 0.74229 0.0
C1582 C 0.03807 0.76709 0.69339 0.0
C1583 C 0.03194 0.75912 0.68265 0.0
C1584 C 0.04104 0.76087 0.70618 0.0
C1585 C 0.0379 0.74655 0.70856 0.0
C1586 C 0.03176 0.73858 0.69782 0.0
C1587 C 0.02885 0.74479 0.68499 0.0
H1588 H 0.3647 0.00348 0.71017 0.0
H1589 H 0.35034 0.04257 0.71963 0.0
H1590 H 0.34661 0.99888 0.69342 0.0
H1591 H 0.33227 0.03794 0.70292 0.0
H1592 H 0.30693 0.03006 0.6638 0.0
H1593 H 0.32705 0.03504 0.67761 0.0
H1594 H 0.32257 0.99353 0.69555 0.0
H1595 H 0.30249 0.98852 0.68176 0.0
C1596 C 0.35777 0.01116 0.70857 0.0
C1597 C 0.35892 0.02336 0.71628 0.0
C1598 C 0.34738 0.00848 0.69903 0.0
C1599 C 0.33799 0.01802 0.69691 0.0
C1600 C 0.33941 0.03045 0.70425 0.0
C1601 C 0.34973 0.03307 0.71387 0.0
C1602 C 0.31031 0.02195 0.67058 0.0
C1603 C 0.30308 0.00891 0.67173 0.0
C1604 C 0.32179 0.02483 0.67853 0.0
C1605 C 0.32636 0.01469 0.68768 0.0
C1606 C 0.31936 0.00151 0.68849 0.0
C1607 C 0.30782 0.99867 0.68065 0.0
H1608 H 0.03603 0.32528 0.71879 0.0
H1609 H 0.006 0.33517 0.68881 0.0
H1610 H 0.03376 0.34681 0.73063 0.0
H1611 H 0.00358 0.35658 0.7008 0.0
H1612 H 0.0122 0.40041 0.71761 0.0
H1613 H 0.01518 0.37922 0.70547 0.0
H1614 H 0.01812 0.35695 0.74463 0.0
H1615 H 0.01538 0.37818 0.75677 0.0
C1616 C 0.02893 0.33203 0.71473 0.0
C1617 C 0.02119 0.3285 0.70285 0.0
C1618 C 0.02758 0.34434 0.72157 0.0
C1619 C 0.01847 0.35341 0.71668 0.0
C1620 C 0.0108 0.34991 0.70474 0.0
C1621 C 0.01214 0.3376 0.69791 0.0
C1622 C 0.01351 0.391 0.72363 0.0
C1623 C 0.01355 0.39099 0.73816 0.0
C1624 C 0.01514 0.37884 0.71667 0.0
C1625 C 0.01687 0.36639 0.72408 0.0
C1626 C 0.01697 0.3664 0.73861 0.0
C1627 C 0.01532 0.37856 0.74557 0.0
H1628 H 0.73833 0.01867 0.68039 0.0
H1629 H 0.77105 0.03432 0.70649 0.0
H1630 H 0.72446 0.01698 0.70037 0.0
H1631 H 0.75715 0.03261 0.72644 0.0
H1632 H 0.73161 0.01162 0.76064 0.0
H1633 H 0.74527 0.01352 0.74051 0.0
H1634 H 0.7153 0.03289 0.71688 0.0
H1635 H 0.70159 0.031 0.73701 0.0
C1636 C 0.74256 0.02178 0.69038 0.0
C1637 C 0.7558 0.02662 0.69186 0.0
C1638 C 0.73459 0.02087 0.7018 0.0
C1639 C 0.73973 0.02463 0.71496 0.0
C1640 C 0.75296 0.0295 0.71644 0.0
C1641 C 0.76089 0.03055 0.705 0.0
C1642 C 0.72791 0.01626 0.75115 0.0
C1643 C 0.71552 0.02116 0.75042 0.0
C1644 C 0.73577 0.01742 0.73966 0.0
C1645 C 0.73136 0.02339 0.72714 0.0
C1646 C 0.71891 0.02816 0.72636 0.0
C1647 C 0.7111 0.02713 0.7379 0.0
H1648 H 0.34082 0.28615 0.02553 0.0
H1649 H 0.36075 0.32663 0.01681 0.0
H1650 H 0.31991 0.29586 0.0223 0.0
H1651 H 0.33978 0.33634 0.01373 0.0
H1652 H 0.29862 0.34936 0.02353 0.0
H1653 H 0.31973 0.34023 0.02805 0.0
H1654 H 0.30818 0.30617 0.00096 0.0
H1655 H 0.28718 0.31532 0.9963 0.0
C1656 C 0.34075 0.29714 0.02308 0.0
C1657 C 0.35244 0.30561 0.02137 0.0
C1658 C 0.32878 0.30267 0.02115 0.0
C1659 C 0.32825 0.31682 0.01769 0.0
C1660 C 0.33992 0.3254 0.01645 0.0
C1661 C 0.35191 0.31983 0.01817 0.0
C1662 C 0.30061 0.33994 0.01852 0.0
C1663 C 0.29125 0.33306 0.00956 0.0
C1664 C 0.31269 0.33476 0.02108 0.0
C1665 C 0.31554 0.32247 0.01491 0.0
C1666 C 0.30618 0.31559 0.00596 0.0
C1667 C 0.29419 0.32088 0.00323 0.0
H1668 H 0.305 0.69644 0.03225 0.0
H1669 H 0.3153 0.69664 0.07595 0.0
H1670 H 0.3274 0.70506 0.02707 0.0
H1671 H 0.3377 0.705 0.07072 0.0
H1672 H 0.37897 0.70422 0.05324 0.0
H1673 H 0.35659 0.69504 0.05767 0.0
H1674 H 0.34227 0.72827 0.0325 0.0
H1675 H 0.36467 0.73764 0.02823 0.0
C1676 C 0.31205 0.69825 0.04073 0.0
C1677 C 0.3084 0.69589 0.05451 0.0
C1678 C 0.32483 0.70323 0.03776 0.0
C1679 C 0.33423 0.70565 0.0485 0.0
C1680 C 0.33063 0.70311 0.06226 0.0
C1681 C 0.31781 0.6984 0.06524 0.0
C1682 C 0.37106 0.70953 0.0486 0.0
C1683 C 0.37356 0.72167 0.04041 0.0
C1684 C 0.35827 0.70431 0.05119 0.0
C1685 C 0.34776 0.71097 0.04543 0.0
C1686 C 0.35023 0.72292 0.03699 0.0
C1687 C 0.36303 0.7283 0.03461 0.0
H1688 H 0.65329 0.35153 0.01807 0.0
H1689 H 0.6719 0.3136 0.02488 0.0
H1690 H 0.67423 0.36509 0.02168 0.0
H1691 H 0.69286 0.32714 0.02818 0.0
H1692 H 0.72579 0.35576 0.04754 0.0
H1693 H 0.70455 0.34268 0.04453 0.0
H1694 H 0.69488 0.37042 0.01071 0.0
H1695 H 0.71601 0.38369 0.01391 0.0
C1696 C 0.66186 0.34608 0.02027 0.0
C1697 C 0.66092 0.33148 0.0212 0.0
C1698 C 0.67387 0.35386 0.02227 0.0
C1699 C 0.68523 0.34721 0.02523 0.0
C1700 C 0.68428 0.3326 0.02612 0.0
C1701 C 0.67227 0.32483 0.02413 0.0
C1702 C 0.71911 0.3591 0.0395 0.0
C1703 C 0.7226 0.37076 0.03096 0.0
C1704 C 0.70697 0.35155 0.03771 0.0
C1705 C 0.69803 0.35546 0.02734 0.0
C1706 C 0.70147 0.36721 0.0189 0.0
C1707 C 0.71361 0.37478 0.02069 0.0
H1708 H 0.68197 0.78919 0.04109 0.0
H1709 H 0.66412 0.74707 0.04522 0.0
H1710 H 0.70283 0.78037 0.03713 0.0
H1711 H 0.68494 0.73826 0.04102 0.0
H1712 H 0.72737 0.72817 0.04734 0.0
H1713 H 0.70657 0.7369 0.05181 0.0
H1714 H 0.71313 0.76817 0.01941 0.0
H1715 H 0.73402 0.75961 0.0151 0.0
C1716 C 0.68249 0.77805 0.04115 0.0
C1717 C 0.67138 0.76883 0.04346 0.0
C1718 C 0.69443 0.77299 0.03879 0.0
C1719 C 0.69554 0.75861 0.03871 0.0
C1720 C 0.68445 0.74939 0.04116 0.0
C1721 C 0.6725 0.75445 0.0435 0.0
C1722 C 0.72437 0.7369 0.04116 0.0
C1723 C 0.73236 0.74321 0.03088 0.0
C1724 C 0.71242 0.74186 0.04368 0.0
C1725 C 0.7082 0.75325 0.03598 0.0
C1726 C 0.71617 0.7595 0.02566 0.0
C1727 C 0.72811 0.75454 0.02313 0.0
H1728 H 0.57978 0.86019 0.81935 0.0
H1729 H 0.54918 0.88655 0.826 0.0
H1730 H 0.57393 0.84664 0.84019 0.0
H1731 H 0.54312 0.8728 0.84664 0.0
H1732 H 0.54399 0.85351 0.89025 0.0
H1733 H 0.5506 0.86755 0.86996 0.0
H1734 H 0.55668 0.83025 0.84843 0.0
H1735 H 0.55038 0.81624 0.86884 0.0
C1736 C 0.57179 0.86309 0.82525 0.0
C1737 C 0.56494 0.87445 0.821 0.0
C1738 C 0.56838 0.85526 0.83715 0.0
C1739 C 0.55802 0.85859 0.84507 0.0
C1740 C 0.55126 0.87004 0.84089 0.0
C1741 C 0.55469 0.87789 0.82901 0.0
C1742 C 0.54675 0.8483 0.88119 0.0
C1743 C 0.54666 0.83375 0.88117 0.0
C1744 C 0.55047 0.85635 0.86953 0.0
C1745 C 0.55417 0.85004 0.85755 0.0
C1746 C 0.55408 0.83548 0.85754 0.0
C1747 C 0.55038 0.82743 0.86922 0.0
H1748 H 0.20371 0.52149 0.88107 0.0
H1749 H 0.17749 0.52857 0.9133 0.0
H1750 H 0.18718 0.5268 0.86361 0.0
H1751 H 0.16118 0.53459 0.89593 0.0
H1752 H 0.12967 0.53073 0.86206 0.0
H1753 H 0.14626 0.52519 0.8793 0.0
H1754 H 0.17611 0.54445 0.85296 0.0
H1755 H 0.15947 0.5493 0.83543 0.0
C1756 C 0.19445 0.52433 0.88442 0.0
C1757 C 0.19188 0.52455 0.89856 0.0
C1758 C 0.18497 0.52747 0.8744 0.0
C1759 C 0.17277 0.53113 0.87829 0.0
C1760 C 0.17032 0.53154 0.89248 0.0
C1761 C 0.17972 0.52817 0.90248 0.0
C1762 C 0.13978 0.53377 0.85997 0.0
C1763 C 0.14326 0.54044 0.84739 0.0
C1764 C 0.14932 0.53069 0.86991 0.0
C1765 C 0.1626 0.5344 0.86762 0.0
C1766 C 0.16604 0.54119 0.85504 0.0
C1767 C 0.15649 0.54407 0.845 0.0
H1768 H 0.57258 0.23374 0.82731 0.0
H1769 H 0.53617 0.22962 0.8483 0.0
H1770 H 0.56705 0.21105 0.81712 0.0
H1771 H 0.53059 0.20699 0.83796 0.0
H1772 H 0.53134 0.16089 0.8276 0.0
H1773 H 0.53725 0.18316 0.83856 0.0
H1774 H 0.55134 0.20063 0.79977 0.0
H1775 H 0.54559 0.17835 0.78884 0.0
C1776 C 0.56341 0.22798 0.82979 0.0
C1777 C 0.55481 0.2335 0.83861 0.0
C1778 C 0.56021 0.21502 0.82387 0.0
C1779 C 0.54835 0.20725 0.82667 0.0
C1780 C 0.53985 0.21266 0.83569 0.0
C1781 C 0.54303 0.22566 0.84156 0.0
C1782 C 0.5357 0.16949 0.8214 0.0
C1783 C 0.538 0.16784 0.80734 0.0
C1784 C 0.53902 0.18226 0.82768 0.0
C1785 C 0.54479 0.19366 0.82004 0.0
C1786 C 0.54708 0.192 0.80598 0.0
C1787 C 0.5437 0.17926 0.79969 0.0
H1788 H 0.81604 0.56729 0.87869 0.0
H1789 H 0.84732 0.58105 0.90748 0.0
H1790 H 0.8319 0.56228 0.86193 0.0
H1791 H 0.86317 0.57631 0.89061 0.0
H1792 H 0.88724 0.55112 0.86354 0.0
H1793 H 0.87135 0.55654 0.88007 0.0
H1794 H 0.84817 0.57367 0.84687 0.0
H1795 H 0.86394 0.568 0.83028 0.0
C1796 C 0.8263 0.56934 0.88141 0.0
C1797 C 0.83041 0.57454 0.89444 0.0
C1798 C 0.83539 0.56654 0.87177 0.0
C1799 C 0.84881 0.56886 0.87493 0.0
C1800 C 0.85291 0.5742 0.88792 0.0
C1801 C 0.84382 0.577 0.89756 0.0
C1802 C 0.87876 0.55604 0.85976 0.0
C1803 C 0.87686 0.55911 0.84558 0.0
C1804 C 0.86968 0.55923 0.86925 0.0
C1805 C 0.8585 0.56557 0.86481 0.0
C1806 C 0.8566 0.56864 0.85063 0.0
C1807 C 0.86568 0.56545 0.84112 0.0
H1808 H 0.52206 0.20807 0.23434 0.0
H1809 H 0.5272 0.17828 0.203 0.0
H1810 H 0.52164 0.22641 0.21659 0.0
H1811 H 0.52717 0.19669 0.18528 0.0
H1812 H 0.51136 0.22942 0.15592 0.0
H1813 H 0.51242 0.2112 0.17371 0.0
H1814 H 0.53487 0.24017 0.20057 0.0
H1815 H 0.53346 0.2585 0.18291 0.0
C1816 C 0.52324 0.20546 0.22367 0.0
C1817 C 0.52462 0.1917 0.22008 0.0
C1818 C 0.52307 0.216 0.21349 0.0
C1819 C 0.52433 0.21304 0.19948 0.0
C1820 C 0.52594 0.19931 0.19593 0.0
C1821 C 0.52605 0.18876 0.20611 0.0
C1822 C 0.51653 0.2319 0.16562 0.0
C1823 C 0.5223 0.24542 0.16801 0.0
C1824 C 0.51722 0.22142 0.1758 0.0
C1825 C 0.52376 0.22419 0.18859 0.0
C1826 C 0.5296 0.23771 0.19093 0.0
C1827 C 0.52885 0.24821 0.18077 0.0
H1828 H 0.896 0.51407 0.17994 0.0
H1829 H 0.87818 0.51256 0.21971 0.0
H1830 H 0.87452 0.51278 0.16843 0.0
H1831 H 0.85673 0.51155 0.2082 0.0
H1832 H 0.82007 0.49588 0.18332 0.0
H1833 H 0.84166 0.49617 0.19448 0.0
H1834 H 0.8565 0.527 0.16444 0.0
H1835 H 0.83498 0.5265 0.15311 0.0
C1836 C 0.8875 0.51349 0.18623 0.0
C1837 C 0.88881 0.51342 0.20074 0.0
C1838 C 0.87519 0.51283 0.17963 0.0
C1839 C 0.8639 0.51209 0.18739 0.0
C1840 C 0.86521 0.51194 0.20191 0.0
C1841 C 0.87752 0.5126 0.20851 0.0
C1842 C 0.82795 0.50269 0.17907 0.0
C1843 C 0.8258 0.51117 0.16733 0.0
C1844 C 0.84031 0.50291 0.18552 0.0
C1845 C 0.85081 0.51163 0.18038 0.0
C1846 C 0.84867 0.52003 0.16857 0.0
C1847 C 0.83631 0.51981 0.16212 0.0
H1848 H 0.51452 0.91878 0.22239 0.0
H1849 H 0.50874 0.8884 0.25571 0.0
H1850 H 0.51619 0.90018 0.20625 0.0
H1851 H 0.51 0.86977 0.23951 0.0
H1852 H 0.52591 0.84049 0.20967 0.0
H1853 H 0.52496 0.85931 0.22574 0.0
H1854 H 0.50327 0.88174 0.19489 0.0
H1855 H 0.50458 0.86311 0.17869 0.0
C1856 C 0.51353 0.90812 0.22626 0.0
C1857 C 0.5115 0.90507 0.24034 0.0
C1858 C 0.51441 0.89744 0.21698 0.0
C1859 C 0.51321 0.88345 0.22155 0.0
C1860 C 0.51117 0.88042 0.23565 0.0
C1861 C 0.51037 0.89111 0.24494 0.0
C1862 C 0.52096 0.84946 0.20631 0.0
C1863 C 0.51533 0.85031 0.1929 0.0
C1864 C 0.52034 0.86022 0.21556 0.0
C1865 C 0.51401 0.87206 0.21164 0.0
C1866 C 0.50839 0.87289 0.1982 0.0
C1867 C 0.50908 0.86216 0.18893 0.0
H1868 H 0.2274 0.52898 0.17602 0.0
H1869 H 0.26021 0.5426 0.20295 0.0
H1870 H 0.21351 0.52606 0.19594 0.0
H1871 H 0.24627 0.53972 0.22285 0.0
H1872 H 0.22047 0.51687 0.25585 0.0
H1873 H 0.23426 0.52007 0.23586 0.0
H1874 H 0.20437 0.54072 0.21341 0.0
H1875 H 0.19054 0.53749 0.23337 0.0
C1876 C 0.23164 0.53139 0.18617 0.0
C1877 C 0.24491 0.53601 0.1879 0.0
C1878 C 0.22367 0.52978 0.19757 0.0
C1879 C 0.22881 0.53264 0.21095 0.0
C1880 C 0.24207 0.53729 0.21268 0.0
C1881 C 0.25002 0.53902 0.20127 0.0
C1882 C 0.21682 0.52207 0.24664 0.0
C1883 C 0.20441 0.52692 0.2462 0.0
C1884 C 0.22476 0.52398 0.23523 0.0
C1885 C 0.2204 0.53067 0.22308 0.0
C1886 C 0.20795 0.53542 0.22259 0.0
C1887 C 0.20006 0.53362 0.23405 0.0
H1888 H 0.88707 0.82918 0.49639 0.0
H1889 H 0.86908 0.79849 0.52475 0.0
H1890 H 0.86605 0.83836 0.49173 0.0
H1891 H 0.8481 0.80771 0.5201 0.0
H1892 H 0.81552 0.83701 0.51819 0.0
H1893 H 0.83716 0.82965 0.52365 0.0
H1894 H 0.84465 0.82937 0.48007 0.0
H1895 H 0.82302 0.83668 0.47457 0.0
C1896 C 0.87865 0.82445 0.50169 0.0
C1897 C 0.87973 0.81308 0.51091 0.0
C1898 C 0.86662 0.82967 0.49897 0.0
C1899 C 0.85545 0.82374 0.50555 0.0
C1900 C 0.85657 0.81256 0.51498 0.0
C1901 C 0.86857 0.80724 0.51757 0.0
C1902 C 0.82182 0.83548 0.50977 0.0
C1903 C 0.81754 0.83739 0.49594 0.0
C1904 C 0.83417 0.8312 0.51291 0.0
C1905 C 0.84257 0.82891 0.50228 0.0
C1906 C 0.83843 0.83116 0.48847 0.0
C1907 C 0.82602 0.83528 0.48533 0.0
H1908 H 0.84112 0.246 0.55806 0.0
H1909 H 0.85624 0.21096 0.53953 0.0
H1910 H 0.82153 0.23133 0.56408 0.0
H1911 H 0.83673 0.19624 0.54576 0.0
H1912 H 0.79331 0.17976 0.54373 0.0
H1913 H 0.81362 0.19367 0.5388 0.0
H1914 H 0.81391 0.21174 0.57916 0.0
H1915 H 0.79348 0.19798 0.58402 0.0
C1916 C 0.84032 0.23514 0.55537 0.0
C1917 C 0.85022 0.22966 0.54827 0.0
C1918 C 0.82912 0.22671 0.55889 0.0
C1919 C 0.82755 0.21262 0.55537 0.0
C1920 C 0.83756 0.20709 0.54846 0.0
C1921 C 0.84877 0.21552 0.54496 0.0
C1922 C 0.79773 0.18666 0.55157 0.0
C1923 C 0.79175 0.18779 0.56425 0.0
C1924 C 0.80941 0.19458 0.54878 0.0
C1925 C 0.81538 0.20383 0.55858 0.0
C1926 C 0.80948 0.20484 0.57132 0.0
C1927 C 0.7978 0.1969 0.57413 0.0
H1928 H 0.2093 0.88681 0.50702 0.0
H1929 H 0.22327 0.85807 0.53785 0.0
H1930 H 0.18839 0.87284 0.50563 0.0
H1931 H 0.20226 0.84427 0.5367 0.0
H1932 H 0.16828 0.81498 0.51989 0.0
H1933 H 0.18915 0.82902 0.52123 0.0
H1934 H 0.16925 0.86642 0.51884 0.0
H1935 H 0.14839 0.85238 0.51717 0.0
C1936 C 0.20789 0.87755 0.51357 0.0
C1937 C 0.21796 0.87354 0.52253 0.0
C1938 C 0.19587 0.86958 0.51283 0.0
C1939 C 0.19364 0.85742 0.52105 0.0
C1940 C 0.2037 0.85346 0.53007 0.0
C1941 C 0.21573 0.86142 0.5308 0.0
C1942 C 0.16835 0.8262 0.51964 0.0
C1943 C 0.15666 0.83256 0.5184 0.0
C1944 C 0.18032 0.83425 0.5205 0.0
C1945 C 0.18089 0.84886 0.52016 0.0
C1946 C 0.16918 0.8552 0.51894 0.0
C1947 C 0.15721 0.84715 0.51806 0.0
H1948 H 0.23904 0.2677 0.53826 0.0
H1949 H 0.21821 0.22715 0.54366 0.0
H1950 H 0.21892 0.27852 0.54042 0.0
H1951 H 0.19789 0.23784 0.54497 0.0
H1952 H 0.16542 0.26098 0.56045 0.0
H1953 H 0.18579 0.25043 0.5589 0.0
H1954 H 0.19931 0.2829 0.52975 0.0
H1955 H 0.17928 0.29382 0.53204 0.0
C1956 C 0.23009 0.26109 0.5397 0.0
C1957 C 0.23019 0.24659 0.54081 0.0
C1958 C 0.2185 0.26728 0.54086 0.0
C1959 C 0.20667 0.2591 0.54288 0.0
C1960 C 0.20679 0.24454 0.54373 0.0
C1961 C 0.21844 0.23838 0.54285 0.0
C1962 C 0.17281 0.26588 0.55378 0.0
C1963 C 0.17079 0.27825 0.54642 0.0
C1964 C 0.18446 0.25976 0.55277 0.0
C1965 C 0.19429 0.26573 0.54414 0.0
C1966 C 0.19216 0.2781 0.53672 0.0
C1967 C 0.18062 0.28435 0.53796 0.0
loop_
_geom_bond_atom_site_label_1
_geom_bond_atom_site_label_2
_geom_bond_distance
_geom_bond_site_symmetry_2
_ccdc_geom_bond_type
O0 Cd1 2.300 . S
O0 C7 1.275 . S
Cd1 O0 2.300 . S
Cd1 O9 2.381 . S
Cd1 O10 2.378 . S
O2 Cd3 2.385 . S
O2 C7 1.255 . S
Cd3 O2 2.385 . S
Cd3 O4 2.317 . S
O4 Cd3 2.317 . S
O4 C5 1.232 . S
C5 O4 1.232 . S
C5 O6 1.218 . S
O6 C5 1.218 . S
C7 O0 1.275 . S
C7 O2 1.255 . S
C8 O9 1.258 . S
C8 O10 1.256 . S
O9 Cd1 2.381 . S
O9 C8 1.258 . S
O10 Cd1 2.378 . S
O10 C8 1.256 . S
O11 Cd12 2.300 . S
O11 C18 1.275 . S
Cd12 O11 2.300 . S
Cd12 O20 2.381 . S
Cd12 O21 2.378 . S
O13 Cd14 2.385 . S
O13 C18 1.255 . S
Cd14 O13 2.385 . S
Cd14 O15 2.317 1_545 S
O15 Cd14 2.317 1_565 S
O15 C16 1.232 . S
C16 O15 1.232 . S
C16 O17 1.218 . S
O17 C16 1.218 . S
C18 O11 1.275 . S
C18 O13 1.255 . S
C19 O20 1.258 . S
C19 O21 1.256 . S
O20 Cd12 2.381 . S
O20 C19 1.258 . S
O21 Cd12 2.378 . S
O21 C19 1.256 . S
O22 Cd23 2.300 . S
O22 C29 1.275 . S
Cd23 O22 2.300 . S
Cd23 O31 2.381 . S
Cd23 O32 2.378 . S
O24 Cd25 2.385 . S
O24 C29 1.255 . S
Cd25 O24 2.385 . S
Cd25 O26 2.317 . S
O26 Cd25 2.317 . S
O26 C27 1.215 1_455 S
C27 O26 1.215 1_655 S
C27 O28 1.199 1_655 S
O28 C27 1.199 1_455 S
C29 O22 1.275 . S
C29 O24 1.255 . S
C30 O31 1.258 . S
C30 O32 1.256 . S
O31 Cd23 2.381 . S
O31 C30 1.258 . S
O32 Cd23 2.378 . S
O32 C30 1.256 . S
O33 Cd34 2.300 . S
O33 C40 1.275 . S
Cd34 O33 2.300 . S
Cd34 O42 2.381 . S
Cd34 O43 2.378 . S
O35 Cd36 2.385 . S
O35 C40 1.255 . S
Cd36 O35 2.385 . S
Cd36 O37 2.317 . S
O37 Cd36 2.317 . S
O37 C38 1.232 . S
C38 O37 1.232 . S
C38 O39 1.218 . S
O39 C38 1.218 . S
C40 O33 1.275 . S
C40 O35 1.255 . S
C41 O42 1.258 . S
C41 O43 1.256 . S
O42 Cd34 2.381 . S
O42 C41 1.258 . S
O43 Cd34 2.378 . S
O43 C41 1.256 . S
O44 Cd45 2.300 . S
O44 C51 1.275 . S
Cd45 O44 2.300 . S
Cd45 O53 2.381 . S
Cd45 O54 2.378 . S
O46 Cd47 2.385 . S
O46 C51 1.255 . S
Cd47 O46 2.385 . S
Cd47 O48 2.317 . S
O48 Cd47 2.317 . S
O48 C49 1.232 . S
C49 O48 1.232 . S
C49 O50 1.218 . S
O50 C49 1.218 . S
C51 O44 1.275 . S
C51 O46 1.255 . S
C52 O53 1.258 . S
C52 O54 1.256 . S
O53 Cd45 2.381 . S
O53 C52 1.258 . S
O54 Cd45 2.378 . S
O54 C52 1.256 . S
O55 Cd56 2.300 . S
O55 C62 1.275 . S
Cd56 O55 2.300 . S
Cd56 O64 2.381 . S
Cd56 O65 2.378 . S
O57 Cd58 2.385 . S
O57 C62 1.255 . S
Cd58 O57 2.385 . S
Cd58 O59 2.317 . S
O59 Cd58 2.317 . S
O59 C60 1.232 . S
C60 O59 1.232 . S
C60 O61 1.218 . S
O61 C60 1.218 . S
C62 O55 1.275 . S
C62 O57 1.255 . S
C63 O64 1.258 . S
C63 O65 1.256 . S
O64 Cd56 2.381 . S
O64 C63 1.258 . S
O65 Cd56 2.378 . S
O65 C63 1.256 . S
O66 Cd67 2.300 . S
O66 C73 1.275 . S
Cd67 O66 2.300 . S
Cd67 O75 2.381 . S
Cd67 O76 2.378 . S
O68 Cd69 2.385 . S
O68 C73 1.255 . S
Cd69 O68 2.385 . S
Cd69 O70 2.317 1_455 S
O70 Cd69 2.317 1_655 S
O70 C71 1.232 . S
C71 O70 1.232 . S
C71 O72 1.218 . S
O72 C71 1.218 . S
C73 O66 1.275 . S
C73 O68 1.255 . S
C74 O75 1.258 . S
C74 O76 1.256 . S
O75 Cd67 2.381 . S
O75 C74 1.258 . S
O76 Cd67 2.378 . S
O76 C74 1.256 . S
O77 Cd78 2.300 . S
O77 C84 1.275 . S
Cd78 O77 2.300 . S
Cd78 O86 2.381 . S
Cd78 O87 2.378 . S
O79 Cd80 2.385 . S
O79 C84 1.255 . S
Cd80 O79 2.385 . S
Cd80 O81 2.319 1_545 S
O81 Cd80 2.319 1_565 S
O81 C82 1.231 . S
C82 O81 1.231 . S
C82 O83 1.218 1_565 S
O83 C82 1.218 1_545 S
C84 O77 1.275 . S
C84 O79 1.255 . S
C85 O86 1.258 . S
C85 O87 1.256 . S
O86 Cd78 2.381 . S
O86 C85 1.258 . S
O87 Cd78 2.378 . S
O87 C85 1.256 . S
O88 Cd89 2.300 . S
O88 C95 1.275 . S
Cd89 O88 2.300 . S
Cd89 O97 2.381 . S
Cd89 O98 2.378 . S
O90 Cd91 2.385 . S
O90 C95 1.255 . S
Cd91 O90 2.385 . S
Cd91 O92 2.317 . S
O92 Cd91 2.317 . S
O92 C93 1.232 . S
C93 O92 1.232 . S
C93 O94 1.218 . S
O94 C93 1.218 . S
C95 O88 1.275 . S
C95 O90 1.255 . S
C96 O97 1.258 . S
C96 O98 1.256 . S
O97 Cd89 2.381 . S
O97 C96 1.258 . S
O98 Cd89 2.378 . S
O98 C96 1.256 . S
O99 Cd100 2.300 . S
O99 C106 1.275 . S
Cd100 O99 2.300 . S
Cd100 O108 2.381 . S
Cd100 O109 2.378 . S
O101 Cd102 2.385 . S
O101 C106 1.255 . S
Cd102 O101 2.385 . S
Cd102 O103 2.317 . S
O103 Cd102 2.317 . S
O103 C104 1.232 . S
C104 O103 1.232 . S
C104 O105 1.218 . S
O105 C104 1.218 . S
C106 O99 1.275 . S
C106 O101 1.255 . S
C107 O108 1.258 . S
C107 O109 1.256 . S
O108 Cd100 2.381 . S
O108 C107 1.258 . S
O109 Cd100 2.378 . S
O109 C107 1.256 . S
O110 Cd111 2.300 . S
O110 C117 1.275 . S
Cd111 O110 2.300 . S
Cd111 O119 2.381 . S
Cd111 O120 2.378 . S
O112 Cd113 2.385 . S
O112 C117 1.255 . S
Cd113 O112 2.385 . S
Cd113 O114 2.317 . S
O114 Cd113 2.317 . S
O114 C115 1.232 . S
C115 O114 1.232 . S
C115 O116 1.218 . S
O116 C115 1.218 . S
C117 O110 1.275 . S
C117 O112 1.255 . S
C118 O119 1.258 . S
C118 O120 1.256 . S
O119 Cd111 2.381 . S
O119 C118 1.258 . S
O120 Cd111 2.378 . S
O120 C118 1.256 . S
O121 Cd122 2.300 . S
O121 C128 1.275 . S
Cd122 O121 2.300 . S
Cd122 O130 2.381 . S
Cd122 O131 2.378 . S
O123 Cd124 2.385 . S
O123 C128 1.255 . S
Cd124 O123 2.385 . S
Cd124 O125 2.317 . S
O125 Cd124 2.317 . S
O125 C126 1.232 . S
C126 O125 1.232 . S
C126 O127 1.218 . S
O127 C126 1.218 . S
C128 O121 1.275 . S
C128 O123 1.255 . S
C129 O130 1.258 . S
C129 O131 1.256 . S
O130 Cd122 2.381 . S
O130 C129 1.258 . S
O131 Cd122 2.378 . S
O131 C129 1.256 . S
O132 Cd133 2.300 . S
O132 C139 1.275 . S
Cd133 O132 2.300 . S
Cd133 O141 2.381 . S
Cd133 O142 2.378 . S
O134 Cd135 2.385 . S
O134 C139 1.255 . S
Cd135 O134 2.385 . S
Cd135 O136 2.317 1_545 S
O136 Cd135 2.317 1_565 S
O136 C137 1.232 . S
C137 O136 1.232 . S
C137 O138 1.218 . S
O138 C137 1.218 . S
C139 O132 1.275 . S
C139 O134 1.255 . S
C140 O141 1.258 . S
C140 O142 1.256 . S
O141 Cd133 2.381 . S
O141 C140 1.258 . S
O142 Cd133 2.378 . S
O142 C140 1.256 . S
O143 Cd144 2.300 . S
O143 C150 1.275 . S
Cd144 O143 2.300 . S
Cd144 O152 2.381 . S
Cd144 O153 2.378 . S
O145 Cd146 2.385 . S
O145 C150 1.255 . S
Cd146 O145 2.385 . S
Cd146 O147 2.317 1_455 S
O147 Cd146 2.317 1_655 S
O147 C148 1.232 . S
C148 O147 1.232 . S
C148 O149 1.218 . S
O149 C148 1.218 . S
C150 O143 1.275 . S
C150 O145 1.255 . S
C151 O152 1.258 . S
C151 O153 1.256 . S
O152 Cd144 2.381 . S
O152 C151 1.258 . S
O153 Cd144 2.378 . S
O153 C151 1.256 . S
O154 Cd155 2.300 . S
O154 C161 1.275 . S
Cd155 O154 2.300 . S
Cd155 O163 2.381 . S
Cd155 O164 2.378 . S
O156 Cd157 2.385 . S
O156 C161 1.255 . S
Cd157 O156 2.385 . S
Cd157 O158 2.317 . S
O158 Cd157 2.317 . S
O158 C159 1.232 . S
C159 O158 1.232 . S
C159 O160 1.218 . S
O160 C159 1.218 . S
C161 O154 1.275 . S
C161 O156 1.255 . S
C162 O163 1.258 . S
C162 O164 1.256 . S
O163 Cd155 2.381 . S
O163 C162 1.258 . S
O164 Cd155 2.378 . S
O164 C162 1.256 . S
O165 Cd166 2.300 . S
O165 C172 1.275 . S
Cd166 O165 2.300 . S
Cd166 O174 2.381 . S
Cd166 O175 2.378 . S
O167 Cd168 2.385 . S
O167 C172 1.255 . S
Cd168 O167 2.385 . S
Cd168 O169 2.317 1_455 S
O169 Cd168 2.317 1_655 S
O169 C170 1.232 . S
C170 O169 1.232 . S
C170 O171 1.218 . S
O171 C170 1.218 . S
C172 O165 1.275 . S
C172 O167 1.255 . S
C173 O174 1.258 . S
C173 O175 1.256 . S
O174 Cd166 2.381 . S
O174 C173 1.258 . S
O175 Cd166 2.378 . S
O175 C173 1.256 . S
O176 Cd177 2.300 . S
O176 C183 1.275 . S
Cd177 O176 2.300 . S
Cd177 O185 2.381 . S
Cd177 O186 2.378 . S
O178 Cd179 2.385 . S
O178 C183 1.255 . S
Cd179 O178 2.385 . S
Cd179 O180 2.317 . S
O180 Cd179 2.317 . S
O180 C181 1.232 . S
C181 O180 1.232 . S
C181 O182 1.218 . S
O182 C181 1.218 . S
C183 O176 1.275 . S
C183 O178 1.255 . S
C184 O185 1.258 . S
C184 O186 1.256 . S
O185 Cd177 2.381 . S
O185 C184 1.258 . S
O186 Cd177 2.378 . S
O186 C184 1.256 . S
O187 Cd188 2.300 . S
O187 C194 1.275 . S
Cd188 O187 2.300 . S
Cd188 O196 2.381 . S
Cd188 O197 2.378 . S
O189 Cd190 2.385 . S
O189 C194 1.255 . S
Cd190 O189 2.385 . S
Cd190 O191 2.317 . S
O191 Cd190 2.317 . S
O191 C192 1.232 . S
C192 O191 1.232 . S
C192 O193 1.218 . S
O193 C192 1.218 . S
C194 O187 1.275 . S
C194 O189 1.255 . S
C195 O196 1.258 . S
C195 O197 1.256 . S
O196 Cd188 2.381 . S
O196 C195 1.258 . S
O197 Cd188 2.378 . S
O197 C195 1.256 . S
O198 Cd199 2.300 . S
O198 C205 1.275 . S
Cd199 O198 2.300 . S
Cd199 O207 2.381 . S
Cd199 O208 2.378 . S
O200 Cd201 2.385 1_554 S
O200 C205 1.255 . S
Cd201 O200 2.385 1_556 S
Cd201 O202 2.317 . S
O202 Cd201 2.317 . S
O202 C203 1.232 . S
C203 O202 1.232 . S
C203 O204 1.218 . S
O204 C203 1.218 . S
C205 O198 1.275 . S
C205 O200 1.255 . S
C206 O207 1.258 . S
C206 O208 1.256 . S
O207 Cd199 2.381 . S
O207 C206 1.258 . S
O208 Cd199 2.378 . S
O208 C206 1.256 . S
O209 Cd210 2.300 . S
O209 C216 1.275 . S
Cd210 O209 2.300 . S
Cd210 O218 2.381 . S
Cd210 O219 2.378 . S
O211 Cd212 2.385 . S
O211 C216 1.255 . S
Cd212 O211 2.385 . S
Cd212 O213 2.317 . S
O213 Cd212 2.317 . S
O213 C214 1.238 . S
C214 O213 1.238 . S
C214 O215 1.238 . S
O215 C214 1.238 . S
C216 O209 1.275 . S
C216 O211 1.255 . S
C217 O218 1.258 . S
C217 O219 1.256 . S
O218 Cd210 2.381 . S
O218 C217 1.258 . S
O219 Cd210 2.378 . S
O219 C217 1.256 . S
O220 Cd221 2.300 . S
O220 C227 1.275 . S
Cd221 O220 2.300 . S
Cd221 O229 2.381 . S
Cd221 O230 2.378 . S
O222 Cd223 2.385 . S
O222 C227 1.255 . S
Cd223 O222 2.385 . S
Cd223 O224 2.317 . S
O224 Cd223 2.317 . S
O224 C225 1.232 . S
C225 O224 1.232 . S
C225 O226 1.218 . S
O226 C225 1.218 . S
C227 O220 1.275 . S
C227 O222 1.255 . S
C228 O229 1.258 . S
C228 O230 1.256 . S
O229 Cd221 2.381 . S
O229 C228 1.258 . S
O230 Cd221 2.378 . S
O230 C228 1.256 . S
O231 Cd232 2.300 . S
O231 C238 1.275 . S
Cd232 O231 2.300 . S
Cd232 O240 2.381 . S
Cd232 O241 2.378 . S
O233 Cd234 2.385 . S
O233 C238 1.255 . S
Cd234 O233 2.385 . S
Cd234 O235 2.317 . S
O235 Cd234 2.317 . S
O235 C236 1.232 . S
C236 O235 1.232 . S
C236 O237 1.218 . S
O237 C236 1.218 . S
C238 O231 1.275 . S
C238 O233 1.255 . S
C239 O240 1.258 . S
C239 O241 1.256 . S
O240 Cd232 2.381 . S
O240 C239 1.258 . S
O241 Cd232 2.378 . S
O241 C239 1.256 . S
O242 Cd243 2.300 . S
O242 C249 1.275 . S
Cd243 O242 2.300 . S
Cd243 O251 2.381 . S
Cd243 O252 2.378 . S
O244 Cd245 2.385 . S
O244 C249 1.255 . S
Cd245 O244 2.385 . S
Cd245 O246 2.317 . S
O246 Cd245 2.317 . S
O246 C247 1.232 . S
C247 O246 1.232 . S
C247 O248 1.218 . S
O248 C247 1.218 . S
C249 O242 1.275 . S
C249 O244 1.255 . S
C250 O251 1.258 . S
C250 O252 1.256 . S
O251 Cd243 2.381 . S
O251 C250 1.258 . S
O252 Cd243 2.378 . S
O252 C250 1.256 . S
O253 Cd254 2.300 . S
O253 C260 1.275 . S
Cd254 O253 2.300 . S
Cd254 O262 2.381 . S
Cd254 O263 2.378 . S
O255 Cd256 2.385 . S
O255 C260 1.255 . S
Cd256 O255 2.385 . S
Cd256 O257 2.317 1_554 S
O257 Cd256 2.317 1_556 S
O257 C258 1.232 . S
C258 O257 1.232 . S
C258 O259 1.218 1_556 S
O259 C258 1.218 1_554 S
C260 O253 1.275 . S
C260 O255 1.255 . S
C261 O262 1.258 . S
C261 O263 1.256 . S
O262 Cd254 2.381 . S
O262 C261 1.258 . S
O263 Cd254 2.378 . S
O263 C261 1.256 . S
O264 Cd265 2.300 . S
O264 C271 1.275 . S
Cd265 O264 2.300 . S
Cd265 O273 2.381 . S
Cd265 O274 2.378 . S
O266 Cd267 2.385 . S
O266 C271 1.255 . S
Cd267 O266 2.385 . S
Cd267 O268 2.317 . S
O268 Cd267 2.317 . S
O268 C269 1.232 . S
C269 O268 1.232 . S
C269 O270 1.218 . S
O270 C269 1.218 . S
C271 O264 1.275 . S
C271 O266 1.255 . S
C272 O273 1.258 . S
C272 O274 1.256 . S
O273 Cd265 2.381 . S
O273 C272 1.258 . S
O274 Cd265 2.378 . S
O274 C272 1.256 . S
O275 Cd276 2.300 . S
O275 C282 1.275 . S
Cd276 O275 2.300 . S
Cd276 O284 2.381 . S
Cd276 O285 2.378 . S
O277 Cd278 2.385 . S
O277 C282 1.255 . S
Cd278 O277 2.385 . S
Cd278 O279 2.317 . S
O279 Cd278 2.317 . S
O279 C280 1.232 . S
C280 O279 1.232 . S
C280 O281 1.218 . S
O281 C280 1.218 . S
C282 O275 1.275 . S
C282 O277 1.255 . S
C283 O284 1.258 . S
C283 O285 1.256 . S
O284 Cd276 2.381 . S
O284 C283 1.258 . S
O285 Cd276 2.378 . S
O285 C283 1.256 . S
O286 Cd287 2.300 . S
O286 C293 1.275 . S
Cd287 O286 2.300 . S
Cd287 O295 2.381 . S
Cd287 O296 2.378 . S
O288 Cd289 2.385 . S
O288 C293 1.255 . S
Cd289 O288 2.385 . S
Cd289 O290 2.317 . S
O290 Cd289 2.317 . S
O290 C291 1.232 . S
C291 O290 1.232 . S
C291 O292 1.218 . S
O292 C291 1.218 . S
C293 O286 1.275 . S
C293 O288 1.255 . S
C294 O295 1.258 . S
C294 O296 1.256 . S
O295 Cd287 2.381 . S
O295 C294 1.258 . S
O296 Cd287 2.378 . S
O296 C294 1.256 . S
O297 Cd298 2.300 . S
O297 C304 1.275 . S
Cd298 O297 2.300 . S
Cd298 O306 2.381 . S
Cd298 O307 2.378 . S
O299 Cd300 2.385 . S
O299 C304 1.255 . S
Cd300 O299 2.385 . S
Cd300 O301 2.317 . S
O301 Cd300 2.317 . S
O301 C302 1.232 . S
C302 O301 1.232 . S
C302 O303 1.218 . S
O303 C302 1.218 . S
C304 O297 1.275 . S
C304 O299 1.255 . S
C305 O306 1.258 . S
C305 O307 1.256 . S
O306 Cd298 2.381 . S
O306 C305 1.258 . S
O307 Cd298 2.378 . S
O307 C305 1.256 . S
O308 Cd309 2.300 . S
O308 C315 1.275 . S
Cd309 O308 2.300 . S
Cd309 O317 2.381 . S
Cd309 O318 2.378 . S
O310 Cd311 2.385 . S
O310 C315 1.255 . S
Cd311 O310 2.385 . S
Cd311 O312 2.317 . S
O312 Cd311 2.317 . S
O312 C313 1.232 . S
C313 O312 1.232 . S
C313 O314 1.218 . S
O314 C313 1.218 . S
C315 O308 1.275 . S
C315 O310 1.255 . S
C316 O317 1.258 . S
C316 O318 1.256 . S
O317 Cd309 2.381 . S
O317 C316 1.258 . S
O318 Cd309 2.378 . S
O318 C316 1.256 . S
O319 Cd320 2.300 . S
O319 C326 1.275 . S
Cd320 O319 2.300 . S
Cd320 O328 2.381 . S
Cd320 O329 2.378 . S
O321 Cd322 2.385 . S
O321 C326 1.255 . S
Cd322 O321 2.385 . S
Cd322 O323 2.317 . S
O323 Cd322 2.317 . S
O323 C324 1.232 . S
C324 O323 1.232 . S
C324 O325 1.218 . S
O325 C324 1.218 . S
C326 O319 1.275 . S
C326 O321 1.255 . S
C327 O328 1.258 . S
C327 O329 1.256 . S
O328 Cd320 2.381 . S
O328 C327 1.258 . S
O329 Cd320 2.378 . S
O329 C327 1.256 . S
O330 Cd331 2.300 . S
O330 C337 1.275 . S
Cd331 O330 2.300 . S
Cd331 O339 2.381 . S
Cd331 O340 2.378 . S
O332 Cd333 2.385 . S
O332 C337 1.255 . S
Cd333 O332 2.385 . S
Cd333 O334 2.317 . S
O334 Cd333 2.317 . S
O334 C335 1.232 . S
C335 O334 1.232 . S
C335 O336 1.218 . S
O336 C335 1.218 . S
C337 O330 1.275 . S
C337 O332 1.255 . S
C338 O339 1.258 . S
C338 O340 1.256 . S
O339 Cd331 2.381 . S
O339 C338 1.258 . S
O340 Cd331 2.378 . S
O340 C338 1.256 . S
O341 Cd342 2.300 . S
O341 C348 1.275 . S
Cd342 O341 2.300 . S
Cd342 O350 2.381 . S
Cd342 O351 2.378 . S
O343 Cd344 2.385 . S
O343 C348 1.255 . S
Cd344 O343 2.385 . S
Cd344 O345 2.317 . S
O345 Cd344 2.317 . S
O345 C346 1.232 . S
C346 O345 1.232 . S
C346 O347 1.218 . S
O347 C346 1.218 . S
C348 O341 1.275 . S
C348 O343 1.255 . S
C349 O350 1.258 . S
C349 O351 1.256 . S
O350 Cd342 2.381 . S
O350 C349 1.258 . S
O351 Cd342 2.378 . S
O351 C349 1.256 . S
O352 Cd353 2.300 . S
O352 C359 1.275 . S
Cd353 O352 2.300 . S
Cd353 O361 2.381 . S
Cd353 O362 2.378 . S
O354 Cd355 2.385 . S
O354 C359 1.255 . S
Cd355 O354 2.385 . S
Cd355 O356 2.317 . S
O356 Cd355 2.317 . S
O356 C357 1.232 . S
C357 O356 1.232 . S
C357 O358 1.218 . S
O358 C357 1.218 . S
C359 O352 1.275 . S
C359 O354 1.255 . S
C360 O361 1.258 . S
C360 O362 1.256 . S
O361 Cd353 2.381 . S
O361 C360 1.258 . S
O362 Cd353 2.378 . S
O362 C360 1.256 . S
O363 Cd364 2.300 . S
O363 C370 1.275 . S
Cd364 O363 2.300 . S
Cd364 O372 2.381 . S
Cd364 O373 2.378 . S
O365 Cd366 2.385 . S
O365 C370 1.255 . S
Cd366 O365 2.385 . S
Cd366 O367 2.317 . S
O367 Cd366 2.317 . S
O367 C368 1.232 . S
C368 O367 1.232 . S
C368 O369 1.218 . S
O369 C368 1.218 . S
C370 O363 1.275 . S
C370 O365 1.255 . S
C371 O372 1.258 . S
C371 O373 1.256 . S
O372 Cd364 2.381 . S
O372 C371 1.258 . S
O373 Cd364 2.378 . S
O373 C371 1.256 . S
O374 Cd375 2.300 . S
O374 C381 1.275 . S
Cd375 O374 2.300 . S
Cd375 O383 2.381 . S
Cd375 O384 2.378 . S
O376 Cd377 2.385 . S
O376 C381 1.255 . S
Cd377 O376 2.385 . S
Cd377 O378 2.317 . S
O378 Cd377 2.317 . S
O378 C379 1.232 . S
C379 O378 1.232 . S
C379 O380 1.218 . S
O380 C379 1.218 . S
C381 O374 1.275 . S
C381 O376 1.255 . S
C382 O383 1.258 . S
C382 O384 1.256 . S
O383 Cd375 2.381 . S
O383 C382 1.258 . S
O384 Cd375 2.378 . S
O384 C382 1.256 . S
O385 Cd386 2.300 . S
O385 C392 1.275 . S
Cd386 O385 2.300 . S
Cd386 O394 2.381 . S
Cd386 O395 2.378 . S
O387 Cd388 2.385 . S
O387 C392 1.255 . S
Cd388 O387 2.385 . S
Cd388 O389 2.317 . S
O389 Cd388 2.317 . S
O389 C390 1.232 . S
C390 O389 1.232 . S
C390 O391 1.218 . S
O391 C390 1.218 . S
C392 O385 1.275 . S
C392 O387 1.255 . S
C393 O394 1.258 . S
C393 O395 1.256 . S
O394 Cd386 2.381 . S
O394 C393 1.258 . S
O395 Cd386 2.378 . S
O395 C393 1.256 . S
O396 Cd397 2.300 . S
O396 C403 1.275 . S
Cd397 O396 2.300 . S
Cd397 O405 2.381 . S
Cd397 O406 2.378 . S
O398 Cd399 2.385 . S
O398 C403 1.255 . S
Cd399 O398 2.385 . S
Cd399 O400 2.317 . S
O400 Cd399 2.317 . S
O400 C401 1.232 . S
C401 O400 1.232 . S
C401 O402 1.218 . S
O402 C401 1.218 . S
C403 O396 1.275 . S
C403 O398 1.255 . S
C404 O405 1.258 . S
C404 O406 1.256 . S
O405 Cd397 2.381 . S
O405 C404 1.258 . S
O406 Cd397 2.378 . S
O406 C404 1.256 . S
O407 Cd408 2.300 . S
O407 C414 1.275 . S
Cd408 O407 2.300 . S
Cd408 O416 2.381 . S
Cd408 O417 2.378 . S
O409 Cd410 2.385 . S
O409 C414 1.255 . S
Cd410 O409 2.385 . S
Cd410 O411 2.317 . S
O411 Cd410 2.317 . S
O411 C412 1.232 . S
C412 O411 1.232 . S
C412 O413 1.218 . S
O413 C412 1.218 . S
C414 O407 1.275 . S
C414 O409 1.255 . S
C415 O416 1.258 . S
C415 O417 1.256 . S
O416 Cd408 2.381 . S
O416 C415 1.258 . S
O417 Cd408 2.378 . S
O417 C415 1.256 . S
O418 Cd419 2.300 . S
O418 C425 1.275 . S
Cd419 O418 2.300 . S
Cd419 O427 2.381 . S
Cd419 O428 2.378 . S
O420 Cd421 2.385 . S
O420 C425 1.255 . S
Cd421 O420 2.385 . S
Cd421 O422 2.317 . S
O422 Cd421 2.317 . S
O422 C423 1.232 . S
C423 O422 1.232 . S
C423 O424 1.218 . S
O424 C423 1.218 . S
C425 O418 1.275 . S
C425 O420 1.255 . S
C426 O427 1.258 . S
C426 O428 1.256 . S
O427 Cd419 2.381 . S
O427 C426 1.258 . S
O428 Cd419 2.378 . S
O428 C426 1.256 . S
O429 Cd430 2.300 . S
O429 C436 1.275 . S
Cd430 O429 2.300 . S
Cd430 O438 2.381 . S
Cd430 O439 2.378 . S
O431 Cd432 2.385 . S
O431 C436 1.255 . S
Cd432 O431 2.385 . S
Cd432 O433 2.317 . S
O433 Cd432 2.317 . S
O433 C434 1.232 . S
C434 O433 1.232 . S
C434 O435 1.218 . S
O435 C434 1.218 . S
C436 O429 1.275 . S
C436 O431 1.255 . S
C437 O438 1.258 . S
C437 O439 1.256 . S
O438 Cd430 2.381 . S
O438 C437 1.258 . S
O439 Cd430 2.378 . S
O439 C437 1.256 . S
O440 Cd441 2.300 . S
O440 C447 1.275 . S
Cd441 O440 2.300 . S
Cd441 O449 2.381 . S
Cd441 O450 2.378 . S
O442 Cd443 2.385 . S
O442 C447 1.255 . S
Cd443 O442 2.385 . S
Cd443 O444 2.317 . S
O444 Cd443 2.317 . S
O444 C445 1.232 . S
C445 O444 1.232 . S
C445 O446 1.218 . S
O446 C445 1.218 . S
C447 O440 1.275 . S
C447 O442 1.255 . S
C448 O449 1.258 . S
C448 O450 1.256 . S
O449 Cd441 2.381 . S
O449 C448 1.258 . S
O450 Cd441 2.378 . S
O450 C448 1.256 . S
O451 Cd452 2.300 . S
O451 C458 1.275 . S
Cd452 O451 2.300 . S
Cd452 O460 2.381 . S
Cd452 O461 2.378 . S
O453 Cd454 2.385 . S
O453 C458 1.255 . S
Cd454 O453 2.385 . S
Cd454 O455 2.317 . S
O455 Cd454 2.317 . S
O455 C456 1.232 . S
C456 O455 1.232 . S
C456 O457 1.218 . S
O457 C456 1.218 . S
C458 O451 1.275 . S
C458 O453 1.255 . S
C459 O460 1.258 . S
C459 O461 1.256 . S
O460 Cd452 2.381 . S
O460 C459 1.258 . S
O461 Cd452 2.378 . S
O461 C459 1.256 . S
O462 Cd463 2.300 . S
O462 C469 1.275 . S
Cd463 O462 2.300 . S
Cd463 O471 2.381 . S
Cd463 O472 2.378 . S
O464 Cd465 2.385 . S
O464 C469 1.255 . S
Cd465 O464 2.385 . S
Cd465 O466 2.317 . S
O466 Cd465 2.317 . S
O466 C467 1.232 . S
C467 O466 1.232 . S
C467 O468 1.218 . S
O468 C467 1.218 . S
C469 O462 1.275 . S
C469 O464 1.255 . S
C470 O471 1.258 . S
C470 O472 1.256 . S
O471 Cd463 2.381 . S
O471 C470 1.258 . S
O472 Cd463 2.378 . S
O472 C470 1.256 . S
O473 Cd474 2.300 . S
O473 C480 1.275 . S
Cd474 O473 2.300 . S
Cd474 O482 2.381 . S
Cd474 O483 2.378 . S
O475 Cd476 2.385 . S
O475 C480 1.255 . S
Cd476 O475 2.385 . S
Cd476 O477 2.317 . S
O477 Cd476 2.317 . S
O477 C478 1.232 . S
C478 O477 1.232 . S
C478 O479 1.218 . S
O479 C478 1.218 . S
C480 O473 1.275 . S
C480 O475 1.255 . S
C481 O482 1.258 . S
C481 O483 1.256 . S
O482 Cd474 2.381 . S
O482 C481 1.258 . S
O483 Cd474 2.378 . S
O483 C481 1.256 . S
O484 Cd485 2.300 . S
O484 C491 1.275 . S
Cd485 O484 2.300 . S
Cd485 O493 2.381 . S
Cd485 O494 2.378 . S
O486 Cd487 2.385 . S
O486 C491 1.255 . S
Cd487 O486 2.385 . S
Cd487 O488 2.317 . S
O488 Cd487 2.317 . S
O488 C489 1.232 . S
C489 O488 1.232 . S
C489 O490 1.218 . S
O490 C489 1.218 . S
C491 O484 1.275 . S
C491 O486 1.255 . S
C492 O493 1.258 . S
C492 O494 1.256 . S
O493 Cd485 2.381 . S
O493 C492 1.258 . S
O494 Cd485 2.378 . S
O494 C492 1.256 . S
O495 Cd496 2.300 . S
O495 C502 1.275 . S
Cd496 O495 2.300 . S
Cd496 O504 2.381 . S
Cd496 O505 2.378 . S
O497 Cd498 2.385 . S
O497 C502 1.255 . S
Cd498 O497 2.385 . S
Cd498 O499 2.317 . S
O499 Cd498 2.317 . S
O499 C500 1.232 . S
C500 O499 1.232 . S
C500 O501 1.218 . S
O501 C500 1.218 . S
C502 O495 1.275 . S
C502 O497 1.255 . S
C503 O504 1.258 . S
C503 O505 1.256 . S
O504 Cd496 2.381 . S
O504 C503 1.258 . S
O505 Cd496 2.378 . S
O505 C503 1.256 . S
O506 Cd507 2.300 . S
O506 C513 1.275 . S
Cd507 O506 2.300 . S
Cd507 O515 2.381 . S
Cd507 O516 2.378 . S
O508 Cd509 2.385 . S
O508 C513 1.255 . S
Cd509 O508 2.385 . S
Cd509 O510 2.317 . S
O510 Cd509 2.317 . S
O510 C511 1.232 . S
C511 O510 1.232 . S
C511 O512 1.218 . S
O512 C511 1.218 . S
C513 O506 1.275 . S
C513 O508 1.255 . S
C514 O515 1.258 . S
C514 O516 1.256 . S
O515 Cd507 2.381 . S
O515 C514 1.258 . S
O516 Cd507 2.378 . S
O516 C514 1.256 . S
O517 Cd518 2.300 . S
O517 C524 1.275 . S
Cd518 O517 2.300 . S
Cd518 O526 2.381 . S
Cd518 O527 2.378 . S
O519 Cd520 2.385 . S
O519 C524 1.255 . S
Cd520 O519 2.385 . S
Cd520 O521 2.317 . S
O521 Cd520 2.317 . S
O521 C522 1.232 . S
C522 O521 1.232 . S
C522 O523 1.218 . S
O523 C522 1.218 . S
C524 O517 1.275 . S
C524 O519 1.255 . S
C525 O526 1.258 . S
C525 O527 1.256 . S
O526 Cd518 2.381 . S
O526 C525 1.258 . S
O527 Cd518 2.378 . S
O527 C525 1.256 . S
H528 C536 0.950 . S
H529 C541 0.950 . S
H530 C538 0.950 . S
H531 C540 0.950 . S
H532 C542 0.950 . S
H533 C544 0.950 . S
H534 C546 0.950 . S
H535 C547 0.950 . S
C536 H528 0.950 . S
C536 C537 1.386 . S
C536 C538 1.391 . S
C537 C536 1.386 . S
C537 C541 1.393 . S
C538 H530 0.950 . S
C538 C536 1.391 . S
C538 C539 1.400 . S
C539 C538 1.400 . S
C539 C540 1.398 . S
C539 C545 1.491 . S
C540 H531 0.950 . S
C540 C539 1.398 . S
C540 C541 1.391 . S
C541 H529 0.950 . S
C541 C537 1.393 . S
C541 C540 1.391 . S
C542 H532 0.950 . S
C542 C543 1.386 . S
C542 C544 1.391 . S
C543 C542 1.386 . S
C543 C547 1.393 . S
C544 H533 0.950 . S
C544 C542 1.391 . S
C544 C545 1.400 . S
C545 C539 1.491 . S
C545 C544 1.400 . S
C545 C546 1.398 . S
C546 H534 0.950 . S
C546 C545 1.398 . S
C546 C547 1.391 . S
C547 H535 0.950 . S
C547 C543 1.393 . S
C547 C546 1.391 . S
H548 C556 0.950 . S
H549 C561 0.950 . S
H550 C558 0.950 . S
H551 C560 0.950 . S
H552 C562 0.950 . S
H553 C564 0.950 . S
H554 C566 0.950 . S
H555 C567 0.950 . S
C556 H548 0.950 . S
C556 C557 1.386 . S
C556 C558 1.391 . S
C557 C556 1.386 . S
C557 C561 1.393 . S
C558 H550 0.950 . S
C558 C556 1.391 . S
C558 C559 1.400 . S
C559 C558 1.400 . S
C559 C560 1.398 . S
C559 C565 1.491 . S
C560 H551 0.950 . S
C560 C559 1.398 . S
C560 C561 1.391 . S
C561 H549 0.950 . S
C561 C557 1.393 . S
C561 C560 1.391 . S
C562 H552 0.950 . S
C562 C563 1.386 . S
C562 C564 1.391 . S
C563 C562 1.386 . S
C563 C567 1.393 . S
C564 H553 0.950 . S
C564 C562 1.391 . S
C564 C565 1.400 . S
C565 C559 1.491 . S
C565 C564 1.400 . S
C565 C566 1.398 . S
C566 H554 0.950 . S
C566 C565 1.398 . S
C566 C567 1.391 . S
C567 H555 0.950 . S
C567 C563 1.393 . S
C567 C566 1.391 . S
H568 C576 0.950 . S
H569 C581 0.950 1_455 S
H570 C578 0.950 . S
H571 C580 0.950 . S
H572 C582 0.950 . S
H573 C584 0.950 . S
H574 C586 0.950 . S
H575 C587 0.950 . S
C576 H568 0.950 . S
C576 C577 1.386 . S
C576 C578 1.391 . S
C577 C576 1.386 . S
C577 C581 1.393 . S
C578 H570 0.950 . S
C578 C576 1.391 . S
C578 C579 1.400 . S
C579 C578 1.400 . S
C579 C580 1.398 . S
C579 C585 1.491 . S
C580 H571 0.950 . S
C580 C579 1.398 . S
C580 C581 1.391 . S
C581 H569 0.950 1_655 S
C581 C577 1.393 . S
C581 C580 1.391 . S
C582 H572 0.950 . S
C582 C583 1.386 . S
C582 C584 1.391 . S
C583 C582 1.386 . S
C583 C587 1.393 . S
C584 H573 0.950 . S
C584 C582 1.391 . S
C584 C585 1.400 . S
C585 C579 1.491 . S
C585 C584 1.400 . S
C585 C586 1.398 . S
C586 H574 0.950 . S
C586 C585 1.398 . S
C586 C587 1.391 . S
C587 H575 0.950 . S
C587 C583 1.393 . S
C587 C586 1.391 . S
H588 C596 0.950 . S
H589 C601 0.950 . S
H590 C598 0.950 . S
H591 C600 0.950 . S
H592 C602 0.952 . S
H593 C604 0.950 . S
H594 C606 0.950 . S
H595 C607 0.950 . S
C596 H588 0.950 . S
C596 C597 1.386 . S
C596 C598 1.391 . S
C597 C596 1.386 . S
C597 C601 1.393 . S
C598 H590 0.950 . S
C598 C596 1.391 . S
C598 C599 1.400 . S
C599 C598 1.400 . S
C599 C600 1.398 . S
C599 C605 1.491 . S
C600 H591 0.950 . S
C600 C599 1.398 . S
C600 C601 1.391 . S
C601 H589 0.950 . S
C601 C597 1.393 . S
C601 C600 1.391 . S
C602 H592 0.952 . S
C602 C603 1.412 . S
C602 C604 1.367 1_565 S
C603 C602 1.412 . S
C603 C607 1.393 . S
C604 H593 0.950 . S
C604 C602 1.367 1_545 S
C604 C605 1.400 . S
C605 C599 1.491 . S
C605 C604 1.400 . S
C605 C606 1.398 . S
C606 H594 0.950 . S
C606 C605 1.398 . S
C606 C607 1.391 1_545 S
C607 H595 0.950 . S
C607 C603 1.393 . S
C607 C606 1.391 1_565 S
H608 C616 0.950 . S
H609 C621 0.950 . S
H610 C618 0.950 . S
H611 C620 0.950 . S
H612 C622 0.950 . S
H613 C624 0.950 . S
H614 C626 0.950 . S
H615 C627 0.950 . S
C616 H608 0.950 . S
C616 C617 1.386 . S
C616 C618 1.391 . S
C617 C616 1.386 . S
C617 C621 1.393 . S
C618 H610 0.950 . S
C618 C616 1.391 . S
C618 C619 1.400 . S
C619 C618 1.400 . S
C619 C620 1.398 . S
C619 C625 1.491 . S
C620 H611 0.950 . S
C620 C619 1.398 . S
C620 C621 1.391 . S
C621 H609 0.950 . S
C621 C617 1.393 . S
C621 C620 1.391 . S
C622 H612 0.950 . S
C622 C623 1.386 . S
C622 C624 1.391 . S
C623 C622 1.386 . S
C623 C627 1.393 . S
C624 H613 0.950 . S
C624 C622 1.391 . S
C624 C625 1.400 . S
C625 C619 1.491 . S
C625 C624 1.400 . S
C625 C626 1.398 . S
C626 H614 0.950 . S
C626 C625 1.398 . S
C626 C627 1.391 . S
C627 H615 0.950 . S
C627 C623 1.393 . S
C627 C626 1.391 . S
H628 C636 0.950 . S
H629 C641 0.950 . S
H630 C638 0.950 . S
H631 C640 0.950 . S
H632 C642 0.950 . S
H633 C644 0.950 . S
H634 C646 0.950 . S
H635 C647 0.950 . S
C636 H628 0.950 . S
C636 C637 1.386 . S
C636 C638 1.391 . S
C637 C636 1.386 . S
C637 C641 1.393 . S
C638 H630 0.950 . S
C638 C636 1.391 . S
C638 C639 1.400 . S
C639 C638 1.400 . S
C639 C640 1.398 . S
C639 C645 1.491 . S
C640 H631 0.950 . S
C640 C639 1.398 . S
C640 C641 1.391 . S
C641 H629 0.950 . S
C641 C637 1.393 . S
C641 C640 1.391 . S
C642 H632 0.950 . S
C642 C643 1.386 . S
C642 C644 1.391 . S
C643 C642 1.386 . S
C643 C647 1.393 . S
C644 H633 0.950 . S
C644 C642 1.391 . S
C644 C645 1.400 . S
C645 C639 1.491 . S
C645 C644 1.400 . S
C645 C646 1.398 . S
C646 H634 0.950 . S
C646 C645 1.398 . S
C646 C647 1.391 . S
C647 H635 0.950 . S
C647 C643 1.393 . S
C647 C646 1.391 . S
H648 C656 0.950 . S
H649 C661 0.950 . S
H650 C658 0.950 . S
H651 C660 0.950 . S
H652 C662 0.950 . S
H653 C664 0.950 . S
H654 C666 0.950 . S
H655 C667 0.950 . S
C656 H648 0.950 . S
C656 C657 1.386 . S
C656 C658 1.391 . S
C657 C656 1.386 . S
C657 C661 1.393 . S
C658 H650 0.950 . S
C658 C656 1.391 . S
C658 C659 1.400 . S
C659 C658 1.400 . S
C659 C660 1.398 . S
C659 C665 1.491 . S
C660 H651 0.950 . S
C660 C659 1.398 . S
C660 C661 1.391 . S
C661 H649 0.950 . S
C661 C657 1.393 . S
C661 C660 1.391 . S
C662 H652 0.950 . S
C662 C663 1.386 . S
C662 C664 1.391 . S
C663 C662 1.386 . S
C663 C667 1.393 . S
C664 H653 0.950 . S
C664 C662 1.391 . S
C664 C665 1.400 . S
C665 C659 1.491 . S
C665 C664 1.400 . S
C665 C666 1.398 . S
C666 H654 0.950 . S
C666 C665 1.398 . S
C666 C667 1.391 . S
C667 H655 0.950 . S
C667 C663 1.393 . S
C667 C666 1.391 . S
H668 C676 0.950 . S
H669 C681 0.950 . S
H670 C678 0.950 . S
H671 C680 0.950 . S
H672 C682 0.950 . S
H673 C684 0.950 . S
H674 C686 0.950 . S
H675 C687 0.950 . S
C676 H668 0.950 . S
C676 C677 1.386 . S
C676 C678 1.391 . S
C677 C676 1.386 . S
C677 C681 1.393 . S
C678 H670 0.950 . S
C678 C676 1.391 . S
C678 C679 1.400 . S
C679 C678 1.400 . S
C679 C680 1.398 . S
C679 C685 1.491 . S
C680 H671 0.950 . S
C680 C679 1.398 . S
C680 C681 1.391 . S
C681 H669 0.950 . S
C681 C677 1.393 . S
C681 C680 1.391 . S
C682 H672 0.950 . S
C682 C683 1.386 . S
C682 C684 1.391 . S
C683 C682 1.386 . S
C683 C687 1.393 . S
C684 H673 0.950 . S
C684 C682 1.391 . S
C684 C685 1.400 . S
C685 C679 1.491 . S
C685 C684 1.400 . S
C685 C686 1.398 . S
C686 H674 0.950 . S
C686 C685 1.398 . S
C686 C687 1.391 . S
C687 H675 0.950 . S
C687 C683 1.393 . S
C687 C686 1.391 . S
H688 C696 0.950 . S
H689 C701 0.950 . S
H690 C698 0.950 . S
H691 C700 0.950 . S
H692 C702 0.950 . S
H693 C704 0.950 . S
H694 C706 0.950 . S
H695 C707 0.950 . S
C696 H688 0.950 . S
C696 C697 1.386 . S
C696 C698 1.391 . S
C697 C696 1.386 . S
C697 C701 1.393 . S
C698 H690 0.950 . S
C698 C696 1.391 . S
C698 C699 1.400 . S
C699 C698 1.400 . S
C699 C700 1.398 . S
C699 C705 1.491 . S
C700 H691 0.950 . S
C700 C699 1.398 . S
C700 C701 1.391 . S
C701 H689 0.950 . S
C701 C697 1.393 . S
C701 C700 1.391 . S
C702 H692 0.950 . S
C702 C703 1.386 . S
C702 C704 1.391 . S
C703 C702 1.386 . S
C703 C707 1.393 . S
C704 H693 0.950 . S
C704 C702 1.391 . S
C704 C705 1.400 . S
C705 C699 1.491 . S
C705 C704 1.400 . S
C705 C706 1.398 . S
C706 H694 0.950 . S
C706 C705 1.398 . S
C706 C707 1.391 . S
C707 H695 0.950 . S
C707 C703 1.393 . S
C707 C706 1.391 . S
H708 C716 0.950 . S
H709 C721 0.950 . S
H710 C718 0.950 . S
H711 C720 0.950 . S
H712 C722 0.950 . S
H713 C724 0.950 1_455 S
H714 C726 0.950 . S
H715 C727 0.950 . S
C716 H708 0.950 . S
C716 C717 1.386 . S
C716 C718 1.391 1_455 S
C717 C716 1.386 . S
C717 C721 1.393 . S
C718 H710 0.950 . S
C718 C716 1.391 1_655 S
C718 C719 1.393 1_655 S
C719 C718 1.393 1_455 S
C719 C720 1.446 . S
C719 C725 1.452 1_455 S
C720 H711 0.950 . S
C720 C719 1.446 . S
C720 C721 1.391 . S
C721 H709 0.950 . S
C721 C717 1.393 . S
C721 C720 1.391 . S
C722 H712 0.950 . S
C722 C723 1.386 . S
C722 C724 1.391 . S
C723 C722 1.386 . S
C723 C727 1.393 . S
C724 H713 0.950 1_655 S
C724 C722 1.391 . S
C724 C725 1.400 . S
C725 C719 1.452 1_655 S
C725 C724 1.400 . S
C725 C726 1.398 . S
C726 H714 0.950 . S
C726 C725 1.398 . S
C726 C727 1.391 . S
C727 H715 0.950 . S
C727 C723 1.393 . S
C727 C726 1.391 . S
H728 C736 0.950 . S
H729 C741 0.950 . S
H730 C738 0.950 . S
H731 C740 0.950 . S
H732 C742 0.950 . S
H733 C744 0.950 . S
H734 C746 0.950 . S
H735 C747 0.951 . S
C736 H728 0.950 . S
C736 C737 1.386 . S
C736 C738 1.391 . S
C737 C736 1.386 . S
C737 C741 1.393 . S
C738 H730 0.950 . S
C738 C736 1.391 . S
C738 C739 1.400 . S
C739 C738 1.400 . S
C739 C740 1.398 . S
C739 C745 1.491 . S
C740 H731 0.950 . S
C740 C739 1.398 . S
C740 C741 1.391 . S
C741 H729 0.950 . S
C741 C737 1.393 . S
C741 C740 1.391 . S
C742 H732 0.950 . S
C742 C743 1.386 . S
C742 C744 1.391 . S
C743 C742 1.386 . S
C743 C747 1.393 . S
C744 H733 0.950 . S
C744 C742 1.391 . S
C744 C745 1.400 1_545 S
C745 C739 1.491 . S
C745 C744 1.400 1_565 S
C745 C746 1.398 . S
C746 H734 0.950 . S
C746 C745 1.398 . S
C746 C747 1.391 1_565 S
C747 H735 0.951 . S
C747 C743 1.393 . S
C747 C746 1.391 1_545 S
H748 C756 0.950 . S
H749 C761 0.950 . S
H750 C758 0.950 . S
H751 C760 0.950 . S
H752 C762 0.950 . S
H753 C764 0.950 . S
H754 C766 0.950 . S
H755 C767 0.950 . S
C756 H748 0.950 . S
C756 C757 1.386 . S
C756 C758 1.391 . S
C757 C756 1.386 . S
C757 C761 1.393 . S
C758 H750 0.950 . S
C758 C756 1.391 . S
C758 C759 1.400 . S
C759 C758 1.400 . S
C759 C760 1.398 . S
C759 C765 1.491 . S
C760 H751 0.950 . S
C760 C759 1.398 . S
C760 C761 1.391 . S
C761 H749 0.950 . S
C761 C757 1.393 . S
C761 C760 1.391 . S
C762 H752 0.950 . S
C762 C763 1.386 . S
C762 C764 1.391 . S
C763 C762 1.386 . S
C763 C767 1.393 . S
C764 H753 0.950 . S
C764 C762 1.391 . S
C764 C765 1.400 . S
C765 C759 1.491 . S
C765 C764 1.400 . S
C765 C766 1.398 . S
C766 H754 0.950 . S
C766 C765 1.398 . S
C766 C767 1.391 . S
C767 H755 0.950 . S
C767 C763 1.393 . S
C767 C766 1.391 . S
H768 C776 0.950 . S
H769 C781 0.950 . S
H770 C778 0.950 . S
H771 C780 0.950 . S
H772 C782 0.950 . S
H773 C784 0.950 . S
H774 C786 0.950 . S
H775 C787 0.950 . S
C776 H768 0.950 . S
C776 C777 1.386 . S
C776 C778 1.391 . S
C777 C776 1.386 . S
C777 C781 1.393 . S
C778 H770 0.950 . S
C778 C776 1.391 . S
C778 C779 1.400 . S
C779 C778 1.400 . S
C779 C780 1.398 . S
C779 C785 1.491 . S
C780 H771 0.950 . S
C780 C779 1.398 . S
C780 C781 1.391 . S
C781 H769 0.950 . S
C781 C777 1.393 . S
C781 C780 1.391 . S
C782 H772 0.950 . S
C782 C783 1.386 . S
C782 C784 1.391 . S
C783 C782 1.386 . S
C783 C787 1.393 . S
C784 H773 0.950 . S
C784 C782 1.391 . S
C784 C785 1.400 . S
C785 C779 1.491 . S
C785 C784 1.400 . S
C785 C786 1.398 . S
C786 H774 0.950 . S
C786 C785 1.398 . S
C786 C787 1.391 . S
C787 H775 0.950 . S
C787 C783 1.393 . S
C787 C786 1.391 . S
H788 C796 0.950 . S
H789 C801 0.950 . S
H790 C798 0.950 . S
H791 C800 0.950 . S
H792 C802 0.950 . S
H793 C804 0.950 . S
H794 C806 0.950 . S
H795 C807 0.950 . S
C796 H788 0.950 . S
C796 C797 1.386 . S
C796 C798 1.391 . S
C797 C796 1.386 . S
C797 C801 1.393 . S
C798 H790 0.950 . S
C798 C796 1.391 . S
C798 C799 1.400 . S
C799 C798 1.400 . S
C799 C800 1.398 . S
C799 C805 1.491 . S
C800 H791 0.950 . S
C800 C799 1.398 . S
C800 C801 1.391 . S
C801 H789 0.950 . S
C801 C797 1.393 . S
C801 C800 1.391 . S
C802 H792 0.950 . S
C802 C803 1.386 . S
C802 C804 1.391 . S
C803 C802 1.386 . S
C803 C807 1.393 . S
C804 H793 0.950 . S
C804 C802 1.391 . S
C804 C805 1.400 . S
C805 C799 1.491 . S
C805 C804 1.400 . S
C805 C806 1.398 . S
C806 H794 0.950 . S
C806 C805 1.398 . S
C806 C807 1.391 . S
C807 H795 0.950 . S
C807 C803 1.393 . S
C807 C806 1.391 . S
H808 C816 0.950 . S
H809 C821 0.950 . S
H810 C818 0.950 . S
H811 C820 0.950 . S
H812 C822 0.950 . S
H813 C824 0.950 . S
H814 C826 0.950 . S
H815 C827 0.950 . S
C816 H808 0.950 . S
C816 C817 1.386 . S
C816 C818 1.391 . S
C817 C816 1.386 . S
C817 C821 1.393 . S
C818 H810 0.950 . S
C818 C816 1.391 . S
C818 C819 1.400 . S
C819 C818 1.400 . S
C819 C820 1.398 . S
C819 C825 1.491 . S
C820 H811 0.950 . S
C820 C819 1.398 . S
C820 C821 1.391 . S
C821 H809 0.950 . S
C821 C817 1.393 . S
C821 C820 1.391 . S
C822 H812 0.950 . S
C822 C823 1.386 . S
C822 C824 1.391 . S
C823 C822 1.386 . S
C823 C827 1.393 . S
C824 H813 0.950 . S
C824 C822 1.391 . S
C824 C825 1.400 . S
C825 C819 1.491 . S
C825 C824 1.400 . S
C825 C826 1.398 . S
C826 H814 0.950 . S
C826 C825 1.398 . S
C826 C827 1.391 . S
C827 H815 0.950 . S
C827 C823 1.393 . S
C827 C826 1.391 . S
H828 C836 0.950 . S
H829 C841 0.950 . S
H830 C838 0.950 . S
H831 C840 0.950 . S
H832 C842 0.950 . S
H833 C844 0.950 . S
H834 C846 0.950 . S
H835 C847 0.950 . S
C836 H828 0.950 . S
C836 C837 1.386 . S
C836 C838 1.391 . S
C837 C836 1.386 . S
C837 C841 1.393 . S
C838 H830 0.950 . S
C838 C836 1.391 . S
C838 C839 1.400 . S
C839 C838 1.400 . S
C839 C840 1.398 . S
C839 C845 1.491 . S
C840 H831 0.950 . S
C840 C839 1.398 . S
C840 C841 1.391 . S
C841 H829 0.950 . S
C841 C837 1.393 . S
C841 C840 1.391 . S
C842 H832 0.950 . S
C842 C843 1.386 . S
C842 C844 1.391 . S
C843 C842 1.386 . S
C843 C847 1.393 . S
C844 H833 0.950 . S
C844 C842 1.391 . S
C844 C845 1.400 . S
C845 C839 1.491 . S
C845 C844 1.400 . S
C845 C846 1.398 . S
C846 H834 0.950 . S
C846 C845 1.398 . S
C846 C847 1.391 . S
C847 H835 0.950 . S
C847 C843 1.393 . S
C847 C846 1.391 . S
H848 C856 0.950 . S
H849 C861 0.950 . S
H850 C858 0.950 . S
H851 C860 0.950 . S
H852 C862 0.950 . S
H853 C864 0.950 . S
H854 C866 0.950 . S
H855 C867 0.950 . S
C856 H848 0.950 . S
C856 C857 1.386 . S
C856 C858 1.391 . S
C857 C856 1.386 . S
C857 C861 1.393 . S
C858 H850 0.950 . S
C858 C856 1.391 . S
C858 C859 1.400 . S
C859 C858 1.400 . S
C859 C860 1.398 . S
C859 C865 1.491 . S
C860 H851 0.950 . S
C860 C859 1.398 . S
C860 C861 1.391 . S
C861 H849 0.950 . S
C861 C857 1.393 . S
C861 C860 1.391 . S
C862 H852 0.950 . S
C862 C863 1.386 . S
C862 C864 1.391 . S
C863 C862 1.386 . S
C863 C867 1.393 . S
C864 H853 0.950 . S
C864 C862 1.391 . S
C864 C865 1.400 . S
C865 C859 1.491 . S
C865 C864 1.400 . S
C865 C866 1.398 . S
C866 H854 0.950 . S
C866 C865 1.398 . S
C866 C867 1.391 . S
C867 H855 0.950 . S
C867 C863 1.393 . S
C867 C866 1.391 . S
H868 C876 0.950 1_554 S
H869 C881 0.950 . S
H870 C878 0.950 . S
H871 C880 0.950 . S
H872 C882 0.950 . S
H873 C884 0.950 . S
H874 C886 0.950 . S
H875 C887 0.950 . S
C876 H868 0.950 1_556 S
C876 C877 1.392 . S
C876 C878 1.391 . S
C877 C876 1.392 . S
C877 C881 1.415 . S
C878 H870 0.950 . S
C878 C876 1.391 . S
C878 C879 1.400 . S
C879 C878 1.400 . S
C879 C880 1.398 . S
C879 C885 1.491 . S
C880 H871 0.950 . S
C880 C879 1.398 . S
C880 C881 1.391 . S
C881 H869 0.950 . S
C881 C877 1.415 . S
C881 C880 1.391 . S
C882 H872 0.950 . S
C882 C883 1.386 . S
C882 C884 1.391 . S
C883 C882 1.386 . S
C883 C887 1.393 . S
C884 H873 0.950 . S
C884 C882 1.391 . S
C884 C885 1.400 . S
C885 C879 1.491 . S
C885 C884 1.400 . S
C885 C886 1.398 . S
C886 H874 0.950 . S
C886 C885 1.398 . S
C886 C887 1.391 . S
C887 H875 0.950 . S
C887 C883 1.393 . S
C887 C886 1.391 . S
H888 C896 0.950 . S
H889 C901 0.950 . S
H890 C898 0.950 . S
H891 C900 0.950 . S
H892 C902 0.950 . S
H893 C904 0.950 . S
H894 C906 0.950 . S
H895 C907 0.950 . S
C896 H888 0.950 . S
C896 C897 1.386 . S
C896 C898 1.391 . S
C897 C896 1.386 . S
C897 C901 1.393 . S
C898 H890 0.950 . S
C898 C896 1.391 . S
C898 C899 1.400 . S
C899 C898 1.400 . S
C899 C900 1.398 . S
C899 C905 1.491 . S
C900 H891 0.950 . S
C900 C899 1.398 . S
C900 C901 1.391 . S
C901 H889 0.950 . S
C901 C897 1.393 . S
C901 C900 1.391 . S
C902 H892 0.950 . S
C902 C903 1.386 . S
C902 C904 1.391 . S
C903 C902 1.386 . S
C903 C907 1.393 . S
C904 H893 0.950 . S
C904 C902 1.391 . S
C904 C905 1.400 . S
C905 C899 1.491 . S
C905 C904 1.400 . S
C905 C906 1.398 . S
C906 H894 0.950 . S
C906 C905 1.398 . S
C906 C907 1.391 . S
C907 H895 0.950 . S
C907 C903 1.393 . S
C907 C906 1.391 . S
H908 C916 0.950 . S
H909 C921 0.950 . S
H910 C918 0.950 . S
H911 C920 0.950 . S
H912 C922 0.950 . S
H913 C924 0.950 . S
H914 C926 0.950 . S
H915 C927 0.950 . S
C916 H908 0.950 . S
C916 C917 1.386 . S
C916 C918 1.391 . S
C917 C916 1.386 . S
C917 C921 1.393 . S
C918 H910 0.950 . S
C918 C916 1.391 . S
C918 C919 1.400 . S
C919 C918 1.400 . S
C919 C920 1.398 . S
C919 C925 1.491 . S
C920 H911 0.950 . S
C920 C919 1.398 . S
C920 C921 1.391 . S
C921 H909 0.950 . S
C921 C917 1.393 . S
C921 C920 1.391 . S
C922 H912 0.950 . S
C922 C923 1.386 . S
C922 C924 1.391 . S
C923 C922 1.386 . S
C923 C927 1.393 . S
C924 H913 0.950 . S
C924 C922 1.391 . S
C924 C925 1.400 . S
C925 C919 1.491 . S
C925 C924 1.400 . S
C925 C926 1.398 . S
C926 H914 0.950 . S
C926 C925 1.398 . S
C926 C927 1.391 . S
C927 H915 0.950 . S
C927 C923 1.393 . S
C927 C926 1.391 . S
H928 C936 0.950 . S
H929 C941 0.950 . S
H930 C938 0.950 . S
H931 C940 0.950 . S
H932 C942 0.950 . S
H933 C944 0.950 . S
H934 C946 0.950 . S
H935 C947 0.950 . S
C936 H928 0.950 . S
C936 C937 1.386 . S
C936 C938 1.391 . S
C937 C936 1.386 . S
C937 C941 1.393 . S
C938 H930 0.950 . S
C938 C936 1.391 . S
C938 C939 1.400 . S
C939 C938 1.400 . S
C939 C940 1.398 . S
C939 C945 1.491 . S
C940 H931 0.950 . S
C940 C939 1.398 . S
C940 C941 1.391 . S
C941 H929 0.950 . S
C941 C937 1.393 . S
C941 C940 1.391 . S
C942 H932 0.950 . S
C942 C943 1.386 . S
C942 C944 1.391 1_554 S
C943 C942 1.386 . S
C943 C947 1.393 . S
C944 H933 0.950 . S
C944 C942 1.391 1_556 S
C944 C945 1.400 . S
C945 C939 1.491 . S
C945 C944 1.400 . S
C945 C946 1.398 1_556 S
C946 H934 0.950 . S
C946 C945 1.398 1_554 S
C946 C947 1.391 . S
C947 H935 0.950 . S
C947 C943 1.393 . S
C947 C946 1.391 . S
H948 C956 0.950 . S
H949 C961 0.950 . S
H950 C958 0.950 . S
H951 C960 0.950 . S
H952 C962 0.950 . S
H953 C964 0.950 . S
H954 C966 0.950 . S
H955 C967 0.950 . S
C956 H948 0.950 . S
C956 C957 1.386 . S
C956 C958 1.391 . S
C957 C956 1.386 . S
C957 C961 1.393 . S
C958 H950 0.950 . S
C958 C956 1.391 . S
C958 C959 1.400 . S
C959 C958 1.400 . S
C959 C960 1.398 . S
C959 C965 1.491 . S
C960 H951 0.950 . S
C960 C959 1.398 . S
C960 C961 1.391 . S
C961 H949 0.950 . S
C961 C957 1.393 . S
C961 C960 1.391 . S
C962 H952 0.950 . S
C962 C963 1.386 . S
C962 C964 1.391 . S
C963 C962 1.386 . S
C963 C967 1.393 . S
C964 H953 0.950 . S
C964 C962 1.391 . S
C964 C965 1.400 . S
C965 C959 1.491 . S
C965 C964 1.400 . S
C965 C966 1.398 . S
C966 H954 0.950 . S
C966 C965 1.398 . S
C966 C967 1.391 . S
C967 H955 0.950 . S
C967 C963 1.393 . S
C967 C966 1.391 . S
H968 C976 0.950 . S
H969 C981 0.950 . S
H970 C978 0.950 . S
H971 C980 0.950 . S
H972 C982 0.950 . S
H973 C984 0.950 . S
H974 C986 0.950 . S
H975 C987 0.950 . S
C976 H968 0.950 . S
C976 C977 1.386 . S
C976 C978 1.391 . S
C977 C976 1.386 . S
C977 C981 1.393 . S
C978 H970 0.950 . S
C978 C976 1.391 . S
C978 C979 1.400 . S
C979 C978 1.400 . S
C979 C980 1.398 . S
C979 C985 1.491 . S
C980 H971 0.950 . S
C980 C979 1.398 . S
C980 C981 1.391 . S
C981 H969 0.950 . S
C981 C977 1.393 . S
C981 C980 1.391 . S
C982 H972 0.950 . S
C982 C983 1.386 . S
C982 C984 1.391 . S
C983 C982 1.386 . S
C983 C987 1.393 . S
C984 H973 0.950 . S
C984 C982 1.391 . S
C984 C985 1.400 . S
C985 C979 1.491 . S
C985 C984 1.400 . S
C985 C986 1.398 . S
C986 H974 0.950 . S
C986 C985 1.398 . S
C986 C987 1.391 . S
C987 H975 0.950 . S
C987 C983 1.393 . S
C987 C986 1.391 . S
H988 C996 0.950 . S
H989 C1001 0.950 . S
H990 C998 0.950 . S
H991 C1000 0.950 . S
H992 C1002 0.950 . S
H993 C1004 0.950 . S
H994 C1006 0.950 . S
H995 C1007 0.950 . S
C996 H988 0.950 . S
C996 C997 1.386 . S
C996 C998 1.391 . S
C997 C996 1.386 . S
C997 C1001 1.393 . S
C998 H990 0.950 . S
C998 C996 1.391 . S
C998 C999 1.400 . S
C999 C998 1.400 . S
C999 C1000 1.398 . S
C999 C1005 1.491 . S
C1000 H991 0.950 . S
C1000 C999 1.398 . S
C1000 C1001 1.391 . S
C1001 H989 0.950 . S
C1001 C997 1.393 . S
C1001 C1000 1.391 . S
C1002 H992 0.950 . S
C1002 C1003 1.386 . S
C1002 C1004 1.391 . S
C1003 C1002 1.386 . S
C1003 C1007 1.393 . S
C1004 H993 0.950 . S
C1004 C1002 1.391 . S
C1004 C1005 1.400 . S
C1005 C999 1.491 . S
C1005 C1004 1.400 . S
C1005 C1006 1.398 . S
C1006 H994 0.950 . S
C1006 C1005 1.398 . S
C1006 C1007 1.391 . S
C1007 H995 0.950 . S
C1007 C1003 1.393 . S
C1007 C1006 1.391 . S
H1008 C1016 0.950 1_455 S
H1009 C1021 0.950 . S
H1010 C1018 0.950 . S
H1011 C1020 0.950 . S
H1012 C1022 0.950 . S
H1013 C1024 0.950 . S
H1014 C1026 0.950 . S
H1015 C1027 0.950 . S
C1016 H1008 0.950 1_655 S
C1016 C1017 1.386 . S
C1016 C1018 1.391 . S
C1017 C1016 1.386 . S
C1017 C1021 1.393 . S
C1018 H1010 0.950 . S
C1018 C1016 1.391 . S
C1018 C1019 1.400 . S
C1019 C1018 1.400 . S
C1019 C1020 1.398 . S
C1019 C1025 1.491 . S
C1020 H1011 0.950 . S
C1020 C1019 1.398 . S
C1020 C1021 1.391 . S
C1021 H1009 0.950 . S
C1021 C1017 1.393 . S
C1021 C1020 1.391 . S
C1022 H1012 0.950 . S
C1022 C1023 1.386 . S
C1022 C1024 1.391 . S
C1023 C1022 1.386 . S
C1023 C1027 1.393 . S
C1024 H1013 0.950 . S
C1024 C1022 1.391 . S
C1024 C1025 1.400 . S
C1025 C1019 1.491 . S
C1025 C1024 1.400 . S
C1025 C1026 1.398 . S
C1026 H1014 0.950 . S
C1026 C1025 1.398 . S
C1026 C1027 1.391 . S
C1027 H1015 0.950 . S
C1027 C1023 1.393 . S
C1027 C1026 1.391 . S
H1028 C1036 0.950 . S
H1029 C1041 0.950 . S
H1030 C1038 0.950 . S
H1031 C1040 0.956 1_545 S
H1032 C1042 0.950 . S
H1033 C1044 0.950 . S
H1034 C1046 0.950 . S
H1035 C1047 0.950 . S
C1036 H1028 0.950 . S
C1036 C1037 1.386 . S
C1036 C1038 1.391 . S
C1037 C1036 1.386 . S
C1037 C1041 1.393 . S
C1038 H1030 0.950 . S
C1038 C1036 1.391 . S
C1038 C1039 1.400 . S
C1039 C1038 1.400 . S
C1039 C1040 1.398 . S
C1039 C1045 1.491 . S
C1040 H1031 0.956 1_565 S
C1040 C1039 1.398 . S
C1040 C1041 1.391 . S
C1041 H1029 0.950 . S
C1041 C1037 1.393 . S
C1041 C1040 1.391 . S
C1042 H1032 0.950 . S
C1042 C1043 1.386 . S
C1042 C1044 1.391 . S
C1043 C1042 1.386 . S
C1043 C1047 1.393 1_545 S
C1044 H1033 0.950 . S
C1044 C1042 1.391 . S
C1044 C1045 1.400 1_545 S
C1045 C1039 1.491 . S
C1045 C1044 1.400 1_565 S
C1045 C1046 1.398 . S
C1046 H1034 0.950 . S
C1046 C1045 1.398 . S
C1046 C1047 1.391 . S
C1047 H1035 0.950 . S
C1047 C1043 1.393 1_565 S
C1047 C1046 1.391 . S
H1048 C1056 0.950 . S
H1049 C1061 0.950 . S
H1050 C1058 0.950 . S
H1051 C1060 0.950 . S
H1052 C1062 0.950 . S
H1053 C1064 0.950 . S
H1054 C1066 0.950 . S
H1055 C1067 0.950 . S
C1056 H1048 0.950 . S
C1056 C1057 1.386 . S
C1056 C1058 1.391 . S
C1057 C1056 1.386 . S
C1057 C1061 1.393 . S
C1058 H1050 0.950 . S
C1058 C1056 1.391 . S
C1058 C1059 1.400 . S
C1059 C1058 1.400 . S
C1059 C1060 1.398 . S
C1059 C1065 1.491 . S
C1060 H1051 0.950 . S
C1060 C1059 1.398 . S
C1060 C1061 1.391 . S
C1061 H1049 0.950 . S
C1061 C1057 1.393 . S
C1061 C1060 1.391 . S
C1062 H1052 0.950 . S
C1062 C1063 1.386 . S
C1062 C1064 1.391 . S
C1063 C1062 1.386 . S
C1063 C1067 1.393 . S
C1064 H1053 0.950 . S
C1064 C1062 1.391 . S
C1064 C1065 1.400 . S
C1065 C1059 1.491 . S
C1065 C1064 1.400 . S
C1065 C1066 1.398 . S
C1066 H1054 0.950 . S
C1066 C1065 1.398 . S
C1066 C1067 1.391 . S
C1067 H1055 0.950 . S
C1067 C1063 1.393 . S
C1067 C1066 1.391 . S
H1068 C1076 0.950 . S
H1069 C1081 0.950 . S
H1070 C1078 0.950 . S
H1071 C1080 0.950 . S
H1072 C1082 0.950 . S
H1073 C1084 0.950 . S
H1074 C1086 0.950 . S
H1075 C1087 0.950 . S
C1076 H1068 0.950 . S
C1076 C1077 1.386 . S
C1076 C1078 1.391 . S
C1077 C1076 1.386 . S
C1077 C1081 1.393 . S
C1078 H1070 0.950 . S
C1078 C1076 1.391 . S
C1078 C1079 1.400 . S
C1079 C1078 1.400 . S
C1079 C1080 1.398 . S
C1079 C1085 1.491 . S
C1080 H1071 0.950 . S
C1080 C1079 1.398 . S
C1080 C1081 1.391 . S
C1081 H1069 0.950 . S
C1081 C1077 1.393 . S
C1081 C1080 1.391 . S
C1082 H1072 0.950 . S
C1082 C1083 1.386 . S
C1082 C1084 1.391 . S
C1083 C1082 1.386 . S
C1083 C1087 1.393 . S
C1084 H1073 0.950 . S
C1084 C1082 1.391 . S
C1084 C1085 1.400 . S
C1085 C1079 1.491 . S
C1085 C1084 1.400 . S
C1085 C1086 1.398 . S
C1086 H1074 0.950 . S
C1086 C1085 1.398 . S
C1086 C1087 1.391 . S
C1087 H1075 0.950 . S
C1087 C1083 1.393 . S
C1087 C1086 1.391 . S
H1088 C1096 0.950 . S
H1089 C1101 0.950 . S
H1090 C1098 0.950 . S
H1091 C1100 0.950 . S
H1092 C1102 0.950 . S
H1093 C1104 0.950 . S
H1094 C1106 0.950 . S
H1095 C1107 0.950 . S
C1096 H1088 0.950 . S
C1096 C1097 1.386 . S
C1096 C1098 1.391 . S
C1097 C1096 1.386 . S
C1097 C1101 1.393 . S
C1098 H1090 0.950 . S
C1098 C1096 1.391 . S
C1098 C1099 1.400 . S
C1099 C1098 1.400 . S
C1099 C1100 1.398 . S
C1099 C1105 1.491 . S
C1100 H1091 0.950 . S
C1100 C1099 1.398 . S
C1100 C1101 1.391 . S
C1101 H1089 0.950 . S
C1101 C1097 1.393 . S
C1101 C1100 1.391 . S
C1102 H1092 0.950 . S
C1102 C1103 1.386 . S
C1102 C1104 1.391 1_455 S
C1103 C1102 1.386 . S
C1103 C1107 1.393 1_455 S
C1104 H1093 0.950 . S
C1104 C1102 1.391 1_655 S
C1104 C1105 1.400 . S
C1105 C1099 1.491 . S
C1105 C1104 1.400 . S
C1105 C1106 1.398 . S
C1106 H1094 0.950 . S
C1106 C1105 1.398 . S
C1106 C1107 1.391 . S
C1107 H1095 0.950 . S
C1107 C1103 1.393 1_655 S
C1107 C1106 1.391 . S
H1108 C1116 0.950 . S
H1109 C1121 0.950 . S
H1110 C1118 0.950 . S
H1111 C1120 0.950 . S
H1112 C1122 0.950 . S
H1113 C1124 0.950 . S
H1114 C1126 0.950 . S
H1115 C1127 0.950 . S
C1116 H1108 0.950 . S
C1116 C1117 1.386 . S
C1116 C1118 1.391 . S
C1117 C1116 1.386 . S
C1117 C1121 1.393 . S
C1118 H1110 0.950 . S
C1118 C1116 1.391 . S
C1118 C1119 1.400 . S
C1119 C1118 1.400 . S
C1119 C1120 1.398 . S
C1119 C1125 1.491 . S
C1120 H1111 0.950 . S
C1120 C1119 1.398 . S
C1120 C1121 1.391 . S
C1121 H1109 0.950 . S
C1121 C1117 1.393 . S
C1121 C1120 1.391 . S
C1122 H1112 0.950 . S
C1122 C1123 1.386 . S
C1122 C1124 1.391 . S
C1123 C1122 1.386 . S
C1123 C1127 1.393 . S
C1124 H1113 0.950 . S
C1124 C1122 1.391 . S
C1124 C1125 1.400 . S
C1125 C1119 1.491 . S
C1125 C1124 1.400 . S
C1125 C1126 1.398 . S
C1126 H1114 0.950 . S
C1126 C1125 1.398 . S
C1126 C1127 1.391 . S
C1127 H1115 0.950 . S
C1127 C1123 1.393 . S
C1127 C1126 1.391 . S
H1128 C1136 0.950 . S
H1129 C1141 0.950 . S
H1130 C1138 0.950 . S
H1131 C1140 0.950 . S
H1132 C1142 0.950 . S
H1133 C1144 0.950 . S
H1134 C1146 0.950 . S
H1135 C1147 0.950 . S
C1136 H1128 0.950 . S
C1136 C1137 1.386 . S
C1136 C1138 1.391 . S
C1137 C1136 1.386 . S
C1137 C1141 1.393 . S
C1138 H1130 0.950 . S
C1138 C1136 1.391 . S
C1138 C1139 1.400 . S
C1139 C1138 1.400 . S
C1139 C1140 1.398 . S
C1139 C1145 1.491 . S
C1140 H1131 0.950 . S
C1140 C1139 1.398 . S
C1140 C1141 1.391 . S
C1141 H1129 0.950 . S
C1141 C1137 1.393 . S
C1141 C1140 1.391 . S
C1142 H1132 0.950 . S
C1142 C1143 1.386 . S
C1142 C1144 1.391 . S
C1143 C1142 1.386 . S
C1143 C1147 1.393 . S
C1144 H1133 0.950 . S
C1144 C1142 1.391 . S
C1144 C1145 1.400 . S
C1145 C1139 1.491 . S
C1145 C1144 1.400 . S
C1145 C1146 1.398 . S
C1146 H1134 0.950 . S
C1146 C1145 1.398 . S
C1146 C1147 1.391 . S
C1147 H1135 0.950 . S
C1147 C1143 1.393 . S
C1147 C1146 1.391 . S
H1148 C1156 0.950 . S
H1149 C1161 0.950 . S
H1150 C1158 0.950 . S
H1151 C1160 0.950 . S
H1152 C1162 0.950 . S
H1153 C1164 0.950 . S
H1154 C1166 0.950 . S
H1155 C1167 0.950 . S
C1156 H1148 0.950 . S
C1156 C1157 1.386 . S
C1156 C1158 1.391 . S
C1157 C1156 1.386 . S
C1157 C1161 1.393 . S
C1158 H1150 0.950 . S
C1158 C1156 1.391 . S
C1158 C1159 1.400 . S
C1159 C1158 1.400 . S
C1159 C1160 1.398 . S
C1159 C1165 1.491 . S
C1160 H1151 0.950 . S
C1160 C1159 1.398 . S
C1160 C1161 1.391 . S
C1161 H1149 0.950 . S
C1161 C1157 1.393 . S
C1161 C1160 1.391 . S
C1162 H1152 0.950 . S
C1162 C1163 1.386 . S
C1162 C1164 1.391 . S
C1163 C1162 1.386 . S
C1163 C1167 1.393 . S
C1164 H1153 0.950 . S
C1164 C1162 1.391 . S
C1164 C1165 1.400 . S
C1165 C1159 1.491 . S
C1165 C1164 1.400 . S
C1165 C1166 1.398 . S
C1166 H1154 0.950 . S
C1166 C1165 1.398 . S
C1166 C1167 1.391 . S
C1167 H1155 0.950 . S
C1167 C1163 1.393 . S
C1167 C1166 1.391 . S
H1168 C1176 0.950 . S
H1169 C1181 0.950 . S
H1170 C1178 0.950 . S
H1171 C1180 0.950 . S
H1172 C1182 0.950 . S
H1173 C1184 0.950 . S
H1174 C1186 0.950 . S
H1175 C1187 0.950 . S
C1176 H1168 0.950 . S
C1176 C1177 1.386 . S
C1176 C1178 1.391 1_545 S
C1177 C1176 1.386 . S
C1177 C1181 1.393 1_545 S
C1178 H1170 0.950 . S
C1178 C1176 1.391 1_565 S
C1178 C1179 1.400 . S
C1179 C1178 1.400 . S
C1179 C1180 1.398 . S
C1179 C1185 1.491 . S
C1180 H1171 0.950 . S
C1180 C1179 1.398 . S
C1180 C1181 1.391 . S
C1181 H1169 0.950 . S
C1181 C1177 1.393 1_565 S
C1181 C1180 1.391 . S
C1182 H1172 0.950 . S
C1182 C1183 1.386 . S
C1182 C1184 1.391 . S
C1183 C1182 1.386 . S
C1183 C1187 1.393 . S
C1184 H1173 0.950 . S
C1184 C1182 1.391 . S
C1184 C1185 1.400 . S
C1185 C1179 1.491 . S
C1185 C1184 1.400 . S
C1185 C1186 1.398 . S
C1186 H1174 0.950 . S
C1186 C1185 1.398 . S
C1186 C1187 1.391 . S
C1187 H1175 0.950 . S
C1187 C1183 1.393 . S
C1187 C1186 1.391 . S
H1188 C1196 0.950 . S
H1189 C1201 0.950 . S
H1190 C1198 0.950 . S
H1191 C1200 0.950 . S
H1192 C1202 0.950 . S
H1193 C1204 0.950 . S
H1194 C1206 0.950 . S
H1195 C1207 0.950 . S
C1196 H1188 0.950 . S
C1196 C1197 1.386 . S
C1196 C1198 1.391 . S
C1197 C1196 1.386 . S
C1197 C1201 1.393 . S
C1198 H1190 0.950 . S
C1198 C1196 1.391 . S
C1198 C1199 1.400 . S
C1199 C1198 1.400 . S
C1199 C1200 1.398 . S
C1199 C1205 1.491 . S
C1200 H1191 0.950 . S
C1200 C1199 1.398 . S
C1200 C1201 1.391 . S
C1201 H1189 0.950 . S
C1201 C1197 1.393 . S
C1201 C1200 1.391 . S
C1202 H1192 0.950 . S
C1202 C1203 1.386 . S
C1202 C1204 1.391 . S
C1203 C1202 1.386 . S
C1203 C1207 1.393 . S
C1204 H1193 0.950 . S
C1204 C1202 1.391 . S
C1204 C1205 1.400 . S
C1205 C1199 1.491 . S
C1205 C1204 1.400 . S
C1205 C1206 1.398 . S
C1206 H1194 0.950 . S
C1206 C1205 1.398 . S
C1206 C1207 1.391 . S
C1207 H1195 0.950 . S
C1207 C1203 1.393 . S
C1207 C1206 1.391 . S
H1208 C1216 0.950 . S
H1209 C1221 0.950 . S
H1210 C1218 0.950 . S
H1211 C1220 0.950 . S
H1212 C1222 0.950 . S
H1213 C1224 0.950 . S
H1214 C1226 0.950 . S
H1215 C1227 0.950 . S
C1216 H1208 0.950 . S
C1216 C1217 1.386 . S
C1216 C1218 1.391 . S
C1217 C1216 1.386 . S
C1217 C1221 1.393 . S
C1218 H1210 0.950 . S
C1218 C1216 1.391 . S
C1218 C1219 1.400 . S
C1219 C1218 1.400 . S
C1219 C1220 1.398 . S
C1219 C1225 1.491 . S
C1220 H1211 0.950 . S
C1220 C1219 1.398 . S
C1220 C1221 1.391 . S
C1221 H1209 0.950 . S
C1221 C1217 1.393 . S
C1221 C1220 1.391 . S
C1222 H1212 0.950 . S
C1222 C1223 1.386 . S
C1222 C1224 1.391 . S
C1223 C1222 1.386 . S
C1223 C1227 1.393 . S
C1224 H1213 0.950 . S
C1224 C1222 1.391 . S
C1224 C1225 1.400 . S
C1225 C1219 1.491 . S
C1225 C1224 1.400 . S
C1225 C1226 1.398 . S
C1226 H1214 0.950 . S
C1226 C1225 1.398 . S
C1226 C1227 1.391 . S
C1227 H1215 0.950 . S
C1227 C1223 1.393 . S
C1227 C1226 1.391 . S
H1228 C1236 0.950 . S
H1229 C1241 0.950 . S
H1230 C1238 0.950 . S
H1231 C1240 0.950 . S
H1232 C1242 0.950 . S
H1233 C1244 0.950 . S
H1234 C1246 0.950 . S
H1235 C1247 0.950 . S
C1236 H1228 0.950 . S
C1236 C1237 1.386 . S
C1236 C1238 1.391 . S
C1237 C1236 1.386 . S
C1237 C1241 1.393 . S
C1238 H1230 0.950 . S
C1238 C1236 1.391 . S
C1238 C1239 1.400 . S
C1239 C1238 1.400 . S
C1239 C1240 1.398 . S
C1239 C1245 1.491 . S
C1240 H1231 0.950 . S
C1240 C1239 1.398 . S
C1240 C1241 1.391 . S
C1241 H1229 0.950 . S
C1241 C1237 1.393 . S
C1241 C1240 1.391 . S
C1242 H1232 0.950 . S
C1242 C1243 1.386 . S
C1242 C1244 1.391 . S
C1243 C1242 1.386 . S
C1243 C1247 1.393 . S
C1244 H1233 0.950 . S
C1244 C1242 1.391 . S
C1244 C1245 1.400 . S
C1245 C1239 1.491 . S
C1245 C1244 1.400 . S
C1245 C1246 1.398 . S
C1246 H1234 0.950 . S
C1246 C1245 1.398 . S
C1246 C1247 1.391 . S
C1247 H1235 0.950 . S
C1247 C1243 1.393 . S
C1247 C1246 1.391 . S
H1248 C1256 0.950 . S
H1249 C1261 0.950 . S
H1250 C1258 0.950 . S
H1251 C1260 0.950 . S
H1252 C1262 0.950 . S
H1253 C1264 0.950 . S
H1254 C1266 0.950 . S
H1255 C1267 0.950 . S
C1256 H1248 0.950 . S
C1256 C1257 1.386 . S
C1256 C1258 1.391 . S
C1257 C1256 1.386 . S
C1257 C1261 1.393 . S
C1258 H1250 0.950 . S
C1258 C1256 1.391 . S
C1258 C1259 1.400 . S
C1259 C1258 1.400 . S
C1259 C1260 1.398 . S
C1259 C1265 1.491 . S
C1260 H1251 0.950 . S
C1260 C1259 1.398 . S
C1260 C1261 1.391 . S
C1261 H1249 0.950 . S
C1261 C1257 1.393 . S
C1261 C1260 1.391 . S
C1262 H1252 0.950 . S
C1262 C1263 1.386 . S
C1262 C1264 1.391 . S
C1263 C1262 1.386 . S
C1263 C1267 1.393 . S
C1264 H1253 0.950 . S
C1264 C1262 1.391 . S
C1264 C1265 1.400 . S
C1265 C1259 1.491 . S
C1265 C1264 1.400 . S
C1265 C1266 1.398 . S
C1266 H1254 0.950 . S
C1266 C1265 1.398 . S
C1266 C1267 1.391 . S
C1267 H1255 0.950 . S
C1267 C1263 1.393 . S
C1267 C1266 1.391 . S
H1268 C1276 0.950 . S
H1269 C1281 0.950 . S
H1270 C1278 0.950 . S
H1271 C1280 0.950 . S
H1272 C1282 0.950 . S
H1273 C1284 0.950 . S
H1274 C1286 0.950 . S
H1275 C1287 0.950 . S
C1276 H1268 0.950 . S
C1276 C1277 1.386 1_655 S
C1276 C1278 1.391 . S
C1277 C1276 1.386 1_455 S
C1277 C1281 1.393 . S
C1278 H1270 0.950 . S
C1278 C1276 1.391 . S
C1278 C1279 1.400 . S
C1279 C1278 1.400 . S
C1279 C1280 1.398 1_655 S
C1279 C1285 1.491 . S
C1280 H1271 0.950 . S
C1280 C1279 1.398 1_455 S
C1280 C1281 1.391 . S
C1281 H1269 0.950 . S
C1281 C1277 1.393 . S
C1281 C1280 1.391 . S
C1282 H1272 0.950 . S
C1282 C1283 1.386 . S
C1282 C1284 1.391 . S
C1283 C1282 1.386 . S
C1283 C1287 1.393 . S
C1284 H1273 0.950 . S
C1284 C1282 1.391 . S
C1284 C1285 1.400 . S
C1285 C1279 1.491 . S
C1285 C1284 1.400 . S
C1285 C1286 1.398 . S
C1286 H1274 0.950 . S
C1286 C1285 1.398 . S
C1286 C1287 1.391 . S
C1287 H1275 0.950 . S
C1287 C1283 1.393 . S
C1287 C1286 1.391 . S
H1288 C1296 0.950 . S
H1289 C1301 0.950 . S
H1290 C1298 0.921 1_545 S
H1291 C1300 0.950 . S
H1292 C1302 0.970 . S
H1293 C1304 0.950 . S
H1294 C1306 0.950 . S
H1295 C1307 0.950 . S
C1296 H1288 0.950 . S
C1296 C1297 1.386 . S
C1296 C1298 1.391 . S
C1297 C1296 1.386 . S
C1297 C1301 1.393 . S
C1298 H1290 0.921 1_565 S
C1298 C1296 1.391 . S
C1298 C1299 1.400 . S
C1299 C1298 1.400 . S
C1299 C1300 1.398 . S
C1299 C1305 1.491 . S
C1300 H1291 0.950 . S
C1300 C1299 1.398 . S
C1300 C1301 1.391 . S
C1301 H1289 0.950 . S
C1301 C1297 1.393 . S
C1301 C1300 1.391 . S
C1302 H1292 0.970 . S
C1302 C1303 1.386 . S
C1302 C1304 1.391 1_545 S
C1303 C1302 1.386 . S
C1303 C1307 1.393 . S
C1304 H1293 0.950 . S
C1304 C1302 1.391 1_565 S
C1304 C1305 1.400 . S
C1305 C1299 1.491 . S
C1305 C1304 1.400 . S
C1305 C1306 1.398 1_565 S
C1306 H1294 0.950 . S
C1306 C1305 1.398 1_545 S
C1306 C1307 1.391 . S
C1307 H1295 0.950 . S
C1307 C1303 1.393 . S
C1307 C1306 1.391 . S
H1308 C1316 0.950 . S
H1309 C1321 0.950 . S
H1310 C1318 0.950 . S
H1311 C1320 0.950 . S
H1312 C1322 0.950 . S
H1313 C1324 0.950 . S
H1314 C1326 0.950 . S
H1315 C1327 0.950 . S
C1316 H1308 0.950 . S
C1316 C1317 1.386 . S
C1316 C1318 1.391 . S
C1317 C1316 1.386 . S
C1317 C1321 1.393 . S
C1318 H1310 0.950 . S
C1318 C1316 1.391 . S
C1318 C1319 1.400 . S
C1319 C1318 1.400 . S
C1319 C1320 1.398 . S
C1319 C1325 1.491 . S
C1320 H1311 0.950 . S
C1320 C1319 1.398 . S
C1320 C1321 1.391 . S
C1321 H1309 0.950 . S
C1321 C1317 1.393 . S
C1321 C1320 1.391 . S
C1322 H1312 0.950 . S
C1322 C1323 1.386 . S
C1322 C1324 1.391 . S
C1323 C1322 1.386 . S
C1323 C1327 1.393 . S
C1324 H1313 0.950 . S
C1324 C1322 1.391 . S
C1324 C1325 1.400 . S
C1325 C1319 1.491 . S
C1325 C1324 1.400 . S
C1325 C1326 1.398 . S
C1326 H1314 0.950 . S
C1326 C1325 1.398 . S
C1326 C1327 1.391 . S
C1327 H1315 0.950 . S
C1327 C1323 1.393 . S
C1327 C1326 1.391 . S
H1328 C1336 0.950 . S
H1329 C1341 0.950 . S
H1330 C1338 0.950 . S
H1331 C1340 0.950 . S
H1332 C1342 0.950 . S
H1333 C1344 0.950 . S
H1334 C1346 0.950 . S
H1335 C1347 0.950 . S
C1336 H1328 0.950 . S
C1336 C1337 1.386 . S
C1336 C1338 1.391 1_554 S
C1337 C1336 1.386 . S
C1337 C1341 1.393 . S
C1338 H1330 0.950 . S
C1338 C1336 1.391 1_556 S
C1338 C1339 1.400 . S
C1339 C1338 1.400 . S
C1339 C1340 1.398 . S
C1339 C1345 1.491 . S
C1340 H1331 0.950 . S
C1340 C1339 1.398 . S
C1340 C1341 1.391 1_556 S
C1341 H1329 0.950 . S
C1341 C1337 1.393 . S
C1341 C1340 1.391 1_554 S
C1342 H1332 0.950 . S
C1342 C1343 1.386 . S
C1342 C1344 1.391 . S
C1343 C1342 1.386 . S
C1343 C1347 1.393 . S
C1344 H1333 0.950 . S
C1344 C1342 1.391 . S
C1344 C1345 1.400 . S
C1345 C1339 1.491 . S
C1345 C1344 1.400 . S
C1345 C1346 1.398 . S
C1346 H1334 0.950 . S
C1346 C1345 1.398 . S
C1346 C1347 1.391 . S
C1347 H1335 0.950 . S
C1347 C1343 1.393 . S
C1347 C1346 1.391 . S
H1348 C1356 0.950 . S
H1349 C1361 0.950 . S
H1350 C1358 0.950 . S
H1351 C1360 0.950 . S
H1352 C1362 0.950 . S
H1353 C1364 0.950 . S
H1354 C1366 0.950 . S
H1355 C1367 0.950 . S
C1356 H1348 0.950 . S
C1356 C1357 1.386 . S
C1356 C1358 1.391 . S
C1357 C1356 1.386 . S
C1357 C1361 1.393 . S
C1358 H1350 0.950 . S
C1358 C1356 1.391 . S
C1358 C1359 1.400 . S
C1359 C1358 1.400 . S
C1359 C1360 1.398 . S
C1359 C1365 1.491 . S
C1360 H1351 0.950 . S
C1360 C1359 1.398 . S
C1360 C1361 1.391 . S
C1361 H1349 0.950 . S
C1361 C1357 1.393 . S
C1361 C1360 1.391 . S
C1362 H1352 0.950 . S
C1362 C1363 1.386 . S
C1362 C1364 1.391 . S
C1363 C1362 1.386 . S
C1363 C1367 1.393 . S
C1364 H1353 0.950 . S
C1364 C1362 1.391 . S
C1364 C1365 1.400 . S
C1365 C1359 1.491 . S
C1365 C1364 1.400 . S
C1365 C1366 1.398 . S
C1366 H1354 0.950 . S
C1366 C1365 1.398 . S
C1366 C1367 1.391 . S
C1367 H1355 0.950 . S
C1367 C1363 1.393 . S
C1367 C1366 1.391 . S
H1368 C1376 0.950 . S
H1369 C1381 0.950 . S
H1370 C1378 0.950 . S
H1371 C1380 0.950 . S
H1372 C1382 0.950 . S
H1373 C1384 0.950 . S
H1374 C1386 0.950 . S
H1375 C1387 0.950 . S
C1376 H1368 0.950 . S
C1376 C1377 1.386 . S
C1376 C1378 1.391 . S
C1377 C1376 1.386 . S
C1377 C1381 1.393 . S
C1378 H1370 0.950 . S
C1378 C1376 1.391 . S
C1378 C1379 1.400 . S
C1379 C1378 1.400 . S
C1379 C1380 1.398 . S
C1379 C1385 1.491 . S
C1380 H1371 0.950 . S
C1380 C1379 1.398 . S
C1380 C1381 1.391 . S
C1381 H1369 0.950 . S
C1381 C1377 1.393 . S
C1381 C1380 1.391 . S
C1382 H1372 0.950 . S
C1382 C1383 1.386 . S
C1382 C1384 1.391 . S
C1383 C1382 1.386 . S
C1383 C1387 1.393 . S
C1384 H1373 0.950 . S
C1384 C1382 1.391 . S
C1384 C1385 1.400 . S
C1385 C1379 1.491 . S
C1385 C1384 1.400 . S
C1385 C1386 1.398 . S
C1386 H1374 0.950 . S
C1386 C1385 1.398 . S
C1386 C1387 1.391 . S
C1387 H1375 0.950 . S
C1387 C1383 1.393 . S
C1387 C1386 1.391 . S
H1388 C1396 0.950 . S
H1389 C1401 0.950 . S
H1390 C1398 0.950 . S
H1391 C1400 0.950 . S
H1392 C1402 0.950 . S
H1393 C1404 0.950 . S
H1394 C1406 0.950 . S
H1395 C1407 0.950 . S
C1396 H1388 0.950 . S
C1396 C1397 1.386 . S
C1396 C1398 1.391 . S
C1397 C1396 1.386 . S
C1397 C1401 1.393 . S
C1398 H1390 0.950 . S
C1398 C1396 1.391 . S
C1398 C1399 1.400 . S
C1399 C1398 1.400 . S
C1399 C1400 1.398 . S
C1399 C1405 1.491 . S
C1400 H1391 0.950 . S
C1400 C1399 1.398 . S
C1400 C1401 1.391 . S
C1401 H1389 0.950 . S
C1401 C1397 1.393 . S
C1401 C1400 1.391 . S
C1402 H1392 0.950 . S
C1402 C1403 1.386 . S
C1402 C1404 1.391 . S
C1403 C1402 1.386 . S
C1403 C1407 1.393 . S
C1404 H1393 0.950 . S
C1404 C1402 1.391 . S
C1404 C1405 1.400 . S
C1405 C1399 1.491 . S
C1405 C1404 1.400 . S
C1405 C1406 1.398 . S
C1406 H1394 0.950 . S
C1406 C1405 1.398 . S
C1406 C1407 1.391 . S
C1407 H1395 0.950 . S
C1407 C1403 1.393 . S
C1407 C1406 1.391 . S
H1408 C1416 0.950 . S
H1409 C1421 0.950 . S
H1410 C1418 0.950 . S
H1411 C1420 0.950 . S
H1412 C1422 0.950 . S
H1413 C1424 0.950 . S
H1414 C1426 0.950 . S
H1415 C1427 0.950 . S
C1416 H1408 0.950 . S
C1416 C1417 1.386 . S
C1416 C1418 1.391 . S
C1417 C1416 1.386 . S
C1417 C1421 1.393 . S
C1418 H1410 0.950 . S
C1418 C1416 1.391 . S
C1418 C1419 1.400 . S
C1419 C1418 1.400 . S
C1419 C1420 1.398 . S
C1419 C1425 1.491 . S
C1420 H1411 0.950 . S
C1420 C1419 1.398 . S
C1420 C1421 1.391 . S
C1421 H1409 0.950 . S
C1421 C1417 1.393 . S
C1421 C1420 1.391 . S
C1422 H1412 0.950 . S
C1422 C1423 1.386 . S
C1422 C1424 1.391 . S
C1423 C1422 1.386 . S
C1423 C1427 1.393 . S
C1424 H1413 0.950 . S
C1424 C1422 1.391 . S
C1424 C1425 1.400 . S
C1425 C1419 1.491 . S
C1425 C1424 1.400 . S
C1425 C1426 1.398 . S
C1426 H1414 0.950 . S
C1426 C1425 1.398 . S
C1426 C1427 1.391 . S
C1427 H1415 0.950 . S
C1427 C1423 1.393 . S
C1427 C1426 1.391 . S
H1428 C1436 0.950 . S
H1429 C1441 0.950 . S
H1430 C1438 0.950 . S
H1431 C1440 0.950 . S
H1432 C1442 0.950 . S
H1433 C1444 0.950 . S
H1434 C1446 0.950 . S
H1435 C1447 0.950 . S
C1436 H1428 0.950 . S
C1436 C1437 1.386 . S
C1436 C1438 1.391 1_554 S
C1437 C1436 1.386 . S
C1437 C1441 1.393 1_554 S
C1438 H1430 0.950 . S
C1438 C1436 1.391 1_556 S
C1438 C1439 1.400 . S
C1439 C1438 1.400 . S
C1439 C1440 1.398 . S
C1439 C1445 1.491 . S
C1440 H1431 0.950 . S
C1440 C1439 1.398 . S
C1440 C1441 1.391 . S
C1441 H1429 0.950 . S
C1441 C1437 1.393 1_556 S
C1441 C1440 1.391 . S
C1442 H1432 0.950 . S
C1442 C1443 1.386 . S
C1442 C1444 1.391 . S
C1443 C1442 1.386 . S
C1443 C1447 1.393 . S
C1444 H1433 0.950 . S
C1444 C1442 1.391 . S
C1444 C1445 1.400 . S
C1445 C1439 1.491 . S
C1445 C1444 1.400 . S
C1445 C1446 1.398 . S
C1446 H1434 0.950 . S
C1446 C1445 1.398 . S
C1446 C1447 1.391 . S
C1447 H1435 0.950 . S
C1447 C1443 1.393 . S
C1447 C1446 1.391 . S
H1448 C1456 0.950 . S
H1449 C1461 0.950 . S
H1450 C1458 0.950 . S
H1451 C1460 0.950 . S
H1452 C1462 0.950 . S
H1453 C1464 0.950 . S
H1454 C1466 0.950 . S
H1455 C1467 0.950 . S
C1456 H1448 0.950 . S
C1456 C1457 1.386 . S
C1456 C1458 1.391 . S
C1457 C1456 1.386 . S
C1457 C1461 1.393 . S
C1458 H1450 0.950 . S
C1458 C1456 1.391 . S
C1458 C1459 1.400 . S
C1459 C1458 1.400 . S
C1459 C1460 1.398 . S
C1459 C1465 1.491 . S
C1460 H1451 0.950 . S
C1460 C1459 1.398 . S
C1460 C1461 1.391 . S
C1461 H1449 0.950 . S
C1461 C1457 1.393 . S
C1461 C1460 1.391 . S
C1462 H1452 0.950 . S
C1462 C1463 1.386 . S
C1462 C1464 1.391 . S
C1463 C1462 1.386 . S
C1463 C1467 1.393 . S
C1464 H1453 0.950 . S
C1464 C1462 1.391 . S
C1464 C1465 1.400 . S
C1465 C1459 1.491 . S
C1465 C1464 1.400 . S
C1465 C1466 1.398 . S
C1466 H1454 0.950 . S
C1466 C1465 1.398 . S
C1466 C1467 1.391 . S
C1467 H1455 0.950 . S
C1467 C1463 1.393 . S
C1467 C1466 1.391 . S
H1468 C1476 0.950 . S
H1469 C1481 0.950 . S
H1470 C1478 0.950 . S
H1471 C1480 0.950 . S
H1472 C1482 0.950 . S
H1473 C1484 0.934 1_554 S
H1474 C1486 0.950 . S
H1475 C1487 0.950 . S
C1476 H1468 0.950 . S
C1476 C1477 1.386 . S
C1476 C1478 1.391 . S
C1477 C1476 1.386 . S
C1477 C1481 1.393 . S
C1478 H1470 0.950 . S
C1478 C1476 1.391 . S
C1478 C1479 1.400 . S
C1479 C1478 1.400 . S
C1479 C1480 1.398 . S
C1479 C1485 1.491 . S
C1480 H1471 0.950 . S
C1480 C1479 1.398 . S
C1480 C1481 1.391 . S
C1481 H1469 0.950 . S
C1481 C1477 1.393 . S
C1481 C1480 1.391 . S
C1482 H1472 0.950 . S
C1482 C1483 1.375 1_554 S
C1482 C1484 1.391 1_554 S
C1483 C1482 1.375 1_556 S
C1483 C1487 1.422 . S
C1484 H1473 0.934 1_556 S
C1484 C1482 1.391 1_556 S
C1484 C1485 1.400 . S
C1485 C1479 1.491 . S
C1485 C1484 1.400 . S
C1485 C1486 1.398 . S
C1486 H1474 0.950 . S
C1486 C1485 1.398 . S
C1486 C1487 1.391 . S
C1487 H1475 0.950 . S
C1487 C1483 1.422 . S
C1487 C1486 1.391 . S
H1488 C1496 0.950 . S
H1489 C1501 0.950 . S
H1490 C1498 0.950 . S
H1491 C1500 0.950 . S
H1492 C1502 0.950 . S
H1493 C1504 0.950 . S
H1494 C1506 0.950 . S
H1495 C1507 0.950 . S
C1496 H1488 0.950 . S
C1496 C1497 1.386 . S
C1496 C1498 1.391 . S
C1497 C1496 1.386 . S
C1497 C1501 1.393 . S
C1498 H1490 0.950 . S
C1498 C1496 1.391 . S
C1498 C1499 1.400 . S
C1499 C1498 1.400 . S
C1499 C1500 1.398 . S
C1499 C1505 1.491 . S
C1500 H1491 0.950 . S
C1500 C1499 1.398 . S
C1500 C1501 1.391 . S
C1501 H1489 0.950 . S
C1501 C1497 1.393 . S
C1501 C1500 1.391 . S
C1502 H1492 0.950 . S
C1502 C1503 1.386 . S
C1502 C1504 1.391 . S
C1503 C1502 1.386 . S
C1503 C1507 1.393 . S
C1504 H1493 0.950 . S
C1504 C1502 1.391 . S
C1504 C1505 1.400 . S
C1505 C1499 1.491 . S
C1505 C1504 1.400 . S
C1505 C1506 1.398 . S
C1506 H1494 0.950 . S
C1506 C1505 1.398 . S
C1506 C1507 1.391 . S
C1507 H1495 0.950 . S
C1507 C1503 1.393 . S
C1507 C1506 1.391 . S
H1508 C1516 0.950 . S
H1509 C1521 0.950 . S
H1510 C1518 0.950 . S
H1511 C1520 0.950 . S
H1512 C1522 0.950 . S
H1513 C1524 0.950 . S
H1514 C1526 0.950 . S
H1515 C1527 0.950 . S
C1516 H1508 0.950 . S
C1516 C1517 1.386 . S
C1516 C1518 1.391 . S
C1517 C1516 1.386 . S
C1517 C1521 1.393 . S
C1518 H1510 0.950 . S
C1518 C1516 1.391 . S
C1518 C1519 1.400 . S
C1519 C1518 1.400 . S
C1519 C1520 1.398 . S
C1519 C1525 1.491 . S
C1520 H1511 0.950 . S
C1520 C1519 1.398 . S
C1520 C1521 1.391 . S
C1521 H1509 0.950 . S
C1521 C1517 1.393 . S
C1521 C1520 1.391 . S
C1522 H1512 0.950 . S
C1522 C1523 1.386 . S
C1522 C1524 1.391 . S
C1523 C1522 1.386 . S
C1523 C1527 1.393 . S
C1524 H1513 0.950 . S
C1524 C1522 1.391 . S
C1524 C1525 1.400 . S
C1525 C1519 1.491 . S
C1525 C1524 1.400 . S
C1525 C1526 1.398 . S
C1526 H1514 0.950 . S
C1526 C1525 1.398 . S
C1526 C1527 1.391 . S
C1527 H1515 0.950 . S
C1527 C1523 1.393 . S
C1527 C1526 1.391 . S
H1528 C1536 0.950 . S
H1529 C1541 0.950 . S
H1530 C1538 0.950 . S
H1531 C1540 0.950 . S
H1532 C1542 0.950 . S
H1533 C1544 0.950 . S
H1534 C1546 0.950 . S
H1535 C1547 0.950 . S
C1536 H1528 0.950 . S
C1536 C1537 1.386 . S
C1536 C1538 1.391 . S
C1537 C1536 1.386 . S
C1537 C1541 1.393 . S
C1538 H1530 0.950 . S
C1538 C1536 1.391 . S
C1538 C1539 1.400 . S
C1539 C1538 1.400 . S
C1539 C1540 1.398 . S
C1539 C1545 1.491 . S
C1540 H1531 0.950 . S
C1540 C1539 1.398 . S
C1540 C1541 1.391 . S
C1541 H1529 0.950 . S
C1541 C1537 1.393 . S
C1541 C1540 1.391 . S
C1542 H1532 0.950 . S
C1542 C1543 1.386 . S
C1542 C1544 1.391 . S
C1543 C1542 1.386 . S
C1543 C1547 1.393 . S
C1544 H1533 0.950 . S
C1544 C1542 1.391 . S
C1544 C1545 1.400 . S
C1545 C1539 1.491 . S
C1545 C1544 1.400 . S
C1545 C1546 1.398 . S
C1546 H1534 0.950 . S
C1546 C1545 1.398 . S
C1546 C1547 1.391 . S
C1547 H1535 0.950 . S
C1547 C1543 1.393 . S
C1547 C1546 1.391 . S
H1548 C1556 0.950 . S
H1549 C1561 0.950 . S
H1550 C1558 0.950 . S
H1551 C1560 0.950 . S
H1552 C1562 0.950 . S
H1553 C1564 0.950 . S
H1554 C1566 0.950 . S
H1555 C1567 0.950 . S
C1556 H1548 0.950 . S
C1556 C1557 1.386 . S
C1556 C1558 1.391 . S
C1557 C1556 1.386 . S
C1557 C1561 1.393 . S
C1558 H1550 0.950 . S
C1558 C1556 1.391 . S
C1558 C1559 1.400 . S
C1559 C1558 1.400 . S
C1559 C1560 1.398 . S
C1559 C1565 1.491 . S
C1560 H1551 0.950 . S
C1560 C1559 1.398 . S
C1560 C1561 1.391 . S
C1561 H1549 0.950 . S
C1561 C1557 1.393 . S
C1561 C1560 1.391 . S
C1562 H1552 0.950 . S
C1562 C1563 1.386 . S
C1562 C1564 1.391 . S
C1563 C1562 1.386 . S
C1563 C1567 1.393 . S
C1564 H1553 0.950 . S
C1564 C1562 1.391 . S
C1564 C1565 1.400 . S
C1565 C1559 1.491 . S
C1565 C1564 1.400 . S
C1565 C1566 1.398 . S
C1566 H1554 0.950 . S
C1566 C1565 1.398 . S
C1566 C1567 1.391 . S
C1567 H1555 0.950 . S
C1567 C1563 1.393 . S
C1567 C1566 1.391 . S
H1568 C1576 0.950 . S
H1569 C1581 0.950 . S
H1570 C1578 0.950 . S
H1571 C1580 0.950 . S
H1572 C1582 0.950 . S
H1573 C1584 0.950 . S
H1574 C1586 0.950 . S
H1575 C1587 0.950 . S
C1576 H1568 0.950 . S
C1576 C1577 1.386 . S
C1576 C1578 1.391 . S
C1577 C1576 1.386 . S
C1577 C1581 1.393 . S
C1578 H1570 0.950 . S
C1578 C1576 1.391 . S
C1578 C1579 1.400 . S
C1579 C1578 1.400 . S
C1579 C1580 1.398 . S
C1579 C1585 1.491 . S
C1580 H1571 0.950 . S
C1580 C1579 1.398 . S
C1580 C1581 1.391 . S
C1581 H1569 0.950 . S
C1581 C1577 1.393 . S
C1581 C1580 1.391 . S
C1582 H1572 0.950 . S
C1582 C1583 1.386 . S
C1582 C1584 1.391 . S
C1583 C1582 1.386 . S
C1583 C1587 1.393 . S
C1584 H1573 0.950 . S
C1584 C1582 1.391 . S
C1584 C1585 1.400 . S
C1585 C1579 1.491 . S
C1585 C1584 1.400 . S
C1585 C1586 1.398 . S
C1586 H1574 0.950 . S
C1586 C1585 1.398 . S
C1586 C1587 1.391 . S
C1587 H1575 0.950 . S
C1587 C1583 1.393 . S
C1587 C1586 1.391 . S
H1588 C1596 0.950 1_565 S
H1589 C1601 0.950 . S
H1590 C1598 0.950 1_565 S
H1591 C1600 0.950 . S
H1592 C1602 0.950 . S
H1593 C1604 0.950 . S
H1594 C1606 0.969 . S
H1595 C1607 0.950 . S
C1596 H1588 0.950 1_545 S
C1596 C1597 1.386 . S
C1596 C1598 1.391 . S
C1597 C1596 1.386 . S
C1597 C1601 1.393 . S
C1598 H1590 0.950 1_545 S
C1598 C1596 1.391 . S
C1598 C1599 1.400 . S
C1599 C1598 1.400 . S
C1599 C1600 1.398 . S
C1599 C1605 1.491 . S
C1600 H1591 0.950 . S
C1600 C1599 1.398 . S
C1600 C1601 1.391 . S
C1601 H1589 0.950 . S
C1601 C1597 1.393 . S
C1601 C1600 1.391 . S
C1602 H1592 0.950 . S
C1602 C1603 1.386 . S
C1602 C1604 1.391 . S
C1603 C1602 1.386 . S
C1603 C1607 1.393 . S
C1604 H1593 0.950 . S
C1604 C1602 1.391 . S
C1604 C1605 1.400 . S
C1605 C1599 1.491 . S
C1605 C1604 1.400 . S
C1605 C1606 1.398 . S
C1606 H1594 0.969 . S
C1606 C1605 1.398 . S
C1606 C1607 1.391 . S
C1607 H1595 0.950 . S
C1607 C1603 1.393 . S
C1607 C1606 1.391 . S
H1608 C1616 0.950 . S
H1609 C1621 0.993 . S
H1610 C1618 0.950 . S
H1611 C1620 1.002 . S
H1612 C1622 0.950 1_655 S
H1613 C1624 0.929 1_655 S
H1614 C1626 0.950 . S
H1615 C1627 0.950 . S
C1616 H1608 0.950 . S
C1616 C1617 1.386 . S
C1616 C1618 1.391 . S
C1617 C1616 1.386 . S
C1617 C1621 1.393 . S
C1618 H1610 0.950 . S
C1618 C1616 1.391 . S
C1618 C1619 1.400 . S
C1619 C1618 1.400 . S
C1619 C1620 1.398 . S
C1619 C1625 1.491 . S
C1620 H1611 1.002 . S
C1620 C1619 1.398 . S
C1620 C1621 1.391 . S
C1621 H1609 0.993 . S
C1621 C1617 1.393 . S
C1621 C1620 1.391 . S
C1622 H1612 0.950 1_455 S
C1622 C1623 1.386 . S
C1622 C1624 1.391 . S
C1623 C1622 1.386 . S
C1623 C1627 1.393 . S
C1624 H1613 0.929 1_455 S
C1624 C1622 1.391 . S
C1624 C1625 1.400 . S
C1625 C1619 1.491 . S
C1625 C1624 1.400 . S
C1625 C1626 1.398 . S
C1626 H1614 0.950 . S
C1626 C1625 1.398 . S
C1626 C1627 1.391 . S
C1627 H1615 0.950 . S
C1627 C1623 1.393 . S
C1627 C1626 1.391 . S
H1628 C1636 0.950 . S
H1629 C1641 0.950 . S
H1630 C1638 0.950 . S
H1631 C1640 0.950 . S
H1632 C1642 0.950 . S
H1633 C1644 0.950 . S
H1634 C1646 0.950 . S
H1635 C1647 0.950 . S
C1636 H1628 0.950 . S
C1636 C1637 1.386 . S
C1636 C1638 1.391 . S
C1637 C1636 1.386 . S
C1637 C1641 1.393 . S
C1638 H1630 0.950 . S
C1638 C1636 1.391 . S
C1638 C1639 1.400 . S
C1639 C1638 1.400 . S
C1639 C1640 1.398 . S
C1639 C1645 1.491 . S
C1640 H1631 0.950 . S
C1640 C1639 1.398 . S
C1640 C1641 1.391 . S
C1641 H1629 0.950 . S
C1641 C1637 1.393 . S
C1641 C1640 1.391 . S
C1642 H1632 0.950 . S
C1642 C1643 1.386 . S
C1642 C1644 1.391 . S
C1643 C1642 1.386 . S
C1643 C1647 1.393 . S
C1644 H1633 0.950 . S
C1644 C1642 1.391 . S
C1644 C1645 1.400 . S
C1645 C1639 1.491 . S
C1645 C1644 1.400 . S
C1645 C1646 1.398 . S
C1646 H1634 0.950 . S
C1646 C1645 1.398 . S
C1646 C1647 1.391 . S
C1647 H1635 0.950 . S
C1647 C1643 1.393 . S
C1647 C1646 1.391 . S
H1648 C1656 0.950 . S
H1649 C1661 0.950 . S
H1650 C1658 0.950 . S
H1651 C1660 0.950 . S
H1652 C1662 0.950 . S
H1653 C1664 0.950 . S
H1654 C1666 0.950 . S
H1655 C1667 0.950 . S
C1656 H1648 0.950 . S
C1656 C1657 1.386 . S
C1656 C1658 1.391 . S
C1657 C1656 1.386 . S
C1657 C1661 1.393 . S
C1658 H1650 0.950 . S
C1658 C1656 1.391 . S
C1658 C1659 1.400 . S
C1659 C1658 1.400 . S
C1659 C1660 1.398 . S
C1659 C1665 1.491 . S
C1660 H1651 0.950 . S
C1660 C1659 1.398 . S
C1660 C1661 1.391 . S
C1661 H1649 0.950 . S
C1661 C1657 1.393 . S
C1661 C1660 1.391 . S
C1662 H1652 0.950 . S
C1662 C1663 1.386 . S
C1662 C1664 1.391 . S
C1663 C1662 1.386 . S
C1663 C1667 1.393 . S
C1664 H1653 0.950 . S
C1664 C1662 1.391 . S
C1664 C1665 1.400 . S
C1665 C1659 1.491 . S
C1665 C1664 1.400 . S
C1665 C1666 1.398 . S
C1666 H1654 0.950 . S
C1666 C1665 1.398 . S
C1666 C1667 1.391 . S
C1667 H1655 0.950 . S
C1667 C1663 1.393 . S
C1667 C1666 1.391 . S
H1668 C1676 0.950 . S
H1669 C1681 0.950 . S
H1670 C1678 0.950 . S
H1671 C1680 0.950 . S
H1672 C1682 0.950 . S
H1673 C1684 0.950 . S
H1674 C1686 0.950 . S
H1675 C1687 0.950 . S
C1676 H1668 0.950 . S
C1676 C1677 1.386 . S
C1676 C1678 1.391 . S
C1677 C1676 1.386 . S
C1677 C1681 1.393 . S
C1678 H1670 0.950 . S
C1678 C1676 1.391 . S
C1678 C1679 1.400 . S
C1679 C1678 1.400 . S
C1679 C1680 1.398 . S
C1679 C1685 1.491 . S
C1680 H1671 0.950 . S
C1680 C1679 1.398 . S
C1680 C1681 1.391 . S
C1681 H1669 0.950 . S
C1681 C1677 1.393 . S
C1681 C1680 1.391 . S
C1682 H1672 0.950 . S
C1682 C1683 1.386 . S
C1682 C1684 1.391 . S
C1683 C1682 1.386 . S
C1683 C1687 1.393 . S
C1684 H1673 0.950 . S
C1684 C1682 1.391 . S
C1684 C1685 1.400 . S
C1685 C1679 1.491 . S
C1685 C1684 1.400 . S
C1685 C1686 1.398 . S
C1686 H1674 0.950 . S
C1686 C1685 1.398 . S
C1686 C1687 1.391 . S
C1687 H1675 0.950 . S
C1687 C1683 1.393 . S
C1687 C1686 1.391 . S
H1688 C1696 0.950 . S
H1689 C1701 0.950 . S
H1690 C1698 0.950 . S
H1691 C1700 0.950 . S
H1692 C1702 0.950 . S
H1693 C1704 0.950 . S
H1694 C1706 0.950 . S
H1695 C1707 0.950 . S
C1696 H1688 0.950 . S
C1696 C1697 1.386 . S
C1696 C1698 1.391 . S
C1697 C1696 1.386 . S
C1697 C1701 1.393 . S
C1698 H1690 0.950 . S
C1698 C1696 1.391 . S
C1698 C1699 1.400 . S
C1699 C1698 1.400 . S
C1699 C1700 1.398 . S
C1699 C1705 1.491 . S
C1700 H1691 0.950 . S
C1700 C1699 1.398 . S
C1700 C1701 1.391 . S
C1701 H1689 0.950 . S
C1701 C1697 1.393 . S
C1701 C1700 1.391 . S
C1702 H1692 0.950 . S
C1702 C1703 1.386 . S
C1702 C1704 1.391 . S
C1703 C1702 1.386 . S
C1703 C1707 1.393 . S
C1704 H1693 0.950 . S
C1704 C1702 1.391 . S
C1704 C1705 1.400 . S
C1705 C1699 1.491 . S
C1705 C1704 1.400 . S
C1705 C1706 1.398 . S
C1706 H1694 0.950 . S
C1706 C1705 1.398 . S
C1706 C1707 1.391 . S
C1707 H1695 0.950 . S
C1707 C1703 1.393 . S
C1707 C1706 1.391 . S
H1708 C1716 0.950 . S
H1709 C1721 0.950 . S
H1710 C1718 0.950 . S
H1711 C1720 0.950 . S
H1712 C1722 0.950 . S
H1713 C1724 0.950 . S
H1714 C1726 0.950 . S
H1715 C1727 0.950 . S
C1716 H1708 0.950 . S
C1716 C1717 1.386 . S
C1716 C1718 1.391 . S
C1717 C1716 1.386 . S
C1717 C1721 1.393 . S
C1718 H1710 0.950 . S
C1718 C1716 1.391 . S
C1718 C1719 1.400 . S
C1719 C1718 1.400 . S
C1719 C1720 1.398 . S
C1719 C1725 1.491 . S
C1720 H1711 0.950 . S
C1720 C1719 1.398 . S
C1720 C1721 1.391 . S
C1721 H1709 0.950 . S
C1721 C1717 1.393 . S
C1721 C1720 1.391 . S
C1722 H1712 0.950 . S
C1722 C1723 1.386 . S
C1722 C1724 1.391 . S
C1723 C1722 1.386 . S
C1723 C1727 1.393 . S
C1724 H1713 0.950 . S
C1724 C1722 1.391 . S
C1724 C1725 1.400 . S
C1725 C1719 1.491 . S
C1725 C1724 1.400 . S
C1725 C1726 1.398 . S
C1726 H1714 0.950 . S
C1726 C1725 1.398 . S
C1726 C1727 1.391 . S
C1727 H1715 0.950 . S
C1727 C1723 1.393 . S
C1727 C1726 1.391 . S
H1728 C1736 0.950 . S
H1729 C1741 0.950 . S
H1730 C1738 0.950 . S
H1731 C1740 0.950 . S
H1732 C1742 0.950 . S
H1733 C1744 0.950 . S
H1734 C1746 0.950 . S
H1735 C1747 0.950 . S
C1736 H1728 0.950 . S
C1736 C1737 1.386 . S
C1736 C1738 1.391 . S
C1737 C1736 1.386 . S
C1737 C1741 1.393 . S
C1738 H1730 0.950 . S
C1738 C1736 1.391 . S
C1738 C1739 1.400 . S
C1739 C1738 1.400 . S
C1739 C1740 1.398 . S
C1739 C1745 1.491 . S
C1740 H1731 0.950 . S
C1740 C1739 1.398 . S
C1740 C1741 1.391 . S
C1741 H1729 0.950 . S
C1741 C1737 1.393 . S
C1741 C1740 1.391 . S
C1742 H1732 0.950 . S
C1742 C1743 1.386 . S
C1742 C1744 1.391 . S
C1743 C1742 1.386 . S
C1743 C1747 1.393 . S
C1744 H1733 0.950 . S
C1744 C1742 1.391 . S
C1744 C1745 1.400 . S
C1745 C1739 1.491 . S
C1745 C1744 1.400 . S
C1745 C1746 1.398 . S
C1746 H1734 0.950 . S
C1746 C1745 1.398 . S
C1746 C1747 1.391 . S
C1747 H1735 0.950 . S
C1747 C1743 1.393 . S
C1747 C1746 1.391 . S
H1748 C1756 0.950 . S
H1749 C1761 0.950 . S
H1750 C1758 0.950 . S
H1751 C1760 0.950 . S
H1752 C1762 0.950 . S
H1753 C1764 0.950 . S
H1754 C1766 0.950 . S
H1755 C1767 0.950 . S
C1756 H1748 0.950 . S
C1756 C1757 1.386 . S
C1756 C1758 1.391 . S
C1757 C1756 1.386 . S
C1757 C1761 1.393 . S
C1758 H1750 0.950 . S
C1758 C1756 1.391 . S
C1758 C1759 1.400 . S
C1759 C1758 1.400 . S
C1759 C1760 1.398 . S
C1759 C1765 1.491 . S
C1760 H1751 0.950 . S
C1760 C1759 1.398 . S
C1760 C1761 1.391 . S
C1761 H1749 0.950 . S
C1761 C1757 1.393 . S
C1761 C1760 1.391 . S
C1762 H1752 0.950 . S
C1762 C1763 1.386 . S
C1762 C1764 1.391 . S
C1763 C1762 1.386 . S
C1763 C1767 1.393 . S
C1764 H1753 0.950 . S
C1764 C1762 1.391 . S
C1764 C1765 1.400 . S
C1765 C1759 1.491 . S
C1765 C1764 1.400 . S
C1765 C1766 1.398 . S
C1766 H1754 0.950 . S
C1766 C1765 1.398 . S
C1766 C1767 1.391 . S
C1767 H1755 0.950 . S
C1767 C1763 1.393 . S
C1767 C1766 1.391 . S
H1768 C1776 0.950 . S
H1769 C1781 0.950 . S
H1770 C1778 0.950 . S
H1771 C1780 0.950 . S
H1772 C1782 0.950 . S
H1773 C1784 0.950 . S
H1774 C1786 0.950 . S
H1775 C1787 0.950 . S
C1776 H1768 0.950 . S
C1776 C1777 1.386 . S
C1776 C1778 1.391 . S
C1777 C1776 1.386 . S
C1777 C1781 1.393 . S
C1778 H1770 0.950 . S
C1778 C1776 1.391 . S
C1778 C1779 1.400 . S
C1779 C1778 1.400 . S
C1779 C1780 1.398 . S
C1779 C1785 1.491 . S
C1780 H1771 0.950 . S
C1780 C1779 1.398 . S
C1780 C1781 1.391 . S
C1781 H1769 0.950 . S
C1781 C1777 1.393 . S
C1781 C1780 1.391 . S
C1782 H1772 0.950 . S
C1782 C1783 1.386 . S
C1782 C1784 1.391 . S
C1783 C1782 1.386 . S
C1783 C1787 1.393 . S
C1784 H1773 0.950 . S
C1784 C1782 1.391 . S
C1784 C1785 1.400 . S
C1785 C1779 1.491 . S
C1785 C1784 1.400 . S
C1785 C1786 1.398 . S
C1786 H1774 0.950 . S
C1786 C1785 1.398 . S
C1786 C1787 1.391 . S
C1787 H1775 0.950 . S
C1787 C1783 1.393 . S
C1787 C1786 1.391 . S
H1788 C1796 0.950 . S
H1789 C1801 0.950 . S
H1790 C1798 0.950 . S
H1791 C1800 0.950 . S
H1792 C1802 0.950 . S
H1793 C1804 0.950 . S
H1794 C1806 0.950 . S
H1795 C1807 0.950 . S
C1796 H1788 0.950 . S
C1796 C1797 1.386 . S
C1796 C1798 1.391 . S
C1797 C1796 1.386 . S
C1797 C1801 1.393 . S
C1798 H1790 0.950 . S
C1798 C1796 1.391 . S
C1798 C1799 1.400 . S
C1799 C1798 1.400 . S
C1799 C1800 1.398 . S
C1799 C1805 1.491 . S
C1800 H1791 0.950 . S
C1800 C1799 1.398 . S
C1800 C1801 1.391 . S
C1801 H1789 0.950 . S
C1801 C1797 1.393 . S
C1801 C1800 1.391 . S
C1802 H1792 0.950 . S
C1802 C1803 1.386 . S
C1802 C1804 1.391 . S
C1803 C1802 1.386 . S
C1803 C1807 1.393 . S
C1804 H1793 0.950 . S
C1804 C1802 1.391 . S
C1804 C1805 1.400 . S
C1805 C1799 1.491 . S
C1805 C1804 1.400 . S
C1805 C1806 1.398 . S
C1806 H1794 0.950 . S
C1806 C1805 1.398 . S
C1806 C1807 1.391 . S
C1807 H1795 0.950 . S
C1807 C1803 1.393 . S
C1807 C1806 1.391 . S
H1808 C1816 0.950 . S
H1809 C1821 0.950 . S
H1810 C1818 0.950 . S
H1811 C1820 0.950 . S
H1812 C1822 0.950 . S
H1813 C1824 0.950 . S
H1814 C1826 0.950 . S
H1815 C1827 0.950 . S
C1816 H1808 0.950 . S
C1816 C1817 1.386 . S
C1816 C1818 1.391 . S
C1817 C1816 1.386 . S
C1817 C1821 1.393 . S
C1818 H1810 0.950 . S
C1818 C1816 1.391 . S
C1818 C1819 1.400 . S
C1819 C1818 1.400 . S
C1819 C1820 1.398 . S
C1819 C1825 1.491 . S
C1820 H1811 0.950 . S
C1820 C1819 1.398 . S
C1820 C1821 1.391 . S
C1821 H1809 0.950 . S
C1821 C1817 1.393 . S
C1821 C1820 1.391 . S
C1822 H1812 0.950 . S
C1822 C1823 1.386 . S
C1822 C1824 1.391 . S
C1823 C1822 1.386 . S
C1823 C1827 1.393 . S
C1824 H1813 0.950 . S
C1824 C1822 1.391 . S
C1824 C1825 1.400 . S
C1825 C1819 1.491 . S
C1825 C1824 1.400 . S
C1825 C1826 1.398 . S
C1826 H1814 0.950 . S
C1826 C1825 1.398 . S
C1826 C1827 1.391 . S
C1827 H1815 0.950 . S
C1827 C1823 1.393 . S
C1827 C1826 1.391 . S
H1828 C1836 0.950 . S
H1829 C1841 0.950 . S
H1830 C1838 0.950 . S
H1831 C1840 0.950 . S
H1832 C1842 0.950 . S
H1833 C1844 0.950 . S
H1834 C1846 0.950 . S
H1835 C1847 0.950 . S
C1836 H1828 0.950 . S
C1836 C1837 1.386 . S
C1836 C1838 1.391 . S
C1837 C1836 1.386 . S
C1837 C1841 1.393 . S
C1838 H1830 0.950 . S
C1838 C1836 1.391 . S
C1838 C1839 1.400 . S
C1839 C1838 1.400 . S
C1839 C1840 1.398 . S
C1839 C1845 1.491 . S
C1840 H1831 0.950 . S
C1840 C1839 1.398 . S
C1840 C1841 1.391 . S
C1841 H1829 0.950 . S
C1841 C1837 1.393 . S
C1841 C1840 1.391 . S
C1842 H1832 0.950 . S
C1842 C1843 1.386 . S
C1842 C1844 1.391 . S
C1843 C1842 1.386 . S
C1843 C1847 1.393 . S
C1844 H1833 0.950 . S
C1844 C1842 1.391 . S
C1844 C1845 1.400 . S
C1845 C1839 1.491 . S
C1845 C1844 1.400 . S
C1845 C1846 1.398 . S
C1846 H1834 0.950 . S
C1846 C1845 1.398 . S
C1846 C1847 1.391 . S
C1847 H1835 0.950 . S
C1847 C1843 1.393 . S
C1847 C1846 1.391 . S
H1848 C1856 0.950 . S
H1849 C1861 0.950 . S
H1850 C1858 0.950 . S
H1851 C1860 0.950 . S
H1852 C1862 0.950 . S
H1853 C1864 0.950 . S
H1854 C1866 0.950 . S
H1855 C1867 0.950 . S
C1856 H1848 0.950 . S
C1856 C1857 1.386 . S
C1856 C1858 1.391 . S
C1857 C1856 1.386 . S
C1857 C1861 1.393 . S
C1858 H1850 0.950 . S
C1858 C1856 1.391 . S
C1858 C1859 1.400 . S
C1859 C1858 1.400 . S
C1859 C1860 1.398 . S
C1859 C1865 1.491 . S
C1860 H1851 0.950 . S
C1860 C1859 1.398 . S
C1860 C1861 1.391 . S
C1861 H1849 0.950 . S
C1861 C1857 1.393 . S
C1861 C1860 1.391 . S
C1862 H1852 0.950 . S
C1862 C1863 1.386 . S
C1862 C1864 1.391 . S
C1863 C1862 1.386 . S
C1863 C1867 1.393 . S
C1864 H1853 0.950 . S
C1864 C1862 1.391 . S
C1864 C1865 1.400 . S
C1865 C1859 1.491 . S
C1865 C1864 1.400 . S
C1865 C1866 1.398 . S
C1866 H1854 0.950 . S
C1866 C1865 1.398 . S
C1866 C1867 1.391 . S
C1867 H1855 0.950 . S
C1867 C1863 1.393 . S
C1867 C1866 1.391 . S
H1868 C1876 0.950 . S
H1869 C1881 0.950 . S
H1870 C1878 0.950 . S
H1871 C1880 0.950 . S
H1872 C1882 0.950 . S
H1873 C1884 0.950 . S
H1874 C1886 0.950 . S
H1875 C1887 0.950 . S
C1876 H1868 0.950 . S
C1876 C1877 1.386 . S
C1876 C1878 1.391 . S
C1877 C1876 1.386 . S
C1877 C1881 1.393 . S
C1878 H1870 0.950 . S
C1878 C1876 1.391 . S
C1878 C1879 1.400 . S
C1879 C1878 1.400 . S
C1879 C1880 1.398 . S
C1879 C1885 1.491 . S
C1880 H1871 0.950 . S
C1880 C1879 1.398 . S
C1880 C1881 1.391 . S
C1881 H1869 0.950 . S
C1881 C1877 1.393 . S
C1881 C1880 1.391 . S
C1882 H1872 0.950 . S
C1882 C1883 1.386 . S
C1882 C1884 1.391 . S
C1883 C1882 1.386 . S
C1883 C1887 1.393 . S
C1884 H1873 0.950 . S
C1884 C1882 1.391 . S
C1884 C1885 1.400 . S
C1885 C1879 1.491 . S
C1885 C1884 1.400 . S
C1885 C1886 1.398 . S
C1886 H1874 0.950 . S
C1886 C1885 1.398 . S
C1886 C1887 1.391 . S
C1887 H1875 0.950 . S
C1887 C1883 1.393 . S
C1887 C1886 1.391 . S
H1888 C1896 0.950 . S
H1889 C1901 0.950 . S
H1890 C1898 0.950 . S
H1891 C1900 0.950 . S
H1892 C1902 0.950 . S
H1893 C1904 0.950 . S
H1894 C1906 0.950 . S
H1895 C1907 0.950 . S
C1896 H1888 0.950 . S
C1896 C1897 1.386 . S
C1896 C1898 1.391 . S
C1897 C1896 1.386 . S
C1897 C1901 1.393 . S
C1898 H1890 0.950 . S
C1898 C1896 1.391 . S
C1898 C1899 1.400 . S
C1899 C1898 1.400 . S
C1899 C1900 1.398 . S
C1899 C1905 1.491 . S
C1900 H1891 0.950 . S
C1900 C1899 1.398 . S
C1900 C1901 1.391 . S
C1901 H1889 0.950 . S
C1901 C1897 1.393 . S
C1901 C1900 1.391 . S
C1902 H1892 0.950 . S
C1902 C1903 1.386 . S
C1902 C1904 1.391 . S
C1903 C1902 1.386 . S
C1903 C1907 1.393 . S
C1904 H1893 0.950 . S
C1904 C1902 1.391 . S
C1904 C1905 1.400 . S
C1905 C1899 1.491 . S
C1905 C1904 1.400 . S
C1905 C1906 1.398 . S
C1906 H1894 0.950 . S
C1906 C1905 1.398 . S
C1906 C1907 1.391 . S
C1907 H1895 0.950 . S
C1907 C1903 1.393 . S
C1907 C1906 1.391 . S
H1908 C1916 0.950 . S
H1909 C1921 0.950 . S
H1910 C1918 0.950 . S
H1911 C1920 0.950 . S
H1912 C1922 0.950 . S
H1913 C1924 0.950 . S
H1914 C1926 0.950 . S
H1915 C1927 0.950 . S
C1916 H1908 0.950 . S
C1916 C1917 1.386 . S
C1916 C1918 1.391 . S
C1917 C1916 1.386 . S
C1917 C1921 1.393 . S
C1918 H1910 0.950 . S
C1918 C1916 1.391 . S
C1918 C1919 1.400 . S
C1919 C1918 1.400 . S
C1919 C1920 1.398 . S
C1919 C1925 1.491 . S
C1920 H1911 0.950 . S
C1920 C1919 1.398 . S
C1920 C1921 1.391 . S
C1921 H1909 0.950 . S
C1921 C1917 1.393 . S
C1921 C1920 1.391 . S
C1922 H1912 0.950 . S
C1922 C1923 1.386 . S
C1922 C1924 1.391 . S
C1923 C1922 1.386 . S
C1923 C1927 1.393 . S
C1924 H1913 0.950 . S
C1924 C1922 1.391 . S
C1924 C1925 1.400 . S
C1925 C1919 1.491 . S
C1925 C1924 1.400 . S
C1925 C1926 1.398 . S
C1926 H1914 0.950 . S
C1926 C1925 1.398 . S
C1926 C1927 1.391 . S
C1927 H1915 0.950 . S
C1927 C1923 1.393 . S
C1927 C1926 1.391 . S
H1928 C1936 0.950 . S
H1929 C1941 0.950 . S
H1930 C1938 0.950 . S
H1931 C1940 0.950 . S
H1932 C1942 0.950 . S
H1933 C1944 0.950 . S
H1934 C1946 0.950 . S
H1935 C1947 0.950 . S
C1936 H1928 0.950 . S
C1936 C1937 1.386 . S
C1936 C1938 1.391 . S
C1937 C1936 1.386 . S
C1937 C1941 1.393 . S
C1938 H1930 0.950 . S
C1938 C1936 1.391 . S
C1938 C1939 1.400 . S
C1939 C1938 1.400 . S
C1939 C1940 1.398 . S
C1939 C1945 1.491 . S
C1940 H1931 0.950 . S
C1940 C1939 1.398 . S
C1940 C1941 1.391 . S
C1941 H1929 0.950 . S
C1941 C1937 1.393 . S
C1941 C1940 1.391 . S
C1942 H1932 0.950 . S
C1942 C1943 1.386 . S
C1942 C1944 1.391 . S
C1943 C1942 1.386 . S
C1943 C1947 1.393 . S
C1944 H1933 0.950 . S
C1944 C1942 1.391 . S
C1944 C1945 1.400 . S
C1945 C1939 1.491 . S
C1945 C1944 1.400 . S
C1945 C1946 1.398 . S
C1946 H1934 0.950 . S
C1946 C1945 1.398 . S
C1946 C1947 1.391 . S
C1947 H1935 0.950 . S
C1947 C1943 1.393 . S
C1947 C1946 1.391 . S
H1948 C1956 0.950 . S
H1949 C1961 0.950 . S
H1950 C1958 0.950 . S
H1951 C1960 0.950 . S
H1952 C1962 0.950 . S
H1953 C1964 0.950 . S
H1954 C1966 0.950 . S
H1955 C1967 0.950 . S
C1956 H1948 0.950 . S
C1956 C1957 1.386 . S
C1956 C1958 1.391 . S
C1957 C1956 1.386 . S
C1957 C1961 1.393 . S
C1958 H1950 0.950 . S
C1958 C1956 1.391 . S
C1958 C1959 1.400 . S
C1959 C1958 1.400 . S
C1959 C1960 1.398 . S
C1959 C1965 1.491 . S
C1960 H1951 0.950 . S
C1960 C1959 1.398 . S
C1960 C1961 1.391 . S
C1961 H1949 0.950 . S
C1961 C1957 1.393 . S
C1961 C1960 1.391 . S
C1962 H1952 0.950 . S
C1962 C1963 1.386 . S
C1962 C1964 1.391 . S
C1963 C1962 1.386 . S
C1963 C1967 1.393 . S
C1964 H1953 0.950 . S
C1964 C1962 1.391 . S
C1964 C1965 1.400 . S
C1965 C1959 1.491 . S
C1965 C1964 1.400 . S
C1965 C1966 1.398 . S
C1966 H1954 0.950 . S
C1966 C1965 1.398 . S
C1966 C1967 1.391 . S
C1967 H1955 0.950 . S
C1967 C1963 1.393 . S
C1967 C1966 1.391 . S
C537 C491 1.664 . S
C543 C7 1.690 . S
C557 C456 1.399 . S
C563 C18 1.778 . S
C577 C27 1.082 . S
C583 C467 1.055 . S
C597 C40 1.735 . S
C603 C478 1.413 . S
C617 C524 1.860 . S
C623 C51 1.865 . S
C637 C500 1.297 . S
C643 C60 1.308 . S
C657 C71 1.161 . S
C663 C513 1.485 . S
C677 C445 1.305 . S
C683 C82 1.256 . S
C697 C434 1.199 . S
C703 C95 1.596 . S
C717 C104 1.074 . S
C723 C401 1.178 . S
C737 C414 1.750 . S
C743 C117 1.735 . S
C757 C128 1.763 . S
C763 C423 1.357 . S
C777 C368 1.112 . S
C783 C137 1.155 . S
C797 C150 1.758 . S
C803 C381 1.736 . S
C817 C159 1.354 . S
C823 C392 1.761 . S
C837 C170 1.222 . S
C843 C359 1.594 . S
C857 C181 1.307 . S
C863 C346 1.298 . S
C877 C192 1.370 1_556 S
C883 C282 1.778 . S
C897 C203 1.044 . S
C903 C291 1.083 . S
C917 C304 1.740 . S
C923 C214 1.404 1_556 S
C937 C271 1.686 . S
C943 C227 1.675 . S
C957 C324 1.308 . S
C963 C236 1.297 . S
C977 C249 1.485 . S
C983 C335 1.119 . S
C997 C260 1.858 . S
C1003 C315 1.867 . S
C1017 C49 1.640 1_655 S
C1023 C469 1.612 . S
C1037 C480 1.591 . S
C1043 C62 1.547 . S
C1057 C73 1.786 . S
C1063 C489 1.835 . S
C1077 C84 1.636 . S
C1083 C458 1.628 . S
C1097 C511 1.440 . S
C1103 C5 1.466 . S
C1117 C16 1.418 . S
C1123 C447 1.477 . S
C1137 C29 1.680 . S
C1143 C522 1.688 . S
C1157 C38 1.530 . S
C1163 C502 1.562 . S
C1177 C161 1.657 . S
C1183 C370 1.691 . S
C1197 C172 1.783 . S
C1203 C379 1.799 . S
C1217 C390 1.319 . S
C1223 C139 1.421 . S
C1237 C148 1.477 . S
C1243 C357 1.453 . S
C1257 C115 1.801 . S
C1263 C436 1.782 . S
C1277 C126 1.318 . S
C1283 C403 1.418 . S
C1297 C412 1.500 . S
C1303 C93 1.480 . S
C1317 C425 1.683 . S
C1323 C106 1.716 . S
C1337 C238 1.548 . S
C1343 C302 1.542 . S
C1357 C326 1.531 . S
C1363 C216 1.579 . S
C1377 C225 1.827 . S
C1383 C337 1.795 . S
C1397 C348 1.648 . S
C1403 C194 1.641 . S
C1417 C205 1.640 . S
C1423 C313 1.612 . S
C1437 C183 1.451 . S
C1443 C280 1.443 . S
C1457 C258 1.688 . S
C1463 C293 1.680 . S
C1477 C269 1.463 . S
C1483 C247 1.420 1_556 S
C1497 C8 1.657 . S
C1503 C107 1.607 . S
C1517 C19 1.718 . S
C1523 C118 1.723 . S
C1537 C129 1.554 . S
C1543 C30 1.533 . S
C1557 C96 1.661 . S
C1563 C41 1.657 . S
C1577 C173 1.757 . S
C1583 C52 1.793 . S
C1597 C140 1.590 . S
C1603 C63 1.500 . S
C1617 C74 1.666 . S
C1623 C151 1.710 . S
C1637 C85 1.725 . S
C1643 C162 1.699 . S
C1657 C206 1.552 . S
C1663 C184 1.523 . S
C1677 C195 1.568 . S
C1683 C250 1.608 . S
C1697 C261 1.755 . S
C1703 C217 1.730 . S
C1717 C228 1.736 . S
C1723 C239 1.705 . S
C1737 C371 1.617 . S
C1743 C272 1.658 . S
C1757 C283 1.725 . S
C1763 C382 1.727 . S
C1777 C294 1.522 . S
C1783 C393 1.554 . S
C1797 C305 1.664 . S
C1803 C360 1.666 . S
C1817 C437 1.741 . S
C1823 C316 1.792 . S
C1837 C404 1.592 . S
C1843 C327 1.503 . S
C1857 C415 1.709 . S
C1863 C338 1.677 . S
C1877 C349 1.724 . S
C1883 C426 1.700 . S
C1897 C470 1.561 . S
C1903 C448 1.511 . S
C1917 C514 1.607 . S
C1923 C459 1.564 . S
C1937 C481 1.740 . S
C1943 C525 1.753 . S
C1957 C503 1.697 . S
C1963 C492 1.735 . S
