# Generated by pormake.
# Topology wkc, (5)-cn, num edge types: 1
# Building blocks:
#     Node 0, Type 0, BuildingBlock: XOMCOT_clean_sbu_1, # of connection points: 5
#     Node 1, Type 0, BuildingBlock: XOMCOT_clean_sbu_1, # of connection points: 5
#     Node 2, Type 0, BuildingBlock: XOMCOT_clean_sbu_1, # of connection points: 5
#     Node 3, Type 0, BuildingBlock: XOMCOT_clean_sbu_1, # of connection points: 5
#     Node 4, Type 0, BuildingBlock: XOMCOT_clean_sbu_1, # of connection points: 5
#     Node 5, Type 0, BuildingBlock: XOMCOT_clean_sbu_1, # of connection points: 5
#     Node 6, Type 0, BuildingBlock: XOMCOT_clean_sbu_1, # of connection points: 5
#     Node 7, Type 0, BuildingBlock: XOMCOT_clean_sbu_1, # of connection points: 5
#     Node 8, Type 0, BuildingBlock: XOMCOT_clean_sbu_1, # of connection points: 5
#     Node 9, Type 0, BuildingBlock: XOMCOT_clean_sbu_1, # of connection points: 5
#     Node 10, Type 0, BuildingBlock: XOMCOT_clean_sbu_1, # of connection points: 5
#     Node 11, Type 0, BuildingBlock: XOMCOT_clean_sbu_1, # of connection points: 5
#     Edge 12, Type (0, 0), BuildingBlock: KIFKEQ_clean_linker_1, # of connection points: 2
#     Edge 13, Type (0, 0), BuildingBlock: KIFKEQ_clean_linker_1, # of connection points: 2
#     Edge 14, Type (0, 0), BuildingBlock: KIFKEQ_clean_linker_1, # of connection points: 2
#     Edge 15, Type (0, 0), BuildingBlock: KIFKEQ_clean_linker_1, # of connection points: 2
#     Edge 16, Type (0, 0), BuildingBlock: KIFKEQ_clean_linker_1, # of connection points: 2
#     Edge 17, Type (0, 0), BuildingBlock: KIFKEQ_clean_linker_1, # of connection points: 2
#     Edge 18, Type (0, 0), BuildingBlock: KIFKEQ_clean_linker_1, # of connection points: 2
#     Edge 19, Type (0, 0), BuildingBlock: KIFKEQ_clean_linker_1, # of connection points: 2
#     Edge 20, Type (0, 0), BuildingBlock: KIFKEQ_clean_linker_1, # of connection points: 2
#     Edge 21, Type (0, 0), BuildingBlock: KIFKEQ_clean_linker_1, # of connection points: 2
#     Edge 22, Type (0, 0), BuildingBlock: KIFKEQ_clean_linker_1, # of connection points: 2
#     Edge 23, Type (0, 0), BuildingBlock: KIFKEQ_clean_linker_1, # of connection points: 2
#     Edge 24, Type (0, 0), BuildingBlock: KIFKEQ_clean_linker_1, # of connection points: 2
#     Edge 25, Type (0, 0), BuildingBlock: KIFKEQ_clean_linker_1, # of connection points: 2
#     Edge 26, Type (0, 0), BuildingBlock: KIFKEQ_clean_linker_1, # of connection points: 2
#     Edge 27, Type (0, 0), BuildingBlock: KIFKEQ_clean_linker_1, # of connection points: 2
#     Edge 28, Type (0, 0), BuildingBlock: KIFKEQ_clean_linker_1, # of connection points: 2
#     Edge 29, Type (0, 0), BuildingBlock: KIFKEQ_clean_linker_1, # of connection points: 2
#     Edge 30, Type (0, 0), BuildingBlock: KIFKEQ_clean_linker_1, # of connection points: 2
#     Edge 31, Type (0, 0), BuildingBlock: KIFKEQ_clean_linker_1, # of connection points: 2
#     Edge 32, Type (0, 0), BuildingBlock: KIFKEQ_clean_linker_1, # of connection points: 2
#     Edge 33, Type (0, 0), BuildingBlock: KIFKEQ_clean_linker_1, # of connection points: 2
#     Edge 34, Type (0, 0), BuildingBlock: KIFKEQ_clean_linker_1, # of connection points: 2
#     Edge 35, Type (0, 0), BuildingBlock: KIFKEQ_clean_linker_1, # of connection points: 2
#     Edge 36, Type (0, 0), BuildingBlock: KIFKEQ_clean_linker_1, # of connection points: 2
#     Edge 37, Type (0, 0), BuildingBlock: KIFKEQ_clean_linker_1, # of connection points: 2
#     Edge 38, Type (0, 0), BuildingBlock: KIFKEQ_clean_linker_1, # of connection points: 2
#     Edge 39, Type (0, 0), BuildingBlock: KIFKEQ_clean_linker_1, # of connection points: 2
#     Edge 40, Type (0, 0), BuildingBlock: KIFKEQ_clean_linker_1, # of connection points: 2
#     Edge 41, Type (0, 0), BuildingBlock: KIFKEQ_clean_linker_1, # of connection points: 2
# Relax obj value: 0.260
# Max RMSD: 0.215
# Mean RMSD: 0.215
data_MOF--net-wkc--node1-XOMCOT_clean_sbu_1--edge1-KIFKEQ_clean_linker_1
_symmetry_space_group_name_H-M    P1
_symmetry_Int_Tables_number       1
_symmetry_cell_setting            triclinic
loop_
_symmetry_equiv_pos_as_xyz
'x, y, z'
_cell_length_a     37.974409
_cell_length_b     37.842025
_cell_length_c     48.449866
_cell_angle_alpha  90.188152
_cell_angle_beta   89.897266
_cell_angle_gamma 119.84269
loop_
_atom_site_label
_atom_site_type_symbol
_atom_site_fract_x
_atom_site_fract_y
_atom_site_fract_z
_atom_type_partial_charge
C0 C 0.31879 0.47638 0.04848 0.0
C1 C 0.32144 0.50796 0.06418 0.0
N2 N 0.29876 0.52191 0.05213 0.0
N3 N 0.29432 0.47022 0.02671 0.0
C4 C 0.28249 0.49831 0.02953 0.0
H5 H 0.3349 0.45998 0.05212 0.0
Co6 Co 0.28554 0.43572 -0.00329 0.0
C7 C 0.19569 0.38862 0.99267 0.0
O8 O 0.19814 0.35597 0.98682 0.0
N9 N 0.27844 0.40251 0.96534 0.0
C10 C 0.26001 0.37528 0.92322 0.0
C11 C 0.25356 0.39663 0.94372 0.0
C12 C 0.30178 0.38688 0.95635 0.0
N13 N 0.29049 0.36928 0.93119 0.0
O14 O 0.30224 0.48105 0.97227 0.0
H15 H 0.23299 0.40853 0.94233 0.0
H16 H 0.32792 0.38991 0.96716 0.0
O17 O 0.2283 0.42299 -0.00427 0.0
C18 C 0.34067 0.50354 0.9737 0.0
O19 O 0.36105 0.49206 0.98971 0.0
N20 N 0.27233 0.3925 0.02192 0.0
C21 C 0.26861 0.34534 0.06726 0.0
C22 C 0.24093 0.35924 0.06459 0.0
C23 C 0.24364 0.38319 0.04203 0.0
C24 C 0.29944 0.37896 0.02436 0.0
C25 C 0.29748 0.35445 0.04648 0.0
H26 H 0.22522 0.39748 0.0425 0.0
H27 H 0.32541 0.39055 0.011 0.0
H28 H 0.26437 0.50298 0.01432 0.0
H29 H 0.3396 0.52039 0.08262 0.0
H30 H 0.24481 0.36656 0.90343 0.0
H31 H 0.21917 0.35402 0.08079 0.0
H32 H 0.32067 0.34591 0.0486 0.0
C33 C 0.8638 0.31792 0.2178 0.0
C34 C 0.83598 0.32182 0.23377 0.0
N35 N 0.79917 0.30011 0.22191 0.0
N36 N 0.84462 0.29362 0.19603 0.0
C37 C 0.80523 0.28299 0.19922 0.0
H38 H 0.89624 0.33356 0.22112 0.0
Co39 Co 0.86901 0.28475 0.16534 0.0
C40 C 0.82652 0.19417 0.16069 0.0
O41 O 0.86079 0.1965 0.15294 0.0
N42 N 0.89369 0.27742 0.13352 0.0
C43 C 0.90023 0.26008 0.09053 0.0
C44 C 0.87346 0.25386 0.11157 0.0
C45 C 0.93253 0.29956 0.12444 0.0
N46 N 0.93735 0.28903 0.09864 0.0
O47 O 0.83832 0.29961 0.14132 0.0
H48 H 0.84088 0.23445 0.11044 0.0
H49 H 0.95672 0.32425 0.13574 0.0
O50 O 0.82532 0.22697 0.16516 0.0
C51 C 0.84689 0.3367 0.14268 0.0
O52 O 0.87433 0.36127 0.16045 0.0
N53 N 0.90098 0.2731 0.18966 0.0
C54 C 0.94752 0.2713 0.23375 0.0
C55 C 0.90712 0.24053 0.23046 0.0
C56 C 0.88414 0.24259 0.20883 0.0
C57 C 0.94053 0.30296 0.19238 0.0
C58 C 0.96457 0.30229 0.21395 0.0
H59 H 0.85198 0.22175 0.20944 0.0
H60 H 0.95243 0.32981 0.17971 0.0
H61 H 0.78205 0.26557 0.18404 0.0
H62 H 0.84266 0.34051 0.2521 0.0
H63 H 0.89271 0.24597 0.0703 0.0
H64 H 0.89245 0.21652 0.24561 0.0
H65 H 0.99508 0.32773 0.21642 0.0
C66 C 0.55671 0.85389 0.38161 0.0
C67 C 0.5259 0.82373 0.39687 0.0
N68 N 0.51601 0.78738 0.38547 0.0
N69 N 0.56651 0.8367 0.36077 0.0
C70 C 0.54139 0.79623 0.36373 0.0
H71 H 0.56964 0.88632 0.38468 0.0
Co72 Co 0.60105 0.86317 0.33109 0.0
C73 C 0.65626 0.82847 0.33094 0.0
O74 O 0.68675 0.86459 0.32466 0.0
N75 N 0.63457 0.88956 0.30012 0.0
C76 C 0.66295 0.89725 0.25855 0.0
C77 C 0.64175 0.87013 0.27926 0.0
C78 C 0.64991 0.92821 0.29066 0.0
N79 N 0.66791 0.93378 0.26573 0.0
O80 O 0.55858 0.82913 0.30589 0.0
H81 H 0.631 0.83778 0.27863 0.0
H82 H 0.64691 0.95177 0.30105 0.0
O83 O 0.62044 0.82351 0.33309 0.0
C84 C 0.52956 0.83691 0.3058 0.0
O85 O 0.53146 0.86551 0.32221 0.0
N86 N 0.64099 0.89843 0.35645 0.0
C87 C 0.68469 0.95088 0.39988 0.0
C88 C 0.67852 0.91118 0.39877 0.0
C89 C 0.65593 0.88521 0.37723 0.0
C90 C 0.6463 0.93676 0.35752 0.0
C91 C 0.66898 0.96382 0.3785 0.0
H92 H 0.64764 0.8536 0.37885 0.0
H93 H 0.62974 0.94531 0.3436 0.0
H94 H 0.54071 0.77389 0.34943 0.0
H95 H 0.51041 0.82849 0.41401 0.0
H96 H 0.67238 0.89025 0.23917 0.0
H97 H 0.68826 0.89913 0.4155 0.0
H98 H 0.67208 0.99386 0.37877 0.0
C99 C 0.72435 0.55248 0.54824 0.0
C100 C 0.72456 0.5221 0.5637 0.0
N101 N 0.75118 0.51251 0.55227 0.0
N102 N 0.7509 0.56219 0.52727 0.0
C103 C 0.76677 0.53749 0.53028 0.0
H104 H 0.705 0.56556 0.55144 0.0
Co105 Co 0.75927 0.59693 0.49777 0.0
C106 C 0.84921 0.64801 0.49608 0.0
O107 O 0.84542 0.67989 0.49039 0.0
N108 N 0.76645 0.63049 0.46673 0.0
C109 C 0.78538 0.65747 0.42471 0.0
C110 C 0.7924 0.63734 0.44563 0.0
C111 C 0.74231 0.64475 0.45712 0.0
N112 N 0.75371 0.66218 0.43192 0.0
O113 O 0.7459 0.55272 0.47273 0.0
H114 H 0.81415 0.62682 0.44485 0.0
H115 H 0.71482 0.63961 0.4671 0.0
O116 O 0.81741 0.61281 0.49817 0.0
C117 C 0.70754 0.52899 0.47284 0.0
O118 O 0.68524 0.53841 0.48866 0.0
N119 N 0.76877 0.63871 0.5234 0.0
C120 C 0.76722 0.68532 0.56799 0.0
C121 C 0.79634 0.67285 0.56663 0.0
C122 C 0.79634 0.64933 0.54439 0.0
C123 C 0.74005 0.65022 0.52465 0.0
C124 C 0.73968 0.67472 0.54605 0.0
H125 H 0.81619 0.63666 0.54556 0.0
H126 H 0.7149 0.63747 0.51058 0.0
H127 H 0.78851 0.53718 0.51599 0.0
H128 H 0.70506 0.50698 0.58115 0.0
H129 H 0.80193 0.66707 0.40545 0.0
H130 H 0.81711 0.67848 0.58352 0.0
H131 H 0.71631 0.68316 0.54607 0.0
C132 C 0.18761 0.71422 0.71608 0.0
C133 C 0.21649 0.7118 0.73175 0.0
N134 N 0.25315 0.73545 0.72008 0.0
N135 N 0.20594 0.73954 0.6947 0.0
C136 C 0.24579 0.75211 0.69773 0.0
H137 H 0.15515 0.69701 0.71929 0.0
Co138 Co 0.18061 0.74829 0.66465 0.0
C139 C 0.22162 0.83882 0.66115 0.0
O140 O 0.18676 0.83583 0.65432 0.0
N141 N 0.155 0.75563 0.63332 0.0
C142 C 0.14752 0.77432 0.59104 0.0
C143 C 0.17474 0.77989 0.61159 0.0
C144 C 0.11597 0.7337 0.6245 0.0
N145 N 0.11058 0.74508 0.59917 0.0
O146 O 0.21116 0.73386 0.63998 0.0
H147 H 0.20728 0.79955 0.6103 0.0
H148 H 0.09198 0.70869 0.63562 0.0
O149 O 0.22376 0.80637 0.6647 0.0
C150 C 0.20027 0.69613 0.64104 0.0
O151 O 0.17094 0.67236 0.65795 0.0
N152 N 0.14886 0.75923 0.68975 0.0
C153 C 0.10224 0.76074 0.73396 0.0
C154 C 0.14307 0.79068 0.73144 0.0
C155 C 0.16601 0.78892 0.70957 0.0
C156 C 0.10918 0.7296 0.69219 0.0
C157 C 0.08504 0.73032 0.71372 0.0
H158 H 0.19828 0.80937 0.71027 0.0
H159 H 0.09711 0.703 0.67917 0.0
H160 H 0.26864 0.77182 0.68308 0.0
H161 H 0.21048 0.69215 0.7494 0.0
H162 H 0.1546 0.78923 0.57113 0.0
H163 H 0.15782 0.81392 0.74716 0.0
H164 H 0.05414 0.70542 0.71574 0.0
C165 C 0.4876 0.17895 0.8832 0.0
C166 C 0.51787 0.20833 0.89927 0.0
N167 N 0.53008 0.24498 0.88769 0.0
N168 N 0.48048 0.19693 0.86161 0.0
C169 C 0.50663 0.23717 0.86503 0.0
H170 H 0.47315 0.14643 0.88639 0.0
Co171 Co 0.44775 0.17141 0.83087 0.0
C172 C 0.39469 0.20885 0.82826 0.0
O173 O 0.36409 0.17401 0.81987 0.0
N174 N 0.41602 0.14591 0.79899 0.0
C175 C 0.39054 0.13887 0.75652 0.0
C176 C 0.41147 0.16592 0.77743 0.0
C177 C 0.39933 0.10689 0.78985 0.0
N178 N 0.38314 0.10176 0.76435 0.0
O179 O 0.49216 0.20545 0.80691 0.0
H180 H 0.42364 0.19852 0.77661 0.0
H181 H 0.39986 0.08258 0.80098 0.0
O182 O 0.42941 0.21188 0.83233 0.0
C183 C 0.52081 0.19714 0.80777 0.0
O184 O 0.51743 0.16815 0.82429 0.0
N185 N 0.40594 0.13601 0.85497 0.0
C186 C 0.36121 0.08353 0.89795 0.0
C187 C 0.36577 0.12255 0.89614 0.0
C188 C 0.38885 0.14857 0.87481 0.0
C189 C 0.40159 0.0981 0.85647 0.0
C190 C 0.37847 0.07101 0.87723 0.0
H191 H 0.39598 0.17985 0.87614 0.0
H192 H 0.41946 0.09014 0.84325 0.0
H193 H 0.51034 0.25996 0.85007 0.0
H194 H 0.53086 0.20291 0.91753 0.0
H195 H 0.38286 0.14618 0.73664 0.0
H196 H 0.35462 0.13424 0.91232 0.0
H197 H 0.37647 0.04147 0.87803 0.0
C198 C 0.5482 0.70093 0.7692 0.0
C199 C 0.51316 0.69505 0.75676 0.0
N200 N 0.50142 0.7194 0.76917 0.0
N201 N 0.55923 0.72948 0.78921 0.0
C202 C 0.52944 0.73928 0.78899 0.0
H203 H 0.56351 0.6843 0.76406 0.0
Co204 Co 0.60186 0.74954 0.81542 0.0
C205 C 0.61137 0.82205 0.78592 0.0
O206 O 0.60205 0.80004 0.76325 0.0
N207 N 0.64214 0.76701 0.84211 0.0
C208 C 0.68888 0.79954 0.87435 0.0
C209 C 0.6646 0.80327 0.85474 0.0
C210 C 0.65309 0.74188 0.85427 0.0
N211 N 0.68135 0.76073 0.8741 0.0
O212 O 0.56288 0.7408 0.84339 0.0
H213 H 0.66299 0.83044 0.85045 0.0
H214 H 0.64046 0.7102 0.84855 0.0
O215 O 0.61302 0.80631 0.80903 0.0
C216 C 0.54783 0.70445 0.85213 0.0
O217 O 0.56096 0.68105 0.84165 0.0
N218 N 0.64058 0.75531 0.78886 0.0
C219 C 0.6925 0.75584 0.74814 0.0
C220 C 0.69794 0.79249 0.75911 0.0
C221 C 0.6725 0.79154 0.78025 0.0
C222 C 0.63841 0.7197 0.78098 0.0
C223 C 0.66355 0.71911 0.76018 0.0
H224 H 0.67852 0.82003 0.7894 0.0
H225 H 0.61617 0.69141 0.79041 0.0
H226 H 0.52895 0.76141 0.80294 0.0
H227 H 0.49714 0.67369 0.74026 0.0
H228 H 0.70962 0.82328 0.88819 0.0
H229 H 0.72139 0.82154 0.75124 0.0
H230 H 0.65919 0.69013 0.75283 0.0
C231 C 0.85209 0.55049 0.92926 0.0
C232 C 0.82239 0.51843 0.91455 0.0
N233 N 0.78647 0.50615 0.92714 0.0
N234 N 0.83501 0.55874 0.95094 0.0
C235 C 0.79496 0.53139 0.94901 0.0
H236 H 0.88433 0.56551 0.92516 0.0
Co237 Co 0.86282 0.59412 0.98011 0.0
C238 C 0.82805 0.64885 0.98249 0.0
O239 O 0.86474 0.67899 0.98787 0.0
N240 N 0.89075 0.62816 0.01064 0.0
C241 C 0.90014 0.65647 0.05246 0.0
C242 C 0.87225 0.6351 0.0322 0.0
C243 C 0.92963 0.64342 0.01938 0.0
N244 N 0.93621 0.66155 0.04439 0.0
O245 O 0.83178 0.55152 0.00606 0.0
H246 H 0.84 0.62403 0.03363 0.0
H247 H 0.9525 0.63996 0.00851 0.0
O248 O 0.82214 0.6125 0.98012 0.0
C249 C 0.83932 0.52225 0.00566 0.0
O250 O 0.86544 0.5228 0.98761 0.0
N251 N 0.895 0.63467 0.95384 0.0
C252 C 0.94124 0.68066 0.90895 0.0
C253 C 0.90038 0.66974 0.91133 0.0
C254 C 0.87765 0.64615 0.93357 0.0
C255 C 0.93464 0.64448 0.95143 0.0
C256 C 0.95861 0.66833 0.92955 0.0
H257 H 0.84535 0.63448 0.93303 0.0
H258 H 0.9469 0.63074 0.96489 0.0
H259 H 0.77298 0.52817 0.9645 0.0
H260 H 0.82717 0.50428 0.89657 0.0
H261 H 0.89402 0.6659 0.07216 0.0
H262 H 0.88552 0.67755 0.89536 0.0
H263 H 0.98955 0.67436 0.92767 0.0
C264 C 0.32196 0.84739 0.10028 0.0
C265 C 0.32484 0.8183 0.08495 0.0
N266 N 0.30002 0.78152 0.09616 0.0
N267 N 0.29517 0.82906 0.12095 0.0
C268 C 0.28216 0.78893 0.11783 0.0
H269 H 0.33962 0.87999 0.09732 0.0
Co270 Co 0.28606 0.85528 0.15057 0.0
C271 C 0.19666 0.81914 0.14892 0.0
O272 O 0.20148 0.85563 0.15309 0.0
N273 N 0.27902 0.88189 0.1816 0.0
C274 C 0.25934 0.896 0.22165 0.0
C275 C 0.24916 0.86773 0.2008 0.0
C276 C 0.30834 0.91731 0.19269 0.0
N277 N 0.29672 0.92722 0.2165 0.0
O278 O 0.29672 0.82286 0.17583 0.0
H279 H 0.22239 0.83789 0.20064 0.0
H280 H 0.33847 0.93486 0.18412 0.0
O281 O 0.22768 0.81419 0.14882 0.0
C282 C 0.3339 0.83213 0.17588 0.0
O283 O 0.35952 0.86099 0.15936 0.0
N284 N 0.27856 0.88911 0.12494 0.0
C285 C 0.28314 0.93857 0.08061 0.0
C286 C 0.25501 0.89677 0.08041 0.0
C287 C 0.25351 0.87258 0.10256 0.0
C288 C 0.30528 0.92997 0.12565 0.0
C289 C 0.3074 0.9553 0.10411 0.0
H290 H 0.23464 0.84 0.10043 0.0
H291 H 0.32765 0.94304 0.14163 0.0
H292 H 0.26221 0.76598 0.13238 0.0
H293 H 0.34475 0.82402 0.06748 0.0
H294 H 0.24138 0.89301 0.23979 0.0
H295 H 0.23657 0.88216 0.06238 0.0
H296 H 0.32975 0.98741 0.10516 0.0
C297 C 0.4993 0.32982 0.26185 0.0
C298 C 0.53454 0.3359 0.24946 0.0
N299 N 0.54816 0.31441 0.26342 0.0
N300 N 0.49041 0.30423 0.28347 0.0
C301 C 0.52133 0.2961 0.28406 0.0
H302 H 0.48217 0.34409 0.25551 0.0
Co303 Co 0.44882 0.28649 0.31041 0.0
C304 C 0.44061 0.2117 0.28435 0.0
O305 O 0.45021 0.23166 0.26087 0.0
N306 N 0.40927 0.27129 0.33752 0.0
C307 C 0.3531 0.24043 0.36281 0.0
C308 C 0.37626 0.23497 0.34311 0.0
C309 C 0.40588 0.29812 0.3542 0.0
N310 N 0.37194 0.28019 0.36977 0.0
O311 O 0.48905 0.29839 0.33838 0.0
H312 H 0.36857 0.20667 0.33279 0.0
H313 H 0.42685 0.3306 0.35387 0.0
O314 O 0.43782 0.22914 0.30644 0.0
C315 C 0.51069 0.33695 0.34108 0.0
O316 O 0.50129 0.3602 0.32634 0.0
N317 N 0.40945 0.27847 0.28377 0.0
C318 C 0.35793 0.27814 0.24302 0.0
C319 C 0.35441 0.24153 0.25216 0.0
C320 C 0.37956 0.24221 0.27337 0.0
C321 C 0.41026 0.31378 0.27703 0.0
C322 C 0.38504 0.31446 0.2564 0.0
H323 H 0.37466 0.21349 0.28113 0.0
H324 H 0.43182 0.34191 0.28707 0.0
H325 H 0.52419 0.27718 0.29959 0.0
H326 H 0.54889 0.35457 0.23151 0.0
H327 H 0.32425 0.21718 0.37097 0.0
H328 H 0.33251 0.21274 0.24296 0.0
H329 H 0.38787 0.34324 0.2502 0.0
C330 C 0.19471 0.48481 0.43576 0.0
C331 C 0.22375 0.51826 0.42175 0.0
N332 N 0.26021 0.52969 0.43321 0.0
N333 N 0.21273 0.4748 0.45582 0.0
C334 C 0.25254 0.50282 0.45381 0.0
H335 H 0.16234 0.46951 0.43211 0.0
Co336 Co 0.18621 0.43451 0.48266 0.0
C337 C 0.26217 0.42652 0.4848 0.0
O338 O 0.28404 0.45812 0.50075 0.0
N339 N 0.15913 0.39478 0.50973 0.0
C340 C 0.13649 0.3407 0.53693 0.0
C341 C 0.16468 0.36361 0.51721 0.0
C342 C 0.12761 0.39034 0.52538 0.0
N343 N 0.11279 0.35725 0.54195 0.0
O344 O 0.21683 0.47316 0.51091 0.0
H345 H 0.18717 0.35717 0.50867 0.0
H346 H 0.11486 0.41023 0.52376 0.0
O347 O 0.22609 0.41714 0.4782 0.0
C348 C 0.20447 0.49863 0.51414 0.0
O349 O 0.1742 0.49502 0.49899 0.0
N350 N 0.15445 0.39764 0.45506 0.0
C351 C 0.10484 0.35368 0.41083 0.0
C352 C 0.14641 0.36631 0.41063 0.0
C353 C 0.17073 0.38831 0.43294 0.0
C354 C 0.11399 0.38471 0.45597 0.0
C355 C 0.08853 0.36213 0.43431 0.0
H356 H 0.20306 0.40005 0.43145 0.0
H357 H 0.10161 0.39353 0.47299 0.0
H358 H 0.27533 0.50421 0.4677 0.0
H359 H 0.21808 0.53387 0.40517 0.0
H360 H 0.13367 0.3137 0.54662 0.0
H361 H 0.1606 0.36139 0.39276 0.0
H362 H 0.05657 0.35264 0.4356 0.0
C363 C 0.73362 0.19349 0.60458 0.0
C364 C 0.73293 0.22391 0.58962 0.0
N365 N 0.75951 0.26007 0.60103 0.0
N366 N 0.76084 0.21032 0.6252 0.0
C367 C 0.77615 0.25087 0.62252 0.0
H368 H 0.71416 0.16109 0.60146 0.0
Co369 Co 0.76831 0.1823 0.65412 0.0
C370 C 0.85691 0.21374 0.6525 0.0
O371 O 0.8492 0.17615 0.65622 0.0
N372 N 0.77383 0.1539 0.68451 0.0
C373 C 0.79238 0.13874 0.7245 0.0
C374 C 0.80308 0.16758 0.70411 0.0
C375 C 0.7443 0.11808 0.69488 0.0
N376 N 0.75524 0.10753 0.71863 0.0
O377 O 0.75949 0.21535 0.68017 0.0
H378 H 0.82982 0.19746 0.70447 0.0
H379 H 0.71439 0.10082 0.686 0.0
O380 O 0.82753 0.22131 0.65262 0.0
C381 C 0.72242 0.20653 0.68047 0.0
O382 O 0.69652 0.17803 0.66379 0.0
N383 N 0.77365 0.14788 0.62763 0.0
C384 C 0.7661 0.09856 0.58223 0.0
C385 C 0.79643 0.13963 0.58286 0.0
C386 C 0.79936 0.16384 0.60552 0.0
C387 C 0.74448 0.10775 0.62738 0.0
C388 C 0.74086 0.08241 0.60533 0.0
H389 H 0.82004 0.1962 0.604 0.0
H390 H 0.72135 0.09565 0.6429 0.0
H391 H 0.79785 0.27299 0.6368 0.0
H392 H 0.71259 0.21948 0.57267 0.0
H393 H 0.80981 0.14135 0.74281 0.0
H394 H 0.81569 0.15388 0.56511 0.0
H395 H 0.71671 0.05093 0.6057 0.0
H396 H 0.43266 0.26207 0.8709 0.0
H397 H 0.33584 0.22518 0.81167 0.0
H398 H 0.4092 0.30298 0.89514 0.0
H399 H 0.31382 0.26816 0.83459 0.0
H400 H 0.25036 0.30221 0.89963 0.0
H401 H 0.27873 0.26761 0.87319 0.0
H402 H 0.39942 0.35835 0.89935 0.0
H403 H 0.37012 0.3914 0.92707 0.0
C404 C 0.40709 0.26375 0.86255 0.0
C405 C 0.38589 0.24015 0.83948 0.0
C406 C 0.39355 0.28733 0.87646 0.0
C407 C 0.35894 0.28857 0.8673 0.0
C408 C 0.33963 0.26706 0.84301 0.0
C409 C 0.35259 0.24278 0.82953 0.0
C410 C 0.28295 0.31471 0.89962 0.0
C411 C 0.30799 0.34942 0.91541 0.0
C412 C 0.29944 0.29512 0.88423 0.0
C413 C 0.34169 0.31019 0.88367 0.0
C414 C 0.36677 0.34527 0.89944 0.0
C415 C 0.35007 0.36439 0.91532 0.0
H416 H 0.12014 0.33225 0.97561 0.0
H417 H 0.18267 0.43032 0.03402 0.0
H418 H 0.05618 0.31199 -0.00103 0.0
H419 H 0.11944 0.40829 0.05892 0.0
H420 H 0.99455 0.36875 0.09455 0.0
H421 H 0.05504 0.3982 0.06531 0.0
H422 H 1.0236 0.27705 0.03775 0.0
H423 H 0.9623 0.24866 0.0656 0.0
C424 C 0.12004 0.34975 0.99333 0.0
C425 C 0.15641 0.38265 0.00307 0.0
C426 C 0.08343 0.33773 0.00711 0.0
C427 C 0.08239 0.35748 0.03156 0.0
C428 C 0.11857 0.39217 0.04022 0.0
C429 C 0.15505 0.40491 0.02592 0.0
C430 C 1.00083 0.34868 0.08213 0.0
C431 C 0.97382 0.30648 0.08223 0.0
C432 C 0.03556 0.36545 0.06538 0.0
C433 C 0.04454 0.34027 0.04875 0.0
C434 C 1.0175 0.29787 0.04939 0.0
C435 C 0.98243 0.28134 0.06561 0.0
H436 H 0.80777 0.11826 0.14368 0.0
H437 H 0.77307 0.18088 0.20282 0.0
H438 H 0.76466 0.05401 0.16699 0.0
H439 H 0.73196 0.11718 0.22738 0.0
H440 H 0.64482 0.99078 0.26076 0.0
H441 H 0.67658 0.05199 0.23216 0.0
H442 H 0.76738 0.02152 0.20628 0.0
H443 H 0.73425 0.95976 0.23374 0.0
C444 C 0.79051 0.11815 0.16154 0.0
C445 C 0.79401 0.15465 0.17146 0.0
C446 C 0.76619 0.08136 0.17523 0.0
C447 C 0.74548 0.08018 0.19969 0.0
C448 C 0.74713 0.11648 0.20863 0.0
C449 C 0.77079 0.1532 0.19452 0.0
C450 C 0.67158 0.99737 0.2489 0.0
C451 C 0.68703 0.97048 0.2494 0.0
C452 C 0.68993 0.03253 0.2325 0.0
C453 C 0.7246 0.04198 0.21654 0.0
C454 C 0.74013 1.01504 0.21747 0.0
C455 C 0.72137 0.97965 0.23343 0.0
H456 H 0.70668 0.6929 0.45054 0.0
H457 H 0.75834 0.67393 0.37625 0.0
H458 H 0.67862 0.72742 0.42363 0.0
H459 H 0.73079 0.70894 0.34957 0.0
H460 H 0.72502 0.82414 0.32283 0.0
H461 H 0.74494 0.77972 0.34591 0.0
H462 H 0.62865 0.71789 0.38695 0.0
H463 H 0.60867 0.76267 0.36387 0.0
C464 C 0.71164 0.6955 0.42847 0.0
C465 C 0.73516 0.68072 0.41574 0.0
C466 C 0.69548 0.71532 0.41301 0.0
C467 C 0.70257 0.7211 0.38444 0.0
C468 C 0.72523 0.70552 0.37159 0.0
C469 C 0.74119 0.68552 0.38699 0.0
C470 C 0.70338 0.80063 0.33641 0.0
C471 C 0.66528 0.79704 0.34151 0.0
C472 C 0.71478 0.77504 0.3496 0.0
C473 C 0.6885 0.74538 0.36843 0.0
C474 C 0.64976 0.74074 0.37279 0.0
C475 C 0.63817 0.76612 0.35934 0.0
H476 H 0.08528 0.78702 0.56825 0.0
H477 H 0.05249 0.66574 0.59422 0.0
H478 H 1.02306 0.76013 0.54152 0.0
H479 H 0.99105 0.63781 0.56604 0.0
H480 H 0.86319 0.60666 0.53688 0.0
H481 H 0.92679 0.6284 0.56119 0.0
H482 H 0.98877 0.72675 0.50276 0.0
H483 H 0.92444 0.7066 0.48001 0.0
C484 C 0.06483 0.75441 0.56784 0.0
C485 C 0.0736 0.7285 0.58332 0.0
C486 C 0.0292 0.73874 0.55225 0.0
C487 C 1.00169 0.69646 0.5511 0.0
C488 C 1.01084 0.67051 0.56656 0.0
C489 C 0.04615 0.68641 0.5827 0.0
C490 C 0.8906 0.63251 0.529 0.0
C491 C 0.8888 0.65516 0.50668 0.0
C492 C 0.9273 0.64508 0.54296 0.0
C493 C 0.96332 0.68008 0.5345 0.0
C494 C 0.96172 0.70066 0.51073 0.0
C495 C 0.92489 0.68875 0.49731 0.0
H496 H 0.23981 0.91434 0.64395 0.0
H497 H 0.2755 0.85303 0.70302 0.0
H498 H 0.28344 0.97912 0.66667 0.0
H499 H 0.31685 0.91716 0.7272 0.0
H500 H 0.40434 0.04334 0.76035 0.0
H501 H 0.37176 0.98156 0.73216 0.0
H502 H 0.28317 1.01419 0.70496 0.0
H503 H 0.31752 0.07672 0.73182 0.0
C504 C 0.25736 0.91485 0.66171 0.0
C505 C 0.2541 0.87859 0.67172 0.0
C506 C 0.28196 0.95197 0.6751 0.0
C507 C 0.30311 0.95373 0.69943 0.0
C508 C 0.30146 0.91754 0.70853 0.0
C509 C 0.27763 0.88053 0.69465 0.0
C510 C 0.37792 0.03709 0.74824 0.0
C511 C 0.36346 0.0648 0.7482 0.0
C512 C 0.35904 1.00157 0.7321 0.0
C513 C 0.32466 0.99245 0.71592 0.0
C514 C 0.31014 0.02027 0.71631 0.0
C515 C 0.32957 0.05611 0.73194 0.0
H516 H 0.82308 0.7163 -0.00525 0.0
H517 H 0.76556 0.60606 0.94603 0.0
H518 H 0.78367 0.74144 0.97082 0.0
H519 H 0.72704 0.63182 0.92123 0.0
H520 H 0.64645 0.68198 0.89091 0.0
H521 H 0.67628 0.6517 0.92048 0.0
H522 H 0.78623 0.76849 0.92645 0.0
H523 H 0.75606 0.79864 0.89737 0.0
C524 C 0.80151 0.69715 0.97917 0.0
C525 C 0.79763 0.65931 0.97219 0.0
C526 C 0.77923 0.71178 0.96518 0.0
C527 C 0.75281 0.6892 0.94355 0.0
C528 C 0.74696 0.65009 0.93778 0.0
C529 C 0.769 0.63521 0.95206 0.0
C530 C 0.67706 0.70112 0.89846 0.0
C531 C 0.69889 0.74279 0.89173 0.0
C532 C 0.69418 0.68374 0.91546 0.0
C533 C 0.73366 0.70757 0.92609 0.0
C534 C 0.75541 0.74926 0.91927 0.0
C535 C 0.7382 0.76664 0.90245 0.0
H536 H 0.18231 0.76309 0.10837 0.0
H537 H 0.12193 0.80424 0.16453 0.0
H538 H 0.11876 0.72237 0.08349 0.0
H539 H 0.05774 0.7614 0.14121 0.0
H540 H 0.96451 0.73014 0.07437 0.0
H541 H 0.02647 0.76339 0.10146 0.0
H542 H 0.05303 0.66849 0.07843 0.0
H543 H 0.99169 0.63676 0.04994 0.0
C544 C 0.15505 0.76224 0.11598 0.0
C545 C 0.15704 0.78704 0.13825 0.0
C546 C 0.11845 0.73885 0.1017 0.0
C547 C 0.08287 0.7391 0.10978 0.0
C548 C 0.08456 0.76147 0.13356 0.0
C549 C 0.12127 0.7856 0.1473 0.0
C550 C 0.98368 0.71649 0.07518 0.0
C551 C 0.97335 0.68096 0.0601 0.0
C552 C 1.01913 0.73527 0.09096 0.0
C553 C 0.04492 0.71849 0.09271 0.0
C554 C 0.03444 0.68275 0.07749 0.0
C555 C 0.99924 0.66442 0.06117 0.0
H556 H 0.38139 0.14922 0.31539 0.0
H557 H 0.46621 0.17438 0.24882 0.0
H558 H 0.34845 0.07622 0.30451 0.0
H559 H 0.43315 0.10266 0.23741 0.0
H560 H 0.3782 0.9704 0.22397 0.0
H561 H 0.41678 0.03575 0.24751 0.0
H562 H 0.30487 0.03325 0.26847 0.0
H563 H 0.2665 0.96723 0.24566 0.0
C564 C 0.39363 0.13907 0.29895 0.0
C565 C 0.42621 0.16749 0.28286 0.0
C566 C 0.37447 0.09732 0.29243 0.0
C567 C 0.38773 0.08333 0.26982 0.0
C568 C 0.42213 0.11182 0.25511 0.0
C569 C 0.44106 0.15319 0.26157 0.0
C570 C 0.36191 0.98372 0.2338 0.0
C571 C 0.31934 0.96391 0.23264 0.0
C572 C 0.38398 0.02124 0.24732 0.0
C573 C 0.36411 0.0403 0.25967 0.0
C574 C 0.32136 0.01948 0.25956 0.0
C575 C 0.29927 0.98166 0.24634 0.0
H576 H 0.22338 0.34682 0.46942 0.0
H577 H 0.34126 0.45524 0.46947 0.0
H578 H 0.25071 0.31031 0.44431 0.0
H579 H 0.36842 0.41992 0.44225 0.0
H580 H 0.41511 0.33968 0.40686 0.0
H581 H 0.38987 0.37352 0.43751 0.0
H582 H 0.27007 0.30147 0.40195 0.0
H583 H 0.29522 0.26615 0.37311 0.0
C584 C 0.25529 0.36286 0.46401 0.0
C585 C 0.28021 0.40383 0.47157 0.0
C586 C 0.271 0.34207 0.44916 0.0
C587 C 0.31189 0.36201 0.44056 0.0
C588 C 0.337 0.40299 0.44867 0.0
C589 C 0.32144 0.42347 0.46425 0.0
C590 C 0.38335 0.3311 0.40592 0.0
C591 C 0.35701 0.30013 0.38785 0.0
C592 C 0.36878 0.35067 0.42333 0.0
C593 C 0.32763 0.34047 0.42257 0.0
C594 C 0.30159 0.30967 0.40403 0.0
C595 C 0.31598 0.28945 0.38722 0.0
H596 H 0.87809 0.28041 0.61941 0.0
H597 H 0.92776 0.21453 0.66138 0.0
H598 H 0.94219 0.31966 0.59429 0.0
H599 H 0.99163 0.25401 0.63691 0.0
H600 H 0.06705 0.27903 0.55905 0.0
H601 H 1.00828 0.25095 0.58891 0.0
H602 H 1.01713 0.36894 0.59505 0.0
H603 H 0.077 0.39762 0.56498 0.0
C604 C 0.90307 0.2752 0.62391 0.0
C605 C 0.89774 0.24407 0.64217 0.0
C606 C 0.93978 0.29762 0.60947 0.0
C607 C 0.97177 0.28936 0.61312 0.0
C608 C 0.96728 0.26043 0.63302 0.0
C609 C 0.93074 0.23799 0.64724 0.0
C610 C 0.05718 0.29941 0.567 0.0
C611 C 0.07742 0.34087 0.55974 0.0
C612 C 1.02324 0.28317 0.58423 0.0
C613 C 1.00823 0.30776 0.59479 0.0
C614 C 0.02787 0.34913 0.58726 0.0
C615 C 0.06218 0.36554 0.56998 0.0
H616 H 0.66658 0.88602 0.81804 0.0
H617 H 0.59036 0.85766 0.74602 0.0
H618 H 0.69919 0.95874 0.80665 0.0
H619 H 0.62306 0.92928 0.73433 0.0
H620 H 0.67327 0.0618 0.72294 0.0
H621 H 0.63458 0.99556 0.74508 0.0
H622 H 0.74636 1.00212 0.77131 0.0
H623 H 0.78492 0.06872 0.74952 0.0
C624 C 0.65615 0.89537 0.8002 0.0
C625 C 0.62604 0.86615 0.78287 0.0
C626 C 0.67512 0.93695 0.79346 0.0
C627 C 0.66402 0.95 0.76943 0.0
C628 C 0.63221 0.92069 0.75314 0.0
C629 C 0.61356 0.87943 0.75977 0.0
C630 C 0.68957 0.0492 0.73353 0.0
C631 C 0.73223 0.07033 0.7341 0.0
C632 C 0.66739 1.01121 0.7463 0.0
C633 C 0.68728 0.99313 0.75977 0.0
C634 C 0.72992 1.01518 0.76145 0.0
C635 C 0.7521 0.05336 0.74884 0.0
H636 H 0.23602 0.70536 0.10333 0.0
H637 H 0.35932 0.77113 0.07323 0.0
H638 H 0.23387 0.64079 0.09329 0.0
H639 H 0.35688 0.7071 0.06271 0.0
H640 H 0.35631 0.58889 0.0787 0.0
H641 H 0.35449 0.65071 0.08969 0.0
H642 H 0.23544 0.5993 0.05293 0.0
H643 H 0.23689 0.53667 0.04242 0.0
C644 C 0.26256 0.70603 0.09451 0.0
C645 C 0.29781 0.7434 0.08907 0.0
C646 C 0.26123 0.66912 0.08857 0.0
C647 C 0.2953 0.66888 0.07736 0.0
C648 C 0.3303 0.70625 0.07165 0.0
C649 C 0.33152 0.743 0.07737 0.0
C650 C 0.32946 0.59041 0.07329 0.0
C651 C 0.29673 0.55778 0.05966 0.0
C652 C 0.32862 0.62608 0.07932 0.0
C653 C 0.29496 0.63002 0.07198 0.0
C654 C 0.26175 0.59709 0.05893 0.0
C655 C 0.26271 0.5614 0.05271 0.0
H656 H 0.79385 0.36119 0.24721 0.0
H657 H 0.72161 0.24048 0.21293 0.0
H658 H 0.73237 0.36351 0.25783 0.0
H659 H 0.65978 0.24314 0.22309 0.0
H660 H 0.55876 0.24987 0.27295 0.0
H661 H 0.61966 0.24528 0.26365 0.0
H662 H 0.6789 0.36749 0.23086 0.0
H663 H 0.61835 0.3723 0.24065 0.0
C664 C 0.76482 0.33494 0.24219 0.0
C665 C 0.76261 0.30056 0.22929 0.0
C666 C 0.7296 0.33649 0.24798 0.0
C667 C 0.69128 0.30362 0.24114 0.0
C668 C 0.68891 0.26887 0.22872 0.0
C669 C 0.72425 0.26745 0.22272 0.0
C670 C 0.58493 0.27583 0.26396 0.0
C671 C 0.58387 0.31153 0.25764 0.0
C672 C 0.61961 0.27305 0.25839 0.0
C673 C 0.65407 0.30606 0.24661 0.0
C674 C 0.65295 0.3417 0.24022 0.0
C675 C 0.61817 0.34434 0.24557 0.0
H676 H 0.47879 0.76468 0.43531 0.0
H677 H 0.47528 0.72088 0.35231 0.0
H678 H 0.41778 0.70114 0.44664 0.0
H679 H 0.41556 0.65654 0.36408 0.0
H680 H 0.28161 0.56964 0.38423 0.0
H681 H 0.34503 0.63085 0.37307 0.0
H682 H 0.39085 0.63002 0.45449 0.0
H683 H 0.32667 0.57015 0.46617 0.0
C684 C 0.46525 0.74144 0.41951 0.0
C685 C 0.48198 0.74823 0.39283 0.0
C686 C 0.43046 0.7047 0.42612 0.0
C687 C 0.41156 0.67365 0.40625 0.0
C688 C 0.42893 0.67998 0.37979 0.0
C689 C 0.46363 0.7168 0.37314 0.0
C690 C 0.30503 0.58262 0.39986 0.0
C691 C 0.29871 0.56485 0.42616 0.0
C692 C 0.34172 0.61749 0.39331 0.0
C693 C 0.37318 0.63547 0.41287 0.0
C694 C 0.36714 0.61733 0.43902 0.0
C695 C 0.33039 0.58255 0.44561 0.0
H696 H 0.73585 0.47445 0.60198 0.0
H697 H 0.7822 0.4751 0.52029 0.0
H698 H 0.74194 0.41531 0.61374 0.0
H699 H 0.79041 0.41763 0.53261 0.0
H700 H 0.74601 0.28328 0.55119 0.0
H701 H 0.74758 0.34657 0.54007 0.0
H702 H 0.7878 0.39047 0.62296 0.0
H703 H 0.78414 0.32615 0.63451 0.0
C704 C 0.74761 0.4623 0.58656 0.0
C705 C 0.75808 0.47959 0.56006 0.0
C706 C 0.75164 0.42863 0.59346 0.0
C707 C 0.76649 0.41149 0.57408 0.0
C708 C 0.77825 0.42959 0.54791 0.0
C709 C 0.774 0.46307 0.54096 0.0
C710 C 0.75509 0.30633 0.56709 0.0
C711 C 0.7646 0.29933 0.59381 0.0
C712 C 0.75651 0.34294 0.56061 0.0
C713 C 0.76773 0.3737 0.58063 0.0
C714 C 0.77849 0.36725 0.60714 0.0
C715 C 0.77692 0.3305 0.61366 0.0
H716 H 0.27373 0.72012 0.77044 0.0
H717 H 0.31883 0.75565 0.68732 0.0
H718 H 0.33449 0.71745 0.7824 0.0
H719 H 0.38053 0.75524 0.69973 0.0
H720 H 0.46023 0.70046 0.72062 0.0
H721 H 0.4013 0.70667 0.7094 0.0
H722 H 0.40576 0.75676 0.79044 0.0
H723 H 0.46336 0.74837 0.80225 0.0
C724 C 0.29666 0.72767 0.75475 0.0
C725 C 0.29097 0.73773 0.72783 0.0
C726 C 0.33184 0.72663 0.76172 0.0
C727 C 0.36241 0.73589 0.742 0.0
C728 C 0.35733 0.74723 0.71533 0.0
C729 C 0.32206 0.74805 0.70831 0.0
C730 C 0.44847 0.71235 0.73622 0.0
C731 C 0.46669 0.72371 0.76242 0.0
C732 C 0.41493 0.71651 0.72961 0.0
C733 C 0.39877 0.7324 0.74895 0.0
C734 C 0.4171 0.74402 0.77511 0.0
C735 C 0.45054 0.73964 0.78178 0.0
H736 H 0.71047 0.493 0.93693 0.0
H737 H 0.77633 0.43653 0.90401 0.0
H738 H 0.64627 0.42988 0.92842 0.0
H739 H 0.71272 0.37429 0.89512 0.0
H740 H 0.59798 0.25615 0.91367 0.0
H741 H 0.65872 0.32053 0.92395 0.0
H742 H 0.60354 0.38574 0.88838 0.0
H743 H 0.54194 0.32087 0.87853 0.0
C744 C 0.71122 0.46722 0.92783 0.0
C745 C 0.74849 0.46983 0.9211 0.0
C746 C 0.67453 0.43125 0.92278 0.0
C747 C 0.6745 0.39708 0.91126 0.0
C748 C 0.71175 0.39992 0.90432 0.0
C749 C 0.74824 0.43583 0.90912 0.0
C750 C 0.59837 0.28411 0.90843 0.0
C751 C 0.56503 0.28331 0.89525 0.0
C752 C 0.63343 0.32105 0.91405 0.0
C753 C 0.63605 0.35818 0.90675 0.0
C754 C 0.60234 0.35759 0.89431 0.0
C755 C 0.56725 0.32049 0.88848 0.0
H756 H 0.3035 0.30494 0.23958 0.0
H757 H 0.36327 0.25424 0.19136 0.0
H758 H 0.27248 0.31315 0.19778 0.0
H759 H 0.33499 0.26492 0.14927 0.0
H760 H 0.26924 0.27426 0.07604 0.0
H761 H 0.28169 0.25007 0.11971 0.0
H762 H 0.29265 0.35685 0.16085 0.0
H763 H 0.27774 0.37906 0.11779 0.0
C764 C 0.30973 0.29542 0.21993 0.0
C765 C 0.33562 0.27905 0.21847 0.0
C766 C 0.29235 0.30042 0.19593 0.0
C767 C 0.30158 0.29029 0.16991 0.0
C768 C 0.32649 0.27251 0.1688 0.0
C769 C 0.343 0.26661 0.19288 0.0
C770 C 0.27356 0.29189 0.09467 0.0
C771 C 0.27227 0.32824 0.09373 0.0
C772 C 0.28103 0.27834 0.11964 0.0
C773 C 0.28842 0.3015 0.144 0.0
C774 C 0.28619 0.33751 0.14289 0.0
C775 C 0.27788 0.35049 0.11812 0.0
H776 H 0.1077 0.29993 0.37358 0.0
H777 H 0.04549 0.36722 0.39068 0.0
H778 H 0.06908 0.27455 0.33064 0.0
H779 H 1.00641 0.34082 0.34862 0.0
H780 H 0.91685 0.25934 0.28583 0.0
H781 H 0.95347 0.27303 0.32919 0.0
H782 H 0.0645 0.30734 0.28475 0.0
H783 H 0.0275 0.29273 0.24093 0.0
C784 C 0.08575 0.30916 0.36833 0.0
C785 C 0.07956 0.33543 0.38577 0.0
C786 C 0.06365 0.29454 0.34381 0.0
C787 C 0.03463 0.30552 0.33648 0.0
C788 C 0.02806 0.33124 0.35404 0.0
C789 C 0.05037 0.34618 0.37828 0.0
C790 C 0.94883 0.26868 0.2852 0.0
C791 C 0.96929 0.27486 0.25991 0.0
C792 C 0.96985 0.27693 0.31007 0.0
C793 C 1.0118 0.29152 0.31027 0.0
C794 C 0.03207 0.29591 0.28512 0.0
C795 C 1.01101 0.28786 0.26011 0.0
H796 H 0.6587 0.99798 0.42566 0.0
H797 H 0.74872 0.96015 0.43172 0.0
H798 H 0.68183 0.03416 0.46908 0.0
H799 H 0.7707 0.99514 0.47627 0.0
H800 H 0.81964 0.09713 0.54441 0.0
H801 H 0.80334 0.06339 0.49924 0.0
H802 H 0.67549 1.01192 0.51661 0.0
H803 H 0.69151 0.0467 0.56072 0.0
C804 C 0.68391 0.99789 0.436 0.0
C805 C 0.70191 0.97618 0.42509 0.0
C806 C 0.69672 0.01812 0.46119 0.0
C807 C 0.72761 1.01692 0.47633 0.0
C808 C 0.7468 0.99659 0.46505 0.0
C809 C 0.73401 0.97633 0.43968 0.0
C810 C 0.78809 0.07852 0.53854 0.0
C811 C 0.75692 0.07461 0.55624 0.0
C812 C 0.77878 0.05901 0.51279 0.0
C813 C 0.73816 0.03546 0.50425 0.0
C814 C 0.70712 0.03048 0.52237 0.0
C815 C 0.71635 0.04991 0.54793 0.0
H816 H 0.6963 0.67437 0.59078 0.0
H817 H 0.82632 0.7381 0.60424 0.0
H818 H 0.68709 0.70084 0.63416 0.0
H819 H 0.81602 0.76212 0.64895 0.0
H820 H 0.73287 0.7139 0.73871 0.0
H821 H 0.75855 0.70502 0.69419 0.0
H822 H 0.72459 0.7865 0.656 0.0
H823 H 0.69962 0.79606 0.70042 0.0
C824 C 0.7231 0.69466 0.60253 0.0
C825 C 0.76221 0.70429 0.59362 0.0
C826 C 0.71761 0.70943 0.62757 0.0
C827 C 0.75087 0.7334 0.6446 0.0
C828 C 0.79001 0.74358 0.63596 0.0
C829 C 0.79572 0.72956 0.61049 0.0
C830 C 0.73188 0.73066 0.72093 0.0
C831 C 0.71425 0.75558 0.72289 0.0
C832 C 0.74675 0.72581 0.69563 0.0
C833 C 0.74356 0.74531 0.67198 0.0
C834 C 0.72764 0.77158 0.67416 0.0
C835 C 0.71347 0.77703 0.6995 0.0
H836 H 1.02496 0.74789 0.73894 0.0
H837 H 0.12825 0.7652 0.78668 0.0
H838 H 0.98583 0.73599 0.78142 0.0
H839 H 0.08916 0.75191 0.82887 0.0
H840 H 1.01806 0.74565 0.90389 0.0
H841 H 0.05707 0.77279 0.8614 0.0
H842 H 0.95473 0.6833 0.81405 0.0
H843 H 0.91571 0.65759 0.85626 0.0
C844 C 0.03929 0.74941 0.75856 0.0
C845 C 0.07959 0.75759 0.75957 0.0
C846 C 1.01692 0.7424 0.78288 0.0
C847 C 0.03421 0.74275 0.80865 0.0
C848 C 0.07498 0.75216 0.80956 0.0
C849 C 0.09743 0.75967 0.78533 0.0
C850 C 1.00393 0.73231 0.88429 0.0
C851 C 0.96393 0.69967 0.88331 0.0
C852 C 0.02624 0.74765 0.85996 0.0
C853 C 1.00917 0.73015 0.83422 0.0
C854 C 0.9687 0.69816 0.83334 0.0
C855 C 0.94631 0.68325 0.85758 0.0
H856 H 0.22855 0.93643 0.0423 0.0
H857 H 0.35694 0.99516 0.06043 0.0
H858 H 0.24414 0.97012 -0.00275 0.0
H859 H 0.37208 0.02978 0.01641 0.0
H860 H 0.39028 0.04057 0.9253 0.0
H861 H 0.36798 1.00584 0.96914 0.0
H862 H 0.27397 0.03826 0.97376 0.0
H863 H 0.29532 0.07192 0.92881 0.0
C864 C 0.25997 0.9569 0.03688 0.0
C865 C 0.29145 0.963 0.05501 0.0
C866 C 0.26884 0.97637 0.0112 0.0
C867 C 0.30934 1.00209 0.00317 0.0
C868 C 0.34059 1.00952 0.0218 0.0
C869 C 0.3318 0.99013 0.0473 0.0
C870 C 0.36415 0.0395 0.93517 0.0
C871 C 0.34447 0.05893 0.9234 0.0
C872 C 0.35181 0.02013 0.9606 0.0
C873 C 0.31968 0.01993 0.97511 0.0
C874 C 0.29887 0.03798 0.96302 0.0
C875 C 0.31125 0.05744 0.93741 0.0
H876 H 0.40437 0.57254 0.99276 0.0
H877 H 0.32827 0.52161 0.92096 0.0
H878 H 0.45185 0.63159 0.96601 0.0
H879 H 0.37673 0.58066 0.89368 0.0
H880 H 0.47361 0.69999 0.85318 0.0
H881 H 0.41735 0.65827 0.88504 0.0
H882 H 0.4967 0.62808 0.93039 0.0
H883 H 0.55178 0.66882 0.8987 0.0
C884 C 0.39745 0.57447 0.97131 0.0
C885 C 0.36315 0.54235 0.95872 0.0
C886 C 0.42462 0.60826 0.95601 0.0
C887 C 0.41846 0.61036 0.92764 0.0
C888 C 0.38221 0.57992 0.91555 0.0
C889 C 0.35455 0.54611 0.93107 0.0
C890 C 0.479 0.68534 0.87055 0.0
C891 C 0.51686 0.68773 0.87387 0.0
C892 C 0.44687 0.66123 0.88853 0.0
C893 C 0.45265 0.64005 0.91028 0.0
C894 C 0.49134 0.64449 0.91417 0.0
C895 C 0.52292 0.66774 0.89604 0.0
H896 H 0.84358 0.53185 0.06123 0.0
H897 H 0.80132 0.44089 -0.00298 0.0
H898 H 0.83448 0.48075 0.09511 0.0
H899 H 0.7886 0.38849 0.03099 0.0
H900 H 0.81721 0.38676 0.15485 0.0
H901 H 0.80049 0.42539 0.12254 0.0
H902 H 0.82605 0.36699 0.05449 0.0
H903 H 0.83921 0.32625 0.0871 0.0
C904 C 0.83054 0.50038 0.05467 0.0
C905 C 0.8232 0.49011 0.02668 0.0
C906 C 0.82515 0.47081 0.07409 0.0
C907 C 0.81136 0.4301 0.06595 0.0
C908 C 0.80057 0.41952 0.03809 0.0
C909 C 0.8072 0.44937 0.01861 0.0
C910 C 0.81797 0.38151 0.13291 0.0
C911 C 0.82947 0.35372 0.12333 0.0
C912 C 0.80893 0.40402 0.11431 0.0
C913 C 0.81271 0.40036 0.08565 0.0
C914 C 0.82212 0.37063 0.07623 0.0
C915 C 0.82989 0.34721 0.09491 0.0
H916 H 0.44985 0.79837 0.31873 0.0
H917 H 0.53252 0.83324 0.25 0.0
H918 H 0.39345 0.78066 0.28721 0.0
H919 H 0.47727 0.81882 0.21837 0.0
H920 H 0.32794 0.82925 0.23169 0.0
H921 H 0.37046 0.81714 0.26332 0.0
H922 H 0.41826 0.78059 0.19454 0.0
H923 H 0.37777 0.796 0.16301 0.0
C924 C 0.45562 0.8014 0.2967 0.0
C925 C 0.49522 0.817 0.28662 0.0
C926 C 0.42347 0.79186 0.27861 0.0
C927 C 0.43056 0.79917 0.25011 0.0
C928 C 0.47007 0.81219 0.24002 0.0
C929 C 0.502 0.82061 0.25812 0.0
C930 C 0.34671 0.81746 0.22359 0.0
C931 C 0.34985 0.81361 0.19509 0.0
C932 C 0.37118 0.81037 0.24169 0.0
C933 C 0.39869 0.79848 0.23161 0.0
C934 C 0.39862 0.79095 0.20312 0.0
C935 C 0.37501 0.79917 0.18503 0.0
H936 H 0.57745 0.41017 0.3331 0.0
H937 H 0.52559 0.30842 0.38934 0.0
H938 H 0.63236 0.449 0.36526 0.0
H939 H 0.58128 0.34763 0.42196 0.0
H940 H 0.63481 0.46194 0.48219 0.0
H941 H 0.59393 0.40762 0.44992 0.0
H942 H 0.69237 0.45847 0.391 0.0
H943 H 0.73352 0.51354 0.4236 0.0
C944 C 0.57826 0.39582 0.35223 0.0
C945 C 0.54691 0.35656 0.35898 0.0
C946 C 0.61009 0.41795 0.37054 0.0
C947 C 0.61117 0.40154 0.39625 0.0
C948 C 0.5811 0.36118 0.40234 0.0
C949 C 0.54934 0.3387 0.38371 0.0
C950 C 0.64811 0.4611 0.46256 0.0
C951 C 0.68706 0.49235 0.45517 0.0
C952 C 0.62478 0.42963 0.44416 0.0
C953 C 0.63971 0.42885 0.41778 0.0
C954 C 0.6799 0.45849 0.41112 0.0
C955 C 0.70352 0.4899 0.42976 0.0
H956 H 0.25052 0.57915 0.50392 0.0
H957 H 0.19496 0.49201 0.5695 0.0
H958 H 0.26423 0.63467 0.53584 0.0
H959 H 0.20604 0.54655 0.60122 0.0
H960 H 0.21216 0.70387 0.58542 0.0
H961 H 0.22568 0.65995 0.55559 0.0
H962 H 0.24407 0.60376 0.62767 0.0
H963 H 0.22763 0.64589 0.65711 0.0
C964 C 0.24232 0.57218 0.52546 0.0
C965 C 0.22228 0.53166 0.53452 0.0
C966 C 0.24953 0.60384 0.54369 0.0
C967 C 0.23571 0.59539 0.57117 0.0
C968 C 0.21782 0.55473 0.58046 0.0
C969 C 0.21138 0.52324 0.56232 0.0
C970 C 0.22014 0.6828 0.59472 0.0
C971 C 0.21858 0.67786 0.62341 0.0
C972 C 0.22804 0.65756 0.57768 0.0
C973 C 0.23531 0.62747 0.58909 0.0
C974 C 0.23735 0.62549 0.61801 0.0
C975 C 0.22842 0.64993 0.63494 0.0
H976 H 0.72459 0.20401 0.73628 0.0
H977 H 0.68232 0.24683 0.66876 0.0
H978 H 0.68078 0.21451 0.76787 0.0
H979 H 0.64048 0.26051 0.70043 0.0
H980 H 0.52225 0.2058 0.75206 0.0
H981 H 0.57932 0.22125 0.72178 0.0
H982 H 0.65762 0.24994 0.79309 0.0
H983 H 0.59939 0.23126 0.82309 0.0
C984 C 0.70731 0.21762 0.72854 0.0
C985 C 0.70669 0.22471 0.70027 0.0
C986 C 0.68205 0.22374 0.74662 0.0
C987 C 0.65619 0.2378 0.7368 0.0
C988 C 0.65881 0.24849 0.70875 0.0
C989 C 0.68326 0.24131 0.69061 0.0
C990 C 0.55198 0.21652 0.76107 0.0
C991 C 0.5566 0.21719 0.78975 0.0
C992 C 0.58495 0.22554 0.74375 0.0
C993 C 0.6234 0.23626 0.75485 0.0
C994 C 0.62844 0.24056 0.78368 0.0
C995 C 0.59523 0.23042 0.80092 0.0
loop_
_geom_bond_atom_site_label_1
_geom_bond_atom_site_label_2
_geom_bond_distance
_geom_bond_site_symmetry_2
_ccdc_geom_bond_type
C0 C1 1.351 . S
C0 N3 1.368 . S
C0 H5 0.931 . S
C1 C0 1.351 . S
C1 N2 1.373 . S
C1 H29 0.930 . S
N2 C1 1.373 . S
N2 C4 1.340 . S
N3 C0 1.368 . S
N3 C4 1.321 . S
N3 Co6 2.135 1_554 S
C4 N2 1.340 . S
C4 N3 1.321 . S
C4 H28 0.930 . S
H5 C0 0.931 . S
Co6 N3 2.135 1_556 S
Co6 N9 2.121 . S
Co6 O14 2.055 . S
Co6 O17 2.039 . S
Co6 N20 2.140 1_556 S
C7 O8 1.227 . S
C7 O17 1.265 1_554 S
O8 C7 1.227 . S
N9 Co6 2.121 . S
N9 C11 1.375 . S
N9 C12 1.313 . S
C10 C11 1.338 . S
C10 N13 1.377 . S
C10 H30 0.930 . S
C11 N9 1.375 . S
C11 C10 1.338 . S
C11 H15 0.931 1_556 S
C12 N9 1.313 . S
C12 N13 1.344 . S
C12 H16 0.930 . S
N13 C10 1.377 . S
N13 C12 1.344 . S
O14 Co6 2.055 . S
O14 C18 1.253 . S
H15 C11 0.931 1_554 S
H16 C12 0.930 . S
O17 Co6 2.039 . S
O17 C7 1.265 1_556 S
C18 O14 1.253 . S
C18 O19 1.227 . S
O19 C18 1.227 . S
N20 Co6 2.140 1_554 S
N20 C23 1.346 . S
N20 C24 1.345 . S
C21 C22 1.387 . S
C21 C25 1.391 . S
C22 C21 1.387 . S
C22 C23 1.369 . S
C22 H31 0.929 . S
C23 N20 1.346 . S
C23 C22 1.369 . S
C23 H26 0.928 . S
C24 N20 1.345 . S
C24 C25 1.371 . S
C24 H27 0.931 . S
C25 C21 1.391 . S
C25 C24 1.371 . S
C25 H32 0.930 . S
H26 C23 0.928 . S
H27 C24 0.931 . S
H28 C4 0.930 . S
H29 C1 0.930 . S
H30 C10 0.930 . S
H31 C22 0.929 . S
H32 C25 0.930 . S
C33 C34 1.351 . S
C33 N36 1.368 . S
C33 H38 0.931 . S
C34 C33 1.351 . S
C34 N35 1.373 . S
C34 H62 0.930 . S
N35 C34 1.373 . S
N35 C37 1.340 . S
N36 C33 1.368 . S
N36 C37 1.321 . S
N36 Co39 2.135 . S
C37 N35 1.340 . S
C37 N36 1.321 . S
C37 H61 0.930 . S
H38 C33 0.931 . S
Co39 N36 2.135 . S
Co39 N42 2.121 . S
Co39 O47 2.055 . S
Co39 O50 2.039 . S
Co39 N53 2.140 . S
C40 O41 1.227 . S
C40 O50 1.265 . S
O41 C40 1.227 . S
N42 Co39 2.121 . S
N42 C44 1.375 . S
N42 C45 1.313 . S
C43 C44 1.338 . S
C43 N46 1.377 . S
C43 H63 0.930 . S
C44 N42 1.375 . S
C44 C43 1.338 . S
C44 H48 0.931 . S
C45 N42 1.313 . S
C45 N46 1.344 . S
C45 H49 0.930 . S
N46 C43 1.377 . S
N46 C45 1.344 . S
O47 Co39 2.055 . S
O47 C51 1.253 . S
H48 C44 0.931 . S
H49 C45 0.930 . S
O50 Co39 2.039 . S
O50 C40 1.265 . S
C51 O47 1.253 . S
C51 O52 1.227 . S
O52 C51 1.227 . S
N53 Co39 2.140 . S
N53 C56 1.346 . S
N53 C57 1.345 . S
C54 C55 1.387 . S
C54 C58 1.391 . S
C55 C54 1.387 . S
C55 C56 1.369 . S
C55 H64 0.929 . S
C56 N53 1.346 . S
C56 C55 1.369 . S
C56 H59 0.928 . S
C57 N53 1.345 . S
C57 C58 1.371 . S
C57 H60 0.931 . S
C58 C54 1.391 . S
C58 C57 1.371 . S
C58 H65 0.930 . S
H59 C56 0.928 . S
H60 C57 0.931 . S
H61 C37 0.930 . S
H62 C34 0.930 . S
H63 C43 0.930 . S
H64 C55 0.929 . S
H65 C58 0.930 . S
C66 C67 1.351 . S
C66 N69 1.368 . S
C66 H71 0.931 . S
C67 C66 1.351 . S
C67 N68 1.373 . S
C67 H95 0.930 . S
N68 C67 1.373 . S
N68 C70 1.340 . S
N69 C66 1.368 . S
N69 C70 1.321 . S
N69 Co72 2.135 . S
C70 N68 1.340 . S
C70 N69 1.321 . S
C70 H94 0.930 . S
H71 C66 0.931 . S
Co72 N69 2.135 . S
Co72 N75 2.121 . S
Co72 O80 2.055 . S
Co72 O83 2.039 . S
Co72 N86 2.140 . S
C73 O74 1.227 . S
C73 O83 1.265 . S
O74 C73 1.227 . S
N75 Co72 2.121 . S
N75 C77 1.375 . S
N75 C78 1.313 . S
C76 C77 1.338 . S
C76 N79 1.377 . S
C76 H96 0.930 . S
C77 N75 1.375 . S
C77 C76 1.338 . S
C77 H81 0.931 . S
C78 N75 1.313 . S
C78 N79 1.344 . S
C78 H82 0.930 . S
N79 C76 1.377 . S
N79 C78 1.344 . S
O80 Co72 2.055 . S
O80 C84 1.253 . S
H81 C77 0.931 . S
H82 C78 0.930 . S
O83 Co72 2.039 . S
O83 C73 1.265 . S
C84 O80 1.253 . S
C84 O85 1.227 . S
O85 C84 1.227 . S
N86 Co72 2.140 . S
N86 C89 1.346 . S
N86 C90 1.345 . S
C87 C88 1.387 . S
C87 C91 1.391 . S
C88 C87 1.387 . S
C88 C89 1.369 . S
C88 H97 0.929 . S
C89 N86 1.346 . S
C89 C88 1.369 . S
C89 H92 0.928 . S
C90 N86 1.345 . S
C90 C91 1.371 . S
C90 H93 0.931 . S
C91 C87 1.391 . S
C91 C90 1.371 . S
C91 H98 0.930 . S
H92 C89 0.928 . S
H93 C90 0.931 . S
H94 C70 0.930 . S
H95 C67 0.930 . S
H96 C76 0.930 . S
H97 C88 0.929 . S
H98 C91 0.930 . S
C99 C100 1.351 . S
C99 N102 1.368 . S
C99 H104 0.931 . S
C100 C99 1.351 . S
C100 N101 1.373 . S
C100 H128 0.930 . S
N101 C100 1.373 . S
N101 C103 1.340 . S
N102 C99 1.368 . S
N102 C103 1.321 . S
N102 Co105 2.135 . S
C103 N101 1.340 . S
C103 N102 1.321 . S
C103 H127 0.930 . S
H104 C99 0.931 . S
Co105 N102 2.135 . S
Co105 N108 2.121 . S
Co105 O113 2.055 . S
Co105 O116 2.039 . S
Co105 N119 2.140 . S
C106 O107 1.227 . S
C106 O116 1.265 . S
O107 C106 1.227 . S
N108 Co105 2.121 . S
N108 C110 1.375 . S
N108 C111 1.313 . S
C109 C110 1.338 . S
C109 N112 1.377 . S
C109 H129 0.930 . S
C110 N108 1.375 . S
C110 C109 1.338 . S
C110 H114 0.931 . S
C111 N108 1.313 . S
C111 N112 1.344 . S
C111 H115 0.930 . S
N112 C109 1.377 . S
N112 C111 1.344 . S
O113 Co105 2.055 . S
O113 C117 1.253 . S
H114 C110 0.931 . S
H115 C111 0.930 . S
O116 Co105 2.039 . S
O116 C106 1.265 . S
C117 O113 1.253 . S
C117 O118 1.227 . S
O118 C117 1.227 . S
N119 Co105 2.140 . S
N119 C122 1.346 . S
N119 C123 1.345 . S
C120 C121 1.387 . S
C120 C124 1.391 . S
C121 C120 1.387 . S
C121 C122 1.369 . S
C121 H130 0.929 . S
C122 N119 1.346 . S
C122 C121 1.369 . S
C122 H125 0.928 . S
C123 N119 1.345 . S
C123 C124 1.371 . S
C123 H126 0.931 . S
C124 C120 1.391 . S
C124 C123 1.371 . S
C124 H131 0.930 . S
H125 C122 0.928 . S
H126 C123 0.931 . S
H127 C103 0.930 . S
H128 C100 0.930 . S
H129 C109 0.930 . S
H130 C121 0.929 . S
H131 C124 0.930 . S
C132 C133 1.351 . S
C132 N135 1.368 . S
C132 H137 0.931 . S
C133 C132 1.351 . S
C133 N134 1.373 . S
C133 H161 0.930 . S
N134 C133 1.373 . S
N134 C136 1.340 . S
N135 C132 1.368 . S
N135 C136 1.321 . S
N135 Co138 2.135 . S
C136 N134 1.340 . S
C136 N135 1.321 . S
C136 H160 0.930 . S
H137 C132 0.931 . S
Co138 N135 2.135 . S
Co138 N141 2.121 . S
Co138 O146 2.055 . S
Co138 O149 2.039 . S
Co138 N152 2.140 . S
C139 O140 1.227 . S
C139 O149 1.265 . S
O140 C139 1.227 . S
N141 Co138 2.121 . S
N141 C143 1.375 . S
N141 C144 1.313 . S
C142 C143 1.338 . S
C142 N145 1.377 . S
C142 H162 0.930 . S
C143 N141 1.375 . S
C143 C142 1.338 . S
C143 H147 0.931 . S
C144 N141 1.313 . S
C144 N145 1.344 . S
C144 H148 0.930 . S
N145 C142 1.377 . S
N145 C144 1.344 . S
O146 Co138 2.055 . S
O146 C150 1.253 . S
H147 C143 0.931 . S
H148 C144 0.930 . S
O149 Co138 2.039 . S
O149 C139 1.265 . S
C150 O146 1.253 . S
C150 O151 1.227 . S
O151 C150 1.227 . S
N152 Co138 2.140 . S
N152 C155 1.346 . S
N152 C156 1.345 . S
C153 C154 1.387 . S
C153 C157 1.391 . S
C154 C153 1.387 . S
C154 C155 1.369 . S
C154 H163 0.929 . S
C155 N152 1.346 . S
C155 C154 1.369 . S
C155 H158 0.928 . S
C156 N152 1.345 . S
C156 C157 1.371 . S
C156 H159 0.931 . S
C157 C153 1.391 . S
C157 C156 1.371 . S
C157 H164 0.930 . S
H158 C155 0.928 . S
H159 C156 0.931 . S
H160 C136 0.930 . S
H161 C133 0.930 . S
H162 C142 0.930 . S
H163 C154 0.929 . S
H164 C157 0.930 . S
C165 C166 1.351 . S
C165 N168 1.368 . S
C165 H170 0.931 . S
C166 C165 1.351 . S
C166 N167 1.373 . S
C166 H194 0.930 . S
N167 C166 1.373 . S
N167 C169 1.340 . S
N168 C165 1.368 . S
N168 C169 1.321 . S
N168 Co171 2.135 . S
C169 N167 1.340 . S
C169 N168 1.321 . S
C169 H193 0.930 . S
H170 C165 0.931 . S
Co171 N168 2.135 . S
Co171 N174 2.121 . S
Co171 O179 2.055 . S
Co171 O182 2.039 . S
Co171 N185 2.140 . S
C172 O173 1.227 . S
C172 O182 1.265 . S
O173 C172 1.227 . S
N174 Co171 2.121 . S
N174 C176 1.375 . S
N174 C177 1.313 . S
C175 C176 1.338 . S
C175 N178 1.377 . S
C175 H195 0.930 . S
C176 N174 1.375 . S
C176 C175 1.338 . S
C176 H180 0.931 . S
C177 N174 1.313 . S
C177 N178 1.344 . S
C177 H181 0.930 . S
N178 C175 1.377 . S
N178 C177 1.344 . S
O179 Co171 2.055 . S
O179 C183 1.253 . S
H180 C176 0.931 . S
H181 C177 0.930 . S
O182 Co171 2.039 . S
O182 C172 1.265 . S
C183 O179 1.253 . S
C183 O184 1.227 . S
O184 C183 1.227 . S
N185 Co171 2.140 . S
N185 C188 1.346 . S
N185 C189 1.345 . S
C186 C187 1.387 . S
C186 C190 1.391 . S
C187 C186 1.387 . S
C187 C188 1.369 . S
C187 H196 0.929 . S
C188 N185 1.346 . S
C188 C187 1.369 . S
C188 H191 0.928 . S
C189 N185 1.345 . S
C189 C190 1.371 . S
C189 H192 0.931 . S
C190 C186 1.391 . S
C190 C189 1.371 . S
C190 H197 0.930 . S
H191 C188 0.928 . S
H192 C189 0.931 . S
H193 C169 0.930 . S
H194 C166 0.930 . S
H195 C175 0.930 . S
H196 C187 0.929 . S
H197 C190 0.930 . S
C198 C199 1.351 . S
C198 N201 1.368 . S
C198 H203 0.931 . S
C199 C198 1.351 . S
C199 N200 1.373 . S
C199 H227 0.930 . S
N200 C199 1.373 . S
N200 C202 1.340 . S
N201 C198 1.368 . S
N201 C202 1.321 . S
N201 Co204 2.135 . S
C202 N200 1.340 . S
C202 N201 1.321 . S
C202 H226 0.930 . S
H203 C198 0.931 . S
Co204 N201 2.135 . S
Co204 N207 2.121 . S
Co204 O212 2.055 . S
Co204 O215 2.039 . S
Co204 N218 2.140 . S
C205 O206 1.227 . S
C205 O215 1.265 . S
O206 C205 1.227 . S
N207 Co204 2.121 . S
N207 C209 1.375 . S
N207 C210 1.313 . S
C208 C209 1.338 . S
C208 N211 1.377 . S
C208 H228 0.930 . S
C209 N207 1.375 . S
C209 C208 1.338 . S
C209 H213 0.931 . S
C210 N207 1.313 . S
C210 N211 1.344 . S
C210 H214 0.930 . S
N211 C208 1.377 . S
N211 C210 1.344 . S
O212 Co204 2.055 . S
O212 C216 1.253 . S
H213 C209 0.931 . S
H214 C210 0.930 . S
O215 Co204 2.039 . S
O215 C205 1.265 . S
C216 O212 1.253 . S
C216 O217 1.227 . S
O217 C216 1.227 . S
N218 Co204 2.140 . S
N218 C221 1.346 . S
N218 C222 1.345 . S
C219 C220 1.387 . S
C219 C223 1.391 . S
C220 C219 1.387 . S
C220 C221 1.369 . S
C220 H229 0.929 . S
C221 N218 1.346 . S
C221 C220 1.369 . S
C221 H224 0.928 . S
C222 N218 1.345 . S
C222 C223 1.371 . S
C222 H225 0.931 . S
C223 C219 1.391 . S
C223 C222 1.371 . S
C223 H230 0.930 . S
H224 C221 0.928 . S
H225 C222 0.931 . S
H226 C202 0.930 . S
H227 C199 0.930 . S
H228 C208 0.930 . S
H229 C220 0.929 . S
H230 C223 0.930 . S
C231 C232 1.351 . S
C231 N234 1.368 . S
C231 H236 0.931 . S
C232 C231 1.351 . S
C232 N233 1.373 . S
C232 H260 0.930 . S
N233 C232 1.373 . S
N233 C235 1.340 . S
N234 C231 1.368 . S
N234 C235 1.321 . S
N234 Co237 2.135 . S
C235 N233 1.340 . S
C235 N234 1.321 . S
C235 H259 0.930 . S
H236 C231 0.931 . S
Co237 N234 2.135 . S
Co237 N240 2.121 1_556 S
Co237 O245 2.055 1_556 S
Co237 O248 2.035 1_556 S
Co237 N251 2.140 . S
C238 O239 1.227 . S
C238 O248 1.233 1_556 S
O239 C238 1.227 . S
N240 Co237 2.121 1_554 S
N240 C242 1.375 . S
N240 C243 1.313 . S
C241 C242 1.338 . S
C241 N244 1.377 . S
C241 H261 0.930 . S
C242 N240 1.375 . S
C242 C241 1.338 . S
C242 H246 0.931 1_554 S
C243 N240 1.313 . S
C243 N244 1.344 . S
C243 H247 0.930 . S
N244 C241 1.377 . S
N244 C243 1.344 . S
O245 Co237 2.055 1_554 S
O245 C249 1.253 . S
H246 C242 0.931 1_556 S
H247 C243 0.930 . S
O248 Co237 2.035 1_554 S
O248 C238 1.233 1_554 S
C249 O245 1.253 . S
C249 O250 1.227 . S
O250 C249 1.227 . S
N251 Co237 2.140 . S
N251 C254 1.346 . S
N251 C255 1.345 . S
C252 C253 1.387 . S
C252 C256 1.391 . S
C253 C252 1.387 . S
C253 C254 1.369 . S
C253 H262 0.929 . S
C254 N251 1.346 . S
C254 C253 1.369 . S
C254 H257 0.928 . S
C255 N251 1.345 . S
C255 C256 1.371 . S
C255 H258 0.931 . S
C256 C252 1.391 . S
C256 C255 1.371 . S
C256 H263 0.930 . S
H257 C254 0.928 . S
H258 C255 0.931 . S
H259 C235 0.930 . S
H260 C232 0.930 . S
H261 C241 0.930 . S
H262 C253 0.929 . S
H263 C256 0.930 . S
C264 C265 1.351 . S
C264 N267 1.368 . S
C264 H269 0.931 . S
C265 C264 1.351 . S
C265 N266 1.373 . S
C265 H293 0.930 . S
N266 C265 1.373 . S
N266 C268 1.340 . S
N267 C264 1.368 . S
N267 C268 1.321 . S
N267 Co270 2.135 . S
C268 N266 1.340 . S
C268 N267 1.321 . S
C268 H292 0.930 . S
H269 C264 0.931 . S
Co270 N267 2.135 . S
Co270 N273 2.121 . S
Co270 O278 2.055 . S
Co270 O281 2.039 . S
Co270 N284 2.140 . S
C271 O272 1.227 . S
C271 O281 1.265 . S
O272 C271 1.227 . S
N273 Co270 2.121 . S
N273 C275 1.375 . S
N273 C276 1.313 . S
C274 C275 1.338 . S
C274 N277 1.377 . S
C274 H294 0.930 . S
C275 N273 1.375 . S
C275 C274 1.338 . S
C275 H279 0.931 . S
C276 N273 1.313 . S
C276 N277 1.344 . S
C276 H280 0.930 . S
N277 C274 1.377 . S
N277 C276 1.344 . S
O278 Co270 2.055 . S
O278 C282 1.253 . S
H279 C275 0.931 . S
H280 C276 0.930 . S
O281 Co270 2.039 . S
O281 C271 1.265 . S
C282 O278 1.253 . S
C282 O283 1.227 . S
O283 C282 1.227 . S
N284 Co270 2.140 . S
N284 C287 1.346 . S
N284 C288 1.345 . S
C285 C286 1.387 . S
C285 C289 1.391 . S
C286 C285 1.387 . S
C286 C287 1.369 . S
C286 H295 0.929 . S
C287 N284 1.346 . S
C287 C286 1.369 . S
C287 H290 0.928 . S
C288 N284 1.345 . S
C288 C289 1.371 . S
C288 H291 0.931 . S
C289 C285 1.391 . S
C289 C288 1.371 . S
C289 H296 0.930 . S
H290 C287 0.928 . S
H291 C288 0.931 . S
H292 C268 0.930 . S
H293 C265 0.930 . S
H294 C274 0.930 . S
H295 C286 0.929 . S
H296 C289 0.930 . S
C297 C298 1.351 . S
C297 N300 1.368 . S
C297 H302 0.931 . S
C298 C297 1.351 . S
C298 N299 1.373 . S
C298 H326 0.930 . S
N299 C298 1.373 . S
N299 C301 1.340 . S
N300 C297 1.368 . S
N300 C301 1.321 . S
N300 Co303 2.135 . S
C301 N299 1.340 . S
C301 N300 1.321 . S
C301 H325 0.930 . S
H302 C297 0.931 . S
Co303 N300 2.135 . S
Co303 N306 2.121 . S
Co303 O311 2.055 . S
Co303 O314 2.039 . S
Co303 N317 2.140 . S
C304 O305 1.227 . S
C304 O314 1.265 . S
O305 C304 1.227 . S
N306 Co303 2.121 . S
N306 C308 1.375 . S
N306 C309 1.313 . S
C307 C308 1.338 . S
C307 N310 1.377 . S
C307 H327 0.930 . S
C308 N306 1.375 . S
C308 C307 1.338 . S
C308 H312 0.931 . S
C309 N306 1.313 . S
C309 N310 1.344 . S
C309 H313 0.930 . S
N310 C307 1.377 . S
N310 C309 1.344 . S
O311 Co303 2.055 . S
O311 C315 1.253 . S
H312 C308 0.931 . S
H313 C309 0.930 . S
O314 Co303 2.039 . S
O314 C304 1.265 . S
C315 O311 1.253 . S
C315 O316 1.227 . S
O316 C315 1.227 . S
N317 Co303 2.140 . S
N317 C320 1.346 . S
N317 C321 1.345 . S
C318 C319 1.387 . S
C318 C322 1.391 . S
C319 C318 1.387 . S
C319 C320 1.369 . S
C319 H328 0.929 . S
C320 N317 1.346 . S
C320 C319 1.369 . S
C320 H323 0.928 . S
C321 N317 1.345 . S
C321 C322 1.371 . S
C321 H324 0.931 . S
C322 C318 1.391 . S
C322 C321 1.371 . S
C322 H329 0.930 . S
H323 C320 0.928 . S
H324 C321 0.931 . S
H325 C301 0.930 . S
H326 C298 0.930 . S
H327 C307 0.930 . S
H328 C319 0.929 . S
H329 C322 0.930 . S
C330 C331 1.351 . S
C330 N333 1.368 . S
C330 H335 0.931 . S
C331 C330 1.351 . S
C331 N332 1.373 . S
C331 H359 0.930 . S
N332 C331 1.373 . S
N332 C334 1.340 . S
N333 C330 1.368 . S
N333 C334 1.321 . S
N333 Co336 2.135 . S
C334 N332 1.340 . S
C334 N333 1.321 . S
C334 H358 0.930 . S
H335 C330 0.931 . S
Co336 N333 2.135 . S
Co336 N339 2.121 . S
Co336 O344 2.055 . S
Co336 O347 2.039 . S
Co336 N350 2.140 . S
C337 O338 1.227 . S
C337 O347 1.265 . S
O338 C337 1.227 . S
N339 Co336 2.121 . S
N339 C341 1.375 . S
N339 C342 1.313 . S
C340 C341 1.338 . S
C340 N343 1.377 . S
C340 H360 0.930 . S
C341 N339 1.375 . S
C341 C340 1.338 . S
C341 H345 0.931 . S
C342 N339 1.313 . S
C342 N343 1.344 . S
C342 H346 0.930 . S
N343 C340 1.377 . S
N343 C342 1.344 . S
O344 Co336 2.055 . S
O344 C348 1.253 . S
H345 C341 0.931 . S
H346 C342 0.930 . S
O347 Co336 2.039 . S
O347 C337 1.265 . S
C348 O344 1.253 . S
C348 O349 1.227 . S
O349 C348 1.227 . S
N350 Co336 2.140 . S
N350 C353 1.346 . S
N350 C354 1.345 . S
C351 C352 1.387 . S
C351 C355 1.391 . S
C352 C351 1.387 . S
C352 C353 1.369 . S
C352 H361 0.929 . S
C353 N350 1.346 . S
C353 C352 1.369 . S
C353 H356 0.928 . S
C354 N350 1.345 . S
C354 C355 1.371 . S
C354 H357 0.931 . S
C355 C351 1.391 . S
C355 C354 1.371 . S
C355 H362 0.930 . S
H356 C353 0.928 . S
H357 C354 0.931 . S
H358 C334 0.930 . S
H359 C331 0.930 . S
H360 C340 0.930 . S
H361 C352 0.929 . S
H362 C355 0.930 . S
C363 C364 1.351 . S
C363 N366 1.368 . S
C363 H368 0.931 . S
C364 C363 1.351 . S
C364 N365 1.373 . S
C364 H392 0.930 . S
N365 C364 1.373 . S
N365 C367 1.340 . S
N366 C363 1.368 . S
N366 C367 1.321 . S
N366 Co369 2.135 . S
C367 N365 1.340 . S
C367 N366 1.321 . S
C367 H391 0.930 . S
H368 C363 0.931 . S
Co369 N366 2.135 . S
Co369 N372 2.121 . S
Co369 O377 2.055 . S
Co369 O380 2.039 . S
Co369 N383 2.140 . S
C370 O371 1.227 . S
C370 O380 1.265 . S
O371 C370 1.227 . S
N372 Co369 2.121 . S
N372 C374 1.375 . S
N372 C375 1.313 . S
C373 C374 1.338 . S
C373 N376 1.377 . S
C373 H393 0.930 . S
C374 N372 1.375 . S
C374 C373 1.338 . S
C374 H378 0.931 . S
C375 N372 1.313 . S
C375 N376 1.344 . S
C375 H379 0.930 . S
N376 C373 1.377 . S
N376 C375 1.344 . S
O377 Co369 2.055 . S
O377 C381 1.253 . S
H378 C374 0.931 . S
H379 C375 0.930 . S
O380 Co369 2.039 . S
O380 C370 1.265 . S
C381 O377 1.253 . S
C381 O382 1.227 . S
O382 C381 1.227 . S
N383 Co369 2.140 . S
N383 C386 1.346 . S
N383 C387 1.345 . S
C384 C385 1.387 . S
C384 C388 1.391 . S
C385 C384 1.387 . S
C385 C386 1.369 . S
C385 H394 0.929 . S
C386 N383 1.346 . S
C386 C385 1.369 . S
C386 H389 0.928 . S
C387 N383 1.345 . S
C387 C388 1.371 . S
C387 H390 0.931 . S
C388 C384 1.391 . S
C388 C387 1.371 . S
C388 H395 0.930 . S
H389 C386 0.928 . S
H390 C387 0.931 . S
H391 C367 0.930 . S
H392 C364 0.930 . S
H393 C373 0.930 . S
H394 C385 0.929 . S
H395 C388 0.930 . S
H396 C404 0.950 . S
H397 C409 0.950 . S
H398 C406 0.950 . S
H399 C408 0.950 . S
H400 C410 0.950 . S
H401 C412 0.950 . S
H402 C414 0.950 . S
H403 C415 0.950 . S
C404 H396 0.950 . S
C404 C405 1.386 . S
C404 C406 1.391 . S
C405 C404 1.386 . S
C405 C409 1.393 . S
C406 H398 0.950 . S
C406 C404 1.391 . S
C406 C407 1.400 . S
C407 C406 1.400 . S
C407 C408 1.398 . S
C407 C413 1.491 . S
C408 H399 0.950 . S
C408 C407 1.398 . S
C408 C409 1.391 . S
C409 H397 0.950 . S
C409 C405 1.393 . S
C409 C408 1.391 . S
C410 H400 0.950 . S
C410 C411 1.386 . S
C410 C412 1.391 . S
C411 C410 1.386 . S
C411 C415 1.393 . S
C412 H401 0.950 . S
C412 C410 1.391 . S
C412 C413 1.400 . S
C413 C407 1.491 . S
C413 C412 1.400 . S
C413 C414 1.398 . S
C414 H402 0.950 . S
C414 C413 1.398 . S
C414 C415 1.391 . S
C415 H403 0.950 . S
C415 C411 1.393 . S
C415 C414 1.391 . S
H416 C424 0.956 . S
H417 C429 0.950 . S
H418 C426 0.950 . S
H419 C428 0.950 . S
H420 C430 0.950 . S
H421 C432 0.950 . S
H422 C434 0.950 . S
H423 C435 0.950 . S
C424 H416 0.956 . S
C424 C425 1.386 . S
C424 C426 1.391 . S
C425 C424 1.386 . S
C425 C429 1.393 . S
C426 H418 0.950 . S
C426 C424 1.391 . S
C426 C427 1.400 . S
C427 C426 1.400 . S
C427 C428 1.398 . S
C427 C433 1.491 . S
C428 H419 0.950 . S
C428 C427 1.398 . S
C428 C429 1.391 . S
C429 H417 0.950 . S
C429 C425 1.393 . S
C429 C428 1.391 . S
C430 H420 0.950 . S
C430 C431 1.386 1_455 S
C430 C432 1.391 . S
C431 C430 1.386 1_655 S
C431 C435 1.393 . S
C432 H421 0.950 . S
C432 C430 1.391 . S
C432 C433 1.400 . S
C433 C427 1.491 . S
C433 C432 1.400 . S
C433 C434 1.398 . S
C434 H422 0.950 . S
C434 C433 1.398 . S
C434 C435 1.391 1_455 S
C435 H423 0.950 . S
C435 C431 1.393 . S
C435 C434 1.391 1_655 S
H436 C444 0.950 . S
H437 C449 0.950 . S
H438 C446 0.950 . S
H439 C448 0.950 . S
H440 C450 0.950 . S
H441 C452 0.950 . S
H442 C454 0.950 . S
H443 C455 0.950 . S
C444 H436 0.950 . S
C444 C445 1.386 . S
C444 C446 1.391 . S
C445 C444 1.386 . S
C445 C449 1.393 . S
C446 H438 0.950 . S
C446 C444 1.391 . S
C446 C447 1.400 . S
C447 C446 1.400 . S
C447 C448 1.398 . S
C447 C453 1.491 . S
C448 H439 0.950 . S
C448 C447 1.398 . S
C448 C449 1.391 . S
C449 H437 0.950 . S
C449 C445 1.393 . S
C449 C448 1.391 . S
C450 H440 0.950 . S
C450 C451 1.386 . S
C450 C452 1.391 1_565 S
C451 C450 1.386 . S
C451 C455 1.393 . S
C452 H441 0.950 . S
C452 C450 1.391 1_545 S
C452 C453 1.400 . S
C453 C447 1.491 . S
C453 C452 1.400 . S
C453 C454 1.398 . S
C454 H442 0.950 . S
C454 C453 1.398 . S
C454 C455 1.391 1_545 S
C455 H443 0.950 . S
C455 C451 1.393 . S
C455 C454 1.391 1_565 S
H456 C464 0.950 . S
H457 C469 0.950 . S
H458 C466 0.950 . S
H459 C468 0.950 . S
H460 C470 0.950 . S
H461 C472 0.950 . S
H462 C474 0.950 . S
H463 C475 0.950 . S
C464 H456 0.950 . S
C464 C465 1.386 . S
C464 C466 1.391 . S
C465 C464 1.386 . S
C465 C469 1.393 . S
C466 H458 0.950 . S
C466 C464 1.391 . S
C466 C467 1.400 . S
C467 C466 1.400 . S
C467 C468 1.398 . S
C467 C473 1.491 . S
C468 H459 0.950 . S
C468 C467 1.398 . S
C468 C469 1.391 . S
C469 H457 0.950 . S
C469 C465 1.393 . S
C469 C468 1.391 . S
C470 H460 0.950 . S
C470 C471 1.386 . S
C470 C472 1.391 . S
C471 C470 1.386 . S
C471 C475 1.393 . S
C472 H461 0.950 . S
C472 C470 1.391 . S
C472 C473 1.400 . S
C473 C467 1.491 . S
C473 C472 1.400 . S
C473 C474 1.398 . S
C474 H462 0.950 . S
C474 C473 1.398 . S
C474 C475 1.391 . S
C475 H463 0.950 . S
C475 C471 1.393 . S
C475 C474 1.391 . S
H476 C484 0.950 . S
H477 C489 0.950 . S
H478 C486 0.950 . S
H479 C488 0.950 . S
H480 C490 0.950 . S
H481 C492 0.950 . S
H482 C494 0.950 . S
H483 C495 0.950 . S
C484 H476 0.950 . S
C484 C485 1.386 . S
C484 C486 1.391 1_455 S
C485 C484 1.386 . S
C485 C489 1.393 . S
C486 H478 0.950 . S
C486 C484 1.391 1_655 S
C486 C487 1.400 . S
C487 C486 1.400 . S
C487 C488 1.398 . S
C487 C493 1.491 . S
C488 H479 0.950 . S
C488 C487 1.398 . S
C488 C489 1.391 1_655 S
C489 H477 0.950 . S
C489 C485 1.393 . S
C489 C488 1.391 1_455 S
C490 H480 0.950 . S
C490 C491 1.386 . S
C490 C492 1.391 . S
C491 C490 1.386 . S
C491 C495 1.393 . S
C492 H481 0.950 . S
C492 C490 1.391 . S
C492 C493 1.400 . S
C493 C487 1.491 . S
C493 C492 1.400 . S
C493 C494 1.398 . S
C494 H482 0.950 . S
C494 C493 1.398 . S
C494 C495 1.391 . S
C495 H483 0.950 . S
C495 C491 1.393 . S
C495 C494 1.391 . S
H496 C504 0.950 . S
H497 C509 0.950 . S
H498 C506 0.950 . S
H499 C508 0.950 . S
H500 C510 0.950 . S
H501 C512 0.950 . S
H502 C514 0.950 . S
H503 C515 0.950 . S
C504 H496 0.950 . S
C504 C505 1.386 . S
C504 C506 1.391 . S
C505 C504 1.386 . S
C505 C509 1.393 . S
C506 H498 0.950 . S
C506 C504 1.391 . S
C506 C507 1.400 . S
C507 C506 1.400 . S
C507 C508 1.398 . S
C507 C513 1.491 . S
C508 H499 0.950 . S
C508 C507 1.398 . S
C508 C509 1.391 . S
C509 H497 0.950 . S
C509 C505 1.393 . S
C509 C508 1.391 . S
C510 H500 0.950 . S
C510 C511 1.386 . S
C510 C512 1.391 1_545 S
C511 C510 1.386 . S
C511 C515 1.393 . S
C512 H501 0.950 . S
C512 C510 1.391 1_565 S
C512 C513 1.400 . S
C513 C507 1.491 . S
C513 C512 1.400 . S
C513 C514 1.398 . S
C514 H502 0.950 . S
C514 C513 1.398 . S
C514 C515 1.391 1_565 S
C515 H503 0.950 . S
C515 C511 1.393 . S
C515 C514 1.391 1_545 S
H516 C524 0.950 . S
H517 C529 0.950 . S
H518 C526 0.950 . S
H519 C528 0.950 . S
H520 C530 0.950 . S
H521 C532 0.950 . S
H522 C534 0.950 . S
H523 C535 0.950 . S
C524 H516 0.950 . S
C524 C525 1.386 . S
C524 C526 1.391 . S
C525 C524 1.386 . S
C525 C529 1.393 . S
C526 H518 0.950 . S
C526 C524 1.391 . S
C526 C527 1.400 . S
C527 C526 1.400 . S
C527 C528 1.398 . S
C527 C533 1.491 . S
C528 H519 0.950 . S
C528 C527 1.398 . S
C528 C529 1.391 . S
C529 H517 0.950 . S
C529 C525 1.393 . S
C529 C528 1.391 . S
C530 H520 0.950 . S
C530 C531 1.386 . S
C530 C532 1.391 . S
C531 C530 1.386 . S
C531 C535 1.393 . S
C532 H521 0.950 . S
C532 C530 1.391 . S
C532 C533 1.400 . S
C533 C527 1.491 . S
C533 C532 1.400 . S
C533 C534 1.398 . S
C534 H522 0.950 . S
C534 C533 1.398 . S
C534 C535 1.391 . S
C535 H523 0.950 . S
C535 C531 1.393 . S
C535 C534 1.391 . S
H536 C544 0.950 . S
H537 C549 0.950 . S
H538 C546 0.950 . S
H539 C548 0.950 . S
H540 C550 0.950 . S
H541 C552 0.950 . S
H542 C554 0.950 . S
H543 C555 0.950 . S
C544 H536 0.950 . S
C544 C545 1.386 . S
C544 C546 1.391 . S
C545 C544 1.386 . S
C545 C549 1.393 . S
C546 H538 0.950 . S
C546 C544 1.391 . S
C546 C547 1.400 . S
C547 C546 1.400 . S
C547 C548 1.398 . S
C547 C553 1.491 . S
C548 H539 0.950 . S
C548 C547 1.398 . S
C548 C549 1.391 . S
C549 H537 0.950 . S
C549 C545 1.393 . S
C549 C548 1.391 . S
C550 H540 0.950 . S
C550 C551 1.386 . S
C550 C552 1.391 1_655 S
C551 C550 1.386 . S
C551 C555 1.393 . S
C552 H541 0.950 . S
C552 C550 1.391 1_455 S
C552 C553 1.400 . S
C553 C547 1.491 . S
C553 C552 1.400 . S
C553 C554 1.398 . S
C554 H542 0.950 . S
C554 C553 1.398 . S
C554 C555 1.391 1_455 S
C555 H543 0.950 . S
C555 C551 1.393 . S
C555 C554 1.391 1_655 S
H556 C564 0.950 . S
H557 C569 0.950 . S
H558 C566 0.950 . S
H559 C568 0.950 . S
H560 C570 0.950 . S
H561 C572 0.950 . S
H562 C574 0.950 . S
H563 C575 0.950 . S
C564 H556 0.950 . S
C564 C565 1.386 . S
C564 C566 1.391 . S
C565 C564 1.386 . S
C565 C569 1.393 . S
C566 H558 0.950 . S
C566 C564 1.391 . S
C566 C567 1.400 . S
C567 C566 1.400 . S
C567 C568 1.398 . S
C567 C573 1.491 . S
C568 H559 0.950 . S
C568 C567 1.398 . S
C568 C569 1.391 . S
C569 H557 0.950 . S
C569 C565 1.393 . S
C569 C568 1.391 . S
C570 H560 0.950 . S
C570 C571 1.386 . S
C570 C572 1.391 1_565 S
C571 C570 1.386 . S
C571 C575 1.393 1_565 S
C572 H561 0.950 . S
C572 C570 1.391 1_545 S
C572 C573 1.400 . S
C573 C567 1.491 . S
C573 C572 1.400 . S
C573 C574 1.398 . S
C574 H562 0.950 . S
C574 C573 1.398 . S
C574 C575 1.391 . S
C575 H563 0.950 . S
C575 C571 1.393 1_545 S
C575 C574 1.391 . S
H576 C584 0.950 . S
H577 C589 0.950 . S
H578 C586 0.950 . S
H579 C588 0.950 . S
H580 C590 0.950 . S
H581 C592 0.950 . S
H582 C594 0.950 . S
H583 C595 0.950 . S
C584 H576 0.950 . S
C584 C585 1.386 . S
C584 C586 1.391 . S
C585 C584 1.386 . S
C585 C589 1.393 . S
C586 H578 0.950 . S
C586 C584 1.391 . S
C586 C587 1.400 . S
C587 C586 1.400 . S
C587 C588 1.398 . S
C587 C593 1.491 . S
C588 H579 0.950 . S
C588 C587 1.398 . S
C588 C589 1.391 . S
C589 H577 0.950 . S
C589 C585 1.393 . S
C589 C588 1.391 . S
C590 H580 0.950 . S
C590 C591 1.386 . S
C590 C592 1.391 . S
C591 C590 1.386 . S
C591 C595 1.393 . S
C592 H581 0.950 . S
C592 C590 1.391 . S
C592 C593 1.400 . S
C593 C587 1.491 . S
C593 C592 1.400 . S
C593 C594 1.398 . S
C594 H582 0.950 . S
C594 C593 1.398 . S
C594 C595 1.391 . S
C595 H583 0.950 . S
C595 C591 1.393 . S
C595 C594 1.391 . S
H596 C604 0.950 . S
H597 C609 0.950 . S
H598 C606 0.950 . S
H599 C608 0.950 . S
H600 C610 0.950 . S
H601 C612 0.950 . S
H602 C614 0.950 . S
H603 C615 0.950 . S
C604 H596 0.950 . S
C604 C605 1.386 . S
C604 C606 1.391 . S
C605 C604 1.386 . S
C605 C609 1.393 . S
C606 H598 0.950 . S
C606 C604 1.391 . S
C606 C607 1.400 . S
C607 C606 1.400 . S
C607 C608 1.398 . S
C607 C613 1.491 . S
C608 H599 0.950 . S
C608 C607 1.398 . S
C608 C609 1.391 . S
C609 H597 0.950 . S
C609 C605 1.393 . S
C609 C608 1.391 . S
C610 H600 0.950 . S
C610 C611 1.386 . S
C610 C612 1.391 1_455 S
C611 C610 1.386 . S
C611 C615 1.393 . S
C612 H601 0.950 . S
C612 C610 1.391 1_655 S
C612 C613 1.400 . S
C613 C607 1.491 . S
C613 C612 1.400 . S
C613 C614 1.398 . S
C614 H602 0.950 . S
C614 C613 1.398 . S
C614 C615 1.391 1_655 S
C615 H603 0.950 . S
C615 C611 1.393 . S
C615 C614 1.391 1_455 S
H616 C624 0.950 . S
H617 C629 0.950 . S
H618 C626 0.950 . S
H619 C628 0.950 . S
H620 C630 0.950 . S
H621 C632 0.950 . S
H622 C634 0.950 . S
H623 C635 0.950 . S
C624 H616 0.950 . S
C624 C625 1.386 . S
C624 C626 1.391 . S
C625 C624 1.386 . S
C625 C629 1.393 . S
C626 H618 0.950 . S
C626 C624 1.391 . S
C626 C627 1.400 . S
C627 C626 1.400 . S
C627 C628 1.398 . S
C627 C633 1.491 . S
C628 H619 0.950 . S
C628 C627 1.398 . S
C628 C629 1.391 . S
C629 H617 0.950 . S
C629 C625 1.393 . S
C629 C628 1.391 . S
C630 H620 0.950 . S
C630 C631 1.386 . S
C630 C632 1.391 1_545 S
C631 C630 1.386 . S
C631 C635 1.393 1_545 S
C632 H621 0.950 . S
C632 C630 1.391 1_565 S
C632 C633 1.400 . S
C633 C627 1.491 . S
C633 C632 1.400 . S
C633 C634 1.398 . S
C634 H622 0.950 . S
C634 C633 1.398 . S
C634 C635 1.391 . S
C635 H623 0.950 . S
C635 C631 1.393 1_565 S
C635 C634 1.391 . S
H636 C644 0.950 . S
H637 C649 0.950 . S
H638 C646 0.950 . S
H639 C648 0.950 . S
H640 C650 0.950 . S
H641 C652 0.950 . S
H642 C654 0.950 . S
H643 C655 0.950 . S
C644 H636 0.950 . S
C644 C645 1.386 . S
C644 C646 1.391 . S
C645 C644 1.386 . S
C645 C649 1.393 . S
C646 H638 0.950 . S
C646 C644 1.391 . S
C646 C647 1.400 . S
C647 C646 1.400 . S
C647 C648 1.398 . S
C647 C653 1.491 . S
C648 H639 0.950 . S
C648 C647 1.398 . S
C648 C649 1.391 . S
C649 H637 0.950 . S
C649 C645 1.393 . S
C649 C648 1.391 . S
C650 H640 0.950 . S
C650 C651 1.386 . S
C650 C652 1.391 . S
C651 C650 1.386 . S
C651 C655 1.393 . S
C652 H641 0.950 . S
C652 C650 1.391 . S
C652 C653 1.400 . S
C653 C647 1.491 . S
C653 C652 1.400 . S
C653 C654 1.398 . S
C654 H642 0.950 . S
C654 C653 1.398 . S
C654 C655 1.391 . S
C655 H643 0.950 . S
C655 C651 1.393 . S
C655 C654 1.391 . S
H656 C664 0.950 . S
H657 C669 0.950 . S
H658 C666 0.950 . S
H659 C668 0.950 . S
H660 C670 0.950 . S
H661 C672 0.950 . S
H662 C674 0.950 . S
H663 C675 0.950 . S
C664 H656 0.950 . S
C664 C665 1.386 . S
C664 C666 1.391 . S
C665 C664 1.386 . S
C665 C669 1.393 . S
C666 H658 0.950 . S
C666 C664 1.391 . S
C666 C667 1.400 . S
C667 C666 1.400 . S
C667 C668 1.398 . S
C667 C673 1.491 . S
C668 H659 0.950 . S
C668 C667 1.398 . S
C668 C669 1.391 . S
C669 H657 0.950 . S
C669 C665 1.393 . S
C669 C668 1.391 . S
C670 H660 0.950 . S
C670 C671 1.386 . S
C670 C672 1.391 . S
C671 C670 1.386 . S
C671 C675 1.393 . S
C672 H661 0.950 . S
C672 C670 1.391 . S
C672 C673 1.400 . S
C673 C667 1.491 . S
C673 C672 1.400 . S
C673 C674 1.398 . S
C674 H662 0.950 . S
C674 C673 1.398 . S
C674 C675 1.391 . S
C675 H663 0.950 . S
C675 C671 1.393 . S
C675 C674 1.391 . S
H676 C684 0.950 . S
H677 C689 0.950 . S
H678 C686 0.950 . S
H679 C688 0.950 . S
H680 C690 0.950 . S
H681 C692 0.950 . S
H682 C694 0.950 . S
H683 C695 0.950 . S
C684 H676 0.950 . S
C684 C685 1.386 . S
C684 C686 1.391 . S
C685 C684 1.386 . S
C685 C689 1.393 . S
C686 H678 0.950 . S
C686 C684 1.391 . S
C686 C687 1.400 . S
C687 C686 1.400 . S
C687 C688 1.398 . S
C687 C693 1.491 . S
C688 H679 0.950 . S
C688 C687 1.398 . S
C688 C689 1.391 . S
C689 H677 0.950 . S
C689 C685 1.393 . S
C689 C688 1.391 . S
C690 H680 0.950 . S
C690 C691 1.386 . S
C690 C692 1.391 . S
C691 C690 1.386 . S
C691 C695 1.393 . S
C692 H681 0.950 . S
C692 C690 1.391 . S
C692 C693 1.400 . S
C693 C687 1.491 . S
C693 C692 1.400 . S
C693 C694 1.398 . S
C694 H682 0.950 . S
C694 C693 1.398 . S
C694 C695 1.391 . S
C695 H683 0.950 . S
C695 C691 1.393 . S
C695 C694 1.391 . S
H696 C704 0.950 . S
H697 C709 0.950 . S
H698 C706 0.950 . S
H699 C708 0.950 . S
H700 C710 0.950 . S
H701 C712 0.950 . S
H702 C714 0.950 . S
H703 C715 0.950 . S
C704 H696 0.950 . S
C704 C705 1.386 . S
C704 C706 1.391 . S
C705 C704 1.386 . S
C705 C709 1.393 . S
C706 H698 0.950 . S
C706 C704 1.391 . S
C706 C707 1.400 . S
C707 C706 1.400 . S
C707 C708 1.398 . S
C707 C713 1.491 . S
C708 H699 0.950 . S
C708 C707 1.398 . S
C708 C709 1.391 . S
C709 H697 0.950 . S
C709 C705 1.393 . S
C709 C708 1.391 . S
C710 H700 0.950 . S
C710 C711 1.386 . S
C710 C712 1.391 . S
C711 C710 1.386 . S
C711 C715 1.393 . S
C712 H701 0.950 . S
C712 C710 1.391 . S
C712 C713 1.400 . S
C713 C707 1.491 . S
C713 C712 1.400 . S
C713 C714 1.398 . S
C714 H702 0.950 . S
C714 C713 1.398 . S
C714 C715 1.391 . S
C715 H703 0.950 . S
C715 C711 1.393 . S
C715 C714 1.391 . S
H716 C724 0.950 . S
H717 C729 0.950 . S
H718 C726 0.950 . S
H719 C728 0.950 . S
H720 C730 0.950 . S
H721 C732 0.950 . S
H722 C734 0.950 . S
H723 C735 0.950 . S
C724 H716 0.950 . S
C724 C725 1.386 . S
C724 C726 1.391 . S
C725 C724 1.386 . S
C725 C729 1.393 . S
C726 H718 0.950 . S
C726 C724 1.391 . S
C726 C727 1.400 . S
C727 C726 1.400 . S
C727 C728 1.398 . S
C727 C733 1.491 . S
C728 H719 0.950 . S
C728 C727 1.398 . S
C728 C729 1.391 . S
C729 H717 0.950 . S
C729 C725 1.393 . S
C729 C728 1.391 . S
C730 H720 0.950 . S
C730 C731 1.386 . S
C730 C732 1.391 . S
C731 C730 1.386 . S
C731 C735 1.393 . S
C732 H721 0.950 . S
C732 C730 1.391 . S
C732 C733 1.400 . S
C733 C727 1.491 . S
C733 C732 1.400 . S
C733 C734 1.398 . S
C734 H722 0.950 . S
C734 C733 1.398 . S
C734 C735 1.391 . S
C735 H723 0.950 . S
C735 C731 1.393 . S
C735 C734 1.391 . S
H736 C744 0.950 . S
H737 C749 0.950 . S
H738 C746 0.950 . S
H739 C748 0.950 . S
H740 C750 0.950 . S
H741 C752 0.950 . S
H742 C754 0.950 . S
H743 C755 0.950 . S
C744 H736 0.950 . S
C744 C745 1.386 . S
C744 C746 1.391 . S
C745 C744 1.386 . S
C745 C749 1.393 . S
C746 H738 0.950 . S
C746 C744 1.391 . S
C746 C747 1.400 . S
C747 C746 1.400 . S
C747 C748 1.398 . S
C747 C753 1.491 . S
C748 H739 0.950 . S
C748 C747 1.398 . S
C748 C749 1.391 . S
C749 H737 0.950 . S
C749 C745 1.393 . S
C749 C748 1.391 . S
C750 H740 0.950 . S
C750 C751 1.386 . S
C750 C752 1.391 . S
C751 C750 1.386 . S
C751 C755 1.393 . S
C752 H741 0.950 . S
C752 C750 1.391 . S
C752 C753 1.400 . S
C753 C747 1.491 . S
C753 C752 1.400 . S
C753 C754 1.398 . S
C754 H742 0.950 . S
C754 C753 1.398 . S
C754 C755 1.391 . S
C755 H743 0.950 . S
C755 C751 1.393 . S
C755 C754 1.391 . S
H756 C764 0.950 . S
H757 C769 0.950 . S
H758 C766 0.950 . S
H759 C768 0.950 . S
H760 C770 0.950 . S
H761 C772 0.950 . S
H762 C774 0.950 . S
H763 C775 0.950 . S
C764 H756 0.950 . S
C764 C765 1.386 . S
C764 C766 1.391 . S
C765 C764 1.386 . S
C765 C769 1.393 . S
C766 H758 0.950 . S
C766 C764 1.391 . S
C766 C767 1.400 . S
C767 C766 1.400 . S
C767 C768 1.398 . S
C767 C773 1.491 . S
C768 H759 0.950 . S
C768 C767 1.398 . S
C768 C769 1.391 . S
C769 H757 0.950 . S
C769 C765 1.393 . S
C769 C768 1.391 . S
C770 H760 0.950 . S
C770 C771 1.386 . S
C770 C772 1.391 . S
C771 C770 1.386 . S
C771 C775 1.393 . S
C772 H761 0.950 . S
C772 C770 1.391 . S
C772 C773 1.400 . S
C773 C767 1.491 . S
C773 C772 1.400 . S
C773 C774 1.398 . S
C774 H762 0.950 . S
C774 C773 1.398 . S
C774 C775 1.391 . S
C775 H763 0.950 . S
C775 C771 1.393 . S
C775 C774 1.391 . S
H776 C784 0.950 . S
H777 C789 0.950 . S
H778 C786 0.950 . S
H779 C788 0.950 1_655 S
H780 C790 0.950 . S
H781 C792 0.950 . S
H782 C794 0.950 1_455 S
H783 C795 0.950 . S
C784 H776 0.950 . S
C784 C785 1.386 . S
C784 C786 1.391 . S
C785 C784 1.386 . S
C785 C789 1.393 . S
C786 H778 0.950 . S
C786 C784 1.391 . S
C786 C787 1.400 . S
C787 C786 1.400 . S
C787 C788 1.398 . S
C787 C793 1.491 1_455 S
C788 H779 0.950 1_455 S
C788 C787 1.398 . S
C788 C789 1.391 . S
C789 H777 0.950 . S
C789 C785 1.393 . S
C789 C788 1.391 . S
C790 H780 0.950 . S
C790 C791 1.386 . S
C790 C792 1.391 . S
C791 C790 1.386 . S
C791 C795 1.393 . S
C792 H781 0.950 . S
C792 C790 1.391 . S
C792 C793 1.400 . S
C793 C787 1.491 1_655 S
C793 C792 1.400 . S
C793 C794 1.398 . S
C794 H782 0.950 1_655 S
C794 C793 1.398 . S
C794 C795 1.391 . S
C795 H783 0.950 . S
C795 C791 1.393 . S
C795 C794 1.391 . S
H796 C804 0.950 . S
H797 C809 0.950 . S
H798 C806 0.950 . S
H799 C808 0.950 . S
H800 C810 0.950 . S
H801 C812 0.950 . S
H802 C814 0.950 . S
H803 C815 0.950 . S
C804 H796 0.950 . S
C804 C805 1.386 . S
C804 C806 1.391 . S
C805 C804 1.386 . S
C805 C809 1.393 . S
C806 H798 0.950 . S
C806 C804 1.391 . S
C806 C807 1.400 . S
C807 C806 1.400 . S
C807 C808 1.398 1_565 S
C807 C813 1.491 1_565 S
C808 H799 0.950 . S
C808 C807 1.398 1_545 S
C808 C809 1.391 1_545 S
C809 H797 0.950 . S
C809 C805 1.393 . S
C809 C808 1.391 1_565 S
C810 H800 0.950 . S
C810 C811 1.386 . S
C810 C812 1.391 . S
C811 C810 1.386 . S
C811 C815 1.393 . S
C812 H801 0.950 . S
C812 C810 1.391 . S
C812 C813 1.400 . S
C813 C807 1.491 1_545 S
C813 C812 1.400 . S
C813 C814 1.398 1_545 S
C814 H802 0.950 . S
C814 C813 1.398 1_565 S
C814 C815 1.391 1_565 S
C815 H803 0.950 . S
C815 C811 1.393 . S
C815 C814 1.391 1_545 S
H816 C824 0.950 . S
H817 C829 0.950 . S
H818 C826 0.950 . S
H819 C828 0.950 . S
H820 C830 0.950 . S
H821 C832 0.950 . S
H822 C834 0.950 . S
H823 C835 0.950 . S
C824 H816 0.950 . S
C824 C825 1.386 . S
C824 C826 1.391 . S
C825 C824 1.386 . S
C825 C829 1.393 . S
C826 H818 0.950 . S
C826 C824 1.391 . S
C826 C827 1.400 . S
C827 C826 1.400 . S
C827 C828 1.398 . S
C827 C833 1.491 . S
C828 H819 0.950 . S
C828 C827 1.398 . S
C828 C829 1.391 . S
C829 H817 0.950 . S
C829 C825 1.393 . S
C829 C828 1.391 . S
C830 H820 0.950 . S
C830 C831 1.386 . S
C830 C832 1.391 . S
C831 C830 1.386 . S
C831 C835 1.393 . S
C832 H821 0.950 . S
C832 C830 1.391 . S
C832 C833 1.400 . S
C833 C827 1.491 . S
C833 C832 1.400 . S
C833 C834 1.398 . S
C834 H822 0.950 . S
C834 C833 1.398 . S
C834 C835 1.391 . S
C835 H823 0.950 . S
C835 C831 1.393 . S
C835 C834 1.391 . S
H836 C844 0.950 . S
H837 C849 0.950 . S
H838 C846 0.950 . S
H839 C848 0.950 . S
H840 C850 0.950 . S
H841 C852 0.950 . S
H842 C854 0.950 . S
H843 C855 0.950 . S
C844 H836 0.950 . S
C844 C845 1.386 . S
C844 C846 1.391 1_455 S
C845 C844 1.386 . S
C845 C849 1.393 . S
C846 H838 0.950 . S
C846 C844 1.391 1_655 S
C846 C847 1.400 1_655 S
C847 C846 1.400 1_455 S
C847 C848 1.398 . S
C847 C853 1.491 1_455 S
C848 H839 0.950 . S
C848 C847 1.398 . S
C848 C849 1.391 . S
C849 H837 0.950 . S
C849 C845 1.393 . S
C849 C848 1.391 . S
C850 H840 0.950 . S
C850 C851 1.386 . S
C850 C852 1.391 1_655 S
C851 C850 1.386 . S
C851 C855 1.393 . S
C852 H841 0.950 . S
C852 C850 1.391 1_455 S
C852 C853 1.400 1_455 S
C853 C847 1.491 1_655 S
C853 C852 1.400 1_655 S
C853 C854 1.398 . S
C854 H842 0.950 . S
C854 C853 1.398 . S
C854 C855 1.391 . S
C855 H843 0.950 . S
C855 C851 1.393 . S
C855 C854 1.391 . S
H856 C864 0.950 . S
H857 C869 0.950 . S
H858 C866 0.950 1_556 S
H859 C868 0.950 . S
H860 C870 0.950 . S
H861 C872 0.946 1_554 S
H862 C874 0.950 . S
H863 C875 0.950 . S
C864 H856 0.950 . S
C864 C865 1.386 . S
C864 C866 1.391 . S
C865 C864 1.386 . S
C865 C869 1.393 . S
C866 H858 0.950 1_554 S
C866 C864 1.391 . S
C866 C867 1.400 . S
C867 C866 1.400 . S
C867 C868 1.398 1_565 S
C867 C873 1.491 1_564 S
C868 H859 0.950 . S
C868 C867 1.398 1_545 S
C868 C869 1.391 1_545 S
C869 H857 0.950 . S
C869 C865 1.393 . S
C869 C868 1.391 1_565 S
C870 H860 0.950 . S
C870 C871 1.386 . S
C870 C872 1.391 . S
C871 C870 1.386 . S
C871 C875 1.393 . S
C872 H861 0.946 1_556 S
C872 C870 1.391 . S
C872 C873 1.400 . S
C873 C867 1.491 1_546 S
C873 C872 1.400 . S
C873 C874 1.398 1_545 S
C874 H862 0.950 . S
C874 C873 1.398 1_565 S
C874 C875 1.391 1_565 S
C875 H863 0.950 . S
C875 C871 1.393 . S
C875 C874 1.391 1_545 S
H876 C884 0.950 . S
H877 C889 0.950 . S
H878 C886 0.950 . S
H879 C888 0.950 . S
H880 C890 0.950 . S
H881 C892 0.950 . S
H882 C894 0.950 . S
H883 C895 0.950 . S
C884 H876 0.950 . S
C884 C885 1.386 . S
C884 C886 1.391 . S
C885 C884 1.386 . S
C885 C889 1.393 . S
C886 H878 0.950 . S
C886 C884 1.391 . S
C886 C887 1.400 . S
C887 C886 1.400 . S
C887 C888 1.398 . S
C887 C893 1.491 . S
C888 H879 0.950 . S
C888 C887 1.398 . S
C888 C889 1.391 . S
C889 H877 0.950 . S
C889 C885 1.393 . S
C889 C888 1.391 . S
C890 H880 0.950 . S
C890 C891 1.386 . S
C890 C892 1.391 . S
C891 C890 1.386 . S
C891 C895 1.393 . S
C892 H881 0.950 . S
C892 C890 1.391 . S
C892 C893 1.400 . S
C893 C887 1.491 . S
C893 C892 1.400 . S
C893 C894 1.398 . S
C894 H882 0.950 . S
C894 C893 1.398 . S
C894 C895 1.391 . S
C895 H883 0.950 . S
C895 C891 1.393 . S
C895 C894 1.391 . S
H896 C904 0.950 . S
H897 C909 0.950 . S
H898 C906 0.950 . S
H899 C908 0.950 . S
H900 C910 0.950 . S
H901 C912 0.950 . S
H902 C914 0.950 . S
H903 C915 0.950 . S
C904 H896 0.950 . S
C904 C905 1.386 . S
C904 C906 1.391 . S
C905 C904 1.386 . S
C905 C909 1.393 . S
C906 H898 0.950 . S
C906 C904 1.391 . S
C906 C907 1.400 . S
C907 C906 1.400 . S
C907 C908 1.398 . S
C907 C913 1.491 . S
C908 H899 0.950 . S
C908 C907 1.398 . S
C908 C909 1.391 . S
C909 H897 0.950 . S
C909 C905 1.393 . S
C909 C908 1.391 . S
C910 H900 0.950 . S
C910 C911 1.386 . S
C910 C912 1.391 . S
C911 C910 1.386 . S
C911 C915 1.393 . S
C912 H901 0.950 . S
C912 C910 1.391 . S
C912 C913 1.400 . S
C913 C907 1.491 . S
C913 C912 1.400 . S
C913 C914 1.398 . S
C914 H902 0.950 . S
C914 C913 1.398 . S
C914 C915 1.391 . S
C915 H903 0.950 . S
C915 C911 1.393 . S
C915 C914 1.391 . S
H916 C924 0.950 . S
H917 C929 0.950 . S
H918 C926 0.950 . S
H919 C928 0.950 . S
H920 C930 0.950 . S
H921 C932 0.950 . S
H922 C934 0.950 . S
H923 C935 0.950 . S
C924 H916 0.950 . S
C924 C925 1.386 . S
C924 C926 1.391 . S
C925 C924 1.386 . S
C925 C929 1.393 . S
C926 H918 0.950 . S
C926 C924 1.391 . S
C926 C927 1.400 . S
C927 C926 1.400 . S
C927 C928 1.398 . S
C927 C933 1.491 . S
C928 H919 0.950 . S
C928 C927 1.398 . S
C928 C929 1.391 . S
C929 H917 0.950 . S
C929 C925 1.393 . S
C929 C928 1.391 . S
C930 H920 0.950 . S
C930 C931 1.386 . S
C930 C932 1.391 . S
C931 C930 1.386 . S
C931 C935 1.393 . S
C932 H921 0.950 . S
C932 C930 1.391 . S
C932 C933 1.400 . S
C933 C927 1.491 . S
C933 C932 1.400 . S
C933 C934 1.398 . S
C934 H922 0.950 . S
C934 C933 1.398 . S
C934 C935 1.391 . S
C935 H923 0.950 . S
C935 C931 1.393 . S
C935 C934 1.391 . S
H936 C944 0.950 . S
H937 C949 0.950 . S
H938 C946 0.950 . S
H939 C948 0.950 . S
H940 C950 0.950 . S
H941 C952 0.950 . S
H942 C954 0.950 . S
H943 C955 0.950 . S
C944 H936 0.950 . S
C944 C945 1.386 . S
C944 C946 1.391 . S
C945 C944 1.386 . S
C945 C949 1.393 . S
C946 H938 0.950 . S
C946 C944 1.391 . S
C946 C947 1.400 . S
C947 C946 1.400 . S
C947 C948 1.398 . S
C947 C953 1.491 . S
C948 H939 0.950 . S
C948 C947 1.398 . S
C948 C949 1.391 . S
C949 H937 0.950 . S
C949 C945 1.393 . S
C949 C948 1.391 . S
C950 H940 0.950 . S
C950 C951 1.386 . S
C950 C952 1.391 . S
C951 C950 1.386 . S
C951 C955 1.393 . S
C952 H941 0.950 . S
C952 C950 1.391 . S
C952 C953 1.400 . S
C953 C947 1.491 . S
C953 C952 1.400 . S
C953 C954 1.398 . S
C954 H942 0.950 . S
C954 C953 1.398 . S
C954 C955 1.391 . S
C955 H943 0.950 . S
C955 C951 1.393 . S
C955 C954 1.391 . S
H956 C964 0.950 . S
H957 C969 0.950 . S
H958 C966 0.950 . S
H959 C968 0.950 . S
H960 C970 0.950 . S
H961 C972 0.950 . S
H962 C974 0.950 . S
H963 C975 0.950 . S
C964 H956 0.950 . S
C964 C965 1.386 . S
C964 C966 1.391 . S
C965 C964 1.386 . S
C965 C969 1.393 . S
C966 H958 0.950 . S
C966 C964 1.391 . S
C966 C967 1.400 . S
C967 C966 1.400 . S
C967 C968 1.398 . S
C967 C973 1.491 . S
C968 H959 0.950 . S
C968 C967 1.398 . S
C968 C969 1.391 . S
C969 H957 0.950 . S
C969 C965 1.393 . S
C969 C968 1.391 . S
C970 H960 0.950 . S
C970 C971 1.386 . S
C970 C972 1.391 . S
C971 C970 1.386 . S
C971 C975 1.393 . S
C972 H961 0.950 . S
C972 C970 1.391 . S
C972 C973 1.400 . S
C973 C967 1.491 . S
C973 C972 1.400 . S
C973 C974 1.398 . S
C974 H962 0.950 . S
C974 C973 1.398 . S
C974 C975 1.391 . S
C975 H963 0.950 . S
C975 C971 1.393 . S
C975 C974 1.391 . S
H976 C984 0.950 . S
H977 C989 0.950 . S
H978 C986 0.950 . S
H979 C988 0.950 . S
H980 C990 0.950 . S
H981 C992 0.950 . S
H982 C994 0.950 . S
H983 C995 0.950 . S
C984 H976 0.950 . S
C984 C985 1.386 . S
C984 C986 1.391 . S
C985 C984 1.386 . S
C985 C989 1.393 . S
C986 H978 0.950 . S
C986 C984 1.391 . S
C986 C987 1.400 . S
C987 C986 1.400 . S
C987 C988 1.398 . S
C987 C993 1.491 . S
C988 H979 0.950 . S
C988 C987 1.398 . S
C988 C989 1.391 . S
C989 H977 0.950 . S
C989 C985 1.393 . S
C989 C988 1.391 . S
C990 H980 0.950 . S
C990 C991 1.386 . S
C990 C992 1.391 . S
C991 C990 1.386 . S
C991 C995 1.393 . S
C992 H981 0.950 . S
C992 C990 1.391 . S
C992 C993 1.400 . S
C993 C987 1.491 . S
C993 C992 1.400 . S
C993 C994 1.398 . S
C994 H982 0.950 . S
C994 C993 1.398 . S
C994 C995 1.391 . S
C995 H983 0.950 . S
C995 C991 1.393 . S
C995 C994 1.391 . S
C405 C172 1.460 . S
C411 N13 1.529 . S
C425 C7 1.432 . S
C431 N46 1.536 . S
C445 C40 1.429 . S
C451 N79 1.536 . S
C465 N112 1.532 . S
C471 C73 1.444 . S
C485 N145 1.536 . S
C491 C106 1.429 . S
C505 C139 1.430 . S
C511 N178 1.535 . S
C525 C238 1.430 . S
C531 N211 1.536 . S
C545 C271 1.461 . S
C551 N244 1.529 . S
C565 C304 1.436 . S
C571 N277 1.534 . S
C585 C337 1.435 . S
C591 N310 1.534 . S
C605 C370 1.461 . S
C611 N343 1.529 . S
C625 C205 1.435 . S
C631 N376 1.534 . S
C645 N266 1.272 . S
C651 N2 1.284 . S
C665 N35 1.253 . S
C671 N299 1.257 . S
C685 N68 1.251 . S
C691 N332 1.261 . S
C705 N101 1.252 . S
C711 N365 1.272 . S
C725 N134 1.251 . S
C731 N200 1.263 . S
C745 N233 1.268 . S
C751 N167 1.284 . S
C765 C318 1.169 . S
C771 C21 1.160 . S
C785 C351 1.166 . S
C791 C54 1.168 . S
C805 C87 1.160 . S
C811 C384 1.169 . S
C825 C120 1.166 . S
C831 C219 1.160 . S
C845 C153 1.169 . S
C851 C252 1.160 . S
C865 C285 1.161 . S
C871 C186 1.170 . S
C885 C18 1.038 . S
C891 C216 1.040 . S
C905 C249 1.046 . S
C911 C51 1.045 . S
C925 C84 1.018 . S
C931 C282 1.018 . S
C945 C315 1.029 . S
C951 C117 1.031 . S
C965 C348 1.019 . S
C971 C150 1.019 . S
C985 C381 1.022 . S
C991 C183 1.021 . S
