# Generated by pormake.
# Topology bcs, (6)-cn, num edge types: 1
# Building blocks:
#     Node 0, Type 0, BuildingBlock: CUWYAW_clean_sbu_0, # of connection points: 6
#     Node 1, Type 0, BuildingBlock: CUWYAW_clean_sbu_0, # of connection points: 6
#     Node 2, Type 0, BuildingBlock: CUWYAW_clean_sbu_0, # of connection points: 6
#     Node 3, Type 0, BuildingBlock: CUWYAW_clean_sbu_0, # of connection points: 6
#     Node 4, Type 0, BuildingBlock: CUWYAW_clean_sbu_0, # of connection points: 6
#     Node 5, Type 0, BuildingBlock: CUWYAW_clean_sbu_0, # of connection points: 6
#     Node 6, Type 0, BuildingBlock: CUWYAW_clean_sbu_0, # of connection points: 6
#     Node 7, Type 0, BuildingBlock: CUWYAW_clean_sbu_0, # of connection points: 6
#     Node 8, Type 0, BuildingBlock: CUWYAW_clean_sbu_0, # of connection points: 6
#     Node 9, Type 0, BuildingBlock: CUWYAW_clean_sbu_0, # of connection points: 6
#     Node 10, Type 0, BuildingBlock: CUWYAW_clean_sbu_0, # of connection points: 6
#     Node 11, Type 0, BuildingBlock: CUWYAW_clean_sbu_0, # of connection points: 6
#     Node 12, Type 0, BuildingBlock: CUWYAW_clean_sbu_0, # of connection points: 6
#     Node 13, Type 0, BuildingBlock: CUWYAW_clean_sbu_0, # of connection points: 6
#     Node 14, Type 0, BuildingBlock: CUWYAW_clean_sbu_0, # of connection points: 6
#     Node 15, Type 0, BuildingBlock: CUWYAW_clean_sbu_0, # of connection points: 6
#     Edge 16, Type (0, 0), BuildingBlock: TEMPAE_clean_linker_10, # of connection points: 2
#     Edge 17, Type (0, 0), BuildingBlock: TEMPAE_clean_linker_10, # of connection points: 2
#     Edge 18, Type (0, 0), BuildingBlock: TEMPAE_clean_linker_10, # of connection points: 2
#     Edge 19, Type (0, 0), BuildingBlock: TEMPAE_clean_linker_10, # of connection points: 2
#     Edge 20, Type (0, 0), BuildingBlock: TEMPAE_clean_linker_10, # of connection points: 2
#     Edge 21, Type (0, 0), BuildingBlock: TEMPAE_clean_linker_10, # of connection points: 2
#     Edge 22, Type (0, 0), BuildingBlock: TEMPAE_clean_linker_10, # of connection points: 2
#     Edge 23, Type (0, 0), BuildingBlock: TEMPAE_clean_linker_10, # of connection points: 2
#     Edge 24, Type (0, 0), BuildingBlock: TEMPAE_clean_linker_10, # of connection points: 2
#     Edge 25, Type (0, 0), BuildingBlock: TEMPAE_clean_linker_10, # of connection points: 2
#     Edge 26, Type (0, 0), BuildingBlock: TEMPAE_clean_linker_10, # of connection points: 2
#     Edge 27, Type (0, 0), BuildingBlock: TEMPAE_clean_linker_10, # of connection points: 2
#     Edge 28, Type (0, 0), BuildingBlock: TEMPAE_clean_linker_10, # of connection points: 2
#     Edge 29, Type (0, 0), BuildingBlock: TEMPAE_clean_linker_10, # of connection points: 2
#     Edge 30, Type (0, 0), BuildingBlock: TEMPAE_clean_linker_10, # of connection points: 2
#     Edge 31, Type (0, 0), BuildingBlock: TEMPAE_clean_linker_10, # of connection points: 2
#     Edge 32, Type (0, 0), BuildingBlock: TEMPAE_clean_linker_10, # of connection points: 2
#     Edge 33, Type (0, 0), BuildingBlock: TEMPAE_clean_linker_10, # of connection points: 2
#     Edge 34, Type (0, 0), BuildingBlock: TEMPAE_clean_linker_10, # of connection points: 2
#     Edge 35, Type (0, 0), BuildingBlock: TEMPAE_clean_linker_10, # of connection points: 2
#     Edge 36, Type (0, 0), BuildingBlock: TEMPAE_clean_linker_10, # of connection points: 2
#     Edge 37, Type (0, 0), BuildingBlock: TEMPAE_clean_linker_10, # of connection points: 2
#     Edge 38, Type (0, 0), BuildingBlock: TEMPAE_clean_linker_10, # of connection points: 2
#     Edge 39, Type (0, 0), BuildingBlock: TEMPAE_clean_linker_10, # of connection points: 2
#     Edge 40, Type (0, 0), BuildingBlock: TEMPAE_clean_linker_10, # of connection points: 2
#     Edge 41, Type (0, 0), BuildingBlock: TEMPAE_clean_linker_10, # of connection points: 2
#     Edge 42, Type (0, 0), BuildingBlock: TEMPAE_clean_linker_10, # of connection points: 2
#     Edge 43, Type (0, 0), BuildingBlock: TEMPAE_clean_linker_10, # of connection points: 2
#     Edge 44, Type (0, 0), BuildingBlock: TEMPAE_clean_linker_10, # of connection points: 2
#     Edge 45, Type (0, 0), BuildingBlock: TEMPAE_clean_linker_10, # of connection points: 2
#     Edge 46, Type (0, 0), BuildingBlock: TEMPAE_clean_linker_10, # of connection points: 2
#     Edge 47, Type (0, 0), BuildingBlock: TEMPAE_clean_linker_10, # of connection points: 2
#     Edge 48, Type (0, 0), BuildingBlock: TEMPAE_clean_linker_10, # of connection points: 2
#     Edge 49, Type (0, 0), BuildingBlock: TEMPAE_clean_linker_10, # of connection points: 2
#     Edge 50, Type (0, 0), BuildingBlock: TEMPAE_clean_linker_10, # of connection points: 2
#     Edge 51, Type (0, 0), BuildingBlock: TEMPAE_clean_linker_10, # of connection points: 2
#     Edge 52, Type (0, 0), BuildingBlock: TEMPAE_clean_linker_10, # of connection points: 2
#     Edge 53, Type (0, 0), BuildingBlock: TEMPAE_clean_linker_10, # of connection points: 2
#     Edge 54, Type (0, 0), BuildingBlock: TEMPAE_clean_linker_10, # of connection points: 2
#     Edge 55, Type (0, 0), BuildingBlock: TEMPAE_clean_linker_10, # of connection points: 2
#     Edge 56, Type (0, 0), BuildingBlock: TEMPAE_clean_linker_10, # of connection points: 2
#     Edge 57, Type (0, 0), BuildingBlock: TEMPAE_clean_linker_10, # of connection points: 2
#     Edge 58, Type (0, 0), BuildingBlock: TEMPAE_clean_linker_10, # of connection points: 2
#     Edge 59, Type (0, 0), BuildingBlock: TEMPAE_clean_linker_10, # of connection points: 2
#     Edge 60, Type (0, 0), BuildingBlock: TEMPAE_clean_linker_10, # of connection points: 2
#     Edge 61, Type (0, 0), BuildingBlock: TEMPAE_clean_linker_10, # of connection points: 2
#     Edge 62, Type (0, 0), BuildingBlock: TEMPAE_clean_linker_10, # of connection points: 2
#     Edge 63, Type (0, 0), BuildingBlock: TEMPAE_clean_linker_10, # of connection points: 2
# Relax obj value: 0.258
# Max RMSD: 0.225
# Mean RMSD: 0.162
data_MOF--net-bcs--node1-CUWYAW_clean_sbu_0--edge1-TEMPAE_clean_linker_10
_symmetry_space_group_name_H-M    P1
_symmetry_Int_Tables_number       1
_symmetry_cell_setting            triclinic
loop_
_symmetry_equiv_pos_as_xyz
'x, y, z'
_cell_length_a     42.284852
_cell_length_b     41.995131
_cell_length_c     39.790098
_cell_angle_alpha  80.67286
_cell_angle_beta   112.97885
_cell_angle_gamma 106.97641
loop_
_atom_site_label
_atom_site_type_symbol
_atom_site_fract_x
_atom_site_fract_y
_atom_site_fract_z
_atom_type_partial_charge
C0 C 1.05396 0.08961 0.08715 0.0
Eu1 Eu 0.07774 0.05785 0.05105 0.0
C2 C 1.03622 0.10644 0.10574 0.0
C3 C 1.05515 0.13119 0.13207 0.0
C4 C 1.0378 0.14685 0.14736 0.0
C5 C 1.0001 0.13889 0.13773 0.0
C6 C 0.98142 0.11399 0.11145 0.0
C7 C 0.9987 0.09859 0.09609 0.0
C8 C 0.11711 0.08621 0.99959 0.0
C9 C 1.01955 0.06292 0.96522 0.0
C10 C 0.08589 0.96976 0.96013 0.0
Eu11 Eu 1.06233 1.00171 0.9963 0.0
C12 C 0.10363 0.95247 0.94195 0.0
C13 C 0.08465 0.93085 0.91245 0.0
C14 C 0.10193 0.91518 0.89706 0.0
C15 C 0.13964 0.91989 0.90984 0.0
C16 C 0.15835 0.94157 0.93942 0.0
C17 C 0.14113 0.95708 0.95474 0.0
C18 C 1.02231 0.97388 0.04746 0.0
C19 C 0.12138 0.99697 0.0817 0.0
O20 O 1.03436 0.0687 0.06142 0.0
O21 O 0.08811 0.0929 0.09471 0.0
O22 O 0.11795 0.09954 0.02794 0.0
O23 O 0.09567 0.0566 1.00256 0.0
O24 O 1.03454 0.07203 0.99943 0.0
O25 O 1.0268 0.03699 0.95595 0.0
O26 O 0.10555 0.98997 0.98654 0.0
O27 O 1.05178 0.96715 0.95206 0.0
O28 O 1.02149 0.9604 0.0192 0.0
O29 O 1.04414 1.00322 0.0445 0.0
O30 O 0.10581 0.98766 0.04759 0.0
O31 O 0.11422 1.02295 0.09111 0.0
H32 H 0.08381 0.13884 0.14093 0.0
H33 H 1.0545 0.16525 0.16732 0.0
H34 H 0.95276 0.10643 0.1018 0.0
H35 H 0.98207 0.08022 0.07602 0.0
H36 H 1.05599 0.92582 0.90098 0.0
H37 H 0.08516 0.89941 0.87449 0.0
H38 H 0.18693 0.94653 0.95167 0.0
H39 H 0.15777 0.97294 0.97732 0.0
C40 C 0.40897 0.84173 0.26441 0.0
Eu41 Eu 0.34994 0.79966 0.26309 0.0
C42 C 0.4178 0.87498 0.24735 0.0
C43 C 0.39682 0.88299 0.21155 0.0
C44 C 0.40388 0.91545 0.19662 0.0
C45 C 0.43169 0.94064 0.2174 0.0
C46 C 0.45179 0.93268 0.25379 0.0
C47 C 0.44495 0.90005 0.26858 0.0
C48 C 0.29618 0.76272 0.2097 0.0
C49 C 0.27767 0.82858 0.23642 0.0
C50 C 0.23941 0.71034 0.29706 0.0
Eu51 Eu 0.28906 0.75861 0.2854 0.0
C52 C 0.23513 0.67418 0.30587 0.0
C53 C 0.25685 0.66212 0.33934 0.0
C54 C 0.24979 0.62819 0.34939 0.0
C55 C 0.22094 0.60542 0.32613 0.0
C56 C 0.20143 0.61721 0.29113 0.0
C57 C 0.20828 0.65133 0.28123 0.0
C58 C 0.33404 0.80899 0.32894 0.0
C59 C 0.36088 0.7282 0.31001 0.0
O60 O 0.39406 0.84075 0.28789 0.0
O61 O 0.39378 0.81638 0.24316 0.0
O62 O 0.31601 0.79121 0.20308 0.0
O63 O 0.30811 0.75382 0.24306 0.0
O64 O 0.31287 0.83628 0.24507 0.0
O65 O 0.2615 0.79787 0.24543 0.0
O66 O 0.23921 0.72096 0.26418 0.0
O67 O 0.26324 0.73022 0.3224 0.0
O68 O 0.29985 0.8019 0.32023 0.0
O69 O 0.34181 0.78902 0.31508 0.0
O70 O 0.32862 0.72436 0.3109 0.0
O71 O 0.37451 0.75515 0.29232 0.0
H72 H 0.37507 0.86417 0.19506 0.0
H73 H 0.38835 0.92043 0.16826 0.0
H74 H 0.47319 0.95152 0.2706 0.0
H75 H 0.4607 0.8944 0.29669 0.0
H76 H 0.27829 0.679 0.35868 0.0
H77 H 0.2653 0.62037 0.3767 0.0
H78 H 0.17949 0.60034 0.27223 0.0
H79 H 0.19165 0.65997 0.2549 0.0
C80 C 0.60113 1.02257 0.43754 0.0
Eu81 Eu 0.5859 0.03855 0.48871 0.0
C82 C 0.59754 0.98989 0.42613 0.0
C83 C 0.61886 0.98671 0.40813 0.0
C84 C 0.61503 0.95572 0.39666 0.0
C85 C 0.58967 0.92754 0.40286 0.0
C86 C 0.56826 0.93073 0.42089 0.0
C87 C 0.57252 0.9617 0.43289 0.0
C88 C 0.62297 0.08823 0.53547 0.0
C89 C 0.61451 0.98989 0.56414 0.0
C90 C 0.53303 0.04941 0.58711 0.0
Eu91 Eu 0.55794 0.03316 0.54473 0.0
C92 C 0.50117 0.06219 0.57446 0.0
C93 C 0.46926 0.04552 0.5482 0.0
C94 C 0.44073 0.0602 0.53217 0.0
C95 C 0.44384 0.09202 0.54157 0.0
C96 C 0.47588 0.10876 0.5675 0.0
C97 C 0.50419 0.09393 0.58388 0.0
C98 C 0.52206 0.98305 0.49867 0.0
C99 C 0.52839 0.08187 0.46936 0.0
O100 O 0.57117 0.02933 0.43184 0.0
O101 O 0.62496 0.03072 0.46973 0.0
O102 O 0.61615 0.09215 0.50052 0.0
O103 O 0.61164 0.05805 0.54433 0.0
O104 O 0.60873 0.99604 0.52848 0.0
O105 O 0.59991 1.0048 0.57908 0.0
O106 O 0.5596 0.06946 0.57906 0.0
O107 O 0.52794 1.01827 0.58092 0.0
O108 O 0.52997 0.97914 0.53378 0.0
O109 O 0.53248 1.01334 0.4894 0.0
O110 O 0.52644 0.06835 0.50134 0.0
O111 O 0.55083 0.07465 0.45787 0.0
H112 H 0.63826 1.00818 0.40276 0.0
H113 H 0.63151 0.95384 0.38232 0.0
H114 H 0.54861 0.90932 0.42593 0.0
H115 H 0.55618 0.96372 0.44728 0.0
H116 H 0.46647 1.02138 0.53953 0.0
H117 H 0.41621 0.04669 0.51257 0.0
H118 H 0.47876 0.13299 0.57601 0.0
H119 H 0.52873 0.10752 0.60341 0.0
C120 C 0.28903 0.35275 0.78858 0.0
Eu121 Eu 0.30444 0.30598 0.76805 0.0
C122 C 0.288 0.35348 0.82519 0.0
C123 C 0.25595 0.34037 0.83111 0.0
C124 C 0.25555 0.33654 0.8664 0.0
C125 C 0.28716 0.34594 0.89669 0.0
C126 C 0.31925 0.35917 0.89085 0.0
C127 C 0.3197 0.36292 0.8555 0.0
C128 C 0.26978 0.26661 0.7106 0.0
C129 C 0.27693 0.23653 0.82346 0.0
C130 C 0.35459 0.20323 0.7684 0.0
Eu131 Eu 0.33486 0.2526 0.77899 0.0
C132 C 0.35671 0.1947 0.73544 0.0
C133 C 0.36921 0.16721 0.73616 0.0
C134 C 0.37042 0.15887 0.70426 0.0
C135 C 0.35942 0.17817 0.67138 0.0
C136 C 0.34626 0.20538 0.67075 0.0
C137 C 0.34477 0.21348 0.70258 0.0
C138 C 0.36891 0.29439 0.83441 0.0
C139 C 0.36189 0.32214 0.72308 0.0
O140 O 0.32041 0.35558 0.78803 0.0
O141 O 0.26454 0.32957 0.76761 0.0
O142 O 0.27473 0.29887 0.70745 0.0
O143 O 0.28091 0.2567 0.74389 0.0
O144 O 0.27671 0.26846 0.80963 0.0
O145 O 0.29844 0.22407 0.81446 0.0
O146 O 0.32241 0.20116 0.76588 0.0
O147 O 0.37706 0.23058 0.78293 0.0
O148 O 0.36198 0.26222 0.83986 0.0
O149 O 0.35857 0.30217 0.80079 0.0
O150 O 0.36198 0.29001 0.73667 0.0
O151 O 0.3405 0.33471 0.73227 0.0
H152 H 0.23116 0.33264 0.80849 0.0
H153 H 0.23016 0.3272 0.86975 0.0
H154 H 0.34394 0.36694 0.91356 0.0
H155 H 0.34503 0.37277 0.85208 0.0
H156 H 0.3779 0.1522 0.76125 0.0
H157 H 0.37998 0.13731 0.70533 0.0
H158 H 0.33778 0.22076 0.64593 0.0
H159 H 0.33428 0.23441 0.70155 0.0
C160 C 0.17569 0.04889 0.55029 0.0
Eu161 Eu 0.1076 0.03898 0.52785 0.0
C162 C 0.19752 0.06628 0.52825 0.0
C163 C 0.19753 0.04972 0.50021 0.0
C164 C 0.20606 0.06791 0.47102 0.0
C165 C 0.21531 0.10283 0.46975 0.0
C166 C 0.21926 0.11934 0.49961 0.0
C167 C 0.21075 0.10116 0.52888 0.0
C168 C 1.05877 0.98504 0.49258 0.0
C169 C 0.07072 0.06912 0.44855 0.0
C170 C 0.96278 1.02507 0.48353 0.0
Eu171 Eu 1.03143 0.0397 0.5076 0.0
C172 C 0.94042 0.99857 0.49961 0.0
C173 C 0.95287 0.99218 0.53768 0.0
C174 C 0.93707 0.96302 0.55322 0.0
C175 C 0.90821 0.93974 0.53116 0.0
C176 C 0.89398 0.94688 0.49331 0.0
C177 C 0.91042 0.97603 0.47749 0.0
C178 C 0.07968 0.09434 0.54192 0.0
C179 C 0.07026 1.01098 0.58709 0.0
O180 O 0.16054 0.06758 0.55922 0.0
O181 O 0.15379 1.0202 0.53877 0.0
O182 O 0.08786 0.99932 0.48661 0.0
O183 O 1.05745 0.99901 0.51755 0.0
O184 O 0.10148 0.06953 0.47523 0.0
O185 O 1.04038 0.05588 0.4539 0.0
O186 O 0.98033 1.01421 0.46899 0.0
O187 O 0.98265 0.05042 0.50383 0.0
O188 O 1.05002 0.08071 0.54705 0.0
O189 O 0.08139 0.0798 0.51762 0.0
O190 O 1.03959 1.00747 0.55958 0.0
O191 O 0.10004 1.02733 0.58214 0.0
H192 H 0.18803 1.02286 0.4991 0.0
H193 H 0.20355 0.05476 0.44846 0.0
H194 H 0.22657 0.14633 0.49914 0.0
H195 H 0.21147 0.1146 0.55032 0.0
H196 H 0.97596 1.00895 0.5555 0.0
H197 H 0.948 0.95819 0.58258 0.0
H198 H 0.87151 0.9292 0.47596 0.0
H199 H 0.90076 0.98021 0.44803 0.0
C200 C 0.38183 0.75226 0.87078 0.0
Eu201 Eu 0.33335 0.76323 0.80897 0.0
C202 C 0.4183 0.75029 0.87912 0.0
C203 C 0.43249 0.72736 0.90625 0.0
C204 C 0.46632 0.72406 0.91293 0.0
C205 C 0.48687 0.74389 0.8928 0.0
C206 C 0.47271 0.76731 0.86595 0.0
C207 C 0.43868 0.77041 0.85909 0.0
C208 C 0.27411 0.72315 0.76424 0.0
C209 C 0.36238 0.75268 0.74295 0.0
C210 C 0.25619 0.80723 0.67479 0.0
Eu211 Eu 0.3044 0.79374 0.73555 0.0
C212 C 0.22684 0.82205 0.66851 0.0
C213 C 0.23115 0.84628 0.6915 0.0
C214 C 0.20199 0.8565 0.68961 0.0
C215 C 0.16803 0.84264 0.66485 0.0
C216 C 0.16373 0.81891 0.64126 0.0
C217 C 0.19298 0.80847 0.6433 0.0
C218 C 0.36423 0.83318 0.77998 0.0
C219 C 0.27583 0.80467 0.80229 0.0
O220 O 0.37605 0.78168 0.85898 0.0
O221 O 0.3563 0.72814 0.85227 0.0
O222 O 0.28044 0.72442 0.79891 0.0
O223 O 0.2998 0.74155 0.7561 0.0
O224 O 0.36725 0.75126 0.77866 0.0
O225 O 0.33744 0.76726 0.71944 0.0
O226 O 0.25325 0.77797 0.69226 0.0
O227 O 0.28844 0.82667 0.687 0.0
O228 O 0.35775 0.83178 0.74534 0.0
O229 O 0.33833 0.81538 0.7881 0.0
O230 O 0.27395 0.8097 0.76729 0.0
O231 O 0.29735 0.78618 0.82479 0.0
H232 H 0.41708 0.71145 0.9217 0.0
H233 H 0.47576 0.70496 0.93305 0.0
H234 H 0.48768 0.78292 0.84995 0.0
H235 H 0.42809 0.7882 0.83773 0.0
H236 H 0.25696 0.85689 0.71144 0.0
H237 H 0.20604 0.87575 0.70703 0.0
H238 H 0.13778 0.80836 0.62151 0.0
H239 H 0.18908 0.78929 0.62581 0.0
C240 C 0.57531 0.12351 0.98262 0.0
Eu241 Eu 0.57802 0.06151 0.99808 0.0
C242 C 0.57006 0.1475 1.0017 0.0
C243 C 0.55424 0.17308 0.98175 0.0
C244 C 0.54507 0.19335 0.99923 0.0
C245 C 0.55161 0.18824 0.03694 0.0
C246 C 0.56926 0.16369 0.05713 0.0
C247 C 0.57811 0.14331 0.0396 0.0
C248 C 0.54065 1.01019 0.953 0.0
C249 C 0.52724 1.02487 0.04247 0.0
C250 C 0.58836 0.93311 0.05317 0.0
Eu251 Eu 0.58315 0.99431 0.03531 0.0
C252 C 0.61658 0.91684 0.05822 0.0
C253 C 0.65223 0.93116 0.07899 0.0
C254 C 0.67925 0.91845 0.07885 0.0
C255 C 0.67123 0.89146 0.05757 0.0
C256 C 0.63536 0.8762 0.03828 0.0
C257 C 0.60834 0.88872 0.03871 0.0
C258 C 0.61907 0.04537 0.08082 0.0
C259 C 0.63481 0.03126 0.98997 0.0
O260 O 0.60497 0.11429 0.99878 0.0
O261 O 0.54786 0.09843 0.97008 0.0
O262 O 0.5569 0.03916 0.94295 0.0
O263 O 0.5428 1.01025 0.98554 0.0
O264 O 0.54747 0.05359 0.03557 0.0
O265 O 0.53157 0.99646 0.03717 0.0
O266 O 0.57271 0.94379 0.01965 0.0
O267 O 0.59521 0.95451 0.07712 0.0
O268 O 0.60239 1.01632 0.09015 0.0
O269 O 0.61803 0.04565 0.04855 0.0
O270 O 0.6218 1.00347 1.00615 0.0
O271 O 0.62453 0.05867 0.98676 0.0
H272 H 0.54767 0.17649 0.95244 0.0
H273 H 0.53109 0.21174 0.98285 0.0
H274 H 0.57502 0.15938 0.08627 0.0
H275 H 0.59006 0.12349 0.05544 0.0
H276 H 0.65942 0.953 0.0942 0.0
H277 H 0.70651 0.9305 0.09444 0.0
H278 H 0.62813 0.85572 0.02112 0.0
H279 H 0.58105 0.87745 0.02231 0.0
C280 C 0.30852 0.29038 0.36194 0.0
Eu281 Eu 0.31503 0.29073 0.29955 0.0
C282 C 0.28155 0.29175 0.37568 0.0
C283 C 0.28373 0.278 0.41077 0.0
C284 C 0.25786 0.27826 0.42418 0.0
C285 C 0.22969 0.29266 0.40276 0.0
C286 C 0.22754 0.30637 0.3675 0.0
C287 C 0.25321 0.3057 0.35393 0.0
C288 C 0.3655 0.3296 0.27466 0.0
C289 C 0.26906 0.32517 0.22374 0.0
C290 C 0.31884 0.26747 0.16689 0.0
Eu291 Eu 0.31403 0.26901 0.22989 0.0
C292 C 0.34521 0.26479 0.15297 0.0
C293 C 0.34207 0.27632 0.11704 0.0
C294 C 0.36793 0.27553 0.10384 0.0
C295 C 0.39721 0.26296 0.12638 0.0
C296 C 0.4 0.25112 0.16235 0.0
C297 C 0.37426 0.25218 0.17561 0.0
C298 C 0.26278 0.23047 0.2541 0.0
C299 C 0.36284 0.23665 0.30632 0.0
O300 O 0.30208 0.26329 0.34562 0.0
O301 O 0.32132 0.31755 0.34511 0.0
O302 O 0.35041 0.34098 0.29133 0.0
O303 O 0.35538 0.29831 0.27498 0.0
O304 O 0.27228 0.31652 0.25849 0.0
O305 O 0.28539 0.31223 0.20864 0.0
O306 O 0.32633 0.29493 0.18292 0.0
O307 O 0.30591 0.24099 0.18439 0.0
O308 O 0.27779 0.21909 0.23746 0.0
O309 O 0.27344 0.26171 0.25424 0.0
O310 O 0.35624 0.24232 0.2705 0.0
O311 O 0.34859 0.25136 0.32217 0.0
H312 H 0.30544 0.26703 0.4278 0.0
H313 H 0.26033 0.26792 0.4516 0.0
H314 H 0.20594 0.31744 0.35042 0.0
H315 H 0.25094 0.31603 0.32654 0.0
H316 H 0.31983 0.28631 0.09934 0.0
H317 H 0.36518 0.28505 0.07613 0.0
H318 H 0.4219 0.24075 0.18017 0.0
H319 H 0.37715 0.24338 0.20354 0.0
C320 C 0.66716 0.53889 0.05191 0.0
Eu321 Eu 0.59929 0.52667 0.03572 0.0
C322 C 0.68829 0.56166 0.03189 0.0
C323 C 0.67568 0.56163 0.99362 0.0
C324 C 0.6913 0.58705 0.97369 0.0
C325 C 0.71989 0.61311 0.99149 0.0
C326 C 0.73314 0.61287 0.02985 0.0
C327 C 0.71742 0.58723 0.04995 0.0
C328 C 0.54887 0.47505 0.99818 0.0
C329 C 0.56734 0.57237 0.9625 0.0
C330 C 0.45623 0.5233 0.99515 0.0
Eu331 Eu 0.52411 0.53337 1.01218 0.0
C332 C 0.4316 0.49461 1.00541 0.0
C333 C 0.40669 0.50009 1.01745 0.0
C334 C 0.39243 0.47564 0.0395 0.0
C335 C 0.40305 0.44573 0.04946 0.0
C336 C 0.4245 0.43869 0.03379 0.0
C337 C 0.43875 0.46306 1.01181 0.0
C338 C 0.57551 0.58395 0.05119 0.0
C339 C 0.55589 0.48701 0.0842 0.0
O340 O 0.65307 0.55373 0.06673 0.0
O341 O 0.64471 0.5123 0.03531 0.0
O342 O 0.57787 0.47174 0.02488 0.0
O343 O 0.54876 0.50548 0.99105 0.0
O344 O 0.59588 0.567 0.98977 0.0
O345 O 0.53518 0.55776 0.96248 0.0
O346 O 0.47004 0.51768 0.97319 0.0
O347 O 0.47995 0.54061 0.02271 0.0
O348 O 0.54734 0.58845 0.02399 0.0
O349 O 0.5742 0.55334 0.05727 0.0
O350 O 0.52743 0.49014 0.05528 0.0
O351 O 0.58787 0.50454 0.08586 0.0
H352 H 0.65264 0.54283 0.9788 0.0
H353 H 0.68004 0.58695 0.94412 0.0
H354 H 0.75521 0.63265 0.0442 0.0
H355 H 0.72703 0.58807 0.07941 0.0
H356 H 0.40112 0.52435 1.013 0.0
H357 H 0.37612 0.48143 0.05181 0.0
H358 H 0.43311 0.41577 0.04158 0.0
H359 H 0.45818 0.45835 1.00313 0.0
C360 C 0.87987 0.25116 0.36931 0.0
Eu361 Eu 0.83116 0.26256 0.30805 0.0
C362 C 0.91492 0.24599 0.37635 0.0
C363 C 0.92519 0.21873 0.39876 0.0
C364 C 0.95675 0.21173 0.40271 0.0
C365 C 0.97892 0.23207 0.38456 0.0
C366 C 0.96903 0.25996 0.36286 0.0
C367 C 0.93726 0.2668 0.35868 0.0
C368 C 0.77263 0.22329 0.26167 0.0
C369 C 0.86146 0.25366 0.24206 0.0
C370 C 0.75333 0.30505 0.17249 0.0
Eu371 Eu 0.80255 0.29428 0.23382 0.0
C372 C 0.71929 0.31244 0.16529 0.0
C373 C 0.71684 0.33344 0.18775 0.0
C374 C 0.6838 0.33657 0.1844 0.0
C375 C 0.65261 0.31894 0.15841 0.0
C376 C 0.65501 0.29812 0.13567 0.0
C377 C 0.68815 0.29467 0.13933 0.0
C378 C 0.86155 0.33309 0.27985 0.0
C379 C 0.77305 0.30373 0.30053 0.0
O380 O 0.87608 0.28108 0.35654 0.0
O381 O 0.85227 0.22756 0.35259 0.0
O382 O 0.7786 0.22291 0.2965 0.0
O383 O 0.79859 0.24237 0.25457 0.0
O384 O 0.86465 0.25028 0.27745 0.0
O385 O 0.83799 0.26996 0.21866 0.0
O386 O 0.75504 0.27528 0.18766 0.0
O387 O 0.78251 0.32807 0.18737 0.0
O388 O 0.85566 0.33312 0.24506 0.0
O389 O 0.83543 0.31452 0.28706 0.0
O390 O 0.77059 0.30811 0.26532 0.0
O391 O 0.79539 0.28614 0.32346 0.0
H392 H 0.90823 0.20223 0.41229 0.0
H393 H 0.96302 0.1895 0.41891 0.0
H394 H 0.98551 0.27617 0.34869 0.0
H395 H 0.92984 0.28795 0.3409 0.0
H396 H 0.74043 0.34723 0.20815 0.0
H397 H 0.68267 0.35361 0.20139 0.0
H398 H 0.6313 0.28469 0.11504 0.0
H399 H 0.68945 0.27781 0.12226 0.0
C400 C 1.05857 0.61915 0.4852 0.0
Eu401 Eu 1.06544 0.55867 0.50442 0.0
C402 C 1.0414 0.63826 0.49772 0.0
C403 C 1.01473 0.65239 0.47192 0.0
C404 C 0.9927 0.66397 0.48301 0.0
C405 C 0.99707 0.66169 0.52014 0.0
C406 C 1.02529 0.64954 0.54614 0.0
C407 C 1.04713 0.63776 0.53504 0.0
C408 C 1.03128 0.5067 0.46002 0.0
C409 C 1.013 0.52406 0.54862 0.0
C410 C 0.07304 0.4312 0.5654 0.0
Eu411 Eu 0.06997 0.49264 0.54418 0.0
C412 C 0.07758 0.4044 0.54967 0.0
C413 C 0.08915 0.37761 0.57222 0.0
C414 C 0.09681 0.35369 0.55798 0.0
C415 C 0.09279 0.35625 0.52093 0.0
C416 C 0.07978 0.38245 0.49813 0.0
C417 C 0.07247 0.40646 0.51245 0.0
C418 C 0.10447 0.54516 0.58838 0.0
C419 C 0.12015 0.52597 0.49736 0.0
O420 O 0.08778 0.61235 0.50911 0.0
O421 O 1.03685 0.59339 0.46668 0.0
O422 O 1.04834 0.53554 0.4506 0.0
O423 O 1.03122 0.50698 0.49176 0.0
O424 O 1.03101 0.55225 0.53778 0.0
O425 O 1.01984 0.49551 0.5484 0.0
O426 O 1.04334 0.44011 0.54803 0.0
O427 O 0.10059 0.45675 0.57501 0.0
O428 O 0.08748 0.51642 0.59796 0.0
O429 O 0.10437 0.5443 0.55675 0.0
O430 O 0.10144 0.49792 0.50784 0.0
O431 O 0.11494 0.55506 0.49906 0.0
H432 H 1.00971 0.65281 0.443 0.0
H433 H 0.97149 0.67368 0.46242 0.0
H434 H 1.0292 0.6472 0.57491 0.0
H435 H 1.06717 0.62657 0.55558 0.0
H436 H 0.09328 0.37578 0.60104 0.0
H437 H 0.10686 0.33376 0.57609 0.0
H438 H 0.07711 0.38543 0.46966 0.0
H439 H 1.06402 0.42726 0.49475 0.0
C440 C 0.76279 0.84716 0.26177 0.0
Eu441 Eu 0.79911 0.80641 0.26319 0.0
C442 C 0.72824 0.84081 0.26582 0.0
C443 C 0.69981 0.85027 0.23709 0.0
C444 C 0.66665 0.84361 0.24012 0.0
C445 C 0.66138 0.82754 0.2721 0.0
C446 C 0.68958 0.81701 0.30027 0.0
C447 C 0.72263 0.82354 0.29716 0.0
C448 C 0.76975 0.75901 0.21337 0.0
C449 C 0.77512 0.73928 0.32278 0.0
C450 C 0.86149 0.71308 0.2739 0.0
Eu451 Eu 0.83633 0.75948 0.28226 0.0
C452 C 0.86589 0.7074 0.24087 0.0
C453 C 0.88488 0.68494 0.24174 0.0
C454 C 0.88835 0.67964 0.20974 0.0
C455 C 0.87343 0.69728 0.17655 0.0
C456 C 0.85419 0.71963 0.17596 0.0
C457 C 0.85011 0.72431 0.20774 0.0
C458 C 0.86705 0.80556 0.33338 0.0
C459 C 0.86131 0.82675 0.22395 0.0
O460 O 0.7894 0.84132 0.29079 0.0
O461 O 0.76156 0.83627 0.23228 0.0
O462 O 0.77588 0.79062 0.20466 0.0
O463 O 0.78004 0.75424 0.24756 0.0
O464 O 0.76993 0.76853 0.3035 0.0
O465 O 0.80168 0.73009 0.31927 0.0
O466 O 0.82853 0.70847 0.27033 0.0
O467 O 0.8818 0.74054 0.28987 0.0
O468 O 0.86311 0.77367 0.34092 0.0
O469 O 0.85527 0.81188 0.29916 0.0
O470 O 0.86212 0.79512 0.23834 0.0
O471 O 0.83914 0.8386 0.23263 0.0
H472 H 0.70335 0.86307 0.21238 0.0
H473 H 0.64539 0.85187 0.21788 0.0
H474 H 0.68672 0.80517 0.32558 0.0
H475 H 0.74387 0.81548 0.31963 0.0
H476 H 0.89669 0.67131 0.26697 0.0
H477 H 0.90245 0.66144 0.21101 0.0
H478 H 0.84249 0.73374 0.15112 0.0
H479 H 0.83438 0.74104 0.20634 0.0
C480 C 0.90592 0.35317 0.75902 0.0
Eu481 Eu 0.85395 0.3029 0.76296 0.0
C482 C 0.91101 0.38847 0.74676 0.0
C483 C 0.88492 0.40551 0.74027 0.0
C484 C 0.88976 0.43882 0.72688 0.0
C485 C 0.92104 0.45559 0.72044 0.0
C486 C 0.94773 0.43864 0.72881 0.0
C487 C 0.94267 0.40541 0.74173 0.0
C488 C 0.80774 0.25741 0.71409 0.0
C489 C 0.77906 0.33042 0.73677 0.0
C490 C 0.7458 0.20906 0.79332 0.0
Eu491 Eu 0.79318 0.26099 0.78334 0.0
C492 C 0.75006 0.1768 0.81264 0.0
C493 C 0.78269 0.17414 0.83973 0.0
C494 C 0.78741 0.14329 0.85702 0.0
C495 C 0.75912 0.11449 0.8486 0.0
C496 C 0.72664 0.11734 0.82059 0.0
C497 C 0.72234 0.14812 0.8026 0.0
C498 C 0.8396 0.30639 0.83212 0.0
C499 C 0.86733 0.23274 0.80777 0.0
O500 O 0.89677 0.34516 0.78765 0.0
O501 O 0.88844 0.33144 0.73369 0.0
O502 O 0.84192 0.26486 0.72201 0.0
O503 O 0.79996 0.27531 0.73071 0.0
O504 O 0.81361 0.33707 0.74188 0.0
O505 O 0.76358 0.3006 0.74841 0.0
O506 O 0.75337 0.21501 0.76367 0.0
O507 O 0.75906 0.23486 0.81365 0.0
O508 O 0.80547 0.29934 0.82401 0.0
O509 O 0.8471 0.28822 0.81556 0.0
O510 O 0.83296 0.22651 0.80286 0.0
O511 O 0.88298 0.26246 0.79631 0.0
H512 H 0.86067 0.39294 0.74495 0.0
H513 H 0.86877 0.45115 0.72074 0.0
H514 H 0.97188 0.45042 0.72348 0.0
H515 H 0.9632 0.3927 0.74697 0.0
H516 H 0.80454 0.19601 0.84797 0.0
H517 H 0.81299 0.14238 0.87778 0.0
H518 H 0.70371 0.09624 0.81361 0.0
H519 H 0.69708 0.14964 0.78142 0.0
C520 C 0.86516 0.83705 0.86178 0.0
Eu521 Eu 0.84171 0.81172 0.79821 0.0
C522 C 0.84807 0.84076 0.88616 0.0
C523 C 0.86828 0.857 0.9188 0.0
C524 C 0.85216 0.85913 0.94283 0.0
C525 C 0.81562 0.84487 0.93455 0.0
C526 C 0.79568 0.82813 0.90198 0.0
C527 C 0.81173 0.82631 0.8779 0.0
C528 C 0.86892 0.82424 0.74518 0.0
C529 C 0.77595 0.83195 0.72731 0.0
C530 C 0.77668 0.73237 0.67735 0.0
Eu531 Eu 0.80278 0.76207 0.73853 0.0
C532 C 0.79171 0.71737 0.65818 0.0
C533 C 0.77799 0.71807 0.61988 0.0
C534 C 0.79526 0.70825 0.60121 0.0
C535 C 0.8263 0.69735 0.62069 0.0
C536 C 0.83901 0.69526 0.6591 0.0
C537 C 0.822 0.70542 0.6777 0.0
C538 C 0.77685 0.75103 0.79274 0.0
C539 C 0.86861 0.7417 0.80806 0.0
O540 O 0.86297 0.80626 0.85747 0.0
O541 O 0.8588 0.85504 0.83092 0.0
O542 O 0.87168 0.84694 0.76545 0.0
O543 O 0.85661 0.7956 0.75724 0.0
O544 O 0.79771 0.83836 0.7617 0.0
O545 O 0.77456 0.80486 0.71283 0.0
O546 O 0.78858 0.7647 0.67949 0.0
O547 O 0.77465 0.71711 0.70811 0.0
O548 O 0.77669 0.7274 0.7754 0.0
O549 O 0.78801 0.77901 0.77895 0.0
O550 O 0.84739 0.73592 0.77344 0.0
O551 O 0.86944 0.76829 0.82303 0.0
H552 H 0.89647 0.86801 0.92568 0.0
H553 H 0.86815 0.87246 0.9675 0.0
H554 H 0.76763 0.81639 0.89509 0.0
H555 H 0.79582 0.81345 0.85291 0.0
H556 H 0.75479 0.72749 0.60443 0.0
H557 H 0.78492 0.70998 0.57159 0.0
H558 H 0.86315 0.68736 0.67475 0.0
H559 H 0.83326 0.7051 0.70729 0.0
C560 C 0.55389 0.58909 0.58685 0.0
Eu561 Eu 0.57743 0.55732 0.55058 0.0
C562 C 0.53639 0.60573 0.60585 0.0
C563 C 0.55513 0.63233 0.62991 0.0
C564 C 0.53787 0.64802 0.64525 0.0
C565 C 0.50052 0.63817 0.63803 0.0
C566 C 0.48204 0.61137 0.61412 0.0
C567 C 0.49919 0.59599 0.59859 0.0
C568 C 0.61628 0.58609 0.49873 0.0
C569 C 0.51832 0.56201 0.46525 0.0
C570 C 0.5848 0.46932 0.45935 0.0
Eu571 Eu 0.56172 0.50131 0.49594 0.0
C572 C 0.60216 0.45224 0.44058 0.0
C573 C 0.5828 0.42847 0.41322 0.0
C574 C 0.59975 0.41268 0.39759 0.0
C575 C 0.63747 0.41947 0.40791 0.0
C576 C 0.65657 0.44336 0.43527 0.0
C577 C 0.63967 0.45893 0.45092 0.0
C578 C 0.52247 0.4729 0.54755 0.0
C579 C 0.62122 0.49682 0.58117 0.0
O580 O 0.53418 0.56776 0.56157 0.0
O581 O 0.588 0.59273 0.59391 0.0
O582 O 0.61706 0.59932 0.52711 0.0
O583 O 0.59511 0.55629 0.50177 0.0
O584 O 0.53413 0.57147 0.49928 0.0
O585 O 0.52503 0.53578 0.45589 0.0
O586 O 0.60469 0.49001 0.48524 0.0
O587 O 0.55075 0.46635 0.45196 0.0
O588 O 0.5216 0.4596 0.51917 0.0
O589 O 0.54392 0.5025 0.54453 0.0
O590 O 0.60529 0.48728 0.54715 0.0
O591 O 0.61438 0.52296 0.59055 0.0
H592 H 0.58351 0.64152 0.63678 0.0
H593 H 0.55437 0.66799 0.66334 0.0
H594 H 0.45359 0.60228 0.60644 0.0
H595 H 0.48273 0.57611 0.58032 0.0
H596 H 0.5541 0.42174 0.40376 0.0
H597 H 0.58274 0.39511 0.3768 0.0
H598 H 0.68525 0.45001 0.44554 0.0
H599 H 0.65659 0.47651 0.47178 0.0
C600 C 0.10402 0.51924 0.94155 0.0
Eu601 Eu 0.08456 0.53699 0.98838 0.0
C602 C 0.12136 0.49272 0.9449 0.0
C603 C 0.14788 0.49842 0.93038 0.0
C604 C 0.16704 0.47471 0.93664 0.0
C605 C 0.16015 0.44515 0.95784 0.0
C606 C 0.13355 0.43938 0.97234 0.0
C607 C 0.11403 0.46291 0.96564 0.0
C608 C 0.12194 0.58778 0.03356 0.0
C609 C 0.11489 0.49059 0.06538 0.0
C610 C 1.03656 0.55321 0.08936 0.0
Eu611 Eu 1.05912 0.53465 0.04614 0.0
C612 C 1.00629 0.56822 0.07812 0.0
C613 C 0.97261 0.55226 0.05391 0.0
C614 C 0.94532 0.56861 0.03951 0.0
C615 C 0.95145 0.60136 0.04846 0.0
C616 C 0.98516 0.61736 0.07235 0.0
C617 C 1.01227 0.60089 0.08715 0.0
C618 C 1.02135 0.48391 1.00127 0.0
C619 C 1.02799 0.58104 0.96847 0.0
O620 O 0.07147 0.50941 0.94092 0.0
O621 O 0.12345 0.54385 0.96288 0.0
O622 O 0.11238 0.59149 0.99823 0.0
O623 O 0.11199 0.55761 0.04341 0.0
O624 O 0.10728 0.49511 0.02939 0.0
O625 O 0.1024 0.50743 0.0807 0.0
O626 O 1.06355 0.57183 0.08104 0.0
O627 O 1.02916 0.52189 0.08237 0.0
O628 O 1.03031 0.48053 0.03653 0.0
O629 O 1.0317 0.51397 0.99122 0.0
O630 O 1.02979 0.57153 1.00269 0.0
O631 O 1.04644 0.56964 0.95493 0.0
H632 H 0.15415 0.5214 0.91473 0.0
H633 H 0.18761 0.47963 0.92529 0.0
H634 H 0.12759 0.41658 0.98836 0.0
H635 H 0.0935 0.4579 0.977 0.0
H636 H 0.96739 0.52733 0.04566 0.0
H637 H 0.91943 0.55568 0.0215 0.0
H638 H 0.99029 0.64232 0.08052 0.0
H639 H 1.03812 0.61389 0.1052 0.0
C640 C 0.22782 0.22466 0.8582 0.0
C641 C 0.25313 0.21428 0.84904 0.0
C642 C 0.20628 0.2047 0.88023 0.0
C643 C 0.20789 0.17112 0.89698 0.0
C644 C 0.23384 0.16077 0.8882 0.0
C645 C 0.25442 0.18104 0.86543 0.0
C646 C 0.18086 0.22084 0.88478 0.0
C647 C 0.24121 0.12736 0.90339 0.0
C648 C 0.16548 0.13804 0.98005 0.0
C649 C 0.14007 0.1059 0.97235 0.0
C650 C 0.18659 0.15784 0.95773 0.0
C651 C 0.18419 0.14824 0.92297 0.0
C652 C 0.1582 0.11579 0.9146 0.0
C653 C 0.13799 0.09607 0.93815 0.0
C654 C 0.21244 0.18991 0.97303 0.0
C655 C 0.15036 0.10087 0.87945 0.0
H656 H 0.22417 0.2493 0.84763 0.0
H657 H 0.27251 0.17014 0.86075 0.0
H658 H 0.15966 0.20251 0.89261 0.0
H659 H 0.19588 0.23926 0.90619 0.0
H660 H 0.16828 0.23472 0.85905 0.0
H661 H 0.23414 0.11831 0.92795 0.0
H662 H 0.22557 0.10897 0.88205 0.0
H663 H 0.26968 0.12853 0.91066 0.0
H664 H 0.16956 0.14849 1.00503 0.0
H665 H 0.11962 0.07241 0.92876 0.0
H666 H 0.19787 0.20955 0.96665 0.0
H667 H 0.23388 0.1984 0.9617 0.0
H668 H 0.22476 0.18706 1.00328 0.0
H669 H 0.15794 0.11975 0.85913 0.0
H670 H 0.12168 0.08836 0.86716 0.0
H671 H 0.16524 0.08153 0.8854 0.0
C672 C 0.16098 0.97513 0.14677 0.0
C673 C 0.14698 0.97547 0.10806 0.0
C674 C 0.18259 0.95284 0.16924 0.0
C675 C 0.19129 0.92955 0.15357 0.0
C676 C 0.17759 0.93027 0.11467 0.0
C677 C 0.15627 0.95253 0.0931 0.0
C678 C 0.19592 0.95397 0.21017 0.0
C679 C 0.1852 0.90695 0.09531 0.0
C680 C 0.27164 0.88777 0.20597 0.0
C681 C 0.25579 0.85489 0.2162 0.0
C682 C 0.25163 0.912 0.1869 0.0
C683 C 0.21393 0.9043 0.17695 0.0
C684 C 0.19786 0.87125 0.18748 0.0
C685 C 0.21849 0.84752 0.20653 0.0
C686 C 0.27111 0.94612 0.17694 0.0
C687 C 0.15828 0.86057 0.17813 0.0
H688 H 0.15463 0.99193 0.15975 0.0
H689 H 0.14656 0.95162 0.06365 0.0
H690 H 0.1851 0.92946 0.22213 0.0
H691 H 0.22527 0.95868 0.22163 0.0
H692 H 0.18827 0.9736 0.21876 0.0
H693 H 0.17353 0.91052 0.06508 0.0
H694 H 0.21428 0.91084 0.10362 0.0
H695 H 0.17435 0.88072 0.10333 0.0
H696 H 0.3001 0.89475 0.2127 0.0
H697 H 0.20501 0.82274 0.21369 0.0
H698 H 0.26523 0.96554 0.18781 0.0
H699 H 0.26178 0.95037 0.14676 0.0
H700 H 0.3003 0.94931 0.18767 0.0
H701 H 0.14988 0.87815 0.18895 0.0
H702 H 0.14946 0.83498 0.18934 0.0
H703 H 0.1445 0.86135 0.148 0.0
C704 C 0.47944 0.92695 0.48643 0.0
C705 C 0.49513 0.95789 0.47294 0.0
C706 C 0.45272 0.90327 0.46268 0.0
C707 C 0.44161 0.9105 0.42441 0.0
C708 C 0.45777 0.94154 0.41058 0.0
C709 C 0.48418 0.96496 0.43503 0.0
C710 C 0.43633 0.87047 0.47859 0.0
C711 C 0.4472 0.94997 0.36997 0.0
C712 C 0.39707 0.83583 0.36501 0.0
C713 C 0.36098 0.83515 0.35337 0.0
C714 C 0.42354 0.86073 0.38717 0.0
C715 C 0.41372 0.88513 0.39901 0.0
C716 C 0.37727 0.88439 0.38772 0.0
C717 C 0.35129 0.85944 0.36489 0.0
C718 C 0.46203 0.86079 0.39803 0.0
C719 C 0.36574 0.90985 0.39997 0.0
H720 H 0.48778 0.92132 0.51569 0.0
H721 H 0.49631 0.98882 0.42447 0.0
H722 H 0.40719 0.8669 0.46929 0.0
H723 H 0.44086 0.84957 0.4687 0.0
H724 H 0.4474 0.86895 0.50896 0.0
H725 H 0.46224 0.97517 0.36362 0.0
H726 H 0.45185 0.93136 0.35672 0.0
H727 H 0.41843 0.94883 0.35763 0.0
H728 H 0.40475 0.8168 0.35667 0.0
H729 H 0.32345 0.85896 0.35604 0.0
H730 H 0.47421 0.85712 0.42816 0.0
H731 H 0.47705 0.88524 0.39001 0.0
H732 H 0.46527 0.84094 0.38517 0.0
H733 H 0.37465 0.90828 0.43024 0.0
H734 H 0.33648 0.90624 0.38836 0.0
H735 H 0.37837 0.93535 0.39165 0.0
C736 C 0.33637 0.17168 0.60371 0.0
C737 C 0.36304 0.1705 0.63833 0.0
C738 C 0.33948 0.16286 0.57279 0.0
C739 C 0.36946 0.15188 0.57698 0.0
C740 C 0.39713 0.15213 0.61176 0.0
C741 C 0.39365 0.16177 0.64177 0.0
C742 C 0.31045 0.16457 0.53604 0.0
C743 C 0.43027 0.14146 0.61783 0.0
C744 C 0.38273 0.08652 0.53753 0.0
C745 C 0.41252 0.10573 0.52983 0.0
C746 C 0.36194 0.10206 0.54613 0.0
C747 C 0.37163 0.13728 0.54671 0.0
C748 C 0.39554 0.1562 0.52973 0.0
C749 C 0.41628 0.14007 0.52175 0.0
C750 C 0.33526 0.08072 0.56226 0.0
C751 C 0.40458 0.19376 0.52702 0.0
H752 H 0.31271 0.17871 0.60091 0.0
H753 H 0.41489 0.1621 0.66826 0.0
H754 H 0.32189 0.17688 0.51503 0.0
H755 H 0.29527 0.13898 0.52763 0.0
H756 H 0.29177 0.17826 0.53647 0.0
H757 H 0.4487 0.14262 0.64682 0.0
H758 H 0.42317 0.1155 0.60974 0.0
H759 H 0.44474 0.15788 0.60091 0.0
H760 H 0.37903 0.05976 0.54264 0.0
H761 H 0.43844 0.15481 0.5141 0.0
H762 H 0.31267 0.09182 0.55577 0.0
H763 H 0.34833 0.07868 0.59247 0.0
H764 H 0.32487 0.05516 0.55213 0.0
H765 H 0.38181 0.20328 0.52434 0.0
H766 H 0.41293 0.20369 0.50332 0.0
H767 H 0.42707 0.20339 0.55216 0.0
C768 C 1.04439 0.96097 0.6198 0.0
C769 C 0.0729 0.98845 0.62006 0.0
C770 C 1.05086 0.93112 0.63924 0.0
C771 C 0.08637 0.92916 0.6581 0.0
C772 C 0.11391 0.95897 0.66534 0.0
C773 C 0.10659 0.98866 0.64647 0.0
C774 C 1.02025 0.90072 0.63432 0.0
C775 C 0.15219 0.95862 0.68695 0.0
C776 C 0.13086 0.85873 0.69187 0.0
C777 C 0.13834 0.85622 0.66114 0.0
C778 C 0.10897 0.87896 0.69005 0.0
C779 C 0.09619 0.89821 0.65743 0.0
C780 C 0.10055 0.89272 0.62533 0.0
C781 C 0.12129 0.87138 0.62761 0.0
C782 C 0.10154 0.88134 0.72356 0.0
C783 C 0.08675 0.91203 0.58941 0.0
H784 H 1.01776 0.96113 0.60089 0.0
H785 H 0.12839 1.01059 0.64833 0.0
H786 H 1.01279 0.89052 0.60746 0.0
H787 H 1.02692 0.88098 0.6561 0.0
H788 H 0.99678 0.90759 0.63428 0.0
H789 H 0.16953 0.98413 0.69334 0.0
H790 H 0.15475 0.94352 0.71296 0.0
H791 H 0.16206 0.94722 0.67093 0.0
H792 H 0.14346 0.84618 0.71765 0.0
H793 H 0.12695 0.86908 0.60389 0.0
H794 H 0.07501 0.88598 0.71596 0.0
H795 H 0.12158 0.90231 0.73964 0.0
H796 H 0.10288 0.85816 0.74146 0.0
H797 H 1.05781 0.90891 0.58093 0.0
H798 H 0.09158 0.90384 0.56704 0.0
H799 H 0.09991 0.93901 0.59247 0.0
C800 C 0.38092 0.88017 0.8194 0.0
C801 C 0.39141 0.85979 0.8033 0.0
C802 C 0.40605 0.90476 0.84304 0.0
C803 C 0.44275 0.90817 0.85207 0.0
C804 C 0.45347 0.88719 0.83621 0.0
C805 C 0.4276 0.86365 0.81139 0.0
C806 C 0.39326 0.92713 0.85829 0.0
C807 C 0.49222 0.88906 0.84613 0.0
C808 C 0.50707 0.99042 0.88954 0.0
C809 C 0.51672 0.98363 0.92742 0.0
C810 C 0.48328 0.96608 0.86475 0.0
C811 C 0.46965 0.93372 0.8781 0.0
C812 C 0.48024 0.92643 0.9164 0.0
C813 C 0.50304 0.95165 0.94055 0.0
C814 C 0.47188 0.97533 0.82426 0.0
C815 C 0.46723 0.89207 0.9319 0.0
H816 H 0.35285 0.87707 0.81315 0.0
H817 H 0.43564 0.84748 0.79933 0.0
H818 H 0.40214 0.92318 0.88846 0.0
H819 H 0.40495 0.95367 0.85207 0.0
H820 H 0.36388 0.92248 0.84698 0.0
H821 H 0.49616 0.87026 0.83245 0.0
H822 H 0.50609 0.91423 0.83839 0.0
H823 H 0.50496 0.88501 0.87616 0.0
H824 H 0.51738 1.01513 0.87917 0.0
H825 H 0.51019 0.94628 0.96975 0.0
H826 H 0.44272 0.97223 0.81242 0.0
H827 H 0.478 0.95845 0.81023 0.0
H828 H 0.48508 1.00146 0.81826 0.0
H829 H 0.4383 0.88679 0.92567 0.0
H830 H 0.48086 0.88945 0.962 0.0
H831 H 0.47147 0.87291 0.91902 0.0
C832 C 0.5362 0.23916 0.04542 0.0
C833 C 0.53606 0.20537 0.05408 0.0
C834 C 0.51738 0.25403 0.05798 0.0
C835 C 0.49772 0.23445 0.07918 0.0
C836 C 0.49898 0.20084 0.08948 0.0
C837 C 0.51812 0.18675 0.07681 0.0
C838 C 0.5171 0.29008 0.04695 0.0
C839 C 0.47848 0.17911 0.11221 0.0
C840 C 0.46014 0.26793 0.13413 0.0
C841 C 0.42397 0.26069 0.11208 0.0
C842 C 0.48505 0.26149 0.12274 0.0
C843 C 0.47349 0.24779 0.08848 0.0
C844 C 0.43746 0.24273 0.06503 0.0
C845 C 0.41308 0.24912 0.07718 0.0
C846 C 0.52334 0.26753 0.14815 0.0
C847 C 0.42422 0.22849 0.02807 0.0
H848 H 0.55037 0.25377 0.0282 0.0
H849 H 0.51752 0.16056 0.08325 0.0
H850 H 0.49206 0.29132 0.02372 0.0
H851 H 0.51809 0.30303 0.06965 0.0
H852 H 0.5397 0.30366 0.03826 0.0
H853 H 0.48531 0.15472 0.12108 0.0
H854 H 0.48372 0.19183 0.13689 0.0
H855 H 0.44961 0.17441 0.09598 0.0
H856 H 0.46882 0.27773 0.16074 0.0
H857 H 0.38517 0.2434 0.06004 0.0
H858 H 0.54085 0.28246 0.13349 0.0
H859 H 0.53062 0.24339 0.15745 0.0
H860 H 0.52848 0.28058 0.17257 0.0
H861 H 0.44101 0.24259 1.0123 0.0
H862 H 0.39623 0.22908 1.01178 0.0
H863 H 0.42604 0.20223 0.03173 0.0
C864 C 0.2483 0.14642 0.4367 0.0
C865 C 0.21761 0.12184 0.43596 0.0
C866 C 0.25098 0.16407 0.40454 0.0
C867 C 0.22202 0.15705 0.371 0.0
C868 C 0.19042 0.13299 0.37034 0.0
C869 C 0.18871 0.11541 0.40291 0.0
C870 C 0.28529 0.18932 0.40634 0.0
C871 C 0.15887 0.12504 0.33523 0.0
C872 C 0.22947 0.22301 0.29569 0.0
C873 C 0.24647 0.20973 0.27943 0.0
C874 C 0.21886 0.20497 0.32406 0.0
C875 C 0.22614 0.17343 0.33658 0.0
C876 C 0.24121 0.15911 0.31859 0.0
C877 C 0.25095 0.17739 0.28995 0.0
C878 C 0.20157 0.22026 0.3419 0.0
C879 C 0.24917 0.12542 0.33107 0.0
H880 H 0.27055 0.15116 0.46222 0.0
H881 H 0.16475 0.09662 0.40262 0.0
H882 H 0.29902 0.17976 0.39291 0.0
H883 H 0.27986 0.21293 0.39134 0.0
H884 H 0.30348 0.19474 0.43491 0.0
H885 H 0.13461 0.11005 0.34034 0.0
H886 H 0.1533 0.14821 0.31903 0.0
H887 H 0.16481 0.11067 0.31834 0.0
H888 H 0.2257 0.24794 0.2872 0.0
H889 H 0.26393 0.16703 0.27721 0.0
H890 H 0.2194 0.22537 0.37057 0.0
H891 H 0.17664 0.20256 0.34284 0.0
H892 H 0.19537 0.24381 0.32723 0.0
H893 H 0.27067 0.12699 0.35844 0.0
H894 H 0.2577 0.11648 0.31197 0.0
H895 H 0.22548 0.10668 0.33373 0.0
C896 C 0.90627 0.2174 0.25056 0.0
C897 C 0.88336 0.23765 0.22791 0.0
C898 C 0.92534 0.20179 0.23736 0.0
C899 C 0.92267 0.20569 0.19985 0.0
C900 C 0.89986 0.22636 0.17701 0.0
C901 C 0.88094 0.24149 0.19085 0.0
C902 C 0.9481 0.18028 0.26397 0.0
C903 C 0.89525 0.23266 0.13721 0.0
C904 C 0.99601 0.18764 0.17017 0.0
C905 C 0.98054 0.15599 0.15431 0.0
C906 C 0.97817 0.20351 0.18473 0.0
C907 C 0.94298 0.18831 0.18457 0.0
C908 C 0.92735 0.1563 0.16908 0.0
C909 C 0.94565 0.14108 0.15449 0.0
C910 C 0.99727 0.23726 0.20024 0.0
C911 C 0.89072 0.13758 0.16805 0.0
H912 H 0.90919 0.2133 0.2791 0.0
H913 H 0.86387 0.25658 0.17208 0.0
H914 H 0.93547 0.15378 0.25733 0.0
H915 H 0.97453 0.1867 0.26159 0.0
H916 H 0.95174 0.18282 0.29269 0.0
H917 H 0.8779 0.24982 0.12274 0.0
H918 H 0.92151 0.24352 0.13458 0.0
H919 H 0.88353 0.20873 0.12346 0.0
H920 H 1.02237 0.20076 0.17082 0.0
H921 H 0.93224 0.11674 0.14353 0.0
H922 H 0.99894 0.23641 0.22889 0.0
H923 H 0.98205 0.25575 0.18437 0.0
H924 H 1.02453 0.24602 0.1997 0.0
H925 H 0.89034 0.13371 0.19617 0.0
H926 H 0.88175 0.11294 0.15602 0.0
H927 H 0.87144 0.1525 0.15181 0.0
C928 C 0.1399 0.49495 0.46359 0.0
C929 C 0.14325 0.52465 0.47808 0.0
C930 C 0.15594 0.49525 0.43852 0.0
C931 C 0.17534 0.52599 0.4277 0.0
C932 C 0.1819 0.55529 0.4454 0.0
C933 C 0.1658 0.55417 0.47041 0.0
C934 C 0.14968 0.46306 0.42196 0.0
C935 C 0.20326 0.58865 0.4356 0.0
C936 C 0.23006 0.55576 0.37003 0.0
C937 C 0.20694 0.57216 0.34181 0.0
C938 C 0.21839 0.53448 0.39622 0.0
C939 C 0.18312 0.52991 0.39376 0.0
C940 C 0.15821 0.54023 0.36111 0.0
C941 C 0.17048 0.56148 0.33544 0.0
C942 C 0.24497 0.52121 0.42915 0.0
C943 C 0.11968 0.53391 0.35623 0.0
H944 H 0.12298 0.47181 0.46994 0.0
H945 H 0.16925 0.57697 0.48235 0.0
H946 H 0.12278 0.4574 0.40044 0.0
H947 H 0.16943 0.4642 0.40962 0.0
H948 H 0.15053 0.44207 0.44301 0.0
H949 H 0.20746 0.60842 0.45349 0.0
H950 H 0.22961 0.58668 0.4379 0.0
H951 H 0.1893 0.59667 0.40689 0.0
H952 H 0.25802 0.56241 0.37404 0.0
H953 H 0.15196 0.57306 0.31323 0.0
H954 H 0.23209 0.49719 0.44025 0.0
H955 H 0.2569 0.53937 0.45088 0.0
H956 H 0.26673 0.51764 0.42228 0.0
H957 H 0.10933 0.50783 0.36503 0.0
H958 H 0.10292 0.53863 0.32735 0.0
H959 H 0.11715 0.55066 0.37345 0.0
C960 C 0.66379 0.95944 0.57786 0.0
C961 C 0.63789 0.9663 0.58779 0.0
C962 C 0.68648 0.93858 0.60038 0.0
C963 C 0.68319 0.92261 0.63382 0.0
C964 C 0.65659 0.92897 0.64357 0.0
C965 C 0.63507 0.95079 0.62116 0.0
C966 C 0.71458 0.93406 0.58847 0.0
C967 C 0.65044 0.91229 0.67779 0.0
C968 C 0.72063 0.84366 0.67396 0.0
C969 C 0.75197 0.85518 0.70409 0.0
C970 C 0.69817 0.86476 0.65175 0.0
C971 C 0.70709 0.89928 0.65821 0.0
C972 C 0.73899 0.91118 0.68829 0.0
C973 C 0.76037 0.88924 0.71085 0.0
C974 C 0.6644 0.84978 0.62131 0.0
C975 C 0.75103 0.94753 0.69642 0.0
H976 H 0.66697 0.97106 0.55261 0.0
H977 H 0.61542 0.9553 0.62967 0.0
H978 H 0.74105 0.94112 0.61048 0.0
H979 H 0.70958 0.90747 0.58362 0.0
H980 H 0.7154 0.94926 0.56309 0.0
H981 H 0.62779 0.91809 0.68099 0.0
H982 H 0.64513 0.88484 0.67726 0.0
H983 H 0.6746 0.92041 0.70213 0.0
H984 H 0.71318 0.81767 0.66791 0.0
H985 H 0.78438 0.89912 0.73346 0.0
H986 H 0.66543 0.86151 0.59458 0.0
H987 H 0.64139 0.85486 0.62445 0.0
H988 H 0.65981 0.82241 0.62076 0.0
H989 H 0.75328 0.96316 0.67173 0.0
H990 H 0.77703 0.95361 0.71933 0.0
H991 H 0.73106 0.95438 0.70351 0.0
C992 C 0.52755 0.41526 0.98243 0.0
C993 C 0.52131 0.44703 0.97718 0.0
C994 C 0.50222 0.38862 0.96192 0.0
C995 C 0.46938 0.39362 0.93632 0.0
C996 C 0.46242 0.42535 0.93202 0.0
C997 C 0.48887 0.45185 0.95171 0.0
C998 C 0.5113 0.35561 0.9664 0.0
C999 C 0.42733 0.43155 0.90598 0.0
C1000 C 0.42109 0.34292 0.85192 0.0
C1001 C 0.39527 0.31821 0.86171 0.0
C1002 C 0.44588 0.36687 0.87639 0.0
C1003 C 0.44401 0.36698 0.91114 0.0
C1004 C 0.41768 0.34219 0.92111 0.0
C1005 C 0.39395 0.31762 0.89643 0.0
C1006 C 0.47401 0.39219 0.86489 0.0
C1007 C 0.41412 0.34206 0.95743 0.0
H1008 H 0.55281 0.4115 1.0017 0.0
H1009 H 0.48414 0.4764 0.94699 0.0
H1010 H 0.49011 0.33507 0.97166 0.0
H1011 H 0.51301 0.35067 0.94067 0.0
H1012 H 0.53695 0.35506 0.98903 0.0
H1013 H 0.42425 0.45601 0.90962 0.0
H1014 H 0.42521 0.43107 0.87739 0.0
H1015 H 0.40501 0.41159 0.91003 0.0
H1016 H 0.42213 0.34331 0.82504 0.0
H1017 H 0.37362 0.29872 0.90374 0.0
H1018 H 0.50075 0.39223 0.88567 0.0
H1019 H 0.47017 0.41754 0.86294 0.0
H1020 H 0.47338 0.38718 0.83803 0.0
H1021 H 0.4383 0.33752 0.98001 0.0
H1022 H 0.39071 0.32265 0.95994 0.0
H1023 H 0.41166 0.36678 0.96105 0.0
C1024 C 0.89374 0.86482 0.35127 0.0
C1025 C 0.89282 0.8309 0.35965 0.0
C1026 C 0.91958 0.88933 0.37472 0.0
C1027 C 0.94574 0.8798 0.40691 0.0
C1028 C 0.94449 0.84549 0.41583 0.0
C1029 C 0.91782 0.82146 0.39233 0.0
C1030 C 0.91928 0.92551 0.36471 0.0
C1031 C 0.97198 0.83421 0.44964 0.0
C1032 C 1.03354 0.94522 0.44269 0.0
C1033 C 1.03044 0.95722 0.47186 0.0
C1034 C 1.00647 0.9197 0.42182 0.0
C1035 C 0.97538 0.90582 0.43018 0.0
C1036 C 0.97251 0.91733 0.4602 0.0
C1037 C 1.00002 0.94294 0.48062 0.0
C1038 C 1.01105 0.90775 0.3906 0.0
C1039 C 0.94004 0.90324 0.47028 0.0
H1040 H 0.87432 0.87222 0.32618 0.0
H1041 H 0.91732 0.79529 0.39896 0.0
H1042 H 0.91911 0.93703 0.38783 0.0
H1043 H 0.94374 0.93933 0.35942 0.0
H1044 H 0.89591 0.92867 0.34006 0.0
H1045 H 0.96657 0.8066 0.45347 0.0
H1046 H 0.99862 0.84415 0.4477 0.0
H1047 H 0.97297 0.84423 0.47426 0.0
H1048 H 1.05706 0.95604 0.43589 0.0
H1049 H 0.99752 0.95199 0.50326 0.0
H1050 H 0.99021 0.91289 0.3644 0.0
H1051 H 1.00785 0.88037 0.39398 0.0
H1052 H 1.03744 0.91999 0.38867 0.0
H1053 H 0.91767 0.91274 0.44981 0.0
H1054 H 0.94461 0.91038 0.49778 0.0
H1055 H 0.93188 0.87565 0.46997 0.0
C1056 C 0.49491 0.68841 0.66681 0.0
C1057 C 0.48109 0.65528 0.65468 0.0
C1058 C 0.47708 0.70429 0.68136 0.0
C1059 C 0.44371 0.68755 0.68512 0.0
C1060 C 0.4298 0.65407 0.67341 0.0
C1061 C 0.44797 0.63888 0.65864 0.0
C1062 C 0.49424 0.73968 0.69265 0.0
C1063 C 0.3952 0.63376 0.6767 0.0
C1064 C 0.40994 0.71941 0.75188 0.0
C1065 C 0.38412 0.73662 0.72867 0.0
C1066 C 0.42913 0.704 0.73863 0.0
C1067 C 0.42341 0.70485 0.70046 0.0
C1068 C 0.39758 0.72239 0.67702 0.0
C1069 C 0.37877 0.73752 0.69097 0.0
C1070 C 0.45545 0.68609 0.76601 0.0
C1071 C 0.38957 0.72529 0.63644 0.0
H1072 H 0.51985 0.70265 0.66441 0.0
H1073 H 0.43597 0.61342 0.65062 0.0
H1074 H 0.47601 0.75575 0.67693 0.0
H1075 H 0.49926 0.74085 0.72201 0.0
H1076 H 0.51975 0.74998 0.6882 0.0
H1077 H 0.38753 0.60812 0.66738 0.0
H1078 H 0.39729 0.63211 0.70558 0.0
H1079 H 0.37373 0.64626 0.66025 0.0
H1080 H 0.41521 0.71769 0.78095 0.0
H1081 H 0.3594 0.75022 0.67177 0.0
H1082 H 0.48067 0.6933 0.76092 0.0
H1083 H 0.44462 0.65882 0.76294 0.0
H1084 H 0.46124 0.69135 0.79459 0.0
H1085 H 0.41435 0.73712 0.63095 0.0
H1086 H 0.36991 0.74017 0.62141 0.0
H1087 H 0.37908 0.70008 0.62552 0.0
C1088 C 0.66403 0.05661 0.94581 0.0
C1089 C 0.65991 0.03154 0.9726 0.0
C1090 C 0.68709 0.05813 0.92812 0.0
C1091 C 0.70722 0.03401 0.93776 0.0
C1092 C 0.70251 1.0079 0.96415 0.0
C1093 C 0.67872 1.00692 0.9813 0.0
C1094 C 0.69002 0.08622 0.89949 0.0
C1095 C 0.72294 0.98149 0.9754 0.0
C1096 C 0.73664 0.05303 0.8608 0.0
C1097 C 0.76071 0.08361 0.8732 0.0
C1098 C 0.72302 0.03034 0.88484 0.0
C1099 C 0.73448 0.03871 0.92143 0.0
C1100 C 0.76619 0.06358 0.93564 0.0
C1101 C 0.77886 0.0864 0.91114 0.0
C1102 C 0.6916 1.00154 0.86957 0.0
C1103 C 0.78187 0.07061 0.97561 0.0
H1104 H 0.64892 0.07523 0.93833 0.0
H1105 H 0.67534 0.98722 1.00185 0.0
H1106 H 0.71721 0.10284 0.90836 0.0
H1107 H 0.68436 0.07607 0.87315 0.0
H1108 H 0.67122 0.10176 0.89446 0.0
H1109 H 0.7449 0.98754 1.00203 0.0
H1110 H 0.70558 0.95677 0.97938 0.0
H1111 H 0.73442 0.97957 0.95527 0.0
H1112 H 0.72468 0.04899 0.83179 0.0
H1113 H 0.79919 0.10867 0.92193 0.0
H1114 H 0.66685 1.01 0.86055 0.0
H1115 H 0.69043 0.9808 0.8906 0.0
H1116 H 0.69266 0.99225 0.84552 0.0
H1117 H 0.76756 0.08653 0.98078 0.0
H1118 H 0.8104 0.08405 0.9839 0.0
H1119 H 0.77904 0.04712 0.99279 0.0
C1120 C 0.16154 0.47256 0.1247 0.0
C1121 C 0.13765 0.46636 0.08849 0.0
C1122 C 0.18348 0.45071 0.14611 0.0
C1123 C 0.18098 0.42032 0.13237 0.0
C1124 C 0.15636 0.41368 0.09598 0.0
C1125 C 0.13595 0.43675 0.07459 0.0
C1126 C 0.20991 0.46061 0.18357 0.0
C1127 C 0.15086 0.38159 0.07966 0.0
C1128 C 0.25643 0.3726 0.17418 0.0
C1129 C 0.24654 0.34959 0.20069 0.0
C1130 C 0.23614 0.39569 0.15265 0.0
C1131 C 0.20365 0.39567 0.1559 0.0
C1132 C 0.19318 0.37191 0.1821 0.0
C1133 C 0.21481 0.35009 0.2044 0.0
C1134 C 0.25027 0.42095 0.12705 0.0
C1135 C 0.1585 0.36901 0.18628 0.0
H1136 H 0.16384 0.4952 0.13619 0.0
H1137 H 0.11773 0.43102 0.047 0.0
H1138 H 0.20157 0.44375 0.20475 0.0
H1139 H 0.23643 0.45814 0.1869 0.0
H1140 H 0.2124 0.48664 0.18862 0.0
H1141 H 0.12951 0.37885 0.05217 0.0
H1142 H 0.17574 0.38052 0.07721 0.0
H1143 H 0.14394 0.36004 0.09796 0.0
H1144 H 0.28084 0.37317 0.17082 0.0
H1145 H 0.20623 0.33262 0.22425 0.0
H1146 H 0.25576 0.44642 0.13581 0.0
H1147 H 0.23025 0.41954 0.09888 0.0
H1148 H 0.27505 0.41737 0.12643 0.0
H1149 H 0.16012 0.39161 0.19852 0.0
H1150 H 0.15162 0.34688 0.20396 0.0
H1151 H 0.1367 0.3673 0.1591 0.0
C1152 C 0.74027 0.63292 0.93943 0.0
C1153 C 0.7347 0.64056 0.96928 0.0
C1154 C 0.7495 0.65796 0.91479 0.0
C1155 C 0.75452 0.69171 0.92084 0.0
C1156 C 0.75093 0.69986 0.95209 0.0
C1157 C 0.74048 0.67402 0.97578 0.0
C1158 C 0.75272 0.64802 0.88159 0.0
C1159 C 0.75786 0.73567 0.96027 0.0
C1160 C 0.80166 0.74077 0.85972 0.0
C1161 C 0.77286 0.74524 0.82825 0.0
C1162 C 0.79686 0.72796 0.89259 0.0
C1163 C 0.76208 0.71764 0.89306 0.0
C1164 C 0.73333 0.72487 0.86212 0.0
C1165 C 0.73918 0.73879 0.8299 0.0
C1166 C 0.8284 0.72184 0.92538 0.0
C1167 C 0.69578 0.71411 0.86149 0.0
H1168 H 0.73638 0.60709 0.93476 0.0
H1169 H 0.73599 0.67991 0.99883 0.0
H1170 H 0.73436 0.65786 0.85624 0.0
H1171 H 0.78007 0.65885 0.88184 0.0
H1172 H 0.74655 0.62055 0.88037 0.0
H1173 H 0.75271 0.73772 0.98507 0.0
H1174 H 0.78591 0.74877 0.96446 0.0
H1175 H 0.74107 0.7489 0.93678 0.0
H1176 H 0.82752 0.74505 0.85814 0.0
H1177 H 0.71698 0.74218 0.80528 0.0
H1178 H 0.82975 0.69569 0.92635 0.0
H1179 H 0.82602 0.72557 0.95117 0.0
H1180 H 0.85367 0.73857 0.92392 0.0
H1181 H 0.68583 0.68669 0.85921 0.0
H1182 H 0.67766 0.72626 0.83803 0.0
H1183 H 0.69476 0.71998 0.88717 0.0
C1184 C 0.60816 0.32778 0.18071 0.0
C1185 C 0.61876 0.32681 0.15166 0.0
C1186 C 0.58307 0.34535 0.17635 0.0
C1187 C 0.57039 0.36388 0.14305 0.0
C1188 C 0.57724 0.35878 0.11233 0.0
C1189 C 0.60095 0.33973 0.117 0.0
C1190 C 0.57281 0.34629 0.20839 0.0
C1191 C 0.56353 0.3769 0.07562 0.0
C1192 C 0.52374 0.43143 0.10395 0.0
C1193 C 0.55376 0.45859 0.11117 0.0
C1194 C 0.52693 0.39972 0.12056 0.0
C1195 C 0.56107 0.39539 0.14294 0.0
C1196 C 0.58951 0.42392 0.15553 0.0
C1197 C 0.58503 0.45535 0.1401 0.0
C1198 C 0.49459 0.37067 0.11087 0.0
C1199 C 0.62629 0.42128 0.18099 0.0
H1200 H 0.62105 0.31665 0.20735 0.0
H1201 H 0.60869 0.33833 0.09441 0.0
H1202 H 0.54982 0.35727 0.20052 0.0
H1203 H 0.56606 0.32065 0.22049 0.0
H1204 H 0.59569 0.36077 0.23017 0.0
H1205 H 0.57209 0.37042 0.05508 0.0
H1206 H 0.53414 0.37044 0.06489 0.0
H1207 H 0.57323 0.40428 0.07834 0.0
H1208 H 0.49877 0.43407 0.08301 0.0
H1209 H 0.60766 0.4768 0.14742 0.0
H1210 H 0.49982 0.34743 0.12725 0.0
H1211 H 0.48499 0.36629 0.08136 0.0
H1212 H 0.47281 0.3768 0.1155 0.0
H1213 H 0.62537 0.40885 0.20745 0.0
H1214 H 0.64559 0.44603 0.18666 0.0
H1215 H 0.63657 0.40623 0.16905 0.0
C1216 C 0.99724 0.44728 0.44637 0.0
C1217 C 1.00897 0.48013 0.43399 0.0
C1218 C 0.97607 0.42215 0.42153 0.0
C1219 C 0.96495 0.43041 0.38336 0.0
C1220 C 0.97685 0.46362 0.37083 0.0
C1221 C 0.9992 0.48786 0.39624 0.0
C1222 C 0.96525 0.38687 0.43619 0.0
C1223 C 0.96492 0.47388 0.33055 0.0
C1224 C 0.92471 0.36382 0.31259 0.0
C1225 C 0.88837 0.35881 0.30474 0.0
C1226 C 0.9501 0.38636 0.33888 0.0
C1227 C 0.93873 0.40514 0.35661 0.0
C1228 C 0.9019 0.40042 0.34807 0.0
C1229 C 0.87729 0.37689 0.32284 0.0
C1230 C 0.98906 0.3896 0.34823 0.0
C1231 C 0.88838 0.4204 0.36539 0.0
H1232 H 1.00483 0.44115 0.47548 0.0
H1233 H 1.00813 0.51324 0.38647 0.0
H1234 H 0.93645 0.38005 0.43121 0.0
H1235 H 0.96991 0.36917 0.42178 0.0
H1236 H 0.98001 0.38366 0.46601 0.0
H1237 H 0.97708 0.50053 0.32521 0.0
H1238 H 0.97183 0.45837 0.31571 0.0
H1239 H 0.93561 0.4697 0.31902 0.0
H1240 H 0.93325 0.34931 0.29911 0.0
H1241 H 0.84914 0.37285 0.31689 0.0
H1242 H 1.00208 0.38462 0.37806 0.0
H1243 H 1.00222 0.41543 0.34143 0.0
H1244 H 0.99356 0.37212 0.33337 0.0
H1245 H 0.89793 0.41524 0.39544 0.0
H1246 H 0.85892 0.41464 0.35476 0.0
H1247 H 0.8989 0.44746 0.36021 0.0
C1248 C 0.63959 0.59522 0.43894 0.0
C1249 C 0.63891 0.60622 0.47129 0.0
C1250 C 0.65983 0.61512 0.41547 0.0
C1251 C 0.68275 0.64912 0.42187 0.0
C1252 C 0.68234 0.65998 0.45469 0.0
C1253 C 0.66152 0.6398 0.47714 0.0
C1254 C 0.65583 0.59857 0.38274 0.0
C1255 C 0.70472 0.69399 0.4675 0.0
C1256 C 0.75719 0.68594 0.36962 0.0
C1257 C 0.75125 0.71643 0.34809 0.0
C1258 C 0.73668 0.66529 0.39232 0.0
C1259 C 0.70627 0.67234 0.39588 0.0
C1260 C 0.69995 0.70307 0.37399 0.0
C1261 C 0.72134 0.72351 0.352 0.0
C1262 C 0.74887 0.63515 0.41319 0.0
C1263 C 0.66954 0.71542 0.37291 0.0
H1264 H 0.6237 0.57032 0.43116 0.0
H1265 H 0.6634 0.65121 0.50061 0.0
H1266 H 0.66177 0.61692 0.36122 0.0
H1267 H 0.67437 0.5822 0.39159 0.0
H1268 H 0.6285 0.58255 0.37081 0.0
H1269 H 0.71484 0.69413 0.49779 0.0
H1270 H 0.72765 0.70259 0.45836 0.0
H1271 H 0.68803 0.71208 0.45636 0.0
H1272 H 0.77897 0.67763 0.36918 0.0
H1273 H 0.71387 0.74582 0.3372 0.0
H1274 H 0.73611 0.61385 0.39514 0.0
H1275 H 0.74177 0.62813 0.43794 0.0
H1276 H 0.77806 0.63954 0.42158 0.0
H1277 H 0.64922 0.69538 0.38039 0.0
H1278 H 0.6566 0.7264 0.34528 0.0
H1279 H 0.67999 0.73549 0.39236 0.0
C1280 C 0.90259 0.3341 0.86804 0.0
C1281 C 0.8663 0.33199 0.85736 0.0
C1282 C 0.92843 0.35887 0.89097 0.0
C1283 C 0.91775 0.38193 0.90391 0.0
C1284 C 0.88108 0.37969 0.8935 0.0
C1285 C 0.85578 0.35473 0.87034 0.0
C1286 C 0.96719 0.36038 0.90131 0.0
C1287 C 0.86858 0.40369 0.9068 0.0
C1288 C 0.98223 0.42616 0.99035 0.0
C1289 C 0.99576 0.45769 0.97619 0.0
C1290 C 0.95692 0.40131 0.96715 0.0
C1291 C 0.94493 0.40806 0.92879 0.0
C1292 C 0.95891 0.43974 0.91431 0.0
C1293 C 0.98411 0.4642 0.93819 0.0
C1294 C 0.94279 0.36788 0.98374 0.0
C1295 C 0.94705 0.44786 0.87358 0.0
H1296 H 0.91085 0.31638 0.85832 0.0
H1297 H 0.82776 0.35318 0.86215 0.0
H1298 H 0.98112 0.38517 0.89274 0.0
H1299 H 0.97992 0.35721 0.93143 0.0
H1300 H 0.9711 0.34088 0.88856 0.0
H1301 H 0.83918 0.39866 0.89621 0.0
H1302 H 0.87845 0.40208 0.93712 0.0
H1303 H 0.87962 0.42964 0.89814 0.0
H1304 H 0.99119 0.42095 0.0197 0.0
H1305 H 0.99452 0.48854 0.9271 0.0
H1306 H 0.94797 0.34776 0.97323 0.0
H1307 H 0.91361 0.3629 0.97563 0.0
H1308 H 0.95496 0.36652 1.01406 0.0
H1309 H 0.95201 0.4297 0.86002 0.0
H1310 H 0.96094 0.4734 0.86665 0.0
H1311 H 0.91805 0.44569 0.86206 0.0
C1312 C 0.88276 0.88147 0.18018 0.0
C1313 C 0.88508 0.84889 0.19822 0.0
C1314 C 0.90329 0.90133 0.15715 0.0
C1315 C 0.93022 0.89125 0.14979 0.0
C1316 C 0.93277 0.85836 0.16806 0.0
C1317 C 0.91128 0.83877 0.1903 0.0
C1318 C 0.89483 0.93396 0.14002 0.0
C1319 C 0.95906 0.84262 0.16476 0.0
C1320 C 0.97298 0.92287 0.06684 0.0
C1321 C 0.99889 0.95477 0.0745 0.0
C1322 C 0.95152 0.90365 0.08908 0.0
C1323 C 0.95404 0.91363 0.12371 0.0
C1324 C 0.98032 0.94592 0.13191 0.0
C1325 C 1.00092 0.96506 0.10848 0.0
C1326 C 0.92505 0.87182 0.07383 0.0
C1327 C 0.98778 0.96134 0.16666 0.0
H1328 H 0.86386 0.89211 0.18366 0.0
H1329 H 0.91568 0.81458 0.20207 0.0
H1330 H 0.91006 0.95341 0.16025 0.0
H1331 H 0.90173 0.94198 0.11522 0.0
H1332 H 0.86619 0.93221 0.1325 0.0
H1333 H 0.97111 0.82865 0.19065 0.0
H1334 H 0.94492 0.82442 0.14306 0.0
H1335 H 0.98062 0.86125 0.15778 0.0
H1336 H 0.96877 0.91215 0.04197 0.0
H1337 H 1.01949 0.98866 0.11775 0.0
H1338 H 0.90342 0.86416 0.08489 0.0
H1339 H 0.93901 0.85166 0.08071 0.0
H1340 H 0.91303 0.87451 0.04355 0.0
H1341 H 1.01621 0.97476 0.1786 0.0
H1342 H 0.98087 0.94254 0.18739 0.0
H1343 H 0.97193 0.97992 0.16027 0.0
C1344 C 0.8723 0.17308 0.83648 0.0
C1345 C 0.88879 0.20617 0.82769 0.0
C1346 C 0.89178 0.14864 0.85596 0.0
C1347 C 0.92963 0.1564 0.86781 0.0
C1348 C 0.94641 0.18963 0.8585 0.0
C1349 C 0.92624 0.21356 0.83893 0.0
C1350 C 0.87147 0.11437 0.86452 0.0
C1351 C 0.98622 0.20029 0.86987 0.0
C1352 C 0.98416 0.10704 0.95276 0.0
C1353 C 0.99454 0.08457 0.93838 0.0
C1354 C 0.96341 0.12952 0.93063 0.0
C1355 C 0.9516 0.13095 0.89178 0.0
C1356 C 0.96138 0.10811 0.8767 0.0
C1357 C 0.98232 0.08556 0.89971 0.0
C1358 C 0.95434 0.15227 0.94928 0.0
C1359 C 0.94988 0.10769 0.83585 0.0
H1360 H 0.8437 0.16603 0.82803 0.0
H1361 H 0.94017 0.23853 0.83287 0.0
H1362 H 0.88108 0.09485 0.85844 0.0
H1363 H 0.87589 0.11147 0.89411 0.0
H1364 H 0.84249 0.11005 0.84885 0.0
H1365 H 0.99565 0.22604 0.85938 0.0
H1366 H 0.99866 0.19911 0.90014 0.0
H1367 H 0.9955 0.18295 0.85976 0.0
H1368 H 0.99254 0.10736 0.98217 0.0
H1369 H 0.98961 0.06911 0.88724 0.0
H1370 H 0.92511 0.14809 0.93971 0.0
H1371 H 0.96533 0.17867 0.94193 0.0
H1372 H 0.96486 0.14834 0.97953 0.0
H1373 H 0.92056 0.10302 0.82308 0.0
H1374 H 0.95827 0.08836 0.82771 0.0
H1375 H 0.96131 0.13244 0.8248 0.0
C1376 C 0.74465 0.23007 0.67816 0.0
C1377 C 0.78093 0.23259 0.68784 0.0
C1378 C 0.71861 0.2066 0.65365 0.0
C1379 C 0.729 0.18498 0.63839 0.0
C1380 C 0.76564 0.18738 0.64812 0.0
C1381 C 0.79117 0.21123 0.67267 0.0
C1382 C 0.67994 0.20502 0.644 0.0
C1383 C 0.77784 0.16472 0.63263 0.0
C1384 C 0.66098 0.10476 0.59958 0.0
C1385 C 0.64925 0.11317 0.5619 0.0
C1386 C 0.68699 0.12779 0.62476 0.0
C1387 C 0.7015 0.16011 0.612 0.0
C1388 C 0.68938 0.16883 0.57399 0.0
C1389 C 0.66346 0.14526 0.54944 0.0
C1390 C 0.69911 0.11748 0.66501 0.0
C1391 C 0.70386 0.20306 0.55923 0.0
H1392 H 0.73654 0.24658 0.68971 0.0
H1393 H 0.81916 0.21301 0.68016 0.0
H1394 H 0.66715 0.20965 0.61409 0.0
H1395 H 0.66588 0.17975 0.65129 0.0
H1396 H 0.67626 0.22354 0.65828 0.0
H1397 H 0.80721 0.16949 0.64316 0.0
H1398 H 0.76647 0.13829 0.63953 0.0
H1399 H 0.76808 0.16816 0.60237 0.0
H1400 H 0.65008 0.08 0.60939 0.0
H1401 H 0.65443 0.15195 0.52037 0.0
H1402 H 0.69421 0.13433 0.68019 0.0
H1403 H 0.72811 0.11974 0.67603 0.0
H1404 H 0.68532 0.09143 0.67052 0.0
H1405 H 0.6991 0.22236 0.57141 0.0
H1406 H 0.69159 0.20598 0.52899 0.0
H1407 H 0.733 0.20787 0.56705 0.0
C1408 C 0.5531 0.87896 0.36413 0.0
C1409 C 0.58561 0.89544 0.38928 0.0
C1410 C 0.55184 0.85476 0.34274 0.0
C1411 C 0.58393 0.8479 0.34638 0.0
C1412 C 0.61563 0.8608 0.37578 0.0
C1413 C 0.61595 0.8844 0.39695 0.0
C1414 C 0.51684 0.83933 0.31408 0.0
C1415 C 0.65043 0.85333 0.3819 0.0
C1416 C 0.61502 0.80036 0.29968 0.0
C1417 C 0.6293 0.82699 0.27919 0.0
C1418 C 0.59365 0.80465 0.31729 0.0
C1419 C 0.58764 0.83646 0.31506 0.0
C1420 C 0.59671 0.86125 0.2893 0.0
C1421 C 0.61747 0.85615 0.27161 0.0
C1422 C 0.58123 0.77642 0.34152 0.0
C1423 C 0.58942 0.89518 0.2846 0.0
H1424 H 0.52932 0.88692 0.35892 0.0
H1425 H 0.64076 0.89652 0.4174 0.0
H1426 H 0.50998 0.85765 0.29066 0.0
H1427 H 0.5175 0.81649 0.30396 0.0
H1428 H 0.49536 0.83297 0.32535 0.0
H1429 H 0.67195 0.86397 0.40721 0.0
H1430 H 0.64734 0.82605 0.384 0.0
H1431 H 0.6589 0.86391 0.35842 0.0
H1432 H 0.62283 0.77714 0.30436 0.0
H1433 H 0.62781 0.87667 0.25532 0.0
H1434 H 0.55861 0.77975 0.34699 0.0
H1435 H 0.60338 0.775 0.36796 0.0
H1436 H 0.57312 0.75227 0.3287 0.0
H1437 H 0.5612 0.89255 0.27993 0.0
H1438 H 0.59544 0.91046 0.26126 0.0
H1439 H 0.60594 0.90891 0.30983 0.0
C1440 C 1.02999 0.207 0.41865 0.0
C1441 C 1.01041 0.22205 0.38623 0.0
C1442 C 1.0517 0.18765 0.41839 0.0
C1443 C 1.0548 0.18438 0.38488 0.0
C1444 C 1.04107 0.20511 0.35402 0.0
C1445 C 1.01811 0.22322 0.35464 0.0
C1446 C 0.06728 0.16745 0.45301 0.0
C1447 C 1.04876 0.20623 0.31983 0.0
C1448 C 0.10025 0.11721 0.41635 0.0
C1449 C 0.06998 0.09163 0.4158 0.0
C1450 C 0.09646 0.1482 0.39812 0.0
C1451 C 1.06189 0.15306 0.3803 0.0
C1452 C 1.03244 0.12476 0.37171 0.0
C1453 C 1.03702 0.09398 0.38952 0.0
C1454 C 0.12913 0.17663 0.40331 0.0
C1455 C 0.99507 0.12794 0.34993 0.0
H1456 H 1.02586 0.20791 0.44368 0.0
H1457 H 1.00427 0.23601 0.3297 0.0
H1458 H 1.05254 0.14083 0.44994 0.0
H1459 H 0.09551 0.16921 0.45858 0.0
H1460 H 1.06574 0.1759 0.47727 0.0
H1461 H 1.03815 0.22535 0.29908 0.0
H1462 H 0.07788 0.21189 0.3269 0.0
H1463 H 1.03719 0.18163 0.30753 0.0
H1464 H 0.12638 0.11485 0.43481 0.0
H1465 H 1.01386 0.07337 0.38712 0.0
H1466 H 0.14401 0.18038 0.4329 0.0
H1467 H 0.12288 0.2003 0.38912 0.0
H1468 H 0.14698 0.17004 0.39271 0.0
H1469 H 0.9864 0.14068 0.36594 0.0
H1470 H 0.9759 0.10327 0.34301 0.0
H1471 H 0.99393 0.14303 0.32417 0.0
C1472 C 0.71155 0.19458 0.22105 0.0
C1473 C 0.74787 0.1962 0.23753 0.0
C1474 C 0.68886 0.17131 0.1944 0.0
C1475 C 0.70285 0.14883 0.1846 0.0
C1476 C 0.73955 0.15027 0.20174 0.0
C1477 C 0.76162 0.17419 0.22758 0.0
C1478 C 0.65014 0.17123 0.17614 0.0
C1479 C 0.75563 0.12663 0.19266 0.0
C1480 C 0.64249 0.06674 0.14324 0.0
C1481 C 0.63956 0.07258 0.10653 0.0
C1482 C 0.66237 0.09148 0.16867 0.0
C1483 C 0.67929 0.12326 0.1571 0.0
C1484 C 0.67546 0.12968 0.11974 0.0
C1485 C 0.65609 0.10412 0.09503 0.0
C1486 C 0.66607 0.08324 0.20819 0.0
C1487 C 0.69222 0.16343 0.10597 0.0
H1488 H 0.70114 0.21223 0.2281 0.0
H1489 H 0.78986 0.17588 0.23995 0.0
H1490 H 0.64318 0.17565 0.14614 0.0
H1491 H 0.63334 0.14649 0.1809 0.0
H1492 H 0.64349 0.1906 0.18633 0.0
H1493 H 0.78446 0.13051 0.20901 0.0
H1494 H 0.74194 0.10047 0.19774 0.0
H1495 H 0.75192 0.13 0.16325 0.0
H1496 H 0.62972 0.04245 0.15238 0.0
H1497 H 0.65384 0.10885 0.06671 0.0
H1498 H 0.6573 0.10141 0.21769 0.0
H1499 H 0.69439 0.0852 0.22549 0.0
H1500 H 0.65036 0.05773 0.2126 0.0
H1501 H 0.68495 0.18333 0.11451 0.0
H1502 H 0.68395 0.16543 0.07571 0.0
H1503 H 0.72154 0.16813 0.11814 0.0
C1504 C 0.81374 0.84529 0.99695 0.0
C1505 C 0.79785 0.84877 0.95874 0.0
C1506 C 0.79716 0.84982 0.01972 0.0
C1507 C 0.76413 0.85832 1.00377 0.0
C1508 C 0.74794 0.86161 0.96523 0.0
C1509 C 0.76499 0.85682 0.94327 0.0
C1510 C 0.81553 0.84642 0.06067 0.0
C1511 C 0.71285 0.87092 0.94707 0.0
C1512 C 0.69677 0.8483 0.04754 0.0
C1513 C 0.69985 0.88172 0.05189 0.0
C1514 C 0.7198 0.83975 0.03495 0.0
C1515 C 0.74653 0.86525 0.02664 0.0
C1516 C 0.75201 0.89853 0.03449 0.0
C1517 C 0.72846 0.90642 0.04676 0.0
C1518 C 0.71377 0.80381 0.02789 0.0
C1519 C 0.78085 0.92631 0.02694 0.0
H1520 H 0.83909 0.83892 1.00908 0.0
H1521 H 0.75289 0.8602 0.91383 0.0
H1522 H 0.82914 0.87159 0.07144 0.0
H1523 H 0.79625 0.83411 0.07425 0.0
H1524 H 0.83579 0.83197 0.06837 0.0
H1525 H 0.70331 0.87137 0.91677 0.0
H1526 H 0.69236 0.85292 0.95626 0.0
H1527 H 0.71553 0.89596 0.95511 0.0
H1528 H 0.67537 0.82893 0.05244 0.0
H1529 H 0.73117 0.93234 0.04991 0.0
H1530 H 0.73936 0.79668 0.03812 0.0
H1531 H 0.7016 0.8006 0.99798 0.0
H1532 H 0.6959 0.78652 0.04099 0.0
H1533 H 0.80607 0.91864 0.03648 0.0
H1534 H 0.78568 0.94936 0.04043 0.0
H1535 H 0.77296 0.93217 0.99702 0.0
C1536 C 0.86159 0.90202 0.55263 0.0
C1537 C 0.89438 0.90808 0.54884 0.0
C1538 C 0.85382 0.87896 0.57985 0.0
C1539 C 0.87975 0.86239 0.60372 0.0
C1540 C 0.91021 0.86457 0.59597 0.0
C1541 C 0.91743 0.8878 0.56873 0.0
C1542 C 0.8198 0.87524 0.5858 0.0
C1543 C 0.93712 0.84535 0.61924 0.0
C1544 C 0.89068 0.86524 0.70205 0.0
C1545 C 0.87564 0.83214 0.71073 0.0
C1546 C 0.89347 0.87481 0.66781 0.0
C1547 C 0.87975 0.85084 0.64102 0.0
C1548 C 0.86604 0.817 0.65018 0.0
C1549 C 0.86484 0.80792 0.68537 0.0
C1550 C 0.91035 0.91088 0.66008 0.0
C1551 C 0.85104 0.79041 0.62288 0.0
H1552 H 0.84362 0.91747 0.53685 0.0
H1553 H 0.94255 0.89219 0.56516 0.0
H1554 H 0.80896 0.84891 0.59362 0.0
H1555 H 0.8252 0.89074 0.60847 0.0
H1556 H 0.79946 0.88344 0.56094 0.0
H1557 H 0.95602 0.84545 0.60614 0.0
H1558 H 0.95224 0.85661 0.64615 0.0
H1559 H 0.92375 0.8191 0.62439 0.0
H1560 H 0.89978 0.88394 0.72189 0.0
H1561 H 0.85441 0.78209 0.69254 0.0
H1562 H 0.89002 0.92264 0.63918 0.0
H1563 H 0.93121 0.91254 0.64904 0.0
H1564 H 0.92255 0.92552 0.68491 0.0
H1565 H 0.82165 0.78442 0.61303 0.0
H1566 H 0.85941 0.76738 0.63625 0.0
H1567 H 0.85911 0.79797 0.5988 0.0
C1568 C 0.23722 0.84632 0.79712 0.0
C1569 C 0.25465 0.82107 0.81711 0.0
C1570 C 0.21885 0.86212 0.81106 0.0
C1571 C 0.21638 0.85314 0.84652 0.0
C1572 C 0.23373 0.82753 0.86671 0.0
C1573 C 0.25229 0.81246 0.85231 0.0
C1574 C 0.20205 0.88906 0.78756 0.0
C1575 C 0.23273 0.81579 0.9042 0.0
C1576 C 0.19597 0.91447 0.89851 0.0
C1577 C 0.15914 0.90278 0.8931 0.0
C1578 C 0.21419 0.89918 0.88388 0.0
C1579 C 0.19643 0.87043 0.8624 0.0
C1580 C 0.15932 0.85852 0.85656 0.0
C1581 C 0.14168 0.87433 0.87146 0.0
C1582 C 0.25314 0.91428 0.89146 0.0
C1583 C 0.13783 0.82835 0.83447 0.0
H1584 H 0.23838 0.85438 0.77031 0.0
H1585 H 0.26508 0.79344 0.86907 0.0
H1586 H 0.17316 0.88158 0.78199 0.0
H1587 H 0.21317 0.91243 0.80233 0.0
H1588 H 0.20621 0.89427 0.76115 0.0
H1589 H 0.2462 0.79534 0.91658 0.0
H1590 H 0.24577 0.83688 0.92252 0.0
H1591 H 0.20479 0.8069 0.90261 0.0
H1592 H 0.21116 0.93633 0.91409 0.0
H1593 H 0.11374 0.86366 0.86629 0.0
H1594 H 0.25766 0.92151 0.8653 0.0
H1595 H 0.26839 0.89556 0.90633 0.0
H1596 H 0.26377 0.9366 0.90794 0.0
H1597 H 0.13991 0.83265 0.80706 0.0
H1598 H 0.10936 0.82213 0.83095 0.0
H1599 H 0.14866 0.80656 0.84813 0.0
C1600 C 0.98269 0.55507 0.57034 0.0
C1601 C 0.98817 0.52483 0.566 0.0
C1602 C 0.96461 0.55642 0.59291 0.0
C1603 C 0.95198 0.52682 0.61159 0.0
C1604 C 0.95506 0.49585 0.60476 0.0
C1605 C 0.97272 0.49532 0.58176 0.0
C1606 C 0.96061 0.58985 0.59734 0.0
C1607 C 0.94224 0.46327 0.62382 0.0
C1608 C 0.95788 0.51037 0.70652 0.0
C1609 C 0.92424 0.48823 0.6995 0.0
C1610 C 0.96648 0.52996 0.67781 0.0
C1611 C 0.9404 0.52752 0.64215 0.0
C1612 C 0.90447 0.51313 0.6377 0.0
C1613 C 0.89664 0.49266 0.66647 0.0
C1614 C 1.00471 0.548 0.68441 0.0
C1615 C 0.87537 0.5144 0.6009 0.0
H1616 H 0.99377 0.57796 0.5574 0.0
H1617 H 0.97618 0.47177 0.57789 0.0
H1618 H 0.94866 0.58894 0.61786 0.0
H1619 H 0.98692 0.60816 0.60535 0.0
H1620 H 0.94369 0.59922 0.57061 0.0
H1621 H 0.94763 0.44177 0.61593 0.0
H1622 H 0.95558 0.46487 0.65386 0.0
H1623 H 0.91324 0.45792 0.61706 0.0
H1624 H 0.97878 0.50859 0.73289 0.0
H1625 H 0.87 0.47692 0.66118 0.0
H1626 H 1.00647 0.57265 0.66924 0.0
H1627 H 1.01682 0.53321 0.67437 0.0
H1628 H 1.02042 0.55173 0.71393 0.0
H1629 H 0.88193 0.53827 0.58537 0.0
H1630 H 0.84964 0.5116 0.6039 0.0
H1631 H 0.87228 0.49366 0.58486 0.0
C1632 C 0.47122 0.10242 0.44824 0.0
C1633 C 0.50425 0.10479 0.44569 0.0
C1634 C 0.44801 0.12274 0.42562 0.0
C1635 C 0.45795 0.14786 0.40013 0.0
C1636 C 0.49182 0.15094 0.39827 0.0
C1637 C 0.51372 0.1292 0.42001 0.0
C1638 C 0.41238 0.1168 0.4289 0.0
C1639 C 0.50559 0.17749 0.37343 0.0
C1640 C 0.39194 0.18786 0.31553 0.0
C1641 C 0.38746 0.21412 0.32996 0.0
C1642 C 0.41351 0.16597 0.33776 0.0
C1643 C 0.43333 0.17071 0.37588 0.0
C1644 C 0.42943 0.19779 0.39034 0.0
C1645 C 0.40632 0.21819 0.36779 0.0
C1646 C 0.41442 0.13746 0.31977 0.0
C1647 C 0.44967 0.20607 0.42984 0.0
H1648 H 0.46292 0.08386 0.46748 0.0
H1649 H 0.53895 0.13194 0.41736 0.0
H1650 H 0.41293 0.13698 0.44409 0.0
H1651 H 0.39122 0.11712 0.40145 0.0
H1652 H 0.40539 0.09267 0.44382 0.0
H1653 H 0.53507 0.18434 0.38359 0.0
H1654 H 0.49579 0.16779 0.3459 0.0
H1655 H 0.49649 0.20036 0.37069 0.0
H1656 H 0.37768 0.18369 0.28669 0.0
H1657 H 0.40368 0.23808 0.38 0.0
H1658 H 0.41996 0.11595 0.33936 0.0
H1659 H 0.43544 0.14615 0.3079 0.0
H1660 H 0.38884 0.12878 0.29702 0.0
H1661 H 0.43154 0.19671 0.44526 0.0
H1662 H 0.45913 0.23353 0.43212 0.0
H1663 H 0.47287 0.19518 0.44304 0.0
C1664 C 0.63374 0.60266 0.10174 0.0
C1665 C 0.60433 0.61063 0.07324 0.0
C1666 C 0.66199 0.62757 0.12215 0.0
C1667 C 0.65981 0.66117 0.11559 0.0
C1668 C 0.62964 0.66931 0.08745 0.0
C1669 C 0.60261 0.644 0.06611 0.0
C1670 C 0.6941 0.61783 0.15094 0.0
C1671 C 0.62562 0.70461 0.07992 0.0
C1672 C 0.71378 0.71412 0.19791 0.0
C1673 C 0.74207 0.73418 0.18816 0.0
C1674 C 0.68629 0.69117 0.17394 0.0
C1675 C 0.68792 0.68711 0.14002 0.0
C1676 C 0.7168 0.70711 0.13026 0.0
C1677 C 0.74322 0.73097 0.1542 0.0
C1678 C 0.65522 0.67158 0.18472 0.0
C1679 C 0.72002 0.70302 0.09482 0.0
H1680 H 0.63469 0.57684 0.10826 0.0
H1681 H 0.57975 0.65025 0.04436 0.0
H1682 H 0.71875 0.63405 0.14757 0.0
H1683 H 0.69544 0.62138 0.17852 0.0
H1684 H 0.69351 0.59142 0.14966 0.0
H1685 H 0.59766 0.70543 0.06389 0.0
H1686 H 0.6347 0.71724 0.10571 0.0
H1687 H 0.64211 0.719 0.06396 0.0
H1688 H 0.7127 0.71703 0.224 0.0
H1689 H 0.76518 0.7466 0.14678 0.0
H1690 H 0.65417 0.64461 0.1878 0.0
H1691 H 0.63001 0.67485 0.16292 0.0
H1692 H 0.65677 0.67938 0.21082 0.0
H1693 H 0.71774 0.67646 0.09216 0.0
H1694 H 0.74561 0.71831 0.09281 0.0
H1695 H 0.69805 0.71054 0.07144 0.0
C1696 C 0.24415 0.20995 0.68557 0.0
C1697 C 0.24475 0.24389 0.68113 0.0
C1698 C 0.21883 0.1873 0.65964 0.0
C1699 C 0.19278 0.19864 0.62879 0.0
C1700 C 0.19395 0.23314 0.62352 0.0
C1701 C 0.22021 0.25542 0.64953 0.0
C1702 C 0.21916 0.15094 0.66607 0.0
C1703 C 0.16671 0.24632 0.59111 0.0
C1704 C 0.13744 0.13797 0.55264 0.0
C1705 C 0.10768 0.12255 0.56228 0.0
C1706 C 0.16487 0.16363 0.57315 0.0
C1707 C 0.16259 0.17389 0.60423 0.0
C1708 C 0.13204 0.15897 0.61331 0.0
C1709 C 0.10501 0.1336 0.59222 0.0
C1710 C 0.19669 0.17899 0.56219 0.0
C1711 C 0.12826 0.16924 0.64594 0.0
H1712 H 0.26321 0.20093 0.70971 0.0
H1713 H 0.2206 0.28166 0.64584 0.0
H1714 H 0.19522 0.13615 0.67183 0.0
H1715 H 0.21829 0.1414 0.64122 0.0
H1716 H 0.24306 0.14665 0.6894 0.0
H1717 H 0.17106 0.27372 0.591 0.0
H1718 H 0.16752 0.24028 0.56541 0.0
H1719 H 0.13967 0.23405 0.59122 0.0
H1720 H 0.1395 0.12973 0.52928 0.0
H1721 H 0.08202 0.12189 0.59971 0.0
H1722 H 0.22004 0.1708 0.58249 0.0
H1723 H 0.20332 0.20658 0.56196 0.0
H1724 H 0.19224 0.1717 0.53476 0.0
H1725 H 0.14932 0.16306 0.67139 0.0
H1726 H 0.10204 0.15663 0.64811 0.0
H1727 H 0.13171 0.1966 0.64422 0.0
C1728 C 0.73041 0.34198 0.29336 0.0
C1729 C 0.75165 0.32002 0.31513 0.0
C1730 C 0.71179 0.35777 0.30699 0.0
C1731 C 0.71318 0.35221 0.34408 0.0
C1732 C 0.73435 0.32988 0.36608 0.0
C1733 C 0.75289 0.31466 0.35182 0.0
C1734 C 0.69022 0.38058 0.28105 0.0
C1735 C 0.73752 0.32182 0.40537 0.0
C1736 C 0.69213 0.41608 0.39226 0.0
C1737 C 0.6566 0.40224 0.39094 0.0
C1738 C 0.71004 0.40073 0.37732 0.0
C1739 C 0.69332 0.36966 0.35987 0.0
C1740 C 0.6575 0.35555 0.35818 0.0
C1741 C 0.64007 0.37154 0.37314 0.0
C1742 C 0.74745 0.41833 0.38002 0.0
C1743 C 0.63714 0.32295 0.34036 0.0
H1744 H 0.72847 0.34731 0.26522 0.0
H1745 H 0.76867 0.29824 0.36996 0.0
H1746 H 0.69545 0.40392 0.29417 0.0
H1747 H 0.6959 0.3871 0.25544 0.0
H1748 H 0.66159 0.36808 0.27379 0.0
H1749 H 0.75365 0.30352 0.41915 0.0
H1750 H 0.74991 0.34494 0.42062 0.0
H1751 H 0.71072 0.31157 0.40685 0.0
H1752 H 0.7064 0.4397 0.40469 0.0
H1753 H 0.61313 0.35926 0.3712 0.0
H1754 H 0.74878 0.42314 0.35228 0.0
H1755 H 0.76554 0.40217 0.39585 0.0
H1756 H 0.75722 0.4424 0.39337 0.0
H1757 H 0.63403 0.32597 0.3111 0.0
H1758 H 0.61039 0.31385 0.34219 0.0
H1759 H 0.65216 0.30371 0.3534 0.0
C1760 C 0.48213 0.99385 0.06914 0.0
C1761 C 0.50311 1.02434 0.06115 0.0
C1762 C 0.46547 0.9915 0.09391 0.0
C1763 C 0.46979 1.02053 0.11087 0.0
C1764 C 0.48718 0.05202 0.09937 0.0
C1765 C 0.50389 0.05357 0.07465 0.0
C1766 C 0.44624 0.95731 0.10448 0.0
C1767 C 0.49058 0.08394 0.11468 0.0
C1768 C 0.41767 0.98711 0.17048 0.0
C1769 C 0.44291 0.97311 0.19893 0.0
C1770 C 0.42734 1.0088 0.14341 0.0
C1771 C 0.46266 1.01595 0.14513 0.0
C1772 C 0.48922 1.00778 0.17767 0.0
C1773 C 0.47896 0.98607 0.20425 0.0
C1774 C 0.399 1.02 0.1106 0.0
C1775 C 0.52778 1.01723 0.18171 0.0
H1776 H 0.48057 0.97135 0.05788 0.0
H1777 H 0.51929 0.07749 0.06776 0.0
H1778 H 0.46096 0.95023 0.13331 0.0
H1779 H 0.41931 0.95742 0.10224 0.0
H1780 H 0.44352 0.9378 0.08702 0.0
H1781 H 0.48359 0.10285 0.09194 0.0
H1782 H 0.47335 0.08071 0.13067 0.0
H1783 H 0.51862 0.09396 0.13241 0.0
H1784 H 0.38991 0.97854 0.1673 0.0
H1785 H 0.4989 0.97621 0.22665 0.0
H1786 H 0.38848 1.00181 0.08907 0.0
H1787 H 0.40996 0.04473 0.09911 0.0
H1788 H 0.37655 1.02139 0.11776 0.0
H1789 H 0.53168 1.0016 0.16436 0.0
H1790 H 0.54548 1.01351 0.21045 0.0
H1791 H 0.53582 0.04369 0.17248 0.0
C1792 C 1.01077 0.6242 0.91466 0.0
C1793 C 1.00448 0.60454 0.94488 0.0
C1794 C 0.98954 0.64647 0.89285 0.0
C1795 C 0.95978 0.64908 0.89986 0.0
C1796 C 0.95295 0.62885 0.92999 0.0
C1797 C 0.97537 0.60766 0.95216 0.0
C1798 C 0.99945 0.66773 0.86235 0.0
C1799 C 0.92139 0.62918 0.93868 0.0
C1800 C 0.92067 0.72753 0.86429 0.0
C1801 C 0.89224 0.71806 0.83107 0.0
C1802 C 0.94266 0.70593 0.88624 0.0
C1803 C 0.93626 0.67292 0.87605 0.0
C1804 C 0.90726 0.66304 0.8428 0.0
C1805 C 0.88626 0.68548 0.82085 0.0
C1806 C 0.97316 0.71874 0.92053 0.0
C1807 C 0.89789 0.62825 0.83052 0.0
H1808 H 1.03299 0.62271 0.90835 0.0
H1809 H 0.96955 0.59287 0.97498 0.0
H1810 H 0.97751 0.66159 0.83575 0.0
H1811 H 1.00354 0.69444 0.86614 0.0
H1812 H 1.02398 0.66423 0.86102 0.0
H1813 H 0.9177 0.61041 0.96084 0.0
H1814 H 0.92472 0.65421 0.94712 0.0
H1815 H 0.89689 0.62409 0.91391 0.0
H1816 H 0.92616 0.75228 0.87317 0.0
H1817 H 0.8645 0.67712 0.79577 0.0
H1818 H 0.99819 0.7155 0.92026 0.0
H1819 H 0.96865 0.70412 0.94481 0.0
H1820 H 0.97661 0.74549 0.92365 0.0
H1821 H 0.92036 0.62418 0.82543 0.0
H1822 H 0.87389 0.62349 0.8052 0.0
H1823 H 0.89317 0.60971 0.85245 0.0
C1824 C 0.36936 0.40381 0.08321 0.0
C1825 C 0.40049 0.42709 0.08305 0.0
C1826 C 0.36677 0.38808 0.11623 0.0
C1827 C 0.39583 0.39657 0.14951 0.0
C1828 C 0.4275 0.41989 0.14912 0.0
C1829 C 0.42949 0.43471 0.11571 0.0
C1830 C 0.3327 0.36304 0.1155 0.0
C1831 C 0.45859 0.43055 0.18393 0.0
C1832 C 0.37038 0.38004 0.23297 0.0
C1833 C 0.37895 0.34958 0.24696 0.0
C1834 C 0.37695 0.39633 0.20188 0.0
C1835 C 0.39259 0.38177 0.18473 0.0
C1836 C 0.40363 0.35226 0.20031 0.0
C1837 C 0.3965 0.33635 0.23131 0.0
C1838 C 0.36595 0.42841 0.18663 0.0
C1839 C 0.4215 0.33681 0.18329 0.0
H1840 H 0.34711 0.39817 0.05768 0.0
H1841 H 0.45341 0.45313 0.11512 0.0
H1842 H 0.33847 0.34081 0.13349 0.0
H1843 H 0.31777 0.37421 0.12592 0.0
H1844 H 0.31547 0.35495 0.08747 0.0
H1845 H 0.48294 0.4447 0.17849 0.0
H1846 H 0.45184 0.44676 0.19818 0.0
H1847 H 0.46453 0.40879 0.20285 0.0
H1848 H 0.35685 0.3903 0.24514 0.0
H1849 H 0.40326 0.31283 0.24236 0.0
H1850 H 0.34406 0.42441 0.15964 0.0
H1851 H 0.38845 0.4479 0.18232 0.0
H1852 H 0.35681 0.4378 0.2049 0.0
H1853 H 0.40346 0.33015 0.15509 0.0
H1854 H 0.42918 0.31424 0.19931 0.0
H1855 H 0.44571 0.35498 0.18114 0.0
C1856 C 0.54004 0.60683 0.90832 0.0
C1857 C 0.57093 0.60024 0.93525 0.0
C1858 C 0.53954 0.63909 0.89298 0.0
C1859 C 0.57136 0.66497 0.90378 0.0
C1860 C 0.60398 0.65641 0.92399 0.0
C1861 C 0.60339 0.62408 0.94045 0.0
C1862 C 0.50386 0.64585 0.86966 0.0
C1863 C 0.63922 0.68175 0.93133 0.0
C1864 C 0.5299 0.7353 0.86771 0.0
C1865 C 0.52114 0.73716 0.89787 0.0
C1866 C 0.55435 0.71725 0.87111 0.0
C1867 C 0.56787 0.69911 0.90442 0.0
C1868 C 0.56499 0.70706 0.93627 0.0
C1869 C 0.54203 0.72663 0.93256 0.0
C1870 C 0.56218 0.71446 0.83802 0.0
C1871 C 0.58162 0.69102 0.9735 0.0
H1872 H 0.51521 0.58777 0.90249 0.0
H1873 H 0.6279 0.61863 0.95974 0.0
H1874 H 0.49736 0.66259 0.88354 0.0
H1875 H 0.50448 0.65812 0.84306 0.0
H1876 H 0.48199 0.6227 0.86402 0.0
H1877 H 0.65657 0.6722 0.92263 0.0
H1878 H 0.63656 0.70624 0.91668 0.0
H1879 H 0.6529 0.6851 0.96115 0.0
H1880 H 0.51544 0.74494 0.84085 0.0
H1881 H 0.53741 0.73041 0.95641 0.0
H1882 H 0.53782 0.70107 0.81676 0.0
H1883 H 0.58349 0.70144 0.84478 0.0
H1884 H 0.57046 0.7398 0.82597 0.0
H1885 H 0.57006 0.66365 0.97348 0.0
H1886 H 0.57744 0.70082 0.99532 0.0
H1887 H 0.61058 0.6957 0.9805 0.0
C1888 C 0.14168 0.60386 0.60181 0.0
C1889 C 0.12742 0.57182 0.61429 0.0
C1890 C 0.16345 0.62907 0.62638 0.0
C1891 C 0.17247 0.62174 0.66457 0.0
C1892 C 0.15821 0.58932 0.67729 0.0
C1893 C 0.13544 0.565 0.65202 0.0
C1894 C 0.17707 0.6635 0.61144 0.0
C1895 C 0.16788 0.57996 0.71767 0.0
C1896 C 0.2595 0.67557 0.72621 0.0
C1897 C 0.24779 0.69599 0.74097 0.0
C1898 C 0.23531 0.65089 0.70211 0.0
C1899 C 0.19834 0.64732 0.69125 0.0
C1900 C 0.18638 0.6682 0.70589 0.0
C1901 C 0.21129 0.69193 0.73109 0.0
C1902 C 0.24941 0.62865 0.68824 0.0
C1903 C 0.14734 0.6661 0.69412 0.0
H1904 H 0.13575 0.6093 0.5728 0.0
H1905 H 0.12466 0.54026 0.66196 0.0
H1906 H 0.17182 0.68255 0.62351 0.0
H1907 H 0.20622 0.66891 0.61908 0.0
H1908 H 0.16463 0.66614 0.58118 0.0
H1909 H 0.15435 0.5538 0.72315 0.0
H1910 H 0.197 0.58309 0.73083 0.0
H1911 H 0.16076 0.59676 0.73083 0.0
H1912 H 0.28779 0.67884 0.73374 0.0
H1913 H 0.20227 0.70816 0.74201 0.0
H1914 H 0.2419 0.63273 0.65818 0.0
H1915 H 0.23742 0.60208 0.69397 0.0
H1916 H 0.27876 0.63334 0.70094 0.0
H1917 H 0.13594 0.6708 0.66404 0.0
H1918 H 0.14234 0.68436 0.70754 0.0
H1919 H 0.13302 0.64068 0.70064 0.0
C1920 C 0.38381 0.37748 0.68046 0.0
C1921 C 0.3858 0.34456 0.6976 0.0
C1922 C 0.40449 0.39789 0.65781 0.0
C1923 C 0.43129 0.38808 0.64996 0.0
C1924 C 0.43374 0.35493 0.6676 0.0
C1925 C 0.41204 0.33477 0.68943 0.0
C1926 C 0.39638 0.43087 0.64178 0.0
C1927 C 0.46033 0.33957 0.66434 0.0
C1928 C 0.47441 0.42088 0.56736 0.0
C1929 C 0.49943 0.45325 0.57477 0.0
C1930 C 0.45322 0.40112 0.58963 0.0
C1931 C 0.45507 0.411 0.62402 0.0
C1932 C 0.4806 0.44372 0.63206 0.0
C1933 C 0.50095 0.46338 0.60859 0.0
C1934 C 0.42787 0.36874 0.57468 0.0
C1935 C 0.48769 0.45906 0.66674 0.0
H1936 H 0.36506 0.388 0.68442 0.0
H1937 H 0.41642 0.31049 0.70075 0.0
H1938 H 0.41159 0.44971 0.66271 0.0
H1939 H 0.40351 0.43967 0.61721 0.0
H1940 H 0.36776 0.42922 0.63426 0.0
H1941 H 0.44633 0.32086 0.64316 0.0
H1942 H 0.4815 0.3583 0.65683 0.0
H1943 H 0.47291 0.32618 0.69049 0.0
H1944 H 0.47073 0.4102 0.54267 0.0
H1945 H 0.51892 0.48727 0.61772 0.0
H1946 H 0.40615 0.36031 0.58563 0.0
H1947 H 0.44278 0.34928 0.58189 0.0
H1948 H 0.41592 0.3711 0.54438 0.0
H1949 H 0.47218 0.47796 0.66013 0.0
H1950 H 0.51618 0.47215 0.67908 0.0
H1951 H 0.48027 0.44031 0.68724 0.0
C1952 C 0.28059 0.72546 0.15973 0.0
C1953 C 0.26984 0.73975 0.18155 0.0
C1954 C 0.25621 0.70113 0.1352 0.0
C1955 C 0.22013 0.69135 0.13205 0.0
C1956 C 0.2091 0.70654 0.15345 0.0
C1957 C 0.23419 0.73038 0.17816 0.0
C1958 C 0.26924 0.68524 0.11339 0.0
C1959 C 0.17088 0.69737 0.15057 0.0
C1960 C 0.15237 0.64778 0.04612 0.0
C1961 C 0.14619 0.61428 0.05895 0.0
C1962 C 0.17584 0.67316 0.06971 0.0
C1963 C 0.19413 0.66479 0.10691 0.0
C1964 C 0.18787 0.63093 0.12 0.0
C1965 C 0.16372 0.60614 0.09596 0.0
C1966 C 0.18108 0.70895 0.0548 0.0
C1967 C 0.2071 0.62082 0.15929 0.0
H1968 H 0.3083 0.7326 0.16268 0.0
H1969 H 0.22592 0.7418 0.19483 0.0
H1970 H 0.26444 0.65798 0.12022 0.0
H1971 H 0.25427 0.68876 0.08373 0.0
H1972 H 0.29801 0.69576 0.11876 0.0
H1973 H 0.16627 0.71277 0.1676 0.0
H1974 H 0.15326 0.70049 0.12171 0.0
H1975 H 0.16304 0.67076 0.15943 0.0
H1976 H 0.13868 0.6542 1.01759 0.0
H1977 H 0.15907 0.58026 0.10601 0.0
H1978 H 0.20918 0.71956 0.0574 0.0
H1979 H 0.17519 0.72413 0.07095 0.0
H1980 H 0.16389 0.71145 0.02561 0.0
H1981 H 0.2362 0.62897 0.16582 0.0
H1982 H 0.19958 0.59344 0.16509 0.0
H1983 H 0.20122 0.63332 0.17788 0.0
C1984 C 0.77207 0.38824 0.70288 0.0
C1985 C 0.75708 0.3566 0.71665 0.0
C1986 C 0.75189 0.41226 0.68369 0.0
C1987 C 0.71485 0.40555 0.67714 0.0
C1988 C 0.69964 0.37377 0.69122 0.0
C1989 C 0.72046 0.35025 0.7104 0.0
C1990 C 0.77044 0.44503 0.66989 0.0
C1991 C 0.66074 0.3642 0.68552 0.0
C1992 C 0.66353 0.47751 0.64597 0.0
C1993 C 0.64673 0.47532 0.60757 0.0
C1994 C 0.68557 0.45567 0.66865 0.0
C1995 C 0.69173 0.43025 0.65349 0.0
C1996 C 0.67508 0.42829 0.61488 0.0
C1997 C 0.65348 0.45022 0.59309 0.0
C1998 C 0.70222 0.4597 0.70925 0.0
C1999 C 0.67981 0.40248 0.59612 0.0
H2000 H 0.79992 0.39435 0.70676 0.0
H2001 H 0.70765 0.32641 0.72032 0.0
H2002 H 0.75875 0.44721 0.6396 0.0
H2003 H 0.76643 0.46599 0.68021 0.0
H2004 H 0.79939 0.4477 0.67836 0.0
H2005 H 0.65274 0.33968 0.69929 0.0
H2006 H 0.65431 0.38345 0.69607 0.0
H2007 H 0.64466 0.36305 0.65585 0.0
H2008 H 0.65926 0.49611 0.65856 0.0
H2009 H 0.64152 0.44729 0.56388 0.0
H2010 H 0.73145 0.46414 0.71835 0.0
H2011 H 0.69254 0.43637 0.72383 0.0
H2012 H 0.69614 0.48066 0.71734 0.0
H2013 H 0.70842 0.40575 0.60196 0.0
H2014 H 0.66573 0.40392 0.56601 0.0
H2015 H 0.66969 0.37714 0.60696 0.0
C2016 C 0.90957 0.68598 0.1454 0.0
C2017 C 0.87783 0.69192 0.14283 0.0
C2018 C 0.91282 0.67587 0.11545 0.0
C2019 C 0.88391 0.67288 0.08141 0.0
C2020 C 0.85331 0.68262 0.07745 0.0
C2021 C 0.8503 0.69148 0.10845 0.0
C2022 C 0.94659 0.66646 0.12122 0.0
C2023 C 0.82373 0.68328 0.04079 0.0
C2024 C 0.92657 0.65118 0.02726 0.0
C2025 C 0.92189 0.61723 0.03832 0.0
C2026 C 0.90715 0.66994 0.03363 0.0
C2027 C 0.8844 0.65435 0.05302 0.0
C2028 C 0.87405 0.61908 0.05652 0.0
C2029 C 0.89306 0.60075 0.04893 0.0
C2030 C 0.91561 0.70711 0.02557 0.0
C2031 C 0.84823 0.60111 0.07515 0.0
H2032 H 0.93164 0.68805 0.17136 0.0
H2033 H 0.82586 0.69677 0.10592 0.0
H2034 H 0.94049 0.63987 0.11564 0.0
H2035 H 0.95928 0.68173 0.10224 0.0
H2036 H 0.96622 0.67017 0.14955 0.0
H2037 H 0.80066 0.68905 0.04307 0.0
H2038 H 0.83358 0.7027 0.02224 0.0
H2039 H 0.81477 0.65919 0.02775 0.0
H2040 H 0.94799 0.66371 1.01753 0.0
H2041 H 0.88874 0.57427 0.05651 0.0
H2042 H 0.93737 0.71951 0.04968 0.0
H2043 H 0.89217 0.71687 0.01971 0.0
H2044 H 0.92449 0.71378 1.00191 0.0
H2045 H 0.86176 0.60345 0.10514 0.0
H2046 H 0.83833 0.57416 0.06973 0.0
H2047 H 0.8252 0.61215 0.06598 0.0
C2048 C 0.9342 0.65736 0.51189 0.0
C2049 C 0.97063 0.66922 0.53154 0.0
C2050 C 0.90875 0.66179 0.5239 0.0
C2051 C 0.92002 0.67853 0.5563 0.0
C2052 C 0.95673 0.69115 0.57586 0.0
C2053 C 0.9816 0.68628 0.56328 0.0
C2054 C 0.86986 0.64775 0.5025 0.0
C2055 C 0.96976 0.70931 0.61043 0.0
C2056 C 0.85647 0.71447 0.57539 0.0
C2057 C 0.84726 0.69085 0.60143 0.0
C2058 C 0.87959 0.71047 0.55985 0.0
C2059 C 0.89352 0.68203 0.57044 0.0
C2060 C 0.88322 0.65753 0.59573 0.0
C2061 C 0.86037 0.66235 0.6111 0.0
C2062 C 0.89006 0.73721 0.53309 0.0
C2063 C 0.89726 0.62678 0.60754 0.0
H2064 H 0.92556 0.64358 0.48774 0.0
H2065 H 1.0097 0.69568 0.5784 0.0
H2066 H 0.8581 0.6281 0.51956 0.0
H2067 H 0.85537 0.66753 0.49534 0.0
H2068 H 0.86544 0.6368 0.47693 0.0
H2069 H 0.99911 0.71875 0.62158 0.0
H2070 H 0.95772 0.7307 0.60512 0.0
H2071 H 0.9614 0.69235 0.63157 0.0
H2072 H 0.84668 0.73676 0.56826 0.0
H2073 H 0.85309 0.64402 0.63111 0.0
H2074 H 0.88478 0.72608 0.50738 0.0
H2075 H 0.91897 0.74892 0.54472 0.0
H2076 H 0.87558 0.75699 0.52645 0.0
H2077 H 0.8931 0.61397 0.58331 0.0
H2078 H 0.88439 0.60882 0.62502 0.0
H2079 H 0.92623 0.63417 0.6232 0.0
C2080 C 0.48917 0.61092 0.45263 0.0
C2081 C 0.49324 0.58378 0.43878 0.0
C2082 C 0.46757 0.63277 0.43079 0.0
C2083 C 0.44809 0.62857 0.3928 0.0
C2084 C 0.45165 0.6012 0.37827 0.0
C2085 C 0.47385 0.57953 0.40096 0.0
C2086 C 0.46583 0.66088 0.44879 0.0
C2087 C 0.43187 0.59476 0.33834 0.0
C2088 C 0.36856 0.6718 0.34688 0.0
C2089 C 0.38263 0.70191 0.32988 0.0
C2090 C 0.38869 0.64774 0.36594 0.0
C2091 C 0.42472 0.65298 0.36916 0.0
C2092 C 0.43896 0.68322 0.35181 0.0
C2093 C 0.41816 0.70672 0.33269 0.0
C2094 C 0.37123 0.61657 0.38322 0.0
C2095 C 0.47684 0.69123 0.354 0.0
H2096 H 0.5033 0.61557 0.48136 0.0
H2097 H 0.47598 0.55927 0.38889 0.0
H2098 H 0.47511 0.68514 0.43536 0.0
H2099 H 0.43796 0.65861 0.44542 0.0
H2100 H 0.48223 0.66127 0.47844 0.0
H2101 H 0.43628 0.57254 0.33075 0.0
H2102 H 0.403 0.59102 0.33153 0.0
H2103 H 0.44044 0.6168 0.32148 0.0
H2104 H 0.34146 0.6669 0.34547 0.0
H2105 H 0.43019 0.7294 0.32021 0.0
H2106 H 0.38488 0.61639 0.41336 0.0
H2107 H 0.37373 0.59422 0.37391 0.0
H2108 H 0.34266 0.61456 0.37658 0.0
H2109 H 0.49507 0.69374 0.38296 0.0
H2110 H 0.48404 0.71469 0.33815 0.0
H2111 H 0.48118 0.67053 0.34357 0.0
C2112 C 0.25986 0.3225 0.94379 0.0
C2113 C 0.285 0.34715 0.93272 0.0
C2114 C 0.2442 0.33064 0.96539 0.0
C2115 C 0.25371 0.36403 0.97491 0.0
C2116 C 0.28524 0.38584 0.97202 0.0
C2117 C 0.30063 0.37715 0.95056 0.0
C2118 C 0.21301 0.30556 0.97159 0.0
C2119 C 0.29818 0.42087 0.9847 0.0
C2120 C 0.18163 0.40958 0.93254 0.0
C2121 C 0.17999 0.42004 0.96318 0.0
C2122 C 0.20384 0.38938 0.93623 0.0
C2123 C 0.22508 0.37929 0.97178 0.0
C2124 C 0.22139 0.38763 1.00293 0.0
C2125 C 0.19877 0.40812 0.99823 0.0
C2126 C 0.20571 0.38052 0.90178 0.0
C2127 C 0.24222 0.37654 0.04122 0.0
H2128 H 0.2491 0.29845 0.93169 0.0
H2129 H 0.32116 0.39591 0.94344 0.0
H2130 H 0.21017 0.31032 0.99679 0.0
H2131 H 0.18834 0.30747 0.94808 0.0
H2132 H 0.21585 0.27975 0.97369 0.0
H2133 H 0.32631 0.43192 0.9875 0.0
H2134 H 0.28179 0.4367 0.96438 0.0
H2135 H 0.29562 0.42128 1.01131 0.0
H2136 H 0.16625 0.41822 0.9055 0.0
H2137 H 0.19704 0.41599 0.02197 0.0
H2138 H 0.19926 0.35307 0.90069 0.0
H2139 H 0.23288 0.39107 0.90143 0.0
H2140 H 0.18695 0.39015 0.87656 0.0
H2141 H 0.22568 0.37032 0.0584 0.0
H2142 H 0.26536 0.39732 0.05385 0.0
H2143 H 0.25198 0.35457 0.04177 0.0
C2144 C 0.18827 0.26766 0.43646 0.0
C2145 C 0.20396 0.29525 0.41815 0.0
C2146 C 0.16622 0.27086 0.45381 0.0
C2147 C 0.15982 0.30234 0.45266 0.0
C2148 C 0.17495 0.33003 0.4334 0.0
C2149 C 0.1967 0.32607 0.41624 0.0
C2150 C 0.14966 0.24053 0.47297 0.0
C2151 C 0.16938 0.36423 0.43217 0.0
C2152 C 0.08731 0.32165 0.47236 0.0
C2153 C 0.10653 0.33472 0.50695 0.0
C2154 C 0.10336 0.30768 0.45554 0.0
C2155 C 0.13954 0.30758 0.47351 0.0
C2156 C 0.15797 0.31786 0.50976 0.0
C2157 C 0.14114 0.3312 0.52615 0.0
C2158 C 0.08248 0.2954 0.41754 0.0
C2159 C 0.19643 0.3175 0.53004 0.0
H2160 H 0.19348 0.24367 0.4374 0.0
H2161 H 0.20917 0.34746 0.40245 0.0
H2162 H 0.14846 0.24676 0.49839 0.0
H2163 H 0.12207 0.2303 0.45449 0.0
H2164 H 0.16428 0.22084 0.47986 0.0
H2165 H 0.18265 0.383 0.41557 0.0
H2166 H 0.14062 0.36317 0.4205 0.0
H2167 H 0.17997 0.37289 0.46031 0.0
H2168 H 1.06028 0.32378 0.45779 0.0
H2169 H 0.15606 0.34125 0.55291 0.0
H2170 H 0.0875 0.27146 0.41533 0.0
H2171 H 0.09114 0.31378 0.39747 0.0
H2172 H 1.05351 0.29191 0.40998 0.0
H2173 H 0.20024 0.29263 0.5292 0.0
H2174 H 0.20599 0.32362 0.55906 0.0
H2175 H 0.21314 0.33599 0.51653 0.0
loop_
_geom_bond_atom_site_label_1
_geom_bond_atom_site_label_2
_geom_bond_distance
_geom_bond_site_symmetry_2
_ccdc_geom_bond_type
C0 Eu1 2.835 1_655 S
C0 C2 1.500 . S
C0 O20 1.257 . S
C0 O21 1.260 1_655 S
Eu1 C0 2.835 1_455 S
Eu1 O20 2.473 1_455 S
Eu1 O21 2.480 . S
Eu1 O22 2.430 . S
Eu1 O23 2.670 1_554 S
Eu1 O24 2.394 1_454 S
Eu1 O29 2.355 1_445 S
Eu1 O31 2.374 1_545 S
C2 C0 1.500 . S
C2 C3 1.377 . S
C2 C7 1.377 . S
C3 C2 1.377 . S
C3 C4 1.395 . S
C3 H32 0.931 1_655 S
C4 C3 1.395 . S
C4 C5 1.383 . S
C4 H33 0.939 . S
C5 C4 1.383 . S
C5 C6 1.394 . S
C6 C5 1.394 . S
C6 C7 1.378 . S
C6 H34 0.931 . S
C7 C2 1.377 . S
C7 C6 1.378 . S
C7 H35 0.931 . S
C8 O22 1.259 1_556 S
C8 O23 1.270 . S
C9 O24 1.251 . S
C9 O25 1.251 . S
C10 Eu11 2.835 1_455 S
C10 C12 1.500 . S
C10 O26 1.257 . S
C10 O27 1.260 1_455 S
Eu11 C10 2.835 1_655 S
Eu11 O23 2.355 1_665 S
Eu11 O25 2.374 1_565 S
Eu11 O26 2.473 1_655 S
Eu11 O27 2.480 . S
Eu11 O28 2.430 . S
Eu11 O29 2.670 1_556 S
Eu11 O30 2.394 1_656 S
C12 C10 1.500 . S
C12 C13 1.377 . S
C12 C17 1.377 . S
C13 C12 1.377 . S
C13 C14 1.395 . S
C13 H36 0.931 1_455 S
C14 C13 1.395 . S
C14 C15 1.383 . S
C14 H37 0.931 . S
C15 C14 1.383 . S
C15 C16 1.394 . S
C16 C15 1.394 . S
C16 C17 1.378 . S
C16 H38 0.931 . S
C17 C12 1.377 . S
C17 C16 1.378 . S
C17 H39 0.931 . S
C18 O28 1.259 1_554 S
C18 O29 1.270 . S
C19 O30 1.251 . S
C19 O31 1.251 . S
O20 C0 1.257 . S
O20 Eu1 2.473 1_655 S
O21 C0 1.260 1_455 S
O21 Eu1 2.480 . S
O22 Eu1 2.430 . S
O22 C8 1.259 1_554 S
O23 Eu1 2.670 1_556 S
O23 C8 1.270 . S
O23 Eu11 2.355 1_445 S
O24 Eu1 2.394 1_656 S
O24 C9 1.251 . S
O25 C9 1.251 . S
O25 Eu11 2.374 1_545 S
O26 C10 1.257 . S
O26 Eu11 2.473 1_455 S
O27 C10 1.260 1_655 S
O27 Eu11 2.480 . S
O28 Eu11 2.430 . S
O28 C18 1.259 1_556 S
O29 Eu1 2.355 1_665 S
O29 Eu11 2.670 1_554 S
O29 C18 1.270 . S
O30 Eu11 2.394 1_454 S
O30 C19 1.251 . S
O31 Eu1 2.374 1_565 S
O31 C19 1.251 . S
H32 C3 0.931 1_455 S
H33 C4 0.939 . S
H34 C6 0.931 . S
H35 C7 0.931 . S
H36 C13 0.931 1_655 S
H37 C14 0.931 . S
H38 C16 0.931 . S
H39 C17 0.931 . S
C40 Eu41 2.835 . S
C40 C42 1.500 . S
C40 O60 1.257 . S
C40 O61 1.260 . S
Eu41 C40 2.835 . S
Eu41 O60 2.473 . S
Eu41 O61 2.480 . S
Eu41 O62 2.430 . S
Eu41 O63 2.670 . S
Eu41 O64 2.394 . S
Eu41 O69 2.355 . S
Eu41 O71 2.374 . S
C42 C40 1.500 . S
C42 C43 1.377 . S
C42 C47 1.377 . S
C43 C42 1.377 . S
C43 C44 1.395 . S
C43 H72 0.931 . S
C44 C43 1.395 . S
C44 C45 1.383 . S
C44 H73 0.931 . S
C45 C44 1.383 . S
C45 C46 1.394 . S
C46 C45 1.394 . S
C46 C47 1.378 . S
C46 H74 0.931 . S
C47 C42 1.377 . S
C47 C46 1.378 . S
C47 H75 0.931 . S
C48 O62 1.259 . S
C48 O63 1.270 . S
C49 O64 1.251 . S
C49 O65 1.251 . S
C50 Eu51 2.835 . S
C50 C52 1.500 . S
C50 O66 1.257 . S
C50 O67 1.260 . S
Eu51 C50 2.835 . S
Eu51 O63 2.355 . S
Eu51 O65 2.374 . S
Eu51 O66 2.473 . S
Eu51 O67 2.480 . S
Eu51 O68 2.430 . S
Eu51 O69 2.670 . S
Eu51 O70 2.394 . S
C52 C50 1.500 . S
C52 C53 1.377 . S
C52 C57 1.377 . S
C53 C52 1.377 . S
C53 C54 1.395 . S
C53 H76 0.931 . S
C54 C53 1.395 . S
C54 C55 1.383 . S
C54 H77 0.931 . S
C55 C54 1.383 . S
C55 C56 1.394 . S
C56 C55 1.394 . S
C56 C57 1.378 . S
C56 H78 0.931 . S
C57 C52 1.377 . S
C57 C56 1.378 . S
C57 H79 0.931 . S
C58 O68 1.259 . S
C58 O69 1.270 . S
C59 O70 1.251 . S
C59 O71 1.251 . S
O60 C40 1.257 . S
O60 Eu41 2.473 . S
O61 C40 1.260 . S
O61 Eu41 2.480 . S
O62 Eu41 2.430 . S
O62 C48 1.259 . S
O63 Eu41 2.670 . S
O63 C48 1.270 . S
O63 Eu51 2.355 . S
O64 Eu41 2.394 . S
O64 C49 1.251 . S
O65 C49 1.251 . S
O65 Eu51 2.374 . S
O66 C50 1.257 . S
O66 Eu51 2.473 . S
O67 C50 1.260 . S
O67 Eu51 2.480 . S
O68 Eu51 2.430 . S
O68 C58 1.259 . S
O69 Eu41 2.355 . S
O69 Eu51 2.670 . S
O69 C58 1.270 . S
O70 Eu51 2.394 . S
O70 C59 1.251 . S
O71 Eu41 2.374 . S
O71 C59 1.251 . S
H72 C43 0.931 . S
H73 C44 0.931 . S
H74 C46 0.931 . S
H75 C47 0.931 . S
H76 C53 0.931 . S
H77 C54 0.931 . S
H78 C56 0.931 . S
H79 C57 0.931 . S
C80 Eu81 2.835 1_565 S
C80 C82 1.500 . S
C80 O100 1.257 . S
C80 O101 1.260 1_565 S
Eu81 C80 2.835 1_545 S
Eu81 O100 2.473 1_545 S
Eu81 O101 2.480 . S
Eu81 O102 2.430 . S
Eu81 O103 2.670 . S
Eu81 O104 2.394 1_545 S
Eu81 O109 2.355 1_545 S
Eu81 O111 2.374 . S
C82 C80 1.500 . S
C82 C83 1.377 . S
C82 C87 1.377 . S
C83 C82 1.377 . S
C83 C84 1.395 . S
C83 H112 0.931 . S
C84 C83 1.395 . S
C84 C85 1.383 . S
C84 H113 0.931 . S
C85 C84 1.383 . S
C85 C86 1.394 . S
C86 C85 1.394 . S
C86 C87 1.378 . S
C86 H114 0.931 . S
C87 C82 1.377 . S
C87 C86 1.378 . S
C87 H115 0.931 . S
C88 O102 1.259 . S
C88 O103 1.270 . S
C89 O104 1.251 . S
C89 O105 1.251 . S
C90 Eu91 2.835 1_545 S
C90 C92 1.500 . S
C90 O106 1.257 . S
C90 O107 1.260 1_545 S
Eu91 C90 2.835 1_565 S
Eu91 O103 2.355 1_565 S
Eu91 O105 2.374 . S
Eu91 O106 2.473 1_565 S
Eu91 O107 2.480 . S
Eu91 O108 2.430 . S
Eu91 O109 2.670 . S
Eu91 O110 2.394 1_565 S
C92 C90 1.500 . S
C92 C93 1.377 . S
C92 C97 1.377 . S
C93 C92 1.377 . S
C93 C94 1.395 . S
C93 H116 0.931 . S
C94 C93 1.395 . S
C94 C95 1.383 . S
C94 H117 0.931 . S
C95 C94 1.383 . S
C95 C96 1.394 . S
C96 C95 1.394 . S
C96 C97 1.378 . S
C96 H118 0.931 . S
C97 C92 1.377 . S
C97 C96 1.378 . S
C97 H119 0.931 . S
C98 O108 1.259 . S
C98 O109 1.270 . S
C99 O110 1.251 . S
C99 O111 1.251 . S
O100 C80 1.257 . S
O100 Eu81 2.473 1_565 S
O101 C80 1.260 1_545 S
O101 Eu81 2.480 . S
O102 Eu81 2.430 . S
O102 C88 1.259 . S
O103 Eu81 2.670 . S
O103 C88 1.270 . S
O103 Eu91 2.355 1_545 S
O104 Eu81 2.394 1_565 S
O104 C89 1.251 . S
O105 C89 1.251 . S
O105 Eu91 2.374 . S
O106 C90 1.257 . S
O106 Eu91 2.473 1_545 S
O107 C90 1.260 1_565 S
O107 Eu91 2.480 . S
O108 Eu91 2.430 . S
O108 C98 1.259 . S
O109 Eu81 2.355 1_565 S
O109 Eu91 2.670 . S
O109 C98 1.270 . S
O110 Eu91 2.394 1_545 S
O110 C99 1.251 . S
O111 Eu81 2.374 . S
O111 C99 1.251 . S
H112 C83 0.931 . S
H113 C84 0.931 . S
H114 C86 0.931 . S
H115 C87 0.931 . S
H116 C93 0.931 . S
H117 C94 0.931 . S
H118 C96 0.931 . S
H119 C97 0.931 . S
C120 Eu121 2.835 . S
C120 C122 1.500 . S
C120 O140 1.257 . S
C120 O141 1.260 . S
Eu121 C120 2.835 . S
Eu121 O140 2.473 . S
Eu121 O141 2.480 . S
Eu121 O142 2.430 . S
Eu121 O143 2.670 . S
Eu121 O144 2.394 . S
Eu121 O149 2.355 . S
Eu121 O151 2.374 . S
C122 C120 1.500 . S
C122 C123 1.377 . S
C122 C127 1.377 . S
C123 C122 1.377 . S
C123 C124 1.395 . S
C123 H152 0.931 . S
C124 C123 1.395 . S
C124 C125 1.383 . S
C124 H153 0.931 . S
C125 C124 1.383 . S
C125 C126 1.394 . S
C126 C125 1.394 . S
C126 C127 1.378 . S
C126 H154 0.931 . S
C127 C122 1.377 . S
C127 C126 1.378 . S
C127 H155 0.931 . S
C128 O142 1.259 . S
C128 O143 1.270 . S
C129 O144 1.251 . S
C129 O145 1.251 . S
C130 Eu131 2.835 . S
C130 C132 1.500 . S
C130 O146 1.257 . S
C130 O147 1.260 . S
Eu131 C130 2.835 . S
Eu131 O143 2.355 . S
Eu131 O145 2.374 . S
Eu131 O146 2.473 . S
Eu131 O147 2.480 . S
Eu131 O148 2.430 . S
Eu131 O149 2.670 . S
Eu131 O150 2.394 . S
C132 C130 1.500 . S
C132 C133 1.377 . S
C132 C137 1.377 . S
C133 C132 1.377 . S
C133 C134 1.395 . S
C133 H156 0.931 . S
C134 C133 1.395 . S
C134 C135 1.383 . S
C134 H157 0.931 . S
C135 C134 1.383 . S
C135 C136 1.394 . S
C136 C135 1.394 . S
C136 C137 1.378 . S
C136 H158 0.931 . S
C137 C132 1.377 . S
C137 C136 1.378 . S
C137 H159 0.931 . S
C138 O148 1.259 . S
C138 O149 1.270 . S
C139 O150 1.251 . S
C139 O151 1.251 . S
O140 C120 1.257 . S
O140 Eu121 2.473 . S
O141 C120 1.260 . S
O141 Eu121 2.480 . S
O142 Eu121 2.430 . S
O142 C128 1.259 . S
O143 Eu121 2.670 . S
O143 C128 1.270 . S
O143 Eu131 2.355 . S
O144 Eu121 2.394 . S
O144 C129 1.251 . S
O145 C129 1.251 . S
O145 Eu131 2.374 . S
O146 C130 1.257 . S
O146 Eu131 2.473 . S
O147 C130 1.260 . S
O147 Eu131 2.480 . S
O148 Eu131 2.430 . S
O148 C138 1.259 . S
O149 Eu121 2.355 . S
O149 Eu131 2.670 . S
O149 C138 1.270 . S
O150 Eu131 2.394 . S
O150 C139 1.251 . S
O151 Eu121 2.374 . S
O151 C139 1.251 . S
H152 C123 0.931 . S
H153 C124 0.931 . S
H154 C126 0.931 . S
H155 C127 0.931 . S
H156 C133 0.931 . S
H157 C134 0.931 . S
H158 C136 0.931 . S
H159 C137 0.931 . S
C160 Eu161 2.835 . S
C160 C162 1.500 . S
C160 O180 1.257 . S
C160 O181 1.260 . S
Eu161 C160 2.835 . S
Eu161 O180 2.473 . S
Eu161 O181 2.480 . S
Eu161 O182 2.430 1_445 S
Eu161 O183 2.670 1_445 S
Eu161 O184 2.394 1_455 S
Eu161 O189 2.355 . S
Eu161 O191 2.374 1_545 S
C162 C160 1.500 . S
C162 C163 1.377 . S
C162 C167 1.377 . S
C163 C162 1.377 . S
C163 C164 1.395 . S
C163 H192 0.931 . S
C164 C163 1.395 . S
C164 C165 1.383 . S
C164 H193 0.931 . S
C165 C164 1.383 . S
C165 C166 1.394 . S
C166 C165 1.394 . S
C166 C167 1.378 . S
C166 H194 0.931 . S
C167 C162 1.377 . S
C167 C166 1.378 . S
C167 H195 0.931 . S
C168 O182 1.259 . S
C168 O183 1.270 . S
C169 O184 1.251 . S
C169 O185 1.251 . S
C170 Eu171 2.835 . S
C170 C172 1.500 . S
C170 O186 1.257 . S
C170 O187 1.260 . S
Eu171 C170 2.835 . S
Eu171 O183 2.355 . S
Eu171 O185 2.374 1_565 S
Eu171 O186 2.473 . S
Eu171 O187 2.480 . S
Eu171 O188 2.430 1_665 S
Eu171 O189 2.670 1_665 S
Eu171 O190 2.394 1_655 S
C172 C170 1.500 . S
C172 C173 1.377 . S
C172 C177 1.377 . S
C173 C172 1.377 . S
C173 C174 1.395 . S
C173 H196 0.931 . S
C174 C173 1.395 . S
C174 C175 1.383 . S
C174 H197 0.931 . S
C175 C174 1.383 . S
C175 C176 1.394 . S
C176 C175 1.394 . S
C176 C177 1.378 . S
C176 H198 0.931 . S
C177 C172 1.377 . S
C177 C176 1.378 . S
C177 H199 0.931 . S
C178 O188 1.259 . S
C178 O189 1.270 . S
C179 O190 1.251 . S
C179 O191 1.251 . S
O180 C160 1.257 . S
O180 Eu161 2.473 . S
O181 C160 1.260 . S
O181 Eu161 2.480 . S
O182 Eu161 2.430 1_665 S
O182 C168 1.259 . S
O183 Eu161 2.670 1_665 S
O183 C168 1.270 . S
O183 Eu171 2.355 . S
O184 Eu161 2.394 1_655 S
O184 C169 1.251 . S
O185 C169 1.251 . S
O185 Eu171 2.374 1_545 S
O186 C170 1.257 . S
O186 Eu171 2.473 . S
O187 C170 1.260 . S
O187 Eu171 2.480 . S
O188 Eu171 2.430 1_445 S
O188 C178 1.259 . S
O189 Eu161 2.355 . S
O189 Eu171 2.670 1_445 S
O189 C178 1.270 . S
O190 Eu171 2.394 1_455 S
O190 C179 1.251 . S
O191 Eu161 2.374 1_565 S
O191 C179 1.251 . S
H192 C163 0.931 . S
H193 C164 0.931 . S
H194 C166 0.931 . S
H195 C167 0.931 . S
H196 C173 0.931 . S
H197 C174 0.931 . S
H198 C176 0.931 . S
H199 C177 0.931 . S
C200 Eu201 2.835 . S
C200 C202 1.500 . S
C200 O220 1.257 . S
C200 O221 1.260 . S
Eu201 C200 2.835 . S
Eu201 O220 2.473 . S
Eu201 O221 2.480 . S
Eu201 O222 2.430 . S
Eu201 O223 2.670 . S
Eu201 O224 2.394 . S
Eu201 O229 2.355 . S
Eu201 O231 2.374 . S
C202 C200 1.500 . S
C202 C203 1.377 . S
C202 C207 1.377 . S
C203 C202 1.377 . S
C203 C204 1.395 . S
C203 H232 0.931 . S
C204 C203 1.395 . S
C204 C205 1.383 . S
C204 H233 0.931 . S
C205 C204 1.383 . S
C205 C206 1.394 . S
C206 C205 1.394 . S
C206 C207 1.378 . S
C206 H234 0.931 . S
C207 C202 1.377 . S
C207 C206 1.378 . S
C207 H235 0.931 . S
C208 O222 1.259 . S
C208 O223 1.270 . S
C209 O224 1.251 . S
C209 O225 1.251 . S
C210 Eu211 2.835 . S
C210 C212 1.500 . S
C210 O226 1.257 . S
C210 O227 1.260 . S
Eu211 C210 2.835 . S
Eu211 O223 2.355 . S
Eu211 O225 2.374 . S
Eu211 O226 2.473 . S
Eu211 O227 2.480 . S
Eu211 O228 2.430 . S
Eu211 O229 2.670 . S
Eu211 O230 2.394 . S
C212 C210 1.500 . S
C212 C213 1.377 . S
C212 C217 1.377 . S
C213 C212 1.377 . S
C213 C214 1.395 . S
C213 H236 0.931 . S
C214 C213 1.395 . S
C214 C215 1.383 . S
C214 H237 0.931 . S
C215 C214 1.383 . S
C215 C216 1.394 . S
C216 C215 1.394 . S
C216 C217 1.378 . S
C216 H238 0.931 . S
C217 C212 1.377 . S
C217 C216 1.378 . S
C217 H239 0.931 . S
C218 O228 1.259 . S
C218 O229 1.270 . S
C219 O230 1.251 . S
C219 O231 1.251 . S
O220 C200 1.257 . S
O220 Eu201 2.473 . S
O221 C200 1.260 . S
O221 Eu201 2.480 . S
O222 Eu201 2.430 . S
O222 C208 1.259 . S
O223 Eu201 2.670 . S
O223 C208 1.270 . S
O223 Eu211 2.355 . S
O224 Eu201 2.394 . S
O224 C209 1.251 . S
O225 C209 1.251 . S
O225 Eu211 2.374 . S
O226 C210 1.257 . S
O226 Eu211 2.473 . S
O227 C210 1.260 . S
O227 Eu211 2.480 . S
O228 Eu211 2.430 . S
O228 C218 1.259 . S
O229 Eu201 2.355 . S
O229 Eu211 2.670 . S
O229 C218 1.270 . S
O230 Eu211 2.394 . S
O230 C219 1.251 . S
O231 Eu201 2.374 . S
O231 C219 1.251 . S
H232 C203 0.931 . S
H233 C204 0.931 . S
H234 C206 0.931 . S
H235 C207 0.931 . S
H236 C213 0.931 . S
H237 C214 0.931 . S
H238 C216 0.931 . S
H239 C217 0.931 . S
C240 Eu241 2.835 1_554 S
C240 C242 1.500 . S
C240 O260 1.257 . S
C240 O261 1.260 1_554 S
Eu241 C240 2.835 1_556 S
Eu241 O260 2.473 1_556 S
Eu241 O261 2.480 . S
Eu241 O262 2.430 1_545 S
Eu241 O263 2.670 1_545 S
Eu241 O264 2.394 1_546 S
Eu241 O269 2.355 1_556 S
Eu241 O271 2.374 . S
C242 C240 1.500 . S
C242 C243 1.377 . S
C242 C247 1.377 . S
C243 C242 1.377 . S
C243 C244 1.395 . S
C243 H272 0.931 1_554 S
C244 C243 1.395 . S
C244 C245 1.383 . S
C244 H273 0.931 . S
C245 C244 1.383 . S
C245 C246 1.394 . S
C246 C245 1.394 . S
C246 C247 1.378 . S
C246 H274 0.931 . S
C247 C242 1.377 . S
C247 C246 1.378 . S
C247 H275 0.931 . S
C248 O262 1.259 . S
C248 O263 1.270 . S
C249 O264 1.251 . S
C249 O265 1.251 . S
C250 Eu251 2.835 1_556 S
C250 C252 1.500 . S
C250 O266 1.257 . S
C250 O267 1.260 1_556 S
Eu251 C250 2.835 1_554 S
Eu251 O263 2.355 1_554 S
Eu251 O265 2.374 . S
Eu251 O266 2.473 1_554 S
Eu251 O267 2.480 . S
Eu251 O268 2.430 1_565 S
Eu251 O269 2.670 1_565 S
Eu251 O270 2.394 1_564 S
C252 C250 1.500 . S
C252 C253 1.377 . S
C252 C257 1.377 . S
C253 C252 1.377 . S
C253 C254 1.395 . S
C253 H276 0.931 1_556 S
C254 C253 1.395 . S
C254 C255 1.383 . S
C254 H277 0.931 . S
C255 C254 1.383 . S
C255 C256 1.394 . S
C256 C255 1.394 . S
C256 C257 1.378 . S
C256 H278 0.931 . S
C257 C252 1.377 . S
C257 C256 1.378 . S
C257 H279 0.931 . S
C258 O268 1.259 . S
C258 O269 1.270 . S
C259 O270 1.251 . S
C259 O271 1.251 . S
O260 C240 1.257 . S
O260 Eu241 2.473 1_554 S
O261 C240 1.260 1_556 S
O261 Eu241 2.480 . S
O262 Eu241 2.430 1_565 S
O262 C248 1.259 . S
O263 Eu241 2.670 1_565 S
O263 C248 1.270 . S
O263 Eu251 2.355 1_556 S
O264 Eu241 2.394 1_564 S
O264 C249 1.251 . S
O265 C249 1.251 . S
O265 Eu251 2.374 . S
O266 C250 1.257 . S
O266 Eu251 2.473 1_556 S
O267 C250 1.260 1_554 S
O267 Eu251 2.480 . S
O268 Eu251 2.430 1_545 S
O268 C258 1.259 . S
O269 Eu241 2.355 1_554 S
O269 Eu251 2.670 1_545 S
O269 C258 1.270 . S
O270 Eu251 2.394 1_546 S
O270 C259 1.251 . S
O271 Eu241 2.374 . S
O271 C259 1.251 . S
H272 C243 0.931 1_556 S
H273 C244 0.931 . S
H274 C246 0.931 . S
H275 C247 0.931 . S
H276 C253 0.931 1_554 S
H277 C254 0.931 . S
H278 C256 0.931 . S
H279 C257 0.931 . S
C280 Eu281 2.835 . S
C280 C282 1.500 . S
C280 O300 1.257 . S
C280 O301 1.260 . S
Eu281 C280 2.835 . S
Eu281 O300 2.473 . S
Eu281 O301 2.480 . S
Eu281 O302 2.430 . S
Eu281 O303 2.670 . S
Eu281 O304 2.394 . S
Eu281 O309 2.355 . S
Eu281 O311 2.374 . S
C282 C280 1.500 . S
C282 C283 1.377 . S
C282 C287 1.377 . S
C283 C282 1.377 . S
C283 C284 1.395 . S
C283 H312 0.931 . S
C284 C283 1.395 . S
C284 C285 1.383 . S
C284 H313 0.931 . S
C285 C284 1.383 . S
C285 C286 1.394 . S
C286 C285 1.394 . S
C286 C287 1.378 . S
C286 H314 0.931 . S
C287 C282 1.377 . S
C287 C286 1.378 . S
C287 H315 0.931 . S
C288 O302 1.259 . S
C288 O303 1.270 . S
C289 O304 1.251 . S
C289 O305 1.251 . S
C290 Eu291 2.835 . S
C290 C292 1.500 . S
C290 O306 1.257 . S
C290 O307 1.260 . S
Eu291 C290 2.835 . S
Eu291 O303 2.355 . S
Eu291 O305 2.374 . S
Eu291 O306 2.473 . S
Eu291 O307 2.480 . S
Eu291 O308 2.430 . S
Eu291 O309 2.670 . S
Eu291 O310 2.394 . S
C292 C290 1.500 . S
C292 C293 1.377 . S
C292 C297 1.377 . S
C293 C292 1.377 . S
C293 C294 1.395 . S
C293 H316 0.931 . S
C294 C293 1.395 . S
C294 C295 1.383 . S
C294 H317 0.931 . S
C295 C294 1.383 . S
C295 C296 1.394 . S
C296 C295 1.394 . S
C296 C297 1.378 . S
C296 H318 0.931 . S
C297 C292 1.377 . S
C297 C296 1.378 . S
C297 H319 0.931 . S
C298 O308 1.259 . S
C298 O309 1.270 . S
C299 O310 1.251 . S
C299 O311 1.251 . S
O300 C280 1.257 . S
O300 Eu281 2.473 . S
O301 C280 1.260 . S
O301 Eu281 2.480 . S
O302 Eu281 2.430 . S
O302 C288 1.259 . S
O303 Eu281 2.670 . S
O303 C288 1.270 . S
O303 Eu291 2.355 . S
O304 Eu281 2.394 . S
O304 C289 1.251 . S
O305 C289 1.251 . S
O305 Eu291 2.374 . S
O306 C290 1.257 . S
O306 Eu291 2.473 . S
O307 C290 1.260 . S
O307 Eu291 2.480 . S
O308 Eu291 2.430 . S
O308 C298 1.259 . S
O309 Eu281 2.355 . S
O309 Eu291 2.670 . S
O309 C298 1.270 . S
O310 Eu291 2.394 . S
O310 C299 1.251 . S
O311 Eu281 2.374 . S
O311 C299 1.251 . S
H312 C283 0.931 . S
H313 C284 0.931 . S
H314 C286 0.931 . S
H315 C287 0.931 . S
H316 C293 0.931 . S
H317 C294 0.931 . S
H318 C296 0.931 . S
H319 C297 0.931 . S
C320 Eu321 2.835 . S
C320 C322 1.500 . S
C320 O340 1.257 . S
C320 O341 1.260 . S
Eu321 C320 2.835 . S
Eu321 O340 2.473 . S
Eu321 O341 2.480 . S
Eu321 O342 2.430 . S
Eu321 O343 2.670 . S
Eu321 O344 2.394 . S
Eu321 O349 2.355 1_556 S
Eu321 O351 2.374 1_556 S
C322 C320 1.500 . S
C322 C323 1.377 . S
C322 C327 1.377 . S
C323 C322 1.377 . S
C323 C324 1.395 . S
C323 H352 0.931 . S
C324 C323 1.395 . S
C324 C325 1.383 . S
C324 H353 0.931 . S
C325 C324 1.383 . S
C325 C326 1.394 . S
C326 C325 1.394 . S
C326 C327 1.378 . S
C326 H354 0.931 . S
C327 C322 1.377 . S
C327 C326 1.378 . S
C327 H355 0.931 . S
C328 O342 1.259 . S
C328 O343 1.270 . S
C329 O344 1.251 . S
C329 O345 1.251 . S
C330 Eu331 2.835 . S
C330 C332 1.500 . S
C330 O346 1.257 . S
C330 O347 1.260 . S
Eu331 C330 2.835 . S
Eu331 O343 2.355 1_554 S
Eu331 O345 2.374 1_554 S
Eu331 O346 2.473 . S
Eu331 O347 2.480 . S
Eu331 O348 2.430 . S
Eu331 O349 2.670 . S
Eu331 O350 2.394 . S
C332 C330 1.500 . S
C332 C333 1.377 . S
C332 C337 1.377 . S
C333 C332 1.377 . S
C333 C334 1.395 . S
C333 H356 0.931 . S
C334 C333 1.395 . S
C334 C335 1.383 . S
C334 H357 0.931 . S
C335 C334 1.383 . S
C335 C336 1.394 . S
C336 C335 1.394 . S
C336 C337 1.378 . S
C336 H358 0.931 . S
C337 C332 1.377 . S
C337 C336 1.378 . S
C337 H359 0.931 . S
C338 O348 1.259 . S
C338 O349 1.270 . S
C339 O350 1.251 . S
C339 O351 1.251 . S
O340 C320 1.257 . S
O340 Eu321 2.473 . S
O341 C320 1.260 . S
O341 Eu321 2.480 . S
O342 Eu321 2.430 . S
O342 C328 1.259 . S
O343 Eu321 2.670 . S
O343 C328 1.270 . S
O343 Eu331 2.355 1_556 S
O344 Eu321 2.394 . S
O344 C329 1.251 . S
O345 C329 1.251 . S
O345 Eu331 2.374 1_556 S
O346 C330 1.257 . S
O346 Eu331 2.473 . S
O347 C330 1.260 . S
O347 Eu331 2.480 . S
O348 Eu331 2.430 . S
O348 C338 1.259 . S
O349 Eu321 2.355 1_554 S
O349 Eu331 2.670 . S
O349 C338 1.270 . S
O350 Eu331 2.394 . S
O350 C339 1.251 . S
O351 Eu321 2.374 1_554 S
O351 C339 1.251 . S
H352 C323 0.931 . S
H353 C324 0.931 . S
H354 C326 0.931 . S
H355 C327 0.931 . S
H356 C333 0.931 . S
H357 C334 0.931 . S
H358 C336 0.931 . S
H359 C337 0.931 . S
C360 Eu361 2.835 . S
C360 C362 1.500 . S
C360 O380 1.257 . S
C360 O381 1.260 . S
Eu361 C360 2.835 . S
Eu361 O380 2.473 . S
Eu361 O381 2.480 . S
Eu361 O382 2.430 . S
Eu361 O383 2.670 . S
Eu361 O384 2.394 . S
Eu361 O389 2.355 . S
Eu361 O391 2.374 . S
C362 C360 1.500 . S
C362 C363 1.377 . S
C362 C367 1.377 . S
C363 C362 1.377 . S
C363 C364 1.395 . S
C363 H392 0.931 . S
C364 C363 1.395 . S
C364 C365 1.383 . S
C364 H393 0.931 . S
C365 C364 1.383 . S
C365 C366 1.394 . S
C366 C365 1.394 . S
C366 C367 1.378 . S
C366 H394 0.931 . S
C367 C362 1.377 . S
C367 C366 1.378 . S
C367 H395 0.931 . S
C368 O382 1.259 . S
C368 O383 1.270 . S
C369 O384 1.251 . S
C369 O385 1.251 . S
C370 Eu371 2.835 . S
C370 C372 1.500 . S
C370 O386 1.257 . S
C370 O387 1.260 . S
Eu371 C370 2.835 . S
Eu371 O383 2.355 . S
Eu371 O385 2.374 . S
Eu371 O386 2.473 . S
Eu371 O387 2.480 . S
Eu371 O388 2.430 . S
Eu371 O389 2.670 . S
Eu371 O390 2.394 . S
C372 C370 1.500 . S
C372 C373 1.377 . S
C372 C377 1.377 . S
C373 C372 1.377 . S
C373 C374 1.395 . S
C373 H396 0.931 . S
C374 C373 1.395 . S
C374 C375 1.383 . S
C374 H397 0.931 . S
C375 C374 1.383 . S
C375 C376 1.394 . S
C376 C375 1.394 . S
C376 C377 1.378 . S
C376 H398 0.931 . S
C377 C372 1.377 . S
C377 C376 1.378 . S
C377 H399 0.931 . S
C378 O388 1.259 . S
C378 O389 1.270 . S
C379 O390 1.251 . S
C379 O391 1.251 . S
O380 C360 1.257 . S
O380 Eu361 2.473 . S
O381 C360 1.260 . S
O381 Eu361 2.480 . S
O382 Eu361 2.430 . S
O382 C368 1.259 . S
O383 Eu361 2.670 . S
O383 C368 1.270 . S
O383 Eu371 2.355 . S
O384 Eu361 2.394 . S
O384 C369 1.251 . S
O385 C369 1.251 . S
O385 Eu371 2.374 . S
O386 C370 1.257 . S
O386 Eu371 2.473 . S
O387 C370 1.260 . S
O387 Eu371 2.480 . S
O388 Eu371 2.430 . S
O388 C378 1.259 . S
O389 Eu361 2.355 . S
O389 Eu371 2.670 . S
O389 C378 1.270 . S
O390 Eu371 2.394 . S
O390 C379 1.251 . S
O391 Eu361 2.374 . S
O391 C379 1.251 . S
H392 C363 0.931 . S
H393 C364 0.931 . S
H394 C366 0.931 . S
H395 C367 0.931 . S
H396 C373 0.931 . S
H397 C374 0.931 . S
H398 C376 0.931 . S
H399 C377 0.931 . S
C400 Eu401 2.835 . S
C400 C402 1.500 . S
C400 O420 1.257 . S
C400 O421 1.260 . S
Eu401 C400 2.835 . S
Eu401 O420 2.473 . S
Eu401 O421 2.480 . S
Eu401 O422 2.430 . S
Eu401 O423 2.670 . S
Eu401 O424 2.394 . S
Eu401 O429 2.355 1_655 S
Eu401 O431 2.374 1_655 S
C402 C400 1.500 . S
C402 C403 1.377 . S
C402 C407 1.377 . S
C403 C402 1.377 . S
C403 C404 1.395 . S
C403 H432 0.931 . S
C404 C403 1.395 . S
C404 C405 1.383 . S
C404 H433 0.931 . S
C405 C404 1.383 . S
C405 C406 1.394 . S
C406 C405 1.394 . S
C406 C407 1.378 . S
C406 H434 0.931 . S
C407 C402 1.377 . S
C407 C406 1.378 . S
C407 H435 0.931 . S
C408 O422 1.259 . S
C408 O423 1.270 . S
C409 O424 1.251 . S
C409 O425 1.251 . S
C410 Eu411 2.835 . S
C410 C412 1.500 . S
C410 O426 1.257 . S
C410 O427 1.260 . S
Eu411 C410 2.835 . S
Eu411 O423 2.355 1_455 S
Eu411 O425 2.374 1_455 S
Eu411 O426 2.473 . S
Eu411 O427 2.480 . S
Eu411 O428 2.430 . S
Eu411 O429 2.670 . S
Eu411 O430 2.394 . S
C412 C410 1.500 . S
C412 C413 1.377 . S
C412 C417 1.377 . S
C413 C412 1.377 . S
C413 C414 1.395 . S
C413 H436 0.931 . S
C414 C413 1.395 . S
C414 C415 1.383 . S
C414 H437 0.931 . S
C415 C414 1.383 . S
C415 C416 1.394 . S
C416 C415 1.394 . S
C416 C417 1.378 . S
C416 H438 0.931 . S
C417 C412 1.377 . S
C417 C416 1.378 . S
C417 H439 0.931 . S
C418 O428 1.259 . S
C418 O429 1.270 . S
C419 O430 1.251 . S
C419 O431 1.251 . S
O420 C400 1.257 . S
O420 Eu401 2.473 . S
O421 C400 1.260 . S
O421 Eu401 2.480 . S
O422 Eu401 2.430 . S
O422 C408 1.259 . S
O423 Eu401 2.670 . S
O423 C408 1.270 . S
O423 Eu411 2.355 1_655 S
O424 Eu401 2.394 . S
O424 C409 1.251 . S
O425 C409 1.251 . S
O425 Eu411 2.374 1_655 S
O426 C410 1.257 . S
O426 Eu411 2.473 . S
O427 C410 1.260 . S
O427 Eu411 2.480 . S
O428 Eu411 2.430 . S
O428 C418 1.259 . S
O429 Eu401 2.355 1_455 S
O429 Eu411 2.670 . S
O429 C418 1.270 . S
O430 Eu411 2.394 . S
O430 C419 1.251 . S
O431 Eu401 2.374 1_455 S
O431 C419 1.251 . S
H432 C403 0.931 . S
H433 C404 0.931 . S
H434 C406 0.931 . S
H435 C407 0.931 . S
H436 C413 0.931 . S
H437 C414 0.931 . S
H438 C416 0.931 . S
H439 C417 0.931 . S
C440 Eu441 2.835 . S
C440 C442 1.500 . S
C440 O460 1.257 . S
C440 O461 1.260 . S
Eu441 C440 2.835 . S
Eu441 O460 2.473 . S
Eu441 O461 2.480 . S
Eu441 O462 2.430 . S
Eu441 O463 2.670 . S
Eu441 O464 2.394 . S
Eu441 O469 2.355 . S
Eu441 O471 2.374 . S
C442 C440 1.500 . S
C442 C443 1.377 . S
C442 C447 1.377 . S
C443 C442 1.377 . S
C443 C444 1.395 . S
C443 H472 0.931 . S
C444 C443 1.395 . S
C444 C445 1.383 . S
C444 H473 0.931 . S
C445 C444 1.383 . S
C445 C446 1.394 . S
C446 C445 1.394 . S
C446 C447 1.378 . S
C446 H474 0.931 . S
C447 C442 1.377 . S
C447 C446 1.378 . S
C447 H475 0.931 . S
C448 O462 1.259 . S
C448 O463 1.270 . S
C449 O464 1.251 . S
C449 O465 1.251 . S
C450 Eu451 2.835 . S
C450 C452 1.500 . S
C450 O466 1.257 . S
C450 O467 1.260 . S
Eu451 C450 2.835 . S
Eu451 O463 2.355 . S
Eu451 O465 2.374 . S
Eu451 O466 2.473 . S
Eu451 O467 2.480 . S
Eu451 O468 2.430 . S
Eu451 O469 2.670 . S
Eu451 O470 2.394 . S
C452 C450 1.500 . S
C452 C453 1.377 . S
C452 C457 1.377 . S
C453 C452 1.377 . S
C453 C454 1.395 . S
C453 H476 0.931 . S
C454 C453 1.395 . S
C454 C455 1.383 . S
C454 H477 0.931 . S
C455 C454 1.383 . S
C455 C456 1.394 . S
C456 C455 1.394 . S
C456 C457 1.378 . S
C456 H478 0.931 . S
C457 C452 1.377 . S
C457 C456 1.378 . S
C457 H479 0.931 . S
C458 O468 1.259 . S
C458 O469 1.270 . S
C459 O470 1.251 . S
C459 O471 1.251 . S
O460 C440 1.257 . S
O460 Eu441 2.473 . S
O461 C440 1.260 . S
O461 Eu441 2.480 . S
O462 Eu441 2.430 . S
O462 C448 1.259 . S
O463 Eu441 2.670 . S
O463 C448 1.270 . S
O463 Eu451 2.355 . S
O464 Eu441 2.394 . S
O464 C449 1.251 . S
O465 C449 1.251 . S
O465 Eu451 2.374 . S
O466 C450 1.257 . S
O466 Eu451 2.473 . S
O467 C450 1.260 . S
O467 Eu451 2.480 . S
O468 Eu451 2.430 . S
O468 C458 1.259 . S
O469 Eu441 2.355 . S
O469 Eu451 2.670 . S
O469 C458 1.270 . S
O470 Eu451 2.394 . S
O470 C459 1.251 . S
O471 Eu441 2.374 . S
O471 C459 1.251 . S
H472 C443 0.931 . S
H473 C444 0.931 . S
H474 C446 0.931 . S
H475 C447 0.931 . S
H476 C453 0.931 . S
H477 C454 0.931 . S
H478 C456 0.931 . S
H479 C457 0.931 . S
C480 Eu481 2.835 . S
C480 C482 1.500 . S
C480 O500 1.257 . S
C480 O501 1.260 . S
Eu481 C480 2.835 . S
Eu481 O500 2.473 . S
Eu481 O501 2.480 . S
Eu481 O502 2.430 . S
Eu481 O503 2.670 . S
Eu481 O504 2.394 . S
Eu481 O509 2.355 . S
Eu481 O511 2.374 . S
C482 C480 1.500 . S
C482 C483 1.377 . S
C482 C487 1.377 . S
C483 C482 1.377 . S
C483 C484 1.395 . S
C483 H512 0.931 . S
C484 C483 1.395 . S
C484 C485 1.383 . S
C484 H513 0.931 . S
C485 C484 1.383 . S
C485 C486 1.394 . S
C486 C485 1.394 . S
C486 C487 1.378 . S
C486 H514 0.931 . S
C487 C482 1.377 . S
C487 C486 1.378 . S
C487 H515 0.931 . S
C488 O502 1.259 . S
C488 O503 1.270 . S
C489 O504 1.251 . S
C489 O505 1.251 . S
C490 Eu491 2.835 . S
C490 C492 1.500 . S
C490 O506 1.257 . S
C490 O507 1.260 . S
Eu491 C490 2.835 . S
Eu491 O503 2.355 . S
Eu491 O505 2.374 . S
Eu491 O506 2.473 . S
Eu491 O507 2.480 . S
Eu491 O508 2.430 . S
Eu491 O509 2.670 . S
Eu491 O510 2.394 . S
C492 C490 1.500 . S
C492 C493 1.377 . S
C492 C497 1.377 . S
C493 C492 1.377 . S
C493 C494 1.395 . S
C493 H516 0.931 . S
C494 C493 1.395 . S
C494 C495 1.383 . S
C494 H517 0.931 . S
C495 C494 1.383 . S
C495 C496 1.394 . S
C496 C495 1.394 . S
C496 C497 1.378 . S
C496 H518 0.931 . S
C497 C492 1.377 . S
C497 C496 1.378 . S
C497 H519 0.931 . S
C498 O508 1.259 . S
C498 O509 1.270 . S
C499 O510 1.251 . S
C499 O511 1.251 . S
O500 C480 1.257 . S
O500 Eu481 2.473 . S
O501 C480 1.260 . S
O501 Eu481 2.480 . S
O502 Eu481 2.430 . S
O502 C488 1.259 . S
O503 Eu481 2.670 . S
O503 C488 1.270 . S
O503 Eu491 2.355 . S
O504 Eu481 2.394 . S
O504 C489 1.251 . S
O505 C489 1.251 . S
O505 Eu491 2.374 . S
O506 C490 1.257 . S
O506 Eu491 2.473 . S
O507 C490 1.260 . S
O507 Eu491 2.480 . S
O508 Eu491 2.430 . S
O508 C498 1.259 . S
O509 Eu481 2.355 . S
O509 Eu491 2.670 . S
O509 C498 1.270 . S
O510 Eu491 2.394 . S
O510 C499 1.251 . S
O511 Eu481 2.374 . S
O511 C499 1.251 . S
H512 C483 0.931 . S
H513 C484 0.931 . S
H514 C486 0.931 . S
H515 C487 0.931 . S
H516 C493 0.931 . S
H517 C494 0.931 . S
H518 C496 0.931 . S
H519 C497 0.931 . S
C520 Eu521 2.835 . S
C520 C522 1.500 . S
C520 O540 1.257 . S
C520 O541 1.260 . S
Eu521 C520 2.835 . S
Eu521 O540 2.473 . S
Eu521 O541 2.480 . S
Eu521 O542 2.430 . S
Eu521 O543 2.670 . S
Eu521 O544 2.394 . S
Eu521 O549 2.355 . S
Eu521 O551 2.374 . S
C522 C520 1.500 . S
C522 C523 1.377 . S
C522 C527 1.377 . S
C523 C522 1.377 . S
C523 C524 1.395 . S
C523 H552 0.931 . S
C524 C523 1.395 . S
C524 C525 1.383 . S
C524 H553 0.931 . S
C525 C524 1.383 . S
C525 C526 1.394 . S
C526 C525 1.394 . S
C526 C527 1.378 . S
C526 H554 0.931 . S
C527 C522 1.377 . S
C527 C526 1.378 . S
C527 H555 0.931 . S
C528 O542 1.259 . S
C528 O543 1.270 . S
C529 O544 1.251 . S
C529 O545 1.251 . S
C530 Eu531 2.835 . S
C530 C532 1.500 . S
C530 O546 1.257 . S
C530 O547 1.260 . S
Eu531 C530 2.835 . S
Eu531 O543 2.355 . S
Eu531 O545 2.374 . S
Eu531 O546 2.473 . S
Eu531 O547 2.480 . S
Eu531 O548 2.430 . S
Eu531 O549 2.670 . S
Eu531 O550 2.394 . S
C532 C530 1.500 . S
C532 C533 1.377 . S
C532 C537 1.377 . S
C533 C532 1.377 . S
C533 C534 1.395 . S
C533 H556 0.931 . S
C534 C533 1.395 . S
C534 C535 1.383 . S
C534 H557 0.931 . S
C535 C534 1.383 . S
C535 C536 1.394 . S
C536 C535 1.394 . S
C536 C537 1.378 . S
C536 H558 0.931 . S
C537 C532 1.377 . S
C537 C536 1.378 . S
C537 H559 0.931 . S
C538 O548 1.259 . S
C538 O549 1.270 . S
C539 O550 1.251 . S
C539 O551 1.251 . S
O540 C520 1.257 . S
O540 Eu521 2.473 . S
O541 C520 1.260 . S
O541 Eu521 2.480 . S
O542 Eu521 2.430 . S
O542 C528 1.259 . S
O543 Eu521 2.670 . S
O543 C528 1.270 . S
O543 Eu531 2.355 . S
O544 Eu521 2.394 . S
O544 C529 1.251 . S
O545 C529 1.251 . S
O545 Eu531 2.374 . S
O546 C530 1.257 . S
O546 Eu531 2.473 . S
O547 C530 1.260 . S
O547 Eu531 2.480 . S
O548 Eu531 2.430 . S
O548 C538 1.259 . S
O549 Eu521 2.355 . S
O549 Eu531 2.670 . S
O549 C538 1.270 . S
O550 Eu531 2.394 . S
O550 C539 1.251 . S
O551 Eu521 2.374 . S
O551 C539 1.251 . S
H552 C523 0.931 . S
H553 C524 0.931 . S
H554 C526 0.931 . S
H555 C527 0.931 . S
H556 C533 0.931 . S
H557 C534 0.931 . S
H558 C536 0.931 . S
H559 C537 0.931 . S
C560 Eu561 2.835 . S
C560 C562 1.500 . S
C560 O580 1.257 . S
C560 O581 1.260 . S
Eu561 C560 2.835 . S
Eu561 O580 2.473 . S
Eu561 O581 2.480 . S
Eu561 O582 2.430 . S
Eu561 O583 2.670 . S
Eu561 O584 2.394 . S
Eu561 O589 2.355 . S
Eu561 O591 2.374 . S
C562 C560 1.500 . S
C562 C563 1.377 . S
C562 C567 1.377 . S
C563 C562 1.377 . S
C563 C564 1.395 . S
C563 H592 0.931 . S
C564 C563 1.395 . S
C564 C565 1.383 . S
C564 H593 0.931 . S
C565 C564 1.383 . S
C565 C566 1.394 . S
C566 C565 1.394 . S
C566 C567 1.378 . S
C566 H594 0.931 . S
C567 C562 1.377 . S
C567 C566 1.378 . S
C567 H595 0.931 . S
C568 O582 1.259 . S
C568 O583 1.270 . S
C569 O584 1.251 . S
C569 O585 1.251 . S
C570 Eu571 2.835 . S
C570 C572 1.500 . S
C570 O586 1.257 . S
C570 O587 1.260 . S
Eu571 C570 2.835 . S
Eu571 O583 2.355 . S
Eu571 O585 2.374 . S
Eu571 O586 2.473 . S
Eu571 O587 2.480 . S
Eu571 O588 2.430 . S
Eu571 O589 2.670 . S
Eu571 O590 2.394 . S
C572 C570 1.500 . S
C572 C573 1.377 . S
C572 C577 1.377 . S
C573 C572 1.377 . S
C573 C574 1.395 . S
C573 H596 0.931 . S
C574 C573 1.395 . S
C574 C575 1.383 . S
C574 H597 0.931 . S
C575 C574 1.383 . S
C575 C576 1.394 . S
C576 C575 1.394 . S
C576 C577 1.378 . S
C576 H598 0.931 . S
C577 C572 1.377 . S
C577 C576 1.378 . S
C577 H599 0.931 . S
C578 O588 1.259 . S
C578 O589 1.270 . S
C579 O590 1.251 . S
C579 O591 1.251 . S
O580 C560 1.257 . S
O580 Eu561 2.473 . S
O581 C560 1.260 . S
O581 Eu561 2.480 . S
O582 Eu561 2.430 . S
O582 C568 1.259 . S
O583 Eu561 2.670 . S
O583 C568 1.270 . S
O583 Eu571 2.355 . S
O584 Eu561 2.394 . S
O584 C569 1.251 . S
O585 C569 1.251 . S
O585 Eu571 2.374 . S
O586 C570 1.257 . S
O586 Eu571 2.473 . S
O587 C570 1.260 . S
O587 Eu571 2.480 . S
O588 Eu571 2.430 . S
O588 C578 1.259 . S
O589 Eu561 2.355 . S
O589 Eu571 2.670 . S
O589 C578 1.270 . S
O590 Eu571 2.394 . S
O590 C579 1.251 . S
O591 Eu561 2.374 . S
O591 C579 1.251 . S
H592 C563 0.931 . S
H593 C564 0.931 . S
H594 C566 0.931 . S
H595 C567 0.931 . S
H596 C573 0.931 . S
H597 C574 0.931 . S
H598 C576 0.931 . S
H599 C577 0.931 . S
C600 Eu601 2.835 . S
C600 C602 1.500 . S
C600 O620 1.257 . S
C600 O621 1.260 . S
Eu601 C600 2.835 . S
Eu601 O620 2.473 . S
Eu601 O621 2.480 . S
Eu601 O622 2.430 1_556 S
Eu601 O623 2.670 1_556 S
Eu601 O624 2.394 1_556 S
Eu601 O629 2.355 1_455 S
Eu601 O631 2.374 1_455 S
C602 C600 1.500 . S
C602 C603 1.377 . S
C602 C607 1.377 . S
C603 C602 1.377 . S
C603 C604 1.395 . S
C603 H632 0.931 . S
C604 C603 1.395 . S
C604 C605 1.383 . S
C604 H633 0.931 . S
C605 C604 1.383 . S
C605 C606 1.394 . S
C606 C605 1.394 . S
C606 C607 1.378 . S
C606 H634 0.931 . S
C607 C602 1.377 . S
C607 C606 1.378 . S
C607 H635 0.931 . S
C608 O622 1.259 . S
C608 O623 1.270 . S
C609 O624 1.251 . S
C609 O625 1.251 . S
C610 Eu611 2.835 . S
C610 C612 1.500 . S
C610 O626 1.257 . S
C610 O627 1.260 . S
Eu611 C610 2.835 . S
Eu611 O623 2.355 1_655 S
Eu611 O625 2.374 1_655 S
Eu611 O626 2.473 . S
Eu611 O627 2.480 . S
Eu611 O628 2.430 1_554 S
Eu611 O629 2.670 1_554 S
Eu611 O630 2.394 1_554 S
C612 C610 1.500 . S
C612 C613 1.377 . S
C612 C617 1.377 . S
C613 C612 1.377 . S
C613 C614 1.395 . S
C613 H636 0.931 . S
C614 C613 1.395 . S
C614 C615 1.383 . S
C614 H637 0.931 . S
C615 C614 1.383 . S
C615 C616 1.394 . S
C616 C615 1.394 . S
C616 C617 1.378 . S
C616 H638 0.931 . S
C617 C612 1.377 . S
C617 C616 1.378 . S
C617 H639 0.931 . S
C618 O628 1.259 . S
C618 O629 1.270 . S
C619 O630 1.251 . S
C619 O631 1.251 . S
O620 C600 1.257 . S
O620 Eu601 2.473 . S
O621 C600 1.260 . S
O621 Eu601 2.480 . S
O622 Eu601 2.430 1_554 S
O622 C608 1.259 . S
O623 Eu601 2.670 1_554 S
O623 C608 1.270 . S
O623 Eu611 2.355 1_455 S
O624 Eu601 2.394 1_554 S
O624 C609 1.251 . S
O625 C609 1.251 . S
O625 Eu611 2.374 1_455 S
O626 C610 1.257 . S
O626 Eu611 2.473 . S
O627 C610 1.260 . S
O627 Eu611 2.480 . S
O628 Eu611 2.430 1_556 S
O628 C618 1.259 . S
O629 Eu601 2.355 1_655 S
O629 Eu611 2.670 1_556 S
O629 C618 1.270 . S
O630 Eu611 2.394 1_556 S
O630 C619 1.251 . S
O631 Eu601 2.374 1_655 S
O631 C619 1.251 . S
H632 C603 0.931 . S
H633 C604 0.931 . S
H634 C606 0.931 . S
H635 C607 0.931 . S
H636 C613 0.931 . S
H637 C614 0.931 . S
H638 C616 0.931 . S
H639 C617 0.931 . S
C640 C641 1.391 . S
C640 C642 1.394 . S
C640 H656 0.931 . S
C641 C640 1.391 . S
C641 C645 1.376 . S
C642 C640 1.394 . S
C642 C643 1.369 . S
C642 C646 1.531 . S
C643 C642 1.369 . S
C643 C644 1.410 . S
C643 C651 1.503 . S
C644 C643 1.410 . S
C644 C645 1.392 . S
C644 C647 1.511 . S
C645 C641 1.376 . S
C645 C644 1.392 . S
C645 H657 0.929 . S
C646 C642 1.531 . S
C646 H658 0.960 . S
C646 H659 0.962 . S
C646 H660 0.960 . S
C647 C644 1.511 . S
C647 H661 0.961 . S
C647 H662 0.961 . S
C647 H663 0.961 . S
C648 C649 1.370 . S
C648 C650 1.363 . S
C648 H664 0.931 . S
C649 C648 1.370 . S
C649 C653 1.408 . S
C650 C648 1.363 . S
C650 C651 1.370 . S
C650 C654 1.524 . S
C651 C643 1.503 . S
C651 C650 1.370 . S
C651 C652 1.403 . S
C652 C651 1.403 . S
C652 C653 1.404 . S
C652 C655 1.539 . S
C653 C649 1.408 . S
C653 C652 1.404 . S
C653 H665 0.930 . S
C654 C650 1.524 . S
C654 H666 0.956 . S
C654 H667 0.961 . S
C654 H668 0.961 . S
C655 C652 1.539 . S
C655 H669 0.958 . S
C655 H670 0.961 . S
C655 H671 0.960 . S
H656 C640 0.931 . S
H657 C645 0.929 . S
H658 C646 0.960 . S
H659 C646 0.962 . S
H660 C646 0.960 . S
H661 C647 0.961 . S
H662 C647 0.961 . S
H663 C647 0.961 . S
H664 C648 0.931 . S
H665 C653 0.930 . S
H666 C654 0.956 . S
H667 C654 0.961 . S
H668 C654 0.961 . S
H669 C655 0.958 . S
H670 C655 0.961 . S
H671 C655 0.960 . S
C672 C673 1.391 . S
C672 C674 1.394 . S
C672 H688 0.931 . S
C673 C672 1.391 . S
C673 C677 1.376 . S
C674 C672 1.394 . S
C674 C675 1.369 . S
C674 C678 1.531 . S
C675 C674 1.369 . S
C675 C676 1.410 . S
C675 C683 1.503 . S
C676 C675 1.410 . S
C676 C677 1.392 . S
C676 C679 1.511 . S
C677 C673 1.376 . S
C677 C676 1.392 . S
C677 H689 0.929 . S
C678 C674 1.531 . S
C678 H690 0.960 . S
C678 H691 0.962 . S
C678 H692 0.960 . S
C679 C676 1.511 . S
C679 H693 0.961 . S
C679 H694 0.961 . S
C679 H695 0.961 . S
C680 C681 1.370 . S
C680 C682 1.363 . S
C680 H696 0.931 . S
C681 C680 1.370 . S
C681 C685 1.408 . S
C682 C680 1.363 . S
C682 C683 1.370 . S
C682 C686 1.524 . S
C683 C675 1.503 . S
C683 C682 1.370 . S
C683 C684 1.403 . S
C684 C683 1.403 . S
C684 C685 1.404 . S
C684 C687 1.539 . S
C685 C681 1.408 . S
C685 C684 1.404 . S
C685 H697 0.930 . S
C686 C682 1.524 . S
C686 H698 0.956 . S
C686 H699 0.961 . S
C686 H700 0.961 . S
C687 C684 1.539 . S
C687 H701 0.958 . S
C687 H702 0.961 . S
C687 H703 0.960 . S
H688 C672 0.931 . S
H689 C677 0.929 . S
H690 C678 0.960 . S
H691 C678 0.962 . S
H692 C678 0.960 . S
H693 C679 0.961 . S
H694 C679 0.961 . S
H695 C679 0.961 . S
H696 C680 0.931 . S
H697 C685 0.930 . S
H698 C686 0.956 . S
H699 C686 0.961 . S
H700 C686 0.961 . S
H701 C687 0.958 . S
H702 C687 0.961 . S
H703 C687 0.960 . S
C704 C705 1.391 . S
C704 C706 1.394 . S
C704 H720 0.931 . S
C705 C704 1.391 . S
C705 C709 1.376 . S
C706 C704 1.394 . S
C706 C707 1.369 . S
C706 C710 1.531 . S
C707 C706 1.369 . S
C707 C708 1.410 . S
C707 C715 1.503 . S
C708 C707 1.410 . S
C708 C709 1.392 . S
C708 C711 1.511 . S
C709 C705 1.376 . S
C709 C708 1.392 . S
C709 H721 0.929 . S
C710 C706 1.531 . S
C710 H722 0.960 . S
C710 H723 0.962 . S
C710 H724 0.960 . S
C711 C708 1.511 . S
C711 H725 0.961 . S
C711 H726 0.961 . S
C711 H727 0.961 . S
C712 C713 1.370 . S
C712 C714 1.363 . S
C712 H728 0.931 . S
C713 C712 1.370 . S
C713 C717 1.408 . S
C714 C712 1.363 . S
C714 C715 1.370 . S
C714 C718 1.524 . S
C715 C707 1.503 . S
C715 C714 1.370 . S
C715 C716 1.403 . S
C716 C715 1.403 . S
C716 C717 1.404 . S
C716 C719 1.539 . S
C717 C713 1.408 . S
C717 C716 1.404 . S
C717 H729 0.930 . S
C718 C714 1.524 . S
C718 H730 0.956 . S
C718 H731 0.961 . S
C718 H732 0.961 . S
C719 C716 1.539 . S
C719 H733 0.958 . S
C719 H734 0.961 . S
C719 H735 0.960 . S
H720 C704 0.931 . S
H721 C709 0.929 . S
H722 C710 0.960 . S
H723 C710 0.962 . S
H724 C710 0.960 . S
H725 C711 0.961 . S
H726 C711 0.961 . S
H727 C711 0.961 . S
H728 C712 0.931 . S
H729 C717 0.930 . S
H730 C718 0.956 . S
H731 C718 0.961 . S
H732 C718 0.961 . S
H733 C719 0.958 . S
H734 C719 0.961 . S
H735 C719 0.960 . S
C736 C737 1.391 . S
C736 C738 1.394 . S
C736 H752 0.931 . S
C737 C736 1.391 . S
C737 C741 1.376 . S
C738 C736 1.394 . S
C738 C739 1.369 . S
C738 C742 1.531 . S
C739 C738 1.369 . S
C739 C740 1.410 . S
C739 C747 1.503 . S
C740 C739 1.410 . S
C740 C741 1.392 . S
C740 C743 1.511 . S
C741 C737 1.376 . S
C741 C740 1.392 . S
C741 H753 0.929 . S
C742 C738 1.531 . S
C742 H754 0.960 . S
C742 H755 0.962 . S
C742 H756 0.960 . S
C743 C740 1.511 . S
C743 H757 0.961 . S
C743 H758 0.961 . S
C743 H759 0.961 . S
C744 C745 1.370 . S
C744 C746 1.363 . S
C744 H760 0.931 . S
C745 C744 1.370 . S
C745 C749 1.408 . S
C746 C744 1.363 . S
C746 C747 1.370 . S
C746 C750 1.524 . S
C747 C739 1.503 . S
C747 C746 1.370 . S
C747 C748 1.403 . S
C748 C747 1.403 . S
C748 C749 1.404 . S
C748 C751 1.539 . S
C749 C745 1.408 . S
C749 C748 1.404 . S
C749 H761 0.930 . S
C750 C746 1.524 . S
C750 H762 0.956 . S
C750 H763 0.961 . S
C750 H764 0.961 . S
C751 C748 1.539 . S
C751 H765 0.958 . S
C751 H766 0.961 . S
C751 H767 0.960 . S
H752 C736 0.931 . S
H753 C741 0.929 . S
H754 C742 0.960 . S
H755 C742 0.962 . S
H756 C742 0.960 . S
H757 C743 0.961 . S
H758 C743 0.961 . S
H759 C743 0.961 . S
H760 C744 0.931 . S
H761 C749 0.930 . S
H762 C750 0.956 . S
H763 C750 0.961 . S
H764 C750 0.961 . S
H765 C751 0.958 . S
H766 C751 0.961 . S
H767 C751 0.960 . S
C768 C769 1.391 . S
C768 C770 1.394 . S
C768 H784 0.931 . S
C769 C768 1.391 . S
C769 C773 1.376 . S
C770 C768 1.394 . S
C770 C771 1.369 . S
C770 C774 1.531 . S
C771 C770 1.369 . S
C771 C772 1.410 . S
C771 C779 1.503 . S
C772 C771 1.410 . S
C772 C773 1.392 . S
C772 C775 1.511 . S
C773 C769 1.376 . S
C773 C772 1.392 . S
C773 H785 0.929 . S
C774 C770 1.531 . S
C774 H786 0.960 . S
C774 H787 0.962 . S
C774 H788 0.960 . S
C775 C772 1.511 . S
C775 H789 0.961 . S
C775 H790 0.961 . S
C775 H791 0.961 . S
C776 C777 1.370 . S
C776 C778 1.363 . S
C776 H792 0.931 . S
C777 C776 1.370 . S
C777 C781 1.408 . S
C778 C776 1.363 . S
C778 C779 1.370 . S
C778 C782 1.524 . S
C779 C771 1.503 . S
C779 C778 1.370 . S
C779 C780 1.403 . S
C780 C779 1.403 . S
C780 C781 1.404 . S
C780 C783 1.539 . S
C781 C777 1.408 . S
C781 C780 1.404 . S
C781 H793 0.930 . S
C782 C778 1.524 . S
C782 H794 0.956 . S
C782 H795 0.961 . S
C782 H796 0.961 . S
C783 C780 1.539 . S
C783 H797 0.958 . S
C783 H798 0.961 . S
C783 H799 0.960 . S
H784 C768 0.931 . S
H785 C773 0.929 . S
H786 C774 0.960 . S
H787 C774 0.962 . S
H788 C774 0.960 . S
H789 C775 0.961 . S
H790 C775 0.961 . S
H791 C775 0.961 . S
H792 C776 0.931 . S
H793 C781 0.930 . S
H794 C782 0.956 . S
H795 C782 0.961 . S
H796 C782 0.961 . S
H797 C783 0.958 . S
H798 C783 0.961 . S
H799 C783 0.960 . S
C800 C801 1.391 . S
C800 C802 1.394 . S
C800 H816 0.931 . S
C801 C800 1.391 . S
C801 C805 1.376 . S
C802 C800 1.394 . S
C802 C803 1.369 . S
C802 C806 1.531 . S
C803 C802 1.369 . S
C803 C804 1.410 . S
C803 C811 1.503 . S
C804 C803 1.410 . S
C804 C805 1.392 . S
C804 C807 1.511 . S
C805 C801 1.376 . S
C805 C804 1.392 . S
C805 H817 0.929 . S
C806 C802 1.531 . S
C806 H818 0.960 . S
C806 H819 0.962 . S
C806 H820 0.960 . S
C807 C804 1.511 . S
C807 H821 0.961 . S
C807 H822 0.961 . S
C807 H823 0.961 . S
C808 C809 1.370 . S
C808 C810 1.363 . S
C808 H824 0.931 . S
C809 C808 1.370 . S
C809 C813 1.408 . S
C810 C808 1.363 . S
C810 C811 1.370 . S
C810 C814 1.524 . S
C811 C803 1.503 . S
C811 C810 1.370 . S
C811 C812 1.403 . S
C812 C811 1.403 . S
C812 C813 1.404 . S
C812 C815 1.539 . S
C813 C809 1.408 . S
C813 C812 1.404 . S
C813 H825 0.930 . S
C814 C810 1.524 . S
C814 H826 0.956 . S
C814 H827 0.961 . S
C814 H828 0.961 . S
C815 C812 1.539 . S
C815 H829 0.958 . S
C815 H830 0.961 . S
C815 H831 0.960 . S
H816 C800 0.931 . S
H817 C805 0.929 . S
H818 C806 0.960 . S
H819 C806 0.962 . S
H820 C806 0.960 . S
H821 C807 0.961 . S
H822 C807 0.961 . S
H823 C807 0.961 . S
H824 C808 0.931 . S
H825 C813 0.930 . S
H826 C814 0.956 . S
H827 C814 0.961 . S
H828 C814 0.961 . S
H829 C815 0.958 . S
H830 C815 0.961 . S
H831 C815 0.960 . S
C832 C833 1.391 . S
C832 C834 1.394 . S
C832 H848 0.931 . S
C833 C832 1.391 . S
C833 C837 1.376 . S
C834 C832 1.394 . S
C834 C835 1.369 . S
C834 C838 1.531 . S
C835 C834 1.369 . S
C835 C836 1.410 . S
C835 C843 1.503 . S
C836 C835 1.410 . S
C836 C837 1.392 . S
C836 C839 1.511 . S
C837 C833 1.376 . S
C837 C836 1.392 . S
C837 H849 0.929 . S
C838 C834 1.531 . S
C838 H850 0.960 . S
C838 H851 0.962 . S
C838 H852 0.960 . S
C839 C836 1.511 . S
C839 H853 0.961 . S
C839 H854 0.961 . S
C839 H855 0.961 . S
C840 C841 1.370 . S
C840 C842 1.363 . S
C840 H856 0.931 . S
C841 C840 1.370 . S
C841 C845 1.408 . S
C842 C840 1.363 . S
C842 C843 1.370 . S
C842 C846 1.524 . S
C843 C835 1.503 . S
C843 C842 1.370 . S
C843 C844 1.403 . S
C844 C843 1.403 . S
C844 C845 1.404 . S
C844 C847 1.539 . S
C845 C841 1.408 . S
C845 C844 1.404 . S
C845 H857 0.930 . S
C846 C842 1.524 . S
C846 H858 0.956 . S
C846 H859 0.961 . S
C846 H860 0.961 . S
C847 C844 1.539 . S
C847 H861 0.958 . S
C847 H862 0.961 . S
C847 H863 0.960 . S
H848 C832 0.931 . S
H849 C837 0.929 . S
H850 C838 0.960 . S
H851 C838 0.962 . S
H852 C838 0.960 . S
H853 C839 0.961 . S
H854 C839 0.961 . S
H855 C839 0.961 . S
H856 C840 0.931 . S
H857 C845 0.930 . S
H858 C846 0.956 . S
H859 C846 0.961 . S
H860 C846 0.961 . S
H861 C847 0.958 . S
H862 C847 0.961 . S
H863 C847 0.960 . S
C864 C865 1.391 . S
C864 C866 1.394 . S
C864 H880 0.931 . S
C865 C864 1.391 . S
C865 C869 1.376 . S
C866 C864 1.394 . S
C866 C867 1.369 . S
C866 C870 1.531 . S
C867 C866 1.369 . S
C867 C868 1.410 . S
C867 C875 1.503 . S
C868 C867 1.410 . S
C868 C869 1.392 . S
C868 C871 1.511 . S
C869 C865 1.376 . S
C869 C868 1.392 . S
C869 H881 0.929 . S
C870 C866 1.531 . S
C870 H882 0.960 . S
C870 H883 0.962 . S
C870 H884 0.960 . S
C871 C868 1.511 . S
C871 H885 0.961 . S
C871 H886 0.961 . S
C871 H887 0.961 . S
C872 C873 1.370 . S
C872 C874 1.363 . S
C872 H888 0.931 . S
C873 C872 1.370 . S
C873 C877 1.408 . S
C874 C872 1.363 . S
C874 C875 1.370 . S
C874 C878 1.524 . S
C875 C867 1.503 . S
C875 C874 1.370 . S
C875 C876 1.403 . S
C876 C875 1.403 . S
C876 C877 1.404 . S
C876 C879 1.539 . S
C877 C873 1.408 . S
C877 C876 1.404 . S
C877 H889 0.930 . S
C878 C874 1.524 . S
C878 H890 0.956 . S
C878 H891 0.961 . S
C878 H892 0.961 . S
C879 C876 1.539 . S
C879 H893 0.958 . S
C879 H894 0.961 . S
C879 H895 0.960 . S
H880 C864 0.931 . S
H881 C869 0.929 . S
H882 C870 0.960 . S
H883 C870 0.962 . S
H884 C870 0.960 . S
H885 C871 0.961 . S
H886 C871 0.961 . S
H887 C871 0.961 . S
H888 C872 0.931 . S
H889 C877 0.930 . S
H890 C878 0.956 . S
H891 C878 0.961 . S
H892 C878 0.961 . S
H893 C879 0.958 . S
H894 C879 0.961 . S
H895 C879 0.960 . S
C896 C897 1.391 . S
C896 C898 1.394 . S
C896 H912 0.931 . S
C897 C896 1.391 . S
C897 C901 1.376 . S
C898 C896 1.394 . S
C898 C899 1.369 . S
C898 C902 1.531 . S
C899 C898 1.369 . S
C899 C900 1.410 . S
C899 C907 1.503 . S
C900 C899 1.410 . S
C900 C901 1.392 . S
C900 C903 1.511 . S
C901 C897 1.376 . S
C901 C900 1.392 . S
C901 H913 0.929 . S
C902 C898 1.531 . S
C902 H914 0.960 . S
C902 H915 0.962 . S
C902 H916 0.960 . S
C903 C900 1.511 . S
C903 H917 0.961 . S
C903 H918 0.961 . S
C903 H919 0.961 . S
C904 C905 1.370 . S
C904 C906 1.363 . S
C904 H920 0.931 . S
C905 C904 1.370 . S
C905 C909 1.408 . S
C906 C904 1.363 . S
C906 C907 1.370 . S
C906 C910 1.524 . S
C907 C899 1.503 . S
C907 C906 1.370 . S
C907 C908 1.403 . S
C908 C907 1.403 . S
C908 C909 1.404 . S
C908 C911 1.539 . S
C909 C905 1.408 . S
C909 C908 1.404 . S
C909 H921 0.930 . S
C910 C906 1.524 . S
C910 H922 0.956 . S
C910 H923 0.961 . S
C910 H924 0.961 . S
C911 C908 1.539 . S
C911 H925 0.958 . S
C911 H926 0.961 . S
C911 H927 0.960 . S
H912 C896 0.931 . S
H913 C901 0.929 . S
H914 C902 0.960 . S
H915 C902 0.962 . S
H916 C902 0.960 . S
H917 C903 0.961 . S
H918 C903 0.961 . S
H919 C903 0.961 . S
H920 C904 0.931 . S
H921 C909 0.930 . S
H922 C910 0.956 . S
H923 C910 0.961 . S
H924 C910 0.961 . S
H925 C911 0.958 . S
H926 C911 0.961 . S
H927 C911 0.960 . S
C928 C929 1.391 . S
C928 C930 1.394 . S
C928 H944 0.931 . S
C929 C928 1.391 . S
C929 C933 1.376 . S
C930 C928 1.394 . S
C930 C931 1.369 . S
C930 C934 1.531 . S
C931 C930 1.369 . S
C931 C932 1.410 . S
C931 C939 1.503 . S
C932 C931 1.410 . S
C932 C933 1.392 . S
C932 C935 1.511 . S
C933 C929 1.376 . S
C933 C932 1.392 . S
C933 H945 0.929 . S
C934 C930 1.531 . S
C934 H946 0.960 . S
C934 H947 0.962 . S
C934 H948 0.960 . S
C935 C932 1.511 . S
C935 H949 0.961 . S
C935 H950 0.961 . S
C935 H951 0.961 . S
C936 C937 1.370 . S
C936 C938 1.363 . S
C936 H952 0.931 . S
C937 C936 1.370 . S
C937 C941 1.408 . S
C938 C936 1.363 . S
C938 C939 1.370 . S
C938 C942 1.524 . S
C939 C931 1.503 . S
C939 C938 1.370 . S
C939 C940 1.403 . S
C940 C939 1.403 . S
C940 C941 1.404 . S
C940 C943 1.539 . S
C941 C937 1.408 . S
C941 C940 1.404 . S
C941 H953 0.930 . S
C942 C938 1.524 . S
C942 H954 0.956 . S
C942 H955 0.961 . S
C942 H956 0.961 . S
C943 C940 1.539 . S
C943 H957 0.958 . S
C943 H958 0.961 . S
C943 H959 0.960 . S
H944 C928 0.931 . S
H945 C933 0.929 . S
H946 C934 0.960 . S
H947 C934 0.962 . S
H948 C934 0.960 . S
H949 C935 0.961 . S
H950 C935 0.961 . S
H951 C935 0.961 . S
H952 C936 0.931 . S
H953 C941 0.930 . S
H954 C942 0.956 . S
H955 C942 0.961 . S
H956 C942 0.961 . S
H957 C943 0.958 . S
H958 C943 0.961 . S
H959 C943 0.960 . S
C960 C961 1.391 . S
C960 C962 1.394 . S
C960 H976 0.931 . S
C961 C960 1.391 . S
C961 C965 1.376 . S
C962 C960 1.394 . S
C962 C963 1.369 . S
C962 C966 1.531 . S
C963 C962 1.369 . S
C963 C964 1.410 . S
C963 C971 1.503 . S
C964 C963 1.410 . S
C964 C965 1.392 . S
C964 C967 1.511 . S
C965 C961 1.376 . S
C965 C964 1.392 . S
C965 H977 0.929 . S
C966 C962 1.531 . S
C966 H978 0.960 . S
C966 H979 0.962 . S
C966 H980 0.960 . S
C967 C964 1.511 . S
C967 H981 0.961 . S
C967 H982 0.961 . S
C967 H983 0.961 . S
C968 C969 1.370 . S
C968 C970 1.363 . S
C968 H984 0.931 . S
C969 C968 1.370 . S
C969 C973 1.408 . S
C970 C968 1.363 . S
C970 C971 1.370 . S
C970 C974 1.524 . S
C971 C963 1.503 . S
C971 C970 1.370 . S
C971 C972 1.403 . S
C972 C971 1.403 . S
C972 C973 1.404 . S
C972 C975 1.539 . S
C973 C969 1.408 . S
C973 C972 1.404 . S
C973 H985 0.930 . S
C974 C970 1.524 . S
C974 H986 0.956 . S
C974 H987 0.961 . S
C974 H988 0.961 . S
C975 C972 1.539 . S
C975 H989 0.958 . S
C975 H990 0.961 . S
C975 H991 0.960 . S
H976 C960 0.931 . S
H977 C965 0.929 . S
H978 C966 0.960 . S
H979 C966 0.962 . S
H980 C966 0.960 . S
H981 C967 0.961 . S
H982 C967 0.961 . S
H983 C967 0.961 . S
H984 C968 0.931 . S
H985 C973 0.930 . S
H986 C974 0.956 . S
H987 C974 0.961 . S
H988 C974 0.961 . S
H989 C975 0.958 . S
H990 C975 0.961 . S
H991 C975 0.960 . S
C992 C993 1.391 . S
C992 C994 1.394 . S
C992 H1008 0.931 . S
C993 C992 1.391 . S
C993 C997 1.376 . S
C994 C992 1.394 . S
C994 C995 1.369 . S
C994 C998 1.531 . S
C995 C994 1.369 . S
C995 C996 1.410 . S
C995 C1003 1.503 . S
C996 C995 1.410 . S
C996 C997 1.392 . S
C996 C999 1.511 . S
C997 C993 1.376 . S
C997 C996 1.392 . S
C997 H1009 0.929 . S
C998 C994 1.531 . S
C998 H1010 0.960 . S
C998 H1011 0.962 . S
C998 H1012 0.960 . S
C999 C996 1.511 . S
C999 H1013 0.961 . S
C999 H1014 0.961 . S
C999 H1015 0.961 . S
C1000 C1001 1.370 . S
C1000 C1002 1.363 . S
C1000 H1016 0.931 . S
C1001 C1000 1.370 . S
C1001 C1005 1.408 . S
C1002 C1000 1.363 . S
C1002 C1003 1.370 . S
C1002 C1006 1.524 . S
C1003 C995 1.503 . S
C1003 C1002 1.370 . S
C1003 C1004 1.403 . S
C1004 C1003 1.403 . S
C1004 C1005 1.404 . S
C1004 C1007 1.539 . S
C1005 C1001 1.408 . S
C1005 C1004 1.404 . S
C1005 H1017 0.930 . S
C1006 C1002 1.524 . S
C1006 H1018 0.956 . S
C1006 H1019 0.961 . S
C1006 H1020 0.961 . S
C1007 C1004 1.539 . S
C1007 H1021 0.958 . S
C1007 H1022 0.961 . S
C1007 H1023 0.960 . S
H1008 C992 0.931 . S
H1009 C997 0.929 . S
H1010 C998 0.960 . S
H1011 C998 0.962 . S
H1012 C998 0.960 . S
H1013 C999 0.961 . S
H1014 C999 0.961 . S
H1015 C999 0.961 . S
H1016 C1000 0.931 . S
H1017 C1005 0.930 . S
H1018 C1006 0.956 . S
H1019 C1006 0.961 . S
H1020 C1006 0.961 . S
H1021 C1007 0.958 . S
H1022 C1007 0.961 . S
H1023 C1007 0.960 . S
C1024 C1025 1.391 . S
C1024 C1026 1.394 . S
C1024 H1040 0.931 . S
C1025 C1024 1.391 . S
C1025 C1029 1.376 . S
C1026 C1024 1.394 . S
C1026 C1027 1.369 . S
C1026 C1030 1.531 . S
C1027 C1026 1.369 . S
C1027 C1028 1.410 . S
C1027 C1035 1.503 . S
C1028 C1027 1.410 . S
C1028 C1029 1.392 . S
C1028 C1031 1.511 . S
C1029 C1025 1.376 . S
C1029 C1028 1.392 . S
C1029 H1041 0.929 . S
C1030 C1026 1.531 . S
C1030 H1042 0.960 . S
C1030 H1043 0.962 . S
C1030 H1044 0.960 . S
C1031 C1028 1.511 . S
C1031 H1045 0.961 . S
C1031 H1046 0.961 . S
C1031 H1047 0.961 . S
C1032 C1033 1.370 . S
C1032 C1034 1.363 . S
C1032 H1048 0.931 . S
C1033 C1032 1.370 . S
C1033 C1037 1.408 . S
C1034 C1032 1.363 . S
C1034 C1035 1.370 . S
C1034 C1038 1.524 . S
C1035 C1027 1.503 . S
C1035 C1034 1.370 . S
C1035 C1036 1.403 . S
C1036 C1035 1.403 . S
C1036 C1037 1.404 . S
C1036 C1039 1.539 . S
C1037 C1033 1.408 . S
C1037 C1036 1.404 . S
C1037 H1049 0.930 . S
C1038 C1034 1.524 . S
C1038 H1050 0.956 . S
C1038 H1051 0.961 . S
C1038 H1052 0.961 . S
C1039 C1036 1.539 . S
C1039 H1053 0.958 . S
C1039 H1054 0.961 . S
C1039 H1055 0.960 . S
H1040 C1024 0.931 . S
H1041 C1029 0.929 . S
H1042 C1030 0.960 . S
H1043 C1030 0.962 . S
H1044 C1030 0.960 . S
H1045 C1031 0.961 . S
H1046 C1031 0.961 . S
H1047 C1031 0.961 . S
H1048 C1032 0.931 . S
H1049 C1037 0.930 . S
H1050 C1038 0.956 . S
H1051 C1038 0.961 . S
H1052 C1038 0.961 . S
H1053 C1039 0.958 . S
H1054 C1039 0.961 . S
H1055 C1039 0.960 . S
C1056 C1057 1.391 . S
C1056 C1058 1.394 . S
C1056 H1072 0.931 . S
C1057 C1056 1.391 . S
C1057 C1061 1.376 . S
C1058 C1056 1.394 . S
C1058 C1059 1.369 . S
C1058 C1062 1.531 . S
C1059 C1058 1.369 . S
C1059 C1060 1.410 . S
C1059 C1067 1.503 . S
C1060 C1059 1.410 . S
C1060 C1061 1.392 . S
C1060 C1063 1.511 . S
C1061 C1057 1.376 . S
C1061 C1060 1.392 . S
C1061 H1073 0.929 . S
C1062 C1058 1.531 . S
C1062 H1074 0.960 . S
C1062 H1075 0.962 . S
C1062 H1076 0.960 . S
C1063 C1060 1.511 . S
C1063 H1077 0.961 . S
C1063 H1078 0.961 . S
C1063 H1079 0.961 . S
C1064 C1065 1.370 . S
C1064 C1066 1.363 . S
C1064 H1080 0.931 . S
C1065 C1064 1.370 . S
C1065 C1069 1.408 . S
C1066 C1064 1.363 . S
C1066 C1067 1.370 . S
C1066 C1070 1.524 . S
C1067 C1059 1.503 . S
C1067 C1066 1.370 . S
C1067 C1068 1.403 . S
C1068 C1067 1.403 . S
C1068 C1069 1.404 . S
C1068 C1071 1.539 . S
C1069 C1065 1.408 . S
C1069 C1068 1.404 . S
C1069 H1081 0.930 . S
C1070 C1066 1.524 . S
C1070 H1082 0.956 . S
C1070 H1083 0.961 . S
C1070 H1084 0.961 . S
C1071 C1068 1.539 . S
C1071 H1085 0.958 . S
C1071 H1086 0.961 . S
C1071 H1087 0.960 . S
H1072 C1056 0.931 . S
H1073 C1061 0.929 . S
H1074 C1062 0.960 . S
H1075 C1062 0.962 . S
H1076 C1062 0.960 . S
H1077 C1063 0.961 . S
H1078 C1063 0.961 . S
H1079 C1063 0.961 . S
H1080 C1064 0.931 . S
H1081 C1069 0.930 . S
H1082 C1070 0.956 . S
H1083 C1070 0.961 . S
H1084 C1070 0.961 . S
H1085 C1071 0.958 . S
H1086 C1071 0.961 . S
H1087 C1071 0.960 . S
C1088 C1089 1.391 . S
C1088 C1090 1.394 . S
C1088 H1104 0.931 . S
C1089 C1088 1.391 . S
C1089 C1093 1.376 . S
C1090 C1088 1.394 . S
C1090 C1091 1.369 . S
C1090 C1094 1.531 . S
C1091 C1090 1.369 . S
C1091 C1092 1.410 . S
C1091 C1099 1.503 . S
C1092 C1091 1.410 . S
C1092 C1093 1.392 . S
C1092 C1095 1.511 . S
C1093 C1089 1.376 . S
C1093 C1092 1.392 . S
C1093 H1105 0.929 . S
C1094 C1090 1.531 . S
C1094 H1106 0.960 . S
C1094 H1107 0.962 . S
C1094 H1108 0.960 . S
C1095 C1092 1.511 . S
C1095 H1109 0.961 . S
C1095 H1110 0.961 . S
C1095 H1111 0.945 1_556 S
C1096 C1097 1.370 . S
C1096 C1098 1.363 . S
C1096 H1112 0.931 . S
C1097 C1096 1.370 . S
C1097 C1101 1.408 . S
C1098 C1096 1.363 . S
C1098 C1099 1.370 . S
C1098 C1102 1.524 . S
C1099 C1091 1.503 . S
C1099 C1098 1.370 . S
C1099 C1100 1.403 . S
C1100 C1099 1.403 . S
C1100 C1101 1.404 . S
C1100 C1103 1.539 . S
C1101 C1097 1.408 . S
C1101 C1100 1.404 . S
C1101 H1113 0.930 . S
C1102 C1098 1.524 . S
C1102 H1114 0.956 . S
C1102 H1115 0.961 . S
C1102 H1116 0.961 . S
C1103 C1100 1.539 . S
C1103 H1117 0.958 . S
C1103 H1118 0.961 . S
C1103 H1119 0.960 . S
H1104 C1088 0.931 . S
H1105 C1093 0.929 . S
H1106 C1094 0.960 . S
H1107 C1094 0.962 . S
H1108 C1094 0.960 . S
H1109 C1095 0.961 . S
H1110 C1095 0.961 . S
H1111 C1095 0.945 1_554 S
H1112 C1096 0.931 . S
H1113 C1101 0.930 . S
H1114 C1102 0.956 . S
H1115 C1102 0.961 . S
H1116 C1102 0.961 . S
H1117 C1103 0.958 . S
H1118 C1103 0.961 . S
H1119 C1103 0.960 . S
C1120 C1121 1.391 . S
C1120 C1122 1.394 . S
C1120 H1136 0.931 . S
C1121 C1120 1.391 . S
C1121 C1125 1.376 . S
C1122 C1120 1.394 . S
C1122 C1123 1.369 . S
C1122 C1126 1.531 . S
C1123 C1122 1.369 . S
C1123 C1124 1.410 . S
C1123 C1131 1.503 . S
C1124 C1123 1.410 . S
C1124 C1125 1.392 . S
C1124 C1127 1.511 . S
C1125 C1121 1.376 . S
C1125 C1124 1.392 . S
C1125 H1137 0.929 . S
C1126 C1122 1.531 . S
C1126 H1138 0.960 . S
C1126 H1139 0.962 . S
C1126 H1140 0.960 . S
C1127 C1124 1.511 . S
C1127 H1141 0.961 . S
C1127 H1142 0.961 . S
C1127 H1143 0.961 . S
C1128 C1129 1.370 . S
C1128 C1130 1.363 . S
C1128 H1144 0.931 . S
C1129 C1128 1.370 . S
C1129 C1133 1.408 . S
C1130 C1128 1.363 . S
C1130 C1131 1.370 . S
C1130 C1134 1.524 . S
C1131 C1123 1.503 . S
C1131 C1130 1.370 . S
C1131 C1132 1.403 . S
C1132 C1131 1.403 . S
C1132 C1133 1.404 . S
C1132 C1135 1.539 . S
C1133 C1129 1.408 . S
C1133 C1132 1.404 . S
C1133 H1145 0.930 . S
C1134 C1130 1.524 . S
C1134 H1146 0.956 . S
C1134 H1147 0.961 . S
C1134 H1148 0.961 . S
C1135 C1132 1.539 . S
C1135 H1149 0.958 . S
C1135 H1150 0.961 . S
C1135 H1151 0.960 . S
H1136 C1120 0.931 . S
H1137 C1125 0.929 . S
H1138 C1126 0.960 . S
H1139 C1126 0.962 . S
H1140 C1126 0.960 . S
H1141 C1127 0.961 . S
H1142 C1127 0.961 . S
H1143 C1127 0.961 . S
H1144 C1128 0.931 . S
H1145 C1133 0.930 . S
H1146 C1134 0.956 . S
H1147 C1134 0.961 . S
H1148 C1134 0.961 . S
H1149 C1135 0.958 . S
H1150 C1135 0.961 . S
H1151 C1135 0.960 . S
C1152 C1153 1.391 . S
C1152 C1154 1.394 . S
C1152 H1168 0.931 . S
C1153 C1152 1.391 . S
C1153 C1157 1.376 . S
C1154 C1152 1.394 . S
C1154 C1155 1.369 . S
C1154 C1158 1.531 . S
C1155 C1154 1.369 . S
C1155 C1156 1.410 . S
C1155 C1163 1.503 . S
C1156 C1155 1.410 . S
C1156 C1157 1.392 . S
C1156 C1159 1.511 . S
C1157 C1153 1.376 . S
C1157 C1156 1.392 . S
C1157 H1169 0.929 . S
C1158 C1154 1.531 . S
C1158 H1170 0.960 . S
C1158 H1171 0.962 . S
C1158 H1172 0.960 . S
C1159 C1156 1.511 . S
C1159 H1173 0.961 . S
C1159 H1174 0.961 . S
C1159 H1175 0.961 . S
C1160 C1161 1.370 . S
C1160 C1162 1.363 . S
C1160 H1176 0.931 . S
C1161 C1160 1.370 . S
C1161 C1165 1.408 . S
C1162 C1160 1.363 . S
C1162 C1163 1.370 . S
C1162 C1166 1.524 . S
C1163 C1155 1.503 . S
C1163 C1162 1.370 . S
C1163 C1164 1.403 . S
C1164 C1163 1.403 . S
C1164 C1165 1.404 . S
C1164 C1167 1.539 . S
C1165 C1161 1.408 . S
C1165 C1164 1.404 . S
C1165 H1177 0.930 . S
C1166 C1162 1.524 . S
C1166 H1178 0.956 . S
C1166 H1179 0.961 . S
C1166 H1180 0.961 . S
C1167 C1164 1.539 . S
C1167 H1181 0.958 . S
C1167 H1182 0.961 . S
C1167 H1183 0.960 . S
H1168 C1152 0.931 . S
H1169 C1157 0.929 . S
H1170 C1158 0.960 . S
H1171 C1158 0.962 . S
H1172 C1158 0.960 . S
H1173 C1159 0.961 . S
H1174 C1159 0.961 . S
H1175 C1159 0.961 . S
H1176 C1160 0.931 . S
H1177 C1165 0.930 . S
H1178 C1166 0.956 . S
H1179 C1166 0.961 . S
H1180 C1166 0.961 . S
H1181 C1167 0.958 . S
H1182 C1167 0.961 . S
H1183 C1167 0.960 . S
C1184 C1185 1.391 . S
C1184 C1186 1.394 . S
C1184 H1200 0.931 . S
C1185 C1184 1.391 . S
C1185 C1189 1.376 . S
C1186 C1184 1.394 . S
C1186 C1187 1.369 . S
C1186 C1190 1.531 . S
C1187 C1186 1.369 . S
C1187 C1188 1.410 . S
C1187 C1195 1.503 . S
C1188 C1187 1.410 . S
C1188 C1189 1.392 . S
C1188 C1191 1.511 . S
C1189 C1185 1.376 . S
C1189 C1188 1.392 . S
C1189 H1201 0.929 . S
C1190 C1186 1.531 . S
C1190 H1202 0.960 . S
C1190 H1203 0.962 . S
C1190 H1204 0.960 . S
C1191 C1188 1.511 . S
C1191 H1205 0.961 . S
C1191 H1206 0.961 . S
C1191 H1207 0.961 . S
C1192 C1193 1.370 . S
C1192 C1194 1.363 . S
C1192 H1208 0.931 . S
C1193 C1192 1.370 . S
C1193 C1197 1.408 . S
C1194 C1192 1.363 . S
C1194 C1195 1.370 . S
C1194 C1198 1.524 . S
C1195 C1187 1.503 . S
C1195 C1194 1.370 . S
C1195 C1196 1.403 . S
C1196 C1195 1.403 . S
C1196 C1197 1.404 . S
C1196 C1199 1.539 . S
C1197 C1193 1.408 . S
C1197 C1196 1.404 . S
C1197 H1209 0.930 . S
C1198 C1194 1.524 . S
C1198 H1210 0.956 . S
C1198 H1211 0.961 . S
C1198 H1212 0.961 . S
C1199 C1196 1.539 . S
C1199 H1213 0.958 . S
C1199 H1214 0.961 . S
C1199 H1215 0.960 . S
H1200 C1184 0.931 . S
H1201 C1189 0.929 . S
H1202 C1190 0.960 . S
H1203 C1190 0.962 . S
H1204 C1190 0.960 . S
H1205 C1191 0.961 . S
H1206 C1191 0.961 . S
H1207 C1191 0.961 . S
H1208 C1192 0.931 . S
H1209 C1197 0.930 . S
H1210 C1198 0.956 . S
H1211 C1198 0.961 . S
H1212 C1198 0.961 . S
H1213 C1199 0.958 . S
H1214 C1199 0.961 . S
H1215 C1199 0.960 . S
C1216 C1217 1.391 . S
C1216 C1218 1.394 . S
C1216 H1232 0.931 . S
C1217 C1216 1.391 . S
C1217 C1221 1.376 . S
C1218 C1216 1.394 . S
C1218 C1219 1.369 . S
C1218 C1222 1.531 . S
C1219 C1218 1.369 . S
C1219 C1220 1.410 . S
C1219 C1227 1.503 . S
C1220 C1219 1.410 . S
C1220 C1221 1.392 . S
C1220 C1223 1.511 . S
C1221 C1217 1.376 . S
C1221 C1220 1.392 . S
C1221 H1233 0.929 . S
C1222 C1218 1.531 . S
C1222 H1234 0.960 . S
C1222 H1235 0.962 . S
C1222 H1236 0.960 . S
C1223 C1220 1.511 . S
C1223 H1237 0.961 . S
C1223 H1238 0.961 . S
C1223 H1239 0.961 . S
C1224 C1225 1.370 . S
C1224 C1226 1.363 . S
C1224 H1240 0.931 . S
C1225 C1224 1.370 . S
C1225 C1229 1.408 . S
C1226 C1224 1.363 . S
C1226 C1227 1.370 . S
C1226 C1230 1.524 . S
C1227 C1219 1.503 . S
C1227 C1226 1.370 . S
C1227 C1228 1.403 . S
C1228 C1227 1.403 . S
C1228 C1229 1.404 . S
C1228 C1231 1.539 . S
C1229 C1225 1.408 . S
C1229 C1228 1.404 . S
C1229 H1241 0.930 . S
C1230 C1226 1.524 . S
C1230 H1242 0.956 . S
C1230 H1243 0.961 . S
C1230 H1244 0.961 . S
C1231 C1228 1.539 . S
C1231 H1245 0.958 . S
C1231 H1246 0.961 . S
C1231 H1247 0.960 . S
H1232 C1216 0.931 . S
H1233 C1221 0.929 . S
H1234 C1222 0.960 . S
H1235 C1222 0.962 . S
H1236 C1222 0.960 . S
H1237 C1223 0.961 . S
H1238 C1223 0.961 . S
H1239 C1223 0.961 . S
H1240 C1224 0.931 . S
H1241 C1229 0.930 . S
H1242 C1230 0.956 . S
H1243 C1230 0.961 . S
H1244 C1230 0.961 . S
H1245 C1231 0.958 . S
H1246 C1231 0.961 . S
H1247 C1231 0.960 . S
C1248 C1249 1.391 . S
C1248 C1250 1.394 . S
C1248 H1264 0.931 . S
C1249 C1248 1.391 . S
C1249 C1253 1.376 . S
C1250 C1248 1.394 . S
C1250 C1251 1.369 . S
C1250 C1254 1.531 . S
C1251 C1250 1.369 . S
C1251 C1252 1.410 . S
C1251 C1259 1.503 . S
C1252 C1251 1.410 . S
C1252 C1253 1.392 . S
C1252 C1255 1.511 . S
C1253 C1249 1.376 . S
C1253 C1252 1.392 . S
C1253 H1265 0.929 . S
C1254 C1250 1.531 . S
C1254 H1266 0.960 . S
C1254 H1267 0.962 . S
C1254 H1268 0.960 . S
C1255 C1252 1.511 . S
C1255 H1269 0.961 . S
C1255 H1270 0.961 . S
C1255 H1271 0.961 . S
C1256 C1257 1.370 . S
C1256 C1258 1.363 . S
C1256 H1272 0.931 . S
C1257 C1256 1.370 . S
C1257 C1261 1.408 . S
C1258 C1256 1.363 . S
C1258 C1259 1.370 . S
C1258 C1262 1.524 . S
C1259 C1251 1.503 . S
C1259 C1258 1.370 . S
C1259 C1260 1.403 . S
C1260 C1259 1.403 . S
C1260 C1261 1.404 . S
C1260 C1263 1.539 . S
C1261 C1257 1.408 . S
C1261 C1260 1.404 . S
C1261 H1273 0.930 . S
C1262 C1258 1.524 . S
C1262 H1274 0.956 . S
C1262 H1275 0.961 . S
C1262 H1276 0.961 . S
C1263 C1260 1.539 . S
C1263 H1277 0.958 . S
C1263 H1278 0.961 . S
C1263 H1279 0.960 . S
H1264 C1248 0.931 . S
H1265 C1253 0.929 . S
H1266 C1254 0.960 . S
H1267 C1254 0.962 . S
H1268 C1254 0.960 . S
H1269 C1255 0.961 . S
H1270 C1255 0.961 . S
H1271 C1255 0.961 . S
H1272 C1256 0.931 . S
H1273 C1261 0.930 . S
H1274 C1262 0.956 . S
H1275 C1262 0.961 . S
H1276 C1262 0.961 . S
H1277 C1263 0.958 . S
H1278 C1263 0.961 . S
H1279 C1263 0.960 . S
C1280 C1281 1.391 . S
C1280 C1282 1.394 . S
C1280 H1296 0.931 . S
C1281 C1280 1.391 . S
C1281 C1285 1.376 . S
C1282 C1280 1.394 . S
C1282 C1283 1.369 . S
C1282 C1286 1.531 . S
C1283 C1282 1.369 . S
C1283 C1284 1.410 . S
C1283 C1291 1.503 . S
C1284 C1283 1.410 . S
C1284 C1285 1.392 . S
C1284 C1287 1.511 . S
C1285 C1281 1.376 . S
C1285 C1284 1.392 . S
C1285 H1297 0.929 . S
C1286 C1282 1.531 . S
C1286 H1298 0.960 . S
C1286 H1299 0.962 . S
C1286 H1300 0.960 . S
C1287 C1284 1.511 . S
C1287 H1301 0.961 . S
C1287 H1302 0.961 . S
C1287 H1303 0.961 . S
C1288 C1289 1.370 . S
C1288 C1290 1.363 . S
C1288 H1304 0.931 . S
C1289 C1288 1.370 . S
C1289 C1293 1.408 . S
C1290 C1288 1.363 . S
C1290 C1291 1.370 . S
C1290 C1294 1.524 . S
C1291 C1283 1.503 . S
C1291 C1290 1.370 . S
C1291 C1292 1.403 . S
C1292 C1291 1.403 . S
C1292 C1293 1.404 . S
C1292 C1295 1.539 . S
C1293 C1289 1.408 . S
C1293 C1292 1.404 . S
C1293 H1305 0.930 . S
C1294 C1290 1.524 . S
C1294 H1306 0.956 . S
C1294 H1307 0.961 . S
C1294 H1308 0.961 . S
C1295 C1292 1.539 . S
C1295 H1309 0.958 . S
C1295 H1310 0.961 . S
C1295 H1311 0.960 . S
H1296 C1280 0.931 . S
H1297 C1285 0.929 . S
H1298 C1286 0.960 . S
H1299 C1286 0.962 . S
H1300 C1286 0.960 . S
H1301 C1287 0.961 . S
H1302 C1287 0.961 . S
H1303 C1287 0.961 . S
H1304 C1288 0.931 . S
H1305 C1293 0.930 . S
H1306 C1294 0.956 . S
H1307 C1294 0.961 . S
H1308 C1294 0.961 . S
H1309 C1295 0.958 . S
H1310 C1295 0.961 . S
H1311 C1295 0.960 . S
C1312 C1313 1.391 . S
C1312 C1314 1.394 . S
C1312 H1328 0.931 . S
C1313 C1312 1.391 . S
C1313 C1317 1.376 . S
C1314 C1312 1.394 . S
C1314 C1315 1.369 . S
C1314 C1318 1.531 . S
C1315 C1314 1.369 . S
C1315 C1316 1.410 . S
C1315 C1323 1.503 . S
C1316 C1315 1.410 . S
C1316 C1317 1.392 . S
C1316 C1319 1.511 . S
C1317 C1313 1.376 . S
C1317 C1316 1.392 . S
C1317 H1329 0.929 . S
C1318 C1314 1.531 . S
C1318 H1330 0.960 . S
C1318 H1331 0.962 . S
C1318 H1332 0.960 . S
C1319 C1316 1.511 . S
C1319 H1333 0.961 . S
C1319 H1334 0.961 . S
C1319 H1335 0.961 . S
C1320 C1321 1.370 . S
C1320 C1322 1.363 . S
C1320 H1336 0.931 . S
C1321 C1320 1.370 . S
C1321 C1325 1.408 . S
C1322 C1320 1.363 . S
C1322 C1323 1.370 . S
C1322 C1326 1.524 . S
C1323 C1315 1.503 . S
C1323 C1322 1.370 . S
C1323 C1324 1.403 . S
C1324 C1323 1.403 . S
C1324 C1325 1.404 . S
C1324 C1327 1.539 . S
C1325 C1321 1.408 . S
C1325 C1324 1.404 . S
C1325 H1337 0.930 . S
C1326 C1322 1.524 . S
C1326 H1338 0.956 . S
C1326 H1339 0.961 . S
C1326 H1340 0.961 . S
C1327 C1324 1.539 . S
C1327 H1341 0.958 . S
C1327 H1342 0.961 . S
C1327 H1343 0.960 . S
H1328 C1312 0.931 . S
H1329 C1317 0.929 . S
H1330 C1318 0.960 . S
H1331 C1318 0.962 . S
H1332 C1318 0.960 . S
H1333 C1319 0.961 . S
H1334 C1319 0.961 . S
H1335 C1319 0.961 . S
H1336 C1320 0.931 . S
H1337 C1325 0.930 . S
H1338 C1326 0.956 . S
H1339 C1326 0.961 . S
H1340 C1326 0.961 . S
H1341 C1327 0.958 . S
H1342 C1327 0.961 . S
H1343 C1327 0.960 . S
C1344 C1345 1.391 . S
C1344 C1346 1.394 . S
C1344 H1360 0.931 . S
C1345 C1344 1.391 . S
C1345 C1349 1.376 . S
C1346 C1344 1.394 . S
C1346 C1347 1.369 . S
C1346 C1350 1.531 . S
C1347 C1346 1.369 . S
C1347 C1348 1.410 . S
C1347 C1355 1.503 . S
C1348 C1347 1.410 . S
C1348 C1349 1.392 . S
C1348 C1351 1.511 . S
C1349 C1345 1.376 . S
C1349 C1348 1.392 . S
C1349 H1361 0.929 . S
C1350 C1346 1.531 . S
C1350 H1362 0.960 . S
C1350 H1363 0.962 . S
C1350 H1364 0.960 . S
C1351 C1348 1.511 . S
C1351 H1365 0.961 . S
C1351 H1366 0.961 . S
C1351 H1367 0.961 . S
C1352 C1353 1.370 . S
C1352 C1354 1.363 . S
C1352 H1368 0.931 . S
C1353 C1352 1.370 . S
C1353 C1357 1.408 . S
C1354 C1352 1.363 . S
C1354 C1355 1.370 . S
C1354 C1358 1.524 . S
C1355 C1347 1.503 . S
C1355 C1354 1.370 . S
C1355 C1356 1.403 . S
C1356 C1355 1.403 . S
C1356 C1357 1.404 . S
C1356 C1359 1.539 . S
C1357 C1353 1.408 . S
C1357 C1356 1.404 . S
C1357 H1369 0.930 . S
C1358 C1354 1.524 . S
C1358 H1370 0.956 . S
C1358 H1371 0.961 . S
C1358 H1372 0.961 . S
C1359 C1356 1.539 . S
C1359 H1373 0.958 . S
C1359 H1374 0.961 . S
C1359 H1375 0.960 . S
H1360 C1344 0.931 . S
H1361 C1349 0.929 . S
H1362 C1350 0.960 . S
H1363 C1350 0.962 . S
H1364 C1350 0.960 . S
H1365 C1351 0.961 . S
H1366 C1351 0.961 . S
H1367 C1351 0.961 . S
H1368 C1352 0.931 . S
H1369 C1357 0.930 . S
H1370 C1358 0.956 . S
H1371 C1358 0.961 . S
H1372 C1358 0.961 . S
H1373 C1359 0.958 . S
H1374 C1359 0.961 . S
H1375 C1359 0.960 . S
C1376 C1377 1.391 . S
C1376 C1378 1.394 . S
C1376 H1392 0.931 . S
C1377 C1376 1.391 . S
C1377 C1381 1.376 . S
C1378 C1376 1.394 . S
C1378 C1379 1.369 . S
C1378 C1382 1.531 . S
C1379 C1378 1.369 . S
C1379 C1380 1.410 . S
C1379 C1387 1.503 . S
C1380 C1379 1.410 . S
C1380 C1381 1.392 . S
C1380 C1383 1.511 . S
C1381 C1377 1.376 . S
C1381 C1380 1.392 . S
C1381 H1393 0.929 . S
C1382 C1378 1.531 . S
C1382 H1394 0.960 . S
C1382 H1395 0.962 . S
C1382 H1396 0.960 . S
C1383 C1380 1.511 . S
C1383 H1397 0.961 . S
C1383 H1398 0.961 . S
C1383 H1399 0.961 . S
C1384 C1385 1.370 . S
C1384 C1386 1.363 . S
C1384 H1400 0.931 . S
C1385 C1384 1.370 . S
C1385 C1389 1.408 . S
C1386 C1384 1.363 . S
C1386 C1387 1.370 . S
C1386 C1390 1.524 . S
C1387 C1379 1.503 . S
C1387 C1386 1.370 . S
C1387 C1388 1.403 . S
C1388 C1387 1.403 . S
C1388 C1389 1.404 . S
C1388 C1391 1.539 . S
C1389 C1385 1.408 . S
C1389 C1388 1.404 . S
C1389 H1401 0.930 . S
C1390 C1386 1.524 . S
C1390 H1402 0.956 . S
C1390 H1403 0.961 . S
C1390 H1404 0.961 . S
C1391 C1388 1.539 . S
C1391 H1405 0.958 . S
C1391 H1406 0.961 . S
C1391 H1407 0.960 . S
H1392 C1376 0.931 . S
H1393 C1381 0.929 . S
H1394 C1382 0.960 . S
H1395 C1382 0.962 . S
H1396 C1382 0.960 . S
H1397 C1383 0.961 . S
H1398 C1383 0.961 . S
H1399 C1383 0.961 . S
H1400 C1384 0.931 . S
H1401 C1389 0.930 . S
H1402 C1390 0.956 . S
H1403 C1390 0.961 . S
H1404 C1390 0.961 . S
H1405 C1391 0.958 . S
H1406 C1391 0.961 . S
H1407 C1391 0.960 . S
C1408 C1409 1.391 . S
C1408 C1410 1.394 . S
C1408 H1424 0.931 . S
C1409 C1408 1.391 . S
C1409 C1413 1.376 . S
C1410 C1408 1.394 . S
C1410 C1411 1.369 . S
C1410 C1414 1.531 . S
C1411 C1410 1.369 . S
C1411 C1412 1.410 . S
C1411 C1419 1.503 . S
C1412 C1411 1.410 . S
C1412 C1413 1.392 . S
C1412 C1415 1.511 . S
C1413 C1409 1.376 . S
C1413 C1412 1.392 . S
C1413 H1425 0.929 . S
C1414 C1410 1.531 . S
C1414 H1426 0.960 . S
C1414 H1427 0.962 . S
C1414 H1428 0.960 . S
C1415 C1412 1.511 . S
C1415 H1429 0.961 . S
C1415 H1430 0.961 . S
C1415 H1431 0.961 . S
C1416 C1417 1.370 . S
C1416 C1418 1.363 . S
C1416 H1432 0.931 . S
C1417 C1416 1.370 . S
C1417 C1421 1.408 . S
C1418 C1416 1.363 . S
C1418 C1419 1.370 . S
C1418 C1422 1.524 . S
C1419 C1411 1.503 . S
C1419 C1418 1.370 . S
C1419 C1420 1.403 . S
C1420 C1419 1.403 . S
C1420 C1421 1.404 . S
C1420 C1423 1.539 . S
C1421 C1417 1.408 . S
C1421 C1420 1.404 . S
C1421 H1433 0.930 . S
C1422 C1418 1.524 . S
C1422 H1434 0.956 . S
C1422 H1435 0.961 . S
C1422 H1436 0.961 . S
C1423 C1420 1.539 . S
C1423 H1437 0.958 . S
C1423 H1438 0.961 . S
C1423 H1439 0.960 . S
H1424 C1408 0.931 . S
H1425 C1413 0.929 . S
H1426 C1414 0.960 . S
H1427 C1414 0.962 . S
H1428 C1414 0.960 . S
H1429 C1415 0.961 . S
H1430 C1415 0.961 . S
H1431 C1415 0.961 . S
H1432 C1416 0.931 . S
H1433 C1421 0.930 . S
H1434 C1422 0.956 . S
H1435 C1422 0.961 . S
H1436 C1422 0.961 . S
H1437 C1423 0.958 . S
H1438 C1423 0.961 . S
H1439 C1423 0.960 . S
C1440 C1441 1.391 . S
C1440 C1442 1.394 . S
C1440 H1456 0.931 . S
C1441 C1440 1.391 . S
C1441 C1445 1.376 . S
C1442 C1440 1.394 . S
C1442 C1443 1.369 . S
C1442 C1446 1.531 . S
C1443 C1442 1.369 . S
C1443 C1444 1.410 . S
C1443 C1451 1.503 . S
C1444 C1443 1.410 . S
C1444 C1445 1.392 . S
C1444 C1447 1.511 . S
C1445 C1441 1.376 . S
C1445 C1444 1.392 . S
C1445 H1457 0.929 . S
C1446 C1442 1.531 . S
C1446 H1458 0.960 . S
C1446 H1459 0.962 . S
C1446 H1460 0.960 . S
C1447 C1444 1.511 . S
C1447 H1461 0.961 . S
C1447 H1462 0.961 . S
C1447 H1463 0.961 . S
C1448 C1449 1.370 . S
C1448 C1450 1.363 . S
C1448 H1464 0.931 . S
C1449 C1448 1.370 . S
C1449 C1453 1.408 . S
C1450 C1448 1.363 . S
C1450 C1451 1.370 . S
C1450 C1454 1.524 . S
C1451 C1443 1.503 . S
C1451 C1450 1.370 . S
C1451 C1452 1.403 . S
C1452 C1451 1.403 . S
C1452 C1453 1.404 . S
C1452 C1455 1.539 . S
C1453 C1449 1.408 . S
C1453 C1452 1.404 . S
C1453 H1465 0.930 . S
C1454 C1450 1.524 . S
C1454 H1466 0.956 . S
C1454 H1467 0.961 . S
C1454 H1468 0.961 . S
C1455 C1452 1.539 . S
C1455 H1469 0.958 . S
C1455 H1470 0.961 . S
C1455 H1471 0.960 . S
H1456 C1440 0.931 . S
H1457 C1445 0.929 . S
H1458 C1446 0.960 . S
H1459 C1446 0.962 . S
H1460 C1446 0.960 . S
H1461 C1447 0.961 . S
H1462 C1447 0.961 . S
H1463 C1447 0.961 . S
H1464 C1448 0.931 . S
H1465 C1453 0.930 . S
H1466 C1454 0.956 . S
H1467 C1454 0.961 . S
H1468 C1454 0.961 . S
H1469 C1455 0.958 . S
H1470 C1455 0.961 . S
H1471 C1455 0.960 . S
C1472 C1473 1.391 . S
C1472 C1474 1.394 . S
C1472 H1488 0.931 . S
C1473 C1472 1.391 . S
C1473 C1477 1.376 . S
C1474 C1472 1.394 . S
C1474 C1475 1.369 . S
C1474 C1478 1.531 . S
C1475 C1474 1.369 . S
C1475 C1476 1.410 . S
C1475 C1483 1.503 . S
C1476 C1475 1.410 . S
C1476 C1477 1.392 . S
C1476 C1479 1.511 . S
C1477 C1473 1.376 . S
C1477 C1476 1.392 . S
C1477 H1489 0.929 . S
C1478 C1474 1.531 . S
C1478 H1490 0.960 . S
C1478 H1491 0.962 . S
C1478 H1492 0.960 . S
C1479 C1476 1.511 . S
C1479 H1493 0.961 . S
C1479 H1494 0.961 . S
C1479 H1495 0.961 . S
C1480 C1481 1.370 . S
C1480 C1482 1.363 . S
C1480 H1496 0.931 . S
C1481 C1480 1.370 . S
C1481 C1485 1.408 . S
C1482 C1480 1.363 . S
C1482 C1483 1.370 . S
C1482 C1486 1.524 . S
C1483 C1475 1.503 . S
C1483 C1482 1.370 . S
C1483 C1484 1.403 . S
C1484 C1483 1.403 . S
C1484 C1485 1.404 . S
C1484 C1487 1.539 . S
C1485 C1481 1.408 . S
C1485 C1484 1.404 . S
C1485 H1497 0.930 . S
C1486 C1482 1.524 . S
C1486 H1498 0.956 . S
C1486 H1499 0.961 . S
C1486 H1500 0.961 . S
C1487 C1484 1.539 . S
C1487 H1501 0.958 . S
C1487 H1502 0.961 . S
C1487 H1503 0.960 . S
H1488 C1472 0.931 . S
H1489 C1477 0.929 . S
H1490 C1478 0.960 . S
H1491 C1478 0.962 . S
H1492 C1478 0.960 . S
H1493 C1479 0.961 . S
H1494 C1479 0.961 . S
H1495 C1479 0.961 . S
H1496 C1480 0.931 . S
H1497 C1485 0.930 . S
H1498 C1486 0.956 . S
H1499 C1486 0.961 . S
H1500 C1486 0.961 . S
H1501 C1487 0.958 . S
H1502 C1487 0.961 . S
H1503 C1487 0.960 . S
C1504 C1505 1.391 . S
C1504 C1506 1.394 . S
C1504 H1520 0.931 . S
C1505 C1504 1.391 . S
C1505 C1509 1.376 . S
C1506 C1504 1.394 . S
C1506 C1507 1.369 . S
C1506 C1510 1.531 . S
C1507 C1506 1.369 . S
C1507 C1508 1.410 . S
C1507 C1515 1.503 . S
C1508 C1507 1.410 . S
C1508 C1509 1.392 . S
C1508 C1511 1.511 . S
C1509 C1505 1.376 . S
C1509 C1508 1.392 . S
C1509 H1521 0.929 . S
C1510 C1506 1.531 . S
C1510 H1522 0.960 . S
C1510 H1523 0.962 . S
C1510 H1524 0.960 . S
C1511 C1508 1.511 . S
C1511 H1525 0.961 . S
C1511 H1526 0.961 . S
C1511 H1527 0.961 . S
C1512 C1513 1.370 . S
C1512 C1514 1.363 . S
C1512 H1528 0.931 . S
C1513 C1512 1.370 . S
C1513 C1517 1.408 . S
C1514 C1512 1.363 . S
C1514 C1515 1.370 . S
C1514 C1518 1.524 . S
C1515 C1507 1.503 . S
C1515 C1514 1.370 . S
C1515 C1516 1.403 . S
C1516 C1515 1.403 . S
C1516 C1517 1.404 . S
C1516 C1519 1.539 . S
C1517 C1513 1.408 . S
C1517 C1516 1.404 . S
C1517 H1529 0.930 . S
C1518 C1514 1.524 . S
C1518 H1530 0.956 . S
C1518 H1531 0.961 . S
C1518 H1532 0.961 . S
C1519 C1516 1.539 . S
C1519 H1533 0.958 . S
C1519 H1534 0.961 . S
C1519 H1535 0.960 . S
H1520 C1504 0.931 . S
H1521 C1509 0.929 . S
H1522 C1510 0.960 . S
H1523 C1510 0.962 . S
H1524 C1510 0.960 . S
H1525 C1511 0.961 . S
H1526 C1511 0.961 . S
H1527 C1511 0.961 . S
H1528 C1512 0.931 . S
H1529 C1517 0.930 . S
H1530 C1518 0.956 . S
H1531 C1518 0.961 . S
H1532 C1518 0.961 . S
H1533 C1519 0.958 . S
H1534 C1519 0.961 . S
H1535 C1519 0.960 . S
C1536 C1537 1.391 . S
C1536 C1538 1.394 . S
C1536 H1552 0.931 . S
C1537 C1536 1.391 . S
C1537 C1541 1.376 . S
C1538 C1536 1.394 . S
C1538 C1539 1.369 . S
C1538 C1542 1.531 . S
C1539 C1538 1.369 . S
C1539 C1540 1.410 . S
C1539 C1547 1.503 . S
C1540 C1539 1.410 . S
C1540 C1541 1.392 . S
C1540 C1543 1.511 . S
C1541 C1537 1.376 . S
C1541 C1540 1.392 . S
C1541 H1553 0.929 . S
C1542 C1538 1.531 . S
C1542 H1554 0.960 . S
C1542 H1555 0.962 . S
C1542 H1556 0.960 . S
C1543 C1540 1.511 . S
C1543 H1557 0.961 . S
C1543 H1558 0.961 . S
C1543 H1559 0.961 . S
C1544 C1545 1.370 . S
C1544 C1546 1.363 . S
C1544 H1560 0.931 . S
C1545 C1544 1.370 . S
C1545 C1549 1.408 . S
C1546 C1544 1.363 . S
C1546 C1547 1.370 . S
C1546 C1550 1.524 . S
C1547 C1539 1.503 . S
C1547 C1546 1.370 . S
C1547 C1548 1.403 . S
C1548 C1547 1.403 . S
C1548 C1549 1.404 . S
C1548 C1551 1.539 . S
C1549 C1545 1.408 . S
C1549 C1548 1.404 . S
C1549 H1561 0.930 . S
C1550 C1546 1.524 . S
C1550 H1562 0.956 . S
C1550 H1563 0.961 . S
C1550 H1564 0.961 . S
C1551 C1548 1.539 . S
C1551 H1565 0.958 . S
C1551 H1566 0.961 . S
C1551 H1567 0.960 . S
H1552 C1536 0.931 . S
H1553 C1541 0.929 . S
H1554 C1542 0.960 . S
H1555 C1542 0.962 . S
H1556 C1542 0.960 . S
H1557 C1543 0.961 . S
H1558 C1543 0.961 . S
H1559 C1543 0.961 . S
H1560 C1544 0.931 . S
H1561 C1549 0.930 . S
H1562 C1550 0.956 . S
H1563 C1550 0.961 . S
H1564 C1550 0.961 . S
H1565 C1551 0.958 . S
H1566 C1551 0.961 . S
H1567 C1551 0.960 . S
C1568 C1569 1.391 . S
C1568 C1570 1.394 . S
C1568 H1584 0.931 . S
C1569 C1568 1.391 . S
C1569 C1573 1.376 . S
C1570 C1568 1.394 . S
C1570 C1571 1.369 . S
C1570 C1574 1.531 . S
C1571 C1570 1.369 . S
C1571 C1572 1.410 . S
C1571 C1579 1.503 . S
C1572 C1571 1.410 . S
C1572 C1573 1.392 . S
C1572 C1575 1.511 . S
C1573 C1569 1.376 . S
C1573 C1572 1.392 . S
C1573 H1585 0.929 . S
C1574 C1570 1.531 . S
C1574 H1586 0.960 . S
C1574 H1587 0.962 . S
C1574 H1588 0.960 . S
C1575 C1572 1.511 . S
C1575 H1589 0.961 . S
C1575 H1590 0.961 . S
C1575 H1591 0.961 . S
C1576 C1577 1.370 . S
C1576 C1578 1.363 . S
C1576 H1592 0.931 . S
C1577 C1576 1.370 . S
C1577 C1581 1.408 . S
C1578 C1576 1.363 . S
C1578 C1579 1.370 . S
C1578 C1582 1.524 . S
C1579 C1571 1.503 . S
C1579 C1578 1.370 . S
C1579 C1580 1.403 . S
C1580 C1579 1.403 . S
C1580 C1581 1.404 . S
C1580 C1583 1.539 . S
C1581 C1577 1.408 . S
C1581 C1580 1.404 . S
C1581 H1593 0.930 . S
C1582 C1578 1.524 . S
C1582 H1594 0.956 . S
C1582 H1595 0.961 . S
C1582 H1596 0.961 . S
C1583 C1580 1.539 . S
C1583 H1597 0.958 . S
C1583 H1598 0.961 . S
C1583 H1599 0.960 . S
H1584 C1568 0.931 . S
H1585 C1573 0.929 . S
H1586 C1574 0.960 . S
H1587 C1574 0.962 . S
H1588 C1574 0.960 . S
H1589 C1575 0.961 . S
H1590 C1575 0.961 . S
H1591 C1575 0.961 . S
H1592 C1576 0.931 . S
H1593 C1581 0.930 . S
H1594 C1582 0.956 . S
H1595 C1582 0.961 . S
H1596 C1582 0.961 . S
H1597 C1583 0.958 . S
H1598 C1583 0.961 . S
H1599 C1583 0.960 . S
C1600 C1601 1.391 . S
C1600 C1602 1.394 . S
C1600 H1616 0.931 . S
C1601 C1600 1.391 . S
C1601 C1605 1.376 . S
C1602 C1600 1.394 . S
C1602 C1603 1.369 . S
C1602 C1606 1.531 . S
C1603 C1602 1.369 . S
C1603 C1604 1.410 . S
C1603 C1611 1.503 . S
C1604 C1603 1.410 . S
C1604 C1605 1.392 . S
C1604 C1607 1.511 . S
C1605 C1601 1.376 . S
C1605 C1604 1.392 . S
C1605 H1617 0.929 . S
C1606 C1602 1.531 . S
C1606 H1618 0.960 . S
C1606 H1619 0.962 . S
C1606 H1620 0.960 . S
C1607 C1604 1.511 . S
C1607 H1621 0.961 . S
C1607 H1622 0.961 . S
C1607 H1623 0.961 . S
C1608 C1609 1.370 . S
C1608 C1610 1.363 . S
C1608 H1624 0.931 . S
C1609 C1608 1.370 . S
C1609 C1613 1.408 . S
C1610 C1608 1.363 . S
C1610 C1611 1.370 . S
C1610 C1614 1.524 . S
C1611 C1603 1.503 . S
C1611 C1610 1.370 . S
C1611 C1612 1.403 . S
C1612 C1611 1.403 . S
C1612 C1613 1.404 . S
C1612 C1615 1.539 . S
C1613 C1609 1.408 . S
C1613 C1612 1.404 . S
C1613 H1625 0.930 . S
C1614 C1610 1.524 . S
C1614 H1626 0.956 . S
C1614 H1627 0.961 . S
C1614 H1628 0.961 . S
C1615 C1612 1.539 . S
C1615 H1629 0.958 . S
C1615 H1630 0.961 . S
C1615 H1631 0.960 . S
H1616 C1600 0.931 . S
H1617 C1605 0.929 . S
H1618 C1606 0.960 . S
H1619 C1606 0.962 . S
H1620 C1606 0.960 . S
H1621 C1607 0.961 . S
H1622 C1607 0.961 . S
H1623 C1607 0.961 . S
H1624 C1608 0.931 . S
H1625 C1613 0.930 . S
H1626 C1614 0.956 . S
H1627 C1614 0.961 . S
H1628 C1614 0.961 . S
H1629 C1615 0.958 . S
H1630 C1615 0.961 . S
H1631 C1615 0.960 . S
C1632 C1633 1.391 . S
C1632 C1634 1.394 . S
C1632 H1648 0.931 . S
C1633 C1632 1.391 . S
C1633 C1637 1.376 . S
C1634 C1632 1.394 . S
C1634 C1635 1.369 . S
C1634 C1638 1.531 . S
C1635 C1634 1.369 . S
C1635 C1636 1.410 . S
C1635 C1643 1.503 . S
C1636 C1635 1.410 . S
C1636 C1637 1.392 . S
C1636 C1639 1.511 . S
C1637 C1633 1.376 . S
C1637 C1636 1.392 . S
C1637 H1649 0.929 . S
C1638 C1634 1.531 . S
C1638 H1650 0.960 . S
C1638 H1651 0.962 . S
C1638 H1652 0.960 . S
C1639 C1636 1.511 . S
C1639 H1653 0.961 . S
C1639 H1654 0.961 . S
C1639 H1655 0.961 . S
C1640 C1641 1.370 . S
C1640 C1642 1.363 . S
C1640 H1656 0.931 . S
C1641 C1640 1.370 . S
C1641 C1645 1.408 . S
C1642 C1640 1.363 . S
C1642 C1643 1.370 . S
C1642 C1646 1.524 . S
C1643 C1635 1.503 . S
C1643 C1642 1.370 . S
C1643 C1644 1.403 . S
C1644 C1643 1.403 . S
C1644 C1645 1.404 . S
C1644 C1647 1.539 . S
C1645 C1641 1.408 . S
C1645 C1644 1.404 . S
C1645 H1657 0.930 . S
C1646 C1642 1.524 . S
C1646 H1658 0.956 . S
C1646 H1659 0.961 . S
C1646 H1660 0.961 . S
C1647 C1644 1.539 . S
C1647 H1661 0.958 . S
C1647 H1662 0.961 . S
C1647 H1663 0.960 . S
H1648 C1632 0.931 . S
H1649 C1637 0.929 . S
H1650 C1638 0.960 . S
H1651 C1638 0.962 . S
H1652 C1638 0.960 . S
H1653 C1639 0.961 . S
H1654 C1639 0.961 . S
H1655 C1639 0.961 . S
H1656 C1640 0.931 . S
H1657 C1645 0.930 . S
H1658 C1646 0.956 . S
H1659 C1646 0.961 . S
H1660 C1646 0.961 . S
H1661 C1647 0.958 . S
H1662 C1647 0.961 . S
H1663 C1647 0.960 . S
C1664 C1665 1.391 . S
C1664 C1666 1.394 . S
C1664 H1680 0.931 . S
C1665 C1664 1.391 . S
C1665 C1669 1.376 . S
C1666 C1664 1.394 . S
C1666 C1667 1.369 . S
C1666 C1670 1.531 . S
C1667 C1666 1.369 . S
C1667 C1668 1.410 . S
C1667 C1675 1.503 . S
C1668 C1667 1.410 . S
C1668 C1669 1.392 . S
C1668 C1671 1.511 . S
C1669 C1665 1.376 . S
C1669 C1668 1.392 . S
C1669 H1681 0.929 . S
C1670 C1666 1.531 . S
C1670 H1682 0.960 . S
C1670 H1683 0.962 . S
C1670 H1684 0.960 . S
C1671 C1668 1.511 . S
C1671 H1685 0.961 . S
C1671 H1686 0.961 . S
C1671 H1687 0.961 . S
C1672 C1673 1.370 . S
C1672 C1674 1.363 . S
C1672 H1688 0.931 . S
C1673 C1672 1.370 . S
C1673 C1677 1.408 . S
C1674 C1672 1.363 . S
C1674 C1675 1.370 . S
C1674 C1678 1.524 . S
C1675 C1667 1.503 . S
C1675 C1674 1.370 . S
C1675 C1676 1.403 . S
C1676 C1675 1.403 . S
C1676 C1677 1.404 . S
C1676 C1679 1.539 . S
C1677 C1673 1.408 . S
C1677 C1676 1.404 . S
C1677 H1689 0.930 . S
C1678 C1674 1.524 . S
C1678 H1690 0.956 . S
C1678 H1691 0.961 . S
C1678 H1692 0.961 . S
C1679 C1676 1.539 . S
C1679 H1693 0.958 . S
C1679 H1694 0.961 . S
C1679 H1695 0.960 . S
H1680 C1664 0.931 . S
H1681 C1669 0.929 . S
H1682 C1670 0.960 . S
H1683 C1670 0.962 . S
H1684 C1670 0.960 . S
H1685 C1671 0.961 . S
H1686 C1671 0.961 . S
H1687 C1671 0.961 . S
H1688 C1672 0.931 . S
H1689 C1677 0.930 . S
H1690 C1678 0.956 . S
H1691 C1678 0.961 . S
H1692 C1678 0.961 . S
H1693 C1679 0.958 . S
H1694 C1679 0.961 . S
H1695 C1679 0.960 . S
C1696 C1697 1.391 . S
C1696 C1698 1.394 . S
C1696 H1712 0.931 . S
C1697 C1696 1.391 . S
C1697 C1701 1.376 . S
C1698 C1696 1.394 . S
C1698 C1699 1.369 . S
C1698 C1702 1.531 . S
C1699 C1698 1.369 . S
C1699 C1700 1.410 . S
C1699 C1707 1.503 . S
C1700 C1699 1.410 . S
C1700 C1701 1.392 . S
C1700 C1703 1.511 . S
C1701 C1697 1.376 . S
C1701 C1700 1.392 . S
C1701 H1713 0.929 . S
C1702 C1698 1.531 . S
C1702 H1714 0.960 . S
C1702 H1715 0.962 . S
C1702 H1716 0.960 . S
C1703 C1700 1.511 . S
C1703 H1717 0.961 . S
C1703 H1718 0.961 . S
C1703 H1719 0.961 . S
C1704 C1705 1.370 . S
C1704 C1706 1.363 . S
C1704 H1720 0.931 . S
C1705 C1704 1.370 . S
C1705 C1709 1.408 . S
C1706 C1704 1.363 . S
C1706 C1707 1.370 . S
C1706 C1710 1.524 . S
C1707 C1699 1.503 . S
C1707 C1706 1.370 . S
C1707 C1708 1.403 . S
C1708 C1707 1.403 . S
C1708 C1709 1.404 . S
C1708 C1711 1.539 . S
C1709 C1705 1.408 . S
C1709 C1708 1.404 . S
C1709 H1721 0.930 . S
C1710 C1706 1.524 . S
C1710 H1722 0.956 . S
C1710 H1723 0.961 . S
C1710 H1724 0.961 . S
C1711 C1708 1.539 . S
C1711 H1725 0.958 . S
C1711 H1726 0.961 . S
C1711 H1727 0.960 . S
H1712 C1696 0.931 . S
H1713 C1701 0.929 . S
H1714 C1702 0.960 . S
H1715 C1702 0.962 . S
H1716 C1702 0.960 . S
H1717 C1703 0.961 . S
H1718 C1703 0.961 . S
H1719 C1703 0.961 . S
H1720 C1704 0.931 . S
H1721 C1709 0.930 . S
H1722 C1710 0.956 . S
H1723 C1710 0.961 . S
H1724 C1710 0.961 . S
H1725 C1711 0.958 . S
H1726 C1711 0.961 . S
H1727 C1711 0.960 . S
C1728 C1729 1.391 . S
C1728 C1730 1.394 . S
C1728 H1744 0.931 . S
C1729 C1728 1.391 . S
C1729 C1733 1.376 . S
C1730 C1728 1.394 . S
C1730 C1731 1.369 . S
C1730 C1734 1.531 . S
C1731 C1730 1.369 . S
C1731 C1732 1.410 . S
C1731 C1739 1.503 . S
C1732 C1731 1.410 . S
C1732 C1733 1.392 . S
C1732 C1735 1.511 . S
C1733 C1729 1.376 . S
C1733 C1732 1.392 . S
C1733 H1745 0.929 . S
C1734 C1730 1.531 . S
C1734 H1746 0.960 . S
C1734 H1747 0.962 . S
C1734 H1748 0.960 . S
C1735 C1732 1.511 . S
C1735 H1749 0.961 . S
C1735 H1750 0.961 . S
C1735 H1751 0.961 . S
C1736 C1737 1.370 . S
C1736 C1738 1.363 . S
C1736 H1752 0.931 . S
C1737 C1736 1.370 . S
C1737 C1741 1.408 . S
C1738 C1736 1.363 . S
C1738 C1739 1.370 . S
C1738 C1742 1.524 . S
C1739 C1731 1.503 . S
C1739 C1738 1.370 . S
C1739 C1740 1.403 . S
C1740 C1739 1.403 . S
C1740 C1741 1.404 . S
C1740 C1743 1.539 . S
C1741 C1737 1.408 . S
C1741 C1740 1.404 . S
C1741 H1753 0.930 . S
C1742 C1738 1.524 . S
C1742 H1754 0.956 . S
C1742 H1755 0.961 . S
C1742 H1756 0.961 . S
C1743 C1740 1.539 . S
C1743 H1757 0.958 . S
C1743 H1758 0.961 . S
C1743 H1759 0.960 . S
H1744 C1728 0.931 . S
H1745 C1733 0.929 . S
H1746 C1734 0.960 . S
H1747 C1734 0.962 . S
H1748 C1734 0.960 . S
H1749 C1735 0.961 . S
H1750 C1735 0.961 . S
H1751 C1735 0.961 . S
H1752 C1736 0.931 . S
H1753 C1741 0.930 . S
H1754 C1742 0.956 . S
H1755 C1742 0.961 . S
H1756 C1742 0.961 . S
H1757 C1743 0.958 . S
H1758 C1743 0.961 . S
H1759 C1743 0.960 . S
C1760 C1761 1.391 . S
C1760 C1762 1.394 . S
C1760 H1776 0.931 . S
C1761 C1760 1.391 . S
C1761 C1765 1.376 . S
C1762 C1760 1.394 . S
C1762 C1763 1.369 . S
C1762 C1766 1.531 . S
C1763 C1762 1.369 . S
C1763 C1764 1.410 . S
C1763 C1771 1.503 . S
C1764 C1763 1.410 . S
C1764 C1765 1.392 . S
C1764 C1767 1.511 . S
C1765 C1761 1.376 . S
C1765 C1764 1.392 . S
C1765 H1777 0.929 1_565 S
C1766 C1762 1.531 . S
C1766 H1778 0.960 . S
C1766 H1779 0.962 . S
C1766 H1780 0.960 . S
C1767 C1764 1.511 . S
C1767 H1781 0.953 1_565 S
C1767 H1782 0.961 . S
C1767 H1783 0.961 . S
C1768 C1769 1.370 . S
C1768 C1770 1.363 . S
C1768 H1784 0.931 . S
C1769 C1768 1.370 . S
C1769 C1773 1.408 . S
C1770 C1768 1.363 . S
C1770 C1771 1.370 . S
C1770 C1774 1.524 . S
C1771 C1763 1.503 . S
C1771 C1770 1.370 . S
C1771 C1772 1.403 . S
C1772 C1771 1.403 . S
C1772 C1773 1.404 . S
C1772 C1775 1.539 . S
C1773 C1769 1.408 . S
C1773 C1772 1.404 . S
C1773 H1785 0.930 . S
C1774 C1770 1.524 . S
C1774 H1786 0.956 . S
C1774 H1787 0.961 . S
C1774 H1788 0.961 . S
C1775 C1772 1.539 . S
C1775 H1789 0.958 . S
C1775 H1790 0.961 . S
C1775 H1791 0.960 . S
H1776 C1760 0.931 . S
H1777 C1765 0.929 1_545 S
H1778 C1766 0.960 . S
H1779 C1766 0.962 . S
H1780 C1766 0.960 . S
H1781 C1767 0.953 1_545 S
H1782 C1767 0.961 . S
H1783 C1767 0.961 . S
H1784 C1768 0.931 . S
H1785 C1773 0.930 . S
H1786 C1774 0.956 . S
H1787 C1774 0.961 . S
H1788 C1774 0.961 . S
H1789 C1775 0.958 . S
H1790 C1775 0.961 . S
H1791 C1775 0.960 . S
C1792 C1793 1.391 . S
C1792 C1794 1.394 . S
C1792 H1808 0.931 . S
C1793 C1792 1.391 . S
C1793 C1797 1.376 . S
C1794 C1792 1.394 . S
C1794 C1795 1.369 . S
C1794 C1798 1.531 . S
C1795 C1794 1.369 . S
C1795 C1796 1.410 . S
C1795 C1803 1.503 . S
C1796 C1795 1.410 . S
C1796 C1797 1.392 . S
C1796 C1799 1.511 . S
C1797 C1793 1.376 . S
C1797 C1796 1.392 . S
C1797 H1809 0.929 . S
C1798 C1794 1.531 . S
C1798 H1810 0.960 . S
C1798 H1811 0.962 . S
C1798 H1812 0.960 . S
C1799 C1796 1.511 . S
C1799 H1813 0.961 . S
C1799 H1814 0.961 . S
C1799 H1815 0.961 . S
C1800 C1801 1.370 . S
C1800 C1802 1.363 . S
C1800 H1816 0.931 . S
C1801 C1800 1.370 . S
C1801 C1805 1.408 . S
C1802 C1800 1.363 . S
C1802 C1803 1.370 . S
C1802 C1806 1.524 . S
C1803 C1795 1.503 . S
C1803 C1802 1.370 . S
C1803 C1804 1.403 . S
C1804 C1803 1.403 . S
C1804 C1805 1.404 . S
C1804 C1807 1.539 . S
C1805 C1801 1.408 . S
C1805 C1804 1.404 . S
C1805 H1817 0.930 . S
C1806 C1802 1.524 . S
C1806 H1818 0.956 . S
C1806 H1819 0.961 . S
C1806 H1820 0.961 . S
C1807 C1804 1.539 . S
C1807 H1821 0.958 . S
C1807 H1822 0.961 . S
C1807 H1823 0.960 . S
H1808 C1792 0.931 . S
H1809 C1797 0.929 . S
H1810 C1798 0.960 . S
H1811 C1798 0.962 . S
H1812 C1798 0.960 . S
H1813 C1799 0.961 . S
H1814 C1799 0.961 . S
H1815 C1799 0.961 . S
H1816 C1800 0.931 . S
H1817 C1805 0.930 . S
H1818 C1806 0.956 . S
H1819 C1806 0.961 . S
H1820 C1806 0.961 . S
H1821 C1807 0.958 . S
H1822 C1807 0.961 . S
H1823 C1807 0.960 . S
C1824 C1825 1.391 . S
C1824 C1826 1.394 . S
C1824 H1840 0.931 . S
C1825 C1824 1.391 . S
C1825 C1829 1.376 . S
C1826 C1824 1.394 . S
C1826 C1827 1.369 . S
C1826 C1830 1.531 . S
C1827 C1826 1.369 . S
C1827 C1828 1.410 . S
C1827 C1835 1.503 . S
C1828 C1827 1.410 . S
C1828 C1829 1.392 . S
C1828 C1831 1.511 . S
C1829 C1825 1.376 . S
C1829 C1828 1.392 . S
C1829 H1841 0.929 . S
C1830 C1826 1.531 . S
C1830 H1842 0.960 . S
C1830 H1843 0.962 . S
C1830 H1844 0.960 . S
C1831 C1828 1.511 . S
C1831 H1845 0.961 . S
C1831 H1846 0.961 . S
C1831 H1847 0.961 . S
C1832 C1833 1.370 . S
C1832 C1834 1.363 . S
C1832 H1848 0.931 . S
C1833 C1832 1.370 . S
C1833 C1837 1.408 . S
C1834 C1832 1.363 . S
C1834 C1835 1.370 . S
C1834 C1838 1.524 . S
C1835 C1827 1.503 . S
C1835 C1834 1.370 . S
C1835 C1836 1.403 . S
C1836 C1835 1.403 . S
C1836 C1837 1.404 . S
C1836 C1839 1.539 . S
C1837 C1833 1.408 . S
C1837 C1836 1.404 . S
C1837 H1849 0.930 . S
C1838 C1834 1.524 . S
C1838 H1850 0.956 . S
C1838 H1851 0.961 . S
C1838 H1852 0.961 . S
C1839 C1836 1.539 . S
C1839 H1853 0.958 . S
C1839 H1854 0.961 . S
C1839 H1855 0.960 . S
H1840 C1824 0.931 . S
H1841 C1829 0.929 . S
H1842 C1830 0.960 . S
H1843 C1830 0.962 . S
H1844 C1830 0.960 . S
H1845 C1831 0.961 . S
H1846 C1831 0.961 . S
H1847 C1831 0.961 . S
H1848 C1832 0.931 . S
H1849 C1837 0.930 . S
H1850 C1838 0.956 . S
H1851 C1838 0.961 . S
H1852 C1838 0.961 . S
H1853 C1839 0.958 . S
H1854 C1839 0.961 . S
H1855 C1839 0.960 . S
C1856 C1857 1.391 . S
C1856 C1858 1.394 . S
C1856 H1872 0.931 . S
C1857 C1856 1.391 . S
C1857 C1861 1.376 . S
C1858 C1856 1.394 . S
C1858 C1859 1.369 . S
C1858 C1862 1.531 . S
C1859 C1858 1.369 . S
C1859 C1860 1.410 . S
C1859 C1867 1.503 . S
C1860 C1859 1.410 . S
C1860 C1861 1.392 . S
C1860 C1863 1.511 . S
C1861 C1857 1.376 . S
C1861 C1860 1.392 . S
C1861 H1873 0.929 . S
C1862 C1858 1.531 . S
C1862 H1874 0.960 . S
C1862 H1875 0.962 . S
C1862 H1876 0.960 . S
C1863 C1860 1.511 . S
C1863 H1877 0.961 . S
C1863 H1878 0.961 . S
C1863 H1879 0.961 . S
C1864 C1865 1.370 . S
C1864 C1866 1.363 . S
C1864 H1880 0.931 . S
C1865 C1864 1.370 . S
C1865 C1869 1.408 . S
C1866 C1864 1.363 . S
C1866 C1867 1.370 . S
C1866 C1870 1.524 . S
C1867 C1859 1.503 . S
C1867 C1866 1.370 . S
C1867 C1868 1.403 . S
C1868 C1867 1.403 . S
C1868 C1869 1.404 . S
C1868 C1871 1.539 . S
C1869 C1865 1.408 . S
C1869 C1868 1.404 . S
C1869 H1881 0.930 . S
C1870 C1866 1.524 . S
C1870 H1882 0.956 . S
C1870 H1883 0.961 . S
C1870 H1884 0.961 . S
C1871 C1868 1.539 . S
C1871 H1885 0.958 . S
C1871 H1886 0.961 . S
C1871 H1887 0.960 . S
H1872 C1856 0.931 . S
H1873 C1861 0.929 . S
H1874 C1862 0.960 . S
H1875 C1862 0.962 . S
H1876 C1862 0.960 . S
H1877 C1863 0.961 . S
H1878 C1863 0.961 . S
H1879 C1863 0.961 . S
H1880 C1864 0.931 . S
H1881 C1869 0.930 . S
H1882 C1870 0.956 . S
H1883 C1870 0.961 . S
H1884 C1870 0.961 . S
H1885 C1871 0.958 . S
H1886 C1871 0.961 . S
H1887 C1871 0.960 . S
C1888 C1889 1.391 . S
C1888 C1890 1.394 . S
C1888 H1904 0.931 . S
C1889 C1888 1.391 . S
C1889 C1893 1.376 . S
C1890 C1888 1.394 . S
C1890 C1891 1.369 . S
C1890 C1894 1.531 . S
C1891 C1890 1.369 . S
C1891 C1892 1.410 . S
C1891 C1899 1.503 . S
C1892 C1891 1.410 . S
C1892 C1893 1.392 . S
C1892 C1895 1.511 . S
C1893 C1889 1.376 . S
C1893 C1892 1.392 . S
C1893 H1905 0.929 . S
C1894 C1890 1.531 . S
C1894 H1906 0.960 . S
C1894 H1907 0.962 . S
C1894 H1908 0.960 . S
C1895 C1892 1.511 . S
C1895 H1909 0.961 . S
C1895 H1910 0.961 . S
C1895 H1911 0.961 . S
C1896 C1897 1.370 . S
C1896 C1898 1.363 . S
C1896 H1912 0.931 . S
C1897 C1896 1.370 . S
C1897 C1901 1.408 . S
C1898 C1896 1.363 . S
C1898 C1899 1.370 . S
C1898 C1902 1.524 . S
C1899 C1891 1.503 . S
C1899 C1898 1.370 . S
C1899 C1900 1.403 . S
C1900 C1899 1.403 . S
C1900 C1901 1.404 . S
C1900 C1903 1.539 . S
C1901 C1897 1.408 . S
C1901 C1900 1.404 . S
C1901 H1913 0.930 . S
C1902 C1898 1.524 . S
C1902 H1914 0.956 . S
C1902 H1915 0.961 . S
C1902 H1916 0.961 . S
C1903 C1900 1.539 . S
C1903 H1917 0.958 . S
C1903 H1918 0.961 . S
C1903 H1919 0.960 . S
H1904 C1888 0.931 . S
H1905 C1893 0.929 . S
H1906 C1894 0.960 . S
H1907 C1894 0.962 . S
H1908 C1894 0.960 . S
H1909 C1895 0.961 . S
H1910 C1895 0.961 . S
H1911 C1895 0.961 . S
H1912 C1896 0.931 . S
H1913 C1901 0.930 . S
H1914 C1902 0.956 . S
H1915 C1902 0.961 . S
H1916 C1902 0.961 . S
H1917 C1903 0.958 . S
H1918 C1903 0.961 . S
H1919 C1903 0.960 . S
C1920 C1921 1.391 . S
C1920 C1922 1.394 . S
C1920 H1936 0.931 . S
C1921 C1920 1.391 . S
C1921 C1925 1.376 . S
C1922 C1920 1.394 . S
C1922 C1923 1.369 . S
C1922 C1926 1.531 . S
C1923 C1922 1.369 . S
C1923 C1924 1.410 . S
C1923 C1931 1.503 . S
C1924 C1923 1.410 . S
C1924 C1925 1.392 . S
C1924 C1927 1.511 . S
C1925 C1921 1.376 . S
C1925 C1924 1.392 . S
C1925 H1937 0.929 . S
C1926 C1922 1.531 . S
C1926 H1938 0.960 . S
C1926 H1939 0.962 . S
C1926 H1940 0.960 . S
C1927 C1924 1.511 . S
C1927 H1941 0.961 . S
C1927 H1942 0.961 . S
C1927 H1943 0.961 . S
C1928 C1929 1.370 . S
C1928 C1930 1.363 . S
C1928 H1944 0.931 . S
C1929 C1928 1.370 . S
C1929 C1933 1.408 . S
C1930 C1928 1.363 . S
C1930 C1931 1.370 . S
C1930 C1934 1.524 . S
C1931 C1923 1.503 . S
C1931 C1930 1.370 . S
C1931 C1932 1.403 . S
C1932 C1931 1.403 . S
C1932 C1933 1.404 . S
C1932 C1935 1.539 . S
C1933 C1929 1.408 . S
C1933 C1932 1.404 . S
C1933 H1945 0.930 . S
C1934 C1930 1.524 . S
C1934 H1946 0.956 . S
C1934 H1947 0.961 . S
C1934 H1948 0.961 . S
C1935 C1932 1.539 . S
C1935 H1949 0.958 . S
C1935 H1950 0.961 . S
C1935 H1951 0.960 . S
H1936 C1920 0.931 . S
H1937 C1925 0.929 . S
H1938 C1926 0.960 . S
H1939 C1926 0.962 . S
H1940 C1926 0.960 . S
H1941 C1927 0.961 . S
H1942 C1927 0.961 . S
H1943 C1927 0.961 . S
H1944 C1928 0.931 . S
H1945 C1933 0.930 . S
H1946 C1934 0.956 . S
H1947 C1934 0.961 . S
H1948 C1934 0.961 . S
H1949 C1935 0.958 . S
H1950 C1935 0.961 . S
H1951 C1935 0.960 . S
C1952 C1953 1.391 . S
C1952 C1954 1.394 . S
C1952 H1968 0.931 . S
C1953 C1952 1.391 . S
C1953 C1957 1.376 . S
C1954 C1952 1.394 . S
C1954 C1955 1.369 . S
C1954 C1958 1.531 . S
C1955 C1954 1.369 . S
C1955 C1956 1.410 . S
C1955 C1963 1.503 . S
C1956 C1955 1.410 . S
C1956 C1957 1.392 . S
C1956 C1959 1.511 . S
C1957 C1953 1.376 . S
C1957 C1956 1.392 . S
C1957 H1969 0.929 . S
C1958 C1954 1.531 . S
C1958 H1970 0.960 . S
C1958 H1971 0.962 . S
C1958 H1972 0.960 . S
C1959 C1956 1.511 . S
C1959 H1973 0.961 . S
C1959 H1974 0.961 . S
C1959 H1975 0.961 . S
C1960 C1961 1.370 . S
C1960 C1962 1.363 . S
C1960 H1976 0.931 . S
C1961 C1960 1.370 . S
C1961 C1965 1.408 . S
C1962 C1960 1.363 . S
C1962 C1963 1.370 . S
C1962 C1966 1.524 . S
C1963 C1955 1.503 . S
C1963 C1962 1.370 . S
C1963 C1964 1.403 . S
C1964 C1963 1.403 . S
C1964 C1965 1.404 . S
C1964 C1967 1.539 . S
C1965 C1961 1.408 . S
C1965 C1964 1.404 . S
C1965 H1977 0.930 . S
C1966 C1962 1.524 . S
C1966 H1978 0.956 . S
C1966 H1979 0.961 . S
C1966 H1980 0.961 . S
C1967 C1964 1.539 . S
C1967 H1981 0.958 . S
C1967 H1982 0.961 . S
C1967 H1983 0.960 . S
H1968 C1952 0.931 . S
H1969 C1957 0.929 . S
H1970 C1958 0.960 . S
H1971 C1958 0.962 . S
H1972 C1958 0.960 . S
H1973 C1959 0.961 . S
H1974 C1959 0.961 . S
H1975 C1959 0.961 . S
H1976 C1960 0.931 . S
H1977 C1965 0.930 . S
H1978 C1966 0.956 . S
H1979 C1966 0.961 . S
H1980 C1966 0.961 . S
H1981 C1967 0.958 . S
H1982 C1967 0.961 . S
H1983 C1967 0.960 . S
C1984 C1985 1.391 . S
C1984 C1986 1.394 . S
C1984 H2000 0.931 . S
C1985 C1984 1.391 . S
C1985 C1989 1.376 . S
C1986 C1984 1.394 . S
C1986 C1987 1.369 . S
C1986 C1990 1.531 . S
C1987 C1986 1.369 . S
C1987 C1988 1.410 . S
C1987 C1995 1.503 . S
C1988 C1987 1.410 . S
C1988 C1989 1.392 . S
C1988 C1991 1.511 . S
C1989 C1985 1.376 . S
C1989 C1988 1.392 . S
C1989 H2001 0.929 . S
C1990 C1986 1.531 . S
C1990 H2002 0.960 . S
C1990 H2003 0.962 . S
C1990 H2004 0.960 . S
C1991 C1988 1.511 . S
C1991 H2005 0.961 . S
C1991 H2006 0.961 . S
C1991 H2007 0.961 . S
C1992 C1993 1.370 . S
C1992 C1994 1.363 . S
C1992 H2008 0.931 . S
C1993 C1992 1.370 . S
C1993 C1997 1.408 . S
C1994 C1992 1.363 . S
C1994 C1995 1.370 . S
C1994 C1998 1.524 . S
C1995 C1987 1.503 . S
C1995 C1994 1.370 . S
C1995 C1996 1.403 . S
C1996 C1995 1.403 . S
C1996 C1997 1.404 . S
C1996 C1999 1.539 . S
C1997 C1993 1.408 . S
C1997 C1996 1.404 . S
C1997 H2009 0.930 . S
C1998 C1994 1.524 . S
C1998 H2010 0.956 . S
C1998 H2011 0.961 . S
C1998 H2012 0.961 . S
C1999 C1996 1.539 . S
C1999 H2013 0.958 . S
C1999 H2014 0.961 . S
C1999 H2015 0.960 . S
H2000 C1984 0.931 . S
H2001 C1989 0.929 . S
H2002 C1990 0.960 . S
H2003 C1990 0.962 . S
H2004 C1990 0.960 . S
H2005 C1991 0.961 . S
H2006 C1991 0.961 . S
H2007 C1991 0.961 . S
H2008 C1992 0.931 . S
H2009 C1997 0.930 . S
H2010 C1998 0.956 . S
H2011 C1998 0.961 . S
H2012 C1998 0.961 . S
H2013 C1999 0.958 . S
H2014 C1999 0.961 . S
H2015 C1999 0.960 . S
C2016 C2017 1.391 . S
C2016 C2018 1.394 . S
C2016 H2032 0.931 . S
C2017 C2016 1.391 . S
C2017 C2021 1.376 . S
C2018 C2016 1.394 . S
C2018 C2019 1.369 . S
C2018 C2022 1.531 . S
C2019 C2018 1.369 . S
C2019 C2020 1.410 . S
C2019 C2027 1.503 . S
C2020 C2019 1.410 . S
C2020 C2021 1.392 . S
C2020 C2023 1.511 . S
C2021 C2017 1.376 . S
C2021 C2020 1.392 . S
C2021 H2033 0.929 . S
C2022 C2018 1.531 . S
C2022 H2034 0.960 . S
C2022 H2035 0.962 . S
C2022 H2036 0.960 . S
C2023 C2020 1.511 . S
C2023 H2037 0.961 . S
C2023 H2038 0.961 . S
C2023 H2039 0.961 . S
C2024 C2025 1.370 . S
C2024 C2026 1.363 . S
C2024 H2040 0.931 . S
C2025 C2024 1.370 . S
C2025 C2029 1.408 . S
C2026 C2024 1.363 . S
C2026 C2027 1.370 . S
C2026 C2030 1.524 . S
C2027 C2019 1.503 . S
C2027 C2026 1.370 . S
C2027 C2028 1.403 . S
C2028 C2027 1.403 . S
C2028 C2029 1.404 . S
C2028 C2031 1.539 . S
C2029 C2025 1.408 . S
C2029 C2028 1.404 . S
C2029 H2041 0.930 . S
C2030 C2026 1.524 . S
C2030 H2042 0.956 . S
C2030 H2043 0.961 . S
C2030 H2044 0.961 . S
C2031 C2028 1.539 . S
C2031 H2045 0.958 . S
C2031 H2046 0.961 . S
C2031 H2047 0.960 . S
H2032 C2016 0.931 . S
H2033 C2021 0.929 . S
H2034 C2022 0.960 . S
H2035 C2022 0.962 . S
H2036 C2022 0.960 . S
H2037 C2023 0.961 . S
H2038 C2023 0.961 . S
H2039 C2023 0.961 . S
H2040 C2024 0.931 . S
H2041 C2029 0.930 . S
H2042 C2030 0.956 . S
H2043 C2030 0.961 . S
H2044 C2030 0.961 . S
H2045 C2031 0.958 . S
H2046 C2031 0.961 . S
H2047 C2031 0.960 . S
C2048 C2049 1.391 . S
C2048 C2050 1.394 . S
C2048 H2064 0.931 . S
C2049 C2048 1.391 . S
C2049 C2053 1.376 . S
C2050 C2048 1.394 . S
C2050 C2051 1.369 . S
C2050 C2054 1.531 . S
C2051 C2050 1.369 . S
C2051 C2052 1.410 . S
C2051 C2059 1.503 . S
C2052 C2051 1.410 . S
C2052 C2053 1.392 . S
C2052 C2055 1.511 . S
C2053 C2049 1.376 . S
C2053 C2052 1.392 . S
C2053 H2065 0.929 . S
C2054 C2050 1.531 . S
C2054 H2066 0.960 . S
C2054 H2067 0.962 . S
C2054 H2068 0.960 . S
C2055 C2052 1.511 . S
C2055 H2069 0.961 . S
C2055 H2070 0.961 . S
C2055 H2071 0.961 . S
C2056 C2057 1.370 . S
C2056 C2058 1.363 . S
C2056 H2072 0.931 . S
C2057 C2056 1.370 . S
C2057 C2061 1.408 . S
C2058 C2056 1.363 . S
C2058 C2059 1.370 . S
C2058 C2062 1.524 . S
C2059 C2051 1.503 . S
C2059 C2058 1.370 . S
C2059 C2060 1.403 . S
C2060 C2059 1.403 . S
C2060 C2061 1.404 . S
C2060 C2063 1.539 . S
C2061 C2057 1.408 . S
C2061 C2060 1.404 . S
C2061 H2073 0.930 . S
C2062 C2058 1.524 . S
C2062 H2074 0.956 . S
C2062 H2075 0.961 . S
C2062 H2076 0.961 . S
C2063 C2060 1.539 . S
C2063 H2077 0.958 . S
C2063 H2078 0.961 . S
C2063 H2079 0.960 . S
H2064 C2048 0.931 . S
H2065 C2053 0.929 . S
H2066 C2054 0.960 . S
H2067 C2054 0.962 . S
H2068 C2054 0.960 . S
H2069 C2055 0.961 . S
H2070 C2055 0.961 . S
H2071 C2055 0.961 . S
H2072 C2056 0.931 . S
H2073 C2061 0.930 . S
H2074 C2062 0.956 . S
H2075 C2062 0.961 . S
H2076 C2062 0.961 . S
H2077 C2063 0.958 . S
H2078 C2063 0.961 . S
H2079 C2063 0.960 . S
C2080 C2081 1.391 . S
C2080 C2082 1.394 . S
C2080 H2096 0.931 . S
C2081 C2080 1.391 . S
C2081 C2085 1.376 . S
C2082 C2080 1.394 . S
C2082 C2083 1.369 . S
C2082 C2086 1.531 . S
C2083 C2082 1.369 . S
C2083 C2084 1.410 . S
C2083 C2091 1.503 . S
C2084 C2083 1.410 . S
C2084 C2085 1.392 . S
C2084 C2087 1.511 . S
C2085 C2081 1.376 . S
C2085 C2084 1.392 . S
C2085 H2097 0.929 . S
C2086 C2082 1.531 . S
C2086 H2098 0.960 . S
C2086 H2099 0.962 . S
C2086 H2100 0.960 . S
C2087 C2084 1.511 . S
C2087 H2101 0.961 . S
C2087 H2102 0.961 . S
C2087 H2103 0.961 . S
C2088 C2089 1.370 . S
C2088 C2090 1.363 . S
C2088 H2104 0.931 . S
C2089 C2088 1.370 . S
C2089 C2093 1.408 . S
C2090 C2088 1.363 . S
C2090 C2091 1.370 . S
C2090 C2094 1.524 . S
C2091 C2083 1.503 . S
C2091 C2090 1.370 . S
C2091 C2092 1.403 . S
C2092 C2091 1.403 . S
C2092 C2093 1.404 . S
C2092 C2095 1.539 . S
C2093 C2089 1.408 . S
C2093 C2092 1.404 . S
C2093 H2105 0.930 . S
C2094 C2090 1.524 . S
C2094 H2106 0.956 . S
C2094 H2107 0.961 . S
C2094 H2108 0.961 . S
C2095 C2092 1.539 . S
C2095 H2109 0.958 . S
C2095 H2110 0.961 . S
C2095 H2111 0.960 . S
H2096 C2080 0.931 . S
H2097 C2085 0.929 . S
H2098 C2086 0.960 . S
H2099 C2086 0.962 . S
H2100 C2086 0.960 . S
H2101 C2087 0.961 . S
H2102 C2087 0.961 . S
H2103 C2087 0.961 . S
H2104 C2088 0.931 . S
H2105 C2093 0.930 . S
H2106 C2094 0.956 . S
H2107 C2094 0.961 . S
H2108 C2094 0.961 . S
H2109 C2095 0.958 . S
H2110 C2095 0.961 . S
H2111 C2095 0.960 . S
C2112 C2113 1.391 . S
C2112 C2114 1.394 . S
C2112 H2128 0.931 . S
C2113 C2112 1.391 . S
C2113 C2117 1.376 . S
C2114 C2112 1.394 . S
C2114 C2115 1.369 . S
C2114 C2118 1.531 . S
C2115 C2114 1.369 . S
C2115 C2116 1.410 . S
C2115 C2123 1.503 . S
C2116 C2115 1.410 . S
C2116 C2117 1.392 . S
C2116 C2119 1.511 . S
C2117 C2113 1.376 . S
C2117 C2116 1.392 . S
C2117 H2129 0.929 . S
C2118 C2114 1.531 . S
C2118 H2130 0.960 . S
C2118 H2131 0.962 . S
C2118 H2132 0.960 . S
C2119 C2116 1.511 . S
C2119 H2133 0.961 . S
C2119 H2134 0.961 . S
C2119 H2135 0.961 . S
C2120 C2121 1.370 . S
C2120 C2122 1.363 . S
C2120 H2136 0.931 . S
C2121 C2120 1.370 . S
C2121 C2125 1.408 . S
C2122 C2120 1.363 . S
C2122 C2123 1.370 . S
C2122 C2126 1.524 . S
C2123 C2115 1.503 . S
C2123 C2122 1.370 . S
C2123 C2124 1.403 . S
C2124 C2123 1.403 . S
C2124 C2125 1.404 . S
C2124 C2127 1.539 . S
C2125 C2121 1.408 . S
C2125 C2124 1.404 . S
C2125 H2137 0.930 . S
C2126 C2122 1.524 . S
C2126 H2138 0.956 . S
C2126 H2139 0.961 . S
C2126 H2140 0.961 . S
C2127 C2124 1.539 . S
C2127 H2141 0.958 . S
C2127 H2142 0.961 . S
C2127 H2143 0.960 . S
H2128 C2112 0.931 . S
H2129 C2117 0.929 . S
H2130 C2118 0.960 . S
H2131 C2118 0.962 . S
H2132 C2118 0.960 . S
H2133 C2119 0.961 . S
H2134 C2119 0.961 . S
H2135 C2119 0.961 . S
H2136 C2120 0.931 . S
H2137 C2125 0.930 . S
H2138 C2126 0.956 . S
H2139 C2126 0.961 . S
H2140 C2126 0.961 . S
H2141 C2127 0.958 . S
H2142 C2127 0.961 . S
H2143 C2127 0.960 . S
C2144 C2145 1.391 . S
C2144 C2146 1.394 . S
C2144 H2160 0.931 . S
C2145 C2144 1.391 . S
C2145 C2149 1.376 . S
C2146 C2144 1.394 . S
C2146 C2147 1.369 . S
C2146 C2150 1.531 . S
C2147 C2146 1.369 . S
C2147 C2148 1.410 . S
C2147 C2155 1.503 . S
C2148 C2147 1.410 . S
C2148 C2149 1.392 . S
C2148 C2151 1.511 . S
C2149 C2145 1.376 . S
C2149 C2148 1.392 . S
C2149 H2161 0.929 . S
C2150 C2146 1.531 . S
C2150 H2162 0.960 . S
C2150 H2163 0.962 . S
C2150 H2164 0.960 . S
C2151 C2148 1.511 . S
C2151 H2165 0.961 . S
C2151 H2166 0.961 . S
C2151 H2167 0.961 . S
C2152 C2153 1.370 . S
C2152 C2154 1.363 . S
C2152 H2168 0.931 . S
C2153 C2152 1.370 . S
C2153 C2157 1.408 . S
C2154 C2152 1.363 . S
C2154 C2155 1.370 . S
C2154 C2158 1.524 . S
C2155 C2147 1.503 . S
C2155 C2154 1.370 . S
C2155 C2156 1.403 . S
C2156 C2155 1.403 . S
C2156 C2157 1.404 . S
C2156 C2159 1.539 . S
C2157 C2153 1.408 . S
C2157 C2156 1.404 . S
C2157 H2169 0.930 . S
C2158 C2154 1.524 . S
C2158 H2170 0.956 . S
C2158 H2171 0.961 . S
C2158 H2172 0.961 . S
C2159 C2156 1.539 . S
C2159 H2173 0.958 . S
C2159 H2174 0.961 . S
C2159 H2175 0.960 . S
H2160 C2144 0.931 . S
H2161 C2149 0.929 . S
H2162 C2150 0.960 . S
H2163 C2150 0.962 . S
H2164 C2150 0.960 . S
H2165 C2151 0.961 . S
H2166 C2151 0.961 . S
H2167 C2151 0.961 . S
H2168 C2152 0.931 . S
H2169 C2157 0.930 . S
H2170 C2158 0.956 . S
H2171 C2158 0.961 . S
H2172 C2158 0.961 . S
H2173 C2159 0.958 . S
H2174 C2159 0.961 . S
H2175 C2159 0.960 . S
C641 C129 3.566 . S
C649 C8 3.595 . S
C673 C19 3.010 . S
C681 C49 3.039 . S
C705 C98 1.016 . S
C713 C58 1.018 . S
C737 C135 0.572 . S
C745 C95 0.554 . S
C769 C179 0.228 . S
C777 C215 0.151 . S
C801 C218 1.114 . S
C809 C248 1.115 . S
C833 C245 0.419 . S
C841 C295 0.504 . S
C865 C165 0.775 . S
C873 C298 0.788 . S
C897 C369 3.282 . S
C905 C5 3.293 . S
C929 C419 0.710 . S
C937 C55 0.686 . S
C961 C89 3.023 . S
C969 C529 2.998 . S
C993 C328 1.079 . S
C1001 C138 1.070 . S
C1025 C458 1.043 . S
C1033 C168 1.043 . S
C1057 C565 3.297 . S
C1065 C209 3.298 . S
C1089 C259 0.665 . S
C1097 C495 0.701 . S
C1121 C609 3.024 . S
C1129 C289 2.999 . S
C1153 C325 0.812 . S
C1161 C538 0.782 . S
C1185 C375 0.166 . S
C1193 C339 0.306 . S
C1217 C408 1.087 . S
C1225 C378 1.059 . S
C1249 C568 3.585 . S
C1257 C449 3.577 . S
C1281 C498 1.013 . S
C1289 C618 1.049 . S
C1313 C459 3.565 . S
C1321 C18 3.596 . S
C1345 C499 3.041 . S
C1353 C9 3.026 . S
C1377 C488 1.049 . S
C1385 C88 1.043 . S
C1409 C85 0.559 . S
C1417 C445 0.564 . S
C1441 C365 0.102 . S
C1449 C169 0.363 . S
C1473 C368 1.108 . S
C1481 C258 1.111 . S
C1505 C525 0.545 . S
C1513 C255 0.429 . S
C1537 C175 0.830 . S
C1545 C528 0.796 . S
C1569 C219 3.300 . S
C1577 C15 3.295 . S
C1601 C409 0.657 . S
C1609 C485 0.696 . S
C1633 C99 3.035 . S
C1641 C299 3.000 . S
C1665 C338 1.042 . S
C1673 C448 1.057 . S
C1697 C128 1.061 . S
C1705 C178 1.036 . S
C1729 C379 3.295 . S
C1737 C575 3.297 . S
C1761 C249 0.773 . S
C1769 C45 0.690 . S
C1793 C619 3.024 . S
C1801 C539 2.989 . S
C1825 C335 0.832 . S
C1833 C288 0.795 . S
C1857 C329 0.290 . S
C1865 C205 0.170 . S
C1889 C418 1.126 . S
C1897 C208 1.096 . S
C1921 C139 3.559 . S
C1929 C578 3.597 . S
C1953 C48 1.041 . S
C1961 C608 1.060 . S
C1985 C489 3.028 . S
C1993 C579 3.022 . S
C2017 C455 0.578 . S
C2025 C615 0.564 . S
C2049 C405 0.399 . S
C2057 C535 0.481 . S
C2081 C569 3.008 . S
C2089 C59 3.038 . S
C2113 C125 0.552 . S
C2121 C605 0.573 . S
C2145 C285 0.545 . S
C2153 C415 0.429 . S
