# Generated by pormake.
# Topology uos, (4)-cn, num edge types: 1
# Building blocks:
#     Node 0, Type 0, BuildingBlock: QUQFOY_clean_sbu_3, # of connection points: 4
#     Node 1, Type 0, BuildingBlock: QUQFOY_clean_sbu_3, # of connection points: 4
#     Node 2, Type 0, BuildingBlock: QUQFOY_clean_sbu_3, # of connection points: 4
#     Node 3, Type 0, BuildingBlock: QUQFOY_clean_sbu_3, # of connection points: 4
#     Node 4, Type 0, BuildingBlock: QUQFOY_clean_sbu_3, # of connection points: 4
#     Node 5, Type 0, BuildingBlock: QUQFOY_clean_sbu_3, # of connection points: 4
#     Node 6, Type 0, BuildingBlock: QUQFOY_clean_sbu_3, # of connection points: 4
#     Node 7, Type 0, BuildingBlock: QUQFOY_clean_sbu_3, # of connection points: 4
#     Node 8, Type 0, BuildingBlock: QUQFOY_clean_sbu_3, # of connection points: 4
#     Node 9, Type 0, BuildingBlock: QUQFOY_clean_sbu_3, # of connection points: 4
#     Node 10, Type 0, BuildingBlock: QUQFOY_clean_sbu_3, # of connection points: 4
#     Node 11, Type 0, BuildingBlock: QUQFOY_clean_sbu_3, # of connection points: 4
#     Node 12, Type 0, BuildingBlock: QUQFOY_clean_sbu_3, # of connection points: 4
#     Node 13, Type 0, BuildingBlock: QUQFOY_clean_sbu_3, # of connection points: 4
#     Node 14, Type 0, BuildingBlock: QUQFOY_clean_sbu_3, # of connection points: 4
#     Node 15, Type 0, BuildingBlock: QUQFOY_clean_sbu_3, # of connection points: 4
#     Node 16, Type 0, BuildingBlock: QUQFOY_clean_sbu_3, # of connection points: 4
#     Node 17, Type 0, BuildingBlock: QUQFOY_clean_sbu_3, # of connection points: 4
#     Node 18, Type 0, BuildingBlock: QUQFOY_clean_sbu_3, # of connection points: 4
#     Node 19, Type 0, BuildingBlock: QUQFOY_clean_sbu_3, # of connection points: 4
#     Node 20, Type 0, BuildingBlock: QUQFOY_clean_sbu_3, # of connection points: 4
#     Node 21, Type 0, BuildingBlock: QUQFOY_clean_sbu_3, # of connection points: 4
#     Node 22, Type 0, BuildingBlock: QUQFOY_clean_sbu_3, # of connection points: 4
#     Node 23, Type 0, BuildingBlock: QUQFOY_clean_sbu_3, # of connection points: 4
#     Node 24, Type 0, BuildingBlock: QUQFOY_clean_sbu_3, # of connection points: 4
#     Node 25, Type 0, BuildingBlock: QUQFOY_clean_sbu_3, # of connection points: 4
#     Node 26, Type 0, BuildingBlock: QUQFOY_clean_sbu_3, # of connection points: 4
#     Node 27, Type 0, BuildingBlock: QUQFOY_clean_sbu_3, # of connection points: 4
#     Node 28, Type 0, BuildingBlock: QUQFOY_clean_sbu_3, # of connection points: 4
#     Node 29, Type 0, BuildingBlock: QUQFOY_clean_sbu_3, # of connection points: 4
#     Node 30, Type 0, BuildingBlock: QUQFOY_clean_sbu_3, # of connection points: 4
#     Node 31, Type 0, BuildingBlock: QUQFOY_clean_sbu_3, # of connection points: 4
#     Edge 32, Type (0, 0), BuildingBlock: CIFDUS_clean_linker_0, # of connection points: 2
#     Edge 33, Type (0, 0), BuildingBlock: CIFDUS_clean_linker_0, # of connection points: 2
#     Edge 34, Type (0, 0), BuildingBlock: CIFDUS_clean_linker_0, # of connection points: 2
#     Edge 35, Type (0, 0), BuildingBlock: CIFDUS_clean_linker_0, # of connection points: 2
#     Edge 36, Type (0, 0), BuildingBlock: CIFDUS_clean_linker_0, # of connection points: 2
#     Edge 37, Type (0, 0), BuildingBlock: CIFDUS_clean_linker_0, # of connection points: 2
#     Edge 38, Type (0, 0), BuildingBlock: CIFDUS_clean_linker_0, # of connection points: 2
#     Edge 39, Type (0, 0), BuildingBlock: CIFDUS_clean_linker_0, # of connection points: 2
#     Edge 40, Type (0, 0), BuildingBlock: CIFDUS_clean_linker_0, # of connection points: 2
#     Edge 41, Type (0, 0), BuildingBlock: CIFDUS_clean_linker_0, # of connection points: 2
#     Edge 42, Type (0, 0), BuildingBlock: CIFDUS_clean_linker_0, # of connection points: 2
#     Edge 43, Type (0, 0), BuildingBlock: CIFDUS_clean_linker_0, # of connection points: 2
#     Edge 44, Type (0, 0), BuildingBlock: CIFDUS_clean_linker_0, # of connection points: 2
#     Edge 45, Type (0, 0), BuildingBlock: CIFDUS_clean_linker_0, # of connection points: 2
#     Edge 46, Type (0, 0), BuildingBlock: CIFDUS_clean_linker_0, # of connection points: 2
#     Edge 47, Type (0, 0), BuildingBlock: CIFDUS_clean_linker_0, # of connection points: 2
#     Edge 48, Type (0, 0), BuildingBlock: CIFDUS_clean_linker_0, # of connection points: 2
#     Edge 49, Type (0, 0), BuildingBlock: CIFDUS_clean_linker_0, # of connection points: 2
#     Edge 50, Type (0, 0), BuildingBlock: CIFDUS_clean_linker_0, # of connection points: 2
#     Edge 51, Type (0, 0), BuildingBlock: CIFDUS_clean_linker_0, # of connection points: 2
#     Edge 52, Type (0, 0), BuildingBlock: CIFDUS_clean_linker_0, # of connection points: 2
#     Edge 53, Type (0, 0), BuildingBlock: CIFDUS_clean_linker_0, # of connection points: 2
#     Edge 54, Type (0, 0), BuildingBlock: CIFDUS_clean_linker_0, # of connection points: 2
#     Edge 55, Type (0, 0), BuildingBlock: CIFDUS_clean_linker_0, # of connection points: 2
#     Edge 56, Type (0, 0), BuildingBlock: CIFDUS_clean_linker_0, # of connection points: 2
#     Edge 57, Type (0, 0), BuildingBlock: CIFDUS_clean_linker_0, # of connection points: 2
#     Edge 58, Type (0, 0), BuildingBlock: CIFDUS_clean_linker_0, # of connection points: 2
#     Edge 59, Type (0, 0), BuildingBlock: CIFDUS_clean_linker_0, # of connection points: 2
#     Edge 60, Type (0, 0), BuildingBlock: CIFDUS_clean_linker_0, # of connection points: 2
#     Edge 61, Type (0, 0), BuildingBlock: CIFDUS_clean_linker_0, # of connection points: 2
#     Edge 62, Type (0, 0), BuildingBlock: CIFDUS_clean_linker_0, # of connection points: 2
#     Edge 63, Type (0, 0), BuildingBlock: CIFDUS_clean_linker_0, # of connection points: 2
#     Edge 64, Type (0, 0), BuildingBlock: CIFDUS_clean_linker_0, # of connection points: 2
#     Edge 65, Type (0, 0), BuildingBlock: CIFDUS_clean_linker_0, # of connection points: 2
#     Edge 66, Type (0, 0), BuildingBlock: CIFDUS_clean_linker_0, # of connection points: 2
#     Edge 67, Type (0, 0), BuildingBlock: CIFDUS_clean_linker_0, # of connection points: 2
#     Edge 68, Type (0, 0), BuildingBlock: CIFDUS_clean_linker_0, # of connection points: 2
#     Edge 69, Type (0, 0), BuildingBlock: CIFDUS_clean_linker_0, # of connection points: 2
#     Edge 70, Type (0, 0), BuildingBlock: CIFDUS_clean_linker_0, # of connection points: 2
#     Edge 71, Type (0, 0), BuildingBlock: CIFDUS_clean_linker_0, # of connection points: 2
#     Edge 72, Type (0, 0), BuildingBlock: CIFDUS_clean_linker_0, # of connection points: 2
#     Edge 73, Type (0, 0), BuildingBlock: CIFDUS_clean_linker_0, # of connection points: 2
#     Edge 74, Type (0, 0), BuildingBlock: CIFDUS_clean_linker_0, # of connection points: 2
#     Edge 75, Type (0, 0), BuildingBlock: CIFDUS_clean_linker_0, # of connection points: 2
#     Edge 76, Type (0, 0), BuildingBlock: CIFDUS_clean_linker_0, # of connection points: 2
#     Edge 77, Type (0, 0), BuildingBlock: CIFDUS_clean_linker_0, # of connection points: 2
#     Edge 78, Type (0, 0), BuildingBlock: CIFDUS_clean_linker_0, # of connection points: 2
#     Edge 79, Type (0, 0), BuildingBlock: CIFDUS_clean_linker_0, # of connection points: 2
#     Edge 80, Type (0, 0), BuildingBlock: CIFDUS_clean_linker_0, # of connection points: 2
#     Edge 81, Type (0, 0), BuildingBlock: CIFDUS_clean_linker_0, # of connection points: 2
#     Edge 82, Type (0, 0), BuildingBlock: CIFDUS_clean_linker_0, # of connection points: 2
#     Edge 83, Type (0, 0), BuildingBlock: CIFDUS_clean_linker_0, # of connection points: 2
#     Edge 84, Type (0, 0), BuildingBlock: CIFDUS_clean_linker_0, # of connection points: 2
#     Edge 85, Type (0, 0), BuildingBlock: CIFDUS_clean_linker_0, # of connection points: 2
#     Edge 86, Type (0, 0), BuildingBlock: CIFDUS_clean_linker_0, # of connection points: 2
#     Edge 87, Type (0, 0), BuildingBlock: CIFDUS_clean_linker_0, # of connection points: 2
#     Edge 88, Type (0, 0), BuildingBlock: CIFDUS_clean_linker_0, # of connection points: 2
#     Edge 89, Type (0, 0), BuildingBlock: CIFDUS_clean_linker_0, # of connection points: 2
#     Edge 90, Type (0, 0), BuildingBlock: CIFDUS_clean_linker_0, # of connection points: 2
#     Edge 91, Type (0, 0), BuildingBlock: CIFDUS_clean_linker_0, # of connection points: 2
#     Edge 92, Type (0, 0), BuildingBlock: CIFDUS_clean_linker_0, # of connection points: 2
#     Edge 93, Type (0, 0), BuildingBlock: CIFDUS_clean_linker_0, # of connection points: 2
#     Edge 94, Type (0, 0), BuildingBlock: CIFDUS_clean_linker_0, # of connection points: 2
#     Edge 95, Type (0, 0), BuildingBlock: CIFDUS_clean_linker_0, # of connection points: 2
# Relax obj value: 0.042
# Max RMSD: 0.064
# Mean RMSD: 0.064
data_MOF--net-uos--node1-QUQFOY_clean_sbu_3--edge1-CIFDUS_clean_linker_0
_symmetry_space_group_name_H-M    P1
_symmetry_Int_Tables_number       1
_symmetry_cell_setting            triclinic
loop_
_symmetry_equiv_pos_as_xyz
'x, y, z'
_cell_length_a     76.832216
_cell_length_b     77.176298
_cell_length_c     21.283191
_cell_angle_alpha  90.141608
_cell_angle_beta   89.94543
_cell_angle_gamma 90.091482
loop_
_atom_site_label
_atom_site_type_symbol
_atom_site_fract_x
_atom_site_fract_y
_atom_site_fract_z
_atom_type_partial_charge
C0 C 0.146 0.20682 0.20274 0.0
O1 O 0.14324 0.20085 0.25741 0.0
Cd2 Cd 0.14673 0.17176 0.29082 0.0
O3 O 0.15035 0.19686 0.15746 0.0
Cd4 Cd 0.15419 0.16517 0.14095 0.0
C5 C 0.18887 0.16517 0.23767 0.0
O6 O 0.1322 0.15567 0.21258 0.0
O7 O 0.14987 0.13578 0.18287 0.0
O8 O 0.13706 0.16774 0.04622 0.0
C9 C 0.13658 0.13991 0.21472 0.0
O10 O 0.17797 0.16638 0.28269 0.0
C11 C 0.14667 0.15788 0.01337 0.0
O12 O 0.18387 0.16553 0.18056 0.0
O13 O 0.1606 0.15244 0.03865 0.0
C14 C 0.05217 0.92368 0.41941 0.0
O15 O 0.05526 0.92332 0.47795 0.0
Cd16 Cd 0.08038 0.91343 0.53111 0.0
O17 O 0.06355 0.91889 0.37936 0.0
Cd18 Cd 0.09472 0.91034 0.39239 0.0
C19 C 0.10512 0.94632 0.47548 0.0
O20 O 0.08997 0.88911 0.47303 0.0
O21 O 0.11643 0.89786 0.46385 0.0
O22 O 0.09345 0.89045 0.30439 0.0
C23 C 0.10575 0.88724 0.48793 0.0
O24 O 0.09958 0.93823 0.52355 0.0
C25 C 0.10732 0.89581 0.27841 0.0
O26 O 0.10357 0.93979 0.42069 0.0
O27 O 0.11471 0.90889 0.30311 0.0
C28 C 0.33213 0.78963 0.63149 0.0
O29 O 0.334 0.79538 0.68698 0.0
Cd30 Cd 0.32534 0.82333 0.71862 0.0
O31 O 0.32591 0.79921 0.58825 0.0
Cd32 Cd 0.31685 0.83005 0.57645 0.0
C33 C 0.28245 0.82287 0.66818 0.0
O34 O 0.33926 0.84102 0.64253 0.0
O35 O 0.31819 0.85885 0.62912 0.0
O36 O 0.33291 0.82677 0.47981 0.0
C37 C 0.33345 0.85618 0.64934 0.0
O38 O 0.29351 0.82316 0.71276 0.0
C39 C 0.32475 0.83838 0.44995 0.0
O40 O 0.28735 0.8242 0.6112 0.0
O41 O 0.31186 0.84538 0.47741 0.0
C42 C 0.44352 0.0793 0.91989 0.0
O43 O 0.43745 0.07943 0.9754 0.0
Cd44 Cd 0.40873 0.08086 0.01355 0.0
O45 O 0.43361 0.08069 0.87201 0.0
Cd46 Cd 0.40122 0.08302 0.85932 0.0
C47 C 0.3971 0.04415 0.93072 0.0
O48 O 0.39521 0.10078 0.94759 0.0
O49 O 0.37273 0.08793 0.91007 0.0
O50 O 0.40369 0.10477 0.77764 0.0
C51 C 0.37902 0.09811 0.95088 0.0
O52 O 0.39907 0.05222 0.98257 0.0
C53 C 0.39219 0.09786 0.74276 0.0
O54 O 0.39839 0.05196 0.87811 0.0
O55 O 0.38619 0.08322 0.75954 0.0
C56 C 0.13932 0.77695 0.84542 0.0
O57 O 0.13663 0.78191 0.78945 0.0
Cd58 Cd 0.14375 0.80922 0.74568 0.0
O59 O 0.14499 0.78742 0.88712 0.0
Cd60 Cd 0.15044 0.81928 0.89222 0.0
C61 C 0.18596 0.8138 0.80331 0.0
O62 O 0.13067 0.82941 0.81296 0.0
O63 O 0.15107 0.8472 0.83782 0.0
O64 O 0.1308 0.82121 0.98058 0.0
C65 C 0.13758 0.84415 0.80552 0.0
O66 O 0.17523 0.8122 0.75798 0.0
C67 C 0.1405 0.83107 0.01312 0.0
O68 O 0.18065 0.81537 0.85986 0.0
O69 O 0.15557 0.83437 0.99144 0.0
C70 C 0.43098 0.8939 0.03242 0.0
O71 O 0.42765 0.89511 0.97417 0.0
Cd72 Cd 0.40192 0.90434 0.92319 0.0
O73 O 0.41947 0.8972 0.07409 0.0
Cd74 Cd 0.38757 0.90453 0.07056 0.0
C75 C 0.39491 0.94307 0.00171 0.0
O76 O 0.38081 0.8887 0.97807 0.0
O77 O 0.36027 0.90569 0.00795 0.0
O78 O 0.38086 0.88238 0.14645 0.0
C79 C 0.3657 0.89455 0.96886 0.0
O80 O 0.39794 0.93463 0.95133 0.0
C81 C 0.37199 0.8921 0.18242 0.0
O82 O 0.39202 0.93533 0.05354 0.0
O83 O 0.37134 0.9081 0.16856 0.0
C84 C 0.33665 0.19409 0.29573 0.0
O85 O 0.33941 0.18798 0.24125 0.0
Cd86 Cd 0.33458 0.15907 0.21061 0.0
O87 O 0.33169 0.18434 0.34067 0.0
Cd88 Cd 0.32678 0.15263 0.35456 0.0
C89 C 0.29198 0.15535 0.2614 0.0
O90 O 0.34974 0.14341 0.2886 0.0
O91 O 0.32979 0.12424 0.30028 0.0
O92 O 0.34465 0.15359 0.44726 0.0
C93 C 0.34492 0.12796 0.28068 0.0
O94 O 0.30296 0.15569 0.2165 0.0
C95 C 0.33538 0.14324 0.47919 0.0
O96 O 0.29702 0.15519 0.31841 0.0
O97 O 0.32097 0.13851 0.45525 0.0
C98 C 0.04681 0.07233 0.64535 0.0
O99 O 0.04765 0.06919 0.58686 0.0
Cd100 Cd 0.07115 0.0747 0.51701 0.0
O101 O 0.06002 0.07792 0.67537 0.0
Cd102 Cd 0.09089 0.08187 0.64185 0.0
C103 C 0.09784 0.04343 0.57117 0.0
O104 O 0.08484 0.10038 0.55269 0.0
O105 O 0.11075 0.08988 0.55681 0.0
O106 O 0.09527 0.10496 0.71766 0.0
C107 C 0.10017 0.10026 0.53123 0.0
O108 O 0.09044 0.05013 0.52368 0.0
C109 C 0.10877 0.09845 0.74237 0.0
O110 O 0.09797 0.05125 0.62396 0.0
O111 O 0.11352 0.08369 0.72226 0.0
C112 C 0.84659 0.78759 0.8576 0.0
O113 O 0.84871 0.79234 0.80105 0.0
Cd114 Cd 0.84225 0.81974 0.75715 0.0
O115 O 0.84103 0.79808 0.89938 0.0
Cd116 Cd 0.83489 0.82981 0.90147 0.0
C117 C 0.79991 0.82574 0.80823 0.0
O118 O 0.85665 0.83846 0.82737 0.0
O119 O 0.83749 0.85795 0.84648 0.0
O120 O 0.85293 0.83155 -0.00674 0.0
C121 C 0.8515 0.85379 0.81893 0.0
O122 O 0.81073 0.82407 0.76319 0.0
C123 C 0.84271 0.84102 0.02508 0.0
O124 O 0.80509 0.82675 0.86499 0.0
O125 O 0.82799 0.84442 0.00082 0.0
C126 C 0.94883 0.07075 0.61765 0.0
O127 O 0.94813 0.07011 0.55813 0.0
Cd128 Cd 0.92528 0.07758 0.48813 0.0
O129 O 0.93579 0.07558 0.65028 0.0
Cd130 Cd 0.90536 0.08241 0.61781 0.0
C131 C 0.89931 0.0449 0.53831 0.0
O132 O 0.91074 0.1019 0.53052 0.0
O133 O 0.88539 0.09 0.53417 0.0
O134 O 0.89951 0.10442 0.69729 0.0
C135 C 0.89547 0.10093 0.5087 0.0
O136 O 0.90669 0.05219 0.49174 0.0
C137 C 0.88632 0.09671 0.71996 0.0
O138 O 0.89865 0.05235 0.59177 0.0
O139 O 0.88265 0.08191 0.69733 0.0
C140 C 0.65968 0.18695 0.28194 0.0
O141 O 0.65599 0.17918 0.23102 0.0
Cd142 Cd 0.65472 0.14927 0.21003 0.0
O143 O 0.66297 0.17842 0.33192 0.0
Cd144 Cd 0.664 0.14652 0.35557 0.0
C145 C 0.69691 0.14061 0.25307 0.0
O146 O 0.63914 0.13797 0.29645 0.0
O147 O 0.65708 0.11735 0.31373 0.0
O148 O 0.64822 0.14982 0.45283 0.0
C149 C 0.64235 0.12198 0.29314 0.0
O150 O 0.68534 0.141 0.21026 0.0
C151 C 0.65784 0.13971 0.48435 0.0
O152 O 0.69294 0.14335 0.31043 0.0
O153 O 0.67159 0.13427 0.45764 0.0
C154 C 0.53159 0.89684 0.06397 0.0
O155 O 0.53491 0.89601 0.00562 0.0
Cd156 Cd 0.56204 0.90018 0.95497 0.0
O157 O 0.54365 0.89944 0.10408 0.0
Cd158 Cd 0.57621 0.90149 0.09503 0.0
C159 C 0.57441 0.93936 0.01885 0.0
O160 O 0.5809 0.88146 0.00936 0.0
O161 O 0.60195 0.89918 0.02714 0.0
O162 O 0.57925 0.8812 0.18102 0.0
C163 C 0.59633 0.88612 -0.00269 0.0
O164 O 0.57061 0.93042 0.97034 0.0
C165 C 0.59108 0.88964 0.20929 0.0
O166 O 0.57576 0.93227 0.07263 0.0
O167 O 0.59524 0.90427 0.18653 0.0
C168 C 0.82937 0.19393 0.19971 0.0
O169 O 0.83284 0.18655 0.25147 0.0
Cd170 Cd 0.8392 0.15721 0.27303 0.0
O171 O 0.82904 0.18546 0.14812 0.0
Cd172 Cd 0.83285 0.15419 0.12067 0.0
C173 C 0.79959 0.14313 0.21813 0.0
O174 O 0.85692 0.14869 0.18834 0.0
O175 O 0.84431 0.12582 0.1539 0.0
O176 O 0.84847 0.16135 0.02499 0.0
C177 C 0.85654 0.13235 0.18608 0.0
O178 O 0.81037 0.14454 0.26331 0.0
C179 C 0.84055 0.15025 0.99133 0.0
O180 O 0.80398 0.14694 0.16197 0.0
O181 O 0.82789 0.14224 0.01662 0.0
C182 C 0.54586 0.08103 0.90372 0.0
O183 O 0.54965 0.0805 0.96175 0.0
Cd184 Cd 0.57678 0.07707 0.01202 0.0
O185 O 0.55761 0.08038 0.86138 0.0
Cd186 Cd 0.5901 0.07801 0.86203 0.0
C187 C 0.58598 0.03894 0.93123 0.0
O188 O 0.59552 0.09448 0.95411 0.0
O189 O 0.61732 0.07923 0.92348 0.0
O190 O 0.59036 0.10107 0.78576 0.0
C191 C 0.61107 0.08981 0.96307 0.0
O192 O 0.58307 0.04752 0.9814 0.0
C193 C 0.60218 0.09446 0.75162 0.0
O194 O 0.58792 0.04652 0.87836 0.0
O195 O 0.60757 0.07943 0.76631 0.0
C196 C 0.65705 0.79966 0.62956 0.0
O197 O 0.65519 0.80308 0.68756 0.0
Cd198 Cd 0.66116 0.82929 0.73944 0.0
O199 O 0.66188 0.81124 0.59043 0.0
Cd200 Cd 0.66697 0.84342 0.5943 0.0
C201 C 0.70295 0.83618 0.67983 0.0
O202 O 0.64594 0.84785 0.67294 0.0
O203 O 0.6622 0.87013 0.66005 0.0
O204 O 0.6472 0.8434 0.5075 0.0
C205 C 0.64921 0.86334 0.6874 0.0
O206 O 0.69236 0.83298 0.72445 0.0
C207 C 0.65472 0.85514 0.47596 0.0
O208 O 0.69747 0.83973 0.62475 0.0
O209 O 0.66909 0.86088 0.49741 0.0
C210 C 0.95257 0.91782 0.41162 0.0
O211 O 0.95055 0.92057 0.46999 0.0
Cd212 Cd 0.92529 0.91536 0.53188 0.0
O213 O 0.94007 0.91224 0.37791 0.0
Cd214 Cd 0.90881 0.90684 0.40111 0.0
C215 C 0.90078 0.94619 0.46132 0.0
O216 O 0.91244 0.88941 0.49485 0.0
O217 O 0.8867 0.89951 0.47905 0.0
O218 O 0.90943 0.88385 0.3235 0.0
C219 C 0.89655 0.88965 0.51044 0.0
O220 O 0.90678 0.94002 0.51226 0.0
C221 C 0.89535 0.88824 0.29681 0.0
O222 O 0.90168 0.93762 0.41019 0.0
O223 O 0.88791 0.90185 0.31694 0.0
C224 C 0.64265 0.69979 0.64581 0.0
O225 O 0.64093 0.69434 0.70172 0.0
Cd226 Cd 0.64641 0.66603 0.73851 0.0
O227 O 0.64716 0.68962 0.60135 0.0
Cd228 Cd 0.65227 0.65777 0.59251 0.0
C229 C 0.68804 0.66092 0.68141 0.0
O230 O 0.63037 0.64947 0.66525 0.0
O231 O 0.64848 0.62915 0.64465 0.0
O232 O 0.63506 0.65795 0.49855 0.0
C233 C 0.63454 0.63378 0.67168 0.0
O234 O 0.67791 0.66177 0.72876 0.0
C235 C 0.6449 0.64791 0.46737 0.0
O236 O 0.68204 0.6605 0.62575 0.0
O237 O 0.65905 0.64332 0.4932 0.0
C238 C 0.53839 0.39976 0.88976 0.0
O239 O 0.5399 0.39986 0.94913 0.0
Cd240 Cd 0.56459 0.40838 0.00855 0.0
O241 O 0.55113 0.40363 0.85406 0.0
Cd242 Cd 0.58264 0.41008 0.87217 0.0
C243 C 0.57339 0.44812 0.94075 0.0
O244 O 0.5871 0.39217 0.96257 0.0
O245 O 0.60757 0.41063 0.94597 0.0
O246 O 0.5891 0.38814 0.79513 0.0
C247 C 0.60185 0.39803 0.97803 0.0
O248 O 0.56932 0.43913 0.98869 0.0
C249 C 0.5997 0.39719 0.76337 0.0
O250 O 0.57756 0.44092 0.88892 0.0
O251 O 0.60183 0.41286 0.78047 0.0
C252 C 0.82884 0.29625 0.19615 0.0
O253 O 0.82869 0.30039 0.25392 0.0
Cd254 Cd 0.83195 0.32827 0.29826 0.0
O255 O 0.83084 0.30772 0.15372 0.0
Cd256 Cd 0.8342 0.33991 0.1564 0.0
C257 C 0.79565 0.34511 0.22876 0.0
O258 O 0.85524 0.34036 0.23981 0.0
O259 O 0.84341 0.36499 0.22059 0.0
O260 O 0.85321 0.33686 0.06615 0.0
C261 C 0.85506 0.35651 0.24918 0.0
O262 O 0.8037 0.34138 0.27919 0.0
C263 C 0.84769 0.35029 0.03831 0.0
O264 O 0.80335 0.3444 0.17582 0.0
O265 O 0.83514 0.35836 0.06383 0.0
C266 C 0.93968 0.5956 0.41575 0.0
O267 O 0.93223 0.59796 0.46831 0.0
Cd268 Cd 0.90433 0.5874 0.49398 0.0
O269 O 0.93169 0.58831 0.37023 0.0
Cd270 Cd 0.90158 0.57761 0.34713 0.0
C271 C 0.91007 0.54481 0.44409 0.0
O272 O 0.88721 0.5982 0.41089 0.0
O273 O 0.87139 0.57605 0.39031 0.0
O274 O 0.90471 0.59368 0.25092 0.0
C275 C 0.87253 0.59095 0.41507 0.0
O276 O 0.90785 0.5558 0.48821 0.0
C277 C 0.89542 0.58357 0.21795 0.0
O278 O 0.90931 0.54937 0.38668 0.0
O279 O 0.88987 0.56985 0.2441 0.0
C280 C 0.66021 0.28992 0.31524 0.0
O281 O 0.6602 0.29597 0.25984 0.0
Cd282 Cd 0.65791 0.32503 0.22721 0.0
O283 O 0.65906 0.30002 0.36266 0.0
Cd284 Cd 0.65661 0.33238 0.37157 0.0
C285 C 0.69472 0.33982 0.29921 0.0
O286 O 0.63499 0.33575 0.291 0.0
O287 O 0.64848 0.3592 0.31508 0.0
O288 O 0.63776 0.32922 0.46297 0.0
C289 C 0.63598 0.352 0.28627 0.0
O290 O 0.68645 0.33765 0.24799 0.0
C291 C 0.64458 0.3417 0.49314 0.0
O292 O 0.6873 0.33727 0.35186 0.0
O293 O 0.65772 0.34898 0.46847 0.0
C294 C 0.95721 0.40118 0.64064 0.0
O295 O 0.95503 0.39958 0.58185 0.0
Cd296 Cd 0.93045 0.40803 0.52252 0.0
O297 O 0.94511 0.40685 0.6761 0.0
Cd298 Cd 0.91363 0.41345 0.6585 0.0
C299 C 0.92282 0.44954 0.57934 0.0
O300 O 0.90723 0.39399 0.57281 0.0
O301 O 0.88842 0.41424 0.58697 0.0
O302 O 0.90656 0.39286 0.73862 0.0
C303 C 0.89285 0.40068 0.55741 0.0
O304 O 0.92667 0.4392 0.53466 0.0
C305 C 0.89669 0.40276 0.77015 0.0
O306 O 0.91872 0.44379 0.63348 0.0
O307 O 0.89535 0.41835 0.75159 0.0
C308 C 0.83452 0.68947 0.84881 0.0
O309 O 0.83495 0.68997 0.78922 0.0
Cd310 Cd 0.82742 0.66821 0.71637 0.0
O311 O 0.83069 0.67561 0.87833 0.0
Cd312 Cd 0.82563 0.64469 0.84647 0.0
C313 C 0.78766 0.65588 0.78204 0.0
O314 O 0.84334 0.64502 0.75527 0.0
O315 O 0.8264 0.62289 0.76002 0.0
O316 O 0.84818 0.63646 0.91799 0.0
C317 C 0.83822 0.63103 0.73071 0.0
O318 O 0.79694 0.6622 0.73796 0.0
C319 C 0.83962 0.62466 0.94565 0.0
O320 O 0.79461 0.6494 0.831 0.0
O321 O 0.82385 0.62255 0.92905 0.0
C322 C 0.52844 0.58899 0.10037 0.0
O323 O 0.52721 0.59046 0.04119 0.0
Cd324 Cd 0.55039 0.58613 0.96868 0.0
O325 O 0.54304 0.58652 0.12686 0.0
Cd326 Cd 0.57375 0.58738 0.09235 0.0
C327 C 0.56811 0.54828 0.02903 0.0
O328 O 0.57209 0.60567 0.00087 0.0
O329 O 0.59519 0.58989 0.00847 0.0
O330 O 0.57663 0.61055 0.16617 0.0
C331 C 0.58691 0.6016 0.97944 0.0
O332 O 0.5606 0.55645 0.9847 0.0
C333 C 0.59015 0.6048 0.19303 0.0
O334 O 0.57339 0.55614 0.07822 0.0
O335 O 0.59597 0.59024 0.17432 0.0
C336 C 0.33125 0.2952 0.36199 0.0
O337 O 0.33815 0.30287 0.31547 0.0
Cd338 Cd 0.33888 0.33289 0.29688 0.0
O339 O 0.32422 0.30375 0.40671 0.0
Cd340 Cd 0.32039 0.33464 0.43881 0.0
C341 C 0.29429 0.34033 0.31341 0.0
O342 O 0.34731 0.34305 0.39627 0.0
O343 O 0.33112 0.3647 0.41778 0.0
O344 O 0.32954 0.32305 0.53795 0.0
C345 C 0.34544 0.35926 0.39571 0.0
O346 O 0.30817 0.33971 0.28057 0.0
C347 C 0.32106 0.33366 0.57158 0.0
O348 O 0.29465 0.33804 0.37281 0.0
O349 O 0.31091 0.34405 0.54324 0.0
C350 C 0.4374 0.56024 0.10658 0.0
O351 O 0.43986 0.55572 0.04992 0.0
Cd352 Cd 0.41927 0.55624 0.96691 0.0
O353 O 0.42252 0.56514 0.1258 0.0
Cd354 Cd 0.39325 0.56561 0.07711 0.0
C355 C 0.39481 0.52415 0.02945 0.0
O356 O 0.40205 0.5811 0.98442 0.0
O357 O 0.3763 0.56998 0.98067 0.0
O358 O 0.38787 0.59055 0.1419 0.0
C359 C 0.38771 0.5797 0.95585 0.0
O360 O 0.4032 0.5299 0.98239 0.0
C361 C 0.37348 0.58534 0.1642 0.0
O362 O 0.39085 0.53401 0.07536 0.0
O363 O 0.36823 0.57044 0.14691 0.0
C364 C 0.16153 0.6791 0.85179 0.0
O365 O 0.16041 0.67657 0.79296 0.0
Cd366 Cd 0.1688 0.65171 0.7364 0.0
O367 O 0.16674 0.66722 0.88893 0.0
Cd368 Cd 0.17375 0.6355 0.88003 0.0
C369 C 0.21013 0.64539 0.80152 0.0
O370 O 0.15443 0.63087 0.79615 0.0
O371 O 0.17099 0.60897 0.81194 0.0
O372 O 0.15292 0.63341 0.96246 0.0
C373 C 0.15865 0.61567 0.78093 0.0
O374 O 0.19985 0.64903 0.75647 0.0
C375 C 0.16092 0.62222 -0.00511 0.0
O376 O 0.20429 0.64071 0.85497 0.0
O377 O 0.17593 0.61765 0.97571 0.0
C378 C 0.05118 0.38511 0.5798 0.0
O379 O 0.04883 0.38555 0.52082 0.0
Cd380 Cd 0.06754 0.39727 0.44329 0.0
O381 O 0.06543 0.39014 0.60444 0.0
Cd382 Cd 0.0943 0.39925 0.56104 0.0
C383 C 0.07688 0.43671 0.51366 0.0
O384 O 0.0942 0.38374 0.46323 0.0
O385 O 0.11271 0.40463 0.46801 0.0
O386 O 0.11004 0.37831 0.62345 0.0
C387 C 0.10629 0.39214 0.43692 0.0
O388 O 0.0705 0.42811 0.46792 0.0
C389 C 0.1201 0.38928 0.64927 0.0
O390 O 0.08518 0.42923 0.55766 0.0
O391 O 0.1178 0.40511 0.63535 0.0
C392 C 0.35326 0.68976 0.64782 0.0
O393 O 0.35631 0.68238 0.69993 0.0
Cd394 Cd 0.35068 0.65286 0.72422 0.0
O395 O 0.34771 0.68114 0.6007 0.0
Cd396 Cd 0.34121 0.65049 0.57459 0.0
C397 C 0.3077 0.65222 0.67644 0.0
O398 O 0.3628 0.63732 0.63901 0.0
O399 O 0.34274 0.61996 0.60797 0.0
O400 O 0.35641 0.65344 0.47567 0.0
C401 C 0.35677 0.62208 0.63827 0.0
O402 O 0.3188 0.65086 0.72068 0.0
C403 C 0.34491 0.64554 0.44369 0.0
O404 O 0.31251 0.65342 0.61932 0.0
O405 O 0.33111 0.64099 0.47214 0.0
C406 C 0.04098 0.58648 0.41414 0.0
O407 O 0.04423 0.58668 0.47259 0.0
Cd408 Cd 0.07087 0.57817 0.51856 0.0
O409 O 0.05267 0.58237 0.37432 0.0
Cd410 Cd 0.08436 0.57575 0.37967 0.0
C411 C 0.07533 0.53811 0.44842 0.0
O412 O 0.09142 0.59529 0.46339 0.0
O413 O 0.11062 0.57551 0.4468 0.0
O414 O 0.08705 0.59531 0.29214 0.0
C415 C 0.1065 0.58953 0.47408 0.0
O416 O 0.07341 0.54697 0.49855 0.0
C417 C 0.09863 0.58664 0.26358 0.0
O418 O 0.07833 0.54546 0.3961 0.0
O419 O 0.103 0.57222 0.28745 0.0
C420 C 0.15541 0.30755 0.13456 0.0
O421 O 0.14914 0.31552 0.18168 0.0
Cd422 Cd 0.15161 0.34531 0.20407 0.0
O423 O 0.16334 0.31574 0.09095 0.0
Cd424 Cd 0.17019 0.34658 0.06295 0.0
C425 C 0.19678 0.3479 0.18843 0.0
O426 O 0.14426 0.35749 0.10678 0.0
O427 O 0.16306 0.37731 0.08972 0.0
O428 O 0.16052 0.3372 0.96096 0.0
C429 C 0.14808 0.37336 0.11009 0.0
O430 O 0.18291 0.3485 0.22134 0.0
C431 C 0.16999 0.34759 0.92996 0.0
O432 O 0.19616 0.34633 0.12873 0.0
O433 O 0.18078 0.35677 0.96082 0.0
C434 C 0.44366 0.378 0.93051 0.0
O435 O 0.44489 0.3811 0.98891 0.0
Cd436 Cd 0.42286 0.38756 0.0636 0.0
O437 O 0.42898 0.3779 0.90268 0.0
Cd438 Cd 0.3988 0.38243 0.94334 0.0
C439 C 0.40541 0.42303 -0.00716 0.0
O440 O 0.40067 0.36729 0.04258 0.0
O441 O 0.37942 0.38518 0.03441 0.0
O442 O 0.38407 0.36085 0.87775 0.0
C443 C 0.38711 0.37375 0.06662 0.0
O444 O 0.41193 0.41668 0.04271 0.0
C445 C 0.37361 0.37174 0.85378 0.0
O446 O 0.40156 0.41344 0.94623 0.0
O447 O 0.37547 0.38747 0.86988 0.0
H448 H 0.26509 0.15821 0.34388 0.0
H449 H 0.27663 0.15403 0.14574 0.0
H450 H 0.24577 0.15658 0.12102 0.0
H451 H 0.21561 0.16067 0.15532 0.0
H452 H 0.20415 0.16506 0.35349 0.0
H453 H 0.23491 0.16178 0.37825 0.0
C454 C 0.26087 0.15776 0.29528 0.0
C455 C 0.27318 0.15597 0.24682 0.0
C456 C 0.24313 0.15936 0.28127 0.0
C457 C 0.26745 0.15544 0.18407 0.0
C458 C 0.2498 0.15692 0.1698 0.0
C459 C 0.21982 0.16092 0.20395 0.0
C460 C 0.20756 0.16317 0.25236 0.0
C461 C 0.23754 0.15903 0.218 0.0
C462 C 0.21328 0.16338 0.31516 0.0
C463 C 0.23088 0.1615 0.32946 0.0
H464 H 0.11059 0.96375 0.58473 0.0
H465 H 0.11124 0.97019 0.38317 0.0
H466 H 0.11182 0.00159 0.39621 0.0
H467 H 0.1067 0.02675 0.46396 0.0
H468 H 0.10458 0.0203 0.66523 0.0
H469 H 0.11023 0.98932 0.65313 0.0
C470 C 0.11124 0.97199 0.54358 0.0
C471 C 0.11039 0.96464 0.48305 0.0
C472 C 0.11102 0.99002 0.55136 0.0
C473 C 0.11163 0.9755 0.43032 0.0
C474 C 0.11185 -0.00653 0.43771 0.0
C475 C 0.10774 0.01861 0.50528 0.0
C476 C 0.10478 0.02569 0.5653 0.0
C477 C 0.11064 0.00082 0.49789 0.0
C478 C 0.10661 0.01511 0.61848 0.0
C479 C 0.10976 -0.00261 0.61156 0.0
H480 H 0.20107 0.81446 0.68812 0.0
H481 H 0.21322 0.81512 0.88624 0.0
H482 H 0.24418 0.81779 0.86161 0.0
H483 H 0.26762 0.82057 0.78398 0.0
H484 H 0.25522 0.82038 0.586 0.0
H485 H 0.22442 0.81693 0.61078 0.0
C486 C 0.21045 0.81509 0.72609 0.0
C487 C 0.2048 0.81458 0.78899 0.0
C488 C 0.22816 0.8168 0.71166 0.0
C489 C 0.21719 0.81548 0.83742 0.0
C490 C 0.2349 0.81704 0.82338 0.0
C491 C 0.2582 0.81976 0.74615 0.0
C492 C 0.26376 0.82077 0.68318 0.0
C493 C 0.2405 0.81783 0.76068 0.0
C494 C 0.25134 0.81969 0.63486 0.0
C495 C 0.23371 0.81769 0.64897 0.0
H496 H 0.39362 0.02406 0.03415 0.0
H497 H 0.3956 0.02154 0.83142 0.0
H498 H 0.39482 0.98993 0.83593 0.0
H499 H 0.39502 0.96319 0.89747 0.0
H500 H 0.39331 0.96583 0.1002 0.0
H501 H 0.39265 -0.00259 0.09541 0.0
C502 C 0.39376 0.01665 0.99079 0.0
C503 C 0.39479 0.02517 0.93252 0.0
C504 C 0.39354 -0.00145 -0.00628 0.0
C505 C 0.39484 0.01532 0.87691 0.0
C506 C 0.39448 -0.00275 0.87944 0.0
C507 C 0.39454 0.97065 0.9407 0.0
C508 C 0.39438 0.96217 -0.00086 0.0
C509 C 0.39411 0.98876 0.93763 0.0
C510 C 0.39352 0.97204 0.05461 0.0
C511 C 0.39312 0.99008 0.05193 0.0
H512 H 0.78483 0.83055 0.69396 0.0
H513 H 0.77277 0.8242 0.89087 0.0
H514 H 0.74182 0.82716 0.86808 0.0
H515 H 0.71833 0.83154 0.79297 0.0
H516 H 0.73007 0.8383 0.59603 0.0
H517 H 0.76114 0.8353 0.61844 0.0
C518 C 0.77544 0.82972 0.7319 0.0
C519 C 0.78112 0.82709 0.79404 0.0
C520 C 0.75766 0.8316 0.71858 0.0
C521 C 0.76877 0.82622 0.84265 0.0
C522 C 0.75106 0.82792 0.82969 0.0
C523 C 0.72763 0.83238 0.75475 0.0
C524 C 0.72184 0.8351 0.69283 0.0
C525 C 0.74539 0.83064 0.76791 0.0
C526 C 0.73415 0.83624 0.64412 0.0
C527 C 0.75191 0.83448 0.65688 0.0
H528 H 0.89009 0.96495 0.5614 0.0
H529 H 0.89853 0.96825 0.36127 0.0
H530 H 0.89587 -0.00023 0.36641 0.0
H531 H 0.89634 0.02623 0.43048 0.0
H532 H 0.8892 0.02273 0.63142 0.0
H533 H 0.88588 0.9914 0.623 0.0
C534 C 0.89102 0.97255 0.5187 0.0
C535 C 0.89493 0.96437 0.46132 0.0
C536 C 0.88992 0.99062 0.52227 0.0
C537 C 0.89569 0.97428 0.40612 0.0
C538 C 0.89429 -0.00769 0.40911 0.0
C539 C 0.89376 0.01866 0.47235 0.0
C540 C 0.89349 0.02675 0.53168 0.0
C541 C 0.89223 0.00062 0.46738 0.0
C542 C 0.88972 0.01681 0.58526 0.0
C543 C 0.88789 -0.00113 0.58055 0.0
H544 H 0.72443 0.13498 0.3304 0.0
H545 H 0.71079 0.1409 0.13486 0.0
H546 H 0.74148 0.14043 0.10586 0.0
H547 H 0.7722 0.14119 0.13705 0.0
H548 H 0.78572 0.13545 0.33289 0.0
H549 H 0.75509 0.13277 0.36033 0.0
C550 C 0.72815 0.13601 0.28138 0.0
C551 C 0.71534 0.13824 0.23508 0.0
C552 C 0.74583 0.13583 0.26496 0.0
C553 C 0.72038 0.13929 0.17162 0.0
C554 C 0.73795 0.13906 0.15492 0.0
C555 C 0.76848 0.13911 0.18562 0.0
C556 C 0.78127 0.1388 0.23282 0.0
C557 C 0.75079 0.13776 0.20136 0.0
C558 C 0.77618 0.13592 0.29551 0.0
C559 C 0.75864 0.13443 0.3114 0.0
H560 H 0.58654 0.01976 0.03712 0.0
H561 H 0.58478 0.01514 0.83497 0.0
H562 H 0.58131 0.98371 0.8444 0.0
H563 H 0.57729 0.95788 0.91054 0.0
H564 H 0.57883 0.96308 0.11269 0.0
H565 H 0.58374 -0.00587 0.10249 0.0
C566 C 0.58548 0.01193 -0.00509 0.0
C567 C 0.58577 0.01982 0.93539 0.0
C568 C 0.58328 -0.00598 0.00071 0.0
C569 C 0.58459 0.0094 0.88134 0.0
C570 C 0.58251 0.99145 0.88674 0.0
C571 C 0.57868 0.9658 0.9524 0.0
C572 C 0.57754 0.95816 0.01233 0.0
C573 C 0.58155 0.98367 0.94625 0.0
C574 C 0.57958 0.9686 0.06602 0.0
C575 C 0.58241 0.98636 0.06027 0.0
H576 H 0.70556 0.65473 0.79024 0.0
H577 H 0.71318 0.66618 0.59347 0.0
H578 H 0.74458 0.66569 0.60802 0.0
H579 H 0.76972 0.66206 0.67569 0.0
H580 H 0.76275 0.64987 0.87201 0.0
H581 H 0.73111 0.65056 0.85837 0.0
C582 C 0.7141 0.65716 0.75061 0.0
C583 C 0.70704 0.66053 0.69091 0.0
C584 C 0.73219 0.65671 0.75912 0.0
C585 C 0.71826 0.66351 0.63989 0.0
C586 C 0.73623 0.66326 0.64813 0.0
C587 C 0.76133 0.6596 0.71571 0.0
C588 C 0.76857 0.65602 0.77485 0.0
C589 C 0.7433 0.65988 0.70745 0.0
C590 C 0.75748 0.65266 0.82595 0.0
C591 C 0.73941 0.65308 0.81821 0.0
H592 H 0.57544 0.4672 0.04732 0.0
H593 H 0.57096 0.47179 0.84588 0.0
H594 H 0.5692 0.50331 0.85566 0.0
H595 H 0.56801 0.52937 0.92171 0.0
H596 H 0.57354 0.52482 0.12283 0.0
H597 H 0.57589 0.49335 0.11283 0.0
C598 C 0.57407 0.4751 0.00552 0.0
C599 C 0.57315 0.46719 0.94601 0.0
C600 C 0.57325 0.49316 0.01146 0.0
C601 C 0.57168 0.47759 0.89221 0.0
C602 C 0.57063 0.49559 0.89779 0.0
C603 C 0.56973 0.52149 0.96338 0.0
C604 C 0.57043 0.52937 0.02299 0.0
C605 C 0.57124 0.50348 0.95722 0.0
C606 C 0.57295 0.51905 0.07644 0.0
C607 C 0.57425 0.50107 0.07077 0.0
H608 H 0.71453 0.34621 0.19586 0.0
H609 H 0.71709 0.34309 0.3983 0.0
H610 H 0.7486 0.34661 0.3943 0.0
H611 H 0.77549 0.34747 0.33314 0.0
H612 H 0.77313 0.34962 0.13054 0.0
H613 H 0.74139 0.34989 0.13507 0.0
C614 C 0.72194 0.34648 0.23921 0.0
C615 C 0.71347 0.34411 0.29721 0.0
C616 C 0.74008 0.34828 0.23659 0.0
C617 C 0.72327 0.34471 0.35293 0.0
C618 C 0.74131 0.34671 0.35073 0.0
C619 C 0.76807 0.34823 0.28991 0.0
C620 C 0.77669 0.34825 0.23157 0.0
C621 C 0.74987 0.34802 0.29275 0.0
C622 C 0.76684 0.34945 0.17611 0.0
C623 C 0.74868 0.34953 0.17862 0.0
H624 H 0.92584 0.46509 0.46601 0.0
H625 H 0.91709 0.47613 0.66256 0.0
H626 H 0.91284 0.50676 0.63803 0.0
H627 H 0.91033 0.53005 0.56016 0.0
H628 H 0.91825 0.5185 0.36343 0.0
H629 H 0.92404 0.4883 0.38897 0.0
C630 C 0.92316 0.47418 0.50374 0.0
C631 C 0.92177 0.4683 0.56605 0.0
C632 C 0.92043 0.49164 0.48923 0.0
C633 C 0.91822 0.4803 0.61417 0.0
C634 C 0.91574 0.4978 0.60017 0.0
C635 C 0.91337 0.52096 0.52283 0.0
C636 C 0.91377 0.52655 0.45992 0.0
C637 C 0.91658 0.50356 0.53774 0.0
C638 C 0.91774 0.51456 0.41221 0.0
C639 C 0.9211 0.49728 0.42675 0.0
H640 H 0.26222 0.34417 0.36634 0.0
H641 H 0.28862 0.3427 0.1871 0.0
H642 H 0.26091 0.34564 0.13277 0.0
H643 H 0.2291 0.34737 0.13569 0.0
H644 H 0.20269 0.34888 0.31491 0.0
H645 H 0.2305 0.34729 0.36932 0.0
C646 C 0.26194 0.34456 0.31542 0.0
C647 C 0.27749 0.34308 0.28103 0.0
C648 C 0.24595 0.34623 0.28425 0.0
C649 C 0.27686 0.34374 0.21496 0.0
C650 C 0.26101 0.34541 0.1837 0.0
C651 C 0.22941 0.34744 0.18664 0.0
C652 C 0.21379 0.34812 0.22098 0.0
C653 C 0.24545 0.34647 0.21783 0.0
C654 C 0.21449 0.34831 0.28708 0.0
C655 C 0.2304 0.34737 0.31839 0.0
H656 H 0.39356 0.50162 0.93292 0.0
H657 H 0.39063 0.50447 0.13518 0.0
H658 H 0.39321 0.47292 0.1417 0.0
H659 H 0.3995 0.44504 0.08997 0.0
H660 H 0.4025 0.4426 0.88755 0.0
H661 H 0.39693 0.47365 0.88106 0.0
C662 C 0.39321 0.49531 0.97843 0.0
C663 C 0.39216 0.5053 0.0335 0.0
C664 C 0.39509 0.47734 0.9818 0.0
C665 C 0.39143 0.49701 0.0921 0.0
C666 C 0.3931 0.47901 0.09587 0.0
C667 C 0.39895 0.45134 0.04452 0.0
C668 C 0.40172 0.44168 0.98938 0.0
C669 C 0.39555 0.46914 0.04109 0.0
C670 C 0.40055 0.44985 0.93065 0.0
C671 C 0.39733 0.46756 0.92688 0.0
H672 H 0.29227 0.64556 0.78932 0.0
H673 H 0.28089 0.65893 0.5966 0.0
H674 H 0.24987 0.65836 0.61936 0.0
H675 H 0.22609 0.65357 0.69237 0.0
H676 H 0.2368 0.63969 0.88496 0.0
H677 H 0.26808 0.64102 0.86362 0.0
C678 C 0.283 0.64841 0.75236 0.0
C679 C 0.28892 0.65224 0.69131 0.0
C680 C 0.26511 0.64795 0.76559 0.0
C681 C 0.27673 0.65587 0.64394 0.0
C682 C 0.25897 0.65557 0.65686 0.0
C683 C 0.2352 0.65086 0.72996 0.0
C684 C 0.22909 0.64651 0.79018 0.0
C685 C 0.25304 0.65153 0.71733 0.0
C686 C 0.24115 0.64305 0.83812 0.0
C687 C 0.25903 0.64381 0.82595 0.0
H688 H 0.07063 0.45727 0.41359 0.0
H689 H 0.08052 0.45886 0.61314 0.0
H690 H 0.0801 0.49053 0.61098 0.0
H691 H 0.07811 0.51767 0.55149 0.0
H692 H 0.06987 0.51583 0.35091 0.0
H693 H 0.06846 0.48427 0.35444 0.0
C694 C 0.07252 0.46453 0.45676 0.0
C695 C 0.07556 0.45576 0.51345 0.0
C696 C 0.07267 0.48266 0.4549 0.0
C697 C 0.07819 0.46535 0.56886 0.0
C698 C 0.07796 0.48343 0.56766 0.0
C699 C 0.0759 0.51036 0.50862 0.0
C700 C 0.07411 0.51906 0.45104 0.0
C701 C 0.07541 0.49221 0.5108 0.0
C702 C 0.07139 0.50942 0.39579 0.0
C703 C 0.07054 0.49139 0.39776 0.0
H704 H 0.157 0.12831 0.95605 0.0
H705 H 0.12167 0.1714 0.93747 0.0
H706 H 0.10716 0.15691 0.84979 0.0
H707 H 0.10287 0.13096 0.78527 0.0
H708 H 0.13735 0.08727 0.80677 0.0
H709 H 0.15376 0.10299 0.88709 0.0
C710 C 0.14638 0.1347 0.93185 0.0
C711 C 0.1404 0.15088 0.95306 0.0
C712 C 0.13772 0.12603 0.88304 0.0
C713 C 0.12649 0.15893 0.92187 0.0
C714 C 0.11812 0.1506 0.8721 0.0
C715 C 0.11398 0.12487 0.80748 0.0
C716 C 0.11876 0.10791 0.7907 0.0
C717 C 0.1233 0.13394 0.85358 0.0
C718 C 0.13331 0.10027 0.81934 0.0
C719 C 0.14274 0.10927 0.86506 0.0
H720 H 0.15241 0.86086 0.06539 0.0
H721 H 0.11249 0.8218 0.08369 0.0
H722 H 0.09834 0.83879 0.16603 0.0
H723 H 0.09677 0.86511 0.22994 0.0
H724 H 0.13631 0.90454 0.21084 0.0
H725 H 0.151 0.88717 0.13061 0.0
C726 C 0.14079 0.85594 0.08821 0.0
C727 C 0.13356 0.84005 0.06892 0.0
C728 C 0.13247 0.86599 0.13431 0.0
C729 C 0.11833 0.83396 0.09803 0.0
C730 C 0.11017 0.84372 0.14476 0.0
C731 C 0.10852 0.86999 0.20789 0.0
C732 C 0.11537 0.88614 0.226 0.0
C733 C 0.11698 0.85987 0.16251 0.0
C734 C 0.13071 0.89219 0.1974 0.0
C735 C 0.13917 0.88222 0.15185 0.0
H736 H 0.36995 0.85842 0.21638 0.0
H737 H 0.35073 0.90927 0.26473 0.0
H738 H 0.33253 0.89668 0.3472 0.0
H739 H 0.32295 0.8713 0.40789 0.0
H740 H 0.34338 0.82079 0.36226 0.0
H741 H 0.35991 0.83312 0.27491 0.0
C742 C 0.36184 0.86678 0.24508 0.0
C743 C 0.3618 0.88476 0.23481 0.0
C744 C 0.35142 0.85947 0.29208 0.0
C745 C 0.35112 0.8954 0.27211 0.0
C746 C 0.34062 0.8882 0.31895 0.0
C747 C 0.33071 0.86297 0.37781 0.0
C748 C 0.33186 0.84517 0.3908 0.0
C749 C 0.34069 0.87026 0.32937 0.0
C750 C 0.34224 0.83452 0.35262 0.0
C751 C 0.35179 0.84158 0.30314 0.0
H752 H 0.35998 0.09358 0.6948 0.0
H753 H 0.4066 0.12438 0.67614 0.0
H754 H 0.3924 0.14229 0.59655 0.0
H755 H 0.36692 0.14887 0.53199 0.0
H756 H 0.32008 0.11838 0.55205 0.0
H757 H 0.33406 0.10095 0.63327 0.0
C758 C 0.3671 0.10407 0.67265 0.0
C759 C 0.38439 0.1075 0.69032 0.0
C760 C 0.35871 0.11456 0.62843 0.0
C761 C 0.39334 0.12139 0.6626 0.0
C762 C 0.38519 0.13169 0.61755 0.0
C763 C 0.35966 0.13858 0.55474 0.0
C764 C 0.34249 0.13491 0.53594 0.0
C765 C 0.36787 0.12843 0.60038 0.0
C766 C 0.33328 0.12152 0.56585 0.0
C767 C 0.34132 0.11144 0.61182 0.0
H768 H 0.8737 0.83648 0.08229 0.0
H769 H 0.82547 0.86481 0.09759 0.0
H770 H 0.8376 0.88204 0.18371 0.0
H771 H 0.86259 0.89023 0.24977 0.0
H772 H 0.91078 0.86189 0.23271 0.0
H773 H 0.898 0.84361 0.15124 0.0
C774 C 0.86573 0.84627 0.10494 0.0
C775 C 0.84874 0.84943 0.08343 0.0
C776 C 0.87288 0.85632 0.15326 0.0
C777 C 0.83858 0.86212 0.11339 0.0
C778 C 0.84555 0.87206 0.16226 0.0
C779 C 0.87029 0.88009 0.22801 0.0
C780 C 0.88765 0.87753 0.24665 0.0
C781 C 0.86282 0.86952 0.18158 0.0
C782 C 0.89742 0.86418 0.21883 0.0
C783 C 0.89011 0.85369 0.17244 0.0
H784 H 0.83359 0.12038 0.92965 0.0
H785 H 0.86463 0.16694 0.91892 0.0
H786 H 0.88137 0.15452 0.83211 0.0
H787 H 0.88889 0.12943 0.76634 0.0
H788 H 0.85854 0.08246 0.78072 0.0
H789 H 0.83996 0.096 0.85979 0.0
C790 C 0.84375 0.12798 0.90738 0.0
C791 C 0.84788 0.14454 0.93065 0.0
C792 C 0.85371 0.12053 0.85923 0.0
C793 C 0.86119 0.15416 0.90173 0.0
C794 C 0.87087 0.14701 0.85251 0.0
C795 C 0.87822 0.12215 0.78683 0.0
C796 C 0.87524 0.1049 0.7683 0.0
C797 C 0.86758 0.13001 0.83225 0.0
C798 C 0.86123 0.09571 0.79464 0.0
C799 C 0.85054 0.10346 0.83963 0.0
H800 H 0.6346 0.09053 0.7035 0.0
H801 H 0.5882 0.12168 0.68874 0.0
H802 H 0.60228 0.1399 0.60991 0.0
H803 H 0.62726 0.14627 0.54277 0.0
H804 H 0.6738 0.11527 0.55704 0.0
H805 H 0.66037 0.09806 0.6403 0.0
C806 C 0.62754 0.10121 0.6825 0.0
C807 C 0.61031 0.10461 0.70094 0.0
C808 C 0.63584 0.11185 0.63822 0.0
C809 C 0.60142 0.11872 0.67467 0.0
C810 C 0.60949 0.1292 0.62997 0.0
C811 C 0.63462 0.13596 0.56483 0.0
C812 C 0.65148 0.13201 0.54353 0.0
C813 C 0.62667 0.12586 0.61135 0.0
C814 C 0.66081 0.1186 0.57267 0.0
C815 C 0.65307 0.10863 0.61979 0.0
H816 H 0.62382 0.84558 0.4268 0.0
H817 H 0.6657 0.88232 0.40285 0.0
H818 H 0.64924 0.89686 0.31975 0.0
H819 H 0.6226 0.89938 0.25568 0.0
H820 H 0.58104 0.86231 0.28088 0.0
H821 H 0.59766 0.84782 0.36293 0.0
C822 C 0.62946 0.85668 0.40314 0.0
C823 C 0.64598 0.86284 0.4209 0.0
C824 C 0.61986 0.86507 0.35643 0.0
C825 C 0.65305 0.87726 0.38978 0.0
C826 C 0.64359 0.88565 0.34263 0.0
C827 C 0.61712 0.88825 0.27968 0.0
C828 C 0.60056 0.88199 0.26266 0.0
C829 C 0.62689 0.87978 0.32611 0.0
C830 C 0.59372 0.86741 0.29337 0.0
C831 C 0.60325 0.85907 0.34004 0.0
H832 H 0.61535 0.65547 0.40527 0.0
H833 H 0.66061 0.62247 0.39764 0.0
H834 H 0.64768 0.60611 0.31079 0.0
H835 H 0.62244 0.5999 0.24261 0.0
H836 H 0.5772 0.63294 0.25328 0.0
H837 H 0.59115 0.65041 0.33416 0.0
C838 C 0.62253 0.64485 0.3841 0.0
C839 C 0.63884 0.64011 0.40805 0.0
C840 C 0.61488 0.6353 0.33554 0.0
C841 C 0.64801 0.62638 0.37992 0.0
C842 C 0.64056 0.61693 0.33066 0.0
C843 C 0.61566 0.6109 0.26283 0.0
C844 C 0.59877 0.61501 0.24255 0.0
C845 C 0.6238 0.62101 0.3092 0.0
C846 C 0.59019 0.62944 0.26838 0.0
C847 C 0.59816 0.63949 0.31449 0.0
H848 H 0.59731 0.36432 0.71978 0.0
H849 H 0.62487 0.41247 0.6912 0.0
H850 H 0.64233 0.39894 0.60848 0.0
H851 H 0.64922 0.37365 0.54293 0.0
H852 H 0.62086 0.3259 0.5692 0.0
H853 H 0.60443 0.33901 0.65543 0.0
C854 C 0.6071 0.3719 0.69538 0.0
C855 C 0.60973 0.3894 0.71135 0.0
C856 C 0.61706 0.36406 0.6481 0.0
C857 C 0.62251 0.399 0.67945 0.0
C858 C 0.63255 0.39126 0.63242 0.0
C859 C 0.63963 0.36603 0.56818 0.0
C860 C 0.6363 0.34881 0.55008 0.0
C861 C 0.62992 0.3738 0.61638 0.0
C862 C 0.62367 0.33917 0.58251 0.0
C863 C 0.61422 0.34668 0.6315 0.0
H864 H 0.89658 0.36989 0.81309 0.0
H865 H 0.87336 0.42007 0.84468 0.0
H866 H 0.85507 0.40785 0.92781 0.0
H867 H 0.84605 0.38294 0.99207 0.0
H868 H 0.86994 0.33305 0.961 0.0
H869 H 0.88743 0.34512 0.87586 0.0
C870 C 0.88759 0.37821 0.83829 0.0
C871 C 0.88639 0.39588 0.82303 0.0
C872 C 0.87711 0.37111 0.88545 0.0
C873 C 0.8746 0.40645 0.8559 0.0
C874 C 0.86409 0.39945 0.90314 0.0
C875 C 0.85491 0.37467 0.96605 0.0
C876 C 0.85667 0.35712 0.98248 0.0
C877 C 0.86522 0.38179 0.91816 0.0
C878 C 0.86836 0.34659 0.94904 0.0
C879 C 0.87841 0.3535 0.90063 0.0
H880 H 0.8644 0.57588 0.16504 0.0
H881 H 0.91188 0.60462 0.13504 0.0
H882 H 0.89885 0.61919 0.04486 0.0
H883 H 0.87317 0.62597 0.98255 0.0
H884 H 0.82494 0.59874 0.01587 0.0
H885 H 0.83902 0.5814 0.09744 0.0
C886 C 0.87201 0.58499 0.13761 0.0
C887 C 0.88906 0.58918 0.15622 0.0
C888 C 0.86419 0.59385 0.08762 0.0
C889 C 0.89873 0.60121 0.12125 0.0
C890 C 0.89126 0.60962 0.07012 0.0
C891 C 0.86572 0.61621 0.00745 0.0
C892 C 0.84798 0.61379 -0.00616 0.0
C893 C 0.87383 0.60646 0.05432 0.0
C894 C 0.83857 0.60096 0.02603 0.0
C895 C 0.84663 0.59102 0.07245 0.0
H896 H 0.31852 0.36325 0.63863 0.0
H897 H 0.33588 0.31025 0.65046 0.0
H898 H 0.3527 0.31716 0.74462 0.0
H899 H 0.36616 0.33924 0.81221 0.0
H900 H 0.35025 0.39265 0.79501 0.0
H901 H 0.32929 0.38464 0.7141 0.0
C902 C 0.32549 0.35309 0.66309 0.0
C903 C 0.32609 0.33632 0.63758 0.0
C904 C 0.33583 0.35735 0.71512 0.0
C905 C 0.3353 0.32329 0.66932 0.0
C906 C 0.34507 0.32727 0.72269 0.0
C907 C 0.35799 0.34909 0.79115 0.0
C908 C 0.36 0.36654 0.80865 0.0
C909 C 0.3461 0.34444 0.74405 0.0
C910 C 0.34915 0.37914 0.78165 0.0
C911 C 0.3371 0.37458 0.73553 0.0
H912 H 0.32991 0.61853 0.38327 0.0
H913 H 0.36926 0.65808 0.3627 0.0
H914 H 0.38047 0.64354 0.26903 0.0
H915 H 0.38154 0.61773 0.20265 0.0
H916 H 0.34353 0.57705 0.22725 0.0
H917 H 0.32928 0.59393 0.30995 0.0
C918 C 0.34064 0.6242 0.35729 0.0
C919 C 0.34884 0.63928 0.37989 0.0
C920 C 0.34746 0.61539 0.30515 0.0
C921 C 0.36281 0.64644 0.34619 0.0
C922 C 0.36929 0.63807 0.29297 0.0
C923 C 0.37004 0.6126 0.22567 0.0
C924 C 0.36376 0.59606 0.20966 0.0
C925 C 0.36214 0.62221 0.27365 0.0
C926 C 0.34872 0.58969 0.23928 0.0
C927 C 0.34057 0.59933 0.28649 0.0
H928 H 0.12908 0.62975 0.03991 0.0
H929 H 0.17303 0.59603 0.07024 0.0
H930 H 0.15707 0.58114 0.15407 0.0
H931 H 0.13048 0.57783 0.21828 0.0
H932 H 0.08701 0.61211 0.187 0.0
H933 H 0.10288 0.62647 0.10262 0.0
C934 C 0.13527 0.61921 0.06498 0.0
C935 C 0.15223 0.61403 0.04908 0.0
C936 C 0.126 0.61067 0.11219 0.0
C937 C 0.16001 0.60032 0.08196 0.0
C938 C 0.15085 0.59174 0.12952 0.0
C939 C 0.12443 0.58829 0.19233 0.0
C940 C 0.10759 0.59387 0.20844 0.0
C941 C 0.13379 0.59675 0.14472 0.0
C942 C 0.09996 0.60759 0.17526 0.0
C943 C 0.10904 0.61585 0.12728 0.0
H944 H 0.12811 0.35648 0.68352 0.0
H945 H 0.14238 0.40986 0.71625 0.0
H946 H 0.16249 0.40093 0.79886 0.0
H947 H 0.17269 0.37841 0.87122 0.0
H948 H 0.15647 0.32543 0.84345 0.0
H949 H 0.14092 0.33363 0.74798 0.0
C950 C 0.13575 0.36616 0.70826 0.0
C951 C 0.13351 0.38382 0.69467 0.0
C952 C 0.14704 0.36096 0.75628 0.0
C953 C 0.14369 0.39619 0.72647 0.0
C954 C 0.15522 0.39109 0.7736 0.0
C955 C 0.16626 0.36858 0.84298 0.0
C956 C 0.16565 0.35137 0.86414 0.0
C957 C 0.15659 0.37356 0.79016 0.0
C958 C 0.15708 0.33877 0.82783 0.0
C959 C 0.14805 0.34348 0.77371 0.0
H960 H 0.13752 0.28743 0.21543 0.0
H961 H 0.16969 0.28475 0.04923 0.0
H962 H 0.16855 0.25304 0.05272 0.0
H963 H 0.15993 0.22614 0.10777 0.0
H964 H 0.12869 0.22978 0.27616 0.0
H965 H 0.12794 0.26115 0.26671 0.0
C966 C 0.14426 0.27998 0.17962 0.0
C967 C 0.15382 0.28847 0.1325 0.0
C968 C 0.14376 0.26192 0.18247 0.0
C969 C 0.16229 0.27854 0.08622 0.0
C970 C 0.16167 0.26042 0.08827 0.0
C971 C 0.15282 0.23382 0.14191 0.0
C972 C 0.1445 0.22566 0.19285 0.0
C973 C 0.15267 0.25197 0.13686 0.0
C974 C 0.13536 0.23575 0.23688 0.0
C975 C 0.1349 0.25369 0.23153 0.0
H976 H 0.97486 0.94337 0.43917 0.0
H977 H 0.9694 0.89738 0.32581 0.0
H978 H 0.00086 0.89725 0.30568 0.0
H979 H 0.03022 0.90687 0.3398 0.0
H980 H 0.0349 0.9519 0.4589 0.0
H981 H 0.00348 0.95613 0.45599 0.0
C982 C 0.98054 0.9336 0.40868 0.0
C983 C 0.97006 0.92023 0.385 0.0
C984 C -0.00148 0.93342 0.39877 0.0
C985 C 0.97735 0.90776 0.34472 0.0
C986 C -0.00468 0.90762 0.33368 0.0
C987 C 0.02434 0.91796 0.36291 0.0
C988 C 0.03466 0.92898 0.40002 0.0
C989 C 0.00613 0.91988 0.36315 0.0
C990 C 0.02705 0.94323 0.43044 0.0
C991 C 0.00912 0.94558 0.42915 0.0
H992 H 0.35323 0.76941 0.70071 0.0
H993 H 0.32218 0.76936 0.53185 0.0
H994 H 0.32795 0.73842 0.51724 0.0
H995 H 0.33918 0.71093 0.55932 0.0
H996 H 0.36952 0.71139 0.73012 0.0
H997 H 0.36686 0.74277 0.7365 0.0
C998 C 0.3478 0.76267 0.66044 0.0
C999 C 0.33703 0.77154 0.61809 0.0
C1000 C 0.35103 0.74498 0.65275 0.0
C1001 C 0.3304 0.76274 0.5654 0.0
C1002 C 0.33367 0.74507 0.55712 0.0
C1003 C 0.34549 0.71793 0.59724 0.0
C1004 C 0.35432 0.70882 0.64467 0.0
C1005 C 0.3436 0.73597 0.60144 0.0
C1006 C 0.36247 0.71808 0.69344 0.0
C1007 C 0.36092 0.73601 0.69725 0.0
H1008 H 0.46693 0.09338 0.83625 0.0
H1009 H 0.46178 0.0569 0.98871 0.0
H1010 H 0.49308 0.05295 0.99167 0.0
H1011 H 0.52179 0.06204 0.96003 0.0
H1012 H 0.5286 0.09888 0.81036 0.0
H1013 H 0.49679 0.10042 0.79634 0.0
C1014 C 0.47274 0.08439 0.86918 0.0
C1015 C 0.46218 0.07567 0.91296 0.0
C1016 C 0.49097 0.08239 0.87156 0.0
C1017 C 0.46974 0.064 0.95542 0.0
C1018 C 0.48761 0.06169 0.95715 0.0
C1019 C 0.51631 0.07032 0.92395 0.0
C1020 C 0.52731 0.08058 0.8871 0.0
C1021 C 0.49832 0.07122 0.91696 0.0
C1022 C 0.52022 0.09095 0.83947 0.0
C1023 C 0.50209 0.09187 0.83177 0.0
H1024 H 0.15873 0.75735 0.9252 0.0
H1025 H 0.1159 0.75495 0.79438 0.0
H1026 H 0.11725 0.72342 0.79413 0.0
H1027 H 0.13395 0.69733 0.81515 0.0
H1028 H 0.17777 0.69905 0.94104 0.0
H1029 H 0.1726 0.73004 0.96027 0.0
C1030 C 0.14938 0.74986 0.89829 0.0
C1031 C 0.13741 0.75837 0.85906 0.0
C1032 C 0.15062 0.73169 0.89669 0.0
C1033 C 0.12537 0.74861 0.8242 0.0
C1034 C 0.12617 0.73061 0.82386 0.0
C1035 C 0.14212 0.70445 0.84786 0.0
C1036 C 0.15638 0.6962 0.87578 0.0
C1037 C 0.13928 0.72213 0.85735 0.0
C1038 C 0.16676 0.70529 0.91891 0.0
C1039 C 0.16386 0.72299 0.92946 0.0
H1040 H 0.45253 0.90866 0.11955 0.0
H1041 H 0.44912 0.86767 0.982 0.0
H1042 H 0.48039 0.86294 0.98861 0.0
H1043 H 0.50889 0.87386 0.01849 0.0
H1044 H 0.51344 0.91573 0.15161 0.0
H1045 H 0.4816 0.91662 0.16285 0.0
C1046 C 0.45864 0.89837 0.09273 0.0
C1047 C 0.44869 0.88861 0.04991 0.0
C1048 C 0.47683 0.8961 0.09521 0.0
C1049 C 0.45664 0.87539 0.01483 0.0
C1050 C 0.4745 0.87273 0.01839 0.0
C1051 C 0.50289 0.88292 0.05106 0.0
C1052 C 0.51331 0.89488 0.08344 0.0
C1053 C 0.48477 0.88355 0.05604 0.0
C1054 C 0.50556 0.90641 0.12618 0.0
C1055 C 0.48738 0.907 0.13215 0.0
H1056 H 0.32269 0.21415 0.38872 0.0
H1057 H 0.35552 0.2161 0.22394 0.0
H1058 H 0.3573 0.24746 0.23236 0.0
H1059 H 0.34834 0.2742 0.2819 0.0
H1060 H 0.31492 0.27326 0.44509 0.0
H1061 H 0.31465 0.24152 0.44205 0.0
C1062 C 0.33038 0.22146 0.3552 0.0
C1063 C 0.33884 0.21285 0.30553 0.0
C1064 C 0.33114 0.2396 0.35966 0.0
C1065 C 0.34873 0.22245 0.26223 0.0
C1066 C 0.34977 0.24037 0.26696 0.0
C1067 C 0.34099 0.26713 0.31704 0.0
C1068 C 0.33152 0.27609 0.36323 0.0
C1069 C 0.34078 0.24906 0.3147 0.0
C1070 C 0.32226 0.26665 0.40877 0.0
C1071 C 0.32209 0.24852 0.40704 0.0
H1072 H 0.96993 0.0899 0.69323 0.0
H1073 H 0.96445 0.03996 0.60444 0.0
H1074 H -0.00474 0.03399 0.62105 0.0
H1075 H 0.02431 0.04601 0.63606 0.0
H1076 H 0.03069 0.09672 0.7176 0.0
H1077 H -0.00093 0.09931 0.73042 0.0
C1078 C 0.97542 0.07746 0.68015 0.0
C1079 C 0.96516 0.0654 0.6473 0.0
C1080 C 0.99336 0.07444 0.68752 0.0
C1081 C 0.97227 0.04939 0.62963 0.0
C1082 C 0.98987 0.04604 0.63871 0.0
C1083 C 0.01876 0.05731 0.65898 0.0
C1084 C 0.02959 0.07124 0.6751 0.0
C1085 C 0.00068 0.0589 0.66393 0.0
C1086 C 0.02247 0.08583 0.70499 0.0
C1087 C 0.0044 0.08739 0.71152 0.0
H1088 H 0.86224 0.70951 0.83197 0.0
H1089 H 0.81446 0.70586 0.93682 0.0
H1090 H 0.8159 0.73697 0.96097 0.0
H1091 H 0.82744 0.76585 0.93088 0.0
H1092 H 0.87383 0.7688 0.81714 0.0
H1093 H 0.87656 0.73737 0.81871 0.0
C1094 C 0.85251 0.71547 0.86207 0.0
C1095 C 0.83821 0.70568 0.88219 0.0
C1096 C 0.85307 0.7333 0.87309 0.0
C1097 C 0.82563 0.71329 0.9212 0.0
C1098 C 0.82635 0.73108 0.9342 0.0
C1099 C 0.83841 0.75956 0.90832 0.0
C1100 C 0.85027 0.76944 0.87306 0.0
C1101 C 0.83949 0.74137 0.90727 0.0
C1102 C 0.86444 0.76131 0.8437 0.0
C1103 C 0.86599 0.74337 0.84451 0.0
H1104 H 0.66083 0.20979 0.38169 0.0
H1105 H 0.66057 0.20717 0.17865 0.0
H1106 H 0.66124 0.23843 0.17243 0.0
H1107 H 0.66127 0.26631 0.22245 0.0
H1108 H 0.66084 0.27061 0.42469 0.0
H1109 H 0.66118 0.23886 0.43324 0.0
C1110 C 0.66099 0.21611 0.33624 0.0
C1111 C 0.66055 0.20608 0.28081 0.0
C1112 C 0.66124 0.23435 0.33265 0.0
C1113 C 0.66074 0.21447 0.2222 0.0
C1114 C 0.66116 0.2324 0.2184 0.0
C1115 C 0.6613 0.26043 0.26871 0.0
C1116 C 0.66101 0.27086 0.32283 0.0
C1117 C 0.66131 0.24241 0.27312 0.0
C1118 C 0.66105 0.26288 0.38217 0.0
C1119 C 0.66123 0.24474 0.38705 0.0
H1120 H 0.81557 0.27127 0.26923 0.0
H1121 H 0.83826 0.27971 0.08637 0.0
H1122 H 0.83877 0.2483 0.06764 0.0
H1123 H 0.83553 0.21833 0.10908 0.0
H1124 H 0.81406 0.21114 0.2948 0.0
H1125 H 0.81024 0.24222 0.30643 0.0
C1126 C 0.82055 0.26629 0.225 0.0
C1127 C 0.82715 0.27773 0.17974 0.0
C1128 C 0.82111 0.24842 0.2153 0.0
C1129 C 0.83319 0.27111 0.12214 0.0
C1130 C 0.83355 0.25317 0.11158 0.0
C1131 C 0.82979 0.22363 0.15154 0.0
C1132 C 0.82532 0.21255 0.20138 0.0
C1133 C 0.82796 0.24168 0.15862 0.0
C1134 C 0.81787 0.21947 0.25624 0.0
C1135 C 0.81565 0.23723 0.26295 0.0
H1136 H 0.66003 0.72064 0.56355 0.0
H1137 H 0.61933 0.72042 0.70347 0.0
H1138 H 0.61835 0.75193 0.70216 0.0
H1139 H 0.63208 0.77915 0.67441 0.0
H1140 H 0.67395 0.78034 0.53968 0.0
H1141 H 0.6713 0.74885 0.52456 0.0
C1142 C 0.65069 0.72755 0.59242 0.0
C1143 C 0.63995 0.71835 0.63426 0.0
C1144 C 0.65057 0.74577 0.59289 0.0
C1145 C 0.62789 0.72732 0.67165 0.0
C1146 C 0.62733 0.74531 0.67099 0.0
C1147 C 0.64044 0.77254 0.64093 0.0
C1148 C 0.6534 0.78183 0.6091 0.0
C1149 C 0.6391 0.75461 0.63391 0.0
C1150 C 0.66393 0.77332 0.56487 0.0
C1151 C 0.66248 0.75535 0.55664 0.0
H1152 H 0.52203 0.3695 0.90349 0.0
H1153 H 0.51663 0.42012 0.82147 0.0
H1154 H 0.48513 0.41571 0.81122 0.0
H1155 H 0.45905 0.40025 0.85037 0.0
H1156 H 0.465 0.35059 0.93951 0.0
H1157 H 0.49632 0.35136 0.92025 0.0
C1158 C 0.51397 0.37923 0.88104 0.0
C1159 C 0.52137 0.39511 0.86365 0.0
C1160 C 0.49596 0.37675 0.87712 0.0
C1161 C 0.51105 0.40776 0.83483 0.0
C1162 C 0.49306 0.40529 0.82961 0.0
C1163 C 0.46717 0.38927 0.86251 0.0
C1164 C 0.45993 0.37536 0.89605 0.0
C1165 C 0.48528 0.39024 0.85399 0.0
C1166 C 0.47043 0.36131 0.91312 0.0
C1167 C 0.48833 0.36187 0.90283 0.0
H1168 H 0.96307 0.58333 0.32999 0.0
H1169 H 0.95828 0.61715 0.49109 0.0
H1170 H 0.98979 0.61919 0.49889 0.0
H1171 H 0.01829 0.60781 0.47073 0.0
H1172 H 0.0237 0.57343 0.31198 0.0
H1173 H 0.99236 0.57539 0.29169 0.0
C1174 C 0.96893 0.59147 0.3658 0.0
C1175 C 0.95837 0.59976 0.41074 0.0
C1176 C 0.98714 0.59231 0.37094 0.0
C1177 C 0.96614 0.61037 0.45665 0.0
C1178 C 0.98416 0.61154 0.46126 0.0
C1179 C 0.01263 0.60096 0.43107 0.0
C1180 C 0.0231 0.59022 0.39367 0.0
C1181 C -0.00528 0.60196 0.42044 0.0
C1182 C 0.01579 0.5817 0.34161 0.0
C1183 C -0.00211 0.58274 0.33028 0.0
H1184 H 0.97447 0.37156 0.6241 0.0
H1185 H 0.97859 0.42195 0.70994 0.0
H1186 H 0.01033 0.41896 0.71527 0.0
H1187 H 0.03642 0.40535 0.66843 0.0
H1188 H 0.03148 0.35625 0.57338 0.0
H1189 H 0.00067 0.3549 0.60081 0.0
C1190 C 0.98233 0.38154 0.64634 0.0
C1191 C 0.97446 0.39702 0.66574 0.0
C1192 C 0.00046 0.37995 0.64692 0.0
C1193 C 0.98453 0.40992 0.69476 0.0
C1194 C 0.00266 0.40827 0.69712 0.0
C1195 C 0.02873 0.39398 0.65672 0.0
C1196 C 0.03599 0.38096 0.61868 0.0
C1197 C 0.01079 0.39383 0.66952 0.0
C1198 C 0.02601 0.36638 0.60269 0.0
C1199 C 0.00838 0.36572 0.61771 0.0
H1200 H 0.45018 0.59054 0.14469 0.0
H1201 H 0.45955 0.5356 0.14865 0.0
H1202 H 0.49049 0.54068 0.16832 0.0
H1203 H 0.51506 0.56038 0.15118 0.0
H1204 H 0.50564 0.61482 0.12475 0.0
H1205 H 0.47474 0.61069 0.14841 0.0
C1206 C 0.45892 0.57977 0.15325 0.0
C1207 C 0.45285 0.56278 0.14542 0.0
C1208 C 0.47683 0.58284 0.15878 0.0
C1209 C 0.46412 0.54878 0.15501 0.0
C1210 C 0.48181 0.5517 0.16532 0.0
C1211 C 0.50629 0.57138 0.15365 0.0
C1212 C 0.51233 0.58783 0.13648 0.0
C1213 C 0.48843 0.56863 0.16239 0.0
C1214 C 0.50106 0.60207 0.1382 0.0
C1215 C 0.48342 0.59966 0.15113 0.0
H1216 H 0.10897 0.14594 0.28979 0.0
H1217 H 0.15021 0.1092 0.25507 0.0
H1218 H 0.14252 0.09359 0.35089 0.0
H1219 H 0.12537 0.09167 0.44801 0.0
H1220 H 0.08388 0.12817 0.48151 0.0
H1221 H 0.09054 0.1428 0.38267 0.0
C1222 C 0.11614 0.13439 0.3028 0.0
C1223 C 0.13023 0.12882 0.26595 0.0
C1224 C 0.1118 0.12565 0.35809 0.0
C1225 C 0.13932 0.11376 0.28286 0.0
C1226 C 0.13502 0.10491 0.33783 0.0
C1227 C 0.11785 0.10286 0.43367 0.0
C1228 C 0.10434 0.10904 0.47205 0.0
C1229 C 0.12156 0.111 0.3765 0.0
C1230 C 0.09442 0.12331 0.45264 0.0
C1231 C 0.09819 0.13163 0.3962 0.0
H1232 H 0.13214 0.89284 0.56972 0.0
H1233 H 0.0891 0.85859 0.5297 0.0
H1234 H 0.09479 0.84252 0.62627 0.0
H1235 H 0.11166 0.83856 0.7223 0.0
H1236 H 0.15418 0.87333 0.7645 0.0
H1237 H 0.14879 0.88913 0.66715 0.0
C1238 C 0.12417 0.88172 0.58187 0.0
C1239 C 0.11034 0.87675 0.54277 0.0
C1240 C 0.12723 0.87286 0.63811 0.0
C1241 C 0.09987 0.86255 0.55929 0.0
C1242 C 0.10306 0.85343 0.61448 0.0
C1243 C 0.11969 0.84967 0.71043 0.0
C1244 C 0.1333 0.85477 0.75036 0.0
C1245 C 0.1166 0.85859 0.65446 0.0
C1246 C 0.14358 0.86919 0.73449 0.0
C1247 C 0.14058 0.87815 0.67871 0.0
H1248 H 0.38064 0.88417 0.86149 0.0
H1249 H 0.33102 0.89812 0.94177 0.0
H1250 H 0.31646 0.89017 0.84313 0.0
H1251 H 0.31786 0.8758 0.73909 0.0
H1252 H 0.3678 0.86119 0.66311 0.0
H1253 H 0.38241 0.87345 0.75466 0.0
C1254 C 0.36664 0.88561 0.85738 0.0
C1255 C 0.35682 0.89133 0.90891 0.0
C1256 C 0.35851 0.88107 0.80117 0.0
C1257 C 0.33877 0.89351 0.90262 0.0
C1258 C 0.33049 0.889 0.84636 0.0
C1259 C 0.33195 0.87585 0.74193 0.0
C1260 C 0.34184 0.86762 0.69506 0.0
C1261 C 0.34021 0.88234 0.79588 0.0
C1262 C 0.36005 0.86748 0.69907 0.0
C1263 C 0.36836 0.87434 0.75148 0.0
H1264 H 0.39318 0.10726 0.06148 0.0
H1265 H 0.34393 0.09634 0.97237 0.0
H1266 H 0.3288 0.10172 0.07203 0.0
H1267 H 0.32973 0.11186 0.18213 0.0
H1268 H 0.37928 0.12302 0.26824 0.0
H1269 H 0.39438 0.11433 0.17229 0.0
C1270 C 0.37914 0.10598 0.06368 0.0
C1271 C 0.36962 0.10166 0.00965 0.0
C1272 C 0.37069 0.10874 0.1208 0.0
C1273 C 0.35147 0.09986 0.01345 0.0
C1274 C 0.34286 0.10281 0.07036 0.0
C1275 C 0.34384 0.11175 0.18032 0.0
C1276 C 0.35351 0.11789 0.23167 0.0
C1277 C 0.35235 0.10743 0.12418 0.0
C1278 C 0.37173 0.11815 0.22897 0.0
C1279 C 0.3803 0.11343 0.17406 0.0
H1280 H 0.86794 0.89794 0.57854 0.0
H1281 H 0.91234 0.86374 0.57463 0.0
H1282 H 0.90289 0.85052 0.67311 0.0
H1283 H 0.88157 0.84804 0.75763 0.0
H1284 H 0.83728 0.88235 0.76297 0.0
H1285 H 0.8474 0.89654 0.66694 0.0
C1286 C 0.8755 0.88755 0.5992 0.0
C1287 C 0.89068 0.88164 0.56927 0.0
C1288 C 0.87013 0.88021 0.65613 0.0
C1289 C 0.90054 0.8684 0.59687 0.0
C1290 C 0.89519 0.86089 0.65312 0.0
C1291 C 0.87421 0.85873 0.7381 0.0
C1292 C 0.85865 0.86406 0.76683 0.0
C1293 C 0.87997 0.86663 0.68286 0.0
C1294 C 0.84932 0.87803 0.74156 0.0
C1295 C 0.85502 0.88605 0.68649 0.0
H1296 H 0.88263 0.14309 0.26148 0.0
H1297 H 0.84921 0.09927 0.22338 0.0
H1298 H 0.85872 0.08548 0.32052 0.0
H1299 H 0.87418 0.08733 0.42093 0.0
H1300 H 0.90795 0.13081 0.45868 0.0
H1301 H 0.90045 0.14349 0.35686 0.0
C1302 C 0.87765 0.13038 0.27394 0.0
C1303 C 0.86506 0.12232 0.23599 0.0
C1304 C 0.88293 0.1227 0.3302 0.0
C1305 C 0.85888 0.10577 0.25204 0.0
C1306 C 0.86418 0.09796 0.30782 0.0
C1307 C 0.87985 0.0996 0.40682 0.0
C1308 C 0.89126 0.1084 0.44735 0.0
C1309 C 0.87573 0.10658 0.34815 0.0
C1310 C 0.89895 0.124 0.42817 0.0
C1311 C 0.89472 0.13119 0.37009 0.0
H1312 H 0.65692 0.10179 0.20386 0.0
H1313 H 0.60777 0.12082 0.27327 0.0
H1314 H 0.5934 0.11147 0.17658 0.0
H1315 H 0.59572 0.10174 0.06825 0.0
H1316 H 0.64496 0.0838 -0.00454 0.0
H1317 H 0.6586 0.08917 0.0977 0.0
C1318 C 0.64296 0.1033 0.19852 0.0
C1319 C 0.63329 0.11184 0.24519 0.0
C1320 C 0.635 0.09865 0.14173 0.0
C1321 C 0.61532 0.11413 0.2377 0.0
C1322 C 0.60719 0.109 0.1823 0.0
C1323 C 0.60943 0.09893 0.07468 0.0
C1324 C 0.61943 0.09268 0.0243 0.0
C1325 C 0.61706 0.10195 0.13316 0.0
C1326 C 0.63709 0.08883 0.03358 0.0
C1327 C 0.64484 0.09181 0.09197 0.0
H1328 H 0.62251 0.84982 0.7517 0.0
H1329 H 0.65741 0.8937 0.749 0.0
H1330 H 0.6445 0.90441 0.84724 0.0
H1331 H 0.62345 0.90084 0.93427 0.0
H1332 H 0.58896 0.85657 0.93421 0.0
H1333 H 0.60192 0.84623 0.83669 0.0
C1334 C 0.62733 0.86178 0.77236 0.0
C1335 C 0.64091 0.87096 0.74335 0.0
C1336 C 0.62007 0.86762 0.82859 0.0
C1337 C 0.64691 0.88645 0.77051 0.0
C1338 C 0.63961 0.89249 0.82674 0.0
C1339 C 0.61891 0.88884 0.91309 0.0
C1340 C 0.60531 0.87941 0.94132 0.0
C1341 C 0.62627 0.88308 0.85643 0.0
C1342 C 0.59941 0.86402 0.9133 0.0
C1343 C 0.60676 0.85814 0.85748 0.0
H1344 H 0.61457 0.59058 0.91056 0.0
H1345 H 0.5727 0.62787 0.91254 0.0
H1346 H 0.58282 0.63976 0.81309 0.0
H1347 H 0.60434 0.6407 0.7295 0.0
H1348 H 0.64675 0.60411 0.72697 0.0
H1349 H 0.63532 0.59042 0.82222 0.0
C1350 C 0.60768 0.6013 0.88913 0.0
C1351 C 0.59304 0.60848 0.91904 0.0
C1352 C 0.61354 0.60806 0.83184 0.0
C1353 C 0.58407 0.62221 0.89053 0.0
C1354 C 0.58981 0.62898 0.83365 0.0
C1355 C 0.611 0.6296 0.74939 0.0
C1356 C 0.62644 0.62352 0.72192 0.0
C1357 C 0.60462 0.62214 0.80442 0.0
C1358 C 0.63483 0.60902 0.74752 0.0
C1359 C 0.62839 0.60129 0.80215 0.0
H1360 H 0.6465 0.3797 0.21733 0.0
H1361 H 0.6042 0.3435 0.24223 0.0
H1362 H 0.58966 0.35504 0.1495 0.0
H1363 H 0.58992 0.37387 0.05823 0.0
H1364 H 0.63256 0.40945 0.02908 0.0
H1365 H 0.64618 0.39956 0.12663 0.0
C1366 C 0.63395 0.3746 0.20296 0.0
C1367 C 0.62635 0.36083 0.23628 0.0
C1368 C 0.62592 0.38095 0.14851 0.0
C1369 C 0.61023 0.35411 0.217 0.0
C1370 C 0.60198 0.36063 0.16396 0.0
C1371 C 0.60219 0.37951 0.07314 0.0
C1372 C 0.61029 0.39227 0.03642 0.0
C1373 C 0.60989 0.37376 0.12871 0.0
C1374 C 0.62613 0.39951 0.05652 0.0
C1375 C 0.63388 0.39391 0.1123 0.0
H1376 H 0.90153 0.37382 0.48269 0.0
H1377 H 0.86374 0.41475 0.50389 0.0
H1378 H 0.84936 0.4055 0.40685 0.0
H1379 H 0.84726 0.38527 0.3174 0.0
H1380 H 0.88476 0.34397 0.29939 0.0
H1381 H 0.89977 0.35411 0.39351 0.0
C1382 C 0.89014 0.38073 0.4662 0.0
C1383 C 0.88367 0.3949 0.50039 0.0
C1384 C 0.88201 0.37538 0.41073 0.0
C1385 C 0.86891 0.40373 0.47841 0.0
C1386 C 0.86074 0.3985 0.42287 0.0
C1387 C 0.85885 0.37867 0.33373 0.0
C1388 C 0.86496 0.36394 0.30174 0.0
C1389 C 0.86718 0.38432 0.38871 0.0
C1390 C 0.87985 0.35534 0.32354 0.0
C1391 C 0.88839 0.36107 0.37735 0.0
H1392 H 0.83109 0.60136 0.66523 0.0
H1393 H 0.85657 0.65115 0.65062 0.0
H1394 H 0.86656 0.64405 0.54555 0.0
H1395 H 0.87081 0.62285 0.4631 0.0
H1396 H 0.84754 0.57214 0.4778 0.0
H1397 H 0.83336 0.58065 0.57638 0.0
C1398 C 0.83871 0.61065 0.63871 0.0
C1399 C 0.84332 0.62661 0.66601 0.0
C1400 C 0.84469 0.60639 0.57824 0.0
C1401 C 0.85308 0.63864 0.63111 0.0
C1402 C 0.85873 0.63466 0.57083 0.0
C1403 C 0.86237 0.61375 0.48731 0.0
C1404 C 0.86041 0.59686 0.46405 0.0
C1405 C 0.85499 0.61845 0.54471 0.0
C1406 C 0.84926 0.58524 0.49508 0.0
C1407 C 0.84133 0.59004 0.55175 0.0
H1408 H 0.37635 0.35104 0.34609 0.0
H1409 H 0.33515 0.38879 0.33428 0.0
H1410 H 0.34552 0.39764 0.23049 0.0
H1411 H 0.36308 0.39093 0.13673 0.0
H1412 H 0.40265 0.35134 0.14704 0.0
H1413 H 0.3958 0.34656 0.25743 0.0
C1414 C 0.36993 0.36154 0.32148 0.0
C1415 C 0.35485 0.36902 0.34702 0.0
C1416 C 0.37527 0.36576 0.26071 0.0
C1417 C 0.34677 0.38279 0.3154 0.0
C1418 C 0.35251 0.38763 0.25562 0.0
C1419 C 0.37023 0.38131 0.16323 0.0
C1420 C 0.3831 0.37125 0.13357 0.0
C1421 C 0.36615 0.37854 0.22661 0.0
C1422 C 0.39249 0.35905 0.16865 0.0
C1423 C 0.38868 0.35639 0.23183 0.0
H1424 H 0.36218 0.57289 0.87094 0.0
H1425 H 0.40813 0.60407 0.90141 0.0
H1426 H 0.4038 0.61836 0.80075 0.0
H1427 H 0.38573 0.62367 0.70885 0.0
H1428 H 0.3395 0.59301 0.67786 0.0
H1429 H 0.34546 0.57645 0.77318 0.0
C1430 C 0.37125 0.58276 0.85533 0.0
C1431 C 0.3853 0.58761 0.89375 0.0
C1432 C 0.36872 0.59091 0.79726 0.0
C1433 C 0.39714 0.60022 0.87274 0.0
C1434 C 0.3947 0.60837 0.81519 0.0
C1435 C 0.37711 0.61318 0.72242 0.0
C1436 C 0.3621 0.60971 0.68706 0.0
C1437 C 0.38038 0.60403 0.7777 0.0
C1438 C 0.35113 0.59595 0.70457 0.0
C1439 C 0.35444 0.58659 0.75931 0.0
H1440 H 0.13775 0.63134 0.69827 0.0
H1441 H 0.16385 0.58284 0.73327 0.0
H1442 H 0.15107 0.57063 0.63704 0.0
H1443 H 0.13114 0.57364 0.54597 0.0
H1444 H 0.10499 0.6224 0.5159 0.0
H1445 H 0.11944 0.63477 0.60727 0.0
C1446 C 0.14072 0.61807 0.68508 0.0
C1447 C 0.15158 0.60793 0.72302 0.0
C1448 C 0.13339 0.61127 0.63049 0.0
C1449 C 0.15542 0.59085 0.70482 0.0
C1450 C 0.14814 0.58391 0.64989 0.0
C1451 C 0.12885 0.58703 0.55911 0.0
C1452 C 0.11699 0.59711 0.52472 0.0
C1453 C 0.13696 0.59398 0.61268 0.0
C1454 C 0.11399 0.6144 0.54211 0.0
C1455 C 0.1222 0.62146 0.59431 0.0
H1456 H 0.11647 0.36775 0.15894 0.0
H1457 H 0.16076 0.40196 0.1725 0.0
H1458 H 0.15054 0.41225 0.27493 0.0
H1459 H 0.13177 0.40759 0.36769 0.0
H1460 H 0.08918 0.37112 0.35542 0.0
H1461 H 0.09621 0.36536 0.24593 0.0
C1462 C 0.12367 0.37778 0.18363 0.0
C1463 C 0.13949 0.38383 0.15898 0.0
C1464 C 0.11831 0.3828 0.24363 0.0
C1465 C 0.14856 0.39702 0.19075 0.0
C1466 C 0.14286 0.40271 0.24972 0.0
C1467 C 0.12397 0.3985 0.3408 0.0
C1468 C 0.1102 0.38955 0.36986 0.0
C1469 C 0.12825 0.39501 0.27791 0.0
C1470 C 0.10006 0.37795 0.33443 0.0
C1471 C 0.10397 0.37472 0.27169 0.0
loop_
_geom_bond_atom_site_label_1
_geom_bond_atom_site_label_2
_geom_bond_distance
_geom_bond_site_symmetry_2
_ccdc_geom_bond_type
C0 O1 1.306 . S
C0 O3 1.160 . S
O1 C0 1.306 . S
O1 Cd2 2.228 . S
Cd2 O1 2.228 . S
Cd2 O6 2.273 . S
Cd2 O10 2.277 . S
O3 C0 1.160 . S
O3 Cd4 2.203 . S
Cd4 O3 2.203 . S
Cd4 O6 2.411 . S
Cd4 O7 2.333 . S
Cd4 O8 2.352 . S
Cd4 O12 2.277 . S
Cd4 O13 2.356 . S
C5 O10 1.209 . S
C5 O12 1.226 . S
O6 Cd2 2.273 . S
O6 Cd4 2.411 . S
O6 C9 1.320 . S
O7 Cd4 2.333 . S
O7 C9 1.214 . S
O8 Cd4 2.352 . S
O8 C11 1.258 . S
C9 O6 1.320 . S
C9 O7 1.214 . S
O10 Cd2 2.277 . S
O10 C5 1.209 . S
C11 O8 1.258 . S
C11 O13 1.282 . S
O12 Cd4 2.277 . S
O12 C5 1.226 . S
O13 Cd4 2.356 . S
O13 C11 1.282 . S
C14 O15 1.306 . S
C14 O17 1.160 . S
O15 C14 1.306 . S
O15 Cd16 2.228 . S
Cd16 O15 2.228 . S
Cd16 O20 2.273 . S
Cd16 O24 2.277 . S
O17 C14 1.160 . S
O17 Cd18 2.203 . S
Cd18 O17 2.203 . S
Cd18 O20 2.411 . S
Cd18 O21 2.333 . S
Cd18 O22 2.352 . S
Cd18 O26 2.277 . S
Cd18 O27 2.356 . S
C19 O24 1.209 . S
C19 O26 1.226 . S
O20 Cd16 2.273 . S
O20 Cd18 2.411 . S
O20 C23 1.320 . S
O21 Cd18 2.333 . S
O21 C23 1.214 . S
O22 Cd18 2.352 . S
O22 C25 1.258 . S
C23 O20 1.320 . S
C23 O21 1.214 . S
O24 Cd16 2.277 . S
O24 C19 1.209 . S
C25 O22 1.258 . S
C25 O27 1.282 . S
O26 Cd18 2.277 . S
O26 C19 1.226 . S
O27 Cd18 2.356 . S
O27 C25 1.282 . S
C28 O29 1.306 . S
C28 O31 1.160 . S
O29 C28 1.306 . S
O29 Cd30 2.228 . S
Cd30 O29 2.228 . S
Cd30 O34 2.273 . S
Cd30 O38 2.277 . S
O31 C28 1.160 . S
O31 Cd32 2.203 . S
Cd32 O31 2.203 . S
Cd32 O34 2.411 . S
Cd32 O35 2.333 . S
Cd32 O36 2.352 . S
Cd32 O40 2.277 . S
Cd32 O41 2.356 . S
C33 O38 1.209 . S
C33 O40 1.226 . S
O34 Cd30 2.273 . S
O34 Cd32 2.411 . S
O34 C37 1.320 . S
O35 Cd32 2.333 . S
O35 C37 1.214 . S
O36 Cd32 2.352 . S
O36 C39 1.258 . S
C37 O34 1.320 . S
C37 O35 1.214 . S
O38 Cd30 2.277 . S
O38 C33 1.209 . S
C39 O36 1.258 . S
C39 O41 1.282 . S
O40 Cd32 2.277 . S
O40 C33 1.226 . S
O41 Cd32 2.356 . S
O41 C39 1.282 . S
C42 O43 1.306 . S
C42 O45 1.160 . S
O43 C42 1.306 . S
O43 Cd44 2.228 1_556 S
Cd44 O43 2.228 1_554 S
Cd44 O48 2.273 1_554 S
Cd44 O52 2.277 1_554 S
O45 C42 1.160 . S
O45 Cd46 2.203 . S
Cd46 O45 2.203 . S
Cd46 O48 2.411 . S
Cd46 O49 2.333 . S
Cd46 O50 2.352 . S
Cd46 O54 2.277 . S
Cd46 O55 2.356 . S
C47 O52 1.209 . S
C47 O54 1.226 . S
O48 Cd44 2.273 1_556 S
O48 Cd46 2.411 . S
O48 C51 1.320 . S
O49 Cd46 2.333 . S
O49 C51 1.214 . S
O50 Cd46 2.352 . S
O50 C53 1.258 . S
C51 O48 1.320 . S
C51 O49 1.214 . S
O52 Cd44 2.277 1_556 S
O52 C47 1.209 . S
C53 O50 1.258 . S
C53 O55 1.282 . S
O54 Cd46 2.277 . S
O54 C47 1.226 . S
O55 Cd46 2.356 . S
O55 C53 1.282 . S
C56 O57 1.306 . S
C56 O59 1.160 . S
O57 C56 1.306 . S
O57 Cd58 2.228 . S
Cd58 O57 2.228 . S
Cd58 O62 2.273 . S
Cd58 O66 2.277 . S
O59 C56 1.160 . S
O59 Cd60 2.203 . S
Cd60 O59 2.203 . S
Cd60 O62 2.411 . S
Cd60 O63 2.333 . S
Cd60 O64 2.352 . S
Cd60 O68 2.277 . S
Cd60 O69 2.356 . S
C61 O66 1.209 . S
C61 O68 1.226 . S
O62 Cd58 2.273 . S
O62 Cd60 2.411 . S
O62 C65 1.320 . S
O63 Cd60 2.333 . S
O63 C65 1.214 . S
O64 Cd60 2.352 . S
O64 C67 1.258 . S
C65 O62 1.320 . S
C65 O63 1.214 . S
O66 Cd58 2.277 . S
O66 C61 1.209 . S
C67 O64 1.258 . S
C67 O69 1.282 . S
O68 Cd60 2.277 . S
O68 C61 1.226 . S
O69 Cd60 2.356 . S
O69 C67 1.282 . S
C70 O71 1.306 . S
C70 O73 1.160 . S
O71 C70 1.306 . S
O71 Cd72 2.228 1_554 S
Cd72 O71 2.228 1_556 S
Cd72 O76 2.273 1_556 S
Cd72 O80 2.277 1_556 S
O73 C70 1.160 . S
O73 Cd74 2.203 . S
Cd74 O73 2.203 . S
Cd74 O76 2.411 . S
Cd74 O77 2.333 . S
Cd74 O78 2.352 . S
Cd74 O82 2.277 . S
Cd74 O83 2.356 . S
C75 O80 1.209 . S
C75 O82 1.226 . S
O76 Cd72 2.273 1_554 S
O76 Cd74 2.411 . S
O76 C79 1.320 . S
O77 Cd74 2.333 . S
O77 C79 1.214 . S
O78 Cd74 2.352 . S
O78 C81 1.258 . S
C79 O76 1.320 . S
C79 O77 1.214 . S
O80 Cd72 2.277 1_554 S
O80 C75 1.209 . S
C81 O78 1.258 . S
C81 O83 1.282 . S
O82 Cd74 2.277 . S
O82 C75 1.226 . S
O83 Cd74 2.356 . S
O83 C81 1.282 . S
C84 O85 1.306 . S
C84 O87 1.160 . S
O85 C84 1.306 . S
O85 Cd86 2.228 . S
Cd86 O85 2.228 . S
Cd86 O90 2.273 . S
Cd86 O94 2.277 . S
O87 C84 1.160 . S
O87 Cd88 2.203 . S
Cd88 O87 2.203 . S
Cd88 O90 2.411 . S
Cd88 O91 2.333 . S
Cd88 O92 2.352 . S
Cd88 O96 2.277 . S
Cd88 O97 2.356 . S
C89 O94 1.209 . S
C89 O96 1.226 . S
O90 Cd86 2.273 . S
O90 Cd88 2.411 . S
O90 C93 1.320 . S
O91 Cd88 2.333 . S
O91 C93 1.214 . S
O92 Cd88 2.352 . S
O92 C95 1.258 . S
C93 O90 1.320 . S
C93 O91 1.214 . S
O94 Cd86 2.277 . S
O94 C89 1.209 . S
C95 O92 1.258 . S
C95 O97 1.282 . S
O96 Cd88 2.277 . S
O96 C89 1.226 . S
O97 Cd88 2.356 . S
O97 C95 1.282 . S
C98 O99 1.306 . S
C98 O101 1.160 . S
O99 C98 1.306 . S
O99 Cd100 2.228 . S
Cd100 O99 2.228 . S
Cd100 O104 2.273 . S
Cd100 O108 2.277 . S
O101 C98 1.160 . S
O101 Cd102 2.203 . S
Cd102 O101 2.203 . S
Cd102 O104 2.411 . S
Cd102 O105 2.333 . S
Cd102 O106 2.352 . S
Cd102 O110 2.277 . S
Cd102 O111 2.356 . S
C103 O108 1.209 . S
C103 O110 1.226 . S
O104 Cd100 2.273 . S
O104 Cd102 2.411 . S
O104 C107 1.320 . S
O105 Cd102 2.333 . S
O105 C107 1.214 . S
O106 Cd102 2.352 . S
O106 C109 1.258 . S
C107 O104 1.320 . S
C107 O105 1.214 . S
O108 Cd100 2.277 . S
O108 C103 1.209 . S
C109 O106 1.258 . S
C109 O111 1.282 . S
O110 Cd102 2.277 . S
O110 C103 1.226 . S
O111 Cd102 2.356 . S
O111 C109 1.282 . S
C112 O113 1.306 . S
C112 O115 1.160 . S
O113 C112 1.306 . S
O113 Cd114 2.228 . S
Cd114 O113 2.228 . S
Cd114 O118 2.273 . S
Cd114 O122 2.277 . S
O115 C112 1.160 . S
O115 Cd116 2.203 . S
Cd116 O115 2.203 . S
Cd116 O118 2.411 . S
Cd116 O119 2.333 . S
Cd116 O120 2.352 . S
Cd116 O124 2.277 . S
Cd116 O125 2.356 . S
C117 O122 1.209 . S
C117 O124 1.226 . S
O118 Cd114 2.273 . S
O118 Cd116 2.411 . S
O118 C121 1.320 . S
O119 Cd116 2.333 . S
O119 C121 1.214 . S
O120 Cd116 2.352 . S
O120 C123 1.258 . S
C121 O118 1.320 . S
C121 O119 1.214 . S
O122 Cd114 2.277 . S
O122 C117 1.209 . S
C123 O120 1.258 . S
C123 O125 1.282 . S
O124 Cd116 2.277 . S
O124 C117 1.226 . S
O125 Cd116 2.356 . S
O125 C123 1.282 . S
C126 O127 1.306 . S
C126 O129 1.160 . S
O127 C126 1.306 . S
O127 Cd128 2.228 . S
Cd128 O127 2.228 . S
Cd128 O132 2.273 . S
Cd128 O136 2.277 . S
O129 C126 1.160 . S
O129 Cd130 2.203 . S
Cd130 O129 2.203 . S
Cd130 O132 2.411 . S
Cd130 O133 2.333 . S
Cd130 O134 2.352 . S
Cd130 O138 2.277 . S
Cd130 O139 2.356 . S
C131 O136 1.209 . S
C131 O138 1.226 . S
O132 Cd128 2.273 . S
O132 Cd130 2.411 . S
O132 C135 1.320 . S
O133 Cd130 2.333 . S
O133 C135 1.214 . S
O134 Cd130 2.352 . S
O134 C137 1.258 . S
C135 O132 1.320 . S
C135 O133 1.214 . S
O136 Cd128 2.277 . S
O136 C131 1.209 . S
C137 O134 1.258 . S
C137 O139 1.282 . S
O138 Cd130 2.277 . S
O138 C131 1.226 . S
O139 Cd130 2.356 . S
O139 C137 1.282 . S
C140 O141 1.306 . S
C140 O143 1.160 . S
O141 C140 1.306 . S
O141 Cd142 2.228 . S
Cd142 O141 2.228 . S
Cd142 O146 2.273 . S
Cd142 O150 2.277 . S
O143 C140 1.160 . S
O143 Cd144 2.203 . S
Cd144 O143 2.203 . S
Cd144 O146 2.411 . S
Cd144 O147 2.333 . S
Cd144 O148 2.352 . S
Cd144 O152 2.277 . S
Cd144 O153 2.356 . S
C145 O150 1.209 . S
C145 O152 1.226 . S
O146 Cd142 2.273 . S
O146 Cd144 2.411 . S
O146 C149 1.320 . S
O147 Cd144 2.333 . S
O147 C149 1.214 . S
O148 Cd144 2.352 . S
O148 C151 1.258 . S
C149 O146 1.320 . S
C149 O147 1.214 . S
O150 Cd142 2.277 . S
O150 C145 1.209 . S
C151 O148 1.258 . S
C151 O153 1.282 . S
O152 Cd144 2.277 . S
O152 C145 1.226 . S
O153 Cd144 2.356 . S
O153 C151 1.282 . S
C154 O155 1.306 . S
C154 O157 1.160 . S
O155 C154 1.306 . S
O155 Cd156 2.228 1_554 S
Cd156 O155 2.228 1_556 S
Cd156 O160 2.273 1_556 S
Cd156 O164 2.277 1_556 S
O157 C154 1.160 . S
O157 Cd158 2.203 . S
Cd158 O157 2.203 . S
Cd158 O160 2.411 . S
Cd158 O161 2.333 . S
Cd158 O162 2.352 . S
Cd158 O166 2.277 . S
Cd158 O167 2.356 . S
C159 O164 1.209 . S
C159 O166 1.226 . S
O160 Cd156 2.273 1_554 S
O160 Cd158 2.411 . S
O160 C163 1.320 . S
O161 Cd158 2.333 . S
O161 C163 1.214 . S
O162 Cd158 2.352 . S
O162 C165 1.258 . S
C163 O160 1.320 . S
C163 O161 1.214 . S
O164 Cd156 2.277 1_554 S
O164 C159 1.209 . S
C165 O162 1.258 . S
C165 O167 1.282 . S
O166 Cd158 2.277 . S
O166 C159 1.226 . S
O167 Cd158 2.356 . S
O167 C165 1.282 . S
C168 O169 1.306 . S
C168 O171 1.160 . S
O169 C168 1.306 . S
O169 Cd170 2.228 . S
Cd170 O169 2.228 . S
Cd170 O174 2.273 . S
Cd170 O178 2.277 . S
O171 C168 1.160 . S
O171 Cd172 2.203 . S
Cd172 O171 2.203 . S
Cd172 O174 2.411 . S
Cd172 O175 2.333 . S
Cd172 O176 2.352 . S
Cd172 O180 2.277 . S
Cd172 O181 2.356 . S
C173 O178 1.209 . S
C173 O180 1.226 . S
O174 Cd170 2.273 . S
O174 Cd172 2.411 . S
O174 C177 1.320 . S
O175 Cd172 2.333 . S
O175 C177 1.214 . S
O176 Cd172 2.352 . S
O176 C179 1.258 . S
C177 O174 1.320 . S
C177 O175 1.214 . S
O178 Cd170 2.277 . S
O178 C173 1.209 . S
C179 O176 1.258 . S
C179 O181 1.282 . S
O180 Cd172 2.277 . S
O180 C173 1.226 . S
O181 Cd172 2.356 . S
O181 C179 1.282 . S
C182 O183 1.306 . S
C182 O185 1.160 . S
O183 C182 1.306 . S
O183 Cd184 2.228 1_556 S
Cd184 O183 2.228 1_554 S
Cd184 O188 2.273 1_554 S
Cd184 O192 2.277 1_554 S
O185 C182 1.160 . S
O185 Cd186 2.203 . S
Cd186 O185 2.203 . S
Cd186 O188 2.411 . S
Cd186 O189 2.333 . S
Cd186 O190 2.352 . S
Cd186 O194 2.277 . S
Cd186 O195 2.356 . S
C187 O192 1.209 . S
C187 O194 1.226 . S
O188 Cd184 2.273 1_556 S
O188 Cd186 2.411 . S
O188 C191 1.320 . S
O189 Cd186 2.333 . S
O189 C191 1.214 . S
O190 Cd186 2.352 . S
O190 C193 1.258 . S
C191 O188 1.320 . S
C191 O189 1.214 . S
O192 Cd184 2.277 1_556 S
O192 C187 1.209 . S
C193 O190 1.258 . S
C193 O195 1.282 . S
O194 Cd186 2.277 . S
O194 C187 1.226 . S
O195 Cd186 2.356 . S
O195 C193 1.282 . S
C196 O197 1.306 . S
C196 O199 1.160 . S
O197 C196 1.306 . S
O197 Cd198 2.228 . S
Cd198 O197 2.228 . S
Cd198 O202 2.273 . S
Cd198 O206 2.277 . S
O199 C196 1.160 . S
O199 Cd200 2.203 . S
Cd200 O199 2.203 . S
Cd200 O202 2.411 . S
Cd200 O203 2.333 . S
Cd200 O204 2.352 . S
Cd200 O208 2.277 . S
Cd200 O209 2.356 . S
C201 O206 1.209 . S
C201 O208 1.226 . S
O202 Cd198 2.273 . S
O202 Cd200 2.411 . S
O202 C205 1.320 . S
O203 Cd200 2.333 . S
O203 C205 1.214 . S
O204 Cd200 2.352 . S
O204 C207 1.258 . S
C205 O202 1.320 . S
C205 O203 1.214 . S
O206 Cd198 2.277 . S
O206 C201 1.209 . S
C207 O204 1.258 . S
C207 O209 1.282 . S
O208 Cd200 2.277 . S
O208 C201 1.226 . S
O209 Cd200 2.356 . S
O209 C207 1.282 . S
C210 O211 1.306 . S
C210 O213 1.160 . S
O211 C210 1.306 . S
O211 Cd212 2.228 . S
Cd212 O211 2.228 . S
Cd212 O216 2.273 . S
Cd212 O220 2.277 . S
O213 C210 1.160 . S
O213 Cd214 2.203 . S
Cd214 O213 2.203 . S
Cd214 O216 2.411 . S
Cd214 O217 2.333 . S
Cd214 O218 2.352 . S
Cd214 O222 2.277 . S
Cd214 O223 2.356 . S
C215 O220 1.209 . S
C215 O222 1.226 . S
O216 Cd212 2.273 . S
O216 Cd214 2.411 . S
O216 C219 1.320 . S
O217 Cd214 2.333 . S
O217 C219 1.214 . S
O218 Cd214 2.352 . S
O218 C221 1.258 . S
C219 O216 1.320 . S
C219 O217 1.214 . S
O220 Cd212 2.277 . S
O220 C215 1.209 . S
C221 O218 1.258 . S
C221 O223 1.282 . S
O222 Cd214 2.277 . S
O222 C215 1.226 . S
O223 Cd214 2.356 . S
O223 C221 1.282 . S
C224 O225 1.306 . S
C224 O227 1.160 . S
O225 C224 1.306 . S
O225 Cd226 2.228 . S
Cd226 O225 2.228 . S
Cd226 O230 2.273 . S
Cd226 O234 2.277 . S
O227 C224 1.160 . S
O227 Cd228 2.203 . S
Cd228 O227 2.203 . S
Cd228 O230 2.411 . S
Cd228 O231 2.333 . S
Cd228 O232 2.352 . S
Cd228 O236 2.277 . S
Cd228 O237 2.356 . S
C229 O234 1.209 . S
C229 O236 1.226 . S
O230 Cd226 2.273 . S
O230 Cd228 2.411 . S
O230 C233 1.320 . S
O231 Cd228 2.333 . S
O231 C233 1.214 . S
O232 Cd228 2.352 . S
O232 C235 1.258 . S
C233 O230 1.320 . S
C233 O231 1.214 . S
O234 Cd226 2.277 . S
O234 C229 1.209 . S
C235 O232 1.258 . S
C235 O237 1.282 . S
O236 Cd228 2.277 . S
O236 C229 1.226 . S
O237 Cd228 2.356 . S
O237 C235 1.282 . S
C238 O239 1.306 . S
C238 O241 1.160 . S
O239 C238 1.306 . S
O239 Cd240 2.228 1_556 S
Cd240 O239 2.228 1_554 S
Cd240 O244 2.273 1_554 S
Cd240 O248 2.277 1_554 S
O241 C238 1.160 . S
O241 Cd242 2.203 . S
Cd242 O241 2.203 . S
Cd242 O244 2.411 . S
Cd242 O245 2.333 . S
Cd242 O246 2.352 . S
Cd242 O250 2.277 . S
Cd242 O251 2.356 . S
C243 O248 1.209 . S
C243 O250 1.226 . S
O244 Cd240 2.273 1_556 S
O244 Cd242 2.411 . S
O244 C247 1.320 . S
O245 Cd242 2.333 . S
O245 C247 1.214 . S
O246 Cd242 2.352 . S
O246 C249 1.258 . S
C247 O244 1.320 . S
C247 O245 1.214 . S
O248 Cd240 2.277 1_556 S
O248 C243 1.209 . S
C249 O246 1.258 . S
C249 O251 1.282 . S
O250 Cd242 2.277 . S
O250 C243 1.226 . S
O251 Cd242 2.356 . S
O251 C249 1.282 . S
C252 O253 1.306 . S
C252 O255 1.160 . S
O253 C252 1.306 . S
O253 Cd254 2.228 . S
Cd254 O253 2.228 . S
Cd254 O258 2.273 . S
Cd254 O262 2.277 . S
O255 C252 1.160 . S
O255 Cd256 2.203 . S
Cd256 O255 2.203 . S
Cd256 O258 2.411 . S
Cd256 O259 2.333 . S
Cd256 O260 2.352 . S
Cd256 O264 2.277 . S
Cd256 O265 2.356 . S
C257 O262 1.209 . S
C257 O264 1.226 . S
O258 Cd254 2.273 . S
O258 Cd256 2.411 . S
O258 C261 1.320 . S
O259 Cd256 2.333 . S
O259 C261 1.214 . S
O260 Cd256 2.352 . S
O260 C263 1.258 . S
C261 O258 1.320 . S
C261 O259 1.214 . S
O262 Cd254 2.277 . S
O262 C257 1.209 . S
C263 O260 1.258 . S
C263 O265 1.282 . S
O264 Cd256 2.277 . S
O264 C257 1.226 . S
O265 Cd256 2.356 . S
O265 C263 1.282 . S
C266 O267 1.306 . S
C266 O269 1.160 . S
O267 C266 1.306 . S
O267 Cd268 2.228 . S
Cd268 O267 2.228 . S
Cd268 O272 2.273 . S
Cd268 O276 2.277 . S
O269 C266 1.160 . S
O269 Cd270 2.203 . S
Cd270 O269 2.203 . S
Cd270 O272 2.411 . S
Cd270 O273 2.333 . S
Cd270 O274 2.352 . S
Cd270 O278 2.277 . S
Cd270 O279 2.356 . S
C271 O276 1.209 . S
C271 O278 1.226 . S
O272 Cd268 2.273 . S
O272 Cd270 2.411 . S
O272 C275 1.320 . S
O273 Cd270 2.333 . S
O273 C275 1.214 . S
O274 Cd270 2.352 . S
O274 C277 1.258 . S
C275 O272 1.320 . S
C275 O273 1.214 . S
O276 Cd268 2.277 . S
O276 C271 1.209 . S
C277 O274 1.258 . S
C277 O279 1.282 . S
O278 Cd270 2.277 . S
O278 C271 1.226 . S
O279 Cd270 2.356 . S
O279 C277 1.282 . S
C280 O281 1.306 . S
C280 O283 1.160 . S
O281 C280 1.306 . S
O281 Cd282 2.228 . S
Cd282 O281 2.228 . S
Cd282 O286 2.273 . S
Cd282 O290 2.277 . S
O283 C280 1.160 . S
O283 Cd284 2.203 . S
Cd284 O283 2.203 . S
Cd284 O286 2.411 . S
Cd284 O287 2.333 . S
Cd284 O288 2.352 . S
Cd284 O292 2.277 . S
Cd284 O293 2.356 . S
C285 O290 1.209 . S
C285 O292 1.226 . S
O286 Cd282 2.273 . S
O286 Cd284 2.411 . S
O286 C289 1.320 . S
O287 Cd284 2.333 . S
O287 C289 1.214 . S
O288 Cd284 2.352 . S
O288 C291 1.258 . S
C289 O286 1.320 . S
C289 O287 1.214 . S
O290 Cd282 2.277 . S
O290 C285 1.209 . S
C291 O288 1.258 . S
C291 O293 1.282 . S
O292 Cd284 2.277 . S
O292 C285 1.226 . S
O293 Cd284 2.356 . S
O293 C291 1.282 . S
C294 O295 1.306 . S
C294 O297 1.160 . S
O295 C294 1.306 . S
O295 Cd296 2.228 . S
Cd296 O295 2.228 . S
Cd296 O300 2.273 . S
Cd296 O304 2.277 . S
O297 C294 1.160 . S
O297 Cd298 2.203 . S
Cd298 O297 2.203 . S
Cd298 O300 2.411 . S
Cd298 O301 2.333 . S
Cd298 O302 2.352 . S
Cd298 O306 2.277 . S
Cd298 O307 2.356 . S
C299 O304 1.209 . S
C299 O306 1.226 . S
O300 Cd296 2.273 . S
O300 Cd298 2.411 . S
O300 C303 1.320 . S
O301 Cd298 2.333 . S
O301 C303 1.214 . S
O302 Cd298 2.352 . S
O302 C305 1.258 . S
C303 O300 1.320 . S
C303 O301 1.214 . S
O304 Cd296 2.277 . S
O304 C299 1.209 . S
C305 O302 1.258 . S
C305 O307 1.282 . S
O306 Cd298 2.277 . S
O306 C299 1.226 . S
O307 Cd298 2.356 . S
O307 C305 1.282 . S
C308 O309 1.306 . S
C308 O311 1.160 . S
O309 C308 1.306 . S
O309 Cd310 2.228 . S
Cd310 O309 2.228 . S
Cd310 O314 2.273 . S
Cd310 O318 2.277 . S
O311 C308 1.160 . S
O311 Cd312 2.203 . S
Cd312 O311 2.203 . S
Cd312 O314 2.411 . S
Cd312 O315 2.333 . S
Cd312 O316 2.352 . S
Cd312 O320 2.277 . S
Cd312 O321 2.356 . S
C313 O318 1.209 . S
C313 O320 1.226 . S
O314 Cd310 2.273 . S
O314 Cd312 2.411 . S
O314 C317 1.320 . S
O315 Cd312 2.333 . S
O315 C317 1.214 . S
O316 Cd312 2.352 . S
O316 C319 1.258 . S
C317 O314 1.320 . S
C317 O315 1.214 . S
O318 Cd310 2.277 . S
O318 C313 1.209 . S
C319 O316 1.258 . S
C319 O321 1.282 . S
O320 Cd312 2.277 . S
O320 C313 1.226 . S
O321 Cd312 2.356 . S
O321 C319 1.282 . S
C322 O323 1.306 . S
C322 O325 1.160 . S
O323 C322 1.306 . S
O323 Cd324 2.228 1_554 S
Cd324 O323 2.228 1_556 S
Cd324 O328 2.273 1_556 S
Cd324 O332 2.277 1_556 S
O325 C322 1.160 . S
O325 Cd326 2.203 . S
Cd326 O325 2.203 . S
Cd326 O328 2.411 . S
Cd326 O329 2.333 . S
Cd326 O330 2.352 . S
Cd326 O334 2.277 . S
Cd326 O335 2.356 . S
C327 O332 1.209 . S
C327 O334 1.226 . S
O328 Cd324 2.273 1_554 S
O328 Cd326 2.411 . S
O328 C331 1.320 . S
O329 Cd326 2.333 . S
O329 C331 1.214 . S
O330 Cd326 2.352 . S
O330 C333 1.258 . S
C331 O328 1.320 . S
C331 O329 1.214 . S
O332 Cd324 2.277 1_554 S
O332 C327 1.209 . S
C333 O330 1.258 . S
C333 O335 1.282 . S
O334 Cd326 2.277 . S
O334 C327 1.226 . S
O335 Cd326 2.356 . S
O335 C333 1.282 . S
C336 O337 1.306 . S
C336 O339 1.160 . S
O337 C336 1.306 . S
O337 Cd338 2.228 . S
Cd338 O337 2.228 . S
Cd338 O342 2.273 . S
Cd338 O346 2.277 . S
O339 C336 1.160 . S
O339 Cd340 2.203 . S
Cd340 O339 2.203 . S
Cd340 O342 2.411 . S
Cd340 O343 2.333 . S
Cd340 O344 2.352 . S
Cd340 O348 2.277 . S
Cd340 O349 2.356 . S
C341 O346 1.209 . S
C341 O348 1.226 . S
O342 Cd338 2.273 . S
O342 Cd340 2.411 . S
O342 C345 1.320 . S
O343 Cd340 2.333 . S
O343 C345 1.214 . S
O344 Cd340 2.352 . S
O344 C347 1.258 . S
C345 O342 1.320 . S
C345 O343 1.214 . S
O346 Cd338 2.277 . S
O346 C341 1.209 . S
C347 O344 1.258 . S
C347 O349 1.282 . S
O348 Cd340 2.277 . S
O348 C341 1.226 . S
O349 Cd340 2.356 . S
O349 C347 1.282 . S
C350 O351 1.306 . S
C350 O353 1.160 . S
O351 C350 1.306 . S
O351 Cd352 2.228 1_554 S
Cd352 O351 2.228 1_556 S
Cd352 O356 2.273 1_556 S
Cd352 O360 2.277 1_556 S
O353 C350 1.160 . S
O353 Cd354 2.203 . S
Cd354 O353 2.203 . S
Cd354 O356 2.411 . S
Cd354 O357 2.333 . S
Cd354 O358 2.352 . S
Cd354 O362 2.277 . S
Cd354 O363 2.356 . S
C355 O360 1.209 . S
C355 O362 1.226 . S
O356 Cd352 2.273 1_554 S
O356 Cd354 2.411 . S
O356 C359 1.320 . S
O357 Cd354 2.333 . S
O357 C359 1.214 . S
O358 Cd354 2.352 . S
O358 C361 1.258 . S
C359 O356 1.320 . S
C359 O357 1.214 . S
O360 Cd352 2.277 1_554 S
O360 C355 1.209 . S
C361 O358 1.258 . S
C361 O363 1.282 . S
O362 Cd354 2.277 . S
O362 C355 1.226 . S
O363 Cd354 2.356 . S
O363 C361 1.282 . S
C364 O365 1.306 . S
C364 O367 1.160 . S
O365 C364 1.306 . S
O365 Cd366 2.228 . S
Cd366 O365 2.228 . S
Cd366 O370 2.273 . S
Cd366 O374 2.277 . S
O367 C364 1.160 . S
O367 Cd368 2.203 . S
Cd368 O367 2.203 . S
Cd368 O370 2.411 . S
Cd368 O371 2.333 . S
Cd368 O372 2.352 . S
Cd368 O376 2.277 . S
Cd368 O377 2.356 . S
C369 O374 1.209 . S
C369 O376 1.226 . S
O370 Cd366 2.273 . S
O370 Cd368 2.411 . S
O370 C373 1.320 . S
O371 Cd368 2.333 . S
O371 C373 1.214 . S
O372 Cd368 2.352 . S
O372 C375 1.258 . S
C373 O370 1.320 . S
C373 O371 1.214 . S
O374 Cd366 2.277 . S
O374 C369 1.209 . S
C375 O372 1.258 . S
C375 O377 1.282 . S
O376 Cd368 2.277 . S
O376 C369 1.226 . S
O377 Cd368 2.356 . S
O377 C375 1.282 . S
C378 O379 1.306 . S
C378 O381 1.160 . S
O379 C378 1.306 . S
O379 Cd380 2.228 . S
Cd380 O379 2.228 . S
Cd380 O384 2.273 . S
Cd380 O388 2.277 . S
O381 C378 1.160 . S
O381 Cd382 2.203 . S
Cd382 O381 2.203 . S
Cd382 O384 2.411 . S
Cd382 O385 2.333 . S
Cd382 O386 2.352 . S
Cd382 O390 2.277 . S
Cd382 O391 2.356 . S
C383 O388 1.209 . S
C383 O390 1.226 . S
O384 Cd380 2.273 . S
O384 Cd382 2.411 . S
O384 C387 1.320 . S
O385 Cd382 2.333 . S
O385 C387 1.214 . S
O386 Cd382 2.352 . S
O386 C389 1.258 . S
C387 O384 1.320 . S
C387 O385 1.214 . S
O388 Cd380 2.277 . S
O388 C383 1.209 . S
C389 O386 1.258 . S
C389 O391 1.282 . S
O390 Cd382 2.277 . S
O390 C383 1.226 . S
O391 Cd382 2.356 . S
O391 C389 1.282 . S
C392 O393 1.306 . S
C392 O395 1.160 . S
O393 C392 1.306 . S
O393 Cd394 2.228 . S
Cd394 O393 2.228 . S
Cd394 O398 2.273 . S
Cd394 O402 2.277 . S
O395 C392 1.160 . S
O395 Cd396 2.203 . S
Cd396 O395 2.203 . S
Cd396 O398 2.411 . S
Cd396 O399 2.333 . S
Cd396 O400 2.352 . S
Cd396 O404 2.277 . S
Cd396 O405 2.356 . S
C397 O402 1.209 . S
C397 O404 1.226 . S
O398 Cd394 2.273 . S
O398 Cd396 2.411 . S
O398 C401 1.320 . S
O399 Cd396 2.333 . S
O399 C401 1.214 . S
O400 Cd396 2.352 . S
O400 C403 1.258 . S
C401 O398 1.320 . S
C401 O399 1.214 . S
O402 Cd394 2.277 . S
O402 C397 1.209 . S
C403 O400 1.258 . S
C403 O405 1.282 . S
O404 Cd396 2.277 . S
O404 C397 1.226 . S
O405 Cd396 2.356 . S
O405 C403 1.282 . S
C406 O407 1.306 . S
C406 O409 1.160 . S
O407 C406 1.306 . S
O407 Cd408 2.228 . S
Cd408 O407 2.228 . S
Cd408 O412 2.273 . S
Cd408 O416 2.277 . S
O409 C406 1.160 . S
O409 Cd410 2.203 . S
Cd410 O409 2.203 . S
Cd410 O412 2.411 . S
Cd410 O413 2.333 . S
Cd410 O414 2.352 . S
Cd410 O418 2.277 . S
Cd410 O419 2.356 . S
C411 O416 1.209 . S
C411 O418 1.226 . S
O412 Cd408 2.273 . S
O412 Cd410 2.411 . S
O412 C415 1.320 . S
O413 Cd410 2.333 . S
O413 C415 1.214 . S
O414 Cd410 2.352 . S
O414 C417 1.258 . S
C415 O412 1.320 . S
C415 O413 1.214 . S
O416 Cd408 2.277 . S
O416 C411 1.209 . S
C417 O414 1.258 . S
C417 O419 1.282 . S
O418 Cd410 2.277 . S
O418 C411 1.226 . S
O419 Cd410 2.356 . S
O419 C417 1.282 . S
C420 O421 1.306 . S
C420 O423 1.160 . S
O421 C420 1.306 . S
O421 Cd422 2.228 . S
Cd422 O421 2.228 . S
Cd422 O426 2.273 . S
Cd422 O430 2.277 . S
O423 C420 1.160 . S
O423 Cd424 2.203 . S
Cd424 O423 2.203 . S
Cd424 O426 2.411 . S
Cd424 O427 2.333 . S
Cd424 O428 2.352 . S
Cd424 O432 2.277 . S
Cd424 O433 2.356 . S
C425 O430 1.209 . S
C425 O432 1.226 . S
O426 Cd422 2.273 . S
O426 Cd424 2.411 . S
O426 C429 1.320 . S
O427 Cd424 2.333 . S
O427 C429 1.214 . S
O428 Cd424 2.352 . S
O428 C431 1.258 . S
C429 O426 1.320 . S
C429 O427 1.214 . S
O430 Cd422 2.277 . S
O430 C425 1.209 . S
C431 O428 1.258 . S
C431 O433 1.282 . S
O432 Cd424 2.277 . S
O432 C425 1.226 . S
O433 Cd424 2.356 . S
O433 C431 1.282 . S
C434 O435 1.306 . S
C434 O437 1.160 . S
O435 C434 1.306 . S
O435 Cd436 2.228 1_556 S
Cd436 O435 2.228 1_554 S
Cd436 O440 2.273 1_554 S
Cd436 O444 2.277 1_554 S
O437 C434 1.160 . S
O437 Cd438 2.203 . S
Cd438 O437 2.203 . S
Cd438 O440 2.411 . S
Cd438 O441 2.333 . S
Cd438 O442 2.352 . S
Cd438 O446 2.277 . S
Cd438 O447 2.356 . S
C439 O444 1.209 . S
C439 O446 1.226 . S
O440 Cd436 2.273 1_556 S
O440 Cd438 2.411 . S
O440 C443 1.320 . S
O441 Cd438 2.333 . S
O441 C443 1.214 . S
O442 Cd438 2.352 . S
O442 C445 1.258 . S
C443 O440 1.320 . S
C443 O441 1.214 . S
O444 Cd436 2.277 1_556 S
O444 C439 1.209 . S
C445 O442 1.258 . S
C445 O447 1.282 . S
O446 Cd438 2.277 . S
O446 C439 1.226 . S
O447 Cd438 2.356 . S
O447 C445 1.282 . S
H448 C454 0.930 . S
H449 C457 0.930 . S
H450 C458 0.930 . S
H451 C459 0.930 . S
H452 C462 0.930 . S
H453 C463 0.930 . S
C454 H448 0.930 . S
C454 C455 1.355 . S
C454 C456 1.415 . S
C455 C454 1.355 . S
C455 C457 1.419 . S
C456 C454 1.415 . S
C456 C461 1.425 . S
C456 C463 1.409 . S
C457 H449 0.930 . S
C457 C455 1.419 . S
C457 C458 1.362 . S
C458 H450 0.930 . S
C458 C457 1.362 . S
C458 C461 1.409 . S
C459 H451 0.930 . S
C459 C460 1.355 . S
C459 C461 1.415 . S
C460 C459 1.355 . S
C460 C462 1.419 . S
C461 C456 1.425 . S
C461 C458 1.409 . S
C461 C459 1.415 . S
C462 H452 0.930 . S
C462 C460 1.419 . S
C462 C463 1.362 . S
C463 H453 0.930 . S
C463 C456 1.409 . S
C463 C462 1.362 . S
H464 C470 0.930 . S
H465 C473 0.930 . S
H466 C474 0.919 1_545 S
H467 C475 0.930 . S
H468 C478 0.930 . S
H469 C479 0.919 1_565 S
C470 H464 0.930 . S
C470 C471 1.355 . S
C470 C472 1.415 . S
C471 C470 1.355 . S
C471 C473 1.419 . S
C472 C470 1.415 . S
C472 C477 1.425 1_565 S
C472 C479 1.403 1_565 S
C473 H465 0.930 . S
C473 C471 1.419 . S
C473 C474 1.380 . S
C474 H466 0.919 1_565 S
C474 C473 1.380 . S
C474 C477 1.403 1_565 S
C475 H467 0.930 . S
C475 C476 1.355 . S
C475 C477 1.415 . S
C476 C475 1.355 . S
C476 C478 1.419 . S
C477 C472 1.425 1_545 S
C477 C474 1.403 1_545 S
C477 C475 1.415 . S
C478 H468 0.930 . S
C478 C476 1.419 . S
C478 C479 1.380 . S
C479 H469 0.919 1_545 S
C479 C472 1.403 1_545 S
C479 C478 1.380 . S
H480 C486 0.930 . S
H481 C489 0.930 . S
H482 C490 0.930 . S
H483 C491 0.930 . S
H484 C494 0.930 . S
H485 C495 0.930 . S
C486 H480 0.930 . S
C486 C487 1.355 . S
C486 C488 1.415 . S
C487 C486 1.355 . S
C487 C489 1.419 . S
C488 C486 1.415 . S
C488 C493 1.425 . S
C488 C495 1.409 . S
C489 H481 0.930 . S
C489 C487 1.419 . S
C489 C490 1.362 . S
C490 H482 0.930 . S
C490 C489 1.362 . S
C490 C493 1.409 . S
C491 H483 0.930 . S
C491 C492 1.355 . S
C491 C493 1.415 . S
C492 C491 1.355 . S
C492 C494 1.419 . S
C493 C488 1.425 . S
C493 C490 1.409 . S
C493 C491 1.415 . S
C494 H484 0.930 . S
C494 C492 1.419 . S
C494 C495 1.362 . S
C495 H485 0.930 . S
C495 C488 1.409 . S
C495 C494 1.362 . S
H496 C502 0.930 . S
H497 C505 0.930 . S
H498 C506 0.930 . S
H499 C507 0.930 . S
H500 C510 0.930 . S
H501 C511 0.930 . S
C502 H496 0.930 . S
C502 C503 1.355 . S
C502 C504 1.415 1_556 S
C503 C502 1.355 . S
C503 C505 1.419 . S
C504 C502 1.415 1_554 S
C504 C509 1.425 1_544 S
C504 C511 1.409 1_545 S
C505 H497 0.930 . S
C505 C503 1.419 . S
C505 C506 1.362 . S
C506 H498 0.930 . S
C506 C505 1.362 . S
C506 C509 1.409 1_545 S
C507 H499 0.930 . S
C507 C508 1.355 . S
C507 C509 1.415 1_554 S
C508 C507 1.355 . S
C508 C510 1.419 . S
C509 C504 1.425 1_566 S
C509 C506 1.409 1_565 S
C509 C507 1.415 1_556 S
C510 H500 0.930 . S
C510 C508 1.419 . S
C510 C511 1.362 . S
C511 H501 0.930 . S
C511 C504 1.409 1_565 S
C511 C510 1.362 . S
H512 C518 0.930 . S
H513 C521 0.930 . S
H514 C522 0.930 . S
H515 C523 0.930 . S
H516 C526 0.930 . S
H517 C527 0.930 . S
C518 H512 0.930 . S
C518 C519 1.355 . S
C518 C520 1.415 . S
C519 C518 1.355 . S
C519 C521 1.419 . S
C520 C518 1.415 . S
C520 C525 1.425 . S
C520 C527 1.409 . S
C521 H513 0.930 . S
C521 C519 1.419 . S
C521 C522 1.362 . S
C522 H514 0.930 . S
C522 C521 1.362 . S
C522 C525 1.409 . S
C523 H515 0.930 . S
C523 C524 1.355 . S
C523 C525 1.415 . S
C524 C523 1.355 . S
C524 C526 1.419 . S
C525 C520 1.425 . S
C525 C522 1.409 . S
C525 C523 1.415 . S
C526 H516 0.930 . S
C526 C524 1.419 . S
C526 C527 1.362 . S
C527 H517 0.930 . S
C527 C520 1.409 . S
C527 C526 1.362 . S
H528 C534 0.930 . S
H529 C537 0.930 . S
H530 C538 0.952 . S
H531 C539 0.930 . S
H532 C542 0.930 . S
H533 C543 0.952 . S
C534 H528 0.930 . S
C534 C535 1.355 . S
C534 C536 1.415 . S
C535 C534 1.355 . S
C535 C537 1.419 . S
C536 C534 1.415 . S
C536 C541 1.425 1_565 S
C536 C543 1.409 1_565 S
C537 H529 0.930 . S
C537 C535 1.419 . S
C537 C538 1.362 . S
C538 H530 0.952 . S
C538 C537 1.362 . S
C538 C541 1.409 1_565 S
C539 H531 0.930 . S
C539 C540 1.355 . S
C539 C541 1.415 . S
C540 C539 1.355 . S
C540 C542 1.419 . S
C541 C536 1.425 1_545 S
C541 C538 1.409 1_545 S
C541 C539 1.415 . S
C542 H532 0.930 . S
C542 C540 1.419 . S
C542 C543 1.362 . S
C543 H533 0.952 . S
C543 C536 1.409 1_545 S
C543 C542 1.362 . S
H544 C550 0.930 . S
H545 C553 0.930 . S
H546 C554 0.930 . S
H547 C555 0.930 . S
H548 C558 0.930 . S
H549 C559 0.930 . S
C550 H544 0.930 . S
C550 C551 1.355 . S
C550 C552 1.415 . S
C551 C550 1.355 . S
C551 C553 1.419 . S
C552 C550 1.415 . S
C552 C557 1.425 . S
C552 C559 1.409 . S
C553 H545 0.930 . S
C553 C551 1.419 . S
C553 C554 1.362 . S
C554 H546 0.930 . S
C554 C553 1.362 . S
C554 C557 1.409 . S
C555 H547 0.930 . S
C555 C556 1.355 . S
C555 C557 1.415 . S
C556 C555 1.355 . S
C556 C558 1.419 . S
C557 C552 1.425 . S
C557 C554 1.409 . S
C557 C555 1.415 . S
C558 H548 0.930 . S
C558 C556 1.419 . S
C558 C559 1.362 . S
C559 H549 0.930 . S
C559 C552 1.409 . S
C559 C558 1.362 . S
H560 C566 0.930 . S
H561 C569 0.930 . S
H562 C570 0.930 . S
H563 C571 0.930 . S
H564 C574 0.930 . S
H565 C575 0.930 . S
C566 H560 0.930 . S
C566 C567 1.355 . S
C566 C568 1.415 1_556 S
C567 C566 1.355 . S
C567 C569 1.419 . S
C568 C566 1.415 1_554 S
C568 C573 1.425 1_544 S
C568 C575 1.409 1_545 S
C569 H561 0.930 . S
C569 C567 1.419 . S
C569 C570 1.362 . S
C570 H562 0.930 . S
C570 C569 1.362 . S
C570 C573 1.409 1_545 S
C571 H563 0.930 . S
C571 C572 1.355 . S
C571 C573 1.415 1_554 S
C572 C571 1.355 . S
C572 C574 1.419 . S
C573 C568 1.425 1_566 S
C573 C570 1.409 1_565 S
C573 C571 1.415 1_556 S
C574 H564 0.930 . S
C574 C572 1.419 . S
C574 C575 1.362 . S
C575 H565 0.930 . S
C575 C568 1.409 1_565 S
C575 C574 1.362 . S
H576 C582 0.930 . S
H577 C585 0.930 . S
H578 C586 0.930 . S
H579 C587 0.930 . S
H580 C590 0.930 . S
H581 C591 0.930 . S
C582 H576 0.930 . S
C582 C583 1.355 . S
C582 C584 1.415 . S
C583 C582 1.355 . S
C583 C585 1.419 . S
C584 C582 1.415 . S
C584 C589 1.425 . S
C584 C591 1.409 . S
C585 H577 0.930 . S
C585 C583 1.419 . S
C585 C586 1.362 . S
C586 H578 0.930 . S
C586 C585 1.362 . S
C586 C589 1.409 . S
C587 H579 0.930 . S
C587 C588 1.355 . S
C587 C589 1.415 . S
C588 C587 1.355 . S
C588 C590 1.419 . S
C589 C584 1.425 . S
C589 C586 1.409 . S
C589 C587 1.415 . S
C590 H580 0.930 . S
C590 C588 1.419 . S
C590 C591 1.362 . S
C591 H581 0.930 . S
C591 C584 1.409 . S
C591 C590 1.362 . S
H592 C598 0.930 . S
H593 C601 0.930 . S
H594 C602 0.930 . S
H595 C603 0.930 . S
H596 C606 0.930 . S
H597 C607 0.930 . S
C598 H592 0.930 . S
C598 C599 1.355 . S
C598 C600 1.415 1_556 S
C599 C598 1.355 . S
C599 C601 1.419 . S
C600 C598 1.415 1_554 S
C600 C605 1.425 1_554 S
C600 C607 1.409 . S
C601 H593 0.930 . S
C601 C599 1.419 . S
C601 C602 1.362 . S
C602 H594 0.930 . S
C602 C601 1.362 . S
C602 C605 1.409 . S
C603 H595 0.930 . S
C603 C604 1.355 . S
C603 C605 1.415 1_554 S
C604 C603 1.355 . S
C604 C606 1.419 . S
C605 C600 1.425 1_556 S
C605 C602 1.409 . S
C605 C603 1.415 1_556 S
C606 H596 0.930 . S
C606 C604 1.419 . S
C606 C607 1.362 . S
C607 H597 0.930 . S
C607 C600 1.409 . S
C607 C606 1.362 . S
H608 C614 0.930 . S
H609 C617 0.930 . S
H610 C618 0.930 . S
H611 C619 0.930 . S
H612 C622 0.930 . S
H613 C623 0.930 . S
C614 H608 0.930 . S
C614 C615 1.355 . S
C614 C616 1.415 . S
C615 C614 1.355 . S
C615 C617 1.419 . S
C616 C614 1.415 . S
C616 C621 1.425 . S
C616 C623 1.409 . S
C617 H609 0.930 . S
C617 C615 1.419 . S
C617 C618 1.362 . S
C618 H610 0.930 . S
C618 C617 1.362 . S
C618 C621 1.409 . S
C619 H611 0.930 . S
C619 C620 1.355 . S
C619 C621 1.415 . S
C620 C619 1.355 . S
C620 C622 1.419 . S
C621 C616 1.425 . S
C621 C618 1.409 . S
C621 C619 1.415 . S
C622 H612 0.930 . S
C622 C620 1.419 . S
C622 C623 1.362 . S
C623 H613 0.930 . S
C623 C616 1.409 . S
C623 C622 1.362 . S
H624 C630 0.930 . S
H625 C633 0.930 . S
H626 C634 0.930 . S
H627 C635 0.930 . S
H628 C638 0.930 . S
H629 C639 0.930 . S
C630 H624 0.930 . S
C630 C631 1.355 . S
C630 C632 1.415 . S
C631 C630 1.355 . S
C631 C633 1.419 . S
C632 C630 1.415 . S
C632 C637 1.425 . S
C632 C639 1.409 . S
C633 H625 0.930 . S
C633 C631 1.419 . S
C633 C634 1.362 . S
C634 H626 0.930 . S
C634 C633 1.362 . S
C634 C637 1.409 . S
C635 H627 0.930 . S
C635 C636 1.355 . S
C635 C637 1.415 . S
C636 C635 1.355 . S
C636 C638 1.419 . S
C637 C632 1.425 . S
C637 C634 1.409 . S
C637 C635 1.415 . S
C638 H628 0.930 . S
C638 C636 1.419 . S
C638 C639 1.362 . S
C639 H629 0.930 . S
C639 C632 1.409 . S
C639 C638 1.362 . S
H640 C646 0.930 . S
H641 C649 0.930 . S
H642 C650 0.930 . S
H643 C651 0.930 . S
H644 C654 0.930 . S
H645 C655 0.930 . S
C646 H640 0.930 . S
C646 C647 1.355 . S
C646 C648 1.415 . S
C647 C646 1.355 . S
C647 C649 1.419 . S
C648 C646 1.415 . S
C648 C653 1.425 . S
C648 C655 1.409 . S
C649 H641 0.930 . S
C649 C647 1.419 . S
C649 C650 1.362 . S
C650 H642 0.930 . S
C650 C649 1.362 . S
C650 C653 1.409 . S
C651 H643 0.930 . S
C651 C652 1.355 . S
C651 C653 1.415 . S
C652 C651 1.355 . S
C652 C654 1.419 . S
C653 C648 1.425 . S
C653 C650 1.409 . S
C653 C651 1.415 . S
C654 H644 0.930 . S
C654 C652 1.419 . S
C654 C655 1.362 . S
C655 H645 0.930 . S
C655 C648 1.409 . S
C655 C654 1.362 . S
H656 C662 0.930 . S
H657 C665 0.930 . S
H658 C666 0.930 . S
H659 C667 0.930 . S
H660 C670 0.930 . S
H661 C671 0.930 . S
C662 H656 0.930 . S
C662 C663 1.355 . S
C662 C664 1.415 1_554 S
C663 C662 1.355 . S
C663 C665 1.419 . S
C664 C662 1.415 1_556 S
C664 C669 1.425 1_556 S
C664 C671 1.409 . S
C665 H657 0.930 . S
C665 C663 1.419 . S
C665 C666 1.362 . S
C666 H658 0.930 . S
C666 C665 1.362 . S
C666 C669 1.409 . S
C667 H659 0.930 . S
C667 C668 1.355 . S
C667 C669 1.415 1_556 S
C668 C667 1.355 . S
C668 C670 1.419 . S
C669 C664 1.425 1_554 S
C669 C666 1.409 . S
C669 C667 1.415 1_554 S
C670 H660 0.930 . S
C670 C668 1.419 . S
C670 C671 1.362 . S
C671 H661 0.930 . S
C671 C664 1.409 . S
C671 C670 1.362 . S
H672 C678 0.930 . S
H673 C681 0.930 . S
H674 C682 0.930 . S
H675 C683 0.930 . S
H676 C686 0.930 . S
H677 C687 0.930 . S
C678 H672 0.930 . S
C678 C679 1.355 . S
C678 C680 1.415 . S
C679 C678 1.355 . S
C679 C681 1.419 . S
C680 C678 1.415 . S
C680 C685 1.425 . S
C680 C687 1.409 . S
C681 H673 0.930 . S
C681 C679 1.419 . S
C681 C682 1.362 . S
C682 H674 0.930 . S
C682 C681 1.362 . S
C682 C685 1.409 . S
C683 H675 0.930 . S
C683 C684 1.355 . S
C683 C685 1.415 . S
C684 C683 1.355 . S
C684 C686 1.419 . S
C685 C680 1.425 . S
C685 C682 1.409 . S
C685 C683 1.415 . S
C686 H676 0.930 . S
C686 C684 1.419 . S
C686 C687 1.362 . S
C687 H677 0.930 . S
C687 C680 1.409 . S
C687 C686 1.362 . S
H688 C694 0.930 . S
H689 C697 0.930 . S
H690 C698 0.930 . S
H691 C699 0.930 . S
H692 C702 0.930 . S
H693 C703 0.930 . S
C694 H688 0.930 . S
C694 C695 1.355 . S
C694 C696 1.415 . S
C695 C694 1.355 . S
C695 C697 1.419 . S
C696 C694 1.415 . S
C696 C701 1.425 . S
C696 C703 1.409 . S
C697 H689 0.930 . S
C697 C695 1.419 . S
C697 C698 1.362 . S
C698 H690 0.930 . S
C698 C697 1.362 . S
C698 C701 1.409 . S
C699 H691 0.930 . S
C699 C700 1.355 . S
C699 C701 1.415 . S
C700 C699 1.355 . S
C700 C702 1.419 . S
C701 C696 1.425 . S
C701 C698 1.409 . S
C701 C699 1.415 . S
C702 H692 0.930 . S
C702 C700 1.419 . S
C702 C703 1.362 . S
C703 H693 0.930 . S
C703 C696 1.409 . S
C703 C702 1.362 . S
H704 C710 0.930 . S
H705 C713 0.930 1_554 S
H706 C714 0.930 . S
H707 C715 0.930 . S
H708 C718 0.930 . S
H709 C719 0.930 . S
C710 H704 0.930 . S
C710 C711 1.355 . S
C710 C712 1.415 . S
C711 C710 1.355 . S
C711 C713 1.419 . S
C712 C710 1.415 . S
C712 C717 1.425 . S
C712 C719 1.409 . S
C713 H705 0.930 1_556 S
C713 C711 1.419 . S
C713 C714 1.362 . S
C714 H706 0.930 . S
C714 C713 1.362 . S
C714 C717 1.409 . S
C715 H707 0.930 . S
C715 C716 1.355 . S
C715 C717 1.415 . S
C716 C715 1.355 . S
C716 C718 1.419 . S
C717 C712 1.425 . S
C717 C714 1.409 . S
C717 C715 1.415 . S
C718 H708 0.930 . S
C718 C716 1.419 . S
C718 C719 1.362 . S
C719 H709 0.930 . S
C719 C712 1.409 . S
C719 C718 1.362 . S
H720 C726 0.930 . S
H721 C729 0.930 1_556 S
H722 C730 0.930 . S
H723 C731 0.930 . S
H724 C734 0.930 . S
H725 C735 0.930 . S
C726 H720 0.930 . S
C726 C727 1.355 . S
C726 C728 1.415 . S
C727 C726 1.355 . S
C727 C729 1.419 . S
C728 C726 1.415 . S
C728 C733 1.425 . S
C728 C735 1.409 . S
C729 H721 0.930 1_554 S
C729 C727 1.419 . S
C729 C730 1.362 . S
C730 H722 0.930 . S
C730 C729 1.362 . S
C730 C733 1.409 . S
C731 H723 0.930 . S
C731 C732 1.355 . S
C731 C733 1.415 . S
C732 C731 1.355 . S
C732 C734 1.419 . S
C733 C728 1.425 . S
C733 C730 1.409 . S
C733 C731 1.415 . S
C734 H724 0.930 . S
C734 C732 1.419 . S
C734 C735 1.362 . S
C735 H725 0.930 . S
C735 C728 1.409 . S
C735 C734 1.362 . S
H736 C742 0.930 . S
H737 C745 0.930 . S
H738 C746 0.930 . S
H739 C747 0.930 . S
H740 C750 0.930 . S
H741 C751 0.930 . S
C742 H736 0.930 . S
C742 C743 1.355 . S
C742 C744 1.415 . S
C743 C742 1.355 . S
C743 C745 1.419 . S
C744 C742 1.415 . S
C744 C749 1.425 . S
C744 C751 1.409 . S
C745 H737 0.930 . S
C745 C743 1.419 . S
C745 C746 1.362 . S
C746 H738 0.930 . S
C746 C745 1.362 . S
C746 C749 1.409 . S
C747 H739 0.930 . S
C747 C748 1.355 . S
C747 C749 1.415 . S
C748 C747 1.355 . S
C748 C750 1.419 . S
C749 C744 1.425 . S
C749 C746 1.409 . S
C749 C747 1.415 . S
C750 H740 0.930 . S
C750 C748 1.419 . S
C750 C751 1.362 . S
C751 H741 0.930 . S
C751 C744 1.409 . S
C751 C750 1.362 . S
H752 C758 0.930 . S
H753 C761 0.930 . S
H754 C762 0.930 . S
H755 C763 0.930 . S
H756 C766 0.930 . S
H757 C767 0.930 . S
C758 H752 0.930 . S
C758 C759 1.355 . S
C758 C760 1.415 . S
C759 C758 1.355 . S
C759 C761 1.419 . S
C760 C758 1.415 . S
C760 C765 1.425 . S
C760 C767 1.409 . S
C761 H753 0.930 . S
C761 C759 1.419 . S
C761 C762 1.362 . S
C762 H754 0.930 . S
C762 C761 1.362 . S
C762 C765 1.409 . S
C763 H755 0.930 . S
C763 C764 1.355 . S
C763 C765 1.415 . S
C764 C763 1.355 . S
C764 C766 1.419 . S
C765 C760 1.425 . S
C765 C762 1.409 . S
C765 C763 1.415 . S
C766 H756 0.930 . S
C766 C764 1.419 . S
C766 C767 1.362 . S
C767 H757 0.930 . S
C767 C760 1.409 . S
C767 C766 1.362 . S
H768 C774 0.930 . S
H769 C777 0.930 1_556 S
H770 C778 0.930 . S
H771 C779 0.930 . S
H772 C782 0.930 . S
H773 C783 0.930 . S
C774 H768 0.930 . S
C774 C775 1.355 . S
C774 C776 1.415 . S
C775 C774 1.355 . S
C775 C777 1.419 . S
C776 C774 1.415 . S
C776 C781 1.425 . S
C776 C783 1.409 . S
C777 H769 0.930 1_554 S
C777 C775 1.419 . S
C777 C778 1.362 . S
C778 H770 0.930 . S
C778 C777 1.362 . S
C778 C781 1.409 . S
C779 H771 0.930 . S
C779 C780 1.355 . S
C779 C781 1.415 . S
C780 C779 1.355 . S
C780 C782 1.419 . S
C781 C776 1.425 . S
C781 C778 1.409 . S
C781 C779 1.415 . S
C782 H772 0.930 . S
C782 C780 1.419 . S
C782 C783 1.362 . S
C783 H773 0.930 . S
C783 C776 1.409 . S
C783 C782 1.362 . S
H784 C790 0.930 . S
H785 C793 0.930 . S
H786 C794 0.930 . S
H787 C795 0.930 . S
H788 C798 0.930 . S
H789 C799 0.930 . S
C790 H784 0.930 . S
C790 C791 1.355 . S
C790 C792 1.415 . S
C791 C790 1.355 . S
C791 C793 1.419 . S
C792 C790 1.415 . S
C792 C797 1.425 . S
C792 C799 1.409 . S
C793 H785 0.930 . S
C793 C791 1.419 . S
C793 C794 1.362 . S
C794 H786 0.930 . S
C794 C793 1.362 . S
C794 C797 1.409 . S
C795 H787 0.930 . S
C795 C796 1.355 . S
C795 C797 1.415 . S
C796 C795 1.355 . S
C796 C798 1.419 . S
C797 C792 1.425 . S
C797 C794 1.409 . S
C797 C795 1.415 . S
C798 H788 0.930 . S
C798 C796 1.419 . S
C798 C799 1.362 . S
C799 H789 0.930 . S
C799 C792 1.409 . S
C799 C798 1.362 . S
H800 C806 0.930 . S
H801 C809 0.930 . S
H802 C810 0.930 . S
H803 C811 0.930 . S
H804 C814 0.930 . S
H805 C815 0.930 . S
C806 H800 0.930 . S
C806 C807 1.355 . S
C806 C808 1.415 . S
C807 C806 1.355 . S
C807 C809 1.419 . S
C808 C806 1.415 . S
C808 C813 1.425 . S
C808 C815 1.409 . S
C809 H801 0.930 . S
C809 C807 1.419 . S
C809 C810 1.362 . S
C810 H802 0.930 . S
C810 C809 1.362 . S
C810 C813 1.409 . S
C811 H803 0.930 . S
C811 C812 1.355 . S
C811 C813 1.415 . S
C812 C811 1.355 . S
C812 C814 1.419 . S
C813 C808 1.425 . S
C813 C810 1.409 . S
C813 C811 1.415 . S
C814 H804 0.930 . S
C814 C812 1.419 . S
C814 C815 1.362 . S
C815 H805 0.930 . S
C815 C808 1.409 . S
C815 C814 1.362 . S
H816 C822 0.930 . S
H817 C825 0.930 . S
H818 C826 0.930 . S
H819 C827 0.930 . S
H820 C830 0.930 . S
H821 C831 0.930 . S
C822 H816 0.930 . S
C822 C823 1.355 . S
C822 C824 1.415 . S
C823 C822 1.355 . S
C823 C825 1.419 . S
C824 C822 1.415 . S
C824 C829 1.425 . S
C824 C831 1.409 . S
C825 H817 0.930 . S
C825 C823 1.419 . S
C825 C826 1.362 . S
C826 H818 0.930 . S
C826 C825 1.362 . S
C826 C829 1.409 . S
C827 H819 0.930 . S
C827 C828 1.355 . S
C827 C829 1.415 . S
C828 C827 1.355 . S
C828 C830 1.419 . S
C829 C824 1.425 . S
C829 C826 1.409 . S
C829 C827 1.415 . S
C830 H820 0.930 . S
C830 C828 1.419 . S
C830 C831 1.362 . S
C831 H821 0.930 . S
C831 C824 1.409 . S
C831 C830 1.362 . S
H832 C838 0.930 . S
H833 C841 0.930 . S
H834 C842 0.930 . S
H835 C843 0.930 . S
H836 C846 0.930 . S
H837 C847 0.930 . S
C838 H832 0.930 . S
C838 C839 1.355 . S
C838 C840 1.415 . S
C839 C838 1.355 . S
C839 C841 1.419 . S
C840 C838 1.415 . S
C840 C845 1.425 . S
C840 C847 1.409 . S
C841 H833 0.930 . S
C841 C839 1.419 . S
C841 C842 1.362 . S
C842 H834 0.930 . S
C842 C841 1.362 . S
C842 C845 1.409 . S
C843 H835 0.930 . S
C843 C844 1.355 . S
C843 C845 1.415 . S
C844 C843 1.355 . S
C844 C846 1.419 . S
C845 C840 1.425 . S
C845 C842 1.409 . S
C845 C843 1.415 . S
C846 H836 0.930 . S
C846 C844 1.419 . S
C846 C847 1.362 . S
C847 H837 0.930 . S
C847 C840 1.409 . S
C847 C846 1.362 . S
H848 C854 0.930 . S
H849 C857 0.930 . S
H850 C858 0.930 . S
H851 C859 0.930 . S
H852 C862 0.930 . S
H853 C863 0.930 . S
C854 H848 0.930 . S
C854 C855 1.355 . S
C854 C856 1.415 . S
C855 C854 1.355 . S
C855 C857 1.419 . S
C856 C854 1.415 . S
C856 C861 1.425 . S
C856 C863 1.409 . S
C857 H849 0.930 . S
C857 C855 1.419 . S
C857 C858 1.362 . S
C858 H850 0.930 . S
C858 C857 1.362 . S
C858 C861 1.409 . S
C859 H851 0.930 . S
C859 C860 1.355 . S
C859 C861 1.415 . S
C860 C859 1.355 . S
C860 C862 1.419 . S
C861 C856 1.425 . S
C861 C858 1.409 . S
C861 C859 1.415 . S
C862 H852 0.930 . S
C862 C860 1.419 . S
C862 C863 1.362 . S
C863 H853 0.930 . S
C863 C856 1.409 . S
C863 C862 1.362 . S
H864 C870 0.930 . S
H865 C873 0.930 . S
H866 C874 0.930 . S
H867 C875 0.930 . S
H868 C878 0.930 1_554 S
H869 C879 0.930 . S
C870 H864 0.930 . S
C870 C871 1.355 . S
C870 C872 1.415 . S
C871 C870 1.355 . S
C871 C873 1.419 . S
C872 C870 1.415 . S
C872 C877 1.425 . S
C872 C879 1.409 . S
C873 H865 0.930 . S
C873 C871 1.419 . S
C873 C874 1.362 . S
C874 H866 0.930 . S
C874 C873 1.362 . S
C874 C877 1.409 . S
C875 H867 0.930 . S
C875 C876 1.355 . S
C875 C877 1.415 . S
C876 C875 1.355 . S
C876 C878 1.419 . S
C877 C872 1.425 . S
C877 C874 1.409 . S
C877 C875 1.415 . S
C878 H868 0.930 1_556 S
C878 C876 1.419 . S
C878 C879 1.362 . S
C879 H869 0.930 . S
C879 C872 1.409 . S
C879 C878 1.362 . S
H880 C886 0.930 . S
H881 C889 0.930 . S
H882 C890 0.930 . S
H883 C891 0.930 . S
H884 C894 0.930 1_556 S
H885 C895 0.930 . S
C886 H880 0.930 . S
C886 C887 1.355 . S
C886 C888 1.415 . S
C887 C886 1.355 . S
C887 C889 1.419 . S
C888 C886 1.415 . S
C888 C893 1.425 . S
C888 C895 1.409 . S
C889 H881 0.930 . S
C889 C887 1.419 . S
C889 C890 1.362 . S
C890 H882 0.930 . S
C890 C889 1.362 . S
C890 C893 1.409 . S
C891 H883 0.930 . S
C891 C892 1.355 . S
C891 C893 1.415 . S
C892 C891 1.355 . S
C892 C894 1.419 . S
C893 C888 1.425 . S
C893 C890 1.409 . S
C893 C891 1.415 . S
C894 H884 0.930 1_554 S
C894 C892 1.419 . S
C894 C895 1.362 . S
C895 H885 0.930 . S
C895 C888 1.409 . S
C895 C894 1.362 . S
H896 C902 0.930 . S
H897 C905 0.930 . S
H898 C906 0.930 . S
H899 C907 0.930 . S
H900 C910 0.930 . S
H901 C911 0.930 . S
C902 H896 0.930 . S
C902 C903 1.355 . S
C902 C904 1.415 . S
C903 C902 1.355 . S
C903 C905 1.419 . S
C904 C902 1.415 . S
C904 C909 1.425 . S
C904 C911 1.409 . S
C905 H897 0.930 . S
C905 C903 1.419 . S
C905 C906 1.362 . S
C906 H898 0.930 . S
C906 C905 1.362 . S
C906 C909 1.409 . S
C907 H899 0.930 . S
C907 C908 1.355 . S
C907 C909 1.415 . S
C908 C907 1.355 . S
C908 C910 1.419 . S
C909 C904 1.425 . S
C909 C906 1.409 . S
C909 C907 1.415 . S
C910 H900 0.930 . S
C910 C908 1.419 . S
C910 C911 1.362 . S
C911 H901 0.930 . S
C911 C904 1.409 . S
C911 C910 1.362 . S
H912 C918 0.930 . S
H913 C921 0.930 . S
H914 C922 0.930 . S
H915 C923 0.930 . S
H916 C926 0.930 . S
H917 C927 0.930 . S
C918 H912 0.930 . S
C918 C919 1.355 . S
C918 C920 1.415 . S
C919 C918 1.355 . S
C919 C921 1.419 . S
C920 C918 1.415 . S
C920 C925 1.425 . S
C920 C927 1.409 . S
C921 H913 0.930 . S
C921 C919 1.419 . S
C921 C922 1.362 . S
C922 H914 0.930 . S
C922 C921 1.362 . S
C922 C925 1.409 . S
C923 H915 0.930 . S
C923 C924 1.355 . S
C923 C925 1.415 . S
C924 C923 1.355 . S
C924 C926 1.419 . S
C925 C920 1.425 . S
C925 C922 1.409 . S
C925 C923 1.415 . S
C926 H916 0.930 . S
C926 C924 1.419 . S
C926 C927 1.362 . S
C927 H917 0.930 . S
C927 C920 1.409 . S
C927 C926 1.362 . S
H928 C934 0.930 . S
H929 C937 0.930 1_556 S
H930 C938 0.930 . S
H931 C939 0.930 . S
H932 C942 0.930 . S
H933 C943 0.930 . S
C934 H928 0.930 . S
C934 C935 1.355 . S
C934 C936 1.415 . S
C935 C934 1.355 . S
C935 C937 1.419 . S
C936 C934 1.415 . S
C936 C941 1.425 . S
C936 C943 1.409 . S
C937 H929 0.930 1_554 S
C937 C935 1.419 . S
C937 C938 1.362 . S
C938 H930 0.930 . S
C938 C937 1.362 . S
C938 C941 1.409 . S
C939 H931 0.930 . S
C939 C940 1.355 . S
C939 C941 1.415 . S
C940 C939 1.355 . S
C940 C942 1.419 . S
C941 C936 1.425 . S
C941 C938 1.409 . S
C941 C939 1.415 . S
C942 H932 0.930 . S
C942 C940 1.419 . S
C942 C943 1.362 . S
C943 H933 0.930 . S
C943 C936 1.409 . S
C943 C942 1.362 . S
H944 C950 0.930 . S
H945 C953 0.930 . S
H946 C954 0.930 . S
H947 C955 0.930 . S
H948 C958 0.930 . S
H949 C959 0.930 . S
C950 H944 0.930 . S
C950 C951 1.355 . S
C950 C952 1.415 . S
C951 C950 1.355 . S
C951 C953 1.419 . S
C952 C950 1.415 . S
C952 C957 1.425 . S
C952 C959 1.409 . S
C953 H945 0.930 . S
C953 C951 1.419 . S
C953 C954 1.362 . S
C954 H946 0.930 . S
C954 C953 1.362 . S
C954 C957 1.409 . S
C955 H947 0.930 . S
C955 C956 1.355 . S
C955 C957 1.415 . S
C956 C955 1.355 . S
C956 C958 1.419 . S
C957 C952 1.425 . S
C957 C954 1.409 . S
C957 C955 1.415 . S
C958 H948 0.930 . S
C958 C956 1.419 . S
C958 C959 1.362 . S
C959 H949 0.930 . S
C959 C952 1.409 . S
C959 C958 1.362 . S
H960 C966 0.930 . S
H961 C969 0.930 . S
H962 C970 0.930 . S
H963 C971 0.930 . S
H964 C974 0.930 . S
H965 C975 0.930 . S
C966 H960 0.930 . S
C966 C967 1.355 . S
C966 C968 1.415 . S
C967 C966 1.355 . S
C967 C969 1.419 . S
C968 C966 1.415 . S
C968 C973 1.425 . S
C968 C975 1.409 . S
C969 H961 0.930 . S
C969 C967 1.419 . S
C969 C970 1.362 . S
C970 H962 0.930 . S
C970 C969 1.362 . S
C970 C973 1.409 . S
C971 H963 0.930 . S
C971 C972 1.355 . S
C971 C973 1.415 . S
C972 C971 1.355 . S
C972 C974 1.419 . S
C973 C968 1.425 . S
C973 C970 1.409 . S
C973 C971 1.415 . S
C974 H964 0.930 . S
C974 C972 1.419 . S
C974 C975 1.362 . S
C975 H965 0.930 . S
C975 C968 1.409 . S
C975 C974 1.362 . S
H976 C982 0.930 . S
H977 C985 0.930 . S
H978 C986 0.930 . S
H979 C987 0.930 . S
H980 C990 0.930 . S
H981 C991 0.930 . S
C982 H976 0.930 . S
C982 C983 1.355 . S
C982 C984 1.415 . S
C983 C982 1.355 . S
C983 C985 1.419 . S
C984 C982 1.415 . S
C984 C989 1.425 1_655 S
C984 C991 1.409 1_655 S
C985 H977 0.930 . S
C985 C983 1.419 . S
C985 C986 1.362 . S
C986 H978 0.930 . S
C986 C985 1.362 . S
C986 C989 1.409 1_655 S
C987 H979 0.930 . S
C987 C988 1.355 . S
C987 C989 1.415 . S
C988 C987 1.355 . S
C988 C990 1.419 . S
C989 C984 1.425 1_455 S
C989 C986 1.409 1_455 S
C989 C987 1.415 . S
C990 H980 0.930 . S
C990 C988 1.419 . S
C990 C991 1.362 . S
C991 H981 0.930 . S
C991 C984 1.409 1_455 S
C991 C990 1.362 . S
H992 C998 0.930 . S
H993 C1001 0.930 . S
H994 C1002 0.930 . S
H995 C1003 0.930 . S
H996 C1006 0.930 . S
H997 C1007 0.930 . S
C998 H992 0.930 . S
C998 C999 1.355 . S
C998 C1000 1.415 . S
C999 C998 1.355 . S
C999 C1001 1.419 . S
C1000 C998 1.415 . S
C1000 C1005 1.425 . S
C1000 C1007 1.409 . S
C1001 H993 0.930 . S
C1001 C999 1.419 . S
C1001 C1002 1.362 . S
C1002 H994 0.930 . S
C1002 C1001 1.362 . S
C1002 C1005 1.409 . S
C1003 H995 0.930 . S
C1003 C1004 1.355 . S
C1003 C1005 1.415 . S
C1004 C1003 1.355 . S
C1004 C1006 1.419 . S
C1005 C1000 1.425 . S
C1005 C1002 1.409 . S
C1005 C1003 1.415 . S
C1006 H996 0.930 . S
C1006 C1004 1.419 . S
C1006 C1007 1.362 . S
C1007 H997 0.930 . S
C1007 C1000 1.409 . S
C1007 C1006 1.362 . S
H1008 C1014 0.930 . S
H1009 C1017 0.930 . S
H1010 C1018 0.930 . S
H1011 C1019 0.930 . S
H1012 C1022 0.930 . S
H1013 C1023 0.930 . S
C1014 H1008 0.930 . S
C1014 C1015 1.355 . S
C1014 C1016 1.415 . S
C1015 C1014 1.355 . S
C1015 C1017 1.419 . S
C1016 C1014 1.415 . S
C1016 C1021 1.425 . S
C1016 C1023 1.409 . S
C1017 H1009 0.930 . S
C1017 C1015 1.419 . S
C1017 C1018 1.362 . S
C1018 H1010 0.930 . S
C1018 C1017 1.362 . S
C1018 C1021 1.409 . S
C1019 H1011 0.930 . S
C1019 C1020 1.355 . S
C1019 C1021 1.415 . S
C1020 C1019 1.355 . S
C1020 C1022 1.419 . S
C1021 C1016 1.425 . S
C1021 C1018 1.409 . S
C1021 C1019 1.415 . S
C1022 H1012 0.930 . S
C1022 C1020 1.419 . S
C1022 C1023 1.362 . S
C1023 H1013 0.930 . S
C1023 C1016 1.409 . S
C1023 C1022 1.362 . S
H1024 C1030 0.930 . S
H1025 C1033 0.930 . S
H1026 C1034 0.930 . S
H1027 C1035 0.930 . S
H1028 C1038 0.930 . S
H1029 C1039 0.930 . S
C1030 H1024 0.930 . S
C1030 C1031 1.355 . S
C1030 C1032 1.415 . S
C1031 C1030 1.355 . S
C1031 C1033 1.419 . S
C1032 C1030 1.415 . S
C1032 C1037 1.425 . S
C1032 C1039 1.409 . S
C1033 H1025 0.930 . S
C1033 C1031 1.419 . S
C1033 C1034 1.362 . S
C1034 H1026 0.930 . S
C1034 C1033 1.362 . S
C1034 C1037 1.409 . S
C1035 H1027 0.930 . S
C1035 C1036 1.355 . S
C1035 C1037 1.415 . S
C1036 C1035 1.355 . S
C1036 C1038 1.419 . S
C1037 C1032 1.425 . S
C1037 C1034 1.409 . S
C1037 C1035 1.415 . S
C1038 H1028 0.930 . S
C1038 C1036 1.419 . S
C1038 C1039 1.362 . S
C1039 H1029 0.930 . S
C1039 C1032 1.409 . S
C1039 C1038 1.362 . S
H1040 C1046 0.930 . S
H1041 C1049 0.930 . S
H1042 C1050 0.930 . S
H1043 C1051 0.930 . S
H1044 C1054 0.930 . S
H1045 C1055 0.930 . S
C1046 H1040 0.930 . S
C1046 C1047 1.355 . S
C1046 C1048 1.415 . S
C1047 C1046 1.355 . S
C1047 C1049 1.419 . S
C1048 C1046 1.415 . S
C1048 C1053 1.425 . S
C1048 C1055 1.409 . S
C1049 H1041 0.930 . S
C1049 C1047 1.419 . S
C1049 C1050 1.362 . S
C1050 H1042 0.930 . S
C1050 C1049 1.362 . S
C1050 C1053 1.409 . S
C1051 H1043 0.930 . S
C1051 C1052 1.355 . S
C1051 C1053 1.415 . S
C1052 C1051 1.355 . S
C1052 C1054 1.419 . S
C1053 C1048 1.425 . S
C1053 C1050 1.409 . S
C1053 C1051 1.415 . S
C1054 H1044 0.930 . S
C1054 C1052 1.419 . S
C1054 C1055 1.362 . S
C1055 H1045 0.930 . S
C1055 C1048 1.409 . S
C1055 C1054 1.362 . S
H1056 C1062 0.930 . S
H1057 C1065 0.930 . S
H1058 C1066 0.930 . S
H1059 C1067 0.930 . S
H1060 C1070 0.930 . S
H1061 C1071 0.930 . S
C1062 H1056 0.930 . S
C1062 C1063 1.355 . S
C1062 C1064 1.415 . S
C1063 C1062 1.355 . S
C1063 C1065 1.419 . S
C1064 C1062 1.415 . S
C1064 C1069 1.425 . S
C1064 C1071 1.409 . S
C1065 H1057 0.930 . S
C1065 C1063 1.419 . S
C1065 C1066 1.362 . S
C1066 H1058 0.930 . S
C1066 C1065 1.362 . S
C1066 C1069 1.409 . S
C1067 H1059 0.930 . S
C1067 C1068 1.355 . S
C1067 C1069 1.415 . S
C1068 C1067 1.355 . S
C1068 C1070 1.419 . S
C1069 C1064 1.425 . S
C1069 C1066 1.409 . S
C1069 C1067 1.415 . S
C1070 H1060 0.930 . S
C1070 C1068 1.419 . S
C1070 C1071 1.362 . S
C1071 H1061 0.930 . S
C1071 C1064 1.409 . S
C1071 C1070 1.362 . S
H1072 C1078 0.930 . S
H1073 C1081 0.930 . S
H1074 C1082 0.930 . S
H1075 C1083 0.930 . S
H1076 C1086 0.930 . S
H1077 C1087 0.930 . S
C1078 H1072 0.930 . S
C1078 C1079 1.355 . S
C1078 C1080 1.415 . S
C1079 C1078 1.355 . S
C1079 C1081 1.419 . S
C1080 C1078 1.415 . S
C1080 C1085 1.425 1_655 S
C1080 C1087 1.409 1_655 S
C1081 H1073 0.930 . S
C1081 C1079 1.419 . S
C1081 C1082 1.362 . S
C1082 H1074 0.930 . S
C1082 C1081 1.362 . S
C1082 C1085 1.409 1_655 S
C1083 H1075 0.930 . S
C1083 C1084 1.355 . S
C1083 C1085 1.415 . S
C1084 C1083 1.355 . S
C1084 C1086 1.419 . S
C1085 C1080 1.425 1_455 S
C1085 C1082 1.409 1_455 S
C1085 C1083 1.415 . S
C1086 H1076 0.930 . S
C1086 C1084 1.419 . S
C1086 C1087 1.362 . S
C1087 H1077 0.930 . S
C1087 C1080 1.409 1_455 S
C1087 C1086 1.362 . S
H1088 C1094 0.930 . S
H1089 C1097 0.930 . S
H1090 C1098 0.930 . S
H1091 C1099 0.930 . S
H1092 C1102 0.930 . S
H1093 C1103 0.930 . S
C1094 H1088 0.930 . S
C1094 C1095 1.355 . S
C1094 C1096 1.415 . S
C1095 C1094 1.355 . S
C1095 C1097 1.419 . S
C1096 C1094 1.415 . S
C1096 C1101 1.425 . S
C1096 C1103 1.409 . S
C1097 H1089 0.930 . S
C1097 C1095 1.419 . S
C1097 C1098 1.362 . S
C1098 H1090 0.930 . S
C1098 C1097 1.362 . S
C1098 C1101 1.409 . S
C1099 H1091 0.930 . S
C1099 C1100 1.355 . S
C1099 C1101 1.415 . S
C1100 C1099 1.355 . S
C1100 C1102 1.419 . S
C1101 C1096 1.425 . S
C1101 C1098 1.409 . S
C1101 C1099 1.415 . S
C1102 H1092 0.930 . S
C1102 C1100 1.419 . S
C1102 C1103 1.362 . S
C1103 H1093 0.930 . S
C1103 C1096 1.409 . S
C1103 C1102 1.362 . S
H1104 C1110 0.930 . S
H1105 C1113 0.930 . S
H1106 C1114 0.930 . S
H1107 C1115 0.930 . S
H1108 C1118 0.930 . S
H1109 C1119 0.930 . S
C1110 H1104 0.930 . S
C1110 C1111 1.355 . S
C1110 C1112 1.415 . S
C1111 C1110 1.355 . S
C1111 C1113 1.419 . S
C1112 C1110 1.415 . S
C1112 C1117 1.425 . S
C1112 C1119 1.409 . S
C1113 H1105 0.930 . S
C1113 C1111 1.419 . S
C1113 C1114 1.362 . S
C1114 H1106 0.930 . S
C1114 C1113 1.362 . S
C1114 C1117 1.409 . S
C1115 H1107 0.930 . S
C1115 C1116 1.355 . S
C1115 C1117 1.415 . S
C1116 C1115 1.355 . S
C1116 C1118 1.419 . S
C1117 C1112 1.425 . S
C1117 C1114 1.409 . S
C1117 C1115 1.415 . S
C1118 H1108 0.930 . S
C1118 C1116 1.419 . S
C1118 C1119 1.362 . S
C1119 H1109 0.930 . S
C1119 C1112 1.409 . S
C1119 C1118 1.362 . S
H1120 C1126 0.930 . S
H1121 C1129 0.930 . S
H1122 C1130 0.930 . S
H1123 C1131 0.930 . S
H1124 C1134 0.930 . S
H1125 C1135 0.930 . S
C1126 H1120 0.930 . S
C1126 C1127 1.355 . S
C1126 C1128 1.415 . S
C1127 C1126 1.355 . S
C1127 C1129 1.419 . S
C1128 C1126 1.415 . S
C1128 C1133 1.425 . S
C1128 C1135 1.409 . S
C1129 H1121 0.930 . S
C1129 C1127 1.419 . S
C1129 C1130 1.362 . S
C1130 H1122 0.930 . S
C1130 C1129 1.362 . S
C1130 C1133 1.409 . S
C1131 H1123 0.930 . S
C1131 C1132 1.355 . S
C1131 C1133 1.415 . S
C1132 C1131 1.355 . S
C1132 C1134 1.419 . S
C1133 C1128 1.425 . S
C1133 C1130 1.409 . S
C1133 C1131 1.415 . S
C1134 H1124 0.930 . S
C1134 C1132 1.419 . S
C1134 C1135 1.362 . S
C1135 H1125 0.930 . S
C1135 C1128 1.409 . S
C1135 C1134 1.362 . S
H1136 C1142 0.930 . S
H1137 C1145 0.930 . S
H1138 C1146 0.930 . S
H1139 C1147 0.930 . S
H1140 C1150 0.930 . S
H1141 C1151 0.930 . S
C1142 H1136 0.930 . S
C1142 C1143 1.355 . S
C1142 C1144 1.415 . S
C1143 C1142 1.355 . S
C1143 C1145 1.419 . S
C1144 C1142 1.415 . S
C1144 C1149 1.425 . S
C1144 C1151 1.409 . S
C1145 H1137 0.930 . S
C1145 C1143 1.419 . S
C1145 C1146 1.362 . S
C1146 H1138 0.930 . S
C1146 C1145 1.362 . S
C1146 C1149 1.409 . S
C1147 H1139 0.930 . S
C1147 C1148 1.355 . S
C1147 C1149 1.415 . S
C1148 C1147 1.355 . S
C1148 C1150 1.419 . S
C1149 C1144 1.425 . S
C1149 C1146 1.409 . S
C1149 C1147 1.415 . S
C1150 H1140 0.930 . S
C1150 C1148 1.419 . S
C1150 C1151 1.362 . S
C1151 H1141 0.930 . S
C1151 C1144 1.409 . S
C1151 C1150 1.362 . S
H1152 C1158 0.930 . S
H1153 C1161 0.930 . S
H1154 C1162 0.930 . S
H1155 C1163 0.930 . S
H1156 C1166 0.930 . S
H1157 C1167 0.930 . S
C1158 H1152 0.930 . S
C1158 C1159 1.355 . S
C1158 C1160 1.415 . S
C1159 C1158 1.355 . S
C1159 C1161 1.419 . S
C1160 C1158 1.415 . S
C1160 C1165 1.425 . S
C1160 C1167 1.409 . S
C1161 H1153 0.930 . S
C1161 C1159 1.419 . S
C1161 C1162 1.362 . S
C1162 H1154 0.930 . S
C1162 C1161 1.362 . S
C1162 C1165 1.409 . S
C1163 H1155 0.930 . S
C1163 C1164 1.355 . S
C1163 C1165 1.415 . S
C1164 C1163 1.355 . S
C1164 C1166 1.419 . S
C1165 C1160 1.425 . S
C1165 C1162 1.409 . S
C1165 C1163 1.415 . S
C1166 H1156 0.930 . S
C1166 C1164 1.419 . S
C1166 C1167 1.362 . S
C1167 H1157 0.930 . S
C1167 C1160 1.409 . S
C1167 C1166 1.362 . S
H1168 C1174 0.930 . S
H1169 C1177 0.930 . S
H1170 C1178 0.930 . S
H1171 C1179 0.930 . S
H1172 C1182 0.930 . S
H1173 C1183 0.930 . S
C1174 H1168 0.930 . S
C1174 C1175 1.355 . S
C1174 C1176 1.415 . S
C1175 C1174 1.355 . S
C1175 C1177 1.419 . S
C1176 C1174 1.415 . S
C1176 C1181 1.425 1_655 S
C1176 C1183 1.409 1_655 S
C1177 H1169 0.930 . S
C1177 C1175 1.419 . S
C1177 C1178 1.362 . S
C1178 H1170 0.930 . S
C1178 C1177 1.362 . S
C1178 C1181 1.409 1_655 S
C1179 H1171 0.930 . S
C1179 C1180 1.355 . S
C1179 C1181 1.415 . S
C1180 C1179 1.355 . S
C1180 C1182 1.419 . S
C1181 C1176 1.425 1_455 S
C1181 C1178 1.409 1_455 S
C1181 C1179 1.415 . S
C1182 H1172 0.930 . S
C1182 C1180 1.419 . S
C1182 C1183 1.362 . S
C1183 H1173 0.930 . S
C1183 C1176 1.409 1_455 S
C1183 C1182 1.362 . S
H1184 C1190 0.930 . S
H1185 C1193 0.930 . S
H1186 C1194 0.930 . S
H1187 C1195 0.930 . S
H1188 C1198 0.930 . S
H1189 C1199 0.930 . S
C1190 H1184 0.930 . S
C1190 C1191 1.355 . S
C1190 C1192 1.415 . S
C1191 C1190 1.355 . S
C1191 C1193 1.419 . S
C1192 C1190 1.415 . S
C1192 C1197 1.425 1_655 S
C1192 C1199 1.409 1_655 S
C1193 H1185 0.930 . S
C1193 C1191 1.419 . S
C1193 C1194 1.362 . S
C1194 H1186 0.930 . S
C1194 C1193 1.362 . S
C1194 C1197 1.409 1_655 S
C1195 H1187 0.930 . S
C1195 C1196 1.355 . S
C1195 C1197 1.415 . S
C1196 C1195 1.355 . S
C1196 C1198 1.419 . S
C1197 C1192 1.425 1_455 S
C1197 C1194 1.409 1_455 S
C1197 C1195 1.415 . S
C1198 H1188 0.930 . S
C1198 C1196 1.419 . S
C1198 C1199 1.362 . S
C1199 H1189 0.930 . S
C1199 C1192 1.409 1_455 S
C1199 C1198 1.362 . S
H1200 C1206 0.930 . S
H1201 C1209 0.930 . S
H1202 C1210 0.930 . S
H1203 C1211 0.930 . S
H1204 C1214 0.930 . S
H1205 C1215 0.930 . S
C1206 H1200 0.930 . S
C1206 C1207 1.355 . S
C1206 C1208 1.415 . S
C1207 C1206 1.355 . S
C1207 C1209 1.419 . S
C1208 C1206 1.415 . S
C1208 C1213 1.425 . S
C1208 C1215 1.409 . S
C1209 H1201 0.930 . S
C1209 C1207 1.419 . S
C1209 C1210 1.362 . S
C1210 H1202 0.930 . S
C1210 C1209 1.362 . S
C1210 C1213 1.409 . S
C1211 H1203 0.930 . S
C1211 C1212 1.355 . S
C1211 C1213 1.415 . S
C1212 C1211 1.355 . S
C1212 C1214 1.419 . S
C1213 C1208 1.425 . S
C1213 C1210 1.409 . S
C1213 C1211 1.415 . S
C1214 H1204 0.930 . S
C1214 C1212 1.419 . S
C1214 C1215 1.362 . S
C1215 H1205 0.930 . S
C1215 C1208 1.409 . S
C1215 C1214 1.362 . S
H1216 C1222 0.930 . S
H1217 C1225 0.930 . S
H1218 C1226 0.930 . S
H1219 C1227 0.930 . S
H1220 C1230 0.930 . S
H1221 C1231 0.930 . S
C1222 H1216 0.930 . S
C1222 C1223 1.355 . S
C1222 C1224 1.415 . S
C1223 C1222 1.355 . S
C1223 C1225 1.419 . S
C1224 C1222 1.415 . S
C1224 C1229 1.425 . S
C1224 C1231 1.409 . S
C1225 H1217 0.930 . S
C1225 C1223 1.419 . S
C1225 C1226 1.362 . S
C1226 H1218 0.930 . S
C1226 C1225 1.362 . S
C1226 C1229 1.409 . S
C1227 H1219 0.930 . S
C1227 C1228 1.355 . S
C1227 C1229 1.415 . S
C1228 C1227 1.355 . S
C1228 C1230 1.419 . S
C1229 C1224 1.425 . S
C1229 C1226 1.409 . S
C1229 C1227 1.415 . S
C1230 H1220 0.930 . S
C1230 C1228 1.419 . S
C1230 C1231 1.362 . S
C1231 H1221 0.930 . S
C1231 C1224 1.409 . S
C1231 C1230 1.362 . S
H1232 C1238 0.930 . S
H1233 C1241 0.930 . S
H1234 C1242 0.930 . S
H1235 C1243 0.930 . S
H1236 C1246 0.930 . S
H1237 C1247 0.930 . S
C1238 H1232 0.930 . S
C1238 C1239 1.355 . S
C1238 C1240 1.415 . S
C1239 C1238 1.355 . S
C1239 C1241 1.419 . S
C1240 C1238 1.415 . S
C1240 C1245 1.425 . S
C1240 C1247 1.409 . S
C1241 H1233 0.930 . S
C1241 C1239 1.419 . S
C1241 C1242 1.362 . S
C1242 H1234 0.930 . S
C1242 C1241 1.362 . S
C1242 C1245 1.409 . S
C1243 H1235 0.930 . S
C1243 C1244 1.355 . S
C1243 C1245 1.415 . S
C1244 C1243 1.355 . S
C1244 C1246 1.419 . S
C1245 C1240 1.425 . S
C1245 C1242 1.409 . S
C1245 C1243 1.415 . S
C1246 H1236 0.930 . S
C1246 C1244 1.419 . S
C1246 C1247 1.362 . S
C1247 H1237 0.930 . S
C1247 C1240 1.409 . S
C1247 C1246 1.362 . S
H1248 C1254 0.930 . S
H1249 C1257 0.930 1_554 S
H1250 C1258 0.930 . S
H1251 C1259 0.930 . S
H1252 C1262 0.930 . S
H1253 C1263 0.930 . S
C1254 H1248 0.930 . S
C1254 C1255 1.355 . S
C1254 C1256 1.415 . S
C1255 C1254 1.355 . S
C1255 C1257 1.419 . S
C1256 C1254 1.415 . S
C1256 C1261 1.425 . S
C1256 C1263 1.409 . S
C1257 H1249 0.930 1_556 S
C1257 C1255 1.419 . S
C1257 C1258 1.362 . S
C1258 H1250 0.930 . S
C1258 C1257 1.362 . S
C1258 C1261 1.409 . S
C1259 H1251 0.930 . S
C1259 C1260 1.355 . S
C1259 C1261 1.415 . S
C1260 C1259 1.355 . S
C1260 C1262 1.419 . S
C1261 C1256 1.425 . S
C1261 C1258 1.409 . S
C1261 C1259 1.415 . S
C1262 H1252 0.930 . S
C1262 C1260 1.419 . S
C1262 C1263 1.362 . S
C1263 H1253 0.930 . S
C1263 C1256 1.409 . S
C1263 C1262 1.362 . S
H1264 C1270 0.930 . S
H1265 C1273 0.930 1_556 S
H1266 C1274 0.930 . S
H1267 C1275 0.930 . S
H1268 C1278 0.930 . S
H1269 C1279 0.930 . S
C1270 H1264 0.930 . S
C1270 C1271 1.355 . S
C1270 C1272 1.415 . S
C1271 C1270 1.355 . S
C1271 C1273 1.419 . S
C1272 C1270 1.415 . S
C1272 C1277 1.425 . S
C1272 C1279 1.409 . S
C1273 H1265 0.930 1_554 S
C1273 C1271 1.419 . S
C1273 C1274 1.362 . S
C1274 H1266 0.930 . S
C1274 C1273 1.362 . S
C1274 C1277 1.409 . S
C1275 H1267 0.930 . S
C1275 C1276 1.355 . S
C1275 C1277 1.415 . S
C1276 C1275 1.355 . S
C1276 C1278 1.419 . S
C1277 C1272 1.425 . S
C1277 C1274 1.409 . S
C1277 C1275 1.415 . S
C1278 H1268 0.930 . S
C1278 C1276 1.419 . S
C1278 C1279 1.362 . S
C1279 H1269 0.930 . S
C1279 C1272 1.409 . S
C1279 C1278 1.362 . S
H1280 C1286 0.930 . S
H1281 C1289 0.930 . S
H1282 C1290 0.930 . S
H1283 C1291 0.930 . S
H1284 C1294 0.930 . S
H1285 C1295 0.930 . S
C1286 H1280 0.930 . S
C1286 C1287 1.355 . S
C1286 C1288 1.415 . S
C1287 C1286 1.355 . S
C1287 C1289 1.419 . S
C1288 C1286 1.415 . S
C1288 C1293 1.425 . S
C1288 C1295 1.409 . S
C1289 H1281 0.930 . S
C1289 C1287 1.419 . S
C1289 C1290 1.362 . S
C1290 H1282 0.930 . S
C1290 C1289 1.362 . S
C1290 C1293 1.409 . S
C1291 H1283 0.930 . S
C1291 C1292 1.355 . S
C1291 C1293 1.415 . S
C1292 C1291 1.355 . S
C1292 C1294 1.419 . S
C1293 C1288 1.425 . S
C1293 C1290 1.409 . S
C1293 C1291 1.415 . S
C1294 H1284 0.930 . S
C1294 C1292 1.419 . S
C1294 C1295 1.362 . S
C1295 H1285 0.930 . S
C1295 C1288 1.409 . S
C1295 C1294 1.362 . S
H1296 C1302 0.930 . S
H1297 C1305 0.930 . S
H1298 C1306 0.930 . S
H1299 C1307 0.930 . S
H1300 C1310 0.930 . S
H1301 C1311 0.930 . S
C1302 H1296 0.930 . S
C1302 C1303 1.355 . S
C1302 C1304 1.415 . S
C1303 C1302 1.355 . S
C1303 C1305 1.419 . S
C1304 C1302 1.415 . S
C1304 C1309 1.425 . S
C1304 C1311 1.409 . S
C1305 H1297 0.930 . S
C1305 C1303 1.419 . S
C1305 C1306 1.362 . S
C1306 H1298 0.930 . S
C1306 C1305 1.362 . S
C1306 C1309 1.409 . S
C1307 H1299 0.930 . S
C1307 C1308 1.355 . S
C1307 C1309 1.415 . S
C1308 C1307 1.355 . S
C1308 C1310 1.419 . S
C1309 C1304 1.425 . S
C1309 C1306 1.409 . S
C1309 C1307 1.415 . S
C1310 H1300 0.930 . S
C1310 C1308 1.419 . S
C1310 C1311 1.362 . S
C1311 H1301 0.930 . S
C1311 C1304 1.409 . S
C1311 C1310 1.362 . S
H1312 C1318 0.930 . S
H1313 C1321 0.930 . S
H1314 C1322 0.930 . S
H1315 C1323 0.930 . S
H1316 C1326 0.930 1_556 S
H1317 C1327 0.930 . S
C1318 H1312 0.930 . S
C1318 C1319 1.355 . S
C1318 C1320 1.415 . S
C1319 C1318 1.355 . S
C1319 C1321 1.419 . S
C1320 C1318 1.415 . S
C1320 C1325 1.425 . S
C1320 C1327 1.409 . S
C1321 H1313 0.930 . S
C1321 C1319 1.419 . S
C1321 C1322 1.362 . S
C1322 H1314 0.930 . S
C1322 C1321 1.362 . S
C1322 C1325 1.409 . S
C1323 H1315 0.930 . S
C1323 C1324 1.355 . S
C1323 C1325 1.415 . S
C1324 C1323 1.355 . S
C1324 C1326 1.419 . S
C1325 C1320 1.425 . S
C1325 C1322 1.409 . S
C1325 C1323 1.415 . S
C1326 H1316 0.930 1_554 S
C1326 C1324 1.419 . S
C1326 C1327 1.362 . S
C1327 H1317 0.930 . S
C1327 C1320 1.409 . S
C1327 C1326 1.362 . S
H1328 C1334 0.930 . S
H1329 C1337 0.930 . S
H1330 C1338 0.930 . S
H1331 C1339 0.930 . S
H1332 C1342 0.930 1_554 S
H1333 C1343 0.930 . S
C1334 H1328 0.930 . S
C1334 C1335 1.355 . S
C1334 C1336 1.415 . S
C1335 C1334 1.355 . S
C1335 C1337 1.419 . S
C1336 C1334 1.415 . S
C1336 C1341 1.425 . S
C1336 C1343 1.409 . S
C1337 H1329 0.930 . S
C1337 C1335 1.419 . S
C1337 C1338 1.362 . S
C1338 H1330 0.930 . S
C1338 C1337 1.362 . S
C1338 C1341 1.409 . S
C1339 H1331 0.930 . S
C1339 C1340 1.355 . S
C1339 C1341 1.415 . S
C1340 C1339 1.355 . S
C1340 C1342 1.419 . S
C1341 C1336 1.425 . S
C1341 C1338 1.409 . S
C1341 C1339 1.415 . S
C1342 H1332 0.930 1_556 S
C1342 C1340 1.419 . S
C1342 C1343 1.362 . S
C1343 H1333 0.930 . S
C1343 C1336 1.409 . S
C1343 C1342 1.362 . S
H1344 C1350 0.932 . S
H1345 C1353 0.930 . S
H1346 C1354 0.930 . S
H1347 C1355 0.930 . S
H1348 C1358 0.930 . S
H1349 C1359 0.930 . S
C1350 H1344 0.932 . S
C1350 C1351 1.355 . S
C1350 C1352 1.415 . S
C1351 C1350 1.355 . S
C1351 C1353 1.419 . S
C1352 C1350 1.415 . S
C1352 C1357 1.425 . S
C1352 C1359 1.409 . S
C1353 H1345 0.930 . S
C1353 C1351 1.419 . S
C1353 C1354 1.362 . S
C1354 H1346 0.930 . S
C1354 C1353 1.362 . S
C1354 C1357 1.409 . S
C1355 H1347 0.930 . S
C1355 C1356 1.355 . S
C1355 C1357 1.415 . S
C1356 C1355 1.355 . S
C1356 C1358 1.419 . S
C1357 C1352 1.425 . S
C1357 C1354 1.409 . S
C1357 C1355 1.415 . S
C1358 H1348 0.930 . S
C1358 C1356 1.419 . S
C1358 C1359 1.362 . S
C1359 H1349 0.930 . S
C1359 C1352 1.409 . S
C1359 C1358 1.362 . S
H1360 C1366 0.930 . S
H1361 C1369 0.930 . S
H1362 C1370 0.930 . S
H1363 C1371 0.930 . S
H1364 C1374 0.930 . S
H1365 C1375 0.930 . S
C1366 H1360 0.930 . S
C1366 C1367 1.355 . S
C1366 C1368 1.415 . S
C1367 C1366 1.355 . S
C1367 C1369 1.419 . S
C1368 C1366 1.415 . S
C1368 C1373 1.425 . S
C1368 C1375 1.409 . S
C1369 H1361 0.930 . S
C1369 C1367 1.419 . S
C1369 C1370 1.362 . S
C1370 H1362 0.930 . S
C1370 C1369 1.362 . S
C1370 C1373 1.409 . S
C1371 H1363 0.930 . S
C1371 C1372 1.355 . S
C1371 C1373 1.415 . S
C1372 C1371 1.355 . S
C1372 C1374 1.419 . S
C1373 C1368 1.425 . S
C1373 C1370 1.409 . S
C1373 C1371 1.415 . S
C1374 H1364 0.930 . S
C1374 C1372 1.419 . S
C1374 C1375 1.362 . S
C1375 H1365 0.930 . S
C1375 C1368 1.409 . S
C1375 C1374 1.362 . S
H1376 C1382 0.930 . S
H1377 C1385 0.930 . S
H1378 C1386 0.930 . S
H1379 C1387 0.930 . S
H1380 C1390 0.930 . S
H1381 C1391 0.930 . S
C1382 H1376 0.930 . S
C1382 C1383 1.355 . S
C1382 C1384 1.415 . S
C1383 C1382 1.355 . S
C1383 C1385 1.419 . S
C1384 C1382 1.415 . S
C1384 C1389 1.425 . S
C1384 C1391 1.409 . S
C1385 H1377 0.930 . S
C1385 C1383 1.419 . S
C1385 C1386 1.362 . S
C1386 H1378 0.930 . S
C1386 C1385 1.362 . S
C1386 C1389 1.409 . S
C1387 H1379 0.930 . S
C1387 C1388 1.355 . S
C1387 C1389 1.415 . S
C1388 C1387 1.355 . S
C1388 C1390 1.419 . S
C1389 C1384 1.425 . S
C1389 C1386 1.409 . S
C1389 C1387 1.415 . S
C1390 H1380 0.930 . S
C1390 C1388 1.419 . S
C1390 C1391 1.362 . S
C1391 H1381 0.930 . S
C1391 C1384 1.409 . S
C1391 C1390 1.362 . S
H1392 C1398 0.930 . S
H1393 C1401 0.930 . S
H1394 C1402 0.930 . S
H1395 C1403 0.930 . S
H1396 C1406 0.930 . S
H1397 C1407 0.930 . S
C1398 H1392 0.930 . S
C1398 C1399 1.355 . S
C1398 C1400 1.415 . S
C1399 C1398 1.355 . S
C1399 C1401 1.419 . S
C1400 C1398 1.415 . S
C1400 C1405 1.425 . S
C1400 C1407 1.409 . S
C1401 H1393 0.930 . S
C1401 C1399 1.419 . S
C1401 C1402 1.362 . S
C1402 H1394 0.930 . S
C1402 C1401 1.362 . S
C1402 C1405 1.409 . S
C1403 H1395 0.930 . S
C1403 C1404 1.355 . S
C1403 C1405 1.415 . S
C1404 C1403 1.355 . S
C1404 C1406 1.419 . S
C1405 C1400 1.425 . S
C1405 C1402 1.409 . S
C1405 C1403 1.415 . S
C1406 H1396 0.930 . S
C1406 C1404 1.419 . S
C1406 C1407 1.362 . S
C1407 H1397 0.930 . S
C1407 C1400 1.409 . S
C1407 C1406 1.362 . S
H1408 C1414 0.930 . S
H1409 C1417 0.930 . S
H1410 C1418 0.930 . S
H1411 C1419 0.930 . S
H1412 C1422 0.930 . S
H1413 C1423 0.930 . S
C1414 H1408 0.930 . S
C1414 C1415 1.355 . S
C1414 C1416 1.415 . S
C1415 C1414 1.355 . S
C1415 C1417 1.419 . S
C1416 C1414 1.415 . S
C1416 C1421 1.425 . S
C1416 C1423 1.409 . S
C1417 H1409 0.930 . S
C1417 C1415 1.419 . S
C1417 C1418 1.362 . S
C1418 H1410 0.930 . S
C1418 C1417 1.362 . S
C1418 C1421 1.409 . S
C1419 H1411 0.930 . S
C1419 C1420 1.355 . S
C1419 C1421 1.415 . S
C1420 C1419 1.355 . S
C1420 C1422 1.419 . S
C1421 C1416 1.425 . S
C1421 C1418 1.409 . S
C1421 C1419 1.415 . S
C1422 H1412 0.930 . S
C1422 C1420 1.419 . S
C1422 C1423 1.362 . S
C1423 H1413 0.930 . S
C1423 C1416 1.409 . S
C1423 C1422 1.362 . S
H1424 C1430 0.930 . S
H1425 C1433 0.930 . S
H1426 C1434 0.930 . S
H1427 C1435 0.930 . S
H1428 C1438 0.930 . S
H1429 C1439 0.930 . S
C1430 H1424 0.930 . S
C1430 C1431 1.355 . S
C1430 C1432 1.415 . S
C1431 C1430 1.355 . S
C1431 C1433 1.419 . S
C1432 C1430 1.415 . S
C1432 C1437 1.425 . S
C1432 C1439 1.409 . S
C1433 H1425 0.930 . S
C1433 C1431 1.419 . S
C1433 C1434 1.362 . S
C1434 H1426 0.930 . S
C1434 C1433 1.362 . S
C1434 C1437 1.409 . S
C1435 H1427 0.930 . S
C1435 C1436 1.355 . S
C1435 C1437 1.415 . S
C1436 C1435 1.355 . S
C1436 C1438 1.419 . S
C1437 C1432 1.425 . S
C1437 C1434 1.409 . S
C1437 C1435 1.415 . S
C1438 H1428 0.930 . S
C1438 C1436 1.419 . S
C1438 C1439 1.362 . S
C1439 H1429 0.930 . S
C1439 C1432 1.409 . S
C1439 C1438 1.362 . S
H1440 C1446 0.930 . S
H1441 C1449 0.930 . S
H1442 C1450 0.930 . S
H1443 C1451 0.930 . S
H1444 C1454 0.930 . S
H1445 C1455 0.930 . S
C1446 H1440 0.930 . S
C1446 C1447 1.355 . S
C1446 C1448 1.415 . S
C1447 C1446 1.355 . S
C1447 C1449 1.419 . S
C1448 C1446 1.415 . S
C1448 C1453 1.425 . S
C1448 C1455 1.409 . S
C1449 H1441 0.930 . S
C1449 C1447 1.419 . S
C1449 C1450 1.362 . S
C1450 H1442 0.930 . S
C1450 C1449 1.362 . S
C1450 C1453 1.409 . S
C1451 H1443 0.930 . S
C1451 C1452 1.355 . S
C1451 C1453 1.415 . S
C1452 C1451 1.355 . S
C1452 C1454 1.419 . S
C1453 C1448 1.425 . S
C1453 C1450 1.409 . S
C1453 C1451 1.415 . S
C1454 H1444 0.930 . S
C1454 C1452 1.419 . S
C1454 C1455 1.362 . S
C1455 H1445 0.930 . S
C1455 C1448 1.409 . S
C1455 C1454 1.362 . S
H1456 C1462 0.930 . S
H1457 C1465 0.930 . S
H1458 C1466 0.930 . S
H1459 C1467 0.930 . S
H1460 C1470 0.930 . S
H1461 C1471 0.930 . S
C1462 H1456 0.930 . S
C1462 C1463 1.355 . S
C1462 C1464 1.415 . S
C1463 C1462 1.355 . S
C1463 C1465 1.419 . S
C1464 C1462 1.415 . S
C1464 C1469 1.425 . S
C1464 C1471 1.409 . S
C1465 H1457 0.930 . S
C1465 C1463 1.419 . S
C1465 C1466 1.362 . S
C1466 H1458 0.930 . S
C1466 C1465 1.362 . S
C1466 C1469 1.409 . S
C1467 H1459 0.930 . S
C1467 C1468 1.355 . S
C1467 C1469 1.415 . S
C1468 C1467 1.355 . S
C1468 C1470 1.419 . S
C1469 C1464 1.425 . S
C1469 C1466 1.409 . S
C1469 C1467 1.415 . S
C1470 H1460 0.930 . S
C1470 C1468 1.419 . S
C1470 C1471 1.362 . S
C1471 H1461 0.930 . S
C1471 C1464 1.409 . S
C1471 C1470 1.362 . S
C455 C89 1.479 . S
C460 C5 1.477 . S
C471 C19 1.487 . S
C476 C103 1.489 . S
C487 C61 1.488 . S
C492 C33 1.489 . S
C503 C47 1.477 . S
C508 C75 1.487 . S
C519 C117 1.487 . S
C524 C201 1.489 . S
C535 C215 1.482 . S
C540 C131 1.490 . S
C551 C145 1.478 . S
C556 C173 1.477 . S
C567 C187 1.488 . S
C572 C159 1.478 . S
C583 C229 1.487 . S
C588 C313 1.489 . S
C599 C243 1.490 . S
C604 C327 1.482 . S
C615 C285 1.488 . S
C620 C257 1.488 . S
C631 C299 1.481 . S
C636 C271 1.490 . S
C647 C341 1.478 . S
C652 C425 1.477 . S
C663 C355 1.487 . S
C668 C439 1.477 . S
C679 C397 1.490 . S
C684 C369 1.486 . S
C695 C383 1.490 . S
C700 C411 1.487 . S
C711 C11 1.466 1_556 S
C716 C109 1.455 . S
C727 C67 1.469 1_554 S
C732 C25 1.454 . S
C743 C81 1.455 . S
C748 C39 1.467 . S
C759 C53 1.479 . S
C764 C95 1.468 . S
C775 C123 1.455 1_554 S
C780 C221 1.476 . S
C791 C179 1.473 1_556 S
C796 C137 1.454 . S
C807 C193 1.480 . S
C812 C151 1.460 . S
C823 C207 1.455 . S
C828 C165 1.466 . S
C839 C235 1.464 . S
C844 C333 1.480 . S
C855 C249 1.454 . S
C860 C291 1.473 . S
C871 C305 1.457 . S
C876 C263 1.463 1_556 S
C887 C277 1.474 . S
C892 C319 1.454 1_554 S
C903 C347 1.480 . S
C908 C445 1.462 . S
C919 C403 1.473 . S
C924 C361 1.454 . S
C935 C375 1.454 1_554 S
C940 C417 1.469 . S
C951 C389 1.475 . S
C956 C431 1.474 1_556 S
C967 C420 1.487 . S
C972 C0 1.473 . S
C983 C210 1.502 . S
C988 C14 1.457 . S
C999 C28 1.500 . S
C1004 C392 1.459 . S
C1015 C42 1.463 . S
C1020 C182 1.496 . S
C1031 C56 1.486 . S
C1036 C364 1.473 . S
C1047 C70 1.487 . S
C1052 C154 1.472 . S
C1063 C84 1.472 . S
C1068 C336 1.488 . S
C1079 C126 1.457 . S
C1084 C98 1.502 . S
C1095 C308 1.469 . S
C1100 C112 1.491 . S
C1111 C140 1.486 . S
C1116 C280 1.474 . S
C1127 C252 1.491 . S
C1132 C168 1.469 . S
C1143 C224 1.468 . S
C1148 C196 1.492 . S
C1159 C238 1.475 . S
C1164 C434 1.484 . S
C1175 C266 1.467 . S
C1180 C406 1.492 . S
C1191 C294 1.484 . S
C1196 C378 1.475 . S
C1207 C350 1.459 . S
C1212 C322 1.501 . S
C1223 C9 1.489 . S
C1228 C107 1.491 . S
C1239 C23 1.491 . S
C1244 C65 1.490 . S
C1255 C79 1.489 1_556 S
C1260 C37 1.491 . S
C1271 C51 1.489 1_554 S
C1276 C93 1.491 . S
C1287 C219 1.490 . S
C1292 C121 1.490 . S
C1303 C177 1.489 . S
C1308 C135 1.491 . S
C1319 C149 1.491 . S
C1324 C191 1.489 1_554 S
C1335 C205 1.489 . S
C1340 C163 1.490 1_556 S
C1351 C331 1.491 1_556 S
C1356 C233 1.490 . S
C1367 C289 1.491 . S
C1372 C247 1.489 1_554 S
C1383 C303 1.489 . S
C1388 C261 1.491 . S
C1399 C317 1.490 . S
C1404 C275 1.489 . S
C1415 C345 1.489 . S
C1420 C443 1.491 1_554 S
C1431 C359 1.491 1_556 S
C1436 C401 1.489 . S
C1447 C373 1.490 . S
C1452 C415 1.491 . S
C1463 C429 1.489 . S
C1468 C387 1.491 . S
