# Generated by pormake.
# Topology wmi, (6)-cn, num edge types: 1
# Building blocks:
#     Node 0, Type 0, BuildingBlock: FUNLAD_clean_sbu_0, # of connection points: 6
#     Node 1, Type 0, BuildingBlock: FUNLAD_clean_sbu_0, # of connection points: 6
#     Node 2, Type 0, BuildingBlock: FUNLAD_clean_sbu_0, # of connection points: 6
#     Node 3, Type 0, BuildingBlock: FUNLAD_clean_sbu_0, # of connection points: 6
#     Node 4, Type 0, BuildingBlock: FUNLAD_clean_sbu_0, # of connection points: 6
#     Node 5, Type 0, BuildingBlock: FUNLAD_clean_sbu_0, # of connection points: 6
#     Node 6, Type 0, BuildingBlock: FUNLAD_clean_sbu_0, # of connection points: 6
#     Node 7, Type 0, BuildingBlock: FUNLAD_clean_sbu_0, # of connection points: 6
#     Node 8, Type 0, BuildingBlock: FUNLAD_clean_sbu_0, # of connection points: 6
#     Node 9, Type 0, BuildingBlock: FUNLAD_clean_sbu_0, # of connection points: 6
#     Node 10, Type 0, BuildingBlock: FUNLAD_clean_sbu_0, # of connection points: 6
#     Node 11, Type 0, BuildingBlock: FUNLAD_clean_sbu_0, # of connection points: 6
#     Node 12, Type 0, BuildingBlock: FUNLAD_clean_sbu_0, # of connection points: 6
#     Node 13, Type 0, BuildingBlock: FUNLAD_clean_sbu_0, # of connection points: 6
#     Node 14, Type 0, BuildingBlock: FUNLAD_clean_sbu_0, # of connection points: 6
#     Node 15, Type 0, BuildingBlock: FUNLAD_clean_sbu_0, # of connection points: 6
#     Node 16, Type 0, BuildingBlock: FUNLAD_clean_sbu_0, # of connection points: 6
#     Node 17, Type 0, BuildingBlock: FUNLAD_clean_sbu_0, # of connection points: 6
#     Edge 18, Type (0, 0), BuildingBlock: OJICUG_clean_linker_0, # of connection points: 2
#     Edge 19, Type (0, 0), BuildingBlock: OJICUG_clean_linker_0, # of connection points: 2
#     Edge 20, Type (0, 0), BuildingBlock: OJICUG_clean_linker_0, # of connection points: 2
#     Edge 21, Type (0, 0), BuildingBlock: OJICUG_clean_linker_0, # of connection points: 2
#     Edge 22, Type (0, 0), BuildingBlock: OJICUG_clean_linker_0, # of connection points: 2
#     Edge 23, Type (0, 0), BuildingBlock: OJICUG_clean_linker_0, # of connection points: 2
#     Edge 24, Type (0, 0), BuildingBlock: OJICUG_clean_linker_0, # of connection points: 2
#     Edge 25, Type (0, 0), BuildingBlock: OJICUG_clean_linker_0, # of connection points: 2
#     Edge 26, Type (0, 0), BuildingBlock: OJICUG_clean_linker_0, # of connection points: 2
#     Edge 27, Type (0, 0), BuildingBlock: OJICUG_clean_linker_0, # of connection points: 2
#     Edge 28, Type (0, 0), BuildingBlock: OJICUG_clean_linker_0, # of connection points: 2
#     Edge 29, Type (0, 0), BuildingBlock: OJICUG_clean_linker_0, # of connection points: 2
#     Edge 30, Type (0, 0), BuildingBlock: OJICUG_clean_linker_0, # of connection points: 2
#     Edge 31, Type (0, 0), BuildingBlock: OJICUG_clean_linker_0, # of connection points: 2
#     Edge 32, Type (0, 0), BuildingBlock: OJICUG_clean_linker_0, # of connection points: 2
#     Edge 33, Type (0, 0), BuildingBlock: OJICUG_clean_linker_0, # of connection points: 2
#     Edge 34, Type (0, 0), BuildingBlock: OJICUG_clean_linker_0, # of connection points: 2
#     Edge 35, Type (0, 0), BuildingBlock: OJICUG_clean_linker_0, # of connection points: 2
#     Edge 36, Type (0, 0), BuildingBlock: OJICUG_clean_linker_0, # of connection points: 2
#     Edge 37, Type (0, 0), BuildingBlock: OJICUG_clean_linker_0, # of connection points: 2
#     Edge 38, Type (0, 0), BuildingBlock: OJICUG_clean_linker_0, # of connection points: 2
#     Edge 39, Type (0, 0), BuildingBlock: OJICUG_clean_linker_0, # of connection points: 2
#     Edge 40, Type (0, 0), BuildingBlock: OJICUG_clean_linker_0, # of connection points: 2
#     Edge 41, Type (0, 0), BuildingBlock: OJICUG_clean_linker_0, # of connection points: 2
#     Edge 42, Type (0, 0), BuildingBlock: OJICUG_clean_linker_0, # of connection points: 2
#     Edge 43, Type (0, 0), BuildingBlock: OJICUG_clean_linker_0, # of connection points: 2
#     Edge 44, Type (0, 0), BuildingBlock: OJICUG_clean_linker_0, # of connection points: 2
#     Edge 45, Type (0, 0), BuildingBlock: OJICUG_clean_linker_0, # of connection points: 2
#     Edge 46, Type (0, 0), BuildingBlock: OJICUG_clean_linker_0, # of connection points: 2
#     Edge 47, Type (0, 0), BuildingBlock: OJICUG_clean_linker_0, # of connection points: 2
#     Edge 48, Type (0, 0), BuildingBlock: OJICUG_clean_linker_0, # of connection points: 2
#     Edge 49, Type (0, 0), BuildingBlock: OJICUG_clean_linker_0, # of connection points: 2
#     Edge 50, Type (0, 0), BuildingBlock: OJICUG_clean_linker_0, # of connection points: 2
#     Edge 51, Type (0, 0), BuildingBlock: OJICUG_clean_linker_0, # of connection points: 2
#     Edge 52, Type (0, 0), BuildingBlock: OJICUG_clean_linker_0, # of connection points: 2
#     Edge 53, Type (0, 0), BuildingBlock: OJICUG_clean_linker_0, # of connection points: 2
#     Edge 54, Type (0, 0), BuildingBlock: OJICUG_clean_linker_0, # of connection points: 2
#     Edge 55, Type (0, 0), BuildingBlock: OJICUG_clean_linker_0, # of connection points: 2
#     Edge 56, Type (0, 0), BuildingBlock: OJICUG_clean_linker_0, # of connection points: 2
#     Edge 57, Type (0, 0), BuildingBlock: OJICUG_clean_linker_0, # of connection points: 2
#     Edge 58, Type (0, 0), BuildingBlock: OJICUG_clean_linker_0, # of connection points: 2
#     Edge 59, Type (0, 0), BuildingBlock: OJICUG_clean_linker_0, # of connection points: 2
#     Edge 60, Type (0, 0), BuildingBlock: OJICUG_clean_linker_0, # of connection points: 2
#     Edge 61, Type (0, 0), BuildingBlock: OJICUG_clean_linker_0, # of connection points: 2
#     Edge 62, Type (0, 0), BuildingBlock: OJICUG_clean_linker_0, # of connection points: 2
#     Edge 63, Type (0, 0), BuildingBlock: OJICUG_clean_linker_0, # of connection points: 2
#     Edge 64, Type (0, 0), BuildingBlock: OJICUG_clean_linker_0, # of connection points: 2
#     Edge 65, Type (0, 0), BuildingBlock: OJICUG_clean_linker_0, # of connection points: 2
#     Edge 66, Type (0, 0), BuildingBlock: OJICUG_clean_linker_0, # of connection points: 2
#     Edge 67, Type (0, 0), BuildingBlock: OJICUG_clean_linker_0, # of connection points: 2
#     Edge 68, Type (0, 0), BuildingBlock: OJICUG_clean_linker_0, # of connection points: 2
#     Edge 69, Type (0, 0), BuildingBlock: OJICUG_clean_linker_0, # of connection points: 2
#     Edge 70, Type (0, 0), BuildingBlock: OJICUG_clean_linker_0, # of connection points: 2
#     Edge 71, Type (0, 0), BuildingBlock: OJICUG_clean_linker_0, # of connection points: 2
# Relax obj value: 0.123
# Max RMSD: 0.208
# Mean RMSD: 0.208
data_MOF--net-wmi--node1-FUNLAD_clean_sbu_0--edge1-OJICUG_clean_linker_0
_symmetry_space_group_name_H-M    P1
_symmetry_Int_Tables_number       1
_symmetry_cell_setting            triclinic
loop_
_symmetry_equiv_pos_as_xyz
'x, y, z'
_cell_length_a     21.056355
_cell_length_b     21.026459
_cell_length_c     105.04671
_cell_angle_alpha  89.9572
_cell_angle_beta   90.093297
_cell_angle_gamma 120.10042
loop_
_atom_site_label
_atom_site_type_symbol
_atom_site_fract_x
_atom_site_fract_y
_atom_site_fract_z
_atom_type_partial_charge
C0 C 0.26675 0.87376 0.09979 0.0
N1 N 0.39566 0.97608 0.13097 0.0
C2 C 0.33923 -0.0156 0.13527 0.0
C3 C 0.31995 0.97479 0.14808 0.0
C4 C 0.35785 0.9549 0.15668 0.0
C5 C 0.41578 0.94618 0.1521 0.0
C6 C 0.43423 0.95757 0.13912 0.0
Zn7 Zn 0.40821 -0.0184 0.11141 0.0
C8 C 0.45358 0.88309 0.10081 0.0
N9 N 0.41321 -0.01296 0.07036 0.0
C10 C 0.34996 0.9652 0.06375 0.0
C11 C 0.47747 0.00876 0.06411 0.0
C12 C 0.47978 0.00996 0.05079 0.0
C13 C 0.41478 -0.01434 0.04366 0.0
C14 C 0.34914 0.96224 0.05048 0.0
Zn15 Zn 0.40893 -0.01514 0.09006 0.0
O16 O 0.29802 0.90177 0.11027 0.0
C17 C 0.37584 0.09268 0.10048 0.0
O18 O 0.30085 0.90024 0.08948 0.0
H19 H 0.52741 0.02546 0.0694 0.0
H20 H 0.30699 -0.00378 0.12871 0.0
H21 H 0.29927 0.94923 0.0687 0.0
O22 O 0.38446 0.06635 0.11076 0.0
O23 O 0.37776 0.06436 0.08992 0.0
H24 H 0.47808 0.94996 0.13553 0.0
O25 O 0.51794 0.06643 0.09134 0.0
O26 O 0.52014 0.05908 0.11226 0.0
O27 O 0.44386 0.90843 0.09047 0.0
O28 O 0.43706 0.90037 0.11139 0.0
C29 C 0.55343 0.08447 0.10176 0.0
H30 H 0.27411 -0.01928 0.15116 0.0
H31 H 0.44636 0.93087 0.15847 0.0
H32 H 0.53254 0.0304 0.04626 0.0
H33 H 0.29667 0.94076 0.04579 0.0
C34 C 0.08009 0.3868 0.09853 0.0
N35 N -0.01798 0.41452 0.13022 0.0
C36 C -0.02508 0.34988 0.13439 0.0
C37 C -0.01368 0.34023 0.14712 0.0
C38 C 0.00664 0.3979 0.15578 0.0
C39 C 0.01403 0.46441 0.15133 0.0
C40 C 0.00095 0.47147 0.13843 0.0
Zn41 Zn -0.02595 0.422 0.11072 0.0
C42 C 0.07446 0.56606 0.10021 0.0
N43 N -0.03342 0.42421 0.06982 0.0
C44 C -0.03424 0.36846 0.06311 0.0
C45 C -0.03343 0.48146 0.06375 0.0
C46 C -0.03375 0.48428 0.05044 0.0
C47 C -0.03418 0.4276 0.04327 0.0
C48 C -0.03461 0.36907 0.04981 0.0
Zn49 Zn -0.02918 0.4213 0.08939 0.0
O50 O 0.05316 0.39134 0.10903 0.0
C51 C 0.86098 0.28005 0.09992 0.0
O52 O 0.05282 0.39355 0.0882 0.0
H53 H -0.03279 0.52528 0.06924 0.0
H54 H 0.96257 0.30591 0.12777 0.0
H55 H -0.03384 0.32361 0.06808 0.0
O56 O 0.88921 0.31365 0.11022 0.0
O57 O 0.88804 0.31133 0.08937 0.0
H58 H 0.00752 0.52284 0.13494 0.0
O59 O 0.89229 0.4534 0.09104 0.0
O60 O 0.8972 0.45695 0.11203 0.0
O61 O 0.05017 0.5316 0.0898 0.0
O62 O 0.0554 0.53178 0.11073 0.0
C63 C 0.87351 0.46843 0.10162 0.0
H64 H -0.01872 0.28855 0.1501 0.0
H65 H 0.02951 0.51018 0.15775 0.0
H66 H -0.03425 0.53008 0.04582 0.0
H67 H -0.03381 0.3247 0.04473 0.0
C68 C 0.566 0.68827 0.09989 0.0
N69 N 0.53666 0.55876 0.13105 0.0
C70 C 0.6015 0.61528 0.13541 0.0
C71 C 0.61077 0.63528 0.14818 0.0
C72 C 0.55254 0.59797 0.1567 0.0
C73 C 0.48576 0.53994 0.15208 0.0
C74 C 0.47906 0.5208 0.13912 0.0
Zn75 Zn 0.53084 0.54587 0.11149 0.0
C76 C 0.38765 0.50122 0.10038 0.0
N77 N 0.53411 0.54159 0.07048 0.0
C78 C 0.57635 0.60501 0.06395 0.0
C79 C 0.49145 0.47741 0.06416 0.0
C80 C 0.4909 0.4754 0.05084 0.0
C81 C 0.5323 0.54064 0.04379 0.0
C82 C 0.57478 0.60614 0.05069 0.0
Zn83 Zn 0.53473 0.54576 0.09017 0.0
O84 O 0.56203 0.65644 0.11032 0.0
C85 C 0.67494 0.57742 0.10095 0.0
O86 O 0.55905 0.65462 0.08954 0.0
H87 H 0.4576 0.42734 0.06939 0.0
H88 H 0.64597 0.64712 0.12889 0.0
H89 H 0.61119 0.6556 0.06897 0.0
O90 O 0.63962 0.56893 0.11117 0.0
O91 O 0.64538 0.57628 0.09035 0.0
H92 H 0.4275 0.47692 0.13549 0.0
O93 O 0.50589 0.4359 0.09152 0.0
O94 O 0.49555 0.43397 0.11242 0.0
O95 O 0.42372 0.51143 0.09018 0.0
O96 O 0.42042 0.51711 0.11109 0.0
C97 C 0.4877 0.40045 0.10194 0.0
H98 H 0.66266 0.68123 0.15128 0.0
H99 H 0.4395 0.50979 0.15839 0.0
H100 H 0.45838 0.42271 0.04625 0.0
H101 H 0.60635 0.65879 0.04606 0.0
C102 C 0.8656 0.27856 0.93256 0.0
N103 N 0.96267 0.40632 0.90089 0.0
C104 C -0.02908 0.34964 0.89665 0.0
C105 C 0.96009 0.32911 0.88389 0.0
C106 C 0.93914 0.36606 0.87526 0.0
C107 C 0.93055 0.42428 0.87978 0.0
C108 C 0.9431 0.44394 0.89271 0.0
Zn109 Zn -0.02971 0.42116 0.92043 0.0
C110 C 0.86851 0.46224 0.93105 0.0
N111 N -0.02261 0.42959 0.96136 0.0
C112 C -0.02169 0.37466 0.96807 0.0
C113 C -0.02355 0.48632 0.96742 0.0
C114 C -0.02462 0.48866 0.98074 0.0
C115 C -0.02501 0.43194 0.9879 0.0
C116 C -0.0229 0.37475 0.98136 0.0
Zn117 Zn -0.02643 0.42296 0.94178 0.0
O118 O 0.89206 0.31057 0.92207 0.0
C119 C 0.0847 0.39431 0.93123 0.0
O120 O 0.89284 0.31255 0.9429 0.0
H121 H -0.02451 0.52938 0.96194 0.0
H122 H -0.01621 0.31829 0.90325 0.0
H123 H -0.02075 0.33013 0.96309 0.0
O124 O 0.05625 0.39937 0.92092 0.0
O125 O 0.05731 0.39769 0.94178 0.0
H126 H 0.93563 0.48806 0.89624 0.0
O127 O 0.0509 0.53418 0.94021 0.0
O128 O 0.04616 0.53361 0.91922 0.0
O129 O 0.89312 0.45202 0.94141 0.0
O130 O 0.8879 0.44803 0.92048 0.0
C131 C 0.06945 0.56852 0.92967 0.0
H132 H -0.03396 0.28311 0.88087 0.0
H133 H 0.91454 0.45426 0.8734 0.0
H134 H -0.02686 0.53352 0.98535 0.0
H135 H -0.02191 0.33049 0.98647 0.0
C136 C 0.67819 0.57958 0.93194 0.0
N137 N 0.55084 0.55461 0.90074 0.0
C138 C 0.60801 0.61934 0.89651 0.0
C139 C 0.62854 0.6288 0.88377 0.0
C140 C 0.59104 0.57086 0.87517 0.0
C141 C 0.53219 0.50429 0.87966 0.0
C142 C 0.51257 0.49741 0.89258 0.0
Zn143 Zn 0.5375 0.54745 0.92025 0.0
C144 C 0.49076 0.4029 0.93084 0.0
N145 N 0.53163 0.54734 0.96125 0.0
C146 C 0.59497 0.58863 0.96786 0.0
C147 C 0.46724 0.505 0.9675 0.0
C148 C 0.46492 0.5039 0.98082 0.0
C149 C 0.53003 0.54439 0.98794 0.0
C150 C 0.59576 0.58644 0.98112 0.0
Zn151 Zn 0.53628 0.54946 0.94157 0.0
O152 O 0.64733 0.57723 0.92147 0.0
C153 C 0.57062 0.69111 0.93116 0.0
O154 O 0.64409 0.57198 0.94224 0.0
H155 H 0.41722 0.47193 0.9622 0.0
H156 H 0.64003 0.66345 0.90309 0.0
H157 H 0.64575 0.62329 0.96291 0.0
O158 O 0.56207 0.65629 0.92087 0.0
O159 O 0.56854 0.66062 0.9417 0.0
H160 H 0.46814 0.44594 0.89612 0.0
O161 O 0.42747 0.52271 0.94019 0.0
O162 O 0.42592 0.51359 0.91927 0.0
O163 O 0.50027 0.43776 0.94118 0.0
O164 O 0.5078 0.43704 0.92028 0.0
C165 C 0.39237 0.50575 0.92973 0.0
H166 H 0.67505 0.68051 0.88075 0.0
H167 H 0.50186 0.4583 0.87328 0.0
H168 H 0.41211 0.47173 0.98535 0.0
H169 H 0.6483 0.61727 0.98581 0.0
C170 C 0.38054 0.09559 0.93162 0.0
N171 N 0.40835 -0.00569 0.90049 0.0
C172 C 0.34376 -0.01367 0.89612 0.0
C173 C 0.33432 -0.00384 0.88331 0.0
C174 C 0.39218 0.01593 0.87476 0.0
C175 C 0.45874 0.02448 0.8794 0.0
C176 C 0.46558 0.01288 0.89239 0.0
Zn177 Zn 0.41438 -0.0123 0.92006 0.0
C178 C 0.55806 0.08556 0.93105 0.0
N179 N 0.41159 -0.01962 0.96109 0.0
C180 C 0.36991 0.00203 0.96762 0.0
C181 C 0.45365 0.95829 0.96743 0.0
C182 C 0.45407 0.95662 0.98075 0.0
C183 C 0.41316 -0.0192 0.98779 0.0
C184 C 0.37136 0.0045 0.98089 0.0
Zn185 Zn 0.41077 -0.01631 0.94139 0.0
O186 O 0.38431 0.06775 0.92118 0.0
C187 C 0.26988 0.87596 0.93065 0.0
O188 O 0.3875 0.06882 0.94197 0.0
H189 H 0.48708 0.9417 0.9622 0.0
H190 H 0.2996 0.97451 0.90264 0.0
H191 H 0.33553 0.01825 0.9626 0.0
O192 O 0.30536 0.90264 0.92044 0.0
O193 O 0.29975 0.90399 0.94126 0.0
H194 H 0.51694 0.02026 0.89603 0.0
O195 O 0.43848 0.902 0.94009 0.0
O196 O 0.44861 0.91035 0.91918 0.0
O197 O 0.52217 0.06 0.94129 0.0
O198 O 0.52497 0.06885 0.92037 0.0
C199 C 0.45639 0.88461 0.92966 0.0
H200 H 0.28262 -0.00962 0.88018 0.0
H201 H 0.5047 0.03974 0.87307 0.0
H202 H 0.48608 0.93597 0.98534 0.0
H203 H 0.34022 0.02588 0.98553 0.0
C204 C 0.93521 0.20754 0.43311 0.0
N205 N 0.06455 0.30879 0.46428 0.0
C206 C 0.00791 0.3167 0.46861 0.0
C207 C -0.01134 0.30691 0.48141 0.0
C208 C 0.0268 0.28726 0.48999 0.0
C209 C 0.08485 0.27878 0.48539 0.0
C210 C 0.10327 0.29034 0.47241 0.0
Zn211 Zn 0.07707 0.31527 0.44472 0.0
C212 C 0.12257 0.21732 0.43378 0.0
N213 N 0.081 0.3224 0.40373 0.0
C214 C 0.01766 0.30096 0.39717 0.0
C215 C 0.14511 0.34405 0.39743 0.0
C216 C 0.14714 0.34545 0.38411 0.0
C217 C 0.08199 0.32136 0.37704 0.0
C218 C 0.01655 0.29816 0.38391 0.0
Zn219 Zn 0.07699 0.31924 0.4234 0.0
O220 O -0.0331 0.23522 0.44357 0.0
C221 C 0.04401 0.42676 0.43407 0.0
O222 O -0.03111 0.23443 0.42278 0.0
H223 H 0.1951 0.36043 0.40269 0.0
H224 H -0.02448 0.32841 0.46206 0.0
H225 H -0.03288 0.28509 0.40217 0.0
O226 O 0.05311 0.40024 0.44429 0.0
O227 O 0.04562 0.39869 0.42347 0.0
H228 H 0.14726 0.283 0.4688 0.0
O229 O 0.18606 0.40089 0.4247 0.0
O230 O 0.18869 0.39274 0.4456 0.0
O231 O 0.11213 0.24293 0.42354 0.0
O232 O 0.10647 0.2341 0.44445 0.0
C233 C 0.22175 0.4185 0.4351 0.0
H234 H 0.9427 0.31261 0.4845 0.0
H235 H 0.11559 0.26361 0.49176 0.0
H236 H 0.19977 0.36576 0.37955 0.0
H237 H 0.96398 0.27687 0.37925 0.0
C238 C 0.74793 0.72118 0.43181 0.0
N239 N 0.64941 0.74802 0.46352 0.0
C240 C 0.64281 0.68353 0.46765 0.0
C241 C 0.65405 0.67371 0.48037 0.0
C242 C 0.67369 0.73108 0.48906 0.0
C243 C 0.68059 0.79745 0.48466 0.0
C244 C 0.66769 0.80468 0.47176 0.0
Zn245 Zn 0.64156 0.75573 0.44404 0.0
C246 C 0.74163 0.89995 0.43358 0.0
N247 N 0.63416 0.75806 0.40322 0.0
C248 C 0.63347 0.70249 0.39648 0.0
C249 C 0.63401 0.81536 0.39721 0.0
C250 C 0.6337 0.81844 0.3839 0.0
C251 C 0.63342 0.76195 0.3767 0.0
C252 C 0.63311 0.70334 0.38319 0.0
Zn253 Zn 0.63838 0.75487 0.42274 0.0
O254 O 0.72112 0.72568 0.44232 0.0
C255 C 0.52913 0.6135 0.4332 0.0
O256 O 0.72036 0.72762 0.42149 0.0
H257 H 0.63452 0.85902 0.40273 0.0
H258 H 0.63097 0.63982 0.46099 0.0
H259 H 0.63397 0.6576 0.40142 0.0
O260 O 0.55715 0.6472 0.44351 0.0
O261 O 0.55611 0.64486 0.42266 0.0
H262 H 0.67384 0.85594 0.4683 0.0
O263 O 0.5596 0.78622 0.42439 0.0
O264 O 0.56423 0.79004 0.44537 0.0
O265 O 0.71745 0.86538 0.42318 0.0
O266 O 0.72255 0.8657 0.44411 0.0
C267 C 0.54049 0.80114 0.43493 0.0
H268 H 0.64941 0.62215 0.48332 0.0
H269 H 0.69556 0.84299 0.49111 0.0
H270 H 0.63312 0.86428 0.37931 0.0
H271 H 0.634 0.65913 0.37807 0.0
C272 C 0.23631 0.02361 0.43221 0.0
N273 N 0.205 0.89549 0.46385 0.0
C274 C 0.26971 0.95256 0.46813 0.0
C275 C 0.27919 0.97297 0.48089 0.0
C276 C 0.22129 0.93547 0.48948 0.0
C277 C 0.15465 0.87694 0.48492 0.0
C278 C 0.14775 0.85742 0.47199 0.0
Zn279 Zn 0.19865 0.88078 0.44432 0.0
C280 C 0.05581 0.83889 0.43334 0.0
N281 N 0.19959 0.87341 0.40345 0.0
C282 C 0.25559 0.92861 0.39682 0.0
C283 C 0.14227 0.81649 0.39732 0.0
C284 C 0.13934 0.81426 0.38401 0.0
C285 C 0.19581 0.87127 0.37692 0.0
C286 C 0.25479 0.92863 0.38353 0.0
Zn287 Zn 0.20137 0.87983 0.423 0.0
O288 O 0.23037 -0.00876 0.44268 0.0
C289 C 0.34118 0.90902 0.43383 0.0
O290 O 0.23044 -0.00984 0.42185 0.0
H291 H 0.09813 0.77322 0.40275 0.0
H292 H 0.31395 -0.01574 0.46157 0.0
H293 H 0.30075 0.97328 0.40185 0.0
O294 O 0.30702 0.9033 0.44407 0.0
O295 O 0.31082 0.9059 0.42322 0.0
H296 H 0.09632 0.81301 0.46842 0.0
O297 O 0.16793 0.76868 0.42458 0.0
O298 O 0.16271 0.76873 0.44556 0.0
O299 O 0.09154 0.84998 0.42308 0.0
O300 O 0.08871 0.85283 0.44401 0.0
C301 C 0.15173 0.73412 0.4351 0.0
H302 H 0.33099 0.01922 0.48395 0.0
H303 H 0.10866 0.84657 0.49128 0.0
H304 H 0.09249 0.76928 0.37933 0.0
H305 H 0.30012 0.97312 0.37848 0.0
C306 C 0.53104 0.61379 0.26627 0.0
N307 N 0.62702 0.741 0.23457 0.0
C308 C 0.63434 0.68358 0.23044 0.0
C309 C 0.62298 0.66228 0.21773 0.0
C310 C 0.60256 0.6993 0.20903 0.0
C311 C 0.59479 0.75823 0.21343 0.0
C312 C 0.60776 0.77859 0.22633 0.0
Zn313 Zn 0.63576 0.75656 0.25406 0.0
C314 C 0.53469 0.79819 0.26492 0.0
N315 N 0.64469 0.76488 0.29489 0.0
C316 C 0.64573 0.70993 0.30156 0.0
C317 C 0.64404 0.82171 0.30097 0.0
C318 C 0.64323 0.82403 0.31428 0.0
C319 C 0.64283 0.7672 0.32141 0.0
C320 C 0.64481 0.71 0.31485 0.0
Zn321 Zn 0.63977 0.75791 0.27537 0.0
O322 O 0.5572 0.64608 0.25579 0.0
C323 C 0.75049 0.729 0.26463 0.0
O324 O 0.5587 0.64748 0.27662 0.0
H325 H 0.64298 0.86477 0.2955 0.0
H326 H 0.64691 0.65224 0.2371 0.0
H327 H 0.64643 0.66533 0.29657 0.0
O328 O 0.72182 0.73446 0.25438 0.0
O329 O 0.72343 0.73227 0.27523 0.0
H330 H 0.60095 0.82326 0.22978 0.0
O331 O 0.71728 0.86914 0.27369 0.0
O332 O 0.71168 0.86863 0.25272 0.0
O333 O 0.55953 0.78735 0.2752 0.0
O334 O 0.55354 0.78412 0.25428 0.0
C335 C 0.7354 0.9035 0.26315 0.0
H336 H 0.62824 0.61573 0.2148 0.0
H337 H 0.57916 0.78823 0.20697 0.0
H338 H 0.64112 0.86889 0.31892 0.0
H339 H 0.64579 0.66568 0.31994 0.0
C340 C 0.34547 0.91683 0.26635 0.0
N341 N 0.21893 0.88959 0.23469 0.0
C342 C 0.2765 0.95421 0.23052 0.0
C343 C 0.29707 0.96401 0.21777 0.0
C344 C 0.25919 0.90646 0.2091 0.0
C345 C 0.20004 0.83997 0.21355 0.0
C346 C 0.18039 0.83278 0.22647 0.0
Zn347 Zn 0.20406 0.88192 0.2542 0.0
C348 C 0.1605 0.73781 0.26466 0.0
N349 N 0.19561 0.87972 0.29505 0.0
C350 C 0.25066 0.93544 0.30178 0.0
C351 C 0.13835 0.82236 0.3011 0.0
C352 C 0.1353 0.81941 0.3144 0.0
C353 C 0.19165 0.87608 0.32159 0.0
C354 C 0.24978 0.93471 0.31507 0.0
Zn355 Zn 0.20234 0.88283 0.27551 0.0
O356 O 0.31387 0.91229 0.25585 0.0
C357 C 0.23378 0.024 0.26505 0.0
O358 O 0.31174 0.91044 0.27668 0.0
H359 H 0.09506 0.77858 0.29559 0.0
H360 H 0.30852 -0.00193 0.23715 0.0
H361 H 0.29591 -0.01963 0.29682 0.0
O362 O 0.228 -0.00964 0.25474 0.0
O363 O 0.22982 -0.00728 0.2756 0.0
H364 H 0.13555 0.78141 0.22996 0.0
O365 O 0.09208 0.85115 0.27394 0.0
O366 O 0.09221 0.84728 0.25295 0.0
O367 O 0.17109 0.77236 0.27507 0.0
O368 O 0.17526 0.77203 0.25413 0.0
C369 C 0.05768 0.83616 0.26341 0.0
H370 H 0.34376 0.01567 0.21479 0.0
H371 H 0.16938 0.79429 0.20713 0.0
H372 H 0.08898 0.77354 0.31901 0.0
H373 H 0.295 -0.02093 0.32018 0.0
C374 C 0.04663 0.43015 0.26512 0.0
N375 N 0.07397 0.32872 0.23396 0.0
C376 C 0.00955 0.32118 0.2296 0.0
C377 C 0.00011 0.33091 0.21679 0.0
C378 C 0.05782 0.35013 0.20823 0.0
C379 C 0.12423 0.3583 0.21286 0.0
C380 C 0.13106 0.3468 0.22586 0.0
Zn381 Zn 0.07991 0.32203 0.25353 0.0
C382 C 0.22361 0.4194 0.26456 0.0
N383 N 0.07663 0.31447 0.29452 0.0
C384 C 0.03504 0.33618 0.30106 0.0
C385 C 0.11878 0.29243 0.30083 0.0
C386 C 0.11943 0.29092 0.31415 0.0
C387 C 0.07873 0.3153 0.32121 0.0
C388 C 0.03678 0.33888 0.31432 0.0
Zn389 Zn 0.07584 0.31786 0.27484 0.0
O390 O 0.05041 0.40245 0.25466 0.0
C391 C 0.93499 0.21087 0.2641 0.0
O392 O 0.05321 0.40306 0.27546 0.0
H393 H 0.15216 0.27583 0.29559 0.0
H394 H -0.03449 0.30973 0.23613 0.0
H395 H 0.0006 0.35236 0.29604 0.0
O396 O -0.02933 0.23737 0.25389 0.0
O397 O 0.96478 0.23881 0.27471 0.0
H398 H 0.18229 0.35384 0.22949 0.0
O399 O 0.10267 0.23584 0.27355 0.0
O400 O 0.11347 0.24421 0.25265 0.0
O401 O 0.18745 0.39377 0.27478 0.0
O402 O 0.19075 0.40285 0.25386 0.0
C403 C 0.1206 0.21823 0.26316 0.0
H404 H 0.94854 0.32546 0.21366 0.0
H405 H 0.17007 0.37314 0.20652 0.0
H406 H 0.1515 0.2703 0.31873 0.0
H407 H 0.00577 0.3604 0.31896 0.0
C408 C 0.60224 0.53988 0.7661 0.0
N409 N 0.73088 0.64108 0.79729 0.0
C410 C 0.67381 0.64854 0.80151 0.0
C411 C 0.65395 0.63849 0.81427 0.0
C412 C 0.69199 0.61913 0.82292 0.0
C413 C 0.75052 0.61113 0.81844 0.0
C414 C 0.7695 0.62287 0.80548 0.0
Zn415 Zn 0.74392 0.64768 0.77777 0.0
C416 C 0.78966 0.54982 0.7669 0.0
N417 N 0.74846 0.65502 0.73682 0.0
C418 C 0.6852 0.63385 0.73026 0.0
C419 C 0.81257 0.67655 0.73054 0.0
C420 C 0.81469 0.67808 0.71723 0.0
C421 C 0.7496 0.65423 0.71015 0.0
C422 C 0.68414 0.63112 0.71701 0.0
Zn423 Zn 0.74414 0.65171 0.75647 0.0
O424 O 0.63379 0.56763 0.77657 0.0
C425 C 0.71094 0.75916 0.7671 0.0
O426 O 0.63606 0.56674 0.75578 0.0
H427 H 0.8625 0.69276 0.73581 0.0
H428 H 0.64151 0.66005 0.79491 0.0
H429 H 0.63467 0.61814 0.73525 0.0
O430 O 0.71999 0.73262 0.77732 0.0
O431 O 0.71264 0.73112 0.7565 0.0
H432 H 0.81383 0.61587 0.80195 0.0
O433 O 0.85319 0.73346 0.75783 0.0
O434 O 0.85548 0.72514 0.77873 0.0
O435 O 0.77943 0.57548 0.75664 0.0
O436 O 0.7733 0.56653 0.77755 0.0
C437 C 0.88871 0.751 0.76824 0.0
H438 H 0.60762 0.6438 0.81729 0.0
H439 H 0.78118 0.59619 0.82486 0.0
H440 H 0.86733 0.69831 0.71267 0.0
H441 H 0.63161 0.60999 0.71235 0.0
C442 C 0.41497 0.05346 0.76503 0.0
N443 N 0.31674 0.08074 0.79676 0.0
C444 C 0.31001 0.01624 0.80092 0.0
C445 C 0.32135 0.00656 0.81365 0.0
C446 C 0.34123 0.06408 0.82232 0.0
C447 C 0.34826 0.13046 0.81788 0.0
C448 C 0.33526 0.13755 0.80498 0.0
Zn449 Zn 0.30869 0.08819 0.77726 0.0
C450 C 0.40875 0.23226 0.76671 0.0
N451 N 0.30105 0.08999 0.7364 0.0
C452 C 0.30032 0.03435 0.72967 0.0
C453 C 0.30086 0.14722 0.73036 0.0
C454 C 0.3005 0.15017 0.71705 0.0
C455 C 0.30021 0.09363 0.70986 0.0
C456 C 0.29991 0.03508 0.71638 0.0
Zn457 Zn 0.30541 0.08708 0.75594 0.0
O458 O 0.38819 0.05807 0.77554 0.0
C459 C 0.19616 0.94586 0.76646 0.0
O460 O 0.38737 0.05978 0.75471 0.0
H461 H 0.30139 0.19093 0.73587 0.0
H462 H 0.29799 0.9724 0.79428 0.0
H463 H 0.30085 -0.01048 0.73462 0.0
O464 O 0.22421 -0.02037 0.77676 0.0
O465 O 0.22316 0.97712 0.75591 0.0
H466 H 0.34154 0.18882 0.8015 0.0
O467 O 0.22666 0.1185 0.75758 0.0
O468 O 0.2314 0.12255 0.77856 0.0
O469 O 0.38449 0.19754 0.75633 0.0
O470 O 0.38973 0.1982 0.77726 0.0
C471 C 0.20761 0.13354 0.76812 0.0
H472 H 0.3166 0.95498 0.81662 0.0
H473 H 0.36341 0.17612 0.82432 0.0
H474 H 0.29989 0.19596 0.71245 0.0
H475 H 0.3008 -0.00918 0.71127 0.0
C476 C 0.90336 0.35604 0.76547 0.0
N477 N 0.87226 0.22761 0.79709 0.0
C478 C 0.93702 0.28462 0.80137 0.0
C479 C 0.9467 0.30477 0.81415 0.0
C480 C 0.88894 0.2671 0.82275 0.0
C481 C 0.82223 0.20866 0.81819 0.0
C482 C 0.81513 0.1894 0.80524 0.0
Zn483 Zn 0.86571 0.2131 0.77754 0.0
C484 C 0.72288 0.17131 0.7666 0.0
N485 N 0.86647 0.20604 0.73667 0.0
C486 C 0.92238 0.26126 0.73002 0.0
C487 C 0.80909 0.14912 0.73054 0.0
C488 C 0.806 0.14689 0.71723 0.0
C489 C 0.86237 0.2039 0.71013 0.0
C490 C 0.92142 0.26128 0.71672 0.0
Zn491 Zn 0.86846 0.21235 0.75622 0.0
O492 O 0.89738 0.32362 0.77594 0.0
C493 C 0.00825 0.24141 0.76701 0.0
O494 O 0.89757 0.32265 0.7551 0.0
H495 H 0.76502 0.10584 0.73599 0.0
H496 H -0.01884 0.31645 0.79479 0.0
H497 H -0.03239 0.30593 0.73504 0.0
O498 O -0.02589 0.23566 0.77725 0.0
O499 O -0.02211 0.23836 0.7564 0.0
H500 H 0.76366 0.14504 0.80168 0.0
O501 O 0.83502 0.10123 0.75775 0.0
O502 O 0.82978 0.101 0.77873 0.0
O503 O 0.75863 0.18253 0.75634 0.0
O504 O 0.75576 0.18512 0.77727 0.0
C505 C 0.81879 0.06652 0.76826 0.0
H506 H -0.00145 0.35097 0.8172 0.0
H507 H 0.77633 0.17818 0.82456 0.0
H508 H 0.75909 0.10189 0.71257 0.0
H509 H -0.03331 0.30577 0.71166 0.0
C510 C 0.19786 0.94622 0.59926 0.0
N511 N 0.29404 0.07442 0.5676 0.0
C512 C 0.30177 0.01745 0.56336 0.0
C513 C 0.29092 -0.00295 0.55059 0.0
C514 C 0.27051 0.03446 0.54197 0.0
C515 C 0.26227 0.09286 0.5465 0.0
C516 C 0.2748 0.11237 0.55944 0.0
Zn517 Zn 0.30253 0.08922 0.58714 0.0
C518 C 0.2014 0.13061 0.59808 0.0
N519 N 0.31125 0.09674 0.62801 0.0
C520 C 0.31222 0.04168 0.63466 0.0
C521 C 0.3106 0.15349 0.63412 0.0
C522 C 0.30979 0.15567 0.64743 0.0
C523 C 0.30938 0.09878 0.65454 0.0
C524 C 0.31129 0.04161 0.64795 0.0
Zn525 Zn 0.3065 0.09024 0.60846 0.0
O526 O 0.224 -0.02134 0.58878 0.0
C527 C 0.41728 0.06154 0.59767 0.0
O528 O 0.22552 -0.02023 0.60962 0.0
H529 H 0.30958 0.19665 0.62867 0.0
H530 H 0.31435 -0.01417 0.56994 0.0
H531 H 0.31291 -0.00286 0.62964 0.0
O532 O 0.38862 0.0671 0.58742 0.0
O533 O 0.39019 0.06469 0.60827 0.0
H534 H 0.26772 0.15671 0.56299 0.0
O535 O 0.38395 0.20153 0.60687 0.0
O536 O 0.37844 0.20133 0.58589 0.0
O537 O 0.22621 0.11958 0.60834 0.0
O538 O 0.22029 0.11677 0.58741 0.0
C539 C 0.40209 0.23604 0.59634 0.0
H540 H 0.29656 0.95088 0.54756 0.0
H541 H 0.24662 0.12315 0.54012 0.0
H542 H 0.3077 0.20051 0.65209 0.0
H543 H 0.31225 -0.00277 0.65302 0.0
C544 C 0.01225 0.24928 0.59963 0.0
N545 N 0.88624 0.22206 0.56791 0.0
C546 C 0.9439 0.28671 0.56377 0.0
C547 C 0.96491 0.29649 0.55104 0.0
C548 C 0.92739 0.23892 0.54237 0.0
C549 C 0.86812 0.17241 0.54679 0.0
C550 C 0.84803 0.16522 0.55968 0.0
Zn551 Zn 0.87097 0.21436 0.58741 0.0
C552 C 0.82735 0.07023 0.59788 0.0
N553 N 0.86202 0.21206 0.62826 0.0
C554 C 0.917 0.26783 0.63499 0.0
C555 C 0.80473 0.15472 0.6343 0.0
C556 C 0.80161 0.15182 0.64761 0.0
C557 C 0.85791 0.20853 0.6548 0.0
C558 C 0.91605 0.26716 0.64828 0.0
Zn559 Zn 0.86899 0.21514 0.60872 0.0
O560 O -0.01925 0.24481 0.58912 0.0
C561 C 0.9005 0.35634 0.59825 0.0
O562 O -0.0216 0.24276 0.60995 0.0
H563 H 0.76149 0.1109 0.6288 0.0
H564 H -0.02432 0.33058 0.57041 0.0
H565 H 0.96226 0.31276 0.63004 0.0
O566 O 0.89482 0.32274 0.58794 0.0
O567 O 0.89646 0.32504 0.60879 0.0
H568 H 0.80312 0.11382 0.56315 0.0
O569 O 0.75871 0.18344 0.60709 0.0
O570 O 0.75914 0.17966 0.5861 0.0
O571 O 0.83776 0.1047 0.60829 0.0
O572 O 0.84226 0.10451 0.58736 0.0
C573 C 0.72446 0.16849 0.59655 0.0
H574 H 0.01168 0.34817 0.54809 0.0
H575 H 0.8377 0.12671 0.54035 0.0
H576 H 0.75529 0.10594 0.65222 0.0
H577 H 0.96123 0.31155 0.65339 0.0
C578 C 0.71357 0.76259 0.59829 0.0
N579 N 0.74048 0.6608 0.56716 0.0
C580 C 0.67606 0.65327 0.56281 0.0
C581 C 0.66666 0.6631 0.55 0.0
C582 C 0.72441 0.68241 0.54145 0.0
C583 C 0.79079 0.69048 0.54608 0.0
C584 C 0.79757 0.67888 0.55907 0.0
Zn585 Zn 0.74658 0.65431 0.58671 0.0
C586 C 0.89044 0.75162 0.59767 0.0
N587 N 0.74378 0.64708 0.62766 0.0
C588 C 0.70231 0.66893 0.6342 0.0
C589 C 0.78596 0.62505 0.63397 0.0
C590 C 0.78674 0.62365 0.64728 0.0
C591 C 0.74617 0.64819 0.65434 0.0
C592 C 0.70423 0.6718 0.64746 0.0
Zn593 Zn 0.74274 0.65027 0.60801 0.0
O594 O 0.71715 0.73479 0.58783 0.0
C595 C 0.60171 0.54336 0.59733 0.0
O596 O 0.72033 0.73559 0.60862 0.0
H597 H 0.81924 0.60836 0.62872 0.0
H598 H 0.63203 0.64183 0.56934 0.0
H599 H 0.66783 0.68508 0.6292 0.0
O600 O 0.63735 0.56971 0.58711 0.0
O601 O 0.63162 0.57137 0.60793 0.0
H602 H 0.8488 0.68589 0.5627 0.0
O603 O 0.76931 0.56809 0.60673 0.0
O604 O 0.78008 0.57644 0.58584 0.0
O605 O 0.85444 0.72603 0.60789 0.0
O606 O 0.8574 0.73508 0.58699 0.0
C607 C 0.78719 0.55044 0.59634 0.0
H608 H 0.61511 0.65771 0.54687 0.0
H609 H 0.83665 0.70538 0.53973 0.0
H610 H 0.81879 0.603 0.65185 0.0
H611 H 0.67335 0.69345 0.65211 0.0
C612 C 0.51218 0.82121 0.11191 0.0
C613 C 0.49039 0.83967 0.10053 0.0
H614 H 0.55767 0.76136 0.12061 0.0
C615 C 0.50753 0.81959 0.08884 0.0
H616 H 0.50177 0.83803 0.12106 0.0
C617 C 0.54054 0.77656 0.08856 0.0
C618 C 0.55651 0.75272 0.09998 0.0
H619 H 0.49321 0.83491 0.0799 0.0
H620 H 0.54871 0.75784 0.07943 0.0
C621 C 0.54547 0.77846 0.11164 0.0
C622 C 0.17885 0.76063 0.08832 0.0
C623 C 0.20259 0.79971 0.09981 0.0
H624 H 0.12154 0.65534 0.07945 0.0
C625 C 0.17748 0.76202 0.11141 0.0
H626 H 0.19701 0.7883 0.07923 0.0
C627 C 0.13566 0.68579 0.11155 0.0
C628 C 0.11756 0.64635 0.10008 0.0
H629 H 0.1945 0.79079 0.12043 0.0
H630 H 0.1193 0.65784 0.12064 0.0
C631 C 0.13684 0.6844 0.08846 0.0
C632 C 0.19553 0.4169 0.08736 0.0
C633 C 0.1541 0.39652 0.09861 0.0
H634 H 0.30255 0.46832 0.07915 0.0
C635 C 0.18948 0.40391 0.11034 0.0
H636 H 0.16983 0.41178 0.07818 0.0
C637 C 0.26559 0.438 0.11092 0.0
C638 C 0.30738 0.4641 0.09977 0.0
H639 H 0.15894 0.3882 0.11918 0.0
H640 H 0.29163 0.44544 0.12013 0.0
C641 C 0.27166 0.45058 0.08794 0.0
C642 C 0.80792 0.52196 0.91994 0.0
C643 C 0.82517 0.49901 0.93131 0.0
H644 H 0.75058 0.57011 0.91125 0.0
C645 C 0.80533 0.51633 0.94301 0.0
H646 H 0.82468 0.51149 0.9108 0.0
C647 C 0.76397 0.55105 0.94329 0.0
C648 C 0.74143 0.56842 0.93187 0.0
H649 H 0.8199 0.50124 0.95196 0.0
H650 H 0.7455 0.55955 0.95242 0.0
C651 C 0.76677 0.5569 0.92022 0.0
C652 C 0.40472 0.20885 0.94298 0.0
C653 C 0.38955 0.16935 0.93154 0.0
H654 H 0.45077 0.31442 0.95171 0.0
C655 C 0.40058 0.20639 0.9199 0.0
H656 H 0.39647 0.18172 0.9521 0.0
C657 C 0.43313 0.28251 0.91967 0.0
C658 C 0.45419 0.32254 0.93107 0.0
H659 H 0.38895 0.17731 0.91092 0.0
H660 H 0.44364 0.30999 0.91054 0.0
C661 C 0.43698 0.28496 0.94274 0.0
C662 C 0.67963 0.14419 0.92034 0.0
C663 C 0.63839 0.12819 0.93156 0.0
H664 H 0.7859 0.20139 0.91194 0.0
C665 C 0.67468 0.1497 0.94335 0.0
H666 H 0.65313 0.12606 0.91115 0.0
C667 C 0.75086 0.19203 0.94383 0.0
C668 C 0.79175 0.21371 0.93252 0.0
H669 H 0.64421 0.13621 0.95219 0.0
H670 H 0.77702 0.21222 0.953 0.0
C671 C 0.75578 0.18611 0.92083 0.0
C672 C 0.20766 0.11001 0.42096 0.0
C673 C 0.22705 0.08828 0.43226 0.0
H674 H 0.15714 0.16624 0.41262 0.0
C675 C 0.21897 0.11586 0.44396 0.0
H676 H 0.21333 0.08977 0.4118 0.0
C677 C 0.18511 0.15807 0.44446 0.0
C678 C 0.15988 0.17434 0.43325 0.0
H679 H 0.23391 0.10051 0.45285 0.0
H680 H 0.17705 0.17626 0.45365 0.0
C681 C 0.17418 0.15263 0.42145 0.0
C682 C 0.84707 0.09441 0.42165 0.0
C683 C 0.87091 0.13356 0.43313 0.0
H684 H 0.78921 -0.01092 0.41281 0.0
C685 C 0.84553 0.096 0.44474 0.0
H686 H 0.86545 0.12198 0.41255 0.0
C687 C 0.80326 0.01979 0.44489 0.0
C688 C 0.78497 -0.01976 0.43343 0.0
H689 H 0.86263 0.12482 0.45375 0.0
H690 H 0.7867 -0.00807 0.45399 0.0
C691 C 0.80459 0.01821 0.4218 0.0
C692 C 0.93428 0.7752 0.44402 0.0
C693 C -0.02442 0.80163 0.43282 0.0
H694 H 0.82789 0.72405 0.45239 0.0
C695 C 0.93943 0.78742 0.42103 0.0
H696 H 0.9607 0.78312 0.45321 0.0
C697 C 0.86324 0.75255 0.42053 0.0
C698 C 0.82222 0.7318 0.43183 0.0
H699 H -0.03004 0.80527 0.4122 0.0
H700 H 0.83711 0.7468 0.41137 0.0
C701 C 0.85813 0.74 0.44352 0.0
C702 C 0.42966 0.88565 0.27764 0.0
C703 C 0.40898 0.90596 0.26633 0.0
H704 H 0.48366 0.83303 0.28602 0.0
C705 C 0.43596 0.89698 0.25464 0.0
H706 H 0.40986 0.89201 0.2868 0.0
C707 C 0.4766 0.86151 0.25417 0.0
C708 C 0.49187 0.83555 0.26539 0.0
H709 H 0.42134 0.91257 0.24575 0.0
H710 H 0.49456 0.85303 0.24499 0.0
C711 C 0.47064 0.85048 0.27717 0.0
C712 C 0.10579 0.61956 0.27644 0.0
C713 C 0.12379 0.65753 0.26481 0.0
H714 H 0.0632 0.51582 0.28569 0.0
C715 C 0.10239 0.61796 0.25335 0.0
H716 H 0.11968 0.64869 0.28543 0.0
C717 C 0.06857 0.54177 0.2535 0.0
C718 C 0.05661 0.50422 0.26511 0.0
H719 H 0.11346 0.64581 0.24425 0.0
H720 H 0.05669 0.51295 0.24449 0.0
C721 C 0.07217 0.54336 0.27659 0.0
C722 C 0.42166 0.52072 0.25452 0.0
C723 C 0.45724 0.5488 0.26623 0.0
H724 H 0.31935 0.45981 0.24477 0.0
C725 C 0.41603 0.52724 0.2775 0.0
H726 H 0.45205 0.5359 0.24565 0.0
C727 C 0.33988 0.4844 0.27696 0.0
C728 C 0.30394 0.46232 0.26515 0.0
H729 H 0.44189 0.54785 0.28667 0.0
H730 H 0.30914 0.471 0.28577 0.0
C731 C 0.34555 0.47831 0.25397 0.0
C732 C 0.85167 0.49028 0.77766 0.0
C733 C 0.82697 0.50683 0.76641 0.0
H734 H 0.90001 0.43244 0.78611 0.0
C735 C 0.84177 0.48538 0.75464 0.0
H736 H 0.84321 0.50825 0.78684 0.0
C737 C 0.87523 0.44273 0.75419 0.0
C738 C 0.89409 0.4207 0.76552 0.0
H739 H 0.82515 0.49921 0.74578 0.0
H740 H 0.8813 0.4227 0.74503 0.0
C741 C 0.88551 0.44803 0.77721 0.0
C742 C 0.51234 0.42856 0.77775 0.0
C743 C 0.53798 0.46587 0.76613 0.0
H744 H 0.45332 0.32468 0.78706 0.0
C745 C 0.51444 0.42647 0.75466 0.0
H746 H 0.52919 0.45758 0.78675 0.0
C747 C 0.47198 0.35027 0.75486 0.0
C748 C 0.4521 0.31255 0.76652 0.0
H749 H 0.53304 0.45385 0.74556 0.0
H750 H 0.45683 0.32094 0.74589 0.0
C751 C 0.4701 0.35235 0.77794 0.0
C752 C 0.53035 0.08495 0.75377 0.0
C753 C 0.48928 0.06411 0.76506 0.0
H754 H 0.6371 0.13776 0.74545 0.0
C755 C 0.52515 0.07229 0.77675 0.0
H756 H 0.50425 0.07921 0.74461 0.0
C757 C 0.6013 0.10753 0.77727 0.0
C758 C 0.64264 0.13403 0.76608 0.0
H759 H 0.49486 0.05627 0.78562 0.0
H760 H 0.62769 0.11541 0.78646 0.0
C761 C 0.60654 0.11985 0.75428 0.0
C762 C 0.0961 0.21756 0.61089 0.0
C763 C 0.07577 0.23843 0.5996 0.0
H764 H 0.1498 0.16447 0.61922 0.0
C765 C 0.10308 0.23 0.58791 0.0
H766 H 0.07603 0.22348 0.62005 0.0
C767 C 0.14367 0.19449 0.5874 0.0
C768 C 0.15859 0.16797 0.59859 0.0
H769 H 0.08873 0.24604 0.57903 0.0
H770 H 0.16189 0.18644 0.57821 0.0
C771 C 0.13705 0.18237 0.61039 0.0
C772 C 0.7357 0.87428 0.58668 0.0
C773 C 0.72355 0.83665 0.59828 0.0
H774 H 0.78069 -0.02161 0.57745 0.0
C775 C 0.73889 0.8757 0.60977 0.0
H776 H 0.72397 0.84553 0.57766 0.0
C777 C 0.77248 0.95189 0.60963 0.0
C778 C 0.79067 -0.01005 0.59801 0.0
H779 H 0.72976 0.84808 0.61886 0.0
H780 H 0.78621 -0.01905 0.61863 0.0
C781 C 0.76948 0.95048 0.58654 0.0
C782 C 0.0883 0.85341 0.5875 0.0
C783 C 0.12409 0.88119 0.59921 0.0
H784 H -0.0142 0.79266 0.57781 0.0
C785 C 0.08311 0.85925 0.61051 0.0
H786 H 0.1185 0.86889 0.57862 0.0
C787 C 0.00696 0.81633 0.61001 0.0
C788 C -0.02921 0.79455 0.59821 0.0
H789 H 0.10913 0.8796 0.61967 0.0
H790 H -0.02361 0.80264 0.61884 0.0
C791 C 0.01218 0.81091 0.587 0.0
C792 C 0.4716 -0.01694 0.02244 0.0
C793 C 0.41499 -0.01533 0.02933 0.0
H794 H 0.51827 -0.01513 1.00441 0.0
C795 C 0.35798 -0.01517 0.02231 0.0
H796 H 0.51615 -0.0187 0.02723 0.0
C797 C 0.3564 -0.01872 1.00904 0.0
C798 C 0.41381 -0.01847 1.00212 0.0
H799 H 0.31392 -0.01186 0.02692 0.0
H800 H 0.30916 -0.02203 1.00434 0.0
C801 C 0.4718 -0.01692 1.00911 0.0
C802 C 0.92748 0.36562 1.00871 0.0
C803 C -0.02859 0.43159 1.00208 0.0
H804 H 0.89006 0.31283 0.02677 0.0
C805 C 0.01209 0.49676 1.00911 0.0
H806 H 0.89428 0.31464 1.0036 0.0
C807 C 0.00973 0.49572 0.02244 0.0
C808 C -0.03346 0.42949 0.02907 0.0
H809 H 0.04711 0.5484 1.00432 0.0
H810 H 0.04315 0.54659 0.02755 0.0
C811 C 0.92504 0.36459 0.02201 0.0
C812 C 0.58727 0.60017 1.00927 0.0
C813 C 0.52988 0.54311 1.00227 0.0
H814 H 0.63658 0.64182 0.02722 0.0
C815 C 0.47302 0.48488 1.00916 0.0
H816 H 0.63153 0.64758 1.00465 0.0
C817 C 0.47301 0.48457 0.02249 0.0
C818 C 0.53143 0.54085 0.02946 0.0
H819 H 0.42815 0.43866 1.00438 0.0
H820 H 0.42637 0.43991 0.02721 0.0
C821 C 0.58904 0.59803 0.02254 0.0
C822 C 0.02473 0.32043 0.35575 0.0
C823 C 0.08183 0.3202 0.36272 0.0
H824 H -0.02462 0.31322 0.33782 0.0
C825 C 0.13814 0.31824 0.3558 0.0
H826 H -0.01909 0.32403 0.36039 0.0
C827 C 0.13795 0.31798 0.34247 0.0
C828 C 0.07981 0.3164 0.33553 0.0
H829 H 0.18273 0.3164 0.36055 0.0
H830 H 0.18423 0.31954 0.33773 0.0
C831 C 0.02271 0.31653 0.34248 0.0
C832 C 0.67776 0.83039 0.35594 0.0
C833 C 0.63416 0.76412 0.36252 0.0
H834 H 0.71552 0.88329 0.33785 0.0
C835 C 0.59234 0.6994 0.35544 0.0
H836 H 0.7114 0.8811 0.36109 0.0
C837 C 0.59485 0.70064 0.34215 0.0
C838 C 0.63921 0.76665 0.33556 0.0
H839 H 0.55708 0.64764 0.36018 0.0
H840 H 0.56141 0.64983 0.33702 0.0
C841 C 0.6802 0.83165 0.34262 0.0
C842 C 0.1678 0.8079 0.34239 0.0
C843 C 0.19049 0.8741 0.33578 0.0
H844 H 0.1526 0.75515 0.36049 0.0
C845 C 0.21349 0.93887 0.34283 0.0
H846 H 0.15068 0.75715 0.33726 0.0
C847 C 0.21475 0.93774 0.35613 0.0
C848 C 0.19298 0.87178 0.36275 0.0
H849 H 0.23002 -0.00942 0.33808 0.0
H850 H 0.23214 -0.01141 0.36124 0.0
C851 C 0.16898 0.80675 0.35571 0.0
C852 C 0.80569 0.65106 0.68891 0.0
C853 C 0.74948 0.65319 0.69584 0.0
H854 H 0.85167 0.65224 0.67084 0.0
C855 C 0.69247 0.65364 0.68887 0.0
H856 H 0.85021 0.64906 0.69366 0.0
C857 C 0.69038 0.64969 0.67561 0.0
C858 C 0.74737 0.64937 0.66865 0.0
H859 H 0.64876 0.65743 0.69352 0.0
H860 H 0.64308 0.64649 0.67096 0.0
C861 C 0.80547 0.65081 0.67559 0.0
C862 C 0.34678 0.16322 0.67576 0.0
C863 C 0.30589 0.09819 0.66871 0.0
H864 H 0.37794 0.21274 0.69422 0.0
C865 C 0.26176 0.03215 0.6753 0.0
H866 H 0.38196 0.21489 0.67099 0.0
C867 C 0.25929 0.03093 0.6886 0.0
C868 C 0.30096 0.0957 0.69568 0.0
H869 H 0.2284 -0.0187 0.67018 0.0
H870 H 0.22417 -0.02085 0.69334 0.0
C871 C 0.34439 0.16199 0.68908 0.0
C872 C 0.87975 0.27137 0.67604 0.0
C873 C 0.85674 0.20658 0.66899 0.0
H874 H 0.89852 0.32114 0.69445 0.0
C875 C 0.8341 0.14041 0.6756 0.0
H876 H 0.89625 0.32306 0.67128 0.0
C877 C 0.83536 0.1393 0.68893 0.0
C878 C 0.8594 0.20436 0.69596 0.0
H879 H 0.81697 0.08964 0.67048 0.0
H880 H 0.81903 0.08772 0.69371 0.0
C881 C 0.8811 0.27028 0.68934 0.0
C882 C 0.29722 -0.01841 0.18917 0.0
C883 C 0.28276 0.91701 0.19557 0.0
H884 H 0.33303 0.04434 0.17197 0.0
C885 C 0.29486 0.86527 0.18919 0.0
H886 H 0.28828 0.02238 0.19384 0.0
C887 C 0.32148 0.87834 0.17666 0.0
C888 C 0.33527 0.94278 0.17025 0.0
H889 H 0.28493 0.81541 0.19395 0.0
H890 H 0.32985 0.83747 0.17189 0.0
C891 C 0.32282 -0.00584 0.17666 0.0
C892 C -0.02997 0.32293 0.17572 0.0
C893 C 0.02012 0.38743 0.1693 0.0
H894 H 0.94332 0.26044 0.19295 0.0
C895 C 0.08425 0.43919 0.17566 0.0
H896 H 0.92009 0.28213 0.17108 0.0
C897 C 0.09805 0.42627 0.1882 0.0
C898 C 0.04737 0.36195 0.19463 0.0
H899 H 0.12417 0.48899 0.17088 0.0
H900 H 0.14746 0.46718 0.19295 0.0
C901 C -0.01668 0.31051 0.18824 0.0
C902 C 0.63974 0.66071 0.18921 0.0
C903 C 0.58952 0.67517 0.19551 0.0
H904 H 0.66671 0.62405 0.17215 0.0
C905 C 0.52561 0.66239 0.18905 0.0
H906 H 0.68955 0.67018 0.19393 0.0
C907 C 0.51209 0.63509 0.17655 0.0
C908 C 0.56282 0.62122 0.17026 0.0
H909 H 0.4856 0.67231 0.19374 0.0
H910 H 0.46281 0.62623 0.17173 0.0
C911 C 0.62669 0.63433 0.17674 0.0
C912 C 0.86195 0.32949 0.85531 0.0
C913 C 0.92615 0.34256 0.8617 0.0
H914 H 0.7989 0.29373 0.838 0.0
C915 C -0.02324 0.32919 0.85527 0.0
H916 H 0.82163 0.33858 0.86009 0.0
C917 C 0.96381 0.30364 0.84274 0.0
C918 C 0.89959 0.29014 0.83633 0.0
H919 H 0.02679 0.33889 0.85993 0.0
H920 H 0.00412 0.29416 0.83805 0.0
C921 C 0.84849 0.30293 0.84276 0.0
C922 C 0.6279 0.52964 0.8554 0.0
C923 C 0.61493 0.58112 0.86167 0.0
H924 H 0.66425 0.5021 0.83823 0.0
C925 C 0.62925 0.64548 0.85521 0.0
H926 H 0.61812 0.47998 0.86023 0.0
C927 C 0.65567 0.65815 0.84276 0.0
C928 C 0.66896 0.60703 0.83647 0.0
H929 H 0.61968 0.68607 0.85979 0.0
H930 H 0.66581 0.70818 0.83802 0.0
C931 C 0.65525 0.54276 0.84292 0.0
C932 C 0.30464 -0.01115 0.84224 0.0
C933 C 0.3546 0.05355 0.83584 0.0
H934 H 0.27801 0.92611 0.85944 0.0
C935 C 0.41852 0.10544 0.84224 0.0
H936 H 0.25486 0.94795 0.83757 0.0
C937 C 0.43228 0.09244 0.85477 0.0
C938 C 0.38174 0.02791 0.86117 0.0
H939 H 0.45832 0.1554 0.83748 0.0
H940 H 0.48154 0.13344 0.85955 0.0
C941 C 0.31788 0.97635 0.85475 0.0
C942 C -0.03392 0.31415 0.52245 0.0
C943 C 0.95138 0.24951 0.52886 0.0
H944 H 0.00226 0.3769 0.50526 0.0
C945 C 0.96356 0.19774 0.5225 0.0
H946 H 0.95709 0.35496 0.52709 0.0
C947 C -0.0096 0.2108 0.50999 0.0
C948 C 0.00436 0.27527 0.50357 0.0
H949 H 0.95344 0.14783 0.52727 0.0
H950 H -0.00124 0.16988 0.50523 0.0
C951 C -0.00807 0.32671 0.50996 0.0
C952 C 0.63693 0.65571 0.50895 0.0
C953 C 0.68699 0.72042 0.50257 0.0
H954 H 0.6102 0.59282 0.52613 0.0
C955 C 0.75097 0.77218 0.50897 0.0
H956 H 0.58712 0.61491 0.50427 0.0
C957 C 0.76469 0.75902 0.52149 0.0
C958 C 0.71406 0.69447 0.52787 0.0
H959 H 0.79083 0.82214 0.50422 0.0
H960 H 0.81398 0.79991 0.52628 0.0
C961 C 0.65014 0.64305 0.52145 0.0
C962 C 0.29588 0.97229 0.50949 0.0
C963 C 0.23175 0.95872 0.50305 0.0
H964 H 0.35856 0.0076 0.52671 0.0
C965 C 0.18055 0.97157 0.50942 0.0
H966 H 0.33626 0.96276 0.50484 0.0
C967 C 0.19379 -0.00181 0.52197 0.0
C968 C 0.25787 0.01125 0.5284 0.0
H969 H 0.13103 0.96233 0.50463 0.0
H970 H 0.15339 0.00727 0.52671 0.0
C971 C 0.30862 -0.00209 0.52201 0.0
C972 C 0.43511 0.28337 0.08984 0.0
C973 C 0.45104 0.32001 0.1016 0.0
H974 H 0.39479 0.18105 0.08021 0.0
C975 C 0.42828 0.27895 0.11289 0.0
H976 H 0.45008 0.31346 0.08094 0.0
C977 C 0.39541 0.20273 0.11246 0.0
C978 C 0.3853 0.16665 0.10073 0.0
H979 H 0.43794 0.3057 0.12207 0.0
H980 H 0.38255 0.1727 0.12135 0.0
C981 C 0.40209 0.20726 0.0894 0.0
C982 C 0.6697 0.14926 0.08954 0.0
C983 C 0.63369 0.12855 0.10135 0.0
H984 H 0.77139 0.21097 0.07978 0.0
C985 C 0.67521 0.14691 0.11258 0.0
H986 H 0.63924 0.13412 0.08067 0.0
C987 C 0.75133 0.19016 0.11205 0.0
C988 C 0.78679 0.21595 0.10027 0.0
H989 H 0.64893 0.12982 0.12179 0.0
H990 H 0.78178 0.20729 0.12091 0.0
C991 C 0.74565 0.19221 0.089 0.0
C992 C 0.7627 0.55326 0.1129 0.0
C993 C 0.73937 0.56779 0.10126 0.0
H994 H 0.82213 0.50853 0.12216 0.0
C995 C 0.7666 0.55632 0.08983 0.0
H996 H 0.74285 0.56183 0.12188 0.0
C997 C 0.81084 0.52465 0.09 0.0
C998 C 0.82918 0.5045 0.1016 0.0
H999 H 0.74986 0.56715 0.08071 0.0
H1000 H 0.82883 0.51405 0.081 0.0
C1001 C 0.80715 0.52167 0.11307 0.0
C1002 C 0.27557 0.4541 0.94179 0.0
C1003 C 0.31214 0.47023 0.93003 0.0
H1004 H 0.17349 0.41357 0.95142 0.0
C1005 C 0.27115 0.4485 0.91872 0.0
H1006 H 0.30559 0.46837 0.95069 0.0
C1007 C 0.19506 0.41598 0.91916 0.0
C1008 C 0.15907 0.40514 0.9309 0.0
H1009 H 0.29785 0.45846 0.90954 0.0
H1010 H 0.16508 0.40365 0.91026 0.0
C1011 C 0.19965 0.42143 0.94222 0.0
C1012 C 0.51679 0.82375 0.91874 0.0
C1013 C 0.49328 0.84119 0.93002 0.0
H1014 H 0.5639 0.76472 0.9103 0.0
C1015 C 0.50915 0.82045 0.94179 0.0
H1016 H 0.50723 0.84093 0.90956 0.0
C1017 C 0.54296 0.77823 0.94224 0.0
C1018 C 0.5606 0.75526 0.93092 0.0
H1019 H 0.49363 0.83495 0.95067 0.0
H1020 H 0.55022 0.75925 0.95143 0.0
C1021 C 0.55044 0.78126 0.91919 0.0
C1022 C 0.1805 0.76506 0.91862 0.0
C1023 C 0.20455 0.8023 0.93031 0.0
H1024 H 0.12013 0.66119 0.90924 0.0
C1025 C 0.17715 0.76306 0.94169 0.0
H1026 H 0.20037 0.79395 0.90967 0.0
C1027 C 0.13229 0.68705 0.94143 0.0
C1028 C 0.11356 0.64908 0.92978 0.0
H1029 H 0.19437 0.7902 0.95085 0.0
H1030 H 0.11434 0.65796 0.95041 0.0
C1031 C 0.13547 0.68892 0.91836 0.0
C1032 C 0.0968 0.61362 0.44637 0.0
C1033 C 0.11523 0.6536 0.43496 0.0
H1034 H 0.05601 0.50846 0.45504 0.0
C1035 C 0.09622 0.61579 0.42329 0.0
H1036 H 0.10897 0.64122 0.4555 0.0
C1037 C 0.06477 0.53978 0.42301 0.0
C1038 C 0.05245 0.50039 0.4344 0.0
H1039 H 0.10774 0.64502 0.41433 0.0
H1040 H 0.05506 0.51275 0.41386 0.0
C1041 C 0.0654 0.53748 0.44609 0.0
C1042 C 0.41973 0.52327 0.44532 0.0
C1043 C 0.45506 0.54928 0.43354 0.0
H1044 H 0.31743 0.46303 0.45509 0.0
C1045 C 0.41381 0.52585 0.42228 0.0
H1046 H 0.45029 0.54014 0.45417 0.0
C1047 C 0.33785 0.48313 0.42284 0.0
C1048 C 0.30199 0.46233 0.43466 0.0
H1049 H 0.43948 0.54477 0.41306 0.0
H1050 H 0.30729 0.46828 0.41399 0.0
C1051 C 0.34362 0.48025 0.44588 0.0
C1052 C 0.47343 0.85407 0.44623 0.0
C1053 C 0.49577 0.8367 0.43482 0.0
H1054 H 0.40866 0.89411 0.45488 0.0
C1055 C 0.47737 0.85619 0.42316 0.0
H1056 H 0.48845 0.8414 0.45535 0.0
C1057 C 0.43285 0.88747 0.42287 0.0
C1058 C 0.40543 0.89923 0.43424 0.0
H1059 H 0.49559 0.84542 0.41419 0.0
H1060 H 0.41618 0.89791 0.41371 0.0
C1061 C 0.4287 0.88531 0.44594 0.0
C1062 C 0.86125 0.75196 0.2525 0.0
C1063 C 0.82448 0.73867 0.26422 0.0
H1064 H 0.9646 0.79517 0.24304 0.0
C1065 C 0.86406 0.75082 0.27558 0.0
H1066 H 0.83208 0.74282 0.24357 0.0
C1067 C 0.93988 0.78184 0.27525 0.0
C1068 C -0.02263 0.80072 0.26357 0.0
H1069 H 0.83727 0.74086 0.28475 0.0
H1070 H -0.0308 0.79294 0.28421 0.0
C1071 C 0.93723 0.78297 0.25218 0.0
C1072 C 0.21403 0.11395 0.25295 0.0
C1073 C 0.22348 0.08789 0.26473 0.0
H1074 H 0.17178 0.17406 0.24317 0.0
C1075 C 0.20538 0.1109 0.27599 0.0
H1076 H 0.22788 0.09736 0.2441 0.0
C1077 C 0.17193 0.15338 0.27542 0.0
C1078 C 0.15689 0.17434 0.2636 0.0
H1079 H 0.21217 0.09191 0.28521 0.0
H1080 H 0.1561 0.16797 0.28427 0.0
C1081 C 0.18073 0.15672 0.25239 0.0
C1082 C 0.79772 0.02206 0.2749 0.0
C1083 C 0.77923 -0.01596 0.26325 0.0
H1084 H 0.85936 0.12529 0.2843 0.0
C1085 C 0.80097 0.02381 0.25182 0.0
H1086 H 0.77983 -0.00701 0.28387 0.0
C1087 C 0.84569 0.09998 0.25207 0.0
C1088 C 0.86961 0.13728 0.26375 0.0
H1089 H 0.78575 -0.00397 0.24271 0.0
H1090 H 0.86552 0.12884 0.24311 0.0
C1091 C 0.84225 0.09809 0.27515 0.0
C1092 C 0.73214 0.87241 0.75607 0.0
C1093 C 0.71937 0.83279 0.76744 0.0
H1094 H 0.77549 -0.02218 0.74743 0.0
C1095 C 0.73193 0.86966 0.77914 0.0
H1096 H 0.72274 0.84555 0.7469 0.0
C1097 C 0.76338 0.94579 0.77946 0.0
C1098 C 0.78225 -0.014 0.76807 0.0
H1099 H 0.72217 0.84045 0.78808 0.0
H1100 H 0.77524 0.97322 0.7886 0.0
C1101 C 0.76362 0.94842 0.75638 0.0
C1102 C 0.0865 0.856 0.77857 0.0
C1103 C 0.12205 0.88169 0.7668 0.0
H1104 H -0.016 0.79602 0.7883 0.0
C1105 C 0.081 0.858 0.75552 0.0
H1106 H 0.11689 0.87309 0.78744 0.0
C1107 C 0.00504 0.81533 0.75604 0.0
C1108 C -0.03105 0.79483 0.76784 0.0
H1109 H 0.10685 0.87666 0.7463 0.0
H1110 H -0.02536 0.80025 0.74717 0.0
C1111 C 0.01037 0.81301 0.77909 0.0
C1112 C 0.14434 0.1884 0.75633 0.0
C1113 C 0.16286 0.16908 0.768 0.0
H1114 H 0.08303 0.22997 0.74687 0.0
C1115 C 0.14063 0.1866 0.7794 0.0
H1116 H 0.16247 0.17751 0.74737 0.0
C1117 C 0.09588 0.21784 0.77911 0.0
C1118 C 0.07249 0.2316 0.76741 0.0
H1119 H 0.15574 0.17407 0.78853 0.0
H1120 H 0.07593 0.22676 0.78805 0.0
C1121 C 0.09981 0.21967 0.75604 0.0
C1122 C 0.52821 0.08487 0.58555 0.0
C1123 C 0.49126 0.07119 0.59726 0.0
H1124 H 0.63171 0.12831 0.57613 0.0
C1125 C 0.53065 0.08287 0.60863 0.0
H1126 H 0.49919 0.0761 0.57662 0.0
C1127 C 0.60646 0.11382 0.60833 0.0
C1128 C 0.64414 0.13308 0.59667 0.0
H1129 H 0.50371 0.07259 0.61779 0.0
H1130 H 0.63563 0.12456 0.61729 0.0
C1131 C 0.60419 0.1158 0.58526 0.0
C1132 C 0.87197 0.44315 0.60917 0.0
C1133 C 0.89015 0.4202 0.59792 0.0
H1134 H 0.82258 0.50013 0.61745 0.0
C1135 C 0.88073 0.44626 0.58614 0.0
H1136 H 0.87874 0.42416 0.61839 0.0
C1137 C 0.84737 0.48898 0.58558 0.0
C1138 C 0.82346 0.50654 0.59678 0.0
H1139 H 0.89463 0.42971 0.57729 0.0
H1140 H 0.83845 0.50633 0.57636 0.0
C1141 C 0.83847 0.48557 0.60861 0.0
C1142 C 0.46468 0.35447 0.60813 0.0
C1143 C 0.4459 0.31658 0.59647 0.0
H1144 H 0.52661 0.4576 0.61755 0.0
C1145 C 0.4673 0.35648 0.58505 0.0
H1146 H 0.44705 0.3253 0.6171 0.0
C1147 C 0.51202 0.43264 0.58531 0.0
C1148 C 0.53628 0.46981 0.597 0.0
H1149 H 0.45183 0.3288 0.57593 0.0
H1150 H 0.53159 0.4616 0.57636 0.0
C1151 C 0.50922 0.4305 0.60839 0.0
loop_
_geom_bond_atom_site_label_1
_geom_bond_atom_site_label_2
_geom_bond_distance
_geom_bond_site_symmetry_2
_ccdc_geom_bond_type
C0 O16 1.251 . S
C0 O18 1.254 . S
N1 C2 1.333 . S
N1 C6 1.307 1_565 S
N1 Zn7 2.020 . S
C2 N1 1.333 . S
C2 C3 1.379 . S
C2 H20 0.952 . S
C3 C2 1.379 . S
C3 C4 1.390 . S
C3 H30 0.949 . S
C4 C3 1.390 . S
C4 C5 1.357 1_565 S
C5 C4 1.357 1_545 S
C5 C6 1.370 . S
C5 H31 0.950 . S
C6 N1 1.307 1_545 S
C6 C5 1.370 . S
C6 H24 0.948 . S
Zn7 N1 2.020 . S
Zn7 O16 2.039 . S
Zn7 O22 2.034 1_565 S
Zn7 O26 2.025 1_565 S
Zn7 O28 2.024 . S
C8 O27 1.246 . S
C8 O28 1.249 . S
N9 C10 1.307 1_545 S
N9 C11 1.333 . S
N9 Zn15 2.020 . S
C10 N9 1.307 1_565 S
C10 C14 1.370 . S
C10 H21 0.948 . S
C11 N9 1.333 . S
C11 C12 1.379 . S
C11 H19 0.952 . S
C12 C11 1.379 . S
C12 C13 1.390 . S
C12 H32 0.949 . S
C13 C12 1.390 . S
C13 C14 1.357 1_545 S
C14 C10 1.370 . S
C14 C13 1.357 1_565 S
C14 H33 0.950 . S
Zn15 N9 2.020 . S
Zn15 O18 2.025 1_545 S
Zn15 O23 2.024 . S
Zn15 O25 2.039 . S
Zn15 O27 2.034 1_545 S
O16 C0 1.251 . S
O16 Zn7 2.039 . S
C17 O22 1.246 . S
C17 O23 1.249 . S
O18 C0 1.254 . S
O18 Zn15 2.025 1_565 S
H19 C11 0.952 . S
H20 C2 0.952 . S
H21 C10 0.948 . S
O22 Zn7 2.034 1_545 S
O22 C17 1.246 . S
O23 Zn15 2.024 . S
O23 C17 1.249 . S
H24 C6 0.948 . S
O25 Zn15 2.039 . S
O25 C29 1.251 . S
O26 Zn7 2.025 1_545 S
O26 C29 1.254 . S
O27 C8 1.246 . S
O27 Zn15 2.034 1_565 S
O28 Zn7 2.024 . S
O28 C8 1.249 . S
C29 O25 1.251 . S
C29 O26 1.254 . S
H30 C3 0.949 . S
H31 C5 0.950 . S
H32 C12 0.949 . S
H33 C14 0.950 . S
C34 O50 1.251 . S
C34 O52 1.254 . S
N35 C36 1.333 . S
N35 C40 1.307 . S
N35 Zn41 2.020 . S
C36 N35 1.333 . S
C36 C37 1.379 . S
C36 H54 0.952 . S
C37 C36 1.379 . S
C37 C38 1.390 . S
C37 H64 0.949 . S
C38 C37 1.390 . S
C38 C39 1.357 . S
C39 C38 1.357 . S
C39 C40 1.370 . S
C39 H65 0.950 1_455 S
C40 N35 1.307 . S
C40 C39 1.370 . S
C40 H58 0.948 1_455 S
Zn41 N35 2.020 . S
Zn41 O50 2.039 . S
Zn41 O56 2.034 1_455 S
Zn41 O60 2.025 1_455 S
Zn41 O62 2.024 . S
C42 O61 1.246 . S
C42 O62 1.249 . S
N43 C44 1.307 . S
N43 C45 1.333 1_455 S
N43 Zn49 2.020 . S
C44 N43 1.307 . S
C44 C48 1.370 . S
C44 H55 0.948 . S
C45 N43 1.333 1_655 S
C45 C46 1.379 . S
C45 H53 0.952 . S
C46 C45 1.379 . S
C46 C47 1.380 1_655 S
C46 H66 0.949 . S
C47 C46 1.380 1_455 S
C47 C48 1.367 . S
C48 C44 1.370 . S
C48 C47 1.367 . S
C48 H67 0.950 . S
Zn49 N43 2.020 . S
Zn49 O52 2.025 . S
Zn49 O57 2.024 1_455 S
Zn49 O59 2.039 1_455 S
Zn49 O61 2.034 . S
O50 C34 1.251 . S
O50 Zn41 2.039 . S
C51 O56 1.246 . S
C51 O57 1.249 . S
O52 C34 1.254 . S
O52 Zn49 2.025 . S
H53 C45 0.952 . S
H54 C36 0.952 . S
H55 C44 0.948 . S
O56 Zn41 2.034 1_655 S
O56 C51 1.246 . S
O57 Zn49 2.024 1_655 S
O57 C51 1.249 . S
H58 C40 0.948 1_655 S
O59 Zn49 2.039 1_655 S
O59 C63 1.251 . S
O60 Zn41 2.025 1_655 S
O60 C63 1.254 . S
O61 C42 1.246 . S
O61 Zn49 2.034 . S
O62 Zn41 2.024 . S
O62 C42 1.249 . S
C63 O59 1.251 . S
C63 O60 1.254 . S
H64 C37 0.949 . S
H65 C39 0.950 1_655 S
H66 C46 0.949 . S
H67 C48 0.950 . S
C68 O84 1.251 . S
C68 O86 1.254 . S
N69 C70 1.333 . S
N69 C74 1.307 . S
N69 Zn75 2.020 . S
C70 N69 1.333 . S
C70 C71 1.379 . S
C70 H88 0.952 . S
C71 C70 1.379 . S
C71 C72 1.390 . S
C71 H98 0.949 . S
C72 C71 1.390 . S
C72 C73 1.357 . S
C73 C72 1.357 . S
C73 C74 1.370 . S
C73 H99 0.950 . S
C74 N69 1.307 . S
C74 C73 1.370 . S
C74 H92 0.948 . S
Zn75 N69 2.020 . S
Zn75 O84 2.039 . S
Zn75 O90 2.034 . S
Zn75 O94 2.025 . S
Zn75 O96 2.024 . S
C76 O95 1.246 . S
C76 O96 1.249 . S
N77 C78 1.307 . S
N77 C79 1.333 . S
N77 Zn83 2.020 . S
C78 N77 1.307 . S
C78 C82 1.370 . S
C78 H89 0.948 . S
C79 N77 1.333 . S
C79 C80 1.379 . S
C79 H87 0.952 . S
C80 C79 1.379 . S
C80 C81 1.390 . S
C80 H100 0.949 . S
C81 C80 1.390 . S
C81 C82 1.357 . S
C82 C78 1.370 . S
C82 C81 1.357 . S
C82 H101 0.950 . S
Zn83 N77 2.020 . S
Zn83 O86 2.025 . S
Zn83 O91 2.024 . S
Zn83 O93 2.039 . S
Zn83 O95 2.034 . S
O84 C68 1.251 . S
O84 Zn75 2.039 . S
C85 O90 1.246 . S
C85 O91 1.249 . S
O86 C68 1.254 . S
O86 Zn83 2.025 . S
H87 C79 0.952 . S
H88 C70 0.952 . S
H89 C78 0.948 . S
O90 Zn75 2.034 . S
O90 C85 1.246 . S
O91 Zn83 2.024 . S
O91 C85 1.249 . S
H92 C74 0.948 . S
O93 Zn83 2.039 . S
O93 C97 1.251 . S
O94 Zn75 2.025 . S
O94 C97 1.254 . S
O95 C76 1.246 . S
O95 Zn83 2.034 . S
O96 Zn75 2.024 . S
O96 C76 1.249 . S
C97 O93 1.251 . S
C97 O94 1.254 . S
H98 C71 0.949 . S
H99 C73 0.950 . S
H100 C80 0.949 . S
H101 C82 0.950 . S
C102 O118 1.251 . S
C102 O120 1.254 . S
N103 C104 1.333 . S
N103 C108 1.307 1_655 S
N103 Zn109 2.020 . S
C104 N103 1.333 . S
C104 C105 1.379 . S
C104 H122 0.952 . S
C105 C104 1.379 . S
C105 C106 1.390 . S
C105 H132 0.949 . S
C106 C105 1.390 . S
C106 C107 1.357 1_655 S
C107 C106 1.357 1_455 S
C107 C108 1.370 . S
C107 H133 0.950 . S
C108 N103 1.307 1_455 S
C108 C107 1.370 . S
C108 H126 0.948 . S
Zn109 N103 2.020 . S
Zn109 O118 2.039 . S
Zn109 O124 2.034 1_655 S
Zn109 O128 2.025 1_655 S
Zn109 O130 2.024 . S
C110 O129 1.246 . S
C110 O130 1.249 . S
N111 C112 1.307 1_455 S
N111 C113 1.333 . S
N111 Zn117 2.020 . S
C112 N111 1.307 1_655 S
C112 C116 1.370 . S
C112 H123 0.948 . S
C113 N111 1.333 . S
C113 C114 1.379 . S
C113 H121 0.952 . S
C114 C113 1.379 . S
C114 C115 1.390 . S
C114 H134 0.949 . S
C115 C114 1.390 . S
C115 C116 1.357 1_455 S
C116 C112 1.370 . S
C116 C115 1.357 1_655 S
C116 H135 0.950 . S
Zn117 N111 2.020 . S
Zn117 O120 2.025 1_455 S
Zn117 O125 2.024 . S
Zn117 O127 2.039 . S
Zn117 O129 2.034 1_455 S
O118 C102 1.251 . S
O118 Zn109 2.039 . S
C119 O124 1.246 . S
C119 O125 1.249 . S
O120 C102 1.254 . S
O120 Zn117 2.025 1_655 S
H121 C113 0.952 . S
H122 C104 0.952 . S
H123 C112 0.948 . S
O124 Zn109 2.034 1_455 S
O124 C119 1.246 . S
O125 Zn117 2.024 . S
O125 C119 1.249 . S
H126 C108 0.948 . S
O127 Zn117 2.039 . S
O127 C131 1.251 . S
O128 Zn109 2.025 1_455 S
O128 C131 1.254 . S
O129 C110 1.246 . S
O129 Zn117 2.034 1_655 S
O130 Zn109 2.024 . S
O130 C110 1.249 . S
C131 O127 1.251 . S
C131 O128 1.254 . S
H132 C105 0.949 . S
H133 C107 0.950 . S
H134 C114 0.949 . S
H135 C116 0.950 . S
C136 O152 1.251 . S
C136 O154 1.254 . S
N137 C138 1.333 . S
N137 C142 1.307 . S
N137 Zn143 2.020 . S
C138 N137 1.333 . S
C138 C139 1.379 . S
C138 H156 0.952 . S
C139 C138 1.379 . S
C139 C140 1.390 . S
C139 H166 0.949 . S
C140 C139 1.390 . S
C140 C141 1.357 . S
C141 C140 1.357 . S
C141 C142 1.370 . S
C141 H167 0.950 . S
C142 N137 1.307 . S
C142 C141 1.370 . S
C142 H160 0.948 . S
Zn143 N137 2.020 . S
Zn143 O152 2.039 . S
Zn143 O158 2.034 . S
Zn143 O162 2.025 . S
Zn143 O164 2.024 . S
C144 O163 1.246 . S
C144 O164 1.249 . S
N145 C146 1.307 . S
N145 C147 1.333 . S
N145 Zn151 2.020 . S
C146 N145 1.307 . S
C146 C150 1.370 . S
C146 H157 0.948 . S
C147 N145 1.333 . S
C147 C148 1.379 . S
C147 H155 0.952 . S
C148 C147 1.379 . S
C148 C149 1.390 . S
C148 H168 0.949 . S
C149 C148 1.390 . S
C149 C150 1.357 . S
C150 C146 1.370 . S
C150 C149 1.357 . S
C150 H169 0.950 . S
Zn151 N145 2.020 . S
Zn151 O154 2.025 . S
Zn151 O159 2.024 . S
Zn151 O161 2.039 . S
Zn151 O163 2.034 . S
O152 C136 1.251 . S
O152 Zn143 2.039 . S
C153 O158 1.246 . S
C153 O159 1.249 . S
O154 C136 1.254 . S
O154 Zn151 2.025 . S
H155 C147 0.952 . S
H156 C138 0.952 . S
H157 C146 0.948 . S
O158 Zn143 2.034 . S
O158 C153 1.246 . S
O159 Zn151 2.024 . S
O159 C153 1.249 . S
H160 C142 0.948 . S
O161 Zn151 2.039 . S
O161 C165 1.251 . S
O162 Zn143 2.025 . S
O162 C165 1.254 . S
O163 C144 1.246 . S
O163 Zn151 2.034 . S
O164 Zn143 2.024 . S
O164 C144 1.249 . S
C165 O161 1.251 . S
C165 O162 1.254 . S
H166 C139 0.949 . S
H167 C141 0.950 . S
H168 C148 0.949 . S
H169 C150 0.950 . S
C170 O186 1.251 . S
C170 O188 1.254 . S
N171 C172 1.333 . S
N171 C176 1.307 . S
N171 Zn177 2.020 . S
C172 N171 1.333 . S
C172 C173 1.379 . S
C172 H190 0.952 . S
C173 C172 1.379 . S
C173 C174 1.390 . S
C173 H200 0.949 . S
C174 C173 1.390 . S
C174 C175 1.357 . S
C175 C174 1.357 . S
C175 C176 1.370 . S
C175 H201 0.950 1_545 S
C176 N171 1.307 . S
C176 C175 1.370 . S
C176 H194 0.948 1_545 S
Zn177 N171 2.020 . S
Zn177 O186 2.039 . S
Zn177 O192 2.034 1_545 S
Zn177 O196 2.025 1_545 S
Zn177 O198 2.024 . S
C178 O197 1.246 . S
C178 O198 1.249 . S
N179 C180 1.307 . S
N179 C181 1.333 1_545 S
N179 Zn185 2.020 . S
C180 N179 1.307 . S
C180 C184 1.370 . S
C180 H191 0.948 . S
C181 N179 1.333 1_565 S
C181 C182 1.379 . S
C181 H189 0.952 . S
C182 C181 1.379 . S
C182 C183 1.380 1_565 S
C182 H202 0.949 . S
C183 C182 1.380 1_545 S
C183 C184 1.367 . S
C184 C180 1.370 . S
C184 C183 1.367 . S
C184 H203 0.950 . S
Zn185 N179 2.020 . S
Zn185 O188 2.025 . S
Zn185 O193 2.024 1_545 S
Zn185 O195 2.039 1_545 S
Zn185 O197 2.034 . S
O186 C170 1.251 . S
O186 Zn177 2.039 . S
C187 O192 1.246 . S
C187 O193 1.249 . S
O188 C170 1.254 . S
O188 Zn185 2.025 . S
H189 C181 0.952 . S
H190 C172 0.952 . S
H191 C180 0.948 . S
O192 Zn177 2.034 1_565 S
O192 C187 1.246 . S
O193 Zn185 2.024 1_565 S
O193 C187 1.249 . S
H194 C176 0.948 1_565 S
O195 Zn185 2.039 1_565 S
O195 C199 1.251 . S
O196 Zn177 2.025 1_565 S
O196 C199 1.254 . S
O197 C178 1.246 . S
O197 Zn185 2.034 . S
O198 Zn177 2.024 . S
O198 C178 1.249 . S
C199 O195 1.251 . S
C199 O196 1.254 . S
H200 C173 0.949 . S
H201 C175 0.950 1_565 S
H202 C182 0.949 . S
H203 C184 0.950 . S
C204 O220 1.251 . S
C204 O222 1.254 . S
N205 C206 1.333 . S
N205 C210 1.307 . S
N205 Zn211 2.020 . S
C206 N205 1.333 . S
C206 C207 1.379 . S
C206 H224 0.952 . S
C207 C206 1.379 . S
C207 C208 1.390 . S
C207 H234 0.949 1_455 S
C208 C207 1.390 . S
C208 C209 1.357 . S
C209 C208 1.357 . S
C209 C210 1.370 . S
C209 H235 0.950 . S
C210 N205 1.307 . S
C210 C209 1.370 . S
C210 H228 0.948 . S
Zn211 N205 2.020 . S
Zn211 O220 2.039 . S
Zn211 O226 2.034 . S
Zn211 O230 2.025 . S
Zn211 O232 2.024 . S
C212 O231 1.246 . S
C212 O232 1.249 . S
N213 C214 1.307 . S
N213 C215 1.333 . S
N213 Zn219 2.020 . S
C214 N213 1.307 . S
C214 C218 1.370 . S
C214 H225 0.948 . S
C215 N213 1.333 . S
C215 C216 1.379 . S
C215 H223 0.952 . S
C216 C215 1.379 . S
C216 C217 1.390 . S
C216 H236 0.949 . S
C217 C216 1.390 . S
C217 C218 1.357 . S
C218 C214 1.370 . S
C218 C217 1.357 . S
C218 H237 0.950 . S
Zn219 N213 2.020 . S
Zn219 O222 2.025 . S
Zn219 O227 2.024 . S
Zn219 O229 2.039 . S
Zn219 O231 2.034 . S
O220 C204 1.251 . S
O220 Zn211 2.039 . S
C221 O226 1.246 . S
C221 O227 1.249 . S
O222 C204 1.254 . S
O222 Zn219 2.025 . S
H223 C215 0.952 . S
H224 C206 0.952 . S
H225 C214 0.948 . S
O226 Zn211 2.034 . S
O226 C221 1.246 . S
O227 Zn219 2.024 . S
O227 C221 1.249 . S
H228 C210 0.948 . S
O229 Zn219 2.039 . S
O229 C233 1.251 . S
O230 Zn211 2.025 . S
O230 C233 1.254 . S
O231 C212 1.246 . S
O231 Zn219 2.034 . S
O232 Zn211 2.024 . S
O232 C212 1.249 . S
C233 O229 1.251 . S
C233 O230 1.254 . S
H234 C207 0.949 1_655 S
H235 C209 0.950 . S
H236 C216 0.949 . S
H237 C218 0.950 . S
C238 O254 1.251 . S
C238 O256 1.254 . S
N239 C240 1.333 . S
N239 C244 1.307 . S
N239 Zn245 2.020 . S
C240 N239 1.333 . S
C240 C241 1.379 . S
C240 H258 0.952 . S
C241 C240 1.379 . S
C241 C242 1.390 . S
C241 H268 0.949 . S
C242 C241 1.390 . S
C242 C243 1.357 . S
C243 C242 1.357 . S
C243 C244 1.370 . S
C243 H269 0.950 . S
C244 N239 1.307 . S
C244 C243 1.370 . S
C244 H262 0.948 . S
Zn245 N239 2.020 . S
Zn245 O254 2.039 . S
Zn245 O260 2.034 . S
Zn245 O264 2.025 . S
Zn245 O266 2.024 . S
C246 O265 1.246 . S
C246 O266 1.249 . S
N247 C248 1.307 . S
N247 C249 1.333 . S
N247 Zn253 2.020 . S
C248 N247 1.307 . S
C248 C252 1.370 . S
C248 H259 0.948 . S
C249 N247 1.333 . S
C249 C250 1.379 . S
C249 H257 0.952 . S
C250 C249 1.379 . S
C250 C251 1.390 . S
C250 H270 0.949 . S
C251 C250 1.390 . S
C251 C252 1.357 . S
C252 C248 1.370 . S
C252 C251 1.357 . S
C252 H271 0.950 . S
Zn253 N247 2.020 . S
Zn253 O256 2.025 . S
Zn253 O261 2.024 . S
Zn253 O263 2.039 . S
Zn253 O265 2.034 . S
O254 C238 1.251 . S
O254 Zn245 2.039 . S
C255 O260 1.246 . S
C255 O261 1.249 . S
O256 C238 1.254 . S
O256 Zn253 2.025 . S
H257 C249 0.952 . S
H258 C240 0.952 . S
H259 C248 0.948 . S
O260 Zn245 2.034 . S
O260 C255 1.246 . S
O261 Zn253 2.024 . S
O261 C255 1.249 . S
H262 C244 0.948 . S
O263 Zn253 2.039 . S
O263 C267 1.251 . S
O264 Zn245 2.025 . S
O264 C267 1.254 . S
O265 C246 1.246 . S
O265 Zn253 2.034 . S
O266 Zn245 2.024 . S
O266 C246 1.249 . S
C267 O263 1.251 . S
C267 O264 1.254 . S
H268 C241 0.949 . S
H269 C243 0.950 . S
H270 C250 0.949 . S
H271 C252 0.950 . S
C272 O288 1.251 1_545 S
C272 O290 1.254 1_545 S
N273 C274 1.333 . S
N273 C278 1.307 . S
N273 Zn279 2.020 . S
C274 N273 1.333 . S
C274 C275 1.379 . S
C274 H292 0.952 . S
C275 C274 1.379 . S
C275 C276 1.390 . S
C275 H302 0.949 1_565 S
C276 C275 1.390 . S
C276 C277 1.357 . S
C277 C276 1.357 . S
C277 C278 1.370 . S
C277 H303 0.950 . S
C278 N273 1.307 . S
C278 C277 1.370 . S
C278 H296 0.948 . S
Zn279 N273 2.020 . S
Zn279 O288 2.039 . S
Zn279 O294 2.034 . S
Zn279 O298 2.025 . S
Zn279 O300 2.024 . S
C280 O299 1.246 . S
C280 O300 1.249 . S
N281 C282 1.307 . S
N281 C283 1.333 . S
N281 Zn287 2.020 . S
C282 N281 1.307 . S
C282 C286 1.370 . S
C282 H293 0.948 . S
C283 N281 1.333 . S
C283 C284 1.379 . S
C283 H291 0.952 . S
C284 C283 1.379 . S
C284 C285 1.390 . S
C284 H304 0.949 . S
C285 C284 1.390 . S
C285 C286 1.357 . S
C286 C282 1.370 . S
C286 C285 1.357 . S
C286 H305 0.950 . S
Zn287 N281 2.020 . S
Zn287 O290 2.025 . S
Zn287 O295 2.024 . S
Zn287 O297 2.039 . S
Zn287 O299 2.034 . S
O288 C272 1.251 1_565 S
O288 Zn279 2.039 . S
C289 O294 1.246 . S
C289 O295 1.249 . S
O290 C272 1.254 1_565 S
O290 Zn287 2.025 . S
H291 C283 0.952 . S
H292 C274 0.952 . S
H293 C282 0.948 . S
O294 Zn279 2.034 . S
O294 C289 1.246 . S
O295 Zn287 2.024 . S
O295 C289 1.249 . S
H296 C278 0.948 . S
O297 Zn287 2.039 . S
O297 C301 1.251 . S
O298 Zn279 2.025 . S
O298 C301 1.254 . S
O299 C280 1.246 . S
O299 Zn287 2.034 . S
O300 Zn279 2.024 . S
O300 C280 1.249 . S
C301 O297 1.251 . S
C301 O298 1.254 . S
H302 C275 0.949 1_545 S
H303 C277 0.950 . S
H304 C284 0.949 . S
H305 C286 0.950 . S
C306 O322 1.251 . S
C306 O324 1.254 . S
N307 C308 1.333 . S
N307 C312 1.307 . S
N307 Zn313 2.020 . S
C308 N307 1.333 . S
C308 C309 1.379 . S
C308 H326 0.952 . S
C309 C308 1.379 . S
C309 C310 1.390 . S
C309 H336 0.949 . S
C310 C309 1.390 . S
C310 C311 1.357 . S
C311 C310 1.357 . S
C311 C312 1.370 . S
C311 H337 0.950 . S
C312 N307 1.307 . S
C312 C311 1.370 . S
C312 H330 0.948 . S
Zn313 N307 2.020 . S
Zn313 O322 2.039 . S
Zn313 O328 2.034 . S
Zn313 O332 2.025 . S
Zn313 O334 2.024 . S
C314 O333 1.246 . S
C314 O334 1.249 . S
N315 C316 1.307 . S
N315 C317 1.333 . S
N315 Zn321 2.020 . S
C316 N315 1.307 . S
C316 C320 1.370 . S
C316 H327 0.948 . S
C317 N315 1.333 . S
C317 C318 1.379 . S
C317 H325 0.952 . S
C318 C317 1.379 . S
C318 C319 1.390 . S
C318 H338 0.949 . S
C319 C318 1.390 . S
C319 C320 1.357 . S
C320 C316 1.370 . S
C320 C319 1.357 . S
C320 H339 0.950 . S
Zn321 N315 2.020 . S
Zn321 O324 2.025 . S
Zn321 O329 2.024 . S
Zn321 O331 2.039 . S
Zn321 O333 2.034 . S
O322 C306 1.251 . S
O322 Zn313 2.039 . S
C323 O328 1.246 . S
C323 O329 1.249 . S
O324 C306 1.254 . S
O324 Zn321 2.025 . S
H325 C317 0.952 . S
H326 C308 0.952 . S
H327 C316 0.948 . S
O328 Zn313 2.034 . S
O328 C323 1.246 . S
O329 Zn321 2.024 . S
O329 C323 1.249 . S
H330 C312 0.948 . S
O331 Zn321 2.039 . S
O331 C335 1.251 . S
O332 Zn313 2.025 . S
O332 C335 1.254 . S
O333 C314 1.246 . S
O333 Zn321 2.034 . S
O334 Zn313 2.024 . S
O334 C314 1.249 . S
C335 O331 1.251 . S
C335 O332 1.254 . S
H336 C309 0.949 . S
H337 C311 0.950 . S
H338 C318 0.949 . S
H339 C320 0.950 . S
C340 O356 1.251 . S
C340 O358 1.254 . S
N341 C342 1.333 . S
N341 C346 1.307 . S
N341 Zn347 2.020 . S
C342 N341 1.333 . S
C342 C343 1.379 . S
C342 H360 0.952 . S
C343 C342 1.379 . S
C343 C344 1.390 . S
C343 H370 0.949 . S
C344 C343 1.390 . S
C344 C345 1.357 . S
C345 C344 1.357 . S
C345 C346 1.370 . S
C345 H371 0.950 . S
C346 N341 1.307 . S
C346 C345 1.370 . S
C346 H364 0.948 . S
Zn347 N341 2.020 . S
Zn347 O356 2.039 . S
Zn347 O362 2.034 . S
Zn347 O366 2.025 . S
Zn347 O368 2.024 . S
C348 O367 1.246 . S
C348 O368 1.249 . S
N349 C350 1.307 . S
N349 C351 1.333 . S
N349 Zn355 2.020 . S
C350 N349 1.307 . S
C350 C354 1.370 . S
C350 H361 0.948 . S
C351 N349 1.333 . S
C351 C352 1.379 . S
C351 H359 0.952 . S
C352 C351 1.379 . S
C352 C353 1.390 . S
C352 H372 0.949 . S
C353 C352 1.390 . S
C353 C354 1.357 . S
C354 C350 1.370 . S
C354 C353 1.357 . S
C354 H373 0.950 . S
Zn355 N349 2.020 . S
Zn355 O358 2.025 . S
Zn355 O363 2.024 . S
Zn355 O365 2.039 . S
Zn355 O367 2.034 . S
O356 C340 1.251 . S
O356 Zn347 2.039 . S
C357 O362 1.246 1_545 S
C357 O363 1.249 1_545 S
O358 C340 1.254 . S
O358 Zn355 2.025 . S
H359 C351 0.952 . S
H360 C342 0.952 . S
H361 C350 0.948 . S
O362 Zn347 2.034 . S
O362 C357 1.246 1_565 S
O363 Zn355 2.024 . S
O363 C357 1.249 1_565 S
H364 C346 0.948 . S
O365 Zn355 2.039 . S
O365 C369 1.251 . S
O366 Zn347 2.025 . S
O366 C369 1.254 . S
O367 C348 1.246 . S
O367 Zn355 2.034 . S
O368 Zn347 2.024 . S
O368 C348 1.249 . S
C369 O365 1.251 . S
C369 O366 1.254 . S
H370 C343 0.949 . S
H371 C345 0.950 . S
H372 C352 0.949 . S
H373 C354 0.950 . S
C374 O390 1.251 . S
C374 O392 1.254 . S
N375 C376 1.333 . S
N375 C380 1.307 . S
N375 Zn381 2.020 . S
C376 N375 1.333 . S
C376 C377 1.379 . S
C376 H394 0.952 . S
C377 C376 1.379 . S
C377 C378 1.390 . S
C377 H404 0.949 . S
C378 C377 1.390 . S
C378 C379 1.357 . S
C379 C378 1.357 . S
C379 C380 1.370 . S
C379 H405 0.950 . S
C380 N375 1.307 . S
C380 C379 1.370 . S
C380 H398 0.948 . S
Zn381 N375 2.020 . S
Zn381 O390 2.039 . S
Zn381 O396 2.034 . S
Zn381 O400 2.025 . S
Zn381 O402 2.024 . S
C382 O401 1.246 . S
C382 O402 1.249 . S
N383 C384 1.307 . S
N383 C385 1.333 . S
N383 Zn389 2.020 . S
C384 N383 1.307 . S
C384 C388 1.370 . S
C384 H395 0.948 . S
C385 N383 1.333 . S
C385 C386 1.379 . S
C385 H393 0.952 . S
C386 C385 1.379 . S
C386 C387 1.390 . S
C386 H406 0.949 . S
C387 C386 1.390 . S
C387 C388 1.357 . S
C388 C384 1.370 . S
C388 C387 1.357 . S
C388 H407 0.950 . S
Zn389 N383 2.020 . S
Zn389 O392 2.025 . S
Zn389 O397 2.024 . S
Zn389 O399 2.039 . S
Zn389 O401 2.034 . S
O390 C374 1.251 . S
O390 Zn381 2.039 . S
C391 O396 1.246 . S
C391 O397 1.249 . S
O392 C374 1.254 . S
O392 Zn389 2.025 . S
H393 C385 0.952 . S
H394 C376 0.952 . S
H395 C384 0.948 . S
O396 Zn381 2.034 . S
O396 C391 1.246 . S
O397 Zn389 2.024 . S
O397 C391 1.249 . S
H398 C380 0.948 . S
O399 Zn389 2.039 . S
O399 C403 1.251 . S
O400 Zn381 2.025 . S
O400 C403 1.254 . S
O401 C382 1.246 . S
O401 Zn389 2.034 . S
O402 Zn381 2.024 . S
O402 C382 1.249 . S
C403 O399 1.251 . S
C403 O400 1.254 . S
H404 C377 0.949 . S
H405 C379 0.950 . S
H406 C386 0.949 . S
H407 C388 0.950 . S
C408 O424 1.251 . S
C408 O426 1.254 . S
N409 C410 1.333 . S
N409 C414 1.307 . S
N409 Zn415 2.020 . S
C410 N409 1.333 . S
C410 C411 1.379 . S
C410 H428 0.952 . S
C411 C410 1.379 . S
C411 C412 1.390 . S
C411 H438 0.949 . S
C412 C411 1.390 . S
C412 C413 1.357 . S
C413 C412 1.357 . S
C413 C414 1.370 . S
C413 H439 0.950 . S
C414 N409 1.307 . S
C414 C413 1.370 . S
C414 H432 0.948 . S
Zn415 N409 2.020 . S
Zn415 O424 2.039 . S
Zn415 O430 2.034 . S
Zn415 O434 2.025 . S
Zn415 O436 2.024 . S
C416 O435 1.246 . S
C416 O436 1.249 . S
N417 C418 1.307 . S
N417 C419 1.333 . S
N417 Zn423 2.020 . S
C418 N417 1.307 . S
C418 C422 1.370 . S
C418 H429 0.948 . S
C419 N417 1.333 . S
C419 C420 1.379 . S
C419 H427 0.952 . S
C420 C419 1.379 . S
C420 C421 1.390 . S
C420 H440 0.949 . S
C421 C420 1.390 . S
C421 C422 1.357 . S
C422 C418 1.370 . S
C422 C421 1.357 . S
C422 H441 0.950 . S
Zn423 N417 2.020 . S
Zn423 O426 2.025 . S
Zn423 O431 2.024 . S
Zn423 O433 2.039 . S
Zn423 O435 2.034 . S
O424 C408 1.251 . S
O424 Zn415 2.039 . S
C425 O430 1.246 . S
C425 O431 1.249 . S
O426 C408 1.254 . S
O426 Zn423 2.025 . S
H427 C419 0.952 . S
H428 C410 0.952 . S
H429 C418 0.948 . S
O430 Zn415 2.034 . S
O430 C425 1.246 . S
O431 Zn423 2.024 . S
O431 C425 1.249 . S
H432 C414 0.948 . S
O433 Zn423 2.039 . S
O433 C437 1.251 . S
O434 Zn415 2.025 . S
O434 C437 1.254 . S
O435 C416 1.246 . S
O435 Zn423 2.034 . S
O436 Zn415 2.024 . S
O436 C416 1.249 . S
C437 O433 1.251 . S
C437 O434 1.254 . S
H438 C411 0.949 . S
H439 C413 0.950 . S
H440 C420 0.949 . S
H441 C422 0.950 . S
C442 O458 1.251 . S
C442 O460 1.254 . S
N443 C444 1.333 . S
N443 C448 1.307 . S
N443 Zn449 2.020 . S
C444 N443 1.333 . S
C444 C445 1.379 . S
C444 H462 0.952 . S
C445 C444 1.379 . S
C445 C446 1.390 . S
C445 H472 0.949 . S
C446 C445 1.390 . S
C446 C447 1.357 . S
C447 C446 1.357 . S
C447 C448 1.370 . S
C447 H473 0.950 . S
C448 N443 1.307 . S
C448 C447 1.370 . S
C448 H466 0.948 . S
Zn449 N443 2.020 . S
Zn449 O458 2.039 . S
Zn449 O464 2.034 . S
Zn449 O468 2.025 . S
Zn449 O470 2.024 . S
C450 O469 1.246 . S
C450 O470 1.249 . S
N451 C452 1.307 . S
N451 C453 1.333 . S
N451 Zn457 2.020 . S
C452 N451 1.307 . S
C452 C456 1.370 . S
C452 H463 0.948 . S
C453 N451 1.333 . S
C453 C454 1.379 . S
C453 H461 0.952 . S
C454 C453 1.379 . S
C454 C455 1.390 . S
C454 H474 0.949 . S
C455 C454 1.390 . S
C455 C456 1.357 . S
C456 C452 1.370 . S
C456 C455 1.357 . S
C456 H475 0.950 . S
Zn457 N451 2.020 . S
Zn457 O460 2.025 . S
Zn457 O465 2.024 . S
Zn457 O467 2.039 . S
Zn457 O469 2.034 . S
O458 C442 1.251 . S
O458 Zn449 2.039 . S
C459 O464 1.246 . S
C459 O465 1.249 . S
O460 C442 1.254 . S
O460 Zn457 2.025 . S
H461 C453 0.952 . S
H462 C444 0.952 . S
H463 C452 0.948 . S
O464 Zn449 2.034 . S
O464 C459 1.246 . S
O465 Zn457 2.024 . S
O465 C459 1.249 . S
H466 C448 0.948 . S
O467 Zn457 2.039 . S
O467 C471 1.251 . S
O468 Zn449 2.025 . S
O468 C471 1.254 . S
O469 C450 1.246 . S
O469 Zn457 2.034 . S
O470 Zn449 2.024 . S
O470 C450 1.249 . S
C471 O467 1.251 . S
C471 O468 1.254 . S
H472 C445 0.949 . S
H473 C447 0.950 . S
H474 C454 0.949 . S
H475 C456 0.950 . S
C476 O492 1.251 . S
C476 O494 1.254 . S
N477 C478 1.333 . S
N477 C482 1.307 . S
N477 Zn483 2.020 . S
C478 N477 1.333 . S
C478 C479 1.379 . S
C478 H496 0.952 . S
C479 C478 1.379 . S
C479 C480 1.390 . S
C479 H506 0.949 . S
C480 C479 1.390 . S
C480 C481 1.357 . S
C481 C480 1.357 . S
C481 C482 1.370 . S
C481 H507 0.950 . S
C482 N477 1.307 . S
C482 C481 1.370 . S
C482 H500 0.948 . S
Zn483 N477 2.020 . S
Zn483 O492 2.039 . S
Zn483 O498 2.034 . S
Zn483 O502 2.025 . S
Zn483 O504 2.024 . S
C484 O503 1.246 . S
C484 O504 1.249 . S
N485 C486 1.307 . S
N485 C487 1.333 . S
N485 Zn491 2.020 . S
C486 N485 1.307 . S
C486 C490 1.370 . S
C486 H497 0.948 . S
C487 N485 1.333 . S
C487 C488 1.379 . S
C487 H495 0.952 . S
C488 C487 1.379 . S
C488 C489 1.390 . S
C488 H508 0.949 . S
C489 C488 1.390 . S
C489 C490 1.357 . S
C490 C486 1.370 . S
C490 C489 1.357 . S
C490 H509 0.950 . S
Zn491 N485 2.020 . S
Zn491 O494 2.025 . S
Zn491 O499 2.024 . S
Zn491 O501 2.039 . S
Zn491 O503 2.034 . S
O492 C476 1.251 . S
O492 Zn483 2.039 . S
C493 O498 1.246 1_455 S
C493 O499 1.249 1_455 S
O494 C476 1.254 . S
O494 Zn491 2.025 . S
H495 C487 0.952 . S
H496 C478 0.952 . S
H497 C486 0.948 . S
O498 Zn483 2.034 . S
O498 C493 1.246 1_655 S
O499 Zn491 2.024 . S
O499 C493 1.249 1_655 S
H500 C482 0.948 . S
O501 Zn491 2.039 . S
O501 C505 1.251 . S
O502 Zn483 2.025 . S
O502 C505 1.254 . S
O503 C484 1.246 . S
O503 Zn491 2.034 . S
O504 Zn483 2.024 . S
O504 C484 1.249 . S
C505 O501 1.251 . S
C505 O502 1.254 . S
H506 C479 0.949 . S
H507 C481 0.950 . S
H508 C488 0.949 . S
H509 C490 0.950 . S
C510 O526 1.251 . S
C510 O528 1.254 . S
N511 C512 1.333 . S
N511 C516 1.307 . S
N511 Zn517 2.020 . S
C512 N511 1.333 . S
C512 C513 1.379 . S
C512 H530 0.952 . S
C513 C512 1.379 . S
C513 C514 1.390 . S
C513 H540 0.949 1_545 S
C514 C513 1.390 . S
C514 C515 1.357 . S
C515 C514 1.357 . S
C515 C516 1.370 . S
C515 H541 0.950 . S
C516 N511 1.307 . S
C516 C515 1.370 . S
C516 H534 0.948 . S
Zn517 N511 2.020 . S
Zn517 O526 2.039 . S
Zn517 O532 2.034 . S
Zn517 O536 2.025 . S
Zn517 O538 2.024 . S
C518 O537 1.246 . S
C518 O538 1.249 . S
N519 C520 1.307 . S
N519 C521 1.333 . S
N519 Zn525 2.020 . S
C520 N519 1.307 . S
C520 C524 1.370 . S
C520 H531 0.948 . S
C521 N519 1.333 . S
C521 C522 1.379 . S
C521 H529 0.952 . S
C522 C521 1.379 . S
C522 C523 1.390 . S
C522 H542 0.949 . S
C523 C522 1.390 . S
C523 C524 1.357 . S
C524 C520 1.370 . S
C524 C523 1.357 . S
C524 H543 0.950 . S
Zn525 N519 2.020 . S
Zn525 O528 2.025 . S
Zn525 O533 2.024 . S
Zn525 O535 2.039 . S
Zn525 O537 2.034 . S
O526 C510 1.251 . S
O526 Zn517 2.039 . S
C527 O532 1.246 . S
C527 O533 1.249 . S
O528 C510 1.254 . S
O528 Zn525 2.025 . S
H529 C521 0.952 . S
H530 C512 0.952 . S
H531 C520 0.948 . S
O532 Zn517 2.034 . S
O532 C527 1.246 . S
O533 Zn525 2.024 . S
O533 C527 1.249 . S
H534 C516 0.948 . S
O535 Zn525 2.039 . S
O535 C539 1.251 . S
O536 Zn517 2.025 . S
O536 C539 1.254 . S
O537 C518 1.246 . S
O537 Zn525 2.034 . S
O538 Zn517 2.024 . S
O538 C518 1.249 . S
C539 O535 1.251 . S
C539 O536 1.254 . S
H540 C513 0.949 1_565 S
H541 C515 0.950 . S
H542 C522 0.949 . S
H543 C524 0.950 . S
C544 O560 1.251 1_455 S
C544 O562 1.254 1_455 S
N545 C546 1.333 . S
N545 C550 1.307 . S
N545 Zn551 2.020 . S
C546 N545 1.333 . S
C546 C547 1.379 . S
C546 H564 0.952 . S
C547 C546 1.379 . S
C547 C548 1.390 . S
C547 H574 0.949 1_655 S
C548 C547 1.390 . S
C548 C549 1.357 . S
C549 C548 1.357 . S
C549 C550 1.370 . S
C549 H575 0.950 . S
C550 N545 1.307 . S
C550 C549 1.370 . S
C550 H568 0.948 . S
Zn551 N545 2.020 . S
Zn551 O560 2.039 . S
Zn551 O566 2.034 . S
Zn551 O570 2.025 . S
Zn551 O572 2.024 . S
C552 O571 1.246 . S
C552 O572 1.249 . S
N553 C554 1.307 . S
N553 C555 1.333 . S
N553 Zn559 2.020 . S
C554 N553 1.307 . S
C554 C558 1.370 . S
C554 H565 0.948 . S
C555 N553 1.333 . S
C555 C556 1.379 . S
C555 H563 0.952 . S
C556 C555 1.379 . S
C556 C557 1.390 . S
C556 H576 0.949 . S
C557 C556 1.390 . S
C557 C558 1.357 . S
C558 C554 1.370 . S
C558 C557 1.357 . S
C558 H577 0.950 . S
Zn559 N553 2.020 . S
Zn559 O562 2.025 . S
Zn559 O567 2.024 . S
Zn559 O569 2.039 . S
Zn559 O571 2.034 . S
O560 C544 1.251 1_655 S
O560 Zn551 2.039 . S
C561 O566 1.246 . S
C561 O567 1.249 . S
O562 C544 1.254 1_655 S
O562 Zn559 2.025 . S
H563 C555 0.952 . S
H564 C546 0.952 . S
H565 C554 0.948 . S
O566 Zn551 2.034 . S
O566 C561 1.246 . S
O567 Zn559 2.024 . S
O567 C561 1.249 . S
H568 C550 0.948 . S
O569 Zn559 2.039 . S
O569 C573 1.251 . S
O570 Zn551 2.025 . S
O570 C573 1.254 . S
O571 C552 1.246 . S
O571 Zn559 2.034 . S
O572 Zn551 2.024 . S
O572 C552 1.249 . S
C573 O569 1.251 . S
C573 O570 1.254 . S
H574 C547 0.949 1_455 S
H575 C549 0.950 . S
H576 C556 0.949 . S
H577 C558 0.950 . S
C578 O594 1.251 . S
C578 O596 1.254 . S
N579 C580 1.333 . S
N579 C584 1.307 . S
N579 Zn585 2.020 . S
C580 N579 1.333 . S
C580 C581 1.379 . S
C580 H598 0.952 . S
C581 C580 1.379 . S
C581 C582 1.390 . S
C581 H608 0.949 . S
C582 C581 1.390 . S
C582 C583 1.357 . S
C583 C582 1.357 . S
C583 C584 1.370 . S
C583 H609 0.950 . S
C584 N579 1.307 . S
C584 C583 1.370 . S
C584 H602 0.948 . S
Zn585 N579 2.020 . S
Zn585 O594 2.039 . S
Zn585 O600 2.034 . S
Zn585 O604 2.025 . S
Zn585 O606 2.024 . S
C586 O605 1.246 . S
C586 O606 1.249 . S
N587 C588 1.307 . S
N587 C589 1.333 . S
N587 Zn593 2.020 . S
C588 N587 1.307 . S
C588 C592 1.370 . S
C588 H599 0.948 . S
C589 N587 1.333 . S
C589 C590 1.379 . S
C589 H597 0.952 . S
C590 C589 1.379 . S
C590 C591 1.390 . S
C590 H610 0.949 . S
C591 C590 1.390 . S
C591 C592 1.357 . S
C592 C588 1.370 . S
C592 C591 1.357 . S
C592 H611 0.950 . S
Zn593 N587 2.020 . S
Zn593 O596 2.025 . S
Zn593 O601 2.024 . S
Zn593 O603 2.039 . S
Zn593 O605 2.034 . S
O594 C578 1.251 . S
O594 Zn585 2.039 . S
C595 O600 1.246 . S
C595 O601 1.249 . S
O596 C578 1.254 . S
O596 Zn593 2.025 . S
H597 C589 0.952 . S
H598 C580 0.952 . S
H599 C588 0.948 . S
O600 Zn585 2.034 . S
O600 C595 1.246 . S
O601 Zn593 2.024 . S
O601 C595 1.249 . S
H602 C584 0.948 . S
O603 Zn593 2.039 . S
O603 C607 1.251 . S
O604 Zn585 2.025 . S
O604 C607 1.254 . S
O605 C586 1.246 . S
O605 Zn593 2.034 . S
O606 Zn585 2.024 . S
O606 C586 1.249 . S
C607 O603 1.251 . S
C607 O604 1.254 . S
H608 C581 0.949 . S
H609 C583 0.950 . S
H610 C590 0.949 . S
H611 C592 0.950 . S
C612 C613 1.387 . S
C612 H616 0.950 . S
C612 C621 1.390 . S
C613 C612 1.387 . S
C613 C615 1.387 . S
H614 C621 0.950 . S
C615 C613 1.387 . S
C615 C617 1.390 . S
C615 H619 0.950 . S
H616 C612 0.950 . S
C617 C615 1.390 . S
C617 C618 1.387 . S
C617 H620 0.950 . S
C618 C617 1.387 . S
C618 C621 1.387 . S
H619 C615 0.950 . S
H620 C617 0.950 . S
C621 C612 1.390 . S
C621 H614 0.950 . S
C621 C618 1.387 . S
C622 C623 1.387 . S
C622 H626 0.950 . S
C622 C631 1.390 . S
C623 C622 1.387 . S
C623 C625 1.387 . S
H624 C631 0.950 . S
C625 C623 1.387 . S
C625 C627 1.390 . S
C625 H629 0.950 . S
H626 C622 0.950 . S
C627 C625 1.390 . S
C627 C628 1.387 . S
C627 H630 0.950 . S
C628 C627 1.387 . S
C628 C631 1.387 . S
H629 C625 0.950 . S
H630 C627 0.950 . S
C631 C622 1.390 . S
C631 H624 0.950 . S
C631 C628 1.387 . S
C632 C633 1.387 . S
C632 H636 0.950 . S
C632 C641 1.390 . S
C633 C632 1.387 . S
C633 C635 1.387 . S
H634 C641 0.950 . S
C635 C633 1.387 . S
C635 C637 1.390 . S
C635 H639 0.950 . S
H636 C632 0.950 . S
C637 C635 1.390 . S
C637 C638 1.387 . S
C637 H640 0.950 . S
C638 C637 1.387 . S
C638 C641 1.387 . S
H639 C635 0.950 . S
H640 C637 0.950 . S
C641 C632 1.390 . S
C641 H634 0.950 . S
C641 C638 1.387 . S
C642 C643 1.387 . S
C642 H646 0.950 . S
C642 C651 1.390 . S
C643 C642 1.387 . S
C643 C645 1.387 . S
H644 C651 0.950 . S
C645 C643 1.387 . S
C645 C647 1.390 . S
C645 H649 0.950 . S
H646 C642 0.950 . S
C647 C645 1.390 . S
C647 C648 1.387 . S
C647 H650 0.950 . S
C648 C647 1.387 . S
C648 C651 1.387 . S
H649 C645 0.950 . S
H650 C647 0.950 . S
C651 C642 1.390 . S
C651 H644 0.950 . S
C651 C648 1.387 . S
C652 C653 1.387 . S
C652 H656 0.950 . S
C652 C661 1.390 . S
C653 C652 1.387 . S
C653 C655 1.387 . S
H654 C661 0.950 . S
C655 C653 1.387 . S
C655 C657 1.390 . S
C655 H659 0.950 . S
H656 C652 0.950 . S
C657 C655 1.390 . S
C657 C658 1.387 . S
C657 H660 0.950 . S
C658 C657 1.387 . S
C658 C661 1.387 . S
H659 C655 0.950 . S
H660 C657 0.950 . S
C661 C652 1.390 . S
C661 H654 0.950 . S
C661 C658 1.387 . S
C662 C663 1.387 . S
C662 H666 0.950 . S
C662 C671 1.390 . S
C663 C662 1.387 . S
C663 C665 1.387 . S
H664 C671 0.950 . S
C665 C663 1.387 . S
C665 C667 1.390 . S
C665 H669 0.950 . S
H666 C662 0.950 . S
C667 C665 1.390 . S
C667 C668 1.387 . S
C667 H670 0.950 . S
C668 C667 1.387 . S
C668 C671 1.387 . S
H669 C665 0.950 . S
H670 C667 0.950 . S
C671 C662 1.390 . S
C671 H664 0.950 . S
C671 C668 1.387 . S
C672 C673 1.387 . S
C672 H676 0.950 . S
C672 C681 1.390 . S
C673 C672 1.387 . S
C673 C675 1.387 . S
H674 C681 0.950 . S
C675 C673 1.387 . S
C675 C677 1.390 . S
C675 H679 0.950 . S
H676 C672 0.950 . S
C677 C675 1.390 . S
C677 C678 1.387 . S
C677 H680 0.950 . S
C678 C677 1.387 . S
C678 C681 1.387 . S
H679 C675 0.950 . S
H680 C677 0.950 . S
C681 C672 1.390 . S
C681 H674 0.950 . S
C681 C678 1.387 . S
C682 C683 1.387 . S
C682 H686 0.950 . S
C682 C691 1.390 . S
C683 C682 1.387 . S
C683 C685 1.387 . S
H684 C691 0.950 . S
C685 C683 1.387 . S
C685 C687 1.390 . S
C685 H689 0.950 . S
H686 C682 0.950 . S
C687 C685 1.390 . S
C687 C688 1.387 . S
C687 H690 0.950 . S
C688 C687 1.387 . S
C688 C691 1.387 . S
H689 C685 0.950 . S
H690 C687 0.950 . S
C691 C682 1.390 . S
C691 H684 0.950 . S
C691 C688 1.387 . S
C692 C693 1.387 . S
C692 H696 0.950 . S
C692 C701 1.390 . S
C693 C692 1.387 . S
C693 C695 1.387 . S
H694 C701 0.950 . S
C695 C693 1.387 . S
C695 C697 1.390 . S
C695 H699 0.950 . S
H696 C692 0.950 . S
C697 C695 1.390 . S
C697 C698 1.387 . S
C697 H700 0.950 . S
C698 C697 1.387 . S
C698 C701 1.387 . S
H699 C695 0.950 . S
H700 C697 0.950 . S
C701 C692 1.390 . S
C701 H694 0.950 . S
C701 C698 1.387 . S
C702 C703 1.387 . S
C702 H706 0.950 . S
C702 C711 1.390 . S
C703 C702 1.387 . S
C703 C705 1.387 . S
H704 C711 0.950 . S
C705 C703 1.387 . S
C705 C707 1.390 . S
C705 H709 0.950 . S
H706 C702 0.950 . S
C707 C705 1.390 . S
C707 C708 1.387 . S
C707 H710 0.950 . S
C708 C707 1.387 . S
C708 C711 1.387 . S
H709 C705 0.950 . S
H710 C707 0.950 . S
C711 C702 1.390 . S
C711 H704 0.950 . S
C711 C708 1.387 . S
C712 C713 1.387 . S
C712 H716 0.950 . S
C712 C721 1.390 . S
C713 C712 1.387 . S
C713 C715 1.387 . S
H714 C721 0.950 . S
C715 C713 1.387 . S
C715 C717 1.390 . S
C715 H719 0.950 . S
H716 C712 0.950 . S
C717 C715 1.390 . S
C717 C718 1.387 . S
C717 H720 0.950 . S
C718 C717 1.387 . S
C718 C721 1.387 . S
H719 C715 0.950 . S
H720 C717 0.950 . S
C721 C712 1.390 . S
C721 H714 0.950 . S
C721 C718 1.387 . S
C722 C723 1.387 . S
C722 H726 0.950 . S
C722 C731 1.390 . S
C723 C722 1.387 . S
C723 C725 1.387 . S
H724 C731 0.950 . S
C725 C723 1.387 . S
C725 C727 1.390 . S
C725 H729 0.950 . S
H726 C722 0.950 . S
C727 C725 1.390 . S
C727 C728 1.387 . S
C727 H730 0.950 . S
C728 C727 1.387 . S
C728 C731 1.387 . S
H729 C725 0.950 . S
H730 C727 0.950 . S
C731 C722 1.390 . S
C731 H724 0.950 . S
C731 C728 1.387 . S
C732 C733 1.387 . S
C732 H736 0.950 . S
C732 C741 1.390 . S
C733 C732 1.387 . S
C733 C735 1.387 . S
H734 C741 0.950 . S
C735 C733 1.387 . S
C735 C737 1.390 . S
C735 H739 0.950 . S
H736 C732 0.950 . S
C737 C735 1.390 . S
C737 C738 1.387 . S
C737 H740 0.950 . S
C738 C737 1.387 . S
C738 C741 1.387 . S
H739 C735 0.950 . S
H740 C737 0.950 . S
C741 C732 1.390 . S
C741 H734 0.950 . S
C741 C738 1.387 . S
C742 C743 1.387 . S
C742 H746 0.950 . S
C742 C751 1.390 . S
C743 C742 1.387 . S
C743 C745 1.387 . S
H744 C751 0.950 . S
C745 C743 1.387 . S
C745 C747 1.390 . S
C745 H749 0.950 . S
H746 C742 0.950 . S
C747 C745 1.390 . S
C747 C748 1.387 . S
C747 H750 0.950 . S
C748 C747 1.387 . S
C748 C751 1.387 . S
H749 C745 0.950 . S
H750 C747 0.950 . S
C751 C742 1.390 . S
C751 H744 0.950 . S
C751 C748 1.387 . S
C752 C753 1.387 . S
C752 H756 0.950 . S
C752 C761 1.390 . S
C753 C752 1.387 . S
C753 C755 1.387 . S
H754 C761 0.950 . S
C755 C753 1.387 . S
C755 C757 1.390 . S
C755 H759 0.950 . S
H756 C752 0.950 . S
C757 C755 1.390 . S
C757 C758 1.387 . S
C757 H760 0.950 . S
C758 C757 1.387 . S
C758 C761 1.387 . S
H759 C755 0.950 . S
H760 C757 0.950 . S
C761 C752 1.390 . S
C761 H754 0.950 . S
C761 C758 1.387 . S
C762 C763 1.387 . S
C762 H766 0.950 . S
C762 C771 1.390 . S
C763 C762 1.387 . S
C763 C765 1.387 . S
H764 C771 0.950 . S
C765 C763 1.387 . S
C765 C767 1.390 . S
C765 H769 0.950 . S
H766 C762 0.950 . S
C767 C765 1.390 . S
C767 C768 1.387 . S
C767 H770 0.950 . S
C768 C767 1.387 . S
C768 C771 1.387 . S
H769 C765 0.950 . S
H770 C767 0.950 . S
C771 C762 1.390 . S
C771 H764 0.950 . S
C771 C768 1.387 . S
C772 C773 1.387 . S
C772 H776 0.950 . S
C772 C781 1.390 . S
C773 C772 1.387 . S
C773 C775 1.387 . S
H774 C781 0.950 . S
C775 C773 1.387 . S
C775 C777 1.390 . S
C775 H779 0.950 . S
H776 C772 0.950 . S
C777 C775 1.390 . S
C777 C778 1.387 . S
C777 H780 0.950 . S
C778 C777 1.387 . S
C778 C781 1.387 . S
H779 C775 0.950 . S
H780 C777 0.950 . S
C781 C772 1.390 . S
C781 H774 0.950 . S
C781 C778 1.387 . S
C782 C783 1.387 . S
C782 H786 0.950 . S
C782 C791 1.390 . S
C783 C782 1.387 . S
C783 C785 1.387 . S
H784 C791 0.950 . S
C785 C783 1.387 . S
C785 C787 1.390 . S
C785 H789 0.950 . S
H786 C782 0.950 . S
C787 C785 1.390 . S
C787 C788 1.387 . S
C787 H790 0.950 . S
C788 C787 1.387 . S
C788 C791 1.387 . S
H789 C785 0.950 . S
H790 C787 0.950 . S
C791 C782 1.390 . S
C791 H784 0.950 . S
C791 C788 1.387 . S
C792 C793 1.387 . S
C792 H796 0.950 . S
C792 C801 1.390 1_554 S
C793 C792 1.387 . S
C793 C795 1.387 . S
H794 C801 0.950 1_565 S
C795 C793 1.387 . S
C795 C797 1.390 1_554 S
C795 H799 0.950 . S
H796 C792 0.950 . S
C797 C795 1.390 1_556 S
C797 C798 1.385 1_545 S
C797 H800 0.950 . S
C798 C797 1.385 1_565 S
C798 C801 1.389 1_565 S
H799 C795 0.950 . S
H800 C797 0.950 . S
C801 C792 1.390 1_556 S
C801 H794 0.950 1_545 S
C801 C798 1.389 1_545 S
C802 C803 1.387 1_655 S
C802 H806 0.950 . S
C802 C811 1.390 1_556 S
C803 C802 1.387 1_455 S
C803 C805 1.387 . S
H804 C811 0.950 . S
C805 C803 1.387 . S
C805 C807 1.390 1_556 S
C805 H809 0.950 . S
H806 C802 0.950 . S
C807 C805 1.390 1_554 S
C807 C808 1.388 . S
C807 H810 0.950 . S
C808 C807 1.388 . S
C808 C811 1.387 1_455 S
H809 C805 0.950 . S
H810 C807 0.950 . S
C811 C802 1.390 1_554 S
C811 H804 0.950 . S
C811 C808 1.387 1_655 S
C812 C813 1.387 . S
C812 H816 0.950 . S
C812 C821 1.390 1_556 S
C813 C812 1.387 . S
C813 C815 1.387 . S
H814 C821 0.950 . S
C815 C813 1.387 . S
C815 C817 1.390 1_556 S
C815 H819 0.950 . S
H816 C812 0.950 . S
C817 C815 1.390 1_554 S
C817 C818 1.387 . S
C817 H820 0.950 . S
C818 C817 1.387 . S
C818 C821 1.387 . S
H819 C815 0.950 . S
H820 C817 0.950 . S
C821 C812 1.390 1_554 S
C821 H814 0.950 . S
C821 C818 1.387 . S
C822 C823 1.387 . S
C822 H826 0.950 . S
C822 C831 1.390 . S
C823 C822 1.387 . S
C823 C825 1.387 . S
H824 C831 0.950 . S
C825 C823 1.387 . S
C825 C827 1.390 . S
C825 H829 0.950 . S
H826 C822 0.950 . S
C827 C825 1.390 . S
C827 C828 1.387 . S
C827 H830 0.950 . S
C828 C827 1.387 . S
C828 C831 1.387 . S
H829 C825 0.950 . S
H830 C827 0.950 . S
C831 C822 1.390 . S
C831 H824 0.950 . S
C831 C828 1.387 . S
C832 C833 1.387 . S
C832 H836 0.950 . S
C832 C841 1.390 . S
C833 C832 1.387 . S
C833 C835 1.387 . S
H834 C841 0.950 . S
C835 C833 1.387 . S
C835 C837 1.390 . S
C835 H839 0.950 . S
H836 C832 0.950 . S
C837 C835 1.390 . S
C837 C838 1.387 . S
C837 H840 0.950 . S
C838 C837 1.387 . S
C838 C841 1.387 . S
H839 C835 0.950 . S
H840 C837 0.950 . S
C841 C832 1.390 . S
C841 H834 0.950 . S
C841 C838 1.387 . S
C842 C843 1.387 . S
C842 H846 0.950 . S
C842 C851 1.390 . S
C843 C842 1.387 . S
C843 C845 1.387 . S
H844 C851 0.950 . S
C845 C843 1.387 . S
C845 C847 1.390 . S
C845 H849 0.950 . S
H846 C842 0.950 . S
C847 C845 1.390 . S
C847 C848 1.387 . S
C847 H850 0.950 . S
C848 C847 1.387 . S
C848 C851 1.387 . S
H849 C845 0.950 . S
H850 C847 0.950 . S
C851 C842 1.390 . S
C851 H844 0.950 . S
C851 C848 1.387 . S
C852 C853 1.387 . S
C852 H856 0.950 . S
C852 C861 1.390 . S
C853 C852 1.387 . S
C853 C855 1.387 . S
H854 C861 0.950 . S
C855 C853 1.387 . S
C855 C857 1.390 . S
C855 H859 0.950 . S
H856 C852 0.950 . S
C857 C855 1.390 . S
C857 C858 1.387 . S
C857 H860 0.950 . S
C858 C857 1.387 . S
C858 C861 1.387 . S
H859 C855 0.950 . S
H860 C857 0.950 . S
C861 C852 1.390 . S
C861 H854 0.950 . S
C861 C858 1.387 . S
C862 C863 1.387 . S
C862 H866 0.950 . S
C862 C871 1.390 . S
C863 C862 1.387 . S
C863 C865 1.387 . S
H864 C871 0.950 . S
C865 C863 1.387 . S
C865 C867 1.390 . S
C865 H869 0.950 . S
H866 C862 0.950 . S
C867 C865 1.390 . S
C867 C868 1.387 . S
C867 H870 0.950 . S
C868 C867 1.387 . S
C868 C871 1.387 . S
H869 C865 0.950 . S
H870 C867 0.950 . S
C871 C862 1.390 . S
C871 H864 0.950 . S
C871 C868 1.387 . S
C872 C873 1.387 . S
C872 H876 0.950 . S
C872 C881 1.390 . S
C873 C872 1.387 . S
C873 C875 1.387 . S
H874 C881 0.950 . S
C875 C873 1.387 . S
C875 C877 1.390 . S
C875 H879 0.950 . S
H876 C872 0.950 . S
C877 C875 1.390 . S
C877 C878 1.387 . S
C877 H880 0.950 . S
C878 C877 1.387 . S
C878 C881 1.387 . S
H879 C875 0.950 . S
H880 C877 0.950 . S
C881 C872 1.390 . S
C881 H874 0.950 . S
C881 C878 1.387 . S
C882 C883 1.387 . S
C882 H886 0.950 1_565 S
C882 C891 1.390 1_565 S
C883 C882 1.387 . S
C883 C885 1.387 . S
H884 C891 0.950 . S
C885 C883 1.387 . S
C885 C887 1.390 . S
C885 H889 0.950 . S
H886 C882 0.950 1_545 S
C887 C885 1.390 . S
C887 C888 1.387 . S
C887 H890 0.950 . S
C888 C887 1.387 . S
C888 C891 1.387 1_565 S
H889 C885 0.950 . S
H890 C887 0.950 . S
C891 C882 1.390 1_545 S
C891 H884 0.950 . S
C891 C888 1.387 1_545 S
C892 C893 1.387 . S
C892 H896 0.950 . S
C892 C901 1.390 . S
C893 C892 1.387 . S
C893 C895 1.387 . S
H894 C901 0.950 . S
C895 C893 1.387 . S
C895 C897 1.390 . S
C895 H899 0.950 . S
H896 C892 0.950 . S
C897 C895 1.390 . S
C897 C898 1.387 . S
C897 H900 0.950 . S
C898 C897 1.387 . S
C898 C901 1.387 . S
H899 C895 0.950 . S
H900 C897 0.950 . S
C901 C892 1.390 . S
C901 H894 0.950 . S
C901 C898 1.387 . S
C902 C903 1.387 . S
C902 H906 0.950 . S
C902 C911 1.390 . S
C903 C902 1.387 . S
C903 C905 1.387 . S
H904 C911 0.950 . S
C905 C903 1.387 . S
C905 C907 1.390 . S
C905 H909 0.950 . S
H906 C902 0.950 . S
C907 C905 1.390 . S
C907 C908 1.387 . S
C907 H910 0.950 . S
C908 C907 1.387 . S
C908 C911 1.387 . S
H909 C905 0.950 . S
H910 C907 0.950 . S
C911 C902 1.390 . S
C911 H904 0.950 . S
C911 C908 1.387 . S
C912 C913 1.387 . S
C912 H916 0.950 . S
C912 C921 1.390 . S
C913 C912 1.387 . S
C913 C915 1.387 1_655 S
H914 C921 0.950 . S
C915 C913 1.387 1_455 S
C915 C917 1.390 1_455 S
C915 H919 0.950 . S
H916 C912 0.950 . S
C917 C915 1.390 1_655 S
C917 C918 1.387 . S
C917 H920 0.950 1_655 S
C918 C917 1.387 . S
C918 C921 1.387 . S
H919 C915 0.950 . S
H920 C917 0.950 1_455 S
C921 C912 1.390 . S
C921 H914 0.950 . S
C921 C918 1.387 . S
C922 C923 1.387 . S
C922 H926 0.950 . S
C922 C931 1.390 . S
C923 C922 1.387 . S
C923 C925 1.387 . S
H924 C931 0.950 . S
C925 C923 1.387 . S
C925 C927 1.390 . S
C925 H929 0.950 . S
H926 C922 0.950 . S
C927 C925 1.390 . S
C927 C928 1.387 . S
C927 H930 0.950 . S
C928 C927 1.387 . S
C928 C931 1.387 . S
H929 C925 0.950 . S
H930 C927 0.950 . S
C931 C922 1.390 . S
C931 H924 0.950 . S
C931 C928 1.387 . S
C932 C933 1.387 . S
C932 H936 0.950 . S
C932 C941 1.390 . S
C933 C932 1.387 . S
C933 C935 1.387 . S
H934 C941 0.950 1_565 S
C935 C933 1.387 . S
C935 C937 1.390 . S
C935 H939 0.950 . S
H936 C932 0.950 . S
C937 C935 1.390 . S
C937 C938 1.387 . S
C937 H940 0.950 . S
C938 C937 1.387 . S
C938 C941 1.387 . S
H939 C935 0.950 . S
H940 C937 0.950 . S
C941 C932 1.390 . S
C941 H934 0.950 1_545 S
C941 C938 1.387 . S
C942 C943 1.387 . S
C942 H946 0.950 . S
C942 C951 1.390 1_655 S
C943 C942 1.387 . S
C943 C945 1.387 . S
H944 C951 0.950 . S
C945 C943 1.387 . S
C945 C947 1.390 1_655 S
C945 H949 0.950 . S
H946 C942 0.950 . S
C947 C945 1.390 1_455 S
C947 C948 1.387 . S
C947 H950 0.950 . S
C948 C947 1.387 . S
C948 C951 1.387 . S
H949 C945 0.950 . S
H950 C947 0.950 . S
C951 C942 1.390 1_455 S
C951 H944 0.950 . S
C951 C948 1.387 . S
C952 C953 1.387 . S
C952 H956 0.950 . S
C952 C961 1.390 . S
C953 C952 1.387 . S
C953 C955 1.387 . S
H954 C961 0.950 . S
C955 C953 1.387 . S
C955 C957 1.390 . S
C955 H959 0.950 . S
H956 C952 0.950 . S
C957 C955 1.390 . S
C957 C958 1.387 . S
C957 H960 0.950 . S
C958 C957 1.387 . S
C958 C961 1.387 . S
H959 C955 0.950 . S
H960 C957 0.950 . S
C961 C952 1.390 . S
C961 H954 0.950 . S
C961 C958 1.387 . S
C962 C963 1.387 . S
C962 H966 0.950 . S
C962 C971 1.390 1_565 S
C963 C962 1.387 . S
C963 C965 1.387 . S
H964 C971 0.950 . S
C965 C963 1.387 . S
C965 C967 1.390 1_565 S
C965 H969 0.950 . S
H966 C962 0.950 . S
C967 C965 1.390 1_545 S
C967 C968 1.387 . S
C967 H970 0.950 . S
C968 C967 1.387 . S
C968 C971 1.387 . S
H969 C965 0.950 . S
H970 C967 0.950 . S
C971 C962 1.390 1_545 S
C971 H964 0.950 . S
C971 C968 1.387 . S
C972 C973 1.387 . S
C972 H976 0.950 . S
C972 C981 1.390 . S
C973 C972 1.387 . S
C973 C975 1.387 . S
H974 C981 0.950 . S
C975 C973 1.387 . S
C975 C977 1.390 . S
C975 H979 0.950 . S
H976 C972 0.950 . S
C977 C975 1.390 . S
C977 C978 1.387 . S
C977 H980 0.950 . S
C978 C977 1.387 . S
C978 C981 1.387 . S
H979 C975 0.950 . S
H980 C977 0.950 . S
C981 C972 1.390 . S
C981 H974 0.950 . S
C981 C978 1.387 . S
C982 C983 1.387 . S
C982 H986 0.950 . S
C982 C991 1.390 . S
C983 C982 1.387 . S
C983 C985 1.387 . S
H984 C991 0.950 . S
C985 C983 1.387 . S
C985 C987 1.390 . S
C985 H989 0.950 . S
H986 C982 0.950 . S
C987 C985 1.390 . S
C987 C988 1.387 . S
C987 H990 0.950 . S
C988 C987 1.387 . S
C988 C991 1.387 . S
H989 C985 0.950 . S
H990 C987 0.950 . S
C991 C982 1.390 . S
C991 H984 0.950 . S
C991 C988 1.387 . S
C992 C993 1.387 . S
C992 H996 0.950 . S
C992 C1001 1.390 . S
C993 C992 1.387 . S
C993 C995 1.387 . S
H994 C1001 0.950 . S
C995 C993 1.387 . S
C995 C997 1.390 . S
C995 H999 0.950 . S
H996 C992 0.950 . S
C997 C995 1.390 . S
C997 C998 1.387 . S
C997 H1000 0.950 . S
C998 C997 1.387 . S
C998 C1001 1.387 . S
H999 C995 0.950 . S
H1000 C997 0.950 . S
C1001 C992 1.390 . S
C1001 H994 0.950 . S
C1001 C998 1.387 . S
C1002 C1003 1.387 . S
C1002 H1006 0.950 . S
C1002 C1011 1.390 . S
C1003 C1002 1.387 . S
C1003 C1005 1.387 . S
H1004 C1011 0.950 . S
C1005 C1003 1.387 . S
C1005 C1007 1.390 . S
C1005 H1009 0.950 . S
H1006 C1002 0.950 . S
C1007 C1005 1.390 . S
C1007 C1008 1.387 . S
C1007 H1010 0.950 . S
C1008 C1007 1.387 . S
C1008 C1011 1.387 . S
H1009 C1005 0.950 . S
H1010 C1007 0.950 . S
C1011 C1002 1.390 . S
C1011 H1004 0.950 . S
C1011 C1008 1.387 . S
C1012 C1013 1.387 . S
C1012 H1016 0.950 . S
C1012 C1021 1.390 . S
C1013 C1012 1.387 . S
C1013 C1015 1.387 . S
H1014 C1021 0.950 . S
C1015 C1013 1.387 . S
C1015 C1017 1.390 . S
C1015 H1019 0.950 . S
H1016 C1012 0.950 . S
C1017 C1015 1.390 . S
C1017 C1018 1.387 . S
C1017 H1020 0.950 . S
C1018 C1017 1.387 . S
C1018 C1021 1.387 . S
H1019 C1015 0.950 . S
H1020 C1017 0.950 . S
C1021 C1012 1.390 . S
C1021 H1014 0.950 . S
C1021 C1018 1.387 . S
C1022 C1023 1.387 . S
C1022 H1026 0.950 . S
C1022 C1031 1.390 . S
C1023 C1022 1.387 . S
C1023 C1025 1.387 . S
H1024 C1031 0.950 . S
C1025 C1023 1.387 . S
C1025 C1027 1.390 . S
C1025 H1029 0.950 . S
H1026 C1022 0.950 . S
C1027 C1025 1.390 . S
C1027 C1028 1.387 . S
C1027 H1030 0.950 . S
C1028 C1027 1.387 . S
C1028 C1031 1.387 . S
H1029 C1025 0.950 . S
H1030 C1027 0.950 . S
C1031 C1022 1.390 . S
C1031 H1024 0.950 . S
C1031 C1028 1.387 . S
C1032 C1033 1.387 . S
C1032 H1036 0.950 . S
C1032 C1041 1.390 . S
C1033 C1032 1.387 . S
C1033 C1035 1.387 . S
H1034 C1041 0.950 . S
C1035 C1033 1.387 . S
C1035 C1037 1.390 . S
C1035 H1039 0.950 . S
H1036 C1032 0.950 . S
C1037 C1035 1.390 . S
C1037 C1038 1.387 . S
C1037 H1040 0.950 . S
C1038 C1037 1.387 . S
C1038 C1041 1.387 . S
H1039 C1035 0.950 . S
H1040 C1037 0.950 . S
C1041 C1032 1.390 . S
C1041 H1034 0.950 . S
C1041 C1038 1.387 . S
C1042 C1043 1.387 . S
C1042 H1046 0.950 . S
C1042 C1051 1.390 . S
C1043 C1042 1.387 . S
C1043 C1045 1.387 . S
H1044 C1051 0.950 . S
C1045 C1043 1.387 . S
C1045 C1047 1.390 . S
C1045 H1049 0.950 . S
H1046 C1042 0.950 . S
C1047 C1045 1.390 . S
C1047 C1048 1.387 . S
C1047 H1050 0.950 . S
C1048 C1047 1.387 . S
C1048 C1051 1.387 . S
H1049 C1045 0.950 . S
H1050 C1047 0.950 . S
C1051 C1042 1.390 . S
C1051 H1044 0.950 . S
C1051 C1048 1.387 . S
C1052 C1053 1.387 . S
C1052 H1056 0.950 . S
C1052 C1061 1.390 . S
C1053 C1052 1.387 . S
C1053 C1055 1.387 . S
H1054 C1061 0.950 . S
C1055 C1053 1.387 . S
C1055 C1057 1.390 . S
C1055 H1059 0.950 . S
H1056 C1052 0.950 . S
C1057 C1055 1.390 . S
C1057 C1058 1.387 . S
C1057 H1060 0.950 . S
C1058 C1057 1.387 . S
C1058 C1061 1.387 . S
H1059 C1055 0.950 . S
H1060 C1057 0.950 . S
C1061 C1052 1.390 . S
C1061 H1054 0.950 . S
C1061 C1058 1.387 . S
C1062 C1063 1.387 . S
C1062 H1066 0.950 . S
C1062 C1071 1.390 . S
C1063 C1062 1.387 . S
C1063 C1065 1.387 . S
H1064 C1071 0.950 . S
C1065 C1063 1.387 . S
C1065 C1067 1.390 . S
C1065 H1069 0.950 . S
H1066 C1062 0.950 . S
C1067 C1065 1.390 . S
C1067 C1068 1.387 . S
C1067 H1070 0.950 . S
C1068 C1067 1.387 . S
C1068 C1071 1.387 . S
H1069 C1065 0.950 . S
H1070 C1067 0.950 . S
C1071 C1062 1.390 . S
C1071 H1064 0.950 . S
C1071 C1068 1.387 . S
C1072 C1073 1.387 . S
C1072 H1076 0.950 . S
C1072 C1081 1.390 . S
C1073 C1072 1.387 . S
C1073 C1075 1.387 . S
H1074 C1081 0.950 . S
C1075 C1073 1.387 . S
C1075 C1077 1.390 . S
C1075 H1079 0.950 . S
H1076 C1072 0.950 . S
C1077 C1075 1.390 . S
C1077 C1078 1.387 . S
C1077 H1080 0.950 . S
C1078 C1077 1.387 . S
C1078 C1081 1.387 . S
H1079 C1075 0.950 . S
H1080 C1077 0.950 . S
C1081 C1072 1.390 . S
C1081 H1074 0.950 . S
C1081 C1078 1.387 . S
C1082 C1083 1.387 . S
C1082 H1086 0.950 . S
C1082 C1091 1.390 . S
C1083 C1082 1.387 . S
C1083 C1085 1.387 . S
H1084 C1091 0.950 . S
C1085 C1083 1.387 . S
C1085 C1087 1.390 . S
C1085 H1089 0.950 . S
H1086 C1082 0.950 . S
C1087 C1085 1.390 . S
C1087 C1088 1.387 . S
C1087 H1090 0.950 . S
C1088 C1087 1.387 . S
C1088 C1091 1.387 . S
H1089 C1085 0.950 . S
H1090 C1087 0.950 . S
C1091 C1082 1.390 . S
C1091 H1084 0.950 . S
C1091 C1088 1.387 . S
C1092 C1093 1.387 . S
C1092 H1096 0.950 . S
C1092 C1101 1.390 . S
C1093 C1092 1.387 . S
C1093 C1095 1.387 . S
H1094 C1101 0.950 . S
C1095 C1093 1.387 . S
C1095 C1097 1.390 . S
C1095 H1099 0.950 . S
H1096 C1092 0.950 . S
C1097 C1095 1.390 . S
C1097 C1098 1.387 . S
C1097 H1100 0.950 . S
C1098 C1097 1.387 . S
C1098 C1101 1.387 . S
H1099 C1095 0.950 . S
H1100 C1097 0.950 . S
C1101 C1092 1.390 . S
C1101 H1094 0.950 . S
C1101 C1098 1.387 . S
C1102 C1103 1.387 . S
C1102 H1106 0.950 . S
C1102 C1111 1.390 . S
C1103 C1102 1.387 . S
C1103 C1105 1.387 . S
H1104 C1111 0.950 . S
C1105 C1103 1.387 . S
C1105 C1107 1.390 . S
C1105 H1109 0.950 . S
H1106 C1102 0.950 . S
C1107 C1105 1.390 . S
C1107 C1108 1.387 . S
C1107 H1110 0.950 . S
C1108 C1107 1.387 . S
C1108 C1111 1.387 . S
H1109 C1105 0.950 . S
H1110 C1107 0.950 . S
C1111 C1102 1.390 . S
C1111 H1104 0.950 . S
C1111 C1108 1.387 . S
C1112 C1113 1.387 . S
C1112 H1116 0.950 . S
C1112 C1121 1.390 . S
C1113 C1112 1.387 . S
C1113 C1115 1.387 . S
H1114 C1121 0.950 . S
C1115 C1113 1.387 . S
C1115 C1117 1.390 . S
C1115 H1119 0.950 . S
H1116 C1112 0.950 . S
C1117 C1115 1.390 . S
C1117 C1118 1.387 . S
C1117 H1120 0.950 . S
C1118 C1117 1.387 . S
C1118 C1121 1.387 . S
H1119 C1115 0.950 . S
H1120 C1117 0.950 . S
C1121 C1112 1.390 . S
C1121 H1114 0.950 . S
C1121 C1118 1.387 . S
C1122 C1123 1.387 . S
C1122 H1126 0.950 . S
C1122 C1131 1.390 . S
C1123 C1122 1.387 . S
C1123 C1125 1.387 . S
H1124 C1131 0.950 . S
C1125 C1123 1.387 . S
C1125 C1127 1.390 . S
C1125 H1129 0.950 . S
H1126 C1122 0.950 . S
C1127 C1125 1.390 . S
C1127 C1128 1.387 . S
C1127 H1130 0.950 . S
C1128 C1127 1.387 . S
C1128 C1131 1.387 . S
H1129 C1125 0.950 . S
H1130 C1127 0.950 . S
C1131 C1122 1.390 . S
C1131 H1124 0.950 . S
C1131 C1128 1.387 . S
C1132 C1133 1.387 . S
C1132 H1136 0.950 . S
C1132 C1141 1.390 . S
C1133 C1132 1.387 . S
C1133 C1135 1.387 . S
H1134 C1141 0.950 . S
C1135 C1133 1.387 . S
C1135 C1137 1.390 . S
C1135 H1139 0.950 . S
H1136 C1132 0.950 . S
C1137 C1135 1.390 . S
C1137 C1138 1.387 . S
C1137 H1140 0.950 . S
C1138 C1137 1.387 . S
C1138 C1141 1.387 . S
H1139 C1135 0.950 . S
H1140 C1137 0.950 . S
C1141 C1132 1.390 . S
C1141 H1134 0.950 . S
C1141 C1138 1.387 . S
C1142 C1143 1.387 . S
C1142 H1146 0.950 . S
C1142 C1151 1.390 . S
C1143 C1142 1.387 . S
C1143 C1145 1.387 . S
H1144 C1151 0.950 . S
C1145 C1143 1.387 . S
C1145 C1147 1.390 . S
C1145 H1149 0.950 . S
H1146 C1142 0.950 . S
C1147 C1145 1.390 . S
C1147 C1148 1.387 . S
C1147 H1150 0.950 . S
C1148 C1147 1.387 . S
C1148 C1151 1.387 . S
H1149 C1145 0.950 . S
H1150 C1147 0.950 . S
C1151 C1142 1.390 . S
C1151 H1144 0.950 . S
C1151 C1148 1.387 . S
C613 C8 1.081 . S
C618 C68 1.061 . S
C623 C0 1.062 . S
C628 C42 1.082 . S
C633 C34 1.062 . S
C638 C76 1.081 . S
C643 C110 1.081 . S
C648 C136 1.061 . S
C653 C170 1.062 . S
C658 C144 1.081 . S
C663 C178 1.080 . S
C668 C102 1.060 . S
C673 C272 1.063 . S
C678 C212 1.082 . S
C683 C204 1.063 1_655 S
C688 C246 1.082 1_545 S
C693 C280 1.081 1_655 S
C698 C238 1.059 . S
C703 C340 1.062 . S
C708 C314 1.081 . S
C713 C348 1.082 . S
C718 C374 1.063 . S
C723 C306 1.059 . S
C728 C382 1.080 . S
C733 C416 1.080 . S
C738 C476 1.059 . S
C743 C408 1.059 . S
C748 C450 1.080 . S
C753 C442 1.063 . S
C758 C484 1.082 . S
C763 C544 1.063 . S
C768 C518 1.082 . S
C773 C578 1.060 . S
C778 C552 1.081 1_565 S
C783 C510 1.059 1_565 S
C788 C586 1.081 1_455 S
C793 C13 1.582 . S
C798 C183 1.581 1_565 S
C803 C115 1.581 . S
C808 C47 1.580 . S
C813 C149 1.581 . S
C818 C81 1.581 . S
C823 C217 1.581 . S
C828 C387 1.581 . S
C833 C251 1.582 . S
C838 C319 1.582 . S
C843 C353 1.582 . S
C848 C285 1.582 . S
C853 C421 1.582 . S
C858 C591 1.582 . S
C863 C523 1.582 . S
C868 C455 1.582 . S
C873 C557 1.581 . S
C878 C489 1.581 . S
C883 C344 1.831 . S
C888 C4 1.831 . S
C893 C38 1.830 . S
C898 C378 1.830 . S
C903 C310 1.830 . S
C908 C72 1.830 . S
C913 C106 1.829 . S
C918 C480 1.829 . S
C923 C140 1.829 . S
C928 C412 1.829 . S
C933 C446 1.830 . S
C938 C174 1.831 . S
C943 C548 1.831 . S
C948 C208 1.831 . S
C953 C242 1.830 . S
C958 C582 1.830 . S
C963 C276 1.831 . S
C968 C514 1.831 . S
C973 C97 1.305 . S
C978 C17 1.284 . S
C983 C29 1.306 . S
C988 C51 1.285 . S
C993 C85 1.289 . S
C998 C63 1.307 . S
C1003 C165 1.305 . S
C1008 C119 1.284 . S
C1013 C199 1.307 . S
C1018 C153 1.289 . S
C1023 C187 1.288 . S
C1028 C131 1.305 . S
C1033 C301 1.306 . S
C1038 C221 1.288 . S
C1043 C255 1.288 . S
C1048 C233 1.305 . S
C1053 C267 1.306 . S
C1058 C289 1.288 . S
C1063 C323 1.289 . S
C1068 C369 1.307 1_655 S
C1073 C357 1.289 . S
C1078 C403 1.306 . S
C1083 C335 1.305 1_545 S
C1088 C391 1.285 1_655 S
C1093 C425 1.286 . S
C1098 C505 1.306 1_565 S
C1103 C459 1.288 1_565 S
C1108 C437 1.305 1_455 S
C1113 C471 1.306 . S
C1118 C493 1.286 . S
C1123 C527 1.288 . S
C1128 C573 1.306 . S
C1133 C561 1.286 . S
C1138 C607 1.306 . S
C1143 C539 1.305 . S
C1148 C595 1.285 . S
