# Generated by pormake.
# Topology nbo, (4)-cn, num edge types: 1
# Building blocks:
#     Node 0, Type 0, BuildingBlock: NAWXER_clean_sbu_0, # of connection points: 4
#     Node 1, Type 0, BuildingBlock: NAWXER_clean_sbu_0, # of connection points: 4
#     Node 2, Type 0, BuildingBlock: NAWXER_clean_sbu_0, # of connection points: 4
#     Node 3, Type 0, BuildingBlock: NAWXER_clean_sbu_0, # of connection points: 4
#     Node 4, Type 0, BuildingBlock: NAWXER_clean_sbu_0, # of connection points: 4
#     Node 5, Type 0, BuildingBlock: NAWXER_clean_sbu_0, # of connection points: 4
#     Edge 6, Type (0, 0), BuildingBlock: TEMPAE_clean_linker_10, # of connection points: 2
#     Edge 7, Type (0, 0), BuildingBlock: TEMPAE_clean_linker_10, # of connection points: 2
#     Edge 8, Type (0, 0), BuildingBlock: TEMPAE_clean_linker_10, # of connection points: 2
#     Edge 9, Type (0, 0), BuildingBlock: TEMPAE_clean_linker_10, # of connection points: 2
#     Edge 10, Type (0, 0), BuildingBlock: TEMPAE_clean_linker_10, # of connection points: 2
#     Edge 11, Type (0, 0), BuildingBlock: TEMPAE_clean_linker_10, # of connection points: 2
#     Edge 12, Type (0, 0), BuildingBlock: TEMPAE_clean_linker_10, # of connection points: 2
#     Edge 13, Type (0, 0), BuildingBlock: TEMPAE_clean_linker_10, # of connection points: 2
#     Edge 14, Type (0, 0), BuildingBlock: TEMPAE_clean_linker_10, # of connection points: 2
#     Edge 15, Type (0, 0), BuildingBlock: TEMPAE_clean_linker_10, # of connection points: 2
#     Edge 16, Type (0, 0), BuildingBlock: TEMPAE_clean_linker_10, # of connection points: 2
#     Edge 17, Type (0, 0), BuildingBlock: TEMPAE_clean_linker_10, # of connection points: 2
# Relax obj value: 0.000
# Max RMSD: 0.000
# Mean RMSD: 0.000
data_MOF--net-nbo--node1-NAWXER_clean_sbu_0--edge1-TEMPAE_clean_linker_10
_symmetry_space_group_name_H-M    P1
_symmetry_Int_Tables_number       1
_symmetry_cell_setting            triclinic
loop_
_symmetry_equiv_pos_as_xyz
'x, y, z'
_cell_length_a     29.784741
_cell_length_b     29.815602
_cell_length_c     29.819693
_cell_angle_alpha  97.204339
_cell_angle_beta   97.254512
_cell_angle_gamma 97.262349
loop_
_atom_site_label
_atom_site_type_symbol
_atom_site_fract_x
_atom_site_fract_y
_atom_site_fract_z
_atom_type_partial_charge
C0 C 0.0112 0.02382 0.4643 0.0
C1 C 0.99633 0.85899 0.46532 0.0
O2 O 1.00281 0.99233 0.43018 0.0
Zn3 Zn 0.9984 0.94113 0.46395 0.0
O4 O 0.01305 0.01313 0.50482 0.0
Zn5 Zn 1.00745 0.95172 0.53628 0.0
O6 O 0.0671 0.95819 0.57234 0.0
O7 O 0.06749 0.94741 0.49773 0.0
O8 O 1.00137 0.88164 0.50557 0.0
O9 O 0.9913 0.87993 0.43083 0.0
O10 O 0.93606 0.94468 0.49278 0.0
O11 O 0.95486 0.95453 0.56755 0.0
C12 C 0.08906 0.9534 0.53852 0.0
C13 C 0.92433 0.94994 0.53286 0.0
C14 C 0.56337 0.1725 0.09355 0.0
C15 C 0.5637 1.00592 0.08199 0.0
O16 O 0.59928 0.15327 0.09742 0.0
Zn17 Zn 0.56809 0.08987 0.08801 0.0
O18 O 0.52402 0.14789 0.08546 0.0
Zn19 Zn 0.49318 0.07885 0.07473 0.0
O20 O 0.45954 0.07652 0.12717 0.0
O21 O 0.53456 0.08794 0.14642 0.0
O22 O 0.52433 0.01899 0.07617 0.0
O23 O 0.59954 0.03568 0.08947 0.0
O24 O 0.53946 0.08213 0.01859 0.0
O25 O 0.4641 0.07157 0.01071 0.0
C26 C 0.49446 0.08271 0.15797 0.0
C27 C 0.50082 0.0756 0.99281 0.0
C28 C 0.08664 0.52418 0.95349 0.0
C29 C 0.92248 0.53404 0.94111 0.0
O30 O 0.0625 0.48442 0.94527 0.0
Zn31 Zn 0.99039 0.45743 0.93388 0.0
O32 O 0.06637 0.55917 0.95653 0.0
Zn33 Zn 1.00363 0.52912 0.94619 0.0
O34 O 0.99583 0.49593 1.00604 0.0
O35 O 0.98311 0.4217 0.98272 0.0
O36 O 0.95547 0.56685 0.94821 0.0
O37 O 0.93099 0.49272 0.93521 0.0
O38 O 0.97968 0.42522 0.87236 0.0
O39 O 0.99128 0.49999 0.87487 0.0
C40 C 0.98729 0.45489 0.01486 0.0
C41 C 0.98202 0.4599 0.85155 0.0
C42 C 0.5385 0.66281 0.0547 0.0
C43 C 0.53329 0.49952 0.05981 0.0
O44 O 0.52927 0.63948 0.01462 0.0
Zn45 Zn 0.51695 0.56814 0.98553 0.0
O46 O 0.54083 0.64201 0.08938 0.0
Zn47 Zn 0.53016 0.58049 0.0572 0.0
O48 O 0.58959 0.57917 0.02193 0.0
O49 O 0.56511 0.56613 0.94781 0.0
O50 O 0.53744 0.53169 0.09297 0.0
O51 O 0.52475 0.5083 0.01876 0.0
O52 O 0.45422 0.55777 0.95545 0.0
O53 O 0.45805 0.56908 0.03019 0.0
C54 C 0.59809 0.57326 0.98061 0.0
C55 C 0.43393 0.56083 0.99042 0.0
C56 C 0.01979 0.52196 0.43894 0.0
C57 C 0.02599 0.35674 0.4316 0.0
O58 O 0.0565 0.50404 0.44304 0.0
Zn59 Zn 0.02737 0.44001 0.43565 0.0
O60 O 0.98114 0.49619 0.43234 0.0
Zn61 Zn 0.95244 0.42678 0.42454 0.0
O62 O 0.92096 0.42526 0.47872 0.0
O63 O 0.99615 0.43848 0.49544 0.0
O64 O 0.98592 0.36833 0.42635 0.0
O65 O 0.06094 0.38753 0.43794 0.0
O66 O 0.9966 0.4294 0.36659 0.0
O67 O 0.92132 0.41747 0.36114 0.0
C68 C 0.95678 0.43266 0.50849 0.0
C69 C 0.95726 0.42136 0.34195 0.0
C70 C 0.59521 0.98142 0.56428 0.0
C71 C 0.43064 0.97639 0.5619 0.0
O72 O 0.56459 0.94681 0.55978 0.0
Zn73 Zn 0.51216 0.97829 0.56291 0.0
O74 O 0.58363 0.02157 0.56967 0.0
Zn75 Zn 0.5215 0.05066 0.57357 0.0
O76 O 0.52907 0.08378 0.63481 0.0
O77 O 0.51868 0.00902 0.63303 0.0
O78 O 0.45237 0.01712 0.56783 0.0
O79 O 0.45241 0.94246 0.5567 0.0
O80 O 0.50638 0.00978 0.50156 0.0
O81 O 0.51695 0.08443 0.52235 0.0
C82 C 0.52398 0.04927 0.65573 0.0
C83 C 0.50832 0.05029 0.49087 0.0
C84 C 0.02198 0.10702 0.49519 0.0
C85 C 0.01955 0.07258 0.45792 0.0
C86 C 0.02853 0.15336 0.4898 0.0
C87 C 0.03322 0.16574 0.44614 0.0
C88 C 0.0326 0.13124 0.40871 0.0
C89 C 0.02547 0.08504 0.41496 0.0
C90 C 0.02834 0.18901 0.5305 0.0
C91 C 0.03789 0.14308 0.36172 0.0
C92 C 0.98948 0.2758 0.42402 0.0
C93 C 0.02973 0.30757 0.43196 0.0
C94 C 0.99049 0.22959 0.42749 0.0
C95 C 0.0329 0.21421 0.43877 0.0
C96 C 0.07395 0.24556 0.44526 0.0
C97 C 0.0719 0.29205 0.44194 0.0
C98 C 0.94582 0.19751 0.42054 0.0
C99 C 0.11984 0.23018 0.45681 0.0
H100 H 0.01765 0.09779 0.52856 0.0
H101 H 0.02422 0.0587 0.38609 0.0
H102 H 0.05878 0.21555 0.53446 0.0
H103 H 0.99764 0.20631 0.525 0.0
H104 H 0.02803 0.17406 0.56278 0.0
H105 H 0.04202 0.11285 0.33756 0.0
H106 H 1.00726 0.1573 0.34776 0.0
H107 H 0.06792 0.16973 0.36357 0.0
H108 H 0.95661 0.28714 0.41597 0.0
H109 H 0.10314 0.31626 0.44799 0.0
H110 H 0.94108 0.1833 0.45256 0.0
H111 H 0.94636 0.16833 0.3937 0.0
H112 H 0.91586 0.21468 0.41053 0.0
H113 H 0.12238 0.21907 0.49107 0.0
H114 H 0.14868 0.25776 0.4569 0.0
H115 H 0.12345 0.20035 0.43195 0.0
C116 C 0.84268 0.95052 0.50014 0.0
C117 C 0.87575 0.95198 0.53846 0.0
C118 C 0.79692 0.95419 0.50489 0.0
C119 C 0.78375 0.95928 0.54903 0.0
C120 C 0.81676 0.96008 0.58783 0.0
C121 C 0.86235 0.95651 0.5821 0.0
C122 C 0.76279 0.9533 0.46267 0.0
C123 C 0.80401 0.96527 0.63544 0.0
C124 C 0.67685 0.01395 0.56338 0.0
C125 C 0.64373 0.97568 0.56204 0.0
C126 C 0.72257 0.00909 0.55963 0.0
C127 C 0.73565 0.9649 0.55458 0.0
C128 C 0.70258 0.92617 0.55385 0.0
C129 C 0.65702 0.932 0.5575 0.0
C130 C 0.75677 0.05125 0.56043 0.0
C131 C 0.71523 0.87851 0.5487 0.0
H132 H 0.85262 0.94707 0.46628 0.0
H133 H 0.88758 0.95759 0.61192 0.0
H134 H 0.73386 0.92551 0.46107 0.0
H135 H 0.7484 0.98593 0.46419 0.0
H136 H 0.77828 0.94815 0.43076 0.0
H137 H 0.83337 0.96384 0.66194 0.0
H138 H 0.79124 0.99839 0.64292 0.0
H139 H 0.77591 0.9379 0.63799 0.0
H140 H 0.66699 0.04784 0.56683 0.0
H141 H 0.63174 0.90223 0.5565 0.0
H142 H 0.77122 0.0496 0.52784 0.0
H143 H 0.78565 0.0529 0.58828 0.0
H144 H 0.74132 0.0832 0.56545 0.0
H145 H 0.72807 0.87099 0.51562 0.0
H146 H 0.68581 0.85206 0.55008 0.0
H147 H 0.74325 0.87592 0.57612 0.0
C148 C 0.06047 0.60294 0.44719 0.0
C149 C 0.01986 0.57206 0.44149 0.0
C150 C 0.05931 0.65032 0.4497 0.0
C151 C 0.01661 0.66696 0.44657 0.0
C152 C 0.97568 0.63587 0.4405 0.0
C153 C 0.97781 0.58905 0.43801 0.0
C154 C 0.10366 0.6826 0.4561 0.0
C155 C 0.92943 0.65207 0.43727 0.0
C156 C 1.00615 0.78734 0.49861 0.0
C157 C 1.00059 0.8096 0.45991 0.0
C158 C 0.01288 0.74138 0.49484 0.0
C159 C 0.01411 0.71688 0.4513 0.0
C160 C 1.0089 0.73914 0.41208 0.0
C161 C 1.0021 0.78523 0.41683 0.0
C162 C 0.01783 0.71881 0.53747 0.0
C163 C 1.00989 0.71409 0.36505 0.0
H164 H 0.09305 0.59017 0.44978 0.0
H165 H 0.94608 0.56568 0.43357 0.0
H166 H 0.10356 0.70417 0.42836 0.0
H167 H 0.10722 0.70591 0.48881 0.0
H168 H 0.13389 0.66425 0.45633 0.0
H169 H 0.90076 0.62333 0.43153 0.0
H170 H 0.92692 0.67449 0.46922 0.0
H171 H 0.92517 0.67261 0.40888 0.0
H172 H 1.00531 0.80586 0.53211 0.0
H173 H 0.9983 0.80223 0.38679 0.0
H174 H 0.04967 0.70303 0.54021 0.0
H175 H 0.98881 0.69102 0.53553 0.0
H176 H 0.01864 0.74326 0.569 0.0
H177 H 0.04155 0.69813 0.36458 0.0
H178 H 1.00821 0.73696 0.33839 0.0
H179 H 0.98053 0.68615 0.35612 0.0
C180 C 0.35541 0.92628 0.55772 0.0
C181 C 0.38064 0.97 0.56202 0.0
C182 C 0.30781 0.9207 0.55734 0.0
C183 C 0.28519 0.95973 0.56114 0.0
C184 C 0.31063 1.00388 0.56644 0.0
C185 C 0.35797 0.00846 0.56687 0.0
C186 C 0.28159 0.87311 0.55177 0.0
C187 C 0.28768 0.04634 0.57024 0.0
C188 C 0.16235 0.952 0.50693 0.0
C189 C 0.13913 0.95382 0.54511 0.0
C190 C 0.20971 0.95253 0.5117 0.0
C191 C 0.23459 0.95478 0.55574 0.0
C192 C 0.21142 0.95572 0.59442 0.0
C193 C 0.16383 0.95538 0.58867 0.0
C194 C 0.23326 0.95195 0.46964 0.0
C195 C 0.23704 0.95796 0.64186 0.0
H196 H 0.37275 0.89645 0.55429 0.0
H197 H 0.37715 0.04243 0.57044 0.0
H198 H 0.25969 0.87027 0.57903 0.0
H199 H 0.25864 0.86599 0.51859 0.0
H200 H 0.30458 0.84656 0.55288 0.0
H201 H 0.31272 0.0782 0.57676 0.0
H202 H 0.26448 0.04663 0.53812 0.0
H203 H 0.26647 0.04646 0.59826 0.0
H204 H 0.14358 0.9507 0.47309 0.0
H205 H 0.14604 0.95645 0.61825 0.0
H206 H 0.25404 0.92361 0.4674 0.0
H207 H 0.25695 0.98428 0.47193 0.0
H208 H 0.20862 0.94795 0.43766 0.0
H209 H 0.25839 0.93009 0.64286 0.0
H210 H 0.21367 0.95524 0.66795 0.0
H211 H 0.26049 0.99075 0.6512 0.0
C212 C 0.49506 0.09983 0.42961 0.0
C213 C 0.49992 0.05667 0.4421 0.0
C214 C 0.4881 0.10607 0.38341 0.0
C215 C 0.48652 0.06839 0.34893 0.0
C216 C 0.49007 0.02453 0.36134 0.0
C217 C 0.49651 0.01919 0.40768 0.0
C218 C 0.48409 0.15329 0.37153 0.0
C219 C 0.48917 0.98354 0.32571 0.0
C220 C 0.44835 0.07328 0.22267 0.0
C221 C 0.49066 0.08222 0.20711 0.0
C222 C 0.44613 0.07007 0.26915 0.0
C223 C 0.48714 0.07557 0.30044 0.0
C224 C 0.52971 0.08569 0.28499 0.0
C225 C 0.5309 0.08909 0.2388 0.0
C226 C 0.40009 0.05975 0.28459 0.0
C227 C 0.57433 0.09153 0.317 0.0
H228 H 0.49709 0.12889 0.45593 0.0
H229 H 0.49999 0.98564 0.41692 0.0
H230 H 0.515 0.16644 0.35731 0.0
H231 H 0.45419 0.15211 0.3449 0.0
H232 H 0.48051 0.17775 0.40175 0.0
H233 H 0.48852 0.95122 0.34069 0.0
H234 H 0.45882 0.98032 0.2992 0.0
H235 H 0.51996 0.98809 0.30839 0.0
H236 H 0.41712 0.06806 0.19852 0.0
H237 H 0.56388 0.09627 0.22743 0.0
H238 H 0.39705 0.08497 0.31435 0.0
H239 H 0.39668 0.02555 0.29584 0.0
H240 H 0.37141 0.0602 0.25703 0.0
H241 H 0.5745 0.1186 0.34617 0.0
H242 H 0.60448 0.10065 0.29978 0.0
H243 H 0.57812 0.05933 0.33123 0.0
C244 C 0.98526 0.48356 0.0971 0.0
C245 C 0.97956 0.44675 0.06161 0.0
C246 C 0.97701 0.47681 0.14126 0.0
C247 C 0.96253 0.43215 0.1503 0.0
C248 C 0.95591 0.39492 0.1145 0.0
C249 C 0.96464 0.40262 0.07063 0.0
C250 C 0.98488 0.51741 0.17855 0.0
C251 C 0.94046 0.34682 0.12277 0.0
C252 C 0.99579 0.41369 0.27267 0.0
C253 C 0.95558 0.41863 0.29171 0.0
C254 C 0.99786 0.41643 0.22646 0.0
C255 C 0.95866 0.42418 0.19813 0.0
C256 C 0.91724 0.42712 0.21645 0.0
C257 C 0.91614 0.42427 0.26317 0.0
C258 C 0.04271 0.41297 0.20846 0.0
C259 C 0.87466 0.43504 0.18714 0.0
H260 H 0.99649 0.51782 0.0905 0.0
H261 H 0.95968 0.374 0.04338 0.0
H262 H 0.95391 0.5192 0.19544 0.0
H263 H 0.01326 0.51352 0.20505 0.0
H264 H 0.9936 0.5502 0.1654 0.0
H265 H 0.93356 0.32215 0.09069 0.0
H266 H 0.96718 0.33567 0.14656 0.0
H267 H 0.90898 0.34562 0.13917 0.0
H268 H 0.02636 0.40873 0.29426 0.0
H269 H 0.88499 0.42812 0.2776 0.0
H270 H 0.05567 0.44599 0.19786 0.0
H271 H 0.03771 0.38657 0.17787 0.0
H272 H 0.06926 0.40431 0.23432 0.0
H273 H 0.87993 0.46969 0.17706 0.0
H274 H 0.84423 0.43212 0.20521 0.0
H275 H 0.86757 0.41015 0.15527 0.0
C276 C 0.51372 0.01591 0.72725 0.0
C277 C 0.5199 0.05468 0.70515 0.0
C278 C 0.50707 0.01969 0.77323 0.0
C279 C 0.50656 0.06332 0.79792 0.0
C280 C 0.51244 0.10261 0.77584 0.0
C281 C 0.51911 0.09784 0.72972 0.0
C282 C 0.50138 0.97698 0.79559 0.0
C283 C 0.51226 0.14973 0.80111 0.0
C284 C 0.46022 0.06798 0.91188 0.0
C285 C 0.50079 0.07298 0.94272 0.0
C286 C 0.46141 0.06552 0.86451 0.0
C287 C 0.50408 0.06797 0.84784 0.0
C288 C 0.54498 0.0733 0.87888 0.0
C289 C 0.54282 0.07577 0.9257 0.0
C290 C 0.41711 0.05991 0.83229 0.0
C291 C 0.59119 0.07579 0.86264 0.0
H292 H 0.51399 0.98235 0.70858 0.0
H293 H 0.5234 0.12794 0.71286 0.0
H294 H 0.53032 0.97838 0.82333 0.0
H295 H 0.46954 0.97471 0.81139 0.0
H296 H 0.50008 0.94543 0.77102 0.0
H297 H 0.51446 0.17649 0.77839 0.0
H298 H 0.48066 0.15071 0.8171 0.0
H299 H 0.54165 0.1581 0.82904 0.0
H300 H 0.42766 0.06592 0.92468 0.0
H301 H 0.57451 0.07964 0.94902 0.0
H302 H 0.41305 0.02725 0.80881 0.0
H303 H 0.4177 0.08781 0.81091 0.0
H304 H 0.38691 0.06009 0.85067 0.0
H305 H 0.59316 0.04375 0.84009 0.0
H306 H 0.61985 0.08099 0.89135 0.0
H307 H 0.59597 0.10423 0.84223 0.0
C308 C 0.91364 0.43322 0.57642 0.0
C309 C 0.95491 0.43433 0.55825 0.0
C310 C 0.91329 0.43603 0.62397 0.0
C311 C 0.95512 0.43988 0.65377 0.0
C312 C 0.99664 0.44035 0.63544 0.0
C313 C 0.99601 0.43761 0.58818 0.0
C314 C 0.86836 0.43544 0.64239 0.0
C315 C 0.04204 0.44428 0.66581 0.0
C316 C 0.9719 0.49298 0.77833 0.0
C317 C 0.97271 0.45443 0.80088 0.0
C318 C 0.96377 0.48859 0.73045 0.0
C319 C 0.95644 0.44458 0.70431 0.0
C320 C 0.95585 0.40546 0.72684 0.0
C321 C 0.96396 0.41084 0.77483 0.0
C322 C 0.96477 0.53119 0.70782 0.0
C323 C 0.94839 0.35795 0.70023 0.0
H324 H 0.88177 0.43065 0.55362 0.0
H325 H 0.02819 0.43821 0.57473 0.0
H326 H 0.86376 0.40741 0.66334 0.0
H327 H 0.8684 0.46793 0.66508 0.0
H328 H 0.83874 0.43089 0.61475 0.0
H329 H 0.07118 0.44319 0.64602 0.0
H330 H 0.04811 0.47685 0.68965 0.0
H331 H 0.0416 0.41609 0.68682 0.0
H332 H 0.97813 0.52681 0.79808 0.0
H333 H 0.96414 0.38082 0.79189 0.0
H334 H 0.93397 0.52858 0.68196 0.0
H335 H 0.99506 0.5349 0.68968 0.0
H336 H 0.96645 0.56252 0.7328 0.0
H337 H 0.91754 0.35334 0.67411 0.0
H338 H 0.94438 0.33105 0.72264 0.0
H339 H 0.97798 0.35303 0.68191 0.0
C340 C 0.16032 0.4907 0.9591 0.0
C341 C 0.13762 0.52923 0.95937 0.0
C342 C 0.20842 0.49505 0.96458 0.0
C343 C 0.23469 0.53899 0.97028 0.0
C344 C 0.212 0.57801 0.9706 0.0
C345 C 0.16389 0.57269 0.96526 0.0
C346 C 0.23115 0.45255 0.96423 0.0
C347 C 0.23857 0.62547 0.97637 0.0
C348 C 0.3602 0.55529 0.02385 0.0
C349 C 0.38295 0.55499 0.98534 0.0
C350 C 0.31211 0.54985 0.01946 0.0
C351 C 0.28587 0.54417 0.97551 0.0
C352 C 0.30861 0.54382 0.93652 0.0
C353 C 0.35672 0.54911 0.94187 0.0
C354 C 0.28933 0.55023 0.06193 0.0
C355 C 0.28208 0.53806 0.88905 0.0
H356 H 0.1405 0.45696 0.95469 0.0
H357 H 0.14685 0.60274 0.96549 0.0
H358 H 0.25202 0.45003 0.93597 0.0
H359 H 0.25471 0.45448 0.99658 0.0
H360 H 0.20599 0.42093 0.96004 0.0
H361 H 0.21591 0.65233 0.97599 0.0
H362 H 0.26221 0.63218 0.00911 0.0
H363 H 0.25981 0.62828 0.94856 0.0
H364 H 0.38 0.55969 0.05759 0.0
H365 H 0.37379 0.54885 0.91185 0.0
H366 H 0.26573 0.5179 0.05998 0.0
H367 H 0.2685 0.57853 0.06443 0.0
H368 H 0.31447 0.5544 0.09355 0.0
H369 H 0.25841 0.50534 0.88233 0.0
H370 H 0.30478 0.53841 0.86221 0.0
H371 H 0.26089 0.5659 0.88621 0.0
C372 C 0.55618 0.44387 0.11211 0.0
C373 C 0.54104 0.45279 0.068 0.0
C374 C 0.56493 0.40002 0.11987 0.0
C375 C 0.55813 0.36413 0.08271 0.0
C376 C 0.54343 0.37306 0.03807 0.0
C377 C 0.53516 0.41721 0.03126 0.0
C378 C 0.58064 0.39188 0.16794 0.0
C379 C 0.53534 0.33567 0.99754 0.0
C380 C 0.6045 0.25125 0.09048 0.0
C381 C 0.56511 0.22275 0.09634 0.0
C382 C 0.60341 0.29797 0.08762 0.0
C383 C 0.56204 0.31633 0.09076 0.0
C384 C 0.52291 0.28806 0.09876 0.0
C385 C 0.52498 0.24184 0.10152 0.0
C386 C 0.64592 0.32722 0.07943 0.0
C387 C 0.47812 0.30611 0.10246 0.0
H388 H 0.56128 0.4712 0.14068 0.0
H389 H 0.52376 0.42373 0.99702 0.0
H390 H 0.554 0.36815 0.1793 0.0
H391 H 0.6121 0.37546 0.16901 0.0
H392 H 0.58767 0.42401 0.19254 0.0
H393 H 0.52645 0.34873 0.96475 0.0
H394 H 0.56628 0.31876 0.99563 0.0
H395 H 0.50702 0.30921 1.00165 0.0
H396 H 0.6356 0.23677 0.08646 0.0
H397 H 0.49445 0.22029 0.10666 0.0
H398 H 0.65311 0.35915 0.10422 0.0
H399 H 0.64049 0.33719 0.04475 0.0
H400 H 0.67634 0.30914 0.08226 0.0
H401 H 0.48327 0.33677 0.1288 0.0
H402 H 0.45164 0.2803 0.11133 0.0
H403 H 0.46497 0.31663 0.06946 0.0
C404 C 0.86359 0.58731 0.94583 0.0
C405 C 0.87454 0.5427 0.94164 0.0
C406 C 0.81852 0.59548 0.94901 0.0
C407 C 0.78375 0.5582 0.94838 0.0
C408 C 0.79443 0.51309 0.94307 0.0
C409 C 0.83956 0.5059 0.93958 0.0
C410 C 0.80833 0.64402 0.95422 0.0
C411 C 0.75848 0.47239 0.94263 0.0
C412 C 0.68101 0.57468 0.0087 0.0
C413 C 0.64603 0.57277 0.97194 0.0
C414 C 0.72614 0.57125 1.00148 0.0
C415 C 0.73683 0.56614 0.95638 0.0
C416 C 0.70207 0.56566 0.91914 0.0
C417 C 0.65699 0.56876 0.92734 0.0
C418 C 0.76208 0.57153 0.04213 0.0
C419 C 0.71227 0.56066 0.8706 0.0
H420 H 0.89032 0.61592 0.94724 0.0
H421 H 0.84756 0.47128 0.93633 0.0
H422 H 0.7791 0.6474 0.92846 0.0
H423 H 0.79828 0.65316 0.98841 0.0
H424 H 0.83822 0.66888 0.95044 0.0
H425 H 0.77189 0.43943 0.9361 0.0
H426 H 0.74551 0.47432 0.976 0.0
H427 H 0.72895 0.47265 0.91601 0.0
H428 H 0.67299 0.57778 0.04331 0.0
H429 H 0.63027 0.56747 0.89875 0.0
H430 H 0.79161 0.59818 0.04198 0.0
H431 H 0.77504 0.53814 0.04005 0.0
H432 H 0.74866 0.5779 0.07511 0.0
H433 H 0.7415 0.58648 0.86733 0.0
H434 H 0.68238 0.56454 0.8458 0.0
H435 H 0.72232 0.5265 0.86131 0.0
C436 C 0.5563 0.73956 0.10373 0.0
C437 C 0.54779 0.71348 0.06015 0.0
C438 C 0.56437 0.78755 0.10909 0.0
C439 C 0.56402 0.81006 0.06997 0.0
C440 C 0.55694 0.7839 0.02599 0.0
C441 C 0.54883 0.73602 0.02161 0.0
C442 C 0.57154 0.81418 0.15657 0.0
C443 C 0.55621 0.80652 0.98339 0.0
C444 C 0.52441 0.92618 0.07665 0.0
C445 C 0.56554 0.95614 0.08022 0.0
C446 C 0.52377 0.87892 0.07389 0.0
C447 C 0.56532 0.86061 0.07462 0.0
C448 C 0.60717 0.89044 0.07872 0.0
C449 C 0.60683 0.93799 0.08156 0.0
C450 C 0.47835 0.84851 0.06967 0.0
C451 C 0.65213 0.87203 0.07959 0.0
H452 H 0.55593 0.72251 0.13374 0.0
H453 H 0.5428 0.71625 0.9878 0.0
H454 H 0.6024 0.84032 0.16134 0.0
H455 H 0.5419 0.83249 0.16127 0.0
H456 H 0.57537 0.79179 0.1835 0.0
H457 H 0.55473 0.78153 0.95211 0.0
H458 H 0.52592 0.82463 0.97947 0.0
H459 H 0.58702 0.83241 0.98616 0.0
H460 H 0.49221 0.93961 0.07587 0.0
H461 H 0.63872 0.96081 0.08435 0.0
H462 H 0.47859 0.82749 0.09785 0.0
H463 H 0.47249 0.82467 0.03711 0.0
H464 H 0.44918 0.86828 0.07055 0.0
H465 H 0.65658 0.85113 0.10767 0.0
H466 H 0.68176 0.89969 0.08423 0.0
H467 H 0.65225 0.8493 0.04717 0.0
loop_
_geom_bond_atom_site_label_1
_geom_bond_atom_site_label_2
_geom_bond_distance
_geom_bond_site_symmetry_2
_ccdc_geom_bond_type
C0 O2 1.247 1_455 S
C0 O4 1.258 . S
C1 O8 1.247 1_655 S
C1 O9 1.258 . S
O2 C0 1.247 1_655 S
O2 Zn3 2.028 1_545 S
Zn3 O2 2.028 1_565 S
Zn3 O7 2.035 1_655 S
Zn3 O9 2.035 . S
Zn3 O10 2.028 . S
O4 C0 1.258 . S
O4 Zn5 2.035 . S
Zn5 O4 2.035 . S
Zn5 O6 2.028 . S
Zn5 O8 2.028 1_545 S
Zn5 O11 2.035 1_455 S
O6 Zn5 2.028 . S
O6 C12 1.247 . S
O7 Zn3 2.035 1_455 S
O7 C12 1.258 1_565 S
O8 C1 1.247 1_455 S
O8 Zn5 2.028 1_565 S
O9 C1 1.258 . S
O9 Zn3 2.035 . S
O10 Zn3 2.028 . S
O10 C13 1.247 . S
O11 Zn5 2.035 1_655 S
O11 C13 1.258 1_545 S
C12 O6 1.247 . S
C12 O7 1.258 1_545 S
C13 O10 1.247 . S
C13 O11 1.258 1_565 S
C14 O16 1.247 . S
C14 O18 1.258 1_554 S
C15 O22 1.247 . S
C15 O23 1.258 1_556 S
O16 C14 1.247 . S
O16 Zn17 2.028 . S
Zn17 O16 2.028 . S
Zn17 O21 2.035 . S
Zn17 O23 2.035 1_545 S
Zn17 O24 2.028 1_554 S
O18 C14 1.258 1_556 S
O18 Zn19 2.035 1_545 S
Zn19 O18 2.035 1_565 S
Zn19 O20 2.028 1_556 S
Zn19 O22 2.028 . S
Zn19 O25 2.035 . S
O20 Zn19 2.028 1_554 S
O20 C26 1.247 1_565 S
O21 Zn17 2.035 . S
O21 C26 1.258 . S
O22 C15 1.247 . S
O22 Zn19 2.028 . S
O23 C15 1.258 1_554 S
O23 Zn17 2.035 1_565 S
O24 Zn17 2.028 1_556 S
O24 C27 1.247 1_545 S
O25 Zn19 2.035 . S
O25 C27 1.258 . S
C26 O20 1.247 1_545 S
C26 O21 1.258 . S
C27 O24 1.247 1_565 S
C27 O25 1.258 . S
C28 O30 1.247 1_554 S
C28 O32 1.258 . S
C29 O36 1.247 1_556 S
C29 O37 1.258 . S
O30 C28 1.247 1_556 S
O30 Zn31 2.028 1_455 S
Zn31 O30 2.028 1_655 S
Zn31 O35 2.035 1_556 S
Zn31 O37 2.035 . S
Zn31 O38 2.028 . S
O32 C28 1.258 . S
O32 Zn33 2.035 . S
Zn33 O32 2.035 . S
Zn33 O34 2.028 . S
Zn33 O36 2.028 1_455 S
Zn33 O39 2.035 1_554 S
O34 Zn33 2.028 . S
O34 C40 1.247 . S
O35 Zn31 2.035 1_554 S
O35 C40 1.258 1_655 S
O36 C29 1.247 1_554 S
O36 Zn33 2.028 1_655 S
O37 C29 1.258 . S
O37 Zn31 2.035 . S
O38 Zn31 2.028 . S
O38 C41 1.247 . S
O39 Zn33 2.035 1_556 S
O39 C41 1.258 1_455 S
C40 O34 1.247 . S
C40 O35 1.258 1_455 S
C41 O38 1.247 . S
C41 O39 1.258 1_655 S
C42 O44 1.246 . S
C42 O46 1.259 1_556 S
C43 O50 1.251 . S
C43 O51 1.254 1_554 S
O44 C42 1.246 . S
O44 Zn45 2.028 . S
Zn45 O44 2.028 . S
Zn45 O49 2.035 . S
Zn45 O51 2.035 . S
Zn45 O52 2.028 . S
O46 C42 1.259 1_554 S
O46 Zn47 2.035 . S
Zn47 O46 2.035 . S
Zn47 O48 2.028 . S
Zn47 O50 2.028 . S
Zn47 O53 2.035 . S
O48 Zn47 2.028 . S
O48 C54 1.251 . S
O49 Zn45 2.035 . S
O49 C54 1.254 1_556 S
O50 C43 1.251 . S
O50 Zn47 2.028 . S
O51 C43 1.254 1_556 S
O51 Zn45 2.035 . S
O52 Zn45 2.028 . S
O52 C55 1.246 . S
O53 Zn47 2.035 . S
O53 C55 1.259 1_554 S
C54 O48 1.251 . S
C54 O49 1.254 1_554 S
C55 O52 1.246 . S
C55 O53 1.259 1_556 S
C56 O58 1.251 . S
C56 O60 1.254 1_455 S
C57 O64 1.246 . S
C57 O65 1.259 1_655 S
O58 C56 1.251 . S
O58 Zn59 2.028 . S
Zn59 O58 2.028 . S
Zn59 O63 2.035 . S
Zn59 O65 2.035 . S
Zn59 O66 2.028 . S
O60 C56 1.254 1_655 S
O60 Zn61 2.035 . S
Zn61 O60 2.035 . S
Zn61 O62 2.028 . S
Zn61 O64 2.028 . S
Zn61 O67 2.035 . S
O62 Zn61 2.028 . S
O62 C68 1.246 . S
O63 Zn59 2.035 . S
O63 C68 1.259 1_455 S
O64 C57 1.246 . S
O64 Zn61 2.028 . S
O65 C57 1.259 1_455 S
O65 Zn59 2.035 . S
O66 Zn59 2.028 . S
O66 C69 1.251 . S
O67 Zn61 2.035 . S
O67 C69 1.254 1_655 S
C68 O62 1.246 . S
C68 O63 1.259 1_655 S
C69 O66 1.251 . S
C69 O67 1.254 1_455 S
C70 O72 1.246 . S
C70 O74 1.259 1_565 S
C71 O78 1.251 . S
C71 O79 1.254 1_545 S
O72 C70 1.246 . S
O72 Zn73 2.028 . S
Zn73 O72 2.028 . S
Zn73 O77 2.035 . S
Zn73 O79 2.035 . S
Zn73 O80 2.028 . S
O74 C70 1.259 1_545 S
O74 Zn75 2.035 . S
Zn75 O74 2.035 . S
Zn75 O76 2.028 . S
Zn75 O78 2.028 . S
Zn75 O81 2.035 . S
O76 Zn75 2.028 . S
O76 C82 1.251 . S
O77 Zn73 2.035 . S
O77 C82 1.254 1_565 S
O78 C71 1.251 . S
O78 Zn75 2.028 . S
O79 C71 1.254 1_565 S
O79 Zn73 2.035 . S
O80 Zn73 2.028 . S
O80 C83 1.246 . S
O81 Zn75 2.035 . S
O81 C83 1.259 1_545 S
C82 O76 1.251 . S
C82 O77 1.254 1_545 S
C83 O80 1.246 . S
C83 O81 1.259 1_565 S
C84 C85 1.391 1_655 S
C84 C86 1.394 . S
C84 H100 0.931 . S
C85 C84 1.391 1_455 S
C85 C89 1.376 . S
C86 C84 1.394 . S
C86 C87 1.369 1_655 S
C86 C90 1.531 . S
C87 C86 1.369 1_455 S
C87 C88 1.410 . S
C87 C95 1.503 . S
C88 C87 1.410 . S
C88 C89 1.392 . S
C88 C91 1.511 . S
C89 C85 1.376 . S
C89 C88 1.392 . S
C89 H101 0.929 . S
C90 C86 1.531 . S
C90 H102 0.960 . S
C90 H103 0.962 . S
C90 H104 0.960 . S
C91 C88 1.511 . S
C91 H105 0.961 . S
C91 H106 0.961 . S
C91 H107 0.961 . S
C92 C93 1.368 1_655 S
C92 C94 1.363 . S
C92 H108 0.931 . S
C93 C92 1.368 1_455 S
C93 C97 1.413 . S
C94 C92 1.363 . S
C94 C95 1.370 1_655 S
C94 C98 1.524 . S
C95 C87 1.503 . S
C95 C94 1.370 1_455 S
C95 C96 1.403 . S
C96 C95 1.403 . S
C96 C97 1.404 . S
C96 C99 1.539 . S
C97 C93 1.413 . S
C97 C96 1.404 . S
C97 H109 0.930 . S
C98 C94 1.524 . S
C98 H110 0.956 . S
C98 H111 0.962 . S
C98 H112 0.961 . S
C99 C96 1.539 . S
C99 H113 0.958 . S
C99 H114 0.961 . S
C99 H115 0.960 . S
H100 C84 0.931 . S
H101 C89 0.929 . S
H102 C90 0.960 . S
H103 C90 0.962 . S
H104 C90 0.960 . S
H105 C91 0.961 . S
H106 C91 0.961 . S
H107 C91 0.961 . S
H108 C92 0.931 . S
H109 C97 0.930 . S
H110 C98 0.956 . S
H111 C98 0.962 . S
H112 C98 0.961 . S
H113 C99 0.958 . S
H114 C99 0.961 . S
H115 C99 0.960 . S
C116 C117 1.407 . S
C116 C118 1.394 . S
C116 H132 0.931 . S
C117 C116 1.407 . S
C117 C121 1.358 1_565 S
C118 C116 1.394 . S
C118 C119 1.369 . S
C118 C122 1.531 . S
C119 C118 1.369 . S
C119 C120 1.410 1_565 S
C119 C127 1.503 . S
C120 C119 1.410 1_545 S
C120 C121 1.392 . S
C120 C123 1.511 . S
C121 C117 1.358 1_545 S
C121 C120 1.392 . S
C121 H133 0.929 . S
C122 C118 1.531 . S
C122 H134 0.960 . S
C122 H135 0.962 . S
C122 H136 0.960 . S
C123 C120 1.511 . S
C123 H137 0.961 . S
C123 H138 0.961 . S
C123 H139 0.961 . S
C124 C125 1.370 . S
C124 C126 1.363 . S
C124 H140 0.931 . S
C125 C124 1.370 . S
C125 C129 1.410 1_545 S
C126 C124 1.363 . S
C126 C127 1.370 1_545 S
C126 C130 1.524 . S
C127 C119 1.503 . S
C127 C126 1.370 1_565 S
C127 C128 1.403 . S
C128 C127 1.403 . S
C128 C129 1.404 . S
C128 C131 1.539 . S
C129 C125 1.410 1_565 S
C129 C128 1.404 . S
C129 H141 0.930 . S
C130 C126 1.524 . S
C130 H142 0.956 1_545 S
C130 H143 0.961 . S
C130 H144 0.961 . S
C131 C128 1.539 . S
C131 H145 0.958 . S
C131 H146 0.961 . S
C131 H147 0.960 . S
H132 C116 0.931 . S
H133 C121 0.929 . S
H134 C122 0.960 . S
H135 C122 0.962 . S
H136 C122 0.960 . S
H137 C123 0.961 . S
H138 C123 0.961 . S
H139 C123 0.961 . S
H140 C124 0.931 . S
H141 C129 0.930 . S
H142 C130 0.956 1_565 S
H143 C130 0.961 . S
H144 C130 0.961 . S
H145 C131 0.958 . S
H146 C131 0.961 . S
H147 C131 0.960 . S
C148 C149 1.391 1_455 S
C148 C150 1.394 . S
C148 H164 0.931 . S
C149 C148 1.391 1_655 S
C149 C153 1.376 . S
C150 C148 1.394 . S
C150 C151 1.369 1_455 S
C150 C154 1.531 . S
C151 C150 1.369 1_655 S
C151 C152 1.410 . S
C151 C159 1.503 . S
C152 C151 1.410 . S
C152 C153 1.392 . S
C152 C155 1.511 . S
C153 C149 1.376 . S
C153 C152 1.392 . S
C153 H165 0.929 . S
C154 C150 1.531 . S
C154 H166 0.960 . S
C154 H167 0.962 . S
C154 H168 0.960 . S
C155 C152 1.511 . S
C155 H169 0.961 . S
C155 H170 0.961 . S
C155 H171 0.961 . S
C156 C157 1.370 1_455 S
C156 C158 1.363 . S
C156 H172 0.931 . S
C157 C156 1.370 1_655 S
C157 C161 1.408 . S
C158 C156 1.363 . S
C158 C159 1.370 1_455 S
C158 C162 1.524 . S
C159 C151 1.503 . S
C159 C158 1.370 1_655 S
C159 C160 1.403 . S
C160 C159 1.403 . S
C160 C161 1.404 . S
C160 C163 1.539 . S
C161 C157 1.408 . S
C161 C160 1.404 . S
C161 H173 0.930 . S
C162 C158 1.524 . S
C162 H174 0.956 . S
C162 H175 0.961 . S
C162 H176 0.961 . S
C163 C160 1.539 . S
C163 H177 0.958 . S
C163 H178 0.961 . S
C163 H179 0.960 . S
H164 C148 0.931 . S
H165 C153 0.929 . S
H166 C154 0.960 . S
H167 C154 0.962 . S
H168 C154 0.960 . S
H169 C155 0.961 . S
H170 C155 0.961 . S
H171 C155 0.961 . S
H172 C156 0.931 . S
H173 C161 0.930 . S
H174 C162 0.956 . S
H175 C162 0.961 . S
H176 C162 0.961 . S
H177 C163 0.958 . S
H178 C163 0.961 . S
H179 C163 0.960 . S
C180 C181 1.391 . S
C180 C182 1.394 . S
C180 H196 0.931 . S
C181 C180 1.391 . S
C181 C185 1.376 1_565 S
C182 C180 1.394 . S
C182 C183 1.369 . S
C182 C186 1.531 . S
C183 C182 1.369 . S
C183 C184 1.410 1_565 S
C183 C191 1.503 . S
C184 C183 1.410 1_545 S
C184 C185 1.392 . S
C184 C187 1.511 . S
C185 C181 1.376 1_545 S
C185 C184 1.392 . S
C185 H197 0.929 . S
C186 C182 1.531 . S
C186 H198 0.960 . S
C186 H199 0.962 . S
C186 H200 0.960 . S
C187 C184 1.511 . S
C187 H201 0.961 . S
C187 H202 0.961 . S
C187 H203 0.961 . S
C188 C189 1.358 1_545 S
C188 C190 1.363 . S
C188 H204 0.931 . S
C189 C188 1.358 1_565 S
C189 C193 1.426 . S
C190 C188 1.363 . S
C190 C191 1.370 1_545 S
C190 C194 1.524 . S
C191 C183 1.503 . S
C191 C190 1.370 1_565 S
C191 C192 1.403 . S
C192 C191 1.403 . S
C192 C193 1.404 . S
C192 C195 1.539 . S
C193 C189 1.426 . S
C193 C192 1.404 . S
C193 H205 0.930 . S
C194 C190 1.524 . S
C194 H206 0.956 . S
C194 H207 0.961 . S
C194 H208 0.961 . S
C195 C192 1.539 . S
C195 H209 0.958 . S
C195 H210 0.961 . S
C195 H211 0.960 . S
H196 C180 0.931 . S
H197 C185 0.929 . S
H198 C186 0.960 . S
H199 C186 0.962 . S
H200 C186 0.960 . S
H201 C187 0.961 . S
H202 C187 0.961 . S
H203 C187 0.961 . S
H204 C188 0.931 . S
H205 C193 0.930 . S
H206 C194 0.956 . S
H207 C194 0.961 . S
H208 C194 0.961 . S
H209 C195 0.958 . S
H210 C195 0.961 . S
H211 C195 0.960 . S
C212 C213 1.391 . S
C212 C214 1.394 . S
C212 H228 0.931 . S
C213 C212 1.391 . S
C213 C217 1.376 1_545 S
C214 C212 1.394 . S
C214 C215 1.369 . S
C214 C218 1.531 . S
C215 C214 1.369 . S
C215 C216 1.410 1_545 S
C215 C223 1.503 . S
C216 C215 1.410 1_565 S
C216 C217 1.392 . S
C216 C219 1.511 . S
C217 C213 1.376 1_565 S
C217 C216 1.392 . S
C217 H229 0.929 . S
C218 C214 1.531 . S
C218 H230 0.960 . S
C218 H231 0.962 . S
C218 H232 0.960 . S
C219 C216 1.511 . S
C219 H233 0.961 . S
C219 H234 0.961 . S
C219 H235 0.961 . S
C220 C221 1.370 1_565 S
C220 C222 1.363 . S
C220 H236 0.931 . S
C221 C220 1.370 1_545 S
C221 C225 1.408 . S
C222 C220 1.363 . S
C222 C223 1.370 1_565 S
C222 C226 1.524 . S
C223 C215 1.503 . S
C223 C222 1.370 1_545 S
C223 C224 1.403 . S
C224 C223 1.403 . S
C224 C225 1.404 . S
C224 C227 1.539 . S
C225 C221 1.408 . S
C225 C224 1.404 . S
C225 H237 0.930 . S
C226 C222 1.524 . S
C226 H238 0.956 . S
C226 H239 0.961 . S
C226 H240 0.961 . S
C227 C224 1.539 . S
C227 H241 0.958 . S
C227 H242 0.961 . S
C227 H243 0.960 . S
H228 C212 0.931 . S
H229 C217 0.929 . S
H230 C218 0.960 . S
H231 C218 0.962 . S
H232 C218 0.960 . S
H233 C219 0.961 . S
H234 C219 0.961 . S
H235 C219 0.961 . S
H236 C220 0.931 . S
H237 C225 0.930 . S
H238 C226 0.956 . S
H239 C226 0.961 . S
H240 C226 0.961 . S
H241 C227 0.958 . S
H242 C227 0.961 . S
H243 C227 0.960 . S
C244 C245 1.391 1_455 S
C244 C246 1.394 . S
C244 H260 0.931 . S
C245 C244 1.391 1_655 S
C245 C249 1.376 . S
C246 C244 1.394 . S
C246 C247 1.369 1_455 S
C246 C250 1.531 . S
C247 C246 1.369 1_655 S
C247 C248 1.410 . S
C247 C255 1.503 . S
C248 C247 1.410 . S
C248 C249 1.392 . S
C248 C251 1.511 . S
C249 C245 1.376 . S
C249 C248 1.392 . S
C249 H261 0.929 . S
C250 C246 1.531 . S
C250 H262 0.960 . S
C250 H263 0.962 . S
C250 H264 0.960 . S
C251 C248 1.511 . S
C251 H265 0.961 . S
C251 H266 0.961 . S
C251 H267 0.961 . S
C252 C253 1.370 1_455 S
C252 C254 1.363 . S
C252 H268 0.931 . S
C253 C252 1.370 1_655 S
C253 C257 1.408 . S
C254 C252 1.363 . S
C254 C255 1.370 1_455 S
C254 C258 1.524 . S
C255 C247 1.503 . S
C255 C254 1.370 1_655 S
C255 C256 1.403 . S
C256 C255 1.403 . S
C256 C257 1.404 . S
C256 C259 1.539 . S
C257 C253 1.408 . S
C257 C256 1.404 . S
C257 H269 0.930 . S
C258 C254 1.524 . S
C258 H270 0.956 . S
C258 H271 0.961 . S
C258 H272 0.961 . S
C259 C256 1.539 . S
C259 H273 0.958 . S
C259 H274 0.961 . S
C259 H275 0.960 . S
H260 C244 0.931 . S
H261 C249 0.929 . S
H262 C250 0.960 . S
H263 C250 0.962 . S
H264 C250 0.960 . S
H265 C251 0.961 . S
H266 C251 0.961 . S
H267 C251 0.961 . S
H268 C252 0.931 . S
H269 C257 0.930 . S
H270 C258 0.956 . S
H271 C258 0.961 . S
H272 C258 0.961 . S
H273 C259 0.958 . S
H274 C259 0.961 . S
H275 C259 0.960 . S
C276 C277 1.391 . S
C276 C278 1.394 . S
C276 H292 0.931 . S
C277 C276 1.391 . S
C277 C281 1.376 1_565 S
C278 C276 1.394 . S
C278 C279 1.369 . S
C278 C282 1.531 . S
C279 C278 1.369 . S
C279 C280 1.410 1_565 S
C279 C287 1.503 . S
C280 C279 1.410 1_545 S
C280 C281 1.392 . S
C280 C283 1.511 . S
C281 C277 1.376 1_545 S
C281 C280 1.392 . S
C281 H293 0.929 . S
C282 C278 1.531 . S
C282 H294 0.960 . S
C282 H295 0.962 . S
C282 H296 0.960 . S
C283 C280 1.511 . S
C283 H297 0.961 . S
C283 H298 0.961 . S
C283 H299 0.961 1_545 S
C284 C285 1.370 1_545 S
C284 C286 1.363 . S
C284 H300 0.931 . S
C285 C284 1.370 1_565 S
C285 C289 1.408 . S
C286 C284 1.363 . S
C286 C287 1.370 1_545 S
C286 C290 1.524 . S
C287 C279 1.503 . S
C287 C286 1.370 1_565 S
C287 C288 1.403 . S
C288 C287 1.403 . S
C288 C289 1.404 . S
C288 C291 1.539 . S
C289 C285 1.408 . S
C289 C288 1.404 . S
C289 H301 0.930 . S
C290 C286 1.524 . S
C290 H302 0.956 . S
C290 H303 0.961 . S
C290 H304 0.961 . S
C291 C288 1.539 . S
C291 H305 0.958 . S
C291 H306 0.961 . S
C291 H307 0.960 . S
H292 C276 0.931 . S
H293 C281 0.929 . S
H294 C282 0.960 . S
H295 C282 0.962 . S
H296 C282 0.960 . S
H297 C283 0.961 . S
H298 C283 0.961 . S
H299 C283 0.961 1_565 S
H300 C284 0.931 . S
H301 C289 0.930 . S
H302 C290 0.956 . S
H303 C290 0.961 . S
H304 C290 0.961 . S
H305 C291 0.958 . S
H306 C291 0.961 . S
H307 C291 0.960 . S
C308 C309 1.391 1_655 S
C308 C310 1.394 . S
C308 H324 0.931 . S
C309 C308 1.391 1_455 S
C309 C313 1.376 . S
C310 C308 1.394 . S
C310 C311 1.369 1_655 S
C310 C314 1.531 . S
C311 C310 1.369 1_455 S
C311 C312 1.410 . S
C311 C319 1.503 . S
C312 C311 1.410 . S
C312 C313 1.392 . S
C312 C315 1.511 . S
C313 C309 1.376 . S
C313 C312 1.392 . S
C313 H325 0.929 . S
C314 C310 1.531 . S
C314 H326 0.960 . S
C314 H327 0.962 . S
C314 H328 0.960 . S
C315 C312 1.511 . S
C315 H329 0.961 . S
C315 H330 0.961 . S
C315 H331 0.961 . S
C316 C317 1.362 1_655 S
C316 C318 1.363 . S
C316 H332 0.931 . S
C317 C316 1.362 1_455 S
C317 C321 1.420 . S
C318 C316 1.363 . S
C318 C319 1.370 1_655 S
C318 C322 1.524 . S
C319 C311 1.503 . S
C319 C318 1.370 1_455 S
C319 C320 1.403 . S
C320 C319 1.403 . S
C320 C321 1.404 . S
C320 C323 1.539 . S
C321 C317 1.420 . S
C321 C320 1.404 . S
C321 H333 0.930 . S
C322 C318 1.524 . S
C322 H334 0.956 . S
C322 H335 0.961 . S
C322 H336 0.961 . S
C323 C320 1.539 . S
C323 H337 0.958 . S
C323 H338 0.961 . S
C323 H339 0.960 . S
H324 C308 0.931 . S
H325 C313 0.929 . S
H326 C314 0.960 . S
H327 C314 0.962 . S
H328 C314 0.960 . S
H329 C315 0.961 . S
H330 C315 0.961 . S
H331 C315 0.961 . S
H332 C316 0.931 . S
H333 C321 0.930 . S
H334 C322 0.956 . S
H335 C322 0.961 . S
H336 C322 0.961 . S
H337 C323 0.958 . S
H338 C323 0.961 . S
H339 C323 0.960 . S
C340 C341 1.391 . S
C340 C342 1.394 . S
C340 H356 0.931 . S
C341 C340 1.391 . S
C341 C345 1.376 1_556 S
C342 C340 1.394 . S
C342 C343 1.369 . S
C342 C346 1.531 . S
C343 C342 1.369 . S
C343 C344 1.410 . S
C343 C351 1.503 . S
C344 C343 1.410 . S
C344 C345 1.392 1_556 S
C344 C347 1.511 1_556 S
C345 C341 1.376 1_554 S
C345 C344 1.392 1_554 S
C345 H357 0.929 . S
C346 C342 1.531 . S
C346 H358 0.960 . S
C346 H359 0.962 . S
C346 H360 0.960 . S
C347 C344 1.511 1_554 S
C347 H361 0.961 . S
C347 H362 0.961 . S
C347 H363 0.961 1_554 S
C348 C349 1.370 1_554 S
C348 C350 1.363 . S
C348 H364 0.931 . S
C349 C348 1.370 1_556 S
C349 C353 1.408 . S
C350 C348 1.363 . S
C350 C351 1.370 1_554 S
C350 C354 1.524 . S
C351 C343 1.503 . S
C351 C350 1.370 1_556 S
C351 C352 1.403 . S
C352 C351 1.403 . S
C352 C353 1.404 . S
C352 C355 1.539 . S
C353 C349 1.408 . S
C353 C352 1.404 . S
C353 H365 0.930 . S
C354 C350 1.524 . S
C354 H366 0.956 . S
C354 H367 0.961 . S
C354 H368 0.961 . S
C355 C352 1.539 . S
C355 H369 0.958 . S
C355 H370 0.961 . S
C355 H371 0.960 . S
H356 C340 0.931 . S
H357 C345 0.929 . S
H358 C346 0.960 . S
H359 C346 0.962 . S
H360 C346 0.960 . S
H361 C347 0.961 . S
H362 C347 0.961 . S
H363 C347 0.961 1_556 S
H364 C348 0.931 . S
H365 C353 0.930 . S
H366 C354 0.956 . S
H367 C354 0.961 . S
H368 C354 0.961 . S
H369 C355 0.958 . S
H370 C355 0.961 . S
H371 C355 0.960 . S
C372 C373 1.391 . S
C372 C374 1.394 . S
C372 H388 0.931 . S
C373 C372 1.391 . S
C373 C377 1.376 1_554 S
C374 C372 1.394 . S
C374 C375 1.369 . S
C374 C378 1.531 . S
C375 C374 1.369 . S
C375 C376 1.410 1_554 S
C375 C383 1.503 . S
C376 C375 1.410 1_556 S
C376 C377 1.392 . S
C376 C379 1.511 . S
C377 C373 1.376 1_556 S
C377 C376 1.392 . S
C377 H389 0.929 . S
C378 C374 1.531 . S
C378 H390 0.960 . S
C378 H391 0.962 . S
C378 H392 0.960 . S
C379 C376 1.511 . S
C379 H393 0.961 . S
C379 H394 0.961 . S
C379 H395 0.961 . S
C380 C381 1.370 1_556 S
C380 C382 1.363 . S
C380 H396 0.931 . S
C381 C380 1.370 1_554 S
C381 C385 1.408 . S
C382 C380 1.363 . S
C382 C383 1.370 1_556 S
C382 C386 1.524 . S
C383 C375 1.503 . S
C383 C382 1.370 1_554 S
C383 C384 1.403 . S
C384 C383 1.403 . S
C384 C385 1.404 . S
C384 C387 1.539 . S
C385 C381 1.408 . S
C385 C384 1.404 . S
C385 H397 0.930 . S
C386 C382 1.524 . S
C386 H398 0.956 . S
C386 H399 0.961 . S
C386 H400 0.961 . S
C387 C384 1.539 . S
C387 H401 0.958 . S
C387 H402 0.961 . S
C387 H403 0.960 . S
H388 C372 0.931 . S
H389 C377 0.929 . S
H390 C378 0.960 . S
H391 C378 0.962 . S
H392 C378 0.960 . S
H393 C379 0.961 . S
H394 C379 0.961 . S
H395 C379 0.961 . S
H396 C380 0.931 . S
H397 C385 0.930 . S
H398 C386 0.956 . S
H399 C386 0.961 . S
H400 C386 0.961 . S
H401 C387 0.958 . S
H402 C387 0.961 . S
H403 C387 0.960 . S
C404 C405 1.391 1_554 S
C404 C406 1.394 . S
C404 H420 0.931 . S
C405 C404 1.391 1_556 S
C405 C409 1.376 . S
C406 C404 1.394 . S
C406 C407 1.369 1_554 S
C406 C410 1.531 . S
C407 C406 1.369 1_556 S
C407 C408 1.410 . S
C407 C415 1.503 . S
C408 C407 1.410 . S
C408 C409 1.392 . S
C408 C411 1.511 . S
C409 C405 1.376 . S
C409 C408 1.392 . S
C409 H421 0.929 . S
C410 C406 1.531 . S
C410 H422 0.960 1_554 S
C410 H423 0.962 . S
C410 H424 0.960 . S
C411 C408 1.511 . S
C411 H425 0.961 . S
C411 H426 0.961 . S
C411 H427 0.961 . S
C412 C413 1.370 1_554 S
C412 C414 1.363 . S
C412 H428 0.931 . S
C413 C412 1.370 1_556 S
C413 C417 1.408 . S
C414 C412 1.363 . S
C414 C415 1.370 1_554 S
C414 C418 1.524 . S
C415 C407 1.503 . S
C415 C414 1.370 1_556 S
C415 C416 1.403 . S
C416 C415 1.403 . S
C416 C417 1.404 . S
C416 C419 1.539 . S
C417 C413 1.408 . S
C417 C416 1.404 . S
C417 H429 0.930 . S
C418 C414 1.524 . S
C418 H430 0.956 . S
C418 H431 0.961 . S
C418 H432 0.961 . S
C419 C416 1.539 . S
C419 H433 0.958 . S
C419 H434 0.961 . S
C419 H435 0.960 . S
H420 C404 0.931 . S
H421 C409 0.929 . S
H422 C410 0.960 1_556 S
H423 C410 0.962 . S
H424 C410 0.960 . S
H425 C411 0.961 . S
H426 C411 0.961 . S
H427 C411 0.961 . S
H428 C412 0.931 . S
H429 C417 0.930 . S
H430 C418 0.956 . S
H431 C418 0.961 . S
H432 C418 0.961 . S
H433 C419 0.958 . S
H434 C419 0.961 . S
H435 C419 0.960 . S
C436 C437 1.391 . S
C436 C438 1.394 . S
C436 H452 0.931 . S
C437 C436 1.391 . S
C437 C441 1.376 1_554 S
C438 C436 1.394 . S
C438 C439 1.369 . S
C438 C442 1.531 . S
C439 C438 1.369 . S
C439 C440 1.410 1_554 S
C439 C447 1.503 . S
C440 C439 1.410 1_556 S
C440 C441 1.392 . S
C440 C443 1.511 . S
C441 C437 1.376 1_556 S
C441 C440 1.392 . S
C441 H453 0.929 . S
C442 C438 1.531 . S
C442 H454 0.960 . S
C442 H455 0.962 . S
C442 H456 0.960 . S
C443 C440 1.511 . S
C443 H457 0.961 . S
C443 H458 0.961 . S
C443 H459 0.961 1_556 S
C444 C445 1.370 1_556 S
C444 C446 1.363 . S
C444 H460 0.931 . S
C445 C444 1.370 1_554 S
C445 C449 1.408 . S
C446 C444 1.363 . S
C446 C447 1.370 1_556 S
C446 C450 1.524 . S
C447 C439 1.503 . S
C447 C446 1.370 1_554 S
C447 C448 1.403 . S
C448 C447 1.403 . S
C448 C449 1.404 . S
C448 C451 1.539 . S
C449 C445 1.408 . S
C449 C448 1.404 . S
C449 H461 0.930 . S
C450 C446 1.524 . S
C450 H462 0.956 . S
C450 H463 0.961 . S
C450 H464 0.961 . S
C451 C448 1.539 . S
C451 H465 0.958 . S
C451 H466 0.961 . S
C451 H467 0.960 . S
H452 C436 0.931 . S
H453 C441 0.929 . S
H454 C442 0.960 . S
H455 C442 0.962 . S
H456 C442 0.960 . S
H457 C443 0.961 . S
H458 C443 0.961 . S
H459 C443 0.961 1_554 S
H460 C444 0.931 . S
H461 C449 0.930 . S
H462 C450 0.956 . S
H463 C450 0.961 . S
H464 C450 0.961 . S
H465 C451 0.958 . S
H466 C451 0.961 . S
H467 C451 0.960 . S
C85 C0 1.493 . S
C93 C57 1.494 1_455 S
C117 C13 1.495 . S
C125 C70 1.498 1_545 S
C149 C56 1.498 1_655 S
C157 C1 1.500 . S
C181 C71 1.498 1_565 S
C189 C12 1.492 1_565 S
C213 C83 1.498 1_545 S
C221 C26 1.494 . S
C245 C40 1.499 1_655 S
C253 C69 1.496 1_655 S
C277 C82 1.492 1_565 S
C285 C27 1.498 . S
C309 C68 1.499 1_455 S
C317 C41 1.497 1_455 S
C341 C28 1.499 1_556 S
C349 C55 1.495 . S
C373 C43 1.491 . S
C381 C14 1.493 . S
C405 C29 1.488 . S
C413 C54 1.500 1_556 S
C437 C42 1.492 1_554 S
C445 C15 1.502 1_554 S
