# Generated by pormake.
# Topology atn, (4)-cn, num edge types: 1
# Building blocks:
#     Node 0, Type 0, BuildingBlock: TATPOV_clean_sbu_0, # of connection points: 4
#     Node 1, Type 0, BuildingBlock: TATPOV_clean_sbu_0, # of connection points: 4
#     Node 2, Type 0, BuildingBlock: TATPOV_clean_sbu_0, # of connection points: 4
#     Node 3, Type 0, BuildingBlock: TATPOV_clean_sbu_0, # of connection points: 4
#     Node 4, Type 0, BuildingBlock: TATPOV_clean_sbu_0, # of connection points: 4
#     Node 5, Type 0, BuildingBlock: TATPOV_clean_sbu_0, # of connection points: 4
#     Node 6, Type 0, BuildingBlock: TATPOV_clean_sbu_0, # of connection points: 4
#     Node 7, Type 0, BuildingBlock: TATPOV_clean_sbu_0, # of connection points: 4
#     Node 8, Type 0, BuildingBlock: TATPOV_clean_sbu_0, # of connection points: 4
#     Node 9, Type 0, BuildingBlock: TATPOV_clean_sbu_0, # of connection points: 4
#     Node 10, Type 0, BuildingBlock: TATPOV_clean_sbu_0, # of connection points: 4
#     Node 11, Type 0, BuildingBlock: TATPOV_clean_sbu_0, # of connection points: 4
#     Node 12, Type 0, BuildingBlock: TATPOV_clean_sbu_0, # of connection points: 4
#     Node 13, Type 0, BuildingBlock: TATPOV_clean_sbu_0, # of connection points: 4
#     Node 14, Type 0, BuildingBlock: TATPOV_clean_sbu_0, # of connection points: 4
#     Node 15, Type 0, BuildingBlock: TATPOV_clean_sbu_0, # of connection points: 4
#     Edge 16, Type (0, 0), BuildingBlock: OJICUG_clean_linker_0, # of connection points: 2
#     Edge 17, Type (0, 0), BuildingBlock: OJICUG_clean_linker_0, # of connection points: 2
#     Edge 18, Type (0, 0), BuildingBlock: OJICUG_clean_linker_0, # of connection points: 2
#     Edge 19, Type (0, 0), BuildingBlock: OJICUG_clean_linker_0, # of connection points: 2
#     Edge 20, Type (0, 0), BuildingBlock: OJICUG_clean_linker_0, # of connection points: 2
#     Edge 21, Type (0, 0), BuildingBlock: OJICUG_clean_linker_0, # of connection points: 2
#     Edge 22, Type (0, 0), BuildingBlock: OJICUG_clean_linker_0, # of connection points: 2
#     Edge 23, Type (0, 0), BuildingBlock: OJICUG_clean_linker_0, # of connection points: 2
#     Edge 24, Type (0, 0), BuildingBlock: OJICUG_clean_linker_0, # of connection points: 2
#     Edge 25, Type (0, 0), BuildingBlock: OJICUG_clean_linker_0, # of connection points: 2
#     Edge 26, Type (0, 0), BuildingBlock: OJICUG_clean_linker_0, # of connection points: 2
#     Edge 27, Type (0, 0), BuildingBlock: OJICUG_clean_linker_0, # of connection points: 2
#     Edge 28, Type (0, 0), BuildingBlock: OJICUG_clean_linker_0, # of connection points: 2
#     Edge 29, Type (0, 0), BuildingBlock: OJICUG_clean_linker_0, # of connection points: 2
#     Edge 30, Type (0, 0), BuildingBlock: OJICUG_clean_linker_0, # of connection points: 2
#     Edge 31, Type (0, 0), BuildingBlock: OJICUG_clean_linker_0, # of connection points: 2
#     Edge 32, Type (0, 0), BuildingBlock: OJICUG_clean_linker_0, # of connection points: 2
#     Edge 33, Type (0, 0), BuildingBlock: OJICUG_clean_linker_0, # of connection points: 2
#     Edge 34, Type (0, 0), BuildingBlock: OJICUG_clean_linker_0, # of connection points: 2
#     Edge 35, Type (0, 0), BuildingBlock: OJICUG_clean_linker_0, # of connection points: 2
#     Edge 36, Type (0, 0), BuildingBlock: OJICUG_clean_linker_0, # of connection points: 2
#     Edge 37, Type (0, 0), BuildingBlock: OJICUG_clean_linker_0, # of connection points: 2
#     Edge 38, Type (0, 0), BuildingBlock: OJICUG_clean_linker_0, # of connection points: 2
#     Edge 39, Type (0, 0), BuildingBlock: OJICUG_clean_linker_0, # of connection points: 2
#     Edge 40, Type (0, 0), BuildingBlock: OJICUG_clean_linker_0, # of connection points: 2
#     Edge 41, Type (0, 0), BuildingBlock: OJICUG_clean_linker_0, # of connection points: 2
#     Edge 42, Type (0, 0), BuildingBlock: OJICUG_clean_linker_0, # of connection points: 2
#     Edge 43, Type (0, 0), BuildingBlock: OJICUG_clean_linker_0, # of connection points: 2
#     Edge 44, Type (0, 0), BuildingBlock: OJICUG_clean_linker_0, # of connection points: 2
#     Edge 45, Type (0, 0), BuildingBlock: OJICUG_clean_linker_0, # of connection points: 2
#     Edge 46, Type (0, 0), BuildingBlock: OJICUG_clean_linker_0, # of connection points: 2
#     Edge 47, Type (0, 0), BuildingBlock: OJICUG_clean_linker_0, # of connection points: 2
# Relax obj value: 0.073
# Max RMSD: 0.104
# Mean RMSD: 0.104
data_MOF--net-atn--node1-TATPOV_clean_sbu_0--edge1-OJICUG_clean_linker_0
_symmetry_space_group_name_H-M    P1
_symmetry_Int_Tables_number       1
_symmetry_cell_setting            triclinic
loop_
_symmetry_equiv_pos_as_xyz
'x, y, z'
_cell_length_a     42.780711
_cell_length_b     42.839732
_cell_length_c     20.725578
_cell_angle_alpha  88.986828
_cell_angle_beta   88.97906
_cell_angle_gamma 90.150022
loop_
_atom_site_label
_atom_site_type_symbol
_atom_site_fract_x
_atom_site_fract_y
_atom_site_fract_z
_atom_type_partial_charge
Zn0 Zn 0.17376 0.35267 0.95623 0.0
Zn1 Zn 0.21354 0.40025 0.95439 0.0
O2 O 0.18902 0.40248 0.86913 0.0
O3 O 0.15339 0.36544 0.87381 0.0
O4 O 0.23486 0.44263 0.9562 0.0
O5 O 0.15445 0.3628 0.04196 0.0
O6 O 0.18959 0.40028 0.04189 0.0
C7 C 0.16629 0.3881 0.84376 0.0
C8 C 0.24135 0.33626 0.95119 0.0
O9 O 0.24698 0.36553 0.95204 0.0
O10 O 0.21328 0.3265 0.95251 0.0
C11 C 0.24407 0.45772 0.90594 0.0
O12 O 0.24326 0.44403 0.84976 0.0
C13 C 0.16741 0.38517 0.07022 0.0
Zn14 Zn 0.69663 0.17322 -0.04029 0.0
Zn15 Zn 0.64885 0.2125 -0.04124 0.0
O16 O 0.64813 0.18719 0.87467 0.0
O17 O 0.6853 0.15197 0.87816 0.0
O18 O 0.60639 0.23348 0.95518 0.0
O19 O 0.68507 0.15467 0.04616 0.0
O20 O 0.64732 0.18936 0.04731 0.0
C21 C 0.66274 0.16451 0.84899 0.0
C22 C 0.71292 0.24081 0.95379 0.0
O23 O 0.68358 0.24617 0.95552 0.0
O24 O 0.72279 0.21288 0.95472 0.0
C25 C 0.59138 0.24313 0.00446 0.0
O26 O 0.60519 0.24297 0.06058 0.0
C27 C 0.6624 0.16747 0.07525 0.0
Zn28 Zn 0.87674 0.69647 -0.03925 0.0
Zn29 Zn 0.83728 0.64864 -0.03613 0.0
O30 O 0.86091 0.64804 0.87592 0.0
O31 O 0.89564 0.68591 0.87492 0.0
O32 O 0.81623 0.60608 -0.03315 0.0
O33 O 0.89769 0.68443 0.04296 0.0
O34 O 0.86216 0.64731 0.04867 0.0
C35 C 0.88285 0.66329 0.84715 0.0
C36 C 0.80907 0.71248 -0.03383 0.0
O37 O 0.80362 0.68317 -0.03439 0.0
O38 O 0.83707 0.72241 -0.03534 0.0
C39 C 0.806 0.59286 0.9169 0.0
O40 O 0.80549 0.60872 0.86209 0.0
C41 C 0.88493 0.66186 0.07354 0.0
Zn42 Zn 0.35338 0.87583 0.95451 0.0
Zn43 Zn 0.40117 0.83651 0.95517 0.0
O44 O 0.40296 0.86117 0.86843 0.0
O45 O 0.36596 0.89663 0.87083 0.0
O46 O 0.44365 0.81546 0.95439 0.0
O47 O 0.36371 0.8948 0.03906 0.0
O48 O 0.40165 0.86036 0.04116 0.0
C49 C 0.38859 0.88385 0.84156 0.0
C50 C 0.33713 0.80823 0.95372 0.0
O51 O 0.36645 0.80287 0.95528 0.0
O52 O 0.32726 0.83616 0.95308 0.0
C53 C 0.45682 0.80549 0.0053 0.0
O54 O 0.44096 0.80532 0.06017 0.0
C55 C 0.38633 0.88224 0.06802 0.0
Zn56 Zn 0.17382 0.69512 -0.03838 0.0
Zn57 Zn 0.21351 0.6477 -0.0383 0.0
O58 O 0.19011 0.64676 0.04991 0.0
O59 O 0.15489 0.68399 0.04799 0.0
O60 O 0.23477 0.60537 -0.03731 0.0
O61 O 0.15304 0.68319 0.87992 0.0
O62 O 0.18845 0.64618 0.87725 0.0
C63 C 0.16796 0.66163 0.0775 0.0
C64 C 0.24143 0.71184 0.95588 0.0
O65 O 0.24701 0.68257 -0.04222 0.0
O66 O 0.21338 0.72149 0.95677 0.0
C67 C 0.24449 0.59217 0.91162 0.0
O68 O 0.24432 0.60796 0.8567 0.0
C69 C 0.16575 0.66061 0.85116 0.0
Zn70 Zn 0.35287 0.17265 0.95577 0.0
Zn71 Zn 0.4008 0.21205 0.95273 0.0
O72 O 0.40147 0.18837 0.04057 0.0
O73 O 0.36353 0.15371 0.04149 0.0
O74 O 0.44339 0.23312 0.94964 0.0
O75 O 0.36493 0.15183 0.8734 0.0
O76 O 0.40213 0.18727 0.86787 0.0
C77 C 0.38621 0.16643 0.06927 0.0
C78 C 0.33686 0.24023 0.95073 0.0
O79 O 0.36622 0.24565 0.9512 0.0
O80 O 0.32689 0.21227 0.95216 0.0
C81 C 0.45671 0.24331 -0.00048 0.0
O82 O 0.44094 0.24373 0.05447 0.0
C83 C 0.38756 0.16457 0.84291 0.0
Zn84 Zn 0.87652 0.35341 0.95366 0.0
Zn85 Zn 0.83699 0.4009 0.95574 0.0
O86 O 0.86105 0.40054 0.04144 0.0
O87 O 0.89585 0.36297 0.03829 0.0
O88 O 0.8159 0.44325 -0.04006 0.0
O89 O 0.897 0.36669 0.8701 0.0
O90 O 0.86139 0.40353 0.86859 0.0
C91 C 0.8831 0.38527 0.06788 0.0
C92 C 0.80887 0.33693 0.95264 0.0
O93 O 0.80336 0.36618 0.95486 0.0
O94 O 0.83688 0.32721 0.9518 0.0
C95 C 0.80644 0.45839 0.91068 0.0
O96 O 0.80687 0.44477 0.85437 0.0
C97 C 0.88409 0.38935 0.84129 0.0
Zn98 Zn 0.69688 0.87558 -0.03956 0.0
Zn99 Zn 0.64912 0.83601 -0.03764 0.0
O100 O 0.64694 0.8606 0.04752 0.0
O101 O 0.68414 0.89607 0.04272 0.0
O102 O 0.60662 0.81487 -0.03938 0.0
O103 O 0.68683 0.8948 0.87461 0.0
O104 O 0.64917 0.85984 0.87477 0.0
C105 C 0.6614 0.88329 0.0728 0.0
C106 C 0.7131 0.80804 -0.0342 0.0
O107 O 0.68377 0.8025 -0.03513 0.0
O108 O 0.72296 0.83604 -0.03558 0.0
C109 C 0.59147 0.80572 0.01089 0.0
O110 O 0.60518 0.8065 0.06707 0.0
C111 C 0.66438 0.88191 0.84638 0.0
Zn112 Zn 0.674 0.8527 0.45839 0.0
Zn113 Zn 0.71342 0.90056 0.45518 0.0
O114 O 0.68849 0.90181 0.37043 0.0
O115 O 0.653 0.86467 0.3762 0.0
O116 O 0.73438 0.94317 0.45197 0.0
O117 O 0.65513 0.86327 0.54423 0.0
O118 O 0.68982 0.90118 0.54318 0.0
C119 C 0.66573 0.88725 0.3456 0.0
C120 C 0.7417 0.83676 0.4529 0.0
O121 O 0.74713 0.86608 0.45344 0.0
O122 O 0.7137 0.82681 0.45444 0.0
C123 C 0.74453 0.95654 0.50182 0.0
O124 O 0.74502 0.94081 0.55679 0.0
C125 C 0.6679 0.88591 0.57198 0.0
Zn126 Zn 0.19732 0.67227 0.46519 0.0
Zn127 Zn 0.14954 0.71163 0.46428 0.0
O128 O 0.1491 0.68772 0.37837 0.0
O129 O 0.18703 0.65328 0.38063 0.0
O130 O 0.10711 0.73278 0.46488 0.0
O131 O 0.18461 0.65154 0.54888 0.0
O132 O 0.14766 0.68704 0.55109 0.0
C133 C 0.16443 0.66582 0.35159 0.0
C134 C 0.21362 0.73985 0.46587 0.0
O135 O 0.1843 0.74522 0.46418 0.0
O136 O 0.22348 0.71191 0.46664 0.0
C137 C 0.09401 0.74278 0.41392 0.0
O138 O 0.1099 0.74288 0.35909 0.0
C139 C 0.16198 0.66435 0.57805 0.0
Zn140 Zn 0.37611 0.19552 0.45751 0.0
Zn141 Zn 0.33636 0.14792 0.45973 0.0
O142 O 0.36017 0.14778 0.37205 0.0
O143 O 0.39532 0.18525 0.37178 0.0
O144 O 0.31513 0.1055 0.45861 0.0
O145 O 0.3966 0.18295 0.53991 0.0
O146 O 0.36103 0.14587 0.54481 0.0
C147 C 0.38233 0.16286 0.34362 0.0
C148 C 0.3085 0.21189 0.4627 0.0
O149 O 0.30288 0.18261 0.46205 0.0
O150 O 0.33656 0.22166 0.46121 0.0
C151 C 0.30592 0.09065 0.5092 0.0
O152 O 0.30663 0.10468 0.56502 0.0
C153 C 0.38376 0.1603 0.57006 0.0
Zn154 Zn 0.85323 0.37603 0.45752 0.0
Zn155 Zn 0.90098 0.3367 0.45843 0.0
O156 O 0.9025 0.35987 0.36993 0.0
O157 O 0.86479 0.39459 0.37109 0.0
O158 O 0.9434 0.31562 0.46172 0.0
O159 O 0.86462 0.39721 0.5391 0.0
O160 O 0.90178 0.36197 0.54257 0.0
C161 C 0.88744 0.38177 0.34199 0.0
C162 C 0.83687 0.30846 0.46339 0.0
O163 O 0.86622 0.30308 0.46167 0.0
O164 O 0.82703 0.3364 0.46247 0.0
C165 C 0.9582 0.3058 0.41233 0.0
O166 O 0.94417 0.30585 0.35645 0.0
C167 C 0.88718 0.38466 0.56826 0.0
Zn168 Zn 0.6733 0.1958 0.46361 0.0
Zn169 Zn 0.71287 0.14833 0.46151 0.0
O170 O 0.68847 0.14569 0.54864 0.0
O171 O 0.65283 0.1825 0.54718 0.0
O172 O 0.73404 0.10602 0.45747 0.0
O173 O 0.65399 0.1862 0.37897 0.0
O174 O 0.68882 0.14865 0.37579 0.0
C175 C 0.66577 0.15985 0.57596 0.0
C176 C 0.74093 0.21233 0.46458 0.0
O177 O 0.74645 0.18309 0.46237 0.0
O178 O 0.71291 0.22204 0.46544 0.0
C179 C 0.74363 0.09103 0.5068 0.0
O180 O 0.74326 0.10478 0.56297 0.0
C181 C 0.66675 0.16391 0.34937 0.0
Zn182 Zn 0.85382 0.67363 0.45871 0.0
Zn183 Zn 0.90161 0.71315 0.45671 0.0
O184 O 0.90153 0.68935 0.54433 0.0
O185 O 0.86386 0.65442 0.54455 0.0
O186 O 0.94416 0.7342 0.45842 0.0
O187 O 0.86651 0.6531 0.37645 0.0
O188 O 0.90373 0.68853 0.37158 0.0
C189 C 0.88632 0.66729 0.57275 0.0
C190 C 0.83767 0.7412 0.45327 0.0
O191 O 0.867 0.74672 0.45419 0.0
O192 O 0.82779 0.71321 0.45469 0.0
C193 C 0.95937 0.74322 0.40813 0.0
O194 O 0.94568 0.74241 0.35193 0.0
C195 C 0.88925 0.66585 0.34633 0.0
Zn196 Zn 0.3769 0.85301 0.45802 0.0
Zn197 Zn 0.33717 0.90041 0.4577 0.0
O198 O 0.36212 0.90208 0.54229 0.0
O199 O 0.39757 0.8651 0.53974 0.0
O200 O 0.31583 0.9427 0.4561 0.0
O201 O 0.39591 0.86405 0.37167 0.0
O202 O 0.36068 0.90126 0.36963 0.0
C203 C 0.38482 0.88767 0.56844 0.0
C204 C 0.30931 0.83624 0.46365 0.0
O205 O 0.30372 0.8655 0.46164 0.0
O206 O 0.33736 0.8266 0.46286 0.0
C207 C 0.30612 0.95616 0.50688 0.0
O208 O 0.3064 0.94069 0.56217 0.0
C209 C 0.38284 0.88639 0.3421 0.0
Zn210 Zn 0.19702 0.37552 0.45793 0.0
Zn211 Zn 0.14907 0.33615 0.46136 0.0
O212 O 0.1479 0.36106 0.54608 0.0
O213 O 0.18515 0.39644 0.54029 0.0
O214 O 0.10644 0.31518 0.46497 0.0
O215 O 0.18623 0.39439 0.37223 0.0
O216 O 0.1483 0.35971 0.37339 0.0
C217 C 0.16253 0.38375 0.57092 0.0
C218 C 0.21298 0.30792 0.46313 0.0
O219 O 0.18361 0.30251 0.46287 0.0
O220 O 0.22295 0.33587 0.46152 0.0
C221 C 0.09289 0.30505 0.41529 0.0
O222 O 0.10845 0.30461 0.36009 0.0
C223 C 0.16354 0.38164 0.34457 0.0
C224 C 0.25586 0.5423 0.85394 0.0
C225 C 0.25016 0.55796 0.91204 0.0
H226 H 0.25874 0.49839 0.80644 0.0
C227 C 0.24653 0.54017 -0.0306 0.0
H228 H 0.25894 0.55522 0.80888 0.0
C229 C 0.24643 0.50751 -0.03199 0.0
C230 C 0.24994 0.49186 0.90921 0.0
H231 H 0.2423 0.55143 0.01511 0.0
H232 H 0.24213 0.49459 0.0127 0.0
C233 C 0.25574 0.50964 0.85253 0.0
C234 C 0.50873 0.24478 0.94128 0.0
C235 C 0.49101 0.24896 -0.00172 0.0
H236 H 0.55429 0.24003 0.89824 0.0
C237 C 0.50679 0.25523 0.05561 0.0
H238 H 0.49738 0.24011 0.89614 0.0
C239 C 0.53951 0.25516 0.05684 0.0
C240 C 0.5572 0.24885 0.00075 0.0
H241 H 0.49392 0.25874 0.10036 0.0
H242 H 0.55084 0.25864 0.10248 0.0
C243 C 0.54144 0.24474 0.94249 0.0
C244 C 0.79434 0.51028 0.85879 0.0
C245 C 0.80066 0.4925 0.91472 0.0
H246 H 0.79068 0.55588 0.81569 0.0
C247 C 0.80472 0.50812 -0.02686 0.0
H248 H 0.7909 0.49905 0.81303 0.0
C249 C 0.80462 0.54078 -0.02533 0.0
C250 C 0.80042 0.55859 0.91782 0.0
H251 H 0.80944 0.4952 0.01727 0.0
H252 H 0.80926 0.55203 0.01991 0.0
C253 C 0.7942 0.54294 0.86033 0.0
C254 C 0.5416 0.8036 0.94886 0.0
C255 C 0.55727 0.79995 0.00762 0.0
H256 H 0.49763 0.80788 0.90182 0.0
C257 C 0.53947 0.79408 0.06427 0.0
H258 H 0.55454 0.80796 0.9042 0.0
C259 C 0.50676 0.79401 0.06289 0.0
C260 C 0.49109 0.79983 0.00483 0.0
H261 H 0.55074 0.79097 0.11032 0.0
H262 H 0.49382 0.79085 0.10793 0.0
C263 C 0.5089 0.80356 0.94749 0.0
C264 C 0.7455 0.04116 0.4448 0.0
C265 C 0.74952 0.05692 0.50307 0.0
H266 H 0.74109 0.99713 0.39844 0.0
C267 C 0.75593 0.03929 0.55915 0.0
H268 H 0.74072 0.05397 0.40056 0.0
C269 C 0.75617 1.00662 0.55791 0.0
C270 C 0.74999 0.99082 0.50058 0.0
H271 H 0.75934 0.05063 0.60479 0.0
H272 H 0.75976 0.99379 0.60265 0.0
C273 C 0.74571 1.0085 0.44358 0.0
C274 C 1.00923 0.74515 0.47023 0.0
C275 C 0.99359 0.74883 0.41144 0.0
H276 H 0.05316 0.74068 0.51735 0.0
C277 C 1.01144 0.75455 0.35479 0.0
H278 H 0.99626 0.7409 0.51489 0.0
C279 C 0.04415 0.75446 0.35622 0.0
C280 C 0.05978 0.7486 0.41432 0.0
H281 H 1.0002 0.75769 0.30871 0.0
H282 H 0.05712 0.75751 0.31119 0.0
C283 C 0.04193 0.74502 0.47164 0.0
C284 C 0.30378 0.04048 0.44839 0.0
C285 C 0.3002 0.05646 0.50678 0.0
H286 H 0.30811 0.99631 0.4024 0.0
C287 C 0.29449 0.039 0.56389 0.0
H288 H 0.30801 0.05316 0.40339 0.0
C289 C 0.29454 1.00632 0.56332 0.0
C290 C 0.3003 0.99034 0.50561 0.0
H291 H 0.29144 0.0505 0.60969 0.0
H292 H 0.29152 0.99365 0.60869 0.0
C293 C 0.30383 1.00781 0.44782 0.0
C294 C 0.04256 0.29329 0.36 0.0
C295 C 0.05857 0.29955 0.41706 0.0
H296 H 0.99832 0.29002 0.31381 0.0
C297 C 0.04106 0.30386 0.4743 0.0
H298 H 0.05526 0.28967 0.31509 0.0
C299 C 1.00835 0.30405 0.47356 0.0
C300 C 0.99236 0.29994 0.41556 0.0
H301 H 0.05259 0.30854 0.51923 0.0
H302 H 0.99567 0.30886 0.51796 0.0
C303 C 1.00984 0.29349 0.35926 0.0
C304 C 0.25892 0.28115 0.94236 0.0
C305 C 0.26685 0.31277 0.94893 0.0
H306 H 0.27433 0.23414 0.93743 0.0
C307 C 0.29864 0.32084 0.95425 0.0
H308 H 0.23482 0.27387 0.93761 0.0
C309 C 0.32181 0.29753 0.95414 0.0
C310 C 0.31351 0.26585 0.94872 0.0
H311 H 0.30554 0.345 -0.04073 0.0
H312 H 0.34606 0.30425 -0.04092 0.0
C313 C 0.28178 0.25816 0.94226 0.0
C314 C 0.79108 0.28189 0.94277 0.0
C315 C 0.78326 0.31343 0.95092 0.0
H316 H 0.77548 0.23494 0.93682 0.0
C317 C 0.75148 0.32142 -0.04196 0.0
H318 H 0.81519 0.27469 0.93658 0.0
C319 C 0.72819 0.2981 -0.04183 0.0
C320 C 0.73639 0.26649 0.95118 0.0
H321 H 0.74465 0.34552 -0.03573 0.0
H322 H 0.70394 0.30474 -0.03542 0.0
C323 C 0.76812 0.25889 0.94289 0.0
C324 C 0.75172 0.72761 -0.03757 0.0
C325 C 0.78343 0.73582 -0.03161 0.0
H326 H 0.70424 0.74399 0.95683 0.0
C327 C 0.79117 0.76746 -0.02448 0.0
H328 H 0.74496 0.70343 0.95697 0.0
C329 C 0.7682 0.79033 -0.02456 0.0
C330 C 0.73655 0.78251 -0.03177 0.0
H331 H 0.81521 0.77483 -0.01917 0.0
H332 H 0.7755 0.81437 -0.01931 0.0
C333 C 0.72842 0.7508 -0.03766 0.0
C334 C 0.25913 0.76711 0.94563 0.0
C335 C 0.26698 0.73545 0.95319 0.0
H336 H 0.27464 0.81423 0.93965 0.0
C337 C 0.29872 0.72744 -0.04068 0.0
H338 H 0.23506 0.77435 0.94028 0.0
C339 C 0.32193 0.75083 -0.04104 0.0
C340 C 0.31371 0.78254 0.95247 0.0
H341 H 0.30556 0.70325 -0.03483 0.0
H342 H 0.34615 0.74414 -0.03554 0.0
C343 C 0.28203 0.79019 0.94529 0.0
C344 C 0.78259 0.75893 0.44343 0.0
C345 C 0.81423 0.76675 0.4508 0.0
H346 H 0.73559 0.77444 0.43791 0.0
C347 C 0.82235 0.79844 0.45682 0.0
H348 H 0.77529 0.7349 0.43806 0.0
C349 C 0.79906 0.82164 0.45674 0.0
C350 C 0.76735 0.81343 0.45063 0.0
H351 H 0.84653 0.80525 0.46246 0.0
H352 H 0.8058 0.84581 0.46231 0.0
C353 C 0.75962 0.78181 0.44334 0.0
C354 C 0.25203 0.82063 0.46015 0.0
C355 C 0.28377 0.81262 0.46635 0.0
H356 H 0.20461 0.80392 0.45498 0.0
C357 C 0.29162 0.78096 0.474 0.0
H358 H 0.24519 0.84482 0.45423 0.0
C359 C 0.26872 0.75789 0.47436 0.0
C360 C 0.23704 0.76553 0.4671 0.0
H361 H 0.31569 0.77374 0.47941 0.0
H362 H 0.27611 0.73384 0.48007 0.0
C363 C 0.22882 0.79723 0.46052 0.0
C364 C 0.29092 0.26701 0.47127 0.0
C365 C 0.28299 0.23538 0.46494 0.0
H366 H 0.27553 0.31402 0.47601 0.0
C367 C 0.2512 0.22729 0.45984 0.0
H368 H 0.31504 0.27429 0.47585 0.0
C369 C 0.22802 0.2506 0.45993 0.0
C370 C 0.23633 0.28229 0.46513 0.0
H371 H 0.24429 0.20312 0.455 0.0
H372 H 0.20376 0.24387 0.45517 0.0
C373 C 0.26807 0.28999 0.47136 0.0
C374 C 0.78166 0.29039 0.4741 0.0
C375 C 0.8134 0.28279 0.46597 0.0
H376 H 0.73458 0.2746 0.4803 0.0
C377 C 0.8216 0.25117 0.45914 0.0
H378 H 0.77429 0.31436 0.48004 0.0
C379 C 0.79831 0.22785 0.45927 0.0
C380 C 0.76652 0.23585 0.46625 0.0
H381 H 0.84585 0.24452 0.45285 0.0
H382 H 0.80514 0.20375 0.45317 0.0
C383 C 0.75869 0.26739 0.47423 0.0
C384 C 0.17751 0.41031 0.24188 0.0
C385 C 0.15833 0.38853 0.27539 0.0
H386 H 0.19513 0.42669 0.1502 0.0
C387 C 0.13768 0.37009 0.24026 0.0
H388 H 0.19337 0.42522 0.2675 0.0
C389 C 0.1387 0.37094 0.17285 0.0
C390 C 0.16036 0.39028 0.13938 0.0
H391 H 0.12228 0.35338 0.26457 0.0
H392 H 0.12401 0.35487 0.14723 0.0
C393 C 0.17851 0.41118 0.17449 0.0
C394 C 0.6382 0.17866 0.24899 0.0
C395 C 0.65951 0.15899 0.28072 0.0
H396 H 0.62197 0.19646 0.15858 0.0
C397 C 0.67712 0.1378 0.24416 0.0
H398 H 0.62394 0.19498 0.27579 0.0
C399 C 0.67594 0.13864 0.17687 0.0
C400 C 0.65715 0.16069 0.14487 0.0
H401 H 0.69343 0.12202 0.26711 0.0
H402 H 0.69141 0.12345 0.14998 0.0
C403 C 0.63702 0.17949 0.18166 0.0
C404 C 0.91564 0.67656 0.23948 0.0
C405 C 0.89498 0.65826 0.27774 0.0
H406 H 0.92908 0.69166 0.14415 0.0
C407 C 0.87593 0.63625 0.24755 0.0
H408 H 0.93097 0.6934 0.26118 0.0
C409 C 0.87478 0.63527 0.18031 0.0
C410 C 0.8927 0.65626 0.14208 0.0
H411 H 0.86009 0.6214 0.27564 0.0
H412 H 0.85809 0.61975 0.15863 0.0
C413 C 0.91452 0.67555 0.17223 0.0
C414 C 0.41165 0.87264 0.24043 0.0
C415 C 0.38971 0.89156 0.27248 0.0
H416 H 0.42819 0.85519 0.15008 0.0
C417 C 0.37109 0.91189 0.23577 0.0
H418 H 0.42669 0.85702 0.26727 0.0
C419 C 0.37196 0.91082 0.16846 0.0
C420 C 0.39147 0.8894 0.13662 0.0
H421 H 0.35423 0.92706 0.25891 0.0
H422 H 0.35577 0.92526 0.14173 0.0
C423 C 0.41253 0.87158 0.17311 0.0
C424 C 0.175 0.63484 0.67922 0.0
C425 C 0.15614 0.65682 0.64719 0.0
H426 H 0.19249 0.61837 0.76958 0.0
C427 C 0.13549 0.67513 0.68386 0.0
H428 H 0.19081 0.61997 0.6524 0.0
C429 C 0.13645 0.67417 0.75119 0.0
C430 C 0.15809 0.65491 0.78301 0.0
H431 H 0.12031 0.69197 0.66073 0.0
H432 H 0.12192 0.6903 0.77791 0.0
C433 C 0.17597 0.63389 0.74655 0.0
C434 C 0.4133 0.17364 0.66896 0.0
C435 C 0.3913 0.15459 0.63869 0.0
H436 H 0.42974 0.19145 0.75794 0.0
C437 C 0.37297 0.13394 0.67688 0.0
H438 H 0.42818 0.18947 0.64092 0.0
C439 C 0.37392 0.13506 0.74413 0.0
C440 C 0.3932 0.15686 0.77435 0.0
H441 H 0.35614 0.11861 0.65511 0.0
H442 H 0.35779 0.12049 0.77216 0.0
C443 C 0.41423 0.17478 0.73619 0.0
C444 C 0.9136 0.37659 0.74 0.0
C445 C 0.89139 0.39519 0.77205 0.0
H446 H 0.93004 0.35895 0.64975 0.0
C447 C 0.87257 0.41532 0.73531 0.0
H448 H 0.92885 0.36117 0.76685 0.0
C449 C 0.87329 0.41406 0.66799 0.0
C450 C 0.89284 0.39263 0.63627 0.0
H451 H 0.85554 0.4303 0.75843 0.0
H452 H 0.85681 0.42817 0.64127 0.0
C453 C 0.9143 0.3753 0.67272 0.0
C454 C 0.67863 0.91061 0.74377 0.0
C455 C 0.65929 0.88895 0.77721 0.0
H456 H 0.69618 0.92707 0.65208 0.0
C457 C 0.63839 0.8708 0.74207 0.0
H458 H 0.6947 0.92529 0.76942 0.0
C459 C 0.63925 0.87184 0.67469 0.0
C460 C 0.66102 0.89104 0.6412 0.0
H461 H 0.62287 0.85419 0.76634 0.0
H462 H 0.62433 0.85599 0.64904 0.0
C463 C 0.67947 0.91166 0.67636 0.0
C464 C 0.8721 0.63859 0.67537 0.0
C465 C 0.89142 0.66027 0.64192 0.0
H466 H 0.85458 0.62212 0.76707 0.0
C467 C 0.91233 0.67841 0.67704 0.0
H468 H 0.85603 0.62391 0.64973 0.0
C469 C 0.91148 0.67738 0.74443 0.0
C470 C 0.88972 0.65816 0.77792 0.0
H471 H 0.92783 0.69504 0.65276 0.0
H472 H 0.92639 0.69323 0.77006 0.0
C473 C 0.87127 0.63754 0.74278 0.0
C474 C 0.41417 0.87421 0.6684 0.0
C475 C 0.39245 0.89339 0.6366 0.0
H476 H 0.43039 0.85646 0.75882 0.0
C477 C 0.37446 0.9143 0.6731 0.0
H478 H 0.42878 0.85818 0.64165 0.0
C479 C 0.37543 0.91334 0.74043 0.0
C480 C 0.3944 0.89143 0.77242 0.0
H481 H 0.35786 0.92975 0.65009 0.0
H482 H 0.35954 0.92811 0.76727 0.0
C483 C 0.41513 0.87323 0.73572 0.0
C484 C 0.13578 0.37378 0.67761 0.0
C485 C 0.15694 0.39153 0.63945 0.0
H486 H 0.12169 0.35923 0.77288 0.0
C487 C 0.17637 0.41321 0.66966 0.0
H488 H 0.12015 0.35721 0.65587 0.0
C489 C 0.1773 0.41434 0.73692 0.0
C490 C 0.15881 0.39384 0.77512 0.0
H491 H 0.19261 0.42764 0.64163 0.0
H492 H 0.19424 0.42956 0.75868 0.0
C493 C 0.13669 0.37494 0.74485 0.0
C494 C 0.67664 0.13514 0.74923 0.0
C495 C 0.65707 0.15654 0.78098 0.0
H496 H 0.69439 0.11893 0.65878 0.0
C497 C 0.63558 0.17384 0.74457 0.0
H498 H 0.69314 0.12105 0.77594 0.0
C499 C 0.63626 0.17256 0.67728 0.0
C500 C 0.65849 0.15399 0.64521 0.0
H501 H 0.61982 0.19017 0.76756 0.0
H502 H 0.62098 0.18796 0.65047 0.0
C503 C 0.67734 0.13387 0.68192 0.0
C504 C 0.87391 0.41059 0.24035 0.0
C505 C 0.8927 0.38854 0.27237 0.0
H506 H 0.85643 0.42719 0.15009 0.0
C507 C 0.91282 0.36972 0.2356 0.0
H508 H 0.85846 0.42579 0.26722 0.0
C509 C 0.91165 0.37054 0.16828 0.0
C510 C 0.89034 0.3902 0.13652 0.0
H511 H 0.92788 0.35276 0.25871 0.0
H512 H 0.9259 0.35421 0.14149 0.0
C513 C 0.87274 0.41141 0.17306 0.0
C514 C 0.67466 0.91291 0.1716 0.0
C515 C 0.65565 0.89086 0.14141 0.0
H516 H 0.69246 0.92943 0.26052 0.0
C517 C 0.63504 0.8725 0.17966 0.0
H518 H 0.69045 0.9278 0.14352 0.0
C519 C 0.63617 0.8735 0.24691 0.0
C520 C 0.65795 0.89284 0.27706 0.0
H521 H 0.61974 0.85563 0.15795 0.0
H522 H 0.62165 0.85736 0.27499 0.0
C523 C 0.67581 0.91387 0.23884 0.0
C524 C 0.17891 0.63727 0.25117 0.0
C525 C 0.15933 0.65863 0.28299 0.0
H526 H 0.19671 0.62108 0.16073 0.0
C527 C 0.13822 0.67637 0.24648 0.0
H528 H 0.19515 0.6229 0.27792 0.0
C529 C 0.13911 0.6753 0.17916 0.0
C530 C 0.16111 0.65646 0.14712 0.0
H531 H 0.1225 0.69272 0.26949 0.0
H532 H 0.12401 0.69087 0.1523 0.0
C533 C 0.17979 0.63619 0.18385 0.0
C534 C 0.41111 0.17694 0.24099 0.0
C535 C 0.38934 0.15773 0.27445 0.0
H536 H 0.42763 0.19442 0.14929 0.0
C537 C 0.37106 0.13694 0.23933 0.0
H538 H 0.4259 0.19291 0.26663 0.0
C539 C 0.37207 0.13782 0.17194 0.0
C540 C 0.39137 0.15949 0.13845 0.0
H541 H 0.35436 0.12152 0.26362 0.0
H542 H 0.35611 0.12301 0.14631 0.0
C543 C 0.41213 0.1778 0.17358 0.0
loop_
_geom_bond_atom_site_label_1
_geom_bond_atom_site_label_2
_geom_bond_distance
_geom_bond_site_symmetry_2
_ccdc_geom_bond_type
Zn0 O3 2.031 1_554 S
Zn0 O5 2.049 . S
Zn0 O10 2.067 . S
Zn1 O2 1.962 . S
Zn1 O4 1.986 1_556 S
Zn1 O6 1.996 1_556 S
Zn1 O9 1.943 1_556 S
O2 Zn1 1.962 . S
O2 C7 1.254 . S
O3 Zn0 2.031 1_556 S
O3 C7 1.269 . S
O4 Zn1 1.986 1_554 S
O4 C11 1.262 1_554 S
O5 Zn0 2.049 . S
O5 C13 1.260 . S
O6 Zn1 1.996 1_554 S
O6 C13 1.257 . S
C7 O2 1.254 . S
C7 O3 1.269 . S
C8 O9 1.250 . S
C8 O10 1.270 . S
O9 Zn1 1.943 1_554 S
O9 C8 1.250 . S
O10 Zn0 2.067 . S
O10 C8 1.270 . S
C11 O4 1.262 1_556 S
C11 O12 1.232 . S
O12 C11 1.232 . S
C13 O5 1.260 . S
C13 O6 1.257 . S
Zn14 O17 2.031 1_554 S
Zn14 O19 2.049 . S
Zn14 O24 2.067 . S
Zn15 O16 1.962 . S
Zn15 O18 1.986 1_556 S
Zn15 O20 1.996 1_556 S
Zn15 O23 1.943 1_556 S
O16 Zn15 1.962 . S
O16 C21 1.254 . S
O17 Zn14 2.031 1_556 S
O17 C21 1.269 . S
O18 Zn15 1.986 1_554 S
O18 C25 1.262 1_554 S
O19 Zn14 2.049 . S
O19 C27 1.260 . S
O20 Zn15 1.996 1_554 S
O20 C27 1.257 . S
C21 O16 1.254 . S
C21 O17 1.269 . S
C22 O23 1.250 . S
C22 O24 1.270 . S
O23 Zn15 1.943 1_554 S
O23 C22 1.250 . S
O24 Zn14 2.067 . S
O24 C22 1.270 . S
C25 O18 1.262 1_556 S
C25 O26 1.232 . S
O26 C25 1.232 . S
C27 O19 1.260 . S
C27 O20 1.257 . S
Zn28 O31 2.031 1_554 S
Zn28 O33 2.049 . S
Zn28 O38 2.067 . S
Zn29 O30 1.962 . S
Zn29 O32 1.986 1_556 S
Zn29 O34 1.996 1_556 S
Zn29 O37 1.943 1_556 S
O30 Zn29 1.962 . S
O30 C35 1.254 . S
O31 Zn28 2.031 1_556 S
O31 C35 1.269 . S
O32 Zn29 1.986 1_554 S
O32 C39 1.262 1_554 S
O33 Zn28 2.049 . S
O33 C41 1.260 . S
O34 Zn29 1.996 1_554 S
O34 C41 1.257 . S
C35 O30 1.254 . S
C35 O31 1.269 . S
C36 O37 1.250 . S
C36 O38 1.270 . S
O37 Zn29 1.943 1_554 S
O37 C36 1.250 . S
O38 Zn28 2.067 . S
O38 C36 1.270 . S
C39 O32 1.262 1_556 S
C39 O40 1.232 . S
O40 C39 1.232 . S
C41 O33 1.260 . S
C41 O34 1.257 . S
Zn42 O45 2.031 1_554 S
Zn42 O47 2.049 . S
Zn42 O52 2.067 . S
Zn43 O44 1.962 . S
Zn43 O46 1.986 1_556 S
Zn43 O48 1.996 1_556 S
Zn43 O51 1.943 1_556 S
O44 Zn43 1.962 . S
O44 C49 1.254 . S
O45 Zn42 2.031 1_556 S
O45 C49 1.269 . S
O46 Zn43 1.986 1_554 S
O46 C53 1.262 1_554 S
O47 Zn42 2.049 . S
O47 C55 1.260 . S
O48 Zn43 1.996 1_554 S
O48 C55 1.257 . S
C49 O44 1.254 . S
C49 O45 1.269 . S
C50 O51 1.250 . S
C50 O52 1.270 . S
O51 Zn43 1.943 1_554 S
O51 C50 1.250 . S
O52 Zn42 2.067 . S
O52 C50 1.270 . S
C53 O46 1.262 1_556 S
C53 O54 1.232 . S
O54 C53 1.232 . S
C55 O47 1.260 . S
C55 O48 1.257 . S
Zn56 O59 2.031 1_556 S
Zn56 O61 2.049 . S
Zn56 O66 2.067 . S
Zn57 O58 1.962 . S
Zn57 O60 1.986 1_554 S
Zn57 O62 1.996 1_554 S
Zn57 O65 1.943 . S
O58 Zn57 1.962 . S
O58 C63 1.254 . S
O59 Zn56 2.031 1_554 S
O59 C63 1.269 . S
O60 Zn57 1.986 1_556 S
O60 C67 1.262 1_556 S
O61 Zn56 2.049 . S
O61 C69 1.260 . S
O62 Zn57 1.996 1_556 S
O62 C69 1.257 . S
C63 O58 1.254 . S
C63 O59 1.269 . S
C64 O65 1.249 1_556 S
C64 O66 1.270 . S
O65 Zn57 1.943 . S
O65 C64 1.249 1_554 S
O66 Zn56 2.067 . S
O66 C64 1.270 . S
C67 O60 1.262 1_554 S
C67 O68 1.232 . S
O68 C67 1.232 . S
C69 O61 1.260 . S
C69 O62 1.257 . S
Zn70 O73 2.031 1_556 S
Zn70 O75 2.049 . S
Zn70 O80 2.067 . S
Zn71 O72 1.962 . S
Zn71 O74 1.986 1_554 S
Zn71 O76 1.996 1_554 S
Zn71 O79 1.943 . S
O72 Zn71 1.962 . S
O72 C77 1.254 . S
O73 Zn70 2.031 1_554 S
O73 C77 1.269 . S
O74 Zn71 1.986 1_556 S
O74 C81 1.262 1_556 S
O75 Zn70 2.049 . S
O75 C83 1.260 . S
O76 Zn71 1.996 1_556 S
O76 C83 1.257 . S
C77 O72 1.254 . S
C77 O73 1.269 . S
C78 O79 1.249 1_556 S
C78 O80 1.270 . S
O79 Zn71 1.943 . S
O79 C78 1.249 1_554 S
O80 Zn70 2.067 . S
O80 C78 1.270 . S
C81 O74 1.262 1_554 S
C81 O82 1.232 . S
O82 C81 1.232 . S
C83 O75 1.260 . S
C83 O76 1.257 . S
Zn84 O87 2.031 1_556 S
Zn84 O89 2.049 . S
Zn84 O94 2.067 . S
Zn85 O86 1.962 . S
Zn85 O88 1.986 1_554 S
Zn85 O90 1.996 1_554 S
Zn85 O93 1.943 . S
O86 Zn85 1.962 . S
O86 C91 1.254 . S
O87 Zn84 2.031 1_554 S
O87 C91 1.269 . S
O88 Zn85 1.986 1_556 S
O88 C95 1.262 1_556 S
O89 Zn84 2.049 . S
O89 C97 1.260 . S
O90 Zn85 1.996 1_556 S
O90 C97 1.257 . S
C91 O86 1.254 . S
C91 O87 1.269 . S
C92 O93 1.249 1_556 S
C92 O94 1.270 . S
O93 Zn85 1.943 . S
O93 C92 1.249 1_554 S
O94 Zn84 2.067 . S
O94 C92 1.270 . S
C95 O88 1.262 1_554 S
C95 O96 1.232 . S
O96 C95 1.232 . S
C97 O89 1.260 . S
C97 O90 1.257 . S
Zn98 O101 2.031 1_556 S
Zn98 O103 2.049 . S
Zn98 O108 2.067 . S
Zn99 O100 1.962 . S
Zn99 O102 1.986 1_554 S
Zn99 O104 1.996 1_554 S
Zn99 O107 1.943 . S
O100 Zn99 1.962 . S
O100 C105 1.254 . S
O101 Zn98 2.031 1_554 S
O101 C105 1.269 . S
O102 Zn99 1.986 1_556 S
O102 C109 1.262 1_556 S
O103 Zn98 2.049 . S
O103 C111 1.260 . S
O104 Zn99 1.996 1_556 S
O104 C111 1.257 . S
C105 O100 1.254 . S
C105 O101 1.269 . S
C106 O107 1.249 1_556 S
C106 O108 1.270 . S
O107 Zn99 1.943 . S
O107 C106 1.249 1_554 S
O108 Zn98 2.067 . S
O108 C106 1.270 . S
C109 O102 1.262 1_554 S
C109 O110 1.232 . S
O110 C109 1.232 . S
C111 O103 1.260 . S
C111 O104 1.257 . S
Zn112 O115 2.031 . S
Zn112 O117 2.049 . S
Zn112 O122 2.067 . S
Zn113 O114 1.962 . S
Zn113 O116 1.986 . S
Zn113 O118 1.996 . S
Zn113 O121 1.943 . S
O114 Zn113 1.962 . S
O114 C119 1.254 . S
O115 Zn112 2.031 . S
O115 C119 1.269 . S
O116 Zn113 1.986 . S
O116 C123 1.262 . S
O117 Zn112 2.049 . S
O117 C125 1.260 . S
O118 Zn113 1.996 . S
O118 C125 1.257 . S
C119 O114 1.254 . S
C119 O115 1.269 . S
C120 O121 1.249 . S
C120 O122 1.270 . S
O121 Zn113 1.943 . S
O121 C120 1.249 . S
O122 Zn112 2.067 . S
O122 C120 1.270 . S
C123 O116 1.262 . S
C123 O124 1.232 . S
O124 C123 1.232 . S
C125 O117 1.260 . S
C125 O118 1.257 . S
Zn126 O129 2.031 . S
Zn126 O131 2.049 . S
Zn126 O136 2.067 . S
Zn127 O128 1.962 . S
Zn127 O130 1.986 . S
Zn127 O132 1.996 . S
Zn127 O135 1.943 . S
O128 Zn127 1.962 . S
O128 C133 1.254 . S
O129 Zn126 2.031 . S
O129 C133 1.269 . S
O130 Zn127 1.986 . S
O130 C137 1.262 . S
O131 Zn126 2.049 . S
O131 C139 1.260 . S
O132 Zn127 1.996 . S
O132 C139 1.257 . S
C133 O128 1.254 . S
C133 O129 1.269 . S
C134 O135 1.249 . S
C134 O136 1.270 . S
O135 Zn127 1.943 . S
O135 C134 1.249 . S
O136 Zn126 2.067 . S
O136 C134 1.270 . S
C137 O130 1.262 . S
C137 O138 1.232 . S
O138 C137 1.232 . S
C139 O131 1.260 . S
C139 O132 1.257 . S
Zn140 O143 2.031 . S
Zn140 O145 2.049 . S
Zn140 O150 2.067 . S
Zn141 O142 1.962 . S
Zn141 O144 1.986 . S
Zn141 O146 1.996 . S
Zn141 O149 1.943 . S
O142 Zn141 1.962 . S
O142 C147 1.254 . S
O143 Zn140 2.031 . S
O143 C147 1.269 . S
O144 Zn141 1.986 . S
O144 C151 1.262 . S
O145 Zn140 2.049 . S
O145 C153 1.260 . S
O146 Zn141 1.996 . S
O146 C153 1.257 . S
C147 O142 1.254 . S
C147 O143 1.269 . S
C148 O149 1.249 . S
C148 O150 1.270 . S
O149 Zn141 1.943 . S
O149 C148 1.249 . S
O150 Zn140 2.067 . S
O150 C148 1.270 . S
C151 O144 1.262 . S
C151 O152 1.232 . S
O152 C151 1.232 . S
C153 O145 1.260 . S
C153 O146 1.257 . S
Zn154 O157 2.031 . S
Zn154 O159 2.049 . S
Zn154 O164 2.067 . S
Zn155 O156 1.962 . S
Zn155 O158 1.986 . S
Zn155 O160 1.996 . S
Zn155 O163 1.943 . S
O156 Zn155 1.962 . S
O156 C161 1.254 . S
O157 Zn154 2.031 . S
O157 C161 1.269 . S
O158 Zn155 1.986 . S
O158 C165 1.262 . S
O159 Zn154 2.049 . S
O159 C167 1.260 . S
O160 Zn155 1.996 . S
O160 C167 1.257 . S
C161 O156 1.254 . S
C161 O157 1.269 . S
C162 O163 1.249 . S
C162 O164 1.270 . S
O163 Zn155 1.943 . S
O163 C162 1.249 . S
O164 Zn154 2.067 . S
O164 C162 1.270 . S
C165 O158 1.262 . S
C165 O166 1.232 . S
O166 C165 1.232 . S
C167 O159 1.260 . S
C167 O160 1.257 . S
Zn168 O171 2.031 . S
Zn168 O173 2.049 . S
Zn168 O178 2.067 . S
Zn169 O170 1.962 . S
Zn169 O172 1.986 . S
Zn169 O174 1.996 . S
Zn169 O177 1.943 . S
O170 Zn169 1.962 . S
O170 C175 1.254 . S
O171 Zn168 2.031 . S
O171 C175 1.269 . S
O172 Zn169 1.986 . S
O172 C179 1.262 . S
O173 Zn168 2.049 . S
O173 C181 1.260 . S
O174 Zn169 1.996 . S
O174 C181 1.257 . S
C175 O170 1.254 . S
C175 O171 1.269 . S
C176 O177 1.249 . S
C176 O178 1.270 . S
O177 Zn169 1.943 . S
O177 C176 1.249 . S
O178 Zn168 2.067 . S
O178 C176 1.270 . S
C179 O172 1.262 . S
C179 O180 1.232 . S
O180 C179 1.232 . S
C181 O173 1.260 . S
C181 O174 1.257 . S
Zn182 O185 2.031 . S
Zn182 O187 2.049 . S
Zn182 O192 2.067 . S
Zn183 O184 1.962 . S
Zn183 O186 1.986 . S
Zn183 O188 1.996 . S
Zn183 O191 1.943 . S
O184 Zn183 1.962 . S
O184 C189 1.254 . S
O185 Zn182 2.031 . S
O185 C189 1.269 . S
O186 Zn183 1.986 . S
O186 C193 1.262 . S
O187 Zn182 2.049 . S
O187 C195 1.260 . S
O188 Zn183 1.996 . S
O188 C195 1.257 . S
C189 O184 1.254 . S
C189 O185 1.269 . S
C190 O191 1.249 . S
C190 O192 1.270 . S
O191 Zn183 1.943 . S
O191 C190 1.249 . S
O192 Zn182 2.067 . S
O192 C190 1.270 . S
C193 O186 1.262 . S
C193 O194 1.232 . S
O194 C193 1.232 . S
C195 O187 1.260 . S
C195 O188 1.257 . S
Zn196 O199 2.031 . S
Zn196 O201 2.049 . S
Zn196 O206 2.067 . S
Zn197 O198 1.962 . S
Zn197 O200 1.986 . S
Zn197 O202 1.996 . S
Zn197 O205 1.943 . S
O198 Zn197 1.962 . S
O198 C203 1.254 . S
O199 Zn196 2.031 . S
O199 C203 1.269 . S
O200 Zn197 1.986 . S
O200 C207 1.262 . S
O201 Zn196 2.049 . S
O201 C209 1.260 . S
O202 Zn197 1.996 . S
O202 C209 1.257 . S
C203 O198 1.254 . S
C203 O199 1.269 . S
C204 O205 1.249 . S
C204 O206 1.270 . S
O205 Zn197 1.943 . S
O205 C204 1.249 . S
O206 Zn196 2.067 . S
O206 C204 1.270 . S
C207 O200 1.262 . S
C207 O208 1.232 . S
O208 C207 1.232 . S
C209 O201 1.260 . S
C209 O202 1.257 . S
Zn210 O213 2.031 . S
Zn210 O215 2.049 . S
Zn210 O220 2.067 . S
Zn211 O212 1.962 . S
Zn211 O214 1.986 . S
Zn211 O216 1.996 . S
Zn211 O219 1.943 . S
O212 Zn211 1.962 . S
O212 C217 1.254 . S
O213 Zn210 2.031 . S
O213 C217 1.269 . S
O214 Zn211 1.986 . S
O214 C221 1.262 . S
O215 Zn210 2.049 . S
O215 C223 1.260 . S
O216 Zn211 1.996 . S
O216 C223 1.257 . S
C217 O212 1.254 . S
C217 O213 1.269 . S
C218 O219 1.249 . S
C218 O220 1.270 . S
O219 Zn211 1.943 . S
O219 C218 1.249 . S
O220 Zn210 2.067 . S
O220 C218 1.270 . S
C221 O214 1.262 . S
C221 O222 1.232 . S
O222 C221 1.232 . S
C223 O215 1.260 . S
C223 O216 1.257 . S
C224 C225 1.387 1_554 S
C224 H228 0.949 1_554 S
C224 C233 1.390 . S
C225 C224 1.387 1_556 S
C225 C227 1.387 1_556 S
H226 C233 0.950 . S
C227 C225 1.387 1_554 S
C227 C229 1.390 . S
C227 H231 0.950 1_554 S
H228 C224 0.949 1_556 S
C229 C227 1.390 . S
C229 C230 1.387 . S
C229 H232 0.950 . S
C230 C229 1.387 . S
C230 C233 1.387 . S
H231 C227 0.950 1_556 S
H232 C229 0.950 . S
C233 C224 1.390 . S
C233 H226 0.950 . S
C233 C230 1.387 . S
C234 C235 1.387 1_554 S
C234 H238 0.950 . S
C234 C243 1.390 . S
C235 C234 1.387 1_556 S
C235 C237 1.387 1_556 S
H236 C243 0.950 . S
C237 C235 1.387 1_554 S
C237 C239 1.390 . S
C237 H241 0.950 . S
H238 C234 0.950 . S
C239 C237 1.390 . S
C239 C240 1.387 . S
C239 H242 0.950 . S
C240 C239 1.387 . S
C240 C243 1.387 . S
H241 C237 0.950 . S
H242 C239 0.950 . S
C243 C234 1.390 . S
C243 H236 0.950 . S
C243 C240 1.387 . S
C244 C245 1.387 1_554 S
C244 H248 0.949 1_554 S
C244 C253 1.390 . S
C245 C244 1.387 1_556 S
C245 C247 1.387 1_556 S
H246 C253 0.950 . S
C247 C245 1.387 1_554 S
C247 C249 1.390 . S
C247 H251 0.950 1_554 S
H248 C244 0.949 1_556 S
C249 C247 1.390 . S
C249 C250 1.387 . S
C249 H252 0.950 . S
C250 C249 1.387 . S
C250 C253 1.387 . S
H251 C247 0.950 1_556 S
H252 C249 0.950 . S
C253 C244 1.390 . S
C253 H246 0.950 . S
C253 C250 1.387 . S
C254 C255 1.387 1_554 S
C254 H258 0.950 . S
C254 C263 1.390 . S
C255 C254 1.387 1_556 S
C255 C257 1.387 1_556 S
H256 C263 0.950 . S
C257 C255 1.387 1_554 S
C257 C259 1.390 . S
C257 H261 0.950 . S
H258 C254 0.950 . S
C259 C257 1.390 . S
C259 C260 1.387 . S
C259 H262 0.950 . S
C260 C259 1.387 . S
C260 C263 1.387 . S
H261 C257 0.950 . S
H262 C259 0.950 . S
C263 C254 1.390 . S
C263 H256 0.950 . S
C263 C260 1.387 . S
C264 C265 1.387 . S
C264 H268 0.950 . S
C264 C273 1.390 1_545 S
C265 C264 1.387 . S
C265 C267 1.387 . S
H266 C273 0.950 . S
C267 C265 1.387 . S
C267 C269 1.390 1_545 S
C267 H271 0.950 . S
H268 C264 0.950 . S
C269 C267 1.390 1_565 S
C269 C270 1.387 . S
C269 H272 0.950 . S
C270 C269 1.387 . S
C270 C273 1.387 . S
H271 C267 0.950 . S
H272 C269 0.950 . S
C273 C264 1.390 1_565 S
C273 H266 0.950 . S
C273 C270 1.387 . S
C274 C275 1.387 . S
C274 H278 0.950 . S
C274 C283 1.390 1_655 S
C275 C274 1.387 . S
C275 C277 1.387 . S
H276 C283 0.950 . S
C277 C275 1.387 . S
C277 C279 1.390 1_655 S
C277 H281 0.950 . S
H278 C274 0.950 . S
C279 C277 1.390 1_455 S
C279 C280 1.387 . S
C279 H282 0.950 . S
C280 C279 1.387 . S
C280 C283 1.387 . S
H281 C277 0.950 . S
H282 C279 0.950 . S
C283 C274 1.390 1_455 S
C283 H276 0.950 . S
C283 C280 1.387 . S
C284 C285 1.387 . S
C284 H288 0.950 . S
C284 C293 1.390 1_545 S
C285 C284 1.387 . S
C285 C287 1.387 . S
H286 C293 0.950 . S
C287 C285 1.387 . S
C287 C289 1.390 1_545 S
C287 H291 0.950 . S
H288 C284 0.950 . S
C289 C287 1.390 1_565 S
C289 C290 1.387 . S
C289 H292 0.950 . S
C290 C289 1.387 . S
C290 C293 1.387 . S
H291 C287 0.950 . S
H292 C289 0.950 . S
C293 C284 1.390 1_565 S
C293 H286 0.950 . S
C293 C290 1.387 . S
C294 C295 1.387 . S
C294 H298 0.950 . S
C294 C303 1.390 1_455 S
C295 C294 1.387 . S
C295 C297 1.387 . S
H296 C303 0.950 . S
C297 C295 1.387 . S
C297 C299 1.390 1_455 S
C297 H301 0.950 . S
H298 C294 0.950 . S
C299 C297 1.390 1_655 S
C299 C300 1.387 . S
C299 H302 0.950 . S
C300 C299 1.387 . S
C300 C303 1.387 . S
H301 C297 0.950 . S
H302 C299 0.950 . S
C303 C294 1.390 1_655 S
C303 H296 0.950 . S
C303 C300 1.387 . S
C304 C305 1.387 . S
C304 H308 0.950 . S
C304 C313 1.390 . S
C305 C304 1.387 . S
C305 C307 1.387 1_556 S
H306 C313 0.950 . S
C307 C305 1.387 1_554 S
C307 C309 1.390 . S
C307 H311 0.950 . S
H308 C304 0.950 . S
C309 C307 1.390 . S
C309 C310 1.387 . S
C309 H312 0.950 . S
C310 C309 1.387 . S
C310 C313 1.387 1_554 S
H311 C307 0.950 . S
H312 C309 0.950 . S
C313 C304 1.390 . S
C313 H306 0.950 . S
C313 C310 1.387 1_556 S
C314 C315 1.387 1_556 S
C314 H318 0.950 . S
C314 C323 1.390 . S
C315 C314 1.387 1_554 S
C315 C317 1.387 . S
H316 C323 0.950 . S
C317 C315 1.387 . S
C317 C319 1.390 . S
C317 H321 0.950 . S
H318 C314 0.950 . S
C319 C317 1.390 . S
C319 C320 1.387 1_554 S
C319 H322 0.950 . S
C320 C319 1.387 1_556 S
C320 C323 1.387 . S
H321 C317 0.950 . S
H322 C319 0.950 . S
C323 C314 1.390 . S
C323 H316 0.950 . S
C323 C320 1.387 . S
C324 C325 1.387 . S
C324 H328 0.950 . S
C324 C333 1.390 . S
C325 C324 1.387 . S
C325 C327 1.387 1_556 S
H326 C333 0.950 . S
C327 C325 1.387 1_554 S
C327 C329 1.390 . S
C327 H331 0.950 . S
H328 C324 0.950 . S
C329 C327 1.390 . S
C329 C330 1.387 . S
C329 H332 0.950 . S
C330 C329 1.387 . S
C330 C333 1.387 1_554 S
H331 C327 0.950 . S
H332 C329 0.950 . S
C333 C324 1.390 . S
C333 H326 0.950 . S
C333 C330 1.387 1_556 S
C334 C335 1.387 1_556 S
C334 H338 0.950 . S
C334 C343 1.390 . S
C335 C334 1.387 1_554 S
C335 C337 1.387 . S
H336 C343 0.950 . S
C337 C335 1.387 . S
C337 C339 1.390 . S
C337 H341 0.950 . S
H338 C334 0.950 . S
C339 C337 1.390 . S
C339 C340 1.387 1_554 S
C339 H342 0.950 . S
C340 C339 1.387 1_556 S
C340 C343 1.387 . S
H341 C337 0.950 . S
H342 C339 0.950 . S
C343 C334 1.390 . S
C343 H336 0.950 . S
C343 C340 1.387 . S
C344 C345 1.387 . S
C344 H348 0.950 . S
C344 C353 1.390 . S
C345 C344 1.387 . S
C345 C347 1.387 . S
H346 C353 0.950 . S
C347 C345 1.387 . S
C347 C349 1.390 . S
C347 H351 0.950 . S
H348 C344 0.950 . S
C349 C347 1.390 . S
C349 C350 1.387 . S
C349 H352 0.950 . S
C350 C349 1.387 . S
C350 C353 1.387 . S
H351 C347 0.950 . S
H352 C349 0.950 . S
C353 C344 1.390 . S
C353 H346 0.950 . S
C353 C350 1.387 . S
C354 C355 1.387 . S
C354 H358 0.950 . S
C354 C363 1.390 . S
C355 C354 1.387 . S
C355 C357 1.387 . S
H356 C363 0.950 . S
C357 C355 1.387 . S
C357 C359 1.390 . S
C357 H361 0.950 . S
H358 C354 0.950 . S
C359 C357 1.390 . S
C359 C360 1.387 . S
C359 H362 0.950 . S
C360 C359 1.387 . S
C360 C363 1.387 . S
H361 C357 0.950 . S
H362 C359 0.950 . S
C363 C354 1.390 . S
C363 H356 0.950 . S
C363 C360 1.387 . S
C364 C365 1.387 . S
C364 H368 0.950 . S
C364 C373 1.390 . S
C365 C364 1.387 . S
C365 C367 1.387 . S
H366 C373 0.950 . S
C367 C365 1.387 . S
C367 C369 1.390 . S
C367 H371 0.950 . S
H368 C364 0.950 . S
C369 C367 1.390 . S
C369 C370 1.387 . S
C369 H372 0.950 . S
C370 C369 1.387 . S
C370 C373 1.387 . S
H371 C367 0.950 . S
H372 C369 0.950 . S
C373 C364 1.390 . S
C373 H366 0.950 . S
C373 C370 1.387 . S
C374 C375 1.387 . S
C374 H378 0.950 . S
C374 C383 1.390 . S
C375 C374 1.387 . S
C375 C377 1.387 . S
H376 C383 0.950 . S
C377 C375 1.387 . S
C377 C379 1.390 . S
C377 H381 0.950 . S
H378 C374 0.950 . S
C379 C377 1.390 . S
C379 C380 1.387 . S
C379 H382 0.950 . S
C380 C379 1.387 . S
C380 C383 1.387 . S
H381 C377 0.950 . S
H382 C379 0.950 . S
C383 C374 1.390 . S
C383 H376 0.950 . S
C383 C380 1.387 . S
C384 C385 1.387 . S
C384 H388 0.950 . S
C384 C393 1.390 . S
C385 C384 1.387 . S
C385 C387 1.387 . S
H386 C393 0.950 . S
C387 C385 1.387 . S
C387 C389 1.390 . S
C387 H391 0.950 . S
H388 C384 0.950 . S
C389 C387 1.390 . S
C389 C390 1.387 . S
C389 H392 0.950 . S
C390 C389 1.387 . S
C390 C393 1.387 . S
H391 C387 0.950 . S
H392 C389 0.950 . S
C393 C384 1.390 . S
C393 H386 0.950 . S
C393 C390 1.387 . S
C394 C395 1.387 . S
C394 H398 0.950 . S
C394 C403 1.390 . S
C395 C394 1.387 . S
C395 C397 1.387 . S
H396 C403 0.950 . S
C397 C395 1.387 . S
C397 C399 1.390 . S
C397 H401 0.950 . S
H398 C394 0.950 . S
C399 C397 1.390 . S
C399 C400 1.387 . S
C399 H402 0.950 . S
C400 C399 1.387 . S
C400 C403 1.387 . S
H401 C397 0.950 . S
H402 C399 0.950 . S
C403 C394 1.390 . S
C403 H396 0.950 . S
C403 C400 1.387 . S
C404 C405 1.387 . S
C404 H408 0.950 . S
C404 C413 1.390 . S
C405 C404 1.387 . S
C405 C407 1.387 . S
H406 C413 0.950 . S
C407 C405 1.387 . S
C407 C409 1.390 . S
C407 H411 0.950 . S
H408 C404 0.950 . S
C409 C407 1.390 . S
C409 C410 1.387 . S
C409 H412 0.950 . S
C410 C409 1.387 . S
C410 C413 1.387 . S
H411 C407 0.950 . S
H412 C409 0.950 . S
C413 C404 1.390 . S
C413 H406 0.950 . S
C413 C410 1.387 . S
C414 C415 1.387 . S
C414 H418 0.950 . S
C414 C423 1.390 . S
C415 C414 1.387 . S
C415 C417 1.387 . S
H416 C423 0.950 . S
C417 C415 1.387 . S
C417 C419 1.390 . S
C417 H421 0.950 . S
H418 C414 0.950 . S
C419 C417 1.390 . S
C419 C420 1.387 . S
C419 H422 0.950 . S
C420 C419 1.387 . S
C420 C423 1.387 . S
H421 C417 0.950 . S
H422 C419 0.950 . S
C423 C414 1.390 . S
C423 H416 0.950 . S
C423 C420 1.387 . S
C424 C425 1.387 . S
C424 H428 0.950 . S
C424 C433 1.390 . S
C425 C424 1.387 . S
C425 C427 1.387 . S
H426 C433 0.950 . S
C427 C425 1.387 . S
C427 C429 1.390 . S
C427 H431 0.950 . S
H428 C424 0.950 . S
C429 C427 1.390 . S
C429 C430 1.387 . S
C429 H432 0.950 . S
C430 C429 1.387 . S
C430 C433 1.387 . S
H431 C427 0.950 . S
H432 C429 0.950 . S
C433 C424 1.390 . S
C433 H426 0.950 . S
C433 C430 1.387 . S
C434 C435 1.387 . S
C434 H438 0.950 . S
C434 C443 1.390 . S
C435 C434 1.387 . S
C435 C437 1.387 . S
H436 C443 0.950 . S
C437 C435 1.387 . S
C437 C439 1.390 . S
C437 H441 0.950 . S
H438 C434 0.950 . S
C439 C437 1.390 . S
C439 C440 1.387 . S
C439 H442 0.950 . S
C440 C439 1.387 . S
C440 C443 1.387 . S
H441 C437 0.950 . S
H442 C439 0.950 . S
C443 C434 1.390 . S
C443 H436 0.950 . S
C443 C440 1.387 . S
C444 C445 1.387 . S
C444 H448 0.950 . S
C444 C453 1.390 . S
C445 C444 1.387 . S
C445 C447 1.387 . S
H446 C453 0.950 . S
C447 C445 1.387 . S
C447 C449 1.390 . S
C447 H451 0.950 . S
H448 C444 0.950 . S
C449 C447 1.390 . S
C449 C450 1.387 . S
C449 H452 0.950 . S
C450 C449 1.387 . S
C450 C453 1.387 . S
H451 C447 0.950 . S
H452 C449 0.950 . S
C453 C444 1.390 . S
C453 H446 0.950 . S
C453 C450 1.387 . S
C454 C455 1.387 . S
C454 H458 0.950 . S
C454 C463 1.390 . S
C455 C454 1.387 . S
C455 C457 1.387 . S
H456 C463 0.950 . S
C457 C455 1.387 . S
C457 C459 1.390 . S
C457 H461 0.950 . S
H458 C454 0.950 . S
C459 C457 1.390 . S
C459 C460 1.387 . S
C459 H462 0.950 . S
C460 C459 1.387 . S
C460 C463 1.387 . S
H461 C457 0.950 . S
H462 C459 0.950 . S
C463 C454 1.390 . S
C463 H456 0.950 . S
C463 C460 1.387 . S
C464 C465 1.387 . S
C464 H468 0.950 . S
C464 C473 1.390 . S
C465 C464 1.387 . S
C465 C467 1.387 . S
H466 C473 0.950 . S
C467 C465 1.387 . S
C467 C469 1.390 . S
C467 H471 0.950 . S
H468 C464 0.950 . S
C469 C467 1.390 . S
C469 C470 1.387 . S
C469 H472 0.950 . S
C470 C469 1.387 . S
C470 C473 1.387 . S
H471 C467 0.950 . S
H472 C469 0.950 . S
C473 C464 1.390 . S
C473 H466 0.950 . S
C473 C470 1.387 . S
C474 C475 1.387 . S
C474 H478 0.950 . S
C474 C483 1.390 . S
C475 C474 1.387 . S
C475 C477 1.387 . S
H476 C483 0.950 . S
C477 C475 1.387 . S
C477 C479 1.390 . S
C477 H481 0.950 . S
H478 C474 0.950 . S
C479 C477 1.390 . S
C479 C480 1.387 . S
C479 H482 0.950 . S
C480 C479 1.387 . S
C480 C483 1.387 . S
H481 C477 0.950 . S
H482 C479 0.950 . S
C483 C474 1.390 . S
C483 H476 0.950 . S
C483 C480 1.387 . S
C484 C485 1.387 . S
C484 H488 0.950 . S
C484 C493 1.390 . S
C485 C484 1.387 . S
C485 C487 1.387 . S
H486 C493 0.950 . S
C487 C485 1.387 . S
C487 C489 1.390 . S
C487 H491 0.950 . S
H488 C484 0.950 . S
C489 C487 1.390 . S
C489 C490 1.387 . S
C489 H492 0.950 . S
C490 C489 1.387 . S
C490 C493 1.387 . S
H491 C487 0.950 . S
H492 C489 0.950 . S
C493 C484 1.390 . S
C493 H486 0.950 . S
C493 C490 1.387 . S
C494 C495 1.387 . S
C494 H498 0.950 . S
C494 C503 1.390 . S
C495 C494 1.387 . S
C495 C497 1.387 . S
H496 C503 0.950 . S
C497 C495 1.387 . S
C497 C499 1.390 . S
C497 H501 0.950 . S
H498 C494 0.950 . S
C499 C497 1.390 . S
C499 C500 1.387 . S
C499 H502 0.950 . S
C500 C499 1.387 . S
C500 C503 1.387 . S
H501 C497 0.950 . S
H502 C499 0.950 . S
C503 C494 1.390 . S
C503 H496 0.950 . S
C503 C500 1.387 . S
C504 C505 1.387 . S
C504 H508 0.950 . S
C504 C513 1.390 . S
C505 C504 1.387 . S
C505 C507 1.387 . S
H506 C513 0.950 . S
C507 C505 1.387 . S
C507 C509 1.390 . S
C507 H511 0.950 . S
H508 C504 0.950 . S
C509 C507 1.390 . S
C509 C510 1.387 . S
C509 H512 0.950 . S
C510 C509 1.387 . S
C510 C513 1.387 . S
H511 C507 0.950 . S
H512 C509 0.950 . S
C513 C504 1.390 . S
C513 H506 0.950 . S
C513 C510 1.387 . S
C514 C515 1.387 . S
C514 H518 0.950 . S
C514 C523 1.390 . S
C515 C514 1.387 . S
C515 C517 1.387 . S
H516 C523 0.950 . S
C517 C515 1.387 . S
C517 C519 1.390 . S
C517 H521 0.950 . S
H518 C514 0.950 . S
C519 C517 1.390 . S
C519 C520 1.387 . S
C519 H522 0.950 . S
C520 C519 1.387 . S
C520 C523 1.387 . S
H521 C517 0.950 . S
H522 C519 0.950 . S
C523 C514 1.390 . S
C523 H516 0.950 . S
C523 C520 1.387 . S
C524 C525 1.387 . S
C524 H528 0.950 . S
C524 C533 1.390 . S
C525 C524 1.387 . S
C525 C527 1.387 . S
H526 C533 0.950 . S
C527 C525 1.387 . S
C527 C529 1.390 . S
C527 H531 0.950 . S
H528 C524 0.950 . S
C529 C527 1.390 . S
C529 C530 1.387 . S
C529 H532 0.950 . S
C530 C529 1.387 . S
C530 C533 1.387 . S
H531 C527 0.950 . S
H532 C529 0.950 . S
C533 C524 1.390 . S
C533 H526 0.950 . S
C533 C530 1.387 . S
C534 C535 1.387 . S
C534 H538 0.950 . S
C534 C543 1.390 . S
C535 C534 1.387 . S
C535 C537 1.387 . S
H536 C543 0.950 . S
C537 C535 1.387 . S
C537 C539 1.390 . S
C537 H541 0.950 . S
H538 C534 0.950 . S
C539 C537 1.390 . S
C539 C540 1.387 . S
C539 H542 0.950 . S
C540 C539 1.387 . S
C540 C543 1.387 . S
H541 C537 0.950 . S
H542 C539 0.950 . S
C543 C534 1.390 . S
C543 H536 0.950 . S
C543 C540 1.387 . S
C225 C67 1.325 1_556 S
C230 C11 1.326 1_554 S
C235 C81 1.324 1_556 S
C240 C25 1.325 1_554 S
C245 C95 1.325 1_556 S
C250 C39 1.326 1_554 S
C255 C109 1.324 1_556 S
C260 C53 1.325 1_554 S
C265 C179 1.325 . S
C270 C123 1.325 . S
C275 C193 1.325 . S
C280 C137 1.325 . S
C285 C151 1.325 . S
C290 C207 1.325 . S
C295 C221 1.326 . S
C300 C165 1.326 . S
C305 C8 1.246 1_556 S
C310 C78 1.249 1_554 S
C315 C92 1.250 1_554 S
C320 C22 1.246 1_556 S
C325 C36 1.246 1_556 S
C330 C106 1.249 1_554 S
C335 C64 1.249 1_554 S
C340 C50 1.246 1_556 S
C345 C190 1.249 . S
C350 C120 1.245 . S
C355 C204 1.250 . S
C360 C134 1.246 . S
C365 C148 1.249 . S
C370 C218 1.246 . S
C375 C162 1.249 . S
C380 C176 1.245 . S
C385 C223 1.353 . S
C390 C13 1.350 . S
C395 C181 1.350 . S
C400 C27 1.348 . S
C405 C195 1.348 . S
C410 C41 1.350 . S
C415 C209 1.351 . S
C420 C55 1.349 . S
C425 C139 1.353 . S
C430 C69 1.350 . S
C435 C153 1.351 . S
C440 C83 1.349 . S
C445 C97 1.352 . S
C450 C167 1.349 . S
C455 C111 1.353 . S
C460 C125 1.350 . S
C465 C189 1.530 . S
C470 C35 1.530 . S
C475 C203 1.530 . S
C480 C49 1.531 . S
C485 C217 1.531 . S
C490 C7 1.530 . S
C495 C21 1.530 . S
C500 C175 1.531 . S
C505 C161 1.530 . S
C510 C91 1.531 . S
C515 C105 1.530 . S
C520 C119 1.531 . S
C525 C133 1.530 . S
C530 C63 1.531 . S
C535 C147 1.531 . S
C540 C77 1.531 . S
