# Generated by pormake.
# Topology unv, (4)-cn, num edge types: 1
# Building blocks:
#     Node 0, Type 0, BuildingBlock: QUQFOY_clean_sbu_1, # of connection points: 4
#     Node 1, Type 0, BuildingBlock: QUQFOY_clean_sbu_1, # of connection points: 4
#     Node 2, Type 0, BuildingBlock: QUQFOY_clean_sbu_1, # of connection points: 4
#     Node 3, Type 0, BuildingBlock: QUQFOY_clean_sbu_1, # of connection points: 4
#     Node 4, Type 0, BuildingBlock: QUQFOY_clean_sbu_1, # of connection points: 4
#     Node 5, Type 0, BuildingBlock: QUQFOY_clean_sbu_1, # of connection points: 4
#     Node 6, Type 0, BuildingBlock: QUQFOY_clean_sbu_1, # of connection points: 4
#     Node 7, Type 0, BuildingBlock: QUQFOY_clean_sbu_1, # of connection points: 4
#     Node 8, Type 0, BuildingBlock: QUQFOY_clean_sbu_1, # of connection points: 4
#     Node 9, Type 0, BuildingBlock: QUQFOY_clean_sbu_1, # of connection points: 4
#     Node 10, Type 0, BuildingBlock: QUQFOY_clean_sbu_1, # of connection points: 4
#     Node 11, Type 0, BuildingBlock: QUQFOY_clean_sbu_1, # of connection points: 4
#     Node 12, Type 0, BuildingBlock: QUQFOY_clean_sbu_1, # of connection points: 4
#     Node 13, Type 0, BuildingBlock: QUQFOY_clean_sbu_1, # of connection points: 4
#     Node 14, Type 0, BuildingBlock: QUQFOY_clean_sbu_1, # of connection points: 4
#     Node 15, Type 0, BuildingBlock: QUQFOY_clean_sbu_1, # of connection points: 4
#     Node 16, Type 0, BuildingBlock: QUQFOY_clean_sbu_1, # of connection points: 4
#     Node 17, Type 0, BuildingBlock: QUQFOY_clean_sbu_1, # of connection points: 4
#     Node 18, Type 0, BuildingBlock: QUQFOY_clean_sbu_1, # of connection points: 4
#     Node 19, Type 0, BuildingBlock: QUQFOY_clean_sbu_1, # of connection points: 4
#     Node 20, Type 0, BuildingBlock: QUQFOY_clean_sbu_1, # of connection points: 4
#     Node 21, Type 0, BuildingBlock: QUQFOY_clean_sbu_1, # of connection points: 4
#     Node 22, Type 0, BuildingBlock: QUQFOY_clean_sbu_1, # of connection points: 4
#     Node 23, Type 0, BuildingBlock: QUQFOY_clean_sbu_1, # of connection points: 4
#     Edge 24, Type (0, 0), BuildingBlock: ZUJKAS_clean_linker_0, # of connection points: 2
#     Edge 25, Type (0, 0), BuildingBlock: ZUJKAS_clean_linker_0, # of connection points: 2
#     Edge 26, Type (0, 0), BuildingBlock: ZUJKAS_clean_linker_0, # of connection points: 2
#     Edge 27, Type (0, 0), BuildingBlock: ZUJKAS_clean_linker_0, # of connection points: 2
#     Edge 28, Type (0, 0), BuildingBlock: ZUJKAS_clean_linker_0, # of connection points: 2
#     Edge 29, Type (0, 0), BuildingBlock: ZUJKAS_clean_linker_0, # of connection points: 2
#     Edge 30, Type (0, 0), BuildingBlock: ZUJKAS_clean_linker_0, # of connection points: 2
#     Edge 31, Type (0, 0), BuildingBlock: ZUJKAS_clean_linker_0, # of connection points: 2
#     Edge 32, Type (0, 0), BuildingBlock: ZUJKAS_clean_linker_0, # of connection points: 2
#     Edge 33, Type (0, 0), BuildingBlock: ZUJKAS_clean_linker_0, # of connection points: 2
#     Edge 34, Type (0, 0), BuildingBlock: ZUJKAS_clean_linker_0, # of connection points: 2
#     Edge 35, Type (0, 0), BuildingBlock: ZUJKAS_clean_linker_0, # of connection points: 2
#     Edge 36, Type (0, 0), BuildingBlock: ZUJKAS_clean_linker_0, # of connection points: 2
#     Edge 37, Type (0, 0), BuildingBlock: ZUJKAS_clean_linker_0, # of connection points: 2
#     Edge 38, Type (0, 0), BuildingBlock: ZUJKAS_clean_linker_0, # of connection points: 2
#     Edge 39, Type (0, 0), BuildingBlock: ZUJKAS_clean_linker_0, # of connection points: 2
#     Edge 40, Type (0, 0), BuildingBlock: ZUJKAS_clean_linker_0, # of connection points: 2
#     Edge 41, Type (0, 0), BuildingBlock: ZUJKAS_clean_linker_0, # of connection points: 2
#     Edge 42, Type (0, 0), BuildingBlock: ZUJKAS_clean_linker_0, # of connection points: 2
#     Edge 43, Type (0, 0), BuildingBlock: ZUJKAS_clean_linker_0, # of connection points: 2
#     Edge 44, Type (0, 0), BuildingBlock: ZUJKAS_clean_linker_0, # of connection points: 2
#     Edge 45, Type (0, 0), BuildingBlock: ZUJKAS_clean_linker_0, # of connection points: 2
#     Edge 46, Type (0, 0), BuildingBlock: ZUJKAS_clean_linker_0, # of connection points: 2
#     Edge 47, Type (0, 0), BuildingBlock: ZUJKAS_clean_linker_0, # of connection points: 2
#     Edge 48, Type (0, 0), BuildingBlock: ZUJKAS_clean_linker_0, # of connection points: 2
#     Edge 49, Type (0, 0), BuildingBlock: ZUJKAS_clean_linker_0, # of connection points: 2
#     Edge 50, Type (0, 0), BuildingBlock: ZUJKAS_clean_linker_0, # of connection points: 2
#     Edge 51, Type (0, 0), BuildingBlock: ZUJKAS_clean_linker_0, # of connection points: 2
#     Edge 52, Type (0, 0), BuildingBlock: ZUJKAS_clean_linker_0, # of connection points: 2
#     Edge 53, Type (0, 0), BuildingBlock: ZUJKAS_clean_linker_0, # of connection points: 2
#     Edge 54, Type (0, 0), BuildingBlock: ZUJKAS_clean_linker_0, # of connection points: 2
#     Edge 55, Type (0, 0), BuildingBlock: ZUJKAS_clean_linker_0, # of connection points: 2
#     Edge 56, Type (0, 0), BuildingBlock: ZUJKAS_clean_linker_0, # of connection points: 2
#     Edge 57, Type (0, 0), BuildingBlock: ZUJKAS_clean_linker_0, # of connection points: 2
#     Edge 58, Type (0, 0), BuildingBlock: ZUJKAS_clean_linker_0, # of connection points: 2
#     Edge 59, Type (0, 0), BuildingBlock: ZUJKAS_clean_linker_0, # of connection points: 2
#     Edge 60, Type (0, 0), BuildingBlock: ZUJKAS_clean_linker_0, # of connection points: 2
#     Edge 61, Type (0, 0), BuildingBlock: ZUJKAS_clean_linker_0, # of connection points: 2
#     Edge 62, Type (0, 0), BuildingBlock: ZUJKAS_clean_linker_0, # of connection points: 2
#     Edge 63, Type (0, 0), BuildingBlock: ZUJKAS_clean_linker_0, # of connection points: 2
#     Edge 64, Type (0, 0), BuildingBlock: ZUJKAS_clean_linker_0, # of connection points: 2
#     Edge 65, Type (0, 0), BuildingBlock: ZUJKAS_clean_linker_0, # of connection points: 2
#     Edge 66, Type (0, 0), BuildingBlock: ZUJKAS_clean_linker_0, # of connection points: 2
#     Edge 67, Type (0, 0), BuildingBlock: ZUJKAS_clean_linker_0, # of connection points: 2
#     Edge 68, Type (0, 0), BuildingBlock: ZUJKAS_clean_linker_0, # of connection points: 2
#     Edge 69, Type (0, 0), BuildingBlock: ZUJKAS_clean_linker_0, # of connection points: 2
#     Edge 70, Type (0, 0), BuildingBlock: ZUJKAS_clean_linker_0, # of connection points: 2
#     Edge 71, Type (0, 0), BuildingBlock: ZUJKAS_clean_linker_0, # of connection points: 2
# Relax obj value: 0.143
# Max RMSD: 0.146
# Mean RMSD: 0.119
data_MOF--net-unv--node1-QUQFOY_clean_sbu_1--edge1-ZUJKAS_clean_linker_0
_symmetry_space_group_name_H-M    P1
_symmetry_Int_Tables_number       1
_symmetry_cell_setting            triclinic
loop_
_symmetry_equiv_pos_as_xyz
'x, y, z'
_cell_length_a     66.239995
_cell_length_b     66.210402
_cell_length_c     66.259056
_cell_angle_alpha  89.972573
_cell_angle_beta   89.976371
_cell_angle_gamma 89.971335
loop_
_atom_site_label
_atom_site_type_symbol
_atom_site_fract_x
_atom_site_fract_y
_atom_site_fract_z
_atom_type_partial_charge
O0 O 0.02271 0.10883 0.4168 0.0
Cd1 Cd 1.00005 0.10975 0.3955 0.0
Cd2 Cd 0.02287 0.07846 0.37904 0.0
O3 O 0.04303 0.08774 0.40093 0.0
O4 O 0.98719 0.13663 0.39913 0.0
O5 O 0.00348 0.12789 0.37131 0.0
C6 C 0.99384 0.14149 0.38149 0.0
C7 C 0.03525 0.06472 0.34889 0.0
C8 C 0.03941 0.09943 0.41572 0.0
C9 C 0.98045 0.06958 0.39489 0.0
O10 O 0.99736 0.06335 0.38834 0.0
O11 O 0.97753 0.08829 0.398 0.0
O12 O 0.0378 0.05586 0.36597 0.0
O13 O 0.02657 0.08219 0.34894 0.0
O14 O 0.96364 0.38809 0.4065 0.0
Cd15 Cd 0.98625 0.38643 0.38518 0.0
Cd16 Cd 0.96477 0.42066 0.37056 0.0
O17 O 0.94439 0.41129 0.39228 0.0
O18 O 0.99872 0.35966 0.39081 0.0
O19 O 0.98326 0.36666 0.36211 0.0
C20 C 0.99247 0.35368 0.3734 0.0
C21 C 0.95312 0.43618 0.341 0.0
C22 C 0.94756 0.39855 0.40631 0.0
C23 C 0.00783 0.42594 0.386 0.0
O24 O 0.99119 0.43369 0.38041 0.0
O25 O 0.00965 0.40691 0.38779 0.0
O26 O 0.95056 0.44432 0.35842 0.0
O27 O 0.96141 0.41854 0.34029 0.0
O28 O 0.01573 0.89703 0.10553 0.0
Cd29 Cd 0.99352 0.8949 0.12722 0.0
Cd30 Cd 0.01563 0.9263 0.14432 0.0
O31 O 0.03582 0.91769 0.12217 0.0
O32 O 0.98173 0.86756 0.12352 0.0
O33 O 0.9982 0.87666 0.15111 0.0
C34 C 0.98901 0.86278 0.14093 0.0
C35 C 0.0287 0.94034 0.17407 0.0
C36 C 0.03231 0.90655 0.10695 0.0
C37 C 0.97285 0.93443 0.12876 0.0
O38 O 0.98965 0.94091 0.13534 0.0
O39 O 0.97033 0.91569 0.12544 0.0
O40 O 0.0303 0.94931 0.15694 0.0
O41 O 0.02034 0.92273 0.17433 0.0
O42 O 0.97456 0.61848 0.10897 0.0
Cd43 Cd 0.99567 0.619 0.13176 0.0
Cd44 Cd 0.97113 0.58801 0.1463 0.0
O45 O 0.95245 0.59816 0.12338 0.0
O46 O 0.00912 0.64564 0.12852 0.0
O47 O 0.99082 0.63767 0.1553 0.0
C48 C 0.00116 0.65099 0.14546 0.0
C49 C 0.9574 0.57451 0.17594 0.0
C50 C 0.95751 0.60971 0.10888 0.0
C51 C 0.01427 0.57841 0.13307 0.0
O52 O 0.99675 0.57244 0.13811 0.0
O53 O 0.0179 0.59711 0.1307 0.0
O54 O 0.95465 0.56604 0.1587 0.0
O55 O 0.96698 0.59149 0.17634 0.0
O56 O 0.4154 0.02229 0.10577 0.0
Cd57 Cd 0.39399 0.99972 0.10587 0.0
Cd58 Cd 0.37691 0.02328 0.07608 0.0
O59 O 0.39902 0.04311 0.0856 0.0
O60 O 0.39629 0.98619 0.13253 0.0
O61 O 0.36921 0.00336 0.12303 0.0
C62 C 0.3786 0.99315 0.13678 0.0
C63 C 0.34642 0.03612 0.0637 0.0
C64 C 0.41405 0.03925 0.09689 0.0
C65 C 0.39277 0.9814 0.06521 0.0
O66 O 0.38589 0.99845 0.05971 0.0
O67 O 0.39645 0.97792 0.08371 0.0
O68 O 0.36329 0.03949 0.05472 0.0
O69 O 0.34683 0.02625 0.0805 0.0
O70 O 0.58493 0.49349 0.10607 0.0
Cd71 Cd 0.60507 0.51686 0.10916 0.0
Cd72 Cd 0.62377 0.49723 0.07589 0.0
O73 O 0.60148 0.47638 0.08275 0.0
O74 O 0.60083 0.52711 0.13703 0.0
O75 O 0.62929 0.51272 0.12704 0.0
C76 C 0.61866 0.5206 0.1414 0.0
C77 C 0.65313 0.485 0.06024 0.0
C78 C 0.58661 0.47809 0.09478 0.0
C79 C 0.60693 0.54015 0.07102 0.0
O80 O 0.61526 0.52456 0.06362 0.0
O81 O 0.60165 0.54078 0.08944 0.0
O82 O 0.63584 0.48446 0.05148 0.0
O83 O 0.65379 0.49176 0.0785 0.0
O84 O 0.40239 0.9608 0.38138 0.0
Cd85 Cd 0.38286 0.98479 0.37918 0.0
Cd86 Cd 0.36669 0.96583 0.41548 0.0
O87 O 0.389 0.94525 0.40769 0.0
O88 O 0.38865 0.99596 0.35192 0.0
O89 O 0.35905 0.98301 0.3602 0.0
C90 C 0.37058 0.99105 0.34668 0.0
C91 C 0.33879 0.95376 0.43379 0.0
C92 C 0.40229 0.94622 0.39384 0.0
C93 C 0.38363 0.00891 0.41725 0.0
O94 O 0.37547 0.99384 0.42583 0.0
O95 O 0.38798 0.00859 0.39859 0.0
O96 O 0.3567 0.95382 0.44124 0.0
O97 O 0.33666 0.95976 0.41537 0.0
O98 O 0.59254 0.52154 0.38974 0.0
Cd99 Cd 0.61406 0.49935 0.38576 0.0
Cd100 Cd 0.62982 0.51858 0.42214 0.0
O101 O 0.60588 0.53751 0.41583 0.0
O102 O 0.60868 0.4894 0.35795 0.0
O103 O 0.63695 0.50496 0.36641 0.0
C104 C 0.62586 0.4968 0.3526 0.0
C105 C 0.6572 0.53205 0.44021 0.0
C106 C 0.59215 0.53581 0.40255 0.0
C107 C 0.61698 0.47398 0.42302 0.0
O108 O 0.62333 0.48983 0.43172 0.0
O109 O 0.61274 0.47414 0.40431 0.0
O110 O 0.63955 0.53036 0.44808 0.0
O111 O 0.65929 0.52691 0.42154 0.0
O112 O 0.10422 0.41216 0.01812 0.0
Cd113 Cd 0.10619 0.39011 0.99626 0.0
Cd114 Cd 0.07559 0.37282 0.01895 0.0
O115 O 0.08518 0.39463 0.03908 0.0
O116 O 0.13302 0.3936 0.98327 0.0
O117 O 0.12486 0.36666 0.00133 0.0
C118 C 0.13823 0.37653 0.99108 0.0
C119 C 0.06203 0.34281 0.03191 0.0
C120 C 0.09558 0.41029 0.03514 0.0
C121 C 0.06617 0.38841 0.97667 0.0
O122 O 0.05995 0.38229 0.99375 0.0
O123 O 0.08488 0.39125 0.9736 0.0
O124 O 0.05344 0.35997 0.03478 0.0
O125 O 0.07901 0.3426 0.02234 0.0
O126 O 0.10468 0.58701 0.50054 0.0
Cd127 Cd 0.10712 0.60983 0.52146 0.0
Cd128 Cd 0.07671 0.62732 0.49819 0.0
O129 O 0.0845 0.60337 0.47967 0.0
O130 O 0.13465 0.60825 0.53329 0.0
O131 O 0.12441 0.63359 0.51394 0.0
C132 C 0.13871 0.62493 0.52404 0.0
C133 C 0.06266 0.65631 0.48336 0.0
C134 C 0.09511 0.58793 0.48395 0.0
C135 C 0.06782 0.61441 0.54179 0.0
O136 O 0.06192 0.62085 0.52474 0.0
O137 O 0.08619 0.60966 0.54458 0.0
O138 O 0.05371 0.63911 0.48277 0.0
O139 O 0.08037 0.65698 0.49144 0.0
O140 O 0.89364 0.89671 0.50196 0.0
Cd141 Cd 0.89106 0.87289 0.52175 0.0
Cd142 Cd 0.92135 0.8569 0.49758 0.0
O143 O 0.91356 0.88154 0.47996 0.0
O144 O 0.86339 0.87443 0.5333 0.0
O145 O 0.87349 0.8497 0.51316 0.0
C146 C 0.85914 0.85827 0.52327 0.0
C147 C 0.93481 0.828 0.48213 0.0
C148 C 0.90301 0.89672 0.48521 0.0
C149 C 0.93039 0.86776 0.54169 0.0
O150 O 0.93626 0.86245 0.52423 0.0
O151 O 0.91194 0.87193 0.54491 0.0
O152 O 0.94404 0.84507 0.48174 0.0
O153 O 0.9171 0.8275 0.49026 0.0
O154 O 0.38881 0.60317 0.51674 0.0
Cd155 Cd 0.3838 0.62507 0.49537 0.0
Cd156 Cd 0.42092 0.64094 0.51343 0.0
O157 O 0.41505 0.61663 0.53234 0.0
O158 O 0.3559 0.61945 0.48573 0.0
O159 O 0.36405 0.64733 0.50215 0.0
C160 C 0.35034 0.63625 0.49381 0.0
C161 C 0.43963 0.66802 0.52683 0.0
C162 C 0.40195 0.60266 0.53068 0.0
C163 C 0.42011 0.6281 0.46885 0.0
O164 O 0.42949 0.63482 0.48415 0.0
O165 O 0.40154 0.62344 0.46981 0.0
O166 O 0.44736 0.65038 0.52442 0.0
O167 O 0.4208 0.67028 0.5224 0.0
O168 O 0.51352 0.61276 0.88724 0.0
Cd169 Cd 0.49199 0.61577 0.86506 0.0
Cd170 Cd 0.51313 0.58138 0.84938 0.0
O171 O 0.53162 0.58823 0.87361 0.0
O172 O 0.48151 0.6437 0.86877 0.0
O173 O 0.49834 0.63407 0.84159 0.0
C174 C 0.4897 0.64834 0.85173 0.0
C175 C 0.52704 0.56516 0.8211 0.0
C176 C 0.52862 0.60095 0.88769 0.0
C177 C 0.46871 0.57747 0.86204 0.0
O178 O 0.48513 0.56978 0.8558 0.0
O179 O 0.4676 0.59617 0.86631 0.0
O180 O 0.52692 0.55681 0.83861 0.0
O181 O 0.52019 0.58336 0.81965 0.0
O182 O 0.5041 0.89114 0.89569 0.0
Cd183 Cd 0.52508 0.8882 0.87296 0.0
Cd184 Cd 0.50205 0.91739 0.85518 0.0
O185 O 0.48242 0.90918 0.87801 0.0
O186 O 0.53585 0.86023 0.8747 0.0
O187 O 0.51752 0.87129 0.84898 0.0
C188 C 0.52674 0.85653 0.85787 0.0
C189 C 0.48875 0.93016 0.82498 0.0
C190 C 0.48697 0.89962 0.89403 0.0
C191 C 0.54489 0.92759 0.86927 0.0
O192 O 0.52759 0.93322 0.86319 0.0
O193 O 0.54827 0.90907 0.87303 0.0
O194 O 0.48655 0.93945 0.84186 0.0
O195 O 0.49761 0.91279 0.82528 0.0
O196 O 0.51401 0.38476 0.58969 0.0
Cd197 Cd 0.4943 0.38455 0.61374 0.0
Cd198 Cd 0.52056 0.41282 0.62719 0.0
O199 O 0.53883 0.40089 0.60485 0.0
O200 O 0.48034 0.35802 0.61198 0.0
O201 O 0.5011 0.3661 0.63687 0.0
C202 C 0.48995 0.35271 0.62806 0.0
C203 C 0.53318 0.42491 0.65779 0.0
C204 C 0.53211 0.39111 0.58975 0.0
C205 C 0.47843 0.42594 0.61504 0.0
O206 O 0.49679 0.43055 0.61802 0.0
O207 O 0.47306 0.4075 0.61461 0.0
O208 O 0.5381 0.43309 0.64087 0.0
O209 O 0.52232 0.40872 0.65732 0.0
O210 O 0.49502 0.10431 0.58423 0.0
Cd211 Cd 0.51801 0.11014 0.60437 0.0
Cd212 Cd 0.50232 0.07458 0.62348 0.0
O213 O 0.4824 0.07758 0.59974 0.0
O214 O 0.52551 0.13887 0.59966 0.0
O215 O 0.51228 0.12799 0.62834 0.0
C216 C 0.51883 0.14286 0.61751 0.0
C217 C 0.49029 0.05744 0.65216 0.0
C218 C 0.48213 0.09014 0.58523 0.0
C219 C 0.54581 0.07478 0.60765 0.0
O220 O 0.53127 0.066 0.61652 0.0
O221 O 0.54401 0.09288 0.60146 0.0
O222 O 0.49237 0.04861 0.63503 0.0
O223 O 0.49442 0.07646 0.65306 0.0
O224 O 0.88982 0.50753 0.61768 0.0
Cd225 Cd 0.86508 0.48886 0.62015 0.0
Cd226 Cd 0.85031 0.514 0.59074 0.0
O227 O 0.87423 0.53149 0.60059 0.0
O228 O 0.86623 0.47678 0.6476 0.0
O229 O 0.84261 0.49852 0.63808 0.0
C230 C 0.85075 0.48773 0.65218 0.0
C231 C 0.8217 0.52971 0.57703 0.0
C232 C 0.88968 0.52516 0.61008 0.0
C233 C 0.86031 0.47013 0.58035 0.0
O234 O 0.85675 0.48812 0.57471 0.0
O235 O 0.86265 0.46612 0.59896 0.0
O236 O 0.83911 0.53095 0.56854 0.0
O237 O 0.82064 0.52057 0.59421 0.0
O238 O 0.10809 0.97451 0.61755 0.0
Cd239 Cd 0.13129 0.99517 0.61952 0.0
Cd240 Cd 0.14588 0.97219 0.58717 0.0
O241 O 0.12294 0.95326 0.59664 0.0
O242 O 0.12825 0.00737 0.64675 0.0
O243 O 0.15477 0.98909 0.63788 0.0
C244 C 0.14519 0.9991 0.65162 0.0
C245 C 0.1745 0.95798 0.57184 0.0
C246 C 0.10821 0.95783 0.60809 0.0
C247 C 0.13317 0.01611 0.58017 0.0
O248 O 0.13794 0.99887 0.5732 0.0
O249 O 0.13095 0.01865 0.59904 0.0
O250 O 0.15695 0.95708 0.56361 0.0
O251 O 0.17578 0.96611 0.5895 0.0
O252 O 0.89647 0.50286 0.89503 0.0
Cd253 Cd 0.87275 0.52295 0.89348 0.0
Cd254 Cd 0.8575 0.49911 0.92339 0.0
O255 O 0.88113 0.48072 0.91461 0.0
O256 O 0.87339 0.53499 0.866 0.0
O257 O 0.84903 0.51461 0.87654 0.0
C258 C 0.8571 0.52502 0.86212 0.0
C259 C 0.8276 0.48472 0.93554 0.0
C260 C 0.89622 0.48583 0.90389 0.0
C261 C 0.86937 0.54246 0.93331 0.0
O262 O 0.86445 0.5249 0.93924 0.0
O263 O 0.87236 0.54589 0.91467 0.0
O264 O 0.84441 0.48292 0.94508 0.0
O265 O 0.82789 0.49374 0.91826 0.0
O266 O 0.10613 0.01796 0.89415 0.0
Cd267 Cd 0.12757 0.99548 0.89306 0.0
Cd268 Cd 0.14621 0.01913 0.92183 0.0
O269 O 0.12396 0.03906 0.91269 0.0
O270 O 0.1246 0.98235 0.86629 0.0
O271 O 0.15185 0.9995 0.87532 0.0
C272 C 0.14211 0.98953 0.86165 0.0
C273 C 0.17658 0.03249 0.93403 0.0
C274 C 0.1082 0.03511 0.90248 0.0
C275 C 0.13027 0.97738 0.93359 0.0
O276 O 0.13753 0.99441 0.93861 0.0
O277 O 0.12586 0.97372 0.91529 0.0
O278 O 0.1597 0.0356 0.94306 0.0
O279 O 0.17628 0.02249 0.91732 0.0
O280 O 0.61788 0.89774 0.50505 0.0
Cd281 Cd 0.61771 0.87114 0.48883 0.0
Cd282 Cd 0.58912 0.86182 0.51602 0.0
O283 O 0.60131 0.88607 0.53145 0.0
O284 O 0.64444 0.8695 0.47525 0.0
O285 O 0.63505 0.84874 0.49975 0.0
C286 C 0.64889 0.85498 0.48747 0.0
C287 C 0.57655 0.83294 0.53193 0.0
C288 C 0.61142 0.90005 0.52298 0.0
C289 C 0.57664 0.86846 0.47259 0.0
O290 O 0.57178 0.86823 0.49113 0.0
O291 O 0.59513 0.86769 0.46749 0.0
O292 O 0.56833 0.85037 0.53452 0.0
O293 O 0.59312 0.83214 0.52167 0.0
O294 O 0.61541 0.10826 0.97364 0.0
Cd295 Cd 0.61679 0.13253 0.99307 0.0
Cd296 Cd 0.58321 0.14442 0.96954 0.0
O297 O 0.59293 0.12032 0.95218 0.0
O298 O 0.64369 0.12991 0.00617 0.0
O299 O 0.63581 0.15526 0.9859 0.0
C300 C 0.64912 0.14611 0.99685 0.0
C301 C 0.56758 0.17221 0.95409 0.0
C302 C 0.6054 0.10664 0.95736 0.0
C303 C 0.57728 0.13461 0.01422 0.0
O304 O 0.56986 0.13807 0.99688 0.0
O305 O 0.59625 0.13302 0.01655 0.0
O306 O 0.5594 0.15459 0.95415 0.0
O307 O 0.58539 0.17393 0.96182 0.0
O308 O 0.38637 0.40425 0.97035 0.0
Cd309 Cd 0.38447 0.38059 0.99055 0.0
Cd310 Cd 0.41606 0.36623 0.9663 0.0
O311 O 0.40558 0.38906 0.94776 0.0
O312 O 0.35818 0.38439 0.00454 0.0
O313 O 0.36453 0.35837 0.98456 0.0
C314 C 0.35196 0.36813 0.99586 0.0
C315 C 0.43133 0.33761 0.95201 0.0
C316 C 0.39484 0.40406 0.95314 0.0
C317 C 0.42462 0.37852 0.00985 0.0
O318 O 0.43104 0.37458 0.99222 0.0
O319 O 0.4058 0.37991 0.01322 0.0
O320 O 0.43918 0.35529 0.95038 0.0
O321 O 0.41397 0.3362 0.96076 0.0
O322 O 0.89281 0.10383 0.01507 0.0
Cd323 Cd 0.89325 0.12689 0.99419 0.0
Cd324 Cd 0.92137 0.1425 0.02006 0.0
O325 O 0.91066 0.11953 0.03835 0.0
O326 O 0.86735 0.12527 0.97914 0.0
O327 O 0.87511 0.15069 0.99945 0.0
C328 C 0.86216 0.14197 0.98774 0.0
C329 C 0.93219 0.17305 0.03401 0.0
C330 C 0.90023 0.10441 0.03275 0.0
C331 C 0.93481 0.12922 0.97822 0.0
O332 O 0.9394 0.13453 0.99605 0.0
O333 O 0.91648 0.12636 0.97336 0.0
O334 O 0.94125 0.15631 0.03789 0.0
O335 O 0.91603 0.17239 0.02313 0.0
H336 H 0.11612 0.05319 0.58805 0.0
H337 H 0.10446 0.07806 0.56317 0.0
H338 H 0.12811 0.04106 0.51511 0.0
H339 H 0.14006 0.01647 0.53965 0.0
H340 H 0.13353 0.08307 0.5087 0.0
H341 H 0.05439 0.0633 0.52961 0.0
H342 H 0.07045 0.07266 0.54936 0.0
H343 H 0.07565 0.04855 0.5381 0.0
C344 C 0.11916 0.05056 0.5722 0.0
C345 C 0.12872 0.03268 0.56581 0.0
C346 C 0.11242 0.06474 0.55802 0.0
C347 C 0.11512 0.0612 0.5373 0.0
C348 C 0.12582 0.04405 0.53102 0.0
H349 H 0.07509 0.07906 0.41995 0.0
H350 H 0.09525 0.0757 0.4505 0.0
C351 C 0.13254 0.02994 0.54511 0.0
C352 C 0.10521 0.07397 0.52184 0.0
H353 H 0.05909 0.08288 0.50077 0.0
C354 C 0.11723 0.0834 0.50715 0.0
C355 C 0.08395 0.07442 0.51989 0.0
C356 C 0.07027 0.06412 0.53496 0.0
C357 C 0.10858 0.09243 0.49003 0.0
C358 C 0.0874 0.09167 0.48743 0.0
C359 C 0.07533 0.08343 0.50278 0.0
C360 C 0.07752 0.09686 0.46803 0.0
C361 C 0.12222 0.10222 0.47466 0.0
C362 C 0.06089 0.10999 0.4676 0.0
C363 C 0.04915 0.11179 0.45016 0.0
C364 C 0.05375 0.10035 0.43286 0.0
C365 C 0.0711 0.0881 0.43298 0.0
C366 C 0.08279 0.0863 0.45043 0.0
H367 H 0.13616 0.10813 0.48187 0.0
H368 H 0.12684 0.09077 0.46333 0.0
H369 H 0.11449 0.1148 0.4667 0.0
H370 H 0.05648 0.11818 0.48105 0.0
H371 H 0.03593 0.12142 0.45058 0.0
H372 H 0.91476 0.42252 0.41405 0.0
H373 H 0.89577 0.4247 0.44558 0.0
H374 H 0.92952 0.37449 0.46967 0.0
H375 H 0.94888 0.37236 0.43831 0.0
H376 H 0.8723 0.39739 0.46963 0.0
H377 H 0.94329 0.42159 0.50771 0.0
H378 H 0.94115 0.42023 0.48061 0.0
H379 H 0.94384 0.39752 0.4952 0.0
C380 C 0.91793 0.41168 0.42589 0.0
C381 C 0.9336 0.39749 0.42377 0.0
C382 C 0.90702 0.41293 0.4439 0.0
C383 C 0.91152 0.40001 0.46007 0.0
C384 C 0.92608 0.38485 0.45748 0.0
H385 H 0.87893 0.43319 0.58409 0.0
H386 H 0.88875 0.41045 0.55652 0.0
C387 C 0.93708 0.38363 0.43951 0.0
C388 C 0.90237 0.40387 0.48011 0.0
H389 H 0.91356 0.42312 0.52654 0.0
C390 C 0.88132 0.40272 0.4822 0.0
C391 C 0.9142 0.41069 0.49654 0.0
C392 C 0.93686 0.41276 0.49499 0.0
C393 C 0.87171 0.40898 0.50004 0.0
C394 C 0.88346 0.41695 0.51599 0.0
C395 C 0.90458 0.41695 0.51432 0.0
C396 C 0.87432 0.42812 0.53311 0.0
C397 C 0.84904 0.40747 0.50143 0.0
C398 C 0.86268 0.44536 0.52915 0.0
C399 C 0.85716 0.45833 0.54476 0.0
C400 C 0.86326 0.45444 0.56472 0.0
C401 C 0.87396 0.43657 0.56889 0.0
C402 C 0.87959 0.42358 0.55316 0.0
H403 H 0.84329 0.39471 0.49219 0.0
H404 H 0.84398 0.40538 0.51728 0.0
H405 H 0.8422 0.42156 0.49546 0.0
H406 H 0.85885 0.44948 0.5138 0.0
H407 H 0.84884 0.47192 0.54103 0.0
H408 H 0.0274 0.88917 0.06975 0.0
H409 H 0.04823 0.89455 0.03979 0.0
H410 H 0.09038 0.92928 0.07516 0.0
H411 H 0.06955 0.92425 0.10514 0.0
H412 H 0.07393 0.94994 0.04261 0.0
H413 H 0.10321 0.87518 0.01823 0.0
H414 H 0.07657 0.87606 0.02332 0.0
H415 H 0.0942 0.87989 0.04354 0.0
C416 C 0.04136 0.89753 0.07129 0.0
C417 C 0.04668 0.90649 0.08981 0.0
C418 C 0.05333 0.90047 0.05415 0.0
C419 C 0.07091 0.91221 0.05528 0.0
C420 C 0.07689 0.92011 0.074 0.0
H421 H 0.14675 0.97524 0.97106 0.0
H422 H 0.13389 0.95633 0.99996 0.0
C423 C 0.06493 0.91724 0.09111 0.0
C424 C 0.08134 0.91884 0.03666 0.0
H425 H 0.10716 0.90249 0.99506 0.0
C426 C 0.08134 0.93956 0.03231 0.0
C427 C 0.09068 0.90522 0.02311 0.0
C428 C 0.09136 0.88285 0.02729 0.0
C429 C 0.09035 0.9471 0.01476 0.0
C430 C 0.09999 0.93357 0.00135 0.0
C431 C 0.09984 0.91278 0.00549 0.0
C432 C 0.11039 0.9412 0.98313 0.0
C433 C 0.08922 0.9695 0.01057 0.0
C434 C 0.10213 0.93801 0.96389 0.0
C435 C 0.10957 0.9487 0.94723 0.0
C436 C 0.12525 0.9628 0.94972 0.0
C437 C 0.13447 0.96469 0.96873 0.0
C438 C 0.12718 0.95389 0.98525 0.0
H439 H 0.07735 0.977 0.01976 0.0
H440 H 0.10393 0.97656 0.01434 0.0
H441 H 0.08606 0.9724 0.99437 0.0
H442 H 0.08916 0.92823 0.962 0.0
H443 H 0.10219 0.94694 0.93276 0.0
H444 H 0.92289 0.5887 0.10059 0.0
H445 H 0.90488 0.5873 0.06845 0.0
H446 H 0.94435 0.63293 0.04402 0.0
H447 H 0.96271 0.63425 0.076 0.0
H448 H 0.88509 0.61613 0.04294 0.0
H449 H 0.95424 0.58355 0.00772 0.0
H450 H 0.95147 0.58594 0.03469 0.0
H451 H 0.95698 0.60779 0.01958 0.0
C452 C 0.92756 0.5987 0.08852 0.0
C453 C 0.94447 0.61134 0.09078 0.0
C454 C 0.91721 0.5979 0.07016 0.0
C455 C 0.92354 0.60974 0.05376 0.0
C456 C 0.93948 0.62341 0.05639 0.0
H457 H 0.89146 0.57738 0.92945 0.0
H458 H 0.90263 0.5996 0.95691 0.0
C459 C 0.94991 0.62416 0.07471 0.0
C460 C 0.91462 0.60625 0.03356 0.0
H461 H 0.92512 0.58484 0.98791 0.0
C462 C 0.89388 0.60957 0.03077 0.0
C463 C 0.92616 0.59781 0.01767 0.0
C464 C 0.94841 0.5934 0.01999 0.0
C465 C 0.88422 0.60394 0.01277 0.0
C466 C 0.89554 0.59443 0.99736 0.0
C467 C 0.91648 0.5922 0.99971 0.0
C468 C 0.88581 0.58394 0.98015 0.0
C469 C 0.86188 0.60781 0.01061 0.0
C470 C 0.87238 0.56804 0.98404 0.0
C471 C 0.8661 0.55535 0.96849 0.0
C472 C 0.87318 0.5582 0.94869 0.0
C473 C 0.88569 0.57484 0.94454 0.0
C474 C 0.8921 0.58753 0.9602 0.0
H475 H 0.8572 0.62126 0.01948 0.0
H476 H 0.85758 0.61013 0.99458 0.0
H477 H 0.85343 0.59461 0.01655 0.0
H478 H 0.8677 0.56465 0.99934 0.0
H479 H 0.85639 0.54272 0.9722 0.0
H480 H 0.4188 0.0742 0.07544 0.0
H481 H 0.4495 0.0942 0.07202 0.0
H482 H 0.47885 0.05723 0.11686 0.0
H483 H 0.44828 0.03673 0.12007 0.0
H484 H 0.47506 0.11632 0.09744 0.0
H485 H 0.51316 0.04786 0.06664 0.0
H486 H 0.48629 0.04881 0.07082 0.0
H487 H 0.50324 0.04578 0.09178 0.0
C488 C 0.43163 0.07048 0.08486 0.0
C489 C 0.43119 0.0536 0.09775 0.0
C490 C 0.44918 0.08199 0.08291 0.0
C491 C 0.46659 0.07692 0.09386 0.0
C492 C 0.46571 0.06111 0.10795 0.0
H493 H 0.58543 0.11594 0.05033 0.0
H494 H 0.56072 0.10452 0.07546 0.0
C495 C 0.44819 0.04947 0.1098 0.0
C496 C 0.48596 0.08691 0.08881 0.0
H497 H 0.53065 0.07833 0.06463 0.0
C498 C 0.48739 0.10799 0.09059 0.0
C499 C 0.50208 0.076 0.07993 0.0
C500 C 0.50118 0.05339 0.077 0.0
C501 C 0.50409 0.11854 0.08288 0.0
C502 C 0.51958 0.10773 0.07293 0.0
C503 C 0.51877 0.08657 0.07234 0.0
C504 C 0.53503 0.11792 0.06035 0.0
C505 C 0.5047 0.14121 0.08493 0.0
C506 C 0.52883 0.12951 0.04376 0.0
C507 C 0.54281 0.13591 0.02939 0.0
C508 C 0.56333 0.13078 0.03126 0.0
C509 C 0.56974 0.12017 0.0485 0.0
C510 C 0.55566 0.11364 0.06286 0.0
H511 H 0.49638 0.14627 0.09859 0.0
H512 H 0.52046 0.14686 0.08577 0.0
H513 H 0.49729 0.14815 0.07161 0.0
H514 H 0.51297 0.1326 0.04123 0.0
H515 H 0.53738 0.14413 0.01633 0.0
H516 H 0.55176 0.47773 0.11706 0.0
H517 H 0.52249 0.45575 0.11239 0.0
H518 H 0.55452 0.42281 0.06626 0.0
H519 H 0.58389 0.44445 0.07097 0.0
H520 H 0.50219 0.45449 0.07694 0.0
H521 H 0.52707 0.37736 0.09672 0.0
H522 H 0.54064 0.39964 0.10471 0.0
H523 H 0.54444 0.38942 0.07981 0.0
C524 C 0.55277 0.4655 0.10625 0.0
C525 C 0.57015 0.46295 0.09427 0.0
C526 C 0.53602 0.45295 0.10364 0.0
C527 C 0.53638 0.43751 0.08915 0.0
C528 C 0.55404 0.43432 0.07787 0.0
H529 H 0.46546 0.37404 0.00813 0.0
H530 H 0.49038 0.38651 0.03205 0.0
C531 C 0.57079 0.44684 0.08046 0.0
C532 C 0.5176 0.42666 0.08369 0.0
H533 H 0.49907 0.37974 0.0732 0.0
C534 C 0.50125 0.43813 0.0766 0.0
C535 C 0.51644 0.40534 0.08328 0.0
C536 C 0.53303 0.39224 0.09175 0.0
C537 C 0.48443 0.42891 0.06767 0.0
C538 C 0.4838 0.4076 0.06616 0.0
C539 C 0.4996 0.39608 0.07437 0.0
C540 C 0.4684 0.39735 0.05364 0.0
C541 C 0.46817 0.44212 0.05864 0.0
C542 C 0.44773 0.39864 0.0582 0.0
C543 C 0.43334 0.39161 0.04442 0.0
C544 C 0.43945 0.38314 0.02592 0.0
C545 C 0.4602 0.38069 0.0221 0.0
C546 C 0.4745 0.38772 0.03582 0.0
H547 H 0.47259 0.4583 0.05829 0.0
H548 H 0.46464 0.43723 0.04301 0.0
H549 H 0.4542 0.44075 0.06777 0.0
H550 H 0.44274 0.40574 0.07206 0.0
H551 H 0.41748 0.39358 0.04789 0.0
H552 H 0.58017 0.87682 0.43195 0.0
H553 H 0.55251 0.88374 0.40819 0.0
H554 H 0.50911 0.87191 0.45526 0.0
H555 H 0.53629 0.86471 0.47877 0.0
H556 H 0.49774 0.85618 0.41725 0.0
H557 H 0.52098 0.93708 0.41322 0.0
H558 H 0.53923 0.91829 0.40607 0.0
H559 H 0.53125 0.92012 0.43189 0.0
C560 C 0.56471 0.87542 0.43711 0.0
C561 C 0.56044 0.87051 0.45733 0.0
C562 C 0.54896 0.87944 0.42355 0.0
C563 C 0.52878 0.87861 0.43007 0.0
C564 C 0.52455 0.87267 0.44991 0.0
H565 H 0.41014 0.91606 0.42101 0.0
H566 H 0.44114 0.89651 0.42411 0.0
C567 C 0.54017 0.86869 0.46339 0.0
C568 C 0.51186 0.88549 0.41718 0.0
H569 H 0.48927 0.9287 0.40056 0.0
C570 C 0.49604 0.87196 0.41316 0.0
C571 C 0.50971 0.90605 0.41177 0.0
C572 C 0.52609 0.92133 0.41599 0.0
C573 C 0.47766 0.87868 0.405 0.0
C574 C 0.47498 0.8995 0.40109 0.0
C575 C 0.49133 0.91274 0.40365 0.0
C576 C 0.45485 0.9084 0.39691 0.0
C577 C 0.46112 0.86351 0.40124 0.0
C578 C 0.4521 0.92152 0.3805 0.0
C579 C 0.43442 0.93293 0.3788 0.0
C580 C 0.4192 0.93153 0.39357 0.0
C581 C 0.4215 0.9175 0.40934 0.0
C582 C 0.4392 0.90615 0.41105 0.0
H583 H 0.4675 0.8484 0.39768 0.0
H584 H 0.45183 0.86194 0.41509 0.0
H585 H 0.45115 0.8683 0.38865 0.0
H586 H 0.46402 0.92357 0.36948 0.0
H587 H 0.43312 0.94352 0.36641 0.0
H588 H 0.44269 0.65273 0.44495 0.0
H589 H 0.46928 0.642 0.42158 0.0
H590 H 0.45349 0.57969 0.43289 0.0
H591 H 0.42586 0.5906 0.45448 0.0
H592 H 0.50023 0.62568 0.43181 0.0
H593 H 0.46922 0.57208 0.37727 0.0
H594 H 0.45287 0.58807 0.39206 0.0
H595 H 0.46089 0.56371 0.40152 0.0
C596 C 0.44434 0.63682 0.4415 0.0
C597 C 0.43214 0.62245 0.45114 0.0
C598 C 0.45963 0.63064 0.42831 0.0
C599 C 0.4635 0.60995 0.4252 0.0
C600 C 0.45055 0.59571 0.43422 0.0
H601 H 0.57711 0.55574 0.43502 0.0
H602 H 0.54661 0.57612 0.43678 0.0
C603 C 0.43478 0.60193 0.44675 0.0
C604 C 0.48283 0.6032 0.41579 0.0
H605 H 0.50368 0.56396 0.3897 0.0
C606 C 0.50083 0.61252 0.42209 0.0
C607 C 0.48404 0.5864 0.4026 0.0
C608 C 0.46564 0.57723 0.39283 0.0
C609 C 0.51977 0.60456 0.41703 0.0
C610 C 0.52083 0.58608 0.40635 0.0
C611 C 0.50297 0.57775 0.3985 0.0
C612 C 0.53994 0.57435 0.40478 0.0
C613 C 0.53838 0.61601 0.42349 0.0
C614 C 0.54605 0.56572 0.38639 0.0
C615 C 0.56321 0.55339 0.38551 0.0
C616 C 0.57473 0.54975 0.40296 0.0
C617 C 0.56877 0.55861 0.42125 0.0
C618 C 0.55139 0.57045 0.42222 0.0
H619 H 0.53558 0.63255 0.42314 0.0
H620 H 0.54217 0.61195 0.43929 0.0
H621 H 0.55153 0.61262 0.41367 0.0
H622 H 0.53742 0.56832 0.37275 0.0
H623 H 0.56744 0.54667 0.37121 0.0
H624 H 0.0811 0.4107 0.07379 0.0
H625 H 0.0743 0.44039 0.09457 0.0
H626 H 0.10204 0.47852 0.04973 0.0
H627 H 0.10918 0.44888 0.02885 0.0
H628 H 0.10835 0.49042 0.09303 0.0
H629 H 0.02854 0.4772 0.0706 0.0
H630 H 0.04098 0.45592 0.08195 0.0
H631 H 0.04949 0.46524 0.05794 0.0
C632 C 0.0862 0.42532 0.06852 0.0
C633 C 0.09535 0.42745 0.04948 0.0
C634 C 0.08232 0.44226 0.08045 0.0
C635 C 0.08739 0.46162 0.0735 0.0
C636 C 0.098 0.46368 0.05531 0.0
H637 H 0.04729 0.58191 0.10826 0.0
H638 H 0.06833 0.55417 0.09558 0.0
C639 C 0.102 0.44671 0.04338 0.0
C640 C 0.07913 0.47964 0.08376 0.0
H641 H 0.03454 0.5032 0.09403 0.0
C642 C 0.09223 0.49329 0.0933 0.0
C643 C 0.05812 0.48341 0.08379 0.0
C644 C 0.04343 0.46981 0.07289 0.0
C645 C 0.0847 0.51039 0.10347 0.0
C646 C 0.06364 0.51387 0.10381 0.0
C647 C 0.05067 0.50036 0.09394 0.0
C648 C 0.05429 0.5313 0.11425 0.0
C649 C 0.09919 0.52433 0.1141 0.0
C650 C 0.03975 0.52771 0.12921 0.0
C651 C 0.02759 0.54338 0.13622 0.0
C652 C 0.02977 0.56302 0.12846 0.0
C653 C 0.04534 0.56694 0.11456 0.0
C654 C 0.05743 0.55112 0.10738 0.0
H655 H 0.11425 0.51723 0.11623 0.0
H656 H 0.1012 0.53821 0.10494 0.0
H657 H 0.09315 0.52886 0.12907 0.0
H658 H 0.03709 0.51252 0.1347 0.0
H659 H 0.01586 0.53993 0.14709 0.0
H660 H 0.01146 0.46596 0.37738 0.0
H661 H 0.03615 0.48962 0.39075 0.0
H662 H 0.06679 0.44085 0.42116 0.0
H663 H 0.04188 0.41688 0.40788 0.0
H664 H 0.05573 0.47205 0.4464 0.0
H665 H 0.09504 0.50307 0.37976 0.0
H666 H 0.06817 0.50327 0.37646 0.0
H667 H 0.08123 0.47954 0.37902 0.0
C668 C 0.02366 0.46014 0.38658 0.0
C669 C 0.02462 0.43955 0.39169 0.0
C670 C 0.03791 0.47369 0.39405 0.0
C671 C 0.05349 0.46697 0.40672 0.0
C672 C 0.055 0.4463 0.41123 0.0
H673 H 0.11528 0.55197 0.48831 0.0
H674 H 0.11025 0.52103 0.46875 0.0
C675 C 0.04077 0.43264 0.40363 0.0
C676 C 0.06618 0.48203 0.4173 0.0
H677 H 0.09362 0.5249 0.40921 0.0
C678 C 0.0645 0.48332 0.43837 0.0
C679 C 0.07755 0.4967 0.40676 0.0
C680 C 0.08078 0.49547 0.38426 0.0
C681 C 0.07252 0.49977 0.44901 0.0
C682 C 0.08285 0.51512 0.43829 0.0
C683 C 0.08563 0.51316 0.41738 0.0
C684 C 0.08865 0.53432 0.44817 0.0
C685 C 0.06858 0.5013 0.47141 0.0
C686 C 0.079 0.55227 0.4424 0.0
C687 C 0.08195 0.57 0.4534 0.0
C688 C 0.0946 0.5701 0.47044 0.0
C689 C 0.10526 0.55238 0.47541 0.0
C690 C 0.10235 0.53465 0.46431 0.0
H691 H 0.05735 0.49001 0.47667 0.0
H692 H 0.08287 0.49865 0.47973 0.0
H693 H 0.06301 0.51661 0.4754 0.0
H694 H 0.06841 0.55235 0.42993 0.0
H695 H 0.07359 0.58338 0.44905 0.0
H696 H 0.92472 0.9038 0.45079 0.0
H697 H 0.92893 0.93596 0.43324 0.0
H698 H 0.88599 0.96384 0.47344 0.0
H699 H 0.88189 0.9318 0.49137 0.0
H700 H 0.90225 0.96352 0.4139 0.0
H701 H 0.93798 0.99633 0.48258 0.0
H702 H 0.93343 0.96961 0.47995 0.0
H703 H 0.91292 0.98643 0.48563 0.0
C704 C 0.91593 0.91667 0.45576 0.0
C705 C 0.9032 0.91528 0.47269 0.0
C706 C 0.91833 0.93504 0.44567 0.0
C707 C 0.90805 0.95234 0.45229 0.0
C708 C 0.89435 0.95074 0.46835 0.0
H709 H 0.9466 0.07472 0.41836 0.0
H710 H 0.92389 0.04817 0.43074 0.0
C711 C 0.89199 0.93238 0.47852 0.0
C712 C 0.91301 0.97222 0.44331 0.0
H713 H 0.93771 0.01629 0.45346 0.0
C714 C 0.90974 0.9752 0.42259 0.0
C715 C 0.9227 0.98747 0.45471 0.0
C716 C 0.92714 0.98486 0.47691 0.0
C717 C 0.91657 0.99274 0.41282 0.0
C718 C 0.9272 0.00748 0.42402 0.0
C719 C 0.92948 0.00499 0.44492 0.0
C720 C 0.93848 0.02409 0.41414 0.0
C721 C 0.91272 0.99513 0.39052 0.0
C722 C 0.95402 0.01939 0.40056 0.0
C723 C 0.967 0.03441 0.39358 0.0
C724 C 0.9648 0.0545 0.40011 0.0
C725 C 0.94865 0.0594 0.413 0.0
C726 C 0.93568 0.04426 0.42009 0.0
H727 H 0.89887 0.9869 0.38586 0.0
H728 H 0.91113 0.01127 0.38626 0.0
H729 H 0.9256 0.98864 0.38199 0.0
H730 H 0.95679 0.00389 0.39612 0.0
H731 H 0.97924 0.03011 0.38362 0.0
H732 H 0.43058 0.5939 0.5592 0.0
H733 H 0.43501 0.5621 0.57738 0.0
H734 H 0.38048 0.53883 0.55058 0.0
H735 H 0.37601 0.57048 0.53208 0.0
H736 H 0.40994 0.53928 0.60441 0.0
H737 H 0.42464 0.4991 0.53197 0.0
H738 H 0.42437 0.52629 0.53367 0.0
H739 H 0.40109 0.51243 0.53401 0.0
C740 C 0.41935 0.58215 0.55735 0.0
C741 C 0.40309 0.58466 0.54395 0.0
C742 C 0.4219 0.56399 0.5678 0.0
C743 C 0.40826 0.54802 0.56504 0.0
C744 C 0.39137 0.55086 0.55262 0.0
H745 H 0.44021 0.42337 0.59888 0.0
H746 H 0.41818 0.45164 0.5892 0.0
C747 C 0.38881 0.569 0.54212 0.0
C748 C 0.4127 0.52803 0.57405 0.0
H749 H 0.42917 0.48074 0.56179 0.0
C750 C 0.41386 0.52636 0.59512 0.0
C751 C 0.41763 0.51117 0.56188 0.0
C752 C 0.41703 0.51223 0.53912 0.0
C753 C 0.42063 0.50851 0.60434 0.0
C754 C 0.42675 0.49209 0.59213 0.0
C755 C 0.42444 0.49335 0.57112 0.0
C756 C 0.4383 0.4748 0.60043 0.0
C757 C 0.42162 0.50758 0.62707 0.0
C758 C 0.4568 0.47845 0.61 0.0
C759 C 0.46936 0.46247 0.61542 0.0
C760 C 0.46377 0.4424 0.61128 0.0
C761 C 0.44489 0.43865 0.60232 0.0
C762 C 0.43231 0.45476 0.59679 0.0
H763 H 0.40999 0.51749 0.63402 0.0
H764 H 0.41946 0.49193 0.63268 0.0
H765 H 0.43662 0.51303 0.63214 0.0
H766 H 0.462 0.49376 0.61251 0.0
H767 H 0.48376 0.46592 0.62234 0.0
H768 H 0.63172 0.56496 0.04981 0.0
H769 H 0.62224 0.58589 0.02079 0.0
H770 H 0.55979 0.56936 0.02979 0.0
H771 H 0.56919 0.55002 0.05965 0.0
H772 H 0.61003 0.57312 0.98834 0.0
H773 H 0.54993 0.62459 0.01261 0.0
H774 H 0.56527 0.61123 0.0307 0.0
H775 H 0.54276 0.59975 0.02039 0.0
C776 C 0.6159 0.5667 0.04605 0.0
C777 C 0.6011 0.55632 0.05706 0.0
C778 C 0.61047 0.57848 0.02939 0.0
C779 C 0.59021 0.5795 0.02304 0.0
C780 C 0.57539 0.56961 0.03462 0.0
H781 H 0.5492 0.56896 0.90309 0.0
H782 H 0.56662 0.56704 0.93536 0.0
C783 C 0.58076 0.55841 0.05167 0.0
C784 C 0.58496 0.58807 0.0029 0.0
H785 H 0.54727 0.61241 0.97759 0.0
C786 C 0.59657 0.58218 0.98613 0.0
C787 C 0.56774 0.60037 0.99971 0.0
C788 C 0.55593 0.60951 0.01691 0.0
C789 C 0.59069 0.58697 0.96637 0.0
C790 C 0.57209 0.59699 0.96313 0.0
C791 C 0.56126 0.60422 0.9799 0.0
C792 C 0.56283 0.59873 0.94272 0.0
C793 C 0.60452 0.58106 0.94925 0.0
C794 C 0.55426 0.61702 0.93617 0.0
C795 C 0.54363 0.61796 0.91795 0.0
C796 C 0.54168 0.6007 0.90575 0.0
C797 C 0.55079 0.5826 0.91197 0.0
C798 C 0.56093 0.58154 0.93041 0.0
H799 H 0.62058 0.58183 0.95403 0.0
H800 H 0.60142 0.56519 0.94484 0.0
H801 H 0.60247 0.59095 0.93587 0.0
H802 H 0.5554 0.63049 0.94538 0.0
H803 H 0.53668 0.6321 0.91353 0.0
H804 H 0.37815 0.97981 0.02696 0.0
H805 H 0.39049 0.95911 0.99917 0.0
H806 H 0.43156 0.92881 0.03961 0.0
H807 H 0.419 0.94936 0.06775 0.0
H808 H 0.43102 0.96229 0.98852 0.0
H809 H 0.41014 0.88236 0.00371 0.0
H810 H 0.39735 0.90338 0.01553 0.0
H811 H 0.42186 0.89573 0.02422 0.0
C812 C 0.3895 0.96844 0.03008 0.0
C813 C 0.39778 0.96636 0.0495 0.0
C814 C 0.39648 0.95657 0.01418 0.0
C815 C 0.41189 0.94241 0.01733 0.0
C816 C 0.41941 0.93943 0.03692 0.0
H817 H 0.49432 0.88653 0.93257 0.0
H818 H 0.47457 0.89437 0.96277 0.0
C819 C 0.41229 0.95124 0.05296 0.0
C820 C 0.42189 0.93312 0.99964 0.0
H821 H 0.43221 0.88841 0.97604 0.0
C822 C 0.43116 0.94614 0.98574 0.0
C823 C 0.42228 0.91205 0.99624 0.0
C824 C 0.41227 0.89751 0.0106 0.0
C825 C 0.4408 0.93871 0.96849 0.0
C826 C 0.44086 0.91768 0.96481 0.0
C827 C 0.43191 0.90454 0.97884 0.0
C828 C 0.45057 0.90937 0.94651 0.0
C829 C 0.45115 0.95344 0.95448 0.0
C830 C 0.44311 0.91444 0.92736 0.0
C831 C 0.45439 0.91013 0.91008 0.0
C832 C 0.47329 0.90057 0.91169 0.0
C833 C 0.4799 0.89403 0.9308 0.0
C834 C 0.46862 0.89844 0.94809 0.0
H835 H 0.45367 0.96833 0.96179 0.0
H836 H 0.46593 0.94742 0.94934 0.0
H837 H 0.44155 0.95589 0.94098 0.0
H838 H 0.42905 0.92267 0.92586 0.0
H839 H 0.44874 0.91517 0.89559 0.0
H840 H 0.52235 0.37142 0.55479 0.0
H841 H 0.53992 0.37345 0.52243 0.0
H842 H 0.587 0.40884 0.55011 0.0
H843 H 0.56973 0.4067 0.58255 0.0
H844 H 0.5451 0.40953 0.50428 0.0
H845 H 0.61947 0.37289 0.51267 0.0
H846 H 0.59878 0.36812 0.52981 0.0
H847 H 0.61454 0.39004 0.53303 0.0
C848 C 0.53672 0.3792 0.55414 0.0
C849 C 0.54453 0.38909 0.57124 0.0
C850 C 0.54676 0.38029 0.53561 0.0
C851 C 0.56486 0.39114 0.53386 0.0
C852 C 0.57329 0.39999 0.55117 0.0
H853 H 0.62994 0.46711 0.46133 0.0
H854 H 0.61799 0.44144 0.48465 0.0
C855 C 0.56329 0.3989 0.56971 0.0
C856 C 0.57316 0.39609 0.51367 0.0
H857 H 0.61736 0.39955 0.48742 0.0
C858 C 0.56076 0.40687 0.50029 0.0
C859 C 0.59356 0.39255 0.5085 0.0
C860 C 0.60729 0.38007 0.52169 0.0
C861 C 0.56861 0.41574 0.48274 0.0
C862 C 0.58938 0.41338 0.47824 0.0
C863 C 0.60145 0.40135 0.49088 0.0
C864 C 0.59934 0.42606 0.46271 0.0
C865 C 0.55495 0.42892 0.47009 0.0
C866 C 0.59355 0.42541 0.44231 0.0
C867 C 0.60026 0.4403 0.42884 0.0
C868 C 0.6129 0.45596 0.43563 0.0
C869 C 0.61996 0.45547 0.45565 0.0
C870 C 0.61324 0.44069 0.46902 0.0
H871 H 0.54008 0.43154 0.4774 0.0
H872 H 0.56212 0.44379 0.46719 0.0
H873 H 0.55222 0.42151 0.45532 0.0
H874 H 0.58313 0.41397 0.43705 0.0
H875 H 0.5947 0.44017 0.41348 0.0
H876 H 0.46628 0.05449 0.57298 0.0
H877 H 0.44615 0.04797 0.54301 0.0
H878 H 0.44494 0.1118 0.52968 0.0
H879 H 0.46645 0.11824 0.55913 0.0
H880 H 0.41087 0.05724 0.53167 0.0
H881 H 0.46382 0.0921 0.47681 0.0
H882 H 0.4702 0.08884 0.50302 0.0
H883 H 0.45421 0.10943 0.49524 0.0
C884 C 0.46166 0.06717 0.56373 0.0
C885 C 0.46803 0.08686 0.5683 0.0
C886 C 0.45013 0.06343 0.54655 0.0
C887 C 0.4443 0.07933 0.53375 0.0
C888 C 0.44979 0.09919 0.53887 0.0
H889 H 0.36086 0.03337 0.44112 0.0
H890 H 0.37335 0.056 0.46764 0.0
C891 C 0.46188 0.10289 0.55581 0.0
C892 C 0.43273 0.07463 0.51508 0.0
H893 H 0.43406 0.07803 0.46365 0.0
C894 C 0.41592 0.06184 0.51679 0.0
C895 C 0.43933 0.08061 0.49563 0.0
C896 C 0.45797 0.09334 0.49248 0.0
C897 C 0.40633 0.0538 0.49973 0.0
C898 C 0.41288 0.05978 0.48023 0.0
C899 C 0.42895 0.07353 0.47854 0.0
C900 C 0.40497 0.05011 0.46156 0.0
C901 C 0.39031 0.03787 0.50297 0.0
C902 C 0.4185 0.04093 0.44801 0.0
C903 C 0.41135 0.02893 0.43224 0.0
C904 C 0.39058 0.02559 0.43003 0.0
C905 C 0.37697 0.03577 0.44265 0.0
C906 C 0.38412 0.04842 0.45797 0.0
H907 H 0.39106 0.03127 0.51837 0.0
H908 H 0.37517 0.0448 0.5012 0.0
H909 H 0.39185 0.02538 0.4919 0.0
H910 H 0.43466 0.04205 0.4503 0.0
H911 H 0.42208 0.02101 0.42276 0.0
H912 H 0.03205 0.63373 0.54654 0.0
H913 H 0.00312 0.62212 0.56614 0.0
H914 H 0.03911 0.57385 0.591 0.0
H915 H 0.06838 0.58569 0.57162 0.0
H916 H 0.98962 0.58328 0.55687 0.0
H917 H 0.00323 0.59133 0.63929 0.0
H918 H 0.01661 0.60615 0.62068 0.0
H919 H 0.02339 0.58024 0.62485 0.0
C920 C 0.03401 0.62104 0.55669 0.0
C921 C 0.0524 0.61047 0.55741 0.0
C922 C 0.01747 0.61445 0.5679 0.0
C923 C 0.01896 0.59713 0.58 0.0
C924 C 0.03773 0.58745 0.582 0.0
H925 H 0.92744 0.51402 0.62278 0.0
H926 H 0.95896 0.53268 0.61798 0.0
C927 C 0.05443 0.59419 0.57088 0.0
C928 C 1.00021 0.58738 0.58732 0.0
H929 H 0.9744 0.57233 0.62937 0.0
C930 C 0.98624 0.58104 0.57274 0.0
C931 C 0.99603 0.58418 0.60799 0.0
C932 C 0.0105 0.59093 0.62418 0.0
C933 C 0.96817 0.57157 0.57821 0.0
C934 C 0.96372 0.56872 0.59889 0.0
C935 C 0.9778 0.57477 0.61354 0.0
C936 C 0.94458 0.55908 0.60521 0.0
C937 C 0.9542 0.5643 0.56174 0.0
C938 C 0.92604 0.56811 0.60037 0.0
C939 C 0.90803 0.55744 0.60289 0.0
C940 C 0.90825 0.53761 0.6105 0.0
C941 C 0.92674 0.52921 0.61677 0.0
C942 C 0.94478 0.53987 0.6141 0.0
H943 H 0.96201 0.56322 0.54693 0.0
H944 H 0.94779 0.54927 0.5655 0.0
H945 H 0.94151 0.57512 0.56009 0.0
H946 H 0.92559 0.58307 0.59375 0.0
H947 H 0.89404 0.56446 0.59815 0.0
H948 H 0.9664 0.84866 0.54512 0.0
H949 H 0.99556 0.85999 0.56449 0.0
H950 H 0.95935 0.90656 0.59206 0.0
H951 H 0.92986 0.89506 0.57281 0.0
H952 H 0.00715 0.90068 0.55614 0.0
H953 H 0.99784 0.88693 0.6385 0.0
H954 H 0.98491 0.87203 0.61965 0.0
H955 H 0.97653 0.8972 0.62509 0.0
C956 C 0.96445 0.86088 0.55582 0.0
C957 C 0.94593 0.87113 0.5573 0.0
C958 C 0.98112 0.8673 0.56691 0.0
C959 C 0.97962 0.88411 0.57967 0.0
C960 C 0.96074 0.89336 0.5825 0.0
H961 H 0.07114 0.96621 0.6244 0.0
H962 H 0.03996 0.94696 0.61987 0.0
C963 C 0.94392 0.8868 0.57148 0.0
C964 C 0.99837 0.894 0.58671 0.0
H965 H 0.02606 0.90656 0.62834 0.0
C966 C 0.01134 0.90185 0.57193 0.0
C967 C 0.00357 0.89579 0.6073 0.0
C968 C 0.9901 0.88746 0.62364 0.0
C969 C 0.02943 0.91142 0.57713 0.0
C970 C 0.03498 0.91277 0.59769 0.0
C971 C 0.02186 0.90524 0.61258 0.0
C972 C 0.05421 0.92244 0.6037 0.0
C973 C 0.04222 0.9204 0.56051 0.0
C974 C 0.07267 0.91458 0.59686 0.0
C975 C 0.09048 0.92561 0.59922 0.0
C976 C 0.09017 0.94462 0.60868 0.0
C977 C 0.07189 0.95168 0.61694 0.0
C978 C 0.05405 0.94068 0.61442 0.0
H979 H 0.03347 0.92258 0.54637 0.0
H980 H 0.0486 0.9352 0.56515 0.0
H981 H 0.05495 0.91004 0.55714 0.0
H982 H 0.07314 0.90033 0.58885 0.0
H983 H 0.10432 0.9196 0.59291 0.0
H984 H 0.02629 0.37848 0.97595 0.0
H985 H 1.00032 0.39191 0.95371 0.0
H986 H 0.04559 0.42437 0.91997 0.0
H987 H 0.07185 0.41105 0.94241 0.0
H988 H 0.01518 0.44859 0.93463 0.0
H989 H 0.98178 0.38274 0.89595 0.0
H990 H 0.98395 0.37863 0.92262 0.0
H991 H 0.00641 0.3819 0.90765 0.0
C992 C 0.03084 0.38812 0.96354 0.0
C993 C 0.05114 0.39382 0.96105 0.0
C994 C 0.01596 0.39563 0.95069 0.0
C995 C 0.02103 0.40894 0.93502 0.0
C996 C 0.04139 0.41396 0.93187 0.0
H997 H 0.93097 0.49137 0.88207 0.0
H998 H 0.96237 0.47204 0.88475 0.0
C999 C 0.05637 0.40633 0.9447 0.0
C1000 C 0.00475 0.41969 0.92408 0.0
H1001 H 0.95993 0.41191 0.89991 0.0
C1002 C 0.00334 0.44068 0.92656 0.0
C1003 C 0.98932 0.4093 0.91364 0.0
C1004 C 0.99053 0.38691 0.90963 0.0
C1005 C 0.98619 0.45137 0.92021 0.0
C1006 C 0.97022 0.44079 0.91074 0.0
C1007 C 0.97216 0.41997 0.90722 0.0
C1008 C 0.95062 0.45069 0.90651 0.0
C1009 C 0.98473 0.47363 0.92497 0.0
C1010 C 0.93335 0.44445 0.91705 0.0
C1011 C 0.91535 0.45532 0.91543 0.0
C1012 C 0.91431 0.47268 0.90325 0.0
C1013 C 0.93132 0.4782 0.89176 0.0
C1014 C 0.94931 0.46723 0.89332 0.0
H1015 H 0.99667 0.47861 0.93563 0.0
H1016 H 0.98643 0.48245 0.91083 0.0
H1017 H 0.96978 0.47731 0.93161 0.0
H1018 H 0.93403 0.43168 0.92726 0.0
H1019 H 0.90253 0.45056 0.9244 0.0
H1020 H 0.07063 0.03019 0.88585 0.0
H1021 H 0.04074 0.05092 0.89213 0.0
H1022 H 0.07694 0.09324 0.92575 0.0
H1023 H 0.10689 0.07261 0.91973 0.0
H1024 H 0.04492 0.07485 0.94739 0.0
H1025 H 0.01819 0.10685 0.87455 0.0
H1026 H 0.02442 0.0804 0.87442 0.0
H1027 H 0.04396 0.09872 0.87847 0.0
C1028 C 0.07237 0.0442 0.89411 0.0
C1029 C 0.09113 0.04959 0.90252 0.0
C1030 C 0.05526 0.05609 0.89757 0.0
C1031 C 0.05666 0.07364 0.90932 0.0
C1032 C 0.07559 0.07978 0.91656 0.0
H1033 H 0.97277 0.14467 0.97864 0.0
H1034 H 0.00183 0.133 0.95921 0.0
C1035 C 0.09269 0.06792 0.91313 0.0
C1036 C 0.03818 0.08368 0.91686 0.0
H1037 H 0.99607 0.10995 0.90271 0.0
C1038 C 0.03433 0.08267 0.93764 0.0
C1039 C 0.02425 0.09351 0.90402 0.0
C1040 C 0.02789 0.09512 0.88162 0.0
C1041 C 0.01688 0.09115 0.94599 0.0
C1042 C 0.0031 0.10138 0.93327 0.0
C1043 C 0.00677 0.10223 0.91241 0.0
C1044 C 0.98491 0.11123 0.94173 0.0
C1045 C 0.01315 0.08868 0.96835 0.0
C1046 C 0.96558 0.10372 0.93741 0.0
C1047 C 0.94882 0.11057 0.94835 0.0
C1048 C 0.95129 0.12488 0.96384 0.0
C1049 C 0.97045 0.13341 0.96701 0.0
C1050 C 0.98707 0.12677 0.95594 0.0
H1051 H 0.02223 0.07614 0.97484 0.0
H1052 H 0.01747 0.1028 0.97625 0.0
H1053 H 0.99695 0.08569 0.97147 0.0
H1054 H 0.96363 0.09177 0.92643 0.0
H1055 H 0.93421 0.10376 0.94557 0.0
H1056 H 0.5581 0.03997 0.62551 0.0
H1057 H 0.58121 0.01511 0.61169 0.0
H1058 H 0.59712 0.05625 0.56375 0.0
H1059 H 0.57344 0.08126 0.57738 0.0
H1060 H 0.58287 0.02176 0.54939 0.0
H1061 H 0.63992 0.00248 0.60656 0.0
H1062 H 0.61535 0.00215 0.61785 0.0
H1063 H 0.62528 0.02548 0.60787 0.0
C1064 C 0.56697 0.04403 0.61238 0.0
C1065 C 0.56374 0.0625 0.60239 0.0
C1066 C 0.5804 0.02983 0.60459 0.0
C1067 C 0.59108 0.03381 0.58674 0.0
C1068 C 0.58912 0.05289 0.57761 0.0
H1069 H 0.63107 0.9336 0.50883 0.0
H1070 H 0.63123 0.96742 0.52369 0.0
C1071 C 0.57564 0.0672 0.58545 0.0
C1072 C 0.60095 0.0168 0.57595 0.0
H1073 H 0.62971 0.97474 0.5841 0.0
C1074 C 0.59361 0.0118 0.55671 0.0
C1075 C 0.61492 0.00374 0.5855 0.0
C1076 C 0.62445 0.0089 0.6055 0.0
C1077 C 0.59853 0.99336 0.54752 0.0
C1078 C 0.61135 0.97967 0.55775 0.0
C1079 C 0.61975 0.9852 0.57637 0.0
C1080 C 0.6143 0.95881 0.55024 0.0
C1081 C 0.58884 0.98806 0.52759 0.0
C1082 C 0.60547 0.94263 0.56069 0.0
C1083 C 0.60536 0.92328 0.55228 0.0
C1084 C 0.61411 0.91976 0.53326 0.0
C1085 C 0.62402 0.9358 0.52342 0.0
C1086 C 0.62413 0.95515 0.53186 0.0
H1087 H 0.57698 0.99907 0.52316 0.0
H1088 H 0.60054 0.9879 0.5156 0.0
H1089 H 0.58197 0.97278 0.52829 0.0
H1090 H 0.59782 0.94517 0.57492 0.0
H1091 H 0.59769 0.91128 0.56033 0.0
H1092 H 0.58456 0.09667 0.92308 0.0
H1093 H 0.58408 0.06401 0.90592 0.0
H1094 H 0.62943 0.04146 0.94679 0.0
H1095 H 0.62991 0.07399 0.96424 0.0
H1096 H 0.61509 0.03912 0.8874 0.0
H1097 H 0.58025 0.00384 0.95541 0.0
H1098 H 0.58167 0.03086 0.95221 0.0
H1099 H 0.60383 0.01679 0.95897 0.0
C1100 C 0.59465 0.08487 0.92829 0.0
C1101 C 0.60707 0.08789 0.94523 0.0
C1102 C 0.59439 0.06623 0.91841 0.0
C1103 C 0.60649 0.05026 0.92529 0.0
C1104 C 0.61975 0.05352 0.94145 0.0
H1105 H 0.57844 0.92474 0.89353 0.0
H1106 H 0.5994 0.95285 0.90554 0.0
C1107 C 0.62002 0.07216 0.95137 0.0
C1108 C 0.60391 0.02986 0.91649 0.0
H1109 H 0.5831 0.98381 0.92653 0.0
C1110 C 0.60838 0.02689 0.896 0.0
C1111 C 0.59532 0.01391 0.9278 0.0
C1112 C 0.58983 0.01641 0.94979 0.0
C1113 C 0.60373 0.00861 0.88632 0.0
C1114 C 0.59399 0.9931 0.89734 0.0
C1115 C 0.59062 0.99568 0.9181 0.0
C1116 C 0.58446 0.97549 0.88731 0.0
C1117 C 0.6089 0.00625 0.86428 0.0
C1118 C 0.56943 0.97882 0.87278 0.0
C1119 C 0.55749 0.9629 0.86597 0.0
C1120 C 0.56019 0.94327 0.87364 0.0
C1121 C 0.57604 0.93967 0.88729 0.0
C1122 C 0.58799 0.95571 0.89419 0.0
H1123 H 0.62247 0.01527 0.86028 0.0
H1124 H 0.6117 0.9902 0.8603 0.0
H1125 H 0.59615 0.01192 0.85501 0.0
H1126 H 0.56605 0.99396 0.86759 0.0
H1127 H 0.54546 0.96619 0.8554 0.0
H1128 H 0.4601 0.54259 0.84257 0.0
H1129 H 0.43875 0.51524 0.85488 0.0
H1130 H 0.41848 0.55288 0.90395 0.0
H1131 H 0.43977 0.5806 0.8915 0.0
H1132 H 0.44943 0.50314 0.89608 0.0
H1133 H 0.36725 0.51809 0.88622 0.0
H1134 H 0.38604 0.52871 0.86948 0.0
H1135 H 0.38326 0.53846 0.89455 0.0
C1136 C 0.45056 0.54532 0.85557 0.0
C1137 C 0.45175 0.56362 0.86623 0.0
C1138 C 0.43832 0.52969 0.86255 0.0
C1139 C 0.42708 0.53204 0.88031 0.0
C1140 C 0.42684 0.55089 0.89004 0.0
H1141 H 0.3806 0.44163 0.96302 0.0
H1142 H 0.38574 0.47302 0.9442 0.0
C1143 C 0.43902 0.56669 0.88294 0.0
C1144 C 0.41924 0.51381 0.89054 0.0
H1145 H 0.37643 0.48846 0.90411 0.0
C1146 C 0.43346 0.4999 0.89778 0.0
C1147 C 0.39844 0.50986 0.89298 0.0
C1148 C 0.38274 0.52446 0.88536 0.0
C1149 C 0.4275 0.48201 0.90729 0.0
C1150 C 0.40668 0.47764 0.90918 0.0
C1151 C 0.39236 0.49175 0.90235 0.0
C1152 C 0.39988 0.45854 0.9186 0.0
C1153 C 0.44359 0.46808 0.91552 0.0
C1154 C 0.40531 0.43994 0.91 0.0
C1155 C 0.40261 0.42201 0.92077 0.0
C1156 C 0.39421 0.42235 0.94026 0.0
C1157 C 0.38723 0.44084 0.9481 0.0
C1158 C 0.39009 0.45881 0.93736 0.0
H1159 H 0.45829 0.47594 0.91735 0.0
H1160 H 0.43903 0.46173 0.93035 0.0
H1161 H 0.44586 0.45535 0.90487 0.0
H1162 H 0.41261 0.43942 0.89537 0.0
H1163 H 0.40792 0.40802 0.91417 0.0
H1164 H 0.87998 0.06909 0.02542 0.0
H1165 H 0.88185 0.03779 0.04493 0.0
H1166 H 0.91911 0.06756 0.0892 0.0
H1167 H 0.91707 0.09893 0.07006 0.0
H1168 H 0.91704 0.01844 0.05092 0.0
H1169 H 0.88258 0.03442 0.12509 0.0
H1170 H 0.87831 0.05025 0.10329 0.0
H1171 H 0.90073 0.05334 0.11835 0.0
C1172 C 0.88816 0.06913 0.03957 0.0
C1173 C 0.89851 0.08651 0.04609 0.0
C1174 C 0.88919 0.05121 0.05071 0.0
C1175 C 0.90043 0.05036 0.06863 0.0
C1176 C 0.90993 0.06795 0.07568 0.0
H1177 H 0.97198 0.97448 0.13802 0.0
H1178 H 0.94956 1.00017 0.1243 0.0
C1179 C 0.90889 0.08587 0.06459 0.0
C1180 C 0.90474 0.03066 0.07841 0.0
H1181 H 0.90743 0.00741 0.12434 0.0
C1182 C 0.91447 0.01577 0.06687 0.0
C1183 C 0.90138 0.02722 0.09921 0.0
C1184 C 0.88998 0.0421 0.11214 0.0
C1185 C 0.92228 0.99824 0.07583 0.0
C1186 C 0.91995 0.99534 0.09687 0.0
C1187 C 0.90919 0.00967 0.10822 0.0
C1188 C 0.93101 0.97912 0.10761 0.0
C1189 C 0.93418 0.98367 0.06295 0.0
C1190 C 0.92752 0.95862 0.10343 0.0
C1191 C 0.94046 0.94378 0.11121 0.0
C1192 C 0.95703 0.94928 0.1233 0.0
C1193 C 0.95953 0.96971 0.12856 0.0
C1194 C 0.94665 0.98445 0.12081 0.0
H1195 H 0.93725 0.98979 0.04763 0.0
H1196 H 0.94882 0.97995 0.07022 0.0
H1197 H 0.92552 0.96943 0.06122 0.0
H1198 H 0.91531 0.95418 0.09352 0.0
H1199 H 0.93804 0.92818 0.10697 0.0
H1200 H 0.00775 0.15774 0.34589 0.0
H1201 H 0.00703 0.19341 0.33578 0.0
H1202 H 0.97491 0.20825 0.39044 0.0
H1203 H 0.97512 0.17284 0.40035 0.0
H1204 H 0.96027 0.22885 0.35771 0.0
H1205 H 0.04399 0.23493 0.36194 0.0
H1206 H 0.03421 0.21649 0.34464 0.0
H1207 H 0.03053 0.21319 0.3713 0.0
C1208 C 1.00031 0.16859 0.35561 0.0
C1209 C 0.99165 0.16247 0.37402 0.0
C1210 C 1.00003 0.18898 0.34987 0.0
C1211 C 0.99125 0.20355 0.36254 0.0
C1212 C 0.98183 0.1973 0.38044 0.0
H1213 H 0.01109 0.32378 0.39454 0.0
H1214 H 0.01123 0.28775 0.38733 0.0
C1215 C 0.98201 0.17701 0.38612 0.0
C1216 C 0.99258 0.22549 0.35802 0.0
H1217 H 0.02592 0.26479 0.35625 0.0
C1218 C 0.97462 0.23672 0.35705 0.0
C1219 C 0.01133 0.2357 0.3573 0.0
C1220 C 0.03115 0.22456 0.35899 0.0
C1221 C 0.97486 0.25793 0.35642 0.0
C1222 C 0.99362 0.26817 0.35631 0.0
C1223 C 0.01158 0.25689 0.35622 0.0
C1224 C 0.99495 0.29038 0.35914 0.0
C1225 C 0.95505 0.26918 0.35721 0.0
C1226 C 0.98622 0.30399 0.3454 0.0
C1227 C 0.986 0.32476 0.34957 0.0
C1228 C 0.99464 0.33221 0.36748 0.0
C1229 C 0.00421 0.31859 0.38066 0.0
C1230 C 0.00435 0.29794 0.37653 0.0
H1231 H 0.94218 0.25907 0.36092 0.0
H1232 H 0.95564 0.28144 0.36863 0.0
H1233 H 0.95204 0.27616 0.34229 0.0
H1234 H 0.97923 0.29853 0.33168 0.0
H1235 H 0.9786 0.33487 0.33906 0.0
H1236 H 0.9847 0.66822 0.17948 0.0
H1237 H 0.98313 0.70434 0.18766 0.0
H1238 H 0.01798 0.71793 0.13436 0.0
H1239 H 0.02014 0.68211 0.12646 0.0
H1240 H 0.02902 0.74151 0.16579 0.0
H1241 H 0.94543 0.74166 0.1573 0.0
H1242 H 0.95531 0.72523 0.17647 0.0
H1243 H 0.9607 0.72021 0.15037 0.0
C1244 C 0.9923 0.6789 0.1697 0.0
C1245 C 0.00237 0.67229 0.1522 0.0
C1246 C 0.99125 0.69955 0.17431 0.0
C1247 C 1.00005 0.71389 0.16137 0.0
C1248 C 0.01099 0.70718 0.14453 0.0
H1249 H 0.97276 0.83054 0.12133 0.0
H1250 H 0.97489 0.79505 0.13068 0.0
C1251 C 0.01218 0.68664 0.14001 0.0
C1252 C 0.99706 0.73594 0.16436 0.0
H1253 H 0.96115 0.77293 0.16216 0.0
C1254 C 0.01418 0.74841 0.16531 0.0
C1255 C 0.97766 0.74489 0.16357 0.0
C1256 C 0.9587 0.73239 0.16172 0.0
C1257 C 0.01251 0.76955 0.16446 0.0
C1258 C 0.99313 0.77849 0.16315 0.0
C1259 C 0.97597 0.76604 0.16326 0.0
C1260 C 0.99042 0.80037 0.15891 0.0
C1261 C 0.03158 0.78202 0.16364 0.0
C1262 C 0.99795 0.81531 0.17195 0.0
C1263 C 0.99691 0.83576 0.16652 0.0
C1264 C 0.98813 0.84158 0.14808 0.0
C1265 C 0.9797 0.82662 0.13561 0.0
C1266 C 0.98087 0.80628 0.14096 0.0
H1267 H 0.04516 0.77259 0.16082 0.0
H1268 H 0.03057 0.79365 0.1516 0.0
H1269 H 0.03368 0.78986 0.17828 0.0
H1270 H 0.00497 0.81115 0.1861 0.0
H1271 H 0.00343 0.84693 0.17652 0.0
H1272 H 0.39476 0.97172 0.16791 0.0
H1273 H 0.38353 0.97093 0.20286 0.0
H1274 H 0.33226 0.00809 0.18756 0.0
H1275 H 0.34368 0.00928 0.15235 0.0
H1276 H 0.3525 0.023 0.21937 0.0
H1277 H 0.33926 0.9419 0.23263 0.0
H1278 H 0.36368 0.94571 0.22161 0.0
H1279 H 0.34136 0.95239 0.20754 0.0
C1280 C 0.38088 0.97945 0.17183 0.0
C1281 C 0.37014 0.9906 0.15732 0.0
C1282 C 0.37437 0.97882 0.19185 0.0
C1283 C 0.35685 0.98915 0.19781 0.0
C1284 C 0.34573 0.99985 0.18326 0.0
H1285 H 0.33571 0.97743 0.32877 0.0
H1286 H 0.32712 0.97875 0.29273 0.0
C1287 C 0.35226 1.00049 0.16315 0.0
C1288 C 0.35168 0.99045 0.21958 0.0
H1289 H 0.34866 0.96168 0.26223 0.0
C1290 C 0.35117 0.00959 0.22869 0.0
C1291 C 0.3495 0.97303 0.23177 0.0
C1292 C 0.34825 0.95213 0.22282 0.0
C1293 C 0.35025 0.01169 0.24975 0.0
C1294 C 0.35024 0.99419 0.26201 0.0
C1295 C 0.34901 0.97511 0.25286 0.0
C1296 C 0.35398 0.99522 0.28408 0.0
C1297 C 0.34991 0.03265 0.25866 0.0
C1298 C 0.37186 0.00406 0.29116 0.0
C1299 C 0.37678 0.00333 0.31161 0.0
C1300 C 0.364 0.99358 0.32547 0.0
C1301 C 0.34582 0.98513 0.31848 0.0
C1302 C 0.34091 0.98585 0.29791 0.0
H1303 H 0.34256 0.04353 0.24821 0.0
H1304 H 0.34183 0.03295 0.27334 0.0
H1305 H 0.36565 0.03783 0.26111 0.0
H1306 H 0.38245 0.01091 0.28075 0.0
H1307 H 0.39094 0.00992 0.31644 0.0
H1308 H 0.65443 0.50598 0.15657 0.0
H1309 H 0.6639 0.50271 0.19223 0.0
H1310 H 0.60816 0.53154 0.20966 0.0
H1311 H 0.59886 0.53529 0.1743 0.0
H1312 H 0.64006 0.54424 0.23261 0.0
H1313 H 0.63788 0.46032 0.22833 0.0
H1314 H 0.65529 0.47261 0.21155 0.0
H1315 H 0.6286 0.47617 0.20823 0.0
C1316 C 0.64435 0.51188 0.16801 0.0
C1317 C 0.6258 0.52073 0.16259 0.0
C1318 C 0.64971 0.50986 0.18838 0.0
C1319 C 0.63655 0.51651 0.20362 0.0
C1320 C 0.61852 0.52622 0.19817 0.0
H1321 H 0.60505 0.48106 0.32088 0.0
H1322 H 0.61192 0.48544 0.28505 0.0
C1323 C 0.61321 0.52832 0.1779 0.0
C1324 C 0.6407 0.51259 0.22531 0.0
H1325 H 0.64316 0.47468 0.26021 0.0
C1326 C 0.64106 0.52905 0.23866 0.0
C1327 C 0.64182 0.49273 0.23315 0.0
C1328 C 0.64074 0.47439 0.21966 0.0
C1329 C 0.64158 0.5262 0.25967 0.0
C1330 C 0.64222 0.50632 0.26753 0.0
C1331 C 0.6428 0.48989 0.25414 0.0
C1332 C 0.63963 0.50218 0.28941 0.0
C1333 C 0.64017 0.54445 0.27325 0.0
C1334 C 0.65325 0.50961 0.30386 0.0
C1335 C 0.64928 0.50722 0.32451 0.0
C1336 C 0.6317 0.49723 0.331 0.0
C1337 C 0.61868 0.48892 0.31645 0.0
C1338 C 0.62261 0.49138 0.29591 0.0
H1339 H 0.63594 0.55832 0.2648 0.0
H1340 H 0.62887 0.54195 0.28538 0.0
H1341 H 0.65503 0.54712 0.28047 0.0
H1342 H 0.66671 0.51763 0.29918 0.0
H1343 H 0.65966 0.5137 0.33535 0.0
H1344 H 0.32592 0.3775 0.02614 0.0
H1345 H 0.28942 0.37249 0.02664 0.0
H1346 H 0.29286 0.34149 0.96946 0.0
H1347 H 0.32959 0.34574 0.96935 0.0
H1348 H 0.26534 0.38931 0.0007 0.0
H1349 H 0.25209 0.30684 0.99768 0.0
H1350 H 0.27645 0.31749 0.00364 0.0
H1351 H 0.26836 0.31539 0.97779 0.0
C1352 C 0.31895 0.36914 0.01393 0.0
C1353 C 0.33057 0.36205 0.99768 0.0
C1354 C 0.29808 0.3663 0.01422 0.0
C1355 C 0.28831 0.35653 0.99814 0.0
C1356 C 0.30002 0.34865 0.98228 0.0
H1357 H 0.16663 0.38859 0.96395 0.0
H1358 H 0.2028 0.38143 0.96471 0.0
C1359 C 0.32102 0.35119 0.98217 0.0
C1360 C 0.26589 0.35699 0.99687 0.0
H1361 H 0.22379 0.32803 0.98954 0.0
C1362 C 0.2563 0.37584 0.99845 0.0
C1363 C 0.254 0.33944 0.99405 0.0
C1364 C 0.26324 0.31863 0.9934 0.0
C1365 C 0.23529 0.37772 0.99706 0.0
C1366 C 0.22346 0.36033 0.99329 0.0
C1367 C 0.23292 0.34138 0.9921 0.0
C1368 C 0.20124 0.36179 0.99078 0.0
C1369 C 0.22597 0.39833 1.0 0.0
C1370 C 0.18818 0.35208 0.00438 0.0
C1371 C 0.16738 0.35588 0.00375 0.0
C1372 C 0.1594 0.36956 0.9896 0.0
C1373 C 0.17237 0.3782 0.97521 0.0
C1374 C 0.19305 0.37419 0.97567 0.0
H1375 H 0.23622 0.40863 0.00838 0.0
H1376 H 0.22294 0.40522 0.98504 0.0
H1377 H 0.21147 0.39731 0.00837 0.0
H1378 H 0.19417 0.34234 0.01608 0.0
H1379 H 0.15774 0.34899 0.01502 0.0
H1380 H 0.16879 0.61698 0.55088 0.0
H1381 H 0.20457 0.62518 0.54747 0.0
H1382 H 0.19203 0.65718 0.49212 0.0
H1383 H 0.15606 0.64974 0.49596 0.0
H1384 H 0.2272 0.61146 0.51877 0.0
H1385 H 0.23229 0.6948 0.51658 0.0
H1386 H 0.2098 0.68178 0.52477 0.0
H1387 H 0.21479 0.68527 0.49828 0.0
C1388 C 0.17359 0.62622 0.53826 0.0
C1389 C 0.15964 0.6327 0.52367 0.0
C1390 C 0.19406 0.63089 0.53631 0.0
C1391 C 0.20108 0.64191 0.5196 0.0
C1392 C 0.18702 0.64909 0.50541 0.0
H1393 H 0.31999 0.62188 0.4702 0.0
H1394 H 0.28372 0.62559 0.47567 0.0
C1395 C 0.16644 0.64472 0.50756 0.0
C1396 C 0.22317 0.64363 0.51584 0.0
H1397 H 0.26119 0.67659 0.5042 0.0
C1398 C 0.23461 0.62576 0.5158 0.0
C1399 C 0.23296 0.66227 0.51209 0.0
C1400 C 0.22185 0.68213 0.51313 0.0
C1401 C 0.25538 0.62593 0.51183 0.0
C1402 C 0.26499 0.64441 0.50704 0.0
C1403 C 0.25373 0.66239 0.50752 0.0
C1404 C 0.28675 0.64512 0.50168 0.0
C1405 C 0.26687 0.60626 0.51312 0.0
C1406 C 0.30048 0.656 0.51362 0.0
C1407 C 0.3213 0.65421 0.51026 0.0
C1408 C 0.32864 0.64141 0.495 0.0
C1409 C 0.3148 0.63165 0.48224 0.0
C1410 C 0.29406 0.63367 0.48542 0.0
H1411 H 0.25878 0.59497 0.52254 0.0
H1412 H 0.26853 0.59981 0.49775 0.0
H1413 H 0.28217 0.60856 0.51956 0.0
H1414 H 0.29515 0.66505 0.52615 0.0
H1415 H 0.33161 0.66191 0.52033 0.0
H1416 H 0.67903 0.85993 0.45989 0.0
H1417 H 0.715 0.85356 0.46477 0.0
H1418 H 0.70261 0.82807 0.52341 0.0
H1419 H 0.66649 0.83388 0.51835 0.0
H1420 H 0.73577 0.8722 0.49333 0.0
H1421 H 0.74554 0.78973 0.5033 0.0
H1422 H 0.72287 0.80065 0.4928 0.0
H1423 H 0.72664 0.80014 0.51968 0.0
C1424 C 0.68389 0.85245 0.47359 0.0
C1425 C 0.66992 0.84749 0.48877 0.0
C1426 C 0.70448 0.84883 0.47638 0.0
C1427 C 0.71158 0.84027 0.49443 0.0
C1428 C 0.69754 0.8343 0.50918 0.0
H1429 H 0.82712 0.87011 0.54629 0.0
H1430 H 0.79141 0.86335 0.54009 0.0
C1431 C 0.67686 0.83772 0.5063 0.0
C1432 C 0.7336 0.84019 0.49882 0.0
H1433 H 0.77315 0.81064 0.51401 0.0
C1434 C 0.74394 0.85867 0.49767 0.0
C1435 C 0.74433 0.82255 0.5044 0.0
C1436 C 0.73433 0.80211 0.50493 0.0
C1437 C 0.76453 0.86009 0.50224 0.0
C1438 C 0.77508 0.84265 0.50866 0.0
C1439 C 0.76495 0.82404 0.50938 0.0
C1440 C 0.79667 0.84375 0.51451 0.0
C1441 C 0.77486 0.8803 0.49998 0.0
C1442 C 0.81151 0.83403 0.5029 0.0
C1443 C 0.83202 0.83772 0.50654 0.0
C1444 C 0.83796 0.85122 0.52181 0.0
C1445 C 0.82306 0.8598 0.53427 0.0
C1446 C 0.80263 0.856 0.53071 0.0
H1447 H 0.76616 0.89068 0.49007 0.0
H1448 H 0.77623 0.88751 0.51503 0.0
H1449 H 0.79027 0.8785 0.49362 0.0
H1450 H 0.80721 0.82444 0.49038 0.0
H1451 H 0.84313 0.83085 0.49669 0.0
H1452 H 0.54259 0.82252 0.87479 0.0
H1453 H 0.53661 0.78764 0.86499 0.0
H1454 H 0.50194 0.80778 0.81369 0.0
H1455 H 0.50745 0.84298 0.82377 0.0
H1456 H 0.48182 0.78001 0.83423 0.0
H1457 H 0.55902 0.75139 0.82229 0.0
H1458 H 0.5572 0.76324 0.84652 0.0
H1459 H 0.55353 0.77805 0.82396 0.0
C1460 C 0.53402 0.81961 0.86119 0.0
C1461 C 0.5255 0.83558 0.85007 0.0
C1462 C 0.53073 0.79958 0.8555 0.0
C1463 C 0.5191 0.79501 0.83839 0.0
C1464 C 0.51108 0.81093 0.82686 0.0
H1465 H 0.50802 0.66405 0.81796 0.0
H1466 H 0.51325 0.69984 0.80995 0.0
C1467 C 0.51429 0.83104 0.83262 0.0
C1468 C 0.51375 0.77365 0.83394 0.0
H1469 H 0.53393 0.72625 0.83175 0.0
C1470 C 0.49324 0.7683 0.83326 0.0
C1471 C 0.52856 0.75832 0.8322 0.0
C1472 C 0.55079 0.7631 0.83105 0.0
C1473 C 0.48718 0.74799 0.83236 0.0
C1474 C 0.50202 0.73259 0.83268 0.0
C1475 C 0.5225 0.73799 0.83186 0.0
C1476 C 0.49675 0.71098 0.83587 0.0
C1477 C 0.46492 0.74329 0.83144 0.0
C1478 C 0.48557 0.7053 0.85296 0.0
C1479 C 0.48244 0.68494 0.85746 0.0
C1480 C 0.49067 0.66973 0.84515 0.0
C1481 C 0.5014 0.67539 0.82771 0.0
C1482 C 0.50445 0.69584 0.82314 0.0
H1483 H 0.4565 0.75555 0.82366 0.0
H1484 H 0.462 0.72884 0.82346 0.0
H1485 H 0.45888 0.74212 0.84702 0.0
H1486 H 0.47995 0.71661 0.86334 0.0
H1487 H 0.47423 0.68117 0.87109 0.0
H1488 H 0.46944 0.32131 0.61116 0.0
H1489 H 0.47383 0.28546 0.61793 0.0
H1490 H 0.51483 0.29939 0.66653 0.0
H1491 H 0.51091 0.33551 0.65944 0.0
H1492 H 0.5311 0.2728 0.64164 0.0
H1493 H 0.45427 0.24644 0.65958 0.0
H1494 H 0.45416 0.26026 0.63634 0.0
H1495 H 0.46086 0.2729 0.65949 0.0
C1496 C 0.47905 0.31683 0.62361 0.0
C1497 C 0.48987 0.33132 0.63473 0.0
C1498 C 0.48143 0.29625 0.62757 0.0
C1499 C 0.49444 0.28964 0.64294 0.0
C1500 C 0.50461 0.30411 0.65467 0.0
H1501 H 0.50388 0.15707 0.65353 0.0
H1502 H 0.49967 0.19247 0.6637 0.0
C1503 C 0.50231 0.32476 0.65064 0.0
C1504 C 0.49912 0.26775 0.64499 0.0
H1505 H 0.47704 0.22116 0.64561 0.0
C1506 C 0.5193 0.26153 0.64294 0.0
C1507 C 0.48385 0.25294 0.64706 0.0
C1508 C 0.46211 0.25851 0.65097 0.0
C1509 C 0.52442 0.241 0.64152 0.0
C1510 C 0.50892 0.22629 0.64166 0.0
C1511 C 0.48892 0.23242 0.64514 0.0
C1512 C 0.51289 0.20481 0.63648 0.0
C1513 C 0.54639 0.23532 0.63952 0.0
C1514 C 0.52169 0.19996 0.61783 0.0
C1515 C 0.52419 0.17984 0.61205 0.0
C1516 C 0.51772 0.16405 0.62469 0.0
C1517 C 0.50911 0.16887 0.6435 0.0
C1518 C 0.50665 0.18909 0.64931 0.0
H1519 H 0.55627 0.24673 0.64684 0.0
H1520 H 0.54952 0.22032 0.64632 0.0
H1521 H 0.55049 0.23477 0.62328 0.0
H1522 H 0.52612 0.21177 0.60742 0.0
H1523 H 0.53074 0.17671 0.5974 0.0
H1524 H 0.86571 0.55046 0.83097 0.0
H1525 H 0.85799 0.54551 0.7953 0.0
H1526 H 0.82442 0.49164 0.80998 0.0
H1527 H 0.83158 0.4969 0.84582 0.0
H1528 H 0.87163 0.51405 0.77496 0.0
H1529 H 0.78838 0.51615 0.76742 0.0
H1530 H 0.80131 0.52541 0.78955 0.0
H1531 H 0.79684 0.49879 0.78644 0.0
C1532 C 0.85623 0.53785 0.82667 0.0
C1533 C 0.84932 0.52403 0.8412 0.0
C1534 C 0.85184 0.53503 0.80626 0.0
C1535 C 0.84055 0.51824 0.7999 0.0
C1536 C 0.83278 0.50494 0.81449 0.0
H1537 H 0.86034 0.46277 0.68349 0.0
H1538 H 0.85524 0.46918 0.71944 0.0
C1539 C 0.83698 0.50791 0.835 0.0
C1540 C 0.83926 0.51339 0.77802 0.0
H1541 H 0.80676 0.5023 0.73948 0.0
C1542 C 0.8574 0.51164 0.76721 0.0
C1543 C 0.82072 0.51032 0.76784 0.0
C1544 C 0.80069 0.51296 0.77835 0.0
C1545 C 0.8576 0.50673 0.74665 0.0
C1546 C 0.83914 0.50287 0.73664 0.0
C1547 C 0.82091 0.50495 0.74727 0.0
C1548 C 0.83875 0.49705 0.71501 0.0
C1549 C 0.87763 0.50604 0.73578 0.0
C1550 C 0.83004 0.50991 0.70059 0.0
C1551 C 0.8327 0.50613 0.67995 0.0
C1552 C 0.84421 0.48947 0.67348 0.0
C1553 C 0.85161 0.47585 0.68798 0.0
C1554 C 0.84877 0.47953 0.70854 0.0
H1555 H 0.88952 0.51447 0.74408 0.0
H1556 H 0.88264 0.4901 0.73442 0.0
H1557 H 0.87635 0.51248 0.72035 0.0
H1558 H 0.82215 0.52345 0.70527 0.0
H1559 H 0.8268 0.51689 0.66915 0.0
H1560 H 0.12771 0.01885 0.68312 0.0
H1561 H 0.13688 0.01715 0.7186 0.0
H1562 H 0.18813 0.97971 0.70389 0.0
H1563 H 0.1787 0.98096 0.66809 0.0
H1564 H 0.16653 0.96355 0.73379 0.0
H1565 H 0.17966 0.04358 0.75215 0.0
H1566 H 0.15571 0.04082 0.73991 0.0
H1567 H 0.17855 0.03461 0.72644 0.0
C1568 C 0.14115 0.01052 0.68731 0.0
C1569 C 0.15247 1.00002 0.67274 0.0
C1570 C 0.14649 0.00971 0.70765 0.0
C1571 C 0.16342 0.99862 0.71393 0.0
C1572 C 0.1751 0.98852 0.69937 0.0
H1573 H 0.17736 0.00474 0.8459 0.0
H1574 H 0.18778 0.00482 0.81037 0.0
C1575 C 0.16972 0.98928 0.67893 0.0
C1576 C 0.16743 0.99603 0.73584 0.0
H1577 H 0.16833 0.02237 0.78008 0.0
C1578 C 0.1674 0.97641 0.74389 0.0
C1579 C 0.16907 0.01272 0.74907 0.0
C1580 C 0.17099 0.03409 0.74139 0.0
C1581 C 0.16729 0.97312 0.76483 0.0
C1582 C 0.16668 0.98991 0.77804 0.0
C1583 C 0.16842 0.00946 0.77 0.0
C1584 C 0.162 0.98771 0.79987 0.0
C1585 C 0.16733 0.95168 0.77253 0.0
C1586 C 0.14416 0.97795 0.80582 0.0
C1587 C 0.13826 0.97778 0.82604 0.0
C1588 C 0.14991 0.98763 0.84077 0.0
C1589 C 0.16807 0.99696 0.83492 0.0
C1590 C 0.17403 0.99705 0.81463 0.0
H1591 H 0.17551 0.94152 0.76198 0.0
H1592 H 0.17443 0.95056 0.78767 0.0
H1593 H 0.15154 0.94618 0.7736 0.0
H1594 H 0.1343 0.97115 0.79471 0.0
H1595 H 0.12412 0.97055 0.82996 0.0
H1596 H 0.83541 0.13341 0.95779 0.0
H1597 H 0.79933 0.14096 0.95722 0.0
H1598 H 0.80527 0.17402 0.01301 0.0
H1599 H 0.84157 0.16714 0.01322 0.0
H1600 H 0.77457 0.12679 0.98438 0.0
H1601 H 0.76638 0.20996 0.98348 0.0
H1602 H 0.78993 0.19752 0.97765 0.0
H1603 H 0.78248 0.2014 0.00349 0.0
C1604 C 0.82912 0.14276 0.96965 0.0
C1605 C 0.84129 0.14962 0.98559 0.0
C1606 C 0.80849 0.14706 0.96932 0.0
C1607 C 0.79952 0.15814 0.98502 0.0
C1608 C 0.81183 0.16585 1.00048 0.0
H1609 H 0.6777 0.13558 0.02439 0.0
H1610 H 0.71407 0.14113 0.02209 0.0
C1611 C 0.8326 0.1618 0.00064 0.0
C1612 C 0.77713 0.15916 0.98654 0.0
H1613 H 0.73699 0.19099 0.99326 0.0
C1614 C 0.7664 0.14088 0.98611 0.0
C1615 C 0.76637 0.17753 0.98869 0.0
C1616 C 0.77686 0.19772 0.98815 0.0
C1617 C 0.74536 0.14038 0.9881 0.0
C1618 C 0.73468 0.15863 0.99123 0.0
C1619 C 0.74526 0.177 0.99119 0.0
C1620 C 0.71252 0.15859 0.99453 0.0
C1621 C 0.73474 0.12025 0.98661 0.0
C1622 C 0.69948 0.16767 0.98049 0.0
C1623 C 0.67857 0.16476 0.98194 0.0
C1624 C 0.67047 0.15263 0.99738 0.0
C1625 C 0.6835 0.14478 0.01218 0.0
C1626 C 0.7043 0.14788 0.01085 0.0
H1627 H 0.74418 0.10883 0.97872 0.0
H1628 H 0.73158 0.11451 0.00202 0.0
H1629 H 0.72017 0.1217 0.97844 0.0
H1630 H 0.70553 0.17609 0.96784 0.0
H1631 H 0.6689 0.17101 0.97033 0.0
H1632 H 0.04948 0.97567 0.17715 0.0
H1633 H 0.05499 0.99588 0.2074 0.0
H1634 H 0.02679 0.94969 0.24361 0.0
H1635 H 0.02099 0.92933 0.21324 0.0
H1636 H 0.01026 0.98799 0.24891 0.0
H1637 H 0.09366 0.99098 0.25527 0.0
H1638 H 0.08437 0.99746 0.23065 0.0
H1639 H 0.08074 0.9723 0.2402 0.0
C1640 C 0.04478 0.96959 0.19159 0.0
C1641 C 0.03474 0.9509 0.1928 0.0
C1642 C 0.04807 0.98114 0.20889 0.0
C1643 C 0.04148 0.97422 0.22777 0.0
C1644 C 0.03209 0.95524 0.22917 0.0
H1645 H 0.05654 0.02975 0.3448 0.0
H1646 H 0.05936 0.0087 0.31468 0.0
C1647 C 0.02885 0.94361 0.21183 0.0
C1648 C 0.04259 0.98769 0.2456 0.0
H1649 H 0.07512 0.01494 0.27488 0.0
C1650 C 0.02444 0.99378 0.25468 0.0
C1651 C 0.06112 0.99518 0.25309 0.0
C1652 C 0.08111 0.98852 0.24443 0.0
C1653 C 0.02429 0.00742 0.27087 0.0
C1654 C 0.04277 0.01542 0.27796 0.0
C1655 C 0.06097 0.00904 0.26916 0.0
C1656 C 0.04342 0.02955 0.29526 0.0
C1657 C 0.00436 0.01293 0.28045 0.0
C1658 C 0.03424 0.04864 0.29409 0.0
C1659 C 0.03262 0.06079 0.31131 0.0
C1660 C 0.04016 0.05397 0.32994 0.0
C1661 C 0.05046 0.03539 0.3307 0.0
C1662 C 0.05211 0.02333 0.31351 0.0
H1663 H 0.99216 0.00227 0.27612 0.0
H1664 H 0.00564 0.01309 0.29716 0.0
H1665 H 0.99987 0.02828 0.27544 0.0
H1666 H 0.02771 0.05383 0.28003 0.0
H1667 H 0.02463 0.07502 0.31023 0.0
H1668 H 0.97301 0.43488 0.30503 0.0
H1669 H 0.97011 0.45906 0.27723 0.0
H1670 H 0.91989 0.48771 0.30733 0.0
H1671 H 0.92367 0.46438 0.33573 0.0
H1672 H 0.94418 0.46952 0.25059 0.0
H1673 H 0.95491 0.53546 0.30075 0.0
H1674 H 0.95758 0.5099 0.30963 0.0
H1675 H 0.93292 0.52123 0.30745 0.0
C1676 C 0.96118 0.44618 0.30555 0.0
C1677 C 0.94869 0.44791 0.32257 0.0
C1678 C 0.95957 0.46006 0.2897 0.0
C1679 C 0.9452 0.4757 0.29044 0.0
C1680 C 0.93164 0.47636 0.30674 0.0
H1681 H 0.92602 0.54854 0.18151 0.0
H1682 H 0.92075 0.52578 0.21014 0.0
C1683 C 0.93362 0.46285 0.32284 0.0
C1684 C 0.94487 0.49155 0.27446 0.0
H1685 H 0.94608 0.54261 0.26682 0.0
C1686 C 0.94463 0.4855 0.25416 0.0
C1687 C 0.94589 0.51246 0.27904 0.0
C1688 C 0.94807 0.52015 0.30038 0.0
C1689 C 0.94549 0.49964 0.23837 0.0
C1690 C 0.94556 0.52057 0.24295 0.0
C1691 C 0.9457 0.52662 0.26325 0.0
C1692 C 0.94672 0.53637 0.22696 0.0
C1693 C 0.94722 0.49184 0.21702 0.0
C1694 C 0.96196 0.55114 0.22761 0.0
C1695 C 0.96445 0.56474 0.21163 0.0
C1696 C 0.95195 0.56357 0.19457 0.0
C1697 C 0.93598 0.54963 0.19444 0.0
C1698 C 0.93315 0.53642 0.21066 0.0
H1699 H 0.95322 0.47617 0.21663 0.0
H1700 H 0.93203 0.49161 0.20998 0.0
H1701 H 0.95727 0.50155 0.20776 0.0
H1702 H 0.97253 0.55159 0.24008 0.0
H1703 H 0.97697 0.57525 0.21205 0.0
H1704 H 0.18249 0.06407 0.9595 0.0
H1705 H 0.21208 0.07051 0.98055 0.0
H1706 H 0.24228 0.0194 0.95359 0.0
H1707 H 0.21313 0.01369 0.93171 0.0
H1708 H 0.2254 0.04791 0.00869 0.0
H1709 H 0.28801 0.05752 0.95461 0.0
H1710 H 0.26197 0.05763 0.94668 0.0
H1711 H 0.27527 0.0341 0.95013 0.0
C1712 C 0.19571 0.05461 0.95766 0.0
C1713 C 0.19561 0.03847 0.9439 0.0
C1714 C 0.21257 0.05822 0.96977 0.0
C1715 C 0.22956 0.04556 0.96862 0.0
C1716 C 0.22968 0.02978 0.95441 0.0
H1717 H 0.3102 0.01683 0.0666 0.0
H1718 H 0.281 0.02132 0.04452 0.0
C1719 C 0.21296 0.02646 0.94193 0.0
C1720 C 0.24617 0.04765 0.9836 0.0
H1721 H 0.29743 0.04819 0.98848 0.0
C1722 C 0.24115 0.0483 0.00422 0.0
C1723 C 0.26675 0.04848 0.9779 0.0
C1724 C 0.27329 0.04963 0.95611 0.0
C1725 C 0.25606 0.04913 0.01924 0.0
C1726 C 0.27665 0.04847 0.01357 0.0
C1727 C 0.28167 0.04846 0.99294 0.0
C1728 C 0.29328 0.04717 0.02861 0.0
C1729 C 0.24949 0.05095 0.04097 0.0
C1730 C 0.31003 0.06008 0.02706 0.0
C1731 C 0.32693 0.05716 0.03932 0.0
C1732 C 0.3273 0.04149 0.05361 0.0
C1733 C 0.31016 0.02926 0.05596 0.0
C1734 C 0.29342 0.03187 0.04336 0.0
H1735 H 0.23463 0.05865 0.04219 0.0
H1736 H 0.24777 0.03562 0.04752 0.0
H1737 H 0.26065 0.05948 0.0501 0.0
H1738 H 0.31033 0.072 0.01586 0.0
H1739 H 0.33999 0.06678 0.03717 0.0
H1740 H 0.69258 0.49219 0.07058 0.0
H1741 H 0.72238 0.48788 0.04897 0.0
H1742 H 0.68503 0.462 0.00241 0.0
H1743 H 0.65531 0.46613 0.02382 0.0
H1744 H 0.72346 0.44215 0.00825 0.0
H1745 H 0.72945 0.52542 0.99881 0.0
H1746 H 0.72913 0.51648 0.02444 0.0
H1747 H 0.70716 0.51339 0.00887 0.0
C1748 C 0.69079 0.48524 0.05589 0.0
C1749 C 0.67158 0.47967 0.04883 0.0
C1750 C 0.70778 0.48291 0.04353 0.0
C1751 C 0.7058 0.47492 0.02399 0.0
C1752 C 0.68684 0.46828 0.0174 0.0
H1753 H 0.78896 0.49431 0.92431 0.0
H1754 H 0.75823 0.48958 0.9444 0.0
C1755 C 0.66988 0.47069 0.02966 0.0
C1756 C 0.72312 0.47462 0.00987 0.0
H1757 H 0.75476 0.50556 0.98346 0.0
C1758 C 0.73035 0.45598 0.00283 0.0
C1759 C 0.73175 0.49273 0.00253 0.0
C1760 C 0.72393 0.51318 0.00887 0.0
C1761 C 0.74634 0.45498 0.9889 0.0
C1762 C 0.75532 0.47308 0.982 0.0
C1763 C 0.74783 0.4917 0.98879 0.0
C1764 C 0.77311 0.47319 0.96843 0.0
C1765 C 0.75334 0.43459 0.98154 0.0
C1766 C 0.79152 0.46516 0.97509 0.0
C1767 C 0.80904 0.46783 0.96368 0.0
C1768 C 0.8085 0.47867 0.94542 0.0
C1769 C 0.78985 0.4858 0.93825 0.0
C1770 C 0.77231 0.48319 0.94974 0.0
H1771 H 0.74162 0.42281 0.98386 0.0
H1772 H 0.75733 0.43514 0.96527 0.0
H1773 H 0.767 0.43004 0.9901 0.0
H1774 H 0.79255 0.45768 0.9896 0.0
H1775 H 0.82318 0.46218 0.96965 0.0
H1776 H 0.29866 0.96087 0.42651 0.0
H1777 H 0.2707 0.95731 0.45058 0.0
H1778 H 0.31157 0.93219 0.49456 0.0
H1779 H 0.33952 0.93569 0.47072 0.0
H1780 H 0.27152 0.91254 0.49137 0.0
H1781 H 0.26926 0.99598 0.50123 0.0
H1782 H 0.26791 0.9869 0.47568 0.0
H1783 H 0.29055 0.98311 0.49007 0.0
C1784 C 0.30161 0.95423 0.44116 0.0
C1785 C 0.32132 0.94872 0.44678 0.0
C1786 C 0.28566 0.95231 0.45491 0.0
C1787 C 0.28918 0.94473 0.4744 0.0
C1788 C 0.30858 0.93813 0.47961 0.0
H1789 H 0.21421 0.96599 0.58026 0.0
H1790 H 0.24323 0.96047 0.55791 0.0
C1791 C 0.32453 0.94018 0.46596 0.0
C1792 C 0.27304 0.94498 0.48987 0.0
H1793 H 0.24465 0.97698 0.51862 0.0
C1794 C 0.26559 0.9266 0.49734 0.0
C1795 C 0.26569 0.96336 0.49789 0.0
C1796 C 0.27382 0.9835 0.49098 0.0
C1797 C 0.25058 0.92614 0.51235 0.0
C1798 C 0.24285 0.94454 0.51996 0.0
C1799 C 0.25062 0.96289 0.51275 0.0
C1800 C 0.22602 0.94526 0.5347 0.0
C1801 C 0.24324 0.90601 0.52006 0.0
C1802 C 0.20685 0.93823 0.5292 0.0
C1803 C 0.19029 0.94139 0.54187 0.0
C1804 C 0.19258 0.95171 0.56029 0.0
C1805 C 0.21198 0.95791 0.56623 0.0
C1806 C 0.22855 0.95483 0.55345 0.0
H1807 H 0.25419 0.89373 0.51676 0.0
H1808 H 0.24052 0.90654 0.53659 0.0
H1809 H 0.22877 0.9022 0.51255 0.0
H1810 H 0.20449 0.93111 0.51468 0.0
H1811 H 0.17555 0.93645 0.53684 0.0
H1812 H 0.78225 0.51996 0.58478 0.0
H1813 H 0.75338 0.52515 0.56218 0.0
H1814 H 0.79119 0.5589 0.52135 0.0
H1815 H 0.82005 0.55383 0.54376 0.0
H1816 H 0.74961 0.57453 0.52728 0.0
H1817 H 0.75451 0.49308 0.5071 0.0
H1818 H 0.75267 0.4988 0.53358 0.0
H1819 H 0.77474 0.50625 0.51974 0.0
C1820 C 0.78429 0.52893 0.57125 0.0
C1821 C 0.80346 0.53633 0.56595 0.0
C1822 C 0.76782 0.53177 0.55831 0.0
C1823 C 0.77029 0.54214 0.53998 0.0
C1824 C 0.78903 0.55079 0.53539 0.0
H1825 H 0.69754 0.52855 0.4316 0.0
H1826 H 0.72579 0.53343 0.45503 0.0
C1827 C 0.8055 0.54785 0.54822 0.0
C1828 C 0.75397 0.54242 0.52472 0.0
H1829 H 0.72836 0.51194 0.49204 0.0
C1830 C 0.74489 0.56088 0.51958 0.0
C1831 C 0.7482 0.52462 0.51445 0.0
C1832 C 0.75809 0.50454 0.51881 0.0
C1833 C 0.72982 0.5619 0.50467 0.0
C1834 C 0.72373 0.544 0.49475 0.0
C1835 C 0.73308 0.52563 0.49967 0.0
C1836 C 0.70711 0.5437 0.47978 0.0
C1837 C 0.72069 0.58211 0.49949 0.0
C1838 C 0.68734 0.54815 0.48586 0.0
C1839 C 0.67123 0.54533 0.47258 0.0
C1840 C 0.67457 0.53796 0.45294 0.0
C1841 C 0.69449 0.53435 0.44657 0.0
C1842 C 0.71062 0.53706 0.45995 0.0
H1843 H 0.73039 0.59481 0.50458 0.0
H1844 H 0.71821 0.58349 0.48297 0.0
H1845 H 0.70583 0.58355 0.5071 0.0
H1846 H 0.68425 0.55297 0.50118 0.0
H1847 H 0.65606 0.54823 0.47797 0.0
H1848 H 0.03513 0.33786 0.0625 0.0
H1849 H 0.01359 0.30858 0.06887 0.0
H1850 H 0.04207 0.27703 0.01946 0.0
H1851 H 0.06438 0.30588 0.01384 0.0
H1852 H 0.9861 0.29461 0.04596 0.0
H1853 H 0.03989 0.23229 0.05871 0.0
H1854 H 0.04782 0.25833 0.05837 0.0
H1855 H 0.04509 0.24443 0.03512 0.0
C1856 C 0.03716 0.32443 0.05339 0.0
C1857 C 0.0515 0.32405 0.03777 0.0
C1858 C 0.02478 0.30773 0.05697 0.0
C1859 C 0.02625 0.29043 0.04479 0.0
C1860 C 0.04097 0.28988 0.02949 0.0
H1861 H 0.92954 0.20918 0.0145 0.0
H1862 H 0.9512 0.23858 0.01951 0.0
C1863 C 0.0537 0.30643 0.02621 0.0
C1864 C 0.01121 0.27386 0.0469 0.0
H1865 H 0.00633 0.2226 0.04852 0.0
C1866 C 0.99057 0.27887 0.04685 0.0
C1867 C 0.01688 0.2533 0.04842 0.0
C1868 C 0.03864 0.24681 0.05039 0.0
C1869 C 0.97553 0.26395 0.04759 0.0
C1870 C 0.98123 0.24334 0.04756 0.0
C1871 C 0.00186 0.23836 0.0483 0.0
C1872 C 0.96624 0.22666 0.04602 0.0
C1873 C 0.95374 0.27054 0.04863 0.0
C1874 C 0.96741 0.21002 0.05914 0.0
C1875 C 0.95539 0.19299 0.05595 0.0
C1876 C 0.94172 0.19236 0.03976 0.0
C1877 C 0.93968 0.20941 0.02732 0.0
C1878 C 0.95205 0.22628 0.03023 0.0
H1879 H 0.95229 0.28551 0.05607 0.0
H1880 H 0.9477 0.27206 0.03309 0.0
H1881 H 0.94433 0.25948 0.05701 0.0
H1882 H 0.97818 0.20991 0.07144 0.0
H1883 H 0.95731 0.18001 0.06574 0.0
H1884 H 0.07241 0.69578 0.49124 0.0
H1885 H 0.05073 0.72541 0.48617 0.0
H1886 H 0.00632 0.68804 0.45677 0.0
H1887 H 0.02782 0.65847 0.46166 0.0
H1888 H 0.01242 0.72765 0.43863 0.0
H1889 H 0.99842 0.72963 0.5214 0.0
H1890 H 0.02448 0.73015 0.51382 0.0
H1891 H 0.00952 0.70808 0.50895 0.0
C1892 C 0.05824 0.69397 0.48329 0.0
C1893 C 0.05174 0.67476 0.47703 0.0
C1894 C 0.04583 0.71087 0.48052 0.0
C1895 C 0.0268 0.7088 0.4714 0.0
C1896 C 0.02091 0.68992 0.46392 0.0
H1897 H 0.92411 0.78865 0.48922 0.0
H1898 H 0.94522 0.75865 0.48407 0.0
C1899 C 0.03322 0.67304 0.46676 0.0
C1900 C 0.0123 0.72584 0.47107 0.0
H1901 H 0.98343 0.75539 0.50188 0.0
C1902 C 0.00608 0.73378 0.45243 0.0
C1903 C 0.00377 0.73346 0.48909 0.0
C1904 C 0.0092 0.72484 0.50948 0.0
C1905 C 0.99182 0.74948 0.45138 0.0
C1906 C 0.9837 0.75744 0.46945 0.0
C1907 C 0.98968 0.74924 0.48805 0.0
C1908 C 0.96964 0.77488 0.46964 0.0
C1909 C 0.98539 0.75726 0.43098 0.0
C1910 C 0.97619 0.79382 0.46284 0.0
C1911 C 0.9642 0.81093 0.46576 0.0
C1912 C 0.94543 0.80944 0.47562 0.0
C1913 C 0.93842 0.79028 0.48147 0.0
C1914 C 0.9505 0.77315 0.47862 0.0
H1915 H 0.98866 0.74617 0.41883 0.0
H1916 H 0.96901 0.76084 0.4308 0.0
H1917 H 0.99382 0.77133 0.42755 0.0
H1918 H 0.99103 0.79557 0.45619 0.0
H1919 H 0.97007 0.82547 0.46111 0.0
H1920 H 0.58345 0.79411 0.51951 0.0
H1921 H 0.56049 0.76533 0.52325 0.0
H1922 H 0.52133 0.80122 0.56085 0.0
H1923 H 0.54409 0.83007 0.55716 0.0
H1924 H 0.52798 0.75738 0.5728 0.0
H1925 H 0.50347 0.7708 0.49357 0.0
H1926 H 0.53022 0.76883 0.49785 0.0
H1927 H 0.51647 0.78973 0.50825 0.0
C1928 C 0.57025 0.79573 0.52903 0.0
C1929 C 0.56552 0.81443 0.53792 0.0
C1930 C 0.55709 0.77931 0.53105 0.0
C1931 C 0.53911 0.78129 0.54209 0.0
C1932 C 0.53511 0.79944 0.5522 0.0
H1933 H 0.43051 0.70847 0.52647 0.0
H1934 H 0.45376 0.73668 0.53251 0.0
C1935 C 0.54815 0.8159 0.55008 0.0
C1936 C 0.52361 0.76518 0.54158 0.0
H1937 H 0.48943 0.74267 0.5103 0.0
C1938 C 0.51953 0.75412 0.55917 0.0
C1939 C 0.51237 0.7613 0.52386 0.0
C1940 C 0.51566 0.77334 0.5048 0.0
C1941 C 0.50477 0.73884 0.55934 0.0
C1942 C 0.49394 0.73455 0.54144 0.0
C1943 C 0.49775 0.74597 0.524 0.0
C1944 C 0.47926 0.71769 0.54008 0.0
C1945 C 0.50078 0.72753 0.5787 0.0
C1946 C 0.48583 0.69771 0.54251 0.0
C1947 C 0.47264 0.68163 0.53904 0.0
C1948 C 0.45259 0.68519 0.533 0.0
C1949 C 0.44581 0.70524 0.53121 0.0
C1950 C 0.45909 0.72135 0.5346 0.0
H1951 H 0.5061 0.73612 0.59208 0.0
H1952 H 0.48443 0.72429 0.58051 0.0
H1953 H 0.50898 0.71292 0.57832 0.0
H1954 H 0.5014 0.69451 0.54635 0.0
H1955 H 0.47838 0.66638 0.54051 0.0
H1956 H 0.51093 0.56721 0.78332 0.0
H1957 H 0.5153 0.54261 0.75608 0.0
H1958 H 0.56079 0.5118 0.79113 0.0
H1959 H 0.55544 0.53558 0.81886 0.0
H1960 H 0.54302 0.53037 0.7321 0.0
H1961 H 0.52407 0.46586 0.78167 0.0
H1962 H 0.52189 0.49166 0.78997 0.0
H1963 H 0.546 0.479 0.79046 0.0
C1964 C 0.52207 0.55535 0.78505 0.0
C1965 C 0.53273 0.55316 0.80322 0.0
C1966 C 0.52451 0.54122 0.76951 0.0
C1967 C 0.53789 0.52487 0.77177 0.0
C1968 C 0.54975 0.52372 0.78931 0.0
H1969 H 0.56499 0.44959 0.6663 0.0
H1970 H 0.56815 0.47262 0.69501 0.0
C1971 C 0.54691 0.53749 0.80504 0.0
C1972 C 0.53895 0.50879 0.75606 0.0
H1973 H 0.53631 0.45771 0.74901 0.0
C1974 C 0.5415 0.51448 0.73581 0.0
C1975 C 0.53651 0.48802 0.76077 0.0
C1976 C 0.53174 0.48078 0.78186 0.0
C1977 C 0.54167 0.50013 0.7202 0.0
C1978 C 0.54029 0.47929 0.72502 0.0
C1979 C 0.53774 0.4736 0.74528 0.0
C1980 C 0.54022 0.46327 0.70922 0.0
C1981 C 0.54245 0.50763 0.69868 0.0
C1982 C 0.52446 0.44905 0.70852 0.0
C1983 C 0.52312 0.43528 0.69257 0.0
C1984 C 0.53733 0.4357 0.67684 0.0
C1985 C 0.55375 0.44905 0.67817 0.0
C1986 C 0.55539 0.46244 0.69441 0.0
H1987 H 0.53711 0.5235 0.69748 0.0
H1988 H 0.55828 0.5072 0.69325 0.0
H1989 H 0.53305 0.49814 0.68857 0.0
H1990 H 0.51264 0.44919 0.71983 0.0
H1991 H 0.5102 0.42527 0.69185 0.0
H1992 H 0.50063 0.92049 0.78655 0.0
H1993 H 0.49676 0.94149 0.75626 0.0
H1994 H 0.46125 0.98421 0.79019 0.0
H1995 H 0.46501 0.96342 0.82043 0.0
H1996 H 0.44721 0.97561 0.74876 0.0
H1997 H 0.52828 0.99683 0.75483 0.0
H1998 H 0.52283 0.97022 0.75448 0.0
H1999 H 0.51458 0.98533 0.7754 0.0
C2000 C 0.49161 0.93411 0.78743 0.0
C2001 C 0.48328 0.9404 0.8059 0.0
C2002 C 0.48952 0.94613 0.77017 0.0
C2003 C 0.47898 0.96452 0.77113 0.0
C2004 C 0.46951 0.97012 0.78919 0.0
H2005 H 0.49309 0.06854 0.69195 0.0
H2006 H 0.48816 0.04676 0.72155 0.0
C2007 C 0.4717 0.95821 0.80645 0.0
C2008 C 0.47914 0.97875 0.7539 0.0
H2009 H 0.51015 0.01009 0.72721 0.0
C2010 C 0.46095 0.98313 0.74398 0.0
C2011 C 0.49703 0.98881 0.74804 0.0
C2012 C 0.5168 0.98526 0.75879 0.0
C2013 C 0.46028 0.99707 0.72799 0.0
C2014 C 0.47828 0.00677 0.72182 0.0
C2015 C 0.49638 0.00263 0.732 0.0
C2016 C 0.47895 0.02062 0.70427 0.0
C2017 C 0.44034 0.00149 0.71794 0.0
C2018 C 0.4752 0.01316 0.68485 0.0
C2019 C 0.47806 0.02548 0.66799 0.0
C2020 C 0.48476 0.04552 0.67023 0.0
C2021 C 0.48781 0.05322 0.68975 0.0
C2022 C 0.48507 0.04079 0.70665 0.0
H2023 H 0.42738 0.99686 0.72755 0.0
H2024 H 0.4389 0.01782 0.71439 0.0
H2025 H 0.43943 0.99296 0.70356 0.0
H2026 H 0.4708 0.99756 0.68266 0.0
H2027 H 0.4756 0.01909 0.65315 0.0
H2028 H 0.42382 0.29796 0.96132 0.0
H2029 H 0.44694 0.26935 0.95685 0.0
H2030 H 0.4889 0.30797 0.92549 0.0
H2031 H 0.46596 0.33655 0.92979 0.0
H2032 H 0.48451 0.26733 0.90879 0.0
H2033 H 0.49999 0.26909 0.99128 0.0
H2034 H 0.47385 0.26708 0.98425 0.0
H2035 H 0.48767 0.28963 0.97825 0.0
C2036 C 0.43776 0.30025 0.95307 0.0
C2037 C 0.44315 0.31956 0.94608 0.0
C2038 C 0.45099 0.28393 0.95064 0.0
C2039 C 0.46975 0.28666 0.94113 0.0
C2040 C 0.47454 0.30558 0.93295 0.0
H2041 H 0.57639 0.21226 0.95971 0.0
H2042 H 0.55378 0.24103 0.95399 0.0
C2043 C 0.4614 0.3219 0.93545 0.0
C2044 C 0.48509 0.27036 0.94113 0.0
H2045 H 0.51575 0.24327 0.97247 0.0
C2046 C 0.49134 0.26202 0.92268 0.0
C2047 C 0.49426 0.26381 0.95926 0.0
C2048 C 0.48878 0.27293 0.97941 0.0
C2049 C 0.50626 0.24691 0.92196 0.0
C2050 C 0.51502 0.23997 0.94016 0.0
C2051 C 0.50901 0.24861 0.95854 0.0
C2052 C 0.52985 0.22318 0.94074 0.0
C2053 C 0.51268 0.23864 0.90175 0.0
C2054 C 0.52405 0.20371 0.93481 0.0
C2055 C 0.5369 0.18729 0.93808 0.0
C2056 C 0.55579 0.19001 0.9474 0.0
C2057 C 0.56199 0.20967 0.95241 0.0
C2058 C 0.54906 0.22611 0.94922 0.0
H2059 H 0.50869 0.24909 0.88924 0.0
H2060 H 0.52921 0.23582 0.90138 0.0
H2061 H 0.50487 0.22407 0.89904 0.0
H2062 H 0.50919 0.20104 0.92856 0.0
H2063 H 0.53164 0.17233 0.93407 0.0
loop_
_geom_bond_atom_site_label_1
_geom_bond_atom_site_label_2
_geom_bond_distance
_geom_bond_site_symmetry_2
_ccdc_geom_bond_type
O0 Cd1 2.223 1_455 S
O0 C8 1.315 . S
Cd1 O0 2.223 1_655 S
Cd1 O4 2.297 . S
Cd1 O5 2.439 . S
Cd1 O11 2.240 . S
Cd2 O3 2.240 . S
Cd2 O10 2.204 1_455 S
Cd2 O12 2.297 . S
Cd2 O13 2.439 1_455 S
O3 Cd2 2.240 . S
O3 C8 1.279 . S
O4 Cd1 2.297 . S
O4 C6 1.247 . S
O5 Cd1 2.439 . S
O5 C6 1.208 . S
C6 O4 1.247 . S
C6 O5 1.208 . S
C7 O12 1.233 1_655 S
C7 O13 1.211 . S
C8 O0 1.315 . S
C8 O3 1.279 . S
C9 O10 1.345 . S
C9 O11 1.279 . S
O10 Cd2 2.204 1_655 S
O10 C9 1.345 . S
O11 Cd1 2.240 . S
O11 C9 1.279 . S
O12 Cd2 2.297 . S
O12 C7 1.233 1_455 S
O13 Cd2 2.439 1_655 S
O13 C7 1.211 . S
O14 Cd15 2.223 1_655 S
O14 C22 1.315 . S
Cd15 O14 2.223 1_455 S
Cd15 O18 2.297 . S
Cd15 O19 2.439 . S
Cd15 O25 2.240 . S
Cd16 O17 2.240 . S
Cd16 O24 2.238 . S
Cd16 O26 2.297 . S
Cd16 O27 2.424 1_655 S
O17 Cd16 2.240 . S
O17 C22 1.279 . S
O18 Cd15 2.297 . S
O18 C20 1.247 . S
O19 Cd15 2.439 . S
O19 C20 1.208 . S
C20 O18 1.247 . S
C20 O19 1.208 . S
C21 O26 1.263 . S
C21 O27 1.206 1_655 S
C22 O14 1.315 . S
C22 O17 1.279 . S
C23 O24 1.291 1_455 S
C23 O25 1.279 . S
O24 Cd16 2.238 . S
O24 C23 1.291 1_655 S
O25 Cd15 2.240 . S
O25 C23 1.279 . S
O26 Cd16 2.297 . S
O26 C21 1.263 . S
O27 Cd16 2.424 1_455 S
O27 C21 1.206 1_455 S
O28 Cd29 2.223 1_455 S
O28 C36 1.315 . S
Cd29 O28 2.223 1_655 S
Cd29 O32 2.297 . S
Cd29 O33 2.439 . S
Cd29 O39 2.240 . S
Cd30 O31 2.240 . S
Cd30 O38 2.213 1_455 S
Cd30 O40 2.297 . S
Cd30 O41 2.441 . S
O31 Cd30 2.240 . S
O31 C36 1.279 . S
O32 Cd29 2.297 . S
O32 C34 1.247 . S
O33 Cd29 2.439 . S
O33 C34 1.208 . S
C34 O32 1.247 . S
C34 O33 1.208 . S
C35 O40 1.247 . S
C35 O41 1.209 . S
C36 O28 1.315 . S
C36 O31 1.279 . S
C37 O38 1.331 . S
C37 O39 1.279 . S
O38 Cd30 2.213 1_655 S
O38 C37 1.331 . S
O39 Cd29 2.240 . S
O39 C37 1.279 . S
O40 Cd30 2.297 . S
O40 C35 1.247 . S
O41 Cd30 2.441 . S
O41 C35 1.209 . S
O42 Cd43 2.223 1_655 S
O42 C50 1.315 . S
Cd43 O42 2.223 1_455 S
Cd43 O46 2.297 . S
Cd43 O47 2.439 . S
Cd43 O53 2.240 . S
Cd44 O45 2.240 . S
Cd44 O52 2.243 . S
Cd44 O54 2.297 . S
Cd44 O55 2.468 . S
O45 Cd44 2.240 . S
O45 C50 1.279 . S
O46 Cd43 2.297 . S
O46 C48 1.247 . S
O47 Cd43 2.439 . S
O47 C48 1.208 . S
C48 O46 1.247 . S
C48 O47 1.208 . S
C49 O54 1.247 . S
C49 O55 1.215 . S
C50 O42 1.315 . S
C50 O45 1.279 . S
C51 O52 1.283 1_455 S
C51 O53 1.279 . S
O52 Cd44 2.243 . S
O52 C51 1.283 1_655 S
O53 Cd43 2.240 . S
O53 C51 1.279 . S
O54 Cd44 2.297 . S
O54 C49 1.247 . S
O55 Cd44 2.468 . S
O55 C49 1.215 . S
O56 Cd57 2.223 1_545 S
O56 C64 1.315 . S
Cd57 O56 2.223 1_565 S
Cd57 O60 2.297 . S
Cd57 O61 2.439 . S
Cd57 O67 2.240 . S
Cd58 O59 2.240 . S
Cd58 O66 2.204 1_545 S
Cd58 O68 2.297 . S
Cd58 O69 2.439 1_545 S
O59 Cd58 2.240 . S
O59 C64 1.279 . S
O60 Cd57 2.297 . S
O60 C62 1.247 . S
O61 Cd57 2.439 . S
O61 C62 1.208 . S
C62 O60 1.247 . S
C62 O61 1.208 . S
C63 O68 1.233 1_565 S
C63 O69 1.211 . S
C64 O56 1.315 . S
C64 O59 1.279 . S
C65 O66 1.345 . S
C65 O67 1.279 . S
O66 Cd58 2.204 1_565 S
O66 C65 1.345 . S
O67 Cd57 2.240 . S
O67 C65 1.279 . S
O68 Cd58 2.297 . S
O68 C63 1.233 1_545 S
O69 Cd58 2.439 1_565 S
O69 C63 1.211 . S
O70 Cd71 2.223 . S
O70 C78 1.315 . S
Cd71 O70 2.223 . S
Cd71 O74 2.297 . S
Cd71 O75 2.439 . S
Cd71 O81 2.240 . S
Cd72 O73 2.240 . S
Cd72 O80 2.223 . S
Cd72 O82 2.297 . S
Cd72 O83 2.439 . S
O73 Cd72 2.240 . S
O73 C78 1.279 . S
O74 Cd71 2.297 . S
O74 C76 1.247 . S
O75 Cd71 2.439 . S
O75 C76 1.208 . S
C76 O74 1.247 . S
C76 O75 1.208 . S
C77 O82 1.247 . S
C77 O83 1.208 . S
C78 O70 1.315 . S
C78 O73 1.279 . S
C79 O80 1.315 . S
C79 O81 1.279 . S
O80 Cd72 2.223 . S
O80 C79 1.315 . S
O81 Cd71 2.240 . S
O81 C79 1.279 . S
O82 Cd72 2.297 . S
O82 C77 1.247 . S
O83 Cd72 2.439 . S
O83 C77 1.208 . S
O84 Cd85 2.223 1_565 S
O84 C92 1.315 . S
Cd85 O84 2.223 1_545 S
Cd85 O88 2.297 . S
Cd85 O89 2.439 . S
Cd85 O95 2.240 . S
Cd86 O87 2.240 . S
Cd86 O94 2.238 . S
Cd86 O96 2.297 . S
Cd86 O97 2.424 1_565 S
O87 Cd86 2.240 . S
O87 C92 1.279 . S
O88 Cd85 2.297 . S
O88 C90 1.247 . S
O89 Cd85 2.439 . S
O89 C90 1.208 . S
C90 O88 1.247 . S
C90 O89 1.208 . S
C91 O96 1.263 . S
C91 O97 1.206 1_565 S
C92 O84 1.315 . S
C92 O87 1.279 . S
C93 O94 1.291 1_545 S
C93 O95 1.279 . S
O94 Cd86 2.238 . S
O94 C93 1.291 1_565 S
O95 Cd85 2.240 . S
O95 C93 1.279 . S
O96 Cd86 2.297 . S
O96 C91 1.263 . S
O97 Cd86 2.424 1_545 S
O97 C91 1.206 1_545 S
O98 Cd99 2.223 . S
O98 C106 1.315 . S
Cd99 O98 2.223 . S
Cd99 O102 2.297 . S
Cd99 O103 2.439 . S
Cd99 O109 2.240 . S
Cd100 O101 2.240 . S
Cd100 O108 2.223 . S
Cd100 O110 2.297 . S
Cd100 O111 2.439 . S
O101 Cd100 2.240 . S
O101 C106 1.279 . S
O102 Cd99 2.297 . S
O102 C104 1.247 . S
O103 Cd99 2.439 . S
O103 C104 1.208 . S
C104 O102 1.247 . S
C104 O103 1.208 . S
C105 O110 1.247 . S
C105 O111 1.208 . S
C106 O98 1.315 . S
C106 O101 1.279 . S
C107 O108 1.315 . S
C107 O109 1.279 . S
O108 Cd100 2.223 . S
O108 C107 1.315 . S
O109 Cd99 2.240 . S
O109 C107 1.279 . S
O110 Cd100 2.297 . S
O110 C105 1.247 . S
O111 Cd100 2.439 . S
O111 C105 1.208 . S
O112 Cd113 2.223 1_554 S
O112 C120 1.315 . S
Cd113 O112 2.223 1_556 S
Cd113 O116 2.297 . S
Cd113 O117 2.439 . S
Cd113 O123 2.240 . S
Cd114 O115 2.240 . S
Cd114 O122 2.204 1_554 S
Cd114 O124 2.297 . S
Cd114 O125 2.439 1_554 S
O115 Cd114 2.240 . S
O115 C120 1.279 . S
O116 Cd113 2.297 . S
O116 C118 1.247 . S
O117 Cd113 2.439 . S
O117 C118 1.208 . S
C118 O116 1.247 . S
C118 O117 1.208 . S
C119 O124 1.233 1_556 S
C119 O125 1.211 . S
C120 O112 1.315 . S
C120 O115 1.279 . S
C121 O122 1.345 . S
C121 O123 1.279 . S
O122 Cd114 2.204 1_556 S
O122 C121 1.345 . S
O123 Cd113 2.240 . S
O123 C121 1.279 . S
O124 Cd114 2.297 . S
O124 C119 1.233 1_554 S
O125 Cd114 2.439 1_556 S
O125 C119 1.211 . S
O126 Cd127 2.223 . S
O126 C134 1.315 . S
Cd127 O126 2.223 . S
Cd127 O130 2.297 . S
Cd127 O131 2.439 . S
Cd127 O137 2.240 . S
Cd128 O129 2.240 . S
Cd128 O136 2.223 . S
Cd128 O138 2.297 . S
Cd128 O139 2.439 . S
O129 Cd128 2.240 . S
O129 C134 1.279 . S
O130 Cd127 2.297 . S
O130 C132 1.247 . S
O131 Cd127 2.439 . S
O131 C132 1.208 . S
C132 O130 1.247 . S
C132 O131 1.208 . S
C133 O138 1.247 . S
C133 O139 1.208 . S
C134 O126 1.315 . S
C134 O129 1.279 . S
C135 O136 1.315 . S
C135 O137 1.279 . S
O136 Cd128 2.223 . S
O136 C135 1.315 . S
O137 Cd127 2.240 . S
O137 C135 1.279 . S
O138 Cd128 2.297 . S
O138 C133 1.247 . S
O139 Cd128 2.439 . S
O139 C133 1.208 . S
O140 Cd141 2.223 . S
O140 C148 1.315 . S
Cd141 O140 2.223 . S
Cd141 O144 2.297 . S
Cd141 O145 2.439 . S
Cd141 O151 2.240 . S
Cd142 O143 2.240 . S
Cd142 O150 2.223 . S
Cd142 O152 2.297 . S
Cd142 O153 2.439 . S
O143 Cd142 2.240 . S
O143 C148 1.279 . S
O144 Cd141 2.297 . S
O144 C146 1.247 . S
O145 Cd141 2.439 . S
O145 C146 1.208 . S
C146 O144 1.247 . S
C146 O145 1.208 . S
C147 O152 1.247 . S
C147 O153 1.208 . S
C148 O140 1.315 . S
C148 O143 1.279 . S
C149 O150 1.315 . S
C149 O151 1.279 . S
O150 Cd142 2.223 . S
O150 C149 1.315 . S
O151 Cd141 2.240 . S
O151 C149 1.279 . S
O152 Cd142 2.297 . S
O152 C147 1.247 . S
O153 Cd142 2.439 . S
O153 C147 1.208 . S
O154 Cd155 2.223 . S
O154 C162 1.315 . S
Cd155 O154 2.223 . S
Cd155 O158 2.297 . S
Cd155 O159 2.439 . S
Cd155 O165 2.240 . S
Cd156 O157 2.240 . S
Cd156 O164 2.223 . S
Cd156 O166 2.297 . S
Cd156 O167 2.439 . S
O157 Cd156 2.240 . S
O157 C162 1.279 . S
O158 Cd155 2.297 . S
O158 C160 1.247 . S
O159 Cd155 2.439 . S
O159 C160 1.208 . S
C160 O158 1.247 . S
C160 O159 1.208 . S
C161 O166 1.247 . S
C161 O167 1.208 . S
C162 O154 1.315 . S
C162 O157 1.279 . S
C163 O164 1.315 . S
C163 O165 1.279 . S
O164 Cd156 2.223 . S
O164 C163 1.315 . S
O165 Cd155 2.240 . S
O165 C163 1.279 . S
O166 Cd156 2.297 . S
O166 C161 1.247 . S
O167 Cd156 2.439 . S
O167 C161 1.208 . S
O168 Cd169 2.223 . S
O168 C176 1.315 . S
Cd169 O168 2.223 . S
Cd169 O172 2.297 . S
Cd169 O173 2.439 . S
Cd169 O179 2.240 . S
Cd170 O171 2.240 . S
Cd170 O178 2.223 . S
Cd170 O180 2.297 . S
Cd170 O181 2.439 . S
O171 Cd170 2.240 . S
O171 C176 1.279 . S
O172 Cd169 2.297 . S
O172 C174 1.247 . S
O173 Cd169 2.439 . S
O173 C174 1.208 . S
C174 O172 1.247 . S
C174 O173 1.208 . S
C175 O180 1.247 . S
C175 O181 1.208 . S
C176 O168 1.315 . S
C176 O171 1.279 . S
C177 O178 1.315 . S
C177 O179 1.279 . S
O178 Cd170 2.223 . S
O178 C177 1.315 . S
O179 Cd169 2.240 . S
O179 C177 1.279 . S
O180 Cd170 2.297 . S
O180 C175 1.247 . S
O181 Cd170 2.439 . S
O181 C175 1.208 . S
O182 Cd183 2.223 . S
O182 C190 1.315 . S
Cd183 O182 2.223 . S
Cd183 O186 2.297 . S
Cd183 O187 2.439 . S
Cd183 O193 2.240 . S
Cd184 O185 2.240 . S
Cd184 O192 2.223 . S
Cd184 O194 2.297 . S
Cd184 O195 2.439 . S
O185 Cd184 2.240 . S
O185 C190 1.279 . S
O186 Cd183 2.297 . S
O186 C188 1.247 . S
O187 Cd183 2.439 . S
O187 C188 1.208 . S
C188 O186 1.247 . S
C188 O187 1.208 . S
C189 O194 1.247 . S
C189 O195 1.208 . S
C190 O182 1.315 . S
C190 O185 1.279 . S
C191 O192 1.315 . S
C191 O193 1.279 . S
O192 Cd184 2.223 . S
O192 C191 1.315 . S
O193 Cd183 2.240 . S
O193 C191 1.279 . S
O194 Cd184 2.297 . S
O194 C189 1.247 . S
O195 Cd184 2.439 . S
O195 C189 1.208 . S
O196 Cd197 2.223 . S
O196 C204 1.315 . S
Cd197 O196 2.223 . S
Cd197 O200 2.297 . S
Cd197 O201 2.439 . S
Cd197 O207 2.240 . S
Cd198 O199 2.240 . S
Cd198 O206 2.223 . S
Cd198 O208 2.297 . S
Cd198 O209 2.439 . S
O199 Cd198 2.240 . S
O199 C204 1.279 . S
O200 Cd197 2.297 . S
O200 C202 1.247 . S
O201 Cd197 2.439 . S
O201 C202 1.208 . S
C202 O200 1.247 . S
C202 O201 1.208 . S
C203 O208 1.247 . S
C203 O209 1.208 . S
C204 O196 1.315 . S
C204 O199 1.279 . S
C205 O206 1.315 . S
C205 O207 1.279 . S
O206 Cd198 2.223 . S
O206 C205 1.315 . S
O207 Cd197 2.240 . S
O207 C205 1.279 . S
O208 Cd198 2.297 . S
O208 C203 1.247 . S
O209 Cd198 2.439 . S
O209 C203 1.208 . S
O210 Cd211 2.223 . S
O210 C218 1.315 . S
Cd211 O210 2.223 . S
Cd211 O214 2.297 . S
Cd211 O215 2.439 . S
Cd211 O221 2.240 . S
Cd212 O213 2.240 . S
Cd212 O220 2.223 . S
Cd212 O222 2.297 . S
Cd212 O223 2.439 . S
O213 Cd212 2.240 . S
O213 C218 1.279 . S
O214 Cd211 2.297 . S
O214 C216 1.247 . S
O215 Cd211 2.439 . S
O215 C216 1.208 . S
C216 O214 1.247 . S
C216 O215 1.208 . S
C217 O222 1.247 . S
C217 O223 1.208 . S
C218 O210 1.315 . S
C218 O213 1.279 . S
C219 O220 1.315 . S
C219 O221 1.279 . S
O220 Cd212 2.223 . S
O220 C219 1.315 . S
O221 Cd211 2.240 . S
O221 C219 1.279 . S
O222 Cd212 2.297 . S
O222 C217 1.247 . S
O223 Cd212 2.439 . S
O223 C217 1.208 . S
O224 Cd225 2.223 . S
O224 C232 1.315 . S
Cd225 O224 2.223 . S
Cd225 O228 2.297 . S
Cd225 O229 2.439 . S
Cd225 O235 2.240 . S
Cd226 O227 2.240 . S
Cd226 O234 2.223 . S
Cd226 O236 2.297 . S
Cd226 O237 2.439 . S
O227 Cd226 2.240 . S
O227 C232 1.279 . S
O228 Cd225 2.297 . S
O228 C230 1.247 . S
O229 Cd225 2.439 . S
O229 C230 1.208 . S
C230 O228 1.247 . S
C230 O229 1.208 . S
C231 O236 1.247 . S
C231 O237 1.208 . S
C232 O224 1.315 . S
C232 O227 1.279 . S
C233 O234 1.315 . S
C233 O235 1.279 . S
O234 Cd226 2.223 . S
O234 C233 1.315 . S
O235 Cd225 2.240 . S
O235 C233 1.279 . S
O236 Cd226 2.297 . S
O236 C231 1.247 . S
O237 Cd226 2.439 . S
O237 C231 1.208 . S
O238 Cd239 2.223 1_565 S
O238 C246 1.315 . S
Cd239 O238 2.223 1_545 S
Cd239 O242 2.297 . S
Cd239 O243 2.439 . S
Cd239 O249 2.240 . S
Cd240 O241 2.240 . S
Cd240 O248 2.243 . S
Cd240 O250 2.297 . S
Cd240 O251 2.468 . S
O241 Cd240 2.240 . S
O241 C246 1.279 . S
O242 Cd239 2.297 . S
O242 C244 1.247 . S
O243 Cd239 2.439 . S
O243 C244 1.208 . S
C244 O242 1.247 . S
C244 O243 1.208 . S
C245 O250 1.247 . S
C245 O251 1.215 . S
C246 O238 1.315 . S
C246 O241 1.279 . S
C247 O248 1.283 1_545 S
C247 O249 1.279 . S
O248 Cd240 2.243 . S
O248 C247 1.283 1_565 S
O249 Cd239 2.240 . S
O249 C247 1.279 . S
O250 Cd240 2.297 . S
O250 C245 1.247 . S
O251 Cd240 2.468 . S
O251 C245 1.215 . S
O252 Cd253 2.223 . S
O252 C260 1.315 . S
Cd253 O252 2.223 . S
Cd253 O256 2.297 . S
Cd253 O257 2.439 . S
Cd253 O263 2.240 . S
Cd254 O255 2.240 . S
Cd254 O262 2.223 . S
Cd254 O264 2.297 . S
Cd254 O265 2.439 . S
O255 Cd254 2.240 . S
O255 C260 1.279 . S
O256 Cd253 2.297 . S
O256 C258 1.247 . S
O257 Cd253 2.439 . S
O257 C258 1.208 . S
C258 O256 1.247 . S
C258 O257 1.208 . S
C259 O264 1.247 . S
C259 O265 1.208 . S
C260 O252 1.315 . S
C260 O255 1.279 . S
C261 O262 1.315 . S
C261 O263 1.279 . S
O262 Cd254 2.223 . S
O262 C261 1.315 . S
O263 Cd253 2.240 . S
O263 C261 1.279 . S
O264 Cd254 2.297 . S
O264 C259 1.247 . S
O265 Cd254 2.439 . S
O265 C259 1.208 . S
O266 Cd267 2.223 1_545 S
O266 C274 1.315 . S
Cd267 O266 2.223 1_565 S
Cd267 O270 2.297 . S
Cd267 O271 2.439 . S
Cd267 O277 2.240 . S
Cd268 O269 2.240 . S
Cd268 O276 2.213 1_545 S
Cd268 O278 2.297 . S
Cd268 O279 2.441 . S
O269 Cd268 2.240 . S
O269 C274 1.279 . S
O270 Cd267 2.297 . S
O270 C272 1.247 . S
O271 Cd267 2.439 . S
O271 C272 1.208 . S
C272 O270 1.247 . S
C272 O271 1.208 . S
C273 O278 1.247 . S
C273 O279 1.209 . S
C274 O266 1.315 . S
C274 O269 1.279 . S
C275 O276 1.331 . S
C275 O277 1.279 . S
O276 Cd268 2.213 1_565 S
O276 C275 1.331 . S
O277 Cd267 2.240 . S
O277 C275 1.279 . S
O278 Cd268 2.297 . S
O278 C273 1.247 . S
O279 Cd268 2.441 . S
O279 C273 1.209 . S
O280 Cd281 2.223 . S
O280 C288 1.315 . S
Cd281 O280 2.223 . S
Cd281 O284 2.297 . S
Cd281 O285 2.439 . S
Cd281 O291 2.240 . S
Cd282 O283 2.240 . S
Cd282 O290 2.223 . S
Cd282 O292 2.297 . S
Cd282 O293 2.439 . S
O283 Cd282 2.240 . S
O283 C288 1.279 . S
O284 Cd281 2.297 . S
O284 C286 1.247 . S
O285 Cd281 2.439 . S
O285 C286 1.208 . S
C286 O284 1.247 . S
C286 O285 1.208 . S
C287 O292 1.247 . S
C287 O293 1.208 . S
C288 O280 1.315 . S
C288 O283 1.279 . S
C289 O290 1.315 . S
C289 O291 1.279 . S
O290 Cd282 2.223 . S
O290 C289 1.315 . S
O291 Cd281 2.240 . S
O291 C289 1.279 . S
O292 Cd282 2.297 . S
O292 C287 1.247 . S
O293 Cd282 2.439 . S
O293 C287 1.208 . S
O294 Cd295 2.223 1_556 S
O294 C302 1.315 . S
Cd295 O294 2.223 1_554 S
Cd295 O298 2.297 . S
Cd295 O299 2.439 . S
Cd295 O305 2.240 . S
Cd296 O297 2.240 . S
Cd296 O304 2.243 . S
Cd296 O306 2.297 . S
Cd296 O307 2.468 . S
O297 Cd296 2.240 . S
O297 C302 1.279 . S
O298 Cd295 2.297 . S
O298 C300 1.247 . S
O299 Cd295 2.439 . S
O299 C300 1.208 . S
C300 O298 1.247 . S
C300 O299 1.208 . S
C301 O306 1.247 . S
C301 O307 1.215 . S
C302 O294 1.315 . S
C302 O297 1.279 . S
C303 O304 1.283 1_554 S
C303 O305 1.279 . S
O304 Cd296 2.243 . S
O304 C303 1.283 1_556 S
O305 Cd295 2.240 . S
O305 C303 1.279 . S
O306 Cd296 2.297 . S
O306 C301 1.247 . S
O307 Cd296 2.468 . S
O307 C301 1.215 . S
O308 Cd309 2.223 1_556 S
O308 C316 1.315 . S
Cd309 O308 2.223 1_554 S
Cd309 O312 2.297 . S
Cd309 O313 2.439 . S
Cd309 O319 2.240 . S
Cd310 O311 2.240 . S
Cd310 O318 2.238 . S
Cd310 O320 2.297 . S
Cd310 O321 2.424 1_556 S
O311 Cd310 2.240 . S
O311 C316 1.279 . S
O312 Cd309 2.297 . S
O312 C314 1.247 . S
O313 Cd309 2.439 . S
O313 C314 1.208 . S
C314 O312 1.247 . S
C314 O313 1.208 . S
C315 O320 1.263 . S
C315 O321 1.206 1_556 S
C316 O308 1.315 . S
C316 O311 1.279 . S
C317 O318 1.291 1_554 S
C317 O319 1.279 . S
O318 Cd310 2.238 . S
O318 C317 1.291 1_556 S
O319 Cd309 2.240 . S
O319 C317 1.279 . S
O320 Cd310 2.297 . S
O320 C315 1.263 . S
O321 Cd310 2.424 1_554 S
O321 C315 1.206 1_554 S
O322 Cd323 2.223 1_554 S
O322 C330 1.315 . S
Cd323 O322 2.223 1_556 S
Cd323 O326 2.297 . S
Cd323 O327 2.439 . S
Cd323 O333 2.240 . S
Cd324 O325 2.240 . S
Cd324 O332 2.213 1_554 S
Cd324 O334 2.297 . S
Cd324 O335 2.441 . S
O325 Cd324 2.240 . S
O325 C330 1.279 . S
O326 Cd323 2.297 . S
O326 C328 1.247 . S
O327 Cd323 2.439 . S
O327 C328 1.208 . S
C328 O326 1.247 . S
C328 O327 1.208 . S
C329 O334 1.247 . S
C329 O335 1.209 . S
C330 O322 1.315 . S
C330 O325 1.279 . S
C331 O332 1.331 . S
C331 O333 1.279 . S
O332 Cd324 2.213 1_556 S
O332 C331 1.331 . S
O333 Cd323 2.240 . S
O333 C331 1.279 . S
O334 Cd324 2.297 . S
O334 C329 1.247 . S
O335 Cd324 2.441 . S
O335 C329 1.209 . S
H336 C344 0.929 . S
H337 C346 0.930 . S
H338 C348 0.930 . S
H339 C351 0.929 1_565 S
H340 C354 0.930 . S
H341 C356 0.960 . S
H342 C356 0.960 . S
H343 C356 0.960 . S
C344 H336 0.929 . S
C344 C345 1.377 . S
C344 C346 1.384 . S
C345 C344 1.377 . S
C345 C351 1.390 . S
C346 H337 0.930 . S
C346 C344 1.384 . S
C346 C347 1.372 . S
C347 C346 1.372 . S
C347 C348 1.400 . S
C347 C352 1.490 . S
C348 H338 0.930 . S
C348 C347 1.400 . S
C348 C351 1.386 . S
H349 C365 0.930 . S
H350 C366 0.931 . S
C351 H339 0.929 1_545 S
C351 C345 1.390 . S
C351 C348 1.386 . S
C352 C347 1.490 . S
C352 C354 1.395 . S
C352 C355 1.403 . S
H353 C359 0.930 . S
C354 H340 0.930 . S
C354 C352 1.395 . S
C354 C357 1.403 . S
C355 C352 1.403 . S
C355 C356 1.524 . S
C355 C359 1.400 . S
C356 H341 0.960 . S
C356 H342 0.960 . S
C356 H343 0.960 . S
C356 C355 1.524 . S
C357 C354 1.403 . S
C357 C358 1.392 . S
C357 C361 1.495 . S
C358 C357 1.392 . S
C358 C359 1.385 . S
C358 C360 1.478 . S
C359 H353 0.930 . S
C359 C355 1.400 . S
C359 C358 1.385 . S
C360 C358 1.478 . S
C360 C362 1.381 . S
C360 C366 1.383 . S
C361 C357 1.495 . S
C361 H367 0.959 . S
C361 H368 0.961 . S
C361 H369 0.960 . S
C362 C360 1.381 . S
C362 C363 1.394 . S
C362 H370 0.930 . S
C363 C362 1.394 . S
C363 C364 1.383 . S
C363 H371 0.929 . S
C364 C363 1.383 . S
C364 C365 1.377 . S
C365 H349 0.930 . S
C365 C364 1.377 . S
C365 C366 1.379 . S
C366 H350 0.931 . S
C366 C360 1.383 . S
C366 C365 1.379 . S
H367 C361 0.959 . S
H368 C361 0.961 . S
H369 C361 0.960 . S
H370 C362 0.930 . S
H371 C363 0.929 . S
H372 C380 0.929 . S
H373 C382 0.930 . S
H374 C384 0.930 . S
H375 C387 0.929 . S
H376 C390 0.930 . S
H377 C392 0.960 . S
H378 C392 0.960 . S
H379 C392 0.960 . S
C380 H372 0.929 . S
C380 C381 1.377 . S
C380 C382 1.384 . S
C381 C380 1.377 . S
C381 C387 1.390 . S
C382 H373 0.930 . S
C382 C380 1.384 . S
C382 C383 1.372 . S
C383 C382 1.372 . S
C383 C384 1.400 . S
C383 C388 1.490 . S
C384 H374 0.930 . S
C384 C383 1.400 . S
C384 C387 1.386 . S
H385 C401 0.930 . S
H386 C402 0.931 . S
C387 H375 0.929 . S
C387 C381 1.390 . S
C387 C384 1.386 . S
C388 C383 1.490 . S
C388 C390 1.395 . S
C388 C391 1.403 . S
H389 C395 0.930 . S
C390 H376 0.930 . S
C390 C388 1.395 . S
C390 C393 1.403 . S
C391 C388 1.403 . S
C391 C392 1.524 . S
C391 C395 1.400 . S
C392 H377 0.960 . S
C392 H378 0.960 . S
C392 H379 0.960 . S
C392 C391 1.524 . S
C393 C390 1.403 . S
C393 C394 1.392 . S
C393 C397 1.495 . S
C394 C393 1.392 . S
C394 C395 1.385 . S
C394 C396 1.478 . S
C395 H389 0.930 . S
C395 C391 1.400 . S
C395 C394 1.385 . S
C396 C394 1.478 . S
C396 C398 1.381 . S
C396 C402 1.383 . S
C397 C393 1.495 . S
C397 H403 0.959 . S
C397 H404 0.961 . S
C397 H405 0.960 . S
C398 C396 1.381 . S
C398 C399 1.394 . S
C398 H406 0.930 . S
C399 C398 1.394 . S
C399 C400 1.383 . S
C399 H407 0.929 . S
C400 C399 1.383 . S
C400 C401 1.377 . S
C401 H385 0.930 . S
C401 C400 1.377 . S
C401 C402 1.379 . S
C402 H386 0.931 . S
C402 C396 1.383 . S
C402 C401 1.379 . S
H403 C397 0.959 . S
H404 C397 0.961 . S
H405 C397 0.960 . S
H406 C398 0.930 . S
H407 C399 0.929 . S
H408 C416 0.929 . S
H409 C418 0.930 . S
H410 C420 0.930 . S
H411 C423 0.929 . S
H412 C426 0.930 . S
H413 C428 0.960 . S
H414 C428 0.960 . S
H415 C428 0.960 . S
C416 H408 0.929 . S
C416 C417 1.377 . S
C416 C418 1.384 . S
C417 C416 1.377 . S
C417 C423 1.390 . S
C418 H409 0.930 . S
C418 C416 1.384 . S
C418 C419 1.372 . S
C419 C418 1.372 . S
C419 C420 1.400 . S
C419 C424 1.490 . S
C420 H410 0.930 . S
C420 C419 1.400 . S
C420 C423 1.386 . S
H421 C437 0.930 . S
H422 C438 0.911 1_554 S
C423 H411 0.929 . S
C423 C417 1.390 . S
C423 C420 1.386 . S
C424 C419 1.490 . S
C424 C426 1.395 . S
C424 C427 1.403 . S
H425 C431 0.930 . S
C426 H412 0.930 . S
C426 C424 1.395 . S
C426 C429 1.403 . S
C427 C424 1.403 . S
C427 C428 1.524 . S
C427 C431 1.400 . S
C428 H413 0.960 . S
C428 H414 0.960 . S
C428 H415 0.960 . S
C428 C427 1.524 . S
C429 C426 1.403 . S
C429 C430 1.392 . S
C429 C433 1.495 . S
C430 C429 1.392 . S
C430 C431 1.385 . S
C430 C432 1.478 1_554 S
C431 H425 0.930 . S
C431 C427 1.400 . S
C431 C430 1.385 . S
C432 C430 1.478 1_556 S
C432 C434 1.381 . S
C432 C438 1.383 . S
C433 C429 1.495 . S
C433 H439 0.959 . S
C433 H440 0.961 . S
C433 H441 0.991 . S
C434 C432 1.381 . S
C434 C435 1.394 . S
C434 H442 0.930 . S
C435 C434 1.394 . S
C435 C436 1.383 . S
C435 H443 0.929 . S
C436 C435 1.383 . S
C436 C437 1.377 . S
C437 H421 0.930 . S
C437 C436 1.377 . S
C437 C438 1.379 . S
C438 H422 0.911 1_556 S
C438 C432 1.383 . S
C438 C437 1.379 . S
H439 C433 0.959 . S
H440 C433 0.961 . S
H441 C433 0.991 . S
H442 C434 0.930 . S
H443 C435 0.929 . S
H444 C452 0.929 . S
H445 C454 0.930 . S
H446 C456 0.930 . S
H447 C459 0.929 . S
H448 C462 0.930 . S
H449 C464 0.960 . S
H450 C464 0.960 . S
H451 C464 0.960 . S
C452 H444 0.929 . S
C452 C453 1.377 . S
C452 C454 1.384 . S
C453 C452 1.377 . S
C453 C459 1.390 . S
C454 H445 0.930 . S
C454 C452 1.384 . S
C454 C455 1.372 . S
C455 C454 1.372 . S
C455 C456 1.400 . S
C455 C460 1.490 . S
C456 H446 0.930 . S
C456 C455 1.400 . S
C456 C459 1.386 . S
H457 C473 0.930 . S
H458 C474 0.931 . S
C459 H447 0.929 . S
C459 C453 1.390 . S
C459 C456 1.386 . S
C460 C455 1.490 . S
C460 C462 1.395 . S
C460 C463 1.403 . S
H461 C467 0.930 . S
C462 H448 0.930 . S
C462 C460 1.395 . S
C462 C465 1.403 . S
C463 C460 1.403 . S
C463 C464 1.524 . S
C463 C467 1.400 . S
C464 H449 0.960 . S
C464 H450 0.960 . S
C464 H451 0.960 . S
C464 C463 1.524 . S
C465 C462 1.403 . S
C465 C466 1.392 . S
C465 C469 1.495 . S
C466 C465 1.392 . S
C466 C467 1.385 . S
C466 C468 1.478 1_554 S
C467 H461 0.930 . S
C467 C463 1.400 . S
C467 C466 1.385 . S
C468 C466 1.478 1_556 S
C468 C470 1.381 . S
C468 C474 1.383 . S
C469 C465 1.495 . S
C469 H475 0.959 . S
C469 H476 0.961 1_554 S
C469 H477 0.960 . S
C470 C468 1.381 . S
C470 C471 1.394 . S
C470 H478 0.930 . S
C471 C470 1.394 . S
C471 C472 1.383 . S
C471 H479 0.929 . S
C472 C471 1.383 . S
C472 C473 1.377 . S
C473 H457 0.930 . S
C473 C472 1.377 . S
C473 C474 1.379 . S
C474 H458 0.931 . S
C474 C468 1.383 . S
C474 C473 1.379 . S
H475 C469 0.959 . S
H476 C469 0.961 1_556 S
H477 C469 0.960 . S
H478 C470 0.930 . S
H479 C471 0.929 . S
H480 C488 0.929 . S
H481 C490 0.930 . S
H482 C492 0.930 . S
H483 C495 0.929 . S
H484 C498 0.930 . S
H485 C500 0.960 . S
H486 C500 0.960 . S
H487 C500 0.960 . S
C488 H480 0.929 . S
C488 C489 1.377 . S
C488 C490 1.384 . S
C489 C488 1.377 . S
C489 C495 1.390 . S
C490 H481 0.930 . S
C490 C488 1.384 . S
C490 C491 1.372 . S
C491 C490 1.372 . S
C491 C492 1.400 . S
C491 C496 1.490 . S
C492 H482 0.930 . S
C492 C491 1.400 . S
C492 C495 1.386 . S
H493 C509 0.930 . S
H494 C510 0.931 . S
C495 H483 0.929 . S
C495 C489 1.390 . S
C495 C492 1.386 . S
C496 C491 1.490 . S
C496 C498 1.395 . S
C496 C499 1.403 . S
H497 C503 0.930 . S
C498 H484 0.930 . S
C498 C496 1.395 . S
C498 C501 1.403 . S
C499 C496 1.403 . S
C499 C500 1.524 . S
C499 C503 1.400 . S
C500 H485 0.960 . S
C500 H486 0.960 . S
C500 H487 0.960 . S
C500 C499 1.524 . S
C501 C498 1.403 . S
C501 C502 1.392 . S
C501 C505 1.495 . S
C502 C501 1.392 . S
C502 C503 1.385 . S
C502 C504 1.478 . S
C503 H497 0.930 . S
C503 C499 1.400 . S
C503 C502 1.385 . S
C504 C502 1.478 . S
C504 C506 1.381 . S
C504 C510 1.383 . S
C505 C501 1.495 . S
C505 H511 0.959 . S
C505 H512 0.961 . S
C505 H513 0.960 . S
C506 C504 1.381 . S
C506 C507 1.394 . S
C506 H514 0.930 . S
C507 C506 1.394 . S
C507 C508 1.383 . S
C507 H515 0.929 1_554 S
C508 C507 1.383 . S
C508 C509 1.377 . S
C509 H493 0.930 . S
C509 C508 1.377 . S
C509 C510 1.379 . S
C510 H494 0.931 . S
C510 C504 1.383 . S
C510 C509 1.379 . S
H511 C505 0.959 . S
H512 C505 0.961 . S
H513 C505 0.960 . S
H514 C506 0.930 . S
H515 C507 0.929 1_556 S
H516 C524 0.929 . S
H517 C526 0.930 . S
H518 C528 0.930 . S
H519 C531 0.929 . S
H520 C534 0.930 . S
H521 C536 0.960 . S
H522 C536 0.960 . S
H523 C536 0.960 . S
C524 H516 0.929 . S
C524 C525 1.377 . S
C524 C526 1.384 . S
C525 C524 1.377 . S
C525 C531 1.390 . S
C526 H517 0.930 . S
C526 C524 1.384 . S
C526 C527 1.372 . S
C527 C526 1.372 . S
C527 C528 1.400 . S
C527 C532 1.490 . S
C528 H518 0.930 . S
C528 C527 1.400 . S
C528 C531 1.386 . S
H529 C545 0.930 . S
H530 C546 0.931 . S
C531 H519 0.929 . S
C531 C525 1.390 . S
C531 C528 1.386 . S
C532 C527 1.490 . S
C532 C534 1.395 . S
C532 C535 1.403 . S
H533 C539 0.930 . S
C534 H520 0.930 . S
C534 C532 1.395 . S
C534 C537 1.403 . S
C535 C532 1.403 . S
C535 C536 1.524 . S
C535 C539 1.400 . S
C536 H521 0.960 . S
C536 H522 0.960 . S
C536 H523 0.960 . S
C536 C535 1.524 . S
C537 C534 1.403 . S
C537 C538 1.392 . S
C537 C541 1.495 . S
C538 C537 1.392 . S
C538 C539 1.385 . S
C538 C540 1.478 . S
C539 H533 0.930 . S
C539 C535 1.400 . S
C539 C538 1.385 . S
C540 C538 1.478 . S
C540 C542 1.381 . S
C540 C546 1.383 . S
C541 C537 1.495 . S
C541 H547 0.959 . S
C541 H548 0.961 . S
C541 H549 0.960 . S
C542 C540 1.381 . S
C542 C543 1.394 . S
C542 H550 0.930 . S
C543 C542 1.394 . S
C543 C544 1.383 . S
C543 H551 0.929 . S
C544 C543 1.383 . S
C544 C545 1.377 . S
C545 H529 0.930 . S
C545 C544 1.377 . S
C545 C546 1.379 . S
C546 H530 0.931 . S
C546 C540 1.383 . S
C546 C545 1.379 . S
H547 C541 0.959 . S
H548 C541 0.961 . S
H549 C541 0.960 . S
H550 C542 0.930 . S
H551 C543 0.929 . S
H552 C560 0.929 . S
H553 C562 0.930 . S
H554 C564 0.930 . S
H555 C567 0.929 . S
H556 C570 0.930 . S
H557 C572 0.960 . S
H558 C572 0.960 . S
H559 C572 0.960 . S
C560 H552 0.929 . S
C560 C561 1.377 . S
C560 C562 1.384 . S
C561 C560 1.377 . S
C561 C567 1.390 . S
C562 H553 0.930 . S
C562 C560 1.384 . S
C562 C563 1.372 . S
C563 C562 1.372 . S
C563 C564 1.400 . S
C563 C568 1.490 . S
C564 H554 0.930 . S
C564 C563 1.400 . S
C564 C567 1.386 . S
H565 C581 0.930 . S
H566 C582 0.931 . S
C567 H555 0.929 . S
C567 C561 1.390 . S
C567 C564 1.386 . S
C568 C563 1.490 . S
C568 C570 1.395 . S
C568 C571 1.403 . S
H569 C575 0.930 . S
C570 H556 0.930 . S
C570 C568 1.395 . S
C570 C573 1.403 . S
C571 C568 1.403 . S
C571 C572 1.524 . S
C571 C575 1.400 . S
C572 H557 0.960 . S
C572 H558 0.960 . S
C572 H559 0.960 . S
C572 C571 1.524 . S
C573 C570 1.403 . S
C573 C574 1.392 . S
C573 C577 1.495 . S
C574 C573 1.392 . S
C574 C575 1.385 . S
C574 C576 1.478 . S
C575 H569 0.930 . S
C575 C571 1.400 . S
C575 C574 1.385 . S
C576 C574 1.478 . S
C576 C578 1.381 . S
C576 C582 1.383 . S
C577 C573 1.495 . S
C577 H583 0.959 . S
C577 H584 0.961 . S
C577 H585 0.960 . S
C578 C576 1.381 . S
C578 C579 1.394 . S
C578 H586 0.930 . S
C579 C578 1.394 . S
C579 C580 1.383 . S
C579 H587 0.929 . S
C580 C579 1.383 . S
C580 C581 1.377 . S
C581 H565 0.930 . S
C581 C580 1.377 . S
C581 C582 1.379 . S
C582 H566 0.931 . S
C582 C576 1.383 . S
C582 C581 1.379 . S
H583 C577 0.959 . S
H584 C577 0.961 . S
H585 C577 0.960 . S
H586 C578 0.930 . S
H587 C579 0.929 . S
H588 C596 0.929 . S
H589 C598 0.930 . S
H590 C600 0.930 . S
H591 C603 0.929 . S
H592 C606 0.930 . S
H593 C608 0.960 . S
H594 C608 0.960 . S
H595 C608 0.960 . S
C596 H588 0.929 . S
C596 C597 1.377 . S
C596 C598 1.384 . S
C597 C596 1.377 . S
C597 C603 1.390 . S
C598 H589 0.930 . S
C598 C596 1.384 . S
C598 C599 1.372 . S
C599 C598 1.372 . S
C599 C600 1.400 . S
C599 C604 1.490 . S
C600 H590 0.930 . S
C600 C599 1.400 . S
C600 C603 1.386 . S
H601 C617 0.930 . S
H602 C618 0.931 . S
C603 H591 0.929 . S
C603 C597 1.390 . S
C603 C600 1.386 . S
C604 C599 1.490 . S
C604 C606 1.395 . S
C604 C607 1.403 . S
H605 C611 0.930 . S
C606 H592 0.930 . S
C606 C604 1.395 . S
C606 C609 1.403 . S
C607 C604 1.403 . S
C607 C608 1.524 . S
C607 C611 1.400 . S
C608 H593 0.960 . S
C608 H594 0.960 . S
C608 H595 0.960 . S
C608 C607 1.524 . S
C609 C606 1.403 . S
C609 C610 1.392 . S
C609 C613 1.495 . S
C610 C609 1.392 . S
C610 C611 1.385 . S
C610 C612 1.478 . S
C611 H605 0.930 . S
C611 C607 1.400 . S
C611 C610 1.385 . S
C612 C610 1.478 . S
C612 C614 1.381 . S
C612 C618 1.383 . S
C613 C609 1.495 . S
C613 H619 0.959 . S
C613 H620 0.961 . S
C613 H621 0.960 . S
C614 C612 1.381 . S
C614 C615 1.394 . S
C614 H622 0.930 . S
C615 C614 1.394 . S
C615 C616 1.383 . S
C615 H623 0.929 . S
C616 C615 1.383 . S
C616 C617 1.377 . S
C617 H601 0.930 . S
C617 C616 1.377 . S
C617 C618 1.379 . S
C618 H602 0.931 . S
C618 C612 1.383 . S
C618 C617 1.379 . S
H619 C613 0.959 . S
H620 C613 0.961 . S
H621 C613 0.960 . S
H622 C614 0.930 . S
H623 C615 0.929 . S
H624 C632 0.929 . S
H625 C634 0.930 . S
H626 C636 0.930 . S
H627 C639 0.929 . S
H628 C642 0.930 . S
H629 C644 0.960 . S
H630 C644 0.960 . S
H631 C644 0.960 . S
C632 H624 0.929 . S
C632 C633 1.377 . S
C632 C634 1.384 . S
C633 C632 1.377 . S
C633 C639 1.390 . S
C634 H625 0.930 . S
C634 C632 1.384 . S
C634 C635 1.372 . S
C635 C634 1.372 . S
C635 C636 1.400 . S
C635 C640 1.490 . S
C636 H626 0.930 . S
C636 C635 1.400 . S
C636 C639 1.386 . S
H637 C653 0.930 . S
H638 C654 0.931 . S
C639 H627 0.929 . S
C639 C633 1.390 . S
C639 C636 1.386 . S
C640 C635 1.490 . S
C640 C642 1.395 . S
C640 C643 1.403 . S
H641 C647 0.930 . S
C642 H628 0.930 . S
C642 C640 1.395 . S
C642 C645 1.403 . S
C643 C640 1.403 . S
C643 C644 1.524 . S
C643 C647 1.400 . S
C644 H629 0.960 . S
C644 H630 0.960 . S
C644 H631 0.960 . S
C644 C643 1.524 . S
C645 C642 1.403 . S
C645 C646 1.392 . S
C645 C649 1.495 . S
C646 C645 1.392 . S
C646 C647 1.385 . S
C646 C648 1.478 . S
C647 H641 0.930 . S
C647 C643 1.400 . S
C647 C646 1.385 . S
C648 C646 1.478 . S
C648 C650 1.381 . S
C648 C654 1.383 . S
C649 C645 1.495 . S
C649 H655 0.959 . S
C649 H656 0.961 . S
C649 H657 0.960 . S
C650 C648 1.381 . S
C650 C651 1.394 . S
C650 H658 0.930 . S
C651 C650 1.394 . S
C651 C652 1.383 . S
C651 H659 0.929 . S
C652 C651 1.383 . S
C652 C653 1.377 . S
C653 H637 0.930 . S
C653 C652 1.377 . S
C653 C654 1.379 . S
C654 H638 0.931 . S
C654 C648 1.383 . S
C654 C653 1.379 . S
H655 C649 0.959 . S
H656 C649 0.961 . S
H657 C649 0.960 . S
H658 C650 0.930 . S
H659 C651 0.929 . S
H660 C668 0.929 1_655 S
H661 C670 0.930 . S
H662 C672 0.930 . S
H663 C675 0.929 . S
H664 C678 0.930 . S
H665 C680 0.960 . S
H666 C680 0.960 . S
H667 C680 0.960 . S
C668 H660 0.929 1_455 S
C668 C669 1.377 . S
C668 C670 1.384 . S
C669 C668 1.377 . S
C669 C675 1.390 . S
C670 H661 0.930 . S
C670 C668 1.384 . S
C670 C671 1.372 . S
C671 C670 1.372 . S
C671 C672 1.400 . S
C671 C676 1.490 . S
C672 H662 0.930 . S
C672 C671 1.400 . S
C672 C675 1.386 . S
H673 C689 0.930 . S
H674 C690 0.931 . S
C675 H663 0.929 . S
C675 C669 1.390 . S
C675 C672 1.386 . S
C676 C671 1.490 . S
C676 C678 1.395 . S
C676 C679 1.403 . S
H677 C683 0.930 . S
C678 H664 0.930 . S
C678 C676 1.395 . S
C678 C681 1.403 . S
C679 C676 1.403 . S
C679 C680 1.524 . S
C679 C683 1.400 . S
C680 H665 0.960 . S
C680 H666 0.960 . S
C680 H667 0.960 . S
C680 C679 1.524 . S
C681 C678 1.403 . S
C681 C682 1.392 . S
C681 C685 1.495 . S
C682 C681 1.392 . S
C682 C683 1.385 . S
C682 C684 1.478 . S
C683 H677 0.930 . S
C683 C679 1.400 . S
C683 C682 1.385 . S
C684 C682 1.478 . S
C684 C686 1.381 . S
C684 C690 1.383 . S
C685 C681 1.495 . S
C685 H691 0.959 . S
C685 H692 0.961 . S
C685 H693 0.960 . S
C686 C684 1.381 . S
C686 C687 1.394 . S
C686 H694 0.930 . S
C687 C686 1.394 . S
C687 C688 1.383 . S
C687 H695 0.929 . S
C688 C687 1.383 . S
C688 C689 1.377 . S
C689 H673 0.930 . S
C689 C688 1.377 . S
C689 C690 1.379 . S
C690 H674 0.931 . S
C690 C684 1.383 . S
C690 C689 1.379 . S
H691 C685 0.959 . S
H692 C685 0.961 . S
H693 C685 0.960 . S
H694 C686 0.930 . S
H695 C687 0.929 . S
H696 C704 0.929 . S
H697 C706 0.930 . S
H698 C708 0.930 . S
H699 C711 0.929 . S
H700 C714 0.930 . S
H701 C716 0.960 . S
H702 C716 0.960 . S
H703 C716 0.960 . S
C704 H696 0.929 . S
C704 C705 1.377 . S
C704 C706 1.384 . S
C705 C704 1.377 . S
C705 C711 1.390 . S
C706 H697 0.930 . S
C706 C704 1.384 . S
C706 C707 1.372 . S
C707 C706 1.372 . S
C707 C708 1.400 . S
C707 C712 1.490 . S
C708 H698 0.930 . S
C708 C707 1.400 . S
C708 C711 1.386 . S
H709 C725 0.930 . S
H710 C726 0.931 . S
C711 H699 0.929 . S
C711 C705 1.390 . S
C711 C708 1.386 . S
C712 C707 1.490 . S
C712 C714 1.395 . S
C712 C715 1.403 . S
H713 C719 0.930 1_545 S
C714 H700 0.930 . S
C714 C712 1.395 . S
C714 C717 1.403 . S
C715 C712 1.403 . S
C715 C716 1.524 . S
C715 C719 1.400 . S
C716 H701 0.960 . S
C716 H702 0.960 . S
C716 H703 0.960 . S
C716 C715 1.524 . S
C717 C714 1.403 . S
C717 C718 1.392 . S
C717 C721 1.495 . S
C718 C717 1.392 . S
C718 C719 1.385 . S
C718 C720 1.478 1_565 S
C719 H713 0.930 1_565 S
C719 C715 1.400 . S
C719 C718 1.385 . S
C720 C718 1.478 1_545 S
C720 C722 1.381 . S
C720 C726 1.383 . S
C721 C717 1.495 . S
C721 H727 0.959 . S
C721 H728 0.961 . S
C721 H729 0.960 . S
C722 C720 1.381 . S
C722 C723 1.394 . S
C722 H730 0.930 . S
C723 C722 1.394 . S
C723 C724 1.383 . S
C723 H731 0.929 . S
C724 C723 1.383 . S
C724 C725 1.377 . S
C725 H709 0.930 . S
C725 C724 1.377 . S
C725 C726 1.379 . S
C726 H710 0.931 . S
C726 C720 1.383 . S
C726 C725 1.379 . S
H727 C721 0.959 . S
H728 C721 0.961 . S
H729 C721 0.960 . S
H730 C722 0.930 . S
H731 C723 0.929 . S
H732 C740 0.929 . S
H733 C742 0.930 . S
H734 C744 0.930 . S
H735 C747 0.929 . S
H736 C750 0.930 . S
H737 C752 0.960 . S
H738 C752 0.960 . S
H739 C752 0.960 . S
C740 H732 0.929 . S
C740 C741 1.377 . S
C740 C742 1.384 . S
C741 C740 1.377 . S
C741 C747 1.390 . S
C742 H733 0.930 . S
C742 C740 1.384 . S
C742 C743 1.372 . S
C743 C742 1.372 . S
C743 C744 1.400 . S
C743 C748 1.490 . S
C744 H734 0.930 . S
C744 C743 1.400 . S
C744 C747 1.386 . S
H745 C761 0.930 . S
H746 C762 0.931 . S
C747 H735 0.929 . S
C747 C741 1.390 . S
C747 C744 1.386 . S
C748 C743 1.490 . S
C748 C750 1.395 . S
C748 C751 1.403 . S
H749 C755 0.930 . S
C750 H736 0.930 . S
C750 C748 1.395 . S
C750 C753 1.403 . S
C751 C748 1.403 . S
C751 C752 1.524 . S
C751 C755 1.400 . S
C752 H737 0.960 . S
C752 H738 0.960 . S
C752 H739 0.960 . S
C752 C751 1.524 . S
C753 C750 1.403 . S
C753 C754 1.392 . S
C753 C757 1.495 . S
C754 C753 1.392 . S
C754 C755 1.385 . S
C754 C756 1.478 . S
C755 H749 0.930 . S
C755 C751 1.400 . S
C755 C754 1.385 . S
C756 C754 1.478 . S
C756 C758 1.381 . S
C756 C762 1.383 . S
C757 C753 1.495 . S
C757 H763 0.959 . S
C757 H764 0.961 . S
C757 H765 0.960 . S
C758 C756 1.381 . S
C758 C759 1.394 . S
C758 H766 0.930 . S
C759 C758 1.394 . S
C759 C760 1.383 . S
C759 H767 0.929 . S
C760 C759 1.383 . S
C760 C761 1.377 . S
C761 H745 0.930 . S
C761 C760 1.377 . S
C761 C762 1.379 . S
C762 H746 0.931 . S
C762 C756 1.383 . S
C762 C761 1.379 . S
H763 C757 0.959 . S
H764 C757 0.961 . S
H765 C757 0.960 . S
H766 C758 0.930 . S
H767 C759 0.929 . S
H768 C776 0.929 . S
H769 C778 0.930 . S
H770 C780 0.930 . S
H771 C783 0.929 . S
H772 C786 0.930 . S
H773 C788 0.960 . S
H774 C788 0.960 . S
H775 C788 0.960 . S
C776 H768 0.929 . S
C776 C777 1.377 . S
C776 C778 1.384 . S
C777 C776 1.377 . S
C777 C783 1.390 . S
C778 H769 0.930 . S
C778 C776 1.384 . S
C778 C779 1.372 . S
C779 C778 1.372 . S
C779 C780 1.400 . S
C779 C784 1.490 1_554 S
C780 H770 0.930 . S
C780 C779 1.400 . S
C780 C783 1.386 . S
H781 C797 0.930 . S
H782 C798 0.931 . S
C783 H771 0.929 . S
C783 C777 1.390 . S
C783 C780 1.386 . S
C784 C779 1.490 1_556 S
C784 C786 1.395 . S
C784 C787 1.403 . S
H785 C791 0.930 . S
C786 H772 0.930 . S
C786 C784 1.395 . S
C786 C789 1.403 . S
C787 C784 1.403 . S
C787 C788 1.524 1_556 S
C787 C791 1.400 . S
C788 H773 0.960 . S
C788 H774 0.960 . S
C788 H775 0.960 . S
C788 C787 1.524 1_554 S
C789 C786 1.403 . S
C789 C790 1.392 . S
C789 C793 1.495 . S
C790 C789 1.392 . S
C790 C791 1.385 . S
C790 C792 1.478 . S
C791 H785 0.930 . S
C791 C787 1.400 . S
C791 C790 1.385 . S
C792 C790 1.478 . S
C792 C794 1.381 . S
C792 C798 1.383 . S
C793 C789 1.495 . S
C793 H799 0.959 . S
C793 H800 0.961 . S
C793 H801 0.960 . S
C794 C792 1.381 . S
C794 C795 1.394 . S
C794 H802 0.930 . S
C795 C794 1.394 . S
C795 C796 1.383 . S
C795 H803 0.929 . S
C796 C795 1.383 . S
C796 C797 1.377 . S
C797 H781 0.930 . S
C797 C796 1.377 . S
C797 C798 1.379 . S
C798 H782 0.931 . S
C798 C792 1.383 . S
C798 C797 1.379 . S
H799 C793 0.959 . S
H800 C793 0.961 . S
H801 C793 0.960 . S
H802 C794 0.930 . S
H803 C795 0.929 . S
H804 C812 0.929 . S
H805 C814 0.930 . S
H806 C816 0.930 . S
H807 C819 0.929 . S
H808 C822 0.930 . S
H809 C824 0.960 . S
H810 C824 0.960 . S
H811 C824 0.960 . S
C812 H804 0.929 . S
C812 C813 1.377 . S
C812 C814 1.384 . S
C813 C812 1.377 . S
C813 C819 1.390 . S
C814 H805 0.930 . S
C814 C812 1.384 . S
C814 C815 1.372 . S
C815 C814 1.372 . S
C815 C816 1.400 . S
C815 C820 1.490 1_554 S
C816 H806 0.930 . S
C816 C815 1.400 . S
C816 C819 1.386 . S
H817 C833 0.930 . S
H818 C834 0.931 . S
C819 H807 0.929 . S
C819 C813 1.390 . S
C819 C816 1.386 . S
C820 C815 1.490 1_556 S
C820 C822 1.395 . S
C820 C823 1.403 . S
H821 C827 0.930 . S
C822 H808 0.930 . S
C822 C820 1.395 . S
C822 C825 1.403 . S
C823 C820 1.403 . S
C823 C824 1.524 1_556 S
C823 C827 1.400 . S
C824 H809 0.960 . S
C824 H810 0.960 . S
C824 H811 0.960 . S
C824 C823 1.524 1_554 S
C825 C822 1.403 . S
C825 C826 1.392 . S
C825 C829 1.495 . S
C826 C825 1.392 . S
C826 C827 1.385 . S
C826 C828 1.478 . S
C827 H821 0.930 . S
C827 C823 1.400 . S
C827 C826 1.385 . S
C828 C826 1.478 . S
C828 C830 1.381 . S
C828 C834 1.383 . S
C829 C825 1.495 . S
C829 H835 0.959 . S
C829 H836 0.961 . S
C829 H837 0.960 . S
C830 C828 1.381 . S
C830 C831 1.394 . S
C830 H838 0.930 . S
C831 C830 1.394 . S
C831 C832 1.383 . S
C831 H839 0.929 . S
C832 C831 1.383 . S
C832 C833 1.377 . S
C833 H817 0.930 . S
C833 C832 1.377 . S
C833 C834 1.379 . S
C834 H818 0.931 . S
C834 C828 1.383 . S
C834 C833 1.379 . S
H835 C829 0.959 . S
H836 C829 0.961 . S
H837 C829 0.960 . S
H838 C830 0.930 . S
H839 C831 0.929 . S
H840 C848 0.929 . S
H841 C850 0.930 . S
H842 C852 0.930 . S
H843 C855 0.929 . S
H844 C858 0.930 . S
H845 C860 0.960 . S
H846 C860 0.960 . S
H847 C860 0.960 . S
C848 H840 0.929 . S
C848 C849 1.377 . S
C848 C850 1.384 . S
C849 C848 1.377 . S
C849 C855 1.390 . S
C850 H841 0.930 . S
C850 C848 1.384 . S
C850 C851 1.372 . S
C851 C850 1.372 . S
C851 C852 1.400 . S
C851 C856 1.490 . S
C852 H842 0.930 . S
C852 C851 1.400 . S
C852 C855 1.386 . S
H853 C869 0.930 . S
H854 C870 0.931 . S
C855 H843 0.929 . S
C855 C849 1.390 . S
C855 C852 1.386 . S
C856 C851 1.490 . S
C856 C858 1.395 . S
C856 C859 1.403 . S
H857 C863 0.930 . S
C858 H844 0.930 . S
C858 C856 1.395 . S
C858 C861 1.403 . S
C859 C856 1.403 . S
C859 C860 1.524 . S
C859 C863 1.400 . S
C860 H845 0.960 . S
C860 H846 0.960 . S
C860 H847 0.960 . S
C860 C859 1.524 . S
C861 C858 1.403 . S
C861 C862 1.392 . S
C861 C865 1.495 . S
C862 C861 1.392 . S
C862 C863 1.385 . S
C862 C864 1.478 . S
C863 H857 0.930 . S
C863 C859 1.400 . S
C863 C862 1.385 . S
C864 C862 1.478 . S
C864 C866 1.381 . S
C864 C870 1.383 . S
C865 C861 1.495 . S
C865 H871 0.959 . S
C865 H872 0.961 . S
C865 H873 0.960 . S
C866 C864 1.381 . S
C866 C867 1.394 . S
C866 H874 0.930 . S
C867 C866 1.394 . S
C867 C868 1.383 . S
C867 H875 0.929 . S
C868 C867 1.383 . S
C868 C869 1.377 . S
C869 H853 0.930 . S
C869 C868 1.377 . S
C869 C870 1.379 . S
C870 H854 0.931 . S
C870 C864 1.383 . S
C870 C869 1.379 . S
H871 C865 0.959 . S
H872 C865 0.961 . S
H873 C865 0.960 . S
H874 C866 0.930 . S
H875 C867 0.929 . S
H876 C884 0.929 . S
H877 C886 0.930 . S
H878 C888 0.930 . S
H879 C891 0.929 . S
H880 C894 0.930 . S
H881 C896 0.960 . S
H882 C896 0.960 . S
H883 C896 0.960 . S
C884 H876 0.929 . S
C884 C885 1.377 . S
C884 C886 1.384 . S
C885 C884 1.377 . S
C885 C891 1.390 . S
C886 H877 0.930 . S
C886 C884 1.384 . S
C886 C887 1.372 . S
C887 C886 1.372 . S
C887 C888 1.400 . S
C887 C892 1.490 . S
C888 H878 0.930 . S
C888 C887 1.400 . S
C888 C891 1.386 . S
H889 C905 0.930 . S
H890 C906 0.931 . S
C891 H879 0.929 . S
C891 C885 1.390 . S
C891 C888 1.386 . S
C892 C887 1.490 . S
C892 C894 1.395 . S
C892 C895 1.403 . S
H893 C899 0.930 . S
C894 H880 0.930 . S
C894 C892 1.395 . S
C894 C897 1.403 . S
C895 C892 1.403 . S
C895 C896 1.524 . S
C895 C899 1.400 . S
C896 H881 0.960 . S
C896 H882 0.960 . S
C896 H883 0.960 . S
C896 C895 1.524 . S
C897 C894 1.403 . S
C897 C898 1.392 . S
C897 C901 1.495 . S
C898 C897 1.392 . S
C898 C899 1.385 . S
C898 C900 1.478 . S
C899 H893 0.930 . S
C899 C895 1.400 . S
C899 C898 1.385 . S
C900 C898 1.478 . S
C900 C902 1.381 . S
C900 C906 1.383 . S
C901 C897 1.495 . S
C901 H907 0.949 1_545 S
C901 H908 0.961 . S
C901 H909 0.960 . S
C902 C900 1.381 . S
C902 C903 1.394 . S
C902 H910 0.930 . S
C903 C902 1.394 . S
C903 C904 1.383 . S
C903 H911 0.929 . S
C904 C903 1.383 . S
C904 C905 1.377 . S
C905 H889 0.930 . S
C905 C904 1.377 . S
C905 C906 1.379 . S
C906 H890 0.931 . S
C906 C900 1.383 . S
C906 C905 1.379 . S
H907 C901 0.949 1_565 S
H908 C901 0.961 . S
H909 C901 0.960 . S
H910 C902 0.930 . S
H911 C903 0.929 . S
H912 C920 0.929 . S
H913 C922 0.930 1_655 S
H914 C924 0.930 . S
H915 C927 0.929 . S
H916 C930 0.930 . S
H917 C932 0.960 1_655 S
H918 C932 0.960 . S
H919 C932 0.960 . S
C920 H912 0.929 . S
C920 C921 1.377 . S
C920 C922 1.384 . S
C921 C920 1.377 . S
C921 C927 1.390 . S
C922 H913 0.930 1_455 S
C922 C920 1.384 . S
C922 C923 1.372 . S
C923 C922 1.372 . S
C923 C924 1.400 . S
C923 C928 1.490 1_455 S
C924 H914 0.930 . S
C924 C923 1.400 . S
C924 C927 1.386 . S
H925 C941 0.930 . S
H926 C942 0.931 . S
C927 H915 0.929 . S
C927 C921 1.390 . S
C927 C924 1.386 . S
C928 C923 1.490 1_655 S
C928 C930 1.395 . S
C928 C931 1.403 . S
H929 C935 0.930 . S
C930 H916 0.930 . S
C930 C928 1.395 . S
C930 C933 1.403 . S
C931 C928 1.403 . S
C931 C932 1.524 1_655 S
C931 C935 1.400 . S
C932 H917 0.960 1_455 S
C932 H918 0.960 . S
C932 H919 0.960 . S
C932 C931 1.524 1_455 S
C933 C930 1.403 . S
C933 C934 1.392 . S
C933 C937 1.495 . S
C934 C933 1.392 . S
C934 C935 1.385 . S
C934 C936 1.478 . S
C935 H929 0.930 . S
C935 C931 1.400 . S
C935 C934 1.385 . S
C936 C934 1.478 . S
C936 C938 1.381 . S
C936 C942 1.383 . S
C937 C933 1.495 . S
C937 H943 0.959 . S
C937 H944 0.961 . S
C937 H945 0.960 . S
C938 C936 1.381 . S
C938 C939 1.394 . S
C938 H946 0.930 . S
C939 C938 1.394 . S
C939 C940 1.383 . S
C939 H947 0.929 . S
C940 C939 1.383 . S
C940 C941 1.377 . S
C941 H925 0.930 . S
C941 C940 1.377 . S
C941 C942 1.379 . S
C942 H926 0.931 . S
C942 C936 1.383 . S
C942 C941 1.379 . S
H943 C937 0.959 . S
H944 C937 0.961 . S
H945 C937 0.960 . S
H946 C938 0.930 . S
H947 C939 0.929 . S
H948 C956 0.929 . S
H949 C958 0.930 . S
H950 C960 0.930 . S
H951 C963 0.929 . S
H952 C966 0.930 . S
H953 C968 0.960 . S
H954 C968 0.960 . S
H955 C968 0.960 . S
C956 H948 0.929 . S
C956 C957 1.377 . S
C956 C958 1.384 . S
C957 C956 1.377 . S
C957 C963 1.390 . S
C958 H949 0.930 . S
C958 C956 1.384 . S
C958 C959 1.372 . S
C959 C958 1.372 . S
C959 C960 1.400 . S
C959 C964 1.490 1_655 S
C960 H950 0.930 . S
C960 C959 1.400 . S
C960 C963 1.386 . S
H961 C977 0.930 . S
H962 C978 0.931 . S
C963 H951 0.929 . S
C963 C957 1.390 . S
C963 C960 1.386 . S
C964 C959 1.490 1_455 S
C964 C966 1.395 . S
C964 C967 1.403 . S
H965 C971 0.930 . S
C966 H952 0.930 . S
C966 C964 1.395 . S
C966 C969 1.403 . S
C967 C964 1.403 . S
C967 C968 1.524 1_455 S
C967 C971 1.400 . S
C968 H953 0.960 . S
C968 H954 0.960 . S
C968 H955 0.960 . S
C968 C967 1.524 1_655 S
C969 C966 1.403 . S
C969 C970 1.392 . S
C969 C973 1.495 . S
C970 C969 1.392 . S
C970 C971 1.385 . S
C970 C972 1.478 . S
C971 H965 0.930 . S
C971 C967 1.400 . S
C971 C970 1.385 . S
C972 C970 1.478 . S
C972 C974 1.381 . S
C972 C978 1.383 . S
C973 C969 1.495 . S
C973 H979 0.959 . S
C973 H980 0.961 . S
C973 H981 0.960 . S
C974 C972 1.381 . S
C974 C975 1.394 . S
C974 H982 0.930 . S
C975 C974 1.394 . S
C975 C976 1.383 . S
C975 H983 0.929 . S
C976 C975 1.383 . S
C976 C977 1.377 . S
C977 H961 0.930 . S
C977 C976 1.377 . S
C977 C978 1.379 . S
C978 H962 0.931 . S
C978 C972 1.383 . S
C978 C977 1.379 . S
H979 C973 0.959 . S
H980 C973 0.961 . S
H981 C973 0.960 . S
H982 C974 0.930 . S
H983 C975 0.929 . S
H984 C992 0.901 1_554 S
H985 C994 0.967 . S
H986 C996 0.930 . S
H987 C999 0.929 . S
H988 C1002 0.941 . S
H989 C1004 0.960 . S
H990 C1004 0.960 . S
H991 C1004 0.960 . S
C992 H984 0.901 1_556 S
C992 C993 1.377 . S
C992 C994 1.384 . S
C993 C992 1.377 . S
C993 C999 1.390 . S
C994 H985 0.967 . S
C994 C992 1.384 . S
C994 C995 1.372 . S
C995 C994 1.372 . S
C995 C996 1.400 . S
C995 C1000 1.490 1_455 S
C996 H986 0.930 . S
C996 C995 1.400 . S
C996 C999 1.386 . S
H997 C1013 0.930 . S
H998 C1014 0.931 . S
C999 H987 0.929 . S
C999 C993 1.390 . S
C999 C996 1.386 . S
C1000 C995 1.490 1_655 S
C1000 C1002 1.395 . S
C1000 C1003 1.403 . S
H1001 C1007 0.930 . S
C1002 H988 0.941 . S
C1002 C1000 1.395 . S
C1002 C1005 1.403 . S
C1003 C1000 1.403 . S
C1003 C1004 1.524 . S
C1003 C1007 1.400 . S
C1004 H989 0.960 . S
C1004 H990 0.960 . S
C1004 H991 0.960 . S
C1004 C1003 1.524 . S
C1005 C1002 1.403 . S
C1005 C1006 1.392 . S
C1005 C1009 1.495 . S
C1006 C1005 1.392 . S
C1006 C1007 1.385 . S
C1006 C1008 1.478 . S
C1007 H1001 0.930 . S
C1007 C1003 1.400 . S
C1007 C1006 1.385 . S
C1008 C1006 1.478 . S
C1008 C1010 1.381 . S
C1008 C1014 1.383 . S
C1009 C1005 1.495 . S
C1009 H1015 0.959 . S
C1009 H1016 0.961 . S
C1009 H1017 0.960 . S
C1010 C1008 1.381 . S
C1010 C1011 1.394 . S
C1010 H1018 0.930 . S
C1011 C1010 1.394 . S
C1011 C1012 1.383 . S
C1011 H1019 0.929 . S
C1012 C1011 1.383 . S
C1012 C1013 1.377 . S
C1013 H997 0.930 . S
C1013 C1012 1.377 . S
C1013 C1014 1.379 . S
C1014 H998 0.931 . S
C1014 C1008 1.383 . S
C1014 C1013 1.379 . S
H1015 C1009 0.959 . S
H1016 C1009 0.961 . S
H1017 C1009 0.960 . S
H1018 C1010 0.930 . S
H1019 C1011 0.929 . S
H1020 C1028 0.929 . S
H1021 C1030 0.930 . S
H1022 C1032 0.930 . S
H1023 C1035 0.929 . S
H1024 C1038 0.930 . S
H1025 C1040 0.960 . S
H1026 C1040 0.960 . S
H1027 C1040 0.960 . S
C1028 H1020 0.929 . S
C1028 C1029 1.377 . S
C1028 C1030 1.384 . S
C1029 C1028 1.377 . S
C1029 C1035 1.390 . S
C1030 H1021 0.930 . S
C1030 C1028 1.384 . S
C1030 C1031 1.372 . S
C1031 C1030 1.372 . S
C1031 C1032 1.400 . S
C1031 C1036 1.490 . S
C1032 H1022 0.930 . S
C1032 C1031 1.400 . S
C1032 C1035 1.386 . S
H1033 C1049 0.930 . S
H1034 C1050 0.931 . S
C1035 H1023 0.929 . S
C1035 C1029 1.390 . S
C1035 C1032 1.386 . S
C1036 C1031 1.490 . S
C1036 C1038 1.395 . S
C1036 C1039 1.403 . S
H1037 C1043 0.940 . S
C1038 H1024 0.930 . S
C1038 C1036 1.395 . S
C1038 C1041 1.403 . S
C1039 C1036 1.403 . S
C1039 C1040 1.524 . S
C1039 C1043 1.400 . S
C1040 H1025 0.960 . S
C1040 H1026 0.960 . S
C1040 H1027 0.960 . S
C1040 C1039 1.524 . S
C1041 C1038 1.403 . S
C1041 C1042 1.392 . S
C1041 C1045 1.495 . S
C1042 C1041 1.392 . S
C1042 C1043 1.385 . S
C1042 C1044 1.478 1_455 S
C1043 H1037 0.940 . S
C1043 C1039 1.400 . S
C1043 C1042 1.385 . S
C1044 C1042 1.478 1_655 S
C1044 C1046 1.381 . S
C1044 C1050 1.383 . S
C1045 C1041 1.495 . S
C1045 H1051 0.966 . S
C1045 H1052 0.961 . S
C1045 H1053 0.960 . S
C1046 C1044 1.381 . S
C1046 C1047 1.394 . S
C1046 H1054 0.930 . S
C1047 C1046 1.394 . S
C1047 C1048 1.383 . S
C1047 H1055 0.929 . S
C1048 C1047 1.383 . S
C1048 C1049 1.377 . S
C1049 H1033 0.930 . S
C1049 C1048 1.377 . S
C1049 C1050 1.379 . S
C1050 H1034 0.931 . S
C1050 C1044 1.383 . S
C1050 C1049 1.379 . S
H1051 C1045 0.966 . S
H1052 C1045 0.961 . S
H1053 C1045 0.960 . S
H1054 C1046 0.930 . S
H1055 C1047 0.929 . S
H1056 C1064 0.929 . S
H1057 C1066 0.930 . S
H1058 C1068 0.930 . S
H1059 C1071 0.929 . S
H1060 C1074 0.930 . S
H1061 C1076 0.960 . S
H1062 C1076 0.960 . S
H1063 C1076 0.960 . S
C1064 H1056 0.929 . S
C1064 C1065 1.377 . S
C1064 C1066 1.384 . S
C1065 C1064 1.377 . S
C1065 C1071 1.390 . S
C1066 H1057 0.930 . S
C1066 C1064 1.384 . S
C1066 C1067 1.372 . S
C1067 C1066 1.372 . S
C1067 C1068 1.400 . S
C1067 C1072 1.490 1_545 S
C1068 H1058 0.930 . S
C1068 C1067 1.400 . S
C1068 C1071 1.386 . S
H1069 C1085 0.930 . S
H1070 C1086 0.931 . S
C1071 H1059 0.929 . S
C1071 C1065 1.390 . S
C1071 C1068 1.386 . S
C1072 C1067 1.490 1_565 S
C1072 C1074 1.395 . S
C1072 C1075 1.403 . S
H1073 C1079 0.930 . S
C1074 H1060 0.930 . S
C1074 C1072 1.395 . S
C1074 C1077 1.403 . S
C1075 C1072 1.403 . S
C1075 C1076 1.524 . S
C1075 C1079 1.400 . S
C1076 H1061 0.960 . S
C1076 H1062 0.960 . S
C1076 H1063 0.960 . S
C1076 C1075 1.524 . S
C1077 C1074 1.403 . S
C1077 C1078 1.392 . S
C1077 C1081 1.495 . S
C1078 C1077 1.392 . S
C1078 C1079 1.385 . S
C1078 C1080 1.478 . S
C1079 H1073 0.930 . S
C1079 C1075 1.400 . S
C1079 C1078 1.385 . S
C1080 C1078 1.478 . S
C1080 C1082 1.381 . S
C1080 C1086 1.383 . S
C1081 C1077 1.495 . S
C1081 H1087 0.959 . S
C1081 H1088 0.961 . S
C1081 H1089 0.960 . S
C1082 C1080 1.381 . S
C1082 C1083 1.394 . S
C1082 H1090 0.930 . S
C1083 C1082 1.394 . S
C1083 C1084 1.383 . S
C1083 H1091 0.929 . S
C1084 C1083 1.383 . S
C1084 C1085 1.377 . S
C1085 H1069 0.930 . S
C1085 C1084 1.377 . S
C1085 C1086 1.379 . S
C1086 H1070 0.931 . S
C1086 C1080 1.383 . S
C1086 C1085 1.379 . S
H1087 C1081 0.959 . S
H1088 C1081 0.961 . S
H1089 C1081 0.960 . S
H1090 C1082 0.930 . S
H1091 C1083 0.929 . S
H1092 C1100 0.929 . S
H1093 C1102 0.930 . S
H1094 C1104 0.930 . S
H1095 C1107 0.929 . S
H1096 C1110 0.930 . S
H1097 C1112 0.960 . S
H1098 C1112 0.960 . S
H1099 C1112 0.960 . S
C1100 H1092 0.929 . S
C1100 C1101 1.377 . S
C1100 C1102 1.384 . S
C1101 C1100 1.377 . S
C1101 C1107 1.390 . S
C1102 H1093 0.930 . S
C1102 C1100 1.384 . S
C1102 C1103 1.372 . S
C1103 C1102 1.372 . S
C1103 C1104 1.400 . S
C1103 C1108 1.490 . S
C1104 H1094 0.930 . S
C1104 C1103 1.400 . S
C1104 C1107 1.386 . S
H1105 C1121 0.930 . S
H1106 C1122 0.931 . S
C1107 H1095 0.929 . S
C1107 C1101 1.390 . S
C1107 C1104 1.386 . S
C1108 C1103 1.490 . S
C1108 C1110 1.395 . S
C1108 C1111 1.403 . S
H1109 C1115 0.930 1_565 S
C1110 H1096 0.930 . S
C1110 C1108 1.395 . S
C1110 C1113 1.403 . S
C1111 C1108 1.403 . S
C1111 C1112 1.524 . S
C1111 C1115 1.400 . S
C1112 H1097 0.960 . S
C1112 H1098 0.960 . S
C1112 H1099 0.960 . S
C1112 C1111 1.524 . S
C1113 C1110 1.403 . S
C1113 C1114 1.392 . S
C1113 C1117 1.495 . S
C1114 C1113 1.392 . S
C1114 C1115 1.385 . S
C1114 C1116 1.478 1_545 S
C1115 H1109 0.930 1_545 S
C1115 C1111 1.400 . S
C1115 C1114 1.385 . S
C1116 C1114 1.478 1_565 S
C1116 C1118 1.381 . S
C1116 C1122 1.383 . S
C1117 C1113 1.495 . S
C1117 H1123 0.959 . S
C1117 H1124 0.961 . S
C1117 H1125 0.960 . S
C1118 C1116 1.381 . S
C1118 C1119 1.394 . S
C1118 H1126 0.930 . S
C1119 C1118 1.394 . S
C1119 C1120 1.383 . S
C1119 H1127 0.929 . S
C1120 C1119 1.383 . S
C1120 C1121 1.377 . S
C1121 H1105 0.930 . S
C1121 C1120 1.377 . S
C1121 C1122 1.379 . S
C1122 H1106 0.931 . S
C1122 C1116 1.383 . S
C1122 C1121 1.379 . S
H1123 C1117 0.959 . S
H1124 C1117 0.961 . S
H1125 C1117 0.960 . S
H1126 C1118 0.930 . S
H1127 C1119 0.929 . S
H1128 C1136 0.929 . S
H1129 C1138 0.930 . S
H1130 C1140 0.930 . S
H1131 C1143 0.929 . S
H1132 C1146 0.930 . S
H1133 C1148 0.960 . S
H1134 C1148 0.960 . S
H1135 C1148 0.960 . S
C1136 H1128 0.929 . S
C1136 C1137 1.377 . S
C1136 C1138 1.384 . S
C1137 C1136 1.377 . S
C1137 C1143 1.390 . S
C1138 H1129 0.930 . S
C1138 C1136 1.384 . S
C1138 C1139 1.372 . S
C1139 C1138 1.372 . S
C1139 C1140 1.400 . S
C1139 C1144 1.490 . S
C1140 H1130 0.930 . S
C1140 C1139 1.400 . S
C1140 C1143 1.386 . S
H1141 C1157 0.930 . S
H1142 C1158 0.931 . S
C1143 H1131 0.929 . S
C1143 C1137 1.390 . S
C1143 C1140 1.386 . S
C1144 C1139 1.490 . S
C1144 C1146 1.395 . S
C1144 C1147 1.403 . S
H1145 C1151 0.930 . S
C1146 H1132 0.930 . S
C1146 C1144 1.395 . S
C1146 C1149 1.403 . S
C1147 C1144 1.403 . S
C1147 C1148 1.524 . S
C1147 C1151 1.400 . S
C1148 H1133 0.960 . S
C1148 H1134 0.960 . S
C1148 H1135 0.960 . S
C1148 C1147 1.524 . S
C1149 C1146 1.403 . S
C1149 C1150 1.392 . S
C1149 C1153 1.495 . S
C1150 C1149 1.392 . S
C1150 C1151 1.385 . S
C1150 C1152 1.478 . S
C1151 H1145 0.930 . S
C1151 C1147 1.400 . S
C1151 C1150 1.385 . S
C1152 C1150 1.478 . S
C1152 C1154 1.381 . S
C1152 C1158 1.383 . S
C1153 C1149 1.495 . S
C1153 H1159 0.959 . S
C1153 H1160 0.961 . S
C1153 H1161 0.960 . S
C1154 C1152 1.381 . S
C1154 C1155 1.394 . S
C1154 H1162 0.930 . S
C1155 C1154 1.394 . S
C1155 C1156 1.383 . S
C1155 H1163 0.929 . S
C1156 C1155 1.383 . S
C1156 C1157 1.377 . S
C1157 H1141 0.930 . S
C1157 C1156 1.377 . S
C1157 C1158 1.379 . S
C1158 H1142 0.931 . S
C1158 C1152 1.383 . S
C1158 C1157 1.379 . S
H1159 C1153 0.959 . S
H1160 C1153 0.961 . S
H1161 C1153 0.960 . S
H1162 C1154 0.930 . S
H1163 C1155 0.929 . S
H1164 C1172 0.929 . S
H1165 C1174 0.930 . S
H1166 C1176 0.930 . S
H1167 C1179 0.929 . S
H1168 C1182 0.930 . S
H1169 C1184 0.960 . S
H1170 C1184 0.960 . S
H1171 C1184 0.960 . S
C1172 H1164 0.929 . S
C1172 C1173 1.377 . S
C1172 C1174 1.384 . S
C1173 C1172 1.377 . S
C1173 C1179 1.390 . S
C1174 H1165 0.930 . S
C1174 C1172 1.384 . S
C1174 C1175 1.372 . S
C1175 C1174 1.372 . S
C1175 C1176 1.400 . S
C1175 C1180 1.490 . S
C1176 H1166 0.930 . S
C1176 C1175 1.400 . S
C1176 C1179 1.386 . S
H1177 C1193 0.977 . S
H1178 C1194 0.931 . S
C1179 H1167 0.929 . S
C1179 C1173 1.390 . S
C1179 C1176 1.386 . S
C1180 C1175 1.490 . S
C1180 C1182 1.395 . S
C1180 C1183 1.403 . S
H1181 C1187 0.930 . S
C1182 H1168 0.930 . S
C1182 C1180 1.395 . S
C1182 C1185 1.403 . S
C1183 C1180 1.403 . S
C1183 C1184 1.524 . S
C1183 C1187 1.400 . S
C1184 H1169 0.960 . S
C1184 H1170 0.960 . S
C1184 H1171 0.960 . S
C1184 C1183 1.524 . S
C1185 C1182 1.403 . S
C1185 C1186 1.392 . S
C1185 C1189 1.495 1_545 S
C1186 C1185 1.392 . S
C1186 C1187 1.385 . S
C1186 C1188 1.478 1_545 S
C1187 H1181 0.930 . S
C1187 C1183 1.400 . S
C1187 C1186 1.385 . S
C1188 C1186 1.478 1_565 S
C1188 C1190 1.381 . S
C1188 C1194 1.383 . S
C1189 C1185 1.495 1_565 S
C1189 H1195 0.959 . S
C1189 H1196 0.961 . S
C1189 H1197 0.960 . S
C1190 C1188 1.381 . S
C1190 C1191 1.394 . S
C1190 H1198 0.930 . S
C1191 C1190 1.394 . S
C1191 C1192 1.383 . S
C1191 H1199 0.929 . S
C1192 C1191 1.383 . S
C1192 C1193 1.377 . S
C1193 H1177 0.977 . S
C1193 C1192 1.377 . S
C1193 C1194 1.379 . S
C1194 H1178 0.931 . S
C1194 C1188 1.383 . S
C1194 C1193 1.379 . S
H1195 C1189 0.959 . S
H1196 C1189 0.961 . S
H1197 C1189 0.960 . S
H1198 C1190 0.930 . S
H1199 C1191 0.929 . S
H1200 C1208 0.929 . S
H1201 C1210 0.930 . S
H1202 C1212 0.930 . S
H1203 C1215 0.929 . S
H1204 C1218 0.930 . S
H1205 C1220 0.960 . S
H1206 C1220 0.960 . S
H1207 C1220 0.960 . S
C1208 H1200 0.929 . S
C1208 C1209 1.385 . S
C1208 C1210 1.384 . S
C1209 C1208 1.385 . S
C1209 C1215 1.382 1_655 S
C1210 H1201 0.930 . S
C1210 C1208 1.384 . S
C1210 C1211 1.373 1_655 S
C1211 C1210 1.373 1_455 S
C1211 C1212 1.399 . S
C1211 C1216 1.490 1_455 S
C1212 H1202 0.930 . S
C1212 C1211 1.399 . S
C1212 C1215 1.386 . S
H1213 C1229 0.930 . S
H1214 C1230 0.931 . S
C1215 H1203 0.929 . S
C1215 C1209 1.382 1_455 S
C1215 C1212 1.386 . S
C1216 C1211 1.490 1_655 S
C1216 C1218 1.400 . S
C1216 C1219 1.397 1_655 S
H1217 C1223 0.930 . S
C1218 H1204 0.930 . S
C1218 C1216 1.400 . S
C1218 C1221 1.403 . S
C1219 C1216 1.397 1_455 S
C1219 C1220 1.524 . S
C1219 C1223 1.400 . S
C1220 H1205 0.960 . S
C1220 H1206 0.960 . S
C1220 H1207 0.960 . S
C1220 C1219 1.524 . S
C1221 C1218 1.403 . S
C1221 C1222 1.392 . S
C1221 C1225 1.495 . S
C1222 C1221 1.392 . S
C1222 C1223 1.385 1_655 S
C1222 C1224 1.478 . S
C1223 H1217 0.930 . S
C1223 C1219 1.400 . S
C1223 C1222 1.385 1_455 S
C1224 C1222 1.478 . S
C1224 C1226 1.381 . S
C1224 C1230 1.383 1_655 S
C1225 C1221 1.495 . S
C1225 H1231 0.959 . S
C1225 H1232 0.961 . S
C1225 H1233 0.960 . S
C1226 C1224 1.381 . S
C1226 C1227 1.394 . S
C1226 H1234 0.930 . S
C1227 C1226 1.394 . S
C1227 C1228 1.383 1_655 S
C1227 H1235 0.929 . S
C1228 C1227 1.383 1_455 S
C1228 C1229 1.377 . S
C1229 H1213 0.930 . S
C1229 C1228 1.377 . S
C1229 C1230 1.379 . S
C1230 H1214 0.931 . S
C1230 C1224 1.383 1_455 S
C1230 C1229 1.379 . S
H1231 C1225 0.959 . S
H1232 C1225 0.961 . S
H1233 C1225 0.960 . S
H1234 C1226 0.930 . S
H1235 C1227 0.929 . S
H1236 C1244 0.929 . S
H1237 C1246 0.930 . S
H1238 C1248 0.930 . S
H1239 C1251 0.929 . S
H1240 C1254 0.930 . S
H1241 C1256 0.960 . S
H1242 C1256 0.960 . S
H1243 C1256 0.960 . S
C1244 H1236 0.929 . S
C1244 C1245 1.377 . S
C1244 C1246 1.384 . S
C1245 C1244 1.377 . S
C1245 C1251 1.390 1_455 S
C1246 H1237 0.930 . S
C1246 C1244 1.384 . S
C1246 C1247 1.372 . S
C1247 C1246 1.372 . S
C1247 C1248 1.400 1_455 S
C1247 C1252 1.490 . S
C1248 H1238 0.930 . S
C1248 C1247 1.400 1_655 S
C1248 C1251 1.386 . S
H1249 C1265 0.930 . S
H1250 C1266 0.931 . S
C1251 H1239 0.929 . S
C1251 C1245 1.390 1_655 S
C1251 C1248 1.386 . S
C1252 C1247 1.490 . S
C1252 C1254 1.395 . S
C1252 C1255 1.403 1_455 S
H1253 C1259 0.930 . S
C1254 H1240 0.930 . S
C1254 C1252 1.395 . S
C1254 C1257 1.403 . S
C1255 C1252 1.403 1_655 S
C1255 C1256 1.524 . S
C1255 C1259 1.400 . S
C1256 H1241 0.960 . S
C1256 H1242 0.960 . S
C1256 H1243 0.960 . S
C1256 C1255 1.524 . S
C1257 C1254 1.403 . S
C1257 C1258 1.392 . S
C1257 C1261 1.495 . S
C1258 C1257 1.392 . S
C1258 C1259 1.385 1_455 S
C1258 C1260 1.478 . S
C1259 H1253 0.930 . S
C1259 C1255 1.400 . S
C1259 C1258 1.385 1_655 S
C1260 C1258 1.478 . S
C1260 C1262 1.381 . S
C1260 C1266 1.383 1_455 S
C1261 C1257 1.495 . S
C1261 H1267 0.959 . S
C1261 H1268 0.961 . S
C1261 H1269 0.960 . S
C1262 C1260 1.381 . S
C1262 C1263 1.394 . S
C1262 H1270 0.930 . S
C1263 C1262 1.394 . S
C1263 C1264 1.362 1_455 S
C1263 H1271 0.929 . S
C1264 C1263 1.362 1_655 S
C1264 C1265 1.396 . S
C1265 H1249 0.930 . S
C1265 C1264 1.396 . S
C1265 C1266 1.379 . S
C1266 H1250 0.931 . S
C1266 C1260 1.383 1_655 S
C1266 C1265 1.379 . S
H1267 C1261 0.959 . S
H1268 C1261 0.961 . S
H1269 C1261 0.960 . S
H1270 C1262 0.930 . S
H1271 C1263 0.929 . S
H1272 C1280 0.929 . S
H1273 C1282 0.930 . S
H1274 C1284 0.930 . S
H1275 C1287 0.929 . S
H1276 C1290 0.930 . S
H1277 C1292 0.960 . S
H1278 C1292 0.960 . S
H1279 C1292 0.960 . S
C1280 H1272 0.929 . S
C1280 C1281 1.348 1_545 S
C1280 C1282 1.384 . S
C1281 C1280 1.348 1_565 S
C1281 C1287 1.418 . S
C1282 H1273 0.930 . S
C1282 C1280 1.384 . S
C1282 C1283 1.372 . S
C1283 C1282 1.372 . S
C1283 C1284 1.400 1_545 S
C1283 C1288 1.490 . S
C1284 H1274 0.930 . S
C1284 C1283 1.400 1_565 S
C1284 C1287 1.386 . S
H1285 C1301 0.930 . S
H1286 C1302 0.931 . S
C1287 H1275 0.929 . S
C1287 C1281 1.418 . S
C1287 C1284 1.386 . S
C1288 C1283 1.490 . S
C1288 C1290 1.395 . S
C1288 C1291 1.403 1_545 S
H1289 C1295 0.930 . S
C1290 H1276 0.930 . S
C1290 C1288 1.395 . S
C1290 C1293 1.403 . S
C1291 C1288 1.403 1_565 S
C1291 C1292 1.524 . S
C1291 C1295 1.400 . S
C1292 H1277 0.960 . S
C1292 H1278 0.960 . S
C1292 H1279 0.960 . S
C1292 C1291 1.524 . S
C1293 C1290 1.403 . S
C1293 C1294 1.392 . S
C1293 C1297 1.495 . S
C1294 C1293 1.392 . S
C1294 C1295 1.385 1_545 S
C1294 C1296 1.478 . S
C1295 H1289 0.930 . S
C1295 C1291 1.400 . S
C1295 C1294 1.385 1_565 S
C1296 C1294 1.478 . S
C1296 C1298 1.381 . S
C1296 C1302 1.383 1_545 S
C1297 C1293 1.495 . S
C1297 H1303 0.959 . S
C1297 H1304 0.961 . S
C1297 H1305 0.960 . S
C1298 C1296 1.381 . S
C1298 C1299 1.394 . S
C1298 H1306 0.930 . S
C1299 C1298 1.394 . S
C1299 C1300 1.383 . S
C1299 H1307 0.929 . S
C1300 C1299 1.383 . S
C1300 C1301 1.377 1_545 S
C1301 H1285 0.930 . S
C1301 C1300 1.377 1_565 S
C1301 C1302 1.379 . S
C1302 H1286 0.931 . S
C1302 C1296 1.383 1_565 S
C1302 C1301 1.379 . S
H1303 C1297 0.959 . S
H1304 C1297 0.961 . S
H1305 C1297 0.960 . S
H1306 C1298 0.930 . S
H1307 C1299 0.929 . S
H1308 C1316 0.929 . S
H1309 C1318 0.930 . S
H1310 C1320 0.930 . S
H1311 C1323 0.929 . S
H1312 C1326 0.930 . S
H1313 C1328 0.960 . S
H1314 C1328 0.960 . S
H1315 C1328 0.960 . S
C1316 H1308 0.929 . S
C1316 C1317 1.377 . S
C1316 C1318 1.384 . S
C1317 C1316 1.377 . S
C1317 C1323 1.390 . S
C1318 H1309 0.930 . S
C1318 C1316 1.384 . S
C1318 C1319 1.372 . S
C1319 C1318 1.372 . S
C1319 C1320 1.400 . S
C1319 C1324 1.490 . S
C1320 H1310 0.930 . S
C1320 C1319 1.400 . S
C1320 C1323 1.386 . S
H1321 C1337 0.930 . S
H1322 C1338 0.931 . S
C1323 H1311 0.929 . S
C1323 C1317 1.390 . S
C1323 C1320 1.386 . S
C1324 C1319 1.490 . S
C1324 C1326 1.395 . S
C1324 C1327 1.403 . S
H1325 C1331 0.930 . S
C1326 H1312 0.930 . S
C1326 C1324 1.395 . S
C1326 C1329 1.403 . S
C1327 C1324 1.403 . S
C1327 C1328 1.524 . S
C1327 C1331 1.400 . S
C1328 H1313 0.960 . S
C1328 H1314 0.960 . S
C1328 H1315 0.960 . S
C1328 C1327 1.524 . S
C1329 C1326 1.403 . S
C1329 C1330 1.392 . S
C1329 C1333 1.495 . S
C1330 C1329 1.392 . S
C1330 C1331 1.385 . S
C1330 C1332 1.478 . S
C1331 H1325 0.930 . S
C1331 C1327 1.400 . S
C1331 C1330 1.385 . S
C1332 C1330 1.478 . S
C1332 C1334 1.381 . S
C1332 C1338 1.383 . S
C1333 C1329 1.495 . S
C1333 H1339 0.959 . S
C1333 H1340 0.961 . S
C1333 H1341 0.960 . S
C1334 C1332 1.381 . S
C1334 C1335 1.394 . S
C1334 H1342 0.930 . S
C1335 C1334 1.394 . S
C1335 C1336 1.383 . S
C1335 H1343 0.929 . S
C1336 C1335 1.383 . S
C1336 C1337 1.377 . S
C1337 H1321 0.930 . S
C1337 C1336 1.377 . S
C1337 C1338 1.379 . S
C1338 H1322 0.931 . S
C1338 C1332 1.383 . S
C1338 C1337 1.379 . S
H1339 C1333 0.959 . S
H1340 C1333 0.961 . S
H1341 C1333 0.960 . S
H1342 C1334 0.930 . S
H1343 C1335 0.929 . S
H1344 C1352 0.929 . S
H1345 C1354 0.930 . S
H1346 C1356 0.930 . S
H1347 C1359 0.929 . S
H1348 C1362 0.930 . S
H1349 C1364 0.960 . S
H1350 C1364 0.960 . S
H1351 C1364 0.960 . S
C1352 H1344 0.929 . S
C1352 C1353 1.377 . S
C1352 C1354 1.384 . S
C1353 C1352 1.377 . S
C1353 C1359 1.390 1_554 S
C1354 H1345 0.930 . S
C1354 C1352 1.384 . S
C1354 C1355 1.372 . S
C1355 C1354 1.372 . S
C1355 C1356 1.400 1_554 S
C1355 C1360 1.490 . S
C1356 H1346 0.930 . S
C1356 C1355 1.400 1_556 S
C1356 C1359 1.386 . S
H1357 C1373 0.930 . S
H1358 C1374 0.931 . S
C1359 H1347 0.929 . S
C1359 C1353 1.390 1_556 S
C1359 C1356 1.386 . S
C1360 C1355 1.490 . S
C1360 C1362 1.395 . S
C1360 C1363 1.403 1_554 S
H1361 C1367 0.930 . S
C1362 H1348 0.930 . S
C1362 C1360 1.395 . S
C1362 C1365 1.403 . S
C1363 C1360 1.403 1_556 S
C1363 C1364 1.524 . S
C1363 C1367 1.400 . S
C1364 H1349 0.960 . S
C1364 H1350 0.960 . S
C1364 H1351 0.960 . S
C1364 C1363 1.524 . S
C1365 C1362 1.403 . S
C1365 C1366 1.392 . S
C1365 C1369 1.495 . S
C1366 C1365 1.392 . S
C1366 C1367 1.385 1_554 S
C1366 C1368 1.478 . S
C1367 H1361 0.930 . S
C1367 C1363 1.400 . S
C1367 C1366 1.385 1_556 S
C1368 C1366 1.478 . S
C1368 C1370 1.381 . S
C1368 C1374 1.383 1_554 S
C1369 C1365 1.495 . S
C1369 H1375 0.959 . S
C1369 H1376 0.961 . S
C1369 H1377 0.960 . S
C1370 C1368 1.381 . S
C1370 C1371 1.394 . S
C1370 H1378 0.930 . S
C1371 C1370 1.394 . S
C1371 C1372 1.386 . S
C1371 H1379 0.929 . S
C1372 C1371 1.386 . S
C1372 C1373 1.374 1_554 S
C1373 H1357 0.930 . S
C1373 C1372 1.374 1_556 S
C1373 C1374 1.379 . S
C1374 H1358 0.931 . S
C1374 C1368 1.383 1_556 S
C1374 C1373 1.379 . S
H1375 C1369 0.959 . S
H1376 C1369 0.961 . S
H1377 C1369 0.960 . S
H1378 C1370 0.930 . S
H1379 C1371 0.929 . S
H1380 C1388 0.929 . S
H1381 C1390 0.930 . S
H1382 C1392 0.930 . S
H1383 C1395 0.929 . S
H1384 C1398 0.930 . S
H1385 C1400 0.960 . S
H1386 C1400 0.960 . S
H1387 C1400 0.960 . S
C1388 H1380 0.929 . S
C1388 C1389 1.377 . S
C1388 C1390 1.384 . S
C1389 C1388 1.377 . S
C1389 C1395 1.390 . S
C1390 H1381 0.930 . S
C1390 C1388 1.384 . S
C1390 C1391 1.372 . S
C1391 C1390 1.372 . S
C1391 C1392 1.400 . S
C1391 C1396 1.490 . S
C1392 H1382 0.930 . S
C1392 C1391 1.400 . S
C1392 C1395 1.386 . S
H1393 C1409 0.930 . S
H1394 C1410 0.931 . S
C1395 H1383 0.929 . S
C1395 C1389 1.390 . S
C1395 C1392 1.386 . S
C1396 C1391 1.490 . S
C1396 C1398 1.395 . S
C1396 C1399 1.403 . S
H1397 C1403 0.930 . S
C1398 H1384 0.930 . S
C1398 C1396 1.395 . S
C1398 C1401 1.403 . S
C1399 C1396 1.403 . S
C1399 C1400 1.524 . S
C1399 C1403 1.400 . S
C1400 H1385 0.960 . S
C1400 H1386 0.960 . S
C1400 H1387 0.960 . S
C1400 C1399 1.524 . S
C1401 C1398 1.403 . S
C1401 C1402 1.392 . S
C1401 C1405 1.495 . S
C1402 C1401 1.392 . S
C1402 C1403 1.385 . S
C1402 C1404 1.478 . S
C1403 H1397 0.930 . S
C1403 C1399 1.400 . S
C1403 C1402 1.385 . S
C1404 C1402 1.478 . S
C1404 C1406 1.381 . S
C1404 C1410 1.383 . S
C1405 C1401 1.495 . S
C1405 H1411 0.959 . S
C1405 H1412 0.961 . S
C1405 H1413 0.960 . S
C1406 C1404 1.381 . S
C1406 C1407 1.394 . S
C1406 H1414 0.930 . S
C1407 C1406 1.394 . S
C1407 C1408 1.383 . S
C1407 H1415 0.929 . S
C1408 C1407 1.383 . S
C1408 C1409 1.377 . S
C1409 H1393 0.930 . S
C1409 C1408 1.377 . S
C1409 C1410 1.379 . S
C1410 H1394 0.931 . S
C1410 C1404 1.383 . S
C1410 C1409 1.379 . S
H1411 C1405 0.959 . S
H1412 C1405 0.961 . S
H1413 C1405 0.960 . S
H1414 C1406 0.930 . S
H1415 C1407 0.929 . S
H1416 C1424 0.929 . S
H1417 C1426 0.930 . S
H1418 C1428 0.930 . S
H1419 C1431 0.929 . S
H1420 C1434 0.930 . S
H1421 C1436 0.960 . S
H1422 C1436 0.960 . S
H1423 C1436 0.960 . S
C1424 H1416 0.929 . S
C1424 C1425 1.377 . S
C1424 C1426 1.384 . S
C1425 C1424 1.377 . S
C1425 C1431 1.390 . S
C1426 H1417 0.930 . S
C1426 C1424 1.384 . S
C1426 C1427 1.372 . S
C1427 C1426 1.372 . S
C1427 C1428 1.400 . S
C1427 C1432 1.490 . S
C1428 H1418 0.930 . S
C1428 C1427 1.400 . S
C1428 C1431 1.386 . S
H1429 C1445 0.930 . S
H1430 C1446 0.931 . S
C1431 H1419 0.929 . S
C1431 C1425 1.390 . S
C1431 C1428 1.386 . S
C1432 C1427 1.490 . S
C1432 C1434 1.395 . S
C1432 C1435 1.403 . S
H1433 C1439 0.930 . S
C1434 H1420 0.930 . S
C1434 C1432 1.395 . S
C1434 C1437 1.403 . S
C1435 C1432 1.403 . S
C1435 C1436 1.524 . S
C1435 C1439 1.400 . S
C1436 H1421 0.960 . S
C1436 H1422 0.960 . S
C1436 H1423 0.960 . S
C1436 C1435 1.524 . S
C1437 C1434 1.403 . S
C1437 C1438 1.392 . S
C1437 C1441 1.495 . S
C1438 C1437 1.392 . S
C1438 C1439 1.385 . S
C1438 C1440 1.478 . S
C1439 H1433 0.930 . S
C1439 C1435 1.400 . S
C1439 C1438 1.385 . S
C1440 C1438 1.478 . S
C1440 C1442 1.381 . S
C1440 C1446 1.383 . S
C1441 C1437 1.495 . S
C1441 H1447 0.959 . S
C1441 H1448 0.961 . S
C1441 H1449 0.960 . S
C1442 C1440 1.381 . S
C1442 C1443 1.394 . S
C1442 H1450 0.930 . S
C1443 C1442 1.394 . S
C1443 C1444 1.383 . S
C1443 H1451 0.929 . S
C1444 C1443 1.383 . S
C1444 C1445 1.377 . S
C1445 H1429 0.930 . S
C1445 C1444 1.377 . S
C1445 C1446 1.379 . S
C1446 H1430 0.931 . S
C1446 C1440 1.383 . S
C1446 C1445 1.379 . S
H1447 C1441 0.959 . S
H1448 C1441 0.961 . S
H1449 C1441 0.960 . S
H1450 C1442 0.930 . S
H1451 C1443 0.929 . S
H1452 C1460 0.929 . S
H1453 C1462 0.930 . S
H1454 C1464 0.930 . S
H1455 C1467 0.929 . S
H1456 C1470 0.930 . S
H1457 C1472 0.960 . S
H1458 C1472 0.960 . S
H1459 C1472 0.960 . S
C1460 H1452 0.929 . S
C1460 C1461 1.377 . S
C1460 C1462 1.384 . S
C1461 C1460 1.377 . S
C1461 C1467 1.390 . S
C1462 H1453 0.930 . S
C1462 C1460 1.384 . S
C1462 C1463 1.372 . S
C1463 C1462 1.372 . S
C1463 C1464 1.400 . S
C1463 C1468 1.490 . S
C1464 H1454 0.930 . S
C1464 C1463 1.400 . S
C1464 C1467 1.386 . S
H1465 C1481 0.930 . S
H1466 C1482 0.931 . S
C1467 H1455 0.929 . S
C1467 C1461 1.390 . S
C1467 C1464 1.386 . S
C1468 C1463 1.490 . S
C1468 C1470 1.395 . S
C1468 C1471 1.403 . S
H1469 C1475 0.930 . S
C1470 H1456 0.930 . S
C1470 C1468 1.395 . S
C1470 C1473 1.403 . S
C1471 C1468 1.403 . S
C1471 C1472 1.524 . S
C1471 C1475 1.400 . S
C1472 H1457 0.960 . S
C1472 H1458 0.960 . S
C1472 H1459 0.960 . S
C1472 C1471 1.524 . S
C1473 C1470 1.403 . S
C1473 C1474 1.392 . S
C1473 C1477 1.495 . S
C1474 C1473 1.392 . S
C1474 C1475 1.385 . S
C1474 C1476 1.478 . S
C1475 H1469 0.930 . S
C1475 C1471 1.400 . S
C1475 C1474 1.385 . S
C1476 C1474 1.478 . S
C1476 C1478 1.381 . S
C1476 C1482 1.383 . S
C1477 C1473 1.495 . S
C1477 H1483 0.959 . S
C1477 H1484 0.961 . S
C1477 H1485 0.960 . S
C1478 C1476 1.381 . S
C1478 C1479 1.394 . S
C1478 H1486 0.930 . S
C1479 C1478 1.394 . S
C1479 C1480 1.383 . S
C1479 H1487 0.929 . S
C1480 C1479 1.383 . S
C1480 C1481 1.377 . S
C1481 H1465 0.930 . S
C1481 C1480 1.377 . S
C1481 C1482 1.379 . S
C1482 H1466 0.931 . S
C1482 C1476 1.383 . S
C1482 C1481 1.379 . S
H1483 C1477 0.959 . S
H1484 C1477 0.961 . S
H1485 C1477 0.960 . S
H1486 C1478 0.930 . S
H1487 C1479 0.929 . S
H1488 C1496 0.929 . S
H1489 C1498 0.930 . S
H1490 C1500 0.930 . S
H1491 C1503 0.929 . S
H1492 C1506 0.930 . S
H1493 C1508 0.960 . S
H1494 C1508 0.960 . S
H1495 C1508 0.960 . S
C1496 H1488 0.929 . S
C1496 C1497 1.377 . S
C1496 C1498 1.384 . S
C1497 C1496 1.377 . S
C1497 C1503 1.390 . S
C1498 H1489 0.930 . S
C1498 C1496 1.384 . S
C1498 C1499 1.372 . S
C1499 C1498 1.372 . S
C1499 C1500 1.400 . S
C1499 C1504 1.490 . S
C1500 H1490 0.930 . S
C1500 C1499 1.400 . S
C1500 C1503 1.386 . S
H1501 C1517 0.930 . S
H1502 C1518 0.931 . S
C1503 H1491 0.929 . S
C1503 C1497 1.390 . S
C1503 C1500 1.386 . S
C1504 C1499 1.490 . S
C1504 C1506 1.395 . S
C1504 C1507 1.403 . S
H1505 C1511 0.930 . S
C1506 H1492 0.930 . S
C1506 C1504 1.395 . S
C1506 C1509 1.403 . S
C1507 C1504 1.403 . S
C1507 C1508 1.524 . S
C1507 C1511 1.400 . S
C1508 H1493 0.960 . S
C1508 H1494 0.960 . S
C1508 H1495 0.960 . S
C1508 C1507 1.524 . S
C1509 C1506 1.403 . S
C1509 C1510 1.392 . S
C1509 C1513 1.495 . S
C1510 C1509 1.392 . S
C1510 C1511 1.385 . S
C1510 C1512 1.478 . S
C1511 H1505 0.930 . S
C1511 C1507 1.400 . S
C1511 C1510 1.385 . S
C1512 C1510 1.478 . S
C1512 C1514 1.381 . S
C1512 C1518 1.383 . S
C1513 C1509 1.495 . S
C1513 H1519 0.959 . S
C1513 H1520 0.961 . S
C1513 H1521 0.960 . S
C1514 C1512 1.381 . S
C1514 C1515 1.394 . S
C1514 H1522 0.930 . S
C1515 C1514 1.394 . S
C1515 C1516 1.383 . S
C1515 H1523 0.929 . S
C1516 C1515 1.383 . S
C1516 C1517 1.377 . S
C1517 H1501 0.930 . S
C1517 C1516 1.377 . S
C1517 C1518 1.379 . S
C1518 H1502 0.931 . S
C1518 C1512 1.383 . S
C1518 C1517 1.379 . S
H1519 C1513 0.959 . S
H1520 C1513 0.961 . S
H1521 C1513 0.960 . S
H1522 C1514 0.930 . S
H1523 C1515 0.929 . S
H1524 C1532 0.929 . S
H1525 C1534 0.930 . S
H1526 C1536 0.930 . S
H1527 C1539 0.929 . S
H1528 C1542 0.930 . S
H1529 C1544 0.960 . S
H1530 C1544 0.960 . S
H1531 C1544 0.960 . S
C1532 H1524 0.929 . S
C1532 C1533 1.377 . S
C1532 C1534 1.384 . S
C1533 C1532 1.377 . S
C1533 C1539 1.390 . S
C1534 H1525 0.930 . S
C1534 C1532 1.384 . S
C1534 C1535 1.372 . S
C1535 C1534 1.372 . S
C1535 C1536 1.400 . S
C1535 C1540 1.490 . S
C1536 H1526 0.930 . S
C1536 C1535 1.400 . S
C1536 C1539 1.386 . S
H1537 C1553 0.930 . S
H1538 C1554 0.931 . S
C1539 H1527 0.929 . S
C1539 C1533 1.390 . S
C1539 C1536 1.386 . S
C1540 C1535 1.490 . S
C1540 C1542 1.395 . S
C1540 C1543 1.403 . S
H1541 C1547 0.930 . S
C1542 H1528 0.930 . S
C1542 C1540 1.395 . S
C1542 C1545 1.403 . S
C1543 C1540 1.403 . S
C1543 C1544 1.524 . S
C1543 C1547 1.400 . S
C1544 H1529 0.960 . S
C1544 H1530 0.960 . S
C1544 H1531 0.960 . S
C1544 C1543 1.524 . S
C1545 C1542 1.403 . S
C1545 C1546 1.392 . S
C1545 C1549 1.495 . S
C1546 C1545 1.392 . S
C1546 C1547 1.385 . S
C1546 C1548 1.478 . S
C1547 H1541 0.930 . S
C1547 C1543 1.400 . S
C1547 C1546 1.385 . S
C1548 C1546 1.478 . S
C1548 C1550 1.381 . S
C1548 C1554 1.383 . S
C1549 C1545 1.495 . S
C1549 H1555 0.959 . S
C1549 H1556 0.961 . S
C1549 H1557 0.960 . S
C1550 C1548 1.381 . S
C1550 C1551 1.394 . S
C1550 H1558 0.930 . S
C1551 C1550 1.394 . S
C1551 C1552 1.383 . S
C1551 H1559 0.929 . S
C1552 C1551 1.383 . S
C1552 C1553 1.377 . S
C1553 H1537 0.930 . S
C1553 C1552 1.377 . S
C1553 C1554 1.379 . S
C1554 H1538 0.931 . S
C1554 C1548 1.383 . S
C1554 C1553 1.379 . S
H1555 C1549 0.959 . S
H1556 C1549 0.961 . S
H1557 C1549 0.960 . S
H1558 C1550 0.930 . S
H1559 C1551 0.929 . S
H1560 C1568 0.929 . S
H1561 C1570 0.930 . S
H1562 C1572 0.930 . S
H1563 C1575 0.929 . S
H1564 C1578 0.930 . S
H1565 C1580 0.960 . S
H1566 C1580 0.960 . S
H1567 C1580 0.960 . S
C1568 H1560 0.929 . S
C1568 C1569 1.377 . S
C1568 C1570 1.384 . S
C1569 C1568 1.377 . S
C1569 C1575 1.390 1_545 S
C1570 H1561 0.930 . S
C1570 C1568 1.384 . S
C1570 C1571 1.372 . S
C1571 C1570 1.372 . S
C1571 C1572 1.400 1_545 S
C1571 C1576 1.490 . S
C1572 H1562 0.930 . S
C1572 C1571 1.400 1_565 S
C1572 C1575 1.386 . S
H1573 C1589 0.930 . S
H1574 C1590 0.931 . S
C1575 H1563 0.929 . S
C1575 C1569 1.390 1_565 S
C1575 C1572 1.386 . S
C1576 C1571 1.490 . S
C1576 C1578 1.395 1_545 S
C1576 C1579 1.403 . S
H1577 C1583 0.930 . S
C1578 H1564 0.930 . S
C1578 C1576 1.395 1_565 S
C1578 C1581 1.403 . S
C1579 C1576 1.403 . S
C1579 C1580 1.524 . S
C1579 C1583 1.400 . S
C1580 H1565 0.960 . S
C1580 H1566 0.960 . S
C1580 H1567 0.960 . S
C1580 C1579 1.524 . S
C1581 C1578 1.403 . S
C1581 C1582 1.411 . S
C1581 C1585 1.495 . S
C1582 C1581 1.411 . S
C1582 C1583 1.364 1_565 S
C1582 C1584 1.482 . S
C1583 H1577 0.930 . S
C1583 C1579 1.400 . S
C1583 C1582 1.364 1_545 S
C1584 C1582 1.482 . S
C1584 C1586 1.381 1_565 S
C1584 C1590 1.383 . S
C1585 C1581 1.495 . S
C1585 H1591 0.959 . S
C1585 H1592 0.961 . S
C1585 H1593 0.960 . S
C1586 C1584 1.381 1_545 S
C1586 C1587 1.394 . S
C1586 H1594 0.930 . S
C1587 C1586 1.394 . S
C1587 C1588 1.383 1_545 S
C1587 H1595 0.929 . S
C1588 C1587 1.383 1_565 S
C1588 C1589 1.377 . S
C1589 H1573 0.930 . S
C1589 C1588 1.377 . S
C1589 C1590 1.379 . S
C1590 H1574 0.931 . S
C1590 C1584 1.383 . S
C1590 C1589 1.379 . S
H1591 C1585 0.959 . S
H1592 C1585 0.961 . S
H1593 C1585 0.960 . S
H1594 C1586 0.930 . S
H1595 C1587 0.929 . S
H1596 C1604 0.929 . S
H1597 C1606 0.930 . S
H1598 C1608 0.930 . S
H1599 C1611 0.929 . S
H1600 C1614 0.930 . S
H1601 C1616 0.960 . S
H1602 C1616 0.960 . S
H1603 C1616 0.960 . S
C1604 H1596 0.929 . S
C1604 C1605 1.377 . S
C1604 C1606 1.384 . S
C1605 C1604 1.377 . S
C1605 C1611 1.390 1_556 S
C1606 H1597 0.930 . S
C1606 C1604 1.384 . S
C1606 C1607 1.372 . S
C1607 C1606 1.372 . S
C1607 C1608 1.400 1_556 S
C1607 C1612 1.490 . S
C1608 H1598 0.930 . S
C1608 C1607 1.400 1_554 S
C1608 C1611 1.386 . S
H1609 C1625 0.930 . S
H1610 C1626 0.931 . S
C1611 H1599 0.929 . S
C1611 C1605 1.390 1_554 S
C1611 C1608 1.386 . S
C1612 C1607 1.490 . S
C1612 C1614 1.395 . S
C1612 C1615 1.403 1_556 S
H1613 C1619 0.930 . S
C1614 H1600 0.930 . S
C1614 C1612 1.395 . S
C1614 C1617 1.403 . S
C1615 C1612 1.403 1_554 S
C1615 C1616 1.524 . S
C1615 C1619 1.400 . S
C1616 H1601 0.960 . S
C1616 H1602 0.960 . S
C1616 H1603 0.960 . S
C1616 C1615 1.524 . S
C1617 C1614 1.403 . S
C1617 C1618 1.392 . S
C1617 C1621 1.495 . S
C1618 C1617 1.392 . S
C1618 C1619 1.385 1_556 S
C1618 C1620 1.477 . S
C1619 H1613 0.930 . S
C1619 C1615 1.400 . S
C1619 C1618 1.385 1_554 S
C1620 C1618 1.477 . S
C1620 C1622 1.380 . S
C1620 C1626 1.384 1_556 S
C1621 C1617 1.495 . S
C1621 H1627 0.959 . S
C1621 H1628 0.961 . S
C1621 H1629 0.960 . S
C1622 C1620 1.380 . S
C1622 C1623 1.394 . S
C1622 H1630 0.930 . S
C1623 C1622 1.394 . S
C1623 C1624 1.383 1_556 S
C1623 H1631 0.929 . S
C1624 C1623 1.383 1_554 S
C1624 C1625 1.377 . S
C1625 H1609 0.930 . S
C1625 C1624 1.377 . S
C1625 C1626 1.379 . S
C1626 H1610 0.931 . S
C1626 C1620 1.384 1_554 S
C1626 C1625 1.379 . S
H1627 C1621 0.959 . S
H1628 C1621 0.961 . S
H1629 C1621 0.960 . S
H1630 C1622 0.930 . S
H1631 C1623 0.929 . S
H1632 C1640 0.929 . S
H1633 C1642 0.930 . S
H1634 C1644 0.933 . S
H1635 C1647 0.934 . S
H1636 C1650 0.930 . S
H1637 C1652 0.960 . S
H1638 C1652 0.960 . S
H1639 C1652 0.960 . S
C1640 H1632 0.929 . S
C1640 C1641 1.377 . S
C1640 C1642 1.384 . S
C1641 C1640 1.377 . S
C1641 C1647 1.386 1_655 S
C1642 H1633 0.930 . S
C1642 C1640 1.384 . S
C1642 C1643 1.372 . S
C1643 C1642 1.372 . S
C1643 C1644 1.397 1_655 S
C1643 C1648 1.490 . S
C1644 H1634 0.933 . S
C1644 C1643 1.397 1_455 S
C1644 C1647 1.386 . S
H1645 C1661 0.930 . S
H1646 C1662 0.931 . S
C1647 H1635 0.934 . S
C1647 C1641 1.386 1_455 S
C1647 C1644 1.386 . S
C1648 C1643 1.490 . S
C1648 C1650 1.395 . S
C1648 C1651 1.403 1_655 S
H1649 C1655 0.930 . S
C1650 H1636 0.930 . S
C1650 C1648 1.395 . S
C1650 C1653 1.403 1_565 S
C1651 C1648 1.403 1_455 S
C1651 C1652 1.524 . S
C1651 C1655 1.400 1_565 S
C1652 H1637 0.960 . S
C1652 H1638 0.960 . S
C1652 H1639 0.960 . S
C1652 C1651 1.524 . S
C1653 C1650 1.403 1_545 S
C1653 C1654 1.392 . S
C1653 C1657 1.495 . S
C1654 C1653 1.392 . S
C1654 C1655 1.385 1_655 S
C1654 C1656 1.478 . S
C1655 H1649 0.930 . S
C1655 C1651 1.400 1_545 S
C1655 C1654 1.385 1_455 S
C1656 C1654 1.478 . S
C1656 C1658 1.381 . S
C1656 C1662 1.383 . S
C1657 C1653 1.495 . S
C1657 H1663 0.959 . S
C1657 H1664 0.961 . S
C1657 H1665 0.960 . S
C1658 C1656 1.381 . S
C1658 C1659 1.394 . S
C1658 H1666 0.930 . S
C1659 C1658 1.394 . S
C1659 C1660 1.383 . S
C1659 H1667 0.929 . S
C1660 C1659 1.383 . S
C1660 C1661 1.377 . S
C1661 H1645 0.930 . S
C1661 C1660 1.377 . S
C1661 C1662 1.379 . S
C1662 H1646 0.931 . S
C1662 C1656 1.383 . S
C1662 C1661 1.379 . S
H1663 C1657 0.959 . S
H1664 C1657 0.961 . S
H1665 C1657 0.960 . S
H1666 C1658 0.930 . S
H1667 C1659 0.929 . S
H1668 C1676 0.929 . S
H1669 C1678 0.930 . S
H1670 C1680 0.930 . S
H1671 C1683 0.929 . S
H1672 C1686 0.932 . S
H1673 C1688 0.960 . S
H1674 C1688 0.960 . S
H1675 C1688 0.960 1_655 S
C1676 H1668 0.929 . S
C1676 C1677 1.377 . S
C1676 C1678 1.384 . S
C1677 C1676 1.377 . S
C1677 C1683 1.390 1_455 S
C1678 H1669 0.930 . S
C1678 C1676 1.384 . S
C1678 C1679 1.372 . S
C1679 C1678 1.372 . S
C1679 C1680 1.400 1_455 S
C1679 C1684 1.490 . S
C1680 H1670 0.930 . S
C1680 C1679 1.400 1_655 S
C1680 C1683 1.386 . S
H1681 C1697 0.930 . S
H1682 C1698 0.931 . S
C1683 H1671 0.929 . S
C1683 C1677 1.390 1_655 S
C1683 C1680 1.386 . S
C1684 C1679 1.490 . S
C1684 C1686 1.395 . S
C1684 C1687 1.403 . S
H1685 C1691 0.930 . S
C1686 H1672 0.932 . S
C1686 C1684 1.395 . S
C1686 C1689 1.404 . S
C1687 C1684 1.403 . S
C1687 C1688 1.524 . S
C1687 C1691 1.400 . S
C1688 H1673 0.960 . S
C1688 H1674 0.960 . S
C1688 H1675 0.960 1_455 S
C1688 C1687 1.524 . S
C1689 C1686 1.404 . S
C1689 C1690 1.393 . S
C1689 C1693 1.494 1_455 S
C1690 C1689 1.393 . S
C1690 C1691 1.385 . S
C1690 C1692 1.479 . S
C1691 H1685 0.930 . S
C1691 C1687 1.400 . S
C1691 C1690 1.385 . S
C1692 C1690 1.479 . S
C1692 C1694 1.402 . S
C1692 C1698 1.362 1_455 S
C1693 C1689 1.494 1_655 S
C1693 H1699 0.959 . S
C1693 H1700 0.961 . S
C1693 H1701 0.960 1_655 S
C1694 C1692 1.402 . S
C1694 C1695 1.394 . S
C1694 H1702 0.930 . S
C1695 C1694 1.394 . S
C1695 C1696 1.388 1_455 S
C1695 H1703 0.929 . S
C1696 C1695 1.388 1_655 S
C1696 C1697 1.372 . S
C1697 H1681 0.930 . S
C1697 C1696 1.372 . S
C1697 C1698 1.379 . S
C1698 H1682 0.931 . S
C1698 C1692 1.362 1_655 S
C1698 C1697 1.379 . S
H1699 C1693 0.959 . S
H1700 C1693 0.961 . S
H1701 C1693 0.960 1_455 S
H1702 C1694 0.930 . S
H1703 C1695 0.929 . S
H1704 C1712 0.929 . S
H1705 C1714 0.930 . S
H1706 C1716 0.930 . S
H1707 C1719 0.929 . S
H1708 C1722 0.930 . S
H1709 C1724 0.960 . S
H1710 C1724 0.960 1_545 S
H1711 C1724 0.960 . S
C1712 H1704 0.929 . S
C1712 C1713 1.377 1_545 S
C1712 C1714 1.384 . S
C1713 C1712 1.377 1_565 S
C1713 C1719 1.390 . S
C1714 H1705 0.930 . S
C1714 C1712 1.384 . S
C1714 C1715 1.372 1_545 S
C1715 C1714 1.372 1_565 S
C1715 C1716 1.400 . S
C1715 C1720 1.490 . S
C1716 H1706 0.930 . S
C1716 C1715 1.400 . S
C1716 C1719 1.386 . S
H1717 C1733 0.930 . S
H1718 C1734 0.931 . S
C1719 H1707 0.929 . S
C1719 C1713 1.390 . S
C1719 C1716 1.386 . S
C1720 C1715 1.490 . S
C1720 C1722 1.395 1_566 S
C1720 C1723 1.403 . S
H1721 C1727 0.930 . S
C1722 H1708 0.930 . S
C1722 C1720 1.395 1_544 S
C1722 C1725 1.405 . S
C1723 C1720 1.403 . S
C1723 C1724 1.524 . S
C1723 C1727 1.400 . S
C1724 H1709 0.960 . S
C1724 H1710 0.960 1_565 S
C1724 H1711 0.960 . S
C1724 C1723 1.524 . S
C1725 C1722 1.405 . S
C1725 C1726 1.386 1_545 S
C1725 C1729 1.501 . S
C1726 C1725 1.386 1_565 S
C1726 C1727 1.385 1_554 S
C1726 C1728 1.478 . S
C1727 H1721 0.930 . S
C1727 C1723 1.400 . S
C1727 C1726 1.385 1_556 S
C1728 C1726 1.478 . S
C1728 C1730 1.381 1_565 S
C1728 C1734 1.383 . S
C1729 C1725 1.501 . S
C1729 H1735 0.959 . S
C1729 H1736 0.961 1_545 S
C1729 H1737 0.960 . S
C1730 C1728 1.381 1_545 S
C1730 C1731 1.394 . S
C1730 H1738 0.930 . S
C1731 C1730 1.394 . S
C1731 C1732 1.383 1_545 S
C1731 H1739 0.929 . S
C1732 C1731 1.383 1_565 S
C1732 C1733 1.377 . S
C1733 H1717 0.930 . S
C1733 C1732 1.377 . S
C1733 C1734 1.379 . S
C1734 H1718 0.931 . S
C1734 C1728 1.383 . S
C1734 C1733 1.379 . S
H1735 C1729 0.959 . S
H1736 C1729 0.961 1_565 S
H1737 C1729 0.960 . S
H1738 C1730 0.930 . S
H1739 C1731 0.929 . S
H1740 C1748 0.929 . S
H1741 C1750 0.930 . S
H1742 C1752 0.930 . S
H1743 C1755 0.929 . S
H1744 C1758 0.930 . S
H1745 C1760 0.960 . S
H1746 C1760 0.960 . S
H1747 C1760 0.960 . S
C1748 H1740 0.929 . S
C1748 C1749 1.377 . S
C1748 C1750 1.384 . S
C1749 C1748 1.377 . S
C1749 C1755 1.390 . S
C1750 H1741 0.930 . S
C1750 C1748 1.384 . S
C1750 C1751 1.372 . S
C1751 C1750 1.372 . S
C1751 C1752 1.400 . S
C1751 C1756 1.490 . S
C1752 H1742 0.930 . S
C1752 C1751 1.400 . S
C1752 C1755 1.386 . S
H1753 C1769 0.930 . S
H1754 C1770 0.931 . S
C1755 H1743 0.929 . S
C1755 C1749 1.390 . S
C1755 C1752 1.386 . S
C1756 C1751 1.490 . S
C1756 C1758 1.395 . S
C1756 C1759 1.403 1_554 S
H1757 C1763 0.930 . S
C1758 H1744 0.930 . S
C1758 C1756 1.395 . S
C1758 C1761 1.403 . S
C1759 C1756 1.403 1_556 S
C1759 C1760 1.524 . S
C1759 C1763 1.400 . S
C1760 H1745 0.960 . S
C1760 H1746 0.960 . S
C1760 H1747 0.960 . S
C1760 C1759 1.524 . S
C1761 C1758 1.403 . S
C1761 C1762 1.392 1_554 S
C1761 C1765 1.495 . S
C1762 C1761 1.392 1_556 S
C1762 C1763 1.385 . S
C1762 C1764 1.478 . S
C1763 H1757 0.930 . S
C1763 C1759 1.400 . S
C1763 C1762 1.385 . S
C1764 C1762 1.478 . S
C1764 C1766 1.381 . S
C1764 C1770 1.383 . S
C1765 C1761 1.495 . S
C1765 H1771 0.959 . S
C1765 H1772 0.961 . S
C1765 H1773 0.960 . S
C1766 C1764 1.381 . S
C1766 C1767 1.394 . S
C1766 H1774 0.930 . S
C1767 C1766 1.394 . S
C1767 C1768 1.383 . S
C1767 H1775 0.929 . S
C1768 C1767 1.383 . S
C1768 C1769 1.377 . S
C1769 H1753 0.930 . S
C1769 C1768 1.377 . S
C1769 C1770 1.379 . S
C1770 H1754 0.931 . S
C1770 C1764 1.383 . S
C1770 C1769 1.379 . S
H1771 C1765 0.959 . S
H1772 C1765 0.961 . S
H1773 C1765 0.960 . S
H1774 C1766 0.930 . S
H1775 C1767 0.929 . S
H1776 C1784 0.929 . S
H1777 C1786 0.930 . S
H1778 C1788 0.930 . S
H1779 C1791 0.929 . S
H1780 C1794 0.930 . S
H1781 C1796 0.960 . S
H1782 C1796 0.960 . S
H1783 C1796 0.960 . S
C1784 H1776 0.929 . S
C1784 C1785 1.377 . S
C1784 C1786 1.384 . S
C1785 C1784 1.377 . S
C1785 C1791 1.390 1_545 S
C1786 H1777 0.930 . S
C1786 C1784 1.384 . S
C1786 C1787 1.372 . S
C1787 C1786 1.372 . S
C1787 C1788 1.400 1_545 S
C1787 C1792 1.490 . S
C1788 H1778 0.930 . S
C1788 C1787 1.400 1_565 S
C1788 C1791 1.386 . S
H1789 C1805 0.930 . S
H1790 C1806 0.931 . S
C1791 H1779 0.929 . S
C1791 C1785 1.390 1_565 S
C1791 C1788 1.386 . S
C1792 C1787 1.490 . S
C1792 C1794 1.395 1_545 S
C1792 C1795 1.403 . S
H1793 C1799 0.930 . S
C1794 H1780 0.930 . S
C1794 C1792 1.395 1_565 S
C1794 C1797 1.403 . S
C1795 C1792 1.403 . S
C1795 C1796 1.524 . S
C1795 C1799 1.400 . S
C1796 H1781 0.960 . S
C1796 H1782 0.960 . S
C1796 H1783 0.960 . S
C1796 C1795 1.524 . S
C1797 C1794 1.403 . S
C1797 C1798 1.391 . S
C1797 C1801 1.495 . S
C1798 C1797 1.391 . S
C1798 C1799 1.387 1_565 S
C1798 C1800 1.477 . S
C1799 H1793 0.930 . S
C1799 C1795 1.400 . S
C1799 C1798 1.387 1_545 S
C1800 C1798 1.477 . S
C1800 C1802 1.352 1_565 S
C1800 C1806 1.412 . S
C1801 C1797 1.495 . S
C1801 H1807 0.959 . S
C1801 H1808 0.961 . S
C1801 H1809 0.960 . S
C1802 C1800 1.352 1_545 S
C1802 C1803 1.394 . S
C1802 H1810 0.930 . S
C1803 C1802 1.394 . S
C1803 C1804 1.368 1_545 S
C1803 H1811 0.929 . S
C1804 C1803 1.368 1_565 S
C1804 C1805 1.392 . S
C1805 H1789 0.930 . S
C1805 C1804 1.392 . S
C1805 C1806 1.379 . S
C1806 H1790 0.931 . S
C1806 C1800 1.412 . S
C1806 C1805 1.379 . S
H1807 C1801 0.959 . S
H1808 C1801 0.961 . S
H1809 C1801 0.960 . S
H1810 C1802 0.930 . S
H1811 C1803 0.929 . S
H1812 C1820 0.929 . S
H1813 C1822 0.930 . S
H1814 C1824 0.930 . S
H1815 C1827 0.929 . S
H1816 C1830 0.930 . S
H1817 C1832 0.960 . S
H1818 C1832 0.960 . S
H1819 C1832 0.960 . S
C1820 H1812 0.929 . S
C1820 C1821 1.377 . S
C1820 C1822 1.384 . S
C1821 C1820 1.377 . S
C1821 C1827 1.390 . S
C1822 H1813 0.930 . S
C1822 C1820 1.384 . S
C1822 C1823 1.372 . S
C1823 C1822 1.372 . S
C1823 C1824 1.400 . S
C1823 C1828 1.490 . S
C1824 H1814 0.930 . S
C1824 C1823 1.400 . S
C1824 C1827 1.386 . S
H1825 C1841 0.930 . S
H1826 C1842 0.931 . S
C1827 H1815 0.929 . S
C1827 C1821 1.390 . S
C1827 C1824 1.386 . S
C1828 C1823 1.490 . S
C1828 C1830 1.395 . S
C1828 C1831 1.403 . S
H1829 C1835 0.930 . S
C1830 H1816 0.930 . S
C1830 C1828 1.395 . S
C1830 C1833 1.403 . S
C1831 C1828 1.403 . S
C1831 C1832 1.524 . S
C1831 C1835 1.400 . S
C1832 H1817 0.960 . S
C1832 H1818 0.960 . S
C1832 H1819 0.960 . S
C1832 C1831 1.524 . S
C1833 C1830 1.403 . S
C1833 C1834 1.392 . S
C1833 C1837 1.495 . S
C1834 C1833 1.392 . S
C1834 C1835 1.385 . S
C1834 C1836 1.478 . S
C1835 H1829 0.930 . S
C1835 C1831 1.400 . S
C1835 C1834 1.385 . S
C1836 C1834 1.478 . S
C1836 C1838 1.381 . S
C1836 C1842 1.383 . S
C1837 C1833 1.495 . S
C1837 H1843 0.959 . S
C1837 H1844 0.961 . S
C1837 H1845 0.960 . S
C1838 C1836 1.381 . S
C1838 C1839 1.394 . S
C1838 H1846 0.930 . S
C1839 C1838 1.394 . S
C1839 C1840 1.383 . S
C1839 H1847 0.929 . S
C1840 C1839 1.383 . S
C1840 C1841 1.377 . S
C1841 H1825 0.930 . S
C1841 C1840 1.377 . S
C1841 C1842 1.379 . S
C1842 H1826 0.931 . S
C1842 C1836 1.383 . S
C1842 C1841 1.379 . S
H1843 C1837 0.959 . S
H1844 C1837 0.961 . S
H1845 C1837 0.960 . S
H1846 C1838 0.930 . S
H1847 C1839 0.929 . S
H1848 C1856 0.929 . S
H1849 C1858 0.930 . S
H1850 C1860 0.930 . S
H1851 C1863 0.929 . S
H1852 C1866 0.930 . S
H1853 C1868 0.960 . S
H1854 C1868 0.960 . S
H1855 C1868 0.923 1_556 S
C1856 H1848 0.929 . S
C1856 C1857 1.377 1_554 S
C1856 C1858 1.384 . S
C1857 C1856 1.377 1_556 S
C1857 C1863 1.390 . S
C1858 H1849 0.930 . S
C1858 C1856 1.384 . S
C1858 C1859 1.372 1_554 S
C1859 C1858 1.372 1_556 S
C1859 C1860 1.400 . S
C1859 C1864 1.490 . S
C1860 H1850 0.930 . S
C1860 C1859 1.400 . S
C1860 C1863 1.386 . S
H1861 C1877 0.930 . S
H1862 C1878 0.931 . S
C1863 H1851 0.929 . S
C1863 C1857 1.390 . S
C1863 C1860 1.386 . S
C1864 C1859 1.490 . S
C1864 C1866 1.395 1_455 S
C1864 C1867 1.403 1_556 S
H1865 C1871 0.930 . S
C1866 H1852 0.930 . S
C1866 C1864 1.395 1_655 S
C1866 C1869 1.403 . S
C1867 C1864 1.403 1_554 S
C1867 C1868 1.524 . S
C1867 C1871 1.400 . S
C1868 H1853 0.960 . S
C1868 H1854 0.960 . S
C1868 H1855 0.923 1_554 S
C1868 C1867 1.524 . S
C1869 C1866 1.403 . S
C1869 C1870 1.392 . S
C1869 C1873 1.495 . S
C1870 C1869 1.392 . S
C1870 C1871 1.385 1_656 S
C1870 C1872 1.478 . S
C1871 H1865 0.930 . S
C1871 C1867 1.400 . S
C1871 C1870 1.385 1_454 S
C1872 C1870 1.478 . S
C1872 C1874 1.381 1_556 S
C1872 C1878 1.383 . S
C1873 C1869 1.495 . S
C1873 H1879 0.959 . S
C1873 H1880 0.961 . S
C1873 H1881 0.960 . S
C1874 C1872 1.381 1_554 S
C1874 C1875 1.394 . S
C1874 H1882 0.930 . S
C1875 C1874 1.394 . S
C1875 C1876 1.383 1_554 S
C1875 H1883 0.929 . S
C1876 C1875 1.383 1_556 S
C1876 C1877 1.377 . S
C1877 H1861 0.930 . S
C1877 C1876 1.377 . S
C1877 C1878 1.379 . S
C1878 H1862 0.931 . S
C1878 C1872 1.383 . S
C1878 C1877 1.379 . S
H1879 C1873 0.959 . S
H1880 C1873 0.961 . S
H1881 C1873 0.960 . S
H1882 C1874 0.930 . S
H1883 C1875 0.929 . S
H1884 C1892 0.929 . S
H1885 C1894 0.930 . S
H1886 C1896 0.930 . S
H1887 C1899 0.929 . S
H1888 C1902 0.930 . S
H1889 C1904 0.960 . S
H1890 C1904 0.960 . S
H1891 C1904 0.960 . S
C1892 H1884 0.929 . S
C1892 C1893 1.377 . S
C1892 C1894 1.384 . S
C1893 C1892 1.377 . S
C1893 C1899 1.390 . S
C1894 H1885 0.930 . S
C1894 C1892 1.384 . S
C1894 C1895 1.372 . S
C1895 C1894 1.372 . S
C1895 C1896 1.400 . S
C1895 C1900 1.490 . S
C1896 H1886 0.930 . S
C1896 C1895 1.400 . S
C1896 C1899 1.386 . S
H1897 C1913 0.930 . S
H1898 C1914 0.931 . S
C1899 H1887 0.929 . S
C1899 C1893 1.390 . S
C1899 C1896 1.386 . S
C1900 C1895 1.490 . S
C1900 C1902 1.395 . S
C1900 C1903 1.403 1_455 S
H1901 C1907 0.930 . S
C1902 H1888 0.930 . S
C1902 C1900 1.395 . S
C1902 C1905 1.403 . S
C1903 C1900 1.403 1_655 S
C1903 C1904 1.524 . S
C1903 C1907 1.400 . S
C1904 H1889 0.960 . S
C1904 H1890 0.960 . S
C1904 H1891 0.960 . S
C1904 C1903 1.524 . S
C1905 C1902 1.403 . S
C1905 C1906 1.392 1_455 S
C1905 C1909 1.495 . S
C1906 C1905 1.392 1_655 S
C1906 C1907 1.385 . S
C1906 C1908 1.478 . S
C1907 H1901 0.930 . S
C1907 C1903 1.400 . S
C1907 C1906 1.385 . S
C1908 C1906 1.478 . S
C1908 C1910 1.381 . S
C1908 C1914 1.383 . S
C1909 C1905 1.495 . S
C1909 H1915 0.959 . S
C1909 H1916 0.961 . S
C1909 H1917 0.960 . S
C1910 C1908 1.381 . S
C1910 C1911 1.394 . S
C1910 H1918 0.930 . S
C1911 C1910 1.394 . S
C1911 C1912 1.383 . S
C1911 H1919 0.929 . S
C1912 C1911 1.383 . S
C1912 C1913 1.377 . S
C1913 H1897 0.930 . S
C1913 C1912 1.377 . S
C1913 C1914 1.379 . S
C1914 H1898 0.931 . S
C1914 C1908 1.383 . S
C1914 C1913 1.379 . S
H1915 C1909 0.959 . S
H1916 C1909 0.961 . S
H1917 C1909 0.960 . S
H1918 C1910 0.930 . S
H1919 C1911 0.929 . S
H1920 C1928 0.929 . S
H1921 C1930 0.930 . S
H1922 C1932 0.930 . S
H1923 C1935 0.929 . S
H1924 C1938 0.930 . S
H1925 C1940 0.960 . S
H1926 C1940 0.960 . S
H1927 C1940 0.960 . S
C1928 H1920 0.929 . S
C1928 C1929 1.377 . S
C1928 C1930 1.384 . S
C1929 C1928 1.377 . S
C1929 C1935 1.390 . S
C1930 H1921 0.930 . S
C1930 C1928 1.384 . S
C1930 C1931 1.372 . S
C1931 C1930 1.372 . S
C1931 C1932 1.400 . S
C1931 C1936 1.490 . S
C1932 H1922 0.930 . S
C1932 C1931 1.400 . S
C1932 C1935 1.386 . S
H1933 C1949 0.930 . S
H1934 C1950 0.931 . S
C1935 H1923 0.929 . S
C1935 C1929 1.390 . S
C1935 C1932 1.386 . S
C1936 C1931 1.490 . S
C1936 C1938 1.395 . S
C1936 C1939 1.403 . S
H1937 C1943 0.930 . S
C1938 H1924 0.930 . S
C1938 C1936 1.395 . S
C1938 C1941 1.403 . S
C1939 C1936 1.403 . S
C1939 C1940 1.524 . S
C1939 C1943 1.400 . S
C1940 H1925 0.960 . S
C1940 H1926 0.960 . S
C1940 H1927 0.960 . S
C1940 C1939 1.524 . S
C1941 C1938 1.403 . S
C1941 C1942 1.392 . S
C1941 C1945 1.495 . S
C1942 C1941 1.392 . S
C1942 C1943 1.385 . S
C1942 C1944 1.478 . S
C1943 H1937 0.930 . S
C1943 C1939 1.400 . S
C1943 C1942 1.385 . S
C1944 C1942 1.478 . S
C1944 C1946 1.381 . S
C1944 C1950 1.383 . S
C1945 C1941 1.495 . S
C1945 H1951 0.959 . S
C1945 H1952 0.961 . S
C1945 H1953 0.960 . S
C1946 C1944 1.381 . S
C1946 C1947 1.394 . S
C1946 H1954 0.930 . S
C1947 C1946 1.394 . S
C1947 C1948 1.383 . S
C1947 H1955 0.929 . S
C1948 C1947 1.383 . S
C1948 C1949 1.377 . S
C1949 H1933 0.930 . S
C1949 C1948 1.377 . S
C1949 C1950 1.379 . S
C1950 H1934 0.931 . S
C1950 C1944 1.383 . S
C1950 C1949 1.379 . S
H1951 C1945 0.959 . S
H1952 C1945 0.961 . S
H1953 C1945 0.960 . S
H1954 C1946 0.930 . S
H1955 C1947 0.929 . S
H1956 C1964 0.929 . S
H1957 C1966 0.930 . S
H1958 C1968 0.930 . S
H1959 C1971 0.929 . S
H1960 C1974 0.930 . S
H1961 C1976 0.960 . S
H1962 C1976 0.960 . S
H1963 C1976 0.960 . S
C1964 H1956 0.929 . S
C1964 C1965 1.377 . S
C1964 C1966 1.384 . S
C1965 C1964 1.377 . S
C1965 C1971 1.390 . S
C1966 H1957 0.930 . S
C1966 C1964 1.384 . S
C1966 C1967 1.372 . S
C1967 C1966 1.372 . S
C1967 C1968 1.400 . S
C1967 C1972 1.490 . S
C1968 H1958 0.930 . S
C1968 C1967 1.400 . S
C1968 C1971 1.386 . S
H1969 C1985 0.930 . S
H1970 C1986 0.931 . S
C1971 H1959 0.929 . S
C1971 C1965 1.390 . S
C1971 C1968 1.386 . S
C1972 C1967 1.490 . S
C1972 C1974 1.395 . S
C1972 C1975 1.403 . S
H1973 C1979 0.930 . S
C1974 H1960 0.930 . S
C1974 C1972 1.395 . S
C1974 C1977 1.403 . S
C1975 C1972 1.403 . S
C1975 C1976 1.524 . S
C1975 C1979 1.400 . S
C1976 H1961 0.960 . S
C1976 H1962 0.960 . S
C1976 H1963 0.960 . S
C1976 C1975 1.524 . S
C1977 C1974 1.403 . S
C1977 C1978 1.392 . S
C1977 C1981 1.495 . S
C1978 C1977 1.392 . S
C1978 C1979 1.385 . S
C1978 C1980 1.478 . S
C1979 H1973 0.930 . S
C1979 C1975 1.400 . S
C1979 C1978 1.385 . S
C1980 C1978 1.478 . S
C1980 C1982 1.381 . S
C1980 C1986 1.383 . S
C1981 C1977 1.495 . S
C1981 H1987 0.959 . S
C1981 H1988 0.961 . S
C1981 H1989 0.960 . S
C1982 C1980 1.381 . S
C1982 C1983 1.394 . S
C1982 H1990 0.930 . S
C1983 C1982 1.394 . S
C1983 C1984 1.383 . S
C1983 H1991 0.929 . S
C1984 C1983 1.383 . S
C1984 C1985 1.377 . S
C1985 H1969 0.930 . S
C1985 C1984 1.377 . S
C1985 C1986 1.379 . S
C1986 H1970 0.931 . S
C1986 C1980 1.383 . S
C1986 C1985 1.379 . S
H1987 C1981 0.959 . S
H1988 C1981 0.961 . S
H1989 C1981 0.960 . S
H1990 C1982 0.930 . S
H1991 C1983 0.929 . S
H1992 C2000 0.929 . S
H1993 C2002 0.930 . S
H1994 C2004 0.930 . S
H1995 C2007 0.929 . S
H1996 C2010 0.930 . S
H1997 C2012 0.960 . S
H1998 C2012 0.960 1_565 S
H1999 C2012 0.960 . S
C2000 H1992 0.929 . S
C2000 C2001 1.377 . S
C2000 C2002 1.384 . S
C2001 C2000 1.377 . S
C2001 C2007 1.390 . S
C2002 H1993 0.930 . S
C2002 C2000 1.384 . S
C2002 C2003 1.372 . S
C2003 C2002 1.372 . S
C2003 C2004 1.400 . S
C2003 C2008 1.490 . S
C2004 H1994 0.930 . S
C2004 C2003 1.400 . S
C2004 C2007 1.386 . S
H2005 C2021 0.930 . S
H2006 C2022 0.931 . S
C2007 H1995 0.929 . S
C2007 C2001 1.390 . S
C2007 C2004 1.386 . S
C2008 C2003 1.490 . S
C2008 C2010 1.395 . S
C2008 C2011 1.382 1_565 S
H2009 C2015 0.930 . S
C2010 H1996 0.930 . S
C2010 C2008 1.395 . S
C2010 C2013 1.403 . S
C2011 C2008 1.382 1_545 S
C2011 C2012 1.529 . S
C2011 C2015 1.415 . S
C2012 H1997 0.960 . S
C2012 H1998 0.960 1_545 S
C2012 H1999 0.960 . S
C2012 C2011 1.529 . S
C2013 C2010 1.403 . S
C2013 C2014 1.392 1_565 S
C2013 C2017 1.495 . S
C2014 C2013 1.392 1_545 S
C2014 C2015 1.385 . S
C2014 C2016 1.478 . S
C2015 H2009 0.930 . S
C2015 C2011 1.415 . S
C2015 C2014 1.385 . S
C2016 C2014 1.478 . S
C2016 C2018 1.381 . S
C2016 C2022 1.383 . S
C2017 C2013 1.495 . S
C2017 H2023 0.959 . S
C2017 H2024 0.961 . S
C2017 H2025 0.960 . S
C2018 C2016 1.381 . S
C2018 C2019 1.394 . S
C2018 H2026 0.930 . S
C2019 C2018 1.394 . S
C2019 C2020 1.383 . S
C2019 H2027 0.929 . S
C2020 C2019 1.383 . S
C2020 C2021 1.377 . S
C2021 H2005 0.930 . S
C2021 C2020 1.377 . S
C2021 C2022 1.379 . S
C2022 H2006 0.931 . S
C2022 C2016 1.383 . S
C2022 C2021 1.379 . S
H2023 C2017 0.959 . S
H2024 C2017 0.961 . S
H2025 C2017 0.960 . S
H2026 C2018 0.930 . S
H2027 C2019 0.929 . S
H2028 C2036 0.929 . S
H2029 C2038 0.930 . S
H2030 C2040 0.928 . S
H2031 C2043 0.929 . S
H2032 C2046 0.930 . S
H2033 C2048 0.960 . S
H2034 C2048 0.960 . S
H2035 C2048 0.960 . S
C2036 H2028 0.929 . S
C2036 C2037 1.377 . S
C2036 C2038 1.384 . S
C2037 C2036 1.377 . S
C2037 C2043 1.390 . S
C2038 H2029 0.930 . S
C2038 C2036 1.384 . S
C2038 C2039 1.372 . S
C2039 C2038 1.372 . S
C2039 C2040 1.404 . S
C2039 C2044 1.490 . S
C2040 H2030 0.928 . S
C2040 C2039 1.404 . S
C2040 C2043 1.387 . S
H2041 C2057 0.930 . S
H2042 C2058 0.931 . S
C2043 H2031 0.929 . S
C2043 C2037 1.390 . S
C2043 C2040 1.387 . S
C2044 C2039 1.490 . S
C2044 C2046 1.395 1_554 S
C2044 C2047 1.403 . S
H2045 C2051 0.930 . S
C2046 H2032 0.930 . S
C2046 C2044 1.395 1_556 S
C2046 C2049 1.403 . S
C2047 C2044 1.403 . S
C2047 C2048 1.524 . S
C2047 C2051 1.400 . S
C2048 H2033 0.960 . S
C2048 H2034 0.960 . S
C2048 H2035 0.960 . S
C2048 C2047 1.524 . S
C2049 C2046 1.403 . S
C2049 C2050 1.392 . S
C2049 C2053 1.495 . S
C2050 C2049 1.392 . S
C2050 C2051 1.385 1_556 S
C2050 C2052 1.478 . S
C2051 H2045 0.930 . S
C2051 C2047 1.400 . S
C2051 C2050 1.385 1_554 S
C2052 C2050 1.478 . S
C2052 C2054 1.381 1_556 S
C2052 C2058 1.383 . S
C2053 C2049 1.495 . S
C2053 H2059 0.959 . S
C2053 H2060 0.961 . S
C2053 H2061 0.960 . S
C2054 C2052 1.381 1_554 S
C2054 C2055 1.394 . S
C2054 H2062 0.930 . S
C2055 C2054 1.394 . S
C2055 C2056 1.383 1_554 S
C2055 H2063 0.929 . S
C2056 C2055 1.383 1_556 S
C2056 C2057 1.377 . S
C2057 H2041 0.930 . S
C2057 C2056 1.377 . S
C2057 C2058 1.379 . S
C2058 H2042 0.931 . S
C2058 C2052 1.383 . S
C2058 C2057 1.379 . S
H2059 C2053 0.959 . S
H2060 C2053 0.961 . S
H2061 C2053 0.960 . S
H2062 C2054 0.930 . S
H2063 C2055 0.929 . S
C345 C247 0.562 . S
C364 C8 0.563 . S
C381 C22 0.546 . S
C400 C233 0.533 . S
C417 C36 0.822 . S
C436 C275 0.786 . S
C453 C50 0.848 . S
C472 C261 0.866 . S
C489 C64 0.520 . S
C508 C303 0.489 . S
C525 C78 0.893 . S
C544 C317 0.885 . S
C561 C289 0.638 . S
C580 C92 0.604 . S
C597 C163 0.854 . S
C616 C106 0.895 . S
C633 C120 0.540 . S
C652 C51 0.618 . S
C669 C23 0.879 . S
C688 C134 0.884 . S
C705 C148 1.193 . S
C724 C9 1.144 . S
C741 C162 0.868 . S
C760 C205 0.810 . S
C777 C79 1.113 . S
C796 C176 1.185 . S
C813 C65 1.179 . S
C832 C190 1.212 . S
C849 C204 0.862 . S
C868 C107 0.817 . S
C885 C218 0.891 . S
C904 C93 0.851 . S
C921 C135 1.106 . S
C940 C232 1.182 . S
C957 C149 0.828 . S
C976 C246 0.866 . S
C993 C121 1.167 . S
C1012 C260 1.186 . S
C1029 C274 0.821 . S
C1048 C331 0.779 . S
C1065 C219 1.099 . S
C1084 C288 1.168 . S
C1101 C302 0.844 . S
C1120 C191 0.816 . S
C1137 C177 0.629 . S
C1156 C316 0.588 . S
C1173 C330 0.830 . S
C1192 C37 0.840 . S
C1209 C6 1.682 . S
C1228 C20 1.660 . S
C1245 C48 1.495 . S
C1264 C34 1.505 . S
C1281 C62 1.677 . S
C1300 C90 1.659 . S
C1317 C76 2.086 . S
C1336 C104 2.067 . S
C1353 C314 1.660 . S
C1372 C118 1.665 1_554 S
C1389 C132 2.089 . S
C1408 C160 2.040 . S
C1425 C286 1.953 . S
C1444 C146 1.955 . S
C1461 C188 1.972 . S
C1480 C174 1.949 . S
C1497 C202 2.060 . S
C1516 C216 2.084 . S
C1533 C258 1.975 . S
C1552 C230 1.929 . S
C1569 C244 1.489 . S
C1588 C272 1.486 . S
C1605 C328 1.508 . S
C1624 C300 1.472 . S
C1641 C35 1.107 1_655 S
C1660 C7 1.154 . S
C1677 C21 1.492 1_455 S
C1696 C49 1.465 . S
C1713 C273 1.115 1_565 S
C1732 C63 1.152 . S
C1749 C77 1.424 . S
C1768 C259 1.388 . S
C1785 C91 1.494 1_545 S
C1804 C245 1.468 . S
C1821 C231 1.817 . S
C1840 C105 1.781 . S
C1857 C119 1.118 . S
C1876 C329 1.151 1_556 S
C1893 C133 1.425 . S
C1912 C147 1.389 . S
C1929 C287 1.815 . S
C1948 C161 1.780 . S
C1965 C175 1.811 . S
C1984 C203 1.788 . S
C2001 C189 1.430 . S
C2020 C217 1.385 . S
C2037 C315 1.496 1_554 S
C2056 C301 1.471 . S
