# Generated by pormake.
# Topology vmc, (5)-cn, num edge types: 1
# Building blocks:
#     Node 0, Type 0, BuildingBlock: BEQFEK_clean_sbu_0, # of connection points: 5
#     Node 1, Type 0, BuildingBlock: BEQFEK_clean_sbu_0, # of connection points: 5
#     Node 2, Type 0, BuildingBlock: BEQFEK_clean_sbu_0, # of connection points: 5
#     Node 3, Type 0, BuildingBlock: BEQFEK_clean_sbu_0, # of connection points: 5
#     Node 4, Type 0, BuildingBlock: BEQFEK_clean_sbu_0, # of connection points: 5
#     Node 5, Type 0, BuildingBlock: BEQFEK_clean_sbu_0, # of connection points: 5
#     Node 6, Type 0, BuildingBlock: BEQFEK_clean_sbu_0, # of connection points: 5
#     Node 7, Type 0, BuildingBlock: BEQFEK_clean_sbu_0, # of connection points: 5
#     Edge 8, Type (0, 0), BuildingBlock: OJICUG_clean_linker_0, # of connection points: 2
#     Edge 9, Type (0, 0), BuildingBlock: OJICUG_clean_linker_0, # of connection points: 2
#     Edge 10, Type (0, 0), BuildingBlock: OJICUG_clean_linker_0, # of connection points: 2
#     Edge 11, Type (0, 0), BuildingBlock: OJICUG_clean_linker_0, # of connection points: 2
#     Edge 12, Type (0, 0), BuildingBlock: OJICUG_clean_linker_0, # of connection points: 2
#     Edge 13, Type (0, 0), BuildingBlock: OJICUG_clean_linker_0, # of connection points: 2
#     Edge 14, Type (0, 0), BuildingBlock: OJICUG_clean_linker_0, # of connection points: 2
#     Edge 15, Type (0, 0), BuildingBlock: OJICUG_clean_linker_0, # of connection points: 2
#     Edge 16, Type (0, 0), BuildingBlock: OJICUG_clean_linker_0, # of connection points: 2
#     Edge 17, Type (0, 0), BuildingBlock: OJICUG_clean_linker_0, # of connection points: 2
#     Edge 18, Type (0, 0), BuildingBlock: OJICUG_clean_linker_0, # of connection points: 2
#     Edge 19, Type (0, 0), BuildingBlock: OJICUG_clean_linker_0, # of connection points: 2
#     Edge 20, Type (0, 0), BuildingBlock: OJICUG_clean_linker_0, # of connection points: 2
#     Edge 21, Type (0, 0), BuildingBlock: OJICUG_clean_linker_0, # of connection points: 2
#     Edge 22, Type (0, 0), BuildingBlock: OJICUG_clean_linker_0, # of connection points: 2
#     Edge 23, Type (0, 0), BuildingBlock: OJICUG_clean_linker_0, # of connection points: 2
#     Edge 24, Type (0, 0), BuildingBlock: OJICUG_clean_linker_0, # of connection points: 2
#     Edge 25, Type (0, 0), BuildingBlock: OJICUG_clean_linker_0, # of connection points: 2
#     Edge 26, Type (0, 0), BuildingBlock: OJICUG_clean_linker_0, # of connection points: 2
#     Edge 27, Type (0, 0), BuildingBlock: OJICUG_clean_linker_0, # of connection points: 2
# Relax obj value: 0.531
# Max RMSD: 0.278
# Mean RMSD: 0.278
data_MOF--net-vmc--node1-BEQFEK_clean_sbu_0--edge1-OJICUG_clean_linker_0
_symmetry_space_group_name_H-M    P1
_symmetry_Int_Tables_number       1
_symmetry_cell_setting            triclinic
loop_
_symmetry_equiv_pos_as_xyz
'x, y, z'
_cell_length_a     38.902456
_cell_length_b     36.406752
_cell_length_c     20.824954
_cell_angle_alpha  90.08866
_cell_angle_beta   108.46117
_cell_angle_gamma 89.863165
loop_
_atom_site_label
_atom_site_type_symbol
_atom_site_fract_x
_atom_site_fract_y
_atom_site_fract_z
_atom_type_partial_charge
Co0 Co 0.40797 0.48883 0.13709 0.0
Co1 Co 0.35347 0.42484 0.12431 0.0
C2 C 0.43184 0.41172 0.18724 0.0
O3 O 0.43569 0.44576 0.18043 0.0
O4 O 0.40071 0.39691 0.16565 0.0
C5 C 0.4574 0.49515 0.07575 0.0
O6 O 0.44417 0.46178 0.06333 0.0
C7 C 0.3138 0.35749 0.06898 0.0
C8 C 0.26347 0.36301 0.09578 0.0
C9 C 0.28123 0.34007 0.06333 0.0
N10 N 0.31501 0.38938 0.10246 0.0
N11 N 0.2848 0.39253 0.11826 0.0
C12 C 0.34467 0.34281 0.04813 0.0
H13 H 0.36627 0.3637 0.05576 0.0
H14 H 0.33541 0.33462 0.99418 0.0
H15 H 0.35586 0.31798 0.07846 0.0
C16 C 0.36388 0.50139 0.99855 0.0
N17 N 0.37197 0.48068 0.05458 0.0
N18 N 0.35171 0.45112 0.04324 0.0
C19 C 0.33145 0.45114 0.97684 0.0
C20 C 0.3385 0.48328 0.94675 0.0
C21 C 0.3808 0.53789 0.99427 0.0
H22 H 0.39205 0.55038 0.04517 0.0
H23 H 0.40257 0.53426 0.97094 0.0
H24 H 0.36056 0.55718 0.96212 0.0
O25 O 0.38415 0.51008 0.19693 0.0
O26 O 0.34587 0.46345 0.19165 0.0
H27 H 0.28661 0.41621 0.97254 0.0
H28 H 0.28904 0.43007 0.8906 0.0
C29 C 0.30514 0.42184 0.9428 0.0
H30 H 0.32021 0.39629 0.94041 0.0
H31 H 0.27879 0.41475 0.14461 0.0
O32 O 0.44587 0.51625 0.11354 0.0
C33 C 0.35852 0.49535 0.21382 0.0
Co34 Co 0.59867 0.48843 0.36443 0.0
Co35 Co 0.65324 0.42428 0.37732 0.0
C36 C 0.57493 0.41131 0.31436 0.0
O37 O 0.57108 0.44539 0.32104 0.0
O38 O 0.60606 0.39639 0.33614 0.0
C39 C 0.54909 0.49484 0.42533 0.0
O40 O 0.56262 0.46156 0.43814 0.0
C41 C 0.69328 0.35692 0.43247 0.0
C42 C 0.74337 0.36242 0.40495 0.0
C43 C 0.72586 0.33949 0.43763 0.0
N44 N 0.69183 0.38881 0.39902 0.0
N45 N 0.72191 0.39195 0.38281 0.0
C46 C 0.66263 0.34224 0.45377 0.0
H47 H 0.64055 0.36278 0.4449 0.0
H48 H 0.67197 0.33503 0.50816 0.0
H49 H 0.65209 0.31681 0.42485 0.0
C50 C 0.64266 0.50111 0.50301 0.0
N51 N 0.63466 0.48034 0.447 0.0
N52 N 0.65502 0.45077 0.45837 0.0
C53 C 0.67529 0.45087 0.52477 0.0
C54 C 0.66812 0.48306 0.55483 0.0
C55 C 0.62551 0.53759 0.50726 0.0
H56 H 0.61427 0.55005 0.45636 0.0
H57 H 0.60368 0.53392 0.53039 0.0
H58 H 0.6456 0.55692 0.53956 0.0
O59 O 0.62242 0.5095 0.30458 0.0
O60 O 0.66065 0.46265 0.30971 0.0
H61 H 0.72008 0.41569 0.52891 0.0
H62 H 0.71791 0.42996 0.6109 0.0
C63 C 0.70168 0.42158 0.55885 0.0
H64 H 0.68666 0.39614 0.56166 0.0
H65 H 0.72771 0.41415 0.35634 0.0
O66 O 0.56059 0.51592 0.38764 0.0
C67 C 0.64799 0.49457 0.28754 0.0
Co68 Co 0.59779 0.55252 0.8637 0.0
Co69 Co 0.65275 0.61621 0.87728 0.0
C70 C 0.57446 0.6297 0.81359 0.0
O71 O 0.57042 0.59568 0.82017 0.0
O72 O 0.60564 0.64436 0.83568 0.0
C73 C 0.54783 0.54648 0.92395 0.0
O74 O 0.56118 0.57979 0.93664 0.0
C75 C 0.69318 0.68334 0.93296 0.0
C76 C 0.74321 0.67717 0.90536 0.0
C77 C 0.72589 0.70039 0.93819 0.0
N78 N 0.69149 0.6514 0.89934 0.0
N79 N 0.72154 0.64788 0.8831 0.0
C80 C 0.66272 0.69843 0.9546 0.0
H81 H 0.63954 0.67917 0.94189 0.0
H82 H 0.67171 0.70319 0.00992 0.0
H83 H 0.65397 0.72528 0.92951 0.0
C84 C 0.64152 0.53959 0.00236 0.0
N85 N 0.6336 0.56048 0.94655 0.0
N86 N 0.65428 0.58974 0.95808 0.0
C87 C 0.67476 0.58929 0.02435 0.0
C88 C 0.66734 0.55722 0.05416 0.0
C89 C 0.62413 0.50331 0.00631 0.0
H90 H 0.61292 0.4909 0.95534 0.0
H91 H 0.60223 0.50727 0.02923 0.0
H92 H 0.64403 0.48378 0.03861 0.0
O93 O 0.62175 0.53117 0.80414 0.0
O94 O 0.66022 0.57768 0.80982 0.0
H95 H 0.71979 0.62378 0.0278 0.0
H96 H 0.71832 0.60912 0.10996 0.0
C97 C 0.70176 0.618 0.05845 0.0
H98 H 0.68721 0.64363 0.06263 0.0
H99 H 0.72718 0.62557 0.85652 0.0
O100 O 0.55952 0.52532 0.88646 0.0
C101 C 0.64748 0.54584 0.78746 0.0
Co102 Co 0.40792 0.55226 0.63664 0.0
Co103 Co 0.35335 0.61617 0.62464 0.0
C104 C 0.43156 0.62954 0.68635 0.0
O105 O 0.4355 0.59547 0.67962 0.0
O106 O 0.40036 0.64434 0.66506 0.0
C107 C 0.45719 0.54594 0.57491 0.0
O108 O 0.44362 0.57921 0.56216 0.0
C109 C 0.3149 0.68469 0.57547 0.0
C110 C 0.26083 0.67516 0.58554 0.0
C111 C 0.281 0.70082 0.56366 0.0
N112 N 0.3147 0.65137 0.60318 0.0
N113 N 0.28235 0.64589 0.6094 0.0
C114 C 0.34606 0.69892 0.55531 0.0
H115 H 0.36327 0.67587 0.54836 0.0
H116 H 0.33626 0.71505 0.50777 0.0
H117 H 0.36292 0.71699 0.59604 0.0
C118 C 0.36354 0.5398 0.49805 0.0
N119 N 0.3717 0.56035 0.55434 0.0
N120 N 0.35145 0.58999 0.54341 0.0
C121 C 0.33116 0.59025 0.47707 0.0
C122 C 0.3381 0.55811 0.44652 0.0
C123 C 0.38063 0.50337 0.4932 0.0
H124 H 0.39213 0.49081 0.54395 0.0
H125 H 0.40224 0.50714 0.46956 0.0
H126 H 0.36042 0.48408 0.46107 0.0
O127 O 0.3845 0.53101 0.69694 0.0
O128 O 0.34618 0.57771 0.69214 0.0
H129 H 0.28576 0.62464 0.47223 0.0
H130 H 0.28979 0.61262 0.39047 0.0
C131 C 0.30505 0.61992 0.44364 0.0
H132 H 0.32011 0.6458 0.44424 0.0
H133 H 0.27473 0.62189 0.62863 0.0
O134 O 0.44586 0.52488 0.61285 0.0
C135 C 0.35895 0.54582 0.71419 0.0
Co136 Co 0.90974 0.98793 0.1362 0.0
Co137 Co 0.8552 0.92389 0.1231 0.0
C138 C 0.93357 0.91085 0.18641 0.0
O139 O 0.93739 0.94489 0.17962 0.0
O140 O 0.90247 0.896 0.16464 0.0
C141 C 0.95942 0.99427 0.07542 0.0
O142 O 0.94617 0.96092 0.06276 0.0
C143 C 0.81501 0.85653 0.06785 0.0
C144 C 0.76498 0.86259 0.09546 0.0
C145 C 0.78236 0.8394 0.06273 0.0
N146 N 0.81661 0.88851 0.10132 0.0
N147 N 0.78656 0.89196 0.11758 0.0
C148 C 0.8455 0.8415 0.04622 0.0
H149 H 0.86864 0.86081 0.0589 0.0
H150 H 0.83652 0.83673 0.99091 0.0
H151 H 0.85431 0.81467 0.07135 0.0
C152 C 0.86573 1.00065 0.9977 0.0
N153 N 0.87383 0.97981 0.05357 0.0
N154 N 0.85341 0.95036 0.04214 0.0
C155 C 0.83296 0.95063 0.97585 0.0
C156 C 0.84011 0.98279 0.94592 0.0
C157 C 0.88283 0.03708 0.99361 0.0
H158 H 0.89404 0.04951 0.04456 0.0
H159 H 0.90467 0.03334 0.97048 0.0
H160 H 0.86273 0.05648 0.96142 0.0
O161 O 0.88583 1.0091 0.19599 0.0
O162 O 0.84764 0.96236 0.1906 0.0
H163 H 0.78829 0.91561 0.97233 0.0
H164 H 0.78973 0.93033 0.89018 0.0
C165 C 0.80632 0.92162 0.94178 0.0
H166 H 0.82119 0.89617 0.93782 0.0
H167 H 0.78085 0.91429 0.14404 0.0
O168 O 0.94776 1.01535 0.11307 0.0
C169 C 0.86024 0.99426 0.21288 0.0
Co170 Co 0.10005 0.98881 0.3639 0.0
Co171 Co 0.15471 0.92499 0.37593 0.0
C172 C 0.07654 0.91153 0.31404 0.0
O173 O 0.07254 0.94559 0.32079 0.0
O174 O 0.10775 0.89677 0.3354 0.0
C175 C 0.0508 0.99499 0.42568 0.0
O176 O 0.06439 0.96172 0.43827 0.0
C177 C 0.19322 0.85651 0.42511 0.0
C178 C 0.24729 0.86608 0.4151 0.0
C179 C 0.22712 0.84041 0.43695 0.0
N180 N 0.1934 0.88984 0.39742 0.0
N181 N 0.22576 0.89535 0.39124 0.0
C182 C 0.16204 0.84226 0.44523 0.0
H183 H 0.14482 0.8653 0.45216 0.0
H184 H 0.17184 0.82613 0.49277 0.0
H185 H 0.1452 0.82418 0.40449 0.0
C186 C 0.14439 1.00131 0.50248 0.0
N187 N 0.13627 0.98075 0.4462 0.0
N188 N 0.15654 0.95114 0.45716 0.0
C189 C 0.17681 0.95089 0.52353 0.0
C190 C 0.16982 0.98302 0.55405 0.0
C191 C 0.12728 0.03774 0.50729 0.0
H192 H 0.11577 0.05028 0.45653 0.0
H193 H 0.10567 0.03396 0.53095 0.0
H194 H 0.14748 0.05704 0.53939 0.0
O195 O 0.12346 1.01014 0.30365 0.0
O196 O 0.16185 0.9635 0.30847 0.0
H197 H 0.22223 0.91653 0.52844 0.0
H198 H 0.21816 0.92855 0.61017 0.0
C199 C 0.20292 0.92123 0.557 0.0
H200 H 0.18787 0.89535 0.5564 0.0
H201 H 0.23337 0.91936 0.37203 0.0
O202 O 0.06208 1.01611 0.38775 0.0
C203 C 0.14904 0.99538 0.28642 0.0
Co204 Co 0.09967 0.05225 0.86324 0.0
Co205 Co 0.15409 0.11631 0.87596 0.0
C206 C 0.0757 0.12933 0.81306 0.0
O207 O 0.07191 0.09528 0.81988 0.0
O208 O 0.10681 0.14418 0.83464 0.0
C209 C 0.05012 0.04584 0.92433 0.0
O210 O 0.06333 0.07921 0.93689 0.0
C211 C 0.19372 0.1837 0.93126 0.0
C212 C 0.24403 0.17822 0.9044 0.0
C213 C 0.22627 0.20115 0.93687 0.0
N214 N 0.19252 0.15181 0.89777 0.0
N215 N 0.22272 0.14869 0.88194 0.0
C216 C 0.16285 0.19835 0.95216 0.0
H217 H 0.14123 0.17747 0.94442 0.0
H218 H 0.17211 0.20646 0.00615 0.0
H219 H 0.15169 0.22323 0.92195 0.0
C220 C 0.14372 0.0398 0.00186 0.0
N221 N 0.13562 0.06047 0.94579 0.0
N222 N 0.15589 0.09002 0.95705 0.0
C223 C 0.17619 0.09002 0.02343 0.0
C224 C 0.16914 0.05791 0.05359 0.0
C225 C 0.12677 1.00332 0.00623 0.0
H226 H 0.11557 0.99077 0.95537 0.0
H227 H 0.10496 1.00701 0.02944 0.0
H228 H 0.14698 0.98405 0.03853 0.0
O229 O 0.12354 0.03103 0.80344 0.0
O230 O 0.16175 0.07771 0.80866 0.0
H231 H 0.22102 0.12491 0.02754 0.0
H232 H 0.21869 0.11107 0.10955 0.0
C233 C 0.20254 0.1193 0.05738 0.0
H234 H 0.18751 0.14487 0.05983 0.0
H235 H 0.22873 0.12648 0.85558 0.0
O236 O 0.06175 0.02477 0.88663 0.0
C237 C 0.14915 0.04578 0.78654 0.0
Co238 Co 0.90933 0.05194 0.63642 0.0
Co239 Co 0.85442 0.1158 0.62313 0.0
C240 C 0.93266 0.12917 0.68632 0.0
O241 O 0.9367 0.0951 0.67984 0.0
O242 O 0.90146 0.14392 0.66431 0.0
C243 C 0.95909 0.04579 0.57585 0.0
O244 O 0.94546 0.07903 0.563 0.0
C245 C 0.81416 0.18298 0.56762 0.0
C246 C 0.7641 0.17741 0.59523 0.0
C247 C 0.78154 0.20034 0.56242 0.0
N248 N 0.81569 0.15112 0.60122 0.0
N249 N 0.78563 0.14794 0.61747 0.0
C250 C 0.84476 0.1977 0.54624 0.0
H251 H 0.86691 0.17723 0.55524 0.0
H252 H 0.8354 0.20481 0.4918 0.0
H253 H 0.85521 0.2232 0.575 0.0
C254 C 0.86553 0.03904 0.49776 0.0
N255 N 0.8734 0.05988 0.5537 0.0
N256 N 0.85282 0.0893 0.54222 0.0
C257 C 0.83252 0.08903 0.47584 0.0
C258 C 0.8399 0.05689 0.44591 0.0
C259 C 0.88291 1.00268 0.49366 0.0
H260 H 0.89416 0.99027 0.54459 0.0
H261 H 0.90476 1.00651 0.47064 0.0
H262 H 0.86297 0.98323 0.46135 0.0
O263 O 0.88556 0.03074 0.69614 0.0
O264 O 0.84708 0.0774 0.69072 0.0
H265 H 0.78746 0.12383 0.47177 0.0
H266 H 0.78961 0.10954 0.38977 0.0
C267 C 0.80584 0.11808 0.44171 0.0
H268 H 0.82062 0.14365 0.43863 0.0
H269 H 0.77989 0.12576 0.64406 0.0
O270 O 0.9476 0.02464 0.61346 0.0
C271 C 0.85987 0.04553 0.71299 0.0
C272 C 0.32229 0.54295 0.79452 0.0
C273 C 0.34535 0.52583 0.76344 0.0
H274 H 0.30036 0.54145 0.87696 0.0
C275 C 0.3579 0.49001 0.78392 0.0
H276 H 0.3117 0.57024 0.77942 0.0
C277 C 0.35098 0.47348 0.83905 0.0
C278 C 0.33142 0.4924 0.87471 0.0
H279 H 0.37511 0.47558 0.76028 0.0
H280 H 0.36402 0.44755 0.8579 0.0
C281 C 0.31534 0.52627 0.84973 0.0
C282 C 0.65584 0.47336 0.66271 0.0
C283 C 0.67521 0.49229 0.62689 0.0
H284 H 0.63183 0.47549 0.74167 0.0
C285 C 0.6911 0.52621 0.6518 0.0
H286 H 0.64296 0.44739 0.64394 0.0
C287 C 0.68415 0.54292 0.7071 0.0
C288 C 0.66125 0.52579 0.73832 0.0
H289 H 0.70594 0.54138 0.62445 0.0
H290 H 0.69456 0.57025 0.7221 0.0
C291 C 0.64892 0.48992 0.71792 0.0
C292 C 0.64962 0.55053 0.21861 0.0
C293 C 0.66159 0.51443 0.23817 0.0
H294 H 0.64356 0.59321 0.1451 0.0
C295 C 0.68386 0.49695 0.20581 0.0
H296 H 0.63305 0.56523 0.24328 0.0
C297 C 0.69047 0.51358 0.15023 0.0
C298 C 0.67485 0.54777 0.12619 0.0
H299 H 0.69399 0.46942 0.22015 0.0
H300 H 0.7048 0.49818 0.12206 0.0
C301 C 0.6562 0.56701 0.16313 0.0
C302 C 0.32179 0.4984 0.29409 0.0
C303 C 0.34475 0.51545 0.26293 0.0
H304 H 0.29996 0.50001 0.37668 0.0
C305 C 0.35715 0.5513 0.28335 0.0
H306 H 0.31131 0.47109 0.27906 0.0
C307 C 0.35024 0.56791 0.33855 0.0
C308 C 0.33083 0.54904 0.37435 0.0
H309 H 0.37427 0.56569 0.25963 0.0
H310 H 0.36321 0.59383 0.35736 0.0
C311 C 0.31484 0.51516 0.34936 0.0
C312 C 0.85175 0.97304 0.83742 0.0
C313 C 0.83272 0.99212 0.87387 0.0
H314 H 0.87529 0.97501 0.75783 0.0
C315 C 0.81688 0.02618 0.84947 0.0
H316 H 0.86456 0.94695 0.85576 0.0
C317 C 0.82362 0.04286 0.79406 0.0
C318 C 0.84623 0.02557 0.76221 0.0
H319 H 0.80228 0.04146 0.87729 0.0
H320 H 0.81329 0.0703 0.77946 0.0
C321 C 0.85845 0.98958 0.78209 0.0
C322 C 0.18597 0.04273 0.70642 0.0
C323 C 0.16296 0.02569 0.73748 0.0
H324 H 0.20791 0.04111 0.62397 0.0
C325 C 0.15058 0.98984 0.71704 0.0
H326 H 0.19644 0.07005 0.72148 0.0
C327 C 0.15755 0.97323 0.66191 0.0
C328 C 0.17702 0.99209 0.62621 0.0
H329 H 0.13342 0.97545 0.74068 0.0
H330 H 0.1446 0.9473 0.64307 0.0
C331 C 0.19299 0.02597 0.65123 0.0
C332 C 0.19242 1.01494 0.15059 0.0
C333 C 0.17632 0.0488 0.12566 0.0
H334 H 0.19618 0.97097 0.22094 0.0
C335 C 0.15684 0.06774 0.16148 0.0
H336 H 0.20735 0.99976 0.12323 0.0
C337 C 0.15003 0.05121 0.21671 0.0
C338 C 0.16259 1.01538 0.23713 0.0
H339 H 0.1438 0.09366 0.14268 0.0
H340 H 0.13287 0.06564 0.24047 0.0
C341 C 0.18558 0.99827 0.2059 0.0
C342 C 0.81705 1.01352 0.34927 0.0
C343 C 0.83272 0.04757 0.37386 0.0
H344 H 0.81369 0.96945 0.27906 0.0
C345 C 0.85176 0.06667 0.33763 0.0
H346 H 0.80245 0.99823 0.37692 0.0
C347 C 0.85859 0.05017 0.28229 0.0
C348 C 0.8465 1.01419 0.26217 0.0
H349 H 0.86446 0.09275 0.35614 0.0
H350 H 0.87542 0.06475 0.25819 0.0
C351 C 0.82391 0.99687 0.29383 0.0
C352 C 0.49028 0.54562 0.03932 0.0
C353 C 0.48137 0.50838 0.03872 0.0
H354 H 0.51774 0.58695 0.00208 0.0
C355 C 0.49376 0.48371 0.99871 0.0
H356 H 0.48078 0.56524 0.06908 0.0
C357 C 0.51469 0.49608 0.9599 0.0
C358 C 0.52365 0.53331 0.96059 0.0
H359 H 0.48723 0.45474 0.99714 0.0
H360 H 0.52421 0.47645 0.93017 0.0
C361 C 0.5112 0.55799 0.00049 0.0
C362 C 0.51509 0.54512 0.46016 0.0
C363 C 0.52466 0.50798 0.46162 0.0
H364 H 0.48672 0.58632 0.49614 0.0
C365 C 0.51243 0.48335 0.50169 0.0
H366 H 0.52442 0.56471 0.43027 0.0
C367 C 0.49107 0.49566 0.53986 0.0
C368 C 0.48153 0.5328 0.53843 0.0
H369 H 0.51944 0.45446 0.50388 0.0
H370 H 0.48176 0.47607 0.56976 0.0
C371 C 0.49373 0.55743 0.49832 0.0
C372 C 0.01704 0.99533 0.96017 0.0
C373 C 0.02603 0.03257 0.96108 0.0
H374 H 0.98945 0.95395 0.99699 0.0
C375 C 0.01359 0.05718 0.00111 0.0
H376 H 0.02656 0.97576 0.93036 0.0
C377 C 0.99257 0.04475 0.03972 0.0
C378 C 0.98357 1.00752 0.03879 0.0
H379 H 0.02017 0.08614 0.0029 0.0
H380 H 0.98305 0.06433 0.06952 0.0
C381 C 0.99603 0.98291 0.99878 0.0
C382 C 0.99577 0.05745 0.49961 0.0
C383 C 0.98354 0.03274 0.53954 0.0
H384 H 0.02638 0.06486 0.43146 0.0
C385 C 0.99306 0.9956 0.54073 0.0
H386 H 0.98881 0.08635 0.49765 0.0
C387 C 0.01436 0.98335 0.50239 0.0
C388 C 0.02654 1.00806 0.46237 0.0
H389 H 0.98372 0.97595 0.5705 0.0
H390 H 0.02132 0.95446 0.50432 0.0
C391 C 0.01706 0.04521 0.46126 0.0
C392 C 0.26854 0.29588 0.96581 0.0
C393 C 0.26756 0.3044 0.03103 0.0
H394 H 0.25623 0.2564 0.88509 0.0
C395 C 0.25229 0.27896 0.06472 0.0
H396 H 0.27869 0.31553 0.93734 0.0
C397 C 0.23894 0.24534 0.03438 0.0
C398 C 0.23993 0.23682 0.96916 0.0
H399 H 0.25126 0.28482 0.11511 0.0
H400 H 0.2288 0.22569 0.06285 0.0
C401 C 0.2552 0.26226 0.93547 0.0
C402 C 0.73865 0.29497 0.53453 0.0
C403 C 0.7397 0.30375 0.46949 0.0
H404 H 0.7511 0.25524 0.61469 0.0
C405 C 0.75517 0.27851 0.43556 0.0
H406 H 0.72836 0.31446 0.56321 0.0
C407 C 0.76868 0.24483 0.46547 0.0
C408 C 0.76765 0.23605 0.53051 0.0
H409 H 0.75624 0.28456 0.38531 0.0
H410 H 0.77899 0.22534 0.4368 0.0
C411 C 0.75216 0.26129 0.56444 0.0
C412 C 0.75178 0.77919 0.06407 0.0
C413 C 0.76833 0.80369 0.03092 0.0
H414 H 0.72694 0.72669 0.06245 0.0
C415 C 0.77026 0.79418 0.96673 0.0
H416 H 0.75001 0.78578 0.11368 0.0
C417 C 0.75655 0.76055 0.93692 0.0
C418 C 0.73999 0.73606 0.97005 0.0
H419 H 0.78137 0.81306 0.93852 0.0
H420 H 0.7583 0.75397 0.8873 0.0
C421 C 0.73806 0.74557 0.03425 0.0
C422 C 0.21809 0.77362 0.45871 0.0
C423 C 0.24069 0.80461 0.46937 0.0
H424 H 0.21318 0.71668 0.48024 0.0
C425 C 0.27689 0.80112 0.51087 0.0
H426 H 0.19041 0.77495 0.4254 0.0
C427 C 0.29005 0.76759 0.54187 0.0
C428 C 0.26744 0.73661 0.53122 0.0
H429 H 0.29495 0.82453 0.52035 0.0
H430 H 0.31772 0.76626 0.57517 0.0
C431 C 0.23124 0.7401 0.48971 0.0
C432 C 0.51682 0.38785 0.32128 0.0
C433 C 0.54119 0.39043 0.28392 0.0
H434 H 0.4613 0.39124 0.31853 0.0
C435 C 0.52748 0.38785 0.21313 0.0
H436 H 0.52661 0.39079 0.37588 0.0
C437 C 0.48994 0.38791 0.18025 0.0
C438 C 0.46558 0.39071 0.21764 0.0
H439 H 0.54549 0.39086 0.18303 0.0
H440 H 0.48017 0.39089 0.12567 0.0
C441 C 0.47928 0.38806 0.2884 0.0
C442 C 0.47888 0.65371 0.78711 0.0
C443 C 0.46525 0.65057 0.7164 0.0
H444 H 0.52615 0.65131 0.87473 0.0
C445 C 0.48964 0.65292 0.67905 0.0
H446 H 0.46085 0.65091 0.8172 0.0
C447 C 0.52717 0.65298 0.71203 0.0
C448 C 0.54083 0.65082 0.78286 0.0
H449 H 0.47992 0.64958 0.62454 0.0
H450 H 0.5452 0.64957 0.68204 0.0
C451 C 0.51642 0.65392 0.82008 0.0
C452 C 0.01848 0.88792 0.32107 0.0
C453 C 0.0429 0.89046 0.2838 0.0
H454 H 0.96289 0.89096 0.31799 0.0
C455 C 0.02931 0.88741 0.21307 0.0
H456 H 0.02817 0.89119 0.3756 0.0
C457 C 0.99178 0.88708 0.18003 0.0
C458 C 0.96733 0.88994 0.21721 0.0
H459 H 0.04735 0.89036 0.18303 0.0
H460 H 0.98206 0.88974 0.12539 0.0
C461 C 0.98096 0.88772 0.28803 0.0
C462 C 0.02816 0.15291 0.712 0.0
C463 C 0.04191 0.15028 0.78276 0.0
H464 H 0.98083 0.15 0.6246 0.0
C465 C 0.01757 0.15297 0.82021 0.0
H466 H 0.04615 0.14982 0.68184 0.0
C467 C 0.98002 0.15287 0.78739 0.0
C468 C 0.96629 0.15024 0.71662 0.0
H469 H 0.02739 0.15001 0.87479 0.0
H470 H 0.96207 0.14974 0.81756 0.0
C471 C 0.99062 0.15298 0.67918 0.0
loop_
_geom_bond_atom_site_label_1
_geom_bond_atom_site_label_2
_geom_bond_distance
_geom_bond_site_symmetry_2
_ccdc_geom_bond_type
Co0 O3 1.970 . S
Co0 N17 1.989 1_554 S
Co0 O25 1.967 . S
Co0 O32 1.920 . S
Co1 O4 1.966 . S
Co1 N10 2.022 . S
Co1 N18 1.993 1_554 S
Co1 O26 1.941 . S
C2 O3 1.258 . S
C2 O4 1.263 . S
O3 Co0 1.970 . S
O3 C2 1.258 . S
O4 Co1 1.966 . S
O4 C2 1.263 . S
C5 O6 1.235 . S
C5 O32 1.289 . S
O6 C5 1.235 . S
C7 C9 1.400 . S
C7 N10 1.351 . S
C7 C12 1.501 . S
C8 C9 1.387 . S
C8 N11 1.341 . S
C9 C7 1.400 . S
C9 C8 1.387 . S
N10 Co1 2.022 . S
N10 C7 1.351 . S
N10 N11 1.365 . S
N11 C8 1.341 . S
N11 N10 1.365 . S
N11 H31 0.862 . S
C12 C7 1.501 . S
C12 H13 0.961 . S
C12 H14 0.961 . S
C12 H15 0.960 . S
H13 C12 0.961 . S
H14 C12 0.961 . S
H15 C12 0.960 . S
C16 N17 1.342 . S
C16 C20 1.401 . S
C16 C21 1.499 . S
N17 Co0 1.989 1_556 S
N17 C16 1.342 . S
N17 N18 1.388 . S
N18 Co1 1.993 1_556 S
N18 N17 1.388 . S
N18 C19 1.346 . S
C19 N18 1.346 . S
C19 C20 1.396 . S
C19 C29 1.510 . S
C20 C16 1.401 . S
C20 C19 1.396 . S
C21 C16 1.499 . S
C21 H22 0.959 . S
C21 H23 0.960 . S
C21 H24 0.961 . S
H22 C21 0.959 . S
H23 C21 0.960 . S
H24 C21 0.961 . S
O25 Co0 1.967 . S
O25 C33 1.258 . S
O26 Co1 1.941 . S
O26 C33 1.266 . S
H27 C29 0.959 . S
H28 C29 0.961 . S
C29 C19 1.510 . S
C29 H27 0.959 . S
C29 H28 0.961 . S
C29 H30 0.960 . S
H30 C29 0.960 . S
H31 N11 0.862 . S
O32 Co0 1.920 . S
O32 C5 1.289 . S
C33 O25 1.258 . S
C33 O26 1.266 . S
Co34 O37 1.970 . S
Co34 N51 1.989 . S
Co34 O59 1.967 . S
Co34 O66 1.920 . S
Co35 O38 1.966 . S
Co35 N44 2.022 . S
Co35 N52 1.993 . S
Co35 O60 1.941 . S
C36 O37 1.258 . S
C36 O38 1.263 . S
O37 Co34 1.970 . S
O37 C36 1.258 . S
O38 Co35 1.966 . S
O38 C36 1.263 . S
C39 O40 1.235 . S
C39 O66 1.289 . S
O40 C39 1.235 . S
C41 C43 1.400 . S
C41 N44 1.351 . S
C41 C46 1.501 . S
C42 C43 1.387 . S
C42 N45 1.341 . S
C43 C41 1.400 . S
C43 C42 1.387 . S
N44 Co35 2.022 . S
N44 C41 1.351 . S
N44 N45 1.365 . S
N45 C42 1.341 . S
N45 N44 1.365 . S
N45 H65 0.862 . S
C46 C41 1.501 . S
C46 H47 0.961 . S
C46 H48 0.961 . S
C46 H49 0.960 . S
H47 C46 0.961 . S
H48 C46 0.961 . S
H49 C46 0.960 . S
C50 N51 1.342 . S
C50 C54 1.401 . S
C50 C55 1.499 . S
N51 Co34 1.989 . S
N51 C50 1.342 . S
N51 N52 1.388 . S
N52 Co35 1.993 . S
N52 N51 1.388 . S
N52 C53 1.346 . S
C53 N52 1.346 . S
C53 C54 1.396 . S
C53 C63 1.510 . S
C54 C50 1.401 . S
C54 C53 1.396 . S
C55 C50 1.499 . S
C55 H56 0.959 . S
C55 H57 0.960 . S
C55 H58 0.961 . S
H56 C55 0.959 . S
H57 C55 0.960 . S
H58 C55 0.961 . S
O59 Co34 1.967 . S
O59 C67 1.258 . S
O60 Co35 1.941 . S
O60 C67 1.266 . S
H61 C63 0.959 . S
H62 C63 0.961 . S
C63 C53 1.510 . S
C63 H61 0.959 . S
C63 H62 0.961 . S
C63 H64 0.960 . S
H64 C63 0.960 . S
H65 N45 0.862 . S
O66 Co34 1.920 . S
O66 C39 1.289 . S
C67 O59 1.258 . S
C67 O60 1.266 . S
Co68 O71 1.970 . S
Co68 N85 1.989 1_556 S
Co68 O93 1.967 . S
Co68 O100 1.920 . S
Co69 O72 1.966 . S
Co69 N78 2.022 . S
Co69 N86 1.993 1_556 S
Co69 O94 1.941 . S
C70 O71 1.258 . S
C70 O72 1.263 . S
O71 Co68 1.970 . S
O71 C70 1.258 . S
O72 Co69 1.966 . S
O72 C70 1.263 . S
C73 O74 1.235 . S
C73 O100 1.289 . S
O74 C73 1.235 . S
C75 C77 1.400 . S
C75 N78 1.351 . S
C75 C80 1.501 . S
C76 C77 1.387 . S
C76 N79 1.341 . S
C77 C75 1.400 . S
C77 C76 1.387 . S
N78 Co69 2.022 . S
N78 C75 1.351 . S
N78 N79 1.365 . S
N79 C76 1.341 . S
N79 N78 1.365 . S
N79 H99 0.862 . S
C80 C75 1.501 . S
C80 H81 0.961 . S
C80 H82 0.961 . S
C80 H83 0.960 . S
H81 C80 0.961 . S
H82 C80 0.961 . S
H83 C80 0.960 . S
C84 N85 1.342 . S
C84 C88 1.401 . S
C84 C89 1.499 . S
N85 Co68 1.989 1_554 S
N85 C84 1.342 . S
N85 N86 1.388 . S
N86 Co69 1.993 1_554 S
N86 N85 1.388 . S
N86 C87 1.346 . S
C87 N86 1.346 . S
C87 C88 1.396 . S
C87 C97 1.510 . S
C88 C84 1.401 . S
C88 C87 1.396 . S
C89 C84 1.499 . S
C89 H90 0.959 . S
C89 H91 0.960 . S
C89 H92 0.961 . S
H90 C89 0.959 . S
H91 C89 0.960 . S
H92 C89 0.961 . S
O93 Co68 1.967 . S
O93 C101 1.258 . S
O94 Co69 1.941 . S
O94 C101 1.266 . S
H95 C97 0.959 . S
H96 C97 0.961 . S
C97 C87 1.510 . S
C97 H95 0.959 . S
C97 H96 0.961 . S
C97 H98 0.960 . S
H98 C97 0.960 . S
H99 N79 0.862 . S
O100 Co68 1.920 . S
O100 C73 1.289 . S
C101 O93 1.258 . S
C101 O94 1.266 . S
Co102 O105 1.970 . S
Co102 N119 1.989 . S
Co102 O127 1.967 . S
Co102 O134 1.920 . S
Co103 O106 1.966 . S
Co103 N112 2.022 . S
Co103 N120 1.993 . S
Co103 O128 1.941 . S
C104 O105 1.258 . S
C104 O106 1.263 . S
O105 Co102 1.970 . S
O105 C104 1.258 . S
O106 Co103 1.966 . S
O106 C104 1.263 . S
C107 O108 1.235 . S
C107 O134 1.289 . S
O108 C107 1.235 . S
C109 C111 1.400 . S
C109 N112 1.351 . S
C109 C114 1.501 . S
C110 C111 1.387 . S
C110 N113 1.341 . S
C111 C109 1.400 . S
C111 C110 1.387 . S
N112 Co103 2.022 . S
N112 C109 1.351 . S
N112 N113 1.365 . S
N113 C110 1.341 . S
N113 N112 1.365 . S
N113 H133 0.862 . S
C114 C109 1.501 . S
C114 H115 0.961 . S
C114 H116 0.961 . S
C114 H117 0.960 . S
H115 C114 0.961 . S
H116 C114 0.961 . S
H117 C114 0.960 . S
C118 N119 1.342 . S
C118 C122 1.401 . S
C118 C123 1.499 . S
N119 Co102 1.989 . S
N119 C118 1.342 . S
N119 N120 1.388 . S
N120 Co103 1.993 . S
N120 N119 1.388 . S
N120 C121 1.346 . S
C121 N120 1.346 . S
C121 C122 1.396 . S
C121 C131 1.510 . S
C122 C118 1.401 . S
C122 C121 1.396 . S
C123 C118 1.499 . S
C123 H124 0.959 . S
C123 H125 0.960 . S
C123 H126 0.961 . S
H124 C123 0.959 . S
H125 C123 0.960 . S
H126 C123 0.961 . S
O127 Co102 1.967 . S
O127 C135 1.258 . S
O128 Co103 1.941 . S
O128 C135 1.266 . S
H129 C131 0.959 . S
H130 C131 0.961 . S
C131 C121 1.510 . S
C131 H129 0.959 . S
C131 H130 0.961 . S
C131 H132 0.960 . S
H132 C131 0.960 . S
H133 N113 0.862 . S
O134 Co102 1.920 . S
O134 C107 1.289 . S
C135 O127 1.258 . S
C135 O128 1.266 . S
Co136 O139 1.970 . S
Co136 N153 1.989 1_554 S
Co136 O161 1.967 . S
Co136 O168 1.920 1_565 S
Co137 O140 1.966 . S
Co137 N146 2.022 . S
Co137 N154 1.993 1_554 S
Co137 O162 1.941 . S
C138 O139 1.258 . S
C138 O140 1.263 . S
O139 Co136 1.970 . S
O139 C138 1.258 . S
O140 Co137 1.966 . S
O140 C138 1.263 . S
C141 O142 1.235 . S
C141 O168 1.289 1_565 S
O142 C141 1.235 . S
C143 C145 1.400 . S
C143 N146 1.351 . S
C143 C148 1.501 . S
C144 C145 1.387 . S
C144 N147 1.341 . S
C145 C143 1.400 . S
C145 C144 1.387 . S
N146 Co137 2.022 . S
N146 C143 1.351 . S
N146 N147 1.365 . S
N147 C144 1.341 . S
N147 N146 1.365 . S
N147 H167 0.862 . S
C148 C143 1.501 . S
C148 H149 0.961 . S
C148 H150 0.961 . S
C148 H151 0.960 . S
H149 C148 0.961 . S
H150 C148 0.961 . S
H151 C148 0.960 . S
C152 N153 1.342 . S
C152 C156 1.401 . S
C152 C157 1.499 . S
N153 Co136 1.989 1_556 S
N153 C152 1.342 . S
N153 N154 1.388 . S
N154 Co137 1.993 1_556 S
N154 N153 1.388 . S
N154 C155 1.346 . S
C155 N154 1.346 . S
C155 C156 1.396 . S
C155 C165 1.510 . S
C156 C152 1.401 . S
C156 C155 1.396 . S
C157 C152 1.499 . S
C157 H158 0.959 1_565 S
C157 H159 0.960 . S
C157 H160 0.961 1_565 S
H158 C157 0.959 1_545 S
H159 C157 0.960 . S
H160 C157 0.961 1_545 S
O161 Co136 1.967 . S
O161 C169 1.258 . S
O162 Co137 1.941 . S
O162 C169 1.266 . S
H163 C165 0.959 . S
H164 C165 0.961 . S
C165 C155 1.510 . S
C165 H163 0.959 . S
C165 H164 0.961 . S
C165 H166 0.960 . S
H166 C165 0.960 . S
H167 N147 0.862 . S
O168 Co136 1.920 1_545 S
O168 C141 1.289 1_545 S
C169 O161 1.258 . S
C169 O162 1.266 . S
Co170 O173 1.970 . S
Co170 N187 1.989 . S
Co170 O195 1.967 . S
Co170 O202 1.920 1_565 S
Co171 O174 1.966 . S
Co171 N180 2.022 . S
Co171 N188 1.993 . S
Co171 O196 1.941 . S
C172 O173 1.258 . S
C172 O174 1.263 . S
O173 Co170 1.970 . S
O173 C172 1.258 . S
O174 Co171 1.966 . S
O174 C172 1.263 . S
C175 O176 1.235 . S
C175 O202 1.289 1_565 S
O176 C175 1.235 . S
C177 C179 1.400 . S
C177 N180 1.351 . S
C177 C182 1.501 . S
C178 C179 1.387 . S
C178 N181 1.341 . S
C179 C177 1.400 . S
C179 C178 1.387 . S
N180 Co171 2.022 . S
N180 C177 1.351 . S
N180 N181 1.365 . S
N181 C178 1.341 . S
N181 N180 1.365 . S
N181 H201 0.862 . S
C182 C177 1.501 . S
C182 H183 0.961 . S
C182 H184 0.961 . S
C182 H185 0.960 . S
H183 C182 0.961 . S
H184 C182 0.961 . S
H185 C182 0.960 . S
C186 N187 1.342 . S
C186 C190 1.401 . S
C186 C191 1.499 . S
N187 Co170 1.989 . S
N187 C186 1.342 . S
N187 N188 1.388 . S
N188 Co171 1.993 . S
N188 N187 1.388 . S
N188 C189 1.346 . S
C189 N188 1.346 . S
C189 C190 1.396 . S
C189 C199 1.510 . S
C190 C186 1.401 . S
C190 C189 1.396 . S
C191 C186 1.499 . S
C191 H192 0.959 1_565 S
C191 H193 0.960 . S
C191 H194 0.961 1_565 S
H192 C191 0.959 1_545 S
H193 C191 0.960 . S
H194 C191 0.961 1_545 S
O195 Co170 1.967 . S
O195 C203 1.258 . S
O196 Co171 1.941 . S
O196 C203 1.266 . S
H197 C199 0.959 . S
H198 C199 0.961 . S
C199 C189 1.510 . S
C199 H197 0.959 . S
C199 H198 0.961 . S
C199 H200 0.960 . S
H200 C199 0.960 . S
H201 N181 0.862 . S
O202 Co170 1.920 1_545 S
O202 C175 1.289 1_545 S
C203 O195 1.258 . S
C203 O196 1.266 . S
Co204 O207 1.970 . S
Co204 N221 1.989 1_556 S
Co204 O229 1.967 . S
Co204 O236 1.920 1_545 S
Co205 O208 1.966 . S
Co205 N214 2.022 . S
Co205 N222 1.993 1_556 S
Co205 O230 1.941 . S
C206 O207 1.258 . S
C206 O208 1.263 . S
O207 Co204 1.970 . S
O207 C206 1.258 . S
O208 Co205 1.966 . S
O208 C206 1.263 . S
C209 O210 1.235 . S
C209 O236 1.289 1_545 S
O210 C209 1.235 . S
C211 C213 1.400 . S
C211 N214 1.351 . S
C211 C216 1.501 . S
C212 C213 1.387 . S
C212 N215 1.341 . S
C213 C211 1.400 . S
C213 C212 1.387 . S
N214 Co205 2.022 . S
N214 C211 1.351 . S
N214 N215 1.365 . S
N215 C212 1.341 . S
N215 N214 1.365 . S
N215 H235 0.862 . S
C216 C211 1.501 . S
C216 H217 0.961 . S
C216 H218 0.961 . S
C216 H219 0.960 . S
H217 C216 0.961 . S
H218 C216 0.961 . S
H219 C216 0.960 . S
C220 N221 1.342 . S
C220 C224 1.401 . S
C220 C225 1.499 . S
N221 Co204 1.989 1_554 S
N221 C220 1.342 . S
N221 N222 1.388 . S
N222 Co205 1.993 1_554 S
N222 N221 1.388 . S
N222 C223 1.346 . S
C223 N222 1.346 . S
C223 C224 1.396 . S
C223 C233 1.510 . S
C224 C220 1.401 . S
C224 C223 1.396 . S
C225 C220 1.499 . S
C225 H226 0.959 1_545 S
C225 H227 0.960 . S
C225 H228 0.961 1_545 S
H226 C225 0.959 1_565 S
H227 C225 0.960 . S
H228 C225 0.961 1_565 S
O229 Co204 1.967 . S
O229 C237 1.258 . S
O230 Co205 1.941 . S
O230 C237 1.266 . S
H231 C233 0.959 . S
H232 C233 0.961 . S
C233 C223 1.510 . S
C233 H231 0.959 . S
C233 H232 0.961 . S
C233 H234 0.960 . S
H234 C233 0.960 . S
H235 N215 0.862 . S
O236 Co204 1.920 1_565 S
O236 C209 1.289 1_565 S
C237 O229 1.258 . S
C237 O230 1.266 . S
Co238 O241 1.970 . S
Co238 N255 1.989 . S
Co238 O263 1.967 . S
Co238 O270 1.920 1_545 S
Co239 O242 1.966 . S
Co239 N248 2.022 . S
Co239 N256 1.993 . S
Co239 O264 1.941 . S
C240 O241 1.258 . S
C240 O242 1.263 . S
O241 Co238 1.970 . S
O241 C240 1.258 . S
O242 Co239 1.966 . S
O242 C240 1.263 . S
C243 O244 1.235 . S
C243 O270 1.289 1_545 S
O244 C243 1.235 . S
C245 C247 1.400 . S
C245 N248 1.351 . S
C245 C250 1.501 . S
C246 C247 1.387 . S
C246 N249 1.341 . S
C247 C245 1.400 . S
C247 C246 1.387 . S
N248 Co239 2.022 . S
N248 C245 1.351 . S
N248 N249 1.365 . S
N249 C246 1.341 . S
N249 N248 1.365 . S
N249 H269 0.862 . S
C250 C245 1.501 . S
C250 H251 0.961 . S
C250 H252 0.961 . S
C250 H253 0.960 . S
H251 C250 0.961 . S
H252 C250 0.961 . S
H253 C250 0.960 . S
C254 N255 1.342 . S
C254 C258 1.401 . S
C254 C259 1.499 . S
N255 Co238 1.989 . S
N255 C254 1.342 . S
N255 N256 1.388 . S
N256 Co239 1.993 . S
N256 N255 1.388 . S
N256 C257 1.346 . S
C257 N256 1.346 . S
C257 C258 1.396 . S
C257 C267 1.510 . S
C258 C254 1.401 . S
C258 C257 1.396 . S
C259 C254 1.499 . S
C259 H260 0.959 1_545 S
C259 H261 0.960 . S
C259 H262 0.961 1_545 S
H260 C259 0.959 1_565 S
H261 C259 0.960 . S
H262 C259 0.961 1_565 S
O263 Co238 1.967 . S
O263 C271 1.258 . S
O264 Co239 1.941 . S
O264 C271 1.266 . S
H265 C267 0.959 . S
H266 C267 0.961 . S
C267 C257 1.510 . S
C267 H265 0.959 . S
C267 H266 0.961 . S
C267 H268 0.960 . S
H268 C267 0.960 . S
H269 N249 0.862 . S
O270 Co238 1.920 1_565 S
O270 C243 1.289 1_565 S
C271 O263 1.258 . S
C271 O264 1.266 . S
C272 C273 1.387 . S
C272 H276 0.950 . S
C272 C281 1.390 . S
C273 C272 1.387 . S
C273 C275 1.387 . S
H274 C281 0.950 . S
C275 C273 1.387 . S
C275 C277 1.390 . S
C275 H279 0.950 . S
H276 C272 0.950 . S
C277 C275 1.390 . S
C277 C278 1.387 . S
C277 H280 0.950 . S
C278 C277 1.387 . S
C278 C281 1.387 . S
H279 C275 0.950 . S
H280 C277 0.950 . S
C281 C272 1.390 . S
C281 H274 0.950 . S
C281 C278 1.387 . S
C282 C283 1.387 . S
C282 H286 0.950 . S
C282 C291 1.390 . S
C283 C282 1.387 . S
C283 C285 1.387 . S
H284 C291 0.950 . S
C285 C283 1.387 . S
C285 C287 1.390 . S
C285 H289 0.950 . S
H286 C282 0.950 . S
C287 C285 1.390 . S
C287 C288 1.387 . S
C287 H290 0.950 . S
C288 C287 1.387 . S
C288 C291 1.387 . S
H289 C285 0.950 . S
H290 C287 0.950 . S
C291 C282 1.390 . S
C291 H284 0.950 . S
C291 C288 1.387 . S
C292 C293 1.387 . S
C292 H296 0.950 . S
C292 C301 1.390 . S
C293 C292 1.387 . S
C293 C295 1.387 . S
H294 C301 0.950 . S
C295 C293 1.387 . S
C295 C297 1.390 . S
C295 H299 0.950 . S
H296 C292 0.950 . S
C297 C295 1.390 . S
C297 C298 1.387 . S
C297 H300 0.950 . S
C298 C297 1.387 . S
C298 C301 1.387 . S
H299 C295 0.950 . S
H300 C297 0.950 . S
C301 C292 1.390 . S
C301 H294 0.950 . S
C301 C298 1.387 . S
C302 C303 1.387 . S
C302 H306 0.950 . S
C302 C311 1.390 . S
C303 C302 1.387 . S
C303 C305 1.387 . S
H304 C311 0.950 . S
C305 C303 1.387 . S
C305 C307 1.390 . S
C305 H309 0.950 . S
H306 C302 0.950 . S
C307 C305 1.390 . S
C307 C308 1.387 . S
C307 H310 0.950 . S
C308 C307 1.387 . S
C308 C311 1.387 . S
H309 C305 0.950 . S
H310 C307 0.950 . S
C311 C302 1.390 . S
C311 H304 0.950 . S
C311 C308 1.387 . S
C312 C313 1.387 . S
C312 H316 0.950 . S
C312 C321 1.390 . S
C313 C312 1.387 . S
C313 C315 1.387 . S
H314 C321 0.950 . S
C315 C313 1.387 . S
C315 C317 1.390 1_565 S
C315 H319 0.950 . S
H316 C312 0.950 . S
C317 C315 1.390 1_545 S
C317 C318 1.387 . S
C317 H320 0.950 . S
C318 C317 1.387 . S
C318 C321 1.387 1_545 S
H319 C315 0.950 . S
H320 C317 0.950 . S
C321 C312 1.390 . S
C321 H314 0.950 . S
C321 C318 1.387 1_565 S
C322 C323 1.387 . S
C322 H326 0.950 . S
C322 C331 1.390 1_545 S
C323 C322 1.387 . S
C323 C325 1.387 1_545 S
H324 C331 0.950 1_545 S
C325 C323 1.387 1_565 S
C325 C327 1.390 . S
C325 H329 0.950 . S
H326 C322 0.950 . S
C327 C325 1.390 . S
C327 C328 1.387 . S
C327 H330 0.950 . S
C328 C327 1.387 . S
C328 C331 1.387 . S
H329 C325 0.950 . S
H330 C327 0.950 . S
C331 C322 1.390 1_565 S
C331 H324 0.950 1_565 S
C331 C328 1.387 . S
C332 C333 1.387 . S
C332 H336 0.950 . S
C332 C341 1.390 1_545 S
C333 C332 1.387 . S
C333 C335 1.387 . S
H334 C341 0.950 . S
C335 C333 1.387 . S
C335 C337 1.390 . S
C335 H339 0.950 . S
H336 C332 0.950 . S
C337 C335 1.390 . S
C337 C338 1.387 1_545 S
C337 H340 0.950 . S
C338 C337 1.387 1_565 S
C338 C341 1.387 . S
H339 C335 0.950 . S
H340 C337 0.950 . S
C341 C332 1.390 1_565 S
C341 H334 0.950 . S
C341 C338 1.387 . S
C342 C343 1.387 . S
C342 H346 0.950 1_545 S
C342 C351 1.390 1_545 S
C343 C342 1.387 . S
C343 C345 1.387 . S
H344 C351 0.950 . S
C345 C343 1.387 . S
C345 C347 1.390 . S
C345 H349 0.950 . S
H346 C342 0.950 1_565 S
C347 C345 1.390 . S
C347 C348 1.387 1_545 S
C347 H350 0.950 . S
C348 C347 1.387 1_565 S
C348 C351 1.387 . S
H349 C345 0.950 . S
H350 C347 0.950 . S
C351 C342 1.390 1_565 S
C351 H344 0.950 . S
C351 C348 1.387 . S
C352 C353 1.387 1_556 S
C352 H356 0.950 . S
C352 C361 1.390 . S
C353 C352 1.387 1_554 S
C353 C355 1.387 . S
H354 C361 0.950 . S
C355 C353 1.387 . S
C355 C357 1.390 . S
C355 H359 0.950 . S
H356 C352 0.950 . S
C357 C355 1.390 . S
C357 C358 1.387 1_554 S
C357 H360 0.950 . S
C358 C357 1.387 1_556 S
C358 C361 1.387 . S
H359 C355 0.950 . S
H360 C357 0.950 . S
C361 C352 1.390 . S
C361 H354 0.950 . S
C361 C358 1.387 . S
C362 C363 1.387 . S
C362 H366 0.950 . S
C362 C371 1.390 . S
C363 C362 1.387 . S
C363 C365 1.387 . S
H364 C371 0.950 . S
C365 C363 1.387 . S
C365 C367 1.390 . S
C365 H369 0.950 . S
H366 C362 0.950 . S
C367 C365 1.390 . S
C367 C368 1.387 . S
C367 H370 0.950 . S
C368 C367 1.387 . S
C368 C371 1.387 . S
H369 C365 0.950 . S
H370 C367 0.950 . S
C371 C362 1.390 . S
C371 H364 0.950 . S
C371 C368 1.387 . S
C372 C373 1.387 1_554 S
C372 H376 0.950 . S
C372 C381 1.390 1_455 S
C373 C372 1.387 1_556 S
C373 C375 1.387 1_565 S
H374 C381 0.950 . S
C375 C373 1.387 1_545 S
C375 C377 1.390 1_455 S
C375 H379 0.950 . S
H376 C372 0.950 . S
C377 C375 1.390 1_655 S
C377 C378 1.387 1_556 S
C377 H380 0.950 . S
C378 C377 1.387 1_554 S
C378 C381 1.387 1_545 S
H379 C375 0.950 . S
H380 C377 0.950 . S
C381 C372 1.390 1_655 S
C381 H374 0.950 . S
C381 C378 1.387 1_565 S
C382 C383 1.387 1_545 S
C382 H386 0.950 . S
C382 C391 1.390 1_655 S
C383 C382 1.387 1_565 S
C383 C385 1.387 . S
H384 C391 0.950 . S
C385 C383 1.387 . S
C385 C387 1.390 1_655 S
C385 H389 0.950 . S
H386 C382 0.950 . S
C387 C385 1.390 1_455 S
C387 C388 1.387 1_565 S
C387 H390 0.950 . S
C388 C387 1.387 1_545 S
C388 C391 1.387 . S
H389 C385 0.950 . S
H390 C387 0.950 . S
C391 C382 1.390 1_455 S
C391 H384 0.950 . S
C391 C388 1.387 . S
C392 C393 1.387 1_556 S
C392 H396 0.950 . S
C392 C401 1.390 . S
C393 C392 1.387 1_554 S
C393 C395 1.387 . S
H394 C401 0.950 . S
C395 C393 1.387 . S
C395 C397 1.390 . S
C395 H399 0.950 . S
H396 C392 0.950 . S
C397 C395 1.390 . S
C397 C398 1.387 1_554 S
C397 H400 0.950 . S
C398 C397 1.387 1_556 S
C398 C401 1.387 . S
H399 C395 0.950 . S
H400 C397 0.950 . S
C401 C392 1.390 . S
C401 H394 0.950 . S
C401 C398 1.387 . S
C402 C403 1.387 . S
C402 H406 0.950 . S
C402 C411 1.390 . S
C403 C402 1.387 . S
C403 C405 1.387 . S
H404 C411 0.950 . S
C405 C403 1.387 . S
C405 C407 1.390 . S
C405 H409 0.950 . S
H406 C402 0.950 . S
C407 C405 1.390 . S
C407 C408 1.387 . S
C407 H410 0.950 . S
C408 C407 1.387 . S
C408 C411 1.387 . S
H409 C405 0.950 . S
H410 C407 0.950 . S
C411 C402 1.390 . S
C411 H404 0.950 . S
C411 C408 1.387 . S
C412 C413 1.387 . S
C412 H416 0.950 . S
C412 C421 1.390 . S
C413 C412 1.387 . S
C413 C415 1.387 1_554 S
H414 C421 0.950 . S
C415 C413 1.387 1_556 S
C415 C417 1.390 . S
C415 H419 0.950 . S
H416 C412 0.950 . S
C417 C415 1.390 . S
C417 C418 1.387 . S
C417 H420 0.950 . S
C418 C417 1.387 . S
C418 C421 1.387 1_556 S
H419 C415 0.950 . S
H420 C417 0.950 . S
C421 C412 1.390 . S
C421 H414 0.950 . S
C421 C418 1.387 1_554 S
C422 C423 1.387 . S
C422 H426 0.950 . S
C422 C431 1.390 . S
C423 C422 1.387 . S
C423 C425 1.387 . S
H424 C431 0.950 . S
C425 C423 1.387 . S
C425 C427 1.390 . S
C425 H429 0.950 . S
H426 C422 0.950 . S
C427 C425 1.390 . S
C427 C428 1.387 . S
C427 H430 0.950 . S
C428 C427 1.387 . S
C428 C431 1.387 . S
H429 C425 0.950 . S
H430 C427 0.950 . S
C431 C422 1.390 . S
C431 H424 0.950 . S
C431 C428 1.387 . S
C432 C433 1.387 . S
C432 H436 0.950 . S
C432 C441 1.390 . S
C433 C432 1.387 . S
C433 C435 1.387 . S
H434 C441 0.950 . S
C435 C433 1.387 . S
C435 C437 1.390 . S
C435 H439 0.950 . S
H436 C432 0.950 . S
C437 C435 1.390 . S
C437 C438 1.387 . S
C437 H440 0.950 . S
C438 C437 1.387 . S
C438 C441 1.387 . S
H439 C435 0.950 . S
H440 C437 0.950 . S
C441 C432 1.390 . S
C441 H434 0.950 . S
C441 C438 1.387 . S
C442 C443 1.387 . S
C442 H446 0.950 . S
C442 C451 1.390 . S
C443 C442 1.387 . S
C443 C445 1.387 . S
H444 C451 0.950 . S
C445 C443 1.387 . S
C445 C447 1.390 . S
C445 H449 0.950 . S
H446 C442 0.950 . S
C447 C445 1.390 . S
C447 C448 1.387 . S
C447 H450 0.950 . S
C448 C447 1.387 . S
C448 C451 1.387 . S
H449 C445 0.950 . S
H450 C447 0.950 . S
C451 C442 1.390 . S
C451 H444 0.950 . S
C451 C448 1.387 . S
C452 C453 1.387 . S
C452 H456 0.950 . S
C452 C461 1.390 1_455 S
C453 C452 1.387 . S
C453 C455 1.387 . S
H454 C461 0.950 . S
C455 C453 1.387 . S
C455 C457 1.390 1_455 S
C455 H459 0.950 . S
H456 C452 0.950 . S
C457 C455 1.390 1_655 S
C457 C458 1.387 . S
C457 H460 0.950 . S
C458 C457 1.387 . S
C458 C461 1.387 . S
H459 C455 0.950 . S
H460 C457 0.950 . S
C461 C452 1.390 1_655 S
C461 H454 0.950 . S
C461 C458 1.387 . S
C462 C463 1.387 . S
C462 H466 0.950 . S
C462 C471 1.390 1_455 S
C463 C462 1.387 . S
C463 C465 1.387 . S
H464 C471 0.950 . S
C465 C463 1.387 . S
C465 C467 1.390 1_455 S
C465 H469 0.950 . S
H466 C462 0.950 . S
C467 C465 1.390 1_655 S
C467 C468 1.387 . S
C467 H470 0.950 . S
C468 C467 1.387 . S
C468 C471 1.387 . S
H469 C465 0.950 . S
H470 C467 0.950 . S
C471 C462 1.390 1_655 S
C471 H464 0.950 . S
C471 C468 1.387 . S
C273 C135 1.663 . S
C278 C20 1.530 . S
C283 C54 1.527 . S
C288 C101 1.664 . S
C293 C67 1.663 . S
C298 C88 1.530 . S
C303 C33 1.663 . S
C308 C122 1.528 . S
C313 C156 1.527 . S
C318 C271 1.664 . S
C323 C237 1.663 . S
C328 C190 1.531 . S
C333 C224 1.527 . S
C338 C203 1.664 . S
C343 C258 1.526 . S
C348 C169 1.664 . S
C353 C5 0.814 . S
C358 C73 0.814 . S
C363 C39 0.815 . S
C368 C107 0.815 . S
C373 C209 0.822 1_565 S
C378 C141 0.822 1_545 S
C383 C243 0.817 1_565 S
C388 C175 0.817 1_545 S
C393 C9 1.378 . S
C398 C213 1.378 . S
C403 C43 1.378 . S
C408 C247 1.378 . S
C413 C145 1.380 . S
C418 C77 1.380 . S
C423 C179 1.380 . S
C428 C111 1.380 . S
C433 C36 2.007 . S
C438 C2 2.007 . S
C443 C104 2.006 . S
C448 C70 2.006 . S
C453 C172 2.007 . S
C458 C138 2.007 . S
C463 C206 2.006 . S
C468 C240 2.006 . S
