# Generated by pormake.
# Topology umh, (4)-cn, num edge types: 1
# Building blocks:
#     Node 0, Type 0, BuildingBlock: NAWXER_clean_sbu_0, # of connection points: 4
#     Node 1, Type 0, BuildingBlock: NAWXER_clean_sbu_0, # of connection points: 4
#     Node 2, Type 0, BuildingBlock: NAWXER_clean_sbu_0, # of connection points: 4
#     Node 3, Type 0, BuildingBlock: NAWXER_clean_sbu_0, # of connection points: 4
#     Node 4, Type 0, BuildingBlock: NAWXER_clean_sbu_0, # of connection points: 4
#     Node 5, Type 0, BuildingBlock: NAWXER_clean_sbu_0, # of connection points: 4
#     Node 6, Type 0, BuildingBlock: NAWXER_clean_sbu_0, # of connection points: 4
#     Node 7, Type 0, BuildingBlock: NAWXER_clean_sbu_0, # of connection points: 4
#     Node 8, Type 0, BuildingBlock: NAWXER_clean_sbu_0, # of connection points: 4
#     Node 9, Type 0, BuildingBlock: NAWXER_clean_sbu_0, # of connection points: 4
#     Node 10, Type 0, BuildingBlock: NAWXER_clean_sbu_0, # of connection points: 4
#     Node 11, Type 0, BuildingBlock: NAWXER_clean_sbu_0, # of connection points: 4
#     Node 12, Type 0, BuildingBlock: NAWXER_clean_sbu_0, # of connection points: 4
#     Node 13, Type 0, BuildingBlock: NAWXER_clean_sbu_0, # of connection points: 4
#     Node 14, Type 0, BuildingBlock: NAWXER_clean_sbu_0, # of connection points: 4
#     Node 15, Type 0, BuildingBlock: NAWXER_clean_sbu_0, # of connection points: 4
#     Edge 16, Type (0, 0), BuildingBlock: XIVTED_clean_linker_0, # of connection points: 2
#     Edge 17, Type (0, 0), BuildingBlock: XIVTED_clean_linker_0, # of connection points: 2
#     Edge 18, Type (0, 0), BuildingBlock: XIVTED_clean_linker_0, # of connection points: 2
#     Edge 19, Type (0, 0), BuildingBlock: XIVTED_clean_linker_0, # of connection points: 2
#     Edge 20, Type (0, 0), BuildingBlock: XIVTED_clean_linker_0, # of connection points: 2
#     Edge 21, Type (0, 0), BuildingBlock: XIVTED_clean_linker_0, # of connection points: 2
#     Edge 22, Type (0, 0), BuildingBlock: XIVTED_clean_linker_0, # of connection points: 2
#     Edge 23, Type (0, 0), BuildingBlock: XIVTED_clean_linker_0, # of connection points: 2
#     Edge 24, Type (0, 0), BuildingBlock: XIVTED_clean_linker_0, # of connection points: 2
#     Edge 25, Type (0, 0), BuildingBlock: XIVTED_clean_linker_0, # of connection points: 2
#     Edge 26, Type (0, 0), BuildingBlock: XIVTED_clean_linker_0, # of connection points: 2
#     Edge 27, Type (0, 0), BuildingBlock: XIVTED_clean_linker_0, # of connection points: 2
#     Edge 28, Type (0, 0), BuildingBlock: XIVTED_clean_linker_0, # of connection points: 2
#     Edge 29, Type (0, 0), BuildingBlock: XIVTED_clean_linker_0, # of connection points: 2
#     Edge 30, Type (0, 0), BuildingBlock: XIVTED_clean_linker_0, # of connection points: 2
#     Edge 31, Type (0, 0), BuildingBlock: XIVTED_clean_linker_0, # of connection points: 2
#     Edge 32, Type (0, 0), BuildingBlock: XIVTED_clean_linker_0, # of connection points: 2
#     Edge 33, Type (0, 0), BuildingBlock: XIVTED_clean_linker_0, # of connection points: 2
#     Edge 34, Type (0, 0), BuildingBlock: XIVTED_clean_linker_0, # of connection points: 2
#     Edge 35, Type (0, 0), BuildingBlock: XIVTED_clean_linker_0, # of connection points: 2
#     Edge 36, Type (0, 0), BuildingBlock: XIVTED_clean_linker_0, # of connection points: 2
#     Edge 37, Type (0, 0), BuildingBlock: XIVTED_clean_linker_0, # of connection points: 2
#     Edge 38, Type (0, 0), BuildingBlock: XIVTED_clean_linker_0, # of connection points: 2
#     Edge 39, Type (0, 0), BuildingBlock: XIVTED_clean_linker_0, # of connection points: 2
#     Edge 40, Type (0, 0), BuildingBlock: XIVTED_clean_linker_0, # of connection points: 2
#     Edge 41, Type (0, 0), BuildingBlock: XIVTED_clean_linker_0, # of connection points: 2
#     Edge 42, Type (0, 0), BuildingBlock: XIVTED_clean_linker_0, # of connection points: 2
#     Edge 43, Type (0, 0), BuildingBlock: XIVTED_clean_linker_0, # of connection points: 2
#     Edge 44, Type (0, 0), BuildingBlock: XIVTED_clean_linker_0, # of connection points: 2
#     Edge 45, Type (0, 0), BuildingBlock: XIVTED_clean_linker_0, # of connection points: 2
#     Edge 46, Type (0, 0), BuildingBlock: XIVTED_clean_linker_0, # of connection points: 2
#     Edge 47, Type (0, 0), BuildingBlock: XIVTED_clean_linker_0, # of connection points: 2
# Relax obj value: 0.044
# Max RMSD: 0.109
# Mean RMSD: 0.109
data_MOF--net-umh--node1-NAWXER_clean_sbu_0--edge1-XIVTED_clean_linker_0
_symmetry_space_group_name_H-M    P1
_symmetry_Int_Tables_number       1
_symmetry_cell_setting            triclinic
loop_
_symmetry_equiv_pos_as_xyz
'x, y, z'
_cell_length_a     40.735127
_cell_length_b     40.381965
_cell_length_c     54.3707
_cell_angle_alpha  89.754192
_cell_angle_beta   89.899084
_cell_angle_gamma 89.745577
loop_
_atom_site_label
_atom_site_type_symbol
_atom_site_fract_x
_atom_site_fract_y
_atom_site_fract_z
_atom_type_partial_charge
C0 C 0.34286 0.09588 0.10261 0.0
C1 C 0.30983 0.06521 0.18604 0.0
O2 O 0.36123 0.10833 0.11926 0.0
Zn3 Zn 0.36477 0.10863 0.15844 0.0
O4 O 0.31864 0.07793 0.10886 0.0
Zn5 Zn 0.32491 0.08063 0.14413 0.0
O6 O 0.31349 0.13157 0.15175 0.0
O7 O 0.35818 0.15524 0.16604 0.0
O8 O 0.29535 0.05747 0.16618 0.0
O9 O 0.33519 0.08386 0.18529 0.0
O10 O 0.40706 0.08762 0.16391 0.0
O11 O 0.36994 0.05342 0.14916 0.0
C12 C 0.32811 0.15732 0.15994 0.0
C13 C 0.39921 0.05871 0.15682 0.0
C14 C 0.40937 0.32683 0.68674 0.0
C15 C 0.40192 0.37395 0.60402 0.0
O16 O 0.39596 0.35565 0.68672 0.0
Zn17 Zn 0.38364 0.39324 0.66008 0.0
O18 O 0.41964 0.31468 0.66664 0.0
Zn19 Zn 0.40764 0.35104 0.64522 0.0
O20 O 0.44 0.39053 0.65496 0.0
O21 O 0.40967 0.43108 0.66987 0.0
O22 O 0.41581 0.34698 0.61041 0.0
O23 O 0.3897 0.39301 0.62054 0.0
O24 O 0.33581 0.3952 0.66238 0.0
O25 O 0.35498 0.34955 0.64528 0.0
C26 C 0.43776 0.41973 0.66399 0.0
C27 C 0.33059 0.36763 0.65186 0.0
C28 C 0.22683 0.46292 0.17595 0.0
C29 C 0.18113 0.43176 0.09607 0.0
O30 O 0.20056 0.44573 0.17724 0.0
Zn31 Zn 0.16673 0.42179 0.15364 0.0
O32 O 0.23949 0.46951 0.15508 0.0
Zn33 Zn 0.20611 0.44734 0.13548 0.0
O34 O 0.16313 0.4769 0.14311 0.0
O35 O 0.12663 0.44522 0.16176 0.0
O36 O 0.20741 0.44803 0.09949 0.0
O37 O 0.16489 0.42116 0.11467 0.0
O38 O 0.17239 0.37518 0.16216 0.0
O39 O 0.21615 0.39644 0.14429 0.0
C40 C 0.13482 0.47337 0.15314 0.0
C41 C 0.20167 0.37173 0.15439 0.0
C42 C 0.04139 0.16345 0.64259 0.0
C43 C 0.12431 0.24886 0.62775 0.0
O44 O 0.03655 0.19192 0.63312 0.0
Zn45 Zn 0.08178 0.20747 0.63443 0.0
O46 O 0.07041 0.15515 0.64937 0.0
Zn47 Zn 0.11868 0.1752 0.65021 0.0
O48 O 0.12767 0.17794 0.68535 0.0
O49 O 0.09037 0.21394 0.67257 0.0
O50 O 0.13559 0.22227 0.63753 0.0
O51 O 0.09395 0.25143 0.62253 0.0
O52 O 0.10638 0.17537 0.60922 0.0
O53 O 0.14332 0.14521 0.629 0.0
C54 C 0.10821 0.20192 0.6898 0.0
C55 C 0.12896 0.15314 0.60903 0.0
C56 C 0.31826 0.44969 0.34275 0.0
C57 C 0.35081 0.42151 0.42681 0.0
O58 O 0.34336 0.43047 0.34384 0.0
Zn59 Zn 0.37271 0.40618 0.3712 0.0
O60 O 0.30392 0.45848 0.36249 0.0
Zn61 Zn 0.33298 0.43548 0.38501 0.0
O62 O 0.3781 0.4614 0.37931 0.0
O63 O 0.41523 0.42624 0.36527 0.0
O64 O 0.32675 0.43967 0.42024 0.0
O65 O 0.36905 0.40808 0.41038 0.0
O66 O 0.36575 0.35945 0.36463 0.0
O67 O 0.3213 0.38465 0.37845 0.0
C68 C 0.40735 0.45548 0.37175 0.0
C69 C 0.33565 0.3583 0.37082 0.0
C70 C 0.00397 0.33523 0.90084 0.0
C71 C 0.10476 0.27018 0.91221 0.0
O72 O 0.00659 0.30691 0.91094 0.0
Zn73 Zn 0.05415 0.30178 0.90771 0.0
O74 O 0.02981 0.34998 0.89309 0.0
Zn75 Zn 0.08144 0.34152 0.8916 0.0
O76 O 0.0907 0.34194 0.85677 0.0
O77 O 0.06309 0.29782 0.86891 0.0
O78 O 0.10927 0.29899 0.90288 0.0
O79 O 0.07593 0.2608 0.918 0.0
O80 O 0.07386 0.33703 0.93324 0.0
O81 O 0.10023 0.37548 0.91212 0.0
C82 C 0.07774 0.31415 0.85189 0.0
C83 C 0.09107 0.36359 0.93268 0.0
C84 C 0.13567 0.05047 0.38452 0.0
C85 C 0.2093 0.14562 0.38134 0.0
O86 O 0.16462 0.04337 0.3923 0.0
Zn87 Zn 0.21084 0.06874 0.39746 0.0
O88 O 0.12918 0.07983 0.37746 0.0
Zn89 Zn 0.17176 0.09837 0.38329 0.0
O90 O 0.20061 0.07345 0.35631 0.0
O91 O 0.23981 0.04511 0.37506 0.0
O92 O 0.17904 0.14459 0.37577 0.0
O93 O 0.22352 0.1194 0.38952 0.0
O94 O 0.21741 0.0655 0.43297 0.0
O95 O 0.175 0.0965 0.42236 0.0
C96 C 0.22554 0.05408 0.3553 0.0
C97 C 0.19301 0.08342 0.43911 0.0
C98 C 0.31797 0.15954 0.87791 0.0
C99 C 0.41991 0.0978 0.86442 0.0
O100 O 0.34385 0.17529 0.88425 0.0
Zn101 Zn 0.39608 0.16884 0.88399 0.0
O102 O 0.32081 0.13161 0.86735 0.0
Zn103 Zn 0.36858 0.12924 0.8689 0.0
O104 O 0.37538 0.12793 0.90824 0.0
O105 O 0.40488 0.17132 0.91885 0.0
O106 O 0.39095 0.08924 0.85864 0.0
O107 O 0.42475 0.12654 0.87363 0.0
O108 O 0.41117 0.20413 0.86281 0.0
O109 O 0.38413 0.16585 0.84246 0.0
C110 C 0.38922 0.14533 0.92492 0.0
C111 C 0.40003 0.19322 0.84262 0.0
C112 C 0.66619 0.91349 0.92896 0.0
C113 C 0.6907 0.91447 0.84109 0.0
O114 O 0.6897 0.92712 0.91748 0.0
Zn115 Zn 0.67775 0.91252 0.88507 0.0
O116 O 0.64506 0.89648 0.91686 0.0
Zn117 Zn 0.63764 0.88267 0.87832 0.0
O118 O 0.63974 0.83553 0.87913 0.0
O119 O 0.68719 0.85899 0.88725 0.0
O120 O 0.66562 0.89619 0.84557 0.0
O121 O 0.70522 0.92848 0.85879 0.0
O122 O 0.6315 0.93879 0.87828 0.0
O123 O 0.59507 0.8998 0.87132 0.0
C124 C 0.6698 0.83268 0.88467 0.0
C125 C 0.60193 0.93026 0.87311 0.0
C126 C 0.64971 0.62432 0.41759 0.0
C127 C 0.64397 0.69264 0.34196 0.0
O128 O 0.62676 0.64613 0.41723 0.0
Zn129 Zn 0.60676 0.68384 0.39366 0.0
O130 O 0.66792 0.62051 0.39869 0.0
Zn131 Zn 0.64641 0.65476 0.37847 0.0
O132 O 0.65986 0.69644 0.39996 0.0
O133 O 0.6156 0.72261 0.41385 0.0
O134 O 0.66175 0.66703 0.34533 0.0
O135 O 0.62298 0.70081 0.35844 0.0
O136 O 0.56228 0.6684 0.38879 0.0
O137 O 0.59899 0.6341 0.37318 0.0
C138 C 0.64669 0.71954 0.41269 0.0
C139 C 0.56901 0.64131 0.37801 0.0
C140 C 0.76936 0.60608 0.90195 0.0
C141 C 0.82489 0.49761 0.89571 0.0
O142 O 0.80023 0.6069 0.8978 0.0
Zn143 Zn 0.84074 0.5753 0.89214 0.0
O144 O 0.75502 0.57819 0.904 0.0
Zn145 Zn 0.79458 0.55021 0.89966 0.0
O146 O 0.82253 0.56221 0.93145 0.0
O147 O 0.86863 0.58641 0.92018 0.0
O148 O 0.79479 0.50147 0.90151 0.0
O149 O 0.84306 0.52288 0.89187 0.0
O150 O 0.85169 0.58645 0.85799 0.0
O151 O 0.80528 0.5586 0.86163 0.0
C152 C 0.84989 0.57561 0.93719 0.0
C153 C 0.82699 0.5726 0.84811 0.0
C154 C 0.85806 0.81723 0.40652 0.0
C155 C 0.95295 0.88512 0.38466 0.0
O156 O 0.8523 0.84126 0.39176 0.0
Zn157 Zn 0.87574 0.88109 0.37393 0.0
O158 O 0.887 0.81202 0.41459 0.0
Zn159 Zn 0.90689 0.84843 0.39578 0.0
O160 O 0.88589 0.88918 0.41494 0.0
O161 O 0.85319 0.91816 0.39054 0.0
O162 O 0.95357 0.85866 0.39746 0.0
O163 O 0.92581 0.89503 0.37526 0.0
O164 O 0.86855 0.86945 0.33942 0.0
O165 O 0.89905 0.8323 0.35872 0.0
C166 C 0.86596 0.91337 0.41165 0.0
C167 C 0.88398 0.84194 0.33926 0.0
C168 C 0.73219 0.58017 0.67931 0.0
C169 C 0.69253 0.57997 0.59433 0.0
O170 O 0.74178 0.5624 0.66145 0.0
Zn171 Zn 0.71071 0.57847 0.63711 0.0
O172 O 0.70725 0.5993 0.67644 0.0
Zn173 Zn 0.67346 0.61132 0.64707 0.0
O174 O 0.63181 0.59617 0.65836 0.0
O175 O 0.66439 0.5551 0.64752 0.0
O176 O 0.67452 0.59774 0.60856 0.0
O177 O 0.71686 0.5643 0.6033 0.0
O178 O 0.72266 0.63125 0.63424 0.0
O179 O 0.67751 0.658 0.64497 0.0
C180 C 0.63635 0.5654 0.65537 0.0
C181 C 0.70712 0.65864 0.63773 0.0
C182 C 0.89397 0.69446 0.19056 0.0
C183 C 0.8905 0.62979 0.11327 0.0
O184 O 0.91102 0.70596 0.17267 0.0
Zn185 Zn 0.92467 0.69432 0.13589 0.0
O186 O 0.87969 0.66658 0.18826 0.0
Zn187 Zn 0.89196 0.65803 0.15372 0.0
O188 O 0.94227 0.6465 0.15592 0.0
O189 O 0.97204 0.68481 0.13745 0.0
O190 O 0.87504 0.62175 0.13283 0.0
O191 O 0.90884 0.65536 0.11327 0.0
O192 O 0.90434 0.73189 0.11802 0.0
O193 O 0.86892 0.6984 0.13638 0.0
C194 C 0.97032 0.65752 0.14925 0.0
C195 C 0.87487 0.72424 0.12356 0.0
C196 C 0.81501 0.96122 0.58496 0.0
C197 C 0.78182 0.95362 0.67184 0.0
O198 O 0.78877 0.97268 0.59447 0.0
Zn199 Zn 0.79878 0.95995 0.62842 0.0
O200 O 0.83609 0.94646 0.59871 0.0
Zn201 Zn 0.84192 0.93272 0.63675 0.0
O202 O 0.84382 0.8852 0.63466 0.0
O203 O 0.79505 0.90649 0.62621 0.0
O204 O 0.80906 0.93887 0.6673 0.0
O205 O 0.76788 0.97035 0.65494 0.0
O206 O 0.84105 0.99007 0.63661 0.0
O207 O 0.8811 0.95557 0.64625 0.0
C208 C 0.81384 0.88112 0.62899 0.0
C209 C 0.87091 0.98505 0.6432 0.0
C210 C 0.56554 0.87499 0.15037 0.0
C211 C 0.65223 0.80066 0.12024 0.0
O212 O 0.59485 0.88442 0.155 0.0
Zn213 Zn 0.64397 0.86809 0.15069 0.0
O214 O 0.56095 0.84696 0.14032 0.0
Zn215 Zn 0.60707 0.83407 0.13633 0.0
O216 O 0.62376 0.82199 0.17228 0.0
O217 O 0.65914 0.85954 0.18468 0.0
O218 O 0.62166 0.79456 0.11825 0.0
O219 O 0.66204 0.8261 0.13195 0.0
O220 O 0.66202 0.90217 0.12819 0.0
O221 O 0.62353 0.8711 0.1115 0.0
C222 C 0.64337 0.83287 0.18871 0.0
C223 C 0.64403 0.89489 0.1098 0.0
H224 H 0.35294 0.09429 0.94355 0.0
H225 H 0.38876 0.1383 0.08409 0.0
H226 H 0.41466 0.17539 0.96597 0.0
H227 H 0.31444 0.06893 0.06145 0.0
H228 H 0.40165 0.1492 0.04104 0.0
H229 H 0.34223 0.08145 0.98666 0.0
C230 C 0.36446 0.10931 0.95753 0.0
C231 C 0.38471 0.13607 0.95108 0.0
C232 C 0.38251 0.13161 0.04546 0.0
C233 C 0.37233 0.12146 1.0006 0.0
C234 C 0.37511 0.12531 0.07007 0.0
C235 C 0.3504 0.10265 0.07643 0.0
C236 C 0.36524 0.11503 0.02696 0.0
C237 C 0.33359 0.08665 0.05741 0.0
C238 C 0.35818 0.102 0.98217 0.0
C239 C 0.39887 0.15458 0.97006 0.0
N240 N 0.34137 0.09311 0.03352 0.0
N241 N 0.39237 0.14695 0.99396 0.0
H242 H 0.32296 0.45088 0.46746 0.0
H243 H 0.42611 0.34146 0.56351 0.0
H244 H 0.39598 0.37865 0.44609 0.0
H245 H 0.36642 0.42534 0.58458 0.0
H246 H 0.4142 0.35374 0.52033 0.0
H247 H 0.33686 0.44054 0.51066 0.0
C248 C 0.34185 0.43284 0.47183 0.0
C249 C 0.35831 0.41563 0.45311 0.0
C250 C 0.40387 0.36957 0.53442 0.0
C251 C 0.37433 0.40366 0.50243 0.0
C252 C 0.41072 0.36259 0.55907 0.0
C253 C 0.39726 0.38237 0.57772 0.0
C254 C 0.3832 0.39636 0.52836 0.0
C255 C 0.3774 0.40941 0.57085 0.0
C256 C 0.34987 0.42703 0.49648 0.0
C257 C 0.38266 0.39258 0.45987 0.0
N258 N 0.37082 0.41548 0.54676 0.0
N259 N 0.38984 0.38722 0.48393 0.0
H260 H 0.06596 0.35251 0.97832 0.0
H261 H 0.20727 0.44887 0.05064 0.0
H262 H 0.14134 0.40777 0.94054 0.0
H263 H 0.12509 0.39917 0.08462 0.0
H264 H 0.18407 0.43591 1.01002 0.0
H265 H 0.08729 0.37175 0.01738 0.0
C266 C 0.08691 0.36894 0.97824 0.0
C267 C 0.10195 0.37841 0.95612 0.0
C268 C 0.17117 0.42803 0.02645 0.0
C269 C 0.12698 0.40038 1.00106 0.0
C270 C 0.18443 0.43533 0.0496 0.0
C271 C 0.16825 0.42495 0.07112 0.0
C272 C 0.14163 0.41023 0.02493 0.0
C273 C 0.13865 0.40759 0.06866 0.0
C274 C 0.09916 0.37994 1.00061 0.0
C275 C 0.12896 0.39992 0.95719 0.0
N276 N 0.12645 0.40077 0.0461 0.0
N277 N 0.14085 0.40997 0.97934 0.0
H278 H 0.09262 0.15292 0.56742 0.0
H279 H 0.22909 0.06943 0.48113 0.0
H280 H 0.18532 0.11847 0.59638 0.0
H281 H 0.13693 0.11106 0.45658 0.0
H282 H 0.2134 0.08243 0.52385 0.0
H283 H 0.10796 0.13237 0.52726 0.0
C284 C 0.11629 0.1409 0.56534 0.0
C285 C 0.13786 0.13774 0.58528 0.0
C286 C 0.19668 0.08852 0.50903 0.0
C287 C 0.15592 0.11414 0.53884 0.0
C288 C 0.20559 0.0811 0.48469 0.0
C289 C 0.18443 0.08941 0.4652 0.0
C290 C 0.16637 0.10409 0.51374 0.0
C291 C 0.15426 0.10445 0.47087 0.0
C292 C 0.12509 0.12911 0.54229 0.0
C293 C 0.16801 0.12147 0.58145 0.0
N294 N 0.14627 0.1113 0.49449 0.0
N295 N 0.17634 0.1105 0.55855 0.0
H296 H 0.59519 0.90956 0.07812 0.0
H297 H 0.71301 0.93459 0.96167 0.0
H298 H 0.70044 0.91381 0.08528 0.0
H299 H 0.61292 0.90042 0.95813 0.0
H300 H 0.70803 0.93834 1.00661 0.0
H301 H 0.60047 0.91982 0.03411 0.0
C302 C 0.61944 0.91355 0.07047 0.0
C303 C 0.64743 0.91073 0.08535 0.0
C304 C 0.68716 0.93023 0.99593 0.0
C305 C 0.65375 0.92158 0.03466 0.0
C306 C 0.68992 0.92809 0.9703 0.0
C307 C 0.66337 0.91696 0.95608 0.0
C308 C 0.65747 0.92167 1.00741 0.0
C309 C 0.63411 0.90886 0.96829 0.0
C310 C 0.62246 0.91907 0.04527 0.0
C311 C 0.67824 0.91606 0.07447 0.0
N312 N 0.63197 0.9114 0.99317 0.0
N313 N 0.68066 0.92076 0.04963 0.0
H314 H 0.63492 0.59561 0.5717 0.0
H315 H 0.70799 0.59864 0.43571 0.0
H316 H 0.73358 0.56253 0.55605 0.0
H317 H 0.60552 0.61139 0.45359 0.0
H318 H 0.71828 0.58134 0.47854 0.0
H319 H 0.62397 0.59857 0.52778 0.0
C320 C 0.65428 0.58878 0.55899 0.0
C321 C 0.68528 0.57901 0.56761 0.0
C322 C 0.69347 0.58736 0.4729 0.0
C323 C 0.673 0.58266 0.51691 0.0
C324 C 0.68757 0.59698 0.44843 0.0
C325 C 0.65591 0.60678 0.44114 0.0
C326 C 0.66752 0.58769 0.49005 0.0
C327 C 0.6304 0.60447 0.45845 0.0
C328 C 0.64799 0.59037 0.53382 0.0
C329 C 0.70932 0.5702 0.55019 0.0
N330 N 0.63682 0.59558 0.48204 0.0
N331 N 0.70283 0.57264 0.52564 0.0
H332 H 0.90644 0.60044 0.95778 0.0
H333 H 0.83741 0.59425 0.09595 0.0
H334 H 0.81266 0.55813 0.97706 0.0
H335 H 0.9347 0.62675 0.07615 0.0
H336 H 0.82903 0.57647 0.05316 0.0
H337 H 0.91825 0.60724 1.0016 0.0
C338 C 0.8884 0.59246 0.97118 0.0
C339 C 0.85846 0.57888 0.96363 0.0
C340 C 0.85237 0.58707 0.05832 0.0
C341 C 0.87173 0.58662 1.01395 0.0
C342 C 0.85723 0.59691 0.08279 0.0
C343 C 0.88665 0.61225 0.08956 0.0
C344 C 0.87713 0.59271 0.04065 0.0
C345 C 0.91143 0.61541 0.07167 0.0
C346 C 0.89515 0.59626 0.99625 0.0
C347 C 0.83605 0.56886 0.98194 0.0
N348 N 0.906 0.60611 0.04809 0.0
N349 N 0.84303 0.57313 1.00617 0.0
H350 H 0.80491 0.93501 0.42693 0.0
H351 H 0.87451 0.96081 0.56256 0.0
H352 H 0.90732 0.93512 0.44662 0.0
H353 H 0.77106 0.96732 0.54641 0.0
H354 H 0.8863 0.95881 0.5188 0.0
H355 H 0.79122 0.95468 0.46862 0.0
C356 C 0.82452 0.94026 0.43974 0.0
C357 C 0.85728 0.93342 0.43341 0.0
C358 C 0.86095 0.96095 0.52464 0.0
C359 C 0.84192 0.95512 0.48101 0.0
C360 C 0.8542 0.96203 0.54973 0.0
C361 C 0.82172 0.96387 0.55819 0.0
C362 C 0.83505 0.96111 0.5076 0.0
C363 C 0.79647 0.96582 0.54065 0.0
C364 C 0.81671 0.95112 0.46359 0.0
C365 C 0.88174 0.93997 0.4508 0.0
N366 N 0.80361 0.96387 0.51614 0.0
N367 N 0.87356 0.95009 0.47377 0.0
H368 H 0.17679 0.30998 0.16515 0.0
H369 H 0.35281 0.22009 0.16578 0.0
H370 H 0.26761 0.36074 0.14981 0.0
H371 H 0.26169 0.16718 0.15762 0.0
H372 H 0.32188 0.27233 0.16605 0.0
H373 H 0.20752 0.25769 0.16834 0.0
C374 C 0.20316 0.31017 0.16255 0.0
C375 C 0.21958 0.33979 0.15706 0.0
C376 C 0.30868 0.24925 0.16427 0.0
C377 C 0.25491 0.28016 0.1609 0.0
C378 C 0.32631 0.21942 0.16423 0.0
C379 C 0.30987 0.18918 0.16154 0.0
C380 C 0.2743 0.24887 0.16194 0.0
C381 C 0.27545 0.18988 0.15955 0.0
C382 C 0.22067 0.28032 0.16431 0.0
C383 C 0.25383 0.33851 0.15388 0.0
N384 N 0.25884 0.21918 0.15982 0.0
N385 N 0.27031 0.30928 0.1559 0.0
H386 H 0.2709 0.38892 0.67068 0.0
H387 H 0.17362 0.25129 0.59477 0.0
H388 H 0.31381 0.32141 0.61821 0.0
H389 H 0.12913 0.30594 0.65401 0.0
H390 H 0.22185 0.28678 0.5972 0.0
H391 H 0.21622 0.36727 0.66016 0.0
C392 C 0.26882 0.36976 0.6569 0.0
C393 C 0.297 0.35657 0.64562 0.0
C394 C 0.20132 0.29165 0.60936 0.0
C395 C 0.23486 0.33224 0.63325 0.0
C396 C 0.17365 0.27165 0.6077 0.0
C397 C 0.14739 0.27618 0.62394 0.0
C398 C 0.20312 0.31578 0.62788 0.0
C399 C 0.1488 0.30223 0.64087 0.0
C400 C 0.23768 0.35749 0.65087 0.0
C401 C 0.29291 0.33195 0.62775 0.0
N402 N 0.17653 0.32082 0.64271 0.0
N403 N 0.26257 0.3206 0.62222 0.0
H404 H 0.26925 0.35047 0.37353 0.0
H405 H 0.27591 0.15351 0.38398 0.0
H406 H 0.35932 0.29458 0.36654 0.0
H407 H 0.18617 0.20836 0.37179 0.0
H408 H 0.30695 0.20486 0.37955 0.0
H409 H 0.23855 0.29876 0.37463 0.0
C410 C 0.28261 0.3273 0.37214 0.0
C411 C 0.31698 0.3269 0.37001 0.0
C412 C 0.28049 0.20564 0.37775 0.0
C413 C 0.28183 0.26741 0.37146 0.0
C414 C 0.2627 0.17635 0.38038 0.0
C415 C 0.22831 0.17661 0.37834 0.0
C416 C 0.26382 0.23556 0.37332 0.0
C417 C 0.21261 0.20695 0.37351 0.0
C418 C 0.26501 0.29776 0.37271 0.0
C419 C 0.33286 0.29608 0.36816 0.0
N420 N 0.23046 0.23522 0.37132 0.0
N421 N 0.31518 0.26755 0.36913 0.0
H422 H 0.30596 0.21642 0.90288 0.0
H423 H 0.11006 0.20459 0.89932 0.0
H424 H 0.25595 0.13413 0.86929 0.0
H425 H 0.16513 0.28679 0.92779 0.0
H426 H 0.16196 0.17414 0.89289 0.0
H427 H 0.25363 0.23884 0.91584 0.0
C428 C 0.28391 0.20304 0.89807 0.0
C429 C 0.28547 0.17341 0.88473 0.0
C430 C 0.16255 0.19858 0.90098 0.0
C431 C 0.22477 0.19922 0.89978 0.0
C432 C 0.13298 0.21572 0.90494 0.0
C433 C 0.13351 0.24814 0.91411 0.0
C434 C 0.19252 0.2141 0.90639 0.0
C435 C 0.16375 0.26184 0.92064 0.0
C436 C 0.25387 0.21587 0.90563 0.0
C437 C 0.25588 0.15719 0.87936 0.0
N438 N 0.19196 0.24488 0.9165 0.0
N439 N 0.22664 0.1704 0.88681 0.0
H440 H 0.73263 0.81629 0.89855 0.0
H441 H 0.70327 0.61963 0.8947 0.0
H442 H 0.63932 0.7726 0.88025 0.0
H443 H 0.7956 0.66599 0.91199 0.0
H444 H 0.67778 0.67496 0.89201 0.0
H445 H 0.75506 0.76084 0.90552 0.0
C446 C 0.71686 0.79507 0.89595 0.0
C447 C 0.68409 0.7992 0.88869 0.0
C448 C 0.70357 0.67289 0.89658 0.0
C449 C 0.70957 0.73541 0.89676 0.0
C450 C 0.71802 0.64132 0.89827 0.0
C451 C 0.75165 0.63817 0.90335 0.0
C452 C 0.72293 0.70132 0.9001 0.0
C453 C 0.76967 0.66717 0.90771 0.0
C454 C 0.72964 0.76334 0.9 0.0
C455 C 0.66478 0.77066 0.88575 0.0
N456 N 0.75518 0.69736 0.90585 0.0
N457 N 0.6778 0.74002 0.88973 0.0
H458 H 0.68616 0.70716 0.45156 0.0
H459 H 0.81628 0.79019 0.37487 0.0
H460 H 0.66077 0.78166 0.39792 0.0
H461 H 0.83473 0.80021 0.45255 0.0
H462 H 0.76042 0.77264 0.384 0.0
H463 H 0.74069 0.73223 0.45582 0.0
C464 C 0.69143 0.73001 0.44182 0.0
C465 C 0.6691 0.74266 0.42447 0.0
C466 C 0.77681 0.77832 0.39907 0.0
C467 C 0.7313 0.76994 0.42828 0.0
C468 C 0.80875 0.78768 0.39393 0.0
C469 C 0.82994 0.7965 0.41301 0.0
C470 C 0.76597 0.77747 0.42349 0.0
C471 C 0.81905 0.79312 0.43741 0.0
C472 C 0.72259 0.74397 0.44406 0.0
C473 C 0.67724 0.77153 0.41167 0.0
N474 N 0.78744 0.78389 0.44208 0.0
N475 N 0.70818 0.78362 0.41321 0.0
H476 H 0.84556 0.82103 0.63335 0.0
H477 H 0.67815 0.7194 0.63436 0.0
H478 H 0.75008 0.8645 0.62032 0.0
H479 H 0.77301 0.6714 0.63206 0.0
H480 H 0.70486 0.7728 0.62963 0.0
H481 H 0.82039 0.76599 0.63307 0.0
C482 C 0.81939 0.81902 0.63024 0.0
C483 C 0.79988 0.84747 0.62699 0.0
C484 C 0.71991 0.75064 0.63001 0.0
C485 C 0.77099 0.78471 0.62683 0.0
C486 C 0.70466 0.72008 0.6328 0.0
C487 C 0.72339 0.69087 0.63372 0.0
C488 C 0.75427 0.75221 0.62838 0.0
C489 C 0.75764 0.69333 0.63143 0.0
C490 C 0.80507 0.78761 0.63007 0.0
C491 C 0.76612 0.84335 0.623 0.0
N492 N 0.77205 0.72354 0.62906 0.0
N493 N 0.75277 0.81264 0.62322 0.0
H494 H 0.84877 0.73655 0.07778 0.0
H495 H 0.67616 0.74572 0.14197 0.0
H496 H 0.83415 0.75348 0.15522 0.0
H497 H 0.68918 0.80995 0.07932 0.0
H498 H 0.7337 0.72856 0.13845 0.0
H499 H 0.79019 0.75016 0.07068 0.0
C500 C 0.83362 0.74458 0.09305 0.0
C501 C 0.84622 0.74455 0.11707 0.0
C502 C 0.72355 0.74545 0.12488 0.0
C503 C 0.77971 0.75741 0.10939 0.0
C504 C 0.6906 0.75463 0.12656 0.0
C505 C 0.67795 0.77881 0.11068 0.0
C506 C 0.74376 0.76047 0.10716 0.0
C507 C 0.69809 0.79073 0.0916 0.0
C508 C 0.80024 0.7516 0.08907 0.0
C509 C 0.82539 0.75374 0.13641 0.0
N510 N 0.73035 0.78185 0.09054 0.0
N511 N 0.79304 0.75912 0.13224 0.0
H512 H 0.28842 0.03642 0.34235 0.0
H513 H 0.24811 0.04319 0.19819 0.0
H514 H 0.19113 0.05029 0.31267 0.0
H515 H 0.34397 0.06124 0.22891 0.0
H516 H 0.22758 0.03084 0.23969 0.0
H517 H 0.3096 0.03018 0.3003 0.0
C518 C 0.27146 0.03745 0.32704 0.0
C519 C 0.23811 0.04438 0.3309 0.0
C520 C 0.2532 0.03712 0.23723 0.0
C521 C 0.262 0.03733 0.28301 0.0
C522 C 0.26491 0.04408 0.21359 0.0
C523 C 0.29762 0.05378 0.2102 0.0
C524 C 0.27448 0.03953 0.25748 0.0
C525 C 0.31841 0.05443 0.23078 0.0
C526 C 0.28354 0.03409 0.30308 0.0
C527 C 0.21714 0.04551 0.31043 0.0
N528 N 0.30645 0.04763 0.25355 0.0
N529 N 0.22946 0.04231 0.28736 0.0
H530 H 0.40395 0.34973 0.73388 0.0
H531 H 0.39327 0.17119 0.79538 0.0
H532 H 0.41923 0.26 0.69249 0.0
H533 H 0.41666 0.2586 0.83712 0.0
H534 H 0.39842 0.20352 0.75739 0.0
H535 H 0.40439 0.3171 0.77193 0.0
C536 C 0.40753 0.32318 0.73279 0.0
C537 C 0.41151 0.30757 0.70995 0.0
C538 C 0.40263 0.21556 0.77486 0.0
C539 C 0.41164 0.27006 0.75342 0.0
C540 C 0.39957 0.19716 0.79656 0.0
C541 C 0.40449 0.21222 0.81948 0.0
C542 C 0.41008 0.24942 0.77607 0.0
C543 C 0.41274 0.24595 0.81986 0.0
C544 C 0.40788 0.3046 0.75453 0.0
C545 C 0.41616 0.27308 0.70969 0.0
N546 N 0.41496 0.26349 0.7985 0.0
N547 N 0.41576 0.25545 0.73107 0.0
H548 H 0.29248 0.47055 0.18602 0.0
H549 H 0.25904 0.47863 0.33118 0.0
H550 H 0.19624 0.47714 0.21889 0.0
H551 H 0.35049 0.44621 0.29883 0.0
H552 H 0.23849 0.49176 0.28992 0.0
H553 H 0.31687 0.47584 0.22714 0.0
C554 C 0.27657 0.47394 0.2018 0.0
C555 C 0.24238 0.47296 0.1992 0.0
C556 C 0.26318 0.48208 0.29192 0.0
C557 C 0.26983 0.47878 0.246 0.0
C558 C 0.2749 0.47462 0.31545 0.0
C559 C 0.30628 0.46078 0.31841 0.0
C560 C 0.28309 0.47588 0.27127 0.0
C561 C 0.3259 0.4563 0.29738 0.0
C562 C 0.29042 0.47669 0.22524 0.0
C563 C 0.22276 0.47728 0.2202 0.0
N564 N 0.3139 0.46359 0.2747 0.0
N565 N 0.23675 0.47969 0.24274 0.0
H566 H 0.11963 0.17428 0.73543 0.0
H567 H 0.09363 0.34399 0.80799 0.0
H568 H 0.09367 0.26603 0.69925 0.0
H569 H 0.07361 0.24864 0.84081 0.0
H570 H 0.10375 0.31641 0.76853 0.0
H571 H 0.11341 0.2021 0.77542 0.0
C572 C 0.11289 0.20025 0.73593 0.0
C573 C 0.10679 0.21783 0.71413 0.0
C574 C 0.09705 0.30164 0.78442 0.0
C575 C 0.10009 0.24966 0.75936 0.0
C576 C 0.09125 0.31734 0.80686 0.0
C577 C 0.0824 0.29863 0.82759 0.0
C578 C 0.09466 0.26699 0.7829 0.0
C579 C 0.07991 0.26408 0.82519 0.0
C580 C 0.1092 0.21603 0.75864 0.0
C581 C 0.09814 0.25147 0.71569 0.0
N582 N 0.08619 0.24934 0.80328 0.0
N583 N 0.09514 0.26631 0.7379 0.0
H584 H 0.68895 0.8715 0.8022 0.0
H585 H 0.7461 0.99846 0.69911 0.0
H586 H 0.7182 0.9704 0.82184 0.0
H587 H 0.78185 0.89779 0.69983 0.0
H588 H 0.72225 0.98933 0.74036 0.0
H589 H 0.70964 0.88139 0.76023 0.0
C590 C 0.6995 0.89532 0.79762 0.0
C591 C 0.70213 0.92008 0.81552 0.0
C592 C 0.73524 0.96931 0.73133 0.0
C593 C 0.72488 0.93177 0.76762 0.0
C594 C 0.74869 0.97444 0.70786 0.0
C595 C 0.76614 0.94891 0.6962 0.0
C596 C 0.73837 0.93814 0.74271 0.0
C597 C 0.76886 0.91823 0.70833 0.0
C598 C 0.71133 0.90089 0.77378 0.0
C599 C 0.71603 0.95055 0.80863 0.0
N600 N 0.75488 0.91358 0.73081 0.0
N601 N 0.72664 0.95566 0.78517 0.0
H602 H 0.62992 0.75852 0.33757 0.0
H603 H 0.64196 0.76592 0.19268 0.0
H604 H 0.66642 0.6756 0.29575 0.0
H605 H 0.65537 0.85372 0.2363 0.0
H606 H 0.64591 0.73206 0.22998 0.0
H607 H 0.63395 0.79346 0.30075 0.0
C608 C 0.6388 0.74763 0.32062 0.0
C609 C 0.64768 0.71396 0.31973 0.0
C610 C 0.64825 0.75869 0.23141 0.0
C611 C 0.65199 0.75392 0.2774 0.0
C612 C 0.64584 0.77809 0.21016 0.0
C613 C 0.64821 0.81276 0.21139 0.0
C614 C 0.65223 0.77399 0.25431 0.0
C615 C 0.6535 0.82711 0.23451 0.0
C616 C 0.64128 0.7677 0.29967 0.0
C617 C 0.65932 0.70137 0.2973 0.0
N618 N 0.65483 0.8077 0.25513 0.0
N619 N 0.6607 0.72123 0.27695 0.0
H620 H 0.81182 0.52055 0.81908 0.0
H621 H 0.73514 0.62919 0.71371 0.0
H622 H 0.82784 0.6259 0.81675 0.0
H623 H 0.77017 0.5303 0.69887 0.0
H624 H 0.76433 0.62799 0.75312 0.0
H625 H 0.7929 0.52257 0.7763 0.0
C626 C 0.81194 0.54401 0.80932 0.0
C627 C 0.82167 0.57306 0.82127 0.0
C628 C 0.7658 0.60667 0.74113 0.0
C629 C 0.79888 0.57576 0.77278 0.0
C630 C 0.74894 0.6072 0.71876 0.0
C631 C 0.75007 0.5797 0.70305 0.0
C632 C 0.78327 0.57815 0.74816 0.0
C633 C 0.76862 0.55201 0.71043 0.0
C634 C 0.8011 0.54515 0.78498 0.0
C635 C 0.82097 0.60292 0.80801 0.0
N636 N 0.78411 0.55174 0.73261 0.0
N637 N 0.80914 0.60363 0.78456 0.0
H638 H 0.89653 0.77547 0.33797 0.0
H639 H 0.8964 0.76148 0.19251 0.0
H640 H 0.86989 0.85757 0.29094 0.0
H641 H 0.88146 0.67587 0.23884 0.0
H642 H 0.89156 0.79707 0.22846 0.0
H643 H 0.89603 0.73884 0.30225 0.0
C644 C 0.89067 0.78587 0.32011 0.0
C645 C 0.88348 0.81981 0.31746 0.0
C646 C 0.88918 0.77055 0.23081 0.0
C647 C 0.88301 0.77779 0.27641 0.0
C648 C 0.89214 0.75011 0.21031 0.0
C649 C 0.88958 0.71553 0.21267 0.0
C650 C 0.88424 0.75645 0.25412 0.0
C651 C 0.88361 0.70236 0.23618 0.0
C652 C 0.89017 0.76482 0.29976 0.0
C653 C 0.87567 0.83166 0.29387 0.0
N654 N 0.88154 0.72282 0.25607 0.0
N655 N 0.87598 0.81076 0.27423 0.0
H656 H 0.46207 0.05851 0.17512 0.0
H657 H 0.5012 0.87165 0.13458 0.0
H658 H 0.3909 0.99539 0.14018 0.0
H659 H 0.56792 0.93306 0.1756 0.0
H660 H 0.45948 0.91552 0.13761 0.0
H661 H 0.50079 0.01208 0.17598 0.0
C662 C 0.45457 0.03492 0.16762 0.0
C663 C 0.42319 0.03095 0.1575 0.0
C664 C 0.48318 0.91921 0.14612 0.0
C665 C 0.46743 0.97752 0.15845 0.0
C666 C 0.50693 0.89408 0.14451 0.0
C667 C 0.53821 0.89869 0.1547 0.0
C668 C 0.49084 0.94914 0.15795 0.0
C669 C 0.54428 0.92841 0.16726 0.0
C670 C 0.47666 0.00834 0.16818 0.0
C671 C 0.41483 0.99968 0.14814 0.0
N672 N 0.52098 0.95249 0.16836 0.0
N673 N 0.43682 0.97425 0.14876 0.0
H674 H 0.63432 0.49822 0.64708 0.0
H675 H 0.44275 0.48405 0.67996 0.0
H676 H 0.57525 0.57974 0.67343 0.0
H677 H 0.5011 0.40253 0.65272 0.0
H678 H 0.49203 0.51844 0.68046 0.0
H679 H 0.58684 0.46168 0.65176 0.0
C680 C 0.61149 0.5084 0.65402 0.0
C681 C 0.60879 0.54217 0.65973 0.0
C682 C 0.49409 0.49297 0.6745 0.0
C683 C 0.55426 0.50052 0.66504 0.0
C684 C 0.46593 0.47329 0.67425 0.0
C685 C 0.46767 0.44037 0.66617 0.0
C686 C 0.52427 0.47969 0.66657 0.0
C687 C 0.49848 0.42781 0.65901 0.0
C688 C 0.58435 0.48754 0.65665 0.0
C689 C 0.57852 0.55393 0.66866 0.0
N690 N 0.52546 0.4475 0.65926 0.0
N691 N 0.55248 0.53322 0.67092 0.0
H692 H 0.07635 0.47823 0.17803 0.0
H693 H 0.03056 0.65803 0.12569 0.0
H694 H 0.14187 0.53438 0.13155 0.0
H695 H 0.97552 0.6069 0.182 0.0
H696 H 0.07304 0.61467 0.12835 0.0
H697 H 0.03951 0.52605 0.17979 0.0
C698 C 0.083 0.5006 0.1682 0.0
C699 C 0.1122 0.50218 0.15456 0.0
C700 C 0.05182 0.61326 0.14032 0.0
C701 C 0.07008 0.55722 0.15647 0.0
C702 C 0.02773 0.63813 0.13893 0.0
C703 C 0.9993 0.63593 0.15345 0.0
C704 C 0.04727 0.58608 0.15627 0.0
C705 C 0.99681 0.60944 0.17019 0.0
C706 C 0.06203 0.52801 0.16929 0.0
C707 C 0.1196 0.53199 0.14228 0.0
N708 N 0.02021 0.58547 0.17094 0.0
N709 N 0.0986 0.55824 0.1434 0.0
H710 H 0.86042 0.05055 0.63152 0.0
H711 H 0.04461 0.10257 0.66423 0.0
H712 H 0.93389 0.98376 0.66059 0.0
H713 H 0.97693 0.16834 0.62707 0.0
H714 H 1.00197 0.06084 0.66663 0.0
H715 H 0.90034 0.09572 0.63329 0.0
C716 C 0.88483 0.04541 0.63847 0.0
C717 C 0.89384 0.01322 0.64583 0.0
C718 C 0.99629 0.08439 0.658 0.0
C719 C 0.9396 0.0648 0.64784 0.0
C720 C 0.02069 0.10836 0.65662 0.0
C721 C 0.01449 0.13905 0.64526 0.0
C722 C 0.96523 0.09091 0.64792 0.0
C723 C 0.98286 0.14501 0.63592 0.0
C724 C 0.90762 0.07121 0.63939 0.0
C725 C 0.92584 1.00807 0.65462 0.0
N726 N 0.95942 0.12108 0.63735 0.0
N727 N 0.9475 0.03352 0.65531 0.0
H728 H 0.50331 0.64442 0.3895 0.0
H729 H 0.47143 0.45432 0.35546 0.0
H730 H 0.57625 0.58086 0.35621 0.0
H731 H 0.39736 0.51975 0.38521 0.0
H732 H 0.50977 0.50087 0.35413 0.0
H733 H 0.46324 0.59977 0.38601 0.0
C734 C 0.51081 0.62126 0.38119 0.0
C735 C 0.54326 0.61637 0.37328 0.0
C736 C 0.48507 0.50502 0.36087 0.0
C737 C 0.49765 0.56497 0.3695 0.0
C738 C 0.46322 0.47842 0.36169 0.0
C739 C 0.43117 0.48304 0.37056 0.0
C740 C 0.47481 0.53643 0.36903 0.0
C741 C 0.42185 0.5149 0.3783 0.0
C742 C 0.48796 0.59569 0.37928 0.0
C743 C 0.55157 0.58575 0.36268 0.0
N744 N 0.44356 0.54028 0.37743 0.0
N745 N 0.52901 0.56117 0.36128 0.0
H746 H 0.94771 0.32807 0.92883 0.0
H747 H 0.8585 0.47605 0.85635 0.0
H748 H 0.98697 0.38052 0.86615 0.0
H749 H 0.82833 0.44613 0.92906 0.0
H750 H 0.89708 0.42978 0.85516 0.0
H751 H 0.89682 0.36111 0.92529 0.0
C752 C 0.94543 0.34614 0.91414 0.0
C753 C 0.97171 0.35185 0.89791 0.0
C754 C 0.88167 0.43281 0.87126 0.0
C755 C 0.91377 0.38917 0.8936 0.0
C756 C 0.85942 0.45904 0.87182 0.0
C757 C 0.84027 0.46476 0.8928 0.0
C758 C 0.88539 0.4124 0.89205 0.0
C759 C 0.84253 0.44225 0.91246 0.0
C760 C 0.91649 0.36499 0.91218 0.0
C761 C 0.96754 0.37557 0.87926 0.0
N762 N 0.86521 0.41726 0.91182 0.0
N763 N 0.93928 0.39331 0.87768 0.0
H764 H 0.9589 0.94055 0.35637 0.0
H765 H 0.13894 0.98712 0.40285 0.0
H766 H 0.01364 0.87881 0.4069 0.0
H767 H 0.07437 0.05437 0.36409 0.0
H768 H 0.0963 0.94462 0.40123 0.0
H769 H 0.00432 0.97927 0.35517 0.0
C770 C 0.98061 0.93493 0.36711 0.0
C771 C 0.98228 0.90641 0.38194 0.0
C772 C 0.09153 0.96867 0.39308 0.0
C773 C 0.03461 0.95111 0.38071 0.0
C774 C 0.11584 0.99296 0.39397 0.0
C775 C 0.11019 0.02445 0.38365 0.0
C776 C 0.06146 0.97582 0.38162 0.0
C777 C 0.0798 0.03055 0.37238 0.0
C778 C 0.00655 0.95722 0.36646 0.0
C779 C 0.01124 0.9005 0.39527 0.0
N780 N 0.05665 1.00648 0.37166 0.0
N781 N 0.03624 0.9228 0.39445 0.0
H782 H 0.53827 0.91995 0.85941 0.0
H783 H 0.4849 0.10972 0.87315 0.0
H784 H 0.60577 0.99785 0.87845 0.0
H785 H 0.41861 0.03221 0.85112 0.0
H786 H 0.52996 0.06973 0.87319 0.0
H787 H 0.49481 0.96112 0.85462 0.0
C788 C 0.54402 0.94575 0.86254 0.0
C789 C 0.57576 0.95541 0.86948 0.0
C790 C 0.50562 0.06148 0.86819 0.0
C791 C 0.52586 1.00282 0.86401 0.0
C792 C 0.47982 0.08433 0.86813 0.0
C793 C 0.4478 0.0743 0.86225 0.0
C794 C 0.49944 0.02824 0.86244 0.0
C795 C 0.44283 0.04107 0.85582 0.0
C796 C 0.51913 0.96928 0.85975 0.0
C797 C 0.58167 0.98924 0.87315 0.0
N798 N 0.46833 0.01921 0.85625 0.0
N799 N 0.55692 0.01171 0.87048 0.0
loop_
_geom_bond_atom_site_label_1
_geom_bond_atom_site_label_2
_geom_bond_distance
_geom_bond_site_symmetry_2
_ccdc_geom_bond_type
C0 O2 1.247 . S
C0 O4 1.258 . S
C1 O8 1.247 . S
C1 O9 1.258 . S
O2 C0 1.247 . S
O2 Zn3 2.028 . S
Zn3 O2 2.028 . S
Zn3 O7 2.035 . S
Zn3 O9 2.035 . S
Zn3 O10 2.028 . S
O4 C0 1.258 . S
O4 Zn5 2.035 . S
Zn5 O4 2.035 . S
Zn5 O6 2.028 . S
Zn5 O8 2.028 . S
Zn5 O11 2.035 . S
O6 Zn5 2.028 . S
O6 C12 1.247 . S
O7 Zn3 2.035 . S
O7 C12 1.258 . S
O8 C1 1.247 . S
O8 Zn5 2.028 . S
O9 C1 1.258 . S
O9 Zn3 2.035 . S
O10 Zn3 2.028 . S
O10 C13 1.247 . S
O11 Zn5 2.035 . S
O11 C13 1.258 . S
C12 O6 1.247 . S
C12 O7 1.258 . S
C13 O10 1.247 . S
C13 O11 1.258 . S
C14 O16 1.247 . S
C14 O18 1.258 . S
C15 O22 1.247 . S
C15 O23 1.258 . S
O16 C14 1.247 . S
O16 Zn17 2.028 . S
Zn17 O16 2.028 . S
Zn17 O21 2.035 . S
Zn17 O23 2.035 . S
Zn17 O24 2.028 . S
O18 C14 1.258 . S
O18 Zn19 2.035 . S
Zn19 O18 2.035 . S
Zn19 O20 2.028 . S
Zn19 O22 2.028 . S
Zn19 O25 2.035 . S
O20 Zn19 2.028 . S
O20 C26 1.247 . S
O21 Zn17 2.035 . S
O21 C26 1.258 . S
O22 C15 1.247 . S
O22 Zn19 2.028 . S
O23 C15 1.258 . S
O23 Zn17 2.035 . S
O24 Zn17 2.028 . S
O24 C27 1.247 . S
O25 Zn19 2.035 . S
O25 C27 1.258 . S
C26 O20 1.247 . S
C26 O21 1.258 . S
C27 O24 1.247 . S
C27 O25 1.258 . S
C28 O30 1.247 . S
C28 O32 1.258 . S
C29 O36 1.247 . S
C29 O37 1.258 . S
O30 C28 1.247 . S
O30 Zn31 2.028 . S
Zn31 O30 2.028 . S
Zn31 O35 2.035 . S
Zn31 O37 2.035 . S
Zn31 O38 2.028 . S
O32 C28 1.258 . S
O32 Zn33 2.035 . S
Zn33 O32 2.035 . S
Zn33 O34 2.028 . S
Zn33 O36 2.028 . S
Zn33 O39 2.035 . S
O34 Zn33 2.028 . S
O34 C40 1.247 . S
O35 Zn31 2.035 . S
O35 C40 1.258 . S
O36 C29 1.247 . S
O36 Zn33 2.028 . S
O37 C29 1.258 . S
O37 Zn31 2.035 . S
O38 Zn31 2.028 . S
O38 C41 1.247 . S
O39 Zn33 2.035 . S
O39 C41 1.258 . S
C40 O34 1.247 . S
C40 O35 1.258 . S
C41 O38 1.247 . S
C41 O39 1.258 . S
C42 O44 1.247 . S
C42 O46 1.258 . S
C43 O50 1.247 . S
C43 O51 1.258 . S
O44 C42 1.247 . S
O44 Zn45 2.028 . S
Zn45 O44 2.028 . S
Zn45 O49 2.035 . S
Zn45 O51 2.035 . S
Zn45 O52 2.028 . S
O46 C42 1.258 . S
O46 Zn47 2.035 . S
Zn47 O46 2.035 . S
Zn47 O48 2.028 . S
Zn47 O50 2.028 . S
Zn47 O53 2.035 . S
O48 Zn47 2.028 . S
O48 C54 1.247 . S
O49 Zn45 2.035 . S
O49 C54 1.258 . S
O50 C43 1.247 . S
O50 Zn47 2.028 . S
O51 C43 1.258 . S
O51 Zn45 2.035 . S
O52 Zn45 2.028 . S
O52 C55 1.247 . S
O53 Zn47 2.035 . S
O53 C55 1.258 . S
C54 O48 1.247 . S
C54 O49 1.258 . S
C55 O52 1.247 . S
C55 O53 1.258 . S
C56 O58 1.247 . S
C56 O60 1.258 . S
C57 O64 1.247 . S
C57 O65 1.258 . S
O58 C56 1.247 . S
O58 Zn59 2.028 . S
Zn59 O58 2.028 . S
Zn59 O63 2.035 . S
Zn59 O65 2.035 . S
Zn59 O66 2.028 . S
O60 C56 1.258 . S
O60 Zn61 2.035 . S
Zn61 O60 2.035 . S
Zn61 O62 2.028 . S
Zn61 O64 2.028 . S
Zn61 O67 2.035 . S
O62 Zn61 2.028 . S
O62 C68 1.247 . S
O63 Zn59 2.035 . S
O63 C68 1.258 . S
O64 C57 1.247 . S
O64 Zn61 2.028 . S
O65 C57 1.258 . S
O65 Zn59 2.035 . S
O66 Zn59 2.028 . S
O66 C69 1.247 . S
O67 Zn61 2.035 . S
O67 C69 1.258 . S
C68 O62 1.247 . S
C68 O63 1.258 . S
C69 O66 1.247 . S
C69 O67 1.258 . S
C70 O72 1.247 . S
C70 O74 1.258 . S
C71 O78 1.247 . S
C71 O79 1.258 . S
O72 C70 1.247 . S
O72 Zn73 2.028 . S
Zn73 O72 2.028 . S
Zn73 O77 2.035 . S
Zn73 O79 2.035 . S
Zn73 O80 2.028 . S
O74 C70 1.258 . S
O74 Zn75 2.035 . S
Zn75 O74 2.035 . S
Zn75 O76 2.028 . S
Zn75 O78 2.028 . S
Zn75 O81 2.035 . S
O76 Zn75 2.028 . S
O76 C82 1.247 . S
O77 Zn73 2.035 . S
O77 C82 1.258 . S
O78 C71 1.247 . S
O78 Zn75 2.028 . S
O79 C71 1.258 . S
O79 Zn73 2.035 . S
O80 Zn73 2.028 . S
O80 C83 1.247 . S
O81 Zn75 2.035 . S
O81 C83 1.258 . S
C82 O76 1.247 . S
C82 O77 1.258 . S
C83 O80 1.247 . S
C83 O81 1.258 . S
C84 O86 1.247 . S
C84 O88 1.258 . S
C85 O92 1.247 . S
C85 O93 1.258 . S
O86 C84 1.247 . S
O86 Zn87 2.028 . S
Zn87 O86 2.028 . S
Zn87 O91 2.035 . S
Zn87 O93 2.035 . S
Zn87 O94 2.028 . S
O88 C84 1.258 . S
O88 Zn89 2.035 . S
Zn89 O88 2.035 . S
Zn89 O90 2.028 . S
Zn89 O92 2.028 . S
Zn89 O95 2.035 . S
O90 Zn89 2.028 . S
O90 C96 1.247 . S
O91 Zn87 2.035 . S
O91 C96 1.258 . S
O92 C85 1.247 . S
O92 Zn89 2.028 . S
O93 C85 1.258 . S
O93 Zn87 2.035 . S
O94 Zn87 2.028 . S
O94 C97 1.247 . S
O95 Zn89 2.035 . S
O95 C97 1.258 . S
C96 O90 1.247 . S
C96 O91 1.258 . S
C97 O94 1.247 . S
C97 O95 1.258 . S
C98 O100 1.247 . S
C98 O102 1.258 . S
C99 O106 1.247 . S
C99 O107 1.258 . S
O100 C98 1.247 . S
O100 Zn101 2.028 . S
Zn101 O100 2.028 . S
Zn101 O105 2.035 . S
Zn101 O107 2.035 . S
Zn101 O108 2.028 . S
O102 C98 1.258 . S
O102 Zn103 2.035 . S
Zn103 O102 2.035 . S
Zn103 O104 2.028 . S
Zn103 O106 2.028 . S
Zn103 O109 2.035 . S
O104 Zn103 2.028 . S
O104 C110 1.247 . S
O105 Zn101 2.035 . S
O105 C110 1.258 . S
O106 C99 1.247 . S
O106 Zn103 2.028 . S
O107 C99 1.258 . S
O107 Zn101 2.035 . S
O108 Zn101 2.028 . S
O108 C111 1.247 . S
O109 Zn103 2.035 . S
O109 C111 1.258 . S
C110 O104 1.247 . S
C110 O105 1.258 . S
C111 O108 1.247 . S
C111 O109 1.258 . S
C112 O114 1.247 . S
C112 O116 1.258 . S
C113 O120 1.247 . S
C113 O121 1.258 . S
O114 C112 1.247 . S
O114 Zn115 2.028 . S
Zn115 O114 2.028 . S
Zn115 O119 2.035 . S
Zn115 O121 2.035 . S
Zn115 O122 2.028 . S
O116 C112 1.258 . S
O116 Zn117 2.035 . S
Zn117 O116 2.035 . S
Zn117 O118 2.028 . S
Zn117 O120 2.028 . S
Zn117 O123 2.035 . S
O118 Zn117 2.028 . S
O118 C124 1.247 . S
O119 Zn115 2.035 . S
O119 C124 1.258 . S
O120 C113 1.247 . S
O120 Zn117 2.028 . S
O121 C113 1.258 . S
O121 Zn115 2.035 . S
O122 Zn115 2.028 . S
O122 C125 1.247 . S
O123 Zn117 2.035 . S
O123 C125 1.258 . S
C124 O118 1.247 . S
C124 O119 1.258 . S
C125 O122 1.247 . S
C125 O123 1.258 . S
C126 O128 1.247 . S
C126 O130 1.258 . S
C127 O134 1.247 . S
C127 O135 1.258 . S
O128 C126 1.247 . S
O128 Zn129 2.028 . S
Zn129 O128 2.028 . S
Zn129 O133 2.035 . S
Zn129 O135 2.035 . S
Zn129 O136 2.028 . S
O130 C126 1.258 . S
O130 Zn131 2.035 . S
Zn131 O130 2.035 . S
Zn131 O132 2.028 . S
Zn131 O134 2.028 . S
Zn131 O137 2.035 . S
O132 Zn131 2.028 . S
O132 C138 1.247 . S
O133 Zn129 2.035 . S
O133 C138 1.258 . S
O134 C127 1.247 . S
O134 Zn131 2.028 . S
O135 C127 1.258 . S
O135 Zn129 2.035 . S
O136 Zn129 2.028 . S
O136 C139 1.247 . S
O137 Zn131 2.035 . S
O137 C139 1.258 . S
C138 O132 1.247 . S
C138 O133 1.258 . S
C139 O136 1.247 . S
C139 O137 1.258 . S
C140 O142 1.247 . S
C140 O144 1.258 . S
C141 O148 1.247 . S
C141 O149 1.258 . S
O142 C140 1.247 . S
O142 Zn143 2.028 . S
Zn143 O142 2.028 . S
Zn143 O147 2.035 . S
Zn143 O149 2.035 . S
Zn143 O150 2.028 . S
O144 C140 1.258 . S
O144 Zn145 2.035 . S
Zn145 O144 2.035 . S
Zn145 O146 2.028 . S
Zn145 O148 2.028 . S
Zn145 O151 2.035 . S
O146 Zn145 2.028 . S
O146 C152 1.247 . S
O147 Zn143 2.035 . S
O147 C152 1.258 . S
O148 C141 1.247 . S
O148 Zn145 2.028 . S
O149 C141 1.258 . S
O149 Zn143 2.035 . S
O150 Zn143 2.028 . S
O150 C153 1.247 . S
O151 Zn145 2.035 . S
O151 C153 1.258 . S
C152 O146 1.247 . S
C152 O147 1.258 . S
C153 O150 1.247 . S
C153 O151 1.258 . S
C154 O156 1.247 . S
C154 O158 1.258 . S
C155 O162 1.247 . S
C155 O163 1.258 . S
O156 C154 1.247 . S
O156 Zn157 2.028 . S
Zn157 O156 2.028 . S
Zn157 O161 2.035 . S
Zn157 O163 2.035 . S
Zn157 O164 2.028 . S
O158 C154 1.258 . S
O158 Zn159 2.035 . S
Zn159 O158 2.035 . S
Zn159 O160 2.028 . S
Zn159 O162 2.028 . S
Zn159 O165 2.035 . S
O160 Zn159 2.028 . S
O160 C166 1.247 . S
O161 Zn157 2.035 . S
O161 C166 1.258 . S
O162 C155 1.247 . S
O162 Zn159 2.028 . S
O163 C155 1.258 . S
O163 Zn157 2.035 . S
O164 Zn157 2.028 . S
O164 C167 1.247 . S
O165 Zn159 2.035 . S
O165 C167 1.258 . S
C166 O160 1.247 . S
C166 O161 1.258 . S
C167 O164 1.247 . S
C167 O165 1.258 . S
C168 O170 1.247 . S
C168 O172 1.258 . S
C169 O176 1.247 . S
C169 O177 1.258 . S
O170 C168 1.247 . S
O170 Zn171 2.028 . S
Zn171 O170 2.028 . S
Zn171 O175 2.035 . S
Zn171 O177 2.035 . S
Zn171 O178 2.028 . S
O172 C168 1.258 . S
O172 Zn173 2.035 . S
Zn173 O172 2.035 . S
Zn173 O174 2.028 . S
Zn173 O176 2.028 . S
Zn173 O179 2.035 . S
O174 Zn173 2.028 . S
O174 C180 1.247 . S
O175 Zn171 2.035 . S
O175 C180 1.258 . S
O176 C169 1.247 . S
O176 Zn173 2.028 . S
O177 C169 1.258 . S
O177 Zn171 2.035 . S
O178 Zn171 2.028 . S
O178 C181 1.247 . S
O179 Zn173 2.035 . S
O179 C181 1.258 . S
C180 O174 1.247 . S
C180 O175 1.258 . S
C181 O178 1.247 . S
C181 O179 1.258 . S
C182 O184 1.247 . S
C182 O186 1.258 . S
C183 O190 1.247 . S
C183 O191 1.258 . S
O184 C182 1.247 . S
O184 Zn185 2.028 . S
Zn185 O184 2.028 . S
Zn185 O189 2.035 . S
Zn185 O191 2.035 . S
Zn185 O192 2.028 . S
O186 C182 1.258 . S
O186 Zn187 2.035 . S
Zn187 O186 2.035 . S
Zn187 O188 2.028 . S
Zn187 O190 2.028 . S
Zn187 O193 2.035 . S
O188 Zn187 2.028 . S
O188 C194 1.247 . S
O189 Zn185 2.035 . S
O189 C194 1.258 . S
O190 C183 1.247 . S
O190 Zn187 2.028 . S
O191 C183 1.258 . S
O191 Zn185 2.035 . S
O192 Zn185 2.028 . S
O192 C195 1.247 . S
O193 Zn187 2.035 . S
O193 C195 1.258 . S
C194 O188 1.247 . S
C194 O189 1.258 . S
C195 O192 1.247 . S
C195 O193 1.258 . S
C196 O198 1.247 . S
C196 O200 1.258 . S
C197 O204 1.247 . S
C197 O205 1.258 . S
O198 C196 1.247 . S
O198 Zn199 2.028 . S
Zn199 O198 2.028 . S
Zn199 O203 2.035 . S
Zn199 O205 2.035 . S
Zn199 O206 2.028 . S
O200 C196 1.258 . S
O200 Zn201 2.035 . S
Zn201 O200 2.035 . S
Zn201 O202 2.028 . S
Zn201 O204 2.028 . S
Zn201 O207 2.035 . S
O202 Zn201 2.028 . S
O202 C208 1.247 . S
O203 Zn199 2.035 . S
O203 C208 1.258 . S
O204 C197 1.247 . S
O204 Zn201 2.028 . S
O205 C197 1.258 . S
O205 Zn199 2.035 . S
O206 Zn199 2.028 . S
O206 C209 1.247 . S
O207 Zn201 2.035 . S
O207 C209 1.258 . S
C208 O202 1.247 . S
C208 O203 1.258 . S
C209 O206 1.247 . S
C209 O207 1.258 . S
C210 O212 1.247 . S
C210 O214 1.258 . S
C211 O218 1.247 . S
C211 O219 1.258 . S
O212 C210 1.247 . S
O212 Zn213 2.028 . S
Zn213 O212 2.028 . S
Zn213 O217 2.035 . S
Zn213 O219 2.035 . S
Zn213 O220 2.028 . S
O214 C210 1.258 . S
O214 Zn215 2.035 . S
Zn215 O214 2.035 . S
Zn215 O216 2.028 . S
Zn215 O218 2.028 . S
Zn215 O221 2.035 . S
O216 Zn215 2.028 . S
O216 C222 1.247 . S
O217 Zn213 2.035 . S
O217 C222 1.258 . S
O218 C211 1.247 . S
O218 Zn215 2.028 . S
O219 C211 1.258 . S
O219 Zn213 2.035 . S
O220 Zn213 2.028 . S
O220 C223 1.247 . S
O221 Zn215 2.035 . S
O221 C223 1.258 . S
C222 O216 1.247 . S
C222 O217 1.258 . S
C223 O220 1.247 . S
C223 O221 1.258 . S
H224 C230 0.930 . S
H225 C234 0.930 . S
H226 C239 0.929 . S
H227 C237 0.929 . S
H228 C232 0.929 . S
H229 C238 0.929 . S
C230 H224 0.930 . S
C230 C231 1.367 . S
C230 C238 1.378 . S
C231 C230 1.367 . S
C231 C239 1.433 . S
C232 H228 0.929 . S
C232 C234 1.378 . S
C232 C236 1.350 . S
C233 C236 1.463 1_556 S
C233 C238 1.350 . S
C233 N241 1.427 . S
C234 H225 0.930 . S
C234 C232 1.378 . S
C234 C235 1.367 . S
C235 C234 1.367 . S
C235 C237 1.433 . S
C236 C232 1.350 . S
C236 C233 1.463 1_554 S
C236 N240 1.427 . S
C237 H227 0.929 . S
C237 C235 1.433 . S
C237 N240 1.384 . S
C238 H229 0.929 . S
C238 C230 1.378 . S
C238 C233 1.350 . S
C239 H226 0.929 . S
C239 C231 1.433 . S
C239 N241 1.384 . S
N240 C236 1.427 . S
N240 C237 1.384 . S
N241 C233 1.427 . S
N241 C239 1.384 . S
H242 C248 0.930 . S
H243 C252 0.930 . S
H244 C257 0.929 . S
H245 C255 0.929 . S
H246 C250 0.929 . S
H247 C256 0.929 . S
C248 H242 0.930 . S
C248 C249 1.367 . S
C248 C256 1.378 . S
C249 C248 1.367 . S
C249 C257 1.433 . S
C250 H246 0.929 . S
C250 C252 1.378 . S
C250 C254 1.350 . S
C251 C254 1.463 . S
C251 C256 1.350 . S
C251 N259 1.427 . S
C252 H243 0.930 . S
C252 C250 1.378 . S
C252 C253 1.367 . S
C253 C252 1.367 . S
C253 C255 1.433 . S
C254 C250 1.350 . S
C254 C251 1.463 . S
C254 N258 1.427 . S
C255 H245 0.929 . S
C255 C253 1.433 . S
C255 N258 1.384 . S
C256 H247 0.929 . S
C256 C248 1.378 . S
C256 C251 1.350 . S
C257 H244 0.929 . S
C257 C249 1.433 . S
C257 N259 1.384 . S
N258 C254 1.427 . S
N258 C255 1.384 . S
N259 C251 1.427 . S
N259 C257 1.384 . S
H260 C266 0.930 . S
H261 C270 0.930 . S
H262 C275 0.929 . S
H263 C273 0.929 . S
H264 C268 0.929 . S
H265 C274 0.929 . S
C266 H260 0.930 . S
C266 C267 1.367 . S
C266 C274 1.378 . S
C267 C266 1.367 . S
C267 C275 1.433 . S
C268 H264 0.929 . S
C268 C270 1.378 . S
C268 C272 1.350 . S
C269 C272 1.463 1_556 S
C269 C274 1.350 . S
C269 N277 1.427 . S
C270 H261 0.930 . S
C270 C268 1.378 . S
C270 C271 1.367 . S
C271 C270 1.367 . S
C271 C273 1.433 . S
C272 C268 1.350 . S
C272 C269 1.463 1_554 S
C272 N276 1.427 . S
C273 H263 0.929 . S
C273 C271 1.433 . S
C273 N276 1.384 . S
C274 H265 0.929 . S
C274 C266 1.378 . S
C274 C269 1.350 . S
C275 H262 0.929 . S
C275 C267 1.433 . S
C275 N277 1.384 . S
N276 C272 1.427 . S
N276 C273 1.384 . S
N277 C269 1.427 . S
N277 C275 1.384 . S
H278 C284 0.930 . S
H279 C288 0.930 . S
H280 C293 0.929 . S
H281 C291 0.929 . S
H282 C286 0.929 . S
H283 C292 0.929 . S
C284 H278 0.930 . S
C284 C285 1.367 . S
C284 C292 1.378 . S
C285 C284 1.367 . S
C285 C293 1.433 . S
C286 H282 0.929 . S
C286 C288 1.378 . S
C286 C290 1.350 . S
C287 C290 1.463 . S
C287 C292 1.350 . S
C287 N295 1.427 . S
C288 H279 0.930 . S
C288 C286 1.378 . S
C288 C289 1.367 . S
C289 C288 1.367 . S
C289 C291 1.433 . S
C290 C286 1.350 . S
C290 C287 1.463 . S
C290 N294 1.427 . S
C291 H281 0.929 . S
C291 C289 1.433 . S
C291 N294 1.384 . S
C292 H283 0.929 . S
C292 C284 1.378 . S
C292 C287 1.350 . S
C293 H280 0.929 . S
C293 C285 1.433 . S
C293 N295 1.384 . S
N294 C290 1.427 . S
N294 C291 1.384 . S
N295 C287 1.427 . S
N295 C293 1.384 . S
H296 C302 0.930 . S
H297 C306 0.930 . S
H298 C311 0.929 . S
H299 C309 0.929 . S
H300 C304 0.929 . S
H301 C310 0.929 . S
C302 H296 0.930 . S
C302 C303 1.367 . S
C302 C310 1.378 . S
C303 C302 1.367 . S
C303 C311 1.433 . S
C304 H300 0.929 . S
C304 C306 1.378 . S
C304 C308 1.350 . S
C305 C308 1.463 1_554 S
C305 C310 1.350 . S
C305 N313 1.427 . S
C306 H297 0.930 . S
C306 C304 1.378 . S
C306 C307 1.367 . S
C307 C306 1.367 . S
C307 C309 1.433 . S
C308 C304 1.350 . S
C308 C305 1.463 1_556 S
C308 N312 1.427 . S
C309 H299 0.929 . S
C309 C307 1.433 . S
C309 N312 1.384 . S
C310 H301 0.929 . S
C310 C302 1.378 . S
C310 C305 1.350 . S
C311 H298 0.929 . S
C311 C303 1.433 . S
C311 N313 1.384 . S
N312 C308 1.427 . S
N312 C309 1.384 . S
N313 C305 1.427 . S
N313 C311 1.384 . S
H314 C320 0.930 . S
H315 C324 0.930 . S
H316 C329 0.929 . S
H317 C327 0.929 . S
H318 C322 0.929 . S
H319 C328 0.929 . S
C320 H314 0.930 . S
C320 C321 1.367 . S
C320 C328 1.378 . S
C321 C320 1.367 . S
C321 C329 1.433 . S
C322 H318 0.929 . S
C322 C324 1.378 . S
C322 C326 1.350 . S
C323 C326 1.463 . S
C323 C328 1.350 . S
C323 N331 1.427 . S
C324 H315 0.930 . S
C324 C322 1.378 . S
C324 C325 1.367 . S
C325 C324 1.367 . S
C325 C327 1.433 . S
C326 C322 1.350 . S
C326 C323 1.463 . S
C326 N330 1.427 . S
C327 H317 0.929 . S
C327 C325 1.433 . S
C327 N330 1.384 . S
C328 H319 0.929 . S
C328 C320 1.378 . S
C328 C323 1.350 . S
C329 H316 0.929 . S
C329 C321 1.433 . S
C329 N331 1.384 . S
N330 C326 1.427 . S
N330 C327 1.384 . S
N331 C323 1.427 . S
N331 C329 1.384 . S
H332 C338 0.930 . S
H333 C342 0.930 . S
H334 C347 0.929 . S
H335 C345 0.929 . S
H336 C340 0.929 . S
H337 C346 0.929 . S
C338 H332 0.930 . S
C338 C339 1.367 . S
C338 C346 1.378 . S
C339 C338 1.367 . S
C339 C347 1.433 . S
C340 H336 0.929 . S
C340 C342 1.378 . S
C340 C344 1.350 . S
C341 C344 1.463 1_556 S
C341 C346 1.350 . S
C341 N349 1.427 . S
C342 H333 0.930 . S
C342 C340 1.378 . S
C342 C343 1.367 . S
C343 C342 1.367 . S
C343 C345 1.433 . S
C344 C340 1.350 . S
C344 C341 1.463 1_554 S
C344 N348 1.427 . S
C345 H335 0.929 . S
C345 C343 1.433 . S
C345 N348 1.384 . S
C346 H337 0.929 . S
C346 C338 1.378 . S
C346 C341 1.350 . S
C347 H334 0.929 . S
C347 C339 1.433 . S
C347 N349 1.384 . S
N348 C344 1.427 . S
N348 C345 1.384 . S
N349 C341 1.427 . S
N349 C347 1.384 . S
H350 C356 0.930 . S
H351 C360 0.930 . S
H352 C365 0.929 . S
H353 C363 0.929 . S
H354 C358 0.929 . S
H355 C364 0.929 . S
C356 H350 0.930 . S
C356 C357 1.367 . S
C356 C364 1.378 . S
C357 C356 1.367 . S
C357 C365 1.433 . S
C358 H354 0.929 . S
C358 C360 1.378 . S
C358 C362 1.350 . S
C359 C362 1.463 . S
C359 C364 1.350 . S
C359 N367 1.427 . S
C360 H351 0.930 . S
C360 C358 1.378 . S
C360 C361 1.367 . S
C361 C360 1.367 . S
C361 C363 1.433 . S
C362 C358 1.350 . S
C362 C359 1.463 . S
C362 N366 1.427 . S
C363 H353 0.929 . S
C363 C361 1.433 . S
C363 N366 1.384 . S
C364 H355 0.929 . S
C364 C356 1.378 . S
C364 C359 1.350 . S
C365 H352 0.929 . S
C365 C357 1.433 . S
C365 N367 1.384 . S
N366 C362 1.427 . S
N366 C363 1.384 . S
N367 C359 1.427 . S
N367 C365 1.384 . S
H368 C374 0.930 . S
H369 C378 0.930 . S
H370 C383 0.929 . S
H371 C381 0.929 . S
H372 C376 0.929 . S
H373 C382 0.929 . S
C374 H368 0.930 . S
C374 C375 1.367 . S
C374 C382 1.378 . S
C375 C374 1.367 . S
C375 C383 1.433 . S
C376 H372 0.929 . S
C376 C378 1.378 . S
C376 C380 1.350 . S
C377 C380 1.463 . S
C377 C382 1.350 . S
C377 N385 1.427 . S
C378 H369 0.930 . S
C378 C376 1.378 . S
C378 C379 1.367 . S
C379 C378 1.367 . S
C379 C381 1.433 . S
C380 C376 1.350 . S
C380 C377 1.463 . S
C380 N384 1.427 . S
C381 H371 0.929 . S
C381 C379 1.433 . S
C381 N384 1.384 . S
C382 H373 0.929 . S
C382 C374 1.378 . S
C382 C377 1.350 . S
C383 H370 0.929 . S
C383 C375 1.433 . S
C383 N385 1.384 . S
N384 C380 1.427 . S
N384 C381 1.384 . S
N385 C377 1.427 . S
N385 C383 1.384 . S
H386 C392 0.930 . S
H387 C396 0.930 . S
H388 C401 0.929 . S
H389 C399 0.929 . S
H390 C394 0.929 . S
H391 C400 0.929 . S
C392 H386 0.930 . S
C392 C393 1.367 . S
C392 C400 1.378 . S
C393 C392 1.367 . S
C393 C401 1.433 . S
C394 H390 0.929 . S
C394 C396 1.378 . S
C394 C398 1.350 . S
C395 C398 1.463 . S
C395 C400 1.350 . S
C395 N403 1.427 . S
C396 H387 0.930 . S
C396 C394 1.378 . S
C396 C397 1.367 . S
C397 C396 1.367 . S
C397 C399 1.433 . S
C398 C394 1.350 . S
C398 C395 1.463 . S
C398 N402 1.427 . S
C399 H389 0.929 . S
C399 C397 1.433 . S
C399 N402 1.384 . S
C400 H391 0.929 . S
C400 C392 1.378 . S
C400 C395 1.350 . S
C401 H388 0.929 . S
C401 C393 1.433 . S
C401 N403 1.384 . S
N402 C398 1.427 . S
N402 C399 1.384 . S
N403 C395 1.427 . S
N403 C401 1.384 . S
H404 C410 0.930 . S
H405 C414 0.930 . S
H406 C419 0.929 . S
H407 C417 0.929 . S
H408 C412 0.929 . S
H409 C418 0.929 . S
C410 H404 0.930 . S
C410 C411 1.367 . S
C410 C418 1.378 . S
C411 C410 1.367 . S
C411 C419 1.433 . S
C412 H408 0.929 . S
C412 C414 1.378 . S
C412 C416 1.350 . S
C413 C416 1.463 . S
C413 C418 1.350 . S
C413 N421 1.427 . S
C414 H405 0.930 . S
C414 C412 1.378 . S
C414 C415 1.367 . S
C415 C414 1.367 . S
C415 C417 1.433 . S
C416 C412 1.350 . S
C416 C413 1.463 . S
C416 N420 1.427 . S
C417 H407 0.929 . S
C417 C415 1.433 . S
C417 N420 1.384 . S
C418 H409 0.929 . S
C418 C410 1.378 . S
C418 C413 1.350 . S
C419 H406 0.929 . S
C419 C411 1.433 . S
C419 N421 1.384 . S
N420 C416 1.427 . S
N420 C417 1.384 . S
N421 C413 1.427 . S
N421 C419 1.384 . S
H422 C428 0.930 . S
H423 C432 0.930 . S
H424 C437 0.929 . S
H425 C435 0.929 . S
H426 C430 0.929 . S
H427 C436 0.929 . S
C428 H422 0.930 . S
C428 C429 1.367 . S
C428 C436 1.378 . S
C429 C428 1.367 . S
C429 C437 1.433 . S
C430 H426 0.929 . S
C430 C432 1.378 . S
C430 C434 1.350 . S
C431 C434 1.463 . S
C431 C436 1.350 . S
C431 N439 1.427 . S
C432 H423 0.930 . S
C432 C430 1.378 . S
C432 C433 1.367 . S
C433 C432 1.367 . S
C433 C435 1.433 . S
C434 C430 1.350 . S
C434 C431 1.463 . S
C434 N438 1.427 . S
C435 H425 0.929 . S
C435 C433 1.433 . S
C435 N438 1.384 . S
C436 H427 0.929 . S
C436 C428 1.378 . S
C436 C431 1.350 . S
C437 H424 0.929 . S
C437 C429 1.433 . S
C437 N439 1.384 . S
N438 C434 1.427 . S
N438 C435 1.384 . S
N439 C431 1.427 . S
N439 C437 1.384 . S
H440 C446 0.930 . S
H441 C450 0.930 . S
H442 C455 0.929 . S
H443 C453 0.929 . S
H444 C448 0.929 . S
H445 C454 0.929 . S
C446 H440 0.930 . S
C446 C447 1.367 . S
C446 C454 1.378 . S
C447 C446 1.367 . S
C447 C455 1.433 . S
C448 H444 0.929 . S
C448 C450 1.378 . S
C448 C452 1.350 . S
C449 C452 1.463 . S
C449 C454 1.350 . S
C449 N457 1.427 . S
C450 H441 0.930 . S
C450 C448 1.378 . S
C450 C451 1.367 . S
C451 C450 1.367 . S
C451 C453 1.433 . S
C452 C448 1.350 . S
C452 C449 1.463 . S
C452 N456 1.427 . S
C453 H443 0.929 . S
C453 C451 1.433 . S
C453 N456 1.384 . S
C454 H445 0.929 . S
C454 C446 1.378 . S
C454 C449 1.350 . S
C455 H442 0.929 . S
C455 C447 1.433 . S
C455 N457 1.384 . S
N456 C452 1.427 . S
N456 C453 1.384 . S
N457 C449 1.427 . S
N457 C455 1.384 . S
H458 C464 0.930 . S
H459 C468 0.930 . S
H460 C473 0.929 . S
H461 C471 0.929 . S
H462 C466 0.929 . S
H463 C472 0.929 . S
C464 H458 0.930 . S
C464 C465 1.367 . S
C464 C472 1.378 . S
C465 C464 1.367 . S
C465 C473 1.433 . S
C466 H462 0.929 . S
C466 C468 1.378 . S
C466 C470 1.350 . S
C467 C470 1.463 . S
C467 C472 1.350 . S
C467 N475 1.427 . S
C468 H459 0.930 . S
C468 C466 1.378 . S
C468 C469 1.367 . S
C469 C468 1.367 . S
C469 C471 1.433 . S
C470 C466 1.350 . S
C470 C467 1.463 . S
C470 N474 1.427 . S
C471 H461 0.929 . S
C471 C469 1.433 . S
C471 N474 1.384 . S
C472 H463 0.929 . S
C472 C464 1.378 . S
C472 C467 1.350 . S
C473 H460 0.929 . S
C473 C465 1.433 . S
C473 N475 1.384 . S
N474 C470 1.427 . S
N474 C471 1.384 . S
N475 C467 1.427 . S
N475 C473 1.384 . S
H476 C482 0.930 . S
H477 C486 0.930 . S
H478 C491 0.929 . S
H479 C489 0.929 . S
H480 C484 0.929 . S
H481 C490 0.929 . S
C482 H476 0.930 . S
C482 C483 1.367 . S
C482 C490 1.378 . S
C483 C482 1.367 . S
C483 C491 1.433 . S
C484 H480 0.929 . S
C484 C486 1.378 . S
C484 C488 1.350 . S
C485 C488 1.463 . S
C485 C490 1.350 . S
C485 N493 1.427 . S
C486 H477 0.930 . S
C486 C484 1.378 . S
C486 C487 1.367 . S
C487 C486 1.367 . S
C487 C489 1.433 . S
C488 C484 1.350 . S
C488 C485 1.463 . S
C488 N492 1.427 . S
C489 H479 0.929 . S
C489 C487 1.433 . S
C489 N492 1.384 . S
C490 H481 0.929 . S
C490 C482 1.378 . S
C490 C485 1.350 . S
C491 H478 0.929 . S
C491 C483 1.433 . S
C491 N493 1.384 . S
N492 C488 1.427 . S
N492 C489 1.384 . S
N493 C485 1.427 . S
N493 C491 1.384 . S
H494 C500 0.930 . S
H495 C504 0.930 . S
H496 C509 0.929 . S
H497 C507 0.929 . S
H498 C502 0.929 . S
H499 C508 0.929 . S
C500 H494 0.930 . S
C500 C501 1.367 . S
C500 C508 1.378 . S
C501 C500 1.367 . S
C501 C509 1.433 . S
C502 H498 0.929 . S
C502 C504 1.378 . S
C502 C506 1.350 . S
C503 C506 1.463 . S
C503 C508 1.350 . S
C503 N511 1.427 . S
C504 H495 0.930 . S
C504 C502 1.378 . S
C504 C505 1.367 . S
C505 C504 1.367 . S
C505 C507 1.433 . S
C506 C502 1.350 . S
C506 C503 1.463 . S
C506 N510 1.427 . S
C507 H497 0.929 . S
C507 C505 1.433 . S
C507 N510 1.384 . S
C508 H499 0.929 . S
C508 C500 1.378 . S
C508 C503 1.350 . S
C509 H496 0.929 . S
C509 C501 1.433 . S
C509 N511 1.384 . S
N510 C506 1.427 . S
N510 C507 1.384 . S
N511 C503 1.427 . S
N511 C509 1.384 . S
H512 C518 0.930 . S
H513 C522 0.930 . S
H514 C527 0.929 . S
H515 C525 0.929 . S
H516 C520 0.929 . S
H517 C526 0.929 . S
C518 H512 0.930 . S
C518 C519 1.367 . S
C518 C526 1.378 . S
C519 C518 1.367 . S
C519 C527 1.433 . S
C520 H516 0.929 . S
C520 C522 1.378 . S
C520 C524 1.350 . S
C521 C524 1.463 . S
C521 C526 1.350 . S
C521 N529 1.427 . S
C522 H513 0.930 . S
C522 C520 1.378 . S
C522 C523 1.367 . S
C523 C522 1.367 . S
C523 C525 1.433 . S
C524 C520 1.350 . S
C524 C521 1.463 . S
C524 N528 1.427 . S
C525 H515 0.929 . S
C525 C523 1.433 . S
C525 N528 1.384 . S
C526 H517 0.929 . S
C526 C518 1.378 . S
C526 C521 1.350 . S
C527 H514 0.929 . S
C527 C519 1.433 . S
C527 N529 1.384 . S
N528 C524 1.427 . S
N528 C525 1.384 . S
N529 C521 1.427 . S
N529 C527 1.384 . S
H530 C536 0.930 . S
H531 C540 0.930 . S
H532 C545 0.929 . S
H533 C543 0.929 . S
H534 C538 0.929 . S
H535 C544 0.929 . S
C536 H530 0.930 . S
C536 C537 1.367 . S
C536 C544 1.378 . S
C537 C536 1.367 . S
C537 C545 1.433 . S
C538 H534 0.929 . S
C538 C540 1.378 . S
C538 C542 1.350 . S
C539 C542 1.463 . S
C539 C544 1.350 . S
C539 N547 1.427 . S
C540 H531 0.930 . S
C540 C538 1.378 . S
C540 C541 1.367 . S
C541 C540 1.367 . S
C541 C543 1.433 . S
C542 C538 1.350 . S
C542 C539 1.463 . S
C542 N546 1.427 . S
C543 H533 0.929 . S
C543 C541 1.433 . S
C543 N546 1.384 . S
C544 H535 0.929 . S
C544 C536 1.378 . S
C544 C539 1.350 . S
C545 H532 0.929 . S
C545 C537 1.433 . S
C545 N547 1.384 . S
N546 C542 1.427 . S
N546 C543 1.384 . S
N547 C539 1.427 . S
N547 C545 1.384 . S
H548 C554 0.930 . S
H549 C558 0.930 . S
H550 C563 0.929 . S
H551 C561 0.929 . S
H552 C556 0.929 . S
H553 C562 0.929 . S
C554 H548 0.930 . S
C554 C555 1.367 . S
C554 C562 1.378 . S
C555 C554 1.367 . S
C555 C563 1.433 . S
C556 H552 0.929 . S
C556 C558 1.378 . S
C556 C560 1.350 . S
C557 C560 1.463 . S
C557 C562 1.350 . S
C557 N565 1.427 . S
C558 H549 0.930 . S
C558 C556 1.378 . S
C558 C559 1.367 . S
C559 C558 1.367 . S
C559 C561 1.433 . S
C560 C556 1.350 . S
C560 C557 1.463 . S
C560 N564 1.427 . S
C561 H551 0.929 . S
C561 C559 1.433 . S
C561 N564 1.384 . S
C562 H553 0.929 . S
C562 C554 1.378 . S
C562 C557 1.350 . S
C563 H550 0.929 . S
C563 C555 1.433 . S
C563 N565 1.384 . S
N564 C560 1.427 . S
N564 C561 1.384 . S
N565 C557 1.427 . S
N565 C563 1.384 . S
H566 C572 0.930 . S
H567 C576 0.930 . S
H568 C581 0.929 . S
H569 C579 0.929 . S
H570 C574 0.929 . S
H571 C580 0.929 . S
C572 H566 0.930 . S
C572 C573 1.367 . S
C572 C580 1.378 . S
C573 C572 1.367 . S
C573 C581 1.433 . S
C574 H570 0.929 . S
C574 C576 1.378 . S
C574 C578 1.350 . S
C575 C578 1.463 . S
C575 C580 1.350 . S
C575 N583 1.427 . S
C576 H567 0.930 . S
C576 C574 1.378 . S
C576 C577 1.367 . S
C577 C576 1.367 . S
C577 C579 1.433 . S
C578 C574 1.350 . S
C578 C575 1.463 . S
C578 N582 1.427 . S
C579 H569 0.929 . S
C579 C577 1.433 . S
C579 N582 1.384 . S
C580 H571 0.929 . S
C580 C572 1.378 . S
C580 C575 1.350 . S
C581 H568 0.929 . S
C581 C573 1.433 . S
C581 N583 1.384 . S
N582 C578 1.427 . S
N582 C579 1.384 . S
N583 C575 1.427 . S
N583 C581 1.384 . S
H584 C590 0.930 . S
H585 C594 0.930 . S
H586 C599 0.929 . S
H587 C597 0.929 . S
H588 C592 0.929 . S
H589 C598 0.929 . S
C590 H584 0.930 . S
C590 C591 1.367 . S
C590 C598 1.378 . S
C591 C590 1.367 . S
C591 C599 1.433 . S
C592 H588 0.929 . S
C592 C594 1.378 . S
C592 C596 1.350 . S
C593 C596 1.463 . S
C593 C598 1.350 . S
C593 N601 1.427 . S
C594 H585 0.930 . S
C594 C592 1.378 . S
C594 C595 1.367 . S
C595 C594 1.367 . S
C595 C597 1.433 . S
C596 C592 1.350 . S
C596 C593 1.463 . S
C596 N600 1.427 . S
C597 H587 0.929 . S
C597 C595 1.433 . S
C597 N600 1.384 . S
C598 H589 0.929 . S
C598 C590 1.378 . S
C598 C593 1.350 . S
C599 H586 0.929 . S
C599 C591 1.433 . S
C599 N601 1.384 . S
N600 C596 1.427 . S
N600 C597 1.384 . S
N601 C593 1.427 . S
N601 C599 1.384 . S
H602 C608 0.930 . S
H603 C612 0.930 . S
H604 C617 0.929 . S
H605 C615 0.929 . S
H606 C610 0.929 . S
H607 C616 0.929 . S
C608 H602 0.930 . S
C608 C609 1.367 . S
C608 C616 1.378 . S
C609 C608 1.367 . S
C609 C617 1.433 . S
C610 H606 0.929 . S
C610 C612 1.378 . S
C610 C614 1.350 . S
C611 C614 1.463 . S
C611 C616 1.350 . S
C611 N619 1.427 . S
C612 H603 0.930 . S
C612 C610 1.378 . S
C612 C613 1.367 . S
C613 C612 1.367 . S
C613 C615 1.433 . S
C614 C610 1.350 . S
C614 C611 1.463 . S
C614 N618 1.427 . S
C615 H605 0.929 . S
C615 C613 1.433 . S
C615 N618 1.384 . S
C616 H607 0.929 . S
C616 C608 1.378 . S
C616 C611 1.350 . S
C617 H604 0.929 . S
C617 C609 1.433 . S
C617 N619 1.384 . S
N618 C614 1.427 . S
N618 C615 1.384 . S
N619 C611 1.427 . S
N619 C617 1.384 . S
H620 C626 0.930 . S
H621 C630 0.930 . S
H622 C635 0.929 . S
H623 C633 0.929 . S
H624 C628 0.929 . S
H625 C634 0.929 . S
C626 H620 0.930 . S
C626 C627 1.367 . S
C626 C634 1.378 . S
C627 C626 1.367 . S
C627 C635 1.433 . S
C628 H624 0.929 . S
C628 C630 1.378 . S
C628 C632 1.350 . S
C629 C632 1.463 . S
C629 C634 1.350 . S
C629 N637 1.427 . S
C630 H621 0.930 . S
C630 C628 1.378 . S
C630 C631 1.367 . S
C631 C630 1.367 . S
C631 C633 1.433 . S
C632 C628 1.350 . S
C632 C629 1.463 . S
C632 N636 1.427 . S
C633 H623 0.929 . S
C633 C631 1.433 . S
C633 N636 1.384 . S
C634 H625 0.929 . S
C634 C626 1.378 . S
C634 C629 1.350 . S
C635 H622 0.929 . S
C635 C627 1.433 . S
C635 N637 1.384 . S
N636 C632 1.427 . S
N636 C633 1.384 . S
N637 C629 1.427 . S
N637 C635 1.384 . S
H638 C644 0.930 . S
H639 C648 0.930 . S
H640 C653 0.929 . S
H641 C651 0.929 . S
H642 C646 0.929 . S
H643 C652 0.929 . S
C644 H638 0.930 . S
C644 C645 1.367 . S
C644 C652 1.378 . S
C645 C644 1.367 . S
C645 C653 1.433 . S
C646 H642 0.929 . S
C646 C648 1.378 . S
C646 C650 1.350 . S
C647 C650 1.463 . S
C647 C652 1.350 . S
C647 N655 1.427 . S
C648 H639 0.930 . S
C648 C646 1.378 . S
C648 C649 1.367 . S
C649 C648 1.367 . S
C649 C651 1.433 . S
C650 C646 1.350 . S
C650 C647 1.463 . S
C650 N654 1.427 . S
C651 H641 0.929 . S
C651 C649 1.433 . S
C651 N654 1.384 . S
C652 H643 0.929 . S
C652 C644 1.378 . S
C652 C647 1.350 . S
C653 H640 0.929 . S
C653 C645 1.433 . S
C653 N655 1.384 . S
N654 C650 1.427 . S
N654 C651 1.384 . S
N655 C647 1.427 . S
N655 C653 1.384 . S
H656 C662 0.930 . S
H657 C666 0.930 . S
H658 C671 0.929 . S
H659 C669 0.929 . S
H660 C664 0.929 . S
H661 C670 0.929 . S
C662 H656 0.930 . S
C662 C663 1.367 . S
C662 C670 1.378 1_545 S
C663 C662 1.367 . S
C663 C671 1.433 1_545 S
C664 H660 0.929 . S
C664 C666 1.378 . S
C664 C668 1.350 . S
C665 C668 1.463 . S
C665 C670 1.350 . S
C665 N673 1.427 . S
C666 H657 0.930 . S
C666 C664 1.378 . S
C666 C667 1.367 . S
C667 C666 1.367 . S
C667 C669 1.433 . S
C668 C664 1.350 . S
C668 C665 1.463 . S
C668 N672 1.427 . S
C669 H659 0.929 . S
C669 C667 1.433 . S
C669 N672 1.384 . S
C670 H661 0.929 . S
C670 C662 1.378 1_565 S
C670 C665 1.350 . S
C671 H658 0.929 . S
C671 C663 1.433 1_565 S
C671 N673 1.384 . S
N672 C668 1.427 . S
N672 C669 1.384 . S
N673 C665 1.427 . S
N673 C671 1.384 . S
H674 C680 0.930 . S
H675 C684 0.930 . S
H676 C689 0.929 . S
H677 C687 0.929 . S
H678 C682 0.929 . S
H679 C688 0.929 . S
C680 H674 0.930 . S
C680 C681 1.367 . S
C680 C688 1.378 . S
C681 C680 1.367 . S
C681 C689 1.433 . S
C682 H678 0.929 . S
C682 C684 1.378 . S
C682 C686 1.350 . S
C683 C686 1.463 . S
C683 C688 1.350 . S
C683 N691 1.427 . S
C684 H675 0.930 . S
C684 C682 1.378 . S
C684 C685 1.367 . S
C685 C684 1.367 . S
C685 C687 1.433 . S
C686 C682 1.350 . S
C686 C683 1.463 . S
C686 N690 1.427 . S
C687 H677 0.929 . S
C687 C685 1.433 . S
C687 N690 1.384 . S
C688 H679 0.929 . S
C688 C680 1.378 . S
C688 C683 1.350 . S
C689 H676 0.929 . S
C689 C681 1.433 . S
C689 N691 1.384 . S
N690 C686 1.427 . S
N690 C687 1.384 . S
N691 C683 1.427 . S
N691 C689 1.384 . S
H692 C698 0.930 . S
H693 C702 0.930 . S
H694 C707 0.929 . S
H695 C705 0.929 . S
H696 C700 0.929 . S
H697 C706 0.929 . S
C698 H692 0.930 . S
C698 C699 1.367 . S
C698 C706 1.378 . S
C699 C698 1.367 . S
C699 C707 1.433 . S
C700 H696 0.929 . S
C700 C702 1.378 1_455 S
C700 C704 1.350 . S
C701 C704 1.463 . S
C701 C706 1.350 . S
C701 N709 1.427 . S
C702 H693 0.930 . S
C702 C700 1.378 1_655 S
C702 C703 1.367 . S
C703 C702 1.367 . S
C703 C705 1.433 1_655 S
C704 C700 1.350 . S
C704 C701 1.463 . S
C704 N708 1.427 . S
C705 H695 0.929 . S
C705 C703 1.433 1_455 S
C705 N708 1.384 . S
C706 H697 0.929 . S
C706 C698 1.378 . S
C706 C701 1.350 . S
C707 H694 0.929 . S
C707 C699 1.433 . S
C707 N709 1.384 . S
N708 C704 1.427 . S
N708 C705 1.384 . S
N709 C701 1.427 . S
N709 C707 1.384 . S
H710 C716 0.930 . S
H711 C720 0.930 . S
H712 C725 0.929 . S
H713 C723 0.929 . S
H714 C718 0.929 . S
H715 C724 0.929 . S
C716 H710 0.930 . S
C716 C717 1.367 1_545 S
C716 C724 1.378 . S
C717 C716 1.367 1_565 S
C717 C725 1.433 . S
C718 H714 0.929 . S
C718 C720 1.378 1_655 S
C718 C722 1.350 . S
C719 C722 1.463 . S
C719 C724 1.350 . S
C719 N727 1.427 . S
C720 H711 0.930 . S
C720 C718 1.378 1_455 S
C720 C721 1.367 . S
C721 C720 1.367 . S
C721 C723 1.433 1_455 S
C722 C718 1.350 . S
C722 C719 1.463 . S
C722 N726 1.427 . S
C723 H713 0.929 . S
C723 C721 1.433 1_655 S
C723 N726 1.384 . S
C724 H715 0.929 . S
C724 C716 1.378 . S
C724 C719 1.350 . S
C725 H712 0.929 . S
C725 C717 1.433 . S
C725 N727 1.384 1_565 S
N726 C722 1.427 . S
N726 C723 1.384 . S
N727 C719 1.427 . S
N727 C725 1.384 1_545 S
H728 C734 0.930 . S
H729 C738 0.930 . S
H730 C743 0.929 . S
H731 C741 0.929 . S
H732 C736 0.929 . S
H733 C742 0.929 . S
C734 H728 0.930 . S
C734 C735 1.367 . S
C734 C742 1.378 . S
C735 C734 1.367 . S
C735 C743 1.433 . S
C736 H732 0.929 . S
C736 C738 1.378 . S
C736 C740 1.350 . S
C737 C740 1.463 . S
C737 C742 1.350 . S
C737 N745 1.427 . S
C738 H729 0.930 . S
C738 C736 1.378 . S
C738 C739 1.367 . S
C739 C738 1.367 . S
C739 C741 1.433 . S
C740 C736 1.350 . S
C740 C737 1.463 . S
C740 N744 1.427 . S
C741 H731 0.929 . S
C741 C739 1.433 . S
C741 N744 1.384 . S
C742 H733 0.929 . S
C742 C734 1.378 . S
C742 C737 1.350 . S
C743 H730 0.929 . S
C743 C735 1.433 . S
C743 N745 1.384 . S
N744 C740 1.427 . S
N744 C741 1.384 . S
N745 C737 1.427 . S
N745 C743 1.384 . S
H746 C752 0.930 . S
H747 C756 0.930 . S
H748 C761 0.929 . S
H749 C759 0.929 . S
H750 C754 0.929 . S
H751 C760 0.929 . S
C752 H746 0.930 . S
C752 C753 1.367 1_655 S
C752 C760 1.378 . S
C753 C752 1.367 1_455 S
C753 C761 1.433 . S
C754 H750 0.929 . S
C754 C756 1.378 . S
C754 C758 1.350 . S
C755 C758 1.463 . S
C755 C760 1.350 . S
C755 N763 1.427 . S
C756 H747 0.930 . S
C756 C754 1.378 . S
C756 C757 1.367 . S
C757 C756 1.367 . S
C757 C759 1.433 . S
C758 C754 1.350 . S
C758 C755 1.463 . S
C758 N762 1.427 . S
C759 H749 0.929 . S
C759 C757 1.433 . S
C759 N762 1.384 . S
C760 H751 0.929 . S
C760 C752 1.378 . S
C760 C755 1.350 . S
C761 H748 0.929 . S
C761 C753 1.433 . S
C761 N763 1.384 1_455 S
N762 C758 1.427 . S
N762 C759 1.384 . S
N763 C755 1.427 . S
N763 C761 1.384 1_655 S
H764 C770 0.930 1_655 S
H765 C774 0.930 1_545 S
H766 C779 0.929 1_655 S
H767 C777 0.929 1_545 S
H768 C772 0.929 . S
H769 C778 0.929 . S
C770 H764 0.930 1_455 S
C770 C771 1.367 1_455 S
C770 C778 1.378 . S
C771 C770 1.367 1_655 S
C771 C779 1.433 1_655 S
C772 H768 0.929 . S
C772 C774 1.378 . S
C772 C776 1.350 . S
C773 C776 1.463 . S
C773 C778 1.350 . S
C773 N781 1.427 . S
C774 H765 0.930 1_565 S
C774 C772 1.378 . S
C774 C775 1.367 1_565 S
C775 C774 1.367 1_545 S
C775 C777 1.433 1_545 S
C776 C772 1.350 . S
C776 C773 1.463 . S
C776 N780 1.427 . S
C777 H767 0.929 1_565 S
C777 C775 1.433 1_565 S
C777 N780 1.384 . S
C778 H769 0.929 . S
C778 C770 1.378 . S
C778 C773 1.350 . S
C779 H766 0.929 1_455 S
C779 C771 1.433 1_455 S
C779 N781 1.384 . S
N780 C776 1.427 . S
N780 C777 1.384 . S
N781 C773 1.427 . S
N781 C779 1.384 . S
H782 C788 0.930 1_565 S
H783 C792 0.930 . S
H784 C797 0.944 . S
H785 C795 0.929 . S
H786 C790 0.929 . S
H787 C796 0.929 . S
C788 H782 0.930 1_545 S
C788 C789 1.367 1_545 S
C788 C796 1.378 . S
C789 C788 1.367 1_565 S
C789 C797 1.441 . S
C790 H786 0.929 . S
C790 C792 1.378 . S
C790 C794 1.350 . S
C791 C794 1.463 . S
C791 C796 1.350 . S
C791 N799 1.427 . S
C792 H783 0.930 . S
C792 C790 1.378 . S
C792 C793 1.367 . S
C793 C792 1.367 . S
C793 C795 1.433 . S
C794 C790 1.350 . S
C794 C791 1.463 . S
C794 N798 1.427 . S
C795 H785 0.929 . S
C795 C793 1.433 . S
C795 N798 1.384 . S
C796 H787 0.929 . S
C796 C788 1.378 . S
C796 C791 1.350 . S
C797 H784 0.944 . S
C797 C789 1.441 . S
C797 N799 1.361 1_565 S
N798 C794 1.427 . S
N798 C795 1.384 . S
N799 C791 1.427 . S
N799 C797 1.361 1_545 S
C231 C110 1.594 . S
C235 C0 1.588 . S
C249 C57 1.594 . S
C253 C15 1.588 . S
C267 C83 1.588 . S
C271 C29 1.594 . S
C285 C55 1.588 . S
C289 C97 1.595 . S
C303 C223 1.591 . S
C307 C112 1.592 . S
C321 C169 1.588 . S
C325 C126 1.595 . S
C339 C152 1.595 . S
C343 C183 1.588 . S
C357 C166 1.592 . S
C361 C196 1.591 . S
C375 C41 1.435 . S
C379 C12 1.434 . S
C393 C27 1.435 . S
C397 C43 1.432 . S
C411 C69 1.437 . S
C415 C85 1.440 . S
C429 C98 1.442 . S
C433 C71 1.439 . S
C447 C124 1.440 . S
C451 C140 1.439 . S
C465 C138 1.431 . S
C469 C154 1.433 . S
C483 C208 1.432 . S
C487 C181 1.436 . S
C501 C195 1.432 . S
C505 C211 1.433 . S
C519 C96 1.604 . S
C523 C1 1.604 . S
C537 C14 1.606 . S
C541 C111 1.606 . S
C555 C28 1.604 . S
C559 C56 1.604 . S
C573 C54 1.606 . S
C577 C82 1.607 . S
C591 C113 1.605 . S
C595 C197 1.605 . S
C609 C127 1.603 . S
C613 C222 1.603 . S
C627 C153 1.604 . S
C631 C168 1.603 . S
C645 C167 1.604 . S
C649 C182 1.603 . S
C663 C13 1.554 . S
C667 C210 1.555 . S
C681 C180 1.556 . S
C685 C26 1.554 . S
C699 C40 1.555 . S
C703 C194 1.555 . S
C717 C209 1.557 . S
C721 C42 1.553 . S
C735 C139 1.557 . S
C739 C68 1.553 . S
C753 C70 1.557 . S
C757 C141 1.553 . S
C771 C155 1.554 . S
C775 C84 1.557 . S
C789 C125 1.554 . S
C793 C99 1.556 . S
