# Generated by pormake.
# Topology dft, (4)-cn, num edge types: 1
# Building blocks:
#     Node 0, Type 0, BuildingBlock: QUQFOY_clean_sbu_3, # of connection points: 4
#     Node 1, Type 0, BuildingBlock: QUQFOY_clean_sbu_3, # of connection points: 4
#     Node 2, Type 0, BuildingBlock: QUQFOY_clean_sbu_3, # of connection points: 4
#     Node 3, Type 0, BuildingBlock: QUQFOY_clean_sbu_3, # of connection points: 4
#     Node 4, Type 0, BuildingBlock: QUQFOY_clean_sbu_3, # of connection points: 4
#     Node 5, Type 0, BuildingBlock: QUQFOY_clean_sbu_3, # of connection points: 4
#     Node 6, Type 0, BuildingBlock: QUQFOY_clean_sbu_3, # of connection points: 4
#     Node 7, Type 0, BuildingBlock: QUQFOY_clean_sbu_3, # of connection points: 4
#     Edge 8, Type (0, 0), BuildingBlock: MIFKUJ_clean_linker_0, # of connection points: 2
#     Edge 9, Type (0, 0), BuildingBlock: MIFKUJ_clean_linker_0, # of connection points: 2
#     Edge 10, Type (0, 0), BuildingBlock: MIFKUJ_clean_linker_0, # of connection points: 2
#     Edge 11, Type (0, 0), BuildingBlock: MIFKUJ_clean_linker_0, # of connection points: 2
#     Edge 12, Type (0, 0), BuildingBlock: MIFKUJ_clean_linker_0, # of connection points: 2
#     Edge 13, Type (0, 0), BuildingBlock: MIFKUJ_clean_linker_0, # of connection points: 2
#     Edge 14, Type (0, 0), BuildingBlock: MIFKUJ_clean_linker_0, # of connection points: 2
#     Edge 15, Type (0, 0), BuildingBlock: MIFKUJ_clean_linker_0, # of connection points: 2
#     Edge 16, Type (0, 0), BuildingBlock: MIFKUJ_clean_linker_0, # of connection points: 2
#     Edge 17, Type (0, 0), BuildingBlock: MIFKUJ_clean_linker_0, # of connection points: 2
#     Edge 18, Type (0, 0), BuildingBlock: MIFKUJ_clean_linker_0, # of connection points: 2
#     Edge 19, Type (0, 0), BuildingBlock: MIFKUJ_clean_linker_0, # of connection points: 2
#     Edge 20, Type (0, 0), BuildingBlock: MIFKUJ_clean_linker_0, # of connection points: 2
#     Edge 21, Type (0, 0), BuildingBlock: MIFKUJ_clean_linker_0, # of connection points: 2
#     Edge 22, Type (0, 0), BuildingBlock: MIFKUJ_clean_linker_0, # of connection points: 2
#     Edge 23, Type (0, 0), BuildingBlock: MIFKUJ_clean_linker_0, # of connection points: 2
# Relax obj value: 0.179
# Max RMSD: 0.170
# Mean RMSD: 0.170
data_MOF--net-dft--node1-QUQFOY_clean_sbu_3--edge1-MIFKUJ_clean_linker_0
_symmetry_space_group_name_H-M    P1
_symmetry_Int_Tables_number       1
_symmetry_cell_setting            triclinic
loop_
_symmetry_equiv_pos_as_xyz
'x, y, z'
_cell_length_a     45.393293
_cell_length_b     45.360866
_cell_length_c     53.759147
_cell_angle_alpha  89.578212
_cell_angle_beta   89.922665
_cell_angle_gamma 89.927444
loop_
_atom_site_label
_atom_site_type_symbol
_atom_site_fract_x
_atom_site_fract_y
_atom_site_fract_z
_atom_type_partial_charge
C0 C 0.31706 0.98902 0.22522 0.0
O1 O 0.33942 0.98326 0.2122 0.0
Cd2 Cd 0.33847 0.0325 0.19276 0.0
O3 O 0.30751 0.01517 0.2241 0.0
Cd4 Cd 0.34211 0.04473 0.19393 0.0
C5 C 0.29005 0.0809 0.20209 0.0
O6 O 0.34448 0.01779 0.15251 0.0
O7 O 0.3361 0.0642 0.15001 0.0
O8 O 0.38965 0.02519 0.20979 0.0
C9 C 0.34046 0.04007 0.13876 0.0
O10 O 0.28686 0.05468 0.19462 0.0
C11 C 0.40065 0.05046 0.21363 0.0
O12 O 0.31613 0.08968 0.20536 0.0
O13 O 0.38475 0.07259 0.20816 0.0
C14 C 0.09517 0.28756 0.66958 0.0
O15 O 0.08733 0.2779 0.6485 0.0
Cd16 Cd 0.04456 0.29395 0.62689 0.0
O17 O 0.08031 0.30759 0.68049 0.0
Cd18 Cd 0.03626 0.33871 0.67089 0.0
C19 C -0.00853 0.27902 0.67073 0.0
O20 O 0.05028 0.34641 0.62812 0.0
O21 O 0.00632 0.3608 0.63668 0.0
O22 O 0.06094 0.37963 0.69144 0.0
C23 C 0.02743 0.36007 0.62124 0.0
O24 O 0.00243 0.27267 0.64961 0.0
C25 C 0.03849 0.3878 0.70372 0.0
O26 O 0.00085 0.30111 0.68277 0.0
O27 O 0.01531 0.37247 0.70133 0.0
C28 C 0.80427 0.09822 0.16528 0.0
O29 O 0.81252 0.08993 0.14388 0.0
Cd30 Cd 0.79187 0.04804 0.12417 0.0
O31 O 0.78371 0.08489 0.17697 0.0
Cd32 Cd 0.74848 0.04415 0.16883 0.0
C33 C 0.80319 -0.00611 0.16801 0.0
O34 O 0.74048 0.06045 0.12684 0.0
O35 O 0.72219 0.01769 0.1348 0.0
O36 O 0.71333 0.07401 0.19194 0.0
C37 C 0.72393 0.03965 0.12016 0.0
O38 O 0.80979 0.00369 0.14645 0.0
C39 C 0.70144 0.05241 0.20322 0.0
O40 O 0.78267 0.00577 0.18051 0.0
O41 O 0.71207 0.02704 0.19903 0.0
C42 C 0.98737 0.79059 0.66824 0.0
O43 O -0.00662 0.80061 0.64671 0.0
Cd44 Cd 0.03302 0.78307 0.62234 0.0
O45 O 0.00219 0.76935 0.67769 0.0
Cd46 Cd 0.04285 0.73568 0.66419 0.0
C47 C 0.0902 0.79332 0.66307 0.0
O48 O 0.02208 0.73117 0.62326 0.0
O49 O 0.06505 0.71165 0.62694 0.0
O50 O 0.01702 0.69841 0.68895 0.0
C51 C 0.04191 0.71505 0.61407 0.0
O52 O 0.07709 0.80223 0.64349 0.0
C53 C 0.04026 0.68617 0.69715 0.0
O54 O 0.08176 0.77004 0.67424 0.0
O55 O 0.06461 0.69745 0.69048 0.0
C56 C 0.27387 0.09648 0.8069 0.0
O57 O 0.25708 0.08937 0.82487 0.0
Cd58 Cd 0.26348 0.04692 0.8504 0.0
O59 O 0.29659 0.08109 0.80171 0.0
Cd60 Cd 0.32238 0.03704 0.81938 0.0
C61 C 0.26414 -0.00747 0.80638 0.0
O62 O 0.31412 0.05145 0.86175 0.0
O63 O 0.33339 0.00836 0.85818 0.0
O64 O 0.3703 0.0598 0.81233 0.0
C65 C 0.32547 0.02923 0.87229 0.0
O66 O 0.25039 0.00502 0.82407 0.0
C67 C 0.38015 0.03957 0.79841 0.0
O68 O 0.29016 0.00045 0.80066 0.0
O69 O 0.36296 0.01823 0.79385 0.0
C70 C 0.98004 0.29751 0.29249 0.0
O71 O 0.97846 0.28547 0.31382 0.0
Cd72 Cd 0.01518 0.29154 0.34471 0.0
O73 O 0.00068 0.3154 0.28689 0.0
Cd74 Cd 0.04249 0.34004 0.3083 0.0
C75 C 0.07645 0.27356 0.31006 0.0
O76 O 0.01704 0.34423 0.34755 0.0
O77 O 0.06308 0.35539 0.34884 0.0
O78 O 0.02793 0.38456 0.28591 0.0
C79 C 0.03835 0.35454 0.35981 0.0
O80 O 0.05805 0.26581 0.32678 0.0
C81 C 0.05388 0.39168 0.27939 0.0
O82 O 0.07533 0.29917 0.30036 0.0
O83 O 0.07453 0.37441 0.28596 0.0
C84 C 0.7979 0.97807 0.80497 0.0
O85 O 0.81021 0.98652 0.82488 0.0
Cd86 Cd 0.79483 0.02833 0.8479 0.0
O87 O 0.77525 0.99145 0.79648 0.0
Cd88 Cd 0.74275 0.033 0.80925 0.0
C89 C 0.79911 0.08127 0.80197 0.0
O90 O 0.74318 0.01969 0.85269 0.0
O91 O 0.72372 0.06206 0.84475 0.0
O92 O 0.69983 0.00453 0.79736 0.0
C93 C 0.72845 0.04148 0.86034 0.0
O94 O 0.80953 0.07061 0.8221 0.0
C95 C 0.68824 0.02455 0.78398 0.0
O96 O 0.77546 0.07104 0.79276 0.0
O97 O 0.70282 0.04823 0.78118 0.0
C98 C 0.09051 0.7999 0.31055 0.0
O99 O 0.0759 0.81003 0.32876 0.0
Cd100 Cd 0.03512 0.78564 0.34748 0.0
O101 O 0.08299 0.77582 0.30022 0.0
Cd102 Cd 0.04251 0.73936 0.30596 0.0
C103 C 0.98823 0.79031 0.29866 0.0
O104 O 0.05278 0.73569 0.34976 0.0
O105 O 0.0138 0.71238 0.33868 0.0
O106 O 0.07631 0.70373 0.28724 0.0
C107 C 0.03294 0.71731 0.35527 0.0
O108 O -0.00715 0.79779 0.32108 0.0
C109 C 0.05648 0.69051 0.27499 0.0
O110 O 0.00439 0.771 0.28839 0.0
O111 O 0.03052 0.70072 0.27654 0.0
H112 H 0.32582 0.08271 0.10471 0.0
H113 H 0.32406 0.07791 0.05937 0.0
H114 H 0.35272 0.98748 0.06571 0.0
H115 H 0.35455 -0.00793 0.11098 0.0
H116 H 0.38177 0.01804 0.0282 0.0
H117 H 0.28259 0.00052 0.05526 0.0
H118 H 0.2365 0.01141 0.07774 0.0
H119 H 0.22616 0.09149 0.03555 0.0
H120 H 0.27243 0.08129 0.01306 0.0
H121 H 0.34587 0.98353 0.90149 0.0
H122 H 0.34922 0.98227 0.94709 0.0
H123 H 0.31444 0.07075 0.95012 0.0
H124 H 0.31057 0.07197 0.90502 0.0
H125 H 0.28802 0.03676 0.98342 0.0
H126 H 0.38816 0.0562 0.95807 0.0
H127 H 0.43465 0.04631 0.93584 0.0
H128 H 0.44354 0.96375 0.97471 0.0
H129 H 0.39687 0.97298 -0.00305 0.0
C130 C 0.33183 0.06185 0.09643 0.0
C131 C 0.34017 0.03774 0.11138 0.0
C132 C 0.33074 0.05911 0.07057 0.0
C133 C 0.33802 0.03225 0.05926 0.0
C134 C 0.347 0.00836 0.0741 0.0
C135 C 0.34791 0.01102 0.09995 0.0
C136 C 0.33579 0.02896 0.03195 0.0
C137 C 0.3612 0.02171 0.01839 0.0
C138 C 0.30903 0.03412 0.01921 0.0
C139 C 0.28112 0.04027 0.03264 0.0
C140 C 0.27061 0.02057 0.05092 0.0
C141 C 0.24443 0.0266 0.06364 0.0
C142 C 0.22845 0.05216 0.05812 0.0
C143 C 0.23858 0.07171 0.03983 0.0
C144 C 0.26477 0.06581 0.02707 0.0
C145 C 0.33895 0.00265 0.91194 0.0
C146 C 0.32794 0.02782 0.89968 0.0
C147 C 0.34097 0.00196 0.93795 0.0
C148 C 0.33222 0.02651 0.95199 0.0
C149 C 0.32121 0.05154 0.9397 0.0
C150 C 0.3191 0.0522 0.91387 0.0
C151 C 0.33414 0.02641 0.97952 0.0
C152 C 0.30859 0.03292 -0.00682 0.0
C153 C 0.36081 0.02069 -0.0077 0.0
C154 C 0.38886 0.01512 0.97895 0.0
C155 C 0.3999 0.03582 0.96172 0.0
C156 C 0.4263 0.03036 0.94915 0.0
C157 C 0.44199 0.00438 0.9538 0.0
C158 C 0.43134 0.98384 0.97109 0.0
C159 C 0.40492 0.98918 0.98369 0.0
H160 H 0.46244 0.0002 0.94405 0.0
H161 H 0.20819 0.05678 0.06799 0.0
H162 H 0.07164 0.37253 0.58903 0.0
H163 H 0.06777 0.38242 0.54451 0.0
H164 H 0.97297 0.37958 0.54985 0.0
H165 H 0.97672 0.36988 0.59476 0.0
H166 H -0.00383 0.34093 0.51544 0.0
H167 H 0.00422 0.44279 0.53395 0.0
H168 H 0.02442 0.48754 0.55325 0.0
H169 H 0.10693 0.47373 0.51596 0.0
H170 H 0.0874 0.42863 0.4967 0.0
H171 H 0.98699 0.35917 0.38557 0.0
H172 H 0.98058 0.36947 0.42972 0.0
H173 H 0.0747 0.3781 0.43802 0.0
H174 H 0.08127 0.36842 0.39355 0.0
H175 H 0.04536 0.41896 0.46536 0.0
H176 H 0.0406 0.31401 0.45273 0.0
H177 H 0.02205 0.26824 0.4339 0.0
H178 H 0.93515 0.28695 0.46127 0.0
H179 H 0.95313 0.33307 0.47999 0.0
C180 C 0.04994 0.37457 0.58082 0.0
C181 C 0.02447 0.37019 0.59525 0.0
C182 C 0.04776 0.38045 0.55542 0.0
C183 C 0.02009 0.38188 0.54394 0.0
C184 C -0.00548 0.37871 0.55846 0.0
C185 C -0.00332 0.37321 0.58404 0.0
C186 C 0.01839 0.38283 0.51647 0.0
C187 C 0.00622 0.35839 0.50444 0.0
C188 C 0.03237 0.40517 0.50227 0.0
C189 C 0.04437 0.43217 0.51399 0.0
C190 C 0.02677 0.44912 0.53003 0.0
C191 C 0.03808 0.4746 0.54093 0.0
C192 C 0.06695 0.48345 0.53586 0.0
C193 C 0.08457 0.46684 0.51987 0.0
C194 C 0.07336 0.44134 0.50893 0.0
C195 C 0.00634 0.36346 0.39674 0.0
C196 C 0.03469 0.36262 0.38619 0.0
C197 C 0.00262 0.36934 0.42196 0.0
C198 C 0.02718 0.37409 0.4372 0.0
C199 C 0.05545 0.37445 0.42656 0.0
C200 C 0.05919 0.36877 0.40121 0.0
C201 C 0.0235 0.37689 0.46446 0.0
C202 C 0.03479 0.40186 0.47638 0.0
C203 C 0.00896 0.3549 0.47869 0.0
C204 C -0.00187 0.32715 0.46749 0.0
C205 C 0.01748 0.30848 0.45456 0.0
C206 C 0.00709 0.28246 0.44394 0.0
C207 C 0.97742 0.27474 0.44632 0.0
C208 C 0.95811 0.29299 0.4594 0.0
C209 C 0.96839 0.31907 0.47002 0.0
H210 H 0.96941 0.25458 0.43809 0.0
H211 H 0.07565 0.50321 0.54428 0.0
H212 H 0.7047 0.08863 0.88507 0.0
H213 H 0.69162 0.09085 0.92937 0.0
H214 H 0.71707 -0.00024 0.93855 0.0
H215 H 0.73008 -0.00265 0.89463 0.0
H216 H 0.6661 0.01358 0.96487 0.0
H217 H 0.7652 0.05199 0.95164 0.0
H218 H 0.80145 0.08593 0.9328 0.0
H219 H 0.75471 0.16001 0.96279 0.0
H220 H 0.71796 0.12646 0.98155 0.0
H221 H 0.71523 -0.0071 0.08916 0.0
H222 H 0.70352 -0.00434 0.04474 0.0
H223 H 0.69181 0.08987 0.05051 0.0
H224 H 0.70494 0.08726 0.09446 0.0
H225 H 0.72808 0.07971 0.01586 0.0
H226 H 0.63363 0.04079 0.03567 0.0
H227 H 0.59751 0.00695 0.05478 0.0
H228 H 0.63356 0.93484 0.0133 0.0
H229 H 0.67017 0.96815 -0.00582 0.0
C230 C 0.70722 0.06905 0.89653 0.0
C231 C 0.71876 0.04295 0.8865 0.0
C232 C 0.6997 0.07032 0.92175 0.0
C233 C 0.70352 0.04547 0.93717 0.0
C234 C 0.71385 0.01911 0.92692 0.0
C235 C 0.72152 0.01788 0.90186 0.0
C236 C 0.69942 0.04731 0.9644 0.0
C237 C 0.67955 0.02802 0.97615 0.0
C238 C 0.71652 0.06665 0.97891 0.0
C239 C 0.73865 0.08677 0.96771 0.0
C240 C 0.76253 0.07553 0.95404 0.0
C241 C 0.78319 0.09469 0.94341 0.0
C242 C 0.78033 0.12512 0.94652 0.0
C243 C 0.75686 0.13644 0.96034 0.0
C244 C 0.73611 0.11737 0.97098 0.0
C245 C 0.70944 0.01402 0.08099 0.0
C246 C 0.71125 0.0399 0.09502 0.0
C247 C 0.70259 0.01561 0.05565 0.0
C248 C 0.69672 0.04302 0.04422 0.0
C249 C 0.69645 0.06853 0.05881 0.0
C250 C 0.70391 0.06702 0.08391 0.0
C251 C 0.69484 0.04569 0.01673 0.0
C252 C 0.71387 0.06574 0.00482 0.0
C253 C 0.67681 0.02713 0.00218 0.0
C254 C 0.65479 0.00697 0.01361 0.0
C255 C 0.634 0.01768 0.03075 0.0
C256 C 0.61341 -0.00141 0.04156 0.0
C257 C 0.61327 0.96876 0.03529 0.0
C258 C 0.63369 0.95796 0.01815 0.0
C259 C 0.65435 0.97694 0.00728 0.0
H260 H 0.59731 0.95402 0.04369 0.0
H261 H 0.79635 0.13991 0.93828 0.0
H262 H 0.98431 0.69585 0.3798 0.0
H263 H 0.98126 0.68223 0.42409 0.0
H264 H 0.07457 0.69742 0.43188 0.0
H265 H 0.07768 0.71129 0.38804 0.0
H266 H 0.05345 0.64808 0.46013 0.0
H267 H 0.03106 0.75196 0.44329 0.0
H268 H 0.00267 0.79177 0.42295 0.0
H269 H 0.92276 0.75797 0.45506 0.0
H270 H 0.95069 0.71769 0.4753 0.0
H271 H 0.08554 0.69935 0.58142 0.0
H272 H 0.07947 0.68694 0.53745 0.0
H273 H 0.98497 0.69153 0.54588 0.0
H274 H 0.99103 0.70512 0.58937 0.0
H275 H -0.00038 0.72326 0.50902 0.0
H276 H 0.02259 0.6251 0.53288 0.0
H277 H 0.04982 0.58434 0.55295 0.0
H278 H 0.12604 0.60441 0.5086 0.0
H279 H 0.0994 0.64554 0.48848 0.0
C280 C 0.0042 0.69569 0.3909 0.0
C281 C 0.03113 0.70502 0.38068 0.0
C282 C 0.00246 0.68787 0.41611 0.0
C283 C 0.0277 0.68897 0.4312 0.0
C284 C 0.05489 0.69632 0.42053 0.0
C285 C 0.05656 0.7045 0.39555 0.0
C286 C 0.02554 0.68642 0.45857 0.0
C287 C 0.04166 0.66438 0.47096 0.0
C288 C 0.00958 0.70732 0.47252 0.0
C289 C -0.00713 0.73164 0.46052 0.0
C290 C 0.0074 0.7529 0.44584 0.0
C291 C -0.00859 0.77556 0.43436 0.0
C292 C 0.96092 0.77734 0.43764 0.0
C293 C 0.94637 0.75652 0.45248 0.0
C294 C 0.96226 0.73377 0.46396 0.0
C295 C 0.06351 0.69721 0.57392 0.0
C296 C 0.03877 0.70354 0.58863 0.0
C297 C 0.06002 0.6899 0.54884 0.0
C298 C 0.03171 0.68816 0.53831 0.0
C299 C 0.00701 0.69288 0.55349 0.0
C300 C 0.01051 0.70068 0.57834 0.0
C301 C 0.02789 0.68499 0.51102 0.0
C302 C 0.01081 0.70625 0.4985 0.0
C303 C 0.04275 0.66313 0.49709 0.0
C304 C 0.05902 0.63857 0.50928 0.0
C305 C 0.04524 0.62099 0.52755 0.0
C306 C 0.06055 0.59778 0.5389 0.0
C307 C 0.08965 0.59182 0.53208 0.0
C308 C 0.10349 0.60905 0.51387 0.0
C309 C 0.08827 0.63229 0.50245 0.0
H310 H 0.10146 0.57381 0.54088 0.0
H311 H 0.94857 0.7949 0.42875 0.0
H312 H 0.4283 0.10162 0.22622 0.0
H313 H 0.48001 0.10787 0.23769 0.0
H314 H 0.49313 0.01382 0.23347 0.0
H315 H 0.44134 0.00731 0.22249 0.0
H316 H 0.5255 0.03832 0.27133 0.0
H317 H 0.50651 0.05679 0.18342 0.0
H318 H 0.48199 0.08205 0.1483 0.0
H319 H 0.51416 0.16544 0.17399 0.0
H320 H 0.53857 0.14066 0.20946 0.0
H321 H 0.66546 0.00942 0.22165 0.0
H322 H 0.6155 0.01575 0.23719 0.0
H323 H 0.62591 0.11028 0.23398 0.0
H324 H 0.67578 0.10405 0.21763 0.0
H325 H 0.58138 0.09466 0.2075 0.0
H326 H 0.61089 0.07301 0.29 0.0
H327 H 0.63617 0.04656 0.32404 0.0
H328 H 0.58589 0.9687 0.30869 0.0
H329 H 0.56059 -0.00549 0.27432 0.0
C330 C 0.4421 0.08223 0.22809 0.0
C331 C 0.43093 0.05401 0.22306 0.0
C332 C 0.47159 0.08584 0.23471 0.0
C333 C 0.49043 0.06134 0.2361 0.0
C334 C 0.47891 0.033 0.23253 0.0
C335 C 0.44938 0.02935 0.22606 0.0
C336 C 0.52265 0.0653 0.23832 0.0
C337 C 0.53787 0.05063 0.25746 0.0
C338 C 0.53856 0.08208 0.22059 0.0
C339 C 0.52402 0.09695 0.19923 0.0
C340 C 0.50816 0.08054 0.18167 0.0
C341 C 0.49432 0.09476 0.16169 0.0
C342 C 0.49643 0.12534 0.15896 0.0
C343 C 0.51248 0.14176 0.17616 0.0
C344 C 0.52632 0.12764 0.1962 0.0
C345 C 0.65744 0.03156 0.22491 0.0
C346 C 0.67432 0.05625 0.21801 0.0
C347 C 0.62888 0.03517 0.23403 0.0
C348 C 0.6169 0.06352 0.23679 0.0
C349 C 0.63469 0.08821 0.23193 0.0
C350 C 0.66316 0.08461 0.22256 0.0
C351 C 0.58469 0.06709 0.24026 0.0
C352 C 0.56928 0.08308 0.22199 0.0
C353 C 0.56878 0.05141 0.25876 0.0
C354 C 0.5839 0.03572 0.27947 0.0
C355 C 0.60535 0.05019 0.29375 0.0
C356 C 0.61967 0.03531 0.31314 0.0
C357 C 0.61267 0.00596 0.31851 0.0
C358 C 0.59129 0.99144 0.30452 0.0
C359 C 0.5769 0.00621 0.28511 0.0
H360 H 0.62378 -0.00552 0.33352 0.0
H361 H 0.48571 0.13631 0.14348 0.0
H362 H 0.08433 0.42574 0.71069 0.0
H363 H 0.08129 0.47633 0.72553 0.0
H364 H 0.98926 0.46401 0.74278 0.0
H365 H -0.00794 0.41336 0.72774 0.0
H366 H -0.00219 0.50794 0.7103 0.0
H367 H 0.03763 0.4813 0.78887 0.0
H368 H 0.07189 0.45733 0.81826 0.0
H369 H 0.14349 0.50848 0.78864 0.0
H370 H 0.10977 0.53247 0.75881 0.0
H371 H -0.00772 0.66092 0.71946 0.0
H372 H 0.98886 0.61081 0.73636 0.0
H373 H 0.08178 0.59813 0.72307 0.0
H374 H 0.08555 0.64845 0.7071 0.0
H375 H 0.0652 0.56681 0.76279 0.0
H376 H 0.02997 0.58155 0.67833 0.0
H377 H -0.00155 0.60419 0.64606 0.0
H378 H 0.92117 0.57333 0.68431 0.0
H379 H 0.95229 0.55081 0.71698 0.0
C380 C 0.06364 0.43351 0.71829 0.0
C381 C 0.03832 0.41574 0.71767 0.0
C382 C 0.06198 0.4624 0.72696 0.0
C383 C 0.03503 0.47394 0.73528 0.0
C384 C 0.01027 0.4555 0.73646 0.0
C385 C 0.01191 0.42658 0.72782 0.0
C386 C 0.0317 0.50621 0.73832 0.0
C387 C 0.01191 0.52075 0.7224 0.0
C388 C 0.0507 0.52293 0.75353 0.0
C389 C 0.07113 0.50861 0.77149 0.0
C390 C 0.06071 0.4873 0.78848 0.0
C391 C 0.08004 0.47373 0.80526 0.0
C392 C 0.10985 0.48135 0.8053 0.0
C393 C 0.12039 0.50261 0.7886 0.0
C394 C 0.10116 0.51624 0.77178 0.0
C395 C 0.01211 0.64768 0.72073 0.0
C396 C 0.03907 0.65835 0.71153 0.0
C397 C 0.01013 0.61907 0.73039 0.0
C398 C 0.03492 0.6005 0.7304 0.0
C399 C 0.06233 0.61201 0.72316 0.0
C400 C 0.06442 0.64075 0.71389 0.0
C401 C 0.03178 0.56829 0.73441 0.0
C402 C 0.05044 0.55385 0.75141 0.0
C403 C 0.0121 0.55145 0.71987 0.0
C404 C -0.0066 0.56486 0.70023 0.0
C405 C 0.00625 0.57978 0.67992 0.0
C406 C 0.98847 0.59256 0.66157 0.0
C407 C 0.95782 0.59029 0.66318 0.0
C408 C 0.94491 0.57515 0.68313 0.0
C409 C 0.96259 0.56237 0.70156 0.0
H410 H 0.94409 0.6002 0.64895 0.0
H411 H 0.12478 0.47082 0.8183 0.0
H412 H 0.66081 0.05665 0.74729 0.0
H413 H 0.60796 0.05747 0.73805 0.0
H414 H 0.59378 0.98915 0.79315 0.0
H415 H 0.6464 0.98693 0.80109 0.0
H416 H 0.55598 0.98174 0.7602 0.0
H417 H 0.58902 0.0679 0.80521 0.0
H418 H 0.61835 0.11304 0.81128 0.0
H419 H 0.58116 0.15094 0.74494 0.0
H420 H 0.55183 0.10585 0.73837 0.0
H421 H 0.42665 0.06783 0.81894 0.0
H422 H 0.47823 0.06468 0.80673 0.0
H423 H 0.45431 0.01062 0.74411 0.0
H424 H 0.40267 0.01215 0.75741 0.0
H425 H 0.51037 0.08016 0.77143 0.0
H426 H 0.5094 0.96352 0.72988 0.0
H427 H 0.48103 0.91721 0.73277 0.0
H428 H 0.45523 0.93836 0.80743 0.0
H429 H 0.4837 0.9846 0.80505 0.0
C430 C 0.64641 0.04132 0.75691 0.0
C431 C 0.65763 0.02195 0.77508 0.0
C432 C 0.6162 0.04194 0.75177 0.0
C433 C 0.59666 0.02397 0.76541 0.0
C434 C 0.60823 0.00331 0.78237 0.0
C435 C 0.63842 0.00211 0.78698 0.0
C436 C 0.56419 0.02827 0.76408 0.0
C437 C 0.54602 0.00332 0.76241 0.0
C438 C 0.55101 0.05634 0.76722 0.0
C439 C 0.56857 0.08342 0.77113 0.0
C440 C 0.58726 0.08581 0.79186 0.0
C441 C 0.60385 0.11138 0.79539 0.0
C442 C 0.6017 0.1348 0.77846 0.0
C443 C 0.58287 0.13274 0.758 0.0
C444 C 0.56626 0.1072 0.75436 0.0
C445 C 0.43238 0.0554 0.80249 0.0
C446 C 0.41078 0.03998 0.78927 0.0
C447 C 0.4619 0.05369 0.79543 0.0
C448 C 0.47039 0.03703 0.77467 0.0
C449 C 0.44852 0.02296 0.76057 0.0
C450 C 0.41901 0.02398 0.76809 0.0
C451 C 0.50225 0.03347 0.76885 0.0
C452 C 0.52027 0.05862 0.76879 0.0
C453 C 0.51539 0.00542 0.76546 0.0
C454 C 0.49831 0.97766 0.76713 0.0
C455 C 0.49768 0.95824 0.7469 0.0
C456 C 0.4816 0.93202 0.74846 0.0
C457 C 0.46623 0.92491 0.77023 0.0
C458 C 0.46703 0.94395 0.79054 0.0
C459 C 0.48311 0.97017 0.78909 0.0
H460 H 0.45378 0.90462 0.77139 0.0
H461 H 0.61456 0.15458 0.78123 0.0
H462 H 0.0139 0.43167 0.2619 0.0
H463 H 0.02374 0.48173 0.24734 0.0
H464 H 0.11721 0.46609 0.25368 0.0
H465 H 0.10752 0.41588 0.26847 0.0
H466 H 0.09965 0.51259 0.28033 0.0
H467 H 0.08742 0.48128 0.19697 0.0
H468 H 0.0638 0.45572 0.16197 0.0
H469 H 0.98669 0.50971 0.17014 0.0
H470 H 0.00965 0.53533 0.20543 0.0
H471 H 0.11007 0.66506 0.26577 0.0
H472 H 0.11894 0.61436 0.2524 0.0
H473 H 0.02542 0.60171 0.24299 0.0
H474 H 0.01652 0.65248 0.25539 0.0
H475 H 0.05459 0.56874 0.21054 0.0
H476 H 0.05979 0.58797 0.29937 0.0
H477 H 0.07953 0.6123 0.3367 0.0
H478 H 0.16597 0.5792 0.32008 0.0
H479 H 0.14675 0.55498 0.28245 0.0
C480 C 0.03658 0.43863 0.25967 0.0
C481 C 0.05993 0.41998 0.26662 0.0
C482 C 0.04218 0.4672 0.25112 0.0
C483 C 0.07123 0.47759 0.24929 0.0
C484 C 0.09465 0.45844 0.25487 0.0
C485 C 0.08906 0.42979 0.26334 0.0
C486 C 0.07663 0.50948 0.24542 0.0
C487 C 0.09063 0.52478 0.26464 0.0
C488 C 0.06417 0.5254 0.22529 0.0
C489 C 0.05026 0.51018 0.20395 0.0
C490 C 0.06535 0.48759 0.19142 0.0
C491 C 0.05209 0.4731 0.1715 0.0
C492 C 0.02376 0.48107 0.16385 0.0
C493 C 0.00865 0.50358 0.17608 0.0
C494 C 0.02181 0.51814 0.19601 0.0
C495 C 0.09149 0.6517 0.26018 0.0
C496 C 0.06256 0.66251 0.2621 0.0
C497 C 0.09658 0.62274 0.25257 0.0
C498 C 0.07278 0.60404 0.24732 0.0
C499 C 0.04413 0.61567 0.24706 0.0
C500 C 0.03906 0.64471 0.2543 0.0
C501 C 0.07689 0.57167 0.24576 0.0
C502 C 0.06455 0.55638 0.2257 0.0
C503 C 0.09041 0.55559 0.26534 0.0
C504 C 0.10194 0.57003 0.28797 0.0
C505 C 0.08304 0.58606 0.30361 0.0
C506 C 0.09412 0.59981 0.32481 0.0
C507 C 0.124 0.59738 0.33071 0.0
C508 C 0.14285 0.58113 0.31545 0.0
C509 C 0.13188 0.5674 0.29418 0.0
H510 H 0.13255 0.60803 0.34714 0.0
H511 H 0.01352 0.46982 0.14843 0.0
H512 H 0.12708 0.28528 0.28461 0.0
H513 H 0.16027 0.25007 0.26501 0.0
H514 H 0.10713 0.17809 0.29267 0.0
H515 H 0.07437 0.21332 0.31319 0.0
H516 H 0.16208 0.16335 0.29581 0.0
H517 H 0.10265 0.20266 0.23106 0.0
H518 H 0.07836 0.24086 0.20544 0.0
H519 H 0.16275 0.27455 0.183 0.0
H520 H 0.18756 0.2368 0.20878 0.0
H521 H 0.23374 0.06349 0.21251 0.0
H522 H 0.1937 0.09409 0.22897 0.0
H523 H 0.24919 0.17095 0.22332 0.0
H524 H 0.2894 0.14052 0.20729 0.0
H525 H 0.18838 0.17903 0.20704 0.0
H526 H 0.24605 0.13973 0.27635 0.0
H527 H 0.26792 0.09891 0.30065 0.0
H528 H 0.18203 0.0617 0.31234 0.0
H529 H 0.1597 0.10212 0.28778 0.0
C530 C 0.12258 0.26194 0.28671 0.0
C531 C 0.09801 0.25207 0.30031 0.0
C532 C 0.14145 0.24182 0.27532 0.0
C533 C 0.13576 0.21143 0.27677 0.0
C534 C 0.11185 0.20144 0.29113 0.0
C535 C 0.09318 0.22159 0.30289 0.0
C536 C 0.15477 0.19026 0.26315 0.0
C537 C 0.16736 0.16655 0.27629 0.0
C538 C 0.16177 0.19431 0.23763 0.0
C539 C 0.14697 0.21703 0.22202 0.0
C540 C 0.11604 0.21834 0.2208 0.0
C541 C 0.10217 0.2399 0.20623 0.0
C542 C 0.119 0.26016 0.19264 0.0
C543 C 0.14974 0.25885 0.19355 0.0
C544 C 0.16372 0.23736 0.20812 0.0
C545 C 0.2372 0.08699 0.21439 0.0
C546 C 0.26469 0.09965 0.20874 0.0
C547 C 0.21439 0.10438 0.22386 0.0
C548 C 0.21865 0.13468 0.22747 0.0
C549 C 0.24554 0.14759 0.22063 0.0
C550 C 0.26847 0.13018 0.21156 0.0
C551 C 0.19593 0.15276 0.23988 0.0
C552 C 0.18268 0.17581 0.22647 0.0
C553 C 0.18787 0.14776 0.26497 0.0
C554 C 0.20126 0.12374 0.28001 0.0
C555 C 0.23187 0.12271 0.28394 0.0
C556 C 0.24434 0.09968 0.29778 0.0
C557 C 0.22639 0.07768 0.30797 0.0
C558 C 0.19591 0.07873 0.3044 0.0
C559 C 0.18334 0.1017 0.29054 0.0
H560 H 0.23608 0.05985 0.31867 0.0
H561 H 0.10823 0.27683 0.18137 0.0
H562 H 0.96827 0.22792 0.65216 0.0
H563 H 0.9317 0.19564 0.67174 0.0
H564 H 0.92616 0.2545 0.73423 0.0
H565 H 0.96235 0.28701 0.71475 0.0
H566 H 0.93527 0.16592 0.71478 0.0
H567 H 0.85684 0.25262 0.75825 0.0
H568 H 0.83824 0.30263 0.74899 0.0
H569 H 0.85303 0.28898 0.67101 0.0
H570 H 0.87132 0.23877 0.67976 0.0
H571 H 0.85351 0.10343 0.81308 0.0
H572 H 0.88278 0.13816 0.78853 0.0
H573 H 0.81222 0.14598 0.73526 0.0
H574 H 0.78262 0.11123 0.75974 0.0
H575 H 0.83793 0.19972 0.74567 0.0
H576 H 0.86797 0.10282 0.72169 0.0
H577 H 0.8851 0.05181 0.72855 0.0
H578 H 0.96433 0.08402 0.76234 0.0
H579 H 0.94746 0.13525 0.75601 0.0
C580 C 0.95909 0.23414 0.66995 0.0
C581 C 0.96828 0.26007 0.68186 0.0
C582 C 0.93825 0.21563 0.68115 0.0
C583 C 0.92604 0.22277 0.70435 0.0
C584 C 0.93494 0.24876 0.71615 0.0
C585 C 0.95577 0.26726 0.70501 0.0
C586 C 0.905 0.20245 0.7168 0.0
C587 C 0.91396 0.17331 0.72145 0.0
C588 C 0.87701 0.21196 0.72521 0.0
C589 C 0.86569 0.24201 0.71971 0.0
C590 C 0.856 0.26024 0.73912 0.0
C591 C 0.84553 0.28864 0.73396 0.0
C592 C 0.84454 0.29901 0.70944 0.0
C593 C 0.85392 0.28097 0.69001 0.0
C594 C 0.86437 0.25255 0.69506 0.0
C595 C 0.84403 0.11271 0.79628 0.0
C596 C 0.81576 0.10436 0.7883 0.0
C597 C 0.86087 0.13248 0.78223 0.0
C598 C 0.8498 0.14432 0.75993 0.0
C599 C 0.82117 0.137 0.75239 0.0
C600 C 0.80434 0.11708 0.76638 0.0
C601 C 0.86857 0.16351 0.74412 0.0
C602 C 0.8592 0.19238 0.73889 0.0
C603 C 0.89602 0.15365 0.73483 0.0
C604 C 0.90632 0.12287 0.73856 0.0
C605 C 0.88894 0.09903 0.73075 0.0
C606 C 0.89862 0.07007 0.73452 0.0
C607 C 0.92576 0.06467 0.74593 0.0
C608 C 0.9433 0.08823 0.75353 0.0
C609 C 0.9337 0.11724 0.74984 0.0
H610 H 0.93322 0.04224 0.74883 0.0
H611 H 0.83645 0.321 0.70548 0.0
H612 H 0.94457 0.82692 0.31538 0.0
H613 H 0.91014 0.85606 0.29027 0.0
H614 H 0.94629 0.81855 0.22337 0.0
H615 H 0.98065 0.78914 0.24826 0.0
H616 H 0.94403 0.88034 0.2229 0.0
H617 H 0.88001 0.79865 0.23975 0.0
H618 H 0.85448 0.76206 0.26614 0.0
H619 H 0.81037 0.83163 0.30515 0.0
H620 H 0.83597 0.86869 0.27923 0.0
H621 H 0.8425 0.95674 0.14521 0.0
H622 H 0.87122 0.91704 0.16457 0.0
H623 H 0.83131 0.93625 0.23555 0.0
H624 H 0.80195 0.97508 0.21626 0.0
H625 H 0.83513 0.87957 0.23073 0.0
H626 H 0.90185 0.96093 0.21874 0.0
H627 H 0.92828 -0.00081 0.19474 0.0
H628 H 0.96822 0.93249 0.14949 0.0
H629 H 0.94172 0.89385 0.17305 0.0
C630 C 0.94496 0.82457 0.29534 0.0
C631 C 0.96542 0.80577 0.28382 0.0
C632 C 0.92521 0.84117 0.28104 0.0
C633 C 0.92568 0.83937 0.25499 0.0
C634 C 0.94561 0.82019 0.24345 0.0
C635 C 0.96514 0.80334 0.25774 0.0
C636 C 0.90663 0.85894 0.23979 0.0
C637 C 0.92017 0.87984 0.22421 0.0
C638 C 0.87562 0.8587 0.24208 0.0
C639 C 0.86011 0.83646 0.25767 0.0
C640 C 0.86506 0.80617 0.2541 0.0
C641 C 0.85053 0.78533 0.26895 0.0
C642 C 0.83086 0.79451 0.28735 0.0
C643 C 0.82563 0.82455 0.2909 0.0
C644 C 0.84012 0.84548 0.27611 0.0
C645 C 0.83977 0.95238 0.16491 0.0
C646 C 0.82005 0.96918 0.1792 0.0
C647 C 0.85626 0.92976 0.17598 0.0
C648 C 0.85375 0.92391 0.20162 0.0
C649 C 0.83363 0.94028 0.21575 0.0
C650 C 0.8169 0.96258 0.20468 0.0
C651 C 0.87251 0.90136 0.21404 0.0
C652 C 0.85896 0.87989 0.22914 0.0
C653 C 0.90359 0.90136 0.21162 0.0
C654 C 0.91954 0.92454 0.19745 0.0
C655 C 0.91609 0.95445 0.20355 0.0
C656 C 0.93112 0.9762 0.19005 0.0
C657 C 0.94985 0.96828 0.17055 0.0
C658 C 0.95366 0.93859 0.16456 0.0
C659 C 0.93865 0.91676 0.17798 0.0
H660 H 0.96146 0.98515 0.16013 0.0
H661 H 0.81964 0.77835 0.29883 0.0
H662 H 0.10206 0.85173 0.65494 0.0
H663 H 0.13657 0.88264 0.6778 0.0
H664 H 0.16652 0.80645 0.71922 0.0
H665 H 0.13125 0.77568 0.6971 0.0
H666 H 0.15636 0.84765 0.74983 0.0
H667 H 0.21027 0.84274 0.67397 0.0
H668 H 0.21859 0.84614 0.62871 0.0
H669 H 0.19721 0.93835 0.62986 0.0
H670 H 0.18838 0.93544 0.6751 0.0
H671 H 0.28866 0.95591 0.77174 0.0
H672 H 0.26374 0.91884 0.74659 0.0
H673 H 0.18106 0.94073 0.78163 0.0
H674 H 0.20591 0.97715 0.80732 0.0
H675 H 0.22299 0.92261 0.71273 0.0
H676 H 0.13694 0.88208 0.78549 0.0
H677 H 0.13306 0.87494 0.83091 0.0
H678 H 0.22704 0.86603 0.83603 0.0
H679 H 0.23146 0.87272 0.79062 0.0
C680 C 0.11635 0.84148 0.66862 0.0
C681 C 0.11385 0.81128 0.67428 0.0
C682 C 0.13617 0.85918 0.68165 0.0
C683 C 0.15435 0.8469 0.70019 0.0
C684 C 0.15266 0.8165 0.70512 0.0
C685 C 0.13255 0.79891 0.69239 0.0
C686 C 0.17352 0.86599 0.71565 0.0
C687 C 0.17103 0.86391 0.74166 0.0
C688 C 0.19311 0.88692 0.70512 0.0
C689 C 0.19844 0.88881 0.67791 0.0
C690 C 0.20714 0.8637 0.66455 0.0
C691 C 0.21198 0.86555 0.6389 0.0
C692 C 0.20837 0.89243 0.62641 0.0
C693 C 0.19998 0.91754 0.63956 0.0
C694 C 0.19509 0.91581 0.66521 0.0
C695 C 0.2652 0.95268 0.77423 0.0
C696 C 0.24931 0.96938 0.79166 0.0
C697 C 0.25097 0.93155 0.75976 0.0
C698 C 0.22058 0.92675 0.76237 0.0
C699 C 0.20464 0.94357 0.77963 0.0
C700 C 0.21888 0.96447 0.79427 0.0
C701 C 0.20537 0.90453 0.7468 0.0
C702 C 0.2085 0.90613 0.72083 0.0
C703 C 0.18699 0.88257 0.75735 0.0
C704 C 0.18452 0.87816 0.78467 0.0
C705 C 0.15676 0.87847 0.7963 0.0
C706 C 0.15447 0.87452 0.82204 0.0
C707 C 0.17979 0.87012 0.83636 0.0
C708 C 0.20746 0.86955 0.82494 0.0
C709 C 0.20987 0.87345 0.7992 0.0
H710 H 0.17798 0.86709 0.85629 0.0
H711 H 0.21213 0.89381 0.60655 0.0
H712 H 0.78686 0.9618 0.75696 0.0
H713 H 0.81238 0.92372 0.73307 0.0
H714 H 0.86374 0.90041 0.79775 0.0
H715 H 0.83851 0.93832 0.82171 0.0
H716 H 0.87279 0.92454 0.72514 0.0
H717 H 0.88067 0.82636 0.79425 0.0
H718 H 0.85095 0.80309 0.82742 0.0
H719 H 0.77174 0.83584 0.79345 0.0
H720 H 0.80092 0.85894 0.75989 0.0
H721 H 0.97946 0.79157 0.71871 0.0
H722 H 0.9415 0.8187 0.74163 0.0
H723 H 0.90178 0.84582 0.67222 0.0
H724 H 0.94017 0.81989 0.64934 0.0
H725 H 0.88329 0.81823 0.74577 0.0
H726 H 0.87785 0.91542 0.67539 0.0
H727 H 0.90961 0.94018 0.64437 0.0
H728 H 0.98663 0.91172 0.68418 0.0
H729 H 0.95534 0.88715 0.71559 0.0
C730 C 0.80325 0.94824 0.76619 0.0
C731 C 0.81086 0.95321 0.79115 0.0
C732 C 0.81779 0.92655 0.75253 0.0
C733 C 0.83977 0.90922 0.76372 0.0
C734 C 0.84657 0.91334 0.78887 0.0
C735 C 0.83228 0.93516 0.80247 0.0
C736 C 0.85777 0.88895 0.74861 0.0
C737 C 0.87461 0.90115 0.72926 0.0
C738 C 0.86087 0.85873 0.75472 0.0
C739 C 0.84304 0.8446 0.77466 0.0
C740 C 0.8569 0.82849 0.79379 0.0
C741 C 0.84015 0.81534 0.81268 0.0
C742 C 0.80948 0.81805 0.81258 0.0
C743 C 0.7955 0.83385 0.79356 0.0
C744 C 0.81215 0.84702 0.77462 0.0
C745 C 0.96248 0.80317 0.70841 0.0
C746 C 0.96302 0.80411 0.68229 0.0
C747 C 0.94077 0.81855 0.72149 0.0
C748 C 0.9192 0.83478 0.70861 0.0
C749 C 0.91867 0.83409 0.68253 0.0
C750 C 0.9406 0.81924 0.66949 0.0
C751 C 0.89832 0.85386 0.72228 0.0
C752 C 0.88114 0.84153 0.74142 0.0
C753 C 0.8952 0.88417 0.7163 0.0
C754 C 0.91424 0.89916 0.69766 0.0
C755 C 0.90156 0.91453 0.67755 0.0
C756 C 0.91948 0.92852 0.6599 0.0
C757 C 0.95012 0.92743 0.66225 0.0
C758 C 0.96291 0.91245 0.68232 0.0
C759 C 0.94509 0.89846 0.70004 0.0
H760 H 0.96395 0.93825 0.64856 0.0
H761 H 0.79656 0.80787 0.82723 0.0
H762 H 0.32453 0.92946 0.22197 0.0
H763 H 0.2923 0.89125 0.23935 0.0
H764 H 0.24094 0.95794 0.27636 0.0
H765 H 0.27283 -0.00373 0.25893 0.0
H766 H 0.25041 0.90543 0.30518 0.0
H767 H 0.21886 0.93664 0.22233 0.0
H768 H 0.22651 0.94476 0.17737 0.0
H769 H 0.2467 0.85297 0.16814 0.0
H770 H 0.23957 0.84441 0.21316 0.0
H771 H 0.10703 0.85563 0.32269 0.0
H772 H 0.15162 0.88158 0.31031 0.0
H773 H 0.17926 0.80639 0.26741 0.0
H774 H 0.13404 0.78037 0.27927 0.0
H775 H 0.18852 0.8555 0.24219 0.0
H776 H 0.21219 0.82208 0.32346 0.0
H777 H 0.20504 0.8131 0.36834 0.0
H778 H 0.20142 0.90636 0.38112 0.0
H779 H 0.20811 0.91593 0.33626 0.0
C780 C 0.30674 0.93593 0.23424 0.0
C781 C 0.30098 0.96584 0.23894 0.0
C782 C 0.28836 0.9141 0.24408 0.0
C783 C 0.26417 0.9219 0.25889 0.0
C784 C 0.25955 0.95156 0.26495 0.0
C785 C 0.27771 0.97341 0.25492 0.0
C786 C 0.24196 0.89972 0.26616 0.0
C787 C 0.2368 0.89448 0.2915 0.0
C788 C 0.22495 0.88484 0.24817 0.0
C789 C 0.22906 0.88996 0.22112 0.0
C790 C 0.22519 0.91825 0.21074 0.0
C791 C 0.22938 0.92292 0.18525 0.0
C792 C 0.23719 0.89941 0.16992 0.0
C793 C 0.24072 0.87116 0.18005 0.0
C794 C 0.2366 0.86639 0.20554 0.0
C795 C 0.12255 0.84454 0.31062 0.0
C796 C 0.11706 0.81587 0.30206 0.0
C797 C 0.14817 0.85934 0.30371 0.0
C798 C 0.16911 0.84565 0.28843 0.0
C799 C 0.16349 0.81724 0.2794 0.0
C800 C 0.13764 0.80245 0.28615 0.0
C801 C 0.1963 0.86166 0.28136 0.0
C802 C 0.20245 0.86581 0.256 0.0
C803 C 0.21439 0.87531 0.29937 0.0
C804 C 0.21049 0.86971 0.32644 0.0
C805 C 0.20967 0.84068 0.33581 0.0
C806 C 0.20573 0.83548 0.36126 0.0
C807 C 0.20273 0.85914 0.37757 0.0
C808 C 0.20374 0.88805 0.36847 0.0
C809 C 0.20766 0.89338 0.34303 0.0
H810 H 0.19968 0.85507 0.39727 0.0
H811 H 0.24041 0.90307 0.15019 0.0
H812 H 0.14012 0.25793 0.64733 0.0
H813 H 0.18107 0.23238 0.66747 0.0
H814 H 0.15023 0.26172 0.73912 0.0
H815 H 0.10967 0.28825 0.71896 0.0
H816 H 0.20911 0.26099 0.73796 0.0
H817 H 0.13096 0.19391 0.71604 0.0
H818 H 0.09604 0.16975 0.6876 0.0
H819 H 0.16816 0.13737 0.64379 0.0
H820 H 0.2035 0.16167 0.67182 0.0
H821 H 0.23961 0.14296 0.82015 0.0
H822 H 0.22119 0.18242 0.79333 0.0
H823 H 0.27118 0.14775 0.73181 0.0
H824 H 0.29008 0.10813 0.75875 0.0
H825 H 0.21094 0.15321 0.72285 0.0
H826 H 0.28904 0.21337 0.75185 0.0
H827 H 0.32189 0.23606 0.78273 0.0
H828 H 0.24801 0.27988 0.81612 0.0
H829 H 0.21462 0.2571 0.78567 0.0
C830 C 0.14223 0.25922 0.66736 0.0
C831 C 0.12143 0.27468 0.68164 0.0
C832 C 0.16566 0.24463 0.67883 0.0
C833 C 0.16833 0.24464 0.70482 0.0
C834 C 0.14852 0.26137 0.71903 0.0
C835 C 0.1253 0.2764 0.70751 0.0
C836 C 0.19009 0.22524 0.71732 0.0
C837 C 0.2095 0.23741 0.73475 0.0
C838 C 0.19104 0.19456 0.71266 0.0
C839 C 0.16983 0.1799 0.69582 0.0
C840 C 0.13935 0.18182 0.70023 0.0
C841 C 0.11949 0.16808 0.68421 0.0
C842 C 0.12987 0.15212 0.66386 0.0
C843 C 0.16015 0.1498 0.65953 0.0
C844 C 0.1801 0.16354 0.67547 0.0
C845 C 0.24712 0.144 0.80103 0.0
C846 C 0.26603 0.12231 0.79144 0.0
C847 C 0.23678 0.16672 0.78579 0.0
C848 C 0.24498 0.16805 0.76067 0.0
C849 C 0.2648 0.14713 0.75124 0.0
C850 C 0.27553 0.12457 0.76661 0.0
C851 C 0.2296 0.18884 0.74384 0.0
C852 C 0.21116 0.17688 0.72565 0.0
C853 C 0.22929 0.21956 0.74813 0.0
C854 C 0.24928 0.23336 0.76653 0.0
C855 C 0.27974 0.22765 0.7659 0.0
C856 C 0.29848 0.24057 0.78331 0.0
C857 C 0.28704 0.25937 0.8014 0.0
C858 C 0.25684 0.26532 0.80209 0.0
C859 C 0.23801 0.25244 0.78473 0.0
H860 H 0.30158 0.26935 0.81486 0.0
H861 H 0.11446 0.14149 0.65148 0.0
H862 H 0.99094 0.26092 0.25454 0.0
H863 H 0.9546 0.23725 0.22798 0.0
H864 H 0.88576 0.28996 0.26116 0.0
H865 H 0.92222 0.31203 0.28906 0.0
H866 H 0.86755 0.23928 0.261 0.0
H867 H 0.90715 0.29617 0.19654 0.0
H868 H 0.94432 0.32062 0.17009 0.0
H869 H 0.97704 0.23634 0.14686 0.0
H870 H 0.94036 0.21133 0.17344 0.0
H871 H 0.81456 0.1504 0.14222 0.0
H872 H 0.83627 0.19474 0.16015 0.0
H873 H 0.84816 0.14828 0.22993 0.0
H874 H 0.82404 0.10495 0.21253 0.0
H875 H 0.88511 0.20788 0.17411 0.0
H876 H 0.85174 0.18979 0.27877 0.0
H877 H 0.80865 0.17232 0.30261 0.0
H878 H 0.7522 0.19244 0.24074 0.0
H879 H 0.79486 0.21043 0.21664 0.0
C880 C 0.96812 0.26787 0.25562 0.0
C881 C 0.95914 0.28828 0.27348 0.0
C882 C 0.94734 0.25454 0.24034 0.0
C883 C 0.91734 0.26207 0.2422 0.0
C884 C 0.9087 0.28373 0.25933 0.0
C885 C 0.92945 0.29648 0.27511 0.0
C886 C 0.89498 0.2447 0.22849 0.0
C887 C 0.87116 0.23278 0.24187 0.0
C888 C 0.89881 0.23703 0.20322 0.0
C889 C 0.92101 0.25186 0.1871 0.0
C890 C 0.92238 0.28283 0.18591 0.0
C891 C 0.94336 0.2968 0.17087 0.0
C892 C 0.96304 0.28005 0.15681 0.0
C893 C 0.96175 0.24929 0.15774 0.0
C894 C 0.94082 0.2352 0.17276 0.0
C895 C 0.82156 0.14995 0.16148 0.0
C896 C 0.81767 0.12453 0.17612 0.0
C897 C 0.83399 0.17522 0.17172 0.0
C898 C 0.8435 0.1752 0.19658 0.0
C899 C 0.84007 0.1494 0.21102 0.0
C900 C 0.82663 0.1245 0.20103 0.0
C901 C 0.85858 0.20141 0.20703 0.0
C902 C 0.88101 0.21497 0.19302 0.0
C903 C 0.85244 0.21179 0.23128 0.0
C904 C 0.82658 0.20133 0.24583 0.0
C905 C 0.83012 0.19069 0.2703 0.0
C906 C 0.80576 0.18063 0.28385 0.0
C907 C 0.77772 0.18121 0.27318 0.0
C908 C 0.77395 0.19192 0.24896 0.0
C909 C 0.79822 0.20202 0.23533 0.0
H910 H 0.7589 0.17339 0.28369 0.0
H911 H 0.97927 0.29091 0.14519 0.0
loop_
_geom_bond_atom_site_label_1
_geom_bond_atom_site_label_2
_geom_bond_distance
_geom_bond_site_symmetry_2
_ccdc_geom_bond_type
C0 O1 1.306 . S
C0 O3 1.160 1_565 S
O1 C0 1.306 . S
O1 Cd2 2.228 1_565 S
Cd2 O1 2.228 1_545 S
Cd2 O6 2.273 . S
Cd2 O10 2.277 . S
O3 C0 1.160 1_545 S
O3 Cd4 2.203 . S
Cd4 O3 2.203 . S
Cd4 O6 2.411 . S
Cd4 O7 2.333 . S
Cd4 O8 2.352 . S
Cd4 O12 2.277 . S
Cd4 O13 2.356 . S
C5 O10 1.209 . S
C5 O12 1.226 . S
O6 Cd2 2.273 . S
O6 Cd4 2.411 . S
O6 C9 1.320 . S
O7 Cd4 2.333 . S
O7 C9 1.214 . S
O8 Cd4 2.352 . S
O8 C11 1.258 . S
C9 O6 1.320 . S
C9 O7 1.214 . S
O10 Cd2 2.277 . S
O10 C5 1.209 . S
C11 O8 1.258 . S
C11 O13 1.282 . S
O12 Cd4 2.277 . S
O12 C5 1.226 . S
O13 Cd4 2.356 . S
O13 C11 1.282 . S
C14 O15 1.306 . S
C14 O17 1.160 . S
O15 C14 1.306 . S
O15 Cd16 2.228 . S
Cd16 O15 2.228 . S
Cd16 O20 2.273 . S
Cd16 O24 2.277 . S
O17 C14 1.160 . S
O17 Cd18 2.203 . S
Cd18 O17 2.203 . S
Cd18 O20 2.411 . S
Cd18 O21 2.333 . S
Cd18 O22 2.352 . S
Cd18 O26 2.277 . S
Cd18 O27 2.356 . S
C19 O24 1.209 . S
C19 O26 1.226 . S
O20 Cd16 2.273 . S
O20 Cd18 2.411 . S
O20 C23 1.320 . S
O21 Cd18 2.333 . S
O21 C23 1.214 . S
O22 Cd18 2.352 . S
O22 C25 1.258 . S
C23 O20 1.320 . S
C23 O21 1.214 . S
O24 Cd16 2.277 . S
O24 C19 1.209 . S
C25 O22 1.258 . S
C25 O27 1.282 . S
O26 Cd18 2.277 . S
O26 C19 1.226 . S
O27 Cd18 2.356 . S
O27 C25 1.282 . S
C28 O29 1.306 . S
C28 O31 1.160 . S
O29 C28 1.306 . S
O29 Cd30 2.228 . S
Cd30 O29 2.228 . S
Cd30 O34 2.273 . S
Cd30 O38 2.277 . S
O31 C28 1.160 . S
O31 Cd32 2.203 . S
Cd32 O31 2.203 . S
Cd32 O34 2.411 . S
Cd32 O35 2.333 . S
Cd32 O36 2.352 . S
Cd32 O40 2.277 . S
Cd32 O41 2.356 . S
C33 O38 1.209 . S
C33 O40 1.226 . S
O34 Cd30 2.273 . S
O34 Cd32 2.411 . S
O34 C37 1.320 . S
O35 Cd32 2.333 . S
O35 C37 1.214 . S
O36 Cd32 2.352 . S
O36 C39 1.258 . S
C37 O34 1.320 . S
C37 O35 1.214 . S
O38 Cd30 2.277 . S
O38 C33 1.209 . S
C39 O36 1.258 . S
C39 O41 1.282 . S
O40 Cd32 2.277 . S
O40 C33 1.226 . S
O41 Cd32 2.356 . S
O41 C39 1.282 . S
C42 O43 1.306 . S
C42 O45 1.160 1_655 S
O43 C42 1.306 . S
O43 Cd44 2.228 1_655 S
Cd44 O43 2.228 1_455 S
Cd44 O48 2.273 . S
Cd44 O52 2.277 . S
O45 C42 1.160 1_455 S
O45 Cd46 2.203 . S
Cd46 O45 2.203 . S
Cd46 O48 2.411 . S
Cd46 O49 2.333 . S
Cd46 O50 2.352 . S
Cd46 O54 2.277 . S
Cd46 O55 2.356 . S
C47 O52 1.209 . S
C47 O54 1.226 . S
O48 Cd44 2.273 . S
O48 Cd46 2.411 . S
O48 C51 1.320 . S
O49 Cd46 2.333 . S
O49 C51 1.214 . S
O50 Cd46 2.352 . S
O50 C53 1.258 . S
C51 O48 1.320 . S
C51 O49 1.214 . S
O52 Cd44 2.277 . S
O52 C47 1.209 . S
C53 O50 1.258 . S
C53 O55 1.282 . S
O54 Cd46 2.277 . S
O54 C47 1.226 . S
O55 Cd46 2.356 . S
O55 C53 1.282 . S
C56 O57 1.306 . S
C56 O59 1.160 . S
O57 C56 1.306 . S
O57 Cd58 2.228 . S
Cd58 O57 2.228 . S
Cd58 O62 2.273 . S
Cd58 O66 2.277 . S
O59 C56 1.160 . S
O59 Cd60 2.203 . S
Cd60 O59 2.203 . S
Cd60 O62 2.411 . S
Cd60 O63 2.333 . S
Cd60 O64 2.352 . S
Cd60 O68 2.277 . S
Cd60 O69 2.356 . S
C61 O66 1.209 . S
C61 O68 1.226 . S
O62 Cd58 2.273 . S
O62 Cd60 2.411 . S
O62 C65 1.320 . S
O63 Cd60 2.333 . S
O63 C65 1.214 . S
O64 Cd60 2.352 . S
O64 C67 1.258 . S
C65 O62 1.320 . S
C65 O63 1.214 . S
O66 Cd58 2.277 . S
O66 C61 1.209 . S
C67 O64 1.258 . S
C67 O69 1.282 . S
O68 Cd60 2.277 . S
O68 C61 1.226 . S
O69 Cd60 2.356 . S
O69 C67 1.282 . S
C70 O71 1.306 . S
C70 O73 1.160 1_655 S
O71 C70 1.306 . S
O71 Cd72 2.228 1_655 S
Cd72 O71 2.228 1_455 S
Cd72 O76 2.273 . S
Cd72 O80 2.277 . S
O73 C70 1.160 1_455 S
O73 Cd74 2.203 . S
Cd74 O73 2.203 . S
Cd74 O76 2.411 . S
Cd74 O77 2.333 . S
Cd74 O78 2.352 . S
Cd74 O82 2.277 . S
Cd74 O83 2.356 . S
C75 O80 1.209 . S
C75 O82 1.226 . S
O76 Cd72 2.273 . S
O76 Cd74 2.411 . S
O76 C79 1.320 . S
O77 Cd74 2.333 . S
O77 C79 1.214 . S
O78 Cd74 2.352 . S
O78 C81 1.258 . S
C79 O76 1.320 . S
C79 O77 1.214 . S
O80 Cd72 2.277 . S
O80 C75 1.209 . S
C81 O78 1.258 . S
C81 O83 1.282 . S
O82 Cd74 2.277 . S
O82 C75 1.226 . S
O83 Cd74 2.356 . S
O83 C81 1.282 . S
C84 O85 1.306 . S
C84 O87 1.160 1_565 S
O85 C84 1.306 . S
O85 Cd86 2.228 1_565 S
Cd86 O85 2.228 1_545 S
Cd86 O90 2.273 . S
Cd86 O94 2.277 . S
O87 C84 1.160 1_545 S
O87 Cd88 2.203 . S
Cd88 O87 2.203 . S
Cd88 O90 2.411 . S
Cd88 O91 2.333 . S
Cd88 O92 2.352 . S
Cd88 O96 2.277 . S
Cd88 O97 2.356 . S
C89 O94 1.209 . S
C89 O96 1.226 . S
O90 Cd86 2.273 . S
O90 Cd88 2.411 . S
O90 C93 1.320 . S
O91 Cd88 2.333 . S
O91 C93 1.214 . S
O92 Cd88 2.352 . S
O92 C95 1.258 . S
C93 O90 1.320 . S
C93 O91 1.214 . S
O94 Cd86 2.277 . S
O94 C89 1.209 . S
C95 O92 1.258 . S
C95 O97 1.282 . S
O96 Cd88 2.277 . S
O96 C89 1.226 . S
O97 Cd88 2.356 . S
O97 C95 1.282 . S
C98 O99 1.306 . S
C98 O101 1.160 . S
O99 C98 1.306 . S
O99 Cd100 2.228 . S
Cd100 O99 2.228 . S
Cd100 O104 2.273 . S
Cd100 O108 2.277 . S
O101 C98 1.160 . S
O101 Cd102 2.203 . S
Cd102 O101 2.203 . S
Cd102 O104 2.411 . S
Cd102 O105 2.333 . S
Cd102 O106 2.352 . S
Cd102 O110 2.277 . S
Cd102 O111 2.356 . S
C103 O108 1.209 . S
C103 O110 1.226 . S
O104 Cd100 2.273 . S
O104 Cd102 2.411 . S
O104 C107 1.320 . S
O105 Cd102 2.333 . S
O105 C107 1.214 . S
O106 Cd102 2.352 . S
O106 C109 1.258 . S
C107 O104 1.320 . S
C107 O105 1.214 . S
O108 Cd100 2.277 . S
O108 C103 1.209 . S
C109 O106 1.258 . S
C109 O111 1.282 . S
O110 Cd102 2.277 . S
O110 C103 1.226 . S
O111 Cd102 2.356 . S
O111 C109 1.282 . S
H112 C130 0.951 . S
H113 C132 0.951 . S
H114 C134 0.950 . S
H115 C135 0.950 . S
H116 C137 0.950 . S
H117 C140 0.950 . S
H118 C141 0.950 . S
H119 C143 0.950 . S
H120 C144 0.950 . S
H121 C145 0.951 . S
H122 C147 0.951 . S
H123 C149 0.950 . S
H124 C150 0.950 . S
H125 C152 0.950 . S
H126 C155 0.950 . S
H127 C156 0.950 . S
H128 C158 0.950 . S
H129 C159 0.950 . S
C130 H112 0.951 . S
C130 C131 1.366 . S
C130 C132 1.388 . S
C131 C130 1.366 . S
C131 C135 1.385 . S
C132 H113 0.951 . S
C132 C130 1.388 . S
C132 C133 1.366 . S
C133 C132 1.366 . S
C133 C134 1.414 . S
C133 C136 1.499 . S
C134 H114 0.950 . S
C134 C133 1.414 . S
C134 C135 1.374 . S
C135 H115 0.950 . S
C135 C131 1.385 . S
C135 C134 1.374 . S
C136 C133 1.499 . S
C136 C137 1.373 . S
C136 C138 1.389 . S
C137 H116 0.950 . S
C137 C136 1.373 . S
C137 C153 1.377 1_554 S
C138 C136 1.389 . S
C138 C139 1.524 . S
C138 C152 1.377 1_554 S
C139 C138 1.524 . S
C139 C140 1.397 1_545 S
C139 C144 1.363 . S
C140 H117 0.950 . S
C140 C139 1.397 1_565 S
C140 C141 1.334 . S
C141 H118 0.950 . S
C141 C140 1.334 . S
C141 C142 1.287 . S
C142 C141 1.287 . S
C142 C143 1.524 1_565 S
C142 H161 0.913 . S
C143 H119 0.950 . S
C143 C142 1.524 1_545 S
C143 C144 1.415 . S
C144 H120 0.950 . S
C144 C139 1.363 . S
C144 C143 1.415 . S
C145 H121 0.951 . S
C145 C146 1.366 . S
C145 C147 1.388 . S
C146 C145 1.366 . S
C146 C150 1.385 . S
C147 H122 0.951 . S
C147 C145 1.388 . S
C147 C148 1.366 . S
C148 C147 1.366 . S
C148 C149 1.414 . S
C148 C151 1.499 . S
C149 H123 0.950 . S
C149 C148 1.414 . S
C149 C150 1.374 . S
C150 H124 0.950 . S
C150 C146 1.385 . S
C150 C149 1.374 . S
C151 C148 1.499 . S
C151 C152 1.373 . S
C151 C153 1.389 . S
C152 H125 0.950 . S
C152 C138 1.377 1_556 S
C152 C151 1.373 . S
C153 C137 1.377 1_556 S
C153 C151 1.389 . S
C153 C154 1.524 . S
C154 C153 1.524 . S
C154 C155 1.397 . S
C154 C159 1.363 . S
C155 H126 0.950 . S
C155 C154 1.397 . S
C155 C156 1.334 . S
C156 H127 0.950 . S
C156 C155 1.334 . S
C156 C157 1.287 . S
C157 C156 1.287 . S
C157 C158 1.524 . S
C157 H160 0.999 . S
C158 H128 0.950 . S
C158 C157 1.524 . S
C158 C159 1.415 . S
C159 H129 0.950 . S
C159 C154 1.363 . S
C159 C158 1.415 . S
H160 C157 0.999 . S
H161 C142 0.913 . S
H162 C180 0.951 . S
H163 C182 0.951 . S
H164 C184 0.950 . S
H165 C185 0.950 . S
H166 C187 0.950 . S
H167 C190 0.950 1_655 S
H168 C191 0.950 . S
H169 C193 0.950 . S
H170 C194 0.950 . S
H171 C195 0.951 . S
H172 C197 0.951 . S
H173 C199 0.950 . S
H174 C200 0.950 . S
H175 C202 0.950 . S
H176 C205 0.950 . S
H177 C206 0.950 . S
H178 C208 0.950 . S
H179 C209 0.950 . S
C180 H162 0.951 . S
C180 C181 1.366 . S
C180 C182 1.388 . S
C181 C180 1.366 . S
C181 C185 1.385 . S
C182 H163 0.951 . S
C182 C180 1.388 . S
C182 C183 1.366 . S
C183 C182 1.366 . S
C183 C184 1.414 . S
C183 C186 1.499 . S
C184 H164 0.950 . S
C184 C183 1.414 . S
C184 C185 1.374 . S
C185 H165 0.950 . S
C185 C181 1.385 . S
C185 C184 1.374 . S
C186 C183 1.499 . S
C186 C187 1.373 . S
C186 C188 1.389 . S
C187 H166 0.950 . S
C187 C186 1.373 . S
C187 C203 1.377 . S
C188 C186 1.389 . S
C188 C189 1.524 . S
C188 C202 1.377 . S
C189 C188 1.524 . S
C189 C190 1.397 . S
C189 C194 1.363 . S
C190 H167 0.950 1_455 S
C190 C189 1.397 . S
C190 C191 1.334 1_455 S
C191 H168 0.950 . S
C191 C190 1.334 1_655 S
C191 C192 1.283 1_655 S
C192 C191 1.283 1_455 S
C192 C193 1.533 . S
C192 H211 0.909 1_455 S
C193 H169 0.950 . S
C193 C192 1.533 . S
C193 C194 1.415 . S
C194 H170 0.950 . S
C194 C189 1.363 . S
C194 C193 1.415 . S
C195 H171 0.951 . S
C195 C196 1.366 . S
C195 C197 1.388 . S
C196 C195 1.366 . S
C196 C200 1.385 . S
C197 H172 0.951 . S
C197 C195 1.388 . S
C197 C198 1.366 . S
C198 C197 1.366 . S
C198 C199 1.414 . S
C198 C201 1.499 . S
C199 H173 0.950 . S
C199 C198 1.414 . S
C199 C200 1.374 . S
C200 H174 0.950 . S
C200 C196 1.385 . S
C200 C199 1.374 . S
C201 C198 1.499 . S
C201 C202 1.373 . S
C201 C203 1.389 . S
C202 H175 0.950 . S
C202 C188 1.377 . S
C202 C201 1.373 . S
C203 C187 1.377 . S
C203 C201 1.389 . S
C203 C204 1.524 . S
C204 C203 1.524 . S
C204 C205 1.397 . S
C204 C209 1.363 . S
C205 H176 0.950 . S
C205 C204 1.397 . S
C205 C206 1.334 . S
C206 H177 0.950 . S
C206 C205 1.334 . S
C206 C207 1.287 . S
C207 C206 1.287 . S
C207 C208 1.524 . S
C207 H210 0.999 . S
C208 H178 0.950 . S
C208 C207 1.524 . S
C208 C209 1.415 . S
C209 H179 0.950 . S
C209 C204 1.363 . S
C209 C208 1.415 . S
H210 C207 0.999 . S
H211 C192 0.909 1_655 S
H212 C230 0.951 . S
H213 C232 0.951 . S
H214 C234 0.950 . S
H215 C235 0.950 . S
H216 C237 0.950 . S
H217 C240 0.950 . S
H218 C241 0.950 . S
H219 C243 0.950 . S
H220 C244 0.950 . S
H221 C245 0.951 . S
H222 C247 0.951 . S
H223 C249 0.950 . S
H224 C250 0.950 . S
H225 C252 0.950 . S
H226 C255 0.950 . S
H227 C256 0.950 . S
H228 C258 0.950 . S
H229 C259 0.950 . S
C230 H212 0.951 . S
C230 C231 1.366 . S
C230 C232 1.388 . S
C231 C230 1.366 . S
C231 C235 1.385 . S
C232 H213 0.951 . S
C232 C230 1.388 . S
C232 C233 1.366 . S
C233 C232 1.366 . S
C233 C234 1.414 . S
C233 C236 1.499 . S
C234 H214 0.950 . S
C234 C233 1.414 . S
C234 C235 1.374 . S
C235 H215 0.950 . S
C235 C231 1.385 . S
C235 C234 1.374 . S
C236 C233 1.499 . S
C236 C237 1.373 . S
C236 C238 1.389 . S
C237 H216 0.950 . S
C237 C236 1.373 . S
C237 C253 1.377 1_556 S
C238 C236 1.389 . S
C238 C239 1.524 . S
C238 C252 1.377 1_556 S
C239 C238 1.524 . S
C239 C240 1.397 . S
C239 C244 1.363 . S
C240 H217 0.950 . S
C240 C239 1.397 . S
C240 C241 1.334 . S
C241 H218 0.950 . S
C241 C240 1.334 . S
C241 C242 1.287 . S
C242 C241 1.287 . S
C242 C243 1.524 . S
C242 H261 0.913 . S
C243 H219 0.950 . S
C243 C242 1.524 . S
C243 C244 1.415 . S
C244 H220 0.950 . S
C244 C239 1.363 . S
C244 C243 1.415 . S
C245 H221 0.951 . S
C245 C246 1.366 . S
C245 C247 1.388 . S
C246 C245 1.366 . S
C246 C250 1.385 . S
C247 H222 0.951 . S
C247 C245 1.388 . S
C247 C248 1.366 . S
C248 C247 1.366 . S
C248 C249 1.414 . S
C248 C251 1.499 . S
C249 H223 0.950 . S
C249 C248 1.414 . S
C249 C250 1.374 . S
C250 H224 0.950 . S
C250 C246 1.385 . S
C250 C249 1.374 . S
C251 C248 1.499 . S
C251 C252 1.373 . S
C251 C253 1.389 . S
C252 H225 0.950 . S
C252 C238 1.377 1_554 S
C252 C251 1.373 . S
C253 C237 1.377 1_554 S
C253 C251 1.389 . S
C253 C254 1.524 1_545 S
C254 C253 1.524 1_565 S
C254 C255 1.397 . S
C254 C259 1.363 . S
C255 H226 0.950 . S
C255 C254 1.397 . S
C255 C256 1.334 . S
C256 H227 0.950 . S
C256 C255 1.334 . S
C256 C257 1.287 . S
C257 C256 1.287 . S
C257 C258 1.524 . S
C257 H260 0.999 . S
C258 H228 0.950 . S
C258 C257 1.524 . S
C258 C259 1.415 . S
C259 H229 0.950 . S
C259 C254 1.363 . S
C259 C258 1.415 . S
H260 C257 0.999 . S
H261 C242 0.913 . S
H262 C280 0.951 . S
H263 C282 0.951 . S
H264 C284 0.950 . S
H265 C285 0.950 . S
H266 C287 0.950 . S
H267 C290 0.950 . S
H268 C291 0.950 . S
H269 C293 0.950 . S
H270 C294 0.950 . S
H271 C295 0.951 . S
H272 C297 0.951 . S
H273 C299 0.950 . S
H274 C300 0.950 . S
H275 C302 0.950 . S
H276 C305 0.950 . S
H277 C306 0.950 . S
H278 C308 0.950 . S
H279 C309 0.950 . S
C280 H262 0.951 . S
C280 C281 1.366 . S
C280 C282 1.388 . S
C281 C280 1.366 . S
C281 C285 1.385 . S
C282 H263 0.951 . S
C282 C280 1.388 . S
C282 C283 1.366 . S
C283 C282 1.366 . S
C283 C284 1.414 . S
C283 C286 1.499 . S
C284 H264 0.950 . S
C284 C283 1.414 . S
C284 C285 1.374 . S
C285 H265 0.950 . S
C285 C281 1.385 . S
C285 C284 1.374 . S
C286 C283 1.499 . S
C286 C287 1.373 . S
C286 C288 1.389 . S
C287 H266 0.950 . S
C287 C286 1.373 . S
C287 C303 1.377 . S
C288 C286 1.389 . S
C288 C289 1.536 . S
C288 C302 1.377 . S
C289 C288 1.536 . S
C289 C290 1.402 . S
C289 C294 1.347 1_455 S
C290 H267 0.950 . S
C290 C289 1.402 . S
C290 C291 1.334 1_455 S
C291 H268 0.950 . S
C291 C290 1.334 1_655 S
C291 C292 1.287 . S
C292 C291 1.287 . S
C292 C293 1.524 . S
C292 H311 0.913 . S
C293 H269 0.950 . S
C293 C292 1.524 . S
C293 C294 1.415 . S
C294 H270 0.950 . S
C294 C289 1.347 1_655 S
C294 C293 1.415 . S
C295 H271 0.951 . S
C295 C296 1.366 . S
C295 C297 1.388 . S
C296 C295 1.366 . S
C296 C300 1.385 . S
C297 H272 0.951 . S
C297 C295 1.388 . S
C297 C298 1.366 . S
C298 C297 1.366 . S
C298 C299 1.414 . S
C298 C301 1.499 . S
C299 H273 0.950 . S
C299 C298 1.414 . S
C299 C300 1.374 . S
C300 H274 0.950 . S
C300 C296 1.385 . S
C300 C299 1.374 . S
C301 C298 1.499 . S
C301 C302 1.373 . S
C301 C303 1.389 . S
C302 H275 0.950 . S
C302 C288 1.377 . S
C302 C301 1.373 . S
C303 C287 1.377 . S
C303 C301 1.389 . S
C303 C304 1.524 . S
C304 C303 1.524 . S
C304 C305 1.397 . S
C304 C309 1.363 . S
C305 H276 0.950 . S
C305 C304 1.397 . S
C305 C306 1.334 . S
C306 H277 0.950 . S
C306 C305 1.334 . S
C306 C307 1.287 . S
C307 C306 1.287 . S
C307 C308 1.524 . S
C307 H310 0.999 . S
C308 H278 0.950 . S
C308 C307 1.524 . S
C308 C309 1.415 . S
C309 H279 0.950 . S
C309 C304 1.363 . S
C309 C308 1.415 . S
H310 C307 0.999 . S
H311 C292 0.913 . S
H312 C330 0.951 . S
H313 C332 0.951 . S
H314 C334 0.950 1_565 S
H315 C335 0.950 1_565 S
H316 C337 0.950 . S
H317 C340 0.950 . S
H318 C341 0.950 . S
H319 C343 0.950 . S
H320 C344 0.950 . S
H321 C345 0.951 . S
H322 C347 0.951 . S
H323 C349 0.950 . S
H324 C350 0.950 . S
H325 C352 0.950 . S
H326 C355 0.950 . S
H327 C356 0.950 . S
H328 C358 0.950 . S
H329 C359 0.950 . S
C330 H312 0.951 . S
C330 C331 1.366 . S
C330 C332 1.388 . S
C331 C330 1.366 . S
C331 C335 1.385 . S
C332 H313 0.951 . S
C332 C330 1.388 . S
C332 C333 1.366 . S
C333 C332 1.366 . S
C333 C334 1.414 . S
C333 C336 1.499 . S
C334 H314 0.950 1_545 S
C334 C333 1.414 . S
C334 C335 1.374 . S
C335 H315 0.950 1_545 S
C335 C331 1.385 . S
C335 C334 1.374 . S
C336 C333 1.499 . S
C336 C337 1.373 . S
C336 C338 1.389 . S
C337 H316 0.950 . S
C337 C336 1.373 . S
C337 C353 1.377 . S
C338 C336 1.389 . S
C338 C339 1.524 . S
C338 C352 1.377 . S
C339 C338 1.524 . S
C339 C340 1.397 . S
C339 C344 1.363 . S
C340 H317 0.950 . S
C340 C339 1.397 . S
C340 C341 1.334 . S
C341 H318 0.950 . S
C341 C340 1.334 . S
C341 C342 1.287 . S
C342 C341 1.287 . S
C342 C343 1.524 . S
C342 H361 0.913 . S
C343 H319 0.950 . S
C343 C342 1.524 . S
C343 C344 1.415 . S
C344 H320 0.950 . S
C344 C339 1.363 . S
C344 C343 1.415 . S
C345 H321 0.951 . S
C345 C346 1.366 . S
C345 C347 1.388 . S
C346 C345 1.366 . S
C346 C350 1.385 . S
C347 H322 0.951 . S
C347 C345 1.388 . S
C347 C348 1.366 . S
C348 C347 1.366 . S
C348 C349 1.414 . S
C348 C351 1.499 . S
C349 H323 0.950 . S
C349 C348 1.414 . S
C349 C350 1.374 . S
C350 H324 0.950 . S
C350 C346 1.385 . S
C350 C349 1.374 . S
C351 C348 1.499 . S
C351 C352 1.373 . S
C351 C353 1.389 . S
C352 H325 0.950 . S
C352 C338 1.377 . S
C352 C351 1.373 . S
C353 C337 1.377 . S
C353 C351 1.389 . S
C353 C354 1.524 . S
C354 C353 1.524 . S
C354 C355 1.397 . S
C354 C359 1.363 1_545 S
C355 H326 0.950 . S
C355 C354 1.397 . S
C355 C356 1.334 . S
C356 H327 0.950 . S
C356 C355 1.334 . S
C356 C357 1.287 1_545 S
C357 C356 1.287 1_565 S
C357 C358 1.524 . S
C357 H360 0.999 . S
C358 H328 0.950 . S
C358 C357 1.524 . S
C358 C359 1.415 . S
C359 H329 0.950 . S
C359 C354 1.363 1_565 S
C359 C358 1.415 . S
H360 C357 0.999 . S
H361 C342 0.913 . S
H362 C380 0.951 . S
H363 C382 0.951 . S
H364 C384 0.950 . S
H365 C385 0.950 . S
H366 C387 0.950 . S
H367 C390 0.950 . S
H368 C391 0.950 . S
H369 C393 0.950 . S
H370 C394 0.950 . S
H371 C395 0.951 1_655 S
H372 C397 0.951 1_655 S
H373 C399 0.950 . S
H374 C400 0.950 . S
H375 C402 0.950 . S
H376 C405 0.950 . S
H377 C406 0.941 1_455 S
H378 C408 0.950 . S
H379 C409 0.950 . S
C380 H362 0.951 . S
C380 C381 1.366 . S
C380 C382 1.388 . S
C381 C380 1.366 . S
C381 C385 1.385 . S
C382 H363 0.951 . S
C382 C380 1.388 . S
C382 C383 1.366 . S
C383 C382 1.366 . S
C383 C384 1.414 . S
C383 C386 1.499 . S
C384 H364 0.950 . S
C384 C383 1.414 . S
C384 C385 1.374 . S
C385 H365 0.950 . S
C385 C381 1.385 . S
C385 C384 1.374 . S
C386 C383 1.499 . S
C386 C387 1.373 . S
C386 C388 1.389 . S
C387 H366 0.950 . S
C387 C386 1.373 . S
C387 C403 1.377 . S
C388 C386 1.389 . S
C388 C389 1.524 . S
C388 C402 1.377 . S
C389 C388 1.524 . S
C389 C390 1.397 . S
C389 C394 1.363 . S
C390 H367 0.950 . S
C390 C389 1.397 . S
C390 C391 1.334 . S
C391 H368 0.950 . S
C391 C390 1.334 . S
C391 C392 1.287 . S
C392 C391 1.287 . S
C392 C393 1.524 . S
C392 H411 0.913 . S
C393 H369 0.950 . S
C393 C392 1.524 . S
C393 C394 1.415 . S
C394 H370 0.950 . S
C394 C389 1.363 . S
C394 C393 1.415 . S
C395 H371 0.951 1_455 S
C395 C396 1.366 . S
C395 C397 1.388 . S
C396 C395 1.366 . S
C396 C400 1.385 . S
C397 H372 0.951 1_455 S
C397 C395 1.388 . S
C397 C398 1.366 . S
C398 C397 1.366 . S
C398 C399 1.414 . S
C398 C401 1.499 . S
C399 H373 0.950 . S
C399 C398 1.414 . S
C399 C400 1.374 . S
C400 H374 0.950 . S
C400 C396 1.385 . S
C400 C399 1.374 . S
C401 C398 1.499 . S
C401 C402 1.373 . S
C401 C403 1.389 . S
C402 H375 0.950 . S
C402 C388 1.377 . S
C402 C401 1.373 . S
C403 C387 1.377 . S
C403 C401 1.389 . S
C403 C404 1.524 . S
C404 C403 1.524 . S
C404 C405 1.397 . S
C404 C409 1.363 1_455 S
C405 H376 0.950 . S
C405 C404 1.397 . S
C405 C406 1.334 1_455 S
C406 H377 0.941 1_655 S
C406 C405 1.334 1_655 S
C406 C407 1.287 . S
C407 C406 1.287 . S
C407 C408 1.524 . S
C407 H410 0.999 . S
C408 H378 0.950 . S
C408 C407 1.524 . S
C408 C409 1.415 . S
C409 H379 0.950 . S
C409 C404 1.363 1_655 S
C409 C408 1.415 . S
H410 C407 0.999 . S
H411 C392 0.913 . S
H412 C430 0.951 . S
H413 C432 0.951 . S
H414 C434 0.950 . S
H415 C435 0.950 . S
H416 C437 0.956 . S
H417 C440 0.950 . S
H418 C441 0.950 . S
H419 C443 0.950 . S
H420 C444 0.950 . S
H421 C445 0.951 . S
H422 C447 0.951 . S
H423 C449 0.950 . S
H424 C450 0.950 . S
H425 C452 0.950 . S
H426 C455 0.938 1_545 S
H427 C456 0.950 . S
H428 C458 0.950 . S
H429 C459 0.950 . S
C430 H412 0.951 . S
C430 C431 1.366 . S
C430 C432 1.388 . S
C431 C430 1.366 . S
C431 C435 1.385 . S
C432 H413 0.951 . S
C432 C430 1.388 . S
C432 C433 1.366 . S
C433 C432 1.366 . S
C433 C434 1.414 . S
C433 C436 1.499 . S
C434 H414 0.950 . S
C434 C433 1.414 . S
C434 C435 1.374 . S
C435 H415 0.950 . S
C435 C431 1.385 . S
C435 C434 1.374 . S
C436 C433 1.499 . S
C436 C437 1.373 . S
C436 C438 1.389 . S
C437 H416 0.956 . S
C437 C436 1.373 . S
C437 C453 1.377 . S
C438 C436 1.389 . S
C438 C439 1.524 . S
C438 C452 1.377 . S
C439 C438 1.524 . S
C439 C440 1.397 . S
C439 C444 1.363 . S
C440 H417 0.950 . S
C440 C439 1.397 . S
C440 C441 1.334 . S
C441 H418 0.950 . S
C441 C440 1.334 . S
C441 C442 1.287 . S
C442 C441 1.287 . S
C442 C443 1.524 . S
C442 H461 0.913 . S
C443 H419 0.950 . S
C443 C442 1.524 . S
C443 C444 1.415 . S
C444 H420 0.950 . S
C444 C439 1.363 . S
C444 C443 1.415 . S
C445 H421 0.951 . S
C445 C446 1.366 . S
C445 C447 1.388 . S
C446 C445 1.366 . S
C446 C450 1.385 . S
C447 H422 0.951 . S
C447 C445 1.388 . S
C447 C448 1.366 . S
C448 C447 1.366 . S
C448 C449 1.414 . S
C448 C451 1.499 . S
C449 H423 0.950 . S
C449 C448 1.414 . S
C449 C450 1.374 . S
C450 H424 0.950 . S
C450 C446 1.385 . S
C450 C449 1.374 . S
C451 C448 1.499 . S
C451 C452 1.373 . S
C451 C453 1.389 . S
C452 H425 0.950 . S
C452 C438 1.377 . S
C452 C451 1.373 . S
C453 C437 1.377 . S
C453 C451 1.389 . S
C453 C454 1.524 1_545 S
C454 C453 1.524 1_565 S
C454 C455 1.397 . S
C454 C459 1.363 . S
C455 H426 0.938 1_565 S
C455 C454 1.397 . S
C455 C456 1.334 . S
C456 H427 0.950 . S
C456 C455 1.334 . S
C456 C457 1.287 . S
C457 C456 1.287 . S
C457 C458 1.524 . S
C457 H460 0.999 . S
C458 H428 0.950 . S
C458 C457 1.524 . S
C458 C459 1.415 . S
C459 H429 0.950 . S
C459 C454 1.363 . S
C459 C458 1.415 . S
H460 C457 0.999 . S
H461 C442 0.913 . S
H462 C480 0.951 1_655 S
H463 C482 0.951 1_655 S
H464 C484 0.950 . S
H465 C485 0.950 . S
H466 C487 0.950 . S
H467 C490 0.950 1_455 S
H468 C491 0.950 . S
H469 C493 0.950 . S
H470 C494 0.950 . S
H471 C495 0.951 . S
H472 C497 0.951 . S
H473 C499 0.950 . S
H474 C500 0.950 . S
H475 C502 0.950 . S
H476 C505 0.950 . S
H477 C506 0.950 . S
H478 C508 0.950 . S
H479 C509 0.950 . S
C480 H462 0.951 1_455 S
C480 C481 1.366 . S
C480 C482 1.388 . S
C481 C480 1.366 . S
C481 C485 1.385 . S
C482 H463 0.951 1_455 S
C482 C480 1.388 . S
C482 C483 1.366 . S
C483 C482 1.366 . S
C483 C484 1.414 . S
C483 C486 1.499 . S
C484 H464 0.950 . S
C484 C483 1.414 . S
C484 C485 1.374 . S
C485 H465 0.950 . S
C485 C481 1.385 . S
C485 C484 1.374 . S
C486 C483 1.499 . S
C486 C487 1.373 . S
C486 C488 1.389 . S
C487 H466 0.950 . S
C487 C486 1.373 . S
C487 C503 1.377 . S
C488 C486 1.389 . S
C488 C489 1.524 1_455 S
C488 C502 1.377 . S
C489 C488 1.524 1_655 S
C489 C490 1.397 . S
C489 C494 1.363 . S
C490 H467 0.950 1_655 S
C490 C489 1.397 . S
C490 C491 1.334 . S
C491 H468 0.950 . S
C491 C490 1.334 . S
C491 C492 1.287 . S
C492 C491 1.287 . S
C492 C493 1.524 . S
C492 H511 0.913 . S
C493 H469 0.950 . S
C493 C492 1.524 . S
C493 C494 1.415 . S
C494 H470 0.950 . S
C494 C489 1.363 . S
C494 C493 1.415 . S
C495 H471 0.951 . S
C495 C496 1.366 . S
C495 C497 1.388 . S
C496 C495 1.366 . S
C496 C500 1.385 . S
C497 H472 0.951 . S
C497 C495 1.388 . S
C497 C498 1.366 . S
C498 C497 1.366 . S
C498 C499 1.414 . S
C498 C501 1.499 . S
C499 H473 0.950 . S
C499 C498 1.414 . S
C499 C500 1.374 . S
C500 H474 0.950 . S
C500 C496 1.385 . S
C500 C499 1.374 . S
C501 C498 1.499 . S
C501 C502 1.373 . S
C501 C503 1.389 . S
C502 H475 0.950 . S
C502 C488 1.377 . S
C502 C501 1.373 . S
C503 C487 1.377 . S
C503 C501 1.389 . S
C503 C504 1.524 . S
C504 C503 1.524 . S
C504 C505 1.397 . S
C504 C509 1.363 . S
C505 H476 0.950 . S
C505 C504 1.397 . S
C505 C506 1.334 . S
C506 H477 0.950 . S
C506 C505 1.334 . S
C506 C507 1.287 . S
C507 C506 1.287 . S
C507 C508 1.524 . S
C507 H510 0.999 . S
C508 H478 0.950 . S
C508 C507 1.524 . S
C508 C509 1.415 . S
C509 H479 0.950 . S
C509 C504 1.363 . S
C509 C508 1.415 . S
H510 C507 0.999 . S
H511 C492 0.913 . S
H512 C530 0.951 . S
H513 C532 0.951 . S
H514 C534 0.950 . S
H515 C535 0.950 . S
H516 C537 0.950 . S
H517 C540 0.950 . S
H518 C541 0.950 . S
H519 C543 0.950 . S
H520 C544 0.950 . S
H521 C545 0.951 . S
H522 C547 0.951 . S
H523 C549 0.950 . S
H524 C550 0.950 . S
H525 C552 0.950 . S
H526 C555 0.950 . S
H527 C556 0.950 . S
H528 C558 0.950 . S
H529 C559 0.950 . S
C530 H512 0.951 . S
C530 C531 1.366 . S
C530 C532 1.388 . S
C531 C530 1.366 . S
C531 C535 1.385 . S
C532 H513 0.951 . S
C532 C530 1.388 . S
C532 C533 1.366 . S
C533 C532 1.366 . S
C533 C534 1.414 . S
C533 C536 1.499 . S
C534 H514 0.950 . S
C534 C533 1.414 . S
C534 C535 1.374 . S
C535 H515 0.950 . S
C535 C531 1.385 . S
C535 C534 1.374 . S
C536 C533 1.499 . S
C536 C537 1.373 . S
C536 C538 1.389 . S
C537 H516 0.950 . S
C537 C536 1.373 . S
C537 C553 1.377 . S
C538 C536 1.389 . S
C538 C539 1.524 . S
C538 C552 1.377 . S
C539 C538 1.524 . S
C539 C540 1.397 . S
C539 C544 1.363 . S
C540 H517 0.950 . S
C540 C539 1.397 . S
C540 C541 1.334 . S
C541 H518 0.950 . S
C541 C540 1.334 . S
C541 C542 1.287 . S
C542 C541 1.287 . S
C542 C543 1.524 . S
C542 H561 0.913 . S
C543 H519 0.950 . S
C543 C542 1.524 . S
C543 C544 1.415 . S
C544 H520 0.950 . S
C544 C539 1.363 . S
C544 C543 1.415 . S
C545 H521 0.951 . S
C545 C546 1.366 . S
C545 C547 1.388 . S
C546 C545 1.366 . S
C546 C550 1.385 . S
C547 H522 0.951 . S
C547 C545 1.388 . S
C547 C548 1.366 . S
C548 C547 1.366 . S
C548 C549 1.414 . S
C548 C551 1.499 . S
C549 H523 0.950 . S
C549 C548 1.414 . S
C549 C550 1.374 . S
C550 H524 0.950 . S
C550 C546 1.385 . S
C550 C549 1.374 . S
C551 C548 1.499 . S
C551 C552 1.373 . S
C551 C553 1.389 . S
C552 H525 0.950 . S
C552 C538 1.377 . S
C552 C551 1.373 . S
C553 C537 1.377 . S
C553 C551 1.389 . S
C553 C554 1.524 . S
C554 C553 1.524 . S
C554 C555 1.397 . S
C554 C559 1.363 . S
C555 H526 0.950 . S
C555 C554 1.397 . S
C555 C556 1.334 . S
C556 H527 0.950 . S
C556 C555 1.334 . S
C556 C557 1.287 . S
C557 C556 1.287 . S
C557 C558 1.524 . S
C557 H560 0.999 . S
C558 H528 0.950 . S
C558 C557 1.524 . S
C558 C559 1.415 . S
C559 H529 0.950 . S
C559 C554 1.363 . S
C559 C558 1.415 . S
H560 C557 0.999 . S
H561 C542 0.913 . S
H562 C580 0.951 . S
H563 C582 0.951 . S
H564 C584 0.950 . S
H565 C585 0.986 . S
H566 C587 0.950 . S
H567 C590 0.950 . S
H568 C591 0.950 . S
H569 C593 0.950 . S
H570 C594 0.950 . S
H571 C595 0.951 . S
H572 C597 0.951 . S
H573 C599 0.950 . S
H574 C600 0.950 . S
H575 C602 0.950 . S
H576 C605 0.950 . S
H577 C606 0.950 . S
H578 C608 0.950 . S
H579 C609 0.950 . S
C580 H562 0.951 . S
C580 C581 1.366 . S
C580 C582 1.388 . S
C581 C580 1.366 . S
C581 C585 1.375 1_655 S
C582 H563 0.951 . S
C582 C580 1.388 . S
C582 C583 1.366 . S
C583 C582 1.366 . S
C583 C584 1.414 . S
C583 C586 1.499 . S
C584 H564 0.950 . S
C584 C583 1.414 . S
C584 C585 1.349 1_655 S
C585 H565 0.986 . S
C585 C581 1.375 1_455 S
C585 C584 1.349 1_455 S
C586 C583 1.499 . S
C586 C587 1.373 . S
C586 C588 1.389 . S
C587 H566 0.950 . S
C587 C586 1.373 . S
C587 C603 1.377 . S
C588 C586 1.389 . S
C588 C589 1.524 . S
C588 C602 1.377 . S
C589 C588 1.524 . S
C589 C590 1.397 . S
C589 C594 1.363 . S
C590 H567 0.950 . S
C590 C589 1.397 . S
C590 C591 1.334 . S
C591 H568 0.950 . S
C591 C590 1.334 . S
C591 C592 1.287 . S
C592 C591 1.287 . S
C592 C593 1.524 . S
C592 H611 0.913 . S
C593 H569 0.950 . S
C593 C592 1.524 . S
C593 C594 1.415 . S
C594 H570 0.950 . S
C594 C589 1.363 . S
C594 C593 1.415 . S
C595 H571 0.951 . S
C595 C596 1.366 . S
C595 C597 1.388 . S
C596 C595 1.366 . S
C596 C600 1.385 . S
C597 H572 0.951 . S
C597 C595 1.388 . S
C597 C598 1.366 . S
C598 C597 1.366 . S
C598 C599 1.414 . S
C598 C601 1.499 . S
C599 H573 0.950 . S
C599 C598 1.414 . S
C599 C600 1.374 . S
C600 H574 0.950 . S
C600 C596 1.385 . S
C600 C599 1.374 . S
C601 C598 1.499 . S
C601 C602 1.373 . S
C601 C603 1.389 . S
C602 H575 0.950 . S
C602 C588 1.377 . S
C602 C601 1.373 . S
C603 C587 1.377 . S
C603 C601 1.389 . S
C603 C604 1.524 . S
C604 C603 1.524 . S
C604 C605 1.397 . S
C604 C609 1.363 . S
C605 H576 0.950 . S
C605 C604 1.397 . S
C605 C606 1.334 . S
C606 H577 0.950 . S
C606 C605 1.334 . S
C606 C607 1.287 . S
C607 C606 1.287 . S
C607 C608 1.524 . S
C607 H610 0.999 . S
C608 H578 0.950 . S
C608 C607 1.524 . S
C608 C609 1.415 . S
C609 H579 0.950 . S
C609 C604 1.363 . S
C609 C608 1.415 . S
H610 C607 0.999 . S
H611 C592 0.913 . S
H612 C630 0.951 . S
H613 C632 0.951 . S
H614 C634 0.950 . S
H615 C635 0.950 1_455 S
H616 C637 0.950 . S
H617 C640 0.950 . S
H618 C641 0.950 . S
H619 C643 0.950 . S
H620 C644 0.950 . S
H621 C645 0.951 . S
H622 C647 0.951 . S
H623 C649 0.950 . S
H624 C650 0.950 . S
H625 C652 0.950 . S
H626 C655 0.950 . S
H627 C656 0.950 . S
H628 C658 0.950 . S
H629 C659 0.950 . S
C630 H612 0.951 . S
C630 C631 1.366 . S
C630 C632 1.388 . S
C631 C630 1.366 . S
C631 C635 1.385 . S
C632 H613 0.951 . S
C632 C630 1.388 . S
C632 C633 1.366 . S
C633 C632 1.366 . S
C633 C634 1.414 . S
C633 C636 1.499 . S
C634 H614 0.950 . S
C634 C633 1.414 . S
C634 C635 1.374 . S
C635 H615 0.950 1_655 S
C635 C631 1.385 . S
C635 C634 1.374 . S
C636 C633 1.499 . S
C636 C637 1.373 . S
C636 C638 1.389 . S
C637 H616 0.950 . S
C637 C636 1.373 . S
C637 C653 1.377 . S
C638 C636 1.389 . S
C638 C639 1.524 . S
C638 C652 1.377 . S
C639 C638 1.524 . S
C639 C640 1.397 . S
C639 C644 1.363 . S
C640 H617 0.950 . S
C640 C639 1.397 . S
C640 C641 1.334 . S
C641 H618 0.950 . S
C641 C640 1.334 . S
C641 C642 1.287 . S
C642 C641 1.287 . S
C642 C643 1.524 . S
C642 H661 0.913 . S
C643 H619 0.950 . S
C643 C642 1.524 . S
C643 C644 1.415 . S
C644 H620 0.950 . S
C644 C639 1.363 . S
C644 C643 1.415 . S
C645 H621 0.951 . S
C645 C646 1.366 . S
C645 C647 1.388 . S
C646 C645 1.366 . S
C646 C650 1.385 . S
C647 H622 0.951 . S
C647 C645 1.388 . S
C647 C648 1.366 . S
C648 C647 1.366 . S
C648 C649 1.414 . S
C648 C651 1.499 . S
C649 H623 0.950 . S
C649 C648 1.414 . S
C649 C650 1.374 . S
C650 H624 0.950 . S
C650 C646 1.385 . S
C650 C649 1.374 . S
C651 C648 1.499 . S
C651 C652 1.373 . S
C651 C653 1.389 . S
C652 H625 0.950 . S
C652 C638 1.377 . S
C652 C651 1.373 . S
C653 C637 1.377 . S
C653 C651 1.389 . S
C653 C654 1.524 . S
C654 C653 1.524 . S
C654 C655 1.397 . S
C654 C659 1.363 . S
C655 H626 0.950 . S
C655 C654 1.397 . S
C655 C656 1.334 1_565 S
C656 H627 0.950 . S
C656 C655 1.334 1_545 S
C656 C657 1.287 . S
C657 C656 1.287 . S
C657 C658 1.524 1_545 S
C657 H660 0.999 . S
C658 H628 0.950 . S
C658 C657 1.524 1_565 S
C658 C659 1.415 . S
C659 H629 0.950 . S
C659 C654 1.363 . S
C659 C658 1.415 . S
H660 C657 0.999 . S
H661 C642 0.913 . S
H662 C680 0.951 . S
H663 C682 0.951 . S
H664 C684 0.950 . S
H665 C685 0.950 . S
H666 C687 0.950 . S
H667 C690 0.950 . S
H668 C691 0.950 . S
H669 C693 0.950 . S
H670 C694 0.950 . S
H671 C695 0.951 . S
H672 C697 0.951 . S
H673 C699 0.950 . S
H674 C700 0.950 . S
H675 C702 0.950 . S
H676 C705 0.950 . S
H677 C706 0.950 . S
H678 C708 0.950 . S
H679 C709 0.950 . S
C680 H662 0.951 . S
C680 C681 1.366 . S
C680 C682 1.388 . S
C681 C680 1.366 . S
C681 C685 1.385 . S
C682 H663 0.951 . S
C682 C680 1.388 . S
C682 C683 1.366 . S
C683 C682 1.366 . S
C683 C684 1.414 . S
C683 C686 1.499 . S
C684 H664 0.950 . S
C684 C683 1.414 . S
C684 C685 1.374 . S
C685 H665 0.950 . S
C685 C681 1.385 . S
C685 C684 1.374 . S
C686 C683 1.499 . S
C686 C687 1.373 . S
C686 C688 1.389 . S
C687 H666 0.950 . S
C687 C686 1.373 . S
C687 C703 1.377 . S
C688 C686 1.389 . S
C688 C689 1.524 . S
C688 C702 1.377 . S
C689 C688 1.524 . S
C689 C690 1.397 . S
C689 C694 1.363 . S
C690 H667 0.950 . S
C690 C689 1.397 . S
C690 C691 1.334 . S
C691 H668 0.950 . S
C691 C690 1.334 . S
C691 C692 1.287 . S
C692 C691 1.287 . S
C692 C693 1.524 . S
C692 H711 0.913 . S
C693 H669 0.950 . S
C693 C692 1.524 . S
C693 C694 1.415 . S
C694 H670 0.950 . S
C694 C689 1.363 . S
C694 C693 1.415 . S
C695 H671 0.951 . S
C695 C696 1.366 . S
C695 C697 1.388 . S
C696 C695 1.366 . S
C696 C700 1.385 1_565 S
C697 H672 0.951 . S
C697 C695 1.388 . S
C697 C698 1.366 . S
C698 C697 1.366 . S
C698 C699 1.414 . S
C698 C701 1.499 . S
C699 H673 0.950 . S
C699 C698 1.414 . S
C699 C700 1.374 1_565 S
C700 H674 0.950 . S
C700 C696 1.385 1_545 S
C700 C699 1.374 1_545 S
C701 C698 1.499 . S
C701 C702 1.373 . S
C701 C703 1.389 . S
C702 H675 0.950 . S
C702 C688 1.377 . S
C702 C701 1.373 . S
C703 C687 1.377 . S
C703 C701 1.389 . S
C703 C704 1.524 . S
C704 C703 1.524 . S
C704 C705 1.397 . S
C704 C709 1.363 . S
C705 H676 0.950 . S
C705 C704 1.397 . S
C705 C706 1.334 . S
C706 H677 0.950 . S
C706 C705 1.334 . S
C706 C707 1.287 . S
C707 C706 1.287 . S
C707 C708 1.524 . S
C707 H710 0.999 . S
C708 H678 0.950 . S
C708 C707 1.524 . S
C708 C709 1.415 . S
C709 H679 0.950 . S
C709 C704 1.363 . S
C709 C708 1.415 . S
H710 C707 0.999 . S
H711 C692 0.913 . S
H712 C730 0.951 . S
H713 C732 0.951 . S
H714 C734 0.950 . S
H715 C735 0.932 1_545 S
H716 C737 0.950 . S
H717 C740 0.950 . S
H718 C741 0.950 . S
H719 C743 0.950 . S
H720 C744 0.950 . S
H721 C745 0.951 1_455 S
H722 C747 0.951 . S
H723 C749 0.950 . S
H724 C750 0.950 . S
H725 C752 0.950 . S
H726 C755 0.950 . S
H727 C756 0.950 . S
H728 C758 0.950 . S
H729 C759 0.950 . S
C730 H712 0.951 . S
C730 C731 1.366 . S
C730 C732 1.388 . S
C731 C730 1.366 . S
C731 C735 1.385 . S
C732 H713 0.951 . S
C732 C730 1.388 . S
C732 C733 1.366 . S
C733 C732 1.366 . S
C733 C734 1.414 . S
C733 C736 1.499 . S
C734 H714 0.950 . S
C734 C733 1.414 . S
C734 C735 1.374 . S
C735 H715 0.932 1_565 S
C735 C731 1.385 . S
C735 C734 1.374 . S
C736 C733 1.499 . S
C736 C737 1.373 . S
C736 C738 1.389 . S
C737 H716 0.950 . S
C737 C736 1.373 . S
C737 C753 1.377 . S
C738 C736 1.389 . S
C738 C739 1.524 . S
C738 C752 1.377 . S
C739 C738 1.524 . S
C739 C740 1.397 . S
C739 C744 1.363 . S
C740 H717 0.950 . S
C740 C739 1.397 . S
C740 C741 1.334 . S
C741 H718 0.950 . S
C741 C740 1.334 . S
C741 C742 1.287 . S
C742 C741 1.287 . S
C742 C743 1.524 . S
C742 H761 0.913 . S
C743 H719 0.950 . S
C743 C742 1.524 . S
C743 C744 1.415 . S
C744 H720 0.950 . S
C744 C739 1.363 . S
C744 C743 1.415 . S
C745 H721 0.951 1_655 S
C745 C746 1.366 . S
C745 C747 1.388 . S
C746 C745 1.366 . S
C746 C750 1.385 . S
C747 H722 0.951 . S
C747 C745 1.388 . S
C747 C748 1.366 . S
C748 C747 1.366 . S
C748 C749 1.414 . S
C748 C751 1.499 . S
C749 H723 0.950 . S
C749 C748 1.414 . S
C749 C750 1.374 . S
C750 H724 0.950 . S
C750 C746 1.385 . S
C750 C749 1.374 . S
C751 C748 1.499 . S
C751 C752 1.373 . S
C751 C753 1.389 . S
C752 H725 0.950 . S
C752 C738 1.377 . S
C752 C751 1.373 . S
C753 C737 1.377 . S
C753 C751 1.389 . S
C753 C754 1.524 . S
C754 C753 1.524 . S
C754 C755 1.397 . S
C754 C759 1.363 . S
C755 H726 0.950 . S
C755 C754 1.397 . S
C755 C756 1.334 . S
C756 H727 0.950 . S
C756 C755 1.334 . S
C756 C757 1.287 . S
C757 C756 1.287 . S
C757 C758 1.524 . S
C757 H760 0.999 . S
C758 H728 0.950 . S
C758 C757 1.524 . S
C758 C759 1.415 . S
C759 H729 0.950 . S
C759 C754 1.363 . S
C759 C758 1.415 . S
H760 C757 0.999 . S
H761 C742 0.913 . S
H762 C780 0.951 . S
H763 C782 0.951 . S
H764 C784 0.950 . S
H765 C785 0.950 . S
H766 C787 0.950 . S
H767 C790 0.950 . S
H768 C791 0.950 . S
H769 C793 0.950 . S
H770 C794 0.950 . S
H771 C795 0.951 . S
H772 C797 0.951 . S
H773 C799 0.950 . S
H774 C800 0.950 . S
H775 C802 0.950 . S
H776 C805 0.950 . S
H777 C806 0.950 . S
H778 C808 0.950 . S
H779 C809 0.950 . S
C780 H762 0.951 . S
C780 C781 1.366 . S
C780 C782 1.388 . S
C781 C780 1.366 . S
C781 C785 1.385 . S
C782 H763 0.951 . S
C782 C780 1.388 . S
C782 C783 1.366 . S
C783 C782 1.366 . S
C783 C784 1.414 . S
C783 C786 1.499 . S
C784 H764 0.950 . S
C784 C783 1.414 . S
C784 C785 1.374 . S
C785 H765 0.950 . S
C785 C781 1.385 . S
C785 C784 1.374 . S
C786 C783 1.499 . S
C786 C787 1.373 . S
C786 C788 1.389 . S
C787 H766 0.950 . S
C787 C786 1.373 . S
C787 C803 1.377 . S
C788 C786 1.389 . S
C788 C789 1.524 . S
C788 C802 1.377 . S
C789 C788 1.524 . S
C789 C790 1.397 . S
C789 C794 1.363 . S
C790 H767 0.950 . S
C790 C789 1.397 . S
C790 C791 1.334 . S
C791 H768 0.950 . S
C791 C790 1.334 . S
C791 C792 1.287 . S
C792 C791 1.287 . S
C792 C793 1.524 . S
C792 H811 0.913 . S
C793 H769 0.950 . S
C793 C792 1.524 . S
C793 C794 1.415 . S
C794 H770 0.950 . S
C794 C789 1.363 . S
C794 C793 1.415 . S
C795 H771 0.951 . S
C795 C796 1.366 . S
C795 C797 1.388 . S
C796 C795 1.366 . S
C796 C800 1.385 . S
C797 H772 0.951 . S
C797 C795 1.388 . S
C797 C798 1.366 . S
C798 C797 1.366 . S
C798 C799 1.414 . S
C798 C801 1.499 . S
C799 H773 0.950 . S
C799 C798 1.414 . S
C799 C800 1.374 . S
C800 H774 0.950 . S
C800 C796 1.385 . S
C800 C799 1.374 . S
C801 C798 1.499 . S
C801 C802 1.373 . S
C801 C803 1.389 . S
C802 H775 0.950 . S
C802 C788 1.377 . S
C802 C801 1.373 . S
C803 C787 1.377 . S
C803 C801 1.389 . S
C803 C804 1.524 . S
C804 C803 1.524 . S
C804 C805 1.397 . S
C804 C809 1.363 . S
C805 H776 0.950 . S
C805 C804 1.397 . S
C805 C806 1.334 . S
C806 H777 0.950 . S
C806 C805 1.334 . S
C806 C807 1.287 . S
C807 C806 1.287 . S
C807 C808 1.524 . S
C807 H810 0.999 . S
C808 H778 0.950 . S
C808 C807 1.524 . S
C808 C809 1.415 . S
C809 H779 0.950 . S
C809 C804 1.363 . S
C809 C808 1.415 . S
H810 C807 0.999 . S
H811 C792 0.913 . S
H812 C830 0.951 . S
H813 C832 0.951 . S
H814 C834 0.950 . S
H815 C835 0.950 . S
H816 C837 0.950 . S
H817 C840 0.950 . S
H818 C841 0.950 . S
H819 C843 0.950 . S
H820 C844 0.950 . S
H821 C845 0.951 . S
H822 C847 0.951 . S
H823 C849 0.950 . S
H824 C850 0.950 . S
H825 C852 0.950 . S
H826 C855 0.950 . S
H827 C856 0.950 . S
H828 C858 0.950 . S
H829 C859 0.950 . S
C830 H812 0.951 . S
C830 C831 1.366 . S
C830 C832 1.388 . S
C831 C830 1.366 . S
C831 C835 1.385 . S
C832 H813 0.951 . S
C832 C830 1.388 . S
C832 C833 1.366 . S
C833 C832 1.366 . S
C833 C834 1.414 . S
C833 C836 1.499 . S
C834 H814 0.950 . S
C834 C833 1.414 . S
C834 C835 1.374 . S
C835 H815 0.950 . S
C835 C831 1.385 . S
C835 C834 1.374 . S
C836 C833 1.499 . S
C836 C837 1.373 . S
C836 C838 1.389 . S
C837 H816 0.950 . S
C837 C836 1.373 . S
C837 C853 1.377 . S
C838 C836 1.389 . S
C838 C839 1.524 . S
C838 C852 1.377 . S
C839 C838 1.524 . S
C839 C840 1.397 . S
C839 C844 1.363 . S
C840 H817 0.950 . S
C840 C839 1.397 . S
C840 C841 1.334 . S
C841 H818 0.950 . S
C841 C840 1.334 . S
C841 C842 1.287 . S
C842 C841 1.287 . S
C842 C843 1.524 . S
C842 H861 0.913 . S
C843 H819 0.950 . S
C843 C842 1.524 . S
C843 C844 1.415 . S
C844 H820 0.950 . S
C844 C839 1.363 . S
C844 C843 1.415 . S
C845 H821 0.951 . S
C845 C846 1.366 . S
C845 C847 1.388 . S
C846 C845 1.366 . S
C846 C850 1.385 . S
C847 H822 0.951 . S
C847 C845 1.388 . S
C847 C848 1.366 . S
C848 C847 1.366 . S
C848 C849 1.414 . S
C848 C851 1.499 . S
C849 H823 0.950 . S
C849 C848 1.414 . S
C849 C850 1.374 . S
C850 H824 0.950 . S
C850 C846 1.385 . S
C850 C849 1.374 . S
C851 C848 1.499 . S
C851 C852 1.373 . S
C851 C853 1.389 . S
C852 H825 0.950 . S
C852 C838 1.377 . S
C852 C851 1.373 . S
C853 C837 1.377 . S
C853 C851 1.389 . S
C853 C854 1.524 . S
C854 C853 1.524 . S
C854 C855 1.397 . S
C854 C859 1.363 . S
C855 H826 0.950 . S
C855 C854 1.397 . S
C855 C856 1.334 . S
C856 H827 0.950 . S
C856 C855 1.334 . S
C856 C857 1.287 . S
C857 C856 1.287 . S
C857 C858 1.524 . S
C857 H860 0.999 . S
C858 H828 0.950 . S
C858 C857 1.524 . S
C858 C859 1.415 . S
C859 H829 0.950 . S
C859 C854 1.363 . S
C859 C858 1.415 . S
H860 C857 0.999 . S
H861 C842 0.913 . S
H862 C880 0.983 . S
H863 C882 0.951 . S
H864 C884 0.950 . S
H865 C885 0.950 . S
H866 C887 0.950 . S
H867 C890 0.950 . S
H868 C891 0.950 . S
H869 C893 0.950 . S
H870 C894 0.950 . S
H871 C895 0.951 . S
H872 C897 0.951 . S
H873 C899 0.950 . S
H874 C900 0.950 . S
H875 C902 0.950 . S
H876 C905 0.950 . S
H877 C906 0.950 . S
H878 C908 0.950 . S
H879 C909 0.950 . S
C880 H862 0.983 . S
C880 C881 1.366 . S
C880 C882 1.388 . S
C881 C880 1.366 . S
C881 C885 1.385 . S
C882 H863 0.951 . S
C882 C880 1.388 . S
C882 C883 1.366 . S
C883 C882 1.366 . S
C883 C884 1.414 . S
C883 C886 1.499 . S
C884 H864 0.950 . S
C884 C883 1.414 . S
C884 C885 1.374 . S
C885 H865 0.950 . S
C885 C881 1.385 . S
C885 C884 1.374 . S
C886 C883 1.499 . S
C886 C887 1.373 . S
C886 C888 1.389 . S
C887 H866 0.950 . S
C887 C886 1.373 . S
C887 C903 1.377 . S
C888 C886 1.389 . S
C888 C889 1.524 . S
C888 C902 1.377 . S
C889 C888 1.524 . S
C889 C890 1.397 . S
C889 C894 1.363 . S
C890 H867 0.950 . S
C890 C889 1.397 . S
C890 C891 1.334 . S
C891 H868 0.950 . S
C891 C890 1.334 . S
C891 C892 1.287 . S
C892 C891 1.287 . S
C892 C893 1.524 . S
C892 H911 0.913 . S
C893 H869 0.950 . S
C893 C892 1.524 . S
C893 C894 1.415 . S
C894 H870 0.950 . S
C894 C889 1.363 . S
C894 C893 1.415 . S
C895 H871 0.951 . S
C895 C896 1.366 . S
C895 C897 1.388 . S
C896 C895 1.366 . S
C896 C900 1.385 . S
C897 H872 0.951 . S
C897 C895 1.388 . S
C897 C898 1.366 . S
C898 C897 1.366 . S
C898 C899 1.414 . S
C898 C901 1.499 . S
C899 H873 0.950 . S
C899 C898 1.414 . S
C899 C900 1.374 . S
C900 H874 0.950 . S
C900 C896 1.385 . S
C900 C899 1.374 . S
C901 C898 1.499 . S
C901 C902 1.373 . S
C901 C903 1.389 . S
C902 H875 0.950 . S
C902 C888 1.377 . S
C902 C901 1.373 . S
C903 C887 1.377 . S
C903 C901 1.389 . S
C903 C904 1.524 . S
C904 C903 1.524 . S
C904 C905 1.397 . S
C904 C909 1.363 . S
C905 H876 0.950 . S
C905 C904 1.397 . S
C905 C906 1.334 . S
C906 H877 0.950 . S
C906 C905 1.334 . S
C906 C907 1.287 . S
C907 C906 1.287 . S
C907 C908 1.524 . S
C907 H910 0.999 . S
C908 H878 0.950 . S
C908 C907 1.524 . S
C908 C909 1.415 . S
C909 H879 0.950 . S
C909 C904 1.363 . S
C909 C908 1.415 . S
H910 C907 0.999 . S
H911 C892 0.913 . S
C131 C9 1.592 . S
C146 C65 1.592 . S
C181 C23 1.592 . S
C196 C79 1.592 . S
C231 C93 1.592 . S
C246 C37 1.592 . S
C281 C107 1.592 . S
C296 C51 1.592 . S
C331 C11 1.148 . S
C346 C39 1.147 . S
C381 C25 1.147 . S
C396 C53 1.147 . S
C431 C95 1.148 . S
C446 C67 1.148 . S
C481 C81 1.147 . S
C496 C109 1.147 . S
C531 C75 1.544 . S
C546 C5 1.544 . S
C581 C19 1.543 1_655 S
C596 C89 1.544 . S
C631 C103 1.544 1_655 S
C646 C33 1.544 1_565 S
C681 C47 1.543 . S
C696 C61 1.543 1_565 S
C731 C84 0.957 . S
C746 C42 0.957 . S
C781 C0 0.957 . S
C796 C98 0.958 . S
C831 C14 0.957 . S
C846 C56 0.956 . S
C881 C70 0.956 . S
C896 C28 0.956 . S
