# Generated by pormake.
# Topology wir, (6)-cn, num edge types: 1
# Building blocks:
#     Node 0, Type 0, BuildingBlock: KUMBUR_clean_sbu_0, # of connection points: 6
#     Node 1, Type 0, BuildingBlock: KUMBUR_clean_sbu_0, # of connection points: 6
#     Node 2, Type 0, BuildingBlock: KUMBUR_clean_sbu_0, # of connection points: 6
#     Node 3, Type 0, BuildingBlock: KUMBUR_clean_sbu_0, # of connection points: 6
#     Node 4, Type 0, BuildingBlock: KUMBUR_clean_sbu_0, # of connection points: 6
#     Node 5, Type 0, BuildingBlock: KUMBUR_clean_sbu_0, # of connection points: 6
#     Node 6, Type 0, BuildingBlock: KUMBUR_clean_sbu_0, # of connection points: 6
#     Node 7, Type 0, BuildingBlock: KUMBUR_clean_sbu_0, # of connection points: 6
#     Node 8, Type 0, BuildingBlock: KUMBUR_clean_sbu_0, # of connection points: 6
#     Node 9, Type 0, BuildingBlock: KUMBUR_clean_sbu_0, # of connection points: 6
#     Node 10, Type 0, BuildingBlock: KUMBUR_clean_sbu_0, # of connection points: 6
#     Node 11, Type 0, BuildingBlock: KUMBUR_clean_sbu_0, # of connection points: 6
#     Node 12, Type 0, BuildingBlock: KUMBUR_clean_sbu_0, # of connection points: 6
#     Node 13, Type 0, BuildingBlock: KUMBUR_clean_sbu_0, # of connection points: 6
#     Node 14, Type 0, BuildingBlock: KUMBUR_clean_sbu_0, # of connection points: 6
#     Node 15, Type 0, BuildingBlock: KUMBUR_clean_sbu_0, # of connection points: 6
#     Node 16, Type 0, BuildingBlock: KUMBUR_clean_sbu_0, # of connection points: 6
#     Node 17, Type 0, BuildingBlock: KUMBUR_clean_sbu_0, # of connection points: 6
#     Node 18, Type 0, BuildingBlock: KUMBUR_clean_sbu_0, # of connection points: 6
#     Node 19, Type 0, BuildingBlock: KUMBUR_clean_sbu_0, # of connection points: 6
#     Node 20, Type 0, BuildingBlock: KUMBUR_clean_sbu_0, # of connection points: 6
#     Node 21, Type 0, BuildingBlock: KUMBUR_clean_sbu_0, # of connection points: 6
#     Node 22, Type 0, BuildingBlock: KUMBUR_clean_sbu_0, # of connection points: 6
#     Node 23, Type 0, BuildingBlock: KUMBUR_clean_sbu_0, # of connection points: 6
#     Node 24, Type 0, BuildingBlock: KUMBUR_clean_sbu_0, # of connection points: 6
#     Node 25, Type 0, BuildingBlock: KUMBUR_clean_sbu_0, # of connection points: 6
#     Node 26, Type 0, BuildingBlock: KUMBUR_clean_sbu_0, # of connection points: 6
#     Node 27, Type 0, BuildingBlock: KUMBUR_clean_sbu_0, # of connection points: 6
#     Node 28, Type 0, BuildingBlock: KUMBUR_clean_sbu_0, # of connection points: 6
#     Node 29, Type 0, BuildingBlock: KUMBUR_clean_sbu_0, # of connection points: 6
#     Node 30, Type 0, BuildingBlock: KUMBUR_clean_sbu_0, # of connection points: 6
#     Node 31, Type 0, BuildingBlock: KUMBUR_clean_sbu_0, # of connection points: 6
#     Edge 32, Type (0, 0), BuildingBlock: CIFDUS_clean_linker_0, # of connection points: 2
#     Edge 33, Type (0, 0), BuildingBlock: CIFDUS_clean_linker_0, # of connection points: 2
#     Edge 34, Type (0, 0), BuildingBlock: CIFDUS_clean_linker_0, # of connection points: 2
#     Edge 35, Type (0, 0), BuildingBlock: CIFDUS_clean_linker_0, # of connection points: 2
#     Edge 36, Type (0, 0), BuildingBlock: CIFDUS_clean_linker_0, # of connection points: 2
#     Edge 37, Type (0, 0), BuildingBlock: CIFDUS_clean_linker_0, # of connection points: 2
#     Edge 38, Type (0, 0), BuildingBlock: CIFDUS_clean_linker_0, # of connection points: 2
#     Edge 39, Type (0, 0), BuildingBlock: CIFDUS_clean_linker_0, # of connection points: 2
#     Edge 40, Type (0, 0), BuildingBlock: CIFDUS_clean_linker_0, # of connection points: 2
#     Edge 41, Type (0, 0), BuildingBlock: CIFDUS_clean_linker_0, # of connection points: 2
#     Edge 42, Type (0, 0), BuildingBlock: CIFDUS_clean_linker_0, # of connection points: 2
#     Edge 43, Type (0, 0), BuildingBlock: CIFDUS_clean_linker_0, # of connection points: 2
#     Edge 44, Type (0, 0), BuildingBlock: CIFDUS_clean_linker_0, # of connection points: 2
#     Edge 45, Type (0, 0), BuildingBlock: CIFDUS_clean_linker_0, # of connection points: 2
#     Edge 46, Type (0, 0), BuildingBlock: CIFDUS_clean_linker_0, # of connection points: 2
#     Edge 47, Type (0, 0), BuildingBlock: CIFDUS_clean_linker_0, # of connection points: 2
#     Edge 48, Type (0, 0), BuildingBlock: CIFDUS_clean_linker_0, # of connection points: 2
#     Edge 49, Type (0, 0), BuildingBlock: CIFDUS_clean_linker_0, # of connection points: 2
#     Edge 50, Type (0, 0), BuildingBlock: CIFDUS_clean_linker_0, # of connection points: 2
#     Edge 51, Type (0, 0), BuildingBlock: CIFDUS_clean_linker_0, # of connection points: 2
#     Edge 52, Type (0, 0), BuildingBlock: CIFDUS_clean_linker_0, # of connection points: 2
#     Edge 53, Type (0, 0), BuildingBlock: CIFDUS_clean_linker_0, # of connection points: 2
#     Edge 54, Type (0, 0), BuildingBlock: CIFDUS_clean_linker_0, # of connection points: 2
#     Edge 55, Type (0, 0), BuildingBlock: CIFDUS_clean_linker_0, # of connection points: 2
#     Edge 56, Type (0, 0), BuildingBlock: CIFDUS_clean_linker_0, # of connection points: 2
#     Edge 57, Type (0, 0), BuildingBlock: CIFDUS_clean_linker_0, # of connection points: 2
#     Edge 58, Type (0, 0), BuildingBlock: CIFDUS_clean_linker_0, # of connection points: 2
#     Edge 59, Type (0, 0), BuildingBlock: CIFDUS_clean_linker_0, # of connection points: 2
#     Edge 60, Type (0, 0), BuildingBlock: CIFDUS_clean_linker_0, # of connection points: 2
#     Edge 61, Type (0, 0), BuildingBlock: CIFDUS_clean_linker_0, # of connection points: 2
#     Edge 62, Type (0, 0), BuildingBlock: CIFDUS_clean_linker_0, # of connection points: 2
#     Edge 63, Type (0, 0), BuildingBlock: CIFDUS_clean_linker_0, # of connection points: 2
#     Edge 64, Type (0, 0), BuildingBlock: CIFDUS_clean_linker_0, # of connection points: 2
#     Edge 65, Type (0, 0), BuildingBlock: CIFDUS_clean_linker_0, # of connection points: 2
#     Edge 66, Type (0, 0), BuildingBlock: CIFDUS_clean_linker_0, # of connection points: 2
#     Edge 67, Type (0, 0), BuildingBlock: CIFDUS_clean_linker_0, # of connection points: 2
#     Edge 68, Type (0, 0), BuildingBlock: CIFDUS_clean_linker_0, # of connection points: 2
#     Edge 69, Type (0, 0), BuildingBlock: CIFDUS_clean_linker_0, # of connection points: 2
#     Edge 70, Type (0, 0), BuildingBlock: CIFDUS_clean_linker_0, # of connection points: 2
#     Edge 71, Type (0, 0), BuildingBlock: CIFDUS_clean_linker_0, # of connection points: 2
#     Edge 72, Type (0, 0), BuildingBlock: CIFDUS_clean_linker_0, # of connection points: 2
#     Edge 73, Type (0, 0), BuildingBlock: CIFDUS_clean_linker_0, # of connection points: 2
#     Edge 74, Type (0, 0), BuildingBlock: CIFDUS_clean_linker_0, # of connection points: 2
#     Edge 75, Type (0, 0), BuildingBlock: CIFDUS_clean_linker_0, # of connection points: 2
#     Edge 76, Type (0, 0), BuildingBlock: CIFDUS_clean_linker_0, # of connection points: 2
#     Edge 77, Type (0, 0), BuildingBlock: CIFDUS_clean_linker_0, # of connection points: 2
#     Edge 78, Type (0, 0), BuildingBlock: CIFDUS_clean_linker_0, # of connection points: 2
#     Edge 79, Type (0, 0), BuildingBlock: CIFDUS_clean_linker_0, # of connection points: 2
#     Edge 80, Type (0, 0), BuildingBlock: CIFDUS_clean_linker_0, # of connection points: 2
#     Edge 81, Type (0, 0), BuildingBlock: CIFDUS_clean_linker_0, # of connection points: 2
#     Edge 82, Type (0, 0), BuildingBlock: CIFDUS_clean_linker_0, # of connection points: 2
#     Edge 83, Type (0, 0), BuildingBlock: CIFDUS_clean_linker_0, # of connection points: 2
#     Edge 84, Type (0, 0), BuildingBlock: CIFDUS_clean_linker_0, # of connection points: 2
#     Edge 85, Type (0, 0), BuildingBlock: CIFDUS_clean_linker_0, # of connection points: 2
#     Edge 86, Type (0, 0), BuildingBlock: CIFDUS_clean_linker_0, # of connection points: 2
#     Edge 87, Type (0, 0), BuildingBlock: CIFDUS_clean_linker_0, # of connection points: 2
#     Edge 88, Type (0, 0), BuildingBlock: CIFDUS_clean_linker_0, # of connection points: 2
#     Edge 89, Type (0, 0), BuildingBlock: CIFDUS_clean_linker_0, # of connection points: 2
#     Edge 90, Type (0, 0), BuildingBlock: CIFDUS_clean_linker_0, # of connection points: 2
#     Edge 91, Type (0, 0), BuildingBlock: CIFDUS_clean_linker_0, # of connection points: 2
#     Edge 92, Type (0, 0), BuildingBlock: CIFDUS_clean_linker_0, # of connection points: 2
#     Edge 93, Type (0, 0), BuildingBlock: CIFDUS_clean_linker_0, # of connection points: 2
#     Edge 94, Type (0, 0), BuildingBlock: CIFDUS_clean_linker_0, # of connection points: 2
#     Edge 95, Type (0, 0), BuildingBlock: CIFDUS_clean_linker_0, # of connection points: 2
#     Edge 96, Type (0, 0), BuildingBlock: CIFDUS_clean_linker_0, # of connection points: 2
#     Edge 97, Type (0, 0), BuildingBlock: CIFDUS_clean_linker_0, # of connection points: 2
#     Edge 98, Type (0, 0), BuildingBlock: CIFDUS_clean_linker_0, # of connection points: 2
#     Edge 99, Type (0, 0), BuildingBlock: CIFDUS_clean_linker_0, # of connection points: 2
#     Edge 100, Type (0, 0), BuildingBlock: CIFDUS_clean_linker_0, # of connection points: 2
#     Edge 101, Type (0, 0), BuildingBlock: CIFDUS_clean_linker_0, # of connection points: 2
#     Edge 102, Type (0, 0), BuildingBlock: CIFDUS_clean_linker_0, # of connection points: 2
#     Edge 103, Type (0, 0), BuildingBlock: CIFDUS_clean_linker_0, # of connection points: 2
#     Edge 104, Type (0, 0), BuildingBlock: CIFDUS_clean_linker_0, # of connection points: 2
#     Edge 105, Type (0, 0), BuildingBlock: CIFDUS_clean_linker_0, # of connection points: 2
#     Edge 106, Type (0, 0), BuildingBlock: CIFDUS_clean_linker_0, # of connection points: 2
#     Edge 107, Type (0, 0), BuildingBlock: CIFDUS_clean_linker_0, # of connection points: 2
#     Edge 108, Type (0, 0), BuildingBlock: CIFDUS_clean_linker_0, # of connection points: 2
#     Edge 109, Type (0, 0), BuildingBlock: CIFDUS_clean_linker_0, # of connection points: 2
#     Edge 110, Type (0, 0), BuildingBlock: CIFDUS_clean_linker_0, # of connection points: 2
#     Edge 111, Type (0, 0), BuildingBlock: CIFDUS_clean_linker_0, # of connection points: 2
#     Edge 112, Type (0, 0), BuildingBlock: CIFDUS_clean_linker_0, # of connection points: 2
#     Edge 113, Type (0, 0), BuildingBlock: CIFDUS_clean_linker_0, # of connection points: 2
#     Edge 114, Type (0, 0), BuildingBlock: CIFDUS_clean_linker_0, # of connection points: 2
#     Edge 115, Type (0, 0), BuildingBlock: CIFDUS_clean_linker_0, # of connection points: 2
#     Edge 116, Type (0, 0), BuildingBlock: CIFDUS_clean_linker_0, # of connection points: 2
#     Edge 117, Type (0, 0), BuildingBlock: CIFDUS_clean_linker_0, # of connection points: 2
#     Edge 118, Type (0, 0), BuildingBlock: CIFDUS_clean_linker_0, # of connection points: 2
#     Edge 119, Type (0, 0), BuildingBlock: CIFDUS_clean_linker_0, # of connection points: 2
#     Edge 120, Type (0, 0), BuildingBlock: CIFDUS_clean_linker_0, # of connection points: 2
#     Edge 121, Type (0, 0), BuildingBlock: CIFDUS_clean_linker_0, # of connection points: 2
#     Edge 122, Type (0, 0), BuildingBlock: CIFDUS_clean_linker_0, # of connection points: 2
#     Edge 123, Type (0, 0), BuildingBlock: CIFDUS_clean_linker_0, # of connection points: 2
#     Edge 124, Type (0, 0), BuildingBlock: CIFDUS_clean_linker_0, # of connection points: 2
#     Edge 125, Type (0, 0), BuildingBlock: CIFDUS_clean_linker_0, # of connection points: 2
#     Edge 126, Type (0, 0), BuildingBlock: CIFDUS_clean_linker_0, # of connection points: 2
#     Edge 127, Type (0, 0), BuildingBlock: CIFDUS_clean_linker_0, # of connection points: 2
# Relax obj value: 0.347
# Max RMSD: 0.206
# Mean RMSD: 0.206
data_MOF--net-wir--node1-KUMBUR_clean_sbu_0--edge1-CIFDUS_clean_linker_0
_symmetry_space_group_name_H-M    P1
_symmetry_Int_Tables_number       1
_symmetry_cell_setting            triclinic
loop_
_symmetry_equiv_pos_as_xyz
'x, y, z'
_cell_length_a     36.571935
_cell_length_b     36.535674
_cell_length_c     84.941945
_cell_angle_alpha  90.02037
_cell_angle_beta   89.891448
_cell_angle_gamma 89.984928
loop_
_atom_site_label
_atom_site_type_symbol
_atom_site_fract_x
_atom_site_fract_y
_atom_site_fract_z
_atom_type_partial_charge
Tb0 Tb 0.27709 0.28006 0.39844 0.0
C1 C 0.16507 0.17691 0.36967 0.0
C2 C 0.16054 0.11567 0.38015 0.0
C3 C 0.10884 0.14208 0.36638 0.0
C4 C 0.17964 0.14909 0.37864 0.0
C5 C 0.12975 0.17341 0.36313 0.0
C6 C 0.12443 0.11297 0.3747 0.0
C7 C 0.14078 0.22861 0.34834 0.0
N8 N 0.18695 0.20576 0.36607 0.0
C9 C 0.17596 0.23034 0.3547 0.0
C10 C 0.11733 0.20038 0.35278 0.0
Tb11 Tb 0.24364 0.20688 0.37831 0.0
N12 N 0.21448 0.15279 0.38391 0.0
C13 C 0.23325 0.12242 0.38885 0.0
C14 C 0.1792 0.08515 0.38593 0.0
C15 C 0.21599 0.08837 0.38993 0.0
H16 H 0.19304 0.25319 0.35144 0.0
H17 H 0.23113 1.06461 0.39385 0.0
H18 H 0.10899 0.0879 0.3762 0.0
H19 H 0.1318 0.2491 0.34 0.0
H20 H 0.26217 0.12345 0.39115 0.0
H21 H 0.23792 0.41933 0.38453 0.0
H22 H 0.16583 1.05878 0.38687 0.0
H23 H 0.34503 0.22723 0.38562 0.0
H24 H 0.23121 0.35966 0.39754 0.0
H25 H 0.39828 0.23351 0.36807 0.0
H26 H 0.08149 0.13914 0.36166 0.0
H27 H 0.29065 0.43104 0.36697 0.0
H28 H 0.34872 0.40821 0.3546 0.0
H29 H 0.09029 0.19879 0.34763 0.0
H30 H 0.39211 0.35787 0.35005 0.0
N31 N 0.27768 0.33587 0.38621 0.0
C32 C 0.2533 0.36343 0.38924 0.0
C33 C 0.28744 0.40437 0.37238 0.0
C34 C 0.31317 0.37665 0.36986 0.0
C35 C 0.25748 0.39776 0.38218 0.0
C36 C 0.30757 0.34233 0.37709 0.0
H37 H 0.4105 0.29254 0.35481 0.0
N38 N 0.32545 0.28118 0.38147 0.0
C39 C 0.37983 0.25636 0.36976 0.0
C40 C 0.33239 0.31416 0.37473 0.0
C41 C 0.34923 0.25269 0.37953 0.0
C42 C 0.38677 0.28978 0.36237 0.0
C43 C 0.36308 0.3193 0.36489 0.0
O44 O 0.32584 0.282 0.41133 0.0
O45 O 0.25098 0.22989 0.40067 0.0
O46 O 0.19064 0.24284 0.38373 0.0
O47 O 0.21511 0.29742 0.39325 0.0
O48 O 0.23299 0.27037 0.41572 0.0
O49 O 0.28337 0.32245 0.41468 0.0
O50 O 0.29705 0.18899 0.37344 0.0
O51 O 0.26961 0.26026 0.37455 0.0
O52 O 0.30932 0.23051 0.41051 0.0
O53 O 0.27864 0.18119 0.39998 0.0
O54 O 0.25465 0.2344 0.35518 0.0
O55 O 0.2512 0.16701 0.36068 0.0
C56 C 0.22914 0.23639 0.41183 0.0
C57 C 0.31794 0.30547 0.43689 0.0
C58 C 0.29841 0.32823 0.46227 0.0
C59 C 0.30127 0.33198 0.44599 0.0
C60 C 0.31457 0.29809 0.46974 0.0
C61 C 0.33508 0.27559 0.44428 0.0
C62 C 0.33364 0.2722 0.46072 0.0
C63 C 0.18464 0.27851 0.38811 0.0
C64 C 0.3145 0.30938 0.41978 0.0
C65 C 0.36875 0.35342 0.35768 0.0
C66 C 0.34396 0.38206 0.36022 0.0
C67 C 0.27106 0.26384 0.35925 0.0
C68 C 0.30838 0.17039 0.34724 0.0
C69 C 0.34382 0.15577 0.34729 0.0
C70 C 0.36298 0.14944 0.33306 0.0
C71 C 0.34852 0.16529 0.31921 0.0
C72 C 0.29354 0.18323 0.33306 0.0
C73 C 0.31436 0.18233 0.31933 0.0
C74 C 0.30539 0.19321 0.41037 0.0
C75 C 0.28668 0.1682 0.36188 0.0
H76 H 0.28776 0.3546 0.4401 0.0
H77 H 0.31199 0.29439 0.48235 0.0
H78 H 0.34879 0.2547 0.43745 0.0
H79 H 0.3463 0.24892 0.4664 0.0
H80 H 0.35474 0.14683 0.35845 0.0
H81 H 0.36172 0.16239 0.3079 0.0
H82 H 0.2659 0.19365 0.33246 0.0
H83 H 0.30303 0.19286 0.30848 0.0
Tb84 Tb 0.10889 1.03097 0.65003 0.0
C85 C 0.22001 0.92274 0.62554 0.0
C86 C 0.27884 0.92736 0.63828 0.0
C87 C 0.25986 0.86936 0.62711 0.0
C88 C 0.24472 0.94284 0.63414 0.0
C89 C 0.228 0.8861 0.62139 0.0
C90 C 0.28556 0.89015 0.63535 0.0
C91 C 0.17819 0.88812 0.60297 0.0
N92 N 0.19079 0.94066 0.61938 0.0
C93 C 0.17222 0.92474 0.607 0.0
C94 C 0.20548 0.86833 0.61056 0.0
Tb95 Tb 0.18042 0.99963 0.62904 0.0
N96 N 0.23767 0.97895 0.63638 0.0
C97 C 0.26606 1.00183 0.6402 0.0
C98 C 0.30598 0.95019 0.64437 0.0
C99 C 0.29989 0.98779 0.6449 0.0
H100 H 0.15096 0.93897 0.60078 0.0
H101 H 0.32159 1.00611 0.64848 0.0
H102 H 0.31115 0.87761 0.63884 0.0
H103 H 0.1619 0.8753 0.59389 0.0
H104 H 0.26339 1.03118 0.63932 0.0
H105 H 0.97006 0.98664 0.63828 0.0
H106 H 0.33244 0.93938 0.64772 0.0
H107 H 0.15497 0.10518 0.63942 0.0
H108 H 1.03095 0.98193 0.65005 0.0
H109 H 0.14124 0.16386 0.62641 0.0
H110 H 0.26605 0.8411 0.62429 0.0
H111 H 0.95387 1.04055 0.62225 0.0
H112 H 0.97179 0.10138 0.61113 0.0
H113 H 0.21056 0.84019 0.60716 0.0
H114 H 1.01778 0.15004 0.60828 0.0
N115 N 1.05196 1.02974 0.63865 0.0
C116 C 1.0257 1.00407 0.64195 0.0
C117 C 0.98148 1.03762 0.62661 0.0
C118 C 1.00759 1.06488 0.62402 0.0
C119 C 0.99054 1.00716 0.63567 0.0
C120 C 1.043 1.06014 0.63027 0.0
H121 H 0.08057 0.17401 0.61433 0.0
N122 N 0.10264 0.08204 0.63478 0.0
C123 C 0.12067 0.14259 0.6269 0.0
C124 C 1.06885 0.08758 0.62864 0.0
C125 C 0.1284 0.10919 0.63423 0.0
C126 C 0.08638 0.14824 0.62011 0.0
C127 C 1.05997 0.12057 0.6209 0.0
O128 O 0.11053 0.07627 0.66518 0.0
O129 O 0.15945 1.00532 0.65161 0.0
O130 O 0.14561 0.94576 0.63351 0.0
O131 O 0.09202 0.96914 0.64402 0.0
O132 O 0.11925 0.98415 0.66589 0.0
O133 O 1.06695 1.03689 0.66674 0.0
O134 O 0.19484 1.05125 0.61985 0.0
O135 O 0.13147 1.03518 0.626 0.0
O136 O 0.15682 1.06337 0.66226 0.0
O137 O 0.20649 1.03614 0.65063 0.0
O138 O 0.13737 0.99626 0.61019 0.0
O139 O 0.21589 1.00219 0.6095 0.0
C140 C 0.15338 0.98199 0.66215 0.0
C141 C 0.08868 1.06387 0.69028 0.0
C142 C 0.07837 1.03057 0.7143 0.0
C143 C 0.0848 1.03075 0.69816 0.0
C144 C 0.08341 1.06264 0.72311 0.0
C145 C 0.09452 0.09608 0.69894 0.0
C146 C 0.09314 0.09511 0.71542 0.0
C147 C 0.11057 0.93909 0.63829 0.0
C148 C 0.08271 1.06513 0.67326 0.0
C149 C 1.02503 0.12503 0.61438 0.0
C150 C 0.9989 0.09725 0.61593 0.0
C151 C 0.11696 1.02426 0.61279 0.0
C152 C 0.204 1.05197 0.59244 0.0
C153 C 0.22019 0.08474 0.58748 0.0
C154 C 0.21121 0.10057 0.57279 0.0
C155 C 0.18281 0.08434 0.564 0.0
C156 C 0.17967 1.03386 0.58235 0.0
C157 C 0.1682 1.05064 0.56848 0.0
C158 C 0.19396 1.06124 0.66171 0.0
C159 C 0.21304 1.03743 0.60815 0.0
H160 H 0.07991 1.00584 0.69152 0.0
H161 H 0.07727 1.0631 0.73559 0.0
H162 H 0.09863 0.12198 0.69299 0.0
H163 H 0.09665 0.12007 0.72211 0.0
H164 H 0.2413 0.09632 0.59486 0.0
H165 H 0.17295 0.09661 0.55324 0.0
H166 H 0.1687 1.0073 0.58528 0.0
H167 H 0.1479 1.03745 0.56117 0.0
Tb168 Tb 0.36622 0.85954 0.90071 0.0
C169 C 0.4706 0.97212 0.87394 0.0
C170 C 0.46612 1.03169 0.88617 0.0
C171 C 0.52313 1.01324 0.87393 0.0
C172 C 0.45096 0.99696 0.88272 0.0
C173 C 0.5066 0.98056 0.869 0.0
C174 C 0.50269 1.03908 0.88229 0.0
C175 C 0.50424 0.92889 0.85152 0.0
N176 N 0.45277 0.94204 0.86852 0.0
C177 C 0.46822 0.92245 0.85628 0.0
C178 C 0.5239 0.95746 0.85823 0.0
Tb179 Tb 0.39462 0.93163 0.87911 0.0
N180 N 0.41541 0.98924 0.88591 0.0
C181 C 0.3925 1.01733 0.89018 0.0
C182 C 0.44356 1.05864 0.89264 0.0
C183 C 0.40633 1.05171 0.89424 0.0
H184 H 0.45427 0.89995 0.85078 0.0
H185 H 0.38804 0.07319 0.89813 0.0
H186 H 0.51499 1.06519 0.88521 0.0
H187 H 0.51671 0.91189 0.84255 0.0
H188 H 0.36318 1.01413 0.89004 0.0
H189 H 0.41571 0.72269 0.88745 0.0
H190 H 0.45416 0.08552 0.8955 0.0
H191 H 0.289 0.90197 0.89141 0.0
H192 H 0.41691 0.78239 0.9006 0.0
H193 H 0.23053 0.88601 0.87886 0.0
H194 H 0.55089 1.01983 0.87047 0.0
H195 H 0.36354 0.70584 0.87047 0.0
H196 H 0.30135 0.72145 0.86014 0.0
H197 H 0.55156 0.96285 0.85425 0.0
H198 H 0.25008 0.7649 0.85857 0.0
N199 N 0.36872 0.80242 0.88925 0.0
C200 C 0.39527 0.7769 0.89229 0.0
C201 C 0.36463 0.73287 0.87572 0.0
C202 C 0.33593 0.7577 0.87377 0.0
C203 C 0.39419 0.74235 0.88522 0.0
C204 C 0.33881 0.79266 0.88075 0.0
H205 H 0.22287 0.82565 0.86607 0.0
N206 N 0.31433 0.85085 0.88618 0.0
C207 C 0.25274 0.86643 0.87895 0.0
C208 C 0.31016 0.81721 0.87966 0.0
C209 C 0.28604 0.87539 0.88606 0.0
C210 C 0.24849 0.83231 0.87177 0.0
C211 C 0.27748 0.80729 0.87195 0.0
O212 O 0.32238 0.86021 0.91666 0.0
O213 O 0.39039 0.91089 0.90165 0.0
O214 O 0.44941 0.8974 0.8833 0.0
O215 O 0.42779 0.84377 0.89441 0.0
O216 O 0.41383 0.8723 0.91593 0.0
O217 O 0.36363 0.81835 0.91791 0.0
O218 O 0.34207 0.94746 0.87173 0.0
O219 O 0.35996 0.88189 0.87662 0.0
O220 O 0.33283 0.90708 0.91291 0.0
O221 O 0.35876 0.95722 0.90108 0.0
O222 O 0.39622 0.8899 0.85976 0.0
O223 O 0.38963 0.96579 0.85923 0.0
C224 C 0.41441 0.90634 0.91196 0.0
C225 C 0.34094 0.84336 0.94177 0.0
C226 C 0.37795 0.83759 0.9651 0.0
C227 C 0.375 0.83869 0.94877 0.0
C228 C 0.34823 0.84825 0.9745 0.0
C229 C 0.31116 0.8547 0.95104 0.0
C230 C 0.31525 0.85829 0.96736 0.0
C231 C 0.45707 0.86259 0.88829 0.0
C232 C 0.33629 0.83423 0.92507 0.0
C233 C 0.27477 0.77284 0.86472 0.0
C234 C 0.30402 0.74818 0.86555 0.0
C235 C 0.36977 0.86813 0.86305 0.0
C236 C 0.33454 0.95957 0.84472 0.0
C237 C 0.30359 0.98092 0.84184 0.0
C238 C 0.2827 0.97669 0.82795 0.0
C239 C 0.29275 0.94832 0.8175 0.0
C240 C 0.34593 0.93414 0.83341 0.0
C241 C 0.32448 0.92783 0.82011 0.0
C242 C 0.33422 0.94431 0.91232 0.0
C243 C 0.35418 0.96539 0.85962 0.0
H244 H 0.39806 0.82951 0.94173 0.0
H245 H 0.34973 0.8462 0.9872 0.0
H246 H 0.28469 0.85964 0.94574 0.0
H247 H 0.29209 0.86615 0.97455 0.0
H248 H 0.29758 1.00222 0.85028 0.0
H249 H 0.27712 0.94257 0.80701 0.0
H250 H 0.37083 0.91865 0.83494 0.0
H251 H 0.3326 0.907 0.81175 0.0
Tb252 Tb 0.52983 0.11703 0.14896 0.0
C253 C 0.42781 0.22844 0.12 0.0
C254 C 0.3674 0.2342 0.13123 0.0
C255 C 0.39402 0.28547 0.11716 0.0
C256 C 0.40024 0.21435 0.12927 0.0
C257 C 0.42469 0.2639 0.11353 0.0
C258 C 0.36516 0.27046 0.12586 0.0
C259 C 0.47902 0.25194 0.09826 0.0
N260 N 0.4561 0.20604 0.11615 0.0
C261 C 0.48046 0.21669 0.10462 0.0
C262 C 0.45138 0.27589 0.10294 0.0
Tb263 Tb 0.45702 0.14941 0.12852 0.0
N264 N 0.4035 0.17932 0.13441 0.0
C265 C 0.37303 0.16105 0.13957 0.0
C266 C 0.33691 0.21612 0.13737 0.0
C267 C 0.33948 0.17906 0.1411 0.0
H268 H 0.50291 0.19925 0.10121 0.0
H269 H 0.31563 0.16434 0.14523 0.0
H270 H 0.34055 0.28645 0.12769 0.0
H271 H 0.49932 0.26063 0.08976 0.0
H272 H 0.37362 0.13203 0.14177 0.0
H273 H 0.66889 0.15617 0.13486 0.0
H274 H 0.31094 0.23009 0.13869 0.0
H275 H 0.47714 1.04873 0.13646 0.0
H276 H 0.60926 0.16303 0.14787 0.0
H277 H 0.48338 0.99545 0.11891 0.0
H278 H 0.39139 0.31295 0.11251 0.0
H279 H 0.6806 0.10332 0.11738 0.0
H280 H 0.65767 1.04549 0.10488 0.0
H281 H 0.45008 0.30302 0.09781 0.0
H282 H 0.6074 1.00194 0.10051 0.0
N283 N 0.58548 0.11649 0.13663 0.0
C284 C 0.61302 0.14088 0.1396 0.0
C285 C 0.65395 0.10658 0.12279 0.0
C286 C 0.62625 0.08085 0.12031 0.0
C287 C 0.64734 0.13662 0.13255 0.0
C288 C 0.59196 0.08648 0.12757 0.0
H289 H 0.54223 0.9834 0.10546 0.0
N290 N 0.53093 1.06845 0.13212 0.0
C291 C 0.50617 1.01397 0.12052 0.0
C292 C 0.56384 1.06159 0.12529 0.0
C293 C 0.50253 1.04456 0.13029 0.0
C294 C 0.53949 1.00713 0.11303 0.0
C295 C 0.56896 1.03089 0.11545 0.0
O296 O 0.53348 1.06826 0.16176 0.0
O297 O 0.47929 0.14245 0.15095 0.0
O298 O 0.49264 0.20268 0.13383 0.0
O299 O 0.54696 0.17883 0.14379 0.0
O300 O 0.51898 0.16142 0.16607 0.0
O301 O 0.57206 0.11237 0.16547 0.0
O302 O 0.43915 0.09606 0.12354 0.0
O303 O 0.5109 0.12397 0.12474 0.0
O304 O 0.48064 0.08472 0.1613 0.0
O305 O 0.43127 0.11422 0.15027 0.0
O306 O 0.48433 0.13768 0.10539 0.0
O307 O 0.41648 0.14231 0.11121 0.0
C308 C 0.48511 0.16471 0.16199 0.0
C309 C 0.55902 0.07412 0.18701 0.0
C310 C 0.59052 0.0828 0.2116 0.0
C311 C 0.59098 0.08031 0.19526 0.0
C312 C 0.55831 0.07514 0.21995 0.0
C313 C 0.52668 1.06554 0.19521 0.0
C314 C 0.52665 1.06533 0.21171 0.0
C315 C 0.528 0.209 0.13846 0.0
C316 C 0.56085 0.08009 0.17003 0.0
C317 C 0.603 1.02527 0.10816 0.0
C318 C 0.63161 1.0501 0.11064 0.0
C319 C 0.51414 0.12185 0.10936 0.0
C320 C 0.42024 0.0857 0.09735 0.0
C321 C 0.40672 1.04982 0.09726 0.0
C322 C 0.40067 1.03096 0.08296 0.0
C323 C 0.41564 1.04646 1.0691 0.0
C324 C 0.43234 0.10144 0.08321 0.0
C325 C 0.43167 0.08113 1.06934 0.0
C326 C 0.44334 0.08811 0.161 0.0
C327 C 0.41802 0.10675 0.11216 0.0
H328 H 0.6156 0.08763 0.18879 0.0
H329 H 0.55735 0.07818 0.23263 0.0
H330 H 0.50148 1.06004 0.18901 0.0
H331 H 0.50165 1.05948 0.21807 0.0
H332 H 0.39844 1.03819 0.1084 0.0
H333 H 0.41282 1.03358 1.05773 0.0
H334 H 0.44205 0.12938 0.08276 0.0
H335 H 0.44165 0.09318 1.05852 0.0
Tb336 Tb 0.28146 0.86266 0.24104 0.0
C337 C 0.17369 0.97472 0.26681 0.0
C338 C 0.1818 1.03637 0.25712 0.0
C339 C 0.12258 1.01763 0.26708 0.0
C340 C 0.19522 1.00044 0.25939 0.0
C341 C 0.13745 0.98361 0.27127 0.0
C342 C 0.14494 1.04425 0.26024 0.0
C343 C 0.13647 0.92966 0.28745 0.0
N344 N 0.18995 0.94329 0.27172 0.0
C345 C 0.17282 0.92287 0.28328 0.0
C346 C 0.1183 0.95957 0.28103 0.0
Tb347 Tb 0.24907 0.93298 0.2622 0.0
N348 N 0.2308 0.99198 0.25658 0.0
C349 C 0.25521 1.01975 0.25377 0.0
C350 C 0.20622 1.06382 0.25257 0.0
C351 C 0.24324 1.05557 0.25119 0.0
H352 H 0.18573 0.89944 0.28854 0.0
H353 H 0.26275 0.077 0.24858 0.0
H354 H 0.13393 1.07131 0.25806 0.0
H355 H 0.12262 0.91197 0.29576 0.0
H356 H 0.28433 1.01499 0.25408 0.0
H357 H 0.23891 0.72326 0.25316 0.0
H358 H 0.19703 0.0917 0.25078 0.0
H359 H 0.3546 0.91027 0.25184 0.0
H360 H 0.23312 0.78407 0.2414 0.0
H361 H 0.41347 0.89732 0.26473 0.0
H362 H 0.09465 1.02459 0.27013 0.0
H363 H 0.29339 0.70774 0.26888 0.0
H364 H 0.35407 0.72643 0.27975 0.0
H365 H 0.09041 0.96529 0.2846 0.0
H366 H 0.40199 0.77318 0.28251 0.0
N367 N 0.28082 0.80581 0.25258 0.0
C368 C 0.25543 0.7792 0.24943 0.0
C369 C 0.28995 0.73535 0.26456 0.0
C370 C 0.31687 0.76184 0.26704 0.0
C371 C 0.25916 0.74404 0.25568 0.0
C372 C 0.3115 0.79725 0.26083 0.0
H373 H 0.42478 0.83653 0.27659 0.0
N374 N 0.33241 0.85738 0.25636 0.0
C375 C 0.39259 0.87637 0.26421 0.0
C376 C 0.33856 0.82354 0.2624 0.0
C377 C 0.35907 0.88365 0.25695 0.0
C378 C 0.3989 0.84201 0.27087 0.0
C379 C 0.37173 0.8151 0.27005 0.0
O380 O 0.32685 0.86455 0.22593 0.0
O381 O 0.25514 0.91294 0.23947 0.0
O382 O 0.19537 0.89843 0.25695 0.0
O383 O 0.21948 0.84516 0.24648 0.0
O384 O 0.23557 0.87291 0.22477 0.0
O385 O 0.28832 0.82025 0.22476 0.0
O386 O 0.30071 0.94594 0.27176 0.0
O387 O 0.28489 0.88435 0.26522 0.0
O388 O 0.31346 0.91096 0.22897 0.0
O389 O 0.2851 0.96015 0.24052 0.0
O390 O 0.24521 0.88923 0.28079 0.0
O391 O 0.25164 0.96703 0.28215 0.0
C392 C 0.23242 0.90691 0.22868 0.0
C393 C 0.31504 0.84017 0.20094 0.0
C394 C 0.28886 0.8184 0.17657 0.0
C395 C 0.2951 0.81454 0.19264 0.0
C396 C 0.30401 0.84809 0.1684 0.0
C397 C 0.33127 0.86955 0.19279 0.0
C398 C 0.32584 0.8733 0.17653 0.0
C399 C 0.18903 0.86342 0.252 0.0
C400 C 0.31641 0.83603 0.21811 0.0
C401 C 0.37683 0.7801 0.27649 0.0
C402 C 0.34947 0.75355 0.27498 0.0
C403 C 0.27368 0.86934 0.2783 0.0
C404 C 0.30072 0.95403 0.29933 0.0
C405 C 0.33344 0.96982 0.30451 0.0
C406 C 0.34818 0.96117 0.31944 0.0
C407 C 0.33088 0.93351 0.32833 0.0
C408 C 0.28168 0.93025 0.30939 0.0
C409 C 0.29737 0.91908 0.32354 0.0
C410 C 0.31069 0.94805 0.22949 0.0
C411 C 0.28678 0.96369 0.28359 0.0
H412 H 0.28233 0.7922 0.19903 0.0
H413 H 0.29881 0.85178 0.15596 0.0
H414 H 0.34742 0.8898 0.19895 0.0
H415 H 0.33786 0.89619 0.17031 0.0
H416 H 0.34574 0.99058 0.29713 0.0
H417 H 0.34216 0.92417 0.33937 0.0
H418 H 0.25516 0.91955 0.30623 0.0
H419 H 0.28339 0.89931 0.33088 0.0
Tb420 Tb 0.53125 1.02862 0.491 0.0
C421 C 0.425 0.91582 0.51625 0.0
C422 C 0.36863 0.90864 0.50179 0.0
C423 C 0.39229 0.8578 0.51705 0.0
C424 C 0.39972 0.92959 0.5058 0.0
C425 C 0.42116 0.87999 0.52227 0.0
C426 C 0.36582 0.87224 0.50694 0.0
C427 C 0.47151 0.8922 0.53976 0.0
N428 N 0.45189 0.93852 0.52137 0.0
C429 C 0.4739 0.92766 0.53367 0.0
C430 C 0.44543 0.86805 0.53387 0.0
Tb431 Tb 0.45497 0.99547 0.50929 0.0
N432 N 0.40334 0.96491 0.50106 0.0
C433 C 0.37407 0.98221 0.49426 0.0
C434 C 0.34039 0.92543 0.49341 0.0
C435 C 0.34271 0.96266 0.49003 0.0
H436 H 0.49541 0.94506 0.53803 0.0
H437 H 0.32014 0.97649 0.48435 0.0
H438 H 0.34263 0.85548 0.50363 0.0
H439 H 0.49001 0.88346 0.54896 0.0
H440 H 0.37373 1.01135 0.49246 0.0
H441 H 0.66784 0.98671 0.5077 0.0
H442 H 0.31602 0.91037 0.49018 0.0
H443 H 0.47789 0.09688 0.50325 0.0
H444 H 0.61001 0.98179 0.49321 0.0
H445 H 0.48316 0.14981 0.52101 0.0
H446 H 0.38921 0.83005 0.52136 0.0
H447 H 0.67797 1.03824 0.52606 0.0
H448 H 0.65449 0.09601 0.53847 0.0
H449 H 0.44349 0.84069 0.53871 0.0
H450 H 0.60472 0.14065 0.54185 0.0
N451 N 0.58538 1.02788 0.50449 0.0
C452 C 0.61297 1.0033 0.50183 0.0
C453 C 0.65205 1.03578 0.51999 0.0
C454 C 0.62453 1.06193 0.52205 0.0
C455 C 0.64632 1.0065 0.50974 0.0
C456 C 0.59121 1.05735 0.51393 0.0
H457 H 0.54073 0.16076 0.53551 0.0
N458 N 0.53123 0.07668 0.50816 0.0
C459 C 0.50589 0.13109 0.51967 0.0
C460 C 0.56337 0.08277 0.51571 0.0
C461 C 0.50285 0.10075 0.50972 0.0
C462 C 0.53851 0.13731 0.52776 0.0
C463 C 0.56781 0.11308 0.52582 0.0
O464 O 0.53745 0.07792 0.47877 0.0
O465 O 0.4809 1.00347 0.48752 0.0
O466 O 0.49172 0.94257 0.50492 0.0
O467 O 0.54731 0.96667 0.4964 0.0
O468 O 0.52292 0.98527 0.4733 0.0
O469 O 0.57495 1.03295 0.47507 0.0
O470 O 0.43701 1.04857 0.51482 0.0
O471 O 0.50832 1.02071 0.51434 0.0
O472 O 0.48304 1.06183 0.47858 0.0
O473 O 0.43159 1.03204 0.48756 0.0
O474 O 0.47989 1.00632 0.53302 0.0
O475 O 0.41157 1.00148 0.52543 0.0
C476 C 0.48854 0.9818 0.47643 0.0
C477 C 0.56388 0.07225 0.45364 0.0
C478 C 0.59508 1.06372 0.42887 0.0
C479 C 0.59538 1.06416 0.44526 0.0
C480 C 0.56366 0.07447 0.42066 0.0
C481 C 0.53242 0.08395 0.44555 0.0
C482 C 0.53263 0.08561 0.42907 0.0
C483 C 0.52769 0.93642 0.50117 0.0
C484 C 0.56489 1.06565 0.47062 0.0
C485 C 0.60089 0.11768 0.53395 0.0
C486 C 0.6292 0.09221 0.53205 0.0
C487 C 0.51008 1.0223 0.52972 0.0
C488 C 0.41545 1.05593 0.54082 0.0
C489 C 0.40295 0.09215 0.54175 0.0
C490 C 0.39742 0.10935 0.55648 0.0
C491 C 0.4118 0.09175 0.56996 0.0
C492 C 0.42666 1.03805 0.55462 0.0
C493 C 0.42659 1.05664 0.56893 0.0
C494 C 0.44567 1.05887 0.47775 0.0
C495 C 0.41413 1.03705 0.52543 0.0
H496 H 0.61938 1.05448 0.45154 0.0
H497 H 0.56281 0.07303 0.40793 0.0
H498 H 0.50764 0.0909 0.45181 0.0
H499 H 0.50824 0.09393 0.42282 0.0
H500 H 0.39504 0.10555 0.53093 0.0
H501 H 0.40919 0.10332 0.58161 0.0
H502 H 0.43521 1.00971 0.55448 0.0
H503 H 0.43594 1.04291 0.57947 0.0
Tb504 Tb 0.36389 0.2793 0.74131 0.0
C505 C 0.47475 0.17044 0.76518 0.0
C506 C 0.4715 0.11188 0.75205 0.0
C507 C 0.52899 0.13188 0.76331 0.0
C508 C 0.45526 0.14553 0.75642 0.0
C509 C 0.51156 0.16325 0.7692 0.0
C510 C 0.5088 0.10589 0.75494 0.0
C511 C 0.50863 0.21299 0.78771 0.0
N512 N 0.45619 0.19913 0.77149 0.0
C513 C 0.47189 0.21819 0.78379 0.0
C514 C 0.52889 0.18608 0.78005 0.0
Tb515 Tb 0.39685 0.20821 0.76217 0.0
N516 N 0.41904 0.15184 0.75427 0.0
C517 C 0.39687 0.12306 0.75019 0.0
C518 C 0.44937 0.08442 0.74575 0.0
C519 C 0.41169 0.0897 0.74524 0.0
H520 H 0.45733 0.23928 0.79002 0.0
H521 H 0.3939 1.06771 0.74148 0.0
H522 H 0.52191 0.08066 0.75129 0.0
H523 H 0.5212 0.22962 0.79675 0.0
H524 H 0.3675 0.12497 0.7511 0.0
H525 H 0.40668 0.41745 0.75619 0.0
H526 H 0.46078 1.05832 0.74219 0.0
H527 H 0.29129 0.23032 0.75186 0.0
H528 H 0.41187 0.35835 0.74281 0.0
H529 H 0.23208 0.24222 0.76475 0.0
H530 H 0.55737 0.12627 0.76604 0.0
H531 H 0.3526 0.43114 0.77264 0.0
H532 H 0.29077 0.41204 0.78228 0.0
H533 H 0.55715 0.18162 0.78335 0.0
H534 H 0.24261 0.36528 0.78398 0.0
N535 N 0.36429 0.33532 0.75368 0.0
C536 C 0.38961 0.36228 0.751 0.0
C537 C 0.35553 0.40428 0.76737 0.0
C538 C 0.32821 0.37782 0.76903 0.0
C539 C 0.38619 0.39657 0.75817 0.0
C540 C 0.33347 0.34315 0.76204 0.0
H541 H 0.22006 0.30237 0.7771 0.0
N542 N 0.31284 0.28327 0.75674 0.0
C543 C 0.25276 0.26338 0.76442 0.0
C544 C 0.30637 0.31674 0.76312 0.0
C545 C 0.28648 0.25668 0.75716 0.0
C546 C 0.24604 0.29741 0.77133 0.0
C547 C 0.27307 0.32451 0.77086 0.0
O548 O 0.31723 0.28009 0.72719 0.0
O549 O 0.39007 0.22916 0.73971 0.0
O550 O 0.44994 0.24373 0.75725 0.0
O551 O 0.42558 0.29704 0.74692 0.0
O552 O 0.40972 0.26882 0.72476 0.0
O553 O 0.35863 0.3218 0.7248 0.0
O554 O 0.34584 0.18972 0.77042 0.0
O555 O 0.3608 0.25665 0.76535 0.0
O556 O 0.3322 0.23107 0.72861 0.0
O557 O 0.36009 0.18244 0.74076 0.0
O558 O 0.39877 0.25019 0.78151 0.0
O559 O 0.39519 0.17399 0.78215 0.0
C560 C 0.41285 0.23504 0.72895 0.0
C561 C 0.32364 0.30702 0.70236 0.0
C562 C 0.33165 0.33983 0.67805 0.0
C563 C 0.32876 0.33952 0.69437 0.0
C564 C 0.32541 0.30768 0.66943 0.0
C565 C 0.31648 0.27467 0.6939 0.0
C566 C 0.31667 0.27531 0.67741 0.0
C567 C 0.456 0.27884 0.75243 0.0
C568 C 0.32791 0.30859 0.71942 0.0
C569 C 0.26788 0.35888 0.77789 0.0
C570 C 0.29542 0.38542 0.77702 0.0
C571 C 0.37122 0.27093 0.77868 0.0
C572 C 0.34149 0.17999 0.79768 0.0
C573 C 0.30958 0.16048 0.80104 0.0
C574 C 0.28957 0.16649 0.81508 0.0
C575 C 0.30173 0.1945 0.82525 0.0
C576 C 0.35478 0.20519 0.8087 0.0
C577 C 0.33444 0.21304 0.8222 0.0
C578 C 0.33476 0.19396 0.7296 0.0
C579 C 0.35976 0.17315 0.7825 0.0
H580 H 0.33487 0.36416 0.70106 0.0
H581 H 0.32884 0.30737 0.65676 0.0
H582 H 0.31162 0.24901 0.69989 0.0
H583 H 0.3119 0.25035 0.67085 0.0
H584 H 0.30193 0.13927 0.79281 0.0
H585 H 0.28684 0.20151 0.83584 0.0
H586 H 0.38028 0.21944 0.80677 0.0
H587 H 0.34407 0.23373 0.8303 0.0
Tb588 Tb 0.11552 0.11635 0.9913 0.0
C589 C 0.22618 0.21833 1.01953 0.0
C590 C 0.28606 0.21266 1.00771 0.0
C591 C 0.26763 0.27055 1.0192 0.0
C592 C 0.25114 0.198 1.01112 0.0
C593 C 0.23485 0.2544 1.02426 0.0
C594 C 0.29347 0.24952 1.01109 0.0
C595 C 0.18336 0.25263 1.0419 0.0
N596 N 0.19589 0.20091 1.02498 0.0
C597 C 0.1766 0.21656 1.03725 0.0
C598 C 0.21195 0.27207 1.03501 0.0
Tb599 Tb 0.18473 0.14301 1.01441 0.0
N600 N 0.24327 0.16228 1.00837 0.0
C601 C 0.2713 0.13874 1.00473 0.0
C602 C 0.31314 0.18934 1.00187 0.0
C603 C 0.30599 0.15198 1.0008 0.0
H604 H 0.15435 0.20257 1.04294 0.0
H605 H 0.32747 0.1332 0.99736 0.0
H606 H 0.31971 0.2615 1.00814 0.0
H607 H 0.16665 0.26531 1.0509 0.0
H608 H 0.26755 0.10944 1.00514 0.0
H609 H 0.97616 0.16241 1.00059 0.0
H610 H 0.34022 0.1995 0.99908 0.0
H611 H 0.15842 1.03989 1.00143 0.0
H612 H 1.03861 0.16712 0.99048 0.0
H613 H 0.14204 0.98075 1.01344 0.0
H614 H 0.27436 0.29844 1.02244 0.0
H615 H 0.95694 0.10753 1.01526 0.0
H616 H 0.97265 1.04625 1.0266 0.0
H617 H 0.21755 0.29977 1.03887 0.0
H618 H 1.01731 0.99648 1.02977 0.0
N619 N 1.05731 0.11791 1.00154 0.0
C620 C 1.03199 0.14441 0.9981 0.0
C621 C 0.98521 0.11044 1.01179 0.0
C622 C 1.01053 0.08266 1.01474 0.0
C623 C 0.99597 0.14141 1.00344 0.0
C624 C 1.04676 0.08712 1.00932 0.0
H625 H 0.08007 0.97138 1.02445 0.0
N626 N 0.10626 1.06407 1.00552 0.0
C627 C 0.12205 1.00256 1.0129 0.0
C628 C 0.07179 1.05899 1.01106 0.0
C629 C 0.13126 1.03622 1.00611 0.0
C630 C 0.08704 0.99737 1.01909 0.0
C631 C 1.0614 1.02574 1.01823 0.0
O632 O 0.11783 0.07326 0.97498 0.0
O633 O 0.16716 0.13998 0.99134 0.0
O634 O 0.1515 0.19786 1.01009 0.0
O635 O 0.09908 0.1786 0.99739 0.0
O636 O 0.12983 0.16434 0.97667 0.0
O637 O 0.07538 0.11384 0.97382 0.0
O638 O 0.19622 0.09032 1.02323 0.0
O639 O 0.13459 0.10891 1.0159 0.0
O640 O 0.16341 0.0829 0.97915 0.0
O641 O 0.21158 0.10739 0.99276 0.0
O642 O 0.13983 0.14661 1.03237 0.0
O643 O 0.21844 0.1379 1.03437 0.0
C644 C 0.16348 0.16456 0.98116 0.0
C645 C 0.10021 0.09281 0.94984 0.0
C646 C 0.08418 0.12443 0.92584 0.0
C647 C 0.07723 0.11567 0.9415 0.0
C648 C 0.11512 0.11043 0.91823 0.0
C649 C 0.13105 0.07783 0.94222 0.0
C650 C 0.13847 0.08681 0.92646 0.0
C651 C 0.11772 0.207 1.0044 0.0
C652 C 0.09176 0.08695 0.96656 0.0
C653 C 1.02572 1.02168 1.02409 0.0
C654 C 1.00033 1.05006 1.02233 0.0
C655 C 0.11915 0.11927 1.02906 0.0
C656 C 0.20441 0.08736 1.05069 0.0
C657 C 0.2212 1.0549 1.05559 0.0
C658 C 0.2124 1.03873 0.07024 0.0
C659 C 0.18373 1.05432 0.07912 0.0
C660 C 0.17924 0.10463 1.0607 0.0
C661 C 0.16805 0.0875 0.07456 0.0
C662 C 0.20039 0.08371 0.98086 0.0
C663 C 0.21433 0.10272 1.03522 0.0
H664 H 1.05349 0.12736 0.94735 0.0
H665 H 0.12083 0.11731 0.90607 0.0
H666 H 0.14948 1.0597 0.9484 0.0
H667 H 0.16233 0.07553 0.92068 0.0
H668 H 0.24284 1.04395 1.04827 0.0
H669 H 0.17457 1.04202 0.09002 0.0
H670 H 0.16761 0.1309 1.05775 0.0
H671 H 0.14732 0.10017 0.08185 0.0
Tb672 Tb 0.89273 0.94143 0.75903 0.0
C673 C 0.80658 0.83126 0.76567 0.0
C674 C 0.82698 0.77006 0.77226 0.0
C675 C 0.77028 0.79353 0.78335 0.0
C676 C 0.83208 0.80345 0.76422 0.0
C677 C 0.77559 0.82678 0.77539 0.0
C678 C 0.7958 0.76517 0.78173 0.0
C679 C 0.758 0.88874 0.76896 0.0
N680 N 0.81313 0.86337 0.75816 0.0
C681 C 0.78902 0.8918 0.75939 0.0
C682 C 0.75122 0.85609 0.77699 0.0
Tb683 Tb 0.8622 0.86344 0.74155 0.0
N684 N 0.86219 0.80943 0.75518 0.0
C685 C 0.88741 0.78218 0.75308 0.0
C686 C 0.8535 0.74272 0.77067 0.0
C687 C 0.88376 0.74877 0.76097 0.0
H688 H 0.79359 0.91693 0.75307 0.0
H689 H 0.90397 0.72745 0.75935 0.0
H690 H 0.79123 0.73964 0.78788 0.0
H691 H 0.73922 0.91151 0.77005 0.0
H692 H 0.90984 0.78545 0.74491 0.0
H693 H 0.93942 1.06321 0.72867 0.0
H694 H 0.85069 0.71677 0.77673 0.0
H695 H 0.93298 0.89288 0.78879 0.0
H696 H 0.89888 1.01161 0.73379 0.0
H697 H 0.9871 0.89751 0.80523 0.0
H698 H 0.74664 0.78955 0.79087 0.0
H699 H 0.99742 1.06925 0.74326 0.0
H700 H 1.0396 1.04529 0.76394 0.0
H701 H 0.7272 0.85382 0.78441 0.0
H702 H 1.05198 1.00093 0.78501 0.0
N703 N 0.93217 0.98773 0.75161 0.0
C704 C 0.92356 1.01347 0.74049 0.0
C705 C 0.97929 1.04653 0.74578 0.0
C706 C 0.98795 1.02072 0.75729 0.0
C707 C 0.94663 1.04321 0.73754 0.0
C708 C 0.96313 0.99186 0.76025 0.0
H709 H 1.03228 0.94651 0.80064 0.0
N710 N 0.94415 0.94127 0.77526 0.0
C711 C 0.98224 0.91782 0.7962 0.0
C712 C 0.96935 0.96788 0.77247 0.0
C713 C 0.95069 0.91603 0.78699 0.0
C714 C 1.00775 0.94534 0.79352 0.0
C715 C 1.00166 0.97068 0.78151 0.0
O716 O 0.88168 0.99601 0.76628 0.0
O717 O 0.86853 0.88802 0.76467 0.0
O718 O 0.82796 0.91056 0.72827 0.0
O719 O 0.85934 0.96144 0.7363 0.0
O720 O 0.87632 0.92063 0.7831 0.0
O721 O 0.84106 0.95428 0.76837 0.0
O722 O 0.81425 0.85845 0.72827 0.0
O723 O 0.88689 0.91373 0.73744 0.0
O724 O 0.94627 0.90562 0.75599 0.0
O725 O 0.92477 0.8486 0.74772 0.0
O726 O 0.90689 0.87001 0.72446 0.0
O727 O 0.85805 0.81913 0.72606 0.0
C728 C 0.86436 0.88812 0.78002 0.0
C729 C 0.81852 1.01322 0.76365 0.0
C730 C 0.75824 1.04151 0.76777 0.0
C731 C 0.78868 1.02139 0.77344 0.0
C732 C 0.75725 1.05027 0.75164 0.0
C733 C 0.81848 1.02657 0.74819 0.0
C734 C 0.78755 1.04375 0.74208 0.0
C735 C 0.83179 0.94783 0.72694 0.0
C736 C 0.84776 0.98891 0.76973 0.0
C737 C 1.02705 0.99845 0.77822 0.0
C738 C 1.0201 1.02357 0.76618 0.0
C739 C 0.90953 0.90478 0.72684 0.0
C740 C 0.82672 0.83605 0.70292 0.0
C741 C 0.84697 0.81159 0.69405 0.0
C742 C 0.85194 0.81666 0.67793 0.0
C743 C 0.83536 0.84635 0.67034 0.0
C744 C 0.80904 0.8654 0.69532 0.0
C745 C 0.81332 0.87036 0.67905 0.0
C746 C 0.954 0.86959 0.75275 0.0
C747 C 0.82747 0.83147 0.7201 0.0
H748 H 0.79049 1.01334 0.78567 0.0
H749 H 0.73396 1.06401 0.74649 0.0
H750 H 0.84193 1.02369 0.7407 0.0
H751 H 0.78729 1.05283 0.72996 0.0
H752 H 0.86088 0.78926 0.69998 0.0
H753 H 0.83947 0.85088 0.65786 0.0
H754 H 0.79271 0.88483 0.70191 0.0
H755 H 0.8002 0.89325 0.67327 0.0
Tb756 Tb 0.95961 0.14173 0.513 0.0
C757 C 0.07531 1.06055 0.51267 0.0
C758 C 0.13543 0.08639 0.51702 0.0
C759 C 0.1211 1.02574 0.52702 0.0
C760 C 0.0997 0.08926 0.51088 0.0
C761 C 0.08595 1.02823 0.52052 0.0
C762 C 0.14578 1.05474 0.52527 0.0
C763 C 1.02657 1.00279 0.51457 0.0
N764 N 1.04126 1.06414 0.50653 0.0
C765 C 1.01702 1.0356 0.50716 0.0
C766 C 1.06109 0.99916 0.52138 0.0
Tb767 Tb 1.03197 0.11485 0.49131 0.0
N768 N 0.08916 0.11896 0.50235 0.0
C769 C 0.11435 0.14534 0.49856 0.0
C770 C 0.16023 0.11467 0.51409 0.0
C771 C 0.14972 0.14413 0.50472 0.0
H772 H 0.99029 1.03809 0.50193 0.0
H773 H 0.16927 0.16531 0.50178 0.0
H774 H 0.17314 1.05205 0.53001 0.0
H775 H 1.00721 0.98042 0.5151 0.0
H776 H 0.10805 0.16677 0.49024 0.0
H777 H 0.81846 0.12993 0.49402 0.0
H778 H 0.18803 0.11325 0.51835 0.0
H779 H 0.98758 0.20332 0.54111 0.0
H780 H 0.87778 0.10711 0.5029 0.0
H781 H 0.97393 0.26618 0.5484 0.0
H782 H 0.12968 1.00126 0.5332 0.0
H783 H 0.80493 0.19614 0.49505 0.0
H784 H 0.82377 0.25846 0.50417 0.0
H785 H 1.06831 0.97384 0.52724 0.0
H786 H 0.8676 0.29651 0.51868 0.0
N787 N 0.90153 0.16029 0.50583 0.0
C788 C 0.87397 0.13635 0.50207 0.0
C789 C 0.8319 0.18637 0.49824 0.0
C790 C 0.85822 0.21016 0.50431 0.0
C791 C 0.83949 0.14907 0.49756 0.0
C792 C 0.89308 0.19606 0.5082 0.0
H793 H 0.92334 0.29937 0.53558 0.0
N794 N 0.94721 0.20019 0.52276 0.0
C795 C 0.95796 0.25287 0.53934 0.0
C796 C 0.91713 0.21699 0.5168 0.0
C797 C 0.96548 0.21669 0.53508 0.0
C798 C 0.92958 0.27159 0.53201 0.0
C799 C 0.90764 0.25314 0.52117 0.0
O800 O 0.92444 0.13748 0.53257 0.0
O801 O 1.01031 0.10871 0.51554 0.0
O802 O 0.98503 0.08058 0.47912 0.0
O803 O 0.93453 0.10434 0.49144 0.0
O804 O 1.00227 0.14621 0.53187 0.0
O805 O 0.94785 0.08945 0.5222 0.0
O806 O 1.03437 1.06825 0.47707 0.0
O807 O 0.98002 0.13724 0.49043 0.0
O808 O 0.99309 0.19653 0.50859 0.0
O809 O 1.04725 0.17716 0.49722 0.0
O810 O 1.01733 0.16093 0.47549 0.0
O811 O 0.072 0.11286 0.4735 0.0
C812 C 1.02415 0.11956 0.52893 0.0
C813 C 0.9393 0.08858 0.54965 0.0
C814 C 0.93605 1.03908 0.56905 0.0
C815 C 0.92634 1.05424 0.55433 0.0
C816 C 0.9614 1.05824 0.57843 0.0
C817 C 0.96149 0.1087 0.55996 0.0
C818 C 0.97336 0.09308 0.57403 0.0
C819 C 0.9478 0.0806 0.47997 0.0
C820 C 0.92923 0.10246 0.53395 0.0
C821 C 0.87496 0.26863 0.51569 0.0
C822 C 0.84998 0.24696 0.50746 0.0
C823 C 0.98361 0.16104 0.47996 0.0
C824 C 1.05594 0.07715 0.4514 0.0
C825 C 0.08687 0.08296 0.44241 0.0
C826 C 0.0846 0.08504 0.42609 0.0
C827 C 1.05132 0.07817 0.41848 0.0
C828 C 1.02252 1.06917 0.44394 0.0
C829 C 1.02048 1.06914 0.42746 0.0
C830 C 1.02751 0.20564 0.50353 0.0
C831 C 1.06033 0.08127 0.4684 0.0
H832 H 0.90701 1.04061 0.54669 0.0
H833 H 0.97107 1.04705 0.58945 0.0
H834 H 0.97038 0.13609 0.55707 0.0
H835 H 0.99186 0.10811 0.58156 0.0
H836 H 0.11238 0.08969 0.4483 0.0
H837 H 1.04902 0.08106 0.40583 0.0
H838 H 0.99804 1.0637 0.45065 0.0
H839 H 0.99466 1.06374 0.4217 0.0
Tb840 Tb 0.74472 0.20832 0.26074 0.0
C841 C 0.83028 0.3178 0.26597 0.0
C842 C 0.80852 0.37889 0.27205 0.0
C843 C 0.8646 0.35648 0.28398 0.0
C844 C 0.80444 0.34521 0.2641 0.0
C845 C 0.86053 0.32306 0.276 0.0
C846 C 0.8387 0.38434 0.28199 0.0
C847 C 0.87968 0.26131 0.27002 0.0
N848 N 0.82471 0.2853 0.25859 0.0
C849 C 0.84938 0.25745 0.26015 0.0
C850 C 0.88528 0.29424 0.278 0.0
Tb851 Tb 0.77645 0.28384 0.2416 0.0
N852 N 0.7751 0.33863 0.25471 0.0
C853 C 0.75015 0.36581 0.25194 0.0
C854 C 0.78199 0.40597 0.26988 0.0
C855 C 0.75284 0.39949 0.25968 0.0
H856 H 0.84604 0.23228 0.25373 0.0
H857 H 0.73277 0.42067 0.25755 0.0
H858 H 0.8421 0.40991 0.28829 0.0
H859 H 0.89885 0.23896 0.27138 0.0
H860 H 0.72871 0.36229 0.24335 0.0
H861 H 0.73382 1.06716 0.24298 0.0
H862 H 0.78405 0.43214 0.27582 0.0
H863 H 0.69306 0.25179 0.28829 0.0
H864 H 0.76444 0.12584 0.24685 0.0
H865 H 0.63169 0.24606 0.29951 0.0
H866 H 0.8875 0.36093 0.29182 0.0
H867 H 0.66833 1.06035 0.24954 0.0
H868 H 0.61106 0.08806 0.26054 0.0
H869 H 0.90872 0.2971 0.28569 0.0
H870 H 0.58286 0.1377 0.27589 0.0
N871 N 0.71633 0.15428 0.25433 0.0
C872 C 0.73545 0.12448 0.24898 0.0
C873 C 0.68151 0.08669 0.251 0.0
C874 C 0.66251 0.11652 0.25725 0.0
C875 C 0.71842 0.09047 0.24723 0.0
C876 C 0.68136 0.14989 0.25941 0.0
H877 H 0.59085 0.19607 0.29096 0.0
N878 N 0.68787 0.20551 0.27292 0.0
C879 C 0.64107 0.22637 0.29088 0.0
C880 C 0.66635 0.17678 0.26879 0.0
C881 C 0.67636 0.22901 0.28464 0.0
C882 C 0.61799 0.19834 0.28592 0.0
C883 C 0.6309 0.17242 0.27516 0.0
O884 O 0.79851 0.19236 0.2661 0.0
O885 O 0.76939 0.26217 0.26527 0.0
O886 O 0.80999 0.23551 0.22941 0.0
O887 O 0.78079 0.18409 0.23885 0.0
O888 O 0.75476 0.23461 0.28422 0.0
O889 O 0.75259 0.16678 0.27757 0.0
O890 O 0.82519 0.28936 0.22887 0.0
O891 O 0.75193 0.23299 0.23875 0.0
O892 O 0.69109 0.24397 0.25581 0.0
O893 O 0.71445 0.29954 0.24689 0.0
O894 O 0.7329 0.27358 0.22413 0.0
O895 O 0.78036 0.32718 0.22554 0.0
C896 C 0.77076 0.26463 0.28064 0.0
C897 C 0.80781 0.17208 0.29222 0.0
C898 C 0.86138 0.15299 0.30746 0.0
C899 C 0.84381 0.15899 0.29286 0.0
C900 C 0.84458 0.16779 0.32107 0.0
C901 C 0.79065 0.18363 0.30616 0.0
C902 C 0.80976 0.18326 0.32032 0.0
C903 C 0.80729 0.19808 0.22877 0.0
C904 C 0.78806 0.16994 0.27709 0.0
C905 C 0.6103 0.14127 0.27131 0.0
C906 C 0.62629 0.11308 0.26253 0.0
C907 C 0.73004 0.2393 0.22765 0.0
C908 C 0.8181 0.31519 0.20372 0.0
C909 C 0.80976 0.34667 0.1954 0.0
C910 C 0.80734 0.34597 0.17907 0.0
C911 C 0.81654 0.31412 0.17075 0.0
C912 C 0.82832 0.28328 0.19552 0.0
C913 C 0.82811 0.28307 0.17902 0.0
C914 C 0.68444 0.27978 0.25178 0.0
C915 C 0.81269 0.31672 0.22076 0.0
H916 H 0.85657 0.15081 0.28193 0.0
H917 H 0.85648 0.16499 0.33263 0.0
H918 H 0.76246 0.19253 0.30628 0.0
H919 H 0.79658 0.1928 0.33096 0.0
H920 H 0.80125 0.371 0.20181 0.0
H921 H 0.81361 0.31299 0.15807 0.0
H922 H 0.83547 0.25847 0.20174 0.0
H923 H 0.83526 0.25836 0.1727 0.0
Tb924 Tb 0.68282 0.9972 1.01185 0.0
C925 C 0.56597 0.08184 1.01296 0.0
C926 C 0.50515 1.05725 1.01691 0.0
C927 C 0.5217 0.11562 1.02867 0.0
C928 C 0.5406 1.05442 1.01043 0.0
C929 C 0.5568 0.11285 1.02203 0.0
C930 C 0.49593 0.08788 1.0261 0.0
C931 C 0.61762 0.13609 1.01719 0.0
N932 N 0.59995 0.07771 1.00679 0.0
C933 C 0.62563 0.10451 1.00852 0.0
C934 C 0.58322 0.1401 1.02413 0.0
Tb935 Tb 0.60819 1.02823 0.9909 0.0
N936 N 0.55063 1.02511 1.00158 0.0
C937 C 0.52537 0.99887 0.99783 0.0
C938 C 0.48 1.02931 1.01389 0.0
C939 C 0.49007 1.00017 1.00419 0.0
H940 H 0.65232 0.10155 1.00323 0.0
H941 H 0.47043 0.97904 1.00133 0.0
H942 H 0.46889 0.09046 1.03121 0.0
H943 H 0.63789 0.15744 1.01841 0.0
H944 H 0.53181 0.97737 0.98955 0.0
H945 H 0.81125 0.95224 0.98682 0.0
H946 H 0.45256 1.03039 1.0187 0.0
H947 H 0.63074 0.9592 1.03981 0.0
H948 H 0.75833 0.99233 0.98989 0.0
H949 H 0.63019 0.90389 1.05612 0.0
H950 H 0.5142 0.13912 1.03576 0.0
H951 H 0.81389 0.8931 1.00088 0.0
H952 H 0.78476 0.84932 1.01994 0.0
H953 H 0.57722 0.16445 1.03095 0.0
H954 H 0.73552 0.83625 1.03895 0.0
N955 N 0.73029 0.9575 1.00611 0.0
C956 C 0.75862 0.96705 0.99638 0.0
C957 C 0.79055 0.91098 1.00252 0.0
C958 C 0.76201 0.90143 1.01264 0.0
C959 C 0.78915 0.94431 0.99459 0.0
C960 C 0.73253 0.92602 1.01449 0.0
H961 H 0.67808 0.85675 1.05271 0.0
N962 N 0.6794 0.94486 1.02724 0.0
C963 C 0.65182 0.90794 1.04759 0.0
C964 C 0.70596 0.91934 1.02546 0.0
C965 C 0.65268 0.93974 1.03843 0.0
C966 C 0.67878 0.88134 1.04558 0.0
C967 C 0.70645 0.88693 1.03448 0.0
O968 O 0.72927 1.03072 1.00986 0.0
O969 O 0.62989 1.02576 1.01483 0.0
O970 O 0.65726 1.06191 0.97915 0.0
O971 O 0.70713 1.03387 0.99049 0.0
O972 O 0.65813 1.0178 1.0344 0.0
O973 O 0.70639 1.01907 1.03251 0.0
O974 O 0.60727 0.07527 0.97678 0.0
O975 O 0.6588 1.0036 0.98982 0.0
O976 O 0.64818 0.94295 1.00713 0.0
O977 O 0.59343 0.96606 0.9969 0.0
O978 O 0.62076 0.98342 0.97418 0.0
O979 O 0.56841 1.03149 0.97331 0.0
C980 C 0.62735 1.03128 1.03012 0.0
C981 C 0.73261 0.07792 1.02842 0.0
C982 C 0.77085 0.13237 1.03092 0.0
C983 C 0.7668 0.09483 1.02755 0.0
C984 C 0.74003 0.15295 1.03521 0.0
C985 C 0.70196 0.09905 1.03244 0.0
C986 C 0.70573 0.13627 1.03593 0.0
C987 C 0.69461 1.05934 0.97968 0.0
C988 C 0.72996 1.03856 1.02471 0.0
C989 C 0.73468 0.86139 1.0322 0.0
C990 C 0.7626 0.86875 1.02134 0.0
C991 C 0.65429 0.98113 0.97877 0.0
C992 C 0.59224 1.06059 0.95067 0.0
C993 C 0.57242 1.03742 0.94104 0.0
C994 C 0.58025 1.03437 0.92503 0.0
C995 C 0.60922 1.05412 0.91843 0.0
C996 C 0.62096 0.08126 0.94409 0.0
C997 C 0.62956 0.07774 0.92804 0.0
C998 C 0.61279 0.93627 1.00243 0.0
C999 C 0.58274 1.06139 0.9675 0.0
H1000 H 0.79056 0.07826 1.02475 0.0
H1001 H 0.7426 0.18166 1.0382 0.0
H1002 H 0.67522 0.08695 1.03289 0.0
H1003 H 0.68207 0.15214 1.03939 0.0
H1004 H 0.55022 1.0214 0.94602 0.0
H1005 H 0.61557 1.05175 0.90602 0.0
H1006 H 0.63678 0.09981 0.95129 0.0
H1007 H 0.65184 0.09345 0.92306 0.0
Tb1008 Tb 0.8935 0.20366 0.8798 0.0
C1009 C 0.80797 0.31425 0.87329 0.0
C1010 C 0.82859 0.37567 0.86718 0.0
C1011 C 0.77186 0.3529 0.85596 0.0
C1012 C 0.8336 0.34191 0.87495 0.0
C1013 C 0.7771 0.31924 0.8636 0.0
C1014 C 0.79738 0.38112 0.85786 0.0
C1015 C 0.75923 0.2571 0.86952 0.0
N1016 N 0.81428 0.28181 0.88058 0.0
C1017 C 0.79 0.25359 0.87915 0.0
C1018 C 0.75271 0.29008 0.86171 0.0
Tb1019 Tb 0.86254 0.2814 0.89754 0.0
N1020 N 0.86368 0.33546 0.88392 0.0
C1021 C 0.889 0.36256 0.88616 0.0
C1022 C 0.85521 0.40283 0.86892 0.0
C1023 C 0.88547 0.39625 0.87849 0.0
H1024 H 0.79407 0.22842 0.88547 0.0
H1025 H 0.90574 0.41745 0.88025 0.0
H1026 H 0.79275 0.40704 0.85203 0.0
H1027 H 0.74034 0.23449 0.86826 0.0
H1028 H 0.91128 0.35909 0.89434 0.0
H1029 H 0.91513 1.07014 0.90573 0.0
H1030 H 0.85246 0.42904 0.86308 0.0
H1031 H 0.94217 0.24512 0.85067 0.0
H1032 H 0.87992 0.12414 0.89847 0.0
H1033 H 1.00211 0.23851 0.8383 0.0
H1034 H 0.74824 0.35732 0.84851 0.0
H1035 H 0.98016 1.06508 0.89814 0.0
H1036 H 1.03342 0.09084 0.8833 0.0
H1037 H 0.72882 0.29274 0.85428 0.0
H1038 H 1.05691 0.13657 0.86463 0.0
N1039 N 0.92514 0.1528 0.8882 0.0
C1040 C 0.90863 0.12398 0.89574 0.0
C1041 C 0.96495 0.08957 0.89518 0.0
C1042 C 0.98087 0.11747 0.88626 0.0
C1043 C 0.92833 0.09239 0.89953 0.0
C1044 C 0.95971 0.14866 0.88255 0.0
H1045 H 1.04491 0.19073 0.84737 0.0
N1046 N 0.94943 0.2007 0.86688 0.0
C1047 C 0.99404 0.21994 0.84761 0.0
C1048 C 0.97232 0.17345 0.87155 0.0
C1049 C 0.95949 0.22302 0.85453 0.0
C1050 C 1.01822 0.19312 0.85283 0.0
C1051 C 1.0073 0.16904 0.86472 0.0
O1052 O 0.84068 0.18618 0.87361 0.0
O1053 O 0.86929 0.2574 0.87441 0.0
O1054 O 0.82832 0.23428 0.91042 0.0
O1055 O 0.85665 0.1818 0.90169 0.0
O1056 O 0.88161 0.22778 0.85591 0.0
O1057 O 0.88814 0.15665 0.8657 0.0
O1058 O 0.81388 0.28572 0.91049 0.0
O1059 O 0.88641 0.23062 0.90143 0.0
O1060 O 0.94683 0.23945 0.88384 0.0
O1061 O 0.92561 0.29618 0.89244 0.0
O1062 O 0.90575 0.27304 0.91519 0.0
O1063 O 0.85641 0.32641 0.91241 0.0
C1064 C 0.86713 0.25883 0.85906 0.0
C1065 C 0.83766 0.15973 0.84845 0.0
C1066 C 0.78627 0.14796 0.83097 0.0
C1067 C 0.8015 0.14807 0.84615 0.0
C1068 C 0.8071 0.16203 0.81832 0.0
C1069 C 0.85871 0.17093 0.83544 0.0
C1070 C 0.84303 0.17328 0.82059 0.0
C1071 C 0.83035 0.1968 0.91148 0.0
C1072 C 0.85287 0.16035 0.86447 0.0
C1073 C 1.02979 0.14005 0.86957 0.0
C1074 C 1.01648 0.11411 0.88024 0.0
C1075 C 0.90818 0.23832 0.91245 0.0
C1076 C 0.8225 0.31264 0.93528 0.0
C1077 C 0.84284 0.33763 0.94375 0.0
C1078 C 0.84499 0.33586 0.96008 0.0
C1079 C 0.82526 0.30902 0.96828 0.0
C1080 C 0.80178 0.28618 0.94339 0.0
C1081 C 0.80311 0.28457 0.95988 0.0
C1082 C 0.95488 0.27517 0.88748 0.0
C1083 C 0.82543 0.31426 0.91808 0.0
H1084 H 0.78577 0.13777 0.85603 0.0
H1085 H 0.79673 0.1619 0.80639 0.0
H1086 H 0.88725 0.17816 0.83669 0.0
H1087 H 0.85917 0.18263 0.81068 0.0
H1088 H 0.85908 0.35766 0.9374 0.0
H1089 H 0.82714 0.30695 0.98097 0.0
H1090 H 0.78524 0.26656 0.93707 0.0
H1091 H 0.7876 0.2639 0.96611 0.0
Tb1092 Tb 0.67871 0.14409 0.62791 0.0
C1093 C 0.56881 1.0555 0.62521 0.0
C1094 C 0.50719 0.0761 0.61962 0.0
C1095 C 0.52933 1.01895 0.60841 0.0
C1096 C 0.54129 0.08123 0.62703 0.0
C1097 C 0.56333 1.02431 0.61573 0.0
C1098 C 0.50133 1.04477 0.61036 0.0
C1099 C 0.62645 1.00779 0.62029 0.0
N1100 N 0.60182 1.06247 0.63183 0.0
C1101 C 0.6306 1.03915 0.62957 0.0
C1102 C 0.59262 1.00019 0.61342 0.0
Tb1103 Tb 0.60379 0.11216 0.64803 0.0
N1104 N 0.54831 0.1117 0.6357 0.0
C1105 C 0.52142 0.13706 0.63822 0.0
C1106 C 0.48017 0.10283 0.62158 0.0
C1107 C 0.48726 0.13331 0.63101 0.0
H1108 H 0.65696 1.045 0.63464 0.0
H1109 H 0.46621 0.15366 0.63294 0.0
H1110 H 0.47536 1.04044 0.60454 0.0
H1111 H 0.64941 0.98961 0.61839 0.0
H1112 H 0.52562 0.15969 0.64619 0.0
H1113 H 0.81624 0.17529 0.64601 0.0
H1114 H 0.45367 0.09999 0.61603 0.0
H1115 H 0.62682 0.18659 0.60108 0.0
H1116 H 0.76029 0.13899 0.64462 0.0
H1117 H 0.62557 0.24525 0.58705 0.0
H1118 H 0.52462 0.99526 0.60101 0.0
H1119 H 0.81715 0.23881 0.63603 0.0
H1120 H 0.78475 0.28931 0.62164 0.0
H1121 H 0.58961 0.97607 0.60611 0.0
H1122 H 0.73254 0.30832 0.60528 0.0
N1123 N 0.72886 0.18034 0.63308 0.0
C1124 C 0.75977 0.16627 0.63986 0.0
C1125 C 0.79242 0.22264 0.63504 0.0
C1126 C 0.76143 0.23651 0.62758 0.0
C1127 C 0.792 0.18682 0.64065 0.0
C1128 C 0.73037 0.2138 0.62621 0.0
H1129 H 0.6735 0.29158 0.59195 0.0
N1130 N 0.67537 0.19876 0.61407 0.0
C1131 C 0.64741 0.2395 0.59527 0.0
C1132 C 0.70235 0.22357 0.61643 0.0
C1133 C 0.64866 0.20585 0.6031 0.0
C1134 C 0.67436 0.26566 0.59813 0.0
C1135 C 0.70269 0.25761 0.60859 0.0
O1136 O 0.71787 0.1023 0.6291 0.0
O1137 O 0.62556 0.11663 0.62427 0.0
O1138 O 0.65232 0.07909 0.65992 0.0
O1139 O 0.7034 0.1069 0.64935 0.0
O1140 O 0.65327 0.12655 0.60493 0.0
O1141 O 0.70782 0.12983 0.60725 0.0
O1142 O 0.60112 1.0646 0.66174 0.0
O1143 O 0.6543 0.13708 0.64999 0.0
O1144 O 0.64439 0.19822 0.63377 0.0
O1145 O 0.58856 0.17444 0.64256 0.0
O1146 O 0.61485 0.15633 0.66515 0.0
O1147 O 0.56195 0.10834 0.66487 0.0
C1148 C 0.62268 0.11231 0.60899 0.0
C1149 C 0.72755 1.06736 0.60643 0.0
C1150 C 0.76031 1.00938 0.60303 0.0
C1151 C 0.7569 1.04429 0.61006 0.0
C1152 C 0.73175 0.99689 0.59333 0.0
C1153 C 0.70156 1.05565 0.59551 0.0
C1154 C 0.70283 1.02014 0.58944 0.0
C1155 C 0.68968 0.08123 0.65991 0.0
C1156 C 0.7254 0.10341 0.6142 0.0
C1157 C 0.73186 0.28191 0.61107 0.0
C1158 C 0.76145 0.2712 0.62045 0.0
C1159 C 0.64891 0.15882 0.66129 0.0
C1160 C 0.58467 0.07807 0.6876 0.0
C1161 C 0.57903 0.10959 0.69648 0.0
C1162 C 0.58015 0.1082 0.71286 0.0
C1163 C 0.59213 0.07636 0.72045 0.0
C1164 C 0.59736 1.04622 0.6951 0.0
C1165 C 0.60202 1.04577 0.71147 0.0
C1166 C 0.60849 0.20469 0.63786 0.0
C1167 C 0.57585 0.07828 0.67073 0.0
H1168 H 0.77824 1.055 0.61759 0.0
H1169 H 0.73273 0.96998 0.58801 0.0
H1170 H 0.6809 0.07423 0.59147 0.0
H1171 H 0.68207 1.01103 0.58127 0.0
H1172 H 0.56876 0.13423 0.69087 0.0
H1173 H 0.59174 0.07452 0.73318 0.0
H1174 H 0.60276 1.02159 0.68838 0.0
H1175 H 0.61109 1.021 0.71726 0.0
Tb1176 Tb 0.74972 0.93076 0.37794 0.0
C1177 C 0.83913 0.82284 0.37779 0.0
C1178 C 0.81685 0.76203 0.37164 0.0
C1179 C 0.87723 0.78078 0.36278 0.0
C1180 C 0.81185 0.79659 0.37877 0.0
C1181 C 0.87232 0.81502 0.36998 0.0
C1182 C 0.84951 0.75441 0.36356 0.0
C1183 C 0.89297 0.87596 0.37656 0.0
N1184 N 0.83286 0.85627 0.38426 0.0
C1185 C 0.85937 0.8827 0.3839 0.0
C1186 C 0.89947 0.84201 0.36953 0.0
Tb1187 Tb 0.78139 0.86064 0.39942 0.0
N1188 N 0.78097 0.80455 0.38707 0.0
C1189 C 0.75538 0.77775 0.3896 0.0
C1190 C 0.78937 0.73572 0.37323 0.0
C1191 C 0.75867 0.74352 0.38237 0.0
H1192 H 0.85472 0.90901 0.38928 0.0
H1193 H 0.73802 0.72275 0.38426 0.0
H1194 H 0.85387 0.72792 0.35815 0.0
H1195 H 0.91376 0.89702 0.37625 0.0
H1196 H 0.733 0.78174 0.39772 0.0
H1197 H 0.76071 0.07432 0.3929 0.0
H1198 H 0.79219 0.7089 0.36792 0.0
H1199 H 0.68776 0.89854 0.35084 0.0
H1200 H 0.78349 1.01306 0.38667 0.0
H1201 H 0.62431 0.91018 0.34387 0.0
H1202 H 0.90239 0.77438 0.3566 0.0
H1203 H 0.6946 0.08765 0.3913 0.0
H1204 H 0.63167 1.06613 0.38434 0.0
H1205 H 0.92536 0.83702 0.36369 0.0
H1206 H 0.59343 1.01955 0.37158 0.0
N1207 N 0.73041 0.98911 0.38416 0.0
C1208 C 0.75428 1.01722 0.38715 0.0
C1209 C 0.70435 1.06009 0.38916 0.0
C1210 C 0.68039 1.03233 0.38453 0.0
C1211 C 0.7416 1.05262 0.39017 0.0
C1212 C 0.69459 0.99693 0.38168 0.0
H1213 H 0.59072 0.96157 0.356 0.0
N1214 N 0.69071 0.94087 0.36841 0.0
C1215 C 0.63768 0.9274 0.35249 0.0
C1216 C 0.67366 0.97139 0.37388 0.0
C1217 C 0.67417 0.92109 0.35652 0.0
C1218 C 0.61873 0.95622 0.35945 0.0
C1219 C 0.63723 0.97979 0.36963 0.0
O1220 O 0.80148 0.94499 0.36884 0.0
O1221 O 0.78555 0.88201 0.37509 0.0
O1222 O 0.81282 0.90906 0.41218 0.0
O1223 O 0.78528 0.95736 0.39965 0.0
O1224 O 0.74665 0.88738 0.3592 0.0
O1225 O 0.75256 0.96536 0.35815 0.0
O1226 O 0.82697 0.8597 0.41424 0.0
O1227 O 0.75541 0.91103 0.40066 0.0
O1228 O 0.69598 0.89618 0.38293 0.0
O1229 O 0.71966 0.84312 0.39372 0.0
O1230 O 0.735 0.87173 0.41553 0.0
O1231 O 0.78577 0.81765 0.41568 0.0
C1232 C 0.77478 0.86723 0.36188 0.0
C1233 C 0.80314 0.95453 0.34144 0.0
C1234 C 0.85158 0.96407 0.32191 0.0
C1235 C 0.83528 0.97211 0.33662 0.0
C1236 C 0.83655 0.93532 0.31292 0.0
C1237 C 0.78614 0.92969 0.33123 0.0
C1238 C 0.8035 0.91919 0.31733 0.0
C1239 C 0.8102 0.94617 0.41109 0.0
C1240 C 0.78786 0.96304 0.35707 0.0
C1241 C 0.62153 1.013 0.37447 0.0
C1242 C 0.64329 1.03953 0.38171 0.0
C1243 C 0.73222 0.90555 0.41132 0.0
C1244 C 0.8178 0.83225 0.43887 0.0
C1245 C 0.80991 0.80007 0.44674 0.0
C1246 C 0.8051 0.79996 0.46298 0.0
C1247 C 0.81161 0.83186 0.47172 0.0
C1248 C 0.82528 0.86428 0.4475 0.0
C1249 C 0.82277 0.86378 0.46397 0.0
C1250 C 0.68948 0.86129 0.38796 0.0
C1251 C 0.81576 0.83095 0.42171 0.0
H1252 H 0.84591 0.99359 0.34409 0.0
H1253 H 0.84924 0.92635 0.30208 0.0
H1254 H 0.76006 0.91756 0.3341 0.0
H1255 H 0.79125 0.89838 0.30998 0.0
H1256 H 0.8036 0.77564 0.43995 0.0
H1257 H 0.80681 0.83234 0.48431 0.0
H1258 H 0.83214 0.88965 0.44164 0.0
H1259 H 0.82782 0.88852 0.47062 0.0
Tb1260 Tb 0.95892 0.99993 0.1275 0.0
C1261 C 1.07004 0.08501 0.12936 0.0
C1262 C 0.13077 1.06109 0.12439 0.0
C1263 C 0.11475 0.12215 0.11539 0.0
C1264 C 0.09529 1.05686 0.1307 0.0
C1265 C 0.07969 0.11816 0.12191 0.0
C1266 C 0.14019 0.09365 0.1166 0.0
C1267 C 1.01913 0.14094 0.12779 0.0
N1268 N 1.03593 0.0798 0.13531 0.0
C1269 C 1.01058 0.10735 0.13479 0.0
C1270 C 1.05379 0.14634 0.12126 0.0
Tb1271 Tb 1.02856 1.02819 0.15013 0.0
N1272 N 0.08559 1.0261 0.13873 0.0
C1273 C 0.11137 0.99979 0.14178 0.0
C1274 C 0.15619 1.03302 0.12659 0.0
C1275 C 0.14653 1.00238 0.13541 0.0
H1276 H 0.98375 0.10356 0.13979 0.0
H1277 H 0.16656 0.98127 0.13777 0.0
H1278 H 0.16735 0.09734 0.11174 0.0
H1279 H 0.99893 0.16256 0.12736 0.0
H1280 H 0.10584 0.9774 0.14972 0.0
H1281 H 0.8149 1.01758 0.14021 0.0
H1282 H 0.18377 1.03541 0.12208 0.0
H1283 H 0.99063 0.93648 0.10089 0.0
H1284 H 0.87757 1.03758 0.13489 0.0
H1285 H 0.97674 0.87353 0.09363 0.0
H1286 H 0.12256 0.14726 0.10949 0.0
H1287 H 0.7988 0.95205 0.13839 0.0
H1288 H 0.81805 0.88812 0.13167 0.0
H1289 H 1.06021 0.17224 0.1157 0.0
H1290 H 0.86392 0.84769 0.11964 0.0
N1291 N 0.89925 0.98339 0.13271 0.0
C1292 C 0.87202 1.00856 0.13527 0.0
C1293 C 0.82689 0.96056 0.13664 0.0
C1294 C 0.85389 0.93533 0.13238 0.0
C1295 C 0.83591 0.99748 0.13778 0.0
C1296 C 0.89008 0.94791 0.1301 0.0
H1297 H 0.92294 0.8423 0.10493 0.0
N1298 N 0.94708 0.94131 0.11781 0.0
C1299 C 0.95944 0.88769 0.102 0.0
C1300 C 0.91536 0.92572 0.12276 0.0
C1301 C 0.96705 0.92388 0.1062 0.0
C1302 C 0.92925 0.87007 0.1085 0.0
C1303 C 0.90571 0.88967 0.11834 0.0
O1304 O 0.94841 1.05218 0.11795 0.0
O1305 O 1.00905 1.03388 0.12553 0.0
O1306 O 0.98016 1.06092 0.16241 0.0
O1307 O 0.93191 1.03587 0.14895 0.0
O1308 O 1.00356 0.99518 0.10943 0.0
O1309 O 0.92597 1.00397 0.10731 0.0
O1310 O 1.03026 0.07397 0.16485 0.0
O1311 O 0.97717 1.00422 0.15051 0.0
O1312 O 0.99151 0.94551 0.13269 0.0
O1313 O 1.04479 0.96571 0.14443 0.0
O1314 O 1.01443 0.98224 0.1659 0.0
O1315 O 1.06953 1.03038 0.16746 0.0
C1316 C 1.0242 1.02281 0.11241 0.0
C1317 C 0.94299 1.05215 0.09032 0.0
C1318 C 0.94242 0.10078 0.07053 0.0
C1319 C 0.93111 0.08653 0.0852 0.0
C1320 C 0.9686 0.08092 1.0618 0.0
C1321 C 0.96553 1.03106 0.08046 0.0
C1322 C 0.97917 1.04592 1.06652 0.0
C1323 C 0.94311 1.05982 0.16074 0.0
C1324 C 0.93109 1.03893 0.10589 0.0
C1325 C 0.87145 0.87552 0.12264 0.0
C1326 C 0.84532 0.89853 0.12946 0.0
C1327 C 0.98094 0.98076 0.16121 0.0
C1328 C 1.05411 1.06461 0.1901 0.0
C1329 C 0.08574 1.0589 0.19866 0.0
C1330 C 0.08452 1.05642 0.215 0.0
C1331 C 1.05162 1.06269 0.22305 0.0
C1332 C 1.02105 0.07186 0.19804 0.0
C1333 C 1.02008 1.07146 0.21453 0.0
C1334 C 1.02562 0.93688 0.13804 0.0
C1335 C 1.05729 1.06137 0.17302 0.0
H1336 H 0.91127 0.10084 0.0924 0.0
H1337 H 0.97984 0.09162 1.05095 0.0
H1338 H 0.97343 1.00354 0.08364 0.0
H1339 H 0.99791 1.0302 1.05932 0.0
H1340 H 0.111 1.05268 0.19243 0.0
H1341 H 1.05014 1.05949 0.23572 0.0
H1342 H 0.99607 0.07709 0.19164 0.0
H1343 H 0.99456 0.07634 0.22066 0.0
Tb1344 Tb 0.78391 0.78902 0.89841 0.0
C1345 C 0.6741 0.68163 0.87146 0.0
C1346 C 0.67148 0.62152 0.88315 0.0
C1347 C 0.61813 0.64576 0.86983 0.0
C1348 C 0.68994 0.65499 0.88064 0.0
C1349 C 0.6383 0.67693 0.86558 0.0
C1350 C 0.63489 0.6178 0.87845 0.0
C1351 C 0.64747 0.73024 0.84935 0.0
N1352 N 0.69525 0.71029 0.86694 0.0
C1353 C 0.68312 0.73314 0.85513 0.0
C1354 C 0.62468 0.70244 0.85483 0.0
Tb1355 Tb 0.75276 0.7141 0.8784 0.0
N1356 N 0.72528 0.65965 0.88505 0.0
C1357 C 0.74509 0.62993 0.88996 0.0
C1358 C 0.69116 0.59189 0.88914 0.0
C1359 C 0.72837 0.5959 0.89219 0.0
H1360 H 0.69967 0.75564 0.85103 0.0
H1361 H 0.74429 0.57272 0.89616 0.0
H1362 H 0.61997 0.59273 0.88073 0.0
H1363 H 0.6376 0.7495 0.84066 0.0
H1364 H 0.77429 0.63138 0.89143 0.0
H1365 H 0.74136 0.92685 0.88381 0.0
H1366 H 0.67826 0.56551 0.89089 0.0
H1367 H 0.8522 0.73702 0.88532 0.0
H1368 H 0.73623 0.86743 0.89716 0.0
H1369 H 0.90566 0.7443 0.86794 0.0
H1370 H 0.59042 0.64194 0.86565 0.0
H1371 H 0.79372 0.93938 0.86616 0.0
H1372 H 0.85215 0.91757 0.85372 0.0
H1373 H 0.59727 0.69993 0.85014 0.0
H1374 H 0.89706 0.86832 0.84962 0.0
N1375 N 0.78339 0.84459 0.886 0.0
C1376 C 0.75826 0.87156 0.88886 0.0
C1377 C 0.79126 0.91283 0.87174 0.0
C1378 C 0.81774 0.88574 0.86938 0.0
C1379 C 0.76151 0.90576 0.88159 0.0
C1380 C 0.81313 0.85159 0.87687 0.0
H1381 H 0.91705 0.80358 0.85474 0.0
N1382 N 0.83239 0.79102 0.88151 0.0
C1383 C 0.88698 0.76693 0.8697 0.0
C1384 C 0.83867 0.82402 0.87468 0.0
C1385 C 0.85641 0.76277 0.87945 0.0
C1386 C 0.89344 0.80049 0.86234 0.0
C1387 C 0.86918 0.82959 0.86479 0.0
O1388 O 0.83211 0.79202 0.91167 0.0
O1389 O 0.75963 0.73784 0.90065 0.0
O1390 O 0.69894 0.74928 0.88368 0.0
O1391 O 0.72176 0.80464 0.89315 0.0
O1392 O 0.73981 0.77788 0.91551 0.0
O1393 O 0.78886 0.83175 0.91466 0.0
O1394 O 0.80547 0.69413 0.8735 0.0
O1395 O 0.77758 0.76829 0.87466 0.0
O1396 O 0.81735 0.74057 0.91041 0.0
O1397 O 0.78977 0.68931 0.89998 0.0
O1398 O 0.76233 0.74306 0.85541 0.0
O1399 O 0.7595 0.67669 0.85966 0.0
C1400 C 0.73742 0.7437 0.91174 0.0
C1401 C 0.82225 0.81343 0.93725 0.0
C1402 C 0.79719 0.82676 0.96291 0.0
C1403 C 0.79299 0.8237 0.9467 0.0
C1404 C 0.82939 0.81482 0.97015 0.0
C1405 C 0.85465 0.80097 0.94437 0.0
C1406 C 0.85776 0.80079 0.96083 0.0
C1407 C 0.69194 0.78485 0.88801 0.0
C1408 C 0.81964 0.81879 0.92017 0.0
C1409 C 0.87391 0.86357 0.85734 0.0
C1410 C 0.84829 0.8916 0.85965 0.0
C1411 C 0.7783 0.77279 0.85939 0.0
C1412 C 0.81797 0.67886 0.84701 0.0
C1413 C 0.85193 0.66107 0.84686 0.0
C1414 C 0.87539 0.66276 0.83358 0.0
C1415 C 0.8654 0.68644 0.8212 0.0
C1416 C 0.80676 0.69793 0.83351 0.0
C1417 C 0.83097 0.70285 0.82099 0.0
C1418 C 0.81554 0.70309 0.91047 0.0
C1419 C 0.79488 0.67557 0.86128 0.0
H1420 H 0.76783 0.83349 0.94139 0.0
H1421 H 0.83312 0.81783 0.98273 0.0
H1422 H 0.8777 0.79236 0.93724 0.0
H1423 H 0.88289 0.79169 0.96628 0.0
H1424 H 0.85836 0.644 0.85687 0.0
H1425 H 0.88304 0.69094 0.81117 0.0
H1426 H 0.77969 0.70948 0.83255 0.0
H1427 H 0.82288 0.71919 0.81098 0.0
Tb1428 Tb 0.60765 0.53468 0.14932 0.0
C1429 C 0.71824 0.42453 0.12449 0.0
C1430 C 0.7789 0.42964 0.13547 0.0
C1431 C 0.75882 0.37153 0.12483 0.0
C1432 C 0.74387 0.44462 0.13261 0.0
C1433 C 0.72601 0.388 0.12004 0.0
C1434 C 0.78554 0.39253 0.13232 0.0
C1435 C 0.67329 0.38939 0.10321 0.0
N1436 N 0.68805 0.44229 0.11913 0.0
C1437 C 0.66749 0.4259 0.10744 0.0
C1438 C 0.7021 0.37002 0.10987 0.0
Tb1439 Tb 0.67897 0.50145 0.12903 0.0
N1440 N 0.73654 0.48042 0.1355 0.0
C1441 C 0.76491 0.50359 0.13905 0.0
C1442 C 0.80692 0.45286 0.14045 0.0
C1443 C 0.80001 0.49015 0.14197 0.0
H1444 H 0.64449 0.4394 0.10213 0.0
H1445 H 0.82191 0.50872 0.14505 0.0
H1446 H 0.81183 0.38031 0.13495 0.0
H1447 H 0.65555 0.37628 0.09473 0.0
H1448 H 0.76134 0.53291 0.13899 0.0
H1449 H 0.47034 0.49208 0.13327 0.0
H1450 H 0.83425 0.44252 0.14257 0.0
H1451 H 0.65776 0.60662 0.13876 0.0
H1452 H 0.52857 0.48701 0.14727 0.0
H1453 H 0.64772 0.66463 0.12466 0.0
H1454 H 0.76488 0.34337 0.12178 0.0
H1455 H 0.45803 0.54562 0.11634 0.0
H1456 H 0.47822 0.60681 0.10641 0.0
H1457 H 0.70696 0.34195 0.1063 0.0
H1458 H 0.52568 0.65428 0.10448 0.0
N1459 N 0.55238 0.53427 0.13646 0.0
C1460 C 0.52519 0.50908 0.13896 0.0
C1461 C 0.48448 0.54279 0.12194 0.0
C1462 C 0.51121 0.56988 0.12035 0.0
C1463 C 0.49142 0.51242 0.13141 0.0
C1464 C 0.54531 0.56479 0.1278 0.0
H1465 H 0.58859 0.67638 0.1115 0.0
N1466 N 0.60499 0.58523 0.13354 0.0
C1467 C 0.62625 0.64428 0.12511 0.0
C1468 C 0.57203 0.59159 0.12671 0.0
C1469 C 0.6319 0.61122 0.13303 0.0
C1470 C 0.59278 0.65087 0.11774 0.0
C1471 C 0.56523 0.62433 0.1184 0.0
O1472 O 0.60602 0.5813 0.16361 0.0
O1473 O 0.65743 0.50799 0.15147 0.0
O1474 O 0.64399 0.4482 0.13411 0.0
O1475 O 0.59012 0.4729 0.14372 0.0
O1476 O 0.61684 0.489 0.16602 0.0
O1477 O 0.56389 0.54022 0.16516 0.0
O1478 O 0.69457 0.55411 0.12175 0.0
O1479 O 0.63028 0.53674 0.12518 0.0
O1480 O 0.65612 0.56642 0.16209 0.0
O1481 O 0.70469 0.53638 0.15086 0.0
O1482 O 0.63903 0.49958 0.10892 0.0
O1483 O 0.71569 0.50632 0.11009 0.0
C1484 C 0.65088 0.48548 0.16228 0.0
C1485 C 0.57785 0.57327 0.18819 0.0
C1486 C 0.5457 0.56048 0.21236 0.0
C1487 C 0.54588 0.5645 0.19608 0.0
C1488 C 0.5772 0.56845 0.2211 0.0
C1489 C 0.60943 0.58225 0.19683 0.0
C1490 C 0.60879 0.58038 0.2133 0.0
C1491 C 0.60861 0.44231 0.13853 0.0
C1492 C 0.57701 0.5705 0.17103 0.0
C1493 C 0.53138 0.6294 0.11096 0.0
C1494 C 0.50447 0.60223 0.11193 0.0
C1495 C 0.61682 0.52611 0.11167 0.0
C1496 C 0.70889 0.56007 0.09502 0.0
C1497 C 0.72627 0.59367 0.09247 0.0
C1498 C 0.72536 0.61041 0.07758 0.0
C1499 C 0.70303 0.5946 1.06583 0.0
C1500 C 0.68833 0.54399 0.08297 0.0
C1501 C 0.68441 0.56194 1.06864 0.0
C1502 C 0.69325 0.56268 0.16161 0.0
C1503 C 0.71418 0.54185 0.11016 0.0
H1504 H 0.52178 0.55706 0.18933 0.0
H1505 H 0.57764 0.56429 0.23372 0.0
H1506 H 0.6346 0.58982 0.19096 0.0
H1507 H 0.63322 0.58659 0.21996 0.0
H1508 H 0.74213 0.60563 0.10193 0.0
H1509 H 0.70154 0.60587 1.05408 0.0
H1510 H 0.67518 0.51775 0.08458 0.0
H1511 H 0.66786 0.54982 1.05952 0.0
Tb1512 Tb 0.85884 0.35624 0.3988 0.0
C1513 C 0.97048 0.46057 0.37093 0.0
C1514 C 0.97935 0.51793 0.3844 0.0
C1515 C 1.02842 0.49279 0.36845 0.0
C1516 C 0.95803 0.48653 0.38129 0.0
C1517 C 1.0056 0.46356 0.36414 0.0
C1518 C 1.01514 0.52021 0.37846 0.0
C1519 C 0.99113 0.41163 0.34778 0.0
N1520 N 0.94702 0.4336 0.3667 0.0
C1521 C 0.95632 0.41029 0.3546 0.0
C1522 C 1.01609 0.43806 0.35272 0.0
Tb1523 Tb 0.89073 0.43205 0.37929 0.0
N1524 N 0.92344 0.48306 0.38687 0.0
C1525 C 0.90712 0.51254 0.39398 0.0
C1526 C 0.96341 0.54692 0.39265 0.0
C1527 C 0.92688 0.54446 0.39719 0.0
H1528 H 0.93794 0.38888 0.35091 0.0
H1529 H 0.91376 0.56728 0.40304 0.0
H1530 H 1.03224 0.54364 0.38108 0.0
H1531 H 0.99868 0.3922 0.33872 0.0
H1532 H 0.87853 0.51258 0.39692 0.0
H1533 H 0.8991 0.21833 0.38322 0.0
H1534 H 0.97866 0.57168 0.39513 0.0
H1535 H 0.79271 0.41052 0.3854 0.0
H1536 H 0.90558 0.2775 0.3967 0.0
H1537 H 0.73791 0.40403 0.36879 0.0
H1538 H 1.05565 0.49534 0.36353 0.0
H1539 H 0.84569 0.20671 0.3661 0.0
H1540 H 0.78661 0.22929 0.35462 0.0
H1541 H 1.0429 0.43928 0.3473 0.0
H1542 H 0.74237 0.2793 0.35099 0.0
N1543 N 0.85827 0.30109 0.38608 0.0
C1544 C 0.88316 0.27376 0.38861 0.0
C1545 C 0.84878 0.23315 0.37174 0.0
C1546 C 0.82251 0.26059 0.36977 0.0
C1547 C 0.87912 0.23972 0.38128 0.0
C1548 C 0.82795 0.29458 0.37729 0.0
H1549 H 0.72405 0.34457 0.35617 0.0
N1550 N 0.8098 0.35531 0.38228 0.0
C1551 C 0.75579 0.38082 0.37064 0.0
C1552 C 0.80265 0.32248 0.37548 0.0
C1553 C 0.78687 0.3844 0.38009 0.0
C1554 C 0.748 0.34718 0.36358 0.0
C1555 C 0.77165 0.31753 0.36587 0.0
O1556 O 0.81059 0.35153 0.41196 0.0
O1557 O 0.88322 0.407 0.40111 0.0
O1558 O 0.94429 0.39593 0.38412 0.0
O1559 O 0.92075 0.34037 0.3932 0.0
O1560 O 0.90303 0.36718 0.41599 0.0
O1561 O 0.85561 0.31417 0.41549 0.0
O1562 O 0.84334 0.46432 0.37848 0.0
O1563 O 0.86465 0.37843 0.37522 0.0
O1564 O 0.82518 0.40434 0.411 0.0
O1565 O 0.85334 0.45571 0.40097 0.0
O1566 O 0.87589 0.40628 0.35608 0.0
O1567 O 0.88178 0.46545 0.35934 0.0
C1568 C 0.90527 0.40127 0.41216 0.0
C1569 C 0.82257 0.33346 0.43794 0.0
C1570 C 0.84615 0.3188 0.46376 0.0
C1571 C 0.84348 0.31156 0.44769 0.0
C1572 C 0.82723 0.34835 0.47038 0.0
C1573 C 0.80248 0.36257 0.44457 0.0
C1574 C 0.8049 0.36995 0.46074 0.0
C1575 C 0.95082 0.36002 0.38819 0.0
C1576 C 0.82438 0.32632 0.42093 0.0
C1577 C 0.76597 0.28364 0.35845 0.0
C1578 C 0.79128 0.25522 0.36045 0.0
C1579 C 0.86146 0.37566 0.35992 0.0
C1580 C 0.81885 0.47822 0.35364 0.0
C1581 C 0.79179 0.50458 0.35641 0.0
C1582 C 0.76096 0.50787 0.34648 0.0
C1583 C 0.75628 0.48133 0.33459 0.0
C1584 C 0.81552 0.45512 0.34057 0.0
C1585 C 0.78377 0.45581 0.33147 0.0
C1586 C 0.82741 0.44177 0.41134 0.0
C1587 C 0.85029 0.47694 0.36452 0.0
H1588 H 0.85907 0.28915 0.44262 0.0
H1589 H 0.82956 0.35444 0.48281 0.0
H1590 H 0.78547 0.37985 0.4373 0.0
H1591 H 0.78984 0.39267 0.46574 0.0
H1592 H 0.79667 0.52401 0.36578 0.0
H1593 H 0.73247 0.48136 0.32707 0.0
H1594 H 0.83718 0.43665 0.33726 0.0
H1595 H 0.78091 0.43716 0.32165 0.0
Tb1596 Tb 1.03694 0.61263 0.64936 0.0
C1597 C 0.93231 0.72201 0.62121 0.0
C1598 C 0.87498 0.73011 0.63499 0.0
C1599 C 0.8992 0.77965 0.61909 0.0
C1600 C 0.90653 0.70906 0.63171 0.0
C1601 C 0.9286 0.75728 0.61458 0.0
C1602 C 0.87219 0.76593 0.62916 0.0
C1603 C 0.98053 0.74426 0.59799 0.0
N1604 N 0.95982 0.69916 0.61675 0.0
C1605 C 0.98281 0.70936 0.60464 0.0
C1606 C 0.95366 0.76852 0.60312 0.0
Tb1607 Tb 0.9619 0.64299 0.6295 0.0
N1608 N 0.91022 0.67434 0.63726 0.0
C1609 C 0.8809 0.65776 0.6444 0.0
C1610 C 0.84625 0.7139 0.6433 0.0
C1611 C 0.84897 0.67735 0.64774 0.0
H1612 H 1.00491 0.69194 0.60084 0.0
H1613 H 0.82626 0.66403 0.65358 0.0
H1614 H 0.84864 0.78278 0.63192 0.0
H1615 H 0.9997 0.75249 0.58893 0.0
H1616 H 0.88078 0.62902 0.64706 0.0
H1617 H 0.17546 0.65656 0.63708 0.0
H1618 H 0.82143 0.72899 0.64587 0.0
H1619 H 0.98727 0.54341 0.63582 0.0
H1620 H 0.11493 0.66076 0.64957 0.0
H1621 H 0.99637 0.49048 0.61825 0.0
H1622 H 0.89619 0.80695 0.61429 0.0
H1623 H 0.1898 0.60504 0.61922 0.0
H1624 H 0.16949 0.5469 0.60608 0.0
H1625 H 0.95182 0.79544 0.59784 0.0
H1626 H 0.12104 0.50167 0.60106 0.0
N1627 N 0.09338 0.61401 0.6377 0.0
C1628 C 0.11994 0.63912 0.64117 0.0
C1629 C 0.1628 0.60712 0.62441 0.0
C1630 C 0.13613 0.58057 0.62146 0.0
C1631 C 0.15471 0.63639 0.63439 0.0
C1632 C 0.10135 0.58468 0.62847 0.0
H1633 H 1.05635 0.48062 0.6054 0.0
N1634 N 1.04093 0.5644 0.63241 0.0
C1635 C 1.01849 0.50959 0.62023 0.0
C1636 C 0.0743 0.55891 0.62581 0.0
C1637 C 1.01332 0.53982 0.63009 0.0
C1638 C 1.05244 0.50402 0.61306 0.0
C1639 C 0.08094 0.52873 0.61585 0.0
O1640 O 1.04194 0.56389 0.66216 0.0
O1641 O 0.98521 0.63562 0.65162 0.0
O1642 O 0.99757 0.69693 0.63394 0.0
O1643 O 1.05254 0.67459 0.64387 0.0
O1644 O 1.02482 0.65723 0.66621 0.0
O1645 O 0.0774 0.60991 0.66671 0.0
O1646 O 0.94681 0.59008 0.62211 0.0
O1647 O 1.01649 0.6191 0.62545 0.0
O1648 O 0.98886 0.5778 0.66109 0.0
O1649 O 0.93758 0.6055 0.65097 0.0
O1650 O 0.98891 0.6312 0.60627 0.0
O1651 O 0.91656 0.6373 0.61449 0.0
C1652 C 0.99072 0.6585 0.66239 0.0
C1653 C 1.05798 0.57491 0.68852 0.0
C1654 C 0.07196 0.59621 0.71479 0.0
C1655 C 0.0797 0.59477 0.69873 0.0
C1656 C 1.04203 0.57704 0.72092 0.0
C1657 C 1.0285 0.55453 0.69464 0.0
C1658 C 1.0206 0.55569 0.7108 0.0
C1659 C 1.03292 0.70418 0.63844 0.0
C1660 C 1.066 0.57796 0.67161 0.0
C1661 C 0.11546 0.52458 0.60881 0.0
C1662 C 0.14303 0.55038 0.61165 0.0
C1663 C 1.01951 0.61676 0.61009 0.0
C1664 C 0.92324 0.58855 0.59628 0.0
C1665 C 0.91227 0.55251 0.59307 0.0
C1666 C 0.90992 0.5395 0.57739 0.0
C1667 C 0.92447 0.56209 0.56535 0.0
C1668 C 0.93445 0.6112 0.58383 0.0
C1669 C 0.93663 0.59741 0.56862 0.0
C1670 C 0.9514 0.57951 0.6613 0.0
C1671 C 0.92178 0.60232 0.61263 0.0
H1672 H 0.10237 0.61059 0.69402 0.0
H1673 H 1.03548 0.57846 0.73335 0.0
H1674 H 1.01139 0.53826 0.687 0.0
H1675 H 0.9976 0.54044 0.71543 0.0
H1676 H 0.90385 0.53571 0.60289 0.0
H1677 H 0.92428 0.5542 0.55312 0.0
H1678 H 0.94174 0.63955 0.58579 0.0
H1679 H 0.94611 0.61486 0.55916 0.0
Tb1680 Tb 0.78119 0.35752 0.74078 0.0
C1681 C 0.6699 0.46062 0.7692 0.0
C1682 C 0.66344 0.51883 0.75607 0.0
C1683 C 0.61237 0.49393 0.77086 0.0
C1684 C 0.68389 0.4869 0.75928 0.0
C1685 C 0.63423 0.46418 0.77541 0.0
C1686 C 0.62711 0.52147 0.76132 0.0
C1687 C 0.64636 0.41212 0.79202 0.0
N1688 N 0.69243 0.43308 0.77377 0.0
C1689 C 0.68174 0.41018 0.78582 0.0
C1690 C 0.62226 0.43884 0.7866 0.0
Tb1691 Tb 0.7494 0.43078 0.76173 0.0
N1692 N 0.7191 0.48334 0.75443 0.0
C1693 C 0.7368 0.51318 0.74829 0.0
C1694 C 0.68069 0.54797 0.74843 0.0
C1695 C 0.71779 0.54541 0.74486 0.0
H1696 H 0.69931 0.38846 0.78987 0.0
H1697 H 0.73196 0.5685 0.73971 0.0
H1698 H 0.61068 0.54531 0.75858 0.0
H1699 H 0.63768 0.39291 0.80098 0.0
H1700 H 0.76592 0.51334 0.74653 0.0
H1701 H 0.74207 0.21921 0.75659 0.0
H1702 H 0.66606 0.57305 0.74586 0.0
H1703 H 0.84834 0.41164 0.75346 0.0
H1704 H 0.73491 0.27814 0.74308 0.0
H1705 H 0.90275 0.40572 0.77025 0.0
H1706 H 0.58474 0.49686 0.7753 0.0
H1707 H 0.7958 0.20805 0.77354 0.0
H1708 H 0.85451 0.23121 0.78508 0.0
H1709 H 0.595 0.44052 0.79157 0.0
H1710 H 0.89847 0.2815 0.78855 0.0
N1711 N 0.78223 0.30229 0.75352 0.0
C1712 C 0.75749 0.27473 0.75112 0.0
C1713 C 0.79246 0.23442 0.76788 0.0
C1714 C 0.81855 0.26206 0.76976 0.0
C1715 C 0.76192 0.24075 0.75845 0.0
C1716 C 0.81276 0.296 0.76223 0.0
H1717 H 0.91648 0.34669 0.78322 0.0
N1718 N 0.83038 0.357 0.75725 0.0
C1719 C 0.8847 0.38256 0.76861 0.0
C1720 C 0.83782 0.32417 0.76404 0.0
C1721 C 0.85359 0.38593 0.75917 0.0
C1722 C 0.89246 0.34915 0.77584 0.0
C1723 C 0.86891 0.31941 0.77363 0.0
O1724 O 0.82905 0.35294 0.72737 0.0
O1725 O 0.75653 0.4085 0.73934 0.0
O1726 O 0.69622 0.39456 0.75683 0.0
O1727 O 0.71944 0.34062 0.74608 0.0
O1728 O 0.73668 0.3698 0.72389 0.0
O1729 O 0.78448 0.3145 0.72455 0.0
O1730 O 0.8012 0.45314 0.76631 0.0
O1731 O 0.77496 0.37664 0.76492 0.0
O1732 O 0.8139 0.40642 0.72836 0.0
O1733 O 0.78604 0.45592 0.7402 0.0
O1734 O 0.76133 0.40192 0.78446 0.0
O1735 O 0.75485 0.46879 0.78033 0.0
C1736 C 0.734 0.40345 0.72842 0.0
C1737 C 0.82116 0.32622 0.70241 0.0
C1738 C 0.80929 0.29411 0.67819 0.0
C1739 C 0.81329 0.29413 0.69446 0.0
C1740 C 0.81718 0.32583 0.66952 0.0
C1741 C 0.8299 0.35806 0.69388 0.0
C1742 C 0.82864 0.35749 0.6774 0.0
C1743 C 0.6896 0.35939 0.75189 0.0
C1744 C 0.81648 0.32524 0.71948 0.0
C1745 C 0.87485 0.28561 0.78107 0.0
C1746 C 0.84977 0.257 0.77912 0.0
C1747 C 0.77699 0.37225 0.78019 0.0
C1748 C 0.81352 0.46806 0.79276 0.0
C1749 C 0.84753 0.48574 0.79269 0.0
C1750 C 0.87165 0.48333 0.80568 0.0
C1751 C 0.86206 0.45937 0.81804 0.0
C1752 C 0.80285 0.44854 0.80623 0.0
C1753 C 0.82758 0.44313 0.81848 0.0
C1754 C 0.81147 0.44382 0.72913 0.0
C1755 C 0.79014 0.47117 0.77861 0.0
H1756 H 0.80584 0.26993 0.7012 0.0
H1757 H 0.81307 0.32644 0.6569 0.0
H1758 H 0.83661 0.38335 0.69984 0.0
H1759 H 0.83463 0.38211 0.67079 0.0
H1760 H 0.85364 0.5031 0.78272 0.0
H1761 H 0.88018 0.45441 0.82784 0.0
H1762 H 0.77581 0.43695 0.80734 0.0
H1763 H 0.81991 0.42641 0.82843 0.0
Tb1764 Tb 1.0345 0.53065 0.99302 0.0
C1765 C 0.92881 0.42527 1.02447 0.0
C1766 C 0.87452 0.40838 1.00996 0.0
C1767 C 0.896 0.36925 1.03106 0.0
C1768 C 0.90463 0.43195 1.01239 0.0
C1769 C 0.92511 0.39344 1.0338 0.0
C1770 C 0.87056 0.37687 1.01924 0.0
C1771 C 0.97968 0.41097 1.04768 0.0
N1772 N 0.95648 0.4495 1.02682 0.0
C1773 C 0.9822 0.44218 1.03824 0.0
C1774 C 0.95088 0.38662 1.04554 0.0
Tb1775 Tb 0.95664 0.501 1.01058 0.0
N1776 N 0.90996 0.46209 1.00331 0.0
C1777 C 0.88485 0.47069 0.99196 0.0
C1778 C 0.8487 0.41766 0.99857 0.0
C1779 C 0.85358 0.44935 0.98973 0.0
H1780 H 1.00608 0.4591 1.03966 0.0
H1781 H 0.83376 0.45687 0.98086 0.0
H1782 H 0.84783 0.35833 1.01742 0.0
H1783 H 1.00031 0.4055 1.05649 0.0
H1784 H 0.8882 0.49423 0.98462 0.0
H1785 H 0.16682 0.48493 1.01386 0.0
H1786 H 0.82492 0.40063 0.99651 0.0
H1787 H 0.98159 0.6011 1.0033 0.0
H1788 H 0.11131 0.48116 0.99779 0.0
H1789 H 0.98834 0.65728 1.01901 0.0
H1790 H 0.89275 0.34474 1.0381 0.0
H1791 H 0.17628 0.5375 1.03172 0.0
H1792 H 0.15406 0.59781 1.04213 0.0
H1793 H 0.94907 0.36241 1.05287 0.0
H1794 H 0.10672 0.64562 1.04279 0.0
N1795 N 0.08653 0.52867 1.00793 0.0
C1796 C 0.11359 0.50305 1.00627 0.0
C1797 C 0.15114 0.53544 1.02505 0.0
C1798 C 0.12455 0.56287 1.0259 0.0
C1799 C 0.14577 0.50559 1.01507 0.0
C1800 C 0.09222 0.55877 1.01703 0.0
H1801 H 1.04517 0.6683 1.03404 0.0
N1802 N 1.03393 0.57999 1.00943 0.0
C1803 C 1.01024 0.63737 1.01869 0.0
C1804 C 1.06552 0.58576 1.01744 0.0
C1805 C 1.00641 0.60529 1.00985 0.0
C1806 C 1.04246 0.6436 1.02708 0.0
C1807 C 1.07047 0.61749 1.02666 0.0
O1808 O 1.04519 0.57991 0.98151 0.0
O1809 O 0.98385 0.50717 0.9891 0.0
O1810 O 0.99166 0.44682 1.00724 0.0
O1811 O 1.04863 0.46765 0.99872 0.0
O1812 O 1.02605 0.48733 0.97524 0.0
O1813 O 0.07926 0.53255 0.9774 0.0
O1814 O 0.90232 0.51225 1.01803 0.0
O1815 O 1.0101 0.5252 1.01648 0.0
O1816 O 0.98793 0.56488 0.97915 0.0
O1817 O 0.93672 0.53497 0.98783 0.0
O1818 O 0.9772 0.51618 1.03466 0.0
O1819 O 0.94387 0.55322 1.01948 0.0
C1820 C 0.99164 0.48462 0.97838 0.0
C1821 C 0.07176 0.57488 0.95652 0.0
C1822 C 0.10296 0.56906 0.93159 0.0
C1823 C 0.10243 0.56508 0.9479 0.0
C1824 C 0.07327 0.58503 0.92379 0.0
C1825 C 1.04217 0.59197 0.94885 0.0
C1826 C 1.04321 0.59731 0.93253 0.0
C1827 C 1.02746 0.43854 1.00372 0.0
C1828 C 0.07188 0.56627 0.97335 0.0
C1829 C 0.1026 0.62162 1.03551 0.0
C1830 C 0.12948 0.59431 1.03519 0.0
C1831 C 1.00979 0.52839 1.03196 0.0
C1832 C 0.88459 0.57503 1.01452 0.0
C1833 C 0.87554 0.60541 1.02388 0.0
C1834 C 0.85459 0.63493 1.01776 0.0
C1835 C 0.84697 0.63481 1.0015 0.0
C1836 C 0.87121 0.5736 0.99909 0.0
C1837 C 0.85398 0.60385 0.99245 0.0
C1838 C 0.95048 0.56191 0.97809 0.0
C1839 C 0.90927 0.54647 1.021 0.0
H1840 H 0.12507 0.55154 0.95379 0.0
H1841 H 0.07299 0.58698 0.91107 0.0
H1842 H 1.01819 0.60071 0.95532 0.0
H1843 H 1.0202 0.60981 0.9266 0.0
H1844 H 0.88357 0.60449 1.0361 0.0
H1845 H 0.83348 0.6575 0.99579 0.0
H1846 H 0.87415 0.54955 0.992 0.0
H1847 H 0.84509 0.60307 0.98032 0.0
Tb1848 Tb 0.86188 0.7866 0.24045 0.0
C1849 C 0.97279 0.67556 0.26089 0.0
C1850 C 0.97033 0.62125 0.24471 0.0
C1851 C 1.028 0.63983 0.25626 0.0
C1852 C 0.95333 0.65262 0.25119 0.0
C1853 C 1.01002 0.66852 0.26409 0.0
C1854 C 1.0081 0.61607 0.24661 0.0
C1855 C 1.00701 0.71326 0.28487 0.0
N1856 N 0.95405 0.70217 0.26863 0.0
C1857 C 0.97 0.71871 0.28149 0.0
C1858 C 1.02742 0.68883 0.27582 0.0
Tb1859 Tb 0.89456 0.71291 0.26009 0.0
N1860 N 0.91679 0.65829 0.24987 0.0
C1861 C 0.89526 0.62979 0.24485 0.0
C1862 C 0.94856 0.595 0.23733 0.0
C1863 C 0.9107 0.59877 0.23785 0.0
H1864 H 0.95521 0.73773 0.28878 0.0
H1865 H 0.89333 0.57727 0.23329 0.0
H1866 H 1.02174 0.59272 0.24136 0.0
H1867 H 1.01973 0.72783 0.29451 0.0
H1868 H 0.866 0.6299 0.24651 0.0
H1869 H 0.9099 0.92438 0.25172 0.0
H1870 H 0.9605 0.57065 0.23215 0.0
H1871 H 0.78794 0.74149 0.25227 0.0
H1872 H 0.91246 0.86348 0.2398 0.0
H1873 H 0.73075 0.75637 0.26629 0.0
H1874 H 1.05673 0.63447 0.25833 0.0
H1875 H 0.85791 0.94138 0.26871 0.0
H1876 H 0.79767 0.92465 0.2807 0.0
H1877 H 1.05597 0.68433 0.2786 0.0
H1878 H 0.74855 0.87952 0.28434 0.0
N1879 N 0.86592 0.84292 0.2523 0.0
C1880 C 0.89142 0.86893 0.24842 0.0
C1881 C 0.86008 0.91365 0.26438 0.0
C1882 C 0.83269 0.88796 0.26745 0.0
C1883 C 0.88947 0.90414 0.25477 0.0
C1884 C 0.83638 0.85237 0.26118 0.0
H1885 H 0.72296 0.81718 0.27868 0.0
N1886 N 0.8126 0.79329 0.25673 0.0
C1887 C 0.75242 0.77646 0.26554 0.0
C1888 C 0.80848 0.82707 0.26314 0.0
C1889 C 0.78498 0.76807 0.25766 0.0
C1890 C 0.74813 0.81082 0.27251 0.0
C1891 C 0.77631 0.83661 0.27138 0.0
O1892 O 0.81331 0.79047 0.22766 0.0
O1893 O 0.88661 0.73592 0.23815 0.0
O1894 O 0.94817 0.74793 0.25522 0.0
O1895 O 0.92427 0.80236 0.24582 0.0
O1896 O 0.90419 0.77484 0.22253 0.0
O1897 O 0.85756 0.82809 0.22334 0.0
O1898 O 0.84423 0.69468 0.26921 0.0
O1899 O 0.85964 0.76203 0.26414 0.0
O1900 O 0.82767 0.73924 0.2286 0.0
O1901 O 0.85507 0.6886 0.2393 0.0
O1902 O 0.89794 0.75392 0.27989 0.0
O1903 O 0.89454 0.67652 0.27936 0.0
C1904 C 0.90887 0.74165 0.22722 0.0
C1905 C 0.818 0.81434 0.20214 0.0
C1906 C 0.82238 0.84424 0.17691 0.0
C1907 C 0.82323 0.84571 0.19329 0.0
C1908 C 0.81281 0.81164 0.16925 0.0
C1909 C 0.80758 0.78164 0.1946 0.0
C1910 C 0.80435 0.7806 0.17818 0.0
C1911 C 0.9547 0.78317 0.25068 0.0
C1912 C 0.82509 0.81718 0.21905 0.0
C1913 C 0.77298 0.87171 0.27793 0.0
C1914 C 0.80106 0.89734 0.27594 0.0
C1915 C 0.87057 0.77533 0.27758 0.0
C1916 C 0.84437 0.68652 0.29659 0.0
C1917 C 0.80969 0.67335 0.30059 0.0
C1918 C 0.79289 0.68272 0.31505 0.0
C1919 C 0.8113 0.70735 0.32506 0.0
C1920 C 0.86329 0.70866 0.30733 0.0
C1921 C 0.84643 0.71966 0.32131 0.0
C1922 C 0.82916 0.70197 0.22889 0.0
C1923 C 0.85928 0.6776 0.2809 0.0
H1924 H 0.83201 0.87067 0.19915 0.0
H1925 H 0.8135 0.80987 0.15652 0.0
H1926 H 0.80271 0.75691 0.20122 0.0
H1927 H 0.79706 0.75528 0.17236 0.0
H1928 H 0.79686 0.65438 0.29253 0.0
H1929 H 0.79914 0.71652 0.33599 0.0
H1930 H 0.89067 0.7182 0.30484 0.0
H1931 H 0.86064 0.73796 0.32922 0.0
Tb1932 Tb 0.60533 0.61063 0.49117 0.0
C1933 C 0.7076 0.72277 0.51969 0.0
C1934 C 0.76802 0.72831 0.5084 0.0
C1935 C 0.74155 0.77976 0.52241 0.0
C1936 C 0.73515 0.70853 0.5104 0.0
C1937 C 0.71084 0.75834 0.52608 0.0
C1938 C 0.77036 0.76459 0.51374 0.0
C1939 C 0.65646 0.7469 0.54137 0.0
N1940 N 0.67919 0.70056 0.5236 0.0
C1941 C 0.65487 0.71156 0.5351 0.0
C1942 C 0.6842 0.77061 0.53665 0.0
Tb1943 Tb 0.67842 0.6436 0.51143 0.0
N1944 N 0.73185 0.67346 0.50524 0.0
C1945 C 0.76225 0.65527 0.49991 0.0
C1946 C 0.79847 0.7102 0.50224 0.0
C1947 C 0.7958 0.67324 0.49837 0.0
H1948 H 0.63225 0.69441 0.53856 0.0
H1949 H 0.8196 0.65853 0.49417 0.0
H1950 H 0.79499 0.78051 0.51188 0.0
H1951 H 0.63618 0.75583 0.54984 0.0
H1952 H 0.76172 0.62627 0.49767 0.0
H1953 H 0.46652 0.65101 0.50524 0.0
H1954 H 0.82445 0.72413 0.50091 0.0
H1955 H 0.65784 0.54264 0.50404 0.0
H1956 H 0.52604 0.657 0.49204 0.0
H1957 H 0.65136 0.48975 0.5218 0.0
H1958 H 0.74425 0.80729 0.52701 0.0
H1959 H 0.45472 0.59887 0.52309 0.0
H1960 H 0.47736 0.54112 0.53572 0.0
H1961 H 0.68562 0.79781 0.5417 0.0
H1962 H 0.52741 0.4974 0.54026 0.0
N1963 N 0.54971 0.61076 0.50355 0.0
C1964 C 0.52224 0.63516 0.50045 0.0
C1965 C 0.48132 0.60174 0.51758 0.0
C1966 C 0.50889 0.57589 0.52013 0.0
C1967 C 0.48798 0.63138 0.50762 0.0
C1968 C 0.54314 0.58108 0.51278 0.0
H1969 H 0.59248 0.47833 0.53532 0.0
N1970 N 0.60403 0.56251 0.50821 0.0
C1971 C 0.62863 0.5083 0.52009 0.0
C1972 C 0.57114 0.55606 0.51513 0.0
C1973 C 0.63238 0.53861 0.51017 0.0
C1974 C 0.59529 0.50183 0.52764 0.0
C1975 C 0.56592 0.52569 0.52513 0.0
O1976 O 0.59989 0.56132 0.47888 0.0
O1977 O 0.65607 0.63583 0.48899 0.0
O1978 O 0.64285 0.69668 0.50602 0.0
O1979 O 0.58831 0.67252 0.49644 0.0
O1980 O 0.61599 0.65448 0.47393 0.0
O1981 O 0.56358 0.60684 0.47433 0.0
O1982 O 0.69398 0.59048 0.51834 0.0
O1983 O 0.62451 0.61821 0.51531 0.0
O1984 O 0.6547 0.57799 0.47895 0.0
O1985 O 0.70407 0.60761 0.48991 0.0
O1986 O 0.6506 0.63323 0.53453 0.0
O1987 O 0.72128 0.63776 0.52771 0.0
C1988 C 0.64991 0.65785 0.47788 0.0
C1989 C 0.57653 0.56693 0.45322 0.0
C1990 C 0.54822 0.57464 0.42779 0.0
C1991 C 0.54622 0.57537 0.44416 0.0
C1992 C 0.58025 0.56276 0.42029 0.0
C1993 C 0.60852 0.55398 0.44583 0.0
C1994 C 0.61008 0.55146 0.42938 0.0
C1995 C 0.60737 0.70283 0.50159 0.0
C1996 C 0.57365 0.57391 0.47015 0.0
C1997 C 0.5319 0.52048 0.53249 0.0
C1998 C 0.50342 0.54543 0.52994 0.0
C1999 C 0.62102 0.61687 0.53069 0.0
C2000 C 0.71429 0.58676 0.54469 0.0
C2001 C 0.7254 0.55048 0.54729 0.0
C2002 C 0.72698 0.53579 0.56271 0.0
C2003 C 0.7112 0.55682 0.57499 0.0
C2004 C 0.70228 0.60796 0.55748 0.0
C2005 C 0.69915 0.59244 0.57233 0.0
C2006 C 0.69205 0.5813 0.47928 0.0
C2007 C 0.71718 0.60246 0.5287 0.0
H2008 H 0.52178 0.58591 0.4499 0.0
H2009 H 0.58247 0.56331 0.40757 0.0
H2010 H 0.63235 0.54659 0.45263 0.0
H2011 H 0.63491 0.54218 0.42369 0.0
H2012 H 0.73476 0.53496 0.53724 0.0
H2013 H 0.71037 0.54751 0.58704 0.0
H2014 H 0.69514 0.63651 0.55607 0.0
H2015 H 0.68897 0.60877 0.58201 0.0
Tb2016 Tb 0.39218 0.43221 0.26221 0.0
C2017 C 0.30376 0.32439 0.26565 0.0
C2018 C 0.32334 0.26196 0.27036 0.0
C2019 C 0.26774 0.28476 0.28267 0.0
C2020 C 0.32871 0.29639 0.2632 0.0
C2021 C 0.27321 0.319 0.27554 0.0
C2022 C 0.29265 0.25628 0.28003 0.0
C2023 C 0.25634 0.38204 0.27099 0.0
N2024 N 0.31051 0.35749 0.25898 0.0
C2025 C 0.28683 0.38597 0.26117 0.0
C2026 C 0.24948 0.34841 0.27821 0.0
Tb2027 Tb 0.35871 0.35905 0.24191 0.0
N2028 N 0.35852 0.30314 0.25406 0.0
C2029 C 0.38293 0.27568 0.2509 0.0
C2030 C 0.34917 0.23439 0.26773 0.0
C2031 C 0.37898 0.24125 0.25789 0.0
H2032 H 0.29111 0.4117 0.25531 0.0
H2033 H 0.39859 0.21979 0.25544 0.0
H2034 H 0.28806 0.23003 0.28559 0.0
H2035 H 0.23797 0.40486 0.27286 0.0
H2036 H 0.40487 0.27961 0.24255 0.0
H2037 H 0.40723 0.5733 0.24496 0.0
H2038 H 0.34613 0.20765 0.27309 0.0
H2039 H 0.44257 0.38671 0.28939 0.0
H2040 H 0.37475 0.51561 0.2489 0.0
H2041 H 0.50426 0.39023 0.30041 0.0
H2042 H 0.24449 0.28011 0.29034 0.0
H2043 H 0.47313 0.57778 0.25104 0.0
H2044 H 0.52962 0.5481 0.26178 0.0
H2045 H 0.22586 0.34546 0.28583 0.0
H2046 H 0.55634 0.49743 0.27696 0.0
N2047 N 0.4221 0.48552 0.25596 0.0
C2048 C 0.40382 0.51602 0.25086 0.0
C2049 C 0.45909 0.5519 0.25254 0.0
C2050 C 0.4772 0.52142 0.25866 0.0
C2051 C 0.42195 0.54945 0.24906 0.0
C2052 C 0.45728 0.4887 0.26086 0.0
H2053 H 0.54659 0.43909 0.29192 0.0
N2054 N 0.44912 0.43314 0.27422 0.0
C2055 C 0.49542 0.41039 0.2919 0.0
C2056 C 0.47151 0.46124 0.27013 0.0
C2057 C 0.46 0.40899 0.28577 0.0
C2058 C 0.51933 0.4378 0.28697 0.0
C2059 C 0.50716 0.46433 0.27635 0.0
O2060 O 0.33921 0.45085 0.26743 0.0
O2061 O 0.36638 0.37865 0.26587 0.0
O2062 O 0.32565 0.40855 0.23031 0.0
O2063 O 0.35611 0.45791 0.24094 0.0
O2064 O 0.38095 0.40466 0.28528 0.0
O2065 O 0.38588 0.47242 0.27979 0.0
O2066 O 0.30993 0.35592 0.22914 0.0
O2067 O 0.38436 0.40952 0.23985 0.0
O2068 O 0.445 0.39616 0.25669 0.0
O2069 O 0.42061 0.34182 0.24691 0.0
O2070 O 0.4025 0.36971 0.22455 0.0
O2071 O 0.35372 0.31707 0.22525 0.0
C2072 C 0.36479 0.37513 0.28118 0.0
C2073 C 0.32909 0.47025 0.2936 0.0
C2074 C 0.27578 0.49322 0.3081 0.0
C2075 C 0.29428 0.48627 0.29377 0.0
C2076 C 0.29002 0.47668 0.32185 0.0
C2077 C 0.3438 0.45661 0.30766 0.0
C2078 C 0.32343 0.45822 0.32151 0.0
C2079 C 0.32917 0.44585 0.23068 0.0
C2080 C 0.35034 0.47174 0.27883 0.0
C2081 C 0.52873 0.49483 0.27249 0.0
C2082 C 0.51359 0.5236 0.2638 0.0
C2083 C 0.40611 0.40358 0.22863 0.0
C2084 C 0.31639 0.33164 0.20364 0.0
C2085 C 0.3239 0.3005 0.19496 0.0
C2086 C 0.32692 0.30222 0.17865 0.0
C2087 C 0.31875 0.33486 0.17072 0.0
C2088 C 0.30725 0.36436 0.19584 0.0
C2089 C 0.30778 0.36564 0.17935 0.0
C2090 C 0.451 0.36066 0.25211 0.0
C2091 C 0.32171 0.3288 0.22065 0.0
H2092 H 0.2834 0.49568 0.28268 0.0
H2093 H 0.27729 0.48 0.33324 0.0
H2094 H 0.37101 0.44509 0.30809 0.0
H2095 H 0.33465 0.44713 0.33227 0.0
H2096 H 0.33162 0.27558 0.20111 0.0
H2097 H 0.32214 0.33681 0.15807 0.0
H2098 H 0.30074 0.38895 0.20235 0.0
H2099 H 0.30149 0.39096 0.17332 0.0
Tb2100 Tb 0.46107 0.64493 1.00942 0.0
C2101 C 0.56597 0.55204 1.01317 0.0
C2102 C 0.62721 0.57167 1.02001 0.0
C2103 C 0.605 0.51243 1.02886 0.0
C2104 C 0.59352 0.57807 1.01242 0.0
C2105 C 0.57145 0.51892 1.02138 0.0
C2106 C 0.63282 0.53868 1.02813 0.0
C2107 C 0.50995 0.50122 1.01437 0.0
N2108 N 0.53351 0.55955 1.00612 0.0
C2109 C 0.5057 0.5345 1.00645 0.0
C2110 C 0.54298 0.49335 1.02185 0.0
Tb2111 Tb 0.53345 0.61006 0.99028 0.0
N2112 N 0.5876 0.60914 1.00396 0.0
C2113 C 0.61539 0.63391 1.002 0.0
C2114 C 0.65468 0.59813 1.01886 0.0
C2115 C 0.64878 0.62929 1.00974 0.0
H2116 H 0.48017 0.54001 1.00061 0.0
H2117 H 0.6704 0.64923 1.00826 0.0
H2118 H 0.65887 0.53288 1.03361 0.0
H2119 H 0.48776 0.48164 1.01467 0.0
H2120 H 0.61289 0.65655 0.99392 0.0
H2121 H 0.32247 0.64544 0.98671 0.0
H2122 H 0.68087 0.59427 1.02456 0.0
H2123 H 0.49259 0.70524 1.03779 0.0
H2124 H 0.3784 0.61762 0.99679 0.0
H2125 H 0.48293 0.76863 1.04491 0.0
H2126 H 0.60977 0.48713 1.03519 0.0
H2127 H 0.31387 0.7124 0.98821 0.0
H2128 H 0.33615 0.77259 0.99839 0.0
H2129 H 0.54613 0.46761 1.02803 0.0
H2130 H 0.38115 0.80674 1.01398 0.0
N2131 N 0.40578 0.66857 1.00099 0.0
C2132 C 0.37707 0.64709 0.9962 0.0
C2133 C 0.33951 0.7004 0.99196 0.0
C2134 C 0.3667 0.72175 0.99892 0.0
C2135 C 0.34436 0.66269 0.991 0.0
C2136 C 0.39977 0.70476 1.00355 0.0
H2137 H 0.43555 0.8053 1.03163 0.0
N2138 N 0.45246 0.70429 1.01922 0.0
C2139 C 0.46639 0.75639 1.03576 0.0
C2140 C 0.42429 0.72347 1.01282 0.0
C2141 C 0.47146 0.71972 1.03162 0.0
C2142 C 0.43985 0.77707 1.02816 0.0
C2143 C 0.41733 0.76028 1.01707 0.0
O2144 O 0.44362 0.59314 1.01703 0.0
O2145 O 0.50906 0.60887 1.014 0.0
O2146 O 0.48544 0.5786 0.97697 0.0
O2147 O 0.43656 0.60911 0.98766 0.0
O2148 O 0.49984 0.64641 1.02999 0.0
O2149 O 0.42189 0.64202 1.02752 0.0
O2150 O 0.53588 0.56339 0.97604 0.0
O2151 O 0.48432 0.6374 0.98731 0.0
O2152 O 0.49713 0.69745 1.00505 0.0
O2153 O 0.55131 0.67182 0.99621 0.0
O2154 O 0.52654 0.65561 0.97337 0.0
O2155 O 0.57852 0.60401 0.97517 0.0
C2156 C 0.52189 0.61961 1.02759 0.0
C2157 C 0.42834 0.58997 1.04366 0.0
C2158 C 0.41329 0.54051 1.06174 0.0
C2159 C 0.41195 0.55609 1.04664 0.0
C2160 C 0.43485 0.55789 0.07335 0.0
C2161 C 0.44831 0.60755 1.05553 0.0
C2162 C 0.45247 0.59091 0.07014 0.0
C2163 C 0.44829 0.58252 0.97713 0.0
C2164 C 0.42337 0.60654 1.02816 0.0
C2165 C 0.38655 0.77838 1.01104 0.0
C2166 C 0.36092 0.75895 1.00219 0.0
C2167 C 0.49229 0.65963 0.97656 0.0
C2168 C 0.56629 0.5711 0.95192 0.0
C2169 C 0.59861 0.58072 0.94447 0.0
C2170 C 0.59989 0.58466 0.9282 0.0
C2171 C 0.56929 0.57581 0.91904 0.0
C2172 C 0.53564 0.56123 0.94285 0.0
C2173 C 0.53747 0.56307 0.92639 0.0
C2174 C 0.53286 0.70273 1.00117 0.0
C2175 C 0.56564 0.57386 0.9691 0.0
H2176 H 0.39662 0.54288 1.03733 0.0
H2177 H 0.43644 0.54751 0.08526 0.0
H2178 H 0.46063 0.63406 1.0536 0.0
H2179 H 0.46832 0.60438 0.07916 0.0
H2180 H 0.62202 0.5888 0.95153 0.0
H2181 H 0.56969 0.57989 0.90641 0.0
H2182 H 0.51025 0.55299 0.94837 0.0
H2183 H 0.51373 0.55618 0.9194 0.0
Tb2184 Tb 0.24906 0.71086 0.76397 0.0
C2185 C 0.32856 0.82845 0.76318 0.0
C2186 C 0.30054 0.8869 0.7691 0.0
C2187 C 0.36216 0.87402 0.77821 0.0
C2188 C 0.29896 0.85186 0.76211 0.0
C2189 C 0.36081 0.83955 0.77093 0.0
C2190 C 0.33202 0.89757 0.77736 0.0
C2191 C 0.38792 0.78155 0.76381 0.0
N2192 N 0.32578 0.79475 0.75657 0.0
C2193 C 0.35504 0.77136 0.75665 0.0
C2194 C 0.39076 0.81571 0.77108 0.0
Tb2195 Tb 0.27421 0.784 0.7421 0.0
N2196 N 0.26945 0.84103 0.75357 0.0
C2197 C 0.24216 0.86572 0.75043 0.0
C2198 C 0.27103 0.91072 0.7671 0.0
C2199 C 0.24197 0.90027 0.75752 0.0
H2200 H 0.35315 0.74477 0.75121 0.0
H2201 H 0.21984 0.91921 0.75522 0.0
H2202 H 0.33368 0.92438 0.78277 0.0
H2203 H 0.4109 0.76288 0.76387 0.0
H2204 H 0.22079 0.85961 0.74207 0.0
H2205 H 0.25746 0.56978 0.74435 0.0
H2206 H 0.27112 0.93777 0.77235 0.0
H2207 H 0.18909 0.74079 0.79247 0.0
H2208 H 0.28161 0.62886 0.75283 0.0
H2209 H 0.12684 0.72767 0.80067 0.0
H2210 H 0.38649 0.88287 0.7844 0.0
H2211 H 0.19136 0.55685 0.74657 0.0
H2212 H 0.13003 0.57646 0.75661 0.0
H2213 H 0.41608 0.82332 0.77682 0.0
H2214 H 0.09365 0.62079 0.77172 0.0
N2215 N 0.22905 0.65314 0.75688 0.0
C2216 C 0.25232 0.62538 0.75257 0.0
C2217 C 0.20167 0.58371 0.74964 0.0
C2218 C 0.17871 0.61029 0.75614 0.0
C2219 C 0.23889 0.59098 0.74828 0.0
C2220 C 0.19351 0.645 0.75988 0.0
H2221 H 0.09256 0.67679 0.78859 0.0
N2222 N 0.19111 0.69927 0.77449 0.0
C2223 C 0.1395 0.71119 0.79158 0.0
C2224 C 0.17358 0.66926 0.76883 0.0
C2225 C 0.1754 0.7183 0.78683 0.0
C2226 C 0.12015 0.68265 0.78466 0.0
C2227 C 0.13766 0.66027 0.77367 0.0
O2228 O 0.30195 0.69589 0.77121 0.0
O2229 O 0.28187 0.76185 0.76623 0.0
O2230 O 0.30881 0.73708 0.72983 0.0
O2231 O 0.28566 0.68619 0.74217 0.0
O2232 O 0.24699 0.75198 0.78349 0.0
O2233 O 0.25484 0.67669 0.78382 0.0
O2234 O 0.3189 0.78639 0.72666 0.0
O2235 O 0.25235 0.73169 0.74147 0.0
O2236 O 0.19375 0.74392 0.75972 0.0
O2237 O 0.21204 0.79825 0.74817 0.0
O2238 O 0.22758 0.76843 0.72673 0.0
O2239 O 0.2742 0.82423 0.72446 0.0
C2240 C 0.27225 0.77493 0.77997 0.0
C2241 C 0.31024 0.68305 0.79813 0.0
C2242 C 0.36241 0.66544 0.81461 0.0
C2243 C 0.34111 0.66144 0.80083 0.0
C2244 C 0.35272 0.6936 0.82521 0.0
C2245 C 0.2993 0.70843 0.80955 0.0
C2246 C 0.32107 0.71434 0.8228 0.0
C2247 C 0.30912 0.69976 0.73069 0.0
C2248 C 0.29028 0.67754 0.78329 0.0
C2249 C 0.12139 0.62776 0.76837 0.0
C2250 C 0.14209 0.60252 0.75979 0.0
C2251 C 0.22831 0.73467 0.73109 0.0
C2252 C 0.30094 0.8004 0.70108 0.0
C2253 C 0.26982 0.80972 0.69261 0.0
C2254 C 0.26942 0.8068 0.67626 0.0
C2255 C 0.29867 0.79025 0.66833 0.0
C2256 C 0.33017 0.7831 0.69325 0.0
C2257 C 0.32855 0.77724 0.67696 0.0
C2258 C 0.18408 0.77821 0.7546 0.0
C2259 C 0.30334 0.81053 0.71779 0.0
H2260 H 0.3468 0.64016 0.79233 0.0
H2261 H 0.36865 0.69901 0.83566 0.0
H2262 H 0.2745 0.72413 0.80815 0.0
H2263 H 0.31327 0.73505 0.83127 0.0
H2264 H 0.24732 0.82364 0.69845 0.0
H2265 H 0.2992 0.78915 0.65559 0.0
H2266 H 0.35448 0.77497 0.69962 0.0
H2267 H 0.35136 0.76457 0.67092 0.0
Tb2268 Tb 0.1879 0.50131 0.50986 0.0
C2269 C 1.07012 0.58023 0.5148 0.0
C2270 C 1.0097 0.55562 0.51982 0.0
C2271 C 1.0278 0.61335 0.53173 0.0
C2272 C 1.04437 0.55299 0.51258 0.0
C2273 C 1.06222 0.61064 0.52446 0.0
C2274 C 1.00156 0.58596 0.52937 0.0
C2275 C 0.12316 0.63312 0.51918 0.0
N2276 N 0.10341 0.5762 0.50795 0.0
C2277 C 0.1296 0.60257 0.50964 0.0
C2278 C 0.08936 0.63714 0.52667 0.0
Tb2279 Tb 0.10953 0.52734 0.49146 0.0
N2280 N 1.0535 0.52373 0.50351 0.0
C2281 C 1.02808 0.49716 0.50044 0.0
C2282 C 0.98434 0.5276 0.51732 0.0
C2283 C 0.99351 0.49837 0.5075 0.0
H2284 H 0.15553 0.60011 0.50369 0.0
H2285 H 0.97371 0.47706 0.50513 0.0
H2286 H 0.97512 0.58838 0.53502 0.0
H2287 H 0.1442 0.65365 0.52068 0.0
H2288 H 1.03376 0.47546 0.49215 0.0
H2289 H 0.31543 0.46049 0.48257 0.0
H2290 H 0.95749 0.52852 0.52273 0.0
H2291 H 0.13877 0.4605 0.53925 0.0
H2292 H 0.26078 0.4978 0.48592 0.0
H2293 H 0.14413 0.40703 0.55616 0.0
H2294 H 1.02125 0.63642 0.53925 0.0
H2295 H 0.32291 0.40345 0.49781 0.0
H2296 H 0.29845 0.36032 0.51808 0.0
H2297 H 0.08447 0.6608 0.53407 0.0
H2298 H 0.25227 0.3462 0.53824 0.0
N2299 N 0.23662 0.46388 0.50353 0.0
C2300 C 0.26316 0.47355 0.49291 0.0
C2301 C 0.29881 0.42023 0.49958 0.0
C2302 C 0.27195 0.41032 0.51046 0.0
C2303 C 0.29469 0.45236 0.49098 0.0
C2304 C 0.24137 0.43352 0.51252 0.0
H2305 H 0.19536 0.3638 0.5527 0.0
N2306 N 0.18853 0.45061 0.52649 0.0
C2307 C 0.16495 0.4124 0.54739 0.0
C2308 C 0.21643 0.42652 0.52432 0.0
C2309 C 0.16267 0.44355 0.53791 0.0
C2310 C 0.19374 0.38796 0.54533 0.0
C2311 C 0.21988 0.39475 0.5337 0.0
O2312 O 0.24094 0.51505 0.5182 0.0
O2313 O 0.13335 0.52375 0.51502 0.0
O2314 O 0.15608 0.56365 0.47909 0.0
O2315 O 0.20814 0.53392 0.48677 0.0
O2316 O 0.16604 0.51812 0.53363 0.0
O2317 O 0.19815 0.55495 0.51759 0.0
O2318 O 0.10533 0.57458 0.47755 0.0
O2319 O 0.16112 0.50507 0.48826 0.0
O2320 O 0.15355 0.44603 0.50689 0.0
O2321 O 0.09656 0.4648 0.49758 0.0
O2322 O 0.12038 0.4822 0.47468 0.0
O2323 O 1.06713 0.52996 0.47505 0.0
C2324 C 0.13325 0.52889 0.53037 0.0
C2325 C 0.25758 0.57823 0.51439 0.0
C2326 C 0.28808 0.63726 0.51905 0.0
C2327 C 0.26741 0.60692 0.52453 0.0
C2328 C 0.29538 0.63964 0.5028 0.0
C2329 C 0.27006 0.57931 0.49877 0.0
C2330 C 0.28743 0.61039 0.49289 0.0
C2331 C 0.19337 0.56099 0.47746 0.0
C2332 C 0.23253 0.54931 0.52033 0.0
C2333 C 0.24925 0.37071 0.53118 0.0
C2334 C 0.27542 0.37864 0.51966 0.0
C2335 C 0.15492 0.48165 0.47774 0.0
C2336 C 0.08565 0.56034 0.45193 0.0
C2337 C 1.06176 0.53987 0.44293 0.0
C2338 C 1.06757 0.53473 0.42687 0.0
C2339 C 0.09774 0.55095 0.41948 0.0
C2340 C 0.11548 0.5777 0.44455 0.0
C2341 C 0.1214 0.57298 0.42835 0.0
C2342 C 0.11806 0.43667 0.5031 0.0
C2343 C 0.07952 0.56045 0.46903 0.0
H2344 H 0.26021 0.60421 0.53682 0.0
H2345 H 0.3092 0.66308 0.4978 0.0
H2346 H 0.26667 0.55662 0.49095 0.0
H2347 H 0.29565 0.61149 0.48065 0.0
H2348 H 1.03898 0.52626 0.44869 0.0
H2349 H 0.10281 0.54672 0.40705 0.0
H2350 H 0.13443 0.59424 0.45124 0.0
H2351 H 0.14463 0.58591 0.42273 0.0
Tb2352 Tb 0.39419 0.71263 0.37701 0.0
C2353 C 0.30695 0.82329 0.37964 0.0
C2354 C 0.33027 0.88446 0.37523 0.0
C2355 C 0.26995 0.86793 0.36561 0.0
C2356 C 0.33461 0.8488 0.38134 0.0
C2357 C 0.27403 0.83276 0.37202 0.0
C2358 C 0.29805 0.89369 0.36718 0.0
C2359 C 0.2516 0.77195 0.37762 0.0
N2360 N 0.31232 0.78915 0.38549 0.0
C2361 C 0.28502 0.76358 0.38476 0.0
C2362 C 0.24614 0.80662 0.37113 0.0
Tb2363 Tb 0.36429 0.7811 0.40002 0.0
N2364 N 0.36499 0.83917 0.38957 0.0
C2365 C 0.3909 0.86509 0.39298 0.0
C2366 C 0.35788 0.91016 0.37787 0.0
C2367 C 0.38818 0.90051 0.38688 0.0
H2368 H 0.28892 0.7366 0.38958 0.0
H2369 H 0.40896 0.92067 0.38953 0.0
H2370 H 0.29428 0.92094 0.36241 0.0
H2371 H 0.23023 0.75152 0.37699 0.0
H2372 H 0.41312 0.85929 0.40095 0.0
H2373 H 0.38182 0.56818 0.39015 0.0
H2374 H 0.35539 0.9379 0.37355 0.0
H2375 H 0.45559 0.74548 0.34983 0.0
H2376 H 0.35956 0.63002 0.3847 0.0
H2377 H 0.51886 0.7337 0.34239 0.0
H2378 H 0.24504 0.8756 0.35956 0.0
H2379 H 0.44781 0.55436 0.38824 0.0
H2380 H 0.51092 0.57576 0.38135 0.0
H2381 H 0.2204 0.81288 0.36544 0.0
H2382 H 0.54939 0.62271 0.36891 0.0
N2383 N 0.41286 0.65362 0.38234 0.0
C2384 C 0.38874 0.62555 0.38505 0.0
C2385 C 0.43829 0.58213 0.38643 0.0
C2386 C 0.46248 0.60993 0.38206 0.0
C2387 C 0.40111 0.58987 0.38762 0.0
C2388 C 0.44858 0.64561 0.37965 0.0
H2389 H 0.5523 0.68147 0.35386 0.0
N2390 N 0.45281 0.7024 0.36704 0.0
C2391 C 0.50555 0.7162 0.35093 0.0
C2392 C 0.46965 0.67142 0.37209 0.0
C2393 C 0.4692 0.7226 0.35523 0.0
C2394 C 0.52441 0.68688 0.35751 0.0
C2395 C 0.50592 0.66294 0.36756 0.0
O2396 O 0.34219 0.69991 0.36782 0.0
O2397 O 0.35858 0.76176 0.37535 0.0
O2398 O 0.33148 0.73251 0.41171 0.0
O2399 O 0.35824 0.68487 0.39836 0.0
O2400 O 0.39735 0.75767 0.35914 0.0
O2401 O 0.3908 0.67976 0.35671 0.0
O2402 O 0.32108 0.77789 0.41626 0.0
O2403 O 0.38961 0.73012 0.40007 0.0
O2404 O 0.44848 0.74663 0.38201 0.0
O2405 O 0.42583 0.79867 0.39409 0.0
O2406 O 0.41216 0.76805 0.41492 0.0
O2407 O 0.36055 0.8214 0.41755 0.0
C2408 C 0.36916 0.77741 0.36228 0.0
C2409 C 0.3402 0.6923 0.3403 0.0
C2410 C 0.29188 0.68361 0.32074 0.0
C2411 C 0.30799 0.67513 0.3354 0.0
C2412 C 0.30738 0.71217 0.31177 0.0
C2413 C 0.35733 0.71752 0.33028 0.0
C2414 C 0.34031 0.72827 0.31636 0.0
C2415 C 0.33346 0.6956 0.40998 0.0
C2416 C 0.35553 0.68262 0.35576 0.0
C2417 C 0.52139 0.62934 0.37199 0.0
C2418 C 0.4995 0.60259 0.37904 0.0
C2419 C 0.41366 0.73439 0.41042 0.0
C2420 C 0.33984 0.79479 0.44141 0.0
C2421 C 0.37323 0.80281 0.44844 0.0
C2422 C 0.3765 0.8027 0.46477 0.0
C2423 C 0.34819 0.7886 0.4741 0.0
C2424 C 0.31155 0.77989 0.45062 0.0
C2425 C 0.31624 0.77579 0.4669 0.0
C2426 C 0.45555 0.78091 0.38769 0.0
C2427 C 0.33419 0.80412 0.42478 0.0
H2428 H 0.29714 0.65348 0.34274 0.0
H2429 H 0.29512 0.72103 0.30084 0.0
H2430 H 0.38335 0.72959 0.3333 0.0
H2431 H 0.35282 0.74908 0.30908 0.0
H2432 H 0.3952 0.81461 0.44148 0.0
H2433 H 0.3499 0.78959 0.48682 0.0
H2434 H 0.28568 0.77244 0.44532 0.0
H2435 H 0.29416 0.76506 0.47403 0.0
Tb2436 Tb 0.18257 0.64019 0.13226 0.0
C2437 C 1.0686 0.56012 0.12698 0.0
C2438 C 1.01046 0.58534 0.11868 0.0
C2439 C 1.02923 0.52521 0.10946 0.0
C2440 C 1.04339 0.58841 0.12722 0.0
C2441 C 1.06181 0.52822 0.11809 0.0
C2442 C 1.00365 0.55373 0.10973 0.0
C2443 C 0.12096 0.50558 0.12608 0.0
N2444 N 0.1005 0.5646 0.1349 0.0
C2445 C 0.12658 0.53779 0.13464 0.0
C2446 C 0.08839 0.50068 0.11782 0.0
Tb2447 Tb 0.10362 0.61549 0.15046 0.0
N2448 N 1.05095 0.61868 0.13593 0.0
C2449 C 1.02509 0.64553 0.13759 0.0
C2450 C 0.98512 0.61392 0.11953 0.0
C2451 C 0.9923 0.64394 0.12918 0.0
H2452 H 0.15183 0.54089 0.14097 0.0
H2453 H 0.97222 0.66552 0.13042 0.0
H2454 H 0.97862 0.55102 0.10303 0.0
H2455 H 0.14179 0.48454 0.12587 0.0
H2456 H 1.02872 0.66773 0.14583 0.0
H2457 H 0.31149 0.67714 0.1592 0.0
H2458 H 0.95953 0.61261 0.11314 0.0
H2459 H 0.13451 0.68267 0.103 0.0
H2460 H 0.25619 0.64093 0.15571 0.0
H2461 H 0.14106 0.73642 0.08633 0.0
H2462 H 1.02369 0.50105 0.10246 0.0
H2463 H 0.31997 0.73454 0.14432 0.0
H2464 H 0.29624 0.77883 0.1244 0.0
H2465 H 0.08425 0.47582 0.11109 0.0
H2466 H 0.2503 0.79453 0.10443 0.0
N2467 N 0.23235 0.67617 0.13855 0.0
C2468 C 0.25893 0.66545 0.14892 0.0
C2469 C 0.29551 0.71833 0.14253 0.0
C2470 C 0.26874 0.72918 0.13182 0.0
C2471 C 0.29082 0.686 0.15094 0.0
C2472 C 0.23764 0.70674 0.12973 0.0
H2473 H 0.19312 0.7785 0.08997 0.0
N2474 N 0.18436 0.69121 0.1158 0.0
C2475 C 0.16172 0.73041 0.09506 0.0
C2476 C 0.21278 0.71463 0.11803 0.0
C2477 C 0.15875 0.69908 0.1044 0.0
C2478 C 0.19097 0.75419 0.09722 0.0
C2479 C 0.21692 0.74655 0.10879 0.0
O2480 O 0.23512 0.62547 0.12355 0.0
O2481 O 0.12781 0.61819 0.12686 0.0
O2482 O 0.14903 0.57948 0.16376 0.0
O2483 O 0.20181 0.60722 0.15532 0.0
O2484 O 0.1607 0.62465 0.10847 0.0
O2485 O 0.19197 0.58609 0.12487 0.0
O2486 O 0.09099 0.56958 0.16445 0.0
O2487 O 0.15555 0.63681 0.1539 0.0
O2488 O 0.14951 0.69601 0.13533 0.0
O2489 O 0.09184 0.6779 0.14401 0.0
O2490 O 0.1149 0.66002 0.16741 0.0
O2491 O 1.06109 0.62028 0.16673 0.0
C2492 C 0.12775 0.61381 0.11144 0.0
C2493 C 0.25151 0.56223 0.12755 0.0
C2494 C 0.2843 0.50464 0.12235 0.0
C2495 C 0.26332 0.53496 0.11705 0.0
C2496 C 0.28937 0.50039 0.13866 0.0
C2497 C 0.26248 0.55973 0.14333 0.0
C2498 C 0.27971 0.52835 0.14895 0.0
C2499 C 0.18652 0.58099 0.16495 0.0
C2500 C 0.2263 0.59123 0.12175 0.0
C2501 C 0.24679 0.76989 0.11137 0.0
C2502 C 0.27281 0.76107 0.12279 0.0
C2503 C 0.14944 0.6602 0.16448 0.0
C2504 C 1.02749 0.56521 0.16983 0.0
C2505 C 0.99498 0.58511 0.17014 0.0
C2506 C 0.96411 0.57031 0.17742 0.0
C2507 C 0.9625 0.53261 0.18034 0.0
C2508 C 1.0262 0.5273 0.1726 0.0
C2509 C 0.99317 0.51082 0.17714 0.0
C2510 C 0.11399 0.70574 0.13879 0.0
C2511 C 1.0623 0.58558 0.17029 0.0
H2512 H 0.25751 0.53889 0.10469 0.0
H2513 H 0.30306 0.47669 0.14349 0.0
H2514 H 0.25829 0.58158 0.15147 0.0
H2515 H 0.28671 0.52609 0.16127 0.0
H2516 H 0.99563 0.61445 0.16813 0.0
H2517 H 0.93896 0.52074 0.18616 0.0
H2518 H 1.05088 0.51093 0.17216 0.0
H2519 H 0.9924 0.4818 0.17967 0.0
Tb2520 Tb 0.25104 0.43078 0.87739 0.0
C2521 C 0.33048 0.31253 0.87766 0.0
C2522 C 0.30235 0.25372 0.87262 0.0
C2523 C 0.36355 0.26619 0.8628 0.0
C2524 C 0.30096 0.28914 0.87924 0.0
C2525 C 0.3624 0.30107 0.86971 0.0
C2526 C 0.33354 0.24261 0.86422 0.0
C2527 C 0.38978 0.3594 0.87608 0.0
N2528 N 0.32799 0.34651 0.88404 0.0
C2529 C 0.35723 0.36989 0.8835 0.0
C2530 C 0.3923 0.32493 0.86905 0.0
Tb2531 Tb 0.2772 0.35765 0.89902 0.0
N2532 N 0.27179 0.30037 0.88795 0.0
C2533 C 0.24472 0.27584 0.89163 0.0
C2534 C 0.273 0.22995 0.87516 0.0
C2535 C 0.24431 0.2409 0.88491 0.0
H2536 H 0.35555 0.39665 0.88881 0.0
H2537 H 0.22235 0.22205 0.88762 0.0
H2538 H 0.33511 0.21545 0.85914 0.0
H2539 H 0.41275 0.37804 0.87565 0.0
H2540 H 0.2237 0.28246 0.90012 0.0
H2541 H 0.26447 0.57367 0.8933 0.0
H2542 H 0.27297 0.2026 0.87022 0.0
H2543 H 0.18923 0.40097 0.84981 0.0
H2544 H 0.28623 0.51233 0.88662 0.0
H2545 H 0.12634 0.41443 0.84248 0.0
H2546 H 0.38767 0.25701 0.85651 0.0
H2547 H 0.19859 0.58817 0.89185 0.0
H2548 H 0.13529 0.56799 0.88467 0.0
H2549 H 0.41737 0.31705 0.86314 0.0
H2550 H 0.09662 0.5229 0.87116 0.0
N2551 N 0.23276 0.48937 0.88386 0.0
C2552 C 0.2571 0.51694 0.8871 0.0
C2553 C 0.20788 0.56055 0.88947 0.0
C2554 C 0.18348 0.53343 0.88459 0.0
C2555 C 0.24501 0.55242 0.89039 0.0
C2556 C 0.19714 0.49798 0.88138 0.0
H2557 H 0.09343 0.46599 0.85483 0.0
N2558 N 0.19264 0.44279 0.86757 0.0
C2559 C 0.13981 0.43103 0.85129 0.0
C2560 C 0.17599 0.47333 0.87323 0.0
C2561 C 0.17601 0.42372 0.8555 0.0
C2562 C 0.12123 0.45994 0.85837 0.0
C2563 C 0.13984 0.48259 0.8689 0.0
O2564 O 0.30377 0.44514 0.86958 0.0
O2565 O 0.2838 0.37986 0.87496 0.0
O2566 O 0.31198 0.40504 0.91086 0.0
O2567 O 0.28771 0.45595 0.89896 0.0
O2568 O 0.2482 0.38921 0.85799 0.0
O2569 O 0.25619 0.46399 0.85724 0.0
O2570 O 0.3236 0.35386 0.9133 0.0
O2571 O 0.25483 0.40985 0.9 0.0
O2572 O 0.19582 0.39845 0.88223 0.0
O2573 O 0.21474 0.34346 0.89293 0.0
O2574 O 0.23151 0.37226 0.91488 0.0
O2575 O 0.27741 0.31874 0.91725 0.0
C2576 C 0.27377 0.36645 0.86138 0.0
C2577 C 0.31091 0.45691 0.84246 0.0
C2578 C 0.36248 0.47351 0.82537 0.0
C2579 C 0.34202 0.47792 0.8394 0.0
C2580 C 0.35185 0.44539 0.81495 0.0
C2581 C 0.29891 0.43174 0.83117 0.0
C2582 C 0.31997 0.42525 0.81773 0.0
C2583 C 0.31186 0.4424 0.91012 0.0
C2584 C 0.29165 0.46302 0.85746 0.0
C2585 C 0.12454 0.51571 0.87409 0.0
C2586 C 0.14654 0.54139 0.88176 0.0
C2587 C 0.23128 0.40613 0.91066 0.0
C2588 C 0.30947 0.34136 0.93954 0.0
C2589 C 0.2835 0.32686 0.94967 0.0
C2590 C 0.28524 0.33344 0.96581 0.0
C2591 C 0.31213 0.35647 0.97202 0.0
C2592 C 0.3367 0.36463 0.94568 0.0
C2593 C 0.33758 0.37258 0.96183 0.0
C2594 C 0.18638 0.36393 0.887 0.0
C2595 C 0.30835 0.33089 0.92283 0.0
H2596 H 0.34851 0.49916 0.8478 0.0
H2597 H 0.3672 0.4396 0.80435 0.0
H2598 H 0.2739 0.41649 0.83285 0.0
H2599 H 0.31152 0.40446 0.80945 0.0
H2600 H 0.26282 0.30829 0.94516 0.0
H2601 H 0.31402 0.36103 0.98459 0.0
H2602 H 0.35747 0.37623 0.93808 0.0
H2603 H 0.35866 0.3903 0.96648 0.0
Tb2604 Tb 0.45604 0.49732 0.63034 0.0
C2605 C 0.56322 0.58658 0.6268 0.0
C2606 C 0.62565 0.56755 0.62175 0.0
C2607 C 0.6022 0.62318 0.60973 0.0
C2608 C 0.59143 0.56183 0.62904 0.0
C2609 C 0.56816 0.61732 0.61698 0.0
C2610 C 0.63092 0.59845 0.61218 0.0
C2611 C 0.5052 0.63373 0.62197 0.0
N2612 N 0.5304 0.57952 0.63364 0.0
C2613 C 0.50173 0.60305 0.63171 0.0
C2614 C 0.53855 0.6409 0.61456 0.0
Tb2615 Tb 0.52924 0.53064 0.65032 0.0
N2616 N 0.58505 0.53182 0.63808 0.0
C2617 C 0.61259 0.5073 0.6409 0.0
C2618 C 0.65339 0.54179 0.62412 0.0
C2619 C 0.64685 0.51162 0.63379 0.0
H2620 H 0.47614 0.59837 0.63764 0.0
H2621 H 0.66839 0.49198 0.63599 0.0
H2622 H 0.65703 0.6033 0.60654 0.0
H2623 H 0.48222 0.65199 0.6203 0.0
H2624 H 0.60883 0.48497 0.64906 0.0
H2625 H 0.31596 0.4771 0.64795 0.0
H2626 H 0.67998 0.5451 0.61865 0.0
H2627 H 0.50401 0.44959 0.60273 0.0
H2628 H 0.37326 0.51081 0.64526 0.0
H2629 H 0.50141 0.38916 0.59045 0.0
H2630 H 0.60653 0.64661 0.60214 0.0
H2631 H 0.31245 0.41221 0.63992 0.0
H2632 H 0.34304 0.35766 0.62787 0.0
H2633 H 0.54115 0.66468 0.60702 0.0
H2634 H 0.39422 0.33351 0.6122 0.0
N2635 N 0.40387 0.4653 0.63644 0.0
C2636 C 0.37322 0.48217 0.64229 0.0
C2637 C 0.33811 0.42683 0.63883 0.0
C2638 C 0.36889 0.41005 0.63227 0.0
C2639 C 0.34001 0.4634 0.64341 0.0
C2640 C 0.40126 0.43076 0.63057 0.0
H2641 H 0.45267 0.34556 0.59774 0.0
N2642 N 0.45687 0.44132 0.61738 0.0
C2643 C 0.48082 0.39696 0.59898 0.0
C2644 C 0.42896 0.41812 0.62093 0.0
C2645 C 0.48165 0.43174 0.60583 0.0
C2646 C 0.45348 0.37233 0.60323 0.0
C2647 C 0.42652 0.38309 0.61395 0.0
O2648 O 0.41172 0.50249 0.61478 0.0
O2649 O 0.50934 0.52387 0.6263 0.0
O2650 O 0.47998 0.56332 0.66248 0.0
O2651 O 0.43067 0.53246 0.65216 0.0
O2652 O 0.48273 0.50975 0.60713 0.0
O2653 O 0.43842 0.55019 0.62409 0.0
O2654 O 0.53094 0.57798 0.6643 0.0
O2655 O 0.47895 0.50466 0.65267 0.0
O2656 O 0.49213 0.44432 0.63528 0.0
O2657 O 0.54657 0.46878 0.64481 0.0
O2658 O 0.51991 0.48555 0.66713 0.0
O2659 O 0.5718 0.53567 0.66655 0.0
C2660 C 0.51238 0.52604 0.61093 0.0
C2661 C 0.41584 0.55414 0.59823 0.0
C2662 C 0.4033 0.60576 0.5809 0.0
C2663 C 0.40331 0.59006 0.59601 0.0
C2664 C 0.41882 0.58582 0.56829 0.0
C2665 C 0.42862 0.53395 0.58523 0.0
C2666 C 0.43126 0.55022 0.57049 0.0
C2667 C 0.44274 0.55931 0.66252 0.0
C2668 C 0.41456 0.53792 0.61407 0.0
C2669 C 0.39633 0.36065 0.61728 0.0
C2670 C 0.36728 0.37431 0.62626 0.0
C2671 C 0.48574 0.48232 0.66359 0.0
C2672 C 0.55215 0.56465 0.68981 0.0
C2673 C 0.57737 0.54537 0.69866 0.0
C2674 C 0.57136 0.53818 0.71458 0.0
C2675 C 0.54006 0.552 0.72204 0.0
C2676 C 0.52113 0.57951 0.6973 0.0
C2677 C 0.51534 0.57335 0.71342 0.0
C2678 C 0.52776 0.43838 0.63954 0.0
C2679 C 0.55781 0.56536 0.67268 0.0
H2680 H 0.39194 0.60505 0.60589 0.0
H2681 H 0.41889 0.59646 0.5564 0.0
H2682 H 0.43659 0.50555 0.58637 0.0
H2683 H 0.44164 0.53467 0.56061 0.0
H2684 H 0.601 0.5336 0.69278 0.0
H2685 H 0.53479 0.54618 0.73434 0.0
H2686 H 0.50107 0.595 0.69074 0.0
H2687 H 0.4912 0.5843 0.71911 0.0
H2688 H 0.29766 0.4012 0.45964 0.0
H2689 H 0.24041 0.31033 0.48064 0.0
H2690 H 0.18629 0.34841 0.48406 0.0
H2691 H 0.15504 0.40758 0.48024 0.0
H2692 H 0.21261 0.49764 0.45912 0.0
H2693 H 0.26515 0.45794 0.45401 0.0
C2694 C 0.27351 0.39013 0.46537 0.0
C2695 C 0.27297 0.35332 0.4701 0.0
C2696 C 0.242 0.41129 0.46629 0.0
C2697 C 0.24178 0.33899 0.47743 0.0
C2698 C 0.21058 0.36056 0.47905 0.0
C2699 C 0.17955 0.41879 0.47515 0.0
C2700 C 0.18155 0.45597 0.47134 0.0
C2701 C 0.21038 0.39666 0.47343 0.0
C2702 C 0.21155 0.46935 0.46288 0.0
C2703 C 0.24149 0.44679 0.46004 0.0
H2704 H 1.0079 1.03581 0.71005 0.0
H2705 H 0.09195 0.96244 0.72615 0.0
H2706 H 1.04736 0.9122 0.72705 0.0
H2707 H 0.98261 0.89199 0.72607 0.0
H2708 H 0.90002 0.96631 0.70975 0.0
H2709 H 0.94683 1.01243 0.70418 0.0
C2710 C 1.01594 1.00908 0.71446 0.0
C2711 C 1.05209 1.00302 0.71924 0.0
C2712 C 0.99077 0.98066 0.71451 0.0
C2713 C 1.06344 0.96794 0.72364 0.0
C2714 C 1.03815 0.93934 0.72396 0.0
C2715 C 0.97485 0.91885 0.72199 0.0
C2716 C 0.93791 0.92796 0.72013 0.0
C2717 C 1.00146 0.94585 0.72 0.0
C2718 C 0.92827 0.96037 0.71248 0.0
C2719 C 0.95492 0.98652 0.70932 0.0
H2720 H 0.36489 0.76772 0.96576 0.0
H2721 H 0.4496 0.84729 0.97369 0.0
H2722 H 0.4955 0.7981 0.9746 0.0
H2723 H 0.51 0.73167 0.97396 0.0
H2724 H 0.42373 0.65403 0.96531 0.0
H2725 H 0.38012 0.7038 0.96207 0.0
C2726 C 0.3933 0.77402 0.96835 0.0
C2727 C 0.40395 0.8104 0.97068 0.0
C2728 C 0.41907 0.74621 0.96812 0.0
C2729 C 0.44087 0.81902 0.97291 0.0
C2730 C 0.46697 0.79104 0.97313 0.0
C2731 C 0.48147 0.72581 0.97179 0.0
C2732 C 0.46909 0.6895 0.97119 0.0
C2733 C 0.4562 0.75446 0.97093 0.0
C2734 C 0.43306 0.68189 0.96682 0.0
C2735 C 0.40821 0.71023 0.96501 0.0
H2736 H 0.73504 0.16912 0.21827 0.0
H2737 H 0.65803 0.25704 0.22418 0.0
H2738 H 0.60729 0.2135 0.22394 0.0
H2739 H 0.58565 0.15014 0.22281 0.0
H2740 H 0.66186 1.06364 0.21224 0.0
H2741 H 0.71272 0.10708 0.21325 0.0
C2742 C 0.70718 0.17858 0.21966 0.0
C2743 C 0.70006 0.21537 0.22289 0.0
C2744 C 0.67839 0.15368 0.21877 0.0
C2745 C 0.66394 0.22819 0.223 0.0
C2746 C 0.63504 0.2034 0.22281 0.0
C2747 C 0.61364 0.14061 0.22161 0.0
C2748 C 0.62056 0.10367 0.21836 0.0
C2749 C 0.64218 0.16589 0.22134 0.0
C2750 C 0.65648 0.09178 0.21554 0.0
C2751 C 0.68523 0.1167 0.21567 0.0
H2752 H 0.29085 0.74568 0.17873 0.0
H2753 H 0.22612 0.83545 0.16128 0.0
H2754 H 0.17276 0.7955 0.15979 0.0
H2755 H 0.14513 0.73433 0.16338 0.0
H2756 H 0.2103 0.64594 0.18142 0.0
H2757 H 0.26153 0.68786 0.18542 0.0
C2758 C 0.26523 0.75607 0.17408 0.0
C2759 C 0.26239 0.793 0.16973 0.0
C2760 C 0.23449 0.73379 0.1742 0.0
C2761 C 0.22917 0.80665 0.16403 0.0
C2762 C 0.19855 0.78399 0.16347 0.0
C2763 C 0.17103 0.72402 0.16747 0.0
C2764 C 0.17565 0.68668 0.17052 0.0
C2765 C 0.20101 0.74748 0.16846 0.0
C2766 C 0.20733 0.67433 0.17801 0.0
C2767 C 0.23651 0.69815 0.18022 0.0
H2768 H 0.73807 0.97625 0.41944 0.0
H2769 H 0.6598 0.88918 0.41433 0.0
H2770 H 0.60959 0.93329 0.4153 0.0
H2771 H 0.5886 0.99672 0.41755 0.0
H2772 H 0.66644 0.08241 0.42683 0.0
H2773 H 0.7169 1.03864 0.42444 0.0
C2774 C 0.71005 0.96708 0.41838 0.0
C2775 C 0.70237 0.93027 0.41543 0.0
C2776 C 0.68162 0.99232 0.41968 0.0
C2777 C 0.6661 0.91795 0.41548 0.0
C2778 C 0.63751 0.94307 0.41611 0.0
C2779 C 0.61677 1.00596 0.41823 0.0
C2780 C 0.62431 1.04272 0.42154 0.0
C2781 C 0.64511 0.98046 0.41772 0.0
C2782 C 0.66054 1.05437 0.42355 0.0
C2783 C 0.6891 1.02926 0.42264 0.0
H2784 H 0.41582 0.48602 0.67315 0.0
H2785 H 0.50471 0.41045 0.66668 0.0
H2786 H 0.46194 0.35908 0.66632 0.0
H2787 H 0.39895 0.33664 0.66688 0.0
H2788 H 0.31136 0.41098 0.67826 0.0
H2789 H 0.35416 0.46248 0.67812 0.0
C2790 C 0.42564 0.45831 0.67157 0.0
C2791 C 0.46242 0.45183 0.6682 0.0
C2792 C 0.40119 0.42911 0.67222 0.0
C2793 C 0.47579 0.4159 0.66785 0.0
C2794 C 0.45146 0.38664 0.66774 0.0
C2795 C 0.38903 0.36443 0.66844 0.0
C2796 C 0.352 0.37065 0.67167 0.0
C2797 C 0.4139 0.39323 0.6692 0.0
C2798 C 0.3396 0.40622 0.67497 0.0
C2799 C 0.36415 0.43527 0.67538 0.0
H2800 H 1.01436 0.10946 0.92222 0.0
H2801 H 0.09466 0.19434 0.91602 0.0
H2802 H 1.04597 0.24049 0.91522 0.0
H2803 H 0.97989 0.25554 0.91576 0.0
H2804 H 0.90154 0.1701 0.92446 0.0
H2805 H 0.95109 0.12577 0.92743 0.0
C2806 C 1.02092 0.13795 0.9199 0.0
C2807 C 1.05755 0.14862 0.91848 0.0
C2808 C 0.99345 0.16409 0.92062 0.0
C2809 C 1.06636 0.18558 0.91629 0.0
C2810 C 1.03867 0.21188 0.91621 0.0
C2811 C 0.97376 0.22692 0.91769 0.0
C2812 C 0.93741 0.21483 0.91816 0.0
C2813 C 1.00208 0.2013 0.91824 0.0
C2814 C 0.92948 0.17901 0.92274 0.0
C2815 C 0.9576 0.15374 0.92425 0.0
H2816 H 0.84923 0.74397 0.67858 0.0
H2817 H 0.91375 0.83469 0.66188 0.0
H2818 H 0.96626 0.79404 0.65823 0.0
H2819 H 0.99394 0.73285 0.66107 0.0
H2820 H 0.92843 0.64292 0.6778 0.0
H2821 H 0.87711 0.68431 0.68228 0.0
C2822 C 0.87463 0.75452 0.67372 0.0
C2823 C 0.87778 0.79187 0.67024 0.0
C2824 C 0.90485 0.73166 0.67258 0.0
C2825 C 0.91059 0.80568 0.66413 0.0
C2826 C 0.94075 0.78262 0.66239 0.0
C2827 C 0.96819 0.7222 0.66526 0.0
C2828 C 0.96385 0.68471 0.66812 0.0
C2829 C 0.93825 0.74567 0.6668 0.0
C2830 C 0.93154 0.67158 0.6749 0.0
C2831 C 0.90228 0.69512 0.67738 0.0
H2832 H 0.08152 0.15267 0.4153 0.0
H2833 H 0.15444 1.06213 0.4235 0.0
H2834 H 0.20691 0.10358 0.4232 0.0
H2835 H 0.23151 0.16519 0.41969 0.0
H2836 H 0.15802 0.25668 0.41609 0.0
H2837 H 0.10558 0.21515 0.41555 0.0
C2838 C 0.10914 0.14189 0.41602 0.0
C2839 C 0.11463 0.10444 0.41859 0.0
C2840 C 0.13864 0.16597 0.41674 0.0
C2841 C 0.15013 0.09076 0.42074 0.0
C2842 C 0.17981 0.11451 0.42106 0.0
C2843 C 0.20405 0.17589 0.41859 0.0
C2844 C 0.19835 0.21325 0.41627 0.0
C2845 C 0.17435 0.15205 0.4189 0.0
C2846 C 0.16278 0.22749 0.41661 0.0
C2847 C 0.13294 0.20386 0.41629 0.0
H2848 H 0.72123 0.49024 0.17091 0.0
H2849 H 0.63303 0.41334 0.16576 0.0
H2850 H 0.67636 0.36236 0.1666 0.0
H2851 H 0.73962 0.34043 0.16836 0.0
H2852 H 0.82645 0.41722 0.17734 0.0
H2853 H 0.78322 0.46821 0.17558 0.0
C2854 C 0.71163 0.46237 0.16979 0.0
C2855 C 0.67476 0.45528 0.16682 0.0
C2856 C 0.73643 0.43355 0.17091 0.0
C2857 C 0.66187 0.41917 0.16691 0.0
C2858 C 0.68655 0.39015 0.16744 0.0
C2859 C 0.74921 0.36849 0.1691 0.0
C2860 C 0.78617 0.37557 0.17213 0.0
C2861 C 0.72406 0.3972 0.16888 0.0
C2862 C 0.79825 0.41167 0.17426 0.0
C2863 C 0.77347 0.44054 0.1737 0.0
H2864 H 0.48835 0.89733 0.91191 0.0
H2865 H 0.40299 0.97443 0.92299 0.0
H2866 H 0.44778 1.0235 0.92477 0.0
H2867 H 0.50974 1.04519 0.92099 0.0
H2868 H 0.59667 0.96878 0.91163 0.0
H2869 H 0.55208 0.91909 0.9091 0.0
C2870 C 0.47955 0.92506 0.91419 0.0
C2871 C 0.44233 0.93309 0.9161 0.0
C2872 C 0.50521 0.9534 0.91434 0.0
C2873 C 0.43138 0.96827 0.9206 0.0
C2874 C 0.45688 0.99626 0.92156 0.0
C2875 C 0.5186 1.01783 0.91772 0.0
C2876 C 0.55599 1.01045 0.91613 0.0
C2877 C 0.49343 0.98939 0.91768 0.0
C2878 C 0.56775 0.97505 0.91231 0.0
C2879 C 0.54236 0.9466 0.9113 0.0
H2880 H 0.85148 0.40783 0.95526 0.0
H2881 H 0.90017 0.31676 0.97978 0.0
H2882 H 0.95523 0.35283 0.98439 0.0
H2883 H 0.98905 0.41068 0.98119 0.0
H2884 H 0.93939 0.50148 0.95731 0.0
H2885 H 0.88684 0.46322 0.95042 0.0
C2886 C 0.87406 0.39618 0.96186 0.0
C2887 C 0.87184 0.36007 0.96743 0.0
C2888 C 0.906 0.41624 0.96368 0.0
C2889 C 0.90093 0.34501 0.97593 0.0
C2890 C 0.93266 0.36538 0.97824 0.0
C2891 C 0.96624 0.42236 0.97503 0.0
C2892 C 0.96614 0.45942 0.97095 0.0
C2893 C 0.93539 0.40101 0.97219 0.0
C2894 C 0.93864 0.47334 0.96124 0.0
C2895 C 0.90879 0.45157 0.95736 0.0
H2896 H 0.50979 0.09928 0.71537 0.0
H2897 H 0.59631 0.17601 0.72468 0.0
H2898 H 0.55118 0.22519 0.72818 0.0
H2899 H 0.48652 0.24568 0.72774 0.0
H2900 H 0.40167 0.16781 0.71711 0.0
H2901 H 0.44715 0.12005 0.71326 0.0
C2902 C 0.51851 0.12658 0.71879 0.0
C2903 C 0.55577 0.13405 0.72059 0.0
C2904 C 0.49292 0.15454 0.71975 0.0
C2905 C 0.56742 0.16961 0.72414 0.0
C2906 C 0.54171 0.19769 0.72579 0.0
C2907 C 0.4781 0.21807 0.72498 0.0
C2908 C 0.44088 0.20934 0.72379 0.0
C2909 C 0.50436 0.19042 0.72351 0.0
C2910 C 0.43016 0.17441 0.7189 0.0
C2911 C 0.45608 0.14718 0.71671 0.0
H2912 H 0.73684 0.80368 0.47318 0.0
H2913 H 0.82481 0.72867 0.4633 0.0
H2914 H 0.78213 0.67709 0.46406 0.0
H2915 H 0.72042 0.65376 0.46906 0.0
H2916 H 0.6312 0.72955 0.47418 0.0
H2917 H 0.67385 0.78104 0.47392 0.0
C2918 C 0.7468 0.7758 0.47204 0.0
C2919 C 0.78394 0.76939 0.46913 0.0
C2920 C 0.72203 0.74684 0.47168 0.0
C2921 C 0.79646 0.73364 0.46636 0.0
C2922 C 0.77202 0.70448 0.46635 0.0
C2923 C 0.71049 0.68154 0.47024 0.0
C2924 C 0.67357 0.68816 0.47329 0.0
C2925 C 0.73489 0.71076 0.46929 0.0
C2926 C 0.66016 0.72409 0.47317 0.0
C2927 C 0.68443 0.75341 0.47295 0.0
H2928 H 0.23369 0.97919 0.22259 0.0
H2929 H 0.16187 0.88598 0.22408 0.0
H2930 H 0.10859 0.9263 0.2245 0.0
H2931 H 0.08306 0.98805 0.22477 0.0
H2932 H 0.15412 0.0806 0.21783 0.0
H2933 H 0.20775 1.04048 0.2189 0.0
C2934 C 0.20637 0.96786 0.22312 0.0
C2935 C 0.2013 0.93019 0.22483 0.0
C2936 C 0.17612 0.99105 0.22245 0.0
C2937 C 0.16606 0.91528 0.22398 0.0
C2938 C 0.13571 0.93823 0.22418 0.0
C2939 C 0.11044 0.99952 0.22439 0.0
C2940 C 0.11513 1.03715 0.22209 0.0
C2941 C 0.14058 0.97622 0.22399 0.0
C2942 C 0.15039 1.05178 0.22038 0.0
C2943 C 0.18076 1.02881 0.22051 0.0
H2944 H 0.65466 0.90672 0.98168 0.0
H2945 H 0.71318 0.99698 0.96104 0.0
H2946 H 0.76494 0.95663 0.95538 0.0
H2947 H 0.79576 0.89815 0.95939 0.0
H2948 H 0.7388 0.80828 0.98117 0.0
H2949 H 0.68525 0.84743 0.98537 0.0
C2950 C 0.67917 0.91796 0.97658 0.0
C2951 C 0.68151 0.95527 0.9729 0.0
C2952 C 0.70955 0.89536 0.97451 0.0
C2953 C 0.71177 0.96857 0.96459 0.0
C2954 C 0.74123 0.94562 0.96141 0.0
C2955 C 0.7719 0.88769 0.96556 0.0
C2956 C 0.77123 0.85114 0.97058 0.0
C2957 C 0.74106 0.90962 0.96712 0.0
C2958 C 0.74011 0.83694 0.97794 0.0
C2959 C 0.70936 0.85906 0.97997 0.0
H2960 H 0.40103 0.47377 0.21956 0.0
H2961 H 0.4781 0.38578 0.22506 0.0
H2962 H 0.52889 0.42921 0.22439 0.0
H2963 H 0.55062 0.49254 0.22292 0.0
H2964 H 0.4742 0.5791 0.21285 0.0
H2965 H 0.42328 0.53572 0.21426 0.0
C2966 C 0.42894 0.46427 0.22073 0.0
C2967 C 0.43611 0.42751 0.22394 0.0
C2968 C 0.45774 0.4891 0.21954 0.0
C2969 C 0.4722 0.41463 0.22388 0.0
C2970 C 0.50113 0.43935 0.22341 0.0
C2971 C 0.5226 0.50205 0.22185 0.0
C2972 C 0.51559 0.53899 0.2187 0.0
C2973 C 0.49402 0.47683 0.22185 0.0
C2974 C 0.47964 0.55091 0.21606 0.0
C2975 C 0.45085 0.52606 0.21643 0.0
H2976 H 0.98753 0.23504 0.47986 0.0
H2977 H 0.91746 0.14463 0.46797 0.0
H2978 H 0.86596 0.18606 0.46473 0.0
H2979 H 0.84018 0.24703 0.46696 0.0
H2980 H 0.90944 0.33878 0.4779 0.0
H2981 H 0.96147 0.29759 0.48147 0.0
C2982 C 0.96075 0.22455 0.47701 0.0
C2983 C 0.95539 0.18687 0.47523 0.0
C2984 C 0.93097 0.2484 0.47589 0.0
C2985 C 0.92152 0.17345 0.4702 0.0
C2986 C 0.89215 0.19707 0.46835 0.0
C2987 C 0.86645 0.25765 0.47078 0.0
C2988 C 0.87117 0.29545 0.47254 0.0
C2989 C 0.89629 0.23425 0.47182 0.0
C2990 C 0.90517 0.30949 0.47709 0.0
C2991 C 0.93501 0.28602 0.47877 0.0
H2992 H 0.14361 0.59005 0.71837 0.0
H2993 H 1.05145 0.65855 0.72966 0.0
H2994 H 0.09218 0.71082 0.73342 0.0
H2995 H 0.15426 0.73761 0.73142 0.0
H2996 H 0.24509 0.66855 0.71895 0.0
H2997 H 0.20421 0.61653 0.71589 0.0
C2998 C 0.13281 0.61619 0.72233 0.0
C2999 C 0.09498 0.62064 0.72406 0.0
C3000 C 0.15592 0.64628 0.72335 0.0
C3001 C 0.08073 0.65447 0.72883 0.0
C3002 C 0.10395 0.68448 0.73059 0.0
C3003 C 0.16502 0.71091 0.72856 0.0
C3004 C 0.20269 0.706 0.72657 0.0
C3005 C 0.14151 0.68083 0.72755 0.0
C3006 C 0.21633 0.67227 0.7214 0.0
C3007 C 0.19302 0.64259 0.71965 0.0
H3008 H 0.71846 0.15164 0.6711 0.0
H3009 H 0.63311 0.23131 0.66498 0.0
H3010 H 0.6779 0.28087 0.66588 0.0
H3011 H 0.74177 0.30072 0.66739 0.0
H3012 H 0.82569 0.22189 0.67811 0.0
H3013 H 0.78078 0.17226 0.67695 0.0
C3014 C 0.70983 0.17985 0.66986 0.0
C3015 C 0.67354 0.18808 0.66623 0.0
C3016 C 0.73539 0.208 0.67128 0.0
C3017 C 0.6617 0.22456 0.66632 0.0
C3018 C 0.68718 0.2528 0.66695 0.0
C3019 C 0.75041 0.27244 0.66865 0.0
C3020 C 0.78705 0.2644 0.67192 0.0
C3021 C 0.72434 0.2446 0.66872 0.0
C3022 C 0.79777 0.22812 0.67482 0.0
C3023 C 0.77201 0.20009 0.67464 0.0
H3024 H 0.24131 0.47667 0.91879 0.0
H3025 H 0.1587 0.39366 0.91414 0.0
H3026 H 0.11068 0.44 0.91602 0.0
H3027 H 0.09283 0.50399 0.9191 0.0
H3028 H 0.17485 0.5853 0.92884 0.0
H3029 H 0.22326 0.53974 0.92488 0.0
C3030 C 0.21282 0.46894 0.91794 0.0
C3031 C 0.20313 0.43267 0.91481 0.0
C3032 C 0.18568 0.49539 0.9199 0.0
C3033 C 0.16637 0.4221 0.91529 0.0
C3034 C 0.13907 0.44846 0.91647 0.0
C3035 C 0.12142 0.51194 0.91953 0.0
C3036 C 0.13077 0.54795 0.92339 0.0
C3037 C 0.14853 0.48532 0.91831 0.0
C3038 C 0.16756 0.5579 0.92511 0.0
C3039 C 0.19496 0.53173 0.92331 0.0
H3040 H 0.9088 0.98733 0.16717 0.0
H3041 H 0.99657 0.90906 0.16568 0.0
H3042 H 0.95259 0.85867 0.16598 0.0
H3043 H 0.88941 0.83759 0.16622 0.0
H3044 H 0.8023 0.91517 0.17327 0.0
H3045 H 0.84586 0.96596 0.17116 0.0
C3046 C 0.91814 0.95926 0.16667 0.0
C3047 C 0.95531 0.95143 0.16484 0.0
C3048 C 0.89287 0.93076 0.16766 0.0
C3049 C 0.96766 0.91526 0.16585 0.0
C3050 C 0.94263 0.88662 0.16607 0.0
C3051 C 0.87984 0.86573 0.1664 0.0
C3052 C 0.84278 0.87309 0.16904 0.0
C3053 C 0.90513 0.89419 0.16637 0.0
C3054 C 0.83062 0.90936 0.17046 0.0
C3055 C 0.85559 0.93812 0.16976 0.0
H3056 H 0.5562 0.64091 0.41588 0.0
H3057 H 0.47713 0.55596 0.42452 0.0
H3058 H 0.42723 0.60022 0.42188 0.0
H3059 H 0.40686 0.66313 0.41738 0.0
H3060 H 0.48643 0.74928 0.41297 0.0
H3061 H 0.53599 0.70449 0.41354 0.0
C3062 C 0.52792 0.63192 0.41631 0.0
C3063 C 0.51991 0.59528 0.41967 0.0
C3064 C 0.49985 0.65772 0.41569 0.0
C3065 C 0.48345 0.58392 0.42126 0.0
C3066 C 0.45518 0.60933 0.42023 0.0
C3067 C 0.43503 0.67194 0.41639 0.0
C3068 C 0.44324 0.7088 0.4138 0.0
C3069 C 0.46315 0.64627 0.4175 0.0
C3070 C 0.4797 0.72056 0.41384 0.0
C3071 C 0.50794 0.69504 0.41425 0.0
H3072 H 0.39414 0.30848 0.16728 0.0
H3073 H 0.3086 0.23071 0.17713 0.0
H3074 H 0.35265 0.18043 0.1758 0.0
H3075 H 0.41498 0.1591 0.17109 0.0
H3076 H 0.50184 0.23721 0.1652 0.0
H3077 H 0.45772 0.28749 0.16564 0.0
C3078 C 0.38496 0.28031 0.16825 0.0
C3079 C 0.34815 0.27282 0.1715 0.0
C3080 C 0.41058 0.252 0.16823 0.0
C3081 C 0.33667 0.23659 0.1739 0.0
C3082 C 0.36194 0.20814 0.17361 0.0
C3083 C 0.42409 0.18708 0.1697 0.0
C3084 C 0.46079 0.19462 0.16653 0.0
C3085 C 0.39883 0.21557 0.17063 0.0
C3086 C 0.4731 0.23094 0.16638 0.0
C3087 C 0.44797 0.25958 0.1667 0.0
H3088 H 0.59424 0.65271 0.9179 0.0
H3089 H 0.67177 0.56736 0.92823 0.0
H3090 H 0.72217 0.61136 0.92658 0.0
H3091 H 0.74363 0.67351 0.92087 0.0
H3092 H 0.66528 0.76038 0.91536 0.0
H3093 H 0.61509 0.7163 0.91636 0.0
C3094 C 0.62238 0.64361 0.91901 0.0
C3095 C 0.62991 0.60681 0.9222 0.0
C3096 C 0.65064 0.6692 0.91891 0.0
C3097 C 0.66598 0.59543 0.92495 0.0
C3098 C 0.69447 0.62063 0.92442 0.0
C3099 C 0.71558 0.68261 0.91976 0.0
C3100 C 0.70786 0.71924 0.91646 0.0
C3101 C 0.6871 0.65744 0.92115 0.0
C3102 C 0.67159 0.73163 0.91661 0.0
C3103 C 0.64301 0.70655 0.91726 0.0
H3104 H 0.2839 0.8759 0.67198 0.0
H3105 H 0.19945 0.79501 0.66638 0.0
H3106 H 0.1534 0.84358 0.66409 0.0
H3107 H 0.13794 0.90954 0.66453 0.0
H3108 H 0.22325 0.989 0.67173 0.0
H3109 H 0.26803 0.94007 0.6746 0.0
C3110 C 0.25556 0.86914 0.66949 0.0
C3111 C 0.24496 0.83242 0.66849 0.0
C3112 C 0.22949 0.89676 0.66928 0.0
C3113 C 0.20813 0.82336 0.66625 0.0
C3114 C 0.18189 0.85105 0.66531 0.0
C3115 C 0.16653 0.91602 0.66618 0.0
C3116 C 0.17814 0.95257 0.66663 0.0
C3117 C 0.19234 0.88786 0.6669 0.0
C3118 C 0.21438 0.96094 0.67039 0.0
C3119 C 0.2399 0.93308 0.67197 0.0
H3120 H 0.99533 0.54072 0.42651 0.0
H3121 H 0.08414 0.47129 0.41167 0.0
H3122 H 1.0417 0.41993 0.40868 0.0
H3123 H 0.97951 0.39471 0.41183 0.0
H3124 H 0.89169 0.46517 0.42682 0.0
H3125 H 0.93482 0.51525 0.43064 0.0
C3126 C 1.00506 0.51452 0.42213 0.0
C3127 C 1.04238 0.50964 0.41902 0.0
C3128 C 0.98122 0.48502 0.42148 0.0
C3129 C 1.05518 0.47576 0.41359 0.0
C3130 C 1.0311 0.44629 0.41227 0.0
C3131 C 0.96969 0.42132 0.41539 0.0
C3132 C 0.93229 0.4274 0.41784 0.0
C3133 C 0.99416 0.45056 0.41642 0.0
C3134 C 0.92025 0.46072 0.42408 0.0
C3135 C 0.94478 0.48929 0.42618 0.0
H3136 H 0.50691 0.91003 0.47353 0.0
H3137 H 0.41989 0.98677 0.46494 0.0
H3138 H 0.37674 0.93633 0.46181 0.0
H3139 H 0.36197 0.87237 0.4662 0.0
H3140 H 0.44792 0.79384 0.47362 0.0
H3141 H 0.49314 0.84359 0.4745 0.0
C3142 C 0.47824 0.91562 0.47155 0.0
C3143 C 0.46548 0.95182 0.47101 0.0
C3144 C 0.45326 0.88671 0.47091 0.0
C3145 C 0.42944 0.95899 0.46656 0.0
C3146 C 0.40484 0.93032 0.46489 0.0
C3147 C 0.39049 0.86643 0.4687 0.0
C3148 C 0.4017 0.83013 0.47081 0.0
C3149 C 0.41599 0.89453 0.46825 0.0
C3150 C 0.43877 0.822 0.47296 0.0
C3151 C 0.4645 0.85029 0.47313 0.0
H3152 H 0.87604 0.70299 0.20438 0.0
H3153 H 0.97848 0.71755 0.22857 0.0
H3154 H 1.00224 0.66161 0.21645 0.0
H3155 H 0.9915 0.60639 0.20137 0.0
H3156 H 0.89299 0.59439 0.1741 0.0
H3157 H 0.86771 0.6499 0.18654 0.0
C3158 C 0.90331 0.69337 0.20714 0.0
C3159 C 0.9252 0.71284 0.21781 0.0
C3160 C 0.91623 0.66092 0.20044 0.0
C3161 C 0.96123 0.70218 0.2206 0.0
C3162 C 0.97452 0.67017 0.21384 0.0
C3163 C 0.96415 0.61565 0.19838 0.0
C3164 C 0.94363 0.59638 0.18715 0.0
C3165 C 0.95164 0.64868 0.20437 0.0
C3166 C 0.90862 0.60851 0.18305 0.0
C3167 C 0.89466 0.64045 0.18992 0.0
H3168 H 0.29961 0.26508 0.97286 0.0
H3169 H 0.21781 0.34914 0.97709 0.0
H3170 H 0.17018 0.30261 0.97973 0.0
H3171 H 0.15198 0.23752 0.97922 0.0
H3172 H 0.23406 0.15451 0.9728 0.0
H3173 H 0.28128 0.20133 0.9707 0.0
C3174 C 0.27153 0.27299 0.97531 0.0
C3175 C 0.26206 0.31011 0.97543 0.0
C3176 C 0.24438 0.24634 0.97563 0.0
C3177 C 0.22562 0.32057 0.97777 0.0
C3178 C 0.1984 0.29398 0.97889 0.0
C3179 C 0.1804 0.22982 0.97801 0.0
C3180 C 0.19029 0.19284 0.97755 0.0
C3181 C 0.20747 0.25679 0.97762 0.0
C3182 C 0.22642 0.18289 0.97423 0.0
C3183 C 0.25334 0.20957 0.97308 0.0
H3184 H 0.64393 0.54375 0.71486 0.0
H3185 H 0.55497 0.47395 0.72917 0.0
H3186 H 0.59739 0.42264 0.73214 0.0
H3187 H 0.65974 0.39752 0.72928 0.0
H3188 H 0.74756 0.4681 0.71446 0.0
H3189 H 0.70466 0.51847 0.71104 0.0
C3190 C 0.63411 0.51744 0.71905 0.0
C3191 C 0.59673 0.51249 0.72201 0.0
C3192 C 0.65803 0.48796 0.71976 0.0
C3193 C 0.58393 0.47849 0.72731 0.0
C3194 C 0.60804 0.44904 0.72866 0.0
C3195 C 0.66956 0.42413 0.72574 0.0
C3196 C 0.70695 0.43009 0.72318 0.0
C3197 C 0.64506 0.45339 0.72468 0.0
C3198 C 0.71904 0.46366 0.71722 0.0
C3199 C 0.69461 0.49239 0.71532 0.0
H3200 H 0.10484 0.25067 0.38874 0.0
H3201 H 0.1617 0.35364 0.38689 0.0
H3202 H 0.10272 0.38561 0.38599 0.0
H3203 H 1.03058 0.38787 0.38537 0.0
H3204 H 0.97411 0.28531 0.39038 0.0
H3205 H 1.03299 0.25329 0.3902 0.0
C3206 C 0.10543 0.28026 0.38823 0.0
C3207 C 0.14225 0.29784 0.38786 0.0
C3208 C 1.06888 0.30015 0.3882 0.0
C3209 C 0.13732 0.33688 0.38722 0.0
C3210 C 0.10205 0.35603 0.38668 0.0
C3211 C 1.03012 0.35845 0.38671 0.0
C3212 C 0.99336 0.34096 0.38801 0.0
C3213 C 1.06673 0.33865 0.38716 0.0
C3214 C 0.9984 0.30203 0.38936 0.0
C3215 C 1.03364 0.28284 0.38927 0.0
H3216 H 1.00359 0.78344 0.63688 0.0
H3217 H 0.10742 0.72845 0.63887 0.0
H3218 H 0.13839 0.78796 0.63814 0.0
H3219 H 0.1395 0.85996 0.63677 0.0
H3220 H 1.03573 0.91511 0.63893 0.0
H3221 H 1.00467 0.85559 0.63828 0.0
C3222 C 1.0331 0.78345 0.63748 0.0
C3223 C 1.05131 0.74695 0.63808 0.0
C3224 C 1.05228 0.82037 0.63771 0.0
C3225 C 0.09023 0.75255 0.63845 0.0
C3226 C 0.10879 0.78812 0.63802 0.0
C3227 C 0.10995 0.86 0.63734 0.0
C3228 C 0.09179 0.8965 0.63799 0.0
C3229 C 0.09076 0.82311 0.63766 0.0
C3230 C 1.05287 0.89098 0.63847 0.0
C3231 C 1.03428 0.85541 0.63809 0.0
H3232 H 0.53621 0.89139 0.88463 0.0
H3233 H 0.48147 0.78839 0.89129 0.0
H3234 H 0.54079 0.75725 0.89122 0.0
H3235 H 0.61264 0.75561 0.88945 0.0
H3236 H 0.66777 0.85929 0.88587 0.0
H3237 H 0.6083 0.89026 0.88486 0.0
C3238 C 0.53623 0.86204 0.88629 0.0
C3239 C 0.49982 0.84412 0.88804 0.0
C3240 C 0.57313 0.84284 0.88681 0.0
C3241 C 0.50547 0.80539 0.88991 0.0
C3242 C 0.54096 0.78671 0.88987 0.0
C3243 C 0.61273 0.78514 0.88848 0.0
C3244 C 0.64922 0.8033 0.88768 0.0
C3245 C 0.57589 0.80447 0.88837 0.0
C3246 C 0.64367 0.84219 0.88655 0.0
C3247 C 0.60811 0.86073 0.88593 0.0
H3248 H 0.49959 0.28848 0.13767 0.0
H3249 H 0.60276 0.23197 0.13917 0.0
H3250 H 0.63457 0.29103 0.13883 0.0
H3251 H 0.63672 0.3629 0.13809 0.0
H3252 H 0.53356 0.41952 0.13879 0.0
H3253 H 0.50172 0.36046 0.13832 0.0
C3254 C 0.52917 0.28805 0.13794 0.0
C3255 C 0.54698 0.25137 0.13836 0.0
C3256 C 0.54887 0.32464 0.13814 0.0
C3257 C 0.58595 0.25633 0.13882 0.0
C3258 C 0.60497 0.2916 0.13861 0.0
C3259 C 0.60713 0.36336 0.13816 0.0
C3260 C 0.58936 0.40006 0.1384 0.0
C3261 C 0.58741 0.3268 0.13827 0.0
C3262 C 0.55037 0.39515 0.1386 0.0
C3263 C 0.53132 0.35987 0.13831 0.0
H3264 H 1.03442 0.75468 0.25071 0.0
H3265 H 0.9782 0.85813 0.25134 0.0
H3266 H 1.03729 0.88973 0.25227 0.0
H3267 H 0.10929 0.89171 0.25308 0.0
H3268 H 0.16558 0.78849 0.2503 0.0
H3269 H 0.10648 0.7568 0.25014 0.0
C3270 C 1.034 0.78429 0.25105 0.0
C3271 C 0.99726 0.80214 0.251 0.0
C3272 C 1.07071 0.80396 0.25125 0.0
C3273 C 1.00245 0.84118 0.25132 0.0
C3274 C 1.03782 0.86011 0.25189 0.0
C3275 C 0.10972 0.86213 0.25241 0.0
C3276 C 0.14648 0.84436 0.25181 0.0
C3277 C 0.07303 0.84249 0.25189 0.0
C3278 C 0.14131 0.80539 0.25083 0.0
C3279 C 0.10594 0.7864 0.25074 0.0
H3280 H 0.49936 0.85726 0.50383 0.0
H3281 H 0.60236 0.91312 0.49928 0.0
H3282 H 0.63397 0.85395 0.49959 0.0
H3283 H 0.63593 0.78211 0.50101 0.0
H3284 H 0.53255 0.72602 0.50258 0.0
H3285 H 0.50103 0.78529 0.50334 0.0
C3286 C 0.52884 0.85751 0.50274 0.0
C3287 C 0.54665 0.89404 0.50147 0.0
C3288 C 0.54833 0.82083 0.50237 0.0
C3289 C 0.58551 0.88888 0.50026 0.0
C3290 C 0.60443 0.85353 0.50043 0.0
C3291 C 0.60635 0.7818 0.50147 0.0
C3292 C 0.58841 0.74521 0.50179 0.0
C3293 C 0.58679 0.81845 0.50145 0.0
C3294 C 0.54945 0.75032 0.5023 0.0
C3295 C 0.53061 0.7857 0.50277 0.0
H3296 H 0.61021 0.38763 0.75416 0.0
H3297 H 0.66629 0.28451 0.75063 0.0
H3298 H 0.60723 0.25277 0.75128 0.0
H3299 H 0.53535 0.25076 0.75301 0.0
H3300 H 0.47903 0.35406 0.75248 0.0
H3301 H 0.53814 0.38579 0.75315 0.0
C3302 C 0.61052 0.35813 0.75321 0.0
C3303 C 0.64716 0.34037 0.75219 0.0
C3304 C 0.57387 0.33853 0.75293 0.0
C3305 C 0.64203 0.30139 0.75137 0.0
C3306 C 0.60673 0.28238 0.75176 0.0
C3307 C 0.53497 0.28035 0.75279 0.0
C3308 C 0.49829 0.29814 0.7526 0.0
C3309 C 0.57158 0.29999 0.75251 0.0
C3310 C 0.50334 0.33718 0.75256 0.0
C3311 C 0.53867 0.35616 0.75297 0.0
H3312 H 1.04375 0.2501 1.00313 0.0
H3313 H 0.15864 0.27279 1.00724 0.0
H3314 H 0.14566 0.33842 1.00633 0.0
H3315 H 0.10165 0.39548 1.00397 0.0
H3316 H 0.9865 0.37279 1.00608 0.0
H3317 H 0.99948 0.30713 1.00482 0.0
C3318 C 1.06678 0.26863 1.00377 0.0
C3319 C 0.10387 0.25165 1.00461 0.0
C3320 C 1.05857 0.30955 1.00415 0.0
C3321 C 0.13028 0.28066 1.00606 0.0
C3322 C 0.12252 0.32002 1.0056 0.0
C3323 C 0.07857 0.37695 1.00408 0.0
C3324 C 1.04142 0.39392 1.00418 0.0
C3325 C 0.08672 0.33602 1.0045 0.0
C3326 C 1.01489 0.36488 1.00507 0.0
C3327 C 1.02267 0.32553 1.00456 0.0
H3328 H 0.14159 0.85193 0.75367 0.0
H3329 H 0.1182 0.73693 0.75689 0.0
H3330 H 1.05266 0.75031 0.75546 0.0
H3331 H 0.9961 0.79496 0.75304 0.0
H3332 H 1.01971 0.91014 0.75537 0.0
H3333 H 0.08512 0.8965 0.7551 0.0
C3334 C 0.12291 0.82898 0.75402 0.0
C3335 C 0.13954 0.79177 0.75472 0.0
C3336 C 0.08216 0.83741 0.75416 0.0
C3337 C 0.11046 0.76536 0.75575 0.0
C3338 C 0.07122 0.77337 0.75503 0.0
C3339 C 1.01481 0.81788 0.75343 0.0
C3340 C 0.99826 0.8552 0.75357 0.0
C3341 C 1.05556 0.80939 0.7541 0.0
C3342 C 1.02734 0.88156 0.75475 0.0
C3343 C 1.06655 0.87345 0.75465 0.0
H3344 H 0.10158 0.24833 0.50367 0.0
H3345 H 0.98644 0.27161 0.50504 0.0
H3346 H 0.99979 0.33717 0.50378 0.0
H3347 H 1.04431 0.39385 0.50207 0.0
H3348 H 0.159 0.37096 0.50687 0.0
H3349 H 0.14586 0.30523 0.50593 0.0
C3350 C 0.07859 0.26699 0.50362 0.0
C3351 C 1.04136 0.25023 0.50371 0.0
C3352 C 0.08694 0.30786 0.5039 0.0
C3353 C 1.01492 0.27936 0.50431 0.0
C3354 C 1.02289 0.31864 0.50371 0.0
C3355 C 1.06726 0.37524 0.50288 0.0
C3356 C 0.10438 0.39205 0.50374 0.0
C3357 C 1.05888 0.33441 0.50339 0.0
C3358 C 0.13071 0.36305 0.5054 0.0
C3359 C 0.12282 0.32371 0.50503 0.0
H3360 H 0.60478 0.25128 0.25206 0.0
H3361 H 0.66131 0.35455 0.25201 0.0
H3362 H 0.60237 0.38643 0.25255 0.0
H3363 H 0.53051 0.38872 0.25307 0.0
H3364 H 0.47387 0.28564 0.25105 0.0
H3365 H 0.53282 0.25364 0.25128 0.0
C3366 C 0.60526 0.2809 0.25215 0.0
C3367 C 0.64197 0.29866 0.25205 0.0
C3368 C 0.5687 0.30072 0.2521 0.0
C3369 C 0.63698 0.33771 0.25207 0.0
C3370 C 0.60175 0.3568 0.2524 0.0
C3371 C 0.53001 0.35911 0.25266 0.0
C3372 C 0.4933 0.34143 0.25212 0.0
C3373 C 0.56654 0.3393 0.25242 0.0
C3374 C 0.49823 0.30241 0.25149 0.0
C3375 C 0.53346 0.28326 0.25164 0.0
H3376 H 0.64135 0.85689 1.00411 0.0
H3377 H 0.53815 0.91282 1.00125 0.0
H3378 H 0.50664 0.85362 1.00144 0.0
H3379 H 0.50489 0.78176 1.00252 0.0
H3380 H 0.60819 0.72559 1.00135 0.0
H3381 H 0.63978 0.78482 1.0025 0.0
C3382 C 0.61191 0.85714 1.0032 0.0
C3383 C 0.59401 0.89375 1.00253 0.0
C3384 C 0.59245 0.82044 1.00264 0.0
C3385 C 0.55509 0.88858 1.00175 0.0
C3386 C 0.53622 0.85321 1.00186 0.0
C3387 C 0.53446 0.78146 1.00226 0.0
C3388 C 0.55232 0.74486 1.0017 0.0
C3389 C 0.55397 0.8181 1.00228 0.0
C3390 C 0.5913 0.7499 1.00168 0.0
C3391 C 0.61018 0.78527 1.00236 0.0
H3392 H 0.14289 0.29061 0.88604 0.0
H3393 H 0.1208 0.4062 0.88738 0.0
H3394 H 1.05523 0.39333 0.88854 0.0
H3395 H 0.99807 0.34916 0.88931 0.0
H3396 H 1.02027 0.23425 0.88404 0.0
H3397 H 0.08577 0.24702 0.88409 0.0
C3398 C 0.12451 0.31379 0.88663 0.0
C3399 C 0.14164 0.35081 0.88707 0.0
C3400 C 0.08362 0.3059 0.88657 0.0
C3401 C 0.11282 0.37769 0.88737 0.0
C3402 C 0.0735 0.37004 0.88798 0.0
C3403 C 1.01647 0.32611 0.88819 0.0
C3404 C 0.99939 0.2891 0.88704 0.0
C3405 C 1.05736 0.33417 0.88766 0.0
C3406 C 1.0282 0.26261 0.88517 0.0
C3407 C 1.06752 0.27021 0.88521 0.0
H3408 H 0.49979 0.35888 0.63796 0.0
H3409 H 0.60278 0.41547 0.6403 0.0
H3410 H 0.63472 0.35644 0.63954 0.0
H3411 H 0.63704 0.28443 0.63817 0.0
H3412 H 0.53383 0.22792 0.63794 0.0
H3413 H 0.50203 0.28696 0.63792 0.0
C3414 C 0.52937 0.35935 0.63834 0.0
C3415 C 0.54704 0.39607 0.63915 0.0
C3416 C 0.54914 0.32277 0.63826 0.0
C3417 C 0.58602 0.39111 0.63968 0.0
C3418 C 0.60514 0.35583 0.63922 0.0
C3419 C 0.60745 0.28397 0.63812 0.0
C3420 C 0.58967 0.24724 0.63796 0.0
C3421 C 0.58768 0.32058 0.6385 0.0
C3422 C 0.55067 0.25226 0.63804 0.0
C3423 C 0.53163 0.28755 0.63802 0.0
H3424 H 0.60989 0.8896 0.38769 0.0
H3425 H 0.66627 0.78623 0.38788 0.0
H3426 H 0.60719 0.75451 0.38724 0.0
H3427 H 0.53519 0.75245 0.38655 0.0
H3428 H 0.4789 0.85574 0.38886 0.0
H3429 H 0.53796 0.88748 0.38859 0.0
C3430 C 0.61033 0.85998 0.38761 0.0
C3431 C 0.64705 0.84216 0.38776 0.0
C3432 C 0.5737 0.84028 0.38766 0.0
C3433 C 0.64197 0.80313 0.38778 0.0
C3434 C 0.60664 0.78413 0.38738 0.0
C3435 C 0.53477 0.78205 0.38701 0.0
C3436 C 0.49806 0.79987 0.38761 0.0
C3437 C 0.57142 0.80173 0.38731 0.0
C3438 C 0.50318 0.83886 0.38835 0.0
C3439 C 0.5385 0.85786 0.38818 0.0
H3440 H 0.09932 0.89383 0.13699 0.0
H3441 H 0.98391 0.87137 0.1382 0.0
H3442 H 0.99689 0.80589 0.13967 0.0
H3443 H 1.041 0.74904 0.14073 0.0
H3444 H 0.15553 0.77071 0.13414 0.0
H3445 H 0.14293 0.83655 0.13455 0.0
C3446 C 0.07623 0.87536 0.13767 0.0
C3447 C 1.03918 0.89234 0.13818 0.0
C3448 C 0.08419 0.83447 0.13756 0.0
C3449 C 1.0124 0.86348 0.1384 0.0
C3450 C 1.02011 0.82422 0.13912 0.0
C3451 C 1.06399 0.76743 0.13939 0.0
C3452 C 0.10084 0.75034 0.13803 0.0
C3453 C 1.05596 0.80823 0.1388 0.0
C3454 C 0.12735 0.77892 0.13578 0.0
C3455 C 0.11982 0.81831 0.13594 0.0
H3456 H 0.32651 0.25266 0.33603 0.0
H3457 H 0.25148 0.3362 0.35122 0.0
H3458 H 0.27131 0.37513 0.32916 0.0
H3459 H 0.30961 0.38653 0.30448 0.0
H3460 H 0.38424 0.30273 0.28917 0.0
H3461 H 0.36452 0.26388 0.31127 0.0
C3462 C 0.31439 0.27948 0.33474 0.0
C3463 C 0.28791 0.29101 0.34648 0.0
C3464 C 0.32558 0.30203 0.32133 0.0
C3465 C 0.27278 0.32607 0.3435 0.0
C3466 C 0.28397 0.3485 0.33046 0.0
C3467 C 0.32154 0.35959 0.30572 0.0
C3468 C 0.34791 0.34797 0.29394 0.0
C3469 C 0.31029 0.33701 0.31911 0.0
C3470 C 0.36298 0.3129 0.29691 0.0
C3471 C 0.35186 0.29051 0.30997 0.0
H3472 H 0.07397 0.13876 0.55431 0.0
H3473 H 1.0091 1.04737 0.53917 0.0
H3474 H 1.03078 1.01163 0.56168 0.0
H3475 H 1.06733 1.00493 0.58732 0.0
H3476 H 0.13265 0.09611 0.6023 0.0
H3477 H 0.11086 0.13191 0.57984 0.0
C3478 C 1.06465 0.1108 0.55561 0.0
C3479 C 1.04069 0.09616 0.54345 0.0
C3480 C 0.07659 0.08996 0.56958 0.0
C3481 C 1.02917 1.0598 0.54677 0.0
C3482 C 1.04118 1.03918 0.56025 0.0
C3483 C 0.07674 1.03285 0.58599 0.0
C3484 C 0.10075 1.04749 0.59814 0.0
C3485 C 1.06486 1.05365 0.572 0.0
C3486 C 0.11242 0.08377 0.59477 0.0
C3487 C 0.10038 0.1044 0.58129 0.0
H3488 H 0.38895 0.82007 0.8371 0.0
H3489 H 0.29658 0.88142 0.85382 0.0
H3490 H 0.26022 0.85936 0.83157 0.0
H3491 H 0.25315 0.82326 0.80581 0.0
H3492 H 0.34569 0.76232 0.78896 0.0
H3493 H 0.38202 0.78432 0.81124 0.0
C3494 C 0.36063 0.82845 0.83621 0.0
C3495 C 0.34589 0.85132 0.84877 0.0
C3496 C 0.33948 0.81647 0.82236 0.0
C3497 C 0.30909 0.86191 0.84595 0.0
C3498 C 0.28813 0.84978 0.8326 0.0
C3499 C 0.2815 0.81498 0.80667 0.0
C3500 C 0.29625 0.79214 0.79411 0.0
C3501 C 0.30269 0.82704 0.8205 0.0
C3502 C 0.33312 0.78172 0.79687 0.0
C3503 C 0.35408 0.79383 0.81023 0.0
H3504 H 0.50272 1.0685 0.08498 0.0
H3505 H 0.58721 0.14045 0.10168 0.0
H3506 H 0.62651 0.1212 0.07966 0.0
H3507 H 0.6386 0.08368 1.05489 0.0
H3508 H 0.55388 1.01263 1.03768 0.0
H3509 H 0.51438 1.03194 1.05965 0.0
C3510 C 0.52984 0.08006 0.08406 0.0
C3511 C 0.54143 0.10537 0.09633 0.0
C3512 C 0.55271 1.06933 0.07056 0.0
C3513 C 0.5769 0.11985 0.09367 0.0
C3514 C 0.5996 0.10903 0.08061 0.0
C3515 C 0.61113 0.07288 1.0554 0.0
C3516 C 0.5996 1.04788 1.04299 0.0
C3517 C 0.58809 0.08383 1.06879 0.0
C3518 C 0.56403 1.03347 1.0456 0.0
C3519 C 0.54125 1.04418 1.05869 0.0
H3520 H 0.38797 0.82714 0.33684 0.0
H3521 H 0.29677 0.76241 0.3523 0.0
H3522 H 0.26093 0.78387 0.32979 0.0
H3523 H 0.25424 0.82004 0.30398 0.0
H3524 H 0.3453 0.8853 0.28877 0.0
H3525 H 0.38105 0.86383 0.31127 0.0
C3526 C 0.36002 0.81785 0.33562 0.0
C3527 C 0.34548 0.79397 0.34786 0.0
C3528 C 0.33916 0.82965 0.32165 0.0
C3529 C 0.30911 0.78246 0.34465 0.0
C3530 C 0.28845 0.79432 0.33115 0.0
C3531 C 0.28212 0.82951 0.30527 0.0
C3532 C 0.29676 0.85337 0.29304 0.0
C3533 C 0.30288 0.81786 0.31931 0.0
C3534 C 0.33297 0.86515 0.29637 0.0
C3535 C 0.35357 0.85331 0.30987 0.0
H3536 H 0.62795 1.05181 0.58698 0.0
H3537 H 0.55217 0.13679 0.59975 0.0
H3538 H 0.51314 0.1187 0.57744 0.0
H3539 H 0.50001 0.0793 0.55288 0.0
H3540 H 0.57943 0.99808 0.53946 0.0
H3541 H 0.61698 1.01514 0.56227 0.0
C3542 C 0.60362 1.06756 0.58499 0.0
C3543 C 0.59443 0.09633 0.59618 0.0
C3544 C 0.58142 1.05772 0.57128 0.0
C3545 C 0.56094 0.11408 0.59248 0.0
C3546 C 0.53839 0.10383 0.57926 0.0
C3547 C 0.5259 1.06553 0.55461 0.0
C3548 C 0.5366 1.0378 0.54315 0.0
C3549 C 0.54825 0.07585 0.5683 0.0
C3550 C 0.57004 1.02025 0.54691 0.0
C3551 C 0.59172 1.02994 0.56036 0.0
H3552 H 0.38978 0.32143 0.80386 0.0
H3553 H 0.29965 0.25446 0.78916 0.0
H3554 H 0.26326 0.27684 0.81139 0.0
H3555 H 0.25548 0.31521 0.83648 0.0
H3556 H 0.3463 0.38078 0.85163 0.0
H3557 H 0.38257 0.35851 0.82934 0.0
C3558 C 0.36196 0.3118 0.80521 0.0
C3559 C 0.34768 0.28728 0.79319 0.0
C3560 C 0.3409 0.32395 0.81908 0.0
C3561 C 0.31161 0.27517 0.79659 0.0
C3562 C 0.29066 0.28755 0.80992 0.0
C3563 C 0.28344 0.32452 0.83523 0.0
C3564 C 0.2977 0.34902 0.84725 0.0
C3565 C 0.30465 0.31204 0.82146 0.0
C3566 C 0.33413 0.3604 0.84408 0.0
C3567 C 0.35505 0.34806 0.83073 0.0
H3568 H 1.07013 0.13851 1.05472 0.0
H3569 H 0.1321 1.04598 1.03856 0.0
H3570 H 0.10965 1.00987 1.06086 0.0
H3571 H 0.07321 1.00314 0.08663 0.0
H3572 H 1.01069 0.09555 0.10254 0.0
H3573 H 1.0334 0.13167 0.08033 0.0
C3574 C 0.07861 0.11022 1.05574 0.0
C3575 C 0.10197 0.09545 1.04335 0.0
C3576 C 1.06625 0.08915 1.06959 0.0
C3577 C 0.11242 1.0586 1.04631 0.0
C3578 C 0.10002 1.03776 1.05969 0.0
C3579 C 1.06463 1.03139 0.08556 0.0
C3580 C 1.04113 1.0462 0.09791 0.0
C3581 C 0.07694 1.05241 0.07167 0.0
C3582 C 1.03048 0.08293 0.09485 0.0
C3583 C 1.04306 0.10379 0.08152 0.0
H3584 H 0.83659 0.76674 0.83685 0.0
H3585 H 0.75354 0.8434 0.85077 0.0
H3586 H 0.77077 0.88312 0.82855 0.0
H3587 H 0.80914 0.89723 0.80393 0.0
H3588 H 0.88911 0.81801 0.78905 0.0
H3589 H 0.87285 0.77922 0.81165 0.0
C3590 C 0.82162 0.79184 0.83508 0.0
C3591 C 0.79364 0.80114 0.84657 0.0
C3592 C 0.83104 0.81461 0.82142 0.0
C3593 C 0.77583 0.83477 0.84323 0.0
C3594 C 0.78559 0.85771 0.83008 0.0
C3595 C 0.82282 0.87115 0.8053 0.0
C3596 C 0.84992 0.86097 0.79351 0.0
C3597 C 0.81303 0.84813 0.81886 0.0
C3598 C 0.86735 0.82712 0.79677 0.0
C3599 C 0.85816 0.8047 0.81012 0.0
H3600 H 0.80226 0.38288 0.33791 0.0
H3601 H 0.88513 0.30498 0.35056 0.0
H3602 H 0.86686 0.26655 0.32806 0.0
H3603 H 0.82796 0.25447 0.30344 0.0
H3604 H 0.74714 0.33442 0.29039 0.0
H3605 H 0.76468 0.37188 0.3132 0.0
C3606 C 0.8171 0.35791 0.33583 0.0
C3607 C 0.84544 0.34793 0.347 0.0
C3608 C 0.80696 0.3359 0.32208 0.0
C3609 C 0.86272 0.31421 0.34325 0.0
C3610 C 0.85237 0.29204 0.32995 0.0
C3611 C 0.8143 0.2804 0.30527 0.0
C3612 C 0.78664 0.29133 0.29391 0.0
C3613 C 0.82469 0.30248 0.31902 0.0
C3614 C 0.76933 0.3249 0.29775 0.0
C3615 C 0.7793 0.34652 0.31121 0.0
H3616 H 0.83541 0.3796 0.80242 0.0
H3617 H 0.75407 0.30095 0.78887 0.0
H3618 H 0.77272 0.26154 0.81096 0.0
H3619 H 0.81174 0.24841 0.83544 0.0
H3620 H 0.89039 0.3293 0.8498 0.0
H3621 H 0.87274 0.36772 0.82731 0.0
C3622 C 0.82122 0.35404 0.80421 0.0
C3623 C 0.7933 0.34409 0.79285 0.0
C3624 C 0.83148 0.33144 0.8178 0.0
C3625 C 0.77633 0.31005 0.79628 0.0
C3626 C 0.78689 0.2873 0.80936 0.0
C3627 C 0.82483 0.27478 0.83399 0.0
C3628 C 0.8519 0.28561 0.84563 0.0
C3629 C 0.81431 0.29752 0.82045 0.0
C3630 C 0.86864 0.31973 0.84222 0.0
C3631 C 0.85864 0.34194 0.82893 0.0
H3632 H 0.75651 0.81611 0.33672 0.0
H3633 H 0.84633 0.8838 0.35124 0.0
H3634 H 0.88209 0.86269 0.32858 0.0
H3635 H 0.88916 0.82601 0.30291 0.0
H3636 H 0.79991 0.75718 0.28877 0.0
H3637 H 0.76406 0.77844 0.31136 0.0
C3638 C 0.78412 0.82624 0.33524 0.0
C3639 C 0.79825 0.85101 0.34723 0.0
C3640 C 0.80503 0.81444 0.32122 0.0
C3641 C 0.83424 0.86333 0.34372 0.0
C3642 C 0.8549 0.85157 0.33016 0.0
C3643 C 0.86165 0.81567 0.30446 0.0
C3644 C 0.84746 0.79092 0.29246 0.0
C3645 C 0.84088 0.8272 0.31856 0.0
C3646 C 0.81179 0.77803 0.29615 0.0
C3647 C 0.79114 0.78979 0.30971 0.0
H3648 H 0.56216 0.50856 0.08781 0.0
H3649 H 0.63568 0.596 0.09971 0.0
H3650 H 0.61513 0.63032 0.07658 0.0
H3651 H 0.57616 0.63729 1.05156 0.0
H3652 H 0.50194 0.55032 1.03985 0.0
H3653 H 0.52251 0.51593 1.06299 0.0
C3654 C 0.57368 0.5354 0.08566 0.0
C3655 C 0.60034 0.5492 0.09697 0.0
C3656 C 0.56167 0.55566 0.07151 0.0
C3657 C 0.61431 0.58409 0.0926 0.0
C3658 C 0.60266 0.60396 0.07883 0.0
C3659 C 0.56448 0.61055 1.05375 0.0
C3660 C 0.53783 0.59675 1.04245 0.0
C3661 C 0.5763 0.59038 1.06796 0.0
C3662 C 0.52345 0.56211 1.04692 0.0
C3663 C 0.5351 0.54221 1.06069 0.0
H3664 H 1.00837 0.56419 0.58544 0.0
H3665 H 0.09249 0.63618 0.60249 0.0
H3666 H 0.13203 0.61757 0.58044 0.0
H3667 H 0.14445 0.58084 0.55527 0.0
H3668 H 1.06084 0.50793 0.53851 0.0
H3669 H 1.0211 0.52679 0.56046 0.0
C3670 C 1.03565 0.57557 0.58468 0.0
C3671 C 1.04699 0.60082 0.59701 0.0
C3672 C 1.05886 0.56486 0.57129 0.0
C3673 C 0.0824 0.61555 0.59444 0.0
C3674 C 0.10527 0.60509 0.58137 0.0
C3675 C 0.11726 0.56924 0.55608 0.0
C3676 C 0.106 0.54392 0.54377 0.0
C3677 C 0.09412 0.57978 0.56953 0.0
C3678 C 1.07075 0.52886 0.54645 0.0
C3679 C 1.04782 0.53937 0.5595 0.0
H3680 H 1.06095 0.63035 0.09304 0.0
H3681 H 0.14561 0.54914 0.09672 0.0
H3682 H 0.12168 0.51798 0.07341 0.0
H3683 H 0.07605 0.51177 1.05062 0.0
H3684 H 0.99056 0.59213 1.04726 0.0
H3685 H 1.01457 0.62345 0.07053 0.0
C3686 C 0.07392 0.60525 0.08918 0.0
C3687 C 0.10507 0.59201 0.09816 0.0
C3688 C 1.05982 0.58681 0.07492 0.0
C3689 C 0.12115 0.5602 0.09135 0.0
C3690 C 0.10742 0.54214 0.07753 0.0
C3691 C 1.06288 0.5367 1.05456 0.0
C3692 C 1.0317 0.54989 1.04558 0.0
C3693 C 0.07678 0.55496 1.0689 0.0
C3694 C 1.01519 0.58129 1.05256 0.0
C3695 C 1.02896 0.59942 1.06636 0.0
H3696 H 0.49919 0.57847 0.58646 0.0
H3697 H 0.58576 0.50877 0.60298 0.0
H3698 H 0.62391 0.52806 0.58058 0.0
H3699 H 0.63401 0.56426 0.55512 0.0
H3700 H 0.54783 0.63466 0.53879 0.0
H3701 H 0.50959 0.61526 0.56115 0.0
C3702 C 0.52664 0.56764 0.58548 0.0
C3703 C 0.53911 0.54284 0.59778 0.0
C3704 C 0.54892 0.57858 0.57184 0.0
C3705 C 0.5748 0.529 0.59497 0.0
C3706 C 0.59683 0.53981 0.58168 0.0
C3707 C 0.60667 0.57532 0.55616 0.0
C3708 C 0.59427 0.6002 0.54388 0.0
C3709 C 0.58446 0.56451 0.56983 0.0
C3710 C 0.5587 0.6143 0.54677 0.0
C3711 C 0.53662 0.60342 0.56003 0.0
H3712 H 0.37759 0.19596 0.42966 0.0
H3713 H 0.28961 0.12022 0.42155 0.0
H3714 H 0.31878 0.0767 0.43961 0.0
H3715 H 0.37114 1.05549 0.45926 0.0
H3716 H 0.46077 0.13019 0.46579 0.0
H3717 H 0.43071 0.17401 0.4483 0.0
C3718 C 0.36375 0.17018 0.43158 0.0
C3719 C 0.32853 0.16463 0.42293 0.0
C3720 C 0.38228 0.14277 0.44255 0.0
C3721 C 0.3151 0.12868 0.42689 0.0
C3722 C 0.33259 0.10254 0.43773 0.0
C3723 C 0.38499 0.08122 0.45718 0.0
C3724 C 0.42094 0.08653 0.46535 0.0
C3725 C 0.36658 0.10838 0.44597 0.0
C3726 C 0.43479 0.12195 0.46084 0.0
C3727 C 0.41675 0.14832 0.45036 0.0
H3728 H 0.26405 0.19772 0.70956 0.0
H3729 H 0.34934 0.1198 0.71905 0.0
H3730 H 0.3202 0.07665 0.7008 0.0
H3731 H 0.26839 1.05633 0.68059 0.0
H3732 H 0.18043 0.13271 0.6734 0.0
H3733 H 0.21098 0.17634 0.6908 0.0
C3734 C 0.27721 0.17145 0.70796 0.0
C3735 C 0.31173 0.16523 0.71704 0.0
C3736 C 0.25855 0.14421 0.69694 0.0
C3737 C 0.32442 0.1288 0.71339 0.0
C3738 C 0.30694 0.10288 0.70242 0.0
C3739 C 0.25509 0.08244 0.68245 0.0
C3740 C 0.21959 0.08844 0.67398 0.0
C3741 C 0.27358 0.10937 0.69378 0.0
C3742 C 0.20625 0.12414 0.6784 0.0
C3743 C 0.22451 0.15036 0.68888 0.0
H3744 H 0.19667 1.01396 0.96 0.0
H3745 H 0.27534 0.09745 0.97111 0.0
H3746 H 0.31881 1.06865 0.95284 0.0
H3747 H 0.33923 1.0177 0.93212 0.0
H3748 H 0.26207 0.93121 0.92339 0.0
H3749 H 0.21815 0.96151 0.9408 0.0
C3750 C 0.22316 1.02683 0.95875 0.0
C3751 C 0.22943 1.06077 0.9683 0.0
C3752 C 0.2506 1.00831 0.94772 0.0
C3753 C 0.26621 0.07301 0.96509 0.0
C3754 C 0.29234 1.05573 0.9541 0.0
C3755 C 0.31288 1.00468 0.93363 0.0
C3756 C 0.30679 0.9697 0.92469 0.0
C3757 C 0.28575 1.02297 0.94499 0.0
C3758 C 0.27076 0.95666 0.92873 0.0
C3759 C 0.24436 0.97477 0.93923 0.0
H3760 H 0.30563 1.02226 0.2102 0.0
H3761 H 0.38248 0.9351 0.21823 0.0
H3762 H 0.42606 0.96525 0.20067 0.0
H3763 H 0.4473 1.01765 0.18148 0.0
H3764 H 0.36944 0.10276 0.17156 0.0
H3765 H 0.32617 0.07385 0.18986 0.0
C3766 C 0.33184 1.00907 0.20851 0.0
C3767 C 0.3379 0.97383 0.21722 0.0
C3768 C 0.35887 1.02743 0.19715 0.0
C3769 C 0.37379 0.96067 0.21301 0.0
C3770 C 0.4 0.9787 0.20244 0.0
C3771 C 0.42105 1.03087 0.18301 0.0
C3772 C 0.41487 1.06522 0.17376 0.0
C3773 C 0.39379 1.01244 0.19412 0.0
C3774 C 0.37843 0.07794 0.17734 0.0
C3775 C 0.35242 1.06061 0.18834 0.0
H3776 H 0.75455 0.94893 0.71125 0.0
H3777 H 0.85265 1.01379 0.71076 0.0
H3778 H 0.82396 1.05587 0.69208 0.0
H3779 H 0.76915 0.07917 0.6743 0.0
H3780 H 0.6698 1.0163 0.67629 0.0
H3781 H 0.69923 0.97334 0.69433 0.0
C3782 C 0.77071 0.97195 0.70727 0.0
C3783 C 0.80864 0.97487 0.71375 0.0
C3784 C 0.75251 0.99877 0.6959 0.0
C3785 C 0.82503 1.00738 0.70717 0.0
C3786 C 0.80778 1.03276 0.69597 0.0
C3787 C 0.75299 1.05624 0.67838 0.0
C3788 C 0.71455 1.05387 0.67237 0.0
C3789 C 0.77113 1.02966 0.68991 0.0
C3790 C 0.69792 1.022 0.67938 0.0
C3791 C 0.71555 0.99615 0.69022 0.0
H3792 H 0.87421 0.08478 0.46039 0.0
H3793 H 0.96192 1.00871 0.46859 0.0
H3794 H 0.93226 0.96476 0.45103 0.0
H3795 H 0.88005 0.94293 0.43183 0.0
H3796 H 0.79511 1.02055 0.42137 0.0
H3797 H 0.82335 1.06402 0.43976 0.0
C3798 C 0.88765 1.05867 0.45873 0.0
C3799 C 0.92278 1.05292 0.46756 0.0
C3800 C 0.8697 1.03153 0.4473 0.0
C3801 C 0.93632 1.01715 0.46334 0.0
C3802 C 0.91858 0.99074 0.45276 0.0
C3803 C 0.86678 0.96921 0.43323 0.0
C3804 C 0.83265 0.97519 0.4238 0.0
C3805 C 0.88491 0.99667 0.44435 0.0
C3806 C 0.81978 1.01167 0.42726 0.0
C3807 C 0.83673 1.0378 0.43833 0.0
H3808 H 0.94673 0.12885 0.18203 0.0
H3809 H 0.8678 1.04646 0.16976 0.0
H3810 H 0.82364 0.07528 0.18771 0.0
H3811 H 0.80267 0.12587 0.20842 0.0
H3812 H 0.88025 0.21119 0.21849 0.0
H3813 H 0.92479 0.18099 0.20131 0.0
C3814 C 0.92001 0.11629 0.18294 0.0
C3815 C 0.91384 0.08268 0.17318 0.0
C3816 C 0.89219 0.1348 0.19377 0.0
C3817 C 0.87682 1.07068 0.17598 0.0
C3818 C 0.8503 0.08796 0.18677 0.0
C3819 C 0.82921 0.13869 0.20722 0.0
C3820 C 0.83517 0.17332 0.21639 0.0
C3821 C 0.85674 0.12044 0.19607 0.0
C3822 C 0.87157 0.18608 0.21286 0.0
C3823 C 0.89833 0.16801 0.20252 0.0
H3824 H 0.69216 0.13119 0.95981 0.0
H3825 H 0.76769 1.0435 0.9689 0.0
H3826 H 0.81151 0.07184 0.95074 0.0
H3827 H 0.83309 0.12321 0.93066 0.0
H3828 H 0.75882 0.21279 0.92312 0.0
H3829 H 0.71459 0.18358 0.94075 0.0
C3830 C 0.71792 0.1172 0.95807 0.0
C3831 C 0.72327 0.0823 0.96703 0.0
C3832 C 0.74557 0.13527 0.94702 0.0
C3833 C 0.75932 1.06876 0.96331 0.0
C3834 C 0.78565 0.08575 0.9524 0.0
C3835 C 0.80738 0.13723 0.93255 0.0
C3836 C 0.80233 0.17286 0.92405 0.0
C3837 C 0.77999 0.11938 0.94384 0.0
C3838 C 0.7669 0.18702 0.92834 0.0
C3839 C 0.74027 0.16946 0.93889 0.0
H3840 H 0.81863 0.62327 0.92509 0.0
H3841 H 0.88021 0.72347 0.92698 0.0
H3842 H 0.92337 0.69454 0.94507 0.0
H3843 H 0.94845 0.63944 0.96214 0.0
H3844 H 0.8848 0.54051 0.96176 0.0
H3845 H 0.84262 0.56866 0.94299 0.0
C3846 C 0.8413 0.63978 0.92915 0.0
C3847 C 0.84312 0.67834 0.92304 0.0
C3848 C 0.86807 0.6219 0.94074 0.0
C3849 C 0.87479 0.69526 0.93009 0.0
C3850 C 0.90081 0.6779 0.94098 0.0
C3851 C 0.92569 0.62294 0.95817 0.0
C3852 C 0.9233 0.58489 0.96476 0.0
C3853 C 0.89869 0.64086 0.94674 0.0
C3854 C 0.89099 0.5682 0.95813 0.0
C3855 C 0.86548 0.58516 0.94687 0.0
H3856 H 0.6911 0.63438 0.18126 0.0
H3857 H 0.76639 0.54621 0.17254 0.0
H3858 H 0.81012 0.57477 0.19068 0.0
H3859 H 0.83145 0.6265 0.21074 0.0
H3860 H 0.758 0.71728 0.21715 0.0
H3861 H 0.71379 0.68749 0.1998 0.0
C3862 C 0.71688 0.62044 0.18302 0.0
C3863 C 0.72216 0.58533 0.17421 0.0
C3864 C 0.7445 0.6387 0.19398 0.0
C3865 C 0.75808 0.57163 0.17802 0.0
C3866 C 0.78434 0.58876 0.18893 0.0
C3867 C 0.806 0.64074 0.2086 0.0
C3868 C 0.80113 0.67687 0.21676 0.0
C3869 C 0.77875 0.62268 0.19733 0.0
C3870 C 0.76589 0.69108 0.21226 0.0
C3871 C 0.7393 0.67324 0.20183 0.0
H3872 H 0.83133 0.51521 0.43093 0.0
H3873 H 0.75474 0.42831 0.42207 0.0
H3874 H 0.71062 0.4582 0.43953 0.0
H3875 H 0.68877 0.51047 0.45878 0.0
H3876 H 0.76611 0.5958 0.46906 0.0
H3877 H 0.81003 0.56679 0.45109 0.0
C3878 C 0.80511 0.50194 0.43246 0.0
C3879 C 0.79947 0.46673 0.42366 0.0
C3880 C 0.77766 0.52029 0.44363 0.0
C3881 C 0.76337 0.45363 0.42754 0.0
C3882 C 0.73678 0.4716 0.438 0.0
C3883 C 0.715 0.52376 0.45738 0.0
C3884 C 0.72082 0.5582 0.46665 0.0
C3885 C 0.74266 0.5053 0.44642 0.0
C3886 C 0.75735 0.57092 0.46327 0.0
C3887 C 0.78375 0.55352 0.45246 0.0
H3888 H 0.88109 0.43971 0.70783 0.0
H3889 H 0.79865 0.51896 0.71982 0.0
H3890 H 0.82794 0.56304 0.70205 0.0
H3891 H 0.879 0.58406 0.6816 0.0
H3892 H 0.96362 0.50584 0.67124 0.0
H3893 H 0.93331 0.46145 0.68844 0.0
C3894 C 0.86858 0.46646 0.7069 0.0
C3895 C 0.83478 0.4727 0.71659 0.0
C3896 C 0.88731 0.49427 0.69607 0.0
C3897 C 0.82297 0.50981 0.71371 0.0
C3898 C 0.84055 0.53632 0.70301 0.0
C3899 C 0.89167 0.55742 0.68273 0.0
C3900 C 0.92634 0.5514 0.67355 0.0
C3901 C 0.87316 0.52983 0.69379 0.0
C3902 C 0.93871 0.51477 0.67697 0.0
C3903 C 0.92049 0.48803 0.68729 0.0
H3904 H 0.25715 0.44224 0.21137 0.0
H3905 H 0.34296 0.51985 0.22052 0.0
H3906 H 0.31245 0.56392 0.20316 0.0
H3907 H 0.25963 0.58501 0.18389 0.0
H3908 H 0.17188 0.50871 0.17626 0.0
H3909 H 0.20317 0.46424 0.19313 0.0
C3910 C 0.27013 0.46862 0.20986 0.0
C3911 C 0.30521 0.47457 0.21854 0.0
C3912 C 0.25076 0.49633 0.19933 0.0
C3913 C 0.31765 0.51113 0.2151 0.0
C3914 C 0.29938 0.53757 0.20469 0.0
C3915 C 0.24637 0.55886 0.18567 0.0
C3916 C 0.21071 0.55315 0.17738 0.0
C3917 C 0.26549 0.5314 0.19645 0.0
C3918 C 0.19763 0.51715 0.18136 0.0
C3919 C 0.2164 0.49045 0.19145 0.0
H3920 H 0.45042 0.51038 0.95755 0.0
H3921 H 0.37531 0.5988 0.96606 0.0
H3922 H 0.33142 0.56996 0.94812 0.0
H3923 H 0.30948 0.51765 0.92848 0.0
H3924 H 0.3832 0.4272 0.92177 0.0
H3925 H 0.42755 0.45707 0.93906 0.0
C3926 C 0.42464 0.52432 0.95578 0.0
C3927 C 0.41947 0.5596 0.96453 0.0
C3928 C 0.3969 0.50591 0.9449 0.0
C3929 C 0.38355 0.57324 0.96068 0.0
C3930 C 0.35716 0.55594 0.94989 0.0
C3931 C 0.33512 0.5036 0.93045 0.0
C3932 C 0.33997 0.46748 0.92225 0.0
C3933 C 0.36259 0.52186 0.94159 0.0
C3934 C 0.3753 0.45336 0.9267 0.0
C3935 C 0.40199 0.47129 0.93707 0.0
H3936 H 0.44415 0.63318 0.68086 0.0
H3937 H 0.37166 0.54141 0.67541 0.0
H3938 H 0.32897 0.56997 0.69406 0.0
H3939 H 0.30751 0.62291 0.71355 0.0
H3940 H 0.37782 0.71699 0.71677 0.0
H3941 H 0.42127 0.68726 0.69894 0.0
C3942 C 0.41922 0.61842 0.68346 0.0
C3943 C 0.41441 0.58227 0.67536 0.0
C3944 C 0.39211 0.63669 0.69472 0.0
C3945 C 0.37955 0.56765 0.68025 0.0
C3946 C 0.35388 0.58479 0.69146 0.0
C3947 C 0.33223 0.6378 0.7107 0.0
C3948 C 0.33658 0.67479 0.71819 0.0
C3949 C 0.35896 0.6197 0.69913 0.0
C3950 C 0.37056 0.68999 0.71256 0.0
C3951 C 0.39667 0.67219 0.70183 0.0
H3952 H 0.26362 0.5549 0.45631 0.0
H3953 H 0.18188 0.63518 0.46798 0.0
H3954 H 0.2131 0.67951 0.45101 0.0
H3955 H 0.26539 0.70045 0.4316 0.0
H3956 H 0.34458 0.6192 0.41807 0.0
H3957 H 0.31441 0.57505 0.43562 0.0
C3958 C 0.2517 0.58193 0.45543 0.0
C3959 C 0.2177 0.58872 0.46492 0.0
C3960 C 0.27067 0.60937 0.44451 0.0
C3961 C 0.20627 0.62581 0.46197 0.0
C3962 C 0.225 0.65244 0.4518 0.0
C3963 C 0.2769 0.67318 0.43212 0.0
C3964 C 0.31002 0.66628 0.42214 0.0
C3965 C 0.25763 0.64548 0.44274 0.0
C3966 C 0.32079 0.62871 0.42447 0.0
C3967 C 0.30271 0.60223 0.43502 0.0
H3968 H 0.38148 0.09653 0.35541 0.0
H3969 H 0.41265 0.13168 0.30871 0.0
H3970 H 0.42306 1.06831 0.30125 0.0
H3971 H 0.40114 1.00498 0.3053 0.0
H3972 H 0.35884 0.97498 0.3511 0.0
H3973 H 0.37779 1.03276 0.36161 0.0
C3974 C 0.39093 0.0913 0.34358 0.0
C3975 C 0.3908 0.119 0.33198 0.0
C3976 C 0.39482 1.05469 0.3391 0.0
C3977 C 0.40795 0.11075 0.31748 0.0
C3978 C 0.41428 0.0743 0.31317 0.0
C3979 C 0.39617 1.01084 0.31762 0.0
C3980 C 0.37552 0.98629 0.32692 0.0
C3981 C 0.40366 1.04608 0.32338 0.0
C3982 C 0.37318 0.99317 0.34324 0.0
C3983 C 0.38364 1.0269 0.34935 0.0
H3984 H 0.25783 0.15116 0.58695 0.0
H3985 H 0.22261 0.11379 0.5411 0.0
H3986 H 0.27996 0.13164 0.52991 0.0
H3987 H 0.34423 0.13167 0.53519 0.0
H3988 H 0.38437 0.15812 0.58161 0.0
H3989 H 0.32211 0.17063 0.59024 0.0
C3990 C 0.26245 0.147 0.57448 0.0
C3991 C 0.23648 0.12789 0.56531 0.0
C3992 C 0.29737 0.15385 0.56824 0.0
C3993 C 0.24187 0.12683 0.54886 0.0
C3994 C 0.27536 0.13666 0.54234 0.0
C3995 C 0.34033 0.14086 0.54716 0.0
C3996 C 0.36881 0.13874 0.55832 0.0
C3997 C 0.30434 0.14596 0.55227 0.0
C3998 C 0.36253 0.15518 0.57313 0.0
C3999 C 0.32678 0.16262 0.57811 0.0
H4000 H 0.24699 0.12045 0.79667 0.0
H4001 H 0.26412 0.15048 0.84536 0.0
H4002 H 0.24371 0.09069 0.85356 0.0
H4003 H 0.24461 1.02579 0.8469 0.0
H4004 H 0.25631 0.99462 0.79801 0.0
H4005 H 0.24026 1.05587 0.79007 0.0
C4006 C 0.24698 0.11404 0.80911 0.0
C4007 C 0.26104 0.13929 0.82013 0.0
C4008 C 0.24089 0.07778 0.81375 0.0
C4009 C 0.25568 0.13161 0.83627 0.0
C4010 C 0.24431 0.09686 0.84108 0.0
C4011 C 0.24446 1.03221 0.83446 0.0
C4012 C 0.25587 1.00595 0.82328 0.0
C4013 C 0.24104 1.06886 0.82989 0.0
C4014 C 0.25005 1.01406 0.80721 0.0
C4015 C 0.24118 1.04964 0.80254 0.0
H4016 H 0.25747 0.98755 1.05572 0.0
H4017 H 0.22657 1.02741 0.10179 0.0
H4018 H 0.2853 1.0106 0.112 0.0
H4019 H 0.34898 1.01 0.10546 0.0
H4020 H 0.38444 0.98124 1.05849 0.0
H4021 H 0.32148 0.96821 1.05131 0.0
C4022 C 0.26335 0.99231 1.06805 0.0
C4023 C 0.23823 1.01181 0.07752 0.0
C4024 C 0.29894 0.98614 0.07361 0.0
C4025 C 0.24522 1.01397 0.09382 0.0
C4026 C 0.27946 1.00477 0.09974 0.0
C4027 C 0.34394 1.00049 0.09363 0.0
C4028 C 0.37133 1.00202 0.08189 0.0
C4029 C 0.30748 0.99502 0.08933 0.0
C4030 C 0.36353 0.98484 1.06737 0.0
C4031 C 0.32735 0.97698 1.06323 0.0
H4032 H 0.73677 1.01874 0.79748 0.0
H4033 H 0.71878 0.10593 0.76398 0.0
H4034 H 0.70733 0.14817 0.78509 0.0
H4035 H 0.73082 0.16518 0.81092 0.0
H4036 H 0.76677 0.08086 0.84273 0.0
H4037 H 0.74216 1.0341 0.82543 0.0
C4038 C 0.72996 1.04689 0.79474 0.0
C4039 C 0.73241 1.05953 0.7791 0.0
C4040 C 0.72755 0.07242 0.80703 0.0
C4041 C 0.71937 0.09512 0.77581 0.0
C4042 C 0.71307 0.11986 0.78801 0.0
C4043 C 0.73165 0.13658 0.81437 0.0
C4044 C 0.75298 0.12628 0.82737 0.0
C4045 C 0.72158 0.10973 0.80345 0.0
C4046 C 0.75193 0.08957 0.83237 0.0
C4047 C 0.7384 1.0626 0.82228 0.0
H4048 H 0.79178 0.96855 0.57949 0.0
H4049 H 0.81201 1.00675 0.62681 0.0
H4050 H 0.87721 1.01009 0.62114 0.0
H4051 H 0.92045 1.02425 0.60005 0.0
H4052 H 0.90214 0.98153 0.55333 0.0
H4053 H 0.84361 0.95671 0.56183 0.0
C4054 C 0.81026 0.97583 0.58894 0.0
C4055 C 0.79665 0.99077 0.6031 0.0
C4056 C 0.84772 0.97796 0.58557 0.0
C4057 C 0.82158 0.99788 0.61535 0.0
C4058 C 0.85895 0.99977 0.61214 0.0
C4059 C 0.90505 1.00798 0.59179 0.0
C4060 C 0.91417 1.00804 0.57565 0.0
C4061 C 0.87151 0.99355 0.59677 0.0
C4062 C 0.89424 0.98488 0.56553 0.0
C4063 C 0.86078 0.97036 0.5704 0.0
H4064 H 0.90123 1.01069 0.33655 0.0
H4065 H 0.86353 0.97805 0.29042 0.0
H4066 H 0.88142 1.03604 0.27981 0.0
H4067 H 0.88264 0.10004 0.28569 0.0
H4068 H 0.90968 0.13762 0.33247 0.0
H4069 H 0.92114 0.07475 0.34048 0.0
C4070 C 0.89709 1.01601 0.32414 0.0
C4071 C 0.87816 0.99045 0.3147 0.0
C4072 C 0.90403 1.05127 0.31827 0.0
C4073 C 0.87673 0.99688 0.29834 0.0
C4074 C 0.88655 1.03073 0.29217 0.0
C4075 C 0.89161 0.09546 0.29763 0.0
C4076 C 0.89001 0.12352 0.30905 0.0
C4077 C 0.89617 1.05913 0.30238 0.0
C4078 C 0.90626 0.11624 0.3238 0.0
C4079 C 0.91314 0.08011 0.32842 0.0
H4080 H 0.93039 0.11214 1.03924 0.0
H4081 H 0.90558 0.15914 0.08463 0.0
H4082 H 0.8487 0.18374 0.07415 0.0
H4083 H 0.79931 0.17222 1.05492 0.0
H4084 H 0.82632 0.12616 1.00962 0.0
H4085 H 0.89051 0.12301 1.01702 0.0
C4086 C 0.91411 0.12946 1.04676 0.0
C4087 C 0.92105 0.13103 1.06305 0.0
C4088 C 0.88149 0.1434 1.04068 0.0
C4089 C 0.89955 0.15483 0.07229 0.0
C4090 C 0.86701 0.16919 1.06629 0.0
C4091 C 0.81952 0.16336 1.04637 0.0
C4092 C 0.80816 0.14762 1.03208 0.0
C4093 C 0.85626 0.1605 1.05091 0.0
C4094 C 0.83455 0.13711 1.02093 0.0
C4095 C 0.87121 0.13509 1.0252 0.0
H4096 H 0.90873 0.63938 0.80574 0.0
H4097 H 0.91281 0.6203 0.85593 0.0
H4098 H 0.92306 0.55557 0.85118 0.0
H4099 H 0.90624 0.50589 0.83325 0.0
H4100 H 0.90909 0.5248 0.78301 0.0
H4101 H 0.92234 0.58903 0.78765 0.0
C4102 C 0.91296 0.62193 0.81584 0.0
C4103 C 0.90438 0.63401 0.83124 0.0
C4104 C 0.91922 0.58465 0.81305 0.0
C4105 C 0.91445 0.61102 0.84386 0.0
C4106 C 0.92083 0.57386 0.84118 0.0
C4107 C 0.9109 0.52312 0.8231 0.0
C4108 C 0.90134 0.51138 0.80778 0.0
C4109 C 0.91895 0.56008 0.82582 0.0
C4110 C 0.91167 0.534 0.79507 0.0
C4111 C 0.91978 0.57083 0.79767 0.0
H4112 H 0.86921 0.6533 1.04895 0.0
H4113 H 0.79289 0.67843 1.01163 0.0
H4114 H 0.74534 0.68818 1.03061 0.0
H4115 H 0.72021 0.66466 1.05527 0.0
H4116 H 0.79429 0.62147 0.09024 0.0
H4117 H 0.84585 0.64412 0.07551 0.0
C4118 C 0.84221 0.66065 1.04482 0.0
C4119 C 0.83422 0.66039 1.0286 0.0
C4120 C 0.81339 0.66213 1.0557 0.0
C4121 C 0.80024 0.67529 1.02385 0.0
C4122 C 0.77233 0.68078 1.0348 0.0
C4123 C 0.7476 0.6606 1.05981 0.0
C4124 C 0.75303 0.63877 0.07324 0.0
C4125 C 0.77766 0.66994 1.0504 0.0
C4126 C 0.7886 0.6368 0.07964 0.0
C4127 C 0.81859 0.64944 0.07106 0.0
H4128 H 0.72174 0.53909 0.32194 0.0
H4129 H 0.74813 0.5578 0.37084 0.0
H4130 H 0.75223 0.62319 0.36583 0.0
H4131 H 0.77154 0.66725 0.34558 0.0
H4132 H 0.73726 0.65071 0.29745 0.0
H4133 H 0.71161 0.59159 0.30457 0.0
C4134 C 0.72687 0.55701 0.33183 0.0
C4135 C 0.73964 0.54298 0.34631 0.0
C4136 C 0.72869 0.59472 0.32893 0.0
C4137 C 0.74246 0.56754 0.35907 0.0
C4138 C 0.7445 0.60513 0.35628 0.0
C4139 C 0.75707 0.652 0.33663 0.0
C4140 C 0.76028 0.6615 0.32059 0.0
C4141 C 0.74172 0.61823 0.34084 0.0
C4142 C 0.73865 0.64222 0.30964 0.0
C4143 C 0.72357 0.60845 0.31371 0.0
H4144 H 0.7777 0.49875 0.54339 0.0
H4145 H 0.73494 0.49497 0.59078 0.0
H4146 H 0.79597 0.48403 0.60081 0.0
H4147 H 0.85997 0.50093 0.59635 0.0
H4148 H 0.90307 0.50018 0.54894 0.0
H4149 H 0.84269 0.48609 0.53886 0.0
C4150 C 0.78086 0.49517 0.55593 0.0
C4151 C 0.75256 0.5046 0.56657 0.0
C4152 C 0.81624 0.48892 0.56166 0.0
C4153 C 0.75714 0.49358 0.58239 0.0
C4154 C 0.79216 0.48671 0.58821 0.0
C4155 C 0.85715 0.49717 0.5838 0.0
C4156 C 0.88503 0.50802 0.57321 0.0
C4157 C 0.82222 0.48895 0.57803 0.0
C4158 C 0.88096 0.49737 0.55732 0.0
C4159 C 0.84637 0.48867 0.55147 0.0
H4160 H 0.24031 0.63958 0.33551 0.0
H4161 H 0.28104 0.66825 0.28933 0.0
H4162 H 0.262 0.60998 0.27924 0.0
H4163 H 0.25799 0.54646 0.28578 0.0
H4164 H 0.22783 0.51278 0.33282 0.0
H4165 H 0.21835 0.57643 0.34004 0.0
C4166 C 0.24478 0.63332 0.32319 0.0
C4167 C 0.26486 0.65771 0.3136 0.0
C4168 C 0.23716 0.5979 0.31768 0.0
C4169 C 0.26694 0.65023 0.29734 0.0
C4170 C 0.25646 0.61624 0.29149 0.0
C4171 C 0.24899 0.55204 0.29764 0.0
C4172 C 0.249 0.52457 0.30935 0.0
C4173 C 0.2455 0.5888 0.30196 0.0
C4174 C 0.23256 0.53341 0.32394 0.0
C4175 C 0.22673 0.57003 0.3281 0.0
H4176 H 0.42117 0.4872 0.08421 0.0
H4177 H 0.34457 0.52704 1.04952 0.0
H4178 H 0.29436 0.50153 1.0643 0.0
H4179 H 0.27172 0.49011 0.09084 0.0
H4180 H 0.34964 0.46768 0.12787 0.0
H4181 H 0.39773 0.46187 0.10878 0.0
C4182 C 0.39354 0.48981 0.07973 0.0
C4183 C 0.38683 0.51133 1.06633 0.0
C4184 C 0.36414 0.47861 0.08913 0.0
C4185 C 0.3511 0.5118 1.06006 0.0
C4186 C 0.32191 0.49752 1.06866 0.0
C4187 C 0.29915 0.48381 0.09482 0.0
C4188 C 0.30708 0.48292 0.11102 0.0
C4189 C 0.32795 0.48457 0.08393 0.0
C4190 C 0.34211 0.47057 0.11565 0.0
C4191 C 0.37027 0.46758 0.10465 0.0
H4192 H 0.40091 0.61811 0.79509 0.0
H4193 H 0.38863 0.64599 0.84432 0.0
H4194 H 0.40681 0.58485 0.85158 0.0
H4195 H 0.4028 0.52045 0.84427 0.0
H4196 H 0.38674 0.49258 0.79528 0.0
H4197 H 0.40438 0.55372 0.78772 0.0
C4198 C 0.4015 0.61097 0.80746 0.0
C4199 C 0.38954 0.63624 0.81895 0.0
C4200 C 0.40634 0.57421 0.81162 0.0
C4201 C 0.39555 0.6273 0.83491 0.0
C4202 C 0.40563 0.59178 0.83918 0.0
C4203 C 0.40249 0.5276 0.8319 0.0
C4204 C 0.3896 0.50237 0.82061 0.0
C4205 C 0.40697 0.56436 0.82766 0.0
C4206 C 0.39441 0.51126 0.80456 0.0
C4207 C 0.40415 0.54678 0.80013 0.0
H4208 H 0.26946 0.65579 0.54966 0.0
H4209 H 0.35291 0.67569 0.51454 0.0
H4210 H 0.39745 0.68528 0.53484 0.0
H4211 H 0.41719 0.66114 0.5602 0.0
H4212 H 0.33627 0.62356 0.5934 0.0
H4213 H 0.28784 0.64842 0.57714 0.0
C4214 C 0.2973 0.66249 0.54638 0.0
C4215 C 0.30806 0.66135 0.53045 0.0
C4216 C 0.32416 0.66394 0.55812 0.0
C4217 C 0.3434 0.67422 0.52657 0.0
C4218 C 0.36949 0.67946 0.53829 0.0
C4219 C 0.38897 0.65973 0.56414 0.0
C4220 C 0.38018 0.63815 0.5773 0.0
C4221 C 0.36101 0.67008 0.55383 0.0
C4222 C 0.34393 0.63864 0.58293 0.0
C4223 C 0.31595 0.65236 0.57345 0.0
loop_
_geom_bond_atom_site_label_1
_geom_bond_atom_site_label_2
_geom_bond_distance
_geom_bond_site_symmetry_2
_ccdc_geom_bond_type
Tb0 N31 2.660 . S
Tb0 N38 2.600 . S
Tb0 O44 2.546 . S
Tb0 O45 2.610 . S
Tb0 O47 2.320 . S
Tb0 O48 2.552 . S
Tb0 O49 2.413 . S
Tb0 O51 2.362 . S
Tb0 O52 2.421 . S
Tb0 C64 2.833 . S
C1 C4 1.432 . S
C1 C5 1.414 . S
C1 N8 1.359 . S
C2 C4 1.417 . S
C2 C6 1.432 . S
C2 C14 1.410 . S
C3 C5 1.444 . S
C3 C6 1.317 . S
C3 H26 0.929 . S
C4 C1 1.432 . S
C4 C2 1.417 . S
C4 N12 1.360 . S
C5 C1 1.414 . S
C5 C3 1.444 . S
C5 C10 1.385 . S
C6 C2 1.432 . S
C6 C3 1.317 . S
C6 H18 0.930 . S
C7 C9 1.392 . S
C7 C10 1.370 . S
C7 H19 0.931 . S
N8 C1 1.359 . S
N8 C9 1.327 . S
N8 Tb11 2.600 . S
C9 C7 1.392 . S
C9 N8 1.327 . S
C9 H16 0.930 . S
C10 C5 1.385 . S
C10 C7 1.370 . S
C10 H29 0.930 . S
Tb11 N8 2.600 . S
Tb11 N12 2.660 . S
Tb11 O45 2.362 . S
Tb11 O46 2.421 . S
Tb11 O50 2.546 . S
Tb11 O51 2.610 . S
Tb11 O53 2.320 . S
Tb11 O54 2.552 . S
Tb11 O55 2.413 . S
Tb11 C75 2.833 . S
N12 C4 1.360 . S
N12 Tb11 2.660 . S
N12 C13 1.305 . S
C13 N12 1.305 . S
C13 C15 1.407 . S
C13 H20 0.930 . S
C14 C2 1.410 . S
C14 C15 1.345 . S
C14 H22 0.930 . S
C15 C13 1.407 . S
C15 C14 1.345 . S
C15 H17 0.930 . S
H16 C9 0.930 . S
H17 C15 0.930 . S
H18 C6 0.930 . S
H19 C7 0.931 . S
H20 C13 0.930 . S
H21 C35 0.930 . S
H22 C14 0.930 . S
H23 C41 0.930 . S
H24 C32 0.930 . S
H25 C39 0.931 . S
H26 C3 0.929 . S
H27 C33 0.930 . S
H28 C66 0.930 . S
H29 C10 0.930 . S
H30 C65 0.929 . S
N31 Tb0 2.660 . S
N31 C32 1.305 . S
N31 C36 1.360 . S
C32 H24 0.930 . S
C32 N31 1.305 . S
C32 C35 1.407 . S
C33 H27 0.930 . S
C33 C34 1.410 . S
C33 C35 1.345 . S
C34 C33 1.410 . S
C34 C36 1.417 . S
C34 C66 1.432 . S
C35 H21 0.930 . S
C35 C32 1.407 . S
C35 C33 1.345 . S
C36 N31 1.360 . S
C36 C34 1.417 . S
C36 C40 1.432 . S
H37 C42 0.930 . S
N38 Tb0 2.600 . S
N38 C40 1.359 . S
N38 C41 1.327 . S
C39 H25 0.931 . S
C39 C41 1.392 . S
C39 C42 1.370 . S
C40 C36 1.432 . S
C40 N38 1.359 . S
C40 C43 1.414 . S
C41 H23 0.930 . S
C41 N38 1.327 . S
C41 C39 1.392 . S
C42 H37 0.930 . S
C42 C39 1.370 . S
C42 C43 1.385 . S
C43 C40 1.414 . S
C43 C42 1.385 . S
C43 C65 1.444 . S
O44 Tb0 2.546 . S
O44 C64 1.251 . S
O45 Tb0 2.610 . S
O45 Tb11 2.362 . S
O45 C56 1.283 . S
O46 Tb11 2.421 . S
O46 C63 1.262 . S
O47 Tb0 2.320 . S
O47 C63 1.260 . S
O48 Tb0 2.552 . S
O48 C56 1.243 . S
O49 Tb0 2.413 . S
O49 C64 1.256 . S
O50 Tb11 2.546 . S
O50 C75 1.251 . S
O51 Tb0 2.362 . S
O51 Tb11 2.610 . S
O51 C67 1.283 . S
O52 Tb0 2.421 . S
O52 C74 1.262 . S
O53 Tb11 2.320 . S
O53 C74 1.260 . S
O54 Tb11 2.552 . S
O54 C67 1.243 . S
O55 Tb11 2.413 . S
O55 C75 1.256 . S
C56 O45 1.283 . S
C56 O48 1.243 . S
C57 C59 1.382 . S
C57 C61 1.393 . S
C57 C64 1.500 . S
C58 C59 1.400 . S
C58 C60 1.384 . S
C59 C57 1.382 . S
C59 C58 1.400 . S
C59 H76 0.930 . S
C60 C58 1.384 . S
C60 C62 1.392 . S
C60 H77 0.931 . S
C61 C57 1.393 . S
C61 C62 1.401 . S
C61 H78 0.930 . S
C62 C60 1.392 . S
C62 C61 1.401 . S
C62 H79 0.930 . S
C63 O46 1.262 . S
C63 O47 1.260 . S
C64 Tb0 2.833 . S
C64 O44 1.251 . S
C64 O49 1.256 . S
C64 C57 1.500 . S
C65 H30 0.929 . S
C65 C43 1.444 . S
C65 C66 1.317 . S
C66 H28 0.930 . S
C66 C34 1.432 . S
C66 C65 1.317 . S
C67 O51 1.283 . S
C67 O54 1.243 . S
C68 C69 1.382 . S
C68 C72 1.393 . S
C68 C75 1.500 . S
C69 C68 1.382 . S
C69 C70 1.400 . S
C69 H80 0.930 . S
C70 C69 1.400 . S
C70 C71 1.384 . S
C71 C70 1.384 . S
C71 C73 1.392 . S
C71 H81 0.931 . S
C72 C68 1.393 . S
C72 C73 1.401 . S
C72 H82 0.930 . S
C73 C71 1.392 . S
C73 C72 1.401 . S
C73 H83 0.930 . S
C74 O52 1.262 . S
C74 O53 1.260 . S
C75 Tb11 2.833 . S
C75 O50 1.251 . S
C75 O55 1.256 . S
C75 C68 1.500 . S
H76 C59 0.930 . S
H77 C60 0.931 . S
H78 C61 0.930 . S
H79 C62 0.930 . S
H80 C69 0.930 . S
H81 C71 0.931 . S
H82 C72 0.930 . S
H83 C73 0.930 . S
Tb84 N115 2.660 1_455 S
Tb84 N122 2.600 1_465 S
Tb84 O128 2.546 1_455 S
Tb84 O129 2.610 . S
Tb84 O131 2.320 . S
Tb84 O132 2.552 . S
Tb84 O133 2.413 1_455 S
Tb84 O135 2.362 . S
Tb84 O136 2.421 . S
Tb84 C148 2.833 1_455 S
C85 C88 1.432 . S
C85 C89 1.414 . S
C85 N92 1.359 . S
C86 C88 1.417 . S
C86 C90 1.432 . S
C86 C98 1.410 . S
C87 C89 1.444 . S
C87 C90 1.317 . S
C87 H110 0.929 . S
C88 C85 1.432 . S
C88 C86 1.417 . S
C88 N96 1.360 . S
C89 C85 1.414 . S
C89 C87 1.444 . S
C89 C94 1.385 . S
C90 C86 1.432 . S
C90 C87 1.317 . S
C90 H102 0.930 . S
C91 C93 1.392 . S
C91 C94 1.370 . S
C91 H103 0.931 . S
N92 C85 1.359 . S
N92 C93 1.327 . S
N92 Tb95 2.600 . S
C93 C91 1.392 . S
C93 N92 1.327 . S
C93 H100 0.930 . S
C94 C89 1.385 . S
C94 C91 1.370 . S
C94 H113 0.930 . S
Tb95 N92 2.600 . S
Tb95 N96 2.660 . S
Tb95 O129 2.362 . S
Tb95 O130 2.421 . S
Tb95 O134 2.546 . S
Tb95 O135 2.610 . S
Tb95 O137 2.320 . S
Tb95 O138 2.552 . S
Tb95 O139 2.413 . S
Tb95 C159 2.833 . S
N96 C88 1.360 . S
N96 Tb95 2.660 . S
N96 C97 1.305 . S
C97 N96 1.305 . S
C97 C99 1.407 . S
C97 H104 0.930 . S
C98 C86 1.410 . S
C98 C99 1.345 . S
C98 H106 0.930 . S
C99 C97 1.407 . S
C99 C98 1.345 . S
C99 H101 0.930 . S
H100 C93 0.930 . S
H101 C99 0.930 . S
H102 C90 0.930 . S
H103 C91 0.931 . S
H104 C97 0.930 . S
H105 C119 0.930 . S
H106 C98 0.930 . S
H107 C125 0.928 . S
H108 C116 0.930 . S
H109 C123 0.931 . S
H110 C87 0.929 . S
H111 C117 0.930 . S
H112 C150 0.930 . S
H113 C94 0.930 . S
H114 C149 0.929 . S
N115 Tb84 2.660 1_655 S
N115 C116 1.305 . S
N115 C120 1.360 . S
C116 H108 0.930 . S
C116 N115 1.305 . S
C116 C119 1.407 . S
C117 H111 0.930 . S
C117 C118 1.410 1_565 S
C117 C119 1.345 . S
C118 C117 1.410 1_545 S
C118 C120 1.417 1_545 S
C118 C150 1.432 . S
C119 H105 0.930 . S
C119 C116 1.407 . S
C119 C117 1.345 . S
C120 N115 1.360 . S
C120 C118 1.417 1_565 S
C120 C124 1.432 1_565 S
H121 C126 0.930 . S
N122 Tb84 2.600 1_645 S
N122 C124 1.359 . S
N122 C125 1.328 1_655 S
C123 H109 0.931 . S
C123 C125 1.393 1_655 S
C123 C126 1.370 . S
C124 C120 1.432 1_545 S
C124 N122 1.359 . S
C124 C127 1.414 . S
C125 H107 0.928 . S
C125 N122 1.328 1_455 S
C125 C123 1.393 1_455 S
C126 H121 0.930 . S
C126 C123 1.370 . S
C126 C127 1.385 . S
C127 C124 1.414 . S
C127 C126 1.385 . S
C127 C149 1.444 . S
O128 Tb84 2.546 1_655 S
O128 C148 1.251 . S
O129 Tb84 2.610 . S
O129 Tb95 2.362 . S
O129 C140 1.283 . S
O130 Tb95 2.421 . S
O130 C147 1.262 . S
O131 Tb84 2.320 . S
O131 C147 1.260 . S
O132 Tb84 2.552 . S
O132 C140 1.243 . S
O133 Tb84 2.413 1_655 S
O133 C148 1.256 . S
O134 Tb95 2.546 . S
O134 C159 1.251 . S
O135 Tb84 2.362 . S
O135 Tb95 2.610 . S
O135 C151 1.283 . S
O136 Tb84 2.421 . S
O136 C158 1.262 . S
O137 Tb95 2.320 . S
O137 C158 1.260 . S
O138 Tb95 2.552 . S
O138 C151 1.243 . S
O139 Tb95 2.413 . S
O139 C159 1.256 . S
C140 O129 1.283 . S
C140 O132 1.243 . S
C141 C143 1.382 . S
C141 C145 1.393 . S
C141 C148 1.500 . S
C142 C143 1.400 . S
C142 C144 1.384 . S
C143 C141 1.382 . S
C143 C142 1.400 . S
C143 H160 0.930 . S
C144 C142 1.384 . S
C144 C146 1.392 . S
C144 H161 0.931 . S
C145 C141 1.393 . S
C145 C146 1.401 . S
C145 H162 0.930 . S
C146 C144 1.392 . S
C146 C145 1.401 . S
C146 H163 0.930 . S
C147 O130 1.262 . S
C147 O131 1.260 . S
C148 Tb84 2.833 1_655 S
C148 O128 1.251 . S
C148 O133 1.256 . S
C148 C141 1.500 . S
C149 H114 0.929 . S
C149 C127 1.444 . S
C149 C150 1.317 . S
C150 H112 0.930 . S
C150 C118 1.432 . S
C150 C149 1.317 . S
C151 O135 1.283 . S
C151 O138 1.243 . S
C152 C153 1.382 . S
C152 C156 1.393 . S
C152 C159 1.500 . S
C153 C152 1.382 . S
C153 C154 1.400 . S
C153 H164 0.930 . S
C154 C153 1.400 . S
C154 C155 1.384 . S
C155 C154 1.384 . S
C155 C157 1.392 . S
C155 H165 0.931 . S
C156 C152 1.393 . S
C156 C157 1.401 . S
C156 H166 0.930 . S
C157 C155 1.392 . S
C157 C156 1.401 . S
C157 H167 0.930 . S
C158 O136 1.262 . S
C158 O137 1.260 . S
C159 Tb95 2.833 . S
C159 O134 1.251 . S
C159 O139 1.256 . S
C159 C152 1.500 . S
H160 C143 0.930 . S
H161 C144 0.931 . S
H162 C145 0.930 . S
H163 C146 0.930 . S
H164 C153 0.930 . S
H165 C155 0.931 . S
H166 C156 0.930 . S
H167 C157 0.930 . S
Tb168 N199 2.660 . S
Tb168 N206 2.600 . S
Tb168 O212 2.546 . S
Tb168 O213 2.610 . S
Tb168 O215 2.320 . S
Tb168 O216 2.552 . S
Tb168 O217 2.413 . S
Tb168 O219 2.362 . S
Tb168 O220 2.421 . S
Tb168 C232 2.833 . S
C169 C172 1.432 . S
C169 C173 1.414 . S
C169 N176 1.359 . S
C170 C172 1.417 . S
C170 C174 1.432 . S
C170 C182 1.410 . S
C171 C173 1.444 . S
C171 C174 1.317 . S
C171 H194 0.929 . S
C172 C169 1.432 . S
C172 C170 1.417 . S
C172 N180 1.360 . S
C173 C169 1.414 . S
C173 C171 1.444 . S
C173 C178 1.385 . S
C174 C170 1.432 . S
C174 C171 1.317 . S
C174 H186 0.930 . S
C175 C177 1.392 . S
C175 C178 1.370 . S
C175 H187 0.931 . S
N176 C169 1.359 . S
N176 C177 1.327 . S
N176 Tb179 2.600 . S
C177 C175 1.392 . S
C177 N176 1.327 . S
C177 H184 0.930 . S
C178 C173 1.385 . S
C178 C175 1.370 . S
C178 H197 0.930 . S
Tb179 N176 2.600 . S
Tb179 N180 2.660 . S
Tb179 O213 2.362 . S
Tb179 O214 2.421 . S
Tb179 O218 2.546 . S
Tb179 O219 2.610 . S
Tb179 O221 2.320 . S
Tb179 O222 2.552 . S
Tb179 O223 2.413 . S
Tb179 C243 2.833 . S
N180 C172 1.360 . S
N180 Tb179 2.660 . S
N180 C181 1.305 . S
C181 N180 1.305 . S
C181 C183 1.407 . S
C181 H188 0.930 . S
C182 C170 1.410 . S
C182 C183 1.345 . S
C182 H190 0.930 . S
C183 C181 1.407 . S
C183 C182 1.345 . S
C183 H185 0.930 . S
H184 C177 0.930 . S
H185 C183 0.930 . S
H186 C174 0.930 . S
H187 C175 0.931 . S
H188 C181 0.930 . S
H189 C203 0.930 . S
H190 C182 0.930 . S
H191 C209 0.930 . S
H192 C200 0.930 . S
H193 C207 0.931 . S
H194 C171 0.929 . S
H195 C201 0.930 . S
H196 C234 0.930 . S
H197 C178 0.930 . S
H198 C233 0.929 . S
N199 Tb168 2.660 . S
N199 C200 1.305 . S
N199 C204 1.360 . S
C200 H192 0.930 . S
C200 N199 1.305 . S
C200 C203 1.407 . S
C201 H195 0.930 . S
C201 C202 1.410 . S
C201 C203 1.345 . S
C202 C201 1.410 . S
C202 C204 1.417 . S
C202 C234 1.432 . S
C203 H189 0.930 . S
C203 C200 1.407 . S
C203 C201 1.345 . S
C204 N199 1.360 . S
C204 C202 1.417 . S
C204 C208 1.432 . S
H205 C210 0.930 . S
N206 Tb168 2.600 . S
N206 C208 1.359 . S
N206 C209 1.327 . S
C207 H193 0.931 . S
C207 C209 1.392 . S
C207 C210 1.370 . S
C208 C204 1.432 . S
C208 N206 1.359 . S
C208 C211 1.414 . S
C209 H191 0.930 . S
C209 N206 1.327 . S
C209 C207 1.392 . S
C210 H205 0.930 . S
C210 C207 1.370 . S
C210 C211 1.385 . S
C211 C208 1.414 . S
C211 C210 1.385 . S
C211 C233 1.444 . S
O212 Tb168 2.546 . S
O212 C232 1.251 . S
O213 Tb168 2.610 . S
O213 Tb179 2.362 . S
O213 C224 1.283 . S
O214 Tb179 2.421 . S
O214 C231 1.262 . S
O215 Tb168 2.320 . S
O215 C231 1.260 . S
O216 Tb168 2.552 . S
O216 C224 1.243 . S
O217 Tb168 2.413 . S
O217 C232 1.256 . S
O218 Tb179 2.546 . S
O218 C243 1.251 . S
O219 Tb168 2.362 . S
O219 Tb179 2.610 . S
O219 C235 1.283 . S
O220 Tb168 2.421 . S
O220 C242 1.262 . S
O221 Tb179 2.320 . S
O221 C242 1.260 . S
O222 Tb179 2.552 . S
O222 C235 1.243 . S
O223 Tb179 2.413 . S
O223 C243 1.256 . S
C224 O213 1.283 . S
C224 O216 1.243 . S
C225 C227 1.382 . S
C225 C229 1.393 . S
C225 C232 1.500 . S
C226 C227 1.400 . S
C226 C228 1.384 . S
C227 C225 1.382 . S
C227 C226 1.400 . S
C227 H244 0.930 . S
C228 C226 1.384 . S
C228 C230 1.392 . S
C228 H245 0.931 . S
C229 C225 1.393 . S
C229 C230 1.401 . S
C229 H246 0.930 . S
C230 C228 1.392 . S
C230 C229 1.401 . S
C230 H247 0.930 . S
C231 O214 1.262 . S
C231 O215 1.260 . S
C232 Tb168 2.833 . S
C232 O212 1.251 . S
C232 O217 1.256 . S
C232 C225 1.500 . S
C233 H198 0.929 . S
C233 C211 1.444 . S
C233 C234 1.317 . S
C234 H196 0.930 . S
C234 C202 1.432 . S
C234 C233 1.317 . S
C235 O219 1.283 . S
C235 O222 1.243 . S
C236 C237 1.382 . S
C236 C240 1.393 . S
C236 C243 1.500 . S
C237 C236 1.382 . S
C237 C238 1.400 . S
C237 H248 0.930 . S
C238 C237 1.400 . S
C238 C239 1.384 . S
C239 C238 1.384 . S
C239 C241 1.392 . S
C239 H249 0.931 . S
C240 C236 1.393 . S
C240 C241 1.401 . S
C240 H250 0.930 . S
C241 C239 1.392 . S
C241 C240 1.401 . S
C241 H251 0.930 . S
C242 O220 1.262 . S
C242 O221 1.260 . S
C243 Tb179 2.833 . S
C243 O218 1.251 . S
C243 O223 1.256 . S
C243 C236 1.500 . S
H244 C227 0.930 . S
H245 C228 0.931 . S
H246 C229 0.930 . S
H247 C230 0.930 . S
H248 C237 0.930 . S
H249 C239 0.931 . S
H250 C240 0.930 . S
H251 C241 0.930 . S
Tb252 N283 2.660 . S
Tb252 N290 2.600 1_545 S
Tb252 O296 2.546 . S
Tb252 O297 2.610 . S
Tb252 O299 2.320 . S
Tb252 O300 2.552 . S
Tb252 O301 2.413 . S
Tb252 O303 2.362 . S
Tb252 O304 2.421 . S
Tb252 C316 2.833 . S
C253 C256 1.432 . S
C253 C257 1.414 . S
C253 N260 1.359 . S
C254 C256 1.417 . S
C254 C258 1.432 . S
C254 C266 1.410 . S
C255 C257 1.444 . S
C255 C258 1.317 . S
C255 H278 0.929 . S
C256 C253 1.432 . S
C256 C254 1.417 . S
C256 N264 1.360 . S
C257 C253 1.414 . S
C257 C255 1.444 . S
C257 C262 1.385 . S
C258 C254 1.432 . S
C258 C255 1.317 . S
C258 H270 0.930 . S
C259 C261 1.392 . S
C259 C262 1.370 . S
C259 H271 0.931 . S
N260 C253 1.359 . S
N260 C261 1.327 . S
N260 Tb263 2.600 . S
C261 C259 1.392 . S
C261 N260 1.327 . S
C261 H268 0.930 . S
C262 C257 1.385 . S
C262 C259 1.370 . S
C262 H281 0.930 . S
Tb263 N260 2.600 . S
Tb263 N264 2.660 . S
Tb263 O297 2.362 . S
Tb263 O298 2.421 . S
Tb263 O302 2.546 . S
Tb263 O303 2.610 . S
Tb263 O305 2.320 . S
Tb263 O306 2.552 . S
Tb263 O307 2.413 . S
Tb263 C327 2.833 . S
N264 C256 1.360 . S
N264 Tb263 2.660 . S
N264 C265 1.305 . S
C265 N264 1.305 . S
C265 C267 1.407 . S
C265 H272 0.930 . S
C266 C254 1.410 . S
C266 C267 1.345 . S
C266 H274 0.930 . S
C267 C265 1.407 . S
C267 C266 1.345 . S
C267 H269 0.930 . S
H268 C261 0.930 . S
H269 C267 0.930 . S
H270 C258 0.930 . S
H271 C259 0.931 . S
H272 C265 0.930 . S
H273 C287 0.930 . S
H274 C266 0.930 . S
H275 C293 0.930 . S
H276 C284 0.930 . S
H277 C291 0.931 . S
H278 C255 0.929 . S
H279 C285 0.930 . S
H280 C318 0.930 . S
H281 C262 0.930 . S
H282 C317 0.929 . S
N283 Tb252 2.660 . S
N283 C284 1.305 . S
N283 C288 1.360 . S
C284 H276 0.930 . S
C284 N283 1.305 . S
C284 C287 1.407 . S
C285 H279 0.930 . S
C285 C286 1.410 1_545 S
C285 C287 1.345 . S
C286 C285 1.410 1_565 S
C286 C288 1.417 1_565 S
C286 C318 1.432 . S
C287 H273 0.930 . S
C287 C284 1.407 . S
C287 C285 1.345 . S
C288 N283 1.360 . S
C288 C286 1.417 1_545 S
C288 C292 1.432 1_545 S
H289 C294 0.930 . S
N290 Tb252 2.600 1_565 S
N290 C292 1.359 . S
N290 C293 1.327 . S
C291 H277 0.931 . S
C291 C293 1.392 . S
C291 C294 1.370 . S
C292 C288 1.432 1_565 S
C292 N290 1.359 . S
C292 C295 1.414 . S
C293 H275 0.930 . S
C293 N290 1.327 . S
C293 C291 1.392 . S
C294 H289 0.930 . S
C294 C291 1.370 . S
C294 C295 1.385 . S
C295 C292 1.414 . S
C295 C294 1.385 . S
C295 C317 1.444 . S
O296 Tb252 2.546 . S
O296 C316 1.251 . S
O297 Tb252 2.610 . S
O297 Tb263 2.362 . S
O297 C308 1.283 . S
O298 Tb263 2.421 . S
O298 C315 1.262 . S
O299 Tb252 2.320 . S
O299 C315 1.260 . S
O300 Tb252 2.552 . S
O300 C308 1.243 . S
O301 Tb252 2.413 . S
O301 C316 1.256 . S
O302 Tb263 2.546 . S
O302 C327 1.251 . S
O303 Tb252 2.362 . S
O303 Tb263 2.610 . S
O303 C319 1.283 . S
O304 Tb252 2.421 . S
O304 C326 1.262 . S
O305 Tb263 2.320 . S
O305 C326 1.260 . S
O306 Tb263 2.552 . S
O306 C319 1.243 . S
O307 Tb263 2.413 . S
O307 C327 1.256 . S
C308 O297 1.283 . S
C308 O300 1.243 . S
C309 C311 1.382 . S
C309 C313 1.393 . S
C309 C316 1.500 . S
C310 C311 1.400 . S
C310 C312 1.384 . S
C311 C309 1.382 . S
C311 C310 1.400 . S
C311 H328 0.930 . S
C312 C310 1.384 . S
C312 C314 1.392 . S
C312 H329 0.931 . S
C313 C309 1.393 . S
C313 C314 1.401 . S
C313 H330 0.930 . S
C314 C312 1.392 . S
C314 C313 1.401 . S
C314 H331 0.930 . S
C315 O298 1.262 . S
C315 O299 1.260 . S
C316 Tb252 2.833 . S
C316 O296 1.251 . S
C316 O301 1.256 . S
C316 C309 1.500 . S
C317 H282 0.929 . S
C317 C295 1.444 . S
C317 C318 1.317 . S
C318 H280 0.930 . S
C318 C286 1.432 . S
C318 C317 1.317 . S
C319 O303 1.283 . S
C319 O306 1.243 . S
C320 C321 1.382 . S
C320 C324 1.393 . S
C320 C327 1.500 . S
C321 C320 1.382 . S
C321 C322 1.400 . S
C321 H332 0.930 . S
C322 C321 1.400 . S
C322 C323 1.384 . S
C323 C322 1.384 . S
C323 C325 1.392 . S
C323 H333 0.931 . S
C324 C320 1.393 . S
C324 C325 1.401 . S
C324 H334 0.930 . S
C325 C323 1.392 . S
C325 C324 1.401 . S
C325 H335 0.930 . S
C326 O304 1.262 . S
C326 O305 1.260 . S
C327 Tb263 2.833 . S
C327 O302 1.251 . S
C327 O307 1.256 . S
C327 C320 1.500 . S
H328 C311 0.930 . S
H329 C312 0.931 . S
H330 C313 0.930 . S
H331 C314 0.930 . S
H332 C321 0.930 . S
H333 C323 0.931 . S
H334 C324 0.930 . S
H335 C325 0.930 . S
Tb336 N367 2.660 . S
Tb336 N374 2.600 . S
Tb336 O380 2.546 . S
Tb336 O381 2.610 . S
Tb336 O383 2.320 . S
Tb336 O384 2.552 . S
Tb336 O385 2.413 . S
Tb336 O387 2.362 . S
Tb336 O388 2.421 . S
Tb336 C400 2.833 . S
C337 C340 1.432 . S
C337 C341 1.414 . S
C337 N344 1.359 . S
C338 C340 1.417 . S
C338 C342 1.432 . S
C338 C350 1.410 . S
C339 C341 1.444 . S
C339 C342 1.317 . S
C339 H362 0.929 . S
C340 C337 1.432 . S
C340 C338 1.417 . S
C340 N348 1.360 . S
C341 C337 1.414 . S
C341 C339 1.444 . S
C341 C346 1.385 . S
C342 C338 1.432 . S
C342 C339 1.317 . S
C342 H354 0.930 . S
C343 C345 1.392 . S
C343 C346 1.370 . S
C343 H355 0.931 . S
N344 C337 1.359 . S
N344 C345 1.327 . S
N344 Tb347 2.600 . S
C345 C343 1.392 . S
C345 N344 1.327 . S
C345 H352 0.930 . S
C346 C341 1.385 . S
C346 C343 1.370 . S
C346 H365 0.930 . S
Tb347 N344 2.600 . S
Tb347 N348 2.660 . S
Tb347 O381 2.362 . S
Tb347 O382 2.421 . S
Tb347 O386 2.546 . S
Tb347 O387 2.610 . S
Tb347 O389 2.320 . S
Tb347 O390 2.552 . S
Tb347 O391 2.413 . S
Tb347 C411 2.833 . S
N348 C340 1.360 . S
N348 Tb347 2.660 . S
N348 C349 1.305 . S
C349 N348 1.305 . S
C349 C351 1.407 . S
C349 H356 0.930 . S
C350 C338 1.410 . S
C350 C351 1.345 . S
C350 H358 0.930 . S
C351 C349 1.407 . S
C351 C350 1.345 . S
C351 H353 0.930 . S
H352 C345 0.930 . S
H353 C351 0.930 . S
H354 C342 0.930 . S
H355 C343 0.931 . S
H356 C349 0.930 . S
H357 C371 0.930 . S
H358 C350 0.930 . S
H359 C377 0.930 . S
H360 C368 0.930 . S
H361 C375 0.931 . S
H362 C339 0.929 . S
H363 C369 0.930 . S
H364 C402 0.930 . S
H365 C346 0.930 . S
H366 C401 0.929 . S
N367 Tb336 2.660 . S
N367 C368 1.305 . S
N367 C372 1.360 . S
C368 H360 0.930 . S
C368 N367 1.305 . S
C368 C371 1.407 . S
C369 H363 0.930 . S
C369 C370 1.410 . S
C369 C371 1.345 . S
C370 C369 1.410 . S
C370 C372 1.417 . S
C370 C402 1.432 . S
C371 H357 0.930 . S
C371 C368 1.407 . S
C371 C369 1.345 . S
C372 N367 1.360 . S
C372 C370 1.417 . S
C372 C376 1.432 . S
H373 C378 0.930 . S
N374 Tb336 2.600 . S
N374 C376 1.359 . S
N374 C377 1.327 . S
C375 H361 0.931 . S
C375 C377 1.392 . S
C375 C378 1.370 . S
C376 C372 1.432 . S
C376 N374 1.359 . S
C376 C379 1.414 . S
C377 H359 0.930 . S
C377 N374 1.327 . S
C377 C375 1.392 . S
C378 H373 0.930 . S
C378 C375 1.370 . S
C378 C379 1.385 . S
C379 C376 1.414 . S
C379 C378 1.385 . S
C379 C401 1.444 . S
O380 Tb336 2.546 . S
O380 C400 1.251 . S
O381 Tb336 2.610 . S
O381 Tb347 2.362 . S
O381 C392 1.283 . S
O382 Tb347 2.421 . S
O382 C399 1.262 . S
O383 Tb336 2.320 . S
O383 C399 1.260 . S
O384 Tb336 2.552 . S
O384 C392 1.243 . S
O385 Tb336 2.413 . S
O385 C400 1.256 . S
O386 Tb347 2.546 . S
O386 C411 1.251 . S
O387 Tb336 2.362 . S
O387 Tb347 2.610 . S
O387 C403 1.283 . S
O388 Tb336 2.421 . S
O388 C410 1.262 . S
O389 Tb347 2.320 . S
O389 C410 1.260 . S
O390 Tb347 2.552 . S
O390 C403 1.243 . S
O391 Tb347 2.413 . S
O391 C411 1.256 . S
C392 O381 1.283 . S
C392 O384 1.243 . S
C393 C395 1.382 . S
C393 C397 1.393 . S
C393 C400 1.500 . S
C394 C395 1.400 . S
C394 C396 1.384 . S
C395 C393 1.382 . S
C395 C394 1.400 . S
C395 H412 0.930 . S
C396 C394 1.384 . S
C396 C398 1.392 . S
C396 H413 0.931 . S
C397 C393 1.393 . S
C397 C398 1.401 . S
C397 H414 0.930 . S
C398 C396 1.392 . S
C398 C397 1.401 . S
C398 H415 0.930 . S
C399 O382 1.262 . S
C399 O383 1.260 . S
C400 Tb336 2.833 . S
C400 O380 1.251 . S
C400 O385 1.256 . S
C400 C393 1.500 . S
C401 H366 0.929 . S
C401 C379 1.444 . S
C401 C402 1.317 . S
C402 H364 0.930 . S
C402 C370 1.432 . S
C402 C401 1.317 . S
C403 O387 1.283 . S
C403 O390 1.243 . S
C404 C405 1.382 . S
C404 C408 1.393 . S
C404 C411 1.500 . S
C405 C404 1.382 . S
C405 C406 1.400 . S
C405 H416 0.930 . S
C406 C405 1.400 . S
C406 C407 1.384 . S
C407 C406 1.384 . S
C407 C409 1.392 . S
C407 H417 0.931 . S
C408 C404 1.393 . S
C408 C409 1.401 . S
C408 H418 0.930 . S
C409 C407 1.392 . S
C409 C408 1.401 . S
C409 H419 0.930 . S
C410 O388 1.262 . S
C410 O389 1.260 . S
C411 Tb347 2.833 . S
C411 O386 1.251 . S
C411 O391 1.256 . S
C411 C404 1.500 . S
H412 C395 0.930 . S
H413 C396 0.931 . S
H414 C397 0.930 . S
H415 C398 0.930 . S
H416 C405 0.930 . S
H417 C407 0.931 . S
H418 C408 0.930 . S
H419 C409 0.930 . S
Tb420 N451 2.660 . S
Tb420 N458 2.600 1_565 S
Tb420 O464 2.546 . S
Tb420 O465 2.610 . S
Tb420 O467 2.320 . S
Tb420 O468 2.552 . S
Tb420 O469 2.413 . S
Tb420 O471 2.362 . S
Tb420 O472 2.421 . S
Tb420 C484 2.833 . S
C421 C424 1.432 . S
C421 C425 1.414 . S
C421 N428 1.359 . S
C422 C424 1.417 . S
C422 C426 1.432 . S
C422 C434 1.410 . S
C423 C425 1.444 . S
C423 C426 1.317 . S
C423 H446 0.929 . S
C424 C421 1.432 . S
C424 C422 1.417 . S
C424 N432 1.360 . S
C425 C421 1.414 . S
C425 C423 1.444 . S
C425 C430 1.385 . S
C426 C422 1.432 . S
C426 C423 1.317 . S
C426 H438 0.930 . S
C427 C429 1.392 . S
C427 C430 1.370 . S
C427 H439 0.931 . S
N428 C421 1.359 . S
N428 C429 1.327 . S
N428 Tb431 2.600 . S
C429 C427 1.392 . S
C429 N428 1.327 . S
C429 H436 0.930 . S
C430 C425 1.385 . S
C430 C427 1.370 . S
C430 H449 0.930 . S
Tb431 N428 2.600 . S
Tb431 N432 2.660 . S
Tb431 O465 2.362 . S
Tb431 O466 2.421 . S
Tb431 O470 2.546 . S
Tb431 O471 2.610 . S
Tb431 O473 2.320 . S
Tb431 O474 2.552 . S
Tb431 O475 2.413 . S
Tb431 C495 2.833 . S
N432 C424 1.360 . S
N432 Tb431 2.660 . S
N432 C433 1.305 . S
C433 N432 1.305 . S
C433 C435 1.407 . S
C433 H440 0.930 . S
C434 C422 1.410 . S
C434 C435 1.345 . S
C434 H442 0.930 . S
C435 C433 1.407 . S
C435 C434 1.345 . S
C435 H437 0.930 . S
H436 C429 0.930 . S
H437 C435 0.930 . S
H438 C426 0.930 . S
H439 C427 0.931 . S
H440 C433 0.930 . S
H441 C455 0.930 . S
H442 C434 0.930 . S
H443 C461 0.930 . S
H444 C452 0.930 . S
H445 C459 0.931 . S
H446 C423 0.929 . S
H447 C453 0.930 . S
H448 C486 0.930 . S
H449 C430 0.930 . S
H450 C485 0.929 . S
N451 Tb420 2.660 . S
N451 C452 1.305 . S
N451 C456 1.360 . S
C452 H444 0.930 . S
C452 N451 1.305 . S
C452 C455 1.407 . S
C453 H447 0.930 . S
C453 C454 1.410 1_565 S
C453 C455 1.345 . S
C454 C453 1.410 1_545 S
C454 C456 1.417 1_545 S
C454 C486 1.432 . S
C455 H441 0.930 . S
C455 C452 1.407 . S
C455 C453 1.345 . S
C456 N451 1.360 . S
C456 C454 1.417 1_565 S
C456 C460 1.432 1_565 S
H457 C462 0.930 . S
N458 Tb420 2.600 1_545 S
N458 C460 1.359 . S
N458 C461 1.327 . S
C459 H445 0.931 . S
C459 C461 1.392 . S
C459 C462 1.370 . S
C460 C456 1.432 1_545 S
C460 N458 1.359 . S
C460 C463 1.414 . S
C461 H443 0.930 . S
C461 N458 1.327 . S
C461 C459 1.392 . S
C462 H457 0.930 . S
C462 C459 1.370 . S
C462 C463 1.385 . S
C463 C460 1.414 . S
C463 C462 1.385 . S
C463 C485 1.444 . S
O464 Tb420 2.546 . S
O464 C484 1.251 . S
O465 Tb420 2.610 . S
O465 Tb431 2.362 . S
O465 C476 1.283 . S
O466 Tb431 2.421 . S
O466 C483 1.262 . S
O467 Tb420 2.320 . S
O467 C483 1.260 . S
O468 Tb420 2.552 . S
O468 C476 1.243 . S
O469 Tb420 2.413 . S
O469 C484 1.256 . S
O470 Tb431 2.546 . S
O470 C495 1.251 . S
O471 Tb420 2.362 . S
O471 Tb431 2.610 . S
O471 C487 1.283 . S
O472 Tb420 2.421 . S
O472 C494 1.262 . S
O473 Tb431 2.320 . S
O473 C494 1.260 . S
O474 Tb431 2.552 . S
O474 C487 1.243 . S
O475 Tb431 2.413 . S
O475 C495 1.256 . S
C476 O465 1.283 . S
C476 O468 1.243 . S
C477 C479 1.382 . S
C477 C481 1.393 . S
C477 C484 1.500 . S
C478 C479 1.400 . S
C478 C480 1.384 . S
C479 C477 1.382 . S
C479 C478 1.400 . S
C479 H496 0.930 . S
C480 C478 1.384 . S
C480 C482 1.392 . S
C480 H497 0.931 . S
C481 C477 1.393 . S
C481 C482 1.401 . S
C481 H498 0.930 . S
C482 C480 1.392 . S
C482 C481 1.401 . S
C482 H499 0.930 . S
C483 O466 1.262 . S
C483 O467 1.260 . S
C484 Tb420 2.833 . S
C484 O464 1.251 . S
C484 O469 1.256 . S
C484 C477 1.500 . S
C485 H450 0.929 . S
C485 C463 1.444 . S
C485 C486 1.317 . S
C486 H448 0.930 . S
C486 C454 1.432 . S
C486 C485 1.317 . S
C487 O471 1.283 . S
C487 O474 1.243 . S
C488 C489 1.382 . S
C488 C492 1.393 . S
C488 C495 1.500 . S
C489 C488 1.382 . S
C489 C490 1.400 . S
C489 H500 0.930 . S
C490 C489 1.400 . S
C490 C491 1.384 . S
C491 C490 1.384 . S
C491 C493 1.392 . S
C491 H501 0.931 . S
C492 C488 1.393 . S
C492 C493 1.401 . S
C492 H502 0.930 . S
C493 C491 1.392 . S
C493 C492 1.401 . S
C493 H503 0.930 . S
C494 O472 1.262 . S
C494 O473 1.260 . S
C495 Tb431 2.833 . S
C495 O470 1.251 . S
C495 O475 1.256 . S
C495 C488 1.500 . S
H496 C479 0.930 . S
H497 C480 0.931 . S
H498 C481 0.930 . S
H499 C482 0.930 . S
H500 C489 0.930 . S
H501 C491 0.931 . S
H502 C492 0.930 . S
H503 C493 0.930 . S
Tb504 N535 2.660 . S
Tb504 N542 2.600 . S
Tb504 O548 2.546 . S
Tb504 O549 2.610 . S
Tb504 O551 2.320 . S
Tb504 O552 2.552 . S
Tb504 O553 2.413 . S
Tb504 O555 2.362 . S
Tb504 O556 2.421 . S
Tb504 C568 2.833 . S
C505 C508 1.432 . S
C505 C509 1.414 . S
C505 N512 1.359 . S
C506 C508 1.417 . S
C506 C510 1.432 . S
C506 C518 1.410 . S
C507 C509 1.444 . S
C507 C510 1.317 . S
C507 H530 0.929 . S
C508 C505 1.432 . S
C508 C506 1.417 . S
C508 N516 1.360 . S
C509 C505 1.414 . S
C509 C507 1.444 . S
C509 C514 1.385 . S
C510 C506 1.432 . S
C510 C507 1.317 . S
C510 H522 0.930 . S
C511 C513 1.392 . S
C511 C514 1.370 . S
C511 H523 0.931 . S
N512 C505 1.359 . S
N512 C513 1.327 . S
N512 Tb515 2.600 . S
C513 C511 1.392 . S
C513 N512 1.327 . S
C513 H520 0.930 . S
C514 C509 1.385 . S
C514 C511 1.370 . S
C514 H533 0.930 . S
Tb515 N512 2.600 . S
Tb515 N516 2.660 . S
Tb515 O549 2.362 . S
Tb515 O550 2.421 . S
Tb515 O554 2.546 . S
Tb515 O555 2.610 . S
Tb515 O557 2.320 . S
Tb515 O558 2.552 . S
Tb515 O559 2.413 . S
Tb515 C579 2.833 . S
N516 C508 1.360 . S
N516 Tb515 2.660 . S
N516 C517 1.305 . S
C517 N516 1.305 . S
C517 C519 1.407 . S
C517 H524 0.930 . S
C518 C506 1.410 . S
C518 C519 1.345 . S
C518 H526 0.930 . S
C519 C517 1.407 . S
C519 C518 1.345 . S
C519 H521 0.930 . S
H520 C513 0.930 . S
H521 C519 0.930 . S
H522 C510 0.930 . S
H523 C511 0.931 . S
H524 C517 0.930 . S
H525 C539 0.930 . S
H526 C518 0.930 . S
H527 C545 0.930 . S
H528 C536 0.930 . S
H529 C543 0.931 . S
H530 C507 0.929 . S
H531 C537 0.930 . S
H532 C570 0.930 . S
H533 C514 0.930 . S
H534 C569 0.929 . S
N535 Tb504 2.660 . S
N535 C536 1.305 . S
N535 C540 1.360 . S
C536 H528 0.930 . S
C536 N535 1.305 . S
C536 C539 1.407 . S
C537 H531 0.930 . S
C537 C538 1.410 . S
C537 C539 1.345 . S
C538 C537 1.410 . S
C538 C540 1.417 . S
C538 C570 1.432 . S
C539 H525 0.930 . S
C539 C536 1.407 . S
C539 C537 1.345 . S
C540 N535 1.360 . S
C540 C538 1.417 . S
C540 C544 1.432 . S
H541 C546 0.930 . S
N542 Tb504 2.600 . S
N542 C544 1.359 . S
N542 C545 1.327 . S
C543 H529 0.931 . S
C543 C545 1.392 . S
C543 C546 1.370 . S
C544 C540 1.432 . S
C544 N542 1.359 . S
C544 C547 1.414 . S
C545 H527 0.930 . S
C545 N542 1.327 . S
C545 C543 1.392 . S
C546 H541 0.930 . S
C546 C543 1.370 . S
C546 C547 1.385 . S
C547 C544 1.414 . S
C547 C546 1.385 . S
C547 C569 1.444 . S
O548 Tb504 2.546 . S
O548 C568 1.251 . S
O549 Tb504 2.610 . S
O549 Tb515 2.362 . S
O549 C560 1.283 . S
O550 Tb515 2.421 . S
O550 C567 1.262 . S
O551 Tb504 2.320 . S
O551 C567 1.260 . S
O552 Tb504 2.552 . S
O552 C560 1.243 . S
O553 Tb504 2.413 . S
O553 C568 1.256 . S
O554 Tb515 2.546 . S
O554 C579 1.251 . S
O555 Tb504 2.362 . S
O555 Tb515 2.610 . S
O555 C571 1.283 . S
O556 Tb504 2.421 . S
O556 C578 1.262 . S
O557 Tb515 2.320 . S
O557 C578 1.260 . S
O558 Tb515 2.552 . S
O558 C571 1.243 . S
O559 Tb515 2.413 . S
O559 C579 1.256 . S
C560 O549 1.283 . S
C560 O552 1.243 . S
C561 C563 1.382 . S
C561 C565 1.393 . S
C561 C568 1.500 . S
C562 C563 1.400 . S
C562 C564 1.384 . S
C563 C561 1.382 . S
C563 C562 1.400 . S
C563 H580 0.930 . S
C564 C562 1.384 . S
C564 C566 1.392 . S
C564 H581 0.931 . S
C565 C561 1.393 . S
C565 C566 1.401 . S
C565 H582 0.930 . S
C566 C564 1.392 . S
C566 C565 1.401 . S
C566 H583 0.930 . S
C567 O550 1.262 . S
C567 O551 1.260 . S
C568 Tb504 2.833 . S
C568 O548 1.251 . S
C568 O553 1.256 . S
C568 C561 1.500 . S
C569 H534 0.929 . S
C569 C547 1.444 . S
C569 C570 1.317 . S
C570 H532 0.930 . S
C570 C538 1.432 . S
C570 C569 1.317 . S
C571 O555 1.283 . S
C571 O558 1.243 . S
C572 C573 1.382 . S
C572 C576 1.393 . S
C572 C579 1.500 . S
C573 C572 1.382 . S
C573 C574 1.400 . S
C573 H584 0.930 . S
C574 C573 1.400 . S
C574 C575 1.384 . S
C575 C574 1.384 . S
C575 C577 1.392 . S
C575 H585 0.931 . S
C576 C572 1.393 . S
C576 C577 1.401 . S
C576 H586 0.930 . S
C577 C575 1.392 . S
C577 C576 1.401 . S
C577 H587 0.930 . S
C578 O556 1.262 . S
C578 O557 1.260 . S
C579 Tb515 2.833 . S
C579 O554 1.251 . S
C579 O559 1.256 . S
C579 C572 1.500 . S
H580 C563 0.930 . S
H581 C564 0.931 . S
H582 C565 0.930 . S
H583 C566 0.930 . S
H584 C573 0.930 . S
H585 C575 0.931 . S
H586 C576 0.930 . S
H587 C577 0.930 . S
Tb588 N619 2.660 1_455 S
Tb588 N626 2.600 1_445 S
Tb588 O632 2.546 1_455 S
Tb588 O633 2.610 . S
Tb588 O635 2.320 . S
Tb588 O636 2.552 . S
Tb588 O637 2.413 1_455 S
Tb588 O639 2.362 . S
Tb588 O640 2.421 . S
Tb588 C652 2.833 1_455 S
C589 C592 1.432 . S
C589 C593 1.414 . S
C589 N596 1.359 . S
C590 C592 1.417 . S
C590 C594 1.432 . S
C590 C602 1.410 . S
C591 C593 1.444 . S
C591 C594 1.317 . S
C591 H614 0.929 . S
C592 C589 1.432 . S
C592 C590 1.417 . S
C592 N600 1.360 . S
C593 C589 1.414 . S
C593 C591 1.444 . S
C593 C598 1.385 . S
C594 C590 1.432 . S
C594 C591 1.317 . S
C594 H606 0.930 . S
C595 C597 1.392 . S
C595 C598 1.370 . S
C595 H607 0.931 . S
N596 C589 1.359 . S
N596 C597 1.327 . S
N596 Tb599 2.600 . S
C597 C595 1.392 . S
C597 N596 1.327 . S
C597 H604 0.930 . S
C598 C593 1.385 . S
C598 C595 1.370 . S
C598 H617 0.930 . S
Tb599 N596 2.600 . S
Tb599 N600 2.660 . S
Tb599 O633 2.362 . S
Tb599 O634 2.421 . S
Tb599 O638 2.546 . S
Tb599 O639 2.610 . S
Tb599 O641 2.320 . S
Tb599 O642 2.552 . S
Tb599 O643 2.413 . S
Tb599 C663 2.833 . S
N600 C592 1.360 . S
N600 Tb599 2.660 . S
N600 C601 1.305 . S
C601 N600 1.305 . S
C601 C603 1.407 . S
C601 H608 0.930 . S
C602 C590 1.410 . S
C602 C603 1.345 . S
C602 H610 0.930 . S
C603 C601 1.407 . S
C603 C602 1.345 . S
C603 H605 0.930 . S
H604 C597 0.930 . S
H605 C603 0.930 . S
H606 C594 0.930 . S
H607 C595 0.931 . S
H608 C601 0.930 . S
H609 C623 0.930 . S
H610 C602 0.930 . S
H611 C629 0.928 . S
H612 C620 0.930 . S
H613 C627 0.931 . S
H614 C591 0.929 . S
H615 C621 0.930 . S
H616 C654 0.930 . S
H617 C598 0.930 . S
H618 C653 0.929 . S
N619 Tb588 2.660 1_655 S
N619 C620 1.305 . S
N619 C624 1.360 . S
C620 H612 0.930 . S
C620 N619 1.305 . S
C620 C623 1.407 . S
C621 H615 0.930 . S
C621 C622 1.410 1_545 S
C621 C623 1.345 . S
C622 C621 1.410 1_565 S
C622 C624 1.417 1_565 S
C622 C654 1.432 . S
C623 H609 0.930 . S
C623 C620 1.407 . S
C623 C621 1.345 . S
C624 N619 1.360 . S
C624 C622 1.417 1_545 S
C624 C628 1.432 1_545 S
H625 C630 0.930 . S
N626 Tb588 2.600 1_665 S
N626 C628 1.359 . S
N626 C629 1.328 1_655 S
C627 H613 0.931 . S
C627 C629 1.393 1_655 S
C627 C630 1.370 . S
C628 C624 1.432 1_565 S
C628 N626 1.359 . S
C628 C631 1.414 . S
C629 H611 0.928 . S
C629 N626 1.328 1_455 S
C629 C627 1.393 1_455 S
C630 H625 0.930 . S
C630 C627 1.370 . S
C630 C631 1.385 . S
C631 C628 1.414 . S
C631 C630 1.385 . S
C631 C653 1.444 . S
O632 Tb588 2.546 1_655 S
O632 C652 1.251 . S
O633 Tb588 2.610 . S
O633 Tb599 2.362 . S
O633 C644 1.283 . S
O634 Tb599 2.421 . S
O634 C651 1.262 . S
O635 Tb588 2.320 . S
O635 C651 1.260 . S
O636 Tb588 2.552 . S
O636 C644 1.243 . S
O637 Tb588 2.413 1_655 S
O637 C652 1.256 . S
O638 Tb599 2.546 . S
O638 C663 1.251 . S
O639 Tb588 2.362 . S
O639 Tb599 2.610 . S
O639 C655 1.283 . S
O640 Tb588 2.421 . S
O640 C662 1.262 . S
O641 Tb599 2.320 . S
O641 C662 1.260 . S
O642 Tb599 2.552 . S
O642 C655 1.243 . S
O643 Tb599 2.413 . S
O643 C663 1.256 . S
C644 O633 1.283 . S
C644 O636 1.243 . S
C645 C647 1.382 . S
C645 C649 1.393 . S
C645 C652 1.500 . S
C646 C647 1.400 . S
C646 C648 1.384 . S
C647 C645 1.382 . S
C647 C646 1.400 . S
C647 H664 0.930 . S
C648 C646 1.384 . S
C648 C650 1.392 . S
C648 H665 0.931 . S
C649 C645 1.393 . S
C649 C650 1.401 . S
C649 H666 0.930 . S
C650 C648 1.392 . S
C650 C649 1.401 . S
C650 H667 0.930 . S
C651 O634 1.262 . S
C651 O635 1.260 . S
C652 Tb588 2.833 1_655 S
C652 O632 1.251 . S
C652 O637 1.256 . S
C652 C645 1.500 . S
C653 H618 0.929 . S
C653 C631 1.444 . S
C653 C654 1.317 . S
C654 H616 0.930 . S
C654 C622 1.432 . S
C654 C653 1.317 . S
C655 O639 1.283 . S
C655 O642 1.243 . S
C656 C657 1.382 . S
C656 C660 1.393 . S
C656 C663 1.500 . S
C657 C656 1.382 . S
C657 C658 1.400 . S
C657 H668 0.930 . S
C658 C657 1.400 . S
C658 C659 1.384 . S
C659 C658 1.384 . S
C659 C661 1.392 . S
C659 H669 0.931 . S
C660 C656 1.393 . S
C660 C661 1.401 . S
C660 H670 0.930 . S
C661 C659 1.392 . S
C661 C660 1.401 . S
C661 H671 0.930 . S
C662 O640 1.262 . S
C662 O641 1.260 . S
C663 Tb599 2.833 . S
C663 O638 1.251 . S
C663 O643 1.256 . S
C663 C656 1.500 . S
H664 C647 0.930 . S
H665 C648 0.931 . S
H666 C649 0.930 . S
H667 C650 0.930 . S
H668 C657 0.930 . S
H669 C659 0.931 . S
H670 C660 0.930 . S
H671 C661 0.930 . S
Tb672 N703 2.660 . S
Tb672 N710 2.600 . S
Tb672 O716 2.546 . S
Tb672 O717 2.610 . S
Tb672 O719 2.320 . S
Tb672 O720 2.552 . S
Tb672 O721 2.413 . S
Tb672 O723 2.362 . S
Tb672 O724 2.421 . S
Tb672 C736 2.833 . S
C673 C676 1.432 . S
C673 C677 1.414 . S
C673 N680 1.359 . S
C674 C676 1.417 . S
C674 C678 1.432 . S
C674 C686 1.410 . S
C675 C677 1.444 . S
C675 C678 1.317 . S
C675 H698 0.929 . S
C676 C673 1.432 . S
C676 C674 1.417 . S
C676 N684 1.360 . S
C677 C673 1.414 . S
C677 C675 1.444 . S
C677 C682 1.385 . S
C678 C674 1.432 . S
C678 C675 1.317 . S
C678 H690 0.930 . S
C679 C681 1.392 . S
C679 C682 1.370 . S
C679 H691 0.931 . S
N680 C673 1.359 . S
N680 C681 1.327 . S
N680 Tb683 2.600 . S
C681 C679 1.392 . S
C681 N680 1.327 . S
C681 H688 0.930 . S
C682 C677 1.385 . S
C682 C679 1.370 . S
C682 H701 0.930 . S
Tb683 N680 2.600 . S
Tb683 N684 2.660 . S
Tb683 O717 2.362 . S
Tb683 O718 2.421 . S
Tb683 O722 2.546 . S
Tb683 O723 2.610 . S
Tb683 O725 2.320 . S
Tb683 O726 2.552 . S
Tb683 O727 2.413 . S
Tb683 C747 2.833 . S
N684 C676 1.360 . S
N684 Tb683 2.660 . S
N684 C685 1.305 . S
C685 N684 1.305 . S
C685 C687 1.407 . S
C685 H692 0.930 . S
C686 C674 1.410 . S
C686 C687 1.345 . S
C686 H694 0.930 . S
C687 C685 1.407 . S
C687 C686 1.345 . S
C687 H689 0.930 . S
H688 C681 0.930 . S
H689 C687 0.930 . S
H690 C678 0.930 . S
H691 C679 0.931 . S
H692 C685 0.930 . S
H693 C707 0.930 . S
H694 C686 0.930 . S
H695 C713 0.930 . S
H696 C704 0.930 . S
H697 C711 0.931 . S
H698 C675 0.929 . S
H699 C705 0.930 . S
H700 C738 0.930 . S
H701 C682 0.930 . S
H702 C737 0.929 . S
N703 Tb672 2.660 . S
N703 C704 1.305 . S
N703 C708 1.360 . S
C704 H696 0.930 . S
C704 N703 1.305 . S
C704 C707 1.407 . S
C705 H699 0.930 . S
C705 C706 1.410 . S
C705 C707 1.345 . S
C706 C705 1.410 . S
C706 C708 1.417 . S
C706 C738 1.432 . S
C707 H693 0.930 . S
C707 C704 1.407 . S
C707 C705 1.345 . S
C708 N703 1.360 . S
C708 C706 1.417 . S
C708 C712 1.432 . S
H709 C714 0.930 . S
N710 Tb672 2.600 . S
N710 C712 1.359 . S
N710 C713 1.327 . S
C711 H697 0.931 . S
C711 C713 1.392 . S
C711 C714 1.370 . S
C712 C708 1.432 . S
C712 N710 1.359 . S
C712 C715 1.414 . S
C713 H695 0.930 . S
C713 N710 1.327 . S
C713 C711 1.392 . S
C714 H709 0.930 . S
C714 C711 1.370 . S
C714 C715 1.385 . S
C715 C712 1.414 . S
C715 C714 1.385 . S
C715 C737 1.444 . S
O716 Tb672 2.546 . S
O716 C736 1.251 . S
O717 Tb672 2.610 . S
O717 Tb683 2.362 . S
O717 C728 1.283 . S
O718 Tb683 2.421 . S
O718 C735 1.262 . S
O719 Tb672 2.320 . S
O719 C735 1.260 . S
O720 Tb672 2.552 . S
O720 C728 1.243 . S
O721 Tb672 2.413 . S
O721 C736 1.256 . S
O722 Tb683 2.546 . S
O722 C747 1.251 . S
O723 Tb672 2.362 . S
O723 Tb683 2.610 . S
O723 C739 1.283 . S
O724 Tb672 2.421 . S
O724 C746 1.262 . S
O725 Tb683 2.320 . S
O725 C746 1.260 . S
O726 Tb683 2.552 . S
O726 C739 1.243 . S
O727 Tb683 2.413 . S
O727 C747 1.256 . S
C728 O717 1.283 . S
C728 O720 1.243 . S
C729 C731 1.382 . S
C729 C733 1.393 . S
C729 C736 1.500 . S
C730 C731 1.400 . S
C730 C732 1.384 . S
C731 C729 1.382 . S
C731 C730 1.400 . S
C731 H748 0.930 . S
C732 C730 1.384 . S
C732 C734 1.392 . S
C732 H749 0.931 . S
C733 C729 1.393 . S
C733 C734 1.401 . S
C733 H750 0.930 . S
C734 C732 1.392 . S
C734 C733 1.401 . S
C734 H751 0.930 . S
C735 O718 1.262 . S
C735 O719 1.260 . S
C736 Tb672 2.833 . S
C736 O716 1.251 . S
C736 O721 1.256 . S
C736 C729 1.500 . S
C737 H702 0.929 . S
C737 C715 1.444 . S
C737 C738 1.317 . S
C738 H700 0.930 . S
C738 C706 1.432 . S
C738 C737 1.317 . S
C739 O723 1.283 . S
C739 O726 1.243 . S
C740 C741 1.382 . S
C740 C744 1.393 . S
C740 C747 1.500 . S
C741 C740 1.382 . S
C741 C742 1.400 . S
C741 H752 0.930 . S
C742 C741 1.400 . S
C742 C743 1.384 . S
C743 C742 1.384 . S
C743 C745 1.392 . S
C743 H753 0.931 . S
C744 C740 1.393 . S
C744 C745 1.401 . S
C744 H754 0.930 . S
C745 C743 1.392 . S
C745 C744 1.401 . S
C745 H755 0.930 . S
C746 O724 1.262 . S
C746 O725 1.260 . S
C747 Tb683 2.833 . S
C747 O722 1.251 . S
C747 O727 1.256 . S
C747 C740 1.500 . S
H748 C731 0.930 . S
H749 C732 0.931 . S
H750 C733 0.930 . S
H751 C734 0.930 . S
H752 C741 0.930 . S
H753 C743 0.931 . S
H754 C744 0.930 . S
H755 C745 0.930 . S
Tb756 N787 2.660 . S
Tb756 N794 2.600 . S
Tb756 O800 2.546 . S
Tb756 O801 2.610 . S
Tb756 O803 2.320 . S
Tb756 O804 2.552 . S
Tb756 O805 2.413 . S
Tb756 O807 2.362 . S
Tb756 O808 2.421 . S
Tb756 C820 2.833 . S
C757 C760 1.432 1_565 S
C757 C761 1.414 . S
C757 N764 1.359 . S
C758 C760 1.417 1_565 S
C758 C762 1.432 . S
C758 C770 1.410 1_565 S
C759 C761 1.444 . S
C759 C762 1.317 . S
C759 H782 0.929 . S
C760 C757 1.432 1_545 S
C760 C758 1.417 1_545 S
C760 N768 1.360 . S
C761 C757 1.414 . S
C761 C759 1.444 . S
C761 C766 1.385 . S
C762 C758 1.432 . S
C762 C759 1.317 . S
C762 H774 0.930 . S
C763 C765 1.393 1_455 S
C763 C766 1.370 . S
C763 H775 0.931 . S
N764 C757 1.359 . S
N764 C765 1.328 1_455 S
N764 Tb767 2.600 1_465 S
C765 C763 1.393 1_655 S
C765 N764 1.328 1_655 S
C765 H772 0.928 . S
C766 C761 1.385 . S
C766 C763 1.370 . S
C766 H785 0.930 . S
Tb767 N764 2.600 1_645 S
Tb767 N768 2.660 1_655 S
Tb767 O801 2.362 . S
Tb767 O802 2.421 . S
Tb767 O806 2.546 1_655 S
Tb767 O807 2.610 . S
Tb767 O809 2.320 . S
Tb767 O810 2.552 . S
Tb767 O811 2.413 1_655 S
Tb767 C831 2.833 1_655 S
N768 C760 1.360 . S
N768 Tb767 2.660 1_455 S
N768 C769 1.305 . S
C769 N768 1.305 . S
C769 C771 1.407 . S
C769 H776 0.930 . S
C770 C758 1.410 1_545 S
C770 C771 1.345 . S
C770 H778 0.930 . S
C771 C769 1.407 . S
C771 C770 1.345 . S
C771 H773 0.930 . S
H772 C765 0.928 . S
H773 C771 0.930 . S
H774 C762 0.930 . S
H775 C763 0.931 . S
H776 C769 0.930 . S
H777 C791 0.930 . S
H778 C770 0.930 . S
H779 C797 0.930 . S
H780 C788 0.930 . S
H781 C795 0.931 . S
H782 C759 0.929 . S
H783 C789 0.930 . S
H784 C822 0.930 . S
H785 C766 0.930 . S
H786 C821 0.929 . S
N787 Tb756 2.660 . S
N787 C788 1.305 . S
N787 C792 1.360 . S
C788 H780 0.930 . S
C788 N787 1.305 . S
C788 C791 1.407 . S
C789 H783 0.930 . S
C789 C790 1.410 . S
C789 C791 1.345 . S
C790 C789 1.410 . S
C790 C792 1.417 . S
C790 C822 1.432 . S
C791 H777 0.930 . S
C791 C788 1.407 . S
C791 C789 1.345 . S
C792 N787 1.360 . S
C792 C790 1.417 . S
C792 C796 1.432 . S
H793 C798 0.930 . S
N794 Tb756 2.600 . S
N794 C796 1.359 . S
N794 C797 1.327 . S
C795 H781 0.931 . S
C795 C797 1.392 . S
C795 C798 1.370 . S
C796 C792 1.432 . S
C796 N794 1.359 . S
C796 C799 1.414 . S
C797 H779 0.930 . S
C797 N794 1.327 . S
C797 C795 1.392 . S
C798 H793 0.930 . S
C798 C795 1.370 . S
C798 C799 1.385 . S
C799 C796 1.414 . S
C799 C798 1.385 . S
C799 C821 1.444 . S
O800 Tb756 2.546 . S
O800 C820 1.251 . S
O801 Tb756 2.610 . S
O801 Tb767 2.362 . S
O801 C812 1.283 . S
O802 Tb767 2.421 . S
O802 C819 1.262 . S
O803 Tb756 2.320 . S
O803 C819 1.260 . S
O804 Tb756 2.552 . S
O804 C812 1.243 . S
O805 Tb756 2.413 . S
O805 C820 1.256 . S
O806 Tb767 2.546 1_455 S
O806 C831 1.251 . S
O807 Tb756 2.362 . S
O807 Tb767 2.610 . S
O807 C823 1.283 . S
O808 Tb756 2.421 . S
O808 C830 1.262 . S
O809 Tb767 2.320 . S
O809 C830 1.260 . S
O810 Tb767 2.552 . S
O810 C823 1.243 . S
O811 Tb767 2.413 1_455 S
O811 C831 1.256 . S
C812 O801 1.283 . S
C812 O804 1.243 . S
C813 C815 1.382 . S
C813 C817 1.393 . S
C813 C820 1.500 . S
C814 C815 1.400 . S
C814 C816 1.384 . S
C815 C813 1.382 . S
C815 C814 1.400 . S
C815 H832 0.930 . S
C816 C814 1.384 . S
C816 C818 1.392 . S
C816 H833 0.931 . S
C817 C813 1.393 . S
C817 C818 1.401 . S
C817 H834 0.930 . S
C818 C816 1.392 . S
C818 C817 1.401 . S
C818 H835 0.930 . S
C819 O802 1.262 . S
C819 O803 1.260 . S
C820 Tb756 2.833 . S
C820 O800 1.251 . S
C820 O805 1.256 . S
C820 C813 1.500 . S
C821 H786 0.929 . S
C821 C799 1.444 . S
C821 C822 1.317 . S
C822 H784 0.930 . S
C822 C790 1.432 . S
C822 C821 1.317 . S
C823 O807 1.283 . S
C823 O810 1.243 . S
C824 C825 1.382 . S
C824 C828 1.393 . S
C824 C831 1.500 . S
C825 C824 1.382 . S
C825 C826 1.400 . S
C825 H836 0.930 . S
C826 C825 1.400 . S
C826 C827 1.384 . S
C827 C826 1.384 . S
C827 C829 1.392 . S
C827 H837 0.931 . S
C828 C824 1.393 . S
C828 C829 1.401 . S
C828 H838 0.930 . S
C829 C827 1.392 . S
C829 C828 1.401 . S
C829 H839 0.930 . S
C830 O808 1.262 . S
C830 O809 1.260 . S
C831 Tb767 2.833 1_455 S
C831 O806 1.251 . S
C831 O811 1.256 . S
C831 C824 1.500 . S
H832 C815 0.930 . S
H833 C816 0.931 . S
H834 C817 0.930 . S
H835 C818 0.930 . S
H836 C825 0.930 . S
H837 C827 0.931 . S
H838 C828 0.930 . S
H839 C829 0.930 . S
Tb840 N871 2.660 . S
Tb840 N878 2.600 . S
Tb840 O884 2.546 . S
Tb840 O885 2.610 . S
Tb840 O887 2.320 . S
Tb840 O888 2.552 . S
Tb840 O889 2.413 . S
Tb840 O891 2.362 . S
Tb840 O892 2.421 . S
Tb840 C904 2.833 . S
C841 C844 1.432 . S
C841 C845 1.414 . S
C841 N848 1.359 . S
C842 C844 1.417 . S
C842 C846 1.432 . S
C842 C854 1.410 . S
C843 C845 1.444 . S
C843 C846 1.317 . S
C843 H866 0.929 . S
C844 C841 1.432 . S
C844 C842 1.417 . S
C844 N852 1.360 . S
C845 C841 1.414 . S
C845 C843 1.444 . S
C845 C850 1.385 . S
C846 C842 1.432 . S
C846 C843 1.317 . S
C846 H858 0.930 . S
C847 C849 1.392 . S
C847 C850 1.370 . S
C847 H859 0.931 . S
N848 C841 1.359 . S
N848 C849 1.327 . S
N848 Tb851 2.600 . S
C849 C847 1.392 . S
C849 N848 1.327 . S
C849 H856 0.930 . S
C850 C845 1.385 . S
C850 C847 1.370 . S
C850 H869 0.930 . S
Tb851 N848 2.600 . S
Tb851 N852 2.660 . S
Tb851 O885 2.362 . S
Tb851 O886 2.421 . S
Tb851 O890 2.546 . S
Tb851 O891 2.610 . S
Tb851 O893 2.320 . S
Tb851 O894 2.552 . S
Tb851 O895 2.413 . S
Tb851 C915 2.833 . S
N852 C844 1.360 . S
N852 Tb851 2.660 . S
N852 C853 1.305 . S
C853 N852 1.305 . S
C853 C855 1.407 . S
C853 H860 0.930 . S
C854 C842 1.410 . S
C854 C855 1.345 . S
C854 H862 0.930 . S
C855 C853 1.407 . S
C855 C854 1.345 . S
C855 H857 0.930 . S
H856 C849 0.930 . S
H857 C855 0.930 . S
H858 C846 0.930 . S
H859 C847 0.931 . S
H860 C853 0.930 . S
H861 C875 0.930 . S
H862 C854 0.930 . S
H863 C881 0.930 . S
H864 C872 0.930 . S
H865 C879 0.931 . S
H866 C843 0.929 . S
H867 C873 0.930 . S
H868 C906 0.930 . S
H869 C850 0.930 . S
H870 C905 0.929 . S
N871 Tb840 2.660 . S
N871 C872 1.305 . S
N871 C876 1.360 . S
C872 H864 0.930 . S
C872 N871 1.305 . S
C872 C875 1.407 . S
C873 H867 0.930 . S
C873 C874 1.410 . S
C873 C875 1.345 . S
C874 C873 1.410 . S
C874 C876 1.417 . S
C874 C906 1.432 . S
C875 H861 0.930 . S
C875 C872 1.407 . S
C875 C873 1.345 . S
C876 N871 1.360 . S
C876 C874 1.417 . S
C876 C880 1.432 . S
H877 C882 0.930 . S
N878 Tb840 2.600 . S
N878 C880 1.359 . S
N878 C881 1.327 . S
C879 H865 0.931 . S
C879 C881 1.392 . S
C879 C882 1.370 . S
C880 C876 1.432 . S
C880 N878 1.359 . S
C880 C883 1.414 . S
C881 H863 0.930 . S
C881 N878 1.327 . S
C881 C879 1.392 . S
C882 H877 0.930 . S
C882 C879 1.370 . S
C882 C883 1.385 . S
C883 C880 1.414 . S
C883 C882 1.385 . S
C883 C905 1.444 . S
O884 Tb840 2.546 . S
O884 C904 1.251 . S
O885 Tb840 2.610 . S
O885 Tb851 2.362 . S
O885 C896 1.283 . S
O886 Tb851 2.421 . S
O886 C903 1.262 . S
O887 Tb840 2.320 . S
O887 C903 1.260 . S
O888 Tb840 2.552 . S
O888 C896 1.243 . S
O889 Tb840 2.413 . S
O889 C904 1.256 . S
O890 Tb851 2.546 . S
O890 C915 1.251 . S
O891 Tb840 2.362 . S
O891 Tb851 2.610 . S
O891 C907 1.283 . S
O892 Tb840 2.421 . S
O892 C914 1.262 . S
O893 Tb851 2.320 . S
O893 C914 1.260 . S
O894 Tb851 2.552 . S
O894 C907 1.243 . S
O895 Tb851 2.413 . S
O895 C915 1.256 . S
C896 O885 1.283 . S
C896 O888 1.243 . S
C897 C899 1.382 . S
C897 C901 1.393 . S
C897 C904 1.500 . S
C898 C899 1.400 . S
C898 C900 1.384 . S
C899 C897 1.382 . S
C899 C898 1.400 . S
C899 H916 0.930 . S
C900 C898 1.384 . S
C900 C902 1.392 . S
C900 H917 0.931 . S
C901 C897 1.393 . S
C901 C902 1.401 . S
C901 H918 0.930 . S
C902 C900 1.392 . S
C902 C901 1.401 . S
C902 H919 0.930 . S
C903 O886 1.262 . S
C903 O887 1.260 . S
C904 Tb840 2.833 . S
C904 O884 1.251 . S
C904 O889 1.256 . S
C904 C897 1.500 . S
C905 H870 0.929 . S
C905 C883 1.444 . S
C905 C906 1.317 . S
C906 H868 0.930 . S
C906 C874 1.432 . S
C906 C905 1.317 . S
C907 O891 1.283 . S
C907 O894 1.243 . S
C908 C909 1.382 . S
C908 C912 1.393 . S
C908 C915 1.500 . S
C909 C908 1.382 . S
C909 C910 1.400 . S
C909 H920 0.930 . S
C910 C909 1.400 . S
C910 C911 1.384 . S
C911 C910 1.384 . S
C911 C913 1.392 . S
C911 H921 0.931 . S
C912 C908 1.393 . S
C912 C913 1.401 . S
C912 H922 0.930 . S
C913 C911 1.392 . S
C913 C912 1.401 . S
C913 H923 0.930 . S
C914 O892 1.262 . S
C914 O893 1.260 . S
C915 Tb851 2.833 . S
C915 O890 1.251 . S
C915 O895 1.256 . S
C915 C908 1.500 . S
H916 C899 0.930 . S
H917 C900 0.931 . S
H918 C901 0.930 . S
H919 C902 0.930 . S
H920 C909 0.930 . S
H921 C911 0.931 . S
H922 C912 0.930 . S
H923 C913 0.930 . S
Tb924 N955 2.660 . S
Tb924 N962 2.600 . S
Tb924 O968 2.546 . S
Tb924 O969 2.610 . S
Tb924 O971 2.320 . S
Tb924 O972 2.552 . S
Tb924 O973 2.413 . S
Tb924 O975 2.362 . S
Tb924 O976 2.421 . S
Tb924 C988 2.833 . S
C925 C928 1.432 1_545 S
C925 C929 1.414 . S
C925 N932 1.359 . S
C926 C928 1.417 1_545 S
C926 C930 1.432 . S
C926 C938 1.410 1_545 S
C927 C929 1.444 . S
C927 C930 1.317 . S
C927 H950 0.929 . S
C928 C925 1.432 1_565 S
C928 C926 1.417 1_565 S
C928 N936 1.360 . S
C929 C925 1.414 . S
C929 C927 1.444 . S
C929 C934 1.385 . S
C930 C926 1.432 . S
C930 C927 1.317 . S
C930 H942 0.930 . S
C931 C933 1.392 . S
C931 C934 1.370 . S
C931 H943 0.931 . S
N932 C925 1.359 . S
N932 C933 1.327 . S
N932 Tb935 2.600 1_545 S
C933 C931 1.392 . S
C933 N932 1.327 . S
C933 H940 0.930 . S
C934 C929 1.385 . S
C934 C931 1.370 . S
C934 H953 0.930 . S
Tb935 N932 2.600 1_565 S
Tb935 N936 2.660 . S
Tb935 O969 2.362 . S
Tb935 O970 2.421 . S
Tb935 O974 2.546 . S
Tb935 O975 2.610 . S
Tb935 O977 2.320 . S
Tb935 O978 2.552 . S
Tb935 O979 2.413 . S
Tb935 C999 2.833 . S
N936 C928 1.360 . S
N936 Tb935 2.660 . S
N936 C937 1.305 . S
C937 N936 1.305 . S
C937 C939 1.407 . S
C937 H944 0.930 . S
C938 C926 1.410 1_565 S
C938 C939 1.345 . S
C938 H946 0.930 . S
C939 C937 1.407 . S
C939 C938 1.345 . S
C939 H941 0.930 . S
H940 C933 0.930 . S
H941 C939 0.930 . S
H942 C930 0.930 . S
H943 C931 0.931 . S
H944 C937 0.930 . S
H945 C959 0.930 . S
H946 C938 0.930 . S
H947 C965 0.930 . S
H948 C956 0.930 . S
H949 C963 0.931 . S
H950 C927 0.929 . S
H951 C957 0.930 . S
H952 C990 0.930 . S
H953 C934 0.930 . S
H954 C989 0.929 . S
N955 Tb924 2.660 . S
N955 C956 1.305 . S
N955 C960 1.360 . S
C956 H948 0.930 . S
C956 N955 1.305 . S
C956 C959 1.407 . S
C957 H951 0.930 . S
C957 C958 1.410 . S
C957 C959 1.345 . S
C958 C957 1.410 . S
C958 C960 1.417 . S
C958 C990 1.432 . S
C959 H945 0.930 . S
C959 C956 1.407 . S
C959 C957 1.345 . S
C960 N955 1.360 . S
C960 C958 1.417 . S
C960 C964 1.432 . S
H961 C966 0.930 . S
N962 Tb924 2.600 . S
N962 C964 1.359 . S
N962 C965 1.327 . S
C963 H949 0.931 . S
C963 C965 1.392 . S
C963 C966 1.370 . S
C964 C960 1.432 . S
C964 N962 1.359 . S
C964 C967 1.414 . S
C965 H947 0.930 . S
C965 N962 1.327 . S
C965 C963 1.392 . S
C966 H961 0.930 . S
C966 C963 1.370 . S
C966 C967 1.385 . S
C967 C964 1.414 . S
C967 C966 1.385 . S
C967 C989 1.444 . S
O968 Tb924 2.546 . S
O968 C988 1.251 . S
O969 Tb924 2.610 . S
O969 Tb935 2.362 . S
O969 C980 1.283 . S
O970 Tb935 2.421 . S
O970 C987 1.262 . S
O971 Tb924 2.320 . S
O971 C987 1.260 . S
O972 Tb924 2.552 . S
O972 C980 1.243 . S
O973 Tb924 2.413 . S
O973 C988 1.256 . S
O974 Tb935 2.546 . S
O974 C999 1.251 . S
O975 Tb924 2.362 . S
O975 Tb935 2.610 . S
O975 C991 1.283 . S
O976 Tb924 2.421 . S
O976 C998 1.262 . S
O977 Tb935 2.320 . S
O977 C998 1.260 . S
O978 Tb935 2.552 . S
O978 C991 1.243 . S
O979 Tb935 2.413 . S
O979 C999 1.256 . S
C980 O969 1.283 . S
C980 O972 1.243 . S
C981 C983 1.382 . S
C981 C985 1.393 . S
C981 C988 1.500 . S
C982 C983 1.400 . S
C982 C984 1.384 . S
C983 C981 1.382 . S
C983 C982 1.400 . S
C983 H1000 0.930 . S
C984 C982 1.384 . S
C984 C986 1.392 . S
C984 H1001 0.931 . S
C985 C981 1.393 . S
C985 C986 1.401 . S
C985 H1002 0.930 . S
C986 C984 1.392 . S
C986 C985 1.401 . S
C986 H1003 0.930 . S
C987 O970 1.262 . S
C987 O971 1.260 . S
C988 Tb924 2.833 . S
C988 O968 1.251 . S
C988 O973 1.256 . S
C988 C981 1.500 . S
C989 H954 0.929 . S
C989 C967 1.444 . S
C989 C990 1.317 . S
C990 H952 0.930 . S
C990 C958 1.432 . S
C990 C989 1.317 . S
C991 O975 1.283 . S
C991 O978 1.243 . S
C992 C993 1.382 . S
C992 C996 1.393 . S
C992 C999 1.500 . S
C993 C992 1.382 . S
C993 C994 1.400 . S
C993 H1004 0.930 . S
C994 C993 1.400 . S
C994 C995 1.384 . S
C995 C994 1.384 . S
C995 C997 1.392 . S
C995 H1005 0.931 . S
C996 C992 1.393 . S
C996 C997 1.401 . S
C996 H1006 0.930 . S
C997 C995 1.392 . S
C997 C996 1.401 . S
C997 H1007 0.930 . S
C998 O976 1.262 . S
C998 O977 1.260 . S
C999 Tb935 2.833 . S
C999 O974 1.251 . S
C999 O979 1.256 . S
C999 C992 1.500 . S
H1000 C983 0.930 . S
H1001 C984 0.931 . S
H1002 C985 0.930 . S
H1003 C986 0.930 . S
H1004 C993 0.930 . S
H1005 C995 0.931 . S
H1006 C996 0.930 . S
H1007 C997 0.930 . S
Tb1008 N1039 2.660 . S
Tb1008 N1046 2.600 . S
Tb1008 O1052 2.546 . S
Tb1008 O1053 2.610 . S
Tb1008 O1055 2.320 . S
Tb1008 O1056 2.552 . S
Tb1008 O1057 2.413 . S
Tb1008 O1059 2.362 . S
Tb1008 O1060 2.421 . S
Tb1008 C1072 2.833 . S
C1009 C1012 1.432 . S
C1009 C1013 1.414 . S
C1009 N1016 1.359 . S
C1010 C1012 1.417 . S
C1010 C1014 1.432 . S
C1010 C1022 1.410 . S
C1011 C1013 1.444 . S
C1011 C1014 1.317 . S
C1011 H1034 0.929 . S
C1012 C1009 1.432 . S
C1012 C1010 1.417 . S
C1012 N1020 1.360 . S
C1013 C1009 1.414 . S
C1013 C1011 1.444 . S
C1013 C1018 1.385 . S
C1014 C1010 1.432 . S
C1014 C1011 1.317 . S
C1014 H1026 0.930 . S
C1015 C1017 1.392 . S
C1015 C1018 1.370 . S
C1015 H1027 0.931 . S
N1016 C1009 1.359 . S
N1016 C1017 1.327 . S
N1016 Tb1019 2.600 . S
C1017 C1015 1.392 . S
C1017 N1016 1.327 . S
C1017 H1024 0.930 . S
C1018 C1013 1.385 . S
C1018 C1015 1.370 . S
C1018 H1037 0.930 . S
Tb1019 N1016 2.600 . S
Tb1019 N1020 2.660 . S
Tb1019 O1053 2.362 . S
Tb1019 O1054 2.421 . S
Tb1019 O1058 2.546 . S
Tb1019 O1059 2.610 . S
Tb1019 O1061 2.320 . S
Tb1019 O1062 2.552 . S
Tb1019 O1063 2.413 . S
Tb1019 C1083 2.833 . S
N1020 C1012 1.360 . S
N1020 Tb1019 2.660 . S
N1020 C1021 1.305 . S
C1021 N1020 1.305 . S
C1021 C1023 1.407 . S
C1021 H1028 0.930 . S
C1022 C1010 1.410 . S
C1022 C1023 1.345 . S
C1022 H1030 0.930 . S
C1023 C1021 1.407 . S
C1023 C1022 1.345 . S
C1023 H1025 0.930 . S
H1024 C1017 0.930 . S
H1025 C1023 0.930 . S
H1026 C1014 0.930 . S
H1027 C1015 0.931 . S
H1028 C1021 0.930 . S
H1029 C1043 0.930 . S
H1030 C1022 0.930 . S
H1031 C1049 0.930 . S
H1032 C1040 0.930 . S
H1033 C1047 0.931 . S
H1034 C1011 0.929 . S
H1035 C1041 0.930 . S
H1036 C1074 0.930 . S
H1037 C1018 0.930 . S
H1038 C1073 0.929 . S
N1039 Tb1008 2.660 . S
N1039 C1040 1.305 . S
N1039 C1044 1.360 . S
C1040 H1032 0.930 . S
C1040 N1039 1.305 . S
C1040 C1043 1.407 . S
C1041 H1035 0.930 . S
C1041 C1042 1.410 . S
C1041 C1043 1.345 . S
C1042 C1041 1.410 . S
C1042 C1044 1.417 . S
C1042 C1074 1.432 . S
C1043 H1029 0.930 . S
C1043 C1040 1.407 . S
C1043 C1041 1.345 . S
C1044 N1039 1.360 . S
C1044 C1042 1.417 . S
C1044 C1048 1.432 . S
H1045 C1050 0.930 . S
N1046 Tb1008 2.600 . S
N1046 C1048 1.359 . S
N1046 C1049 1.327 . S
C1047 H1033 0.931 . S
C1047 C1049 1.392 . S
C1047 C1050 1.370 . S
C1048 C1044 1.432 . S
C1048 N1046 1.359 . S
C1048 C1051 1.414 . S
C1049 H1031 0.930 . S
C1049 N1046 1.327 . S
C1049 C1047 1.392 . S
C1050 H1045 0.930 . S
C1050 C1047 1.370 . S
C1050 C1051 1.385 . S
C1051 C1048 1.414 . S
C1051 C1050 1.385 . S
C1051 C1073 1.444 . S
O1052 Tb1008 2.546 . S
O1052 C1072 1.251 . S
O1053 Tb1008 2.610 . S
O1053 Tb1019 2.362 . S
O1053 C1064 1.283 . S
O1054 Tb1019 2.421 . S
O1054 C1071 1.262 . S
O1055 Tb1008 2.320 . S
O1055 C1071 1.260 . S
O1056 Tb1008 2.552 . S
O1056 C1064 1.243 . S
O1057 Tb1008 2.413 . S
O1057 C1072 1.256 . S
O1058 Tb1019 2.546 . S
O1058 C1083 1.251 . S
O1059 Tb1008 2.362 . S
O1059 Tb1019 2.610 . S
O1059 C1075 1.283 . S
O1060 Tb1008 2.421 . S
O1060 C1082 1.262 . S
O1061 Tb1019 2.320 . S
O1061 C1082 1.260 . S
O1062 Tb1019 2.552 . S
O1062 C1075 1.243 . S
O1063 Tb1019 2.413 . S
O1063 C1083 1.256 . S
C1064 O1053 1.283 . S
C1064 O1056 1.243 . S
C1065 C1067 1.382 . S
C1065 C1069 1.393 . S
C1065 C1072 1.500 . S
C1066 C1067 1.400 . S
C1066 C1068 1.384 . S
C1067 C1065 1.382 . S
C1067 C1066 1.400 . S
C1067 H1084 0.930 . S
C1068 C1066 1.384 . S
C1068 C1070 1.392 . S
C1068 H1085 0.931 . S
C1069 C1065 1.393 . S
C1069 C1070 1.401 . S
C1069 H1086 0.930 . S
C1070 C1068 1.392 . S
C1070 C1069 1.401 . S
C1070 H1087 0.930 . S
C1071 O1054 1.262 . S
C1071 O1055 1.260 . S
C1072 Tb1008 2.833 . S
C1072 O1052 1.251 . S
C1072 O1057 1.256 . S
C1072 C1065 1.500 . S
C1073 H1038 0.929 . S
C1073 C1051 1.444 . S
C1073 C1074 1.317 . S
C1074 H1036 0.930 . S
C1074 C1042 1.432 . S
C1074 C1073 1.317 . S
C1075 O1059 1.283 . S
C1075 O1062 1.243 . S
C1076 C1077 1.382 . S
C1076 C1080 1.393 . S
C1076 C1083 1.500 . S
C1077 C1076 1.382 . S
C1077 C1078 1.400 . S
C1077 H1088 0.930 . S
C1078 C1077 1.400 . S
C1078 C1079 1.384 . S
C1079 C1078 1.384 . S
C1079 C1081 1.392 . S
C1079 H1089 0.931 . S
C1080 C1076 1.393 . S
C1080 C1081 1.401 . S
C1080 H1090 0.930 . S
C1081 C1079 1.392 . S
C1081 C1080 1.401 . S
C1081 H1091 0.930 . S
C1082 O1060 1.262 . S
C1082 O1061 1.260 . S
C1083 Tb1019 2.833 . S
C1083 O1058 1.251 . S
C1083 O1063 1.256 . S
C1083 C1076 1.500 . S
H1084 C1067 0.930 . S
H1085 C1068 0.931 . S
H1086 C1069 0.930 . S
H1087 C1070 0.930 . S
H1088 C1077 0.930 . S
H1089 C1079 0.931 . S
H1090 C1080 0.930 . S
H1091 C1081 0.930 . S
Tb1092 N1123 2.660 . S
Tb1092 N1130 2.600 . S
Tb1092 O1136 2.546 . S
Tb1092 O1137 2.610 . S
Tb1092 O1139 2.320 . S
Tb1092 O1140 2.552 . S
Tb1092 O1141 2.413 . S
Tb1092 O1143 2.362 . S
Tb1092 O1144 2.421 . S
Tb1092 C1156 2.833 . S
C1093 C1096 1.432 1_565 S
C1093 C1097 1.414 . S
C1093 N1100 1.359 . S
C1094 C1096 1.417 1_565 S
C1094 C1098 1.432 . S
C1094 C1106 1.410 1_565 S
C1095 C1097 1.444 . S
C1095 C1098 1.317 . S
C1095 H1118 0.929 . S
C1096 C1093 1.432 1_545 S
C1096 C1094 1.417 1_545 S
C1096 N1104 1.360 . S
C1097 C1093 1.414 . S
C1097 C1095 1.444 . S
C1097 C1102 1.385 . S
C1098 C1094 1.432 . S
C1098 C1095 1.317 . S
C1098 H1110 0.930 . S
C1099 C1101 1.392 . S
C1099 C1102 1.370 . S
C1099 H1111 0.931 . S
N1100 C1093 1.359 . S
N1100 C1101 1.327 . S
N1100 Tb1103 2.600 1_565 S
C1101 C1099 1.392 . S
C1101 N1100 1.327 . S
C1101 H1108 0.930 . S
C1102 C1097 1.385 . S
C1102 C1099 1.370 . S
C1102 H1121 0.930 . S
Tb1103 N1100 2.600 1_545 S
Tb1103 N1104 2.660 . S
Tb1103 O1137 2.362 . S
Tb1103 O1138 2.421 . S
Tb1103 O1142 2.546 . S
Tb1103 O1143 2.610 . S
Tb1103 O1145 2.320 . S
Tb1103 O1146 2.552 . S
Tb1103 O1147 2.413 . S
Tb1103 C1167 2.833 . S
N1104 C1096 1.360 . S
N1104 Tb1103 2.660 . S
N1104 C1105 1.305 . S
C1105 N1104 1.305 . S
C1105 C1107 1.407 . S
C1105 H1112 0.930 . S
C1106 C1094 1.410 1_545 S
C1106 C1107 1.345 . S
C1106 H1114 0.930 . S
C1107 C1105 1.407 . S
C1107 C1106 1.345 . S
C1107 H1109 0.930 . S
H1108 C1101 0.930 . S
H1109 C1107 0.930 . S
H1110 C1098 0.930 . S
H1111 C1099 0.931 . S
H1112 C1105 0.930 . S
H1113 C1127 0.930 . S
H1114 C1106 0.930 . S
H1115 C1133 0.930 . S
H1116 C1124 0.930 . S
H1117 C1131 0.931 . S
H1118 C1095 0.929 . S
H1119 C1125 0.930 . S
H1120 C1158 0.930 . S
H1121 C1102 0.930 . S
H1122 C1157 0.929 . S
N1123 Tb1092 2.660 . S
N1123 C1124 1.305 . S
N1123 C1128 1.360 . S
C1124 H1116 0.930 . S
C1124 N1123 1.305 . S
C1124 C1127 1.407 . S
C1125 H1119 0.930 . S
C1125 C1126 1.410 . S
C1125 C1127 1.345 . S
C1126 C1125 1.410 . S
C1126 C1128 1.417 . S
C1126 C1158 1.432 . S
C1127 H1113 0.930 . S
C1127 C1124 1.407 . S
C1127 C1125 1.345 . S
C1128 N1123 1.360 . S
C1128 C1126 1.417 . S
C1128 C1132 1.432 . S
H1129 C1134 0.930 . S
N1130 Tb1092 2.600 . S
N1130 C1132 1.359 . S
N1130 C1133 1.327 . S
C1131 H1117 0.931 . S
C1131 C1133 1.392 . S
C1131 C1134 1.370 . S
C1132 C1128 1.432 . S
C1132 N1130 1.359 . S
C1132 C1135 1.414 . S
C1133 H1115 0.930 . S
C1133 N1130 1.327 . S
C1133 C1131 1.392 . S
C1134 H1129 0.930 . S
C1134 C1131 1.370 . S
C1134 C1135 1.385 . S
C1135 C1132 1.414 . S
C1135 C1134 1.385 . S
C1135 C1157 1.444 . S
O1136 Tb1092 2.546 . S
O1136 C1156 1.251 . S
O1137 Tb1092 2.610 . S
O1137 Tb1103 2.362 . S
O1137 C1148 1.283 . S
O1138 Tb1103 2.421 . S
O1138 C1155 1.262 . S
O1139 Tb1092 2.320 . S
O1139 C1155 1.260 . S
O1140 Tb1092 2.552 . S
O1140 C1148 1.243 . S
O1141 Tb1092 2.413 . S
O1141 C1156 1.256 . S
O1142 Tb1103 2.546 . S
O1142 C1167 1.251 . S
O1143 Tb1092 2.362 . S
O1143 Tb1103 2.610 . S
O1143 C1159 1.283 . S
O1144 Tb1092 2.421 . S
O1144 C1166 1.262 . S
O1145 Tb1103 2.320 . S
O1145 C1166 1.260 . S
O1146 Tb1103 2.552 . S
O1146 C1159 1.243 . S
O1147 Tb1103 2.413 . S
O1147 C1167 1.256 . S
C1148 O1137 1.283 . S
C1148 O1140 1.243 . S
C1149 C1151 1.382 . S
C1149 C1153 1.393 . S
C1149 C1156 1.500 . S
C1150 C1151 1.400 . S
C1150 C1152 1.384 . S
C1151 C1149 1.382 . S
C1151 C1150 1.400 . S
C1151 H1168 0.930 . S
C1152 C1150 1.384 . S
C1152 C1154 1.392 . S
C1152 H1169 0.931 . S
C1153 C1149 1.393 . S
C1153 C1154 1.401 . S
C1153 H1170 0.930 . S
C1154 C1152 1.392 . S
C1154 C1153 1.401 . S
C1154 H1171 0.930 . S
C1155 O1138 1.262 . S
C1155 O1139 1.260 . S
C1156 Tb1092 2.833 . S
C1156 O1136 1.251 . S
C1156 O1141 1.256 . S
C1156 C1149 1.500 . S
C1157 H1122 0.929 . S
C1157 C1135 1.444 . S
C1157 C1158 1.317 . S
C1158 H1120 0.930 . S
C1158 C1126 1.432 . S
C1158 C1157 1.317 . S
C1159 O1143 1.283 . S
C1159 O1146 1.243 . S
C1160 C1161 1.382 . S
C1160 C1164 1.393 . S
C1160 C1167 1.500 . S
C1161 C1160 1.382 . S
C1161 C1162 1.400 . S
C1161 H1172 0.930 . S
C1162 C1161 1.400 . S
C1162 C1163 1.384 . S
C1163 C1162 1.384 . S
C1163 C1165 1.392 . S
C1163 H1173 0.931 . S
C1164 C1160 1.393 . S
C1164 C1165 1.401 . S
C1164 H1174 0.930 . S
C1165 C1163 1.392 . S
C1165 C1164 1.401 . S
C1165 H1175 0.930 . S
C1166 O1144 1.262 . S
C1166 O1145 1.260 . S
C1167 Tb1103 2.833 . S
C1167 O1142 1.251 . S
C1167 O1147 1.256 . S
C1167 C1160 1.500 . S
H1168 C1151 0.930 . S
H1169 C1152 0.931 . S
H1170 C1153 0.930 . S
H1171 C1154 0.930 . S
H1172 C1161 0.930 . S
H1173 C1163 0.931 . S
H1174 C1164 0.930 . S
H1175 C1165 0.930 . S
Tb1176 N1207 2.660 . S
Tb1176 N1214 2.600 . S
Tb1176 O1220 2.546 . S
Tb1176 O1221 2.610 . S
Tb1176 O1223 2.320 . S
Tb1176 O1224 2.552 . S
Tb1176 O1225 2.413 . S
Tb1176 O1227 2.362 . S
Tb1176 O1228 2.421 . S
Tb1176 C1240 2.833 . S
C1177 C1180 1.432 . S
C1177 C1181 1.414 . S
C1177 N1184 1.359 . S
C1178 C1180 1.417 . S
C1178 C1182 1.432 . S
C1178 C1190 1.410 . S
C1179 C1181 1.444 . S
C1179 C1182 1.317 . S
C1179 H1202 0.929 . S
C1180 C1177 1.432 . S
C1180 C1178 1.417 . S
C1180 N1188 1.360 . S
C1181 C1177 1.414 . S
C1181 C1179 1.444 . S
C1181 C1186 1.385 . S
C1182 C1178 1.432 . S
C1182 C1179 1.317 . S
C1182 H1194 0.930 . S
C1183 C1185 1.392 . S
C1183 C1186 1.370 . S
C1183 H1195 0.931 . S
N1184 C1177 1.359 . S
N1184 C1185 1.327 . S
N1184 Tb1187 2.600 . S
C1185 C1183 1.392 . S
C1185 N1184 1.327 . S
C1185 H1192 0.930 . S
C1186 C1181 1.385 . S
C1186 C1183 1.370 . S
C1186 H1205 0.930 . S
Tb1187 N1184 2.600 . S
Tb1187 N1188 2.660 . S
Tb1187 O1221 2.362 . S
Tb1187 O1222 2.421 . S
Tb1187 O1226 2.546 . S
Tb1187 O1227 2.610 . S
Tb1187 O1229 2.320 . S
Tb1187 O1230 2.552 . S
Tb1187 O1231 2.413 . S
Tb1187 C1251 2.833 . S
N1188 C1180 1.360 . S
N1188 Tb1187 2.660 . S
N1188 C1189 1.305 . S
C1189 N1188 1.305 . S
C1189 C1191 1.407 . S
C1189 H1196 0.930 . S
C1190 C1178 1.410 . S
C1190 C1191 1.345 . S
C1190 H1198 0.930 . S
C1191 C1189 1.407 . S
C1191 C1190 1.345 . S
C1191 H1193 0.930 . S
H1192 C1185 0.930 . S
H1193 C1191 0.930 . S
H1194 C1182 0.930 . S
H1195 C1183 0.931 . S
H1196 C1189 0.930 . S
H1197 C1211 0.930 . S
H1198 C1190 0.930 . S
H1199 C1217 0.930 . S
H1200 C1208 0.930 . S
H1201 C1215 0.931 . S
H1202 C1179 0.929 . S
H1203 C1209 0.930 . S
H1204 C1242 0.930 . S
H1205 C1186 0.930 . S
H1206 C1241 0.929 . S
N1207 Tb1176 2.660 . S
N1207 C1208 1.305 . S
N1207 C1212 1.360 . S
C1208 H1200 0.930 . S
C1208 N1207 1.305 . S
C1208 C1211 1.407 . S
C1209 H1203 0.930 . S
C1209 C1210 1.410 . S
C1209 C1211 1.345 . S
C1210 C1209 1.410 . S
C1210 C1212 1.417 . S
C1210 C1242 1.432 . S
C1211 H1197 0.930 . S
C1211 C1208 1.407 . S
C1211 C1209 1.345 . S
C1212 N1207 1.360 . S
C1212 C1210 1.417 . S
C1212 C1216 1.432 . S
H1213 C1218 0.930 . S
N1214 Tb1176 2.600 . S
N1214 C1216 1.359 . S
N1214 C1217 1.327 . S
C1215 H1201 0.931 . S
C1215 C1217 1.392 . S
C1215 C1218 1.370 . S
C1216 C1212 1.432 . S
C1216 N1214 1.359 . S
C1216 C1219 1.414 . S
C1217 H1199 0.930 . S
C1217 N1214 1.327 . S
C1217 C1215 1.392 . S
C1218 H1213 0.930 . S
C1218 C1215 1.370 . S
C1218 C1219 1.385 . S
C1219 C1216 1.414 . S
C1219 C1218 1.385 . S
C1219 C1241 1.444 . S
O1220 Tb1176 2.546 . S
O1220 C1240 1.251 . S
O1221 Tb1176 2.610 . S
O1221 Tb1187 2.362 . S
O1221 C1232 1.283 . S
O1222 Tb1187 2.421 . S
O1222 C1239 1.262 . S
O1223 Tb1176 2.320 . S
O1223 C1239 1.260 . S
O1224 Tb1176 2.552 . S
O1224 C1232 1.243 . S
O1225 Tb1176 2.413 . S
O1225 C1240 1.256 . S
O1226 Tb1187 2.546 . S
O1226 C1251 1.251 . S
O1227 Tb1176 2.362 . S
O1227 Tb1187 2.610 . S
O1227 C1243 1.283 . S
O1228 Tb1176 2.421 . S
O1228 C1250 1.262 . S
O1229 Tb1187 2.320 . S
O1229 C1250 1.260 . S
O1230 Tb1187 2.552 . S
O1230 C1243 1.243 . S
O1231 Tb1187 2.413 . S
O1231 C1251 1.256 . S
C1232 O1221 1.283 . S
C1232 O1224 1.243 . S
C1233 C1235 1.382 . S
C1233 C1237 1.393 . S
C1233 C1240 1.500 . S
C1234 C1235 1.400 . S
C1234 C1236 1.384 . S
C1235 C1233 1.382 . S
C1235 C1234 1.400 . S
C1235 H1252 0.930 . S
C1236 C1234 1.384 . S
C1236 C1238 1.392 . S
C1236 H1253 0.931 . S
C1237 C1233 1.393 . S
C1237 C1238 1.401 . S
C1237 H1254 0.930 . S
C1238 C1236 1.392 . S
C1238 C1237 1.401 . S
C1238 H1255 0.930 . S
C1239 O1222 1.262 . S
C1239 O1223 1.260 . S
C1240 Tb1176 2.833 . S
C1240 O1220 1.251 . S
C1240 O1225 1.256 . S
C1240 C1233 1.500 . S
C1241 H1206 0.929 . S
C1241 C1219 1.444 . S
C1241 C1242 1.317 . S
C1242 H1204 0.930 . S
C1242 C1210 1.432 . S
C1242 C1241 1.317 . S
C1243 O1227 1.283 . S
C1243 O1230 1.243 . S
C1244 C1245 1.382 . S
C1244 C1248 1.393 . S
C1244 C1251 1.500 . S
C1245 C1244 1.382 . S
C1245 C1246 1.400 . S
C1245 H1256 0.930 . S
C1246 C1245 1.400 . S
C1246 C1247 1.384 . S
C1247 C1246 1.384 . S
C1247 C1249 1.392 . S
C1247 H1257 0.931 . S
C1248 C1244 1.393 . S
C1248 C1249 1.401 . S
C1248 H1258 0.930 . S
C1249 C1247 1.392 . S
C1249 C1248 1.401 . S
C1249 H1259 0.930 . S
C1250 O1228 1.262 . S
C1250 O1229 1.260 . S
C1251 Tb1187 2.833 . S
C1251 O1226 1.251 . S
C1251 O1231 1.256 . S
C1251 C1244 1.500 . S
H1252 C1235 0.930 . S
H1253 C1236 0.931 . S
H1254 C1237 0.930 . S
H1255 C1238 0.930 . S
H1256 C1245 0.930 . S
H1257 C1247 0.931 . S
H1258 C1248 0.930 . S
H1259 C1249 0.930 . S
Tb1260 N1291 2.660 . S
Tb1260 N1298 2.600 . S
Tb1260 O1304 2.546 . S
Tb1260 O1305 2.610 . S
Tb1260 O1307 2.320 . S
Tb1260 O1308 2.552 . S
Tb1260 O1309 2.413 . S
Tb1260 O1311 2.362 . S
Tb1260 O1312 2.421 . S
Tb1260 C1324 2.833 . S
C1261 C1264 1.432 1_545 S
C1261 C1265 1.414 . S
C1261 N1268 1.359 . S
C1262 C1264 1.417 1_545 S
C1262 C1266 1.432 . S
C1262 C1274 1.410 1_545 S
C1263 C1265 1.444 . S
C1263 C1266 1.317 . S
C1263 H1286 0.929 . S
C1264 C1261 1.432 1_565 S
C1264 C1262 1.417 1_565 S
C1264 N1272 1.360 . S
C1265 C1261 1.414 . S
C1265 C1263 1.444 . S
C1265 C1270 1.385 . S
C1266 C1262 1.432 . S
C1266 C1263 1.317 . S
C1266 H1278 0.930 . S
C1267 C1269 1.393 1_455 S
C1267 C1270 1.370 . S
C1267 H1279 0.931 . S
N1268 C1261 1.359 . S
N1268 C1269 1.328 1_455 S
N1268 Tb1271 2.600 1_445 S
C1269 C1267 1.393 1_655 S
C1269 N1268 1.328 1_655 S
C1269 H1276 0.928 . S
C1270 C1265 1.385 . S
C1270 C1267 1.370 . S
C1270 H1289 0.930 . S
Tb1271 N1268 2.600 1_665 S
Tb1271 N1272 2.660 1_655 S
Tb1271 O1305 2.362 . S
Tb1271 O1306 2.421 . S
Tb1271 O1310 2.546 1_655 S
Tb1271 O1311 2.610 . S
Tb1271 O1313 2.320 . S
Tb1271 O1314 2.552 . S
Tb1271 O1315 2.413 1_655 S
Tb1271 C1335 2.833 1_655 S
N1272 C1264 1.360 . S
N1272 Tb1271 2.660 1_455 S
N1272 C1273 1.305 . S
C1273 N1272 1.305 . S
C1273 C1275 1.407 . S
C1273 H1280 0.930 . S
C1274 C1262 1.410 1_565 S
C1274 C1275 1.345 . S
C1274 H1282 0.930 . S
C1275 C1273 1.407 . S
C1275 C1274 1.345 . S
C1275 H1277 0.930 . S
H1276 C1269 0.928 . S
H1277 C1275 0.930 . S
H1278 C1266 0.930 . S
H1279 C1267 0.931 . S
H1280 C1273 0.930 . S
H1281 C1295 0.930 . S
H1282 C1274 0.930 . S
H1283 C1301 0.930 . S
H1284 C1292 0.930 . S
H1285 C1299 0.931 . S
H1286 C1263 0.929 . S
H1287 C1293 0.930 . S
H1288 C1326 0.930 . S
H1289 C1270 0.930 . S
H1290 C1325 0.929 . S
N1291 Tb1260 2.660 . S
N1291 C1292 1.305 . S
N1291 C1296 1.360 . S
C1292 H1284 0.930 . S
C1292 N1291 1.305 . S
C1292 C1295 1.407 . S
C1293 H1287 0.930 . S
C1293 C1294 1.410 . S
C1293 C1295 1.345 . S
C1294 C1293 1.410 . S
C1294 C1296 1.417 . S
C1294 C1326 1.432 . S
C1295 H1281 0.930 . S
C1295 C1292 1.407 . S
C1295 C1293 1.345 . S
C1296 N1291 1.360 . S
C1296 C1294 1.417 . S
C1296 C1300 1.432 . S
H1297 C1302 0.930 . S
N1298 Tb1260 2.600 . S
N1298 C1300 1.359 . S
N1298 C1301 1.327 . S
C1299 H1285 0.931 . S
C1299 C1301 1.392 . S
C1299 C1302 1.370 . S
C1300 C1296 1.432 . S
C1300 N1298 1.359 . S
C1300 C1303 1.414 . S
C1301 H1283 0.930 . S
C1301 N1298 1.327 . S
C1301 C1299 1.392 . S
C1302 H1297 0.930 . S
C1302 C1299 1.370 . S
C1302 C1303 1.385 . S
C1303 C1300 1.414 . S
C1303 C1302 1.385 . S
C1303 C1325 1.444 . S
O1304 Tb1260 2.546 . S
O1304 C1324 1.251 . S
O1305 Tb1260 2.610 . S
O1305 Tb1271 2.362 . S
O1305 C1316 1.283 . S
O1306 Tb1271 2.421 . S
O1306 C1323 1.262 . S
O1307 Tb1260 2.320 . S
O1307 C1323 1.260 . S
O1308 Tb1260 2.552 . S
O1308 C1316 1.243 . S
O1309 Tb1260 2.413 . S
O1309 C1324 1.256 . S
O1310 Tb1271 2.546 1_455 S
O1310 C1335 1.251 . S
O1311 Tb1260 2.362 . S
O1311 Tb1271 2.610 . S
O1311 C1327 1.283 . S
O1312 Tb1260 2.421 . S
O1312 C1334 1.262 . S
O1313 Tb1271 2.320 . S
O1313 C1334 1.260 . S
O1314 Tb1271 2.552 . S
O1314 C1327 1.243 . S
O1315 Tb1271 2.413 1_455 S
O1315 C1335 1.256 . S
C1316 O1305 1.283 . S
C1316 O1308 1.243 . S
C1317 C1319 1.382 . S
C1317 C1321 1.393 . S
C1317 C1324 1.500 . S
C1318 C1319 1.400 . S
C1318 C1320 1.384 . S
C1319 C1317 1.382 . S
C1319 C1318 1.400 . S
C1319 H1336 0.930 . S
C1320 C1318 1.384 . S
C1320 C1322 1.392 . S
C1320 H1337 0.931 . S
C1321 C1317 1.393 . S
C1321 C1322 1.401 . S
C1321 H1338 0.930 . S
C1322 C1320 1.392 . S
C1322 C1321 1.401 . S
C1322 H1339 0.930 . S
C1323 O1306 1.262 . S
C1323 O1307 1.260 . S
C1324 Tb1260 2.833 . S
C1324 O1304 1.251 . S
C1324 O1309 1.256 . S
C1324 C1317 1.500 . S
C1325 H1290 0.929 . S
C1325 C1303 1.444 . S
C1325 C1326 1.317 . S
C1326 H1288 0.930 . S
C1326 C1294 1.432 . S
C1326 C1325 1.317 . S
C1327 O1311 1.283 . S
C1327 O1314 1.243 . S
C1328 C1329 1.382 . S
C1328 C1332 1.393 . S
C1328 C1335 1.500 . S
C1329 C1328 1.382 . S
C1329 C1330 1.400 . S
C1329 H1340 0.930 . S
C1330 C1329 1.400 . S
C1330 C1331 1.384 . S
C1331 C1330 1.384 . S
C1331 C1333 1.392 . S
C1331 H1341 0.931 . S
C1332 C1328 1.393 . S
C1332 C1333 1.401 . S
C1332 H1342 0.930 . S
C1333 C1331 1.392 . S
C1333 C1332 1.401 . S
C1333 H1343 0.930 . S
C1334 O1312 1.262 . S
C1334 O1313 1.260 . S
C1335 Tb1271 2.833 1_455 S
C1335 O1310 1.251 . S
C1335 O1315 1.256 . S
C1335 C1328 1.500 . S
H1336 C1319 0.930 . S
H1337 C1320 0.931 . S
H1338 C1321 0.930 . S
H1339 C1322 0.930 . S
H1340 C1329 0.930 . S
H1341 C1331 0.931 . S
H1342 C1332 0.930 . S
H1343 C1333 0.930 . S
Tb1344 N1375 2.660 . S
Tb1344 N1382 2.600 . S
Tb1344 O1388 2.546 . S
Tb1344 O1389 2.610 . S
Tb1344 O1391 2.320 . S
Tb1344 O1392 2.552 . S
Tb1344 O1393 2.413 . S
Tb1344 O1395 2.362 . S
Tb1344 O1396 2.421 . S
Tb1344 C1408 2.833 . S
C1345 C1348 1.432 . S
C1345 C1349 1.414 . S
C1345 N1352 1.359 . S
C1346 C1348 1.417 . S
C1346 C1350 1.432 . S
C1346 C1358 1.410 . S
C1347 C1349 1.444 . S
C1347 C1350 1.317 . S
C1347 H1370 0.929 . S
C1348 C1345 1.432 . S
C1348 C1346 1.417 . S
C1348 N1356 1.360 . S
C1349 C1345 1.414 . S
C1349 C1347 1.444 . S
C1349 C1354 1.385 . S
C1350 C1346 1.432 . S
C1350 C1347 1.317 . S
C1350 H1362 0.930 . S
C1351 C1353 1.392 . S
C1351 C1354 1.370 . S
C1351 H1363 0.931 . S
N1352 C1345 1.359 . S
N1352 C1353 1.327 . S
N1352 Tb1355 2.600 . S
C1353 C1351 1.392 . S
C1353 N1352 1.327 . S
C1353 H1360 0.930 . S
C1354 C1349 1.385 . S
C1354 C1351 1.370 . S
C1354 H1373 0.930 . S
Tb1355 N1352 2.600 . S
Tb1355 N1356 2.660 . S
Tb1355 O1389 2.362 . S
Tb1355 O1390 2.421 . S
Tb1355 O1394 2.546 . S
Tb1355 O1395 2.610 . S
Tb1355 O1397 2.320 . S
Tb1355 O1398 2.552 . S
Tb1355 O1399 2.413 . S
Tb1355 C1419 2.833 . S
N1356 C1348 1.360 . S
N1356 Tb1355 2.660 . S
N1356 C1357 1.305 . S
C1357 N1356 1.305 . S
C1357 C1359 1.407 . S
C1357 H1364 0.930 . S
C1358 C1346 1.410 . S
C1358 C1359 1.345 . S
C1358 H1366 0.930 . S
C1359 C1357 1.407 . S
C1359 C1358 1.345 . S
C1359 H1361 0.930 . S
H1360 C1353 0.930 . S
H1361 C1359 0.930 . S
H1362 C1350 0.930 . S
H1363 C1351 0.931 . S
H1364 C1357 0.930 . S
H1365 C1379 0.930 . S
H1366 C1358 0.930 . S
H1367 C1385 0.930 . S
H1368 C1376 0.930 . S
H1369 C1383 0.931 . S
H1370 C1347 0.929 . S
H1371 C1377 0.930 . S
H1372 C1410 0.930 . S
H1373 C1354 0.930 . S
H1374 C1409 0.929 . S
N1375 Tb1344 2.660 . S
N1375 C1376 1.305 . S
N1375 C1380 1.360 . S
C1376 H1368 0.930 . S
C1376 N1375 1.305 . S
C1376 C1379 1.407 . S
C1377 H1371 0.930 . S
C1377 C1378 1.410 . S
C1377 C1379 1.345 . S
C1378 C1377 1.410 . S
C1378 C1380 1.417 . S
C1378 C1410 1.432 . S
C1379 H1365 0.930 . S
C1379 C1376 1.407 . S
C1379 C1377 1.345 . S
C1380 N1375 1.360 . S
C1380 C1378 1.417 . S
C1380 C1384 1.432 . S
H1381 C1386 0.930 . S
N1382 Tb1344 2.600 . S
N1382 C1384 1.359 . S
N1382 C1385 1.327 . S
C1383 H1369 0.931 . S
C1383 C1385 1.392 . S
C1383 C1386 1.370 . S
C1384 C1380 1.432 . S
C1384 N1382 1.359 . S
C1384 C1387 1.414 . S
C1385 H1367 0.930 . S
C1385 N1382 1.327 . S
C1385 C1383 1.392 . S
C1386 H1381 0.930 . S
C1386 C1383 1.370 . S
C1386 C1387 1.385 . S
C1387 C1384 1.414 . S
C1387 C1386 1.385 . S
C1387 C1409 1.444 . S
O1388 Tb1344 2.546 . S
O1388 C1408 1.251 . S
O1389 Tb1344 2.610 . S
O1389 Tb1355 2.362 . S
O1389 C1400 1.283 . S
O1390 Tb1355 2.421 . S
O1390 C1407 1.262 . S
O1391 Tb1344 2.320 . S
O1391 C1407 1.260 . S
O1392 Tb1344 2.552 . S
O1392 C1400 1.243 . S
O1393 Tb1344 2.413 . S
O1393 C1408 1.256 . S
O1394 Tb1355 2.546 . S
O1394 C1419 1.251 . S
O1395 Tb1344 2.362 . S
O1395 Tb1355 2.610 . S
O1395 C1411 1.283 . S
O1396 Tb1344 2.421 . S
O1396 C1418 1.262 . S
O1397 Tb1355 2.320 . S
O1397 C1418 1.260 . S
O1398 Tb1355 2.552 . S
O1398 C1411 1.243 . S
O1399 Tb1355 2.413 . S
O1399 C1419 1.256 . S
C1400 O1389 1.283 . S
C1400 O1392 1.243 . S
C1401 C1403 1.382 . S
C1401 C1405 1.393 . S
C1401 C1408 1.500 . S
C1402 C1403 1.400 . S
C1402 C1404 1.384 . S
C1403 C1401 1.382 . S
C1403 C1402 1.400 . S
C1403 H1420 0.930 . S
C1404 C1402 1.384 . S
C1404 C1406 1.392 . S
C1404 H1421 0.931 . S
C1405 C1401 1.393 . S
C1405 C1406 1.401 . S
C1405 H1422 0.930 . S
C1406 C1404 1.392 . S
C1406 C1405 1.401 . S
C1406 H1423 0.930 . S
C1407 O1390 1.262 . S
C1407 O1391 1.260 . S
C1408 Tb1344 2.833 . S
C1408 O1388 1.251 . S
C1408 O1393 1.256 . S
C1408 C1401 1.500 . S
C1409 H1374 0.929 . S
C1409 C1387 1.444 . S
C1409 C1410 1.317 . S
C1410 H1372 0.930 . S
C1410 C1378 1.432 . S
C1410 C1409 1.317 . S
C1411 O1395 1.283 . S
C1411 O1398 1.243 . S
C1412 C1413 1.382 . S
C1412 C1416 1.393 . S
C1412 C1419 1.500 . S
C1413 C1412 1.382 . S
C1413 C1414 1.400 . S
C1413 H1424 0.930 . S
C1414 C1413 1.400 . S
C1414 C1415 1.384 . S
C1415 C1414 1.384 . S
C1415 C1417 1.392 . S
C1415 H1425 0.931 . S
C1416 C1412 1.393 . S
C1416 C1417 1.401 . S
C1416 H1426 0.930 . S
C1417 C1415 1.392 . S
C1417 C1416 1.401 . S
C1417 H1427 0.930 . S
C1418 O1396 1.262 . S
C1418 O1397 1.260 . S
C1419 Tb1355 2.833 . S
C1419 O1394 1.251 . S
C1419 O1399 1.256 . S
C1419 C1412 1.500 . S
H1420 C1403 0.930 . S
H1421 C1404 0.931 . S
H1422 C1405 0.930 . S
H1423 C1406 0.930 . S
H1424 C1413 0.930 . S
H1425 C1415 0.931 . S
H1426 C1416 0.930 . S
H1427 C1417 0.930 . S
Tb1428 N1459 2.660 . S
Tb1428 N1466 2.600 . S
Tb1428 O1472 2.546 . S
Tb1428 O1473 2.610 . S
Tb1428 O1475 2.320 . S
Tb1428 O1476 2.552 . S
Tb1428 O1477 2.413 . S
Tb1428 O1479 2.362 . S
Tb1428 O1480 2.421 . S
Tb1428 C1492 2.833 . S
C1429 C1432 1.432 . S
C1429 C1433 1.414 . S
C1429 N1436 1.359 . S
C1430 C1432 1.417 . S
C1430 C1434 1.432 . S
C1430 C1442 1.410 . S
C1431 C1433 1.444 . S
C1431 C1434 1.317 . S
C1431 H1454 0.929 . S
C1432 C1429 1.432 . S
C1432 C1430 1.417 . S
C1432 N1440 1.360 . S
C1433 C1429 1.414 . S
C1433 C1431 1.444 . S
C1433 C1438 1.385 . S
C1434 C1430 1.432 . S
C1434 C1431 1.317 . S
C1434 H1446 0.930 . S
C1435 C1437 1.392 . S
C1435 C1438 1.370 . S
C1435 H1447 0.931 . S
N1436 C1429 1.359 . S
N1436 C1437 1.327 . S
N1436 Tb1439 2.600 . S
C1437 C1435 1.392 . S
C1437 N1436 1.327 . S
C1437 H1444 0.930 . S
C1438 C1433 1.385 . S
C1438 C1435 1.370 . S
C1438 H1457 0.930 . S
Tb1439 N1436 2.600 . S
Tb1439 N1440 2.660 . S
Tb1439 O1473 2.362 . S
Tb1439 O1474 2.421 . S
Tb1439 O1478 2.546 . S
Tb1439 O1479 2.610 . S
Tb1439 O1481 2.320 . S
Tb1439 O1482 2.552 . S
Tb1439 O1483 2.413 . S
Tb1439 C1503 2.833 . S
N1440 C1432 1.360 . S
N1440 Tb1439 2.660 . S
N1440 C1441 1.305 . S
C1441 N1440 1.305 . S
C1441 C1443 1.407 . S
C1441 H1448 0.930 . S
C1442 C1430 1.410 . S
C1442 C1443 1.345 . S
C1442 H1450 0.930 . S
C1443 C1441 1.407 . S
C1443 C1442 1.345 . S
C1443 H1445 0.930 . S
H1444 C1437 0.930 . S
H1445 C1443 0.930 . S
H1446 C1434 0.930 . S
H1447 C1435 0.931 . S
H1448 C1441 0.930 . S
H1449 C1463 0.930 . S
H1450 C1442 0.930 . S
H1451 C1469 0.930 . S
H1452 C1460 0.930 . S
H1453 C1467 0.931 . S
H1454 C1431 0.929 . S
H1455 C1461 0.930 . S
H1456 C1494 0.930 . S
H1457 C1438 0.930 . S
H1458 C1493 0.929 . S
N1459 Tb1428 2.660 . S
N1459 C1460 1.305 . S
N1459 C1464 1.360 . S
C1460 H1452 0.930 . S
C1460 N1459 1.305 . S
C1460 C1463 1.407 . S
C1461 H1455 0.930 . S
C1461 C1462 1.410 . S
C1461 C1463 1.345 . S
C1462 C1461 1.410 . S
C1462 C1464 1.417 . S
C1462 C1494 1.432 . S
C1463 H1449 0.930 . S
C1463 C1460 1.407 . S
C1463 C1461 1.345 . S
C1464 N1459 1.360 . S
C1464 C1462 1.417 . S
C1464 C1468 1.432 . S
H1465 C1470 0.930 . S
N1466 Tb1428 2.600 . S
N1466 C1468 1.359 . S
N1466 C1469 1.327 . S
C1467 H1453 0.931 . S
C1467 C1469 1.392 . S
C1467 C1470 1.370 . S
C1468 C1464 1.432 . S
C1468 N1466 1.359 . S
C1468 C1471 1.414 . S
C1469 H1451 0.930 . S
C1469 N1466 1.327 . S
C1469 C1467 1.392 . S
C1470 H1465 0.930 . S
C1470 C1467 1.370 . S
C1470 C1471 1.385 . S
C1471 C1468 1.414 . S
C1471 C1470 1.385 . S
C1471 C1493 1.444 . S
O1472 Tb1428 2.546 . S
O1472 C1492 1.251 . S
O1473 Tb1428 2.610 . S
O1473 Tb1439 2.362 . S
O1473 C1484 1.283 . S
O1474 Tb1439 2.421 . S
O1474 C1491 1.262 . S
O1475 Tb1428 2.320 . S
O1475 C1491 1.260 . S
O1476 Tb1428 2.552 . S
O1476 C1484 1.243 . S
O1477 Tb1428 2.413 . S
O1477 C1492 1.256 . S
O1478 Tb1439 2.546 . S
O1478 C1503 1.251 . S
O1479 Tb1428 2.362 . S
O1479 Tb1439 2.610 . S
O1479 C1495 1.283 . S
O1480 Tb1428 2.421 . S
O1480 C1502 1.262 . S
O1481 Tb1439 2.320 . S
O1481 C1502 1.260 . S
O1482 Tb1439 2.552 . S
O1482 C1495 1.243 . S
O1483 Tb1439 2.413 . S
O1483 C1503 1.256 . S
C1484 O1473 1.283 . S
C1484 O1476 1.243 . S
C1485 C1487 1.382 . S
C1485 C1489 1.393 . S
C1485 C1492 1.500 . S
C1486 C1487 1.400 . S
C1486 C1488 1.384 . S
C1487 C1485 1.382 . S
C1487 C1486 1.400 . S
C1487 H1504 0.930 . S
C1488 C1486 1.384 . S
C1488 C1490 1.392 . S
C1488 H1505 0.931 . S
C1489 C1485 1.393 . S
C1489 C1490 1.401 . S
C1489 H1506 0.930 . S
C1490 C1488 1.392 . S
C1490 C1489 1.401 . S
C1490 H1507 0.930 . S
C1491 O1474 1.262 . S
C1491 O1475 1.260 . S
C1492 Tb1428 2.833 . S
C1492 O1472 1.251 . S
C1492 O1477 1.256 . S
C1492 C1485 1.500 . S
C1493 H1458 0.929 . S
C1493 C1471 1.444 . S
C1493 C1494 1.317 . S
C1494 H1456 0.930 . S
C1494 C1462 1.432 . S
C1494 C1493 1.317 . S
C1495 O1479 1.283 . S
C1495 O1482 1.243 . S
C1496 C1497 1.382 . S
C1496 C1500 1.393 . S
C1496 C1503 1.500 . S
C1497 C1496 1.382 . S
C1497 C1498 1.400 . S
C1497 H1508 0.930 . S
C1498 C1497 1.400 . S
C1498 C1499 1.384 . S
C1499 C1498 1.384 . S
C1499 C1501 1.392 . S
C1499 H1509 0.931 . S
C1500 C1496 1.393 . S
C1500 C1501 1.401 . S
C1500 H1510 0.930 . S
C1501 C1499 1.392 . S
C1501 C1500 1.401 . S
C1501 H1511 0.930 . S
C1502 O1480 1.262 . S
C1502 O1481 1.260 . S
C1503 Tb1439 2.833 . S
C1503 O1478 1.251 . S
C1503 O1483 1.256 . S
C1503 C1496 1.500 . S
H1504 C1487 0.930 . S
H1505 C1488 0.931 . S
H1506 C1489 0.930 . S
H1507 C1490 0.930 . S
H1508 C1497 0.930 . S
H1509 C1499 0.931 . S
H1510 C1500 0.930 . S
H1511 C1501 0.930 . S
Tb1512 N1543 2.660 . S
Tb1512 N1550 2.600 . S
Tb1512 O1556 2.546 . S
Tb1512 O1557 2.610 . S
Tb1512 O1559 2.320 . S
Tb1512 O1560 2.552 . S
Tb1512 O1561 2.413 . S
Tb1512 O1563 2.362 . S
Tb1512 O1564 2.421 . S
Tb1512 C1576 2.833 . S
C1513 C1516 1.432 . S
C1513 C1517 1.414 . S
C1513 N1520 1.359 . S
C1514 C1516 1.417 . S
C1514 C1518 1.432 . S
C1514 C1526 1.410 . S
C1515 C1517 1.444 . S
C1515 C1518 1.317 . S
C1515 H1538 0.929 . S
C1516 C1513 1.432 . S
C1516 C1514 1.417 . S
C1516 N1524 1.360 . S
C1517 C1513 1.414 . S
C1517 C1515 1.444 . S
C1517 C1522 1.385 . S
C1518 C1514 1.432 . S
C1518 C1515 1.317 . S
C1518 H1530 0.930 . S
C1519 C1521 1.392 . S
C1519 C1522 1.370 . S
C1519 H1531 0.931 . S
N1520 C1513 1.359 . S
N1520 C1521 1.327 . S
N1520 Tb1523 2.600 . S
C1521 C1519 1.392 . S
C1521 N1520 1.327 . S
C1521 H1528 0.930 . S
C1522 C1517 1.385 . S
C1522 C1519 1.370 . S
C1522 H1541 0.930 . S
Tb1523 N1520 2.600 . S
Tb1523 N1524 2.660 . S
Tb1523 O1557 2.362 . S
Tb1523 O1558 2.421 . S
Tb1523 O1562 2.546 . S
Tb1523 O1563 2.610 . S
Tb1523 O1565 2.320 . S
Tb1523 O1566 2.552 . S
Tb1523 O1567 2.413 . S
Tb1523 C1587 2.833 . S
N1524 C1516 1.360 . S
N1524 Tb1523 2.660 . S
N1524 C1525 1.305 . S
C1525 N1524 1.305 . S
C1525 C1527 1.407 . S
C1525 H1532 0.930 . S
C1526 C1514 1.410 . S
C1526 C1527 1.345 . S
C1526 H1534 0.930 . S
C1527 C1525 1.407 . S
C1527 C1526 1.345 . S
C1527 H1529 0.930 . S
H1528 C1521 0.930 . S
H1529 C1527 0.930 . S
H1530 C1518 0.930 . S
H1531 C1519 0.931 . S
H1532 C1525 0.930 . S
H1533 C1547 0.930 . S
H1534 C1526 0.930 . S
H1535 C1553 0.930 . S
H1536 C1544 0.930 . S
H1537 C1551 0.931 . S
H1538 C1515 0.929 . S
H1539 C1545 0.930 . S
H1540 C1578 0.930 . S
H1541 C1522 0.930 . S
H1542 C1577 0.929 . S
N1543 Tb1512 2.660 . S
N1543 C1544 1.305 . S
N1543 C1548 1.360 . S
C1544 H1536 0.930 . S
C1544 N1543 1.305 . S
C1544 C1547 1.407 . S
C1545 H1539 0.930 . S
C1545 C1546 1.410 . S
C1545 C1547 1.345 . S
C1546 C1545 1.410 . S
C1546 C1548 1.417 . S
C1546 C1578 1.432 . S
C1547 H1533 0.930 . S
C1547 C1544 1.407 . S
C1547 C1545 1.345 . S
C1548 N1543 1.360 . S
C1548 C1546 1.417 . S
C1548 C1552 1.432 . S
H1549 C1554 0.930 . S
N1550 Tb1512 2.600 . S
N1550 C1552 1.359 . S
N1550 C1553 1.327 . S
C1551 H1537 0.931 . S
C1551 C1553 1.392 . S
C1551 C1554 1.370 . S
C1552 C1548 1.432 . S
C1552 N1550 1.359 . S
C1552 C1555 1.414 . S
C1553 H1535 0.930 . S
C1553 N1550 1.327 . S
C1553 C1551 1.392 . S
C1554 H1549 0.930 . S
C1554 C1551 1.370 . S
C1554 C1555 1.385 . S
C1555 C1552 1.414 . S
C1555 C1554 1.385 . S
C1555 C1577 1.444 . S
O1556 Tb1512 2.546 . S
O1556 C1576 1.251 . S
O1557 Tb1512 2.610 . S
O1557 Tb1523 2.362 . S
O1557 C1568 1.283 . S
O1558 Tb1523 2.421 . S
O1558 C1575 1.262 . S
O1559 Tb1512 2.320 . S
O1559 C1575 1.260 . S
O1560 Tb1512 2.552 . S
O1560 C1568 1.243 . S
O1561 Tb1512 2.413 . S
O1561 C1576 1.256 . S
O1562 Tb1523 2.546 . S
O1562 C1587 1.251 . S
O1563 Tb1512 2.362 . S
O1563 Tb1523 2.610 . S
O1563 C1579 1.283 . S
O1564 Tb1512 2.421 . S
O1564 C1586 1.262 . S
O1565 Tb1523 2.320 . S
O1565 C1586 1.260 . S
O1566 Tb1523 2.552 . S
O1566 C1579 1.243 . S
O1567 Tb1523 2.413 . S
O1567 C1587 1.256 . S
C1568 O1557 1.283 . S
C1568 O1560 1.243 . S
C1569 C1571 1.382 . S
C1569 C1573 1.393 . S
C1569 C1576 1.500 . S
C1570 C1571 1.400 . S
C1570 C1572 1.384 . S
C1571 C1569 1.382 . S
C1571 C1570 1.400 . S
C1571 H1588 0.930 . S
C1572 C1570 1.384 . S
C1572 C1574 1.392 . S
C1572 H1589 0.931 . S
C1573 C1569 1.393 . S
C1573 C1574 1.401 . S
C1573 H1590 0.930 . S
C1574 C1572 1.392 . S
C1574 C1573 1.401 . S
C1574 H1591 0.930 . S
C1575 O1558 1.262 . S
C1575 O1559 1.260 . S
C1576 Tb1512 2.833 . S
C1576 O1556 1.251 . S
C1576 O1561 1.256 . S
C1576 C1569 1.500 . S
C1577 H1542 0.929 . S
C1577 C1555 1.444 . S
C1577 C1578 1.317 . S
C1578 H1540 0.930 . S
C1578 C1546 1.432 . S
C1578 C1577 1.317 . S
C1579 O1563 1.283 . S
C1579 O1566 1.243 . S
C1580 C1581 1.382 . S
C1580 C1584 1.393 . S
C1580 C1587 1.500 . S
C1581 C1580 1.382 . S
C1581 C1582 1.400 . S
C1581 H1592 0.930 . S
C1582 C1581 1.400 . S
C1582 C1583 1.384 . S
C1583 C1582 1.384 . S
C1583 C1585 1.392 . S
C1583 H1593 0.931 . S
C1584 C1580 1.393 . S
C1584 C1585 1.401 . S
C1584 H1594 0.930 . S
C1585 C1583 1.392 . S
C1585 C1584 1.401 . S
C1585 H1595 0.930 . S
C1586 O1564 1.262 . S
C1586 O1565 1.260 . S
C1587 Tb1523 2.833 . S
C1587 O1562 1.251 . S
C1587 O1567 1.256 . S
C1587 C1580 1.500 . S
H1588 C1571 0.930 . S
H1589 C1572 0.931 . S
H1590 C1573 0.930 . S
H1591 C1574 0.930 . S
H1592 C1581 0.930 . S
H1593 C1583 0.931 . S
H1594 C1584 0.930 . S
H1595 C1585 0.930 . S
Tb1596 N1627 2.660 1_655 S
Tb1596 N1634 2.600 1_655 S
Tb1596 O1640 2.546 1_655 S
Tb1596 O1641 2.610 . S
Tb1596 O1643 2.320 . S
Tb1596 O1644 2.552 . S
Tb1596 O1645 2.413 1_655 S
Tb1596 O1647 2.362 . S
Tb1596 O1648 2.421 . S
Tb1596 C1660 2.833 1_655 S
C1597 C1600 1.432 . S
C1597 C1601 1.414 . S
C1597 N1604 1.359 . S
C1598 C1600 1.417 . S
C1598 C1602 1.432 . S
C1598 C1610 1.410 . S
C1599 C1601 1.444 . S
C1599 C1602 1.317 . S
C1599 H1622 0.929 . S
C1600 C1597 1.432 . S
C1600 C1598 1.417 . S
C1600 N1608 1.360 . S
C1601 C1597 1.414 . S
C1601 C1599 1.444 . S
C1601 C1606 1.385 . S
C1602 C1598 1.432 . S
C1602 C1599 1.317 . S
C1602 H1614 0.930 . S
C1603 C1605 1.392 . S
C1603 C1606 1.370 . S
C1603 H1615 0.931 . S
N1604 C1597 1.359 . S
N1604 C1605 1.327 . S
N1604 Tb1607 2.600 . S
C1605 C1603 1.392 . S
C1605 N1604 1.327 . S
C1605 H1612 0.930 . S
C1606 C1601 1.385 . S
C1606 C1603 1.370 . S
C1606 H1625 0.930 . S
Tb1607 N1604 2.600 . S
Tb1607 N1608 2.660 . S
Tb1607 O1641 2.362 . S
Tb1607 O1642 2.421 . S
Tb1607 O1646 2.546 . S
Tb1607 O1647 2.610 . S
Tb1607 O1649 2.320 . S
Tb1607 O1650 2.552 . S
Tb1607 O1651 2.413 . S
Tb1607 C1671 2.833 . S
N1608 C1600 1.360 . S
N1608 Tb1607 2.660 . S
N1608 C1609 1.305 . S
C1609 N1608 1.305 . S
C1609 C1611 1.407 . S
C1609 H1616 0.930 . S
C1610 C1598 1.410 . S
C1610 C1611 1.345 . S
C1610 H1618 0.930 . S
C1611 C1609 1.407 . S
C1611 C1610 1.345 . S
C1611 H1613 0.930 . S
H1612 C1605 0.930 . S
H1613 C1611 0.930 . S
H1614 C1602 0.930 . S
H1615 C1603 0.931 . S
H1616 C1609 0.930 . S
H1617 C1631 0.930 . S
H1618 C1610 0.930 . S
H1619 C1637 0.928 . S
H1620 C1628 0.930 . S
H1621 C1635 0.931 . S
H1622 C1599 0.929 . S
H1623 C1629 0.930 . S
H1624 C1662 0.930 . S
H1625 C1606 0.930 . S
H1626 C1661 0.929 . S
N1627 Tb1596 2.660 1_455 S
N1627 C1628 1.305 . S
N1627 C1632 1.360 . S
C1628 H1620 0.930 . S
C1628 N1627 1.305 . S
C1628 C1631 1.407 . S
C1629 H1623 0.930 . S
C1629 C1630 1.410 . S
C1629 C1631 1.345 . S
C1630 C1629 1.410 . S
C1630 C1632 1.417 . S
C1630 C1662 1.432 . S
C1631 H1617 0.930 . S
C1631 C1628 1.407 . S
C1631 C1629 1.345 . S
C1632 N1627 1.360 . S
C1632 C1630 1.417 . S
C1632 C1636 1.432 . S
H1633 C1638 0.930 . S
N1634 Tb1596 2.600 1_455 S
N1634 C1636 1.359 . S
N1634 C1637 1.328 1_455 S
C1635 H1621 0.931 . S
C1635 C1637 1.393 1_455 S
C1635 C1638 1.370 . S
C1636 C1632 1.432 . S
C1636 N1634 1.359 . S
C1636 C1639 1.414 . S
C1637 H1619 0.928 . S
C1637 N1634 1.328 1_655 S
C1637 C1635 1.393 1_655 S
C1638 H1633 0.930 . S
C1638 C1635 1.370 . S
C1638 C1639 1.385 . S
C1639 C1636 1.414 . S
C1639 C1638 1.385 . S
C1639 C1661 1.444 . S
O1640 Tb1596 2.546 1_455 S
O1640 C1660 1.251 . S
O1641 Tb1596 2.610 . S
O1641 Tb1607 2.362 . S
O1641 C1652 1.283 . S
O1642 Tb1607 2.421 . S
O1642 C1659 1.262 . S
O1643 Tb1596 2.320 . S
O1643 C1659 1.260 . S
O1644 Tb1596 2.552 . S
O1644 C1652 1.243 . S
O1645 Tb1596 2.413 1_455 S
O1645 C1660 1.256 . S
O1646 Tb1607 2.546 . S
O1646 C1671 1.251 . S
O1647 Tb1596 2.362 . S
O1647 Tb1607 2.610 . S
O1647 C1663 1.283 . S
O1648 Tb1596 2.421 . S
O1648 C1670 1.262 . S
O1649 Tb1607 2.320 . S
O1649 C1670 1.260 . S
O1650 Tb1607 2.552 . S
O1650 C1663 1.243 . S
O1651 Tb1607 2.413 . S
O1651 C1671 1.256 . S
C1652 O1641 1.283 . S
C1652 O1644 1.243 . S
C1653 C1655 1.382 . S
C1653 C1657 1.393 . S
C1653 C1660 1.500 . S
C1654 C1655 1.400 . S
C1654 C1656 1.384 . S
C1655 C1653 1.382 . S
C1655 C1654 1.400 . S
C1655 H1672 0.930 . S
C1656 C1654 1.384 . S
C1656 C1658 1.392 . S
C1656 H1673 0.931 . S
C1657 C1653 1.393 . S
C1657 C1658 1.401 . S
C1657 H1674 0.930 . S
C1658 C1656 1.392 . S
C1658 C1657 1.401 . S
C1658 H1675 0.930 . S
C1659 O1642 1.262 . S
C1659 O1643 1.260 . S
C1660 Tb1596 2.833 1_455 S
C1660 O1640 1.251 . S
C1660 O1645 1.256 . S
C1660 C1653 1.500 . S
C1661 H1626 0.929 . S
C1661 C1639 1.444 . S
C1661 C1662 1.317 . S
C1662 H1624 0.930 . S
C1662 C1630 1.432 . S
C1662 C1661 1.317 . S
C1663 O1647 1.283 . S
C1663 O1650 1.243 . S
C1664 C1665 1.382 . S
C1664 C1668 1.393 . S
C1664 C1671 1.500 . S
C1665 C1664 1.382 . S
C1665 C1666 1.400 . S
C1665 H1676 0.930 . S
C1666 C1665 1.400 . S
C1666 C1667 1.384 . S
C1667 C1666 1.384 . S
C1667 C1669 1.392 . S
C1667 H1677 0.931 . S
C1668 C1664 1.393 . S
C1668 C1669 1.401 . S
C1668 H1678 0.930 . S
C1669 C1667 1.392 . S
C1669 C1668 1.401 . S
C1669 H1679 0.930 . S
C1670 O1648 1.262 . S
C1670 O1649 1.260 . S
C1671 Tb1607 2.833 . S
C1671 O1646 1.251 . S
C1671 O1651 1.256 . S
C1671 C1664 1.500 . S
H1672 C1655 0.930 . S
H1673 C1656 0.931 . S
H1674 C1657 0.930 . S
H1675 C1658 0.930 . S
H1676 C1665 0.930 . S
H1677 C1667 0.931 . S
H1678 C1668 0.930 . S
H1679 C1669 0.930 . S
Tb1680 N1711 2.660 . S
Tb1680 N1718 2.600 . S
Tb1680 O1724 2.546 . S
Tb1680 O1725 2.610 . S
Tb1680 O1727 2.320 . S
Tb1680 O1728 2.552 . S
Tb1680 O1729 2.413 . S
Tb1680 O1731 2.362 . S
Tb1680 O1732 2.421 . S
Tb1680 C1744 2.833 . S
C1681 C1684 1.432 . S
C1681 C1685 1.414 . S
C1681 N1688 1.359 . S
C1682 C1684 1.417 . S
C1682 C1686 1.432 . S
C1682 C1694 1.410 . S
C1683 C1685 1.444 . S
C1683 C1686 1.317 . S
C1683 H1706 0.929 . S
C1684 C1681 1.432 . S
C1684 C1682 1.417 . S
C1684 N1692 1.360 . S
C1685 C1681 1.414 . S
C1685 C1683 1.444 . S
C1685 C1690 1.385 . S
C1686 C1682 1.432 . S
C1686 C1683 1.317 . S
C1686 H1698 0.930 . S
C1687 C1689 1.392 . S
C1687 C1690 1.370 . S
C1687 H1699 0.931 . S
N1688 C1681 1.359 . S
N1688 C1689 1.327 . S
N1688 Tb1691 2.600 . S
C1689 C1687 1.392 . S
C1689 N1688 1.327 . S
C1689 H1696 0.930 . S
C1690 C1685 1.385 . S
C1690 C1687 1.370 . S
C1690 H1709 0.930 . S
Tb1691 N1688 2.600 . S
Tb1691 N1692 2.660 . S
Tb1691 O1725 2.362 . S
Tb1691 O1726 2.421 . S
Tb1691 O1730 2.546 . S
Tb1691 O1731 2.610 . S
Tb1691 O1733 2.320 . S
Tb1691 O1734 2.552 . S
Tb1691 O1735 2.413 . S
Tb1691 C1755 2.833 . S
N1692 C1684 1.360 . S
N1692 Tb1691 2.660 . S
N1692 C1693 1.305 . S
C1693 N1692 1.305 . S
C1693 C1695 1.407 . S
C1693 H1700 0.930 . S
C1694 C1682 1.410 . S
C1694 C1695 1.345 . S
C1694 H1702 0.930 . S
C1695 C1693 1.407 . S
C1695 C1694 1.345 . S
C1695 H1697 0.930 . S
H1696 C1689 0.930 . S
H1697 C1695 0.930 . S
H1698 C1686 0.930 . S
H1699 C1687 0.931 . S
H1700 C1693 0.930 . S
H1701 C1715 0.930 . S
H1702 C1694 0.930 . S
H1703 C1721 0.930 . S
H1704 C1712 0.930 . S
H1705 C1719 0.931 . S
H1706 C1683 0.929 . S
H1707 C1713 0.930 . S
H1708 C1746 0.930 . S
H1709 C1690 0.930 . S
H1710 C1745 0.929 . S
N1711 Tb1680 2.660 . S
N1711 C1712 1.305 . S
N1711 C1716 1.360 . S
C1712 H1704 0.930 . S
C1712 N1711 1.305 . S
C1712 C1715 1.407 . S
C1713 H1707 0.930 . S
C1713 C1714 1.410 . S
C1713 C1715 1.345 . S
C1714 C1713 1.410 . S
C1714 C1716 1.417 . S
C1714 C1746 1.432 . S
C1715 H1701 0.930 . S
C1715 C1712 1.407 . S
C1715 C1713 1.345 . S
C1716 N1711 1.360 . S
C1716 C1714 1.417 . S
C1716 C1720 1.432 . S
H1717 C1722 0.930 . S
N1718 Tb1680 2.600 . S
N1718 C1720 1.359 . S
N1718 C1721 1.327 . S
C1719 H1705 0.931 . S
C1719 C1721 1.392 . S
C1719 C1722 1.370 . S
C1720 C1716 1.432 . S
C1720 N1718 1.359 . S
C1720 C1723 1.414 . S
C1721 H1703 0.930 . S
C1721 N1718 1.327 . S
C1721 C1719 1.392 . S
C1722 H1717 0.930 . S
C1722 C1719 1.370 . S
C1722 C1723 1.385 . S
C1723 C1720 1.414 . S
C1723 C1722 1.385 . S
C1723 C1745 1.444 . S
O1724 Tb1680 2.546 . S
O1724 C1744 1.251 . S
O1725 Tb1680 2.610 . S
O1725 Tb1691 2.362 . S
O1725 C1736 1.283 . S
O1726 Tb1691 2.421 . S
O1726 C1743 1.262 . S
O1727 Tb1680 2.320 . S
O1727 C1743 1.260 . S
O1728 Tb1680 2.552 . S
O1728 C1736 1.243 . S
O1729 Tb1680 2.413 . S
O1729 C1744 1.256 . S
O1730 Tb1691 2.546 . S
O1730 C1755 1.251 . S
O1731 Tb1680 2.362 . S
O1731 Tb1691 2.610 . S
O1731 C1747 1.283 . S
O1732 Tb1680 2.421 . S
O1732 C1754 1.262 . S
O1733 Tb1691 2.320 . S
O1733 C1754 1.260 . S
O1734 Tb1691 2.552 . S
O1734 C1747 1.243 . S
O1735 Tb1691 2.413 . S
O1735 C1755 1.256 . S
C1736 O1725 1.283 . S
C1736 O1728 1.243 . S
C1737 C1739 1.382 . S
C1737 C1741 1.393 . S
C1737 C1744 1.500 . S
C1738 C1739 1.400 . S
C1738 C1740 1.384 . S
C1739 C1737 1.382 . S
C1739 C1738 1.400 . S
C1739 H1756 0.930 . S
C1740 C1738 1.384 . S
C1740 C1742 1.392 . S
C1740 H1757 0.931 . S
C1741 C1737 1.393 . S
C1741 C1742 1.401 . S
C1741 H1758 0.930 . S
C1742 C1740 1.392 . S
C1742 C1741 1.401 . S
C1742 H1759 0.930 . S
C1743 O1726 1.262 . S
C1743 O1727 1.260 . S
C1744 Tb1680 2.833 . S
C1744 O1724 1.251 . S
C1744 O1729 1.256 . S
C1744 C1737 1.500 . S
C1745 H1710 0.929 . S
C1745 C1723 1.444 . S
C1745 C1746 1.317 . S
C1746 H1708 0.930 . S
C1746 C1714 1.432 . S
C1746 C1745 1.317 . S
C1747 O1731 1.283 . S
C1747 O1734 1.243 . S
C1748 C1749 1.382 . S
C1748 C1752 1.393 . S
C1748 C1755 1.500 . S
C1749 C1748 1.382 . S
C1749 C1750 1.400 . S
C1749 H1760 0.930 . S
C1750 C1749 1.400 . S
C1750 C1751 1.384 . S
C1751 C1750 1.384 . S
C1751 C1753 1.392 . S
C1751 H1761 0.931 . S
C1752 C1748 1.393 . S
C1752 C1753 1.401 . S
C1752 H1762 0.930 . S
C1753 C1751 1.392 . S
C1753 C1752 1.401 . S
C1753 H1763 0.930 . S
C1754 O1732 1.262 . S
C1754 O1733 1.260 . S
C1755 Tb1691 2.833 . S
C1755 O1730 1.251 . S
C1755 O1735 1.256 . S
C1755 C1748 1.500 . S
H1756 C1739 0.930 . S
H1757 C1740 0.931 . S
H1758 C1741 0.930 . S
H1759 C1742 0.930 . S
H1760 C1749 0.930 . S
H1761 C1751 0.931 . S
H1762 C1752 0.930 . S
H1763 C1753 0.930 . S
Tb1764 N1795 2.660 1_655 S
Tb1764 N1802 2.600 1_655 S
Tb1764 O1808 2.546 1_655 S
Tb1764 O1809 2.610 . S
Tb1764 O1811 2.320 . S
Tb1764 O1812 2.552 . S
Tb1764 O1813 2.413 1_655 S
Tb1764 O1815 2.362 . S
Tb1764 O1816 2.421 . S
Tb1764 C1828 2.833 1_655 S
C1765 C1768 1.432 . S
C1765 C1769 1.414 . S
C1765 N1772 1.359 . S
C1766 C1768 1.417 . S
C1766 C1770 1.432 . S
C1766 C1778 1.410 . S
C1767 C1769 1.444 . S
C1767 C1770 1.317 . S
C1767 H1790 0.929 . S
C1768 C1765 1.432 . S
C1768 C1766 1.417 . S
C1768 N1776 1.360 . S
C1769 C1765 1.414 . S
C1769 C1767 1.444 . S
C1769 C1774 1.385 . S
C1770 C1766 1.432 . S
C1770 C1767 1.317 . S
C1770 H1782 0.930 . S
C1771 C1773 1.392 . S
C1771 C1774 1.370 . S
C1771 H1783 0.931 . S
N1772 C1765 1.359 . S
N1772 C1773 1.327 . S
N1772 Tb1775 2.600 . S
C1773 C1771 1.392 . S
C1773 N1772 1.327 . S
C1773 H1780 0.930 . S
C1774 C1769 1.385 . S
C1774 C1771 1.370 . S
C1774 H1793 0.930 . S
Tb1775 N1772 2.600 . S
Tb1775 N1776 2.660 . S
Tb1775 O1809 2.362 . S
Tb1775 O1810 2.421 . S
Tb1775 O1814 2.546 . S
Tb1775 O1815 2.610 . S
Tb1775 O1817 2.320 . S
Tb1775 O1818 2.552 . S
Tb1775 O1819 2.413 . S
Tb1775 C1839 2.833 . S
N1776 C1768 1.360 . S
N1776 Tb1775 2.660 . S
N1776 C1777 1.305 . S
C1777 N1776 1.305 . S
C1777 C1779 1.407 . S
C1777 H1784 0.930 . S
C1778 C1766 1.410 . S
C1778 C1779 1.345 . S
C1778 H1786 0.930 . S
C1779 C1777 1.407 . S
C1779 C1778 1.345 . S
C1779 H1781 0.930 . S
H1780 C1773 0.930 . S
H1781 C1779 0.930 . S
H1782 C1770 0.930 . S
H1783 C1771 0.931 . S
H1784 C1777 0.930 . S
H1785 C1799 0.930 . S
H1786 C1778 0.930 . S
H1787 C1805 0.928 . S
H1788 C1796 0.930 . S
H1789 C1803 0.931 . S
H1790 C1767 0.929 . S
H1791 C1797 0.930 . S
H1792 C1830 0.930 . S
H1793 C1774 0.930 . S
H1794 C1829 0.929 . S
N1795 Tb1764 2.660 1_455 S
N1795 C1796 1.305 . S
N1795 C1800 1.360 . S
C1796 H1788 0.930 . S
C1796 N1795 1.305 . S
C1796 C1799 1.407 . S
C1797 H1791 0.930 . S
C1797 C1798 1.410 . S
C1797 C1799 1.345 . S
C1798 C1797 1.410 . S
C1798 C1800 1.417 . S
C1798 C1830 1.432 . S
C1799 H1785 0.930 . S
C1799 C1796 1.407 . S
C1799 C1797 1.345 . S
C1800 N1795 1.360 . S
C1800 C1798 1.417 . S
C1800 C1804 1.432 . S
H1801 C1806 0.930 . S
N1802 Tb1764 2.600 1_455 S
N1802 C1804 1.359 . S
N1802 C1805 1.328 1_455 S
C1803 H1789 0.931 . S
C1803 C1805 1.393 1_455 S
C1803 C1806 1.370 . S
C1804 C1800 1.432 . S
C1804 N1802 1.359 . S
C1804 C1807 1.414 . S
C1805 H1787 0.928 . S
C1805 N1802 1.328 1_655 S
C1805 C1803 1.393 1_655 S
C1806 H1801 0.930 . S
C1806 C1803 1.370 . S
C1806 C1807 1.385 . S
C1807 C1804 1.414 . S
C1807 C1806 1.385 . S
C1807 C1829 1.444 . S
O1808 Tb1764 2.546 1_455 S
O1808 C1828 1.251 . S
O1809 Tb1764 2.610 . S
O1809 Tb1775 2.362 . S
O1809 C1820 1.283 . S
O1810 Tb1775 2.421 . S
O1810 C1827 1.262 . S
O1811 Tb1764 2.320 . S
O1811 C1827 1.260 . S
O1812 Tb1764 2.552 . S
O1812 C1820 1.243 . S
O1813 Tb1764 2.413 1_455 S
O1813 C1828 1.256 . S
O1814 Tb1775 2.546 . S
O1814 C1839 1.251 . S
O1815 Tb1764 2.362 . S
O1815 Tb1775 2.610 . S
O1815 C1831 1.283 . S
O1816 Tb1764 2.421 . S
O1816 C1838 1.262 . S
O1817 Tb1775 2.320 . S
O1817 C1838 1.260 . S
O1818 Tb1775 2.552 . S
O1818 C1831 1.243 . S
O1819 Tb1775 2.413 . S
O1819 C1839 1.256 . S
C1820 O1809 1.283 . S
C1820 O1812 1.243 . S
C1821 C1823 1.382 . S
C1821 C1825 1.393 . S
C1821 C1828 1.500 . S
C1822 C1823 1.400 . S
C1822 C1824 1.384 . S
C1823 C1821 1.382 . S
C1823 C1822 1.400 . S
C1823 H1840 0.930 . S
C1824 C1822 1.384 . S
C1824 C1826 1.392 . S
C1824 H1841 0.931 . S
C1825 C1821 1.393 . S
C1825 C1826 1.401 . S
C1825 H1842 0.930 . S
C1826 C1824 1.392 . S
C1826 C1825 1.401 . S
C1826 H1843 0.930 . S
C1827 O1810 1.262 . S
C1827 O1811 1.260 . S
C1828 Tb1764 2.833 1_455 S
C1828 O1808 1.251 . S
C1828 O1813 1.256 . S
C1828 C1821 1.500 . S
C1829 H1794 0.929 . S
C1829 C1807 1.444 . S
C1829 C1830 1.317 . S
C1830 H1792 0.930 . S
C1830 C1798 1.432 . S
C1830 C1829 1.317 . S
C1831 O1815 1.283 . S
C1831 O1818 1.243 . S
C1832 C1833 1.382 . S
C1832 C1836 1.393 . S
C1832 C1839 1.500 . S
C1833 C1832 1.382 . S
C1833 C1834 1.400 . S
C1833 H1844 0.930 . S
C1834 C1833 1.400 . S
C1834 C1835 1.384 . S
C1835 C1834 1.384 . S
C1835 C1837 1.392 . S
C1835 H1845 0.931 . S
C1836 C1832 1.393 . S
C1836 C1837 1.401 . S
C1836 H1846 0.930 . S
C1837 C1835 1.392 . S
C1837 C1836 1.401 . S
C1837 H1847 0.930 . S
C1838 O1816 1.262 . S
C1838 O1817 1.260 . S
C1839 Tb1775 2.833 . S
C1839 O1814 1.251 . S
C1839 O1819 1.256 . S
C1839 C1832 1.500 . S
H1840 C1823 0.930 . S
H1841 C1824 0.931 . S
H1842 C1825 0.930 . S
H1843 C1826 0.930 . S
H1844 C1833 0.930 . S
H1845 C1835 0.931 . S
H1846 C1836 0.930 . S
H1847 C1837 0.930 . S
Tb1848 N1879 2.660 . S
Tb1848 N1886 2.600 . S
Tb1848 O1892 2.546 . S
Tb1848 O1893 2.610 . S
Tb1848 O1895 2.320 . S
Tb1848 O1896 2.552 . S
Tb1848 O1897 2.413 . S
Tb1848 O1899 2.362 . S
Tb1848 O1900 2.421 . S
Tb1848 C1912 2.833 . S
C1849 C1852 1.432 . S
C1849 C1853 1.414 . S
C1849 N1856 1.359 . S
C1850 C1852 1.417 . S
C1850 C1854 1.432 . S
C1850 C1862 1.410 . S
C1851 C1853 1.444 . S
C1851 C1854 1.317 . S
C1851 H1874 0.929 . S
C1852 C1849 1.432 . S
C1852 C1850 1.417 . S
C1852 N1860 1.360 . S
C1853 C1849 1.414 . S
C1853 C1851 1.444 . S
C1853 C1858 1.385 . S
C1854 C1850 1.432 . S
C1854 C1851 1.317 . S
C1854 H1866 0.930 . S
C1855 C1857 1.392 . S
C1855 C1858 1.370 . S
C1855 H1867 0.931 . S
N1856 C1849 1.359 . S
N1856 C1857 1.327 . S
N1856 Tb1859 2.600 . S
C1857 C1855 1.392 . S
C1857 N1856 1.327 . S
C1857 H1864 0.930 . S
C1858 C1853 1.385 . S
C1858 C1855 1.370 . S
C1858 H1877 0.930 . S
Tb1859 N1856 2.600 . S
Tb1859 N1860 2.660 . S
Tb1859 O1893 2.362 . S
Tb1859 O1894 2.421 . S
Tb1859 O1898 2.546 . S
Tb1859 O1899 2.610 . S
Tb1859 O1901 2.320 . S
Tb1859 O1902 2.552 . S
Tb1859 O1903 2.413 . S
Tb1859 C1923 2.833 . S
N1860 C1852 1.360 . S
N1860 Tb1859 2.660 . S
N1860 C1861 1.305 . S
C1861 N1860 1.305 . S
C1861 C1863 1.407 . S
C1861 H1868 0.930 . S
C1862 C1850 1.410 . S
C1862 C1863 1.345 . S
C1862 H1870 0.930 . S
C1863 C1861 1.407 . S
C1863 C1862 1.345 . S
C1863 H1865 0.930 . S
H1864 C1857 0.930 . S
H1865 C1863 0.930 . S
H1866 C1854 0.930 . S
H1867 C1855 0.931 . S
H1868 C1861 0.930 . S
H1869 C1883 0.930 . S
H1870 C1862 0.930 . S
H1871 C1889 0.930 . S
H1872 C1880 0.930 . S
H1873 C1887 0.931 . S
H1874 C1851 0.929 . S
H1875 C1881 0.930 . S
H1876 C1914 0.930 . S
H1877 C1858 0.930 . S
H1878 C1913 0.929 . S
N1879 Tb1848 2.660 . S
N1879 C1880 1.305 . S
N1879 C1884 1.360 . S
C1880 H1872 0.930 . S
C1880 N1879 1.305 . S
C1880 C1883 1.407 . S
C1881 H1875 0.930 . S
C1881 C1882 1.410 . S
C1881 C1883 1.345 . S
C1882 C1881 1.410 . S
C1882 C1884 1.417 . S
C1882 C1914 1.432 . S
C1883 H1869 0.930 . S
C1883 C1880 1.407 . S
C1883 C1881 1.345 . S
C1884 N1879 1.360 . S
C1884 C1882 1.417 . S
C1884 C1888 1.432 . S
H1885 C1890 0.930 . S
N1886 Tb1848 2.600 . S
N1886 C1888 1.359 . S
N1886 C1889 1.327 . S
C1887 H1873 0.931 . S
C1887 C1889 1.392 . S
C1887 C1890 1.370 . S
C1888 C1884 1.432 . S
C1888 N1886 1.359 . S
C1888 C1891 1.414 . S
C1889 H1871 0.930 . S
C1889 N1886 1.327 . S
C1889 C1887 1.392 . S
C1890 H1885 0.930 . S
C1890 C1887 1.370 . S
C1890 C1891 1.385 . S
C1891 C1888 1.414 . S
C1891 C1890 1.385 . S
C1891 C1913 1.444 . S
O1892 Tb1848 2.546 . S
O1892 C1912 1.251 . S
O1893 Tb1848 2.610 . S
O1893 Tb1859 2.362 . S
O1893 C1904 1.283 . S
O1894 Tb1859 2.421 . S
O1894 C1911 1.262 . S
O1895 Tb1848 2.320 . S
O1895 C1911 1.260 . S
O1896 Tb1848 2.552 . S
O1896 C1904 1.243 . S
O1897 Tb1848 2.413 . S
O1897 C1912 1.256 . S
O1898 Tb1859 2.546 . S
O1898 C1923 1.251 . S
O1899 Tb1848 2.362 . S
O1899 Tb1859 2.610 . S
O1899 C1915 1.283 . S
O1900 Tb1848 2.421 . S
O1900 C1922 1.262 . S
O1901 Tb1859 2.320 . S
O1901 C1922 1.260 . S
O1902 Tb1859 2.552 . S
O1902 C1915 1.243 . S
O1903 Tb1859 2.413 . S
O1903 C1923 1.256 . S
C1904 O1893 1.283 . S
C1904 O1896 1.243 . S
C1905 C1907 1.382 . S
C1905 C1909 1.393 . S
C1905 C1912 1.500 . S
C1906 C1907 1.400 . S
C1906 C1908 1.384 . S
C1907 C1905 1.382 . S
C1907 C1906 1.400 . S
C1907 H1924 0.930 . S
C1908 C1906 1.384 . S
C1908 C1910 1.392 . S
C1908 H1925 0.931 . S
C1909 C1905 1.393 . S
C1909 C1910 1.401 . S
C1909 H1926 0.930 . S
C1910 C1908 1.392 . S
C1910 C1909 1.401 . S
C1910 H1927 0.930 . S
C1911 O1894 1.262 . S
C1911 O1895 1.260 . S
C1912 Tb1848 2.833 . S
C1912 O1892 1.251 . S
C1912 O1897 1.256 . S
C1912 C1905 1.500 . S
C1913 H1878 0.929 . S
C1913 C1891 1.444 . S
C1913 C1914 1.317 . S
C1914 H1876 0.930 . S
C1914 C1882 1.432 . S
C1914 C1913 1.317 . S
C1915 O1899 1.283 . S
C1915 O1902 1.243 . S
C1916 C1917 1.382 . S
C1916 C1920 1.393 . S
C1916 C1923 1.500 . S
C1917 C1916 1.382 . S
C1917 C1918 1.400 . S
C1917 H1928 0.930 . S
C1918 C1917 1.400 . S
C1918 C1919 1.384 . S
C1919 C1918 1.384 . S
C1919 C1921 1.392 . S
C1919 H1929 0.931 . S
C1920 C1916 1.393 . S
C1920 C1921 1.401 . S
C1920 H1930 0.930 . S
C1921 C1919 1.392 . S
C1921 C1920 1.401 . S
C1921 H1931 0.930 . S
C1922 O1900 1.262 . S
C1922 O1901 1.260 . S
C1923 Tb1859 2.833 . S
C1923 O1898 1.251 . S
C1923 O1903 1.256 . S
C1923 C1916 1.500 . S
H1924 C1907 0.930 . S
H1925 C1908 0.931 . S
H1926 C1909 0.930 . S
H1927 C1910 0.930 . S
H1928 C1917 0.930 . S
H1929 C1919 0.931 . S
H1930 C1920 0.930 . S
H1931 C1921 0.930 . S
Tb1932 N1963 2.660 . S
Tb1932 N1970 2.600 . S
Tb1932 O1976 2.546 . S
Tb1932 O1977 2.610 . S
Tb1932 O1979 2.320 . S
Tb1932 O1980 2.552 . S
Tb1932 O1981 2.413 . S
Tb1932 O1983 2.362 . S
Tb1932 O1984 2.421 . S
Tb1932 C1996 2.833 . S
C1933 C1936 1.432 . S
C1933 C1937 1.414 . S
C1933 N1940 1.359 . S
C1934 C1936 1.417 . S
C1934 C1938 1.432 . S
C1934 C1946 1.410 . S
C1935 C1937 1.444 . S
C1935 C1938 1.317 . S
C1935 H1958 0.929 . S
C1936 C1933 1.432 . S
C1936 C1934 1.417 . S
C1936 N1944 1.360 . S
C1937 C1933 1.414 . S
C1937 C1935 1.444 . S
C1937 C1942 1.385 . S
C1938 C1934 1.432 . S
C1938 C1935 1.317 . S
C1938 H1950 0.930 . S
C1939 C1941 1.392 . S
C1939 C1942 1.370 . S
C1939 H1951 0.931 . S
N1940 C1933 1.359 . S
N1940 C1941 1.327 . S
N1940 Tb1943 2.600 . S
C1941 C1939 1.392 . S
C1941 N1940 1.327 . S
C1941 H1948 0.930 . S
C1942 C1937 1.385 . S
C1942 C1939 1.370 . S
C1942 H1961 0.930 . S
Tb1943 N1940 2.600 . S
Tb1943 N1944 2.660 . S
Tb1943 O1977 2.362 . S
Tb1943 O1978 2.421 . S
Tb1943 O1982 2.546 . S
Tb1943 O1983 2.610 . S
Tb1943 O1985 2.320 . S
Tb1943 O1986 2.552 . S
Tb1943 O1987 2.413 . S
Tb1943 C2007 2.833 . S
N1944 C1936 1.360 . S
N1944 Tb1943 2.660 . S
N1944 C1945 1.305 . S
C1945 N1944 1.305 . S
C1945 C1947 1.407 . S
C1945 H1952 0.930 . S
C1946 C1934 1.410 . S
C1946 C1947 1.345 . S
C1946 H1954 0.930 . S
C1947 C1945 1.407 . S
C1947 C1946 1.345 . S
C1947 H1949 0.930 . S
H1948 C1941 0.930 . S
H1949 C1947 0.930 . S
H1950 C1938 0.930 . S
H1951 C1939 0.931 . S
H1952 C1945 0.930 . S
H1953 C1967 0.930 . S
H1954 C1946 0.930 . S
H1955 C1973 0.930 . S
H1956 C1964 0.930 . S
H1957 C1971 0.931 . S
H1958 C1935 0.929 . S
H1959 C1965 0.930 . S
H1960 C1998 0.930 . S
H1961 C1942 0.930 . S
H1962 C1997 0.929 . S
N1963 Tb1932 2.660 . S
N1963 C1964 1.305 . S
N1963 C1968 1.360 . S
C1964 H1956 0.930 . S
C1964 N1963 1.305 . S
C1964 C1967 1.407 . S
C1965 H1959 0.930 . S
C1965 C1966 1.410 . S
C1965 C1967 1.345 . S
C1966 C1965 1.410 . S
C1966 C1968 1.417 . S
C1966 C1998 1.432 . S
C1967 H1953 0.930 . S
C1967 C1964 1.407 . S
C1967 C1965 1.345 . S
C1968 N1963 1.360 . S
C1968 C1966 1.417 . S
C1968 C1972 1.432 . S
H1969 C1974 0.930 . S
N1970 Tb1932 2.600 . S
N1970 C1972 1.359 . S
N1970 C1973 1.327 . S
C1971 H1957 0.931 . S
C1971 C1973 1.392 . S
C1971 C1974 1.370 . S
C1972 C1968 1.432 . S
C1972 N1970 1.359 . S
C1972 C1975 1.414 . S
C1973 H1955 0.930 . S
C1973 N1970 1.327 . S
C1973 C1971 1.392 . S
C1974 H1969 0.930 . S
C1974 C1971 1.370 . S
C1974 C1975 1.385 . S
C1975 C1972 1.414 . S
C1975 C1974 1.385 . S
C1975 C1997 1.444 . S
O1976 Tb1932 2.546 . S
O1976 C1996 1.251 . S
O1977 Tb1932 2.610 . S
O1977 Tb1943 2.362 . S
O1977 C1988 1.283 . S
O1978 Tb1943 2.421 . S
O1978 C1995 1.262 . S
O1979 Tb1932 2.320 . S
O1979 C1995 1.260 . S
O1980 Tb1932 2.552 . S
O1980 C1988 1.243 . S
O1981 Tb1932 2.413 . S
O1981 C1996 1.256 . S
O1982 Tb1943 2.546 . S
O1982 C2007 1.251 . S
O1983 Tb1932 2.362 . S
O1983 Tb1943 2.610 . S
O1983 C1999 1.283 . S
O1984 Tb1932 2.421 . S
O1984 C2006 1.262 . S
O1985 Tb1943 2.320 . S
O1985 C2006 1.260 . S
O1986 Tb1943 2.552 . S
O1986 C1999 1.243 . S
O1987 Tb1943 2.413 . S
O1987 C2007 1.256 . S
C1988 O1977 1.283 . S
C1988 O1980 1.243 . S
C1989 C1991 1.382 . S
C1989 C1993 1.393 . S
C1989 C1996 1.500 . S
C1990 C1991 1.400 . S
C1990 C1992 1.384 . S
C1991 C1989 1.382 . S
C1991 C1990 1.400 . S
C1991 H2008 0.930 . S
C1992 C1990 1.384 . S
C1992 C1994 1.392 . S
C1992 H2009 0.931 . S
C1993 C1989 1.393 . S
C1993 C1994 1.401 . S
C1993 H2010 0.930 . S
C1994 C1992 1.392 . S
C1994 C1993 1.401 . S
C1994 H2011 0.930 . S
C1995 O1978 1.262 . S
C1995 O1979 1.260 . S
C1996 Tb1932 2.833 . S
C1996 O1976 1.251 . S
C1996 O1981 1.256 . S
C1996 C1989 1.500 . S
C1997 H1962 0.929 . S
C1997 C1975 1.444 . S
C1997 C1998 1.317 . S
C1998 H1960 0.930 . S
C1998 C1966 1.432 . S
C1998 C1997 1.317 . S
C1999 O1983 1.283 . S
C1999 O1986 1.243 . S
C2000 C2001 1.382 . S
C2000 C2004 1.393 . S
C2000 C2007 1.500 . S
C2001 C2000 1.382 . S
C2001 C2002 1.400 . S
C2001 H2012 0.930 . S
C2002 C2001 1.400 . S
C2002 C2003 1.384 . S
C2003 C2002 1.384 . S
C2003 C2005 1.392 . S
C2003 H2013 0.931 . S
C2004 C2000 1.393 . S
C2004 C2005 1.401 . S
C2004 H2014 0.930 . S
C2005 C2003 1.392 . S
C2005 C2004 1.401 . S
C2005 H2015 0.930 . S
C2006 O1984 1.262 . S
C2006 O1985 1.260 . S
C2007 Tb1943 2.833 . S
C2007 O1982 1.251 . S
C2007 O1987 1.256 . S
C2007 C2000 1.500 . S
H2008 C1991 0.930 . S
H2009 C1992 0.931 . S
H2010 C1993 0.930 . S
H2011 C1994 0.930 . S
H2012 C2001 0.930 . S
H2013 C2003 0.931 . S
H2014 C2004 0.930 . S
H2015 C2005 0.930 . S
Tb2016 N2047 2.660 . S
Tb2016 N2054 2.600 . S
Tb2016 O2060 2.546 . S
Tb2016 O2061 2.610 . S
Tb2016 O2063 2.320 . S
Tb2016 O2064 2.552 . S
Tb2016 O2065 2.413 . S
Tb2016 O2067 2.362 . S
Tb2016 O2068 2.421 . S
Tb2016 C2080 2.833 . S
C2017 C2020 1.432 . S
C2017 C2021 1.414 . S
C2017 N2024 1.359 . S
C2018 C2020 1.417 . S
C2018 C2022 1.432 . S
C2018 C2030 1.410 . S
C2019 C2021 1.444 . S
C2019 C2022 1.317 . S
C2019 H2042 0.929 . S
C2020 C2017 1.432 . S
C2020 C2018 1.417 . S
C2020 N2028 1.360 . S
C2021 C2017 1.414 . S
C2021 C2019 1.444 . S
C2021 C2026 1.385 . S
C2022 C2018 1.432 . S
C2022 C2019 1.317 . S
C2022 H2034 0.930 . S
C2023 C2025 1.392 . S
C2023 C2026 1.370 . S
C2023 H2035 0.931 . S
N2024 C2017 1.359 . S
N2024 C2025 1.327 . S
N2024 Tb2027 2.600 . S
C2025 C2023 1.392 . S
C2025 N2024 1.327 . S
C2025 H2032 0.930 . S
C2026 C2021 1.385 . S
C2026 C2023 1.370 . S
C2026 H2045 0.930 . S
Tb2027 N2024 2.600 . S
Tb2027 N2028 2.660 . S
Tb2027 O2061 2.362 . S
Tb2027 O2062 2.421 . S
Tb2027 O2066 2.546 . S
Tb2027 O2067 2.610 . S
Tb2027 O2069 2.320 . S
Tb2027 O2070 2.552 . S
Tb2027 O2071 2.413 . S
Tb2027 C2091 2.833 . S
N2028 C2020 1.360 . S
N2028 Tb2027 2.660 . S
N2028 C2029 1.305 . S
C2029 N2028 1.305 . S
C2029 C2031 1.407 . S
C2029 H2036 0.930 . S
C2030 C2018 1.410 . S
C2030 C2031 1.345 . S
C2030 H2038 0.930 . S
C2031 C2029 1.407 . S
C2031 C2030 1.345 . S
C2031 H2033 0.930 . S
H2032 C2025 0.930 . S
H2033 C2031 0.930 . S
H2034 C2022 0.930 . S
H2035 C2023 0.931 . S
H2036 C2029 0.930 . S
H2037 C2051 0.930 . S
H2038 C2030 0.930 . S
H2039 C2057 0.930 . S
H2040 C2048 0.930 . S
H2041 C2055 0.931 . S
H2042 C2019 0.929 . S
H2043 C2049 0.930 . S
H2044 C2082 0.930 . S
H2045 C2026 0.930 . S
H2046 C2081 0.929 . S
N2047 Tb2016 2.660 . S
N2047 C2048 1.305 . S
N2047 C2052 1.360 . S
C2048 H2040 0.930 . S
C2048 N2047 1.305 . S
C2048 C2051 1.407 . S
C2049 H2043 0.930 . S
C2049 C2050 1.410 . S
C2049 C2051 1.345 . S
C2050 C2049 1.410 . S
C2050 C2052 1.417 . S
C2050 C2082 1.432 . S
C2051 H2037 0.930 . S
C2051 C2048 1.407 . S
C2051 C2049 1.345 . S
C2052 N2047 1.360 . S
C2052 C2050 1.417 . S
C2052 C2056 1.432 . S
H2053 C2058 0.930 . S
N2054 Tb2016 2.600 . S
N2054 C2056 1.359 . S
N2054 C2057 1.327 . S
C2055 H2041 0.931 . S
C2055 C2057 1.392 . S
C2055 C2058 1.370 . S
C2056 C2052 1.432 . S
C2056 N2054 1.359 . S
C2056 C2059 1.414 . S
C2057 H2039 0.930 . S
C2057 N2054 1.327 . S
C2057 C2055 1.392 . S
C2058 H2053 0.930 . S
C2058 C2055 1.370 . S
C2058 C2059 1.385 . S
C2059 C2056 1.414 . S
C2059 C2058 1.385 . S
C2059 C2081 1.444 . S
O2060 Tb2016 2.546 . S
O2060 C2080 1.251 . S
O2061 Tb2016 2.610 . S
O2061 Tb2027 2.362 . S
O2061 C2072 1.283 . S
O2062 Tb2027 2.421 . S
O2062 C2079 1.262 . S
O2063 Tb2016 2.320 . S
O2063 C2079 1.260 . S
O2064 Tb2016 2.552 . S
O2064 C2072 1.243 . S
O2065 Tb2016 2.413 . S
O2065 C2080 1.256 . S
O2066 Tb2027 2.546 . S
O2066 C2091 1.251 . S
O2067 Tb2016 2.362 . S
O2067 Tb2027 2.610 . S
O2067 C2083 1.283 . S
O2068 Tb2016 2.421 . S
O2068 C2090 1.262 . S
O2069 Tb2027 2.320 . S
O2069 C2090 1.260 . S
O2070 Tb2027 2.552 . S
O2070 C2083 1.243 . S
O2071 Tb2027 2.413 . S
O2071 C2091 1.256 . S
C2072 O2061 1.283 . S
C2072 O2064 1.243 . S
C2073 C2075 1.382 . S
C2073 C2077 1.393 . S
C2073 C2080 1.500 . S
C2074 C2075 1.400 . S
C2074 C2076 1.384 . S
C2075 C2073 1.382 . S
C2075 C2074 1.400 . S
C2075 H2092 0.930 . S
C2076 C2074 1.384 . S
C2076 C2078 1.392 . S
C2076 H2093 0.931 . S
C2077 C2073 1.393 . S
C2077 C2078 1.401 . S
C2077 H2094 0.930 . S
C2078 C2076 1.392 . S
C2078 C2077 1.401 . S
C2078 H2095 0.930 . S
C2079 O2062 1.262 . S
C2079 O2063 1.260 . S
C2080 Tb2016 2.833 . S
C2080 O2060 1.251 . S
C2080 O2065 1.256 . S
C2080 C2073 1.500 . S
C2081 H2046 0.929 . S
C2081 C2059 1.444 . S
C2081 C2082 1.317 . S
C2082 H2044 0.930 . S
C2082 C2050 1.432 . S
C2082 C2081 1.317 . S
C2083 O2067 1.283 . S
C2083 O2070 1.243 . S
C2084 C2085 1.382 . S
C2084 C2088 1.393 . S
C2084 C2091 1.500 . S
C2085 C2084 1.382 . S
C2085 C2086 1.400 . S
C2085 H2096 0.930 . S
C2086 C2085 1.400 . S
C2086 C2087 1.384 . S
C2087 C2086 1.384 . S
C2087 C2089 1.392 . S
C2087 H2097 0.931 . S
C2088 C2084 1.393 . S
C2088 C2089 1.401 . S
C2088 H2098 0.930 . S
C2089 C2087 1.392 . S
C2089 C2088 1.401 . S
C2089 H2099 0.930 . S
C2090 O2068 1.262 . S
C2090 O2069 1.260 . S
C2091 Tb2027 2.833 . S
C2091 O2066 1.251 . S
C2091 O2071 1.256 . S
C2091 C2084 1.500 . S
H2092 C2075 0.930 . S
H2093 C2076 0.931 . S
H2094 C2077 0.930 . S
H2095 C2078 0.930 . S
H2096 C2085 0.930 . S
H2097 C2087 0.931 . S
H2098 C2088 0.930 . S
H2099 C2089 0.930 . S
Tb2100 N2131 2.660 . S
Tb2100 N2138 2.600 . S
Tb2100 O2144 2.546 . S
Tb2100 O2145 2.610 . S
Tb2100 O2147 2.320 . S
Tb2100 O2148 2.552 . S
Tb2100 O2149 2.413 . S
Tb2100 O2151 2.362 . S
Tb2100 O2152 2.421 . S
Tb2100 C2164 2.833 . S
C2101 C2104 1.432 . S
C2101 C2105 1.414 . S
C2101 N2108 1.359 . S
C2102 C2104 1.417 . S
C2102 C2106 1.432 . S
C2102 C2114 1.410 . S
C2103 C2105 1.444 . S
C2103 C2106 1.317 . S
C2103 H2126 0.929 . S
C2104 C2101 1.432 . S
C2104 C2102 1.417 . S
C2104 N2112 1.360 . S
C2105 C2101 1.414 . S
C2105 C2103 1.444 . S
C2105 C2110 1.385 . S
C2106 C2102 1.432 . S
C2106 C2103 1.317 . S
C2106 H2118 0.930 . S
C2107 C2109 1.392 . S
C2107 C2110 1.370 . S
C2107 H2119 0.931 . S
N2108 C2101 1.359 . S
N2108 C2109 1.327 . S
N2108 Tb2111 2.600 . S
C2109 C2107 1.392 . S
C2109 N2108 1.327 . S
C2109 H2116 0.930 . S
C2110 C2105 1.385 . S
C2110 C2107 1.370 . S
C2110 H2129 0.930 . S
Tb2111 N2108 2.600 . S
Tb2111 N2112 2.660 . S
Tb2111 O2145 2.362 . S
Tb2111 O2146 2.421 . S
Tb2111 O2150 2.546 . S
Tb2111 O2151 2.610 . S
Tb2111 O2153 2.320 . S
Tb2111 O2154 2.552 . S
Tb2111 O2155 2.413 . S
Tb2111 C2175 2.833 . S
N2112 C2104 1.360 . S
N2112 Tb2111 2.660 . S
N2112 C2113 1.305 . S
C2113 N2112 1.305 . S
C2113 C2115 1.407 . S
C2113 H2120 0.930 . S
C2114 C2102 1.410 . S
C2114 C2115 1.345 . S
C2114 H2122 0.930 . S
C2115 C2113 1.407 . S
C2115 C2114 1.345 . S
C2115 H2117 0.930 . S
H2116 C2109 0.930 . S
H2117 C2115 0.930 . S
H2118 C2106 0.930 . S
H2119 C2107 0.931 . S
H2120 C2113 0.930 . S
H2121 C2135 0.930 . S
H2122 C2114 0.930 . S
H2123 C2141 0.930 . S
H2124 C2132 0.930 . S
H2125 C2139 0.931 . S
H2126 C2103 0.929 . S
H2127 C2133 0.930 . S
H2128 C2166 0.930 . S
H2129 C2110 0.930 . S
H2130 C2165 0.929 . S
N2131 Tb2100 2.660 . S
N2131 C2132 1.305 . S
N2131 C2136 1.360 . S
C2132 H2124 0.930 . S
C2132 N2131 1.305 . S
C2132 C2135 1.407 . S
C2133 H2127 0.930 . S
C2133 C2134 1.410 . S
C2133 C2135 1.345 . S
C2134 C2133 1.410 . S
C2134 C2136 1.417 . S
C2134 C2166 1.432 . S
C2135 H2121 0.930 . S
C2135 C2132 1.407 . S
C2135 C2133 1.345 . S
C2136 N2131 1.360 . S
C2136 C2134 1.417 . S
C2136 C2140 1.432 . S
H2137 C2142 0.930 . S
N2138 Tb2100 2.600 . S
N2138 C2140 1.359 . S
N2138 C2141 1.327 . S
C2139 H2125 0.931 . S
C2139 C2141 1.392 . S
C2139 C2142 1.370 . S
C2140 C2136 1.432 . S
C2140 N2138 1.359 . S
C2140 C2143 1.414 . S
C2141 H2123 0.930 . S
C2141 N2138 1.327 . S
C2141 C2139 1.392 . S
C2142 H2137 0.930 . S
C2142 C2139 1.370 . S
C2142 C2143 1.385 . S
C2143 C2140 1.414 . S
C2143 C2142 1.385 . S
C2143 C2165 1.444 . S
O2144 Tb2100 2.546 . S
O2144 C2164 1.251 . S
O2145 Tb2100 2.610 . S
O2145 Tb2111 2.362 . S
O2145 C2156 1.283 . S
O2146 Tb2111 2.421 . S
O2146 C2163 1.262 . S
O2147 Tb2100 2.320 . S
O2147 C2163 1.260 . S
O2148 Tb2100 2.552 . S
O2148 C2156 1.243 . S
O2149 Tb2100 2.413 . S
O2149 C2164 1.256 . S
O2150 Tb2111 2.546 . S
O2150 C2175 1.251 . S
O2151 Tb2100 2.362 . S
O2151 Tb2111 2.610 . S
O2151 C2167 1.283 . S
O2152 Tb2100 2.421 . S
O2152 C2174 1.262 . S
O2153 Tb2111 2.320 . S
O2153 C2174 1.260 . S
O2154 Tb2111 2.552 . S
O2154 C2167 1.243 . S
O2155 Tb2111 2.413 . S
O2155 C2175 1.256 . S
C2156 O2145 1.283 . S
C2156 O2148 1.243 . S
C2157 C2159 1.382 . S
C2157 C2161 1.393 . S
C2157 C2164 1.500 . S
C2158 C2159 1.400 . S
C2158 C2160 1.384 . S
C2159 C2157 1.382 . S
C2159 C2158 1.400 . S
C2159 H2176 0.930 . S
C2160 C2158 1.384 . S
C2160 C2162 1.392 . S
C2160 H2177 0.931 . S
C2161 C2157 1.393 . S
C2161 C2162 1.401 . S
C2161 H2178 0.930 . S
C2162 C2160 1.392 . S
C2162 C2161 1.401 . S
C2162 H2179 0.930 . S
C2163 O2146 1.262 . S
C2163 O2147 1.260 . S
C2164 Tb2100 2.833 . S
C2164 O2144 1.251 . S
C2164 O2149 1.256 . S
C2164 C2157 1.500 . S
C2165 H2130 0.929 . S
C2165 C2143 1.444 . S
C2165 C2166 1.317 . S
C2166 H2128 0.930 . S
C2166 C2134 1.432 . S
C2166 C2165 1.317 . S
C2167 O2151 1.283 . S
C2167 O2154 1.243 . S
C2168 C2169 1.382 . S
C2168 C2172 1.393 . S
C2168 C2175 1.500 . S
C2169 C2168 1.382 . S
C2169 C2170 1.400 . S
C2169 H2180 0.930 . S
C2170 C2169 1.400 . S
C2170 C2171 1.384 . S
C2171 C2170 1.384 . S
C2171 C2173 1.392 . S
C2171 H2181 0.931 . S
C2172 C2168 1.393 . S
C2172 C2173 1.401 . S
C2172 H2182 0.930 . S
C2173 C2171 1.392 . S
C2173 C2172 1.401 . S
C2173 H2183 0.930 . S
C2174 O2152 1.262 . S
C2174 O2153 1.260 . S
C2175 Tb2111 2.833 . S
C2175 O2150 1.251 . S
C2175 O2155 1.256 . S
C2175 C2168 1.500 . S
H2176 C2159 0.930 . S
H2177 C2160 0.931 . S
H2178 C2161 0.930 . S
H2179 C2162 0.930 . S
H2180 C2169 0.930 . S
H2181 C2171 0.931 . S
H2182 C2172 0.930 . S
H2183 C2173 0.930 . S
Tb2184 N2215 2.660 . S
Tb2184 N2222 2.600 . S
Tb2184 O2228 2.546 . S
Tb2184 O2229 2.610 . S
Tb2184 O2231 2.320 . S
Tb2184 O2232 2.552 . S
Tb2184 O2233 2.413 . S
Tb2184 O2235 2.362 . S
Tb2184 O2236 2.421 . S
Tb2184 C2248 2.833 . S
C2185 C2188 1.432 . S
C2185 C2189 1.414 . S
C2185 N2192 1.359 . S
C2186 C2188 1.417 . S
C2186 C2190 1.432 . S
C2186 C2198 1.410 . S
C2187 C2189 1.444 . S
C2187 C2190 1.317 . S
C2187 H2210 0.929 . S
C2188 C2185 1.432 . S
C2188 C2186 1.417 . S
C2188 N2196 1.360 . S
C2189 C2185 1.414 . S
C2189 C2187 1.444 . S
C2189 C2194 1.385 . S
C2190 C2186 1.432 . S
C2190 C2187 1.317 . S
C2190 H2202 0.930 . S
C2191 C2193 1.392 . S
C2191 C2194 1.370 . S
C2191 H2203 0.931 . S
N2192 C2185 1.359 . S
N2192 C2193 1.327 . S
N2192 Tb2195 2.600 . S
C2193 C2191 1.392 . S
C2193 N2192 1.327 . S
C2193 H2200 0.930 . S
C2194 C2189 1.385 . S
C2194 C2191 1.370 . S
C2194 H2213 0.930 . S
Tb2195 N2192 2.600 . S
Tb2195 N2196 2.660 . S
Tb2195 O2229 2.362 . S
Tb2195 O2230 2.421 . S
Tb2195 O2234 2.546 . S
Tb2195 O2235 2.610 . S
Tb2195 O2237 2.320 . S
Tb2195 O2238 2.552 . S
Tb2195 O2239 2.413 . S
Tb2195 C2259 2.833 . S
N2196 C2188 1.360 . S
N2196 Tb2195 2.660 . S
N2196 C2197 1.305 . S
C2197 N2196 1.305 . S
C2197 C2199 1.407 . S
C2197 H2204 0.930 . S
C2198 C2186 1.410 . S
C2198 C2199 1.345 . S
C2198 H2206 0.930 . S
C2199 C2197 1.407 . S
C2199 C2198 1.345 . S
C2199 H2201 0.930 . S
H2200 C2193 0.930 . S
H2201 C2199 0.930 . S
H2202 C2190 0.930 . S
H2203 C2191 0.931 . S
H2204 C2197 0.930 . S
H2205 C2219 0.930 . S
H2206 C2198 0.930 . S
H2207 C2225 0.930 . S
H2208 C2216 0.930 . S
H2209 C2223 0.931 . S
H2210 C2187 0.929 . S
H2211 C2217 0.930 . S
H2212 C2250 0.930 . S
H2213 C2194 0.930 . S
H2214 C2249 0.929 . S
N2215 Tb2184 2.660 . S
N2215 C2216 1.305 . S
N2215 C2220 1.360 . S
C2216 H2208 0.930 . S
C2216 N2215 1.305 . S
C2216 C2219 1.407 . S
C2217 H2211 0.930 . S
C2217 C2218 1.410 . S
C2217 C2219 1.345 . S
C2218 C2217 1.410 . S
C2218 C2220 1.417 . S
C2218 C2250 1.432 . S
C2219 H2205 0.930 . S
C2219 C2216 1.407 . S
C2219 C2217 1.345 . S
C2220 N2215 1.360 . S
C2220 C2218 1.417 . S
C2220 C2224 1.432 . S
H2221 C2226 0.930 . S
N2222 Tb2184 2.600 . S
N2222 C2224 1.359 . S
N2222 C2225 1.327 . S
C2223 H2209 0.931 . S
C2223 C2225 1.392 . S
C2223 C2226 1.370 . S
C2224 C2220 1.432 . S
C2224 N2222 1.359 . S
C2224 C2227 1.414 . S
C2225 H2207 0.930 . S
C2225 N2222 1.327 . S
C2225 C2223 1.392 . S
C2226 H2221 0.930 . S
C2226 C2223 1.370 . S
C2226 C2227 1.385 . S
C2227 C2224 1.414 . S
C2227 C2226 1.385 . S
C2227 C2249 1.444 . S
O2228 Tb2184 2.546 . S
O2228 C2248 1.251 . S
O2229 Tb2184 2.610 . S
O2229 Tb2195 2.362 . S
O2229 C2240 1.283 . S
O2230 Tb2195 2.421 . S
O2230 C2247 1.262 . S
O2231 Tb2184 2.320 . S
O2231 C2247 1.260 . S
O2232 Tb2184 2.552 . S
O2232 C2240 1.243 . S
O2233 Tb2184 2.413 . S
O2233 C2248 1.256 . S
O2234 Tb2195 2.546 . S
O2234 C2259 1.251 . S
O2235 Tb2184 2.362 . S
O2235 Tb2195 2.610 . S
O2235 C2251 1.283 . S
O2236 Tb2184 2.421 . S
O2236 C2258 1.262 . S
O2237 Tb2195 2.320 . S
O2237 C2258 1.260 . S
O2238 Tb2195 2.552 . S
O2238 C2251 1.243 . S
O2239 Tb2195 2.413 . S
O2239 C2259 1.256 . S
C2240 O2229 1.283 . S
C2240 O2232 1.243 . S
C2241 C2243 1.382 . S
C2241 C2245 1.393 . S
C2241 C2248 1.500 . S
C2242 C2243 1.400 . S
C2242 C2244 1.384 . S
C2243 C2241 1.382 . S
C2243 C2242 1.400 . S
C2243 H2260 0.930 . S
C2244 C2242 1.384 . S
C2244 C2246 1.392 . S
C2244 H2261 0.931 . S
C2245 C2241 1.393 . S
C2245 C2246 1.401 . S
C2245 H2262 0.930 . S
C2246 C2244 1.392 . S
C2246 C2245 1.401 . S
C2246 H2263 0.930 . S
C2247 O2230 1.262 . S
C2247 O2231 1.260 . S
C2248 Tb2184 2.833 . S
C2248 O2228 1.251 . S
C2248 O2233 1.256 . S
C2248 C2241 1.500 . S
C2249 H2214 0.929 . S
C2249 C2227 1.444 . S
C2249 C2250 1.317 . S
C2250 H2212 0.930 . S
C2250 C2218 1.432 . S
C2250 C2249 1.317 . S
C2251 O2235 1.283 . S
C2251 O2238 1.243 . S
C2252 C2253 1.382 . S
C2252 C2256 1.393 . S
C2252 C2259 1.500 . S
C2253 C2252 1.382 . S
C2253 C2254 1.400 . S
C2253 H2264 0.930 . S
C2254 C2253 1.400 . S
C2254 C2255 1.384 . S
C2255 C2254 1.384 . S
C2255 C2257 1.392 . S
C2255 H2265 0.931 . S
C2256 C2252 1.393 . S
C2256 C2257 1.401 . S
C2256 H2266 0.930 . S
C2257 C2255 1.392 . S
C2257 C2256 1.401 . S
C2257 H2267 0.930 . S
C2258 O2236 1.262 . S
C2258 O2237 1.260 . S
C2259 Tb2195 2.833 . S
C2259 O2234 1.251 . S
C2259 O2239 1.256 . S
C2259 C2252 1.500 . S
H2260 C2243 0.930 . S
H2261 C2244 0.931 . S
H2262 C2245 0.930 . S
H2263 C2246 0.930 . S
H2264 C2253 0.930 . S
H2265 C2255 0.931 . S
H2266 C2256 0.930 . S
H2267 C2257 0.930 . S
Tb2268 N2299 2.660 . S
Tb2268 N2306 2.600 . S
Tb2268 O2312 2.546 . S
Tb2268 O2313 2.610 . S
Tb2268 O2315 2.320 . S
Tb2268 O2316 2.552 . S
Tb2268 O2317 2.413 . S
Tb2268 O2319 2.362 . S
Tb2268 O2320 2.421 . S
Tb2268 C2332 2.833 . S
C2269 C2272 1.432 . S
C2269 C2273 1.414 . S
C2269 N2276 1.359 . S
C2270 C2272 1.417 . S
C2270 C2274 1.432 . S
C2270 C2282 1.410 . S
C2271 C2273 1.444 . S
C2271 C2274 1.317 . S
C2271 H2294 0.929 . S
C2272 C2269 1.432 . S
C2272 C2270 1.417 . S
C2272 N2280 1.360 . S
C2273 C2269 1.414 . S
C2273 C2271 1.444 . S
C2273 C2278 1.385 . S
C2274 C2270 1.432 . S
C2274 C2271 1.317 . S
C2274 H2286 0.930 . S
C2275 C2277 1.393 1_655 S
C2275 C2278 1.370 . S
C2275 H2287 0.931 . S
N2276 C2269 1.359 . S
N2276 C2277 1.328 1_655 S
N2276 Tb2279 2.600 1_655 S
C2277 C2275 1.393 1_455 S
C2277 N2276 1.328 1_455 S
C2277 H2284 0.928 . S
C2278 C2273 1.385 . S
C2278 C2275 1.370 . S
C2278 H2297 0.930 . S
Tb2279 N2276 2.600 1_455 S
Tb2279 N2280 2.660 1_455 S
Tb2279 O2313 2.362 . S
Tb2279 O2314 2.421 . S
Tb2279 O2318 2.546 1_455 S
Tb2279 O2319 2.610 . S
Tb2279 O2321 2.320 . S
Tb2279 O2322 2.552 . S
Tb2279 O2323 2.413 1_455 S
Tb2279 C2343 2.833 1_455 S
N2280 C2272 1.360 . S
N2280 Tb2279 2.660 1_655 S
N2280 C2281 1.305 . S
C2281 N2280 1.305 . S
C2281 C2283 1.407 . S
C2281 H2288 0.930 . S
C2282 C2270 1.410 . S
C2282 C2283 1.345 . S
C2282 H2290 0.930 . S
C2283 C2281 1.407 . S
C2283 C2282 1.345 . S
C2283 H2285 0.930 . S
H2284 C2277 0.928 . S
H2285 C2283 0.930 . S
H2286 C2274 0.930 . S
H2287 C2275 0.931 . S
H2288 C2281 0.930 . S
H2289 C2303 0.930 . S
H2290 C2282 0.930 . S
H2291 C2309 0.930 . S
H2292 C2300 0.930 . S
H2293 C2307 0.931 . S
H2294 C2271 0.929 . S
H2295 C2301 0.930 . S
H2296 C2334 0.930 . S
H2297 C2278 0.930 . S
H2298 C2333 0.929 . S
N2299 Tb2268 2.660 . S
N2299 C2300 1.305 . S
N2299 C2304 1.360 . S
C2300 H2292 0.930 . S
C2300 N2299 1.305 . S
C2300 C2303 1.407 . S
C2301 H2295 0.930 . S
C2301 C2302 1.410 . S
C2301 C2303 1.345 . S
C2302 C2301 1.410 . S
C2302 C2304 1.417 . S
C2302 C2334 1.432 . S
C2303 H2289 0.930 . S
C2303 C2300 1.407 . S
C2303 C2301 1.345 . S
C2304 N2299 1.360 . S
C2304 C2302 1.417 . S
C2304 C2308 1.432 . S
H2305 C2310 0.930 . S
N2306 Tb2268 2.600 . S
N2306 C2308 1.359 . S
N2306 C2309 1.327 . S
C2307 H2293 0.931 . S
C2307 C2309 1.392 . S
C2307 C2310 1.370 . S
C2308 C2304 1.432 . S
C2308 N2306 1.359 . S
C2308 C2311 1.414 . S
C2309 H2291 0.930 . S
C2309 N2306 1.327 . S
C2309 C2307 1.392 . S
C2310 H2305 0.930 . S
C2310 C2307 1.370 . S
C2310 C2311 1.385 . S
C2311 C2308 1.414 . S
C2311 C2310 1.385 . S
C2311 C2333 1.444 . S
O2312 Tb2268 2.546 . S
O2312 C2332 1.251 . S
O2313 Tb2268 2.610 . S
O2313 Tb2279 2.362 . S
O2313 C2324 1.283 . S
O2314 Tb2279 2.421 . S
O2314 C2331 1.262 . S
O2315 Tb2268 2.320 . S
O2315 C2331 1.260 . S
O2316 Tb2268 2.552 . S
O2316 C2324 1.243 . S
O2317 Tb2268 2.413 . S
O2317 C2332 1.256 . S
O2318 Tb2279 2.546 1_655 S
O2318 C2343 1.251 . S
O2319 Tb2268 2.362 . S
O2319 Tb2279 2.610 . S
O2319 C2335 1.283 . S
O2320 Tb2268 2.421 . S
O2320 C2342 1.262 . S
O2321 Tb2279 2.320 . S
O2321 C2342 1.260 . S
O2322 Tb2279 2.552 . S
O2322 C2335 1.243 . S
O2323 Tb2279 2.413 1_655 S
O2323 C2343 1.256 . S
C2324 O2313 1.283 . S
C2324 O2316 1.243 . S
C2325 C2327 1.382 . S
C2325 C2329 1.393 . S
C2325 C2332 1.500 . S
C2326 C2327 1.400 . S
C2326 C2328 1.384 . S
C2327 C2325 1.382 . S
C2327 C2326 1.400 . S
C2327 H2344 0.930 . S
C2328 C2326 1.384 . S
C2328 C2330 1.392 . S
C2328 H2345 0.931 . S
C2329 C2325 1.393 . S
C2329 C2330 1.401 . S
C2329 H2346 0.930 . S
C2330 C2328 1.392 . S
C2330 C2329 1.401 . S
C2330 H2347 0.930 . S
C2331 O2314 1.262 . S
C2331 O2315 1.260 . S
C2332 Tb2268 2.833 . S
C2332 O2312 1.251 . S
C2332 O2317 1.256 . S
C2332 C2325 1.500 . S
C2333 H2298 0.929 . S
C2333 C2311 1.444 . S
C2333 C2334 1.317 . S
C2334 H2296 0.930 . S
C2334 C2302 1.432 . S
C2334 C2333 1.317 . S
C2335 O2319 1.283 . S
C2335 O2322 1.243 . S
C2336 C2337 1.382 . S
C2336 C2340 1.393 . S
C2336 C2343 1.500 . S
C2337 C2336 1.382 . S
C2337 C2338 1.400 . S
C2337 H2348 0.930 . S
C2338 C2337 1.400 . S
C2338 C2339 1.384 . S
C2339 C2338 1.384 . S
C2339 C2341 1.392 . S
C2339 H2349 0.931 . S
C2340 C2336 1.393 . S
C2340 C2341 1.401 . S
C2340 H2350 0.930 . S
C2341 C2339 1.392 . S
C2341 C2340 1.401 . S
C2341 H2351 0.930 . S
C2342 O2320 1.262 . S
C2342 O2321 1.260 . S
C2343 Tb2279 2.833 1_655 S
C2343 O2318 1.251 . S
C2343 O2323 1.256 . S
C2343 C2336 1.500 . S
H2344 C2327 0.930 . S
H2345 C2328 0.931 . S
H2346 C2329 0.930 . S
H2347 C2330 0.930 . S
H2348 C2337 0.930 . S
H2349 C2339 0.931 . S
H2350 C2340 0.930 . S
H2351 C2341 0.930 . S
Tb2352 N2383 2.660 . S
Tb2352 N2390 2.600 . S
Tb2352 O2396 2.546 . S
Tb2352 O2397 2.610 . S
Tb2352 O2399 2.320 . S
Tb2352 O2400 2.552 . S
Tb2352 O2401 2.413 . S
Tb2352 O2403 2.362 . S
Tb2352 O2404 2.421 . S
Tb2352 C2416 2.833 . S
C2353 C2356 1.432 . S
C2353 C2357 1.414 . S
C2353 N2360 1.359 . S
C2354 C2356 1.417 . S
C2354 C2358 1.432 . S
C2354 C2366 1.410 . S
C2355 C2357 1.444 . S
C2355 C2358 1.317 . S
C2355 H2378 0.929 . S
C2356 C2353 1.432 . S
C2356 C2354 1.417 . S
C2356 N2364 1.360 . S
C2357 C2353 1.414 . S
C2357 C2355 1.444 . S
C2357 C2362 1.385 . S
C2358 C2354 1.432 . S
C2358 C2355 1.317 . S
C2358 H2370 0.930 . S
C2359 C2361 1.392 . S
C2359 C2362 1.370 . S
C2359 H2371 0.931 . S
N2360 C2353 1.359 . S
N2360 C2361 1.327 . S
N2360 Tb2363 2.600 . S
C2361 C2359 1.392 . S
C2361 N2360 1.327 . S
C2361 H2368 0.930 . S
C2362 C2357 1.385 . S
C2362 C2359 1.370 . S
C2362 H2381 0.930 . S
Tb2363 N2360 2.600 . S
Tb2363 N2364 2.660 . S
Tb2363 O2397 2.362 . S
Tb2363 O2398 2.421 . S
Tb2363 O2402 2.546 . S
Tb2363 O2403 2.610 . S
Tb2363 O2405 2.320 . S
Tb2363 O2406 2.552 . S
Tb2363 O2407 2.413 . S
Tb2363 C2427 2.833 . S
N2364 C2356 1.360 . S
N2364 Tb2363 2.660 . S
N2364 C2365 1.305 . S
C2365 N2364 1.305 . S
C2365 C2367 1.407 . S
C2365 H2372 0.930 . S
C2366 C2354 1.410 . S
C2366 C2367 1.345 . S
C2366 H2374 0.930 . S
C2367 C2365 1.407 . S
C2367 C2366 1.345 . S
C2367 H2369 0.930 . S
H2368 C2361 0.930 . S
H2369 C2367 0.930 . S
H2370 C2358 0.930 . S
H2371 C2359 0.931 . S
H2372 C2365 0.930 . S
H2373 C2387 0.930 . S
H2374 C2366 0.930 . S
H2375 C2393 0.930 . S
H2376 C2384 0.930 . S
H2377 C2391 0.931 . S
H2378 C2355 0.929 . S
H2379 C2385 0.930 . S
H2380 C2418 0.930 . S
H2381 C2362 0.930 . S
H2382 C2417 0.929 . S
N2383 Tb2352 2.660 . S
N2383 C2384 1.305 . S
N2383 C2388 1.360 . S
C2384 H2376 0.930 . S
C2384 N2383 1.305 . S
C2384 C2387 1.407 . S
C2385 H2379 0.930 . S
C2385 C2386 1.410 . S
C2385 C2387 1.345 . S
C2386 C2385 1.410 . S
C2386 C2388 1.417 . S
C2386 C2418 1.432 . S
C2387 H2373 0.930 . S
C2387 C2384 1.407 . S
C2387 C2385 1.345 . S
C2388 N2383 1.360 . S
C2388 C2386 1.417 . S
C2388 C2392 1.432 . S
H2389 C2394 0.930 . S
N2390 Tb2352 2.600 . S
N2390 C2392 1.359 . S
N2390 C2393 1.327 . S
C2391 H2377 0.931 . S
C2391 C2393 1.392 . S
C2391 C2394 1.370 . S
C2392 C2388 1.432 . S
C2392 N2390 1.359 . S
C2392 C2395 1.414 . S
C2393 H2375 0.930 . S
C2393 N2390 1.327 . S
C2393 C2391 1.392 . S
C2394 H2389 0.930 . S
C2394 C2391 1.370 . S
C2394 C2395 1.385 . S
C2395 C2392 1.414 . S
C2395 C2394 1.385 . S
C2395 C2417 1.444 . S
O2396 Tb2352 2.546 . S
O2396 C2416 1.251 . S
O2397 Tb2352 2.610 . S
O2397 Tb2363 2.362 . S
O2397 C2408 1.283 . S
O2398 Tb2363 2.421 . S
O2398 C2415 1.262 . S
O2399 Tb2352 2.320 . S
O2399 C2415 1.260 . S
O2400 Tb2352 2.552 . S
O2400 C2408 1.243 . S
O2401 Tb2352 2.413 . S
O2401 C2416 1.256 . S
O2402 Tb2363 2.546 . S
O2402 C2427 1.251 . S
O2403 Tb2352 2.362 . S
O2403 Tb2363 2.610 . S
O2403 C2419 1.283 . S
O2404 Tb2352 2.421 . S
O2404 C2426 1.262 . S
O2405 Tb2363 2.320 . S
O2405 C2426 1.260 . S
O2406 Tb2363 2.552 . S
O2406 C2419 1.243 . S
O2407 Tb2363 2.413 . S
O2407 C2427 1.256 . S
C2408 O2397 1.283 . S
C2408 O2400 1.243 . S
C2409 C2411 1.382 . S
C2409 C2413 1.393 . S
C2409 C2416 1.500 . S
C2410 C2411 1.400 . S
C2410 C2412 1.384 . S
C2411 C2409 1.382 . S
C2411 C2410 1.400 . S
C2411 H2428 0.930 . S
C2412 C2410 1.384 . S
C2412 C2414 1.392 . S
C2412 H2429 0.931 . S
C2413 C2409 1.393 . S
C2413 C2414 1.401 . S
C2413 H2430 0.930 . S
C2414 C2412 1.392 . S
C2414 C2413 1.401 . S
C2414 H2431 0.930 . S
C2415 O2398 1.262 . S
C2415 O2399 1.260 . S
C2416 Tb2352 2.833 . S
C2416 O2396 1.251 . S
C2416 O2401 1.256 . S
C2416 C2409 1.500 . S
C2417 H2382 0.929 . S
C2417 C2395 1.444 . S
C2417 C2418 1.317 . S
C2418 H2380 0.930 . S
C2418 C2386 1.432 . S
C2418 C2417 1.317 . S
C2419 O2403 1.283 . S
C2419 O2406 1.243 . S
C2420 C2421 1.382 . S
C2420 C2424 1.393 . S
C2420 C2427 1.500 . S
C2421 C2420 1.382 . S
C2421 C2422 1.400 . S
C2421 H2432 0.930 . S
C2422 C2421 1.400 . S
C2422 C2423 1.384 . S
C2423 C2422 1.384 . S
C2423 C2425 1.392 . S
C2423 H2433 0.931 . S
C2424 C2420 1.393 . S
C2424 C2425 1.401 . S
C2424 H2434 0.930 . S
C2425 C2423 1.392 . S
C2425 C2424 1.401 . S
C2425 H2435 0.930 . S
C2426 O2404 1.262 . S
C2426 O2405 1.260 . S
C2427 Tb2363 2.833 . S
C2427 O2402 1.251 . S
C2427 O2407 1.256 . S
C2427 C2420 1.500 . S
H2428 C2411 0.930 . S
H2429 C2412 0.931 . S
H2430 C2413 0.930 . S
H2431 C2414 0.930 . S
H2432 C2421 0.930 . S
H2433 C2423 0.931 . S
H2434 C2424 0.930 . S
H2435 C2425 0.930 . S
Tb2436 N2467 2.660 . S
Tb2436 N2474 2.600 . S
Tb2436 O2480 2.546 . S
Tb2436 O2481 2.610 . S
Tb2436 O2483 2.320 . S
Tb2436 O2484 2.552 . S
Tb2436 O2485 2.413 . S
Tb2436 O2487 2.362 . S
Tb2436 O2488 2.421 . S
Tb2436 C2500 2.833 . S
C2437 C2440 1.432 . S
C2437 C2441 1.414 . S
C2437 N2444 1.359 . S
C2438 C2440 1.417 . S
C2438 C2442 1.432 . S
C2438 C2450 1.410 . S
C2439 C2441 1.444 . S
C2439 C2442 1.317 . S
C2439 H2462 0.929 . S
C2440 C2437 1.432 . S
C2440 C2438 1.417 . S
C2440 N2448 1.360 . S
C2441 C2437 1.414 . S
C2441 C2439 1.444 . S
C2441 C2446 1.385 . S
C2442 C2438 1.432 . S
C2442 C2439 1.317 . S
C2442 H2454 0.930 . S
C2443 C2445 1.393 1_655 S
C2443 C2446 1.370 . S
C2443 H2455 0.931 . S
N2444 C2437 1.359 . S
N2444 C2445 1.328 1_655 S
N2444 Tb2447 2.600 1_655 S
C2445 C2443 1.393 1_455 S
C2445 N2444 1.328 1_455 S
C2445 H2452 0.928 . S
C2446 C2441 1.385 . S
C2446 C2443 1.370 . S
C2446 H2465 0.930 . S
Tb2447 N2444 2.600 1_455 S
Tb2447 N2448 2.660 1_455 S
Tb2447 O2481 2.362 . S
Tb2447 O2482 2.421 . S
Tb2447 O2486 2.546 1_455 S
Tb2447 O2487 2.610 . S
Tb2447 O2489 2.320 . S
Tb2447 O2490 2.552 . S
Tb2447 O2491 2.413 1_455 S
Tb2447 C2511 2.833 1_455 S
N2448 C2440 1.360 . S
N2448 Tb2447 2.660 1_655 S
N2448 C2449 1.305 . S
C2449 N2448 1.305 . S
C2449 C2451 1.407 . S
C2449 H2456 0.930 . S
C2450 C2438 1.410 . S
C2450 C2451 1.345 . S
C2450 H2458 0.930 . S
C2451 C2449 1.407 . S
C2451 C2450 1.345 . S
C2451 H2453 0.930 . S
H2452 C2445 0.928 . S
H2453 C2451 0.930 . S
H2454 C2442 0.930 . S
H2455 C2443 0.931 . S
H2456 C2449 0.930 . S
H2457 C2471 0.930 . S
H2458 C2450 0.930 . S
H2459 C2477 0.930 . S
H2460 C2468 0.930 . S
H2461 C2475 0.931 . S
H2462 C2439 0.929 . S
H2463 C2469 0.930 . S
H2464 C2502 0.930 . S
H2465 C2446 0.930 . S
H2466 C2501 0.929 . S
N2467 Tb2436 2.660 . S
N2467 C2468 1.305 . S
N2467 C2472 1.360 . S
C2468 H2460 0.930 . S
C2468 N2467 1.305 . S
C2468 C2471 1.407 . S
C2469 H2463 0.930 . S
C2469 C2470 1.410 . S
C2469 C2471 1.345 . S
C2470 C2469 1.410 . S
C2470 C2472 1.417 . S
C2470 C2502 1.432 . S
C2471 H2457 0.930 . S
C2471 C2468 1.407 . S
C2471 C2469 1.345 . S
C2472 N2467 1.360 . S
C2472 C2470 1.417 . S
C2472 C2476 1.432 . S
H2473 C2478 0.930 . S
N2474 Tb2436 2.600 . S
N2474 C2476 1.359 . S
N2474 C2477 1.327 . S
C2475 H2461 0.931 . S
C2475 C2477 1.392 . S
C2475 C2478 1.370 . S
C2476 C2472 1.432 . S
C2476 N2474 1.359 . S
C2476 C2479 1.414 . S
C2477 H2459 0.930 . S
C2477 N2474 1.327 . S
C2477 C2475 1.392 . S
C2478 H2473 0.930 . S
C2478 C2475 1.370 . S
C2478 C2479 1.385 . S
C2479 C2476 1.414 . S
C2479 C2478 1.385 . S
C2479 C2501 1.444 . S
O2480 Tb2436 2.546 . S
O2480 C2500 1.251 . S
O2481 Tb2436 2.610 . S
O2481 Tb2447 2.362 . S
O2481 C2492 1.283 . S
O2482 Tb2447 2.421 . S
O2482 C2499 1.262 . S
O2483 Tb2436 2.320 . S
O2483 C2499 1.260 . S
O2484 Tb2436 2.552 . S
O2484 C2492 1.243 . S
O2485 Tb2436 2.413 . S
O2485 C2500 1.256 . S
O2486 Tb2447 2.546 1_655 S
O2486 C2511 1.251 . S
O2487 Tb2436 2.362 . S
O2487 Tb2447 2.610 . S
O2487 C2503 1.283 . S
O2488 Tb2436 2.421 . S
O2488 C2510 1.262 . S
O2489 Tb2447 2.320 . S
O2489 C2510 1.260 . S
O2490 Tb2447 2.552 . S
O2490 C2503 1.243 . S
O2491 Tb2447 2.413 1_655 S
O2491 C2511 1.256 . S
C2492 O2481 1.283 . S
C2492 O2484 1.243 . S
C2493 C2495 1.382 . S
C2493 C2497 1.393 . S
C2493 C2500 1.500 . S
C2494 C2495 1.400 . S
C2494 C2496 1.384 . S
C2495 C2493 1.382 . S
C2495 C2494 1.400 . S
C2495 H2512 0.930 . S
C2496 C2494 1.384 . S
C2496 C2498 1.392 . S
C2496 H2513 0.931 . S
C2497 C2493 1.393 . S
C2497 C2498 1.401 . S
C2497 H2514 0.930 . S
C2498 C2496 1.392 . S
C2498 C2497 1.401 . S
C2498 H2515 0.930 . S
C2499 O2482 1.262 . S
C2499 O2483 1.260 . S
C2500 Tb2436 2.833 . S
C2500 O2480 1.251 . S
C2500 O2485 1.256 . S
C2500 C2493 1.500 . S
C2501 H2466 0.929 . S
C2501 C2479 1.444 . S
C2501 C2502 1.317 . S
C2502 H2464 0.930 . S
C2502 C2470 1.432 . S
C2502 C2501 1.317 . S
C2503 O2487 1.283 . S
C2503 O2490 1.243 . S
C2504 C2505 1.382 . S
C2504 C2508 1.393 . S
C2504 C2511 1.500 . S
C2505 C2504 1.382 . S
C2505 C2506 1.400 . S
C2505 H2516 0.930 . S
C2506 C2505 1.400 . S
C2506 C2507 1.384 . S
C2507 C2506 1.384 . S
C2507 C2509 1.392 . S
C2507 H2517 0.931 . S
C2508 C2504 1.393 . S
C2508 C2509 1.401 . S
C2508 H2518 0.930 . S
C2509 C2507 1.392 . S
C2509 C2508 1.401 . S
C2509 H2519 0.930 . S
C2510 O2488 1.262 . S
C2510 O2489 1.260 . S
C2511 Tb2447 2.833 1_655 S
C2511 O2486 1.251 . S
C2511 O2491 1.256 . S
C2511 C2504 1.500 . S
H2512 C2495 0.930 . S
H2513 C2496 0.931 . S
H2514 C2497 0.930 . S
H2515 C2498 0.930 . S
H2516 C2505 0.930 . S
H2517 C2507 0.931 . S
H2518 C2508 0.930 . S
H2519 C2509 0.930 . S
Tb2520 N2551 2.660 . S
Tb2520 N2558 2.600 . S
Tb2520 O2564 2.546 . S
Tb2520 O2565 2.610 . S
Tb2520 O2567 2.320 . S
Tb2520 O2568 2.552 . S
Tb2520 O2569 2.413 . S
Tb2520 O2571 2.362 . S
Tb2520 O2572 2.421 . S
Tb2520 C2584 2.833 . S
C2521 C2524 1.432 . S
C2521 C2525 1.414 . S
C2521 N2528 1.359 . S
C2522 C2524 1.417 . S
C2522 C2526 1.432 . S
C2522 C2534 1.410 . S
C2523 C2525 1.444 . S
C2523 C2526 1.317 . S
C2523 H2546 0.929 . S
C2524 C2521 1.432 . S
C2524 C2522 1.417 . S
C2524 N2532 1.360 . S
C2525 C2521 1.414 . S
C2525 C2523 1.444 . S
C2525 C2530 1.385 . S
C2526 C2522 1.432 . S
C2526 C2523 1.317 . S
C2526 H2538 0.930 . S
C2527 C2529 1.392 . S
C2527 C2530 1.370 . S
C2527 H2539 0.931 . S
N2528 C2521 1.359 . S
N2528 C2529 1.327 . S
N2528 Tb2531 2.600 . S
C2529 C2527 1.392 . S
C2529 N2528 1.327 . S
C2529 H2536 0.930 . S
C2530 C2525 1.385 . S
C2530 C2527 1.370 . S
C2530 H2549 0.930 . S
Tb2531 N2528 2.600 . S
Tb2531 N2532 2.660 . S
Tb2531 O2565 2.362 . S
Tb2531 O2566 2.421 . S
Tb2531 O2570 2.546 . S
Tb2531 O2571 2.610 . S
Tb2531 O2573 2.320 . S
Tb2531 O2574 2.552 . S
Tb2531 O2575 2.413 . S
Tb2531 C2595 2.833 . S
N2532 C2524 1.360 . S
N2532 Tb2531 2.660 . S
N2532 C2533 1.305 . S
C2533 N2532 1.305 . S
C2533 C2535 1.407 . S
C2533 H2540 0.930 . S
C2534 C2522 1.410 . S
C2534 C2535 1.345 . S
C2534 H2542 0.930 . S
C2535 C2533 1.407 . S
C2535 C2534 1.345 . S
C2535 H2537 0.930 . S
H2536 C2529 0.930 . S
H2537 C2535 0.930 . S
H2538 C2526 0.930 . S
H2539 C2527 0.931 . S
H2540 C2533 0.930 . S
H2541 C2555 0.930 . S
H2542 C2534 0.930 . S
H2543 C2561 0.930 . S
H2544 C2552 0.930 . S
H2545 C2559 0.931 . S
H2546 C2523 0.929 . S
H2547 C2553 0.930 . S
H2548 C2586 0.930 . S
H2549 C2530 0.930 . S
H2550 C2585 0.929 . S
N2551 Tb2520 2.660 . S
N2551 C2552 1.305 . S
N2551 C2556 1.360 . S
C2552 H2544 0.930 . S
C2552 N2551 1.305 . S
C2552 C2555 1.407 . S
C2553 H2547 0.930 . S
C2553 C2554 1.410 . S
C2553 C2555 1.345 . S
C2554 C2553 1.410 . S
C2554 C2556 1.417 . S
C2554 C2586 1.432 . S
C2555 H2541 0.930 . S
C2555 C2552 1.407 . S
C2555 C2553 1.345 . S
C2556 N2551 1.360 . S
C2556 C2554 1.417 . S
C2556 C2560 1.432 . S
H2557 C2562 0.930 . S
N2558 Tb2520 2.600 . S
N2558 C2560 1.359 . S
N2558 C2561 1.327 . S
C2559 H2545 0.931 . S
C2559 C2561 1.392 . S
C2559 C2562 1.370 . S
C2560 C2556 1.432 . S
C2560 N2558 1.359 . S
C2560 C2563 1.414 . S
C2561 H2543 0.930 . S
C2561 N2558 1.327 . S
C2561 C2559 1.392 . S
C2562 H2557 0.930 . S
C2562 C2559 1.370 . S
C2562 C2563 1.385 . S
C2563 C2560 1.414 . S
C2563 C2562 1.385 . S
C2563 C2585 1.444 . S
O2564 Tb2520 2.546 . S
O2564 C2584 1.251 . S
O2565 Tb2520 2.610 . S
O2565 Tb2531 2.362 . S
O2565 C2576 1.283 . S
O2566 Tb2531 2.421 . S
O2566 C2583 1.262 . S
O2567 Tb2520 2.320 . S
O2567 C2583 1.260 . S
O2568 Tb2520 2.552 . S
O2568 C2576 1.243 . S
O2569 Tb2520 2.413 . S
O2569 C2584 1.256 . S
O2570 Tb2531 2.546 . S
O2570 C2595 1.251 . S
O2571 Tb2520 2.362 . S
O2571 Tb2531 2.610 . S
O2571 C2587 1.283 . S
O2572 Tb2520 2.421 . S
O2572 C2594 1.262 . S
O2573 Tb2531 2.320 . S
O2573 C2594 1.260 . S
O2574 Tb2531 2.552 . S
O2574 C2587 1.243 . S
O2575 Tb2531 2.413 . S
O2575 C2595 1.256 . S
C2576 O2565 1.283 . S
C2576 O2568 1.243 . S
C2577 C2579 1.382 . S
C2577 C2581 1.393 . S
C2577 C2584 1.500 . S
C2578 C2579 1.400 . S
C2578 C2580 1.384 . S
C2579 C2577 1.382 . S
C2579 C2578 1.400 . S
C2579 H2596 0.930 . S
C2580 C2578 1.384 . S
C2580 C2582 1.392 . S
C2580 H2597 0.931 . S
C2581 C2577 1.393 . S
C2581 C2582 1.401 . S
C2581 H2598 0.930 . S
C2582 C2580 1.392 . S
C2582 C2581 1.401 . S
C2582 H2599 0.930 . S
C2583 O2566 1.262 . S
C2583 O2567 1.260 . S
C2584 Tb2520 2.833 . S
C2584 O2564 1.251 . S
C2584 O2569 1.256 . S
C2584 C2577 1.500 . S
C2585 H2550 0.929 . S
C2585 C2563 1.444 . S
C2585 C2586 1.317 . S
C2586 H2548 0.930 . S
C2586 C2554 1.432 . S
C2586 C2585 1.317 . S
C2587 O2571 1.283 . S
C2587 O2574 1.243 . S
C2588 C2589 1.382 . S
C2588 C2592 1.393 . S
C2588 C2595 1.500 . S
C2589 C2588 1.382 . S
C2589 C2590 1.400 . S
C2589 H2600 0.930 . S
C2590 C2589 1.400 . S
C2590 C2591 1.384 . S
C2591 C2590 1.384 . S
C2591 C2593 1.392 . S
C2591 H2601 0.931 . S
C2592 C2588 1.393 . S
C2592 C2593 1.401 . S
C2592 H2602 0.930 . S
C2593 C2591 1.392 . S
C2593 C2592 1.401 . S
C2593 H2603 0.930 . S
C2594 O2572 1.262 . S
C2594 O2573 1.260 . S
C2595 Tb2531 2.833 . S
C2595 O2570 1.251 . S
C2595 O2575 1.256 . S
C2595 C2588 1.500 . S
H2596 C2579 0.930 . S
H2597 C2580 0.931 . S
H2598 C2581 0.930 . S
H2599 C2582 0.930 . S
H2600 C2589 0.930 . S
H2601 C2591 0.931 . S
H2602 C2592 0.930 . S
H2603 C2593 0.930 . S
Tb2604 N2635 2.660 . S
Tb2604 N2642 2.600 . S
Tb2604 O2648 2.546 . S
Tb2604 O2649 2.610 . S
Tb2604 O2651 2.320 . S
Tb2604 O2652 2.552 . S
Tb2604 O2653 2.413 . S
Tb2604 O2655 2.362 . S
Tb2604 O2656 2.421 . S
Tb2604 C2668 2.833 . S
C2605 C2608 1.432 . S
C2605 C2609 1.414 . S
C2605 N2612 1.359 . S
C2606 C2608 1.417 . S
C2606 C2610 1.432 . S
C2606 C2618 1.410 . S
C2607 C2609 1.444 . S
C2607 C2610 1.317 . S
C2607 H2630 0.929 . S
C2608 C2605 1.432 . S
C2608 C2606 1.417 . S
C2608 N2616 1.360 . S
C2609 C2605 1.414 . S
C2609 C2607 1.444 . S
C2609 C2614 1.385 . S
C2610 C2606 1.432 . S
C2610 C2607 1.317 . S
C2610 H2622 0.930 . S
C2611 C2613 1.392 . S
C2611 C2614 1.370 . S
C2611 H2623 0.931 . S
N2612 C2605 1.359 . S
N2612 C2613 1.327 . S
N2612 Tb2615 2.600 . S
C2613 C2611 1.392 . S
C2613 N2612 1.327 . S
C2613 H2620 0.930 . S
C2614 C2609 1.385 . S
C2614 C2611 1.370 . S
C2614 H2633 0.930 . S
Tb2615 N2612 2.600 . S
Tb2615 N2616 2.660 . S
Tb2615 O2649 2.362 . S
Tb2615 O2650 2.421 . S
Tb2615 O2654 2.546 . S
Tb2615 O2655 2.610 . S
Tb2615 O2657 2.320 . S
Tb2615 O2658 2.552 . S
Tb2615 O2659 2.413 . S
Tb2615 C2679 2.833 . S
N2616 C2608 1.360 . S
N2616 Tb2615 2.660 . S
N2616 C2617 1.305 . S
C2617 N2616 1.305 . S
C2617 C2619 1.407 . S
C2617 H2624 0.930 . S
C2618 C2606 1.410 . S
C2618 C2619 1.345 . S
C2618 H2626 0.930 . S
C2619 C2617 1.407 . S
C2619 C2618 1.345 . S
C2619 H2621 0.930 . S
H2620 C2613 0.930 . S
H2621 C2619 0.930 . S
H2622 C2610 0.930 . S
H2623 C2611 0.931 . S
H2624 C2617 0.930 . S
H2625 C2639 0.930 . S
H2626 C2618 0.930 . S
H2627 C2645 0.930 . S
H2628 C2636 0.930 . S
H2629 C2643 0.931 . S
H2630 C2607 0.929 . S
H2631 C2637 0.930 . S
H2632 C2670 0.930 . S
H2633 C2614 0.930 . S
H2634 C2669 0.929 . S
N2635 Tb2604 2.660 . S
N2635 C2636 1.305 . S
N2635 C2640 1.360 . S
C2636 H2628 0.930 . S
C2636 N2635 1.305 . S
C2636 C2639 1.407 . S
C2637 H2631 0.930 . S
C2637 C2638 1.410 . S
C2637 C2639 1.345 . S
C2638 C2637 1.410 . S
C2638 C2640 1.417 . S
C2638 C2670 1.432 . S
C2639 H2625 0.930 . S
C2639 C2636 1.407 . S
C2639 C2637 1.345 . S
C2640 N2635 1.360 . S
C2640 C2638 1.417 . S
C2640 C2644 1.432 . S
H2641 C2646 0.930 . S
N2642 Tb2604 2.600 . S
N2642 C2644 1.359 . S
N2642 C2645 1.327 . S
C2643 H2629 0.931 . S
C2643 C2645 1.392 . S
C2643 C2646 1.370 . S
C2644 C2640 1.432 . S
C2644 N2642 1.359 . S
C2644 C2647 1.414 . S
C2645 H2627 0.930 . S
C2645 N2642 1.327 . S
C2645 C2643 1.392 . S
C2646 H2641 0.930 . S
C2646 C2643 1.370 . S
C2646 C2647 1.385 . S
C2647 C2644 1.414 . S
C2647 C2646 1.385 . S
C2647 C2669 1.444 . S
O2648 Tb2604 2.546 . S
O2648 C2668 1.251 . S
O2649 Tb2604 2.610 . S
O2649 Tb2615 2.362 . S
O2649 C2660 1.283 . S
O2650 Tb2615 2.421 . S
O2650 C2667 1.262 . S
O2651 Tb2604 2.320 . S
O2651 C2667 1.260 . S
O2652 Tb2604 2.552 . S
O2652 C2660 1.243 . S
O2653 Tb2604 2.413 . S
O2653 C2668 1.256 . S
O2654 Tb2615 2.546 . S
O2654 C2679 1.251 . S
O2655 Tb2604 2.362 . S
O2655 Tb2615 2.610 . S
O2655 C2671 1.283 . S
O2656 Tb2604 2.421 . S
O2656 C2678 1.262 . S
O2657 Tb2615 2.320 . S
O2657 C2678 1.260 . S
O2658 Tb2615 2.552 . S
O2658 C2671 1.243 . S
O2659 Tb2615 2.413 . S
O2659 C2679 1.256 . S
C2660 O2649 1.283 . S
C2660 O2652 1.243 . S
C2661 C2663 1.382 . S
C2661 C2665 1.393 . S
C2661 C2668 1.500 . S
C2662 C2663 1.400 . S
C2662 C2664 1.384 . S
C2663 C2661 1.382 . S
C2663 C2662 1.400 . S
C2663 H2680 0.930 . S
C2664 C2662 1.384 . S
C2664 C2666 1.392 . S
C2664 H2681 0.931 . S
C2665 C2661 1.393 . S
C2665 C2666 1.401 . S
C2665 H2682 0.930 . S
C2666 C2664 1.392 . S
C2666 C2665 1.401 . S
C2666 H2683 0.930 . S
C2667 O2650 1.262 . S
C2667 O2651 1.260 . S
C2668 Tb2604 2.833 . S
C2668 O2648 1.251 . S
C2668 O2653 1.256 . S
C2668 C2661 1.500 . S
C2669 H2634 0.929 . S
C2669 C2647 1.444 . S
C2669 C2670 1.317 . S
C2670 H2632 0.930 . S
C2670 C2638 1.432 . S
C2670 C2669 1.317 . S
C2671 O2655 1.283 . S
C2671 O2658 1.243 . S
C2672 C2673 1.382 . S
C2672 C2676 1.393 . S
C2672 C2679 1.500 . S
C2673 C2672 1.382 . S
C2673 C2674 1.400 . S
C2673 H2684 0.930 . S
C2674 C2673 1.400 . S
C2674 C2675 1.384 . S
C2675 C2674 1.384 . S
C2675 C2677 1.392 . S
C2675 H2685 0.931 . S
C2676 C2672 1.393 . S
C2676 C2677 1.401 . S
C2676 H2686 0.930 . S
C2677 C2675 1.392 . S
C2677 C2676 1.401 . S
C2677 H2687 0.930 . S
C2678 O2656 1.262 . S
C2678 O2657 1.260 . S
C2679 Tb2615 2.833 . S
C2679 O2654 1.251 . S
C2679 O2659 1.256 . S
C2679 C2672 1.500 . S
H2680 C2663 0.930 . S
H2681 C2664 0.931 . S
H2682 C2665 0.930 . S
H2683 C2666 0.930 . S
H2684 C2673 0.930 . S
H2685 C2675 0.931 . S
H2686 C2676 0.930 . S
H2687 C2677 0.930 . S
H2688 C2694 0.930 . S
H2689 C2697 0.930 . S
H2690 C2698 0.930 . S
H2691 C2699 0.930 . S
H2692 C2702 0.930 . S
H2693 C2703 0.930 . S
C2694 H2688 0.930 . S
C2694 C2695 1.355 . S
C2694 C2696 1.415 . S
C2695 C2694 1.355 . S
C2695 C2697 1.419 . S
C2696 C2694 1.415 . S
C2696 C2701 1.425 . S
C2696 C2703 1.409 . S
C2697 H2689 0.930 . S
C2697 C2695 1.419 . S
C2697 C2698 1.362 . S
C2698 H2690 0.930 . S
C2698 C2697 1.362 . S
C2698 C2701 1.409 . S
C2699 H2691 0.930 . S
C2699 C2700 1.355 . S
C2699 C2701 1.415 . S
C2700 C2699 1.355 . S
C2700 C2702 1.419 . S
C2701 C2696 1.425 . S
C2701 C2698 1.409 . S
C2701 C2699 1.415 . S
C2702 H2692 0.930 . S
C2702 C2700 1.419 . S
C2702 C2703 1.362 . S
C2703 H2693 0.930 . S
C2703 C2696 1.409 . S
C2703 C2702 1.362 . S
H2704 C2710 0.930 . S
H2705 C2713 0.930 . S
H2706 C2714 0.930 . S
H2707 C2715 0.930 . S
H2708 C2718 0.930 . S
H2709 C2719 0.930 . S
C2710 H2704 0.930 . S
C2710 C2711 1.355 . S
C2710 C2712 1.415 . S
C2711 C2710 1.355 . S
C2711 C2713 1.419 . S
C2712 C2710 1.415 . S
C2712 C2717 1.425 . S
C2712 C2719 1.409 . S
C2713 H2705 0.930 . S
C2713 C2711 1.419 . S
C2713 C2714 1.362 . S
C2714 H2706 0.930 . S
C2714 C2713 1.362 . S
C2714 C2717 1.409 . S
C2715 H2707 0.930 . S
C2715 C2716 1.355 . S
C2715 C2717 1.415 . S
C2716 C2715 1.355 . S
C2716 C2718 1.419 . S
C2717 C2712 1.425 . S
C2717 C2714 1.409 . S
C2717 C2715 1.415 . S
C2718 H2708 0.930 . S
C2718 C2716 1.419 . S
C2718 C2719 1.362 . S
C2719 H2709 0.930 . S
C2719 C2712 1.409 . S
C2719 C2718 1.362 . S
H2720 C2726 0.930 . S
H2721 C2729 0.930 . S
H2722 C2730 0.930 . S
H2723 C2731 0.930 . S
H2724 C2734 0.930 . S
H2725 C2735 0.930 . S
C2726 H2720 0.930 . S
C2726 C2727 1.355 . S
C2726 C2728 1.415 . S
C2727 C2726 1.355 . S
C2727 C2729 1.419 . S
C2728 C2726 1.415 . S
C2728 C2733 1.425 . S
C2728 C2735 1.409 . S
C2729 H2721 0.930 . S
C2729 C2727 1.419 . S
C2729 C2730 1.362 . S
C2730 H2722 0.930 . S
C2730 C2729 1.362 . S
C2730 C2733 1.409 . S
C2731 H2723 0.930 . S
C2731 C2732 1.355 . S
C2731 C2733 1.415 . S
C2732 C2731 1.355 . S
C2732 C2734 1.419 . S
C2733 C2728 1.425 . S
C2733 C2730 1.409 . S
C2733 C2731 1.415 . S
C2734 H2724 0.930 . S
C2734 C2732 1.419 . S
C2734 C2735 1.362 . S
C2735 H2725 0.930 . S
C2735 C2728 1.409 . S
C2735 C2734 1.362 . S
H2736 C2742 0.930 . S
H2737 C2745 0.930 . S
H2738 C2746 0.930 . S
H2739 C2747 0.930 . S
H2740 C2750 0.930 . S
H2741 C2751 0.930 . S
C2742 H2736 0.930 . S
C2742 C2743 1.355 . S
C2742 C2744 1.415 . S
C2743 C2742 1.355 . S
C2743 C2745 1.419 . S
C2744 C2742 1.415 . S
C2744 C2749 1.425 . S
C2744 C2751 1.409 . S
C2745 H2737 0.930 . S
C2745 C2743 1.419 . S
C2745 C2746 1.362 . S
C2746 H2738 0.930 . S
C2746 C2745 1.362 . S
C2746 C2749 1.409 . S
C2747 H2739 0.930 . S
C2747 C2748 1.355 . S
C2747 C2749 1.415 . S
C2748 C2747 1.355 . S
C2748 C2750 1.419 . S
C2749 C2744 1.425 . S
C2749 C2746 1.409 . S
C2749 C2747 1.415 . S
C2750 H2740 0.930 . S
C2750 C2748 1.419 . S
C2750 C2751 1.362 . S
C2751 H2741 0.930 . S
C2751 C2744 1.409 . S
C2751 C2750 1.362 . S
H2752 C2758 0.930 . S
H2753 C2761 0.930 . S
H2754 C2762 0.930 . S
H2755 C2763 0.930 . S
H2756 C2766 0.930 . S
H2757 C2767 0.930 . S
C2758 H2752 0.930 . S
C2758 C2759 1.355 . S
C2758 C2760 1.415 . S
C2759 C2758 1.355 . S
C2759 C2761 1.419 . S
C2760 C2758 1.415 . S
C2760 C2765 1.425 . S
C2760 C2767 1.409 . S
C2761 H2753 0.930 . S
C2761 C2759 1.419 . S
C2761 C2762 1.362 . S
C2762 H2754 0.930 . S
C2762 C2761 1.362 . S
C2762 C2765 1.409 . S
C2763 H2755 0.930 . S
C2763 C2764 1.355 . S
C2763 C2765 1.415 . S
C2764 C2763 1.355 . S
C2764 C2766 1.419 . S
C2765 C2760 1.425 . S
C2765 C2762 1.409 . S
C2765 C2763 1.415 . S
C2766 H2756 0.930 . S
C2766 C2764 1.419 . S
C2766 C2767 1.362 . S
C2767 H2757 0.930 . S
C2767 C2760 1.409 . S
C2767 C2766 1.362 . S
H2768 C2774 0.930 . S
H2769 C2777 0.930 . S
H2770 C2778 0.930 . S
H2771 C2779 0.930 . S
H2772 C2782 0.930 . S
H2773 C2783 0.930 . S
C2774 H2768 0.930 . S
C2774 C2775 1.355 . S
C2774 C2776 1.415 . S
C2775 C2774 1.355 . S
C2775 C2777 1.419 . S
C2776 C2774 1.415 . S
C2776 C2781 1.425 . S
C2776 C2783 1.409 . S
C2777 H2769 0.930 . S
C2777 C2775 1.419 . S
C2777 C2778 1.362 . S
C2778 H2770 0.930 . S
C2778 C2777 1.362 . S
C2778 C2781 1.409 . S
C2779 H2771 0.930 . S
C2779 C2780 1.355 . S
C2779 C2781 1.415 . S
C2780 C2779 1.355 . S
C2780 C2782 1.419 . S
C2781 C2776 1.425 . S
C2781 C2778 1.409 . S
C2781 C2779 1.415 . S
C2782 H2772 0.930 . S
C2782 C2780 1.419 . S
C2782 C2783 1.362 . S
C2783 H2773 0.930 . S
C2783 C2776 1.409 . S
C2783 C2782 1.362 . S
H2784 C2790 0.930 . S
H2785 C2793 0.930 . S
H2786 C2794 0.930 . S
H2787 C2795 0.930 . S
H2788 C2798 0.930 . S
H2789 C2799 0.930 . S
C2790 H2784 0.930 . S
C2790 C2791 1.355 . S
C2790 C2792 1.415 . S
C2791 C2790 1.355 . S
C2791 C2793 1.419 . S
C2792 C2790 1.415 . S
C2792 C2797 1.425 . S
C2792 C2799 1.409 . S
C2793 H2785 0.930 . S
C2793 C2791 1.419 . S
C2793 C2794 1.362 . S
C2794 H2786 0.930 . S
C2794 C2793 1.362 . S
C2794 C2797 1.409 . S
C2795 H2787 0.930 . S
C2795 C2796 1.355 . S
C2795 C2797 1.415 . S
C2796 C2795 1.355 . S
C2796 C2798 1.419 . S
C2797 C2792 1.425 . S
C2797 C2794 1.409 . S
C2797 C2795 1.415 . S
C2798 H2788 0.930 . S
C2798 C2796 1.419 . S
C2798 C2799 1.362 . S
C2799 H2789 0.930 . S
C2799 C2792 1.409 . S
C2799 C2798 1.362 . S
H2800 C2806 0.930 . S
H2801 C2809 0.930 . S
H2802 C2810 0.930 . S
H2803 C2811 0.930 . S
H2804 C2814 0.930 . S
H2805 C2815 0.930 . S
C2806 H2800 0.930 . S
C2806 C2807 1.355 . S
C2806 C2808 1.415 . S
C2807 C2806 1.355 . S
C2807 C2809 1.419 . S
C2808 C2806 1.415 . S
C2808 C2813 1.425 . S
C2808 C2815 1.409 . S
C2809 H2801 0.930 . S
C2809 C2807 1.419 . S
C2809 C2810 1.362 . S
C2810 H2802 0.930 . S
C2810 C2809 1.362 . S
C2810 C2813 1.409 . S
C2811 H2803 0.930 . S
C2811 C2812 1.355 . S
C2811 C2813 1.415 . S
C2812 C2811 1.355 . S
C2812 C2814 1.419 . S
C2813 C2808 1.425 . S
C2813 C2810 1.409 . S
C2813 C2811 1.415 . S
C2814 H2804 0.930 . S
C2814 C2812 1.419 . S
C2814 C2815 1.362 . S
C2815 H2805 0.930 . S
C2815 C2808 1.409 . S
C2815 C2814 1.362 . S
H2816 C2822 0.930 . S
H2817 C2825 0.930 . S
H2818 C2826 0.930 . S
H2819 C2827 0.930 . S
H2820 C2830 0.930 . S
H2821 C2831 0.930 . S
C2822 H2816 0.930 . S
C2822 C2823 1.355 . S
C2822 C2824 1.415 . S
C2823 C2822 1.355 . S
C2823 C2825 1.419 . S
C2824 C2822 1.415 . S
C2824 C2829 1.425 . S
C2824 C2831 1.409 . S
C2825 H2817 0.930 . S
C2825 C2823 1.419 . S
C2825 C2826 1.362 . S
C2826 H2818 0.930 . S
C2826 C2825 1.362 . S
C2826 C2829 1.409 . S
C2827 H2819 0.930 . S
C2827 C2828 1.355 . S
C2827 C2829 1.415 . S
C2828 C2827 1.355 . S
C2828 C2830 1.419 . S
C2829 C2824 1.425 . S
C2829 C2826 1.409 . S
C2829 C2827 1.415 . S
C2830 H2820 0.930 . S
C2830 C2828 1.419 . S
C2830 C2831 1.362 . S
C2831 H2821 0.930 . S
C2831 C2824 1.409 . S
C2831 C2830 1.362 . S
H2832 C2838 0.930 . S
H2833 C2841 0.930 . S
H2834 C2842 0.930 . S
H2835 C2843 0.930 . S
H2836 C2846 0.930 . S
H2837 C2847 0.930 . S
C2838 H2832 0.930 . S
C2838 C2839 1.355 . S
C2838 C2840 1.415 . S
C2839 C2838 1.355 . S
C2839 C2841 1.419 . S
C2840 C2838 1.415 . S
C2840 C2845 1.425 . S
C2840 C2847 1.409 . S
C2841 H2833 0.930 . S
C2841 C2839 1.419 . S
C2841 C2842 1.362 . S
C2842 H2834 0.930 . S
C2842 C2841 1.362 . S
C2842 C2845 1.409 . S
C2843 H2835 0.930 . S
C2843 C2844 1.355 . S
C2843 C2845 1.415 . S
C2844 C2843 1.355 . S
C2844 C2846 1.419 . S
C2845 C2840 1.425 . S
C2845 C2842 1.409 . S
C2845 C2843 1.415 . S
C2846 H2836 0.930 . S
C2846 C2844 1.419 . S
C2846 C2847 1.362 . S
C2847 H2837 0.930 . S
C2847 C2840 1.409 . S
C2847 C2846 1.362 . S
H2848 C2854 0.930 . S
H2849 C2857 0.930 . S
H2850 C2858 0.930 . S
H2851 C2859 0.930 . S
H2852 C2862 0.930 . S
H2853 C2863 0.930 . S
C2854 H2848 0.930 . S
C2854 C2855 1.355 . S
C2854 C2856 1.415 . S
C2855 C2854 1.355 . S
C2855 C2857 1.419 . S
C2856 C2854 1.415 . S
C2856 C2861 1.425 . S
C2856 C2863 1.409 . S
C2857 H2849 0.930 . S
C2857 C2855 1.419 . S
C2857 C2858 1.362 . S
C2858 H2850 0.930 . S
C2858 C2857 1.362 . S
C2858 C2861 1.409 . S
C2859 H2851 0.930 . S
C2859 C2860 1.355 . S
C2859 C2861 1.415 . S
C2860 C2859 1.355 . S
C2860 C2862 1.419 . S
C2861 C2856 1.425 . S
C2861 C2858 1.409 . S
C2861 C2859 1.415 . S
C2862 H2852 0.930 . S
C2862 C2860 1.419 . S
C2862 C2863 1.362 . S
C2863 H2853 0.930 . S
C2863 C2856 1.409 . S
C2863 C2862 1.362 . S
H2864 C2870 0.930 . S
H2865 C2873 0.930 . S
H2866 C2874 0.930 . S
H2867 C2875 0.930 . S
H2868 C2878 0.930 . S
H2869 C2879 0.930 . S
C2870 H2864 0.930 . S
C2870 C2871 1.355 . S
C2870 C2872 1.415 . S
C2871 C2870 1.355 . S
C2871 C2873 1.419 . S
C2872 C2870 1.415 . S
C2872 C2877 1.425 . S
C2872 C2879 1.409 . S
C2873 H2865 0.930 . S
C2873 C2871 1.419 . S
C2873 C2874 1.362 . S
C2874 H2866 0.930 . S
C2874 C2873 1.362 . S
C2874 C2877 1.409 . S
C2875 H2867 0.930 . S
C2875 C2876 1.355 . S
C2875 C2877 1.415 . S
C2876 C2875 1.355 . S
C2876 C2878 1.419 . S
C2877 C2872 1.425 . S
C2877 C2874 1.409 . S
C2877 C2875 1.415 . S
C2878 H2868 0.930 . S
C2878 C2876 1.419 . S
C2878 C2879 1.362 . S
C2879 H2869 0.930 . S
C2879 C2872 1.409 . S
C2879 C2878 1.362 . S
H2880 C2886 0.930 . S
H2881 C2889 0.930 . S
H2882 C2890 0.930 . S
H2883 C2891 0.930 . S
H2884 C2894 0.930 . S
H2885 C2895 0.930 . S
C2886 H2880 0.930 . S
C2886 C2887 1.355 . S
C2886 C2888 1.415 . S
C2887 C2886 1.355 . S
C2887 C2889 1.419 . S
C2888 C2886 1.415 . S
C2888 C2893 1.425 . S
C2888 C2895 1.409 . S
C2889 H2881 0.930 . S
C2889 C2887 1.419 . S
C2889 C2890 1.362 . S
C2890 H2882 0.930 . S
C2890 C2889 1.362 . S
C2890 C2893 1.409 . S
C2891 H2883 0.930 . S
C2891 C2892 1.355 . S
C2891 C2893 1.415 . S
C2892 C2891 1.355 . S
C2892 C2894 1.419 . S
C2893 C2888 1.425 . S
C2893 C2890 1.409 . S
C2893 C2891 1.415 . S
C2894 H2884 0.930 . S
C2894 C2892 1.419 . S
C2894 C2895 1.362 . S
C2895 H2885 0.930 . S
C2895 C2888 1.409 . S
C2895 C2894 1.362 . S
H2896 C2902 0.930 . S
H2897 C2905 0.930 . S
H2898 C2906 0.930 . S
H2899 C2907 0.930 . S
H2900 C2910 0.930 . S
H2901 C2911 0.930 . S
C2902 H2896 0.930 . S
C2902 C2903 1.355 . S
C2902 C2904 1.415 . S
C2903 C2902 1.355 . S
C2903 C2905 1.419 . S
C2904 C2902 1.415 . S
C2904 C2909 1.425 . S
C2904 C2911 1.409 . S
C2905 H2897 0.930 . S
C2905 C2903 1.419 . S
C2905 C2906 1.362 . S
C2906 H2898 0.930 . S
C2906 C2905 1.362 . S
C2906 C2909 1.409 . S
C2907 H2899 0.930 . S
C2907 C2908 1.355 . S
C2907 C2909 1.415 . S
C2908 C2907 1.355 . S
C2908 C2910 1.419 . S
C2909 C2904 1.425 . S
C2909 C2906 1.409 . S
C2909 C2907 1.415 . S
C2910 H2900 0.930 . S
C2910 C2908 1.419 . S
C2910 C2911 1.362 . S
C2911 H2901 0.930 . S
C2911 C2904 1.409 . S
C2911 C2910 1.362 . S
H2912 C2918 0.930 . S
H2913 C2921 0.930 . S
H2914 C2922 0.930 . S
H2915 C2923 0.930 . S
H2916 C2926 0.930 . S
H2917 C2927 0.930 . S
C2918 H2912 0.930 . S
C2918 C2919 1.355 . S
C2918 C2920 1.415 . S
C2919 C2918 1.355 . S
C2919 C2921 1.419 . S
C2920 C2918 1.415 . S
C2920 C2925 1.425 . S
C2920 C2927 1.409 . S
C2921 H2913 0.930 . S
C2921 C2919 1.419 . S
C2921 C2922 1.362 . S
C2922 H2914 0.930 . S
C2922 C2921 1.362 . S
C2922 C2925 1.409 . S
C2923 H2915 0.930 . S
C2923 C2924 1.355 . S
C2923 C2925 1.415 . S
C2924 C2923 1.355 . S
C2924 C2926 1.419 . S
C2925 C2920 1.425 . S
C2925 C2922 1.409 . S
C2925 C2923 1.415 . S
C2926 H2916 0.930 . S
C2926 C2924 1.419 . S
C2926 C2927 1.362 . S
C2927 H2917 0.930 . S
C2927 C2920 1.409 . S
C2927 C2926 1.362 . S
H2928 C2934 0.930 . S
H2929 C2937 0.930 . S
H2930 C2938 0.930 . S
H2931 C2939 0.930 . S
H2932 C2942 0.930 . S
H2933 C2943 0.930 . S
C2934 H2928 0.930 . S
C2934 C2935 1.355 . S
C2934 C2936 1.415 . S
C2935 C2934 1.355 . S
C2935 C2937 1.419 . S
C2936 C2934 1.415 . S
C2936 C2941 1.425 . S
C2936 C2943 1.409 . S
C2937 H2929 0.930 . S
C2937 C2935 1.419 . S
C2937 C2938 1.362 . S
C2938 H2930 0.930 . S
C2938 C2937 1.362 . S
C2938 C2941 1.409 . S
C2939 H2931 0.930 . S
C2939 C2940 1.355 . S
C2939 C2941 1.415 . S
C2940 C2939 1.355 . S
C2940 C2942 1.419 . S
C2941 C2936 1.425 . S
C2941 C2938 1.409 . S
C2941 C2939 1.415 . S
C2942 H2932 0.930 . S
C2942 C2940 1.419 . S
C2942 C2943 1.362 . S
C2943 H2933 0.930 . S
C2943 C2936 1.409 . S
C2943 C2942 1.362 . S
H2944 C2950 0.930 . S
H2945 C2953 0.930 . S
H2946 C2954 0.930 . S
H2947 C2955 0.930 . S
H2948 C2958 0.930 . S
H2949 C2959 0.930 . S
C2950 H2944 0.930 . S
C2950 C2951 1.355 . S
C2950 C2952 1.415 . S
C2951 C2950 1.355 . S
C2951 C2953 1.419 . S
C2952 C2950 1.415 . S
C2952 C2957 1.425 . S
C2952 C2959 1.409 . S
C2953 H2945 0.930 . S
C2953 C2951 1.419 . S
C2953 C2954 1.362 . S
C2954 H2946 0.930 . S
C2954 C2953 1.362 . S
C2954 C2957 1.409 . S
C2955 H2947 0.930 . S
C2955 C2956 1.355 . S
C2955 C2957 1.415 . S
C2956 C2955 1.355 . S
C2956 C2958 1.419 . S
C2957 C2952 1.425 . S
C2957 C2954 1.409 . S
C2957 C2955 1.415 . S
C2958 H2948 0.930 . S
C2958 C2956 1.419 . S
C2958 C2959 1.362 . S
C2959 H2949 0.930 . S
C2959 C2952 1.409 . S
C2959 C2958 1.362 . S
H2960 C2966 0.930 . S
H2961 C2969 0.930 . S
H2962 C2970 0.930 . S
H2963 C2971 0.930 . S
H2964 C2974 0.930 . S
H2965 C2975 0.930 . S
C2966 H2960 0.930 . S
C2966 C2967 1.355 . S
C2966 C2968 1.415 . S
C2967 C2966 1.355 . S
C2967 C2969 1.419 . S
C2968 C2966 1.415 . S
C2968 C2973 1.425 . S
C2968 C2975 1.409 . S
C2969 H2961 0.930 . S
C2969 C2967 1.419 . S
C2969 C2970 1.362 . S
C2970 H2962 0.930 . S
C2970 C2969 1.362 . S
C2970 C2973 1.409 . S
C2971 H2963 0.930 . S
C2971 C2972 1.355 . S
C2971 C2973 1.415 . S
C2972 C2971 1.355 . S
C2972 C2974 1.419 . S
C2973 C2968 1.425 . S
C2973 C2970 1.409 . S
C2973 C2971 1.415 . S
C2974 H2964 0.930 . S
C2974 C2972 1.419 . S
C2974 C2975 1.362 . S
C2975 H2965 0.930 . S
C2975 C2968 1.409 . S
C2975 C2974 1.362 . S
H2976 C2982 0.930 . S
H2977 C2985 0.930 . S
H2978 C2986 0.930 . S
H2979 C2987 0.930 . S
H2980 C2990 0.930 . S
H2981 C2991 0.930 . S
C2982 H2976 0.930 . S
C2982 C2983 1.355 . S
C2982 C2984 1.415 . S
C2983 C2982 1.355 . S
C2983 C2985 1.419 . S
C2984 C2982 1.415 . S
C2984 C2989 1.425 . S
C2984 C2991 1.409 . S
C2985 H2977 0.930 . S
C2985 C2983 1.419 . S
C2985 C2986 1.362 . S
C2986 H2978 0.930 . S
C2986 C2985 1.362 . S
C2986 C2989 1.409 . S
C2987 H2979 0.930 . S
C2987 C2988 1.355 . S
C2987 C2989 1.415 . S
C2988 C2987 1.355 . S
C2988 C2990 1.419 . S
C2989 C2984 1.425 . S
C2989 C2986 1.409 . S
C2989 C2987 1.415 . S
C2990 H2980 0.930 . S
C2990 C2988 1.419 . S
C2990 C2991 1.362 . S
C2991 H2981 0.930 . S
C2991 C2984 1.409 . S
C2991 C2990 1.362 . S
H2992 C2998 0.930 . S
H2993 C3001 0.930 . S
H2994 C3002 0.930 . S
H2995 C3003 0.930 . S
H2996 C3006 0.930 . S
H2997 C3007 0.930 . S
C2998 H2992 0.930 . S
C2998 C2999 1.355 . S
C2998 C3000 1.415 . S
C2999 C2998 1.355 . S
C2999 C3001 1.419 . S
C3000 C2998 1.415 . S
C3000 C3005 1.425 . S
C3000 C3007 1.409 . S
C3001 H2993 0.930 . S
C3001 C2999 1.419 . S
C3001 C3002 1.362 . S
C3002 H2994 0.930 . S
C3002 C3001 1.362 . S
C3002 C3005 1.409 . S
C3003 H2995 0.930 . S
C3003 C3004 1.355 . S
C3003 C3005 1.415 . S
C3004 C3003 1.355 . S
C3004 C3006 1.419 . S
C3005 C3000 1.425 . S
C3005 C3002 1.409 . S
C3005 C3003 1.415 . S
C3006 H2996 0.930 . S
C3006 C3004 1.419 . S
C3006 C3007 1.362 . S
C3007 H2997 0.930 . S
C3007 C3000 1.409 . S
C3007 C3006 1.362 . S
H3008 C3014 0.930 . S
H3009 C3017 0.930 . S
H3010 C3018 0.930 . S
H3011 C3019 0.930 . S
H3012 C3022 0.930 . S
H3013 C3023 0.930 . S
C3014 H3008 0.930 . S
C3014 C3015 1.355 . S
C3014 C3016 1.415 . S
C3015 C3014 1.355 . S
C3015 C3017 1.419 . S
C3016 C3014 1.415 . S
C3016 C3021 1.425 . S
C3016 C3023 1.409 . S
C3017 H3009 0.930 . S
C3017 C3015 1.419 . S
C3017 C3018 1.362 . S
C3018 H3010 0.930 . S
C3018 C3017 1.362 . S
C3018 C3021 1.409 . S
C3019 H3011 0.930 . S
C3019 C3020 1.355 . S
C3019 C3021 1.415 . S
C3020 C3019 1.355 . S
C3020 C3022 1.419 . S
C3021 C3016 1.425 . S
C3021 C3018 1.409 . S
C3021 C3019 1.415 . S
C3022 H3012 0.930 . S
C3022 C3020 1.419 . S
C3022 C3023 1.362 . S
C3023 H3013 0.930 . S
C3023 C3016 1.409 . S
C3023 C3022 1.362 . S
H3024 C3030 0.930 . S
H3025 C3033 0.930 . S
H3026 C3034 0.930 . S
H3027 C3035 0.930 . S
H3028 C3038 0.930 . S
H3029 C3039 0.930 . S
C3030 H3024 0.930 . S
C3030 C3031 1.355 . S
C3030 C3032 1.415 . S
C3031 C3030 1.355 . S
C3031 C3033 1.419 . S
C3032 C3030 1.415 . S
C3032 C3037 1.425 . S
C3032 C3039 1.409 . S
C3033 H3025 0.930 . S
C3033 C3031 1.419 . S
C3033 C3034 1.362 . S
C3034 H3026 0.930 . S
C3034 C3033 1.362 . S
C3034 C3037 1.409 . S
C3035 H3027 0.930 . S
C3035 C3036 1.355 . S
C3035 C3037 1.415 . S
C3036 C3035 1.355 . S
C3036 C3038 1.419 . S
C3037 C3032 1.425 . S
C3037 C3034 1.409 . S
C3037 C3035 1.415 . S
C3038 H3028 0.930 . S
C3038 C3036 1.419 . S
C3038 C3039 1.362 . S
C3039 H3029 0.930 . S
C3039 C3032 1.409 . S
C3039 C3038 1.362 . S
H3040 C3046 0.930 . S
H3041 C3049 0.930 . S
H3042 C3050 0.930 . S
H3043 C3051 0.930 . S
H3044 C3054 0.930 . S
H3045 C3055 0.930 . S
C3046 H3040 0.930 . S
C3046 C3047 1.355 . S
C3046 C3048 1.415 . S
C3047 C3046 1.355 . S
C3047 C3049 1.419 . S
C3048 C3046 1.415 . S
C3048 C3053 1.425 . S
C3048 C3055 1.409 . S
C3049 H3041 0.930 . S
C3049 C3047 1.419 . S
C3049 C3050 1.362 . S
C3050 H3042 0.930 . S
C3050 C3049 1.362 . S
C3050 C3053 1.409 . S
C3051 H3043 0.930 . S
C3051 C3052 1.355 . S
C3051 C3053 1.415 . S
C3052 C3051 1.355 . S
C3052 C3054 1.419 . S
C3053 C3048 1.425 . S
C3053 C3050 1.409 . S
C3053 C3051 1.415 . S
C3054 H3044 0.930 . S
C3054 C3052 1.419 . S
C3054 C3055 1.362 . S
C3055 H3045 0.930 . S
C3055 C3048 1.409 . S
C3055 C3054 1.362 . S
H3056 C3062 0.930 . S
H3057 C3065 0.930 . S
H3058 C3066 0.930 . S
H3059 C3067 0.930 . S
H3060 C3070 0.930 . S
H3061 C3071 0.930 . S
C3062 H3056 0.930 . S
C3062 C3063 1.355 . S
C3062 C3064 1.415 . S
C3063 C3062 1.355 . S
C3063 C3065 1.419 . S
C3064 C3062 1.415 . S
C3064 C3069 1.425 . S
C3064 C3071 1.409 . S
C3065 H3057 0.930 . S
C3065 C3063 1.419 . S
C3065 C3066 1.362 . S
C3066 H3058 0.930 . S
C3066 C3065 1.362 . S
C3066 C3069 1.409 . S
C3067 H3059 0.930 . S
C3067 C3068 1.355 . S
C3067 C3069 1.415 . S
C3068 C3067 1.355 . S
C3068 C3070 1.419 . S
C3069 C3064 1.425 . S
C3069 C3066 1.409 . S
C3069 C3067 1.415 . S
C3070 H3060 0.930 . S
C3070 C3068 1.419 . S
C3070 C3071 1.362 . S
C3071 H3061 0.930 . S
C3071 C3064 1.409 . S
C3071 C3070 1.362 . S
H3072 C3078 0.930 . S
H3073 C3081 0.930 . S
H3074 C3082 0.930 . S
H3075 C3083 0.930 . S
H3076 C3086 0.930 . S
H3077 C3087 0.930 . S
C3078 H3072 0.930 . S
C3078 C3079 1.355 . S
C3078 C3080 1.415 . S
C3079 C3078 1.355 . S
C3079 C3081 1.419 . S
C3080 C3078 1.415 . S
C3080 C3085 1.425 . S
C3080 C3087 1.409 . S
C3081 H3073 0.930 . S
C3081 C3079 1.419 . S
C3081 C3082 1.362 . S
C3082 H3074 0.930 . S
C3082 C3081 1.362 . S
C3082 C3085 1.409 . S
C3083 H3075 0.930 . S
C3083 C3084 1.355 . S
C3083 C3085 1.415 . S
C3084 C3083 1.355 . S
C3084 C3086 1.419 . S
C3085 C3080 1.425 . S
C3085 C3082 1.409 . S
C3085 C3083 1.415 . S
C3086 H3076 0.930 . S
C3086 C3084 1.419 . S
C3086 C3087 1.362 . S
C3087 H3077 0.930 . S
C3087 C3080 1.409 . S
C3087 C3086 1.362 . S
H3088 C3094 0.930 . S
H3089 C3097 0.930 . S
H3090 C3098 0.930 . S
H3091 C3099 0.930 . S
H3092 C3102 0.930 . S
H3093 C3103 0.930 . S
C3094 H3088 0.930 . S
C3094 C3095 1.355 . S
C3094 C3096 1.415 . S
C3095 C3094 1.355 . S
C3095 C3097 1.419 . S
C3096 C3094 1.415 . S
C3096 C3101 1.425 . S
C3096 C3103 1.409 . S
C3097 H3089 0.930 . S
C3097 C3095 1.419 . S
C3097 C3098 1.362 . S
C3098 H3090 0.930 . S
C3098 C3097 1.362 . S
C3098 C3101 1.409 . S
C3099 H3091 0.930 . S
C3099 C3100 1.355 . S
C3099 C3101 1.415 . S
C3100 C3099 1.355 . S
C3100 C3102 1.419 . S
C3101 C3096 1.425 . S
C3101 C3098 1.409 . S
C3101 C3099 1.415 . S
C3102 H3092 0.930 . S
C3102 C3100 1.419 . S
C3102 C3103 1.362 . S
C3103 H3093 0.930 . S
C3103 C3096 1.409 . S
C3103 C3102 1.362 . S
H3104 C3110 0.930 . S
H3105 C3113 0.930 . S
H3106 C3114 0.930 . S
H3107 C3115 0.930 . S
H3108 C3118 0.930 . S
H3109 C3119 0.930 . S
C3110 H3104 0.930 . S
C3110 C3111 1.355 . S
C3110 C3112 1.415 . S
C3111 C3110 1.355 . S
C3111 C3113 1.419 . S
C3112 C3110 1.415 . S
C3112 C3117 1.425 . S
C3112 C3119 1.409 . S
C3113 H3105 0.930 . S
C3113 C3111 1.419 . S
C3113 C3114 1.362 . S
C3114 H3106 0.930 . S
C3114 C3113 1.362 . S
C3114 C3117 1.409 . S
C3115 H3107 0.930 . S
C3115 C3116 1.355 . S
C3115 C3117 1.415 . S
C3116 C3115 1.355 . S
C3116 C3118 1.419 . S
C3117 C3112 1.425 . S
C3117 C3114 1.409 . S
C3117 C3115 1.415 . S
C3118 H3108 0.930 . S
C3118 C3116 1.419 . S
C3118 C3119 1.362 . S
C3119 H3109 0.930 . S
C3119 C3112 1.409 . S
C3119 C3118 1.362 . S
H3120 C3126 0.930 . S
H3121 C3129 0.930 . S
H3122 C3130 0.930 . S
H3123 C3131 0.930 . S
H3124 C3134 0.930 . S
H3125 C3135 0.930 . S
C3126 H3120 0.930 . S
C3126 C3127 1.355 . S
C3126 C3128 1.415 . S
C3127 C3126 1.355 . S
C3127 C3129 1.419 . S
C3128 C3126 1.415 . S
C3128 C3133 1.425 . S
C3128 C3135 1.409 . S
C3129 H3121 0.930 . S
C3129 C3127 1.419 . S
C3129 C3130 1.362 . S
C3130 H3122 0.930 . S
C3130 C3129 1.362 . S
C3130 C3133 1.409 . S
C3131 H3123 0.930 . S
C3131 C3132 1.355 . S
C3131 C3133 1.415 . S
C3132 C3131 1.355 . S
C3132 C3134 1.419 . S
C3133 C3128 1.425 . S
C3133 C3130 1.409 . S
C3133 C3131 1.415 . S
C3134 H3124 0.930 . S
C3134 C3132 1.419 . S
C3134 C3135 1.362 . S
C3135 H3125 0.930 . S
C3135 C3128 1.409 . S
C3135 C3134 1.362 . S
H3136 C3142 0.930 . S
H3137 C3145 0.930 . S
H3138 C3146 0.930 . S
H3139 C3147 0.930 . S
H3140 C3150 0.930 . S
H3141 C3151 0.930 . S
C3142 H3136 0.930 . S
C3142 C3143 1.355 . S
C3142 C3144 1.415 . S
C3143 C3142 1.355 . S
C3143 C3145 1.419 . S
C3144 C3142 1.415 . S
C3144 C3149 1.425 . S
C3144 C3151 1.409 . S
C3145 H3137 0.930 . S
C3145 C3143 1.419 . S
C3145 C3146 1.362 . S
C3146 H3138 0.930 . S
C3146 C3145 1.362 . S
C3146 C3149 1.409 . S
C3147 H3139 0.930 . S
C3147 C3148 1.355 . S
C3147 C3149 1.415 . S
C3148 C3147 1.355 . S
C3148 C3150 1.419 . S
C3149 C3144 1.425 . S
C3149 C3146 1.409 . S
C3149 C3147 1.415 . S
C3150 H3140 0.930 . S
C3150 C3148 1.419 . S
C3150 C3151 1.362 . S
C3151 H3141 0.930 . S
C3151 C3144 1.409 . S
C3151 C3150 1.362 . S
H3152 C3158 0.930 . S
H3153 C3161 0.930 . S
H3154 C3162 0.930 . S
H3155 C3163 0.930 . S
H3156 C3166 0.930 . S
H3157 C3167 0.930 . S
C3158 H3152 0.930 . S
C3158 C3159 1.355 . S
C3158 C3160 1.415 . S
C3159 C3158 1.355 . S
C3159 C3161 1.419 . S
C3160 C3158 1.415 . S
C3160 C3165 1.425 . S
C3160 C3167 1.409 . S
C3161 H3153 0.930 . S
C3161 C3159 1.419 . S
C3161 C3162 1.362 . S
C3162 H3154 0.930 . S
C3162 C3161 1.362 . S
C3162 C3165 1.409 . S
C3163 H3155 0.930 . S
C3163 C3164 1.355 . S
C3163 C3165 1.415 . S
C3164 C3163 1.355 . S
C3164 C3166 1.419 . S
C3165 C3160 1.425 . S
C3165 C3162 1.409 . S
C3165 C3163 1.415 . S
C3166 H3156 0.930 . S
C3166 C3164 1.419 . S
C3166 C3167 1.362 . S
C3167 H3157 0.930 . S
C3167 C3160 1.409 . S
C3167 C3166 1.362 . S
H3168 C3174 0.930 . S
H3169 C3177 0.930 . S
H3170 C3178 0.930 . S
H3171 C3179 0.930 . S
H3172 C3182 0.930 . S
H3173 C3183 0.930 . S
C3174 H3168 0.930 . S
C3174 C3175 1.355 . S
C3174 C3176 1.415 . S
C3175 C3174 1.355 . S
C3175 C3177 1.419 . S
C3176 C3174 1.415 . S
C3176 C3181 1.425 . S
C3176 C3183 1.409 . S
C3177 H3169 0.930 . S
C3177 C3175 1.419 . S
C3177 C3178 1.362 . S
C3178 H3170 0.930 . S
C3178 C3177 1.362 . S
C3178 C3181 1.409 . S
C3179 H3171 0.930 . S
C3179 C3180 1.355 . S
C3179 C3181 1.415 . S
C3180 C3179 1.355 . S
C3180 C3182 1.419 . S
C3181 C3176 1.425 . S
C3181 C3178 1.409 . S
C3181 C3179 1.415 . S
C3182 H3172 0.930 . S
C3182 C3180 1.419 . S
C3182 C3183 1.362 . S
C3183 H3173 0.930 . S
C3183 C3176 1.409 . S
C3183 C3182 1.362 . S
H3184 C3190 0.930 . S
H3185 C3193 0.930 . S
H3186 C3194 0.930 . S
H3187 C3195 0.930 . S
H3188 C3198 0.930 . S
H3189 C3199 0.930 . S
C3190 H3184 0.930 . S
C3190 C3191 1.355 . S
C3190 C3192 1.415 . S
C3191 C3190 1.355 . S
C3191 C3193 1.419 . S
C3192 C3190 1.415 . S
C3192 C3197 1.425 . S
C3192 C3199 1.409 . S
C3193 H3185 0.930 . S
C3193 C3191 1.419 . S
C3193 C3194 1.362 . S
C3194 H3186 0.930 . S
C3194 C3193 1.362 . S
C3194 C3197 1.409 . S
C3195 H3187 0.930 . S
C3195 C3196 1.355 . S
C3195 C3197 1.415 . S
C3196 C3195 1.355 . S
C3196 C3198 1.419 . S
C3197 C3192 1.425 . S
C3197 C3194 1.409 . S
C3197 C3195 1.415 . S
C3198 H3188 0.930 . S
C3198 C3196 1.419 . S
C3198 C3199 1.362 . S
C3199 H3189 0.930 . S
C3199 C3192 1.409 . S
C3199 C3198 1.362 . S
H3200 C3206 0.930 . S
H3201 C3209 0.930 . S
H3202 C3210 0.930 . S
H3203 C3211 0.930 . S
H3204 C3214 0.930 . S
H3205 C3215 0.930 . S
C3206 H3200 0.930 . S
C3206 C3207 1.355 . S
C3206 C3208 1.415 . S
C3207 C3206 1.355 . S
C3207 C3209 1.419 . S
C3208 C3206 1.415 . S
C3208 C3213 1.425 1_455 S
C3208 C3215 1.409 1_455 S
C3209 H3201 0.930 . S
C3209 C3207 1.419 . S
C3209 C3210 1.362 . S
C3210 H3202 0.930 . S
C3210 C3209 1.362 . S
C3210 C3213 1.409 1_455 S
C3211 H3203 0.930 . S
C3211 C3212 1.355 . S
C3211 C3213 1.415 . S
C3212 C3211 1.355 . S
C3212 C3214 1.419 . S
C3213 C3208 1.425 1_655 S
C3213 C3210 1.409 1_655 S
C3213 C3211 1.415 . S
C3214 H3204 0.930 . S
C3214 C3212 1.419 . S
C3214 C3215 1.362 . S
C3215 H3205 0.930 . S
C3215 C3208 1.409 1_655 S
C3215 C3214 1.362 . S
H3216 C3222 0.930 . S
H3217 C3225 0.930 . S
H3218 C3226 0.930 . S
H3219 C3227 0.930 . S
H3220 C3230 0.930 . S
H3221 C3231 0.930 . S
C3222 H3216 0.930 . S
C3222 C3223 1.355 . S
C3222 C3224 1.415 . S
C3223 C3222 1.355 . S
C3223 C3225 1.419 1_655 S
C3224 C3222 1.415 . S
C3224 C3229 1.425 1_655 S
C3224 C3231 1.409 . S
C3225 H3217 0.930 . S
C3225 C3223 1.419 1_455 S
C3225 C3226 1.362 . S
C3226 H3218 0.930 . S
C3226 C3225 1.362 . S
C3226 C3229 1.409 . S
C3227 H3219 0.930 . S
C3227 C3228 1.355 . S
C3227 C3229 1.415 . S
C3228 C3227 1.355 . S
C3228 C3230 1.419 1_455 S
C3229 C3224 1.425 1_455 S
C3229 C3226 1.409 . S
C3229 C3227 1.415 . S
C3230 H3220 0.930 . S
C3230 C3228 1.419 1_655 S
C3230 C3231 1.362 . S
C3231 H3221 0.930 . S
C3231 C3224 1.409 . S
C3231 C3230 1.362 . S
H3232 C3238 0.930 . S
H3233 C3241 0.930 . S
H3234 C3242 0.930 . S
H3235 C3243 0.930 . S
H3236 C3246 0.930 . S
H3237 C3247 0.930 . S
C3238 H3232 0.930 . S
C3238 C3239 1.355 . S
C3238 C3240 1.415 . S
C3239 C3238 1.355 . S
C3239 C3241 1.419 . S
C3240 C3238 1.415 . S
C3240 C3245 1.425 . S
C3240 C3247 1.409 . S
C3241 H3233 0.930 . S
C3241 C3239 1.419 . S
C3241 C3242 1.362 . S
C3242 H3234 0.930 . S
C3242 C3241 1.362 . S
C3242 C3245 1.409 . S
C3243 H3235 0.930 . S
C3243 C3244 1.355 . S
C3243 C3245 1.415 . S
C3244 C3243 1.355 . S
C3244 C3246 1.419 . S
C3245 C3240 1.425 . S
C3245 C3242 1.409 . S
C3245 C3243 1.415 . S
C3246 H3236 0.930 . S
C3246 C3244 1.419 . S
C3246 C3247 1.362 . S
C3247 H3237 0.930 . S
C3247 C3240 1.409 . S
C3247 C3246 1.362 . S
H3248 C3254 0.930 . S
H3249 C3257 0.930 . S
H3250 C3258 0.930 . S
H3251 C3259 0.930 . S
H3252 C3262 0.930 . S
H3253 C3263 0.930 . S
C3254 H3248 0.930 . S
C3254 C3255 1.355 . S
C3254 C3256 1.415 . S
C3255 C3254 1.355 . S
C3255 C3257 1.419 . S
C3256 C3254 1.415 . S
C3256 C3261 1.425 . S
C3256 C3263 1.409 . S
C3257 H3249 0.930 . S
C3257 C3255 1.419 . S
C3257 C3258 1.362 . S
C3258 H3250 0.930 . S
C3258 C3257 1.362 . S
C3258 C3261 1.409 . S
C3259 H3251 0.930 . S
C3259 C3260 1.355 . S
C3259 C3261 1.415 . S
C3260 C3259 1.355 . S
C3260 C3262 1.419 . S
C3261 C3256 1.425 . S
C3261 C3258 1.409 . S
C3261 C3259 1.415 . S
C3262 H3252 0.930 . S
C3262 C3260 1.419 . S
C3262 C3263 1.362 . S
C3263 H3253 0.930 . S
C3263 C3256 1.409 . S
C3263 C3262 1.362 . S
H3264 C3270 0.930 . S
H3265 C3273 0.930 . S
H3266 C3274 0.930 . S
H3267 C3275 0.930 . S
H3268 C3278 0.930 . S
H3269 C3279 0.930 . S
C3270 H3264 0.930 . S
C3270 C3271 1.355 . S
C3270 C3272 1.415 . S
C3271 C3270 1.355 . S
C3271 C3273 1.419 . S
C3272 C3270 1.415 . S
C3272 C3277 1.425 1_655 S
C3272 C3279 1.409 1_655 S
C3273 H3265 0.930 . S
C3273 C3271 1.419 . S
C3273 C3274 1.362 . S
C3274 H3266 0.930 . S
C3274 C3273 1.362 . S
C3274 C3277 1.409 1_655 S
C3275 H3267 0.930 . S
C3275 C3276 1.355 . S
C3275 C3277 1.415 . S
C3276 C3275 1.355 . S
C3276 C3278 1.419 . S
C3277 C3272 1.425 1_455 S
C3277 C3274 1.409 1_455 S
C3277 C3275 1.415 . S
C3278 H3268 0.930 . S
C3278 C3276 1.419 . S
C3278 C3279 1.362 . S
C3279 H3269 0.930 . S
C3279 C3272 1.409 1_455 S
C3279 C3278 1.362 . S
H3280 C3286 0.930 . S
H3281 C3289 0.930 . S
H3282 C3290 0.930 . S
H3283 C3291 0.930 . S
H3284 C3294 0.930 . S
H3285 C3295 0.930 . S
C3286 H3280 0.930 . S
C3286 C3287 1.355 . S
C3286 C3288 1.415 . S
C3287 C3286 1.355 . S
C3287 C3289 1.419 . S
C3288 C3286 1.415 . S
C3288 C3293 1.425 . S
C3288 C3295 1.409 . S
C3289 H3281 0.930 . S
C3289 C3287 1.419 . S
C3289 C3290 1.362 . S
C3290 H3282 0.930 . S
C3290 C3289 1.362 . S
C3290 C3293 1.409 . S
C3291 H3283 0.930 . S
C3291 C3292 1.355 . S
C3291 C3293 1.415 . S
C3292 C3291 1.355 . S
C3292 C3294 1.419 . S
C3293 C3288 1.425 . S
C3293 C3290 1.409 . S
C3293 C3291 1.415 . S
C3294 H3284 0.930 . S
C3294 C3292 1.419 . S
C3294 C3295 1.362 . S
C3295 H3285 0.930 . S
C3295 C3288 1.409 . S
C3295 C3294 1.362 . S
H3296 C3302 0.930 . S
H3297 C3305 0.930 . S
H3298 C3306 0.930 . S
H3299 C3307 0.930 . S
H3300 C3310 0.930 . S
H3301 C3311 0.930 . S
C3302 H3296 0.930 . S
C3302 C3303 1.355 . S
C3302 C3304 1.415 . S
C3303 C3302 1.355 . S
C3303 C3305 1.419 . S
C3304 C3302 1.415 . S
C3304 C3309 1.425 . S
C3304 C3311 1.409 . S
C3305 H3297 0.930 . S
C3305 C3303 1.419 . S
C3305 C3306 1.362 . S
C3306 H3298 0.930 . S
C3306 C3305 1.362 . S
C3306 C3309 1.409 . S
C3307 H3299 0.930 . S
C3307 C3308 1.355 . S
C3307 C3309 1.415 . S
C3308 C3307 1.355 . S
C3308 C3310 1.419 . S
C3309 C3304 1.425 . S
C3309 C3306 1.409 . S
C3309 C3307 1.415 . S
C3310 H3300 0.930 . S
C3310 C3308 1.419 . S
C3310 C3311 1.362 . S
C3311 H3301 0.930 . S
C3311 C3304 1.409 . S
C3311 C3310 1.362 . S
H3312 C3318 0.930 . S
H3313 C3321 0.930 . S
H3314 C3322 0.930 . S
H3315 C3323 0.930 . S
H3316 C3326 0.930 . S
H3317 C3327 0.930 . S
C3318 H3312 0.930 . S
C3318 C3319 1.355 1_655 S
C3318 C3320 1.415 . S
C3319 C3318 1.355 1_455 S
C3319 C3321 1.419 . S
C3320 C3318 1.415 . S
C3320 C3325 1.425 1_655 S
C3320 C3327 1.409 . S
C3321 H3313 0.930 . S
C3321 C3319 1.419 . S
C3321 C3322 1.362 . S
C3322 H3314 0.930 . S
C3322 C3321 1.362 . S
C3322 C3325 1.409 . S
C3323 H3315 0.930 . S
C3323 C3324 1.355 1_455 S
C3323 C3325 1.415 . S
C3324 C3323 1.355 1_655 S
C3324 C3326 1.419 . S
C3325 C3320 1.425 1_455 S
C3325 C3322 1.409 . S
C3325 C3323 1.415 . S
C3326 H3316 0.930 . S
C3326 C3324 1.419 . S
C3326 C3327 1.362 . S
C3327 H3317 0.930 . S
C3327 C3320 1.409 . S
C3327 C3326 1.362 . S
H3328 C3334 0.930 . S
H3329 C3337 0.930 . S
H3330 C3338 0.930 . S
H3331 C3339 0.930 . S
H3332 C3342 0.930 . S
H3333 C3343 0.930 . S
C3334 H3328 0.930 . S
C3334 C3335 1.355 . S
C3334 C3336 1.415 . S
C3335 C3334 1.355 . S
C3335 C3337 1.419 . S
C3336 C3334 1.415 . S
C3336 C3341 1.425 1_455 S
C3336 C3343 1.409 1_455 S
C3337 H3329 0.930 . S
C3337 C3335 1.419 . S
C3337 C3338 1.362 . S
C3338 H3330 0.930 . S
C3338 C3337 1.362 . S
C3338 C3341 1.409 1_455 S
C3339 H3331 0.930 . S
C3339 C3340 1.355 . S
C3339 C3341 1.415 . S
C3340 C3339 1.355 . S
C3340 C3342 1.419 . S
C3341 C3336 1.425 1_655 S
C3341 C3338 1.409 1_655 S
C3341 C3339 1.415 . S
C3342 H3332 0.930 . S
C3342 C3340 1.419 . S
C3342 C3343 1.362 . S
C3343 H3333 0.930 . S
C3343 C3336 1.409 1_655 S
C3343 C3342 1.362 . S
H3344 C3350 0.930 . S
H3345 C3353 0.930 . S
H3346 C3354 0.930 . S
H3347 C3355 0.930 . S
H3348 C3358 0.930 . S
H3349 C3359 0.930 . S
C3350 H3344 0.930 . S
C3350 C3351 1.355 1_455 S
C3350 C3352 1.415 . S
C3351 C3350 1.355 1_655 S
C3351 C3353 1.419 . S
C3352 C3350 1.415 . S
C3352 C3357 1.425 1_455 S
C3352 C3359 1.409 . S
C3353 H3345 0.930 . S
C3353 C3351 1.419 . S
C3353 C3354 1.362 . S
C3354 H3346 0.930 . S
C3354 C3353 1.362 . S
C3354 C3357 1.409 . S
C3355 H3347 0.930 . S
C3355 C3356 1.355 1_655 S
C3355 C3357 1.415 . S
C3356 C3355 1.355 1_455 S
C3356 C3358 1.419 . S
C3357 C3352 1.425 1_655 S
C3357 C3354 1.409 . S
C3357 C3355 1.415 . S
C3358 H3348 0.930 . S
C3358 C3356 1.419 . S
C3358 C3359 1.362 . S
C3359 H3349 0.930 . S
C3359 C3352 1.409 . S
C3359 C3358 1.362 . S
H3360 C3366 0.930 . S
H3361 C3369 0.930 . S
H3362 C3370 0.930 . S
H3363 C3371 0.930 . S
H3364 C3374 0.930 . S
H3365 C3375 0.930 . S
C3366 H3360 0.930 . S
C3366 C3367 1.355 . S
C3366 C3368 1.415 . S
C3367 C3366 1.355 . S
C3367 C3369 1.419 . S
C3368 C3366 1.415 . S
C3368 C3373 1.425 . S
C3368 C3375 1.409 . S
C3369 H3361 0.930 . S
C3369 C3367 1.419 . S
C3369 C3370 1.362 . S
C3370 H3362 0.930 . S
C3370 C3369 1.362 . S
C3370 C3373 1.409 . S
C3371 H3363 0.930 . S
C3371 C3372 1.355 . S
C3371 C3373 1.415 . S
C3372 C3371 1.355 . S
C3372 C3374 1.419 . S
C3373 C3368 1.425 . S
C3373 C3370 1.409 . S
C3373 C3371 1.415 . S
C3374 H3364 0.930 . S
C3374 C3372 1.419 . S
C3374 C3375 1.362 . S
C3375 H3365 0.930 . S
C3375 C3368 1.409 . S
C3375 C3374 1.362 . S
H3376 C3382 0.930 . S
H3377 C3385 0.930 . S
H3378 C3386 0.930 . S
H3379 C3387 0.930 . S
H3380 C3390 0.930 . S
H3381 C3391 0.930 . S
C3382 H3376 0.930 . S
C3382 C3383 1.355 . S
C3382 C3384 1.415 . S
C3383 C3382 1.355 . S
C3383 C3385 1.419 . S
C3384 C3382 1.415 . S
C3384 C3389 1.425 . S
C3384 C3391 1.409 . S
C3385 H3377 0.930 . S
C3385 C3383 1.419 . S
C3385 C3386 1.362 . S
C3386 H3378 0.930 . S
C3386 C3385 1.362 . S
C3386 C3389 1.409 . S
C3387 H3379 0.930 . S
C3387 C3388 1.355 . S
C3387 C3389 1.415 . S
C3388 C3387 1.355 . S
C3388 C3390 1.419 . S
C3389 C3384 1.425 . S
C3389 C3386 1.409 . S
C3389 C3387 1.415 . S
C3390 H3380 0.930 . S
C3390 C3388 1.419 . S
C3390 C3391 1.362 . S
C3391 H3381 0.930 . S
C3391 C3384 1.409 . S
C3391 C3390 1.362 . S
H3392 C3398 0.930 . S
H3393 C3401 0.930 . S
H3394 C3402 0.930 . S
H3395 C3403 0.930 . S
H3396 C3406 0.930 . S
H3397 C3407 0.930 . S
C3398 H3392 0.930 . S
C3398 C3399 1.355 . S
C3398 C3400 1.415 . S
C3399 C3398 1.355 . S
C3399 C3401 1.419 . S
C3400 C3398 1.415 . S
C3400 C3405 1.425 1_455 S
C3400 C3407 1.409 1_455 S
C3401 H3393 0.930 . S
C3401 C3399 1.419 . S
C3401 C3402 1.362 . S
C3402 H3394 0.930 . S
C3402 C3401 1.362 . S
C3402 C3405 1.409 1_455 S
C3403 H3395 0.930 . S
C3403 C3404 1.355 . S
C3403 C3405 1.415 . S
C3404 C3403 1.355 . S
C3404 C3406 1.419 . S
C3405 C3400 1.425 1_655 S
C3405 C3402 1.409 1_655 S
C3405 C3403 1.415 . S
C3406 H3396 0.930 . S
C3406 C3404 1.419 . S
C3406 C3407 1.362 . S
C3407 H3397 0.930 . S
C3407 C3400 1.409 1_655 S
C3407 C3406 1.362 . S
H3408 C3414 0.930 . S
H3409 C3417 0.930 . S
H3410 C3418 0.930 . S
H3411 C3419 0.930 . S
H3412 C3422 0.930 . S
H3413 C3423 0.930 . S
C3414 H3408 0.930 . S
C3414 C3415 1.355 . S
C3414 C3416 1.415 . S
C3415 C3414 1.355 . S
C3415 C3417 1.419 . S
C3416 C3414 1.415 . S
C3416 C3421 1.425 . S
C3416 C3423 1.409 . S
C3417 H3409 0.930 . S
C3417 C3415 1.419 . S
C3417 C3418 1.362 . S
C3418 H3410 0.930 . S
C3418 C3417 1.362 . S
C3418 C3421 1.409 . S
C3419 H3411 0.930 . S
C3419 C3420 1.355 . S
C3419 C3421 1.415 . S
C3420 C3419 1.355 . S
C3420 C3422 1.419 . S
C3421 C3416 1.425 . S
C3421 C3418 1.409 . S
C3421 C3419 1.415 . S
C3422 H3412 0.930 . S
C3422 C3420 1.419 . S
C3422 C3423 1.362 . S
C3423 H3413 0.930 . S
C3423 C3416 1.409 . S
C3423 C3422 1.362 . S
H3424 C3430 0.930 . S
H3425 C3433 0.930 . S
H3426 C3434 0.930 . S
H3427 C3435 0.930 . S
H3428 C3438 0.930 . S
H3429 C3439 0.930 . S
C3430 H3424 0.930 . S
C3430 C3431 1.355 . S
C3430 C3432 1.415 . S
C3431 C3430 1.355 . S
C3431 C3433 1.419 . S
C3432 C3430 1.415 . S
C3432 C3437 1.425 . S
C3432 C3439 1.409 . S
C3433 H3425 0.930 . S
C3433 C3431 1.419 . S
C3433 C3434 1.362 . S
C3434 H3426 0.930 . S
C3434 C3433 1.362 . S
C3434 C3437 1.409 . S
C3435 H3427 0.930 . S
C3435 C3436 1.355 . S
C3435 C3437 1.415 . S
C3436 C3435 1.355 . S
C3436 C3438 1.419 . S
C3437 C3432 1.425 . S
C3437 C3434 1.409 . S
C3437 C3435 1.415 . S
C3438 H3428 0.930 . S
C3438 C3436 1.419 . S
C3438 C3439 1.362 . S
C3439 H3429 0.930 . S
C3439 C3432 1.409 . S
C3439 C3438 1.362 . S
H3440 C3446 0.930 . S
H3441 C3449 0.930 . S
H3442 C3450 0.930 . S
H3443 C3451 0.930 . S
H3444 C3454 0.930 . S
H3445 C3455 0.930 . S
C3446 H3440 0.930 . S
C3446 C3447 1.355 1_455 S
C3446 C3448 1.415 . S
C3447 C3446 1.355 1_655 S
C3447 C3449 1.419 . S
C3448 C3446 1.415 . S
C3448 C3453 1.425 1_455 S
C3448 C3455 1.409 . S
C3449 H3441 0.930 . S
C3449 C3447 1.419 . S
C3449 C3450 1.362 . S
C3450 H3442 0.930 . S
C3450 C3449 1.362 . S
C3450 C3453 1.409 . S
C3451 H3443 0.930 . S
C3451 C3452 1.355 1_655 S
C3451 C3453 1.415 . S
C3452 C3451 1.355 1_455 S
C3452 C3454 1.419 . S
C3453 C3448 1.425 1_655 S
C3453 C3450 1.409 . S
C3453 C3451 1.415 . S
C3454 H3444 0.930 . S
C3454 C3452 1.419 . S
C3454 C3455 1.362 . S
C3455 H3445 0.930 . S
C3455 C3448 1.409 . S
C3455 C3454 1.362 . S
H3456 C3462 0.930 . S
H3457 C3465 0.930 . S
H3458 C3466 0.930 . S
H3459 C3467 0.930 . S
H3460 C3470 0.930 . S
H3461 C3471 0.930 . S
C3462 H3456 0.930 . S
C3462 C3463 1.355 . S
C3462 C3464 1.415 . S
C3463 C3462 1.355 . S
C3463 C3465 1.419 . S
C3464 C3462 1.415 . S
C3464 C3469 1.425 . S
C3464 C3471 1.409 . S
C3465 H3457 0.930 . S
C3465 C3463 1.419 . S
C3465 C3466 1.362 . S
C3466 H3458 0.930 . S
C3466 C3465 1.362 . S
C3466 C3469 1.409 . S
C3467 H3459 0.930 . S
C3467 C3468 1.355 . S
C3467 C3469 1.415 . S
C3468 C3467 1.355 . S
C3468 C3470 1.419 . S
C3469 C3464 1.425 . S
C3469 C3466 1.409 . S
C3469 C3467 1.415 . S
C3470 H3460 0.930 . S
C3470 C3468 1.419 . S
C3470 C3471 1.362 . S
C3471 H3461 0.930 . S
C3471 C3464 1.409 . S
C3471 C3470 1.362 . S
H3472 C3478 0.930 . S
H3473 C3481 0.930 . S
H3474 C3482 0.930 . S
H3475 C3483 0.930 . S
H3476 C3486 0.930 . S
H3477 C3487 0.930 . S
C3478 H3472 0.930 . S
C3478 C3479 1.355 . S
C3478 C3480 1.410 1_545 S
C3479 C3478 1.355 . S
C3479 C3481 1.419 1_655 S
C3480 C3478 1.410 1_565 S
C3480 C3485 1.423 1_665 S
C3480 C3487 1.416 . S
C3481 H3473 0.930 . S
C3481 C3479 1.419 1_455 S
C3481 C3482 1.362 . S
C3482 H3474 0.930 . S
C3482 C3481 1.362 . S
C3482 C3485 1.416 . S
C3483 H3475 0.930 . S
C3483 C3484 1.355 . S
C3483 C3485 1.410 1_565 S
C3484 C3483 1.355 . S
C3484 C3486 1.419 1_455 S
C3485 C3480 1.423 1_445 S
C3485 C3482 1.416 . S
C3485 C3483 1.410 1_545 S
C3486 H3476 0.930 . S
C3486 C3484 1.419 1_655 S
C3486 C3487 1.362 . S
C3487 H3477 0.930 . S
C3487 C3480 1.416 . S
C3487 C3486 1.362 . S
H3488 C3494 0.930 . S
H3489 C3497 0.930 . S
H3490 C3498 0.930 . S
H3491 C3499 0.930 . S
H3492 C3502 0.930 . S
H3493 C3503 0.930 . S
C3494 H3488 0.930 . S
C3494 C3495 1.355 . S
C3494 C3496 1.415 . S
C3495 C3494 1.355 . S
C3495 C3497 1.419 . S
C3496 C3494 1.415 . S
C3496 C3501 1.425 . S
C3496 C3503 1.409 . S
C3497 H3489 0.930 . S
C3497 C3495 1.419 . S
C3497 C3498 1.362 . S
C3498 H3490 0.930 . S
C3498 C3497 1.362 . S
C3498 C3501 1.409 . S
C3499 H3491 0.930 . S
C3499 C3500 1.355 . S
C3499 C3501 1.415 . S
C3500 C3499 1.355 . S
C3500 C3502 1.419 . S
C3501 C3496 1.425 . S
C3501 C3498 1.409 . S
C3501 C3499 1.415 . S
C3502 H3492 0.930 . S
C3502 C3500 1.419 . S
C3502 C3503 1.362 . S
C3503 H3493 0.930 . S
C3503 C3496 1.409 . S
C3503 C3502 1.362 . S
H3504 C3510 0.930 . S
H3505 C3513 0.930 . S
H3506 C3514 0.930 1_556 S
H3507 C3515 0.930 . S
H3508 C3518 0.930 . S
H3509 C3519 0.930 1_554 S
C3510 H3504 0.930 . S
C3510 C3511 1.355 1_565 S
C3510 C3512 1.415 . S
C3511 C3510 1.355 1_545 S
C3511 C3513 1.419 . S
C3512 C3510 1.415 . S
C3512 C3517 1.425 1_564 S
C3512 C3519 1.409 1_554 S
C3513 H3505 0.930 . S
C3513 C3511 1.419 . S
C3513 C3514 1.362 . S
C3514 H3506 0.930 1_554 S
C3514 C3513 1.362 . S
C3514 C3517 1.409 1_554 S
C3515 H3507 0.930 . S
C3515 C3516 1.355 1_545 S
C3515 C3517 1.415 . S
C3516 C3515 1.355 1_565 S
C3516 C3518 1.419 . S
C3517 C3512 1.425 1_546 S
C3517 C3514 1.409 1_556 S
C3517 C3515 1.415 . S
C3518 H3508 0.930 . S
C3518 C3516 1.419 . S
C3518 C3519 1.362 . S
C3519 H3509 0.930 1_556 S
C3519 C3512 1.409 1_556 S
C3519 C3518 1.362 . S
H3520 C3526 0.930 . S
H3521 C3529 0.930 . S
H3522 C3530 0.930 . S
H3523 C3531 0.930 . S
H3524 C3534 0.930 . S
H3525 C3535 0.930 . S
C3526 H3520 0.930 . S
C3526 C3527 1.355 . S
C3526 C3528 1.415 . S
C3527 C3526 1.355 . S
C3527 C3529 1.419 . S
C3528 C3526 1.415 . S
C3528 C3533 1.425 . S
C3528 C3535 1.409 . S
C3529 H3521 0.930 . S
C3529 C3527 1.419 . S
C3529 C3530 1.362 . S
C3530 H3522 0.930 . S
C3530 C3529 1.362 . S
C3530 C3533 1.409 . S
C3531 H3523 0.930 . S
C3531 C3532 1.355 . S
C3531 C3533 1.415 . S
C3532 C3531 1.355 . S
C3532 C3534 1.419 . S
C3533 C3528 1.425 . S
C3533 C3530 1.409 . S
C3533 C3531 1.415 . S
C3534 H3524 0.930 . S
C3534 C3532 1.419 . S
C3534 C3535 1.362 . S
C3535 H3525 0.930 . S
C3535 C3528 1.409 . S
C3535 C3534 1.362 . S
H3536 C3542 0.930 . S
H3537 C3545 0.930 . S
H3538 C3546 0.927 1_565 S
H3539 C3547 0.930 . S
H3540 C3550 0.930 . S
H3541 C3551 0.927 1_545 S
C3542 H3536 0.930 . S
C3542 C3543 1.355 . S
C3542 C3544 1.419 . S
C3543 C3542 1.355 . S
C3543 C3545 1.419 . S
C3544 C3542 1.419 . S
C3544 C3549 1.423 1_545 S
C3544 C3551 1.407 1_545 S
C3545 H3537 0.930 . S
C3545 C3543 1.419 . S
C3545 C3546 1.368 . S
C3546 H3538 0.927 1_545 S
C3546 C3545 1.368 . S
C3546 C3549 1.407 1_545 S
C3547 H3539 0.930 . S
C3547 C3548 1.355 . S
C3547 C3549 1.419 . S
C3548 C3547 1.355 . S
C3548 C3550 1.419 . S
C3549 C3544 1.423 1_565 S
C3549 C3546 1.407 1_565 S
C3549 C3547 1.419 . S
C3550 H3540 0.930 . S
C3550 C3548 1.419 . S
C3550 C3551 1.368 . S
C3551 H3541 0.927 1_565 S
C3551 C3544 1.407 1_565 S
C3551 C3550 1.368 . S
H3552 C3558 0.930 . S
H3553 C3561 0.930 . S
H3554 C3562 0.930 . S
H3555 C3563 0.930 . S
H3556 C3566 0.930 . S
H3557 C3567 0.930 . S
C3558 H3552 0.930 . S
C3558 C3559 1.355 . S
C3558 C3560 1.415 . S
C3559 C3558 1.355 . S
C3559 C3561 1.419 . S
C3560 C3558 1.415 . S
C3560 C3565 1.425 . S
C3560 C3567 1.409 . S
C3561 H3553 0.930 . S
C3561 C3559 1.419 . S
C3561 C3562 1.362 . S
C3562 H3554 0.930 . S
C3562 C3561 1.362 . S
C3562 C3565 1.409 . S
C3563 H3555 0.930 . S
C3563 C3564 1.355 . S
C3563 C3565 1.415 . S
C3564 C3563 1.355 . S
C3564 C3566 1.419 . S
C3565 C3560 1.425 . S
C3565 C3562 1.409 . S
C3565 C3563 1.415 . S
C3566 H3556 0.930 . S
C3566 C3564 1.419 . S
C3566 C3567 1.362 . S
C3567 H3557 0.930 . S
C3567 C3560 1.409 . S
C3567 C3566 1.362 . S
H3568 C3574 0.930 . S
H3569 C3577 0.930 . S
H3570 C3578 0.930 . S
H3571 C3579 0.930 . S
H3572 C3582 0.930 . S
H3573 C3583 0.930 . S
C3574 H3568 0.930 . S
C3574 C3575 1.355 . S
C3574 C3576 1.424 . S
C3575 C3574 1.355 . S
C3575 C3577 1.419 1_445 S
C3576 C3574 1.424 . S
C3576 C3581 1.425 1_446 S
C3576 C3583 1.400 1_556 S
C3577 H3569 0.930 . S
C3577 C3575 1.419 1_665 S
C3577 C3578 1.362 . S
C3578 H3570 0.930 . S
C3578 C3577 1.362 . S
C3578 C3581 1.400 1_556 S
C3579 H3571 0.930 . S
C3579 C3580 1.355 . S
C3579 C3581 1.424 . S
C3580 C3579 1.355 . S
C3580 C3582 1.419 1_665 S
C3581 C3576 1.425 1_664 S
C3581 C3578 1.400 1_554 S
C3581 C3579 1.424 . S
C3582 H3572 0.930 . S
C3582 C3580 1.419 1_445 S
C3582 C3583 1.362 . S
C3583 H3573 0.930 . S
C3583 C3576 1.400 1_554 S
C3583 C3582 1.362 . S
H3584 C3590 0.930 . S
H3585 C3593 0.930 . S
H3586 C3594 0.930 . S
H3587 C3595 0.930 . S
H3588 C3598 0.930 . S
H3589 C3599 0.930 . S
C3590 H3584 0.930 . S
C3590 C3591 1.355 . S
C3590 C3592 1.415 . S
C3591 C3590 1.355 . S
C3591 C3593 1.419 . S
C3592 C3590 1.415 . S
C3592 C3597 1.425 . S
C3592 C3599 1.409 . S
C3593 H3585 0.930 . S
C3593 C3591 1.419 . S
C3593 C3594 1.362 . S
C3594 H3586 0.930 . S
C3594 C3593 1.362 . S
C3594 C3597 1.409 . S
C3595 H3587 0.930 . S
C3595 C3596 1.355 . S
C3595 C3597 1.415 . S
C3596 C3595 1.355 . S
C3596 C3598 1.419 . S
C3597 C3592 1.425 . S
C3597 C3594 1.409 . S
C3597 C3595 1.415 . S
C3598 H3588 0.930 . S
C3598 C3596 1.419 . S
C3598 C3599 1.362 . S
C3599 H3589 0.930 . S
C3599 C3592 1.409 . S
C3599 C3598 1.362 . S
H3600 C3606 0.930 . S
H3601 C3609 0.930 . S
H3602 C3610 0.930 . S
H3603 C3611 0.930 . S
H3604 C3614 0.930 . S
H3605 C3615 0.930 . S
C3606 H3600 0.930 . S
C3606 C3607 1.355 . S
C3606 C3608 1.415 . S
C3607 C3606 1.355 . S
C3607 C3609 1.419 . S
C3608 C3606 1.415 . S
C3608 C3613 1.425 . S
C3608 C3615 1.409 . S
C3609 H3601 0.930 . S
C3609 C3607 1.419 . S
C3609 C3610 1.362 . S
C3610 H3602 0.930 . S
C3610 C3609 1.362 . S
C3610 C3613 1.409 . S
C3611 H3603 0.930 . S
C3611 C3612 1.355 . S
C3611 C3613 1.415 . S
C3612 C3611 1.355 . S
C3612 C3614 1.419 . S
C3613 C3608 1.425 . S
C3613 C3610 1.409 . S
C3613 C3611 1.415 . S
C3614 H3604 0.930 . S
C3614 C3612 1.419 . S
C3614 C3615 1.362 . S
C3615 H3605 0.930 . S
C3615 C3608 1.409 . S
C3615 C3614 1.362 . S
H3616 C3622 0.930 . S
H3617 C3625 0.930 . S
H3618 C3626 0.930 . S
H3619 C3627 0.930 . S
H3620 C3630 0.930 . S
H3621 C3631 0.930 . S
C3622 H3616 0.930 . S
C3622 C3623 1.355 . S
C3622 C3624 1.415 . S
C3623 C3622 1.355 . S
C3623 C3625 1.419 . S
C3624 C3622 1.415 . S
C3624 C3629 1.425 . S
C3624 C3631 1.409 . S
C3625 H3617 0.930 . S
C3625 C3623 1.419 . S
C3625 C3626 1.362 . S
C3626 H3618 0.930 . S
C3626 C3625 1.362 . S
C3626 C3629 1.409 . S
C3627 H3619 0.930 . S
C3627 C3628 1.355 . S
C3627 C3629 1.415 . S
C3628 C3627 1.355 . S
C3628 C3630 1.419 . S
C3629 C3624 1.425 . S
C3629 C3626 1.409 . S
C3629 C3627 1.415 . S
C3630 H3620 0.930 . S
C3630 C3628 1.419 . S
C3630 C3631 1.362 . S
C3631 H3621 0.930 . S
C3631 C3624 1.409 . S
C3631 C3630 1.362 . S
H3632 C3638 0.930 . S
H3633 C3641 0.930 . S
H3634 C3642 0.930 . S
H3635 C3643 0.930 . S
H3636 C3646 0.930 . S
H3637 C3647 0.930 . S
C3638 H3632 0.930 . S
C3638 C3639 1.355 . S
C3638 C3640 1.415 . S
C3639 C3638 1.355 . S
C3639 C3641 1.419 . S
C3640 C3638 1.415 . S
C3640 C3645 1.425 . S
C3640 C3647 1.409 . S
C3641 H3633 0.930 . S
C3641 C3639 1.419 . S
C3641 C3642 1.362 . S
C3642 H3634 0.930 . S
C3642 C3641 1.362 . S
C3642 C3645 1.409 . S
C3643 H3635 0.930 . S
C3643 C3644 1.355 . S
C3643 C3645 1.415 . S
C3644 C3643 1.355 . S
C3644 C3646 1.419 . S
C3645 C3640 1.425 . S
C3645 C3642 1.409 . S
C3645 C3643 1.415 . S
C3646 H3636 0.930 . S
C3646 C3644 1.419 . S
C3646 C3647 1.362 . S
C3647 H3637 0.930 . S
C3647 C3640 1.409 . S
C3647 C3646 1.362 . S
H3648 C3654 0.930 . S
H3649 C3657 0.930 . S
H3650 C3658 0.930 1_556 S
H3651 C3659 0.930 . S
H3652 C3662 0.930 . S
H3653 C3663 0.930 1_554 S
C3654 H3648 0.930 . S
C3654 C3655 1.355 . S
C3654 C3656 1.415 . S
C3655 C3654 1.355 . S
C3655 C3657 1.419 . S
C3656 C3654 1.415 . S
C3656 C3661 1.425 1_554 S
C3656 C3663 1.409 1_554 S
C3657 H3649 0.930 . S
C3657 C3655 1.419 . S
C3657 C3658 1.362 . S
C3658 H3650 0.930 1_554 S
C3658 C3657 1.362 . S
C3658 C3661 1.409 1_554 S
C3659 H3651 0.930 . S
C3659 C3660 1.355 . S
C3659 C3661 1.415 . S
C3660 C3659 1.355 . S
C3660 C3662 1.419 . S
C3661 C3656 1.425 1_556 S
C3661 C3658 1.409 1_556 S
C3661 C3659 1.415 . S
C3662 H3652 0.930 . S
C3662 C3660 1.419 . S
C3662 C3663 1.362 . S
C3663 H3653 0.930 1_556 S
C3663 C3656 1.409 1_556 S
C3663 C3662 1.362 . S
H3664 C3670 0.930 . S
H3665 C3673 0.930 . S
H3666 C3674 0.930 . S
H3667 C3675 0.930 . S
H3668 C3678 0.930 . S
H3669 C3679 0.930 . S
C3670 H3664 0.930 . S
C3670 C3671 1.355 . S
C3670 C3672 1.415 . S
C3671 C3670 1.355 . S
C3671 C3673 1.419 1_655 S
C3672 C3670 1.415 . S
C3672 C3677 1.425 1_655 S
C3672 C3679 1.409 . S
C3673 H3665 0.930 . S
C3673 C3671 1.419 1_455 S
C3673 C3674 1.362 . S
C3674 H3666 0.930 . S
C3674 C3673 1.362 . S
C3674 C3677 1.409 . S
C3675 H3667 0.930 . S
C3675 C3676 1.355 . S
C3675 C3677 1.415 . S
C3676 C3675 1.355 . S
C3676 C3678 1.419 1_455 S
C3677 C3672 1.425 1_455 S
C3677 C3674 1.409 . S
C3677 C3675 1.415 . S
C3678 H3668 0.930 . S
C3678 C3676 1.419 1_655 S
C3678 C3679 1.362 . S
C3679 H3669 0.930 . S
C3679 C3672 1.409 . S
C3679 C3678 1.362 . S
H3680 C3686 0.930 . S
H3681 C3689 0.930 . S
H3682 C3690 0.930 . S
H3683 C3691 0.930 . S
H3684 C3694 0.930 . S
H3685 C3695 0.930 . S
C3686 H3680 0.930 . S
C3686 C3687 1.355 . S
C3686 C3688 1.437 . S
C3687 C3686 1.355 . S
C3687 C3689 1.419 1_455 S
C3688 C3686 1.437 . S
C3688 C3693 1.424 1_454 S
C3688 C3695 1.388 1_554 S
C3689 H3681 0.930 . S
C3689 C3687 1.419 1_655 S
C3689 C3690 1.362 . S
C3690 H3682 0.930 . S
C3690 C3689 1.362 . S
C3690 C3693 1.388 1_554 S
C3691 H3683 0.930 . S
C3691 C3692 1.355 . S
C3691 C3693 1.437 . S
C3692 C3691 1.355 . S
C3692 C3694 1.419 1_655 S
C3693 C3688 1.424 1_656 S
C3693 C3690 1.388 1_556 S
C3693 C3691 1.437 . S
C3694 H3684 0.930 . S
C3694 C3692 1.419 1_455 S
C3694 C3695 1.362 . S
C3695 H3685 0.930 . S
C3695 C3688 1.388 1_556 S
C3695 C3694 1.362 . S
H3696 C3702 0.930 . S
H3697 C3705 0.930 . S
H3698 C3706 0.930 . S
H3699 C3707 0.930 . S
H3700 C3710 0.930 . S
H3701 C3711 0.930 . S
C3702 H3696 0.930 . S
C3702 C3703 1.355 . S
C3702 C3704 1.415 . S
C3703 C3702 1.355 . S
C3703 C3705 1.419 . S
C3704 C3702 1.415 . S
C3704 C3709 1.425 . S
C3704 C3711 1.409 . S
C3705 H3697 0.930 . S
C3705 C3703 1.419 . S
C3705 C3706 1.362 . S
C3706 H3698 0.930 . S
C3706 C3705 1.362 . S
C3706 C3709 1.409 . S
C3707 H3699 0.930 . S
C3707 C3708 1.355 . S
C3707 C3709 1.415 . S
C3708 C3707 1.355 . S
C3708 C3710 1.419 . S
C3709 C3704 1.425 . S
C3709 C3706 1.409 . S
C3709 C3707 1.415 . S
C3710 H3700 0.930 . S
C3710 C3708 1.419 . S
C3710 C3711 1.362 . S
C3711 H3701 0.930 . S
C3711 C3704 1.409 . S
C3711 C3710 1.362 . S
H3712 C3718 0.930 . S
H3713 C3721 0.930 . S
H3714 C3722 0.930 . S
H3715 C3723 0.930 . S
H3716 C3726 0.930 . S
H3717 C3727 0.930 . S
C3718 H3712 0.930 . S
C3718 C3719 1.355 . S
C3718 C3720 1.415 . S
C3719 C3718 1.355 . S
C3719 C3721 1.419 . S
C3720 C3718 1.415 . S
C3720 C3725 1.425 . S
C3720 C3727 1.409 . S
C3721 H3713 0.930 . S
C3721 C3719 1.419 . S
C3721 C3722 1.362 . S
C3722 H3714 0.930 . S
C3722 C3721 1.362 . S
C3722 C3725 1.409 . S
C3723 H3715 0.930 . S
C3723 C3724 1.355 . S
C3723 C3725 1.415 . S
C3724 C3723 1.355 . S
C3724 C3726 1.419 . S
C3725 C3720 1.425 . S
C3725 C3722 1.409 . S
C3725 C3723 1.415 . S
C3726 H3716 0.930 . S
C3726 C3724 1.419 . S
C3726 C3727 1.362 . S
C3727 H3717 0.930 . S
C3727 C3720 1.409 . S
C3727 C3726 1.362 . S
H3728 C3734 0.930 . S
H3729 C3737 0.930 . S
H3730 C3738 0.930 . S
H3731 C3739 0.930 . S
H3732 C3742 0.930 . S
H3733 C3743 0.930 . S
C3734 H3728 0.930 . S
C3734 C3735 1.355 . S
C3734 C3736 1.415 . S
C3735 C3734 1.355 . S
C3735 C3737 1.419 . S
C3736 C3734 1.415 . S
C3736 C3741 1.425 . S
C3736 C3743 1.409 . S
C3737 H3729 0.930 . S
C3737 C3735 1.419 . S
C3737 C3738 1.362 . S
C3738 H3730 0.930 . S
C3738 C3737 1.362 . S
C3738 C3741 1.409 . S
C3739 H3731 0.930 . S
C3739 C3740 1.355 . S
C3739 C3741 1.415 . S
C3740 C3739 1.355 . S
C3740 C3742 1.419 . S
C3741 C3736 1.425 . S
C3741 C3738 1.409 . S
C3741 C3739 1.415 . S
C3742 H3732 0.930 . S
C3742 C3740 1.419 . S
C3742 C3743 1.362 . S
C3743 H3733 0.930 . S
C3743 C3736 1.409 . S
C3743 C3742 1.362 . S
H3744 C3750 0.930 . S
H3745 C3753 0.930 . S
H3746 C3754 0.930 . S
H3747 C3755 0.930 . S
H3748 C3758 0.930 . S
H3749 C3759 0.930 . S
C3750 H3744 0.930 . S
C3750 C3751 1.355 . S
C3750 C3752 1.415 . S
C3751 C3750 1.355 . S
C3751 C3753 1.419 . S
C3752 C3750 1.415 . S
C3752 C3757 1.425 . S
C3752 C3759 1.409 . S
C3753 H3745 0.930 . S
C3753 C3751 1.419 . S
C3753 C3754 1.362 . S
C3754 H3746 0.930 . S
C3754 C3753 1.362 . S
C3754 C3757 1.409 . S
C3755 H3747 0.930 . S
C3755 C3756 1.355 . S
C3755 C3757 1.415 . S
C3756 C3755 1.355 . S
C3756 C3758 1.419 . S
C3757 C3752 1.425 . S
C3757 C3754 1.409 . S
C3757 C3755 1.415 . S
C3758 H3748 0.930 . S
C3758 C3756 1.419 . S
C3758 C3759 1.362 . S
C3759 H3749 0.930 . S
C3759 C3752 1.409 . S
C3759 C3758 1.362 . S
H3760 C3766 0.930 . S
H3761 C3769 0.930 . S
H3762 C3770 0.930 . S
H3763 C3771 0.930 . S
H3764 C3774 0.930 . S
H3765 C3775 0.930 . S
C3766 H3760 0.930 . S
C3766 C3767 1.355 . S
C3766 C3768 1.415 . S
C3767 C3766 1.355 . S
C3767 C3769 1.419 . S
C3768 C3766 1.415 . S
C3768 C3773 1.425 . S
C3768 C3775 1.409 . S
C3769 H3761 0.930 . S
C3769 C3767 1.419 . S
C3769 C3770 1.362 . S
C3770 H3762 0.930 . S
C3770 C3769 1.362 . S
C3770 C3773 1.409 . S
C3771 H3763 0.930 . S
C3771 C3772 1.355 . S
C3771 C3773 1.415 . S
C3772 C3771 1.355 . S
C3772 C3774 1.419 . S
C3773 C3768 1.425 . S
C3773 C3770 1.409 . S
C3773 C3771 1.415 . S
C3774 H3764 0.930 . S
C3774 C3772 1.419 . S
C3774 C3775 1.362 . S
C3775 H3765 0.930 . S
C3775 C3768 1.409 . S
C3775 C3774 1.362 . S
H3776 C3782 0.930 . S
H3777 C3785 0.930 . S
H3778 C3786 0.930 . S
H3779 C3787 0.930 . S
H3780 C3790 0.930 . S
H3781 C3791 0.930 . S
C3782 H3776 0.930 . S
C3782 C3783 1.355 . S
C3782 C3784 1.415 . S
C3783 C3782 1.355 . S
C3783 C3785 1.419 . S
C3784 C3782 1.415 . S
C3784 C3789 1.425 . S
C3784 C3791 1.409 . S
C3785 H3777 0.930 . S
C3785 C3783 1.419 . S
C3785 C3786 1.362 . S
C3786 H3778 0.930 . S
C3786 C3785 1.362 . S
C3786 C3789 1.409 . S
C3787 H3779 0.930 . S
C3787 C3788 1.355 . S
C3787 C3789 1.415 . S
C3788 C3787 1.355 . S
C3788 C3790 1.419 . S
C3789 C3784 1.425 . S
C3789 C3786 1.409 . S
C3789 C3787 1.415 . S
C3790 H3780 0.930 . S
C3790 C3788 1.419 . S
C3790 C3791 1.362 . S
C3791 H3781 0.930 . S
C3791 C3784 1.409 . S
C3791 C3790 1.362 . S
H3792 C3798 0.930 . S
H3793 C3801 0.930 . S
H3794 C3802 0.930 . S
H3795 C3803 0.930 . S
H3796 C3806 0.930 . S
H3797 C3807 0.930 . S
C3798 H3792 0.930 . S
C3798 C3799 1.355 . S
C3798 C3800 1.415 . S
C3799 C3798 1.355 . S
C3799 C3801 1.419 . S
C3800 C3798 1.415 . S
C3800 C3805 1.425 . S
C3800 C3807 1.409 . S
C3801 H3793 0.930 . S
C3801 C3799 1.419 . S
C3801 C3802 1.362 . S
C3802 H3794 0.930 . S
C3802 C3801 1.362 . S
C3802 C3805 1.409 . S
C3803 H3795 0.930 . S
C3803 C3804 1.355 . S
C3803 C3805 1.415 . S
C3804 C3803 1.355 . S
C3804 C3806 1.419 . S
C3805 C3800 1.425 . S
C3805 C3802 1.409 . S
C3805 C3803 1.415 . S
C3806 H3796 0.930 . S
C3806 C3804 1.419 . S
C3806 C3807 1.362 . S
C3807 H3797 0.930 . S
C3807 C3800 1.409 . S
C3807 C3806 1.362 . S
H3808 C3814 0.930 . S
H3809 C3817 0.930 . S
H3810 C3818 0.930 . S
H3811 C3819 0.930 . S
H3812 C3822 0.930 . S
H3813 C3823 0.930 . S
C3814 H3808 0.930 . S
C3814 C3815 1.355 . S
C3814 C3816 1.415 . S
C3815 C3814 1.355 . S
C3815 C3817 1.419 . S
C3816 C3814 1.415 . S
C3816 C3821 1.425 . S
C3816 C3823 1.409 . S
C3817 H3809 0.930 . S
C3817 C3815 1.419 . S
C3817 C3818 1.362 . S
C3818 H3810 0.930 . S
C3818 C3817 1.362 . S
C3818 C3821 1.409 . S
C3819 H3811 0.930 . S
C3819 C3820 1.355 . S
C3819 C3821 1.415 . S
C3820 C3819 1.355 . S
C3820 C3822 1.419 . S
C3821 C3816 1.425 . S
C3821 C3818 1.409 . S
C3821 C3819 1.415 . S
C3822 H3812 0.930 . S
C3822 C3820 1.419 . S
C3822 C3823 1.362 . S
C3823 H3813 0.930 . S
C3823 C3816 1.409 . S
C3823 C3822 1.362 . S
H3824 C3830 0.930 . S
H3825 C3833 0.930 . S
H3826 C3834 0.930 . S
H3827 C3835 0.930 . S
H3828 C3838 0.930 . S
H3829 C3839 0.930 . S
C3830 H3824 0.930 . S
C3830 C3831 1.355 . S
C3830 C3832 1.415 . S
C3831 C3830 1.355 . S
C3831 C3833 1.419 . S
C3832 C3830 1.415 . S
C3832 C3837 1.425 . S
C3832 C3839 1.409 . S
C3833 H3825 0.930 . S
C3833 C3831 1.419 . S
C3833 C3834 1.362 . S
C3834 H3826 0.930 . S
C3834 C3833 1.362 . S
C3834 C3837 1.409 . S
C3835 H3827 0.930 . S
C3835 C3836 1.355 . S
C3835 C3837 1.415 . S
C3836 C3835 1.355 . S
C3836 C3838 1.419 . S
C3837 C3832 1.425 . S
C3837 C3834 1.409 . S
C3837 C3835 1.415 . S
C3838 H3828 0.930 . S
C3838 C3836 1.419 . S
C3838 C3839 1.362 . S
C3839 H3829 0.930 . S
C3839 C3832 1.409 . S
C3839 C3838 1.362 . S
H3840 C3846 0.930 . S
H3841 C3849 0.930 . S
H3842 C3850 0.930 . S
H3843 C3851 0.930 . S
H3844 C3854 0.930 . S
H3845 C3855 0.930 . S
C3846 H3840 0.930 . S
C3846 C3847 1.355 . S
C3846 C3848 1.415 . S
C3847 C3846 1.355 . S
C3847 C3849 1.419 . S
C3848 C3846 1.415 . S
C3848 C3853 1.425 . S
C3848 C3855 1.409 . S
C3849 H3841 0.930 . S
C3849 C3847 1.419 . S
C3849 C3850 1.362 . S
C3850 H3842 0.930 . S
C3850 C3849 1.362 . S
C3850 C3853 1.409 . S
C3851 H3843 0.930 . S
C3851 C3852 1.355 . S
C3851 C3853 1.415 . S
C3852 C3851 1.355 . S
C3852 C3854 1.419 . S
C3853 C3848 1.425 . S
C3853 C3850 1.409 . S
C3853 C3851 1.415 . S
C3854 H3844 0.930 . S
C3854 C3852 1.419 . S
C3854 C3855 1.362 . S
C3855 H3845 0.930 . S
C3855 C3848 1.409 . S
C3855 C3854 1.362 . S
H3856 C3862 0.930 . S
H3857 C3865 0.930 . S
H3858 C3866 0.930 . S
H3859 C3867 0.930 . S
H3860 C3870 0.930 . S
H3861 C3871 0.930 . S
C3862 H3856 0.930 . S
C3862 C3863 1.355 . S
C3862 C3864 1.415 . S
C3863 C3862 1.355 . S
C3863 C3865 1.419 . S
C3864 C3862 1.415 . S
C3864 C3869 1.425 . S
C3864 C3871 1.409 . S
C3865 H3857 0.930 . S
C3865 C3863 1.419 . S
C3865 C3866 1.362 . S
C3866 H3858 0.930 . S
C3866 C3865 1.362 . S
C3866 C3869 1.409 . S
C3867 H3859 0.930 . S
C3867 C3868 1.355 . S
C3867 C3869 1.415 . S
C3868 C3867 1.355 . S
C3868 C3870 1.419 . S
C3869 C3864 1.425 . S
C3869 C3866 1.409 . S
C3869 C3867 1.415 . S
C3870 H3860 0.930 . S
C3870 C3868 1.419 . S
C3870 C3871 1.362 . S
C3871 H3861 0.930 . S
C3871 C3864 1.409 . S
C3871 C3870 1.362 . S
H3872 C3878 0.930 . S
H3873 C3881 0.930 . S
H3874 C3882 0.930 . S
H3875 C3883 0.930 . S
H3876 C3886 0.930 . S
H3877 C3887 0.930 . S
C3878 H3872 0.930 . S
C3878 C3879 1.355 . S
C3878 C3880 1.415 . S
C3879 C3878 1.355 . S
C3879 C3881 1.419 . S
C3880 C3878 1.415 . S
C3880 C3885 1.425 . S
C3880 C3887 1.409 . S
C3881 H3873 0.930 . S
C3881 C3879 1.419 . S
C3881 C3882 1.362 . S
C3882 H3874 0.930 . S
C3882 C3881 1.362 . S
C3882 C3885 1.409 . S
C3883 H3875 0.930 . S
C3883 C3884 1.355 . S
C3883 C3885 1.415 . S
C3884 C3883 1.355 . S
C3884 C3886 1.419 . S
C3885 C3880 1.425 . S
C3885 C3882 1.409 . S
C3885 C3883 1.415 . S
C3886 H3876 0.930 . S
C3886 C3884 1.419 . S
C3886 C3887 1.362 . S
C3887 H3877 0.930 . S
C3887 C3880 1.409 . S
C3887 C3886 1.362 . S
H3888 C3894 0.930 . S
H3889 C3897 0.930 . S
H3890 C3898 0.930 . S
H3891 C3899 0.930 . S
H3892 C3902 0.930 . S
H3893 C3903 0.930 . S
C3894 H3888 0.930 . S
C3894 C3895 1.355 . S
C3894 C3896 1.415 . S
C3895 C3894 1.355 . S
C3895 C3897 1.419 . S
C3896 C3894 1.415 . S
C3896 C3901 1.425 . S
C3896 C3903 1.409 . S
C3897 H3889 0.930 . S
C3897 C3895 1.419 . S
C3897 C3898 1.362 . S
C3898 H3890 0.930 . S
C3898 C3897 1.362 . S
C3898 C3901 1.409 . S
C3899 H3891 0.930 . S
C3899 C3900 1.355 . S
C3899 C3901 1.415 . S
C3900 C3899 1.355 . S
C3900 C3902 1.419 . S
C3901 C3896 1.425 . S
C3901 C3898 1.409 . S
C3901 C3899 1.415 . S
C3902 H3892 0.930 . S
C3902 C3900 1.419 . S
C3902 C3903 1.362 . S
C3903 H3893 0.930 . S
C3903 C3896 1.409 . S
C3903 C3902 1.362 . S
H3904 C3910 0.930 . S
H3905 C3913 0.930 . S
H3906 C3914 0.930 . S
H3907 C3915 0.930 . S
H3908 C3918 0.930 . S
H3909 C3919 0.930 . S
C3910 H3904 0.930 . S
C3910 C3911 1.355 . S
C3910 C3912 1.415 . S
C3911 C3910 1.355 . S
C3911 C3913 1.419 . S
C3912 C3910 1.415 . S
C3912 C3917 1.425 . S
C3912 C3919 1.409 . S
C3913 H3905 0.930 . S
C3913 C3911 1.419 . S
C3913 C3914 1.362 . S
C3914 H3906 0.930 . S
C3914 C3913 1.362 . S
C3914 C3917 1.409 . S
C3915 H3907 0.930 . S
C3915 C3916 1.355 . S
C3915 C3917 1.415 . S
C3916 C3915 1.355 . S
C3916 C3918 1.419 . S
C3917 C3912 1.425 . S
C3917 C3914 1.409 . S
C3917 C3915 1.415 . S
C3918 H3908 0.930 . S
C3918 C3916 1.419 . S
C3918 C3919 1.362 . S
C3919 H3909 0.930 . S
C3919 C3912 1.409 . S
C3919 C3918 1.362 . S
H3920 C3926 0.930 . S
H3921 C3929 0.930 . S
H3922 C3930 0.930 . S
H3923 C3931 0.930 . S
H3924 C3934 0.930 . S
H3925 C3935 0.930 . S
C3926 H3920 0.930 . S
C3926 C3927 1.355 . S
C3926 C3928 1.415 . S
C3927 C3926 1.355 . S
C3927 C3929 1.419 . S
C3928 C3926 1.415 . S
C3928 C3933 1.425 . S
C3928 C3935 1.409 . S
C3929 H3921 0.930 . S
C3929 C3927 1.419 . S
C3929 C3930 1.362 . S
C3930 H3922 0.930 . S
C3930 C3929 1.362 . S
C3930 C3933 1.409 . S
C3931 H3923 0.930 . S
C3931 C3932 1.355 . S
C3931 C3933 1.415 . S
C3932 C3931 1.355 . S
C3932 C3934 1.419 . S
C3933 C3928 1.425 . S
C3933 C3930 1.409 . S
C3933 C3931 1.415 . S
C3934 H3924 0.930 . S
C3934 C3932 1.419 . S
C3934 C3935 1.362 . S
C3935 H3925 0.930 . S
C3935 C3928 1.409 . S
C3935 C3934 1.362 . S
H3936 C3942 0.930 . S
H3937 C3945 0.930 . S
H3938 C3946 0.930 . S
H3939 C3947 0.930 . S
H3940 C3950 0.930 . S
H3941 C3951 0.930 . S
C3942 H3936 0.930 . S
C3942 C3943 1.355 . S
C3942 C3944 1.415 . S
C3943 C3942 1.355 . S
C3943 C3945 1.419 . S
C3944 C3942 1.415 . S
C3944 C3949 1.425 . S
C3944 C3951 1.409 . S
C3945 H3937 0.930 . S
C3945 C3943 1.419 . S
C3945 C3946 1.362 . S
C3946 H3938 0.930 . S
C3946 C3945 1.362 . S
C3946 C3949 1.409 . S
C3947 H3939 0.930 . S
C3947 C3948 1.355 . S
C3947 C3949 1.415 . S
C3948 C3947 1.355 . S
C3948 C3950 1.419 . S
C3949 C3944 1.425 . S
C3949 C3946 1.409 . S
C3949 C3947 1.415 . S
C3950 H3940 0.930 . S
C3950 C3948 1.419 . S
C3950 C3951 1.362 . S
C3951 H3941 0.930 . S
C3951 C3944 1.409 . S
C3951 C3950 1.362 . S
H3952 C3958 0.930 . S
H3953 C3961 0.930 . S
H3954 C3962 0.930 . S
H3955 C3963 0.930 . S
H3956 C3966 0.930 . S
H3957 C3967 0.930 . S
C3958 H3952 0.930 . S
C3958 C3959 1.355 . S
C3958 C3960 1.415 . S
C3959 C3958 1.355 . S
C3959 C3961 1.419 . S
C3960 C3958 1.415 . S
C3960 C3965 1.425 . S
C3960 C3967 1.409 . S
C3961 H3953 0.930 . S
C3961 C3959 1.419 . S
C3961 C3962 1.362 . S
C3962 H3954 0.930 . S
C3962 C3961 1.362 . S
C3962 C3965 1.409 . S
C3963 H3955 0.930 . S
C3963 C3964 1.355 . S
C3963 C3965 1.415 . S
C3964 C3963 1.355 . S
C3964 C3966 1.419 . S
C3965 C3960 1.425 . S
C3965 C3962 1.409 . S
C3965 C3963 1.415 . S
C3966 H3956 0.930 . S
C3966 C3964 1.419 . S
C3966 C3967 1.362 . S
C3967 H3957 0.930 . S
C3967 C3960 1.409 . S
C3967 C3966 1.362 . S
H3968 C3974 0.930 . S
H3969 C3977 0.930 . S
H3970 C3978 0.930 . S
H3971 C3979 0.930 . S
H3972 C3982 0.930 . S
H3973 C3983 0.930 . S
C3974 H3968 0.930 . S
C3974 C3975 1.355 . S
C3974 C3976 1.415 1_545 S
C3975 C3974 1.355 . S
C3975 C3977 1.419 . S
C3976 C3974 1.415 1_565 S
C3976 C3981 1.425 1_565 S
C3976 C3983 1.409 . S
C3977 H3969 0.930 . S
C3977 C3975 1.419 . S
C3977 C3978 1.362 . S
C3978 H3970 0.930 . S
C3978 C3977 1.362 . S
C3978 C3981 1.409 . S
C3979 H3971 0.930 . S
C3979 C3980 1.355 . S
C3979 C3981 1.415 1_565 S
C3980 C3979 1.355 . S
C3980 C3982 1.419 . S
C3981 C3976 1.425 1_545 S
C3981 C3978 1.409 . S
C3981 C3979 1.415 1_545 S
C3982 H3972 0.930 . S
C3982 C3980 1.419 . S
C3982 C3983 1.362 . S
C3983 H3973 0.930 . S
C3983 C3976 1.409 . S
C3983 C3982 1.362 . S
H3984 C3990 0.930 . S
H3985 C3993 0.930 1_545 S
H3986 C3994 0.930 1_545 S
H3987 C3995 0.930 . S
H3988 C3998 0.930 . S
H3989 C3999 0.930 . S
C3990 H3984 0.930 . S
C3990 C3991 1.355 . S
C3990 C3992 1.415 . S
C3991 C3990 1.355 . S
C3991 C3993 1.419 . S
C3992 C3990 1.415 . S
C3992 C3997 1.425 . S
C3992 C3999 1.409 . S
C3993 H3985 0.930 1_565 S
C3993 C3991 1.419 . S
C3993 C3994 1.362 . S
C3994 H3986 0.930 1_565 S
C3994 C3993 1.362 . S
C3994 C3997 1.409 . S
C3995 H3987 0.930 . S
C3995 C3996 1.355 . S
C3995 C3997 1.415 . S
C3996 C3995 1.355 . S
C3996 C3998 1.419 . S
C3997 C3992 1.425 . S
C3997 C3994 1.409 . S
C3997 C3995 1.415 . S
C3998 H3988 0.930 . S
C3998 C3996 1.419 . S
C3998 C3999 1.362 . S
C3999 H3989 0.930 . S
C3999 C3992 1.409 . S
C3999 C3998 1.362 . S
H4000 C4006 0.930 . S
H4001 C4009 0.930 . S
H4002 C4010 0.930 . S
H4003 C4011 0.930 . S
H4004 C4014 0.930 . S
H4005 C4015 0.930 . S
C4006 H4000 0.930 . S
C4006 C4007 1.355 . S
C4006 C4008 1.415 1_545 S
C4007 C4006 1.355 . S
C4007 C4009 1.419 . S
C4008 C4006 1.415 1_565 S
C4008 C4013 1.425 1_565 S
C4008 C4015 1.409 . S
C4009 H4001 0.930 . S
C4009 C4007 1.419 . S
C4009 C4010 1.362 . S
C4010 H4002 0.930 . S
C4010 C4009 1.362 . S
C4010 C4013 1.409 . S
C4011 H4003 0.930 . S
C4011 C4012 1.355 . S
C4011 C4013 1.415 1_565 S
C4012 C4011 1.355 . S
C4012 C4014 1.419 . S
C4013 C4008 1.425 1_545 S
C4013 C4010 1.409 . S
C4013 C4011 1.415 1_545 S
C4014 H4004 0.930 . S
C4014 C4012 1.419 . S
C4014 C4015 1.362 . S
C4015 H4005 0.930 . S
C4015 C4008 1.409 . S
C4015 C4014 1.362 . S
H4016 C4022 0.930 . S
H4017 C4025 0.931 . S
H4018 C4026 0.930 . S
H4019 C4027 0.930 . S
H4020 C4030 0.931 . S
H4021 C4031 0.930 . S
C4022 H4016 0.930 . S
C4022 C4023 1.355 . S
C4022 C4024 1.415 . S
C4023 C4022 1.355 . S
C4023 C4025 1.413 1_556 S
C4024 C4022 1.415 . S
C4024 C4029 1.425 1_556 S
C4024 C4031 1.409 . S
C4025 H4017 0.931 . S
C4025 C4023 1.413 1_554 S
C4025 C4026 1.367 . S
C4026 H4018 0.930 . S
C4026 C4025 1.367 . S
C4026 C4029 1.409 . S
C4027 H4019 0.930 . S
C4027 C4028 1.355 . S
C4027 C4029 1.415 . S
C4028 C4027 1.355 . S
C4028 C4030 1.413 1_554 S
C4029 C4024 1.425 1_554 S
C4029 C4026 1.409 . S
C4029 C4027 1.415 . S
C4030 H4020 0.931 . S
C4030 C4028 1.413 1_556 S
C4030 C4031 1.367 . S
C4031 H4021 0.930 . S
C4031 C4024 1.409 . S
C4031 C4030 1.367 . S
H4032 C4038 0.930 . S
H4033 C4041 0.930 . S
H4034 C4042 0.930 . S
H4035 C4043 0.930 . S
H4036 C4046 0.930 . S
H4037 C4047 0.930 . S
C4038 H4032 0.930 . S
C4038 C4039 1.355 . S
C4038 C4040 1.415 . S
C4039 C4038 1.355 . S
C4039 C4041 1.419 . S
C4040 C4038 1.415 . S
C4040 C4045 1.425 1_565 S
C4040 C4047 1.409 . S
C4041 H4033 0.930 . S
C4041 C4039 1.419 . S
C4041 C4042 1.362 1_565 S
C4042 H4034 0.930 . S
C4042 C4041 1.362 1_545 S
C4042 C4045 1.409 . S
C4043 H4035 0.930 . S
C4043 C4044 1.355 . S
C4043 C4045 1.415 . S
C4044 C4043 1.355 . S
C4044 C4046 1.419 . S
C4045 C4040 1.425 1_545 S
C4045 C4042 1.409 . S
C4045 C4043 1.415 . S
C4046 H4036 0.930 . S
C4046 C4044 1.419 . S
C4046 C4047 1.362 1_545 S
C4047 H4037 0.930 . S
C4047 C4040 1.409 . S
C4047 C4046 1.362 1_565 S
H4048 C4054 0.930 . S
H4049 C4057 0.930 . S
H4050 C4058 0.930 . S
H4051 C4059 0.930 . S
H4052 C4062 0.930 . S
H4053 C4063 0.930 . S
C4054 H4048 0.930 . S
C4054 C4055 1.355 . S
C4054 C4056 1.415 . S
C4055 C4054 1.355 . S
C4055 C4057 1.419 1_545 S
C4056 C4054 1.415 . S
C4056 C4061 1.403 1_545 S
C4056 C4063 1.409 . S
C4057 H4049 0.930 . S
C4057 C4055 1.419 1_565 S
C4057 C4058 1.362 . S
C4058 H4050 0.930 . S
C4058 C4057 1.362 . S
C4058 C4061 1.427 . S
C4059 H4051 0.930 . S
C4059 C4060 1.355 1_565 S
C4059 C4061 1.418 . S
C4060 C4059 1.355 1_545 S
C4060 C4062 1.419 . S
C4061 C4056 1.403 1_565 S
C4061 C4058 1.427 . S
C4061 C4059 1.418 . S
C4062 H4052 0.930 . S
C4062 C4060 1.419 . S
C4062 C4063 1.362 . S
C4063 H4053 0.930 . S
C4063 C4056 1.409 . S
C4063 C4062 1.362 . S
H4064 C4070 0.930 . S
H4065 C4073 0.930 . S
H4066 C4074 0.930 . S
H4067 C4075 0.930 . S
H4068 C4078 0.930 . S
H4069 C4079 0.930 . S
C4070 H4064 0.930 . S
C4070 C4071 1.355 . S
C4070 C4072 1.415 1_565 S
C4071 C4070 1.355 . S
C4071 C4073 1.419 . S
C4072 C4070 1.415 1_545 S
C4072 C4077 1.425 1_545 S
C4072 C4079 1.409 . S
C4073 H4065 0.930 . S
C4073 C4071 1.419 . S
C4073 C4074 1.362 . S
C4074 H4066 0.930 . S
C4074 C4073 1.362 . S
C4074 C4077 1.409 . S
C4075 H4067 0.930 . S
C4075 C4076 1.355 . S
C4075 C4077 1.415 1_545 S
C4076 C4075 1.355 . S
C4076 C4078 1.419 . S
C4077 C4072 1.425 1_565 S
C4077 C4074 1.409 . S
C4077 C4075 1.415 1_565 S
C4078 H4068 0.930 . S
C4078 C4076 1.419 . S
C4078 C4079 1.362 . S
C4079 H4069 0.930 . S
C4079 C4072 1.409 . S
C4079 C4078 1.362 . S
H4080 C4086 0.930 1_556 S
H4081 C4089 0.930 . S
H4082 C4090 0.930 . S
H4083 C4091 0.930 1_544 S
H4084 C4094 0.930 . S
H4085 C4095 0.930 . S
C4086 H4080 0.930 1_554 S
C4086 C4087 1.355 . S
C4086 C4088 1.415 1_554 S
C4087 C4086 1.355 . S
C4087 C4089 1.419 1_565 S
C4088 C4086 1.415 1_556 S
C4088 C4093 1.425 1_556 S
C4088 C4095 1.409 . S
C4089 H4081 0.930 . S
C4089 C4087 1.419 1_545 S
C4089 C4090 1.362 . S
C4090 H4082 0.930 . S
C4090 C4089 1.362 . S
C4090 C4093 1.409 1_545 S
C4091 H4083 0.930 1_566 S
C4091 C4092 1.355 . S
C4091 C4093 1.415 1_556 S
C4092 C4091 1.355 . S
C4092 C4094 1.419 . S
C4093 C4088 1.425 1_554 S
C4093 C4090 1.409 1_565 S
C4093 C4091 1.415 1_554 S
C4094 H4084 0.930 . S
C4094 C4092 1.419 . S
C4094 C4095 1.362 . S
C4095 H4085 0.930 . S
C4095 C4088 1.409 . S
C4095 C4094 1.362 . S
H4096 C4102 0.930 . S
H4097 C4105 0.930 . S
H4098 C4106 0.930 . S
H4099 C4107 0.930 . S
H4100 C4110 0.930 . S
H4101 C4111 0.930 . S
C4102 H4096 0.930 . S
C4102 C4103 1.355 . S
C4102 C4104 1.415 . S
C4103 C4102 1.355 . S
C4103 C4105 1.419 . S
C4104 C4102 1.415 . S
C4104 C4109 1.425 . S
C4104 C4111 1.409 . S
C4105 H4097 0.930 . S
C4105 C4103 1.419 . S
C4105 C4106 1.362 . S
C4106 H4098 0.930 . S
C4106 C4105 1.362 . S
C4106 C4109 1.409 . S
C4107 H4099 0.930 . S
C4107 C4108 1.355 . S
C4107 C4109 1.415 . S
C4108 C4107 1.355 . S
C4108 C4110 1.419 . S
C4109 C4104 1.425 . S
C4109 C4106 1.409 . S
C4109 C4107 1.415 . S
C4110 H4100 0.930 . S
C4110 C4108 1.419 . S
C4110 C4111 1.362 . S
C4111 H4101 0.930 . S
C4111 C4104 1.409 . S
C4111 C4110 1.362 . S
H4112 C4118 0.930 . S
H4113 C4121 0.930 . S
H4114 C4122 0.930 . S
H4115 C4123 0.930 . S
H4116 C4126 0.930 . S
H4117 C4127 0.930 . S
C4118 H4112 0.930 . S
C4118 C4119 1.355 . S
C4118 C4120 1.415 1_556 S
C4119 C4118 1.355 . S
C4119 C4121 1.419 . S
C4120 C4118 1.415 1_554 S
C4120 C4125 1.425 1_554 S
C4120 C4127 1.409 . S
C4121 H4113 0.930 . S
C4121 C4119 1.419 . S
C4121 C4122 1.362 . S
C4122 H4114 0.930 . S
C4122 C4121 1.362 . S
C4122 C4125 1.409 . S
C4123 H4115 0.930 . S
C4123 C4124 1.355 . S
C4123 C4125 1.415 1_554 S
C4124 C4123 1.355 . S
C4124 C4126 1.419 . S
C4125 C4120 1.425 1_556 S
C4125 C4122 1.409 . S
C4125 C4123 1.415 1_556 S
C4126 H4116 0.930 . S
C4126 C4124 1.419 . S
C4126 C4127 1.362 . S
C4127 H4117 0.930 . S
C4127 C4120 1.409 . S
C4127 C4126 1.362 . S
H4128 C4134 0.930 . S
H4129 C4137 0.930 . S
H4130 C4138 0.930 . S
H4131 C4139 0.930 . S
H4132 C4142 0.930 . S
H4133 C4143 0.930 . S
C4134 H4128 0.930 . S
C4134 C4135 1.355 . S
C4134 C4136 1.415 . S
C4135 C4134 1.355 . S
C4135 C4137 1.419 . S
C4136 C4134 1.415 . S
C4136 C4141 1.425 . S
C4136 C4143 1.409 . S
C4137 H4129 0.930 . S
C4137 C4135 1.419 . S
C4137 C4138 1.362 . S
C4138 H4130 0.930 . S
C4138 C4137 1.362 . S
C4138 C4141 1.409 . S
C4139 H4131 0.930 . S
C4139 C4140 1.355 . S
C4139 C4141 1.415 . S
C4140 C4139 1.355 . S
C4140 C4142 1.419 . S
C4141 C4136 1.425 . S
C4141 C4138 1.409 . S
C4141 C4139 1.415 . S
C4142 H4132 0.930 . S
C4142 C4140 1.419 . S
C4142 C4143 1.362 . S
C4143 H4133 0.930 . S
C4143 C4136 1.409 . S
C4143 C4142 1.362 . S
H4144 C4150 0.930 . S
H4145 C4153 0.930 . S
H4146 C4154 0.930 . S
H4147 C4155 0.930 . S
H4148 C4158 0.930 . S
H4149 C4159 0.930 . S
C4150 H4144 0.930 . S
C4150 C4151 1.355 . S
C4150 C4152 1.415 . S
C4151 C4150 1.355 . S
C4151 C4153 1.419 . S
C4152 C4150 1.415 . S
C4152 C4157 1.425 . S
C4152 C4159 1.409 . S
C4153 H4145 0.930 . S
C4153 C4151 1.419 . S
C4153 C4154 1.362 . S
C4154 H4146 0.930 . S
C4154 C4153 1.362 . S
C4154 C4157 1.409 . S
C4155 H4147 0.930 . S
C4155 C4156 1.355 . S
C4155 C4157 1.415 . S
C4156 C4155 1.355 . S
C4156 C4158 1.419 . S
C4157 C4152 1.425 . S
C4157 C4154 1.409 . S
C4157 C4155 1.415 . S
C4158 H4148 0.930 . S
C4158 C4156 1.419 . S
C4158 C4159 1.362 . S
C4159 H4149 0.930 . S
C4159 C4152 1.409 . S
C4159 C4158 1.362 . S
H4160 C4166 0.930 . S
H4161 C4169 0.930 . S
H4162 C4170 0.930 . S
H4163 C4171 0.930 . S
H4164 C4174 0.930 . S
H4165 C4175 0.930 . S
C4166 H4160 0.930 . S
C4166 C4167 1.355 . S
C4166 C4168 1.415 . S
C4167 C4166 1.355 . S
C4167 C4169 1.419 . S
C4168 C4166 1.415 . S
C4168 C4173 1.425 . S
C4168 C4175 1.409 . S
C4169 H4161 0.930 . S
C4169 C4167 1.419 . S
C4169 C4170 1.362 . S
C4170 H4162 0.930 . S
C4170 C4169 1.362 . S
C4170 C4173 1.409 . S
C4171 H4163 0.930 . S
C4171 C4172 1.355 . S
C4171 C4173 1.415 . S
C4172 C4171 1.355 . S
C4172 C4174 1.419 . S
C4173 C4168 1.425 . S
C4173 C4170 1.409 . S
C4173 C4171 1.415 . S
C4174 H4164 0.930 . S
C4174 C4172 1.419 . S
C4174 C4175 1.362 . S
C4175 H4165 0.930 . S
C4175 C4168 1.409 . S
C4175 C4174 1.362 . S
H4176 C4182 0.930 1_554 S
H4177 C4185 0.930 . S
H4178 C4186 0.930 . S
H4179 C4187 0.930 1_556 S
H4180 C4190 0.930 . S
H4181 C4191 0.930 . S
C4182 H4176 0.930 1_556 S
C4182 C4183 1.355 . S
C4182 C4184 1.415 1_556 S
C4183 C4182 1.355 . S
C4183 C4185 1.419 . S
C4184 C4182 1.415 1_554 S
C4184 C4189 1.425 1_554 S
C4184 C4191 1.409 . S
C4185 H4177 0.930 . S
C4185 C4183 1.419 . S
C4185 C4186 1.362 . S
C4186 H4178 0.930 . S
C4186 C4185 1.362 . S
C4186 C4189 1.409 . S
C4187 H4179 0.930 1_554 S
C4187 C4188 1.355 . S
C4187 C4189 1.415 1_554 S
C4188 C4187 1.355 . S
C4188 C4190 1.419 . S
C4189 C4184 1.425 1_556 S
C4189 C4186 1.409 . S
C4189 C4187 1.415 1_556 S
C4190 H4180 0.930 . S
C4190 C4188 1.419 . S
C4190 C4191 1.362 . S
C4191 H4181 0.930 . S
C4191 C4184 1.409 . S
C4191 C4190 1.362 . S
H4192 C4198 0.930 . S
H4193 C4201 0.930 . S
H4194 C4202 0.930 . S
H4195 C4203 0.930 . S
H4196 C4206 0.930 . S
H4197 C4207 0.930 . S
C4198 H4192 0.930 . S
C4198 C4199 1.355 . S
C4198 C4200 1.415 . S
C4199 C4198 1.355 . S
C4199 C4201 1.419 . S
C4200 C4198 1.415 . S
C4200 C4205 1.425 . S
C4200 C4207 1.409 . S
C4201 H4193 0.930 . S
C4201 C4199 1.419 . S
C4201 C4202 1.362 . S
C4202 H4194 0.930 . S
C4202 C4201 1.362 . S
C4202 C4205 1.409 . S
C4203 H4195 0.930 . S
C4203 C4204 1.355 . S
C4203 C4205 1.415 . S
C4204 C4203 1.355 . S
C4204 C4206 1.419 . S
C4205 C4200 1.425 . S
C4205 C4202 1.409 . S
C4205 C4203 1.415 . S
C4206 H4196 0.930 . S
C4206 C4204 1.419 . S
C4206 C4207 1.362 . S
C4207 H4197 0.930 . S
C4207 C4200 1.409 . S
C4207 C4206 1.362 . S
H4208 C4214 0.930 . S
H4209 C4217 0.930 . S
H4210 C4218 0.930 . S
H4211 C4219 0.930 . S
H4212 C4222 0.930 . S
H4213 C4223 0.930 . S
C4214 H4208 0.930 . S
C4214 C4215 1.355 . S
C4214 C4216 1.415 . S
C4215 C4214 1.355 . S
C4215 C4217 1.419 . S
C4216 C4214 1.415 . S
C4216 C4221 1.425 . S
C4216 C4223 1.409 . S
C4217 H4209 0.930 . S
C4217 C4215 1.419 . S
C4217 C4218 1.362 . S
C4218 H4210 0.930 . S
C4218 C4217 1.362 . S
C4218 C4221 1.409 . S
C4219 H4211 0.930 . S
C4219 C4220 1.355 . S
C4219 C4221 1.415 . S
C4220 C4219 1.355 . S
C4220 C4222 1.419 . S
C4221 C4216 1.425 . S
C4221 C4218 1.409 . S
C4221 C4219 1.415 . S
C4222 H4212 0.930 . S
C4222 C4220 1.419 . S
C4222 C4223 1.362 . S
C4223 H4213 0.930 . S
C4223 C4216 1.409 . S
C4223 C4222 1.362 . S
C2695 C58 0.430 . S
C2700 C2335 0.224 . S
C2711 C142 0.419 . S
C2716 C739 0.219 . S
C2727 C226 0.385 . S
C2732 C2167 0.236 . S
C2743 C907 0.411 . S
C2748 C310 0.260 . S
C2759 C394 0.263 . S
C2764 C2503 0.346 . S
C2775 C1243 0.361 . S
C2780 C478 0.371 . S
C2791 C2671 0.380 . S
C2796 C562 0.345 . S
C2807 C646 0.319 . S
C2812 C1075 0.295 . S
C2823 C742 0.433 . S
C2828 C1652 0.262 . S
C2839 C826 0.408 . S
C2844 C56 0.320 . S
C2855 C1484 0.410 . S
C2860 C910 0.238 . S
C2871 C224 0.286 . S
C2876 C994 0.328 . S
C2887 C1078 0.435 . S
C2892 C1820 0.239 . S
C2903 C1162 0.434 . S
C2908 C560 0.230 . S
C2919 C1246 0.227 . S
C2924 C1988 0.389 . S
C2935 C392 0.400 . S
C2940 C1330 0.307 . S
C2951 C991 0.235 . S
C2956 C1402 0.387 . S
C2967 C2083 0.409 . S
C2972 C1486 0.236 . S
C2983 C823 0.260 . S
C2988 C1570 0.434 . S
C2999 C1654 0.263 . S
C3004 C2251 0.346 . S
C3015 C1159 0.311 . S
C3020 C1738 0.413 . S
C3031 C2587 0.381 . S
C3036 C1822 0.231 . S
C3047 C1327 0.382 . S
C3052 C1906 0.343 . S
C3063 C1990 0.245 . S
C3068 C2419 0.411 . S
C3079 C2086 0.228 . S
C3084 C308 0.385 . S
C3095 C2170 0.242 . S
C3100 C1400 0.410 . S
C3111 C2254 0.396 . S
C3116 C140 0.229 . S
C3127 C2338 0.409 . S
C3132 C1568 0.222 . S
C3143 C476 0.220 . S
C3148 C2422 0.411 . S
C3159 C1904 0.411 . S
C3164 C2506 0.260 . S
C3175 C2590 0.287 . S
C3180 C644 0.324 . S
C3191 C2674 0.343 . S
C3196 C1736 0.273 . S
C3207 C63 3.143 . S
C3212 C1575 3.157 . S
C3223 C1659 3.154 . S
C3228 C147 3.161 . S
C3239 C231 3.159 . S
C3244 C1407 3.159 . S
C3255 C315 3.160 . S
C3260 C1491 3.147 . S
C3271 C1911 3.161 . S
C3276 C399 3.154 . S
C3287 C483 3.143 . S
C3292 C1995 3.157 . S
C3303 C1743 3.161 . S
C3308 C567 3.153 . S
C3319 C651 3.147 . S
C3324 C1827 3.141 . S
C3335 C2258 3.141 . S
C3340 C746 3.153 . S
C3351 C830 3.150 . S
C3356 C2342 3.141 . S
C3367 C914 3.155 . S
C3372 C2090 3.142 . S
C3383 C998 3.161 . S
C3388 C2174 3.154 . S
C3399 C2594 3.141 . S
C3404 C1082 3.148 . S
C3415 C2678 3.160 . S
C3420 C1166 3.147 . S
C3431 C1250 3.157 . S
C3436 C2426 3.160 . S
C3447 C1334 3.142 . S
C3452 C2510 3.155 . S
C3463 C67 2.998 . S
C3468 C2072 2.998 . S
C3479 C812 3.027 . S
C3484 C151 3.027 . S
C3495 C235 3.009 . S
C3500 C2240 3.009 . S
C3511 C319 3.003 . S
C3516 C980 3.003 . S
C3527 C2408 3.043 . S
C3532 C403 3.043 . S
C3543 C1148 3.018 . S
C3548 C487 3.018 . S
C3559 C571 3.044 . S
C3564 C2576 3.044 . S
C3575 C655 3.050 . S
C3580 C1316 3.050 . S
C3591 C1411 3.004 . S
C3596 C728 3.004 . S
C3607 C1579 3.015 . S
C3612 C896 3.015 . S
C3623 C1747 3.021 . S
C3628 C1064 3.021 . S
C3639 C1232 3.033 . S
C3644 C1915 3.033 . S
C3655 C1495 3.006 . S
C3660 C2156 3.005 . S
C3671 C1663 3.033 . S
C3676 C2324 3.033 . S
C3687 C2492 3.028 . S
C3692 C1831 3.028 . S
C3703 C2660 2.997 . S
C3708 C1999 2.997 . S
C3719 C74 4.139 . S
C3724 C494 4.156 1_545 S
C3735 C578 4.160 . S
C3740 C158 4.155 1_545 S
C3751 C662 4.118 1_565 S
C3756 C242 4.131 . S
C3767 C410 4.160 . S
C3772 C326 4.146 1_565 S
C3783 C735 4.119 . S
C3788 C1155 4.132 1_565 S
C3799 C819 4.161 1_565 S
C3804 C1239 4.153 . S
C3815 C1323 4.153 1_545 S
C3820 C903 4.161 . S
C3831 C987 4.118 1_545 S
C3836 C1071 4.125 . S
C3847 C1418 4.151 . S
C3852 C1838 4.131 . S
C3863 C1502 4.122 . S
C3868 C1922 4.119 . S
C3879 C1586 4.155 . S
C3884 C2006 4.137 . S
C3895 C1754 4.146 . S
C3900 C1670 4.160 . S
C3911 C2079 4.137 . S
C3916 C2499 4.155 . S
C3927 C2163 4.126 . S
C3932 C2583 4.145 . S
C3943 C2667 4.128 . S
C3948 C2247 4.148 . S
C3959 C2331 4.160 . S
C3964 C2415 4.156 . S
C3975 C70 0.954 . S
C3980 C406 0.757 . S
C3991 C154 0.925 . S
C3996 C490 0.790 . S
C4007 C574 0.814 . S
C4012 C238 0.904 . S
C4023 C658 0.897 . S
C4028 C322 0.822 . S
C4039 C730 0.944 . S
C4044 C1066 0.774 . S
C4055 C1150 0.966 . S
C4060 C814 0.743 . S
C4071 C1234 0.880 . S
C4076 C898 0.840 . S
C4087 C1318 0.940 . S
C4092 C982 0.779 . S
C4103 C1414 0.819 . S
C4108 C1750 0.905 . S
C4119 C1834 0.753 . S
C4124 C1498 0.960 . S
C4135 C1582 0.826 . S
C4140 C1918 0.899 . S
C4151 C2002 0.962 . S
C4156 C1666 0.747 . S
C4167 C2410 0.801 . S
C4172 C2074 0.915 . S
C4183 C2158 0.882 . S
C4188 C2494 0.845 . S
C4199 C2242 0.836 . S
C4204 C2578 0.884 . S
C4215 C2326 0.962 . S
C4220 C2662 0.750 . S
