# Generated by pormake.
# Topology fns, (5)-cn, num edge types: 1
# Building blocks:
#     Node 0, Type 0, BuildingBlock: BEQFEK_clean_sbu_0, # of connection points: 5
#     Node 1, Type 0, BuildingBlock: BEQFEK_clean_sbu_0, # of connection points: 5
#     Node 2, Type 0, BuildingBlock: BEQFEK_clean_sbu_0, # of connection points: 5
#     Node 3, Type 0, BuildingBlock: BEQFEK_clean_sbu_0, # of connection points: 5
#     Node 4, Type 0, BuildingBlock: BEQFEK_clean_sbu_0, # of connection points: 5
#     Node 5, Type 0, BuildingBlock: BEQFEK_clean_sbu_0, # of connection points: 5
#     Edge 6, Type (0, 0), BuildingBlock: ZUJKAS_clean_linker_0, # of connection points: 2
#     Edge 7, Type (0, 0), BuildingBlock: ZUJKAS_clean_linker_0, # of connection points: 2
#     Edge 8, Type (0, 0), BuildingBlock: ZUJKAS_clean_linker_0, # of connection points: 2
#     Edge 9, Type (0, 0), BuildingBlock: ZUJKAS_clean_linker_0, # of connection points: 2
#     Edge 10, Type (0, 0), BuildingBlock: ZUJKAS_clean_linker_0, # of connection points: 2
#     Edge 11, Type (0, 0), BuildingBlock: ZUJKAS_clean_linker_0, # of connection points: 2
#     Edge 12, Type (0, 0), BuildingBlock: ZUJKAS_clean_linker_0, # of connection points: 2
#     Edge 13, Type (0, 0), BuildingBlock: ZUJKAS_clean_linker_0, # of connection points: 2
#     Edge 14, Type (0, 0), BuildingBlock: ZUJKAS_clean_linker_0, # of connection points: 2
#     Edge 15, Type (0, 0), BuildingBlock: ZUJKAS_clean_linker_0, # of connection points: 2
#     Edge 16, Type (0, 0), BuildingBlock: ZUJKAS_clean_linker_0, # of connection points: 2
#     Edge 17, Type (0, 0), BuildingBlock: ZUJKAS_clean_linker_0, # of connection points: 2
#     Edge 18, Type (0, 0), BuildingBlock: ZUJKAS_clean_linker_0, # of connection points: 2
#     Edge 19, Type (0, 0), BuildingBlock: ZUJKAS_clean_linker_0, # of connection points: 2
#     Edge 20, Type (0, 0), BuildingBlock: ZUJKAS_clean_linker_0, # of connection points: 2
# Relax obj value: 0.256
# Max RMSD: 0.249
# Mean RMSD: 0.249
data_MOF--net-fns--node1-BEQFEK_clean_sbu_0--edge1-ZUJKAS_clean_linker_0
_symmetry_space_group_name_H-M    P1
_symmetry_Int_Tables_number       1
_symmetry_cell_setting            triclinic
loop_
_symmetry_equiv_pos_as_xyz
'x, y, z'
_cell_length_a     69.962098
_cell_length_b     69.995058
_cell_length_c     22.833636
_cell_angle_alpha  89.986509
_cell_angle_beta   90.003234
_cell_angle_gamma 119.96579
loop_
_atom_site_label
_atom_site_type_symbol
_atom_site_fract_x
_atom_site_fract_y
_atom_site_fract_z
_atom_type_partial_charge
Co0 Co 0.17344 0.62197 0.10846 0.0
Co1 Co 0.17157 0.60221 0.23182 0.0
C2 C 0.1998 0.65125 0.20282 0.0
O3 O 0.19316 0.64977 0.15025 0.0
O4 O 0.19299 0.63423 0.23496 0.0
C5 C 0.17151 0.64484 0.00154 0.0
O6 O 0.17915 0.66334 0.03103 0.0
C7 C 0.16081 0.60263 0.35321 0.0
C8 C 0.16778 0.57818 0.39414 0.0
C9 C 0.16138 0.59359 0.40674 0.0
N10 N 0.16646 0.59298 0.31116 0.0
N11 N 0.17041 0.5782 0.33566 0.0
C12 C 0.15666 0.62135 0.34209 0.0
H13 H 0.16097 0.62749 0.29662 0.0
H14 H 0.13887 0.61558 0.34811 0.0
H15 H 0.16616 0.63497 0.3735 0.0
C16 C 0.12494 0.59636 0.12382 0.0
N17 N 0.14561 0.60518 0.14515 0.0
N18 N 0.14487 0.59634 0.19648 0.0
C19 C 0.1238 0.58145 0.20931 0.0
C20 C 0.11046 0.58094 0.16367 0.0
C21 C 0.1197 0.60004 0.06274 0.0
H22 H 0.12698 0.59338 0.03124 0.0
H23 H 0.12723 0.618 0.05461 0.0
H24 H 0.10167 0.59189 0.055 0.0
O25 O 0.18796 0.60388 0.10232 0.0
O26 O 0.18449 0.58705 0.18752 0.0
H27 H 0.12721 0.55864 0.26492 0.0
H28 H 0.09924 0.5538 0.26035 0.0
C29 C 0.11693 0.56659 0.26174 0.0
H30 H 0.11971 0.57657 0.30177 0.0
H31 H 0.1757 0.56877 0.31282 0.0
O32 O 0.16869 0.6275 0.02702 0.0
C33 C 0.19081 0.59058 0.13429 0.0
Co34 Co 0.54618 0.17352 0.42038 0.0
Co35 Co 0.56333 0.16821 0.54212 0.0
C36 C 0.54332 0.19772 0.52047 0.0
O37 O 0.53821 0.19237 0.46708 0.0
O38 O 0.55319 0.18986 0.55015 0.0
C39 C 0.52023 0.16979 0.31313 0.0
O40 O 0.50336 0.16688 0.34504 0.0
C41 C 0.55229 0.15546 0.66326 0.0
C42 C 0.584 0.16213 0.70162 0.0
C43 C 0.56234 0.15577 0.71592 0.0
N44 N 0.56727 0.16138 0.62019 0.0
N45 N 0.58613 0.16502 0.64316 0.0
C46 C 0.52952 0.15188 0.65431 0.0
H47 H 0.52728 0.156 0.60894 0.0
H48 H 0.51727 0.13426 0.66191 0.0
H49 H 0.52623 0.16193 0.68596 0.0
C50 C 0.52184 0.12444 0.42887 0.0
N51 N 0.53456 0.14468 0.45195 0.0
N52 N 0.54229 0.14266 0.50269 0.0
C53 C 0.53494 0.12121 0.51342 0.0
C54 C 0.52161 0.1089 0.46717 0.0
C55 C 0.51109 0.12021 0.37001 0.0
H56 H 0.50068 0.128 0.36806 0.0
H57 H 0.50057 0.10232 0.36115 0.0
H58 H 0.52397 0.12782 0.33566 0.0
O59 O 0.57879 0.18783 0.41622 0.0
O60 O 0.59164 0.18187 0.49903 0.0
H61 H 0.54119 0.09661 0.55276 0.0
H62 H 0.53407 0.11195 0.60295 0.0
C63 C 0.5433 0.11309 0.56237 0.0
H64 H 0.56104 0.12484 0.57011 0.0
H65 H 0.6007 0.17053 0.61941 0.0
O66 O 0.53764 0.17235 0.33766 0.0
C67 C 0.59474 0.18967 0.44732 0.0
Co68 Co 0.37096 0.54727 0.77394 0.0
Co69 Co 0.39282 0.56666 0.8951 0.0
C70 C 0.34354 0.54606 0.87227 0.0
O71 O 0.34391 0.53975 0.8202 0.0
O72 O 0.36119 0.55662 0.90174 0.0
C73 C 0.35035 0.51923 0.66766 0.0
O74 O 0.33896 0.50145 0.69961 0.0
C75 C 0.39436 0.5568 0.01719 0.0
C76 C 0.41903 0.5888 0.05475 0.0
C77 C 0.40404 0.56712 0.06954 0.0
N78 N 0.40328 0.57157 0.97363 0.0
N79 N 0.41821 0.59065 0.99615 0.0
C80 C 0.37552 0.5338 0.00892 0.0
H81 H 0.36224 0.53028 0.041 0.0
H82 H 0.36893 0.53128 0.96375 0.0
H83 H 0.38134 0.52189 0.01644 0.0
C84 C 0.39784 0.52531 0.78619 0.0
N85 N 0.38865 0.53674 0.80827 0.0
N86 N 0.39803 0.54534 0.85889 0.0
C87 C 0.4134 0.5397 0.87062 0.0
C88 C 0.41377 0.52681 0.82509 0.0
C89 C 0.39417 0.51641 0.72512 0.0
H90 H 0.39638 0.52945 0.6937 0.0
H91 H 0.37702 0.50252 0.72117 0.0
H92 H 0.40568 0.51042 0.7136 0.0
O93 O 0.3897 0.57969 0.76555 0.0
O94 O 0.40703 0.59435 0.84931 0.0
H95 H 0.4366 0.56671 0.92337 0.0
H96 H 0.44218 0.5441 0.91861 0.0
C97 C 0.42904 0.54852 0.92133 0.0
H98 H 0.41976 0.5415 0.96247 0.0
H99 H 0.42714 0.60511 0.97194 0.0
O100 O 0.36321 0.53757 0.69199 0.0
C101 C 0.40326 0.59629 0.79569 0.0
Co102 Co 0.82223 0.37273 0.09278 0.0
Co103 Co 0.82458 0.39469 0.21298 0.0
C104 C 0.79389 0.34558 0.18657 0.0
O105 O 0.80139 0.34558 0.13577 0.0
O106 O 0.80124 0.36329 0.2161 0.0
C107 C 0.82167 0.34902 0.98418 0.0
O108 O 0.81042 0.32992 0.01084 0.0
C109 C 0.83479 0.39438 0.33479 0.0
C110 C 0.82881 0.41969 0.37439 0.0
C111 C 0.83453 0.40384 0.38797 0.0
N112 N 0.82956 0.40418 0.29218 0.0
N113 N 0.82621 0.41947 0.31586 0.0
C114 C 0.83808 0.37508 0.3244 0.0
H115 H 0.82882 0.36197 0.3573 0.0
H116 H 0.83282 0.36835 0.27973 0.0
H117 H 0.85586 0.38049 0.32843 0.0
C118 C 0.8705 0.39512 0.1118 0.0
N119 N 0.84986 0.38841 0.13064 0.0
N120 N 0.85088 0.39827 0.18043 0.0
C121 C 0.87215 0.4118 0.19468 0.0
C122 C 0.88533 0.41018 0.15176 0.0
C123 C 0.87584 0.38846 0.05459 0.0
H124 H 0.86515 0.37042 0.04833 0.0
H125 H 0.89341 0.39281 0.05269 0.0
H126 H 0.87245 0.39696 0.01846 0.0
O127 O 0.80917 0.3922 0.08374 0.0
O128 O 0.8138 0.41101 0.166 0.0
H129 H 0.86765 0.4345 0.24821 0.0
H130 H 0.89614 0.44281 0.23421 0.0
C131 C 0.87953 0.42851 0.24293 0.0
H132 H 0.88017 0.42066 0.28454 0.0
H133 H 0.82141 0.42918 0.29242 0.0
O134 O 0.82722 0.36676 0.01186 0.0
C135 C 0.80735 0.40673 0.11301 0.0
Co136 Co 0.44968 0.82185 0.42809 0.0
Co137 Co 0.43367 0.82566 0.55296 0.0
C138 C 0.45341 0.79676 0.52752 0.0
O139 O 0.45711 0.80225 0.4738 0.0
O140 O 0.44444 0.80459 0.56076 0.0
C141 C 0.47856 0.83094 0.32512 0.0
O142 O 0.49591 0.84021 0.35951 0.0
C143 C 0.44327 0.83592 0.67535 0.0
C144 C 0.41495 0.83837 0.70872 0.0
C145 C 0.43464 0.83972 0.72554 0.0
N146 N 0.42936 0.83231 0.63085 0.0
N147 N 0.41241 0.83378 0.6509 0.0
C148 C 0.46538 0.8377 0.6684 0.0
H149 H 0.471 0.84139 0.62223 0.0
H150 H 0.47769 0.85076 0.69751 0.0
H151 H 0.46416 0.82185 0.68096 0.0
C152 C 0.47131 0.87079 0.43641 0.0
N153 N 0.46093 0.85047 0.46065 0.0
N154 N 0.45435 0.85185 0.51372 0.0
C155 C 0.46078 0.87307 0.52543 0.0
C156 C 0.47166 0.88573 0.47687 0.0
C157 C 0.47682 0.87524 0.37267 0.0
H158 H 0.46389 0.8618 0.34588 0.0
H159 H 0.49284 0.87611 0.36429 0.0
H160 H 0.4783 0.89111 0.35885 0.0
O161 O 0.41743 0.80859 0.42234 0.0
O162 O 0.40507 0.81131 0.50987 0.0
H163 H 0.43663 0.87279 0.58346 0.0
H164 H 0.46213 0.89897 0.58069 0.0
C165 C 0.45484 0.8808 0.57999 0.0
H166 H 0.46105 0.87601 0.61861 0.0
H167 H 0.39914 0.83164 0.62521 0.0
O168 O 0.45932 0.82298 0.34658 0.0
C169 C 0.4017 0.80559 0.45614 0.0
Co170 Co 0.62324 0.44794 0.76545 0.0
Co171 Co 0.60228 0.42793 0.88613 0.0
C172 C 0.65154 0.44854 0.85926 0.0
O173 O 0.65083 0.45534 0.80802 0.0
O174 O 0.63409 0.4378 0.88958 0.0
C175 C 0.64607 0.47255 0.65715 0.0
O176 O 0.66528 0.48254 0.68374 0.0
C177 C 0.60317 0.43645 0.0091 0.0
C178 C 0.57271 0.40801 0.04362 0.0
C179 C 0.59114 0.42769 0.05997 0.0
N180 N 0.59222 0.42279 0.96469 0.0
N181 N 0.57399 0.40582 0.98531 0.0
C182 C 0.62572 0.45625 0.00237 0.0
H183 H 0.63802 0.45066 0.00108 0.0
H184 H 0.62675 0.46468 0.96033 0.0
H185 H 0.63029 0.46812 0.03881 0.0
C186 C 0.59861 0.47161 0.78418 0.0
N187 N 0.60656 0.45873 0.80335 0.0
N188 N 0.59715 0.44973 0.85348 0.0
C189 C 0.58278 0.45646 0.86776 0.0
C190 C 0.58316 0.47048 0.82426 0.0
C191 C 0.60321 0.48196 0.7247 0.0
H192 H 0.59601 0.46879 0.69103 0.0
H193 H 0.6213 0.49161 0.71752 0.0
H194 H 0.5961 0.4929 0.7193 0.0
O195 O 0.60475 0.41544 0.75584 0.0
O196 O 0.58738 0.40066 0.83937 0.0
H197 H 0.55808 0.42995 0.91876 0.0
H198 H 0.55641 0.45497 0.92134 0.0
C199 C 0.56776 0.44823 0.91979 0.0
H200 H 0.57781 0.45328 0.96031 0.0
H201 H 0.56255 0.39272 0.95973 0.0
O202 O 0.6289 0.45894 0.68492 0.0
C203 C 0.59116 0.39875 0.78575 0.0
H204 H 0.21993 0.60495 0.04425 0.0
H205 H 0.2379 0.58658 -0.00074 0.0
H206 H 0.20364 0.53158 0.11751 0.0
H207 H 0.18637 0.55064 0.16512 0.0
H208 H 0.24332 0.54023 0.1096 0.0
H209 H 0.21659 0.53876 0.88317 0.0
H210 H 0.22948 0.56672 0.90787 0.0
H211 H 0.20467 0.54591 0.94342 0.0
C212 C 0.2161 0.58888 0.06053 0.0
C213 C 0.20166 0.57917 0.10801 0.0
C214 C 0.22618 0.57823 0.0342 0.0
C215 C 0.22155 0.55728 0.05339 0.0
C216 C 0.20725 0.54758 0.10129 0.0
H217 H 0.30067 0.51852 0.83555 0.0
H218 H 0.2668 0.51386 0.88153 0.0
C219 C 0.19747 0.55851 0.12862 0.0
C220 C 0.2332 0.54666 0.02612 0.0
H221 H 0.25291 0.54131 0.89417 0.0
C222 C 0.24494 0.53993 0.06242 0.0
C223 C 0.23474 0.54526 0.96454 0.0
C224 C 0.22042 0.5493 0.92274 0.0
C225 C 0.25986 0.53412 0.03893 0.0
C226 C 0.26387 0.53606 0.9778 0.0
C227 C 0.25042 0.54046 0.94119 0.0
C228 C 0.28377 0.5368 0.95229 0.0
C229 C 0.27162 0.5266 0.08028 0.0
C230 C 0.30452 0.55136 0.9762 0.0
C231 C 0.32366 0.5538 0.95073 0.0
C232 C 0.32269 0.54218 0.89952 0.0
C233 C 0.30195 0.52767 0.87502 0.0
C234 C 0.28261 0.52497 0.90131 0.0
H235 H 0.26056 0.51681 0.11682 0.0
H236 H 0.27748 0.51643 0.05767 0.0
H237 H 0.28599 0.54123 0.09991 0.0
H238 H 0.30604 0.56143 0.01386 0.0
H239 H 0.33932 0.56535 0.97052 0.0
H240 H 0.63051 0.18527 0.47583 0.0
H241 H 0.66725 0.20438 0.43046 0.0
H242 H 0.64615 0.24001 0.31825 0.0
H243 H 0.60946 0.22034 0.36104 0.0
H244 H 0.66914 0.22648 0.25777 0.0
H245 H 0.71455 0.2661 0.46319 0.0
H246 H 0.69969 0.23651 0.46331 0.0
H247 H 0.68486 0.25133 0.45971 0.0
C248 C 0.63382 0.19723 0.44154 0.0
C249 C 0.61717 0.20139 0.42211 0.0
C250 C 0.65481 0.20818 0.4158 0.0
C251 C 0.65958 0.22386 0.37141 0.0
C252 C 0.64289 0.22792 0.35216 0.0
H253 H 0.76666 0.34251 0.2748 0.0
H254 H 0.73635 0.30955 0.3173 0.0
C255 C 0.62191 0.21672 0.37688 0.0
C256 C 0.68189 0.23666 0.34498 0.0
H257 H 0.73473 0.27641 0.37605 0.0
C258 C 0.68359 0.23725 0.28359 0.0
C259 C 0.70075 0.25055 0.37885 0.0
C260 C 0.69996 0.2513 0.44485 0.0
C261 C 0.70303 0.2526 0.25499 0.0
C262 C 0.72158 0.26718 0.28887 0.0
C263 C 0.72045 0.26526 0.35021 0.0
C264 C 0.74084 0.28677 0.26281 0.0
C265 C 0.70288 0.25412 0.18904 0.0
C266 C 0.75363 0.28505 0.21779 0.0
C267 C 0.77087 0.30411 0.19219 0.0
C268 C 0.77585 0.3251 0.2123 0.0
C269 C 0.76335 0.32663 0.25831 0.0
C270 C 0.74601 0.30774 0.28292 0.0
H271 H 0.68596 0.2445 0.17065 0.0
H272 H 0.71006 0.27154 0.17478 0.0
H273 H 0.71298 0.24749 0.17012 0.0
H274 H 0.75027 0.26905 0.2024 0.0
H275 H 0.7804 0.30244 0.15723 0.0
H276 H 0.45549 0.7873 0.64222 0.0
H277 H 0.45547 0.75504 0.68196 0.0
H278 H 0.45937 0.73388 0.50727 0.0
H279 H 0.45969 0.76651 0.46676 0.0
H280 H 0.4216 0.70399 0.57748 0.0
H281 H 0.50036 0.73262 0.69696 0.0
H282 H 0.48711 0.74858 0.70996 0.0
H283 H 0.49737 0.74821 0.63809 0.0
C284 C 0.45702 0.7762 0.61217 0.0
C285 C 0.45751 0.77946 0.55127 0.0
C286 C 0.45713 0.7578 0.63507 0.0
C287 C 0.45763 0.74222 0.59759 0.0
C288 C 0.45922 0.7459 0.53688 0.0
H289 H 0.41198 0.60445 0.67968 0.0
H290 H 0.42796 0.6399 0.62947 0.0
C291 C 0.4594 0.76453 0.51386 0.0
C292 C 0.45292 0.72069 0.62162 0.0
H293 H 0.47078 0.69664 0.7211 0.0
C294 C 0.4325 0.70223 0.60807 0.0
C295 C 0.46703 0.71868 0.6623 0.0
C296 C 0.48929 0.73803 0.67748 0.0
C297 C 0.42535 0.68193 0.63587 0.0
C298 C 0.43938 0.67987 0.67697 0.0
C299 C 0.46007 0.69825 0.68955 0.0
C300 C 0.43245 0.65886 0.70828 0.0
C301 C 0.40236 0.66324 0.62297 0.0
C302 C 0.43091 0.65791 0.7697 0.0
C303 C 0.42216 0.63764 0.79878 0.0
C304 C 0.41464 0.61805 0.76669 0.0
C305 C 0.41721 0.61923 0.70549 0.0
C306 C 0.42629 0.63946 0.67668 0.0
H307 H 0.39176 0.66928 0.60382 0.0
H308 H 0.40334 0.65189 0.59077 0.0
H309 H 0.39426 0.65372 0.66324 0.0
H310 H 0.43574 0.67274 0.79495 0.0
H311 H 0.42047 0.63721 0.84599 0.0
H312 H 0.65663 0.42776 0.95307 0.0
H313 H 0.69046 0.43198 0.9937 0.0
H314 H 0.72839 0.48198 0.86517 0.0
H315 H 0.69403 0.47716 0.82212 0.0
H316 H 0.74338 0.45485 0.8733 0.0
H317 H 0.73529 0.47688 0.09869 0.0
H318 H 0.71029 0.4522 0.08039 0.0
H319 H 0.7181 0.47731 0.04034 0.0
C320 C 0.67212 0.4399 0.93361 0.0
C321 C 0.67261 0.45224 0.88447 0.0
C322 C 0.69155 0.44247 0.95746 0.0
C323 C 0.71208 0.45783 0.93386 0.0
C324 C 0.71274 0.47025 0.88469 0.0
H325 H 0.81176 0.44679 0.14211 0.0
H326 H 0.79421 0.46546 0.09414 0.0
C327 C 0.69313 0.46746 0.86008 0.0
C328 C 0.73238 0.45907 0.95804 0.0
H329 H 0.75412 0.4552 0.08809 0.0
C330 C 0.74611 0.45553 0.9202 0.0
C331 C 0.73663 0.46078 0.01901 0.0
C332 C 0.72441 0.46729 0.06166 0.0
C333 C 0.76243 0.45139 0.94215 0.0
C334 C 0.7644 0.44984 0.00351 0.0
C335 C 0.75226 0.45568 0.04105 0.0
C336 C 0.77688 0.43985 0.02944 0.0
C337 C 0.77698 0.44822 0.89914 0.0
C338 C 0.77287 0.41919 0.00957 0.0
C339 C 0.78313 0.40874 0.03615 0.0
C340 C 0.79714 0.41839 0.08446 0.0
C341 C 0.801 0.43895 0.105 0.0
C342 C 0.79104 0.44965 0.0775 0.0
H343 H 0.78028 0.45889 0.86006 0.0
H344 H 0.793 0.45205 0.919 0.0
H345 H 0.76837 0.43087 0.88368 0.0
H346 H 0.76131 0.41076 0.97438 0.0
H347 H 0.77957 0.39277 0.01979 0.0
H348 H 0.3622 0.78066 0.51282 0.0
H349 H 0.32564 0.75937 0.46715 0.0
H350 H 0.3541 0.78635 0.29847 0.0
H351 H 0.39054 0.80692 0.34317 0.0
H352 H 0.2986 0.76913 0.39791 0.0
H353 H 0.32797 0.72069 0.27292 0.0
H354 H 0.3437 0.73897 0.33179 0.0
H355 H 0.34403 0.74982 0.26011 0.0
C356 C 0.36056 0.78219 0.46613 0.0
C357 C 0.37923 0.79506 0.43133 0.0
C358 C 0.33971 0.77007 0.44013 0.0
C359 C 0.33731 0.77089 0.37922 0.0
C360 C 0.35571 0.78501 0.34527 0.0
H361 H 0.22943 0.68822 0.14271 0.0
H362 H 0.26159 0.72083 0.18376 0.0
C363 C 0.3765 0.79677 0.37092 0.0
C364 C 0.316 0.75591 0.3504 0.0
H365 H 0.29228 0.71414 0.25063 0.0
C366 C 0.29718 0.75713 0.36563 0.0
C367 C 0.31421 0.74021 0.30841 0.0
C368 C 0.33348 0.73714 0.29269 0.0
C369 C 0.27661 0.74305 0.33972 0.0
C370 C 0.27491 0.7274 0.29786 0.0
C371 C 0.29376 0.72642 0.28211 0.0
C372 C 0.25349 0.71029 0.27389 0.0
C373 C 0.25685 0.74495 0.35728 0.0
C374 C 0.23816 0.69387 0.31112 0.0
C375 C 0.21999 0.67522 0.28788 0.0
C376 C 0.21681 0.67266 0.22691 0.0
C377 C 0.23143 0.68977 0.18982 0.0
C378 C 0.24978 0.70838 0.21317 0.0
H379 H 0.26184 0.76127 0.37718 0.0
H380 H 0.24606 0.74243 0.31898 0.0
H381 H 0.24707 0.73204 0.39018 0.0
H382 H 0.24093 0.69484 0.35798 0.0
H383 H 0.20892 0.66237 0.31764 0.0
H384 H 0.54442 0.20637 0.63686 0.0
H385 H 0.54513 0.23818 0.68243 0.0
H386 H 0.53481 0.25945 0.51407 0.0
H387 H 0.53403 0.22745 0.46762 0.0
H388 H 0.57887 0.28118 0.64252 0.0
H389 H 0.49431 0.26986 0.63223 0.0
H390 H 0.49934 0.24692 0.63069 0.0
H391 H 0.50474 0.26381 0.56691 0.0
C392 C 0.54184 0.21753 0.60949 0.0
C393 C 0.53949 0.21457 0.54843 0.0
C394 C 0.54216 0.23564 0.63574 0.0
C395 C 0.53999 0.25108 0.60162 0.0
C396 C 0.53622 0.24751 0.54118 0.0
H397 H 0.59428 0.38925 0.67143 0.0
H398 H 0.57938 0.35294 0.62654 0.0
C399 C 0.53586 0.22928 0.51472 0.0
C400 C 0.54501 0.27234 0.62814 0.0
H401 H 0.523 0.30458 0.66568 0.0
C402 C 0.56664 0.28626 0.64777 0.0
C403 C 0.52898 0.27881 0.63484 0.0
C404 C 0.50546 0.26408 0.61548 0.0
C405 C 0.57275 0.30664 0.6736 0.0
C406 C 0.55683 0.31328 0.67972 0.0
C407 C 0.53511 0.29933 0.66066 0.0
C408 C 0.56296 0.33497 0.70503 0.0
C409 C 0.59621 0.32103 0.69419 0.0
C410 C 0.55822 0.33675 0.76376 0.0
C411 C 0.56682 0.35752 0.78989 0.0
C412 C 0.58029 0.37677 0.7575 0.0
C413 C 0.58414 0.3748 0.69787 0.0
C414 C 0.57556 0.35409 0.67195 0.0
H415 H 0.60568 0.31216 0.6938 0.0
H416 H 0.60469 0.33562 0.66504 0.0
H417 H 0.59646 0.32711 0.73926 0.0
H418 H 0.54859 0.32207 0.7899 0.0
H419 H 0.56346 0.35846 0.83578 0.0
H420 H 0.17938 0.67877 0.92622 0.0
H421 H 0.17294 0.67607 0.81991 0.0
H422 H 0.14642 0.6057 0.82899 0.0
H423 H 0.15226 0.60811 0.93383 0.0
H424 H 0.1917 0.66212 0.74058 0.0
H425 H 0.10167 0.60858 0.72528 0.0
H426 H 0.1151 0.62252 0.79234 0.0
H427 H 0.11257 0.59628 0.77388 0.0
C428 C 0.17182 0.66271 0.90552 0.0
C429 C 0.16641 0.64368 0.93842 0.0
C430 C 0.16813 0.66119 0.84493 0.0
C431 C 0.15877 0.64062 0.81677 0.0
C432 C 0.15302 0.62165 0.84991 0.0
H433 H 0.1854 0.59676 0.50332 0.0
H434 H 0.184 0.61132 0.59943 0.0
C435 C 0.15665 0.62313 0.90998 0.0
C436 C 0.15712 0.63874 0.75222 0.0
H437 H 0.12306 0.60508 0.64498 0.0
C438 C 0.17656 0.65008 0.71929 0.0
C439 C 0.13729 0.62342 0.72407 0.0
C440 C 0.11546 0.61223 0.75579 0.0
C441 C 0.17711 0.64502 0.66013 0.0
C442 C 0.15787 0.62777 0.634 0.0
C443 C 0.13798 0.61789 0.66544 0.0
C444 C 0.15838 0.61869 0.57584 0.0
C445 C 0.19845 0.65785 0.62676 0.0
C446 C 0.14354 0.61676 0.53182 0.0
C447 C 0.14394 0.60792 0.47732 0.0
C448 C 0.15936 0.60109 0.46574 0.0
C449 C 0.17354 0.60216 0.51071 0.0
C450 C 0.17299 0.61081 0.56533 0.0
H451 H 0.20848 0.6748 0.64463 0.0
H452 H 0.2083 0.64948 0.63131 0.0
H453 H 0.19544 0.659 0.57949 0.0
H454 H 0.13172 0.6222 0.5395 0.0
H455 H 0.13207 0.60632 0.44463 0.0
H456 H 0.5209 0.12706 0.75887 0.0
H457 H 0.5062 0.12812 0.85542 0.0
H458 H 0.57 0.1817 0.90591 0.0
H459 H 0.58455 0.18129 0.80897 0.0
H460 H 0.51946 0.12306 0.9664 0.0
H461 H 0.52895 0.20602 0.94271 0.0
H462 H 0.53017 0.19051 0.88101 0.0
H463 H 0.55405 0.20601 0.92663 0.0
C464 C 0.53167 0.13933 0.79012 0.0
C465 C 0.5537 0.15455 0.77575 0.0
C466 C 0.5233 0.13978 0.84542 0.0
C467 C 0.53684 0.15543 0.88708 0.0
C468 C 0.5591 0.16993 0.87372 0.0
H469 H 0.55457 0.18593 0.23741 0.0
H470 H 0.55337 0.18129 0.13152 0.0
C471 C 0.56745 0.16949 0.81858 0.0
C472 C 0.52812 0.15642 0.94534 0.0
H473 H 0.5262 0.19267 0.04176 0.0
C474 C 0.52038 0.13807 0.98254 0.0
C475 C 0.5291 0.17596 0.96595 0.0
C476 C 0.53579 0.19566 0.92674 0.0
C477 C 0.51526 0.13937 0.04132 0.0
C478 C 0.5179 0.15945 0.06293 0.0
C479 C 0.52424 0.17731 0.02483 0.0
C480 C 0.51776 0.1633 0.12637 0.0
C481 C 0.5085 0.11982 0.08113 0.0
C482 C 0.49803 0.15503 0.15815 0.0
C483 C 0.49863 0.15779 0.21908 0.0
C484 C 0.51899 0.16863 0.2486 0.0
C485 C 0.53863 0.17736 0.21603 0.0
C486 C 0.538 0.17479 0.15553 0.0
H487 H 0.50703 0.1053 0.05738 0.0
H488 H 0.52082 0.12432 0.11678 0.0
H489 H 0.49239 0.11513 0.10183 0.0
H490 H 0.48227 0.14614 0.13603 0.0
H491 H 0.48326 0.15084 0.24316 0.0
H492 H 0.33864 0.4833 0.59657 0.0
H493 H 0.34253 0.48364 0.48928 0.0
H494 H 0.3653 0.55336 0.4869 0.0
H495 H 0.36157 0.55322 0.59293 0.0
H496 H 0.33192 0.52535 0.39675 0.0
H497 H 0.40645 0.51598 0.41087 0.0
H498 H 0.38186 0.49703 0.45031 0.0
H499 H 0.39722 0.52532 0.4727 0.0
C500 C 0.34415 0.49859 0.57291 0.0
C501 C 0.34996 0.51826 0.60307 0.0
C502 C 0.34646 0.49877 0.51186 0.0
C503 C 0.35438 0.51858 0.48055 0.0
C504 C 0.35921 0.53795 0.51041 0.0
H505 H 0.39928 0.58822 0.16318 0.0
H506 H 0.38538 0.5731 0.26059 0.0
C507 C 0.35713 0.53783 0.57102 0.0
C508 C 0.35887 0.5199 0.41706 0.0
H509 H 0.39847 0.52581 0.31966 0.0
C510 C 0.34621 0.52502 0.37951 0.0
C511 C 0.3775 0.51943 0.39495 0.0
C512 C 0.39169 0.51422 0.43402 0.0
C513 C 0.35225 0.53064 0.32078 0.0
C514 C 0.37173 0.53162 0.29966 0.0
C515 C 0.38366 0.52522 0.33626 0.0
C516 C 0.38081 0.5408 0.24121 0.0
C517 C 0.338 0.53593 0.2822 0.0
C518 C 0.3838 0.52797 0.19904 0.0
C519 C 0.39195 0.53667 0.14352 0.0
C520 C 0.39724 0.55832 0.12947 0.0
C521 C 0.39516 0.57143 0.17268 0.0
C522 C 0.38699 0.56273 0.22805 0.0
H523 H 0.32077 0.52802 0.29871 0.0
H524 H 0.34472 0.55403 0.28192 0.0
H525 H 0.33777 0.53045 0.23644 0.0
H526 H 0.37956 0.51116 0.20882 0.0
H527 H 0.39417 0.52646 0.11184 0.0
H528 H 0.80945 0.31519 0.90491 0.0
H529 H 0.81569 0.31871 0.7986 0.0
H530 H 0.85096 0.38958 0.81531 0.0
H531 H 0.8455 0.38629 0.92028 0.0
H532 H 0.80043 0.33665 0.72386 0.0
H533 H 0.89085 0.3822 0.70507 0.0
H534 H 0.87705 0.36888 0.77234 0.0
H535 H 0.88266 0.3964 0.75537 0.0
C536 C 0.81893 0.33148 0.8859 0.0
C537 C 0.82689 0.35044 0.92103 0.0
C538 C 0.82248 0.33347 0.82525 0.0
C539 C 0.83416 0.35441 0.79909 0.0
C540 C 0.84251 0.37325 0.83448 0.0
H541 H 0.81209 0.40373 0.48516 0.0
H542 H 0.81257 0.38921 0.58202 0.0
C543 C 0.83911 0.3713 0.89469 0.0
C544 C 0.83561 0.35708 0.7346 0.0
H545 H 0.87094 0.38912 0.62706 0.0
C546 C 0.81592 0.3477 0.70234 0.0
C547 C 0.85583 0.37108 0.706 0.0
C548 C 0.87778 0.37997 0.73655 0.0
C549 C 0.81572 0.35335 0.64352 0.0
C550 C 0.83565 0.36936 0.61702 0.0
C551 C 0.85556 0.37732 0.64781 0.0
C552 C 0.83602 0.37884 0.5587 0.0
C553 C 0.79408 0.34236 0.61083 0.0
C554 C 0.85012 0.37918 0.51452 0.0
C555 C 0.85032 0.38805 0.45957 0.0
C556 C 0.8362 0.39645 0.44755 0.0
C557 C 0.8229 0.39706 0.49274 0.0
C558 C 0.82291 0.38845 0.54787 0.0
H559 H 0.7828 0.32565 0.62868 0.0
H560 H 0.78584 0.3523 0.61609 0.0
H561 H 0.79655 0.34084 0.56339 0.0
H562 H 0.86082 0.37239 0.52236 0.0
H563 H 0.86161 0.38835 0.42682 0.0
H564 H 0.51088 0.86488 0.26157 0.0
H565 H 0.50922 0.8719 0.15665 0.0
H566 H 0.44942 0.80905 0.14038 0.0
H567 H 0.45068 0.80227 0.24477 0.0
H568 H 0.50629 0.84977 0.05056 0.0
H569 H 0.43046 0.85358 0.09324 0.0
H570 H 0.44819 0.85401 0.15127 0.0
H571 H 0.42805 0.82825 0.11892 0.0
C572 C 0.49773 0.85238 0.23512 0.0
C573 C 0.48078 0.83314 0.26107 0.0
C574 C 0.49673 0.85644 0.17544 0.0
C575 C 0.47885 0.84125 0.14139 0.0
C576 C 0.46302 0.82123 0.16637 0.0
H577 H 0.45091 0.81652 0.78082 0.0
H578 H 0.465 0.82138 0.88049 0.0
C579 C 0.46384 0.81731 0.22582 0.0
C580 C 0.47567 0.84657 0.08079 0.0
H581 H 0.43712 0.84824 0.99308 0.0
C582 C 0.49134 0.84978 0.03793 0.0
C583 C 0.4565 0.84729 0.06479 0.0
C584 C 0.43997 0.84585 0.10962 0.0
C585 C 0.48759 0.85218 0.97866 0.0
C586 C 0.46739 0.85074 0.96205 0.0
C587 C 0.45245 0.84902 0.00555 0.0
C588 C 0.46051 0.84917 0.90001 0.0
C589 C 0.50521 0.85603 0.93456 0.0
C590 C 0.45249 0.86263 0.87828 0.0
C591 C 0.44402 0.85959 0.8214 0.0
C592 C 0.44371 0.84323 0.78531 0.0
C593 C 0.45167 0.82976 0.80709 0.0
C594 C 0.45984 0.8326 0.86401 0.0
H595 H 0.52188 0.8649 0.95477 0.0
H596 H 0.50253 0.8399 0.91866 0.0
H597 H 0.50488 0.86571 0.89643 0.0
H598 H 0.45254 0.87532 0.90557 0.0
H599 H 0.43783 0.87006 0.80553 0.0
H600 H 0.5901 0.40505 0.15732 0.0
H601 H 0.60275 0.41985 0.2558 0.0
H602 H 0.61915 0.48471 0.19515 0.0
H603 H 0.60483 0.46956 0.09809 0.0
H604 H 0.64339 0.44989 0.28862 0.0
H605 H 0.58595 0.48066 0.34063 0.0
H606 H 0.582 0.46327 0.2783 0.0
H607 H 0.60182 0.49228 0.27533 0.0
C608 C 0.59608 0.42238 0.16545 0.0
C609 C 0.59718 0.43635 0.11997 0.0
C610 C 0.60346 0.43086 0.22143 0.0
C611 C 0.61198 0.45342 0.23279 0.0
C612 C 0.61247 0.46725 0.18765 0.0
H613 H 0.67889 0.49659 0.57673 0.0
H614 H 0.67436 0.49787 0.47026 0.0
C615 C 0.60471 0.45867 0.13195 0.0
C616 C 0.6208 0.46233 0.29163 0.0
H617 H 0.6136 0.48775 0.41007 0.0
C618 C 0.63699 0.45829 0.31517 0.0
C619 C 0.61251 0.47343 0.32583 0.0
C620 C 0.59448 0.47752 0.30403 0.0
C621 C 0.64422 0.46389 0.37314 0.0
C622 C 0.63554 0.47453 0.40781 0.0
C623 C 0.62034 0.47975 0.38312 0.0
C624 C 0.63885 0.4767 0.47197 0.0
C625 C 0.65995 0.45707 0.39776 0.0
C626 C 0.62036 0.46531 0.50813 0.0
C627 C 0.62284 0.4648 0.56832 0.0
C628 C 0.64393 0.47558 0.59395 0.0
C629 C 0.66246 0.48795 0.55814 0.0
C630 C 0.65991 0.48858 0.4974 0.0
H631 H 0.66206 0.44569 0.36801 0.0
H632 H 0.67637 0.47193 0.40437 0.0
H633 H 0.65402 0.44879 0.4408 0.0
H634 H 0.60395 0.45605 0.48954 0.0
H635 H 0.60814 0.45531 0.59451 0.0
H636 H 0.91812 0.41817 0.2284 0.0
H637 H 0.95699 0.44713 0.22144 0.0
H638 H 0.94455 0.46576 0.05163 0.0
H639 H 0.90579 0.43667 0.05828 0.0
H640 H 0.98458 0.46626 0.05745 0.0
H641 H 0.97478 0.51199 0.24249 0.0
H642 H 0.96731 0.48416 0.26066 0.0
H643 H 0.95158 0.4892 0.20679 0.0
C644 C 0.92387 0.42825 0.18929 0.0
C645 C 0.90916 0.42528 0.14384 0.0
C646 C 0.94593 0.44483 0.18549 0.0
C647 C 0.95346 0.45882 0.13653 0.0
C648 C 0.939 0.45516 0.08983 0.0
H649 H 0.07503 0.58649 0.14688 0.0
H650 H 0.03642 0.55744 0.13248 0.0
C651 C 0.91695 0.43851 0.09351 0.0
C652 C 0.97615 0.47786 0.13518 0.0
H653 H 0.01143 0.52474 0.20926 0.0
C654 C 0.99046 0.47913 0.0904 0.0
C655 C 0.98355 0.49488 0.17742 0.0
C656 C 0.96845 0.49518 0.22422 0.0
C657 C 0.01231 0.49662 0.08798 0.0
C658 C 0.02005 0.51297 0.13215 0.0
C659 C 0.00549 0.51208 0.17572 0.0
C660 C 0.04341 0.5306 0.13582 0.0
C661 C 0.02683 0.49747 0.03803 0.0
C662 C 0.06001 0.52508 0.1424 0.0
C663 C 0.08189 0.54157 0.15028 0.0
C664 C 0.08744 0.56378 0.15267 0.0
C665 C 0.07097 0.5694 0.14528 0.0
C666 C 0.04904 0.55288 0.13712 0.0
H667 H 0.01688 0.48828 -0.00076 0.0
H668 H 0.03852 0.51473 0.02482 0.0
H669 H 0.03653 0.48966 0.05202 0.0
H670 H 0.05598 0.508 0.14288 0.0
H671 H 0.09446 0.53697 0.15544 0.0
H672 H 0.49559 0.0748 0.53875 0.0
H673 H 0.48668 0.0363 0.52892 0.0
H674 H 0.52076 0.05166 0.36315 0.0
H675 H 0.52986 0.09022 0.37313 0.0
H676 H 0.47811 0.00946 0.36998 0.0
H677 H 0.53803 0.02179 0.54623 0.0
H678 H 0.51815 0.02996 0.56459 0.0
H679 H 0.53813 0.04447 0.5082 0.0
C680 C 0.5008 0.06979 0.49981 0.0
C681 C 0.5133 0.08528 0.4566 0.0
C682 C 0.4958 0.04793 0.49433 0.0
C683 C 0.50332 0.04133 0.44566 0.0
C684 C 0.51485 0.05653 0.40098 0.0
H685 H 0.51124 0.92055 0.44502 0.0
H686 H 0.51999 0.95886 0.42898 0.0
C687 C 0.5199 0.07843 0.40654 0.0
C688 C 0.50031 0.01895 0.44339 0.0
H689 H 0.51477 0.98505 0.51371 0.0
C690 C 0.4862 0.0041 0.40105 0.0
C691 C 0.51128 0.01226 0.48335 0.0
C692 C 0.52741 0.02797 0.52791 0.0
C693 C 0.48206 0.98232 0.39919 0.0
C694 C 0.49219 0.97534 0.44105 0.0
C695 C 0.50697 0.99046 0.48187 0.0
C696 C 0.48673 0.95211 0.44577 0.0
C697 C 0.46684 0.96694 0.35269 0.0
C698 C 0.46521 0.93581 0.46055 0.0
C699 C 0.4603 0.91415 0.46989 0.0
C700 C 0.47688 0.90853 0.46516 0.0
C701 C 0.49831 0.92468 0.44921 0.0
C702 C 0.50326 0.94643 0.44 0.0
H703 H 0.46557 0.97617 0.31471 0.0
H704 H 0.47257 0.95564 0.3369 0.0
H705 H 0.45008 0.9568 0.37148 0.0
H706 H 0.45233 0.93995 0.46623 0.0
H707 H 0.44358 0.9018 0.48143 0.0
H708 H 0.40966 0.48617 0.8164 0.0
H709 H 0.43972 0.47777 0.80576 0.0
H710 H 0.48694 0.54736 0.79546 0.0
H711 H 0.45701 0.5557 0.80659 0.0
H712 H 0.47371 0.49041 0.71717 0.0
H713 H 0.50732 0.52506 0.9371 0.0
H714 H 0.48001 0.51844 0.91407 0.0
H715 H 0.50372 0.54322 0.88854 0.0
C716 C 0.42647 0.49955 0.81136 0.0
C717 C 0.43128 0.52152 0.81326 0.0
C718 C 0.44355 0.49479 0.80523 0.0
C719 C 0.46552 0.51199 0.80092 0.0
C720 C 0.47013 0.53391 0.79986 0.0
H721 H 0.59035 0.51233 0.81452 0.0
H722 H 0.56235 0.52351 0.80215 0.0
C723 C 0.4531 0.53865 0.80608 0.0
C724 C 0.48374 0.5071 0.80021 0.0
H725 H 0.52771 0.51336 0.88012 0.0
C726 C 0.48555 0.49542 0.75268 0.0
C727 C 0.49913 0.51374 0.84665 0.0
C728 C 0.49744 0.52565 0.89978 0.0
C729 C 0.50252 0.49027 0.75025 0.0
C730 C 0.51774 0.49668 0.79707 0.0
C731 C 0.51607 0.5086 0.84418 0.0
C732 C 0.53476 0.49009 0.79996 0.0
C733 C 0.50412 0.47818 0.69747 0.0
C734 C 0.52843 0.46769 0.80301 0.0
C735 C 0.54429 0.46138 0.81008 0.0
C736 C 0.56669 0.47739 0.81476 0.0
C737 C 0.57311 0.49979 0.81099 0.0
C738 C 0.5572 0.50613 0.80394 0.0
H739 H 0.49559 0.48018 0.6589 0.0
H740 H 0.5216 0.48409 0.68572 0.0
H741 H 0.49612 0.46032 0.70763 0.0
H742 H 0.51117 0.45509 0.80127 0.0
H743 H 0.53908 0.44399 0.8126 0.0
loop_
_geom_bond_atom_site_label_1
_geom_bond_atom_site_label_2
_geom_bond_distance
_geom_bond_site_symmetry_2
_ccdc_geom_bond_type
Co0 O3 1.970 . S
Co0 N17 1.989 . S
Co0 O25 1.967 . S
Co0 O32 1.920 . S
Co1 O4 1.966 . S
Co1 N10 2.022 . S
Co1 N18 1.993 . S
Co1 O26 1.941 . S
C2 O3 1.258 . S
C2 O4 1.263 . S
O3 Co0 1.970 . S
O3 C2 1.258 . S
O4 Co1 1.966 . S
O4 C2 1.263 . S
C5 O6 1.235 1_556 S
C5 O32 1.289 1_556 S
O6 C5 1.235 1_554 S
C7 C9 1.400 . S
C7 N10 1.351 . S
C7 C12 1.501 . S
C8 C9 1.387 . S
C8 N11 1.341 . S
C9 C7 1.400 . S
C9 C8 1.387 . S
N10 Co1 2.022 . S
N10 C7 1.351 . S
N10 N11 1.365 . S
N11 C8 1.341 . S
N11 N10 1.365 . S
N11 H31 0.862 . S
C12 C7 1.501 . S
C12 H13 0.961 . S
C12 H14 0.961 . S
C12 H15 0.960 . S
H13 C12 0.961 . S
H14 C12 0.961 . S
H15 C12 0.960 . S
C16 N17 1.342 . S
C16 C20 1.401 . S
C16 C21 1.499 . S
N17 Co0 1.989 . S
N17 C16 1.342 . S
N17 N18 1.388 . S
N18 Co1 1.993 . S
N18 N17 1.388 . S
N18 C19 1.346 . S
C19 N18 1.346 . S
C19 C20 1.396 . S
C19 C29 1.510 . S
C20 C16 1.401 . S
C20 C19 1.396 . S
C21 C16 1.499 . S
C21 H22 0.959 . S
C21 H23 0.960 . S
C21 H24 0.961 . S
H22 C21 0.959 . S
H23 C21 0.960 . S
H24 C21 0.961 . S
O25 Co0 1.967 . S
O25 C33 1.258 . S
O26 Co1 1.941 . S
O26 C33 1.266 . S
H27 C29 0.959 . S
H28 C29 0.961 . S
C29 C19 1.510 . S
C29 H27 0.959 . S
C29 H28 0.961 . S
C29 H30 0.960 . S
H30 C29 0.960 . S
H31 N11 0.862 . S
O32 Co0 1.920 . S
O32 C5 1.289 1_554 S
C33 O25 1.258 . S
C33 O26 1.266 . S
Co34 O37 1.970 . S
Co34 N51 1.989 . S
Co34 O59 1.967 . S
Co34 O66 1.920 . S
Co35 O38 1.966 . S
Co35 N44 2.022 . S
Co35 N52 1.993 . S
Co35 O60 1.941 . S
C36 O37 1.258 . S
C36 O38 1.263 . S
O37 Co34 1.970 . S
O37 C36 1.258 . S
O38 Co35 1.966 . S
O38 C36 1.263 . S
C39 O40 1.235 . S
C39 O66 1.289 . S
O40 C39 1.235 . S
C41 C43 1.400 . S
C41 N44 1.351 . S
C41 C46 1.501 . S
C42 C43 1.387 . S
C42 N45 1.341 . S
C43 C41 1.400 . S
C43 C42 1.387 . S
N44 Co35 2.022 . S
N44 C41 1.351 . S
N44 N45 1.365 . S
N45 C42 1.341 . S
N45 N44 1.365 . S
N45 H65 0.862 . S
C46 C41 1.501 . S
C46 H47 0.961 . S
C46 H48 0.961 . S
C46 H49 0.960 . S
H47 C46 0.961 . S
H48 C46 0.961 . S
H49 C46 0.960 . S
C50 N51 1.342 . S
C50 C54 1.401 . S
C50 C55 1.499 . S
N51 Co34 1.989 . S
N51 C50 1.342 . S
N51 N52 1.388 . S
N52 Co35 1.993 . S
N52 N51 1.388 . S
N52 C53 1.346 . S
C53 N52 1.346 . S
C53 C54 1.396 . S
C53 C63 1.510 . S
C54 C50 1.401 . S
C54 C53 1.396 . S
C55 C50 1.499 . S
C55 H56 0.959 . S
C55 H57 0.960 . S
C55 H58 0.961 . S
H56 C55 0.959 . S
H57 C55 0.960 . S
H58 C55 0.961 . S
O59 Co34 1.967 . S
O59 C67 1.258 . S
O60 Co35 1.941 . S
O60 C67 1.266 . S
H61 C63 0.959 . S
H62 C63 0.961 . S
C63 C53 1.510 . S
C63 H61 0.959 . S
C63 H62 0.961 . S
C63 H64 0.960 . S
H64 C63 0.960 . S
H65 N45 0.862 . S
O66 Co34 1.920 . S
O66 C39 1.289 . S
C67 O59 1.258 . S
C67 O60 1.266 . S
Co68 O71 1.970 . S
Co68 N85 1.989 . S
Co68 O93 1.967 . S
Co68 O100 1.920 . S
Co69 O72 1.966 . S
Co69 N78 2.022 . S
Co69 N86 1.993 . S
Co69 O94 1.941 . S
C70 O71 1.258 . S
C70 O72 1.263 . S
O71 Co68 1.970 . S
O71 C70 1.258 . S
O72 Co69 1.966 . S
O72 C70 1.263 . S
C73 O74 1.235 . S
C73 O100 1.289 . S
O74 C73 1.235 . S
C75 C77 1.400 . S
C75 N78 1.351 1_554 S
C75 C80 1.501 . S
C76 C77 1.387 . S
C76 N79 1.341 1_554 S
C77 C75 1.400 . S
C77 C76 1.387 . S
N78 Co69 2.022 . S
N78 C75 1.351 1_556 S
N78 N79 1.365 . S
N79 C76 1.341 1_556 S
N79 N78 1.365 . S
N79 H99 0.862 . S
C80 C75 1.501 . S
C80 H81 0.961 1_554 S
C80 H82 0.961 . S
C80 H83 0.960 . S
H81 C80 0.961 1_556 S
H82 C80 0.961 . S
H83 C80 0.960 . S
C84 N85 1.342 . S
C84 C88 1.401 . S
C84 C89 1.499 . S
N85 Co68 1.989 . S
N85 C84 1.342 . S
N85 N86 1.388 . S
N86 Co69 1.993 . S
N86 N85 1.388 . S
N86 C87 1.346 . S
C87 N86 1.346 . S
C87 C88 1.396 . S
C87 C97 1.510 . S
C88 C84 1.401 . S
C88 C87 1.396 . S
C89 C84 1.499 . S
C89 H90 0.959 . S
C89 H91 0.960 . S
C89 H92 0.961 . S
H90 C89 0.959 . S
H91 C89 0.960 . S
H92 C89 0.961 . S
O93 Co68 1.967 . S
O93 C101 1.258 . S
O94 Co69 1.941 . S
O94 C101 1.266 . S
H95 C97 0.959 . S
H96 C97 0.961 . S
C97 C87 1.510 . S
C97 H95 0.959 . S
C97 H96 0.961 . S
C97 H98 0.960 . S
H98 C97 0.960 . S
H99 N79 0.862 . S
O100 Co68 1.920 . S
O100 C73 1.289 . S
C101 O93 1.258 . S
C101 O94 1.266 . S
Co102 O105 1.970 . S
Co102 N119 1.989 . S
Co102 O127 1.967 . S
Co102 O134 1.920 . S
Co103 O106 1.966 . S
Co103 N112 2.022 . S
Co103 N120 1.993 . S
Co103 O128 1.941 . S
C104 O105 1.258 . S
C104 O106 1.263 . S
O105 Co102 1.970 . S
O105 C104 1.258 . S
O106 Co103 1.966 . S
O106 C104 1.263 . S
C107 O108 1.235 1_556 S
C107 O134 1.289 1_556 S
O108 C107 1.235 1_554 S
C109 C111 1.400 . S
C109 N112 1.351 . S
C109 C114 1.501 . S
C110 C111 1.387 . S
C110 N113 1.341 . S
C111 C109 1.400 . S
C111 C110 1.387 . S
N112 Co103 2.022 . S
N112 C109 1.351 . S
N112 N113 1.365 . S
N113 C110 1.341 . S
N113 N112 1.365 . S
N113 H133 0.862 . S
C114 C109 1.501 . S
C114 H115 0.961 . S
C114 H116 0.961 . S
C114 H117 0.960 . S
H115 C114 0.961 . S
H116 C114 0.961 . S
H117 C114 0.960 . S
C118 N119 1.342 . S
C118 C122 1.401 . S
C118 C123 1.499 . S
N119 Co102 1.989 . S
N119 C118 1.342 . S
N119 N120 1.388 . S
N120 Co103 1.993 . S
N120 N119 1.388 . S
N120 C121 1.346 . S
C121 N120 1.346 . S
C121 C122 1.396 . S
C121 C131 1.510 . S
C122 C118 1.401 . S
C122 C121 1.396 . S
C123 C118 1.499 . S
C123 H124 0.959 . S
C123 H125 0.960 . S
C123 H126 0.961 . S
H124 C123 0.959 . S
H125 C123 0.960 . S
H126 C123 0.961 . S
O127 Co102 1.967 . S
O127 C135 1.258 . S
O128 Co103 1.941 . S
O128 C135 1.266 . S
H129 C131 0.959 . S
H130 C131 0.961 . S
C131 C121 1.510 . S
C131 H129 0.959 . S
C131 H130 0.961 . S
C131 H132 0.960 . S
H132 C131 0.960 . S
H133 N113 0.862 . S
O134 Co102 1.920 . S
O134 C107 1.289 1_554 S
C135 O127 1.258 . S
C135 O128 1.266 . S
Co136 O139 1.970 . S
Co136 N153 1.989 . S
Co136 O161 1.967 . S
Co136 O168 1.920 . S
Co137 O140 1.966 . S
Co137 N146 2.022 . S
Co137 N154 1.993 . S
Co137 O162 1.941 . S
C138 O139 1.258 . S
C138 O140 1.263 . S
O139 Co136 1.970 . S
O139 C138 1.258 . S
O140 Co137 1.966 . S
O140 C138 1.263 . S
C141 O142 1.235 . S
C141 O168 1.289 . S
O142 C141 1.235 . S
C143 C145 1.400 . S
C143 N146 1.351 . S
C143 C148 1.501 . S
C144 C145 1.387 . S
C144 N147 1.341 . S
C145 C143 1.400 . S
C145 C144 1.387 . S
N146 Co137 2.022 . S
N146 C143 1.351 . S
N146 N147 1.365 . S
N147 C144 1.341 . S
N147 N146 1.365 . S
N147 H167 0.862 . S
C148 C143 1.501 . S
C148 H149 0.961 . S
C148 H150 0.961 . S
C148 H151 0.960 . S
H149 C148 0.961 . S
H150 C148 0.961 . S
H151 C148 0.960 . S
C152 N153 1.342 . S
C152 C156 1.401 . S
C152 C157 1.499 . S
N153 Co136 1.989 . S
N153 C152 1.342 . S
N153 N154 1.388 . S
N154 Co137 1.993 . S
N154 N153 1.388 . S
N154 C155 1.346 . S
C155 N154 1.346 . S
C155 C156 1.396 . S
C155 C165 1.510 . S
C156 C152 1.401 . S
C156 C155 1.396 . S
C157 C152 1.499 . S
C157 H158 0.959 . S
C157 H159 0.960 . S
C157 H160 0.961 . S
H158 C157 0.959 . S
H159 C157 0.960 . S
H160 C157 0.961 . S
O161 Co136 1.967 . S
O161 C169 1.258 . S
O162 Co137 1.941 . S
O162 C169 1.266 . S
H163 C165 0.959 . S
H164 C165 0.961 . S
C165 C155 1.510 . S
C165 H163 0.959 . S
C165 H164 0.961 . S
C165 H166 0.960 . S
H166 C165 0.960 . S
H167 N147 0.862 . S
O168 Co136 1.920 . S
O168 C141 1.289 . S
C169 O161 1.258 . S
C169 O162 1.266 . S
Co170 O173 1.970 . S
Co170 N187 1.989 . S
Co170 O195 1.967 . S
Co170 O202 1.920 . S
Co171 O174 1.966 . S
Co171 N180 2.022 . S
Co171 N188 1.993 . S
Co171 O196 1.941 . S
C172 O173 1.258 . S
C172 O174 1.263 . S
O173 Co170 1.970 . S
O173 C172 1.258 . S
O174 Co171 1.966 . S
O174 C172 1.263 . S
C175 O176 1.235 . S
C175 O202 1.289 . S
O176 C175 1.235 . S
C177 C179 1.400 . S
C177 N180 1.351 1_554 S
C177 C182 1.501 . S
C178 C179 1.387 . S
C178 N181 1.341 1_554 S
C179 C177 1.400 . S
C179 C178 1.387 . S
N180 Co171 2.022 . S
N180 C177 1.351 1_556 S
N180 N181 1.365 . S
N181 C178 1.341 1_556 S
N181 N180 1.365 . S
N181 H201 0.862 . S
C182 C177 1.501 . S
C182 H183 0.961 1_554 S
C182 H184 0.961 . S
C182 H185 0.960 . S
H183 C182 0.961 1_556 S
H184 C182 0.961 . S
H185 C182 0.960 . S
C186 N187 1.342 . S
C186 C190 1.401 . S
C186 C191 1.499 . S
N187 Co170 1.989 . S
N187 C186 1.342 . S
N187 N188 1.388 . S
N188 Co171 1.993 . S
N188 N187 1.388 . S
N188 C189 1.346 . S
C189 N188 1.346 . S
C189 C190 1.396 . S
C189 C199 1.510 . S
C190 C186 1.401 . S
C190 C189 1.396 . S
C191 C186 1.499 . S
C191 H192 0.959 . S
C191 H193 0.960 . S
C191 H194 0.961 . S
H192 C191 0.959 . S
H193 C191 0.960 . S
H194 C191 0.961 . S
O195 Co170 1.967 . S
O195 C203 1.258 . S
O196 Co171 1.941 . S
O196 C203 1.266 . S
H197 C199 0.959 . S
H198 C199 0.961 . S
C199 C189 1.510 . S
C199 H197 0.959 . S
C199 H198 0.961 . S
C199 H200 0.960 . S
H200 C199 0.960 . S
H201 N181 0.862 . S
O202 Co170 1.920 . S
O202 C175 1.289 . S
C203 O195 1.258 . S
C203 O196 1.266 . S
H204 C212 0.929 . S
H205 C214 0.930 . S
H206 C216 0.930 . S
H207 C219 0.929 . S
H208 C222 0.930 . S
H209 C224 0.960 . S
H210 C224 0.960 . S
H211 C224 0.960 . S
C212 H204 0.929 . S
C212 C213 1.377 . S
C212 C214 1.384 . S
C213 C212 1.377 . S
C213 C219 1.390 . S
C214 H205 0.930 . S
C214 C212 1.384 . S
C214 C215 1.372 . S
C215 C214 1.372 . S
C215 C216 1.400 . S
C215 C220 1.490 . S
C216 H206 0.930 . S
C216 C215 1.400 . S
C216 C219 1.386 . S
H217 C233 0.930 . S
H218 C234 0.931 . S
C219 H207 0.929 . S
C219 C213 1.390 . S
C219 C216 1.386 . S
C220 C215 1.490 . S
C220 C222 1.395 . S
C220 C223 1.403 1_554 S
H221 C227 0.930 . S
C222 H208 0.930 . S
C222 C220 1.395 . S
C222 C225 1.403 . S
C223 C220 1.403 1_556 S
C223 C224 1.524 . S
C223 C227 1.400 . S
C224 H209 0.960 . S
C224 H210 0.960 . S
C224 H211 0.960 . S
C224 C223 1.524 . S
C225 C222 1.403 . S
C225 C226 1.392 1_554 S
C225 C229 1.495 . S
C226 C225 1.392 1_556 S
C226 C227 1.385 . S
C226 C228 1.478 . S
C227 H221 0.930 . S
C227 C223 1.400 . S
C227 C226 1.385 . S
C228 C226 1.478 . S
C228 C230 1.381 . S
C228 C234 1.383 . S
C229 C225 1.495 . S
C229 H235 0.959 . S
C229 H236 0.961 . S
C229 H237 0.960 . S
C230 C228 1.381 . S
C230 C231 1.394 . S
C230 H238 0.930 . S
C231 C230 1.394 . S
C231 C232 1.383 . S
C231 H239 0.929 . S
C232 C231 1.383 . S
C232 C233 1.377 . S
C233 H217 0.930 . S
C233 C232 1.377 . S
C233 C234 1.379 . S
C234 H218 0.931 . S
C234 C228 1.383 . S
C234 C233 1.379 . S
H235 C229 0.959 . S
H236 C229 0.961 . S
H237 C229 0.960 . S
H238 C230 0.930 . S
H239 C231 0.929 . S
H240 C248 0.929 . S
H241 C250 0.930 . S
H242 C252 0.930 . S
H243 C255 0.929 . S
H244 C258 0.930 . S
H245 C260 0.960 . S
H246 C260 0.960 . S
H247 C260 0.960 . S
C248 H240 0.929 . S
C248 C249 1.377 . S
C248 C250 1.384 . S
C249 C248 1.377 . S
C249 C255 1.390 . S
C250 H241 0.930 . S
C250 C248 1.384 . S
C250 C251 1.372 . S
C251 C250 1.372 . S
C251 C252 1.400 . S
C251 C256 1.490 . S
C252 H242 0.930 . S
C252 C251 1.400 . S
C252 C255 1.386 . S
H253 C269 0.930 . S
H254 C270 0.931 . S
C255 H243 0.929 . S
C255 C249 1.390 . S
C255 C252 1.386 . S
C256 C251 1.490 . S
C256 C258 1.395 . S
C256 C259 1.403 . S
H257 C263 0.930 . S
C258 H244 0.930 . S
C258 C256 1.395 . S
C258 C261 1.403 . S
C259 C256 1.403 . S
C259 C260 1.524 . S
C259 C263 1.400 . S
C260 H245 0.960 . S
C260 H246 0.960 . S
C260 H247 0.960 . S
C260 C259 1.524 . S
C261 C258 1.403 . S
C261 C262 1.392 . S
C261 C265 1.495 . S
C262 C261 1.392 . S
C262 C263 1.385 . S
C262 C264 1.478 . S
C263 H257 0.930 . S
C263 C259 1.400 . S
C263 C262 1.385 . S
C264 C262 1.478 . S
C264 C266 1.381 . S
C264 C270 1.383 . S
C265 C261 1.495 . S
C265 H271 0.959 . S
C265 H272 0.961 . S
C265 H273 0.960 . S
C266 C264 1.381 . S
C266 C267 1.394 . S
C266 H274 0.930 . S
C267 C266 1.394 . S
C267 C268 1.383 . S
C267 H275 0.929 . S
C268 C267 1.383 . S
C268 C269 1.377 . S
C269 H253 0.930 . S
C269 C268 1.377 . S
C269 C270 1.379 . S
C270 H254 0.931 . S
C270 C264 1.383 . S
C270 C269 1.379 . S
H271 C265 0.959 . S
H272 C265 0.961 . S
H273 C265 0.960 . S
H274 C266 0.930 . S
H275 C267 0.929 . S
H276 C284 0.929 . S
H277 C286 0.930 . S
H278 C288 0.930 . S
H279 C291 0.929 . S
H280 C294 0.930 . S
H281 C296 0.960 . S
H282 C296 0.960 . S
H283 C296 0.960 . S
C284 H276 0.929 . S
C284 C285 1.377 . S
C284 C286 1.384 . S
C285 C284 1.377 . S
C285 C291 1.390 . S
C286 H277 0.930 . S
C286 C284 1.384 . S
C286 C287 1.372 . S
C287 C286 1.372 . S
C287 C288 1.400 . S
C287 C292 1.490 . S
C288 H278 0.930 . S
C288 C287 1.400 . S
C288 C291 1.386 . S
H289 C305 0.930 . S
H290 C306 0.931 . S
C291 H279 0.929 . S
C291 C285 1.390 . S
C291 C288 1.386 . S
C292 C287 1.490 . S
C292 C294 1.395 . S
C292 C295 1.403 . S
H293 C299 0.930 . S
C294 H280 0.930 . S
C294 C292 1.395 . S
C294 C297 1.403 . S
C295 C292 1.403 . S
C295 C296 1.524 . S
C295 C299 1.400 . S
C296 H281 0.960 . S
C296 H282 0.960 . S
C296 H283 0.960 . S
C296 C295 1.524 . S
C297 C294 1.403 . S
C297 C298 1.392 . S
C297 C301 1.495 . S
C298 C297 1.392 . S
C298 C299 1.385 . S
C298 C300 1.478 . S
C299 H293 0.930 . S
C299 C295 1.400 . S
C299 C298 1.385 . S
C300 C298 1.478 . S
C300 C302 1.381 . S
C300 C306 1.383 . S
C301 C297 1.495 . S
C301 H307 0.959 . S
C301 H308 0.961 . S
C301 H309 0.960 . S
C302 C300 1.381 . S
C302 C303 1.394 . S
C302 H310 0.930 . S
C303 C302 1.394 . S
C303 C304 1.383 . S
C303 H311 0.929 . S
C304 C303 1.383 . S
C304 C305 1.377 . S
C305 H289 0.930 . S
C305 C304 1.377 . S
C305 C306 1.379 . S
C306 H290 0.931 . S
C306 C300 1.383 . S
C306 C305 1.379 . S
H307 C301 0.959 . S
H308 C301 0.961 . S
H309 C301 0.960 . S
H310 C302 0.930 . S
H311 C303 0.929 . S
H312 C320 0.929 . S
H313 C322 0.930 . S
H314 C324 0.930 . S
H315 C327 0.929 . S
H316 C330 0.930 . S
H317 C332 0.960 . S
H318 C332 0.960 . S
H319 C332 0.960 . S
C320 H312 0.929 . S
C320 C321 1.377 . S
C320 C322 1.384 . S
C321 C320 1.377 . S
C321 C327 1.390 . S
C322 H313 0.930 . S
C322 C320 1.384 . S
C322 C323 1.372 . S
C323 C322 1.372 . S
C323 C324 1.400 . S
C323 C328 1.490 . S
C324 H314 0.930 . S
C324 C323 1.400 . S
C324 C327 1.386 . S
H325 C341 0.930 . S
H326 C342 0.931 . S
C327 H315 0.929 . S
C327 C321 1.390 . S
C327 C324 1.386 . S
C328 C323 1.490 . S
C328 C330 1.395 . S
C328 C331 1.403 1_556 S
H329 C335 0.930 . S
C330 H316 0.930 . S
C330 C328 1.395 . S
C330 C333 1.403 . S
C331 C328 1.403 1_554 S
C331 C332 1.524 . S
C331 C335 1.400 . S
C332 H317 0.960 . S
C332 H318 0.960 . S
C332 H319 0.960 . S
C332 C331 1.524 . S
C333 C330 1.403 . S
C333 C334 1.392 1_556 S
C333 C337 1.495 . S
C334 C333 1.392 1_554 S
C334 C335 1.385 . S
C334 C336 1.478 . S
C335 H329 0.930 . S
C335 C331 1.400 . S
C335 C334 1.385 . S
C336 C334 1.478 . S
C336 C338 1.381 . S
C336 C342 1.383 . S
C337 C333 1.495 . S
C337 H343 0.959 . S
C337 H344 0.961 . S
C337 H345 0.960 . S
C338 C336 1.381 . S
C338 C339 1.394 . S
C338 H346 0.930 . S
C339 C338 1.394 . S
C339 C340 1.383 . S
C339 H347 0.929 . S
C340 C339 1.383 . S
C340 C341 1.377 . S
C341 H325 0.930 . S
C341 C340 1.377 . S
C341 C342 1.379 . S
C342 H326 0.931 . S
C342 C336 1.383 . S
C342 C341 1.379 . S
H343 C337 0.959 . S
H344 C337 0.961 . S
H345 C337 0.960 . S
H346 C338 0.930 . S
H347 C339 0.929 . S
H348 C356 0.929 . S
H349 C358 0.930 . S
H350 C360 0.930 . S
H351 C363 0.929 . S
H352 C366 0.930 . S
H353 C368 0.960 . S
H354 C368 0.960 . S
H355 C368 0.960 . S
C356 H348 0.929 . S
C356 C357 1.377 . S
C356 C358 1.384 . S
C357 C356 1.377 . S
C357 C363 1.390 . S
C358 H349 0.930 . S
C358 C356 1.384 . S
C358 C359 1.372 . S
C359 C358 1.372 . S
C359 C360 1.400 . S
C359 C364 1.490 . S
C360 H350 0.930 . S
C360 C359 1.400 . S
C360 C363 1.386 . S
H361 C377 0.930 . S
H362 C378 0.931 . S
C363 H351 0.929 . S
C363 C357 1.390 . S
C363 C360 1.386 . S
C364 C359 1.490 . S
C364 C366 1.395 . S
C364 C367 1.403 . S
H365 C371 0.930 . S
C366 H352 0.930 . S
C366 C364 1.395 . S
C366 C369 1.403 . S
C367 C364 1.403 . S
C367 C368 1.524 . S
C367 C371 1.400 . S
C368 H353 0.960 . S
C368 H354 0.960 . S
C368 H355 0.960 . S
C368 C367 1.524 . S
C369 C366 1.403 . S
C369 C370 1.392 . S
C369 C373 1.495 . S
C370 C369 1.392 . S
C370 C371 1.385 . S
C370 C372 1.478 . S
C371 H365 0.930 . S
C371 C367 1.400 . S
C371 C370 1.385 . S
C372 C370 1.478 . S
C372 C374 1.381 . S
C372 C378 1.383 . S
C373 C369 1.495 . S
C373 H379 0.959 . S
C373 H380 0.961 . S
C373 H381 0.960 . S
C374 C372 1.381 . S
C374 C375 1.394 . S
C374 H382 0.930 . S
C375 C374 1.394 . S
C375 C376 1.383 . S
C375 H383 0.929 . S
C376 C375 1.383 . S
C376 C377 1.377 . S
C377 H361 0.930 . S
C377 C376 1.377 . S
C377 C378 1.379 . S
C378 H362 0.931 . S
C378 C372 1.383 . S
C378 C377 1.379 . S
H379 C373 0.959 . S
H380 C373 0.961 . S
H381 C373 0.960 . S
H382 C374 0.930 . S
H383 C375 0.929 . S
H384 C392 0.929 . S
H385 C394 0.930 . S
H386 C396 0.930 . S
H387 C399 0.929 . S
H388 C402 0.930 . S
H389 C404 0.960 . S
H390 C404 0.960 . S
H391 C404 0.960 . S
C392 H384 0.929 . S
C392 C393 1.377 . S
C392 C394 1.384 . S
C393 C392 1.377 . S
C393 C399 1.390 . S
C394 H385 0.930 . S
C394 C392 1.384 . S
C394 C395 1.372 . S
C395 C394 1.372 . S
C395 C396 1.400 . S
C395 C400 1.490 . S
C396 H386 0.930 . S
C396 C395 1.400 . S
C396 C399 1.386 . S
H397 C413 0.930 . S
H398 C414 0.931 . S
C399 H387 0.929 . S
C399 C393 1.390 . S
C399 C396 1.386 . S
C400 C395 1.490 . S
C400 C402 1.395 . S
C400 C403 1.403 . S
H401 C407 0.930 . S
C402 H388 0.930 . S
C402 C400 1.395 . S
C402 C405 1.403 . S
C403 C400 1.403 . S
C403 C404 1.524 . S
C403 C407 1.400 . S
C404 H389 0.960 . S
C404 H390 0.960 . S
C404 H391 0.960 . S
C404 C403 1.524 . S
C405 C402 1.403 . S
C405 C406 1.392 . S
C405 C409 1.495 . S
C406 C405 1.392 . S
C406 C407 1.385 . S
C406 C408 1.478 . S
C407 H401 0.930 . S
C407 C403 1.400 . S
C407 C406 1.385 . S
C408 C406 1.478 . S
C408 C410 1.381 . S
C408 C414 1.383 . S
C409 C405 1.495 . S
C409 H415 0.959 . S
C409 H416 0.961 . S
C409 H417 0.960 . S
C410 C408 1.381 . S
C410 C411 1.394 . S
C410 H418 0.930 . S
C411 C410 1.394 . S
C411 C412 1.383 . S
C411 H419 0.929 . S
C412 C411 1.383 . S
C412 C413 1.377 . S
C413 H397 0.930 . S
C413 C412 1.377 . S
C413 C414 1.379 . S
C414 H398 0.931 . S
C414 C408 1.383 . S
C414 C413 1.379 . S
H415 C409 0.959 . S
H416 C409 0.961 . S
H417 C409 0.960 . S
H418 C410 0.930 . S
H419 C411 0.929 . S
H420 C428 0.929 . S
H421 C430 0.930 . S
H422 C432 0.930 . S
H423 C435 0.929 . S
H424 C438 0.930 . S
H425 C440 0.960 . S
H426 C440 0.960 . S
H427 C440 0.960 . S
C428 H420 0.929 . S
C428 C429 1.377 . S
C428 C430 1.384 . S
C429 C428 1.377 . S
C429 C435 1.390 . S
C430 H421 0.930 . S
C430 C428 1.384 . S
C430 C431 1.372 . S
C431 C430 1.372 . S
C431 C432 1.400 . S
C431 C436 1.490 . S
C432 H422 0.930 . S
C432 C431 1.400 . S
C432 C435 1.386 . S
H433 C449 0.930 . S
H434 C450 0.931 . S
C435 H423 0.929 . S
C435 C429 1.390 . S
C435 C432 1.386 . S
C436 C431 1.490 . S
C436 C438 1.395 . S
C436 C439 1.403 . S
H437 C443 0.930 . S
C438 H424 0.930 . S
C438 C436 1.395 . S
C438 C441 1.403 . S
C439 C436 1.403 . S
C439 C440 1.524 . S
C439 C443 1.400 . S
C440 H425 0.960 . S
C440 H426 0.960 . S
C440 H427 0.960 . S
C440 C439 1.524 . S
C441 C438 1.403 . S
C441 C442 1.392 . S
C441 C445 1.495 . S
C442 C441 1.392 . S
C442 C443 1.385 . S
C442 C444 1.478 . S
C443 H437 0.930 . S
C443 C439 1.400 . S
C443 C442 1.385 . S
C444 C442 1.478 . S
C444 C446 1.381 . S
C444 C450 1.383 . S
C445 C441 1.495 . S
C445 H451 0.959 . S
C445 H452 0.961 . S
C445 H453 0.960 . S
C446 C444 1.381 . S
C446 C447 1.394 . S
C446 H454 0.930 . S
C447 C446 1.394 . S
C447 C448 1.383 . S
C447 H455 0.929 . S
C448 C447 1.383 . S
C448 C449 1.377 . S
C449 H433 0.930 . S
C449 C448 1.377 . S
C449 C450 1.379 . S
C450 H434 0.931 . S
C450 C444 1.383 . S
C450 C449 1.379 . S
H451 C445 0.959 . S
H452 C445 0.961 . S
H453 C445 0.960 . S
H454 C446 0.930 . S
H455 C447 0.929 . S
H456 C464 0.929 . S
H457 C466 0.930 . S
H458 C468 0.930 . S
H459 C471 0.929 . S
H460 C474 0.930 . S
H461 C476 0.960 . S
H462 C476 0.960 . S
H463 C476 0.960 . S
C464 H456 0.929 . S
C464 C465 1.377 . S
C464 C466 1.384 . S
C465 C464 1.377 . S
C465 C471 1.390 . S
C466 H457 0.930 . S
C466 C464 1.384 . S
C466 C467 1.372 . S
C467 C466 1.372 . S
C467 C468 1.400 . S
C467 C472 1.490 . S
C468 H458 0.930 . S
C468 C467 1.400 . S
C468 C471 1.386 . S
H469 C485 0.930 . S
H470 C486 0.931 . S
C471 H459 0.929 . S
C471 C465 1.390 . S
C471 C468 1.386 . S
C472 C467 1.490 . S
C472 C474 1.395 . S
C472 C475 1.403 . S
H473 C479 0.930 . S
C474 H460 0.930 . S
C474 C472 1.395 . S
C474 C477 1.403 1_556 S
C475 C472 1.403 . S
C475 C476 1.524 . S
C475 C479 1.400 1_556 S
C476 H461 0.960 . S
C476 H462 0.960 . S
C476 H463 0.960 . S
C476 C475 1.524 . S
C477 C474 1.403 1_554 S
C477 C478 1.392 . S
C477 C481 1.495 . S
C478 C477 1.392 . S
C478 C479 1.385 . S
C478 C480 1.478 . S
C479 H473 0.930 . S
C479 C475 1.400 1_554 S
C479 C478 1.385 . S
C480 C478 1.478 . S
C480 C482 1.381 . S
C480 C486 1.383 . S
C481 C477 1.495 . S
C481 H487 0.959 . S
C481 H488 0.961 . S
C481 H489 0.960 . S
C482 C480 1.381 . S
C482 C483 1.394 . S
C482 H490 0.930 . S
C483 C482 1.394 . S
C483 C484 1.383 . S
C483 H491 0.929 . S
C484 C483 1.383 . S
C484 C485 1.377 . S
C485 H469 0.930 . S
C485 C484 1.377 . S
C485 C486 1.379 . S
C486 H470 0.931 . S
C486 C480 1.383 . S
C486 C485 1.379 . S
H487 C481 0.959 . S
H488 C481 0.961 . S
H489 C481 0.960 . S
H490 C482 0.930 . S
H491 C483 0.929 . S
H492 C500 0.929 . S
H493 C502 0.930 . S
H494 C504 0.930 . S
H495 C507 0.929 . S
H496 C510 0.930 . S
H497 C512 0.960 . S
H498 C512 0.960 . S
H499 C512 0.960 . S
C500 H492 0.929 . S
C500 C501 1.377 . S
C500 C502 1.384 . S
C501 C500 1.377 . S
C501 C507 1.390 . S
C502 H493 0.930 . S
C502 C500 1.384 . S
C502 C503 1.372 . S
C503 C502 1.372 . S
C503 C504 1.400 . S
C503 C508 1.490 . S
C504 H494 0.930 . S
C504 C503 1.400 . S
C504 C507 1.386 . S
H505 C521 0.930 . S
H506 C522 0.931 . S
C507 H495 0.929 . S
C507 C501 1.390 . S
C507 C504 1.386 . S
C508 C503 1.490 . S
C508 C510 1.395 . S
C508 C511 1.403 . S
H509 C515 0.930 . S
C510 H496 0.930 . S
C510 C508 1.395 . S
C510 C513 1.403 . S
C511 C508 1.403 . S
C511 C512 1.524 . S
C511 C515 1.400 . S
C512 H497 0.960 . S
C512 H498 0.960 . S
C512 H499 0.960 . S
C512 C511 1.524 . S
C513 C510 1.403 . S
C513 C514 1.392 . S
C513 C517 1.495 . S
C514 C513 1.392 . S
C514 C515 1.385 . S
C514 C516 1.478 . S
C515 H509 0.930 . S
C515 C511 1.400 . S
C515 C514 1.385 . S
C516 C514 1.478 . S
C516 C518 1.381 . S
C516 C522 1.383 . S
C517 C513 1.495 . S
C517 H523 0.959 . S
C517 H524 0.961 . S
C517 H525 0.960 . S
C518 C516 1.381 . S
C518 C519 1.394 . S
C518 H526 0.930 . S
C519 C518 1.394 . S
C519 C520 1.383 . S
C519 H527 0.929 . S
C520 C519 1.383 . S
C520 C521 1.377 . S
C521 H505 0.930 . S
C521 C520 1.377 . S
C521 C522 1.379 . S
C522 H506 0.931 . S
C522 C516 1.383 . S
C522 C521 1.379 . S
H523 C517 0.959 . S
H524 C517 0.961 . S
H525 C517 0.960 . S
H526 C518 0.930 . S
H527 C519 0.929 . S
H528 C536 0.929 . S
H529 C538 0.930 . S
H530 C540 0.930 . S
H531 C543 0.929 . S
H532 C546 0.930 . S
H533 C548 0.960 . S
H534 C548 0.960 . S
H535 C548 0.960 . S
C536 H528 0.929 . S
C536 C537 1.377 . S
C536 C538 1.384 . S
C537 C536 1.377 . S
C537 C543 1.390 . S
C538 H529 0.930 . S
C538 C536 1.384 . S
C538 C539 1.372 . S
C539 C538 1.372 . S
C539 C540 1.400 . S
C539 C544 1.490 . S
C540 H530 0.930 . S
C540 C539 1.400 . S
C540 C543 1.386 . S
H541 C557 0.930 . S
H542 C558 0.931 . S
C543 H531 0.929 . S
C543 C537 1.390 . S
C543 C540 1.386 . S
C544 C539 1.490 . S
C544 C546 1.395 . S
C544 C547 1.403 . S
H545 C551 0.930 . S
C546 H532 0.930 . S
C546 C544 1.395 . S
C546 C549 1.403 . S
C547 C544 1.403 . S
C547 C548 1.524 . S
C547 C551 1.400 . S
C548 H533 0.960 . S
C548 H534 0.960 . S
C548 H535 0.960 . S
C548 C547 1.524 . S
C549 C546 1.403 . S
C549 C550 1.392 . S
C549 C553 1.495 . S
C550 C549 1.392 . S
C550 C551 1.385 . S
C550 C552 1.478 . S
C551 H545 0.930 . S
C551 C547 1.400 . S
C551 C550 1.385 . S
C552 C550 1.478 . S
C552 C554 1.381 . S
C552 C558 1.383 . S
C553 C549 1.495 . S
C553 H559 0.959 . S
C553 H560 0.961 . S
C553 H561 0.960 . S
C554 C552 1.381 . S
C554 C555 1.394 . S
C554 H562 0.930 . S
C555 C554 1.394 . S
C555 C556 1.383 . S
C555 H563 0.929 . S
C556 C555 1.383 . S
C556 C557 1.377 . S
C557 H541 0.930 . S
C557 C556 1.377 . S
C557 C558 1.379 . S
C558 H542 0.931 . S
C558 C552 1.383 . S
C558 C557 1.379 . S
H559 C553 0.959 . S
H560 C553 0.961 . S
H561 C553 0.960 . S
H562 C554 0.930 . S
H563 C555 0.929 . S
H564 C572 0.929 . S
H565 C574 0.930 . S
H566 C576 0.930 . S
H567 C579 0.929 . S
H568 C582 0.930 . S
H569 C584 0.960 . S
H570 C584 0.960 . S
H571 C584 0.960 . S
C572 H564 0.929 . S
C572 C573 1.377 . S
C572 C574 1.384 . S
C573 C572 1.377 . S
C573 C579 1.390 . S
C574 H565 0.930 . S
C574 C572 1.384 . S
C574 C575 1.372 . S
C575 C574 1.372 . S
C575 C576 1.400 . S
C575 C580 1.490 . S
C576 H566 0.930 . S
C576 C575 1.400 . S
C576 C579 1.386 . S
H577 C593 0.930 . S
H578 C594 0.931 . S
C579 H567 0.929 . S
C579 C573 1.390 . S
C579 C576 1.386 . S
C580 C575 1.490 . S
C580 C582 1.395 . S
C580 C583 1.403 . S
H581 C587 0.930 . S
C582 H568 0.930 . S
C582 C580 1.395 . S
C582 C585 1.403 1_554 S
C583 C580 1.403 . S
C583 C584 1.524 . S
C583 C587 1.400 1_554 S
C584 H569 0.960 . S
C584 H570 0.960 . S
C584 H571 0.960 . S
C584 C583 1.524 . S
C585 C582 1.403 1_556 S
C585 C586 1.392 . S
C585 C589 1.495 . S
C586 C585 1.392 . S
C586 C587 1.385 . S
C586 C588 1.478 . S
C587 H581 0.930 . S
C587 C583 1.400 1_556 S
C587 C586 1.385 . S
C588 C586 1.478 . S
C588 C590 1.381 . S
C588 C594 1.383 . S
C589 C585 1.495 . S
C589 H595 0.959 . S
C589 H596 0.961 . S
C589 H597 0.960 . S
C590 C588 1.381 . S
C590 C591 1.394 . S
C590 H598 0.930 . S
C591 C590 1.394 . S
C591 C592 1.383 . S
C591 H599 0.929 . S
C592 C591 1.383 . S
C592 C593 1.377 . S
C593 H577 0.930 . S
C593 C592 1.377 . S
C593 C594 1.379 . S
C594 H578 0.931 . S
C594 C588 1.383 . S
C594 C593 1.379 . S
H595 C589 0.959 . S
H596 C589 0.961 . S
H597 C589 0.960 . S
H598 C590 0.930 . S
H599 C591 0.929 . S
H600 C608 0.929 . S
H601 C610 0.930 . S
H602 C612 0.930 . S
H603 C615 0.929 . S
H604 C618 0.930 . S
H605 C620 0.960 . S
H606 C620 0.960 . S
H607 C620 0.960 . S
C608 H600 0.929 . S
C608 C609 1.377 . S
C608 C610 1.384 . S
C609 C608 1.377 . S
C609 C615 1.390 . S
C610 H601 0.930 . S
C610 C608 1.384 . S
C610 C611 1.372 . S
C611 C610 1.372 . S
C611 C612 1.400 . S
C611 C616 1.490 . S
C612 H602 0.930 . S
C612 C611 1.400 . S
C612 C615 1.386 . S
H613 C629 0.930 . S
H614 C630 0.931 . S
C615 H603 0.929 . S
C615 C609 1.390 . S
C615 C612 1.386 . S
C616 C611 1.490 . S
C616 C618 1.395 . S
C616 C619 1.403 . S
H617 C623 0.930 . S
C618 H604 0.930 . S
C618 C616 1.395 . S
C618 C621 1.403 . S
C619 C616 1.403 . S
C619 C620 1.524 . S
C619 C623 1.400 . S
C620 H605 0.960 . S
C620 H606 0.960 . S
C620 H607 0.960 . S
C620 C619 1.524 . S
C621 C618 1.403 . S
C621 C622 1.392 . S
C621 C625 1.495 . S
C622 C621 1.392 . S
C622 C623 1.385 . S
C622 C624 1.478 . S
C623 H617 0.930 . S
C623 C619 1.400 . S
C623 C622 1.385 . S
C624 C622 1.478 . S
C624 C626 1.381 . S
C624 C630 1.383 . S
C625 C621 1.495 . S
C625 H631 0.959 . S
C625 H632 0.961 . S
C625 H633 0.960 . S
C626 C624 1.381 . S
C626 C627 1.394 . S
C626 H634 0.930 . S
C627 C626 1.394 . S
C627 C628 1.383 . S
C627 H635 0.929 . S
C628 C627 1.383 . S
C628 C629 1.377 . S
C629 H613 0.930 . S
C629 C628 1.377 . S
C629 C630 1.379 . S
C630 H614 0.931 . S
C630 C624 1.383 . S
C630 C629 1.379 . S
H631 C625 0.959 . S
H632 C625 0.961 . S
H633 C625 0.960 . S
H634 C626 0.930 . S
H635 C627 0.929 . S
H636 C644 0.929 . S
H637 C646 0.930 . S
H638 C648 0.930 . S
H639 C651 0.929 . S
H640 C654 0.930 . S
H641 C656 0.960 . S
H642 C656 0.960 . S
H643 C656 0.960 . S
C644 H636 0.929 . S
C644 C645 1.377 . S
C644 C646 1.384 . S
C645 C644 1.377 . S
C645 C651 1.390 . S
C646 H637 0.930 . S
C646 C644 1.384 . S
C646 C647 1.372 . S
C647 C646 1.372 . S
C647 C648 1.400 . S
C647 C652 1.490 . S
C648 H638 0.930 . S
C648 C647 1.400 . S
C648 C651 1.386 . S
H649 C665 0.930 . S
H650 C666 0.931 . S
C651 H639 0.929 . S
C651 C645 1.390 . S
C651 C648 1.386 . S
C652 C647 1.490 . S
C652 C654 1.395 . S
C652 C655 1.403 . S
H653 C659 0.930 . S
C654 H640 0.930 . S
C654 C652 1.395 . S
C654 C657 1.403 1_655 S
C655 C652 1.403 . S
C655 C656 1.524 . S
C655 C659 1.400 1_655 S
C656 H641 0.960 . S
C656 H642 0.960 . S
C656 H643 0.960 . S
C656 C655 1.524 . S
C657 C654 1.403 1_455 S
C657 C658 1.392 . S
C657 C661 1.495 . S
C658 C657 1.392 . S
C658 C659 1.385 . S
C658 C660 1.478 . S
C659 H653 0.930 . S
C659 C655 1.400 1_455 S
C659 C658 1.385 . S
C660 C658 1.478 . S
C660 C662 1.381 . S
C660 C666 1.383 . S
C661 C657 1.495 . S
C661 H667 0.959 . S
C661 H668 0.961 . S
C661 H669 0.960 . S
C662 C660 1.381 . S
C662 C663 1.394 . S
C662 H670 0.930 . S
C663 C662 1.394 . S
C663 C664 1.383 . S
C663 H671 0.929 . S
C664 C663 1.383 . S
C664 C665 1.377 . S
C665 H649 0.930 . S
C665 C664 1.377 . S
C665 C666 1.379 . S
C666 H650 0.931 . S
C666 C660 1.383 . S
C666 C665 1.379 . S
H667 C661 0.959 . S
H668 C661 0.961 . S
H669 C661 0.960 . S
H670 C662 0.930 . S
H671 C663 0.929 . S
H672 C680 0.929 . S
H673 C682 0.930 . S
H674 C684 0.930 . S
H675 C687 0.929 . S
H676 C690 0.930 . S
H677 C692 0.960 . S
H678 C692 0.960 . S
H679 C692 0.960 . S
C680 H672 0.929 . S
C680 C681 1.377 . S
C680 C682 1.384 . S
C681 C680 1.377 . S
C681 C687 1.390 . S
C682 H673 0.930 . S
C682 C680 1.384 . S
C682 C683 1.372 . S
C683 C682 1.372 . S
C683 C684 1.400 . S
C683 C688 1.490 . S
C684 H674 0.930 . S
C684 C683 1.400 . S
C684 C687 1.386 . S
H685 C701 0.930 . S
H686 C702 0.931 . S
C687 H675 0.929 . S
C687 C681 1.390 . S
C687 C684 1.386 . S
C688 C683 1.490 . S
C688 C690 1.395 . S
C688 C691 1.403 . S
H689 C695 0.930 . S
C690 H676 0.930 . S
C690 C688 1.395 . S
C690 C693 1.403 1_545 S
C691 C688 1.403 . S
C691 C692 1.524 . S
C691 C695 1.400 1_545 S
C692 H677 0.960 . S
C692 H678 0.960 . S
C692 H679 0.960 . S
C692 C691 1.524 . S
C693 C690 1.403 1_565 S
C693 C694 1.392 . S
C693 C697 1.495 . S
C694 C693 1.392 . S
C694 C695 1.385 . S
C694 C696 1.478 . S
C695 H689 0.930 . S
C695 C691 1.400 1_565 S
C695 C694 1.385 . S
C696 C694 1.478 . S
C696 C698 1.381 . S
C696 C702 1.383 . S
C697 C693 1.495 . S
C697 H703 0.959 . S
C697 H704 0.961 . S
C697 H705 0.960 . S
C698 C696 1.381 . S
C698 C699 1.394 . S
C698 H706 0.930 . S
C699 C698 1.394 . S
C699 C700 1.383 . S
C699 H707 0.929 . S
C700 C699 1.383 . S
C700 C701 1.377 . S
C701 H685 0.930 . S
C701 C700 1.377 . S
C701 C702 1.379 . S
C702 H686 0.931 . S
C702 C696 1.383 . S
C702 C701 1.379 . S
H703 C697 0.959 . S
H704 C697 0.961 . S
H705 C697 0.960 . S
H706 C698 0.930 . S
H707 C699 0.929 . S
H708 C716 0.929 . S
H709 C718 0.930 . S
H710 C720 0.930 . S
H711 C723 0.929 . S
H712 C726 0.930 . S
H713 C728 0.960 . S
H714 C728 0.960 . S
H715 C728 0.960 . S
C716 H708 0.929 . S
C716 C717 1.377 . S
C716 C718 1.384 . S
C717 C716 1.377 . S
C717 C723 1.390 . S
C718 H709 0.930 . S
C718 C716 1.384 . S
C718 C719 1.372 . S
C719 C718 1.372 . S
C719 C720 1.400 . S
C719 C724 1.490 . S
C720 H710 0.930 . S
C720 C719 1.400 . S
C720 C723 1.386 . S
H721 C737 0.930 . S
H722 C738 0.931 . S
C723 H711 0.929 . S
C723 C717 1.390 . S
C723 C720 1.386 . S
C724 C719 1.490 . S
C724 C726 1.395 . S
C724 C727 1.403 . S
H725 C731 0.930 . S
C726 H712 0.930 . S
C726 C724 1.395 . S
C726 C729 1.403 . S
C727 C724 1.403 . S
C727 C728 1.524 . S
C727 C731 1.400 . S
C728 H713 0.960 . S
C728 H714 0.960 . S
C728 H715 0.960 . S
C728 C727 1.524 . S
C729 C726 1.403 . S
C729 C730 1.392 . S
C729 C733 1.495 . S
C730 C729 1.392 . S
C730 C731 1.385 . S
C730 C732 1.478 . S
C731 H725 0.930 . S
C731 C727 1.400 . S
C731 C730 1.385 . S
C732 C730 1.478 . S
C732 C734 1.381 . S
C732 C738 1.383 . S
C733 C729 1.495 . S
C733 H739 0.959 . S
C733 H740 0.961 . S
C733 H741 0.960 . S
C734 C732 1.381 . S
C734 C735 1.394 . S
C734 H742 0.930 . S
C735 C734 1.394 . S
C735 C736 1.383 . S
C735 H743 0.929 . S
C736 C735 1.383 . S
C736 C737 1.377 . S
C737 H721 0.930 . S
C737 C736 1.377 . S
C737 C738 1.379 . S
C738 H722 0.931 . S
C738 C732 1.383 . S
C738 C737 1.379 . S
H739 C733 0.959 . S
H740 C733 0.961 . S
H741 C733 0.960 . S
H742 C734 0.930 . S
H743 C735 0.929 . S
C213 C33 1.343 . S
C232 C70 1.287 . S
C249 C67 1.349 . S
C268 C104 1.324 . S
C285 C138 1.307 . S
C304 C101 1.329 . S
C321 C172 1.305 . S
C340 C135 1.331 . S
C357 C169 1.345 . S
C376 C2 1.319 . S
C393 C36 1.309 . S
C412 C203 1.331 . S
C429 C5 1.035 . S
C448 C9 1.017 . S
C465 C43 1.031 . S
C484 C39 1.021 . S
C501 C73 1.032 . S
C520 C77 1.035 . S
C537 C107 1.034 . S
C556 C111 1.017 . S
C573 C141 1.029 . S
C592 C145 1.048 . S
C609 C179 1.028 . S
C628 C175 1.025 . S
C645 C122 1.502 . S
C664 C20 1.493 . S
C681 C54 1.502 . S
C700 C156 1.492 . S
C717 C88 1.504 . S
C736 C190 1.499 . S
