# Generated by pormake.
# Topology ilc, (8)-cn, num edge types: 1
# Building blocks:
#     Node 0, Type 0, BuildingBlock: OLANEW_clean_sbu_1, # of connection points: 8
#     Node 1, Type 0, BuildingBlock: OLANEW_clean_sbu_1, # of connection points: 8
#     Node 2, Type 0, BuildingBlock: OLANEW_clean_sbu_1, # of connection points: 8
#     Edge 3, Type (0, 0), BuildingBlock: FUNLAD_clean_linker_1, # of connection points: 2
#     Edge 4, Type (0, 0), BuildingBlock: FUNLAD_clean_linker_1, # of connection points: 2
#     Edge 5, Type (0, 0), BuildingBlock: FUNLAD_clean_linker_1, # of connection points: 2
#     Edge 6, Type (0, 0), BuildingBlock: FUNLAD_clean_linker_1, # of connection points: 2
#     Edge 7, Type (0, 0), BuildingBlock: FUNLAD_clean_linker_1, # of connection points: 2
#     Edge 8, Type (0, 0), BuildingBlock: FUNLAD_clean_linker_1, # of connection points: 2
#     Edge 9, Type (0, 0), BuildingBlock: FUNLAD_clean_linker_1, # of connection points: 2
#     Edge 10, Type (0, 0), BuildingBlock: FUNLAD_clean_linker_1, # of connection points: 2
#     Edge 11, Type (0, 0), BuildingBlock: FUNLAD_clean_linker_1, # of connection points: 2
#     Edge 12, Type (0, 0), BuildingBlock: FUNLAD_clean_linker_1, # of connection points: 2
#     Edge 13, Type (0, 0), BuildingBlock: FUNLAD_clean_linker_1, # of connection points: 2
#     Edge 14, Type (0, 0), BuildingBlock: FUNLAD_clean_linker_1, # of connection points: 2
# Relax obj value: 0.098
# Max RMSD: 0.123
# Mean RMSD: 0.123
data_MOF--net-ilc--node1-OLANEW_clean_sbu_1--edge1-FUNLAD_clean_linker_1
_symmetry_space_group_name_H-M    P1
_symmetry_Int_Tables_number       1
_symmetry_cell_setting            triclinic
loop_
_symmetry_equiv_pos_as_xyz
'x, y, z'
_cell_length_a     19.837119
_cell_length_b     29.494272
_cell_length_c     24.404528
_cell_angle_alpha  113.44377
_cell_angle_beta   88.84041
_cell_angle_gamma 142.35611
loop_
_atom_site_label
_atom_site_type_symbol
_atom_site_fract_x
_atom_site_fract_y
_atom_site_fract_z
_atom_type_partial_charge
Cd0 Cd 0.9871 0.92863 0.13431 0.0
Cd1 Cd 0.89298 0.92842 0.04287 0.0
C2 C 0.12 0.15252 0.11002 0.0
Cd3 Cd 0.93447 0.02372 0.82836 0.0
Cd4 Cd 0.06206 0.06146 0.93865 0.0
C5 C 0.90593 0.11628 0.82323 0.0
O6 O 0.03058 0.18422 0.85132 0.0
O7 O 0.76763 0.79411 0.10645 0.0
O8 O 0.7829 0.87869 0.11312 0.0
O9 O -0.00568 0.06541 0.75289 0.0
O10 O 0.11046 0.15515 0.05991 0.0
O11 O 0.10758 0.10074 0.103 0.0
C12 C 0.16079 0.08069 0.81783 0.0
O13 O 0.83283 0.04168 0.81597 0.0
C14 C 0.10779 0.06603 0.29906 0.0
O15 O 0.17392 0.06601 0.29803 0.0
O16 O 0.05057 0.02842 0.78038 0.0
O17 O 0.1995 0.11297 0.8817 0.0
C18 C 0.87233 0.83675 0.88771 0.0
O19 O 0.0316 0.02704 0.24193 0.0
O20 O 0.84301 0.82462 0.93281 0.0
O21 O 0.93781 0.91035 0.89648 0.0
C22 C 0.73997 0.82244 0.12377 0.0
O23 O 0.0916 0.92649 0.18253 0.0
C24 C 0.91418 0.02911 0.70074 0.0
O25 O 0.79749 0.96993 0.68865 0.0
C26 C 0.03774 0.85389 0.16687 0.0
O27 O 0.91611 0.76831 0.11522 0.0
Cd28 Cd 0.78327 0.35236 0.53693 0.0
Cd29 Cd 0.52802 0.26075 0.34654 0.0
C30 C 0.78322 0.49232 0.43165 0.0
Cd31 Cd 0.7033 0.46071 0.11893 0.0
Cd32 Cd 0.76233 0.39499 0.28119 0.0
C33 C 0.45384 0.38632 0.12353 0.0
O34 O 0.54221 0.40967 0.14832 0.0
O35 O 0.58104 0.27037 0.47701 0.0
O36 O 0.41928 0.2089 0.41423 0.0
O37 O 0.56132 0.30914 0.01706 0.0
O38 O 0.78396 0.48923 0.37786 0.0
O39 O 0.7468 0.43308 0.43296 0.0
C40 C 0.82726 0.4382 0.163 0.0
O41 O 0.54004 0.40908 0.14781 0.0
C42 C 0.79368 0.33215 0.65444 0.0
O43 O 0.89151 0.36603 0.65383 0.0
O44 O 0.791 0.45982 0.18136 0.0
O45 O 0.84177 0.42059 0.19688 0.0
C46 C 0.51665 0.16322 0.20505 0.0
O47 O 0.74327 0.33074 0.6212 0.0
O48 O 0.50507 0.16382 0.25681 0.0
O49 O 0.55539 0.22143 0.20029 0.0
C50 C 0.4767 0.22977 0.46632 0.0
O51 O 0.8324 0.29313 0.5084 0.0
C52 C 0.50362 0.2989 0.97784 0.0
O53 O 0.42069 0.27911 0.98867 0.0
C54 C 0.76065 0.22592 0.51167 0.0
O55 O 0.65304 0.18052 0.50722 0.0
Cd56 Cd 0.50456 0.73184 0.87734 0.0
Cd57 Cd 0.16308 0.56656 0.6727 0.0
C58 C 0.46578 0.82978 0.76986 0.0
Cd59 Cd 0.23047 0.66112 0.46894 0.0
Cd60 Cd 0.50451 0.76046 0.64412 0.0
C61 C 0.22451 0.7763 0.48698 0.0
O62 O 0.35143 0.8527 0.52325 0.0
O63 O 0.28416 0.62914 0.81469 0.0
O64 O 0.09574 0.54331 0.76031 0.0
O65 O 0.27674 0.68816 0.38878 0.0
O66 O 0.54263 0.8622 0.74685 0.0
O67 O 0.3615 0.7408 0.73881 0.0
C68 C 0.52832 0.77736 0.52281 0.0
O69 O 0.15711 0.70151 0.47673 0.0
C70 C 0.44564 0.70901 0.9845 0.0
O71 O 0.41474 0.64458 0.94017 0.0
O72 O 0.43334 0.74339 0.52654 0.0
O73 O 0.59856 0.8009 0.5689 0.0
C74 C 0.21567 0.52481 0.54755 0.0
O75 O 0.50833 0.77538 0.98244 0.0
O76 O 0.15198 0.48136 0.57246 0.0
O77 O 0.26843 0.59925 0.57206 0.0
C78 C 0.18294 0.58757 0.815 0.0
O79 O 0.56419 0.68492 0.88776 0.0
C80 C 0.20859 0.66622 0.34327 0.0
O81 O 0.09485 0.61374 0.33234 0.0
C82 C 0.48635 0.60185 0.86267 0.0
O83 O 0.36311 0.52864 0.81665 0.0
H84 H 0.879 0.02151 0.6118 0.0
C85 C 0.94745 0.04768 0.65133 0.0
H86 H 0.10922 0.10218 0.68438 0.0
H87 H 0.74311 0.75744 0.33102 0.0
H88 H 0.69987 0.6879 0.37971 0.0
H89 H 0.78404 0.76407 0.50372 0.0
H90 H 0.9297 0.92383 0.59134 0.0
C91 C 0.04601 0.08172 0.64777 0.0
C92 C 0.04438 0.065 0.58281 0.0
C93 C 0.94137 0.95174 0.51942 0.0
C94 C 0.87916 0.89947 0.43182 0.0
C95 C 0.79332 0.80334 0.38775 0.0
C96 C 0.76489 0.76001 0.41552 0.0
C97 C 0.81352 0.80381 0.48689 0.0
C98 C 0.89818 0.89619 0.53739 0.0
H99 H 0.18405 0.13877 0.41125 0.0
C100 C 0.10065 0.09013 0.3622 0.0
H101 H 0.90054 0.98005 0.30839 0.0
H102 H 0.17295 0.23631 0.67904 0.0
H103 H 0.23678 0.34268 0.67096 0.0
H104 H 0.18977 0.31457 0.56056 0.0
H105 H 0.09466 0.18607 0.45263 0.0
C106 C 0.98578 0.03247 0.35812 0.0
C107 C 0.97091 0.02183 0.41585 0.0
C108 C 0.0716 0.1263 0.49623 0.0
C109 C 0.10291 0.14363 0.57242 0.0
C110 C 0.16249 0.22377 0.63002 0.0
C111 C 0.19504 0.28388 0.62475 0.0
C112 C 0.16955 0.26858 0.56172 0.0
C113 C 0.11431 0.19434 0.49955 0.0
H114 H 0.80441 0.31809 0.73442 0.0
C115 C 0.74788 0.30219 0.69721 0.0
H116 H 0.59493 0.25506 0.6613 0.0
H117 H 0.55623 0.24156 0.9193 0.0
H118 H 0.38094 0.07469 0.8292 0.0
H119 H 0.33612 0.01005 0.70795 0.0
H120 H 0.46916 0.11639 0.67857 0.0
C121 C 0.65356 0.27398 0.69996 0.0
C122 C 0.66393 0.30694 0.7674 0.0
C123 C 0.58594 0.24406 0.78272 0.0
C124 C 0.60305 0.27846 0.85 0.0
C125 C 0.53471 0.21675 0.86674 0.0
C126 C 0.43722 0.12078 0.81557 0.0
C127 C 0.41259 0.08501 0.74771 0.0
C128 C 0.48911 0.14655 0.73165 0.0
H129 H 0.58539 0.40424 0.97262 0.0
C130 C 0.57963 0.36119 0.95822 0.0
H131 H 0.77572 0.4775 0.00776 0.0
H132 H 0.81239 0.44031 0.74686 0.0
H133 H 0.94834 0.59752 0.82633 0.0
H134 H 0.9624 0.65378 0.93908 0.0
H135 H 0.84508 0.55504 0.97344 0.0
C136 C 0.68624 0.40259 0.96356 0.0
C137 C 0.68595 0.3723 0.89821 0.0
C138 C 0.75856 0.43384 0.88032 0.0
C139 C 0.74831 0.401 0.81482 0.0
C140 C 0.81844 0.46193 0.79656 0.0
C141 C 0.89619 0.55246 0.84149 0.0
C142 C 0.90391 0.58396 0.9048 0.0
C143 C 0.83627 0.52595 0.92425 0.0
H144 H 0.37339 0.72595 0.04062 0.0
C145 C 0.38441 0.69303 0.02467 0.0
H146 H 0.35736 0.61039 0.03039 0.0
H147 H 0.353 0.81894 0.27825 0.0
H148 H 0.56481 0.9688 0.3048 0.0
H149 H 0.66342 0.97228 0.24154 0.0
H150 H 0.55713 0.82959 0.15174 0.0
C151 C 0.34927 0.64533 0.04626 0.0
C152 C 0.30544 0.64538 0.09559 0.0
C153 C 0.37923 0.7327 0.15508 0.0
C154 C 0.32656 0.73142 0.19527 0.0
C155 C 0.39273 0.81726 0.24826 0.0
C156 C 0.51293 0.90305 0.26405 0.0
C157 C 0.56979 0.9055 0.22862 0.0
C158 C 0.50572 0.82212 0.17593 0.0
H159 H 0.35188 0.73798 0.31354 0.0
C160 C 0.25505 0.69237 0.29924 0.0
H161 H 0.07943 0.60151 0.2209 0.0
H162 H 0.14097 0.46512 0.98689 0.0
H163 H 0.96906 0.32641 0.98212 0.0
H164 H 0.9199 0.33697 0.07588 0.0
H165 H 0.0356 0.48383 0.17138 0.0
C166 C 0.17714 0.64931 0.23705 0.0
C167 C 0.2137 0.64609 0.18453 0.0
C168 C 0.15209 0.56204 0.13244 0.0
C169 C 0.19067 0.5594 0.08359 0.0
C170 C 0.11902 0.47199 0.02732 0.0
C171 C 0.02056 0.392 0.02413 0.0
C172 C -0.00736 0.39779 0.07675 0.0
C173 C 0.05863 0.48217 0.1308 0.0
H174 H 0.06885 0.69146 0.38894 0.0
C175 C 0.16249 0.76383 0.43578 0.0
H176 H 0.31845 0.90894 0.48674 0.0
H177 H 0.30053 0.92883 0.2455 0.0
H178 H 0.51821 0.0356 0.30966 0.0
H179 H 0.58038 0.04189 0.40221 0.0
H180 H 0.42927 0.94625 0.43367 0.0
C181 C 0.2242 0.83692 0.43981 0.0
C182 C 0.17847 0.8237 0.37813 0.0
C183 C 0.2679 0.87888 0.3587 0.0
C184 C 0.22984 0.87178 0.30285 0.0
C185 C 0.32318 0.93058 0.28693 0.0
C186 C 0.44871 0.99219 0.32321 0.0
C187 C 0.48401 -0.00381 0.37556 0.0
C188 C 0.39568 0.94069 0.39332 0.0
H189 H 0.18548 0.9373 0.26877 0.0
C190 C 0.10317 0.8678 0.21717 0.0
H191 H 0.97321 0.72646 0.15363 0.0
H192 H 0.98515 0.71809 0.4068 0.0
H193 H 0.76748 0.60976 0.34089 0.0
H194 H 0.69894 0.59026 0.23974 0.0
H195 H 0.84513 0.67457 0.20115 0.0
C196 C 0.05692 0.79649 0.20476 0.0
C197 C 0.1 0.80553 0.26351 0.0
C198 C 0.00962 0.74877 0.2816 0.0
C199 C 0.04912 0.75906 0.33964 0.0
C200 C 0.95908 0.70798 0.36013 0.0
C201 C 0.8339 0.64695 0.32367 0.0
C202 C 0.7952 0.63584 0.26662 0.0
C203 C 0.88089 0.68525 0.24526 0.0
H204 H 0.20186 0.49307 0.44599 0.0
C205 C 0.20439 0.48026 0.48133 0.0
H206 H 0.20545 0.41738 0.50007 0.0
H207 H 0.94938 0.10117 0.19301 0.0
H208 H 0.84407 0.02034 0.24273 0.0
H209 H 0.88708 0.10092 0.36031 0.0
H210 H 0.0351 0.26247 0.4287 0.0
C211 C 0.20013 0.42796 0.4636 0.0
C212 C 0.18456 0.38152 0.39449 0.0
C213 C 0.09295 0.28475 0.3533 0.0
C214 C 0.07003 0.2383 0.28555 0.0
C215 C 0.97589 0.14148 0.24579 0.0
C216 C 0.91313 0.0936 0.27333 0.0
C217 C 0.93714 0.13894 0.33946 0.0
C218 C 0.02336 0.23238 0.37843 0.0
H219 H 0.19053 0.22331 0.22287 0.0
C220 C 0.15193 0.2118 0.17895 0.0
H221 H 0.08185 0.23026 0.14598 0.0
H222 H 0.40745 0.57451 0.46914 0.0
H223 H 0.53727 0.66058 0.42612 0.0
H224 H 0.46922 0.57584 0.30158 0.0
H225 H 0.2857 0.40468 0.22302 0.0
C226 C 0.12158 0.24123 0.18884 0.0
C227 C 0.13971 0.28818 0.2585 0.0
C228 C 0.23379 0.38526 0.30036 0.0
C229 C 0.26172 0.43304 0.36959 0.0
C230 C 0.37339 0.53331 0.41425 0.0
C231 C 0.44898 0.5838 0.39016 0.0
C232 C 0.4124 0.53616 0.32048 0.0
C233 C 0.3067 0.43797 0.27595 0.0
H234 H 0.47815 0.69815 0.41652 0.0
C235 C 0.53812 0.76698 0.45897 0.0
H236 H 0.68179 0.90588 0.49656 0.0
H237 H 0.88272 0.85907 0.28294 0.0
H238 H 0.11276 0.00073 0.39893 0.0
H239 H 0.17542 0.1053 0.5306 0.0
H240 H 0.87372 0.00689 0.5175 0.0
C241 C 0.61912 0.83665 0.452 0.0
C242 C 0.63327 0.8253 0.38755 0.0
C243 C 0.75727 0.89046 0.39623 0.0
C244 C 0.76653 0.85307 0.32799 0.0
C245 C 0.89429 0.8928 0.33171 0.0
C246 C 0.0415 0.983 0.40454 0.0
C247 C 0.07862 0.04689 0.48606 0.0
C248 C 0.88465 0.98289 0.47782 0.0
H249 H 0.67733 0.84345 0.19073 0.0
C250 C 0.68757 0.81018 0.1712 0.0
H251 H 0.69664 0.74912 0.18511 0.0
H252 H 0.37697 0.6777 0.3454 0.0
H253 H 0.19984 0.52383 0.23292 0.0
H254 H 0.22862 0.50433 0.13253 0.0
H255 H 0.43181 0.64443 0.14561 0.0
C256 C 0.67563 0.77507 0.20047 0.0
C257 C 0.66025 0.78757 0.26293 0.0
C258 C 0.54023 0.73107 0.25805 0.0
C259 C 0.5254 0.74354 0.31789 0.0
C260 C 0.39842 0.67063 0.30538 0.0
C261 C 0.2939 0.5828 0.23999 0.0
C262 C 0.30943 0.57273 0.18333 0.0
C263 C 0.42738 0.65099 0.19169 0.0
H264 H 0.89026 0.24283 0.53639 0.0
C265 C 0.81698 0.22167 0.54388 0.0
H266 H 0.71416 0.18126 0.59599 0.0
H267 H 0.66187 0.96578 0.63197 0.0
H268 H 0.48373 0.83956 0.50962 0.0
H269 H 0.48394 0.87624 0.4358 0.0
H270 H 0.64648 0.03807 0.48561 0.0
C271 C 0.78572 0.20044 0.58793 0.0
C272 C 0.83227 0.19209 0.62331 0.0
C273 C 0.74898 0.10006 0.59219 0.0
C274 C 0.75862 0.08045 0.63345 0.0
C275 C 0.66271 0.9852 0.60222 0.0
C276 C 0.56163 0.91247 0.53232 0.0
C277 C 0.55979 0.9328 0.49059 0.0
C278 C 0.6525 0.02563 0.51994 0.0
H279 H 0.76374 0.08256 0.77715 0.0
C280 C 0.84827 0.11324 0.78065 0.0
H281 H 0.98082 0.17288 0.74679 0.0
H282 H 0.02442 0.3802 0.69697 0.0
H283 H 0.19408 0.50644 0.82124 0.0
H284 H 0.2027 0.47107 0.89378 0.0
H285 H 0.05259 0.31178 0.84219 0.0
C286 C 0.89741 0.14383 0.74328 0.0
C287 C 0.85982 0.15526 0.70492 0.0
C288 C 0.94514 0.248 0.73587 0.0
C289 C 0.93301 0.26689 0.69494 0.0
C290 C 0.02446 0.36134 0.72687 0.0
C291 C 0.12192 0.43414 0.79769 0.0
C292 C 0.12885 0.41471 0.83851 0.0
C293 C 0.04249 0.32299 0.80812 0.0
H294 H 0.83361 0.60403 0.48723 0.0
C295 C 0.81565 0.56024 0.49142 0.0
H296 H 0.79383 0.5182 0.55177 0.0
H297 H 0.09155 0.8917 0.82887 0.0
H298 H 0.28 0.96419 0.83586 0.0
H299 H 0.27111 0.89033 0.73236 0.0
H300 H 0.06264 0.73217 0.6243 0.0
C301 C 0.81406 0.56324 0.54817 0.0
C302 C 0.82472 0.61793 0.6045 0.0
C303 C 0.94772 0.71435 0.66325 0.0
C304 C 0.95657 0.76195 0.72114 0.0
C305 C 0.07945 0.85386 0.78231 0.0
C306 C 0.1899 0.89722 0.78665 0.0
C307 C 0.18344 0.85437 0.72895 0.0
C308 C 0.06352 0.76379 0.66741 0.0
H309 H 0.79907 0.71359 0.82575 0.0
C310 C 0.83729 0.76779 0.82678 0.0
H311 H 0.89869 0.82935 0.77696 0.0
H312 H 0.57441 0.42901 0.50701 0.0
H313 H 0.38232 0.34708 0.50975 0.0
H314 H 0.40204 0.43686 0.60634 0.0
H315 H 0.60809 0.60298 0.70088 0.0
C316 C 0.85712 0.77349 0.77489 0.0
C317 C 0.84377 0.71603 0.71916 0.0
C318 C 0.72115 0.6186 0.66198 0.0
C319 C 0.71157 0.56899 0.60544 0.0
C320 C 0.58748 0.47038 0.55083 0.0
C321 C 0.47657 0.42259 0.55166 0.0
C322 C 0.48676 0.47217 0.60582 0.0
C323 C 0.60676 0.5687 0.66019 0.0
H324 H 0.35892 0.20265 0.51159 0.0
C325 C 0.4258 0.21353 0.51469 0.0
H326 H 0.50772 0.20731 0.55527 0.0
H327 H 0.45107 0.28412 0.8231 0.0
H328 H 0.60802 0.44138 0.8617 0.0
H329 H 0.66285 0.47836 0.78032 0.0
H330 H 0.56607 0.3591 0.66095 0.0
C331 C 0.45112 0.20546 0.55783 0.0
C332 C 0.38695 0.17684 0.59998 0.0
C333 C 0.44096 0.24545 0.66912 0.0
C334 C 0.40032 0.22143 0.71473 0.0
C335 C 0.46802 0.29535 0.7849 0.0
C336 C 0.56049 0.38661 0.80791 0.0
C337 C 0.59169 0.40754 0.76218 0.0
C338 C 0.53565 0.33871 0.69405 0.0
H339 H 0.34887 0.16788 0.82547 0.0
C340 C 0.25054 0.11482 0.78978 0.0
H341 H 0.1125 0.02987 0.68948 0.0
H342 H 0.24634 0.0246 0.46848 0.0
H343 H 0.06349 0.8624 0.42351 0.0
H344 H -0.00158 0.81943 0.50147 0.0
H345 H 0.10706 0.93975 0.62408 0.0
C346 C 0.21453 0.08808 0.72389 0.0
C347 C 0.2948 0.12555 0.68946 0.0
C348 C 0.24027 0.05724 0.61961 0.0
C349 C 0.28458 0.08243 0.57533 0.0
C350 C 0.22028 0.0103 0.50493 0.0
C351 C 0.11577 0.91648 0.47852 0.0
C352 C 0.07791 0.89253 0.5222 0.0
C353 C 0.13985 0.96199 0.59214 0.0
H354 H 0.35946 0.36947 0.05215 0.0
C355 C 0.44373 0.39928 0.07339 0.0
H356 H 0.62478 0.48834 0.08236 0.0
H357 H 0.41165 0.42187 0.81319 0.0
H358 H 0.29052 0.26853 0.74564 0.0
H359 H 0.23703 0.19854 0.8014 0.0
H360 H 0.35749 0.2964 0.92753 0.0
C361 C 0.53586 0.45284 0.0587 0.0
C362 C 0.52831 0.47976 0.02157 0.0
C363 C 0.4604 0.42156 0.94734 0.0
C364 C 0.45871 0.45096 0.91378 0.0
C365 C 0.40396 0.3979 0.84059 0.0
C366 C 0.32827 0.30828 0.80093 0.0
C367 C 0.30451 0.2706 0.83293 0.0
C368 C 0.3759 0.32804 0.90531 0.0
H369 H 0.62837 0.64259 0.92269 0.0
C370 C 0.52808 0.59218 0.89962 0.0
H371 H 0.34905 0.48141 0.89106 0.0
H372 H 0.63226 0.59537 0.16353 0.0
H373 H 0.49161 0.57448 0.18642 0.0
H374 H 0.33443 0.51109 0.0909 0.0
H375 H 0.3769 0.53171 0.00309 0.0
C376 C 0.4478 0.52918 0.91176 0.0
C377 C 0.48672 0.5192 0.95123 0.0
C378 C 0.504 0.54769 0.01859 0.0
C379 C 0.55313 0.54631 0.05834 0.0
C380 C 0.57732 0.58116 0.12718 0.0
C381 C 0.4972 0.5689 0.14051 0.0
C382 C 0.41564 0.54059 0.09041 0.0
C383 C 0.43507 0.54625 0.03689 0.0
H384 H 0.59535 0.97224 0.86213 0.0
C385 C 0.50076 0.89637 0.83416 0.0
H386 H 0.32752 0.79067 0.83217 0.0
H387 H 0.53869 0.03884 0.15353 0.0
H388 H 0.49589 0.93123 0.1407 0.0
H389 H 0.43069 0.82144 0.02942 0.0
H390 H 0.40992 0.81864 0.93067 0.0
C391 C 0.4209 0.86642 0.85919 0.0
C392 C 0.45808 0.933 0.92636 0.0
C393 C 0.46142 0.92943 0.98253 0.0
C394 C 0.49454 0.99088 0.04624 0.0
C395 C 0.5082 0.99108 0.1031 0.0
C396 C 0.48568 0.93055 0.09683 0.0
C397 C 0.44875 0.86848 0.03413 0.0
C398 C 0.4366 0.86745 0.97757 0.0
H399 H 0.39348 0.01915 0.1273 0.0
C400 C 0.48091 0.09258 0.14741 0.0
H401 H 0.64392 0.19457 0.1422 0.0
H402 H 0.45061 0.95472 0.82857 0.0
H403 H 0.49384 0.06219 0.84184 0.0
H404 H 0.5465 0.16587 0.95079 0.0
H405 H 0.55727 0.16291 0.04686 0.0
C406 C 0.55552 0.1198 0.11921 0.0
C407 C 0.51799 0.05289 0.0528 0.0
C408 C 0.51456 0.05656 -0.00321 0.0
C409 C 0.48469 -0.00311 0.93382 0.0
C410 C 0.47809 0.0007 0.87859 0.0
C411 C 0.50323 0.06266 0.88563 0.0
C412 C 0.5323 0.12067 0.94668 0.0
C413 C 0.53755 0.11776 0.00157 0.0
H414 H 0.2543 0.64961 0.92714 0.0
C415 C 0.16764 0.5919 0.87704 0.0
H416 H 0.96617 0.47029 0.82165 0.0
H417 H 0.74619 0.30283 0.97276 0.0
H418 H 0.70694 0.19795 0.88308 0.0
H419 H 0.80266 0.23471 0.81143 0.0
H420 H 0.94772 0.38129 0.83253 0.0
C421 C 0.05127 0.52722 0.87272 0.0
C422 C 0.02718 0.52115 0.93146 0.0
C423 C 0.94503 0.43714 0.92214 0.0
C424 C 0.89424 0.41815 0.9672 0.0
C425 C 0.80045 0.32743 0.94792 0.0
C426 C 0.77117 0.26371 0.89367 0.0
C427 C 0.82627 0.28479 0.8535 0.0
C428 C 0.90981 0.36935 0.86641 0.0
H429 H 0.84159 0.38477 0.08107 0.0
C430 C 0.84521 0.42656 0.10101 0.0
H431 H 0.87701 0.51122 0.0998 0.0
H432 H 0.16502 0.68251 0.96173 0.0
H433 H 0.23269 0.80046 0.06201 0.0
H434 H 0.1904 0.78708 0.15404 0.0
H435 H 0.07075 0.65322 0.14485 0.0
C436 C 0.8795 0.47305 0.07651 0.0
C437 C 0.93561 0.48829 0.02784 0.0
C438 C 0.02862 0.57657 0.04024 0.0
C439 C 0.06711 0.59011 0.99053 0.0
C440 C 0.14086 0.67177 -0.00025 0.0
C441 C 0.18081 0.74027 0.05714 0.0
C442 C 0.15544 0.73219 0.10865 0.0
C443 C 0.08287 0.65285 0.10142 0.0
loop_
_geom_bond_atom_site_label_1
_geom_bond_atom_site_label_2
_geom_bond_distance
_geom_bond_site_symmetry_2
_ccdc_geom_bond_type
Cd0 O7 2.298 . S
Cd0 O19 2.255 . S
Cd0 O23 2.218 1_655 S
Cd1 O8 2.269 . S
Cd1 O11 2.237 1_665 S
Cd1 O20 2.201 1_554 S
C2 O10 1.266 . S
C2 O11 1.194 . S
Cd3 O9 2.255 . S
Cd3 O13 2.218 1_455 S
Cd3 O16 2.298 . S
Cd4 O10 2.201 1_556 S
Cd4 O17 2.269 . S
Cd4 O21 2.237 1_445 S
C5 O6 1.201 . S
C5 O13 1.235 . S
O6 C5 1.201 . S
O7 Cd0 2.298 . S
O7 C22 1.265 . S
O8 Cd1 2.269 . S
O8 C22 1.233 . S
O9 Cd3 2.255 . S
O9 C24 1.210 1_455 S
O10 C2 1.266 . S
O10 Cd4 2.201 1_554 S
O11 Cd1 2.237 1_445 S
O11 C2 1.194 . S
C12 O16 1.265 . S
C12 O17 1.233 . S
O13 Cd3 2.218 1_655 S
O13 C5 1.235 . S
C14 O15 1.269 . S
C14 O19 1.210 1_455 S
O15 C14 1.269 . S
O16 Cd3 2.298 . S
O16 C12 1.265 . S
O17 Cd4 2.269 . S
O17 C12 1.233 . S
C18 O20 1.266 . S
C18 O21 1.194 . S
O19 Cd0 2.255 . S
O19 C14 1.210 1_655 S
O20 Cd1 2.201 1_556 S
O20 C18 1.266 . S
O21 Cd4 2.237 1_665 S
O21 C18 1.194 . S
C22 O7 1.265 . S
C22 O8 1.233 . S
O23 Cd0 2.218 1_455 S
O23 C26 1.235 . S
C24 O9 1.210 1_655 S
C24 O25 1.269 . S
O25 C24 1.269 . S
C26 O23 1.235 . S
C26 O27 1.201 . S
O27 C26 1.201 . S
Cd28 O35 2.298 . S
Cd28 O47 2.255 . S
Cd28 O51 2.218 . S
Cd29 O36 2.269 . S
Cd29 O39 2.237 . S
Cd29 O48 2.201 . S
C30 O38 1.266 . S
C30 O39 1.194 . S
Cd31 O37 2.255 . S
Cd31 O41 2.218 . S
Cd31 O44 2.298 . S
Cd32 O38 2.201 . S
Cd32 O45 2.269 . S
Cd32 O49 2.237 . S
C33 O34 1.201 . S
C33 O41 1.235 . S
O34 C33 1.201 . S
O35 Cd28 2.298 . S
O35 C50 1.265 . S
O36 Cd29 2.269 . S
O36 C50 1.233 . S
O37 Cd31 2.255 . S
O37 C52 1.210 1_554 S
O38 C30 1.266 . S
O38 Cd32 2.201 . S
O39 Cd29 2.237 . S
O39 C30 1.194 . S
C40 O44 1.265 . S
C40 O45 1.233 . S
O41 Cd31 2.218 . S
O41 C33 1.235 . S
C42 O43 1.269 . S
C42 O47 1.210 . S
O43 C42 1.269 . S
O44 Cd31 2.298 . S
O44 C40 1.265 . S
O45 Cd32 2.269 . S
O45 C40 1.233 . S
C46 O48 1.266 . S
C46 O49 1.194 . S
O47 Cd28 2.255 . S
O47 C42 1.210 . S
O48 Cd29 2.201 . S
O48 C46 1.266 . S
O49 Cd32 2.237 . S
O49 C46 1.194 . S
C50 O35 1.265 . S
C50 O36 1.233 . S
O51 Cd28 2.218 . S
O51 C54 1.235 . S
C52 O37 1.210 1_556 S
C52 O53 1.269 . S
O53 C52 1.269 . S
C54 O51 1.235 . S
C54 O55 1.201 . S
O55 C54 1.201 . S
Cd56 O63 2.298 . S
Cd56 O75 2.255 . S
Cd56 O79 2.218 . S
Cd57 O64 2.269 . S
Cd57 O67 2.237 . S
Cd57 O76 2.201 . S
C58 O66 1.266 . S
C58 O67 1.194 . S
Cd59 O65 2.255 . S
Cd59 O69 2.218 . S
Cd59 O72 2.298 . S
Cd60 O66 2.201 . S
Cd60 O73 2.269 . S
Cd60 O77 2.237 . S
C61 O62 1.201 . S
C61 O69 1.235 . S
O62 C61 1.201 . S
O63 Cd56 2.298 . S
O63 C78 1.265 . S
O64 Cd57 2.269 . S
O64 C78 1.233 . S
O65 Cd59 2.255 . S
O65 C80 1.210 . S
O66 C58 1.266 . S
O66 Cd60 2.201 . S
O67 Cd57 2.237 . S
O67 C58 1.194 . S
C68 O72 1.265 . S
C68 O73 1.233 . S
O69 Cd59 2.218 . S
O69 C61 1.235 . S
C70 O71 1.269 . S
C70 O75 1.210 1_554 S
O71 C70 1.269 . S
O72 Cd59 2.298 . S
O72 C68 1.265 . S
O73 Cd60 2.269 . S
O73 C68 1.233 . S
C74 O76 1.266 . S
C74 O77 1.194 . S
O75 Cd56 2.255 . S
O75 C70 1.210 1_556 S
O76 Cd57 2.201 . S
O76 C74 1.266 . S
O77 Cd60 2.237 . S
O77 C74 1.194 . S
C78 O63 1.265 . S
C78 O64 1.233 . S
O79 Cd56 2.218 . S
O79 C82 1.235 . S
C80 O65 1.210 . S
C80 O81 1.269 . S
O81 C80 1.269 . S
C82 O79 1.235 . S
C82 O83 1.201 . S
O83 C82 1.201 . S
H84 C85 0.951 . S
C85 H84 0.951 . S
C85 C91 1.265 1_655 S
H86 C91 0.950 . S
H87 C95 0.949 . S
H88 C96 0.950 . S
H89 C97 0.951 . S
H90 C98 0.951 . S
C91 C85 1.265 1_455 S
C91 H86 0.950 . S
C91 C92 1.478 . S
C92 C91 1.478 . S
C92 C93 1.397 1_445 S
C92 C109 1.394 . S
C93 C92 1.397 1_665 S
C93 C94 1.438 . S
C93 C98 1.429 . S
C94 C93 1.438 . S
C94 C95 1.428 . S
C94 C107 1.394 . S
C95 H87 0.949 . S
C95 C94 1.428 . S
C95 C96 1.345 . S
C96 H88 0.950 . S
C96 C95 1.345 . S
C96 C97 1.424 . S
C97 H89 0.951 . S
C97 C96 1.424 . S
C97 C98 1.347 . S
C98 H90 0.951 . S
C98 C93 1.429 . S
C98 C97 1.347 . S
H99 C100 0.951 . S
C100 H99 0.951 . S
C100 C106 1.265 1_455 S
H101 C106 0.950 . S
H102 C110 0.949 . S
H103 C111 0.950 . S
H104 C112 0.951 . S
H105 C113 0.951 . S
C106 C100 1.265 1_655 S
C106 H101 0.950 . S
C106 C107 1.478 . S
C107 C94 1.394 . S
C107 C106 1.478 . S
C107 C108 1.397 1_665 S
C108 C107 1.397 1_445 S
C108 C109 1.438 . S
C108 C113 1.429 . S
C109 C92 1.394 . S
C109 C108 1.438 . S
C109 C110 1.428 . S
C110 H102 0.949 . S
C110 C109 1.428 . S
C110 C111 1.345 . S
C111 H103 0.950 . S
C111 C110 1.345 . S
C111 C112 1.424 . S
C112 H104 0.951 . S
C112 C111 1.424 . S
C112 C113 1.347 . S
C113 H105 0.951 . S
C113 C108 1.429 . S
C113 C112 1.347 . S
H114 C115 0.951 . S
C115 H114 0.951 . S
C115 C121 1.265 . S
H116 C121 0.950 . S
H117 C125 0.949 . S
H118 C126 0.950 . S
H119 C127 0.951 1_565 S
H120 C128 0.951 . S
C121 C115 1.265 . S
C121 H116 0.950 . S
C121 C122 1.478 . S
C122 C121 1.478 . S
C122 C123 1.397 . S
C122 C139 1.394 . S
C123 C122 1.397 . S
C123 C124 1.438 . S
C123 C128 1.429 . S
C124 C123 1.438 . S
C124 C125 1.428 . S
C124 C137 1.394 . S
C125 H117 0.949 . S
C125 C124 1.428 . S
C125 C126 1.345 . S
C126 H118 0.950 . S
C126 C125 1.345 . S
C126 C127 1.424 . S
C127 H119 0.951 1_545 S
C127 C126 1.424 . S
C127 C128 1.347 . S
C128 H120 0.951 . S
C128 C123 1.429 . S
C128 C127 1.347 . S
H129 C130 0.951 . S
C130 H129 0.951 . S
C130 C136 1.265 . S
H131 C136 0.950 1_554 S
H132 C140 0.949 . S
H133 C141 0.950 1_455 S
H134 C142 0.951 1_455 S
H135 C143 0.957 . S
C136 C130 1.265 . S
C136 H131 0.950 1_556 S
C136 C137 1.478 . S
C137 C124 1.394 . S
C137 C136 1.478 . S
C137 C138 1.397 . S
C138 C137 1.397 . S
C138 C139 1.438 . S
C138 C143 1.429 . S
C139 C122 1.394 . S
C139 C138 1.438 . S
C139 C140 1.428 . S
C140 H132 0.949 . S
C140 C139 1.428 . S
C140 C141 1.345 . S
C141 H133 0.950 1_655 S
C141 C140 1.345 . S
C141 C142 1.424 . S
C142 H134 0.951 1_655 S
C142 C141 1.424 . S
C142 C143 1.347 . S
C143 H135 0.957 . S
C143 C138 1.429 . S
C143 C142 1.347 . S
H144 C145 0.951 1_556 S
C145 H144 0.951 1_554 S
C145 C151 1.265 . S
H146 C151 0.950 . S
H147 C155 0.949 . S
H148 C156 0.957 . S
H149 C157 0.951 . S
H150 C158 0.951 . S
C151 C145 1.265 . S
C151 H146 0.950 . S
C151 C152 1.478 . S
C152 C151 1.478 . S
C152 C153 1.397 . S
C152 C169 1.394 . S
C153 C152 1.397 . S
C153 C154 1.438 . S
C153 C158 1.429 . S
C154 C153 1.438 . S
C154 C155 1.428 . S
C154 C167 1.394 . S
C155 H147 0.949 . S
C155 C154 1.428 . S
C155 C156 1.345 . S
C156 H148 0.957 . S
C156 C155 1.345 . S
C156 C157 1.424 . S
C157 H149 0.951 . S
C157 C156 1.424 . S
C157 C158 1.347 . S
C158 H150 0.951 . S
C158 C153 1.429 . S
C158 C157 1.347 . S
H159 C160 0.951 . S
C160 H159 0.951 . S
C160 C166 1.265 . S
H161 C166 0.950 . S
H162 C170 0.949 . S
H163 C171 0.950 1_656 S
H164 C172 0.955 . S
H165 C173 0.951 . S
C166 C160 1.265 . S
C166 H161 0.950 . S
C166 C167 1.478 . S
C167 C154 1.394 . S
C167 C166 1.478 . S
C167 C168 1.397 . S
C168 C167 1.397 . S
C168 C169 1.438 . S
C168 C173 1.429 . S
C169 C152 1.394 . S
C169 C168 1.438 . S
C169 C170 1.428 . S
C170 H162 0.949 . S
C170 C169 1.428 . S
C170 C171 1.345 . S
C171 H163 0.950 1_454 S
C171 C170 1.345 . S
C171 C172 1.416 1_455 S
C172 H164 0.955 . S
C172 C171 1.416 1_655 S
C172 C173 1.351 1_655 S
C173 H165 0.951 . S
C173 C168 1.429 . S
C173 C172 1.351 1_455 S
H174 C175 0.951 . S
C175 H174 0.951 . S
C175 C181 1.265 . S
H176 C181 0.950 . S
H177 C185 0.949 . S
H178 C186 0.950 . S
H179 C187 0.951 . S
H180 C188 0.951 . S
C181 C175 1.265 . S
C181 H176 0.950 . S
C181 C182 1.478 . S
C182 C181 1.478 . S
C182 C183 1.397 . S
C182 C199 1.394 . S
C183 C182 1.397 . S
C183 C184 1.438 . S
C183 C188 1.429 . S
C184 C183 1.438 . S
C184 C185 1.428 . S
C184 C197 1.394 . S
C185 H177 0.949 . S
C185 C184 1.428 . S
C185 C186 1.345 1_565 S
C186 H178 0.950 . S
C186 C185 1.345 1_545 S
C186 C187 1.424 . S
C187 H179 0.951 . S
C187 C186 1.424 . S
C187 C188 1.347 1_545 S
C188 H180 0.951 . S
C188 C183 1.429 . S
C188 C187 1.347 1_565 S
H189 C190 0.951 . S
C190 H189 0.951 . S
C190 C196 1.265 . S
H191 C196 0.950 . S
H192 C200 0.949 . S
H193 C201 0.950 . S
H194 C202 0.951 . S
H195 C203 0.951 . S
C196 C190 1.265 . S
C196 H191 0.950 . S
C196 C197 1.478 . S
C197 C184 1.394 . S
C197 C196 1.478 . S
C197 C198 1.397 . S
C198 C197 1.397 . S
C198 C199 1.438 . S
C198 C203 1.429 1_455 S
C199 C182 1.394 . S
C199 C198 1.438 . S
C199 C200 1.428 1_455 S
C200 H192 0.949 . S
C200 C199 1.428 1_655 S
C200 C201 1.345 . S
C201 H193 0.950 . S
C201 C200 1.345 . S
C201 C202 1.424 . S
C202 H194 0.951 . S
C202 C201 1.424 . S
C202 C203 1.347 . S
C203 H195 0.951 . S
C203 C198 1.429 1_655 S
C203 C202 1.347 . S
H204 C205 0.951 . S
C205 H204 0.951 . S
C205 C211 1.265 . S
H206 C211 0.950 . S
H207 C215 0.949 . S
H208 C216 0.950 . S
H209 C217 0.951 . S
H210 C218 0.951 . S
C211 C205 1.265 . S
C211 H206 0.950 . S
C211 C212 1.478 . S
C212 C211 1.478 . S
C212 C213 1.397 . S
C212 C229 1.394 . S
C213 C212 1.397 . S
C213 C214 1.438 . S
C213 C218 1.429 . S
C214 C213 1.438 . S
C214 C215 1.428 1_455 S
C214 C227 1.394 . S
C215 H207 0.949 . S
C215 C214 1.428 1_655 S
C215 C216 1.345 . S
C216 H208 0.950 . S
C216 C215 1.345 . S
C216 C217 1.424 . S
C217 H209 0.951 . S
C217 C216 1.424 . S
C217 C218 1.347 1_655 S
C218 H210 0.951 . S
C218 C213 1.429 . S
C218 C217 1.347 1_455 S
H219 C220 0.951 . S
C220 H219 0.951 . S
C220 C226 1.265 . S
H221 C226 0.950 . S
H222 C230 0.949 . S
H223 C231 0.950 . S
H224 C232 0.951 . S
H225 C233 0.951 . S
C226 C220 1.265 . S
C226 H221 0.950 . S
C226 C227 1.478 . S
C227 C214 1.394 . S
C227 C226 1.478 . S
C227 C228 1.397 . S
C228 C227 1.397 . S
C228 C229 1.438 . S
C228 C233 1.429 . S
C229 C212 1.394 . S
C229 C228 1.438 . S
C229 C230 1.428 . S
C230 H222 0.949 . S
C230 C229 1.428 . S
C230 C231 1.345 . S
C231 H223 0.950 . S
C231 C230 1.345 . S
C231 C232 1.424 . S
C232 H224 0.951 . S
C232 C231 1.424 . S
C232 C233 1.347 . S
C233 H225 0.951 . S
C233 C228 1.429 . S
C233 C232 1.347 . S
H234 C235 0.951 . S
C235 H234 0.951 . S
C235 C241 1.265 . S
H236 C241 0.950 . S
H237 C245 0.949 . S
H238 C246 0.950 1_455 S
H239 C247 0.951 1_445 S
H240 C248 0.951 . S
C241 C235 1.265 . S
C241 H236 0.950 . S
C241 C242 1.478 . S
C242 C241 1.478 . S
C242 C243 1.397 . S
C242 C259 1.394 . S
C243 C242 1.397 . S
C243 C244 1.438 . S
C243 C248 1.429 . S
C244 C243 1.438 . S
C244 C245 1.428 . S
C244 C257 1.394 . S
C245 H237 0.949 . S
C245 C244 1.428 . S
C245 C246 1.345 . S
C246 H238 0.950 1_655 S
C246 C245 1.345 . S
C246 C247 1.424 . S
C247 H239 0.951 1_665 S
C247 C246 1.424 . S
C247 C248 1.347 . S
C248 H240 0.951 . S
C248 C243 1.429 . S
C248 C247 1.347 . S
H249 C250 0.951 . S
C250 H249 0.951 . S
C250 C256 1.265 . S
H251 C256 0.950 . S
H252 C260 0.949 . S
H253 C261 0.950 . S
H254 C262 0.951 . S
H255 C263 0.951 . S
C256 C250 1.265 . S
C256 H251 0.950 . S
C256 C257 1.478 . S
C257 C244 1.394 . S
C257 C256 1.478 . S
C257 C258 1.397 . S
C258 C257 1.397 . S
C258 C259 1.438 . S
C258 C263 1.429 . S
C259 C242 1.394 . S
C259 C258 1.438 . S
C259 C260 1.428 . S
C260 H252 0.949 . S
C260 C259 1.428 . S
C260 C261 1.345 . S
C261 H253 0.950 . S
C261 C260 1.345 . S
C261 C262 1.424 . S
C262 H254 0.951 . S
C262 C261 1.424 . S
C262 C263 1.347 . S
C263 H255 0.951 . S
C263 C258 1.429 . S
C263 C262 1.347 . S
H264 C265 0.951 . S
C265 H264 0.951 . S
C265 C271 1.265 . S
H266 C271 0.950 . S
H267 C275 0.949 . S
H268 C276 0.950 . S
H269 C277 0.951 . S
H270 C278 0.954 . S
C271 C265 1.265 . S
C271 H266 0.950 . S
C271 C272 1.478 . S
C272 C271 1.478 . S
C272 C273 1.397 . S
C272 C289 1.394 . S
C273 C272 1.397 . S
C273 C274 1.438 . S
C273 C278 1.429 1_545 S
C274 C273 1.438 . S
C274 C275 1.428 1_545 S
C274 C287 1.394 . S
C275 H267 0.949 . S
C275 C274 1.428 1_565 S
C275 C276 1.345 . S
C276 H268 0.950 . S
C276 C275 1.345 . S
C276 C277 1.424 . S
C277 H269 0.951 . S
C277 C276 1.424 . S
C277 C278 1.347 . S
C278 H270 0.954 . S
C278 C273 1.429 1_565 S
C278 C277 1.347 . S
H279 C280 0.951 . S
C280 H279 0.951 . S
C280 C286 1.265 . S
H281 C286 0.950 1_455 S
H282 C290 0.949 . S
H283 C291 0.950 . S
H284 C292 0.951 . S
H285 C293 0.951 . S
C286 C280 1.265 . S
C286 H281 0.950 1_655 S
C286 C287 1.478 . S
C287 C274 1.394 . S
C287 C286 1.478 . S
C287 C288 1.397 . S
C288 C287 1.397 . S
C288 C289 1.438 . S
C288 C293 1.429 1_655 S
C289 C272 1.394 . S
C289 C288 1.438 . S
C289 C290 1.428 . S
C290 H282 0.949 . S
C290 C289 1.428 . S
C290 C291 1.345 1_655 S
C291 H283 0.950 . S
C291 C290 1.345 1_455 S
C291 C292 1.424 . S
C292 H284 0.951 . S
C292 C291 1.424 . S
C292 C293 1.347 . S
C293 H285 0.951 . S
C293 C288 1.429 1_455 S
C293 C292 1.347 . S
H294 C295 0.951 . S
C295 H294 0.951 . S
C295 C301 1.265 . S
H296 C301 0.950 . S
H297 C305 0.949 . S
H298 C306 0.950 . S
H299 C307 0.951 . S
H300 C308 0.951 . S
C301 C295 1.265 . S
C301 H296 0.950 . S
C301 C302 1.478 . S
C302 C301 1.478 . S
C302 C303 1.397 . S
C302 C319 1.394 . S
C303 C302 1.397 . S
C303 C304 1.438 . S
C303 C308 1.429 1_655 S
C304 C303 1.438 . S
C304 C305 1.428 1_655 S
C304 C317 1.394 . S
C305 H297 0.949 . S
C305 C304 1.428 1_455 S
C305 C306 1.345 . S
C306 H298 0.950 . S
C306 C305 1.345 . S
C306 C307 1.424 . S
C307 H299 0.951 . S
C307 C306 1.424 . S
C307 C308 1.347 . S
C308 H300 0.951 . S
C308 C303 1.429 1_455 S
C308 C307 1.347 . S
H309 C310 0.951 . S
C310 H309 0.951 . S
C310 C316 1.265 . S
H311 C316 0.950 . S
H312 C320 0.949 . S
H313 C321 0.950 . S
H314 C322 0.951 . S
H315 C323 0.951 . S
C316 C310 1.265 . S
C316 H311 0.950 . S
C316 C317 1.478 . S
C317 C304 1.394 . S
C317 C316 1.478 . S
C317 C318 1.397 . S
C318 C317 1.397 . S
C318 C319 1.438 . S
C318 C323 1.429 . S
C319 C302 1.394 . S
C319 C318 1.438 . S
C319 C320 1.428 . S
C320 H312 0.949 . S
C320 C319 1.428 . S
C320 C321 1.345 . S
C321 H313 0.950 . S
C321 C320 1.345 . S
C321 C322 1.424 . S
C322 H314 0.951 . S
C322 C321 1.424 . S
C322 C323 1.347 . S
C323 H315 0.951 . S
C323 C318 1.429 . S
C323 C322 1.347 . S
H324 C325 0.951 . S
C325 H324 0.951 . S
C325 C331 1.265 . S
H326 C331 0.950 . S
H327 C335 0.949 . S
H328 C336 0.950 . S
H329 C337 0.951 . S
H330 C338 0.951 . S
C331 C325 1.265 . S
C331 H326 0.950 . S
C331 C332 1.478 . S
C332 C331 1.478 . S
C332 C333 1.397 . S
C332 C349 1.394 . S
C333 C332 1.397 . S
C333 C334 1.438 . S
C333 C338 1.429 . S
C334 C333 1.438 . S
C334 C335 1.428 . S
C334 C347 1.394 . S
C335 H327 0.949 . S
C335 C334 1.428 . S
C335 C336 1.345 . S
C336 H328 0.950 . S
C336 C335 1.345 . S
C336 C337 1.424 . S
C337 H329 0.951 . S
C337 C336 1.424 . S
C337 C338 1.347 . S
C338 H330 0.951 . S
C338 C333 1.429 . S
C338 C337 1.347 . S
H339 C340 0.951 . S
C340 H339 0.951 . S
C340 C346 1.265 . S
H341 C346 0.950 . S
H342 C350 0.949 . S
H343 C351 0.950 . S
H344 C352 0.951 1_655 S
H345 C353 0.951 . S
C346 C340 1.265 . S
C346 H341 0.950 . S
C346 C347 1.478 . S
C347 C334 1.394 . S
C347 C346 1.478 . S
C347 C348 1.397 . S
C348 C347 1.397 . S
C348 C349 1.438 . S
C348 C353 1.429 1_545 S
C349 C332 1.394 . S
C349 C348 1.438 . S
C349 C350 1.428 . S
C350 H342 0.949 . S
C350 C349 1.428 . S
C350 C351 1.345 1_545 S
C351 H343 0.950 . S
C351 C350 1.345 1_565 S
C351 C352 1.424 . S
C352 H344 0.951 1_455 S
C352 C351 1.424 . S
C352 C353 1.347 . S
C353 H345 0.951 . S
C353 C348 1.429 1_565 S
C353 C352 1.347 . S
H354 C355 0.951 . S
C355 H354 0.951 . S
C355 C361 1.265 . S
H356 C361 0.950 . S
H357 C365 0.949 . S
H358 C366 0.950 . S
H359 C367 0.951 . S
H360 C368 0.951 . S
C361 C355 1.265 . S
C361 H356 0.950 . S
C361 C362 1.478 . S
C362 C361 1.478 . S
C362 C363 1.397 1_554 S
C362 C379 1.394 . S
C363 C362 1.397 1_556 S
C363 C364 1.438 . S
C363 C368 1.429 . S
C364 C363 1.438 . S
C364 C365 1.428 . S
C364 C377 1.394 . S
C365 H357 0.949 . S
C365 C364 1.428 . S
C365 C366 1.345 . S
C366 H358 0.950 . S
C366 C365 1.345 . S
C366 C367 1.424 . S
C367 H359 0.951 . S
C367 C366 1.424 . S
C367 C368 1.347 . S
C368 H360 0.951 . S
C368 C363 1.429 . S
C368 C367 1.347 . S
H369 C370 0.951 . S
C370 H369 0.951 . S
C370 C376 1.265 . S
H371 C376 0.950 . S
H372 C380 0.949 . S
H373 C381 0.950 . S
H374 C382 0.951 . S
H375 C383 0.951 . S
C376 C370 1.265 . S
C376 H371 0.950 . S
C376 C377 1.478 . S
C377 C364 1.394 . S
C377 C376 1.478 . S
C377 C378 1.397 1_556 S
C378 C377 1.397 1_554 S
C378 C379 1.438 . S
C378 C383 1.429 . S
C379 C362 1.394 . S
C379 C378 1.438 . S
C379 C380 1.428 . S
C380 H372 0.949 . S
C380 C379 1.428 . S
C380 C381 1.345 . S
C381 H373 0.950 . S
C381 C380 1.345 . S
C381 C382 1.424 . S
C382 H374 0.951 . S
C382 C381 1.424 . S
C382 C383 1.347 . S
C383 H375 0.951 . S
C383 C378 1.429 . S
C383 C382 1.347 . S
H384 C385 0.951 . S
C385 H384 0.951 . S
C385 C391 1.265 . S
H386 C391 0.950 . S
H387 C395 0.949 . S
H388 C396 0.950 . S
H389 C397 0.951 . S
H390 C398 0.951 . S
C391 C385 1.265 . S
C391 H386 0.950 . S
C391 C392 1.478 . S
C392 C391 1.478 . S
C392 C393 1.397 . S
C392 C409 1.394 1_565 S
C393 C392 1.397 . S
C393 C394 1.438 1_556 S
C393 C398 1.429 . S
C394 C393 1.438 1_554 S
C394 C395 1.428 . S
C394 C407 1.394 1_565 S
C395 H387 0.949 . S
C395 C394 1.428 . S
C395 C396 1.345 . S
C396 H388 0.950 . S
C396 C395 1.345 . S
C396 C397 1.424 1_554 S
C397 H389 0.951 . S
C397 C396 1.424 1_556 S
C397 C398 1.347 . S
C398 H390 0.951 . S
C398 C393 1.429 . S
C398 C397 1.347 . S
H399 C400 0.951 . S
C400 H399 0.951 . S
C400 C406 1.265 . S
H401 C406 0.950 . S
H402 C410 0.949 . S
H403 C411 0.950 . S
H404 C412 0.951 . S
H405 C413 0.951 . S
C406 C400 1.265 . S
C406 H401 0.950 . S
C406 C407 1.478 . S
C407 C394 1.394 1_545 S
C407 C406 1.478 . S
C407 C408 1.397 . S
C408 C407 1.397 . S
C408 C409 1.438 1_554 S
C408 C413 1.429 . S
C409 C392 1.394 1_545 S
C409 C408 1.438 1_556 S
C409 C410 1.428 . S
C410 H402 0.949 . S
C410 C409 1.428 . S
C410 C411 1.345 . S
C411 H403 0.950 . S
C411 C410 1.345 . S
C411 C412 1.424 1_556 S
C412 H404 0.951 . S
C412 C411 1.424 1_554 S
C412 C413 1.347 . S
C413 H405 0.951 . S
C413 C408 1.429 . S
C413 C412 1.347 . S
H414 C415 0.951 . S
C415 H414 0.951 . S
C415 C421 1.265 1_455 S
H416 C421 0.950 . S
H417 C425 0.949 1_554 S
H418 C426 0.950 . S
H419 C427 0.951 . S
H420 C428 0.951 . S
C421 C415 1.265 1_655 S
C421 H416 0.950 . S
C421 C422 1.477 . S
C422 C421 1.477 . S
C422 C423 1.392 . S
C422 C439 1.392 1_656 S
C423 C422 1.392 . S
C423 C424 1.455 . S
C423 C428 1.429 . S
C424 C423 1.455 . S
C424 C425 1.419 . S
C424 C437 1.392 1_656 S
C425 H417 0.949 1_556 S
C425 C424 1.419 . S
C425 C426 1.345 . S
C426 H418 0.950 . S
C426 C425 1.345 . S
C426 C427 1.424 . S
C427 H419 0.951 . S
C427 C426 1.424 . S
C427 C428 1.347 . S
C428 H420 0.951 . S
C428 C423 1.429 . S
C428 C427 1.347 . S
H429 C430 0.951 . S
C430 H429 0.951 . S
C430 C436 1.265 1_655 S
H431 C436 0.950 . S
H432 C440 0.949 1_556 S
H433 C441 0.950 . S
H434 C442 0.951 . S
H435 C443 0.951 . S
C436 C430 1.265 1_455 S
C436 H431 0.950 . S
C436 C437 1.477 . S
C437 C424 1.392 1_454 S
C437 C436 1.477 . S
C437 C438 1.392 . S
C438 C437 1.392 . S
C438 C439 1.455 . S
C438 C443 1.429 . S
C439 C422 1.392 1_454 S
C439 C438 1.455 . S
C439 C440 1.419 . S
C440 H432 0.949 1_554 S
C440 C439 1.419 . S
C440 C441 1.345 . S
C441 H433 0.950 . S
C441 C440 1.345 . S
C441 C442 1.424 . S
C442 H434 0.951 . S
C442 C441 1.424 . S
C442 C443 1.347 . S
C443 H435 0.951 . S
C443 C438 1.429 . S
C443 C442 1.347 . S
C85 C24 0.583 . S
C100 C14 0.583 . S
C115 C42 0.579 . S
C130 C52 0.579 . S
C145 C70 0.457 . S
C160 C80 0.457 . S
C175 C61 1.854 . S
C190 C26 1.853 . S
C205 C74 1.731 . S
C220 C2 1.729 . S
C235 C68 2.202 . S
C250 C22 2.201 . S
C265 C54 1.943 . S
C280 C5 1.943 . S
C295 C30 1.747 . S
C310 C18 1.749 . S
C325 C50 2.211 . S
C340 C12 2.212 . S
C355 C33 1.949 . S
C370 C82 1.949 . S
C385 C58 1.737 . S
C400 C46 1.737 . S
C415 C78 2.174 . S
C430 C40 2.174 . S
