# Generated by pormake.
# Topology ict, (4)-cn, num edge types: 1
# Building blocks:
#     Node 0, Type 0, BuildingBlock: QUQFOY_clean_sbu_3, # of connection points: 4
#     Node 1, Type 0, BuildingBlock: QUQFOY_clean_sbu_3, # of connection points: 4
#     Node 2, Type 0, BuildingBlock: QUQFOY_clean_sbu_3, # of connection points: 4
#     Node 3, Type 0, BuildingBlock: QUQFOY_clean_sbu_3, # of connection points: 4
#     Node 4, Type 0, BuildingBlock: QUQFOY_clean_sbu_3, # of connection points: 4
#     Node 5, Type 0, BuildingBlock: QUQFOY_clean_sbu_3, # of connection points: 4
#     Node 6, Type 0, BuildingBlock: QUQFOY_clean_sbu_3, # of connection points: 4
#     Node 7, Type 0, BuildingBlock: QUQFOY_clean_sbu_3, # of connection points: 4
#     Node 8, Type 0, BuildingBlock: QUQFOY_clean_sbu_3, # of connection points: 4
#     Node 9, Type 0, BuildingBlock: QUQFOY_clean_sbu_3, # of connection points: 4
#     Node 10, Type 0, BuildingBlock: QUQFOY_clean_sbu_3, # of connection points: 4
#     Node 11, Type 0, BuildingBlock: QUQFOY_clean_sbu_3, # of connection points: 4
#     Node 12, Type 0, BuildingBlock: QUQFOY_clean_sbu_3, # of connection points: 4
#     Node 13, Type 0, BuildingBlock: QUQFOY_clean_sbu_3, # of connection points: 4
#     Node 14, Type 0, BuildingBlock: QUQFOY_clean_sbu_3, # of connection points: 4
#     Node 15, Type 0, BuildingBlock: QUQFOY_clean_sbu_3, # of connection points: 4
#     Node 16, Type 0, BuildingBlock: QUQFOY_clean_sbu_3, # of connection points: 4
#     Node 17, Type 0, BuildingBlock: QUQFOY_clean_sbu_3, # of connection points: 4
#     Node 18, Type 0, BuildingBlock: QUQFOY_clean_sbu_3, # of connection points: 4
#     Node 19, Type 0, BuildingBlock: QUQFOY_clean_sbu_3, # of connection points: 4
#     Node 20, Type 0, BuildingBlock: QUQFOY_clean_sbu_3, # of connection points: 4
#     Node 21, Type 0, BuildingBlock: QUQFOY_clean_sbu_3, # of connection points: 4
#     Node 22, Type 0, BuildingBlock: QUQFOY_clean_sbu_3, # of connection points: 4
#     Node 23, Type 0, BuildingBlock: QUQFOY_clean_sbu_3, # of connection points: 4
#     Node 24, Type 0, BuildingBlock: QUQFOY_clean_sbu_3, # of connection points: 4
#     Node 25, Type 0, BuildingBlock: QUQFOY_clean_sbu_3, # of connection points: 4
#     Node 26, Type 0, BuildingBlock: QUQFOY_clean_sbu_3, # of connection points: 4
#     Node 27, Type 0, BuildingBlock: QUQFOY_clean_sbu_3, # of connection points: 4
#     Node 28, Type 0, BuildingBlock: QUQFOY_clean_sbu_3, # of connection points: 4
#     Node 29, Type 0, BuildingBlock: QUQFOY_clean_sbu_3, # of connection points: 4
#     Node 30, Type 0, BuildingBlock: QUQFOY_clean_sbu_3, # of connection points: 4
#     Node 31, Type 0, BuildingBlock: QUQFOY_clean_sbu_3, # of connection points: 4
#     Node 32, Type 0, BuildingBlock: QUQFOY_clean_sbu_3, # of connection points: 4
#     Node 33, Type 0, BuildingBlock: QUQFOY_clean_sbu_3, # of connection points: 4
#     Node 34, Type 0, BuildingBlock: QUQFOY_clean_sbu_3, # of connection points: 4
#     Node 35, Type 0, BuildingBlock: QUQFOY_clean_sbu_3, # of connection points: 4
#     Edge 36, Type (0, 0), BuildingBlock: XIVTED_clean_linker_0, # of connection points: 2
#     Edge 37, Type (0, 0), BuildingBlock: XIVTED_clean_linker_0, # of connection points: 2
#     Edge 38, Type (0, 0), BuildingBlock: XIVTED_clean_linker_0, # of connection points: 2
#     Edge 39, Type (0, 0), BuildingBlock: XIVTED_clean_linker_0, # of connection points: 2
#     Edge 40, Type (0, 0), BuildingBlock: XIVTED_clean_linker_0, # of connection points: 2
#     Edge 41, Type (0, 0), BuildingBlock: XIVTED_clean_linker_0, # of connection points: 2
#     Edge 42, Type (0, 0), BuildingBlock: XIVTED_clean_linker_0, # of connection points: 2
#     Edge 43, Type (0, 0), BuildingBlock: XIVTED_clean_linker_0, # of connection points: 2
#     Edge 44, Type (0, 0), BuildingBlock: XIVTED_clean_linker_0, # of connection points: 2
#     Edge 45, Type (0, 0), BuildingBlock: XIVTED_clean_linker_0, # of connection points: 2
#     Edge 46, Type (0, 0), BuildingBlock: XIVTED_clean_linker_0, # of connection points: 2
#     Edge 47, Type (0, 0), BuildingBlock: XIVTED_clean_linker_0, # of connection points: 2
#     Edge 48, Type (0, 0), BuildingBlock: XIVTED_clean_linker_0, # of connection points: 2
#     Edge 49, Type (0, 0), BuildingBlock: XIVTED_clean_linker_0, # of connection points: 2
#     Edge 50, Type (0, 0), BuildingBlock: XIVTED_clean_linker_0, # of connection points: 2
#     Edge 51, Type (0, 0), BuildingBlock: XIVTED_clean_linker_0, # of connection points: 2
#     Edge 52, Type (0, 0), BuildingBlock: XIVTED_clean_linker_0, # of connection points: 2
#     Edge 53, Type (0, 0), BuildingBlock: XIVTED_clean_linker_0, # of connection points: 2
#     Edge 54, Type (0, 0), BuildingBlock: XIVTED_clean_linker_0, # of connection points: 2
#     Edge 55, Type (0, 0), BuildingBlock: XIVTED_clean_linker_0, # of connection points: 2
#     Edge 56, Type (0, 0), BuildingBlock: XIVTED_clean_linker_0, # of connection points: 2
#     Edge 57, Type (0, 0), BuildingBlock: XIVTED_clean_linker_0, # of connection points: 2
#     Edge 58, Type (0, 0), BuildingBlock: XIVTED_clean_linker_0, # of connection points: 2
#     Edge 59, Type (0, 0), BuildingBlock: XIVTED_clean_linker_0, # of connection points: 2
#     Edge 60, Type (0, 0), BuildingBlock: XIVTED_clean_linker_0, # of connection points: 2
#     Edge 61, Type (0, 0), BuildingBlock: XIVTED_clean_linker_0, # of connection points: 2
#     Edge 62, Type (0, 0), BuildingBlock: XIVTED_clean_linker_0, # of connection points: 2
#     Edge 63, Type (0, 0), BuildingBlock: XIVTED_clean_linker_0, # of connection points: 2
#     Edge 64, Type (0, 0), BuildingBlock: XIVTED_clean_linker_0, # of connection points: 2
#     Edge 65, Type (0, 0), BuildingBlock: XIVTED_clean_linker_0, # of connection points: 2
#     Edge 66, Type (0, 0), BuildingBlock: XIVTED_clean_linker_0, # of connection points: 2
#     Edge 67, Type (0, 0), BuildingBlock: XIVTED_clean_linker_0, # of connection points: 2
#     Edge 68, Type (0, 0), BuildingBlock: XIVTED_clean_linker_0, # of connection points: 2
#     Edge 69, Type (0, 0), BuildingBlock: XIVTED_clean_linker_0, # of connection points: 2
#     Edge 70, Type (0, 0), BuildingBlock: XIVTED_clean_linker_0, # of connection points: 2
#     Edge 71, Type (0, 0), BuildingBlock: XIVTED_clean_linker_0, # of connection points: 2
#     Edge 72, Type (0, 0), BuildingBlock: XIVTED_clean_linker_0, # of connection points: 2
#     Edge 73, Type (0, 0), BuildingBlock: XIVTED_clean_linker_0, # of connection points: 2
#     Edge 74, Type (0, 0), BuildingBlock: XIVTED_clean_linker_0, # of connection points: 2
#     Edge 75, Type (0, 0), BuildingBlock: XIVTED_clean_linker_0, # of connection points: 2
#     Edge 76, Type (0, 0), BuildingBlock: XIVTED_clean_linker_0, # of connection points: 2
#     Edge 77, Type (0, 0), BuildingBlock: XIVTED_clean_linker_0, # of connection points: 2
#     Edge 78, Type (0, 0), BuildingBlock: XIVTED_clean_linker_0, # of connection points: 2
#     Edge 79, Type (0, 0), BuildingBlock: XIVTED_clean_linker_0, # of connection points: 2
#     Edge 80, Type (0, 0), BuildingBlock: XIVTED_clean_linker_0, # of connection points: 2
#     Edge 81, Type (0, 0), BuildingBlock: XIVTED_clean_linker_0, # of connection points: 2
#     Edge 82, Type (0, 0), BuildingBlock: XIVTED_clean_linker_0, # of connection points: 2
#     Edge 83, Type (0, 0), BuildingBlock: XIVTED_clean_linker_0, # of connection points: 2
#     Edge 84, Type (0, 0), BuildingBlock: XIVTED_clean_linker_0, # of connection points: 2
#     Edge 85, Type (0, 0), BuildingBlock: XIVTED_clean_linker_0, # of connection points: 2
#     Edge 86, Type (0, 0), BuildingBlock: XIVTED_clean_linker_0, # of connection points: 2
#     Edge 87, Type (0, 0), BuildingBlock: XIVTED_clean_linker_0, # of connection points: 2
#     Edge 88, Type (0, 0), BuildingBlock: XIVTED_clean_linker_0, # of connection points: 2
#     Edge 89, Type (0, 0), BuildingBlock: XIVTED_clean_linker_0, # of connection points: 2
#     Edge 90, Type (0, 0), BuildingBlock: XIVTED_clean_linker_0, # of connection points: 2
#     Edge 91, Type (0, 0), BuildingBlock: XIVTED_clean_linker_0, # of connection points: 2
#     Edge 92, Type (0, 0), BuildingBlock: XIVTED_clean_linker_0, # of connection points: 2
#     Edge 93, Type (0, 0), BuildingBlock: XIVTED_clean_linker_0, # of connection points: 2
#     Edge 94, Type (0, 0), BuildingBlock: XIVTED_clean_linker_0, # of connection points: 2
#     Edge 95, Type (0, 0), BuildingBlock: XIVTED_clean_linker_0, # of connection points: 2
#     Edge 96, Type (0, 0), BuildingBlock: XIVTED_clean_linker_0, # of connection points: 2
#     Edge 97, Type (0, 0), BuildingBlock: XIVTED_clean_linker_0, # of connection points: 2
#     Edge 98, Type (0, 0), BuildingBlock: XIVTED_clean_linker_0, # of connection points: 2
#     Edge 99, Type (0, 0), BuildingBlock: XIVTED_clean_linker_0, # of connection points: 2
#     Edge 100, Type (0, 0), BuildingBlock: XIVTED_clean_linker_0, # of connection points: 2
#     Edge 101, Type (0, 0), BuildingBlock: XIVTED_clean_linker_0, # of connection points: 2
#     Edge 102, Type (0, 0), BuildingBlock: XIVTED_clean_linker_0, # of connection points: 2
#     Edge 103, Type (0, 0), BuildingBlock: XIVTED_clean_linker_0, # of connection points: 2
#     Edge 104, Type (0, 0), BuildingBlock: XIVTED_clean_linker_0, # of connection points: 2
#     Edge 105, Type (0, 0), BuildingBlock: XIVTED_clean_linker_0, # of connection points: 2
#     Edge 106, Type (0, 0), BuildingBlock: XIVTED_clean_linker_0, # of connection points: 2
#     Edge 107, Type (0, 0), BuildingBlock: XIVTED_clean_linker_0, # of connection points: 2
# Relax obj value: 0.101
# Max RMSD: 0.125
# Mean RMSD: 0.125
data_MOF--net-ict--node1-QUQFOY_clean_sbu_3--edge1-XIVTED_clean_linker_0
_symmetry_space_group_name_H-M    P1
_symmetry_Int_Tables_number       1
_symmetry_cell_setting            triclinic
loop_
_symmetry_equiv_pos_as_xyz
'x, y, z'
_cell_length_a     67.400107
_cell_length_b     67.373483
_cell_length_c     38.028762
_cell_angle_alpha  90.082298
_cell_angle_beta   89.932186
_cell_angle_gamma 120.11495
loop_
_atom_site_label
_atom_site_type_symbol
_atom_site_fract_x
_atom_site_fract_y
_atom_site_fract_z
_atom_type_partial_charge
C0 C 0.15961 0.20858 0.02123 0.0
O1 O 0.15394 0.1879 0.02743 0.0
Cd2 Cd 0.17921 0.17365 0.03688 0.0
O3 O 0.18072 0.22408 0.01866 0.0
Cd4 Cd 0.21861 0.22502 0.02296 0.0
C5 C 0.20814 0.20809 0.10782 0.0
O6 O 0.20679 0.18969 -0.00874 0.0
O7 O 0.23809 0.20179 0.02013 0.0
O8 O 0.23256 0.25097 0.97268 0.0
C9 C 0.22391 0.18751 -0.00173 0.0
O10 O 0.19466 0.18838 0.09487 0.0
C11 C 0.25185 0.26503 0.98603 0.0
O12 O 0.21874 0.22555 0.0879 0.0
O13 O 0.25523 0.26126 0.01757 0.0
C14 C 0.76986 0.95444 0.01481 0.0
O15 O 0.79023 0.97078 0.01939 0.0
Cd16 Cd 0.80041 0.00854 0.03583 0.0
O17 O 0.75299 0.95805 0.01649 0.0
Cd18 Cd 0.7481 -0.0075 0.02516 0.0
C19 C 0.76481 -0.00488 0.10861 0.0
O20 O 0.78218 0.02065 -0.00523 0.0
O21 O 0.7682 0.03522 0.03049 0.0
O22 O 0.72316 0.98002 0.97401 0.0
C23 C 0.78254 0.0384 0.0064 0.0
O24 O 0.78466 0.00333 0.09495 0.0
C25 C 0.70764 0.9831 0.98727 0.0
O26 O 0.74713 0.98854 0.08935 0.0
O27 O 0.7102 0.98937 0.01929 0.0
C28 C 0.03253 0.81386 0.02538 0.0
O29 O 0.01812 0.8203 0.0317 0.0
Cd30 Cd 0.97798 0.79641 0.03868 0.0
O31 O 0.02599 0.79261 0.02164 0.0
Cd32 Cd -0.01204 0.75584 0.02448 0.0
C33 C 0.98 0.76548 0.1092 0.0
O34 O 0.9659 0.76926 -0.00766 0.0
O35 O 0.94549 0.73783 0.02052 0.0
O36 O -0.00048 0.74149 0.97422 0.0
C37 C 0.94621 0.75248 -0.0011 0.0
O38 O 0.97459 0.77952 0.09619 0.0
C39 C -0.00651 0.72195 0.98731 0.0
O40 O 0.9871 0.75501 0.08945 0.0
O41 O 0.98607 0.71857 0.01873 0.0
C42 C 0.20527 0.16871 0.45571 0.0
O43 O 0.18453 0.16304 0.45002 0.0
Cd44 Cd 0.17034 0.18847 0.44182 0.0
O45 O 0.22076 0.18982 0.45838 0.0
Cd46 Cd 0.22153 0.22762 0.45506 0.0
C47 C 0.20415 0.21747 0.37048 0.0
O48 O 0.18658 0.21575 0.48788 0.0
O49 O 0.19823 0.24697 0.45893 0.0
O50 O 0.24787 0.24085 0.50479 0.0
C51 C 0.18435 0.2329 0.48128 0.0
O52 O 0.18452 0.20406 0.38373 0.0
C53 C 0.26159 0.2605 0.49218 0.0
O54 O 0.22176 0.22795 0.39013 0.0
O55 O 0.2575 0.26442 0.46113 0.0
C56 C 0.81127 0.0338 0.45389 0.0
O57 O 0.81724 0.01901 0.44776 0.0
Cd58 Cd 0.79211 0.97896 0.44094 0.0
O59 O 0.79013 0.0277 0.45753 0.0
Cd60 Cd 0.75271 0.99046 0.45556 0.0
C61 C 0.76124 0.98157 0.37087 0.0
O62 O 0.76532 0.96776 0.48785 0.0
O63 O 0.73328 0.94793 0.46085 0.0
O64 O 0.73996 0.00403 0.5053 0.0
C65 C 0.74795 0.9483 0.48207 0.0
O66 O 0.77508 0.97579 0.38353 0.0
C67 C 0.72046 -0.00149 0.49259 0.0
O68 O 0.75128 0.98911 0.39085 0.0
O69 O 0.71632 0.99024 0.46166 0.0
C70 C 0.9488 0.77585 0.46283 0.0
O71 O 0.9645 0.79635 0.45704 0.0
Cd72 Cd 0.00303 0.80822 0.44348 0.0
O73 O 0.95336 0.75958 0.46326 0.0
Cd74 Cd -0.01088 0.75665 0.4563 0.0
C75 C -0.00701 0.77267 0.3718 0.0
O76 O 0.01481 0.79142 0.48747 0.0
O77 O 0.03208 0.77875 0.45498 0.0
O78 O 0.97655 0.73143 0.50724 0.0
C79 C 0.03351 0.79288 0.47829 0.0
O80 O 0.00028 0.79254 0.38491 0.0
C81 C 0.98122 0.71682 0.49461 0.0
O82 O 0.9865 0.75525 0.39166 0.0
O83 O -0.0117 0.71991 0.46299 0.0
C84 C 0.81171 0.77282 0.95118 0.0
O85 O 0.81658 0.792 0.93775 0.0
Cd86 Cd 0.79097 0.8065 0.93044 0.0
O87 O 0.79134 0.75882 0.96147 0.0
Cd88 Cd 0.75409 0.75842 0.96061 0.0
C89 C 0.75473 0.76621 0.87269 0.0
O90 O 0.7692 0.79694 0.9832 0.0
O91 O 0.73487 0.78191 0.96336 0.0
O92 O 0.74263 0.73606 0.01505 0.0
C93 C 0.75145 0.79852 0.97916 0.0
O94 O 0.7678 0.78749 0.87882 0.0
C95 C 0.72311 0.72083 0.00376 0.0
O96 O 0.74898 0.7514 0.89708 0.0
O97 O 0.71842 0.72269 0.97203 0.0
C98 C 0.20627 0.03352 0.95298 0.0
O99 O 0.1856 0.01826 0.94708 0.0
Cd100 Cd 0.17188 0.9786 0.93881 0.0
O101 O 0.22187 0.02812 0.9556 0.0
Cd102 Cd 0.22317 0.99149 0.95175 0.0
C103 C 0.20546 0.9835 0.86734 0.0
O104 O 0.1884 0.96779 0.98472 0.0
O105 O 0.20062 0.94873 0.95563 0.0
O106 O 0.24977 0.00503 0.00109 0.0
C107 C 0.18658 0.94858 0.97801 0.0
O108 O 0.18575 0.9769 0.88053 0.0
C109 C 0.26397 6e-05 0.98766 0.0
O110 O 0.2231 0.99118 0.887 0.0
O111 O 0.25985 -0.00782 0.95649 0.0
C112 C 0.9357 0.17262 0.96532 0.0
O113 O 0.94837 0.1641 0.95889 0.0
Cd114 Cd -0.01165 0.18476 0.94761 0.0
O115 O 0.94405 0.19429 0.96702 0.0
Cd116 Cd 0.98331 0.22894 0.95977 0.0
C117 C 0.98468 0.2137 0.8754 0.0
O118 O 0.00522 0.21452 -0.00993 0.0
O119 O 0.02549 0.2449 0.95934 0.0
O120 O 0.97474 0.24563 0.01009 0.0
C121 C 0.02495 0.23032 0.98095 0.0
O122 O -0.01112 0.19891 0.88888 0.0
C123 C 0.98124 0.26502 -0.00392 0.0
O124 O 0.98086 0.22685 0.89488 0.0
O125 O -0.01221 0.2674 0.96422 0.0
C126 C 0.76655 0.81393 0.53875 0.0
O127 O 0.78576 0.81886 0.55212 0.0
Cd128 Cd 0.80096 0.79381 0.55863 0.0
O129 O 0.75261 0.79356 0.52832 0.0
Cd130 Cd 0.75272 0.75646 0.52971 0.0
C131 C 0.76166 0.75768 0.61741 0.0
O132 O 0.79095 0.77218 0.50568 0.0
O133 O 0.77681 0.73798 0.5259 0.0
O134 O 0.7294 0.74381 0.47626 0.0
C135 C 0.79284 0.75456 0.50922 0.0
O136 O 0.78286 0.77072 0.6107 0.0
C137 C 0.71487 0.72421 0.48822 0.0
O138 O 0.74658 0.75182 0.59342 0.0
O139 O 0.71744 0.72006 0.51993 0.0
C140 C 0.16727 0.94851 0.51684 0.0
O141 O 0.16036 0.96263 0.52242 0.0
Cd142 Cd 0.18357 0.00253 0.53278 0.0
O143 O 0.18867 0.9553 0.51509 0.0
Cd144 Cd 0.22533 -0.00678 0.52043 0.0
C145 C 0.21191 -0.00268 0.60476 0.0
O146 O 0.21265 0.01614 0.48935 0.0
O147 O 0.24372 0.03587 0.51871 0.0
O148 O 0.23993 0.98188 0.47045 0.0
C149 C 0.22923 0.03569 0.49728 0.0
O150 O 0.19797 0.00272 0.59131 0.0
C151 C 0.25925 0.98752 0.48398 0.0
O152 O 0.22388 0.9919 0.58527 0.0
O153 O 0.26249 -0.00516 0.51547 0.0
C154 C 0.0301 0.21269 0.5298 0.0
O155 O 0.01541 0.19186 0.53596 0.0
Cd156 Cd 0.97529 0.17638 0.54201 0.0
O157 O 0.02388 0.22761 0.52596 0.0
Cd158 Cd 0.98643 0.2273 0.52783 0.0
C159 C 0.97691 0.20944 0.61231 0.0
O160 O 0.96437 0.192 0.49504 0.0
O161 O 0.94394 0.20358 0.52171 0.0
O162 O 0.00024 0.2537 0.47826 0.0
C163 C 0.94473 0.18948 0.50047 0.0
O164 O 0.97129 0.1899 0.59928 0.0
C165 C -0.00577 0.26742 0.49051 0.0
O166 O 0.98471 0.22714 0.59271 0.0
O167 O 0.98562 0.26318 0.52122 0.0
C168 C 0.82805 0.53991 0.35552 0.0
O169 O 0.82246 0.51926 0.36195 0.0
Cd170 Cd 0.8481 0.50549 0.37219 0.0
O171 O 0.84913 0.55545 0.35303 0.0
Cd172 Cd 0.88711 0.5569 0.35737 0.0
C173 C 0.87702 0.54078 0.44247 0.0
O174 O 0.87577 0.52135 0.32665 0.0
O175 O 0.90743 0.53448 0.355 0.0
O176 O 0.89953 0.58184 0.30614 0.0
C177 C 0.8932 0.51971 0.33372 0.0
O178 O 0.86358 0.52094 0.42986 0.0
C179 C 0.91879 0.59666 0.31865 0.0
O180 O 0.88752 0.55808 0.42223 0.0
O181 O 0.92294 0.59369 0.35021 0.0
C182 C 0.43672 0.28371 0.35841 0.0
O183 O 0.45738 0.2988 0.36473 0.0
Cd184 Cd 0.47162 0.33856 0.37247 0.0
O185 O 0.42132 0.28932 0.35502 0.0
Cd186 Cd 0.42059 0.3263 0.35824 0.0
C187 C 0.43757 0.33398 0.4431 0.0
O188 O 0.45577 0.34952 0.32583 0.0
O189 O 0.44377 0.36901 0.35424 0.0
O190 O 0.39445 0.31325 0.30825 0.0
C191 C 0.45784 0.36888 0.33222 0.0
O192 O 0.45733 0.34038 0.43027 0.0
C193 C 0.38036 0.31852 0.32124 0.0
O194 O 0.42009 0.32654 0.42312 0.0
O195 O 0.38427 0.3263 0.35247 0.0
C196 C 0.69926 0.14633 0.35506 0.0
O197 O 0.68467 0.15265 0.36052 0.0
Cd198 Cd 0.64467 0.12848 0.36824 0.0
O199 O 0.69294 0.12507 0.35227 0.0
Cd200 Cd 0.6552 0.08795 0.3552 0.0
C201 C 0.64799 0.09862 0.43956 0.0
O202 O 0.63283 0.10077 0.32283 0.0
O203 O 0.61262 0.06948 0.3514 0.0
O204 O 0.66761 0.07402 0.30549 0.0
C205 C 0.61318 0.08398 0.32961 0.0
O206 O 0.64245 0.11248 0.4262 0.0
C207 C 0.66138 0.0544 0.31841 0.0
O208 O 0.65477 0.08776 0.42008 0.0
O209 O 0.65347 0.05079 0.34955 0.0
C210 C 0.87118 0.50001 0.79112 0.0
O211 O 0.85036 0.49402 0.78535 0.0
Cd212 Cd 0.83543 0.51878 0.77618 0.0
O213 O 0.88645 0.52121 0.79353 0.0
Cd214 Cd 0.8868 0.55873 0.78954 0.0
C215 C 0.86949 0.54784 0.70493 0.0
O216 O 0.85136 0.5468 0.82114 0.0
O217 O 0.86349 0.57802 0.79194 0.0
O218 O 0.91248 0.57252 0.84001 0.0
C219 C 0.84911 0.56384 0.81369 0.0
O220 O 0.8499 0.53428 0.71819 0.0
C221 C 0.92661 0.59186 0.82688 0.0
O222 O 0.88706 0.55863 0.72457 0.0
O223 O 0.92299 0.59538 0.79532 0.0
C224 C 0.47463 0.36654 0.79178 0.0
O225 O 0.4801 0.35134 0.78595 0.0
Cd226 Cd 0.45494 0.31176 0.7763 0.0
O227 O 0.45358 0.36108 0.79422 0.0
Cd228 Cd 0.41559 0.32402 0.79001 0.0
C229 C 0.42673 0.31812 0.70521 0.0
O230 O 0.42704 0.3002 0.82129 0.0
O231 O 0.39595 0.28116 0.79182 0.0
O232 O 0.40168 0.33589 0.84046 0.0
C233 C 0.41 0.2809 0.81368 0.0
O234 O 0.44001 0.3117 0.71822 0.0
C235 C 0.38243 0.33071 0.8271 0.0
O236 O 0.41598 0.3248 0.72511 0.0
O237 O 0.37906 0.32366 0.79547 0.0
C238 C 0.60995 0.10288 0.78731 0.0
O239 O 0.62507 0.12363 0.78159 0.0
Cd240 Cd 0.66478 0.13798 0.77314 0.0
O241 O 0.61553 0.08742 0.79004 0.0
Cd242 Cd 0.65234 0.08634 0.78693 0.0
C243 C 0.65963 0.10357 0.70228 0.0
O244 O 0.67583 0.12161 0.81875 0.0
O245 O 0.6951 0.10928 0.79058 0.0
O246 O 0.63916 0.06039 0.83709 0.0
C247 C 0.69516 0.1237 0.81208 0.0
O248 O 0.66585 0.12326 0.71529 0.0
C249 C 0.64421 0.0461 0.82422 0.0
O250 O 0.65254 0.08605 0.7221 0.0
O251 O 0.65195 0.04983 0.79297 0.0
C252 C 0.48001 0.10702 0.28707 0.0
O253 O 0.48604 0.12784 0.28122 0.0
Cd254 Cd 0.46105 0.1425 0.27195 0.0
O255 O 0.45882 0.09178 0.28954 0.0
Cd256 Cd 0.42127 0.09127 0.28585 0.0
C257 C 0.43174 0.1081 0.20111 0.0
O258 O 0.43326 0.12672 0.31734 0.0
O259 O 0.40181 0.11445 0.2887 0.0
O260 O 0.40803 0.0658 0.33651 0.0
C261 C 0.4161 0.12885 0.31032 0.0
O262 O 0.44544 0.12776 0.21407 0.0
C263 C 0.38866 0.0515 0.32365 0.0
O264 O 0.42095 0.09066 0.22101 0.0
O265 O 0.38488 0.05496 0.29215 0.0
C266 C 0.87486 0.36541 0.28905 0.0
O267 O 0.8542 0.35005 0.28336 0.0
Cd268 Cd 0.84041 0.31039 0.27557 0.0
O269 O 0.89054 0.36015 0.29203 0.0
Cd270 Cd 0.89203 0.32353 0.28926 0.0
C271 C 0.87483 0.31575 0.20467 0.0
O272 O 0.85701 0.29987 0.32149 0.0
O273 O 0.86928 0.28074 0.29279 0.0
O274 O 0.91786 0.33737 0.33949 0.0
C275 C 0.85505 0.2806 0.31475 0.0
O276 O 0.85511 0.30919 0.21784 0.0
C277 C 0.93208 0.33199 0.32738 0.0
O278 O 0.89246 0.32332 0.22437 0.0
O279 O 0.92845 0.32385 0.29637 0.0
C280 C 0.61022 0.50521 0.27734 0.0
O281 O 0.6244 0.50004 0.26425 0.0
Cd282 Cd 0.66471 0.52496 0.25741 0.0
O283 O 0.61683 0.52572 0.28715 0.0
Cd284 Cd 0.65434 0.5626 0.28469 0.0
C285 C 0.66166 0.56017 0.19712 0.0
O286 O 0.67648 0.54695 0.31011 0.0
O287 O 0.69697 0.58064 0.28824 0.0
O288 O 0.64373 0.57599 0.33739 0.0
C289 C 0.69612 0.5644 0.3062 0.0
O290 O 0.66986 0.54728 0.20438 0.0
C291 C 0.64942 0.59565 0.32508 0.0
O292 O 0.65255 0.56635 0.22085 0.0
O293 O 0.65641 0.59949 0.29346 0.0
C294 C 0.43347 0.14773 0.85399 0.0
O295 O 0.45426 0.15358 0.85956 0.0
Cd296 Cd 0.46906 0.12858 0.8674 0.0
O297 O 0.41813 0.12659 0.85112 0.0
Cd298 Cd 0.41767 0.08898 0.854 0.0
C299 C 0.43522 0.09907 0.9385 0.0
O300 O 0.45292 0.10095 0.82189 0.0
O301 O 0.44088 0.06958 0.85064 0.0
O302 O 0.39181 0.07566 0.80377 0.0
C303 C 0.45514 0.08383 0.82884 0.0
O304 O 0.45481 0.11262 0.92525 0.0
C305 C 0.37772 0.05622 0.81665 0.0
O306 O 0.41758 0.08859 0.91889 0.0
O307 O 0.38144 0.05244 0.848 0.0
C308 C 0.82862 0.27974 0.85788 0.0
O309 O 0.82282 0.29462 0.86429 0.0
Cd310 Cd 0.84794 0.33442 0.87265 0.0
O311 O 0.84973 0.28563 0.85442 0.0
Cd312 Cd 0.88739 0.32287 0.8573 0.0
C313 C 0.87801 0.3297 0.94246 0.0
O314 O 0.87498 0.34601 0.82623 0.0
O315 O 0.90665 0.36562 0.85415 0.0
O316 O 0.90015 0.3102 0.80645 0.0
C317 C 0.89212 0.36546 0.83286 0.0
O318 O 0.8643 0.33573 0.92999 0.0
C319 C 0.91974 0.3157 0.81874 0.0
O320 O 0.8884 0.32281 0.92217 0.0
O321 O 0.9239 0.32342 0.85001 0.0
C322 C 0.69495 0.54556 0.86165 0.0
O323 O 0.68003 0.52631 0.87423 0.0
Cd324 Cd 0.64002 0.51269 0.88082 0.0
O325 O 0.68932 0.5602 0.85197 0.0
Cd326 Cd 0.65292 0.56156 0.85338 0.0
C327 C 0.64519 0.55219 0.94094 0.0
O328 O 0.62903 0.52383 0.82837 0.0
O329 O 0.61011 0.53866 0.85059 0.0
O330 O 0.6644 0.58486 0.79993 0.0
C331 C 0.60987 0.52265 0.83269 0.0
O332 O 0.63619 0.53095 0.93374 0.0
C333 C 0.66041 0.6001 0.81202 0.0
O334 O 0.6548 0.56738 0.91718 0.0
O335 O 0.65384 0.59786 0.84381 0.0
C336 C 0.50018 0.87897 0.68871 0.0
O337 O 0.49445 0.85818 0.69414 0.0
Cd338 Cd 0.51952 0.84336 0.70095 0.0
O339 O 0.52127 0.8944 0.68567 0.0
Cd340 Cd 0.55902 0.89528 0.68811 0.0
C341 C 0.54939 0.8769 0.77218 0.0
O342 O 0.54705 0.86024 0.65558 0.0
O343 O 0.57869 0.87236 0.68353 0.0
O344 O 0.57194 0.92171 0.63859 0.0
C345 C 0.5642 0.85799 0.66208 0.0
O346 O 0.536 0.85734 0.75863 0.0
C347 C 0.59141 0.93572 0.65145 0.0
O348 O 0.55943 0.89477 0.75295 0.0
O349 O 0.5954 0.93164 0.68248 0.0
C350 C 0.10106 0.61642 0.69182 0.0
O351 O 0.12208 0.63072 0.69742 0.0
Cd352 Cd 0.13867 0.67098 0.70411 0.0
O353 O 0.08651 0.62316 0.68863 0.0
Cd354 Cd 0.08794 0.66116 0.69102 0.0
C355 C 0.10635 0.6695 0.77536 0.0
O356 O 0.1233 0.68303 0.65825 0.0
O357 O 0.1122 0.7036 0.68574 0.0
O358 O 0.0614 0.64827 0.6416 0.0
C359 C 0.12619 0.70276 0.66434 0.0
O360 O 0.12569 0.67468 0.76199 0.0
C361 C 0.04797 0.65447 0.65443 0.0
O362 O 0.08865 0.66247 0.75595 0.0
O363 O 0.05243 0.66277 0.68534 0.0
C364 C 0.36168 0.48089 0.6927 0.0
O365 O 0.34709 0.48706 0.69926 0.0
Cd366 Cd 0.30722 0.4625 0.70794 0.0
O367 O 0.3554 0.45968 0.68917 0.0
Cd368 Cd 0.31794 0.42228 0.692 0.0
C369 C 0.31182 0.43209 0.77738 0.0
O370 O 0.29522 0.43541 0.66154 0.0
O371 O 0.27524 0.40346 0.68864 0.0
O372 O 0.33039 0.40936 0.64107 0.0
C373 C 0.27565 0.41839 0.66793 0.0
O374 O 0.30604 0.44605 0.76517 0.0
C375 C 0.32467 0.38968 0.65327 0.0
O376 O 0.31825 0.42141 0.75685 0.0
O377 O 0.31686 0.38551 0.68448 0.0
C378 C 0.53853 0.83307 0.12013 0.0
O379 O 0.51784 0.82693 0.11297 0.0
Cd380 Cd 0.50251 0.8512 0.10255 0.0
O381 O 0.55359 0.85428 0.12357 0.0
Cd382 Cd 0.55412 0.89192 0.11977 0.0
C383 C 0.53915 0.88148 0.03405 0.0
O384 O 0.51769 0.87867 0.14824 0.0
O385 O 0.53055 0.91108 0.1223 0.0
O386 O 0.57894 0.90485 0.17129 0.0
C387 C 0.51526 0.8957 0.14167 0.0
O388 O 0.51924 0.86736 0.04575 0.0
C389 C 0.5933 0.92437 0.15893 0.0
O390 O 0.55594 0.89255 0.055 0.0
O391 O 0.59008 0.92845 0.12746 0.0
C392 C 0.13974 0.70906 0.13482 0.0
O393 O 0.14891 0.69667 0.13219 0.0
Cd394 Cd 0.12833 0.65772 0.11373 0.0
O395 O 0.11822 0.70067 0.13057 0.0
Cd396 Cd 0.08356 0.66179 0.12159 0.0
C397 C 0.10143 0.66264 0.03891 0.0
O398 O 0.09687 0.63943 0.1531 0.0
O399 O 0.06749 0.61953 0.12019 0.0
O400 O 0.06728 0.67118 0.17132 0.0
C401 C 0.08141 0.61983 0.14288 0.0
O402 O 0.11645 0.65923 0.05359 0.0
C403 C 0.04787 0.66474 0.15747 0.0
O404 O 0.08699 0.6651 0.05732 0.0
O405 O 0.0452 0.65771 0.12583 0.0
C406 C 0.28178 0.43972 0.12673 0.0
O407 O 0.29723 0.46036 0.12115 0.0
Cd408 Cd 0.33659 0.4739 0.11113 0.0
O409 O 0.28683 0.42382 0.12851 0.0
Cd410 Cd 0.32316 0.42185 0.12359 0.0
C411 C 0.32943 0.43943 0.03927 0.0
O412 O 0.34745 0.45669 0.15559 0.0
O413 O 0.36605 0.44439 0.12562 0.0
O414 O 0.31023 0.39577 0.17355 0.0
C415 C 0.36658 0.45864 0.14794 0.0
O416 O 0.33629 0.45914 0.05272 0.0
C417 C 0.31514 0.38147 0.16031 0.0
O418 O 0.32228 0.42176 0.05877 0.0
O419 O 0.32256 0.38518 0.12888 0.0
C420 C 0.14102 0.43954 0.62715 0.0
O421 O 0.14677 0.46041 0.62264 0.0
Cd422 Cd 0.12151 0.47475 0.61386 0.0
O423 O 0.11988 0.42397 0.62836 0.0
Cd424 Cd 0.08203 0.4229 0.62411 0.0
C425 C 0.09393 0.44205 0.54061 0.0
O426 O 0.09304 0.45727 0.65791 0.0
O427 O 0.06238 0.44596 0.62764 0.0
O428 O 0.06858 0.39581 0.67275 0.0
C429 C 0.07609 0.45966 0.65052 0.0
O430 O 0.10702 0.4614 0.55496 0.0
C431 C 0.04916 0.38205 0.65951 0.0
O432 O 0.08309 0.424 0.55927 0.0
O433 O 0.04541 0.38656 0.62861 0.0
C434 C 0.53864 0.70033 0.62372 0.0
O435 O 0.51776 0.68528 0.61887 0.0
Cd436 Cd 0.50281 0.64534 0.61155 0.0
O437 O 0.554 0.69459 0.626 0.0
Cd438 Cd 0.55431 0.65744 0.6227 0.0
C439 C 0.53522 0.64939 0.53907 0.0
O440 O 0.51976 0.63435 0.65648 0.0
O441 O 0.53115 0.61477 0.62691 0.0
O442 O 0.58214 0.67056 0.67041 0.0
C443 C 0.51736 0.61492 0.64947 0.0
O444 O 0.5157 0.64311 0.55275 0.0
C445 C 0.5956 0.66505 0.65567 0.0
O446 O 0.55304 0.65679 0.55824 0.0
O447 O 0.59047 0.65707 0.62464 0.0
C448 C 0.28159 0.83699 0.61728 0.0
O449 O 0.29654 0.8312 0.61141 0.0
Cd450 Cd 0.33647 0.85643 0.60393 0.0
O451 O 0.28742 0.85811 0.62031 0.0
Cd452 Cd 0.32441 0.89587 0.61748 0.0
C453 C 0.33312 0.88649 0.53305 0.0
O454 O 0.34746 0.88384 0.64974 0.0
O455 O 0.36704 0.91568 0.62221 0.0
O456 O 0.31121 0.90884 0.66738 0.0
C457 C 0.36686 0.90115 0.64352 0.0
O458 O 0.33909 0.87291 0.54622 0.0
C459 C 0.31636 0.92819 0.65442 0.0
O460 O 0.32551 0.89657 0.55263 0.0
O461 O 0.32417 0.93211 0.62321 0.0
C462 C 0.10648 0.48815 0.19125 0.0
O463 O 0.12706 0.494 0.19863 0.0
Cd464 Cd 0.14137 0.46883 0.20901 0.0
O465 O 0.09124 0.467 0.18795 0.0
Cd466 Cd 0.09051 0.42933 0.19259 0.0
C467 C 0.10563 0.43922 0.27824 0.0
O468 O 0.1265 0.44148 0.16279 0.0
O469 O 0.11359 0.4097 0.19074 0.0
O470 O 0.06571 0.41592 0.14108 0.0
C471 C 0.12841 0.42419 0.16979 0.0
O472 O 0.12559 0.45298 0.26637 0.0
C473 C 0.05111 0.3967 0.15403 0.0
O474 O 0.08869 0.42863 0.25738 0.0
O475 O 0.05415 0.39307 0.18581 0.0
C476 C 0.49939 0.61535 0.18999 0.0
O477 O 0.49327 0.63013 0.19516 0.0
Cd478 Cd 0.51769 0.66994 0.20434 0.0
O479 O 0.52061 0.62137 0.18823 0.0
Cd480 Cd 0.5579 0.6588 0.1932 0.0
C481 C 0.54511 0.66454 0.27697 0.0
O482 O 0.54629 0.68189 0.16018 0.0
O483 O 0.57698 0.70151 0.19034 0.0
O484 O 0.5731 0.64626 0.14538 0.0
C485 C 0.56309 0.70137 0.16779 0.0
O486 O 0.53178 0.67068 0.26337 0.0
C487 C 0.59228 0.65242 0.15989 0.0
O488 O 0.55632 0.65812 0.25766 0.0
O489 O 0.59502 0.66042 0.19089 0.0
C490 C 0.3595 0.87696 0.17774 0.0
O491 O 0.34362 0.85647 0.18303 0.0
Cd492 Cd 0.30557 0.84554 0.19937 0.0
O493 O 0.35527 0.89343 0.17856 0.0
Cd494 Cd 0.32037 0.89737 0.18683 0.0
C495 C 0.31859 0.88205 0.27096 0.0
O496 O 0.29196 0.86231 0.15796 0.0
O497 O 0.2782 0.87689 0.19419 0.0
O498 O 0.33152 0.92151 0.13485 0.0
C499 C 0.2745 0.86216 0.17052 0.0
O500 O 0.3106 0.86199 0.2581 0.0
C501 C 0.3287 0.93718 0.14819 0.0
O502 O 0.32483 0.89936 0.25096 0.0
O503 O 0.32306 0.935 0.18048 0.0
H504 H 0.33836 0.31747 0.80742 0.0
H505 H 0.29593 0.29597 0.00578 0.0
H506 H 0.38387 0.3413 0.89687 0.0
H507 H 0.25042 0.27428 0.91634 0.0
H508 H 0.32815 0.31926 0.96665 0.0
H509 H 0.30613 0.30834 0.84662 0.0
C510 C 0.34165 0.32122 0.83521 0.0
C511 C 0.36379 0.32979 0.84896 0.0
C512 C 0.31106 0.30972 0.95563 0.0
C513 C 0.32692 0.31904 0.8941 0.0
C514 C 0.29263 0.29646 0.97801 0.0
C515 C 0.2705 0.28283 0.96424 0.0
C516 C 0.30736 0.30919 0.91918 0.0
C517 C 0.26724 0.28428 0.92807 0.0
C518 C 0.32322 0.31594 0.85763 0.0
C519 C 0.36705 0.33444 0.88516 0.0
N520 N 0.28551 0.29688 0.90673 0.0
N521 N 0.34877 0.32865 0.90654 0.0
H522 H 0.65696 0.01471 0.80577 0.0
H523 H 0.67501 -0.00577 0.00553 0.0
H524 H 0.63191 0.03669 0.89339 0.0
H525 H 0.6993 0.97162 0.91773 0.0
H526 H 0.65158 0.00201 0.96506 0.0
H527 H 0.66483 0.99122 0.84591 0.0
C528 C 0.65267 0.01424 0.83333 0.0
C529 C 0.64421 0.02805 0.84636 0.0
C530 C 0.6617 -0.00506 0.95471 0.0
C531 C 0.6535 0.00148 0.89257 0.0
C532 C 0.67503 0.99042 0.97786 0.0
C533 C 0.6895 0.98272 0.9649 0.0
C534 C 0.66301 0.9919 0.91835 0.0
C535 C 0.68869 0.97791 0.92882 0.0
C536 C 0.65723 0.00085 0.8563 0.0
C537 C 0.63878 0.02658 0.88227 0.0
N538 N 0.67602 0.98297 0.90674 0.0
N539 N 0.64391 0.01389 0.90422 0.0
H540 H 0.97886 0.67748 0.0065 0.0
H541 H 0.95775 0.63602 0.80771 0.0
H542 H 0.00449 0.72347 0.91773 0.0
H543 H 0.93559 0.58999 0.89653 0.0
H544 H 0.98114 0.66797 0.84727 0.0
H545 H 0.96924 0.64527 0.96697 0.0
C546 C 0.98289 0.68087 0.9788 0.0
C547 C -0.00788 0.70316 0.96532 0.0
C548 C 0.97147 0.65083 0.85806 0.0
C549 C 0.98084 0.66632 0.9198 0.0
C550 C 0.95815 0.63255 0.83543 0.0
C551 C 0.94438 0.61036 0.84891 0.0
C552 C 0.97085 0.6469 0.89446 0.0
C553 C 0.94571 0.60687 0.88503 0.0
C554 C 0.97734 0.66245 0.95619 0.0
C555 C -0.00289 0.70654 0.92922 0.0
N556 N 0.95837 0.62499 0.90661 0.0
N557 N -0.00894 0.68828 0.90765 0.0
H558 H 0.33771 0.3932 0.58436 0.0
H559 H 0.27213 0.25748 0.56069 0.0
H560 H 0.31016 0.34488 0.67011 0.0
H561 H 0.29084 0.30553 0.47493 0.0
H562 H 0.29481 0.28941 0.60057 0.0
H563 H 0.32951 0.36162 0.54429 0.0
C564 C 0.33034 0.376 0.59492 0.0
C565 C 0.32422 0.37161 0.63055 0.0
C566 C 0.29428 0.29295 0.57293 0.0
C567 C 0.3146 0.33536 0.58471 0.0
C568 C 0.2814 0.2747 0.55007 0.0
C569 C 0.27923 0.27888 0.51451 0.0
C570 C 0.30503 0.31554 0.56017 0.0
C571 C 0.29179 0.30154 0.50223 0.0
C572 C 0.3256 0.35797 0.57197 0.0
C573 C 0.3149 0.34902 0.64276 0.0
N574 N 0.30386 0.31905 0.52513 0.0
N575 N 0.31005 0.33169 0.61979 0.0
H576 H 0.5883 0.94639 0.58307 0.0
H577 H 0.72389 0.01274 0.56085 0.0
H578 H 0.63613 0.96572 0.66924 0.0
H579 H 0.67588 0.98429 0.47482 0.0
H580 H 0.69222 0.00511 0.60029 0.0
H581 H 0.6202 0.96961 0.54349 0.0
C582 C 0.60546 0.95591 0.59384 0.0
C583 C 0.60961 0.95373 0.6294 0.0
C584 C 0.68866 0.00091 0.57266 0.0
C585 C 0.64623 0.98014 0.58411 0.0
C586 C 0.70674 0.00531 0.55008 0.0
C587 C 0.70245 -0.0013 0.51461 0.0
C588 C 0.66611 0.98973 0.55973 0.0
C589 C 0.67993 0.98936 0.50208 0.0
C590 C 0.62369 0.96912 0.57117 0.0
C591 C 0.63218 0.96665 0.64192 0.0
N592 N 0.66254 0.98481 0.52474 0.0
N593 N 0.64969 0.979 0.61918 0.0
H594 H 0.96909 0.70804 0.56391 0.0
H595 H 0.03635 0.63982 0.5865 0.0
H596 H -0.00491 0.68608 0.47751 0.0
H597 H 0.01901 0.67042 0.67221 0.0
H598 H 0.01256 0.64784 0.54729 0.0
H599 H 0.97829 0.68556 0.60406 0.0
C600 C 0.97629 0.6981 0.55324 0.0
C601 C 0.98174 0.69929 0.51736 0.0
C602 C 0.01365 0.65246 0.5748 0.0
C603 C -0.00745 0.67372 0.56332 0.0
C604 C 0.02718 0.64783 0.59726 0.0
C605 C 0.03001 0.65485 0.63257 0.0
C606 C 0.00292 0.66427 0.58769 0.0
C607 C 0.01755 0.66497 0.64508 0.0
C608 C 0.98162 0.68533 0.57624 0.0
C609 C -0.00914 0.68589 0.50503 0.0
N610 N 0.00482 0.66969 0.62254 0.0
N611 N -0.00367 0.67395 0.52806 0.0
H612 H 0.59141 0.63691 0.09309 0.0
H613 H 0.72655 0.71561 0.07453 0.0
H614 H 0.63709 0.67076 0.18027 0.0
H615 H 0.67989 0.68647 0.98703 0.0
H616 H 0.69522 0.69158 0.11463 0.0
H617 H 0.62454 0.64679 0.05571 0.0
C618 C 0.60839 0.64601 0.10458 0.0
C619 C 0.61152 0.65345 0.13967 0.0
C620 C 0.69192 0.69015 0.08661 0.0
C621 C 0.64955 0.66512 0.09687 0.0
C622 C 0.70982 0.70385 0.06368 0.0
C623 C 0.7057 0.70338 0.02743 0.0
C624 C 0.66976 0.67598 0.07319 0.0
C625 C 0.68375 0.68766 0.01484 0.0
C626 C 0.62733 0.65171 0.08317 0.0
C627 C 0.6339 0.66496 0.15323 0.0
N628 N 0.66652 0.67484 0.03772 0.0
N629 N 0.6521 0.67082 0.13163 0.0
H630 H 0.31809 0.97011 0.16693 0.0
H631 H 0.29515 0.98732 0.96801 0.0
H632 H 0.339 0.94489 0.07824 0.0
H633 H 0.27436 0.01281 0.05652 0.0
H634 H 0.31913 0.97959 0.0073 0.0
H635 H 0.31002 -0.00648 0.12686 0.0
C636 C 0.32146 0.96986 0.13913 0.0
C637 C 0.32876 0.95515 0.12583 0.0
C638 C 0.30965 0.98727 0.01805 0.0
C639 C 0.31927 0.98163 0.07976 0.0
C640 C 0.29599 0.99174 -0.00442 0.0
C641 C 0.28235 0.00026 0.00913 0.0
C642 C 0.30948 0.99114 0.05437 0.0
C643 C 0.28431 0.00588 0.04502 0.0
C644 C 0.31678 0.98319 0.11621 0.0
C645 C 0.33301 0.95569 0.08959 0.0
N646 N 0.29726 0.00082 0.0665 0.0
N647 N 0.32782 0.96837 0.06776 0.0
H648 H 0.01835 0.35321 0.1734 0.0
H649 H -0.00163 0.30971 0.97551 0.0
H650 H 0.04378 0.39837 0.08365 0.0
H651 H 0.97024 0.26493 0.06529 0.0
H652 H 0.00909 0.34269 0.01394 0.0
H653 H -0.00533 0.32128 0.13403 0.0
C654 C 0.01864 0.3565 0.14547 0.0
C655 C 0.03337 0.37841 0.13173 0.0
C656 C 0.00023 0.32563 0.02515 0.0
C657 C 0.00656 0.34188 0.08642 0.0
C658 C -0.00594 0.30678 0.00318 0.0
C659 C 0.98375 0.28457 0.01731 0.0
C660 C -0.00378 0.32224 0.06153 0.0
C661 C 0.97844 0.28178 0.05332 0.0
C662 C 0.00514 0.33824 0.12296 0.0
C663 C 0.03289 0.38171 0.09536 0.0
N664 N 0.98506 0.30041 0.07427 0.0
N665 N 0.02002 0.36356 0.07391 0.0
H666 H 0.66268 0.63985 0.30661 0.0
H667 H 0.68235 0.68042 0.5062 0.0
H668 H 0.63947 0.59364 0.39524 0.0
H669 H 0.70825 0.72661 0.41768 0.0
H670 H 0.65927 0.64884 0.46598 0.0
H671 H 0.67196 0.67177 0.34653 0.0
C672 C 0.65914 0.63634 0.3344 0.0
C673 C 0.65069 0.61411 0.3477 0.0
C674 C 0.66971 0.66594 0.45537 0.0
C675 C 0.66152 0.65061 0.3936 0.0
C676 C 0.68288 0.684 0.47835 0.0
C677 C 0.69758 0.7061 0.4652 0.0
C678 C 0.6714 0.66997 0.41896 0.0
C679 C 0.69738 0.70978 0.42892 0.0
C680 C 0.66449 0.6546 0.35721 0.0
C681 C 0.64624 0.61056 0.3839 0.0
N682 N 0.6848 0.69183 0.40701 0.0
N683 N 0.65205 0.62867 0.40565 0.0
H684 H 0.30364 0.00212 0.5036 0.0
H685 H 0.34465 0.01974 0.30491 0.0
H686 H 0.25758 0.97528 0.41502 0.0
H687 H 0.39085 0.04331 0.39354 0.0
H688 H 0.31284 -0.00322 0.34487 0.0
H689 H 0.33573 0.01068 0.46443 0.0
C690 C 0.30021 -0.00239 0.47604 0.0
C691 C 0.27796 0.98837 0.46245 0.0
C692 C 0.33 0.00665 0.35555 0.0
C693 C 0.31463 -0.0016 0.41736 0.0
C694 C 0.34819 0.01973 0.33269 0.0
C695 C 0.37037 0.03381 0.34598 0.0
C696 C 0.334 0.00787 0.39198 0.0
C697 C 0.37397 0.03296 0.38218 0.0
C698 C 0.31856 0.00254 0.45364 0.0
C699 C 0.27451 0.98272 0.42657 0.0
N700 N 0.35591 0.02056 0.40399 0.0
N701 N 0.29269 0.98817 0.40517 0.0
H702 H 0.94165 0.34584 0.39596 0.0
H703 H 0.00932 0.27841 0.42268 0.0
H704 H 0.96251 0.31756 0.31131 0.0
H705 H 0.97882 0.29701 0.50696 0.0
H706 H 0.00161 0.30192 0.38238 0.0
H707 H 0.96444 0.33749 0.43677 0.0
C708 C 0.95142 0.33832 0.38578 0.0
C709 C 0.9498 0.33196 0.35027 0.0
C710 C -0.00304 0.30119 0.40982 0.0
C711 C 0.97574 0.32214 0.39697 0.0
C712 C 0.00142 0.28781 0.4329 0.0
C713 C -0.00572 0.28538 0.46812 0.0
C714 C 0.98522 0.31216 0.422 0.0
C715 C 0.98433 0.29815 0.47992 0.0
C716 C 0.96437 0.33348 0.40916 0.0
C717 C 0.96301 0.32246 0.33856 0.0
N718 N 0.97976 0.3107 0.45678 0.0
N719 N 0.97512 0.31749 0.36196 0.0
H720 H 0.00297 0.64738 0.13787 0.0
H721 H 0.96241 0.62983 0.33673 0.0
H722 H 0.04892 0.67745 0.22596 0.0
H723 H 0.91591 0.60387 0.24858 0.0
H724 H -0.00634 0.65347 0.29633 0.0
H725 H 0.97052 0.63747 0.17707 0.0
C726 C 0.00627 0.6523 0.16531 0.0
C727 C 0.02864 0.66286 0.1788 0.0
C728 C 0.97655 0.64291 0.28585 0.0
C729 C -0.00838 0.65132 0.2239 0.0
C730 C 0.95867 0.62944 0.30896 0.0
C731 C 0.93661 0.61453 0.29594 0.0
C732 C 0.97236 0.64125 0.24944 0.0
C733 C 0.93273 0.61487 0.25973 0.0
C734 C -0.01227 0.6466 0.18772 0.0
C735 C 0.03193 0.66898 0.21452 0.0
N736 N 0.95051 0.62768 0.23768 0.0
N737 N 0.0136 0.66279 0.23592 0.0
H738 H 0.34907 0.33126 0.34025 0.0
H739 H 0.32817 0.35038 0.14128 0.0
H740 H 0.37091 0.30663 0.25193 0.0
H741 H 0.30347 0.37209 0.22967 0.0
H742 H 0.33683 0.32729 0.18108 0.0
H743 H 0.32542 0.3392 0.30056 0.0
C744 C 0.34853 0.32709 0.31262 0.0
C745 C 0.36233 0.31868 0.29929 0.0
C746 C 0.32912 0.33676 0.19171 0.0
C747 C 0.33557 0.32806 0.25358 0.0
C748 C 0.3241 0.34991 0.16894 0.0
C749 C 0.3155 0.36354 0.18226 0.0
C750 C 0.32571 0.33744 0.22808 0.0
C751 C 0.31041 0.36211 0.21831 0.0
C752 C 0.33506 0.33168 0.28992 0.0
C753 C 0.3608 0.31342 0.2633 0.0
N754 N 0.31598 0.34966 0.24004 0.0
N755 N 0.34802 0.31858 0.24161 0.0
H756 H 0.60227 0.92105 0.22814 0.0
H757 H 0.67483 0.0568 0.2499 0.0
H758 H 0.62443 0.96888 0.14163 0.0
H759 H 0.64482 0.00938 0.33633 0.0
H760 H 0.66501 0.02451 0.21052 0.0
H761 H 0.62605 0.95268 0.26788 0.0
C762 C 0.61247 0.93814 0.21736 0.0
C763 C 0.61103 0.94239 0.18159 0.0
C764 C 0.66092 0.02118 0.2382 0.0
C765 C 0.63814 0.97872 0.22704 0.0
C766 C 0.66659 0.03963 0.26077 0.0
C767 C 0.66024 0.03574 0.29636 0.0
C768 C 0.64872 -0.00132 0.25129 0.0
C769 C 0.64978 0.01315 0.30899 0.0
C770 C 0.62601 0.95621 0.24011 0.0
C771 C 0.6248 0.96486 0.16908 0.0
N772 N 0.64402 -0.00456 0.28636 0.0
N773 N 0.63751 0.98223 0.19187 0.0
H774 H 0.32912 0.97231 0.63572 0.0
H775 H 0.34688 0.01182 0.83506 0.0
H776 H 0.30399 0.92548 0.72352 0.0
H777 H 0.36865 0.05859 0.7472 0.0
H778 H 0.3242 0.98005 0.79484 0.0
H779 H 0.3367 0.0038 0.67563 0.0
C780 C 0.32476 0.96857 0.66327 0.0
C781 C 0.31632 0.94631 0.67641 0.0
C782 C 0.3336 -0.00269 0.78441 0.0
C783 C 0.32528 0.98232 0.72236 0.0
C784 C 0.34651 0.01548 0.80742 0.0
C785 C 0.36003 0.03783 0.79438 0.0
C786 C 0.33441 0.00151 0.74808 0.0
C787 C 0.35875 0.04158 0.75835 0.0
C788 C 0.32914 0.98658 0.6861 0.0
C789 C 0.31082 0.94244 0.71231 0.0
N790 N 0.34653 0.02356 0.73638 0.0
N791 N 0.31577 0.96032 0.73412 0.0
H792 H 0.05207 0.37004 0.72716 0.0
H793 H 0.91639 0.30322 0.74956 0.0
H794 H 0.00431 0.35278 0.64132 0.0
H795 H 0.9644 0.32978 0.83581 0.0
H796 H 0.9481 0.31201 0.7095 0.0
H797 H 0.02009 0.3462 0.76625 0.0
C798 C 0.0349 0.36086 0.71633 0.0
C799 C 0.0308 0.36377 0.68105 0.0
C800 C 0.95165 0.31554 0.73727 0.0
C801 C -0.00591 0.33664 0.7258 0.0
C802 C 0.93354 0.31047 0.76022 0.0
C803 C 0.93781 0.31619 0.79601 0.0
C804 C 0.97421 0.32649 0.75018 0.0
C805 C 0.96035 0.32536 0.80835 0.0
C806 C 0.01663 0.34729 0.73873 0.0
C807 C 0.00823 0.35127 0.66844 0.0
N808 N 0.97776 0.33056 0.78537 0.0
N809 N -0.00933 0.33854 0.69094 0.0
H810 H 0.65276 0.63496 0.83057 0.0
H811 H 0.62459 0.65009 0.63354 0.0
H812 H 0.66787 0.60537 0.74099 0.0
H813 H 0.60881 0.67884 0.7235 0.0
H814 H 0.64876 0.64146 0.67091 0.0
H815 H 0.64504 0.65868 0.79077 0.0
C816 C 0.65487 0.63376 0.80254 0.0
C817 C 0.66049 0.61781 0.78903 0.0
C818 C 0.64036 0.65005 0.68236 0.0
C819 C 0.65137 0.64469 0.74327 0.0
C820 C 0.6266 0.65505 0.66099 0.0
C821 C 0.61426 0.66473 0.6756 0.0
C822 C 0.64162 0.65462 0.71861 0.0
C823 C 0.6177 0.671 0.71124 0.0
C824 C 0.65043 0.6473 0.7798 0.0
C825 C 0.66325 0.61719 0.75253 0.0
N826 N 0.63072 0.66545 0.73166 0.0
N827 N 0.65825 0.63012 0.73087 0.0
H828 H 0.24505 0.0704 0.98115 0.0
H829 H 0.19567 0.15525 0.95138 0.0
H830 H 0.18005 0.05162 0.93266 0.0
H831 H 0.25333 0.17255 0.01945 0.0
H832 H 0.19383 0.11921 0.93695 0.0
H833 H 0.25207 0.1097 0.98888 0.0
C834 C 0.23236 0.07456 0.97193 0.0
C835 C 0.21184 0.05765 0.95652 0.0
C836 C 0.20698 0.13088 0.95495 0.0
C837 C 0.21981 0.10236 0.965 0.0
C838 C 0.20807 0.15152 0.96316 0.0
C839 C 0.2245 0.16681 0.987 0.0
C840 C 0.22239 0.12531 0.97071 0.0
C841 C 0.24029 0.16115 0.00112 0.0
C842 C 0.23636 0.09693 0.97642 0.0
C843 C 0.196 0.06396 0.94503 0.0
N844 N 0.23873 0.14071 -0.00702 0.0
N845 N 0.20032 0.08572 0.94954 0.0
H846 H 0.90992 0.13899 0.91974 0.0
H847 H 0.80005 0.07859 0.04445 0.0
H848 H 0.90528 0.17024 0.01602 0.0
H849 H 0.80875 0.05028 0.94776 0.0
H850 H 0.83551 0.11479 0.0316 0.0
H851 H 0.86995 0.10932 0.92604 0.0
C852 C 0.90029 0.13962 0.94215 0.0
C853 C 0.91082 0.15683 0.96758 0.0
C854 C 0.82943 0.10074 0.01302 0.0
C855 C 0.86509 0.12253 0.97565 0.0
C856 C 0.80919 0.08014 0.02029 0.0
C857 C 0.80169 0.06137 -0.00265 0.0
C858 C 0.84202 0.10247 0.98251 0.0
C859 C 0.81413 0.06424 0.9664 0.0
C860 C 0.87746 0.12268 0.94581 0.0
C861 C 0.89764 0.15712 -0.00408 0.0
N862 N 0.83369 0.08427 0.96007 0.0
N863 N 0.87544 0.13991 -0.00041 0.0
H864 H 0.81028 0.73634 0.98624 0.0
H865 H 0.94353 0.78168 0.95239 0.0
H866 H 0.8553 0.79644 0.9253 0.0
H867 H 0.90152 0.72399 0.01962 0.0
H868 H 0.90993 0.78453 0.93767 0.0
H869 H 0.84208 0.72896 -0.00532 0.0
C870 C 0.82676 0.74789 0.97447 0.0
C871 C 0.83015 0.76715 0.95527 0.0
C872 C 0.90795 0.77114 0.95552 0.0
C873 C 0.8665 0.75878 0.96475 0.0
C874 C 0.92717 0.76949 0.9639 0.0
C875 C 0.92537 0.7527 0.98752 0.0
C876 C 0.88669 0.75597 0.97095 0.0
C877 C 0.90367 0.73726 0.0014 0.0
C878 C 0.8449 0.74368 0.97933 0.0
C879 C 0.85188 0.78149 0.94057 0.0
N880 N 0.88517 0.73937 -0.00688 0.0
N881 N 0.86918 0.77705 0.94572 0.0
H882 H 0.15379 0.2059 0.53101 0.0
H883 H 0.06584 0.25125 0.49926 0.0
H884 H 0.16835 0.26139 0.45973 0.0
H885 H 0.04994 0.1888 0.55374 0.0
H886 H 0.10547 0.25936 0.49137 0.0
H887 H 0.11792 0.20393 0.54708 0.0
C888 C 0.14949 0.2178 0.51888 0.0
C889 C 0.16393 0.23362 0.49364 0.0
C890 C 0.09327 0.24399 0.50524 0.0
C891 C 0.12263 0.23135 0.51176 0.0
C892 C 0.07072 0.23939 0.50983 0.0
C893 C 0.05451 0.2192 0.52685 0.0
C894 C 0.09959 0.22839 0.51814 0.0
C895 C 0.06174 0.20443 0.54005 0.0
C896 C 0.12896 0.21665 0.52804 0.0
C897 C 0.1576 0.24882 0.47914 0.0
N898 N 0.08365 0.20929 0.53533 0.0
N899 N 0.13726 0.24716 0.48815 0.0
H900 H 0.78889 0.85668 0.56772 0.0
H901 H 0.718 0.90359 0.46281 0.0
H902 H 0.73162 0.81351 0.50041 0.0
H903 H 0.77646 0.94492 0.5291 0.0
H904 H 0.71993 0.86948 0.47996 0.0
H905 H 0.78178 0.88815 0.55768 0.0
C906 C 0.77472 0.85377 0.55087 0.0
C907 C 0.76097 0.83244 0.53459 0.0
C908 C 0.7322 0.88601 0.49093 0.0
C909 C 0.75277 0.86869 0.52277 0.0
C910 C 0.73108 0.90546 0.48121 0.0
C911 C 0.74724 0.92715 0.49431 0.0
C912 C 0.74956 0.88835 0.51392 0.0
C913 C 0.76379 0.92859 0.51809 0.0
C914 C 0.77065 0.8718 0.54516 0.0
C915 C 0.74271 0.82969 0.51337 0.0
N916 N 0.76458 0.90951 0.52695 0.0
N917 N 0.73924 0.8477 0.50781 0.0
H918 H 0.0409 0.82129 0.53332 0.0
H919 H 0.17031 0.91386 0.48268 0.0
H920 H 0.07609 0.81031 0.44725 0.0
H921 H 0.12469 0.92717 0.54505 0.0
H922 H 0.13946 0.87351 0.47671 0.0
H923 H 0.07548 0.8574 0.54639 0.0
C924 C 0.05602 0.82642 0.51732 0.0
C925 C 0.05552 0.81299 0.48882 0.0
C926 C 0.13639 0.88533 0.49184 0.0
C927 C 0.09523 0.8546 0.50337 0.0
C928 C 0.15393 0.90826 0.49531 0.0
C929 C 0.14992 0.9239 0.51403 0.0
C930 C 0.11501 0.87811 0.50781 0.0
C931 C 0.12845 0.91582 0.52993 0.0
C932 C 0.07577 0.84709 0.52474 0.0
C933 C 0.07574 0.8203 0.46932 0.0
N934 N 0.11188 0.89357 0.52645 0.0
N935 N 0.09479 0.84084 0.47667 0.0
H936 H 0.80201 0.94133 0.01557 0.0
H937 H 0.71782 0.80967 0.96744 0.0
H938 H 0.72934 0.91417 0.00079 0.0
H939 H 0.78669 0.83735 0.00714 0.0
H940 H 0.72108 0.84738 0.9762 0.0
H941 H 0.79634 0.90315 0.008 0.0
C942 C 0.78479 0.92733 0.01063 0.0
C943 C 0.7661 0.93105 0.0089 0.0
C944 C 0.73537 0.84507 0.98313 0.0
C945 C 0.75946 0.88685 0.00026 0.0
C946 C 0.7335 0.82357 0.97816 0.0
C947 C 0.75204 0.82039 0.98638 0.0
C948 C 0.75595 0.86341 -0.00389 0.0
C949 C 0.77199 0.839 0.00025 0.0
C950 C 0.78155 0.90542 0.00645 0.0
C951 C 0.74423 0.91209 0.0024 0.0
N952 N 0.77343 0.85965 0.00445 0.0
N953 N 0.74149 0.89074 -0.00176 0.0
H954 H 0.15663 0.94416 0.02933 0.0
H955 H 0.06785 0.81121 -0.00705 0.0
H956 H 0.17054 0.90431 0.95475 0.0
H957 H 0.05299 0.8571 0.05169 0.0
H958 H 0.10762 0.84275 0.98544 0.0
H959 H 0.12096 0.90988 0.04524 0.0
C960 C 0.15224 0.92811 0.01645 0.0
C961 C 0.16641 0.92715 -0.00967 0.0
C962 C 0.09562 0.84576 0.00017 0.0
C963 C 0.12531 0.8877 0.00821 0.0
C964 C 0.07299 0.82779 0.00454 0.0
C965 C 0.05703 0.83163 0.0226 0.0
C966 C 0.10225 0.8675 0.01437 0.0
C967 C 0.06458 0.85342 0.03712 0.0
C968 C 0.13181 0.90851 0.02552 0.0
C969 C 0.15998 0.9058 0.97487 0.0
N970 N 0.08655 0.87046 0.0326 0.0
N971 N 0.13971 0.8869 0.98377 0.0
H972 H 0.16202 0.24779 -0.00601 0.0
H973 H 0.02768 0.19942 0.02373 0.0
H974 H 0.11492 0.18215 0.04022 0.0
H975 H 0.06951 0.2589 0.95959 0.0
H976 H 0.06126 0.19603 0.03603 0.0
H977 H 0.12997 0.25512 0.98657 0.0
C978 C 0.14503 0.23501 0.00273 0.0
C979 C 0.14113 0.21425 0.0175 0.0
C980 C 0.06319 0.20989 0.01932 0.0
C981 C 0.10462 0.22255 0.00934 0.0
C982 C 0.04398 0.21187 0.01235 0.0
C983 C 0.04574 0.22936 -0.00964 0.0
C984 C 0.08443 0.22551 0.00424 0.0
C985 C 0.06738 0.24508 0.97655 0.0
C986 C 0.12678 0.23917 -0.00158 0.0
C987 C 0.11877 0.1983 0.02838 0.0
N988 N 0.08591 0.24272 0.98357 0.0
N989 N 0.10146 0.20279 0.02406 0.0
H990 H 0.93338 0.80586 0.45445 0.0
H991 H 0.80554 0.72208 0.52161 0.0
H992 H 0.91017 0.73564 0.48377 0.0
H993 H 0.82956 0.78885 0.47554 0.0
H994 H 0.84307 0.72579 0.50897 0.0
H995 H 0.89503 0.79925 0.46375 0.0
C996 C 0.9202 0.78897 0.46289 0.0
C997 C 0.92511 0.77129 0.46841 0.0
C998 C 0.83999 0.73951 0.50149 0.0
C999 C 0.88068 0.76354 0.47917 0.0
C1000 C 0.81861 0.73741 0.50865 0.0
C1001 C 0.81448 0.75526 0.49983 0.0
C1002 C 0.85725 0.75963 0.48556 0.0
C1003 C 0.83197 0.77471 0.48305 0.0
C1004 C 0.89817 0.78518 0.4681 0.0
C1005 C 0.90715 0.74976 0.4792 0.0
N1006 N 0.85254 0.77639 0.47668 0.0
N1007 N 0.88568 0.74649 0.4844 0.0
H1008 H 0.17925 0.12442 0.4346 0.0
H1009 H 0.25851 0.08021 0.51856 0.0
H1010 H 0.24418 0.17077 0.48344 0.0
H1011 H 0.19903 0.03912 0.45399 0.0
H1012 H 0.25481 0.11396 0.50573 0.0
H1013 H 0.1872 0.09334 0.44151 0.0
C1014 C 0.19526 0.1281 0.44681 0.0
C1015 C 0.211 0.15025 0.4587 0.0
C1016 C 0.24273 0.09757 0.49417 0.0
C1017 C 0.22026 0.11441 0.46684 0.0
C1018 C 0.24483 0.07833 0.50145 0.0
C1019 C 0.22892 0.05678 0.48757 0.0
C1020 C 0.22456 0.09513 0.47301 0.0
C1021 C 0.21158 0.05532 0.46552 0.0
C1022 C 0.19984 0.11028 0.45063 0.0
C1023 C 0.23156 0.15393 0.47395 0.0
N1024 N 0.20979 0.07415 0.45917 0.0
N1025 N 0.23553 0.13611 0.47789 0.0
H1026 H 0.94233 0.15765 0.45403 0.0
H1027 H 0.8082 0.06999 0.48186 0.0
H1028 H 0.89975 0.17364 0.51929 0.0
H1029 H 0.85564 0.0532 0.43247 0.0
H1030 H 0.83971 0.10972 0.48923 0.0
H1031 H 0.90878 0.12121 0.43863 0.0
C1032 C 0.92585 0.15355 0.46496 0.0
C1033 C 0.92389 0.16858 0.48832 0.0
C1034 C 0.8431 0.09731 0.47661 0.0
C1035 C 0.88526 0.12664 0.47097 0.0
C1036 C 0.82515 0.07468 0.47234 0.0
C1037 C 0.82934 0.0582 0.45686 0.0
C1038 C 0.86525 0.10342 0.46497 0.0
C1039 C 0.85161 0.06521 0.44495 0.0
C1040 C 0.90667 0.13268 0.45619 0.0
C1041 C 0.90203 0.16245 0.50135 0.0
N1042 N 0.86866 0.08721 0.44934 0.0
N1043 N 0.88354 0.1418 0.49274 0.0
H1044 H 0.92341 0.50584 0.35541 0.0
H1045 H 0.84927 0.38325 0.26486 0.0
H1046 H 0.8652 0.48666 0.28764 0.0
H1047 H 0.91264 0.40249 0.31909 0.0
H1048 H 0.85636 0.42203 0.27183 0.0
H1049 H 0.92155 0.46934 0.34114 0.0
C1050 C 0.91042 0.4941 0.33727 0.0
C1051 C 0.89425 0.49916 0.323 0.0
C1052 C 0.86886 0.41795 0.28212 0.0
C1053 C 0.892 0.45755 0.30676 0.0
C1054 C 0.86476 0.39569 0.27825 0.0
C1055 C 0.88028 0.38953 0.29172 0.0
C1056 C 0.88854 0.43431 0.3 0.0
C1057 C 0.9002 0.40652 0.3084 0.0
C1058 C 0.90937 0.47329 0.32918 0.0
C1059 C 0.87785 0.48339 0.29959 0.0
N1060 N 0.90367 0.42816 0.31243 0.0
N1061 N 0.87706 0.46329 0.29246 0.0
H1062 H 0.57585 0.50621 0.31542 0.0
H1063 H 0.48832 0.37266 0.28218 0.0
H1064 H 0.58949 0.46214 0.24956 0.0
H1065 H 0.47367 0.4134 0.35382 0.0
H1066 H 0.52376 0.40689 0.26528 0.0
H1067 H 0.53686 0.47404 0.32549 0.0
C1068 C 0.57062 0.48988 0.30285 0.0
C1069 C 0.58606 0.48682 0.28189 0.0
C1070 C 0.5128 0.40847 0.28458 0.0
C1071 C 0.54162 0.45009 0.29324 0.0
C1072 C 0.49251 0.38888 0.29423 0.0
C1073 C 0.47814 0.39014 0.31971 0.0
C1074 C 0.51897 0.42957 0.30065 0.0
C1075 C 0.48435 0.41168 0.33417 0.0
C1076 C 0.54839 0.47154 0.30866 0.0
C1077 C 0.57833 0.46529 0.26623 0.0
N1078 N 0.50445 0.43057 0.32468 0.0
N1079 N 0.55676 0.4478 0.27235 0.0
H1080 H 0.47671 0.06743 0.31415 0.0
H1081 H 0.61042 0.11332 0.28362 0.0
H1082 H 0.52466 0.13257 0.26737 0.0
H1083 H 0.56846 0.05538 0.35047 0.0
H1084 H 0.57695 0.11658 0.26993 0.0
H1085 H 0.50814 0.05914 0.3211 0.0
C1086 C 0.49375 0.0799 0.30518 0.0
C1087 C 0.4981 0.10081 0.29045 0.0
C1088 C 0.57496 0.10306 0.28749 0.0
C1089 C 0.53387 0.09139 0.29799 0.0
C1090 C 0.59409 0.10115 0.29526 0.0
C1091 C 0.59229 0.08422 0.31856 0.0
C1092 C 0.55376 0.08798 0.30316 0.0
C1093 C 0.57061 0.06879 0.33255 0.0
C1094 C 0.51165 0.07518 0.3092 0.0
C1095 C 0.52049 0.11633 0.27923 0.0
N1096 N 0.55216 0.07114 0.32485 0.0
N1097 N 0.53746 0.11131 0.28326 0.0
H1098 H 0.83459 0.59344 0.79192 0.0
H1099 H 0.71367 0.52132 0.88909 0.0
H1100 H 0.81611 0.53531 0.85955 0.0
H1101 H 0.73084 0.58106 0.82597 0.0
H1102 H 0.75227 0.52806 0.88075 0.0
H1103 H 0.79801 0.5912 0.80638 0.0
C1104 C 0.82295 0.58036 0.81004 0.0
C1105 C 0.8283 0.5644 0.82432 0.0
C1106 C 0.74772 0.53981 0.86878 0.0
C1107 C 0.78653 0.5617 0.84081 0.0
C1108 C 0.72559 0.53593 0.87349 0.0
C1109 C 0.71889 0.55054 0.85797 0.0
C1110 C 0.76342 0.55836 0.84815 0.0
C1111 C 0.73524 0.56932 0.83832 0.0
C1112 C 0.80208 0.57907 0.81823 0.0
C1113 C 0.81264 0.54785 0.84768 0.0
N1114 N 0.75674 0.5726 0.83373 0.0
N1115 N 0.79247 0.54686 0.85499 0.0
H1116 H 0.45847 0.19149 0.87775 0.0
H1117 H 0.3811 0.23671 0.79046 0.0
H1118 H 0.3949 0.14573 0.82498 0.0
H1119 H 0.43827 0.2765 0.85982 0.0
H1120 H 0.38431 0.20269 0.8034 0.0
H1121 H 0.45015 0.22238 0.87171 0.0
C1122 C 0.44268 0.18791 0.86485 0.0
C1123 C 0.42745 0.166 0.85157 0.0
C1124 C 0.39596 0.21884 0.81602 0.0
C1125 C 0.41777 0.20161 0.84441 0.0
C1126 C 0.39413 0.23823 0.80868 0.0
C1127 C 0.40962 0.25952 0.82378 0.0
C1128 C 0.41344 0.22088 0.83847 0.0
C1129 C 0.42612 0.26052 0.84726 0.0
C1130 C 0.43788 0.2056 0.86154 0.0
C1131 C 0.40713 0.16239 0.83553 0.0
N1132 N 0.42769 0.24157 0.85362 0.0
N1133 N 0.40296 0.18012 0.83205 0.0
H1134 H 0.73958 0.13882 0.79052 0.0
H1135 H 0.78498 0.26064 0.88215 0.0
H1136 H 0.6992 0.15616 0.85856 0.0
H1137 H 0.83044 0.24346 0.82718 0.0
H1138 H 0.75396 0.22149 0.87491 0.0
H1139 H 0.77365 0.17581 0.80499 0.0
C1140 C 0.73793 0.15026 0.80878 0.0
C1141 C 0.71648 0.14453 0.82306 0.0
C1142 C 0.77069 0.22611 0.86451 0.0
C1143 C 0.75519 0.18672 0.83951 0.0
C1144 C 0.78846 0.24858 0.86853 0.0
C1145 C 0.81032 0.25542 0.85494 0.0
C1146 C 0.77456 0.21021 0.84637 0.0
C1147 C 0.81382 0.23889 0.83797 0.0
C1148 C 0.75736 0.17136 0.81697 0.0
C1149 C 0.71532 0.15994 0.84661 0.0
N1150 N 0.79602 0.21703 0.83382 0.0
N1151 N 0.73431 0.18033 0.85384 0.0
H1152 H 0.38649 0.14356 0.28917 0.0
H1153 H 0.46158 0.26504 0.38261 0.0
H1154 H 0.44443 0.16136 0.35686 0.0
H1155 H 0.3989 0.24728 0.32735 0.0
H1156 H 0.45397 0.22613 0.37478 0.0
H1157 H 0.38891 0.1802 0.30429 0.0
C1158 C 0.39954 0.15504 0.30747 0.0
C1159 C 0.41545 0.14954 0.32149 0.0
C1160 C 0.44173 0.23057 0.36445 0.0
C1161 C 0.41835 0.19131 0.3387 0.0
C1162 C 0.44613 0.25289 0.36882 0.0
C1163 C 0.43097 0.25951 0.35531 0.0
C1164 C 0.42212 0.2146 0.34603 0.0
C1165 C 0.41107 0.24289 0.33809 0.0
C1166 C 0.40092 0.17592 0.31604 0.0
C1167 C 0.43196 0.16497 0.34511 0.0
N1168 N 0.40732 0.22119 0.33359 0.0
N1169 N 0.43306 0.18516 0.35272 0.0
H1170 H 0.82383 0.27623 0.36379 0.0
H1171 H 0.73533 0.1434 0.32596 0.0
H1172 H 0.83914 0.23639 0.29126 0.0
H1173 H 0.71897 0.1901 0.37899 0.0
H1174 H 0.7753 0.17486 0.32001 0.0
H1175 H 0.78747 0.24216 0.37755 0.0
C1176 C 0.8196 0.26023 0.35092 0.0
C1177 C 0.83439 0.25922 0.32598 0.0
C1178 C 0.7629 0.17806 0.3331 0.0
C1179 C 0.79251 0.22 0.34141 0.0
C1180 C 0.74016 0.16016 0.33656 0.0
C1181 C 0.72375 0.16421 0.35265 0.0
C1182 C 0.76918 0.19996 0.34626 0.0
C1183 C 0.73092 0.18622 0.36597 0.0
C1184 C 0.79878 0.24074 0.35874 0.0
C1185 C 0.82812 0.23792 0.31048 0.0
N1186 N 0.753 0.20318 0.36242 0.0
N1187 N 0.80748 0.21913 0.31818 0.0
H1188 H 0.78316 0.51326 0.37325 0.0
H1189 H 0.74145 0.59516 0.29066 0.0
H1190 H 0.83068 0.57919 0.32829 0.0
H1191 H 0.69798 0.53202 0.34612 0.0
H1192 H 0.77481 0.59116 0.3053 0.0
H1193 H 0.75222 0.52118 0.36441 0.0
C1194 C 0.78713 0.52948 0.36148 0.0
C1195 C 0.80958 0.54551 0.35125 0.0
C1196 C 0.75797 0.57832 0.31444 0.0
C1197 C 0.7739 0.55476 0.34088 0.0
C1198 C 0.73895 0.5806 0.30614 0.0
C1199 C 0.71688 0.56378 0.31691 0.0
C1200 C 0.75477 0.55909 0.33357 0.0
C1201 C 0.71461 0.5453 0.33695 0.0
C1202 C 0.76938 0.53404 0.35652 0.0
C1203 C 0.81361 0.56633 0.33649 0.0
N1204 N 0.73325 0.54341 0.34441 0.0
N1205 N 0.79587 0.57031 0.33147 0.0
H1206 H 0.57305 0.06391 0.81503 0.0
H1207 H 0.48758 0.11222 0.78227 0.0
H1208 H 0.59164 0.12872 0.76601 0.0
H1209 H 0.47017 0.05455 0.85039 0.0
H1210 H 0.52384 0.11435 0.76861 0.0
H1211 H 0.53354 0.05646 0.82161 0.0
C1212 C 0.56881 0.07646 0.80547 0.0
C1213 C 0.58572 0.09707 0.79026 0.0
C1214 C 0.5121 0.10113 0.78644 0.0
C1215 C 0.54078 0.08861 0.7974 0.0
C1216 C 0.49133 0.09987 0.7942 0.0
C1217 C 0.47594 0.08336 0.81785 0.0
C1218 C 0.51769 0.08581 0.80249 0.0
C1219 C 0.48164 0.06765 0.8322 0.0
C1220 C 0.54632 0.07223 0.80929 0.0
C1221 C 0.57929 0.11273 0.77828 0.0
N1222 N 0.5022 0.06938 0.82452 0.0
N1223 N 0.55743 0.10818 0.78215 0.0
H1224 H 0.91037 0.50283 0.81911 0.0
H1225 H 0.86362 0.36908 0.78626 0.0
H1226 H 0.84578 0.45564 0.77013 0.0
H1227 H 0.92101 0.40998 0.85468 0.0
H1228 H 0.86105 0.40295 0.77272 0.0
H1229 H 0.91831 0.47111 0.8259 0.0
C1230 C 0.89796 0.4859 0.80961 0.0
C1231 C 0.87728 0.48184 0.79434 0.0
C1232 C 0.8743 0.40464 0.7906 0.0
C1233 C 0.8863 0.44576 0.80169 0.0
C1234 C 0.87581 0.38526 0.7983 0.0
C1235 C 0.89237 0.38664 0.82198 0.0
C1236 C 0.88941 0.42566 0.80676 0.0
C1237 C 0.90788 0.40816 0.83644 0.0
C1238 C 0.90248 0.46785 0.81355 0.0
C1239 C 0.86182 0.45959 0.78244 0.0
N1240 N 0.9059 0.42685 0.82884 0.0
N1241 N 0.86665 0.44248 0.78641 0.0
H1242 H 0.56532 0.50923 0.85178 0.0
H1243 H 0.51864 0.38431 0.7701 0.0
H1244 H 0.60565 0.48796 0.79125 0.0
H1245 H 0.47337 0.4039 0.81976 0.0
H1246 H 0.55012 0.42319 0.77658 0.0
H1247 H 0.5309 0.47205 0.83904 0.0
C1248 C 0.56689 0.49688 0.83554 0.0
C1249 C 0.58842 0.50158 0.82286 0.0
C1250 C 0.53335 0.41917 0.78603 0.0
C1251 C 0.54934 0.45923 0.80837 0.0
C1252 C 0.51529 0.39683 0.78245 0.0
C1253 C 0.49331 0.39072 0.79472 0.0
C1254 C 0.52968 0.43575 0.80236 0.0
C1255 C 0.49006 0.40787 0.81003 0.0
C1256 C 0.54728 0.47568 0.82834 0.0
C1257 C 0.5895 0.48501 0.80193 0.0
N1258 N 0.50815 0.42964 0.81374 0.0
N1259 N 0.57032 0.46462 0.79557 0.0
H1260 H 0.51304 0.71876 0.60188 0.0
H1261 H 0.59354 0.84295 0.68326 0.0
H1262 H 0.57808 0.73738 0.65005 0.0
H1263 H 0.53467 0.82473 0.6175 0.0
H1264 H 0.58968 0.80539 0.67062 0.0
H1265 H 0.52179 0.75819 0.60709 0.0
C1266 C 0.52923 0.73118 0.6136 0.0
C1267 C 0.54477 0.72468 0.62584 0.0
C1268 C 0.5778 0.80978 0.6587 0.0
C1269 C 0.55495 0.77022 0.63199 0.0
C1270 C 0.58 0.83119 0.66585 0.0
C1271 C 0.56422 0.83685 0.65173 0.0
C1272 C 0.55966 0.79401 0.63743 0.0
C1273 C 0.54707 0.82103 0.62928 0.0
C1274 C 0.53428 0.75381 0.61642 0.0
C1275 C 0.5656 0.74167 0.64036 0.0
N1276 N 0.54514 0.80032 0.62311 0.0
N1277 N 0.57002 0.76369 0.64338 0.0
H1278 H 0.15857 0.70507 0.61912 0.0
H1279 H 0.24509 0.83977 0.64468 0.0
H1280 H 0.14183 0.74778 0.68271 0.0
H1281 H 0.26273 0.79237 0.5973 0.0
H1282 H 0.20557 0.80794 0.65252 0.0
H1283 H 0.19503 0.73868 0.60394 0.0
C1284 C 0.16251 0.72158 0.62974 0.0
C1285 C 0.14724 0.72358 0.65253 0.0
C1286 C 0.21813 0.80463 0.64026 0.0
C1287 C 0.18919 0.76228 0.63541 0.0
C1288 C 0.24063 0.82276 0.63571 0.0
C1289 C 0.2573 0.81869 0.62062 0.0
C1290 C 0.21231 0.78242 0.6293 0.0
C1291 C 0.25058 0.79633 0.60944 0.0
C1292 C 0.18339 0.7408 0.6211 0.0
C1293 C 0.1532 0.74548 0.66521 0.0
N1294 N 0.22869 0.77911 0.61407 0.0
N1295 N 0.17383 0.764 0.6567 0.0
H1296 H 0.2727 0.4487 0.62435 0.0
H1297 H 0.13815 0.39958 0.65179 0.0
H1298 H 0.23086 0.38875 0.6876 0.0
H1299 H 0.1859 0.46636 0.60965 0.0
H1300 H 0.17004 0.39194 0.65856 0.0
H1301 H 0.239 0.45165 0.61129 0.0
C1302 C 0.25635 0.43604 0.63535 0.0
C1303 C 0.25465 0.41861 0.65743 0.0
C1304 C 0.1734 0.4082 0.64773 0.0
C1305 C 0.21581 0.42198 0.64271 0.0
C1306 C 0.15525 0.41254 0.6438 0.0
C1307 C 0.15939 0.43371 0.6304 0.0
C1308 C 0.19568 0.42504 0.63777 0.0
C1309 C 0.18187 0.44989 0.62044 0.0
C1310 C 0.23708 0.43776 0.62794 0.0
C1311 C 0.23293 0.40255 0.67062 0.0
N1312 N 0.19907 0.44521 0.62434 0.0
N1313 N 0.21432 0.40471 0.66327 0.0
H1314 H 0.39825 0.91736 0.15829 0.0
H1315 H 0.47911 0.86275 0.17828 0.0
H1316 H 0.37477 0.8467 0.18511 0.0
H1317 H 0.5017 0.92682 0.12395 0.0
H1318 H 0.44198 0.85952 0.18797 0.0
H1319 H 0.43729 0.92366 0.15117 0.0
C1320 C 0.40126 0.9032 0.16263 0.0
C1321 C 0.38316 0.88145 0.17224 0.0
C1322 C 0.45502 0.87434 0.17396 0.0
C1323 C 0.42761 0.88862 0.16458 0.0
C1324 C 0.4763 0.87625 0.16852 0.0
C1325 C 0.49349 0.89499 0.14999 0.0
C1326 C 0.45074 0.89131 0.1609 0.0
C1327 C 0.48886 0.91202 0.13821 0.0
C1328 C 0.4235 0.90682 0.15855 0.0
C1329 C 0.38806 0.86374 0.17754 0.0
N1330 N 0.46783 0.90974 0.14375 0.0
N1331 N 0.40976 0.86775 0.17377 0.0
H1332 H 0.05397 0.5755 0.11934 0.0
H1333 H 0.1312 0.53233 0.21348 0.0
H1334 H 0.11035 0.61666 0.18929 0.0
H1335 H 0.06845 0.48571 0.1595 0.0
H1336 H 0.12298 0.56311 0.20454 0.0
H1337 H 0.0579 0.54207 0.13358 0.0
C1338 C 0.06703 0.57746 0.13787 0.0
C1339 C 0.082 0.59894 0.15292 0.0
C1340 C 0.11088 0.54617 0.19472 0.0
C1341 C 0.08661 0.56094 0.16914 0.0
C1342 C 0.11562 0.52854 0.19971 0.0
C1343 C 0.10057 0.50641 0.18698 0.0
C1344 C 0.09102 0.54186 0.17649 0.0
C1345 C 0.08052 0.50254 0.16969 0.0
C1346 C 0.06925 0.55839 0.14598 0.0
C1347 C 0.09855 0.60051 0.17682 0.0
N1348 N 0.0764 0.52018 0.16465 0.0
N1349 N 0.10048 0.58184 0.18397 0.0
H1350 H 0.45575 0.59603 0.21402 0.0
H1351 H 0.4105 0.47435 0.12317 0.0
H1352 H 0.50174 0.57914 0.16006 0.0
H1353 H 0.37159 0.49029 0.19661 0.0
H1354 H 0.44463 0.51156 0.13663 0.0
H1355 H 0.42512 0.55664 0.20774 0.0
C1356 C 0.45943 0.58398 0.20079 0.0
C1357 C 0.48131 0.59096 0.18724 0.0
C1358 C 0.42866 0.50672 0.15005 0.0
C1359 C 0.44601 0.54546 0.17981 0.0
C1360 C 0.40921 0.48551 0.14243 0.0
C1361 C 0.38811 0.47938 0.15847 0.0
C1362 C 0.42684 0.52177 0.17372 0.0
C1363 C 0.3874 0.49442 0.18326 0.0
C1364 C 0.44189 0.56137 0.19737 0.0
C1365 C 0.48508 0.57445 0.1708 0.0
N1366 N 0.40637 0.51493 0.18984 0.0
N1367 N 0.46748 0.55243 0.16716 0.0
H1368 H 0.06194 0.58106 0.66178 0.0
H1369 H 0.10213 0.48983 0.70134 0.0
H1370 H 0.12385 0.5957 0.71673 0.0
H1371 H 0.04914 0.47674 0.62587 0.0
H1372 H 0.10511 0.52644 0.71548 0.0
H1373 H 0.05239 0.54082 0.65568 0.0
C1374 C 0.07338 0.57579 0.67279 0.0
C1375 C 0.09384 0.5918 0.68945 0.0
C1376 C 0.09271 0.51556 0.69594 0.0
C1377 C 0.08296 0.54604 0.6829 0.0
C1378 C 0.09096 0.49459 0.68792 0.0
C1379 C 0.07559 0.48037 0.66203 0.0
C1380 C 0.07908 0.52252 0.67788 0.0
C1381 C 0.06134 0.48731 0.64583 0.0
C1382 C 0.06796 0.55289 0.66923 0.0
C1383 C 0.10805 0.58407 0.70327 0.0
N1384 N 0.06359 0.50807 0.65375 0.0
N1385 N 0.10236 0.56183 0.69963 0.0
H1386 H 0.39754 0.47802 0.66275 0.0
H1387 H 0.4863 0.61108 0.69852 0.0
H1388 H 0.38149 0.52481 0.71625 0.0
H1389 H 0.50117 0.57054 0.62677 0.0
H1390 H 0.44991 0.57717 0.71287 0.0
H1391 H 0.43741 0.50949 0.65604 0.0
C1392 C 0.40242 0.49481 0.67328 0.0
C1393 C 0.38611 0.49886 0.68974 0.0
C1394 C 0.46113 0.57558 0.6941 0.0
C1395 C 0.43146 0.53465 0.68248 0.0
C1396 C 0.48197 0.59496 0.68595 0.0
C1397 C 0.49665 0.5937 0.66107 0.0
C1398 C 0.45475 0.55468 0.67718 0.0
C1399 C 0.49025 0.57227 0.64594 0.0
C1400 C 0.42511 0.51272 0.66939 0.0
C1401 C 0.39335 0.52091 0.70296 0.0
N1402 N 0.46961 0.55358 0.65398 0.0
N1403 N 0.4154 0.5379 0.69898 0.0
H1404 H 0.41146 0.93106 0.62346 0.0
H1405 H 0.45636 0.85372 0.71211 0.0
H1406 H 0.37049 0.87209 0.68903 0.0
H1407 H 0.50209 0.9175 0.65984 0.0
H1408 H 0.42529 0.86171 0.70531 0.0
H1409 H 0.44544 0.92819 0.63808 0.0
C1410 C 0.40966 0.91769 0.64122 0.0
C1411 C 0.38808 0.90161 0.65474 0.0
C1412 C 0.4421 0.8741 0.69543 0.0
C1413 C 0.42669 0.8982 0.67136 0.0
C1414 C 0.4599 0.86949 0.6992 0.0
C1415 C 0.48184 0.88486 0.68621 0.0
C1416 C 0.44605 0.89415 0.67814 0.0
C1417 C 0.4854 0.90516 0.67014 0.0
C1418 C 0.42903 0.91606 0.64951 0.0
C1419 C 0.38672 0.8847 0.67768 0.0
N1420 N 0.46759 0.90913 0.6662 0.0
N1421 N 0.40568 0.88335 0.685 0.0
H1422 H 0.16164 0.45289 0.12456 0.0
H1423 H 0.24432 0.40093 0.15396 0.0
H1424 H 0.14247 0.39401 0.19081 0.0
H1425 H 0.26457 0.46689 0.10764 0.0
H1426 H 0.20523 0.39454 0.16143 0.0
H1427 H 0.19755 0.45431 0.11099 0.0
C1428 C 0.16494 0.44015 0.13614 0.0
C1429 C 0.14915 0.42347 0.15919 0.0
C1430 C 0.2183 0.41034 0.14953 0.0
C1431 C 0.19051 0.42509 0.1439 0.0
C1432 C 0.24054 0.41396 0.1452 0.0
C1433 C 0.25779 0.43456 0.13044 0.0
C1434 C 0.21335 0.42731 0.13859 0.0
C1435 C 0.25196 0.45086 0.11951 0.0
C1436 C 0.18551 0.44099 0.12843 0.0
C1437 C 0.15427 0.40724 0.17308 0.0
N1438 N 0.23032 0.44688 0.12383 0.0
N1439 N 0.17466 0.40855 0.16543 0.0
H1440 H 0.51461 0.7893 0.09608 0.0
H1441 H 0.59132 0.74577 0.19054 0.0
H1442 H 0.57659 0.83562 0.15203 0.0
H1443 H 0.53525 0.70503 0.11988 0.0
H1444 H 0.58791 0.77945 0.17585 0.0
H1445 H 0.52326 0.75877 0.10393 0.0
C1446 C 0.53011 0.79308 0.11006 0.0
C1447 C 0.54479 0.81503 0.12371 0.0
C1448 C 0.57655 0.76317 0.16334 0.0
C1449 C 0.55486 0.77984 0.13295 0.0
C1450 C 0.57849 0.74397 0.17167 0.0
C1451 C 0.56336 0.72251 0.1567 0.0
C1452 C 0.55932 0.76077 0.14001 0.0
C1453 C 0.54712 0.72115 0.13236 0.0
C1454 C 0.53511 0.77559 0.11441 0.0
C1455 C 0.56479 0.81891 0.14117 0.0
N1456 N 0.54543 0.73992 0.12504 0.0
N1457 N 0.56915 0.80138 0.14563 0.0
H1458 H 0.15889 0.72943 0.19698 0.0
H1459 H 0.25845 0.83807 0.10975 0.0
H1460 H 0.15523 0.74376 0.0876 0.0
H1461 H 0.23843 0.84152 0.21632 0.0
H1462 H 0.22172 0.80265 0.10093 0.0
H1463 H 0.18897 0.76963 0.2057 0.0
C1464 C 0.16413 0.74126 0.17506 0.0
C1465 C 0.15462 0.73361 0.14166 0.0
C1466 C 0.22523 0.81138 0.12605 0.0
C1467 C 0.18921 0.779 0.15102 0.0
C1468 C 0.24616 0.83148 0.13111 0.0
C1469 C 0.25138 0.84261 0.16378 0.0
C1470 C 0.20978 0.80201 0.15421 0.0
C1471 C 0.23494 0.83344 0.19068 0.0
C1472 C 0.18121 0.76409 0.17999 0.0
C1473 C 0.16211 0.74927 0.1138 0.0
N1474 N 0.215 0.81336 0.18554 0.0
N1475 N 0.1793 0.77122 0.11894 0.0
H1476 H 0.18271 0.17546 0.15625 0.0
H1477 H 0.24202 0.24585 0.32959 0.0
H1478 H 0.23719 0.24604 0.14813 0.0
H1479 H 0.171 0.19233 0.32254 0.0
H1480 H 0.24475 0.24504 0.26495 0.0
H1481 H 0.18312 0.1795 0.2196 0.0
C1482 C 0.19491 0.19184 0.16774 0.0
C1483 C 0.20984 0.2105 0.14664 0.0
C1484 C 0.22861 0.23367 0.2778 0.0
C1485 C 0.2103 0.21519 0.21978 0.0
C1486 C 0.22702 0.23409 0.31457 0.0
C1487 C 0.20628 0.21905 0.33162 0.0
C1488 C 0.20945 0.21783 0.25831 0.0
C1489 C 0.18738 0.20421 0.31081 0.0
C1490 C 0.19502 0.19414 0.20403 0.0
C1491 C 0.22528 0.23124 0.16338 0.0
N1492 N 0.18951 0.20384 0.27544 0.0
N1493 N 0.22515 0.23307 0.19912 0.0
H1494 H 0.79594 -0.00496 0.15367 0.0
H1495 H 0.73329 -0.00776 0.33163 0.0
H1496 H 0.72884 0.98848 0.15156 0.0
H1497 H 0.78279 0.96968 0.32169 0.0
H1498 H 0.73215 -0.00576 0.26707 0.0
H1499 H 0.79287 0.99005 0.21697 0.0
C1500 C 0.78054 -0.00738 0.16654 0.0
C1501 C 0.76263 -0.00778 0.14723 0.0
C1502 C 0.74304 0.98866 0.27923 0.0
C1503 C 0.75901 0.98645 0.22017 0.0
C1504 C 0.74374 0.98754 0.31599 0.0
C1505 C 0.75832 0.98099 0.33219 0.0
C1506 C 0.75726 0.98351 0.25882 0.0
C1507 C 0.77141 0.975 0.31059 0.0
C1508 C 0.77874 0.98961 0.20275 0.0
C1509 C 0.74302 0.98885 0.16548 0.0
N1510 N 0.77073 0.97663 0.27517 0.0
N1511 N 0.74177 0.98624 0.20112 0.0
H1512 H -0.00535 0.80371 0.32477 0.0
H1513 H -0.00929 0.73793 0.14963 0.0
H1514 H 0.98632 0.73591 0.33047 0.0
H1515 H 0.96841 0.78775 0.15749 0.0
H1516 H -0.00697 0.73777 0.21431 0.0
H1517 H -0.00987 0.79978 0.26149 0.0
C1518 C -0.00803 0.78797 0.31271 0.0
C1519 C -0.00916 0.77009 0.33308 0.0
C1520 C -0.01256 0.74852 0.20164 0.0
C1521 C 0.98559 0.76549 0.26006 0.0
C1522 C 0.98613 0.74865 0.16483 0.0
C1523 C 0.97956 0.76304 0.14799 0.0
C1524 C 0.98249 0.76312 0.22144 0.0
C1525 C 0.97375 0.7765 0.16905 0.0
C1526 C -0.01077 0.7857 0.27649 0.0
C1527 C -0.01279 0.75008 0.31575 0.0
N1528 N 0.97558 0.77637 0.20449 0.0
N1529 N 0.98483 0.74833 0.28006 0.0
H1530 H 0.74148 0.78616 0.82298 0.0
H1531 H 0.78265 0.74555 0.66706 0.0
H1532 H 0.75394 0.73002 0.83928 0.0
H1533 H 0.72528 0.75615 0.65133 0.0
H1534 H 0.77446 0.74125 0.73035 0.0
H1535 H 0.73689 0.77749 0.75984 0.0
C1536 C 0.74282 0.77175 0.81325 0.0
C1537 C 0.74812 0.75878 0.8361 0.0
C1538 C 0.76338 0.744 0.71289 0.0
C1539 C 0.74359 0.74927 0.76432 0.0
C1540 C 0.76809 0.74656 0.67694 0.0
C1541 C 0.75463 0.75126 0.6542 0.0
C1542 C 0.74564 0.74702 0.72614 0.0
C1543 C 0.73597 0.75245 0.66813 0.0
C1544 C 0.74012 0.76677 0.77739 0.0
C1545 C 0.74976 0.74032 0.82237 0.0
N1546 N 0.73235 0.75094 0.70346 0.0
N1547 N 0.74809 0.73645 0.78711 0.0
H1548 H 0.18199 -0.00167 0.6516 0.0
H1549 H 0.24409 -0.00454 0.82705 0.0
H1550 H 0.24291 -0.00747 0.64651 0.0
H1551 H 0.17172 0.97214 0.81894 0.0
H1552 H 0.24691 -0.0015 0.76247 0.0
H1553 H 0.18133 -0.006 0.71488 0.0
C1554 C 0.19537 -0.00372 0.66378 0.0
C1555 C 0.21253 -0.00424 0.64356 0.0
C1556 C 0.23045 -0.00745 0.77505 0.0
C1557 C 0.21177 0.99069 0.7166 0.0
C1558 C 0.22881 0.99083 0.8118 0.0
C1559 C 0.20766 0.9837 0.82854 0.0
C1560 C 0.21089 0.98744 0.75519 0.0
C1561 C 0.18842 0.97785 0.80743 0.0
C1562 C 0.19487 -0.00636 0.70002 0.0
C1563 C 0.22933 -0.00705 0.66108 0.0
N1564 N 0.19057 0.98006 0.77203 0.0
N1565 N 0.2286 0.9906 0.69677 0.0
H1566 H -0.00986 0.24824 0.65301 0.0
H1567 H 0.97976 0.18071 0.82946 0.0
H1568 H 0.96081 0.17478 0.66011 0.0
H1569 H 0.9851 0.2473 0.83291 0.0
H1570 H 0.97621 0.18041 0.7661 0.0
H1571 H -0.00911 0.25024 0.71771 0.0
C1572 C 0.98369 0.23256 0.66805 0.0
C1573 C 0.97564 0.21134 0.65101 0.0
C1574 C 0.97809 0.19511 0.78057 0.0
C1575 C 0.97668 0.21358 0.72459 0.0
C1576 C 0.98028 0.19539 0.81688 0.0
C1577 C 0.98282 0.21412 0.83664 0.0
C1578 C 0.97867 0.21381 0.76343 0.0
C1579 C 0.98316 0.23251 0.81866 0.0
C1580 C 0.98412 0.23373 0.70489 0.0
C1581 C 0.96741 0.19157 0.67186 0.0
N1582 N 0.98126 0.23199 0.7829 0.0
N1583 N 0.96835 0.19323 0.70737 0.0
H1584 H 0.90609 0.57903 0.48219 0.0
H1585 H 0.83617 0.5229 0.65713 0.0
H1586 H 0.85141 0.50861 0.49134 0.0
H1587 H 0.90738 0.57599 0.66387 0.0
H1588 H 0.83967 0.52274 0.59376 0.0
H1589 H 0.9057 0.5827 0.54673 0.0
C1590 C 0.89414 0.56436 0.49765 0.0
C1591 C 0.87868 0.54351 0.48123 0.0
C1592 C 0.85456 0.53446 0.60903 0.0
C1593 C 0.87795 0.54776 0.5544 0.0
C1594 C 0.85258 0.53468 0.64534 0.0
C1595 C 0.87158 0.54936 0.66607 0.0
C1596 C 0.87564 0.54915 0.59289 0.0
C1597 C 0.89234 0.56429 0.64892 0.0
C1598 C 0.89397 0.56648 0.53435 0.0
C1599 C 0.86362 0.52505 0.50259 0.0
N1600 N 0.89385 0.56382 0.61316 0.0
N1601 N 0.86351 0.5277 0.53786 0.0
H1602 H 0.4708 0.34416 0.49189 0.0
H1603 H 0.39746 0.32628 0.66455 0.0
H1604 H 0.39892 0.32286 0.483 0.0
H1605 H 0.45402 0.31344 0.65727 0.0
H1606 H 0.39881 0.33095 0.60007 0.0
H1607 H 0.46663 0.34038 0.55524 0.0
C1608 C 0.45411 0.33883 0.50321 0.0
C1609 C 0.43511 0.3336 0.48189 0.0
C1610 C 0.41075 0.32697 0.61284 0.0
C1611 C 0.43029 0.32921 0.55497 0.0
C1612 C 0.41003 0.32433 0.6495 0.0
C1613 C 0.42569 0.31952 0.66642 0.0
C1614 C 0.42754 0.32524 0.59336 0.0
C1615 C 0.44159 0.31714 0.6456 0.0
C1616 C 0.45175 0.33657 0.53948 0.0
C1617 C 0.41398 0.32691 0.49841 0.0
N1618 N 0.44222 0.32023 0.61037 0.0
N1619 N 0.41209 0.32486 0.53412 0.0
H1620 H 0.65078 0.0657 0.66194 0.0
H1621 H 0.63961 0.1236 0.48729 0.0
H1622 H 0.66699 0.13624 0.65395 0.0
H1623 H 0.65668 0.06986 0.48064 0.0
H1624 H 0.64261 0.12334 0.55073 0.0
H1625 H 0.64742 0.06261 0.59731 0.0
C1626 C 0.65375 0.08052 0.64671 0.0
C1627 C 0.65907 0.10123 0.66348 0.0
C1628 C 0.64569 0.11157 0.53546 0.0
C1629 C 0.65487 0.09764 0.5902 0.0
C1630 C 0.64386 0.11159 0.49912 0.0
C1631 C 0.6481 0.09685 0.47841 0.0
C1632 C 0.6516 0.09657 0.55164 0.0
C1633 C 0.65343 0.08162 0.49558 0.0
C1634 C 0.65185 0.07872 0.60996 0.0
C1635 C 0.6628 0.1199 0.64242 0.0
N1636 N 0.65505 0.08186 0.53136 0.0
N1637 N 0.66042 0.11756 0.60707 0.0
H1638 H 0.4577 0.14051 0.15274 0.0
H1639 H 0.39721 0.07107 0.97939 0.0
H1640 H 0.40213 0.07042 0.16081 0.0
H1641 H 0.46869 0.1234 0.9864 0.0
H1642 H 0.39464 0.07174 0.04406 0.0
H1643 H 0.45718 0.13646 0.0894 0.0
C1644 C 0.44524 0.12424 0.14124 0.0
C1645 C 0.43002 0.10571 0.16231 0.0
C1646 C 0.41084 0.08287 0.03119 0.0
C1647 C 0.42945 0.10101 0.0892 0.0
C1648 C 0.41234 0.08254 -0.0056 0.0
C1649 C 0.43316 0.09731 0.97733 0.0
C1650 C 0.43018 0.09836 0.05067 0.0
C1651 C 0.45223 0.11176 -0.00186 0.0
C1652 C 0.44507 0.12193 0.10496 0.0
C1653 C 0.41426 0.0851 0.14557 0.0
N1654 N 0.4502 0.11206 0.03352 0.0
N1655 N 0.41434 0.08328 0.10983 0.0
H1656 H 0.91311 0.32672 0.16383 0.0
H1657 H 0.85295 0.33682 -0.00836 0.0
H1658 H 0.84134 0.30617 0.15672 0.0
H1659 H 0.90749 0.3211 0.98186 0.0
H1660 H 0.85371 0.33301 0.05488 0.0
H1661 H 0.91581 0.33046 0.09919 0.0
C1662 C 0.89794 0.32285 0.1488 0.0
C1663 C 0.877 0.31628 0.16583 0.0
C1664 C 0.86555 0.33041 0.03896 0.0
C1665 C 0.88014 0.32091 0.09259 0.0
C1666 C 0.86525 0.33271 0.00274 0.0
C1667 C 0.88007 0.32909 0.9812 0.0
C1668 C 0.88092 0.32467 0.05419 0.0
C1669 C 0.89565 0.32388 -0.00254 0.0
C1670 C 0.89952 0.32497 0.11205 0.0
C1671 C 0.85789 0.3114 0.14501 0.0
N1672 N 0.89571 0.32182 0.03315 0.0
N1673 N 0.86 0.31406 0.10969 0.0
H1674 H 0.69444 0.57127 0.14697 0.0
H1675 H 0.61212 0.53174 -0.00897 0.0
H1676 H 0.6268 0.56158 0.1632 0.0
H1677 H 0.68108 0.58762 0.9749 0.0
H1678 H 0.61651 0.53973 0.0544 0.0
H1679 H 0.69038 0.57518 0.08362 0.0
C1680 C 0.6789 0.57035 0.13717 0.0
C1681 C 0.66089 0.56607 0.1601 0.0
C1682 C 0.63048 0.55051 0.03684 0.0
C1683 C 0.65594 0.56986 0.08812 0.0
C1684 C 0.62803 0.54592 0.00085 0.0
C1685 C 0.64629 0.55905 0.97795 0.0
C1686 C 0.6516 0.56778 0.04996 0.0
C1687 C 0.66659 0.57721 -0.00818 0.0
C1688 C 0.67665 0.57267 0.1012 0.0
C1689 C 0.64108 0.56497 0.14626 0.0
N1690 N 0.66894 0.58072 0.02716 0.0
N1691 N 0.63887 0.56628 0.11094 0.0
H1692 H 0.57622 0.91397 -0.00438 0.0
H1693 H 0.52966 0.8419 0.81925 0.0
H1694 H 0.51014 0.85247 0.98448 0.0
H1695 H 0.5738 0.91549 0.81389 0.0
H1696 H 0.52928 0.84445 0.88279 0.0
H1697 H 0.5814 0.91417 0.9313 0.0
C1698 C 0.56282 0.90061 0.97976 0.0
C1699 C 0.54271 0.88318 -0.00451 0.0
C1700 C 0.53913 0.86006 0.86776 0.0
C1701 C 0.54875 0.8831 0.9227 0.0
C1702 C 0.53944 0.85865 0.83138 0.0
C1703 C 0.55152 0.87857 0.811 0.0
C1704 C 0.55107 0.88152 0.88429 0.0
C1705 C 0.56409 0.89972 0.82856 0.0
C1706 C 0.5658 0.90077 0.94321 0.0
C1707 C 0.5259 0.86631 0.9737 0.0
N1708 N 0.56347 0.90069 0.86436 0.0
N1709 N 0.5294 0.86661 0.93861 0.0
H1710 H 0.13462 0.66662 -0.00611 0.0
H1711 H 0.06828 0.65877 0.81631 0.0
H1712 H 0.06865 0.66263 -0.00472 0.0
H1713 H 0.14071 0.6822 0.82312 0.0
H1714 H 0.06637 0.65795 0.88096 0.0
H1715 H 0.13527 0.6695 0.9303 0.0
C1716 C 0.1202 0.66631 0.98083 0.0
C1717 C 0.10153 0.66436 7e-05 0.0
C1718 C 0.08265 0.66341 0.86812 0.0
C1719 C 0.1022 0.66769 0.92668 0.0
C1720 C 0.08377 0.66388 0.83128 0.0
C1721 C 0.10465 0.67041 0.81415 0.0
C1722 C 0.10251 0.6693 0.88776 0.0
C1723 C 0.12418 0.6769 0.83494 0.0
C1724 C 0.12064 0.66807 0.94439 0.0
C1725 C 0.08341 0.66416 0.98149 0.0
N1726 N 0.12257 0.67601 0.87047 0.0
N1727 N 0.08412 0.6657 0.94571 0.0
H1728 H 0.33734 0.47277 -0.00814 0.0
H1729 H 0.32076 0.40266 0.81623 0.0
H1730 H 0.31861 0.40141 -0.00212 0.0
H1731 H 0.30545 0.45744 0.827 0.0
H1732 H 0.32535 0.40296 0.88061 0.0
H1733 H 0.33259 0.46918 0.92861 0.0
C1734 C 0.33236 0.45632 0.97992 0.0
C1735 C 0.3282 0.4373 0.00042 0.0
C1736 C 0.32082 0.41472 0.86863 0.0
C1737 C 0.32268 0.43313 0.92743 0.0
C1738 C 0.31821 0.41459 0.83201 0.0
C1739 C 0.31283 0.43014 0.81609 0.0
C1740 C 0.31845 0.43078 0.88908 0.0
C1741 C 0.30968 0.44518 0.83786 0.0
C1742 C 0.32953 0.45427 0.9437 0.0
C1743 C 0.32186 0.41648 0.98311 0.0
N1744 N 0.31276 0.44526 0.87304 0.0
N1745 N 0.31928 0.41491 0.94745 0.0
H1746 H 0.11861 0.47673 0.4946 0.0
H1747 H 0.06746 0.40837 0.31638 0.0
H1748 H 0.06743 0.40468 0.49758 0.0
H1749 H 0.13624 0.46577 0.32833 0.0
H1750 H 0.06263 0.40779 0.38075 0.0
H1751 H 0.11991 0.4746 0.43111 0.0
C1752 C 0.10748 0.46042 0.48195 0.0
C1753 C 0.09302 0.44078 0.50166 0.0
C1754 C 0.07875 0.42035 0.36904 0.0
C1755 C 0.09455 0.4383 0.42838 0.0
C1756 C 0.08152 0.42074 0.33242 0.0
C1757 C 0.10227 0.43719 0.31686 0.0
C1758 C 0.09668 0.43681 0.38986 0.0
C1759 C 0.11994 0.45276 0.33894 0.0
C1760 C 0.10835 0.45922 0.44558 0.0
C1761 C 0.07895 0.42021 0.48345 0.0
N1762 N 0.11665 0.45229 0.37412 0.0
N1763 N 0.08007 0.41946 0.44767 0.0
H1764 H 0.57488 0.65766 0.31816 0.0
H1765 H 0.50154 0.63989 0.4913 0.0
H1766 H 0.51663 0.66791 0.3242 0.0
H1767 H 0.57311 0.6596 0.49822 0.0
H1768 H 0.5051 0.64345 0.4278 0.0
H1769 H 0.57332 0.65303 0.38252 0.0
C1770 C 0.56188 0.65905 0.33294 0.0
C1771 C 0.54584 0.66316 0.31574 0.0
C1772 C 0.52004 0.64697 0.44317 0.0
C1773 C 0.54378 0.65749 0.38873 0.0
C1774 C 0.51802 0.64482 0.4795 0.0
C1775 C 0.53712 0.64965 0.50026 0.0
C1776 C 0.54126 0.65381 0.42716 0.0
C1777 C 0.55798 0.65587 0.48323 0.0
C1778 C 0.56103 0.65641 0.36955 0.0
C1779 C 0.52938 0.66481 0.33618 0.0
N1780 N 0.55953 0.65781 0.44754 0.0
N1781 N 0.52868 0.66179 0.37145 0.0
H1782 H 0.32439 0.91841 0.31222 0.0
H1783 H 0.34649 0.86557 0.48496 0.0
H1784 H 0.31992 0.85226 0.31752 0.0
H1785 H 0.32116 0.91299 0.49249 0.0
H1786 H 0.34435 0.8666 0.4214 0.0
H1787 H 0.32962 0.92195 0.37657 0.0
C1788 C 0.32454 0.9047 0.32683 0.0
C1789 C 0.32164 0.88497 0.3095 0.0
C1790 C 0.3393 0.87684 0.4369 0.0
C1791 C 0.32794 0.8891 0.38241 0.0
C1792 C 0.34059 0.87635 0.47331 0.0
C1793 C 0.33372 0.88901 0.49428 0.0
C1794 C 0.33123 0.89018 0.42098 0.0
C1795 C 0.32645 0.90281 0.47736 0.0
C1796 C 0.32746 0.90671 0.36342 0.0
C1797 C 0.32193 0.86771 0.32968 0.0
N1798 N 0.3253 0.90299 0.44157 0.0
N1799 N 0.32515 0.87025 0.3649 0.0
loop_
_geom_bond_atom_site_label_1
_geom_bond_atom_site_label_2
_geom_bond_distance
_geom_bond_site_symmetry_2
_ccdc_geom_bond_type
C0 O1 1.306 . S
C0 O3 1.160 . S
O1 C0 1.306 . S
O1 Cd2 2.228 . S
Cd2 O1 2.228 . S
Cd2 O6 2.273 . S
Cd2 O10 2.277 . S
O3 C0 1.160 . S
O3 Cd4 2.203 . S
Cd4 O3 2.203 . S
Cd4 O6 2.411 . S
Cd4 O7 2.333 . S
Cd4 O8 2.352 1_554 S
Cd4 O12 2.277 . S
Cd4 O13 2.356 . S
C5 O10 1.209 . S
C5 O12 1.226 . S
O6 Cd2 2.273 . S
O6 Cd4 2.411 . S
O6 C9 1.320 . S
O7 Cd4 2.333 . S
O7 C9 1.214 . S
O8 Cd4 2.352 1_556 S
O8 C11 1.258 . S
C9 O6 1.320 . S
C9 O7 1.214 . S
O10 Cd2 2.277 . S
O10 C5 1.209 . S
C11 O8 1.258 . S
C11 O13 1.282 1_556 S
O12 Cd4 2.277 . S
O12 C5 1.226 . S
O13 Cd4 2.356 . S
O13 C11 1.282 1_554 S
C14 O15 1.306 . S
C14 O17 1.160 . S
O15 C14 1.306 . S
O15 Cd16 2.228 1_565 S
Cd16 O15 2.228 1_545 S
Cd16 O20 2.273 . S
Cd16 O24 2.277 . S
O17 C14 1.160 . S
O17 Cd18 2.203 1_565 S
Cd18 O17 2.203 1_545 S
Cd18 O20 2.411 . S
Cd18 O21 2.333 . S
Cd18 O22 2.352 1_554 S
Cd18 O26 2.277 . S
Cd18 O27 2.356 . S
C19 O24 1.209 . S
C19 O26 1.226 . S
O20 Cd16 2.273 . S
O20 Cd18 2.411 . S
O20 C23 1.320 . S
O21 Cd18 2.333 . S
O21 C23 1.214 . S
O22 Cd18 2.352 1_556 S
O22 C25 1.258 . S
C23 O20 1.320 . S
C23 O21 1.214 . S
O24 Cd16 2.277 . S
O24 C19 1.209 . S
C25 O22 1.258 . S
C25 O27 1.282 1_556 S
O26 Cd18 2.277 . S
O26 C19 1.226 . S
O27 Cd18 2.356 . S
O27 C25 1.282 1_554 S
C28 O29 1.306 . S
C28 O31 1.160 . S
O29 C28 1.306 . S
O29 Cd30 2.228 1_455 S
Cd30 O29 2.228 1_655 S
Cd30 O34 2.273 . S
Cd30 O38 2.277 . S
O31 C28 1.160 . S
O31 Cd32 2.203 1_455 S
Cd32 O31 2.203 1_655 S
Cd32 O34 2.411 . S
Cd32 O35 2.333 . S
Cd32 O36 2.352 1_554 S
Cd32 O40 2.277 . S
Cd32 O41 2.356 . S
C33 O38 1.209 . S
C33 O40 1.226 . S
O34 Cd30 2.273 . S
O34 Cd32 2.411 . S
O34 C37 1.320 . S
O35 Cd32 2.333 . S
O35 C37 1.214 . S
O36 Cd32 2.352 1_556 S
O36 C39 1.258 . S
C37 O34 1.320 . S
C37 O35 1.214 . S
O38 Cd30 2.277 . S
O38 C33 1.209 . S
C39 O36 1.258 . S
C39 O41 1.282 1_556 S
O40 Cd32 2.277 . S
O40 C33 1.226 . S
O41 Cd32 2.356 . S
O41 C39 1.282 1_554 S
C42 O43 1.306 . S
C42 O45 1.160 . S
O43 C42 1.306 . S
O43 Cd44 2.228 . S
Cd44 O43 2.228 . S
Cd44 O48 2.273 . S
Cd44 O52 2.277 . S
O45 C42 1.160 . S
O45 Cd46 2.203 . S
Cd46 O45 2.203 . S
Cd46 O48 2.411 . S
Cd46 O49 2.333 . S
Cd46 O50 2.352 . S
Cd46 O54 2.277 . S
Cd46 O55 2.356 . S
C47 O52 1.209 . S
C47 O54 1.226 . S
O48 Cd44 2.273 . S
O48 Cd46 2.411 . S
O48 C51 1.320 . S
O49 Cd46 2.333 . S
O49 C51 1.214 . S
O50 Cd46 2.352 . S
O50 C53 1.258 . S
C51 O48 1.320 . S
C51 O49 1.214 . S
O52 Cd44 2.277 . S
O52 C47 1.209 . S
C53 O50 1.258 . S
C53 O55 1.282 . S
O54 Cd46 2.277 . S
O54 C47 1.226 . S
O55 Cd46 2.356 . S
O55 C53 1.282 . S
C56 O57 1.306 . S
C56 O59 1.160 . S
O57 C56 1.306 . S
O57 Cd58 2.228 1_545 S
Cd58 O57 2.228 1_565 S
Cd58 O62 2.273 . S
Cd58 O66 2.277 . S
O59 C56 1.160 . S
O59 Cd60 2.203 1_545 S
Cd60 O59 2.203 1_565 S
Cd60 O62 2.411 . S
Cd60 O63 2.333 . S
Cd60 O64 2.352 . S
Cd60 O68 2.277 . S
Cd60 O69 2.356 . S
C61 O66 1.209 . S
C61 O68 1.226 . S
O62 Cd58 2.273 . S
O62 Cd60 2.411 . S
O62 C65 1.320 . S
O63 Cd60 2.333 . S
O63 C65 1.214 . S
O64 Cd60 2.352 . S
O64 C67 1.258 . S
C65 O62 1.320 . S
C65 O63 1.214 . S
O66 Cd58 2.277 . S
O66 C61 1.209 . S
C67 O64 1.258 . S
C67 O69 1.282 . S
O68 Cd60 2.277 . S
O68 C61 1.226 . S
O69 Cd60 2.356 . S
O69 C67 1.282 . S
C70 O71 1.306 . S
C70 O73 1.160 . S
O71 C70 1.306 . S
O71 Cd72 2.228 1_655 S
Cd72 O71 2.228 1_455 S
Cd72 O76 2.273 . S
Cd72 O80 2.277 . S
O73 C70 1.160 . S
O73 Cd74 2.203 1_655 S
Cd74 O73 2.203 1_455 S
Cd74 O76 2.411 . S
Cd74 O77 2.333 . S
Cd74 O78 2.352 . S
Cd74 O82 2.277 . S
Cd74 O83 2.356 . S
C75 O80 1.209 . S
C75 O82 1.226 . S
O76 Cd72 2.273 . S
O76 Cd74 2.411 . S
O76 C79 1.320 . S
O77 Cd74 2.333 . S
O77 C79 1.214 . S
O78 Cd74 2.352 . S
O78 C81 1.258 . S
C79 O76 1.320 . S
C79 O77 1.214 . S
O80 Cd72 2.277 . S
O80 C75 1.209 . S
C81 O78 1.258 . S
C81 O83 1.282 . S
O82 Cd74 2.277 . S
O82 C75 1.226 . S
O83 Cd74 2.356 . S
O83 C81 1.282 . S
C84 O85 1.306 . S
C84 O87 1.160 . S
O85 C84 1.306 . S
O85 Cd86 2.228 . S
Cd86 O85 2.228 . S
Cd86 O90 2.273 . S
Cd86 O94 2.277 . S
O87 C84 1.160 . S
O87 Cd88 2.203 . S
Cd88 O87 2.203 . S
Cd88 O90 2.411 . S
Cd88 O91 2.333 . S
Cd88 O92 2.352 1_556 S
Cd88 O96 2.277 . S
Cd88 O97 2.356 . S
C89 O94 1.209 . S
C89 O96 1.226 . S
O90 Cd86 2.273 . S
O90 Cd88 2.411 . S
O90 C93 1.320 . S
O91 Cd88 2.333 . S
O91 C93 1.214 . S
O92 Cd88 2.352 1_554 S
O92 C95 1.258 . S
C93 O90 1.320 . S
C93 O91 1.214 . S
O94 Cd86 2.277 . S
O94 C89 1.209 . S
C95 O92 1.258 . S
C95 O97 1.282 1_554 S
O96 Cd88 2.277 . S
O96 C89 1.226 . S
O97 Cd88 2.356 . S
O97 C95 1.282 1_556 S
C98 O99 1.306 . S
C98 O101 1.160 . S
O99 C98 1.306 . S
O99 Cd100 2.228 1_545 S
Cd100 O99 2.228 1_565 S
Cd100 O104 2.273 . S
Cd100 O108 2.277 . S
O101 C98 1.160 . S
O101 Cd102 2.203 1_545 S
Cd102 O101 2.203 1_565 S
Cd102 O104 2.411 . S
Cd102 O105 2.333 . S
Cd102 O106 2.352 1_556 S
Cd102 O110 2.277 . S
Cd102 O111 2.356 . S
C103 O108 1.209 . S
C103 O110 1.226 . S
O104 Cd100 2.273 . S
O104 Cd102 2.411 . S
O104 C107 1.320 . S
O105 Cd102 2.333 . S
O105 C107 1.214 . S
O106 Cd102 2.352 1_554 S
O106 C109 1.258 . S
C107 O104 1.320 . S
C107 O105 1.214 . S
O108 Cd100 2.277 . S
O108 C103 1.209 . S
C109 O106 1.258 . S
C109 O111 1.282 1_554 S
O110 Cd102 2.277 . S
O110 C103 1.226 . S
O111 Cd102 2.356 . S
O111 C109 1.282 1_556 S
C112 O113 1.306 . S
C112 O115 1.160 . S
O113 C112 1.306 . S
O113 Cd114 2.228 1_655 S
Cd114 O113 2.228 1_455 S
Cd114 O118 2.273 . S
Cd114 O122 2.277 . S
O115 C112 1.160 . S
O115 Cd116 2.203 1_655 S
Cd116 O115 2.203 1_455 S
Cd116 O118 2.411 . S
Cd116 O119 2.333 . S
Cd116 O120 2.352 1_556 S
Cd116 O124 2.277 . S
Cd116 O125 2.356 . S
C117 O122 1.209 . S
C117 O124 1.226 . S
O118 Cd114 2.273 . S
O118 Cd116 2.411 . S
O118 C121 1.320 . S
O119 Cd116 2.333 . S
O119 C121 1.214 . S
O120 Cd116 2.352 1_554 S
O120 C123 1.258 . S
C121 O118 1.320 . S
C121 O119 1.214 . S
O122 Cd114 2.277 . S
O122 C117 1.209 . S
C123 O120 1.258 . S
C123 O125 1.282 1_554 S
O124 Cd116 2.277 . S
O124 C117 1.226 . S
O125 Cd116 2.356 . S
O125 C123 1.282 1_556 S
C126 O127 1.306 . S
C126 O129 1.160 . S
O127 C126 1.306 . S
O127 Cd128 2.228 . S
Cd128 O127 2.228 . S
Cd128 O132 2.273 . S
Cd128 O136 2.277 . S
O129 C126 1.160 . S
O129 Cd130 2.203 . S
Cd130 O129 2.203 . S
Cd130 O132 2.411 . S
Cd130 O133 2.333 . S
Cd130 O134 2.352 . S
Cd130 O138 2.277 . S
Cd130 O139 2.356 . S
C131 O136 1.209 . S
C131 O138 1.226 . S
O132 Cd128 2.273 . S
O132 Cd130 2.411 . S
O132 C135 1.320 . S
O133 Cd130 2.333 . S
O133 C135 1.214 . S
O134 Cd130 2.352 . S
O134 C137 1.258 . S
C135 O132 1.320 . S
C135 O133 1.214 . S
O136 Cd128 2.277 . S
O136 C131 1.209 . S
C137 O134 1.258 . S
C137 O139 1.282 . S
O138 Cd130 2.277 . S
O138 C131 1.226 . S
O139 Cd130 2.356 . S
O139 C137 1.282 . S
C140 O141 1.306 . S
C140 O143 1.160 . S
O141 C140 1.306 . S
O141 Cd142 2.228 1_565 S
Cd142 O141 2.228 1_545 S
Cd142 O146 2.273 . S
Cd142 O150 2.277 . S
O143 C140 1.160 . S
O143 Cd144 2.203 1_565 S
Cd144 O143 2.203 1_545 S
Cd144 O146 2.411 . S
Cd144 O147 2.333 . S
Cd144 O148 2.352 . S
Cd144 O152 2.277 . S
Cd144 O153 2.356 . S
C145 O150 1.209 . S
C145 O152 1.226 . S
O146 Cd142 2.273 . S
O146 Cd144 2.411 . S
O146 C149 1.320 . S
O147 Cd144 2.333 . S
O147 C149 1.214 . S
O148 Cd144 2.352 . S
O148 C151 1.258 . S
C149 O146 1.320 . S
C149 O147 1.214 . S
O150 Cd142 2.277 . S
O150 C145 1.209 . S
C151 O148 1.258 . S
C151 O153 1.282 . S
O152 Cd144 2.277 . S
O152 C145 1.226 . S
O153 Cd144 2.356 . S
O153 C151 1.282 . S
C154 O155 1.306 . S
C154 O157 1.160 . S
O155 C154 1.306 . S
O155 Cd156 2.228 1_455 S
Cd156 O155 2.228 1_655 S
Cd156 O160 2.273 . S
Cd156 O164 2.277 . S
O157 C154 1.160 . S
O157 Cd158 2.203 1_455 S
Cd158 O157 2.203 1_655 S
Cd158 O160 2.411 . S
Cd158 O161 2.333 . S
Cd158 O162 2.352 . S
Cd158 O166 2.277 . S
Cd158 O167 2.356 . S
C159 O164 1.209 . S
C159 O166 1.226 . S
O160 Cd156 2.273 . S
O160 Cd158 2.411 . S
O160 C163 1.320 . S
O161 Cd158 2.333 . S
O161 C163 1.214 . S
O162 Cd158 2.352 . S
O162 C165 1.258 . S
C163 O160 1.320 . S
C163 O161 1.214 . S
O164 Cd156 2.277 . S
O164 C159 1.209 . S
C165 O162 1.258 . S
C165 O167 1.282 . S
O166 Cd158 2.277 . S
O166 C159 1.226 . S
O167 Cd158 2.356 . S
O167 C165 1.282 . S
C168 O169 1.306 . S
C168 O171 1.160 . S
O169 C168 1.306 . S
O169 Cd170 2.228 . S
Cd170 O169 2.228 . S
Cd170 O174 2.273 . S
Cd170 O178 2.277 . S
O171 C168 1.160 . S
O171 Cd172 2.203 . S
Cd172 O171 2.203 . S
Cd172 O174 2.411 . S
Cd172 O175 2.333 . S
Cd172 O176 2.352 . S
Cd172 O180 2.277 . S
Cd172 O181 2.356 . S
C173 O178 1.209 . S
C173 O180 1.226 . S
O174 Cd170 2.273 . S
O174 Cd172 2.411 . S
O174 C177 1.320 . S
O175 Cd172 2.333 . S
O175 C177 1.214 . S
O176 Cd172 2.352 . S
O176 C179 1.258 . S
C177 O174 1.320 . S
C177 O175 1.214 . S
O178 Cd170 2.277 . S
O178 C173 1.209 . S
C179 O176 1.258 . S
C179 O181 1.282 . S
O180 Cd172 2.277 . S
O180 C173 1.226 . S
O181 Cd172 2.356 . S
O181 C179 1.282 . S
C182 O183 1.306 . S
C182 O185 1.160 . S
O183 C182 1.306 . S
O183 Cd184 2.228 . S
Cd184 O183 2.228 . S
Cd184 O188 2.273 . S
Cd184 O192 2.277 . S
O185 C182 1.160 . S
O185 Cd186 2.203 . S
Cd186 O185 2.203 . S
Cd186 O188 2.411 . S
Cd186 O189 2.333 . S
Cd186 O190 2.352 . S
Cd186 O194 2.277 . S
Cd186 O195 2.356 . S
C187 O192 1.209 . S
C187 O194 1.226 . S
O188 Cd184 2.273 . S
O188 Cd186 2.411 . S
O188 C191 1.320 . S
O189 Cd186 2.333 . S
O189 C191 1.214 . S
O190 Cd186 2.352 . S
O190 C193 1.258 . S
C191 O188 1.320 . S
C191 O189 1.214 . S
O192 Cd184 2.277 . S
O192 C187 1.209 . S
C193 O190 1.258 . S
C193 O195 1.282 . S
O194 Cd186 2.277 . S
O194 C187 1.226 . S
O195 Cd186 2.356 . S
O195 C193 1.282 . S
C196 O197 1.306 . S
C196 O199 1.160 . S
O197 C196 1.306 . S
O197 Cd198 2.228 . S
Cd198 O197 2.228 . S
Cd198 O202 2.273 . S
Cd198 O206 2.277 . S
O199 C196 1.160 . S
O199 Cd200 2.203 . S
Cd200 O199 2.203 . S
Cd200 O202 2.411 . S
Cd200 O203 2.333 . S
Cd200 O204 2.352 . S
Cd200 O208 2.277 . S
Cd200 O209 2.356 . S
C201 O206 1.209 . S
C201 O208 1.226 . S
O202 Cd198 2.273 . S
O202 Cd200 2.411 . S
O202 C205 1.320 . S
O203 Cd200 2.333 . S
O203 C205 1.214 . S
O204 Cd200 2.352 . S
O204 C207 1.258 . S
C205 O202 1.320 . S
C205 O203 1.214 . S
O206 Cd198 2.277 . S
O206 C201 1.209 . S
C207 O204 1.258 . S
C207 O209 1.282 . S
O208 Cd200 2.277 . S
O208 C201 1.226 . S
O209 Cd200 2.356 . S
O209 C207 1.282 . S
C210 O211 1.306 . S
C210 O213 1.160 . S
O211 C210 1.306 . S
O211 Cd212 2.228 . S
Cd212 O211 2.228 . S
Cd212 O216 2.273 . S
Cd212 O220 2.277 . S
O213 C210 1.160 . S
O213 Cd214 2.203 . S
Cd214 O213 2.203 . S
Cd214 O216 2.411 . S
Cd214 O217 2.333 . S
Cd214 O218 2.352 . S
Cd214 O222 2.277 . S
Cd214 O223 2.356 . S
C215 O220 1.209 . S
C215 O222 1.226 . S
O216 Cd212 2.273 . S
O216 Cd214 2.411 . S
O216 C219 1.320 . S
O217 Cd214 2.333 . S
O217 C219 1.214 . S
O218 Cd214 2.352 . S
O218 C221 1.258 . S
C219 O216 1.320 . S
C219 O217 1.214 . S
O220 Cd212 2.277 . S
O220 C215 1.209 . S
C221 O218 1.258 . S
C221 O223 1.282 . S
O222 Cd214 2.277 . S
O222 C215 1.226 . S
O223 Cd214 2.356 . S
O223 C221 1.282 . S
C224 O225 1.306 . S
C224 O227 1.160 . S
O225 C224 1.306 . S
O225 Cd226 2.228 . S
Cd226 O225 2.228 . S
Cd226 O230 2.273 . S
Cd226 O234 2.277 . S
O227 C224 1.160 . S
O227 Cd228 2.203 . S
Cd228 O227 2.203 . S
Cd228 O230 2.411 . S
Cd228 O231 2.333 . S
Cd228 O232 2.352 . S
Cd228 O236 2.277 . S
Cd228 O237 2.356 . S
C229 O234 1.209 . S
C229 O236 1.226 . S
O230 Cd226 2.273 . S
O230 Cd228 2.411 . S
O230 C233 1.320 . S
O231 Cd228 2.333 . S
O231 C233 1.214 . S
O232 Cd228 2.352 . S
O232 C235 1.258 . S
C233 O230 1.320 . S
C233 O231 1.214 . S
O234 Cd226 2.277 . S
O234 C229 1.209 . S
C235 O232 1.258 . S
C235 O237 1.282 . S
O236 Cd228 2.277 . S
O236 C229 1.226 . S
O237 Cd228 2.356 . S
O237 C235 1.282 . S
C238 O239 1.306 . S
C238 O241 1.160 . S
O239 C238 1.306 . S
O239 Cd240 2.228 . S
Cd240 O239 2.228 . S
Cd240 O244 2.273 . S
Cd240 O248 2.277 . S
O241 C238 1.160 . S
O241 Cd242 2.203 . S
Cd242 O241 2.203 . S
Cd242 O244 2.411 . S
Cd242 O245 2.333 . S
Cd242 O246 2.352 . S
Cd242 O250 2.277 . S
Cd242 O251 2.356 . S
C243 O248 1.209 . S
C243 O250 1.226 . S
O244 Cd240 2.273 . S
O244 Cd242 2.411 . S
O244 C247 1.320 . S
O245 Cd242 2.333 . S
O245 C247 1.214 . S
O246 Cd242 2.352 . S
O246 C249 1.258 . S
C247 O244 1.320 . S
C247 O245 1.214 . S
O248 Cd240 2.277 . S
O248 C243 1.209 . S
C249 O246 1.258 . S
C249 O251 1.282 . S
O250 Cd242 2.277 . S
O250 C243 1.226 . S
O251 Cd242 2.356 . S
O251 C249 1.282 . S
C252 O253 1.306 . S
C252 O255 1.160 . S
O253 C252 1.306 . S
O253 Cd254 2.228 . S
Cd254 O253 2.228 . S
Cd254 O258 2.273 . S
Cd254 O262 2.277 . S
O255 C252 1.160 . S
O255 Cd256 2.203 . S
Cd256 O255 2.203 . S
Cd256 O258 2.411 . S
Cd256 O259 2.333 . S
Cd256 O260 2.352 . S
Cd256 O264 2.277 . S
Cd256 O265 2.356 . S
C257 O262 1.209 . S
C257 O264 1.226 . S
O258 Cd254 2.273 . S
O258 Cd256 2.411 . S
O258 C261 1.320 . S
O259 Cd256 2.333 . S
O259 C261 1.214 . S
O260 Cd256 2.352 . S
O260 C263 1.258 . S
C261 O258 1.320 . S
C261 O259 1.214 . S
O262 Cd254 2.277 . S
O262 C257 1.209 . S
C263 O260 1.258 . S
C263 O265 1.282 . S
O264 Cd256 2.277 . S
O264 C257 1.226 . S
O265 Cd256 2.356 . S
O265 C263 1.282 . S
C266 O267 1.306 . S
C266 O269 1.160 . S
O267 C266 1.306 . S
O267 Cd268 2.228 . S
Cd268 O267 2.228 . S
Cd268 O272 2.273 . S
Cd268 O276 2.277 . S
O269 C266 1.160 . S
O269 Cd270 2.203 . S
Cd270 O269 2.203 . S
Cd270 O272 2.411 . S
Cd270 O273 2.333 . S
Cd270 O274 2.352 . S
Cd270 O278 2.277 . S
Cd270 O279 2.356 . S
C271 O276 1.209 . S
C271 O278 1.226 . S
O272 Cd268 2.273 . S
O272 Cd270 2.411 . S
O272 C275 1.320 . S
O273 Cd270 2.333 . S
O273 C275 1.214 . S
O274 Cd270 2.352 . S
O274 C277 1.258 . S
C275 O272 1.320 . S
C275 O273 1.214 . S
O276 Cd268 2.277 . S
O276 C271 1.209 . S
C277 O274 1.258 . S
C277 O279 1.282 . S
O278 Cd270 2.277 . S
O278 C271 1.226 . S
O279 Cd270 2.356 . S
O279 C277 1.282 . S
C280 O281 1.306 . S
C280 O283 1.160 . S
O281 C280 1.306 . S
O281 Cd282 2.228 . S
Cd282 O281 2.228 . S
Cd282 O286 2.273 . S
Cd282 O290 2.277 . S
O283 C280 1.160 . S
O283 Cd284 2.203 . S
Cd284 O283 2.203 . S
Cd284 O286 2.411 . S
Cd284 O287 2.333 . S
Cd284 O288 2.352 . S
Cd284 O292 2.277 . S
Cd284 O293 2.356 . S
C285 O290 1.209 . S
C285 O292 1.226 . S
O286 Cd282 2.273 . S
O286 Cd284 2.411 . S
O286 C289 1.320 . S
O287 Cd284 2.333 . S
O287 C289 1.214 . S
O288 Cd284 2.352 . S
O288 C291 1.258 . S
C289 O286 1.320 . S
C289 O287 1.214 . S
O290 Cd282 2.277 . S
O290 C285 1.209 . S
C291 O288 1.258 . S
C291 O293 1.282 . S
O292 Cd284 2.277 . S
O292 C285 1.226 . S
O293 Cd284 2.356 . S
O293 C291 1.282 . S
C294 O295 1.306 . S
C294 O297 1.160 . S
O295 C294 1.306 . S
O295 Cd296 2.228 . S
Cd296 O295 2.228 . S
Cd296 O300 2.273 . S
Cd296 O304 2.277 . S
O297 C294 1.160 . S
O297 Cd298 2.203 . S
Cd298 O297 2.203 . S
Cd298 O300 2.411 . S
Cd298 O301 2.333 . S
Cd298 O302 2.352 . S
Cd298 O306 2.277 . S
Cd298 O307 2.356 . S
C299 O304 1.209 . S
C299 O306 1.226 . S
O300 Cd296 2.273 . S
O300 Cd298 2.411 . S
O300 C303 1.320 . S
O301 Cd298 2.333 . S
O301 C303 1.214 . S
O302 Cd298 2.352 . S
O302 C305 1.258 . S
C303 O300 1.320 . S
C303 O301 1.214 . S
O304 Cd296 2.277 . S
O304 C299 1.209 . S
C305 O302 1.258 . S
C305 O307 1.282 . S
O306 Cd298 2.277 . S
O306 C299 1.226 . S
O307 Cd298 2.356 . S
O307 C305 1.282 . S
C308 O309 1.306 . S
C308 O311 1.160 . S
O309 C308 1.306 . S
O309 Cd310 2.228 . S
Cd310 O309 2.228 . S
Cd310 O314 2.273 . S
Cd310 O318 2.277 . S
O311 C308 1.160 . S
O311 Cd312 2.203 . S
Cd312 O311 2.203 . S
Cd312 O314 2.411 . S
Cd312 O315 2.333 . S
Cd312 O316 2.352 . S
Cd312 O320 2.277 . S
Cd312 O321 2.356 . S
C313 O318 1.209 . S
C313 O320 1.226 . S
O314 Cd310 2.273 . S
O314 Cd312 2.411 . S
O314 C317 1.320 . S
O315 Cd312 2.333 . S
O315 C317 1.214 . S
O316 Cd312 2.352 . S
O316 C319 1.258 . S
C317 O314 1.320 . S
C317 O315 1.214 . S
O318 Cd310 2.277 . S
O318 C313 1.209 . S
C319 O316 1.258 . S
C319 O321 1.282 . S
O320 Cd312 2.277 . S
O320 C313 1.226 . S
O321 Cd312 2.356 . S
O321 C319 1.282 . S
C322 O323 1.306 . S
C322 O325 1.160 . S
O323 C322 1.306 . S
O323 Cd324 2.228 . S
Cd324 O323 2.228 . S
Cd324 O328 2.273 . S
Cd324 O332 2.277 . S
O325 C322 1.160 . S
O325 Cd326 2.203 . S
Cd326 O325 2.203 . S
Cd326 O328 2.411 . S
Cd326 O329 2.333 . S
Cd326 O330 2.352 . S
Cd326 O334 2.277 . S
Cd326 O335 2.356 . S
C327 O332 1.209 . S
C327 O334 1.226 . S
O328 Cd324 2.273 . S
O328 Cd326 2.411 . S
O328 C331 1.320 . S
O329 Cd326 2.333 . S
O329 C331 1.214 . S
O330 Cd326 2.352 . S
O330 C333 1.258 . S
C331 O328 1.320 . S
C331 O329 1.214 . S
O332 Cd324 2.277 . S
O332 C327 1.209 . S
C333 O330 1.258 . S
C333 O335 1.282 . S
O334 Cd326 2.277 . S
O334 C327 1.226 . S
O335 Cd326 2.356 . S
O335 C333 1.282 . S
C336 O337 1.306 . S
C336 O339 1.160 . S
O337 C336 1.306 . S
O337 Cd338 2.228 . S
Cd338 O337 2.228 . S
Cd338 O342 2.273 . S
Cd338 O346 2.277 . S
O339 C336 1.160 . S
O339 Cd340 2.203 . S
Cd340 O339 2.203 . S
Cd340 O342 2.411 . S
Cd340 O343 2.333 . S
Cd340 O344 2.352 . S
Cd340 O348 2.277 . S
Cd340 O349 2.356 . S
C341 O346 1.209 . S
C341 O348 1.226 . S
O342 Cd338 2.273 . S
O342 Cd340 2.411 . S
O342 C345 1.320 . S
O343 Cd340 2.333 . S
O343 C345 1.214 . S
O344 Cd340 2.352 . S
O344 C347 1.258 . S
C345 O342 1.320 . S
C345 O343 1.214 . S
O346 Cd338 2.277 . S
O346 C341 1.209 . S
C347 O344 1.258 . S
C347 O349 1.282 . S
O348 Cd340 2.277 . S
O348 C341 1.226 . S
O349 Cd340 2.356 . S
O349 C347 1.282 . S
C350 O351 1.306 . S
C350 O353 1.160 . S
O351 C350 1.306 . S
O351 Cd352 2.228 . S
Cd352 O351 2.228 . S
Cd352 O356 2.273 . S
Cd352 O360 2.277 . S
O353 C350 1.160 . S
O353 Cd354 2.203 . S
Cd354 O353 2.203 . S
Cd354 O356 2.411 . S
Cd354 O357 2.333 . S
Cd354 O358 2.352 . S
Cd354 O362 2.277 . S
Cd354 O363 2.356 . S
C355 O360 1.209 . S
C355 O362 1.226 . S
O356 Cd352 2.273 . S
O356 Cd354 2.411 . S
O356 C359 1.320 . S
O357 Cd354 2.333 . S
O357 C359 1.214 . S
O358 Cd354 2.352 . S
O358 C361 1.258 . S
C359 O356 1.320 . S
C359 O357 1.214 . S
O360 Cd352 2.277 . S
O360 C355 1.209 . S
C361 O358 1.258 . S
C361 O363 1.282 . S
O362 Cd354 2.277 . S
O362 C355 1.226 . S
O363 Cd354 2.356 . S
O363 C361 1.282 . S
C364 O365 1.306 . S
C364 O367 1.160 . S
O365 C364 1.306 . S
O365 Cd366 2.228 . S
Cd366 O365 2.228 . S
Cd366 O370 2.273 . S
Cd366 O374 2.277 . S
O367 C364 1.160 . S
O367 Cd368 2.203 . S
Cd368 O367 2.203 . S
Cd368 O370 2.411 . S
Cd368 O371 2.333 . S
Cd368 O372 2.352 . S
Cd368 O376 2.277 . S
Cd368 O377 2.356 . S
C369 O374 1.209 . S
C369 O376 1.226 . S
O370 Cd366 2.273 . S
O370 Cd368 2.411 . S
O370 C373 1.320 . S
O371 Cd368 2.333 . S
O371 C373 1.214 . S
O372 Cd368 2.352 . S
O372 C375 1.258 . S
C373 O370 1.320 . S
C373 O371 1.214 . S
O374 Cd366 2.277 . S
O374 C369 1.209 . S
C375 O372 1.258 . S
C375 O377 1.282 . S
O376 Cd368 2.277 . S
O376 C369 1.226 . S
O377 Cd368 2.356 . S
O377 C375 1.282 . S
C378 O379 1.306 . S
C378 O381 1.160 . S
O379 C378 1.306 . S
O379 Cd380 2.228 . S
Cd380 O379 2.228 . S
Cd380 O384 2.273 . S
Cd380 O388 2.277 . S
O381 C378 1.160 . S
O381 Cd382 2.203 . S
Cd382 O381 2.203 . S
Cd382 O384 2.411 . S
Cd382 O385 2.333 . S
Cd382 O386 2.352 . S
Cd382 O390 2.277 . S
Cd382 O391 2.356 . S
C383 O388 1.209 . S
C383 O390 1.226 . S
O384 Cd380 2.273 . S
O384 Cd382 2.411 . S
O384 C387 1.320 . S
O385 Cd382 2.333 . S
O385 C387 1.214 . S
O386 Cd382 2.352 . S
O386 C389 1.258 . S
C387 O384 1.320 . S
C387 O385 1.214 . S
O388 Cd380 2.277 . S
O388 C383 1.209 . S
C389 O386 1.258 . S
C389 O391 1.282 . S
O390 Cd382 2.277 . S
O390 C383 1.226 . S
O391 Cd382 2.356 . S
O391 C389 1.282 . S
C392 O393 1.306 . S
C392 O395 1.160 . S
O393 C392 1.306 . S
O393 Cd394 2.228 . S
Cd394 O393 2.228 . S
Cd394 O398 2.273 . S
Cd394 O402 2.277 . S
O395 C392 1.160 . S
O395 Cd396 2.203 . S
Cd396 O395 2.203 . S
Cd396 O398 2.411 . S
Cd396 O399 2.333 . S
Cd396 O400 2.352 . S
Cd396 O404 2.277 . S
Cd396 O405 2.356 . S
C397 O402 1.209 . S
C397 O404 1.226 . S
O398 Cd394 2.273 . S
O398 Cd396 2.411 . S
O398 C401 1.320 . S
O399 Cd396 2.333 . S
O399 C401 1.214 . S
O400 Cd396 2.352 . S
O400 C403 1.258 . S
C401 O398 1.320 . S
C401 O399 1.214 . S
O402 Cd394 2.277 . S
O402 C397 1.209 . S
C403 O400 1.258 . S
C403 O405 1.282 . S
O404 Cd396 2.277 . S
O404 C397 1.226 . S
O405 Cd396 2.356 . S
O405 C403 1.282 . S
C406 O407 1.306 . S
C406 O409 1.160 . S
O407 C406 1.306 . S
O407 Cd408 2.228 . S
Cd408 O407 2.228 . S
Cd408 O412 2.273 . S
Cd408 O416 2.277 . S
O409 C406 1.160 . S
O409 Cd410 2.203 . S
Cd410 O409 2.203 . S
Cd410 O412 2.411 . S
Cd410 O413 2.333 . S
Cd410 O414 2.352 . S
Cd410 O418 2.277 . S
Cd410 O419 2.356 . S
C411 O416 1.209 . S
C411 O418 1.226 . S
O412 Cd408 2.273 . S
O412 Cd410 2.411 . S
O412 C415 1.320 . S
O413 Cd410 2.333 . S
O413 C415 1.214 . S
O414 Cd410 2.352 . S
O414 C417 1.258 . S
C415 O412 1.320 . S
C415 O413 1.214 . S
O416 Cd408 2.277 . S
O416 C411 1.209 . S
C417 O414 1.258 . S
C417 O419 1.282 . S
O418 Cd410 2.277 . S
O418 C411 1.226 . S
O419 Cd410 2.356 . S
O419 C417 1.282 . S
C420 O421 1.306 . S
C420 O423 1.160 . S
O421 C420 1.306 . S
O421 Cd422 2.228 . S
Cd422 O421 2.228 . S
Cd422 O426 2.273 . S
Cd422 O430 2.277 . S
O423 C420 1.160 . S
O423 Cd424 2.203 . S
Cd424 O423 2.203 . S
Cd424 O426 2.411 . S
Cd424 O427 2.333 . S
Cd424 O428 2.352 . S
Cd424 O432 2.277 . S
Cd424 O433 2.356 . S
C425 O430 1.209 . S
C425 O432 1.226 . S
O426 Cd422 2.273 . S
O426 Cd424 2.411 . S
O426 C429 1.320 . S
O427 Cd424 2.333 . S
O427 C429 1.214 . S
O428 Cd424 2.352 . S
O428 C431 1.258 . S
C429 O426 1.320 . S
C429 O427 1.214 . S
O430 Cd422 2.277 . S
O430 C425 1.209 . S
C431 O428 1.258 . S
C431 O433 1.282 . S
O432 Cd424 2.277 . S
O432 C425 1.226 . S
O433 Cd424 2.356 . S
O433 C431 1.282 . S
C434 O435 1.306 . S
C434 O437 1.160 . S
O435 C434 1.306 . S
O435 Cd436 2.228 . S
Cd436 O435 2.228 . S
Cd436 O440 2.273 . S
Cd436 O444 2.277 . S
O437 C434 1.160 . S
O437 Cd438 2.203 . S
Cd438 O437 2.203 . S
Cd438 O440 2.411 . S
Cd438 O441 2.333 . S
Cd438 O442 2.352 . S
Cd438 O446 2.277 . S
Cd438 O447 2.356 . S
C439 O444 1.209 . S
C439 O446 1.226 . S
O440 Cd436 2.273 . S
O440 Cd438 2.411 . S
O440 C443 1.320 . S
O441 Cd438 2.333 . S
O441 C443 1.214 . S
O442 Cd438 2.352 . S
O442 C445 1.258 . S
C443 O440 1.320 . S
C443 O441 1.214 . S
O444 Cd436 2.277 . S
O444 C439 1.209 . S
C445 O442 1.258 . S
C445 O447 1.282 . S
O446 Cd438 2.277 . S
O446 C439 1.226 . S
O447 Cd438 2.356 . S
O447 C445 1.282 . S
C448 O449 1.306 . S
C448 O451 1.160 . S
O449 C448 1.306 . S
O449 Cd450 2.228 . S
Cd450 O449 2.228 . S
Cd450 O454 2.273 . S
Cd450 O458 2.277 . S
O451 C448 1.160 . S
O451 Cd452 2.203 . S
Cd452 O451 2.203 . S
Cd452 O454 2.411 . S
Cd452 O455 2.333 . S
Cd452 O456 2.352 . S
Cd452 O460 2.277 . S
Cd452 O461 2.356 . S
C453 O458 1.209 . S
C453 O460 1.226 . S
O454 Cd450 2.273 . S
O454 Cd452 2.411 . S
O454 C457 1.320 . S
O455 Cd452 2.333 . S
O455 C457 1.214 . S
O456 Cd452 2.352 . S
O456 C459 1.258 . S
C457 O454 1.320 . S
C457 O455 1.214 . S
O458 Cd450 2.277 . S
O458 C453 1.209 . S
C459 O456 1.258 . S
C459 O461 1.282 . S
O460 Cd452 2.277 . S
O460 C453 1.226 . S
O461 Cd452 2.356 . S
O461 C459 1.282 . S
C462 O463 1.306 . S
C462 O465 1.160 . S
O463 C462 1.306 . S
O463 Cd464 2.228 . S
Cd464 O463 2.228 . S
Cd464 O468 2.273 . S
Cd464 O472 2.277 . S
O465 C462 1.160 . S
O465 Cd466 2.203 . S
Cd466 O465 2.203 . S
Cd466 O468 2.411 . S
Cd466 O469 2.333 . S
Cd466 O470 2.352 . S
Cd466 O474 2.277 . S
Cd466 O475 2.356 . S
C467 O472 1.209 . S
C467 O474 1.226 . S
O468 Cd464 2.273 . S
O468 Cd466 2.411 . S
O468 C471 1.320 . S
O469 Cd466 2.333 . S
O469 C471 1.214 . S
O470 Cd466 2.352 . S
O470 C473 1.258 . S
C471 O468 1.320 . S
C471 O469 1.214 . S
O472 Cd464 2.277 . S
O472 C467 1.209 . S
C473 O470 1.258 . S
C473 O475 1.282 . S
O474 Cd466 2.277 . S
O474 C467 1.226 . S
O475 Cd466 2.356 . S
O475 C473 1.282 . S
C476 O477 1.306 . S
C476 O479 1.160 . S
O477 C476 1.306 . S
O477 Cd478 2.228 . S
Cd478 O477 2.228 . S
Cd478 O482 2.273 . S
Cd478 O486 2.277 . S
O479 C476 1.160 . S
O479 Cd480 2.203 . S
Cd480 O479 2.203 . S
Cd480 O482 2.411 . S
Cd480 O483 2.333 . S
Cd480 O484 2.352 . S
Cd480 O488 2.277 . S
Cd480 O489 2.356 . S
C481 O486 1.209 . S
C481 O488 1.226 . S
O482 Cd478 2.273 . S
O482 Cd480 2.411 . S
O482 C485 1.320 . S
O483 Cd480 2.333 . S
O483 C485 1.214 . S
O484 Cd480 2.352 . S
O484 C487 1.258 . S
C485 O482 1.320 . S
C485 O483 1.214 . S
O486 Cd478 2.277 . S
O486 C481 1.209 . S
C487 O484 1.258 . S
C487 O489 1.282 . S
O488 Cd480 2.277 . S
O488 C481 1.226 . S
O489 Cd480 2.356 . S
O489 C487 1.282 . S
C490 O491 1.306 . S
C490 O493 1.160 . S
O491 C490 1.306 . S
O491 Cd492 2.228 . S
Cd492 O491 2.228 . S
Cd492 O496 2.273 . S
Cd492 O500 2.277 . S
O493 C490 1.160 . S
O493 Cd494 2.203 . S
Cd494 O493 2.203 . S
Cd494 O496 2.411 . S
Cd494 O497 2.333 . S
Cd494 O498 2.352 . S
Cd494 O502 2.277 . S
Cd494 O503 2.356 . S
C495 O500 1.209 . S
C495 O502 1.226 . S
O496 Cd492 2.273 . S
O496 Cd494 2.411 . S
O496 C499 1.320 . S
O497 Cd494 2.333 . S
O497 C499 1.214 . S
O498 Cd494 2.352 . S
O498 C501 1.258 . S
C499 O496 1.320 . S
C499 O497 1.214 . S
O500 Cd492 2.277 . S
O500 C495 1.209 . S
C501 O498 1.258 . S
C501 O503 1.282 . S
O502 Cd494 2.277 . S
O502 C495 1.226 . S
O503 Cd494 2.356 . S
O503 C501 1.282 . S
H504 C510 0.930 . S
H505 C514 0.930 1_554 S
H506 C519 0.929 . S
H507 C517 0.929 . S
H508 C512 0.929 . S
H509 C518 0.929 . S
C510 H504 0.930 . S
C510 C511 1.367 . S
C510 C518 1.378 . S
C511 C510 1.367 . S
C511 C519 1.433 . S
C512 H508 0.929 . S
C512 C514 1.378 . S
C512 C516 1.350 . S
C513 C516 1.463 . S
C513 C518 1.350 . S
C513 N521 1.427 . S
C514 H505 0.930 1_556 S
C514 C512 1.378 . S
C514 C515 1.367 . S
C515 C514 1.367 . S
C515 C517 1.433 . S
C516 C512 1.350 . S
C516 C513 1.463 . S
C516 N520 1.427 . S
C517 H507 0.929 . S
C517 C515 1.433 . S
C517 N520 1.384 . S
C518 H509 0.929 . S
C518 C510 1.378 . S
C518 C513 1.350 . S
C519 H506 0.929 . S
C519 C511 1.433 . S
C519 N521 1.384 . S
N520 C516 1.427 . S
N520 C517 1.384 . S
N521 C513 1.427 . S
N521 C519 1.384 . S
H522 C528 0.930 . S
H523 C532 0.930 1_554 S
H524 C537 0.929 . S
H525 C535 0.929 . S
H526 C530 0.929 . S
H527 C536 0.929 . S
C528 H522 0.930 . S
C528 C529 1.367 . S
C528 C536 1.378 . S
C529 C528 1.367 . S
C529 C537 1.433 . S
C530 H526 0.929 . S
C530 C532 1.378 . S
C530 C534 1.350 . S
C531 C534 1.463 . S
C531 C536 1.350 . S
C531 N539 1.427 . S
C532 H523 0.930 1_556 S
C532 C530 1.378 . S
C532 C533 1.367 . S
C533 C532 1.367 . S
C533 C535 1.433 . S
C534 C530 1.350 . S
C534 C531 1.463 . S
C534 N538 1.427 . S
C535 H525 0.929 . S
C535 C533 1.433 . S
C535 N538 1.384 . S
C536 H527 0.929 . S
C536 C528 1.378 . S
C536 C531 1.350 . S
C537 H524 0.929 . S
C537 C529 1.433 . S
C537 N539 1.384 . S
N538 C534 1.427 . S
N538 C535 1.384 . S
N539 C531 1.427 . S
N539 C537 1.384 . S
H540 C546 0.930 1_554 S
H541 C550 0.930 . S
H542 C555 0.929 . S
H543 C553 0.929 . S
H544 C548 0.929 . S
H545 C554 0.929 . S
C546 H540 0.930 1_556 S
C546 C547 1.367 . S
C546 C554 1.378 . S
C547 C546 1.367 . S
C547 C555 1.433 . S
C548 H544 0.929 . S
C548 C550 1.378 . S
C548 C552 1.350 . S
C549 C552 1.463 . S
C549 C554 1.350 . S
C549 N557 1.427 . S
C550 H541 0.930 . S
C550 C548 1.378 . S
C550 C551 1.367 . S
C551 C550 1.367 . S
C551 C553 1.433 . S
C552 C548 1.350 . S
C552 C549 1.463 . S
C552 N556 1.427 . S
C553 H543 0.929 . S
C553 C551 1.433 . S
C553 N556 1.384 . S
C554 H545 0.929 . S
C554 C546 1.378 . S
C554 C549 1.350 . S
C555 H542 0.929 . S
C555 C547 1.433 . S
C555 N557 1.384 . S
N556 C552 1.427 . S
N556 C553 1.384 . S
N557 C549 1.427 . S
N557 C555 1.384 . S
H558 C564 0.930 . S
H559 C568 0.930 . S
H560 C573 0.929 . S
H561 C571 0.929 . S
H562 C566 0.929 . S
H563 C572 0.929 . S
C564 H558 0.930 . S
C564 C565 1.367 . S
C564 C572 1.378 . S
C565 C564 1.367 . S
C565 C573 1.433 . S
C566 H562 0.929 . S
C566 C568 1.378 . S
C566 C570 1.350 . S
C567 C570 1.463 . S
C567 C572 1.350 . S
C567 N575 1.427 . S
C568 H559 0.930 . S
C568 C566 1.378 . S
C568 C569 1.367 . S
C569 C568 1.367 . S
C569 C571 1.433 . S
C570 C566 1.350 . S
C570 C567 1.463 . S
C570 N574 1.427 . S
C571 H561 0.929 . S
C571 C569 1.433 . S
C571 N574 1.384 . S
C572 H563 0.929 . S
C572 C564 1.378 . S
C572 C567 1.350 . S
C573 H560 0.929 . S
C573 C565 1.433 . S
C573 N575 1.384 . S
N574 C570 1.427 . S
N574 C571 1.384 . S
N575 C567 1.427 . S
N575 C573 1.384 . S
H576 C582 0.930 . S
H577 C586 0.930 . S
H578 C591 0.929 . S
H579 C589 0.929 . S
H580 C584 0.929 . S
H581 C590 0.929 . S
C582 H576 0.930 . S
C582 C583 1.367 . S
C582 C590 1.378 . S
C583 C582 1.367 . S
C583 C591 1.433 . S
C584 H580 0.929 . S
C584 C586 1.378 . S
C584 C588 1.350 . S
C585 C588 1.463 . S
C585 C590 1.350 . S
C585 N593 1.427 . S
C586 H577 0.930 . S
C586 C584 1.378 . S
C586 C587 1.367 . S
C587 C586 1.367 . S
C587 C589 1.433 . S
C588 C584 1.350 . S
C588 C585 1.463 . S
C588 N592 1.427 . S
C589 H579 0.929 . S
C589 C587 1.433 . S
C589 N592 1.384 . S
C590 H581 0.929 . S
C590 C582 1.378 . S
C590 C585 1.350 . S
C591 H578 0.929 . S
C591 C583 1.433 . S
C591 N593 1.384 . S
N592 C588 1.427 . S
N592 C589 1.384 . S
N593 C585 1.427 . S
N593 C591 1.384 . S
H594 C600 0.930 . S
H595 C604 0.930 . S
H596 C609 0.929 . S
H597 C607 0.929 . S
H598 C602 0.929 . S
H599 C608 0.929 . S
C600 H594 0.930 . S
C600 C601 1.367 . S
C600 C608 1.378 . S
C601 C600 1.367 . S
C601 C609 1.433 . S
C602 H598 0.929 . S
C602 C604 1.378 . S
C602 C606 1.350 . S
C603 C606 1.463 . S
C603 C608 1.350 . S
C603 N611 1.427 . S
C604 H595 0.930 . S
C604 C602 1.378 . S
C604 C605 1.367 . S
C605 C604 1.367 . S
C605 C607 1.433 . S
C606 C602 1.350 . S
C606 C603 1.463 . S
C606 N610 1.427 . S
C607 H597 0.929 . S
C607 C605 1.433 . S
C607 N610 1.384 . S
C608 H599 0.929 . S
C608 C600 1.378 . S
C608 C603 1.350 . S
C609 H596 0.929 . S
C609 C601 1.433 . S
C609 N611 1.384 . S
N610 C606 1.427 . S
N610 C607 1.384 . S
N611 C603 1.427 . S
N611 C609 1.384 . S
H612 C618 0.930 . S
H613 C622 0.930 . S
H614 C627 0.929 . S
H615 C625 0.929 1_556 S
H616 C620 0.929 . S
H617 C626 0.929 . S
C618 H612 0.930 . S
C618 C619 1.367 . S
C618 C626 1.378 . S
C619 C618 1.367 . S
C619 C627 1.433 . S
C620 H616 0.929 . S
C620 C622 1.378 . S
C620 C624 1.350 . S
C621 C624 1.463 . S
C621 C626 1.350 . S
C621 N629 1.427 . S
C622 H613 0.930 . S
C622 C620 1.378 . S
C622 C623 1.367 . S
C623 C622 1.367 . S
C623 C625 1.433 . S
C624 C620 1.350 . S
C624 C621 1.463 . S
C624 N628 1.427 . S
C625 H615 0.929 1_554 S
C625 C623 1.433 . S
C625 N628 1.384 . S
C626 H617 0.929 . S
C626 C618 1.378 . S
C626 C621 1.350 . S
C627 H614 0.929 . S
C627 C619 1.433 . S
C627 N629 1.384 . S
N628 C624 1.427 . S
N628 C625 1.384 . S
N629 C621 1.427 . S
N629 C627 1.384 . S
H630 C636 0.930 . S
H631 C640 0.930 . S
H632 C645 0.929 . S
H633 C643 0.929 . S
H634 C638 0.929 . S
H635 C644 0.929 . S
C636 H630 0.930 . S
C636 C637 1.367 . S
C636 C644 1.378 . S
C637 C636 1.367 . S
C637 C645 1.433 . S
C638 H634 0.929 . S
C638 C640 1.378 . S
C638 C642 1.350 . S
C639 C642 1.463 . S
C639 C644 1.350 . S
C639 N647 1.427 . S
C640 H631 0.930 . S
C640 C638 1.378 . S
C640 C641 1.367 . S
C641 C640 1.367 . S
C641 C643 1.433 . S
C642 C638 1.350 . S
C642 C639 1.463 . S
C642 N646 1.427 . S
C643 H633 0.929 . S
C643 C641 1.433 . S
C643 N646 1.384 . S
C644 H635 0.929 . S
C644 C636 1.378 . S
C644 C639 1.350 . S
C645 H632 0.929 . S
C645 C637 1.433 . S
C645 N647 1.384 . S
N646 C642 1.427 . S
N646 C643 1.384 . S
N647 C639 1.427 . S
N647 C645 1.384 . S
H648 C654 0.930 . S
H649 C658 0.930 1_556 S
H650 C663 0.929 . S
H651 C661 0.929 . S
H652 C656 0.929 . S
H653 C662 0.929 . S
C654 H648 0.930 . S
C654 C655 1.367 . S
C654 C662 1.378 . S
C655 C654 1.367 . S
C655 C663 1.433 . S
C656 H652 0.929 . S
C656 C658 1.378 . S
C656 C660 1.350 . S
C657 C660 1.463 . S
C657 C662 1.350 . S
C657 N665 1.427 . S
C658 H649 0.930 1_554 S
C658 C656 1.378 . S
C658 C659 1.367 . S
C659 C658 1.367 . S
C659 C661 1.433 . S
C660 C656 1.350 . S
C660 C657 1.463 . S
C660 N664 1.427 . S
C661 H651 0.929 . S
C661 C659 1.433 . S
C661 N664 1.384 . S
C662 H653 0.929 . S
C662 C654 1.378 . S
C662 C657 1.350 . S
C663 H650 0.929 . S
C663 C655 1.433 . S
C663 N665 1.384 . S
N664 C660 1.427 . S
N664 C661 1.384 . S
N665 C657 1.427 . S
N665 C663 1.384 . S
H666 C672 0.930 . S
H667 C676 0.930 . S
H668 C681 0.929 . S
H669 C679 0.929 . S
H670 C674 0.929 . S
H671 C680 0.929 . S
C672 H666 0.930 . S
C672 C673 1.367 . S
C672 C680 1.378 . S
C673 C672 1.367 . S
C673 C681 1.433 . S
C674 H670 0.929 . S
C674 C676 1.378 . S
C674 C678 1.350 . S
C675 C678 1.463 . S
C675 C680 1.350 . S
C675 N683 1.427 . S
C676 H667 0.930 . S
C676 C674 1.378 . S
C676 C677 1.367 . S
C677 C676 1.367 . S
C677 C679 1.433 . S
C678 C674 1.350 . S
C678 C675 1.463 . S
C678 N682 1.427 . S
C679 H669 0.929 . S
C679 C677 1.433 . S
C679 N682 1.384 . S
C680 H671 0.929 . S
C680 C672 1.378 . S
C680 C675 1.350 . S
C681 H668 0.929 . S
C681 C673 1.433 . S
C681 N683 1.384 . S
N682 C678 1.427 . S
N682 C679 1.384 . S
N683 C675 1.427 . S
N683 C681 1.384 . S
H684 C690 0.930 . S
H685 C694 0.930 . S
H686 C699 0.929 . S
H687 C697 0.929 . S
H688 C692 0.929 . S
H689 C698 0.929 . S
C690 H684 0.930 . S
C690 C691 1.367 . S
C690 C698 1.378 . S
C691 C690 1.367 . S
C691 C699 1.433 . S
C692 H688 0.929 . S
C692 C694 1.378 . S
C692 C696 1.350 . S
C693 C696 1.463 . S
C693 C698 1.350 . S
C693 N701 1.427 . S
C694 H685 0.930 . S
C694 C692 1.378 . S
C694 C695 1.367 . S
C695 C694 1.367 . S
C695 C697 1.433 . S
C696 C692 1.350 . S
C696 C693 1.463 . S
C696 N700 1.427 . S
C697 H687 0.929 . S
C697 C695 1.433 . S
C697 N700 1.384 . S
C698 H689 0.929 . S
C698 C690 1.378 . S
C698 C693 1.350 . S
C699 H686 0.929 . S
C699 C691 1.433 . S
C699 N701 1.384 . S
N700 C696 1.427 . S
N700 C697 1.384 . S
N701 C693 1.427 . S
N701 C699 1.384 . S
H702 C708 0.930 . S
H703 C712 0.930 . S
H704 C717 0.929 . S
H705 C715 0.929 . S
H706 C710 0.929 . S
H707 C716 0.929 . S
C708 H702 0.930 . S
C708 C709 1.367 . S
C708 C716 1.378 . S
C709 C708 1.367 . S
C709 C717 1.433 . S
C710 H706 0.929 . S
C710 C712 1.378 . S
C710 C714 1.350 . S
C711 C714 1.463 . S
C711 C716 1.350 . S
C711 N719 1.427 . S
C712 H703 0.930 . S
C712 C710 1.378 . S
C712 C713 1.367 . S
C713 C712 1.367 . S
C713 C715 1.433 . S
C714 C710 1.350 . S
C714 C711 1.463 . S
C714 N718 1.427 . S
C715 H705 0.929 . S
C715 C713 1.433 . S
C715 N718 1.384 . S
C716 H707 0.929 . S
C716 C708 1.378 . S
C716 C711 1.350 . S
C717 H704 0.929 . S
C717 C709 1.433 . S
C717 N719 1.384 . S
N718 C714 1.427 . S
N718 C715 1.384 . S
N719 C711 1.427 . S
N719 C717 1.384 . S
H720 C726 0.930 . S
H721 C730 0.930 . S
H722 C735 0.929 . S
H723 C733 0.929 . S
H724 C728 0.929 . S
H725 C734 0.929 . S
C726 H720 0.930 . S
C726 C727 1.367 . S
C726 C734 1.378 . S
C727 C726 1.367 . S
C727 C735 1.433 . S
C728 H724 0.929 . S
C728 C730 1.378 . S
C728 C732 1.350 . S
C729 C732 1.463 1_455 S
C729 C734 1.350 . S
C729 N737 1.427 . S
C730 H721 0.930 . S
C730 C728 1.378 . S
C730 C731 1.367 . S
C731 C730 1.367 . S
C731 C733 1.433 . S
C732 C728 1.350 . S
C732 C729 1.463 1_655 S
C732 N736 1.427 . S
C733 H723 0.929 . S
C733 C731 1.433 . S
C733 N736 1.384 . S
C734 H725 0.929 . S
C734 C726 1.378 . S
C734 C729 1.350 . S
C735 H722 0.929 . S
C735 C727 1.433 . S
C735 N737 1.384 . S
N736 C732 1.427 . S
N736 C733 1.384 . S
N737 C729 1.427 . S
N737 C735 1.384 . S
H738 C744 0.930 . S
H739 C748 0.930 . S
H740 C753 0.929 . S
H741 C751 0.929 . S
H742 C746 0.929 . S
H743 C752 0.929 . S
C744 H738 0.930 . S
C744 C745 1.367 . S
C744 C752 1.378 . S
C745 C744 1.367 . S
C745 C753 1.433 . S
C746 H742 0.929 . S
C746 C748 1.378 . S
C746 C750 1.350 . S
C747 C750 1.463 . S
C747 C752 1.350 . S
C747 N755 1.427 . S
C748 H739 0.930 . S
C748 C746 1.378 . S
C748 C749 1.367 . S
C749 C748 1.367 . S
C749 C751 1.433 . S
C750 C746 1.350 . S
C750 C747 1.463 . S
C750 N754 1.427 . S
C751 H741 0.929 . S
C751 C749 1.433 . S
C751 N754 1.384 . S
C752 H743 0.929 . S
C752 C744 1.378 . S
C752 C747 1.350 . S
C753 H740 0.929 . S
C753 C745 1.433 . S
C753 N755 1.384 . S
N754 C750 1.427 . S
N754 C751 1.384 . S
N755 C747 1.427 . S
N755 C753 1.384 . S
H756 C762 0.930 . S
H757 C766 0.930 . S
H758 C771 0.929 . S
H759 C769 0.929 . S
H760 C764 0.929 . S
H761 C770 0.929 . S
C762 H756 0.930 . S
C762 C763 1.367 . S
C762 C770 1.378 . S
C763 C762 1.367 . S
C763 C771 1.433 . S
C764 H760 0.929 . S
C764 C766 1.378 . S
C764 C768 1.350 . S
C765 C768 1.463 1_565 S
C765 C770 1.350 . S
C765 N773 1.427 . S
C766 H757 0.930 . S
C766 C764 1.378 . S
C766 C767 1.367 . S
C767 C766 1.367 . S
C767 C769 1.433 . S
C768 C764 1.350 . S
C768 C765 1.463 1_545 S
C768 N772 1.427 . S
C769 H759 0.929 . S
C769 C767 1.433 . S
C769 N772 1.384 . S
C770 H761 0.929 . S
C770 C762 1.378 . S
C770 C765 1.350 . S
C771 H758 0.929 . S
C771 C763 1.433 . S
C771 N773 1.384 . S
N772 C768 1.427 . S
N772 C769 1.384 . S
N773 C765 1.427 . S
N773 C771 1.384 . S
H774 C780 0.930 . S
H775 C784 0.930 . S
H776 C789 0.929 . S
H777 C787 0.929 . S
H778 C782 0.929 1_565 S
H779 C788 0.929 1_545 S
C780 H774 0.930 . S
C780 C781 1.367 . S
C780 C788 1.378 . S
C781 C780 1.367 . S
C781 C789 1.433 . S
C782 H778 0.929 1_545 S
C782 C784 1.378 . S
C782 C786 1.350 . S
C783 C786 1.463 1_565 S
C783 C788 1.350 . S
C783 N791 1.427 . S
C784 H775 0.930 . S
C784 C782 1.378 . S
C784 C785 1.367 . S
C785 C784 1.367 . S
C785 C787 1.433 . S
C786 C782 1.350 . S
C786 C783 1.463 1_545 S
C786 N790 1.427 . S
C787 H777 0.929 . S
C787 C785 1.433 . S
C787 N790 1.384 . S
C788 H779 0.929 1_565 S
C788 C780 1.378 . S
C788 C783 1.350 . S
C789 H776 0.929 . S
C789 C781 1.433 . S
C789 N791 1.384 . S
N790 C786 1.427 . S
N790 C787 1.384 . S
N791 C783 1.427 . S
N791 C789 1.384 . S
H792 C798 0.930 . S
H793 C802 0.930 . S
H794 C807 0.929 . S
H795 C805 0.929 . S
H796 C800 0.929 . S
H797 C806 0.929 . S
C798 H792 0.930 . S
C798 C799 1.367 . S
C798 C806 1.378 . S
C799 C798 1.367 . S
C799 C807 1.433 . S
C800 H796 0.929 . S
C800 C802 1.378 . S
C800 C804 1.350 . S
C801 C804 1.463 1_455 S
C801 C806 1.350 . S
C801 N809 1.427 . S
C802 H793 0.930 . S
C802 C800 1.378 . S
C802 C803 1.367 . S
C803 C802 1.367 . S
C803 C805 1.433 . S
C804 C800 1.350 . S
C804 C801 1.463 1_655 S
C804 N808 1.427 . S
C805 H795 0.929 . S
C805 C803 1.433 . S
C805 N808 1.384 . S
C806 H797 0.929 . S
C806 C798 1.378 . S
C806 C801 1.350 . S
C807 H794 0.929 . S
C807 C799 1.433 . S
C807 N809 1.384 . S
N808 C804 1.427 . S
N808 C805 1.384 . S
N809 C801 1.427 . S
N809 C807 1.384 . S
H810 C816 0.930 . S
H811 C820 0.930 . S
H812 C825 0.929 . S
H813 C823 0.929 . S
H814 C818 0.929 . S
H815 C824 0.929 . S
C816 H810 0.930 . S
C816 C817 1.367 . S
C816 C824 1.378 . S
C817 C816 1.367 . S
C817 C825 1.433 . S
C818 H814 0.929 . S
C818 C820 1.378 . S
C818 C822 1.350 . S
C819 C822 1.463 . S
C819 C824 1.350 . S
C819 N827 1.427 . S
C820 H811 0.930 . S
C820 C818 1.378 . S
C820 C821 1.367 . S
C821 C820 1.367 . S
C821 C823 1.433 . S
C822 C818 1.350 . S
C822 C819 1.463 . S
C822 N826 1.427 . S
C823 H813 0.929 . S
C823 C821 1.433 . S
C823 N826 1.384 . S
C824 H815 0.929 . S
C824 C816 1.378 . S
C824 C819 1.350 . S
C825 H812 0.929 . S
C825 C817 1.433 . S
C825 N827 1.384 . S
N826 C822 1.427 . S
N826 C823 1.384 . S
N827 C819 1.427 . S
N827 C825 1.384 . S
H828 C834 0.930 . S
H829 C838 0.930 . S
H830 C843 0.929 . S
H831 C841 0.929 . S
H832 C836 0.929 . S
H833 C842 0.929 . S
C834 H828 0.930 . S
C834 C835 1.367 . S
C834 C842 1.378 . S
C835 C834 1.367 . S
C835 C843 1.433 1_556 S
C836 H832 0.929 . S
C836 C838 1.378 . S
C836 C840 1.350 . S
C837 C840 1.463 . S
C837 C842 1.350 1_554 S
C837 N845 1.427 . S
C838 H829 0.930 . S
C838 C836 1.378 . S
C838 C839 1.367 . S
C839 C838 1.367 . S
C839 C841 1.433 . S
C840 C836 1.350 . S
C840 C837 1.463 . S
C840 N844 1.427 . S
C841 H831 0.929 . S
C841 C839 1.433 . S
C841 N844 1.384 . S
C842 H833 0.929 . S
C842 C834 1.378 . S
C842 C837 1.350 1_556 S
C843 H830 0.929 . S
C843 C835 1.433 1_554 S
C843 N845 1.384 . S
N844 C840 1.427 . S
N844 C841 1.384 . S
N845 C837 1.427 . S
N845 C843 1.384 . S
H846 C852 0.930 . S
H847 C856 0.930 . S
H848 C861 0.929 . S
H849 C859 0.929 . S
H850 C854 0.929 . S
H851 C860 0.929 . S
C852 H846 0.930 . S
C852 C853 1.367 . S
C852 C860 1.378 . S
C853 C852 1.367 . S
C853 C861 1.433 1_556 S
C854 H850 0.929 . S
C854 C856 1.378 . S
C854 C858 1.350 . S
C855 C858 1.463 . S
C855 C860 1.350 1_554 S
C855 N863 1.427 . S
C856 H847 0.930 . S
C856 C854 1.378 . S
C856 C857 1.367 . S
C857 C856 1.367 . S
C857 C859 1.433 1_554 S
C858 C854 1.350 . S
C858 C855 1.463 . S
C858 N862 1.427 1_554 S
C859 H849 0.929 . S
C859 C857 1.433 1_556 S
C859 N862 1.384 . S
C860 H851 0.929 . S
C860 C852 1.378 . S
C860 C855 1.350 1_556 S
C861 H848 0.929 . S
C861 C853 1.433 1_554 S
C861 N863 1.384 . S
N862 C858 1.427 1_556 S
N862 C859 1.384 . S
N863 C855 1.427 . S
N863 C861 1.384 . S
H864 C870 0.930 . S
H865 C874 0.930 . S
H866 C879 0.929 . S
H867 C877 0.929 . S
H868 C872 0.929 . S
H869 C878 0.929 1_554 S
C870 H864 0.930 . S
C870 C871 1.367 . S
C870 C878 1.378 . S
C871 C870 1.367 . S
C871 C879 1.433 . S
C872 H868 0.929 . S
C872 C874 1.378 . S
C872 C876 1.350 . S
C873 C876 1.463 . S
C873 C878 1.350 1_554 S
C873 N881 1.427 1_554 S
C874 H865 0.930 . S
C874 C872 1.378 . S
C874 C875 1.367 . S
C875 C874 1.367 . S
C875 C877 1.433 . S
C876 C872 1.350 . S
C876 C873 1.463 . S
C876 N880 1.427 . S
C877 H867 0.929 . S
C877 C875 1.433 . S
C877 N880 1.384 . S
C878 H869 0.929 1_556 S
C878 C870 1.378 . S
C878 C873 1.350 1_556 S
C879 H866 0.929 . S
C879 C871 1.433 . S
C879 N881 1.384 . S
N880 C876 1.427 . S
N880 C877 1.384 . S
N881 C873 1.427 1_556 S
N881 C879 1.384 . S
H882 C888 0.930 . S
H883 C892 0.930 . S
H884 C897 0.929 . S
H885 C895 0.929 . S
H886 C890 0.929 . S
H887 C896 0.929 . S
C888 H882 0.930 . S
C888 C889 1.367 . S
C888 C896 1.378 . S
C889 C888 1.367 . S
C889 C897 1.433 . S
C890 H886 0.929 . S
C890 C892 1.378 . S
C890 C894 1.350 . S
C891 C894 1.463 . S
C891 C896 1.350 . S
C891 N899 1.427 . S
C892 H883 0.930 . S
C892 C890 1.378 . S
C892 C893 1.367 . S
C893 C892 1.367 . S
C893 C895 1.433 . S
C894 C890 1.350 . S
C894 C891 1.463 . S
C894 N898 1.427 . S
C895 H885 0.929 . S
C895 C893 1.433 . S
C895 N898 1.384 . S
C896 H887 0.929 . S
C896 C888 1.378 . S
C896 C891 1.350 . S
C897 H884 0.929 . S
C897 C889 1.433 . S
C897 N899 1.384 . S
N898 C894 1.427 . S
N898 C895 1.384 . S
N899 C891 1.427 . S
N899 C897 1.384 . S
H900 C906 0.930 . S
H901 C910 0.930 . S
H902 C915 0.929 . S
H903 C913 0.929 . S
H904 C908 0.929 . S
H905 C914 0.929 . S
C906 H900 0.930 . S
C906 C907 1.367 . S
C906 C914 1.378 . S
C907 C906 1.367 . S
C907 C915 1.433 . S
C908 H904 0.929 . S
C908 C910 1.378 . S
C908 C912 1.350 . S
C909 C912 1.463 . S
C909 C914 1.350 . S
C909 N917 1.427 . S
C910 H901 0.930 . S
C910 C908 1.378 . S
C910 C911 1.367 . S
C911 C910 1.367 . S
C911 C913 1.433 . S
C912 C908 1.350 . S
C912 C909 1.463 . S
C912 N916 1.427 . S
C913 H903 0.929 . S
C913 C911 1.433 . S
C913 N916 1.384 . S
C914 H905 0.929 . S
C914 C906 1.378 . S
C914 C909 1.350 . S
C915 H902 0.929 . S
C915 C907 1.433 . S
C915 N917 1.384 . S
N916 C912 1.427 . S
N916 C913 1.384 . S
N917 C909 1.427 . S
N917 C915 1.384 . S
H918 C924 0.930 . S
H919 C928 0.930 . S
H920 C933 0.929 . S
H921 C931 0.929 . S
H922 C926 0.929 . S
H923 C932 0.929 . S
C924 H918 0.930 . S
C924 C925 1.367 . S
C924 C932 1.378 . S
C925 C924 1.367 . S
C925 C933 1.433 . S
C926 H922 0.929 . S
C926 C928 1.378 . S
C926 C930 1.350 . S
C927 C930 1.463 . S
C927 C932 1.350 . S
C927 N935 1.427 . S
C928 H919 0.930 . S
C928 C926 1.378 . S
C928 C929 1.367 . S
C929 C928 1.367 . S
C929 C931 1.433 . S
C930 C926 1.350 . S
C930 C927 1.463 . S
C930 N934 1.427 . S
C931 H921 0.929 . S
C931 C929 1.433 . S
C931 N934 1.384 . S
C932 H923 0.929 . S
C932 C924 1.378 . S
C932 C927 1.350 . S
C933 H920 0.929 . S
C933 C925 1.433 . S
C933 N935 1.384 . S
N934 C930 1.427 . S
N934 C931 1.384 . S
N935 C927 1.427 . S
N935 C933 1.384 . S
H936 C942 0.930 . S
H937 C946 0.930 . S
H938 C951 0.929 . S
H939 C949 0.944 . S
H940 C944 0.929 . S
H941 C950 0.929 . S
C942 H936 0.930 . S
C942 C943 1.367 . S
C942 C950 1.378 . S
C943 C942 1.367 . S
C943 C951 1.433 1_554 S
C944 H940 0.929 . S
C944 C946 1.378 . S
C944 C948 1.350 . S
C945 C948 1.463 . S
C945 C950 1.350 1_556 S
C945 N953 1.427 . S
C946 H937 0.930 . S
C946 C944 1.378 . S
C946 C947 1.367 . S
C947 C946 1.367 . S
C947 C949 1.412 1_556 S
C948 C944 1.350 . S
C948 C945 1.463 . S
C948 N952 1.427 1_556 S
C949 H939 0.944 . S
C949 C947 1.412 1_554 S
C949 N952 1.390 . S
C950 H941 0.929 . S
C950 C942 1.378 . S
C950 C945 1.350 1_554 S
C951 H938 0.929 . S
C951 C943 1.433 1_556 S
C951 N953 1.384 . S
N952 C948 1.427 1_554 S
N952 C949 1.390 . S
N953 C945 1.427 . S
N953 C951 1.384 . S
H954 C960 0.930 . S
H955 C964 0.930 . S
H956 C969 0.929 . S
H957 C967 0.929 . S
H958 C962 0.929 . S
H959 C968 0.929 . S
C960 H954 0.930 . S
C960 C961 1.367 1_554 S
C960 C968 1.378 . S
C961 C960 1.367 1_556 S
C961 C969 1.433 . S
C962 H958 0.929 . S
C962 C964 1.378 . S
C962 C966 1.350 . S
C963 C966 1.463 . S
C963 C968 1.350 1_556 S
C963 N971 1.427 . S
C964 H955 0.930 . S
C964 C962 1.378 . S
C964 C965 1.367 1_556 S
C965 C964 1.367 1_554 S
C965 C967 1.433 . S
C966 C962 1.350 . S
C966 C963 1.463 . S
C966 N970 1.427 1_556 S
C967 H957 0.929 . S
C967 C965 1.433 . S
C967 N970 1.384 . S
C968 H959 0.929 . S
C968 C960 1.378 . S
C968 C963 1.350 1_554 S
C969 H956 0.929 . S
C969 C961 1.433 . S
C969 N971 1.384 . S
N970 C966 1.427 1_554 S
N970 C967 1.384 . S
N971 C963 1.427 . S
N971 C969 1.384 . S
H972 C978 0.930 . S
H973 C982 0.930 . S
H974 C987 0.929 . S
H975 C985 0.929 . S
H976 C980 0.929 . S
H977 C986 0.929 . S
C978 H972 0.930 . S
C978 C979 1.367 1_556 S
C978 C986 1.378 . S
C979 C978 1.367 1_554 S
C979 C987 1.433 . S
C980 H976 0.929 . S
C980 C982 1.378 . S
C980 C984 1.350 1_554 S
C981 C984 1.463 . S
C981 C986 1.350 . S
C981 N989 1.427 1_556 S
C982 H973 0.930 . S
C982 C980 1.378 . S
C982 C983 1.367 1_554 S
C983 C982 1.367 1_556 S
C983 C985 1.433 . S
C984 C980 1.350 1_556 S
C984 C981 1.463 . S
C984 N988 1.427 . S
C985 H975 0.929 . S
C985 C983 1.433 . S
C985 N988 1.384 . S
C986 H977 0.929 . S
C986 C978 1.378 . S
C986 C981 1.350 . S
C987 H974 0.929 . S
C987 C979 1.433 . S
C987 N989 1.384 . S
N988 C984 1.427 . S
N988 C985 1.384 . S
N989 C981 1.427 1_554 S
N989 C987 1.384 . S
H990 C996 0.930 . S
H991 C1000 0.930 . S
H992 C1005 0.929 . S
H993 C1003 0.929 . S
H994 C998 0.929 . S
H995 C1004 0.929 . S
C996 H990 0.930 . S
C996 C997 1.367 . S
C996 C1004 1.378 . S
C997 C996 1.367 . S
C997 C1005 1.433 . S
C998 H994 0.929 . S
C998 C1000 1.378 . S
C998 C1002 1.350 . S
C999 C1002 1.463 . S
C999 C1004 1.350 . S
C999 N1007 1.427 . S
C1000 H991 0.930 . S
C1000 C998 1.378 . S
C1000 C1001 1.367 . S
C1001 C1000 1.367 . S
C1001 C1003 1.433 . S
C1002 C998 1.350 . S
C1002 C999 1.463 . S
C1002 N1006 1.427 . S
C1003 H993 0.929 . S
C1003 C1001 1.433 . S
C1003 N1006 1.384 . S
C1004 H995 0.929 . S
C1004 C996 1.378 . S
C1004 C999 1.350 . S
C1005 H992 0.929 . S
C1005 C997 1.433 . S
C1005 N1007 1.384 . S
N1006 C1002 1.427 . S
N1006 C1003 1.384 . S
N1007 C999 1.427 . S
N1007 C1005 1.384 . S
H1008 C1014 0.930 . S
H1009 C1018 0.930 . S
H1010 C1023 0.929 . S
H1011 C1021 0.929 . S
H1012 C1016 0.929 . S
H1013 C1022 0.929 . S
C1014 H1008 0.930 . S
C1014 C1015 1.367 . S
C1014 C1022 1.378 . S
C1015 C1014 1.367 . S
C1015 C1023 1.433 . S
C1016 H1012 0.929 . S
C1016 C1018 1.378 . S
C1016 C1020 1.350 . S
C1017 C1020 1.463 . S
C1017 C1022 1.350 . S
C1017 N1025 1.427 . S
C1018 H1009 0.930 . S
C1018 C1016 1.378 . S
C1018 C1019 1.367 . S
C1019 C1018 1.367 . S
C1019 C1021 1.433 . S
C1020 C1016 1.350 . S
C1020 C1017 1.463 . S
C1020 N1024 1.427 . S
C1021 H1011 0.929 . S
C1021 C1019 1.433 . S
C1021 N1024 1.384 . S
C1022 H1013 0.929 . S
C1022 C1014 1.378 . S
C1022 C1017 1.350 . S
C1023 H1010 0.929 . S
C1023 C1015 1.433 . S
C1023 N1025 1.384 . S
N1024 C1020 1.427 . S
N1024 C1021 1.384 . S
N1025 C1017 1.427 . S
N1025 C1023 1.384 . S
H1026 C1032 0.930 . S
H1027 C1036 0.930 . S
H1028 C1041 0.929 . S
H1029 C1039 0.929 . S
H1030 C1034 0.929 . S
H1031 C1040 0.929 . S
C1032 H1026 0.930 . S
C1032 C1033 1.367 . S
C1032 C1040 1.378 . S
C1033 C1032 1.367 . S
C1033 C1041 1.433 . S
C1034 H1030 0.929 . S
C1034 C1036 1.378 . S
C1034 C1038 1.350 . S
C1035 C1038 1.463 . S
C1035 C1040 1.350 . S
C1035 N1043 1.427 . S
C1036 H1027 0.930 . S
C1036 C1034 1.378 . S
C1036 C1037 1.367 . S
C1037 C1036 1.367 . S
C1037 C1039 1.433 . S
C1038 C1034 1.350 . S
C1038 C1035 1.463 . S
C1038 N1042 1.427 . S
C1039 H1029 0.929 . S
C1039 C1037 1.433 . S
C1039 N1042 1.384 . S
C1040 H1031 0.929 . S
C1040 C1032 1.378 . S
C1040 C1035 1.350 . S
C1041 H1028 0.929 . S
C1041 C1033 1.433 . S
C1041 N1043 1.384 . S
N1042 C1038 1.427 . S
N1042 C1039 1.384 . S
N1043 C1035 1.427 . S
N1043 C1041 1.384 . S
H1044 C1050 0.930 . S
H1045 C1054 0.930 . S
H1046 C1059 0.929 . S
H1047 C1057 0.929 . S
H1048 C1052 0.929 . S
H1049 C1058 0.929 . S
C1050 H1044 0.930 . S
C1050 C1051 1.367 . S
C1050 C1058 1.378 . S
C1051 C1050 1.367 . S
C1051 C1059 1.433 . S
C1052 H1048 0.929 . S
C1052 C1054 1.378 . S
C1052 C1056 1.350 . S
C1053 C1056 1.463 . S
C1053 C1058 1.350 . S
C1053 N1061 1.427 . S
C1054 H1045 0.930 . S
C1054 C1052 1.378 . S
C1054 C1055 1.367 . S
C1055 C1054 1.367 . S
C1055 C1057 1.433 . S
C1056 C1052 1.350 . S
C1056 C1053 1.463 . S
C1056 N1060 1.427 . S
C1057 H1047 0.929 . S
C1057 C1055 1.433 . S
C1057 N1060 1.384 . S
C1058 H1049 0.929 . S
C1058 C1050 1.378 . S
C1058 C1053 1.350 . S
C1059 H1046 0.929 . S
C1059 C1051 1.433 . S
C1059 N1061 1.384 . S
N1060 C1056 1.427 . S
N1060 C1057 1.384 . S
N1061 C1053 1.427 . S
N1061 C1059 1.384 . S
H1062 C1068 0.930 . S
H1063 C1072 0.930 . S
H1064 C1077 0.929 . S
H1065 C1075 0.929 . S
H1066 C1070 0.929 . S
H1067 C1076 0.929 . S
C1068 H1062 0.930 . S
C1068 C1069 1.367 . S
C1068 C1076 1.378 . S
C1069 C1068 1.367 . S
C1069 C1077 1.433 . S
C1070 H1066 0.929 . S
C1070 C1072 1.378 . S
C1070 C1074 1.350 . S
C1071 C1074 1.463 . S
C1071 C1076 1.350 . S
C1071 N1079 1.427 . S
C1072 H1063 0.930 . S
C1072 C1070 1.378 . S
C1072 C1073 1.367 . S
C1073 C1072 1.367 . S
C1073 C1075 1.433 . S
C1074 C1070 1.350 . S
C1074 C1071 1.463 . S
C1074 N1078 1.427 . S
C1075 H1065 0.929 . S
C1075 C1073 1.433 . S
C1075 N1078 1.384 . S
C1076 H1067 0.929 . S
C1076 C1068 1.378 . S
C1076 C1071 1.350 . S
C1077 H1064 0.929 . S
C1077 C1069 1.433 . S
C1077 N1079 1.384 . S
N1078 C1074 1.427 . S
N1078 C1075 1.384 . S
N1079 C1071 1.427 . S
N1079 C1077 1.384 . S
H1080 C1086 0.930 . S
H1081 C1090 0.930 . S
H1082 C1095 0.929 . S
H1083 C1093 0.929 . S
H1084 C1088 0.929 . S
H1085 C1094 0.929 . S
C1086 H1080 0.930 . S
C1086 C1087 1.367 . S
C1086 C1094 1.378 . S
C1087 C1086 1.367 . S
C1087 C1095 1.433 . S
C1088 H1084 0.929 . S
C1088 C1090 1.378 . S
C1088 C1092 1.350 . S
C1089 C1092 1.463 . S
C1089 C1094 1.350 . S
C1089 N1097 1.427 . S
C1090 H1081 0.930 . S
C1090 C1088 1.378 . S
C1090 C1091 1.367 . S
C1091 C1090 1.367 . S
C1091 C1093 1.433 . S
C1092 C1088 1.350 . S
C1092 C1089 1.463 . S
C1092 N1096 1.427 . S
C1093 H1083 0.929 . S
C1093 C1091 1.433 . S
C1093 N1096 1.384 . S
C1094 H1085 0.929 . S
C1094 C1086 1.378 . S
C1094 C1089 1.350 . S
C1095 H1082 0.929 . S
C1095 C1087 1.433 . S
C1095 N1097 1.384 . S
N1096 C1092 1.427 . S
N1096 C1093 1.384 . S
N1097 C1089 1.427 . S
N1097 C1095 1.384 . S
H1098 C1104 0.930 . S
H1099 C1108 0.930 . S
H1100 C1113 0.929 . S
H1101 C1111 0.929 . S
H1102 C1106 0.929 . S
H1103 C1112 0.929 . S
C1104 H1098 0.930 . S
C1104 C1105 1.367 . S
C1104 C1112 1.378 . S
C1105 C1104 1.367 . S
C1105 C1113 1.433 . S
C1106 H1102 0.929 . S
C1106 C1108 1.378 . S
C1106 C1110 1.350 . S
C1107 C1110 1.463 . S
C1107 C1112 1.350 . S
C1107 N1115 1.427 . S
C1108 H1099 0.930 . S
C1108 C1106 1.378 . S
C1108 C1109 1.367 . S
C1109 C1108 1.367 . S
C1109 C1111 1.433 . S
C1110 C1106 1.350 . S
C1110 C1107 1.463 . S
C1110 N1114 1.427 . S
C1111 H1101 0.929 . S
C1111 C1109 1.433 . S
C1111 N1114 1.384 . S
C1112 H1103 0.929 . S
C1112 C1104 1.378 . S
C1112 C1107 1.350 . S
C1113 H1100 0.929 . S
C1113 C1105 1.433 . S
C1113 N1115 1.384 . S
N1114 C1110 1.427 . S
N1114 C1111 1.384 . S
N1115 C1107 1.427 . S
N1115 C1113 1.384 . S
H1116 C1122 0.930 . S
H1117 C1126 0.930 . S
H1118 C1131 0.929 . S
H1119 C1129 0.929 . S
H1120 C1124 0.929 . S
H1121 C1130 0.929 . S
C1122 H1116 0.930 . S
C1122 C1123 1.367 . S
C1122 C1130 1.378 . S
C1123 C1122 1.367 . S
C1123 C1131 1.433 . S
C1124 H1120 0.929 . S
C1124 C1126 1.378 . S
C1124 C1128 1.350 . S
C1125 C1128 1.463 . S
C1125 C1130 1.350 . S
C1125 N1133 1.427 . S
C1126 H1117 0.930 . S
C1126 C1124 1.378 . S
C1126 C1127 1.367 . S
C1127 C1126 1.367 . S
C1127 C1129 1.433 . S
C1128 C1124 1.350 . S
C1128 C1125 1.463 . S
C1128 N1132 1.427 . S
C1129 H1119 0.929 . S
C1129 C1127 1.433 . S
C1129 N1132 1.384 . S
C1130 H1121 0.929 . S
C1130 C1122 1.378 . S
C1130 C1125 1.350 . S
C1131 H1118 0.929 . S
C1131 C1123 1.433 . S
C1131 N1133 1.384 . S
N1132 C1128 1.427 . S
N1132 C1129 1.384 . S
N1133 C1125 1.427 . S
N1133 C1131 1.384 . S
H1134 C1140 0.930 . S
H1135 C1144 0.930 . S
H1136 C1149 0.929 . S
H1137 C1147 0.929 . S
H1138 C1142 0.929 . S
H1139 C1148 0.929 . S
C1140 H1134 0.930 . S
C1140 C1141 1.367 . S
C1140 C1148 1.378 . S
C1141 C1140 1.367 . S
C1141 C1149 1.433 . S
C1142 H1138 0.929 . S
C1142 C1144 1.378 . S
C1142 C1146 1.350 . S
C1143 C1146 1.463 . S
C1143 C1148 1.350 . S
C1143 N1151 1.427 . S
C1144 H1135 0.930 . S
C1144 C1142 1.378 . S
C1144 C1145 1.367 . S
C1145 C1144 1.367 . S
C1145 C1147 1.433 . S
C1146 C1142 1.350 . S
C1146 C1143 1.463 . S
C1146 N1150 1.427 . S
C1147 H1137 0.929 . S
C1147 C1145 1.433 . S
C1147 N1150 1.384 . S
C1148 H1139 0.929 . S
C1148 C1140 1.378 . S
C1148 C1143 1.350 . S
C1149 H1136 0.929 . S
C1149 C1141 1.433 . S
C1149 N1151 1.384 . S
N1150 C1146 1.427 . S
N1150 C1147 1.384 . S
N1151 C1143 1.427 . S
N1151 C1149 1.384 . S
H1152 C1158 0.930 . S
H1153 C1162 0.930 . S
H1154 C1167 0.929 . S
H1155 C1165 0.929 . S
H1156 C1160 0.929 . S
H1157 C1166 0.929 . S
C1158 H1152 0.930 . S
C1158 C1159 1.367 . S
C1158 C1166 1.378 . S
C1159 C1158 1.367 . S
C1159 C1167 1.433 . S
C1160 H1156 0.929 . S
C1160 C1162 1.378 . S
C1160 C1164 1.350 . S
C1161 C1164 1.463 . S
C1161 C1166 1.350 . S
C1161 N1169 1.427 . S
C1162 H1153 0.930 . S
C1162 C1160 1.378 . S
C1162 C1163 1.367 . S
C1163 C1162 1.367 . S
C1163 C1165 1.433 . S
C1164 C1160 1.350 . S
C1164 C1161 1.463 . S
C1164 N1168 1.427 . S
C1165 H1155 0.929 . S
C1165 C1163 1.433 . S
C1165 N1168 1.384 . S
C1166 H1157 0.929 . S
C1166 C1158 1.378 . S
C1166 C1161 1.350 . S
C1167 H1154 0.929 . S
C1167 C1159 1.433 . S
C1167 N1169 1.384 . S
N1168 C1164 1.427 . S
N1168 C1165 1.384 . S
N1169 C1161 1.427 . S
N1169 C1167 1.384 . S
H1170 C1176 0.930 . S
H1171 C1180 0.930 . S
H1172 C1185 0.929 . S
H1173 C1183 0.929 . S
H1174 C1178 0.929 . S
H1175 C1184 0.929 . S
C1176 H1170 0.930 . S
C1176 C1177 1.367 . S
C1176 C1184 1.378 . S
C1177 C1176 1.367 . S
C1177 C1185 1.433 . S
C1178 H1174 0.929 . S
C1178 C1180 1.378 . S
C1178 C1182 1.350 . S
C1179 C1182 1.463 . S
C1179 C1184 1.350 . S
C1179 N1187 1.427 . S
C1180 H1171 0.930 . S
C1180 C1178 1.378 . S
C1180 C1181 1.367 . S
C1181 C1180 1.367 . S
C1181 C1183 1.433 . S
C1182 C1178 1.350 . S
C1182 C1179 1.463 . S
C1182 N1186 1.427 . S
C1183 H1173 0.929 . S
C1183 C1181 1.433 . S
C1183 N1186 1.384 . S
C1184 H1175 0.929 . S
C1184 C1176 1.378 . S
C1184 C1179 1.350 . S
C1185 H1172 0.929 . S
C1185 C1177 1.433 . S
C1185 N1187 1.384 . S
N1186 C1182 1.427 . S
N1186 C1183 1.384 . S
N1187 C1179 1.427 . S
N1187 C1185 1.384 . S
H1188 C1194 0.930 . S
H1189 C1198 0.930 . S
H1190 C1203 0.929 . S
H1191 C1201 0.929 . S
H1192 C1196 0.929 . S
H1193 C1202 0.929 . S
C1194 H1188 0.930 . S
C1194 C1195 1.367 . S
C1194 C1202 1.378 . S
C1195 C1194 1.367 . S
C1195 C1203 1.433 . S
C1196 H1192 0.929 . S
C1196 C1198 1.378 . S
C1196 C1200 1.350 . S
C1197 C1200 1.463 . S
C1197 C1202 1.350 . S
C1197 N1205 1.427 . S
C1198 H1189 0.930 . S
C1198 C1196 1.378 . S
C1198 C1199 1.367 . S
C1199 C1198 1.367 . S
C1199 C1201 1.433 . S
C1200 C1196 1.350 . S
C1200 C1197 1.463 . S
C1200 N1204 1.427 . S
C1201 H1191 0.929 . S
C1201 C1199 1.433 . S
C1201 N1204 1.384 . S
C1202 H1193 0.929 . S
C1202 C1194 1.378 . S
C1202 C1197 1.350 . S
C1203 H1190 0.929 . S
C1203 C1195 1.433 . S
C1203 N1205 1.384 . S
N1204 C1200 1.427 . S
N1204 C1201 1.384 . S
N1205 C1197 1.427 . S
N1205 C1203 1.384 . S
H1206 C1212 0.930 . S
H1207 C1216 0.930 . S
H1208 C1221 0.929 . S
H1209 C1219 0.929 . S
H1210 C1214 0.929 . S
H1211 C1220 0.929 . S
C1212 H1206 0.930 . S
C1212 C1213 1.367 . S
C1212 C1220 1.378 . S
C1213 C1212 1.367 . S
C1213 C1221 1.433 . S
C1214 H1210 0.929 . S
C1214 C1216 1.378 . S
C1214 C1218 1.350 . S
C1215 C1218 1.463 . S
C1215 C1220 1.350 . S
C1215 N1223 1.427 . S
C1216 H1207 0.930 . S
C1216 C1214 1.378 . S
C1216 C1217 1.367 . S
C1217 C1216 1.367 . S
C1217 C1219 1.433 . S
C1218 C1214 1.350 . S
C1218 C1215 1.463 . S
C1218 N1222 1.427 . S
C1219 H1209 0.929 . S
C1219 C1217 1.433 . S
C1219 N1222 1.384 . S
C1220 H1211 0.929 . S
C1220 C1212 1.378 . S
C1220 C1215 1.350 . S
C1221 H1208 0.929 . S
C1221 C1213 1.433 . S
C1221 N1223 1.384 . S
N1222 C1218 1.427 . S
N1222 C1219 1.384 . S
N1223 C1215 1.427 . S
N1223 C1221 1.384 . S
H1224 C1230 0.930 . S
H1225 C1234 0.930 . S
H1226 C1239 0.929 . S
H1227 C1237 0.929 . S
H1228 C1232 0.929 . S
H1229 C1238 0.929 . S
C1230 H1224 0.930 . S
C1230 C1231 1.367 . S
C1230 C1238 1.378 . S
C1231 C1230 1.367 . S
C1231 C1239 1.433 . S
C1232 H1228 0.929 . S
C1232 C1234 1.378 . S
C1232 C1236 1.350 . S
C1233 C1236 1.463 . S
C1233 C1238 1.350 . S
C1233 N1241 1.427 . S
C1234 H1225 0.930 . S
C1234 C1232 1.378 . S
C1234 C1235 1.367 . S
C1235 C1234 1.367 . S
C1235 C1237 1.433 . S
C1236 C1232 1.350 . S
C1236 C1233 1.463 . S
C1236 N1240 1.427 . S
C1237 H1227 0.929 . S
C1237 C1235 1.433 . S
C1237 N1240 1.384 . S
C1238 H1229 0.929 . S
C1238 C1230 1.378 . S
C1238 C1233 1.350 . S
C1239 H1226 0.929 . S
C1239 C1231 1.433 . S
C1239 N1241 1.384 . S
N1240 C1236 1.427 . S
N1240 C1237 1.384 . S
N1241 C1233 1.427 . S
N1241 C1239 1.384 . S
H1242 C1248 0.930 . S
H1243 C1252 0.930 . S
H1244 C1257 0.929 . S
H1245 C1255 0.929 . S
H1246 C1250 0.929 . S
H1247 C1256 0.929 . S
C1248 H1242 0.930 . S
C1248 C1249 1.367 . S
C1248 C1256 1.378 . S
C1249 C1248 1.367 . S
C1249 C1257 1.433 . S
C1250 H1246 0.929 . S
C1250 C1252 1.378 . S
C1250 C1254 1.350 . S
C1251 C1254 1.463 . S
C1251 C1256 1.350 . S
C1251 N1259 1.427 . S
C1252 H1243 0.930 . S
C1252 C1250 1.378 . S
C1252 C1253 1.367 . S
C1253 C1252 1.367 . S
C1253 C1255 1.433 . S
C1254 C1250 1.350 . S
C1254 C1251 1.463 . S
C1254 N1258 1.427 . S
C1255 H1245 0.929 . S
C1255 C1253 1.433 . S
C1255 N1258 1.384 . S
C1256 H1247 0.929 . S
C1256 C1248 1.378 . S
C1256 C1251 1.350 . S
C1257 H1244 0.929 . S
C1257 C1249 1.433 . S
C1257 N1259 1.384 . S
N1258 C1254 1.427 . S
N1258 C1255 1.384 . S
N1259 C1251 1.427 . S
N1259 C1257 1.384 . S
H1260 C1266 0.930 . S
H1261 C1270 0.930 . S
H1262 C1275 0.929 . S
H1263 C1273 0.929 . S
H1264 C1268 0.929 . S
H1265 C1274 0.929 . S
C1266 H1260 0.930 . S
C1266 C1267 1.367 . S
C1266 C1274 1.378 . S
C1267 C1266 1.367 . S
C1267 C1275 1.433 . S
C1268 H1264 0.929 . S
C1268 C1270 1.378 . S
C1268 C1272 1.350 . S
C1269 C1272 1.463 . S
C1269 C1274 1.350 . S
C1269 N1277 1.427 . S
C1270 H1261 0.930 . S
C1270 C1268 1.378 . S
C1270 C1271 1.367 . S
C1271 C1270 1.367 . S
C1271 C1273 1.433 . S
C1272 C1268 1.350 . S
C1272 C1269 1.463 . S
C1272 N1276 1.427 . S
C1273 H1263 0.929 . S
C1273 C1271 1.433 . S
C1273 N1276 1.384 . S
C1274 H1265 0.929 . S
C1274 C1266 1.378 . S
C1274 C1269 1.350 . S
C1275 H1262 0.929 . S
C1275 C1267 1.433 . S
C1275 N1277 1.384 . S
N1276 C1272 1.427 . S
N1276 C1273 1.384 . S
N1277 C1269 1.427 . S
N1277 C1275 1.384 . S
H1278 C1284 0.930 . S
H1279 C1288 0.930 . S
H1280 C1293 0.929 . S
H1281 C1291 0.929 . S
H1282 C1286 0.929 . S
H1283 C1292 0.929 . S
C1284 H1278 0.930 . S
C1284 C1285 1.367 . S
C1284 C1292 1.378 . S
C1285 C1284 1.367 . S
C1285 C1293 1.433 . S
C1286 H1282 0.929 . S
C1286 C1288 1.378 . S
C1286 C1290 1.350 . S
C1287 C1290 1.463 . S
C1287 C1292 1.350 . S
C1287 N1295 1.427 . S
C1288 H1279 0.930 . S
C1288 C1286 1.378 . S
C1288 C1289 1.367 . S
C1289 C1288 1.367 . S
C1289 C1291 1.433 . S
C1290 C1286 1.350 . S
C1290 C1287 1.463 . S
C1290 N1294 1.427 . S
C1291 H1281 0.929 . S
C1291 C1289 1.433 . S
C1291 N1294 1.384 . S
C1292 H1283 0.929 . S
C1292 C1284 1.378 . S
C1292 C1287 1.350 . S
C1293 H1280 0.929 . S
C1293 C1285 1.433 . S
C1293 N1295 1.384 . S
N1294 C1290 1.427 . S
N1294 C1291 1.384 . S
N1295 C1287 1.427 . S
N1295 C1293 1.384 . S
H1296 C1302 0.930 . S
H1297 C1306 0.930 . S
H1298 C1311 0.929 . S
H1299 C1309 0.929 . S
H1300 C1304 0.929 . S
H1301 C1310 0.929 . S
C1302 H1296 0.930 . S
C1302 C1303 1.367 . S
C1302 C1310 1.378 . S
C1303 C1302 1.367 . S
C1303 C1311 1.433 . S
C1304 H1300 0.929 . S
C1304 C1306 1.378 . S
C1304 C1308 1.350 . S
C1305 C1308 1.463 . S
C1305 C1310 1.350 . S
C1305 N1313 1.427 . S
C1306 H1297 0.930 . S
C1306 C1304 1.378 . S
C1306 C1307 1.367 . S
C1307 C1306 1.367 . S
C1307 C1309 1.433 . S
C1308 C1304 1.350 . S
C1308 C1305 1.463 . S
C1308 N1312 1.427 . S
C1309 H1299 0.929 . S
C1309 C1307 1.433 . S
C1309 N1312 1.384 . S
C1310 H1301 0.929 . S
C1310 C1302 1.378 . S
C1310 C1305 1.350 . S
C1311 H1298 0.929 . S
C1311 C1303 1.433 . S
C1311 N1313 1.384 . S
N1312 C1308 1.427 . S
N1312 C1309 1.384 . S
N1313 C1305 1.427 . S
N1313 C1311 1.384 . S
H1314 C1320 0.930 . S
H1315 C1324 0.930 . S
H1316 C1329 0.929 . S
H1317 C1327 0.929 . S
H1318 C1322 0.929 . S
H1319 C1328 0.929 . S
C1320 H1314 0.930 . S
C1320 C1321 1.367 . S
C1320 C1328 1.378 . S
C1321 C1320 1.367 . S
C1321 C1329 1.433 . S
C1322 H1318 0.929 . S
C1322 C1324 1.378 . S
C1322 C1326 1.350 . S
C1323 C1326 1.463 . S
C1323 C1328 1.350 . S
C1323 N1331 1.427 . S
C1324 H1315 0.930 . S
C1324 C1322 1.378 . S
C1324 C1325 1.367 . S
C1325 C1324 1.367 . S
C1325 C1327 1.433 . S
C1326 C1322 1.350 . S
C1326 C1323 1.463 . S
C1326 N1330 1.427 . S
C1327 H1317 0.929 . S
C1327 C1325 1.433 . S
C1327 N1330 1.384 . S
C1328 H1319 0.929 . S
C1328 C1320 1.378 . S
C1328 C1323 1.350 . S
C1329 H1316 0.929 . S
C1329 C1321 1.433 . S
C1329 N1331 1.384 . S
N1330 C1326 1.427 . S
N1330 C1327 1.384 . S
N1331 C1323 1.427 . S
N1331 C1329 1.384 . S
H1332 C1338 0.930 . S
H1333 C1342 0.930 . S
H1334 C1347 0.929 . S
H1335 C1345 0.929 . S
H1336 C1340 0.929 . S
H1337 C1346 0.929 . S
C1338 H1332 0.930 . S
C1338 C1339 1.367 . S
C1338 C1346 1.378 . S
C1339 C1338 1.367 . S
C1339 C1347 1.433 . S
C1340 H1336 0.929 . S
C1340 C1342 1.378 . S
C1340 C1344 1.350 . S
C1341 C1344 1.463 . S
C1341 C1346 1.350 . S
C1341 N1349 1.427 . S
C1342 H1333 0.930 . S
C1342 C1340 1.378 . S
C1342 C1343 1.367 . S
C1343 C1342 1.367 . S
C1343 C1345 1.433 . S
C1344 C1340 1.350 . S
C1344 C1341 1.463 . S
C1344 N1348 1.427 . S
C1345 H1335 0.929 . S
C1345 C1343 1.433 . S
C1345 N1348 1.384 . S
C1346 H1337 0.929 . S
C1346 C1338 1.378 . S
C1346 C1341 1.350 . S
C1347 H1334 0.929 . S
C1347 C1339 1.433 . S
C1347 N1349 1.384 . S
N1348 C1344 1.427 . S
N1348 C1345 1.384 . S
N1349 C1341 1.427 . S
N1349 C1347 1.384 . S
H1350 C1356 0.930 . S
H1351 C1360 0.930 . S
H1352 C1365 0.929 . S
H1353 C1363 0.929 . S
H1354 C1358 0.929 . S
H1355 C1364 0.929 . S
C1356 H1350 0.930 . S
C1356 C1357 1.367 . S
C1356 C1364 1.378 . S
C1357 C1356 1.367 . S
C1357 C1365 1.433 . S
C1358 H1354 0.929 . S
C1358 C1360 1.378 . S
C1358 C1362 1.350 . S
C1359 C1362 1.463 . S
C1359 C1364 1.350 . S
C1359 N1367 1.427 . S
C1360 H1351 0.930 . S
C1360 C1358 1.378 . S
C1360 C1361 1.367 . S
C1361 C1360 1.367 . S
C1361 C1363 1.433 . S
C1362 C1358 1.350 . S
C1362 C1359 1.463 . S
C1362 N1366 1.427 . S
C1363 H1353 0.929 . S
C1363 C1361 1.433 . S
C1363 N1366 1.384 . S
C1364 H1355 0.929 . S
C1364 C1356 1.378 . S
C1364 C1359 1.350 . S
C1365 H1352 0.929 . S
C1365 C1357 1.433 . S
C1365 N1367 1.384 . S
N1366 C1362 1.427 . S
N1366 C1363 1.384 . S
N1367 C1359 1.427 . S
N1367 C1365 1.384 . S
H1368 C1374 0.930 . S
H1369 C1378 0.930 . S
H1370 C1383 0.929 . S
H1371 C1381 0.929 . S
H1372 C1376 0.929 . S
H1373 C1382 0.929 . S
C1374 H1368 0.930 . S
C1374 C1375 1.367 . S
C1374 C1382 1.378 . S
C1375 C1374 1.367 . S
C1375 C1383 1.433 . S
C1376 H1372 0.929 . S
C1376 C1378 1.378 . S
C1376 C1380 1.350 . S
C1377 C1380 1.463 . S
C1377 C1382 1.350 . S
C1377 N1385 1.427 . S
C1378 H1369 0.930 . S
C1378 C1376 1.378 . S
C1378 C1379 1.367 . S
C1379 C1378 1.367 . S
C1379 C1381 1.433 . S
C1380 C1376 1.350 . S
C1380 C1377 1.463 . S
C1380 N1384 1.427 . S
C1381 H1371 0.929 . S
C1381 C1379 1.433 . S
C1381 N1384 1.384 . S
C1382 H1373 0.929 . S
C1382 C1374 1.378 . S
C1382 C1377 1.350 . S
C1383 H1370 0.929 . S
C1383 C1375 1.433 . S
C1383 N1385 1.384 . S
N1384 C1380 1.427 . S
N1384 C1381 1.384 . S
N1385 C1377 1.427 . S
N1385 C1383 1.384 . S
H1386 C1392 0.930 . S
H1387 C1396 0.930 . S
H1388 C1401 0.929 . S
H1389 C1399 0.929 . S
H1390 C1394 0.929 . S
H1391 C1400 0.929 . S
C1392 H1386 0.930 . S
C1392 C1393 1.367 . S
C1392 C1400 1.378 . S
C1393 C1392 1.367 . S
C1393 C1401 1.433 . S
C1394 H1390 0.929 . S
C1394 C1396 1.378 . S
C1394 C1398 1.350 . S
C1395 C1398 1.463 . S
C1395 C1400 1.350 . S
C1395 N1403 1.427 . S
C1396 H1387 0.930 . S
C1396 C1394 1.378 . S
C1396 C1397 1.367 . S
C1397 C1396 1.367 . S
C1397 C1399 1.433 . S
C1398 C1394 1.350 . S
C1398 C1395 1.463 . S
C1398 N1402 1.427 . S
C1399 H1389 0.929 . S
C1399 C1397 1.433 . S
C1399 N1402 1.384 . S
C1400 H1391 0.929 . S
C1400 C1392 1.378 . S
C1400 C1395 1.350 . S
C1401 H1388 0.929 . S
C1401 C1393 1.433 . S
C1401 N1403 1.384 . S
N1402 C1398 1.427 . S
N1402 C1399 1.384 . S
N1403 C1395 1.427 . S
N1403 C1401 1.384 . S
H1404 C1410 0.930 . S
H1405 C1414 0.930 . S
H1406 C1419 0.929 . S
H1407 C1417 0.929 . S
H1408 C1412 0.929 . S
H1409 C1418 0.929 . S
C1410 H1404 0.930 . S
C1410 C1411 1.367 . S
C1410 C1418 1.378 . S
C1411 C1410 1.367 . S
C1411 C1419 1.433 . S
C1412 H1408 0.929 . S
C1412 C1414 1.378 . S
C1412 C1416 1.350 . S
C1413 C1416 1.463 . S
C1413 C1418 1.350 . S
C1413 N1421 1.427 . S
C1414 H1405 0.930 . S
C1414 C1412 1.378 . S
C1414 C1415 1.367 . S
C1415 C1414 1.367 . S
C1415 C1417 1.433 . S
C1416 C1412 1.350 . S
C1416 C1413 1.463 . S
C1416 N1420 1.427 . S
C1417 H1407 0.929 . S
C1417 C1415 1.433 . S
C1417 N1420 1.384 . S
C1418 H1409 0.929 . S
C1418 C1410 1.378 . S
C1418 C1413 1.350 . S
C1419 H1406 0.929 . S
C1419 C1411 1.433 . S
C1419 N1421 1.384 . S
N1420 C1416 1.427 . S
N1420 C1417 1.384 . S
N1421 C1413 1.427 . S
N1421 C1419 1.384 . S
H1422 C1428 0.930 . S
H1423 C1432 0.930 . S
H1424 C1437 0.929 . S
H1425 C1435 0.929 . S
H1426 C1430 0.929 . S
H1427 C1436 0.929 . S
C1428 H1422 0.930 . S
C1428 C1429 1.367 . S
C1428 C1436 1.378 . S
C1429 C1428 1.367 . S
C1429 C1437 1.433 . S
C1430 H1426 0.929 . S
C1430 C1432 1.378 . S
C1430 C1434 1.350 . S
C1431 C1434 1.463 . S
C1431 C1436 1.350 . S
C1431 N1439 1.427 . S
C1432 H1423 0.930 . S
C1432 C1430 1.378 . S
C1432 C1433 1.367 . S
C1433 C1432 1.367 . S
C1433 C1435 1.433 . S
C1434 C1430 1.350 . S
C1434 C1431 1.463 . S
C1434 N1438 1.427 . S
C1435 H1425 0.929 . S
C1435 C1433 1.433 . S
C1435 N1438 1.384 . S
C1436 H1427 0.929 . S
C1436 C1428 1.378 . S
C1436 C1431 1.350 . S
C1437 H1424 0.929 . S
C1437 C1429 1.433 . S
C1437 N1439 1.384 . S
N1438 C1434 1.427 . S
N1438 C1435 1.384 . S
N1439 C1431 1.427 . S
N1439 C1437 1.384 . S
H1440 C1446 0.930 . S
H1441 C1450 0.930 . S
H1442 C1455 0.929 . S
H1443 C1453 0.929 . S
H1444 C1448 0.929 . S
H1445 C1454 0.929 . S
C1446 H1440 0.930 . S
C1446 C1447 1.367 . S
C1446 C1454 1.378 . S
C1447 C1446 1.367 . S
C1447 C1455 1.433 . S
C1448 H1444 0.929 . S
C1448 C1450 1.378 . S
C1448 C1452 1.350 . S
C1449 C1452 1.463 . S
C1449 C1454 1.350 . S
C1449 N1457 1.427 . S
C1450 H1441 0.930 . S
C1450 C1448 1.378 . S
C1450 C1451 1.367 . S
C1451 C1450 1.367 . S
C1451 C1453 1.433 . S
C1452 C1448 1.350 . S
C1452 C1449 1.463 . S
C1452 N1456 1.427 . S
C1453 H1443 0.929 . S
C1453 C1451 1.433 . S
C1453 N1456 1.384 . S
C1454 H1445 0.929 . S
C1454 C1446 1.378 . S
C1454 C1449 1.350 . S
C1455 H1442 0.929 . S
C1455 C1447 1.433 . S
C1455 N1457 1.384 . S
N1456 C1452 1.427 . S
N1456 C1453 1.384 . S
N1457 C1449 1.427 . S
N1457 C1455 1.384 . S
H1458 C1464 0.930 . S
H1459 C1468 0.930 . S
H1460 C1473 0.929 . S
H1461 C1471 0.929 . S
H1462 C1466 0.929 . S
H1463 C1472 0.929 . S
C1464 H1458 0.930 . S
C1464 C1465 1.367 . S
C1464 C1472 1.378 . S
C1465 C1464 1.367 . S
C1465 C1473 1.433 . S
C1466 H1462 0.929 . S
C1466 C1468 1.378 . S
C1466 C1470 1.350 . S
C1467 C1470 1.463 . S
C1467 C1472 1.350 . S
C1467 N1475 1.427 . S
C1468 H1459 0.930 . S
C1468 C1466 1.378 . S
C1468 C1469 1.367 . S
C1469 C1468 1.367 . S
C1469 C1471 1.433 . S
C1470 C1466 1.350 . S
C1470 C1467 1.463 . S
C1470 N1474 1.427 . S
C1471 H1461 0.929 . S
C1471 C1469 1.433 . S
C1471 N1474 1.384 . S
C1472 H1463 0.929 . S
C1472 C1464 1.378 . S
C1472 C1467 1.350 . S
C1473 H1460 0.929 . S
C1473 C1465 1.433 . S
C1473 N1475 1.384 . S
N1474 C1470 1.427 . S
N1474 C1471 1.384 . S
N1475 C1467 1.427 . S
N1475 C1473 1.384 . S
H1476 C1482 0.930 . S
H1477 C1486 0.930 . S
H1478 C1491 0.929 . S
H1479 C1489 0.929 . S
H1480 C1484 0.929 . S
H1481 C1490 0.929 . S
C1482 H1476 0.930 . S
C1482 C1483 1.367 . S
C1482 C1490 1.378 . S
C1483 C1482 1.367 . S
C1483 C1491 1.433 . S
C1484 H1480 0.929 . S
C1484 C1486 1.378 . S
C1484 C1488 1.350 . S
C1485 C1488 1.463 . S
C1485 C1490 1.350 . S
C1485 N1493 1.427 . S
C1486 H1477 0.930 . S
C1486 C1484 1.378 . S
C1486 C1487 1.367 . S
C1487 C1486 1.367 . S
C1487 C1489 1.433 . S
C1488 C1484 1.350 . S
C1488 C1485 1.463 . S
C1488 N1492 1.427 . S
C1489 H1479 0.929 . S
C1489 C1487 1.433 . S
C1489 N1492 1.384 . S
C1490 H1481 0.929 . S
C1490 C1482 1.378 . S
C1490 C1485 1.350 . S
C1491 H1478 0.929 . S
C1491 C1483 1.433 . S
C1491 N1493 1.384 . S
N1492 C1488 1.427 . S
N1492 C1489 1.384 . S
N1493 C1485 1.427 . S
N1493 C1491 1.384 . S
H1494 C1500 0.930 . S
H1495 C1504 0.930 . S
H1496 C1509 0.929 . S
H1497 C1507 0.929 . S
H1498 C1502 0.929 . S
H1499 C1508 0.929 . S
C1500 H1494 0.930 . S
C1500 C1501 1.367 1_565 S
C1500 C1508 1.378 . S
C1501 C1500 1.367 1_545 S
C1501 C1509 1.433 . S
C1502 H1498 0.929 . S
C1502 C1504 1.378 . S
C1502 C1506 1.350 1_545 S
C1503 C1506 1.463 1_545 S
C1503 C1508 1.350 1_545 S
C1503 N1511 1.427 . S
C1504 H1495 0.930 . S
C1504 C1502 1.378 . S
C1504 C1505 1.367 1_545 S
C1505 C1504 1.367 1_565 S
C1505 C1507 1.433 . S
C1506 C1502 1.350 1_565 S
C1506 C1503 1.463 1_565 S
C1506 N1510 1.427 . S
C1507 H1497 0.929 . S
C1507 C1505 1.433 . S
C1507 N1510 1.384 . S
C1508 H1499 0.929 . S
C1508 C1500 1.378 . S
C1508 C1503 1.350 1_565 S
C1509 H1496 0.929 . S
C1509 C1501 1.433 . S
C1509 N1511 1.384 . S
N1510 C1506 1.427 . S
N1510 C1507 1.384 . S
N1511 C1503 1.427 . S
N1511 C1509 1.384 . S
H1512 C1518 0.930 . S
H1513 C1522 0.930 . S
H1514 C1527 0.929 . S
H1515 C1525 0.929 . S
H1516 C1520 0.929 . S
H1517 C1526 0.929 . S
C1518 H1512 0.930 . S
C1518 C1519 1.367 . S
C1518 C1526 1.378 . S
C1519 C1518 1.367 . S
C1519 C1527 1.433 1_455 S
C1520 H1516 0.929 . S
C1520 C1522 1.378 . S
C1520 C1524 1.350 . S
C1521 C1524 1.463 1_455 S
C1521 C1526 1.350 . S
C1521 N1529 1.427 1_455 S
C1522 H1513 0.930 . S
C1522 C1520 1.378 . S
C1522 C1523 1.367 . S
C1523 C1522 1.367 . S
C1523 C1525 1.433 1_655 S
C1524 C1520 1.350 . S
C1524 C1521 1.463 1_655 S
C1524 N1528 1.427 1_655 S
C1525 H1515 0.929 . S
C1525 C1523 1.433 1_455 S
C1525 N1528 1.384 . S
C1526 H1517 0.929 . S
C1526 C1518 1.378 . S
C1526 C1521 1.350 . S
C1527 H1514 0.929 . S
C1527 C1519 1.433 1_655 S
C1527 N1529 1.384 . S
N1528 C1524 1.427 1_455 S
N1528 C1525 1.384 . S
N1529 C1521 1.427 1_655 S
N1529 C1527 1.384 . S
H1530 C1536 0.930 . S
H1531 C1540 0.930 . S
H1532 C1545 0.929 . S
H1533 C1543 0.929 . S
H1534 C1538 0.929 . S
H1535 C1544 0.929 . S
C1536 H1530 0.930 . S
C1536 C1537 1.367 . S
C1536 C1544 1.378 . S
C1537 C1536 1.367 . S
C1537 C1545 1.433 . S
C1538 H1534 0.929 . S
C1538 C1540 1.378 . S
C1538 C1542 1.350 . S
C1539 C1542 1.463 . S
C1539 C1544 1.350 . S
C1539 N1547 1.427 . S
C1540 H1531 0.930 . S
C1540 C1538 1.378 . S
C1540 C1541 1.367 . S
C1541 C1540 1.367 . S
C1541 C1543 1.433 . S
C1542 C1538 1.350 . S
C1542 C1539 1.463 . S
C1542 N1546 1.427 . S
C1543 H1533 0.929 . S
C1543 C1541 1.433 . S
C1543 N1546 1.384 . S
C1544 H1535 0.929 . S
C1544 C1536 1.378 . S
C1544 C1539 1.350 . S
C1545 H1532 0.929 . S
C1545 C1537 1.433 . S
C1545 N1547 1.384 . S
N1546 C1542 1.427 . S
N1546 C1543 1.384 . S
N1547 C1539 1.427 . S
N1547 C1545 1.384 . S
H1548 C1554 0.930 . S
H1549 C1558 0.930 . S
H1550 C1563 0.929 . S
H1551 C1561 0.929 . S
H1552 C1556 0.929 . S
H1553 C1562 0.929 . S
C1554 H1548 0.930 . S
C1554 C1555 1.367 . S
C1554 C1562 1.378 . S
C1555 C1554 1.367 . S
C1555 C1563 1.433 1_545 S
C1556 H1552 0.929 . S
C1556 C1558 1.378 . S
C1556 C1560 1.350 . S
C1557 C1560 1.463 1_545 S
C1557 C1562 1.350 . S
C1557 N1565 1.427 1_545 S
C1558 H1549 0.930 . S
C1558 C1556 1.378 . S
C1558 C1559 1.367 . S
C1559 C1558 1.367 . S
C1559 C1561 1.433 1_565 S
C1560 C1556 1.350 . S
C1560 C1557 1.463 1_565 S
C1560 N1564 1.427 1_565 S
C1561 H1551 0.929 . S
C1561 C1559 1.433 1_545 S
C1561 N1564 1.384 . S
C1562 H1553 0.929 . S
C1562 C1554 1.378 . S
C1562 C1557 1.350 . S
C1563 H1550 0.929 . S
C1563 C1555 1.433 1_565 S
C1563 N1565 1.384 . S
N1564 C1560 1.427 1_545 S
N1564 C1561 1.384 . S
N1565 C1557 1.427 1_565 S
N1565 C1563 1.384 . S
H1566 C1572 0.930 . S
H1567 C1576 0.930 . S
H1568 C1581 0.929 . S
H1569 C1579 0.929 . S
H1570 C1574 0.929 . S
H1571 C1580 0.929 . S
C1572 H1566 0.930 . S
C1572 C1573 1.367 1_455 S
C1572 C1580 1.378 . S
C1573 C1572 1.367 1_655 S
C1573 C1581 1.433 . S
C1574 H1570 0.929 . S
C1574 C1576 1.378 . S
C1574 C1578 1.350 1_655 S
C1575 C1578 1.463 1_655 S
C1575 C1580 1.350 1_655 S
C1575 N1583 1.427 . S
C1576 H1567 0.930 . S
C1576 C1574 1.378 . S
C1576 C1577 1.367 1_655 S
C1577 C1576 1.367 1_455 S
C1577 C1579 1.433 . S
C1578 C1574 1.350 1_455 S
C1578 C1575 1.463 1_455 S
C1578 N1582 1.427 . S
C1579 H1569 0.929 . S
C1579 C1577 1.433 . S
C1579 N1582 1.384 . S
C1580 H1571 0.929 . S
C1580 C1572 1.378 . S
C1580 C1575 1.350 1_455 S
C1581 H1568 0.929 . S
C1581 C1573 1.433 . S
C1581 N1583 1.384 . S
N1582 C1578 1.427 . S
N1582 C1579 1.384 . S
N1583 C1575 1.427 . S
N1583 C1581 1.384 . S
H1584 C1590 0.930 . S
H1585 C1594 0.930 . S
H1586 C1599 0.929 . S
H1587 C1597 0.929 . S
H1588 C1592 0.929 . S
H1589 C1598 0.929 . S
C1590 H1584 0.930 . S
C1590 C1591 1.367 . S
C1590 C1598 1.378 . S
C1591 C1590 1.367 . S
C1591 C1599 1.433 . S
C1592 H1588 0.929 . S
C1592 C1594 1.378 . S
C1592 C1596 1.350 . S
C1593 C1596 1.463 . S
C1593 C1598 1.350 . S
C1593 N1601 1.427 . S
C1594 H1585 0.930 . S
C1594 C1592 1.378 . S
C1594 C1595 1.367 . S
C1595 C1594 1.367 . S
C1595 C1597 1.433 . S
C1596 C1592 1.350 . S
C1596 C1593 1.463 . S
C1596 N1600 1.427 . S
C1597 H1587 0.929 . S
C1597 C1595 1.433 . S
C1597 N1600 1.384 . S
C1598 H1589 0.929 . S
C1598 C1590 1.378 . S
C1598 C1593 1.350 . S
C1599 H1586 0.929 . S
C1599 C1591 1.433 . S
C1599 N1601 1.384 . S
N1600 C1596 1.427 . S
N1600 C1597 1.384 . S
N1601 C1593 1.427 . S
N1601 C1599 1.384 . S
H1602 C1608 0.930 . S
H1603 C1612 0.930 . S
H1604 C1617 0.929 . S
H1605 C1615 0.929 . S
H1606 C1610 0.929 . S
H1607 C1616 0.929 . S
C1608 H1602 0.930 . S
C1608 C1609 1.367 . S
C1608 C1616 1.378 . S
C1609 C1608 1.367 . S
C1609 C1617 1.433 . S
C1610 H1606 0.929 . S
C1610 C1612 1.378 . S
C1610 C1614 1.350 . S
C1611 C1614 1.463 . S
C1611 C1616 1.350 . S
C1611 N1619 1.427 . S
C1612 H1603 0.930 . S
C1612 C1610 1.378 . S
C1612 C1613 1.367 . S
C1613 C1612 1.367 . S
C1613 C1615 1.433 . S
C1614 C1610 1.350 . S
C1614 C1611 1.463 . S
C1614 N1618 1.427 . S
C1615 H1605 0.929 . S
C1615 C1613 1.433 . S
C1615 N1618 1.384 . S
C1616 H1607 0.929 . S
C1616 C1608 1.378 . S
C1616 C1611 1.350 . S
C1617 H1604 0.929 . S
C1617 C1609 1.433 . S
C1617 N1619 1.384 . S
N1618 C1614 1.427 . S
N1618 C1615 1.384 . S
N1619 C1611 1.427 . S
N1619 C1617 1.384 . S
H1620 C1626 0.930 . S
H1621 C1630 0.930 . S
H1622 C1635 0.929 . S
H1623 C1633 0.929 . S
H1624 C1628 0.929 . S
H1625 C1634 0.929 . S
C1626 H1620 0.930 . S
C1626 C1627 1.367 . S
C1626 C1634 1.378 . S
C1627 C1626 1.367 . S
C1627 C1635 1.433 . S
C1628 H1624 0.929 . S
C1628 C1630 1.378 . S
C1628 C1632 1.350 . S
C1629 C1632 1.463 . S
C1629 C1634 1.350 . S
C1629 N1637 1.427 . S
C1630 H1621 0.930 . S
C1630 C1628 1.378 . S
C1630 C1631 1.367 . S
C1631 C1630 1.367 . S
C1631 C1633 1.433 . S
C1632 C1628 1.350 . S
C1632 C1629 1.463 . S
C1632 N1636 1.427 . S
C1633 H1623 0.929 . S
C1633 C1631 1.433 . S
C1633 N1636 1.384 . S
C1634 H1625 0.929 . S
C1634 C1626 1.378 . S
C1634 C1629 1.350 . S
C1635 H1622 0.929 . S
C1635 C1627 1.433 . S
C1635 N1637 1.384 . S
N1636 C1632 1.427 . S
N1636 C1633 1.384 . S
N1637 C1629 1.427 . S
N1637 C1635 1.384 . S
H1638 C1644 0.930 . S
H1639 C1648 0.930 1_556 S
H1640 C1653 0.929 . S
H1641 C1651 0.929 . S
H1642 C1646 0.929 . S
H1643 C1652 0.929 . S
C1644 H1638 0.930 . S
C1644 C1645 1.367 . S
C1644 C1652 1.378 . S
C1645 C1644 1.367 . S
C1645 C1653 1.433 . S
C1646 H1642 0.929 . S
C1646 C1648 1.378 . S
C1646 C1650 1.350 . S
C1647 C1650 1.463 . S
C1647 C1652 1.350 . S
C1647 N1655 1.427 . S
C1648 H1639 0.930 1_554 S
C1648 C1646 1.378 . S
C1648 C1649 1.367 1_554 S
C1649 C1648 1.367 1_556 S
C1649 C1651 1.433 1_556 S
C1650 C1646 1.350 . S
C1650 C1647 1.463 . S
C1650 N1654 1.427 . S
C1651 H1641 0.929 . S
C1651 C1649 1.433 1_554 S
C1651 N1654 1.384 . S
C1652 H1643 0.929 . S
C1652 C1644 1.378 . S
C1652 C1647 1.350 . S
C1653 H1640 0.929 . S
C1653 C1645 1.433 . S
C1653 N1655 1.384 . S
N1654 C1650 1.427 . S
N1654 C1651 1.384 . S
N1655 C1647 1.427 . S
N1655 C1653 1.384 . S
H1656 C1662 0.930 . S
H1657 C1666 0.930 1_556 S
H1658 C1671 0.929 . S
H1659 C1669 0.929 . S
H1660 C1664 0.929 . S
H1661 C1670 0.929 . S
C1662 H1656 0.930 . S
C1662 C1663 1.367 . S
C1662 C1670 1.378 . S
C1663 C1662 1.367 . S
C1663 C1671 1.433 . S
C1664 H1660 0.929 . S
C1664 C1666 1.378 . S
C1664 C1668 1.350 . S
C1665 C1668 1.463 . S
C1665 C1670 1.350 . S
C1665 N1673 1.427 . S
C1666 H1657 0.930 1_554 S
C1666 C1664 1.378 . S
C1666 C1667 1.367 1_554 S
C1667 C1666 1.367 1_556 S
C1667 C1669 1.433 1_556 S
C1668 C1664 1.350 . S
C1668 C1665 1.463 . S
C1668 N1672 1.427 . S
C1669 H1659 0.929 . S
C1669 C1667 1.433 1_554 S
C1669 N1672 1.384 . S
C1670 H1661 0.929 . S
C1670 C1662 1.378 . S
C1670 C1665 1.350 . S
C1671 H1658 0.929 . S
C1671 C1663 1.433 . S
C1671 N1673 1.384 . S
N1672 C1668 1.427 . S
N1672 C1669 1.384 . S
N1673 C1665 1.427 . S
N1673 C1671 1.384 . S
H1674 C1680 0.930 . S
H1675 C1684 0.930 . S
H1676 C1689 0.929 . S
H1677 C1687 0.929 1_556 S
H1678 C1682 0.929 . S
H1679 C1688 0.929 . S
C1680 H1674 0.930 . S
C1680 C1681 1.367 . S
C1680 C1688 1.378 . S
C1681 C1680 1.367 . S
C1681 C1689 1.433 . S
C1682 H1678 0.929 . S
C1682 C1684 1.378 . S
C1682 C1686 1.350 . S
C1683 C1686 1.463 . S
C1683 C1688 1.350 . S
C1683 N1691 1.427 . S
C1684 H1675 0.930 . S
C1684 C1682 1.378 . S
C1684 C1685 1.367 1_554 S
C1685 C1684 1.367 1_556 S
C1685 C1687 1.433 1_556 S
C1686 C1682 1.350 . S
C1686 C1683 1.463 . S
C1686 N1690 1.427 . S
C1687 H1677 0.929 1_554 S
C1687 C1685 1.433 1_554 S
C1687 N1690 1.384 . S
C1688 H1679 0.929 . S
C1688 C1680 1.378 . S
C1688 C1683 1.350 . S
C1689 H1676 0.929 . S
C1689 C1681 1.433 . S
C1689 N1691 1.384 . S
N1690 C1686 1.427 . S
N1690 C1687 1.384 . S
N1691 C1683 1.427 . S
N1691 C1689 1.384 . S
H1692 C1698 0.930 1_554 S
H1693 C1702 0.930 . S
H1694 C1707 0.929 1_554 S
H1695 C1705 0.929 . S
H1696 C1700 0.929 . S
H1697 C1706 0.929 . S
C1698 H1692 0.930 1_556 S
C1698 C1699 1.367 1_556 S
C1698 C1706 1.378 . S
C1699 C1698 1.367 1_554 S
C1699 C1707 1.433 1_554 S
C1700 H1696 0.929 . S
C1700 C1702 1.378 . S
C1700 C1704 1.350 . S
C1701 C1704 1.463 . S
C1701 C1706 1.350 . S
C1701 N1709 1.427 . S
C1702 H1693 0.930 . S
C1702 C1700 1.378 . S
C1702 C1703 1.367 . S
C1703 C1702 1.367 . S
C1703 C1705 1.433 . S
C1704 C1700 1.350 . S
C1704 C1701 1.463 . S
C1704 N1708 1.427 . S
C1705 H1695 0.929 . S
C1705 C1703 1.433 . S
C1705 N1708 1.384 . S
C1706 H1697 0.929 . S
C1706 C1698 1.378 . S
C1706 C1701 1.350 . S
C1707 H1694 0.929 1_556 S
C1707 C1699 1.433 1_556 S
C1707 N1709 1.384 . S
N1708 C1704 1.427 . S
N1708 C1705 1.384 . S
N1709 C1701 1.427 . S
N1709 C1707 1.384 . S
H1710 C1716 0.930 1_554 S
H1711 C1720 0.930 . S
H1712 C1725 0.929 . S
H1713 C1723 0.929 . S
H1714 C1718 0.929 . S
H1715 C1724 0.929 . S
C1716 H1710 0.930 1_556 S
C1716 C1717 1.367 1_556 S
C1716 C1724 1.378 . S
C1717 C1716 1.367 1_554 S
C1717 C1725 1.433 1_554 S
C1718 H1714 0.929 . S
C1718 C1720 1.378 . S
C1718 C1722 1.350 . S
C1719 C1722 1.463 . S
C1719 C1724 1.350 . S
C1719 N1727 1.427 . S
C1720 H1711 0.930 . S
C1720 C1718 1.378 . S
C1720 C1721 1.367 . S
C1721 C1720 1.367 . S
C1721 C1723 1.433 . S
C1722 C1718 1.350 . S
C1722 C1719 1.463 . S
C1722 N1726 1.427 . S
C1723 H1713 0.929 . S
C1723 C1721 1.433 . S
C1723 N1726 1.384 . S
C1724 H1715 0.929 . S
C1724 C1716 1.378 . S
C1724 C1719 1.350 . S
C1725 H1712 0.929 . S
C1725 C1717 1.433 1_556 S
C1725 N1727 1.384 . S
N1726 C1722 1.427 . S
N1726 C1723 1.384 . S
N1727 C1719 1.427 . S
N1727 C1725 1.384 . S
H1728 C1734 0.930 1_554 S
H1729 C1738 0.930 . S
H1730 C1743 0.929 1_554 S
H1731 C1741 0.929 . S
H1732 C1736 0.929 . S
H1733 C1742 0.929 . S
C1734 H1728 0.930 1_556 S
C1734 C1735 1.367 1_556 S
C1734 C1742 1.378 . S
C1735 C1734 1.367 1_554 S
C1735 C1743 1.433 1_554 S
C1736 H1732 0.929 . S
C1736 C1738 1.378 . S
C1736 C1740 1.350 . S
C1737 C1740 1.463 . S
C1737 C1742 1.350 . S
C1737 N1745 1.427 . S
C1738 H1729 0.930 . S
C1738 C1736 1.378 . S
C1738 C1739 1.367 . S
C1739 C1738 1.367 . S
C1739 C1741 1.433 . S
C1740 C1736 1.350 . S
C1740 C1737 1.463 . S
C1740 N1744 1.427 . S
C1741 H1731 0.929 . S
C1741 C1739 1.433 . S
C1741 N1744 1.384 . S
C1742 H1733 0.929 . S
C1742 C1734 1.378 . S
C1742 C1737 1.350 . S
C1743 H1730 0.929 1_556 S
C1743 C1735 1.433 1_556 S
C1743 N1745 1.384 . S
N1744 C1740 1.427 . S
N1744 C1741 1.384 . S
N1745 C1737 1.427 . S
N1745 C1743 1.384 . S
H1746 C1752 0.930 . S
H1747 C1756 0.930 . S
H1748 C1761 0.929 . S
H1749 C1759 0.929 . S
H1750 C1754 0.929 . S
H1751 C1760 0.929 . S
C1752 H1746 0.930 . S
C1752 C1753 1.367 . S
C1752 C1760 1.378 . S
C1753 C1752 1.367 . S
C1753 C1761 1.433 . S
C1754 H1750 0.929 . S
C1754 C1756 1.378 . S
C1754 C1758 1.350 . S
C1755 C1758 1.463 . S
C1755 C1760 1.350 . S
C1755 N1763 1.427 . S
C1756 H1747 0.930 . S
C1756 C1754 1.378 . S
C1756 C1757 1.367 . S
C1757 C1756 1.367 . S
C1757 C1759 1.433 . S
C1758 C1754 1.350 . S
C1758 C1755 1.463 . S
C1758 N1762 1.427 . S
C1759 H1749 0.929 . S
C1759 C1757 1.433 . S
C1759 N1762 1.384 . S
C1760 H1751 0.929 . S
C1760 C1752 1.378 . S
C1760 C1755 1.350 . S
C1761 H1748 0.929 . S
C1761 C1753 1.433 . S
C1761 N1763 1.384 . S
N1762 C1758 1.427 . S
N1762 C1759 1.384 . S
N1763 C1755 1.427 . S
N1763 C1761 1.384 . S
H1764 C1770 0.930 . S
H1765 C1774 0.930 . S
H1766 C1779 0.929 . S
H1767 C1777 0.929 . S
H1768 C1772 0.929 . S
H1769 C1778 0.929 . S
C1770 H1764 0.930 . S
C1770 C1771 1.367 . S
C1770 C1778 1.378 . S
C1771 C1770 1.367 . S
C1771 C1779 1.433 . S
C1772 H1768 0.929 . S
C1772 C1774 1.378 . S
C1772 C1776 1.350 . S
C1773 C1776 1.463 . S
C1773 C1778 1.350 . S
C1773 N1781 1.427 . S
C1774 H1765 0.930 . S
C1774 C1772 1.378 . S
C1774 C1775 1.367 . S
C1775 C1774 1.367 . S
C1775 C1777 1.433 . S
C1776 C1772 1.350 . S
C1776 C1773 1.463 . S
C1776 N1780 1.427 . S
C1777 H1767 0.929 . S
C1777 C1775 1.433 . S
C1777 N1780 1.384 . S
C1778 H1769 0.929 . S
C1778 C1770 1.378 . S
C1778 C1773 1.350 . S
C1779 H1766 0.929 . S
C1779 C1771 1.433 . S
C1779 N1781 1.384 . S
N1780 C1776 1.427 . S
N1780 C1777 1.384 . S
N1781 C1773 1.427 . S
N1781 C1779 1.384 . S
H1782 C1788 0.930 . S
H1783 C1792 0.930 . S
H1784 C1797 0.929 . S
H1785 C1795 0.929 . S
H1786 C1790 0.929 . S
H1787 C1796 0.929 . S
C1788 H1782 0.930 . S
C1788 C1789 1.367 . S
C1788 C1796 1.378 . S
C1789 C1788 1.367 . S
C1789 C1797 1.433 . S
C1790 H1786 0.929 . S
C1790 C1792 1.378 . S
C1790 C1794 1.350 . S
C1791 C1794 1.463 . S
C1791 C1796 1.350 . S
C1791 N1799 1.427 . S
C1792 H1783 0.930 . S
C1792 C1790 1.378 . S
C1792 C1793 1.367 . S
C1793 C1792 1.367 . S
C1793 C1795 1.433 . S
C1794 C1790 1.350 . S
C1794 C1791 1.463 . S
C1794 N1798 1.427 . S
C1795 H1785 0.929 . S
C1795 C1793 1.433 . S
C1795 N1798 1.384 . S
C1796 H1787 0.929 . S
C1796 C1788 1.378 . S
C1796 C1791 1.350 . S
C1797 H1784 0.929 . S
C1797 C1789 1.433 . S
C1797 N1799 1.384 . S
N1798 C1794 1.427 . S
N1798 C1795 1.384 . S
N1799 C1791 1.427 . S
N1799 C1797 1.384 . S
C511 C235 1.122 . S
C515 C11 1.127 . S
C529 C249 1.126 . S
C533 C25 1.122 . S
C547 C39 1.122 . S
C551 C221 1.127 . S
C565 C375 1.132 . S
C569 C53 1.128 . S
C583 C347 1.131 . S
C587 C67 1.130 . S
C601 C81 1.132 . S
C605 C361 1.126 . S
C619 C487 1.132 . S
C623 C95 1.129 . S
C637 C501 1.131 . S
C641 C109 1.122 . S
C655 C473 1.127 . S
C659 C123 1.122 . S
C673 C291 1.126 . S
C677 C137 1.122 . S
C691 C151 1.122 . S
C695 C263 1.128 . S
C709 C277 1.132 . S
C713 C165 1.125 . S
C727 C403 1.122 . S
C731 C179 1.130 . S
C745 C193 1.122 . S
C749 C417 1.130 . S
C763 C389 1.132 . S
C767 C207 1.125 . S
C781 C459 1.126 . S
C785 C305 1.122 . S
C799 C431 1.132 . S
C803 C319 1.125 . S
C817 C333 1.122 . S
C821 C445 1.129 . S
C835 C98 1.526 . S
C839 C9 1.538 . S
C853 C112 1.523 . S
C857 C23 1.538 . S
C871 C84 1.527 . S
C875 C37 1.537 . S
C889 C51 1.534 . S
C893 C154 1.527 . S
C907 C126 1.517 . S
C911 C65 1.533 . S
C925 C79 1.531 . S
C929 C140 1.523 . S
C943 C14 1.518 . S
C947 C93 1.535 . S
C961 C107 1.531 . S
C965 C28 1.522 . S
C979 C0 1.524 . S
C983 C121 1.532 . S
C997 C70 1.519 . S
C1001 C135 1.531 . S
C1015 C42 1.517 . S
C1019 C149 1.531 . S
C1033 C163 1.533 . S
C1037 C56 1.526 . S
C1051 C177 1.532 . S
C1055 C266 1.517 . S
C1069 C280 1.527 . S
C1073 C191 1.535 . S
C1087 C252 1.525 . S
C1091 C205 1.538 . S
C1105 C219 1.531 . S
C1109 C322 1.521 . S
C1123 C294 1.519 . S
C1127 C233 1.536 . S
C1141 C247 1.532 . S
C1145 C308 1.517 . S
C1159 C261 1.533 . S
C1163 C182 1.517 . S
C1177 C275 1.535 . S
C1181 C196 1.527 . S
C1195 C168 1.520 . S
C1199 C289 1.530 . S
C1213 C238 1.526 . S
C1217 C303 1.538 . S
C1231 C210 1.524 . S
C1235 C317 1.538 . S
C1249 C331 1.537 . S
C1253 C224 1.520 . S
C1267 C434 1.517 . S
C1271 C345 1.532 . S
C1285 C359 1.534 . S
C1289 C448 1.526 . S
C1303 C373 1.538 . S
C1307 C420 1.524 . S
C1321 C490 1.527 . S
C1325 C387 1.537 . S
C1339 C401 1.537 . S
C1343 C462 1.521 . S
C1357 C476 1.518 . S
C1361 C415 1.535 . S
C1375 C350 1.521 . S
C1379 C429 1.531 . S
C1393 C364 1.527 . S
C1397 C443 1.534 . S
C1411 C457 1.532 . S
C1415 C336 1.517 . S
C1429 C471 1.538 . S
C1433 C406 1.525 . S
C1447 C378 1.520 . S
C1451 C485 1.530 . S
C1465 C392 1.521 . S
C1469 C499 1.531 . S
C1483 C5 1.586 . S
C1487 C47 1.587 . S
C1501 C19 1.585 . S
C1505 C61 1.586 . S
C1519 C75 1.586 . S
C1523 C33 1.586 . S
C1537 C89 1.586 . S
C1541 C131 1.586 . S
C1555 C145 1.586 . S
C1559 C103 1.586 . S
C1573 C159 1.586 . S
C1577 C117 1.585 . S
C1591 C173 1.585 . S
C1595 C215 1.585 . S
C1609 C187 1.585 . S
C1613 C229 1.586 . S
C1627 C243 1.585 . S
C1631 C201 1.585 . S
C1645 C257 1.585 . S
C1649 C299 1.586 . S
C1663 C271 1.585 . S
C1667 C313 1.585 . S
C1681 C285 1.586 . S
C1685 C327 1.586 . S
C1699 C383 1.586 . S
C1703 C341 1.585 . S
C1717 C397 1.585 . S
C1721 C355 1.585 . S
C1735 C411 1.585 . S
C1739 C369 1.586 . S
C1753 C425 1.585 . S
C1757 C467 1.586 . S
C1771 C481 1.586 . S
C1775 C439 1.586 . S
C1789 C495 1.586 . S
C1793 C453 1.586 . S
