# Generated by pormake.
# Topology wku, (7)-cn, num edge types: 1
# Building blocks:
#     Node 0, Type 0, BuildingBlock: OLANEW_clean_sbu_3, # of connection points: 7
#     Node 1, Type 0, BuildingBlock: OLANEW_clean_sbu_3, # of connection points: 7
#     Node 2, Type 0, BuildingBlock: OLANEW_clean_sbu_3, # of connection points: 7
#     Node 3, Type 0, BuildingBlock: OLANEW_clean_sbu_3, # of connection points: 7
#     Node 4, Type 0, BuildingBlock: OLANEW_clean_sbu_3, # of connection points: 7
#     Node 5, Type 0, BuildingBlock: OLANEW_clean_sbu_3, # of connection points: 7
#     Node 6, Type 0, BuildingBlock: OLANEW_clean_sbu_3, # of connection points: 7
#     Node 7, Type 0, BuildingBlock: OLANEW_clean_sbu_3, # of connection points: 7
#     Node 8, Type 0, BuildingBlock: OLANEW_clean_sbu_3, # of connection points: 7
#     Node 9, Type 0, BuildingBlock: OLANEW_clean_sbu_3, # of connection points: 7
#     Node 10, Type 0, BuildingBlock: OLANEW_clean_sbu_3, # of connection points: 7
#     Node 11, Type 0, BuildingBlock: OLANEW_clean_sbu_3, # of connection points: 7
#     Edge 12, Type (0, 0), BuildingBlock: AJUNOK_clean_linker_0, # of connection points: 2
#     Edge 13, Type (0, 0), BuildingBlock: AJUNOK_clean_linker_0, # of connection points: 2
#     Edge 14, Type (0, 0), BuildingBlock: AJUNOK_clean_linker_0, # of connection points: 2
#     Edge 15, Type (0, 0), BuildingBlock: AJUNOK_clean_linker_0, # of connection points: 2
#     Edge 16, Type (0, 0), BuildingBlock: AJUNOK_clean_linker_0, # of connection points: 2
#     Edge 17, Type (0, 0), BuildingBlock: AJUNOK_clean_linker_0, # of connection points: 2
#     Edge 18, Type (0, 0), BuildingBlock: AJUNOK_clean_linker_0, # of connection points: 2
#     Edge 19, Type (0, 0), BuildingBlock: AJUNOK_clean_linker_0, # of connection points: 2
#     Edge 20, Type (0, 0), BuildingBlock: AJUNOK_clean_linker_0, # of connection points: 2
#     Edge 21, Type (0, 0), BuildingBlock: AJUNOK_clean_linker_0, # of connection points: 2
#     Edge 22, Type (0, 0), BuildingBlock: AJUNOK_clean_linker_0, # of connection points: 2
#     Edge 23, Type (0, 0), BuildingBlock: AJUNOK_clean_linker_0, # of connection points: 2
#     Edge 24, Type (0, 0), BuildingBlock: AJUNOK_clean_linker_0, # of connection points: 2
#     Edge 25, Type (0, 0), BuildingBlock: AJUNOK_clean_linker_0, # of connection points: 2
#     Edge 26, Type (0, 0), BuildingBlock: AJUNOK_clean_linker_0, # of connection points: 2
#     Edge 27, Type (0, 0), BuildingBlock: AJUNOK_clean_linker_0, # of connection points: 2
#     Edge 28, Type (0, 0), BuildingBlock: AJUNOK_clean_linker_0, # of connection points: 2
#     Edge 29, Type (0, 0), BuildingBlock: AJUNOK_clean_linker_0, # of connection points: 2
#     Edge 30, Type (0, 0), BuildingBlock: AJUNOK_clean_linker_0, # of connection points: 2
#     Edge 31, Type (0, 0), BuildingBlock: AJUNOK_clean_linker_0, # of connection points: 2
#     Edge 32, Type (0, 0), BuildingBlock: AJUNOK_clean_linker_0, # of connection points: 2
#     Edge 33, Type (0, 0), BuildingBlock: AJUNOK_clean_linker_0, # of connection points: 2
#     Edge 34, Type (0, 0), BuildingBlock: AJUNOK_clean_linker_0, # of connection points: 2
#     Edge 35, Type (0, 0), BuildingBlock: AJUNOK_clean_linker_0, # of connection points: 2
#     Edge 36, Type (0, 0), BuildingBlock: AJUNOK_clean_linker_0, # of connection points: 2
#     Edge 37, Type (0, 0), BuildingBlock: AJUNOK_clean_linker_0, # of connection points: 2
#     Edge 38, Type (0, 0), BuildingBlock: AJUNOK_clean_linker_0, # of connection points: 2
#     Edge 39, Type (0, 0), BuildingBlock: AJUNOK_clean_linker_0, # of connection points: 2
#     Edge 40, Type (0, 0), BuildingBlock: AJUNOK_clean_linker_0, # of connection points: 2
#     Edge 41, Type (0, 0), BuildingBlock: AJUNOK_clean_linker_0, # of connection points: 2
#     Edge 42, Type (0, 0), BuildingBlock: AJUNOK_clean_linker_0, # of connection points: 2
#     Edge 43, Type (0, 0), BuildingBlock: AJUNOK_clean_linker_0, # of connection points: 2
#     Edge 44, Type (0, 0), BuildingBlock: AJUNOK_clean_linker_0, # of connection points: 2
#     Edge 45, Type (0, 0), BuildingBlock: AJUNOK_clean_linker_0, # of connection points: 2
#     Edge 46, Type (0, 0), BuildingBlock: AJUNOK_clean_linker_0, # of connection points: 2
#     Edge 47, Type (0, 0), BuildingBlock: AJUNOK_clean_linker_0, # of connection points: 2
#     Edge 48, Type (0, 0), BuildingBlock: AJUNOK_clean_linker_0, # of connection points: 2
#     Edge 49, Type (0, 0), BuildingBlock: AJUNOK_clean_linker_0, # of connection points: 2
#     Edge 50, Type (0, 0), BuildingBlock: AJUNOK_clean_linker_0, # of connection points: 2
#     Edge 51, Type (0, 0), BuildingBlock: AJUNOK_clean_linker_0, # of connection points: 2
#     Edge 52, Type (0, 0), BuildingBlock: AJUNOK_clean_linker_0, # of connection points: 2
#     Edge 53, Type (0, 0), BuildingBlock: AJUNOK_clean_linker_0, # of connection points: 2
# Relax obj value: 0.106
# Max RMSD: 0.200
# Mean RMSD: 0.199
data_MOF--net-wku--node1-OLANEW_clean_sbu_3--edge1-AJUNOK_clean_linker_0
_symmetry_space_group_name_H-M    P1
_symmetry_Int_Tables_number       1
_symmetry_cell_setting            triclinic
loop_
_symmetry_equiv_pos_as_xyz
'x, y, z'
_cell_length_a     24.876556
_cell_length_b     24.876258
_cell_length_c     103.70298
_cell_angle_alpha  89.922423
_cell_angle_beta   89.959815
_cell_angle_gamma 119.79027
loop_
_atom_site_label
_atom_site_type_symbol
_atom_site_fract_x
_atom_site_fract_y
_atom_site_fract_z
_atom_type_partial_charge
C0 C 0.20176 0.37634 0.04109 0.0
C1 C 0.14877 0.34393 0.03348 0.0
C2 C 0.1466 0.29881 0.02482 0.0
C3 C 0.19652 0.28678 0.02396 0.0
C4 C 0.24784 0.32071 0.03192 0.0
N5 N 0.24634 0.36156 0.04005 0.0
C6 C 0.30826 0.32254 0.03202 0.0
C7 C 0.41398 0.37881 0.0413 0.0
C8 C 0.42528 0.339 0.04895 0.0
C9 C 0.48602 0.35161 0.05095 0.0
C10 C 0.53551 0.40374 0.04528 0.0
C11 C 0.52434 0.44309 0.03752 0.0
C12 C 0.4637 0.43066 0.03552 0.0
Cd13 Cd 0.34486 0.27619 1.0026 0.0
Cd14 Cd 0.22683 0.24936 0.98625 0.0
C15 C 0.27356 0.45495 0.0719 0.0
C16 C 0.31332 0.53144 0.08903 0.0
C17 C 0.29276 0.48341 0.09809 0.0
C18 C 0.24964 0.42298 0.09448 0.0
C19 C 0.24157 0.4087 0.08127 0.0
C20 C 0.30744 0.51696 0.07581 0.0
Co21 Co 0.31551 0.40769 0.0498 0.0
N22 N 0.29405 0.34473 0.06331 0.0
N23 N 0.38552 0.45582 0.05931 0.0
C24 C 0.39077 0.43193 0.0704 0.0
C25 C 0.44029 0.46918 0.07855 0.0
C26 C 0.48191 0.53058 0.07456 0.0
C27 C 0.47296 0.55365 0.06276 0.0
C28 C 0.4222 0.51376 0.05517 0.0
N29 N 0.34804 0.47853 0.03806 0.0
N30 N 0.35231 0.36805 0.03977 0.0
N31 N 0.26747 0.43918 0.05842 0.0
O32 O 0.2776 0.23944 0.96764 0.0
O33 O 0.34393 0.23215 0.98066 0.0
C34 C 0.47899 0.34711 1.00468 0.0
O35 O 0.44841 0.36239 0.99721 0.0
O36 O 0.44737 0.29808 0.0113 0.0
C37 C 0.21412 0.12944 1.00403 0.0
O38 O 0.27277 0.16151 1.00567 0.0
O39 O 0.18501 0.15362 0.9987 0.0
C40 C 0.33932 0.36884 0.07267 0.0
O41 O 0.33374 0.34063 0.08373 0.0
O42 O 0.30155 0.34535 1.00074 0.0
O43 O 0.22439 0.34421 0.99063 0.0
C44 C 0.40092 0.52686 0.04295 0.0
O45 O 0.43183 0.58009 0.03686 0.0
C46 C 0.32186 0.48032 0.02589 0.0
C47 C 0.32307 0.4437 0.01598 0.0
C48 C 0.28166 0.4269 1.00563 0.0
C49 C 0.24608 0.45646 1.00422 0.0
C50 C 0.25144 0.50098 0.01335 0.0
C51 C 0.2881 0.5112 0.02441 0.0
C52 C 0.31974 0.22569 0.96951 0.0
O53 O 0.31775 0.27999 0.02577 0.0
C54 C 0.27064 0.37201 0.998 0.0
C55 C 0.24152 0.28242 0.06415 0.0
C56 C 0.18069 0.27011 0.06191 0.0
C57 C 0.12989 0.21179 0.06419 0.0
C58 C 0.13838 0.1651 0.06937 0.0
C59 C 0.19806 0.17723 0.0726 0.0
C60 C 0.2495 0.23418 0.06915 0.0
C61 C 0.21339 0.42047 0.05175 0.0
O62 O 0.16968 0.4307 0.05614 0.0
H63 H 0.11023 0.35238 0.03427 0.0
H64 H 0.10635 0.27335 0.01876 0.0
H65 H 0.19549 0.25344 0.01713 0.0
H66 H 0.3873 0.29889 0.05349 0.0
H67 H 0.58248 0.41356 0.04686 0.0
H68 H 0.45564 0.46154 0.02951 0.0
H69 H 0.30002 0.4953 0.10824 0.0
H70 H 0.20931 0.36212 0.07835 0.0
H71 H 0.32475 0.55332 0.06859 0.0
H72 H 0.44625 0.45195 0.08771 0.0
H73 H 0.5205 0.56049 0.08068 0.0
H74 H 0.50403 0.60097 0.0598 0.0
H75 H 0.35239 0.42338 0.0171 0.0
H76 H 0.21419 0.44464 0.99622 0.0
H77 H 0.28826 0.54086 0.03207 0.0
H78 H 0.17051 0.30572 0.05958 0.0
H79 H 0.09793 0.12126 0.07177 0.0
H80 H 0.29558 0.24218 0.07121 0.0
C81 C 0.81497 0.20654 0.20991 0.0
C82 C 0.79304 0.15284 0.20247 0.0
C83 C 0.83522 0.14804 0.19401 0.0
C84 C 0.89757 0.19639 0.19308 0.0
C85 C 0.91628 0.24862 0.20085 0.0
N86 N 0.87479 0.24933 0.20895 0.0
C87 C 0.97518 0.30834 0.2005 0.0
C88 C 0.02663 0.41542 0.20909 0.0
C89 C 0.07484 0.42839 0.21773 0.0
C90 C 0.12296 0.4893 0.21931 0.0
C91 C 0.12314 0.53729 0.21225 0.0
C92 C 0.0755 0.52439 0.20352 0.0
C93 C 0.02738 0.46356 0.20191 0.0
Cd94 Cd 0.05549 0.33931 0.17034 0.0
Cd95 Cd 0.96068 0.21565 0.15396 0.0
C96 C 0.80426 0.28991 0.23883 0.0
C97 C 0.76564 0.34193 0.25271 0.0
C98 C 0.77107 0.31027 0.26339 0.0
C99 C 0.78524 0.26264 0.26173 0.0
C100 C 0.80269 0.2534 0.24937 0.0
C101 C 0.78597 0.33415 0.24058 0.0
Co102 Co 0.89825 0.32145 0.21778 0.0
N103 N 0.93615 0.30159 0.2323 0.0
N104 N 0.92107 0.39445 0.22629 0.0
C105 C 0.9484 0.40166 0.23767 0.0
C106 C 0.96264 0.45457 0.2449 0.0
C107 C 0.94681 0.49749 0.2397 0.0
C108 C 0.91675 0.48656 0.22762 0.0
C109 C 0.9038 0.43249 0.221 0.0
N110 N 0.8631 0.35288 0.205 0.0
N111 N 0.97533 0.35391 0.20806 0.0
N112 N 0.81791 0.27749 0.22606 0.0
O113 O 0.02179 0.26834 0.13558 0.0
O114 O 0.09627 0.33743 0.148 0.0
C115 C 0.12013 0.47366 0.17215 0.0
O116 O 0.07299 0.44344 0.16504 0.0
O117 O 0.13792 0.44157 0.17852 0.0
C118 C 0.07117 0.2077 0.17188 0.0
O119 O 0.09737 0.26643 0.1734 0.0
O120 O 0.01791 0.17817 0.16665 0.0
C121 C 0.95677 0.34903 0.24115 0.0
O122 O 0.97672 0.34511 0.25267 0.0
O123 O 0.9434 0.29463 0.16814 0.0
O124 O 0.86567 0.21742 0.1586 0.0
C125 C 0.87053 0.40874 0.20877 0.0
O126 O 0.85036 0.43935 0.20183 0.0
C127 C 0.83336 0.32277 0.19326 0.0
C128 C 0.86971 0.32134 0.18331 0.0
C129 C 0.84352 0.27856 0.17326 0.0
C130 C 0.77838 0.24415 0.17214 0.0
C131 C 0.74073 0.25079 0.18148 0.0
C132 C 0.7687 0.28884 0.19227 0.0
C133 C 0.07711 0.31196 0.13699 0.0
O134 O 0.02581 0.31606 0.19388 0.0
C135 C 0.88572 0.26484 0.16568 0.0
C136 C 0.94103 0.24679 0.2347 0.0
C137 C 0.88946 0.18706 0.23359 0.0
C138 C 0.89179 0.13505 0.23774 0.0
C139 C 0.94484 0.14173 0.24362 0.0
C140 C -0.0042 0.20096 0.24555 0.0
C141 C -0.0048 0.2528 0.24037 0.0
C142 C 0.78217 0.2223 0.21983 0.0
O143 O 0.72632 0.18185 0.22388 0.0
H144 H 0.74535 0.11604 0.20313 0.0
H145 H 0.81939 0.10728 0.18805 0.0
H146 H 0.92913 0.19369 0.18627 0.0
H147 H 0.07469 0.39163 0.22335 0.0
H148 H 0.16026 0.58441 0.2135 0.0
H149 H 0.99058 0.45417 0.19517 0.0
H150 H 0.75667 0.31747 0.27278 0.0
H151 H 0.81223 0.21606 0.24784 0.0
H152 H 0.78069 0.35723 0.2322 0.0
H153 H 0.98457 0.46229 0.25425 0.0
H154 H 0.9571 0.53872 0.24509 0.0
H155 H 0.90355 0.51872 0.22373 0.0
H156 H 0.91942 0.34981 0.18419 0.0
H157 H 0.75712 0.21124 0.16435 0.0
H158 H 0.74043 0.29084 0.2 0.0
H159 H 0.84535 0.17943 0.23063 0.0
H160 H 0.94478 0.10093 0.2473 0.0
H161 H 0.03499 0.29843 0.24177 0.0
C162 C 0.61428 0.83022 0.37691 0.0
C163 C 0.64968 0.81041 0.37004 0.0
C164 C 0.69753 0.85383 0.36194 0.0
C165 C 0.70939 0.91557 0.36093 0.0
C166 C 0.67307 0.93245 0.36831 0.0
N167 N 0.62971 0.88968 0.37599 0.0
C168 C 0.67133 0.991 0.36813 0.0
C169 C 0.61487 0.0417 0.37679 0.0
C170 C 0.6538 0.09145 0.38475 0.0
C171 C 0.64289 0.14098 0.38641 0.0
C172 C 0.59321 0.141 0.38013 0.0
C173 C 0.55457 0.09165 0.37212 0.0
C174 C 0.56547 0.04218 0.3704 0.0
Cd175 Cd 0.71415 0.06855 0.33819 0.0
Cd176 Cd 0.75225 0.97536 0.31852 0.0
C177 C 0.51629 0.81572 0.40537 0.0
C178 C 0.42496 0.77279 0.41921 0.0
C179 C 0.46172 0.7749 0.4297 0.0
C180 C 0.52531 0.79672 0.4282 0.0
C181 C 0.55206 0.81683 0.41596 0.0
C182 C 0.45319 0.79493 0.4071 0.0
Co183 Co 0.57973 0.91187 0.38472 0.0
N184 N 0.63593 0.94865 0.39949 0.0
N185 N 0.5283 0.93333 0.39319 0.0
C186 C 0.54709 0.95963 0.40469 0.0
C187 C 0.50708 0.97216 0.41193 0.0
C188 C 0.44851 0.95571 0.40662 0.0
C189 C 0.43085 0.92671 0.39442 0.0
C190 C 0.47323 0.91544 0.38778 0.0
N191 N 0.51494 0.8778 0.37162 0.0
N192 N 0.62456 0.98997 0.37542 0.0
N193 N 0.5431 0.83064 0.39266 0.0
O194 O 0.75283 0.04447 0.30203 0.0
O195 O 0.73809 0.10555 0.31538 0.0
C196 C 0.63832 0.12519 0.3409 0.0
O197 O 0.61947 0.07315 0.33549 0.0
O198 O 0.69283 0.15102 0.34555 0.0
C199 C 0.86453 0.0915 0.33731 0.0
O200 O 0.82905 0.11396 0.33958 0.0
O201 O 0.84401 0.03931 0.3317 0.0
C202 C 0.60813 0.96851 0.4083 0.0
O203 O 0.63132 0.98843 0.41984 0.0
O204 O 0.65778 0.95845 0.33468 0.0
O205 O 0.65556 0.88084 0.32482 0.0
C206 C 0.4654 0.88346 0.37541 0.0
O207 O 0.41512 0.86307 0.36836 0.0
C208 C 0.5169 0.84885 0.35982 0.0
C209 C 0.55743 0.88538 0.3502 0.0
C210 C 0.5745 0.85896 0.34022 0.0
C211 C 0.54295 0.7939 0.33893 0.0
C212 C 0.49609 0.75641 0.34783 0.0
C213 C 0.4845 0.78426 0.35847 0.0
C214 C 0.74901 0.09279 0.3041 0.0
O215 O 0.71349 0.04192 0.36158 0.0
C216 C 0.62991 0.90076 0.33247 0.0
C217 C 0.69608 0.95456 0.40186 0.0
C218 C 0.70558 0.90367 0.40055 0.0
C219 C 0.76096 0.9072 0.40424 0.0
C220 C 0.80724 0.96078 0.40988 0.0
C221 C 0.79777 0.01101 0.41214 0.0
C222 C 0.74378 0.00908 0.40748 0.0
C223 C 0.5646 0.79612 0.38653 0.0
O224 O 0.55016 0.74034 0.39052 0.0
H225 H 0.64143 0.76362 0.37099 0.0
H226 H 0.72515 0.83954 0.3564 0.0
H227 H 0.74473 0.94826 0.35446 0.0
H228 H 0.69206 0.09158 0.38974 0.0
H229 H 0.58481 0.17933 0.38142 0.0
H230 H 0.53555 0.00451 0.36409 0.0
H231 H 0.43967 0.75355 0.43876 0.0
H232 H 0.60045 0.8318 0.41461 0.0
H233 H 0.42533 0.7916 0.3988 0.0
H234 H 0.5201 0.99314 0.42138 0.0
H235 H 0.41655 0.96465 0.41202 0.0
H236 H 0.38563 0.91301 0.39045 0.0
H237 H 0.57934 0.93513 0.35117 0.0
H238 H 0.5552 0.77249 0.33125 0.0
H239 H 0.45233 0.7558 0.36593 0.0
H240 H 0.66948 0.85917 0.39777 0.0
H241 H 0.84908 0.96171 0.41312 0.0
H242 H 0.73694 0.04828 0.4091 0.0
C243 C 0.78218 0.61269 0.54213 0.0
C244 C 0.83614 0.64455 0.53474 0.0
C245 C 0.84176 0.69284 0.52657 0.0
C246 C 0.79412 0.70828 0.52594 0.0
C247 C 0.74174 0.67475 0.53369 0.0
N248 N 0.74011 0.63098 0.54142 0.0
C249 C 0.68288 0.67599 0.53381 0.0
C250 C 0.57691 0.62421 0.54295 0.0
C251 C 0.57029 0.66796 0.55026 0.0
C252 C 0.51162 0.66132 0.55211 0.0
C253 C 0.45947 0.61113 0.54667 0.0
C254 C 0.46596 0.56759 0.53935 0.0
C255 C 0.52454 0.57418 0.53745 0.0
Cd256 Cd 0.64656 0.71896 0.50443 0.0
Cd257 Cd 0.77261 0.75107 0.48421 0.0
C258 C 0.70005 0.51983 0.57117 0.0
C259 C 0.65898 0.42967 0.5852 0.0
C260 C 0.69126 0.46806 0.59565 0.0
C261 C 0.73009 0.53196 0.59391 0.0
C262 C 0.73301 0.5575 0.58166 0.0
C263 C 0.66231 0.45617 0.57304 0.0
Co264 Co 0.66841 0.58378 0.55046 0.0
N265 N 0.69067 0.64147 0.56499 0.0
N266 N 0.59603 0.53498 0.55924 0.0
C267 C 0.59029 0.5555 0.57071 0.0
C268 C 0.53843 0.51722 0.57825 0.0
C269 C 0.49512 0.45841 0.57328 0.0
C270 C 0.5047 0.43879 0.56111 0.0
C271 C 0.55779 0.47949 0.55417 0.0
N272 N 0.63505 0.51792 0.53758 0.0
N273 N 0.63674 0.63033 0.54119 0.0
N274 N 0.71123 0.54516 0.55834 0.0
O275 O 0.70185 0.7485 0.46795 0.0
O276 O 0.63424 0.74731 0.48198 0.0
C277 C 0.51437 0.64656 0.50793 0.0
O278 O 0.5463 0.6231 0.50386 0.0
O279 O 0.5441 0.70388 0.51075 0.0
C280 C 0.7751 0.86795 0.50301 0.0
O281 O 0.71812 0.83312 0.50602 0.0
O282 O 0.80447 0.84638 0.49676 0.0
C283 C 0.64365 0.61611 0.57398 0.0
O284 O 0.64859 0.64083 0.58542 0.0
O285 O 0.698 0.65995 0.50052 0.0
O286 O 0.77117 0.65455 0.49039 0.0
C287 C 0.58008 0.46956 0.54173 0.0
O288 O 0.54874 0.41876 0.53492 0.0
C289 C 0.6645 0.51804 0.52569 0.0
C290 C 0.66884 0.55862 0.51603 0.0
C291 C 0.71219 0.57496 0.50604 0.0
C292 C 0.74558 0.54301 0.50487 0.0
C293 C 0.73619 0.49624 0.51383 0.0
C294 C 0.69621 0.48488 0.52439 0.0
C295 C 0.65444 0.75341 0.47045 0.0
O296 O 0.67578 0.71987 0.5275 0.0
C297 C 0.72617 0.6303 0.49819 0.0
C298 C 0.74622 0.70067 0.567 0.0
C299 C 0.80554 0.70773 0.56543 0.0
C300 C 0.85863 0.76253 0.56875 0.0
C301 C 0.85368 0.81072 0.57424 0.0
C302 C 0.79511 0.80359 0.57673 0.0
C303 C 0.74184 0.75017 0.57244 0.0
C304 C 0.76595 0.56356 0.55193 0.0
O305 O 0.80612 0.54731 0.55584 0.0
H306 H 0.87263 0.63295 0.53527 0.0
H307 H 0.88272 0.71785 0.52065 0.0
H308 H 0.79755 0.74381 0.5194 0.0
H309 H 0.61034 0.70679 0.55457 0.0
H310 H 0.41411 0.60603 0.54811 0.0
H311 H 0.529 0.54065 0.5316 0.0
H312 H 0.69225 0.44711 0.60476 0.0
H313 H 0.76288 0.6064 0.58021 0.0
H314 H 0.64037 0.42673 0.56476 0.0
H315 H 0.5319 0.53166 0.58769 0.0
H316 H 0.4547 0.42776 0.57892 0.0
H317 H 0.47227 0.39337 0.5574 0.0
H318 H 0.64168 0.58144 0.51701 0.0
H319 H 0.779 0.55474 0.49715 0.0
H320 H 0.69225 0.45282 0.53191 0.0
H321 H 0.81221 0.67019 0.56276 0.0
H322 H 0.89552 0.85172 0.57732 0.0
H323 H 0.69677 0.74577 0.57403 0.0
C324 C 0.16611 0.77839 0.70846 0.0
C325 C 0.18723 0.83237 0.70111 0.0
C326 C 0.14453 0.83678 0.69275 0.0
C327 C 0.08239 0.78792 0.69188 0.0
C328 C 0.06458 0.73544 0.69956 0.0
N329 N 0.1067 0.7348 0.70744 0.0
C330 C 0.00558 0.67588 0.69955 0.0
C331 C 0.95413 0.56933 0.7085 0.0
C332 C 0.90391 0.55921 0.7163 0.0
C333 C 0.85465 0.49908 0.71817 0.0
C334 C 0.8553 0.449 0.71224 0.0
C335 C 0.90494 0.45902 0.70433 0.0
C336 C 0.95421 0.51906 0.70243 0.0
Cd337 Cd 0.92605 0.64264 0.67002 0.0
Cd338 Cd 0.0194 0.76777 0.65192 0.0
C339 C 0.17722 0.6973 0.73768 0.0
C340 C 0.22593 0.65623 0.75187 0.0
C341 C 0.21958 0.68895 0.76223 0.0
C342 C 0.19466 0.72807 0.76037 0.0
C343 C 0.17227 0.73079 0.74808 0.0
C344 C 0.20308 0.65937 0.73967 0.0
Co345 Co 0.08323 0.66362 0.71664 0.0
N346 N 0.04559 0.68523 0.73082 0.0
N347 N 0.06061 0.59184 0.72564 0.0
C348 C 0.0334 0.58615 0.737 0.0
C349 C 0.02021 0.53472 0.74469 0.0
C350 C 0.03716 0.49183 0.73996 0.0
C351 C 0.06731 0.50137 0.7279 0.0
C352 C 0.07915 0.55398 0.7208 0.0
N353 N 0.11816 0.63093 0.70415 0.0
N354 N 0.00599 0.63033 0.70705 0.0
N355 N 0.16353 0.70824 0.72481 0.0
O356 O 0.95424 0.70446 0.63465 0.0
O357 O 0.8843 0.63414 0.64769 0.0
C358 C 0.8645 0.51018 0.67296 0.0
O359 O 0.91368 0.54023 0.66637 0.0
O360 O 0.84372 0.54193 0.67842 0.0
C361 C 0.90642 0.77215 0.67005 0.0
O362 O 0.88314 0.71414 0.67216 0.0
O363 O 0.95897 0.80292 0.66452 0.0
C364 C 0.02434 0.63893 0.73995 0.0
O365 O 0.00189 0.64353 0.75112 0.0
O366 O 0.03711 0.6892 0.66727 0.0
O367 O 0.11426 0.76529 0.65738 0.0
C368 C 0.11218 0.57629 0.70844 0.0
O369 O 0.13303 0.54535 0.70184 0.0
C370 C 0.14742 0.66005 0.69226 0.0
C371 C 0.11088 0.66198 0.68239 0.0
C372 C 0.13694 0.705 0.67232 0.0
C373 C 0.20205 0.73916 0.67109 0.0
C374 C 0.23982 0.7322 0.68035 0.0
C375 C 0.21203 0.69394 0.69115 0.0
C376 C 0.90116 0.6573 0.63643 0.0
O377 O 0.95442 0.66817 0.69325 0.0
C378 C 0.09463 0.7187 0.66473 0.0
C379 C 0.03758 0.73865 0.73208 0.0
C380 C 0.08774 0.79909 0.73069 0.0
C381 C 0.08066 0.85047 0.73283 0.0
C382 C 0.02409 0.84254 0.737 0.0
C383 C 0.97472 0.78283 0.73944 0.0
C384 C 0.98066 0.73114 0.7364 0.0
C385 C 0.19891 0.76346 0.71851 0.0
O386 O 0.25422 0.80471 0.72264 0.0
H387 H 0.2346 0.86981 0.70181 0.0
H388 H 0.15969 0.87783 0.68688 0.0
H389 H 0.05024 0.7906 0.68524 0.0
H390 H 0.90327 0.59762 0.72103 0.0
H391 H 0.81722 0.4025 0.7137 0.0
H392 H 0.99229 0.52625 0.69625 0.0
H393 H 0.2413 0.69011 0.77137 0.0
H394 H 0.15334 0.76094 0.74648 0.0
H395 H 0.21084 0.63716 0.73146 0.0
H396 H -0.0016 0.52818 0.75403 0.0
H397 H 0.02774 0.45175 0.74571 0.0
H398 H 0.08141 0.46929 0.72439 0.0
H399 H 0.06116 0.63368 0.68336 0.0
H400 H 0.22322 0.77222 0.6633 0.0
H401 H 0.24044 0.69193 0.69884 0.0
H402 H 0.13366 0.80786 0.72889 0.0
H403 H 0.02061 0.88316 0.73929 0.0
H404 H 0.94197 0.68511 0.73813 0.0
C405 C 0.38416 0.17113 0.87416 0.0
C406 C 0.35351 0.19329 0.86635 0.0
C407 C 0.30765 0.15115 0.85776 0.0
C408 C 0.29338 0.08852 0.8571 0.0
C409 C 0.32575 0.0696 0.86523 0.0
N410 N 0.36712 0.11118 0.87335 0.0
C411 C 0.32567 0.01005 0.86544 0.0
C412 C 0.37798 0.95703 0.8751 0.0
C413 C 0.33478 0.90642 0.8824 0.0
C414 C 0.34376 0.85598 0.8846 0.0
C415 C 0.3957 0.85584 0.87949 0.0
C416 C 0.43851 0.90593 0.8721 0.0
C417 C 0.42965 0.95639 0.86988 0.0
Cd418 Cd 0.28314 0.92666 0.83625 0.0
Cd419 Cd 0.25082 0.01883 0.81823 0.0
C420 C 0.46523 0.17754 0.90466 0.0
C421 C 0.54353 0.21363 0.92145 0.0
C422 C 0.49639 0.18723 0.93073 0.0
C423 C 0.43528 0.16873 0.92736 0.0
C424 C 0.42008 0.16405 0.91423 0.0
C425 C 0.52769 0.20484 0.90829 0.0
Co426 Co 0.41278 0.08666 0.88297 0.0
N427 N 0.35102 0.04793 0.89681 0.0
N428 N 0.46049 0.06335 0.89234 0.0
C429 C 0.43737 0.03561 0.90358 0.0
C430 C 0.47471 0.02271 0.91163 0.0
C431 C 0.53536 0.04039 0.90739 0.0
C432 C 0.55766 0.07104 0.89543 0.0
C433 C 0.51776 0.08268 0.88795 0.0
N434 N 0.4821 0.12178 0.87088 0.0
N435 N 0.37034 0.00982 0.87324 0.0
N436 N 0.44761 0.16706 0.89128 0.0
O437 O 0.24892 0.9542 0.80083 0.0
O438 O 0.25038 0.8847 0.8139 0.0
C439 C 0.35609 0.86728 0.84007 0.0
O440 O 0.37449 0.91571 0.83325 0.0
O441 O 0.30311 0.84598 0.84532 0.0
C442 C 0.13385 0.90515 0.83615 0.0
O443 O 0.16873 0.88182 0.83817 0.0
O444 O 0.15545 0.95821 0.83082 0.0
C445 C 0.37515 0.02627 0.90611 0.0
O446 O 0.34808 0.00548 0.91735 0.0
O447 O 0.34754 0.0373 0.83344 0.0
O448 O 0.34776 0.11387 0.8234 0.0
C449 C 0.53022 0.11603 0.8756 0.0
O450 O 0.58273 0.13663 0.86931 0.0
C451 C 0.48344 0.14973 0.85872 0.0
C452 C 0.44645 0.11223 0.84881 0.0
C453 C 0.43039 0.13737 0.83839 0.0
C454 C 0.46114 0.20228 0.83686 0.0
C455 C 0.50472 0.24083 0.84614 0.0
C456 C 0.51405 0.21418 0.85728 0.0
C457 C 0.24355 0.90125 0.80264 0.0
O458 O 0.28271 0.95895 0.8591 0.0
C459 C 0.37508 0.09463 0.83077 0.0
C460 C 0.28954 0.04054 0.89793 0.0
C461 C 0.27884 0.09014 0.8956 0.0
C462 C 0.22184 0.0854 0.89827 0.0
C463 C 0.17496 0.03198 0.90389 0.0
C464 C 0.18541 0.98322 0.90711 0.0
C465 C 0.24093 0.98594 0.90334 0.0
C466 C 0.42973 0.20322 0.8846 0.0
O467 O 0.4425 0.25821 0.88876 0.0
H468 H 0.36413 0.24101 0.86689 0.0
H469 H 0.28354 0.16714 0.85154 0.0
H470 H 0.25971 0.05685 0.85027 0.0
H471 H 0.29472 0.90636 0.88649 0.0
H472 H 0.40263 0.81682 0.8812 0.0
H473 H 0.46293 0.99473 0.86408 0.0
H474 H 0.50932 0.19287 0.94082 0.0
H475 H 0.37341 0.15094 0.91154 0.0
H476 H 0.56338 0.22303 0.90093 0.0
H477 H 0.45815 0.00067 0.92092 0.0
H478 H 0.56532 0.03119 0.91343 0.0
H479 H 0.60444 0.0857 0.89228 0.0
H480 H 0.42533 0.06263 0.84999 0.0
H481 H 0.44999 0.22274 0.8288 0.0
H482 H 0.54347 0.24338 0.86498 0.0
H483 H 0.31506 0.13489 0.89292 0.0
H484 H 0.13194 0.03031 0.90645 0.0
H485 H 0.24813 0.94749 0.90562 0.0
C486 C 0.61469 0.78702 0.81133 0.0
C487 C 0.64717 0.83973 0.81901 0.0
C488 C 0.69396 0.84259 0.82725 0.0
C489 C 0.7073 0.79347 0.82769 0.0
C490 C 0.67316 0.74237 0.8197 0.0
N491 N 0.63108 0.74344 0.81187 0.0
C492 C 0.6718 0.68221 0.81944 0.0
C493 C 0.61597 0.57671 0.8101 0.0
C494 C 0.65575 0.56684 0.80212 0.0
C495 C 0.64458 0.50668 0.79998 0.0
C496 C 0.59388 0.45633 0.80582 0.0
C497 C 0.55451 0.46608 0.81388 0.0
C498 C 0.56554 0.52615 0.81604 0.0
Cd499 Cd 0.71842 0.64305 0.84856 0.0
Cd500 Cd 0.75712 0.77366 0.86716 0.0
C501 C 0.53047 0.71389 0.78116 0.0
C502 C 0.45334 0.66534 0.76416 0.0
C503 C 0.50179 0.68931 0.75508 0.0
C504 C 0.5613 0.7355 0.75855 0.0
C505 C 0.57514 0.74778 0.77168 0.0
C506 C 0.46882 0.67504 0.7774 0.0
Co507 Co 0.58277 0.67333 0.80254 0.0
N508 N 0.6418 0.69411 0.78818 0.0
N509 N 0.53231 0.60232 0.79349 0.0
C510 C 0.55272 0.59664 0.78201 0.0
C511 C 0.51294 0.54696 0.77415 0.0
C512 C 0.45278 0.50561 0.77884 0.0
C513 C 0.43338 0.51501 0.79104 0.0
C514 C 0.47563 0.56591 0.7983 0.0
N515 N 0.51568 0.64124 0.81517 0.0
N516 N 0.6256 0.63785 0.81188 0.0
N517 N 0.54798 0.7201 0.79455 0.0
O518 O 0.76418 0.71133 0.88419 0.0
O519 O 0.74593 0.63334 0.87124 0.0
C520 C 0.64623 0.51047 0.84537 0.0
O521 O 0.62718 0.54121 0.85176 0.0
O522 O 0.69936 0.5415 0.84016 0.0
C523 C 0.86806 0.77178 0.84791 0.0
O524 O 0.83329 0.71337 0.84633 0.0
O525 O 0.84723 0.80394 0.85325 0.0
C526 C 0.61476 0.64822 0.77899 0.0
O527 O 0.63883 0.65363 0.76743 0.0
O528 O 0.65575 0.69082 0.85174 0.0
O529 O 0.65775 0.76777 0.86198 0.0
C530 C 0.46608 0.58796 0.81078 0.0
O531 O 0.41456 0.55763 0.81746 0.0
C532 C 0.5169 0.66877 0.82736 0.0
C533 C 0.55529 0.66818 0.83698 0.0
C534 C 0.57331 0.70985 0.84733 0.0
C535 C 0.54348 0.74494 0.84907 0.0
C536 C 0.49847 0.73983 0.84013 0.0
C537 C 0.48688 0.70312 0.82906 0.0
C538 C 0.75961 0.65879 0.88233 0.0
O539 O 0.7147 0.67286 0.82557 0.0
C540 C 0.6293 0.72153 0.85463 0.0
C541 C 0.70348 0.74698 0.78644 0.0
C542 C 0.71646 0.80784 0.78896 0.0
C543 C 0.77236 0.8589 0.78526 0.0
C544 C 0.81578 0.85053 0.77851 0.0
C545 C 0.803 0.79067 0.77533 0.0
C546 C 0.74937 0.73925 0.78011 0.0
C547 C 0.5678 0.77437 0.80121 0.0
O548 O 0.55567 0.81737 0.7972 0.0
H549 H 0.63725 0.8774 0.81863 0.0
H550 H 0.71945 0.88258 0.83338 0.0
H551 H 0.74161 0.79478 0.8343 0.0
H552 H 0.69478 0.6055 0.79747 0.0
H553 H 0.58524 0.40981 0.80415 0.0
H554 H 0.53481 0.53314 0.82232 0.0
H555 H 0.49092 0.6794 0.74496 0.0
H556 H 0.62056 0.78374 0.77444 0.0
H557 H 0.43366 0.6564 0.78482 0.0
H558 H 0.52724 0.54079 0.76467 0.0
H559 H 0.42094 0.46699 0.77294 0.0
H560 H 0.38692 0.4843 0.79452 0.0
H561 H 0.57567 0.63901 0.83565 0.0
H562 H 0.55616 0.777 0.85706 0.0
H563 H 0.45623 0.70284 0.8216 0.0
H564 H 0.68244 0.81787 0.79253 0.0
H565 H 0.85772 0.8908 0.77516 0.0
H566 H 0.74109 0.69322 0.77789 0.0
C567 C 0.82433 0.61162 0.97629 0.0
C568 C 0.80136 0.643 0.98361 0.0
C569 C 0.84275 0.69016 0.99206 0.0
C570 C 0.90538 0.70477 0.99309 0.0
C571 C 0.92512 0.67163 0.98542 0.0
N572 N 0.88429 0.62909 0.97737 0.0
C573 C 0.98464 0.67173 0.98579 0.0
C574 C 0.03883 0.61843 0.97729 0.0
C575 C 0.09042 0.66084 0.97011 0.0
C576 C 0.14166 0.65236 0.96879 0.0
C577 C 0.14157 0.60164 0.97462 0.0
C578 C 0.09032 0.55943 0.98182 0.0
C579 C 0.03916 0.56791 0.98321 0.0
Cd580 Cd 0.06113 0.71477 0.01571 0.0
Cd581 Cd 0.96448 0.7463 0.0343 0.0
C582 C 0.81735 0.51886 0.94748 0.0
C583 C 0.77659 0.42872 0.93358 0.0
C584 C 0.78643 0.46669 0.92284 0.0
C585 C 0.80146 0.52857 0.9245 0.0
C586 C 0.81816 0.55474 0.93688 0.0
C587 C 0.79696 0.45592 0.94575 0.0
Co588 Co 0.90931 0.58119 0.96868 0.0
N589 N 0.94732 0.63898 0.95422 0.0
N590 N 0.93344 0.5317 0.96027 0.0
C591 C 0.96147 0.55218 0.94894 0.0
C592 C 0.97604 0.51367 0.9417 0.0
C593 C 0.95967 0.4547 0.94682 0.0
C594 C 0.92868 0.43515 0.95882 0.0
C595 C 0.91541 0.4761 0.96545 0.0
N596 N 0.87425 0.51489 0.98148 0.0
N597 N 0.98583 0.62625 0.97846 0.0
N598 N 0.82946 0.54428 0.96028 0.0
O599 O 0.03029 0.74703 0.05137 0.0
O600 O 0.09998 0.7454 0.03837 0.0
C601 C 0.12101 0.64142 0.01258 0.0
O602 O 0.06649 0.61902 0.01703 0.0
O603 O 0.14806 0.6983 1.00935 0.0
C604 C 0.07843 0.86295 0.0156 0.0
O605 O 0.10302 0.82933 0.01333 0.0
O606 O 0.02659 0.84054 0.02148 0.0
C607 C 0.9696 0.61311 0.94548 0.0
O608 O 0.99105 0.63788 0.9341 0.0
O609 O 0.94988 0.65358 0.01883 0.0
O610 O 0.8706 0.64926 0.02847 0.0
C611 C 0.88134 0.46629 0.97763 0.0
O612 O 0.86072 0.41536 0.98451 0.0
C613 C 0.84369 0.51515 0.99317 0.0
C614 C 0.87902 0.55381 1.0031 0.0
C615 C 0.85135 0.56912 0.01312 0.0
C616 C 0.78609 0.53691 0.01417 0.0
C617 C 0.74964 0.49238 1.00481 0.0
C618 C 0.77894 0.48318 0.9941 0.0
C619 C 0.0831 0.75194 0.04962 0.0
O620 O 0.03467 0.71484 0.99239 0.0
C621 C 0.89201 0.62429 0.02101 0.0
C622 C 0.9519 0.69857 0.95198 0.0
C623 C 0.89993 0.70644 0.95301 0.0
C624 C 0.90285 0.76181 0.94948 0.0
C625 C 0.95704 0.80968 0.94431 0.0
C626 C 0.0084 0.80171 0.94235 0.0
C627 C 0.00683 0.74769 0.94685 0.0
C628 C 0.79267 0.56314 0.96636 0.0
O629 O 0.73699 0.5475 0.96213 0.0
H630 H 0.75348 0.63169 0.98286 0.0
H631 H 0.82612 0.71481 0.99793 0.0
H632 H 0.93639 0.73927 0.99988 0.0
H633 H 0.09075 0.70002 0.96548 0.0
H634 H 0.18121 0.59511 0.9736 0.0
H635 H 0.0002 0.5354 0.98897 0.0
H636 H 0.77209 0.44535 0.91343 0.0
H637 H 0.82835 0.60177 0.93837 0.0
H638 H 0.7884 0.42679 0.95416 0.0
H639 H -0.00153 0.5281 0.9324 0.0
H640 H 0.97019 0.42387 0.94142 0.0
H641 H 0.91504 0.38962 0.96263 0.0
H642 H 0.92889 0.57608 1.00231 0.0
H643 H 0.76373 0.54752 0.02194 0.0
H644 H 0.75155 0.45249 0.98637 0.0
H645 H 0.85538 0.66932 0.95552 0.0
H646 H 0.95725 0.85115 0.94105 0.0
H647 H 0.04732 0.74254 0.94566 0.0
C648 C 0.20272 0.82027 0.14456 0.0
C649 C 0.14942 0.79777 0.15219 0.0
C650 C 0.14471 0.83955 0.16077 0.0
C651 C 0.19272 0.90209 0.16162 0.0
C652 C 0.24455 0.92134 0.15366 0.0
N653 N 0.24516 0.88019 0.14549 0.0
C654 C 0.30399 0.98051 0.15382 0.0
C655 C 0.41074 0.0326 0.14495 0.0
C656 C 0.42253 0.08201 0.13672 0.0
C657 C 0.4832 0.13044 0.13496 0.0
C658 C 0.53211 0.12974 0.14143 0.0
C659 C 0.5204 0.08086 0.14975 0.0
C660 C 0.45983 0.03243 0.15154 0.0
Cd661 Cd 0.3364 0.05814 0.18378 0.0
Cd662 Cd 0.21323 0.96252 0.20078 0.0
C663 C 0.28363 0.81216 0.11499 0.0
C664 C 0.32116 0.76043 0.10086 0.0
C665 C 0.29087 0.76959 0.09041 0.0
C666 C 0.25385 0.79686 0.09222 0.0
C667 C 0.25149 0.81909 0.10454 0.0
C668 C 0.31956 0.78416 0.11302 0.0
Co669 Co 0.3165 0.90468 0.13627 0.0
N670 N 0.29499 0.94342 0.12216 0.0
N671 N 0.38865 0.92821 0.12733 0.0
C672 C 0.39473 0.95639 0.11609 0.0
C673 C 0.4466 0.97062 0.10846 0.0
C674 C 0.48965 0.95378 0.11313 0.0
C675 C 0.47979 0.92264 0.12508 0.0
C676 C 0.4267 0.90973 0.13211 0.0
N677 N 0.34918 0.86879 0.1486 0.0
N678 N 0.34942 0.98105 0.14614 0.0
N679 N 0.27243 0.82506 0.12789 0.0
O680 O 0.26952 0.02534 0.21876 0.0
O681 O 0.33681 0.09954 0.20595 0.0
C682 C 0.47025 0.12165 0.18152 0.0
O683 O 0.44011 0.0739 0.18852 0.0
O684 O 0.43825 0.14047 0.17546 0.0
C685 C 0.20498 0.07384 0.18295 0.0
O686 O 0.26355 0.09997 0.1812 0.0
O687 O 0.17572 0.02061 0.18825 0.0
C688 C 0.34183 0.96512 0.11311 0.0
O689 O 0.33672 0.98553 0.10172 0.0
O690 O 0.29157 0.94616 0.18602 0.0
O691 O 0.21561 0.86781 0.19572 0.0
C692 C 0.40418 0.87567 0.14433 0.0
O693 O 0.4352 0.85458 0.15084 0.0
C694 C 0.32005 0.83822 0.16039 0.0
C695 C 0.31856 0.87381 0.17048 0.0
C696 C 0.27621 0.84681 0.18061 0.0
C697 C 0.24235 0.78156 0.18164 0.0
C698 C 0.24896 0.74458 0.17212 0.0
C699 C 0.28655 0.77344 0.16128 0.0
C700 C 0.31279 0.08069 0.21709 0.0
O701 O 0.31165 0.03099 0.16041 0.0
C702 C 0.26243 0.88839 0.18842 0.0
C703 C 0.23945 0.94763 0.1202 0.0
C704 C 0.18003 0.89577 0.12169 0.0
C705 C 0.12716 0.89728 0.11791 0.0
C706 C 0.13251 0.94969 0.11197 0.0
C707 C 0.19123 0.00068 0.10959 0.0
C708 C 0.24402 0.0012 0.1145 0.0
C709 C 0.218 0.7884 0.13435 0.0
O710 O 0.17738 0.73287 0.13021 0.0
H711 H 0.11281 0.75 0.15156 0.0
H712 H 0.10426 0.8233 0.16687 0.0
H713 H 0.19009 0.93338 0.1685 0.0
H714 H 0.38504 0.08255 0.13154 0.0
H715 H 0.57903 0.16712 0.14005 0.0
H716 H 0.45135 0.99472 0.15796 0.0
H717 H 0.28897 0.74743 0.08129 0.0
H718 H 0.22248 0.83923 0.10611 0.0
H719 H 0.33984 0.77408 0.12128 0.0
H720 H 0.45338 0.9932 0.0992 0.0
H721 H 0.53009 0.96405 0.10743 0.0
H722 H 0.512 0.90864 0.12855 0.0
H723 H 0.3466 0.92361 0.16965 0.0
H724 H 0.20979 0.75969 0.18948 0.0
H725 H 0.28848 0.74577 0.15342 0.0
H726 H 0.17312 0.85173 0.1245 0.0
H727 H 0.09105 0.94886 0.1085 0.0
H728 H 0.2892 0.04125 0.11281 0.0
C729 C 0.37468 0.2074 0.31175 0.0
C730 C 0.33948 0.15324 0.31893 0.0
C731 C 0.2937 0.15112 0.3274 0.0
C732 C 0.2834 0.20207 0.32843 0.0
C733 C 0.31948 0.25417 0.32078 0.0
N734 N 0.36116 0.2528 0.31287 0.0
C735 C 0.32203 0.31483 0.32071 0.0
C736 C 0.3799 0.42124 0.31189 0.0
C737 C 0.33936 0.43376 0.30481 0.0
C738 C 0.35052 0.49451 0.30379 0.0
C739 C 0.40204 0.54285 0.30984 0.0
C740 C 0.44243 0.5305 0.31693 0.0
C741 C 0.4314 0.46983 0.31797 0.0
Cd742 Cd 0.27916 0.35287 0.35016 0.0
Cd743 Cd 0.24038 0.21944 0.36765 0.0
C744 C 0.45838 0.28151 0.28148 0.0
C745 C 0.53589 0.32825 0.26441 0.0
C746 C 0.48751 0.30225 0.25533 0.0
C747 C 0.42821 0.25599 0.25896 0.0
C748 C 0.41349 0.2475 0.2721 0.0
C749 C 0.5202 0.31947 0.27765 0.0
Co750 Co 0.40881 0.32248 0.30331 0.0
N751 N 0.3476 0.30186 0.28949 0.0
N752 N 0.45824 0.39292 0.29397 0.0
C753 C 0.43593 0.39856 0.2827 0.0
C754 C 0.47468 0.44782 0.2746 0.0
C755 C 0.53583 0.4887 0.27881 0.0
C756 C 0.55717 0.47929 0.29079 0.0
C757 C 0.51584 0.42887 0.29832 0.0
N758 N 0.4779 0.35404 0.31538 0.0
N759 N 0.36827 0.35909 0.3131 0.0
N760 N 0.44121 0.27463 0.2949 0.0
O761 O 0.22919 0.27578 0.38531 0.0
O762 O 0.24563 0.35457 0.37276 0.0
C763 C 0.35314 0.48618 0.34759 0.0
O764 O 0.37239 0.45354 0.35317 0.0
O765 O 0.29859 0.45687 0.34299 0.0
C766 C 0.13026 0.22458 0.34873 0.0
O767 O 0.16473 0.28327 0.34756 0.0
O768 O 0.15122 0.19171 0.35368 0.0
C769 C 0.37294 0.3474 0.28019 0.0
O770 O 0.34564 0.34263 0.26905 0.0
O771 O 0.3419 0.30438 0.3527 0.0
O772 O 0.33992 0.22614 0.36241 0.0
C773 C 0.52719 0.40679 0.31064 0.0
O774 O 0.57994 0.43669 0.31689 0.0
C775 C 0.47816 0.32641 0.32748 0.0
C776 C 0.44091 0.32703 0.33737 0.0
C777 C 0.42386 0.28526 0.3477 0.0
C778 C 0.45382 0.25011 0.34916 0.0
C779 C 0.49769 0.25494 0.33991 0.0
C780 C 0.50804 0.29169 0.32886 0.0
C781 C 0.23078 0.32713 0.38367 0.0
O782 O 0.28002 0.32478 0.32704 0.0
C783 C 0.36832 0.27323 0.35525 0.0
C784 C 0.28502 0.25003 0.28852 0.0
C785 C 0.27182 0.1888 0.29059 0.0
C786 C 0.21298 0.13875 0.28843 0.0
C787 C 0.16653 0.14843 0.28358 0.0
C788 C 0.17934 0.20856 0.28053 0.0
C789 C 0.23726 0.25929 0.28371 0.0
C790 C 0.42032 0.21953 0.30135 0.0
O791 O 0.43 0.17559 0.29691 0.0
H792 H 0.346 0.1136 0.3179 0.0
H793 H 0.26618 0.11 0.33313 0.0
H794 H 0.2493 0.20095 0.33508 0.0
H795 H 0.29935 0.39663 0.30009 0.0
H796 H 0.41055 0.5898 0.30907 0.0
H797 H 0.46257 0.46081 0.32363 0.0
H798 H 0.49814 0.31113 0.24516 0.0
H799 H 0.36736 0.21358 0.275 0.0
H800 H 0.55528 0.33832 0.28506 0.0
H801 H 0.45886 0.45401 0.26529 0.0
H802 H 0.56693 0.52696 0.27271 0.0
H803 H 0.60434 0.50963 0.29389 0.0
H804 H 0.42043 0.35623 0.33625 0.0
H805 H 0.44175 0.21786 0.35712 0.0
H806 H 0.53754 0.29168 0.32116 0.0
H807 H 0.30697 0.1778 0.29281 0.0
H808 H 0.12207 0.10852 0.28135 0.0
H809 H 0.2461 0.30576 0.28174 0.0
C810 C 0.1748 0.39233 0.47731 0.0
C811 C 0.19627 0.35929 0.48454 0.0
C812 C 0.15371 0.31166 0.49281 0.0
C813 C 0.09129 0.29793 0.49369 0.0
C814 C 0.07307 0.33277 0.48616 0.0
N815 N 0.11513 0.37605 0.47835 0.0
C816 C 0.01364 0.33293 0.48625 0.0
C817 C 0.96122 0.38775 0.47764 0.0
C818 C 0.90906 0.34468 0.47073 0.0
C819 C 0.85764 0.35292 0.46953 0.0
C820 C 0.85807 0.40404 0.47521 0.0
C821 C 0.90987 0.4469 0.48214 0.0
C822 C 0.96128 0.43875 0.48339 0.0
Cd823 Cd 0.92953 0.28346 0.51558 0.0
Cd824 Cd 0.02478 0.2475 0.53199 0.0
C825 C 0.18178 0.47884 0.44764 0.0
C826 C 0.20166 0.55639 0.43096 0.0
C827 C 0.17925 0.50796 0.42189 0.0
C828 C 0.17634 0.45178 0.42496 0.0
C829 C 0.17618 0.43678 0.43798 0.0
C830 C 0.19857 0.53975 0.44414 0.0
Co831 Co 0.09113 0.42379 0.4693 0.0
N832 N 0.0531 0.36496 0.45504 0.0
N833 N 0.06804 0.4732 0.46047 0.0
C834 C 0.04099 0.45231 0.44909 0.0
C835 C 0.02877 0.49127 0.4414 0.0
C836 C 0.04649 0.55117 0.44612 0.0
C837 C 0.07646 0.57112 0.45818 0.0
C838 C 0.08736 0.52967 0.46529 0.0
N839 N 0.12595 0.49092 0.48187 0.0
N840 N 0.01382 0.37937 0.47896 0.0
N841 N 0.17184 0.45988 0.46097 0.0
O842 O 0.96297 0.23956 0.55034 0.0
O843 O 0.89187 0.24206 0.53793 0.0
C844 C 0.8668 0.35516 0.51331 0.0
O845 O 0.91966 0.3764 0.5185 0.0
O846 O 0.84217 0.29996 0.50909 0.0
C847 C 0.90996 0.13456 0.51373 0.0
O848 O 0.88601 0.1694 0.51245 0.0
O849 O 0.9636 0.15539 0.51869 0.0
C850 C 0.03191 0.39067 0.44602 0.0
O851 O 0.01022 0.36477 0.43475 0.0
O852 O 0.04077 0.34793 0.51819 0.0
O853 O 0.11798 0.34568 0.52739 0.0
C854 C 0.12047 0.53991 0.4776 0.0
O855 O 0.14106 0.59132 0.48427 0.0
C856 C 0.15353 0.49005 0.49393 0.0
C857 C 0.11584 0.45034 0.50352 0.0
C858 C 0.14086 0.43173 0.51352 0.0
C859 C 0.2057 0.46184 0.51498 0.0
C860 C 0.24452 0.50862 0.5062 0.0
C861 C 0.21795 0.52129 0.49547 0.0
C862 C 0.90894 0.23174 0.54883 0.0
O863 O 0.9623 0.2888 0.49242 0.0
C864 C 0.09826 0.37478 0.52071 0.0
C865 C 0.0442 0.30319 0.4536 0.0
C866 C 0.09334 0.29129 0.45527 0.0
C867 C 0.08602 0.23314 0.45271 0.0
C868 C 0.03021 0.18629 0.44791 0.0
C869 C 0.98158 0.19793 0.44534 0.0
C870 C 0.98762 0.25518 0.44883 0.0
C871 C 0.2074 0.44 0.46724 0.0
O872 O 0.26231 0.45313 0.46292 0.0
H873 H 0.24377 0.36937 0.48379 0.0
H874 H 0.16917 0.28567 0.49858 0.0
H875 H 0.05923 0.26265 0.50025 0.0
H876 H 0.90832 0.30501 0.46628 0.0
H877 H 0.81826 0.41034 0.47429 0.0
H878 H 0.00064 0.47174 0.48896 0.0
H879 H 0.17342 0.51647 0.4119 0.0
H880 H 0.17337 0.3935 0.44059 0.0
H881 H 0.21217 0.57328 0.45179 0.0
H882 H 0.00738 0.47659 0.43202 0.0
H883 H 0.03795 0.58241 0.44034 0.0
H884 H 0.09135 0.61741 0.46167 0.0
H885 H 0.06625 0.42928 0.50237 0.0
H886 H 0.22586 0.4486 0.52276 0.0
H887 H 0.24725 0.553 0.48803 0.0
H888 H 0.1389 0.32703 0.45766 0.0
H889 H 0.02665 0.14239 0.44542 0.0
H890 H 0.94918 0.26326 0.44723 0.0
C891 C 0.78719 0.17187 0.64468 0.0
C892 C 0.83932 0.19343 0.65261 0.0
C893 C 0.84227 0.1509 0.66129 0.0
C894 C 0.79383 0.08846 0.66191 0.0
C895 C 0.74318 0.07015 0.65368 0.0
N896 N 0.74408 0.1121 0.64548 0.0
C897 C 0.68392 0.01075 0.65333 0.0
C898 C 0.57987 0.95858 0.64328 0.0
C899 C 0.5725 0.90886 0.63566 0.0
C900 C 0.51325 0.85906 0.63331 0.0
C901 C 0.46132 0.85866 0.63858 0.0
C902 C 0.46858 0.90781 0.6463 0.0
C903 C 0.52773 0.95768 0.64866 0.0
Cd904 Cd 0.64407 0.9254 0.68274 0.0
Cd905 Cd 0.76753 0.01831 0.69837 0.0
C906 C 0.7151 0.17947 0.61384 0.0
C907 C 0.66775 0.21045 0.59695 0.0
C908 C 0.69151 0.1861 0.58778 0.0
C909 C 0.737 0.17133 0.5912 0.0
C910 C 0.74834 0.16782 0.60432 0.0
C911 C 0.67721 0.20377 0.61015 0.0
Co912 Co 0.6753 0.08798 0.63548 0.0
N913 N 0.70037 0.04972 0.62192 0.0
N914 N 0.60562 0.06487 0.6257 0.0
C915 C 0.60281 0.03771 0.61449 0.0
C916 C 0.55406 0.02553 0.60608 0.0
C917 C 0.51057 0.04331 0.60995 0.0
C918 C 0.51694 0.07332 0.6219 0.0
C919 C 0.56705 0.0842 0.62975 0.0
N920 N 0.63932 0.12293 0.64718 0.0
N921 N 0.64006 0.01091 0.64525 0.0
N922 N 0.72162 0.1685 0.62722 0.0
O923 O 0.71841 0.95947 0.71727 0.0
O924 O 0.64802 0.88578 0.70491 0.0
C925 C 0.51024 0.86127 0.68039 0.0
O926 O 0.53989 0.90656 0.68798 0.0
O927 O 0.54272 0.84482 0.67378 0.0
C928 C 0.77277 0.90573 0.68116 0.0
O929 O 0.71401 0.88085 0.68006 0.0
O930 O 0.80474 0.96034 0.68568 0.0
C931 C 0.65608 0.02849 0.61235 0.0
O932 O 0.66404 0.00801 0.60123 0.0
O933 O 0.68474 0.03633 0.68463 0.0
O934 O 0.76378 0.11258 0.69407 0.0
C935 C 0.58611 0.11725 0.64212 0.0
O936 O 0.55338 0.13789 0.64811 0.0
C937 C 0.66408 0.15048 0.65943 0.0
C938 C 0.66196 0.11249 0.66943 0.0
C939 C 0.70252 0.13686 0.67992 0.0
C940 C 0.73711 0.20165 0.68146 0.0
C941 C 0.73326 0.24078 0.6721 0.0
C942 C 0.6983 0.21485 0.66086 0.0
C943 C 0.67464 0.90427 0.71583 0.0
O944 O 0.67534 0.9593 0.65972 0.0
C945 C 0.71536 0.09361 0.68734 0.0
C946 C 0.75473 0.04263 0.62113 0.0
C947 C 0.81448 0.09263 0.62341 0.0
C948 C 0.86706 0.08809 0.62094 0.0
C949 C 0.86135 0.03448 0.61555 0.0
C950 C 0.80265 0.98532 0.61239 0.0
C951 C 0.74957 0.98788 0.61599 0.0
C952 C 0.77487 0.20431 0.63407 0.0
O953 O 0.81734 0.25926 0.62997 0.0
H954 H 0.87658 0.24095 0.65208 0.0
H955 H 0.88187 0.16642 0.6676 0.0
H956 H 0.79532 0.05647 0.66879 0.0
H957 H 0.61239 0.90903 0.63145 0.0
H958 H 0.41551 0.82022 0.63672 0.0
H959 H 0.53278 -0.00451 0.65465 0.0
H960 H 0.6821 0.18832 0.57767 0.0
H961 H 0.78328 0.15649 0.60707 0.0
H962 H 0.65913 0.22071 0.61761 0.0
H963 H 0.55016 0.00406 0.5968 0.0
H964 H 0.47259 0.03476 0.60362 0.0
H965 H 0.48455 0.08823 0.62475 0.0
H966 H 0.6334 0.06298 0.66819 0.0
H967 H 0.76835 0.22153 0.68956 0.0
H968 H 0.69932 0.24448 0.65308 0.0
H969 H 0.82233 0.1374 0.62591 0.0
H970 H 0.9029 0.03298 0.61309 0.0
H971 H 0.70431 0.94926 0.6137 0.0
C972 C 0.37271 0.7048 0.09137 0.0
C973 C 0.33027 0.70656 0.10009 0.0
C974 C 0.36948 0.6483 0.08823 0.0
C975 C 0.3228 0.59218 0.09349 0.0
H976 H 0.40663 0.74682 0.08658 0.0
H977 H 0.40207 0.6482 0.08131 0.0
S978 S 0.19688 0.57321 0.11582 0.0
N979 N 0.23999 0.64852 0.11367 0.0
N980 N 0.23043 0.5426 0.10717 0.0
C981 C 0.28013 0.59411 0.10223 0.0
C982 C 0.28487 0.65129 0.1057 0.0
C983 C 0.66492 0.32559 0.24564 0.0
C984 C 0.71711 0.35969 0.25338 0.0
C985 C 0.60805 0.31937 0.24889 0.0
C986 C 0.60048 0.34918 0.25978 0.0
H987 H 0.66581 0.29707 0.23784 0.0
H988 H 0.56915 0.28576 0.24331 0.0
S989 S 0.72796 0.45815 0.28115 0.0
N990 N 0.76145 0.43184 0.27119 0.0
N991 N 0.65455 0.42498 0.27674 0.0
C992 C 0.6544 0.39004 0.26667 0.0
C993 C 0.71263 0.39445 0.26358 0.0
C994 C 0.27251 0.63109 0.41406 0.0
C995 C 0.24319 0.62192 0.42626 0.0
C996 C 0.32778 0.68458 0.41116 0.0
C997 C 0.3568 0.73201 0.42022 0.0
H998 H 0.25792 0.59499 0.40696 0.0
H999 H 0.35121 0.68495 0.40232 0.0
S1000 S 0.28699 0.74598 0.45073 0.0
N1001 N 0.23727 0.67611 0.44536 0.0
N1002 N 0.3438 0.77617 0.44005 0.0
C1003 C 0.32329 0.72918 0.43138 0.0
C1004 C 0.26587 0.67444 0.43433 0.0
C1005 C 0.67632 0.34544 0.57844 0.0
C1006 C 0.64216 0.36399 0.58609 0.0
C1007 C 0.68072 0.29364 0.58164 0.0
C1008 C 0.64919 0.25602 0.5924 0.0
H1009 H 0.70557 0.37487 0.57072 0.0
H1010 H 0.71399 0.28716 0.57613 0.0
S1011 S 0.5414 0.27762 0.61371 0.0
N1012 N 0.56948 0.33773 0.60382 0.0
N1013 N 0.57317 0.23585 0.60929 0.0
C1014 C 0.60905 0.27036 0.59929 0.0
C1015 C 0.60639 0.32514 0.59624 0.0
C1016 C 0.32733 0.67267 0.74524 0.0
C1017 C 0.27465 0.63908 0.75289 0.0
C1018 C 0.3834 0.67714 0.74856 0.0
C1019 C 0.38941 0.64625 0.75947 0.0
H1020 H 0.32723 0.70155 0.73741 0.0
H1021 H 0.42306 0.71006 0.74302 0.0
S1022 S 0.25995 0.53944 0.78079 0.0
N1023 N 0.22812 0.56718 0.77073 0.0
N1024 N 0.33341 0.57095 0.77645 0.0
C1025 C 0.33493 0.60644 0.76634 0.0
C1026 C 0.27763 0.60372 0.76316 0.0
C1027 C 0.71817 0.32134 0.92428 0.0
C1028 C 0.7213 0.36669 0.93285 0.0
C1029 C 0.66071 0.27009 0.92088 0.0
C1030 C 0.60503 0.26382 0.92574 0.0
H1031 H 0.76001 0.32709 0.91977 0.0
H1032 H 0.65965 0.23639 0.91413 0.0
S1033 S 0.58907 0.37487 0.94727 0.0
N1034 N 0.66426 0.40335 0.94566 0.0
N1035 N 0.55723 0.31078 0.93869 0.0
C1036 C 0.60816 0.30959 0.93423 0.0
C1037 C 0.66605 0.35993 0.93797 0.0
C1038 C 0.17703 0.96287 0.01058 0.0
C1039 C 0.11217 0.93048 0.01226 0.0
C1040 C 0.20994 0.02731 1.00831 0.0
C1041 C 0.17933 0.06206 1.00745 0.0
H1042 H 0.20286 0.93847 0.01122 0.0
H1043 H 0.25966 0.04982 1.007 0.0
S1044 S 0.00986 -0.00027 0.01102 0.0
N1045 N 0.01874 0.93869 0.01283 0.0
N1046 N 0.08005 0.05876 1.00854 0.0
C1047 C 0.11448 0.03016 1.00907 0.0
C1048 C 0.08114 0.96483 0.01147 0.0
C1049 C 0.20185 0.17225 0.17854 0.0
C1050 C 0.1705 0.10716 0.17972 0.0
C1051 C 0.1695 0.20463 0.1764 0.0
C1052 C 0.10444 0.17328 0.17521 0.0
H1053 H 0.25178 0.19864 0.17945 0.0
H1054 H 0.1959 0.25457 0.17546 0.0
S1055 S 0.0002 0.00286 0.17745 0.0
N1056 N 0.0703 0.01267 0.17946 0.0
N1057 N 0.00998 0.07298 0.17546 0.0
C1058 C 0.07264 0.10818 0.17635 0.0
C1059 C 0.10545 0.07535 0.17859 0.0
C1060 C 0.0306 0.12882 0.34327 0.0
C1061 C 0.06324 0.19336 0.34523 0.0
C1062 C 0.96669 0.09672 0.34089 0.0
C1063 C 0.93194 0.12737 0.3405 0.0
H1064 H 0.0546 0.10253 0.3436 0.0
H1065 H 0.94431 0.04713 0.33942 0.0
S1066 S -0.00524 0.29632 0.34499 0.0
N1067 N 0.05572 0.28704 0.34656 0.0
N1068 N 0.93547 0.22665 0.34217 0.0
C1069 C 0.96385 0.192 0.34244 0.0
C1070 C 0.02939 0.22495 0.34473 0.0
C1071 C 0.87278 0.97068 0.50523 0.0
C1072 C 0.80764 0.9357 0.50603 0.0
C1073 C 0.90504 0.0348 0.50749 0.0
C1074 C 0.87377 0.06736 0.51044 0.0
H1075 H 0.89944 0.94833 0.50292 0.0
H1076 H 0.95515 0.0591 0.5069 0.0
S1077 S 0.70344 -0.00162 0.51381 0.0
N1078 N 0.71298 0.9391 0.51011 0.0
N1079 N 0.77364 0.05955 0.51421 0.0
C1080 C 0.80862 0.03329 0.5112 0.0
C1081 C 0.77566 0.96763 0.50907 0.0
C1082 C 0.90083 0.86959 0.67295 0.0
C1083 C 0.87088 0.80435 0.67329 0.0
C1084 C 0.8686 0.90159 0.67533 0.0
C1085 C 0.80462 0.86997 0.67798 0.0
H1086 H 0.9499 0.89653 0.67085 0.0
H1087 H 0.8942 0.95174 0.67502 0.0
S1088 S 0.70385 0.69923 0.68027 0.0
N1089 N 0.77296 0.70922 0.67672 0.0
N1090 N 0.7125 0.76938 0.68107 0.0
C1091 C 0.77385 0.80474 0.67836 0.0
C1092 C 0.80689 0.77202 0.67608 0.0
C1093 C 0.96807 0.86816 0.8427 0.0
C1094 C 0.93511 0.80336 0.84434 0.0
C1095 C 0.03197 0.9003 0.84017 0.0
C1096 C 0.06635 0.86938 0.83935 0.0
H1097 H 0.94431 0.89461 0.84336 0.0
H1098 H 0.05464 0.95008 0.83895 0.0
S1099 S 0.00262 0.69969 0.8429 0.0
N1100 N 0.942 0.70921 0.84489 0.0
N1101 N 0.0621 0.76956 0.84028 0.0
C1102 C 0.0341 0.80449 0.84098 0.0
C1103 C 0.96863 0.77156 0.8434 0.0
C1104 C 0.36616 0.20731 0.93562 0.0
C1105 C 0.39341 0.16997 0.93749 0.0
C1106 C 0.34042 0.22326 0.94595 0.0
C1107 C 0.34177 0.20329 0.95858 0.0
H1108 H 0.36824 0.22776 0.92627 0.0
H1109 H 0.32221 0.25407 0.94411 0.0
S1110 S 0.39726 0.09553 0.96823 0.0
N1111 N 0.41171 0.10604 0.95261 0.0
N1112 N 0.36524 0.1377 0.97211 0.0
C1113 C 0.36504 0.16261 0.96045 0.0
C1114 C 0.3902 0.14544 0.94988 0.0
C1115 C 0.18352 0.35658 0.12745 0.0
C1116 C 0.11964 0.33319 0.12571 0.0
C1117 C 0.22492 0.37974 0.11701 0.0
C1118 C 0.20435 0.38182 0.10444 0.0
H1119 H 0.20184 0.35784 0.13699 0.0
H1120 H 0.27391 0.39911 0.11891 0.0
S1121 S 0.04087 0.32384 0.09474 0.0
N1122 N 0.03714 0.30995 0.11038 0.0
N1123 N 0.11487 0.35606 0.0909 0.0
C1124 C 0.1401 0.35596 0.10251 0.0
C1125 C 0.09786 0.33131 0.11311 0.0
C1126 C 0.81676 0.19668 0.27468 0.0
C1127 C 0.77486 0.21841 0.27253 0.0
C1128 C 0.80762 0.15516 0.28478 0.0
C1129 C 0.75698 0.13484 0.29326 0.0
H1130 H 0.85731 0.21235 0.2686 0.0
H1131 H 0.84116 0.13993 0.28614 0.0
S1132 S 0.6298 0.17111 0.2911 0.0
N1133 N 0.67654 0.20989 0.27904 0.0
N1134 N 0.66254 0.13589 0.29848 0.0
C1135 C 0.71434 0.1552 0.29116 0.0
C1136 C 0.72245 0.1959 0.28069 0.0
C1137 C 0.59967 0.76467 0.43681 0.0
C1138 C 0.56141 0.79059 0.43903 0.0
C1139 C 0.62988 0.75335 0.44699 0.0
C1140 C 0.62259 0.76679 0.45984 0.0
H1141 H 0.60501 0.7513 0.42716 0.0
H1142 H 0.65812 0.7326 0.44477 0.0
S1143 S 0.53243 0.84084 0.47071 0.0
N1144 N 0.52198 0.83403 0.45495 0.0
N1145 N 0.57731 0.8113 0.47411 0.0
C1146 C 0.58564 0.7941 0.46217 0.0
C1147 C 0.55548 0.80633 0.45178 0.0
C1148 C 0.75299 0.56096 0.6173 0.0
C1149 C 0.77371 0.5693 0.60442 0.0
C1150 C 0.79435 0.58983 0.62753 0.0
C1151 C 0.85822 0.62876 0.62534 0.0
H1152 H 0.70437 0.53105 0.61951 0.0
H1153 H 0.77599 0.58133 0.63726 0.0
S1154 S 0.93671 0.66571 0.59344 0.0
N1155 N 0.86299 0.61873 0.5901 0.0
N1156 N 0.94014 0.67454 0.60924 0.0
C1157 C 0.87946 0.6387 0.61249 0.0
C1158 C 0.83743 0.60871 0.60207 0.0
C1159 C 0.20243 0.79387 0.79389 0.0
C1160 C 0.22849 0.85786 0.79161 0.0
C1161 C 0.18888 0.75199 0.7837 0.0
C1162 C 0.20129 0.77227 0.7708 0.0
H1163 H 0.19249 0.77584 0.80364 0.0
H1164 H 0.16945 0.70329 0.78598 0.0
S1165 S 0.27055 0.93533 0.75961 0.0
N1166 N 0.2657 0.93945 0.77542 0.0
N1167 N 0.24228 0.86121 0.75635 0.0
C1168 C 0.22664 0.83611 0.76836 0.0
C1169 C 0.2398 0.8787 0.77873 0.0
C1170 C 0.83224 0.62481 0.91122 0.0
C1171 C 0.79004 0.56195 0.9138 0.0
C1172 C 0.8217 0.6564 0.90115 0.0
C1173 C 0.7692 0.62596 0.89319 0.0
H1174 H 0.87398 0.64954 0.91693 0.0
H1175 H 0.85551 0.70457 0.8994 0.0
S1176 S 0.64056 0.46473 0.89681 0.0
N1177 N 0.6896 0.4731 0.90839 0.0
N1178 N 0.67269 0.53146 0.88902 0.0
C1179 C 0.72619 0.56383 0.89578 0.0
C1180 C 0.73583 0.53212 0.90621 0.0
C1181 C 0.23125 0.80367 0.06883 0.0
C1182 C 0.21055 0.79197 0.08171 0.0
C1183 C 0.18988 0.79086 0.05856 0.0
C1184 C 0.126 0.76631 0.06073 0.0
H1185 H 0.27983 0.82178 0.06663 0.0
H1186 H 0.20824 0.80012 0.04884 0.0
S1187 S 0.04763 0.72718 0.09265 0.0
N1188 N 0.12135 0.75363 0.09603 0.0
N1189 N 0.04415 0.73168 0.07682 0.0
C1190 C 0.10482 0.75595 0.07359 0.0
C1191 C 0.14688 0.76833 0.08404 0.0
C1192 C 0.38374 0.22967 0.23655 0.0
C1193 C 0.38783 0.20991 0.24908 0.0
C1194 C 0.35882 0.18757 0.2263 0.0
C1195 C 0.3357 0.1238 0.22821 0.0
H1196 H 0.40221 0.27847 0.23454 0.0
H1197 H 0.35832 0.20524 0.21677 0.0
S1198 S 0.33208 0.04707 0.25915 0.0
N1199 N 0.36486 0.12131 0.26276 0.0
N1200 N 0.31541 0.04231 0.24364 0.0
C1201 C 0.33619 0.10285 0.24078 0.0
C1202 C 0.36266 0.14578 0.25118 0.0
C1203 C 0.23393 0.45057 0.40535 0.0
C1204 C 0.18704 0.41695 0.41452 0.0
C1205 C 0.2474 0.42099 0.39547 0.0
C1206 C 0.21578 0.35625 0.39448 0.0
H1207 H 0.26147 0.50051 0.40589 0.0
H1208 H 0.2837 0.44918 0.38866 0.0
S1209 S 0.08814 0.24606 0.41573 0.0
N1210 N 0.10774 0.31492 0.42172 0.0
N1211 N 0.13472 0.25879 0.40332 0.0
C1212 C 0.16924 0.32157 0.40362 0.0
C1213 C 0.15461 0.35198 0.41361 0.0
C1214 C 0.88633 0.23089 0.57236 0.0
C1215 C 0.86513 0.20961 0.55982 0.0
C1216 C 0.84485 0.21396 0.58276 0.0
C1217 C 0.78075 0.17417 0.58103 0.0
H1218 H 0.93492 0.26327 0.57405 0.0
H1219 H 0.86281 0.23532 0.59203 0.0
S1220 S 0.70409 0.0953 0.55056 0.0
N1221 N 0.77748 0.14028 0.54653 0.0
N1222 N 0.69984 0.10635 0.56615 0.0
C1223 C 0.75994 0.14835 0.56872 0.0
C1224 C 0.80197 0.1667 0.55809 0.0
C1225 C 0.62628 0.84276 0.74985 0.0
C1226 C 0.60276 0.7786 0.74839 0.0
C1227 C 0.6517 0.8835 0.73936 0.0
C1228 C 0.65358 0.86146 0.72699 0.0
H1229 H 0.62148 0.8613 0.75895 0.0
H1230 H 0.66694 0.9321 0.74082 0.0
S1231 S 0.60999 0.70004 0.71858 0.0
N1232 N 0.59256 0.69678 0.73404 0.0
N1233 N 0.63816 0.77309 0.71423 0.0
C1234 C 0.6344 0.7983 0.72558 0.0
C1235 C 0.60969 0.75699 0.7363 0.0
C1236 C 0.58051 0.4352 0.99687 0.0
C1237 C 0.54811 0.38471 1.00537 0.0
C1238 C 0.64555 0.47055 0.99693 0.0
C1239 C 0.6809 0.45768 1.00564 0.0
H1240 H 0.55556 0.44706 0.98993 0.0
H1241 H 0.66846 0.50797 0.99002 0.0
S1242 S 0.62035 0.33121 0.02982 0.0
N1243 N 0.55767 0.32371 0.02267 0.0
N1244 N 0.67963 0.39141 0.02293 0.0
C1245 C 0.64958 0.40823 0.01431 0.0
C1246 C 0.58333 0.37146 0.01413 0.0
C1247 C 0.13475 0.57598 0.16437 0.0
C1248 C 0.15265 0.54287 0.17275 0.0
C1249 C 0.1653 0.6411 0.16439 0.0
C1250 C 0.21421 0.67582 0.17296 0.0
H1251 H 0.09739 0.55151 0.15756 0.0
H1252 H 0.15088 0.66456 0.15759 0.0
S1253 S 0.27984 0.61322 0.19679 0.0
N1254 N 0.22373 0.55105 0.18977 0.0
N1255 N 0.27956 0.67315 0.18998 0.0
C1256 C 0.23217 0.64378 0.18149 0.0
C1257 C 0.20184 0.57746 0.18134 0.0
C1258 C 0.58086 0.23757 0.34917 0.0
C1259 C 0.52926 0.21798 0.34105 0.0
C1260 C 0.61565 0.20701 0.34919 0.0
C1261 C 0.5994 0.15523 0.34124 0.0
H1262 H 0.59546 0.27785 0.35525 0.0
H1263 H 0.65578 0.22436 0.35542 0.0
S1264 S 0.46703 0.08584 0.31838 0.0
N1265 N 0.46333 0.14428 0.32497 0.0
N1266 N 0.52703 0.0857 0.32514 0.0
C1267 C 0.54681 0.13461 0.3333 0.0
C1268 C 0.5122 0.1663 0.33317 0.0
C1269 C 0.34565 0.60708 0.50848 0.0
C1270 C 0.31294 0.54206 0.50767 0.0
C1271 C 0.41064 0.64028 0.50905 0.0
C1272 C 0.44552 0.60981 0.50855 0.0
H1273 H 0.32073 0.6325 0.50856 0.0
H1274 H 0.43369 0.69036 0.50949 0.0
S1275 S 0.38138 0.43956 0.50669 0.0
N1276 N 0.31969 0.44815 0.50675 0.0
N1277 N 0.44175 0.51018 0.50754 0.0
C1278 C 0.4131 0.54456 0.50792 0.0
C1279 C 0.34687 0.51079 0.50756 0.0
C1280 C 0.85294 0.40862 0.66593 0.0
C1281 C 0.83224 0.44133 0.67368 0.0
C1282 C 0.82159 0.34366 0.66572 0.0
C1283 C 0.76908 0.30891 0.67343 0.0
H1284 H 0.89289 0.43329 0.6597 0.0
H1285 H 0.83794 0.32037 0.65933 0.0
S1286 S 0.69639 0.37055 0.69569 0.0
N1287 N 0.75563 0.43294 0.6894 0.0
N1288 N 0.69803 0.31078 0.68919 0.0
C1289 C 0.74864 0.34047 0.68147 0.0
C1290 C 0.77988 0.40669 0.68154 0.0
C1291 C 0.48523 0.82996 0.83446 0.0
C1292 C 0.46596 0.77558 0.84164 0.0
C1293 C 0.45028 0.86014 0.83435 0.0
C1294 C 0.39413 0.83649 0.84127 0.0
H1295 H 0.52681 0.84837 0.82862 0.0
H1296 H 0.46669 0.90147 0.8285 0.0
S1297 S 0.32482 0.69537 0.86182 0.0
N1298 N 0.3889 0.69981 0.8561 0.0
N1299 N 0.3222 0.75554 0.85579 0.0
C1300 C 0.37518 0.78254 0.84871 0.0
C1301 C 0.41131 0.7523 0.84891 0.0
C1302 C 0.55652 0.40955 0.8527 0.0
C1303 C 0.6088 0.44163 0.84464 0.0
C1304 C 0.52209 0.34459 0.85288 0.0
C1305 C 0.53777 0.30915 0.84483 0.0
H1306 H 0.54285 0.4347 0.8592 0.0
H1307 H 0.48344 0.32182 0.85951 0.0
S1308 S 0.66853 0.36908 0.82171 0.0
N1309 N 0.67375 0.43195 0.82829 0.0
N1310 N 0.60766 0.30986 0.82844 0.0
C1311 C 0.58864 0.34014 0.8365 0.0
C1312 C 0.6245 0.40635 0.83646 0.0
C1313 C 0.21719 0.6332 0.01014 0.0
C1314 C 0.15247 0.60378 0.01178 0.0
C1315 C 0.24863 0.59935 0.01037 0.0
C1316 C 0.21649 0.53466 0.01194 0.0
H1317 H 0.24414 0.68304 1.00905 0.0
H1318 H 0.29864 0.62406 1.00947 0.0
S1319 S 0.04704 0.43447 0.01593 0.0
N1320 N 0.05729 0.50517 0.01465 0.0
N1321 N 0.11667 0.44201 0.01475 0.0
C1322 C 0.15183 0.5043 0.01316 0.0
C1323 C 0.11977 0.53872 0.01317 0.0
C1324 C 0.63745 0.16501 0.18873 0.0
C1325 C 0.67215 0.21569 0.18054 0.0
C1326 C 0.57237 0.13436 0.18878 0.0
C1327 C 0.53935 0.15392 0.18079 0.0
H1328 H 0.66089 0.14941 0.19527 0.0
H1329 H 0.54786 0.09569 0.19532 0.0
S1330 S 0.60981 0.28559 0.15769 0.0
N1331 N 0.66969 0.28421 0.16421 0.0
N1332 N 0.54759 0.22808 0.16446 0.0
C1333 C 0.57395 0.20471 0.17252 0.0
C1334 C 0.64024 0.23519 0.17235 0.0
C1335 C 0.36748 0.59102 0.34175 0.0
C1336 C 0.39189 0.55512 0.34691 0.0
C1337 C 0.40201 0.65621 0.34176 0.0
C1338 C 0.46246 0.68787 0.34676 0.0
H1339 H 0.32087 0.56871 0.3379 0.0
H1340 H 0.38096 0.68207 0.33801 0.0
S1341 S 0.54922 0.61713 0.36095 0.0
N1342 N 0.48173 0.55744 0.35689 0.0
N1343 N 0.54592 0.67937 0.35668 0.0
C1344 C 0.48802 0.65296 0.35162 0.0
C1345 C 0.45298 0.58678 0.35174 0.0
C1346 C 0.73837 0.39667 0.51187 0.0
C1347 C 0.77074 0.46172 0.5128 0.0
C1348 C 0.7698 0.36272 0.51162 0.0
C1349 C 0.8348 0.39238 0.51265 0.0
H1350 H 0.68824 0.37183 0.51139 0.0
H1351 H 0.74279 0.31271 0.51099 0.0
S1352 S 0.94103 0.56221 0.51507 0.0
N1353 N 0.87127 0.55464 0.51438 0.0
N1354 N 0.93039 0.49125 0.51434 0.0
C1355 C 0.86766 0.45758 0.51349 0.0
C1356 C 0.83566 0.49211 0.51345 0.0
C1357 C 0.34294 0.81602 0.68803 0.0
C1358 C 0.30841 0.76758 0.67938 0.0
C1359 C 0.40798 0.84658 0.68808 0.0
C1360 C 0.44119 0.82919 0.67962 0.0
H1361 H 0.31938 0.82989 0.69492 0.0
H1362 H 0.43231 0.88344 0.695 0.0
S1363 S 0.37126 0.70362 0.65524 0.0
N1364 N 0.31123 0.70333 0.66213 0.0
N1365 N 0.43335 0.7594 0.66236 0.0
C1366 C 0.4068 0.78071 0.67087 0.0
C1367 C 0.3405 0.75028 0.67072 0.0
C1368 C 0.17086 0.02818 0.08784 0.0
C1369 C 0.19772 0.04767 0.1001 0.0
C1370 C 0.17425 0.07082 0.07865 0.0
C1371 C 0.20487 0.1344 0.0814 0.0
H1372 H 0.14643 0.97941 0.08538 0.0
H1373 H 0.15138 0.05389 0.06945 0.0
S1374 S 0.28382 0.20897 0.11202 0.0
N1375 N 0.25734 0.13432 0.11443 0.0
N1376 N 0.2632 0.21503 0.09719 0.0
C1377 C 0.23369 0.15469 0.09349 0.0
C1378 C 0.23029 0.11114 0.10285 0.0
C1379 C 0.02785 0.18286 0.26704 0.0
C1380 C 0.04479 0.20893 0.25463 0.0
C1381 C 0.0723 0.18641 0.27574 0.0
C1382 C 0.13522 0.21641 0.27235 0.0
H1383 H 0.97963 0.1586 0.26996 0.0
H1384 H 0.05719 0.16384 0.28504 0.0
S1385 S 0.2036 0.29419 0.2412 0.0
N1386 N 0.12856 0.2678 0.23954 0.0
N1387 N 0.21264 0.27415 0.25589 0.0
C1388 C 0.15311 0.24495 0.26016 0.0
C1389 C 0.1077 0.24132 0.25129 0.0
C1390 C 0.89752 0.09003 0.44117 0.0
C1391 C 0.92829 0.15279 0.43764 0.0
C1392 C 0.85417 0.04492 0.43295 0.0
C1393 C 0.84034 0.06091 0.42087 0.0
H1394 H 0.90834 0.07557 0.4502 0.0
H1395 H 0.83208 -0.00312 0.43597 0.0
S1396 S 0.90689 0.21899 0.40726 0.0
N1397 N 0.94078 0.22911 0.42144 0.0
N1398 N 0.85891 0.14372 0.40595 0.0
C1399 C 0.86885 0.12365 0.41742 0.0
C1400 C 0.913 0.16978 0.42583 0.0
C1401 C 0.8264 0.91204 0.58269 0.0
C1402 C 0.79033 0.84843 0.58526 0.0
C1403 C 0.82979 0.95573 0.59158 0.0
C1404 C 0.79747 0.9373 0.60336 0.0
H1405 H 0.85306 0.92808 0.57385 0.0
H1406 H 0.8581 0.00443 0.58922 0.0
S1407 S 0.69669 0.77637 0.61468 0.0
N1408 N 0.72156 0.76889 0.60039 0.0
N1409 N 0.72762 0.85164 0.61707 0.0
C1410 C 0.76003 0.87393 0.60593 0.0
C1411 C 0.75657 0.82929 0.59687 0.0
C1412 C 0.91325 0.74742 0.75964 0.0
C1413 C 0.92263 0.77558 0.74743 0.0
C1414 C 0.87284 0.75066 0.7686 0.0
C1415 C 0.8411 0.7824 0.76557 0.0
H1416 H 0.93977 0.72563 0.76253 0.0
H1417 H 0.86832 0.73055 0.77809 0.0
S1418 S 0.84159 0.85427 0.73419 0.0
N1419 N 0.89168 0.82955 0.73226 0.0
N1420 N 0.81502 0.83521 0.74907 0.0
C1421 C 0.84692 0.80706 0.75311 0.0
C1422 C 0.88801 0.80382 0.74403 0.0
C1423 C 0.0871 0.9099 0.93667 0.0
C1424 C 0.05957 0.84631 0.93411 0.0
C1425 C 0.12831 0.95357 0.92789 0.0
C1426 C 0.14311 0.93515 0.91622 0.0
H1427 H 0.07553 0.92596 0.94539 0.0
H1428 H 0.14835 0.00226 0.93021 0.0
S1429 S 0.08418 0.77419 0.90505 0.0
N1430 N 0.05047 0.76675 0.91918 0.0
N1431 N 0.12872 0.84943 0.90268 0.0
C1432 C 0.11758 0.87176 0.91371 0.0
C1433 C 0.07552 0.82713 0.92266 0.0
loop_
_geom_bond_atom_site_label_1
_geom_bond_atom_site_label_2
_geom_bond_distance
_geom_bond_site_symmetry_2
_ccdc_geom_bond_type
C0 C1 1.359 . S
C0 N5 1.330 . S
C0 C61 1.504 . S
C1 C0 1.359 . S
C1 C2 1.366 . S
C1 H63 0.929 . S
C2 C1 1.366 . S
C2 C3 1.415 . S
C2 H64 0.932 . S
C3 C2 1.415 . S
C3 C4 1.366 . S
C3 H65 0.931 . S
C4 C3 1.366 . S
C4 N5 1.325 . S
C4 C6 1.516 . S
N5 C0 1.330 . S
N5 C4 1.325 . S
N5 Co21 1.869 . S
C6 C4 1.516 . S
C6 N30 1.316 . S
C6 O53 1.263 . S
C7 C8 1.421 . S
C7 C12 1.360 . S
C7 N30 1.436 . S
C8 C7 1.421 . S
C8 C9 1.379 . S
C8 H66 0.929 . S
C9 C8 1.379 . S
C9 C10 1.417 . S
C10 C9 1.417 . S
C10 C11 1.352 . S
C10 H67 0.929 . S
C11 C10 1.352 . S
C11 C12 1.393 . S
C12 C7 1.360 . S
C12 C11 1.393 . S
C12 H68 0.931 . S
Cd13 O33 2.329 1_554 S
Cd13 O35 2.350 . S
Cd13 O36 2.277 . S
Cd13 O38 2.173 . S
Cd13 O42 2.263 1_554 S
Cd13 O53 2.366 . S
Cd14 O32 2.352 . S
Cd14 O39 2.250 . S
Cd14 O43 2.308 . S
C15 C19 1.403 . S
C15 C20 1.370 . S
C15 N31 1.423 . S
C16 C17 1.389 . S
C16 C20 1.389 . S
C17 C16 1.389 . S
C17 C18 1.379 . S
C17 H69 0.929 . S
C18 C17 1.379 . S
C18 C19 1.405 . S
C19 C15 1.403 . S
C19 C18 1.405 . S
C19 H70 0.932 . S
C20 C15 1.370 . S
C20 C16 1.389 . S
C20 H71 0.931 . S
Co21 N5 1.869 . S
Co21 N22 1.955 . S
Co21 N23 1.864 . S
Co21 N29 1.958 . S
Co21 N30 1.953 . S
Co21 N31 1.974 . S
N22 Co21 1.955 . S
N22 C40 1.329 . S
N22 C55 1.432 . S
N23 Co21 1.864 . S
N23 C24 1.327 . S
N23 C28 1.342 . S
C24 N23 1.327 . S
C24 C25 1.407 . S
C24 C40 1.481 . S
C25 C24 1.407 . S
C25 C26 1.364 . S
C25 H72 0.930 . S
C26 C25 1.364 . S
C26 C27 1.390 . S
C26 H73 0.931 . S
C27 C26 1.390 . S
C27 C28 1.346 . S
C27 H74 0.930 . S
C28 N23 1.342 . S
C28 C27 1.346 . S
C28 C44 1.516 . S
N29 Co21 1.958 . S
N29 C44 1.324 . S
N29 C46 1.427 . S
N30 C6 1.316 . S
N30 C7 1.436 . S
N30 Co21 1.953 . S
N31 C15 1.423 . S
N31 Co21 1.974 . S
N31 C61 1.309 . S
O32 Cd14 2.352 . S
O32 C52 1.235 . S
O33 Cd13 2.329 1_556 S
O33 C52 1.270 . S
C34 O35 1.270 . S
C34 O36 1.248 . S
O35 Cd13 2.350 . S
O35 C34 1.270 . S
O36 Cd13 2.277 . S
O36 C34 1.248 . S
C37 O38 1.293 . S
C37 O39 1.205 1_554 S
O38 Cd13 2.173 . S
O38 C37 1.293 . S
O39 Cd14 2.250 . S
O39 C37 1.205 1_556 S
C40 N22 1.329 . S
C40 C24 1.481 . S
C40 O41 1.246 . S
O41 C40 1.246 . S
O42 Cd13 2.263 1_556 S
O42 C54 1.258 . S
O43 Cd14 2.308 . S
O43 C54 1.274 . S
C44 C28 1.516 . S
C44 N29 1.324 . S
C44 O45 1.238 . S
O45 C44 1.238 . S
C46 N29 1.427 . S
C46 C47 1.394 . S
C46 C51 1.395 . S
C47 C46 1.394 . S
C47 C48 1.380 . S
C47 H75 0.929 . S
C48 C47 1.380 . S
C48 C49 1.384 . S
C48 C54 1.495 1_554 S
C49 C48 1.384 . S
C49 C50 1.382 . S
C49 H76 0.930 1_554 S
C50 C49 1.382 . S
C50 C51 1.398 . S
C51 C46 1.395 . S
C51 C50 1.398 . S
C51 H77 0.930 . S
C52 O32 1.235 . S
C52 O33 1.270 . S
O53 C6 1.263 . S
O53 Cd13 2.366 . S
C54 O42 1.258 . S
C54 O43 1.274 . S
C54 C48 1.495 1_556 S
C55 N22 1.432 . S
C55 C56 1.381 . S
C55 C60 1.385 . S
C56 C55 1.381 . S
C56 C57 1.371 . S
C56 H78 0.932 . S
C57 C56 1.371 . S
C57 C58 1.400 . S
C58 C57 1.400 . S
C58 C59 1.351 . S
C58 H79 0.930 . S
C59 C58 1.351 . S
C59 C60 1.388 . S
C60 C55 1.385 . S
C60 C59 1.388 . S
C60 H80 0.929 . S
C61 C0 1.504 . S
C61 N31 1.309 . S
C61 O62 1.258 . S
O62 C61 1.258 . S
H63 C1 0.929 . S
H64 C2 0.932 . S
H65 C3 0.931 . S
H66 C8 0.929 . S
H67 C10 0.929 . S
H68 C12 0.931 . S
H69 C17 0.929 . S
H70 C19 0.932 . S
H71 C20 0.931 . S
H72 C25 0.930 . S
H73 C26 0.931 . S
H74 C27 0.930 . S
H75 C47 0.929 . S
H76 C49 0.930 1_556 S
H77 C51 0.930 . S
H78 C56 0.932 . S
H79 C58 0.930 . S
H80 C60 0.929 . S
C81 C82 1.359 . S
C81 N86 1.330 . S
C81 C142 1.504 . S
C82 C81 1.359 . S
C82 C83 1.366 . S
C82 H144 0.929 . S
C83 C82 1.366 . S
C83 C84 1.415 1_655 S
C83 H145 0.932 1_655 S
C84 C83 1.415 1_455 S
C84 C85 1.366 . S
C84 H146 0.931 . S
C85 C84 1.366 . S
C85 N86 1.325 1_455 S
C85 C87 1.516 . S
N86 C81 1.330 . S
N86 C85 1.325 1_655 S
N86 Co102 1.869 . S
C87 C85 1.516 . S
C87 N111 1.316 . S
C87 O134 1.263 . S
C88 C89 1.421 . S
C88 C93 1.360 . S
C88 N111 1.436 . S
C89 C88 1.421 . S
C89 C90 1.379 . S
C89 H147 0.929 . S
C90 C89 1.379 . S
C90 C91 1.417 . S
C91 C90 1.417 . S
C91 C92 1.352 . S
C91 H148 0.929 . S
C92 C91 1.352 . S
C92 C93 1.393 . S
C93 C88 1.360 . S
C93 C92 1.393 . S
C93 H149 0.931 1_455 S
Cd94 O114 2.329 . S
Cd94 O116 2.350 . S
Cd94 O117 2.277 . S
Cd94 O119 2.173 . S
Cd94 O123 2.263 . S
Cd94 O134 2.366 . S
Cd95 O113 2.352 . S
Cd95 O120 2.250 . S
Cd95 O124 2.308 1_455 S
C96 C100 1.403 . S
C96 C101 1.370 . S
C96 N112 1.423 . S
C97 C98 1.389 . S
C97 C101 1.389 . S
C98 C97 1.389 . S
C98 C99 1.379 . S
C98 H150 0.929 . S
C99 C98 1.379 . S
C99 C100 1.405 . S
C100 C96 1.403 . S
C100 C99 1.405 . S
C100 H151 0.932 . S
C101 C96 1.370 . S
C101 C97 1.389 . S
C101 H152 0.931 . S
Co102 N86 1.869 . S
Co102 N103 1.955 1_655 S
Co102 N104 1.864 . S
Co102 N110 1.958 . S
Co102 N111 1.953 1_655 S
Co102 N112 1.974 . S
N103 Co102 1.955 1_455 S
N103 C121 1.329 . S
N103 C136 1.432 . S
N104 Co102 1.864 . S
N104 C105 1.327 . S
N104 C109 1.342 . S
C105 N104 1.327 . S
C105 C106 1.407 . S
C105 C121 1.481 1_655 S
C106 C105 1.407 . S
C106 C107 1.364 . S
C106 H153 0.930 . S
C107 C106 1.364 . S
C107 C108 1.390 . S
C107 H154 0.931 . S
C108 C107 1.390 . S
C108 C109 1.346 . S
C108 H155 0.930 . S
C109 N104 1.342 . S
C109 C108 1.346 . S
C109 C125 1.516 . S
N110 Co102 1.958 . S
N110 C125 1.324 . S
N110 C127 1.427 . S
N111 C87 1.316 . S
N111 C88 1.436 . S
N111 Co102 1.953 1_455 S
N112 C96 1.423 . S
N112 Co102 1.974 . S
N112 C142 1.309 . S
O113 Cd95 2.352 . S
O113 C133 1.235 . S
O114 Cd94 2.329 . S
O114 C133 1.270 . S
C115 O116 1.270 . S
C115 O117 1.248 . S
O116 Cd94 2.350 . S
O116 C115 1.270 . S
O117 Cd94 2.277 . S
O117 C115 1.248 . S
C118 O119 1.277 . S
C118 O120 1.230 . S
O119 Cd94 2.173 . S
O119 C118 1.277 . S
O120 Cd95 2.250 . S
O120 C118 1.230 . S
C121 N103 1.329 . S
C121 C105 1.481 1_455 S
C121 O122 1.246 . S
O122 C121 1.246 . S
O123 Cd94 2.263 . S
O123 C135 1.258 1_455 S
O124 Cd95 2.308 1_655 S
O124 C135 1.274 . S
C125 C109 1.516 . S
C125 N110 1.324 . S
C125 O126 1.238 . S
O126 C125 1.238 . S
C127 N110 1.427 . S
C127 C128 1.394 . S
C127 C132 1.395 . S
C128 C127 1.394 . S
C128 C129 1.380 . S
C128 H156 0.929 . S
C129 C128 1.380 . S
C129 C130 1.384 . S
C129 C135 1.495 . S
C130 C129 1.384 . S
C130 C131 1.382 . S
C130 H157 0.930 . S
C131 C130 1.382 . S
C131 C132 1.398 . S
C132 C127 1.395 . S
C132 C131 1.398 . S
C132 H158 0.930 . S
C133 O113 1.235 . S
C133 O114 1.270 . S
O134 C87 1.263 . S
O134 Cd94 2.366 . S
C135 O123 1.258 1_655 S
C135 O124 1.274 . S
C135 C129 1.495 . S
C136 N103 1.432 . S
C136 C137 1.381 . S
C136 C141 1.385 . S
C137 C136 1.381 . S
C137 C138 1.371 . S
C137 H159 0.932 1_455 S
C138 C137 1.371 . S
C138 C139 1.400 . S
C139 C138 1.400 . S
C139 C140 1.351 . S
C139 H160 0.930 . S
C140 C139 1.351 . S
C140 C141 1.388 . S
C141 C136 1.385 . S
C141 C140 1.388 . S
C141 H161 0.929 . S
C142 C81 1.504 . S
C142 N112 1.309 . S
C142 O143 1.258 . S
O143 C142 1.258 . S
H144 C82 0.929 . S
H145 C83 0.932 1_455 S
H146 C84 0.931 . S
H147 C89 0.929 . S
H148 C91 0.929 . S
H149 C93 0.931 1_655 S
H150 C98 0.929 . S
H151 C100 0.932 . S
H152 C101 0.931 . S
H153 C106 0.930 . S
H154 C107 0.931 . S
H155 C108 0.930 . S
H156 C128 0.929 . S
H157 C130 0.930 . S
H158 C132 0.930 . S
H159 C137 0.932 1_655 S
H160 C139 0.930 . S
H161 C141 0.929 . S
C162 C163 1.359 . S
C162 N167 1.330 . S
C162 C223 1.504 . S
C163 C162 1.359 . S
C163 C164 1.366 . S
C163 H225 0.929 . S
C164 C163 1.366 . S
C164 C165 1.415 1_565 S
C164 H226 0.932 1_565 S
C165 C164 1.415 1_545 S
C165 C166 1.366 . S
C165 H227 0.931 . S
C166 C165 1.366 . S
C166 N167 1.325 1_545 S
C166 C168 1.516 . S
N167 C162 1.330 . S
N167 C166 1.325 1_565 S
N167 Co183 1.869 . S
C168 C166 1.516 . S
C168 N192 1.316 . S
C168 O215 1.263 . S
C169 C170 1.421 . S
C169 C174 1.360 . S
C169 N192 1.436 . S
C170 C169 1.421 . S
C170 C171 1.379 . S
C170 H228 0.929 . S
C171 C170 1.379 . S
C171 C172 1.417 . S
C172 C171 1.417 . S
C172 C173 1.352 . S
C172 H229 0.929 . S
C173 C172 1.352 . S
C173 C174 1.393 . S
C174 C169 1.360 . S
C174 C173 1.393 . S
C174 H230 0.931 1_545 S
Cd175 O195 2.329 . S
Cd175 O197 2.350 . S
Cd175 O198 2.277 . S
Cd175 O200 2.173 . S
Cd175 O204 2.263 . S
Cd175 O215 2.366 . S
Cd176 O194 2.352 . S
Cd176 O201 2.250 . S
Cd176 O205 2.308 1_545 S
C177 C181 1.403 . S
C177 C182 1.370 . S
C177 N193 1.423 . S
C178 C179 1.389 . S
C178 C182 1.389 . S
C179 C178 1.389 . S
C179 C180 1.379 . S
C179 H231 0.929 . S
C180 C179 1.379 . S
C180 C181 1.405 . S
C181 C177 1.403 . S
C181 C180 1.405 . S
C181 H232 0.932 . S
C182 C177 1.370 . S
C182 C178 1.389 . S
C182 H233 0.931 . S
Co183 N167 1.869 . S
Co183 N184 1.955 1_565 S
Co183 N185 1.864 . S
Co183 N191 1.958 . S
Co183 N192 1.953 1_565 S
Co183 N193 1.974 . S
N184 Co183 1.955 1_545 S
N184 C202 1.329 . S
N184 C217 1.432 . S
N185 Co183 1.864 . S
N185 C186 1.327 . S
N185 C190 1.342 . S
C186 N185 1.327 . S
C186 C187 1.407 . S
C186 C202 1.481 1_565 S
C187 C186 1.407 . S
C187 C188 1.364 . S
C187 H234 0.930 . S
C188 C187 1.364 . S
C188 C189 1.390 . S
C188 H235 0.931 . S
C189 C188 1.390 . S
C189 C190 1.346 . S
C189 H236 0.930 . S
C190 N185 1.342 . S
C190 C189 1.346 . S
C190 C206 1.516 . S
N191 Co183 1.958 . S
N191 C206 1.324 . S
N191 C208 1.427 . S
N192 C168 1.316 . S
N192 C169 1.436 . S
N192 Co183 1.953 1_545 S
N193 C177 1.423 . S
N193 Co183 1.974 . S
N193 C223 1.309 . S
O194 Cd176 2.352 . S
O194 C214 1.235 . S
O195 Cd175 2.329 . S
O195 C214 1.270 . S
C196 O197 1.270 . S
C196 O198 1.248 . S
O197 Cd175 2.350 . S
O197 C196 1.270 . S
O198 Cd175 2.277 . S
O198 C196 1.248 . S
C199 O200 1.277 . S
C199 O201 1.230 . S
O200 Cd175 2.173 . S
O200 C199 1.277 . S
O201 Cd176 2.250 . S
O201 C199 1.230 . S
C202 N184 1.329 . S
C202 C186 1.481 1_545 S
C202 O203 1.246 . S
O203 C202 1.246 . S
O204 Cd175 2.263 . S
O204 C216 1.258 1_545 S
O205 Cd176 2.308 1_565 S
O205 C216 1.274 . S
C206 C190 1.516 . S
C206 N191 1.324 . S
C206 O207 1.238 . S
O207 C206 1.238 . S
C208 N191 1.427 . S
C208 C209 1.394 . S
C208 C213 1.395 . S
C209 C208 1.394 . S
C209 C210 1.380 . S
C209 H237 0.929 . S
C210 C209 1.380 . S
C210 C211 1.384 . S
C210 C216 1.495 . S
C211 C210 1.384 . S
C211 C212 1.382 . S
C211 H238 0.930 . S
C212 C211 1.382 . S
C212 C213 1.398 . S
C213 C208 1.395 . S
C213 C212 1.398 . S
C213 H239 0.930 . S
C214 O194 1.235 . S
C214 O195 1.270 . S
O215 C168 1.263 . S
O215 Cd175 2.366 . S
C216 O204 1.258 1_565 S
C216 O205 1.274 . S
C216 C210 1.495 . S
C217 N184 1.432 . S
C217 C218 1.381 . S
C217 C222 1.385 . S
C218 C217 1.381 . S
C218 C219 1.371 . S
C218 H240 0.932 1_545 S
C219 C218 1.371 . S
C219 C220 1.400 . S
C220 C219 1.400 . S
C220 C221 1.351 . S
C220 H241 0.930 . S
C221 C220 1.351 . S
C221 C222 1.388 . S
C222 C217 1.385 . S
C222 C221 1.388 . S
C222 H242 0.929 . S
C223 C162 1.504 . S
C223 N193 1.309 . S
C223 O224 1.258 . S
O224 C223 1.258 . S
H225 C163 0.929 . S
H226 C164 0.932 1_545 S
H227 C165 0.931 . S
H228 C170 0.929 . S
H229 C172 0.929 . S
H230 C174 0.931 1_565 S
H231 C179 0.929 . S
H232 C181 0.932 . S
H233 C182 0.931 . S
H234 C187 0.930 . S
H235 C188 0.931 . S
H236 C189 0.930 . S
H237 C209 0.929 . S
H238 C211 0.930 . S
H239 C213 0.930 . S
H240 C218 0.932 1_565 S
H241 C220 0.930 . S
H242 C222 0.929 . S
C243 C244 1.359 . S
C243 N248 1.330 . S
C243 C304 1.504 . S
C244 C243 1.359 . S
C244 C245 1.366 . S
C244 H306 0.929 . S
C245 C244 1.366 . S
C245 C246 1.415 . S
C245 H307 0.932 . S
C246 C245 1.415 . S
C246 C247 1.366 . S
C246 H308 0.931 . S
C247 C246 1.366 . S
C247 N248 1.325 . S
C247 C249 1.516 . S
N248 C243 1.330 . S
N248 C247 1.325 . S
N248 Co264 1.869 . S
C249 C247 1.516 . S
C249 N273 1.316 . S
C249 O296 1.263 . S
C250 C251 1.421 . S
C250 C255 1.360 . S
C250 N273 1.436 . S
C251 C250 1.421 . S
C251 C252 1.379 . S
C251 H309 0.929 . S
C252 C251 1.379 . S
C252 C253 1.417 . S
C253 C252 1.417 . S
C253 C254 1.352 . S
C253 H310 0.929 . S
C254 C253 1.352 . S
C254 C255 1.393 . S
C255 C250 1.360 . S
C255 C254 1.393 . S
C255 H311 0.931 . S
Cd256 O276 2.329 . S
Cd256 O278 2.350 . S
Cd256 O279 2.277 . S
Cd256 O281 2.173 . S
Cd256 O285 2.263 . S
Cd256 O296 2.366 . S
Cd257 O275 2.352 . S
Cd257 O282 2.250 . S
Cd257 O286 2.308 . S
C258 C262 1.403 . S
C258 C263 1.370 . S
C258 N274 1.423 . S
C259 C260 1.389 . S
C259 C263 1.389 . S
C260 C259 1.389 . S
C260 C261 1.379 . S
C260 H312 0.929 . S
C261 C260 1.379 . S
C261 C262 1.405 . S
C262 C258 1.403 . S
C262 C261 1.405 . S
C262 H313 0.932 . S
C263 C258 1.370 . S
C263 C259 1.389 . S
C263 H314 0.931 . S
Co264 N248 1.869 . S
Co264 N265 1.955 . S
Co264 N266 1.864 . S
Co264 N272 1.958 . S
Co264 N273 1.953 . S
Co264 N274 1.974 . S
N265 Co264 1.955 . S
N265 C283 1.329 . S
N265 C298 1.432 . S
N266 Co264 1.864 . S
N266 C267 1.327 . S
N266 C271 1.342 . S
C267 N266 1.327 . S
C267 C268 1.407 . S
C267 C283 1.481 . S
C268 C267 1.407 . S
C268 C269 1.364 . S
C268 H315 0.930 . S
C269 C268 1.364 . S
C269 C270 1.390 . S
C269 H316 0.931 . S
C270 C269 1.390 . S
C270 C271 1.346 . S
C270 H317 0.930 . S
C271 N266 1.342 . S
C271 C270 1.346 . S
C271 C287 1.516 . S
N272 Co264 1.958 . S
N272 C287 1.324 . S
N272 C289 1.427 . S
N273 C249 1.316 . S
N273 C250 1.436 . S
N273 Co264 1.953 . S
N274 C258 1.423 . S
N274 Co264 1.974 . S
N274 C304 1.309 . S
O275 Cd257 2.352 . S
O275 C295 1.235 . S
O276 Cd256 2.329 . S
O276 C295 1.270 . S
C277 O278 1.270 . S
C277 O279 1.248 . S
O278 Cd256 2.350 . S
O278 C277 1.270 . S
O279 Cd256 2.277 . S
O279 C277 1.248 . S
C280 O281 1.277 . S
C280 O282 1.230 . S
O281 Cd256 2.173 . S
O281 C280 1.277 . S
O282 Cd257 2.250 . S
O282 C280 1.230 . S
C283 N265 1.329 . S
C283 C267 1.481 . S
C283 O284 1.246 . S
O284 C283 1.246 . S
O285 Cd256 2.263 . S
O285 C297 1.258 . S
O286 Cd257 2.308 . S
O286 C297 1.274 . S
C287 C271 1.516 . S
C287 N272 1.324 . S
C287 O288 1.238 . S
O288 C287 1.238 . S
C289 N272 1.427 . S
C289 C290 1.394 . S
C289 C294 1.395 . S
C290 C289 1.394 . S
C290 C291 1.380 . S
C290 H318 0.929 . S
C291 C290 1.380 . S
C291 C292 1.384 . S
C291 C297 1.495 . S
C292 C291 1.384 . S
C292 C293 1.382 . S
C292 H319 0.930 . S
C293 C292 1.382 . S
C293 C294 1.398 . S
C294 C289 1.395 . S
C294 C293 1.398 . S
C294 H320 0.930 . S
C295 O275 1.235 . S
C295 O276 1.270 . S
O296 C249 1.263 . S
O296 Cd256 2.366 . S
C297 O285 1.258 . S
C297 O286 1.274 . S
C297 C291 1.495 . S
C298 N265 1.432 . S
C298 C299 1.381 . S
C298 C303 1.385 . S
C299 C298 1.381 . S
C299 C300 1.371 . S
C299 H321 0.932 . S
C300 C299 1.371 . S
C300 C301 1.400 . S
C301 C300 1.400 . S
C301 C302 1.351 . S
C301 H322 0.930 . S
C302 C301 1.351 . S
C302 C303 1.388 . S
C303 C298 1.385 . S
C303 C302 1.388 . S
C303 H323 0.929 . S
C304 C243 1.504 . S
C304 N274 1.309 . S
C304 O305 1.258 . S
O305 C304 1.258 . S
H306 C244 0.929 . S
H307 C245 0.932 . S
H308 C246 0.931 . S
H309 C251 0.929 . S
H310 C253 0.929 . S
H311 C255 0.931 . S
H312 C260 0.929 . S
H313 C262 0.932 . S
H314 C263 0.931 . S
H315 C268 0.930 . S
H316 C269 0.931 . S
H317 C270 0.930 . S
H318 C290 0.929 . S
H319 C292 0.930 . S
H320 C294 0.930 . S
H321 C299 0.932 . S
H322 C301 0.930 . S
H323 C303 0.929 . S
C324 C325 1.359 . S
C324 N329 1.330 . S
C324 C385 1.504 . S
C325 C324 1.359 . S
C325 C326 1.366 . S
C325 H387 0.929 . S
C326 C325 1.366 . S
C326 C327 1.415 1_455 S
C326 H388 0.932 1_455 S
C327 C326 1.415 1_655 S
C327 C328 1.366 . S
C327 H389 0.931 . S
C328 C327 1.366 . S
C328 N329 1.325 1_655 S
C328 C330 1.516 . S
N329 C324 1.330 . S
N329 C328 1.325 1_455 S
N329 Co345 1.869 . S
C330 C328 1.516 . S
C330 N354 1.316 . S
C330 O377 1.263 . S
C331 C332 1.421 . S
C331 C336 1.360 . S
C331 N354 1.436 . S
C332 C331 1.421 . S
C332 C333 1.379 . S
C332 H390 0.929 . S
C333 C332 1.379 . S
C333 C334 1.417 . S
C334 C333 1.417 . S
C334 C335 1.352 . S
C334 H391 0.929 . S
C335 C334 1.352 . S
C335 C336 1.393 . S
C336 C331 1.360 . S
C336 C335 1.393 . S
C336 H392 0.931 1_655 S
Cd337 O357 2.329 . S
Cd337 O359 2.350 . S
Cd337 O360 2.277 . S
Cd337 O362 2.173 . S
Cd337 O366 2.263 . S
Cd337 O377 2.366 . S
Cd338 O356 2.352 . S
Cd338 O363 2.250 . S
Cd338 O367 2.308 1_655 S
C339 C343 1.403 . S
C339 C344 1.370 . S
C339 N355 1.423 . S
C340 C341 1.389 . S
C340 C344 1.389 . S
C341 C340 1.389 . S
C341 C342 1.379 . S
C341 H393 0.929 . S
C342 C341 1.379 . S
C342 C343 1.405 . S
C343 C339 1.403 . S
C343 C342 1.405 . S
C343 H394 0.932 . S
C344 C339 1.370 . S
C344 C340 1.389 . S
C344 H395 0.931 . S
Co345 N329 1.869 . S
Co345 N346 1.955 1_455 S
Co345 N347 1.864 . S
Co345 N353 1.958 . S
Co345 N354 1.953 1_455 S
Co345 N355 1.974 . S
N346 Co345 1.955 1_655 S
N346 C364 1.329 . S
N346 C379 1.432 . S
N347 Co345 1.864 . S
N347 C348 1.327 . S
N347 C352 1.342 . S
C348 N347 1.327 . S
C348 C349 1.407 . S
C348 C364 1.481 1_455 S
C349 C348 1.407 . S
C349 C350 1.364 . S
C349 H396 0.930 . S
C350 C349 1.364 . S
C350 C351 1.390 . S
C350 H397 0.931 . S
C351 C350 1.390 . S
C351 C352 1.346 . S
C351 H398 0.930 . S
C352 N347 1.342 . S
C352 C351 1.346 . S
C352 C368 1.516 . S
N353 Co345 1.958 . S
N353 C368 1.324 . S
N353 C370 1.427 . S
N354 C330 1.316 . S
N354 C331 1.436 . S
N354 Co345 1.953 1_655 S
N355 C339 1.423 . S
N355 Co345 1.974 . S
N355 C385 1.309 . S
O356 Cd338 2.352 . S
O356 C376 1.235 . S
O357 Cd337 2.329 . S
O357 C376 1.270 . S
C358 O359 1.270 . S
C358 O360 1.248 . S
O359 Cd337 2.350 . S
O359 C358 1.270 . S
O360 Cd337 2.277 . S
O360 C358 1.248 . S
C361 O362 1.277 . S
C361 O363 1.230 . S
O362 Cd337 2.173 . S
O362 C361 1.277 . S
O363 Cd338 2.250 . S
O363 C361 1.230 . S
C364 N346 1.329 . S
C364 C348 1.481 1_655 S
C364 O365 1.246 . S
O365 C364 1.246 . S
O366 Cd337 2.263 . S
O366 C378 1.258 1_655 S
O367 Cd338 2.308 1_455 S
O367 C378 1.274 . S
C368 C352 1.516 . S
C368 N353 1.324 . S
C368 O369 1.238 . S
O369 C368 1.238 . S
C370 N353 1.427 . S
C370 C371 1.394 . S
C370 C375 1.395 . S
C371 C370 1.394 . S
C371 C372 1.380 . S
C371 H399 0.929 . S
C372 C371 1.380 . S
C372 C373 1.384 . S
C372 C378 1.495 . S
C373 C372 1.384 . S
C373 C374 1.382 . S
C373 H400 0.930 . S
C374 C373 1.382 . S
C374 C375 1.398 . S
C375 C370 1.395 . S
C375 C374 1.398 . S
C375 H401 0.930 . S
C376 O356 1.235 . S
C376 O357 1.270 . S
O377 C330 1.263 . S
O377 Cd337 2.366 . S
C378 O366 1.258 1_455 S
C378 O367 1.274 . S
C378 C372 1.495 . S
C379 N346 1.432 . S
C379 C380 1.381 . S
C379 C384 1.385 . S
C380 C379 1.381 . S
C380 C381 1.371 . S
C380 H402 0.932 1_655 S
C381 C380 1.371 . S
C381 C382 1.400 . S
C382 C381 1.400 . S
C382 C383 1.351 . S
C382 H403 0.930 . S
C383 C382 1.351 . S
C383 C384 1.388 . S
C384 C379 1.385 . S
C384 C383 1.388 . S
C384 H404 0.929 . S
C385 C324 1.504 . S
C385 N355 1.309 . S
C385 O386 1.258 . S
O386 C385 1.258 . S
H387 C325 0.929 . S
H388 C326 0.932 1_655 S
H389 C327 0.931 . S
H390 C332 0.929 . S
H391 C334 0.929 . S
H392 C336 0.931 1_455 S
H393 C341 0.929 . S
H394 C343 0.932 . S
H395 C344 0.931 . S
H396 C349 0.930 . S
H397 C350 0.931 . S
H398 C351 0.930 . S
H399 C371 0.929 . S
H400 C373 0.930 . S
H401 C375 0.930 . S
H402 C380 0.932 1_455 S
H403 C382 0.930 . S
H404 C384 0.929 . S
C405 C406 1.359 . S
C405 N410 1.330 . S
C405 C466 1.504 . S
C406 C405 1.359 . S
C406 C407 1.366 . S
C406 H468 0.929 . S
C407 C406 1.366 . S
C407 C408 1.415 1_545 S
C407 H469 0.932 1_545 S
C408 C407 1.415 1_565 S
C408 C409 1.366 . S
C408 H470 0.931 . S
C409 C408 1.366 . S
C409 N410 1.325 1_565 S
C409 C411 1.516 . S
N410 C405 1.330 . S
N410 C409 1.325 1_545 S
N410 Co426 1.869 . S
C411 C409 1.516 . S
C411 N435 1.316 . S
C411 O458 1.263 . S
C412 C413 1.421 . S
C412 C417 1.360 . S
C412 N435 1.436 . S
C413 C412 1.421 . S
C413 C414 1.379 . S
C413 H471 0.929 . S
C414 C413 1.379 . S
C414 C415 1.417 . S
C415 C414 1.417 . S
C415 C416 1.352 . S
C415 H472 0.929 . S
C416 C415 1.352 . S
C416 C417 1.393 . S
C417 C412 1.360 . S
C417 C416 1.393 . S
C417 H473 0.931 1_565 S
Cd418 O438 2.329 . S
Cd418 O440 2.350 . S
Cd418 O441 2.277 . S
Cd418 O443 2.173 . S
Cd418 O447 2.263 . S
Cd418 O458 2.366 . S
Cd419 O437 2.352 . S
Cd419 O444 2.250 . S
Cd419 O448 2.308 1_565 S
C420 C424 1.403 . S
C420 C425 1.370 . S
C420 N436 1.423 . S
C421 C422 1.389 . S
C421 C425 1.389 . S
C422 C421 1.389 . S
C422 C423 1.379 . S
C422 H474 0.929 . S
C423 C422 1.379 . S
C423 C424 1.405 . S
C424 C420 1.403 . S
C424 C423 1.405 . S
C424 H475 0.932 . S
C425 C420 1.370 . S
C425 C421 1.389 . S
C425 H476 0.931 . S
Co426 N410 1.869 . S
Co426 N427 1.955 1_545 S
Co426 N428 1.864 . S
Co426 N434 1.958 . S
Co426 N435 1.953 1_545 S
Co426 N436 1.974 . S
N427 Co426 1.955 1_565 S
N427 C445 1.329 . S
N427 C460 1.432 . S
N428 Co426 1.864 . S
N428 C429 1.327 . S
N428 C433 1.342 . S
C429 N428 1.327 . S
C429 C430 1.407 . S
C429 C445 1.481 1_545 S
C430 C429 1.407 . S
C430 C431 1.364 . S
C430 H477 0.930 . S
C431 C430 1.364 . S
C431 C432 1.390 . S
C431 H478 0.931 . S
C432 C431 1.390 . S
C432 C433 1.346 . S
C432 H479 0.930 . S
C433 N428 1.342 . S
C433 C432 1.346 . S
C433 C449 1.516 . S
N434 Co426 1.958 . S
N434 C449 1.324 . S
N434 C451 1.427 . S
N435 C411 1.316 . S
N435 C412 1.436 . S
N435 Co426 1.953 1_565 S
N436 C420 1.423 . S
N436 Co426 1.974 . S
N436 C466 1.309 . S
O437 Cd419 2.352 . S
O437 C457 1.235 . S
O438 Cd418 2.329 . S
O438 C457 1.270 . S
C439 O440 1.270 . S
C439 O441 1.248 . S
O440 Cd418 2.350 . S
O440 C439 1.270 . S
O441 Cd418 2.277 . S
O441 C439 1.248 . S
C442 O443 1.277 . S
C442 O444 1.230 . S
O443 Cd418 2.173 . S
O443 C442 1.277 . S
O444 Cd419 2.250 . S
O444 C442 1.230 . S
C445 N427 1.329 . S
C445 C429 1.481 1_565 S
C445 O446 1.246 . S
O446 C445 1.246 . S
O447 Cd418 2.263 . S
O447 C459 1.258 1_565 S
O448 Cd419 2.308 1_545 S
O448 C459 1.274 . S
C449 C433 1.516 . S
C449 N434 1.324 . S
C449 O450 1.238 . S
O450 C449 1.238 . S
C451 N434 1.427 . S
C451 C452 1.394 . S
C451 C456 1.395 . S
C452 C451 1.394 . S
C452 C453 1.380 . S
C452 H480 0.929 . S
C453 C452 1.380 . S
C453 C454 1.384 . S
C453 C459 1.495 . S
C454 C453 1.384 . S
C454 C455 1.382 . S
C454 H481 0.930 . S
C455 C454 1.382 . S
C455 C456 1.398 . S
C456 C451 1.395 . S
C456 C455 1.398 . S
C456 H482 0.930 . S
C457 O437 1.235 . S
C457 O438 1.270 . S
O458 C411 1.263 . S
O458 Cd418 2.366 . S
C459 O447 1.258 1_545 S
C459 O448 1.274 . S
C459 C453 1.495 . S
C460 N427 1.432 . S
C460 C461 1.381 . S
C460 C465 1.385 . S
C461 C460 1.381 . S
C461 C462 1.371 . S
C461 H483 0.932 1_565 S
C462 C461 1.371 . S
C462 C463 1.400 . S
C463 C462 1.400 . S
C463 C464 1.351 . S
C463 H484 0.930 . S
C464 C463 1.351 . S
C464 C465 1.388 . S
C465 C460 1.385 . S
C465 C464 1.388 . S
C465 H485 0.929 . S
C466 C405 1.504 . S
C466 N436 1.309 . S
C466 O467 1.258 . S
O467 C466 1.258 . S
H468 C406 0.929 . S
H469 C407 0.932 1_565 S
H470 C408 0.931 . S
H471 C413 0.929 . S
H472 C415 0.929 . S
H473 C417 0.931 1_545 S
H474 C422 0.929 . S
H475 C424 0.932 . S
H476 C425 0.931 . S
H477 C430 0.930 . S
H478 C431 0.931 . S
H479 C432 0.930 . S
H480 C452 0.929 . S
H481 C454 0.930 . S
H482 C456 0.930 . S
H483 C461 0.932 1_545 S
H484 C463 0.930 . S
H485 C465 0.929 . S
C486 C487 1.359 . S
C486 N491 1.330 . S
C486 C547 1.504 . S
C487 C486 1.359 . S
C487 C488 1.366 . S
C487 H549 0.929 . S
C488 C487 1.366 . S
C488 C489 1.415 . S
C488 H550 0.932 . S
C489 C488 1.415 . S
C489 C490 1.366 . S
C489 H551 0.931 . S
C490 C489 1.366 . S
C490 N491 1.325 . S
C490 C492 1.516 . S
N491 C486 1.330 . S
N491 C490 1.325 . S
N491 Co507 1.869 . S
C492 C490 1.516 . S
C492 N516 1.316 . S
C492 O539 1.263 . S
C493 C494 1.421 . S
C493 C498 1.360 . S
C493 N516 1.436 . S
C494 C493 1.421 . S
C494 C495 1.379 . S
C494 H552 0.929 . S
C495 C494 1.379 . S
C495 C496 1.417 . S
C496 C495 1.417 . S
C496 C497 1.352 . S
C496 H553 0.929 . S
C497 C496 1.352 . S
C497 C498 1.393 . S
C498 C493 1.360 . S
C498 C497 1.393 . S
C498 H554 0.931 . S
Cd499 O519 2.329 . S
Cd499 O521 2.350 . S
Cd499 O522 2.277 . S
Cd499 O524 2.173 . S
Cd499 O528 2.263 . S
Cd499 O539 2.366 . S
Cd500 O518 2.352 . S
Cd500 O525 2.250 . S
Cd500 O529 2.308 . S
C501 C505 1.403 . S
C501 C506 1.370 . S
C501 N517 1.423 . S
C502 C503 1.389 . S
C502 C506 1.389 . S
C503 C502 1.389 . S
C503 C504 1.379 . S
C503 H555 0.929 . S
C504 C503 1.379 . S
C504 C505 1.405 . S
C505 C501 1.403 . S
C505 C504 1.405 . S
C505 H556 0.932 . S
C506 C501 1.370 . S
C506 C502 1.389 . S
C506 H557 0.931 . S
Co507 N491 1.869 . S
Co507 N508 1.955 . S
Co507 N509 1.864 . S
Co507 N515 1.958 . S
Co507 N516 1.953 . S
Co507 N517 1.974 . S
N508 Co507 1.955 . S
N508 C526 1.329 . S
N508 C541 1.432 . S
N509 Co507 1.864 . S
N509 C510 1.327 . S
N509 C514 1.342 . S
C510 N509 1.327 . S
C510 C511 1.407 . S
C510 C526 1.481 . S
C511 C510 1.407 . S
C511 C512 1.364 . S
C511 H558 0.930 . S
C512 C511 1.364 . S
C512 C513 1.390 . S
C512 H559 0.931 . S
C513 C512 1.390 . S
C513 C514 1.346 . S
C513 H560 0.930 . S
C514 N509 1.342 . S
C514 C513 1.346 . S
C514 C530 1.516 . S
N515 Co507 1.958 . S
N515 C530 1.324 . S
N515 C532 1.427 . S
N516 C492 1.316 . S
N516 C493 1.436 . S
N516 Co507 1.953 . S
N517 C501 1.423 . S
N517 Co507 1.974 . S
N517 C547 1.309 . S
O518 Cd500 2.352 . S
O518 C538 1.235 . S
O519 Cd499 2.329 . S
O519 C538 1.270 . S
C520 O521 1.270 . S
C520 O522 1.248 . S
O521 Cd499 2.350 . S
O521 C520 1.270 . S
O522 Cd499 2.277 . S
O522 C520 1.248 . S
C523 O524 1.277 . S
C523 O525 1.230 . S
O524 Cd499 2.173 . S
O524 C523 1.277 . S
O525 Cd500 2.250 . S
O525 C523 1.230 . S
C526 N508 1.329 . S
C526 C510 1.481 . S
C526 O527 1.246 . S
O527 C526 1.246 . S
O528 Cd499 2.263 . S
O528 C540 1.258 . S
O529 Cd500 2.308 . S
O529 C540 1.274 . S
C530 C514 1.516 . S
C530 N515 1.324 . S
C530 O531 1.238 . S
O531 C530 1.238 . S
C532 N515 1.427 . S
C532 C533 1.394 . S
C532 C537 1.395 . S
C533 C532 1.394 . S
C533 C534 1.380 . S
C533 H561 0.929 . S
C534 C533 1.380 . S
C534 C535 1.384 . S
C534 C540 1.495 . S
C535 C534 1.384 . S
C535 C536 1.382 . S
C535 H562 0.930 . S
C536 C535 1.382 . S
C536 C537 1.398 . S
C537 C532 1.395 . S
C537 C536 1.398 . S
C537 H563 0.930 . S
C538 O518 1.235 . S
C538 O519 1.270 . S
O539 C492 1.263 . S
O539 Cd499 2.366 . S
C540 O528 1.258 . S
C540 O529 1.274 . S
C540 C534 1.495 . S
C541 N508 1.432 . S
C541 C542 1.381 . S
C541 C546 1.385 . S
C542 C541 1.381 . S
C542 C543 1.371 . S
C542 H564 0.932 . S
C543 C542 1.371 . S
C543 C544 1.400 . S
C544 C543 1.400 . S
C544 C545 1.351 . S
C544 H565 0.930 . S
C545 C544 1.351 . S
C545 C546 1.388 . S
C546 C541 1.385 . S
C546 C545 1.388 . S
C546 H566 0.929 . S
C547 C486 1.504 . S
C547 N517 1.309 . S
C547 O548 1.258 . S
O548 C547 1.258 . S
H549 C487 0.929 . S
H550 C488 0.932 . S
H551 C489 0.931 . S
H552 C494 0.929 . S
H553 C496 0.929 . S
H554 C498 0.931 . S
H555 C503 0.929 . S
H556 C505 0.932 . S
H557 C506 0.931 . S
H558 C511 0.930 . S
H559 C512 0.931 . S
H560 C513 0.930 . S
H561 C533 0.929 . S
H562 C535 0.930 . S
H563 C537 0.930 . S
H564 C542 0.932 . S
H565 C544 0.930 . S
H566 C546 0.929 . S
C567 C568 1.359 . S
C567 N572 1.330 . S
C567 C628 1.504 . S
C568 C567 1.359 . S
C568 C569 1.366 . S
C568 H630 0.929 . S
C569 C568 1.366 . S
C569 C570 1.415 1_655 S
C569 H631 0.932 1_655 S
C570 C569 1.415 1_455 S
C570 C571 1.366 . S
C570 H632 0.931 . S
C571 C570 1.366 . S
C571 N572 1.325 1_455 S
C571 C573 1.516 . S
N572 C567 1.330 . S
N572 C571 1.325 1_655 S
N572 Co588 1.869 . S
C573 C571 1.516 . S
C573 N597 1.316 . S
C573 O620 1.263 . S
C574 C575 1.421 . S
C574 C579 1.360 . S
C574 N597 1.436 . S
C575 C574 1.421 . S
C575 C576 1.379 . S
C575 H633 0.929 . S
C576 C575 1.379 . S
C576 C577 1.417 . S
C577 C576 1.417 . S
C577 C578 1.352 . S
C577 H634 0.929 . S
C578 C577 1.352 . S
C578 C579 1.393 . S
C579 C574 1.360 . S
C579 C578 1.393 . S
C579 H635 0.931 1_455 S
Cd580 O600 2.329 1_556 S
Cd580 O602 2.350 . S
Cd580 O603 2.277 . S
Cd580 O605 2.173 . S
Cd580 O609 2.263 1_556 S
Cd580 O620 2.366 . S
Cd581 O599 2.352 . S
Cd581 O606 2.250 . S
Cd581 O610 2.308 1_455 S
C582 C586 1.403 . S
C582 C587 1.370 . S
C582 N598 1.423 . S
C583 C584 1.389 . S
C583 C587 1.389 . S
C584 C583 1.389 . S
C584 C585 1.379 . S
C584 H636 0.929 . S
C585 C584 1.379 . S
C585 C586 1.405 . S
C586 C582 1.403 . S
C586 C585 1.405 . S
C586 H637 0.932 . S
C587 C582 1.370 . S
C587 C583 1.389 . S
C587 H638 0.931 . S
Co588 N572 1.869 . S
Co588 N589 1.955 1_655 S
Co588 N590 1.864 . S
Co588 N596 1.958 . S
Co588 N597 1.953 1_655 S
Co588 N598 1.974 . S
N589 Co588 1.955 1_455 S
N589 C607 1.329 . S
N589 C622 1.432 . S
N590 Co588 1.864 . S
N590 C591 1.327 . S
N590 C595 1.342 . S
C591 N590 1.327 . S
C591 C592 1.407 . S
C591 C607 1.481 1_655 S
C592 C591 1.407 . S
C592 C593 1.364 . S
C592 H639 0.930 . S
C593 C592 1.364 . S
C593 C594 1.390 . S
C593 H640 0.931 . S
C594 C593 1.390 . S
C594 C595 1.346 . S
C594 H641 0.930 . S
C595 N590 1.342 . S
C595 C594 1.346 . S
C595 C611 1.516 . S
N596 Co588 1.958 . S
N596 C611 1.324 . S
N596 C613 1.427 . S
N597 C573 1.316 . S
N597 C574 1.436 . S
N597 Co588 1.953 1_455 S
N598 C582 1.423 . S
N598 Co588 1.974 . S
N598 C628 1.309 . S
O599 Cd581 2.352 . S
O599 C619 1.235 . S
O600 Cd580 2.329 1_554 S
O600 C619 1.270 . S
C601 O602 1.270 . S
C601 O603 1.248 . S
O602 Cd580 2.350 . S
O602 C601 1.270 . S
O603 Cd580 2.277 . S
O603 C601 1.248 . S
C604 O605 1.245 1_554 S
C604 O606 1.281 . S
O605 Cd580 2.173 . S
O605 C604 1.245 1_556 S
O606 Cd581 2.250 . S
O606 C604 1.281 . S
C607 N589 1.329 . S
C607 C591 1.481 1_455 S
C607 O608 1.246 . S
O608 C607 1.246 . S
O609 Cd580 2.263 1_554 S
O609 C621 1.258 1_455 S
O610 Cd581 2.308 1_655 S
O610 C621 1.274 . S
C611 C595 1.516 . S
C611 N596 1.324 . S
C611 O612 1.238 . S
O612 C611 1.238 . S
C613 N596 1.427 . S
C613 C614 1.394 . S
C613 C618 1.395 . S
C614 C613 1.394 . S
C614 C615 1.380 . S
C614 H642 0.929 . S
C615 C614 1.380 . S
C615 C616 1.384 . S
C615 C621 1.495 1_556 S
C616 C615 1.384 . S
C616 C617 1.382 . S
C616 H643 0.930 1_556 S
C617 C616 1.382 . S
C617 C618 1.398 . S
C618 C613 1.395 . S
C618 C617 1.398 . S
C618 H644 0.930 . S
C619 O599 1.235 . S
C619 O600 1.270 . S
O620 C573 1.263 . S
O620 Cd580 2.366 . S
C621 O609 1.258 1_655 S
C621 O610 1.274 . S
C621 C615 1.495 1_554 S
C622 N589 1.432 . S
C622 C623 1.381 . S
C622 C627 1.385 . S
C623 C622 1.381 . S
C623 C624 1.371 . S
C623 H645 0.932 1_455 S
C624 C623 1.371 . S
C624 C625 1.400 . S
C625 C624 1.400 . S
C625 C626 1.351 . S
C625 H646 0.930 . S
C626 C625 1.351 . S
C626 C627 1.388 . S
C627 C622 1.385 . S
C627 C626 1.388 . S
C627 H647 0.929 . S
C628 C567 1.504 . S
C628 N598 1.309 . S
C628 O629 1.258 . S
O629 C628 1.258 . S
H630 C568 0.929 . S
H631 C569 0.932 1_455 S
H632 C570 0.931 . S
H633 C575 0.929 . S
H634 C577 0.929 . S
H635 C579 0.931 1_655 S
H636 C584 0.929 . S
H637 C586 0.932 . S
H638 C587 0.931 . S
H639 C592 0.930 . S
H640 C593 0.931 . S
H641 C594 0.930 . S
H642 C614 0.929 . S
H643 C616 0.930 1_554 S
H644 C618 0.930 . S
H645 C623 0.932 1_655 S
H646 C625 0.930 . S
H647 C627 0.929 . S
C648 C649 1.359 . S
C648 N653 1.330 . S
C648 C709 1.504 . S
C649 C648 1.359 . S
C649 C650 1.366 . S
C649 H711 0.929 . S
C650 C649 1.366 . S
C650 C651 1.415 1_565 S
C650 H712 0.932 1_565 S
C651 C650 1.415 1_545 S
C651 C652 1.366 . S
C651 H713 0.931 . S
C652 C651 1.366 . S
C652 N653 1.325 1_545 S
C652 C654 1.516 . S
N653 C648 1.330 . S
N653 C652 1.325 1_565 S
N653 Co669 1.869 . S
C654 C652 1.516 . S
C654 N678 1.316 . S
C654 O701 1.263 . S
C655 C656 1.421 . S
C655 C660 1.360 . S
C655 N678 1.436 . S
C656 C655 1.421 . S
C656 C657 1.379 . S
C656 H714 0.929 . S
C657 C656 1.379 . S
C657 C658 1.417 . S
C658 C657 1.417 . S
C658 C659 1.352 . S
C658 H715 0.929 . S
C659 C658 1.352 . S
C659 C660 1.393 . S
C660 C655 1.360 . S
C660 C659 1.393 . S
C660 H716 0.931 1_545 S
Cd661 O681 2.329 . S
Cd661 O683 2.350 . S
Cd661 O684 2.277 . S
Cd661 O686 2.173 . S
Cd661 O690 2.263 . S
Cd661 O701 2.366 . S
Cd662 O680 2.352 . S
Cd662 O687 2.250 . S
Cd662 O691 2.308 1_545 S
C663 C667 1.403 . S
C663 C668 1.370 . S
C663 N679 1.423 . S
C664 C665 1.389 . S
C664 C668 1.389 . S
C665 C664 1.389 . S
C665 C666 1.379 . S
C665 H717 0.929 . S
C666 C665 1.379 . S
C666 C667 1.405 . S
C667 C663 1.403 . S
C667 C666 1.405 . S
C667 H718 0.932 . S
C668 C663 1.370 . S
C668 C664 1.389 . S
C668 H719 0.931 . S
Co669 N653 1.869 . S
Co669 N670 1.955 1_565 S
Co669 N671 1.864 . S
Co669 N677 1.958 . S
Co669 N678 1.953 1_565 S
Co669 N679 1.974 . S
N670 Co669 1.955 1_545 S
N670 C688 1.329 . S
N670 C703 1.432 . S
N671 Co669 1.864 . S
N671 C672 1.327 . S
N671 C676 1.342 . S
C672 N671 1.327 . S
C672 C673 1.407 . S
C672 C688 1.481 1_565 S
C673 C672 1.407 . S
C673 C674 1.364 . S
C673 H720 0.930 . S
C674 C673 1.364 . S
C674 C675 1.390 . S
C674 H721 0.931 . S
C675 C674 1.390 . S
C675 C676 1.346 . S
C675 H722 0.930 . S
C676 N671 1.342 . S
C676 C675 1.346 . S
C676 C692 1.516 . S
N677 Co669 1.958 . S
N677 C692 1.324 . S
N677 C694 1.427 . S
N678 C654 1.316 . S
N678 C655 1.436 . S
N678 Co669 1.953 1_545 S
N679 C663 1.423 . S
N679 Co669 1.974 . S
N679 C709 1.309 . S
O680 Cd662 2.352 . S
O680 C700 1.235 . S
O681 Cd661 2.329 . S
O681 C700 1.270 . S
C682 O683 1.270 . S
C682 O684 1.248 . S
O683 Cd661 2.350 . S
O683 C682 1.270 . S
O684 Cd661 2.277 . S
O684 C682 1.248 . S
C685 O686 1.277 . S
C685 O687 1.230 . S
O686 Cd661 2.173 . S
O686 C685 1.277 . S
O687 Cd662 2.250 . S
O687 C685 1.230 . S
C688 N670 1.329 . S
C688 C672 1.481 1_545 S
C688 O689 1.246 . S
O689 C688 1.246 . S
O690 Cd661 2.263 . S
O690 C702 1.258 1_545 S
O691 Cd662 2.308 1_565 S
O691 C702 1.274 . S
C692 C676 1.516 . S
C692 N677 1.324 . S
C692 O693 1.238 . S
O693 C692 1.238 . S
C694 N677 1.427 . S
C694 C695 1.394 . S
C694 C699 1.395 . S
C695 C694 1.394 . S
C695 C696 1.380 . S
C695 H723 0.929 . S
C696 C695 1.380 . S
C696 C697 1.384 . S
C696 C702 1.495 . S
C697 C696 1.384 . S
C697 C698 1.382 . S
C697 H724 0.930 . S
C698 C697 1.382 . S
C698 C699 1.398 . S
C699 C694 1.395 . S
C699 C698 1.398 . S
C699 H725 0.930 . S
C700 O680 1.235 . S
C700 O681 1.270 . S
O701 C654 1.263 . S
O701 Cd661 2.366 . S
C702 O690 1.258 1_565 S
C702 O691 1.274 . S
C702 C696 1.495 . S
C703 N670 1.432 . S
C703 C704 1.381 . S
C703 C708 1.385 . S
C704 C703 1.381 . S
C704 C705 1.371 . S
C704 H726 0.932 1_545 S
C705 C704 1.371 . S
C705 C706 1.400 . S
C706 C705 1.400 . S
C706 C707 1.351 . S
C706 H727 0.930 . S
C707 C706 1.351 . S
C707 C708 1.388 . S
C708 C703 1.385 . S
C708 C707 1.388 . S
C708 H728 0.929 . S
C709 C648 1.504 . S
C709 N679 1.309 . S
C709 O710 1.258 . S
O710 C709 1.258 . S
H711 C649 0.929 . S
H712 C650 0.932 1_545 S
H713 C651 0.931 . S
H714 C656 0.929 . S
H715 C658 0.929 . S
H716 C660 0.931 1_565 S
H717 C665 0.929 . S
H718 C667 0.932 . S
H719 C668 0.931 . S
H720 C673 0.930 . S
H721 C674 0.931 . S
H722 C675 0.930 . S
H723 C695 0.929 . S
H724 C697 0.930 . S
H725 C699 0.930 . S
H726 C704 0.932 1_565 S
H727 C706 0.930 . S
H728 C708 0.929 . S
C729 C730 1.359 . S
C729 N734 1.330 . S
C729 C790 1.504 . S
C730 C729 1.359 . S
C730 C731 1.366 . S
C730 H792 0.929 . S
C731 C730 1.366 . S
C731 C732 1.415 . S
C731 H793 0.932 . S
C732 C731 1.415 . S
C732 C733 1.366 . S
C732 H794 0.931 . S
C733 C732 1.366 . S
C733 N734 1.325 . S
C733 C735 1.516 . S
N734 C729 1.330 . S
N734 C733 1.325 . S
N734 Co750 1.869 . S
C735 C733 1.516 . S
C735 N759 1.316 . S
C735 O782 1.263 . S
C736 C737 1.421 . S
C736 C741 1.360 . S
C736 N759 1.436 . S
C737 C736 1.421 . S
C737 C738 1.379 . S
C737 H795 0.929 . S
C738 C737 1.379 . S
C738 C739 1.417 . S
C739 C738 1.417 . S
C739 C740 1.352 . S
C739 H796 0.929 . S
C740 C739 1.352 . S
C740 C741 1.393 . S
C741 C736 1.360 . S
C741 C740 1.393 . S
C741 H797 0.931 . S
Cd742 O762 2.329 . S
Cd742 O764 2.350 . S
Cd742 O765 2.277 . S
Cd742 O767 2.173 . S
Cd742 O771 2.263 . S
Cd742 O782 2.366 . S
Cd743 O761 2.352 . S
Cd743 O768 2.250 . S
Cd743 O772 2.308 . S
C744 C748 1.403 . S
C744 C749 1.370 . S
C744 N760 1.423 . S
C745 C746 1.389 . S
C745 C749 1.389 . S
C746 C745 1.389 . S
C746 C747 1.379 . S
C746 H798 0.929 . S
C747 C746 1.379 . S
C747 C748 1.405 . S
C748 C744 1.403 . S
C748 C747 1.405 . S
C748 H799 0.932 . S
C749 C744 1.370 . S
C749 C745 1.389 . S
C749 H800 0.931 . S
Co750 N734 1.869 . S
Co750 N751 1.955 . S
Co750 N752 1.864 . S
Co750 N758 1.958 . S
Co750 N759 1.953 . S
Co750 N760 1.974 . S
N751 Co750 1.955 . S
N751 C769 1.329 . S
N751 C784 1.432 . S
N752 Co750 1.864 . S
N752 C753 1.327 . S
N752 C757 1.342 . S
C753 N752 1.327 . S
C753 C754 1.407 . S
C753 C769 1.481 . S
C754 C753 1.407 . S
C754 C755 1.364 . S
C754 H801 0.930 . S
C755 C754 1.364 . S
C755 C756 1.390 . S
C755 H802 0.931 . S
C756 C755 1.390 . S
C756 C757 1.346 . S
C756 H803 0.930 . S
C757 N752 1.342 . S
C757 C756 1.346 . S
C757 C773 1.516 . S
N758 Co750 1.958 . S
N758 C773 1.324 . S
N758 C775 1.427 . S
N759 C735 1.316 . S
N759 C736 1.436 . S
N759 Co750 1.953 . S
N760 C744 1.423 . S
N760 Co750 1.974 . S
N760 C790 1.309 . S
O761 Cd743 2.352 . S
O761 C781 1.235 . S
O762 Cd742 2.329 . S
O762 C781 1.270 . S
C763 O764 1.270 . S
C763 O765 1.248 . S
O764 Cd742 2.350 . S
O764 C763 1.270 . S
O765 Cd742 2.277 . S
O765 C763 1.248 . S
C766 O767 1.277 . S
C766 O768 1.230 . S
O767 Cd742 2.173 . S
O767 C766 1.277 . S
O768 Cd743 2.250 . S
O768 C766 1.230 . S
C769 N751 1.329 . S
C769 C753 1.481 . S
C769 O770 1.246 . S
O770 C769 1.246 . S
O771 Cd742 2.263 . S
O771 C783 1.258 . S
O772 Cd743 2.308 . S
O772 C783 1.274 . S
C773 C757 1.516 . S
C773 N758 1.324 . S
C773 O774 1.238 . S
O774 C773 1.238 . S
C775 N758 1.427 . S
C775 C776 1.394 . S
C775 C780 1.395 . S
C776 C775 1.394 . S
C776 C777 1.380 . S
C776 H804 0.929 . S
C777 C776 1.380 . S
C777 C778 1.384 . S
C777 C783 1.495 . S
C778 C777 1.384 . S
C778 C779 1.382 . S
C778 H805 0.930 . S
C779 C778 1.382 . S
C779 C780 1.398 . S
C780 C775 1.395 . S
C780 C779 1.398 . S
C780 H806 0.930 . S
C781 O761 1.235 . S
C781 O762 1.270 . S
O782 C735 1.263 . S
O782 Cd742 2.366 . S
C783 O771 1.258 . S
C783 O772 1.274 . S
C783 C777 1.495 . S
C784 N751 1.432 . S
C784 C785 1.381 . S
C784 C789 1.385 . S
C785 C784 1.381 . S
C785 C786 1.371 . S
C785 H807 0.932 . S
C786 C785 1.371 . S
C786 C787 1.400 . S
C787 C786 1.400 . S
C787 C788 1.351 . S
C787 H808 0.930 . S
C788 C787 1.351 . S
C788 C789 1.388 . S
C789 C784 1.385 . S
C789 C788 1.388 . S
C789 H809 0.929 . S
C790 C729 1.504 . S
C790 N760 1.309 . S
C790 O791 1.258 . S
O791 C790 1.258 . S
H792 C730 0.929 . S
H793 C731 0.932 . S
H794 C732 0.931 . S
H795 C737 0.929 . S
H796 C739 0.929 . S
H797 C741 0.931 . S
H798 C746 0.929 . S
H799 C748 0.932 . S
H800 C749 0.931 . S
H801 C754 0.930 . S
H802 C755 0.931 . S
H803 C756 0.930 . S
H804 C776 0.929 . S
H805 C778 0.930 . S
H806 C780 0.930 . S
H807 C785 0.932 . S
H808 C787 0.930 . S
H809 C789 0.929 . S
C810 C811 1.359 . S
C810 N815 1.330 . S
C810 C871 1.504 . S
C811 C810 1.359 . S
C811 C812 1.366 . S
C811 H873 0.929 . S
C812 C811 1.366 . S
C812 C813 1.415 1_455 S
C812 H874 0.932 1_455 S
C813 C812 1.415 1_655 S
C813 C814 1.366 . S
C813 H875 0.931 . S
C814 C813 1.366 . S
C814 N815 1.325 1_655 S
C814 C816 1.516 . S
N815 C810 1.330 . S
N815 C814 1.325 1_455 S
N815 Co831 1.869 . S
C816 C814 1.516 . S
C816 N840 1.316 . S
C816 O863 1.263 . S
C817 C818 1.421 . S
C817 C822 1.360 . S
C817 N840 1.436 . S
C818 C817 1.421 . S
C818 C819 1.379 . S
C818 H876 0.929 . S
C819 C818 1.379 . S
C819 C820 1.417 . S
C820 C819 1.417 . S
C820 C821 1.352 . S
C820 H877 0.929 . S
C821 C820 1.352 . S
C821 C822 1.393 . S
C822 C817 1.360 . S
C822 C821 1.393 . S
C822 H878 0.931 1_655 S
Cd823 O843 2.329 . S
Cd823 O845 2.350 . S
Cd823 O846 2.277 . S
Cd823 O848 2.173 . S
Cd823 O852 2.263 . S
Cd823 O863 2.366 . S
Cd824 O842 2.352 . S
Cd824 O849 2.250 . S
Cd824 O853 2.308 1_655 S
C825 C829 1.403 . S
C825 C830 1.370 . S
C825 N841 1.423 . S
C826 C827 1.389 . S
C826 C830 1.389 . S
C827 C826 1.389 . S
C827 C828 1.379 . S
C827 H879 0.929 . S
C828 C827 1.379 . S
C828 C829 1.405 . S
C829 C825 1.403 . S
C829 C828 1.405 . S
C829 H880 0.932 . S
C830 C825 1.370 . S
C830 C826 1.389 . S
C830 H881 0.931 . S
Co831 N815 1.869 . S
Co831 N832 1.955 1_455 S
Co831 N833 1.864 . S
Co831 N839 1.958 . S
Co831 N840 1.953 1_455 S
Co831 N841 1.974 . S
N832 Co831 1.955 1_655 S
N832 C850 1.329 . S
N832 C865 1.432 . S
N833 Co831 1.864 . S
N833 C834 1.327 . S
N833 C838 1.342 . S
C834 N833 1.327 . S
C834 C835 1.407 . S
C834 C850 1.481 1_455 S
C835 C834 1.407 . S
C835 C836 1.364 . S
C835 H882 0.930 . S
C836 C835 1.364 . S
C836 C837 1.390 . S
C836 H883 0.931 . S
C837 C836 1.390 . S
C837 C838 1.346 . S
C837 H884 0.930 . S
C838 N833 1.342 . S
C838 C837 1.346 . S
C838 C854 1.516 . S
N839 Co831 1.958 . S
N839 C854 1.324 . S
N839 C856 1.427 . S
N840 C816 1.316 . S
N840 C817 1.436 . S
N840 Co831 1.953 1_655 S
N841 C825 1.423 . S
N841 Co831 1.974 . S
N841 C871 1.309 . S
O842 Cd824 2.352 . S
O842 C862 1.235 . S
O843 Cd823 2.329 . S
O843 C862 1.270 . S
C844 O845 1.270 . S
C844 O846 1.248 . S
O845 Cd823 2.350 . S
O845 C844 1.270 . S
O846 Cd823 2.277 . S
O846 C844 1.248 . S
C847 O848 1.277 . S
C847 O849 1.230 . S
O848 Cd823 2.173 . S
O848 C847 1.277 . S
O849 Cd824 2.250 . S
O849 C847 1.230 . S
C850 N832 1.329 . S
C850 C834 1.481 1_655 S
C850 O851 1.246 . S
O851 C850 1.246 . S
O852 Cd823 2.263 . S
O852 C864 1.258 1_655 S
O853 Cd824 2.308 1_455 S
O853 C864 1.274 . S
C854 C838 1.516 . S
C854 N839 1.324 . S
C854 O855 1.238 . S
O855 C854 1.238 . S
C856 N839 1.427 . S
C856 C857 1.394 . S
C856 C861 1.395 . S
C857 C856 1.394 . S
C857 C858 1.380 . S
C857 H885 0.929 . S
C858 C857 1.380 . S
C858 C859 1.384 . S
C858 C864 1.495 . S
C859 C858 1.384 . S
C859 C860 1.382 . S
C859 H886 0.930 . S
C860 C859 1.382 . S
C860 C861 1.398 . S
C861 C856 1.395 . S
C861 C860 1.398 . S
C861 H887 0.930 . S
C862 O842 1.235 . S
C862 O843 1.270 . S
O863 C816 1.263 . S
O863 Cd823 2.366 . S
C864 O852 1.258 1_455 S
C864 O853 1.274 . S
C864 C858 1.495 . S
C865 N832 1.432 . S
C865 C866 1.381 . S
C865 C870 1.385 . S
C866 C865 1.381 . S
C866 C867 1.371 . S
C866 H888 0.932 1_655 S
C867 C866 1.371 . S
C867 C868 1.400 . S
C868 C867 1.400 . S
C868 C869 1.351 . S
C868 H889 0.930 . S
C869 C868 1.351 . S
C869 C870 1.388 . S
C870 C865 1.385 . S
C870 C869 1.388 . S
C870 H890 0.929 . S
C871 C810 1.504 . S
C871 N841 1.309 . S
C871 O872 1.258 . S
O872 C871 1.258 . S
H873 C811 0.929 . S
H874 C812 0.932 1_655 S
H875 C813 0.931 . S
H876 C818 0.929 . S
H877 C820 0.929 . S
H878 C822 0.931 1_455 S
H879 C827 0.929 . S
H880 C829 0.932 . S
H881 C830 0.931 . S
H882 C835 0.930 . S
H883 C836 0.931 . S
H884 C837 0.930 . S
H885 C857 0.929 . S
H886 C859 0.930 . S
H887 C861 0.930 . S
H888 C866 0.932 1_455 S
H889 C868 0.930 . S
H890 C870 0.929 . S
C891 C892 1.359 . S
C891 N896 1.330 . S
C891 C952 1.504 . S
C892 C891 1.359 . S
C892 C893 1.366 . S
C892 H954 0.929 . S
C893 C892 1.366 . S
C893 C894 1.415 1_545 S
C893 H955 0.932 1_545 S
C894 C893 1.415 1_565 S
C894 C895 1.366 . S
C894 H956 0.931 . S
C895 C894 1.366 . S
C895 N896 1.325 1_565 S
C895 C897 1.516 . S
N896 C891 1.330 . S
N896 C895 1.325 1_545 S
N896 Co912 1.869 . S
C897 C895 1.516 . S
C897 N921 1.316 . S
C897 O944 1.263 . S
C898 C899 1.421 . S
C898 C903 1.360 . S
C898 N921 1.436 . S
C899 C898 1.421 . S
C899 C900 1.379 . S
C899 H957 0.929 . S
C900 C899 1.379 . S
C900 C901 1.417 . S
C901 C900 1.417 . S
C901 C902 1.352 . S
C901 H958 0.929 . S
C902 C901 1.352 . S
C902 C903 1.393 . S
C903 C898 1.360 . S
C903 C902 1.393 . S
C903 H959 0.931 1_565 S
Cd904 O924 2.329 . S
Cd904 O926 2.350 . S
Cd904 O927 2.277 . S
Cd904 O929 2.173 . S
Cd904 O933 2.263 . S
Cd904 O944 2.366 . S
Cd905 O923 2.352 . S
Cd905 O930 2.250 . S
Cd905 O934 2.308 1_565 S
C906 C910 1.403 . S
C906 C911 1.370 . S
C906 N922 1.423 . S
C907 C908 1.389 . S
C907 C911 1.389 . S
C908 C907 1.389 . S
C908 C909 1.379 . S
C908 H960 0.929 . S
C909 C908 1.379 . S
C909 C910 1.405 . S
C910 C906 1.403 . S
C910 C909 1.405 . S
C910 H961 0.932 . S
C911 C906 1.370 . S
C911 C907 1.389 . S
C911 H962 0.931 . S
Co912 N896 1.869 . S
Co912 N913 1.955 1_545 S
Co912 N914 1.864 . S
Co912 N920 1.958 . S
Co912 N921 1.953 1_545 S
Co912 N922 1.974 . S
N913 Co912 1.955 1_565 S
N913 C931 1.329 . S
N913 C946 1.432 . S
N914 Co912 1.864 . S
N914 C915 1.327 . S
N914 C919 1.342 . S
C915 N914 1.327 . S
C915 C916 1.407 . S
C915 C931 1.481 1_545 S
C916 C915 1.407 . S
C916 C917 1.364 . S
C916 H963 0.930 . S
C917 C916 1.364 . S
C917 C918 1.390 . S
C917 H964 0.931 . S
C918 C917 1.390 . S
C918 C919 1.346 . S
C918 H965 0.930 . S
C919 N914 1.342 . S
C919 C918 1.346 . S
C919 C935 1.516 . S
N920 Co912 1.958 . S
N920 C935 1.324 . S
N920 C937 1.427 . S
N921 C897 1.316 . S
N921 C898 1.436 . S
N921 Co912 1.953 1_565 S
N922 C906 1.423 . S
N922 Co912 1.974 . S
N922 C952 1.309 . S
O923 Cd905 2.352 . S
O923 C943 1.235 . S
O924 Cd904 2.329 . S
O924 C943 1.270 . S
C925 O926 1.270 . S
C925 O927 1.248 . S
O926 Cd904 2.350 . S
O926 C925 1.270 . S
O927 Cd904 2.277 . S
O927 C925 1.248 . S
C928 O929 1.277 . S
C928 O930 1.230 . S
O929 Cd904 2.173 . S
O929 C928 1.277 . S
O930 Cd905 2.250 . S
O930 C928 1.230 . S
C931 N913 1.329 . S
C931 C915 1.481 1_565 S
C931 O932 1.246 . S
O932 C931 1.246 . S
O933 Cd904 2.263 . S
O933 C945 1.258 1_565 S
O934 Cd905 2.308 1_545 S
O934 C945 1.274 . S
C935 C919 1.516 . S
C935 N920 1.324 . S
C935 O936 1.238 . S
O936 C935 1.238 . S
C937 N920 1.427 . S
C937 C938 1.394 . S
C937 C942 1.395 . S
C938 C937 1.394 . S
C938 C939 1.380 . S
C938 H966 0.929 . S
C939 C938 1.380 . S
C939 C940 1.384 . S
C939 C945 1.495 . S
C940 C939 1.384 . S
C940 C941 1.382 . S
C940 H967 0.930 . S
C941 C940 1.382 . S
C941 C942 1.398 . S
C942 C937 1.395 . S
C942 C941 1.398 . S
C942 H968 0.930 . S
C943 O923 1.235 . S
C943 O924 1.270 . S
O944 C897 1.263 . S
O944 Cd904 2.366 . S
C945 O933 1.258 1_545 S
C945 O934 1.274 . S
C945 C939 1.495 . S
C946 N913 1.432 . S
C946 C947 1.381 . S
C946 C951 1.385 . S
C947 C946 1.381 . S
C947 C948 1.371 . S
C947 H969 0.932 1_565 S
C948 C947 1.371 . S
C948 C949 1.400 . S
C949 C948 1.400 . S
C949 C950 1.351 . S
C949 H970 0.930 . S
C950 C949 1.351 . S
C950 C951 1.388 . S
C951 C946 1.385 . S
C951 C950 1.388 . S
C951 H971 0.929 . S
C952 C891 1.504 . S
C952 N922 1.309 . S
C952 O953 1.258 . S
O953 C952 1.258 . S
H954 C892 0.929 . S
H955 C893 0.932 1_565 S
H956 C894 0.931 . S
H957 C899 0.929 . S
H958 C901 0.929 . S
H959 C903 0.931 1_545 S
H960 C908 0.929 . S
H961 C910 0.932 . S
H962 C911 0.931 . S
H963 C916 0.930 . S
H964 C917 0.931 . S
H965 C918 0.930 . S
H966 C938 0.929 . S
H967 C940 0.930 . S
H968 C942 0.930 . S
H969 C947 0.932 1_545 S
H970 C949 0.930 . S
H971 C951 0.929 . S
C972 C973 1.369 . S
C972 C974 1.419 . S
C972 H976 0.930 . S
C973 C972 1.369 . S
C973 C982 1.429 . S
C974 C972 1.419 . S
C974 C975 1.363 . S
C974 H977 0.929 . S
C975 C974 1.363 . S
C975 C981 1.428 . S
H976 C972 0.930 . S
H977 C974 0.929 . S
S978 N979 1.613 . S
S978 N980 1.610 . S
N979 S978 1.613 . S
N979 C982 1.350 . S
N980 S978 1.610 . S
N980 C981 1.351 . S
C981 C975 1.428 . S
C981 N980 1.351 . S
C981 C982 1.434 . S
C982 C973 1.429 . S
C982 N979 1.350 . S
C982 C981 1.434 . S
C983 C984 1.369 . S
C983 C985 1.419 . S
C983 H987 0.930 . S
C984 C983 1.369 . S
C984 C993 1.429 . S
C985 C983 1.419 . S
C985 C986 1.363 . S
C985 H988 0.929 . S
C986 C985 1.363 . S
C986 C992 1.428 . S
H987 C983 0.930 . S
H988 C985 0.929 . S
S989 N990 1.613 . S
S989 N991 1.610 . S
N990 S989 1.613 . S
N990 C993 1.350 . S
N991 S989 1.610 . S
N991 C992 1.351 . S
C992 C986 1.428 . S
C992 N991 1.351 . S
C992 C993 1.434 . S
C993 C984 1.429 . S
C993 N990 1.350 . S
C993 C992 1.434 . S
C994 C995 1.369 . S
C994 C996 1.419 . S
C994 H998 0.930 . S
C995 C994 1.369 . S
C995 C1004 1.429 . S
C996 C994 1.419 . S
C996 C997 1.363 . S
C996 H999 0.929 . S
C997 C996 1.363 . S
C997 C1003 1.428 . S
H998 C994 0.930 . S
H999 C996 0.929 . S
S1000 N1001 1.613 . S
S1000 N1002 1.610 . S
N1001 S1000 1.613 . S
N1001 C1004 1.350 . S
N1002 S1000 1.610 . S
N1002 C1003 1.351 . S
C1003 C997 1.428 . S
C1003 N1002 1.351 . S
C1003 C1004 1.434 . S
C1004 C995 1.429 . S
C1004 N1001 1.350 . S
C1004 C1003 1.434 . S
C1005 C1006 1.369 . S
C1005 C1007 1.419 . S
C1005 H1009 0.930 . S
C1006 C1005 1.369 . S
C1006 C1015 1.429 . S
C1007 C1005 1.419 . S
C1007 C1008 1.363 . S
C1007 H1010 0.929 . S
C1008 C1007 1.363 . S
C1008 C1014 1.428 . S
H1009 C1005 0.930 . S
H1010 C1007 0.929 . S
S1011 N1012 1.613 . S
S1011 N1013 1.610 . S
N1012 S1011 1.613 . S
N1012 C1015 1.350 . S
N1013 S1011 1.610 . S
N1013 C1014 1.351 . S
C1014 C1008 1.428 . S
C1014 N1013 1.351 . S
C1014 C1015 1.434 . S
C1015 C1006 1.429 . S
C1015 N1012 1.350 . S
C1015 C1014 1.434 . S
C1016 C1017 1.369 . S
C1016 C1018 1.419 . S
C1016 H1020 0.930 . S
C1017 C1016 1.369 . S
C1017 C1026 1.429 . S
C1018 C1016 1.419 . S
C1018 C1019 1.363 . S
C1018 H1021 0.929 . S
C1019 C1018 1.363 . S
C1019 C1025 1.428 . S
H1020 C1016 0.930 . S
H1021 C1018 0.929 . S
S1022 N1023 1.613 . S
S1022 N1024 1.610 . S
N1023 S1022 1.613 . S
N1023 C1026 1.350 . S
N1024 S1022 1.610 . S
N1024 C1025 1.351 . S
C1025 C1019 1.428 . S
C1025 N1024 1.351 . S
C1025 C1026 1.434 . S
C1026 C1017 1.429 . S
C1026 N1023 1.350 . S
C1026 C1025 1.434 . S
C1027 C1028 1.369 . S
C1027 C1029 1.419 . S
C1027 H1031 0.930 . S
C1028 C1027 1.369 . S
C1028 C1037 1.429 . S
C1029 C1027 1.419 . S
C1029 C1030 1.363 . S
C1029 H1032 0.929 . S
C1030 C1029 1.363 . S
C1030 C1036 1.428 . S
H1031 C1027 0.930 . S
H1032 C1029 0.929 . S
S1033 N1034 1.613 . S
S1033 N1035 1.610 . S
N1034 S1033 1.613 . S
N1034 C1037 1.350 . S
N1035 S1033 1.610 . S
N1035 C1036 1.351 . S
C1036 C1030 1.428 . S
C1036 N1035 1.351 . S
C1036 C1037 1.434 . S
C1037 C1028 1.429 . S
C1037 N1034 1.350 . S
C1037 C1036 1.434 . S
C1038 C1039 1.366 1_554 S
C1038 C1040 1.419 1_565 S
C1038 H1042 0.930 . S
C1039 C1038 1.366 1_556 S
C1039 C1048 1.430 . S
C1040 C1038 1.419 1_545 S
C1040 C1041 1.363 . S
C1040 H1043 0.929 . S
C1041 C1040 1.363 . S
C1041 C1047 1.425 1_554 S
H1042 C1038 0.930 . S
H1043 C1040 0.929 . S
S1044 N1045 1.613 . S
S1044 N1046 1.610 1_565 S
N1045 S1044 1.613 . S
N1045 C1048 1.350 . S
N1046 S1044 1.610 1_545 S
N1046 C1047 1.355 . S
C1047 C1041 1.425 1_556 S
C1047 N1046 1.355 . S
C1047 C1048 1.436 1_545 S
C1048 C1039 1.430 . S
C1048 N1045 1.350 . S
C1048 C1047 1.436 1_565 S
C1049 C1050 1.369 . S
C1049 C1051 1.419 . S
C1049 H1053 0.930 . S
C1050 C1049 1.369 . S
C1050 C1059 1.429 . S
C1051 C1049 1.419 . S
C1051 C1052 1.363 . S
C1051 H1054 0.929 . S
C1052 C1051 1.363 . S
C1052 C1058 1.428 . S
H1053 C1049 0.930 . S
H1054 C1051 0.929 . S
S1055 N1056 1.613 . S
S1055 N1057 1.610 . S
N1056 S1055 1.613 . S
N1056 C1059 1.350 . S
N1057 S1055 1.610 . S
N1057 C1058 1.351 . S
C1058 C1052 1.428 . S
C1058 N1057 1.351 . S
C1058 C1059 1.434 . S
C1059 C1050 1.429 . S
C1059 N1056 1.350 . S
C1059 C1058 1.434 . S
C1060 C1061 1.369 . S
C1060 C1062 1.419 1_455 S
C1060 H1064 0.930 . S
C1061 C1060 1.369 . S
C1061 C1070 1.429 . S
C1062 C1060 1.419 1_655 S
C1062 C1063 1.363 . S
C1062 H1065 0.929 . S
C1063 C1062 1.363 . S
C1063 C1069 1.428 . S
H1064 C1060 0.930 . S
H1065 C1062 0.929 . S
S1066 N1067 1.613 1_655 S
S1066 N1068 1.610 . S
N1067 S1066 1.613 1_455 S
N1067 C1070 1.350 . S
N1068 S1066 1.610 . S
N1068 C1069 1.351 . S
C1069 C1063 1.428 . S
C1069 N1068 1.351 . S
C1069 C1070 1.434 1_655 S
C1070 C1061 1.429 . S
C1070 N1067 1.350 . S
C1070 C1069 1.434 1_455 S
C1071 C1072 1.369 . S
C1071 C1073 1.419 1_565 S
C1071 H1075 0.930 . S
C1072 C1071 1.369 . S
C1072 C1081 1.429 . S
C1073 C1071 1.419 1_545 S
C1073 C1074 1.363 . S
C1073 H1076 0.929 . S
C1074 C1073 1.363 . S
C1074 C1080 1.428 . S
H1075 C1071 0.930 . S
H1076 C1073 0.929 . S
S1077 N1078 1.613 1_545 S
S1077 N1079 1.610 . S
N1078 S1077 1.613 1_565 S
N1078 C1081 1.350 . S
N1079 S1077 1.610 . S
N1079 C1080 1.351 . S
C1080 C1074 1.428 . S
C1080 N1079 1.351 . S
C1080 C1081 1.434 1_545 S
C1081 C1072 1.429 . S
C1081 N1078 1.350 . S
C1081 C1080 1.434 1_565 S
C1082 C1083 1.369 . S
C1082 C1084 1.419 . S
C1082 H1086 0.930 . S
C1083 C1082 1.369 . S
C1083 C1092 1.429 . S
C1084 C1082 1.419 . S
C1084 C1085 1.363 . S
C1084 H1087 0.929 . S
C1085 C1084 1.363 . S
C1085 C1091 1.428 . S
H1086 C1082 0.930 . S
H1087 C1084 0.929 . S
S1088 N1089 1.613 . S
S1088 N1090 1.610 . S
N1089 S1088 1.613 . S
N1089 C1092 1.350 . S
N1090 S1088 1.610 . S
N1090 C1091 1.351 . S
C1091 C1085 1.428 . S
C1091 N1090 1.351 . S
C1091 C1092 1.434 . S
C1092 C1083 1.429 . S
C1092 N1089 1.350 . S
C1092 C1091 1.434 . S
C1093 C1094 1.369 . S
C1093 C1095 1.419 1_655 S
C1093 H1097 0.930 . S
C1094 C1093 1.369 . S
C1094 C1103 1.429 . S
C1095 C1093 1.419 1_455 S
C1095 C1096 1.363 . S
C1095 H1098 0.929 . S
C1096 C1095 1.363 . S
C1096 C1102 1.428 . S
H1097 C1093 0.930 . S
H1098 C1095 0.929 . S
S1099 N1100 1.613 1_455 S
S1099 N1101 1.610 . S
N1100 S1099 1.613 1_655 S
N1100 C1103 1.350 . S
N1101 S1099 1.610 . S
N1101 C1102 1.351 . S
C1102 C1096 1.428 . S
C1102 N1101 1.351 . S
C1102 C1103 1.434 1_455 S
C1103 C1094 1.429 . S
C1103 N1100 1.350 . S
C1103 C1102 1.434 1_655 S
C1104 C1105 1.369 . S
C1104 C1106 1.419 . S
C1104 H1108 0.930 . S
C1105 C1104 1.369 . S
C1105 C1114 1.429 . S
C1106 C1104 1.419 . S
C1106 C1107 1.363 . S
C1106 H1109 0.929 . S
C1107 C1106 1.363 . S
C1107 C1113 1.428 . S
H1108 C1104 0.930 . S
H1109 C1106 0.929 . S
S1110 N1111 1.613 . S
S1110 N1112 1.610 . S
N1111 S1110 1.613 . S
N1111 C1114 1.350 . S
N1112 S1110 1.610 . S
N1112 C1113 1.351 . S
C1113 C1107 1.428 . S
C1113 N1112 1.351 . S
C1113 C1114 1.434 . S
C1114 C1105 1.429 . S
C1114 N1111 1.350 . S
C1114 C1113 1.434 . S
C1115 C1116 1.369 . S
C1115 C1117 1.419 . S
C1115 H1119 0.930 . S
C1116 C1115 1.369 . S
C1116 C1125 1.429 . S
C1117 C1115 1.419 . S
C1117 C1118 1.363 . S
C1117 H1120 0.929 . S
C1118 C1117 1.363 . S
C1118 C1124 1.428 . S
H1119 C1115 0.930 . S
H1120 C1117 0.929 . S
S1121 N1122 1.613 . S
S1121 N1123 1.610 . S
N1122 S1121 1.613 . S
N1122 C1125 1.350 . S
N1123 S1121 1.610 . S
N1123 C1124 1.351 . S
C1124 C1118 1.428 . S
C1124 N1123 1.351 . S
C1124 C1125 1.434 . S
C1125 C1116 1.429 . S
C1125 N1122 1.350 . S
C1125 C1124 1.434 . S
C1126 C1127 1.369 . S
C1126 C1128 1.419 . S
C1126 H1130 0.930 . S
C1127 C1126 1.369 . S
C1127 C1136 1.429 . S
C1128 C1126 1.419 . S
C1128 C1129 1.363 . S
C1128 H1131 0.929 . S
C1129 C1128 1.363 . S
C1129 C1135 1.428 . S
H1130 C1126 0.930 . S
H1131 C1128 0.929 . S
S1132 N1133 1.613 . S
S1132 N1134 1.610 . S
N1133 S1132 1.613 . S
N1133 C1136 1.350 . S
N1134 S1132 1.610 . S
N1134 C1135 1.351 . S
C1135 C1129 1.428 . S
C1135 N1134 1.351 . S
C1135 C1136 1.434 . S
C1136 C1127 1.429 . S
C1136 N1133 1.350 . S
C1136 C1135 1.434 . S
C1137 C1138 1.369 . S
C1137 C1139 1.419 . S
C1137 H1141 0.930 . S
C1138 C1137 1.369 . S
C1138 C1147 1.429 . S
C1139 C1137 1.419 . S
C1139 C1140 1.363 . S
C1139 H1142 0.929 . S
C1140 C1139 1.363 . S
C1140 C1146 1.428 . S
H1141 C1137 0.930 . S
H1142 C1139 0.929 . S
S1143 N1144 1.613 . S
S1143 N1145 1.610 . S
N1144 S1143 1.613 . S
N1144 C1147 1.350 . S
N1145 S1143 1.610 . S
N1145 C1146 1.351 . S
C1146 C1140 1.428 . S
C1146 N1145 1.351 . S
C1146 C1147 1.434 . S
C1147 C1138 1.429 . S
C1147 N1144 1.350 . S
C1147 C1146 1.434 . S
C1148 C1149 1.369 . S
C1148 C1150 1.419 . S
C1148 H1152 0.930 . S
C1149 C1148 1.369 . S
C1149 C1158 1.429 . S
C1150 C1148 1.419 . S
C1150 C1151 1.363 . S
C1150 H1153 0.929 . S
C1151 C1150 1.363 . S
C1151 C1157 1.428 . S
H1152 C1148 0.930 . S
H1153 C1150 0.929 . S
S1154 N1155 1.613 . S
S1154 N1156 1.610 . S
N1155 S1154 1.613 . S
N1155 C1158 1.350 . S
N1156 S1154 1.610 . S
N1156 C1157 1.351 . S
C1157 C1151 1.428 . S
C1157 N1156 1.351 . S
C1157 C1158 1.434 . S
C1158 C1149 1.429 . S
C1158 N1155 1.350 . S
C1158 C1157 1.434 . S
C1159 C1160 1.369 . S
C1159 C1161 1.419 . S
C1159 H1163 0.930 . S
C1160 C1159 1.369 . S
C1160 C1169 1.429 . S
C1161 C1159 1.419 . S
C1161 C1162 1.363 . S
C1161 H1164 0.929 . S
C1162 C1161 1.363 . S
C1162 C1168 1.428 . S
H1163 C1159 0.930 . S
H1164 C1161 0.929 . S
S1165 N1166 1.613 . S
S1165 N1167 1.610 . S
N1166 S1165 1.613 . S
N1166 C1169 1.350 . S
N1167 S1165 1.610 . S
N1167 C1168 1.351 . S
C1168 C1162 1.428 . S
C1168 N1167 1.351 . S
C1168 C1169 1.434 . S
C1169 C1160 1.429 . S
C1169 N1166 1.350 . S
C1169 C1168 1.434 . S
C1170 C1171 1.369 . S
C1170 C1172 1.419 . S
C1170 H1174 0.930 . S
C1171 C1170 1.369 . S
C1171 C1180 1.429 . S
C1172 C1170 1.419 . S
C1172 C1173 1.363 . S
C1172 H1175 0.929 . S
C1173 C1172 1.363 . S
C1173 C1179 1.428 . S
H1174 C1170 0.930 . S
H1175 C1172 0.929 . S
S1176 N1177 1.613 . S
S1176 N1178 1.610 . S
N1177 S1176 1.613 . S
N1177 C1180 1.350 . S
N1178 S1176 1.610 . S
N1178 C1179 1.351 . S
C1179 C1173 1.428 . S
C1179 N1178 1.351 . S
C1179 C1180 1.434 . S
C1180 C1171 1.429 . S
C1180 N1177 1.350 . S
C1180 C1179 1.434 . S
C1181 C1182 1.369 . S
C1181 C1183 1.419 . S
C1181 H1185 0.930 . S
C1182 C1181 1.369 . S
C1182 C1191 1.429 . S
C1183 C1181 1.419 . S
C1183 C1184 1.363 . S
C1183 H1186 0.929 . S
C1184 C1183 1.363 . S
C1184 C1190 1.428 . S
H1185 C1181 0.930 . S
H1186 C1183 0.929 . S
S1187 N1188 1.613 . S
S1187 N1189 1.610 . S
N1188 S1187 1.613 . S
N1188 C1191 1.350 . S
N1189 S1187 1.610 . S
N1189 C1190 1.351 . S
C1190 C1184 1.428 . S
C1190 N1189 1.351 . S
C1190 C1191 1.434 . S
C1191 C1182 1.429 . S
C1191 N1188 1.350 . S
C1191 C1190 1.434 . S
C1192 C1193 1.369 . S
C1192 C1194 1.419 . S
C1192 H1196 0.930 . S
C1193 C1192 1.369 . S
C1193 C1202 1.429 . S
C1194 C1192 1.419 . S
C1194 C1195 1.363 . S
C1194 H1197 0.929 . S
C1195 C1194 1.363 . S
C1195 C1201 1.428 . S
H1196 C1192 0.930 . S
H1197 C1194 0.929 . S
S1198 N1199 1.613 . S
S1198 N1200 1.610 . S
N1199 S1198 1.613 . S
N1199 C1202 1.350 . S
N1200 S1198 1.610 . S
N1200 C1201 1.351 . S
C1201 C1195 1.428 . S
C1201 N1200 1.351 . S
C1201 C1202 1.434 . S
C1202 C1193 1.429 . S
C1202 N1199 1.350 . S
C1202 C1201 1.434 . S
C1203 C1204 1.369 . S
C1203 C1205 1.419 . S
C1203 H1207 0.930 . S
C1204 C1203 1.369 . S
C1204 C1213 1.429 . S
C1205 C1203 1.419 . S
C1205 C1206 1.363 . S
C1205 H1208 0.929 . S
C1206 C1205 1.363 . S
C1206 C1212 1.428 . S
H1207 C1203 0.930 . S
H1208 C1205 0.929 . S
S1209 N1210 1.613 . S
S1209 N1211 1.610 . S
N1210 S1209 1.613 . S
N1210 C1213 1.350 . S
N1211 S1209 1.610 . S
N1211 C1212 1.351 . S
C1212 C1206 1.428 . S
C1212 N1211 1.351 . S
C1212 C1213 1.434 . S
C1213 C1204 1.429 . S
C1213 N1210 1.350 . S
C1213 C1212 1.434 . S
C1214 C1215 1.369 . S
C1214 C1216 1.419 . S
C1214 H1218 0.930 . S
C1215 C1214 1.369 . S
C1215 C1224 1.429 . S
C1216 C1214 1.419 . S
C1216 C1217 1.363 . S
C1216 H1219 0.929 . S
C1217 C1216 1.363 . S
C1217 C1223 1.428 . S
H1218 C1214 0.930 . S
H1219 C1216 0.929 . S
S1220 N1221 1.613 . S
S1220 N1222 1.610 . S
N1221 S1220 1.613 . S
N1221 C1224 1.350 . S
N1222 S1220 1.610 . S
N1222 C1223 1.351 . S
C1223 C1217 1.428 . S
C1223 N1222 1.351 . S
C1223 C1224 1.434 . S
C1224 C1215 1.429 . S
C1224 N1221 1.350 . S
C1224 C1223 1.434 . S
C1225 C1226 1.369 . S
C1225 C1227 1.419 . S
C1225 H1229 0.930 . S
C1226 C1225 1.369 . S
C1226 C1235 1.429 . S
C1227 C1225 1.419 . S
C1227 C1228 1.363 . S
C1227 H1230 0.929 . S
C1228 C1227 1.363 . S
C1228 C1234 1.428 . S
H1229 C1225 0.930 . S
H1230 C1227 0.929 . S
S1231 N1232 1.613 . S
S1231 N1233 1.610 . S
N1232 S1231 1.613 . S
N1232 C1235 1.350 . S
N1233 S1231 1.610 . S
N1233 C1234 1.351 . S
C1234 C1228 1.428 . S
C1234 N1233 1.351 . S
C1234 C1235 1.434 . S
C1235 C1226 1.429 . S
C1235 N1232 1.350 . S
C1235 C1234 1.434 . S
C1236 C1237 1.369 1_556 S
C1236 C1238 1.419 . S
C1236 H1240 0.930 . S
C1237 C1236 1.369 1_554 S
C1237 C1246 1.429 . S
C1238 C1236 1.419 . S
C1238 C1239 1.363 . S
C1238 H1241 0.929 . S
C1239 C1238 1.363 . S
C1239 C1245 1.428 1_556 S
H1240 C1236 0.930 . S
H1241 C1238 0.929 . S
S1242 N1243 1.613 . S
S1242 N1244 1.610 . S
N1243 S1242 1.613 . S
N1243 C1246 1.350 . S
N1244 S1242 1.610 . S
N1244 C1245 1.351 . S
C1245 C1239 1.428 1_554 S
C1245 N1244 1.351 . S
C1245 C1246 1.434 . S
C1246 C1237 1.429 . S
C1246 N1243 1.350 . S
C1246 C1245 1.434 . S
C1247 C1248 1.369 . S
C1247 C1249 1.419 . S
C1247 H1251 0.930 . S
C1248 C1247 1.369 . S
C1248 C1257 1.429 . S
C1249 C1247 1.419 . S
C1249 C1250 1.363 . S
C1249 H1252 0.929 . S
C1250 C1249 1.363 . S
C1250 C1256 1.428 . S
H1251 C1247 0.930 . S
H1252 C1249 0.929 . S
S1253 N1254 1.613 . S
S1253 N1255 1.610 . S
N1254 S1253 1.613 . S
N1254 C1257 1.350 . S
N1255 S1253 1.610 . S
N1255 C1256 1.351 . S
C1256 C1250 1.428 . S
C1256 N1255 1.351 . S
C1256 C1257 1.434 . S
C1257 C1248 1.429 . S
C1257 N1254 1.350 . S
C1257 C1256 1.434 . S
C1258 C1259 1.369 . S
C1258 C1260 1.419 . S
C1258 H1262 0.930 . S
C1259 C1258 1.369 . S
C1259 C1268 1.429 . S
C1260 C1258 1.419 . S
C1260 C1261 1.363 . S
C1260 H1263 0.929 . S
C1261 C1260 1.363 . S
C1261 C1267 1.428 . S
H1262 C1258 0.930 . S
H1263 C1260 0.929 . S
S1264 N1265 1.613 . S
S1264 N1266 1.610 . S
N1265 S1264 1.613 . S
N1265 C1268 1.350 . S
N1266 S1264 1.610 . S
N1266 C1267 1.351 . S
C1267 C1261 1.428 . S
C1267 N1266 1.351 . S
C1267 C1268 1.434 . S
C1268 C1259 1.429 . S
C1268 N1265 1.350 . S
C1268 C1267 1.434 . S
C1269 C1270 1.369 . S
C1269 C1271 1.419 . S
C1269 H1273 0.930 . S
C1270 C1269 1.369 . S
C1270 C1279 1.429 . S
C1271 C1269 1.419 . S
C1271 C1272 1.363 . S
C1271 H1274 0.929 . S
C1272 C1271 1.363 . S
C1272 C1278 1.428 . S
H1273 C1269 0.930 . S
H1274 C1271 0.929 . S
S1275 N1276 1.613 . S
S1275 N1277 1.610 . S
N1276 S1275 1.613 . S
N1276 C1279 1.350 . S
N1277 S1275 1.610 . S
N1277 C1278 1.351 . S
C1278 C1272 1.428 . S
C1278 N1277 1.351 . S
C1278 C1279 1.434 . S
C1279 C1270 1.429 . S
C1279 N1276 1.350 . S
C1279 C1278 1.434 . S
C1280 C1281 1.369 . S
C1280 C1282 1.419 . S
C1280 H1284 0.930 . S
C1281 C1280 1.369 . S
C1281 C1290 1.429 . S
C1282 C1280 1.419 . S
C1282 C1283 1.363 . S
C1282 H1285 0.929 . S
C1283 C1282 1.363 . S
C1283 C1289 1.428 . S
H1284 C1280 0.930 . S
H1285 C1282 0.929 . S
S1286 N1287 1.613 . S
S1286 N1288 1.610 . S
N1287 S1286 1.613 . S
N1287 C1290 1.350 . S
N1288 S1286 1.610 . S
N1288 C1289 1.351 . S
C1289 C1283 1.428 . S
C1289 N1288 1.351 . S
C1289 C1290 1.434 . S
C1290 C1281 1.429 . S
C1290 N1287 1.350 . S
C1290 C1289 1.434 . S
C1291 C1292 1.369 . S
C1291 C1293 1.419 . S
C1291 H1295 0.930 . S
C1292 C1291 1.369 . S
C1292 C1301 1.429 . S
C1293 C1291 1.419 . S
C1293 C1294 1.363 . S
C1293 H1296 0.929 . S
C1294 C1293 1.363 . S
C1294 C1300 1.428 . S
H1295 C1291 0.930 . S
H1296 C1293 0.929 . S
S1297 N1298 1.613 . S
S1297 N1299 1.610 . S
N1298 S1297 1.613 . S
N1298 C1301 1.350 . S
N1299 S1297 1.610 . S
N1299 C1300 1.351 . S
C1300 C1294 1.428 . S
C1300 N1299 1.351 . S
C1300 C1301 1.434 . S
C1301 C1292 1.429 . S
C1301 N1298 1.350 . S
C1301 C1300 1.434 . S
C1302 C1303 1.369 . S
C1302 C1304 1.419 . S
C1302 H1306 0.930 . S
C1303 C1302 1.369 . S
C1303 C1312 1.429 . S
C1304 C1302 1.419 . S
C1304 C1305 1.363 . S
C1304 H1307 0.929 . S
C1305 C1304 1.363 . S
C1305 C1311 1.428 . S
H1306 C1302 0.930 . S
H1307 C1304 0.929 . S
S1308 N1309 1.613 . S
S1308 N1310 1.610 . S
N1309 S1308 1.613 . S
N1309 C1312 1.350 . S
N1310 S1308 1.610 . S
N1310 C1311 1.351 . S
C1311 C1305 1.428 . S
C1311 N1310 1.351 . S
C1311 C1312 1.434 . S
C1312 C1303 1.429 . S
C1312 N1309 1.350 . S
C1312 C1311 1.434 . S
C1313 C1314 1.369 1_554 S
C1313 C1315 1.419 . S
C1313 H1317 0.930 . S
C1314 C1313 1.369 1_556 S
C1314 C1323 1.429 . S
C1315 C1313 1.419 . S
C1315 C1316 1.363 . S
C1315 H1318 0.929 . S
C1316 C1315 1.363 . S
C1316 C1322 1.428 . S
H1317 C1313 0.930 . S
H1318 C1315 0.929 . S
S1319 N1320 1.613 . S
S1319 N1321 1.587 1_556 S
N1320 S1319 1.613 . S
N1320 C1323 1.350 . S
N1321 S1319 1.587 1_554 S
N1321 C1322 1.354 . S
C1322 C1316 1.428 . S
C1322 N1321 1.354 . S
C1322 C1323 1.434 1_554 S
C1323 C1314 1.429 . S
C1323 N1320 1.350 . S
C1323 C1322 1.434 1_556 S
C1324 C1325 1.369 . S
C1324 C1326 1.419 . S
C1324 H1328 0.930 . S
C1325 C1324 1.369 . S
C1325 C1334 1.429 . S
C1326 C1324 1.419 . S
C1326 C1327 1.363 . S
C1326 H1329 0.929 . S
C1327 C1326 1.363 . S
C1327 C1333 1.428 . S
H1328 C1324 0.930 . S
H1329 C1326 0.929 . S
S1330 N1331 1.613 . S
S1330 N1332 1.610 . S
N1331 S1330 1.613 . S
N1331 C1334 1.350 . S
N1332 S1330 1.610 . S
N1332 C1333 1.351 . S
C1333 C1327 1.428 . S
C1333 N1332 1.351 . S
C1333 C1334 1.434 . S
C1334 C1325 1.429 . S
C1334 N1331 1.350 . S
C1334 C1333 1.434 . S
C1335 C1336 1.369 . S
C1335 C1337 1.419 . S
C1335 H1339 0.930 . S
C1336 C1335 1.369 . S
C1336 C1345 1.429 . S
C1337 C1335 1.419 . S
C1337 C1338 1.363 . S
C1337 H1340 0.929 . S
C1338 C1337 1.363 . S
C1338 C1344 1.428 . S
H1339 C1335 0.930 . S
H1340 C1337 0.929 . S
S1341 N1342 1.613 . S
S1341 N1343 1.610 . S
N1342 S1341 1.613 . S
N1342 C1345 1.350 . S
N1343 S1341 1.610 . S
N1343 C1344 1.351 . S
C1344 C1338 1.428 . S
C1344 N1343 1.351 . S
C1344 C1345 1.434 . S
C1345 C1336 1.429 . S
C1345 N1342 1.350 . S
C1345 C1344 1.434 . S
C1346 C1347 1.369 . S
C1346 C1348 1.419 . S
C1346 H1350 0.930 . S
C1347 C1346 1.369 . S
C1347 C1356 1.429 . S
C1348 C1346 1.419 . S
C1348 C1349 1.363 . S
C1348 H1351 0.929 . S
C1349 C1348 1.363 . S
C1349 C1355 1.428 . S
H1350 C1346 0.930 . S
H1351 C1348 0.929 . S
S1352 N1353 1.613 . S
S1352 N1354 1.610 . S
N1353 S1352 1.613 . S
N1353 C1356 1.350 . S
N1354 S1352 1.610 . S
N1354 C1355 1.351 . S
C1355 C1349 1.428 . S
C1355 N1354 1.351 . S
C1355 C1356 1.434 . S
C1356 C1347 1.429 . S
C1356 N1353 1.350 . S
C1356 C1355 1.434 . S
C1357 C1358 1.369 . S
C1357 C1359 1.419 . S
C1357 H1361 0.930 . S
C1358 C1357 1.369 . S
C1358 C1367 1.429 . S
C1359 C1357 1.419 . S
C1359 C1360 1.363 . S
C1359 H1362 0.929 . S
C1360 C1359 1.363 . S
C1360 C1366 1.428 . S
H1361 C1357 0.930 . S
H1362 C1359 0.929 . S
S1363 N1364 1.613 . S
S1363 N1365 1.610 . S
N1364 S1363 1.613 . S
N1364 C1367 1.350 . S
N1365 S1363 1.610 . S
N1365 C1366 1.351 . S
C1366 C1360 1.428 . S
C1366 N1365 1.351 . S
C1366 C1367 1.434 . S
C1367 C1358 1.429 . S
C1367 N1364 1.350 . S
C1367 C1366 1.434 . S
C1368 C1369 1.369 . S
C1368 C1370 1.419 . S
C1368 H1372 0.930 . S
C1369 C1368 1.369 . S
C1369 C1378 1.429 . S
C1370 C1368 1.419 . S
C1370 C1371 1.363 . S
C1370 H1373 0.929 . S
C1371 C1370 1.363 . S
C1371 C1377 1.428 . S
H1372 C1368 0.930 . S
H1373 C1370 0.929 . S
S1374 N1375 1.613 . S
S1374 N1376 1.610 . S
N1375 S1374 1.613 . S
N1375 C1378 1.350 . S
N1376 S1374 1.610 . S
N1376 C1377 1.351 . S
C1377 C1371 1.428 . S
C1377 N1376 1.351 . S
C1377 C1378 1.434 . S
C1378 C1369 1.429 . S
C1378 N1375 1.350 . S
C1378 C1377 1.434 . S
C1379 C1380 1.369 . S
C1379 C1381 1.419 . S
C1379 H1383 0.930 . S
C1380 C1379 1.369 . S
C1380 C1389 1.429 . S
C1381 C1379 1.419 . S
C1381 C1382 1.363 . S
C1381 H1384 0.929 . S
C1382 C1381 1.363 . S
C1382 C1388 1.428 . S
H1383 C1379 0.930 . S
H1384 C1381 0.929 . S
S1385 N1386 1.613 . S
S1385 N1387 1.610 . S
N1386 S1385 1.613 . S
N1386 C1389 1.350 . S
N1387 S1385 1.610 . S
N1387 C1388 1.351 . S
C1388 C1382 1.428 . S
C1388 N1387 1.351 . S
C1388 C1389 1.434 . S
C1389 C1380 1.429 . S
C1389 N1386 1.350 . S
C1389 C1388 1.434 . S
C1390 C1391 1.369 . S
C1390 C1392 1.419 . S
C1390 H1394 0.930 . S
C1391 C1390 1.369 . S
C1391 C1400 1.429 . S
C1392 C1390 1.419 . S
C1392 C1393 1.363 . S
C1392 H1395 0.929 . S
C1393 C1392 1.363 . S
C1393 C1399 1.428 . S
H1394 C1390 0.930 . S
H1395 C1392 0.929 . S
S1396 N1397 1.613 . S
S1396 N1398 1.610 . S
N1397 S1396 1.613 . S
N1397 C1400 1.350 . S
N1398 S1396 1.610 . S
N1398 C1399 1.351 . S
C1399 C1393 1.428 . S
C1399 N1398 1.351 . S
C1399 C1400 1.434 . S
C1400 C1391 1.429 . S
C1400 N1397 1.350 . S
C1400 C1399 1.434 . S
C1401 C1402 1.369 . S
C1401 C1403 1.419 . S
C1401 H1405 0.930 . S
C1402 C1401 1.369 . S
C1402 C1411 1.429 . S
C1403 C1401 1.419 . S
C1403 C1404 1.363 . S
C1403 H1406 0.929 . S
C1404 C1403 1.363 . S
C1404 C1410 1.428 . S
H1405 C1401 0.930 . S
H1406 C1403 0.929 . S
S1407 N1408 1.613 . S
S1407 N1409 1.610 . S
N1408 S1407 1.613 . S
N1408 C1411 1.350 . S
N1409 S1407 1.610 . S
N1409 C1410 1.351 . S
C1410 C1404 1.428 . S
C1410 N1409 1.351 . S
C1410 C1411 1.434 . S
C1411 C1402 1.429 . S
C1411 N1408 1.350 . S
C1411 C1410 1.434 . S
C1412 C1413 1.369 . S
C1412 C1414 1.419 . S
C1412 H1416 0.930 . S
C1413 C1412 1.369 . S
C1413 C1422 1.429 . S
C1414 C1412 1.419 . S
C1414 C1415 1.363 . S
C1414 H1417 0.929 . S
C1415 C1414 1.363 . S
C1415 C1421 1.428 . S
H1416 C1412 0.930 . S
H1417 C1414 0.929 . S
S1418 N1419 1.613 . S
S1418 N1420 1.610 . S
N1419 S1418 1.613 . S
N1419 C1422 1.350 . S
N1420 S1418 1.610 . S
N1420 C1421 1.351 . S
C1421 C1415 1.428 . S
C1421 N1420 1.351 . S
C1421 C1422 1.434 . S
C1422 C1413 1.429 . S
C1422 N1419 1.350 . S
C1422 C1421 1.434 . S
C1423 C1424 1.369 . S
C1423 C1425 1.419 . S
C1423 H1427 0.930 . S
C1424 C1423 1.369 . S
C1424 C1433 1.429 . S
C1425 C1423 1.419 . S
C1425 C1426 1.363 . S
C1425 H1428 0.929 . S
C1426 C1425 1.363 . S
C1426 C1432 1.428 . S
H1427 C1423 0.930 . S
H1428 C1425 0.929 . S
S1429 N1430 1.613 . S
S1429 N1431 1.610 . S
N1430 S1429 1.613 . S
N1430 C1433 1.350 . S
N1431 S1429 1.610 . S
N1431 C1432 1.351 . S
C1432 C1426 1.428 . S
C1432 N1431 1.351 . S
C1432 C1433 1.434 . S
C1433 C1424 1.429 . S
C1433 N1430 1.350 . S
C1433 C1432 1.434 . S
C973 C664 1.256 . S
C975 C16 1.239 . S
C984 C97 1.254 . S
C986 C745 1.246 . S
C995 C826 1.135 . S
C997 C178 1.121 . S
C1006 C259 1.241 . S
C1008 C907 1.253 . S
C1017 C340 1.249 . S
C1019 C502 1.250 . S
C1028 C583 1.130 . S
C1030 C421 1.118 . S
C1039 C604 3.159 1_556 S
C1041 C37 3.172 . S
C1050 C685 3.142 . S
C1052 C118 3.144 . S
C1061 C766 3.168 . S
C1063 C199 3.159 . S
C1072 C280 3.172 . S
C1074 C847 3.157 . S
C1083 C361 3.140 . S
C1085 C928 3.143 . S
C1094 C523 3.168 . S
C1096 C442 3.158 . S
C1105 C423 1.883 . S
C1107 C52 1.652 . S
C1116 C133 1.689 . S
C1118 C18 1.891 . S
C1127 C99 1.887 . S
C1129 C214 1.696 . S
C1138 C180 1.883 . S
C1140 C295 1.653 . S
C1149 C261 1.885 . S
C1151 C376 1.694 . S
C1160 C457 1.689 . S
C1162 C342 1.887 . S
C1171 C585 1.878 . S
C1173 C538 1.650 . S
C1182 C666 1.889 . S
C1184 C619 1.688 . S
C1193 C747 1.889 . S
C1195 C700 1.690 . S
C1204 C828 1.882 . S
C1206 C781 1.644 . S
C1215 C862 1.696 . S
C1217 C909 1.892 . S
C1226 C504 1.889 . S
C1228 C943 1.700 . S
C1237 C34 1.428 . S
C1239 C617 1.439 . S
C1248 C115 1.460 . S
C1250 C698 1.477 . S
C1259 C779 1.556 . S
C1261 C196 1.517 . S
C1270 C860 1.441 . S
C1272 C277 1.424 . S
C1281 C358 1.459 . S
C1283 C941 1.478 . S
C1292 C536 1.548 . S
C1294 C439 1.523 . S
C1303 C520 1.428 . S
C1305 C455 1.439 . S
C1314 C601 1.520 . S
C1316 C50 1.557 . S
C1325 C131 1.478 . S
C1327 C682 1.461 . S
C1336 C763 1.414 . S
C1338 C212 1.448 . S
C1347 C293 1.556 . S
C1349 C844 1.522 . S
C1358 C374 1.477 . S
C1360 C925 1.458 . S
C1369 C707 0.810 . S
C1371 C59 0.789 . S
C1380 C140 0.805 . S
C1382 C788 0.783 . S
C1391 C869 0.908 . S
C1393 C221 0.909 . S
C1402 C302 0.775 . S
C1404 C950 0.798 . S
C1413 C383 0.789 . S
C1415 C545 0.781 . S
C1424 C626 0.901 . S
C1426 C464 0.911 . S
