# Generated by pormake.
# Topology ukk, (4)-cn, num edge types: 1
# Building blocks:
#     Node 0, Type 0, BuildingBlock: GALJAG_clean_sbu_0, # of connection points: 4
#     Node 1, Type 0, BuildingBlock: GALJAG_clean_sbu_0, # of connection points: 4
#     Node 2, Type 0, BuildingBlock: GALJAG_clean_sbu_0, # of connection points: 4
#     Node 3, Type 0, BuildingBlock: GALJAG_clean_sbu_0, # of connection points: 4
#     Node 4, Type 0, BuildingBlock: GALJAG_clean_sbu_0, # of connection points: 4
#     Node 5, Type 0, BuildingBlock: GALJAG_clean_sbu_0, # of connection points: 4
#     Node 6, Type 0, BuildingBlock: GALJAG_clean_sbu_0, # of connection points: 4
#     Node 7, Type 0, BuildingBlock: GALJAG_clean_sbu_0, # of connection points: 4
#     Node 8, Type 0, BuildingBlock: GALJAG_clean_sbu_0, # of connection points: 4
#     Node 9, Type 0, BuildingBlock: GALJAG_clean_sbu_0, # of connection points: 4
#     Node 10, Type 0, BuildingBlock: GALJAG_clean_sbu_0, # of connection points: 4
#     Node 11, Type 0, BuildingBlock: GALJAG_clean_sbu_0, # of connection points: 4
#     Node 12, Type 0, BuildingBlock: GALJAG_clean_sbu_0, # of connection points: 4
#     Node 13, Type 0, BuildingBlock: GALJAG_clean_sbu_0, # of connection points: 4
#     Node 14, Type 0, BuildingBlock: GALJAG_clean_sbu_0, # of connection points: 4
#     Node 15, Type 0, BuildingBlock: GALJAG_clean_sbu_0, # of connection points: 4
#     Edge 16, Type (0, 0), BuildingBlock: EYOCIG_clean_linker_4, # of connection points: 2
#     Edge 17, Type (0, 0), BuildingBlock: EYOCIG_clean_linker_4, # of connection points: 2
#     Edge 18, Type (0, 0), BuildingBlock: EYOCIG_clean_linker_4, # of connection points: 2
#     Edge 19, Type (0, 0), BuildingBlock: EYOCIG_clean_linker_4, # of connection points: 2
#     Edge 20, Type (0, 0), BuildingBlock: EYOCIG_clean_linker_4, # of connection points: 2
#     Edge 21, Type (0, 0), BuildingBlock: EYOCIG_clean_linker_4, # of connection points: 2
#     Edge 22, Type (0, 0), BuildingBlock: EYOCIG_clean_linker_4, # of connection points: 2
#     Edge 23, Type (0, 0), BuildingBlock: EYOCIG_clean_linker_4, # of connection points: 2
#     Edge 24, Type (0, 0), BuildingBlock: EYOCIG_clean_linker_4, # of connection points: 2
#     Edge 25, Type (0, 0), BuildingBlock: EYOCIG_clean_linker_4, # of connection points: 2
#     Edge 26, Type (0, 0), BuildingBlock: EYOCIG_clean_linker_4, # of connection points: 2
#     Edge 27, Type (0, 0), BuildingBlock: EYOCIG_clean_linker_4, # of connection points: 2
#     Edge 28, Type (0, 0), BuildingBlock: EYOCIG_clean_linker_4, # of connection points: 2
#     Edge 29, Type (0, 0), BuildingBlock: EYOCIG_clean_linker_4, # of connection points: 2
#     Edge 30, Type (0, 0), BuildingBlock: EYOCIG_clean_linker_4, # of connection points: 2
#     Edge 31, Type (0, 0), BuildingBlock: EYOCIG_clean_linker_4, # of connection points: 2
#     Edge 32, Type (0, 0), BuildingBlock: EYOCIG_clean_linker_4, # of connection points: 2
#     Edge 33, Type (0, 0), BuildingBlock: EYOCIG_clean_linker_4, # of connection points: 2
#     Edge 34, Type (0, 0), BuildingBlock: EYOCIG_clean_linker_4, # of connection points: 2
#     Edge 35, Type (0, 0), BuildingBlock: EYOCIG_clean_linker_4, # of connection points: 2
#     Edge 36, Type (0, 0), BuildingBlock: EYOCIG_clean_linker_4, # of connection points: 2
#     Edge 37, Type (0, 0), BuildingBlock: EYOCIG_clean_linker_4, # of connection points: 2
#     Edge 38, Type (0, 0), BuildingBlock: EYOCIG_clean_linker_4, # of connection points: 2
#     Edge 39, Type (0, 0), BuildingBlock: EYOCIG_clean_linker_4, # of connection points: 2
#     Edge 40, Type (0, 0), BuildingBlock: EYOCIG_clean_linker_4, # of connection points: 2
#     Edge 41, Type (0, 0), BuildingBlock: EYOCIG_clean_linker_4, # of connection points: 2
#     Edge 42, Type (0, 0), BuildingBlock: EYOCIG_clean_linker_4, # of connection points: 2
#     Edge 43, Type (0, 0), BuildingBlock: EYOCIG_clean_linker_4, # of connection points: 2
#     Edge 44, Type (0, 0), BuildingBlock: EYOCIG_clean_linker_4, # of connection points: 2
#     Edge 45, Type (0, 0), BuildingBlock: EYOCIG_clean_linker_4, # of connection points: 2
#     Edge 46, Type (0, 0), BuildingBlock: EYOCIG_clean_linker_4, # of connection points: 2
#     Edge 47, Type (0, 0), BuildingBlock: EYOCIG_clean_linker_4, # of connection points: 2
# Relax obj value: 0.105
# Max RMSD: 0.246
# Mean RMSD: 0.246
data_MOF--net-ukk--node1-GALJAG_clean_sbu_0--edge1-EYOCIG_clean_linker_4
_symmetry_space_group_name_H-M    P1
_symmetry_Int_Tables_number       1
_symmetry_cell_setting            triclinic
loop_
_symmetry_equiv_pos_as_xyz
'x, y, z'
_cell_length_a     42.98047
_cell_length_b     42.977627
_cell_length_c     14.487042
_cell_angle_alpha  90.003688
_cell_angle_beta   89.980322
_cell_angle_gamma 90.037262
loop_
_atom_site_label
_atom_site_type_symbol
_atom_site_fract_x
_atom_site_fract_y
_atom_site_fract_z
_atom_type_partial_charge
In0 In 0.35231 0.10561 0.12944 0.0
O1 O 0.33404 0.08981 0.98821 0.0
O2 O 0.30135 0.09755 0.0971 0.0
C3 C 0.41425 0.11332 0.12061 0.0
C4 C 0.33841 0.16624 0.1399 0.0
C5 C 0.35256 0.05629 0.24338 0.0
O6 O 0.39901 0.10309 0.05216 0.0
O7 O 0.39847 0.11932 0.19175 0.0
O8 O 0.34328 0.08273 0.27027 0.0
O9 O 0.36095 0.05473 0.16009 0.0
C10 C 0.30589 0.0902 0.01393 0.0
O11 O 0.33358 0.14811 0.20735 0.0
O12 O 0.34999 0.1539 0.06886 0.0
In13 In 0.10549 0.63417 0.87937 0.0
O14 O 0.08952 0.65255 0.0203 0.0
O15 O 0.09745 0.68515 0.91131 0.0
C16 C 0.1131 0.57224 0.88856 0.0
C17 C 0.16616 0.64803 0.86952 0.0
C18 C 0.0563 0.63382 0.76503 0.0
O19 O 0.10284 0.58752 0.95686 0.0
O20 O 0.1192 0.58796 0.81739 0.0
O21 O 0.08276 0.6431 0.73831 0.0
O22 O 0.05464 0.62548 0.84833 0.0
C23 C 0.08997 0.68068 0.99442 0.0
O24 O 0.14813 0.65282 0.80184 0.0
O25 O 0.1537 0.63653 0.9405 0.0
In26 In 0.6338 0.88078 0.12895 0.0
O27 O 0.65253 0.83826 0.2067 0.0
O28 O 0.63623 0.83251 0.06811 0.0
C29 C 0.63345 0.92996 0.24343 0.0
C30 C 0.68027 0.89633 0.01367 0.0
C31 C 0.57188 0.87302 0.11959 0.0
O32 O 0.64272 0.90349 0.27006 0.0
O33 O 0.62512 0.93162 0.16013 0.0
O34 O 0.58718 0.88333 0.05136 0.0
O35 O 0.58758 0.86696 0.19079 0.0
C36 C 0.64777 0.82016 0.13914 0.0
O37 O 0.65213 0.89671 0.98789 0.0
O38 O 0.68477 0.88891 0.09679 0.0
In39 In 0.88081 0.35211 0.87935 0.0
O40 O 0.8382 0.33339 0.80193 0.0
O41 O 0.83259 0.34974 0.94053 0.0
C42 C 0.92997 0.35246 0.76479 0.0
C43 C 0.89633 0.30565 0.99452 0.0
C44 C 0.87314 0.41404 0.8885 0.0
O45 O 0.9035 0.34317 0.7382 0.0
O46 O 0.93165 0.36081 0.84809 0.0
O47 O 0.88345 0.39878 0.95675 0.0
O48 O 0.86703 0.3983 0.81738 0.0
C49 C 0.82016 0.33818 0.86962 0.0
O50 O 0.89677 0.33379 0.02032 0.0
O51 O 0.88887 0.30115 0.91143 0.0
In52 In 0.35238 0.38073 0.13009 0.0
O53 O 0.33366 0.33814 0.05254 0.0
O54 O 0.35 0.3325 0.19111 0.0
C55 C 0.35267 0.42993 0.01568 0.0
C56 C 0.30594 0.39625 0.24543 0.0
C57 C 0.4143 0.37307 0.13906 0.0
O58 O 0.34338 0.40346 0.98905 0.0
O59 O 0.36106 0.43159 0.09894 0.0
O60 O 0.39905 0.38335 0.20741 0.0
O61 O 0.39855 0.36699 0.06794 0.0
C62 C 0.33845 0.32008 0.12016 0.0
O63 O 0.33409 0.39669 0.27114 0.0
O64 O 0.30142 0.38879 0.16234 0.0
In65 In 0.38064 0.63408 0.87944 0.0
O66 O 0.3381 0.65283 0.95715 0.0
O67 O 0.33236 0.63634 0.81875 0.0
C68 C 0.4299 0.63386 0.99358 0.0
C69 C 0.39607 0.68048 0.76378 0.0
C70 C 0.373 0.57213 0.8707 0.0
O71 O 0.40344 0.64313 0.02035 0.0
O72 O 0.43151 0.62548 0.9103 0.0
O73 O 0.38325 0.58737 0.80227 0.0
O74 O 0.36692 0.58791 0.94177 0.0
C75 C 0.32 0.64796 0.88969 0.0
O76 O 0.39646 0.65231 0.73817 0.0
O77 O 0.3887 0.68503 0.84692 0.0
In78 In 0.63401 0.60568 0.13002 0.0
O79 O 0.6528 0.6482 0.05225 0.0
O80 O 0.63633 0.65397 0.19068 0.0
C81 C 0.6338 0.55639 0.01596 0.0
C82 C 0.68036 0.59026 0.24572 0.0
C83 C 0.57207 0.61336 0.13854 0.0
O84 O 0.64313 0.58283 0.9892 0.0
O85 O 0.62534 0.5548 0.09918 0.0
O86 O 0.58726 0.60314 0.20705 0.0
O87 O 0.58789 0.61937 0.06748 0.0
C88 C 0.64794 0.66632 0.1197 0.0
O89 O 0.65219 0.58985 0.2713 0.0
O90 O 0.68494 0.59765 0.1626 0.0
In91 In 0.60574 0.35217 0.8803 0.0
O92 O 0.64826 0.3334 0.9579 0.0
O93 O 0.65399 0.34984 0.81943 0.0
C94 C 0.5565 0.35248 0.99457 0.0
C95 C 0.59024 0.30575 0.76484 0.0
C96 C 0.61346 0.41411 0.87145 0.0
O97 O 0.58294 0.34319 0.0213 0.0
O98 O 0.55488 0.36084 0.91128 0.0
O99 O 0.60318 0.39887 0.80308 0.0
O100 O 0.61952 0.39833 0.94253 0.0
C101 C 0.66636 0.33823 0.89035 0.0
O102 O 0.58987 0.33391 0.73914 0.0
O103 O 0.59762 0.30122 0.84797 0.0
In104 In 0.85213 0.60557 0.63047 0.0
O105 O 0.83372 0.58976 0.48944 0.0
O106 O 0.80114 0.59753 0.5986 0.0
C107 C 0.91406 0.61327 0.62107 0.0
C108 C 0.83827 0.66621 0.64083 0.0
C109 C 0.8525 0.55629 0.74455 0.0
O110 O 0.89876 0.60301 0.55281 0.0
O111 O 0.89836 0.61932 0.69232 0.0
O112 O 0.84325 0.58274 0.77146 0.0
O113 O 0.8608 0.5547 0.66118 0.0
C114 C 0.80559 0.59017 0.51539 0.0
O115 O 0.83348 0.64811 0.70838 0.0
O116 O 0.84979 0.65384 0.56975 0.0
In117 In 0.60564 0.13406 0.37967 0.0
O118 O 0.64826 0.15272 0.30208 0.0
O119 O 0.65388 0.13632 0.44061 0.0
C120 C 0.55643 0.13382 0.26536 0.0
C121 C 0.59022 0.18053 0.49501 0.0
C122 C 0.61316 0.07211 0.38856 0.0
O123 O 0.58291 0.14308 0.23866 0.0
O124 O 0.55477 0.12545 0.34864 0.0
O125 O 0.60292 0.08737 0.45694 0.0
O126 O 0.61928 0.08787 0.31747 0.0
C127 C 0.66632 0.14786 0.36965 0.0
O128 O 0.58975 0.15238 0.52076 0.0
O129 O 0.59766 0.18504 0.41189 0.0
In130 In 0.13406 0.38084 0.62979 0.0
O131 O 0.15273 0.33828 0.70749 0.0
O132 O 0.13645 0.3326 0.56886 0.0
C133 C 0.13366 0.43005 0.74415 0.0
C134 C 0.18059 0.39635 0.51471 0.0
C135 C 0.07214 0.37311 0.6204 0.0
O136 O 0.14292 0.40359 0.77089 0.0
O137 O 0.12537 0.43169 0.66081 0.0
O138 O 0.08744 0.38341 0.55217 0.0
O139 O 0.08784 0.36704 0.69161 0.0
C140 C 0.14797 0.32021 0.63988 0.0
O141 O 0.15246 0.39675 0.48881 0.0
O142 O 0.18504 0.38894 0.59786 0.0
In143 In 0.38048 0.85203 0.37819 0.0
O144 O 0.33789 0.83333 0.30063 0.0
O145 O 0.33223 0.84972 0.43917 0.0
C146 C 0.42968 0.85234 0.26376 0.0
C147 C 0.39594 0.80559 0.49353 0.0
C148 C 0.37288 0.91397 0.38727 0.0
O149 O 0.40321 0.84305 0.23711 0.0
O150 O 0.43133 0.8607 0.34705 0.0
O151 O 0.38314 0.89871 0.45557 0.0
O152 O 0.36678 0.89823 0.31613 0.0
C153 C 0.31982 0.83817 0.36823 0.0
O154 O 0.39638 0.83374 0.51925 0.0
O155 O 0.38851 0.80107 0.41043 0.0
In156 In 0.85209 0.88072 0.62925 0.0
O157 O 0.83374 0.89677 0.77014 0.0
O158 O 0.80112 0.88877 0.66129 0.0
C159 C 0.91402 0.87317 0.6382 0.0
C160 C 0.83824 0.82004 0.61994 0.0
C161 C 0.85239 0.92981 0.51447 0.0
O162 O 0.89877 0.8835 0.70648 0.0
O163 O 0.89827 0.86697 0.56718 0.0
O164 O 0.84312 0.90331 0.488 0.0
O165 O 0.86073 0.93155 0.59775 0.0
C166 C 0.8056 0.8963 0.74435 0.0
O167 O 0.83341 0.83802 0.55215 0.0
O168 O 0.84979 0.83255 0.69075 0.0
In169 In 0.88081 0.13384 0.37907 0.0
O170 O 0.89671 0.15219 0.23801 0.0
O171 O 0.88888 0.18482 0.34697 0.0
C172 C 0.87308 0.07191 0.36977 0.0
C173 C 0.82017 0.14774 0.38939 0.0
C174 C 0.93005 0.13352 0.49325 0.0
O175 O 0.88335 0.0872 0.30147 0.0
O176 O 0.86705 0.08763 0.44101 0.0
O177 O 0.9036 0.14279 0.52005 0.0
O178 O 0.93167 0.12517 0.40995 0.0
C179 C 0.8963 0.18033 0.26383 0.0
O180 O 0.83827 0.15251 0.45693 0.0
O181 O 0.83254 0.13622 0.31831 0.0
In182 In 0.13423 0.10571 0.62895 0.0
O183 O 0.15253 0.08978 0.76998 0.0
O184 O 0.18519 0.09768 0.66111 0.0
C185 C 0.07228 0.11327 0.63785 0.0
C186 C 0.14808 0.16638 0.61924 0.0
C187 C 0.13396 0.05655 0.51443 0.0
O188 O 0.08752 0.10298 0.70618 0.0
O189 O 0.08805 0.11942 0.56681 0.0
O190 O 0.14323 0.08303 0.48783 0.0
O191 O 0.1256 0.05486 0.59772 0.0
C192 C 0.18067 0.09023 0.74422 0.0
O193 O 0.15293 0.14835 0.55158 0.0
O194 O 0.13649 0.15393 0.69012 0.0
In195 In 0.1054 0.85249 0.37885 0.0
O196 O 0.14794 0.83371 0.4564 0.0
O197 O 0.15364 0.85006 0.31783 0.0
C198 C 0.0562 0.85284 0.49328 0.0
C199 C 0.08985 0.80604 0.26357 0.0
C200 C 0.11321 0.91441 0.36975 0.0
O201 O 0.08266 0.84355 0.51993 0.0
O202 O 0.05456 0.86119 0.40998 0.0
O203 O 0.10288 0.89916 0.30146 0.0
O204 O 0.11926 0.89866 0.44087 0.0
C205 C 0.16601 0.83848 0.38878 0.0
O206 O 0.08946 0.83419 0.2378 0.0
O207 O 0.09726 0.80153 0.34668 0.0
C208 C 0.36361 0.97438 0.37366 0.0
C209 C 0.36866 0.94716 0.38772 0.0
C210 C 0.35807 0.005 0.34179 0.0
C211 C 0.35464 0.02961 0.30297 0.0
C212 C 0.00508 0.62822 0.66634 0.0
C213 C 0.02967 0.63169 0.70525 0.0
C214 C 0.97447 0.62262 0.63446 0.0
C215 C 0.94724 0.61753 0.62046 0.0
C216 C 0.62789 0.98113 0.34242 0.0
C217 C 0.63133 0.95656 0.30331 0.0
C218 C 0.62235 0.01171 0.37461 0.0
C219 C 0.61733 0.03893 0.38889 0.0
C220 C 0.01174 0.36371 0.63385 0.0
C221 C 0.03896 0.36883 0.6198 0.0
C222 C 0.98115 0.35809 0.66585 0.0
C223 C 0.95657 0.3546 0.70488 0.0
C224 C 0.35819 0.48113 0.91681 0.0
C225 C 0.35476 0.45655 0.95585 0.0
C226 C 0.36373 0.51173 0.8847 0.0
C227 C 0.36878 0.53895 0.87045 0.0
C228 C 0.48112 0.62831 0.09228 0.0
C229 C 0.45653 0.63176 0.05331 0.0
C230 C 0.51169 0.62272 0.1244 0.0
C231 C 0.53889 0.61764 0.1387 0.0
C232 C 0.62278 0.47451 0.88534 0.0
C233 C 0.61771 0.44729 0.87116 0.0
C234 C 0.62833 0.50512 0.91736 0.0
C235 C 0.63174 0.52972 0.95629 0.0
C236 C 0.47469 0.3637 0.12533 0.0
C237 C 0.44748 0.3688 0.13947 0.0
C238 C 0.50528 0.35809 0.09332 0.0
C239 C 0.52987 0.35461 0.05435 0.0
C240 C 0.86378 0.47444 0.87495 0.0
C241 C 0.86887 0.44722 0.88899 0.0
C242 C 0.85816 0.50504 0.84306 0.0
C243 C 0.85467 0.52964 0.80421 0.0
C244 C 0.50523 0.12827 0.16656 0.0
C245 C 0.52981 0.13172 0.20555 0.0
C246 C 0.47464 0.12268 0.1345 0.0
C247 C 0.44743 0.1176 0.12029 0.0
C248 C 0.12242 0.51184 0.87495 0.0
C249 C 0.11734 0.53906 0.88906 0.0
C250 C 0.12802 0.48125 0.84294 0.0
C251 C 0.1315 0.45667 0.80396 0.0
C252 C 0.48088 0.85796 0.16494 0.0
C253 C 0.45629 0.85447 0.20391 0.0
C254 C 0.51149 0.86359 0.13301 0.0
C255 C 0.5387 0.86872 0.119 0.0
C256 C 0.85802 0.98094 0.41533 0.0
C257 C 0.85453 0.95637 0.45443 0.0
C258 C 0.86365 0.01152 0.38328 0.0
C259 C 0.86878 0.03873 0.3692 0.0
C260 C 0.98128 0.12799 0.59192 0.0
C261 C 0.95669 0.13142 0.55296 0.0
C262 C 0.01187 0.12246 0.62397 0.0
C263 C 0.03909 0.11744 0.63817 0.0
C264 C 0.12268 0.97479 0.38342 0.0
C265 C 0.11753 0.94759 0.3693 0.0
C266 C 0.12833 0.00538 0.41546 0.0
C267 C 0.13182 0.02995 0.4545 0.0
C268 C 0.97443 0.86396 0.62432 0.0
C269 C 0.94721 0.86899 0.63854 0.0
C270 C 0.00501 0.85841 0.59219 0.0
C271 C 0.02959 0.85496 0.55312 0.0
C272 C 0.32949 0.25946 0.12419 0.0
C273 C 0.33283 0.2872 0.11677 0.0
C274 C 0.32948 0.22686 0.13622 0.0
C275 C 0.33279 0.19911 0.14353 0.0
C276 C 0.22679 0.65691 0.87367 0.0
C277 C 0.19905 0.65361 0.86619 0.0
C278 C 0.25939 0.6569 0.88579 0.0
C279 C 0.28712 0.65358 0.89319 0.0
C280 C 0.6568 0.75955 0.13533 0.0
C281 C 0.65343 0.78729 0.14265 0.0
C282 C 0.65685 0.72695 0.12338 0.0
C283 C 0.65355 0.6992 0.11609 0.0
C284 C 0.72696 0.32923 0.88622 0.0
C285 C 0.69923 0.33257 0.89374 0.0
C286 C 0.75954 0.32923 0.87395 0.0
C287 C 0.78728 0.33255 0.86636 0.0
C288 C 0.82934 0.72683 0.6369 0.0
C289 C 0.83265 0.69909 0.64436 0.0
C290 C 0.82934 0.75941 0.6246 0.0
C291 C 0.83265 0.78715 0.61691 0.0
C292 C 0.75956 0.15668 0.38564 0.0
C293 C 0.7873 0.15335 0.39295 0.0
C294 C 0.72696 0.1567 0.37363 0.0
C295 C 0.69921 0.15342 0.36624 0.0
C296 C 0.15694 0.2596 0.6358 0.0
C297 C 0.15361 0.28733 0.64329 0.0
C298 C 0.15697 0.22701 0.62357 0.0
C299 C 0.15367 0.19927 0.616 0.0
C300 C 0.2266 0.82939 0.38458 0.0
C301 C 0.19887 0.83278 0.3921 0.0
C302 C 0.25919 0.82932 0.37235 0.0
C303 C 0.28693 0.83259 0.36484 0.0
C304 C 0.22943 0.08211 0.85267 0.0
C305 C 0.20631 0.08553 0.80642 0.0
C306 C 0.25715 0.08211 0.90534 0.0
C307 C 0.28026 0.08551 0.95165 0.0
C308 C 0.08172 0.75726 0.15515 0.0
C309 C 0.08514 0.7804 0.20135 0.0
C310 C 0.08175 0.7295 0.10262 0.0
C311 C 0.08521 0.70636 0.05649 0.0
C312 C 0.72905 0.9045 0.90525 0.0
C313 C 0.70592 0.90106 0.95146 0.0
C314 C 0.75681 0.9045 0.85266 0.0
C315 C 0.77994 0.90105 0.80649 0.0
C316 C 0.90447 0.22912 0.15546 0.0
C317 C 0.90103 0.20599 0.20167 0.0
C318 C 0.90448 0.25687 0.10288 0.0
C319 C 0.90105 0.28 0.05668 0.0
C320 C 0.22942 0.40447 0.40644 0.0
C321 C 0.20627 0.40105 0.4526 0.0
C322 C 0.25717 0.40445 0.35387 0.0
C323 C 0.2803 0.401 0.30765 0.0
C324 C 0.40409 0.75687 0.60212 0.0
C325 C 0.40066 0.77996 0.55577 0.0
C326 C 0.40412 0.72917 0.65494 0.0
C327 C 0.40073 0.70608 0.70137 0.0
C328 C 0.72904 0.58214 0.35444 0.0
C329 C 0.70595 0.58556 0.3081 0.0
C330 C 0.75677 0.58212 0.4071 0.0
C331 C 0.7799 0.5855 0.45331 0.0
C332 C 0.58211 0.22929 0.60352 0.0
C333 C 0.58553 0.20617 0.55724 0.0
C334 C 0.58212 0.25702 0.65622 0.0
C335 C 0.58554 0.28012 0.70254 0.0
loop_
_geom_bond_atom_site_label_1
_geom_bond_atom_site_label_2
_geom_bond_distance
_geom_bond_site_symmetry_2
_ccdc_geom_bond_type
In0 O1 2.294 . S
In0 O2 2.326 . S
In0 O6 2.266 . S
In0 O7 2.326 . S
In0 O8 2.266 . S
In0 O9 2.326 . S
In0 O11 2.294 . S
In0 O12 2.326 . S
O1 In0 2.294 . S
O1 C10 1.240 . S
O2 In0 2.326 . S
O2 C10 1.252 . S
C3 O6 1.252 . S
C3 O7 1.260 . S
C4 O11 1.240 . S
C4 O12 1.252 . S
C5 O8 1.252 . S
C5 O9 1.260 . S
O6 In0 2.266 . S
O6 C3 1.252 . S
O7 In0 2.326 . S
O7 C3 1.260 . S
O8 In0 2.266 . S
O8 C5 1.252 . S
O9 In0 2.326 . S
O9 C5 1.260 . S
C10 O1 1.240 . S
C10 O2 1.252 . S
O11 In0 2.294 . S
O11 C4 1.240 . S
O12 In0 2.326 . S
O12 C4 1.252 . S
In13 O14 2.294 . S
In13 O15 2.326 . S
In13 O19 2.266 . S
In13 O20 2.326 . S
In13 O21 2.266 . S
In13 O22 2.326 . S
In13 O24 2.294 . S
In13 O25 2.326 . S
O14 In13 2.294 . S
O14 C23 1.240 . S
O15 In13 2.326 . S
O15 C23 1.252 . S
C16 O19 1.252 . S
C16 O20 1.260 . S
C17 O24 1.240 . S
C17 O25 1.252 . S
C18 O21 1.252 . S
C18 O22 1.260 . S
O19 In13 2.266 . S
O19 C16 1.252 . S
O20 In13 2.326 . S
O20 C16 1.260 . S
O21 In13 2.266 . S
O21 C18 1.252 . S
O22 In13 2.326 . S
O22 C18 1.260 . S
C23 O14 1.240 . S
C23 O15 1.252 . S
O24 In13 2.294 . S
O24 C17 1.240 . S
O25 In13 2.326 . S
O25 C17 1.252 . S
In26 O27 2.294 . S
In26 O28 2.326 . S
In26 O32 2.266 . S
In26 O33 2.326 . S
In26 O34 2.266 . S
In26 O35 2.326 . S
In26 O37 2.294 . S
In26 O38 2.326 . S
O27 In26 2.294 . S
O27 C36 1.240 . S
O28 In26 2.326 . S
O28 C36 1.252 . S
C29 O32 1.252 . S
C29 O33 1.260 . S
C30 O37 1.240 . S
C30 O38 1.252 . S
C31 O34 1.252 . S
C31 O35 1.260 . S
O32 In26 2.266 . S
O32 C29 1.252 . S
O33 In26 2.326 . S
O33 C29 1.260 . S
O34 In26 2.266 . S
O34 C31 1.252 . S
O35 In26 2.326 . S
O35 C31 1.260 . S
C36 O27 1.240 . S
C36 O28 1.252 . S
O37 In26 2.294 . S
O37 C30 1.240 . S
O38 In26 2.326 . S
O38 C30 1.252 . S
In39 O40 2.294 . S
In39 O41 2.326 . S
In39 O45 2.266 . S
In39 O46 2.326 . S
In39 O47 2.266 . S
In39 O48 2.326 . S
In39 O50 2.294 . S
In39 O51 2.326 . S
O40 In39 2.294 . S
O40 C49 1.240 . S
O41 In39 2.326 . S
O41 C49 1.252 . S
C42 O45 1.252 . S
C42 O46 1.260 . S
C43 O50 1.240 . S
C43 O51 1.252 . S
C44 O47 1.252 . S
C44 O48 1.260 . S
O45 In39 2.266 . S
O45 C42 1.252 . S
O46 In39 2.326 . S
O46 C42 1.260 . S
O47 In39 2.266 . S
O47 C44 1.252 . S
O48 In39 2.326 . S
O48 C44 1.260 . S
C49 O40 1.240 . S
C49 O41 1.252 . S
O50 In39 2.294 . S
O50 C43 1.240 . S
O51 In39 2.326 . S
O51 C43 1.252 . S
In52 O53 2.294 . S
In52 O54 2.326 . S
In52 O58 2.266 1_554 S
In52 O59 2.326 . S
In52 O60 2.266 . S
In52 O61 2.326 . S
In52 O63 2.294 . S
In52 O64 2.326 . S
O53 In52 2.294 . S
O53 C62 1.240 . S
O54 In52 2.326 . S
O54 C62 1.252 . S
C55 O58 1.252 1_554 S
C55 O59 1.260 . S
C56 O63 1.240 . S
C56 O64 1.252 . S
C57 O60 1.252 . S
C57 O61 1.260 . S
O58 In52 2.266 1_556 S
O58 C55 1.252 1_556 S
O59 In52 2.326 . S
O59 C55 1.260 . S
O60 In52 2.266 . S
O60 C57 1.252 . S
O61 In52 2.326 . S
O61 C57 1.260 . S
C62 O53 1.240 . S
C62 O54 1.252 . S
O63 In52 2.294 . S
O63 C56 1.240 . S
O64 In52 2.326 . S
O64 C56 1.252 . S
In65 O66 2.294 . S
In65 O67 2.326 . S
In65 O71 2.266 1_556 S
In65 O72 2.326 . S
In65 O73 2.266 . S
In65 O74 2.326 . S
In65 O76 2.294 . S
In65 O77 2.326 . S
O66 In65 2.294 . S
O66 C75 1.240 . S
O67 In65 2.326 . S
O67 C75 1.252 . S
C68 O71 1.252 1_556 S
C68 O72 1.260 . S
C69 O76 1.240 . S
C69 O77 1.252 . S
C70 O73 1.252 . S
C70 O74 1.260 . S
O71 In65 2.266 1_554 S
O71 C68 1.252 1_554 S
O72 In65 2.326 . S
O72 C68 1.260 . S
O73 In65 2.266 . S
O73 C70 1.252 . S
O74 In65 2.326 . S
O74 C70 1.260 . S
C75 O66 1.240 . S
C75 O67 1.252 . S
O76 In65 2.294 . S
O76 C69 1.240 . S
O77 In65 2.326 . S
O77 C69 1.252 . S
In78 O79 2.294 . S
In78 O80 2.326 . S
In78 O84 2.266 1_554 S
In78 O85 2.326 . S
In78 O86 2.266 . S
In78 O87 2.326 . S
In78 O89 2.294 . S
In78 O90 2.326 . S
O79 In78 2.294 . S
O79 C88 1.240 . S
O80 In78 2.326 . S
O80 C88 1.252 . S
C81 O84 1.252 1_554 S
C81 O85 1.260 . S
C82 O89 1.240 . S
C82 O90 1.252 . S
C83 O86 1.252 . S
C83 O87 1.260 . S
O84 In78 2.266 1_556 S
O84 C81 1.252 1_556 S
O85 In78 2.326 . S
O85 C81 1.260 . S
O86 In78 2.266 . S
O86 C83 1.252 . S
O87 In78 2.326 . S
O87 C83 1.260 . S
C88 O79 1.240 . S
C88 O80 1.252 . S
O89 In78 2.294 . S
O89 C82 1.240 . S
O90 In78 2.326 . S
O90 C82 1.252 . S
In91 O92 2.294 . S
In91 O93 2.326 . S
In91 O97 2.266 1_556 S
In91 O98 2.326 . S
In91 O99 2.266 . S
In91 O100 2.326 . S
In91 O102 2.294 . S
In91 O103 2.326 . S
O92 In91 2.294 . S
O92 C101 1.240 . S
O93 In91 2.326 . S
O93 C101 1.252 . S
C94 O97 1.252 1_556 S
C94 O98 1.260 . S
C95 O102 1.240 . S
C95 O103 1.252 . S
C96 O99 1.252 . S
C96 O100 1.260 . S
O97 In91 2.266 1_554 S
O97 C94 1.252 1_554 S
O98 In91 2.326 . S
O98 C94 1.260 . S
O99 In91 2.266 . S
O99 C96 1.252 . S
O100 In91 2.326 . S
O100 C96 1.260 . S
C101 O92 1.240 . S
C101 O93 1.252 . S
O102 In91 2.294 . S
O102 C95 1.240 . S
O103 In91 2.326 . S
O103 C95 1.252 . S
In104 O105 2.294 . S
In104 O106 2.326 . S
In104 O110 2.266 . S
In104 O111 2.326 . S
In104 O112 2.266 . S
In104 O113 2.326 . S
In104 O115 2.294 . S
In104 O116 2.326 . S
O105 In104 2.294 . S
O105 C114 1.240 . S
O106 In104 2.326 . S
O106 C114 1.252 . S
C107 O110 1.252 . S
C107 O111 1.260 . S
C108 O115 1.240 . S
C108 O116 1.252 . S
C109 O112 1.252 . S
C109 O113 1.260 . S
O110 In104 2.266 . S
O110 C107 1.252 . S
O111 In104 2.326 . S
O111 C107 1.260 . S
O112 In104 2.266 . S
O112 C109 1.252 . S
O113 In104 2.326 . S
O113 C109 1.260 . S
C114 O105 1.240 . S
C114 O106 1.252 . S
O115 In104 2.294 . S
O115 C108 1.240 . S
O116 In104 2.326 . S
O116 C108 1.252 . S
In117 O118 2.294 . S
In117 O119 2.326 . S
In117 O123 2.266 . S
In117 O124 2.326 . S
In117 O125 2.266 . S
In117 O126 2.326 . S
In117 O128 2.294 . S
In117 O129 2.326 . S
O118 In117 2.294 . S
O118 C127 1.240 . S
O119 In117 2.326 . S
O119 C127 1.252 . S
C120 O123 1.252 . S
C120 O124 1.260 . S
C121 O128 1.240 . S
C121 O129 1.252 . S
C122 O125 1.252 . S
C122 O126 1.260 . S
O123 In117 2.266 . S
O123 C120 1.252 . S
O124 In117 2.326 . S
O124 C120 1.260 . S
O125 In117 2.266 . S
O125 C122 1.252 . S
O126 In117 2.326 . S
O126 C122 1.260 . S
C127 O118 1.240 . S
C127 O119 1.252 . S
O128 In117 2.294 . S
O128 C121 1.240 . S
O129 In117 2.326 . S
O129 C121 1.252 . S
In130 O131 2.294 . S
In130 O132 2.326 . S
In130 O136 2.266 . S
In130 O137 2.326 . S
In130 O138 2.266 . S
In130 O139 2.326 . S
In130 O141 2.294 . S
In130 O142 2.326 . S
O131 In130 2.294 . S
O131 C140 1.240 . S
O132 In130 2.326 . S
O132 C140 1.252 . S
C133 O136 1.252 . S
C133 O137 1.260 . S
C134 O141 1.240 . S
C134 O142 1.252 . S
C135 O138 1.252 . S
C135 O139 1.260 . S
O136 In130 2.266 . S
O136 C133 1.252 . S
O137 In130 2.326 . S
O137 C133 1.260 . S
O138 In130 2.266 . S
O138 C135 1.252 . S
O139 In130 2.326 . S
O139 C135 1.260 . S
C140 O131 1.240 . S
C140 O132 1.252 . S
O141 In130 2.294 . S
O141 C134 1.240 . S
O142 In130 2.326 . S
O142 C134 1.252 . S
In143 O144 2.294 . S
In143 O145 2.326 . S
In143 O149 2.266 . S
In143 O150 2.326 . S
In143 O151 2.266 . S
In143 O152 2.326 . S
In143 O154 2.294 . S
In143 O155 2.326 . S
O144 In143 2.294 . S
O144 C153 1.240 . S
O145 In143 2.326 . S
O145 C153 1.252 . S
C146 O149 1.252 . S
C146 O150 1.260 . S
C147 O154 1.240 . S
C147 O155 1.252 . S
C148 O151 1.252 . S
C148 O152 1.260 . S
O149 In143 2.266 . S
O149 C146 1.252 . S
O150 In143 2.326 . S
O150 C146 1.260 . S
O151 In143 2.266 . S
O151 C148 1.252 . S
O152 In143 2.326 . S
O152 C148 1.260 . S
C153 O144 1.240 . S
C153 O145 1.252 . S
O154 In143 2.294 . S
O154 C147 1.240 . S
O155 In143 2.326 . S
O155 C147 1.252 . S
In156 O157 2.294 . S
In156 O158 2.326 . S
In156 O162 2.266 . S
In156 O163 2.326 . S
In156 O164 2.266 . S
In156 O165 2.326 . S
In156 O167 2.294 . S
In156 O168 2.326 . S
O157 In156 2.294 . S
O157 C166 1.240 . S
O158 In156 2.326 . S
O158 C166 1.252 . S
C159 O162 1.252 . S
C159 O163 1.260 . S
C160 O167 1.240 . S
C160 O168 1.252 . S
C161 O164 1.252 . S
C161 O165 1.260 . S
O162 In156 2.266 . S
O162 C159 1.252 . S
O163 In156 2.326 . S
O163 C159 1.260 . S
O164 In156 2.266 . S
O164 C161 1.252 . S
O165 In156 2.326 . S
O165 C161 1.260 . S
C166 O157 1.240 . S
C166 O158 1.252 . S
O167 In156 2.294 . S
O167 C160 1.240 . S
O168 In156 2.326 . S
O168 C160 1.252 . S
In169 O170 2.294 . S
In169 O171 2.326 . S
In169 O175 2.266 . S
In169 O176 2.326 . S
In169 O177 2.266 . S
In169 O178 2.326 . S
In169 O180 2.294 . S
In169 O181 2.326 . S
O170 In169 2.294 . S
O170 C179 1.240 . S
O171 In169 2.326 . S
O171 C179 1.252 . S
C172 O175 1.252 . S
C172 O176 1.260 . S
C173 O180 1.240 . S
C173 O181 1.252 . S
C174 O177 1.252 . S
C174 O178 1.260 . S
O175 In169 2.266 . S
O175 C172 1.252 . S
O176 In169 2.326 . S
O176 C172 1.260 . S
O177 In169 2.266 . S
O177 C174 1.252 . S
O178 In169 2.326 . S
O178 C174 1.260 . S
C179 O170 1.240 . S
C179 O171 1.252 . S
O180 In169 2.294 . S
O180 C173 1.240 . S
O181 In169 2.326 . S
O181 C173 1.252 . S
In182 O183 2.294 . S
In182 O184 2.326 . S
In182 O188 2.266 . S
In182 O189 2.326 . S
In182 O190 2.266 . S
In182 O191 2.326 . S
In182 O193 2.294 . S
In182 O194 2.326 . S
O183 In182 2.294 . S
O183 C192 1.240 . S
O184 In182 2.326 . S
O184 C192 1.252 . S
C185 O188 1.252 . S
C185 O189 1.260 . S
C186 O193 1.240 . S
C186 O194 1.252 . S
C187 O190 1.252 . S
C187 O191 1.260 . S
O188 In182 2.266 . S
O188 C185 1.252 . S
O189 In182 2.326 . S
O189 C185 1.260 . S
O190 In182 2.266 . S
O190 C187 1.252 . S
O191 In182 2.326 . S
O191 C187 1.260 . S
C192 O183 1.240 . S
C192 O184 1.252 . S
O193 In182 2.294 . S
O193 C186 1.240 . S
O194 In182 2.326 . S
O194 C186 1.252 . S
In195 O196 2.294 . S
In195 O197 2.326 . S
In195 O201 2.266 . S
In195 O202 2.326 . S
In195 O203 2.266 . S
In195 O204 2.326 . S
In195 O206 2.294 . S
In195 O207 2.326 . S
O196 In195 2.294 . S
O196 C205 1.240 . S
O197 In195 2.326 . S
O197 C205 1.252 . S
C198 O201 1.252 . S
C198 O202 1.260 . S
C199 O206 1.240 . S
C199 O207 1.252 . S
C200 O203 1.252 . S
C200 O204 1.260 . S
O201 In195 2.266 . S
O201 C198 1.252 . S
O202 In195 2.326 . S
O202 C198 1.260 . S
O203 In195 2.266 . S
O203 C200 1.252 . S
O204 In195 2.326 . S
O204 C200 1.260 . S
C205 O196 1.240 . S
C205 O197 1.252 . S
O206 In195 2.294 . S
O206 C199 1.240 . S
O207 In195 2.326 . S
O207 C199 1.252 . S
C208 C209 1.170 . S
C208 C210 1.380 1_565 S
C209 C208 1.170 . S
C210 C208 1.380 1_545 S
C210 C211 1.170 . S
C211 C210 1.170 . S
C212 C213 1.170 . S
C212 C214 1.380 1_455 S
C213 C212 1.170 . S
C214 C212 1.380 1_655 S
C214 C215 1.170 . S
C215 C214 1.170 . S
C216 C217 1.170 . S
C216 C218 1.380 1_565 S
C217 C216 1.170 . S
C218 C216 1.380 1_545 S
C218 C219 1.170 . S
C219 C218 1.170 . S
C220 C221 1.170 . S
C220 C222 1.380 1_455 S
C221 C220 1.170 . S
C222 C220 1.380 1_655 S
C222 C223 1.170 . S
C223 C222 1.170 . S
C224 C225 1.170 . S
C224 C226 1.380 . S
C225 C224 1.170 . S
C226 C224 1.380 . S
C226 C227 1.170 . S
C227 C226 1.170 . S
C228 C229 1.170 . S
C228 C230 1.380 . S
C229 C228 1.170 . S
C230 C228 1.380 . S
C230 C231 1.170 . S
C231 C230 1.170 . S
C232 C233 1.170 . S
C232 C234 1.380 . S
C233 C232 1.170 . S
C234 C232 1.380 . S
C234 C235 1.170 . S
C235 C234 1.170 . S
C236 C237 1.170 . S
C236 C238 1.380 . S
C237 C236 1.170 . S
C238 C236 1.380 . S
C238 C239 1.170 . S
C239 C238 1.170 . S
C240 C241 1.170 . S
C240 C242 1.380 . S
C241 C240 1.170 . S
C242 C240 1.380 . S
C242 C243 1.170 . S
C243 C242 1.170 . S
C244 C245 1.170 . S
C244 C246 1.380 . S
C245 C244 1.170 . S
C246 C244 1.380 . S
C246 C247 1.170 . S
C247 C246 1.170 . S
C248 C249 1.170 . S
C248 C250 1.380 . S
C249 C248 1.170 . S
C250 C248 1.380 . S
C250 C251 1.170 . S
C251 C250 1.170 . S
C252 C253 1.170 . S
C252 C254 1.380 . S
C253 C252 1.170 . S
C254 C252 1.380 . S
C254 C255 1.170 . S
C255 C254 1.170 . S
C256 C257 1.170 . S
C256 C258 1.380 1_565 S
C257 C256 1.170 . S
C258 C256 1.380 1_545 S
C258 C259 1.170 . S
C259 C258 1.170 . S
C260 C261 1.170 . S
C260 C262 1.380 1_655 S
C261 C260 1.170 . S
C262 C260 1.380 1_455 S
C262 C263 1.170 . S
C263 C262 1.170 . S
C264 C265 1.170 . S
C264 C266 1.380 1_565 S
C265 C264 1.170 . S
C266 C264 1.380 1_545 S
C266 C267 1.170 . S
C267 C266 1.170 . S
C268 C269 1.170 . S
C268 C270 1.380 1_655 S
C269 C268 1.170 . S
C270 C268 1.380 1_455 S
C270 C271 1.170 . S
C271 C270 1.170 . S
C272 C273 1.170 . S
C272 C274 1.380 . S
C273 C272 1.170 . S
C274 C272 1.380 . S
C274 C275 1.170 . S
C275 C274 1.170 . S
C276 C277 1.170 . S
C276 C278 1.380 . S
C277 C276 1.170 . S
C278 C276 1.380 . S
C278 C279 1.170 . S
C279 C278 1.170 . S
C280 C281 1.170 . S
C280 C282 1.380 . S
C281 C280 1.170 . S
C282 C280 1.380 . S
C282 C283 1.170 . S
C283 C282 1.170 . S
C284 C285 1.170 . S
C284 C286 1.380 . S
C285 C284 1.170 . S
C286 C284 1.380 . S
C286 C287 1.170 . S
C287 C286 1.170 . S
C288 C289 1.170 . S
C288 C290 1.380 . S
C289 C288 1.170 . S
C290 C288 1.380 . S
C290 C291 1.170 . S
C291 C290 1.170 . S
C292 C293 1.170 . S
C292 C294 1.380 . S
C293 C292 1.170 . S
C294 C292 1.380 . S
C294 C295 1.170 . S
C295 C294 1.170 . S
C296 C297 1.170 . S
C296 C298 1.380 . S
C297 C296 1.170 . S
C298 C296 1.380 . S
C298 C299 1.170 . S
C299 C298 1.170 . S
C300 C301 1.170 . S
C300 C302 1.380 . S
C301 C300 1.170 . S
C302 C300 1.380 . S
C302 C303 1.170 . S
C303 C302 1.170 . S
C304 C305 1.170 . S
C304 C306 1.380 . S
C305 C304 1.170 . S
C306 C304 1.380 . S
C306 C307 1.170 . S
C307 C306 1.170 . S
C308 C309 1.170 . S
C308 C310 1.380 . S
C309 C308 1.170 . S
C310 C308 1.380 . S
C310 C311 1.170 . S
C311 C310 1.170 . S
C312 C313 1.170 . S
C312 C314 1.380 . S
C313 C312 1.170 . S
C314 C312 1.380 . S
C314 C315 1.170 . S
C315 C314 1.170 . S
C316 C317 1.170 . S
C316 C318 1.380 . S
C317 C316 1.170 . S
C318 C316 1.380 . S
C318 C319 1.170 . S
C319 C318 1.170 . S
C320 C321 1.170 . S
C320 C322 1.380 . S
C321 C320 1.170 . S
C322 C320 1.380 . S
C322 C323 1.170 . S
C323 C322 1.170 . S
C324 C325 1.170 . S
C324 C326 1.380 . S
C325 C324 1.170 . S
C326 C324 1.380 . S
C326 C327 1.170 . S
C327 C326 1.170 . S
C328 C329 1.170 . S
C328 C330 1.380 . S
C329 C328 1.170 . S
C330 C328 1.380 . S
C330 C331 1.170 . S
C331 C330 1.170 . S
C332 C333 1.170 . S
C332 C334 1.380 . S
C333 C332 1.170 . S
C334 C332 1.380 . S
C334 C335 1.170 . S
C335 C334 1.170 . S
C209 C148 1.454 . S
C211 C5 1.409 . S
C213 C18 1.410 . S
C215 C107 1.472 . S
C217 C29 1.416 . S
C219 C122 1.468 . S
C221 C135 1.458 . S
C223 C42 1.439 . S
C225 C55 1.410 1_556 S
C227 C70 1.451 . S
C229 C68 1.436 1_554 S
C231 C83 1.448 . S
C233 C96 1.446 . S
C235 C81 1.422 1_556 S
C237 C57 1.464 . S
C239 C94 1.412 1_554 S
C241 C44 1.465 . S
C243 C109 1.413 . S
C245 C120 1.410 . S
C247 C3 1.467 . S
C249 C16 1.456 . S
C251 C133 1.408 . S
C253 C146 1.444 . S
C255 C31 1.453 . S
C257 C161 1.448 . S
C259 C172 1.464 . S
C261 C174 1.416 . S
C263 C185 1.460 . S
C265 C200 1.458 . S
C267 C187 1.448 . S
C269 C159 1.472 . S
C271 C198 1.410 . S
C273 C62 1.272 . S
C275 C4 1.284 . S
C277 C17 1.292 . S
C279 C75 1.293 . S
C281 C36 1.270 . S
C283 C88 1.289 . S
C285 C101 1.317 . S
C287 C49 1.275 . S
C289 C108 1.320 . S
C291 C160 1.298 . S
C293 C173 1.321 . S
C295 C127 1.267 . S
C297 C140 1.319 . S
C299 C186 1.302 . S
C301 C205 1.272 . S
C303 C153 1.314 . S
C305 C192 1.559 . S
C307 C10 1.571 1_556 S
C309 C199 1.572 . S
C311 C23 1.568 1_554 S
C313 C30 1.575 1_556 S
C315 C166 1.554 . S
C317 C179 1.575 . S
C319 C43 1.563 1_554 S
C321 C134 1.561 . S
C323 C56 1.568 . S
C325 C147 1.554 . S
C327 C69 1.571 . S
C329 C82 1.575 . S
C331 C114 1.554 . S
C333 C121 1.554 . S
C335 C95 1.571 . S
