# Generated by pormake.
# Topology wkf, (6)-cn, num edge types: 1
# Building blocks:
#     Node 0, Type 0, BuildingBlock: KUMBOL_clean_sbu_0, # of connection points: 6
#     Node 1, Type 0, BuildingBlock: KUMBOL_clean_sbu_0, # of connection points: 6
#     Node 2, Type 0, BuildingBlock: KUMBOL_clean_sbu_0, # of connection points: 6
#     Node 3, Type 0, BuildingBlock: KUMBOL_clean_sbu_0, # of connection points: 6
#     Node 4, Type 0, BuildingBlock: KUMBOL_clean_sbu_0, # of connection points: 6
#     Node 5, Type 0, BuildingBlock: KUMBOL_clean_sbu_0, # of connection points: 6
#     Node 6, Type 0, BuildingBlock: KUMBOL_clean_sbu_0, # of connection points: 6
#     Node 7, Type 0, BuildingBlock: KUMBOL_clean_sbu_0, # of connection points: 6
#     Node 8, Type 0, BuildingBlock: KUMBOL_clean_sbu_0, # of connection points: 6
#     Node 9, Type 0, BuildingBlock: KUMBOL_clean_sbu_0, # of connection points: 6
#     Node 10, Type 0, BuildingBlock: KUMBOL_clean_sbu_0, # of connection points: 6
#     Node 11, Type 0, BuildingBlock: KUMBOL_clean_sbu_0, # of connection points: 6
#     Edge 12, Type (0, 0), BuildingBlock: UVAHIK_clean_linker_0, # of connection points: 2
#     Edge 13, Type (0, 0), BuildingBlock: UVAHIK_clean_linker_0, # of connection points: 2
#     Edge 14, Type (0, 0), BuildingBlock: UVAHIK_clean_linker_0, # of connection points: 2
#     Edge 15, Type (0, 0), BuildingBlock: UVAHIK_clean_linker_0, # of connection points: 2
#     Edge 16, Type (0, 0), BuildingBlock: UVAHIK_clean_linker_0, # of connection points: 2
#     Edge 17, Type (0, 0), BuildingBlock: UVAHIK_clean_linker_0, # of connection points: 2
#     Edge 18, Type (0, 0), BuildingBlock: UVAHIK_clean_linker_0, # of connection points: 2
#     Edge 19, Type (0, 0), BuildingBlock: UVAHIK_clean_linker_0, # of connection points: 2
#     Edge 20, Type (0, 0), BuildingBlock: UVAHIK_clean_linker_0, # of connection points: 2
#     Edge 21, Type (0, 0), BuildingBlock: UVAHIK_clean_linker_0, # of connection points: 2
#     Edge 22, Type (0, 0), BuildingBlock: UVAHIK_clean_linker_0, # of connection points: 2
#     Edge 23, Type (0, 0), BuildingBlock: UVAHIK_clean_linker_0, # of connection points: 2
#     Edge 24, Type (0, 0), BuildingBlock: UVAHIK_clean_linker_0, # of connection points: 2
#     Edge 25, Type (0, 0), BuildingBlock: UVAHIK_clean_linker_0, # of connection points: 2
#     Edge 26, Type (0, 0), BuildingBlock: UVAHIK_clean_linker_0, # of connection points: 2
#     Edge 27, Type (0, 0), BuildingBlock: UVAHIK_clean_linker_0, # of connection points: 2
#     Edge 28, Type (0, 0), BuildingBlock: UVAHIK_clean_linker_0, # of connection points: 2
#     Edge 29, Type (0, 0), BuildingBlock: UVAHIK_clean_linker_0, # of connection points: 2
#     Edge 30, Type (0, 0), BuildingBlock: UVAHIK_clean_linker_0, # of connection points: 2
#     Edge 31, Type (0, 0), BuildingBlock: UVAHIK_clean_linker_0, # of connection points: 2
#     Edge 32, Type (0, 0), BuildingBlock: UVAHIK_clean_linker_0, # of connection points: 2
#     Edge 33, Type (0, 0), BuildingBlock: UVAHIK_clean_linker_0, # of connection points: 2
#     Edge 34, Type (0, 0), BuildingBlock: UVAHIK_clean_linker_0, # of connection points: 2
#     Edge 35, Type (0, 0), BuildingBlock: UVAHIK_clean_linker_0, # of connection points: 2
#     Edge 36, Type (0, 0), BuildingBlock: UVAHIK_clean_linker_0, # of connection points: 2
#     Edge 37, Type (0, 0), BuildingBlock: UVAHIK_clean_linker_0, # of connection points: 2
#     Edge 38, Type (0, 0), BuildingBlock: UVAHIK_clean_linker_0, # of connection points: 2
#     Edge 39, Type (0, 0), BuildingBlock: UVAHIK_clean_linker_0, # of connection points: 2
#     Edge 40, Type (0, 0), BuildingBlock: UVAHIK_clean_linker_0, # of connection points: 2
#     Edge 41, Type (0, 0), BuildingBlock: UVAHIK_clean_linker_0, # of connection points: 2
#     Edge 42, Type (0, 0), BuildingBlock: UVAHIK_clean_linker_0, # of connection points: 2
#     Edge 43, Type (0, 0), BuildingBlock: UVAHIK_clean_linker_0, # of connection points: 2
#     Edge 44, Type (0, 0), BuildingBlock: UVAHIK_clean_linker_0, # of connection points: 2
#     Edge 45, Type (0, 0), BuildingBlock: UVAHIK_clean_linker_0, # of connection points: 2
#     Edge 46, Type (0, 0), BuildingBlock: UVAHIK_clean_linker_0, # of connection points: 2
#     Edge 47, Type (0, 0), BuildingBlock: UVAHIK_clean_linker_0, # of connection points: 2
# Relax obj value: 0.130
# Max RMSD: 0.266
# Mean RMSD: 0.261
data_MOF--net-wkf--node1-KUMBOL_clean_sbu_0--edge1-UVAHIK_clean_linker_0
_symmetry_space_group_name_H-M    P1
_symmetry_Int_Tables_number       1
_symmetry_cell_setting            triclinic
loop_
_symmetry_equiv_pos_as_xyz
'x, y, z'
_cell_length_a     37.673054
_cell_length_b     37.712765
_cell_length_c     100.32564
_cell_angle_alpha  89.98737
_cell_angle_beta   89.970788
_cell_angle_gamma 119.85491
loop_
_atom_site_label
_atom_site_type_symbol
_atom_site_fract_x
_atom_site_fract_y
_atom_site_fract_z
_atom_type_partial_charge
Gd0 Gd 0.44187 0.98746 0.3329 0.0
Gd1 Gd 0.5286 1.01371 0.35375 0.0
C2 C 0.62709 1.01596 0.32577 0.0
C3 C 0.64768 0.97335 0.33782 0.0
C4 C 0.59343 0.98424 0.34644 0.0
C5 C 0.59856 1.00977 0.33595 0.0
C6 C 0.61726 0.96492 0.34737 0.0
C7 C 0.6526 0.99887 0.32702 0.0
C8 C 0.62718 1.03665 0.31423 0.0
C9 C 0.59712 0.04745 0.31259 0.0
N10 N 0.57211 1.02425 0.33486 0.0
C11 C 0.56901 1.03973 0.32283 0.0
H12 H 0.54389 0.04448 0.32067 0.0
C13 C 0.55394 0.94731 0.365 0.0
N14 N 0.56263 0.97547 0.35512 0.0
C15 C 0.5768 0.92757 0.36639 0.0
C16 C 0.60885 0.93664 0.35759 0.0
H17 H 0.52918 0.93961 0.37189 0.0
H18 H 0.67495 1.00372 0.31939 0.0
H19 H 0.38274 0.99906 0.35502 0.0
H20 H 0.6484 0.04185 0.30617 0.0
H21 H 0.59473 0.06061 0.30327 0.0
H22 H 0.6665 0.95911 0.33843 0.0
H23 H 0.49018 1.01399 0.30326 0.0
H24 H 0.34321 0.07798 0.33815 0.0
H25 H 0.34403 1.03599 0.35699 0.0
H26 H 0.40314 0.10626 0.29446 0.0
H27 H 0.56959 0.90528 0.37423 0.0
H28 H 0.6263 0.92103 0.3586 0.0
H29 H 0.36461 0.10322 0.31467 0.0
H30 H 0.49106 0.05232 0.28321 0.0
N31 N 0.40678 1.02346 0.33595 0.0
C32 C 0.36103 0.0627 0.33739 0.0
C33 C 0.36154 1.03917 0.34807 0.0
C34 C 0.38274 0.06544 0.32574 0.0
C35 C 0.40555 0.04508 0.3253 0.0
C36 C 0.38407 1.01895 0.34705 0.0
N37 N 0.45025 1.02813 0.31409 0.0
C38 C 0.42703 0.04658 0.31388 0.0
C39 C 0.47305 0.05105 0.29179 0.0
C40 C 0.44991 0.07071 0.29149 0.0
C41 C 0.47264 1.0295 0.3032 0.0
C42 C 0.42662 0.06877 0.30263 0.0
H43 H 0.45047 0.08751 0.28266 0.0
O44 O 0.40736 0.94375 0.31707 0.0
O45 O 0.48552 0.96749 0.33994 0.0
O46 O 0.54669 0.07485 0.34283 0.0
O47 O 0.48724 0.05752 0.3305 0.0
O48 O 0.47431 0.96067 0.32015 0.0
O49 O 0.37735 0.94313 0.33541 0.0
O50 O 0.52404 1.00053 0.37479 0.0
O51 O 0.46905 1.01266 0.35286 0.0
O52 O 0.41767 0.95327 0.35261 0.0
O53 O 0.47493 0.95288 0.36114 0.0
O54 O 0.51825 0.06431 0.36085 0.0
O55 O 0.5803 0.0502 0.36689 0.0
C56 C 0.49324 0.9538 0.32959 0.0
C57 C 0.40381 0.089 0.303 0.0
C58 C 0.382 0.0874 0.31453 0.0
C59 C 0.37249 0.92924 0.32327 0.0
C60 C 0.33741 0.92666 0.31558 0.0
C61 C 0.31951 0.94997 0.31957 0.0
C62 C 0.32051 0.9 0.30452 0.0
C63 C 0.28593 0.89668 0.29777 0.0
C64 C 0.28649 0.94781 0.31266 0.0
C65 C 0.26977 0.92142 0.30189 0.0
C66 C 0.52443 0.08521 0.33494 0.0
C67 C 0.47963 0.04693 0.35835 0.0
C68 C 0.55873 1.03286 0.37759 0.0
C69 C 0.55677 0.05977 0.38797 0.0
C70 C 0.52186 0.04587 0.39612 0.0
C71 C 0.58888 0.1001 0.38942 0.0
C72 C 0.58619 0.12654 0.39874 0.0
C73 C 0.51897 0.07202 0.40533 0.0
C74 C 0.55082 0.11221 0.40662 0.0
C75 C 0.43469 0.93864 0.361 0.0
H76 H 0.33049 0.96961 0.32816 0.0
H77 H 0.3333 0.88114 0.30146 0.0
H78 H 0.27337 0.96627 0.31582 0.0
H79 H 0.24377 0.92007 0.29679 0.0
H80 H 0.49648 1.0149 0.39531 0.0
H81 H 0.61571 0.11117 0.38311 0.0
H82 H 0.49197 0.06102 0.41151 0.0
H83 H 0.5481 0.1318 0.41395 0.0
Gd84 Gd 0.49053 0.41715 0.49542 0.0
Gd85 Gd 0.5447 0.49778 0.51952 0.0
C86 C 0.65218 0.59367 0.49484 0.0
C87 C 0.71076 0.60409 0.50796 0.0
C88 C 0.64159 0.55564 0.51532 0.0
C89 C 0.62568 0.565 0.50433 0.0
C90 C 0.68436 0.57496 0.51722 0.0
C91 C 0.6947 0.61346 0.4968 0.0
C92 C 0.63528 0.6006 0.48342 0.0
C93 C 0.59308 0.57845 0.48151 0.0
N94 N 0.5845 0.54419 0.50249 0.0
C95 C 0.56812 0.55013 0.49112 0.0
H96 H 0.53599 0.53236 0.48907 0.0
C97 C 0.62999 0.51601 0.53476 0.0
N98 N 0.61535 0.52628 0.52382 0.0
C99 C 0.67206 0.53435 0.53707 0.0
C100 C 0.69942 0.56389 0.52824 0.0
H101 H 0.60916 0.49396 0.54187 0.0
H102 H 0.71545 0.63549 0.48961 0.0
H103 H 0.39585 0.36969 0.50766 0.0
H104 H 0.65459 0.62219 0.47588 0.0
H105 H 0.57973 0.58274 0.47253 0.0
H106 H 0.74365 0.61912 0.50924 0.0
H107 H 0.55322 0.48576 0.4719 0.0
H108 H 0.31339 0.35067 0.47547 0.0
H109 H 0.32502 0.34128 0.49918 0.0
H110 H 0.40343 0.42525 0.43942 0.0
H111 H 0.68334 0.5258 0.54571 0.0
H112 H 0.73203 0.57789 0.53001 0.0
H113 H 0.34298 0.38126 0.45308 0.0
H114 H 0.54711 0.50366 0.44885 0.0
N115 N 0.42323 0.39536 0.48903 0.0
C116 C 0.34438 0.36321 0.47915 0.0
C117 C 0.35081 0.35809 0.49257 0.0
C118 C 0.37801 0.38522 0.4707 0.0
C119 C 0.41767 0.40087 0.47598 0.0
C120 C 0.39076 0.37445 0.49738 0.0
N121 N 0.48971 0.44232 0.47399 0.0
C122 C 0.45196 0.42559 0.46827 0.0
C123 C 0.52016 0.48135 0.45416 0.0
C124 C 0.48193 0.46315 0.44796 0.0
C125 C 0.5235 0.47079 0.46728 0.0
C126 C 0.44711 0.4354 0.45508 0.0
H127 H 0.47949 0.47159 0.43782 0.0
O128 O 0.48837 0.37027 0.4823 0.0
O129 O 0.55057 0.46808 0.50162 0.0
O130 O 0.49741 0.51181 0.50965 0.0
O131 O 0.45925 0.45673 0.49544 0.0
O132 O 0.55335 0.4345 0.48631 0.0
O133 O 0.45635 0.35319 0.5013 0.0
O134 O 0.55977 0.52175 0.53961 0.0
O135 O 0.48349 0.44429 0.51451 0.0
O136 O 0.50848 0.39136 0.51312 0.0
O137 O 0.55756 0.44695 0.52541 0.0
O138 O 0.50296 0.44831 0.53376 0.0
O139 O 0.53113 0.54479 0.52618 0.0
C140 C 0.57574 0.46347 0.49446 0.0
C141 C 0.40767 0.41835 0.44958 0.0
C142 C 0.37322 0.39327 0.45736 0.0
C143 C 0.46359 0.34026 0.49005 0.0
C144 C 0.4294 0.30389 0.4835 0.0
C145 C 0.38962 0.28539 0.4888 0.0
C146 C 0.43701 0.28566 0.47231 0.0
C147 C 0.40529 0.24932 0.46662 0.0
C148 C 0.35802 0.25028 0.48298 0.0
C149 C 0.36569 0.23232 0.47203 0.0
C150 C 0.46675 0.49192 0.501 0.0
C151 C 0.47213 0.42812 0.52595 0.0
C152 C 0.54148 0.54309 0.53846 0.0
C153 C 0.51108 0.53677 0.54887 0.0
C154 C 0.49204 0.50072 0.55653 0.0
C155 C 0.50158 0.56765 0.5514 0.0
C156 C 0.47423 0.56335 0.56171 0.0
C157 C 0.46354 0.49545 0.56632 0.0
C158 C 0.45483 0.52659 0.56898 0.0
C159 C 0.53752 0.40733 0.52239 0.0
H160 H 0.38285 0.2976 0.49758 0.0
H161 H 0.46779 0.29895 0.46835 0.0
H162 H 0.32745 0.23653 0.48711 0.0
H163 H 0.34051 0.20493 0.46778 0.0
H164 H 0.49947 0.47677 0.55519 0.0
H165 H 0.51618 0.59535 0.54547 0.0
H166 H 0.44897 0.46753 0.57211 0.0
H167 H 0.43406 0.52236 0.57707 0.0
Gd168 Gd 0.10484 0.46842 0.66379 0.0
Gd169 Gd 0.07801 0.52668 0.68555 0.0
C170 C 0.07357 0.62333 0.65849 0.0
C171 C 0.1199 0.68636 0.66991 0.0
C172 C 0.10909 0.62101 0.67819 0.0
C173 C 0.0811 0.60081 0.66825 0.0
C174 C 0.12972 0.66414 0.67894 0.0
C175 C 0.09179 0.66595 0.65969 0.0
C176 C 1.0505 0.60283 0.64729 0.0
C177 C 1.0388 0.56188 0.64548 0.0
N178 N 0.0657 0.55984 0.6671 0.0
C179 C 1.04796 0.54131 0.65527 0.0
H180 H 1.04232 0.51131 0.6529 0.0
C181 C 0.15024 0.61796 0.69535 0.0
N182 N 0.11915 0.59873 0.68631 0.0
C183 C 0.17133 0.66054 0.69653 0.0
C184 C 0.16076 0.68376 0.68838 0.0
H185 H 0.15915 0.60076 0.70175 0.0
H186 H 0.08593 0.68359 0.65239 0.0
H187 H 0.09701 0.39837 0.68556 0.0
H188 H 1.04418 0.61898 0.63955 0.0
H189 H 1.02381 0.54639 0.63634 0.0
H190 H 0.1351 0.71942 0.67042 0.0
H191 H 0.07385 0.4897 0.63496 0.0
H192 H 1.02044 0.28003 0.66848 0.0
H193 H 0.06275 0.32291 0.68723 0.0
H194 H 0.9864 0.31109 0.62559 0.0
H195 H 0.1958 0.6754 0.70373 0.0
H196 H 0.17742 0.71678 0.68923 0.0
H197 H 0.99291 0.27598 0.64534 0.0
H198 H 1.03419 0.45213 0.61511 0.0
N199 N 0.07105 0.39759 0.66674 0.0
C200 C 1.03462 0.313 0.66785 0.0
C201 C 1.05835 0.33708 0.67848 0.0
C202 C 1.03013 0.33178 0.65643 0.0
C203 C 1.0491 0.37475 0.65615 0.0
C204 C 0.07711 0.37968 0.67763 0.0
N205 N 0.06273 0.43598 0.64535 0.0
C206 C 1.04565 0.39455 0.64497 0.0
C207 C 1.03708 0.43559 0.62346 0.0
C208 C 1.01881 0.39301 0.62299 0.0
C209 C 1.05935 0.45679 0.63475 0.0
C210 C 1.02284 0.37191 0.63384 0.0
H211 H 1.00146 0.37672 0.61426 0.0
O212 O 0.14639 0.47804 0.64714 0.0
O213 O 0.12433 0.5313 0.67136 0.0
O214 O 1.01624 0.48289 0.67505 0.0
O215 O 1.03389 0.44184 0.66227 0.0
O216 O 0.1294 0.52801 0.65142 0.0
O217 O 0.15091 0.45001 0.6653 0.0
O218 O 0.09298 0.54079 0.70628 0.0
O219 O 0.08051 0.46909 0.68405 0.0
O220 O 0.14301 0.47926 0.68265 0.0
O221 O 0.1367 0.53034 0.69373 0.0
O222 O 1.02947 0.46556 0.69307 0.0
O223 O 1.03842 0.53854 0.69856 0.0
C224 C 0.13695 0.55326 0.66109 0.0
C225 C 1.00408 0.32906 0.63404 0.0
C226 C 1.00766 0.30905 0.64532 0.0
C227 C 0.16282 0.45876 0.65293 0.0
C228 C 0.16545 0.42659 0.64504 0.0
C229 C 0.14518 0.38591 0.64957 0.0
C230 C 0.18873 0.43607 0.6331 0.0
C231 C 0.19066 0.40488 0.62576 0.0
C232 C 0.14685 0.35526 0.64238 0.0
C233 C 0.16928 0.36454 0.63062 0.0
C234 C 1.00581 0.45041 0.66713 0.0
C235 C 1.047 0.4449 0.68988 0.0
C236 C 1.05884 0.53954 0.70921 0.0
C237 C 1.03575 0.51235 0.72046 0.0
C238 C 1.05167 0.49115 0.72758 0.0
C239 C 0.99782 0.50764 0.72427 0.0
C240 C 0.97608 0.48263 0.73519 0.0
C241 C 1.03023 0.46615 0.7383 0.0
C242 C 0.99275 0.4619 0.74213 0.0
C243 C 0.15453 0.50772 0.6921 0.0
H244 H 0.12827 0.37753 0.6588 0.0
H245 H 0.20494 0.46733 0.62953 0.0
H246 H 0.13098 0.32412 0.64604 0.0
H247 H 0.17059 0.34 0.62545 0.0
H248 H 0.08082 0.4939 0.72494 0.0
H249 H 0.98526 0.52339 0.71865 0.0
H250 H 1.04305 0.45045 0.74378 0.0
H251 H 0.97737 0.44309 0.75073 0.0
Gd252 Gd 0.67745 0.09273 0.83364 0.0
Gd253 Gd 0.5913 0.06688 0.85471 0.0
C254 C 0.4955 0.06992 0.82686 0.0
C255 C 0.47862 0.11556 0.83877 0.0
C256 C 0.53056 0.10118 0.84739 0.0
C257 C 0.52374 0.07483 0.83697 0.0
C258 C 0.50871 0.12256 0.84828 0.0
C259 C 0.47201 0.08925 0.82806 0.0
C260 C 0.49365 0.04805 0.81541 0.0
C261 C 0.52174 1.03464 0.81379 0.0
N262 N 0.54827 0.05805 0.83589 0.0
C263 C 0.54967 0.0411 0.82396 0.0
H264 H 0.57332 1.03414 0.82179 0.0
C265 C 0.57122 0.13713 0.86588 0.0
N266 N 0.56108 0.1086 0.85603 0.0
C267 C 0.55028 0.15884 0.86723 0.0
C268 C 0.51867 0.15134 0.85844 0.0
H269 H 0.59566 0.14361 0.87278 0.0
H270 H 0.44993 0.08544 0.82047 0.0
H271 H 0.73629 0.08026 0.85564 0.0
H272 H 0.47257 0.04376 0.8074 0.0
H273 H 0.52276 1.02037 0.80455 0.0
H274 H 0.46133 0.13144 0.83935 0.0
H275 H 0.62776 0.06589 0.80426 0.0
H276 H 0.7753 1.00135 0.83839 0.0
H277 H 0.77484 0.04308 0.85737 0.0
H278 H 0.71443 0.9735 0.79488 0.0
H279 H 0.55863 0.18142 0.87503 0.0
H280 H 0.50274 0.16849 0.85942 0.0
H281 H 0.75343 0.9764 0.81493 0.0
H282 H 0.62613 1.0274 0.78415 0.0
N283 N 0.71211 0.0563 0.83655 0.0
C284 C 0.75759 1.01677 0.83774 0.0
C285 C 0.75727 1.04015 0.8485 0.0
C286 C 0.73576 1.01428 0.82615 0.0
C287 C 0.71311 1.03481 0.82583 0.0
C288 C 0.73486 0.06051 0.84761 0.0
N289 N 0.6682 0.05192 0.81483 0.0
C290 C 0.69136 1.03341 0.81448 0.0
C291 C 0.6445 1.02877 0.79263 0.0
C292 C 0.66764 1.00913 0.79219 0.0
C293 C 0.64534 0.05041 0.80407 0.0
C294 C 0.69134 1.01113 0.80321 0.0
H295 H 0.66673 0.99225 0.78333 0.0
O296 O 0.71224 0.13543 0.81758 0.0
O297 O 0.63462 0.11361 0.84093 0.0
O298 O 0.57269 1.00547 0.8438 0.0
O299 O 0.63197 1.02244 0.83145 0.0
O300 O 0.64513 0.11991 0.82106 0.0
O301 O 0.74208 0.13667 0.83603 0.0
O302 O 0.59251 0.07808 0.87582 0.0
O303 O 0.65058 0.0675 0.85364 0.0
O304 O 0.70338 0.12877 0.85292 0.0
O305 O 0.64602 0.12491 0.8633 0.0
O306 O 0.60144 1.01628 0.86189 0.0
O307 O 0.53736 1.02967 0.86692 0.0
C308 C 0.62697 0.12752 0.83059 0.0
C309 C 0.71407 0.99082 0.80345 0.0
C310 C 0.73616 0.99233 0.81489 0.0
C311 C 0.74706 0.15009 0.82381 0.0
C312 C 0.78236 0.15257 0.81627 0.0
C313 C 0.80064 0.12987 0.82054 0.0
C314 C 0.7994 0.17895 0.80514 0.0
C315 C 0.83453 0.18271 0.79864 0.0
C316 C 0.83431 0.13254 0.81389 0.0
C317 C 0.85123 0.15878 0.80308 0.0
C318 C 0.59479 0.99479 0.83594 0.0
C319 C 0.6399 1.03326 0.85917 0.0
C320 C 0.55708 0.04593 0.87799 0.0
C321 C 0.55642 1.01785 0.88841 0.0
C322 C 0.59062 1.02929 0.89671 0.0
C323 C 0.52206 0.97882 0.88988 0.0
C324 C 0.52186 0.95118 0.89934 0.0
C325 C 0.59053 1.002 0.90611 0.0
C326 C 0.55647 0.96306 0.9074 0.0
C327 C 0.68643 0.1411 0.86214 0.0
H328 H 0.78951 0.1104 0.82918 0.0
H329 H 0.78629 0.19733 0.80185 0.0
H330 H 0.84778 0.11461 0.81729 0.0
H331 H 0.87774 0.16059 0.79818 0.0
H332 H 0.61768 0.05921 0.89589 0.0
H333 H 0.49575 0.96965 0.88347 0.0
H334 H 0.61692 1.01116 0.91243 0.0
H335 H 0.55695 0.94252 0.91485 0.0
Gd336 Gd 0.63531 0.66327 0.00129 0.0
Gd337 Gd 0.57684 0.57666 0.02218 0.0
C338 C 0.48012 0.47909 -0.0057 0.0
C339 C 0.4173 0.45883 0.00654 0.0
C340 C 0.4826 0.51241 0.01511 0.0
C341 C 0.50271 0.50733 0.00449 0.0
C342 C 0.43955 0.48883 0.01614 0.0
C343 C 0.43758 0.45395 -0.00438 0.0
C344 C 0.50046 0.4788 0.98271 0.0
C345 C 0.5414 0.50829 0.98105 0.0
N346 N 0.54363 0.53332 0.00334 0.0
C347 C 0.56207 0.53611 0.99131 0.0
H348 H 0.59213 0.5607 0.98916 0.0
C349 C 0.48573 0.55109 0.03398 0.0
N350 N 0.50482 0.54276 0.02387 0.0
C351 C 0.44322 0.52846 0.03547 0.0
C352 C 0.42 0.49697 0.02656 0.0
H353 H 0.50302 0.57534 0.04098 0.0
H354 H 0.4199 0.43186 0.98798 0.0
H355 H 0.70736 0.72253 0.02289 0.0
H356 H 0.48424 0.45778 0.97465 0.0
H357 H 0.5568 0.51043 0.97173 0.0
H358 H 0.3843 0.44022 0.00722 0.0
H359 H 0.61153 0.61273 0.972 0.0
H360 H 0.82442 0.76243 0.00487 0.0
H361 H 0.78304 0.76158 0.02419 0.0
H362 H 0.78979 0.69964 0.96167 0.0
H363 H 0.42841 0.53539 0.04349 0.0
H364 H 0.38702 0.47968 0.02766 0.0
H365 H 0.82658 0.73998 0.9814 0.0
H366 H 0.64755 0.61004 0.95183 0.0
N367 N 0.70646 0.69873 0.00368 0.0
C368 C 0.79133 0.74462 0.00439 0.0
C369 C 0.7681 0.74403 0.01535 0.0
C370 C 0.77156 0.72266 0.99288 0.0
C371 C 0.72847 0.69992 0.99279 0.0
C372 C 0.72537 0.7213 0.01471 0.0
N373 N 0.66617 0.65398 0.98223 0.0
C374 C 0.70771 0.67744 0.98161 0.0
C375 C 0.66481 0.62898 0.96017 0.0
C376 C 0.70748 0.65219 0.95949 0.0
C377 C 0.64448 0.63044 0.97165 0.0
C378 C 0.72951 0.6767 0.97031 0.0
H379 H 0.7231 0.65078 0.9506 0.0
O380 O 0.62613 0.69833 0.9856 0.0
O381 O 0.57209 0.61928 0.00849 0.0
O382 O 0.62023 0.55902 0.011 0.0
O383 O 0.66202 0.61933 -0.00085 0.0
O384 O 0.57575 0.63075 0.98875 0.0
O385 O 0.65486 0.72752 0.00408 0.0
O386 O 0.56977 0.58081 0.04339 0.0
O387 O 0.63458 0.63664 0.02129 0.0
O388 O 0.62538 0.68729 0.021 0.0
O389 O 0.56878 0.6298 0.02978 0.0
O390 O 0.63823 0.58774 0.02906 0.0
O391 O 0.56131 0.5243 0.03501 0.0
C392 C 0.55026 0.61156 -0.00176 0.0
C393 C 0.77247 0.69973 0.97028 0.0
C394 C 0.79344 0.72263 0.98154 0.0
C395 C 0.64583 0.73285 0.99199 0.0
C396 C 0.67784 0.76871 0.98449 0.0
C397 C 0.71895 0.78746 0.98859 0.0
C398 C 0.66755 0.78574 0.97358 0.0
C399 C 0.6981 0.8213 0.96709 0.0
C400 C 0.74917 0.8216 0.98196 0.0
C401 C 0.73891 0.83849 0.97134 0.0
C402 C 0.65311 0.58203 0.00331 0.0
C403 C 0.65879 0.62643 0.02669 0.0
C404 C 0.56732 0.54583 0.04585 0.0
C405 C 0.59773 0.54726 0.0555 0.0
C406 C 0.61931 0.58134 0.0639 0.0
C407 C 0.60765 0.51604 0.05569 0.0
C408 C 0.63946 0.51907 0.06381 0.0
C409 C 0.65072 0.58439 0.07204 0.0
C410 C 0.66105 0.55364 0.07196 0.0
C411 C 0.59399 0.67012 0.02946 0.0
H412 H 0.72798 0.77631 -0.00294 0.0
H413 H 0.63593 0.77222 0.97043 0.0
H414 H 0.78069 0.83544 0.98521 0.0
H415 H 0.76304 0.86532 0.96645 0.0
H416 H 0.61245 0.60603 0.06404 0.0
H417 H 0.59035 0.48919 0.04954 0.0
H418 H 0.66717 0.61078 0.07841 0.0
H419 H 0.68578 0.55685 0.07828 0.0
Gd420 Gd 1.0091 0.60737 0.16507 0.0
Gd421 Gd 1.03831 0.55369 0.18862 0.0
C422 C 1.02746 0.44854 0.16285 0.0
C423 C 0.97934 0.38892 0.17553 0.0
C424 C 0.99976 0.45737 0.18358 0.0
C425 C 1.02503 0.47419 0.17263 0.0
C426 C 0.97645 0.41449 0.18511 0.0
C427 C 1.00482 0.40591 0.16443 0.0
C428 C 1.05162 0.46641 0.15156 0.0
C429 C 0.0719 0.50875 0.15009 0.0
N430 N 1.04541 0.51548 0.17117 0.0
C431 C 0.06829 0.53287 0.15998 0.0
H432 H 0.08302 0.56522 0.15831 0.0
C433 C 0.97166 0.46728 0.20334 0.0
N434 N 0.99655 0.48283 0.19242 0.0
C435 C 0.94811 0.42506 0.20529 0.0
C436 C 0.95039 0.39851 0.19611 0.0
H437 H 0.97007 0.48741 0.21067 0.0
H438 H 1.0063 0.38581 0.15701 0.0
H439 H 1.05588 0.70333 0.17607 0.0
H440 H 1.05413 0.44777 0.14381 0.0
H441 H 0.08994 0.52288 0.14125 0.0
H442 H 0.9616 0.35597 0.17652 0.0
H443 H 1.01347 0.54212 0.1421 0.0
H444 H 0.11743 0.7821 0.14293 0.0
H445 H 0.09718 0.7731 0.1667 0.0
H446 H 0.10148 0.68835 0.10808 0.0
H447 H 0.92826 0.41305 0.21389 0.0
H448 H 0.9319 0.36579 0.1976 0.0
H449 H 0.11806 0.75014 0.12099 0.0
H450 H 1.03659 0.54586 0.11908 0.0
N451 N 1.05382 0.6739 0.15783 0.0
C452 C 0.0994 0.75156 0.14698 0.0
C453 C 0.08828 0.74663 0.16044 0.0
C454 C 0.08789 0.71706 0.13899 0.0
C455 C 0.06444 0.67802 0.14474 0.0
C456 C 0.06525 0.70728 0.16574 0.0
N457 N 1.03389 0.60587 0.14359 0.0
C458 C 1.05473 0.64298 0.13746 0.0
C459 C 1.04154 0.57336 0.1241 0.0
C460 C 0.06142 0.61091 0.11751 0.0
C461 C 1.02814 0.57139 0.13722 0.0
C462 C 0.06879 0.64642 0.12423 0.0
H463 H 0.07186 0.61229 0.10735 0.0
O464 O 0.96434 0.61036 0.15217 0.0
O465 O 1.00141 0.54746 0.17098 0.0
O466 O 0.09896 0.60262 0.179 0.0
O467 O 0.08037 0.64079 0.16535 0.0
O468 O 0.96268 0.54452 0.15641 0.0
O469 O 0.97947 0.64163 0.17128 0.0
O470 O 1.0479 0.53789 0.20856 0.0
O471 O 1.04386 0.61433 0.18392 0.0
O472 O 0.96536 0.5879 0.18299 0.0
O473 O 0.97538 0.54053 0.19517 0.0
O474 O 1.03072 0.59466 0.20324 0.0
O475 O 0.09891 0.56644 0.1949 0.0
C476 C 0.97047 0.52224 0.16427 0.0
C477 C 0.09078 0.6852 0.11827 0.0
C478 C 0.10023 0.72042 0.12562 0.0
C479 C 0.95932 0.63505 0.16006 0.0
C480 C 0.95745 0.66972 0.15364 0.0
C481 C 0.97805 0.709 0.15929 0.0
C482 C 0.93269 0.66312 0.14222 0.0
C483 C 0.92861 0.69538 0.13661 0.0
C484 C 0.97518 0.74114 0.15355 0.0
C485 C 0.95075 0.73449 0.14234 0.0
C486 C 0.10889 0.6339 0.17071 0.0
C487 C 1.03913 0.62505 0.19546 0.0
C488 C 0.08746 0.55626 0.20724 0.0
C489 C 0.11181 0.58715 0.21747 0.0
C490 C 0.09471 0.60612 0.22518 0.0
C491 C 0.15296 0.59841 0.21945 0.0
C492 C 0.17693 0.62848 0.22891 0.0
C493 C 0.11872 0.63692 0.23422 0.0
C494 C 0.15965 0.64818 0.23607 0.0
C495 C 0.95452 0.55954 0.19246 0.0
H496 H 0.99609 0.715 0.16825 0.0
H497 H 0.91563 0.63271 0.138 0.0
H498 H 0.99158 0.77134 0.15792 0.0
H499 H 0.94909 0.76013 0.13817 0.0
H500 H 0.06275 0.59714 0.2244 0.0
H501 H 0.16624 0.58358 0.21368 0.0
H502 H 0.10535 0.65159 0.23998 0.0
H503 H 0.17734 0.67122 0.24347 0.0
Gd504 Gd 0.11044 0.6573 0.49067 0.0
Gd505 Gd 0.08479 0.57801 0.46612 0.0
C506 C 0.09636 0.48135 0.49035 0.0
C507 C 0.14494 0.4716 0.47718 0.0
C508 C 0.124 0.52014 0.47002 0.0
C509 C 0.09861 0.51037 0.48099 0.0
C510 C 0.14755 0.5009 0.46801 0.0
C511 C 0.11938 0.46181 0.48833 0.0
C512 C 0.072 0.47369 0.50168 0.0
C513 C 1.05129 0.49529 0.5036 0.0
N514 N 0.07786 0.53086 0.48289 0.0
C515 C 1.0547 0.52395 0.4941 0.0
H516 H 1.03962 0.54116 0.49609 0.0
C517 C 0.15143 0.55984 0.45056 0.0
N518 N 0.12694 0.54961 0.4616 0.0
C519 C 0.17528 0.54161 0.44814 0.0
C520 C 0.17349 0.51212 0.45693 0.0
H521 H 0.15238 0.58191 0.4435 0.0
H522 H 0.11809 0.43954 0.49543 0.0
H523 H 0.06247 0.70552 0.47965 0.0
H524 H 0.06962 0.45179 0.50913 0.0
H525 H 1.03304 0.49025 0.51248 0.0
H526 H 0.16291 0.45665 0.47583 0.0
H527 H 0.10546 0.58647 0.51323 0.0
H528 H 0.99866 0.72032 0.51266 0.0
H529 H 1.01972 0.73261 0.48896 0.0
H530 H 1.01488 0.64201 0.54732 0.0
H531 H 0.19489 0.5502 0.43945 0.0
H532 H 0.19217 0.49819 0.45508 0.0
H533 H 0.99789 0.68722 0.53452 0.0
H534 H 0.08151 0.56584 0.53613 0.0
N535 N 0.0645 0.67786 0.49783 0.0
C536 C 1.01732 0.70841 0.50863 0.0
C537 C 1.02888 0.71517 0.49521 0.0
C538 C 1.02917 0.68558 0.5166 0.0
C539 C 1.05344 0.67078 0.51087 0.0
C540 C 1.05271 0.6996 0.48994 0.0
N541 N 0.0848 0.62975 0.51195 0.0
C542 C 0.06337 0.64544 0.51809 0.0
C543 C 0.07658 0.58858 0.53121 0.0
C544 C 1.05617 0.60574 0.53785 0.0
C545 C 0.09048 0.60074 0.51818 0.0
C546 C 1.04873 0.63405 0.53123 0.0
H547 H 1.04532 0.59608 0.54793 0.0
O548 O 0.15421 0.70429 0.50395 0.0
O549 O 0.11964 0.60646 0.48425 0.0
O550 O 1.02308 0.56423 0.4756 0.0
O551 O 1.0396 0.61829 0.49024 0.0
O552 O 0.15665 0.64034 0.49939 0.0
O553 O 0.13944 0.72134 0.48492 0.0
O554 O 0.07605 0.55749 0.44559 0.0
O555 O 0.077 0.63143 0.47143 0.0
O556 O 0.15499 0.68367 0.47315 0.0
O557 O 0.14883 0.62838 0.4607 0.0
O558 O 0.09307 0.62824 0.45215 0.0
O559 O 1.02569 0.52855 0.45952 0.0
C560 C 0.14995 0.61142 0.49118 0.0
C561 C 1.02602 0.65015 0.53719 0.0
C562 C 1.01633 0.67591 0.5299 0.0
C563 C 0.15916 0.73429 0.49623 0.0
C564 C 0.16044 0.77031 0.5028 0.0
C565 C 0.13911 0.78862 0.49735 0.0
C566 C 0.18552 0.78847 0.51413 0.0
C567 C 0.18926 0.8245 0.51984 0.0
C568 C 0.14164 0.82332 0.5032 0.0
C569 C 0.16646 0.84116 0.51431 0.0
C570 C 1.01204 0.58367 0.48436 0.0
C571 C 0.08254 0.64831 0.46009 0.0
C572 C 1.03694 0.53303 0.44706 0.0
C573 C 1.00993 0.53777 0.43744 0.0
C574 C 1.02235 0.57491 0.43072 0.0
C575 C 0.97097 0.50449 0.43492 0.0
C576 C 0.94451 0.50802 0.42581 0.0
C577 C 0.99578 0.5789 0.42196 0.0
C578 C 0.95696 0.54571 0.41953 0.0
C579 C 0.16832 0.66787 0.46387 0.0
H580 H 0.12081 0.77657 0.48844 0.0
H581 H 0.20315 0.77542 0.51819 0.0
H582 H 0.12472 0.83687 0.49897 0.0
H583 H 0.16794 0.86826 0.51857 0.0
H584 H 1.0526 0.60082 0.43202 0.0
H585 H 0.96137 0.47571 0.43999 0.0
H586 H 1.00559 0.6076 0.41686 0.0
H587 H 0.93725 0.54912 0.41241 0.0
Gd588 Gd 0.48578 0.0854 0.65327 0.0
Gd589 Gd 0.54749 0.05801 0.63333 0.0
C590 C 0.64173 0.0617 0.66341 0.0
C591 C 0.70589 0.10799 0.65249 0.0
C592 C 0.64101 0.09284 0.64245 0.0
C593 C 0.61993 0.06635 0.65272 0.0
C594 C 0.68425 0.11449 0.64231 0.0
C595 C 0.68465 0.08162 0.66303 0.0
C596 C 0.61999 1.03927 0.67457 0.0
C597 C 0.57811 1.02476 0.67528 0.0
N598 N 0.57845 0.04883 0.65297 0.0
C599 C 0.55812 1.03089 0.66455 0.0
H600 H 0.5269 1.02267 0.66602 0.0
C601 C 0.63902 0.12769 0.62318 0.0
N602 N 0.61928 0.09984 0.63311 0.0
C603 C 0.68175 0.14962 0.62257 0.0
C604 C 0.70451 0.14292 0.63215 0.0
H605 H 0.62204 0.13329 0.61563 0.0
H606 H 0.70175 0.07805 0.6711 0.0
H607 H 0.41263 0.07038 0.63178 0.0
H608 H 0.63556 1.03515 0.683 0.0
H609 H 0.5613 1.00978 0.68424 0.0
H610 H 0.73906 0.12415 0.65251 0.0
H611 H 0.51131 0.05979 0.6826 0.0
H612 H 0.29654 0.9909 0.64992 0.0
H613 H 0.33691 1.03176 0.63054 0.0
H614 H 0.33337 0.96531 0.69318 0.0
H615 H 0.69707 0.17175 0.6147 0.0
H616 H 0.73764 0.16026 0.63174 0.0
H617 H 0.29554 0.96725 0.67345 0.0
H618 H 0.47626 1.02107 0.70281 0.0
N619 N 0.41465 0.04794 0.65096 0.0
C620 C 0.32967 1.00696 0.65036 0.0
C621 C 0.35233 1.02977 0.63936 0.0
C622 C 0.35002 1.00569 0.66188 0.0
C623 C 0.39315 1.02703 0.66191 0.0
C624 C 0.3951 0.05082 0.63995 0.0
N625 N 0.45614 0.04525 0.67242 0.0
C626 C 0.41451 1.02627 0.67309 0.0
C627 C 0.45856 1.02218 0.69449 0.0
C628 C 0.41587 1.00195 0.69524 0.0
C629 C 0.47834 0.04402 0.68297 0.0
C630 C 0.39326 1.00364 0.68444 0.0
H631 H 0.40068 0.98489 0.70416 0.0
O632 O 0.49439 0.13043 0.66855 0.0
O633 O 0.54987 0.10533 0.64663 0.0
O634 O 0.50246 0.99641 0.64375 0.0
O635 O 0.45922 1.01469 0.65494 0.0
O636 O 0.54457 0.11389 0.66622 0.0
O637 O 0.463 0.1278 0.65034 0.0
O638 O 0.55888 0.06763 0.61216 0.0
O639 O 0.4895 0.05974 0.63359 0.0
O640 O 0.4969 0.11938 0.63346 0.0
O641 O 0.55337 0.11741 0.62477 0.0
O642 O 0.48779 1.00935 0.6247 0.0
O643 O 0.56977 1.02324 0.62238 0.0
C644 C 0.57089 0.12022 0.657 0.0
C645 C 0.35025 0.98276 0.68453 0.0
C646 C 0.3287 0.98377 0.67327 0.0
C647 C 0.47273 0.14337 0.66228 0.0
C648 C 0.44027 0.14566 0.67017 0.0
C649 C 0.39888 0.11874 0.66729 0.0
C650 C 0.45004 0.1747 0.68055 0.0
C651 C 0.41851 0.17583 0.68803 0.0
C652 C 0.36801 0.11823 0.67499 0.0
C653 C 0.37761 0.14598 0.68535 0.0
C654 C 0.46849 0.98637 0.65089 0.0
C655 C 0.46648 1.02664 0.62738 0.0
C656 C 0.56804 1.03881 0.61092 0.0
C657 C 0.54864 1.01093 0.59961 0.0
C658 C 0.55493 1.02753 0.58674 0.0
C659 C 0.52469 0.96841 0.60135 0.0
C660 C 0.50872 0.94225 0.59023 0.0
C661 C 0.53815 1.00209 0.57573 0.0
C662 C 0.51567 0.95981 0.5774 0.0
C663 C 0.52825 0.13284 0.62498 0.0
H664 H 0.38999 0.09797 0.65903 0.0
H665 H 0.48181 0.19671 0.68254 0.0
H666 H 0.33632 0.09637 0.67283 0.0
H667 H 0.35258 0.14413 0.69119 0.0
H668 H 0.57313 0.06026 0.58521 0.0
H669 H 0.51903 0.95585 0.61133 0.0
H670 H 0.54345 1.01513 0.56582 0.0
H671 H 0.50507 0.94102 0.56854 0.0
Gd672 Gd 0.44263 0.47596 0.82082 0.0
Gd673 Gd 0.53019 0.53659 0.8006 0.0
C674 C 0.62091 0.6339 0.82975 0.0
C675 C 0.6367 0.69677 0.81831 0.0
C676 C 0.5874 0.63083 0.8089 0.0
C677 C 0.59408 0.61094 0.8193 0.0
C678 C 0.60812 0.67399 0.80839 0.0
C679 C 0.64309 0.67675 0.82898 0.0
C680 C 0.62273 0.61336 0.84107 0.0
C681 C 0.59598 0.57152 0.84221 0.0
N682 N 0.57084 0.56949 0.81995 0.0
C683 C 0.5694 0.55035 0.83172 0.0
H684 H 0.54666 0.51929 0.83355 0.0
C685 C 0.54893 0.62654 0.78979 0.0
N686 N 0.55825 0.60802 0.79984 0.0
C687 C 0.56882 0.66914 0.78882 0.0
C688 C 0.59867 0.69302 0.79814 0.0
H689 H 0.52614 0.60867 0.78242 0.0
H690 H 0.66404 0.69473 0.83685 0.0
H691 H 0.38567 0.40685 0.79803 0.0
H692 H 0.64274 0.62984 0.84932 0.0
H693 H 0.59493 0.55568 0.85133 0.0
H694 H 0.65304 0.72989 0.81804 0.0
H695 H 0.49008 0.49615 0.85055 0.0
H696 H 0.34307 0.28778 0.81474 0.0
H697 H 0.34591 0.33146 0.79588 0.0
H698 H 0.40073 0.31696 0.85872 0.0
H699 H 0.56108 0.68352 0.78088 0.0
H700 H 0.61377 0.72604 0.79744 0.0
H701 H 0.36296 0.2827 0.83831 0.0
H702 H 0.48962 0.45768 0.87054 0.0
N703 N 0.40766 0.40533 0.81737 0.0
C704 C 0.36118 0.32073 0.81561 0.0
C705 C 0.36281 0.34528 0.80493 0.0
C706 C 0.3823 0.33902 0.8274 0.0
C707 C 0.40547 0.38201 0.82801 0.0
C708 C 0.38582 0.38785 0.80607 0.0
N709 N 0.45012 0.44284 0.83952 0.0
C710 C 0.42651 0.40132 0.83956 0.0
C711 C 0.47186 0.44149 0.86187 0.0
C712 C 0.44825 0.39884 0.86201 0.0
C713 C 0.47222 0.4632 0.85051 0.0
C714 C 0.4253 0.37818 0.85075 0.0
H715 H 0.4482 0.38215 0.87081 0.0
O716 O 0.40697 0.48325 0.83675 0.0
O717 O 0.48571 0.53991 0.81396 0.0
O718 O 0.54785 0.49282 0.81137 0.0
O719 O 0.48765 0.45045 0.82325 0.0
O720 O 0.47406 0.53451 0.83377 0.0
O721 O 0.37823 0.45605 0.81804 0.0
O722 O 0.53207 0.5465 0.77933 0.0
O723 O 0.47097 0.47831 0.80099 0.0
O724 O 0.41797 0.48736 0.8015 0.0
O725 O 0.47611 0.53994 0.79125 0.0
O726 O 0.52045 0.47635 0.79301 0.0
O727 O 0.58745 0.55909 0.78981 0.0
C728 C 0.49246 0.56079 0.82441 0.0
C729 C 0.40205 0.33531 0.85022 0.0
C730 C 0.38066 0.31579 0.83858 0.0
C731 C 0.37255 0.46383 0.83027 0.0
C732 C 0.33668 0.43091 0.83752 0.0
C733 C 0.31811 0.39036 0.83291 0.0
C734 C 0.3195 0.4398 0.84873 0.0
C735 C 0.28398 0.40843 0.85501 0.0
C736 C 0.28405 0.35931 0.83933 0.0
C737 C 0.26705 0.36817 0.85025 0.0
C738 C 0.52504 0.45975 0.81899 0.0
C739 C 0.48174 0.45477 0.79544 0.0
C740 C 0.57019 0.55604 0.77825 0.0
C741 C 0.57947 0.53602 0.76726 0.0
C742 C 0.56469 0.53638 0.75446 0.0
C743 C 0.60391 0.51797 0.7692 0.0
C744 C 0.61556 0.50235 0.75833 0.0
C745 C 0.57473 0.51965 0.74372 0.0
C746 C 0.60038 0.50326 0.74556 0.0
C747 C 0.43559 0.51645 0.79229 0.0
H748 H 0.3294 0.38242 0.82421 0.0
H749 H 0.3329 0.471 0.85226 0.0
H750 H 0.2704 0.32822 0.8357 0.0
H751 H 0.24037 0.34337 0.85498 0.0
H752 H 0.54571 0.55006 0.75273 0.0
H753 H 0.61428 0.51671 0.77916 0.0
H754 H 0.5635 0.52038 0.73385 0.0
H755 H 0.60928 0.49263 0.73685 0.0
Gd756 Gd 1.0164 0.42533 0.99057 0.0
Gd757 Gd 1.04285 0.50984 0.96861 0.0
C758 C 1.04263 0.60957 -0.00483 0.0
C759 C 0.99589 0.62485 0.98321 0.0
C760 C 1.00928 0.57162 0.97526 0.0
C761 C 1.03667 0.57988 0.98547 0.0
C762 C 0.98778 0.59331 0.97418 0.0
C763 C 1.02333 0.633 0.9937 0.0
C764 C 0.06535 0.61281 0.00654 0.0
C765 C 0.07839 0.58459 0.00856 0.0
N766 N 1.05319 0.55524 0.98687 0.0
C767 C 0.07079 0.55517 -0.00118 0.0
H768 H 0.07743 0.53153 0.00135 0.0
C769 C 0.97087 0.52789 0.95765 0.0
N770 N 1.00081 0.53975 0.96712 0.0
C771 C 0.94899 0.5486 0.95614 0.0
C772 C 0.95769 0.58169 0.96437 0.0
H773 H 0.96352 0.5024 0.95114 0.0
H774 H 1.02795 0.65617 0.00097 0.0
H775 H 1.02649 0.3637 0.96915 0.0
H776 H 0.07047 0.63502 0.01424 0.0
H777 H 0.09321 0.58463 0.01781 0.0
H778 H 0.97995 0.64205 0.98247 0.0
H779 H 1.04527 0.47754 0.01945 0.0
H780 H 0.10479 0.32443 0.98674 0.0
H781 H 0.06246 0.32389 0.96779 0.0
H782 H 0.13545 0.38907 0.02968 0.0
H783 H 0.92537 0.53895 0.94862 0.0
H784 H 0.94042 0.59746 0.96326 0.0
H785 H 0.13101 0.34809 0.00999 0.0
H786 H 0.08422 0.48011 0.03957 0.0
N787 N 1.05173 0.38947 0.98797 0.0
C788 C 0.08992 0.34268 0.98723 0.0
C789 C 0.06619 0.34241 0.97648 0.0
C790 C 0.0934 0.36575 -0.0014 0.0
C791 C 0.07355 0.38904 -0.00131 0.0
C792 C 1.04649 0.3655 0.97715 0.0
N793 N 1.05787 0.43555 0.00928 0.0
C794 C 0.07578 0.41187 0.00984 0.0
C795 C 0.08215 0.46089 0.03125 0.0
C796 C 0.10117 0.43719 0.03192 0.0
C797 C 0.06024 0.4595 0.01982 0.0
C798 C 0.09829 0.41239 0.02112 0.0
H799 H 0.11826 0.43851 0.04078 0.0
O800 O 0.97403 0.39314 0.00698 0.0
O801 O 0.9964 0.46823 0.98277 0.0
O802 O 0.10434 0.52851 0.9795 0.0
O803 O 0.087 0.47022 0.99241 0.0
O804 O 0.99081 0.45988 0.00273 0.0
O805 O 0.97156 0.36072 0.98901 0.0
O806 O 1.0303 0.50794 0.94757 0.0
O807 O 1.04117 0.45013 0.97033 0.0
O808 O 0.97891 0.39783 0.97159 0.0
O809 O 0.98462 0.45475 0.96037 0.0
O810 O 0.09258 0.49804 0.96168 0.0
O811 O 0.08167 0.56196 0.95587 0.0
C812 C 0.98332 0.47741 0.99298 0.0
C813 C 0.11797 0.38906 0.0211 0.0
C814 C 0.11559 0.36586 0.00986 0.0
C815 C 0.95867 0.35752 0.00125 0.0
C816 C 0.95627 0.32321 0.00935 0.0
C817 C 0.97941 0.30489 0.00561 0.0
C818 C 0.92984 0.30732 0.02053 0.0
C819 C 0.92667 0.27338 0.02766 0.0
C820 C 0.97753 0.27265 0.0129 0.0
C821 C 0.95145 0.25698 0.02381 0.0
C822 C 0.11488 0.50683 0.9876 0.0
C823 C 0.0752 0.45988 0.96477 0.0
C824 C 0.06388 0.54176 0.94502 0.0
C825 C 0.0904 0.53896 0.93468 0.0
C826 C 0.07991 0.50124 0.92863 0.0
C827 C 0.12736 0.57373 0.93116 0.0
C828 C 0.15398 0.57098 0.92192 0.0
C829 C 0.10627 0.49838 0.91949 0.0
C830 C 0.14324 0.53297 0.91618 0.0
C831 C 0.96727 0.41445 0.96205 0.0
H832 H 0.99865 0.31489 -0.00309 0.0
H833 H 0.91099 0.32034 0.02337 0.0
H834 H 0.99592 0.25924 0.00994 0.0
H835 H 0.9503 0.23153 0.0292 0.0
H836 H 1.05157 0.47373 0.93106 0.0
H837 H 0.13579 0.60277 0.93586 0.0
H838 H 0.09805 0.46925 0.91495 0.0
H839 H 0.16311 0.53011 0.90898 0.0
Gd840 Gd 0.62683 0.99285 0.15806 0.0
Gd841 Gd 0.56876 1.01774 0.13517 0.0
C842 C 0.46164 1.00496 0.16041 0.0
C843 C 0.403 0.95488 0.1478 0.0
C844 C 0.47219 0.97643 0.14018 0.0
C845 C 0.48815 1.00284 0.15089 0.0
C846 C 0.4294 0.95205 0.13854 0.0
C847 C 0.41908 0.98129 0.15871 0.0
C848 C 0.47861 1.0297 0.17162 0.0
C849 C 0.5209 0.05052 0.17335 0.0
N850 N 0.52946 1.02427 0.15249 0.0
C851 C 0.5459 0.04714 0.16373 0.0
H852 H 0.57806 0.06203 0.16568 0.0
C853 C 0.48383 0.94762 0.12092 0.0
N854 N 0.49842 0.97319 0.13167 0.0
C855 C 0.44175 0.92291 0.11889 0.0
C856 C 0.41437 0.92501 0.12777 0.0
H857 H 0.5046 0.94698 0.11365 0.0
H858 H 0.39834 0.98259 0.16593 0.0
H859 H 0.69916 1.00312 0.13672 0.0
H860 H 0.4593 1.03203 0.17918 0.0
H861 H 0.53431 0.06879 0.1822 0.0
H862 H 0.3701 0.93633 0.14672 0.0
H863 H 0.60278 1.02042 0.18722 0.0
H864 H 0.8159 0.08116 0.15458 0.0
H865 H 0.7748 1.03998 0.13538 0.0
H866 H 0.78087 0.10896 0.19778 0.0
H867 H 0.43047 0.90259 0.11039 0.0
H868 H 0.38175 0.90572 0.1262 0.0
H869 H 0.8178 0.10568 0.17801 0.0
H870 H 0.63876 0.05807 0.20752 0.0
N871 N 0.69793 1.02761 0.15562 0.0
C872 C 0.78281 0.06613 0.15501 0.0
C873 C 0.75974 0.04315 0.14412 0.0
C874 C 0.76289 0.0686 0.16647 0.0
C875 C 0.71979 0.04856 0.16652 0.0
C876 C 0.717 1.02325 0.14473 0.0
N877 N 0.65734 1.03206 0.1772 0.0
C878 C 0.69891 0.05003 0.17776 0.0
C879 C 0.65598 0.05598 0.19922 0.0
C880 C 0.6986 0.07465 0.19996 0.0
C881 C 0.63567 1.0346 0.18771 0.0
C882 C 0.72066 0.07212 0.18911 0.0
H883 H 0.7142 0.09141 0.20886 0.0
O884 O 0.61947 0.951 0.17427 0.0
O885 O 0.56428 0.97407 0.15058 0.0
O886 O 0.61689 0.07928 0.14489 0.0
O887 O 0.65267 0.06253 0.16022 0.0
O888 O 0.56743 0.96728 0.17048 0.0
O889 O 0.64622 0.94788 0.15549 0.0
O890 O 0.55659 1.02532 0.1146 0.0
O891 O 0.6312 1.02894 0.13963 0.0
O892 O 0.61385 0.9533 0.13951 0.0
O893 O 0.56074 0.95628 0.12833 0.0
O894 O 0.61278 1.01899 0.1199 0.0
O895 O 0.57078 0.07387 0.12895 0.0
C896 C 0.54229 0.96064 0.16085 0.0
C897 C 0.76361 0.09186 0.18914 0.0
C898 C 0.78466 0.09014 0.17785 0.0
C899 C 0.63823 0.93503 0.16782 0.0
C900 C 0.6705 0.93118 0.17516 0.0
C901 C 0.7114 0.95292 0.17084 0.0
C902 C 0.66056 0.90447 0.18621 0.0
C903 C 0.6913 0.89959 0.19266 0.0
C904 C 0.74189 0.94937 0.17748 0.0
C905 C 0.73202 0.92298 0.18827 0.0
C906 C 0.64622 0.09019 0.15411 0.0
C907 C 0.64308 1.02795 0.12781 0.0
C908 C 0.5611 0.06141 0.11667 0.0
C909 C 0.53328 0.07175 0.10972 0.0
C910 C 0.49156 0.04364 0.10789 0.0
C911 C 0.55017 0.11071 0.10411 0.0
C912 C 0.52611 0.12178 0.09647 0.0
C913 C 0.46733 0.05448 0.10027 0.0
C914 C 0.48455 0.09332 0.09447 0.0
C915 C 0.58441 0.93969 0.13034 0.0
H916 H 0.72007 0.97231 0.1622 0.0
H917 H 0.62903 0.88667 0.18948 0.0
H918 H 0.77329 0.9667 0.17408 0.0
H919 H 0.75637 0.92054 0.19315 0.0
H920 H 0.47782 1.01341 0.11217 0.0
H921 H 0.58253 0.13226 0.10543 0.0
H922 H 0.43521 1.03269 0.0988 0.0
H923 H 0.46542 0.1013 0.0886 0.0
Gd924 Gd 0.67569 0.60149 0.3234 0.0
Gd925 Gd 0.59199 0.5463 0.30054 0.0
C926 C 0.49738 0.4433 0.32701 0.0
C927 C 0.48479 0.38271 0.3147 0.0
C928 C 0.53346 0.45046 0.30631 0.0
C929 C 0.52533 0.4682 0.31707 0.0
C930 C 0.51356 0.40747 0.30508 0.0
C931 C 0.4767 0.40059 0.32564 0.0
C932 C 0.49224 0.46192 0.33831 0.0
C933 C 0.51579 0.50415 0.33975 0.0
N934 N 0.54703 0.50956 0.31836 0.0
C935 C 0.54345 0.52748 0.32975 0.0
H936 H 0.56259 0.55951 0.33155 0.0
C937 C 0.57251 0.45863 0.28694 0.0
N938 N 0.56257 0.47512 0.29747 0.0
C939 C 0.55345 0.41628 0.28527 0.0
C940 C 0.52383 0.39055 0.29438 0.0
H941 H 0.59493 0.47808 0.27966 0.0
H942 H 0.45511 0.38108 0.33315 0.0
H943 H 0.73436 0.6831 0.3047 0.0
H944 H 0.47122 0.44387 0.34616 0.0
H945 H 0.51318 0.51878 0.34869 0.0
H946 H 0.46923 0.34969 0.31391 0.0
H947 H 0.61233 0.56451 0.3504 0.0
H948 H 0.76866 0.78991 0.32832 0.0
H949 H 0.77086 0.75845 0.30691 0.0
H950 H 0.6985 0.73524 0.36963 0.0
H951 H 0.56162 0.40352 0.27694 0.0
H952 H 0.50935 0.35771 0.29313 0.0
H953 H 0.74271 0.78083 0.35187 0.0
H954 H 0.60436 0.59099 0.3719 0.0
N955 N 0.70866 0.67269 0.32406 0.0
C956 C 0.7518 0.75694 0.32727 0.0
C957 C 0.7528 0.73934 0.31511 0.0
C958 C 0.72902 0.73184 0.33791 0.0
C959 C 0.70764 0.68916 0.33603 0.0
C960 C 0.73123 0.6968 0.31373 0.0
N961 N 0.65981 0.62235 0.34354 0.0
C962 C 0.68276 0.66322 0.34612 0.0
C963 C 0.62668 0.61155 0.36476 0.0
C964 C 0.65058 0.65313 0.36768 0.0
C965 C 0.63152 0.59658 0.35254 0.0
C966 C 0.67856 0.67966 0.35824 0.0
H967 H 0.64642 0.6646 0.37711 0.0
O968 O 0.71412 0.59665 0.33877 0.0
O969 O 0.63024 0.54003 0.31588 0.0
O970 O 0.57908 0.59445 0.3104 0.0
O971 O 0.63565 0.63277 0.32399 0.0
O972 O 0.64455 0.54094 0.33528 0.0
O973 O 0.74033 0.62443 0.3197 0.0
O974 O 0.56739 0.52822 0.28059 0.0
O975 O 0.6455 0.60766 0.30494 0.0
O976 O 0.70113 0.58533 0.30497 0.0
O977 O 0.64354 0.53608 0.29331 0.0
O978 O 0.63761 0.5881 0.28548 0.0
O979 O 0.54439 0.5583 0.2934 0.0
C980 C 0.6232 0.51681 0.32578 0.0
C981 C 0.70113 0.7221 0.36033 0.0
C982 C 0.72626 0.7481 0.3502 0.0
C983 C 0.74766 0.61681 0.33181 0.0
C984 C 0.78427 0.64964 0.33882 0.0
C985 C 0.80476 0.68948 0.33358 0.0
C986 C 0.80041 0.64114 0.35042 0.0
C987 C 0.83654 0.67227 0.35651 0.0
C988 C 0.83913 0.72046 0.33987 0.0
C989 C 0.85485 0.71205 0.35121 0.0
C990 C 0.60019 0.6258 0.3187 0.0
C991 C 0.65933 0.61866 0.29319 0.0
C992 C 0.54691 0.54754 0.28123 0.0
C993 C 0.55567 0.57854 0.27075 0.0
C994 C 0.58921 0.59126 0.26204 0.0
C995 C 0.53141 0.59707 0.2698 0.0
C996 C 0.54066 0.62832 0.26041 0.0
C997 C 0.59924 0.62302 0.25302 0.0
C998 C 0.57528 0.64158 0.25222 0.0
C999 C 0.68378 0.55692 0.29549 0.0
H1000 H 0.79482 0.69687 0.32446 0.0
H1001 H 0.78582 0.61032 0.35438 0.0
H1002 H 0.85414 0.75109 0.33577 0.0
H1003 H 0.88191 0.73682 0.35578 0.0
H1004 H 0.60809 0.57709 0.26223 0.0
H1005 H 0.50481 0.58641 0.27619 0.0
H1006 H 0.62558 0.63311 0.24656 0.0
H1007 H 0.58358 0.66601 0.24507 0.0
C1008 C 1.0479 0.67358 0.21336 0.0
C1009 C 0.06271 0.66635 0.20141 0.0
C1010 C 0.07432 0.7037 0.22229 0.0
C1011 C 0.18269 0.75542 0.23255 0.0
H1012 H 0.14944 0.81627 0.25552 0.0
C1013 C 0.2854 0.8669 0.27507 0.0
C1014 C 0.26472 0.86698 0.28674 0.0
C1015 C 0.26335 0.84382 0.2639 0.0
C1016 C 0.15913 0.7992 0.24929 0.0
H1017 H 0.11669 0.68758 0.18912 0.0
H1018 H 0.16285 0.74035 0.20456 0.0
H1019 H 0.10628 0.77786 0.23682 0.0
H1020 H 0.20518 0.84071 0.29615 0.0
H1021 H 0.16712 0.80028 0.27696 0.0
H1022 H 0.23535 0.77641 0.24523 0.0
C1023 C 0.13073 0.72228 0.20712 0.0
C1024 C 0.13436 0.77725 0.23851 0.0
C1025 C 0.10406 0.69232 0.19811 0.0
C1026 C 0.22197 0.84173 0.28725 0.0
C1027 C 0.2001 0.8188 0.27619 0.0
C1028 C 0.20756 0.77745 0.24339 0.0
C1029 C 0.11647 0.72731 0.21956 0.0
C1030 C 0.14535 0.75444 0.23011 0.0
C1031 C 0.22023 0.82044 0.2642 0.0
C1032 C 0.19568 0.799 0.25207 0.0
H1033 H 1.01641 0.65349 0.21634 0.0
H1034 H 0.06211 0.70631 0.23178 0.0
H1035 H 0.19199 0.73787 0.22639 0.0
H1036 H 0.3183 0.88624 0.27436 0.0
H1037 H 0.27991 0.84576 0.25485 0.0
C1038 C 0.43515 0.24949 0.44396 0.0
C1039 C 0.41282 0.22802 0.4553 0.0
C1040 C 0.43907 0.22849 0.43298 0.0
C1041 C 0.43131 0.12972 0.42309 0.0
H1042 H 0.41665 0.15991 0.38745 0.0
C1043 C 0.43299 1.03665 0.37748 0.0
C1044 C 0.4549 0.05959 0.36632 0.0
C1045 C 0.42242 0.05497 0.38777 0.0
C1046 C 0.42122 0.15118 0.3973 0.0
H1047 H 0.3786 0.16772 0.46415 0.0
H1048 H 0.38552 0.13138 0.44516 0.0
H1049 H 0.41294 0.19784 0.40658 0.0
H1050 H 0.4822 0.11916 0.35704 0.0
H1051 H 0.46382 0.15103 0.37475 0.0
H1052 H 0.44032 0.08363 0.4139 0.0
C1053 C 0.3999 0.16437 0.44466 0.0
C1054 C 0.41915 0.1731 0.4083 0.0
C1055 C 0.39565 0.18524 0.45553 0.0
C1056 C 0.46416 0.10043 0.36534 0.0
C1057 C 0.45375 0.11877 0.37559 0.0
C1058 C 0.43365 0.10799 0.4121 0.0
C1059 C 0.42124 0.18556 0.43314 0.0
C1060 C 0.42422 0.16273 0.42136 0.0
C1061 C 0.43402 0.0968 0.38721 0.0
C1062 C 0.42877 0.11839 0.399 0.0
H1063 H 0.44863 0.28239 0.44342 0.0
H1064 H 0.45613 0.2459 0.42435 0.0
H1065 H 0.43585 0.12108 0.43297 0.0
H1066 H 0.4267 1.0055 0.3787 0.0
H1067 H 0.40668 1.03674 0.39643 0.0
C1068 C 0.19901 0.38535 0.6025 0.0
C1069 C 0.21524 0.41293 0.61324 0.0
C1070 C 0.22367 0.38734 0.59177 0.0
C1071 C 0.32124 0.45146 0.57393 0.0
H1072 H 0.31117 0.34698 0.56457 0.0
C1073 C 0.40883 0.43363 0.52909 0.0
C1074 C 0.43126 0.41395 0.53204 0.0
C1075 C 0.37929 0.43195 0.53801 0.0
C1076 C 0.31435 0.37639 0.56703 0.0
H1077 H 0.26988 0.46608 0.62056 0.0
H1078 H 0.31305 0.47013 0.60158 0.0
H1079 H 0.26763 0.35031 0.58198 0.0
H1080 H 0.4385 0.37525 0.5464 0.0
H1081 H 0.38564 0.37052 0.56163 0.0
H1082 H 0.36806 0.47744 0.55892 0.0
C1083 C 0.28108 0.44665 0.6016 0.0
C1084 C 0.28919 0.37831 0.57696 0.0
C1085 C 0.2563 0.44447 0.61246 0.0
C1086 C 0.4211 0.38994 0.54365 0.0
C1087 C 0.39109 0.38764 0.55246 0.0
C1088 C 0.346 0.44943 0.56381 0.0
C1089 C 0.26534 0.41723 0.59133 0.0
C1090 C 0.29231 0.41584 0.5806 0.0
C1091 C 0.3709 0.40992 0.55001 0.0
C1092 C 0.34305 0.41186 0.56028 0.0
H1093 H 0.16733 0.36113 0.60261 0.0
H1094 H 0.21023 0.3648 0.58391 0.0
H1095 H 0.32444 0.48084 0.57644 0.0
H1096 H 0.41604 0.45287 0.52046 0.0
H1097 H 0.36397 0.44905 0.5357 0.0
C1098 C 1.05677 0.40911 0.70907 0.0
C1099 C 1.03529 0.40714 0.69742 0.0
C1100 C 1.03707 0.38126 0.71952 0.0
C1101 C 0.93909 0.28626 0.72926 0.0
H1102 H 0.9635 0.3386 0.7639 0.0
C1103 C 0.83493 0.21037 0.77564 0.0
C1104 C 0.85554 0.21201 0.78749 0.0
C1105 C 0.85678 0.23378 0.76449 0.0
C1106 C 0.95641 0.32331 0.75433 0.0
H1107 H 0.97734 0.37334 0.68722 0.0
H1108 H 0.94323 0.32461 0.70514 0.0
H1109 H 1.00409 0.37604 0.74467 0.0
H1110 H 0.91479 0.24069 0.79715 0.0
H1111 H 0.9526 0.28161 0.77794 0.0
H1112 H 0.8909 0.23358 0.73902 0.0
C1113 C 0.97528 0.34704 0.70634 0.0
C1114 C 0.97998 0.3448 0.74325 0.0
C1115 C 0.99498 0.37484 0.69595 0.0
C1116 C 0.89804 0.2388 0.78815 0.0
C1117 C 0.91972 0.26237 0.77712 0.0
C1118 C 0.91536 0.26478 0.74036 0.0
C1119 C 0.99537 0.35103 0.71855 0.0
C1120 C 0.97176 0.3267 0.73051 0.0
C1121 C 0.8996 0.25969 0.76504 0.0
C1122 C 0.92371 0.28301 0.75306 0.0
H1123 H 0.08745 0.43445 0.71064 0.0
H1124 H 1.05393 0.3849 0.72863 0.0
H1125 H 0.93192 0.27096 0.71969 0.0
H1126 H 0.80226 0.18976 0.7748 0.0
H1127 H 0.8402 0.23129 0.7554 0.0
C1128 C 0.68472 0.04179 0.87852 0.0
C1129 C 0.66455 1.02026 0.86696 0.0
C1130 C 0.69331 1.02207 0.88886 0.0
C1131 C 0.69103 0.9241 0.89824 0.0
H1132 H 0.66738 0.94983 0.93337 0.0
C1133 C 0.66848 0.82129 0.94447 0.0
C1134 C 0.6887 0.84214 0.95615 0.0
C1135 C 0.66557 0.84288 0.93348 0.0
C1136 C 0.67439 0.94237 0.92366 0.0
H1137 H 0.63897 0.96198 0.85691 0.0
H1138 H 0.65413 0.92774 0.87469 0.0
H1139 H 0.66837 0.98999 0.91428 0.0
H1140 H 0.71998 0.90154 0.96566 0.0
H1141 H 0.71465 0.9389 0.94669 0.0
H1142 H 0.69664 0.87609 0.90771 0.0
C1143 C 0.66415 0.9599 0.87585 0.0
C1144 C 0.67519 0.96566 0.91266 0.0
C1145 C 0.65566 0.97963 0.86556 0.0
C1146 C 0.70427 0.88461 0.95679 0.0
C1147 C 0.70107 0.90603 0.94591 0.0
C1148 C 0.69008 0.90068 0.90926 0.0
C1149 C 0.68149 0.98026 0.88791 0.0
C1150 C 0.68347 0.95693 0.89975 0.0
C1151 C 0.68238 0.88568 0.934 0.0
C1152 C 0.68176 0.90949 0.92213 0.0
H1153 H 0.69067 0.07272 0.88005 0.0
H1154 H 0.70738 1.0391 0.89787 0.0
H1155 H 0.69802 0.91659 0.88853 0.0
H1156 H 0.65645 0.78864 0.94365 0.0
H1157 H 0.65051 0.82612 0.92452 0.0
C1158 C 0.90015 0.66671 0.11371 0.0
C1159 C 0.90081 0.68897 0.12505 0.0
C1160 C 0.87621 0.66381 0.10254 0.0
C1161 C 0.78759 0.67562 0.09203 0.0
H1162 H 0.83286 0.6866 0.0566 0.0
C1163 C 0.69486 0.67381 0.04571 0.0
C1164 C 0.69592 0.65124 0.03474 0.0
C1165 C 0.7234 0.68442 0.05612 0.0
C1166 C 0.81941 0.68306 0.06639 0.0
H1167 H 0.87528 0.72415 0.13366 0.0
H1168 H 0.83399 0.71923 0.11436 0.0
H1169 H 0.87314 0.68928 0.07598 0.0
H1170 H 0.72796 0.62284 0.02595 0.0
H1171 H 0.77736 0.64108 0.04384 0.0
H1172 H 0.73382 0.66901 0.08256 0.0
C1173 C 0.85192 0.70402 0.114 0.0
C1174 C 0.84263 0.68454 0.07755 0.0
C1175 C 0.87598 0.70715 0.12506 0.0
C1176 C 0.72725 0.64141 0.03407 0.0
C1177 C 0.75554 0.65176 0.04445 0.0
C1178 C 0.76432 0.67398 0.08089 0.0
C1179 C 0.85193 0.68268 0.1025 0.0
C1180 C 0.82702 0.68066 0.09054 0.0
C1181 C 0.75328 0.67217 0.05589 0.0
C1182 C 0.77963 0.67733 0.06785 0.0
H1183 H 0.91898 0.65246 0.11332 0.0
H1184 H 0.87667 0.64668 0.09395 0.0
H1185 H 0.77424 0.67208 0.10184 0.0
H1186 H 0.67021 0.68059 0.04671 0.0
H1187 H 0.72087 0.70072 0.06462 0.0
C1188 C 0.39726 0.97281 0.62084 0.0
C1189 C 0.42821 1.01391 0.61995 0.0
C1190 C 0.36774 0.95471 0.61082 0.0
C1191 C 0.35661 0.9668 0.57462 0.0
H1192 H 0.24717 0.87543 0.58016 0.0
C1193 C 0.24231 0.88881 0.53113 0.0
C1194 C 0.21748 0.84594 0.53127 0.0
C1195 C 0.26691 0.90978 0.54207 0.0
C1196 C 0.2778 0.90063 0.57843 0.0
H1197 H 0.45196 0.06871 0.60797 0.0
H1198 H 0.39945 1.03777 0.59063 0.0
H1199 H 0.28873 0.91327 0.59932 0.0
H1200 H 0.19976 0.79155 0.54306 0.0
H1201 H 0.24295 0.82822 0.56224 0.0
H1202 H 0.34563 0.95416 0.55374 0.0
C1203 C 0.39808 1.01921 0.59906 0.0
C1204 C 0.3017 0.9225 0.58944 0.0
C1205 C 0.4277 1.03731 0.60914 0.0
C1206 C 0.21859 0.82452 0.5426 0.0
C1207 C 0.24303 0.84562 0.55364 0.0
C1208 C 0.33264 0.94512 0.56362 0.0
C1209 C 0.36863 0.97716 0.59948 0.0
C1210 C 0.34163 0.95581 0.58773 0.0
C1211 C 0.26738 0.88862 0.55355 0.0
C1212 C 0.29296 0.91155 0.56535 0.0
H1213 H 0.39772 0.9537 0.62882 0.0
H1214 H 0.34613 0.92229 0.61154 0.0
H1215 H 0.38743 0.99151 0.57282 0.0
H1216 H 0.24259 0.90632 0.52253 0.0
H1217 H 0.28493 0.94282 0.54163 0.0
C1218 C 0.39839 0.22153 0.70027 0.0
C1219 C 0.4266 0.20771 0.69845 0.0
C1220 C 0.40229 0.24752 0.71078 0.0
C1221 C 0.45777 0.28936 0.74327 0.0
H1222 H 0.40522 0.35497 0.7405 0.0
C1223 C 0.45614 0.38291 0.7887 0.0
C1224 C 0.45758 0.42028 0.78637 0.0
C1225 C 0.44778 0.35501 0.77829 0.0
C1226 C 0.42069 0.33746 0.74153 0.0
H1227 H 0.48301 0.21334 0.70604 0.0
H1228 H 0.49162 0.26116 0.72385 0.0
H1229 H 0.40584 0.31626 0.72152 0.0
H1230 H 0.45199 0.4581 0.7713 0.0
H1231 H 0.43917 0.41095 0.75308 0.0
H1232 H 0.47563 0.31339 0.76292 0.0
C1233 C 0.46499 0.25005 0.7175 0.0
C1234 C 0.4203 0.31421 0.73057 0.0
C1235 C 0.46049 0.22302 0.70709 0.0
C1236 C 0.44924 0.42869 0.7735 0.0
C1237 C 0.44218 0.40145 0.76298 0.0
C1238 C 0.45917 0.31357 0.75412 0.0
C1239 C 0.43548 0.26222 0.71969 0.0
C1240 C 0.43832 0.28919 0.73125 0.0
C1241 C 0.44259 0.36459 0.76508 0.0
C1242 C 0.44031 0.33786 0.75352 0.0
H1243 H 0.37247 0.21176 0.69366 0.0
H1244 H 0.37829 0.25506 0.71201 0.0
H1245 H 0.47165 0.27041 0.74445 0.0
H1246 H 0.4637 0.37624 0.79846 0.0
H1247 H 0.44712 0.32667 0.78059 0.0
C1248 C 0.06644 0.41298 0.94605 0.0
C1249 C 0.0881 0.43435 0.95746 0.0
C1250 C 0.0866 0.40504 0.93567 0.0
C1251 C 0.19059 0.45294 0.92143 0.0
H1252 H 0.14642 0.35814 0.89836 0.0
C1253 C 0.28463 0.4372 0.87787 0.0
C1254 C 0.26316 0.41637 0.86635 0.0
C1255 C 0.26347 0.43903 0.88917 0.0
C1256 C 0.1591 0.38514 0.90459 0.0
H1257 H 0.14672 0.46147 0.9674 0.0
H1258 H 0.18152 0.44672 0.9496 0.0
H1259 H 0.10799 0.35752 0.91805 0.0
H1260 H 0.20292 0.38342 0.8574 0.0
H1261 H 0.16636 0.38744 0.87682 0.0
H1262 H 0.24128 0.48095 0.90791 0.0
C1263 C 0.14926 0.43657 0.94848 0.0
C1264 C 0.13703 0.38463 0.91593 0.0
C1265 C 0.12911 0.44428 0.95882 0.0
C1266 C 0.22035 0.39921 0.86619 0.0
C1267 C 0.19931 0.40121 0.8774 0.0
C1268 C 0.21256 0.45354 0.91007 0.0
C1269 C 0.12887 0.4188 0.93649 0.0
C1270 C 0.15254 0.41846 0.92454 0.0
C1271 C 0.22036 0.42028 0.88919 0.0
C1272 C 0.19716 0.41968 0.90144 0.0
H1273 H 1.03518 0.40616 0.94456 0.0
H1274 H 0.06992 0.39132 0.92657 0.0
H1275 H 0.20308 0.47998 0.92765 0.0
H1276 H 0.31755 0.45044 0.87834 0.0
H1277 H 0.28085 0.45387 0.89806 0.0
C1278 C 0.69447 1.03928 0.11055 0.0
C1279 C 0.68464 0.05341 0.12214 0.0
C1280 C 0.72674 0.06605 0.10232 0.0
C1281 C 0.78098 0.17437 0.09236 0.0
H1282 H 0.84572 0.1408 0.07147 0.0
C1283 C 0.89616 0.27457 0.05009 0.0
C1284 C 0.89697 0.25295 0.03878 0.0
C1285 C 0.8728 0.25344 0.06136 0.0
C1286 C 0.82768 0.15063 0.07714 0.0
H1287 H 0.70254 0.10657 0.13452 0.0
H1288 H 0.75916 0.15364 0.12019 0.0
H1289 H 0.80444 0.09824 0.0899 0.0
H1290 H 0.87171 0.19261 0.03007 0.0
H1291 H 0.83091 0.15616 0.04941 0.0
H1292 H 0.80382 0.22648 0.07934 0.0
C1293 C 0.74169 0.12168 0.11744 0.0
C1294 C 0.80406 0.12621 0.08776 0.0
C1295 C 0.70954 0.09459 0.12578 0.0
C1296 C 0.87224 0.21014 0.03871 0.0
C1297 C 0.84909 0.18919 0.04986 0.0
C1298 C 0.80473 0.19892 0.08169 0.0
C1299 C 0.74984 0.10798 0.10536 0.0
C1300 C 0.77957 0.13714 0.09534 0.0
C1301 C 0.84988 0.21032 0.06151 0.0
C1302 C 0.82757 0.18679 0.0737 0.0
H1303 H 0.67537 1.00785 0.10738 0.0
H1304 H 0.73169 0.05425 0.09309 0.0
H1305 H 0.76225 0.18365 0.09788 0.0
H1306 H 0.91505 0.30754 0.05047 0.0
H1307 H 0.87404 0.27074 0.07013 0.0
C1308 C 0.65869 0.68472 0.29058 0.0
C1309 C 0.67506 0.65964 0.28716 0.0
C1310 C 0.66232 0.71548 0.28186 0.0
C1311 C 0.71719 0.77479 0.25156 0.0
H1312 H 0.61629 0.77489 0.24393 0.0
C1313 C 0.69915 0.8437 0.20308 0.0
C1314 C 0.68221 0.86951 0.20361 0.0
C1315 C 0.69688 0.81981 0.21402 0.0
C1316 C 0.64484 0.77565 0.24605 0.0
H1317 H 0.70987 0.64855 0.27225 0.0
H1318 H 0.71741 0.70265 0.25728 0.0
H1319 H 0.61876 0.73369 0.2624 0.0
H1320 H 0.64749 0.88868 0.21587 0.0
H1321 H 0.64324 0.84641 0.23517 0.0
H1322 H 0.74317 0.81604 0.23515 0.0
C1323 C 0.70175 0.69888 0.26668 0.0
C1324 C 0.64634 0.75213 0.25668 0.0
C1325 C 0.69773 0.66799 0.27531 0.0
C1326 C 0.66073 0.86901 0.21515 0.0
C1327 C 0.65845 0.84491 0.2262 0.0
C1328 C 0.7157 0.79819 0.24099 0.0
C1329 C 0.68284 0.7221 0.26959 0.0
C1330 C 0.68236 0.75077 0.25939 0.0
C1331 C 0.67762 0.82095 0.22589 0.0
C1332 C 0.67931 0.79829 0.23789 0.0
H1333 H 0.64068 0.67892 0.29947 0.0
H1334 H 0.64783 0.73312 0.28452 0.0
H1335 H 0.74565 0.77515 0.2535 0.0
H1336 H 0.71527 0.84283 0.19425 0.0
H1337 H 0.71093 0.80086 0.21326 0.0
C1338 C 1.01588 0.64781 0.45716 0.0
C1339 C 1.05767 0.66481 0.4541 0.0
C1340 C 0.98902 0.65111 0.44818 0.0
C1341 C 0.98555 0.70445 0.41704 0.0
H1342 H 0.8848 0.6033 0.40997 0.0
C1343 C 0.89991 0.68126 0.36776 0.0
C1344 C 0.85716 0.66458 0.36802 0.0
C1345 C 0.92119 0.68035 0.37904 0.0
C1346 C 0.91253 0.63194 0.41191 0.0
H1347 H 0.10429 0.70084 0.43959 0.0
H1348 H 1.05827 0.70767 0.42417 0.0
H1349 H 0.92783 0.60741 0.42886 0.0
H1350 H 0.80305 0.63163 0.38027 0.0
H1351 H 0.84043 0.62958 0.40013 0.0
H1352 H 0.97085 0.72876 0.39999 0.0
C1353 C 1.04582 0.69173 0.43348 0.0
C1354 C 0.93723 0.6344 0.42279 0.0
C1355 C 0.07245 0.68813 0.4424 0.0
C1356 C 0.83594 0.64469 0.37972 0.0
C1357 C 0.85741 0.64367 0.3911 0.0
C1358 C 0.96101 0.70196 0.40619 0.0
C1359 C 1.0034 0.6719 0.43596 0.0
C1360 C 0.97456 0.67051 0.42537 0.0
C1361 C 0.90051 0.66261 0.39101 0.0
C1362 C 0.92456 0.66546 0.40328 0.0
H1363 H 1.00322 0.62935 0.46596 0.0
H1364 H 0.95673 0.636 0.45058 0.0
H1365 H 1.01349 0.73304 0.41881 0.0
H1366 H 0.91722 0.6961 0.35884 0.0
H1367 H 0.95416 0.69417 0.37842 0.0
C1368 C 0.60706 0.69019 0.32982 0.0
C1369 C 0.58681 0.6576 0.32071 0.0
C1370 C 0.5973 0.72181 0.3309 0.0
C1371 C 0.54437 0.77125 0.31268 0.0
H1372 H 0.55501 0.82466 0.3466 0.0
C1373 C 0.52502 0.91703 0.31726 0.0
C1374 C 0.50716 0.92229 0.32891 0.0
C1375 C 0.53561 0.88589 0.3163 0.0
C1376 C 0.55149 0.81016 0.33701 0.0
H1377 H 0.5398 0.6341 0.30548 0.0
H1378 H 0.52249 0.68838 0.30743 0.0
H1379 H 0.56958 0.76865 0.34503 0.0
H1380 H 0.48486 0.89659 0.34845 0.0
H1381 H 0.50366 0.84342 0.34697 0.0
H1382 H 0.52565 0.81241 0.30472 0.0
C1383 C 0.54639 0.68981 0.31378 0.0
C1384 C 0.56045 0.77791 0.33605 0.0
C1385 C 0.55604 0.65802 0.31276 0.0
C1386 C 0.49988 0.89485 0.33949 0.0
C1387 C 0.51061 0.86388 0.33858 0.0
C1388 C 0.53561 0.80366 0.31362 0.0
C1389 C 0.56689 0.72266 0.32285 0.0
C1390 C 0.55704 0.75752 0.32387 0.0
C1391 C 0.52851 0.85838 0.32692 0.0
C1392 C 0.53881 0.82388 0.32582 0.0
H1393 H 0.63109 0.69176 0.33609 0.0
H1394 H 0.61457 0.74627 0.3379 0.0
H1395 H 0.54163 0.7573 0.30303 0.0
H1396 H 0.53087 0.93714 0.30883 0.0
H1397 H 0.54965 0.88362 0.30717 0.0
C1398 C 0.64593 0.50404 0.4841 0.0
C1399 C 0.6217 0.48241 0.49515 0.0
C1400 C 0.68795 0.5162 0.48342 0.0
C1401 C 0.77788 0.52719 0.50379 0.0
H1402 H 0.82315 0.52704 0.46912 0.0
C1403 C 0.95373 0.58682 0.49633 0.0
C1404 C 0.96686 0.56943 0.48639 0.0
C1405 C 0.91222 0.57616 0.49763 0.0
C1406 C 0.81128 0.527 0.47895 0.0
H1407 H 0.62325 0.45438 0.51379 0.0
H1408 H 0.69603 0.47582 0.5128 0.0
H1409 H 0.75184 0.50968 0.47105 0.0
H1410 H 0.94481 0.52629 0.47001 0.0
H1411 H 0.87286 0.50725 0.47235 0.0
H1412 H 0.83713 0.54372 0.51173 0.0
C1413 C 0.68305 0.48483 0.50476 0.0
C1414 C 0.77002 0.51751 0.48005 0.0
C1415 C 0.64095 0.47267 0.50541 0.0
C1416 C 0.93643 0.54039 0.47788 0.0
C1417 C 0.89482 0.52977 0.47914 0.0
C1418 C 0.81922 0.53682 0.50269 0.0
C1419 C 0.70745 0.50641 0.49365 0.0
C1420 C 0.75227 0.51732 0.4925 0.0
C1421 C 0.88172 0.54758 0.48901 0.0
C1422 C 0.83695 0.53691 0.49024 0.0
H1423 H 0.63212 0.51116 0.47581 0.0
H1424 H 0.70507 0.53311 0.47474 0.0
H1425 H 0.76615 0.52795 0.51358 0.0
H1426 H 0.97564 0.60915 0.50313 0.0
H1427 H 0.90432 0.59128 0.50528 0.0
C1428 C 0.44359 0.90882 0.64978 0.0
C1429 C 0.43649 0.94126 0.65306 0.0
C1430 C 0.41215 0.86716 0.65089 0.0
C1431 C 0.29631 0.79998 0.65267 0.0
H1432 H 0.31868 0.71525 0.6644 0.0
C1433 C 0.1714 0.62417 0.65025 0.0
C1434 C 0.16989 0.59817 0.66061 0.0
C1435 C 0.20317 0.6656 0.6495 0.0
C1436 C 0.31152 0.73834 0.66115 0.0
H1437 H 0.38876 0.95295 0.65989 0.0
H1438 H 0.33533 0.8822 0.66186 0.0
H1439 H 0.37457 0.78614 0.6628 0.0
H1440 H 0.20242 0.59613 0.67808 0.0
H1441 H 0.2576 0.6675 0.67677 0.0
H1442 H 0.23334 0.75227 0.65099 0.0
C1443 C 0.36518 0.88855 0.65842 0.0
C1444 C 0.34402 0.77939 0.66009 0.0
C1445 C 0.39655 0.92987 0.65747 0.0
C1446 C 0.20186 0.61505 0.67006 0.0
C1447 C 0.234 0.65623 0.6692 0.0
C1448 C 0.26396 0.7589 0.65354 0.0
C1449 C 0.37197 0.85604 0.6551 0.0
C1450 C 0.33721 0.81133 0.65591 0.0
C1451 C 0.23554 0.68257 0.65889 0.0
C1452 C 0.27066 0.72702 0.65787 0.0
H1453 H 0.47341 0.91556 0.64619 0.0
H1454 H 0.41919 0.84362 0.6481 0.0
H1455 H 0.28913 0.82293 0.64926 0.0
H1456 H 0.14773 0.61248 0.64269 0.0
H1457 H 0.2028 0.6841 0.64132 0.0
C1458 C 0.56878 0.42696 0.81305 0.0
C1459 C 0.53912 0.42852 0.82129 0.0
C1460 C 0.57832 0.39504 0.8142 0.0
C1461 C 0.56624 0.30862 0.83711 0.0
H1462 H 0.59586 0.27009 0.80556 0.0
C1463 C 0.62378 0.18875 0.84031 0.0
C1464 C 0.61448 0.1602 0.82993 0.0
C1465 C 0.61397 0.22044 0.83941 0.0
C1466 C 0.58738 0.27997 0.81454 0.0
H1467 H 0.49747 0.39679 0.8375 0.0
H1468 H 0.51351 0.34195 0.83951 0.0
H1469 H 0.58085 0.32586 0.80381 0.0
H1470 H 0.58826 0.14429 0.81019 0.0
H1471 H 0.5711 0.19896 0.80856 0.0
H1472 H 0.57225 0.26236 0.84781 0.0
C1473 C 0.52985 0.36544 0.83211 0.0
C1474 C 0.57918 0.31278 0.81355 0.0
C1475 C 0.52021 0.39716 0.83089 0.0
C1476 C 0.59568 0.16522 0.81848 0.0
C1477 C 0.58601 0.19704 0.81753 0.0
C1478 C 0.57471 0.27599 0.83811 0.0
C1479 C 0.55888 0.36322 0.82371 0.0
C1480 C 0.56833 0.32799 0.82481 0.0
C1481 C 0.59502 0.22561 0.82796 0.0
C1482 C 0.58548 0.26075 0.82685 0.0
H1483 H 0.58403 0.44991 0.8054 0.0
H1484 H 0.60123 0.39552 0.80758 0.0
H1485 H 0.55852 0.31896 0.84614 0.0
H1486 H 0.63951 0.18712 0.84911 0.0
H1487 H 0.62236 0.24163 0.84765 0.0
C1488 C 0.19122 0.5508 0.98155 0.0
C1489 C 0.16027 0.52106 0.98981 0.0
C1490 C 0.23273 0.56046 0.9826 0.0
C1491 C 0.3075 0.54762 0.00522 0.0
H1492 H 0.37594 0.58008 0.97371 0.0
C1493 C 0.48474 0.60502 0.00842 0.0
C1494 C 0.50478 0.59798 -0.00228 0.0
C1495 C 0.44312 0.59483 0.0076 0.0
C1496 C 0.35751 0.57076 0.98268 0.0
H1497 H 0.15102 0.47932 0.00592 0.0
H1498 H 0.22183 0.49542 0.00775 0.0
H1499 H 0.30511 0.56478 0.97209 0.0
H1500 H 0.49555 0.57504 0.97754 0.0
H1501 H 0.42352 0.55708 0.97605 0.0
H1502 H 0.35967 0.55288 0.01576 0.0
C1503 C 0.21449 0.51186 0.00043 0.0
C1504 C 0.31643 0.56241 0.98177 0.0
C1505 C 0.1731 0.50217 -0.00068 0.0
C1506 C 0.48148 0.58074 0.98607 0.0
C1507 C 0.43985 0.57065 0.9852 0.0
C1508 C 0.34861 0.55612 0.00613 0.0
C1509 C 0.24547 0.54101 0.99202 0.0
C1510 C 0.29023 0.55057 0.99301 0.0
C1511 C 0.41957 0.57764 -0.00407 0.0
C1512 C 0.37479 0.56794 -0.00511 0.0
H1513 H 0.18326 0.56606 0.97396 0.0
H1514 H 0.2549 0.58348 0.97598 0.0
H1515 H 0.28939 0.53916 0.01425 0.0
H1516 H 0.50156 0.61951 0.01741 0.0
H1517 H 0.42983 0.60167 0.01608 0.0
C1518 C 0.914 0.45802 0.17542 0.0
C1519 C 0.94323 0.47638 0.16518 0.0
C1520 C 0.88312 0.41635 0.17481 0.0
C1521 C 0.82725 0.32955 0.15012 0.0
H1522 H 0.78203 0.26398 0.18191 0.0
C1523 C 0.68021 0.16599 0.1476 0.0
C1524 C 0.67682 0.13526 0.15643 0.0
C1525 C 0.71197 0.20718 0.14892 0.0
C1526 C 0.79422 0.28142 0.17284 0.0
H1527 H 0.96106 0.4647 0.14593 0.0
H1528 H 0.90858 0.39243 0.14495 0.0
H1529 H 0.83914 0.33368 0.18376 0.0
H1530 H 0.70475 0.12573 0.17387 0.0
H1531 H 0.75953 0.19613 0.17608 0.0
H1532 H 0.78297 0.2771 0.13917 0.0
C1533 C 0.90924 0.40996 0.15358 0.0
C1534 C 0.82708 0.3221 0.17394 0.0
C1535 C 0.94003 0.45158 0.15422 0.0
C1536 C 0.70594 0.14781 0.16679 0.0
C1537 C 0.73758 0.18886 0.16813 0.0
C1538 C 0.79437 0.28891 0.14903 0.0
C1539 C 0.87955 0.39143 0.16376 0.0
C1540 C 0.84445 0.3472 0.1626 0.0
C1541 C 0.74173 0.21959 0.15914 0.0
C1542 C 0.77698 0.26377 0.16036 0.0
H1543 H 0.91385 0.47618 0.18372 0.0
H1544 H 0.86094 0.40422 0.18281 0.0
H1545 H 0.83877 0.34732 0.14108 0.0
H1546 H 0.6589 0.15807 0.13941 0.0
H1547 H 0.71305 0.22935 0.14184 0.0
C1548 C 0.17948 0.57035 0.50129 0.0
C1549 C 0.17699 0.59244 0.49035 0.0
C1550 C 0.20943 0.55824 0.5019 0.0
C1551 C 0.28865 0.54791 0.48147 0.0
H1552 H 0.3344 0.5483 0.51608 0.0
C1553 C 0.40536 0.48857 0.48895 0.0
C1554 C 0.436 0.50636 0.49882 0.0
C1555 C 0.37442 0.49915 0.48762 0.0
C1556 C 0.32247 0.54827 0.50627 0.0
H1557 H 0.20692 0.62129 0.47183 0.0
H1558 H 0.25827 0.59981 0.47268 0.0
H1559 H 0.28013 0.56533 0.51423 0.0
H1560 H 0.45727 0.55018 0.51501 0.0
H1561 H 0.40418 0.56904 0.51262 0.0
H1562 H 0.33152 0.53153 0.47348 0.0
C1563 C 0.23615 0.59046 0.48069 0.0
C1564 C 0.29054 0.55758 0.50522 0.0
C1565 C 0.20617 0.60263 0.48012 0.0
C1566 C 0.4347 0.53577 0.5072 0.0
C1567 C 0.40362 0.54629 0.50591 0.0
C1568 C 0.32049 0.53841 0.48253 0.0
C1569 C 0.23887 0.56848 0.4917 0.0
C1570 C 0.27288 0.55769 0.49279 0.0
C1571 C 0.37253 0.528 0.49615 0.0
C1572 C 0.33825 0.53845 0.49496 0.0
H1573 H 0.15844 0.56287 0.50956 0.0
H1574 H 0.2096 0.54102 0.51051 0.0
H1575 H 0.27609 0.54713 0.4717 0.0
H1576 H 0.40488 0.46595 0.48225 0.0
H1577 H 0.35129 0.48374 0.48005 0.0
C1578 C 0.63971 0.15833 0.66917 0.0
C1579 C 0.61592 0.15313 0.65771 0.0
C1580 C 0.68124 0.18993 0.67004 0.0
C1581 C 0.77143 0.26734 0.64912 0.0
H1582 H 0.81635 0.31816 0.68318 0.0
C1583 C 0.94748 0.38725 0.65564 0.0
C1584 C 0.96043 0.41911 0.66508 0.0
C1585 C 0.90604 0.35576 0.65461 0.0
C1586 C 0.80462 0.3048 0.6735 0.0
H1587 H 0.61787 0.17971 0.63843 0.0
H1588 H 0.68946 0.2339 0.63978 0.0
H1589 H 0.74536 0.26302 0.68172 0.0
H1590 H 0.93765 0.44146 0.68092 0.0
H1591 H 0.86601 0.38746 0.6791 0.0
H1592 H 0.83048 0.30937 0.64087 0.0
C1593 C 0.67666 0.21296 0.64809 0.0
C1594 C 0.76346 0.27236 0.67268 0.0
C1595 C 0.63515 0.18147 0.64727 0.0
C1596 C 0.9296 0.41814 0.67339 0.0
C1597 C 0.88809 0.38645 0.67244 0.0
C1598 C 0.81265 0.29958 0.64995 0.0
C1599 C 0.70086 0.21813 0.65951 0.0
C1600 C 0.74569 0.25283 0.66046 0.0
C1601 C 0.8752 0.35422 0.66307 0.0
C1602 C 0.83039 0.31931 0.66216 0.0
H1603 H 0.62623 0.13759 0.67751 0.0
H1604 H 0.6981 0.1919 0.679 0.0
H1605 H 0.75992 0.25343 0.63948 0.0
H1606 H 0.96949 0.38627 0.64902 0.0
H1607 H 0.89851 0.33191 0.64732 0.0
C1608 C 0.55104 0.91862 0.84209 0.0
C1609 C 0.58031 0.94942 0.83369 0.0
C1610 C 0.54128 0.87713 0.841 0.0
C1611 C 0.55204 0.80196 0.81805 0.0
H1612 H 0.52312 0.73445 0.84971 0.0
C1613 C 0.49442 0.62489 0.81493 0.0
C1614 C 0.50398 0.60564 0.82526 0.0
C1615 C 0.50402 0.66627 0.81587 0.0
C1616 C 0.53139 0.75262 0.8407 0.0
H1617 H 0.62104 0.9585 0.81725 0.0
H1618 H 0.60466 0.88761 0.81534 0.0
H1619 H 0.53851 0.80528 0.85139 0.0
H1620 H 0.53023 0.61576 0.84499 0.0
H1621 H 0.5471 0.6874 0.84668 0.0
H1622 H 0.54551 0.74948 0.80738 0.0
C1623 C 0.58876 0.8951 0.82282 0.0
C1624 C 0.53982 0.79368 0.84165 0.0
C1625 C 0.59861 0.93649 0.82398 0.0
C1626 C 0.52261 0.62927 0.83674 0.0
C1627 C 0.53214 0.67067 0.83772 0.0
C1628 C 0.54338 0.76084 0.81708 0.0
C1629 C 0.56012 0.86427 0.83139 0.0
C1630 C 0.55043 0.81954 0.83035 0.0
C1631 C 0.52308 0.69031 0.8273 0.0
C1632 C 0.53282 0.73502 0.82838 0.0
H1633 H 0.53629 0.92669 0.84984 0.0
H1634 H 0.51869 0.85506 0.84776 0.0
H1635 H 0.55955 0.81983 0.80898 0.0
H1636 H 0.47888 0.60769 0.80609 0.0
H1637 H 0.49555 0.6791 0.80764 0.0
C1638 C 0.6779 0.52926 0.00422 0.0
C1639 C 0.68502 0.56879 0.001 0.0
C1640 C 0.70928 0.51885 0.00305 0.0
C1641 C 0.82493 0.56662 0.00136 0.0
H1642 H 0.80243 0.45998 0.98918 0.0
C1643 C 0.94869 0.51367 0.00389 0.0
C1644 C 0.95065 0.48989 0.99337 0.0
C1645 C 0.91711 0.52374 0.00459 0.0
C1646 C 0.80961 0.49009 0.99256 0.0
H1647 H 0.73271 0.62814 0.99424 0.0
H1648 H 0.78615 0.61044 0.99217 0.0
H1649 H 0.74668 0.47551 0.99082 0.0
H1650 H 0.91908 0.45696 0.97558 0.0
H1651 H 0.86415 0.47387 0.97682 0.0
H1652 H 0.88777 0.58118 0.00316 0.0
C1653 C 0.75627 0.58708 -0.00441 0.0
C1654 C 0.77721 0.49894 0.99364 0.0
C1655 C 0.72493 0.59722 -0.00341 0.0
C1656 C 0.91931 0.47592 0.98372 0.0
C1657 C 0.88732 0.48535 0.98453 0.0
C1658 C 0.85717 0.55757 0.00048 0.0
C1659 C 0.74943 0.54774 -0.00115 0.0
C1660 C 0.78409 0.53753 -0.00202 0.0
C1661 C 0.88536 0.50946 -0.005 0.0
C1662 C 0.85039 0.51915 -0.004 0.0
H1663 H 0.64809 0.50632 0.00782 0.0
H1664 H 0.70225 0.48828 0.0058 0.0
H1665 H 0.83212 0.59659 0.00489 0.0
H1666 H 0.97185 0.52474 0.01161 0.0
H1667 H 0.9171 0.54203 0.0129 0.0
C1668 C 0.47326 0.92416 0.17267 0.0
C1669 C 0.49733 0.9283 0.16138 0.0
C1670 C 0.43168 0.89307 0.17347 0.0
C1671 C 0.34223 0.81596 0.15265 0.0
H1672 H 0.29686 0.76609 0.18682 0.0
C1673 C 0.16643 0.69779 0.15947 0.0
C1674 C 0.15386 0.66577 0.16883 0.0
C1675 C 0.20778 0.7292 0.1584 0.0
C1676 C 0.30877 0.77921 0.17712 0.0
H1677 H 0.49608 0.9005 0.1424 0.0
H1678 H 0.42421 0.84702 0.14365 0.0
H1679 H 0.36803 0.82058 0.1853 0.0
H1680 H 0.17677 0.64281 0.18445 0.0
H1681 H 0.24825 0.69672 0.18254 0.0
H1682 H 0.28313 0.77422 0.14443 0.0
C1683 C 0.43692 0.86846 0.15183 0.0
C1684 C 0.34994 0.81123 0.17627 0.0
C1685 C 0.4785 0.89948 0.15106 0.0
C1686 C 0.18467 0.6664 0.17702 0.0
C1687 C 0.22603 0.69795 0.17601 0.0
C1688 C 0.30097 0.78409 0.15351 0.0
C1689 C 0.41247 0.86442 0.16306 0.0
C1690 C 0.36775 0.8303 0.16401 0.0
C1691 C 0.23861 0.73027 0.16671 0.0
C1692 C 0.28322 0.7648 0.16576 0.0
H1693 H 0.48657 0.94535 0.1809 0.0
H1694 H 0.41446 0.89183 0.18227 0.0
H1695 H 0.35397 0.82968 0.143 0.0
H1696 H 0.1442 0.69893 0.15296 0.0
H1697 H 0.2153 0.75328 0.15119 0.0
C1698 C 0.59078 0.44703 0.33699 0.0
C1699 C 0.60979 0.47158 0.32571 0.0
C1700 C 0.58133 0.40571 0.3376 0.0
C1701 C 0.57237 0.31764 0.31648 0.0
H1702 H 0.57782 0.27268 0.35063 0.0
C1703 C 0.52014 0.14293 0.32293 0.0
C1704 C 0.53863 0.13033 0.33265 0.0
C1705 C 0.52939 0.18407 0.32182 0.0
C1706 C 0.57641 0.28447 0.34093 0.0
H1707 H 0.63553 0.47122 0.30648 0.0
H1708 H 0.61891 0.39982 0.30737 0.0
H1709 H 0.59191 0.34303 0.3492 0.0
H1710 H 0.58253 0.15323 0.34881 0.0
H1711 H 0.59929 0.22457 0.34678 0.0
H1712 H 0.5576 0.25934 0.30816 0.0
C1713 C 0.61005 0.41193 0.31571 0.0
C1714 C 0.58402 0.32519 0.34013 0.0
C1715 C 0.61952 0.45328 0.31513 0.0
C1716 C 0.56766 0.16114 0.34107 0.0
C1717 C 0.57689 0.2024 0.34002 0.0
C1718 C 0.56462 0.27686 0.31729 0.0
C1719 C 0.59101 0.38715 0.32701 0.0
C1720 C 0.58225 0.34288 0.32788 0.0
C1721 C 0.55766 0.21487 0.33044 0.0
C1722 C 0.56648 0.25919 0.32953 0.0
H1723 H 0.58321 0.45992 0.34543 0.0
H1724 H 0.56624 0.38828 0.34645 0.0
H1725 H 0.57008 0.32919 0.30683 0.0
H1726 H 0.49798 0.12083 0.31616 0.0
H1727 H 0.51328 0.19137 0.31436 0.0
C1728 C 0.21777 0.68185 0.44497 0.0
C1729 C 0.20199 0.6966 0.45489 0.0
C1730 C 0.24542 0.70827 0.43541 0.0
C1731 C 0.27851 0.80882 0.41945 0.0
H1732 H 0.36475 0.79319 0.40461 0.0
C1733 C 0.36633 0.89412 0.37187 0.0
C1734 C 0.40872 0.90879 0.37141 0.0
C1735 C 0.34222 0.86797 0.38213 0.0
C1736 C 0.34104 0.79826 0.4087 0.0
H1737 H 0.20505 0.75158 0.46284 0.0
H1738 H 0.25377 0.79758 0.4464 0.0
H1739 H 0.32318 0.74993 0.42294 0.0
H1740 H 0.45876 0.90687 0.38143 0.0
H1741 H 0.41692 0.86173 0.39933 0.0
H1742 H 0.2968 0.85762 0.40542 0.0
C1743 C 0.24394 0.76532 0.44579 0.0
C1744 C 0.31685 0.77308 0.41915 0.0
C1745 C 0.21623 0.73889 0.45535 0.0
C1746 C 0.42623 0.89609 0.38138 0.0
C1747 C 0.40212 0.86998 0.39166 0.0
C1748 C 0.30269 0.83398 0.40903 0.0
C1749 C 0.25828 0.75028 0.43551 0.0
C1750 C 0.28513 0.77792 0.42466 0.0
C1751 C 0.3598 0.8558 0.39225 0.0
C1752 C 0.33422 0.82899 0.40345 0.0
H1753 H 0.20805 0.64967 0.44436 0.0
H1754 H 0.25555 0.69539 0.42764 0.0
H1755 H 0.25409 0.81322 0.42328 0.0
H1756 H 0.35168 0.90311 0.36436 0.0
H1757 H 0.30967 0.85718 0.38208 0.0
C1758 C 0.51389 0.33639 0.53111 0.0
C1759 C 0.54209 0.37862 0.53153 0.0
C1760 C 0.51481 0.30989 0.54071 0.0
C1761 C 0.50522 0.26668 0.56715 0.0
H1762 H 0.60627 0.27903 0.58152 0.0
C1763 C 0.50639 0.17938 0.61437 0.0
C1764 C 0.53278 0.16303 0.61457 0.0
C1765 C 0.50911 0.20617 0.60423 0.0
C1766 C 0.57772 0.27493 0.57756 0.0
H1767 H 0.59493 0.42535 0.54209 0.0
H1768 H 0.59627 0.37936 0.55888 0.0
H1769 H 0.60868 0.32336 0.56336 0.0
H1770 H 0.58315 0.16269 0.6042 0.0
H1771 H 0.58768 0.20907 0.5865 0.0
H1772 H 0.47419 0.21793 0.58116 0.0
C1773 C 0.57336 0.36668 0.5511 0.0
C1774 C 0.57913 0.30068 0.56722 0.0
C1775 C 0.5724 0.39322 0.54149 0.0
C1776 C 0.56241 0.17474 0.60445 0.0
C1777 C 0.56512 0.20155 0.59429 0.0
C1778 C 0.50382 0.24104 0.57748 0.0
C1779 C 0.54404 0.32475 0.55101 0.0
C1780 C 0.54287 0.29692 0.56186 0.0
C1781 C 0.53826 0.21738 0.59396 0.0
C1782 C 0.54003 0.24481 0.58288 0.0
H1783 H 0.49015 0.32378 0.52358 0.0
H1784 H 0.49225 0.2777 0.54013 0.0
H1785 H 0.47665 0.26314 0.56344 0.0
H1786 H 0.48328 0.17129 0.62201 0.0
H1787 H 0.48836 0.21823 0.60448 0.0
C1788 C 0.42244 0.53087 0.76888 0.0
C1789 C 0.40894 0.5199 0.78207 0.0
C1790 C 0.39594 0.53083 0.75903 0.0
C1791 C 0.2838 0.49328 0.75279 0.0
H1792 H 0.32592 0.56278 0.7216 0.0
C1793 C 0.18429 0.52413 0.71516 0.0
C1794 C 0.18552 0.51161 0.70204 0.0
C1795 C 0.21211 0.52584 0.72477 0.0
C1796 C 0.31382 0.54315 0.73026 0.0
H1797 H 0.35762 0.50185 0.79542 0.0
H1798 H 0.31242 0.50436 0.77864 0.0
H1799 H 0.37322 0.56611 0.73883 0.0
H1800 H 0.21754 0.49196 0.68866 0.0
H1801 H 0.26736 0.49667 0.70538 0.0
H1802 H 0.22417 0.47202 0.74435 0.0
C1803 C 0.34267 0.51111 0.77557 0.0
C1804 C 0.34094 0.54472 0.74015 0.0
C1805 C 0.36881 0.51011 0.7853 0.0
C1806 C 0.21579 0.50168 0.69868 0.0
C1807 C 0.24434 0.50447 0.70822 0.0
C1808 C 0.25673 0.49254 0.74308 0.0
C1809 C 0.35543 0.52076 0.76218 0.0
C1810 C 0.32647 0.51967 0.7516 0.0
C1811 C 0.24246 0.51613 0.72139 0.0
C1812 C 0.27144 0.51729 0.73169 0.0
H1813 H 0.45308 0.53809 0.76604 0.0
H1814 H 0.40714 0.53771 0.7489 0.0
H1815 H 0.27101 0.47255 0.76115 0.0
H1816 H 0.16118 0.53169 0.71811 0.0
H1817 H 0.21003 0.53493 0.73485 0.0
C1818 C 0.75405 0.20035 0.8692 0.0
C1819 C 0.71344 0.17097 0.87233 0.0
C1820 C 0.78005 0.22754 0.87895 0.0
C1821 C 0.80423 0.23702 0.91376 0.0
H1822 H 0.85097 0.35414 0.90999 0.0
C1823 C 0.90609 0.3474 0.95554 0.0
C1824 C 0.93658 0.38715 0.95209 0.0
C1825 C 0.87761 0.32151 0.94605 0.0
C1826 C 0.83906 0.32164 0.91118 0.0
H1827 H 0.66852 0.14671 0.88823 0.0
H1828 H 0.71457 0.19328 0.90538 0.0
H1829 H 0.80511 0.30851 0.89287 0.0
H1830 H 0.96171 0.43057 0.93585 0.0
H1831 H 0.91408 0.38517 0.91917 0.0
H1832 H 0.83944 0.24947 0.93158 0.0
C1833 C 0.72586 0.19571 0.89529 0.0
C1834 C 0.81234 0.29548 0.90136 0.0
C1835 C 0.6995 0.16925 0.88546 0.0
C1836 C 0.9382 0.4003 0.93889 0.0
C1837 C 0.91046 0.37411 0.9293 0.0
C1838 C 0.83176 0.26315 0.92342 0.0
C1839 C 0.76637 0.22517 0.89213 0.0
C1840 C 0.79454 0.25292 0.90258 0.0
C1841 C 0.87945 0.3342 0.93269 0.0
C1842 C 0.84967 0.30604 0.92235 0.0
H1843 H 0.7657 0.20241 0.85918 0.0
H1844 H 0.81118 0.24989 0.87626 0.0
H1845 H 0.79117 0.20429 0.91488 0.0
H1846 H 0.90388 0.33645 0.96566 0.0
H1847 H 0.85394 0.29164 0.94929 0.0
C1848 C 0.55099 0.89181 0.11092 0.0
C1849 C 0.5812 0.90766 0.12091 0.0
C1850 C 0.55025 0.86418 0.10142 0.0
C1851 C 0.54417 0.79145 0.08593 0.0
H1852 H 0.64874 0.81162 0.07212 0.0
C1853 C 0.55993 0.67931 0.04977 0.0
C1854 C 0.58947 0.6964 0.0396 0.0
C1855 C 0.55739 0.7041 0.05971 0.0
C1856 C 0.61921 0.80566 0.07577 0.0
H1857 H 0.6336 0.90539 0.1289 0.0
H1858 H 0.63188 0.857 0.11255 0.0
H1859 H 0.64678 0.8559 0.08937 0.0
H1860 H 0.63893 0.75337 0.03181 0.0
H1861 H 0.6341 0.79641 0.04893 0.0
H1862 H 0.51663 0.74171 0.07205 0.0
C1863 C 0.60917 0.86653 0.11188 0.0
C1864 C 0.6181 0.83079 0.08583 0.0
C1865 C 0.60991 0.89412 0.12136 0.0
C1866 C 0.6159 0.73899 0.0395 0.0
C1867 C 0.61333 0.76374 0.04941 0.0
C1868 C 0.54528 0.76624 0.07585 0.0
C1869 C 0.57971 0.8516 0.10165 0.0
C1870 C 0.58059 0.82412 0.09106 0.0
C1871 C 0.58433 0.74665 0.05974 0.0
C1872 C 0.58284 0.7731 0.07059 0.0
H1873 H 0.52821 0.90117 0.11026 0.0
H1874 H 0.52725 0.85362 0.09367 0.0
H1875 H 0.51472 0.78511 0.08978 0.0
H1876 H 0.53916 0.64665 0.05022 0.0
H1877 H 0.53493 0.68975 0.06756 0.0
C1878 C 0.75076 0.56318 0.28813 0.0
C1879 C 0.71042 0.55338 0.28525 0.0
C1880 C 0.77611 0.56183 0.2781 0.0
C1881 C 0.77335 0.52589 0.24267 0.0
H1882 H 0.89049 0.59911 0.24486 0.0
C1883 C 0.89158 0.56299 0.19912 0.0
C1884 C 0.92324 0.55502 0.20241 0.0
C1885 C 0.86416 0.56129 0.20896 0.0
C1886 C 0.85778 0.57851 0.24413 0.0
H1887 H 0.66546 0.5355 0.26944 0.0
H1888 H 0.70961 0.53508 0.25201 0.0
H1889 H 0.84629 0.59947 0.26254 0.0
H1890 H 0.9512 0.53977 0.2187 0.0
H1891 H 0.90426 0.53796 0.23575 0.0
H1892 H 0.78538 0.50647 0.22389 0.0
C1893 C 0.72162 0.542 0.26205 0.0
C1894 C 0.8323 0.57831 0.25436 0.0
C1895 C 0.69611 0.54242 0.27211 0.0
C1896 C 0.92683 0.54541 0.21573 0.0
C1897 C 0.90018 0.54472 0.22556 0.0
C1898 C 0.79881 0.52686 0.2323 0.0
C1899 C 0.76213 0.55166 0.26482 0.0
C1900 C 0.78958 0.5518 0.25387 0.0
C1901 C 0.86866 0.55276 0.22231 0.0
C1902 C 0.84129 0.55297 0.23298 0.0
H1903 H 0.7627 0.57175 0.29815 0.0
H1904 H 0.80665 0.56867 0.28083 0.0
H1905 H 0.74094 0.50426 0.24193 0.0
H1906 H 0.88816 0.57071 0.18898 0.0
H1907 H 0.84012 0.56771 0.20621 0.0
C1908 C 0.86911 0.47407 0.42122 0.0
C1909 C 0.90509 0.47172 0.42226 0.0
C1910 C 0.83227 0.43966 0.41752 0.0
C1911 C 0.75624 0.35371 0.41795 0.0
H1912 H 0.75854 0.28516 0.38952 0.0
C1913 C 0.61357 0.20183 0.40185 0.0
C1914 C 0.62065 0.1688 0.40033 0.0
C1915 C 0.64638 0.24158 0.40336 0.0
C1916 C 0.75745 0.30396 0.39749 0.0
H1917 H 0.93101 0.432 0.42008 0.0
H1918 H 0.86685 0.37203 0.41378 0.0
H1919 H 0.81969 0.35024 0.39435 0.0
H1920 H 0.66747 0.15136 0.39948 0.0
H1921 H 0.72452 0.22049 0.40206 0.0
H1922 H 0.69423 0.30674 0.42132 0.0
C1923 C 0.86704 0.40037 0.41574 0.0
C1924 C 0.79239 0.34116 0.40025 0.0
C1925 C 0.90365 0.43454 0.41951 0.0
C1926 C 0.66107 0.17626 0.40037 0.0
C1927 C 0.69374 0.21587 0.40183 0.0
C1928 C 0.72119 0.31635 0.4152 0.0
C1929 C 0.83105 0.40261 0.41465 0.0
C1930 C 0.79246 0.36586 0.41072 0.0
C1931 C 0.68678 0.24894 0.40332 0.0
C1932 C 0.72187 0.29067 0.40517 0.0
H1933 H 0.86945 0.5024 0.42334 0.0
H1934 H 0.80492 0.44214 0.41673 0.0
H1935 H 0.75557 0.37213 0.42612 0.0
H1936 H 0.58272 0.19701 0.40171 0.0
H1937 H 0.64019 0.26658 0.40441 0.0
C1938 C 0.50121 0.87968 0.60185 0.0
C1939 C 0.48854 0.89695 0.59178 0.0
C1940 C 0.48835 0.83803 0.60178 0.0
C1941 C 0.42481 0.74005 0.58285 0.0
H1942 H 0.51848 0.72689 0.59039 0.0
C1943 C 0.43085 0.5921 0.57038 0.0
C1944 C 0.4687 0.5983 0.56562 0.0
C1945 C 0.4272 0.62495 0.57522 0.0
C1946 C 0.49207 0.73005 0.58814 0.0
H1947 H 0.44783 0.88232 0.57479 0.0
H1948 H 0.42861 0.81086 0.57393 0.0
H1949 H 0.52022 0.78935 0.5967 0.0
H1950 H 0.53213 0.64425 0.56201 0.0
H1951 H 0.5252 0.70123 0.56966 0.0
H1952 H 0.39828 0.68152 0.57331 0.0
C1953 C 0.44791 0.82918 0.58206 0.0
C1954 C 0.49264 0.76572 0.59204 0.0
C1955 C 0.45974 0.87063 0.58238 0.0
C1956 C 0.50234 0.63821 0.56541 0.0
C1957 C 0.49857 0.67092 0.57007 0.0
C1958 C 0.42454 0.70444 0.57874 0.0
C1959 C 0.46367 0.81275 0.59139 0.0
C1960 C 0.45948 0.77177 0.58917 0.0
C1961 C 0.46128 0.66464 0.57533 0.0
C1962 C 0.45877 0.6997 0.58099 0.0
H1963 H 0.52319 0.89848 0.60934 0.0
H1964 H 0.49984 0.82622 0.60946 0.0
H1965 H 0.39835 0.74318 0.5807 0.0
H1966 H 0.40414 0.56181 0.57052 0.0
H1967 H 0.39802 0.61907 0.57918 0.0
C1968 C 0.67752 0.50715 0.76959 0.0
C1969 C 0.6462 0.48859 0.76003 0.0
C1970 C 0.70957 0.49871 0.76994 0.0
C1971 C 0.7497 0.43537 0.75399 0.0
H1972 H 0.85355 0.53329 0.76069 0.0
C1973 C 0.90493 0.44228 0.74471 0.0
C1974 C 0.9368 0.47922 0.73957 0.0
C1975 C 0.86852 0.43968 0.74913 0.0
C1976 C 0.82488 0.50572 0.75863 0.0
H1977 H 0.62244 0.44329 0.7442 0.0
H1978 H 0.68001 0.43165 0.74397 0.0
H1979 H 0.79085 0.53359 0.7651 0.0
H1980 H 0.95513 0.54244 0.73517 0.0
H1981 H 0.89116 0.53719 0.74196 0.0
H1982 H 0.7843 0.40887 0.74641 0.0
C1983 C 0.67945 0.45199 0.75146 0.0
C1984 C 0.78861 0.50553 0.76147 0.0
C1985 C 0.64664 0.45941 0.7514 0.0
C1986 C 0.93114 0.51328 0.73884 0.0
C1987 C 0.89458 0.51048 0.74302 0.0
C1988 C 0.78614 0.43589 0.75086 0.0
C1989 C 0.71211 0.47265 0.76044 0.0
C1990 C 0.75042 0.47062 0.75897 0.0
C1991 C 0.86291 0.4738 0.74836 0.0
C1992 C 0.82417 0.47144 0.75286 0.0
H1993 H 0.67879 0.52993 0.77643 0.0
H1994 H 0.73329 0.51412 0.77735 0.0
H1995 H 0.72101 0.40759 0.75219 0.0
H1996 H 0.90795 0.41523 0.74526 0.0
H1997 H 0.84498 0.41102 0.75327 0.0
C1998 C 0.44603 0.90553 0.90066 0.0
C1999 C 0.48537 0.91012 0.9008 0.0
C2000 C 0.41151 0.86693 0.9019 0.0
C2001 C 0.37736 0.76369 0.91448 0.0
H2002 H 0.28164 0.7359 0.89286 0.0
C2003 C 0.19386 0.64486 0.91571 0.0
C2004 C 0.19294 0.60783 0.9183 0.0
C2005 C 0.23061 0.67988 0.91253 0.0
C2006 C 0.30808 0.74332 0.89901 0.0
H2007 H 0.51949 0.8779 0.90224 0.0
H2008 H 0.45892 0.81019 0.90448 0.0
H2009 H 0.34436 0.80077 0.88924 0.0
H2010 H 0.22962 0.57826 0.91959 0.0
H2011 H 0.29404 0.63965 0.9139 0.0
H2012 H 0.34079 0.70647 0.92439 0.0
C2013 C 0.45492 0.83659 0.90352 0.0
C2014 C 0.34394 0.78042 0.89694 0.0
C2015 C 0.48953 0.87529 0.90226 0.0
C2016 C 0.22945 0.60638 0.91754 0.0
C2017 C 0.2663 0.64152 0.9144 0.0
C2018 C 0.34144 0.72653 0.91654 0.0
C2019 C 0.41558 0.83206 0.90331 0.0
C2020 C 0.3787 0.79129 0.90481 0.0
C2021 C 0.26722 0.67862 0.9119 0.0
C2022 C 0.30627 0.71632 0.90898 0.0
H2023 H 0.44192 0.93189 0.89978 0.0
H2024 H 0.38161 0.86447 0.90197 0.0
H2025 H 0.40357 0.77144 0.92077 0.0
H2026 H 0.1661 0.64673 0.9161 0.0
H2027 H 0.23046 0.70817 0.91081 0.0
C2028 C 0.54177 0.16886 0.07701 0.0
C2029 C 0.54512 0.16318 0.09068 0.0
C2030 C 0.56227 0.20813 0.07152 0.0
C2031 C 0.64392 0.31492 0.07914 0.0
H2032 H 0.5828 0.34398 0.05474 0.0
C2033 C 0.65355 0.4705 0.0766 0.0
C2034 C 0.64795 0.48474 0.06428 0.0
C2035 C 0.65343 0.43353 0.07735 0.0
C2036 C 0.60077 0.33621 0.06129 0.0
H2037 H 0.5715 0.19355 0.10938 0.0
H2038 H 0.60588 0.26204 0.09997 0.0
H2039 H 0.55594 0.2728 0.06082 0.0
H2040 H 0.64257 0.47393 0.04293 0.0
H2041 H 0.64118 0.40857 0.04435 0.0
H2042 H 0.68725 0.37903 0.08029 0.0
C2043 C 0.58883 0.23638 0.09335 0.0
C2044 C 0.58535 0.29536 0.06479 0.0
C2045 C 0.56876 0.19723 0.09878 0.0
C2046 C 0.64582 0.4631 0.05261 0.0
C2047 C 0.64529 0.42591 0.05339 0.0
C2048 C 0.65909 0.35586 0.07576 0.0
C2049 C 0.58607 0.24234 0.07964 0.0
C2050 C 0.60599 0.28443 0.07414 0.0
C2051 C 0.64747 0.41008 0.06582 0.0
C2052 C 0.63692 0.36694 0.06714 0.0
H2053 H 0.5241 0.14289 0.07056 0.0
H2054 H 0.55975 0.21164 0.06091 0.0
H2055 H 0.66113 0.30736 0.0861 0.0
H2056 H 0.65508 0.48635 0.08577 0.0
H2057 H 0.6548 0.42182 0.08709 0.0
C2058 C 0.5022 0.6508 0.24557 0.0
C2059 C 0.51249 0.64475 0.25852 0.0
C2060 C 0.47137 0.66048 0.24358 0.0
C2061 C 0.37643 0.63998 0.25916 0.0
H2062 H 0.37241 0.70637 0.23029 0.0
C2063 C 0.22639 0.60474 0.23417 0.0
C2064 C 0.21888 0.63721 0.23206 0.0
C2065 C 0.26488 0.61234 0.23827 0.0
C2066 C 0.37326 0.68811 0.23849 0.0
H2067 H 0.50094 0.64763 0.27957 0.0
H2068 H 0.44643 0.66392 0.27605 0.0
H2069 H 0.4379 0.71198 0.2365 0.0
H2070 H 0.24598 0.70318 0.23218 0.0
H2071 H 0.31387 0.71653 0.23925 0.0
H2072 H 0.31174 0.61516 0.26089 0.0
C2073 C 0.462 0.66065 0.26746 0.0
C2074 C 0.41061 0.69117 0.242 0.0
C2075 C 0.49303 0.65115 0.26946 0.0
C2076 C 0.25097 0.67759 0.2338 0.0
C2077 C 0.28973 0.68523 0.23779 0.0
C2078 C 0.33917 0.63672 0.25559 0.0
C2079 C 0.45003 0.66417 0.25448 0.0
C2080 C 0.41235 0.66639 0.25217 0.0
C2081 C 0.29677 0.65259 0.24027 0.0
C2082 C 0.33706 0.65994 0.245 0.0
H2083 H 0.51625 0.64571 0.23691 0.0
H2084 H 0.46253 0.6625 0.23346 0.0
H2085 H 0.37666 0.62018 0.26695 0.0
H2086 H 0.20214 0.57332 0.23304 0.0
H2087 H 0.26969 0.58665 0.23993 0.0
loop_
_geom_bond_atom_site_label_1
_geom_bond_atom_site_label_2
_geom_bond_distance
_geom_bond_site_symmetry_2
_ccdc_geom_bond_type
Gd0 N31 2.661 . S
Gd0 N37 2.601 1_565 S
Gd0 O44 2.545 . S
Gd0 O45 2.606 . S
Gd0 O47 2.429 1_565 S
Gd0 O48 2.545 . S
Gd0 O49 2.412 . S
Gd0 O51 2.362 1_565 S
Gd0 O52 2.324 . S
Gd0 C59 2.828 . S
Gd1 N10 2.661 . S
Gd1 N14 2.601 1_545 S
Gd1 O45 2.362 1_545 S
Gd1 O46 2.324 . S
Gd1 O50 2.545 . S
Gd1 O51 2.606 . S
Gd1 O53 2.429 1_545 S
Gd1 O54 2.545 . S
Gd1 O55 2.412 . S
Gd1 C68 2.828 . S
C2 C5 1.417 . S
C2 C7 1.431 . S
C2 C8 1.411 1_565 S
C3 C6 1.437 . S
C3 C7 1.317 . S
C3 H22 0.929 . S
C4 C5 1.426 . S
C4 C6 1.413 . S
C4 N14 1.359 . S
C5 C2 1.417 . S
C5 C4 1.426 . S
C5 N10 1.350 1_565 S
C6 C3 1.437 . S
C6 C4 1.413 . S
C6 C16 1.391 . S
C7 C2 1.431 . S
C7 C3 1.317 . S
C7 H18 0.930 . S
C8 C2 1.411 1_545 S
C8 C9 1.357 . S
C8 H20 0.928 1_545 S
C9 C8 1.357 . S
C9 C11 1.402 . S
C9 H21 0.930 . S
N10 Gd1 2.661 . S
N10 C5 1.350 1_545 S
N10 C11 1.307 . S
C11 C9 1.402 . S
C11 N10 1.307 . S
C11 H12 0.930 . S
H12 C11 0.930 . S
C13 N14 1.334 . S
C13 C15 1.394 . S
C13 H17 0.930 . S
N14 Gd1 2.601 1_565 S
N14 C4 1.359 . S
N14 C13 1.334 . S
C15 C13 1.394 . S
C15 C16 1.359 . S
C15 H27 0.930 . S
C16 C6 1.391 . S
C16 C15 1.359 . S
C16 H28 0.929 . S
H17 C13 0.930 . S
H18 C7 0.930 . S
H19 C36 0.930 . S
H20 C8 0.928 1_565 S
H21 C9 0.930 . S
H22 C3 0.929 . S
H23 C41 0.930 . S
H24 C32 0.928 . S
H25 C33 0.930 . S
H26 C57 0.929 . S
H27 C15 0.930 . S
H28 C16 0.929 . S
H29 C58 0.930 . S
H30 C39 0.930 . S
N31 Gd0 2.661 . S
N31 C35 1.350 1_565 S
N31 C36 1.307 . S
C32 H24 0.928 . S
C32 C33 1.357 1_545 S
C32 C34 1.411 . S
C33 H25 0.930 . S
C33 C32 1.357 1_565 S
C33 C36 1.402 . S
C34 C32 1.411 . S
C34 C35 1.417 . S
C34 C58 1.431 . S
C35 N31 1.350 1_545 S
C35 C34 1.417 . S
C35 C38 1.426 . S
C36 H19 0.930 . S
C36 N31 1.307 . S
C36 C33 1.402 . S
N37 Gd0 2.601 1_545 S
N37 C38 1.359 . S
N37 C41 1.334 . S
C38 C35 1.426 . S
C38 N37 1.359 . S
C38 C42 1.413 . S
C39 H30 0.930 . S
C39 C40 1.359 . S
C39 C41 1.394 . S
C40 C39 1.359 . S
C40 C42 1.391 . S
C40 H43 0.929 . S
C41 H23 0.930 . S
C41 N37 1.334 . S
C41 C39 1.394 . S
C42 C38 1.413 . S
C42 C40 1.391 . S
C42 C57 1.437 . S
H43 C40 0.929 . S
O44 Gd0 2.545 . S
O44 C59 1.258 . S
O45 Gd0 2.606 . S
O45 Gd1 2.362 1_565 S
O45 C56 1.284 . S
O46 Gd1 2.324 . S
O46 C66 1.254 . S
O47 Gd0 2.429 1_545 S
O47 C66 1.268 . S
O48 Gd0 2.545 . S
O48 C56 1.250 . S
O49 Gd0 2.412 . S
O49 C59 1.252 . S
O50 Gd1 2.545 . S
O50 C68 1.258 . S
O51 Gd0 2.362 1_545 S
O51 Gd1 2.606 . S
O51 C67 1.284 . S
O52 Gd0 2.324 . S
O52 C75 1.254 . S
O53 Gd1 2.429 1_565 S
O53 C75 1.268 . S
O54 Gd1 2.545 . S
O54 C67 1.250 . S
O55 Gd1 2.412 . S
O55 C68 1.252 . S
C56 O45 1.284 . S
C56 O48 1.250 . S
C57 H26 0.929 . S
C57 C42 1.437 . S
C57 C58 1.317 . S
C58 H29 0.930 . S
C58 C34 1.431 . S
C58 C57 1.317 . S
C59 Gd0 2.828 . S
C59 O44 1.258 . S
C59 O49 1.252 . S
C59 C60 1.497 . S
C60 C59 1.497 . S
C60 C61 1.395 . S
C60 C62 1.380 . S
C61 C60 1.395 . S
C61 C64 1.398 . S
C61 H76 0.930 . S
C62 C60 1.380 . S
C62 C63 1.391 . S
C62 H77 0.930 . S
C63 C62 1.391 . S
C63 C65 1.387 . S
C64 C61 1.398 . S
C64 C65 1.380 . S
C64 H78 0.930 . S
C65 C63 1.387 . S
C65 C64 1.380 . S
C65 H79 0.930 . S
C66 O46 1.254 . S
C66 O47 1.268 . S
C67 O51 1.284 . S
C67 O54 1.250 . S
C68 Gd1 2.828 . S
C68 O50 1.258 . S
C68 O55 1.252 . S
C68 C69 1.497 . S
C69 C68 1.497 . S
C69 C70 1.395 . S
C69 C71 1.380 . S
C70 C69 1.395 . S
C70 C73 1.398 . S
C70 H80 0.930 . S
C71 C69 1.380 . S
C71 C72 1.391 . S
C71 H81 0.930 . S
C72 C71 1.391 . S
C72 C74 1.387 . S
C73 C70 1.398 . S
C73 C74 1.380 . S
C73 H82 0.930 . S
C74 C72 1.387 . S
C74 C73 1.380 . S
C74 H83 0.930 . S
C75 O52 1.254 . S
C75 O53 1.268 . S
H76 C61 0.930 . S
H77 C62 0.930 . S
H78 C64 0.930 . S
H79 C65 0.930 . S
H80 C70 0.930 . S
H81 C71 0.930 . S
H82 C73 0.930 . S
H83 C74 0.930 . S
Gd84 N115 2.661 . S
Gd84 N121 2.601 . S
Gd84 O128 2.545 . S
Gd84 O129 2.606 . S
Gd84 O131 2.429 . S
Gd84 O132 2.545 . S
Gd84 O133 2.412 . S
Gd84 O135 2.362 . S
Gd84 O136 2.324 . S
Gd84 C143 2.828 . S
Gd85 N94 2.661 . S
Gd85 N98 2.601 . S
Gd85 O129 2.362 . S
Gd85 O130 2.324 . S
Gd85 O134 2.545 . S
Gd85 O135 2.606 . S
Gd85 O137 2.429 . S
Gd85 O138 2.545 . S
Gd85 O139 2.412 . S
Gd85 C152 2.828 . S
C86 C89 1.417 . S
C86 C91 1.431 . S
C86 C92 1.412 . S
C87 C90 1.437 . S
C87 C91 1.317 . S
C87 H106 0.929 . S
C88 C89 1.426 . S
C88 C90 1.413 . S
C88 N98 1.359 . S
C89 C86 1.417 . S
C89 C88 1.426 . S
C89 N94 1.350 . S
C90 C87 1.437 . S
C90 C88 1.413 . S
C90 C100 1.391 . S
C91 C86 1.431 . S
C91 C87 1.317 . S
C91 H102 0.930 . S
C92 C86 1.412 . S
C92 C93 1.355 . S
C92 H104 0.930 . S
C93 C92 1.355 . S
C93 C95 1.402 . S
C93 H105 0.930 . S
N94 Gd85 2.661 . S
N94 C89 1.350 . S
N94 C95 1.307 . S
C95 C93 1.402 . S
C95 N94 1.307 . S
C95 H96 0.930 . S
H96 C95 0.930 . S
C97 N98 1.334 . S
C97 C99 1.394 . S
C97 H101 0.930 . S
N98 Gd85 2.601 . S
N98 C88 1.359 . S
N98 C97 1.334 . S
C99 C97 1.394 . S
C99 C100 1.359 . S
C99 H111 0.930 . S
C100 C90 1.391 . S
C100 C99 1.359 . S
C100 H112 0.929 . S
H101 C97 0.930 . S
H102 C91 0.930 . S
H103 C120 0.930 . S
H104 C92 0.930 . S
H105 C93 0.930 . S
H106 C87 0.929 . S
H107 C125 0.930 . S
H108 C116 0.930 . S
H109 C117 0.930 . S
H110 C141 0.929 . S
H111 C99 0.930 . S
H112 C100 0.929 . S
H113 C142 0.930 . S
H114 C123 0.930 . S
N115 Gd84 2.661 . S
N115 C119 1.350 . S
N115 C120 1.307 . S
C116 H108 0.930 . S
C116 C117 1.355 . S
C116 C118 1.412 . S
C117 H109 0.930 . S
C117 C116 1.355 . S
C117 C120 1.402 . S
C118 C116 1.412 . S
C118 C119 1.417 . S
C118 C142 1.431 . S
C119 N115 1.350 . S
C119 C118 1.417 . S
C119 C122 1.426 . S
C120 H103 0.930 . S
C120 N115 1.307 . S
C120 C117 1.402 . S
N121 Gd84 2.601 . S
N121 C122 1.359 . S
N121 C125 1.334 . S
C122 C119 1.426 . S
C122 N121 1.359 . S
C122 C126 1.413 . S
C123 H114 0.930 . S
C123 C124 1.359 . S
C123 C125 1.394 . S
C124 C123 1.359 . S
C124 C126 1.391 . S
C124 H127 0.929 . S
C125 H107 0.930 . S
C125 N121 1.334 . S
C125 C123 1.394 . S
C126 C122 1.413 . S
C126 C124 1.391 . S
C126 C141 1.437 . S
H127 C124 0.929 . S
O128 Gd84 2.545 . S
O128 C143 1.258 . S
O129 Gd84 2.606 . S
O129 Gd85 2.362 . S
O129 C140 1.284 . S
O130 Gd85 2.324 . S
O130 C150 1.254 . S
O131 Gd84 2.429 . S
O131 C150 1.268 . S
O132 Gd84 2.545 . S
O132 C140 1.250 . S
O133 Gd84 2.412 . S
O133 C143 1.252 . S
O134 Gd85 2.545 . S
O134 C152 1.258 . S
O135 Gd84 2.362 . S
O135 Gd85 2.606 . S
O135 C151 1.284 . S
O136 Gd84 2.324 . S
O136 C159 1.254 . S
O137 Gd85 2.429 . S
O137 C159 1.268 . S
O138 Gd85 2.545 . S
O138 C151 1.250 . S
O139 Gd85 2.412 . S
O139 C152 1.252 . S
C140 O129 1.284 . S
C140 O132 1.250 . S
C141 H110 0.929 . S
C141 C126 1.437 . S
C141 C142 1.317 . S
C142 H113 0.930 . S
C142 C118 1.431 . S
C142 C141 1.317 . S
C143 Gd84 2.828 . S
C143 O128 1.258 . S
C143 O133 1.252 . S
C143 C144 1.497 . S
C144 C143 1.497 . S
C144 C145 1.395 . S
C144 C146 1.380 . S
C145 C144 1.395 . S
C145 C148 1.398 . S
C145 H160 0.930 . S
C146 C144 1.380 . S
C146 C147 1.391 . S
C146 H161 0.930 . S
C147 C146 1.391 . S
C147 C149 1.387 . S
C148 C145 1.398 . S
C148 C149 1.380 . S
C148 H162 0.930 . S
C149 C147 1.387 . S
C149 C148 1.380 . S
C149 H163 0.930 . S
C150 O130 1.254 . S
C150 O131 1.268 . S
C151 O135 1.284 . S
C151 O138 1.250 . S
C152 Gd85 2.828 . S
C152 O134 1.258 . S
C152 O139 1.252 . S
C152 C153 1.497 . S
C153 C152 1.497 . S
C153 C154 1.395 . S
C153 C155 1.380 . S
C154 C153 1.395 . S
C154 C157 1.398 . S
C154 H164 0.930 . S
C155 C153 1.380 . S
C155 C156 1.391 . S
C155 H165 0.930 . S
C156 C155 1.391 . S
C156 C158 1.387 . S
C157 C154 1.398 . S
C157 C158 1.380 . S
C157 H166 0.930 . S
C158 C156 1.387 . S
C158 C157 1.380 . S
C158 H167 0.930 . S
C159 O136 1.254 . S
C159 O137 1.268 . S
H160 C145 0.930 . S
H161 C146 0.930 . S
H162 C148 0.930 . S
H163 C149 0.930 . S
H164 C154 0.930 . S
H165 C155 0.930 . S
H166 C157 0.930 . S
H167 C158 0.930 . S
Gd168 N199 2.661 . S
Gd168 N205 2.601 1_455 S
Gd168 O212 2.545 . S
Gd168 O213 2.606 . S
Gd168 O215 2.429 1_455 S
Gd168 O216 2.545 . S
Gd168 O217 2.412 . S
Gd168 O219 2.362 1_455 S
Gd168 O220 2.324 . S
Gd168 C227 2.828 . S
Gd169 N178 2.661 . S
Gd169 N182 2.601 1_655 S
Gd169 O213 2.362 1_655 S
Gd169 O214 2.324 . S
Gd169 O218 2.545 . S
Gd169 O219 2.606 . S
Gd169 O221 2.429 1_655 S
Gd169 O222 2.545 . S
Gd169 O223 2.412 . S
Gd169 C236 2.828 . S
C170 C173 1.417 . S
C170 C175 1.431 . S
C170 C176 1.412 1_455 S
C171 C174 1.437 . S
C171 C175 1.317 . S
C171 H190 0.929 . S
C172 C173 1.426 . S
C172 C174 1.413 . S
C172 N182 1.359 . S
C173 C170 1.417 . S
C173 C172 1.426 . S
C173 N178 1.350 1_455 S
C174 C171 1.437 . S
C174 C172 1.413 . S
C174 C184 1.391 . S
C175 C170 1.431 . S
C175 C171 1.317 . S
C175 H186 0.930 . S
C176 C170 1.412 1_655 S
C176 C177 1.355 . S
C176 H188 0.927 . S
C177 C176 1.355 . S
C177 C179 1.402 . S
C177 H189 0.930 . S
N178 Gd169 2.661 . S
N178 C173 1.350 1_655 S
N178 C179 1.307 . S
C179 C177 1.402 . S
C179 N178 1.307 . S
C179 H180 0.930 . S
H180 C179 0.930 . S
C181 N182 1.334 . S
C181 C183 1.394 . S
C181 H185 0.930 . S
N182 Gd169 2.601 1_455 S
N182 C172 1.359 . S
N182 C181 1.334 . S
C183 C181 1.394 . S
C183 C184 1.359 . S
C183 H195 0.930 . S
C184 C174 1.391 . S
C184 C183 1.359 . S
C184 H196 0.929 . S
H185 C181 0.930 . S
H186 C175 0.930 . S
H187 C204 0.930 . S
H188 C176 0.927 . S
H189 C177 0.930 . S
H190 C171 0.929 . S
H191 C209 0.930 . S
H192 C200 0.930 . S
H193 C201 0.930 . S
H194 C225 0.929 . S
H195 C183 0.930 . S
H196 C184 0.929 . S
H197 C226 0.930 . S
H198 C207 0.930 . S
N199 Gd168 2.661 . S
N199 C203 1.350 1_455 S
N199 C204 1.307 . S
C200 H192 0.930 . S
C200 C201 1.355 . S
C200 C202 1.412 1_455 S
C201 H193 0.930 . S
C201 C200 1.355 . S
C201 C204 1.402 . S
C202 C200 1.412 1_655 S
C202 C203 1.417 . S
C202 C226 1.431 . S
C203 N199 1.350 1_655 S
C203 C202 1.417 . S
C203 C206 1.426 . S
C204 H187 0.930 . S
C204 N199 1.307 . S
C204 C201 1.402 . S
N205 Gd168 2.601 1_655 S
N205 C206 1.359 . S
N205 C209 1.334 . S
C206 C203 1.426 . S
C206 N205 1.359 . S
C206 C210 1.413 . S
C207 H198 0.930 . S
C207 C208 1.359 . S
C207 C209 1.394 . S
C208 C207 1.359 . S
C208 C210 1.391 . S
C208 H211 0.929 . S
C209 H191 0.930 . S
C209 N205 1.334 . S
C209 C207 1.394 . S
C210 C206 1.413 . S
C210 C208 1.391 . S
C210 C225 1.437 . S
H211 C208 0.929 . S
O212 Gd168 2.545 . S
O212 C227 1.258 . S
O213 Gd168 2.606 . S
O213 Gd169 2.362 1_455 S
O213 C224 1.284 . S
O214 Gd169 2.324 . S
O214 C234 1.254 . S
O215 Gd168 2.429 1_655 S
O215 C234 1.268 . S
O216 Gd168 2.545 . S
O216 C224 1.250 . S
O217 Gd168 2.412 . S
O217 C227 1.252 . S
O218 Gd169 2.545 . S
O218 C236 1.258 . S
O219 Gd168 2.362 1_655 S
O219 Gd169 2.606 . S
O219 C235 1.284 . S
O220 Gd168 2.324 . S
O220 C243 1.254 . S
O221 Gd169 2.429 1_455 S
O221 C243 1.268 . S
O222 Gd169 2.545 . S
O222 C235 1.250 . S
O223 Gd169 2.412 . S
O223 C236 1.252 . S
C224 O213 1.284 . S
C224 O216 1.250 . S
C225 H194 0.929 . S
C225 C210 1.437 . S
C225 C226 1.317 . S
C226 H197 0.930 . S
C226 C202 1.431 . S
C226 C225 1.317 . S
C227 Gd168 2.828 . S
C227 O212 1.258 . S
C227 O217 1.252 . S
C227 C228 1.497 . S
C228 C227 1.497 . S
C228 C229 1.395 . S
C228 C230 1.380 . S
C229 C228 1.395 . S
C229 C232 1.398 . S
C229 H244 0.930 . S
C230 C228 1.380 . S
C230 C231 1.391 . S
C230 H245 0.930 . S
C231 C230 1.391 . S
C231 C233 1.387 . S
C232 C229 1.398 . S
C232 C233 1.380 . S
C232 H246 0.930 . S
C233 C231 1.387 . S
C233 C232 1.380 . S
C233 H247 0.930 . S
C234 O214 1.254 . S
C234 O215 1.268 . S
C235 O219 1.284 . S
C235 O222 1.250 . S
C236 Gd169 2.828 . S
C236 O218 1.258 . S
C236 O223 1.252 . S
C236 C237 1.497 . S
C237 C236 1.497 . S
C237 C238 1.395 . S
C237 C239 1.380 . S
C238 C237 1.395 . S
C238 C241 1.398 . S
C238 H248 0.930 . S
C239 C237 1.380 . S
C239 C240 1.391 . S
C239 H249 0.930 . S
C240 C239 1.391 . S
C240 C242 1.387 . S
C241 C238 1.398 . S
C241 C242 1.380 . S
C241 H250 0.930 . S
C242 C240 1.387 . S
C242 C241 1.380 . S
C242 H251 0.930 . S
C243 O220 1.254 . S
C243 O221 1.268 . S
H244 C229 0.930 . S
H245 C230 0.930 . S
H246 C232 0.930 . S
H247 C233 0.930 . S
H248 C238 0.930 . S
H249 C239 0.930 . S
H250 C241 0.930 . S
H251 C242 0.930 . S
Gd252 N283 2.661 . S
Gd252 N289 2.601 1_545 S
Gd252 O296 2.545 . S
Gd252 O297 2.606 . S
Gd252 O299 2.429 1_545 S
Gd252 O300 2.545 . S
Gd252 O301 2.412 . S
Gd252 O303 2.362 1_545 S
Gd252 O304 2.324 . S
Gd252 C311 2.828 . S
Gd253 N262 2.661 . S
Gd253 N266 2.601 1_565 S
Gd253 O297 2.362 1_565 S
Gd253 O298 2.324 . S
Gd253 O302 2.545 . S
Gd253 O303 2.606 . S
Gd253 O305 2.429 1_565 S
Gd253 O306 2.545 . S
Gd253 O307 2.412 . S
Gd253 C320 2.828 . S
C254 C257 1.417 . S
C254 C259 1.431 . S
C254 C260 1.410 1_545 S
C255 C258 1.437 . S
C255 C259 1.317 . S
C255 H274 0.929 . S
C256 C257 1.426 . S
C256 C258 1.413 . S
C256 N266 1.359 . S
C257 C254 1.417 . S
C257 C256 1.426 . S
C257 N262 1.350 1_545 S
C258 C255 1.437 . S
C258 C256 1.413 . S
C258 C268 1.391 . S
C259 C254 1.431 . S
C259 C255 1.317 . S
C259 H270 0.930 . S
C260 C254 1.410 1_565 S
C260 C261 1.357 . S
C260 H272 0.928 1_565 S
C261 C260 1.357 . S
C261 C263 1.402 . S
C261 H273 0.930 . S
N262 Gd253 2.661 . S
N262 C257 1.350 1_565 S
N262 C263 1.307 . S
C263 C261 1.402 . S
C263 N262 1.307 . S
C263 H264 0.930 . S
H264 C263 0.930 . S
C265 N266 1.334 . S
C265 C267 1.394 . S
C265 H269 0.930 . S
N266 Gd253 2.601 1_545 S
N266 C256 1.359 . S
N266 C265 1.334 . S
C267 C265 1.394 . S
C267 C268 1.359 . S
C267 H279 0.930 . S
C268 C258 1.391 . S
C268 C267 1.359 . S
C268 H280 0.929 . S
H269 C265 0.930 . S
H270 C259 0.930 . S
H271 C288 0.930 . S
H272 C260 0.928 1_545 S
H273 C261 0.930 . S
H274 C255 0.929 . S
H275 C293 0.930 . S
H276 C284 0.928 . S
H277 C285 0.930 . S
H278 C309 0.929 . S
H279 C267 0.930 . S
H280 C268 0.929 . S
H281 C310 0.930 . S
H282 C291 0.930 . S
N283 Gd252 2.661 . S
N283 C287 1.350 1_545 S
N283 C288 1.307 . S
C284 H276 0.928 . S
C284 C285 1.357 1_565 S
C284 C286 1.410 . S
C285 H277 0.930 . S
C285 C284 1.357 1_545 S
C285 C288 1.402 . S
C286 C284 1.410 . S
C286 C287 1.417 . S
C286 C310 1.431 . S
C287 N283 1.350 1_565 S
C287 C286 1.417 . S
C287 C290 1.426 . S
C288 H271 0.930 . S
C288 N283 1.307 . S
C288 C285 1.402 . S
N289 Gd252 2.601 1_565 S
N289 C290 1.359 . S
N289 C293 1.334 . S
C290 C287 1.426 . S
C290 N289 1.359 . S
C290 C294 1.413 . S
C291 H282 0.930 . S
C291 C292 1.359 . S
C291 C293 1.394 . S
C292 C291 1.359 . S
C292 C294 1.391 . S
C292 H295 0.929 . S
C293 H275 0.930 . S
C293 N289 1.334 . S
C293 C291 1.394 . S
C294 C290 1.413 . S
C294 C292 1.391 . S
C294 C309 1.437 . S
H295 C292 0.929 . S
O296 Gd252 2.545 . S
O296 C311 1.258 . S
O297 Gd252 2.606 . S
O297 Gd253 2.362 1_545 S
O297 C308 1.284 . S
O298 Gd253 2.324 . S
O298 C318 1.254 . S
O299 Gd252 2.429 1_565 S
O299 C318 1.268 . S
O300 Gd252 2.545 . S
O300 C308 1.250 . S
O301 Gd252 2.412 . S
O301 C311 1.252 . S
O302 Gd253 2.545 . S
O302 C320 1.258 . S
O303 Gd252 2.362 1_565 S
O303 Gd253 2.606 . S
O303 C319 1.284 . S
O304 Gd252 2.324 . S
O304 C327 1.254 . S
O305 Gd253 2.429 1_545 S
O305 C327 1.268 . S
O306 Gd253 2.545 . S
O306 C319 1.250 . S
O307 Gd253 2.412 . S
O307 C320 1.252 . S
C308 O297 1.284 . S
C308 O300 1.250 . S
C309 H278 0.929 . S
C309 C294 1.437 . S
C309 C310 1.317 . S
C310 H281 0.930 . S
C310 C286 1.431 . S
C310 C309 1.317 . S
C311 Gd252 2.828 . S
C311 O296 1.258 . S
C311 O301 1.252 . S
C311 C312 1.497 . S
C312 C311 1.497 . S
C312 C313 1.395 . S
C312 C314 1.380 . S
C313 C312 1.395 . S
C313 C316 1.398 . S
C313 H328 0.930 . S
C314 C312 1.380 . S
C314 C315 1.391 . S
C314 H329 0.930 . S
C315 C314 1.391 . S
C315 C317 1.387 . S
C316 C313 1.398 . S
C316 C317 1.380 . S
C316 H330 0.930 . S
C317 C315 1.387 . S
C317 C316 1.380 . S
C317 H331 0.930 . S
C318 O298 1.254 . S
C318 O299 1.268 . S
C319 O303 1.284 . S
C319 O306 1.250 . S
C320 Gd253 2.828 . S
C320 O302 1.258 . S
C320 O307 1.252 . S
C320 C321 1.497 . S
C321 C320 1.497 . S
C321 C322 1.395 . S
C321 C323 1.380 . S
C322 C321 1.395 . S
C322 C325 1.398 . S
C322 H332 0.930 . S
C323 C321 1.380 . S
C323 C324 1.391 . S
C323 H333 0.930 . S
C324 C323 1.391 . S
C324 C326 1.387 . S
C325 C322 1.398 . S
C325 C326 1.380 . S
C325 H334 0.930 . S
C326 C324 1.387 . S
C326 C325 1.380 . S
C326 H335 0.930 . S
C327 O304 1.254 . S
C327 O305 1.268 . S
H328 C313 0.930 . S
H329 C314 0.930 . S
H330 C316 0.930 . S
H331 C317 0.930 . S
H332 C322 0.930 . S
H333 C323 0.930 . S
H334 C325 0.930 . S
H335 C326 0.930 . S
Gd336 N367 2.661 . S
Gd336 N373 2.601 . S
Gd336 O380 2.545 1_554 S
Gd336 O381 2.606 . S
Gd336 O383 2.429 . S
Gd336 O384 2.545 . S
Gd336 O385 2.412 . S
Gd336 O387 2.362 . S
Gd336 O388 2.324 . S
Gd336 C395 2.828 . S
Gd337 N346 2.661 . S
Gd337 N350 2.601 . S
Gd337 O381 2.362 . S
Gd337 O382 2.324 . S
Gd337 O386 2.545 . S
Gd337 O387 2.606 . S
Gd337 O389 2.429 . S
Gd337 O390 2.545 . S
Gd337 O391 2.412 . S
Gd337 C404 2.828 . S
C338 C341 1.417 . S
C338 C343 1.431 . S
C338 C344 1.412 . S
C339 C342 1.437 . S
C339 C343 1.317 . S
C339 H358 0.929 . S
C340 C341 1.426 . S
C340 C342 1.413 . S
C340 N350 1.359 . S
C341 C338 1.417 . S
C341 C340 1.426 . S
C341 N346 1.350 . S
C342 C339 1.437 . S
C342 C340 1.413 . S
C342 C352 1.391 . S
C343 C338 1.431 . S
C343 C339 1.317 . S
C343 H354 0.930 . S
C344 C338 1.412 . S
C344 C345 1.355 . S
C344 H356 0.930 . S
C345 C344 1.355 . S
C345 C347 1.402 . S
C345 H357 0.930 . S
N346 Gd337 2.661 . S
N346 C341 1.350 . S
N346 C347 1.307 . S
C347 C345 1.402 . S
C347 N346 1.307 . S
C347 H348 0.930 . S
H348 C347 0.930 . S
C349 N350 1.334 . S
C349 C351 1.394 . S
C349 H353 0.930 . S
N350 Gd337 2.601 . S
N350 C340 1.359 . S
N350 C349 1.334 . S
C351 C349 1.394 . S
C351 C352 1.359 . S
C351 H363 0.930 . S
C352 C342 1.391 . S
C352 C351 1.359 . S
C352 H364 0.929 . S
H353 C349 0.930 . S
H354 C343 0.930 . S
H355 C372 0.930 . S
H356 C344 0.930 . S
H357 C345 0.930 . S
H358 C339 0.929 . S
H359 C377 0.930 1_556 S
H360 C368 0.930 . S
H361 C369 0.930 . S
H362 C393 0.929 . S
H363 C351 0.930 . S
H364 C352 0.929 . S
H365 C394 0.930 . S
H366 C375 0.930 . S
N367 Gd336 2.661 . S
N367 C371 1.350 . S
N367 C372 1.307 . S
C368 H360 0.930 . S
C368 C369 1.355 . S
C368 C370 1.412 . S
C369 H361 0.930 . S
C369 C368 1.355 . S
C369 C372 1.402 . S
C370 C368 1.412 . S
C370 C371 1.417 . S
C370 C394 1.431 . S
C371 N367 1.350 . S
C371 C370 1.417 . S
C371 C374 1.426 . S
C372 H355 0.930 . S
C372 N367 1.307 . S
C372 C369 1.402 . S
N373 Gd336 2.601 . S
N373 C374 1.359 . S
N373 C377 1.334 . S
C374 C371 1.426 . S
C374 N373 1.359 . S
C374 C378 1.413 . S
C375 H366 0.930 . S
C375 C376 1.359 1_556 S
C375 C377 1.394 1_556 S
C376 C375 1.359 1_554 S
C376 C378 1.391 . S
C376 H379 0.898 1_554 S
C377 H359 0.930 1_554 S
C377 N373 1.334 . S
C377 C375 1.394 1_554 S
C378 C374 1.413 . S
C378 C376 1.391 . S
C378 C393 1.437 . S
H379 C376 0.898 1_556 S
O380 Gd336 2.545 1_556 S
O380 C395 1.258 1_556 S
O381 Gd336 2.606 . S
O381 Gd337 2.362 . S
O381 C392 1.284 . S
O382 Gd337 2.324 . S
O382 C402 1.254 . S
O383 Gd336 2.429 . S
O383 C402 1.268 . S
O384 Gd336 2.545 . S
O384 C392 1.250 . S
O385 Gd336 2.412 . S
O385 C395 1.252 . S
O386 Gd337 2.545 . S
O386 C404 1.258 . S
O387 Gd336 2.362 . S
O387 Gd337 2.606 . S
O387 C403 1.284 . S
O388 Gd336 2.324 . S
O388 C411 1.254 . S
O389 Gd337 2.429 . S
O389 C411 1.268 . S
O390 Gd337 2.545 . S
O390 C403 1.250 . S
O391 Gd337 2.412 . S
O391 C404 1.252 . S
C392 O381 1.284 . S
C392 O384 1.250 . S
C393 H362 0.929 . S
C393 C378 1.437 . S
C393 C394 1.317 . S
C394 H365 0.930 . S
C394 C370 1.431 . S
C394 C393 1.317 . S
C395 Gd336 2.828 . S
C395 O380 1.258 1_554 S
C395 O385 1.252 . S
C395 C396 1.497 1_554 S
C396 C395 1.497 1_556 S
C396 C397 1.395 . S
C396 C398 1.380 . S
C397 C396 1.395 . S
C397 C400 1.398 . S
C397 H412 0.930 . S
C398 C396 1.380 . S
C398 C399 1.391 . S
C398 H413 0.930 1_556 S
C399 C398 1.391 . S
C399 C401 1.387 . S
C400 C397 1.398 . S
C400 C401 1.380 . S
C400 H414 0.930 . S
C401 C399 1.387 . S
C401 C400 1.380 . S
C401 H415 0.930 . S
C402 O382 1.254 . S
C402 O383 1.268 . S
C403 O387 1.284 . S
C403 O390 1.250 . S
C404 Gd337 2.828 . S
C404 O386 1.258 . S
C404 O391 1.252 . S
C404 C405 1.497 . S
C405 C404 1.497 . S
C405 C406 1.395 . S
C405 C407 1.380 . S
C406 C405 1.395 . S
C406 C409 1.398 . S
C406 H416 0.930 . S
C407 C405 1.380 . S
C407 C408 1.391 . S
C407 H417 0.930 . S
C408 C407 1.391 . S
C408 C410 1.387 . S
C409 C406 1.398 . S
C409 C410 1.380 . S
C409 H418 0.930 . S
C410 C408 1.387 . S
C410 C409 1.380 . S
C410 H419 0.930 . S
C411 O388 1.254 . S
C411 O389 1.268 . S
H412 C397 0.930 . S
H413 C398 0.930 1_554 S
H414 C400 0.930 . S
H415 C401 0.930 . S
H416 C406 0.930 . S
H417 C407 0.930 . S
H418 C409 0.930 . S
H419 C410 0.930 . S
Gd420 N451 2.661 . S
Gd420 N457 2.601 1_655 S
Gd420 O464 2.545 . S
Gd420 O465 2.606 . S
Gd420 O467 2.429 1_655 S
Gd420 O468 2.545 . S
Gd420 O469 2.412 . S
Gd420 O471 2.362 1_655 S
Gd420 O472 2.324 . S
Gd420 C479 2.828 . S
Gd421 N430 2.661 . S
Gd421 N434 2.601 1_455 S
Gd421 O465 2.362 1_455 S
Gd421 O466 2.324 . S
Gd421 O470 2.545 . S
Gd421 O471 2.606 . S
Gd421 O473 2.429 1_455 S
Gd421 O474 2.545 . S
Gd421 O475 2.412 . S
Gd421 C488 2.828 . S
C422 C425 1.417 . S
C422 C427 1.431 . S
C422 C428 1.412 1_655 S
C423 C426 1.437 . S
C423 C427 1.317 . S
C423 H442 0.929 . S
C424 C425 1.426 . S
C424 C426 1.413 . S
C424 N434 1.359 . S
C425 C422 1.417 . S
C425 C424 1.426 . S
C425 N430 1.350 1_655 S
C426 C423 1.437 . S
C426 C424 1.413 . S
C426 C436 1.391 . S
C427 C422 1.431 . S
C427 C423 1.317 . S
C427 H438 0.930 . S
C428 C422 1.412 1_455 S
C428 C429 1.355 . S
C428 H440 0.927 . S
C429 C428 1.355 . S
C429 C431 1.402 . S
C429 H441 0.930 . S
N430 Gd421 2.661 . S
N430 C425 1.350 1_455 S
N430 C431 1.307 . S
C431 C429 1.402 . S
C431 N430 1.307 . S
C431 H432 0.930 . S
H432 C431 0.930 . S
C433 N434 1.334 . S
C433 C435 1.394 . S
C433 H437 0.930 . S
N434 Gd421 2.601 1_655 S
N434 C424 1.359 . S
N434 C433 1.334 . S
C435 C433 1.394 . S
C435 C436 1.359 . S
C435 H447 0.930 . S
C436 C426 1.391 . S
C436 C435 1.359 . S
C436 H448 0.929 . S
H437 C433 0.930 . S
H438 C427 0.930 . S
H439 C456 0.930 . S
H440 C428 0.927 . S
H441 C429 0.930 . S
H442 C423 0.929 . S
H443 C461 0.930 . S
H444 C452 0.930 . S
H445 C453 0.930 . S
H446 C477 0.929 . S
H447 C435 0.930 . S
H448 C436 0.929 . S
H449 C478 0.930 . S
H450 C459 0.930 . S
N451 Gd420 2.661 . S
N451 C455 1.350 1_655 S
N451 C456 1.307 . S
C452 H444 0.930 . S
C452 C453 1.355 . S
C452 C454 1.412 1_655 S
C453 H445 0.930 . S
C453 C452 1.355 . S
C453 C456 1.402 . S
C454 C452 1.412 1_455 S
C454 C455 1.417 . S
C454 C478 1.431 . S
C455 N451 1.350 1_455 S
C455 C454 1.417 . S
C455 C458 1.426 . S
C456 H439 0.930 . S
C456 N451 1.307 . S
C456 C453 1.402 . S
N457 Gd420 2.601 1_455 S
N457 C458 1.359 . S
N457 C461 1.334 . S
C458 C455 1.426 . S
C458 N457 1.359 . S
C458 C462 1.413 . S
C459 H450 0.930 . S
C459 C460 1.359 . S
C459 C461 1.394 . S
C460 C459 1.359 . S
C460 C462 1.391 . S
C460 H463 0.929 . S
C461 H443 0.930 . S
C461 N457 1.334 . S
C461 C459 1.394 . S
C462 C458 1.413 . S
C462 C460 1.391 . S
C462 C477 1.437 . S
H463 C460 0.929 . S
O464 Gd420 2.545 . S
O464 C479 1.258 . S
O465 Gd420 2.606 . S
O465 Gd421 2.362 1_655 S
O465 C476 1.284 . S
O466 Gd421 2.324 . S
O466 C486 1.254 . S
O467 Gd420 2.429 1_455 S
O467 C486 1.268 . S
O468 Gd420 2.545 . S
O468 C476 1.250 . S
O469 Gd420 2.412 . S
O469 C479 1.252 . S
O470 Gd421 2.545 . S
O470 C488 1.258 . S
O471 Gd420 2.362 1_455 S
O471 Gd421 2.606 . S
O471 C487 1.284 . S
O472 Gd420 2.324 . S
O472 C495 1.254 . S
O473 Gd421 2.429 1_655 S
O473 C495 1.268 . S
O474 Gd421 2.545 . S
O474 C487 1.250 . S
O475 Gd421 2.412 . S
O475 C488 1.252 . S
C476 O465 1.284 . S
C476 O468 1.250 . S
C477 H446 0.929 . S
C477 C462 1.437 . S
C477 C478 1.317 . S
C478 H449 0.930 . S
C478 C454 1.431 . S
C478 C477 1.317 . S
C479 Gd420 2.828 . S
C479 O464 1.258 . S
C479 O469 1.252 . S
C479 C480 1.497 . S
C480 C479 1.497 . S
C480 C481 1.395 . S
C480 C482 1.380 . S
C481 C480 1.395 . S
C481 C484 1.398 . S
C481 H496 0.930 . S
C482 C480 1.380 . S
C482 C483 1.391 . S
C482 H497 0.930 . S
C483 C482 1.391 . S
C483 C485 1.387 . S
C484 C481 1.398 . S
C484 C485 1.380 . S
C484 H498 0.930 . S
C485 C483 1.387 . S
C485 C484 1.380 . S
C485 H499 0.930 . S
C486 O466 1.254 . S
C486 O467 1.268 . S
C487 O471 1.284 . S
C487 O474 1.250 . S
C488 Gd421 2.828 . S
C488 O470 1.258 . S
C488 O475 1.252 . S
C488 C489 1.497 . S
C489 C488 1.497 . S
C489 C490 1.395 . S
C489 C491 1.380 . S
C490 C489 1.395 . S
C490 C493 1.398 . S
C490 H500 0.930 . S
C491 C489 1.380 . S
C491 C492 1.391 . S
C491 H501 0.930 . S
C492 C491 1.391 . S
C492 C494 1.387 . S
C493 C490 1.398 . S
C493 C494 1.380 . S
C493 H502 0.930 . S
C494 C492 1.387 . S
C494 C493 1.380 . S
C494 H503 0.930 . S
C495 O472 1.254 . S
C495 O473 1.268 . S
H496 C481 0.930 . S
H497 C482 0.930 . S
H498 C484 0.930 . S
H499 C485 0.930 . S
H500 C490 0.930 . S
H501 C491 0.930 . S
H502 C493 0.930 . S
H503 C494 0.930 . S
Gd504 N535 2.661 . S
Gd504 N541 2.601 1_455 S
Gd504 O548 2.545 . S
Gd504 O549 2.606 . S
Gd504 O551 2.429 1_455 S
Gd504 O552 2.545 . S
Gd504 O553 2.412 . S
Gd504 O555 2.362 1_455 S
Gd504 O556 2.324 . S
Gd504 C563 2.828 . S
Gd505 N514 2.661 . S
Gd505 N518 2.601 1_655 S
Gd505 O549 2.362 1_655 S
Gd505 O550 2.324 . S
Gd505 O554 2.545 . S
Gd505 O555 2.606 . S
Gd505 O557 2.429 1_655 S
Gd505 O558 2.545 . S
Gd505 O559 2.412 . S
Gd505 C572 2.828 . S
C506 C509 1.417 . S
C506 C511 1.431 . S
C506 C512 1.411 1_455 S
C507 C510 1.437 . S
C507 C511 1.317 . S
C507 H526 0.929 . S
C508 C509 1.426 . S
C508 C510 1.413 . S
C508 N518 1.359 . S
C509 C506 1.417 . S
C509 C508 1.426 . S
C509 N514 1.350 1_455 S
C510 C507 1.437 . S
C510 C508 1.413 . S
C510 C520 1.391 . S
C511 C506 1.431 . S
C511 C507 1.317 . S
C511 H522 0.930 . S
C512 C506 1.411 1_655 S
C512 C513 1.357 . S
C512 H524 0.928 1_655 S
C513 C512 1.357 . S
C513 C515 1.402 . S
C513 H525 0.930 . S
N514 Gd505 2.661 . S
N514 C509 1.350 1_655 S
N514 C515 1.307 . S
C515 C513 1.402 . S
C515 N514 1.307 . S
C515 H516 0.930 . S
H516 C515 0.930 . S
C517 N518 1.334 . S
C517 C519 1.394 . S
C517 H521 0.930 . S
N518 Gd505 2.601 1_455 S
N518 C508 1.359 . S
N518 C517 1.334 . S
C519 C517 1.394 . S
C519 C520 1.359 . S
C519 H531 0.930 . S
C520 C510 1.391 . S
C520 C519 1.359 . S
C520 H532 0.929 . S
H521 C517 0.930 . S
H522 C511 0.930 . S
H523 C540 0.930 . S
H524 C512 0.928 1_455 S
H525 C513 0.930 . S
H526 C507 0.929 . S
H527 C545 0.930 . S
H528 C536 0.928 . S
H529 C537 0.930 . S
H530 C561 0.929 . S
H531 C519 0.930 . S
H532 C520 0.929 . S
H533 C562 0.930 . S
H534 C543 0.930 . S
N535 Gd504 2.661 . S
N535 C539 1.350 1_455 S
N535 C540 1.307 . S
C536 H528 0.928 . S
C536 C537 1.357 1_655 S
C536 C538 1.411 . S
C537 H529 0.930 . S
C537 C536 1.357 1_455 S
C537 C540 1.402 . S
C538 C536 1.411 . S
C538 C539 1.417 . S
C538 C562 1.431 . S
C539 N535 1.350 1_655 S
C539 C538 1.417 . S
C539 C542 1.426 . S
C540 H523 0.930 . S
C540 N535 1.307 . S
C540 C537 1.402 . S
N541 Gd504 2.601 1_655 S
N541 C542 1.359 . S
N541 C545 1.334 . S
C542 C539 1.426 . S
C542 N541 1.359 . S
C542 C546 1.413 . S
C543 H534 0.930 . S
C543 C544 1.359 . S
C543 C545 1.394 . S
C544 C543 1.359 . S
C544 C546 1.391 . S
C544 H547 0.929 . S
C545 H527 0.930 . S
C545 N541 1.334 . S
C545 C543 1.394 . S
C546 C542 1.413 . S
C546 C544 1.391 . S
C546 C561 1.437 . S
H547 C544 0.929 . S
O548 Gd504 2.545 . S
O548 C563 1.258 . S
O549 Gd504 2.606 . S
O549 Gd505 2.362 1_455 S
O549 C560 1.284 . S
O550 Gd505 2.324 . S
O550 C570 1.254 . S
O551 Gd504 2.429 1_655 S
O551 C570 1.268 . S
O552 Gd504 2.545 . S
O552 C560 1.250 . S
O553 Gd504 2.412 . S
O553 C563 1.252 . S
O554 Gd505 2.545 . S
O554 C572 1.258 . S
O555 Gd504 2.362 1_655 S
O555 Gd505 2.606 . S
O555 C571 1.284 . S
O556 Gd504 2.324 . S
O556 C579 1.254 . S
O557 Gd505 2.429 1_455 S
O557 C579 1.268 . S
O558 Gd505 2.545 . S
O558 C571 1.250 . S
O559 Gd505 2.412 . S
O559 C572 1.252 . S
C560 O549 1.284 . S
C560 O552 1.250 . S
C561 H530 0.929 . S
C561 C546 1.437 . S
C561 C562 1.317 . S
C562 H533 0.930 . S
C562 C538 1.431 . S
C562 C561 1.317 . S
C563 Gd504 2.828 . S
C563 O548 1.258 . S
C563 O553 1.252 . S
C563 C564 1.497 . S
C564 C563 1.497 . S
C564 C565 1.395 . S
C564 C566 1.380 . S
C565 C564 1.395 . S
C565 C568 1.398 . S
C565 H580 0.930 . S
C566 C564 1.380 . S
C566 C567 1.391 . S
C566 H581 0.930 . S
C567 C566 1.391 . S
C567 C569 1.387 . S
C568 C565 1.398 . S
C568 C569 1.380 . S
C568 H582 0.930 . S
C569 C567 1.387 . S
C569 C568 1.380 . S
C569 H583 0.930 . S
C570 O550 1.254 . S
C570 O551 1.268 . S
C571 O555 1.284 . S
C571 O558 1.250 . S
C572 Gd505 2.828 . S
C572 O554 1.258 . S
C572 O559 1.252 . S
C572 C573 1.497 . S
C573 C572 1.497 . S
C573 C574 1.395 . S
C573 C575 1.380 . S
C574 C573 1.395 . S
C574 C577 1.398 . S
C574 H584 0.930 . S
C575 C573 1.380 . S
C575 C576 1.391 . S
C575 H585 0.930 . S
C576 C575 1.391 . S
C576 C578 1.387 . S
C577 C574 1.398 . S
C577 C578 1.380 . S
C577 H586 0.930 . S
C578 C576 1.387 . S
C578 C577 1.380 . S
C578 H587 0.930 . S
C579 O556 1.254 . S
C579 O557 1.268 . S
H580 C565 0.930 . S
H581 C566 0.930 . S
H582 C568 0.930 . S
H583 C569 0.930 . S
H584 C574 0.930 . S
H585 C575 0.930 . S
H586 C577 0.930 . S
H587 C578 0.930 . S
Gd588 N619 2.661 . S
Gd588 N625 2.601 1_545 S
Gd588 O632 2.545 . S
Gd588 O633 2.606 . S
Gd588 O635 2.429 1_545 S
Gd588 O636 2.545 . S
Gd588 O637 2.412 . S
Gd588 O639 2.362 1_545 S
Gd588 O640 2.324 . S
Gd588 C647 2.828 . S
Gd589 N598 2.661 . S
Gd589 N602 2.601 1_565 S
Gd589 O633 2.362 1_565 S
Gd589 O634 2.324 . S
Gd589 O638 2.545 . S
Gd589 O639 2.606 . S
Gd589 O641 2.429 1_565 S
Gd589 O642 2.545 . S
Gd589 O643 2.412 . S
Gd589 C656 2.828 . S
C590 C593 1.417 . S
C590 C595 1.431 . S
C590 C596 1.412 1_545 S
C591 C594 1.437 . S
C591 C595 1.317 . S
C591 H610 0.929 . S
C592 C593 1.426 . S
C592 C594 1.413 . S
C592 N602 1.359 . S
C593 C590 1.417 . S
C593 C592 1.426 . S
C593 N598 1.350 1_545 S
C594 C591 1.437 . S
C594 C592 1.413 . S
C594 C604 1.391 . S
C595 C590 1.431 . S
C595 C591 1.317 . S
C595 H606 0.930 . S
C596 C590 1.412 1_565 S
C596 C597 1.355 . S
C596 H608 0.927 . S
C597 C596 1.355 . S
C597 C599 1.402 . S
C597 H609 0.930 . S
N598 Gd589 2.661 . S
N598 C593 1.350 1_565 S
N598 C599 1.307 . S
C599 C597 1.402 . S
C599 N598 1.307 . S
C599 H600 0.930 . S
H600 C599 0.930 . S
C601 N602 1.334 . S
C601 C603 1.394 . S
C601 H605 0.930 . S
N602 Gd589 2.601 1_545 S
N602 C592 1.359 . S
N602 C601 1.334 . S
C603 C601 1.394 . S
C603 C604 1.359 . S
C603 H615 0.930 . S
C604 C594 1.391 . S
C604 C603 1.359 . S
C604 H616 0.929 . S
H605 C601 0.930 . S
H606 C595 0.930 . S
H607 C624 0.930 . S
H608 C596 0.927 . S
H609 C597 0.930 . S
H610 C591 0.929 . S
H611 C629 0.930 . S
H612 C620 0.930 . S
H613 C621 0.930 . S
H614 C645 0.929 . S
H615 C603 0.930 . S
H616 C604 0.929 . S
H617 C646 0.930 . S
H618 C627 0.930 . S
N619 Gd588 2.661 . S
N619 C623 1.350 1_545 S
N619 C624 1.307 . S
C620 H612 0.930 . S
C620 C621 1.355 . S
C620 C622 1.412 1_545 S
C621 H613 0.930 . S
C621 C620 1.355 . S
C621 C624 1.402 . S
C622 C620 1.412 1_565 S
C622 C623 1.417 . S
C622 C646 1.431 . S
C623 N619 1.350 1_565 S
C623 C622 1.417 . S
C623 C626 1.426 . S
C624 H607 0.930 . S
C624 N619 1.307 . S
C624 C621 1.402 . S
N625 Gd588 2.601 1_565 S
N625 C626 1.359 . S
N625 C629 1.334 . S
C626 C623 1.426 . S
C626 N625 1.359 . S
C626 C630 1.413 . S
C627 H618 0.930 . S
C627 C628 1.359 . S
C627 C629 1.394 . S
C628 C627 1.359 . S
C628 C630 1.391 . S
C628 H631 0.929 . S
C629 H611 0.930 . S
C629 N625 1.334 . S
C629 C627 1.394 . S
C630 C626 1.413 . S
C630 C628 1.391 . S
C630 C645 1.437 . S
H631 C628 0.929 . S
O632 Gd588 2.545 . S
O632 C647 1.258 . S
O633 Gd588 2.606 . S
O633 Gd589 2.362 1_545 S
O633 C644 1.284 . S
O634 Gd589 2.324 . S
O634 C654 1.254 . S
O635 Gd588 2.429 1_565 S
O635 C654 1.268 . S
O636 Gd588 2.545 . S
O636 C644 1.250 . S
O637 Gd588 2.412 . S
O637 C647 1.252 . S
O638 Gd589 2.545 . S
O638 C656 1.258 . S
O639 Gd588 2.362 1_565 S
O639 Gd589 2.606 . S
O639 C655 1.284 . S
O640 Gd588 2.324 . S
O640 C663 1.254 . S
O641 Gd589 2.429 1_545 S
O641 C663 1.268 . S
O642 Gd589 2.545 . S
O642 C655 1.250 . S
O643 Gd589 2.412 . S
O643 C656 1.252 . S
C644 O633 1.284 . S
C644 O636 1.250 . S
C645 H614 0.929 . S
C645 C630 1.437 . S
C645 C646 1.317 . S
C646 H617 0.930 . S
C646 C622 1.431 . S
C646 C645 1.317 . S
C647 Gd588 2.828 . S
C647 O632 1.258 . S
C647 O637 1.252 . S
C647 C648 1.497 . S
C648 C647 1.497 . S
C648 C649 1.395 . S
C648 C650 1.380 . S
C649 C648 1.395 . S
C649 C652 1.398 . S
C649 H664 0.930 . S
C650 C648 1.380 . S
C650 C651 1.391 . S
C650 H665 0.930 . S
C651 C650 1.391 . S
C651 C653 1.387 . S
C652 C649 1.398 . S
C652 C653 1.380 . S
C652 H666 0.930 . S
C653 C651 1.387 . S
C653 C652 1.380 . S
C653 H667 0.930 . S
C654 O634 1.254 . S
C654 O635 1.268 . S
C655 O639 1.284 . S
C655 O642 1.250 . S
C656 Gd589 2.828 . S
C656 O638 1.258 . S
C656 O643 1.252 . S
C656 C657 1.497 . S
C657 C656 1.497 . S
C657 C658 1.395 . S
C657 C659 1.380 . S
C658 C657 1.395 . S
C658 C661 1.398 . S
C658 H668 0.930 . S
C659 C657 1.380 . S
C659 C660 1.391 . S
C659 H669 0.930 . S
C660 C659 1.391 . S
C660 C662 1.387 . S
C661 C658 1.398 . S
C661 C662 1.380 . S
C661 H670 0.930 . S
C662 C660 1.387 . S
C662 C661 1.380 . S
C662 H671 0.930 . S
C663 O640 1.254 . S
C663 O641 1.268 . S
H664 C649 0.930 . S
H665 C650 0.930 . S
H666 C652 0.930 . S
H667 C653 0.930 . S
H668 C658 0.930 . S
H669 C659 0.930 . S
H670 C661 0.930 . S
H671 C662 0.930 . S
Gd672 N703 2.661 . S
Gd672 N709 2.601 . S
Gd672 O716 2.545 . S
Gd672 O717 2.606 . S
Gd672 O719 2.429 . S
Gd672 O720 2.545 . S
Gd672 O721 2.412 . S
Gd672 O723 2.362 . S
Gd672 O724 2.324 . S
Gd672 C731 2.828 . S
Gd673 N682 2.661 . S
Gd673 N686 2.601 . S
Gd673 O717 2.362 . S
Gd673 O718 2.324 . S
Gd673 O722 2.545 . S
Gd673 O723 2.606 . S
Gd673 O725 2.429 . S
Gd673 O726 2.545 . S
Gd673 O727 2.412 . S
Gd673 C740 2.828 . S
C674 C677 1.417 . S
C674 C679 1.431 . S
C674 C680 1.412 . S
C675 C678 1.437 . S
C675 C679 1.317 . S
C675 H694 0.929 . S
C676 C677 1.426 . S
C676 C678 1.413 . S
C676 N686 1.359 . S
C677 C674 1.417 . S
C677 C676 1.426 . S
C677 N682 1.350 . S
C678 C675 1.437 . S
C678 C676 1.413 . S
C678 C688 1.391 . S
C679 C674 1.431 . S
C679 C675 1.317 . S
C679 H690 0.930 . S
C680 C674 1.412 . S
C680 C681 1.355 . S
C680 H692 0.930 . S
C681 C680 1.355 . S
C681 C683 1.402 . S
C681 H693 0.930 . S
N682 Gd673 2.661 . S
N682 C677 1.350 . S
N682 C683 1.307 . S
C683 C681 1.402 . S
C683 N682 1.307 . S
C683 H684 0.930 . S
H684 C683 0.930 . S
C685 N686 1.334 . S
C685 C687 1.394 . S
C685 H689 0.930 . S
N686 Gd673 2.601 . S
N686 C676 1.359 . S
N686 C685 1.334 . S
C687 C685 1.394 . S
C687 C688 1.359 . S
C687 H699 0.930 . S
C688 C678 1.391 . S
C688 C687 1.359 . S
C688 H700 0.929 . S
H689 C685 0.930 . S
H690 C679 0.930 . S
H691 C708 0.930 . S
H692 C680 0.930 . S
H693 C681 0.930 . S
H694 C675 0.929 . S
H695 C713 0.930 . S
H696 C704 0.930 . S
H697 C705 0.930 . S
H698 C729 0.929 . S
H699 C687 0.930 . S
H700 C688 0.929 . S
H701 C730 0.930 . S
H702 C711 0.930 . S
N703 Gd672 2.661 . S
N703 C707 1.350 . S
N703 C708 1.307 . S
C704 H696 0.930 . S
C704 C705 1.355 . S
C704 C706 1.412 . S
C705 H697 0.930 . S
C705 C704 1.355 . S
C705 C708 1.402 . S
C706 C704 1.412 . S
C706 C707 1.417 . S
C706 C730 1.431 . S
C707 N703 1.350 . S
C707 C706 1.417 . S
C707 C710 1.426 . S
C708 H691 0.930 . S
C708 N703 1.307 . S
C708 C705 1.402 . S
N709 Gd672 2.601 . S
N709 C710 1.359 . S
N709 C713 1.334 . S
C710 C707 1.426 . S
C710 N709 1.359 . S
C710 C714 1.413 . S
C711 H702 0.930 . S
C711 C712 1.359 . S
C711 C713 1.394 . S
C712 C711 1.359 . S
C712 C714 1.391 . S
C712 H715 0.929 . S
C713 H695 0.930 . S
C713 N709 1.334 . S
C713 C711 1.394 . S
C714 C710 1.413 . S
C714 C712 1.391 . S
C714 C729 1.437 . S
H715 C712 0.929 . S
O716 Gd672 2.545 . S
O716 C731 1.258 . S
O717 Gd672 2.606 . S
O717 Gd673 2.362 . S
O717 C728 1.284 . S
O718 Gd673 2.324 . S
O718 C738 1.254 . S
O719 Gd672 2.429 . S
O719 C738 1.268 . S
O720 Gd672 2.545 . S
O720 C728 1.250 . S
O721 Gd672 2.412 . S
O721 C731 1.252 . S
O722 Gd673 2.545 . S
O722 C740 1.258 . S
O723 Gd672 2.362 . S
O723 Gd673 2.606 . S
O723 C739 1.284 . S
O724 Gd672 2.324 . S
O724 C747 1.254 . S
O725 Gd673 2.429 . S
O725 C747 1.268 . S
O726 Gd673 2.545 . S
O726 C739 1.250 . S
O727 Gd673 2.412 . S
O727 C740 1.252 . S
C728 O717 1.284 . S
C728 O720 1.250 . S
C729 H698 0.929 . S
C729 C714 1.437 . S
C729 C730 1.317 . S
C730 H701 0.930 . S
C730 C706 1.431 . S
C730 C729 1.317 . S
C731 Gd672 2.828 . S
C731 O716 1.258 . S
C731 O721 1.252 . S
C731 C732 1.497 . S
C732 C731 1.497 . S
C732 C733 1.395 . S
C732 C734 1.380 . S
C733 C732 1.395 . S
C733 C736 1.398 . S
C733 H748 0.930 . S
C734 C732 1.380 . S
C734 C735 1.391 . S
C734 H749 0.930 . S
C735 C734 1.391 . S
C735 C737 1.387 . S
C736 C733 1.398 . S
C736 C737 1.380 . S
C736 H750 0.930 . S
C737 C735 1.387 . S
C737 C736 1.380 . S
C737 H751 0.930 . S
C738 O718 1.254 . S
C738 O719 1.268 . S
C739 O723 1.284 . S
C739 O726 1.250 . S
C740 Gd673 2.828 . S
C740 O722 1.258 . S
C740 O727 1.252 . S
C740 C741 1.497 . S
C741 C740 1.497 . S
C741 C742 1.395 . S
C741 C743 1.380 . S
C742 C741 1.395 . S
C742 C745 1.398 . S
C742 H752 0.930 . S
C743 C741 1.380 . S
C743 C744 1.391 . S
C743 H753 0.930 . S
C744 C743 1.391 . S
C744 C746 1.387 . S
C745 C742 1.398 . S
C745 C746 1.380 . S
C745 H754 0.930 . S
C746 C744 1.387 . S
C746 C745 1.380 . S
C746 H755 0.930 . S
C747 O724 1.254 . S
C747 O725 1.268 . S
H748 C733 0.930 . S
H749 C734 0.930 . S
H750 C736 0.930 . S
H751 C737 0.930 . S
H752 C742 0.930 . S
H753 C743 0.930 . S
H754 C745 0.930 . S
H755 C746 0.930 . S
Gd756 N787 2.661 . S
Gd756 N793 2.601 1_655 S
Gd756 O800 2.545 1_556 S
Gd756 O801 2.606 . S
Gd756 O803 2.429 1_655 S
Gd756 O804 2.545 . S
Gd756 O805 2.412 . S
Gd756 O807 2.362 1_655 S
Gd756 O808 2.324 . S
Gd756 C815 2.828 1_556 S
Gd757 N766 2.661 . S
Gd757 N770 2.601 1_455 S
Gd757 O801 2.362 1_455 S
Gd757 O802 2.324 . S
Gd757 O806 2.545 . S
Gd757 O807 2.606 . S
Gd757 O809 2.429 1_455 S
Gd757 O810 2.545 . S
Gd757 O811 2.412 . S
Gd757 C824 2.828 . S
C758 C761 1.417 . S
C758 C763 1.431 . S
C758 C764 1.411 1_655 S
C759 C762 1.437 . S
C759 C763 1.317 . S
C759 H778 0.929 . S
C760 C761 1.426 . S
C760 C762 1.413 . S
C760 N770 1.359 . S
C761 C758 1.417 . S
C761 C760 1.426 . S
C761 N766 1.350 1_655 S
C762 C759 1.437 . S
C762 C760 1.413 . S
C762 C772 1.391 . S
C763 C758 1.431 . S
C763 C759 1.317 . S
C763 H774 0.930 . S
C764 C758 1.411 1_455 S
C764 C765 1.357 . S
C764 H776 0.928 1_455 S
C765 C764 1.357 . S
C765 C767 1.402 . S
C765 H777 0.930 1_556 S
N766 Gd757 2.661 . S
N766 C761 1.350 1_455 S
N766 C767 1.307 . S
C767 C765 1.402 . S
C767 N766 1.307 . S
C767 H768 0.930 . S
H768 C767 0.930 . S
C769 N770 1.334 . S
C769 C771 1.394 . S
C769 H773 0.930 . S
N770 Gd757 2.601 1_655 S
N770 C760 1.359 . S
N770 C769 1.334 . S
C771 C769 1.394 . S
C771 C772 1.359 . S
C771 H783 0.930 . S
C772 C762 1.391 . S
C772 C771 1.359 . S
C772 H784 0.929 . S
H773 C769 0.930 . S
H774 C763 0.930 . S
H775 C792 0.930 . S
H776 C764 0.928 1_655 S
H777 C765 0.930 1_554 S
H778 C759 0.929 . S
H779 C797 0.930 . S
H780 C788 0.928 . S
H781 C789 0.930 . S
H782 C813 0.929 . S
H783 C771 0.930 . S
H784 C772 0.929 . S
H785 C814 0.930 . S
H786 C795 0.930 . S
N787 Gd756 2.661 . S
N787 C791 1.350 1_655 S
N787 C792 1.307 . S
C788 H780 0.928 . S
C788 C789 1.357 1_455 S
C788 C790 1.411 . S
C789 H781 0.930 . S
C789 C788 1.357 1_655 S
C789 C792 1.402 . S
C790 C788 1.411 . S
C790 C791 1.417 . S
C790 C814 1.431 . S
C791 N787 1.350 1_455 S
C791 C790 1.417 . S
C791 C794 1.426 . S
C792 H775 0.930 . S
C792 N787 1.307 . S
C792 C789 1.402 . S
N793 Gd756 2.601 1_455 S
N793 C794 1.359 . S
N793 C797 1.334 1_556 S
C794 C791 1.426 . S
C794 N793 1.359 . S
C794 C798 1.413 . S
C795 H786 0.930 . S
C795 C796 1.359 . S
C795 C797 1.394 . S
C796 C795 1.359 . S
C796 C798 1.391 1_554 S
C796 H799 0.929 . S
C797 H779 0.930 . S
C797 N793 1.334 1_554 S
C797 C795 1.394 . S
C798 C794 1.413 . S
C798 C796 1.391 1_556 S
C798 C813 1.437 . S
H799 C796 0.929 . S
O800 Gd756 2.545 1_554 S
O800 C815 1.258 . S
O801 Gd756 2.606 . S
O801 Gd757 2.362 1_655 S
O801 C812 1.284 . S
O802 Gd757 2.324 . S
O802 C822 1.254 . S
O803 Gd756 2.429 1_455 S
O803 C822 1.268 . S
O804 Gd756 2.545 . S
O804 C812 1.250 . S
O805 Gd756 2.412 . S
O805 C815 1.252 1_556 S
O806 Gd757 2.545 . S
O806 C824 1.258 . S
O807 Gd756 2.362 1_455 S
O807 Gd757 2.606 . S
O807 C823 1.284 . S
O808 Gd756 2.324 . S
O808 C831 1.254 . S
O809 Gd757 2.429 1_655 S
O809 C831 1.268 . S
O810 Gd757 2.545 . S
O810 C823 1.250 . S
O811 Gd757 2.412 . S
O811 C824 1.252 . S
C812 O801 1.284 . S
C812 O804 1.250 . S
C813 H782 0.929 . S
C813 C798 1.437 . S
C813 C814 1.317 . S
C814 H785 0.930 . S
C814 C790 1.431 . S
C814 C813 1.317 . S
C815 Gd756 2.828 1_554 S
C815 O800 1.258 . S
C815 O805 1.252 1_554 S
C815 C816 1.497 . S
C816 C815 1.497 . S
C816 C817 1.395 . S
C816 C818 1.380 . S
C817 C816 1.395 . S
C817 C820 1.398 . S
C817 H832 0.930 . S
C818 C816 1.380 . S
C818 C819 1.391 . S
C818 H833 0.930 . S
C819 C818 1.391 . S
C819 C821 1.387 . S
C820 C817 1.398 . S
C820 C821 1.380 . S
C820 H834 0.930 . S
C821 C819 1.387 . S
C821 C820 1.380 . S
C821 H835 0.930 . S
C822 O802 1.254 . S
C822 O803 1.268 . S
C823 O807 1.284 . S
C823 O810 1.250 . S
C824 Gd757 2.828 . S
C824 O806 1.258 . S
C824 O811 1.252 . S
C824 C825 1.497 . S
C825 C824 1.497 . S
C825 C826 1.395 . S
C825 C827 1.380 . S
C826 C825 1.395 . S
C826 C829 1.398 . S
C826 H836 0.930 . S
C827 C825 1.380 . S
C827 C828 1.391 . S
C827 H837 0.930 . S
C828 C827 1.391 . S
C828 C830 1.387 . S
C829 C826 1.398 . S
C829 C830 1.380 . S
C829 H838 0.930 . S
C830 C828 1.387 . S
C830 C829 1.380 . S
C830 H839 0.930 . S
C831 O808 1.254 . S
C831 O809 1.268 . S
H832 C817 0.930 . S
H833 C818 0.930 . S
H834 C820 0.930 . S
H835 C821 0.930 . S
H836 C826 0.930 . S
H837 C827 0.930 . S
H838 C829 0.930 . S
H839 C830 0.930 . S
Gd840 N871 2.661 . S
Gd840 N877 2.601 1_565 S
Gd840 O884 2.545 . S
Gd840 O885 2.606 . S
Gd840 O887 2.429 1_565 S
Gd840 O888 2.545 . S
Gd840 O889 2.412 . S
Gd840 O891 2.362 1_565 S
Gd840 O892 2.324 . S
Gd840 C899 2.828 . S
Gd841 N850 2.661 . S
Gd841 N854 2.601 1_545 S
Gd841 O885 2.362 1_545 S
Gd841 O886 2.324 . S
Gd841 O890 2.545 . S
Gd841 O891 2.606 . S
Gd841 O893 2.429 1_545 S
Gd841 O894 2.545 . S
Gd841 O895 2.412 . S
Gd841 C908 2.828 . S
C842 C845 1.417 . S
C842 C847 1.431 . S
C842 C848 1.412 1_565 S
C843 C846 1.437 . S
C843 C847 1.317 . S
C843 H862 0.929 . S
C844 C845 1.426 . S
C844 C846 1.413 . S
C844 N854 1.359 . S
C845 C842 1.417 . S
C845 C844 1.426 . S
C845 N850 1.350 1_565 S
C846 C843 1.437 . S
C846 C844 1.413 . S
C846 C856 1.391 . S
C847 C842 1.431 . S
C847 C843 1.317 . S
C847 H858 0.930 . S
C848 C842 1.412 1_545 S
C848 C849 1.355 . S
C848 H860 0.927 . S
C849 C848 1.355 . S
C849 C851 1.402 . S
C849 H861 0.930 . S
N850 Gd841 2.661 . S
N850 C845 1.350 1_545 S
N850 C851 1.307 . S
C851 C849 1.402 . S
C851 N850 1.307 . S
C851 H852 0.930 . S
H852 C851 0.930 . S
C853 N854 1.334 . S
C853 C855 1.394 . S
C853 H857 0.930 . S
N854 Gd841 2.601 1_565 S
N854 C844 1.359 . S
N854 C853 1.334 . S
C855 C853 1.394 . S
C855 C856 1.359 . S
C855 H867 0.930 . S
C856 C846 1.391 . S
C856 C855 1.359 . S
C856 H868 0.929 . S
H857 C853 0.930 . S
H858 C847 0.930 . S
H859 C876 0.930 . S
H860 C848 0.927 . S
H861 C849 0.930 . S
H862 C843 0.929 . S
H863 C881 0.930 . S
H864 C872 0.930 . S
H865 C873 0.930 . S
H866 C897 0.929 . S
H867 C855 0.930 . S
H868 C856 0.929 . S
H869 C898 0.930 . S
H870 C879 0.930 . S
N871 Gd840 2.661 . S
N871 C875 1.350 1_565 S
N871 C876 1.307 . S
C872 H864 0.930 . S
C872 C873 1.355 . S
C872 C874 1.412 1_565 S
C873 H865 0.930 . S
C873 C872 1.355 . S
C873 C876 1.402 . S
C874 C872 1.412 1_545 S
C874 C875 1.417 . S
C874 C898 1.431 . S
C875 N871 1.350 1_545 S
C875 C874 1.417 . S
C875 C878 1.426 . S
C876 H859 0.930 . S
C876 N871 1.307 . S
C876 C873 1.402 . S
N877 Gd840 2.601 1_545 S
N877 C878 1.359 . S
N877 C881 1.334 . S
C878 C875 1.426 . S
C878 N877 1.359 . S
C878 C882 1.413 . S
C879 H870 0.930 . S
C879 C880 1.359 . S
C879 C881 1.394 . S
C880 C879 1.359 . S
C880 C882 1.391 . S
C880 H883 0.929 . S
C881 H863 0.930 . S
C881 N877 1.334 . S
C881 C879 1.394 . S
C882 C878 1.413 . S
C882 C880 1.391 . S
C882 C897 1.437 . S
H883 C880 0.929 . S
O884 Gd840 2.545 . S
O884 C899 1.258 . S
O885 Gd840 2.606 . S
O885 Gd841 2.362 1_565 S
O885 C896 1.284 . S
O886 Gd841 2.324 . S
O886 C906 1.254 . S
O887 Gd840 2.429 1_545 S
O887 C906 1.268 . S
O888 Gd840 2.545 . S
O888 C896 1.250 . S
O889 Gd840 2.412 . S
O889 C899 1.252 . S
O890 Gd841 2.545 . S
O890 C908 1.258 . S
O891 Gd840 2.362 1_545 S
O891 Gd841 2.606 . S
O891 C907 1.284 . S
O892 Gd840 2.324 . S
O892 C915 1.254 . S
O893 Gd841 2.429 1_565 S
O893 C915 1.268 . S
O894 Gd841 2.545 . S
O894 C907 1.250 . S
O895 Gd841 2.412 . S
O895 C908 1.252 . S
C896 O885 1.284 . S
C896 O888 1.250 . S
C897 H866 0.929 . S
C897 C882 1.437 . S
C897 C898 1.317 . S
C898 H869 0.930 . S
C898 C874 1.431 . S
C898 C897 1.317 . S
C899 Gd840 2.828 . S
C899 O884 1.258 . S
C899 O889 1.252 . S
C899 C900 1.497 . S
C900 C899 1.497 . S
C900 C901 1.395 . S
C900 C902 1.380 . S
C901 C900 1.395 . S
C901 C904 1.398 . S
C901 H916 0.930 . S
C902 C900 1.380 . S
C902 C903 1.391 . S
C902 H917 0.930 . S
C903 C902 1.391 . S
C903 C905 1.387 . S
C904 C901 1.398 . S
C904 C905 1.380 . S
C904 H918 0.930 . S
C905 C903 1.387 . S
C905 C904 1.380 . S
C905 H919 0.930 . S
C906 O886 1.254 . S
C906 O887 1.268 . S
C907 O891 1.284 . S
C907 O894 1.250 . S
C908 Gd841 2.828 . S
C908 O890 1.258 . S
C908 O895 1.252 . S
C908 C909 1.497 . S
C909 C908 1.497 . S
C909 C910 1.395 . S
C909 C911 1.380 . S
C910 C909 1.395 . S
C910 C913 1.398 . S
C910 H920 0.930 . S
C911 C909 1.380 . S
C911 C912 1.391 . S
C911 H921 0.930 . S
C912 C911 1.391 . S
C912 C914 1.387 . S
C913 C910 1.398 . S
C913 C914 1.380 . S
C913 H922 0.930 . S
C914 C912 1.387 . S
C914 C913 1.380 . S
C914 H923 0.930 . S
C915 O892 1.254 . S
C915 O893 1.268 . S
H916 C901 0.930 . S
H917 C902 0.930 . S
H918 C904 0.930 . S
H919 C905 0.930 . S
H920 C910 0.930 . S
H921 C911 0.930 . S
H922 C913 0.930 . S
H923 C914 0.930 . S
Gd924 N955 2.661 . S
Gd924 N961 2.601 . S
Gd924 O968 2.545 . S
Gd924 O969 2.606 . S
Gd924 O971 2.429 . S
Gd924 O972 2.545 . S
Gd924 O973 2.412 . S
Gd924 O975 2.362 . S
Gd924 O976 2.324 . S
Gd924 C983 2.828 . S
Gd925 N934 2.661 . S
Gd925 N938 2.601 . S
Gd925 O969 2.362 . S
Gd925 O970 2.324 . S
Gd925 O974 2.545 . S
Gd925 O975 2.606 . S
Gd925 O977 2.429 . S
Gd925 O978 2.545 . S
Gd925 O979 2.412 . S
Gd925 C992 2.828 . S
C926 C929 1.417 . S
C926 C931 1.431 . S
C926 C932 1.412 . S
C927 C930 1.437 . S
C927 C931 1.317 . S
C927 H946 0.929 . S
C928 C929 1.426 . S
C928 C930 1.413 . S
C928 N938 1.359 . S
C929 C926 1.417 . S
C929 C928 1.426 . S
C929 N934 1.350 . S
C930 C927 1.437 . S
C930 C928 1.413 . S
C930 C940 1.391 . S
C931 C926 1.431 . S
C931 C927 1.317 . S
C931 H942 0.930 . S
C932 C926 1.412 . S
C932 C933 1.355 . S
C932 H944 0.930 . S
C933 C932 1.355 . S
C933 C935 1.402 . S
C933 H945 0.930 . S
N934 Gd925 2.661 . S
N934 C929 1.350 . S
N934 C935 1.307 . S
C935 C933 1.402 . S
C935 N934 1.307 . S
C935 H936 0.930 . S
H936 C935 0.930 . S
C937 N938 1.334 . S
C937 C939 1.394 . S
C937 H941 0.930 . S
N938 Gd925 2.601 . S
N938 C928 1.359 . S
N938 C937 1.334 . S
C939 C937 1.394 . S
C939 C940 1.359 . S
C939 H951 0.930 . S
C940 C930 1.391 . S
C940 C939 1.359 . S
C940 H952 0.929 . S
H941 C937 0.930 . S
H942 C931 0.930 . S
H943 C960 0.930 . S
H944 C932 0.930 . S
H945 C933 0.930 . S
H946 C927 0.929 . S
H947 C965 0.930 . S
H948 C956 0.930 . S
H949 C957 0.930 . S
H950 C981 0.929 . S
H951 C939 0.930 . S
H952 C940 0.929 . S
H953 C982 0.930 . S
H954 C963 0.930 . S
N955 Gd924 2.661 . S
N955 C959 1.350 . S
N955 C960 1.307 . S
C956 H948 0.930 . S
C956 C957 1.355 . S
C956 C958 1.412 . S
C957 H949 0.930 . S
C957 C956 1.355 . S
C957 C960 1.402 . S
C958 C956 1.412 . S
C958 C959 1.417 . S
C958 C982 1.431 . S
C959 N955 1.350 . S
C959 C958 1.417 . S
C959 C962 1.426 . S
C960 H943 0.930 . S
C960 N955 1.307 . S
C960 C957 1.402 . S
N961 Gd924 2.601 . S
N961 C962 1.359 . S
N961 C965 1.334 . S
C962 C959 1.426 . S
C962 N961 1.359 . S
C962 C966 1.413 . S
C963 H954 0.930 . S
C963 C964 1.359 . S
C963 C965 1.394 . S
C964 C963 1.359 . S
C964 C966 1.391 . S
C964 H967 0.929 . S
C965 H947 0.930 . S
C965 N961 1.334 . S
C965 C963 1.394 . S
C966 C962 1.413 . S
C966 C964 1.391 . S
C966 C981 1.437 . S
H967 C964 0.929 . S
O968 Gd924 2.545 . S
O968 C983 1.258 . S
O969 Gd924 2.606 . S
O969 Gd925 2.362 . S
O969 C980 1.284 . S
O970 Gd925 2.324 . S
O970 C990 1.254 . S
O971 Gd924 2.429 . S
O971 C990 1.268 . S
O972 Gd924 2.545 . S
O972 C980 1.250 . S
O973 Gd924 2.412 . S
O973 C983 1.252 . S
O974 Gd925 2.545 . S
O974 C992 1.258 . S
O975 Gd924 2.362 . S
O975 Gd925 2.606 . S
O975 C991 1.284 . S
O976 Gd924 2.324 . S
O976 C999 1.254 . S
O977 Gd925 2.429 . S
O977 C999 1.268 . S
O978 Gd925 2.545 . S
O978 C991 1.250 . S
O979 Gd925 2.412 . S
O979 C992 1.252 . S
C980 O969 1.284 . S
C980 O972 1.250 . S
C981 H950 0.929 . S
C981 C966 1.437 . S
C981 C982 1.317 . S
C982 H953 0.930 . S
C982 C958 1.431 . S
C982 C981 1.317 . S
C983 Gd924 2.828 . S
C983 O968 1.258 . S
C983 O973 1.252 . S
C983 C984 1.497 . S
C984 C983 1.497 . S
C984 C985 1.395 . S
C984 C986 1.380 . S
C985 C984 1.395 . S
C985 C988 1.398 . S
C985 H1000 0.930 . S
C986 C984 1.380 . S
C986 C987 1.391 . S
C986 H1001 0.930 . S
C987 C986 1.391 . S
C987 C989 1.387 . S
C988 C985 1.398 . S
C988 C989 1.380 . S
C988 H1002 0.930 . S
C989 C987 1.387 . S
C989 C988 1.380 . S
C989 H1003 0.930 . S
C990 O970 1.254 . S
C990 O971 1.268 . S
C991 O975 1.284 . S
C991 O978 1.250 . S
C992 Gd925 2.828 . S
C992 O974 1.258 . S
C992 O979 1.252 . S
C992 C993 1.497 . S
C993 C992 1.497 . S
C993 C994 1.395 . S
C993 C995 1.380 . S
C994 C993 1.395 . S
C994 C997 1.398 . S
C994 H1004 0.930 . S
C995 C993 1.380 . S
C995 C996 1.391 . S
C995 H1005 0.930 . S
C996 C995 1.391 . S
C996 C998 1.387 . S
C997 C994 1.398 . S
C997 C998 1.380 . S
C997 H1006 0.930 . S
C998 C996 1.387 . S
C998 C997 1.380 . S
C998 H1007 0.930 . S
C999 O976 1.254 . S
C999 O977 1.268 . S
H1000 C985 0.930 . S
H1001 C986 0.930 . S
H1002 C988 0.930 . S
H1003 C989 0.930 . S
H1004 C994 0.930 . S
H1005 C995 0.930 . S
H1006 C997 0.930 . S
H1007 C998 0.930 . S
C1008 C1009 1.349 . S
C1008 C1010 1.327 . S
C1008 H1033 0.950 . S
C1009 C1008 1.349 . S
C1009 C1025 1.349 . S
C1010 C1008 1.327 . S
C1010 C1029 1.429 . S
C1010 H1034 0.950 . S
C1011 C1028 1.574 . S
C1011 C1030 1.368 . S
C1011 H1035 0.949 . S
H1012 C1016 0.949 . S
C1013 C1014 1.349 . S
C1013 C1015 1.327 . S
C1013 H1036 0.950 . S
C1014 C1013 1.349 . S
C1014 C1026 1.349 . S
C1015 C1013 1.327 . S
C1015 C1031 1.429 . S
C1015 H1037 0.950 . S
C1016 H1012 0.949 . S
C1016 C1024 1.574 . S
C1016 C1032 1.368 . S
H1017 C1025 0.950 . S
H1018 C1023 0.950 . S
H1019 C1024 0.949 . S
H1020 C1026 0.950 . S
H1021 C1027 0.950 . S
H1022 C1028 0.949 . S
C1023 H1018 0.950 . S
C1023 C1025 1.327 . S
C1023 C1029 1.429 . S
C1024 C1016 1.574 . S
C1024 H1019 0.949 . S
C1024 C1030 1.368 . S
C1025 C1009 1.349 . S
C1025 H1017 0.950 . S
C1025 C1023 1.327 . S
C1026 C1014 1.349 . S
C1026 H1020 0.950 . S
C1026 C1027 1.327 . S
C1027 H1021 0.950 . S
C1027 C1026 1.327 . S
C1027 C1031 1.429 . S
C1028 C1011 1.574 . S
C1028 H1022 0.949 . S
C1028 C1032 1.368 . S
C1029 C1010 1.429 . S
C1029 C1023 1.429 . S
C1029 C1030 1.523 . S
C1030 C1011 1.368 . S
C1030 C1024 1.368 . S
C1030 C1029 1.523 . S
C1031 C1015 1.429 . S
C1031 C1027 1.429 . S
C1031 C1032 1.523 . S
C1032 C1016 1.368 . S
C1032 C1028 1.368 . S
C1032 C1031 1.523 . S
H1033 C1008 0.950 . S
H1034 C1010 0.950 . S
H1035 C1011 0.949 . S
H1036 C1013 0.950 . S
H1037 C1015 0.950 . S
C1038 C1039 1.349 . S
C1038 C1040 1.327 . S
C1038 H1063 0.950 . S
C1039 C1038 1.349 . S
C1039 C1055 1.349 . S
C1040 C1038 1.327 . S
C1040 C1059 1.429 . S
C1040 H1064 0.950 . S
C1041 C1058 1.574 . S
C1041 C1060 1.368 . S
C1041 H1065 0.949 . S
H1042 C1046 0.949 . S
C1043 C1044 1.349 . S
C1043 C1045 1.327 . S
C1043 H1066 0.950 . S
C1044 C1043 1.349 . S
C1044 C1056 1.349 . S
C1045 C1043 1.327 . S
C1045 C1061 1.429 . S
C1045 H1067 0.950 . S
C1046 H1042 0.949 . S
C1046 C1054 1.574 . S
C1046 C1062 1.368 . S
H1047 C1055 0.950 . S
H1048 C1053 0.950 . S
H1049 C1054 0.949 . S
H1050 C1056 0.950 . S
H1051 C1057 0.950 . S
H1052 C1058 0.949 . S
C1053 H1048 0.950 . S
C1053 C1055 1.327 . S
C1053 C1059 1.429 . S
C1054 C1046 1.574 . S
C1054 H1049 0.949 . S
C1054 C1060 1.368 . S
C1055 C1039 1.349 . S
C1055 H1047 0.950 . S
C1055 C1053 1.327 . S
C1056 C1044 1.349 . S
C1056 H1050 0.950 . S
C1056 C1057 1.327 . S
C1057 H1051 0.950 . S
C1057 C1056 1.327 . S
C1057 C1061 1.429 . S
C1058 C1041 1.574 . S
C1058 H1052 0.949 . S
C1058 C1062 1.368 . S
C1059 C1040 1.429 . S
C1059 C1053 1.429 . S
C1059 C1060 1.523 . S
C1060 C1041 1.368 . S
C1060 C1054 1.368 . S
C1060 C1059 1.523 . S
C1061 C1045 1.429 . S
C1061 C1057 1.429 . S
C1061 C1062 1.523 . S
C1062 C1046 1.368 . S
C1062 C1058 1.368 . S
C1062 C1061 1.523 . S
H1063 C1038 0.950 . S
H1064 C1040 0.950 . S
H1065 C1041 0.949 . S
H1066 C1043 0.950 . S
H1067 C1045 0.950 . S
C1068 C1069 1.349 . S
C1068 C1070 1.327 . S
C1068 H1093 0.950 . S
C1069 C1068 1.349 . S
C1069 C1085 1.349 . S
C1070 C1068 1.327 . S
C1070 C1089 1.429 . S
C1070 H1094 0.950 . S
C1071 C1088 1.574 . S
C1071 C1090 1.368 . S
C1071 H1095 0.949 . S
H1072 C1076 0.949 . S
C1073 C1074 1.349 . S
C1073 C1075 1.327 . S
C1073 H1096 0.950 . S
C1074 C1073 1.349 . S
C1074 C1086 1.349 . S
C1075 C1073 1.327 . S
C1075 C1091 1.429 . S
C1075 H1097 0.950 . S
C1076 H1072 0.949 . S
C1076 C1084 1.574 . S
C1076 C1092 1.368 . S
H1077 C1085 0.950 . S
H1078 C1083 0.950 . S
H1079 C1084 0.949 . S
H1080 C1086 0.950 . S
H1081 C1087 0.950 . S
H1082 C1088 0.949 . S
C1083 H1078 0.950 . S
C1083 C1085 1.327 . S
C1083 C1089 1.429 . S
C1084 C1076 1.574 . S
C1084 H1079 0.949 . S
C1084 C1090 1.368 . S
C1085 C1069 1.349 . S
C1085 H1077 0.950 . S
C1085 C1083 1.327 . S
C1086 C1074 1.349 . S
C1086 H1080 0.950 . S
C1086 C1087 1.327 . S
C1087 H1081 0.950 . S
C1087 C1086 1.327 . S
C1087 C1091 1.429 . S
C1088 C1071 1.574 . S
C1088 H1082 0.949 . S
C1088 C1092 1.368 . S
C1089 C1070 1.429 . S
C1089 C1083 1.429 . S
C1089 C1090 1.523 . S
C1090 C1071 1.368 . S
C1090 C1084 1.368 . S
C1090 C1089 1.523 . S
C1091 C1075 1.429 . S
C1091 C1087 1.429 . S
C1091 C1092 1.523 . S
C1092 C1076 1.368 . S
C1092 C1088 1.368 . S
C1092 C1091 1.523 . S
H1093 C1068 0.950 . S
H1094 C1070 0.950 . S
H1095 C1071 0.949 . S
H1096 C1073 0.950 . S
H1097 C1075 0.950 . S
C1098 C1099 1.349 . S
C1098 C1100 1.327 . S
C1098 H1123 0.950 . S
C1099 C1098 1.349 . S
C1099 C1115 1.349 . S
C1100 C1098 1.327 . S
C1100 C1119 1.429 . S
C1100 H1124 0.950 . S
C1101 C1118 1.574 . S
C1101 C1120 1.368 . S
C1101 H1125 0.949 . S
H1102 C1106 0.949 . S
C1103 C1104 1.349 . S
C1103 C1105 1.327 . S
C1103 H1126 0.950 . S
C1104 C1103 1.349 . S
C1104 C1116 1.349 . S
C1105 C1103 1.327 . S
C1105 C1121 1.429 . S
C1105 H1127 0.950 . S
C1106 H1102 0.949 . S
C1106 C1114 1.574 . S
C1106 C1122 1.368 . S
H1107 C1115 0.950 . S
H1108 C1113 0.950 . S
H1109 C1114 0.949 . S
H1110 C1116 0.950 . S
H1111 C1117 0.950 . S
H1112 C1118 0.949 . S
C1113 H1108 0.950 . S
C1113 C1115 1.327 . S
C1113 C1119 1.429 . S
C1114 C1106 1.574 . S
C1114 H1109 0.949 . S
C1114 C1120 1.368 . S
C1115 C1099 1.349 . S
C1115 H1107 0.950 . S
C1115 C1113 1.327 . S
C1116 C1104 1.349 . S
C1116 H1110 0.950 . S
C1116 C1117 1.327 . S
C1117 H1111 0.950 . S
C1117 C1116 1.327 . S
C1117 C1121 1.429 . S
C1118 C1101 1.574 . S
C1118 H1112 0.949 . S
C1118 C1122 1.368 . S
C1119 C1100 1.429 . S
C1119 C1113 1.429 . S
C1119 C1120 1.523 . S
C1120 C1101 1.368 . S
C1120 C1114 1.368 . S
C1120 C1119 1.523 . S
C1121 C1105 1.429 . S
C1121 C1117 1.429 . S
C1121 C1122 1.523 . S
C1122 C1106 1.368 . S
C1122 C1118 1.368 . S
C1122 C1121 1.523 . S
H1123 C1098 0.950 . S
H1124 C1100 0.950 . S
H1125 C1101 0.949 . S
H1126 C1103 0.950 . S
H1127 C1105 0.950 . S
C1128 C1129 1.349 . S
C1128 C1130 1.327 . S
C1128 H1153 0.950 . S
C1129 C1128 1.349 . S
C1129 C1145 1.349 . S
C1130 C1128 1.327 . S
C1130 C1149 1.429 . S
C1130 H1154 0.950 . S
C1131 C1148 1.574 . S
C1131 C1150 1.368 . S
C1131 H1155 0.949 . S
H1132 C1136 0.949 . S
C1133 C1134 1.349 . S
C1133 C1135 1.327 . S
C1133 H1156 0.950 . S
C1134 C1133 1.349 . S
C1134 C1146 1.349 . S
C1135 C1133 1.327 . S
C1135 C1151 1.429 . S
C1135 H1157 0.950 . S
C1136 H1132 0.949 . S
C1136 C1144 1.574 . S
C1136 C1152 1.368 . S
H1137 C1145 0.950 . S
H1138 C1143 0.950 . S
H1139 C1144 0.949 . S
H1140 C1146 0.950 . S
H1141 C1147 0.950 . S
H1142 C1148 0.949 . S
C1143 H1138 0.950 . S
C1143 C1145 1.327 . S
C1143 C1149 1.429 . S
C1144 C1136 1.574 . S
C1144 H1139 0.949 . S
C1144 C1150 1.368 . S
C1145 C1129 1.349 . S
C1145 H1137 0.950 . S
C1145 C1143 1.327 . S
C1146 C1134 1.349 . S
C1146 H1140 0.950 . S
C1146 C1147 1.327 . S
C1147 H1141 0.950 . S
C1147 C1146 1.327 . S
C1147 C1151 1.429 . S
C1148 C1131 1.574 . S
C1148 H1142 0.949 . S
C1148 C1152 1.368 . S
C1149 C1130 1.429 . S
C1149 C1143 1.429 . S
C1149 C1150 1.523 . S
C1150 C1131 1.368 . S
C1150 C1144 1.368 . S
C1150 C1149 1.523 . S
C1151 C1135 1.429 . S
C1151 C1147 1.429 . S
C1151 C1152 1.523 . S
C1152 C1136 1.368 . S
C1152 C1148 1.368 . S
C1152 C1151 1.523 . S
H1153 C1128 0.950 . S
H1154 C1130 0.950 . S
H1155 C1131 0.949 . S
H1156 C1133 0.950 . S
H1157 C1135 0.950 . S
C1158 C1159 1.349 . S
C1158 C1160 1.327 . S
C1158 H1183 0.950 . S
C1159 C1158 1.349 . S
C1159 C1175 1.349 . S
C1160 C1158 1.327 . S
C1160 C1179 1.429 . S
C1160 H1184 0.950 . S
C1161 C1178 1.574 . S
C1161 C1180 1.368 . S
C1161 H1185 0.949 . S
H1162 C1166 0.949 . S
C1163 C1164 1.349 . S
C1163 C1165 1.327 . S
C1163 H1186 0.950 . S
C1164 C1163 1.349 . S
C1164 C1176 1.349 . S
C1165 C1163 1.327 . S
C1165 C1181 1.429 . S
C1165 H1187 0.950 . S
C1166 H1162 0.949 . S
C1166 C1174 1.574 . S
C1166 C1182 1.368 . S
H1167 C1175 0.950 . S
H1168 C1173 0.950 . S
H1169 C1174 0.949 . S
H1170 C1176 0.950 . S
H1171 C1177 0.950 . S
H1172 C1178 0.949 . S
C1173 H1168 0.950 . S
C1173 C1175 1.327 . S
C1173 C1179 1.429 . S
C1174 C1166 1.574 . S
C1174 H1169 0.949 . S
C1174 C1180 1.368 . S
C1175 C1159 1.349 . S
C1175 H1167 0.950 . S
C1175 C1173 1.327 . S
C1176 C1164 1.349 . S
C1176 H1170 0.950 . S
C1176 C1177 1.327 . S
C1177 H1171 0.950 . S
C1177 C1176 1.327 . S
C1177 C1181 1.429 . S
C1178 C1161 1.574 . S
C1178 H1172 0.949 . S
C1178 C1182 1.368 . S
C1179 C1160 1.429 . S
C1179 C1173 1.429 . S
C1179 C1180 1.523 . S
C1180 C1161 1.368 . S
C1180 C1174 1.368 . S
C1180 C1179 1.523 . S
C1181 C1165 1.429 . S
C1181 C1177 1.429 . S
C1181 C1182 1.523 . S
C1182 C1166 1.368 . S
C1182 C1178 1.368 . S
C1182 C1181 1.523 . S
H1183 C1158 0.950 . S
H1184 C1160 0.950 . S
H1185 C1161 0.949 . S
H1186 C1163 0.950 . S
H1187 C1165 0.950 . S
C1188 C1189 1.349 . S
C1188 C1190 1.327 . S
C1188 H1213 0.950 . S
C1189 C1188 1.349 . S
C1189 C1205 1.349 . S
C1190 C1188 1.327 . S
C1190 C1209 1.429 . S
C1190 H1214 0.950 . S
C1191 C1208 1.574 . S
C1191 C1210 1.368 . S
C1191 H1215 0.949 . S
H1192 C1196 0.949 . S
C1193 C1194 1.349 . S
C1193 C1195 1.327 . S
C1193 H1216 0.950 . S
C1194 C1193 1.349 . S
C1194 C1206 1.349 . S
C1195 C1193 1.327 . S
C1195 C1211 1.429 . S
C1195 H1217 0.950 . S
C1196 H1192 0.949 . S
C1196 C1204 1.574 . S
C1196 C1212 1.368 . S
H1197 C1205 0.950 . S
H1198 C1203 0.950 . S
H1199 C1204 0.949 . S
H1200 C1206 0.950 . S
H1201 C1207 0.950 . S
H1202 C1208 0.949 . S
C1203 H1198 0.950 . S
C1203 C1205 1.327 . S
C1203 C1209 1.429 . S
C1204 C1196 1.574 . S
C1204 H1199 0.949 . S
C1204 C1210 1.368 . S
C1205 C1189 1.349 . S
C1205 H1197 0.950 . S
C1205 C1203 1.327 . S
C1206 C1194 1.349 . S
C1206 H1200 0.950 . S
C1206 C1207 1.327 . S
C1207 H1201 0.950 . S
C1207 C1206 1.327 . S
C1207 C1211 1.429 . S
C1208 C1191 1.574 . S
C1208 H1202 0.949 . S
C1208 C1212 1.368 . S
C1209 C1190 1.429 . S
C1209 C1203 1.429 . S
C1209 C1210 1.523 . S
C1210 C1191 1.368 . S
C1210 C1204 1.368 . S
C1210 C1209 1.523 . S
C1211 C1195 1.429 . S
C1211 C1207 1.429 . S
C1211 C1212 1.523 . S
C1212 C1196 1.368 . S
C1212 C1208 1.368 . S
C1212 C1211 1.523 . S
H1213 C1188 0.950 . S
H1214 C1190 0.950 . S
H1215 C1191 0.949 . S
H1216 C1193 0.950 . S
H1217 C1195 0.950 . S
C1218 C1219 1.349 . S
C1218 C1220 1.327 . S
C1218 H1243 0.950 . S
C1219 C1218 1.349 . S
C1219 C1235 1.349 . S
C1220 C1218 1.327 . S
C1220 C1239 1.429 . S
C1220 H1244 0.950 . S
C1221 C1238 1.574 . S
C1221 C1240 1.368 . S
C1221 H1245 0.949 . S
H1222 C1226 0.949 . S
C1223 C1224 1.349 . S
C1223 C1225 1.327 . S
C1223 H1246 0.950 . S
C1224 C1223 1.349 . S
C1224 C1236 1.349 . S
C1225 C1223 1.327 . S
C1225 C1241 1.429 . S
C1225 H1247 0.950 . S
C1226 H1222 0.949 . S
C1226 C1234 1.574 . S
C1226 C1242 1.368 . S
H1227 C1235 0.950 . S
H1228 C1233 0.950 . S
H1229 C1234 0.949 . S
H1230 C1236 0.950 . S
H1231 C1237 0.950 . S
H1232 C1238 0.949 . S
C1233 H1228 0.950 . S
C1233 C1235 1.327 . S
C1233 C1239 1.429 . S
C1234 C1226 1.574 . S
C1234 H1229 0.949 . S
C1234 C1240 1.368 . S
C1235 C1219 1.349 . S
C1235 H1227 0.950 . S
C1235 C1233 1.327 . S
C1236 C1224 1.349 . S
C1236 H1230 0.950 . S
C1236 C1237 1.327 . S
C1237 H1231 0.950 . S
C1237 C1236 1.327 . S
C1237 C1241 1.429 . S
C1238 C1221 1.574 . S
C1238 H1232 0.949 . S
C1238 C1242 1.368 . S
C1239 C1220 1.429 . S
C1239 C1233 1.429 . S
C1239 C1240 1.523 . S
C1240 C1221 1.368 . S
C1240 C1234 1.368 . S
C1240 C1239 1.523 . S
C1241 C1225 1.429 . S
C1241 C1237 1.429 . S
C1241 C1242 1.523 . S
C1242 C1226 1.368 . S
C1242 C1238 1.368 . S
C1242 C1241 1.523 . S
H1243 C1218 0.950 . S
H1244 C1220 0.950 . S
H1245 C1221 0.949 . S
H1246 C1223 0.950 . S
H1247 C1225 0.950 . S
C1248 C1249 1.349 . S
C1248 C1250 1.327 . S
C1248 H1273 0.950 . S
C1249 C1248 1.349 . S
C1249 C1265 1.349 . S
C1250 C1248 1.327 . S
C1250 C1269 1.429 . S
C1250 H1274 0.950 . S
C1251 C1268 1.574 . S
C1251 C1270 1.368 . S
C1251 H1275 0.949 . S
H1252 C1256 0.949 . S
C1253 C1254 1.349 . S
C1253 C1255 1.327 . S
C1253 H1276 0.950 . S
C1254 C1253 1.349 . S
C1254 C1266 1.349 . S
C1255 C1253 1.327 . S
C1255 C1271 1.429 . S
C1255 H1277 0.950 . S
C1256 H1252 0.949 . S
C1256 C1264 1.574 . S
C1256 C1272 1.368 . S
H1257 C1265 0.950 . S
H1258 C1263 0.950 . S
H1259 C1264 0.949 . S
H1260 C1266 0.950 . S
H1261 C1267 0.950 . S
H1262 C1268 0.949 . S
C1263 H1258 0.950 . S
C1263 C1265 1.327 . S
C1263 C1269 1.429 . S
C1264 C1256 1.574 . S
C1264 H1259 0.949 . S
C1264 C1270 1.368 . S
C1265 C1249 1.349 . S
C1265 H1257 0.950 . S
C1265 C1263 1.327 . S
C1266 C1254 1.349 . S
C1266 H1260 0.950 . S
C1266 C1267 1.327 . S
C1267 H1261 0.950 . S
C1267 C1266 1.327 . S
C1267 C1271 1.429 . S
C1268 C1251 1.574 . S
C1268 H1262 0.949 . S
C1268 C1272 1.368 . S
C1269 C1250 1.429 . S
C1269 C1263 1.429 . S
C1269 C1270 1.523 . S
C1270 C1251 1.368 . S
C1270 C1264 1.368 . S
C1270 C1269 1.523 . S
C1271 C1255 1.429 . S
C1271 C1267 1.429 . S
C1271 C1272 1.523 . S
C1272 C1256 1.368 . S
C1272 C1268 1.368 . S
C1272 C1271 1.523 . S
H1273 C1248 0.950 . S
H1274 C1250 0.950 . S
H1275 C1251 0.949 . S
H1276 C1253 0.950 . S
H1277 C1255 0.950 . S
C1278 C1279 1.349 . S
C1278 C1280 1.327 . S
C1278 H1303 0.950 . S
C1279 C1278 1.349 . S
C1279 C1295 1.349 . S
C1280 C1278 1.327 . S
C1280 C1299 1.429 . S
C1280 H1304 0.950 . S
C1281 C1298 1.574 . S
C1281 C1300 1.368 . S
C1281 H1305 0.949 . S
H1282 C1286 0.949 . S
C1283 C1284 1.349 . S
C1283 C1285 1.327 . S
C1283 H1306 0.950 . S
C1284 C1283 1.349 . S
C1284 C1296 1.349 . S
C1285 C1283 1.327 . S
C1285 C1301 1.429 . S
C1285 H1307 0.950 . S
C1286 H1282 0.949 . S
C1286 C1294 1.574 . S
C1286 C1302 1.368 . S
H1287 C1295 0.950 . S
H1288 C1293 0.950 . S
H1289 C1294 0.949 . S
H1290 C1296 0.950 . S
H1291 C1297 0.950 . S
H1292 C1298 0.949 . S
C1293 H1288 0.950 . S
C1293 C1295 1.327 . S
C1293 C1299 1.429 . S
C1294 C1286 1.574 . S
C1294 H1289 0.949 . S
C1294 C1300 1.368 . S
C1295 C1279 1.349 . S
C1295 H1287 0.950 . S
C1295 C1293 1.327 . S
C1296 C1284 1.349 . S
C1296 H1290 0.950 . S
C1296 C1297 1.327 . S
C1297 H1291 0.950 . S
C1297 C1296 1.327 . S
C1297 C1301 1.429 . S
C1298 C1281 1.574 . S
C1298 H1292 0.949 . S
C1298 C1302 1.368 . S
C1299 C1280 1.429 . S
C1299 C1293 1.429 . S
C1299 C1300 1.523 . S
C1300 C1281 1.368 . S
C1300 C1294 1.368 . S
C1300 C1299 1.523 . S
C1301 C1285 1.429 . S
C1301 C1297 1.429 . S
C1301 C1302 1.523 . S
C1302 C1286 1.368 . S
C1302 C1298 1.368 . S
C1302 C1301 1.523 . S
H1303 C1278 0.950 . S
H1304 C1280 0.950 . S
H1305 C1281 0.949 . S
H1306 C1283 0.950 . S
H1307 C1285 0.950 . S
C1308 C1309 1.349 . S
C1308 C1310 1.327 . S
C1308 H1333 0.950 . S
C1309 C1308 1.349 . S
C1309 C1325 1.349 . S
C1310 C1308 1.327 . S
C1310 C1329 1.429 . S
C1310 H1334 0.950 . S
C1311 C1328 1.574 . S
C1311 C1330 1.368 . S
C1311 H1335 0.949 . S
H1312 C1316 0.949 . S
C1313 C1314 1.349 . S
C1313 C1315 1.327 . S
C1313 H1336 0.950 . S
C1314 C1313 1.349 . S
C1314 C1326 1.349 . S
C1315 C1313 1.327 . S
C1315 C1331 1.429 . S
C1315 H1337 0.950 . S
C1316 H1312 0.949 . S
C1316 C1324 1.574 . S
C1316 C1332 1.368 . S
H1317 C1325 0.950 . S
H1318 C1323 0.950 . S
H1319 C1324 0.949 . S
H1320 C1326 0.950 . S
H1321 C1327 0.950 . S
H1322 C1328 0.949 . S
C1323 H1318 0.950 . S
C1323 C1325 1.327 . S
C1323 C1329 1.429 . S
C1324 C1316 1.574 . S
C1324 H1319 0.949 . S
C1324 C1330 1.368 . S
C1325 C1309 1.349 . S
C1325 H1317 0.950 . S
C1325 C1323 1.327 . S
C1326 C1314 1.349 . S
C1326 H1320 0.950 . S
C1326 C1327 1.327 . S
C1327 H1321 0.950 . S
C1327 C1326 1.327 . S
C1327 C1331 1.429 . S
C1328 C1311 1.574 . S
C1328 H1322 0.949 . S
C1328 C1332 1.368 . S
C1329 C1310 1.429 . S
C1329 C1323 1.429 . S
C1329 C1330 1.523 . S
C1330 C1311 1.368 . S
C1330 C1324 1.368 . S
C1330 C1329 1.523 . S
C1331 C1315 1.429 . S
C1331 C1327 1.429 . S
C1331 C1332 1.523 . S
C1332 C1316 1.368 . S
C1332 C1328 1.368 . S
C1332 C1331 1.523 . S
H1333 C1308 0.950 . S
H1334 C1310 0.950 . S
H1335 C1311 0.949 . S
H1336 C1313 0.950 . S
H1337 C1315 0.950 . S
C1338 C1339 1.349 . S
C1338 C1340 1.327 . S
C1338 H1363 0.950 . S
C1339 C1338 1.349 . S
C1339 C1355 1.349 . S
C1340 C1338 1.327 . S
C1340 C1359 1.429 . S
C1340 H1364 0.950 . S
C1341 C1358 1.574 . S
C1341 C1360 1.368 . S
C1341 H1365 0.949 . S
H1342 C1346 0.949 . S
C1343 C1344 1.349 . S
C1343 C1345 1.327 . S
C1343 H1366 0.950 . S
C1344 C1343 1.349 . S
C1344 C1356 1.349 . S
C1345 C1343 1.327 . S
C1345 C1361 1.429 . S
C1345 H1367 0.950 . S
C1346 H1342 0.949 . S
C1346 C1354 1.574 . S
C1346 C1362 1.368 . S
H1347 C1355 0.950 . S
H1348 C1353 0.950 . S
H1349 C1354 0.949 . S
H1350 C1356 0.950 . S
H1351 C1357 0.950 . S
H1352 C1358 0.949 . S
C1353 H1348 0.950 . S
C1353 C1355 1.327 . S
C1353 C1359 1.429 . S
C1354 C1346 1.574 . S
C1354 H1349 0.949 . S
C1354 C1360 1.368 . S
C1355 C1339 1.349 . S
C1355 H1347 0.950 . S
C1355 C1353 1.327 . S
C1356 C1344 1.349 . S
C1356 H1350 0.950 . S
C1356 C1357 1.327 . S
C1357 H1351 0.950 . S
C1357 C1356 1.327 . S
C1357 C1361 1.429 . S
C1358 C1341 1.574 . S
C1358 H1352 0.949 . S
C1358 C1362 1.368 . S
C1359 C1340 1.429 . S
C1359 C1353 1.429 . S
C1359 C1360 1.523 . S
C1360 C1341 1.368 . S
C1360 C1354 1.368 . S
C1360 C1359 1.523 . S
C1361 C1345 1.429 . S
C1361 C1357 1.429 . S
C1361 C1362 1.523 . S
C1362 C1346 1.368 . S
C1362 C1358 1.368 . S
C1362 C1361 1.523 . S
H1363 C1338 0.950 . S
H1364 C1340 0.950 . S
H1365 C1341 0.949 . S
H1366 C1343 0.950 . S
H1367 C1345 0.950 . S
C1368 C1369 1.349 . S
C1368 C1370 1.327 . S
C1368 H1393 0.950 . S
C1369 C1368 1.349 . S
C1369 C1385 1.349 . S
C1370 C1368 1.327 . S
C1370 C1389 1.429 . S
C1370 H1394 0.950 . S
C1371 C1388 1.574 . S
C1371 C1390 1.368 . S
C1371 H1395 0.949 . S
H1372 C1376 0.949 . S
C1373 C1374 1.349 . S
C1373 C1375 1.327 . S
C1373 H1396 0.950 . S
C1374 C1373 1.349 . S
C1374 C1386 1.349 . S
C1375 C1373 1.327 . S
C1375 C1391 1.429 . S
C1375 H1397 0.950 . S
C1376 H1372 0.949 . S
C1376 C1384 1.574 . S
C1376 C1392 1.368 . S
H1377 C1385 0.950 . S
H1378 C1383 0.950 . S
H1379 C1384 0.949 . S
H1380 C1386 0.950 . S
H1381 C1387 0.950 . S
H1382 C1388 0.949 . S
C1383 H1378 0.950 . S
C1383 C1385 1.327 . S
C1383 C1389 1.429 . S
C1384 C1376 1.574 . S
C1384 H1379 0.949 . S
C1384 C1390 1.368 . S
C1385 C1369 1.349 . S
C1385 H1377 0.950 . S
C1385 C1383 1.327 . S
C1386 C1374 1.349 . S
C1386 H1380 0.950 . S
C1386 C1387 1.327 . S
C1387 H1381 0.950 . S
C1387 C1386 1.327 . S
C1387 C1391 1.429 . S
C1388 C1371 1.574 . S
C1388 H1382 0.949 . S
C1388 C1392 1.368 . S
C1389 C1370 1.429 . S
C1389 C1383 1.429 . S
C1389 C1390 1.523 . S
C1390 C1371 1.368 . S
C1390 C1384 1.368 . S
C1390 C1389 1.523 . S
C1391 C1375 1.429 . S
C1391 C1387 1.429 . S
C1391 C1392 1.523 . S
C1392 C1376 1.368 . S
C1392 C1388 1.368 . S
C1392 C1391 1.523 . S
H1393 C1368 0.950 . S
H1394 C1370 0.950 . S
H1395 C1371 0.949 . S
H1396 C1373 0.950 . S
H1397 C1375 0.950 . S
C1398 C1399 1.349 . S
C1398 C1400 1.327 . S
C1398 H1423 0.950 . S
C1399 C1398 1.349 . S
C1399 C1415 1.349 . S
C1400 C1398 1.327 . S
C1400 C1419 1.429 . S
C1400 H1424 0.950 . S
C1401 C1418 1.574 . S
C1401 C1420 1.368 . S
C1401 H1425 0.949 . S
H1402 C1406 0.949 . S
C1403 C1404 1.349 . S
C1403 C1405 1.327 . S
C1403 H1426 0.950 . S
C1404 C1403 1.349 . S
C1404 C1416 1.349 . S
C1405 C1403 1.327 . S
C1405 C1421 1.429 . S
C1405 H1427 0.950 . S
C1406 H1402 0.949 . S
C1406 C1414 1.574 . S
C1406 C1422 1.368 . S
H1407 C1415 0.950 . S
H1408 C1413 0.950 . S
H1409 C1414 0.949 . S
H1410 C1416 0.950 . S
H1411 C1417 0.950 . S
H1412 C1418 0.949 . S
C1413 H1408 0.950 . S
C1413 C1415 1.327 . S
C1413 C1419 1.429 . S
C1414 C1406 1.574 . S
C1414 H1409 0.949 . S
C1414 C1420 1.368 . S
C1415 C1399 1.349 . S
C1415 H1407 0.950 . S
C1415 C1413 1.327 . S
C1416 C1404 1.349 . S
C1416 H1410 0.950 . S
C1416 C1417 1.327 . S
C1417 H1411 0.950 . S
C1417 C1416 1.327 . S
C1417 C1421 1.429 . S
C1418 C1401 1.574 . S
C1418 H1412 0.949 . S
C1418 C1422 1.368 . S
C1419 C1400 1.429 . S
C1419 C1413 1.429 . S
C1419 C1420 1.523 . S
C1420 C1401 1.368 . S
C1420 C1414 1.368 . S
C1420 C1419 1.523 . S
C1421 C1405 1.429 . S
C1421 C1417 1.429 . S
C1421 C1422 1.523 . S
C1422 C1406 1.368 . S
C1422 C1418 1.368 . S
C1422 C1421 1.523 . S
H1423 C1398 0.950 . S
H1424 C1400 0.950 . S
H1425 C1401 0.949 . S
H1426 C1403 0.950 . S
H1427 C1405 0.950 . S
C1428 C1429 1.349 . S
C1428 C1430 1.327 . S
C1428 H1453 0.950 . S
C1429 C1428 1.349 . S
C1429 C1445 1.349 . S
C1430 C1428 1.327 . S
C1430 C1449 1.429 . S
C1430 H1454 0.950 . S
C1431 C1448 1.574 . S
C1431 C1450 1.368 . S
C1431 H1455 0.949 . S
H1432 C1436 0.949 . S
C1433 C1434 1.349 . S
C1433 C1435 1.327 . S
C1433 H1456 0.950 . S
C1434 C1433 1.349 . S
C1434 C1446 1.349 . S
C1435 C1433 1.327 . S
C1435 C1451 1.429 . S
C1435 H1457 0.950 . S
C1436 H1432 0.949 . S
C1436 C1444 1.574 . S
C1436 C1452 1.368 . S
H1437 C1445 0.950 . S
H1438 C1443 0.950 . S
H1439 C1444 0.949 . S
H1440 C1446 0.950 . S
H1441 C1447 0.950 . S
H1442 C1448 0.949 . S
C1443 H1438 0.950 . S
C1443 C1445 1.327 . S
C1443 C1449 1.429 . S
C1444 C1436 1.574 . S
C1444 H1439 0.949 . S
C1444 C1450 1.368 . S
C1445 C1429 1.349 . S
C1445 H1437 0.950 . S
C1445 C1443 1.327 . S
C1446 C1434 1.349 . S
C1446 H1440 0.950 . S
C1446 C1447 1.327 . S
C1447 H1441 0.950 . S
C1447 C1446 1.327 . S
C1447 C1451 1.429 . S
C1448 C1431 1.574 . S
C1448 H1442 0.949 . S
C1448 C1452 1.368 . S
C1449 C1430 1.429 . S
C1449 C1443 1.429 . S
C1449 C1450 1.523 . S
C1450 C1431 1.368 . S
C1450 C1444 1.368 . S
C1450 C1449 1.523 . S
C1451 C1435 1.429 . S
C1451 C1447 1.429 . S
C1451 C1452 1.523 . S
C1452 C1436 1.368 . S
C1452 C1448 1.368 . S
C1452 C1451 1.523 . S
H1453 C1428 0.950 . S
H1454 C1430 0.950 . S
H1455 C1431 0.949 . S
H1456 C1433 0.950 . S
H1457 C1435 0.950 . S
C1458 C1459 1.349 . S
C1458 C1460 1.327 . S
C1458 H1483 0.950 . S
C1459 C1458 1.349 . S
C1459 C1475 1.349 . S
C1460 C1458 1.327 . S
C1460 C1479 1.429 . S
C1460 H1484 0.950 . S
C1461 C1478 1.574 . S
C1461 C1480 1.368 . S
C1461 H1485 0.949 . S
H1462 C1466 0.949 . S
C1463 C1464 1.349 . S
C1463 C1465 1.327 . S
C1463 H1486 0.950 . S
C1464 C1463 1.349 . S
C1464 C1476 1.349 . S
C1465 C1463 1.327 . S
C1465 C1481 1.429 . S
C1465 H1487 0.950 . S
C1466 H1462 0.949 . S
C1466 C1474 1.574 . S
C1466 C1482 1.368 . S
H1467 C1475 0.950 . S
H1468 C1473 0.950 . S
H1469 C1474 0.949 . S
H1470 C1476 0.950 . S
H1471 C1477 0.950 . S
H1472 C1478 0.949 . S
C1473 H1468 0.950 . S
C1473 C1475 1.327 . S
C1473 C1479 1.429 . S
C1474 C1466 1.574 . S
C1474 H1469 0.949 . S
C1474 C1480 1.368 . S
C1475 C1459 1.349 . S
C1475 H1467 0.950 . S
C1475 C1473 1.327 . S
C1476 C1464 1.349 . S
C1476 H1470 0.950 . S
C1476 C1477 1.327 . S
C1477 H1471 0.950 . S
C1477 C1476 1.327 . S
C1477 C1481 1.429 . S
C1478 C1461 1.574 . S
C1478 H1472 0.949 . S
C1478 C1482 1.368 . S
C1479 C1460 1.429 . S
C1479 C1473 1.429 . S
C1479 C1480 1.523 . S
C1480 C1461 1.368 . S
C1480 C1474 1.368 . S
C1480 C1479 1.523 . S
C1481 C1465 1.429 . S
C1481 C1477 1.429 . S
C1481 C1482 1.523 . S
C1482 C1466 1.368 . S
C1482 C1478 1.368 . S
C1482 C1481 1.523 . S
H1483 C1458 0.950 . S
H1484 C1460 0.950 . S
H1485 C1461 0.949 . S
H1486 C1463 0.950 . S
H1487 C1465 0.950 . S
C1488 C1489 1.349 . S
C1488 C1490 1.327 . S
C1488 H1513 0.950 . S
C1489 C1488 1.349 . S
C1489 C1505 1.349 . S
C1490 C1488 1.327 . S
C1490 C1509 1.429 . S
C1490 H1514 0.950 . S
C1491 C1508 1.574 . S
C1491 C1510 1.330 1_554 S
C1491 H1515 0.949 . S
H1492 C1496 0.949 . S
C1493 C1494 1.349 . S
C1493 C1495 1.327 . S
C1493 H1516 0.950 . S
C1494 C1493 1.349 . S
C1494 C1506 1.349 . S
C1495 C1493 1.327 . S
C1495 C1511 1.429 . S
C1495 H1517 0.950 . S
C1496 H1492 0.949 . S
C1496 C1504 1.574 . S
C1496 C1512 1.368 1_556 S
H1497 C1505 0.935 1_554 S
H1498 C1503 0.965 . S
H1499 C1504 0.949 . S
H1500 C1506 0.950 . S
H1501 C1507 0.950 1_556 S
H1502 C1508 0.949 . S
C1503 H1498 0.965 . S
C1503 C1505 1.321 1_554 S
C1503 C1509 1.420 1_554 S
C1504 C1496 1.574 . S
C1504 H1499 0.949 . S
C1504 C1510 1.399 . S
C1505 C1489 1.349 . S
C1505 H1497 0.935 1_556 S
C1505 C1503 1.321 1_556 S
C1506 C1494 1.349 . S
C1506 H1500 0.950 . S
C1506 C1507 1.327 . S
C1507 H1501 0.950 1_554 S
C1507 C1506 1.327 . S
C1507 C1511 1.429 . S
C1508 C1491 1.574 . S
C1508 H1502 0.949 . S
C1508 C1512 1.368 . S
C1509 C1490 1.429 . S
C1509 C1503 1.420 1_556 S
C1509 C1510 1.540 . S
C1510 C1491 1.330 1_556 S
C1510 C1504 1.399 . S
C1510 C1509 1.540 . S
C1511 C1495 1.429 . S
C1511 C1507 1.429 . S
C1511 C1512 1.523 . S
C1512 C1496 1.368 1_554 S
C1512 C1508 1.368 . S
C1512 C1511 1.523 . S
H1513 C1488 0.950 . S
H1514 C1490 0.950 . S
H1515 C1491 0.949 . S
H1516 C1493 0.950 . S
H1517 C1495 0.950 . S
C1518 C1519 1.349 . S
C1518 C1520 1.327 . S
C1518 H1543 0.950 . S
C1519 C1518 1.349 . S
C1519 C1535 1.349 . S
C1520 C1518 1.327 . S
C1520 C1539 1.429 . S
C1520 H1544 0.950 . S
C1521 C1538 1.574 . S
C1521 C1540 1.368 . S
C1521 H1545 0.949 . S
H1522 C1526 0.949 . S
C1523 C1524 1.349 . S
C1523 C1525 1.327 . S
C1523 H1546 0.950 . S
C1524 C1523 1.349 . S
C1524 C1536 1.349 . S
C1525 C1523 1.327 . S
C1525 C1541 1.429 . S
C1525 H1547 0.950 . S
C1526 H1522 0.949 . S
C1526 C1534 1.574 . S
C1526 C1542 1.368 . S
H1527 C1535 0.950 . S
H1528 C1533 0.950 . S
H1529 C1534 0.949 . S
H1530 C1536 0.950 . S
H1531 C1537 0.950 . S
H1532 C1538 0.949 . S
C1533 H1528 0.950 . S
C1533 C1535 1.327 . S
C1533 C1539 1.429 . S
C1534 C1526 1.574 . S
C1534 H1529 0.949 . S
C1534 C1540 1.368 . S
C1535 C1519 1.349 . S
C1535 H1527 0.950 . S
C1535 C1533 1.327 . S
C1536 C1524 1.349 . S
C1536 H1530 0.950 . S
C1536 C1537 1.327 . S
C1537 H1531 0.950 . S
C1537 C1536 1.327 . S
C1537 C1541 1.429 . S
C1538 C1521 1.574 . S
C1538 H1532 0.949 . S
C1538 C1542 1.368 . S
C1539 C1520 1.429 . S
C1539 C1533 1.429 . S
C1539 C1540 1.523 . S
C1540 C1521 1.368 . S
C1540 C1534 1.368 . S
C1540 C1539 1.523 . S
C1541 C1525 1.429 . S
C1541 C1537 1.429 . S
C1541 C1542 1.523 . S
C1542 C1526 1.368 . S
C1542 C1538 1.368 . S
C1542 C1541 1.523 . S
H1543 C1518 0.950 . S
H1544 C1520 0.950 . S
H1545 C1521 0.949 . S
H1546 C1523 0.950 . S
H1547 C1525 0.950 . S
C1548 C1549 1.349 . S
C1548 C1550 1.327 . S
C1548 H1573 0.950 . S
C1549 C1548 1.349 . S
C1549 C1565 1.349 . S
C1550 C1548 1.327 . S
C1550 C1569 1.429 . S
C1550 H1574 0.950 . S
C1551 C1568 1.574 . S
C1551 C1570 1.368 . S
C1551 H1575 0.949 . S
H1552 C1556 0.949 . S
C1553 C1554 1.349 . S
C1553 C1555 1.327 . S
C1553 H1576 0.950 . S
C1554 C1553 1.349 . S
C1554 C1566 1.349 . S
C1555 C1553 1.327 . S
C1555 C1571 1.429 . S
C1555 H1577 0.950 . S
C1556 H1552 0.949 . S
C1556 C1564 1.574 . S
C1556 C1572 1.368 . S
H1557 C1565 0.950 . S
H1558 C1563 0.950 . S
H1559 C1564 0.949 . S
H1560 C1566 0.950 . S
H1561 C1567 0.950 . S
H1562 C1568 0.949 . S
C1563 H1558 0.950 . S
C1563 C1565 1.327 . S
C1563 C1569 1.429 . S
C1564 C1556 1.574 . S
C1564 H1559 0.949 . S
C1564 C1570 1.368 . S
C1565 C1549 1.349 . S
C1565 H1557 0.950 . S
C1565 C1563 1.327 . S
C1566 C1554 1.349 . S
C1566 H1560 0.950 . S
C1566 C1567 1.327 . S
C1567 H1561 0.950 . S
C1567 C1566 1.327 . S
C1567 C1571 1.429 . S
C1568 C1551 1.574 . S
C1568 H1562 0.949 . S
C1568 C1572 1.368 . S
C1569 C1550 1.429 . S
C1569 C1563 1.429 . S
C1569 C1570 1.523 . S
C1570 C1551 1.368 . S
C1570 C1564 1.368 . S
C1570 C1569 1.523 . S
C1571 C1555 1.429 . S
C1571 C1567 1.429 . S
C1571 C1572 1.523 . S
C1572 C1556 1.368 . S
C1572 C1568 1.368 . S
C1572 C1571 1.523 . S
H1573 C1548 0.950 . S
H1574 C1550 0.950 . S
H1575 C1551 0.949 . S
H1576 C1553 0.950 . S
H1577 C1555 0.950 . S
C1578 C1579 1.349 . S
C1578 C1580 1.327 . S
C1578 H1603 0.950 . S
C1579 C1578 1.349 . S
C1579 C1595 1.349 . S
C1580 C1578 1.327 . S
C1580 C1599 1.429 . S
C1580 H1604 0.950 . S
C1581 C1598 1.574 . S
C1581 C1600 1.368 . S
C1581 H1605 0.949 . S
H1582 C1586 0.949 . S
C1583 C1584 1.349 . S
C1583 C1585 1.327 . S
C1583 H1606 0.950 . S
C1584 C1583 1.349 . S
C1584 C1596 1.349 . S
C1585 C1583 1.327 . S
C1585 C1601 1.429 . S
C1585 H1607 0.950 . S
C1586 H1582 0.949 . S
C1586 C1594 1.574 . S
C1586 C1602 1.368 . S
H1587 C1595 0.950 . S
H1588 C1593 0.950 . S
H1589 C1594 0.949 . S
H1590 C1596 0.950 . S
H1591 C1597 0.950 . S
H1592 C1598 0.949 . S
C1593 H1588 0.950 . S
C1593 C1595 1.327 . S
C1593 C1599 1.429 . S
C1594 C1586 1.574 . S
C1594 H1589 0.949 . S
C1594 C1600 1.368 . S
C1595 C1579 1.349 . S
C1595 H1587 0.950 . S
C1595 C1593 1.327 . S
C1596 C1584 1.349 . S
C1596 H1590 0.950 . S
C1596 C1597 1.327 . S
C1597 H1591 0.950 . S
C1597 C1596 1.327 . S
C1597 C1601 1.429 . S
C1598 C1581 1.574 . S
C1598 H1592 0.949 . S
C1598 C1602 1.368 . S
C1599 C1580 1.429 . S
C1599 C1593 1.429 . S
C1599 C1600 1.523 . S
C1600 C1581 1.368 . S
C1600 C1594 1.368 . S
C1600 C1599 1.523 . S
C1601 C1585 1.429 . S
C1601 C1597 1.429 . S
C1601 C1602 1.523 . S
C1602 C1586 1.368 . S
C1602 C1598 1.368 . S
C1602 C1601 1.523 . S
H1603 C1578 0.950 . S
H1604 C1580 0.950 . S
H1605 C1581 0.949 . S
H1606 C1583 0.950 . S
H1607 C1585 0.950 . S
C1608 C1609 1.349 . S
C1608 C1610 1.327 . S
C1608 H1633 0.950 . S
C1609 C1608 1.349 . S
C1609 C1625 1.349 . S
C1610 C1608 1.327 . S
C1610 C1629 1.429 . S
C1610 H1634 0.950 . S
C1611 C1628 1.574 . S
C1611 C1630 1.368 . S
C1611 H1635 0.949 . S
H1612 C1616 0.949 . S
C1613 C1614 1.349 . S
C1613 C1615 1.327 . S
C1613 H1636 0.950 . S
C1614 C1613 1.349 . S
C1614 C1626 1.349 . S
C1615 C1613 1.327 . S
C1615 C1631 1.429 . S
C1615 H1637 0.950 . S
C1616 H1612 0.949 . S
C1616 C1624 1.574 . S
C1616 C1632 1.368 . S
H1617 C1625 0.950 . S
H1618 C1623 0.950 . S
H1619 C1624 0.949 . S
H1620 C1626 0.950 . S
H1621 C1627 0.950 . S
H1622 C1628 0.949 . S
C1623 H1618 0.950 . S
C1623 C1625 1.327 . S
C1623 C1629 1.429 . S
C1624 C1616 1.574 . S
C1624 H1619 0.949 . S
C1624 C1630 1.368 . S
C1625 C1609 1.349 . S
C1625 H1617 0.950 . S
C1625 C1623 1.327 . S
C1626 C1614 1.349 . S
C1626 H1620 0.950 . S
C1626 C1627 1.327 . S
C1627 H1621 0.950 . S
C1627 C1626 1.327 . S
C1627 C1631 1.429 . S
C1628 C1611 1.574 . S
C1628 H1622 0.949 . S
C1628 C1632 1.368 . S
C1629 C1610 1.429 . S
C1629 C1623 1.429 . S
C1629 C1630 1.523 . S
C1630 C1611 1.368 . S
C1630 C1624 1.368 . S
C1630 C1629 1.523 . S
C1631 C1615 1.429 . S
C1631 C1627 1.429 . S
C1631 C1632 1.523 . S
C1632 C1616 1.368 . S
C1632 C1628 1.368 . S
C1632 C1631 1.523 . S
H1633 C1608 0.950 . S
H1634 C1610 0.950 . S
H1635 C1611 0.949 . S
H1636 C1613 0.950 . S
H1637 C1615 0.950 . S
C1638 C1639 1.349 . S
C1638 C1640 1.327 . S
C1638 H1663 0.950 . S
C1639 C1638 1.349 . S
C1639 C1655 1.349 . S
C1640 C1638 1.327 . S
C1640 C1659 1.429 . S
C1640 H1664 0.950 . S
C1641 C1658 1.574 . S
C1641 C1660 1.368 1_556 S
C1641 H1665 0.949 . S
H1642 C1646 0.949 . S
C1643 C1644 1.349 . S
C1643 C1645 1.327 . S
C1643 H1666 0.950 . S
C1644 C1643 1.349 . S
C1644 C1656 1.331 1_556 S
C1645 C1643 1.327 . S
C1645 C1661 1.429 . S
C1645 H1667 0.950 . S
C1646 H1642 0.949 . S
C1646 C1654 1.574 . S
C1646 C1662 1.368 . S
H1647 C1655 0.950 . S
H1648 C1653 0.950 1_556 S
H1649 C1654 0.949 . S
H1650 C1656 0.962 . S
H1651 C1657 0.950 . S
H1652 C1658 0.949 . S
C1653 H1648 0.950 1_554 S
C1653 C1655 1.327 . S
C1653 C1659 1.429 . S
C1654 C1646 1.574 . S
C1654 H1649 0.949 . S
C1654 C1660 1.368 . S
C1655 C1639 1.349 . S
C1655 H1647 0.950 . S
C1655 C1653 1.327 . S
C1656 C1644 1.331 1_554 S
C1656 H1650 0.962 . S
C1656 C1657 1.334 . S
C1657 H1651 0.950 . S
C1657 C1656 1.334 . S
C1657 C1661 1.429 1_554 S
C1658 C1641 1.574 . S
C1658 H1652 0.949 . S
C1658 C1662 1.368 1_556 S
C1659 C1640 1.429 . S
C1659 C1653 1.429 . S
C1659 C1660 1.523 . S
C1660 C1641 1.368 1_554 S
C1660 C1654 1.368 . S
C1660 C1659 1.523 . S
C1661 C1645 1.429 . S
C1661 C1657 1.429 1_556 S
C1661 C1662 1.523 1_556 S
C1662 C1646 1.368 . S
C1662 C1658 1.368 1_554 S
C1662 C1661 1.523 1_554 S
H1663 C1638 0.950 . S
H1664 C1640 0.950 . S
H1665 C1641 0.949 . S
H1666 C1643 0.950 . S
H1667 C1645 0.950 . S
C1668 C1669 1.349 . S
C1668 C1670 1.327 . S
C1668 H1693 0.950 . S
C1669 C1668 1.349 . S
C1669 C1685 1.349 . S
C1670 C1668 1.327 . S
C1670 C1689 1.429 . S
C1670 H1694 0.950 . S
C1671 C1688 1.574 . S
C1671 C1690 1.368 . S
C1671 H1695 0.949 . S
H1672 C1676 0.949 . S
C1673 C1674 1.349 . S
C1673 C1675 1.327 . S
C1673 H1696 0.950 . S
C1674 C1673 1.349 . S
C1674 C1686 1.349 . S
C1675 C1673 1.327 . S
C1675 C1691 1.429 . S
C1675 H1697 0.950 . S
C1676 H1672 0.949 . S
C1676 C1684 1.574 . S
C1676 C1692 1.368 . S
H1677 C1685 0.950 . S
H1678 C1683 0.950 . S
H1679 C1684 0.949 . S
H1680 C1686 0.950 . S
H1681 C1687 0.950 . S
H1682 C1688 0.949 . S
C1683 H1678 0.950 . S
C1683 C1685 1.327 . S
C1683 C1689 1.429 . S
C1684 C1676 1.574 . S
C1684 H1679 0.949 . S
C1684 C1690 1.368 . S
C1685 C1669 1.349 . S
C1685 H1677 0.950 . S
C1685 C1683 1.327 . S
C1686 C1674 1.349 . S
C1686 H1680 0.950 . S
C1686 C1687 1.327 . S
C1687 H1681 0.950 . S
C1687 C1686 1.327 . S
C1687 C1691 1.429 . S
C1688 C1671 1.574 . S
C1688 H1682 0.949 . S
C1688 C1692 1.368 . S
C1689 C1670 1.429 . S
C1689 C1683 1.429 . S
C1689 C1690 1.523 . S
C1690 C1671 1.368 . S
C1690 C1684 1.368 . S
C1690 C1689 1.523 . S
C1691 C1675 1.429 . S
C1691 C1687 1.429 . S
C1691 C1692 1.523 . S
C1692 C1676 1.368 . S
C1692 C1688 1.368 . S
C1692 C1691 1.523 . S
H1693 C1668 0.950 . S
H1694 C1670 0.950 . S
H1695 C1671 0.949 . S
H1696 C1673 0.950 . S
H1697 C1675 0.950 . S
C1698 C1699 1.349 . S
C1698 C1700 1.327 . S
C1698 H1723 0.950 . S
C1699 C1698 1.349 . S
C1699 C1715 1.349 . S
C1700 C1698 1.327 . S
C1700 C1719 1.429 . S
C1700 H1724 0.950 . S
C1701 C1718 1.574 . S
C1701 C1720 1.368 . S
C1701 H1725 0.949 . S
H1702 C1706 0.949 . S
C1703 C1704 1.349 . S
C1703 C1705 1.327 . S
C1703 H1726 0.950 . S
C1704 C1703 1.349 . S
C1704 C1716 1.349 . S
C1705 C1703 1.327 . S
C1705 C1721 1.429 . S
C1705 H1727 0.950 . S
C1706 H1702 0.949 . S
C1706 C1714 1.574 . S
C1706 C1722 1.368 . S
H1707 C1715 0.950 . S
H1708 C1713 0.950 . S
H1709 C1714 0.949 . S
H1710 C1716 0.950 . S
H1711 C1717 0.950 . S
H1712 C1718 0.949 . S
C1713 H1708 0.950 . S
C1713 C1715 1.327 . S
C1713 C1719 1.429 . S
C1714 C1706 1.574 . S
C1714 H1709 0.949 . S
C1714 C1720 1.368 . S
C1715 C1699 1.349 . S
C1715 H1707 0.950 . S
C1715 C1713 1.327 . S
C1716 C1704 1.349 . S
C1716 H1710 0.950 . S
C1716 C1717 1.327 . S
C1717 H1711 0.950 . S
C1717 C1716 1.327 . S
C1717 C1721 1.429 . S
C1718 C1701 1.574 . S
C1718 H1712 0.949 . S
C1718 C1722 1.368 . S
C1719 C1700 1.429 . S
C1719 C1713 1.429 . S
C1719 C1720 1.523 . S
C1720 C1701 1.368 . S
C1720 C1714 1.368 . S
C1720 C1719 1.523 . S
C1721 C1705 1.429 . S
C1721 C1717 1.429 . S
C1721 C1722 1.523 . S
C1722 C1706 1.368 . S
C1722 C1718 1.368 . S
C1722 C1721 1.523 . S
H1723 C1698 0.950 . S
H1724 C1700 0.950 . S
H1725 C1701 0.949 . S
H1726 C1703 0.950 . S
H1727 C1705 0.950 . S
C1728 C1729 1.349 . S
C1728 C1730 1.327 . S
C1728 H1753 0.950 . S
C1729 C1728 1.349 . S
C1729 C1745 1.349 . S
C1730 C1728 1.327 . S
C1730 C1749 1.429 . S
C1730 H1754 0.950 . S
C1731 C1748 1.574 . S
C1731 C1750 1.368 . S
C1731 H1755 0.949 . S
H1732 C1736 0.949 . S
C1733 C1734 1.349 . S
C1733 C1735 1.327 . S
C1733 H1756 0.950 . S
C1734 C1733 1.349 . S
C1734 C1746 1.349 . S
C1735 C1733 1.327 . S
C1735 C1751 1.429 . S
C1735 H1757 0.950 . S
C1736 H1732 0.949 . S
C1736 C1744 1.574 . S
C1736 C1752 1.368 . S
H1737 C1745 0.950 . S
H1738 C1743 0.950 . S
H1739 C1744 0.949 . S
H1740 C1746 0.950 . S
H1741 C1747 0.950 . S
H1742 C1748 0.949 . S
C1743 H1738 0.950 . S
C1743 C1745 1.327 . S
C1743 C1749 1.429 . S
C1744 C1736 1.574 . S
C1744 H1739 0.949 . S
C1744 C1750 1.368 . S
C1745 C1729 1.349 . S
C1745 H1737 0.950 . S
C1745 C1743 1.327 . S
C1746 C1734 1.349 . S
C1746 H1740 0.950 . S
C1746 C1747 1.327 . S
C1747 H1741 0.950 . S
C1747 C1746 1.327 . S
C1747 C1751 1.429 . S
C1748 C1731 1.574 . S
C1748 H1742 0.949 . S
C1748 C1752 1.368 . S
C1749 C1730 1.429 . S
C1749 C1743 1.429 . S
C1749 C1750 1.523 . S
C1750 C1731 1.368 . S
C1750 C1744 1.368 . S
C1750 C1749 1.523 . S
C1751 C1735 1.429 . S
C1751 C1747 1.429 . S
C1751 C1752 1.523 . S
C1752 C1736 1.368 . S
C1752 C1748 1.368 . S
C1752 C1751 1.523 . S
H1753 C1728 0.950 . S
H1754 C1730 0.950 . S
H1755 C1731 0.949 . S
H1756 C1733 0.950 . S
H1757 C1735 0.950 . S
C1758 C1759 1.349 . S
C1758 C1760 1.327 . S
C1758 H1783 0.950 . S
C1759 C1758 1.349 . S
C1759 C1775 1.349 . S
C1760 C1758 1.327 . S
C1760 C1779 1.429 . S
C1760 H1784 0.950 . S
C1761 C1778 1.574 . S
C1761 C1780 1.368 . S
C1761 H1785 0.949 . S
H1762 C1766 0.949 . S
C1763 C1764 1.349 . S
C1763 C1765 1.327 . S
C1763 H1786 0.950 . S
C1764 C1763 1.349 . S
C1764 C1776 1.349 . S
C1765 C1763 1.327 . S
C1765 C1781 1.429 . S
C1765 H1787 0.950 . S
C1766 H1762 0.949 . S
C1766 C1774 1.574 . S
C1766 C1782 1.368 . S
H1767 C1775 0.950 . S
H1768 C1773 0.950 . S
H1769 C1774 0.949 . S
H1770 C1776 0.950 . S
H1771 C1777 0.950 . S
H1772 C1778 0.949 . S
C1773 H1768 0.950 . S
C1773 C1775 1.327 . S
C1773 C1779 1.429 . S
C1774 C1766 1.574 . S
C1774 H1769 0.949 . S
C1774 C1780 1.368 . S
C1775 C1759 1.349 . S
C1775 H1767 0.950 . S
C1775 C1773 1.327 . S
C1776 C1764 1.349 . S
C1776 H1770 0.950 . S
C1776 C1777 1.327 . S
C1777 H1771 0.950 . S
C1777 C1776 1.327 . S
C1777 C1781 1.429 . S
C1778 C1761 1.574 . S
C1778 H1772 0.949 . S
C1778 C1782 1.368 . S
C1779 C1760 1.429 . S
C1779 C1773 1.429 . S
C1779 C1780 1.523 . S
C1780 C1761 1.368 . S
C1780 C1774 1.368 . S
C1780 C1779 1.523 . S
C1781 C1765 1.429 . S
C1781 C1777 1.429 . S
C1781 C1782 1.523 . S
C1782 C1766 1.368 . S
C1782 C1778 1.368 . S
C1782 C1781 1.523 . S
H1783 C1758 0.950 . S
H1784 C1760 0.950 . S
H1785 C1761 0.949 . S
H1786 C1763 0.950 . S
H1787 C1765 0.950 . S
C1788 C1789 1.349 . S
C1788 C1790 1.327 . S
C1788 H1813 0.950 . S
C1789 C1788 1.349 . S
C1789 C1805 1.349 . S
C1790 C1788 1.327 . S
C1790 C1809 1.429 . S
C1790 H1814 0.950 . S
C1791 C1808 1.574 . S
C1791 C1810 1.368 . S
C1791 H1815 0.949 . S
H1792 C1796 0.949 . S
C1793 C1794 1.349 . S
C1793 C1795 1.327 . S
C1793 H1816 0.950 . S
C1794 C1793 1.349 . S
C1794 C1806 1.349 . S
C1795 C1793 1.327 . S
C1795 C1811 1.429 . S
C1795 H1817 0.950 . S
C1796 H1792 0.949 . S
C1796 C1804 1.574 . S
C1796 C1812 1.368 . S
H1797 C1805 0.950 . S
H1798 C1803 0.950 . S
H1799 C1804 0.949 . S
H1800 C1806 0.950 . S
H1801 C1807 0.950 . S
H1802 C1808 0.949 . S
C1803 H1798 0.950 . S
C1803 C1805 1.327 . S
C1803 C1809 1.429 . S
C1804 C1796 1.574 . S
C1804 H1799 0.949 . S
C1804 C1810 1.368 . S
C1805 C1789 1.349 . S
C1805 H1797 0.950 . S
C1805 C1803 1.327 . S
C1806 C1794 1.349 . S
C1806 H1800 0.950 . S
C1806 C1807 1.327 . S
C1807 H1801 0.950 . S
C1807 C1806 1.327 . S
C1807 C1811 1.429 . S
C1808 C1791 1.574 . S
C1808 H1802 0.949 . S
C1808 C1812 1.368 . S
C1809 C1790 1.429 . S
C1809 C1803 1.429 . S
C1809 C1810 1.523 . S
C1810 C1791 1.368 . S
C1810 C1804 1.368 . S
C1810 C1809 1.523 . S
C1811 C1795 1.429 . S
C1811 C1807 1.429 . S
C1811 C1812 1.523 . S
C1812 C1796 1.368 . S
C1812 C1808 1.368 . S
C1812 C1811 1.523 . S
H1813 C1788 0.950 . S
H1814 C1790 0.950 . S
H1815 C1791 0.949 . S
H1816 C1793 0.950 . S
H1817 C1795 0.950 . S
C1818 C1819 1.349 . S
C1818 C1820 1.327 . S
C1818 H1843 0.950 . S
C1819 C1818 1.349 . S
C1819 C1835 1.349 . S
C1820 C1818 1.327 . S
C1820 C1839 1.429 . S
C1820 H1844 0.950 . S
C1821 C1838 1.574 . S
C1821 C1840 1.368 . S
C1821 H1845 0.949 . S
H1822 C1826 0.949 . S
C1823 C1824 1.349 . S
C1823 C1825 1.327 . S
C1823 H1846 0.950 . S
C1824 C1823 1.349 . S
C1824 C1836 1.349 . S
C1825 C1823 1.327 . S
C1825 C1841 1.429 . S
C1825 H1847 0.950 . S
C1826 H1822 0.949 . S
C1826 C1834 1.574 . S
C1826 C1842 1.368 . S
H1827 C1835 0.950 . S
H1828 C1833 0.950 . S
H1829 C1834 0.949 . S
H1830 C1836 0.950 . S
H1831 C1837 0.950 . S
H1832 C1838 0.949 . S
C1833 H1828 0.950 . S
C1833 C1835 1.327 . S
C1833 C1839 1.429 . S
C1834 C1826 1.574 . S
C1834 H1829 0.949 . S
C1834 C1840 1.368 . S
C1835 C1819 1.349 . S
C1835 H1827 0.950 . S
C1835 C1833 1.327 . S
C1836 C1824 1.349 . S
C1836 H1830 0.950 . S
C1836 C1837 1.327 . S
C1837 H1831 0.950 . S
C1837 C1836 1.327 . S
C1837 C1841 1.429 . S
C1838 C1821 1.574 . S
C1838 H1832 0.949 . S
C1838 C1842 1.368 . S
C1839 C1820 1.429 . S
C1839 C1833 1.429 . S
C1839 C1840 1.523 . S
C1840 C1821 1.368 . S
C1840 C1834 1.368 . S
C1840 C1839 1.523 . S
C1841 C1825 1.429 . S
C1841 C1837 1.429 . S
C1841 C1842 1.523 . S
C1842 C1826 1.368 . S
C1842 C1838 1.368 . S
C1842 C1841 1.523 . S
H1843 C1818 0.950 . S
H1844 C1820 0.950 . S
H1845 C1821 0.949 . S
H1846 C1823 0.950 . S
H1847 C1825 0.950 . S
C1848 C1849 1.349 . S
C1848 C1850 1.327 . S
C1848 H1873 0.950 . S
C1849 C1848 1.349 . S
C1849 C1865 1.349 . S
C1850 C1848 1.327 . S
C1850 C1869 1.429 . S
C1850 H1874 0.950 . S
C1851 C1868 1.574 . S
C1851 C1870 1.368 . S
C1851 H1875 0.949 . S
H1852 C1856 0.949 . S
C1853 C1854 1.349 . S
C1853 C1855 1.327 . S
C1853 H1876 0.950 . S
C1854 C1853 1.349 . S
C1854 C1866 1.349 . S
C1855 C1853 1.327 . S
C1855 C1871 1.429 . S
C1855 H1877 0.950 . S
C1856 H1852 0.949 . S
C1856 C1864 1.574 . S
C1856 C1872 1.368 . S
H1857 C1865 0.950 . S
H1858 C1863 0.950 . S
H1859 C1864 0.949 . S
H1860 C1866 0.950 . S
H1861 C1867 0.950 . S
H1862 C1868 0.949 . S
C1863 H1858 0.950 . S
C1863 C1865 1.327 . S
C1863 C1869 1.429 . S
C1864 C1856 1.574 . S
C1864 H1859 0.949 . S
C1864 C1870 1.368 . S
C1865 C1849 1.349 . S
C1865 H1857 0.950 . S
C1865 C1863 1.327 . S
C1866 C1854 1.349 . S
C1866 H1860 0.950 . S
C1866 C1867 1.327 . S
C1867 H1861 0.950 . S
C1867 C1866 1.327 . S
C1867 C1871 1.429 . S
C1868 C1851 1.574 . S
C1868 H1862 0.949 . S
C1868 C1872 1.368 . S
C1869 C1850 1.429 . S
C1869 C1863 1.429 . S
C1869 C1870 1.523 . S
C1870 C1851 1.368 . S
C1870 C1864 1.368 . S
C1870 C1869 1.523 . S
C1871 C1855 1.429 . S
C1871 C1867 1.429 . S
C1871 C1872 1.523 . S
C1872 C1856 1.368 . S
C1872 C1868 1.368 . S
C1872 C1871 1.523 . S
H1873 C1848 0.950 . S
H1874 C1850 0.950 . S
H1875 C1851 0.949 . S
H1876 C1853 0.950 . S
H1877 C1855 0.950 . S
C1878 C1879 1.349 . S
C1878 C1880 1.327 . S
C1878 H1903 0.950 . S
C1879 C1878 1.349 . S
C1879 C1895 1.349 . S
C1880 C1878 1.327 . S
C1880 C1899 1.429 . S
C1880 H1904 0.950 . S
C1881 C1898 1.574 . S
C1881 C1900 1.368 . S
C1881 H1905 0.949 . S
H1882 C1886 0.949 . S
C1883 C1884 1.349 . S
C1883 C1885 1.327 . S
C1883 H1906 0.950 . S
C1884 C1883 1.349 . S
C1884 C1896 1.349 . S
C1885 C1883 1.327 . S
C1885 C1901 1.429 . S
C1885 H1907 0.950 . S
C1886 H1882 0.949 . S
C1886 C1894 1.574 . S
C1886 C1902 1.368 . S
H1887 C1895 0.950 . S
H1888 C1893 0.950 . S
H1889 C1894 0.949 . S
H1890 C1896 0.950 . S
H1891 C1897 0.950 . S
H1892 C1898 0.949 . S
C1893 H1888 0.950 . S
C1893 C1895 1.327 . S
C1893 C1899 1.429 . S
C1894 C1886 1.574 . S
C1894 H1889 0.949 . S
C1894 C1900 1.368 . S
C1895 C1879 1.349 . S
C1895 H1887 0.950 . S
C1895 C1893 1.327 . S
C1896 C1884 1.349 . S
C1896 H1890 0.950 . S
C1896 C1897 1.327 . S
C1897 H1891 0.950 . S
C1897 C1896 1.327 . S
C1897 C1901 1.429 . S
C1898 C1881 1.574 . S
C1898 H1892 0.949 . S
C1898 C1902 1.368 . S
C1899 C1880 1.429 . S
C1899 C1893 1.429 . S
C1899 C1900 1.523 . S
C1900 C1881 1.368 . S
C1900 C1894 1.368 . S
C1900 C1899 1.523 . S
C1901 C1885 1.429 . S
C1901 C1897 1.429 . S
C1901 C1902 1.523 . S
C1902 C1886 1.368 . S
C1902 C1898 1.368 . S
C1902 C1901 1.523 . S
H1903 C1878 0.950 . S
H1904 C1880 0.950 . S
H1905 C1881 0.949 . S
H1906 C1883 0.950 . S
H1907 C1885 0.950 . S
C1908 C1909 1.349 . S
C1908 C1910 1.327 . S
C1908 H1933 0.950 . S
C1909 C1908 1.349 . S
C1909 C1925 1.349 . S
C1910 C1908 1.327 . S
C1910 C1929 1.429 . S
C1910 H1934 0.950 . S
C1911 C1928 1.574 . S
C1911 C1930 1.368 . S
C1911 H1935 0.949 . S
H1912 C1916 0.949 . S
C1913 C1914 1.349 . S
C1913 C1915 1.327 . S
C1913 H1936 0.950 . S
C1914 C1913 1.349 . S
C1914 C1926 1.349 . S
C1915 C1913 1.327 . S
C1915 C1931 1.429 . S
C1915 H1937 0.950 . S
C1916 H1912 0.949 . S
C1916 C1924 1.574 . S
C1916 C1932 1.368 . S
H1917 C1925 0.950 . S
H1918 C1923 0.950 . S
H1919 C1924 0.949 . S
H1920 C1926 0.950 . S
H1921 C1927 0.950 . S
H1922 C1928 0.949 . S
C1923 H1918 0.950 . S
C1923 C1925 1.327 . S
C1923 C1929 1.429 . S
C1924 C1916 1.574 . S
C1924 H1919 0.949 . S
C1924 C1930 1.368 . S
C1925 C1909 1.349 . S
C1925 H1917 0.950 . S
C1925 C1923 1.327 . S
C1926 C1914 1.349 . S
C1926 H1920 0.950 . S
C1926 C1927 1.327 . S
C1927 H1921 0.950 . S
C1927 C1926 1.327 . S
C1927 C1931 1.429 . S
C1928 C1911 1.574 . S
C1928 H1922 0.949 . S
C1928 C1932 1.368 . S
C1929 C1910 1.429 . S
C1929 C1923 1.429 . S
C1929 C1930 1.523 . S
C1930 C1911 1.368 . S
C1930 C1924 1.368 . S
C1930 C1929 1.523 . S
C1931 C1915 1.429 . S
C1931 C1927 1.429 . S
C1931 C1932 1.523 . S
C1932 C1916 1.368 . S
C1932 C1928 1.368 . S
C1932 C1931 1.523 . S
H1933 C1908 0.950 . S
H1934 C1910 0.950 . S
H1935 C1911 0.949 . S
H1936 C1913 0.950 . S
H1937 C1915 0.950 . S
C1938 C1939 1.349 . S
C1938 C1940 1.327 . S
C1938 H1963 0.950 . S
C1939 C1938 1.349 . S
C1939 C1955 1.349 . S
C1940 C1938 1.327 . S
C1940 C1959 1.429 . S
C1940 H1964 0.950 . S
C1941 C1958 1.574 . S
C1941 C1960 1.368 . S
C1941 H1965 0.949 . S
H1942 C1946 0.949 . S
C1943 C1944 1.349 . S
C1943 C1945 1.327 . S
C1943 H1966 0.950 . S
C1944 C1943 1.349 . S
C1944 C1956 1.349 . S
C1945 C1943 1.327 . S
C1945 C1961 1.429 . S
C1945 H1967 0.950 . S
C1946 H1942 0.949 . S
C1946 C1954 1.574 . S
C1946 C1962 1.368 . S
H1947 C1955 0.950 . S
H1948 C1953 0.950 . S
H1949 C1954 0.949 . S
H1950 C1956 0.950 . S
H1951 C1957 0.950 . S
H1952 C1958 0.949 . S
C1953 H1948 0.950 . S
C1953 C1955 1.327 . S
C1953 C1959 1.429 . S
C1954 C1946 1.574 . S
C1954 H1949 0.949 . S
C1954 C1960 1.368 . S
C1955 C1939 1.349 . S
C1955 H1947 0.950 . S
C1955 C1953 1.327 . S
C1956 C1944 1.349 . S
C1956 H1950 0.950 . S
C1956 C1957 1.327 . S
C1957 H1951 0.950 . S
C1957 C1956 1.327 . S
C1957 C1961 1.429 . S
C1958 C1941 1.574 . S
C1958 H1952 0.949 . S
C1958 C1962 1.368 . S
C1959 C1940 1.429 . S
C1959 C1953 1.429 . S
C1959 C1960 1.523 . S
C1960 C1941 1.368 . S
C1960 C1954 1.368 . S
C1960 C1959 1.523 . S
C1961 C1945 1.429 . S
C1961 C1957 1.429 . S
C1961 C1962 1.523 . S
C1962 C1946 1.368 . S
C1962 C1958 1.368 . S
C1962 C1961 1.523 . S
H1963 C1938 0.950 . S
H1964 C1940 0.950 . S
H1965 C1941 0.949 . S
H1966 C1943 0.950 . S
H1967 C1945 0.950 . S
C1968 C1969 1.349 . S
C1968 C1970 1.327 . S
C1968 H1993 0.950 . S
C1969 C1968 1.349 . S
C1969 C1985 1.349 . S
C1970 C1968 1.327 . S
C1970 C1989 1.429 . S
C1970 H1994 0.950 . S
C1971 C1988 1.574 . S
C1971 C1990 1.368 . S
C1971 H1995 0.949 . S
H1972 C1976 0.949 . S
C1973 C1974 1.349 . S
C1973 C1975 1.327 . S
C1973 H1996 0.950 . S
C1974 C1973 1.349 . S
C1974 C1986 1.349 . S
C1975 C1973 1.327 . S
C1975 C1991 1.429 . S
C1975 H1997 0.950 . S
C1976 H1972 0.949 . S
C1976 C1984 1.574 . S
C1976 C1992 1.368 . S
H1977 C1985 0.950 . S
H1978 C1983 0.950 . S
H1979 C1984 0.949 . S
H1980 C1986 0.950 . S
H1981 C1987 0.950 . S
H1982 C1988 0.949 . S
C1983 H1978 0.950 . S
C1983 C1985 1.327 . S
C1983 C1989 1.429 . S
C1984 C1976 1.574 . S
C1984 H1979 0.949 . S
C1984 C1990 1.368 . S
C1985 C1969 1.349 . S
C1985 H1977 0.950 . S
C1985 C1983 1.327 . S
C1986 C1974 1.349 . S
C1986 H1980 0.950 . S
C1986 C1987 1.327 . S
C1987 H1981 0.950 . S
C1987 C1986 1.327 . S
C1987 C1991 1.429 . S
C1988 C1971 1.574 . S
C1988 H1982 0.949 . S
C1988 C1992 1.368 . S
C1989 C1970 1.429 . S
C1989 C1983 1.429 . S
C1989 C1990 1.523 . S
C1990 C1971 1.368 . S
C1990 C1984 1.368 . S
C1990 C1989 1.523 . S
C1991 C1975 1.429 . S
C1991 C1987 1.429 . S
C1991 C1992 1.523 . S
C1992 C1976 1.368 . S
C1992 C1988 1.368 . S
C1992 C1991 1.523 . S
H1993 C1968 0.950 . S
H1994 C1970 0.950 . S
H1995 C1971 0.949 . S
H1996 C1973 0.950 . S
H1997 C1975 0.950 . S
C1998 C1999 1.349 . S
C1998 C2000 1.327 . S
C1998 H2023 0.950 . S
C1999 C1998 1.349 . S
C1999 C2015 1.349 . S
C2000 C1998 1.327 . S
C2000 C2019 1.429 . S
C2000 H2024 0.950 . S
C2001 C2018 1.574 . S
C2001 C2020 1.368 . S
C2001 H2025 0.949 . S
H2002 C2006 0.949 . S
C2003 C2004 1.349 . S
C2003 C2005 1.327 . S
C2003 H2026 0.950 . S
C2004 C2003 1.349 . S
C2004 C2016 1.349 . S
C2005 C2003 1.327 . S
C2005 C2021 1.429 . S
C2005 H2027 0.950 . S
C2006 H2002 0.949 . S
C2006 C2014 1.574 . S
C2006 C2022 1.368 . S
H2007 C2015 0.950 . S
H2008 C2013 0.950 . S
H2009 C2014 0.949 . S
H2010 C2016 0.950 . S
H2011 C2017 0.950 . S
H2012 C2018 0.949 . S
C2013 H2008 0.950 . S
C2013 C2015 1.327 . S
C2013 C2019 1.429 . S
C2014 C2006 1.574 . S
C2014 H2009 0.949 . S
C2014 C2020 1.368 . S
C2015 C1999 1.349 . S
C2015 H2007 0.950 . S
C2015 C2013 1.327 . S
C2016 C2004 1.349 . S
C2016 H2010 0.950 . S
C2016 C2017 1.327 . S
C2017 H2011 0.950 . S
C2017 C2016 1.327 . S
C2017 C2021 1.429 . S
C2018 C2001 1.574 . S
C2018 H2012 0.949 . S
C2018 C2022 1.368 . S
C2019 C2000 1.429 . S
C2019 C2013 1.429 . S
C2019 C2020 1.523 . S
C2020 C2001 1.368 . S
C2020 C2014 1.368 . S
C2020 C2019 1.523 . S
C2021 C2005 1.429 . S
C2021 C2017 1.429 . S
C2021 C2022 1.523 . S
C2022 C2006 1.368 . S
C2022 C2018 1.368 . S
C2022 C2021 1.523 . S
H2023 C1998 0.950 . S
H2024 C2000 0.950 . S
H2025 C2001 0.949 . S
H2026 C2003 0.950 . S
H2027 C2005 0.950 . S
C2028 C2029 1.349 . S
C2028 C2030 1.327 . S
C2028 H2053 0.950 . S
C2029 C2028 1.349 . S
C2029 C2045 1.349 . S
C2030 C2028 1.327 . S
C2030 C2049 1.429 . S
C2030 H2054 0.950 . S
C2031 C2048 1.574 . S
C2031 C2050 1.368 . S
C2031 H2055 0.949 . S
H2032 C2036 0.949 . S
C2033 C2034 1.349 . S
C2033 C2035 1.327 . S
C2033 H2056 0.950 . S
C2034 C2033 1.349 . S
C2034 C2046 1.349 . S
C2035 C2033 1.327 . S
C2035 C2051 1.429 . S
C2035 H2057 0.950 . S
C2036 H2032 0.949 . S
C2036 C2044 1.574 . S
C2036 C2052 1.368 . S
H2037 C2045 0.950 . S
H2038 C2043 0.950 . S
H2039 C2044 0.949 . S
H2040 C2046 0.950 . S
H2041 C2047 0.950 . S
H2042 C2048 0.949 . S
C2043 H2038 0.950 . S
C2043 C2045 1.327 . S
C2043 C2049 1.429 . S
C2044 C2036 1.574 . S
C2044 H2039 0.949 . S
C2044 C2050 1.368 . S
C2045 C2029 1.349 . S
C2045 H2037 0.950 . S
C2045 C2043 1.327 . S
C2046 C2034 1.349 . S
C2046 H2040 0.950 . S
C2046 C2047 1.327 . S
C2047 H2041 0.950 . S
C2047 C2046 1.327 . S
C2047 C2051 1.429 . S
C2048 C2031 1.574 . S
C2048 H2042 0.949 . S
C2048 C2052 1.368 . S
C2049 C2030 1.429 . S
C2049 C2043 1.429 . S
C2049 C2050 1.523 . S
C2050 C2031 1.368 . S
C2050 C2044 1.368 . S
C2050 C2049 1.523 . S
C2051 C2035 1.429 . S
C2051 C2047 1.429 . S
C2051 C2052 1.523 . S
C2052 C2036 1.368 . S
C2052 C2048 1.368 . S
C2052 C2051 1.523 . S
H2053 C2028 0.950 . S
H2054 C2030 0.950 . S
H2055 C2031 0.949 . S
H2056 C2033 0.950 . S
H2057 C2035 0.950 . S
C2058 C2059 1.349 . S
C2058 C2060 1.327 . S
C2058 H2083 0.950 . S
C2059 C2058 1.349 . S
C2059 C2075 1.349 . S
C2060 C2058 1.327 . S
C2060 C2079 1.429 . S
C2060 H2084 0.950 . S
C2061 C2078 1.574 . S
C2061 C2080 1.368 . S
C2061 H2085 0.949 . S
H2062 C2066 0.949 . S
C2063 C2064 1.349 . S
C2063 C2065 1.327 . S
C2063 H2086 0.950 . S
C2064 C2063 1.349 . S
C2064 C2076 1.349 . S
C2065 C2063 1.327 . S
C2065 C2081 1.429 . S
C2065 H2087 0.950 . S
C2066 H2062 0.949 . S
C2066 C2074 1.574 . S
C2066 C2082 1.368 . S
H2067 C2075 0.950 . S
H2068 C2073 0.950 . S
H2069 C2074 0.949 . S
H2070 C2076 0.950 . S
H2071 C2077 0.950 . S
H2072 C2078 0.949 . S
C2073 H2068 0.950 . S
C2073 C2075 1.327 . S
C2073 C2079 1.429 . S
C2074 C2066 1.574 . S
C2074 H2069 0.949 . S
C2074 C2080 1.368 . S
C2075 C2059 1.349 . S
C2075 H2067 0.950 . S
C2075 C2073 1.327 . S
C2076 C2064 1.349 . S
C2076 H2070 0.950 . S
C2076 C2077 1.327 . S
C2077 H2071 0.950 . S
C2077 C2076 1.327 . S
C2077 C2081 1.429 . S
C2078 C2061 1.574 . S
C2078 H2072 0.949 . S
C2078 C2082 1.368 . S
C2079 C2060 1.429 . S
C2079 C2073 1.429 . S
C2079 C2080 1.523 . S
C2080 C2061 1.368 . S
C2080 C2074 1.368 . S
C2080 C2079 1.523 . S
C2081 C2065 1.429 . S
C2081 C2077 1.429 . S
C2081 C2082 1.523 . S
C2082 C2066 1.368 . S
C2082 C2078 1.368 . S
C2082 C2081 1.523 . S
H2083 C2058 0.950 . S
H2084 C2060 0.950 . S
H2085 C2061 0.949 . S
H2086 C2063 0.950 . S
H2087 C2065 0.950 . S
C1009 C487 1.342 . S
C1014 C63 1.246 . S
C1039 C147 1.192 . S
C1044 C67 1.291 . S
C1069 C231 1.304 . S
C1074 C151 1.412 . S
C1099 C235 1.341 . S
C1104 C315 1.246 . S
C1129 C319 1.294 . S
C1134 C399 1.189 . S
C1159 C483 1.303 . S
C1164 C403 1.412 . S
C1189 C655 1.342 . S
C1194 C567 1.246 . S
C1219 C651 1.304 . S
C1224 C739 1.412 . S
C1249 C823 1.294 . S
C1254 C735 1.188 . S
C1279 C907 1.342 . S
C1284 C819 1.246 . S
C1309 C991 1.408 . S
C1314 C903 1.307 . S
C1339 C571 1.294 . S
C1344 C987 1.188 . S
C1369 C990 3.286 . S
C1374 C56 3.273 . S
C1399 C140 2.780 . S
C1404 C570 2.792 . S
C1429 C654 3.039 . S
C1434 C224 3.020 . S
C1459 C738 3.286 . S
C1464 C308 3.274 . S
C1489 C822 2.797 . S
C1494 C392 2.777 . S
C1519 C476 3.021 . S
C1524 C906 3.037 . S
C1549 C560 3.270 . S
C1554 C150 3.290 . S
C1579 C644 3.022 . S
C1584 C234 3.038 . S
C1609 C318 2.796 . S
C1614 C728 2.776 . S
C1639 C402 3.286 . S
C1644 C812 3.273 . S
C1669 C896 3.022 . S
C1674 C486 3.038 . S
C1699 C980 2.781 . S
C1704 C66 2.792 . S
C1729 C579 2.248 . S
C1734 C75 2.252 . S
C1759 C159 1.526 . S
C1764 C663 1.542 . S
C1789 C747 1.526 . S
C1794 C243 1.542 . S
C1819 C327 2.248 . S
C1824 C831 2.251 . S
C1849 C915 1.538 . S
C1854 C411 1.529 . S
C1879 C999 1.525 . S
C1884 C495 1.541 . S
C1909 C576 0.738 . S
C1914 C72 0.740 . S
C1939 C660 0.508 . S
C1944 C156 0.491 . S
C1969 C744 0.490 . S
C1974 C240 0.509 . S
C1999 C324 0.737 . S
C2004 C828 0.740 . S
C2029 C912 0.508 . S
C2034 C408 0.491 . S
C2059 C996 0.490 . S
C2064 C492 0.509 . S
