# Generated by pormake.
# Topology ana-e, (6)-cn, num edge types: 1
# Building blocks:
#     Node 0, Type 0, BuildingBlock: BETDAH_clean_sbu_0, # of connection points: 6
#     Node 1, Type 0, BuildingBlock: BETDAH_clean_sbu_0, # of connection points: 6
#     Node 2, Type 0, BuildingBlock: BETDAH_clean_sbu_0, # of connection points: 6
#     Node 3, Type 0, BuildingBlock: BETDAH_clean_sbu_0, # of connection points: 6
#     Node 4, Type 0, BuildingBlock: BETDAH_clean_sbu_0, # of connection points: 6
#     Node 5, Type 0, BuildingBlock: BETDAH_clean_sbu_0, # of connection points: 6
#     Node 6, Type 0, BuildingBlock: BETDAH_clean_sbu_0, # of connection points: 6
#     Node 7, Type 0, BuildingBlock: BETDAH_clean_sbu_0, # of connection points: 6
#     Node 8, Type 0, BuildingBlock: BETDAH_clean_sbu_0, # of connection points: 6
#     Node 9, Type 0, BuildingBlock: BETDAH_clean_sbu_0, # of connection points: 6
#     Node 10, Type 0, BuildingBlock: BETDAH_clean_sbu_0, # of connection points: 6
#     Node 11, Type 0, BuildingBlock: BETDAH_clean_sbu_0, # of connection points: 6
#     Node 12, Type 0, BuildingBlock: BETDAH_clean_sbu_0, # of connection points: 6
#     Node 13, Type 0, BuildingBlock: BETDAH_clean_sbu_0, # of connection points: 6
#     Node 14, Type 0, BuildingBlock: BETDAH_clean_sbu_0, # of connection points: 6
#     Node 15, Type 0, BuildingBlock: BETDAH_clean_sbu_0, # of connection points: 6
#     Node 16, Type 0, BuildingBlock: BETDAH_clean_sbu_0, # of connection points: 6
#     Node 17, Type 0, BuildingBlock: BETDAH_clean_sbu_0, # of connection points: 6
#     Node 18, Type 0, BuildingBlock: BETDAH_clean_sbu_0, # of connection points: 6
#     Node 19, Type 0, BuildingBlock: BETDAH_clean_sbu_0, # of connection points: 6
#     Node 20, Type 0, BuildingBlock: BETDAH_clean_sbu_0, # of connection points: 6
#     Node 21, Type 0, BuildingBlock: BETDAH_clean_sbu_0, # of connection points: 6
#     Node 22, Type 0, BuildingBlock: BETDAH_clean_sbu_0, # of connection points: 6
#     Node 23, Type 0, BuildingBlock: BETDAH_clean_sbu_0, # of connection points: 6
#     Node 24, Type 0, BuildingBlock: BETDAH_clean_sbu_0, # of connection points: 6
#     Node 25, Type 0, BuildingBlock: BETDAH_clean_sbu_0, # of connection points: 6
#     Node 26, Type 0, BuildingBlock: BETDAH_clean_sbu_0, # of connection points: 6
#     Node 27, Type 0, BuildingBlock: BETDAH_clean_sbu_0, # of connection points: 6
#     Node 28, Type 0, BuildingBlock: BETDAH_clean_sbu_0, # of connection points: 6
#     Node 29, Type 0, BuildingBlock: BETDAH_clean_sbu_0, # of connection points: 6
#     Node 30, Type 0, BuildingBlock: BETDAH_clean_sbu_0, # of connection points: 6
#     Node 31, Type 0, BuildingBlock: BETDAH_clean_sbu_0, # of connection points: 6
#     Node 32, Type 0, BuildingBlock: BETDAH_clean_sbu_0, # of connection points: 6
#     Node 33, Type 0, BuildingBlock: BETDAH_clean_sbu_0, # of connection points: 6
#     Node 34, Type 0, BuildingBlock: BETDAH_clean_sbu_0, # of connection points: 6
#     Node 35, Type 0, BuildingBlock: BETDAH_clean_sbu_0, # of connection points: 6
#     Node 36, Type 0, BuildingBlock: BETDAH_clean_sbu_0, # of connection points: 6
#     Node 37, Type 0, BuildingBlock: BETDAH_clean_sbu_0, # of connection points: 6
#     Node 38, Type 0, BuildingBlock: BETDAH_clean_sbu_0, # of connection points: 6
#     Node 39, Type 0, BuildingBlock: BETDAH_clean_sbu_0, # of connection points: 6
#     Node 40, Type 0, BuildingBlock: BETDAH_clean_sbu_0, # of connection points: 6
#     Node 41, Type 0, BuildingBlock: BETDAH_clean_sbu_0, # of connection points: 6
#     Node 42, Type 0, BuildingBlock: BETDAH_clean_sbu_0, # of connection points: 6
#     Node 43, Type 0, BuildingBlock: BETDAH_clean_sbu_0, # of connection points: 6
#     Node 44, Type 0, BuildingBlock: BETDAH_clean_sbu_0, # of connection points: 6
#     Node 45, Type 0, BuildingBlock: BETDAH_clean_sbu_0, # of connection points: 6
#     Node 46, Type 0, BuildingBlock: BETDAH_clean_sbu_0, # of connection points: 6
#     Node 47, Type 0, BuildingBlock: BETDAH_clean_sbu_0, # of connection points: 6
#     Node 48, Type 0, BuildingBlock: BETDAH_clean_sbu_0, # of connection points: 6
#     Node 49, Type 0, BuildingBlock: BETDAH_clean_sbu_0, # of connection points: 6
#     Node 50, Type 0, BuildingBlock: BETDAH_clean_sbu_0, # of connection points: 6
#     Node 51, Type 0, BuildingBlock: BETDAH_clean_sbu_0, # of connection points: 6
#     Node 52, Type 0, BuildingBlock: BETDAH_clean_sbu_0, # of connection points: 6
#     Node 53, Type 0, BuildingBlock: BETDAH_clean_sbu_0, # of connection points: 6
#     Node 54, Type 0, BuildingBlock: BETDAH_clean_sbu_0, # of connection points: 6
#     Node 55, Type 0, BuildingBlock: BETDAH_clean_sbu_0, # of connection points: 6
#     Node 56, Type 0, BuildingBlock: BETDAH_clean_sbu_0, # of connection points: 6
#     Node 57, Type 0, BuildingBlock: BETDAH_clean_sbu_0, # of connection points: 6
#     Node 58, Type 0, BuildingBlock: BETDAH_clean_sbu_0, # of connection points: 6
#     Node 59, Type 0, BuildingBlock: BETDAH_clean_sbu_0, # of connection points: 6
#     Node 60, Type 0, BuildingBlock: BETDAH_clean_sbu_0, # of connection points: 6
#     Node 61, Type 0, BuildingBlock: BETDAH_clean_sbu_0, # of connection points: 6
#     Node 62, Type 0, BuildingBlock: BETDAH_clean_sbu_0, # of connection points: 6
#     Node 63, Type 0, BuildingBlock: BETDAH_clean_sbu_0, # of connection points: 6
#     Node 64, Type 0, BuildingBlock: BETDAH_clean_sbu_0, # of connection points: 6
#     Node 65, Type 0, BuildingBlock: BETDAH_clean_sbu_0, # of connection points: 6
#     Node 66, Type 0, BuildingBlock: BETDAH_clean_sbu_0, # of connection points: 6
#     Node 67, Type 0, BuildingBlock: BETDAH_clean_sbu_0, # of connection points: 6
#     Node 68, Type 0, BuildingBlock: BETDAH_clean_sbu_0, # of connection points: 6
#     Node 69, Type 0, BuildingBlock: BETDAH_clean_sbu_0, # of connection points: 6
#     Node 70, Type 0, BuildingBlock: BETDAH_clean_sbu_0, # of connection points: 6
#     Node 71, Type 0, BuildingBlock: BETDAH_clean_sbu_0, # of connection points: 6
#     Node 72, Type 0, BuildingBlock: BETDAH_clean_sbu_0, # of connection points: 6
#     Node 73, Type 0, BuildingBlock: BETDAH_clean_sbu_0, # of connection points: 6
#     Node 74, Type 0, BuildingBlock: BETDAH_clean_sbu_0, # of connection points: 6
#     Node 75, Type 0, BuildingBlock: BETDAH_clean_sbu_0, # of connection points: 6
#     Node 76, Type 0, BuildingBlock: BETDAH_clean_sbu_0, # of connection points: 6
#     Node 77, Type 0, BuildingBlock: BETDAH_clean_sbu_0, # of connection points: 6
#     Node 78, Type 0, BuildingBlock: BETDAH_clean_sbu_0, # of connection points: 6
#     Node 79, Type 0, BuildingBlock: BETDAH_clean_sbu_0, # of connection points: 6
#     Node 80, Type 0, BuildingBlock: BETDAH_clean_sbu_0, # of connection points: 6
#     Node 81, Type 0, BuildingBlock: BETDAH_clean_sbu_0, # of connection points: 6
#     Node 82, Type 0, BuildingBlock: BETDAH_clean_sbu_0, # of connection points: 6
#     Node 83, Type 0, BuildingBlock: BETDAH_clean_sbu_0, # of connection points: 6
#     Node 84, Type 0, BuildingBlock: BETDAH_clean_sbu_0, # of connection points: 6
#     Node 85, Type 0, BuildingBlock: BETDAH_clean_sbu_0, # of connection points: 6
#     Node 86, Type 0, BuildingBlock: BETDAH_clean_sbu_0, # of connection points: 6
#     Node 87, Type 0, BuildingBlock: BETDAH_clean_sbu_0, # of connection points: 6
#     Node 88, Type 0, BuildingBlock: BETDAH_clean_sbu_0, # of connection points: 6
#     Node 89, Type 0, BuildingBlock: BETDAH_clean_sbu_0, # of connection points: 6
#     Node 90, Type 0, BuildingBlock: BETDAH_clean_sbu_0, # of connection points: 6
#     Node 91, Type 0, BuildingBlock: BETDAH_clean_sbu_0, # of connection points: 6
#     Node 92, Type 0, BuildingBlock: BETDAH_clean_sbu_0, # of connection points: 6
#     Node 93, Type 0, BuildingBlock: BETDAH_clean_sbu_0, # of connection points: 6
#     Node 94, Type 0, BuildingBlock: BETDAH_clean_sbu_0, # of connection points: 6
#     Node 95, Type 0, BuildingBlock: BETDAH_clean_sbu_0, # of connection points: 6
#     Edge 96, Type (0, 0), BuildingBlock: CIFDUS_clean_linker_0, # of connection points: 2
#     Edge 97, Type (0, 0), BuildingBlock: CIFDUS_clean_linker_0, # of connection points: 2
#     Edge 98, Type (0, 0), BuildingBlock: CIFDUS_clean_linker_0, # of connection points: 2
#     Edge 99, Type (0, 0), BuildingBlock: CIFDUS_clean_linker_0, # of connection points: 2
#     Edge 100, Type (0, 0), BuildingBlock: CIFDUS_clean_linker_0, # of connection points: 2
#     Edge 101, Type (0, 0), BuildingBlock: CIFDUS_clean_linker_0, # of connection points: 2
#     Edge 102, Type (0, 0), BuildingBlock: CIFDUS_clean_linker_0, # of connection points: 2
#     Edge 103, Type (0, 0), BuildingBlock: CIFDUS_clean_linker_0, # of connection points: 2
#     Edge 104, Type (0, 0), BuildingBlock: CIFDUS_clean_linker_0, # of connection points: 2
#     Edge 105, Type (0, 0), BuildingBlock: CIFDUS_clean_linker_0, # of connection points: 2
#     Edge 106, Type (0, 0), BuildingBlock: CIFDUS_clean_linker_0, # of connection points: 2
#     Edge 107, Type (0, 0), BuildingBlock: CIFDUS_clean_linker_0, # of connection points: 2
#     Edge 108, Type (0, 0), BuildingBlock: CIFDUS_clean_linker_0, # of connection points: 2
#     Edge 109, Type (0, 0), BuildingBlock: CIFDUS_clean_linker_0, # of connection points: 2
#     Edge 110, Type (0, 0), BuildingBlock: CIFDUS_clean_linker_0, # of connection points: 2
#     Edge 111, Type (0, 0), BuildingBlock: CIFDUS_clean_linker_0, # of connection points: 2
#     Edge 112, Type (0, 0), BuildingBlock: CIFDUS_clean_linker_0, # of connection points: 2
#     Edge 113, Type (0, 0), BuildingBlock: CIFDUS_clean_linker_0, # of connection points: 2
#     Edge 114, Type (0, 0), BuildingBlock: CIFDUS_clean_linker_0, # of connection points: 2
#     Edge 115, Type (0, 0), BuildingBlock: CIFDUS_clean_linker_0, # of connection points: 2
#     Edge 116, Type (0, 0), BuildingBlock: CIFDUS_clean_linker_0, # of connection points: 2
#     Edge 117, Type (0, 0), BuildingBlock: CIFDUS_clean_linker_0, # of connection points: 2
#     Edge 118, Type (0, 0), BuildingBlock: CIFDUS_clean_linker_0, # of connection points: 2
#     Edge 119, Type (0, 0), BuildingBlock: CIFDUS_clean_linker_0, # of connection points: 2
#     Edge 120, Type (0, 0), BuildingBlock: CIFDUS_clean_linker_0, # of connection points: 2
#     Edge 121, Type (0, 0), BuildingBlock: CIFDUS_clean_linker_0, # of connection points: 2
#     Edge 122, Type (0, 0), BuildingBlock: CIFDUS_clean_linker_0, # of connection points: 2
#     Edge 123, Type (0, 0), BuildingBlock: CIFDUS_clean_linker_0, # of connection points: 2
#     Edge 124, Type (0, 0), BuildingBlock: CIFDUS_clean_linker_0, # of connection points: 2
#     Edge 125, Type (0, 0), BuildingBlock: CIFDUS_clean_linker_0, # of connection points: 2
#     Edge 126, Type (0, 0), BuildingBlock: CIFDUS_clean_linker_0, # of connection points: 2
#     Edge 127, Type (0, 0), BuildingBlock: CIFDUS_clean_linker_0, # of connection points: 2
#     Edge 128, Type (0, 0), BuildingBlock: CIFDUS_clean_linker_0, # of connection points: 2
#     Edge 129, Type (0, 0), BuildingBlock: CIFDUS_clean_linker_0, # of connection points: 2
#     Edge 130, Type (0, 0), BuildingBlock: CIFDUS_clean_linker_0, # of connection points: 2
#     Edge 131, Type (0, 0), BuildingBlock: CIFDUS_clean_linker_0, # of connection points: 2
#     Edge 132, Type (0, 0), BuildingBlock: CIFDUS_clean_linker_0, # of connection points: 2
#     Edge 133, Type (0, 0), BuildingBlock: CIFDUS_clean_linker_0, # of connection points: 2
#     Edge 134, Type (0, 0), BuildingBlock: CIFDUS_clean_linker_0, # of connection points: 2
#     Edge 135, Type (0, 0), BuildingBlock: CIFDUS_clean_linker_0, # of connection points: 2
#     Edge 136, Type (0, 0), BuildingBlock: CIFDUS_clean_linker_0, # of connection points: 2
#     Edge 137, Type (0, 0), BuildingBlock: CIFDUS_clean_linker_0, # of connection points: 2
#     Edge 138, Type (0, 0), BuildingBlock: CIFDUS_clean_linker_0, # of connection points: 2
#     Edge 139, Type (0, 0), BuildingBlock: CIFDUS_clean_linker_0, # of connection points: 2
#     Edge 140, Type (0, 0), BuildingBlock: CIFDUS_clean_linker_0, # of connection points: 2
#     Edge 141, Type (0, 0), BuildingBlock: CIFDUS_clean_linker_0, # of connection points: 2
#     Edge 142, Type (0, 0), BuildingBlock: CIFDUS_clean_linker_0, # of connection points: 2
#     Edge 143, Type (0, 0), BuildingBlock: CIFDUS_clean_linker_0, # of connection points: 2
#     Edge 144, Type (0, 0), BuildingBlock: CIFDUS_clean_linker_0, # of connection points: 2
#     Edge 145, Type (0, 0), BuildingBlock: CIFDUS_clean_linker_0, # of connection points: 2
#     Edge 146, Type (0, 0), BuildingBlock: CIFDUS_clean_linker_0, # of connection points: 2
#     Edge 147, Type (0, 0), BuildingBlock: CIFDUS_clean_linker_0, # of connection points: 2
#     Edge 148, Type (0, 0), BuildingBlock: CIFDUS_clean_linker_0, # of connection points: 2
#     Edge 149, Type (0, 0), BuildingBlock: CIFDUS_clean_linker_0, # of connection points: 2
#     Edge 150, Type (0, 0), BuildingBlock: CIFDUS_clean_linker_0, # of connection points: 2
#     Edge 151, Type (0, 0), BuildingBlock: CIFDUS_clean_linker_0, # of connection points: 2
#     Edge 152, Type (0, 0), BuildingBlock: CIFDUS_clean_linker_0, # of connection points: 2
#     Edge 153, Type (0, 0), BuildingBlock: CIFDUS_clean_linker_0, # of connection points: 2
#     Edge 154, Type (0, 0), BuildingBlock: CIFDUS_clean_linker_0, # of connection points: 2
#     Edge 155, Type (0, 0), BuildingBlock: CIFDUS_clean_linker_0, # of connection points: 2
#     Edge 156, Type (0, 0), BuildingBlock: CIFDUS_clean_linker_0, # of connection points: 2
#     Edge 157, Type (0, 0), BuildingBlock: CIFDUS_clean_linker_0, # of connection points: 2
#     Edge 158, Type (0, 0), BuildingBlock: CIFDUS_clean_linker_0, # of connection points: 2
#     Edge 159, Type (0, 0), BuildingBlock: CIFDUS_clean_linker_0, # of connection points: 2
#     Edge 160, Type (0, 0), BuildingBlock: CIFDUS_clean_linker_0, # of connection points: 2
#     Edge 161, Type (0, 0), BuildingBlock: CIFDUS_clean_linker_0, # of connection points: 2
#     Edge 162, Type (0, 0), BuildingBlock: CIFDUS_clean_linker_0, # of connection points: 2
#     Edge 163, Type (0, 0), BuildingBlock: CIFDUS_clean_linker_0, # of connection points: 2
#     Edge 164, Type (0, 0), BuildingBlock: CIFDUS_clean_linker_0, # of connection points: 2
#     Edge 165, Type (0, 0), BuildingBlock: CIFDUS_clean_linker_0, # of connection points: 2
#     Edge 166, Type (0, 0), BuildingBlock: CIFDUS_clean_linker_0, # of connection points: 2
#     Edge 167, Type (0, 0), BuildingBlock: CIFDUS_clean_linker_0, # of connection points: 2
#     Edge 168, Type (0, 0), BuildingBlock: CIFDUS_clean_linker_0, # of connection points: 2
#     Edge 169, Type (0, 0), BuildingBlock: CIFDUS_clean_linker_0, # of connection points: 2
#     Edge 170, Type (0, 0), BuildingBlock: CIFDUS_clean_linker_0, # of connection points: 2
#     Edge 171, Type (0, 0), BuildingBlock: CIFDUS_clean_linker_0, # of connection points: 2
#     Edge 172, Type (0, 0), BuildingBlock: CIFDUS_clean_linker_0, # of connection points: 2
#     Edge 173, Type (0, 0), BuildingBlock: CIFDUS_clean_linker_0, # of connection points: 2
#     Edge 174, Type (0, 0), BuildingBlock: CIFDUS_clean_linker_0, # of connection points: 2
#     Edge 175, Type (0, 0), BuildingBlock: CIFDUS_clean_linker_0, # of connection points: 2
#     Edge 176, Type (0, 0), BuildingBlock: CIFDUS_clean_linker_0, # of connection points: 2
#     Edge 177, Type (0, 0), BuildingBlock: CIFDUS_clean_linker_0, # of connection points: 2
#     Edge 178, Type (0, 0), BuildingBlock: CIFDUS_clean_linker_0, # of connection points: 2
#     Edge 179, Type (0, 0), BuildingBlock: CIFDUS_clean_linker_0, # of connection points: 2
#     Edge 180, Type (0, 0), BuildingBlock: CIFDUS_clean_linker_0, # of connection points: 2
#     Edge 181, Type (0, 0), BuildingBlock: CIFDUS_clean_linker_0, # of connection points: 2
#     Edge 182, Type (0, 0), BuildingBlock: CIFDUS_clean_linker_0, # of connection points: 2
#     Edge 183, Type (0, 0), BuildingBlock: CIFDUS_clean_linker_0, # of connection points: 2
#     Edge 184, Type (0, 0), BuildingBlock: CIFDUS_clean_linker_0, # of connection points: 2
#     Edge 185, Type (0, 0), BuildingBlock: CIFDUS_clean_linker_0, # of connection points: 2
#     Edge 186, Type (0, 0), BuildingBlock: CIFDUS_clean_linker_0, # of connection points: 2
#     Edge 187, Type (0, 0), BuildingBlock: CIFDUS_clean_linker_0, # of connection points: 2
#     Edge 188, Type (0, 0), BuildingBlock: CIFDUS_clean_linker_0, # of connection points: 2
#     Edge 189, Type (0, 0), BuildingBlock: CIFDUS_clean_linker_0, # of connection points: 2
#     Edge 190, Type (0, 0), BuildingBlock: CIFDUS_clean_linker_0, # of connection points: 2
#     Edge 191, Type (0, 0), BuildingBlock: CIFDUS_clean_linker_0, # of connection points: 2
#     Edge 192, Type (0, 0), BuildingBlock: CIFDUS_clean_linker_0, # of connection points: 2
#     Edge 193, Type (0, 0), BuildingBlock: CIFDUS_clean_linker_0, # of connection points: 2
#     Edge 194, Type (0, 0), BuildingBlock: CIFDUS_clean_linker_0, # of connection points: 2
#     Edge 195, Type (0, 0), BuildingBlock: CIFDUS_clean_linker_0, # of connection points: 2
#     Edge 196, Type (0, 0), BuildingBlock: CIFDUS_clean_linker_0, # of connection points: 2
#     Edge 197, Type (0, 0), BuildingBlock: CIFDUS_clean_linker_0, # of connection points: 2
#     Edge 198, Type (0, 0), BuildingBlock: CIFDUS_clean_linker_0, # of connection points: 2
#     Edge 199, Type (0, 0), BuildingBlock: CIFDUS_clean_linker_0, # of connection points: 2
#     Edge 200, Type (0, 0), BuildingBlock: CIFDUS_clean_linker_0, # of connection points: 2
#     Edge 201, Type (0, 0), BuildingBlock: CIFDUS_clean_linker_0, # of connection points: 2
#     Edge 202, Type (0, 0), BuildingBlock: CIFDUS_clean_linker_0, # of connection points: 2
#     Edge 203, Type (0, 0), BuildingBlock: CIFDUS_clean_linker_0, # of connection points: 2
#     Edge 204, Type (0, 0), BuildingBlock: CIFDUS_clean_linker_0, # of connection points: 2
#     Edge 205, Type (0, 0), BuildingBlock: CIFDUS_clean_linker_0, # of connection points: 2
#     Edge 206, Type (0, 0), BuildingBlock: CIFDUS_clean_linker_0, # of connection points: 2
#     Edge 207, Type (0, 0), BuildingBlock: CIFDUS_clean_linker_0, # of connection points: 2
#     Edge 208, Type (0, 0), BuildingBlock: CIFDUS_clean_linker_0, # of connection points: 2
#     Edge 209, Type (0, 0), BuildingBlock: CIFDUS_clean_linker_0, # of connection points: 2
#     Edge 210, Type (0, 0), BuildingBlock: CIFDUS_clean_linker_0, # of connection points: 2
#     Edge 211, Type (0, 0), BuildingBlock: CIFDUS_clean_linker_0, # of connection points: 2
#     Edge 212, Type (0, 0), BuildingBlock: CIFDUS_clean_linker_0, # of connection points: 2
#     Edge 213, Type (0, 0), BuildingBlock: CIFDUS_clean_linker_0, # of connection points: 2
#     Edge 214, Type (0, 0), BuildingBlock: CIFDUS_clean_linker_0, # of connection points: 2
#     Edge 215, Type (0, 0), BuildingBlock: CIFDUS_clean_linker_0, # of connection points: 2
#     Edge 216, Type (0, 0), BuildingBlock: CIFDUS_clean_linker_0, # of connection points: 2
#     Edge 217, Type (0, 0), BuildingBlock: CIFDUS_clean_linker_0, # of connection points: 2
#     Edge 218, Type (0, 0), BuildingBlock: CIFDUS_clean_linker_0, # of connection points: 2
#     Edge 219, Type (0, 0), BuildingBlock: CIFDUS_clean_linker_0, # of connection points: 2
#     Edge 220, Type (0, 0), BuildingBlock: CIFDUS_clean_linker_0, # of connection points: 2
#     Edge 221, Type (0, 0), BuildingBlock: CIFDUS_clean_linker_0, # of connection points: 2
#     Edge 222, Type (0, 0), BuildingBlock: CIFDUS_clean_linker_0, # of connection points: 2
#     Edge 223, Type (0, 0), BuildingBlock: CIFDUS_clean_linker_0, # of connection points: 2
#     Edge 224, Type (0, 0), BuildingBlock: CIFDUS_clean_linker_0, # of connection points: 2
#     Edge 225, Type (0, 0), BuildingBlock: CIFDUS_clean_linker_0, # of connection points: 2
#     Edge 226, Type (0, 0), BuildingBlock: CIFDUS_clean_linker_0, # of connection points: 2
#     Edge 227, Type (0, 0), BuildingBlock: CIFDUS_clean_linker_0, # of connection points: 2
#     Edge 228, Type (0, 0), BuildingBlock: CIFDUS_clean_linker_0, # of connection points: 2
#     Edge 229, Type (0, 0), BuildingBlock: CIFDUS_clean_linker_0, # of connection points: 2
#     Edge 230, Type (0, 0), BuildingBlock: CIFDUS_clean_linker_0, # of connection points: 2
#     Edge 231, Type (0, 0), BuildingBlock: CIFDUS_clean_linker_0, # of connection points: 2
#     Edge 232, Type (0, 0), BuildingBlock: CIFDUS_clean_linker_0, # of connection points: 2
#     Edge 233, Type (0, 0), BuildingBlock: CIFDUS_clean_linker_0, # of connection points: 2
#     Edge 234, Type (0, 0), BuildingBlock: CIFDUS_clean_linker_0, # of connection points: 2
#     Edge 235, Type (0, 0), BuildingBlock: CIFDUS_clean_linker_0, # of connection points: 2
#     Edge 236, Type (0, 0), BuildingBlock: CIFDUS_clean_linker_0, # of connection points: 2
#     Edge 237, Type (0, 0), BuildingBlock: CIFDUS_clean_linker_0, # of connection points: 2
#     Edge 238, Type (0, 0), BuildingBlock: CIFDUS_clean_linker_0, # of connection points: 2
#     Edge 239, Type (0, 0), BuildingBlock: CIFDUS_clean_linker_0, # of connection points: 2
#     Edge 240, Type (0, 0), BuildingBlock: CIFDUS_clean_linker_0, # of connection points: 2
#     Edge 241, Type (0, 0), BuildingBlock: CIFDUS_clean_linker_0, # of connection points: 2
#     Edge 242, Type (0, 0), BuildingBlock: CIFDUS_clean_linker_0, # of connection points: 2
#     Edge 243, Type (0, 0), BuildingBlock: CIFDUS_clean_linker_0, # of connection points: 2
#     Edge 244, Type (0, 0), BuildingBlock: CIFDUS_clean_linker_0, # of connection points: 2
#     Edge 245, Type (0, 0), BuildingBlock: CIFDUS_clean_linker_0, # of connection points: 2
#     Edge 246, Type (0, 0), BuildingBlock: CIFDUS_clean_linker_0, # of connection points: 2
#     Edge 247, Type (0, 0), BuildingBlock: CIFDUS_clean_linker_0, # of connection points: 2
#     Edge 248, Type (0, 0), BuildingBlock: CIFDUS_clean_linker_0, # of connection points: 2
#     Edge 249, Type (0, 0), BuildingBlock: CIFDUS_clean_linker_0, # of connection points: 2
#     Edge 250, Type (0, 0), BuildingBlock: CIFDUS_clean_linker_0, # of connection points: 2
#     Edge 251, Type (0, 0), BuildingBlock: CIFDUS_clean_linker_0, # of connection points: 2
#     Edge 252, Type (0, 0), BuildingBlock: CIFDUS_clean_linker_0, # of connection points: 2
#     Edge 253, Type (0, 0), BuildingBlock: CIFDUS_clean_linker_0, # of connection points: 2
#     Edge 254, Type (0, 0), BuildingBlock: CIFDUS_clean_linker_0, # of connection points: 2
#     Edge 255, Type (0, 0), BuildingBlock: CIFDUS_clean_linker_0, # of connection points: 2
#     Edge 256, Type (0, 0), BuildingBlock: CIFDUS_clean_linker_0, # of connection points: 2
#     Edge 257, Type (0, 0), BuildingBlock: CIFDUS_clean_linker_0, # of connection points: 2
#     Edge 258, Type (0, 0), BuildingBlock: CIFDUS_clean_linker_0, # of connection points: 2
#     Edge 259, Type (0, 0), BuildingBlock: CIFDUS_clean_linker_0, # of connection points: 2
#     Edge 260, Type (0, 0), BuildingBlock: CIFDUS_clean_linker_0, # of connection points: 2
#     Edge 261, Type (0, 0), BuildingBlock: CIFDUS_clean_linker_0, # of connection points: 2
#     Edge 262, Type (0, 0), BuildingBlock: CIFDUS_clean_linker_0, # of connection points: 2
#     Edge 263, Type (0, 0), BuildingBlock: CIFDUS_clean_linker_0, # of connection points: 2
#     Edge 264, Type (0, 0), BuildingBlock: CIFDUS_clean_linker_0, # of connection points: 2
#     Edge 265, Type (0, 0), BuildingBlock: CIFDUS_clean_linker_0, # of connection points: 2
#     Edge 266, Type (0, 0), BuildingBlock: CIFDUS_clean_linker_0, # of connection points: 2
#     Edge 267, Type (0, 0), BuildingBlock: CIFDUS_clean_linker_0, # of connection points: 2
#     Edge 268, Type (0, 0), BuildingBlock: CIFDUS_clean_linker_0, # of connection points: 2
#     Edge 269, Type (0, 0), BuildingBlock: CIFDUS_clean_linker_0, # of connection points: 2
#     Edge 270, Type (0, 0), BuildingBlock: CIFDUS_clean_linker_0, # of connection points: 2
#     Edge 271, Type (0, 0), BuildingBlock: CIFDUS_clean_linker_0, # of connection points: 2
#     Edge 272, Type (0, 0), BuildingBlock: CIFDUS_clean_linker_0, # of connection points: 2
#     Edge 273, Type (0, 0), BuildingBlock: CIFDUS_clean_linker_0, # of connection points: 2
#     Edge 274, Type (0, 0), BuildingBlock: CIFDUS_clean_linker_0, # of connection points: 2
#     Edge 275, Type (0, 0), BuildingBlock: CIFDUS_clean_linker_0, # of connection points: 2
#     Edge 276, Type (0, 0), BuildingBlock: CIFDUS_clean_linker_0, # of connection points: 2
#     Edge 277, Type (0, 0), BuildingBlock: CIFDUS_clean_linker_0, # of connection points: 2
#     Edge 278, Type (0, 0), BuildingBlock: CIFDUS_clean_linker_0, # of connection points: 2
#     Edge 279, Type (0, 0), BuildingBlock: CIFDUS_clean_linker_0, # of connection points: 2
#     Edge 280, Type (0, 0), BuildingBlock: CIFDUS_clean_linker_0, # of connection points: 2
#     Edge 281, Type (0, 0), BuildingBlock: CIFDUS_clean_linker_0, # of connection points: 2
#     Edge 282, Type (0, 0), BuildingBlock: CIFDUS_clean_linker_0, # of connection points: 2
#     Edge 283, Type (0, 0), BuildingBlock: CIFDUS_clean_linker_0, # of connection points: 2
#     Edge 284, Type (0, 0), BuildingBlock: CIFDUS_clean_linker_0, # of connection points: 2
#     Edge 285, Type (0, 0), BuildingBlock: CIFDUS_clean_linker_0, # of connection points: 2
#     Edge 286, Type (0, 0), BuildingBlock: CIFDUS_clean_linker_0, # of connection points: 2
#     Edge 287, Type (0, 0), BuildingBlock: CIFDUS_clean_linker_0, # of connection points: 2
#     Edge 288, Type (0, 0), BuildingBlock: CIFDUS_clean_linker_0, # of connection points: 2
#     Edge 289, Type (0, 0), BuildingBlock: CIFDUS_clean_linker_0, # of connection points: 2
#     Edge 290, Type (0, 0), BuildingBlock: CIFDUS_clean_linker_0, # of connection points: 2
#     Edge 291, Type (0, 0), BuildingBlock: CIFDUS_clean_linker_0, # of connection points: 2
#     Edge 292, Type (0, 0), BuildingBlock: CIFDUS_clean_linker_0, # of connection points: 2
#     Edge 293, Type (0, 0), BuildingBlock: CIFDUS_clean_linker_0, # of connection points: 2
#     Edge 294, Type (0, 0), BuildingBlock: CIFDUS_clean_linker_0, # of connection points: 2
#     Edge 295, Type (0, 0), BuildingBlock: CIFDUS_clean_linker_0, # of connection points: 2
#     Edge 296, Type (0, 0), BuildingBlock: CIFDUS_clean_linker_0, # of connection points: 2
#     Edge 297, Type (0, 0), BuildingBlock: CIFDUS_clean_linker_0, # of connection points: 2
#     Edge 298, Type (0, 0), BuildingBlock: CIFDUS_clean_linker_0, # of connection points: 2
#     Edge 299, Type (0, 0), BuildingBlock: CIFDUS_clean_linker_0, # of connection points: 2
#     Edge 300, Type (0, 0), BuildingBlock: CIFDUS_clean_linker_0, # of connection points: 2
#     Edge 301, Type (0, 0), BuildingBlock: CIFDUS_clean_linker_0, # of connection points: 2
#     Edge 302, Type (0, 0), BuildingBlock: CIFDUS_clean_linker_0, # of connection points: 2
#     Edge 303, Type (0, 0), BuildingBlock: CIFDUS_clean_linker_0, # of connection points: 2
#     Edge 304, Type (0, 0), BuildingBlock: CIFDUS_clean_linker_0, # of connection points: 2
#     Edge 305, Type (0, 0), BuildingBlock: CIFDUS_clean_linker_0, # of connection points: 2
#     Edge 306, Type (0, 0), BuildingBlock: CIFDUS_clean_linker_0, # of connection points: 2
#     Edge 307, Type (0, 0), BuildingBlock: CIFDUS_clean_linker_0, # of connection points: 2
#     Edge 308, Type (0, 0), BuildingBlock: CIFDUS_clean_linker_0, # of connection points: 2
#     Edge 309, Type (0, 0), BuildingBlock: CIFDUS_clean_linker_0, # of connection points: 2
#     Edge 310, Type (0, 0), BuildingBlock: CIFDUS_clean_linker_0, # of connection points: 2
#     Edge 311, Type (0, 0), BuildingBlock: CIFDUS_clean_linker_0, # of connection points: 2
#     Edge 312, Type (0, 0), BuildingBlock: CIFDUS_clean_linker_0, # of connection points: 2
#     Edge 313, Type (0, 0), BuildingBlock: CIFDUS_clean_linker_0, # of connection points: 2
#     Edge 314, Type (0, 0), BuildingBlock: CIFDUS_clean_linker_0, # of connection points: 2
#     Edge 315, Type (0, 0), BuildingBlock: CIFDUS_clean_linker_0, # of connection points: 2
#     Edge 316, Type (0, 0), BuildingBlock: CIFDUS_clean_linker_0, # of connection points: 2
#     Edge 317, Type (0, 0), BuildingBlock: CIFDUS_clean_linker_0, # of connection points: 2
#     Edge 318, Type (0, 0), BuildingBlock: CIFDUS_clean_linker_0, # of connection points: 2
#     Edge 319, Type (0, 0), BuildingBlock: CIFDUS_clean_linker_0, # of connection points: 2
#     Edge 320, Type (0, 0), BuildingBlock: CIFDUS_clean_linker_0, # of connection points: 2
#     Edge 321, Type (0, 0), BuildingBlock: CIFDUS_clean_linker_0, # of connection points: 2
#     Edge 322, Type (0, 0), BuildingBlock: CIFDUS_clean_linker_0, # of connection points: 2
#     Edge 323, Type (0, 0), BuildingBlock: CIFDUS_clean_linker_0, # of connection points: 2
#     Edge 324, Type (0, 0), BuildingBlock: CIFDUS_clean_linker_0, # of connection points: 2
#     Edge 325, Type (0, 0), BuildingBlock: CIFDUS_clean_linker_0, # of connection points: 2
#     Edge 326, Type (0, 0), BuildingBlock: CIFDUS_clean_linker_0, # of connection points: 2
#     Edge 327, Type (0, 0), BuildingBlock: CIFDUS_clean_linker_0, # of connection points: 2
#     Edge 328, Type (0, 0), BuildingBlock: CIFDUS_clean_linker_0, # of connection points: 2
#     Edge 329, Type (0, 0), BuildingBlock: CIFDUS_clean_linker_0, # of connection points: 2
#     Edge 330, Type (0, 0), BuildingBlock: CIFDUS_clean_linker_0, # of connection points: 2
#     Edge 331, Type (0, 0), BuildingBlock: CIFDUS_clean_linker_0, # of connection points: 2
#     Edge 332, Type (0, 0), BuildingBlock: CIFDUS_clean_linker_0, # of connection points: 2
#     Edge 333, Type (0, 0), BuildingBlock: CIFDUS_clean_linker_0, # of connection points: 2
#     Edge 334, Type (0, 0), BuildingBlock: CIFDUS_clean_linker_0, # of connection points: 2
#     Edge 335, Type (0, 0), BuildingBlock: CIFDUS_clean_linker_0, # of connection points: 2
#     Edge 336, Type (0, 0), BuildingBlock: CIFDUS_clean_linker_0, # of connection points: 2
#     Edge 337, Type (0, 0), BuildingBlock: CIFDUS_clean_linker_0, # of connection points: 2
#     Edge 338, Type (0, 0), BuildingBlock: CIFDUS_clean_linker_0, # of connection points: 2
#     Edge 339, Type (0, 0), BuildingBlock: CIFDUS_clean_linker_0, # of connection points: 2
#     Edge 340, Type (0, 0), BuildingBlock: CIFDUS_clean_linker_0, # of connection points: 2
#     Edge 341, Type (0, 0), BuildingBlock: CIFDUS_clean_linker_0, # of connection points: 2
#     Edge 342, Type (0, 0), BuildingBlock: CIFDUS_clean_linker_0, # of connection points: 2
#     Edge 343, Type (0, 0), BuildingBlock: CIFDUS_clean_linker_0, # of connection points: 2
#     Edge 344, Type (0, 0), BuildingBlock: CIFDUS_clean_linker_0, # of connection points: 2
#     Edge 345, Type (0, 0), BuildingBlock: CIFDUS_clean_linker_0, # of connection points: 2
#     Edge 346, Type (0, 0), BuildingBlock: CIFDUS_clean_linker_0, # of connection points: 2
#     Edge 347, Type (0, 0), BuildingBlock: CIFDUS_clean_linker_0, # of connection points: 2
#     Edge 348, Type (0, 0), BuildingBlock: CIFDUS_clean_linker_0, # of connection points: 2
#     Edge 349, Type (0, 0), BuildingBlock: CIFDUS_clean_linker_0, # of connection points: 2
#     Edge 350, Type (0, 0), BuildingBlock: CIFDUS_clean_linker_0, # of connection points: 2
#     Edge 351, Type (0, 0), BuildingBlock: CIFDUS_clean_linker_0, # of connection points: 2
#     Edge 352, Type (0, 0), BuildingBlock: CIFDUS_clean_linker_0, # of connection points: 2
#     Edge 353, Type (0, 0), BuildingBlock: CIFDUS_clean_linker_0, # of connection points: 2
#     Edge 354, Type (0, 0), BuildingBlock: CIFDUS_clean_linker_0, # of connection points: 2
#     Edge 355, Type (0, 0), BuildingBlock: CIFDUS_clean_linker_0, # of connection points: 2
#     Edge 356, Type (0, 0), BuildingBlock: CIFDUS_clean_linker_0, # of connection points: 2
#     Edge 357, Type (0, 0), BuildingBlock: CIFDUS_clean_linker_0, # of connection points: 2
#     Edge 358, Type (0, 0), BuildingBlock: CIFDUS_clean_linker_0, # of connection points: 2
#     Edge 359, Type (0, 0), BuildingBlock: CIFDUS_clean_linker_0, # of connection points: 2
#     Edge 360, Type (0, 0), BuildingBlock: CIFDUS_clean_linker_0, # of connection points: 2
#     Edge 361, Type (0, 0), BuildingBlock: CIFDUS_clean_linker_0, # of connection points: 2
#     Edge 362, Type (0, 0), BuildingBlock: CIFDUS_clean_linker_0, # of connection points: 2
#     Edge 363, Type (0, 0), BuildingBlock: CIFDUS_clean_linker_0, # of connection points: 2
#     Edge 364, Type (0, 0), BuildingBlock: CIFDUS_clean_linker_0, # of connection points: 2
#     Edge 365, Type (0, 0), BuildingBlock: CIFDUS_clean_linker_0, # of connection points: 2
#     Edge 366, Type (0, 0), BuildingBlock: CIFDUS_clean_linker_0, # of connection points: 2
#     Edge 367, Type (0, 0), BuildingBlock: CIFDUS_clean_linker_0, # of connection points: 2
#     Edge 368, Type (0, 0), BuildingBlock: CIFDUS_clean_linker_0, # of connection points: 2
#     Edge 369, Type (0, 0), BuildingBlock: CIFDUS_clean_linker_0, # of connection points: 2
#     Edge 370, Type (0, 0), BuildingBlock: CIFDUS_clean_linker_0, # of connection points: 2
#     Edge 371, Type (0, 0), BuildingBlock: CIFDUS_clean_linker_0, # of connection points: 2
#     Edge 372, Type (0, 0), BuildingBlock: CIFDUS_clean_linker_0, # of connection points: 2
#     Edge 373, Type (0, 0), BuildingBlock: CIFDUS_clean_linker_0, # of connection points: 2
#     Edge 374, Type (0, 0), BuildingBlock: CIFDUS_clean_linker_0, # of connection points: 2
#     Edge 375, Type (0, 0), BuildingBlock: CIFDUS_clean_linker_0, # of connection points: 2
#     Edge 376, Type (0, 0), BuildingBlock: CIFDUS_clean_linker_0, # of connection points: 2
#     Edge 377, Type (0, 0), BuildingBlock: CIFDUS_clean_linker_0, # of connection points: 2
#     Edge 378, Type (0, 0), BuildingBlock: CIFDUS_clean_linker_0, # of connection points: 2
#     Edge 379, Type (0, 0), BuildingBlock: CIFDUS_clean_linker_0, # of connection points: 2
#     Edge 380, Type (0, 0), BuildingBlock: CIFDUS_clean_linker_0, # of connection points: 2
#     Edge 381, Type (0, 0), BuildingBlock: CIFDUS_clean_linker_0, # of connection points: 2
#     Edge 382, Type (0, 0), BuildingBlock: CIFDUS_clean_linker_0, # of connection points: 2
#     Edge 383, Type (0, 0), BuildingBlock: CIFDUS_clean_linker_0, # of connection points: 2
# Relax obj value: 0.503
# Max RMSD: 0.304
# Mean RMSD: 0.258
data_MOF--net-ana-e--node1-BETDAH_clean_sbu_0--edge1-CIFDUS_clean_linker_0
_symmetry_space_group_name_H-M    P1
_symmetry_Int_Tables_number       1
_symmetry_cell_setting            triclinic
loop_
_symmetry_equiv_pos_as_xyz
'x, y, z'
_cell_length_a     78.60955
_cell_length_b     81.351142
_cell_length_c     86.596413
_cell_angle_alpha  90.372419
_cell_angle_beta   91.629564
_cell_angle_gamma 88.11654
loop_
_atom_site_label
_atom_site_type_symbol
_atom_site_fract_x
_atom_site_fract_y
_atom_site_fract_z
_atom_type_partial_charge
Ho0 Ho 0.99734 0.11089 0.38748 0.0
Ho1 Ho 0.97297 0.12475 0.40865 0.0
C2 C 1.01102 0.1208 0.42329 0.0
C3 C 0.02294 0.10226 0.37083 0.0
C4 C 0.04079 0.10622 0.36932 0.0
C5 C 0.0485 0.11804 0.37883 0.0
C6 C 0.06556 0.12173 0.37685 0.0
C7 C 0.07494 0.11374 0.36525 0.0
C8 C 0.06705 0.10197 0.35578 0.0
C9 C 0.05011 0.09824 0.35781 0.0
C10 C 0.97528 0.08814 0.3972 0.0
C11 C 0.96124 0.12236 0.37115 0.0
C12 C 0.94535 0.13128 0.42335 0.0
C13 C 0.92982 0.14067 0.4183 0.0
C14 C 0.92056 0.13622 0.40486 0.0
C15 C 0.90936 0.1476 0.39755 0.0
C16 C 0.90706 0.16347 0.40377 0.0
C17 C 0.91487 0.16718 0.41814 0.0
C18 C 0.92612 0.15587 0.42534 0.0
C19 C 0.99394 0.14746 0.39791 0.0
O20 O 1.0148 0.1184 0.40845 0.0
O21 O 0.99465 0.12108 0.42695 0.0
O22 O 0.01906 0.09459 0.3834 0.0
O23 O 1.01191 0.11397 0.36704 0.0
O24 O 0.98095 0.08917 0.38343 0.0
O25 O 0.9822 0.09896 0.40578 0.0
O26 O 0.95689 0.12549 0.3857 0.0
O27 O 0.97718 0.11745 0.3685 0.0
O28 O 0.95895 0.13999 0.42475 0.0
O29 O 0.94846 0.11723 0.41644 0.0
O30 O 0.98762 0.14782 0.41154 0.0
O31 O 0.98742 0.13602 0.39005 0.0
H32 H 0.04135 0.1244 0.3877 0.0
H33 H 0.07136 0.1309 0.38424 0.0
H34 H 0.07407 0.09544 0.34692 0.0
H35 H 0.04428 0.08912 0.35039 0.0
H36 H 0.92279 0.12435 0.39946 0.0
H37 H 0.90316 0.14429 0.38669 0.0
H38 H 0.9134 0.17931 0.42325 0.0
H39 H 0.93298 0.15953 0.43577 0.0
Ho40 Ho 0.19259 0.784 0.66326 0.0
Ho41 Ho 0.16742 0.76147 0.68027 0.0
C42 C 0.18503 0.78852 0.70007 0.0
C43 C 0.20715 0.80995 0.65305 0.0
C44 C 0.20317 0.82765 0.64963 0.0
C45 C 0.19452 0.83824 0.65996 0.0
C46 C 0.19171 0.85505 0.65648 0.0
C47 C 0.19781 0.86169 0.64279 0.0
C48 C 0.20622 0.85098 0.63245 0.0
C49 C 0.20878 0.83423 0.6358 0.0
C50 C 0.20545 0.75322 0.66885 0.0
C51 C 0.16852 0.76132 0.64271 0.0
C52 C 0.14864 0.73746 0.6884 0.0
C53 C 0.13425 0.72839 0.68121 0.0
C54 C 0.13426 0.71116 0.68199 0.0
C55 C 0.12058 0.70239 0.67572 0.0
C56 C 0.10643 0.71063 0.66857 0.0
C57 C 0.10652 0.72792 0.66767 0.0
C58 C 0.12028 0.73668 0.67384 0.0
C59 C 0.15564 0.7919 0.67205 0.0
O60 O 0.18856 0.79531 0.68674 0.0
O61 O 0.17974 0.77325 0.70094 0.0
O62 O 0.20791 0.80537 0.66751 0.0
O63 O 0.19998 0.79906 0.64406 0.0
O64 O 0.21054 0.76293 0.65824 0.0
O65 O 0.19559 0.76127 0.67779 0.0
O66 O 0.16533 0.75333 0.65549 0.0
O67 O 0.17695 0.77514 0.64295 0.0
O68 O 0.14561 0.75284 0.69218 0.0
O69 O 0.16357 0.7352 0.6823 0.0
O70 O 0.1503 0.78438 0.68404 0.0
O71 O 0.16533 0.78239 0.66487 0.0
H72 H 0.18997 0.83356 0.67071 0.0
H73 H 0.18521 0.86295 0.6647 0.0
H74 H 0.21097 0.85562 0.62176 0.0
H75 H 0.21547 0.82642 0.62763 0.0
H76 H 0.14482 0.70445 0.6876 0.0
H77 H 0.12093 0.68912 0.67679 0.0
H78 H 0.096 0.73469 0.66208 0.0
H79 H 0.11992 0.74995 0.6729 0.0
Ho80 Ho 0.52846 0.89755 0.86355 0.0
Ho81 Ho 0.52854 0.89799 0.89297 0.0
C82 C 0.55524 0.87085 0.87755 0.0
C83 C 0.5271 0.90826 0.83544 0.0
C84 C 0.53753 0.91058 0.82206 0.0
C85 C 0.55506 0.91257 0.82381 0.0
C86 C 0.56514 0.91213 0.81087 0.0
C87 C 0.55782 0.90955 0.79604 0.0
C88 C 0.54011 0.90849 0.79429 0.0
C89 C 0.53 0.90906 0.80727 0.0
C90 C 0.51167 0.87058 0.87173 0.0
C91 C 0.49139 0.91005 0.87765 0.0
C92 C 0.52689 0.89414 0.9225 0.0
C93 C 0.5118 0.8902 0.9312 0.0
C94 C 0.49771 0.88358 0.92331 0.0
C95 C 0.48193 0.88339 0.93025 0.0
C96 C 0.48001 0.88967 0.94526 0.0
C97 C 0.49438 0.89521 0.95356 0.0
C98 C 0.51017 0.8956 0.9465 0.0
C99 C 0.54959 0.92364 0.88326 0.0
O100 O 0.55144 0.87953 0.86491 0.0
O101 O 0.54717 0.87527 0.89029 0.0
O102 O 0.525 0.89299 0.83916 0.0
O103 O 0.52983 0.9177 0.84748 0.0
O104 O 0.52283 0.87086 0.86102 0.0
O105 O 0.51025 0.88466 0.878 0.0
O106 O 0.49909 0.90425 0.89045 0.0
O107 O 0.5015 0.91051 0.86564 0.0
O108 O 0.52573 0.90845 0.91582 0.0
O109 O 0.53267 0.88266 0.91324 0.0
O110 O 0.5366 0.92495 0.89214 0.0
O111 O 0.54948 0.90872 0.87841 0.0
H112 H 0.56105 0.9136 0.83519 0.0
H113 H 0.57882 0.91263 0.81262 0.0
H114 H 0.53421 0.90645 0.78301 0.0
H115 H 0.51641 0.90749 0.80583 0.0
H116 H 0.49866 0.87942 0.91145 0.0
H117 H 0.47107 0.87896 0.92366 0.0
H118 H 0.49317 0.90021 0.96511 0.0
H119 H 0.52084 0.90094 0.95268 0.0
Ho120 Ho 0.38419 0.26749 0.12872 0.0
Ho121 Ho 0.40681 0.28251 0.14514 0.0
C122 C 0.38544 0.25853 0.16504 0.0
C123 C 0.36345 0.24668 0.11656 0.0
C124 C 0.36029 0.22981 0.1212 0.0
C125 C 0.37301 0.22074 0.12942 0.0
C126 C 0.36954 0.20547 0.1355 0.0
C127 C 0.35327 0.199 0.13353 0.0
C128 C 0.34062 0.20797 0.12504 0.0
C129 C 0.34411 0.22334 0.11896 0.0
C130 C 0.37057 0.29821 0.13763 0.0
C131 C 0.40412 0.29204 0.10794 0.0
C132 C 0.42721 0.3031 0.15849 0.0
C133 C 0.43913 0.31541 0.15347 0.0
C134 C 0.43589 0.32478 0.14008 0.0
C135 C 0.4482 0.33525 0.13477 0.0
C136 C 0.46393 0.33652 0.14279 0.0
C137 C 0.46689 0.3274 0.15641 0.0
C138 C 0.4546 0.31695 0.16167 0.0
C139 C 0.41927 0.25035 0.14194 0.0
O140 O 0.38226 0.25255 0.15109 0.0
O141 O 0.39332 0.27263 0.16587 0.0
O142 O 0.3589 0.25783 0.12659 0.0
O143 O 0.37852 0.24916 0.11126 0.0
O144 O 0.37063 0.29237 0.1237 0.0
O145 O 0.3788 0.28774 0.14607 0.0
O146 O 0.41041 0.29596 0.1218 0.0
O147 O 0.39395 0.2795 0.10721 0.0
O148 O 0.43151 0.28794 0.15523 0.0
O149 O 0.41102 0.30625 0.15589 0.0
O150 O 0.41913 0.25923 0.15434 0.0
O151 O 0.41213 0.2591 0.13095 0.0
H152 H 0.38556 0.2256 0.1314 0.0
H153 H 0.37963 0.19871 0.14173 0.0
H154 H 0.32796 0.20328 0.12342 0.0
H155 H 0.3341 0.23032 0.11285 0.0
H156 H 0.42399 0.32382 0.13358 0.0
H157 H 0.44545 0.34224 0.12435 0.0
H158 H 0.47896 0.32788 0.16273 0.0
H159 H 0.45737 0.30973 0.17197 0.0
Ho160 Ho 1.00952 0.89345 0.13944 0.0
Ho161 Ho 0.99593 0.87532 0.11962 0.0
C162 C 0.02214 0.89626 0.10336 0.0
C163 C 0.02972 0.91023 0.15732 0.0
C164 C 0.04353 0.90653 0.16858 0.0
C165 C 0.05438 0.89267 0.16676 0.0
C166 C 0.06924 0.89092 0.17586 0.0
C167 C 0.07338 0.90296 0.18697 0.0
C168 C 0.06151 0.91586 0.18983 0.0
C169 C 0.04674 0.91769 0.1806 0.0
C170 C 0.98074 0.91058 0.12788 0.0
C171 C 0.98032 0.87392 0.15442 0.0
C172 C 0.97613 0.85633 0.1037 0.0
C173 C 0.9672 0.84145 0.10797 0.0
C174 C 0.95476 0.84203 0.11934 0.0
C175 C 0.94763 0.8276 0.12435 0.0
C176 C 0.95277 0.81231 0.11811 0.0
C177 C 0.96495 0.81178 0.10653 0.0
C178 C 0.97206 0.82622 0.10148 0.0
C179 C 0.02627 0.85946 0.12986 0.0
O180 O 0.02696 0.89719 0.11823 0.0
O181 O 1.0073 0.88981 0.10049 0.0
O182 O 0.03278 0.90655 0.14302 0.0
O183 O 1.01462 0.90613 0.16114 0.0
O184 O 0.98503 0.90861 0.14218 0.0
O185 O 0.9919 0.90283 0.12005 0.0
O186 O 0.9771 0.8723 0.13942 0.0
O187 O 0.99519 0.88002 0.15818 0.0
O188 O 0.99264 0.85483 0.10382 0.0
O189 O 0.97096 0.87015 0.10992 0.0
O190 O 0.02138 0.86208 0.11572 0.0
O191 O 1.01501 0.86628 0.13845 0.0
H192 H 0.05192 0.88375 0.15768 0.0
H193 H 0.07811 0.88088 0.17326 0.0
H194 H 0.0642 0.92514 0.19851 0.0
H195 H 0.03829 0.92831 0.18231 0.0
H196 H 0.95067 0.85358 0.12453 0.0
H197 H 0.938 0.82844 0.13305 0.0
H198 H 0.96923 0.80016 0.10155 0.0
H199 H 0.98166 0.82546 0.09275 0.0
Ho200 Ho 0.41203 0.76969 0.39979 0.0
Ho201 Ho 0.40573 0.76911 0.37232 0.0
C202 C 0.43559 0.74265 0.38492 0.0
C203 C 0.40816 0.76894 0.42942 0.0
C204 C 0.40819 0.75574 0.44083 0.0
C205 C 0.40879 0.73928 0.43596 0.0
C206 C 0.40989 0.72668 0.44681 0.0
C207 C 0.41038 0.7303 0.46273 0.0
C208 C 0.4096 0.74685 0.46755 0.0
C209 C 0.4085 0.75949 0.45665 0.0
C210 C 0.43723 0.78858 0.3873 0.0
C211 C 0.39396 0.80413 0.38795 0.0
C212 C 0.40296 0.7672 0.34245 0.0
C213 C 0.40315 0.77819 0.32912 0.0
C214 C 0.41596 0.78959 0.32732 0.0
C215 C 0.41522 0.80027 0.31472 0.0
C216 C 0.40157 0.79979 0.30385 0.0
C217 C 0.38879 0.78836 0.30581 0.0
C218 C 0.38966 0.77761 0.31825 0.0
C219 C 0.38106 0.74883 0.38505 0.0
O220 O 0.42889 0.74661 0.39819 0.0
O221 O 0.42948 0.75102 0.37274 0.0
O222 O 0.42272 0.77099 0.42301 0.0
O223 O 0.39548 0.76925 0.41934 0.0
O224 O 0.4394 0.7776 0.39802 0.0
O225 O 0.42164 0.78864 0.38299 0.0
O226 O 0.39866 0.79731 0.37468 0.0
O227 O 0.39581 0.79413 0.39991 0.0
O228 O 0.39014 0.76959 0.35143 0.0
O229 O 0.41722 0.76436 0.35019 0.0
O230 O 0.37826 0.76226 0.37729 0.0
O231 O 0.39725 0.74864 0.38805 0.0
H232 H 0.40872 0.7362 0.42377 0.0
H233 H 0.41082 0.71409 0.44269 0.0
H234 H 0.40986 0.75001 0.47972 0.0
H235 H 0.40812 0.77217 0.46056 0.0
H236 H 0.42645 0.79033 0.33566 0.0
H237 H 0.42535 0.80882 0.31346 0.0
H238 H 0.37791 0.78789 0.29789 0.0
H239 H 0.37958 0.76898 0.31954 0.0
Ho240 Ho 0.5215 0.13284 0.66873 0.0
Ho241 Ho 0.51268 0.13851 0.6378 0.0
C242 C 0.54214 0.16116 0.64972 0.0
C243 C 0.5379 0.1214 0.69294 0.0
C244 C 0.53883 0.1229 0.70981 0.0
C245 C 0.54811 0.11081 0.71815 0.0
C246 C 0.55221 0.11324 0.73373 0.0
C247 C 0.54705 0.12785 0.74134 0.0
C248 C 0.53669 0.13947 0.73316 0.0
C249 C 0.53264 0.13703 0.71747 0.0
C250 C 0.50021 0.15892 0.66818 0.0
C251 C 0.48118 0.12666 0.65899 0.0
C252 C 0.50019 0.14124 0.61 0.0
C253 C 0.49405 0.12925 0.59846 0.0
C254 C 0.47825 0.12192 0.6 0.0
C255 C 0.47169 0.11202 0.58824 0.0
C256 C 0.48076 0.10926 0.57466 0.0
C257 C 0.49719 0.11545 0.5737 0.0
C258 C 0.50372 0.12546 0.58545 0.0
C259 C 0.53672 0.11288 0.64143 0.0
O260 O 0.54309 0.15005 0.66106 0.0
O261 O 0.52911 0.16071 0.63979 0.0
O262 O 0.52472 0.11433 0.68666 0.0
O263 O 0.54238 0.13421 0.68526 0.0
O264 O 0.50343 0.14976 0.68019 0.0
O265 O 0.51081 0.15552 0.6577 0.0
O266 O 0.48668 0.13024 0.64515 0.0
O267 O 0.49278 0.12556 0.67064 0.0
O268 O 0.51648 0.14076 0.61323 0.0
O269 O 0.49115 0.14333 0.62229 0.0
O270 O 0.53716 0.12473 0.63171 0.0
O271 O 0.52325 0.11517 0.64915 0.0
H272 H 0.55307 0.09988 0.71237 0.0
H273 H 0.56045 0.10412 0.73948 0.0
H274 H 0.53231 0.15075 0.73869 0.0
H275 H 0.52542 0.14651 0.71116 0.0
H276 H 0.47053 0.12443 0.60996 0.0
H277 H 0.4589 0.10767 0.58929 0.0
H278 H 0.50451 0.11343 0.5634 0.0
H279 H 0.51603 0.13079 0.58405 0.0
Ho280 Ho 0.17486 0.28041 0.90479 0.0
Ho281 Ho 0.16386 0.30773 0.88259 0.0
C282 C 0.16569 0.27171 0.86699 0.0
C283 C 0.17817 0.25378 0.92092 0.0
C284 C 0.17625 0.23608 0.91842 0.0
C285 C 0.16415 0.23004 0.90774 0.0
C286 C 0.16241 0.21308 0.90586 0.0
C287 C 0.17287 0.20197 0.91451 0.0
C288 C 0.18489 0.20816 0.9252 0.0
C289 C 0.18656 0.22506 0.92711 0.0
C290 C 0.19987 0.29539 0.89038 0.0
C291 C 0.17126 0.31727 0.92008 0.0
C292 C 0.16138 0.33658 0.87169 0.0
C293 C 0.15244 0.3491 0.88091 0.0
C294 C 0.15289 0.3659 0.87781 0.0
C295 C 0.14147 0.3767 0.88522 0.0
C296 C 0.12919 0.37054 0.89499 0.0
C297 C 0.13169 0.35461 0.90069 0.0
C298 C 0.14249 0.34371 0.89304 0.0
C299 C 0.138 0.29231 0.89513 0.0
O300 O 0.16698 0.26639 0.88175 0.0
O301 O 0.16631 0.28777 0.86412 0.0
O302 O 0.19087 0.26045 0.91418 0.0
O303 O 0.16423 0.26288 0.92 0.0
O304 O 0.2011 0.29134 0.90487 0.0
O305 O 0.1859 0.29123 0.88465 0.0
O306 O 0.1699 0.32166 0.90532 0.0
O307 O 0.17247 0.30122 0.92337 0.0
O308 O 0.15159 0.32488 0.86652 0.0
O309 O 0.17563 0.33087 0.87813 0.0
O310 O 0.13706 0.29914 0.88164 0.0
O311 O 0.15186 0.29589 0.90178 0.0
H312 H 0.15605 0.2384 0.90091 0.0
H313 H 0.15307 0.20867 0.89752 0.0
H314 H 0.19289 0.19993 0.93227 0.0
H315 H 0.19586 0.22953 0.93547 0.0
H316 H 0.16092 0.37039 0.86892 0.0
H317 H 0.14034 0.38924 0.88148 0.0
H318 H 0.12268 0.3496 0.90852 0.0
H319 H 0.1418 0.33078 0.89566 0.0
Ho320 Ho 0.36732 0.03032 0.14654 0.0
Ho321 Ho 0.39454 1.00582 0.13747 0.0
C322 C 0.40765 0.04349 0.13986 0.0
C323 C 0.34871 0.05314 0.15934 0.0
C324 C 0.34623 0.07103 0.15757 0.0
C325 C 0.35988 0.08164 0.15958 0.0
C326 C 0.35751 0.09839 0.15663 0.0
C327 C 0.34152 0.10481 0.15155 0.0
C328 C 0.32779 0.09428 0.14994 0.0
C329 C 0.33012 0.07753 0.15303 0.0
C330 C 0.3684 0.02519 0.11608 0.0
C331 C 0.35565 0.99112 0.14387 0.0
C332 C 0.41264 0.98399 0.12284 0.0
C333 C 0.4099 0.96681 0.11859 0.0
C334 C 0.42328 0.9552 0.12073 0.0
C335 C 0.4196 0.93886 0.12364 0.0
C336 C 0.40254 0.9346 0.12537 0.0
C337 C 0.38963 0.94515 0.11917 0.0
C338 C 0.39326 0.96142 0.11608 0.0
C339 C 0.39313 1.01389 0.16808 0.0
O340 O 0.39192 0.04711 0.14529 0.0
O341 O 0.41091 0.02821 0.13494 0.0
O342 O 0.34347 0.04428 0.14764 0.0
O343 O 0.3634 0.0478 0.165 0.0
O344 O 0.35453 0.02839 0.12331 0.0
O345 O 0.38112 0.02603 0.12518 0.0
O346 O 0.37118 0.98869 0.13801 0.0
O347 O 0.35168 1.00623 0.1494 0.0
O348 O 0.41439 0.98675 0.13773 0.0
O349 O 0.40247 0.99486 0.11599 0.0
O350 O 0.40721 1.01167 0.16069 0.0
O351 O 0.38096 1.01078 0.15889 0.0
H352 H 0.37247 0.07698 0.16301 0.0
H353 H 0.36836 0.10622 0.15775 0.0
H354 H 0.31532 0.09898 0.14615 0.0
H355 H 0.31941 0.06956 0.15148 0.0
H356 H 0.43628 0.95907 0.12219 0.0
H357 H 0.42989 0.93057 0.12752 0.0
H358 H 0.37639 0.94192 0.11943 0.0
H359 H 0.38277 0.9701 0.11375 0.0
Ho360 Ho 0.25523 0.12359 0.36213 0.0
Ho361 Ho 0.28038 0.14578 0.37523 0.0
C362 C 0.24344 0.16223 0.36872 0.0
C363 C 0.22826 0.10777 0.35443 0.0
C364 C 0.21029 0.10961 0.35828 0.0
C365 C 0.20505 0.12064 0.36987 0.0
C366 C 0.18784 0.12252 0.37329 0.0
C367 C 0.17566 0.11355 0.36496 0.0
C368 C 0.18099 0.10247 0.3534 0.0
C369 C 0.1982 0.1005 0.35011 0.0
C370 C 0.27674 0.13555 0.34099 0.0
C371 C 0.29091 0.10544 0.37283 0.0
C372 C 0.30768 0.16108 0.38267 0.0
C373 C 0.32076 0.15559 0.39417 0.0
C374 C 0.32475 0.16578 0.40676 0.0
C375 C 0.33151 0.15893 0.42046 0.0
C376 C 0.33378 0.14171 0.4219 0.0
C377 C 0.33186 0.13194 0.40856 0.0
C378 C 0.32575 0.1389 0.39479 0.0
C379 C 0.25874 0.13607 0.39659 0.0
O380 O 0.23864 0.14667 0.36873 0.0
O381 O 0.25999 0.16501 0.36807 0.0
O382 O 0.23411 0.11957 0.34616 0.0
O383 O 0.23865 0.10341 0.36581 0.0
O384 O 0.27184 0.12053 0.34119 0.0
O385 O 0.26984 0.14361 0.35174 0.0
O386 O 0.29558 0.12089 0.37525 0.0
O387 O 0.27491 0.10283 0.36834 0.0
O388 O 0.29293 0.16465 0.38859 0.0
O389 O 0.30621 0.15212 0.37014 0.0
O390 O 0.26603 0.15005 0.39672 0.0
O391 O 0.26472 0.1269 0.38602 0.0
H392 H 0.21421 0.12786 0.37622 0.0
H393 H 0.18404 0.13119 0.38219 0.0
H394 H 0.17183 0.09528 0.34694 0.0
H395 H 0.20207 0.09194 0.34112 0.0
H396 H 0.32132 0.17879 0.40646 0.0
H397 H 0.33387 0.16706 0.43017 0.0
H398 H 0.33364 0.11871 0.40887 0.0
H399 H 0.3235 0.13086 0.38505 0.0
Ho400 Ho 0.15931 0.03417 0.61246 0.0
Ho401 Ho 0.1346 0.05591 0.63115 0.0
C402 C 0.11971 0.02383 0.61715 0.0
C403 C 0.17552 1.00735 0.60382 0.0
C404 C 0.17578 0.98993 0.6091 0.0
C405 C 0.16398 0.98445 0.61965 0.0
C406 C 0.16477 0.96815 0.62501 0.0
C407 C 0.17734 0.95673 0.6199 0.0
C408 C 0.18893 0.96229 0.60904 0.0
C409 C 0.18821 0.97864 0.60381 0.0
C410 C 0.14533 0.0601 0.59589 0.0
C411 C 0.17565 0.06413 0.63184 0.0
C412 C 0.11862 0.08011 0.64469 0.0
C413 C 0.12297 0.09115 0.65793 0.0
C414 C 0.13615 0.10239 0.65718 0.0
C415 C 0.1411 0.11153 0.67024 0.0
C416 C 0.1329 0.10981 0.68437 0.0
C417 C 0.11922 0.09911 0.6849 0.0
C418 C 0.11434 0.08991 0.67186 0.0
C419 C 0.14917 0.02973 0.64613 0.0
O420 O 0.1359 0.01892 0.61619 0.0
O421 O 0.11553 0.03942 0.62001 0.0
O422 O 0.16145 1.01301 0.59709 0.0
O423 O 0.18188 0.01802 0.61352 0.0
O424 O 0.16017 0.05307 0.5935 0.0
O425 O 0.13781 0.05185 0.60594 0.0
O426 O 0.15961 0.06873 0.63443 0.0
O427 O 0.17929 0.05047 0.62388 0.0
O428 O 0.11667 0.06467 0.64812 0.0
O429 O 0.12694 0.08176 0.63192 0.0
O430 O 0.13382 0.03514 0.64869 0.0
O431 O 0.1558 0.03905 0.63679 0.0
H432 H 0.15423 0.99283 0.62394 0.0
H433 H 0.15566 0.96467 0.63343 0.0
H434 H 0.19853 0.95399 0.60435 0.0
H435 H 0.19741 0.98247 0.5956 0.0
H436 H 0.14294 0.10387 0.6466 0.0
H437 H 0.1515 0.11985 0.66931 0.0
H438 H 0.11267 0.09736 0.69557 0.0
H439 H 0.10405 0.08146 0.67279 0.0
Ho440 Ho 0.29297 0.91335 0.86781 0.0
Ho441 Ho 0.26161 0.89434 0.88066 0.0
C442 C 0.29077 0.87261 0.86601 0.0
C443 C 0.32585 0.9214 0.86636 0.0
C444 C 0.34553 0.91762 0.86894 0.0
C445 C 0.35356 0.91641 0.88382 0.0
C446 C 0.37174 0.91491 0.88615 0.0
C447 C 0.38348 0.91462 0.87381 0.0
C448 C 0.37538 0.91587 0.85889 0.0
C449 C 0.35713 0.91732 0.85657 0.0
C450 C 0.26603 0.90895 0.8466 0.0
C451 C 0.25923 0.93494 0.87922 0.0
C452 C 0.2323 0.88517 0.8907 0.0
C453 C 0.21968 0.88998 0.90289 0.0
C454 C 0.21106 0.90546 0.90309 0.0
C455 C 0.19865 0.90926 0.91416 0.0
C456 C 0.19433 0.89772 0.92545 0.0
C457 C 0.20313 0.88231 0.92528 0.0
C458 C 0.21552 0.87853 0.91421 0.0
C459 C 0.28915 0.89724 0.89994 0.0
O460 O 0.30016 0.88583 0.86816 0.0
O461 O 0.27396 0.87351 0.86736 0.0
O462 O 0.31696 0.91503 0.85486 0.0
O463 O 0.31604 0.92417 0.87815 0.0
O464 O 0.2771 0.92066 0.84598 0.0
O465 O 0.27124 0.89922 0.85737 0.0
O466 O 0.25217 0.92065 0.88132 0.0
O467 O 0.2756 0.9358 0.87507 0.0
O468 O 0.247 0.87878 0.8954 0.0
O469 O 0.23388 0.89494 0.8789 0.0
O470 O 0.27927 0.88486 0.89969 0.0
O471 O 0.28314 0.90815 0.89078 0.0
H472 H 0.34573 0.91692 0.89391 0.0
H473 H 0.37654 0.91439 0.89796 0.0
H474 H 0.38315 0.91569 0.84878 0.0
H475 H 0.35207 0.91853 0.84486 0.0
H476 H 0.21381 0.91465 0.89462 0.0
H477 H 0.19249 0.92136 0.91388 0.0
H478 H 0.20018 0.87292 0.93349 0.0
H479 H 0.22171 0.86643 0.91437 0.0
Ho480 Ho 0.38268 0.99326 0.39817 0.0
Ho481 Ho 0.40152 0.02267 0.38541 0.0
C482 C 0.42461 0.99081 0.39225 0.0
C483 C 0.37417 0.96194 0.40169 0.0
C484 C 0.37844 0.94336 0.39831 0.0
C485 C 0.37793 0.93636 0.38327 0.0
C486 C 0.38022 0.919 0.38057 0.0
C487 C 0.38305 0.90733 0.39271 0.0
C488 C 0.38352 0.91443 0.40776 0.0
C489 C 0.3813 0.93181 0.41045 0.0
C490 C 0.38804 0.01865 0.41972 0.0
C491 C 0.3595 0.02635 0.38726 0.0
C492 C 0.41046 0.05162 0.37677 0.0
C493 C 0.40367 0.06265 0.36416 0.0
C494 C 0.40182 0.07974 0.36648 0.0
C495 C 0.39509 0.09006 0.35463 0.0
C496 C 0.39 0.08353 0.34015 0.0
C497 C 0.39205 0.06639 0.33791 0.0
C498 C 0.39865 0.05613 0.34973 0.0
C499 C 0.39471 0.99871 0.36445 0.0
O500 O 0.40972 0.98348 0.39226 0.0
O501 O 0.42488 1.00716 0.39309 0.0
O502 O 0.38344 0.97022 0.41168 0.0
O503 O 0.3683 0.97169 0.39061 0.0
O504 O 0.3757 1.00826 0.41979 0.0
O505 O 0.39829 1.01359 0.40926 0.0
O506 O 0.37435 0.03278 0.38455 0.0
O507 O 0.35887 1.01048 0.39178 0.0
O508 O 0.4181 0.03791 0.37247 0.0
O509 O 0.40045 0.04933 0.3883 0.0
O510 O 0.40766 1.00803 0.36412 0.0
O511 O 0.38502 1.00364 0.37504 0.0
H512 H 0.37549 0.94431 0.37342 0.0
H513 H 0.37933 0.91478 0.36872 0.0
H514 H 0.38573 0.90656 0.41768 0.0
H515 H 0.38157 0.93622 0.42228 0.0
H516 H 0.40546 0.08511 0.37751 0.0
H517 H 0.39357 0.10312 0.35694 0.0
H518 H 0.38866 0.0608 0.32692 0.0
H519 H 0.3998 0.04302 0.34753 0.0
Ho520 Ho 0.28426 0.13871 0.67563 0.0
Ho521 Ho 0.25056 0.15127 0.65757 0.0
C522 C 0.27815 0.17765 0.66435 0.0
C523 C 0.31801 0.13362 0.67674 0.0
C524 C 0.33786 0.1314 0.67613 0.0
C525 C 0.34718 0.13741 0.66361 0.0
C526 C 0.3654 0.13587 0.66296 0.0
C527 C 0.37572 0.12833 0.67486 0.0
C528 C 0.36628 0.12221 0.68734 0.0
C529 C 0.34804 0.12368 0.68794 0.0
C530 C 0.2585 0.14911 0.69532 0.0
C531 C 0.2527 0.11536 0.66975 0.0
C532 C 0.22008 0.15415 0.64451 0.0
C533 C 0.21009 0.15533 0.62946 0.0
C534 C 0.19357 0.14919 0.62876 0.0
C535 C 0.18361 0.14965 0.61501 0.0
C536 C 0.18976 0.15626 0.60128 0.0
C537 C 0.20648 0.16227 0.60193 0.0
C538 C 0.21649 0.16184 0.61583 0.0
C539 C 0.27721 0.1397 0.64082 0.0
O540 O 0.28796 0.16562 0.67044 0.0
O541 O 0.26221 0.17573 0.6596 0.0
O542 O 0.30793 0.12775 0.68719 0.0
O543 O 0.30937 0.14184 0.66605 0.0
O544 O 0.27133 0.13886 0.6987 0.0
O545 O 0.26121 0.15516 0.68191 0.0
O546 O 0.24445 0.12953 0.67181 0.0
O547 O 0.26969 0.11536 0.66899 0.0
O548 O 0.2287 0.16668 0.64964 0.0
O549 O 0.22808 0.14017 0.64746 0.0
O550 O 0.2669 0.15142 0.63609 0.0
O551 O 0.27209 0.13443 0.65325 0.0
H552 H 0.34033 0.14348 0.65411 0.0
H553 H 0.37135 0.14091 0.65302 0.0
H554 H 0.37292 0.11597 0.69682 0.0
H555 H 0.34189 0.11875 0.69785 0.0
H556 H 0.18831 0.1439 0.63896 0.0
H557 H 0.17108 0.14453 0.61513 0.0
H558 H 0.21177 0.16754 0.59175 0.0
H559 H 0.22921 0.16656 0.61589 0.0
Ho560 Ho 0.1602 0.02976 0.913 0.0
Ho561 Ho 0.13697 1.01037 0.89254 0.0
C562 C 0.12206 0.04489 0.90395 0.0
C563 C 0.17763 0.05283 0.92581 0.0
C564 C 0.17862 0.07051 0.92303 0.0
C565 C 0.1686 0.07814 0.91128 0.0
C566 C 0.16978 0.09496 0.90855 0.0
C567 C 0.1811 0.10436 0.91748 0.0
C568 C 0.19118 0.09662 0.92918 0.0
C569 C 0.18993 0.07982 0.93194 0.0
C570 C 0.14353 1.00583 0.92798 0.0
C571 C 0.17766 0.99749 0.89711 0.0
C572 C 0.12 0.98739 0.87919 0.0
C573 C 0.12435 0.97781 0.86541 0.0
C574 C 0.11447 0.96475 0.86022 0.0
C575 C 0.11829 0.95667 0.84634 0.0
C576 C 0.13204 0.96158 0.83754 0.0
C577 C 0.14201 0.97452 0.84309 0.0
C578 C 0.13828 0.98244 0.8569 0.0
C579 C 0.15218 0.03478 0.87788 0.0
O580 O 0.13836 0.04832 0.90633 0.0
O581 O 0.11793 0.02937 0.90152 0.0
O582 O 0.16326 0.04796 0.93112 0.0
O583 O 0.18332 0.04334 0.91477 0.0
O584 O 0.15887 1.01026 0.9315 0.0
O585 O 0.13741 1.01508 0.91746 0.0
O586 O 0.16187 0.99472 0.8919 0.0
O587 O 0.1807 1.01096 0.90536 0.0
O588 O 0.11701 1.00304 0.87659 0.0
O589 O 0.13008 0.98481 0.89128 0.0
O590 O 0.13722 0.02966 0.87401 0.0
O591 O 0.15882 0.02553 0.8881 0.0
H592 H 0.15994 0.0711 0.90416 0.0
H593 H 0.162 0.10056 0.89936 0.0
H594 H 0.19987 0.10362 0.93636 0.0
H595 H 0.19778 0.0741 0.94102 0.0
H596 H 0.10371 0.961 0.86673 0.0
H597 H 0.11044 0.94667 0.84247 0.0
H598 H 0.15241 0.97898 0.83652 0.0
H599 H 0.14601 0.99256 0.86075 0.0
Ho600 Ho 0.24228 0.90203 0.15223 0.0
Ho601 Ho 0.26839 0.87821 0.13961 0.0
C602 C 0.22968 0.86335 0.14361 0.0
C603 C 0.21641 0.92116 0.15799 0.0
C604 C 0.20049 0.92001 0.16629 0.0
C605 C 0.18997 0.90654 0.1642 0.0
C606 C 0.17463 0.90604 0.17185 0.0
C607 C 0.16963 0.91893 0.18184 0.0
C608 C 0.18057 0.93206 0.18437 0.0
C609 C 0.19584 0.93261 0.1766 0.0
C610 C 0.26016 0.88432 0.17386 0.0
C611 C 0.27998 0.91786 0.14628 0.0
C612 C 0.29583 0.86116 0.13429 0.0
C613 C 0.30934 0.86486 0.12359 0.0
C614 C 0.31487 0.85263 0.11327 0.0
C615 C 0.32226 0.85703 0.09949 0.0
C616 C 0.32387 0.87373 0.09578 0.0
C617 C 0.32048 0.88573 0.10709 0.0
C618 C 0.31333 0.8813 0.12094 0.0
C619 C 0.25025 0.89537 0.11805 0.0
O620 O 0.22535 0.87928 0.14625 0.0
O621 O 0.24639 0.85946 0.14235 0.0
O622 O 0.23027 0.92045 0.16667 0.0
O623 O 0.21777 0.91266 0.14515 0.0
O624 O 0.25504 0.89945 0.17579 0.0
O625 O 0.2547 0.87924 0.16103 0.0
O626 O 0.28491 0.90204 0.14384 0.0
O627 O 0.26334 0.92094 0.1483 0.0
O628 O 0.28119 0.85844 0.12738 0.0
O629 O 0.29431 0.8709 0.14631 0.0
O630 O 0.25578 0.88037 0.11599 0.0
O631 O 0.25586 0.9007 0.13075 0.0
H632 H 0.19341 0.89656 0.15643 0.0
H633 H 0.16639 0.89588 0.16942 0.0
H634 H 0.17716 0.94207 0.1921 0.0
H635 H 0.20394 0.943 0.17849 0.0
H636 H 0.31203 0.83987 0.11516 0.0
H637 H 0.32541 0.84745 0.09121 0.0
H638 H 0.32178 0.89867 0.10472 0.0
H639 H 0.3095 0.89096 0.12883 0.0
Ho640 Ho 0.16033 0.40164 0.02742 0.0
Ho641 Ho 0.16351 0.42672 1.00168 0.0
C642 C 0.15858 0.44179 0.03704 0.0
C643 C 0.16584 0.38261 0.05091 0.0
C644 C 0.16235 0.38052 0.06739 0.0
C645 C 0.16977 0.39058 0.07879 0.0
C646 C 0.16856 0.38667 0.09439 0.0
C647 C 0.1599 0.37271 0.09881 0.0
C648 C 0.15169 0.36319 0.08749 0.0
C649 C 0.15301 0.36701 0.07188 0.0
C650 C 0.13066 0.41043 0.01369 0.0
C651 C 0.16447 0.38652 0.99211 0.0
C652 C 0.16163 0.44337 0.97635 0.0
C653 C 0.16833 0.43983 0.96086 0.0
C654 C 0.16639 0.42435 0.95383 0.0
C655 C 0.17538 0.42006 0.94062 0.0
C656 C 0.1864 0.4312 0.93411 0.0
C657 C 0.18745 0.44706 0.94056 0.0
C658 C 0.17853 0.45131 0.95384 0.0
C659 C 0.19291 0.41534 0.01524 0.0
O660 O 0.15999 0.42613 0.04183 0.0
O661 O 0.15825 0.44494 0.02182 0.0
O662 O 0.15307 0.38097 0.04106 0.0
O663 O 0.17596 0.3943 0.04714 0.0
O664 O 0.13379 0.39632 0.0202 0.0
O665 O 0.14273 0.41999 0.01642 0.0
O666 O 0.1627 0.40216 0.98738 0.0
O667 O 0.16559 0.38353 1.00729 0.0
O668 O 0.17325 0.44563 0.9872 0.0
O669 O 0.14938 0.4342 0.98093 0.0
O670 O 0.19022 0.4306 0.01142 0.0
O671 O 0.18008 0.40743 0.01144 0.0
H672 H 0.17698 0.40112 0.07569 0.0
H673 H 0.17472 0.39432 0.103 0.0
H674 H 0.14502 0.35233 0.09065 0.0
H675 H 0.1473 0.35899 0.0633 0.0
H676 H 0.15846 0.4153 0.95886 0.0
H677 H 0.17413 0.40783 0.93578 0.0
H678 H 0.19593 0.45588 0.93588 0.0
H679 H 0.18025 0.4633 0.95906 0.0
Ho680 Ho 0.65116 0.15653 0.02388 0.0
Ho681 Ho 0.67181 0.12512 0.01558 0.0
C682 C 0.68016 0.14141 0.04821 0.0
C683 C 0.63043 0.17801 0.03537 0.0
C684 C 0.63482 0.19393 0.04212 0.0
C685 C 0.62911 0.19836 0.05678 0.0
C686 C 0.63663 0.21124 0.06488 0.0
C687 C 0.65004 0.21966 0.05842 0.0
C688 C 0.65482 0.21605 0.04331 0.0
C689 C 0.64721 0.20334 0.03518 0.0
C690 C 0.68009 0.16323 1.00982 0.0
C691 C 0.64938 0.14387 0.9887 0.0
C692 C 0.68877 0.10012 1.00492 0.0
C693 C 0.68333 0.08536 0.99663 0.0
C694 C 0.66945 0.08616 0.98606 0.0
C695 C 0.66438 0.07205 0.97822 0.0
C696 C 0.67298 0.05688 0.98094 0.0
C697 C 0.68634 0.05601 0.9921 0.0
C698 C 0.6915 0.07018 0.99985 0.0
C699 C 0.64087 0.12132 0.02829 0.0
O700 O 0.66562 0.15009 0.04638 0.0
O701 O 0.68674 0.13276 0.03671 0.0
O702 O 0.6328 0.17655 0.02055 0.0
O703 O 0.63625 0.16515 0.04316 0.0
O704 O 0.66793 0.17395 0.01237 0.0
O705 O 0.67795 0.15108 0.01851 0.0
O706 O 0.66222 0.13349 0.99206 0.0
O707 O 0.64101 0.1519 0.99965 0.0
O708 O 0.68395 0.1012 0.01919 0.0
O709 O 0.68679 0.11404 0.9975 0.0
O710 O 0.65405 0.11194 0.03137 0.0
O711 O 0.64466 0.13147 0.01836 0.0
H712 H 0.61969 0.19119 0.06235 0.0
H713 H 0.63286 0.2138 0.07662 0.0
H714 H 0.66505 0.22249 0.03813 0.0
H715 H 0.65184 0.20025 0.02385 0.0
H716 H 0.66272 0.09774 0.98366 0.0
H717 H 0.65422 0.07318 0.96954 0.0
H718 H 0.69308 0.04446 0.99456 0.0
H719 H 0.70198 0.06931 1.00824 0.0
Ho720 Ho 0.16932 0.3463 0.25659 0.0
Ho721 Ho 0.1934 0.36619 0.27774 0.0
C722 C 0.20868 0.35296 0.24682 0.0
C723 C 0.15355 0.33207 0.23396 0.0
C724 C 0.15315 0.33519 0.21731 0.0
C725 C 0.16358 0.34711 0.21133 0.0
C726 C 0.1624 0.35113 0.19573 0.0
C727 C 0.15083 0.34322 0.18574 0.0
C728 C 0.14049 0.33112 0.19175 0.0
C729 C 0.14164 0.32716 0.20746 0.0
C730 C 0.1741 0.33294 0.28547 0.0
C731 C 0.15324 0.37308 0.27894 0.0
C732 C 0.21004 0.37847 0.30084 0.0
C733 C 0.20792 0.39505 0.30777 0.0
C734 C 0.2044 0.39662 0.3235 0.0
C735 C 0.19852 0.41168 0.3295 0.0
C736 C 0.19604 0.42549 0.31987 0.0
C737 C 0.20082 0.42425 0.30441 0.0
C738 C 0.20665 0.40916 0.29839 0.0
C739 C 0.18074 0.38558 0.25364 0.0
O740 O 0.19291 0.34947 0.24245 0.0
O741 O 0.21275 0.35633 0.26137 0.0
O742 O 0.16814 0.32647 0.23987 0.0
O743 O 0.14667 0.34392 0.24223 0.0
O744 O 0.16043 0.3327 0.27689 0.0
O745 O 0.18585 0.33954 0.27776 0.0
O746 O 0.16773 0.37198 0.28697 0.0
O747 O 0.15121 0.3659 0.26529 0.0
O748 O 0.21605 0.37767 0.2869 0.0
O749 O 0.19712 0.36895 0.30247 0.0
O750 O 0.19079 0.39079 0.26459 0.0
O751 O 0.17818 0.37087 0.25677 0.0
H752 H 0.17241 0.35359 0.21879 0.0
H753 H 0.17031 0.36072 0.19156 0.0
H754 H 0.13156 0.32471 0.18432 0.0
H755 H 0.13342 0.318 0.21194 0.0
H756 H 0.20524 0.38595 0.33095 0.0
H757 H 0.19516 0.41236 0.34155 0.0
H758 H 0.19899 0.43465 0.29672 0.0
H759 H 0.20923 0.40837 0.28619 0.0
Ho760 Ho 0.93406 0.87448 0.50437 0.0
Ho761 Ho 0.91564 0.8967 0.52773 0.0
C762 C 0.9231 0.91277 0.49584 0.0
C763 C 0.94147 0.86051 0.4776 0.0
C764 C 0.93575 0.86009 0.46055 0.0
C765 C 0.92588 0.87282 0.4533 0.0
C766 C 0.92143 0.87222 0.43723 0.0
C767 C 0.9267 0.85889 0.42755 0.0
C768 C 0.93651 0.84617 0.43499 0.0
C769 C 0.94088 0.84677 0.45102 0.0
C770 C 0.95529 0.88669 0.52818 0.0
C771 C 0.92008 0.85712 0.53592 0.0
C772 C 0.90636 0.91374 0.55173 0.0
C773 C 0.89287 0.91322 0.56316 0.0
C774 C 0.89346 0.92346 0.57626 0.0
C775 C 0.88015 0.92376 0.58671 0.0
C776 C 0.86602 0.91381 0.58421 0.0
C777 C 0.86563 0.90347 0.57107 0.0
C778 C 0.87893 0.90314 0.56071 0.0
C779 C 0.89504 0.88574 0.50411 0.0
O780 O 0.92507 0.89743 0.49084 0.0
O781 O 0.92331 0.91587 0.51087 0.0
O782 O 0.94844 0.8738 0.4831 0.0
O783 O 0.93187 0.85399 0.48788 0.0
O784 O 0.95774 0.87284 0.52074 0.0
O785 O 0.94269 0.89415 0.52128 0.0
O786 O 0.91565 0.87226 0.54044 0.0
O787 O 0.92655 0.85447 0.52185 0.0
O788 O 0.90117 0.91698 0.5376 0.0
O789 O 0.918 0.9019 0.55232 0.0
O790 O 0.89211 0.89903 0.51204 0.0
O791 O 0.90738 0.87791 0.51071 0.0
H792 H 0.92163 0.88335 0.46004 0.0
H793 H 0.91405 0.88249 0.43238 0.0
H794 H 0.94073 0.83548 0.42848 0.0
H795 H 0.94848 0.83669 0.45601 0.0
H796 H 0.90414 0.93134 0.57832 0.0
H797 H 0.88096 0.93172 0.59676 0.0
H798 H 0.85484 0.89585 0.56859 0.0
H799 H 0.8782 0.89522 0.55061 0.0
Ho800 Ho 0.88267 0.13833 0.25745 0.0
Ho801 Ho 0.85684 0.12756 0.28015 0.0
C802 C 0.84254 0.13259 0.24498 0.0
C803 C 0.90367 0.14049 0.235 0.0
C804 C 0.90516 0.14047 0.21801 0.0
C805 C 0.8977 0.12851 0.20841 0.0
C806 C 0.90085 0.12808 0.19251 0.0
C807 C 0.91138 0.1397 0.18595 0.0
C808 C 0.91862 0.15169 0.19566 0.0
C809 C 0.91555 0.15205 0.21146 0.0
C810 C 0.86846 0.1632 0.27378 0.0
C811 C 0.89692 0.13139 0.29318 0.0
C812 C 0.83845 0.12309 0.30385 0.0
C813 C 0.84246 0.11376 0.31811 0.0
C814 C 0.85688 0.11722 0.32741 0.0
C815 C 0.86331 0.10574 0.33818 0.0
C816 C 0.85534 0.09068 0.33994 0.0
C817 C 0.83998 0.08801 0.33168 0.0
C818 C 0.83359 0.09947 0.32092 0.0
C819 C 0.87278 0.10325 0.26408 0.0
O820 O 0.85893 0.13364 0.24132 0.0
O821 O 0.83838 0.13243 0.25979 0.0
O822 O 0.89618 0.15328 0.24143 0.0
O823 O 0.90008 0.12668 0.24159 0.0
O824 O 0.88412 0.16264 0.26946 0.0
O825 O 0.86055 0.151 0.26843 0.0
O826 O 0.88064 0.12932 0.29646 0.0
O827 O 0.90104 0.13401 0.27852 0.0
O828 O 0.83749 0.11406 0.29132 0.0
O829 O 0.84688 0.13648 0.30181 0.0
O830 O 0.85686 0.1031 0.26749 0.0
O831 O 0.87917 0.11578 0.26999 0.0
H832 H 0.88962 0.11944 0.21319 0.0
H833 H 0.89499 0.11874 0.18537 0.0
H834 H 0.92705 0.16063 0.19112 0.0
H835 H 0.92163 0.16123 0.21865 0.0
H836 H 0.86379 0.12833 0.32574 0.0
H837 H 0.87492 0.10836 0.34464 0.0
H838 H 0.83353 0.07652 0.33261 0.0
H839 H 0.82241 0.09656 0.31394 0.0
Ho840 Ho 0.44638 0.62308 0.52835 0.0
Ho841 Ho 0.42817 0.6049 0.50235 0.0
C842 C 0.43497 0.58482 0.53249 0.0
C843 C 0.45784 0.63305 0.55501 0.0
C844 C 0.45226 0.6312 0.57113 0.0
C845 C 0.44041 0.61943 0.57499 0.0
C846 C 0.43445 0.61853 0.59008 0.0
C847 C 0.44009 0.62948 0.60166 0.0
C848 C 0.45208 0.64116 0.59773 0.0
C849 C 0.45807 0.642 0.58266 0.0
C850 C 0.46399 0.62138 0.50076 0.0
C851 C 0.42406 0.64441 0.5043 0.0
C852 C 0.42111 0.5921 0.47582 0.0
C853 C 0.40617 0.59508 0.46551 0.0
C854 C 0.408 0.60382 0.45176 0.0
C855 C 0.39369 0.61024 0.44373 0.0
C856 C 0.37736 0.60781 0.44925 0.0
C857 C 0.37548 0.59805 0.46235 0.0
C858 C 0.38976 0.59175 0.47044 0.0
C859 C 0.40432 0.61392 0.5239 0.0
O860 O 0.43824 0.59912 0.5391 0.0
O861 O 0.43478 0.58332 0.51734 0.0
O862 O 0.4638 0.61977 0.54805 0.0
O863 O 0.44755 0.64192 0.54604 0.0
O864 O 0.46465 0.63299 0.51103 0.0
O865 O 0.4556 0.60987 0.50676 0.0
O866 O 0.42365 0.63114 0.49545 0.0
O867 O 0.43062 0.6442 0.51855 0.0
O868 O 0.41849 0.58463 0.48885 0.0
O869 O 0.43084 0.60473 0.47766 0.0
O870 O 0.40099 0.60643 0.51093 0.0
O871 O 0.42007 0.61661 0.52419 0.0
H872 H 0.43552 0.61109 0.56631 0.0
H873 H 0.42509 0.6095 0.59256 0.0
H874 H 0.45694 0.64963 0.60635 0.0
H875 H 0.46714 0.65124 0.57997 0.0
H876 H 0.42054 0.60652 0.44774 0.0
H877 H 0.39539 0.61753 0.4335 0.0
H878 H 0.363 0.59604 0.46685 0.0
H879 H 0.38789 0.58509 0.48102 0.0
Ho880 Ho 0.15163 0.66747 0.32139 0.0
Ho881 Ho 0.16728 0.64854 0.29245 0.0
C882 C 0.19175 0.65953 0.31876 0.0
C883 C 0.14485 0.67749 0.34914 0.0
C884 C 0.1477 0.67207 0.36536 0.0
C885 C 0.16368 0.66618 0.37104 0.0
C886 C 0.16605 0.6619 0.38666 0.0
C887 C 0.15246 0.6633 0.39696 0.0
C888 C 0.1364 0.66876 0.39102 0.0
C889 C 0.1341 0.6732 0.37549 0.0
C890 C 0.15452 0.68553 0.29587 0.0
C891 C 0.12598 0.65223 0.29639 0.0
C892 C 0.17594 0.63819 0.26523 0.0
C893 C 0.17086 0.62617 0.25304 0.0
C894 C 0.15409 0.62562 0.24704 0.0
C895 C 0.14985 0.6144 0.23526 0.0
C896 C 0.16223 0.60337 0.22919 0.0
C897 C 0.17903 0.60405 0.23522 0.0
C898 C 0.18326 0.61531 0.24695 0.0
C899 C 0.16194 0.6305 0.31793 0.0
O900 O 0.17843 0.65914 0.32772 0.0
O901 O 0.19006 0.65975 0.30356 0.0
O902 O 0.15807 0.68208 0.34158 0.0
O903 O 0.13439 0.66895 0.34056 0.0
O904 O 0.14349 0.68868 0.30642 0.0
O905 O 0.16494 0.67432 0.30034 0.0
O906 O 0.13904 0.64856 0.28749 0.0
O907 O 0.12749 0.6583 0.31058 0.0
O908 O 0.18246 0.63211 0.27813 0.0
O909 O 0.16583 0.65107 0.26754 0.0
O910 O 0.17395 0.62682 0.3084 0.0
O911 O 0.15317 0.64233 0.31267 0.0
H912 H 0.1744 0.66506 0.36347 0.0
H913 H 0.17864 0.65785 0.39071 0.0
H914 H 0.12547 0.66958 0.39835 0.0
H915 H 0.12162 0.67755 0.37138 0.0
H916 H 0.14423 0.63388 0.2514 0.0
H917 H 0.13683 0.6145 0.23082 0.0
H918 H 0.18889 0.59567 0.23109 0.0
H919 H 0.19631 0.6155 0.25131 0.0
Ho920 Ho 0.39292 0.34693 0.75703 0.0
Ho921 Ho 0.36934 0.36331 0.73375 0.0
C922 C 0.35332 0.3583 0.76705 0.0
C923 C 0.40903 0.33867 0.78323 0.0
C924 C 0.41121 0.34243 0.80052 0.0
C925 C 0.39845 0.34981 0.80977 0.0
C926 C 0.40096 0.35189 0.8261 0.0
C927 C 0.41627 0.34651 0.8339 0.0
C928 C 0.42909 0.33967 0.82438 0.0
C929 C 0.42661 0.33769 0.80822 0.0
C930 C 0.38237 0.32642 0.73253 0.0
C931 C 0.41043 0.35956 0.72524 0.0
C932 C 0.35217 0.37251 0.70902 0.0
C933 C 0.3512 0.38799 0.70014 0.0
C934 C 0.35155 0.38755 0.68394 0.0
C935 C 0.35211 0.40216 0.67548 0.0
C936 C 0.35237 0.41749 0.68311 0.0
C937 C 0.35141 0.41786 0.69931 0.0
C938 C 0.35093 0.4033 0.70774 0.0
C939 C 0.38075 0.38462 0.75571 0.0
O940 O 0.36951 0.355 0.77124 0.0
O941 O 0.34927 0.35923 0.75205 0.0
O942 O 0.39508 0.33195 0.77798 0.0
O943 O 0.41479 0.34891 0.77319 0.0
O944 O 0.39716 0.32574 0.73969 0.0
O945 O 0.37315 0.33697 0.73985 0.0
O946 O 0.39445 0.36302 0.72048 0.0
O947 O 0.41346 0.35443 0.73981 0.0
O948 O 0.34601 0.37303 0.72284 0.0
O949 O 0.36667 0.36429 0.70873 0.0
O950 O 0.36703 0.3869 0.74734 0.0
O951 O 0.38919 0.37262 0.75009 0.0
H952 H 0.38642 0.35382 0.80442 0.0
H953 H 0.39065 0.35727 0.83268 0.0
H954 H 0.44127 0.33569 0.82943 0.0
H955 H 0.43685 0.33209 0.80169 0.0
H956 H 0.35184 0.37587 0.67785 0.0
H957 H 0.35302 0.4014 0.66304 0.0
H958 H 0.35132 0.42945 0.70555 0.0
H959 H 0.35071 0.40405 0.72022 0.0
Ho960 Ho 0.06546 0.90697 0.61191 0.0
Ho961 Ho 0.04028 0.92203 0.6317 0.0
C962 C 0.07607 0.91165 0.64938 0.0
C963 C 0.094 0.89888 0.59989 0.0
C964 C 0.107 0.88886 0.60823 0.0
C965 C 0.12447 0.89074 0.60624 0.0
C966 C 0.13636 0.88191 0.61561 0.0
C967 C 0.13078 0.87145 0.62719 0.0
C968 C 0.11327 0.86997 0.62922 0.0
C969 C 0.10156 0.87855 0.61989 0.0
C970 C 0.04461 0.88524 0.62466 0.0
C971 C 0.02874 0.91065 0.59558 0.0
C972 C 1.01371 0.93071 0.64695 0.0
C973 C 0.99572 0.92695 0.64635 0.0
C974 C 0.98928 0.91559 0.63558 0.0
C975 C 0.97204 0.91197 0.6354 0.0
C976 C 0.96122 0.91951 0.64615 0.0
C977 C 0.96778 0.93086 0.65688 0.0
C978 C 0.98492 0.93457 0.65695 0.0
C979 C 0.0626 0.94407 0.62169 0.0
O980 O 0.08075 0.90778 0.63511 0.0
O981 O 0.06005 0.9168 0.65149 0.0
O982 O 0.07996 0.89132 0.59644 0.0
O983 O 0.09105 0.9133 0.60612 0.0
O984 O 0.05014 0.88379 0.61077 0.0
O985 O 0.05129 0.89732 0.63119 0.0
O986 O 0.02392 0.91341 0.61011 0.0
O987 O 0.04527 0.91048 0.5928 0.0
O988 O 0.0191 0.93907 0.63533 0.0
O989 O 0.02404 0.91848 0.65094 0.0
O990 O 0.0563 0.94392 0.63529 0.0
O991 O 0.05606 0.93285 0.61333 0.0
H992 H 0.12885 0.89901 0.59755 0.0
H993 H 0.14983 0.88317 0.61379 0.0
H994 H 0.10849 0.86169 0.63771 0.0
H995 H 0.08813 0.87716 0.62189 0.0
H996 H 0.99758 0.90945 0.62745 0.0
H997 H 0.96721 0.90314 0.62709 0.0
H998 H 0.95958 0.93696 0.66515 0.0
H999 H 0.98977 0.94334 0.66532 0.0
Ho1000 Ho 0.8722 0.27074 0.34139 0.0
Ho1001 Ho 0.84945 0.24957 0.36163 0.0
C1002 C 0.87412 0.27491 0.3785 0.0
C1003 C 0.89023 0.29399 0.33074 0.0
C1004 C 0.90441 0.30338 0.33771 0.0
C1005 C 0.90554 0.32022 0.3347 0.0
C1006 C 0.91867 0.3293 0.3415 0.0
C1007 C 0.93103 0.3217 0.35143 0.0
C1008 C 0.92982 0.30482 0.35448 0.0
C1009 C 0.91659 0.29578 0.34779 0.0
C1010 C 0.88556 0.24127 0.35147 0.0
C1011 C 0.85316 0.24318 0.3244 0.0
C1012 C 0.83701 0.22397 0.37452 0.0
C1013 C 0.84224 0.20636 0.37682 0.0
C1014 C 0.84949 0.19675 0.36497 0.0
C1015 C 0.85394 0.18006 0.36741 0.0
C1016 C 0.85129 0.17255 0.38175 0.0
C1017 C 0.84432 0.18235 0.39363 0.0
C1018 C 0.83985 0.19899 0.39118 0.0
C1019 C 0.83537 0.27967 0.35549 0.0
O1020 O 0.87555 0.28181 0.36491 0.0
O1021 O 0.86624 0.26089 0.38009 0.0
O1022 O 0.89339 0.27837 0.32802 0.0
O1023 O 0.87531 0.29665 0.33672 0.0
O1024 O 0.88914 0.24734 0.3382 0.0
O1025 O 0.87636 0.25142 0.35836 0.0
O1026 O 0.8517 0.23682 0.33834 0.0
O1027 O 0.8576 0.25855 0.32251 0.0
O1028 O 0.83294 0.22873 0.36045 0.0
O1029 O 0.84594 0.23481 0.38207 0.0
O1030 O 0.8318 0.27062 0.36716 0.0
O1031 O 0.84433 0.2712 0.34608 0.0
H1032 H 0.89624 0.32637 0.32707 0.0
H1033 H 0.91929 0.34225 0.33881 0.0
H1034 H 0.93897 0.29863 0.36221 0.0
H1035 H 0.91587 0.28286 0.35055 0.0
H1036 H 0.85173 0.20211 0.35383 0.0
H1037 H 0.85951 0.17304 0.35805 0.0
H1038 H 0.84189 0.17707 0.40476 0.0
H1039 H 0.83436 0.20611 0.40052 0.0
Ho1040 Ho 0.50839 0.13608 0.12638 0.0
Ho1041 Ho 0.50851 0.13945 0.15607 0.0
C1042 C 0.54445 0.12474 0.14239 0.0
C1043 C 0.50915 0.13616 0.09641 0.0
C1044 C 0.52308 0.13941 0.08605 0.0
C1045 C 0.53874 0.14456 0.09225 0.0
C1046 C 0.55303 0.14465 0.08307 0.0
C1047 C 0.55181 0.13989 0.06748 0.0
C1048 C 0.53591 0.13569 0.06105 0.0
C1049 C 0.52164 0.1353 0.07034 0.0
C1050 C 0.48644 0.11248 0.13883 0.0
C1051 C 0.48305 0.16606 0.13893 0.0
C1052 C 0.50442 0.13218 0.18453 0.0
C1053 C 0.49217 0.12741 0.19594 0.0
C1054 C 0.4847 0.11193 0.19547 0.0
C1055 C 0.47333 0.10769 0.20674 0.0
C1056 C 0.46918 0.11892 0.21855 0.0
C1057 C 0.47737 0.13407 0.21928 0.0
C1058 C 0.48882 0.13819 0.20817 0.0
C1059 C 0.53355 0.15907 0.14762 0.0
O1060 O 0.53754 0.13092 0.12956 0.0
O1061 O 0.53362 0.12337 0.15381 0.0
O1062 O 0.51172 0.12307 0.1048 0.0
O1063 O 0.50339 0.14856 0.10452 0.0
O1064 O 0.49891 0.10948 0.12966 0.0
O1065 O 0.48759 0.12771 0.14206 0.0
O1066 O 0.48904 0.16118 0.15276 0.0
O1067 O 0.48846 0.15766 0.12664 0.0
O1068 O 0.50338 0.14735 0.17941 0.0
O1069 O 0.50809 0.12129 0.17382 0.0
O1070 O 0.53307 0.15135 0.16051 0.0
O1071 O 0.5199 0.15712 0.13959 0.0
H1072 H 0.54007 0.14788 0.10433 0.0
H1073 H 0.56514 0.14808 0.08822 0.0
H1074 H 0.53471 0.13192 0.04906 0.0
H1075 H 0.50969 0.13117 0.06542 0.0
H1076 H 0.48742 0.10318 0.18631 0.0
H1077 H 0.46734 0.09591 0.2059 0.0
H1078 H 0.47427 0.1433 0.22791 0.0
H1079 H 0.49475 0.15002 0.20895 0.0
Ho1080 Ho 0.62676 0.75258 0.87441 0.0
Ho1081 Ho 0.64979 0.76621 0.8927 0.0
C1082 C 0.62915 0.73996 0.91082 0.0
C1083 C 0.60549 0.73388 0.85943 0.0
C1084 C 0.59255 0.72177 0.86271 0.0
C1085 C 0.59155 0.71459 0.87732 0.0
C1086 C 0.57858 0.70375 0.88033 0.0
C1087 C 0.56633 0.69993 0.86878 0.0
C1088 C 0.56755 0.70705 0.8541 0.0
C1089 C 0.58053 0.71786 0.85112 0.0
C1090 C 0.61522 0.78451 0.88104 0.0
C1091 C 0.64898 0.77681 0.85633 0.0
C1092 C 0.67018 0.78658 0.906 0.0
C1093 C 0.67379 0.80343 0.90149 0.0
C1094 C 0.66124 0.81294 0.89349 0.0
C1095 C 0.66519 0.82802 0.88724 0.0
C1096 C 0.68178 0.83385 0.88879 0.0
C1097 C 0.69423 0.8245 0.89716 0.0
C1098 C 0.69026 0.80933 0.90342 0.0
C1099 C 0.66302 0.73604 0.88242 0.0
O1100 O 0.62358 0.73729 0.89646 0.0
O1101 O 0.6392 0.75246 0.91315 0.0
O1102 O 0.60193 0.74892 0.86368 0.0
O1103 O 0.62135 0.72966 0.86252 0.0
O1104 O 0.61513 0.77745 0.86765 0.0
O1105 O 0.62198 0.77414 0.89081 0.0
O1106 O 0.65205 0.782 0.87065 0.0
O1107 O 0.641 0.76289 0.85465 0.0
O1108 O 0.67517 0.77535 0.89622 0.0
O1109 O 0.6548 0.78423 0.91063 0.0
O1110 O 0.66302 0.74115 0.89661 0.0
O1111 O 0.65495 0.74701 0.87431 0.0
H1112 H 0.60066 0.71744 0.88644 0.0
H1113 H 0.57818 0.69833 0.8917 0.0
H1114 H 0.55823 0.7046 0.845 0.0
H1115 H 0.58102 0.72337 0.83979 0.0
H1116 H 0.64847 0.80854 0.89171 0.0
H1117 H 0.65524 0.83508 0.88111 0.0
H1118 H 0.70713 0.82868 0.89847 0.0
H1119 H 0.70015 0.80201 0.90935 0.0
Ho1120 Ho 0.04228 0.16147 0.90011 0.0
Ho1121 Ho 0.0262 0.13976 0.88403 0.0
C1122 C 0.05622 0.15975 0.86621 0.0
C1123 C 0.05862 0.17754 0.92153 0.0
C1124 C 0.07458 0.18604 0.92354 0.0
C1125 C 0.087 0.1849 0.91226 0.0
C1126 C 0.09997 0.1962 0.91227 0.0
C1127 C 0.10043 0.20887 0.92341 0.0
C1128 C 0.08897 0.20884 0.93556 0.0
C1129 C 0.07609 0.19747 0.93559 0.0
C1130 C 1.01221 0.17642 0.88817 0.0
C1131 C 1.01461 0.1405 0.91878 0.0
C1132 C 1.00997 0.12536 0.86157 0.0
C1133 C 0.99274 0.12358 0.85528 0.0
C1134 C 0.98003 0.13565 0.85797 0.0
C1135 C 0.96379 0.13401 0.85142 0.0
C1136 C 0.96005 0.12023 0.84222 0.0
C1137 C 0.97288 0.10827 0.83941 0.0
C1138 C 0.98918 0.11 0.84586 0.0
C1139 C 0.05422 0.12346 0.89688 0.0
O1140 O 0.06048 0.16474 0.88026 0.0
O1141 O 0.0421 0.15129 0.8648 0.0
O1142 O 0.04784 0.18431 0.91162 0.0
O1143 O 0.05959 0.16159 0.92007 0.0
O1144 O 0.02738 0.18202 0.88704 0.0
O1145 O 1.01399 0.1623 0.8944 0.0
O1146 O 1.00886 0.13666 0.90475 0.0
O1147 O 0.02892 0.1486 0.91967 0.0
O1148 O 1.01373 0.11826 0.87474 0.0
O1149 O 1.01584 0.14012 0.8608 0.0
O1150 O 0.03888 0.11828 0.89637 0.0
O1151 O 0.05403 0.13781 0.89089 0.0
H1152 H 0.08598 0.17606 0.90289 0.0
H1153 H 0.10884 0.19582 0.90292 0.0
H1154 H 0.08892 0.21849 0.94424 0.0
H1155 H 0.06653 0.19846 0.94436 0.0
H1156 H 0.98263 0.14624 0.86521 0.0
H1157 H 0.95399 0.14319 0.85406 0.0
H1158 H 0.97021 0.0975 0.83245 0.0
H1159 H 0.99898 0.10068 0.84359 0.0
Ho1160 Ho 0.63215 0.26412 0.65292 0.0
Ho1161 Ho 0.62584 0.26093 0.62423 0.0
C1162 C 0.64431 0.22843 0.63888 0.0
C1163 C 0.63432 0.26683 0.68278 0.0
C1164 C 0.63561 0.25513 0.69565 0.0
C1165 C 0.62259 0.24425 0.69862 0.0
C1166 C 0.62479 0.23261 0.71037 0.0
C1167 C 0.64008 0.23157 0.71921 0.0
C1168 C 0.65305 0.24247 0.71611 0.0
C1169 C 0.65076 0.25422 0.70458 0.0
C1170 C 0.65583 0.28419 0.6387 0.0
C1171 C 0.60121 0.28842 0.63901 0.0
C1172 C 0.62744 0.26512 0.59484 0.0
C1173 C 0.62811 0.2797 0.58523 0.0
C1174 C 0.6272 0.29532 0.5921 0.0
C1175 C 0.62763 0.30932 0.58299 0.0
C1176 C 0.62907 0.30789 0.56689 0.0
C1177 C 0.6302 0.29216 0.56009 0.0
C1178 C 0.62973 0.27812 0.56924 0.0
C1179 C 0.60654 0.23719 0.63724 0.0
O1180 O 0.63958 0.23626 0.65159 0.0
O1181 O 0.6432 0.23734 0.62613 0.0
O1182 O 0.64733 0.26644 0.67388 0.0
O1183 O 0.61999 0.26809 0.67492 0.0
O1184 O 0.65941 0.27228 0.64821 0.0
O1185 O 0.63986 0.28275 0.63533 0.0
O1186 O 0.60377 0.27968 0.62634 0.0
O1187 O 0.61153 0.2852 0.65115 0.0
O1188 O 0.61313 0.26345 0.60193 0.0
O1189 O 0.64087 0.26244 0.60388 0.0
O1190 O 0.61361 0.23623 0.62398 0.0
O1191 O 0.60915 0.25147 0.64305 0.0
H1192 H 0.6108 0.24463 0.69183 0.0
H1193 H 0.61446 0.22456 0.71261 0.0
H1194 H 0.66512 0.24182 0.72246 0.0
H1195 H 0.66101 0.26241 0.70242 0.0
H1196 H 0.62598 0.29667 0.60448 0.0
H1197 H 0.62643 0.32125 0.58854 0.0
H1198 H 0.63145 0.29072 0.54772 0.0
H1199 H 0.63055 0.26607 0.56385 0.0
Ho1200 Ho 0.52299 0.896 0.38339 0.0
Ho1201 Ho 0.5147 0.89674 0.34988 0.0
C1202 C 0.55437 0.90699 0.36153 0.0
C1203 C 0.52639 0.89154 0.41288 0.0
C1204 C 0.53072 0.90173 0.42628 0.0
C1205 C 0.53792 0.9171 0.42434 0.0
C1206 C 0.54533 0.92513 0.437 0.0
C1207 C 0.54559 0.91785 0.45169 0.0
C1208 C 0.53685 0.90325 0.45376 0.0
C1209 C 0.52951 0.89521 0.44109 0.0
C1210 C 0.50263 0.9233 0.37459 0.0
C1211 C 0.49428 0.87 0.36982 0.0
C1212 C 0.50023 0.90614 0.3243 0.0
C1213 C 0.50154 0.90888 0.30763 0.0
C1214 C 0.49193 0.92199 0.30111 0.0
C1215 C 0.4882 0.92228 0.28529 0.0
C1216 C 0.49406 0.90942 0.27563 0.0
C1217 C 0.5055 0.8974 0.28196 0.0
C1218 C 0.50911 0.89705 0.29788 0.0
C1219 C 0.53823 0.87303 0.35579 0.0
O1220 O 0.5495 0.90324 0.37566 0.0
O1221 O 0.54248 0.9074 0.34996 0.0
O1222 O 0.51179 0.89494 0.40592 0.0
O1223 O 0.53868 0.88902 0.40324 0.0
O1224 O 0.51586 0.92366 0.38385 0.0
O1225 O 0.50191 0.90855 0.3699 0.0
O1226 O 0.49481 0.87809 0.35651 0.0
O1227 O 0.50505 0.8739 0.38139 0.0
O1228 O 0.50736 0.91648 0.33403 0.0
O1229 O 0.50085 0.89084 0.32902 0.0
O1230 O 0.53548 0.87957 0.34225 0.0
O1231 O 0.52661 0.87793 0.36476 0.0
H1232 H 0.5388 0.92232 0.41293 0.0
H1233 H 0.5519 0.93641 0.43513 0.0
H1234 H 0.53701 0.89726 0.46489 0.0
H1235 H 0.52392 0.88337 0.44272 0.0
H1236 H 0.48596 0.93123 0.30845 0.0
H1237 H 0.4793 0.93172 0.281 0.0
H1238 H 0.5106 0.88754 0.27482 0.0
H1239 H 0.51673 0.88688 0.30267 0.0
Ho1240 Ho 0.86725 0.7252 0.13951 0.0
Ho1241 Ho 0.86664 0.75377 0.11721 0.0
C1242 C 0.86715 0.71692 0.10122 0.0
C1243 C 0.86171 0.69854 0.15403 0.0
C1244 C 0.87144 0.68298 0.15192 0.0
C1245 C 0.88188 0.67754 0.16438 0.0
C1246 C 0.89852 0.67198 0.16172 0.0
C1247 C 0.90461 0.67144 0.14659 0.0
C1248 C 0.89282 0.67326 0.13416 0.0
C1249 C 0.87617 0.67868 0.13686 0.0
C1250 C 0.89805 0.7343 0.13039 0.0
C1251 C 0.87003 0.76154 0.15543 0.0
C1252 C 0.87298 0.78037 0.10271 0.0
C1253 C 0.86929 0.79802 0.10533 0.0
C1254 C 0.88222 0.80929 0.10361 0.0
C1255 C 0.87881 0.82614 0.10562 0.0
C1256 C 0.86237 0.83198 0.10929 0.0
C1257 C 0.84957 0.82062 0.11141 0.0
C1258 C 0.85302 0.80379 0.10954 0.0
C1259 C 0.83592 0.74462 0.12656 0.0
O1260 O 0.86449 0.71154 0.11555 0.0
O1261 O 0.87006 0.73288 0.09928 0.0
O1262 O 0.87115 0.71019 0.15973 0.0
O1263 O 0.85196 0.70369 0.14238 0.0
O1264 O 0.89542 0.72878 0.14409 0.0
O1265 O 0.88464 0.73355 0.12235 0.0
O1266 O 0.87174 0.76693 0.14097 0.0
O1267 O 0.86632 0.74588 0.15769 0.0
O1268 O 0.85991 0.7713 0.09931 0.0
O1269 O 0.88382 0.77329 0.11252 0.0
O1270 O 0.83849 0.74976 0.11271 0.0
O1271 O 0.84931 0.74553 0.13463 0.0
H1272 H 0.8783 0.68022 0.17614 0.0
H1273 H 0.90705 0.66972 0.17157 0.0
H1274 H 0.89682 0.67248 0.12231 0.0
H1275 H 0.86803 0.68196 0.12701 0.0
H1276 H 0.89489 0.80507 0.1005 0.0
H1277 H 0.88888 0.83463 0.10379 0.0
H1278 H 0.83685 0.82477 0.11442 0.0
H1279 H 0.84288 0.79532 0.11121 0.0
Ho1280 Ho 0.64751 0.02414 0.889 0.0
Ho1281 Ho 0.67352 1.00053 0.8762 0.0
C1282 C 0.68598 0.03909 0.88099 0.0
C1283 C 0.63126 0.04528 0.906 0.0
C1284 C 0.63356 0.06281 0.90937 0.0
C1285 C 0.64963 0.06868 0.91374 0.0
C1286 C 0.65317 0.08517 0.9114 0.0
C1287 C 0.64089 0.09568 0.90412 0.0
C1288 C 0.62401 0.0904 0.9026 0.0
C1289 C 0.6204 0.07403 0.90521 0.0
C1290 C 0.64694 0.02033 0.85768 0.0
C1291 C 0.63364 0.98691 0.88274 0.0
C1292 C 0.69061 0.97855 0.8608 0.0
C1293 C 0.69305 0.96057 0.8621 0.0
C1294 C 0.6792 0.95015 0.86043 0.0
C1295 C 0.68136 0.93339 0.86342 0.0
C1296 C 0.69737 0.92672 0.86813 0.0
C1297 C 0.71133 0.93701 0.86928 0.0
C1298 C 0.7092 0.95379 0.86619 0.0
C1299 C 0.67481 1.00214 0.90713 0.0
O1300 O 0.67122 0.04136 0.88832 0.0
O1301 O 0.68872 0.02455 0.87387 0.0
O1302 O 0.62676 0.04195 0.89168 0.0
O1303 O 0.64314 0.0351 0.91136 0.0
O1304 O 0.63342 0.02218 0.86589 0.0
O1305 O 0.65973 0.0217 0.8666 0.0
O1306 O 0.64904 0.98433 0.87647 0.0
O1307 O 0.63048 1.00137 0.88969 0.0
O1308 O 0.69725 0.98713 0.8721 0.0
O1309 O 0.6754 0.98409 0.8567 0.0
O1310 O 0.68792 0.99948 0.89872 0.0
O1311 O 0.66139 1.00257 0.89876 0.0
H1312 H 0.65993 0.06034 0.91748 0.0
H1313 H 0.6661 0.08907 0.9134 0.0
H1314 H 0.614 0.0981 0.89734 0.0
H1315 H 0.60781 0.06979 0.90218 0.0
H1316 H 0.66656 0.95497 0.85734 0.0
H1317 H 0.67032 0.92577 0.86269 0.0
H1318 H 0.72382 0.93212 0.8728 0.0
H1319 H 0.72008 0.96159 0.86747 0.0
Ho1320 Ho 0.759 0.88945 0.65015 0.0
Ho1321 Ho 0.78476 0.91119 0.66429 0.0
C1322 C 0.7498 0.93022 0.65249 0.0
C1323 C 0.73056 0.87484 0.64646 0.0
C1324 C 0.71568 0.8798 0.63674 0.0
C1325 C 0.70944 0.86873 0.62571 0.0
C1326 C 0.70081 0.87463 0.61247 0.0
C1327 C 0.6987 0.89169 0.60993 0.0
C1328 C 0.70266 0.90246 0.6222 0.0
C1329 C 0.71086 0.89652 0.63557 0.0
C1330 C 0.78047 0.89954 0.62917 0.0
C1331 C 0.79729 0.87342 0.65443 0.0
C1332 C 0.8114 0.92711 0.67242 0.0
C1333 C 0.82951 0.92441 0.66974 0.0
C1334 C 0.83495 0.91477 0.6572 0.0
C1335 C 0.85225 0.91129 0.65533 0.0
C1336 C 0.86429 0.91736 0.66603 0.0
C1337 C 0.85874 0.92717 0.67846 0.0
C1338 C 0.84144 0.93063 0.68031 0.0
C1339 C 0.76383 0.89708 0.68466 0.0
O1340 O 0.74503 0.91528 0.64784 0.0
O1341 O 0.765 0.93177 0.65933 0.0
O1342 O 0.74412 0.87096 0.63862 0.0
O1343 O 0.73397 0.88432 0.65836 0.0
O1344 O 0.77167 0.88636 0.62773 0.0
O1345 O 0.77511 0.90818 0.64043 0.0
O1346 O 0.8015 0.88898 0.65681 0.0
O1347 O 0.78079 0.86982 0.65378 0.0
O1348 O 0.80472 0.91613 0.68114 0.0
O1349 O 0.80187 0.93081 0.66024 0.0
O1350 O 0.76856 0.91217 0.68566 0.0
O1351 O 0.77072 0.89032 0.67321 0.0
H1352 H 0.71265 0.85571 0.62658 0.0
H1353 H 0.69696 0.86579 0.60377 0.0
H1354 H 0.70104 0.91564 0.62106 0.0
H1355 H 0.71494 0.9053 0.64423 0.0
H1356 H 0.82584 0.90978 0.64899 0.0
H1357 H 0.85617 0.90365 0.64569 0.0
H1358 H 0.86778 0.93228 0.6867 0.0
H1359 H 0.83738 0.93804 0.69007 0.0
Ho1360 Ho 0.89779 0.97748 0.39002 0.0
Ho1361 Ho 0.87685 1.00035 0.41095 0.0
C1362 C 0.85601 0.97275 0.39186 0.0
C1363 C 0.91203 0.95221 0.37646 0.0
C1364 C 0.90833 0.94195 0.36263 0.0
C1365 C 0.91687 0.92668 0.36074 0.0
C1366 C 0.91468 0.91753 0.34707 0.0
C1367 C 0.90391 0.92347 0.3349 0.0
C1368 C 0.89503 0.93863 0.33706 0.0
C1369 C 0.89719 0.94773 0.35076 0.0
C1370 C 0.88407 1.00453 0.37627 0.0
C1371 C 0.91573 1.00947 0.40247 0.0
C1372 C 0.86296 0.02728 0.42191 0.0
C1373 C 0.86401 0.04504 0.4182 0.0
C1374 C 0.87197 0.05028 0.40483 0.0
C1375 C 0.87213 0.06706 0.40105 0.0
C1376 C 0.86472 0.07903 0.41081 0.0
C1377 C 0.85709 0.07374 0.42436 0.0
C1378 C 0.85664 0.05695 0.42795 0.0
C1379 C 0.89027 0.97317 0.42601 0.0
O1380 O 0.87091 0.96784 0.38613 0.0
O1381 O 0.85489 0.98518 0.40187 0.0
O1382 O 0.91566 0.96746 0.37371 0.0
O1383 O 0.902 0.95096 0.3882 0.0
O1384 O 0.89838 0.99774 0.37209 0.0
O1385 O 0.87759 0.99588 0.38627 0.0
O1386 O 0.90014 1.0149 0.40555 0.0
O1387 O 0.91875 0.99384 0.39864 0.0
O1388 O 0.85572 0.01811 0.41133 0.0
O1389 O 0.87662 0.02006 0.42804 0.0
O1390 O 0.87616 0.98101 0.4294 0.0
O1391 O 0.89753 0.98116 0.41558 0.0
H1392 H 0.92551 0.92196 0.36975 0.0
H1393 H 0.9215 0.90581 0.34602 0.0
H1394 H 0.88679 0.94377 0.32798 0.0
H1395 H 0.89047 0.9595 0.35193 0.0
H1396 H 0.87804 0.04138 0.39729 0.0
H1397 H 0.87829 0.0707 0.39063 0.0
H1398 H 0.85118 0.0826 0.4321 0.0
H1399 H 0.85044 0.05327 0.43833 0.0
Ho1400 Ho 0.77416 0.14032 0.13904 0.0
Ho1401 Ho 0.74301 0.12208 0.15252 0.0
C1402 C 0.77664 0.09994 0.14165 0.0
C1403 C 0.80339 0.14905 0.12843 0.0
C1404 C 0.81521 0.14349 0.11599 0.0
C1405 C 0.81309 0.12859 0.10794 0.0
C1406 C 0.8239 0.12394 0.09582 0.0
C1407 C 0.83719 0.13403 0.09129 0.0
C1408 C 0.83946 0.14878 0.09965 0.0
C1409 C 0.82862 0.15343 0.11176 0.0
C1410 C 0.74672 0.13634 0.11973 0.0
C1411 C 0.74572 0.16289 0.15363 0.0
C1412 C 0.71016 0.11393 0.15416 0.0
C1413 C 0.69042 0.11766 0.15224 0.0
C1414 C 0.68265 0.12555 0.13916 0.0
C1415 C 0.66445 0.12724 0.13687 0.0
C1416 C 0.65245 0.12093 0.14733 0.0
C1417 C 0.66041 0.11317 0.16052 0.0
C1418 C 0.67864 0.11161 0.16285 0.0
C1419 C 0.77022 0.12654 0.17343 0.0
O1420 O 0.78385 0.11412 0.13947 0.0
O1421 O 0.76018 0.09932 0.1456 0.0
O1422 O 0.78865 0.15549 0.12392 0.0
O1423 O 0.8019 0.13933 0.14026 0.0
O1424 O 0.75622 0.14898 0.11981 0.0
O1425 O 0.75284 0.12589 0.12928 0.0
O1426 O 0.73604 0.14979 0.15193 0.0
O1427 O 0.76247 0.16158 0.15208 0.0
O1428 O 0.71937 0.11941 0.16587 0.0
O1429 O 0.71956 0.11233 0.14196 0.0
O1430 O 0.75911 0.11488 0.17423 0.0
O1431 O 0.76492 0.13622 0.16264 0.0
H1432 H 0.80295 0.12059 0.11093 0.0
H1433 H 0.82178 0.11235 0.08997 0.0
H1434 H 0.84933 0.15704 0.09656 0.0
H1435 H 0.83059 0.165 0.11771 0.0
H1436 H 0.69069 0.13036 0.13043 0.0
H1437 H 0.66001 0.13364 0.12658 0.0
H1438 H 0.65258 0.10789 0.16914 0.0
H1439 H 0.68356 0.10518 0.17302 0.0
Ho1440 Ho 0.63589 1.01171 0.63718 0.0
Ho1441 Ho 0.65693 0.0398 0.62418 0.0
C1442 C 0.67781 1.00547 0.6347 0.0
C1443 C 0.62514 0.98332 0.6458 0.0
C1444 C 0.63138 0.97061 0.65725 0.0
C1445 C 0.63359 0.95404 0.65278 0.0
C1446 C 0.63899 0.94193 0.66358 0.0
C1447 C 0.64232 0.94606 0.67921 0.0
C1448 C 0.64014 0.96272 0.68359 0.0
C1449 C 0.63484 0.97478 0.6728 0.0
C1450 C 0.64441 0.03548 0.65772 0.0
C1451 C 0.61467 0.04458 0.62889 0.0
C1452 C 0.66655 0.07088 0.62138 0.0
C1453 C 0.66172 0.08957 0.62373 0.0
C1454 C 0.66786 0.09897 0.63654 0.0
C1455 C 0.66524 0.11655 0.63768 0.0
C1456 C 0.65646 0.126 0.62599 0.0
C1457 C 0.65001 0.11643 0.61339 0.0
C1458 C 0.6526 0.09894 0.61228 0.0
C1459 C 0.65039 1.01465 0.60299 0.0
O1460 O 0.66253 1.00001 0.63758 0.0
O1461 O 0.67963 0.02121 0.63025 0.0
O1462 O 0.61966 0.99741 0.65135 0.0
O1463 O 0.63412 0.98522 0.63351 0.0
O1464 O 0.63074 0.02717 0.65821 0.0
O1465 O 0.65376 0.02966 0.64725 0.0
O1466 O 0.63 0.05075 0.62757 0.0
O1467 O 0.61305 0.02842 0.63021 0.0
O1468 O 0.65904 0.06232 0.61039 0.0
O1469 O 0.6705 0.0614 0.63323 0.0
O1470 O 0.66334 0.02436 0.60286 0.0
O1471 O 0.64018 0.02036 0.61328 0.0
H1472 H 0.63108 0.95041 0.6409 0.0
H1473 H 0.64069 0.92936 0.65961 0.0
H1474 H 0.64222 0.96649 0.69549 0.0
H1475 H 0.6333 0.98739 0.67674 0.0
H1476 H 0.67517 0.09275 0.64568 0.0
H1477 H 0.67065 0.12278 0.64765 0.0
H1478 H 0.64281 0.12243 0.60409 0.0
H1479 H 0.64762 0.09275 0.60209 0.0
Ho1480 Ho 0.78812 0.88807 0.36269 0.0
Ho1481 Ho 0.75256 0.89773 0.34425 0.0
C1482 C 0.78418 0.92216 0.34728 0.0
C1483 C 0.81837 0.88614 0.37602 0.0
C1484 C 0.8262 0.88442 0.39196 0.0
C1485 C 0.8432 0.87863 0.39409 0.0
C1486 C 0.8514 0.87887 0.40882 0.0
C1487 C 0.84287 0.88509 0.42184 0.0
C1488 C 0.82564 0.89031 0.4197 0.0
C1489 C 0.81746 0.88999 0.40504 0.0
C1490 C 0.76133 0.89977 0.37895 0.0
C1491 C 0.76119 0.86074 0.36011 0.0
C1492 C 0.71848 0.90231 0.34303 0.0
C1493 C 0.69844 0.90489 0.34359 0.0
C1494 C 0.68944 0.9051 0.35769 0.0
C1495 C 0.6711 0.90665 0.35832 0.0
C1496 C 0.66021 0.9077 0.34486 0.0
C1497 C 0.66932 0.90762 0.33078 0.0
C1498 C 0.68766 0.90638 0.33018 0.0
C1499 C 0.77869 0.88513 0.32574 0.0
O1500 O 0.7931 0.90826 0.34635 0.0
O1501 O 0.76718 0.92178 0.34859 0.0
O1502 O 0.81087 0.87346 0.36974 0.0
O1503 O 0.80982 0.89991 0.3732 0.0
O1504 O 0.77247 0.88912 0.38436 0.0
O1505 O 0.76557 0.90424 0.3659 0.0
O1506 O 0.75023 0.87175 0.35369 0.0
O1507 O 0.77745 0.8634 0.36286 0.0
O1508 O 0.72843 0.90638 0.33172 0.0
O1509 O 0.72744 0.89608 0.35466 0.0
O1510 O 0.76546 0.89411 0.32076 0.0
O1511 O 0.77593 0.88171 0.33983 0.0
H1512 H 0.85035 0.87437 0.38424 0.0
H1513 H 0.86463 0.87482 0.40987 0.0
H1514 H 0.81847 0.89493 0.4294 0.0
H1515 H 0.80438 0.89454 0.40386 0.0
H1516 H 0.69666 0.904 0.36849 0.0
H1517 H 0.66546 0.9066 0.36956 0.0
H1518 H 0.66227 0.90862 0.31991 0.0
H1519 H 0.6934 0.90629 0.31896 0.0
Ho1520 Ho 0.89821 0.02258 0.12756 0.0
Ho1521 Ho 0.87345 1.00417 0.10753 0.0
C1522 C 0.85745 0.03661 0.12375 0.0
C1523 C 0.91593 0.04531 0.14044 0.0
C1524 C 0.91245 0.05586 0.15408 0.0
C1525 C 0.90084 0.06937 0.15312 0.0
C1526 C 0.89521 0.07721 0.16656 0.0
C1527 C 0.901 0.07165 0.1812 0.0
C1528 C 0.91354 0.05892 0.18203 0.0
C1529 C 0.91929 0.05123 0.16863 0.0
C1530 C 0.88207 0.99923 0.14279 0.0
C1531 C 0.91079 0.98685 0.11709 0.0
C1532 C 0.8562 0.98052 0.09587 0.0
C1533 C 0.85734 0.96282 0.09954 0.0
C1534 C 0.87315 0.9542 0.0999 0.0
C1535 C 0.8744 0.93787 0.10471 0.0
C1536 C 0.85986 0.92974 0.10917 0.0
C1537 C 0.84404 0.93835 0.10884 0.0
C1538 C 0.84281 0.95476 0.1041 0.0
C1539 C 0.89098 0.0272 0.09225 0.0
O1540 O 0.87347 0.0388 0.12882 0.0
O1541 O 0.85376 0.02343 0.11536 0.0
O1542 O 0.91839 0.02966 0.14338 0.0
O1543 O 0.90624 0.04783 0.12807 0.0
O1544 O 0.89717 1.00404 0.1466 0.0
O1545 O 0.87576 1.00848 0.13236 0.0
O1546 O 0.89423 0.98497 0.11445 0.0
O1547 O 0.91645 1.00186 0.11973 0.0
O1548 O 0.86924 0.98659 0.08907 0.0
O1549 O 0.85059 0.99003 0.10695 0.0
O1550 O 0.8753 0.02356 0.08905 0.0
O1551 O 0.89693 0.01766 0.10265 0.0
H1552 H 0.89553 0.07346 0.14207 0.0
H1553 H 0.88591 0.08729 0.16548 0.0
H1554 H 0.91826 0.05423 0.19306 0.0
H1555 H 0.92841 0.041 0.16975 0.0
H1556 H 0.88463 0.96005 0.09653 0.0
H1557 H 0.88672 0.93151 0.10461 0.0
H1558 H 0.83264 0.93241 0.11232 0.0
H1559 H 0.83055 0.96123 0.10417 0.0
Ho1560 Ho 0.76801 0.15831 0.88679 0.0
Ho1561 Ho 0.79311 0.13156 0.87748 0.0
C1562 C 0.75408 0.11884 0.88252 0.0
C1563 C 0.74149 0.17765 0.88901 0.0
C1564 C 0.72617 0.17634 0.89813 0.0
C1565 C 0.71982 0.16083 0.90137 0.0
C1566 C 0.70853 0.15902 0.91332 0.0
C1567 C 0.70339 0.17274 0.92209 0.0
C1568 C 0.70843 0.18847 0.91783 0.0
C1569 C 0.71983 0.19024 0.90594 0.0
C1570 C 0.78398 0.14227 0.9104 0.0
C1571 C 0.80764 0.17063 0.88235 0.0
C1572 C 0.81757 0.10978 0.87614 0.0
C1573 C 0.83416 0.10803 0.86909 0.0
C1574 C 0.84492 0.12136 0.86832 0.0
C1575 C 0.86041 0.11951 0.86102 0.0
C1576 C 0.86528 0.10436 0.85423 0.0
C1577 C 0.85433 0.09111 0.85487 0.0
C1578 C 0.83887 0.09295 0.86228 0.0
C1579 C 0.77715 0.14735 0.85357 0.0
O1580 O 0.75045 0.13507 0.88445 0.0
O1581 O 0.77039 0.11429 0.88072 0.0
O1582 O 0.75548 0.17939 0.8973 0.0
O1583 O 0.74338 0.16695 0.87781 0.0
O1584 O 0.77991 0.15783 0.91075 0.0
O1585 O 0.7784 0.13618 0.89802 0.0
O1586 O 0.81112 0.15432 0.8805 0.0
O1587 O 0.79121 0.17546 0.8837 0.0
O1588 O 0.80468 0.1105 0.8663 0.0
O1589 O 0.81609 0.12034 0.88757 0.0
O1590 O 0.78209 0.13201 0.85324 0.0
O1591 O 0.78234 0.15367 0.86603 0.0
H1592 H 0.72444 0.14998 0.89539 0.0
H1593 H 0.70461 0.14681 0.91627 0.0
H1594 H 0.7047 0.19924 0.92449 0.0
H1595 H 0.72464 0.20228 0.90364 0.0
H1596 H 0.8414 0.13314 0.8734 0.0
H1597 H 0.86876 0.12984 0.86103 0.0
H1598 H 0.85773 0.07935 0.84969 0.0
H1599 H 0.83054 0.08261 0.86264 0.0
Ho1600 Ho 0.86788 0.60563 0.01711 0.0
Ho1601 Ho 0.87807 0.63372 0.99619 0.0
C1602 C 0.86986 0.64433 0.0319 0.0
C1603 C 0.86469 0.58636 0.04034 0.0
C1604 C 0.85869 0.58957 0.05615 0.0
C1605 C 0.86507 0.60257 0.06514 0.0
C1606 C 0.85717 0.6074 0.07879 0.0
C1607 C 0.84287 0.59924 0.08378 0.0
C1608 C 0.83725 0.58552 0.07537 0.0
C1609 C 0.84506 0.58076 0.06164 0.0
C1610 C 0.84261 0.62046 1.00008 0.0
C1611 C 0.87644 0.59501 0.98173 0.0
C1612 C 0.88144 0.65557 0.975 0.0
C1613 C 0.8826 0.65746 0.95821 0.0
C1614 C 0.8733 0.64778 0.94771 0.0
C1615 C 0.87362 0.65096 0.93186 0.0
C1616 C 0.88355 0.66359 0.92635 0.0
C1617 C 0.89338 0.67276 0.93682 0.0
C1618 C 0.89281 0.66979 0.95264 0.0
C1619 C 0.90325 0.62018 0.01363 0.0
O1620 O 0.86842 0.62811 0.03404 0.0
O1621 O 0.87247 0.64987 0.01769 0.0
O1622 O 0.85305 0.58822 0.02933 0.0
O1623 O 0.8792 0.59266 0.03678 0.0
O1624 O 0.84354 0.60475 1.00268 0.0
O1625 O 0.8547 0.62721 1.00713 0.0
O1626 O 0.87605 0.61133 0.97916 0.0
O1627 O 0.87542 0.58954 0.9962 0.0
O1628 O 0.89432 0.64809 0.98212 0.0
O1629 O 0.86674 0.65151 0.98029 0.0
O1630 O 0.90195 0.63567 1.01027 0.0
O1631 O 0.89158 0.61245 1.00686 0.0
H1632 H 0.87566 0.60952 0.0613 0.0
H1633 H 0.86188 0.61789 0.08518 0.0
H1634 H 0.8262 0.57904 0.07892 0.0
H1635 H 0.83993 0.57069 0.05493 0.0
H1636 H 0.86568 0.63795 0.95179 0.0
H1637 H 0.86615 0.64361 0.9239 0.0
H1638 H 0.9011 0.68257 0.93279 0.0
H1639 H 0.90013 0.67733 0.96058 0.0
Ho1640 Ho 0.36302 0.90865 1.00237 0.0
Ho1641 Ho 0.37605 0.87195 1.0008 0.0
C1642 C 0.37946 0.89155 0.03351 0.0
C1643 C 0.34828 0.93705 1.00653 0.0
C1644 C 0.35007 0.9506 0.01745 0.0
C1645 C 0.36241 0.94963 0.02942 0.0
C1646 C 0.36377 0.96248 0.04004 0.0
C1647 C 0.35279 0.97643 0.03879 0.0
C1648 C 0.34072 0.97749 0.02652 0.0
C1649 C 0.33939 0.96462 0.0159 0.0
C1650 C 0.39445 0.90277 0.99156 0.0
C1651 C 0.35478 0.88825 0.97121 0.0
C1652 C 0.39426 0.84572 0.99549 0.0
C1653 C 0.39102 0.8303 0.98744 0.0
C1654 C 0.40465 0.82064 0.982 0.0
C1655 C 0.4015 0.80702 0.97261 0.0
C1656 C 0.38469 0.80299 0.9686 0.0
C1657 C 0.37108 0.81201 0.97504 0.0
C1658 C 0.37423 0.82566 0.98434 0.0
C1659 C 0.34365 0.87496 1.0101 0.0
O1660 O 0.3724 0.90495 0.02708 0.0
O1661 O 0.38332 0.87808 0.02549 0.0
O1662 O 0.36114 0.93457 0.99748 0.0
O1663 O 0.34267 0.92343 0.0122 0.0
O1664 O 0.38403 0.91414 0.98619 0.0
O1665 O 0.38803 0.89568 1.00273 0.0
O1666 O 0.36515 0.87603 0.9763 0.0
O1667 O 0.35059 0.901 0.98003 0.0
O1668 O 0.38569 0.84811 1.00807 0.0
O1669 O 0.39435 0.85881 0.98673 0.0
O1670 O 0.35309 0.86164 0.01158 0.0
O1671 O 0.35128 0.88469 1.00159 0.0
H1672 H 0.37078 0.93885 0.03068 0.0
H1673 H 0.37298 0.96123 0.04954 0.0
H1674 H 0.33218 0.98815 0.0253 0.0
H1675 H 0.3299 0.96551 1.00659 0.0
H1676 H 0.41766 0.82408 0.9844 0.0
H1677 H 0.41216 0.80024 0.9677 0.0
H1678 H 0.35802 0.80933 0.9719 0.0
H1679 H 0.36357 0.83306 0.98849 0.0
Ho1680 Ho 0.84879 0.6655 0.74514 0.0
Ho1681 Ho 0.86274 0.68806 0.76752 0.0
C1682 C 0.88869 0.66763 0.74814 0.0
C1683 C 0.8372 0.64828 0.72233 0.0
C1684 C 0.84431 0.63244 0.7163 0.0
C1685 C 0.8509 0.63151 0.7014 0.0
C1686 C 0.85937 0.61712 0.69632 0.0
C1687 C 0.86134 0.60331 0.70601 0.0
C1688 C 0.85446 0.60416 0.72079 0.0
C1689 C 0.84611 0.61854 0.7259 0.0
C1690 C 0.86476 0.64894 0.76896 0.0
C1691 C 0.82411 0.67627 0.77244 0.0
C1692 C 0.87203 0.70476 0.79162 0.0
C1693 C 0.86957 0.70262 0.80825 0.0
C1694 C 0.85643 0.69299 0.8135 0.0
C1695 C 0.85562 0.68905 0.82913 0.0
C1696 C 0.86807 0.69451 0.83976 0.0
C1697 C 0.88097 0.7045 0.83452 0.0
C1698 C 0.88169 0.70853 0.81889 0.0
C1699 C 0.86161 0.70128 0.73825 0.0
O1700 O 0.87584 0.66677 0.73813 0.0
O1701 O 0.88645 0.67369 0.76204 0.0
O1702 O 0.83087 0.64798 0.7361 0.0
O1703 O 0.84646 0.66113 0.7204 0.0
O1704 O 0.86478 0.64435 0.75466 0.0
O1705 O 0.85571 0.66203 0.77022 0.0
O1706 O 0.83691 0.685 0.77765 0.0
O1707 O 0.82494 0.66855 0.75901 0.0
O1708 O 0.85851 0.70871 0.78307 0.0
O1709 O 0.88153 0.69319 0.78537 0.0
O1710 O 0.87333 0.70319 0.74873 0.0
O1711 O 0.84984 0.69289 0.74401 0.0
H1712 H 0.8498 0.64203 0.69379 0.0
H1713 H 0.86432 0.61679 0.68478 0.0
H1714 H 0.85587 0.59381 0.72858 0.0
H1715 H 0.84141 0.61883 0.73754 0.0
H1716 H 0.84712 0.68802 0.80549 0.0
H1717 H 0.84565 0.68119 0.8328 0.0
H1718 H 0.89064 0.709 0.84249 0.0
H1719 H 0.89204 0.71581 0.81503 0.0
Ho1720 Ho 0.11965 0.13719 0.4945 0.0
Ho1721 Ho 0.10217 0.15888 0.5178 0.0
C1722 C 0.11531 0.17661 0.48635 0.0
C1723 C 0.12956 0.12091 0.47023 0.0
C1724 C 0.14483 0.12043 0.46061 0.0
C1725 C 0.14316 0.11789 0.44459 0.0
C1726 C 0.15757 0.11723 0.43539 0.0
C1727 C 0.17396 0.11908 0.44204 0.0
C1728 C 0.17552 0.12149 0.45814 0.0
C1729 C 0.16114 0.12226 0.46729 0.0
C1730 C 0.14123 0.14726 0.51778 0.0
C1731 C 0.11244 0.12045 0.52601 0.0
C1732 C 0.09497 0.1728 0.54467 0.0
C1733 C 0.09993 0.17247 0.56198 0.0
C1734 C 0.1084 0.18569 0.5692 0.0
C1735 C 0.11171 0.18629 0.58546 0.0
C1736 C 0.10664 0.17372 0.59547 0.0
C1737 C 0.09817 0.16047 0.58813 0.0
C1738 C 0.09492 0.15988 0.57189 0.0
C1739 C 0.08022 0.14835 0.49354 0.0
O1740 O 0.11901 0.16144 0.48159 0.0
O1741 O 0.10963 0.17922 0.50068 0.0
O1742 O 0.13171 0.11561 0.48435 0.0
O1743 O 0.11988 0.13425 0.4695 0.0
O1744 O 0.14376 0.13432 0.50935 0.0
O1745 O 0.12895 0.15565 0.51169 0.0
O1746 O 0.11065 0.13572 0.53117 0.0
O1747 O 0.11212 0.1176 0.51097 0.0
O1748 O 0.08684 0.16045 0.53853 0.0
O1749 O 0.10556 0.1787 0.53487 0.0
O1750 O 0.07888 0.16204 0.50144 0.0
O1751 O 0.09224 0.13986 0.50035 0.0
H1752 H 0.13069 0.11647 0.43919 0.0
H1753 H 0.15582 0.11558 0.42303 0.0
H1754 H 0.18791 0.12271 0.46374 0.0
H1755 H 0.16281 0.12423 0.47962 0.0
H1756 H 0.11239 0.1958 0.56223 0.0
H1757 H 0.11845 0.19668 0.59011 0.0
H1758 H 0.09355 0.15055 0.59494 0.0
H1759 H 0.08813 0.14955 0.56713 0.0
Ho1760 Ho 0.18001 0.90553 0.7398 0.0
Ho1761 Ho 0.15399 0.89616 0.76341 0.0
C1762 C 0.13953 0.9031 0.72773 0.0
C1763 C 0.1976 0.90865 0.71539 0.0
C1764 C 0.19365 0.91889 0.70157 0.0
C1765 C 0.17977 0.91554 0.69154 0.0
C1766 C 0.17333 0.9275 0.68119 0.0
C1767 C 0.18065 0.94304 0.6807 0.0
C1768 C 0.19553 0.9457 0.68966 0.0
C1769 C 0.20201 0.93372 0.69989 0.0
C1770 C 0.16684 0.93076 0.75663 0.0
C1771 C 0.19431 0.90167 0.77494 0.0
C1772 C 0.13379 0.89456 0.78658 0.0
C1773 C 0.13111 0.9005 0.80258 0.0
C1774 C 0.14433 0.90074 0.81386 0.0
C1775 C 0.14077 0.90456 0.82932 0.0
C1776 C 0.12393 0.90815 0.8338 0.0
C1777 C 0.11096 0.90875 0.82226 0.0
C1778 C 0.11451 0.90492 0.80689 0.0
C1779 C 0.1669 0.87056 0.74694 0.0
O1780 O 0.15574 0.90495 0.72422 0.0
O1781 O 0.13552 0.90034 0.74239 0.0
O1782 O 0.20044 0.91694 0.72814 0.0
O1783 O 0.18793 0.8961 0.71756 0.0
O1784 O 0.18203 0.93042 0.75121 0.0
O1785 O 0.15916 0.9186 0.75127 0.0
O1786 O 0.17789 0.90214 0.77872 0.0
O1787 O 0.19842 0.90025 0.76014 0.0
O1788 O 0.14638 0.88403 0.7842 0.0
O1789 O 0.13174 0.9053 0.77549 0.0
O1790 O 0.15145 0.87157 0.75179 0.0
O1791 O 0.17518 0.8826 0.75201 0.0
H1792 H 0.17324 0.90407 0.69229 0.0
H1793 H 0.16214 0.92487 0.67414 0.0
H1794 H 0.20153 0.95749 0.68969 0.0
H1795 H 0.21282 0.93659 0.70735 0.0
H1796 H 0.15729 0.89751 0.81083 0.0
H1797 H 0.15111 0.90399 0.83786 0.0
H1798 H 0.09794 0.91191 0.82514 0.0
H1799 H 0.10413 0.90499 0.79838 0.0
Ho1800 Ho 0.60703 0.42387 0.51644 0.0
Ho1801 Ho 0.58606 0.41015 0.49232 0.0
C1802 C 0.60413 0.3853 0.51542 0.0
C1803 C 0.62087 0.43687 0.54083 0.0
C1804 C 0.63411 0.42969 0.55119 0.0
C1805 C 0.64039 0.41368 0.54828 0.0
C1806 C 0.65378 0.40689 0.55723 0.0
C1807 C 0.66118 0.416 0.56934 0.0
C1808 C 0.65457 0.43196 0.5725 0.0
C1809 C 0.64113 0.43877 0.56344 0.0
C1810 C 0.62635 0.40846 0.49443 0.0
C1811 C 0.59871 0.44753 0.48758 0.0
C1812 C 0.57305 0.40031 0.4662 0.0
C1813 C 0.57794 0.40232 0.44993 0.0
C1814 C 0.58724 0.41583 0.4453 0.0
C1815 C 0.59347 0.41655 0.43031 0.0
C1816 C 0.59073 0.40368 0.41966 0.0
C1817 C 0.58124 0.39028 0.4243 0.0
C1818 C 0.57492 0.38963 0.43925 0.0
C1819 C 0.56953 0.4111 0.5205 0.0
O1820 O 0.60527 0.3981 0.52469 0.0
O1821 O 0.59949 0.38711 0.50081 0.0
O1822 O 0.62581 0.43965 0.52686 0.0
O1823 O 0.60628 0.42966 0.54086 0.0
O1824 O 0.62955 0.40793 0.50918 0.0
O1825 O 0.613 0.41731 0.49201 0.0
O1826 O 0.58991 0.43523 0.48188 0.0
O1827 O 0.60536 0.44671 0.50172 0.0
O1828 O 0.56727 0.41338 0.47359 0.0
O1829 O 0.58393 0.3915 0.47459 0.0
O1830 O 0.56793 0.40031 0.5096 0.0
O1831 O 0.57863 0.42248 0.5151 0.0
H1832 H 0.63518 0.40655 0.53882 0.0
H1833 H 0.65868 0.3947 0.55431 0.0
H1834 H 0.65986 0.43921 0.58189 0.0
H1835 H 0.6364 0.45116 0.56584 0.0
H1836 H 0.59006 0.42565 0.45335 0.0
H1837 H 0.60087 0.42697 0.42719 0.0
H1838 H 0.57872 0.38025 0.41637 0.0
H1839 H 0.56798 0.37899 0.4426 0.0
Ho1840 Ho 0.86209 0.39043 0.73045 0.0
Ho1841 Ho 0.87672 0.37288 0.70089 0.0
C1842 C 0.90133 0.39445 0.72407 0.0
C1843 C 0.85085 0.39978 0.75706 0.0
C1844 C 0.85642 0.4117 0.76902 0.0
C1845 C 0.8502 0.41093 0.78402 0.0
C1846 C 0.85548 0.42209 0.79548 0.0
C1847 C 0.86713 0.43433 0.7922 0.0
C1848 C 0.8733 0.43502 0.77707 0.0
C1849 C 0.86806 0.42382 0.76566 0.0
C1850 C 0.86334 0.40872 0.7047 0.0
C1851 C 0.83766 0.36933 0.70799 0.0
C1852 C 0.8903 0.36563 0.67461 0.0
C1853 C 0.88653 0.36328 0.65793 0.0
C1854 C 0.87192 0.37034 0.65066 0.0
C1855 C 0.86985 0.36972 0.63451 0.0
C1856 C 0.88209 0.36153 0.6254 0.0
C1857 C 0.89623 0.35371 0.63286 0.0
C1858 C 0.89849 0.3547 0.64894 0.0
C1859 C 0.87561 0.35439 0.72632 0.0
O1860 O 0.88903 0.39637 0.734 0.0
O1861 O 0.89959 0.38625 0.71083 0.0
O1862 O 0.8452 0.40601 0.74389 0.0
O1863 O 0.86087 0.38678 0.75517 0.0
O1864 O 0.86578 0.41453 0.71855 0.0
O1865 O 0.85956 0.39389 0.70534 0.0
O1866 O 0.84875 0.37039 0.69681 0.0
O1867 O 0.84112 0.37401 0.72239 0.0
O1868 O 0.88495 0.35458 0.68408 0.0
O1869 O 0.88867 0.38062 0.68009 0.0
O1870 O 0.87383 0.34854 0.71242 0.0
O1871 O 0.87937 0.36928 0.72595 0.0
H1872 H 0.8413 0.40161 0.7869 0.0
H1873 H 0.85063 0.42093 0.80698 0.0
H1874 H 0.88207 0.44435 0.77395 0.0
H1875 H 0.87307 0.42464 0.75417 0.0
H1876 H 0.86237 0.37667 0.65745 0.0
H1877 H 0.85881 0.37585 0.62913 0.0
H1878 H 0.90596 0.34742 0.62621 0.0
H1879 H 0.90986 0.34912 0.65433 0.0
Ho1880 Ho 0.66762 0.66944 0.2911 0.0
Ho1881 Ho 0.64522 0.68661 0.26633 0.0
C1882 C 0.62638 0.67433 0.29818 0.0
C1883 C 0.68407 0.65966 0.31598 0.0
C1884 C 0.685 0.64391 0.32434 0.0
C1885 C 0.68643 0.64372 0.34054 0.0
C1886 C 0.68603 0.62883 0.34857 0.0
C1887 C 0.68412 0.6139 0.34049 0.0
C1888 C 0.68325 0.61415 0.32425 0.0
C1889 C 0.68358 0.62898 0.31627 0.0
C1890 C 0.65605 0.64899 0.26844 0.0
C1891 C 0.68573 0.6755 0.25877 0.0
C1892 C 0.62969 0.69429 0.23966 0.0
C1893 C 0.62885 0.69227 0.22199 0.0
C1894 C 0.63253 0.67734 0.21406 0.0
C1895 C 0.6297 0.6757 0.19772 0.0
C1896 C 0.62296 0.68894 0.18856 0.0
C1897 C 0.61992 0.70397 0.1966 0.0
C1898 C 0.62273 0.70554 0.21278 0.0
C1899 C 0.65522 0.70677 0.29126 0.0
O1900 O 0.64209 0.67057 0.30346 0.0
O1901 O 0.62401 0.67965 0.2835 0.0
O1902 O 0.69065 0.65958 0.30233 0.0
O1903 O 0.66942 0.66764 0.31611 0.0
O1904 O 0.6697 0.64617 0.2768 0.0
O1905 O 0.64814 0.66121 0.27412 0.0
O1906 O 0.66991 0.6787 0.25329 0.0
O1907 O 0.68836 0.67482 0.27402 0.0
O1908 O 0.64157 0.70305 0.24631 0.0
O1909 O 0.62571 0.68202 0.24842 0.0
O1910 O 0.64116 0.70852 0.28298 0.0
O1911 O 0.66419 0.69554 0.28459 0.0
H1912 H 0.68745 0.65512 0.34698 0.0
H1913 H 0.68655 0.62908 0.36108 0.0
H1914 H 0.68203 0.60286 0.31767 0.0
H1915 H 0.68241 0.62878 0.30378 0.0
H1916 H 0.63743 0.66682 0.22052 0.0
H1917 H 0.63232 0.66386 0.19237 0.0
H1918 H 0.61521 0.71474 0.19036 0.0
H1919 H 0.61972 0.71727 0.21821 0.0
Ho1920 Ho 0.49641 0.61233 0.88959 0.0
Ho1921 Ho 0.4689 0.62415 0.90794 0.0
C1922 C 0.50552 0.62251 0.92615 0.0
C1923 C 0.52455 0.60404 0.87653 0.0
C1924 C 0.54254 0.60361 0.88134 0.0
C1925 C 0.54905 0.61514 0.8919 0.0
C1926 C 0.56616 0.61404 0.89671 0.0
C1927 C 0.57688 0.60132 0.8911 0.0
C1928 C 0.57017 0.58967 0.88075 0.0
C1929 C 0.55313 0.59082 0.87592 0.0
C1930 C 0.47461 0.58826 0.89628 0.0
C1931 C 0.46206 0.62271 0.86969 0.0
C1932 C 0.43957 0.62815 0.92052 0.0
C1933 C 0.42368 0.63647 0.91492 0.0
C1934 C 0.41705 0.63352 0.89994 0.0
C1935 C 0.40502 0.6445 0.89322 0.0
C1936 C 0.3995 0.6586 0.90136 0.0
C1937 C 0.40485 0.66054 0.91689 0.0
C1938 C 0.41682 0.64954 0.9236 0.0
C1939 C 0.48891 0.64846 0.89897 0.0
O1940 O 0.51137 0.61987 0.91203 0.0
O1941 O 0.48875 0.62216 0.92796 0.0
O1942 O 0.51529 0.59368 0.88371 0.0
O1943 O 0.51706 0.61853 0.87493 0.0
O1944 O 0.48088 0.5909 0.88295 0.0
O1945 O 0.48008 0.59887 0.90598 0.0
O1946 O 0.45541 0.62492 0.8836 0.0
O1947 O 0.47864 0.61894 0.86892 0.0
O1948 O 0.45218 0.63794 0.923 0.0
O1949 O 0.44435 0.61463 0.91342 0.0
O1950 O 0.48163 0.64821 0.91217 0.0
O1951 O 0.48407 0.63659 0.89073 0.0
H1952 H 0.54097 0.625 0.89637 0.0
H1953 H 0.57103 0.62316 0.90471 0.0
H1954 H 0.57821 0.57995 0.87599 0.0
H1955 H 0.54823 0.58175 0.86788 0.0
H1956 H 0.42194 0.62336 0.89306 0.0
H1957 H 0.40081 0.64249 0.88136 0.0
H1958 H 0.40093 0.67129 0.9235 0.0
H1959 H 0.42172 0.65201 0.93518 0.0
Ho1960 Ho 0.70696 0.28902 0.15408 0.0
Ho1961 Ho 0.67741 0.26786 0.1661 0.0
C1962 C 0.69187 0.29423 0.18874 0.0
C1963 C 0.72251 0.31519 0.14609 0.0
C1964 C 0.717 0.33235 0.14183 0.0
C1965 C 0.7066 0.3423 0.15135 0.0
C1966 C 0.70132 0.3583 0.1468 0.0
C1967 C 0.70621 0.36475 0.13257 0.0
C1968 C 0.71674 0.35477 0.1232 0.0
C1969 C 0.72203 0.33885 0.12776 0.0
C1970 C 0.71719 0.25805 0.16165 0.0
C1971 C 0.68702 0.26628 0.1299 0.0
C1972 C 0.65597 0.24536 0.17261 0.0
C1973 C 0.6427 0.23489 0.16519 0.0
C1974 C 0.64692 0.21903 0.15964 0.0
C1975 C 0.63415 0.20831 0.15481 0.0
C1976 C 0.61676 0.21306 0.15548 0.0
C1977 C 0.61259 0.2292 0.16031 0.0
C1978 C 0.62536 0.23993 0.16517 0.0
C1979 C 0.66926 0.29845 0.15508 0.0
O1980 O 0.69841 0.30088 0.17641 0.0
O1981 O 0.68598 0.27918 0.1884 0.0
O1982 O 0.72094 0.31072 0.16045 0.0
O1983 O 0.71821 0.3036 0.13634 0.0
O1984 O 0.72542 0.26763 0.15277 0.0
O1985 O 0.70579 0.26646 0.16867 0.0
O1986 O 0.68027 0.25881 0.14167 0.0
O1987 O 0.69587 0.27974 0.13161 0.0
O1988 O 0.65254 0.26115 0.17359 0.0
O1989 O 0.672 0.24213 0.16969 0.0
O1990 O 0.66103 0.2919 0.16612 0.0
O1991 O 0.67986 0.28814 0.15035 0.0
H1992 H 0.70232 0.33765 0.16222 0.0
H1993 H 0.69305 0.36545 0.15425 0.0
H1994 H 0.7211 0.3593 0.11232 0.0
H1995 H 0.73008 0.33156 0.12021 0.0
H1996 H 0.66007 0.21464 0.15953 0.0
H1997 H 0.63791 0.19605 0.15099 0.0
H1998 H 0.59939 0.23327 0.16117 0.0
H1999 H 0.62157 0.25197 0.16952 0.0
Ho2000 Ho 0.03326 0.39353 0.36623 0.0
Ho2001 Ho 0.03205 0.39595 0.39543 0.0
C2002 C 0.05726 0.36673 0.3845 0.0
C2003 C 0.03366 0.40083 0.33709 0.0
C2004 C 0.04408 0.40857 0.32571 0.0
C2005 C 0.0563 0.41999 0.33007 0.0
C2006 C 0.06846 0.42438 0.31955 0.0
C2007 C 0.06881 0.41693 0.30482 0.0
C2008 C 0.0552 0.40715 0.30001 0.0
C2009 C 0.04293 0.40299 0.31043 0.0
C2010 C 1.01692 0.36641 0.37502 0.0
C2011 C 0.99494 0.40531 0.37721 0.0
C2012 C 0.02645 0.401 0.42441 0.0
C2013 C 1.01122 0.40091 0.43382 0.0
C2014 C 0.99651 0.3931 0.42845 0.0
C2015 C 0.98175 0.3939 0.43708 0.0
C2016 C 0.98144 0.40259 0.45117 0.0
C2017 C 0.99628 0.41024 0.45656 0.0
C2018 C 1.01106 0.40939 0.44794 0.0
C2019 C 0.06013 0.41402 0.38566 0.0
O2020 O 0.05711 0.37647 0.37212 0.0
O2021 O 0.04618 0.37087 0.39522 0.0
O2022 O 0.03984 0.38707 0.34284 0.0
O2023 O 0.02697 0.41038 0.34755 0.0
O2024 O 0.02832 0.36663 0.36458 0.0
O2025 O 1.01503 0.38066 0.38081 0.0
O2026 O 1.00322 0.40466 0.39089 0.0
O2027 O 1.00447 0.40129 0.36526 0.0
O2028 O 0.02664 0.41277 0.41423 0.0
O2029 O 0.03157 0.38679 0.41879 0.0
O2030 O 0.06034 0.40227 0.39562 0.0
O2031 O 0.04485 0.4145 0.37996 0.0
H2032 H 0.05717 0.42459 0.34183 0.0
H2033 H 0.07858 0.43226 0.32346 0.0
H2034 H 0.05502 0.40116 0.28881 0.0
H2035 H 0.03337 0.39432 0.3069 0.0
H2036 H 0.99637 0.3866 0.41749 0.0
H2037 H 0.97046 0.38808 0.43252 0.0
H2038 H 0.99646 0.41689 0.46743 0.0
H2039 H 0.02229 0.41553 0.45221 0.0
Ho2040 Ho 0.88253 0.76756 0.62857 0.0
Ho2041 Ho 0.90557 0.7824 0.64393 0.0
C2042 C 0.88371 0.75768 0.6639 0.0
C2043 C 0.86632 0.74865 0.6096 0.0
C2044 C 0.86274 0.73119 0.61105 0.0
C2045 C 0.87403 0.72089 0.61967 0.0
C2046 C 0.86974 0.70485 0.62291 0.0
C2047 C 0.85402 0.69886 0.61774 0.0
C2048 C 0.84283 0.70908 0.60887 0.0
C2049 C 0.8472 0.72518 0.60553 0.0
C2050 C 0.86553 0.79409 0.64189 0.0
C2051 C 0.90234 0.79589 0.60957 0.0
C2052 C 0.92676 0.79914 0.66099 0.0
C2053 C 0.939 0.81178 0.65701 0.0
C2054 C 0.93568 0.82242 0.64448 0.0
C2055 C 0.94835 0.83255 0.63927 0.0
C2056 C 0.96459 0.83237 0.64654 0.0
C2057 C 0.96763 0.82226 0.65953 0.0
C2058 C 0.95498 0.812 0.66465 0.0
C2059 C 0.91945 0.75242 0.63288 0.0
O2060 O 0.87977 0.75179 0.65007 0.0
O2061 O 0.89225 0.77142 0.66446 0.0
O2062 O 0.85876 0.75819 0.6196 0.0
O2063 O 0.88234 0.75205 0.60819 0.0
O2064 O 0.8609 0.779 0.64147 0.0
O2065 O 0.88024 0.79454 0.63568 0.0
O2066 O 0.90865 0.79892 0.62341 0.0
O2067 O 0.89244 0.78304 0.60816 0.0
O2068 O 0.93023 0.78456 0.65553 0.0
O2069 O 0.91061 0.80302 0.65934 0.0
O2070 O 0.9249 0.76696 0.62998 0.0
O2071 O 0.90547 0.75485 0.63967 0.0
H2072 H 0.88594 0.7254 0.62435 0.0
H2073 H 0.87847 0.69736 0.63001 0.0
H2074 H 0.83065 0.7047 0.60472 0.0
H2075 H 0.83825 0.73308 0.59905 0.0
H2076 H 0.92345 0.82259 0.63843 0.0
H2077 H 0.94552 0.84035 0.62937 0.0
H2078 H 0.98002 0.82174 0.66532 0.0
H2079 H 0.95788 0.80381 0.67425 0.0
Ho2080 Ho 0.50653 0.39096 0.6371 0.0
Ho2081 Ho 0.49112 0.37407 0.61733 0.0
C2082 C 0.51775 0.39508 0.60086 0.0
C2083 C 0.52839 0.40582 0.65482 0.0
C2084 C 0.54087 0.4016 0.66718 0.0
C2085 C 0.55228 0.38809 0.66574 0.0
C2086 C 0.56653 0.38659 0.67564 0.0
C2087 C 0.56952 0.39859 0.6871 0.0
C2088 C 0.55679 0.41073 0.68983 0.0
C2089 C 0.54263 0.41232 0.6798 0.0
C2090 C 0.47829 0.40979 0.62727 0.0
C2091 C 0.47686 0.37252 0.65271 0.0
C2092 C 0.47029 0.35654 0.60083 0.0
C2093 C 0.46218 0.3407 0.60311 0.0
C2094 C 0.45223 0.338 0.61602 0.0
C2095 C 0.4454 0.32263 0.61836 0.0
C2096 C 0.44849 0.30961 0.60794 0.0
C2097 C 0.45831 0.3124 0.59495 0.0
C2098 C 0.46504 0.32782 0.59255 0.0
C2099 C 0.52134 0.35676 0.62569 0.0
O2100 O 0.52304 0.39552 0.61559 0.0
O2101 O 0.50257 0.38909 0.59828 0.0
O2102 O 0.53167 0.40032 0.64104 0.0
O2103 O 0.51248 0.40461 0.65806 0.0
O2104 O 0.48383 0.40799 0.64126 0.0
O2105 O 0.48808 0.40139 0.61856 0.0
O2106 O 0.47302 0.37116 0.63778 0.0
O2107 O 0.49216 0.37791 0.65606 0.0
O2108 O 0.48671 0.35573 0.59954 0.0
O2109 O 0.46542 0.36882 0.60953 0.0
O2110 O 0.51558 0.36027 0.612 0.0
O2111 O 0.51086 0.36356 0.63511 0.0
H2112 H 0.55093 0.37945 0.65625 0.0
H2113 H 0.57604 0.37707 0.67319 0.0
H2114 H 0.55861 0.41995 0.69875 0.0
H2115 H 0.53373 0.42264 0.68126 0.0
H2116 H 0.44978 0.34769 0.62437 0.0
H2117 H 0.43758 0.321 0.6283 0.0
H2118 H 0.46102 0.30261 0.58677 0.0
H2119 H 0.47273 0.32963 0.58255 0.0
Ho2120 Ho 0.90696 0.2731 0.89909 0.0
Ho2121 Ho 0.90234 0.26975 0.87081 0.0
C2122 C 0.93261 0.2462 0.88337 0.0
C2123 C 0.9083 0.26941 0.92887 0.0
C2124 C 0.9091 0.25611 0.94014 0.0
C2125 C 0.90751 0.23973 0.93542 0.0
C2126 C 0.90931 0.22712 0.94624 0.0
C2127 C 0.91275 0.23072 0.96192 0.0
C2128 C 0.91417 0.2472 0.96659 0.0
C2129 C 0.91233 0.25981 0.95575 0.0
C2130 C 0.92785 0.29627 0.88643 0.0
C2131 C 0.88975 0.30595 0.88515 0.0
C2132 C 0.89533 0.27114 0.84139 0.0
C2133 C 0.89604 0.28315 0.82894 0.0
C2134 C 0.89469 0.3001 0.83195 0.0
C2135 C 0.89375 0.31127 0.81978 0.0
C2136 C 0.89431 0.30563 0.80442 0.0
C2137 C 0.89651 0.28866 0.80154 0.0
C2138 C 0.89727 0.27751 0.81372 0.0
C2139 C 0.88186 0.24567 0.88406 0.0
O2140 O 0.92456 0.2498 0.89623 0.0
O2141 O 0.92724 0.2544 0.87098 0.0
O2142 O 0.92165 0.2705 0.92043 0.0
O2143 O 0.89411 0.27127 0.92078 0.0
O2144 O 0.91973 0.29757 0.89914 0.0
O2145 O 0.92553 0.28172 0.88104 0.0
O2146 O 0.89384 0.29755 0.87251 0.0
O2147 O 0.89186 0.29781 0.89823 0.0
O2148 O 0.8843 0.27445 0.852 0.0
O2149 O 0.90987 0.26565 0.84716 0.0
O2150 O 0.8934 0.24331 0.87389 0.0
O2151 O 0.88329 0.26095 0.88821 0.0
H2152 H 0.90517 0.23671 0.92335 0.0
H2153 H 0.90843 0.21451 0.94226 0.0
H2154 H 0.9167 0.25032 0.9786 0.0
H2155 H 0.91364 0.27245 0.95952 0.0
H2156 H 0.89389 0.3047 0.84365 0.0
H2157 H 0.89198 0.32425 0.82239 0.0
H2158 H 0.89741 0.28395 0.78986 0.0
H2159 H 0.89849 0.26446 0.81122 0.0
Ho2160 Ho 0.0196 0.64243 0.16697 0.0
Ho2161 Ho 0.01834 0.63653 0.13528 0.0
C2162 C 0.04575 0.66389 0.14897 0.0
C2163 C 0.02104 0.63745 0.19638 0.0
C2164 C 0.03228 0.63981 0.20986 0.0
C2165 C 0.02997 0.63047 0.22311 0.0
C2166 C 0.03906 0.63392 0.23674 0.0
C2167 C 0.05043 0.64689 0.23727 0.0
C2168 C 0.05293 0.65604 0.22387 0.0
C2169 C 0.04396 0.65248 0.21022 0.0
C2170 C 1.00258 0.66715 0.15203 0.0
C2171 C 0.98225 0.62921 0.15345 0.0
C2172 C 1.01625 0.63556 0.10548 0.0
C2173 C 1.00088 0.63435 0.0958 0.0
C2174 C 0.98511 0.63703 0.10263 0.0
C2175 C 0.97016 0.63344 0.09467 0.0
C2176 C 0.97063 0.6276 0.07944 0.0
C2177 C 0.98648 0.62516 0.07241 0.0
C2178 C 1.00158 0.62836 0.08065 0.0
C2179 C 0.03908 0.61258 0.14932 0.0
O2180 O 0.04239 0.65813 0.16283 0.0
O2181 O 0.03736 0.65794 0.13663 0.0
O2182 O 1.01509 0.65099 0.18996 0.0
O2183 O 0.0255 0.62612 0.18632 0.0
O2184 O 1.01267 0.66935 0.16399 0.0
O2185 O 1.00204 0.65199 0.14915 0.0
O2186 O 0.98976 0.63073 0.13986 0.0
O2187 O 0.99218 0.63164 0.16594 0.0
O2188 O 0.01937 0.62264 0.11401 0.0
O2189 O 1.01767 0.64923 0.11334 0.0
O2190 O 0.0263 0.60995 0.14003 0.0
O2191 O 0.03865 0.62801 0.15237 0.0
H2192 H 0.02086 0.62076 0.223 0.0
H2193 H 0.03703 0.62666 0.24693 0.0
H2194 H 0.06193 0.66584 0.22392 0.0
H2195 H 0.04585 0.65984 0.20006 0.0
H2196 H 0.98434 0.64153 0.11429 0.0
H2197 H 0.95824 0.63515 0.10053 0.0
H2198 H 0.98722 0.62093 0.06056 0.0
H2199 H 1.01372 0.62598 0.07531 0.0
Ho2200 Ho 0.67495 0.78002 0.40407 0.0
Ho2201 Ho 0.66721 0.80736 0.38145 0.0
C2202 C 0.66654 0.771 0.36613 0.0
C2203 C 0.67485 0.75363 0.42047 0.0
C2204 C 0.67851 0.73588 0.41857 0.0
C2205 C 0.67194 0.72702 0.40588 0.0
C2206 C 0.67485 0.71001 0.40485 0.0
C2207 C 0.68448 0.70159 0.41643 0.0
C2208 C 0.69134 0.71056 0.42892 0.0
C2209 C 0.68833 0.72754 0.42999 0.0
C2210 C 0.70184 0.7919 0.38936 0.0
C2211 C 0.67308 0.81714 0.41889 0.0
C2212 C 0.66753 0.83559 0.36912 0.0
C2213 C 0.65881 0.84938 0.37671 0.0
C2214 C 0.65735 0.86487 0.36997 0.0
C2215 C 0.64439 0.87575 0.37467 0.0
C2216 C 0.63277 0.87101 0.38575 0.0
C2217 C 0.63666 0.85704 0.39458 0.0
C2218 C 0.64909 0.84593 0.38963 0.0
C2219 C 0.63977 0.79569 0.39497 0.0
O2220 O 0.66778 0.76576 0.38091 0.0
O2221 O 0.66786 0.78697 0.36324 0.0
O2222 O 0.6879 0.76321 0.42012 0.0
O2223 O 0.66137 0.75974 0.41303 0.0
O2224 O 0.70248 0.78815 0.40393 0.0
O2225 O 0.68748 0.7889 0.38381 0.0
O2226 O 0.67477 0.82116 0.40412 0.0
O2227 O 0.6712 0.80124 0.42209 0.0
O2228 O 0.65714 0.8243 0.36415 0.0
O2229 O 0.68076 0.82947 0.37688 0.0
O2230 O 0.63948 0.80106 0.38091 0.0
O2231 O 0.65407 0.79804 0.40116 0.0
H2232 H 0.66439 0.73318 0.39685 0.0
H2233 H 0.66955 0.70343 0.39502 0.0
H2234 H 0.69863 0.70439 0.4381 0.0
H2235 H 0.69347 0.73414 0.43989 0.0
H2236 H 0.66474 0.86778 0.36004 0.0
H2237 H 0.64164 0.88641 0.36783 0.0
H2238 H 0.62798 0.853 0.40319 0.0
H2239 H 0.64928 0.83381 0.39457 0.0
Ho2240 Ho 0.85838 0.53268 0.64526 0.0
Ho2241 Ho 0.88727 0.5092 0.63747 0.0
C2242 C 0.89834 0.54764 0.63983 0.0
C2243 C 0.83947 0.55628 0.65621 0.0
C2244 C 0.84124 0.57418 0.65556 0.0
C2245 C 0.8571 0.58112 0.65857 0.0
C2246 C 0.85973 0.59743 0.65482 0.0
C2247 C 0.84667 0.60702 0.64755 0.0
C2248 C 0.83049 0.60033 0.64535 0.0
C2249 C 0.82779 0.58406 0.6494 0.0
C2250 C 0.85884 0.52403 0.61554 0.0
C2251 C 0.84808 0.49357 0.64347 0.0
C2252 C 0.90594 0.48722 0.6237 0.0
C2253 C 0.90196 0.47082 0.61782 0.0
C2254 C 0.88499 0.46726 0.61394 0.0
C2255 C 0.8793 0.4514 0.61617 0.0
C2256 C 0.8905 0.43946 0.62275 0.0
C2257 C 0.9081 0.44201 0.62258 0.0
C2258 C 0.91383 0.45787 0.62049 0.0
C2259 C 0.88527 0.51827 0.6676 0.0
O2260 O 0.88181 0.55032 0.64337 0.0
O2261 O 0.90355 0.53232 0.63636 0.0
O2262 O 0.83653 0.54937 0.64281 0.0
O2263 O 0.85084 0.54798 0.66457 0.0
O2264 O 0.84511 0.52706 0.62305 0.0
O2265 O 0.87187 0.52701 0.62388 0.0
O2266 O 0.86405 0.49145 0.63828 0.0
O2267 O 0.84326 0.50865 0.64842 0.0
O2268 O 0.90542 0.4887 0.63876 0.0
O2269 O 0.89829 0.4996 0.61654 0.0
O2270 O 0.89951 0.51623 0.66044 0.0
O2271 O 0.87322 0.51449 0.6585 0.0
H2272 H 0.86777 0.57372 0.66299 0.0
H2273 H 0.87223 0.6023 0.65702 0.0
H2274 H 0.82017 0.6073 0.63966 0.0
H2275 H 0.8155 0.57887 0.64681 0.0
H2276 H 0.87567 0.47704 0.61137 0.0
H2277 H 0.86571 0.44951 0.61565 0.0
H2278 H 0.91701 0.43274 0.62725 0.0
H2279 H 0.92704 0.46035 0.6232 0.0
Ho2280 Ho 0.74942 0.62408 0.86083 0.0
Ho2281 Ho 0.77429 0.64853 0.8693 0.0
C2282 C 0.736 0.66245 0.86688 0.0
C2283 C 0.72251 0.60676 0.85774 0.0
C2284 C 0.706 0.60773 0.86518 0.0
C2285 C 0.70217 0.62061 0.87547 0.0
C2286 C 0.68643 0.62172 0.88243 0.0
C2287 C 0.67426 0.60985 0.87931 0.0
C2288 C 0.67824 0.59673 0.8692 0.0
C2289 C 0.69403 0.59569 0.86218 0.0
C2290 C 0.76797 0.63456 0.83666 0.0
C2291 C 0.78621 0.60824 0.87074 0.0
C2292 C 0.80137 0.6652 0.87232 0.0
C2293 C 0.81325 0.66388 0.88583 0.0
C2294 C 0.82598 0.65134 0.88649 0.0
C2295 C 0.83242 0.64568 0.90076 0.0
C2296 C 0.82599 0.65227 0.91461 0.0
C2297 C 0.81505 0.66629 0.91374 0.0
C2298 C 0.80905 0.67224 0.89951 0.0
C2299 C 0.75655 0.63977 0.89392 0.0
O2300 O 0.73297 0.64658 0.86835 0.0
O2301 O 0.7518 0.66662 0.86402 0.0
O2302 O 0.7257 0.61903 0.84871 0.0
O2303 O 0.73545 0.60272 0.86687 0.0
O2304 O 0.76365 0.61953 0.8387 0.0
O2305 O 0.76167 0.64345 0.84714 0.0
O2306 O 0.79044 0.62405 0.8716 0.0
O2307 O 0.7702 0.60474 0.8672 0.0
O2308 O 0.78624 0.67128 0.87534 0.0
O2309 O 0.80057 0.65217 0.8634 0.0
O2310 O 0.76337 0.65388 0.89241 0.0
O2311 O 0.76141 0.63019 0.88324 0.0
H2312 H 0.71131 0.62981 0.87824 0.0
H2313 H 0.68383 0.63184 0.89031 0.0
H2314 H 0.66898 0.58754 0.86635 0.0
H2315 H 0.69681 0.58562 0.8543 0.0
H2316 H 0.82989 0.64496 0.87609 0.0
H2317 H 0.84161 0.63548 0.90089 0.0
H2318 H 0.80977 0.67195 0.92395 0.0
H2319 H 0.79962 0.68225 0.89942 0.0
Ho2320 Ho 0.66005 0.53748 0.11147 0.0
Ho2321 Ho 0.63547 0.55922 0.12997 0.0
C2322 C 0.62096 0.5266 0.11664 0.0
C2323 C 0.6772 0.51167 0.1016 0.0
C2324 C 0.67908 0.49408 0.10613 0.0
C2325 C 0.67049 0.48805 0.1188 0.0
C2326 C 0.67307 0.47166 0.12355 0.0
C2327 C 0.6842 0.46081 0.11569 0.0
C2328 C 0.69244 0.46678 0.10272 0.0
C2329 C 0.68996 0.48324 0.09805 0.0
C2330 C 0.64595 0.56341 0.09488 0.0
C2331 C 0.67646 0.56726 0.13083 0.0
C2332 C 0.61928 0.58344 0.14337 0.0
C2333 C 0.62297 0.59313 0.15758 0.0
C2334 C 0.61418 0.6081 0.16037 0.0
C2335 C 0.61693 0.61677 0.17426 0.0
C2336 C 0.62851 0.61062 0.18575 0.0
C2337 C 0.63753 0.59573 0.18269 0.0
C2338 C 0.63484 0.58715 0.16878 0.0
C2339 C 0.64964 0.53339 0.14548 0.0
O2340 O 0.63717 0.52175 0.11574 0.0
O2341 O 0.61667 0.54226 0.11905 0.0
O2342 O 0.66242 0.51662 0.09575 0.0
O2343 O 0.68326 0.52231 0.1115 0.0
O2344 O 0.6609 0.55661 0.0927 0.0
O2345 O 0.63846 0.55506 0.10482 0.0
O2346 O 0.66047 0.57199 0.13339 0.0
O2347 O 0.68001 0.55357 0.12296 0.0
O2348 O 0.61613 0.56797 0.14556 0.0
O2349 O 0.6293 0.58542 0.13175 0.0
O2350 O 0.63438 0.53907 0.14787 0.0
O2351 O 0.6567 0.54231 0.13604 0.0
H2352 H 0.66188 0.49609 0.12507 0.0
H2353 H 0.6663 0.46738 0.13335 0.0
H2354 H 0.70117 0.45884 0.09642 0.0
H2355 H 0.69674 0.48758 0.08824 0.0
H2356 H 0.60503 0.61301 0.15187 0.0
H2357 H 0.60997 0.62831 0.17599 0.0
H2358 H 0.64638 0.59041 0.19122 0.0
H2359 H 0.64181 0.57563 0.1669 0.0
Ho2360 Ho 0.79626 0.40879 0.36695 0.0
Ho2361 Ho 0.76198 0.39421 0.38218 0.0
C2362 C 0.79004 0.36884 0.36751 0.0
C2363 C 0.8292 0.41655 0.36577 0.0
C2364 C 0.84889 0.41329 0.36902 0.0
C2365 C 0.85709 0.41682 0.38344 0.0
C2366 C 0.87529 0.41569 0.38586 0.0
C2367 C 0.8869 0.41103 0.37404 0.0
C2368 C 0.87862 0.40753 0.35957 0.0
C2369 C 0.86036 0.40864 0.35717 0.0
C2370 C 0.76916 0.40495 0.34526 0.0
C2371 C 0.76201 0.43283 0.37621 0.0
C2372 C 0.73427 0.38254 0.39318 0.0
C2373 C 0.72091 0.38725 0.40469 0.0
C2374 C 0.71232 0.40275 0.40453 0.0
C2375 C 0.69916 0.40647 0.41489 0.0
C2376 C 0.69412 0.39486 0.42581 0.0
C2377 C 0.70294 0.37945 0.42604 0.0
C2378 C 0.71605 0.37573 0.41566 0.0
C2379 C 0.7877 0.40457 0.40136 0.0
O2380 O 0.80088 0.38096 0.36609 0.0
O2381 O 0.77408 0.37132 0.37195 0.0
O2382 O 0.82082 0.40854 0.35492 0.0
O2383 O 0.81887 0.42107 0.37683 0.0
O2384 O 0.78383 0.41131 0.34223 0.0
O2385 O 0.77059 0.40127 0.35947 0.0
O2386 O 0.75298 0.41948 0.37641 0.0
O2387 O 0.77922 0.43199 0.3746 0.0
O2388 O 0.7496 0.37858 0.39857 0.0
O2389 O 0.73466 0.39109 0.38042 0.0
O2390 O 0.77161 0.40692 0.40377 0.0
O2391 O 0.78933 0.39689 0.38879 0.0
H2392 H 0.84939 0.42084 0.39301 0.0
H2393 H 0.8802 0.41896 0.39721 0.0
H2394 H 0.88626 0.40383 0.34987 0.0
H2395 H 0.8552 0.40607 0.34571 0.0
H2396 H 0.71567 0.412 0.39631 0.0
H2397 H 0.69301 0.41856 0.41438 0.0
H2398 H 0.69946 0.37003 0.43402 0.0
H2399 H 0.72226 0.36365 0.41606 0.0
Ho2400 Ho 0.87547 0.49427 0.89471 0.0
Ho2401 Ho 0.89464 0.52274 0.88159 0.0
C2402 C 0.9171 0.49029 0.88727 0.0
C2403 C 0.86626 0.46335 0.89903 0.0
C2404 C 0.87078 0.44458 0.89763 0.0
C2405 C 0.87417 0.43609 0.88356 0.0
C2406 C 0.87686 0.41848 0.88284 0.0
C2407 C 0.87619 0.40824 0.89611 0.0
C2408 C 0.87253 0.41695 0.91002 0.0
C2409 C 0.87002 0.43439 0.91074 0.0
C2410 C 0.88093 0.51963 0.91595 0.0
C2411 C 0.85307 0.52814 0.88503 0.0
C2412 C 0.90571 0.55102 0.87289 0.0
C2413 C 0.89961 0.56465 0.86245 0.0
C2414 C 0.88242 0.57 0.86147 0.0
C2415 C 0.87697 0.58258 0.85122 0.0
C2416 C 0.88856 0.59001 0.84149 0.0
C2417 C 0.90578 0.58462 0.84256 0.0
C2418 C 0.91121 0.57216 0.8529 0.0
C2419 C 0.88437 0.4996 0.86068 0.0
O2420 O 0.90199 0.4835 0.88804 0.0
O2421 O 0.91792 0.50656 0.88799 0.0
O2422 O 0.87405 0.47236 0.90948 0.0
O2423 O 0.86218 0.47215 0.88678 0.0
O2424 O 0.86848 0.50941 0.91586 0.0
O2425 O 0.89167 0.51424 0.9059 0.0
O2426 O 0.86811 0.53442 0.88272 0.0
O2427 O 0.85203 0.51198 0.88844 0.0
O2428 O 0.90961 0.53706 0.8662 0.0
O2429 O 0.89768 0.54892 0.88571 0.0
O2430 O 0.89834 0.50741 0.85989 0.0
O2431 O 0.8761 0.50524 0.87186 0.0
H2432 H 0.87466 0.44306 0.87298 0.0
H2433 H 0.87958 0.41294 0.87175 0.0
H2434 H 0.87116 0.41031 0.92066 0.0
H2435 H 0.86706 0.43994 0.92179 0.0
H2436 H 0.87314 0.56433 0.86849 0.0
H2437 H 0.86359 0.5862 0.85065 0.0
H2438 H 0.91514 0.59011 0.83544 0.0
H2439 H 0.92453 0.56829 0.85336 0.0
Ho2440 Ho 0.78466 0.64242 0.17278 0.0
Ho2441 Ho 0.74979 0.6548 0.15508 0.0
C2442 C 0.77674 0.68161 0.16275 0.0
C2443 C 0.8186 0.6379 0.17281 0.0
C2444 C 0.83851 0.63573 0.17147 0.0
C2445 C 0.84712 0.63953 0.15771 0.0
C2446 C 0.86536 0.63804 0.15643 0.0
C2447 C 0.87641 0.6329 0.16891 0.0
C2448 C 0.86769 0.62899 0.18262 0.0
C2449 C 0.84947 0.63029 0.18383 0.0
C2450 C 0.75826 0.6526 0.19239 0.0
C2451 C 0.75369 0.61862 0.16679 0.0
C2452 C 0.71921 0.65706 0.14225 0.0
C2453 C 0.70941 0.66047 0.12739 0.0
C2454 C 0.69162 0.66292 0.12762 0.0
C2455 C 0.68167 0.66403 0.11382 0.0
C2456 C 0.68915 0.66273 0.09919 0.0
C2457 C 0.7071 0.66064 0.09904 0.0
C2458 C 0.71705 0.65946 0.11289 0.0
C2459 C 0.77684 0.64597 0.1378 0.0
O2460 O 0.78708 0.66966 0.16834 0.0
O2461 O 0.76084 0.67944 0.15794 0.0
O2462 O 0.80903 0.63215 0.18373 0.0
O2463 O 0.80937 0.64588 0.16234 0.0
O2464 O 0.77139 0.6429 0.19639 0.0
O2465 O 0.76125 0.6578 0.17883 0.0
O2466 O 0.74498 0.6325 0.169 0.0
O2467 O 0.77065 0.61893 0.16599 0.0
O2468 O 0.72623 0.66919 0.14992 0.0
O2469 O 0.72885 0.64366 0.14264 0.0
O2470 O 0.76567 0.65731 0.13387 0.0
O2471 O 0.77237 0.63925 0.14995 0.0
H2472 H 0.83969 0.64379 0.14772 0.0
H2473 H 0.87082 0.64138 0.14561 0.0
H2474 H 0.87497 0.62471 0.19267 0.0
H2475 H 0.84396 0.62713 0.19469 0.0
H2476 H 0.68526 0.66348 0.13856 0.0
H2477 H 0.668 0.66538 0.11472 0.0
H2478 H 0.71358 0.65984 0.08819 0.0
H2479 H 0.73069 0.65742 0.11224 0.0
Ho2480 Ho 0.66502 0.52757 0.41252 0.0
Ho2481 Ho 0.64081 0.50768 0.39539 0.0
C2482 C 0.62694 0.54308 0.40476 0.0
C2483 C 0.68201 0.55149 0.42453 0.0
C2484 C 0.68158 0.56933 0.42188 0.0
C2485 C 0.67195 0.57613 0.40947 0.0
C2486 C 0.67117 0.5931 0.40716 0.0
C2487 C 0.67987 0.60364 0.41735 0.0
C2488 C 0.68962 0.59675 0.42974 0.0
C2489 C 0.69047 0.57972 0.43196 0.0
C2490 C 0.65069 0.504 0.43015 0.0
C2491 C 0.68215 0.4958 0.39647 0.0
C2492 C 0.62367 0.48383 0.38378 0.0
C2493 C 0.62728 0.47496 0.36937 0.0
C2494 C 0.61669 0.46271 0.36359 0.0
C2495 C 0.61983 0.45538 0.34918 0.0
C2496 C 0.63351 0.46038 0.34032 0.0
C2497 C 0.64401 0.47272 0.34631 0.0
C2498 C 0.64098 0.47982 0.36067 0.0
C2499 C 0.65339 0.53076 0.37732 0.0
O2500 O 0.64343 0.54588 0.40568 0.0
O2501 O 0.62206 0.52766 0.40358 0.0
O2502 O 0.66845 0.54574 0.43063 0.0
O2503 O 0.68739 0.54238 0.41309 0.0
O2504 O 0.66654 0.50791 0.43085 0.0
O2505 O 0.64295 0.51303 0.42024 0.0
O2506 O 0.66598 0.49256 0.39285 0.0
O2507 O 0.6856 0.50955 0.40403 0.0
O2508 O 0.61929 0.49929 0.38179 0.0
O2509 O 0.63506 0.48177 0.39498 0.0
O2510 O 0.63838 0.52493 0.37552 0.0
O2511 O 0.66187 0.52281 0.38759 0.0
H2512 H 0.66493 0.56835 0.40159 0.0
H2513 H 0.66376 0.59794 0.39738 0.0
H2514 H 0.69627 0.60453 0.43794 0.0
H2515 H 0.69789 0.57468 0.44165 0.0
H2516 H 0.60589 0.45905 0.37008 0.0
H2517 H 0.61151 0.4459 0.34497 0.0
H2518 H 0.65434 0.4773 0.33974 0.0
H2519 H 0.64911 0.48952 0.36481 0.0
Ho2520 Ho 0.73447 0.40354 0.64687 0.0
Ho2521 Ho 0.76314 0.37991 0.64083 0.0
C2522 C 0.72544 0.363 0.64303 0.0
C2523 C 0.70722 0.422 0.64665 0.0
C2524 C 0.69107 0.42157 0.65471 0.0
C2525 C 0.68104 0.40763 0.65409 0.0
C2526 C 0.66637 0.40713 0.66273 0.0
C2527 C 0.66158 0.42047 0.67228 0.0
C2528 C 0.67174 0.43436 0.67292 0.0
C2529 C 0.6863 0.43493 0.66414 0.0
C2530 C 0.74908 0.39036 0.6727 0.0
C2531 C 0.77271 0.42006 0.64434 0.0
C2532 C 0.79195 0.36425 0.63988 0.0
C2533 C 0.8053 0.3684 0.62935 0.0
C2534 C 0.8201 0.3586 0.62798 0.0
C2535 C 0.8302 0.36034 0.61508 0.0
C2536 C 0.82516 0.37147 0.60319 0.0
C2537 C 0.81136 0.38249 0.60574 0.0
C2538 C 0.80163 0.38102 0.61873 0.0
C2539 C 0.74749 0.39313 0.6154 0.0
O2540 O 0.71947 0.37877 0.64242 0.0
O2541 O 0.7424 0.36058 0.64456 0.0
O2542 O 0.72046 0.42455 0.65569 0.0
O2543 O 0.71017 0.4107 0.63611 0.0
O2544 O 0.74277 0.40522 0.67199 0.0
O2545 O 0.74625 0.38313 0.66014 0.0
O2546 O 0.7784 0.40432 0.64456 0.0
O2547 O 0.75574 0.42269 0.64365 0.0
O2548 O 0.7782 0.35913 0.63274 0.0
O2549 O 0.7886 0.37539 0.65041 0.0
O2550 O 0.75286 0.37794 0.6162 0.0
O2551 O 0.75142 0.40033 0.6277 0.0
H2552 H 0.68452 0.39709 0.64701 0.0
H2553 H 0.65861 0.39641 0.66167 0.0
H2554 H 0.66847 0.44478 0.68022 0.0
H2555 H 0.694 0.44572 0.66489 0.0
H2556 H 0.82324 0.34897 0.63627 0.0
H2557 H 0.84123 0.35216 0.61395 0.0
H2558 H 0.80681 0.39122 0.59708 0.0
H2559 H 0.79021 0.38875 0.61966 0.0
Ho2560 Ho 0.65064 0.90141 0.5247 0.0
Ho2561 Ho 0.66293 0.926 0.50122 0.0
C2562 C 0.65389 0.94101 0.53542 0.0
C2563 C 0.64731 0.88141 0.54745 0.0
C2564 C 0.6487 0.88005 0.56431 0.0
C2565 C 0.65107 0.89375 0.57393 0.0
C2566 C 0.65288 0.89171 0.58997 0.0
C2567 C 0.65257 0.87592 0.59655 0.0
C2568 C 0.64973 0.86236 0.58674 0.0
C2569 C 0.64789 0.86442 0.57081 0.0
C2570 C 0.62667 0.9129 0.50483 0.0
C2571 C 0.66048 0.88626 0.49042 0.0
C2572 C 0.66752 0.94377 0.47723 0.0
C2573 C 0.67211 0.93916 0.46144 0.0
C2574 C 0.66643 0.92447 0.45475 0.0
C2575 C 0.67423 0.91791 0.4417 0.0
C2576 C 0.68776 0.92598 0.43518 0.0
C2577 C 0.69235 0.94142 0.44105 0.0
C2578 C 0.68459 0.94794 0.45413 0.0
C2579 C 0.68673 0.9134 0.52118 0.0
O2580 O 0.65241 0.92533 0.5398 0.0
O2581 O 0.65644 0.94438 0.52058 0.0
O2582 O 0.63476 0.89061 0.54167 0.0
O2583 O 0.66155 0.88304 0.54026 0.0
O2584 O 0.62683 0.89816 0.51043 0.0
O2585 O 0.63827 0.92129 0.51094 0.0
O2586 O 0.66295 0.90186 0.48634 0.0
O2587 O 0.65641 0.88304 0.50496 0.0
O2588 O 0.67946 0.94049 0.48768 0.0
O2589 O 0.65244 0.93968 0.48162 0.0
O2590 O 0.68629 0.92859 0.51668 0.0
O2591 O 0.67492 0.90595 0.5144 0.0
H2592 H 0.65169 0.90594 0.56906 0.0
H2593 H 0.65494 0.90244 0.59715 0.0
H2594 H 0.64882 0.85009 0.59134 0.0
H2595 H 0.64591 0.85373 0.56353 0.0
H2596 H 0.65674 0.9175 0.4601 0.0
H2597 H 0.67033 0.90612 0.43722 0.0
H2598 H 0.70284 0.94784 0.43628 0.0
H2599 H 0.68919 0.95924 0.45917 0.0
Ho2600 Ho 0.15502 0.669 0.52434 0.0
Ho2601 Ho 0.17494 0.63613 0.51835 0.0
C2602 C 0.18067 0.65309 0.55122 0.0
C2603 C 0.13264 0.69105 0.53235 0.0
C2604 C 0.13372 0.70681 0.54035 0.0
C2605 C 0.11956 0.71346 0.54788 0.0
C2606 C 0.12131 0.7272 0.55742 0.0
C2607 C 0.13728 0.73431 0.55953 0.0
C2608 C 0.15104 0.72848 0.55084 0.0
C2609 C 0.1493 0.71473 0.54137 0.0
C2610 C 0.18576 0.67335 0.51256 0.0
C2611 C 0.15538 0.6542 0.48958 0.0
C2612 C 0.19281 0.61056 0.51022 0.0
C2613 C 0.18892 0.59611 0.50073 0.0
C2614 C 0.18241 0.59795 0.48556 0.0
C2615 C 0.17761 0.58426 0.47704 0.0
C2616 C 0.17902 0.56848 0.48355 0.0
C2617 C 0.18572 0.5666 0.49866 0.0
C2618 C 0.19066 0.58035 0.50719 0.0
C2619 C 0.14267 0.63414 0.5286 0.0
O2620 O 0.16724 0.66308 0.54811 0.0
O2621 O 0.18762 0.64363 0.5405 0.0
O2622 O 0.13956 0.69056 0.51882 0.0
O2623 O 0.13661 0.67805 0.54074 0.0
O2624 O 0.17393 0.6848 0.51335 0.0
O2625 O 0.18186 0.66189 0.52147 0.0
O2626 O 0.16743 0.64338 0.494 0.0
O2627 O 0.14677 0.66323 0.49972 0.0
O2628 O 0.18492 0.6116 0.52327 0.0
O2629 O 0.19297 0.62463 0.50303 0.0
O2630 O 0.15491 0.62386 0.53238 0.0
O2631 O 0.14794 0.64401 0.519 0.0
H2632 H 0.10743 0.7075 0.54705 0.0
H2633 H 0.11055 0.73151 0.56407 0.0
H2634 H 0.16354 0.73357 0.55244 0.0
H2635 H 0.16036 0.70972 0.53556 0.0
H2636 H 0.18087 0.60996 0.48027 0.0
H2637 H 0.17296 0.58606 0.46526 0.0
H2638 H 0.18695 0.55456 0.50393 0.0
H2639 H 0.19557 0.57872 0.51892 0.0
Ho2640 Ho 0.66935 0.85053 0.75515 0.0
Ho2641 Ho 0.68192 0.87402 0.77891 0.0
C2642 C 0.70792 0.86426 0.75343 0.0
C2643 C 0.66434 0.83248 0.73099 0.0
C2644 C 0.66652 0.83621 0.71462 0.0
C2645 C 0.67118 0.85201 0.71028 0.0
C2646 C 0.67197 0.85611 0.69468 0.0
C2647 C 0.66823 0.84442 0.68317 0.0
C2648 C 0.66394 0.82848 0.6876 0.0
C2649 C 0.66304 0.82443 0.70322 0.0
C2650 C 0.66872 0.83831 0.7848 0.0
C2651 C 0.64259 0.87582 0.76816 0.0
C2652 C 0.68695 0.88885 0.80488 0.0
C2653 C 0.68017 0.90523 0.80981 0.0
C2654 C 0.66998 0.90659 0.82281 0.0
C2655 C 0.66211 0.92165 0.82678 0.0
C2656 C 0.664 0.93577 0.81769 0.0
C2657 C 0.67423 0.93435 0.80464 0.0
C2658 C 0.68224 0.91931 0.80077 0.0
C2659 C 0.67491 0.89231 0.75302 0.0
O2660 O 0.69475 0.85778 0.74613 0.0
O2661 O 0.7071 0.86863 0.76813 0.0
O2662 O 0.67835 0.83145 0.73954 0.0
O2663 O 0.65225 0.84119 0.73753 0.0
O2664 O 0.65742 0.83627 0.77393 0.0
O2665 O 0.68071 0.84657 0.77929 0.0
O2666 O 0.65361 0.87729 0.77979 0.0
O2667 O 0.64617 0.86702 0.75581 0.0
O2668 O 0.69811 0.88856 0.79392 0.0
O2669 O 0.67556 0.87759 0.80291 0.0
O2670 O 0.68072 0.89799 0.76602 0.0
O2671 O 0.67308 0.87699 0.75437 0.0
H2672 H 0.67393 0.86126 0.71897 0.0
H2673 H 0.67547 0.86842 0.69164 0.0
H2674 H 0.66079 0.81927 0.67898 0.0
H2675 H 0.65932 0.81223 0.70639 0.0
H2676 H 0.66785 0.89587 0.82978 0.0
H2677 H 0.65459 0.9222 0.83706 0.0
H2678 H 0.67582 0.94478 0.79717 0.0
H2679 H 0.68974 0.91868 0.79048 0.0
Ho2680 Ho 0.43429 0.37528 1.00587 0.0
Ho2681 Ho 0.41791 0.39759 0.02893 0.0
C2682 C 0.42523 0.41392 0.99746 0.0
C2683 C 0.44086 0.36095 0.97905 0.0
C2684 C 0.43539 0.36104 0.96189 0.0
C2685 C 0.43271 0.37563 0.95326 0.0
C2686 C 0.4288 0.37527 0.9371 0.0
C2687 C 0.42748 0.3603 0.92865 0.0
C2688 C 0.43007 0.34573 0.93742 0.0
C2689 C 0.43389 0.34611 0.95358 0.0
C2690 C 0.45713 0.38604 0.02919 0.0
C2691 C 0.42253 0.35854 0.03845 0.0
C2692 C 0.40887 0.41468 0.053 0.0
C2693 C 0.3953 0.41397 0.06434 0.0
C2694 C 0.38631 0.39955 0.06626 0.0
C2695 C 0.37253 0.39943 0.07613 0.0
C2696 C 0.36736 0.41378 0.08418 0.0
C2697 C 0.37671 0.42808 0.08249 0.0
C2698 C 0.39053 0.42816 0.07263 0.0
C2699 C 0.39566 0.38826 1.0058 0.0
O2700 O 0.42614 0.39855 0.99237 0.0
O2701 O 0.42629 0.41676 0.01248 0.0
O2702 O 0.44892 0.37354 0.98477 0.0
O2703 O 0.43061 0.35511 0.98918 0.0
O2704 O 0.45804 0.37214 0.02161 0.0
O2705 O 0.44505 0.39457 0.02255 0.0
O2706 O 0.41829 0.37382 0.04246 0.0
O2707 O 0.4282 0.35535 0.02418 0.0
O2708 O 0.40374 0.41809 0.03891 0.0
O2709 O 0.42056 0.40288 0.05345 0.0
O2710 O 0.39423 0.40154 0.01398 0.0
O2711 O 0.40749 0.37922 0.01195 0.0
H2712 H 0.43384 0.38741 0.95898 0.0
H2713 H 0.42719 0.38691 0.93118 0.0
H2714 H 0.429 0.33386 0.93183 0.0
H2715 H 0.43589 0.33456 0.9596 0.0
H2716 H 0.38976 0.38846 0.05992 0.0
H2717 H 0.36584 0.38811 0.07737 0.0
H2718 H 0.37302 0.43937 0.08838 0.0
H2719 H 0.39726 0.43944 0.07121 0.0
Ho2720 Ho 0.38133 0.64034 0.76016 0.0
Ho2721 Ho 0.35257 0.62935 0.77987 0.0
C2722 C 0.34229 0.63545 0.74413 0.0
C2723 C 0.40363 0.64324 0.73879 0.0
C2724 C 0.40562 0.64291 0.72181 0.0
C2725 C 0.39687 0.63198 0.712 0.0
C2726 C 0.39999 0.63147 0.69606 0.0
C2727 C 0.41171 0.64206 0.68964 0.0
C2728 C 0.42029 0.653 0.69958 0.0
C2729 C 0.4173 0.65337 0.71541 0.0
C2730 C 0.36588 0.66493 0.77602 0.0
C2731 C 0.39156 0.63278 0.79639 0.0
C2732 C 0.3323 0.62347 0.80197 0.0
C2733 C 0.33538 0.6132 0.81591 0.0
C2734 C 0.3476 0.61748 0.82729 0.0
C2735 C 0.35369 0.60588 0.83812 0.0
C2736 C 0.34746 0.58988 0.83795 0.0
C2737 C 0.33405 0.58616 0.82755 0.0
C2738 C 0.32807 0.59771 0.81664 0.0
C2739 C 0.36962 0.60524 0.76444 0.0
O2740 O 0.35915 0.63601 0.74234 0.0
O2741 O 0.33617 0.63528 0.75831 0.0
O2742 O 0.39509 0.65571 0.74467 0.0
O2743 O 0.40057 0.62939 0.74557 0.0
O2744 O 0.38199 0.6641 0.77316 0.0
O2745 O 0.35825 0.65313 0.76951 0.0
O2746 O 0.37482 0.6311 0.79783 0.0
O2747 O 0.39772 0.63531 0.78239 0.0
O2748 O 0.33223 0.61534 0.78891 0.0
O2749 O 0.34076 0.63703 0.80119 0.0
O2750 O 0.35343 0.60529 0.76671 0.0
O2751 O 0.37573 0.61741 0.77129 0.0
H2752 H 0.38769 0.62387 0.71664 0.0
H2753 H 0.39307 0.62297 0.68876 0.0
H2754 H 0.42959 0.66115 0.69513 0.0
H2755 H 0.42431 0.66179 0.72274 0.0
H2756 H 0.35313 0.62947 0.82732 0.0
H2757 H 0.36377 0.60923 0.84622 0.0
H2758 H 0.32898 0.57394 0.8271 0.0
H2759 H 0.31853 0.59413 0.80811 0.0
Ho2760 Ho 0.94715 0.12157 0.0257 0.0
Ho2761 Ho 0.92508 0.10544 0.99942 0.0
C2762 C 0.9333 0.08388 0.02878 0.0
C2763 C 0.96002 0.12998 0.0522 0.0
C2764 C 0.95385 0.1289 0.06827 0.0
C2765 C 0.94097 0.13983 0.07348 0.0
C2766 C 0.93484 0.13863 0.0884 0.0
C2767 C 0.94158 0.12667 0.09874 0.0
C2768 C 0.95454 0.11576 0.09357 0.0
C2769 C 0.96059 0.11686 0.07852 0.0
C2770 C 0.96271 0.1191 0.99743 0.0
C2771 C 0.92453 0.14498 1.00348 0.0
C2772 C 0.91561 0.09502 0.97248 0.0
C2773 C 0.90276 0.10189 0.96157 0.0
C2774 C 0.89877 0.11881 0.96191 0.0
C2775 C 0.88527 0.12534 0.95299 0.0
C2776 C 0.8755 0.11507 0.94343 0.0
C2777 C 0.87993 0.09818 0.9426 0.0
C2778 C 0.89347 0.09162 0.95169 0.0
C2779 C 0.90483 0.11581 0.0234 0.0
O2780 O 0.93824 0.09756 0.03578 0.0
O2781 O 0.93137 0.08308 0.01358 0.0
O2782 O 0.96435 0.11612 0.04524 0.0
O2783 O 0.95147 0.14021 0.04301 0.0
O2784 O 0.96558 0.13005 1.00801 0.0
O2785 O 0.95305 0.10848 1.00327 0.0
O2786 O 0.92262 0.13226 0.99409 0.0
O2787 O 0.93196 0.14377 0.01736 0.0
O2788 O 0.90965 0.08931 0.98528 0.0
O2789 O 0.92889 0.10407 0.97491 0.0
O2790 O 0.89903 0.10891 1.01082 0.0
O2791 O 0.92062 0.11687 0.02177 0.0
H2792 H 0.93543 0.14931 0.06599 0.0
H2793 H 0.92465 0.14707 0.09176 0.0
H2794 H 0.96025 0.10654 0.10123 0.0
H2795 H 0.97059 0.10832 0.07493 0.0
H2796 H 0.90574 0.12698 0.96945 0.0
H2797 H 0.88206 0.13833 0.95414 0.0
H2798 H 0.87273 0.09 0.9352 0.0
H2799 H 0.89638 0.07851 0.95131 0.0
Ho2800 Ho 0.64751 0.1652 0.82255 0.0
Ho2801 Ho 0.65675 0.14195 0.79463 0.0
C2802 C 0.68629 0.15693 0.81462 0.0
C2803 C 0.638 0.176 0.84942 0.0
C2804 C 0.64118 0.1715 0.86587 0.0
C2805 C 0.65742 0.16638 0.87156 0.0
C2806 C 0.65997 0.16194 0.88712 0.0
C2807 C 0.6463 0.16231 0.89736 0.0
C2808 C 0.6301 0.16759 0.89156 0.0
C2809 C 0.62762 0.1722 0.87607 0.0
C2810 C 0.65555 0.18089 0.79663 0.0
C2811 C 0.61724 0.15276 0.7999 0.0
C2812 C 0.66195 0.12614 0.769 0.0
C2813 C 0.65538 0.11939 0.75411 0.0
C2814 C 0.66466 0.12157 0.74069 0.0
C2815 C 0.66082 0.11275 0.72712 0.0
C2816 C 0.64763 0.10145 0.72667 0.0
C2817 C 0.63792 0.09981 0.74 0.0
C2818 C 0.64172 0.10867 0.75352 0.0
C2819 C 0.65939 0.12885 0.82327 0.0
O2820 O 0.67546 0.15867 0.82604 0.0
O2821 O 0.68123 0.1538 0.80029 0.0
O2822 O 0.62923 0.16579 0.84095 0.0
O2823 O 0.65071 0.18182 0.842 0.0
O2824 O 0.65764 0.18689 0.81045 0.0
O2825 O 0.64757 0.16774 0.79724 0.0
O2826 O 0.62824 0.14269 0.79295 0.0
O2827 O 0.62172 0.16369 0.81059 0.0
O2828 O 0.65713 0.11928 0.78173 0.0
O2829 O 0.66406 0.14201 0.77049 0.0
O2830 O 0.66973 0.12481 0.81238 0.0
O2831 O 0.64825 0.13885 0.81816 0.0
H2832 H 0.66814 0.1657 0.86396 0.0
H2833 H 0.6727 0.15822 0.89108 0.0
H2834 H 0.61914 0.16775 0.89885 0.0
H2835 H 0.61497 0.17604 0.87196 0.0
H2836 H 0.67537 0.12962 0.74086 0.0
H2837 H 0.66841 0.11459 0.71707 0.0
H2838 H 0.62779 0.09112 0.74026 0.0
H2839 H 0.63441 0.10656 0.7637 0.0
Ho2840 Ho 0.89163 0.84569 0.25517 0.0
Ho2841 Ho 0.8697 0.86222 0.22954 0.0
C2842 C 0.85105 0.8571 0.26152 0.0
C2843 C 0.90664 0.83838 0.28212 0.0
C2844 C 0.90749 0.8407 0.29971 0.0
C2845 C 0.90256 0.85539 0.30751 0.0
C2846 C 0.90533 0.85736 0.32382 0.0
C2847 C 0.91324 0.84473 0.33302 0.0
C2848 C 0.91756 0.82992 0.32512 0.0
C2849 C 0.91479 0.828 0.30898 0.0
C2850 C 0.88158 0.82494 0.23076 0.0
C2851 C 0.91123 0.85814 0.22388 0.0
C2852 C 0.85431 0.87045 0.20373 0.0
C2853 C 0.85758 0.88253 0.19155 0.0
C2854 C 0.87239 0.88144 0.18282 0.0
C2855 C 0.87649 0.89436 0.17316 0.0
C2856 C 0.86597 0.90868 0.17215 0.0
C2857 C 0.85055 0.90917 0.18003 0.0
C2858 C 0.84639 0.8962 0.18956 0.0
C2859 C 0.88043 0.88307 0.25215 0.0
O2860 O 0.86675 0.85426 0.26742 0.0
O2861 O 0.84866 0.85705 0.24624 0.0
O2862 O 0.89459 0.82975 0.27558 0.0
O2863 O 0.91095 0.85038 0.2732 0.0
O2864 O 0.89573 0.82342 0.23894 0.0
O2865 O 0.87271 0.83644 0.23712 0.0
O2866 O 0.89575 0.8623 0.21828 0.0
O2867 O 0.91319 0.8524 0.23843 0.0
O2868 O 0.85039 0.87676 0.21711 0.0
O2869 O 0.86485 0.85773 0.20512 0.0
O2870 O 0.86682 0.88549 0.24359 0.0
O2871 O 0.88871 0.87087 0.24677 0.0
H2872 H 0.89675 0.86546 0.30097 0.0
H2873 H 0.90173 0.86901 0.32911 0.0
H2874 H 0.92326 0.81961 0.33144 0.0
H2875 H 0.91877 0.81648 0.30364 0.0
H2876 H 0.88117 0.87095 0.1839 0.0
H2877 H 0.88828 0.89343 0.16698 0.0
H2878 H 0.84218 0.92001 0.17966 0.0
H2879 H 0.83481 0.89727 0.19605 0.0
Ho2880 Ho 0.56588 0.41027 0.11211 0.0
Ho2881 Ho 0.54153 0.42497 0.13362 0.0
C2882 C 0.5773 0.41315 0.14996 0.0
C2883 C 0.59325 0.40398 0.09699 0.0
C2884 C 0.61046 0.39865 0.1024 0.0
C2885 C 0.61838 0.40623 0.11524 0.0
C2886 C 0.63167 0.39801 0.12339 0.0
C2887 C 0.63695 0.3821 0.11891 0.0
C2888 C 0.63053 0.37558 0.10491 0.0
C2889 C 0.6174 0.38384 0.0967 0.0
C2890 C 0.54498 0.3886 0.12424 0.0
C2891 C 0.52751 0.4142 0.09795 0.0
C2892 C 0.51579 0.43423 0.14971 0.0
C2893 C 0.49739 0.43244 0.14882 0.0
C2894 C 0.49003 0.41956 0.14037 0.0
C2895 C 0.47238 0.41796 0.14003 0.0
C2896 C 0.46199 0.42921 0.14815 0.0
C2897 C 0.46946 0.44229 0.15623 0.0
C2898 C 0.48703 0.44387 0.15658 0.0
C2899 C 0.56391 0.44685 0.12337 0.0
O2900 O 0.58176 0.41015 0.13534 0.0
O2901 O 0.56139 0.41814 0.15262 0.0
O2902 O 0.5816 0.39322 0.09909 0.0
O2903 O 0.5881 0.41885 0.10078 0.0
O2904 O 0.55009 0.38767 0.11015 0.0
O2905 O 0.55208 0.40019 0.13128 0.0
O2906 O 0.52392 0.4177 0.11266 0.0
O2907 O 0.54381 0.41284 0.09412 0.0
O2908 O 0.52205 0.4433 0.13899 0.0
O2909 O 0.52491 0.4208 0.15248 0.0
O2910 O 0.55857 0.44612 0.1373 0.0
O2911 O 0.55664 0.43607 0.11498 0.0
H2912 H 0.61343 0.41781 0.11977 0.0
H2913 H 0.63683 0.40344 0.13389 0.0
H2914 H 0.63438 0.36334 0.10111 0.0
H2915 H 0.61157 0.37785 0.08676 0.0
H2916 H 0.49793 0.41067 0.13424 0.0
H2917 H 0.46692 0.40774 0.13377 0.0
H2918 H 0.4617 0.4513 0.16235 0.0
H2919 H 0.49256 0.45395 0.163 0.0
Ho2920 Ho 0.36384 0.77102 0.84747 0.0
Ho2921 Ho 0.33813 0.74876 0.86344 0.0
C2922 C 0.36153 0.7712 0.88488 0.0
C2923 C 0.3824 0.79515 0.83922 0.0
C2924 C 0.39654 0.80481 0.84615 0.0
C2925 C 0.39584 0.82205 0.84522 0.0
C2926 C 0.40945 0.83136 0.85083 0.0
C2927 C 0.42422 0.82367 0.85746 0.0
C2928 C 0.42477 0.80639 0.85861 0.0
C2929 C 0.4111 0.79709 0.85309 0.0
C2930 C 0.37562 0.74064 0.85599 0.0
C2931 C 0.3468 0.74411 0.82694 0.0
C2932 C 0.32302 0.72313 0.87354 0.0
C2933 C 0.32769 0.70607 0.87862 0.0
C2934 C 0.33686 0.69485 0.86929 0.0
C2935 C 0.34098 0.67883 0.87452 0.0
C2936 C 0.33605 0.67363 0.8892 0.0
C2937 C 0.32667 0.68488 0.89834 0.0
C2938 C 0.32258 0.70083 0.89313 0.0
C2939 C 0.32555 0.77951 0.85725 0.0
O2940 O 0.36527 0.77927 0.87229 0.0
O2941 O 0.35313 0.75737 0.88423 0.0
O2942 O 0.38583 0.77972 0.83592 0.0
O2943 O 0.36732 0.79733 0.84507 0.0
O2944 O 0.3813 0.74832 0.84424 0.0
O2945 O 0.36557 0.74999 0.86301 0.0
O2946 O 0.34274 0.73722 0.84008 0.0
O2947 O 0.35215 0.75937 0.82644 0.0
O2948 O 0.3282 0.73508 0.88247 0.0
O2949 O 0.32423 0.72656 0.85889 0.0
O2950 O 0.31989 0.76992 0.86767 0.0
O2951 O 0.33555 0.77125 0.84864 0.0
H2952 H 0.38484 0.82835 0.8399 0.0
H2953 H 0.40858 0.8446 0.84958 0.0
H2954 H 0.43578 0.80002 0.86383 0.0
H2955 H 0.41203 0.78382 0.85411 0.0
H2956 H 0.34105 0.6985 0.85805 0.0
H2957 H 0.34841 0.67067 0.86721 0.0
H2958 H 0.32228 0.68134 0.90954 0.0
H2959 H 0.31535 0.70912 0.90049 0.0
Ho2960 Ho 1.00344 0.63717 0.62797 0.0
Ho2961 Ho 1.00348 0.63782 0.65768 0.0
C2962 C 0.04148 0.62749 0.64539 0.0
C2963 C 1.00937 0.63297 0.59897 0.0
C2964 C 0.02511 0.6325 0.58996 0.0
C2965 C 0.03476 0.64658 0.5881 0.0
C2966 C 0.05032 0.64547 0.58063 0.0
C2967 C 0.05659 0.63026 0.57503 0.0
C2968 C 0.04678 0.61629 0.57661 0.0
C2969 C 0.03116 0.61742 0.58389 0.0
C2970 C 0.977 0.61691 0.63841 0.0
C2971 C 0.97737 0.66442 0.64098 0.0
C2972 C 1.00233 0.6279 0.686 0.0
C2973 C 0.98948 0.62013 0.69497 0.0
C2974 C 0.97349 0.61723 0.68816 0.0
C2975 C 0.95987 0.61397 0.69744 0.0
C2976 C 0.96215 0.61368 0.71362 0.0
C2977 C 0.97873 0.61422 0.7201 0.0
C2978 C 0.99235 0.61765 0.7108 0.0
C2979 C 0.01892 0.66567 0.64947 0.0
O2980 O 0.03278 0.62916 0.63191 0.0
O2981 O 0.03227 0.63036 0.65779 0.0
O2982 O 1.00807 0.62088 0.60867 0.0
O2983 O 1.00438 0.64713 0.60485 0.0
O2984 O 0.9754 0.62878 0.62854 0.0
O2985 O 0.99262 0.61736 0.64311 0.0
O2986 O 0.97873 0.65379 0.65272 0.0
O2987 O 0.98799 0.66167 0.62956 0.0
O2988 O 0.99838 0.64287 0.68164 0.0
O2989 O 1.00858 0.61899 0.67486 0.0
O2990 O 1.00803 0.66475 0.66033 0.0
O2991 O 0.02073 0.6517 0.64306 0.0
H2992 H 0.0305 0.65839 0.59267 0.0
H2993 H 0.05767 0.65642 0.57961 0.0
H2994 H 0.05122 0.60445 0.57223 0.0
H2995 H 0.02396 0.60639 0.58509 0.0
H2996 H 0.97122 0.61893 0.67586 0.0
H2997 H 0.94729 0.61362 0.69204 0.0
H2998 H 0.98087 0.61372 0.73251 0.0
H2999 H 1.00477 0.61961 0.71611 0.0
Ho3000 Ho 0.12972 0.24956 0.37708 0.0
Ho3001 Ho 0.15495 0.26349 0.39321 0.0
C3002 C 0.13286 0.23665 0.41199 0.0
C3003 C 0.10878 0.23353 0.35904 0.0
C3004 C 0.09776 0.21934 0.36087 0.0
C3005 C 0.09825 0.21029 0.37463 0.0
C3006 C 0.08607 0.19849 0.3772 0.0
C3007 C 0.07316 0.19546 0.36603 0.0
C3008 C 0.07322 0.204 0.35195 0.0
C3009 C 0.08536 0.21588 0.34944 0.0
C3010 C 0.11853 0.28079 0.38735 0.0
C3011 C 0.15381 0.27329 0.35763 0.0
C3012 C 0.17218 0.28169 0.41206 0.0
C3013 C 0.17654 0.29895 0.41065 0.0
C3014 C 0.16766 0.30888 0.39976 0.0
C3015 C 0.17217 0.32508 0.39766 0.0
C3016 C 0.18564 0.33169 0.40642 0.0
C3017 C 0.19458 0.3217 0.41733 0.0
C3018 C 0.19003 0.30539 0.41943 0.0
C3019 C 0.16866 0.23508 0.3804 0.0
O3020 O 0.12634 0.23374 0.39812 0.0
O3021 O 0.14352 0.24893 0.41342 0.0
O3022 O 0.10448 0.24648 0.36708 0.0
O3023 O 0.12521 0.2307 0.35959 0.0
O3024 O 0.11067 0.26718 0.38914 0.0
O3025 O 0.13274 0.27669 0.3815 0.0
O3026 O 0.15865 0.27859 0.37146 0.0
O3027 O 0.14389 0.26042 0.35691 0.0
O3028 O 0.17924 0.27181 0.40201 0.0
O3029 O 0.15596 0.27914 0.41345 0.0
O3030 O 0.17563 0.24925 0.38102 0.0
O3031 O 0.15392 0.23663 0.38649 0.0
H3032 H 0.1077 0.21269 0.38361 0.0
H3033 H 0.08653 0.19199 0.38809 0.0
H3034 H 0.0634 0.20207 0.34316 0.0
H3035 H 0.08467 0.22281 0.33878 0.0
H3036 H 0.15732 0.30404 0.39275 0.0
H3037 H 0.16525 0.33236 0.38897 0.0
H3038 H 0.20495 0.32652 0.42429 0.0
H3039 H 0.19709 0.2978 0.42779 0.0
Ho3040 Ho 0.54441 0.65502 0.4049 0.0
Ho3041 Ho 0.52977 0.63877 0.38489 0.0
C3042 C 0.55899 0.65823 0.36964 0.0
C3043 C 0.56562 0.67107 0.42226 0.0
C3044 C 0.57605 0.68529 0.41935 0.0
C3045 C 0.58765 0.68504 0.40731 0.0
C3046 C 0.59535 0.69943 0.40305 0.0
C3047 C 0.59157 0.71428 0.41076 0.0
C3048 C 0.58066 0.71433 0.42333 0.0
C3049 C 0.57298 0.69992 0.42761 0.0
C3050 C 0.51413 0.67252 0.39738 0.0
C3051 C 0.51673 0.63517 0.42058 0.0
C3052 C 0.50958 0.62223 0.36674 0.0
C3053 C 0.49496 0.62564 0.35639 0.0
C3054 C 0.491 0.64159 0.35104 0.0
C3055 C 0.4758 0.64481 0.34268 0.0
C3056 C 0.46431 0.63217 0.3398 0.0
C3057 C 0.46897 0.61604 0.3445 0.0
C3058 C 0.48418 0.61283 0.35267 0.0
C3059 C 0.55799 0.62014 0.39548 0.0
O3060 O 0.56261 0.65927 0.38465 0.0
O3061 O 0.54389 0.65246 0.36611 0.0
O3062 O 0.5493 0.67414 0.42175 0.0
O3063 O 0.56968 0.65743 0.4151 0.0
O3064 O 0.52028 0.66889 0.41093 0.0
O3065 O 0.52427 0.66598 0.3875 0.0
O3066 O 0.51172 0.63549 0.40574 0.0
O3067 O 0.53221 0.64018 0.42348 0.0
O3068 O 0.50706 0.62469 0.38133 0.0
O3069 O 0.52395 0.6279 0.36259 0.0
O3070 O 0.5542 0.62355 0.38133 0.0
O3071 O 0.54709 0.62765 0.40366 0.0
H3072 H 0.59039 0.67389 0.40084 0.0
H3073 H 0.60402 0.699 0.39354 0.0
H3074 H 0.57751 0.72563 0.42945 0.0
H3075 H 0.56407 0.70035 0.43693 0.0
H3076 H 0.49932 0.65161 0.35383 0.0
H3077 H 0.47269 0.65732 0.33912 0.0
H3078 H 0.46038 0.606 0.34288 0.0
H3079 H 0.48712 0.60047 0.35675 0.0
Ho3080 Ho 0.13456 0.7642 0.15018 0.0
Ho3081 Ho 0.13152 0.7626 0.12233 0.0
C3082 C 0.14848 0.72897 0.13615 0.0
C3083 C 0.13379 0.76657 0.18003 0.0
C3084 C 0.13205 0.75547 0.19307 0.0
C3085 C 0.13673 0.73872 0.19189 0.0
C3086 C 0.13669 0.7287 0.20492 0.0
C3087 C 0.1318 0.73529 0.21921 0.0
C3088 C 0.12657 0.75195 0.22018 0.0
C3089 C 0.12674 0.76197 0.20719 0.0
C3090 C 0.16089 0.78371 0.13915 0.0
C3091 C 0.10677 0.7906 0.13428 0.0
C3092 C 0.13797 0.76314 0.09321 0.0
C3093 C 0.13906 0.77674 0.08213 0.0
C3094 C 0.15155 0.78863 0.08396 0.0
C3095 C 0.15066 0.80286 0.07502 0.0
C3096 C 0.1372 0.80556 0.0642 0.0
C3097 C 0.12538 0.79315 0.06168 0.0
C3098 C 0.12637 0.77884 0.07052 0.0
C3099 C 0.105 0.74409 0.13312 0.0
O3100 O 0.14182 0.7359 0.14866 0.0
O3101 O 0.14836 0.7388 0.12409 0.0
O3102 O 0.14767 0.76442 0.17235 0.0
O3103 O 0.12041 0.76898 0.17102 0.0
O3104 O 0.16264 0.77076 0.14774 0.0
O3105 O 0.14509 0.78392 0.13468 0.0
O3106 O 0.11531 0.786 0.1221 0.0
O3107 O 0.11102 0.78265 0.14725 0.0
O3108 O 0.12284 0.76098 0.09848 0.0
O3109 O 0.14981 0.76205 0.1041 0.0
O3110 O 0.10397 0.75468 0.122 0.0
O3111 O 0.12014 0.7442 0.13862 0.0
H3112 H 0.14082 0.73349 0.18102 0.0
H3113 H 0.14063 0.71586 0.20387 0.0
H3114 H 0.12291 0.75737 0.2311 0.0
H3115 H 0.12316 0.7749 0.20828 0.0
H3116 H 0.16161 0.78733 0.09272 0.0
H3117 H 0.16018 0.81203 0.07699 0.0
H3118 H 0.11478 0.79486 0.05353 0.0
H3119 H 0.11665 0.76981 0.06883 0.0
Ho3120 Ho 1.01798 0.39845 0.88184 0.0
Ho3121 Ho 1.0153 0.39779 0.84969 0.0
C3122 C 0.05331 0.40736 0.86325 0.0
C3123 C 0.02237 0.40117 0.91137 0.0
C3124 C 0.03539 0.40125 0.92366 0.0
C3125 C 0.05163 0.40729 0.92135 0.0
C3126 C 0.06351 0.40763 0.93362 0.0
C3127 C 0.05922 0.40185 0.94821 0.0
C3128 C 0.04293 0.39588 0.95041 0.0
C3129 C 0.0311 0.3956 0.9382 0.0
C3130 C 0.99115 0.41865 0.87154 0.0
C3131 C 0.99112 0.37248 0.86818 0.0
C3132 C 1.00818 0.40338 0.82087 0.0
C3133 C 0.99558 0.40809 0.80891 0.0
C3134 C 0.97828 0.41027 0.81205 0.0
C3135 C 0.96654 0.41364 0.79997 0.0
C3136 C 0.97202 0.41479 0.78467 0.0
C3137 C 0.98945 0.41309 0.78174 0.0
C3138 C 1.00113 0.40978 0.7938 0.0
C3139 C 0.03765 0.37387 0.85905 0.0
O3140 O 0.04606 0.40495 0.87677 0.0
O3141 O 0.04323 0.40681 0.85062 0.0
O3142 O 0.02183 0.41367 0.90197 0.0
O3143 O 0.02002 0.38715 0.90437 0.0
O3144 O 0.99063 0.40747 0.88191 0.0
O3145 O 1.0061 0.41796 0.86587 0.0
O3146 O 0.99272 0.3812 0.85527 0.0
O3147 O 1.00131 0.37582 0.88023 0.0
O3148 O 1.00672 0.38903 0.82731 0.0
O3149 O 1.01292 0.4148 0.83063 0.0
O3150 O 0.03793 0.38132 0.84593 0.0
O3151 O 0.02446 0.3784 0.86609 0.0
H3152 H 0.0551 0.41167 0.91011 0.0
H3153 H 0.0761 0.4121 0.93167 0.0
H3154 H 0.03933 0.39149 0.96161 0.0
H3155 H 0.01854 0.39104 0.94014 0.0
H3156 H 0.97387 0.40898 0.82371 0.0
H3157 H 0.95314 0.4147 0.80251 0.0
H3158 H 0.994 0.41404 0.7701 0.0
H3159 H 1.01451 0.40816 0.79127 0.0
Ho3160 Ho 0.36631 0.2263 0.64443 0.0
Ho3161 Ho 0.36744 0.25179 0.61928 0.0
C3162 C 0.36862 0.21368 0.60711 0.0
C3163 C 0.35839 0.20207 0.66153 0.0
C3164 C 0.36822 0.18674 0.66451 0.0
C3165 C 0.3744 0.18408 0.67964 0.0
C3166 C 0.39037 0.17656 0.68217 0.0
C3167 C 0.40005 0.17097 0.66959 0.0
C3168 C 0.39204 0.1705 0.65485 0.0
C3169 C 0.37631 0.17857 0.65227 0.0
C3170 C 0.39804 0.23419 0.63682 0.0
C3171 C 0.36962 0.26385 0.65657 0.0
C3172 C 0.37295 0.27659 0.6017 0.0
C3173 C 0.37025 0.29461 0.6021 0.0
C3174 C 0.37669 0.30423 0.61436 0.0
C3175 C 0.37396 0.32131 0.61435 0.0
C3176 C 0.36467 0.32906 0.60216 0.0
C3177 C 0.35828 0.31938 0.58994 0.0
C3178 C 0.3611 0.30235 0.5899 0.0
C3179 C 0.33599 0.24329 0.62812 0.0
O3180 O 0.36493 0.21031 0.62181 0.0
O3181 O 0.37193 0.22916 0.60345 0.0
O3182 O 0.36613 0.21502 0.66677 0.0
O3183 O 0.3519 0.20427 0.64757 0.0
O3184 O 0.39413 0.22947 0.65051 0.0
O3185 O 0.38538 0.23268 0.62781 0.0
O3186 O 0.37327 0.26691 0.64183 0.0
O3187 O 0.36376 0.2492 0.66005 0.0
O3188 O 0.35925 0.26796 0.60053 0.0
O3189 O 0.38433 0.27018 0.61138 0.0
O3190 O 0.33973 0.24607 0.61393 0.0
O3191 O 0.34882 0.24577 0.63656 0.0
H3192 H 0.3682 0.19011 0.68927 0.0
H3193 H 0.39569 0.177 0.6938 0.0
H3194 H 0.39851 0.16523 0.64503 0.0
H3195 H 0.37155 0.18 0.64049 0.0
H3196 H 0.38377 0.2986 0.62396 0.0
H3197 H 0.37892 0.32844 0.62397 0.0
H3198 H 0.35129 0.32501 0.58029 0.0
H3199 H 0.35612 0.29519 0.5803 0.0
Ho3200 Ho 0.14748 0.52652 0.37865 0.0
Ho3201 Ho 0.17382 0.50084 0.38725 0.0
C3202 C 0.18634 0.54058 0.38262 0.0
C3203 C 0.12184 0.54673 0.38101 0.0
C3204 C 0.12112 0.5631 0.38807 0.0
C3205 C 0.13452 0.56795 0.39797 0.0
C3206 C 0.13744 0.58459 0.40031 0.0
C3207 C 0.12771 0.59637 0.39182 0.0
C3208 C 0.11237 0.59153 0.38451 0.0
C3209 C 0.10923 0.57488 0.38247 0.0
C3210 C 0.16047 0.5089 0.35497 0.0
C3211 C 0.1339 0.48792 0.38369 0.0
C3212 C 0.19835 0.47911 0.38683 0.0
C3213 C 0.19812 0.46112 0.38577 0.0
C3214 C 0.18528 0.45349 0.37703 0.0
C3215 C 0.18313 0.43662 0.37823 0.0
C3216 C 0.19355 0.42714 0.38846 0.0
C3217 C 0.20694 0.43469 0.39662 0.0
C3218 C 0.20921 0.45157 0.39525 0.0
C3219 C 0.15865 0.51469 0.41148 0.0
O3220 O 0.16967 0.54439 0.38158 0.0
O3221 O 0.19092 0.52442 0.38383 0.0
O3222 O 0.131 0.5456 0.36859 0.0
O3223 O 0.125 0.53462 0.39062 0.0
O3224 O 0.15653 0.52449 0.35365 0.0
O3225 O 0.15644 0.50405 0.3679 0.0
O3226 O 0.15046 0.48327 0.38536 0.0
O3227 O 0.13018 0.50398 0.38159 0.0
O3228 O 0.1922 0.48521 0.3996 0.0
O3229 O 0.19296 0.48724 0.37451 0.0
O3230 O 0.16368 0.49935 0.41091 0.0
O3231 O 0.16325 0.52217 0.39961 0.0
H3232 H 0.14393 0.55903 0.40236 0.0
H3233 H 0.14905 0.588 0.40639 0.0
H3234 H 0.10428 0.60027 0.37812 0.0
H3235 H 0.09868 0.5713 0.37498 0.0
H3236 H 0.17639 0.46068 0.36985 0.0
H3237 H 0.17289 0.43112 0.37158 0.0
H3238 H 0.21508 0.42776 0.4047 0.0
H3239 H 0.21905 0.45731 0.40223 0.0
Ho3240 Ho 0.26138 0.38701 0.14964 0.0
Ho3241 Ho 0.28458 0.41034 0.16231 0.0
C3242 C 0.24888 0.42701 0.1505 0.0
C3243 C 0.23508 0.37045 0.14263 0.0
C3244 C 0.22472 0.37342 0.12839 0.0
C3245 C 0.21428 0.38772 0.12704 0.0
C3246 C 0.21032 0.3944 0.11253 0.0
C3247 C 0.21687 0.38703 0.09908 0.0
C3248 C 0.22566 0.37171 0.10047 0.0
C3249 C 0.22915 0.36481 0.11492 0.0
C3250 C 0.28132 0.3981 0.12752 0.0
C3251 C 0.29934 0.37304 0.15409 0.0
C3252 C 0.30975 0.42788 0.17166 0.0
C3253 C 0.32802 0.42824 0.1692 0.0
C3254 C 0.33618 0.41627 0.16006 0.0
C3255 C 0.35379 0.41635 0.15847 0.0
C3256 C 0.3634 0.42838 0.16607 0.0
C3257 C 0.35506 0.44055 0.17495 0.0
C3258 C 0.33748 0.44046 0.1765 0.0
C3259 C 0.26338 0.39762 0.18344 0.0
O3260 O 0.24485 0.41128 0.1484 0.0
O3261 O 0.26459 0.43025 0.15526 0.0
O3262 O 0.25057 0.36495 0.14023 0.0
O3263 O 0.23475 0.38221 0.15301 0.0
O3264 O 0.2746 0.38384 0.12728 0.0
O3265 O 0.27539 0.40677 0.13842 0.0
O3266 O 0.30247 0.38903 0.1542 0.0
O3267 O 0.28335 0.36868 0.15545 0.0
O3268 O 0.30468 0.4151 0.17907 0.0
O3269 O 0.29988 0.4317 0.15977 0.0
O3270 O 0.26699 0.41295 0.18245 0.0
O3271 O 0.27126 0.38961 0.17324 0.0
H3272 H 0.21023 0.39444 0.1372 0.0
H3273 H 0.2027 0.40571 0.11203 0.0
H3274 H 0.23108 0.36547 0.09063 0.0
H3275 H 0.23704 0.35364 0.11557 0.0
H3276 H 0.32902 0.40679 0.15429 0.0
H3277 H 0.35991 0.4068 0.15162 0.0
H3278 H 0.36215 0.45011 0.18073 0.0
H3279 H 0.33129 0.44981 0.18355 0.0
Ho3280 Ho 0.39554 0.4812 0.8938 0.0
Ho3281 Ho 0.37316 0.5018 0.91523 0.0
C3282 C 0.35419 0.47379 0.89584 0.0
C3283 C 0.41065 0.45688 0.87942 0.0
C3284 C 0.40731 0.44659 0.86538 0.0
C3285 C 0.41016 0.42945 0.86586 0.0
C3286 C 0.40806 0.41973 0.85248 0.0
C3287 C 0.4031 0.42692 0.83819 0.0
C3288 C 0.4001 0.44412 0.83785 0.0
C3289 C 0.40209 0.45377 0.85122 0.0
C3290 C 0.38047 0.50794 0.88061 0.0
C3291 C 0.41118 0.51378 0.90774 0.0
C3292 C 0.35729 0.52765 0.9262 0.0
C3293 C 0.35645 0.54507 0.92113 0.0
C3294 C 0.36498 0.54988 0.90794 0.0
C3295 C 0.36319 0.56602 0.9024 0.0
C3296 C 0.35299 0.57786 0.91006 0.0
C3297 C 0.34484 0.57314 0.92355 0.0
C3298 C 0.34648 0.55689 0.92897 0.0
C3299 C 0.38855 0.47512 0.92971 0.0
O3300 O 0.36919 0.47023 0.88962 0.0
O3301 O 0.35239 0.48558 0.90632 0.0
O3302 O 0.41368 0.47237 0.87713 0.0
O3303 O 0.40101 0.45486 0.89132 0.0
O3304 O 0.39519 0.50198 0.87654 0.0
O3305 O 0.37415 0.49862 0.89024 0.0
O3306 O 0.39516 0.51788 0.91044 0.0
O3307 O 0.41551 0.49863 0.90313 0.0
O3308 O 0.37199 0.52203 0.93173 0.0
O3309 O 0.35026 0.51722 0.91663 0.0
O3310 O 0.37411 0.48209 0.93347 0.0
O3311 O 0.39511 0.48386 0.91942 0.0
H3312 H 0.41419 0.42355 0.8766 0.0
H3313 H 0.41025 0.40656 0.85338 0.0
H3314 H 0.39656 0.45028 0.82713 0.0
H3315 H 0.39978 0.46694 0.85039 0.0
H3316 H 0.37286 0.54108 0.90178 0.0
H3317 H 0.36982 0.56924 0.89211 0.0
H3318 H 0.33679 0.58188 0.92967 0.0
H3319 H 0.33974 0.55349 0.93914 0.0
Ho3320 Ho 0.27406 0.63861 0.64099 0.0
Ho3321 Ho 0.24114 0.62234 0.65343 0.0
C3322 C 0.2739 0.59841 0.64261 0.0
C3323 C 0.30402 0.64603 0.63094 0.0
C3324 C 0.31668 0.64077 0.61884 0.0
C3325 C 0.33295 0.63433 0.62325 0.0
C3326 C 0.34553 0.63092 0.61223 0.0
C3327 C 0.3424 0.63386 0.5963 0.0
C3328 C 0.32596 0.64002 0.59189 0.0
C3329 C 0.31339 0.64345 0.60292 0.0
C3330 C 0.24636 0.63807 0.62156 0.0
C3331 C 0.24724 0.66261 0.65596 0.0
C3332 C 0.20775 0.61568 0.65451 0.0
C3333 C 0.18797 0.61936 0.65194 0.0
C3334 C 0.1796 0.61823 0.63721 0.0
C3335 C 0.16137 0.61955 0.63503 0.0
C3336 C 0.14982 0.62205 0.6474 0.0
C3337 C 0.15826 0.62318 0.66217 0.0
C3338 C 0.17658 0.62184 0.66434 0.0
C3339 C 0.26814 0.62396 0.67505 0.0
O3340 O 0.28189 0.6121 0.64036 0.0
O3341 O 0.25738 0.59869 0.64662 0.0
O3342 O 0.28965 0.65312 0.62627 0.0
O3343 O 0.3019 0.63637 0.64272 0.0
O3344 O 0.25709 0.64974 0.62217 0.0
O3345 O 0.25146 0.62664 0.63054 0.0
O3346 O 0.23627 0.65051 0.65405 0.0
O3347 O 0.26385 0.65993 0.65452 0.0
O3348 O 0.21675 0.62188 0.66602 0.0
O3349 O 0.21761 0.61258 0.64281 0.0
O3350 O 0.25591 0.61335 0.67497 0.0
O3351 O 0.2641 0.6345 0.66455 0.0
H3352 H 0.3361 0.63218 0.63534 0.0
H3353 H 0.3578 0.62596 0.61627 0.0
H3354 H 0.32288 0.64271 0.57989 0.0
H3355 H 0.30116 0.64854 0.59894 0.0
H3356 H 0.18721 0.61594 0.62714 0.0
H3357 H 0.15642 0.61815 0.62335 0.0
H3358 H 0.15072 0.62512 0.67232 0.0
H3359 H 0.18184 0.62248 0.67601 0.0
Ho3360 Ho 0.14053 0.51229 0.14102 0.0
Ho3361 Ho 0.15904 0.54063 0.12668 0.0
C3362 C 0.18194 0.50717 0.13661 0.0
C3363 C 0.13095 0.48409 0.15152 0.0
C3364 C 0.13839 0.47205 0.16303 0.0
C3365 C 0.15568 0.4722 0.1676 0.0
C3366 C 0.16235 0.46149 0.17909 0.0
C3367 C 0.1519 0.45038 0.18656 0.0
C3368 C 0.13462 0.45006 0.18171 0.0
C3369 C 0.12798 0.46075 0.17013 0.0
C3370 C 0.15012 0.5364 0.16115 0.0
C3371 C 0.11754 0.54431 0.13438 0.0
C3372 C 0.16784 0.57163 0.12204 0.0
C3373 C 0.16371 0.59016 0.12546 0.0
C3374 C 0.16253 0.59684 0.14057 0.0
C3375 C 0.16012 0.61415 0.14338 0.0
C3376 C 0.15888 0.62602 0.13129 0.0
C3377 C 0.16013 0.61923 0.11618 0.0
C3378 C 0.16243 0.60191 0.11339 0.0
C3379 C 0.15299 0.51485 0.10579 0.0
O3380 O 0.16706 0.50097 0.13949 0.0
O3381 O 0.1828 0.52318 0.1326 0.0
O3382 O 0.12594 0.49832 0.15705 0.0
O3383 O 0.13895 0.48571 0.13863 0.0
O3384 O 0.13655 0.52805 0.16225 0.0
O3385 O 0.15862 0.53073 0.15007 0.0
O3386 O 0.13256 0.55129 0.13357 0.0
O3387 O 0.11701 0.52797 0.13405 0.0
O3388 O 0.15791 0.56329 0.11267 0.0
O3389 O 0.17425 0.56203 0.13299 0.0
O3390 O 0.16525 0.52527 0.10523 0.0
O3391 O 0.14291 0.52014 0.11643 0.0
H3392 H 0.16404 0.48079 0.16247 0.0
H3393 H 0.17576 0.46202 0.18217 0.0
H3394 H 0.12605 0.44189 0.1872 0.0
H3395 H 0.11457 0.46041 0.16693 0.0
H3396 H 0.16366 0.58866 0.15039 0.0
H3397 H 0.15961 0.61818 0.15528 0.0
H3398 H 0.15917 0.62732 0.1063 0.0
H3399 H 0.16346 0.5977 0.10155 0.0
Ho3400 Ho 0.2884 0.38744 0.86492 0.0
Ho3401 Ho 0.25226 0.39739 0.84884 0.0
C3402 C 0.28246 0.42277 0.85253 0.0
C3403 C 0.31908 0.3863 0.87769 0.0
C3404 C 0.32865 0.38273 0.8927 0.0
C3405 C 0.3465 0.38065 0.89281 0.0
C3406 C 0.3561 0.37903 0.90678 0.0
C3407 C 0.34824 0.37942 0.92128 0.0
C3408 C 0.33025 0.38126 0.92107 0.0
C3409 C 0.32064 0.38294 0.90705 0.0
C3410 C 0.26194 0.395 0.88342 0.0
C3411 C 0.26294 0.35918 0.86031 0.0
C3412 C 0.21811 0.40133 0.84808 0.0
C3413 C 0.19808 0.40356 0.84874 0.0
C3414 C 0.18911 0.40354 0.86284 0.0
C3415 C 0.17076 0.40484 0.86347 0.0
C3416 C 0.15988 0.40578 0.85001 0.0
C3417 C 0.16899 0.40598 0.83594 0.0
C3418 C 0.18731 0.40503 0.83533 0.0
C3419 C 0.27769 0.38842 0.82792 0.0
O3420 O 0.29191 0.40939 0.85033 0.0
O3421 O 0.26573 0.42154 0.85462 0.0
O3422 O 0.31269 0.37412 0.86962 0.0
O3423 O 0.3089 0.39933 0.87743 0.0
O3424 O 0.27374 0.38408 0.88669 0.0
O3425 O 0.26524 0.40194 0.87102 0.0
O3426 O 0.25135 0.37046 0.85547 0.0
O3427 O 0.27914 0.36222 0.86299 0.0
O3428 O 0.22787 0.40626 0.83699 0.0
O3429 O 0.22726 0.39451 0.85929 0.0
O3430 O 0.26407 0.3978 0.82502 0.0
O3431 O 0.27601 0.38264 0.84154 0.0
H3432 H 0.35315 0.38069 0.88203 0.0
H3433 H 0.36983 0.37796 0.90614 0.0
H3434 H 0.32347 0.3814 0.93178 0.0
H3435 H 0.30694 0.38466 0.90746 0.0
H3436 H 0.19635 0.40248 0.87363 0.0
H3437 H 0.16512 0.40468 0.87471 0.0
H3438 H 0.16194 0.407 0.82506 0.0
H3439 H 0.19306 0.40515 0.82412 0.0
Ho3440 Ho 0.39681 0.52454 0.62964 0.0
Ho3441 Ho 0.37421 0.5039 0.61017 0.0
C3442 C 0.35558 0.53578 0.62571 0.0
C3443 C 0.41324 0.54905 0.6409 0.0
C3444 C 0.41013 0.55978 0.65445 0.0
C3445 C 0.39909 0.5737 0.65331 0.0
C3446 C 0.39374 0.5819 0.66664 0.0
C3447 C 0.39927 0.57628 0.68133 0.0
C3448 C 0.41134 0.56318 0.68233 0.0
C3449 C 0.41682 0.55512 0.66905 0.0
C3450 C 0.38369 0.5005 0.64608 0.0
C3451 C 0.4127 0.4897 0.61964 0.0
C3452 C 0.35821 0.47976 0.59743 0.0
C3453 C 0.35996 0.46181 0.59919 0.0
C3454 C 0.3696 0.45497 0.61157 0.0
C3455 C 0.37169 0.43794 0.613 0.0
C3456 C 0.36428 0.4274 0.60197 0.0
C3457 C 0.35454 0.43432 0.5896 0.0
C3458 C 0.35241 0.4514 0.58823 0.0
C3459 C 0.39043 0.52773 0.59451 0.0
O3460 O 0.37127 0.53896 0.63093 0.0
O3461 O 0.353 0.52229 0.61733 0.0
O3462 O 0.41725 0.53369 0.64403 0.0
O3463 O 0.4023 0.55047 0.62926 0.0
O3464 O 0.39798 0.50731 0.64948 0.0
O3465 O 0.37579 0.50833 0.63533 0.0
O3466 O 0.39664 0.48601 0.61647 0.0
O3467 O 0.41651 0.50522 0.62249 0.0
O3468 O 0.37101 0.48673 0.59116 0.0
O3469 O 0.35278 0.48788 0.60948 0.0
O3470 O 0.37495 0.52341 0.59142 0.0
O3471 O 0.39663 0.51866 0.6051 0.0
H3472 H 0.39399 0.57782 0.64219 0.0
H3473 H 0.38481 0.59227 0.66546 0.0
H3474 H 0.41584 0.55843 0.69342 0.0
H3475 H 0.42558 0.54463 0.67032 0.0
H3476 H 0.37559 0.46276 0.62014 0.0
H3477 H 0.37906 0.43304 0.62278 0.0
H3478 H 0.34885 0.42656 0.5808 0.0
H3479 H 0.34502 0.45648 0.57854 0.0
Ho3480 Ho 0.27487 0.65331 0.38468 0.0
Ho3481 Ho 0.30125 0.62833 0.37677 0.0
C3482 C 0.26327 0.61311 0.38175 0.0
C3483 C 0.24707 0.67043 0.38736 0.0
C3484 C 0.23472 0.66761 0.39933 0.0
C3485 C 0.21814 0.67442 0.39867 0.0
C3486 C 0.20775 0.67325 0.4115 0.0
C3487 C 0.2141 0.66579 0.42533 0.0
C3488 C 0.23035 0.65798 0.42523 0.0
C3489 C 0.2403 0.65859 0.41231 0.0
C3490 C 0.29079 0.63883 0.40923 0.0
C3491 C 0.31353 0.66787 0.382 0.0
C3492 C 0.32795 0.60961 0.37367 0.0
C3493 C 0.3425 0.61204 0.36396 0.0
C3494 C 0.34325 0.62658 0.35542 0.0
C3495 C 0.35684 0.629 0.34581 0.0
C3496 C 0.36983 0.61686 0.34456 0.0
C3497 C 0.36876 0.60209 0.35282 0.0
C3498 C 0.35515 0.5997 0.36248 0.0
C3499 C 0.28516 0.64268 0.35193 0.0
O3500 O 0.25829 0.62917 0.38202 0.0
O3501 O 0.28007 0.60983 0.38153 0.0
O3502 O 0.26176 0.67523 0.39287 0.0
O3503 O 0.24872 0.6587 0.37706 0.0
O3504 O 0.28652 0.65431 0.40883 0.0
O3505 O 0.28589 0.63202 0.39701 0.0
O3506 O 0.31787 0.6517 0.38157 0.0
O3507 O 0.2968 0.67187 0.38143 0.0
O3508 O 0.31373 0.60755 0.36587 0.0
O3509 O 0.32624 0.62001 0.38518 0.0
O3510 O 0.28996 0.62736 0.35264 0.0
O3511 O 0.28993 0.64959 0.36419 0.0
H3512 H 0.21346 0.68104 0.38852 0.0
H3513 H 0.19506 0.67876 0.4107 0.0
H3514 H 0.23617 0.65225 0.43537 0.0
H3515 H 0.25292 0.65284 0.41288 0.0
H3516 H 0.33334 0.6361 0.35626 0.0
H3517 H 0.35735 0.64046 0.33957 0.0
H3518 H 0.37879 0.59265 0.35228 0.0
H3519 H 0.35458 0.58834 0.36888 0.0
Ho3520 Ho 0.37861 0.10676 0.52301 0.0
Ho3521 Ho 0.38245 0.13211 0.49821 0.0
C3522 C 0.37738 0.14642 0.53371 0.0
C3523 C 0.37977 0.09029 0.54832 0.0
C3524 C 0.37228 0.09495 0.56328 0.0
C3525 C 0.37739 0.10919 0.57125 0.0
C3526 C 0.36744 0.11597 0.58295 0.0
C3527 C 0.35225 0.10869 0.58689 0.0
C3528 C 0.34799 0.09365 0.57996 0.0
C3529 C 0.35794 0.08683 0.56827 0.0
C3530 C 0.34931 0.11741 0.50864 0.0
C3531 C 0.38381 0.0921 0.48785 0.0
C3532 C 0.37826 0.15193 0.47505 0.0
C3533 C 0.38216 0.15447 0.45874 0.0
C3534 C 0.37995 0.14219 0.44745 0.0
C3535 C 0.38199 0.14576 0.43182 0.0
C3536 C 0.38659 0.16157 0.42732 0.0
C3537 C 0.38935 0.1736 0.43875 0.0
C3538 C 0.38708 0.17009 0.45428 0.0
C3539 C 0.41209 0.12229 0.51167 0.0
O3540 O 0.3789 0.13069 0.53802 0.0
O3541 O 0.37687 0.14984 0.51861 0.0
O3542 O 0.36868 0.08765 0.53711 0.0
O3543 O 0.39243 0.09902 0.54383 0.0
O3544 O 0.35237 0.10236 0.51294 0.0
O3545 O 0.3617 0.12585 0.51294 0.0
O3546 O 0.38275 0.10788 0.48331 0.0
O3547 O 0.38397 0.08868 0.50297 0.0
O3548 O 0.3909 0.15276 0.48511 0.0
O3549 O 0.36766 0.14048 0.47827 0.0
O3550 O 0.40889 0.13695 0.50641 0.0
O3551 O 0.39993 0.113 0.50848 0.0
H3552 H 0.38847 0.11569 0.56786 0.0
H3553 H 0.37121 0.12732 0.58845 0.0
H3554 H 0.33635 0.08774 0.58283 0.0
H3555 H 0.35376 0.07582 0.56239 0.0
H3556 H 0.37639 0.12997 0.45068 0.0
H3557 H 0.37988 0.13622 0.42326 0.0
H3558 H 0.39267 0.18595 0.43565 0.0
H3559 H 0.38875 0.17975 0.46281 0.0
Ho3560 Ho 0.86165 0.40225 0.50523 0.0
Ho3561 Ho 0.87325 0.36584 0.49962 0.0
C3562 C 0.87621 0.38119 0.53452 0.0
C3563 C 0.84987 0.43105 0.51276 0.0
C3564 C 0.85735 0.44549 0.52002 0.0
C3565 C 0.87229 0.44392 0.52926 0.0
C3566 C 0.87755 0.45712 0.5384 0.0
C3567 C 0.86791 0.47194 0.53832 0.0
C3568 C 0.854 0.47393 0.52785 0.0
C3569 C 0.8487 0.46073 0.5188 0.0
C3570 C 0.89208 0.39776 0.49184 0.0
C3571 C 0.85133 0.38567 0.4733 0.0
C3572 C 0.89046 0.3391 0.4938 0.0
C3573 C 0.89961 0.3312 0.48127 0.0
C3574 C 0.89754 0.33727 0.46625 0.0
C3575 C 0.90211 0.32738 0.45381 0.0
C3576 C 0.90871 0.31125 0.45625 0.0
C3577 C 0.91259 0.30603 0.47141 0.0
C3578 C 0.90796 0.31597 0.48389 0.0
C3579 C 0.84311 0.36847 0.51367 0.0
O3580 O 0.87011 0.39539 0.52913 0.0
O3581 O 0.87926 0.36827 0.52541 0.0
O3582 O 0.85498 0.42739 0.49891 0.0
O3583 O 0.84919 0.41819 0.52165 0.0
O3584 O 0.8822 0.41053 0.48972 0.0
O3585 O 0.88635 0.38902 0.50228 0.0
O3586 O 0.86407 0.37467 0.47569 0.0
O3587 O 0.84572 0.39509 0.4847 0.0
O3588 O 0.87399 0.34091 0.49135 0.0
O3589 O 0.89728 0.35202 0.50018 0.0
O3590 O 0.85222 0.35501 0.51232 0.0
O3591 O 0.84892 0.37872 0.50435 0.0
H3592 H 0.87923 0.43222 0.53014 0.0
H3593 H 0.88823 0.45528 0.54647 0.0
H3594 H 0.84643 0.4853 0.52759 0.0
H3595 H 0.83727 0.46214 0.51157 0.0
H3596 H 0.89101 0.349 0.46409 0.0
H3597 H 0.89875 0.33181 0.44232 0.0
H3598 H 0.91789 0.29378 0.47362 0.0
H3599 H 0.90968 0.31122 0.49551 0.0
Ho3600 Ho 0.35295 0.16252 0.24469 0.0
Ho3601 Ho 0.36786 0.1872 0.26787 0.0
C3602 C 0.39295 0.16126 0.25311 0.0
C3603 C 0.3466 0.14635 0.21962 0.0
C3604 C 0.3539 0.13018 0.21443 0.0
C3605 C 0.36284 0.1291 0.20065 0.0
C3606 C 0.37101 0.11431 0.19619 0.0
C3607 C 0.37055 0.10015 0.20547 0.0
C3608 C 0.3615 0.10125 0.21926 0.0
C3609 C 0.35331 0.11605 0.22369 0.0
C3610 C 0.36267 0.14618 0.27138 0.0
C3611 C 0.32931 0.17321 0.27173 0.0
C3612 C 0.37481 0.20434 0.29217 0.0
C3613 C 0.37346 0.19923 0.30831 0.0
C3614 C 0.36763 0.18352 0.31137 0.0
C3615 C 0.36765 0.1776 0.32641 0.0
C3616 C 0.37338 0.18736 0.33883 0.0
C3617 C 0.37895 0.2033 0.33576 0.0
C3618 C 0.37905 0.20916 0.32057 0.0
C3619 C 0.36671 0.19851 0.2379 0.0
O3620 O 0.38116 0.16019 0.24204 0.0
O3621 O 0.39041 0.1701 0.26569 0.0
O3622 O 0.33663 0.14632 0.23149 0.0
O3623 O 0.35725 0.15838 0.22033 0.0
O3624 O 0.35594 0.13919 0.25933 0.0
O3625 O 0.36367 0.16116 0.26819 0.0
O3626 O 0.34309 0.17973 0.27802 0.0
O3627 O 0.32869 0.16882 0.25697 0.0
O3628 O 0.38637 0.19595 0.28458 0.0
O3629 O 0.36034 0.20604 0.28433 0.0
O3630 O 0.3782 0.20141 0.24842 0.0
O3631 O 0.35507 0.1902 0.24408 0.0
H3632 H 0.36375 0.13982 0.19342 0.0
H3633 H 0.37762 0.11398 0.1854 0.0
H3634 H 0.36102 0.09075 0.22684 0.0
H3635 H 0.34678 0.11646 0.23454 0.0
H3636 H 0.36349 0.17561 0.30201 0.0
H3637 H 0.36358 0.16519 0.32823 0.0
H3638 H 0.38324 0.21123 0.34507 0.0
H3639 H 0.38369 0.2213 0.3184 0.0
Ho3640 Ho 0.61883 0.63936 0.99277 0.0
Ho3641 Ho 0.60087 0.66072 0.01667 0.0
C3642 C 0.61291 0.67874 0.98483 0.0
C3643 C 0.62842 0.62314 0.96836 0.0
C3644 C 0.64387 0.62259 0.95907 0.0
C3645 C 0.64328 0.61651 0.94387 0.0
C3646 C 0.65799 0.6159 0.93506 0.0
C3647 C 0.67354 0.62137 0.94133 0.0
C3648 C 0.67403 0.62734 0.95663 0.0
C3649 C 0.65935 0.62801 0.96537 0.0
C3650 C 0.6405 0.64955 0.01587 0.0
C3651 C 0.61251 0.6226 0.02456 0.0
C3652 C 0.59373 0.67415 0.04378 0.0
C3653 C 0.59958 0.67439 0.06085 0.0
C3654 C 0.60742 0.6607 0.06848 0.0
C3655 C 0.61183 0.66115 0.08457 0.0
C3656 C 0.60856 0.6753 0.09392 0.0
C3657 C 0.60077 0.68897 0.08613 0.0
C3658 C 0.59644 0.68852 0.07007 0.0
C3659 C 0.57912 0.64848 0.99303 0.0
O3660 O 0.61688 0.66367 0.97993 0.0
O3661 O 0.60751 0.68119 0.9993 0.0
O3662 O 0.63033 0.6176 0.98242 0.0
O3663 O 0.61919 0.63676 0.96778 0.0
O3664 O 0.64319 0.63699 1.00694 0.0
O3665 O 0.62778 0.6578 1.01026 0.0
O3666 O 0.61048 0.63783 0.02976 0.0
O3667 O 0.61207 0.61969 1.00951 0.0
O3668 O 0.58682 0.66089 0.03813 0.0
O3669 O 0.60311 0.68096 0.0335 0.0
O3670 O 0.57667 0.6622 1.00071 0.0
O3671 O 0.59198 0.64122 0.99965 0.0
H3672 H 0.63143 0.61231 0.93878 0.0
H3673 H 0.6571 0.61144 0.92326 0.0
H3674 H 0.68581 0.63144 0.96192 0.0
H3675 H 0.6601 0.63273 0.97709 0.0
H3676 H 0.6101 0.64953 0.06202 0.0
H3677 H 0.6176 0.65016 0.08971 0.0
H3678 H 0.59812 0.70027 0.09241 0.0
H3679 H 0.59041 0.69935 0.06482 0.0
Ho3680 Ho 0.68113 0.40619 0.23968 0.0
Ho3681 Ho 0.65636 0.39344 0.26297 0.0
C3682 C 0.64053 0.40222 0.22829 0.0
C3683 C 0.69826 0.41256 0.21545 0.0
C3684 C 0.69298 0.42215 0.20161 0.0
C3685 C 0.67593 0.42244 0.19656 0.0
C3686 C 0.66949 0.43454 0.18654 0.0
C3687 C 0.68014 0.44645 0.18067 0.0
C3688 C 0.69779 0.44485 0.18434 0.0
C3689 C 0.70406 0.43305 0.19498 0.0
C3690 C 0.66743 0.42918 0.25877 0.0
C3691 C 0.69675 0.39923 0.27404 0.0
C3692 C 0.63681 0.38782 0.28595 0.0
C3693 C 0.63501 0.38828 0.30294 0.0
C3694 C 0.64012 0.40165 0.31213 0.0
C3695 C 0.63636 0.40237 0.32791 0.0
C3696 C 0.62768 0.38957 0.33483 0.0
C3697 C 0.62302 0.37605 0.32561 0.0
C3698 C 0.62659 0.37546 0.30989 0.0
C3699 C 0.67005 0.37028 0.24401 0.0
O3700 O 0.6566 0.4044 0.22463 0.0
O3701 O 0.63689 0.399 0.24295 0.0
O3702 O 0.69909 0.42121 0.22818 0.0
O3703 O 0.69064 0.39867 0.21737 0.0
O3704 O 0.68251 0.42979 0.25323 0.0
O3705 O 0.65996 0.41726 0.25259 0.0
O3706 O 0.68052 0.39862 0.27829 0.0
O3707 O 0.70024 0.39935 0.25905 0.0
O3708 O 0.64727 0.37674 0.28017 0.0
O3709 O 0.63685 0.4018 0.27859 0.0
O3710 O 0.65457 0.3703 0.24878 0.0
O3711 O 0.6779 0.38206 0.25017 0.0
H3712 H 0.66726 0.41392 0.20106 0.0
H3713 H 0.65589 0.4349 0.18435 0.0
H3714 H 0.70679 0.45302 0.17954 0.0
H3715 H 0.71739 0.43292 0.19852 0.0
H3716 H 0.64684 0.41158 0.3071 0.0
H3717 H 0.64029 0.4129 0.33469 0.0
H3718 H 0.61614 0.36607 0.33045 0.0
H3719 H 0.62238 0.36508 0.30304 0.0
Ho3720 Ho 0.1098 0.92476 0.01916 0.0
Ho3721 Ho 0.08962 0.91091 0.99448 0.0
C3722 C 0.10826 0.88611 0.01736 0.0
C3723 C 0.12289 0.9385 0.04342 0.0
C3724 C 0.13673 0.93297 0.05406 0.0
C3725 C 0.13748 0.9168 0.05969 0.0
C3726 C 0.15196 0.91084 0.06773 0.0
C3727 C 0.16603 0.92086 0.07012 0.0
C3728 C 0.16497 0.93724 0.06499 0.0
C3729 C 0.1504 0.94325 0.05706 0.0
C3730 C 0.12987 0.91072 0.99685 0.0
C3731 C 0.10127 0.94875 0.99102 0.0
C3732 C 0.07605 0.90231 0.96825 0.0
C3733 C 0.08049 0.90509 0.95193 0.0
C3734 C 0.09756 0.90457 0.94741 0.0
C3735 C 0.10162 0.90585 0.93181 0.0
C3736 C 0.08869 0.90771 0.9203 0.0
C3737 C 0.07164 0.90891 0.92498 0.0
C3738 C 0.0676 0.90756 0.94059 0.0
C3739 C 0.07285 0.91137 0.02255 0.0
O3740 O 0.10842 0.89874 0.02695 0.0
O3741 O 0.10401 0.88818 1.00265 0.0
O3742 O 0.12764 0.94156 0.02944 0.0
O3743 O 0.10889 0.93027 0.04358 0.0
O3744 O 0.13318 0.91006 0.0116 0.0
O3745 O 0.11618 0.91908 0.99466 0.0
O3746 O 0.09538 0.9356 0.98395 0.0
O3747 O 0.10509 0.94819 1.0059 0.0
O3748 O 0.07046 0.91509 0.97615 0.0
O3749 O 0.08685 0.89295 0.97627 0.0
O3750 O 0.07175 0.90044 0.01173 0.0
O3751 O 0.08163 0.92294 0.01721 0.0
H3752 H 0.12713 0.90856 0.05744 0.0
H3753 H 0.15226 0.89827 0.0718 0.0
H3754 H 0.17566 0.94521 0.06652 0.0
H3755 H 0.15011 0.9557 0.05266 0.0
H3756 H 0.10779 0.90269 0.95591 0.0
H3757 H 0.11487 0.90473 0.92874 0.0
H3758 H 0.06133 0.91068 0.91654 0.0
H3759 H 0.05436 0.90813 0.94376 0.0
Ho3760 Ho 0.37937 0.8877 0.2343 0.0
Ho3761 Ho 0.38705 0.8709 0.20192 0.0
C3762 C 0.41806 0.88476 0.22449 0.0
C3763 C 0.36921 0.89673 0.26145 0.0
C3764 C 0.37171 0.90895 0.27416 0.0
C3765 C 0.38429 0.90646 0.28587 0.0
C3766 C 0.38532 0.91724 0.29858 0.0
C3767 C 0.37369 0.93071 0.29998 0.0
C3768 C 0.36122 0.93321 0.28818 0.0
C3769 C 0.36021 0.92247 0.2755 0.0
C3770 C 0.381 0.90735 0.20952 0.0
C3771 C 0.34938 0.87222 0.21344 0.0
C3772 C 0.39596 0.86663 0.17347 0.0
C3773 C 0.39122 0.87038 0.15708 0.0
C3774 C 0.37545 0.8662 0.15031 0.0
C3775 C 0.37215 0.86851 0.13442 0.0
C3776 C 0.38452 0.87506 0.12494 0.0
C3777 C 0.4001 0.8796 0.13185 0.0
C3778 C 0.40339 0.87726 0.14769 0.0
C3779 C 0.38627 0.8502 0.22595 0.0
O3780 O 0.40759 0.88823 0.23584 0.0
O3781 O 0.41313 0.87854 0.21092 0.0
O3782 O 0.36225 0.90215 0.24846 0.0
O3783 O 0.38108 0.8853 0.25928 0.0
O3784 O 0.38634 0.91161 0.22326 0.0
O3785 O 0.37459 0.89353 0.21 0.0
O3786 O 0.35871 0.87353 0.20105 0.0
O3787 O 0.35583 0.87394 0.22762 0.0
O3788 O 0.38686 0.85621 0.18093 0.0
O3789 O 0.40098 0.87885 0.18219 0.0
O3790 O 0.38313 0.84575 0.21173 0.0
O3791 O 0.3916 0.86459 0.22625 0.0
H3792 H 0.39316 0.89601 0.2854 0.0
H3793 H 0.39498 0.91479 0.3075 0.0
H3794 H 0.35221 0.94355 0.28869 0.0
H3795 H 0.35019 0.92464 0.26684 0.0
H3796 H 0.36578 0.8609 0.15722 0.0
H3797 H 0.35996 0.86501 0.1295 0.0
H3798 H 0.40995 0.88455 0.12492 0.0
H3799 H 0.41568 0.88054 0.15256 0.0
Ho3800 Ho 0.16784 0.17198 0.78847 0.0
Ho3801 Ho 0.1428 0.18972 0.76658 0.0
C3802 C 0.12744 0.17667 0.79914 0.0
C3803 C 0.18519 0.16054 0.81218 0.0
C3804 C 0.18137 0.14865 0.82435 0.0
C3805 C 0.16635 0.15013 0.83275 0.0
C3806 C 0.16157 0.13732 0.84224 0.0
C3807 C 0.1716 0.12269 0.8434 0.0
C3808 C 0.18713 0.1217 0.8357 0.0
C3809 C 0.19196 0.13456 0.82632 0.0
C3810 C 0.15315 0.15284 0.7663 0.0
C3811 C 0.18279 0.17936 0.75565 0.0
C3812 C 0.12578 0.19716 0.74065 0.0
C3813 C 0.12521 0.19485 0.72306 0.0
C3814 C 0.13115 0.18048 0.71529 0.0
C3815 C 0.12932 0.17871 0.69888 0.0
C3816 C 0.12148 0.19124 0.68948 0.0
C3817 C 0.11546 0.20545 0.6975 0.0
C3818 C 0.11733 0.20719 0.71375 0.0
C3819 C 0.15448 0.20928 0.79098 0.0
O3820 O 0.14357 0.17221 0.80253 0.0
O3821 O 0.12323 0.18282 0.7851 0.0
O3822 O 0.18608 0.15427 0.79833 0.0
O3823 O 0.17696 0.17477 0.81222 0.0
O3824 O 0.16851 0.15047 0.77169 0.0
O3825 O 0.14611 0.16432 0.77381 0.0
O3826 O 0.16644 0.18275 0.75191 0.0
O3827 O 0.18734 0.17778 0.77046 0.0
O3828 O 0.13731 0.20648 0.74712 0.0
O3829 O 0.12266 0.18466 0.74945 0.0
O3830 O 0.13969 0.21089 0.78382 0.0
O3831 O 0.16334 0.19855 0.78338 0.0
H3832 H 0.15794 0.16088 0.83152 0.0
H3833 H 0.1497 0.13866 0.84823 0.0
H3834 H 0.19511 0.1106 0.83616 0.0
H3835 H 0.20359 0.13313 0.81994 0.0
H3836 H 0.13725 0.17058 0.7219 0.0
H3837 H 0.13428 0.16754 0.69357 0.0
H3838 H 0.10889 0.21535 0.69127 0.0
H3839 H 0.11228 0.21832 0.71911 0.0
H3840 H 0.05564 0.19448 0.39248 0.0
H3841 H 0.05852 0.17195 0.3474 0.0
H3842 H 0.03421 0.15502 0.35303 0.0
H3843 H 1.01152 0.14712 0.37078 0.0
H3844 H 1.0093 0.17018 0.41573 0.0
H3845 H 0.03381 0.18636 0.41011 0.0
C3846 C 0.05111 0.18572 0.38394 0.0
C3847 C 0.05896 0.18446 0.36957 0.0
C3848 C 0.03706 0.17621 0.38718 0.0
C3849 C 0.05266 0.17325 0.35853 0.0
C3850 C 0.03875 0.16356 0.36175 0.0
C3851 C 1.01643 0.1557 0.3793 0.0
C3852 C 1.0085 0.15747 0.39363 0.0
C3853 C 0.03072 0.16504 0.376 0.0
C3854 C 1.01504 0.16863 0.40457 0.0
C3855 C 0.02913 0.17787 0.4014 0.0
H3856 H 0.13056 0.86428 0.65777 0.0
H3857 H 0.15703 0.8529 0.61584 0.0
H3858 H 0.16864 0.82747 0.62724 0.0
H3859 H 0.16642 0.80635 0.6467 0.0
H3860 H 0.13826 0.81611 0.68795 0.0
H3861 H 0.13163 0.84429 0.67906 0.0
C3862 C 0.13921 0.85637 0.6513 0.0
C3863 C 0.14255 0.86014 0.63585 0.0
C3864 C 0.14495 0.84131 0.65757 0.0
C3865 C 0.15415 0.85018 0.6277 0.0
C3866 C 0.16052 0.83549 0.63409 0.0
C3867 C 0.15902 0.81468 0.65388 0.0
C3868 C 0.15253 0.80918 0.66779 0.0
C3869 C 0.15516 0.83056 0.64861 0.0
C3870 C 0.14309 0.8201 0.67705 0.0
C3871 C 0.13942 0.83617 0.67201 0.0
H3872 H 0.47855 0.87542 0.88046 0.0
H3873 H 0.51277 0.83955 0.85999 0.0
H3874 H 0.48903 0.8215 0.85455 0.0
H3875 H 0.45823 0.81678 0.85373 0.0
H3876 H 0.42373 0.85317 0.87314 0.0
H3877 H 0.44773 0.87017 0.88058 0.0
C3878 C 0.48085 0.86357 0.87499 0.0
C3879 C 0.49748 0.85887 0.87063 0.0
C3880 C 0.46699 0.85343 0.87146 0.0
C3881 C 0.50015 0.84348 0.86348 0.0
C3882 C 0.48654 0.83317 0.86029 0.0
C3883 C 0.45594 0.82831 0.85979 0.0
C3884 C 0.43907 0.83363 0.86279 0.0
C3885 C 0.46984 0.83814 0.86394 0.0
C3886 C 0.43648 0.84879 0.87046 0.0
C3887 C 0.45024 0.85852 0.87481 0.0
H3888 H 0.43543 0.23018 0.11784 0.0
H3889 H 0.42756 0.2321 0.16695 0.0
H3890 H 0.44566 0.20772 0.17068 0.0
H3891 H 0.46498 0.18539 0.16082 0.0
H3892 H 0.47273 0.18205 0.11187 0.0
H3893 H 0.45413 0.20646 0.10765 0.0
C3894 C 0.43746 0.22525 0.12936 0.0
C3895 C 0.42972 0.23371 0.14208 0.0
C3896 C 0.44831 0.21055 0.13166 0.0
C3897 C 0.43307 0.22651 0.15678 0.0
C3898 C 0.44361 0.2123 0.15903 0.0
C3899 C 0.46266 0.18986 0.14916 0.0
C3900 C 0.47072 0.18133 0.13676 0.0
C3901 C 0.45154 0.20416 0.14668 0.0
C3902 C 0.46703 0.18787 0.12184 0.0
C3903 C 0.45623 0.20207 0.11936 0.0
H3904 H 0.04974 0.84447 0.11085 0.0
H3905 H 0.03638 0.84581 0.15869 0.0
H3906 H 0.05936 0.82523 0.16467 0.0
H3907 H 0.08376 0.8059 0.15606 0.0
H3908 H 0.09629 0.80616 0.10782 0.0
H3909 H 0.07371 0.82649 0.10259 0.0
C3910 C 0.05175 0.84036 0.12266 0.0
C3911 C 0.04088 0.84699 0.13421 0.0
C3912 C 0.06518 0.82846 0.12605 0.0
C3913 C 0.04419 0.84122 0.1494 0.0
C3914 C 0.05749 0.82929 0.15284 0.0
C3915 C 0.08164 0.81039 0.1444 0.0
C3916 C 0.09228 0.80397 0.13241 0.0
C3917 C 0.06817 0.82265 0.14125 0.0
C3918 C 0.08881 0.8104 0.11746 0.0
C3919 C 0.07567 0.82222 0.11436 0.0
H3920 H 0.49514 0.84341 0.39053 0.0
H3921 H 0.46505 0.86394 0.35257 0.0
H3922 H 0.44503 0.84165 0.35443 0.0
H3923 H 0.43554 0.81563 0.36678 0.0
H3924 H 0.46679 0.7944 0.40368 0.0
H3925 H 0.48629 0.81706 0.4022 0.0
C3926 C 0.4842 0.84311 0.38265 0.0
C3927 C 0.48189 0.85581 0.37142 0.0
C3928 C 0.47268 0.82979 0.38354 0.0
C3929 C 0.4675 0.85466 0.36134 0.0
C3930 C 0.4559 0.84176 0.3624 0.0
C3931 C 0.44663 0.81587 0.37449 0.0
C3932 C 0.44936 0.80291 0.38542 0.0
C3933 C 0.45827 0.82913 0.37343 0.0
C3934 C 0.46404 0.80386 0.39515 0.0
C3935 C 0.47533 0.81699 0.39432 0.0
H3936 H 0.4771 0.16209 0.68984 0.0
H3937 H 0.48427 0.17093 0.64143 0.0
H3938 H 0.45337 0.17583 0.63764 0.0
H3939 H 0.42456 0.17544 0.64803 0.0
H3940 H 0.41844 0.16073 0.69553 0.0
H3941 H 0.44895 0.16015 0.69966 0.0
C3942 C 0.472 0.16529 0.67843 0.0
C3943 C 0.48288 0.16606 0.66588 0.0
C3944 C 0.45443 0.16677 0.67618 0.0
C3945 C 0.4761 0.17035 0.65126 0.0
C3946 C 0.45846 0.17289 0.64909 0.0
C3947 C 0.42974 0.17168 0.65923 0.0
C3948 C 0.41885 0.16829 0.67147 0.0
C3949 C 0.44748 0.17058 0.66141 0.0
C3950 C 0.42618 0.16394 0.68595 0.0
C3951 C 0.44373 0.16352 0.68835 0.0
H3952 H 0.13507 0.27762 0.92285 0.0
H3953 H 0.1201 0.27386 0.87469 0.0
H3954 H 0.10822 0.24709 0.87912 0.0
H3955 H 0.10265 0.22463 0.89642 0.0
H3956 H 0.11894 0.22704 0.94436 0.0
H3957 H 0.13053 0.25421 0.94016 0.0
C3958 C 0.12928 0.27082 0.91337 0.0
C3959 C 0.12873 0.27746 0.89847 0.0
C3960 C 0.1231 0.25511 0.91588 0.0
C3961 C 0.12072 0.26893 0.88629 0.0
C3962 C 0.1141 0.25355 0.88876 0.0
C3963 C 0.10913 0.23087 0.90589 0.0
C3964 C 0.1101 0.2238 0.92064 0.0
C3965 C 0.11549 0.24643 0.90344 0.0
C3966 C 0.11809 0.23228 0.93289 0.0
C3967 C 0.12457 0.24782 0.93052 0.0
H3968 H 0.41137 0.04145 0.17357 0.0
H3969 H 0.36922 1.0146 0.19002 0.0
H3970 H 0.35956 0.03865 0.2049 0.0
H3971 H 0.35986 0.06862 0.20886 0.0
H3972 H 0.40126 0.09593 0.19132 0.0
H3973 H 0.41405 0.07065 0.18087 0.0
C3974 C 0.40036 0.04073 0.18076 0.0
C3975 C 0.39089 0.02632 0.18055 0.0
C3976 C 0.39431 0.05494 0.18857 0.0
C3977 C 0.37669 0.02556 0.18999 0.0
C3978 C 0.37106 0.03939 0.19836 0.0
C3979 C 0.37188 0.06905 0.20307 0.0
C3980 C 0.37931 0.08435 0.20063 0.0
C3981 C 0.37922 0.05441 0.19704 0.0
C3982 C 0.39489 0.08451 0.19298 0.0
C3983 C 0.40232 0.06999 0.18708 0.0
H3984 H 0.20117 0.13862 0.44524 0.0
H3985 H 0.18136 0.09966 0.41665 0.0
H3986 H 0.20657 0.10019 0.4007 0.0
H3987 H 0.23422 0.11248 0.39448 0.0
H3988 H 0.25276 0.15191 0.42323 0.0
H3989 H 0.22857 0.14988 0.43984 0.0
C3990 C 0.20243 0.13001 0.4357 0.0
C3991 C 0.18936 0.11906 0.43228 0.0
C3992 C 0.21692 0.13035 0.42663 0.0
C3993 C 0.19112 0.10834 0.41954 0.0
C3994 C 0.20562 0.10855 0.41045 0.0
C3995 C 0.23299 0.12047 0.40445 0.0
C3996 C 0.24522 0.13241 0.4075 0.0
C3997 C 0.21861 0.11958 0.41383 0.0
C3998 C 0.24349 0.14266 0.42054 0.0
C3999 C 0.2296 0.14158 0.43004 0.0
H4000 H 0.19491 0.96776 0.66488 0.0
H4001 H 0.14635 0.95015 0.67842 0.0
H4002 H 0.13219 0.97534 0.66885 0.0
H4003 H 0.13382 1.00341 0.65832 0.0
H4004 H 0.18261 0.02114 0.64578 0.0
H4005 H 0.19647 0.99516 0.65372 0.0
C4006 C 0.18123 0.96942 0.66579 0.0
C4007 C 0.17181 0.95709 0.67253 0.0
C4008 C 0.17322 0.98417 0.66077 0.0
C4009 C 0.15399 0.95931 0.67316 0.0
C4010 C 0.14587 0.97384 0.66789 0.0
C4011 C 0.14749 1.00157 0.65747 0.0
C4012 C 0.15722 1.01415 0.6516 0.0
C4013 C 0.1554 0.98654 0.66202 0.0
C4014 C 0.17488 1.0116 0.65029 0.0
C4015 C 0.18282 0.99675 0.65482 0.0
H4016 H 0.34252 0.91345 0.95319 0.0
H4017 H 0.34648 0.86048 0.95497 0.0
H4018 H 0.32739 0.85873 0.9322 0.0
H4019 H 0.30725 0.87227 0.91354 0.0
H4020 H 0.30386 0.92518 0.91121 0.0
H4021 H 0.32521 0.92699 0.93235 0.0
C4022 C 0.3394 0.90151 0.94846 0.0
C4023 C 0.34577 0.88709 0.95591 0.0
C4024 C 0.32842 0.90062 0.93536 0.0
C4025 C 0.34179 0.87174 0.9495 0.0
C4026 C 0.33077 0.87075 0.93653 0.0
C4027 C 0.31135 0.8842 0.91754 0.0
C4028 C 0.30382 0.8986 0.91099 0.0
C4029 C 0.32365 0.8851 0.92964 0.0
C4030 C 0.30942 0.91396 0.9161 0.0
C4031 C 0.32156 0.91497 0.92823 0.0
H4032 H 0.36554 0.98351 0.35417 0.0
H4033 H 0.42028 0.98122 0.35173 0.0
H4034 H 0.41879 0.95937 0.33245 0.0
H4035 H 0.40206 0.94255 0.31456 0.0
H4036 H 0.34725 0.94481 0.3161 0.0
H4037 H 0.34863 0.96499 0.33711 0.0
C4038 C 0.37709 0.97803 0.34954 0.0
C4039 C 0.39298 0.98408 0.35428 0.0
C4040 C 0.37615 0.96561 0.33805 0.0
C4041 C 0.40787 0.97692 0.34815 0.0
C4042 C 0.40705 0.9644 0.33709 0.0
C4043 C 0.3904 0.94723 0.31962 0.0
C4044 C 0.37459 0.9422 0.31357 0.0
C4045 C 0.39127 0.95891 0.33167 0.0
C4046 C 0.35963 0.94864 0.32026 0.0
C4047 C 0.36039 0.96014 0.33238 0.0
H4048 H 0.29539 0.15325 0.61803 0.0
H4049 H 0.29178 0.1096 0.6456 0.0
H4050 H 0.3153 0.09642 0.63202 0.0
H4051 H 0.33608 0.0967 0.61145 0.0
H4052 H 0.34069 0.14048 0.58432 0.0
H4053 H 0.31794 0.15429 0.59869 0.0
C4054 C 0.29981 0.14087 0.621 0.0
C4055 C 0.29176 0.13232 0.63261 0.0
C4056 C 0.31359 0.13341 0.61329 0.0
C4057 C 0.29773 0.1164 0.63662 0.0
C4058 C 0.31119 0.10883 0.62887 0.0
C4059 C 0.33216 0.1093 0.6088 0.0
C4060 C 0.33996 0.11754 0.59686 0.0
C4061 C 0.31909 0.11714 0.61708 0.0
C4062 C 0.33494 0.13394 0.59359 0.0
C4063 C 0.32184 0.14179 0.6017 0.0
H4064 H 0.18946 0.09961 0.86096 0.0
H4065 H 0.13897 0.11221 0.84283 0.0
H4066 H 0.12855 0.08655 0.85252 0.0
H4067 H 0.13405 0.05958 0.86423 0.0
H4068 H 0.18439 0.04615 0.88186 0.0
H4069 H 0.19465 0.07293 0.87404 0.0
C4070 C 0.17617 0.09675 0.85913 0.0
C4071 C 0.16508 0.10789 0.85108 0.0
C4072 C 0.17029 0.08169 0.86441 0.0
C4073 C 0.14781 0.10408 0.84914 0.0
C4074 C 0.14184 0.08927 0.85452 0.0
C4075 C 0.1473 0.0625 0.8663 0.0
C4076 C 0.15854 0.05087 0.87336 0.0
C4077 C 0.15303 0.07785 0.86184 0.0
C4078 C 0.17556 0.0549 0.87629 0.0
C4079 C 0.18141 0.07019 0.87184 0.0
H4080 H 0.23115 0.88147 0.09553 0.0
H4081 H 0.23776 0.92675 0.12084 0.0
H4082 H 0.21216 0.9388 0.10811 0.0
H4083 H 0.18712 0.93579 0.09091 0.0
H4084 H 0.18093 0.89057 0.06525 0.0
H4085 H 0.20702 0.87902 0.07726 0.0
C4086 C 0.22708 0.89404 0.09809 0.0
C4087 C 0.23614 0.90322 0.10912 0.0
C4088 C 0.21232 0.90078 0.09088 0.0
C4089 C 0.23084 0.91948 0.1124 0.0
C4090 C 0.21621 0.92633 0.10518 0.0
C4091 C 0.19158 0.92349 0.0878 0.0
C4092 C 0.182 0.91401 0.07733 0.0
C4093 C 0.20671 0.91699 0.09458 0.0
C4094 C 0.18787 0.89801 0.07355 0.0
C4095 C 0.20287 0.89143 0.08029 0.0
H4096 H 0.20283 0.43222 0.04082 0.0
H4097 H 0.20733 0.38516 0.0179 0.0
H4098 H 0.21643 0.37209 0.04216 0.0
H4099 H 0.21664 0.37326 0.07006 0.0
H4100 H 0.21408 0.42044 0.09344 0.0
H4101 H 0.20946 0.4341 0.06877 0.0
C4102 C 0.20657 0.41926 0.04107 0.0
C4103 C 0.20437 0.40956 0.02777 0.0
C4104 C 0.21113 0.41172 0.05518 0.0
C4105 C 0.20901 0.39277 0.02811 0.0
C4106 C 0.21397 0.38528 0.04199 0.0
C4107 C 0.21578 0.38656 0.06997 0.0
C4108 C 0.21532 0.39559 0.08388 0.0
C4109 C 0.21406 0.39449 0.05571 0.0
C4110 C 0.2137 0.4129 0.08311 0.0
C4111 C 0.21141 0.42085 0.06893 0.0
H4112 H 0.71298 0.15139 0.94485 0.0
H4113 H 0.67573 0.18965 0.93275 0.0
H4114 H 0.66581 0.19016 0.95922 0.0
H4115 H 0.66925 0.18144 0.98567 0.0
H4116 H 0.70542 0.1425 0.99855 0.0
H4117 H 0.71461 0.14067 0.97161 0.0
C4118 C 0.70243 0.15955 0.94796 0.0
C4119 C 0.69514 0.17061 0.93698 0.0
C4120 C 0.697 0.15993 0.96325 0.0
C4121 C 0.6816 0.18122 0.9411 0.0
C4122 C 0.67604 0.18157 0.95621 0.0
C4123 C 0.67925 0.17256 0.98273 0.0
C4124 C 0.68684 0.16221 0.99413 0.0
C4125 C 0.68401 0.17135 0.9674 0.0
C4126 C 0.69951 0.15064 0.98997 0.0
C4127 C 0.70465 0.14956 0.9746 0.0
H4128 H 0.1442 0.41843 0.1943 0.0
H4129 H 0.17529 0.45871 0.20912 0.0
H4130 H 0.18691 0.44237 0.2306 0.0
H4131 H 0.18827 0.41675 0.24566 0.0
H4132 H 0.15686 0.37659 0.23173 0.0
H4133 H 0.14539 0.39265 0.20968 0.0
C4134 C 0.15343 0.42371 0.20226 0.0
C4135 C 0.15887 0.4399 0.19979 0.0
C4136 C 0.16007 0.4142 0.21487 0.0
C4137 C 0.17102 0.44628 0.21032 0.0
C4138 C 0.17762 0.43695 0.22277 0.0
C4139 C 0.17889 0.41151 0.23781 0.0
C4140 C 0.17354 0.3954 0.24032 0.0
C4141 C 0.17227 0.42091 0.2252 0.0
C4142 C 0.16136 0.38886 0.23 0.0
C4143 C 0.15474 0.3981 0.2174 0.0
H4144 H 0.87281 0.90581 0.48804 0.0
H4145 H 0.89908 0.8587 0.48471 0.0
H4146 H 0.8862 0.85453 0.45883 0.0
H4147 H 0.86655 0.86416 0.43717 0.0
H4148 H 0.84015 0.91126 0.44158 0.0
H4149 H 0.85377 0.91538 0.46682 0.0
C4150 C 0.8757 0.89455 0.48172 0.0
C4151 C 0.88702 0.8826 0.48843 0.0
C4152 C 0.86804 0.89218 0.46694 0.0
C4153 C 0.89059 0.86818 0.4799 0.0
C4154 C 0.88312 0.86578 0.46507 0.0
C4155 C 0.8638 0.87534 0.44362 0.0
C4156 C 0.85197 0.88725 0.43735 0.0
C4157 C 0.87172 0.87768 0.45844 0.0
C4158 C 0.84875 0.90166 0.44606 0.0
C4159 C 0.85666 0.9041 0.46055 0.0
H4160 H 0.85641 0.09564 0.23721 0.0
H4161 H 0.90554 0.09329 0.2606 0.0
H4162 H 0.91885 0.08367 0.23682 0.0
H4163 H 0.91667 0.07753 0.20912 0.0
H4164 H 0.86746 0.07995 0.18564 0.0
H4165 H 0.85413 0.08865 0.20955 0.0
C4166 C 0.86996 0.09265 0.23713 0.0
C4167 C 0.88003 0.09495 0.25056 0.0
C4168 C 0.87755 0.08761 0.22333 0.0
C4169 C 0.8976 0.0914 0.25035 0.0
C4170 C 0.9052 0.08607 0.23675 0.0
C4171 C 0.903 0.07978 0.20924 0.0
C4172 C 0.89313 0.07807 0.19555 0.0
C4173 C 0.89534 0.0844 0.22311 0.0
C4174 C 0.87547 0.08143 0.1959 0.0
C4175 C 0.86776 0.08618 0.20964 0.0
H4176 H 0.40862 0.62557 0.55429 0.0
H4177 H 0.37032 0.61051 0.52097 0.0
H4178 H 0.34825 0.61516 0.53982 0.0
H4179 H 0.33935 0.62304 0.56593 0.0
H4180 H 0.37717 0.63811 0.59973 0.0
H4181 H 0.39945 0.6337 0.5809 0.0
C4182 C 0.39545 0.62337 0.55116 0.0
C4183 C 0.3913 0.6177 0.53604 0.0
C4184 C 0.38254 0.62594 0.56229 0.0
C4185 C 0.37406 0.61488 0.53238 0.0
C4186 C 0.36132 0.61752 0.54322 0.0
C4187 C 0.35241 0.62554 0.56924 0.0
C4188 C 0.35625 0.63094 0.5845 0.0
C4189 C 0.36534 0.62301 0.55824 0.0
C4190 C 0.37353 0.63373 0.58832 0.0
C4191 C 0.38641 0.6313 0.57743 0.0
H4192 H 0.1378 0.63958 0.3374 0.0
H4193 H 0.1822 0.60761 0.33354 0.0
H4194 H 0.17837 0.59786 0.35989 0.0
H4195 H 0.15997 0.59598 0.38188 0.0
H4196 H 0.11503 0.62756 0.3851 0.0
H4197 H 0.12271 0.64165 0.36162 0.0
C4198 C 0.14714 0.63115 0.34261 0.0
C4199 C 0.16044 0.62459 0.33377 0.0
C4200 C 0.14504 0.62599 0.35772 0.0
C4201 C 0.17188 0.61283 0.34022 0.0
C4202 C 0.16981 0.60745 0.35532 0.0
C4203 C 0.15222 0.60644 0.37796 0.0
C4204 C 0.13649 0.61021 0.38482 0.0
C4205 C 0.15616 0.61369 0.36399 0.0
C4206 C 0.12694 0.62414 0.37976 0.0
C4207 C 0.13116 0.63196 0.36619 0.0
H4208 H 0.37985 0.43126 0.81429 0.0
H4209 H 0.42193 0.39926 0.82919 0.0
H4210 H 0.41922 0.38338 0.80521 0.0
H4211 H 0.40511 0.37892 0.77931 0.0
H4212 H 0.36341 0.41168 0.76506 0.0
H4213 H 0.36619 0.42706 0.78906 0.0
C4214 C 0.38866 0.42098 0.81229 0.0
C4215 C 0.40119 0.41672 0.82367 0.0
C4216 C 0.38722 0.41203 0.79835 0.0
C4217 C 0.41204 0.40291 0.82084 0.0
C4218 C 0.4106 0.39385 0.80699 0.0
C4219 C 0.39675 0.38946 0.78144 0.0
C4220 C 0.38413 0.39411 0.77024 0.0
C4221 C 0.3983 0.39835 0.79555 0.0
C4222 C 0.37331 0.4078 0.77334 0.0
C4223 C 0.37483 0.41663 0.78714 0.0
H4224 H 0.02174 0.8665 0.60906 0.0
H4225 H 0.03578 0.88371 0.6547 0.0
H4226 H 1.01219 0.86914 0.66555 0.0
H4227 H 0.98759 0.85129 0.6621 0.0
H4228 H 0.97305 0.83478 0.61632 0.0
H4229 H 0.99659 0.84937 0.6055 0.0
C4230 C 0.01968 0.86693 0.62139 0.0
C4231 C 0.03059 0.87597 0.6311 0.0
C4232 C 1.00591 0.85873 0.62752 0.0
C4233 C 0.0276 0.87673 0.64701 0.0
C4234 C 1.0141 0.86842 0.65322 0.0
C4235 C 0.98962 0.85086 0.64977 0.0
C4236 C 0.97857 0.84192 0.64006 0.0
C4237 C 1.00318 0.85934 0.6436 0.0
C4238 C 0.98124 0.84169 0.62405 0.0
C4239 C 0.99478 0.84995 0.61786 0.0
H4240 H 0.87852 0.23099 0.37958 0.0
H4241 H 0.90241 0.21474 0.33775 0.0
H4242 H 0.9095 0.18789 0.34979 0.0
H4243 H 0.91049 0.17018 0.37316 0.0
H4244 H 0.8848 0.18709 0.41404 0.0
H4245 H 0.8763 0.21268 0.40113 0.0
C4246 C 0.885 0.22155 0.3729 0.0
C4247 C 0.88994 0.22483 0.35781 0.0
C4248 C 0.88866 0.20634 0.37975 0.0
C4249 C 0.8986 0.2125 0.34945 0.0
C4250 C 0.90255 0.19718 0.35632 0.0
C4251 C 0.90261 0.17927 0.37907 0.0
C4252 C 0.89852 0.17688 0.39466 0.0
C4253 C 0.89779 0.19406 0.37156 0.0
C4254 C 0.8884 0.1888 0.40218 0.0
C4255 C 0.8836 0.20344 0.39484 0.0
H4256 H 0.56574 0.15488 0.1576 0.0
H4257 H 0.53296 0.18874 0.13171 0.0
H4258 H 0.55612 0.20848 0.13127 0.0
H4259 H 0.58533 0.21668 0.14016 0.0
H4260 H 0.61742 0.18142 0.16542 0.0
H4261 H 0.59507 0.16153 0.16381 0.0
C4262 C 0.56371 0.16645 0.15157 0.0
C4263 C 0.54762 0.17036 0.14475 0.0
C4264 C 0.57702 0.17752 0.15131 0.0
C4265 C 0.54523 0.18541 0.137 0.0
C4266 C 0.55846 0.19671 0.13686 0.0
C4267 C 0.58744 0.20461 0.14523 0.0
C4268 C 0.60318 0.20067 0.15295 0.0
C4269 C 0.57434 0.19303 0.14429 0.0
C4270 C 0.60567 0.18485 0.15927 0.0
C4271 C 0.59279 0.17345 0.15847 0.0
H4272 H 0.56857 0.84881 0.90111 0.0
H4273 H 0.56985 0.85702 0.85198 0.0
H4274 H 0.58778 0.8323 0.849 0.0
H4275 H 0.60304 0.80749 0.85968 0.0
H4276 H 0.60336 0.79885 0.90867 0.0
H4277 H 0.58543 0.82399 0.91218 0.0
C4278 C 0.57281 0.84533 0.88972 0.0
C4279 C 0.56743 0.85539 0.87677 0.0
C4280 C 0.58362 0.83066 0.88798 0.0
C4281 C 0.57342 0.85009 0.86226 0.0
C4282 C 0.58381 0.8357 0.8605 0.0
C4283 C 0.59931 0.81102 0.87123 0.0
C4284 C 0.60483 0.80075 0.88387 0.0
C4285 C 0.58898 0.82577 0.87318 0.0
C4286 C 0.59963 0.80609 0.89862 0.0
C4287 C 0.5892 0.82063 0.90062 0.0
H4288 H 0.94125 0.21722 0.90058 0.0
H4289 H 0.95992 0.24758 0.86458 0.0
H4290 H 0.98546 0.22976 0.86295 0.0
H4291 H 1.0034 0.2053 0.87169 0.0
H4292 H 0.9837 0.17323 0.90577 0.0
H4293 H 0.95839 0.19146 0.90803 0.0
C4294 C 0.95087 0.22 0.89235 0.0
C4295 C 0.94827 0.23419 0.88278 0.0
C4296 C 0.96569 0.20914 0.89105 0.0
C4297 C 0.96114 0.23703 0.87214 0.0
C4298 C 0.97596 0.22673 0.8712 0.0
C4299 C 0.99357 0.20218 0.87958 0.0
C4300 C 0.99592 0.1876 0.88859 0.0
C4301 C 0.97851 0.21269 0.88057 0.0
C4302 C 0.98263 0.1841 0.8986 0.0
C4303 C 0.968 0.19468 0.89995 0.0
H4304 H 0.59726 0.20867 0.62249 0.0
H4305 H 0.58795 0.23615 0.66424 0.0
H4306 H 0.56842 0.21501 0.67247 0.0
H4307 H 0.55299 0.18847 0.66743 0.0
H4308 H 0.56204 0.16233 0.62486 0.0
H4309 H 0.58239 0.18278 0.61757 0.0
C4310 C 0.59097 0.21017 0.63342 0.0
C4311 C 0.59421 0.22435 0.6426 0.0
C4312 C 0.57959 0.19791 0.63804 0.0
C4313 C 0.58581 0.22565 0.65676 0.0
C4314 C 0.57459 0.21343 0.66151 0.0
C4315 C 0.55963 0.1871 0.65668 0.0
C4316 C 0.55603 0.17341 0.64687 0.0
C4317 C 0.57126 0.19943 0.65225 0.0
C4318 C 0.56456 0.17238 0.6328 0.0
C4319 C 0.57621 0.18422 0.62855 0.0
H4320 H 0.61637 0.8677 0.35883 0.0
H4321 H 0.60836 0.88018 0.4066 0.0
H4322 H 0.57746 0.87784 0.40232 0.0
H4323 H 0.55304 0.87166 0.38466 0.0
H4324 H 0.5621 0.861 0.33681 0.0
H4325 H 0.59268 0.8613 0.34182 0.0
C4326 C 0.60787 0.87042 0.36824 0.0
C4327 C 0.61451 0.87463 0.38289 0.0
C4328 C 0.59051 0.86832 0.36587 0.0
C4329 C 0.60339 0.87743 0.39511 0.0
C4330 C 0.58585 0.8757 0.39275 0.0
C4331 C 0.56177 0.86937 0.37547 0.0
C4332 C 0.55544 0.86707 0.36035 0.0
C4333 C 0.57932 0.8709 0.37819 0.0
C4334 C 0.56675 0.86315 0.34853 0.0
C4335 C 0.5842 0.86361 0.3513 0.0
H4336 H 0.91518 0.75465 0.14966 0.0
H4337 H 0.91028 0.73899 0.10214 0.0
H4338 H 0.92815 0.76127 0.09418 0.0
H4339 H 0.94212 0.78693 0.10038 0.0
H4340 H 0.94609 0.80354 0.14773 0.0
H4341 H 0.93133 0.77931 0.15614 0.0
C4342 C 0.91848 0.75589 0.13765 0.0
C4343 C 0.91164 0.74526 0.12646 0.0
C4344 C 0.92819 0.76909 0.13311 0.0
C4345 C 0.9156 0.74707 0.11089 0.0
C4346 C 0.92566 0.75985 0.10634 0.0
C4347 C 0.94009 0.78508 0.11257 0.0
C4348 C 0.94509 0.79703 0.12339 0.0
C4349 C 0.93157 0.77122 0.11729 0.0
C4350 C 0.9421 0.79461 0.13914 0.0
C4351 C 0.93378 0.78072 0.14397 0.0
H4352 H 0.6261 0.99523 0.85027 0.0
H4353 H 0.67016 0.0201 0.83511 0.0
H4354 H 0.67791 0.99652 0.81879 0.0
H4355 H 0.67611 0.96678 0.8144 0.0
H4356 H 0.63278 0.94131 0.83069 0.0
H4357 H 0.62124 0.96691 0.84148 0.0
C4358 C 0.63709 0.99568 0.84301 0.0
C4359 C 0.64776 1.00922 0.84411 0.0
C4360 C 0.64209 0.98164 0.83447 0.0
C4361 C 0.66183 1.00974 0.83451 0.0
C4362 C 0.66637 0.99617 0.82531 0.0
C4363 C 0.66389 0.96682 0.81988 0.0
C4364 C 0.65566 0.95189 0.82208 0.0
C4365 C 0.65725 0.98165 0.82608 0.0
C4366 C 0.63983 0.95239 0.82933 0.0
C4367 C 0.63309 0.9671 0.8354 0.0
H4368 H 0.80053 0.92644 0.6247 0.0
H4369 H 0.79849 0.87389 0.61783 0.0
H4370 H 0.82543 0.87352 0.60505 0.0
H4371 H 0.84869 0.8879 0.59415 0.0
H4372 H 0.85086 0.94059 0.59873 0.0
H4373 H 0.82525 0.94106 0.61427 0.0
C4374 C 0.80607 0.91498 0.62041 0.0
C4375 C 0.79735 0.90028 0.62206 0.0
C4376 C 0.82166 0.91482 0.61261 0.0
C4377 C 0.80473 0.88546 0.61653 0.0
C4378 C 0.82023 0.88517 0.60923 0.0
C4379 C 0.84354 0.89954 0.59844 0.0
C4380 C 0.85154 0.91418 0.595 0.0
C4381 C 0.82862 0.89978 0.60691 0.0
C4382 C 0.84497 0.92908 0.60117 0.0
C4383 C 0.83023 0.92938 0.60997 0.0
H4384 H 0.90012 0.02944 0.36268 0.0
H4385 H 0.8513 1.015 0.37847 0.0
H4386 H 0.83848 0.04145 0.37054 0.0
H4387 H 0.84083 0.06809 0.35804 0.0
H4388 H 0.88932 0.08218 0.34105 0.0
H4389 H 0.90272 0.0569 0.35119 0.0
C4390 C 0.88667 0.03212 0.36425 0.0
C4391 C 0.87659 0.02033 0.37094 0.0
C4392 C 0.87938 0.04739 0.35972 0.0
C4393 C 0.85925 0.02393 0.37324 0.0
C4394 C 0.85193 0.03905 0.36876 0.0
C4395 C 0.85433 0.06564 0.35656 0.0
C4396 C 0.86396 0.07694 0.34861 0.0
C4397 C 0.86184 0.0508 0.36186 0.0
C4398 C 0.88157 0.0738 0.34722 0.0
C4399 C 0.88923 0.0592 0.35282 0.0
H4400 H 0.69879 0.117 0.06298 0.0
H4401 H 0.68398 0.16834 0.06668 0.0
H4402 H 0.70272 0.17113 0.08955 0.0
H4403 H 0.72488 0.15939 0.10746 0.0
H4404 H 0.73794 0.1076 0.10536 0.0
H4405 H 0.71823 0.10445 0.0831 0.0
C4406 C 0.69957 0.12875 0.0689 0.0
C4407 C 0.69015 0.1425 0.06302 0.0
C4408 C 0.71008 0.13016 0.08233 0.0
C4409 C 0.69108 0.15758 0.07095 0.0
C4410 C 0.70185 0.15919 0.08401 0.0
C4411 C 0.72321 0.14737 0.10224 0.0
C4412 C 0.73297 0.13377 0.10793 0.0
C4413 C 0.71162 0.14563 0.08965 0.0
C4414 C 0.73056 0.11824 0.1012 0.0
C4415 C 0.71937 0.11647 0.08841 0.0
H4416 H 0.67088 0.08722 0.70696 0.0
H4417 H 0.61687 0.09186 0.7147 0.0
H4418 H 0.61136 0.07242 0.69381 0.0
H4419 H 0.62177 0.05292 0.67435 0.0
H4420 H 0.67539 0.04866 0.66546 0.0
H4421 H 0.68113 0.06945 0.68552 0.0
C4422 C 0.65787 0.08424 0.70393 0.0
C4423 C 0.64435 0.09089 0.71271 0.0
C4424 C 0.65472 0.07308 0.6917 0.0
C4425 C 0.6276 0.08669 0.70853 0.0
C4426 C 0.6244 0.07562 0.69648 0.0
C4427 C 0.63473 0.0566 0.67674 0.0
C4428 C 0.64818 0.04913 0.66859 0.0
C4429 C 0.63786 0.06851 0.6882 0.0
C4430 C 0.66484 0.05421 0.67162 0.0
C4431 C 0.6681 0.06605 0.68313 0.0
H4432 H 0.74501 0.88503 0.4019 0.0
H4433 H 0.74323 0.92795 0.37288 0.0
H4434 H 0.71872 0.9392 0.38663 0.0
H4435 H 0.69953 0.93793 0.40846 0.0
H4436 H 0.70105 0.89483 0.43727 0.0
H4437 H 0.72357 0.88233 0.42181 0.0
C4438 C 0.73917 0.89681 0.3986 0.0
C4439 C 0.746 0.90584 0.38668 0.0
C4440 C 0.72499 0.9031 0.40644 0.0
C4441 C 0.73821 0.92091 0.38219 0.0
C4442 C 0.72421 0.92733 0.39001 0.0
C4443 C 0.70465 0.9257 0.41116 0.0
C4444 C 0.69879 0.91736 0.42399 0.0
C4445 C 0.71774 0.91869 0.40237 0.0
C4446 C 0.70531 0.90144 0.42734 0.0
C4447 C 0.71831 0.89435 0.41863 0.0
H4448 H 0.90075 0.97449 0.15581 0.0
H4449 H 0.85038 0.98683 0.13761 0.0
H4450 H 0.84131 0.95897 0.14329 0.0
H4451 H 0.84751 0.93163 0.15491 0.0
H4452 H 0.89816 0.92013 0.17329 0.0
H4453 H 0.90746 0.94691 0.16544 0.0
C4454 C 0.88774 0.97113 0.15315 0.0
C4455 C 0.87617 0.9827 0.14644 0.0
C4456 C 0.88275 0.95516 0.1563 0.0
C4457 C 0.85949 0.97808 0.14278 0.0
C4458 C 0.85433 0.96218 0.14602 0.0
C4459 C 0.8606 0.93497 0.15715 0.0
C4460 C 0.87203 0.92386 0.16485 0.0
C4461 C 0.86582 0.95066 0.15296 0.0
C4462 C 0.88906 0.92827 0.16729 0.0
C4463 C 0.89438 0.94372 0.163 0.0
H4464 H 0.84477 0.10095 0.94033 0.0
H4465 H 0.87128 0.14474 0.92891 0.0
H4466 H 0.8447 0.15765 0.91919 0.0
H4467 H 0.81392 0.15669 0.91442 0.0
H4468 H 0.78793 0.11197 0.92288 0.0
H4469 H 0.81438 0.09916 0.93354 0.0
C4470 C 0.84482 0.11318 0.93543 0.0
C4471 C 0.85995 0.12193 0.9355 0.0
C4472 C 0.82957 0.12045 0.92968 0.0
C4473 C 0.85974 0.13786 0.92926 0.0
C4474 C 0.84457 0.14526 0.92371 0.0
C4475 C 0.81406 0.14423 0.91883 0.0
C4476 C 0.79912 0.13532 0.91835 0.0
C4477 C 0.82939 0.13677 0.92411 0.0
C4478 C 0.79937 0.11904 0.92353 0.0
C4479 C 0.81446 0.11172 0.92945 0.0
H4480 H 0.83788 0.60558 0.97234 0.0
H4481 H 0.83112 0.65178 0.99639 0.0
H4482 H 0.82575 0.66596 0.97183 0.0
H4483 H 0.82683 0.6656 0.9438 0.0
H4484 H 0.83161 0.61908 0.91953 0.0
H4485 H 0.83524 0.60482 0.94399 0.0
C4486 C 0.83469 0.61866 0.97219 0.0
C4487 C 0.8349 0.62772 0.98602 0.0
C4488 C 0.83209 0.62676 0.95803 0.0
C4489 C 0.83093 0.64465 0.98578 0.0
C4490 C 0.82808 0.65275 0.97177 0.0
C4491 C 0.82816 0.65231 0.9437 0.0
C4492 C 0.82902 0.64361 0.92962 0.0
C4493 C 0.82926 0.64401 0.95782 0.0
C4494 C 0.8314 0.62635 0.93003 0.0
C4495 C 0.83313 0.61805 0.94407 0.0
H4496 H 0.34365 0.90014 0.0309 0.0
H4497 H 0.31609 0.85781 0.01634 0.0
H4498 H 0.30578 0.85465 0.04245 0.0
H4499 H 0.31 0.86014 0.07002 0.0
H4500 H 0.34276 0.89901 0.08524 0.0
H4501 H 0.34641 0.90702 0.05841 0.0
C4502 C 0.33527 0.89043 0.03338 0.0
C4503 C 0.33111 0.87897 0.02187 0.0
C4504 C 0.33106 0.88763 0.04872 0.0
C4505 C 0.31946 0.86683 0.02507 0.0
C4506 C 0.31394 0.86477 0.04008 0.0
C4507 C 0.31815 0.87023 0.06751 0.0
C4508 C 0.32648 0.87867 0.07961 0.0
C4509 C 0.32068 0.87437 0.05213 0.0
C4510 C 0.33632 0.89221 0.07614 0.0
C4511 C 0.33838 0.89682 0.06081 0.0
H4512 H 0.89841 0.59348 0.8117 0.0
H4513 H 0.86537 0.61584 0.84534 0.0
H4514 H 0.85563 0.63666 0.82646 0.0
H4515 H 0.85597 0.64827 0.79979 0.0
H4516 H 0.88881 0.62493 0.7665 0.0
H4517 H 0.89927 0.60514 0.78578 0.0
C4518 C 0.88923 0.603 0.81502 0.0
C4519 C 0.88272 0.60299 0.83003 0.0
C4520 C 0.8836 0.6149 0.80407 0.0
C4521 C 0.87053 0.61534 0.83388 0.0
C4522 C 0.865 0.62735 0.82308 0.0
C4523 C 0.86553 0.63894 0.79686 0.0
C4524 C 0.87158 0.63811 0.78166 0.0
C4525 C 0.87137 0.62723 0.80806 0.0
C4526 C 0.88387 0.62584 0.77804 0.0
C4527 C 0.88987 0.61447 0.78908 0.0
H4528 H 0.13215 0.15733 0.54718 0.0
H4529 H 0.17563 0.14517 0.5197 0.0
H4530 H 0.19454 0.14766 0.54247 0.0
H4531 H 0.19881 0.15151 0.57071 0.0
H4532 H 0.15506 0.16229 0.59849 0.0
H4533 H 0.13653 0.16155 0.57549 0.0
C4534 C 0.14579 0.15563 0.54611 0.0
C4535 C 0.15242 0.15146 0.53153 0.0
C4536 C 0.15667 0.15647 0.55951 0.0
C4537 C 0.17014 0.14867 0.53063 0.0
C4538 C 0.181 0.14999 0.54372 0.0
C4539 C 0.18526 0.15401 0.57178 0.0
C4540 C 0.17858 0.15686 0.58662 0.0
C4541 C 0.17444 0.15364 0.55833 0.0
C4542 C 0.16081 0.15978 0.58747 0.0
C4543 C 0.15009 0.15957 0.5742 0.0
H4544 H 0.13574 0.93621 0.76854 0.0
H4545 H 0.18934 0.94162 0.77846 0.0
H4546 H 0.18332 0.95002 0.80489 0.0
H4547 H 0.16301 0.95508 0.82527 0.0
H4548 H 0.10915 0.95121 0.81527 0.0
H4549 H 0.11516 0.94187 0.78908 0.0
C4550 C 0.14604 0.93927 0.77654 0.0
C4551 C 0.16291 0.93821 0.77167 0.0
C4552 C 0.14249 0.94395 0.79177 0.0
C4553 C 0.17621 0.94248 0.78194 0.0
C4554 C 0.1728 0.94709 0.7971 0.0
C4555 C 0.15252 0.95239 0.81735 0.0
C4556 C 0.13564 0.95407 0.82224 0.0
C4557 C 0.15601 0.94773 0.80215 0.0
C4558 C 0.12229 0.94994 0.81191 0.0
C4559 C 0.12569 0.94483 0.79684 0.0
H4560 H 0.69089 0.38527 0.45617 0.0
H4561 H 0.66427 0.41308 0.42019 0.0
H4562 H 0.64097 0.41939 0.43759 0.0
H4563 H 0.62791 0.41735 0.46348 0.0
H4564 H 0.65489 0.3894 0.49913 0.0
H4565 H 0.67778 0.38271 0.48149 0.0
C4566 C 0.67996 0.39259 0.45199 0.0
C4567 C 0.67965 0.39868 0.4367 0.0
C4568 C 0.66644 0.39618 0.46212 0.0
C4569 C 0.66527 0.40837 0.43186 0.0
C4570 C 0.65177 0.41193 0.44183 0.0
C4571 C 0.63875 0.40971 0.46735 0.0
C4572 C 0.63956 0.40392 0.48275 0.0
C4573 C 0.65217 0.40596 0.45705 0.0
C4574 C 0.65383 0.39409 0.48745 0.0
C4575 C 0.66701 0.39025 0.47733 0.0
H4576 H 0.89766 0.44638 0.65198 0.0
H4577 H 0.86767 0.41434 0.62318 0.0
H4578 H 0.85524 0.40278 0.64635 0.0
H4579 H 0.85457 0.40086 0.67508 0.0
H4580 H 0.88377 0.4346 0.70293 0.0
H4581 H 0.89522 0.4463 0.67973 0.0
C4582 C 0.88885 0.43641 0.65079 0.0
C4583 C 0.88419 0.43053 0.63604 0.0
C4584 C 0.88178 0.43012 0.66396 0.0
C4585 C 0.87195 0.41845 0.63452 0.0
C4586 C 0.8649 0.4119 0.64774 0.0
C4587 C 0.86339 0.41082 0.67597 0.0
C4588 C 0.86858 0.41676 0.6906 0.0
C4589 C 0.86991 0.41751 0.66254 0.0
C4590 C 0.87971 0.42983 0.69176 0.0
C4591 C 0.88634 0.43642 0.67854 0.0
H4592 H 0.65788 0.61365 0.20325 0.0
H4593 H 0.60438 0.62742 0.20279 0.0
H4594 H 0.60798 0.64076 0.22797 0.0
H4595 H 0.62631 0.64797 0.25078 0.0
H4596 H 0.67949 0.63313 0.25113 0.0
H4597 H 0.67593 0.62061 0.22568 0.0
C4598 C 0.64692 0.61939 0.20867 0.0
C4599 C 0.63086 0.61936 0.20098 0.0
C4600 C 0.64899 0.62682 0.22332 0.0
C4601 C 0.61697 0.62731 0.20821 0.0
C4602 C 0.61897 0.63484 0.22275 0.0
C4603 C 0.63708 0.64201 0.24524 0.0
C4604 C 0.65314 0.6415 0.2529 0.0
C4605 C 0.63491 0.63459 0.2305 0.0
C4606 C 0.66696 0.63363 0.24559 0.0
C4607 C 0.66495 0.62649 0.23097 0.0
H4608 H 0.50641 0.64986 0.87229 0.0
H4609 H 0.50228 0.67208 0.91743 0.0
H4610 H 0.52586 0.68982 0.91218 0.0
H4611 H 0.54775 0.69899 0.89485 0.0
H4612 H 0.5528 0.67607 0.85006 0.0
H4613 H 0.52889 0.65863 0.85511 0.0
C4614 C 0.51074 0.65855 0.88097 0.0
C4615 C 0.50264 0.65964 0.89523 0.0
C4616 C 0.52451 0.66857 0.87796 0.0
C4617 C 0.50825 0.67106 0.90633 0.0
C4618 C 0.52179 0.68117 0.90337 0.0
C4619 C 0.54378 0.69005 0.88625 0.0
C4620 C 0.5521 0.6889 0.87209 0.0
C4621 C 0.53007 0.67998 0.88926 0.0
C4622 C 0.54652 0.67741 0.86099 0.0
C4623 C 0.53288 0.66736 0.86389 0.0
H4624 H 0.66338 0.361 0.11334 0.0
H4625 H 0.62989 0.37759 0.14917 0.0
H4626 H 0.63807 0.35354 0.16472 0.0
H4627 H 0.65106 0.32529 0.16598 0.0
H4628 H 0.68294 0.30864 0.12886 0.0
H4629 H 0.67884 0.33477 0.11597 0.0
C4630 C 0.65819 0.3595 0.12471 0.0
C4631 C 0.64595 0.37089 0.13001 0.0
C4632 C 0.66223 0.34526 0.13318 0.0
C4633 C 0.63948 0.36903 0.14487 0.0
C4634 C 0.64391 0.3551 0.15366 0.0
C4635 C 0.65714 0.3275 0.15514 0.0
C4636 C 0.66703 0.31495 0.14829 0.0
C4637 C 0.65462 0.34271 0.14758 0.0
C4638 C 0.6751 0.318 0.13435 0.0
C4639 C 0.67279 0.33299 0.1269 0.0
H4640 H 0.96487 0.313 0.35351 0.0
H4641 H 0.92905 0.35219 0.36496 0.0
H4642 H 0.95232 0.36868 0.37519 0.0
H4643 H 0.98303 0.3726 0.37947 0.0
H4644 H 0.01899 0.33437 0.36608 0.0
H4645 H 0.99554 0.31662 0.35861 0.0
C4646 C 0.96213 0.32505 0.35844 0.0
C4647 C 0.94521 0.33134 0.35841 0.0
C4648 C 0.97564 0.33459 0.36409 0.0
C4649 C 0.94195 0.3471 0.36466 0.0
C4650 C 0.95526 0.35651 0.3706 0.0
C4651 C 0.98575 0.36032 0.37513 0.0
C4652 C 1.00277 0.35483 0.37333 0.0
C4653 C 0.97218 0.35048 0.37019 0.0
C4654 C 1.00602 0.33887 0.36762 0.0
C4655 C 0.9926 0.32876 0.36323 0.0
H4656 H 0.97635 0.69345 0.62299 0.0
H4657 H 0.94901 0.67047 0.65897 0.0
H4658 H 0.9288 0.6941 0.65944 0.0
H4659 H 0.91842 0.72228 0.64993 0.0
H4660 H 0.94715 0.74569 0.61511 0.0
H4661 H 0.96651 0.72159 0.614 0.0
C4662 C 0.96595 0.69344 0.63094 0.0
C4663 C 0.96457 0.67954 0.64088 0.0
C4664 C 0.95426 0.70756 0.6314 0.0
C4665 C 0.95082 0.68051 0.6511 0.0
C4666 C 0.93907 0.69423 0.65137 0.0
C4667 C 0.92883 0.72217 0.64199 0.0
C4668 C 0.93083 0.73634 0.63247 0.0
C4669 C 0.94055 0.70799 0.64162 0.0
C4670 C 0.94484 0.73541 0.62257 0.0
C4671 C 0.95611 0.72143 0.62193 0.0
H4672 H 0.54534 0.34819 0.6507 0.0
H4673 H 0.52847 0.33257 0.60521 0.0
H4674 H 0.5506 0.31117 0.60506 0.0
H4675 H 0.57573 0.29657 0.61695 0.0
H4676 H 0.59347 0.31105 0.66235 0.0
H4677 H 0.57075 0.33249 0.66324 0.0
C4678 C 0.54629 0.34 0.64084 0.0
C4679 C 0.53464 0.34244 0.62796 0.0
C4680 C 0.55964 0.32725 0.64065 0.0
C4681 C 0.5368 0.33146 0.61536 0.0
C4682 C 0.54968 0.31901 0.61519 0.0
C4683 C 0.57473 0.30433 0.62712 0.0
C4684 C 0.58677 0.30181 0.63955 0.0
C4685 C 0.56136 0.31678 0.62763 0.0
C4686 C 0.58473 0.31233 0.65251 0.0
C4687 C 0.57155 0.32475 0.65304 0.0
H4688 H 0.93261 0.31791 0.86163 0.0
H4689 H 0.95537 0.30231 0.90514 0.0
H4690 H 0.97624 0.32386 0.90371 0.0
H4691 H 0.98784 0.34829 0.89079 0.0
H4692 H 0.9654 0.36419 0.84721 0.0
H4693 H 0.94514 0.34194 0.84804 0.0
C4694 C 0.94243 0.31889 0.8706 0.0
C4695 C 0.94247 0.30779 0.88332 0.0
C4696 C 0.95452 0.33181 0.86984 0.0
C4697 C 0.95505 0.31009 0.89502 0.0
C4698 C 0.96701 0.32266 0.89428 0.0
C4699 C 0.97857 0.34698 0.8814 0.0
C4700 C 0.97845 0.35839 0.86894 0.0
C4701 C 0.96683 0.33381 0.88186 0.0
C4702 C 0.96612 0.35596 0.857 0.0
C4703 C 0.9544 0.34306 0.85747 0.0
H4704 H 0.92857 0.68685 0.16412 0.0
H4705 H 0.92238 0.65774 0.1225 0.0
H4706 H 0.9527 0.65932 0.11792 0.0
H4707 H 0.98126 0.66541 0.12768 0.0
H4708 H 0.98791 0.69 0.17148 0.0
H4709 H 0.95709 0.69466 0.17287 0.0
C4710 C 0.93382 0.68055 0.15417 0.0
C4711 C 0.92317 0.67178 0.14391 0.0
C4712 C 0.95134 0.68106 0.15184 0.0
C4713 C 0.93019 0.6645 0.13066 0.0
C4714 C 0.94755 0.66541 0.12801 0.0
C4715 C 0.97592 0.67214 0.13731 0.0
C4716 C 0.98669 0.67691 0.14963 0.0
C4717 C 0.95826 0.67327 0.13874 0.0
C4718 C 0.97985 0.68611 0.16188 0.0
C4719 C 0.96221 0.68841 0.16284 0.0
H4720 H 0.60519 0.7384 0.42836 0.0
H4721 H 0.59344 0.72476 0.3811 0.0
H4722 H 0.60571 0.75002 0.37205 0.0
H4723 H 0.6212 0.77508 0.37754 0.0
H4724 H 0.63392 0.78825 0.42467 0.0
H4725 H 0.61923 0.7643 0.43393 0.0
C4726 C 0.60511 0.74109 0.4161 0.0
C4727 C 0.59858 0.72975 0.4054 0.0
C4728 C 0.61215 0.75559 0.41101 0.0
C4729 C 0.59871 0.73323 0.38953 0.0
C4730 C 0.60557 0.7477 0.38436 0.0
C4731 C 0.62037 0.77288 0.38984 0.0
C4732 C 0.62845 0.78328 0.40048 0.0
C4733 C 0.61248 0.75886 0.39499 0.0
C4734 C 0.62763 0.7803 0.41636 0.0
C4735 C 0.61938 0.7666 0.42162 0.0
H4736 H 0.85164 0.57177 0.70943 0.0
H4737 H 0.89126 0.60044 0.69062 0.0
H4738 H 0.90459 0.5755 0.67978 0.0
H4739 H 0.90267 0.54622 0.67272 0.0
H4740 H 0.86165 0.51821 0.68975 0.0
H4741 H 0.85176 0.54191 0.70501 0.0
C4742 C 0.86339 0.57252 0.70323 0.0
C4743 C 0.8703 0.58798 0.70065 0.0
C4744 C 0.87084 0.55816 0.69687 0.0
C4745 C 0.88548 0.58874 0.6925 0.0
C4746 C 0.89321 0.57446 0.68643 0.0
C4747 C 0.89183 0.54521 0.68008 0.0
C4748 C 0.88272 0.53061 0.67998 0.0
C4749 C 0.88568 0.55917 0.6881 0.0
C4750 C 0.86879 0.52938 0.68965 0.0
C4751 C 0.86305 0.54298 0.69823 0.0
H4752 H 0.7361 0.61306 0.89661 0.0
H4753 H 0.74644 0.66072 0.91622 0.0
H4754 H 0.72201 0.65909 0.93261 0.0
H4755 H 0.69668 0.64526 0.94024 0.0
H4756 H 0.68539 0.59766 0.92105 0.0
H4757 H 0.71099 0.59822 0.90557 0.0
C4758 C 0.73308 0.62294 0.90461 0.0
C4759 C 0.743 0.63704 0.90506 0.0
C4760 C 0.71871 0.62206 0.91397 0.0
C4761 C 0.73899 0.64975 0.91555 0.0
C4762 C 0.72495 0.64889 0.92491 0.0
C4763 C 0.6999 0.63486 0.93285 0.0
C4764 C 0.68913 0.62142 0.9319 0.0
C4765 C 0.71455 0.63527 0.92402 0.0
C4766 C 0.69338 0.60824 0.92196 0.0
C4767 C 0.7081 0.60849 0.91319 0.0
H4768 H 0.63532 0.50415 0.14947 0.0
H4769 H 0.682 0.52979 0.15659 0.0
H4770 H 0.69568 0.50517 0.16821 0.0
H4771 H 0.69387 0.47695 0.17693 0.0
H4772 H 0.64909 0.44957 0.16442 0.0
H4773 H 0.63505 0.47445 0.15479 0.0
C4774 C 0.64844 0.50429 0.15372 0.0
C4775 C 0.65762 0.51868 0.15257 0.0
C4776 C 0.65647 0.48988 0.15956 0.0
C4777 C 0.67474 0.51876 0.15756 0.0
C4778 C 0.68253 0.50472 0.16413 0.0
C4779 C 0.68125 0.47602 0.17177 0.0
C4780 C 0.67257 0.46111 0.17215 0.0
C4781 C 0.67351 0.49019 0.16517 0.0
C4782 C 0.65604 0.46079 0.16531 0.0
C4783 C 0.64792 0.47507 0.15954 0.0
H4784 H 0.82757 0.40905 0.46499 0.0
H4785 H 0.8552 0.36692 0.44667 0.0
H4786 H 0.83922 0.37004 0.42198 0.0
H4787 H 0.81579 0.38384 0.4062 0.0
H4788 H 0.78795 0.42513 0.4258 0.0
H4789 H 0.80579 0.42336 0.44928 0.0
C4790 C 0.83022 0.40048 0.45565 0.0
C4791 C 0.84251 0.38761 0.45785 0.0
C4792 C 0.82093 0.40228 0.44163 0.0
C4793 C 0.84578 0.37687 0.44541 0.0
C4794 C 0.83662 0.37866 0.43127 0.0
C4795 C 0.81389 0.39262 0.41552 0.0
C4796 C 0.80057 0.40468 0.41425 0.0
C4797 C 0.82398 0.39122 0.4293 0.0
C4798 C 0.79811 0.4158 0.42649 0.0
C4799 C 0.80826 0.41474 0.43995 0.0
H4800 H 0.84867 0.4487 0.81558 0.0
H4801 H 0.89898 0.44669 0.7967 0.0
H4802 H 0.90854 0.46652 0.81599 0.0
H4803 H 0.90276 0.48473 0.83818 0.0
H4804 H 0.85289 0.48629 0.85769 0.0
H4805 H 0.84319 0.46614 0.83848 0.0
C4806 C 0.86179 0.45242 0.81575 0.0
C4807 C 0.87297 0.44619 0.80446 0.0
C4808 C 0.86734 0.46377 0.82708 0.0
C4809 C 0.88989 0.45143 0.80491 0.0
C4810 C 0.89545 0.46273 0.81606 0.0
C4811 C 0.88976 0.48065 0.83823 0.0
C4812 C 0.87855 0.48704 0.84933 0.0
C4813 C 0.88429 0.46906 0.82715 0.0
C4814 C 0.86179 0.48154 0.8493 0.0
C4815 C 0.85623 0.47004 0.83828 0.0
H4816 H 0.83155 0.6307 0.08761 0.0
H4817 H 0.83112 0.58282 0.1086 0.0
H4818 H 0.81183 0.59354 0.1283 0.0
H4819 H 0.79328 0.61607 0.13822 0.0
H4820 H 0.79209 0.66324 0.11574 0.0
H4821 H 0.814 0.6534 0.09809 0.0
C4822 C 0.82747 0.6227 0.09667 0.0
C4823 C 0.83276 0.60601 0.09671 0.0
C4824 C 0.81601 0.62883 0.10762 0.0
C4825 C 0.82715 0.5957 0.10834 0.0
C4826 C 0.81613 0.60182 0.11957 0.0
C4827 C 0.79799 0.6242 0.12956 0.0
C4828 C 0.79109 0.64031 0.12818 0.0
C4829 C 0.81019 0.61828 0.11913 0.0
C4830 C 0.79717 0.65075 0.1169 0.0
C4831 C 0.80968 0.64513 0.10682 0.0
H4832 H 0.66111 0.59091 0.33361 0.0
H4833 H 0.70149 0.60194 0.3664 0.0
H4834 H 0.69676 0.57625 0.3801 0.0
H4835 H 0.68038 0.55079 0.38299 0.0
H4836 H 0.63912 0.54145 0.35054 0.0
H4837 H 0.64545 0.56591 0.33611 0.0
C4838 C 0.66911 0.58759 0.34359 0.0
C4839 C 0.68175 0.59825 0.34885 0.0
C4840 C 0.66625 0.57297 0.3514 0.0
C4841 C 0.69164 0.59396 0.36211 0.0
C4842 C 0.689 0.57924 0.3699 0.0
C4843 C 0.67293 0.5541 0.3727 0.0
C4844 C 0.65925 0.5444 0.3679 0.0
C4845 C 0.67626 0.56864 0.36468 0.0
C4846 C 0.64968 0.54875 0.35451 0.0
C4847 C 0.65322 0.56279 0.34627 0.0
H4848 H 0.68945 0.43202 0.57876 0.0
H4849 H 0.66689 0.38435 0.5793 0.0
H4850 H 0.6925 0.37262 0.59211 0.0
H4851 H 0.7211 0.37606 0.60376 0.0
H4852 H 0.74248 0.42416 0.60521 0.0
H4853 H 0.71756 0.43562 0.59095 0.0
C4854 C 0.69002 0.41912 0.58187 0.0
C4855 C 0.67627 0.4091 0.57805 0.0
C4856 C 0.70466 0.4125 0.58941 0.0
C4857 C 0.67737 0.39232 0.58193 0.0
C4858 C 0.692 0.38559 0.58928 0.0
C4859 C 0.72038 0.38896 0.60064 0.0
C4860 C 0.73362 0.39926 0.60514 0.0
C4861 C 0.70574 0.39555 0.59302 0.0
C4862 C 0.73245 0.41605 0.60157 0.0
C4863 C 0.71818 0.42259 0.59355 0.0
H4864 H 0.70606 0.87684 0.58239 0.0
H4865 H 0.68362 0.92168 0.6013 0.0
H4866 H 0.6816 0.93346 0.57561 0.0
H4867 H 0.68542 0.93081 0.5477 0.0
H4868 H 0.70185 0.88413 0.52856 0.0
H4869 H 0.70744 0.87331 0.55462 0.0
C4870 C 0.70024 0.88901 0.58107 0.0
C4871 C 0.69512 0.89825 0.59407 0.0
C4872 C 0.6984 0.89551 0.5662 0.0
C4873 C 0.68818 0.91428 0.59176 0.0
C4874 C 0.68691 0.92107 0.577 0.0
C4875 C 0.69028 0.9183 0.54928 0.0
C4876 C 0.69328 0.90822 0.53639 0.0
C4877 C 0.69205 0.91181 0.56418 0.0
C4878 C 0.69966 0.89208 0.53844 0.0
C4879 C 0.70262 0.88587 0.55328 0.0
H4880 H 0.21691 0.64632 0.45142 0.0
H4881 H 0.19072 0.69021 0.43354 0.0
H4882 H 0.18022 0.69633 0.45895 0.0
H4883 H 0.18025 0.69078 0.48646 0.0
H4884 H 0.21026 0.65005 0.50545 0.0
H4885 H 0.21894 0.64205 0.47933 0.0
C4886 C 0.20937 0.65755 0.45296 0.0
C4887 C 0.20518 0.66794 0.44028 0.0
C4888 C 0.20453 0.66191 0.46791 0.0
C4889 C 0.19426 0.68175 0.44273 0.0
C4890 C 0.18847 0.68554 0.45743 0.0
C4891 C 0.18891 0.68027 0.48499 0.0
C4892 C 0.1942 0.67059 0.49777 0.0
C4893 C 0.19397 0.676 0.47013 0.0
C4894 C 0.20559 0.65724 0.49565 0.0
C4895 C 0.2105 0.65272 0.48077 0.0
H4896 H 0.65531 0.88623 0.72636 0.0
H4897 H 0.68643 0.92258 0.74874 0.0
H4898 H 0.67992 0.94181 0.72789 0.0
H4899 H 0.66474 0.94905 0.70383 0.0
H4900 H 0.63254 0.91373 0.68126 0.0
H4901 H 0.64048 0.89346 0.70117 0.0
C4902 C 0.6608 0.89828 0.72653 0.0
C4903 C 0.67136 0.90289 0.7392 0.0
C4904 C 0.6568 0.90959 0.71441 0.0
C4905 C 0.67821 0.91866 0.73926 0.0
C4906 C 0.67449 0.92973 0.72729 0.0
C4907 C 0.65925 0.93701 0.70326 0.0
C4908 C 0.64784 0.93319 0.69099 0.0
C4909 C 0.66362 0.92547 0.71493 0.0
C4910 C 0.64141 0.91719 0.69041 0.0
C4911 C 0.64586 0.90555 0.70192 0.0
H4912 H 0.3418 0.39373 0.94979 0.0
H4913 H 0.37894 0.3623 0.92729 0.0
H4914 H 0.3963 0.3611 0.9511 0.0
H4915 H 0.40186 0.36993 0.97862 0.0
H4916 H 0.36422 0.40123 1.00047 0.0
H4917 H 0.34643 0.40117 0.97705 0.0
C4918 C 0.35354 0.38638 0.95001 0.0
C4919 C 0.35878 0.37819 0.93637 0.0
C4920 C 0.36363 0.38567 0.96389 0.0
C4921 C 0.37441 0.36906 0.93725 0.0
C4922 C 0.38444 0.36826 0.95103 0.0
C4923 C 0.38963 0.37643 0.97837 0.0
C4924 C 0.38446 0.38543 0.9916 0.0
C4925 C 0.37931 0.37662 0.96448 0.0
C4926 C 0.36864 0.39409 0.99068 0.0
C4927 C 0.35839 0.39415 0.97717 0.0
H4928 H 0.41469 0.58174 0.70943 0.0
H4929 H 0.36586 0.58526 0.6853 0.0
H4930 H 0.35221 0.59343 0.70919 0.0
H4931 H 0.35401 0.59909 0.737 0.0
H4932 H 0.40262 0.59557 0.76124 0.0
H4933 H 0.41642 0.58695 0.73734 0.0
C4934 C 0.40104 0.58414 0.70941 0.0
C4935 C 0.39135 0.58285 0.69556 0.0
C4936 C 0.39317 0.58837 0.72327 0.0
C4937 C 0.37372 0.58641 0.6957 0.0
C4938 C 0.36583 0.59084 0.70941 0.0
C4939 C 0.36757 0.59613 0.73708 0.0
C4940 C 0.37736 0.5978 0.75076 0.0
C4941 C 0.3754 0.59166 0.72327 0.0
C4942 C 0.39492 0.5942 0.75077 0.0
C4943 C 0.40278 0.58944 0.73712 0.0
H4944 H 0.871 0.11129 0.02793 0.0
H4945 H 0.91572 0.13056 0.05033 0.0
H4946 H 0.89915 0.1379 0.07318 0.0
H4947 H 0.87172 0.13874 0.08696 0.0
H4948 H 0.82715 0.11928 0.06406 0.0
H4949 H 0.84381 0.11203 0.0416 0.0
C4950 C 0.87714 0.11713 0.0378 0.0
C4951 C 0.89466 0.12044 0.03732 0.0
C4952 C 0.8675 0.12122 0.05096 0.0
C4953 C 0.90232 0.12792 0.05032 0.0
C4954 C 0.89281 0.1321 0.06341 0.0
C4955 C 0.86557 0.133 0.07705 0.0
C4956 C 0.848 0.12953 0.07751 0.0
C4957 C 0.87534 0.12883 0.06391 0.0
C4958 C 0.84057 0.12189 0.06442 0.0
C4959 C 0.85012 0.11782 0.05141 0.0
H4960 H 0.63774 0.13695 0.8455 0.0
H4961 H 0.68465 0.10985 0.83738 0.0
H4962 H 0.68537 0.10017 0.86417 0.0
H4963 H 0.66995 0.09624 0.88786 0.0
H4964 H 0.62373 0.12465 0.89624 0.0
H4965 H 0.62565 0.1375 0.87108 0.0
C4966 C 0.64846 0.12947 0.84974 0.0
C4967 C 0.66108 0.1241 0.83957 0.0
C4968 C 0.64887 0.12426 0.86506 0.0
C4969 C 0.67469 0.11398 0.84504 0.0
C4970 C 0.67515 0.10857 0.86034 0.0
C4971 C 0.66078 0.1059 0.88473 0.0
C4972 C 0.64629 0.1089 0.89373 0.0
C4973 C 0.662 0.11328 0.87029 0.0
C4974 C 0.63465 0.1216 0.8893 0.0
C4975 C 0.63572 0.12895 0.8749 0.0
H4976 H 0.90934 0.88425 0.27104 0.0
H4977 H 0.85618 0.8992 0.26826 0.0
H4978 H 0.85849 0.91229 0.29351 0.0
H4979 H 0.87544 0.91998 0.31637 0.0
H4980 H 0.92884 0.90598 0.31943 0.0
H4981 H 0.92649 0.89189 0.29449 0.0
C4982 C 0.8983 0.89034 0.27602 0.0
C4983 C 0.88263 0.89075 0.26769 0.0
C4984 C 0.89972 0.89809 0.29068 0.0
C4985 C 0.86845 0.89878 0.2743 0.0
C4986 C 0.86972 0.90627 0.28881 0.0
C4987 C 0.88665 0.914 0.31157 0.0
C4988 C 0.90231 0.91422 0.31989 0.0
C4989 C 0.88529 0.90611 0.29708 0.0
C4990 C 0.91654 0.90597 0.31349 0.0
C4991 C 0.91526 0.89799 0.2991 0.0
H4992 H 0.52236 0.3708 0.10762 0.0
H4993 H 0.53474 0.38732 0.15388 0.0
H4994 H 0.51001 0.37358 0.16359 0.0
H4995 H 0.48534 0.35632 0.15899 0.0
H4996 H 0.47329 0.3393 0.11277 0.0
H4997 H 0.49719 0.35411 0.10292 0.0
C4998 C 0.51968 0.37128 0.11984 0.0
C4999 C 0.53038 0.37989 0.13008 0.0
C5000 C 0.50543 0.3634 0.12531 0.0
C5001 C 0.52666 0.38069 0.14582 0.0
C5002 C 0.51254 0.37286 0.15137 0.0
C5003 C 0.48798 0.3558 0.14677 0.0
C5004 C 0.4776 0.34662 0.13667 0.0
C5005 C 0.50191 0.3641 0.14122 0.0
C5006 C 0.48097 0.34638 0.1208 0.0
C5007 C 0.49474 0.35472 0.11517 0.0
H5008 H 0.40568 0.67021 0.87277 0.0
H5009 H 0.37365 0.67859 0.91194 0.0
H5010 H 0.36303 0.70453 0.9008 0.0
H5011 H 0.36449 0.72561 0.88109 0.0
H5012 H 0.39685 0.71797 0.84213 0.0
H5013 H 0.40546 0.69057 0.85189 0.0
C5014 C 0.39599 0.67744 0.87866 0.0
C5015 C 0.39049 0.67247 0.89322 0.0
C5016 C 0.39013 0.69247 0.8723 0.0
C5017 C 0.3782 0.6822 0.90082 0.0
C5018 C 0.37218 0.69706 0.89449 0.0
C5019 C 0.37338 0.71794 0.87467 0.0
C5020 C 0.38023 0.72381 0.86104 0.0
C5021 C 0.37836 0.70246 0.88044 0.0
C5022 C 0.39157 0.7137 0.85275 0.0
C5023 C 0.39644 0.69808 0.85832 0.0
H5024 H 0.05228 0.66085 0.64161 0.0
H5025 H 1.01759 0.69656 0.6617 0.0
H5026 H 0.04139 0.7141 0.66856 0.0
H5027 H 0.07233 0.71822 0.67089 0.0
H5028 H 0.10712 0.68166 0.65214 0.0
H5029 H 0.08316 0.66542 0.6431 0.0
C5030 C 0.04988 0.67255 0.64731 0.0
C5031 C 0.0331 0.67735 0.65115 0.0
C5032 C 0.06375 0.68232 0.65175 0.0
C5033 C 0.03033 0.69257 0.65858 0.0
C5034 C 0.04398 0.70257 0.6626 0.0
C5035 C 0.07469 0.70682 0.66463 0.0
C5036 C 0.09162 0.70121 0.66229 0.0
C5037 C 0.06079 0.69741 0.65956 0.0
C5038 C 0.09431 0.68624 0.65432 0.0
C5039 C 0.08058 0.67696 0.64905 0.0
H5040 H 0.08714 0.29271 0.39877 0.0
H5041 H 0.12899 0.30848 0.37215 0.0
H5042 H 0.11454 0.3354 0.36825 0.0
H5043 H 0.08933 0.35531 0.37211 0.0
H5044 H 0.0487 0.33954 0.40037 0.0
H5045 H 0.06299 0.31273 0.40367 0.0
C5046 C 0.09324 0.30199 0.39214 0.0
C5047 C 0.10944 0.298 0.38578 0.0
C5048 C 0.08482 0.31792 0.3901 0.0
C5049 C 0.11673 0.31069 0.37731 0.0
C5050 C 0.10833 0.3263 0.37501 0.0
C5051 C 0.08352 0.34607 0.379 0.0
C5052 C 0.06752 0.35005 0.38591 0.0
C5053 C 0.09225 0.33021 0.38127 0.0
C5054 C 0.06078 0.33744 0.39487 0.0
C5055 C 0.06905 0.32182 0.39678 0.0
H5056 H 0.49939 0.69136 0.37134 0.0
H5057 H 0.49307 0.68201 0.41985 0.0
H5058 H 0.46943 0.70173 0.42044 0.0
H5059 H 0.45009 0.72252 0.40803 0.0
H5060 H 0.45487 0.73267 0.35966 0.0
H5061 H 0.47871 0.71238 0.35837 0.0
C5062 C 0.49284 0.69353 0.38204 0.0
C5063 C 0.49868 0.6848 0.39561 0.0
C5064 C 0.47861 0.70538 0.38245 0.0
C5065 C 0.4895 0.68824 0.40916 0.0
C5066 C 0.47571 0.6997 0.40958 0.0
C5067 C 0.45622 0.72037 0.39711 0.0
C5068 C 0.45024 0.72951 0.38397 0.0
C5069 C 0.47011 0.70849 0.39641 0.0
C5070 C 0.45879 0.7261 0.37007 0.0
C5071 C 0.47262 0.71436 0.36933 0.0
H5072 H 0.04785 0.6887 0.12664 0.0
H5073 H 0.07292 0.67089 0.16843 0.0
H5074 H 0.09324 0.69302 0.16739 0.0
H5075 H 0.10423 0.71825 0.15481 0.0
H5076 H 0.07769 0.73707 0.11408 0.0
H5077 H 0.05817 0.71434 0.11462 0.0
C5078 C 0.0578 0.68952 0.1355 0.0
C5079 C 0.05865 0.67764 0.14756 0.0
C5080 C 0.06941 0.70283 0.1351 0.0
C5081 C 0.07169 0.67951 0.15895 0.0
C5082 C 0.08344 0.69232 0.15837 0.0
C5083 C 0.09417 0.71746 0.14604 0.0
C5084 C 0.09277 0.72976 0.13435 0.0
C5085 C 0.08247 0.70421 0.14655 0.0
C5086 C 0.07939 0.72813 0.12326 0.0
C5087 C 0.06809 0.71495 0.12353 0.0
H5088 H 0.11445 0.36559 0.868 0.0
H5089 H 0.10386 0.38219 0.91417 0.0
H5090 H 0.07304 0.3811 0.90822 0.0
H5091 H 0.04939 0.37573 0.88919 0.0
H5092 H 0.06174 0.3574 0.84385 0.0
H5093 H 0.09189 0.35738 0.8507 0.0
C5094 C 0.1054 0.36945 0.87666 0.0
C5095 C 0.11125 0.3747 0.89124 0.0
C5096 C 0.08815 0.36758 0.87356 0.0
C5097 C 0.09949 0.37882 0.90264 0.0
C5098 C 0.08198 0.37781 0.89935 0.0
C5099 C 0.05871 0.37126 0.88105 0.0
C5100 C 0.05353 0.36703 0.8659 0.0
C5101 C 0.07617 0.37203 0.88484 0.0
C5102 C 0.06557 0.3609 0.85551 0.0
C5103 C 0.08278 0.36122 0.85929 0.0
H5104 H 0.40846 0.24388 0.60908 0.0
H5105 H 0.41816 0.24984 0.65801 0.0
H5106 H 0.43633 0.27297 0.65315 0.0
H5107 H 0.44644 0.29347 0.6352 0.0
H5108 H 0.43417 0.28909 0.58646 0.0
H5109 H 0.42012 0.26334 0.59098 0.0
C5110 C 0.41483 0.25009 0.61863 0.0
C5111 C 0.41183 0.24542 0.63385 0.0
C5112 C 0.42461 0.26378 0.61578 0.0
C5113 C 0.42025 0.25332 0.64618 0.0
C5114 C 0.4305 0.26663 0.64341 0.0
C5115 C 0.44068 0.28689 0.62556 0.0
C5116 C 0.44121 0.2933 0.61054 0.0
C5117 C 0.43222 0.27234 0.6283 0.0
C5118 C 0.43406 0.2844 0.59813 0.0
C5119 C 0.42595 0.2697 0.60071 0.0
H5120 H 0.20365 0.45806 0.31643 0.0
H5121 H 0.16681 0.42621 0.33552 0.0
H5122 H 0.15089 0.44993 0.34543 0.0
H5123 H 0.14868 0.47912 0.3507 0.0
H5124 H 0.18593 0.51171 0.33385 0.0
H5125 H 0.20012 0.48844 0.32043 0.0
C5126 C 0.19207 0.45639 0.32267 0.0
C5127 C 0.1866 0.44036 0.3255 0.0
C5128 C 0.18297 0.4702 0.32852 0.0
C5129 C 0.17153 0.43836 0.33353 0.0
C5130 C 0.1623 0.45192 0.33904 0.0
C5131 C 0.15968 0.48122 0.34376 0.0
C5132 C 0.16625 0.49704 0.34316 0.0
C5133 C 0.16807 0.46781 0.33686 0.0
C5134 C 0.1805 0.49966 0.33422 0.0
C5135 C 0.18874 0.4863 0.32681 0.0
H5136 H 0.33737 0.39929 0.07756 0.0
H5137 H 0.36239 0.42886 0.11236 0.0
H5138 H 0.33698 0.42868 0.12803 0.0
H5139 H 0.30825 0.41815 0.13276 0.0
H5140 H 0.28464 0.38704 0.09845 0.0
H5141 H 0.30883 0.38972 0.08176 0.0
C5142 C 0.33739 0.40555 0.08865 0.0
C5143 C 0.35189 0.41392 0.09379 0.0
C5144 C 0.32291 0.40511 0.09774 0.0
C5145 C 0.35142 0.42235 0.10804 0.0
C5146 C 0.33691 0.42217 0.11708 0.0
C5147 C 0.30831 0.41229 0.1215 0.0
C5148 C 0.29466 0.40251 0.11678 0.0
C5149 C 0.32262 0.41341 0.11214 0.0
C5150 C 0.29499 0.39469 0.10229 0.0
C5151 C 0.30886 0.39612 0.09278 0.0
H5152 H 0.39501 0.53356 0.867 0.0
H5153 H 0.34658 0.51567 0.88033 0.0
H5154 H 0.33199 0.54002 0.86912 0.0
H5155 H 0.33296 0.56576 0.8544 0.0
H5156 H 0.3816 0.58403 0.84193 0.0
H5157 H 0.39615 0.5604 0.85421 0.0
C5158 C 0.38126 0.53501 0.86737 0.0
C5159 C 0.37182 0.52278 0.87416 0.0
C5160 C 0.37301 0.54916 0.86117 0.0
C5161 C 0.35406 0.52491 0.87497 0.0
C5162 C 0.34573 0.53881 0.8686 0.0
C5163 C 0.34675 0.56458 0.85444 0.0
C5164 C 0.35615 0.5766 0.84718 0.0
C5165 C 0.35506 0.55092 0.8615 0.0
C5166 C 0.37404 0.57506 0.84757 0.0
C5167 C 0.38238 0.56146 0.85445 0.0
H5168 H 0.2284 0.66431 0.6098 0.0
H5169 H 0.23139 0.61133 0.60833 0.0
H5170 H 0.21008 0.61132 0.58707 0.0
H5171 H 0.19291 0.62658 0.56717 0.0
H5172 H 0.18853 0.67946 0.56958 0.0
H5173 H 0.20788 0.67938 0.59235 0.0
C5174 C 0.22419 0.65276 0.60494 0.0
C5175 C 0.23164 0.63782 0.61044 0.0
C5176 C 0.21175 0.65288 0.59288 0.0
C5177 C 0.2259 0.62295 0.60425 0.0
C5178 C 0.21377 0.62297 0.59206 0.0
C5179 C 0.19595 0.63807 0.57288 0.0
C5180 C 0.18942 0.65304 0.56665 0.0
C5181 C 0.20695 0.63787 0.58602 0.0
C5182 C 0.19332 0.66781 0.5742 0.0
C5183 C 0.2045 0.66775 0.58714 0.0
H5184 H 0.13159 0.54892 0.18453 0.0
H5185 H 0.17988 0.55337 0.16285 0.0
H5186 H 0.18772 0.57482 0.18157 0.0
H5187 H 0.18091 0.59203 0.20449 0.0
H5188 H 0.13287 0.58624 0.22652 0.0
H5189 H 0.1249 0.56579 0.20724 0.0
C5190 C 0.14385 0.55458 0.18388 0.0
C5191 C 0.15511 0.54957 0.17225 0.0
C5192 C 0.14832 0.56672 0.19478 0.0
C5193 C 0.17092 0.55706 0.17159 0.0
C5194 C 0.17543 0.56929 0.18235 0.0
C5195 C 0.16874 0.58624 0.20517 0.0
C5196 C 0.15751 0.5909 0.21705 0.0
C5197 C 0.16426 0.57418 0.19408 0.0
C5198 C 0.1417 0.58328 0.21746 0.0
C5199 C 0.13715 0.57143 0.20647 0.0
H5200 H 0.23956 0.42122 0.88114 0.0
H5201 H 0.25107 0.37701 0.90716 0.0
H5202 H 0.2276 0.38358 0.92426 0.0
H5203 H 0.20527 0.40283 0.93299 0.0
H5204 H 0.19415 0.44762 0.90778 0.0
H5205 H 0.2159 0.43988 0.88913 0.0
C5206 C 0.2368 0.413 0.89049 0.0
C5207 C 0.24706 0.39872 0.89299 0.0
C5208 C 0.22341 0.41699 0.90043 0.0
C5209 C 0.24341 0.38814 0.90511 0.0
C5210 C 0.22999 0.39188 0.91487 0.0
C5211 C 0.20737 0.41075 0.92324 0.0
C5212 C 0.19812 0.42578 0.92177 0.0
C5213 C 0.22009 0.40639 0.9128 0.0
C5214 C 0.2012 0.43605 0.90922 0.0
C5215 C 0.21363 0.43163 0.89857 0.0
H5216 H 0.35865 0.47869 0.63848 0.0
H5217 H 0.39471 0.4918 0.67459 0.0
H5218 H 0.38763 0.46782 0.68936 0.0
H5219 H 0.37301 0.44216 0.69136 0.0
H5220 H 0.3379 0.42737 0.65511 0.0
H5221 H 0.34324 0.45254 0.64081 0.0
C5222 C 0.36483 0.47628 0.6496 0.0
C5223 C 0.37727 0.48695 0.65535 0.0
C5224 C 0.36111 0.46201 0.6579 0.0
C5225 C 0.38515 0.48375 0.66984 0.0
C5226 C 0.38116 0.46999 0.67831 0.0
C5227 C 0.36623 0.44454 0.68048 0.0
C5228 C 0.35494 0.43295 0.67443 0.0
C5229 C 0.36942 0.4589 0.67234 0.0
C5230 C 0.34671 0.43606 0.66004 0.0
C5231 C 0.34969 0.4505 0.65189 0.0
H5232 H 0.34727 0.59449 0.44155 0.0
H5233 H 0.37385 0.64002 0.44109 0.0
H5234 H 0.34847 0.65429 0.43013 0.0
H5235 H 0.31895 0.65352 0.42005 0.0
H5236 H 0.29311 0.6076 0.41915 0.0
H5237 H 0.3178 0.59378 0.43182 0.0
C5238 C 0.34743 0.60755 0.43911 0.0
C5239 C 0.36232 0.61621 0.44202 0.0
C5240 C 0.33288 0.61561 0.43286 0.0
C5241 C 0.36254 0.63309 0.43869 0.0
C5242 C 0.34802 0.64126 0.43259 0.0
C5243 C 0.31866 0.64059 0.42301 0.0
C5244 C 0.30432 0.63155 0.41906 0.0
C5245 C 0.33313 0.63264 0.42963 0.0
C5246 C 0.30408 0.61472 0.42239 0.0
C5247 C 0.31819 0.60683 0.42947 0.0
H5248 H 0.32254 0.15335 0.44963 0.0
H5249 H 0.35 0.11198 0.4293 0.0
H5250 H 0.35202 0.09858 0.45425 0.0
H5251 H 0.34912 0.09995 0.48225 0.0
H5252 H 0.32897 0.14437 0.50315 0.0
H5253 H 0.32033 0.15505 0.4776 0.0
C5254 C 0.3293 0.14157 0.45055 0.0
C5255 C 0.33614 0.13386 0.43737 0.0
C5256 C 0.33133 0.13429 0.46511 0.0
C5257 C 0.34424 0.11823 0.439 0.0
C5258 C 0.34549 0.1105 0.45334 0.0
C5259 C 0.34255 0.11183 0.48117 0.0
C5260 C 0.33966 0.12144 0.4944 0.0
C5261 C 0.33935 0.11855 0.4665 0.0
C5262 C 0.33114 0.13678 0.49302 0.0
C5263 C 0.32647 0.14295 0.47844 0.0
H5264 H 0.84137 0.34704 0.53662 0.0
H5265 H 0.82841 0.39739 0.52517 0.0
H5266 H 0.82489 0.40378 0.55283 0.0
H5267 H 0.82687 0.3947 0.58007 0.0
H5268 H 0.83746 0.34308 0.58977 0.0
H5269 H 0.84213 0.33791 0.56284 0.0
C5270 C 0.83773 0.35949 0.54004 0.0
C5271 C 0.83617 0.37209 0.52901 0.0
C5272 C 0.83592 0.36288 0.55566 0.0
C5273 C 0.83071 0.38785 0.53364 0.0
C5274 C 0.82865 0.39139 0.54938 0.0
C5275 C 0.83 0.38225 0.57637 0.0
C5276 C 0.83156 0.36934 0.58724 0.0
C5277 C 0.83165 0.37901 0.56053 0.0
C5278 C 0.83638 0.35347 0.58204 0.0
C5279 C 0.83868 0.35033 0.56647 0.0
H5280 H 0.35308 0.11655 0.28132 0.0
H5281 H 0.38595 0.15617 0.29361 0.0
H5282 H 0.39677 0.14084 0.31633 0.0
H5283 H 0.39804 0.11522 0.33196 0.0
H5284 H 0.36416 0.0762 0.31963 0.0
H5285 H 0.35286 0.09208 0.29776 0.0
C5286 C 0.36256 0.12187 0.28902 0.0
C5287 C 0.36864 0.13753 0.28576 0.0
C5288 C 0.36874 0.11294 0.30203 0.0
C5289 C 0.38088 0.14425 0.2959 0.0
C5290 C 0.38716 0.1354 0.30887 0.0
C5291 C 0.38804 0.11024 0.32463 0.0
C5292 C 0.38232 0.09423 0.32744 0.0
C5293 C 0.38133 0.11961 0.31198 0.0
C5294 C 0.3693 0.08816 0.31765 0.0
C5295 C 0.36268 0.09732 0.30512 0.0
H5296 H 0.63453 0.66922 0.04233 0.0
H5297 H 0.67158 0.63611 0.02181 0.0
H5298 H 0.68956 0.63728 0.04498 0.0
H5299 H 0.69472 0.64641 0.0716 0.0
H5300 H 0.6585 0.67984 0.09285 0.0
H5301 H 0.64061 0.67966 0.06932 0.0
C5302 C 0.64663 0.66248 0.04285 0.0
C5303 C 0.65157 0.65264 0.03006 0.0
C5304 C 0.65716 0.66304 0.05658 0.0
C5305 C 0.66729 0.64383 0.03127 0.0
C5306 C 0.67768 0.64443 0.04463 0.0
C5307 C 0.68308 0.65391 0.07114 0.0
C5308 C 0.67825 0.66311 0.08433 0.0
C5309 C 0.67273 0.65382 0.05745 0.0
C5310 C 0.66271 0.67237 0.08321 0.0
C5311 C 0.65239 0.67236 0.06961 0.0
H5312 H 0.66417 0.45374 0.3275 0.0
H5313 H 0.61014 0.45108 0.31787 0.0
H5314 H 0.61574 0.44146 0.29164 0.0
H5315 H 0.63618 0.43452 0.27108 0.0
H5316 H 0.68996 0.43886 0.28091 0.0
H5317 H 0.6842 0.44783 0.30717 0.0
C5318 C 0.65354 0.45133 0.31964 0.0
C5319 C 0.63674 0.45333 0.3247 0.0
C5320 C 0.65681 0.44639 0.30447 0.0
C5321 C 0.62322 0.44953 0.31442 0.0
C5322 C 0.6264 0.44423 0.29932 0.0
C5323 C 0.64656 0.43754 0.279 0.0
C5324 C 0.66343 0.43599 0.27411 0.0
C5325 C 0.64315 0.44278 0.29416 0.0
C5326 C 0.67684 0.44005 0.28437 0.0
C5327 C 0.67358 0.44507 0.29943 0.0
H5328 H 0.19268 0.88793 0.95599 0.0
H5329 H 0.16442 0.91626 0.92133 0.0
H5330 H 0.14223 0.92264 0.93981 0.0
H5331 H 0.13057 0.92048 0.9662 0.0
H5332 H 0.15877 0.89174 1.0005 0.0
H5333 H 0.18084 0.88523 0.98191 0.0
C5334 C 0.18163 0.89538 0.95233 0.0
C5335 C 0.18056 0.90159 0.93707 0.0
C5336 C 0.16869 0.89898 0.96309 0.0
C5337 C 0.16604 0.91145 0.93293 0.0
C5338 C 0.15315 0.91505 0.94353 0.0
C5339 C 0.14144 0.91264 0.96955 0.0
C5340 C 0.14283 0.90654 0.98483 0.0
C5341 C 0.1543 0.90893 0.95869 0.0
C5342 C 0.15725 0.89663 0.98892 0.0
C5343 C 0.16995 0.89288 0.97824 0.0
H5344 H 0.41866 0.93447 0.15319 0.0
H5345 H 0.37573 0.91393 0.12847 0.0
H5346 H 0.36473 0.90441 0.15288 0.0
H5347 H 0.36674 0.90332 0.18131 0.0
H5348 H 0.40889 0.92555 0.2056 0.0
H5349 H 0.42078 0.93333 0.181 0.0
C5350 C 0.40722 0.92737 0.15292 0.0
C5351 C 0.39824 0.92461 0.13888 0.0
C5352 C 0.40063 0.92269 0.16694 0.0
C5353 C 0.38303 0.91601 0.13905 0.0
C5354 C 0.37662 0.91078 0.15302 0.0
C5355 C 0.37843 0.91005 0.18115 0.0
C5356 C 0.38694 0.91404 0.1951 0.0
C5357 C 0.38515 0.9144 0.16703 0.0
C5358 C 0.40207 0.92263 0.19494 0.0
C5359 C 0.40894 0.92685 0.18092 0.0
H5360 H 0.17144 0.1393 0.7431 0.0
H5361 H 0.11997 0.15076 0.75639 0.0
H5362 H 0.10907 0.13898 0.73206 0.0
H5363 H 0.11424 0.12489 0.70714 0.0
H5364 H 0.16593 0.11381 0.69397 0.0
H5365 H 0.17663 0.12622 0.7179 0.0
C5366 C 0.15783 0.13915 0.74069 0.0
C5367 C 0.1465 0.14576 0.75158 0.0
C5368 C 0.15169 0.13252 0.72661 0.0
C5369 C 0.12893 0.14572 0.74819 0.0
C5370 C 0.1227 0.13897 0.73429 0.0
C5371 C 0.12784 0.12514 0.70952 0.0
C5372 C 0.13922 0.11834 0.69869 0.0
C5373 C 0.13396 0.13224 0.72343 0.0
C5374 C 0.15683 0.11907 0.70193 0.0
C5375 C 0.16299 0.12606 0.7157 0.0
H5376 H 0.9645 0.12553 0.33855 0.0
H5377 H 0.92637 0.12289 0.37311 0.0
H5378 H 0.90391 0.12529 0.3532 0.0
H5379 H 0.89427 0.12807 0.32551 0.0
H5380 H 0.93205 0.13158 0.29072 0.0
H5381 H 0.95468 0.12902 0.31067 0.0
C5382 C 0.9513 0.12549 0.34183 0.0
C5383 C 0.94759 0.12408 0.35786 0.0
C5384 C 0.938 0.12706 0.32998 0.0
C5385 C 0.9301 0.12414 0.36129 0.0
C5386 C 0.91703 0.12545 0.34972 0.0
C5387 C 0.90741 0.1283 0.32215 0.0
C5388 C 0.91097 0.13003 0.30614 0.0
C5389 C 0.9207 0.12694 0.33394 0.0
C5390 C 0.92843 0.1303 0.30261 0.0
C5391 C 0.94158 0.1288 0.31418 0.0
H5392 H 0.12907 0.72725 0.58826 0.0
H5393 H 0.1546 0.76307 0.56162 0.0
H5394 H 0.1662 0.77535 0.5855 0.0
H5395 H 0.17127 0.77379 0.61374 0.0
H5396 H 0.14683 0.73618 0.63943 0.0
H5397 H 0.13269 0.72662 0.61602 0.0
C5398 C 0.1367 0.7381 0.58768 0.0
C5399 C 0.14085 0.74442 0.57332 0.0
C5400 C 0.14386 0.74447 0.60124 0.0
C5401 C 0.15117 0.75815 0.57266 0.0
C5402 C 0.15791 0.76502 0.58626 0.0
C5403 C 0.16284 0.76353 0.61418 0.0
C5404 C 0.1603 0.75562 0.62828 0.0
C5405 C 0.15478 0.75791 0.60059 0.0
C5406 C 0.14923 0.7424 0.62872 0.0
C5407 C 0.14101 0.73695 0.61535 0.0
H5408 H 0.58584 0.92512 0.78773 0.0
H5409 H 0.55518 0.88364 0.77608 0.0
H5410 H 0.57894 0.87047 0.76272 0.0
H5411 H 0.61018 0.86768 0.7607 0.0
H5412 H 0.64119 0.90771 0.77601 0.0
H5413 H 0.61584 0.92447 0.78163 0.0
C5414 C 0.58427 0.91343 0.78183 0.0
C5415 C 0.56908 0.90513 0.78323 0.0
C5416 C 0.59828 0.90544 0.77524 0.0
C5417 C 0.56687 0.89021 0.77525 0.0
C5418 C 0.58054 0.88254 0.76782 0.0
C5419 C 0.61123 0.88022 0.76488 0.0
C5420 C 0.62728 0.88642 0.76838 0.0
C5421 C 0.59661 0.88952 0.76874 0.0
C5422 C 0.62878 0.90267 0.77366 0.0
C5423 C 0.61434 0.91225 0.77681 0.0
H5424 H 0.4225 0.32107 0.10408 0.0
H5425 H 0.39328 0.28616 0.07784 0.0
H5426 H 0.397 0.30195 0.05431 0.0
H5427 H 0.40762 0.32683 0.04053 0.0
H5428 H 0.43616 0.36188 0.06727 0.0
H5429 H 0.43376 0.34522 0.09037 0.0
C5430 C 0.41699 0.31676 0.09325 0.0
C5431 C 0.40754 0.30206 0.09323 0.0
C5432 C 0.41911 0.32615 0.0794 0.0
C5433 C 0.40061 0.29718 0.07869 0.0
C5434 C 0.40275 0.30633 0.06501 0.0
C5435 C 0.41364 0.3307 0.05129 0.0
C5436 C 0.4224 0.34583 0.05167 0.0
C5437 C 0.4119 0.32098 0.06508 0.0
C5438 C 0.42953 0.35044 0.06619 0.0
C5439 C 0.42807 0.34085 0.07963 0.0
H5440 H 0.98174 0.86963 0.18747 0.0
H5441 H 0.94627 0.87055 0.14853 0.0
H5442 H 0.92287 0.86612 0.16566 0.0
H5443 H 0.91147 0.86214 0.19183 0.0
H5444 H 0.94621 0.85954 0.23114 0.0
H5445 H 0.97011 0.86426 0.21413 0.0
C5446 C 0.96893 0.86881 0.18264 0.0
C5447 C 0.96629 0.8705 0.16624 0.0
C5448 C 0.95501 0.86591 0.19285 0.0
C5449 C 0.94926 0.86925 0.16075 0.0
C5450 C 0.93561 0.86674 0.17069 0.0
C5451 C 0.92423 0.86257 0.19684 0.0
C5452 C 0.92654 0.86048 0.21317 0.0
C5453 C 0.93819 0.86506 0.18679 0.0
C5454 C 0.94355 0.86101 0.21888 0.0
C5455 C 0.9574 0.86379 0.20902 0.0
H5456 H 0.39444 0.70129 0.46213 0.0
H5457 H 0.43096 0.72891 0.48881 0.0
H5458 H 0.43688 0.70519 0.50555 0.0
H5459 H 0.43404 0.67556 0.51066 0.0
H5460 H 0.39893 0.6478 0.48248 0.0
H5461 H 0.39016 0.67254 0.46826 0.0
C5462 C 0.40367 0.70213 0.47163 0.0
C5463 C 0.4124 0.71675 0.47408 0.0
C5464 C 0.40736 0.68836 0.48088 0.0
C5465 C 0.42401 0.7178 0.48669 0.0
C5466 C 0.4275 0.7042 0.4962 0.0
C5467 C 0.42425 0.67505 0.5016 0.0
C5468 C 0.41724 0.65991 0.49752 0.0
C5469 C 0.41958 0.68927 0.49314 0.0
C5470 C 0.40464 0.65932 0.4857 0.0
C5471 C 0.39961 0.67344 0.47756 0.0
H5472 H 0.59607 0.12753 0.79892 0.0
H5473 H 0.60021 0.17815 0.78578 0.0
H5474 H 0.57594 0.1757 0.76763 0.0
H5475 H 0.55801 0.15745 0.75199 0.0
H5476 H 0.55338 0.10686 0.76567 0.0
H5477 H 0.57325 0.11106 0.78734 0.0
C5478 C 0.59115 0.13817 0.79252 0.0
C5479 C 0.59976 0.15297 0.79356 0.0
C5480 C 0.5774 0.13656 0.78201 0.0
C5481 C 0.59354 0.16671 0.78522 0.0
C5482 C 0.57982 0.16523 0.77472 0.0
C5483 C 0.56077 0.14748 0.76002 0.0
C5484 C 0.55462 0.13169 0.75686 0.0
C5485 C 0.57223 0.14997 0.77248 0.0
C5486 C 0.55839 0.11899 0.76749 0.0
C5487 C 0.56973 0.12138 0.77993 0.0
H5488 H 0.16699 0.38594 0.95928 0.0
H5489 H 0.16524 0.35303 0.99792 0.0
H5490 H 0.16734 0.32939 0.9804 0.0
H5491 H 0.16951 0.31709 0.95346 0.0
H5492 H 0.1717 0.35055 0.91516 0.0
H5493 H 0.16963 0.37387 0.93271 0.0
C5494 C 0.16702 0.37367 0.96402 0.0
C5495 C 0.16585 0.37186 0.98039 0.0
C5496 C 0.16835 0.35968 0.95363 0.0
C5497 C 0.16608 0.35539 0.98568 0.0
C5498 C 0.1673 0.34161 0.9755 0.0
C5499 C 0.16965 0.32942 0.94885 0.0
C5500 C 0.17079 0.3314 0.93246 0.0
C5501 C 0.16846 0.34342 0.95934 0.0
C5502 C 0.1708 0.34795 0.92735 0.0
C5503 C 0.1696 0.36161 0.93755 0.0
H5504 H 0.31911 0.98883 0.14922 0.0
H5505 H 0.36306 0.95783 0.13979 0.0
H5506 H 0.34541 0.93365 0.13939 0.0
H5507 H 0.31678 0.91994 0.14163 0.0
H5508 H 0.27286 0.95108 0.15118 0.0
H5509 H 0.2906 0.97514 0.15161 0.0
C5510 C 0.32505 0.97686 0.14709 0.0
C5511 C 0.34314 0.97601 0.14437 0.0
C5512 C 0.31442 0.96232 0.14689 0.0
C5513 C 0.34961 0.95974 0.14169 0.0
C5514 C 0.33929 0.94553 0.14154 0.0
C5515 C 0.31087 0.93191 0.14383 0.0
C5516 C 0.29272 0.93282 0.14637 0.0
C5517 C 0.32153 0.94643 0.14407 0.0
C5518 C 0.2863 0.9491 0.14914 0.0
C5519 C 0.29667 0.96325 0.1494 0.0
H5520 H 0.35896 0.05916 0.37893 0.0
H5521 H 0.32401 0.02162 0.39023 0.0
H5522 H 0.30005 0.04177 0.38655 0.0
H5523 H 0.28861 0.07098 0.38023 0.0
H5524 H 0.32508 0.10736 0.3693 0.0
H5525 H 0.34817 0.08705 0.37274 0.0
C5526 C 0.34616 0.05509 0.38064 0.0
C5527 C 0.34381 0.03836 0.38493 0.0
C5528 C 0.33234 0.06689 0.37857 0.0
C5529 C 0.32673 0.03407 0.38696 0.0
C5530 C 0.31286 0.04576 0.38483 0.0
C5531 C 0.30158 0.07452 0.37854 0.0
C5532 C 0.30464 0.09132 0.37463 0.0
C5533 C 0.3154 0.06236 0.38063 0.0
C5534 C 0.32185 0.09508 0.37262 0.0
C5535 C 0.33528 0.08326 0.37449 0.0
H5536 H 0.21162 0.06183 0.63057 0.0
H5537 H 0.17041 0.08861 0.65259 0.0
H5538 H 0.19041 0.10454 0.6673 0.0
H5539 H 0.21916 0.11211 0.67377 0.0
H5540 H 0.26157 0.08811 0.65146 0.0
H5541 H 0.24184 0.06973 0.63769 0.0
C5542 C 0.20704 0.07119 0.63853 0.0
C5543 C 0.18921 0.07392 0.64011 0.0
C5544 C 0.21892 0.08076 0.64724 0.0
C5545 C 0.18379 0.08614 0.6507 0.0
C5546 C 0.19531 0.09531 0.65935 0.0
C5547 C 0.22426 0.10273 0.66605 0.0
C5548 C 0.24197 0.10155 0.66382 0.0
C5549 C 0.21284 0.09282 0.6577 0.0
C5550 C 0.2481 0.08923 0.6537 0.0
C5551 C 0.23672 0.07885 0.64562 0.0
H5552 H 0.2246 0.93584 0.87652 0.0
H5553 H 0.2657 0.96777 0.88826 0.0
H5554 H 0.24469 0.98971 0.8951 0.0
H5555 H 0.21386 0.99967 0.89864 0.0
H5556 H 0.17397 0.96631 0.88631 0.0
H5557 H 0.1951 0.9454 0.87929 0.0
C5558 C 0.22919 0.94757 0.88058 0.0
C5559 C 0.24708 0.9498 0.88185 0.0
C5560 C 0.217 0.96005 0.88464 0.0
C5561 C 0.25226 0.96542 0.88695 0.0
C5562 C 0.24011 0.978 0.89102 0.0
C5563 C 0.20976 0.98783 0.89445 0.0
C5564 C 0.1919 0.98489 0.89318 0.0
C5565 C 0.22233 0.97546 0.89009 0.0
C5566 C 0.18727 0.96931 0.88753 0.0
C5567 C 0.19948 0.95718 0.88343 0.0
H5568 H 0.63912 0.24531 0.07575 0.0
H5569 H 0.68426 0.21747 0.06316 0.0
H5570 H 0.70093 0.23144 0.08323 0.0
H5571 H 0.70143 0.24851 0.10692 0.0
H5572 H 0.65595 0.27558 0.11977 0.0
H5573 H 0.6406 0.26521 0.09699 0.0
C5574 C 0.65268 0.24261 0.07725 0.0
C5575 C 0.66049 0.2304 0.06822 0.0
C5576 C 0.66204 0.25045 0.08893 0.0
C5577 C 0.67807 0.22696 0.07004 0.0
C5578 C 0.68756 0.23482 0.08157 0.0
C5579 C 0.68832 0.2524 0.10439 0.0
C5580 C 0.67965 0.2626 0.11477 0.0
C5581 C 0.67953 0.24615 0.09145 0.0
C5582 C 0.66268 0.26764 0.11172 0.0
C5583 C 0.65392 0.26169 0.0988 0.0
H5584 H 0.12574 0.38721 0.26368 0.0
H5585 H 0.15047 0.38267 0.30874 0.0
H5586 H 0.12801 0.39952 0.32006 0.0
H5587 H 0.09995 0.41214 0.31789 0.0
H5588 H 0.07402 0.41652 0.27342 0.0
H5589 H 0.09868 0.40351 0.26104 0.0
C5590 C 0.12614 0.38991 0.27597 0.0
C5591 C 0.1395 0.3834 0.28541 0.0
C5592 C 0.11313 0.39968 0.28247 0.0
C5593 C 0.14018 0.38735 0.30124 0.0
C5594 C 0.1274 0.39706 0.30774 0.0
C5595 C 0.09983 0.41093 0.30541 0.0
C5596 C 0.08504 0.41508 0.29663 0.0
C5597 C 0.11365 0.40294 0.29853 0.0
C5598 C 0.08519 0.4132 0.28047 0.0
C5599 C 0.0992 0.40562 0.27342 0.0
H5600 H 0.91565 0.859 0.56752 0.0
H5601 H 0.91781 0.8231 0.53081 0.0
H5602 H 0.91184 0.8013 0.54933 0.0
H5603 H 0.90574 0.79201 0.57669 0.0
H5604 H 0.90577 0.82871 0.61289 0.0
H5605 H 0.91094 0.84997 0.59417 0.0
C5606 C 0.91486 0.84642 0.56341 0.0
C5607 C 0.91721 0.84307 0.5474 0.0
C5608 C 0.91167 0.83377 0.57429 0.0
C5609 C 0.91619 0.82642 0.54281 0.0
C5610 C 0.91268 0.81382 0.55353 0.0
C5611 C 0.90678 0.80465 0.58051 0.0
C5612 C 0.90515 0.8084 0.59661 0.0
C5613 C 0.91031 0.81725 0.56941 0.0
C5614 C 0.9069 0.82506 0.60091 0.0
C5615 C 0.90989 0.83742 0.59007 0.0
H5616 H 0.10059 0.67349 0.2882 0.0
H5617 H 0.11509 0.62202 0.28977 0.0
H5618 H 0.09059 0.61539 0.27311 0.0
H5619 H 0.06828 0.62485 0.25478 0.0
H5620 H 0.0553 0.67661 0.25115 0.0
H5621 H 0.07587 0.68266 0.27199 0.0
C5622 C 0.09791 0.66082 0.28528 0.0
C5623 C 0.10926 0.64819 0.29016 0.0
C5624 C 0.08433 0.65726 0.27512 0.0
C5625 C 0.10621 0.63181 0.28614 0.0
C5626 C 0.09235 0.62807 0.27655 0.0
C5627 C 0.06965 0.63739 0.25887 0.0
C5628 C 0.06053 0.65029 0.25144 0.0
C5629 C 0.08178 0.64077 0.27046 0.0
C5630 C 0.06246 0.66653 0.25664 0.0
C5631 C 0.07416 0.66998 0.26853 0.0
H5632 H 0.47922 0.37004 0.68591 0.0
H5633 H 0.44268 0.368 0.6479 0.0
H5634 H 0.41989 0.3643 0.66592 0.0
H5635 H 0.40928 0.36185 0.69276 0.0
H5636 H 0.44542 0.36211 0.73106 0.0
H5637 H 0.46856 0.36614 0.71311 0.0
C5638 C 0.46631 0.36872 0.68146 0.0
C5639 C 0.4632 0.3694 0.66504 0.0
C5640 C 0.45277 0.36626 0.6922 0.0
C5641 C 0.44604 0.36755 0.6601 0.0
C5642 C 0.43274 0.36544 0.67057 0.0
C5643 C 0.42219 0.36277 0.69733 0.0
C5644 C 0.4251 0.3617 0.71371 0.0
C5645 C 0.43579 0.36482 0.6867 0.0
C5646 C 0.44229 0.36282 0.71882 0.0
C5647 C 0.45572 0.36519 0.7084 0.0
H5648 H 0.07249 0.91204 0.68213 0.0
H5649 H 0.11072 0.90711 0.64748 0.0
H5650 H 0.13291 0.90434 0.6676 0.0
H5651 H 0.14231 0.90323 0.69539 0.0
H5652 H 0.10444 0.90673 0.73034 0.0
H5653 H 0.08201 0.90999 0.71023 0.0
C5654 C 0.08565 0.91039 0.67889 0.0
C5655 C 0.08948 0.90995 0.66283 0.0
C5656 C 0.09879 0.90847 0.69084 0.0
C5657 C 0.1069 0.9076 0.6594 0.0
C5658 C 0.11982 0.90599 0.67106 0.0
C5659 C 0.12919 0.90471 0.69874 0.0
C5660 C 0.12551 0.90474 0.71482 0.0
C5661 C 0.11604 0.9064 0.68688 0.0
C5662 C 0.1081 0.90658 0.71838 0.0
C5663 C 0.0951 0.9085 0.70673 0.0
H5664 H 0.87717 0.26378 0.40808 0.0
H5665 H 0.89378 0.30176 0.37778 0.0
H5666 H 0.91007 0.31387 0.39885 0.0
H5667 H 0.91675 0.31578 0.42638 0.0
H5668 H 0.89754 0.27983 0.45731 0.0
H5669 H 0.88627 0.26428 0.43545 0.0
C5670 C 0.88435 0.27469 0.40611 0.0
C5671 C 0.88389 0.28203 0.39149 0.0
C5672 C 0.8936 0.28181 0.41836 0.0
C5673 C 0.89358 0.29599 0.38901 0.0
C5674 C 0.90306 0.3029 0.40103 0.0
C5675 C 0.91035 0.30438 0.4283 0.0
C5676 C 0.90764 0.29923 0.44342 0.0
C5677 C 0.90278 0.29617 0.41581 0.0
C5678 C 0.89983 0.28415 0.44577 0.0
C5679 C 0.89305 0.27538 0.43328 0.0
H5680 H 0.3966 0.13495 0.23449 0.0
H5681 H 0.42278 0.16251 0.27016 0.0
H5682 H 0.4488 0.14586 0.26609 0.0
H5683 H 0.46506 0.12808 0.24856 0.0
H5684 H 0.4391 0.10487 0.21001 0.0
H5685 H 0.41182 0.11385 0.21997 0.0
C5686 C 0.40798 0.13733 0.24143 0.0
C5687 C 0.40813 0.15043 0.25206 0.0
C5688 C 0.42283 0.12811 0.23874 0.0
C5689 C 0.42263 0.15282 0.26152 0.0
C5690 C 0.43742 0.14324 0.25928 0.0
C5691 C 0.45338 0.12471 0.24254 0.0
C5692 C 0.45415 0.11671 0.22812 0.0
C5693 C 0.43786 0.13149 0.24734 0.0
C5694 C 0.439 0.11141 0.22094 0.0
C5695 C 0.42333 0.11686 0.22645 0.0
H5696 H 0.61341 0.67734 0.95286 0.0
H5697 H 0.61788 0.71237 0.99013 0.0
H5698 H 0.62364 0.73402 0.97139 0.0
H5699 H 0.62814 0.74329 0.94377 0.0
H5700 H 0.62159 0.70772 0.90709 0.0
H5701 H 0.61606 0.68662 0.92591 0.0
C5702 C 0.61555 0.68971 0.95704 0.0
C5703 C 0.61517 0.69285 0.97326 0.0
C5704 C 0.61861 0.7023 0.94604 0.0
C5705 C 0.61792 0.70924 0.97796 0.0
C5706 C 0.62133 0.72173 0.96711 0.0
C5707 C 0.62547 0.73095 0.93984 0.0
C5708 C 0.62538 0.72748 0.92358 0.0
C5709 C 0.62184 0.71849 0.95102 0.0
C5710 C 0.6217 0.7112 0.91918 0.0
C5711 C 0.61856 0.69892 0.93007 0.0
H5712 H 0.08951 0.17167 0.86441 0.0
H5713 H 0.04817 0.15515 0.83519 0.0
H5714 H 0.06502 0.15947 0.81229 0.0
H5715 H 0.09235 0.16744 0.79978 0.0
H5716 H 0.13383 0.18274 0.82957 0.0
H5717 H 0.11649 0.17949 0.85214 0.0
C5718 C 0.08404 0.16906 0.85307 0.0
C5719 C 0.06717 0.16307 0.85198 0.0
C5720 C 0.09409 0.17139 0.83961 0.0
C5721 C 0.06087 0.15975 0.83684 0.0
C5722 C 0.07063 0.16225 0.82353 0.0
C5723 C 0.0976 0.17027 0.81116 0.0
C5724 C 0.11479 0.17549 0.81251 0.0
C5725 C 0.08738 0.16804 0.82462 0.0
C5726 C 0.12094 0.17868 0.82773 0.0
C5727 C 0.1109 0.17682 0.84086 0.0
H5728 H 0.61155 0.31285 0.53973 0.0
H5729 H 0.64524 0.3365 0.57261 0.0
H5730 H 0.64107 0.36246 0.55888 0.0
H5731 H 0.62609 0.37874 0.539 0.0
H5732 H 0.59292 0.35544 0.50558 0.0
H5733 H 0.59894 0.32875 0.51793 0.0
C5734 C 0.61828 0.32359 0.54368 0.0
C5735 C 0.62848 0.32285 0.55729 0.0
C5736 C 0.61583 0.33846 0.53574 0.0
C5737 C 0.63703 0.33688 0.56235 0.0
C5738 C 0.6347 0.35169 0.55449 0.0
C5739 C 0.62025 0.36781 0.53436 0.0
C5740 C 0.60888 0.369 0.52161 0.0
C5741 C 0.62379 0.35269 0.54145 0.0
C5742 C 0.60166 0.35474 0.51547 0.0
C5743 C 0.60506 0.33955 0.52254 0.0
H5744 H 0.4368 0.91194 0.22502 0.0
H5745 H 0.43918 0.85982 0.23346 0.0
H5746 H 0.46618 0.86242 0.24789 0.0
H5747 H 0.48493 0.88033 0.26264 0.0
H5748 H 0.48298 0.93264 0.25423 0.0
H5749 H 0.46015 0.92913 0.23492 0.0
C5750 C 0.44367 0.90113 0.22951 0.0
C5751 C 0.43623 0.88573 0.22828 0.0
C5752 C 0.45901 0.9028 0.238 0.0
C5753 C 0.44492 0.87174 0.23422 0.0
C5754 C 0.46024 0.87327 0.24257 0.0
C5755 C 0.48014 0.89095 0.25617 0.0
C5756 C 0.48531 0.90683 0.26035 0.0
C5757 C 0.46689 0.88887 0.24521 0.0
C5758 C 0.47883 0.92033 0.25167 0.0
C5759 C 0.46575 0.91835 0.24062 0.0
H5760 H 0.86136 0.68236 0.09817 0.0
H5761 H 0.87508 0.72398 0.07117 0.0
H5762 H 0.87711 0.70647 0.04827 0.0
H5763 H 0.87525 0.67889 0.03494 0.0
H5764 H 0.86096 0.63743 0.06173 0.0
H5765 H 0.85908 0.6548 0.08474 0.0
C5766 C 0.86481 0.68774 0.08734 0.0
C5767 C 0.86803 0.70499 0.08698 0.0
C5768 C 0.86596 0.67733 0.0737 0.0
C5769 C 0.87243 0.71109 0.07237 0.0
C5770 C 0.87364 0.70091 0.05902 0.0
C5771 C 0.87169 0.67353 0.04575 0.0
C5772 C 0.86845 0.65629 0.04608 0.0
C5773 C 0.87045 0.68394 0.05938 0.0
C5774 C 0.86384 0.65023 0.06063 0.0
C5775 C 0.86266 0.66037 0.07402 0.0
H5776 H 0.75279 0.08507 0.87181 0.0
H5777 H 0.72165 0.12137 0.89516 0.0
H5778 H 0.69916 0.10152 0.89727 0.0
H5779 H 0.68712 0.07286 0.89264 0.0
H5780 H 0.71789 0.03728 0.868 0.0
H5781 H 0.74049 0.05704 0.86645 0.0
C5782 C 0.74111 0.08886 0.87736 0.0
C5783 C 0.73967 0.10551 0.88327 0.0
C5784 C 0.72751 0.07704 0.87832 0.0
C5785 C 0.72386 0.10926 0.89026 0.0
C5786 C 0.71068 0.09761 0.89153 0.0
C5787 C 0.69863 0.06934 0.88674 0.0
C5788 C 0.69998 0.05286 0.88036 0.0
C5789 C 0.71212 0.08132 0.88559 0.0
C5790 C 0.71567 0.04933 0.87308 0.0
C5791 C 0.72893 0.06088 0.87216 0.0
H5792 H 0.70929 1.00158 0.6523 0.0
H5793 H 0.6779 0.97712 0.61829 0.0
H5794 H 0.69602 0.95226 0.62059 0.0
H5795 H 0.72055 0.93619 0.63293 0.0
H5796 H 0.75243 0.96058 0.66659 0.0
H5797 H 0.73489 0.98578 0.66372 0.0
C5798 C 0.70663 0.99102 0.64504 0.0
C5799 C 0.69207 0.99185 0.63475 0.0
C5800 C 0.71728 0.9762 0.64654 0.0
C5801 C 0.68895 0.9774 0.62606 0.0
C5802 C 0.69934 0.96291 0.62748 0.0
C5803 C 0.72373 0.94695 0.6397 0.0
C5804 C 0.73814 0.94589 0.65012 0.0
C5805 C 0.71349 0.96193 0.63783 0.0
C5806 C 0.74169 0.96048 0.65848 0.0
C5807 C 0.73153 0.97515 0.65683 0.0
H5808 H 0.78554 0.93878 0.37506 0.0
H5809 H 0.80824 0.93581 0.33042 0.0
H5810 H 0.83263 0.95095 0.34026 0.0
H5811 H 0.84917 0.96245 0.36224 0.0
H5812 H 0.82652 0.96651 0.40687 0.0
H5813 H 0.80078 0.95354 0.39653 0.0
C5814 C 0.79542 0.94216 0.3673 0.0
C5815 C 0.79466 0.93655 0.35178 0.0
C5816 C 0.80982 0.9506 0.37324 0.0
C5817 C 0.80811 0.9404 0.34219 0.0
C5818 C 0.82228 0.94881 0.34793 0.0
C5819 C 0.83859 0.96055 0.36973 0.0
C5820 C 0.84001 0.96523 0.38545 0.0
C5821 C 0.82357 0.95349 0.36355 0.0
C5822 C 0.82593 0.96294 0.3948 0.0
C5823 C 0.81114 0.95554 0.38884 0.0
H5824 H 0.81129 0.09868 0.14482 0.0
H5825 H 0.76989 0.06731 0.13243 0.0
H5826 H 0.79071 0.04523 0.12558 0.0
H5827 H 0.82138 0.03504 0.12211 0.0
H5828 H 0.86172 0.06749 0.13541 0.0
H5829 H 0.84078 0.08861 0.14257 0.0
C5830 C 0.8066 0.08701 0.14071 0.0
C5831 C 0.78868 0.08497 0.13923 0.0
C5832 C 0.81869 0.07441 0.13671 0.0
C5833 C 0.78335 0.06948 0.13394 0.0
C5834 C 0.79539 0.05682 0.12986 0.0
C5835 C 0.82563 0.04673 0.12655 0.0
C5836 C 0.84353 0.04939 0.128 0.0
C5837 C 0.8132 0.05915 0.131 0.0
C5838 C 0.84837 0.06475 0.13401 0.0
C5839 C 0.83628 0.07699 0.13817 0.0
H5840 H 0.39852 0.80486 0.94097 0.0
H5841 H 0.36232 0.77783 0.9663 0.0
H5842 H 0.35257 0.76441 0.94232 0.0
H5843 H 0.35247 0.76284 0.91382 0.0
H5844 H 0.38756 0.79196 0.88898 0.0
H5845 H 0.39964 0.80213 0.91316 0.0
C5846 C 0.38887 0.79564 0.94131 0.0
C5847 C 0.38123 0.79216 0.95529 0.0
C5848 C 0.3829 0.78865 0.92754 0.0
C5849 C 0.3684 0.78057 0.95559 0.0
C5850 C 0.36277 0.77303 0.94191 0.0
C5851 C 0.36283 0.77132 0.91376 0.0
C5852 C 0.36894 0.77681 0.89967 0.0
C5853 C 0.36957 0.77739 0.92775 0.0
C5854 C 0.3824 0.78776 0.89968 0.0
C5855 C 0.38942 0.79352 0.91349 0.0
H5856 H 0.96067 0.63615 0.73656 0.0
H5857 H 0.93017 0.60105 0.71154 0.0
H5858 H 0.90425 0.61489 0.7207 0.0
H5859 H 0.89069 0.63921 0.73244 0.0
H5860 H 0.92113 0.67416 0.75756 0.0
H5861 H 0.94702 0.65798 0.7516 0.0
C5862 C 0.94842 0.63104 0.73359 0.0
C5863 C 0.94732 0.61772 0.7232 0.0
C5864 C 0.93369 0.63933 0.73847 0.0
C5865 C 0.9313 0.61142 0.71938 0.0
C5866 C 0.91651 0.61941 0.72448 0.0
C5867 C 0.90302 0.6433 0.73657 0.0
C5868 C 0.90426 0.65809 0.74493 0.0
C5869 C 0.91763 0.63384 0.73335 0.0
C5870 C 0.92009 0.66298 0.75079 0.0
C5871 C 0.93479 0.6537 0.74748 0.0
H5872 H 0.13152 0.24066 0.44498 0.0
H5873 H 0.12628 0.20434 0.40875 0.0
H5874 H 0.12059 0.18352 0.42772 0.0
H5875 H 0.11707 0.17474 0.45459 0.0
H5876 H 0.12012 0.21033 0.49149 0.0
H5877 H 0.1264 0.23175 0.47266 0.0
C5878 C 0.12918 0.2282 0.4412 0.0
C5879 C 0.12951 0.22442 0.42503 0.0
C5880 C 0.12537 0.21589 0.45247 0.0
C5881 C 0.12615 0.20802 0.42079 0.0
C5882 C 0.12287 0.19591 0.43176 0.0
C5883 C 0.11904 0.18717 0.45867 0.0
C5884 C 0.11808 0.19056 0.4748 0.0
C5885 C 0.12241 0.19959 0.44764 0.0
C5886 C 0.12062 0.20702 0.47938 0.0
C5887 C 0.12432 0.21938 0.46848 0.0
H5888 H 0.90692 0.42073 0.74194 0.0
H5889 H 0.93287 0.38065 0.71861 0.0
H5890 H 0.95871 0.38533 0.73433 0.0
H5891 H 0.97152 0.39721 0.75798 0.0
H5892 H 0.9443 0.43574 0.78247 0.0
H5893 H 0.92109 0.43513 0.76313 0.0
C5894 C 0.91839 0.41329 0.74004 0.0
C5895 C 0.91801 0.40019 0.7294 0.0
C5896 C 0.93274 0.41552 0.74959 0.0
C5897 C 0.93293 0.39079 0.72678 0.0
C5898 C 0.94759 0.39333 0.73591 0.0
C5899 C 0.96072 0.40578 0.75883 0.0
C5900 C 0.95945 0.41636 0.77171 0.0
C5901 C 0.94731 0.4051 0.74787 0.0
C5902 C 0.94536 0.42731 0.77279 0.0
C5903 C 0.93216 0.42701 0.76172 0.0
H5904 H 0.55687 0.66231 0.33642 0.0
H5905 H 0.59316 0.66247 0.37471 0.0
H5906 H 0.61604 0.66715 0.35705 0.0
H5907 H 0.62688 0.67087 0.33051 0.0
H5908 H 0.5912 0.67236 0.29185 0.0
H5909 H 0.56784 0.66754 0.30942 0.0
C5910 C 0.56973 0.66343 0.34102 0.0
C5911 C 0.57271 0.66195 0.35745 0.0
C5912 C 0.58338 0.66645 0.33047 0.0
C5913 C 0.58985 0.66358 0.36254 0.0
C5914 C 0.60322 0.66623 0.35227 0.0
C5915 C 0.61402 0.67021 0.32575 0.0
C5916 C 0.61135 0.67202 0.30938 0.0
C5917 C 0.60031 0.66765 0.33616 0.0
C5918 C 0.5942 0.67113 0.30407 0.0
C5919 C 0.58063 0.6683 0.31429 0.0
H5920 H 0.42764 0.62822 0.80048 0.0
H5921 H 0.38207 0.63493 0.82661 0.0
H5922 H 0.39872 0.63263 0.85067 0.0
H5923 H 0.42652 0.62851 0.86519 0.0
H5924 H 0.47227 0.62141 0.83939 0.0
H5925 H 0.45566 0.62408 0.81518 0.0
C5926 C 0.42126 0.62924 0.81139 0.0
C5927 C 0.40315 0.63168 0.8112 0.0
C5928 C 0.43118 0.62781 0.82568 0.0
C5929 C 0.39566 0.63285 0.82586 0.0
C5930 C 0.40533 0.6316 0.83987 0.0
C5931 C 0.43299 0.62755 0.85434 0.0
C5932 C 0.45103 0.62472 0.85463 0.0
C5933 C 0.42315 0.62901 0.84007 0.0
C5934 C 0.45864 0.62355 0.84002 0.0
C5935 C 0.44902 0.6251 0.82595 0.0
H5936 H 0.93876 0.17475 1.00759 0.0
H5937 H 0.89592 0.15078 0.98621 0.0
H5938 H 0.88746 0.17595 0.97251 0.0
H5939 H 0.89392 0.20372 0.96455 0.0
H5940 H 0.93764 0.22749 0.98454 0.0
H5941 H 0.94388 0.20368 1.00109 0.0
C5942 C 0.92738 0.17523 1.0002 0.0
C5943 C 0.91806 0.16099 0.99773 0.0
C5944 C 0.92283 0.18966 0.99202 0.0
C5945 C 0.9034 0.1616 0.98807 0.0
C5946 C 0.89856 0.17597 0.98024 0.0
C5947 C 0.90478 0.2037 0.97257 0.0
C5948 C 0.91542 0.21721 0.97319 0.0
C5949 C 0.90849 0.18988 0.98175 0.0
C5950 C 0.92922 0.21722 0.98388 0.0
C5951 C 0.93286 0.20357 0.99328 0.0
H5952 H 0.67002 0.88557 0.45877 0.0
H5953 H 0.65553 0.85309 0.49486 0.0
H5954 H 0.65828 0.8296 0.47728 0.0
H5955 H 0.66459 0.81731 0.45104 0.0
H5956 H 0.67888 0.85003 0.41501 0.0
H5957 H 0.67641 0.87336 0.43266 0.0
C5958 C 0.6674 0.87342 0.46291 0.0
C5959 C 0.66245 0.87171 0.47861 0.0
C5960 C 0.66904 0.85948 0.45246 0.0
C5961 C 0.65932 0.8554 0.48317 0.0
C5962 C 0.66092 0.84169 0.47296 0.0
C5963 C 0.66733 0.82947 0.44697 0.0
C5964 C 0.67211 0.83128 0.43122 0.0
C5965 C 0.66578 0.84341 0.45748 0.0
C5966 C 0.67528 0.84762 0.42673 0.0
C5967 C 0.67383 0.86126 0.43699 0.0
H5968 H 0.8113 0.49133 0.64639 0.0
H5969 H 0.85606 0.46004 0.64133 0.0
H5970 H 0.83837 0.43582 0.64098 0.0
H5971 H 0.80968 0.42216 0.64223 0.0
H5972 H 0.76487 0.45356 0.64686 0.0
H5973 H 0.78256 0.47774 0.64734 0.0
C5974 C 0.81742 0.47928 0.64525 0.0
C5975 C 0.83573 0.47834 0.64378 0.0
C5976 C 0.80681 0.46474 0.64504 0.0
C5977 C 0.84245 0.46199 0.64229 0.0
C5978 C 0.83213 0.44778 0.64219 0.0
C5979 C 0.80356 0.43422 0.64337 0.0
C5980 C 0.7852 0.4352 0.64455 0.0
C5981 C 0.81418 0.44876 0.64354 0.0
C5982 C 0.77849 0.45157 0.64592 0.0
C5983 C 0.78884 0.46575 0.64621 0.0
H5984 H 0.78412 0.57316 0.87064 0.0
H5985 H 0.81993 0.61158 0.87893 0.0
H5986 H 0.84239 0.59097 0.8845 0.0
H5987 H 0.85266 0.56207 0.88718 0.0
H5988 H 0.81815 0.52282 0.87859 0.0
H5989 H 0.79486 0.54334 0.87354 0.0
C5990 C 0.79681 0.57711 0.87365 0.0
C5991 C 0.79989 0.59444 0.87419 0.0
C5992 C 0.81016 0.56484 0.87698 0.0
C5993 C 0.8167 0.59875 0.87825 0.0
C5994 C 0.82975 0.5868 0.88152 0.0
C5995 C 0.84013 0.55779 0.88402 0.0
C5996 C 0.83766 0.54045 0.88315 0.0
C5997 C 0.82675 0.56981 0.8809 0.0
C5998 C 0.82087 0.53575 0.87949 0.0
C5999 C 0.80744 0.54766 0.87647 0.0
H6000 H 0.72103 0.61374 0.1731 0.0
H6001 H 0.76236 0.59233 0.14736 0.0
H6002 H 0.74236 0.57392 0.134 0.0
H6003 H 0.71208 0.56569 0.12801 0.0
H6004 H 0.67167 0.5902 0.15316 0.0
H6005 H 0.69219 0.60566 0.16786 0.0
C6006 C 0.72584 0.60489 0.16473 0.0
C6007 C 0.74328 0.60446 0.16136 0.0
C6008 C 0.7142 0.59507 0.15659 0.0
C6009 C 0.7491 0.59282 0.15045 0.0
C6010 C 0.73756 0.58246 0.14261 0.0
C6011 C 0.7078 0.57443 0.13668 0.0
C6012 C 0.6901 0.57673 0.13917 0.0
C6013 C 0.71991 0.58377 0.14526 0.0
C6014 C 0.68499 0.58813 0.15062 0.0
C6015 C 0.69679 0.59701 0.15923 0.0
H6016 H 0.71822 0.49564 0.40161 0.0
H6017 H 0.67846 0.46844 0.37859 0.0
H6018 H 0.69949 0.44865 0.36919 0.0
H6019 H 0.72869 0.43789 0.36787 0.0
H6020 H 0.76951 0.46285 0.39134 0.0
H6021 H 0.74891 0.48457 0.39959 0.0
C6022 C 0.71412 0.4854 0.39453 0.0
C6023 C 0.69631 0.48382 0.39104 0.0
C6024 C 0.72663 0.47358 0.38899 0.0
C6025 C 0.6917 0.47029 0.38174 0.0
C6026 C 0.70386 0.45883 0.37622 0.0
C6027 C 0.73334 0.44815 0.37465 0.0
C6028 C 0.75101 0.44848 0.37875 0.0
C6029 C 0.7213 0.46024 0.3798 0.0
C6030 C 0.75629 0.46212 0.3876 0.0
C6031 C 0.74433 0.4745 0.39254 0.0
H6032 H 0.57368 0.41362 0.18272 0.0
H6033 H 0.61162 0.40703 0.14818 0.0
H6034 H 0.63372 0.40302 0.16829 0.0
H6035 H 0.64286 0.40085 0.19596 0.0
H6036 H 0.6055 0.40746 0.23106 0.0
H6037 H 0.58313 0.41145 0.21092 0.0
C6038 C 0.58676 0.4113 0.1795 0.0
C6039 C 0.59061 0.41067 0.16341 0.0
C6040 C 0.59978 0.40883 0.19149 0.0
C6041 C 0.60789 0.40757 0.16005 0.0
C6042 C 0.62069 0.40526 0.17173 0.0
C6043 C 0.62994 0.40344 0.19939 0.0
C6044 C 0.62638 0.40405 0.21548 0.0
C6045 C 0.6169 0.40582 0.18754 0.0
C6046 C 0.60908 0.40685 0.21908 0.0
C6047 C 0.59613 0.40923 0.20741 0.0
H6048 H 0.12244 0.87922 0.04541 0.0
H6049 H 0.10667 0.85631 1.00247 0.0
H6050 H 0.11536 0.82928 0.01282 0.0
H6051 H 0.12651 0.81219 0.03449 0.0
H6052 H 0.14126 0.83564 0.07751 0.0
H6053 H 0.13429 0.86251 0.06649 0.0
C6054 C 0.12086 0.86834 0.03827 0.0
C6055 C 0.11375 0.86975 0.02325 0.0
C6056 C 0.12586 0.85296 0.04426 0.0
C6057 C 0.11203 0.85553 0.01411 0.0
C6058 C 0.117 0.84009 0.02002 0.0
C6059 C 0.1282 0.82319 0.04144 0.0
C6060 C 0.13444 0.82186 0.0568 0.0
C6061 C 0.12378 0.83866 0.03514 0.0
C6062 C 0.13678 0.83626 0.06558 0.0
C6063 C 0.13261 0.85165 0.05935 0.0
H6064 H 0.374 0.21425 0.57461 0.0
H6065 H 0.36581 0.18016 0.61135 0.0
H6066 H 0.36784 0.15724 0.5931 0.0
H6067 H 0.37204 0.14591 0.56616 0.0
H6068 H 0.37934 0.17999 0.5293 0.0
H6069 H 0.37755 0.20295 0.54761 0.0
C6070 C 0.37263 0.20184 0.57875 0.0
C6071 C 0.36976 0.19949 0.59487 0.0
C6072 C 0.37368 0.18825 0.56786 0.0
C6073 C 0.36803 0.18293 0.59938 0.0
C6074 C 0.36921 0.16956 0.58877 0.0
C6075 C 0.3733 0.1583 0.56203 0.0
C6076 C 0.37596 0.16065 0.54589 0.0
C6077 C 0.37207 0.1719 0.5729 0.0
C6078 C 0.37731 0.17723 0.54131 0.0
C6079 C 0.37629 0.1906 0.55195 0.0
H6080 H 0.22388 0.54204 0.38148 0.0
H6081 H 0.17933 0.57399 0.3843 0.0
H6082 H 0.19714 0.59801 0.38437 0.0
H6083 H 0.22598 0.61143 0.38324 0.0
H6084 H 0.27065 0.57951 0.3807 0.0
H6085 H 0.25283 0.55549 0.38078 0.0
C6086 C 0.21784 0.55417 0.38209 0.0
C6087 C 0.19943 0.55533 0.38278 0.0
C6088 C 0.22859 0.56868 0.38208 0.0
C6089 C 0.19293 0.57184 0.3836 0.0
C6090 C 0.20336 0.58596 0.38365 0.0
C6091 C 0.23205 0.5993 0.38271 0.0
C6092 C 0.25044 0.59818 0.38196 0.0
C6093 C 0.22133 0.5848 0.38281 0.0
C6094 C 0.25702 0.58167 0.3813 0.0
C6095 C 0.24659 0.56754 0.38134 0.0
H6096 H 0.18172 0.47327 0.13776 0.0
H6097 H 0.21743 0.51234 0.13977 0.0
H6098 H 0.24085 0.49181 0.14434 0.0
H6099 H 0.25148 0.46203 0.14841 0.0
H6100 H 0.21458 0.42392 0.14553 0.0
H6101 H 0.19193 0.44453 0.14089 0.0
C6102 C 0.19459 0.47755 0.13917 0.0
C6103 C 0.19735 0.49483 0.13839 0.0
C6104 C 0.20809 0.46554 0.14179 0.0
C6105 C 0.21447 0.49945 0.14017 0.0
C6106 C 0.22799 0.48754 0.14289 0.0
C6107 C 0.2385 0.45815 0.14678 0.0
C6108 C 0.23519 0.4409 0.14747 0.0
C6109 C 0.22504 0.47044 0.14384 0.0
C6110 C 0.21802 0.43668 0.14514 0.0
C6111 C 0.20484 0.44863 0.14245 0.0
H6112 H 0.28485 0.43769 0.88084 0.0
H6113 H 0.30436 0.43859 0.83492 0.0
H6114 H 0.3287 0.45414 0.84426 0.0
H6115 H 0.34623 0.46489 0.86602 0.0
H6116 H 0.3266 0.46477 0.91195 0.0
H6117 H 0.30086 0.45144 0.90224 0.0
C6118 C 0.29398 0.44202 0.87276 0.0
C6119 C 0.29241 0.43739 0.85705 0.0
C6120 C 0.30837 0.45057 0.87837 0.0
C6121 C 0.3049 0.44243 0.84693 0.0
C6122 C 0.31905 0.45105 0.85235 0.0
C6123 C 0.33633 0.46192 0.87391 0.0
C6124 C 0.33857 0.46554 0.88978 0.0
C6125 C 0.32126 0.45468 0.86814 0.0
C6126 C 0.32535 0.46197 0.89973 0.0
C6127 C 0.31056 0.4544 0.89415 0.0
H6128 H 0.3078 0.59563 0.64905 0.0
H6129 H 0.2671 0.56655 0.63059 0.0
H6130 H 0.28821 0.5447 0.62359 0.0
H6131 H 0.31926 0.53434 0.62148 0.0
H6132 H 0.35857 0.56538 0.64008 0.0
H6133 H 0.33722 0.58562 0.64779 0.0
C6134 C 0.30329 0.58447 0.6436 0.0
C6135 C 0.28551 0.58303 0.64052 0.0
C6136 C 0.31556 0.57217 0.63932 0.0
C6137 C 0.28043 0.56822 0.63346 0.0
C6138 C 0.29267 0.55573 0.62925 0.0
C6139 C 0.32319 0.54552 0.6272 0.0
C6140 C 0.34102 0.54797 0.63 0.0
C6141 C 0.31044 0.55761 0.63188 0.0
C6142 C 0.34536 0.56273 0.63758 0.0
C6143 C 0.33301 0.5745 0.64211 0.0
H6144 H 1.01034 0.13537 0.45342 0.0
H6145 H 0.04562 0.11383 0.4213 0.0
H6146 H 0.0693 0.11891 0.43949 0.0
H6147 H 0.08107 0.13027 0.46487 0.0
H6148 H 0.04582 0.1537 0.49591 0.0
H6149 H 0.02205 0.14713 0.47838 0.0
C6150 C 0.02315 0.1316 0.45033 0.0
C6151 C 0.0256 0.12387 0.43558 0.0
C6152 C 0.03722 0.13497 0.46098 0.0
C6153 C 0.04275 0.11961 0.43226 0.0
C6154 C 0.05655 0.12257 0.44283 0.0
C6155 C 0.0682 0.13376 0.468 0.0
C6156 C 0.06572 0.14235 0.48234 0.0
C6157 C 0.05413 0.13031 0.45732 0.0
C6158 C 0.04862 0.14698 0.4854 0.0
C6159 C 0.03479 0.14323 0.47519 0.0
H6160 H 0.15452 0.83985 0.74654 0.0
H6161 H 0.19635 0.86779 0.73099 0.0
H6162 H 0.20706 0.84389 0.71642 0.0
H6163 H 0.20281 0.81592 0.70618 0.0
H6164 H 0.1618 0.78755 0.72285 0.0
H6165 H 0.15284 0.81053 0.7394 0.0
C6166 C 0.16606 0.84065 0.74006 0.0
C6167 C 0.17438 0.8557 0.73946 0.0
C6168 C 0.17239 0.82672 0.7321 0.0
C6169 C 0.18953 0.85647 0.73134 0.0
C6170 C 0.19569 0.84277 0.72309 0.0
C6171 C 0.19221 0.8146 0.71379 0.0
C6172 C 0.18297 0.80004 0.71327 0.0
C6173 C 0.18702 0.82794 0.72313 0.0
C6174 C 0.16926 0.79851 0.72316 0.0
C6175 C 0.16398 0.81176 0.73246 0.0
H6176 H 0.40508 0.91005 0.96316 0.0
H6177 H 0.42068 0.88501 1.00519 0.0
H6178 H 0.44865 0.8784 0.99454 0.0
H6179 H 0.46899 0.88061 0.97344 0.0
H6180 H 0.45254 0.9045 0.93101 0.0
H6181 H 0.42453 0.91055 0.94154 0.0
C6182 C 0.41463 0.90314 0.96996 0.0
C6183 C 0.41101 0.8982 0.98497 0.0
C6184 C 0.43049 0.89915 0.96366 0.0
C6185 C 0.4233 0.88902 0.99362 0.0
C6186 C 0.43926 0.88525 0.98754 0.0
C6187 C 0.45921 0.88707 0.96653 0.0
C6188 C 0.46278 0.89214 0.95152 0.0
C6189 C 0.44306 0.89039 0.97262 0.0
C6190 C 0.45001 0.90037 0.94257 0.0
C6191 C 0.43404 0.90392 0.94861 0.0
H6192 H 0.38256 0.22697 0.23233 0.0
H6193 H 0.35033 0.19223 0.20916 0.0
H6194 H 0.35312 0.20728 0.18471 0.0
H6195 H 0.36599 0.23024 0.16945 0.0
H6196 H 0.39708 0.26498 0.19426 0.0
H6197 H 0.39349 0.25009 0.21811 0.0
C6198 C 0.37594 0.22264 0.22201 0.0
C6199 C 0.36618 0.20829 0.22288 0.0
C6200 C 0.37755 0.23144 0.20803 0.0
C6201 C 0.35779 0.20318 0.20915 0.0
C6202 C 0.35953 0.21181 0.19505 0.0
C6203 C 0.3719 0.23464 0.18008 0.0
C6204 C 0.38192 0.24899 0.17971 0.0
C6205 C 0.36955 0.22595 0.19424 0.0
C6206 C 0.38932 0.25423 0.19384 0.0
C6207 C 0.38729 0.24562 0.20764 0.0
H6208 H 1.01536 0.89614 0.07148 0.0
H6209 H 0.05512 0.90786 0.10457 0.0
H6210 H 0.07372 0.91486 0.08342 0.0
H6211 H 0.07958 0.91658 0.05479 0.0
H6212 H 0.03944 0.90423 0.02227 0.0
H6213 H 0.02064 0.8989 0.04346 0.0
C6214 C 0.02805 0.90032 0.07421 0.0
C6215 C 0.03351 0.90136 0.09003 0.0
C6216 C 0.03887 0.9044 0.06178 0.0
C6217 C 0.05021 0.90685 0.09281 0.0
C6218 C 0.06099 0.91089 0.08056 0.0
C6219 C 0.06659 0.91317 0.05228 0.0
C6220 C 0.06108 0.9113 0.03649 0.0
C6221 C 0.05559 0.90967 0.06488 0.0
C6222 C 0.04423 0.90617 0.03397 0.0
C6223 C 0.03337 0.90295 0.04623 0.0
H6224 H 0.39832 0.85687 0.25475 0.0
H6225 H 0.37805 0.81805 0.22626 0.0
H6226 H 0.38173 0.7988 0.24777 0.0
H6227 H 0.3909 0.79308 0.27444 0.0
H6228 H 0.40957 0.83232 0.30347 0.0
H6229 H 0.40664 0.85134 0.28179 0.0
C6230 C 0.39453 0.84425 0.25333 0.0
C6231 C 0.38783 0.83885 0.23905 0.0
C6232 C 0.39659 0.83333 0.26573 0.0
C6233 C 0.3832 0.82243 0.23721 0.0
C6234 C 0.38533 0.81145 0.24947 0.0
C6235 C 0.39415 0.80583 0.27612 0.0
C6236 C 0.40041 0.81125 0.29059 0.0
C6237 C 0.39203 0.81677 0.26376 0.0
C6238 C 0.40494 0.82775 0.29241 0.0
C6239 C 0.40313 0.83867 0.28006 0.0
H6240 H 0.48132 0.12285 0.54655 0.0
H6241 H 0.45864 0.08378 0.57142 0.0
H6242 H 0.4363 0.08188 0.55125 0.0
H6243 H 0.42015 0.09569 0.52979 0.0
H6244 H 0.44165 0.13733 0.50782 0.0
H6245 H 0.46787 0.13341 0.5231 0.0
C6246 C 0.47196 0.11341 0.54729 0.0
C6247 C 0.47144 0.10368 0.56058 0.0
C6248 C 0.45873 0.11307 0.53621 0.0
C6249 C 0.45911 0.09159 0.56137 0.0
C6250 C 0.44628 0.09059 0.54991 0.0
C6251 C 0.43067 0.10373 0.5283 0.0
C6252 C 0.42882 0.11714 0.51822 0.0
C6253 C 0.44539 0.102 0.5378 0.0
C6254 C 0.44268 0.12718 0.51587 0.0
C6255 C 0.45768 0.12495 0.52459 0.0
H6256 H 0.1364 0.23446 0.80595 0.0
H6257 H 0.18418 0.20721 0.80978 0.0
H6258 H 0.1915 0.22256 0.8335 0.0
H6259 H 0.18459 0.24461 0.85368 0.0
H6260 H 0.13742 0.27271 0.84818 0.0
H6261 H 0.12989 0.25649 0.82527 0.0
C6262 C 0.14849 0.23179 0.81187 0.0
C6263 C 0.15959 0.21929 0.80565 0.0
C6264 C 0.15281 0.24103 0.82561 0.0
C6265 C 0.17517 0.21645 0.81391 0.0
C6266 C 0.1794 0.22537 0.82766 0.0
C6267 C 0.17256 0.24711 0.84761 0.0
C6268 C 0.1615 0.26006 0.85324 0.0
C6269 C 0.16836 0.23777 0.83376 0.0
C6270 C 0.14622 0.26298 0.8446 0.0
C6271 C 0.14188 0.25363 0.83129 0.0
H6272 H 0.47868 0.0807 0.12681 0.0
H6273 H 0.4566 0.11901 0.15508 0.0
H6274 H 0.43104 0.10276 0.15792 0.0
H6275 H 0.41379 0.07686 0.15239 0.0
H6276 H 0.43717 0.03898 0.12415 0.0
H6277 H 0.46201 0.05543 0.12149 0.0
C6278 C 0.46838 0.08567 0.13366 0.0
C6279 C 0.4703 0.1016 0.14066 0.0
C6280 C 0.45325 0.07602 0.13531 0.0
C6281 C 0.45617 0.10712 0.1494 0.0
C6282 C 0.44125 0.09765 0.15105 0.0
C6283 C 0.42421 0.07206 0.14561 0.0
C6284 C 0.4227 0.05597 0.13856 0.0
C6285 C 0.43939 0.08194 0.14405 0.0
C6286 C 0.43708 0.05083 0.12992 0.0
C6287 C 0.4517 0.06042 0.12832 0.0
H6288 H 0.20234 0.23204 0.37245 0.0
H6289 H 0.16051 0.20185 0.38369 0.0
H6290 H 0.17908 0.17703 0.38086 0.0
H6291 H 0.20803 0.16348 0.37548 0.0
H6292 H 0.2493 0.19487 0.36487 0.0
H6293 H 0.23041 0.219 0.36716 0.0
C6294 C 0.19711 0.22007 0.37429 0.0
C6295 C 0.17969 0.21921 0.37831 0.0
C6296 C 0.20802 0.20573 0.37274 0.0
C6297 C 0.17362 0.20328 0.38058 0.0
C6298 C 0.18438 0.18895 0.37896 0.0
C6299 C 0.21294 0.17557 0.37358 0.0
C6300 C 0.23052 0.1769 0.3699 0.0
C6301 C 0.20173 0.18991 0.37507 0.0
C6302 C 0.23617 0.19299 0.36768 0.0
C6303 C 0.22524 0.207 0.369 0.0
H6304 H 0.1192 0.99358 0.60252 0.0
H6305 H 0.0902 0.02539 0.63277 0.0
H6306 H 0.06977 1.00387 0.63617 0.0
H6307 H 0.06107 0.97543 0.63209 0.0
H6308 H 0.08784 0.94408 0.60001 0.0
H6309 H 0.10803 0.96591 0.59566 0.0
C6310 C 0.10827 0.99586 0.60968 0.0
C6311 C 0.10633 1.01117 0.61742 0.0
C6312 C 0.09619 0.98345 0.61132 0.0
C6313 C 0.09202 1.01388 0.62659 0.0
C6314 C 0.08034 1.0015 0.62861 0.0
C6315 C 0.07118 0.97341 0.62396 0.0
C6316 C 0.07308 0.95796 0.61659 0.0
C6317 C 0.08242 0.98617 0.62124 0.0
C6318 C 0.08613 0.95572 0.60595 0.0
C6319 C 0.09772 0.96824 0.6035 0.0
H6320 H 0.34003 0.80957 0.85864 0.0
H6321 H 0.2922 0.78622 0.85084 0.0
H6322 H 0.277 0.81291 0.85227 0.0
H6323 H 0.27704 0.84276 0.85808 0.0
H6324 H 0.32509 0.86593 0.86633 0.0
H6325 H 0.34028 0.83975 0.86232 0.0
C6326 C 0.32637 0.81043 0.85661 0.0
C6327 C 0.31734 0.79594 0.85413 0.0
C6328 C 0.31763 0.82586 0.8579 0.0
C6329 C 0.2995 0.79721 0.85236 0.0
C6330 C 0.29077 0.81248 0.85337 0.0
C6331 C 0.29083 0.84213 0.85889 0.0
C6332 C 0.29977 0.85646 0.86263 0.0
C6333 C 0.29964 0.82688 0.85653 0.0
C6334 C 0.31772 0.85525 0.86353 0.0
C6335 C 0.3265 0.8402 0.86122 0.0
H6336 H 0.42861 0.9596 0.37912 0.0
H6337 H 0.45811 0.99807 0.39983 0.0
H6338 H 0.48429 0.9813 0.39637 0.0
H6339 H 0.49936 0.95513 0.38765 0.0
H6340 H 0.46963 0.9177 0.36539 0.0
H6341 H 0.44364 0.93439 0.36916 0.0
C6342 C 0.44073 0.96439 0.38297 0.0
C6343 C 0.44099 0.98029 0.39 0.0
C6344 C 0.45602 0.9547 0.38057 0.0
C6345 C 0.45714 0.98604 0.39451 0.0
C6346 C 0.47227 0.97635 0.3925 0.0
C6347 C 0.48724 0.95061 0.38351 0.0
C6348 C 0.48685 0.93483 0.37621 0.0
C6349 C 0.47198 0.96058 0.38556 0.0
C6350 C 0.47072 0.92957 0.371 0.0
C6351 C 0.45567 0.93919 0.37322 0.0
H6352 H 0.2761 0.19535 0.63805 0.0
H6353 H 0.29956 0.19396 0.68364 0.0
H6354 H 0.31821 0.2161 0.67679 0.0
H6355 H 0.33014 0.23322 0.65699 0.0
H6356 H 0.30909 0.23249 0.61048 0.0
H6357 H 0.287 0.21401 0.61851 0.0
C6358 C 0.28494 0.2003 0.64659 0.0
C6359 C 0.28637 0.19326 0.66137 0.0
C6360 C 0.29619 0.21245 0.64231 0.0
C6361 C 0.29818 0.19936 0.67225 0.0
C6362 C 0.3089 0.21192 0.6683 0.0
C6363 C 0.32058 0.22919 0.64865 0.0
C6364 C 0.32131 0.23403 0.63314 0.0
C6365 C 0.30839 0.21815 0.65323 0.0
C6366 C 0.30882 0.22881 0.62247 0.0
C6367 C 0.29623 0.21823 0.62705 0.0
H6368 H 0.12417 0.07919 0.90003 0.0
H6369 H 0.08795 0.04134 0.90685 0.0
H6370 H 0.06469 0.06183 0.90574 0.0
H6371 H 0.05395 0.09037 0.9025 0.0
H6372 H 0.08903 0.1288 0.8946 0.0
H6373 H 0.11299 0.10852 0.8965 0.0
C6374 C 0.1112 0.07541 0.90138 0.0
C6375 C 0.10811 0.05841 0.90362 0.0
C6376 C 0.09748 0.0875 0.90049 0.0
C6377 C 0.09102 0.05406 0.90512 0.0
C6378 C 0.07757 0.06588 0.90449 0.0
C6379 C 0.06682 0.09445 0.90122 0.0
C6380 C 0.06942 0.11136 0.89843 0.0
C6381 C 0.08056 0.08262 0.90212 0.0
C6382 C 0.08639 0.11606 0.89678 0.0
C6383 C 0.10017 0.10435 0.89786 0.0
H6384 H 0.23053 0.82732 0.14357 0.0
H6385 H 0.19451 0.86826 0.14018 0.0
H6386 H 0.17112 0.84922 0.13774 0.0
H6387 H 0.15945 0.82009 0.13682 0.0
H6388 H 0.19559 0.77938 0.14169 0.0
H6389 H 0.21896 0.79845 0.14312 0.0
C6390 C 0.21763 0.83231 0.14227 0.0
C6391 C 0.21513 0.85002 0.1421 0.0
C6392 C 0.20355 0.82086 0.14104 0.0
C6393 C 0.1977 0.85522 0.14046 0.0
C6394 C 0.18396 0.84406 0.139 0.0
C6395 C 0.17239 0.81518 0.13802 0.0
C6396 C 0.17499 0.79747 0.13886 0.0
C6397 C 0.18647 0.8267 0.13926 0.0
C6398 C 0.1924 0.7924 0.1408 0.0
C6399 C 0.20611 0.80355 0.14169 0.0
H6400 H 0.14283 0.44627 0.06659 0.0
H6401 H 0.1738 0.47146 0.03462 0.0
H6402 H 0.17501 0.49505 0.05219 0.0
H6403 H 0.1678 0.50929 0.07703 0.0
H6404 H 0.13429 0.48607 0.10802 0.0
H6405 H 0.13359 0.4618 0.09091 0.0
C6406 C 0.14987 0.45688 0.06336 0.0
C6407 C 0.15837 0.45649 0.04883 0.0
C6408 C 0.15007 0.47116 0.0736 0.0
C6409 C 0.16709 0.47088 0.04534 0.0
C6410 C 0.16782 0.48459 0.05556 0.0
C6411 C 0.16018 0.49903 0.08013 0.0
C6412 C 0.15118 0.50001 0.09432 0.0
C6413 C 0.15941 0.48502 0.06977 0.0
C6414 C 0.14144 0.48619 0.09754 0.0
C6415 C 0.14107 0.47208 0.08759 0.0
H6416 H 0.64944 1.01 0.9272 0.0
H6417 H 0.70397 1.00428 0.92401 0.0
H6418 H 0.70792 0.01817 0.9487 0.0
H6419 H 0.69641 0.03673 0.96801 0.0
H6420 H 0.64214 0.04567 0.97024 0.0
H6421 H 0.63752 0.02635 0.94883 0.0
C6422 C 0.66213 1.01193 0.93193 0.0
C6423 C 0.67638 1.00698 0.92348 0.0
C6424 C 0.66437 0.02081 0.94577 0.0
C6425 C 0.69278 1.00847 0.93011 0.0
C6426 C 0.69508 1.01647 0.9442 0.0
C6427 C 0.68352 0.03406 0.9642 0.0
C6428 C 0.66966 0.04272 0.97059 0.0
C6429 C 0.68103 0.02344 0.95168 0.0
C6430 C 0.65304 0.0393 0.96533 0.0
C6431 C 0.6504 0.02826 0.95311 0.0
H6432 H 0.24752 0.368 0.18532 0.0
H6433 H 0.26009 0.41111 0.21196 0.0
H6434 H 0.2463 0.40006 0.23438 0.0
H6435 H 0.2294 0.37889 0.24624 0.0
H6436 H 0.21364 0.33725 0.21908 0.0
H6437 H 0.22997 0.34674 0.19727 0.0
C6438 C 0.24731 0.37489 0.19608 0.0
C6439 C 0.25495 0.39036 0.19694 0.0
C6440 C 0.23884 0.36864 0.20892 0.0
C6441 C 0.25433 0.39923 0.21092 0.0
C6442 C 0.24647 0.39288 0.2238 0.0
C6443 C 0.2299 0.37165 0.23569 0.0
C6444 C 0.22071 0.35708 0.23449 0.0
C6445 C 0.23859 0.37765 0.22294 0.0
C6446 C 0.22091 0.34828 0.22046 0.0
C6447 C 0.23013 0.3538 0.20793 0.0
H6448 H 0.92796 0.91457 0.46415 0.0
H6449 H 0.90503 0.94115 0.50193 0.0
H6450 H 0.89294 0.96164 0.48397 0.0
H6451 H 0.88777 0.97181 0.45739 0.0
H6452 H 0.91246 0.94718 0.41957 0.0
H6453 H 0.92483 0.92636 0.43747 0.0
C6454 C 0.92048 0.92495 0.46849 0.0
C6455 C 0.91755 0.92616 0.48458 0.0
C6456 C 0.91372 0.93708 0.45798 0.0
C6457 C 0.90777 0.93981 0.4898 0.0
C6458 C 0.9007 0.95156 0.47945 0.0
C6459 C 0.89594 0.96195 0.45303 0.0
C6460 C 0.89901 0.96108 0.43701 0.0
C6461 C 0.90343 0.95029 0.46351 0.0
C6462 C 0.90983 0.94825 0.43174 0.0
C6463 C 0.91689 0.93628 0.44203 0.0
H6464 H 0.83777 0.14528 0.21435 0.0
H6465 H 0.81442 0.11411 0.24718 0.0
H6466 H 0.79116 0.10906 0.22868 0.0
H6467 H 0.77657 0.11331 0.20293 0.0
H6468 H 0.79789 0.14654 0.1708 0.0
H6469 H 0.82209 0.15078 0.18879 0.0
C6470 C 0.82764 0.13736 0.21751 0.0
C6471 C 0.82831 0.13009 0.23254 0.0
C6472 C 0.81358 0.13479 0.20671 0.0
C6473 C 0.81462 0.12003 0.23602 0.0
C6474 C 0.80115 0.11706 0.2253 0.0
C6475 C 0.78647 0.12151 0.19977 0.0
C6476 C 0.7851 0.1294 0.1851 0.0
C6477 C 0.80034 0.12436 0.21057 0.0
C6478 C 0.79828 0.14011 0.18171 0.0
C6479 C 0.81228 0.14258 0.19214 0.0
H6480 H 0.43981 0.57778 0.56351 0.0
H6481 H 0.41135 0.5631 0.52268 0.0
H6482 H 0.39453 0.54502 0.53809 0.0
H6483 H 0.38689 0.53395 0.56346 0.0
H6484 H 0.41772 0.54558 0.6037 0.0
H6485 H 0.43428 0.56422 0.58848 0.0
C6486 C 0.43013 0.5704 0.55795 0.0
C6487 C 0.42702 0.57182 0.54185 0.0
C6488 C 0.42063 0.55962 0.56689 0.0
C6489 C 0.41432 0.56215 0.53494 0.0
C6490 C 0.40451 0.55188 0.5438 0.0
C6491 C 0.39722 0.5406 0.56889 0.0
C6492 C 0.40068 0.53872 0.58487 0.0
C6493 C 0.40737 0.55065 0.55983 0.0
C6494 C 0.41445 0.54708 0.59157 0.0
C6495 C 0.42405 0.55768 0.5828 0.0
H6496 H 0.22182 0.67486 0.31605 0.0
H6497 H 0.19837 0.6337 0.33694 0.0
H6498 H 0.22576 0.62383 0.34761 0.0
H6499 H 0.25619 0.62691 0.351 0.0
H6500 H 0.27962 0.67033 0.33462 0.0
H6501 H 0.25257 0.67936 0.32179 0.0
C6502 C 0.22286 0.66379 0.32297 0.0
C6503 C 0.20832 0.65482 0.32565 0.0
C6504 C 0.2386 0.6586 0.32966 0.0
C6505 C 0.20951 0.64064 0.33477 0.0
C6506 C 0.22513 0.63499 0.3408 0.0
C6507 C 0.25533 0.63834 0.34461 0.0
C6508 C 0.26966 0.64791 0.34348 0.0
C6509 C 0.23972 0.64385 0.33828 0.0
C6510 C 0.26858 0.66279 0.33539 0.0
C6511 C 0.25317 0.66794 0.32817 0.0
H6512 H 0.32087 0.3749 0.76586 0.0
H6513 H 0.35573 0.35022 0.79796 0.0
H6514 H 0.33657 0.35655 0.8191 0.0
H6515 H 0.30942 0.36963 0.82937 0.0
H6516 H 0.27532 0.39517 0.79713 0.0
H6517 H 0.29409 0.38806 0.77604 0.0
C6518 C 0.32431 0.37071 0.77742 0.0
C6519 C 0.34014 0.36181 0.77984 0.0
C6520 C 0.31307 0.37467 0.78994 0.0
C6521 C 0.34395 0.35699 0.79528 0.0
C6522 C 0.33283 0.36065 0.80758 0.0
C6523 C 0.30598 0.37362 0.81775 0.0
C6524 C 0.29044 0.38303 0.81528 0.0
C6525 C 0.31727 0.36958 0.80522 0.0
C6526 C 0.28684 0.38798 0.79985 0.0
C6527 C 0.29773 0.38387 0.78755 0.0
H6528 H 0.98834 0.87632 0.53797 0.0
H6529 H 0.94939 0.91266 0.54872 0.0
H6530 H 0.96711 0.92262 0.57043 0.0
H6531 H 0.99442 0.92131 0.58704 0.0
H6532 H 0.03423 0.88673 0.57394 0.0
H6533 H 1.01591 0.87622 0.55317 0.0
C6534 C 0.98361 0.88646 0.54498 0.0
C6535 C 0.96702 0.89341 0.5414 0.0
C6536 C 0.99434 0.89264 0.55739 0.0
C6537 C 0.96174 0.90673 0.5509 0.0
C6538 C 0.97204 0.91253 0.56347 0.0
C6539 C 0.99918 0.91148 0.57968 0.0
C6540 C 1.01616 0.90496 0.58254 0.0
C6541 C 0.98847 0.90563 0.56699 0.0
C6542 C 0.02158 0.89227 0.57239 0.0
C6543 C 1.01095 0.88613 0.56034 0.0
H6544 H 0.83603 0.21484 0.31982 0.0
H6545 H 0.87352 0.24518 0.29975 0.0
H6546 H 0.88097 0.2232 0.28166 0.0
H6547 H 0.87934 0.19426 0.27378 0.0
H6548 H 0.83994 0.16464 0.29142 0.0
H6549 H 0.8307 0.18737 0.30828 0.0
C6550 C 0.84551 0.21676 0.3112 0.0
C6551 C 0.85428 0.23159 0.3112 0.0
C6552 C 0.84963 0.20408 0.30066 0.0
C6553 C 0.86648 0.23396 0.29994 0.0
C6554 C 0.87089 0.22131 0.28969 0.0
C6555 C 0.86859 0.19284 0.28118 0.0
C6556 C 0.86078 0.17757 0.28189 0.0
C6557 C 0.86295 0.20615 0.2903 0.0
C6558 C 0.84654 0.17606 0.29113 0.0
C6559 C 0.8412 0.18911 0.30068 0.0
H6560 H 0.6122 0.139 0.02102 0.0
H6561 H 0.63473 0.10655 0.05567 0.0
H6562 H 0.60922 0.10992 0.07114 0.0
H6563 H 0.58056 0.12223 0.07477 0.0
H6564 H 0.55752 0.15358 0.03954 0.0
H6565 H 0.58323 0.15056 0.02424 0.0
C6566 C 0.61146 0.13261 0.03193 0.0
C6567 C 0.62524 0.12255 0.03725 0.0
C6568 C 0.59673 0.13448 0.04063 0.0
C6569 C 0.6242 0.1143 0.05135 0.0
C6570 C 0.60966 0.11627 0.0602 0.0
C6571 C 0.58126 0.12845 0.06377 0.0
C6572 C 0.56733 0.13822 0.05828 0.0
C6573 C 0.59589 0.12638 0.05497 0.0
C6574 C 0.56816 0.14602 0.04393 0.0
C6575 C 0.58282 0.14429 0.03523 0.0
H6576 H 0.66975 0.80446 0.8524 0.0
H6577 H 0.63557 0.77257 0.82746 0.0
H6578 H 0.63885 0.78825 0.8041 0.0
H6579 H 0.65061 0.81114 0.79021 0.0
H6580 H 0.68612 0.84287 0.81327 0.0
H6581 H 0.6833 0.82726 0.83739 0.0
C6582 C 0.66308 0.80088 0.84185 0.0
C6583 C 0.65233 0.78705 0.84205 0.0
C6584 C 0.66527 0.81001 0.82789 0.0
C6585 C 0.64396 0.78287 0.82801 0.0
C6586 C 0.64579 0.79194 0.81448 0.0
C6587 C 0.65789 0.81471 0.80045 0.0
C6588 C 0.6686 0.82836 0.79966 0.0
C6589 C 0.65633 0.80553 0.81422 0.0
C6590 C 0.67785 0.83248 0.81326 0.0
C6591 C 0.67613 0.82353 0.82716 0.0
H6592 H 0.99216 0.11526 0.92776 0.0
H6593 H 1.01502 0.15984 0.94425 0.0
H6594 H 1.00131 0.15723 0.96883 0.0
H6595 H 0.98308 0.14268 0.9864 0.0
H6596 H 0.96123 0.09704 0.97202 0.0
H6597 H 0.97395 0.09971 0.94648 0.0
C6598 C 0.99409 0.12446 0.93668 0.0
C6599 C 1.00486 0.13788 0.9337 0.0
C6600 C 0.98623 0.12271 0.95146 0.0
C6601 C 1.00708 0.14938 0.94581 0.0
C6602 C 0.99914 0.14791 0.96006 0.0
C6603 C 0.981 0.1332 0.97776 0.0
C6604 C 0.97073 0.11976 0.98144 0.0
C6605 C 0.98875 0.13465 0.96313 0.0
C6606 C 0.9686 0.10772 0.96978 0.0
C6607 C 0.97606 0.10923 0.95505 0.0
H6608 H 0.64279 0.17402 0.76794 0.0
H6609 H 0.66942 0.21072 0.7945 0.0
H6610 H 0.66713 0.22956 0.7727 0.0
H6611 H 0.65571 0.23632 0.74707 0.0
H6612 H 0.6298 0.19964 0.71985 0.0
H6613 H 0.63324 0.18017 0.74118 0.0
C6614 C 0.64829 0.18606 0.76884 0.0
C6615 C 0.65613 0.19109 0.78277 0.0
C6616 C 0.64676 0.1969 0.75631 0.0
C6617 C 0.66323 0.20667 0.78387 0.0
C6618 C 0.66187 0.21746 0.77146 0.0
C6619 C 0.6511 0.22397 0.74563 0.0
C6620 C 0.64248 0.21948 0.73188 0.0
C6621 C 0.65338 0.21281 0.75776 0.0
C6622 C 0.63623 0.20352 0.73041 0.0
C6623 C 0.63833 0.19233 0.74254 0.0
H6624 H 0.59358 0.91902 0.51017 0.0
H6625 H 0.63076 0.91875 0.47466 0.0
H6626 H 0.60848 0.92446 0.45506 0.0
H6627 H 0.57839 0.92453 0.44775 0.0
H6628 H 0.54065 0.92178 0.48275 0.0
H6629 H 0.56306 0.92248 0.50296 0.0
C6630 C 0.59671 0.92071 0.49817 0.0
C6631 C 0.6137 0.91907 0.49377 0.0
C6632 C 0.5837 0.92323 0.48694 0.0
C6633 C 0.61781 0.92078 0.47827 0.0
C6634 C 0.60503 0.92376 0.46707 0.0
C6635 C 0.57499 0.92474 0.45981 0.0
C6636 C 0.55794 0.92305 0.46379 0.0
C6637 C 0.58792 0.92444 0.47122 0.0
C6638 C 0.55374 0.92299 0.47945 0.0
C6639 C 0.56654 0.92328 0.49097 0.0
H6640 H 0.85226 0.78954 0.16796 0.0
H6641 H 0.89715 0.75859 0.1757 0.0
H6642 H 0.90481 0.77484 0.19862 0.0
H6643 H 0.89904 0.79801 0.21723 0.0
H6644 H 0.85313 0.82782 0.21094 0.0
H6645 H 0.84588 0.81227 0.18739 0.0
C6646 C 0.86378 0.78634 0.17459 0.0
C6647 C 0.87416 0.7726 0.1696 0.0
C6648 C 0.86802 0.79572 0.18836 0.0
C6649 C 0.88885 0.76889 0.17885 0.0
C6650 C 0.89327 0.77828 0.19213 0.0
C6651 C 0.88739 0.80118 0.21078 0.0
C6652 C 0.87685 0.81456 0.21622 0.0
C6653 C 0.883 0.79175 0.19715 0.0
C6654 C 0.86177 0.81798 0.20736 0.0
C6655 C 0.85755 0.80893 0.19373 0.0
H6656 H 0.58464 0.92286 0.87195 0.0
H6657 H 0.54878 0.95481 0.89534 0.0
H6658 H 0.56989 0.97605 0.89741 0.0
H6659 H 0.59912 0.98673 0.893 0.0
H6660 H 0.63552 0.95524 0.86989 0.0
H6661 H 0.61439 0.93379 0.86747 0.0
C6662 C 0.58125 0.93443 0.87748 0.0
C6663 C 0.56431 0.93658 0.88345 0.0
C6664 C 0.59399 0.94721 0.8788 0.0
C6665 C 0.56114 0.95212 0.89054 0.0
C6666 C 0.57347 0.96456 0.89178 0.0
C6667 C 0.60265 0.97521 0.88743 0.0
C6668 C 0.61965 0.97326 0.88169 0.0
C6669 C 0.59006 0.96244 0.88604 0.0
C6670 C 0.62306 0.95777 0.87455 0.0
C6671 C 0.61072 0.94522 0.87312 0.0
H6672 H 0.79729 0.83853 0.65459 0.0
H6673 H 0.8308 0.87851 0.64772 0.0
H6674 H 0.8544 0.859 0.64312 0.0
H6675 H 0.8665 0.82975 0.64094 0.0
H6676 H 0.83258 0.79024 0.64902 0.0
H6677 H 0.80928 0.80983 0.65306 0.0
C6678 C 0.80971 0.84309 0.6521 0.0
C6679 C 0.81176 0.86041 0.65165 0.0
C6680 C 0.82371 0.83156 0.64958 0.0
C6681 C 0.82835 0.86552 0.64838 0.0
C6682 C 0.8421 0.85421 0.64565 0.0
C6683 C 0.85407 0.82534 0.64359 0.0
C6684 C 0.85185 0.80799 0.64448 0.0
C6685 C 0.84011 0.83705 0.64623 0.0
C6686 C 0.83525 0.80316 0.64807 0.0
C6687 C 0.82161 0.81452 0.65045 0.0
H6688 H 0.92002 0.03812 0.41922 0.0
H6689 H 0.94214 1.00894 0.38272 0.0
H6690 H 0.96247 0.03038 0.37819 0.0
H6691 H 0.97302 0.05813 0.38348 0.0
H6692 H 0.95344 0.08634 0.4217 0.0
H6693 H 0.93324 0.06472 0.42672 0.0
C6694 C 0.92946 0.03636 0.41042 0.0
C6695 C 0.92946 0.02181 0.40131 0.0
C6696 C 0.94152 0.04869 0.40811 0.0
C6697 C 0.94186 0.01981 0.39 0.0
C6698 C 0.95346 0.03217 0.38734 0.0
C6699 C 0.96446 0.05953 0.39304 0.0
C6700 C 0.96459 0.07414 0.402 0.0
C6701 C 0.95328 0.04675 0.39616 0.0
C6702 C 0.95355 0.07547 0.41446 0.0
C6703 C 0.94196 0.06303 0.41733 0.0
H6704 H 0.70029 0.22905 0.15846 0.0
H6705 H 0.74916 0.24863 0.17046 0.0
H6706 H 0.76235 0.22104 0.1696 0.0
H6707 H 0.76062 0.19154 0.16315 0.0
H6708 H 0.71178 0.17172 0.15098 0.0
H6709 H 0.6981 0.19888 0.15427 0.0
C6710 C 0.71366 0.22718 0.16151 0.0
C6711 C 0.7236 0.24093 0.16497 0.0
C6712 C 0.72132 0.21115 0.16061 0.0
C6713 C 0.74113 0.23828 0.16811 0.0
C6714 C 0.74874 0.22248 0.16745 0.0
C6715 C 0.74697 0.19309 0.16131 0.0
C6716 C 0.73737 0.17945 0.15669 0.0
C6717 C 0.73907 0.20885 0.16331 0.0
C6718 C 0.71962 0.18186 0.15452 0.0
C6719 C 0.71172 0.19747 0.15639 0.0
H6720 H 0.56417 0.10781 0.62298 0.0
H6721 H 0.53766 0.08389 0.65893 0.0
H6722 H 0.55814 0.0603 0.65775 0.0
H6723 H 0.58471 0.04641 0.64673 0.0
H6724 H 0.61079 0.07184 0.61131 0.0
H6725 H 0.58961 0.09431 0.61201 0.0
C6726 C 0.56271 0.09745 0.63059 0.0
C6727 C 0.54907 0.09791 0.64104 0.0
C6728 C 0.57465 0.08388 0.62986 0.0
C6729 C 0.5478 0.08415 0.65073 0.0
C6730 C 0.55962 0.07055 0.65003 0.0
C6731 C 0.58558 0.0567 0.63894 0.0
C6732 C 0.59954 0.05699 0.62873 0.0
C6733 C 0.57322 0.07018 0.63962 0.0
C6734 C 0.60038 0.0709 0.61916 0.0
C6735 C 0.5882 0.08393 0.6196 0.0
H6736 H 0.7366 0.84226 0.34719 0.0
H6737 H 0.77047 0.84571 0.387 0.0
H6738 H 0.75595 0.82352 0.39958 0.0
H6739 H 0.73144 0.8052 0.40028 0.0
H6740 H 0.69897 0.80088 0.35952 0.0
H6741 H 0.71517 0.8211 0.34629 0.0
C6742 C 0.74095 0.83791 0.35849 0.0
C6743 C 0.75441 0.84558 0.36622 0.0
C6744 C 0.7327 0.82508 0.36556 0.0
C6745 C 0.76013 0.83984 0.38081 0.0
C6746 C 0.75177 0.82725 0.38806 0.0
C6747 C 0.72816 0.80851 0.38843 0.0
C6748 C 0.71381 0.80191 0.38105 0.0
C6749 C 0.73772 0.82007 0.38071 0.0
C6750 C 0.70981 0.80604 0.36558 0.0
C6751 C 0.71904 0.81763 0.35796 0.0
H6752 H 0.94598 0.98147 0.11189 0.0
H6753 H 0.90147 0.95657 0.12611 0.0
H6754 H 0.91845 0.93143 0.13049 0.0
H6755 H 0.9463 0.91602 0.13111 0.0
H6756 H 0.99044 0.93918 0.11413 0.0
H6757 H 0.97357 0.96485 0.10988 0.0
C6758 C 0.93997 0.97056 0.11593 0.0
C6759 C 0.92225 0.97138 0.11895 0.0
C6760 C 0.94988 0.95551 0.11783 0.0
C6761 C 0.91494 0.95675 0.12387 0.0
C6762 C 0.92472 0.94216 0.12635 0.0
C6763 C 0.95219 0.92657 0.12618 0.0
C6764 C 0.96973 0.92539 0.12279 0.0
C6765 C 0.94223 0.94132 0.12345 0.0
C6766 C 0.977 0.93944 0.11661 0.0
C6767 C 0.96731 0.95426 0.1143 0.0
H6768 H 0.87849 0.21172 0.87575 0.0
H6769 H 0.84862 0.25138 0.89552 0.0
H6770 H 0.82413 0.23332 0.89649 0.0
H6771 H 0.80995 0.20551 0.89151 0.0
H6772 H 0.841 0.1658 0.87307 0.0
H6773 H 0.86502 0.18401 0.87197 0.0
C6774 C 0.86672 0.21663 0.8804 0.0
C6775 C 0.86624 0.23364 0.88555 0.0
C6776 C 0.85224 0.20575 0.88115 0.0
C6777 C 0.85024 0.23883 0.89145 0.0
C6778 C 0.8359 0.22826 0.89197 0.0
C6779 C 0.82189 0.20063 0.88719 0.0
C6780 C 0.82274 0.18349 0.88224 0.0
C6781 C 0.8365 0.21156 0.88681 0.0
C6782 C 0.83904 0.17836 0.87697 0.0
C6783 C 0.85314 0.18904 0.87632 0.0
H6784 H 0.88188 0.56017 0.98087 0.0
H6785 H 0.87427 0.60156 0.95034 0.0
H6786 H 0.87617 0.58313 0.92797 0.0
H6787 H 0.87915 0.55462 0.91622 0.0
H6788 H 0.88644 0.51332 0.94677 0.0
H6789 H 0.88569 0.53188 0.96916 0.0
C6790 C 0.88068 0.5653 0.96936 0.0
C6791 C 0.87792 0.58274 0.96782 0.0
C6792 C 0.88191 0.55438 0.95613 0.0
C6793 C 0.87646 0.58853 0.95243 0.0
C6794 C 0.87756 0.57784 0.9394 0.0
C6795 C 0.88107 0.54963 0.92773 0.0
C6796 C 0.88351 0.53217 0.92936 0.0
C6797 C 0.88029 0.56065 0.94095 0.0
C6798 C 0.88509 0.52643 0.94472 0.0
C6799 C 0.88448 0.53718 0.95772 0.0
H6800 H 0.3803 0.99066 0.0523 0.0
H6801 H 0.32544 0.99004 0.05306 0.0
H6802 H 0.32552 1.00711 0.07626 0.0
H6803 H 0.34123 0.01883 0.09803 0.0
H6804 H 0.39604 0.01966 0.0979 0.0
H6805 H 0.39601 1.00572 0.0727 0.0
C6806 C 0.36839 0.99445 0.05749 0.0
C6807 C 0.35291 0.98899 0.05114 0.0
C6808 C 0.36855 1.00399 0.071 0.0
C6809 C 0.3375 0.99418 0.05772 0.0
C6810 C 0.33755 1.00381 0.07105 0.0
C6811 C 0.35318 1.01617 0.09239 0.0
C6812 C 0.36866 0.01958 0.09997 0.0
C6813 C 0.353 1.00829 0.07804 0.0
C6814 C 0.38401 1.01649 0.09245 0.0
C6815 C 0.38398 1.00864 0.07805 0.0
H6816 H 0.77969 0.66546 0.83134 0.0
H6817 H 0.77649 0.61717 0.81089 0.0
H6818 H 0.79153 0.62634 0.78834 0.0
H6819 H 0.80717 0.64762 0.77493 0.0
H6820 H 0.81209 0.6954 0.79607 0.0
H6821 H 0.79473 0.68707 0.8175 0.0
C6822 C 0.78219 0.65699 0.8219 0.0
C6823 C 0.7769 0.64061 0.82287 0.0
C6824 C 0.79112 0.66232 0.80894 0.0
C6825 C 0.78039 0.62981 0.81053 0.0
C6826 C 0.78899 0.63507 0.79757 0.0
C6827 C 0.80404 0.65637 0.78399 0.0
C6828 C 0.8107 0.67227 0.78364 0.0
C6829 C 0.79454 0.65126 0.79666 0.0
C6830 C 0.80695 0.6832 0.79584 0.0
C6831 C 0.79712 0.67838 0.80822 0.0
H6832 H 0.107 0.11807 0.5575 0.0
H6833 H 0.13119 0.09245 0.51983 0.0
H6834 H 0.14359 0.07207 0.5378 0.0
H6835 H 0.14873 0.06181 0.56448 0.0
H6836 H 0.12229 0.08536 0.6019 0.0
H6837 H 0.10978 0.106 0.58401 0.0
C6838 C 0.11478 0.1079 0.55317 0.0
C6839 C 0.11802 0.10694 0.53714 0.0
C6840 C 0.12167 0.09581 0.56365 0.0
C6841 C 0.12822 0.09357 0.53193 0.0
C6842 C 0.13547 0.08189 0.54228 0.0
C6843 C 0.14015 0.07141 0.56874 0.0
C6844 C 0.13668 0.07205 0.58469 0.0
C6845 C 0.13247 0.08294 0.5582 0.0
C6846 C 0.1253 0.0845 0.58981 0.0
C6847 C 0.11813 0.09636 0.57952 0.0
H6848 H 0.2601 0.92171 0.81681 0.0
H6849 H 0.2384 0.8891 0.84928 0.0
H6850 H 0.2143 0.88468 0.83128 0.0
H6851 H 0.19884 0.88981 0.80566 0.0
H6852 H 0.22263 0.91986 0.77222 0.0
H6853 H 0.2458 0.92533 0.79079 0.0
C6854 C 0.25013 0.91362 0.82004 0.0
C6855 C 0.2513 0.90601 0.83485 0.0
C6856 C 0.23637 0.91057 0.80918 0.0
C6857 C 0.23809 0.89539 0.83831 0.0
C6858 C 0.22417 0.89279 0.82786 0.0
C6859 C 0.20907 0.89756 0.80238 0.0
C6860 C 0.20859 0.90442 0.78721 0.0
C6861 C 0.22304 0.90029 0.81318 0.0
C6862 C 0.22235 0.91427 0.78352 0.0
C6863 C 0.23574 0.91748 0.79427 0.0
H6864 H 0.62875 0.46343 0.48849 0.0
H6865 H 0.58239 0.45935 0.46119 0.0
H6866 H 0.59388 0.47678 0.44123 0.0
H6867 H 0.61796 0.49225 0.43075 0.0
H6868 H 0.66499 0.49391 0.45753 0.0
H6869 H 0.65252 0.4785 0.47817 0.0
C6870 C 0.62096 0.46667 0.47836 0.0
C6871 C 0.60449 0.46033 0.47662 0.0
C6872 C 0.62795 0.47615 0.46659 0.0
C6873 C 0.59494 0.46424 0.46305 0.0
C6874 C 0.60159 0.47413 0.45153 0.0
C6875 C 0.62544 0.48928 0.44113 0.0
C6876 C 0.64246 0.49438 0.4425 0.0
C6877 C 0.61821 0.48 0.45303 0.0
C6878 C 0.65193 0.49022 0.45604 0.0
C6879 C 0.64477 0.4814 0.46794 0.0
H6880 H 0.76918 0.36298 0.67138 0.0
H6881 H 0.75694 0.40485 0.70025 0.0
H6882 H 0.78226 0.39886 0.71655 0.0
H6883 H 0.81047 0.38557 0.71898 0.0
H6884 H 0.82543 0.34764 0.68663 0.0
H6885 H 0.79657 0.34812 0.67516 0.0
C6886 C 0.77201 0.37066 0.68135 0.0
C6887 C 0.76166 0.38461 0.68441 0.0
C6888 C 0.78721 0.36792 0.68985 0.0
C6889 C 0.76502 0.39422 0.69757 0.0
C6890 C 0.7795 0.39084 0.70681 0.0
C6891 C 0.80723 0.37705 0.70974 0.0
C6892 C 0.81987 0.36656 0.7036 0.0
C6893 C 0.79112 0.37829 0.70254 0.0
C6894 C 0.81576 0.35579 0.69147 0.0
C6895 C 0.79934 0.35613 0.68489 0.0
H6896 H 0.75468 0.65002 0.22465 0.0
H6897 H 0.72716 0.66767 0.18407 0.0
H6898 H 0.7029 0.67596 0.19996 0.0
H6899 H 0.68869 0.67833 0.22591 0.0
H6900 H 0.71741 0.66206 0.26646 0.0
H6901 H 0.74116 0.65348 0.25044 0.0
C6902 C 0.74342 0.65569 0.21917 0.0
C6903 C 0.7432 0.658 0.20279 0.0
C6904 C 0.72933 0.66087 0.22862 0.0
C6905 C 0.72817 0.66558 0.1964 0.0
C6906 C 0.71409 0.67038 0.20562 0.0
C6907 C 0.70014 0.67302 0.23136 0.0
C6908 C 0.70071 0.67111 0.24785 0.0
C6909 C 0.71438 0.66815 0.22184 0.0
C6910 C 0.71607 0.66402 0.25412 0.0
C6911 C 0.72988 0.65896 0.24482 0.0
H6912 H 0.54424 0.65534 0.98583 0.0
H6913 H 0.58671 0.62578 0.96991 0.0
H6914 H 0.56904 0.61579 0.94819 0.0
H6915 H 0.54097 0.61532 0.93287 0.0
H6916 H 0.49786 0.64253 0.95085 0.0
H6917 H 0.51585 0.65309 0.97191 0.0
C6918 C 0.54974 0.64666 0.97769 0.0
C6919 C 0.5673 0.64165 0.97986 0.0
C6920 C 0.53909 0.64033 0.96524 0.0
C6921 C 0.57358 0.63015 0.96892 0.0
C6922 C 0.56331 0.62435 0.95631 0.0
C6923 C 0.53537 0.62346 0.94142 0.0
C6924 C 0.51756 0.62791 0.9398 0.0
C6925 C 0.54596 0.62931 0.9542 0.0
C6926 C 0.51114 0.63855 0.9514 0.0
C6927 C 0.5216 0.64475 0.96361 0.0
H6928 H 0.65773 0.34002 0.23871 0.0
H6929 H 0.70005 0.37015 0.22864 0.0
H6930 H 0.71122 0.34884 0.21115 0.0
H6931 H 0.70778 0.32229 0.19746 0.0
H6932 H 0.66663 0.29136 0.20942 0.0
H6933 H 0.65645 0.3121 0.22774 0.0
C6934 C 0.66946 0.34188 0.23276 0.0
C6935 C 0.67779 0.35686 0.23458 0.0
C6936 C 0.67609 0.32934 0.22317 0.0
C6937 C 0.69318 0.35893 0.2271 0.0
C6938 C 0.69961 0.34669 0.21718 0.0
C6939 C 0.69678 0.31996 0.2043 0.0
C6940 C 0.68796 0.30527 0.202 0.0
C6941 C 0.69101 0.33194 0.21493 0.0
C6942 C 0.67376 0.30244 0.21101 0.0
C6943 C 0.66782 0.31439 0.2214 0.0
H6944 H 0.95946 0.37849 0.4574 0.0
H6945 H 0.9677 0.43019 0.46455 0.0
H6946 H 0.94103 0.43311 0.47825 0.0
H6947 H 0.91483 0.42116 0.48743 0.0
H6948 H 0.90617 0.36985 0.47964 0.0
H6949 H 0.93349 0.36643 0.46702 0.0
C6950 C 0.95538 0.39039 0.46193 0.0
C6951 C 0.96553 0.4041 0.45995 0.0
C6952 C 0.94001 0.39199 0.46976 0.0
C6953 C 0.96021 0.41941 0.46607 0.0
C6954 C 0.94491 0.42112 0.47382 0.0
C6955 C 0.91907 0.40923 0.48307 0.0
C6956 C 0.90886 0.39558 0.48488 0.0
C6957 C 0.93467 0.40752 0.47564 0.0
C6958 C 0.91425 0.38024 0.47906 0.0
C6959 C 0.92973 0.3784 0.4716 0.0
H6960 H 0.86175 0.73149 0.66932 0.0
H6961 H 0.89735 0.76327 0.69256 0.0
H6962 H 0.89323 0.74924 0.71678 0.0
H6963 H 0.88043 0.72766 0.73176 0.0
H6964 H 0.84376 0.69607 0.71014 0.0
H6965 H 0.84724 0.71022 0.68533 0.0
C6966 C 0.86857 0.7354 0.67969 0.0
C6967 C 0.88 0.74864 0.67878 0.0
C6968 C 0.86591 0.72726 0.69406 0.0
C6969 C 0.8885 0.75334 0.69257 0.0
C6970 C 0.88617 0.74523 0.70658 0.0
C6971 C 0.873 0.72385 0.7217 0.0
C6972 C 0.86177 0.71066 0.72308 0.0
C6973 C 0.875 0.73216 0.70751 0.0
C6974 C 0.85238 0.70616 0.70969 0.0
C6975 C 0.85448 0.71426 0.6954 0.0
H6976 H 0.5108 0.3966 0.56874 0.0
H6977 H 0.55111 0.40526 0.60224 0.0
H6978 H 0.57006 0.41228 0.58144 0.0
H6979 H 0.57621 0.41484 0.55297 0.0
H6980 H 0.53561 0.40585 0.51985 0.0
H6981 H 0.5164 0.40047 0.54075 0.0
C6982 C 0.52368 0.40013 0.57162 0.0
C6983 C 0.52915 0.40027 0.5875 0.0
C6984 C 0.53478 0.40429 0.55936 0.0
C6985 C 0.54613 0.40494 0.59045 0.0
C6986 C 0.55714 0.409 0.5784 0.0
C6987 C 0.56304 0.4122 0.55026 0.0
C6988 C 0.55756 0.41131 0.53438 0.0
C6989 C 0.55176 0.40868 0.56268 0.0
C6990 C 0.54043 0.40708 0.53163 0.0
C6991 C 0.52931 0.40381 0.54373 0.0
H6992 H 0.87564 0.30103 0.77813 0.0
H6993 H 0.90703 0.33645 0.80164 0.0
H6994 H 0.90273 0.35539 0.77997 0.0
H6995 H 0.89116 0.36124 0.75377 0.0
H6996 H 0.86167 0.32478 0.72973 0.0
H6997 H 0.86422 0.30675 0.75219 0.0
C6998 C 0.88175 0.3128 0.77845 0.0
C6999 C 0.89178 0.31725 0.7914 0.0
C7000 C 0.87954 0.32341 0.76588 0.0
C7001 C 0.89917 0.33276 0.79183 0.0
C7002 C 0.89678 0.34356 0.77943 0.0
C7003 C 0.8852 0.3494 0.75356 0.0
C7004 C 0.87627 0.34424 0.74023 0.0
C7005 C 0.88711 0.33895 0.76634 0.0
C7006 C 0.86867 0.32889 0.73992 0.0
C7007 C 0.87013 0.3186 0.75272 0.0
H7008 H 0.90316 0.63501 0.04078 0.0
H7009 H 0.92519 0.59354 0.01653 0.0
H7010 H 0.94755 0.59046 0.03687 0.0
H7011 H 0.96331 0.60317 0.05876 0.0
H7012 H 0.94172 0.64676 0.08056 0.0
H7013 H 0.91634 0.64513 0.06424 0.0
C7014 C 0.91252 0.62494 0.04024 0.0
C7015 C 0.91285 0.61462 0.02731 0.0
C7016 C 0.92549 0.62382 0.05144 0.0
C7017 C 0.92487 0.60158 0.02655 0.0
C7018 C 0.9377 0.59999 0.03804 0.0
C7019 C 0.95299 0.61224 0.05995 0.0
C7020 C 0.95453 0.62518 0.0707 0.0
C7021 C 0.93862 0.61165 0.05007 0.0
C7022 C 0.94088 0.6366 0.07246 0.0
C7023 C 0.92637 0.63577 0.06306 0.0
H7024 H 0.63968 0.73555 0.30306 0.0
H7025 H 0.68103 0.7011 0.31361 0.0
H7026 H 0.68761 0.71637 0.33754 0.0
H7027 H 0.68195 0.7403 0.35608 0.0
H7028 H 0.64183 0.77558 0.34384 0.0
H7029 H 0.6347 0.75955 0.32074 0.0
C7030 C 0.6502 0.73129 0.31051 0.0
C7031 C 0.65973 0.71682 0.30607 0.0
C7032 C 0.65421 0.74049 0.32437 0.0
C7033 C 0.67333 0.71197 0.31627 0.0
C7034 C 0.67711 0.72081 0.33016 0.0
C7035 C 0.67153 0.74446 0.34847 0.0
C7036 C 0.66235 0.75942 0.35227 0.0
C7037 C 0.66768 0.73519 0.33449 0.0
C7038 C 0.64918 0.76434 0.34168 0.0
C7039 C 0.64506 0.75507 0.32827 0.0
H7040 H 0.93499 0.5482 0.64353 0.0
H7041 H 0.89173 0.5813 0.63581 0.0
H7042 H 0.91085 0.60443 0.63438 0.0
H7043 H 0.94051 0.61625 0.63477 0.0
H7044 H 0.98351 0.58368 0.64524 0.0
H7045 H 0.96444 0.5604 0.64608 0.0
C7046 C 0.92955 0.56043 0.64151 0.0
C7047 C 0.91124 0.56228 0.63956 0.0
C7048 C 0.94096 0.57428 0.64114 0.0
C7049 C 0.90529 0.57877 0.63728 0.0
C7050 C 0.91645 0.59227 0.63643 0.0
C7051 C 0.94589 0.60411 0.6373 0.0
C7052 C 0.96414 0.60236 0.63978 0.0
C7053 C 0.93443 0.59036 0.63826 0.0
C7054 C 0.97 0.58608 0.64321 0.0
C7055 C 0.95887 0.5725 0.64367 0.0
H7056 H 0.72502 0.69271 0.85268 0.0
H7057 H 0.71425 0.66105 0.89066 0.0
H7058 H 0.69174 0.68027 0.89885 0.0
H7059 H 0.67463 0.70655 0.89575 0.0
H7060 H 0.68254 0.73684 0.8562 0.0
H7061 H 0.70591 0.71809 0.84827 0.0
C7062 C 0.71782 0.69 0.86278 0.0
C7063 C 0.72194 0.67523 0.87113 0.0
C7064 C 0.704 0.70104 0.8672 0.0
C7065 C 0.71186 0.67214 0.88398 0.0
C7066 C 0.69879 0.68324 0.88871 0.0
C7067 C 0.68133 0.70905 0.8853 0.0
C7068 C 0.6765 0.72342 0.87669 0.0
C7069 C 0.69465 0.69779 0.88049 0.0
C7070 C 0.68558 0.72606 0.86314 0.0
C7071 C 0.69916 0.71526 0.85861 0.0
H7072 H 0.61731 0.49782 0.09993 0.0
H7073 H 0.59527 0.52658 0.13676 0.0
H7074 H 0.57567 0.5047 0.14179 0.0
H7075 H 0.5658 0.47681 0.13684 0.0
H7076 H 0.58469 0.44908 0.09805 0.0
H7077 H 0.60434 0.471 0.0926 0.0
C7078 C 0.60803 0.49935 0.1089 0.0
C7079 C 0.6078 0.51388 0.11797 0.0
C7080 C 0.59632 0.48681 0.11146 0.0
C7081 C 0.59565 0.51567 0.12951 0.0
C7082 C 0.58448 0.50309 0.13246 0.0
C7083 C 0.57409 0.47557 0.12708 0.0
C7084 C 0.57407 0.46096 0.11817 0.0
C7085 C 0.58484 0.48853 0.12366 0.0
C7086 C 0.58467 0.45986 0.10537 0.0
C7087 C 0.5959 0.4725 0.10222 0.0
H7088 H 0.81522 0.35602 0.34848 0.0
H7089 H 0.77892 0.34216 0.38217 0.0
H7090 H 0.78927 0.31373 0.38075 0.0
H7091 H 0.80918 0.29289 0.37107 0.0
H7092 H 0.84418 0.30492 0.33583 0.0
H7093 H 0.83379 0.33379 0.33661 0.0
C7094 C 0.80955 0.34674 0.35544 0.0
C7095 C 0.7963 0.35138 0.36551 0.0
C7096 C 0.81537 0.33005 0.35432 0.0
C7097 C 0.78902 0.33909 0.37429 0.0
C7098 C 0.79498 0.32275 0.37352 0.0
C7099 C 0.81453 0.30174 0.36342 0.0
C7100 C 0.82782 0.29672 0.35367 0.0
C7101 C 0.8082 0.31812 0.36372 0.0
C7102 C 0.83425 0.30842 0.34369 0.0
C7103 C 0.82824 0.32496 0.34414 0.0
H7104 H 0.91955 0.45811 0.87592 0.0
H7105 H 0.9513 0.49744 0.89142 0.0
H7106 H 0.97682 0.48011 0.88672 0.0
H7107 H 0.99071 0.45275 0.87918 0.0
H7108 H 0.95839 0.41406 0.86323 0.0
H7109 H 0.9332 0.4319 0.86684 0.0
C7110 C 0.93201 0.463 0.87833 0.0
C7111 C 0.93308 0.47932 0.88431 0.0
C7112 C 0.9469 0.45293 0.87527 0.0
C7113 C 0.94968 0.48511 0.88698 0.0
C7114 C 0.96444 0.47509 0.88422 0.0
C7115 C 0.97822 0.44838 0.87597 0.0
C7116 C 0.97684 0.43191 0.87035 0.0
C7117 C 0.96335 0.45888 0.87838 0.0
C7118 C 0.96021 0.4266 0.86708 0.0
C7119 C 0.94562 0.43683 0.86935 0.0
H7120 H 0.77384 0.70006 0.13705 0.0
H7121 H 0.79783 0.6977 0.18241 0.0
H7122 H 0.81709 0.71928 0.17552 0.0
H7123 H 0.82994 0.73519 0.15544 0.0
H7124 H 0.80792 0.7359 0.10927 0.0
H7125 H 0.78488 0.71867 0.11758 0.0
C7126 C 0.78287 0.70476 0.14556 0.0
C7127 C 0.78446 0.69748 0.16021 0.0
C7128 C 0.79445 0.71656 0.14124 0.0
C7129 C 0.79642 0.70327 0.17109 0.0
C7130 C 0.8075 0.71547 0.16711 0.0
C7131 C 0.81993 0.73179 0.14726 0.0
C7132 C 0.82067 0.73653 0.13175 0.0
C7133 C 0.80711 0.72162 0.15202 0.0
C7134 C 0.80761 0.73224 0.12126 0.0
C7135 C 0.79449 0.72238 0.126 0.0
H7136 H 0.59952 0.55599 0.42176 0.0
H7137 H 0.62707 0.56325 0.38018 0.0
H7138 H 0.60868 0.58715 0.37369 0.0
H7139 H 0.58456 0.60633 0.37952 0.0
H7140 H 0.55807 0.60104 0.42194 0.0
H7141 H 0.576 0.57654 0.42838 0.0
C7142 C 0.6014 0.56274 0.41123 0.0
C7143 C 0.61464 0.55744 0.40132 0.0
C7144 C 0.59091 0.57706 0.40773 0.0
C7145 C 0.61699 0.56674 0.38794 0.0
C7146 C 0.60644 0.58053 0.38422 0.0
C7147 C 0.58271 0.59989 0.39023 0.0
C7148 C 0.56976 0.6057 0.40017 0.0
C7149 C 0.59334 0.58587 0.39399 0.0
C7150 C 0.56783 0.59707 0.41404 0.0
C7151 C 0.57811 0.58292 0.41769 0.0
H7152 H 0.68969 0.35782 0.63301 0.0
H7153 H 0.73343 0.33132 0.65265 0.0
H7154 H 0.71724 0.30629 0.65314 0.0
H7155 H 0.69037 0.29051 0.6483 0.0
H7156 H 0.64671 0.3159 0.62753 0.0
H7157 H 0.66264 0.34143 0.62724 0.0
C7158 C 0.69586 0.34667 0.63748 0.0
C7159 C 0.71348 0.3474 0.64292 0.0
C7160 C 0.68617 0.33144 0.63752 0.0
C7161 C 0.72036 0.33205 0.64835 0.0
C7162 C 0.71089 0.31735 0.64865 0.0
C7163 C 0.68414 0.30152 0.6436 0.0
C7164 C 0.66671 0.30043 0.63793 0.0
C7165 C 0.69373 0.31666 0.64329 0.0
C7166 C 0.65972 0.31552 0.63201 0.0
C7167 C 0.66903 0.33046 0.63187 0.0
H7168 H 0.66812 1.00651 0.57639 0.0
H7169 H 0.62769 0.98871 0.60357 0.0
H7170 H 0.62569 0.96446 0.58654 0.0
H7171 H 0.63546 0.94762 0.56322 0.0
H7172 H 0.67395 0.9677 0.53501 0.0
H7173 H 0.67648 0.991 0.5527 0.0
C7174 C 0.65875 0.99742 0.57867 0.0
C7175 C 0.6482 0.99983 0.59174 0.0
C7176 C 0.65729 0.98351 0.56837 0.0
C7177 C 0.63617 0.98757 0.59398 0.0
C7178 C 0.63501 0.97352 0.58408 0.0
C7179 C 0.64444 0.95705 0.56088 0.0
C7180 C 0.65457 0.95538 0.54737 0.0
C7181 C 0.64552 0.9712 0.57114 0.0
C7182 C 0.66587 0.96821 0.54494 0.0
C7183 C 0.66738 0.98174 0.55521 0.0
H7184 H 0.17805 0.50981 0.43702 0.0
H7185 H 0.1349 0.53821 0.41889 0.0
H7186 H 0.13567 0.55618 0.44164 0.0
H7187 H 0.15129 0.5659 0.46459 0.0
H7188 H 0.19622 0.53888 0.48128 0.0
H7189 H 0.19163 0.5177 0.46166 0.0
C7190 C 0.16858 0.51971 0.43829 0.0
C7191 C 0.15671 0.52312 0.42627 0.0
C7192 C 0.16945 0.53013 0.45115 0.0
C7193 C 0.14447 0.53584 0.42787 0.0
C7194 C 0.14485 0.54599 0.4409 0.0
C7195 C 0.15998 0.55529 0.46399 0.0
C7196 C 0.17428 0.55411 0.47408 0.0
C7197 C 0.15776 0.54365 0.45225 0.0
C7198 C 0.18514 0.54007 0.47359 0.0
C7199 C 0.18262 0.52805 0.46229 0.0
H7200 H 0.75763 0.90634 0.71458 0.0
H7201 H 0.74874 0.86754 0.68147 0.0
H7202 H 0.73158 0.85338 0.70002 0.0
H7203 H 0.71786 0.85262 0.72529 0.0
H7204 H 0.7286 0.89015 0.75926 0.0
H7205 H 0.74658 0.90382 0.74103 0.0
C7206 C 0.75196 0.89476 0.71145 0.0
C7207 C 0.7541 0.88826 0.69645 0.0
C7208 C 0.7426 0.88629 0.72245 0.0
C7209 C 0.747 0.87304 0.69276 0.0
C7210 C 0.73726 0.86486 0.70342 0.0
C7211 C 0.72444 0.86359 0.72885 0.0
C7212 C 0.72187 0.87025 0.74374 0.0
C7213 C 0.73483 0.87142 0.71827 0.0
C7214 C 0.73048 0.88454 0.74803 0.0
C7215 C 0.74063 0.89252 0.7375 0.0
H7216 H 0.3883 0.47374 0.96125 0.0
H7217 H 0.41039 0.44932 0.92201 0.0
H7218 H 0.42383 0.42834 0.93913 0.0
H7219 H 0.42844 0.41622 0.96555 0.0
H7220 H 0.40816 0.44253 1.0047 0.0
H7221 H 0.39524 0.46335 0.98753 0.0
C7222 C 0.39617 0.4639 0.95642 0.0
C7223 C 0.39816 0.46313 0.94023 0.0
C7224 C 0.40429 0.45213 0.96644 0.0
C7225 C 0.4086 0.45033 0.93433 0.0
C7226 C 0.41626 0.43826 0.94417 0.0
C7227 C 0.42137 0.4266 0.97035 0.0
C7228 C 0.41939 0.42761 0.98659 0.0
C7229 C 0.41411 0.43892 0.96029 0.0
C7230 C 0.41016 0.44132 0.99242 0.0
C7231 C 0.4026 0.45326 0.98253 0.0
H7232 H 0.30813 0.62617 0.7414 0.0
H7233 H 0.3488 0.6428 0.71372 0.0
H7234 H 0.33017 0.6418 0.69058 0.0
H7235 H 0.30184 0.63586 0.67744 0.0
H7236 H 0.26227 0.61703 0.70515 0.0
H7237 H 0.2805 0.61932 0.72831 0.0
C7238 C 0.313 0.62969 0.73036 0.0
C7239 C 0.33017 0.63479 0.72976 0.0
C7240 C 0.30215 0.6287 0.71673 0.0
C7241 C 0.33586 0.63893 0.71497 0.0
C7242 C 0.32508 0.63835 0.70155 0.0
C7243 C 0.2971 0.63237 0.68854 0.0
C7244 C 0.28023 0.62642 0.68919 0.0
C7245 C 0.3081 0.63326 0.70216 0.0
C7246 C 0.27489 0.62172 0.70392 0.0
C7247 C 0.28544 0.62302 0.71735 0.0
H7248 H 0.93989 0.07635 0.05951 0.0
H7249 H 0.90935 0.06209 0.01974 0.0
H7250 H 0.89341 0.04387 0.03573 0.0
H7251 H 0.88683 0.03294 0.06133 0.0
H7252 H 0.91915 0.04442 0.10064 0.0
H7253 H 0.93547 0.06271 0.0847 0.0
C7254 C 0.92996 0.06903 0.05428 0.0
C7255 C 0.92596 0.07068 0.03833 0.0
C7256 C 0.92089 0.05821 0.06357 0.0
C7257 C 0.91297 0.06104 0.03187 0.0
C7258 C 0.90366 0.05068 0.04107 0.0
C7259 C 0.89747 0.03942 0.06641 0.0
C7260 C 0.90148 0.0376 0.08229 0.0
C7261 C 0.90729 0.04935 0.05698 0.0
C7262 C 0.91558 0.0458 0.08855 0.0
C7263 C 0.92498 0.05622 0.07939 0.0
H7264 H 0.70666 0.17729 0.83126 0.0
H7265 H 0.70632 0.13144 0.80601 0.0
H7266 H 0.73578 0.12531 0.81418 0.0
H7267 H 0.76021 0.13147 0.83092 0.0
H7268 H 0.76201 0.17805 0.85479 0.0
H7269 H 0.73358 0.18579 0.8443 0.0
C7270 C 0.71321 0.16611 0.82744 0.0
C7271 C 0.70447 0.15469 0.8183 0.0
C7272 C 0.73031 0.16285 0.83188 0.0
C7273 C 0.71295 0.14034 0.81312 0.0
C7274 C 0.72974 0.13682 0.81778 0.0
C7275 C 0.75453 0.14346 0.83357 0.0
C7276 C 0.76269 0.1539 0.84414 0.0
C7277 C 0.73836 0.14778 0.82748 0.0
C7278 C 0.75557 0.16962 0.84704 0.0
C7279 C 0.73934 0.17401 0.84111 0.0
H7280 H 0.84835 0.85725 0.29434 0.0
H7281 H 0.81911 0.86899 0.25274 0.0
H7282 H 0.79526 0.87866 0.26812 0.0
H7283 H 0.78193 0.88442 0.29356 0.0
H7284 H 0.81 0.87144 0.33536 0.0
H7285 H 0.83432 0.86193 0.32007 0.0
C7286 C 0.83675 0.86178 0.28855 0.0
C7287 C 0.836 0.8621 0.27199 0.0
C7288 C 0.82252 0.86732 0.29769 0.0
C7289 C 0.82053 0.86826 0.26519 0.0
C7290 C 0.80668 0.87395 0.2741 0.0
C7291 C 0.79332 0.87949 0.29943 0.0
C7292 C 0.79374 0.87885 0.31591 0.0
C7293 C 0.80741 0.87363 0.29039 0.0
C7294 C 0.8089 0.87221 0.32289 0.0
C7295 C 0.82298 0.86672 0.31403 0.0
H7296 H 0.45694 0.40518 0.05722 0.0
H7297 H 0.49132 0.37954 0.02681 0.0
H7298 H 0.51538 0.38606 0.044 0.0
H7299 H 0.52755 0.39842 0.06846 0.0
H7300 H 0.49312 0.42224 0.10002 0.0
H7301 H 0.46915 0.41713 0.08214 0.0
C7302 C 0.46969 0.40118 0.05415 0.0
C7303 C 0.47185 0.39198 0.04011 0.0
C7304 C 0.48391 0.40462 0.06464 0.0
C7305 C 0.48878 0.38672 0.03711 0.0
C7306 C 0.50277 0.39045 0.04712 0.0
C7307 C 0.51487 0.40268 0.07149 0.0
C7308 C 0.51273 0.41105 0.08595 0.0
C7309 C 0.50065 0.39931 0.06104 0.0
C7310 C 0.49574 0.41595 0.08924 0.0
C7311 C 0.48178 0.41297 0.07886 0.0
H7312 H 0.37751 0.69575 0.77781 0.0
H7313 H 0.33571 0.66658 0.79126 0.0
H7314 H 0.32495 0.68932 0.80738 0.0
H7315 H 0.3294 0.71652 0.8197 0.0
H7316 H 0.37008 0.74625 0.80442 0.0
H7317 H 0.37902 0.72448 0.78659 0.0
C7318 C 0.36592 0.69444 0.78412 0.0
C7319 C 0.35769 0.67932 0.78376 0.0
C7320 C 0.35957 0.70773 0.79295 0.0
C7321 C 0.34247 0.67793 0.79166 0.0
C7322 C 0.33631 0.69097 0.80083 0.0
C7323 C 0.33994 0.71839 0.81216 0.0
C7324 C 0.34911 0.73299 0.81346 0.0
C7325 C 0.34502 0.70579 0.80187 0.0
C7326 C 0.3627 0.73525 0.80359 0.0
C7327 C 0.36796 0.7227 0.7935 0.0
H7328 H 0.06876 0.64951 0.55261 0.0
H7329 H 0.08222 0.60777 0.58141 0.0
H7330 H 0.11005 0.60515 0.56954 0.0
H7331 H 0.13063 0.61481 0.55098 0.0
H7332 H 0.11685 0.65613 0.52174 0.0
H7333 H 0.08916 0.6589 0.53378 0.0
C7334 C 0.07785 0.63991 0.55631 0.0
C7335 C 0.07347 0.62885 0.56783 0.0
C7336 C 0.09375 0.6384 0.54935 0.0
C7337 C 0.08526 0.61633 0.57244 0.0
C7338 C 0.10118 0.61486 0.5657 0.0
C7339 C 0.12152 0.62437 0.54724 0.0
C7340 C 0.12578 0.63531 0.53559 0.0
C7341 C 0.10556 0.6258 0.55413 0.0
C7342 C 0.11388 0.64762 0.53078 0.0
C7343 C 0.09804 0.64921 0.53764 0.0
H7344 H 0.17592 0.29947 0.35285 0.0
H7345 H 0.14074 0.268 0.32866 0.0
H7346 H 0.14496 0.28267 0.30481 0.0
H7347 H 0.1572 0.30509 0.29059 0.0
H7348 H 0.19312 0.33673 0.31321 0.0
H7349 H 0.19029 0.32136 0.33746 0.0
C7350 C 0.16926 0.29573 0.34235 0.0
C7351 C 0.15786 0.28243 0.3429 0.0
C7352 C 0.17193 0.30429 0.3282 0.0
C7353 C 0.14953 0.27798 0.32894 0.0
C7354 C 0.15194 0.28644 0.31514 0.0
C7355 C 0.1647 0.30858 0.30073 0.0
C7356 C 0.17548 0.32218 0.2998 0.0
C7357 C 0.16294 0.29969 0.31461 0.0
C7358 C 0.18493 0.3263 0.31327 0.0
C7359 C 0.18313 0.31753 0.32726 0.0
H7360 H 0.4569 0.61973 0.46835 0.0
H7361 H 0.49846 0.62393 0.50145 0.0
H7362 H 0.51803 0.6282 0.48049 0.0
H7363 H 0.52373 0.63221 0.4525 0.0
H7364 H 0.48237 0.6281 0.41914 0.0
H7365 H 0.46295 0.62234 0.43998 0.0
C7366 C 0.47031 0.62098 0.47105 0.0
C7367 C 0.47599 0.62081 0.48691 0.0
C7368 C 0.48177 0.62378 0.45864 0.0
C7369 C 0.49348 0.62347 0.48966 0.0
C7370 C 0.50479 0.62609 0.47754 0.0
C7371 C 0.5105 0.62994 0.44965 0.0
C7372 C 0.50487 0.63068 0.43381 0.0
C7373 C 0.49916 0.62651 0.46193 0.0
C7374 C 0.48746 0.62767 0.43089 0.0
C7375 C 0.4762 0.62434 0.44296 0.0
H7376 H 0.15811 0.71512 0.22901 0.0
H7377 H 0.10784 0.73296 0.24098 0.0
H7378 H 0.11046 0.71851 0.26558 0.0
H7379 H 0.12747 0.70226 0.28411 0.0
H7380 H 0.17785 0.68427 0.27285 0.0
H7381 H 0.17474 0.69724 0.24731 0.0
C7382 C 0.14765 0.71559 0.23693 0.0
C7383 C 0.13283 0.72514 0.23329 0.0
C7384 C 0.14933 0.70739 0.25112 0.0
C7385 C 0.11942 0.72583 0.24366 0.0
C7386 C 0.1209 0.71758 0.25768 0.0
C7387 C 0.13779 0.70116 0.27607 0.0
C7388 C 0.15293 0.69253 0.2803 0.0
C7389 C 0.1359 0.70861 0.26162 0.0
C7390 C 0.16611 0.69096 0.26976 0.0
C7391 C 0.16432 0.69836 0.25523 0.0
H7392 H 0.10908 0.38771 1.00435 0.0
H7393 H 0.12137 0.43832 0.9972 0.0
H7394 H 0.10022 0.44016 0.97574 0.0
H7395 H 0.07892 0.42668 0.9586 0.0
H7396 H 0.06742 0.37596 0.96656 0.0
H7397 H 0.08775 0.3748 0.9883 0.0
C7398 C 0.1071 0.39922 0.99819 0.0
C7399 C 0.11691 0.41278 1.00206 0.0
C7400 C 0.09517 0.40007 0.98602 0.0
C7401 C 0.1141 0.42764 0.99414 0.0
C7402 C 0.10205 0.42867 0.98193 0.0
C7403 C 0.081 0.41541 0.9651 0.0
C7404 C 0.07179 0.40141 0.96109 0.0
C7405 C 0.0927 0.41485 0.97763 0.0
C7406 C 0.07433 0.38688 0.96959 0.0
C7407 C 0.08593 0.38621 0.98197 0.0
H7408 H 0.39875 0.31859 0.70486 0.0
H7409 H 0.35374 0.30737 0.72935 0.0
H7410 H 0.34612 0.2872 0.70926 0.0
H7411 H 0.35236 0.27175 0.68438 0.0
H7412 H 0.39556 0.28572 0.65849 0.0
H7413 H 0.40341 0.30528 0.67889 0.0
C7414 C 0.38717 0.31184 0.70583 0.0
C7415 C 0.37697 0.31479 0.71908 0.0
C7416 C 0.38245 0.30044 0.6937 0.0
C7417 C 0.36196 0.30575 0.7196 0.0
C7418 C 0.35759 0.29402 0.70798 0.0
C7419 C 0.36348 0.27909 0.68308 0.0
C7420 C 0.37334 0.27677 0.66949 0.0
C7421 C 0.36773 0.29108 0.69491 0.0
C7422 C 0.38755 0.28687 0.66844 0.0
C7423 C 0.39214 0.29818 0.68029 0.0
H7424 H 0.13226 0.45286 0.39008 0.0
H7425 H 0.10002 0.49408 0.37556 0.0
H7426 H 0.07554 0.47643 0.37396 0.0
H7427 H 0.06179 0.44875 0.37697 0.0
H7428 H 0.09382 0.40789 0.39265 0.0
H7429 H 0.11853 0.42532 0.39331 0.0
C7430 C 0.11996 0.45816 0.38654 0.0
C7431 C 0.11878 0.47545 0.38298 0.0
C7432 C 0.10521 0.44763 0.38576 0.0
C7433 C 0.10211 0.48125 0.37849 0.0
C7434 C 0.08775 0.47095 0.37753 0.0
C7435 C 0.07413 0.44347 0.38042 0.0
C7436 C 0.07524 0.42634 0.38462 0.0
C7437 C 0.08889 0.45401 0.38114 0.0
C7438 C 0.09187 0.42061 0.38924 0.0
C7439 C 0.10632 0.43078 0.38967 0.0
H7440 H 0.30922 0.34224 0.16729 0.0
H7441 H 0.32198 0.37517 0.13094 0.0
H7442 H 0.34415 0.3556 0.12244 0.0
H7443 H 0.36025 0.32854 0.12482 0.0
H7444 H 0.35015 0.29705 0.16302 0.0
H7445 H 0.32726 0.3162 0.17112 0.0
C7446 C 0.31684 0.34519 0.15752 0.0
C7447 C 0.31348 0.36043 0.14975 0.0
C7448 C 0.33035 0.33391 0.15293 0.0
C7449 C 0.32395 0.36378 0.13725 0.0
C7450 C 0.33676 0.35246 0.13232 0.0
C7451 C 0.35314 0.32586 0.13499 0.0
C7452 C 0.35719 0.31101 0.14316 0.0
C7453 C 0.34015 0.3374 0.13999 0.0
C7454 C 0.34766 0.30817 0.15641 0.0
C7455 C 0.33439 0.31921 0.16105 0.0
H7456 H 0.44135 0.51812 0.89253 0.0
H7457 H 0.4088 0.54058 0.92649 0.0
H7458 H 0.42614 0.56485 0.9274 0.0
H7459 H 0.44943 0.58114 0.91703 0.0
H7460 H 0.48094 0.55919 0.88203 0.0
H7461 H 0.46558 0.53374 0.88327 0.0
C7462 C 0.43826 0.52817 0.90035 0.0
C7463 C 0.42371 0.52732 0.90943 0.0
C7464 C 0.44817 0.54249 0.90061 0.0
C7465 C 0.41985 0.54074 0.9193 0.0
C7466 C 0.42979 0.55475 0.91984 0.0
C7467 C 0.45313 0.57069 0.90991 0.0
C7468 C 0.46644 0.57223 0.89948 0.0
C7469 C 0.44383 0.55599 0.91034 0.0
C7470 C 0.47079 0.5585 0.89018 0.0
C7471 C 0.46195 0.54385 0.89083 0.0
H7472 H 0.22157 0.67581 0.6743 0.0
H7473 H 0.25897 0.68872 0.64131 0.0
H7474 H 0.24952 0.71745 0.64271 0.0
H7475 H 0.23057 0.73894 0.65266 0.0
H7476 H 0.19477 0.72789 0.68754 0.0
H7477 H 0.20361 0.6986 0.68616 0.0
C7478 C 0.22761 0.68496 0.66746 0.0
C7479 C 0.24096 0.68004 0.65763 0.0
C7480 C 0.22238 0.70182 0.66865 0.0
C7481 C 0.24877 0.6921 0.649 0.0
C7482 C 0.24335 0.70858 0.64977 0.0
C7483 C 0.22468 0.7302 0.66007 0.0
C7484 C 0.21164 0.73564 0.6699 0.0
C7485 C 0.23018 0.71358 0.65949 0.0
C7486 C 0.20448 0.72406 0.67957 0.0
C7487 C 0.20962 0.70729 0.67881 0.0
H7488 H 0.04284 0.57967 0.14021 0.0
H7489 H 0.07268 0.6202 0.15621 0.0
H7490 H 0.09888 0.60346 0.15274 0.0
H7491 H 0.11394 0.57715 0.14456 0.0
H7492 H 0.08383 0.53629 0.12977 0.0
H7493 H 0.05775 0.55305 0.13328 0.0
C7494 C 0.05504 0.58489 0.14311 0.0
C7495 C 0.05536 0.6015 0.14859 0.0
C7496 C 0.07033 0.57499 0.14114 0.0
C7497 C 0.07161 0.60766 0.15213 0.0
C7498 C 0.08676 0.598 0.15003 0.0
C7499 C 0.1017 0.57183 0.14203 0.0
C7500 C 0.10129 0.55516 0.13666 0.0
C7501 C 0.0864 0.58163 0.14442 0.0
C7502 C 0.08498 0.54884 0.1338 0.0
C7503 C 0.06989 0.55854 0.13584 0.0
H7504 H 0.23158 0.30481 0.89964 0.0
H7505 H 0.19533 0.30633 0.86123 0.0
H7506 H 0.21329 0.32438 0.84719 0.0
H7507 H 0.23728 0.34257 0.84722 0.0
H7508 H 0.27413 0.34109 0.88504 0.0
H7509 H 0.25834 0.3198 0.89766 0.0
C7510 C 0.2278 0.30897 0.88813 0.0
C7511 C 0.21201 0.30467 0.88165 0.0
C7512 C 0.23832 0.31926 0.87997 0.0
C7513 C 0.20732 0.30977 0.8666 0.0
C7514 C 0.21758 0.32006 0.85851 0.0
C7515 C 0.24207 0.33722 0.85801 0.0
C7516 C 0.25664 0.34339 0.86529 0.0
C7517 C 0.23283 0.32527 0.86527 0.0
C7518 C 0.26292 0.33638 0.87919 0.0
C7519 C 0.25379 0.32438 0.88652 0.0
H7520 H 0.47423 0.44038 0.64042 0.0
H7521 H 0.45348 0.41034 0.60386 0.0
H7522 H 0.43113 0.43164 0.59846 0.0
H7523 H 0.41672 0.45902 0.60472 0.0
H7524 H 0.43993 0.48965 0.6397 0.0
H7525 H 0.46173 0.46824 0.64499 0.0
C7526 C 0.46495 0.43851 0.63112 0.0
C7527 C 0.46572 0.42358 0.62257 0.0
C7528 C 0.45236 0.45108 0.62781 0.0
C7529 C 0.45347 0.42163 0.61057 0.0
C7530 C 0.44056 0.43385 0.60754 0.0
C7531 C 0.42661 0.46106 0.61343 0.0
C7532 C 0.42644 0.4762 0.6218 0.0
C7533 C 0.43973 0.44866 0.61616 0.0
C7534 C 0.43957 0.4784 0.63296 0.0
C7535 C 0.45212 0.46604 0.63606 0.0
H7536 H 0.31232 0.70384 0.38077 0.0
H7537 H 0.34882 0.66349 0.38598 0.0
H7538 H 0.37192 0.68293 0.388 0.0
H7539 H 0.38319 0.71232 0.38809 0.0
H7540 H 0.34635 0.75232 0.38205 0.0
H7541 H 0.32341 0.73285 0.38072 0.0
C7542 C 0.32526 0.69905 0.38235 0.0
C7543 C 0.32798 0.68137 0.38316 0.0
C7544 C 0.33915 0.71073 0.38345 0.0
C7545 C 0.34546 0.67648 0.38522 0.0
C7546 C 0.35904 0.68787 0.38642 0.0
C7547 C 0.37019 0.717 0.38662 0.0
C7548 C 0.3673 0.73468 0.38537 0.0
C7549 C 0.3563 0.70521 0.38557 0.0
C7550 C 0.34981 0.73938 0.3832 0.0
C7551 C 0.33632 0.72798 0.38238 0.0
H7552 H 0.37153 0.0255 0.44752 0.0
H7553 H 0.40852 0.0461 0.41819 0.0
H7554 H 0.40991 0.07042 0.43515 0.0
H7555 H 0.40058 0.08661 0.45898 0.0
H7556 H 0.366 0.06393 0.48948 0.0
H7557 H 0.36388 0.04044 0.47188 0.0
C7558 C 0.38001 0.03522 0.44475 0.0
C7559 C 0.38976 0.03354 0.43106 0.0
C7560 C 0.3812 0.04922 0.45506 0.0
C7561 C 0.40067 0.04662 0.42825 0.0
C7562 C 0.40149 0.06072 0.43812 0.0
C7563 C 0.39255 0.07657 0.46185 0.0
C7564 C 0.38336 0.07759 0.47597 0.0
C7565 C 0.39178 0.06234 0.45164 0.0
C7566 C 0.3733 0.06396 0.47906 0.0
C7567 C 0.37204 0.05032 0.46884 0.0
H7568 H 0.84325 0.4813 0.55698 0.0
H7569 H 0.89655 0.48747 0.54935 0.0
H7570 H 0.89863 0.50504 0.57258 0.0
H7571 H 0.8848 0.51829 0.59531 0.0
H7572 H 0.83173 0.50962 0.60272 0.0
H7573 H 0.82993 0.49369 0.57908 0.0
C7574 C 0.85526 0.48677 0.56022 0.0
C7575 C 0.86962 0.48352 0.55138 0.0
C7576 C 0.85637 0.49636 0.57356 0.0
C7577 C 0.88528 0.49009 0.55596 0.0
C7578 C 0.88645 0.50005 0.56921 0.0
C7579 C 0.87297 0.51273 0.59177 0.0
C7580 C 0.8585 0.51497 0.60081 0.0
C7581 C 0.87205 0.50318 0.57818 0.0
C7582 C 0.84306 0.50811 0.59596 0.0
C7583 C 0.84199 0.49894 0.58245 0.0
H7584 H 0.33528 0.16343 0.30116 0.0
H7585 H 0.29466 0.16864 0.26689 0.0
H7586 H 0.27461 0.15774 0.28534 0.0
H7587 H 0.26882 0.14641 0.31153 0.0
H7588 H 0.31069 0.13919 0.34419 0.0
H7589 H 0.33004 0.15132 0.3262 0.0
C7590 C 0.32199 0.16248 0.29771 0.0
C7591 C 0.31645 0.16729 0.28269 0.0
C7592 C 0.31076 0.1558 0.3082 0.0
C7593 C 0.29926 0.16528 0.27838 0.0
C7594 C 0.28782 0.15899 0.28895 0.0
C7595 C 0.28218 0.14757 0.31466 0.0
C7596 C 0.28823 0.14243 0.32945 0.0
C7597 C 0.29342 0.15416 0.30392 0.0
C7598 C 0.30561 0.14366 0.33322 0.0
C7599 C 0.31671 0.15044 0.32283 0.0
H7600 H 0.65045 0.5655 0.06368 0.0
H7601 H 0.62163 0.58757 0.10041 0.0
H7602 H 0.60863 0.6077 0.08222 0.0
H7603 H 0.606 0.61963 0.0557 0.0
H7604 H 0.63292 0.59561 0.0187 0.0
H7605 H 0.64576 0.57569 0.03693 0.0
C7606 C 0.64126 0.57467 0.06771 0.0
C7607 C 0.63722 0.57508 0.08353 0.0
C7608 C 0.63336 0.58588 0.05702 0.0
C7609 C 0.62507 0.58694 0.0884 0.0
C7610 C 0.61762 0.59849 0.07795 0.0
C7611 C 0.61453 0.60993 0.05159 0.0
C7612 C 0.61839 0.60925 0.03569 0.0
C7613 C 0.62172 0.59817 0.0622 0.0
C7614 C 0.62947 0.59646 0.03071 0.0
C7615 C 0.63697 0.58508 0.04121 0.0
H7616 H 0.69762 0.39642 0.30688 0.0
H7617 H 0.73021 0.40514 0.26872 0.0
H7618 H 0.75444 0.4079 0.28656 0.0
H7619 H 0.7673 0.40799 0.31321 0.0
H7620 H 0.73565 0.39828 0.35158 0.0
H7621 H 0.71089 0.39584 0.33388 0.0
C7622 C 0.71 0.39887 0.30239 0.0
C7623 C 0.71161 0.40048 0.28605 0.0
C7624 C 0.72442 0.40032 0.31296 0.0
C7625 C 0.72809 0.4037 0.28093 0.0
C7626 C 0.74218 0.40534 0.29126 0.0
C7627 C 0.75501 0.40533 0.31779 0.0
C7628 C 0.75371 0.40335 0.33405 0.0
C7629 C 0.74063 0.4037 0.30733 0.0
C7630 C 0.73741 0.39983 0.33936 0.0
C7631 C 0.72309 0.39845 0.32911 0.0
H7632 H 0.09545 0.95554 0.96005 0.0
H7633 H 0.1232 0.97235 1.00057 0.0
H7634 H 0.13895 0.9909 0.98479 0.0
H7635 H 0.1464 1.00128 0.95919 0.0
H7636 H 0.1169 0.98692 0.91897 0.0
H7637 H 0.10056 0.96852 0.93474 0.0
C7638 C 0.10468 0.9635 0.9655 0.0
C7639 C 0.10802 0.96239 0.9816 0.0
C7640 C 0.11371 0.97442 0.9563 0.0
C7641 C 0.12014 0.97287 0.98831 0.0
C7642 C 0.12934 0.98345 0.97923 0.0
C7643 C 0.13638 0.99413 0.95388 0.0
C7644 C 0.13318 0.9952 0.93781 0.0
C7645 C 0.12651 0.9841 0.96318 0.0
C7646 C 0.11984 0.98615 0.93123 0.0
C7647 C 0.11043 0.97566 0.94029 0.0
H7648 H 0.2744 0.8951 0.20063 0.0
H7649 H 0.27715 0.85549 0.16741 0.0
H7650 H 0.30519 0.84676 0.17793 0.0
H7651 H 0.33076 0.8537 0.19364 0.0
H7652 H 0.32682 0.89183 0.22828 0.0
H7653 H 0.29719 0.89769 0.22038 0.0
C7654 C 0.28098 0.88433 0.19595 0.0
C7655 C 0.2743 0.87644 0.1828 0.0
C7656 C 0.29687 0.87922 0.20224 0.0
C7657 C 0.28251 0.86213 0.17718 0.0
C7658 C 0.29849 0.85713 0.18319 0.0
C7659 C 0.3232 0.86294 0.1997 0.0
C7660 C 0.33084 0.8725 0.21131 0.0
C7661 C 0.30614 0.86611 0.19522 0.0
C7662 C 0.32106 0.88434 0.21929 0.0
C7663 C 0.30419 0.88778 0.21471 0.0
H7664 H 0.21611 0.16524 0.75705 0.0
H7665 H 0.17876 0.18485 0.72417 0.0
H7666 H 0.19797 0.17834 0.70303 0.0
H7667 H 0.22584 0.16628 0.6931 0.0
H7668 H 0.26216 0.14556 0.72641 0.0
H7669 H 0.24342 0.15321 0.74732 0.0
C7670 C 0.21212 0.1683 0.74531 0.0
C7671 C 0.19567 0.17589 0.74266 0.0
C7672 C 0.22333 0.16419 0.73286 0.0
C7673 C 0.19113 0.17925 0.72702 0.0
C7674 C 0.20225 0.17544 0.71473 0.0
C7675 C 0.22979 0.16354 0.70491 0.0
C7676 C 0.24594 0.1553 0.70776 0.0
C7677 C 0.21848 0.16782 0.71737 0.0
C7678 C 0.25016 0.15184 0.72342 0.0
C7679 C 0.2393 0.15625 0.73561 0.0
H7680 H 0.10008 0.11514 0.38737 0.0
H7681 H 0.09033 0.11967 0.33827 0.0
H7682 H 0.1208 0.12109 0.33401 0.0
H7683 H 0.15015 0.1187 0.34396 0.0
H7684 H 0.16034 0.11371 0.39291 0.0
H7685 H 0.12973 0.11514 0.39762 0.0
C7686 C 0.10465 0.11678 0.37579 0.0
C7687 C 0.09307 0.11711 0.36312 0.0
C7688 C 0.12221 0.11737 0.37342 0.0
C7689 C 0.09909 0.11914 0.34816 0.0
C7690 C 0.11647 0.11996 0.34572 0.0
C7691 C 0.14563 0.11795 0.35565 0.0
C7692 C 0.15735 0.11585 0.36805 0.0
C7693 C 0.12814 0.11864 0.35821 0.0
C7694 C 0.15146 0.11529 0.3832 0.0
C7695 C 0.134 0.11605 0.38587 0.0
H7696 H 0.20566 0.93605 0.62366 0.0
H7697 H 0.15124 0.93736 0.62955 0.0
H7698 H 0.15285 0.90898 0.63841 0.0
H7699 H 0.16954 0.88284 0.64318 0.0
H7700 H 0.22341 0.88132 0.63499 0.0
H7701 H 0.22204 0.91037 0.6281 0.0
C7702 C 0.19402 0.93019 0.62661 0.0
C7703 C 0.17834 0.93919 0.62571 0.0
C7704 C 0.19491 0.91356 0.63125 0.0
C7705 C 0.16361 0.93115 0.6302 0.0
C7706 C 0.16447 0.91472 0.63518 0.0
C7707 C 0.18096 0.8889 0.63994 0.0
C7708 C 0.19655 0.87978 0.63949 0.0
C7709 C 0.18002 0.9057 0.6356 0.0
C7710 C 0.21122 0.88792 0.63527 0.0
C7711 C 0.21045 0.90458 0.63134 0.0
H7712 H 0.46357 0.90248 0.89724 0.0
H7713 H 0.47293 0.92309 0.85269 0.0
H7714 H 0.44226 0.92616 0.84744 0.0
H7715 H 0.41173 0.92308 0.85496 0.0
H7716 H 0.40239 0.90175 0.8993 0.0
H7717 H 0.43288 0.89923 0.90471 0.0
C7718 C 0.45907 0.90785 0.8864 0.0
C7719 C 0.47149 0.9127 0.87553 0.0
C7720 C 0.44077 0.90952 0.88321 0.0
C7721 C 0.46446 0.91928 0.86154 0.0
C7722 C 0.44657 0.92102 0.85843 0.0
C7723 C 0.4161 0.9178 0.86587 0.0
C7724 C 0.40356 0.91291 0.87664 0.0
C7725 C 0.43439 0.91617 0.86909 0.0
C7726 C 0.41068 0.90616 0.89061 0.0
C7727 C 0.42857 0.90455 0.89378 0.0
H7728 H 0.35238 0.13116 0.1677 0.0
H7729 H 0.32643 0.11741 0.1253 0.0
H7730 H 0.32635 0.1459 0.11647 0.0
H7731 H 0.33631 0.17405 0.11977 0.0
H7732 H 0.3625 0.18766 0.16219 0.0
H7733 H 0.35993 0.15988 0.17206 0.0
C7734 C 0.3466 0.13448 0.1566 0.0
C7735 C 0.33956 0.12228 0.14711 0.0
C7736 C 0.3468 0.15078 0.15156 0.0
C7737 C 0.33186 0.12667 0.13283 0.0
C7738 C 0.33191 0.14291 0.12774 0.0
C7739 C 0.34115 0.171 0.13129 0.0
C7740 C 0.34979 0.18278 0.14015 0.0
C7741 C 0.3397 0.15498 0.13686 0.0
C7742 C 0.35609 0.17867 0.15504 0.0
C7743 C 0.35458 0.16282 0.16071 0.0
H7744 H 0.15207 0.89359 0.19341 0.0
H7745 H 0.14799 0.94565 0.18394 0.0
H7746 H 0.11765 0.94574 0.18851 0.0
H7747 H 0.09192 0.93021 0.18955 0.0
H7748 H 0.09511 0.87778 0.19701 0.0
H7749 H 0.12619 0.87865 0.19882 0.0
C7750 C 0.14456 0.90498 0.19256 0.0
C7751 C 0.15224 0.91951 0.18804 0.0
C7752 C 0.12693 0.90484 0.19459 0.0
C7753 C 0.14246 0.93428 0.18741 0.0
C7754 C 0.12503 0.93433 0.18988 0.0
C7755 C 0.09929 0.91903 0.1922 0.0
C7756 C 0.09121 0.9039 0.19288 0.0
C7757 C 0.11705 0.91955 0.19271 0.0
C7758 C 0.10107 0.88954 0.19616 0.0
C7759 C 0.11882 0.89003 0.19714 0.0
H7760 H 0.37768 0.87923 0.41172 0.0
H7761 H 0.39489 0.89093 0.36633 0.0
H7762 H 0.39884 0.86175 0.36058 0.0
H7763 H 0.39815 0.83177 0.36812 0.0
H7764 H 0.3816 0.82016 0.41367 0.0
H7765 H 0.377 0.84944 0.41925 0.0
C7766 C 0.38237 0.87563 0.40052 0.0
C7767 C 0.38566 0.88827 0.38956 0.0
C7768 C 0.38483 0.85823 0.39711 0.0
C7769 C 0.39169 0.88233 0.37518 0.0
C7770 C 0.39414 0.86527 0.37181 0.0
C7771 C 0.39333 0.8355 0.37925 0.0
C7772 C 0.39012 0.82298 0.39032 0.0
C7773 C 0.39076 0.85292 0.3826 0.0
C7774 C 0.38418 0.82887 0.40469 0.0
C7775 C 0.38154 0.84591 0.40797 0.0
H7776 H 0.45919 0.12281 0.68536 0.0
H7777 H 0.4568 0.12903 0.63588 0.0
H7778 H 0.42601 0.13015 0.63609 0.0
H7779 H 0.39858 0.12982 0.64972 0.0
H7780 H 0.40002 0.12405 0.69922 0.0
H7781 H 0.43099 0.12193 0.69919 0.0
C7782 C 0.45207 0.12413 0.67452 0.0
C7783 C 0.46134 0.12564 0.66053 0.0
C7784 C 0.43349 0.12477 0.67457 0.0
C7785 C 0.45095 0.12765 0.64693 0.0
C7786 C 0.43292 0.12836 0.64698 0.0
C7787 C 0.40541 0.12814 0.66065 0.0
C7788 C 0.39584 0.12701 0.67447 0.0
C7789 C 0.42385 0.12705 0.66068 0.0
C7790 C 0.40602 0.12469 0.68818 0.0
C7791 C 0.42418 0.12353 0.68823 0.0
H7792 H 0.19849 0.17904 0.91283 0.0
H7793 H 0.14369 0.18449 0.91203 0.0
H7794 H 0.14136 0.15456 0.9115 0.0
H7795 H 0.15504 0.12691 0.91363 0.0
H7796 H 0.20987 0.12183 0.9155 0.0
H7797 H 0.21207 0.15161 0.9135 0.0
C7798 C 0.18603 0.17368 0.91257 0.0
C7799 C 0.1713 0.18395 0.91267 0.0
C7800 C 0.18481 0.15655 0.91262 0.0
C7801 C 0.15523 0.17684 0.91191 0.0
C7802 C 0.15389 0.15974 0.91172 0.0
C7803 C 0.16745 0.13233 0.91336 0.0
C7804 C 0.18228 0.12224 0.91486 0.0
C7805 C 0.16861 0.14948 0.91239 0.0
C7806 C 0.19829 0.1294 0.91461 0.0
C7807 C 0.19955 0.14639 0.91341 0.0
H7808 H 0.13358 0.36535 0.11701 0.0
H7809 H 0.18822 0.36706 0.11645 0.0
H7810 H 0.19039 0.35797 0.1433 0.0
H7811 H 0.17669 0.3493 0.16674 0.0
H7812 H 0.12192 0.34757 0.16762 0.0
H7813 H 0.11979 0.35636 0.14067 0.0
C7814 C 0.1459 0.36373 0.12285 0.0
C7815 C 0.16075 0.36726 0.11503 0.0
C7816 C 0.147 0.35828 0.13821 0.0
C7817 C 0.17668 0.36499 0.12254 0.0
C7818 C 0.1779 0.35959 0.13778 0.0
C7819 C 0.16427 0.35097 0.16109 0.0
C7820 C 0.14949 0.34784 0.1692 0.0
C7821 C 0.16314 0.35626 0.14573 0.0
C7822 C 0.13351 0.34972 0.16159 0.0
C7823 C 0.13227 0.35487 0.14622 0.0
H7824 H 0.63015 0.17412 0.92312 0.0
H7825 H 0.66801 0.1378 0.909 0.0
H7826 H 0.67182 0.12861 0.93562 0.0
H7827 H 0.66451 0.1308 0.96306 0.0
H7828 H 0.62603 0.16656 0.97697 0.0
H7829 H 0.62201 0.17553 0.95025 0.0
C7830 C 0.63906 0.16401 0.92573 0.0
C7831 C 0.64875 0.15676 0.91383 0.0
C7832 C 0.64095 0.15847 0.94109 0.0
C7833 C 0.66053 0.14392 0.91777 0.0
C7834 C 0.6626 0.13848 0.93304 0.0
C7835 C 0.65504 0.14039 0.96026 0.0
C7836 C 0.64549 0.14787 0.97213 0.0
C7837 C 0.65287 0.14564 0.94481 0.0
C7838 C 0.63346 0.16043 0.96816 0.0
C7839 C 0.63122 0.16566 0.95285 0.0
H7840 H 0.94395 0.84349 0.40303 0.0
H7841 H 0.89825 0.87253 0.41166 0.0
H7842 H 0.8904 0.87152 0.3842 0.0
H7843 H 0.89594 0.86187 0.357 0.0
H7844 H 0.94163 0.83253 0.34904 0.0
H7845 H 0.94948 0.83406 0.37634 0.0
C7846 C 0.93215 0.84954 0.39911 0.0
C7847 C 0.9219 0.85816 0.41006 0.0
C7848 C 0.92747 0.8488 0.383 0.0
C7849 C 0.90681 0.866 0.40402 0.0
C7850 C 0.90216 0.86534 0.38808 0.0
C7851 C 0.90767 0.85584 0.36114 0.0
C7852 C 0.9179 0.8468 0.35041 0.0
C7853 C 0.91234 0.85675 0.37733 0.0
C7854 C 0.93305 0.83922 0.35656 0.0
C7855 C 0.93772 0.84019 0.37239 0.0
H7856 H 0.9322 0.15238 0.11736 0.0
H7857 H 0.9369 0.09936 0.1167 0.0
H7858 H 0.92733 0.09853 0.14331 0.0
H7859 H 0.91841 0.11306 0.16717 0.0
H7860 H 0.91259 0.16603 0.16679 0.0
H7861 H 0.92144 0.16657 0.1401 0.0
C7862 C 0.93088 0.14057 0.12286 0.0
C7863 C 0.93535 0.12597 0.1149 0.0
C7864 C 0.92514 0.14016 0.13806 0.0
C7865 C 0.93386 0.11086 0.12253 0.0
C7866 C 0.92824 0.11035 0.13775 0.0
C7867 C 0.91884 0.1247 0.16118 0.0
C7868 C 0.91507 0.13951 0.16913 0.0
C7869 C 0.92395 0.12495 0.14569 0.0
C7870 C 0.91578 0.15446 0.16113 0.0
C7871 C 0.92079 0.1548 0.14582 0.0
H7872 H 0.4164 0.61562 0.66997 0.0
H7873 H 0.41452 0.6687 0.67109 0.0
H7874 H 0.42263 0.66945 0.64417 0.0
H7875 H 0.43139 0.65525 0.62053 0.0
H7876 H 0.43371 0.60222 0.61901 0.0
H7877 H 0.42402 0.60127 0.64559 0.0
C7878 C 0.41757 0.62734 0.66426 0.0
C7879 C 0.41506 0.64209 0.6727 0.0
C7880 C 0.42237 0.62772 0.64865 0.0
C7881 C 0.41668 0.65715 0.66505 0.0
C7882 C 0.42127 0.65761 0.6496 0.0
C7883 C 0.4299 0.64346 0.62601 0.0
C7884 C 0.43349 0.62885 0.61772 0.0
C7885 C 0.42444 0.643 0.64135 0.0
C7886 C 0.43101 0.6137 0.625 0.0
C7887 C 0.42552 0.61314 0.64027 0.0
H7888 H 0.13735 0.67846 0.42164 0.0
H7889 H 0.17342 0.63928 0.41053 0.0
H7890 H 0.1774 0.63297 0.43794 0.0
H7891 H 0.17041 0.63833 0.46517 0.0
H7892 H 0.13349 0.67691 0.47592 0.0
H7893 H 0.12976 0.68325 0.44855 0.0
C7894 C 0.14588 0.66833 0.42509 0.0
C7895 C 0.15497 0.65935 0.41382 0.0
C7896 C 0.14785 0.6645 0.44089 0.0
C7897 C 0.16635 0.6466 0.4188 0.0
C7898 C 0.16853 0.64285 0.43453 0.0
C7899 C 0.16138 0.64799 0.46155 0.0
C7900 C 0.15213 0.657 0.47272 0.0
C7901 C 0.15929 0.65167 0.44569 0.0
C7902 C 0.14068 0.66963 0.46769 0.0
C7903 C 0.13859 0.67335 0.45199 0.0
H7904 H 0.40499 0.36991 0.85629 0.0
H7905 H 0.43357 0.32391 0.85254 0.0
H7906 H 0.43948 0.32408 0.88022 0.0
H7907 H 0.43728 0.33708 0.90608 0.0
H7908 H 0.40811 0.38262 0.91057 0.0
H7909 H 0.40204 0.38267 0.88274 0.0
C7910 C 0.41244 0.35983 0.86145 0.0
C7911 C 0.41896 0.34701 0.85168 0.0
C7912 C 0.4159 0.35988 0.87789 0.0
C7913 C 0.42861 0.33424 0.85916 0.0
C7914 C 0.43196 0.33422 0.87525 0.0
C7915 C 0.42944 0.34703 0.90116 0.0
C7916 C 0.42342 0.35993 0.91103 0.0
C7917 C 0.4258 0.34698 0.88483 0.0
C7918 C 0.41342 0.37262 0.90375 0.0
C7919 C 0.40976 0.37261 0.88762 0.0
H7920 H 0.88182 0.91837 0.63951 0.0
H7921 H 0.88783 0.90852 0.68833 0.0
H7922 H 0.91867 0.90643 0.686 0.0
H7923 H 0.94382 0.91032 0.67069 0.0
H7924 H 0.93816 0.92061 0.62202 0.0
H7925 H 0.90716 0.91906 0.62353 0.0
C7926 C 0.88987 0.91541 0.64956 0.0
C7927 C 0.88265 0.91389 0.66412 0.0
C7928 C 0.90758 0.91433 0.64815 0.0
C7929 C 0.89319 0.91012 0.67707 0.0
C7930 C 0.91078 0.90885 0.67574 0.0
C7931 C 0.93575 0.91202 0.6604 0.0
C7932 C 0.94305 0.91581 0.64634 0.0
C7933 C 0.9181 0.91143 0.66144 0.0
C7934 C 0.93268 0.9177 0.63297 0.0
C7935 C 0.91501 0.91694 0.63386 0.0
H7936 H 0.86497 0.15696 0.40754 0.0
H7937 H 0.8456 0.14717 0.36139 0.0
H7938 H 0.84895 0.11765 0.36591 0.0
H7939 H 0.85601 0.0943 0.38338 0.0
H7940 H 0.87405 0.10421 0.4299 0.0
H7941 H 0.87282 0.13375 0.42473 0.0
C7942 C 0.8615 0.1484 0.39843 0.0
C7943 C 0.85493 0.15447 0.38415 0.0
C7944 C 0.86331 0.13132 0.40114 0.0
C7945 C 0.85086 0.14304 0.37244 0.0
C7946 C 0.85272 0.12606 0.37502 0.0
C7947 C 0.85981 0.10293 0.39234 0.0
C7948 C 0.86497 0.09699 0.40708 0.0
C7949 C 0.85874 0.12002 0.38938 0.0
C7950 C 0.86979 0.1084 0.41854 0.0
C7951 C 0.86913 0.12532 0.41558 0.0
H7952 H 0.57241 0.13104 0.12286 0.0
H7953 H 0.56262 0.11325 0.16838 0.0
H7954 H 0.5933 0.11073 0.17404 0.0
H7955 H 0.62388 0.11371 0.16658 0.0
H7956 H 0.63333 0.131 0.12061 0.0
H7957 H 0.60304 0.13348 0.11525 0.0
C7958 C 0.57682 0.12639 0.13402 0.0
C7959 C 0.5643 0.12215 0.14501 0.0
C7960 C 0.59507 0.12497 0.13739 0.0
C7961 C 0.57119 0.11649 0.1594 0.0
C7962 C 0.58907 0.1151 0.16274 0.0
C7963 C 0.61965 0.118 0.15528 0.0
C7964 C 0.6323 0.12224 0.14428 0.0
C7965 C 0.60136 0.11931 0.15189 0.0
C7966 C 0.62517 0.12776 0.12984 0.0
C7967 C 0.6073 0.12914 0.12655 0.0
H7968 H 0.68537 0.90038 0.85272 0.0
H7969 H 0.71291 0.91419 0.89425 0.0
H7970 H 0.71191 0.88602 0.90381 0.0
H7971 H 0.70038 0.85834 0.90152 0.0
H7972 H 0.67229 0.84483 0.86006 0.0
H7973 H 0.67618 0.87204 0.84931 0.0
C7974 C 0.69124 0.89713 0.86378 0.0
C7975 C 0.69902 0.90929 0.87282 0.0
C7976 C 0.69033 0.88106 0.86929 0.0
C7977 C 0.7069 0.90497 0.88705 0.0
C7978 C 0.70621 0.88892 0.89257 0.0
C7979 C 0.69539 0.86127 0.89003 0.0
C7980 C 0.68586 0.84969 0.88169 0.0
C7981 C 0.69756 0.87698 0.88396 0.0
C7982 C 0.67939 0.85367 0.86683 0.0
C7983 C 0.68165 0.86919 0.86065 0.0
H7984 H 0.88137 0.12572 0.8362 0.0
H7985 H 0.88752 0.07813 0.85779 0.0
H7986 H 0.91774 0.07733 0.85229 0.0
H7987 H 0.94295 0.09272 0.8467 0.0
H7988 H 0.93735 0.14162 0.82792 0.0
H7989 H 0.90637 0.13942 0.82694 0.0
C7990 C 0.88932 0.11509 0.8395 0.0
C7991 C 0.88236 0.1022 0.8477 0.0
C7992 C 0.9068 0.11508 0.837 0.0
C7993 C 0.8926 0.08825 0.8515 0.0
C7994 C 0.90992 0.08784 0.84849 0.0
C7995 C 0.93496 0.10264 0.84187 0.0
C7996 C 0.94225 0.11737 0.83757 0.0
C7997 C 0.91726 0.10156 0.84201 0.0
C7998 C 0.93185 0.13024 0.83146 0.0
C7999 C 0.9142 0.12901 0.83096 0.0
H8000 H 0.65568 0.14941 0.6512 0.0
H8001 H 0.65312 0.14798 0.60136 0.0
H8002 H 0.64962 0.17776 0.60072 0.0
H8003 H 0.64695 0.20542 0.6139 0.0
H8004 H 0.64933 0.20718 0.66363 0.0
H8005 H 0.65327 0.1772 0.66443 0.0
C8006 C 0.65444 0.15543 0.6401 0.0
C8007 C 0.65452 0.14541 0.62632 0.0
C8008 C 0.65242 0.17327 0.63968 0.0
C8009 C 0.65277 0.15441 0.61232 0.0
C8010 C 0.65088 0.17185 0.61189 0.0
C8011 C 0.64851 0.1994 0.62499 0.0
C8012 C 0.64799 0.20936 0.63873 0.0
C8013 C 0.65063 0.1816 0.62544 0.0
C8014 C 0.64977 0.20053 0.65276 0.0
C8015 C 0.652 0.18307 0.65325 0.0
H8016 H 0.63651 0.91892 0.36809 0.0
H8017 H 0.63626 0.89681 0.3227 0.0
H8018 H 0.6053 0.89586 0.32284 0.0
H8019 H 0.57692 0.90005 0.33606 0.0
H8020 H 0.57771 0.91947 0.38245 0.0
H8021 H 0.6085 0.92232 0.38153 0.0
C8022 C 0.62989 0.91395 0.35806 0.0
C8023 C 0.6399 0.90811 0.34526 0.0
C8024 C 0.61141 0.91281 0.35835 0.0
C8025 C 0.62996 0.90175 0.33274 0.0
C8026 C 0.61181 0.90103 0.33284 0.0
C8027 C 0.58363 0.90525 0.34594 0.0
C8028 C 0.57396 0.90991 0.35928 0.0
C8029 C 0.60215 0.90644 0.34557 0.0
C8030 C 0.58392 0.91596 0.37187 0.0
C8031 C 0.60191 0.91757 0.37138 0.0
H8032 H 0.8388 0.90589 0.09944 0.0
H8033 H 0.88398 0.91383 0.12758 0.0
H8034 H 0.8883 0.88412 0.13092 0.0
H8035 H 0.88044 0.85582 0.12395 0.0
H8036 H 0.83519 0.84826 0.09577 0.0
H8037 H 0.82952 0.87789 0.09455 0.0
C8038 C 0.84939 0.90114 0.10657 0.0
C8039 C 0.86116 0.91201 0.11308 0.0
C8040 C 0.85185 0.8841 0.10833 0.0
C8041 C 0.87491 0.90566 0.1222 0.0
C8042 C 0.87737 0.8887 0.12413 0.0
C8043 C 0.86931 0.8607 0.11762 0.0
C8044 C 0.85831 0.84989 0.10988 0.0
C8045 C 0.86617 0.87779 0.11689 0.0
C8046 C 0.84379 0.85632 0.1019 0.0
C8047 C 0.84058 0.87326 0.10113 0.0
H8048 H 0.89495 0.68273 0.85714 0.0
H8049 H 0.84108 0.69423 0.85894 0.0
H8050 H 0.84109 0.68526 0.88584 0.0
H8051 H 0.85633 0.67376 0.90879 0.0
H8052 H 0.91032 0.66327 0.90723 0.0
H8053 H 0.91031 0.67184 0.88015 0.0
C8054 C 0.88322 0.6833 0.86344 0.0
C8055 C 0.86805 0.68916 0.85609 0.0
C8056 C 0.88327 0.67794 0.87881 0.0
C8057 C 0.85289 0.68962 0.86432 0.0
C8058 C 0.85286 0.68443 0.87966 0.0
C8059 C 0.868 0.67317 0.90239 0.0
C8060 C 0.88326 0.66774 0.90979 0.0
C8061 C 0.86793 0.67843 0.88698 0.0
C8062 C 0.89844 0.66734 0.90163 0.0
C8063 C 0.89843 0.67226 0.88621 0.0
H8064 H 0.37302 0.86645 0.05258 0.0
H8065 H 0.39038 0.91613 0.05277 0.0
H8066 H 0.39338 0.91558 0.08107 0.0
H8067 H 0.39133 0.90071 0.10581 0.0
H8068 H 0.3714 0.85192 0.10545 0.0
H8069 H 0.36881 0.8525 0.07728 0.0
C8070 C 0.3777 0.87706 0.05882 0.0
C8071 C 0.38196 0.89115 0.05058 0.0
C8072 C 0.37873 0.87687 0.0751 0.0
C8073 C 0.38731 0.90505 0.05884 0.0
C8074 C 0.38896 0.90475 0.07502 0.0
C8075 C 0.3864 0.89022 0.09957 0.0
C8076 C 0.3817 0.87622 0.10781 0.0
C8077 C 0.38474 0.8907 0.08329 0.0
C8078 C 0.37506 0.86286 0.09948 0.0
C8079 C 0.37371 0.86312 0.08333 0.0
H8080 H 0.11137 0.2008 0.61562 0.0
H8081 H 0.11019 0.14779 0.61649 0.0
H8082 H 0.1144 0.14823 0.64443 0.0
H8083 H 0.11814 0.16354 0.66952 0.0
H8084 H 0.12121 0.2164 0.66803 0.0
H8085 H 0.11678 0.21583 0.6402 0.0
C8086 C 0.11217 0.18922 0.62171 0.0
C8087 C 0.11006 0.17427 0.61323 0.0
C8088 C 0.11492 0.18945 0.63818 0.0
C8089 C 0.11116 0.15965 0.62209 0.0
C8090 C 0.11377 0.15984 0.63835 0.0
C8091 C 0.11797 0.175 0.66322 0.0
C8092 C 0.11969 0.19008 0.67161 0.0
C8093 C 0.11559 0.17467 0.64666 0.0
C8094 C 0.1194 0.20456 0.66259 0.0
C8095 C 0.11699 0.20427 0.64637 0.0
H8096 H 0.09664 0.89642 0.84839 0.0
H8097 H 0.14163 0.92445 0.85689 0.0
H8098 H 0.13466 0.92715 0.8842 0.0
H8099 H 0.11577 0.92126 0.90583 0.0
H8100 H 0.07111 0.89278 0.89676 0.0
H8101 H 0.07777 0.891 0.86955 0.0
C8102 C 0.10484 0.90334 0.85612 0.0
C8103 C 0.11963 0.91026 0.85047 0.0
C8104 C 0.10076 0.90484 0.8718 0.0
C8105 C 0.13027 0.91882 0.86087 0.0
C8106 C 0.12623 0.92045 0.87651 0.0
C8107 C 0.10751 0.91462 0.89793 0.0
C8108 C 0.09283 0.90728 0.90349 0.0
C8109 C 0.11154 0.91341 0.88215 0.0
C8110 C 0.08226 0.89886 0.89292 0.0
C8111 C 0.08615 0.89769 0.8773 0.0
H8112 H 0.61452 0.41571 0.35127 0.0
H8113 H 0.63048 0.3647 0.35588 0.0
H8114 H 0.62076 0.36463 0.38239 0.0
H8115 H 0.60682 0.3787 0.40407 0.0
H8116 H 0.59073 0.42968 0.39966 0.0
H8117 H 0.60146 0.4301 0.37342 0.0
C8118 C 0.61609 0.40466 0.35815 0.0
C8119 C 0.62312 0.3902 0.35148 0.0
C8120 C 0.61037 0.40466 0.37345 0.0
C8121 C 0.62489 0.37594 0.36058 0.0
C8122 C 0.61937 0.37589 0.37578 0.0
C8123 C 0.60562 0.38991 0.39736 0.0
C8124 C 0.59785 0.4041 0.40385 0.0
C8125 C 0.61187 0.3901 0.38228 0.0
C8126 C 0.59673 0.4186 0.39505 0.0
C8127 C 0.60285 0.41885 0.38001 0.0
H8128 H 0.88304 0.35349 0.55232 0.0
H8129 H 0.87269 0.40588 0.55564 0.0
H8130 H 0.8724 0.40415 0.58354 0.0
H8131 H 0.8752 0.38813 0.6073 0.0
H8132 H 0.88645 0.33601 0.60482 0.0
H8133 H 0.88621 0.33729 0.57653 0.0
C8134 C 0.881 0.36456 0.55914 0.0
C8135 C 0.87803 0.3798 0.55169 0.0
C8136 C 0.88086 0.36355 0.57545 0.0
C8137 C 0.87512 0.39395 0.56086 0.0
C8138 C 0.87487 0.39301 0.57693 0.0
C8139 C 0.87743 0.37701 0.60057 0.0
C8140 C 0.88079 0.36201 0.60818 0.0
C8141 C 0.87764 0.37791 0.58435 0.0
C8142 C 0.8839 0.34776 0.59926 0.0
C8143 C 0.8838 0.34849 0.58307 0.0
H8144 H 0.59321 0.69307 0.11817 0.0
H8145 H 0.63513 0.65884 0.1101 0.0
H8146 H 0.64293 0.65937 0.1376 0.0
H8147 H 0.63839 0.66987 0.16469 0.0
H8148 H 0.59632 0.70417 0.17217 0.0
H8149 H 0.58862 0.70333 0.14483 0.0
C8150 C 0.60417 0.68576 0.12224 0.0
C8151 C 0.61335 0.67584 0.11143 0.0
C8152 C 0.6088 0.68616 0.1384 0.0
C8153 C 0.62738 0.66642 0.11764 0.0
C8154 C 0.63201 0.6668 0.13359 0.0
C8155 C 0.62747 0.67715 0.16045 0.0
C8156 C 0.61829 0.68736 0.17109 0.0
C8157 C 0.62285 0.67661 0.14422 0.0
C8158 C 0.60417 0.69653 0.16476 0.0
C8159 C 0.59956 0.69596 0.1489 0.0
H8160 H 0.59769 0.62706 0.89061 0.0
H8161 H 0.59753 0.57485 0.89898 0.0
H8162 H 0.62862 0.57332 0.89838 0.0
H8163 H 0.65513 0.5861 0.89129 0.0
H8164 H 0.65475 0.63804 0.88139 0.0
H8165 H 0.62468 0.64052 0.88736 0.0
C8166 C 0.60448 0.61544 0.8928 0.0
C8167 C 0.5954 0.60104 0.89456 0.0
C8168 C 0.62225 0.61459 0.89202 0.0
C8169 C 0.60433 0.58605 0.89731 0.0
C8170 C 0.62206 0.58517 0.89695 0.0
C8171 C 0.64847 0.59797 0.89058 0.0
C8172 C 0.65702 0.61177 0.88559 0.0
C8173 C 0.63106 0.59923 0.89357 0.0
C8174 C 0.64843 0.6272 0.88517 0.0
C8175 C 0.6312 0.62862 0.88847 0.0
H8176 H 0.70248 0.39321 0.14987 0.0
H8177 H 0.69651 0.3746 0.10331 0.0
H8178 H 0.68924 0.40224 0.09405 0.0
H8179 H 0.68544 0.43209 0.09885 0.0
H8180 H 0.69082 0.45071 0.14536 0.0
H8181 H 0.69705 0.42286 0.1549 0.0
C8182 C 0.6994 0.39512 0.13773 0.0
C8183 C 0.70041 0.38169 0.12732 0.0
C8184 C 0.69509 0.41119 0.13241 0.0
C8185 C 0.69635 0.38462 0.1116 0.0
C8186 C 0.69207 0.40049 0.10626 0.0
C8187 C 0.68801 0.43005 0.11107 0.0
C8188 C 0.68761 0.44357 0.12136 0.0
C8189 C 0.69164 0.41393 0.1165 0.0
C8190 C 0.69077 0.44059 0.13719 0.0
C8191 C 0.69447 0.42464 0.14265 0.0
H8192 H 0.96727 0.40565 0.39878 0.0
H8193 H 0.97612 0.40921 0.35005 0.0
H8194 H 0.94547 0.41098 0.34465 0.0
H8195 H 0.91506 0.41158 0.35318 0.0
H8196 H 0.90603 0.4073 0.40189 0.0
H8197 H 0.93656 0.406 0.40732 0.0
C8198 C 0.96266 0.40701 0.38693 0.0
C8199 C 0.97498 0.40749 0.37493 0.0
C8200 C 0.94431 0.40794 0.38368 0.0
C8201 C 0.96777 0.40892 0.35977 0.0
C8202 C 0.94988 0.40991 0.35658 0.0
C8203 C 0.91949 0.41031 0.36508 0.0
C8204 C 0.90701 0.40984 0.37697 0.0
C8205 C 0.9378 0.40941 0.36836 0.0
C8206 C 0.91425 0.40818 0.39216 0.0
C8207 C 0.93218 0.40728 0.3954 0.0
H8208 H 0.87344 0.67089 0.61683 0.0
H8209 H 0.82378 0.68981 0.62931 0.0
H8210 H 0.81703 0.66299 0.63973 0.0
H8211 H 0.826 0.6347 0.64666 0.0
H8212 H 0.87557 0.61585 0.63344 0.0
H8213 H 0.88183 0.64234 0.62252 0.0
C8214 C 0.86113 0.6691 0.62181 0.0
C8215 C 0.84916 0.68226 0.6224 0.0
C8216 C 0.85746 0.6538 0.62794 0.0
C8217 C 0.83314 0.67978 0.62862 0.0
C8218 C 0.82935 0.66452 0.63471 0.0
C8219 C 0.8381 0.63632 0.64126 0.0
C8220 C 0.85036 0.62333 0.64111 0.0
C8221 C 0.84152 0.65151 0.63464 0.0
C8222 C 0.86605 0.62574 0.63415 0.0
C8223 C 0.86959 0.64083 0.62771 0.0
H8224 H 0.64794 0.39479 0.68717 0.0
H8225 H 0.63854 0.44595 0.6757 0.0
H8226 H 0.60943 0.44442 0.68411 0.0
H8227 H 0.58551 0.42729 0.68858 0.0
H8228 H 0.59357 0.37539 0.69718 0.0
H8229 H 0.62438 0.37849 0.69619 0.0
C8230 C 0.63956 0.40564 0.68669 0.0
C8231 C 0.6453 0.42034 0.68046 0.0
C8232 C 0.62255 0.4045 0.69087 0.0
C8233 C 0.6345 0.43446 0.6804 0.0
C8234 C 0.61777 0.43357 0.6851 0.0
C8235 C 0.59396 0.41674 0.69094 0.0
C8236 C 0.58725 0.40106 0.69265 0.0
C8237 C 0.61146 0.41847 0.68954 0.0
C8238 C 0.59845 0.38755 0.69559 0.0
C8239 C 0.61604 0.3893 0.6949 0.0
H8240 H 0.89108 0.32979 0.90911 0.0
H8241 H 0.88 0.32598 0.86027 0.0
H8242 H 0.87506 0.35587 0.85894 0.0
H8243 H 0.87373 0.38406 0.87157 0.0
H8244 H 0.88676 0.38732 0.92028 0.0
H8245 H 0.89067 0.35774 0.92143 0.0
C8246 C 0.88741 0.33534 0.89812 0.0
C8247 C 0.88579 0.32489 0.88482 0.0
C8248 C 0.88479 0.35302 0.89733 0.0
C8249 C 0.88134 0.33307 0.87082 0.0
C8250 C 0.8785 0.35045 0.87004 0.0
C8251 C 0.87748 0.37851 0.88253 0.0
C8252 C 0.87935 0.38896 0.89592 0.0
C8253 C 0.8802 0.36076 0.8832 0.0
C8254 C 0.88439 0.38054 0.90972 0.0
C8255 C 0.8869 0.3632 0.91043 0.0
H8256 H 0.89915 0.62715 0.14354 0.0
H8257 H 0.90081 0.63745 0.19248 0.0
H8258 H 0.93179 0.63681 0.19241 0.0
H8259 H 0.95972 0.63375 0.17876 0.0
H8260 H 0.95838 0.62325 0.12994 0.0
H8261 H 0.92722 0.62342 0.12995 0.0
C8262 C 0.90611 0.62922 0.15432 0.0
C8263 C 0.89657 0.63216 0.16812 0.0
C8264 C 0.92467 0.62873 0.15431 0.0
C8265 C 0.90682 0.63476 0.18163 0.0
C8266 C 0.92496 0.63453 0.18161 0.0
C8267 C 0.95277 0.63129 0.16806 0.0
C8268 C 0.9623 0.62826 0.15433 0.0
C8269 C 0.93424 0.6315 0.16807 0.0
C8270 C 0.95219 0.62544 0.14081 0.0
C8271 C 0.93402 0.62558 0.14079 0.0
H8272 H 0.70479 0.62601 0.42101 0.0
H8273 H 0.65132 0.62207 0.40929 0.0
H8274 H 0.64834 0.65188 0.40694 0.0
H8275 H 0.66049 0.67918 0.40966 0.0
H8276 H 0.7137 0.68327 0.42217 0.0
H8277 H 0.71713 0.65331 0.42304 0.0
C8278 C 0.69246 0.63167 0.41803 0.0
C8279 C 0.67831 0.62178 0.41537 0.0
C8280 C 0.69075 0.64886 0.41693 0.0
C8281 C 0.66249 0.62933 0.41122 0.0
C8282 C 0.66073 0.64641 0.40998 0.0
C8283 C 0.67289 0.6735 0.41235 0.0
C8284 C 0.68681 0.68342 0.41588 0.0
C8285 C 0.67473 0.6563 0.41295 0.0
C8286 C 0.70275 0.67589 0.41957 0.0
C8287 C 0.70472 0.65877 0.42003 0.0
H8288 H 0.6548 0.87227 0.66962 0.0
H8289 H 0.68177 0.82658 0.65949 0.0
H8290 H 0.67994 0.83275 0.63193 0.0
H8291 H 0.66962 0.85034 0.61079 0.0
H8292 H 0.64201 0.89582 0.62055 0.0
H8293 H 0.64561 0.89071 0.64824 0.0
C8294 C 0.66047 0.86377 0.66138 0.0
C8295 C 0.66826 0.8489 0.66658 0.0
C8296 C 0.65925 0.86733 0.64552 0.0
C8297 C 0.67545 0.83796 0.65576 0.0
C8298 C 0.67445 0.8415 0.64002 0.0
C8299 C 0.66417 0.85909 0.61891 0.0
C8300 C 0.65535 0.87335 0.61348 0.0
C8301 C 0.66609 0.85598 0.63477 0.0
C8302 C 0.64896 0.88478 0.62431 0.0
C8303 C 0.65092 0.88182 0.64017 0.0
H8304 H 0.44297 0.43114 0.17346 0.0
H8305 H 0.43958 0.42251 0.12429 0.0
H8306 H 0.40855 0.42087 0.12553 0.0
H8307 H 0.38238 0.42342 0.14055 0.0
H8308 H 0.38634 0.43234 0.18971 0.0
H8309 H 0.41725 0.43271 0.18846 0.0
C8310 C 0.43542 0.42898 0.163 0.0
C8311 C 0.44343 0.42715 0.14879 0.0
C8312 C 0.41775 0.42827 0.16378 0.0
C8313 C 0.43362 0.42393 0.13537 0.0
C8314 C 0.41592 0.42309 0.13606 0.0
C8315 C 0.39006 0.42528 0.15099 0.0
C8316 C 0.38214 0.42801 0.16518 0.0
C8317 C 0.40784 0.42544 0.1502 0.0
C8318 C 0.39217 0.43052 0.17862 0.0
C8319 C 0.40982 0.43063 0.17793 0.0
H8320 H 0.35359 0.6073 0.92563 0.0
H8321 H 0.34646 0.58671 0.88003 0.0
H8322 H 0.34125 0.61424 0.86941 0.0
H8323 H 0.33761 0.64423 0.87318 0.0
H8324 H 0.34539 0.66478 0.91884 0.0
H8325 H 0.35133 0.63738 0.9292 0.0
C8326 C 0.35088 0.60883 0.91337 0.0
C8327 C 0.3504 0.59486 0.90367 0.0
C8328 C 0.34795 0.62477 0.9073 0.0
C8329 C 0.3471 0.59718 0.88775 0.0
C8330 C 0.34404 0.61295 0.88167 0.0
C8331 C 0.34079 0.64279 0.88537 0.0
C8332 C 0.34075 0.65673 0.89518 0.0
C8333 C 0.34433 0.62687 0.89133 0.0
C8334 C 0.34486 0.65439 0.91098 0.0
C8335 C 0.34839 0.63866 0.91696 0.0
H8336 H 0.06902 0.62968 0.62368 0.0
H8337 H 0.06071 0.62076 0.67183 0.0
H8338 H 0.09139 0.61853 0.67685 0.0
H8339 H 0.12173 0.61901 0.66819 0.0
H8340 H 0.13024 0.6288 0.62014 0.0
H8341 H 0.0997 0.63047 0.61502 0.0
C8342 C 0.07375 0.62706 0.6353 0.0
C8343 C 0.06153 0.62523 0.64725 0.0
C8344 C 0.09216 0.62588 0.63836 0.0
C8345 C 0.06894 0.62217 0.66215 0.0
C8346 C 0.08687 0.6209 0.66512 0.0
C8347 C 0.11721 0.62157 0.65651 0.0
C8348 C 0.12961 0.62345 0.64469 0.0
C8349 C 0.09884 0.62275 0.65341 0.0
C8350 C 0.12217 0.62677 0.62979 0.0
C8351 C 0.1042 0.6279 0.62673 0.0
H8352 H 0.21574 0.4009 0.3926 0.0
H8353 H 0.16217 0.41464 0.39181 0.0
H8354 H 0.15516 0.38648 0.39765 0.0
H8355 H 0.1641 0.3581 0.4032 0.0
H8356 H 0.2175 0.34397 0.40421 0.0
H8357 H 0.22476 0.37232 0.39866 0.0
C8358 C 0.20254 0.39773 0.39378 0.0
C8359 C 0.18951 0.40983 0.39159 0.0
C8360 C 0.19858 0.38153 0.39738 0.0
C8361 C 0.17245 0.40551 0.39307 0.0
C8362 C 0.16842 0.38944 0.39657 0.0
C8363 C 0.17733 0.3612 0.40211 0.0
C8364 C 0.19024 0.34897 0.40401 0.0
C8365 C 0.18136 0.37738 0.39873 0.0
C8366 C 0.20734 0.35322 0.40291 0.0
C8367 C 0.21148 0.36938 0.39962 0.0
H8368 H 0.4437 0.61361 0.32131 0.0
H8369 H 0.44439 0.65915 0.34722 0.0
H8370 H 0.41353 0.66021 0.34735 0.0
H8371 H 0.38765 0.6445 0.34672 0.0
H8372 H 0.38729 0.5969 0.32451 0.0
H8373 H 0.41666 0.60007 0.31668 0.0
C8374 C 0.43707 0.62392 0.32674 0.0
C8375 C 0.44641 0.63591 0.33474 0.0
C8376 C 0.41935 0.62378 0.32791 0.0
C8377 C 0.43764 0.6496 0.34108 0.0
C8378 C 0.41992 0.65011 0.3414 0.0
C8379 C 0.39379 0.63508 0.33968 0.0
C8380 C 0.38552 0.62037 0.33641 0.0
C8381 C 0.41081 0.63668 0.33586 0.0
C8382 C 0.39361 0.6082 0.32738 0.0
C8383 C 0.41035 0.61002 0.32291 0.0
H8384 H 0.16759 0.65415 0.11381 0.0
H8385 H 0.14339 0.64209 0.15619 0.0
H8386 H 0.13889 0.67126 0.16186 0.0
H8387 H 0.14102 0.70131 0.15493 0.0
H8388 H 0.16478 0.71313 0.11234 0.0
H8389 H 0.16989 0.6839 0.107 0.0
C8390 C 0.16124 0.65768 0.12432 0.0
C8391 C 0.1561 0.64499 0.13449 0.0
C8392 C 0.15851 0.67503 0.12767 0.0
C8393 C 0.14801 0.65078 0.14803 0.0
C8394 C 0.14525 0.66781 0.15133 0.0
C8395 C 0.14753 0.69762 0.14454 0.0
C8396 C 0.15259 0.71017 0.1342 0.0
C8397 C 0.15042 0.68023 0.1413 0.0
C8398 C 0.16072 0.70438 0.12073 0.0
C8399 C 0.16365 0.68738 0.11758 0.0
H8400 H 0.07688 0.39893 0.83943 0.0
H8401 H 0.07617 0.41871 0.88565 0.0
H8402 H 0.10722 0.42073 0.88576 0.0
H8403 H 0.13572 0.41715 0.87286 0.0
H8404 H 0.13647 0.39435 0.82777 0.0
H8405 H 0.10551 0.3938 0.8272 0.0
C8406 C 0.08335 0.40394 0.84953 0.0
C8407 C 0.07323 0.40907 0.86243 0.0
C8408 C 0.10188 0.40465 0.84976 0.0
C8409 C 0.08279 0.4149 0.87536 0.0
C8410 C 0.1009 0.41604 0.87545 0.0
C8411 C 0.12933 0.4119 0.86284 0.0
C8412 C 0.13961 0.40587 0.8503 0.0
C8413 C 0.11081 0.41098 0.86273 0.0
C8414 C 0.12996 0.39943 0.83764 0.0
C8415 C 0.11181 0.39894 0.83732 0.0
H8416 H 0.38756 0.3526 0.60895 0.0
H8417 H 0.33504 0.34613 0.59509 0.0
H8418 H 0.33024 0.37592 0.59398 0.0
H8419 H 0.341 0.40379 0.59673 0.0
H8420 H 0.39369 0.41028 0.61007 0.0
H8421 H 0.39827 0.38053 0.61194 0.0
C8422 C 0.37503 0.35772 0.60584 0.0
C8423 C 0.3617 0.34717 0.60207 0.0
C8424 C 0.37236 0.37487 0.60518 0.0
C8425 C 0.34557 0.35399 0.59787 0.0
C8426 C 0.34279 0.37102 0.59729 0.0
C8427 C 0.35352 0.3987 0.59993 0.0
C8428 C 0.36696 0.40928 0.60325 0.0
C8429 C 0.35612 0.38157 0.60081 0.0
C8430 C 0.38304 0.40245 0.60764 0.0
C8431 C 0.38571 0.38543 0.60862 0.0
H8432 H 0.36424 0.1545 0.40391 0.0
H8433 H 0.41132 0.17877 0.41373 0.0
H8434 H 0.41152 0.18875 0.38718 0.0
H8435 H 0.39776 0.19142 0.36148 0.0
H8436 H 0.34998 0.16806 0.35209 0.0
H8437 H 0.35099 0.15645 0.37792 0.0
C8438 C 0.37465 0.16178 0.40017 0.0
C8439 C 0.38767 0.16598 0.41079 0.0
C8440 C 0.37454 0.16771 0.38498 0.0
C8441 C 0.40104 0.17553 0.40581 0.0
C8442 C 0.40116 0.18125 0.39064 0.0
C8443 C 0.38741 0.18402 0.36515 0.0
C8444 C 0.37379 0.18073 0.35481 0.0
C8445 C 0.38781 0.17766 0.38021 0.0
C8446 C 0.36072 0.17073 0.3597 0.0
C8447 C 0.36118 0.16418 0.37456 0.0
loop_
_geom_bond_atom_site_label_1
_geom_bond_atom_site_label_2
_geom_bond_distance
_geom_bond_site_symmetry_2
_ccdc_geom_bond_type
Ho0 C3 2.811 . S
Ho0 O20 2.322 . S
Ho0 O22 2.378 . S
Ho0 O23 2.524 . S
Ho0 O24 2.381 1_455 S
Ho0 O25 2.669 1_455 S
Ho0 O27 2.346 1_455 S
Ho0 O31 2.305 . S
Ho1 C12 2.811 . S
Ho1 O21 2.346 1_655 S
Ho1 O25 2.305 . S
Ho1 O26 2.322 . S
Ho1 O28 2.378 . S
Ho1 O29 2.524 . S
Ho1 O30 2.381 1_655 S
Ho1 O31 2.669 1_655 S
C2 O20 1.259 . S
C2 O21 1.268 . S
C3 Ho0 2.811 . S
C3 C4 1.488 . S
C3 O22 1.215 . S
C3 O23 1.289 . S
C4 C3 1.488 . S
C4 C5 1.348 . S
C4 C9 1.413 . S
C5 C4 1.348 . S
C5 C6 1.442 . S
C5 H32 0.930 . S
C6 C5 1.442 . S
C6 C7 1.381 . S
C6 H33 0.931 . S
C7 C6 1.381 . S
C7 C8 1.321 . S
C8 C7 1.321 . S
C8 C9 1.403 . S
C8 H34 0.934 . S
C9 C4 1.413 . S
C9 C8 1.403 . S
C9 H35 0.930 . S
C10 O24 1.275 . S
C10 O25 1.256 . S
C11 O26 1.259 . S
C11 O27 1.268 . S
C12 Ho1 2.811 . S
C12 C13 1.488 . S
C12 O28 1.215 . S
C12 O29 1.289 . S
C13 C12 1.488 . S
C13 C14 1.348 . S
C13 C18 1.413 . S
C14 C13 1.348 . S
C14 C15 1.442 . S
C14 H36 0.930 . S
C15 C14 1.442 . S
C15 C16 1.381 . S
C15 H37 0.931 . S
C16 C15 1.381 . S
C16 C17 1.321 . S
C17 C16 1.321 . S
C17 C18 1.403 . S
C17 H38 0.934 . S
C18 C13 1.413 . S
C18 C17 1.403 . S
C18 H39 0.930 . S
C19 O30 1.275 . S
C19 O31 1.256 . S
O20 Ho0 2.322 . S
O20 C2 1.259 . S
O21 Ho1 2.346 1_455 S
O21 C2 1.268 . S
O22 Ho0 2.378 . S
O22 C3 1.215 . S
O23 Ho0 2.524 . S
O23 C3 1.289 . S
O24 Ho0 2.381 1_655 S
O24 C10 1.275 . S
O25 Ho0 2.669 1_655 S
O25 Ho1 2.305 . S
O25 C10 1.256 . S
O26 Ho1 2.322 . S
O26 C11 1.259 . S
O27 Ho0 2.346 1_655 S
O27 C11 1.268 . S
O28 Ho1 2.378 . S
O28 C12 1.215 . S
O29 Ho1 2.524 . S
O29 C12 1.289 . S
O30 Ho1 2.381 1_455 S
O30 C19 1.275 . S
O31 Ho0 2.305 . S
O31 Ho1 2.669 1_455 S
O31 C19 1.256 . S
H32 C5 0.930 . S
H33 C6 0.931 . S
H34 C8 0.934 . S
H35 C9 0.930 . S
H36 C14 0.930 . S
H37 C15 0.931 . S
H38 C17 0.934 . S
H39 C18 0.930 . S
Ho40 C43 2.811 . S
Ho40 O60 2.322 . S
Ho40 O62 2.378 . S
Ho40 O63 2.524 . S
Ho40 O64 2.381 . S
Ho40 O65 2.669 . S
Ho40 O67 2.346 . S
Ho40 O71 2.305 . S
Ho41 C52 2.811 . S
Ho41 O61 2.346 . S
Ho41 O65 2.305 . S
Ho41 O66 2.322 . S
Ho41 O68 2.378 . S
Ho41 O69 2.524 . S
Ho41 O70 2.381 . S
Ho41 O71 2.669 . S
C42 O60 1.259 . S
C42 O61 1.268 . S
C43 Ho40 2.811 . S
C43 C44 1.488 . S
C43 O62 1.215 . S
C43 O63 1.289 . S
C44 C43 1.488 . S
C44 C45 1.348 . S
C44 C49 1.413 . S
C45 C44 1.348 . S
C45 C46 1.442 . S
C45 H72 0.930 . S
C46 C45 1.442 . S
C46 C47 1.381 . S
C46 H73 0.931 . S
C47 C46 1.381 . S
C47 C48 1.321 . S
C48 C47 1.321 . S
C48 C49 1.403 . S
C48 H74 0.934 . S
C49 C44 1.413 . S
C49 C48 1.403 . S
C49 H75 0.930 . S
C50 O64 1.275 . S
C50 O65 1.256 . S
C51 O66 1.259 . S
C51 O67 1.268 . S
C52 Ho41 2.811 . S
C52 C53 1.488 . S
C52 O68 1.215 . S
C52 O69 1.289 . S
C53 C52 1.488 . S
C53 C54 1.348 . S
C53 C58 1.413 . S
C54 C53 1.348 . S
C54 C55 1.442 . S
C54 H76 0.930 . S
C55 C54 1.442 . S
C55 C56 1.381 . S
C55 H77 0.931 . S
C56 C55 1.381 . S
C56 C57 1.321 . S
C57 C56 1.321 . S
C57 C58 1.403 . S
C57 H78 0.934 . S
C58 C53 1.413 . S
C58 C57 1.403 . S
C58 H79 0.930 . S
C59 O70 1.275 . S
C59 O71 1.256 . S
O60 Ho40 2.322 . S
O60 C42 1.259 . S
O61 Ho41 2.346 . S
O61 C42 1.268 . S
O62 Ho40 2.378 . S
O62 C43 1.215 . S
O63 Ho40 2.524 . S
O63 C43 1.289 . S
O64 Ho40 2.381 . S
O64 C50 1.275 . S
O65 Ho40 2.669 . S
O65 Ho41 2.305 . S
O65 C50 1.256 . S
O66 Ho41 2.322 . S
O66 C51 1.259 . S
O67 Ho40 2.346 . S
O67 C51 1.268 . S
O68 Ho41 2.378 . S
O68 C52 1.215 . S
O69 Ho41 2.524 . S
O69 C52 1.289 . S
O70 Ho41 2.381 . S
O70 C59 1.275 . S
O71 Ho40 2.305 . S
O71 Ho41 2.669 . S
O71 C59 1.256 . S
H72 C45 0.930 . S
H73 C46 0.931 . S
H74 C48 0.934 . S
H75 C49 0.930 . S
H76 C54 0.930 . S
H77 C55 0.931 . S
H78 C57 0.934 . S
H79 C58 0.930 . S
Ho80 C83 2.811 . S
Ho80 O100 2.322 . S
Ho80 O102 2.378 . S
Ho80 O103 2.524 . S
Ho80 O104 2.381 . S
Ho80 O105 2.669 . S
Ho80 O107 2.346 . S
Ho80 O111 2.305 . S
Ho81 C92 2.811 . S
Ho81 O101 2.346 . S
Ho81 O105 2.305 . S
Ho81 O106 2.322 . S
Ho81 O108 2.378 . S
Ho81 O109 2.524 . S
Ho81 O110 2.381 . S
Ho81 O111 2.669 . S
C82 O100 1.259 . S
C82 O101 1.268 . S
C83 Ho80 2.811 . S
C83 C84 1.488 . S
C83 O102 1.215 . S
C83 O103 1.289 . S
C84 C83 1.488 . S
C84 C85 1.348 . S
C84 C89 1.413 . S
C85 C84 1.348 . S
C85 C86 1.442 . S
C85 H112 0.930 . S
C86 C85 1.442 . S
C86 C87 1.381 . S
C86 H113 0.931 . S
C87 C86 1.381 . S
C87 C88 1.321 . S
C88 C87 1.321 . S
C88 C89 1.403 . S
C88 H114 0.934 . S
C89 C84 1.413 . S
C89 C88 1.403 . S
C89 H115 0.930 . S
C90 O104 1.275 . S
C90 O105 1.256 . S
C91 O106 1.259 . S
C91 O107 1.268 . S
C92 Ho81 2.811 . S
C92 C93 1.488 . S
C92 O108 1.215 . S
C92 O109 1.289 . S
C93 C92 1.488 . S
C93 C94 1.348 . S
C93 C98 1.413 . S
C94 C93 1.348 . S
C94 C95 1.442 . S
C94 H116 0.930 . S
C95 C94 1.442 . S
C95 C96 1.381 . S
C95 H117 0.931 . S
C96 C95 1.381 . S
C96 C97 1.321 . S
C97 C96 1.321 . S
C97 C98 1.403 . S
C97 H118 0.934 . S
C98 C93 1.413 . S
C98 C97 1.403 . S
C98 H119 0.930 . S
C99 O110 1.275 . S
C99 O111 1.256 . S
O100 Ho80 2.322 . S
O100 C82 1.259 . S
O101 Ho81 2.346 . S
O101 C82 1.268 . S
O102 Ho80 2.378 . S
O102 C83 1.215 . S
O103 Ho80 2.524 . S
O103 C83 1.289 . S
O104 Ho80 2.381 . S
O104 C90 1.275 . S
O105 Ho80 2.669 . S
O105 Ho81 2.305 . S
O105 C90 1.256 . S
O106 Ho81 2.322 . S
O106 C91 1.259 . S
O107 Ho80 2.346 . S
O107 C91 1.268 . S
O108 Ho81 2.378 . S
O108 C92 1.215 . S
O109 Ho81 2.524 . S
O109 C92 1.289 . S
O110 Ho81 2.381 . S
O110 C99 1.275 . S
O111 Ho80 2.305 . S
O111 Ho81 2.669 . S
O111 C99 1.256 . S
H112 C85 0.930 . S
H113 C86 0.931 . S
H114 C88 0.934 . S
H115 C89 0.930 . S
H116 C94 0.930 . S
H117 C95 0.931 . S
H118 C97 0.934 . S
H119 C98 0.930 . S
Ho120 C123 2.811 . S
Ho120 O140 2.322 . S
Ho120 O142 2.378 . S
Ho120 O143 2.524 . S
Ho120 O144 2.381 . S
Ho120 O145 2.669 . S
Ho120 O147 2.346 . S
Ho120 O151 2.305 . S
Ho121 C132 2.811 . S
Ho121 O141 2.346 . S
Ho121 O145 2.305 . S
Ho121 O146 2.322 . S
Ho121 O148 2.378 . S
Ho121 O149 2.524 . S
Ho121 O150 2.381 . S
Ho121 O151 2.669 . S
C122 O140 1.259 . S
C122 O141 1.268 . S
C123 Ho120 2.811 . S
C123 C124 1.488 . S
C123 O142 1.215 . S
C123 O143 1.289 . S
C124 C123 1.488 . S
C124 C125 1.348 . S
C124 C129 1.413 . S
C125 C124 1.348 . S
C125 C126 1.442 . S
C125 H152 0.930 . S
C126 C125 1.442 . S
C126 C127 1.381 . S
C126 H153 0.931 . S
C127 C126 1.381 . S
C127 C128 1.321 . S
C128 C127 1.321 . S
C128 C129 1.403 . S
C128 H154 0.934 . S
C129 C124 1.413 . S
C129 C128 1.403 . S
C129 H155 0.930 . S
C130 O144 1.275 . S
C130 O145 1.256 . S
C131 O146 1.259 . S
C131 O147 1.268 . S
C132 Ho121 2.811 . S
C132 C133 1.488 . S
C132 O148 1.215 . S
C132 O149 1.289 . S
C133 C132 1.488 . S
C133 C134 1.348 . S
C133 C138 1.413 . S
C134 C133 1.348 . S
C134 C135 1.442 . S
C134 H156 0.930 . S
C135 C134 1.442 . S
C135 C136 1.381 . S
C135 H157 0.931 . S
C136 C135 1.381 . S
C136 C137 1.321 . S
C137 C136 1.321 . S
C137 C138 1.403 . S
C137 H158 0.934 . S
C138 C133 1.413 . S
C138 C137 1.403 . S
C138 H159 0.930 . S
C139 O150 1.275 . S
C139 O151 1.256 . S
O140 Ho120 2.322 . S
O140 C122 1.259 . S
O141 Ho121 2.346 . S
O141 C122 1.268 . S
O142 Ho120 2.378 . S
O142 C123 1.215 . S
O143 Ho120 2.524 . S
O143 C123 1.289 . S
O144 Ho120 2.381 . S
O144 C130 1.275 . S
O145 Ho120 2.669 . S
O145 Ho121 2.305 . S
O145 C130 1.256 . S
O146 Ho121 2.322 . S
O146 C131 1.259 . S
O147 Ho120 2.346 . S
O147 C131 1.268 . S
O148 Ho121 2.378 . S
O148 C132 1.215 . S
O149 Ho121 2.524 . S
O149 C132 1.289 . S
O150 Ho121 2.381 . S
O150 C139 1.275 . S
O151 Ho120 2.305 . S
O151 Ho121 2.669 . S
O151 C139 1.256 . S
H152 C125 0.930 . S
H153 C126 0.931 . S
H154 C128 0.934 . S
H155 C129 0.930 . S
H156 C134 0.930 . S
H157 C135 0.931 . S
H158 C137 0.934 . S
H159 C138 0.930 . S
Ho160 C163 2.811 . S
Ho160 O180 2.322 . S
Ho160 O182 2.378 . S
Ho160 O183 2.524 . S
Ho160 O184 2.381 1_455 S
Ho160 O185 2.669 1_455 S
Ho160 O187 2.346 1_455 S
Ho160 O191 2.305 . S
Ho161 C172 2.811 . S
Ho161 O181 2.346 1_655 S
Ho161 O185 2.305 . S
Ho161 O186 2.322 . S
Ho161 O188 2.378 . S
Ho161 O189 2.524 . S
Ho161 O190 2.381 1_655 S
Ho161 O191 2.669 1_655 S
C162 O180 1.259 . S
C162 O181 1.268 . S
C163 Ho160 2.811 . S
C163 C164 1.488 . S
C163 O182 1.215 . S
C163 O183 1.289 . S
C164 C163 1.488 . S
C164 C165 1.348 . S
C164 C169 1.413 . S
C165 C164 1.348 . S
C165 C166 1.442 . S
C165 H192 0.930 . S
C166 C165 1.442 . S
C166 C167 1.381 . S
C166 H193 0.931 . S
C167 C166 1.381 . S
C167 C168 1.321 . S
C168 C167 1.321 . S
C168 C169 1.403 . S
C168 H194 0.934 . S
C169 C164 1.413 . S
C169 C168 1.403 . S
C169 H195 0.930 . S
C170 O184 1.275 . S
C170 O185 1.256 . S
C171 O186 1.259 . S
C171 O187 1.268 . S
C172 Ho161 2.811 . S
C172 C173 1.488 . S
C172 O188 1.215 . S
C172 O189 1.289 . S
C173 C172 1.488 . S
C173 C174 1.348 . S
C173 C178 1.413 . S
C174 C173 1.348 . S
C174 C175 1.442 . S
C174 H196 0.930 . S
C175 C174 1.442 . S
C175 C176 1.381 . S
C175 H197 0.931 . S
C176 C175 1.381 . S
C176 C177 1.321 . S
C177 C176 1.321 . S
C177 C178 1.403 . S
C177 H198 0.934 . S
C178 C173 1.413 . S
C178 C177 1.403 . S
C178 H199 0.930 . S
C179 O190 1.275 . S
C179 O191 1.256 . S
O180 Ho160 2.322 . S
O180 C162 1.259 . S
O181 Ho161 2.346 1_455 S
O181 C162 1.268 . S
O182 Ho160 2.378 . S
O182 C163 1.215 . S
O183 Ho160 2.524 . S
O183 C163 1.289 . S
O184 Ho160 2.381 1_655 S
O184 C170 1.275 . S
O185 Ho160 2.669 1_655 S
O185 Ho161 2.305 . S
O185 C170 1.256 . S
O186 Ho161 2.322 . S
O186 C171 1.259 . S
O187 Ho160 2.346 1_655 S
O187 C171 1.268 . S
O188 Ho161 2.378 . S
O188 C172 1.215 . S
O189 Ho161 2.524 . S
O189 C172 1.289 . S
O190 Ho161 2.381 1_455 S
O190 C179 1.275 . S
O191 Ho160 2.305 . S
O191 Ho161 2.669 1_455 S
O191 C179 1.256 . S
H192 C165 0.930 . S
H193 C166 0.931 . S
H194 C168 0.934 . S
H195 C169 0.930 . S
H196 C174 0.930 . S
H197 C175 0.931 . S
H198 C177 0.934 . S
H199 C178 0.930 . S
Ho200 C203 2.811 . S
Ho200 O220 2.322 . S
Ho200 O222 2.378 . S
Ho200 O223 2.524 . S
Ho200 O224 2.381 . S
Ho200 O225 2.669 . S
Ho200 O227 2.346 . S
Ho200 O231 2.305 . S
Ho201 C212 2.811 . S
Ho201 O221 2.346 . S
Ho201 O225 2.305 . S
Ho201 O226 2.322 . S
Ho201 O228 2.378 . S
Ho201 O229 2.524 . S
Ho201 O230 2.381 . S
Ho201 O231 2.669 . S
C202 O220 1.259 . S
C202 O221 1.268 . S
C203 Ho200 2.811 . S
C203 C204 1.488 . S
C203 O222 1.215 . S
C203 O223 1.289 . S
C204 C203 1.488 . S
C204 C205 1.348 . S
C204 C209 1.413 . S
C205 C204 1.348 . S
C205 C206 1.442 . S
C205 H232 0.930 . S
C206 C205 1.442 . S
C206 C207 1.381 . S
C206 H233 0.931 . S
C207 C206 1.381 . S
C207 C208 1.321 . S
C208 C207 1.321 . S
C208 C209 1.403 . S
C208 H234 0.934 . S
C209 C204 1.413 . S
C209 C208 1.403 . S
C209 H235 0.930 . S
C210 O224 1.275 . S
C210 O225 1.256 . S
C211 O226 1.259 . S
C211 O227 1.268 . S
C212 Ho201 2.811 . S
C212 C213 1.488 . S
C212 O228 1.215 . S
C212 O229 1.289 . S
C213 C212 1.488 . S
C213 C214 1.348 . S
C213 C218 1.413 . S
C214 C213 1.348 . S
C214 C215 1.442 . S
C214 H236 0.930 . S
C215 C214 1.442 . S
C215 C216 1.381 . S
C215 H237 0.931 . S
C216 C215 1.381 . S
C216 C217 1.321 . S
C217 C216 1.321 . S
C217 C218 1.403 . S
C217 H238 0.934 . S
C218 C213 1.413 . S
C218 C217 1.403 . S
C218 H239 0.930 . S
C219 O230 1.275 . S
C219 O231 1.256 . S
O220 Ho200 2.322 . S
O220 C202 1.259 . S
O221 Ho201 2.346 . S
O221 C202 1.268 . S
O222 Ho200 2.378 . S
O222 C203 1.215 . S
O223 Ho200 2.524 . S
O223 C203 1.289 . S
O224 Ho200 2.381 . S
O224 C210 1.275 . S
O225 Ho200 2.669 . S
O225 Ho201 2.305 . S
O225 C210 1.256 . S
O226 Ho201 2.322 . S
O226 C211 1.259 . S
O227 Ho200 2.346 . S
O227 C211 1.268 . S
O228 Ho201 2.378 . S
O228 C212 1.215 . S
O229 Ho201 2.524 . S
O229 C212 1.289 . S
O230 Ho201 2.381 . S
O230 C219 1.275 . S
O231 Ho200 2.305 . S
O231 Ho201 2.669 . S
O231 C219 1.256 . S
H232 C205 0.930 . S
H233 C206 0.931 . S
H234 C208 0.934 . S
H235 C209 0.930 . S
H236 C214 0.930 . S
H237 C215 0.931 . S
H238 C217 0.934 . S
H239 C218 0.930 . S
Ho240 C243 2.811 . S
Ho240 O260 2.322 . S
Ho240 O262 2.378 . S
Ho240 O263 2.524 . S
Ho240 O264 2.381 . S
Ho240 O265 2.669 . S
Ho240 O267 2.346 . S
Ho240 O271 2.305 . S
Ho241 C252 2.811 . S
Ho241 O261 2.346 . S
Ho241 O265 2.305 . S
Ho241 O266 2.322 . S
Ho241 O268 2.378 . S
Ho241 O269 2.524 . S
Ho241 O270 2.381 . S
Ho241 O271 2.669 . S
C242 O260 1.259 . S
C242 O261 1.268 . S
C243 Ho240 2.811 . S
C243 C244 1.488 . S
C243 O262 1.215 . S
C243 O263 1.289 . S
C244 C243 1.488 . S
C244 C245 1.348 . S
C244 C249 1.413 . S
C245 C244 1.348 . S
C245 C246 1.442 . S
C245 H272 0.930 . S
C246 C245 1.442 . S
C246 C247 1.381 . S
C246 H273 0.931 . S
C247 C246 1.381 . S
C247 C248 1.321 . S
C248 C247 1.321 . S
C248 C249 1.403 . S
C248 H274 0.934 . S
C249 C244 1.413 . S
C249 C248 1.403 . S
C249 H275 0.930 . S
C250 O264 1.275 . S
C250 O265 1.256 . S
C251 O266 1.259 . S
C251 O267 1.268 . S
C252 Ho241 2.811 . S
C252 C253 1.488 . S
C252 O268 1.215 . S
C252 O269 1.289 . S
C253 C252 1.488 . S
C253 C254 1.348 . S
C253 C258 1.413 . S
C254 C253 1.348 . S
C254 C255 1.442 . S
C254 H276 0.930 . S
C255 C254 1.442 . S
C255 C256 1.381 . S
C255 H277 0.931 . S
C256 C255 1.381 . S
C256 C257 1.321 . S
C257 C256 1.321 . S
C257 C258 1.403 . S
C257 H278 0.934 . S
C258 C253 1.413 . S
C258 C257 1.403 . S
C258 H279 0.930 . S
C259 O270 1.275 . S
C259 O271 1.256 . S
O260 Ho240 2.322 . S
O260 C242 1.259 . S
O261 Ho241 2.346 . S
O261 C242 1.268 . S
O262 Ho240 2.378 . S
O262 C243 1.215 . S
O263 Ho240 2.524 . S
O263 C243 1.289 . S
O264 Ho240 2.381 . S
O264 C250 1.275 . S
O265 Ho240 2.669 . S
O265 Ho241 2.305 . S
O265 C250 1.256 . S
O266 Ho241 2.322 . S
O266 C251 1.259 . S
O267 Ho240 2.346 . S
O267 C251 1.268 . S
O268 Ho241 2.378 . S
O268 C252 1.215 . S
O269 Ho241 2.524 . S
O269 C252 1.289 . S
O270 Ho241 2.381 . S
O270 C259 1.275 . S
O271 Ho240 2.305 . S
O271 Ho241 2.669 . S
O271 C259 1.256 . S
H272 C245 0.930 . S
H273 C246 0.931 . S
H274 C248 0.934 . S
H275 C249 0.930 . S
H276 C254 0.930 . S
H277 C255 0.931 . S
H278 C257 0.934 . S
H279 C258 0.930 . S
Ho280 C283 2.811 . S
Ho280 O300 2.322 . S
Ho280 O302 2.378 . S
Ho280 O303 2.524 . S
Ho280 O304 2.381 . S
Ho280 O305 2.669 . S
Ho280 O307 2.346 . S
Ho280 O311 2.305 . S
Ho281 C292 2.811 . S
Ho281 O301 2.346 . S
Ho281 O305 2.305 . S
Ho281 O306 2.322 . S
Ho281 O308 2.378 . S
Ho281 O309 2.524 . S
Ho281 O310 2.381 . S
Ho281 O311 2.669 . S
C282 O300 1.259 . S
C282 O301 1.268 . S
C283 Ho280 2.811 . S
C283 C284 1.488 . S
C283 O302 1.215 . S
C283 O303 1.289 . S
C284 C283 1.488 . S
C284 C285 1.348 . S
C284 C289 1.413 . S
C285 C284 1.348 . S
C285 C286 1.442 . S
C285 H312 0.930 . S
C286 C285 1.442 . S
C286 C287 1.381 . S
C286 H313 0.931 . S
C287 C286 1.381 . S
C287 C288 1.321 . S
C288 C287 1.321 . S
C288 C289 1.403 . S
C288 H314 0.934 . S
C289 C284 1.413 . S
C289 C288 1.403 . S
C289 H315 0.930 . S
C290 O304 1.275 . S
C290 O305 1.256 . S
C291 O306 1.259 . S
C291 O307 1.268 . S
C292 Ho281 2.811 . S
C292 C293 1.488 . S
C292 O308 1.215 . S
C292 O309 1.289 . S
C293 C292 1.488 . S
C293 C294 1.348 . S
C293 C298 1.413 . S
C294 C293 1.348 . S
C294 C295 1.442 . S
C294 H316 0.930 . S
C295 C294 1.442 . S
C295 C296 1.381 . S
C295 H317 0.931 . S
C296 C295 1.381 . S
C296 C297 1.321 . S
C297 C296 1.321 . S
C297 C298 1.403 . S
C297 H318 0.934 . S
C298 C293 1.413 . S
C298 C297 1.403 . S
C298 H319 0.930 . S
C299 O310 1.275 . S
C299 O311 1.256 . S
O300 Ho280 2.322 . S
O300 C282 1.259 . S
O301 Ho281 2.346 . S
O301 C282 1.268 . S
O302 Ho280 2.378 . S
O302 C283 1.215 . S
O303 Ho280 2.524 . S
O303 C283 1.289 . S
O304 Ho280 2.381 . S
O304 C290 1.275 . S
O305 Ho280 2.669 . S
O305 Ho281 2.305 . S
O305 C290 1.256 . S
O306 Ho281 2.322 . S
O306 C291 1.259 . S
O307 Ho280 2.346 . S
O307 C291 1.268 . S
O308 Ho281 2.378 . S
O308 C292 1.215 . S
O309 Ho281 2.524 . S
O309 C292 1.289 . S
O310 Ho281 2.381 . S
O310 C299 1.275 . S
O311 Ho280 2.305 . S
O311 Ho281 2.669 . S
O311 C299 1.256 . S
H312 C285 0.930 . S
H313 C286 0.931 . S
H314 C288 0.934 . S
H315 C289 0.930 . S
H316 C294 0.930 . S
H317 C295 0.931 . S
H318 C297 0.934 . S
H319 C298 0.930 . S
Ho320 C323 2.811 . S
Ho320 O340 2.322 . S
Ho320 O342 2.378 . S
Ho320 O343 2.524 . S
Ho320 O344 2.381 . S
Ho320 O345 2.669 . S
Ho320 O347 2.346 . S
Ho320 O351 2.305 . S
Ho321 C332 2.811 1_545 S
Ho321 O341 2.346 . S
Ho321 O345 2.305 . S
Ho321 O346 2.322 . S
Ho321 O348 2.378 1_545 S
Ho321 O349 2.524 1_545 S
Ho321 O350 2.381 . S
Ho321 O351 2.669 . S
C322 O340 1.259 . S
C322 O341 1.268 . S
C323 Ho320 2.811 . S
C323 C324 1.488 . S
C323 O342 1.215 . S
C323 O343 1.289 . S
C324 C323 1.488 . S
C324 C325 1.348 . S
C324 C329 1.413 . S
C325 C324 1.348 . S
C325 C326 1.442 . S
C325 H352 0.930 . S
C326 C325 1.442 . S
C326 C327 1.381 . S
C326 H353 0.931 . S
C327 C326 1.381 . S
C327 C328 1.321 . S
C328 C327 1.321 . S
C328 C329 1.403 . S
C328 H354 0.934 . S
C329 C324 1.413 . S
C329 C328 1.403 . S
C329 H355 0.930 . S
C330 O344 1.275 . S
C330 O345 1.256 . S
C331 O346 1.259 . S
C331 O347 1.268 . S
C332 Ho321 2.811 1_565 S
C332 C333 1.488 . S
C332 O348 1.215 . S
C332 O349 1.289 . S
C333 C332 1.488 . S
C333 C334 1.348 . S
C333 C338 1.413 . S
C334 C333 1.348 . S
C334 C335 1.442 . S
C334 H356 0.930 . S
C335 C334 1.442 . S
C335 C336 1.381 . S
C335 H357 0.931 . S
C336 C335 1.381 . S
C336 C337 1.321 . S
C337 C336 1.321 . S
C337 C338 1.403 . S
C337 H358 0.934 . S
C338 C333 1.413 . S
C338 C337 1.403 . S
C338 H359 0.930 . S
C339 O350 1.275 . S
C339 O351 1.256 . S
O340 Ho320 2.322 . S
O340 C322 1.259 . S
O341 Ho321 2.346 . S
O341 C322 1.268 . S
O342 Ho320 2.378 . S
O342 C323 1.215 . S
O343 Ho320 2.524 . S
O343 C323 1.289 . S
O344 Ho320 2.381 . S
O344 C330 1.275 . S
O345 Ho320 2.669 . S
O345 Ho321 2.305 . S
O345 C330 1.256 . S
O346 Ho321 2.322 . S
O346 C331 1.259 . S
O347 Ho320 2.346 . S
O347 C331 1.268 . S
O348 Ho321 2.378 1_565 S
O348 C332 1.215 . S
O349 Ho321 2.524 1_565 S
O349 C332 1.289 . S
O350 Ho321 2.381 . S
O350 C339 1.275 . S
O351 Ho320 2.305 . S
O351 Ho321 2.669 . S
O351 C339 1.256 . S
H352 C325 0.930 . S
H353 C326 0.931 . S
H354 C328 0.934 . S
H355 C329 0.930 . S
H356 C334 0.930 . S
H357 C335 0.931 . S
H358 C337 0.934 . S
H359 C338 0.930 . S
Ho360 C363 2.811 . S
Ho360 O380 2.322 . S
Ho360 O382 2.378 . S
Ho360 O383 2.524 . S
Ho360 O384 2.381 . S
Ho360 O385 2.669 . S
Ho360 O387 2.346 . S
Ho360 O391 2.305 . S
Ho361 C372 2.811 . S
Ho361 O381 2.346 . S
Ho361 O385 2.305 . S
Ho361 O386 2.322 . S
Ho361 O388 2.378 . S
Ho361 O389 2.524 . S
Ho361 O390 2.381 . S
Ho361 O391 2.669 . S
C362 O380 1.259 . S
C362 O381 1.268 . S
C363 Ho360 2.811 . S
C363 C364 1.488 . S
C363 O382 1.215 . S
C363 O383 1.289 . S
C364 C363 1.488 . S
C364 C365 1.348 . S
C364 C369 1.413 . S
C365 C364 1.348 . S
C365 C366 1.442 . S
C365 H392 0.930 . S
C366 C365 1.442 . S
C366 C367 1.381 . S
C366 H393 0.931 . S
C367 C366 1.381 . S
C367 C368 1.321 . S
C368 C367 1.321 . S
C368 C369 1.403 . S
C368 H394 0.934 . S
C369 C364 1.413 . S
C369 C368 1.403 . S
C369 H395 0.930 . S
C370 O384 1.275 . S
C370 O385 1.256 . S
C371 O386 1.259 . S
C371 O387 1.268 . S
C372 Ho361 2.811 . S
C372 C373 1.488 . S
C372 O388 1.215 . S
C372 O389 1.289 . S
C373 C372 1.488 . S
C373 C374 1.348 . S
C373 C378 1.413 . S
C374 C373 1.348 . S
C374 C375 1.442 . S
C374 H396 0.930 . S
C375 C374 1.442 . S
C375 C376 1.381 . S
C375 H397 0.931 . S
C376 C375 1.381 . S
C376 C377 1.321 . S
C377 C376 1.321 . S
C377 C378 1.403 . S
C377 H398 0.934 . S
C378 C373 1.413 . S
C378 C377 1.403 . S
C378 H399 0.930 . S
C379 O390 1.275 . S
C379 O391 1.256 . S
O380 Ho360 2.322 . S
O380 C362 1.259 . S
O381 Ho361 2.346 . S
O381 C362 1.268 . S
O382 Ho360 2.378 . S
O382 C363 1.215 . S
O383 Ho360 2.524 . S
O383 C363 1.289 . S
O384 Ho360 2.381 . S
O384 C370 1.275 . S
O385 Ho360 2.669 . S
O385 Ho361 2.305 . S
O385 C370 1.256 . S
O386 Ho361 2.322 . S
O386 C371 1.259 . S
O387 Ho360 2.346 . S
O387 C371 1.268 . S
O388 Ho361 2.378 . S
O388 C372 1.215 . S
O389 Ho361 2.524 . S
O389 C372 1.289 . S
O390 Ho361 2.381 . S
O390 C379 1.275 . S
O391 Ho360 2.305 . S
O391 Ho361 2.669 . S
O391 C379 1.256 . S
H392 C365 0.930 . S
H393 C366 0.931 . S
H394 C368 0.934 . S
H395 C369 0.930 . S
H396 C374 0.930 . S
H397 C375 0.931 . S
H398 C377 0.934 . S
H399 C378 0.930 . S
Ho400 C403 2.811 . S
Ho400 O420 2.322 . S
Ho400 O422 2.378 . S
Ho400 O423 2.524 . S
Ho400 O424 2.381 1_565 S
Ho400 O425 2.669 1_565 S
Ho400 O427 2.346 1_565 S
Ho400 O431 2.305 . S
Ho401 C412 2.811 . S
Ho401 O421 2.346 1_545 S
Ho401 O425 2.305 . S
Ho401 O426 2.322 . S
Ho401 O428 2.378 . S
Ho401 O429 2.524 . S
Ho401 O430 2.381 1_545 S
Ho401 O431 2.669 1_545 S
C402 O420 1.259 . S
C402 O421 1.268 . S
C403 Ho400 2.811 . S
C403 C404 1.488 . S
C403 O422 1.215 . S
C403 O423 1.289 . S
C404 C403 1.488 . S
C404 C405 1.348 . S
C404 C409 1.413 . S
C405 C404 1.348 . S
C405 C406 1.442 . S
C405 H432 0.930 . S
C406 C405 1.442 . S
C406 C407 1.381 . S
C406 H433 0.931 . S
C407 C406 1.381 . S
C407 C408 1.321 . S
C408 C407 1.321 . S
C408 C409 1.403 . S
C408 H434 0.934 . S
C409 C404 1.413 . S
C409 C408 1.403 . S
C409 H435 0.930 . S
C410 O424 1.275 . S
C410 O425 1.256 . S
C411 O426 1.259 . S
C411 O427 1.268 . S
C412 Ho401 2.811 . S
C412 C413 1.488 . S
C412 O428 1.215 . S
C412 O429 1.289 . S
C413 C412 1.488 . S
C413 C414 1.348 . S
C413 C418 1.413 . S
C414 C413 1.348 . S
C414 C415 1.442 . S
C414 H436 0.930 . S
C415 C414 1.442 . S
C415 C416 1.381 . S
C415 H437 0.931 . S
C416 C415 1.381 . S
C416 C417 1.321 . S
C417 C416 1.321 . S
C417 C418 1.403 . S
C417 H438 0.934 . S
C418 C413 1.413 . S
C418 C417 1.403 . S
C418 H439 0.930 . S
C419 O430 1.275 . S
C419 O431 1.256 . S
O420 Ho400 2.322 . S
O420 C402 1.259 . S
O421 Ho401 2.346 1_565 S
O421 C402 1.268 . S
O422 Ho400 2.378 . S
O422 C403 1.215 . S
O423 Ho400 2.524 . S
O423 C403 1.289 . S
O424 Ho400 2.381 1_545 S
O424 C410 1.275 . S
O425 Ho400 2.669 1_545 S
O425 Ho401 2.305 . S
O425 C410 1.256 . S
O426 Ho401 2.322 . S
O426 C411 1.259 . S
O427 Ho400 2.346 1_545 S
O427 C411 1.268 . S
O428 Ho401 2.378 . S
O428 C412 1.215 . S
O429 Ho401 2.524 . S
O429 C412 1.289 . S
O430 Ho401 2.381 1_565 S
O430 C419 1.275 . S
O431 Ho400 2.305 . S
O431 Ho401 2.669 1_565 S
O431 C419 1.256 . S
H432 C405 0.930 . S
H433 C406 0.931 . S
H434 C408 0.934 . S
H435 C409 0.930 . S
H436 C414 0.930 . S
H437 C415 0.931 . S
H438 C417 0.934 . S
H439 C418 0.930 . S
Ho440 C443 2.811 . S
Ho440 O460 2.322 . S
Ho440 O462 2.378 . S
Ho440 O463 2.524 . S
Ho440 O464 2.381 . S
Ho440 O465 2.669 . S
Ho440 O467 2.346 . S
Ho440 O471 2.305 . S
Ho441 C452 2.811 . S
Ho441 O461 2.346 . S
Ho441 O465 2.305 . S
Ho441 O466 2.322 . S
Ho441 O468 2.378 . S
Ho441 O469 2.524 . S
Ho441 O470 2.381 . S
Ho441 O471 2.669 . S
C442 O460 1.259 . S
C442 O461 1.268 . S
C443 Ho440 2.811 . S
C443 C444 1.488 . S
C443 O462 1.215 . S
C443 O463 1.289 . S
C444 C443 1.488 . S
C444 C445 1.348 . S
C444 C449 1.413 . S
C445 C444 1.348 . S
C445 C446 1.442 . S
C445 H472 0.930 . S
C446 C445 1.442 . S
C446 C447 1.381 . S
C446 H473 0.931 . S
C447 C446 1.381 . S
C447 C448 1.321 . S
C448 C447 1.321 . S
C448 C449 1.403 . S
C448 H474 0.934 . S
C449 C444 1.413 . S
C449 C448 1.403 . S
C449 H475 0.930 . S
C450 O464 1.275 . S
C450 O465 1.256 . S
C451 O466 1.259 . S
C451 O467 1.268 . S
C452 Ho441 2.811 . S
C452 C453 1.488 . S
C452 O468 1.215 . S
C452 O469 1.289 . S
C453 C452 1.488 . S
C453 C454 1.348 . S
C453 C458 1.413 . S
C454 C453 1.348 . S
C454 C455 1.442 . S
C454 H476 0.930 . S
C455 C454 1.442 . S
C455 C456 1.381 . S
C455 H477 0.931 . S
C456 C455 1.381 . S
C456 C457 1.321 . S
C457 C456 1.321 . S
C457 C458 1.403 . S
C457 H478 0.934 . S
C458 C453 1.413 . S
C458 C457 1.403 . S
C458 H479 0.930 . S
C459 O470 1.275 . S
C459 O471 1.256 . S
O460 Ho440 2.322 . S
O460 C442 1.259 . S
O461 Ho441 2.346 . S
O461 C442 1.268 . S
O462 Ho440 2.378 . S
O462 C443 1.215 . S
O463 Ho440 2.524 . S
O463 C443 1.289 . S
O464 Ho440 2.381 . S
O464 C450 1.275 . S
O465 Ho440 2.669 . S
O465 Ho441 2.305 . S
O465 C450 1.256 . S
O466 Ho441 2.322 . S
O466 C451 1.259 . S
O467 Ho440 2.346 . S
O467 C451 1.268 . S
O468 Ho441 2.378 . S
O468 C452 1.215 . S
O469 Ho441 2.524 . S
O469 C452 1.289 . S
O470 Ho441 2.381 . S
O470 C459 1.275 . S
O471 Ho440 2.305 . S
O471 Ho441 2.669 . S
O471 C459 1.256 . S
H472 C445 0.930 . S
H473 C446 0.931 . S
H474 C448 0.934 . S
H475 C449 0.930 . S
H476 C454 0.930 . S
H477 C455 0.931 . S
H478 C457 0.934 . S
H479 C458 0.930 . S
Ho480 C483 2.811 . S
Ho480 O500 2.322 . S
Ho480 O502 2.378 . S
Ho480 O503 2.524 . S
Ho480 O504 2.381 . S
Ho480 O505 2.669 . S
Ho480 O507 2.346 . S
Ho480 O511 2.305 . S
Ho481 C492 2.808 1_565 S
Ho481 O501 2.348 . S
Ho481 O505 2.305 . S
Ho481 O506 2.321 1_565 S
Ho481 O508 2.375 1_565 S
Ho481 O509 2.520 1_565 S
Ho481 O510 2.383 . S
Ho481 O511 2.672 . S
C482 O500 1.259 . S
C482 O501 1.268 . S
C483 Ho480 2.811 . S
C483 C484 1.488 . S
C483 O502 1.215 . S
C483 O503 1.289 . S
C484 C483 1.488 . S
C484 C485 1.348 . S
C484 C489 1.413 . S
C485 C484 1.348 . S
C485 C486 1.442 . S
C485 H512 0.930 . S
C486 C485 1.442 . S
C486 C487 1.381 . S
C486 H513 0.931 . S
C487 C486 1.381 . S
C487 C488 1.321 . S
C488 C487 1.321 . S
C488 C489 1.403 . S
C488 H514 0.934 . S
C489 C484 1.413 . S
C489 C488 1.403 . S
C489 H515 0.930 . S
C490 O504 1.275 . S
C490 O505 1.256 . S
C491 O506 1.259 . S
C491 O507 1.268 1_545 S
C492 Ho481 2.808 1_545 S
C492 C493 1.488 . S
C492 O508 1.215 . S
C492 O509 1.289 . S
C493 C492 1.488 . S
C493 C494 1.348 . S
C493 C498 1.413 . S
C494 C493 1.348 . S
C494 C495 1.442 . S
C494 H516 0.930 . S
C495 C494 1.442 . S
C495 C496 1.381 . S
C495 H517 0.931 . S
C496 C495 1.381 . S
C496 C497 1.321 . S
C497 C496 1.321 . S
C497 C498 1.403 . S
C497 H518 0.934 . S
C498 C493 1.413 . S
C498 C497 1.403 . S
C498 H519 0.930 . S
C499 O510 1.275 . S
C499 O511 1.256 . S
O500 Ho480 2.322 . S
O500 C482 1.259 . S
O501 Ho481 2.348 . S
O501 C482 1.268 . S
O502 Ho480 2.378 . S
O502 C483 1.215 . S
O503 Ho480 2.524 . S
O503 C483 1.289 . S
O504 Ho480 2.381 . S
O504 C490 1.275 . S
O505 Ho480 2.669 . S
O505 Ho481 2.305 . S
O505 C490 1.256 . S
O506 Ho481 2.321 1_545 S
O506 C491 1.259 . S
O507 Ho480 2.346 . S
O507 C491 1.268 1_565 S
O508 Ho481 2.375 1_545 S
O508 C492 1.215 . S
O509 Ho481 2.520 1_545 S
O509 C492 1.289 . S
O510 Ho481 2.383 . S
O510 C499 1.275 . S
O511 Ho480 2.305 . S
O511 Ho481 2.672 . S
O511 C499 1.256 . S
H512 C485 0.930 . S
H513 C486 0.931 . S
H514 C488 0.934 . S
H515 C489 0.930 . S
H516 C494 0.930 . S
H517 C495 0.931 . S
H518 C497 0.934 . S
H519 C498 0.930 . S
Ho520 C523 2.811 . S
Ho520 O540 2.322 . S
Ho520 O542 2.378 . S
Ho520 O543 2.524 . S
Ho520 O544 2.381 . S
Ho520 O545 2.669 . S
Ho520 O547 2.346 . S
Ho520 O551 2.305 . S
Ho521 C532 2.811 . S
Ho521 O541 2.346 . S
Ho521 O545 2.305 . S
Ho521 O546 2.322 . S
Ho521 O548 2.378 . S
Ho521 O549 2.524 . S
Ho521 O550 2.381 . S
Ho521 O551 2.669 . S
C522 O540 1.259 . S
C522 O541 1.268 . S
C523 Ho520 2.811 . S
C523 C524 1.488 . S
C523 O542 1.215 . S
C523 O543 1.289 . S
C524 C523 1.488 . S
C524 C525 1.348 . S
C524 C529 1.413 . S
C525 C524 1.348 . S
C525 C526 1.442 . S
C525 H552 0.930 . S
C526 C525 1.442 . S
C526 C527 1.381 . S
C526 H553 0.931 . S
C527 C526 1.381 . S
C527 C528 1.321 . S
C528 C527 1.321 . S
C528 C529 1.403 . S
C528 H554 0.934 . S
C529 C524 1.413 . S
C529 C528 1.403 . S
C529 H555 0.930 . S
C530 O544 1.275 . S
C530 O545 1.256 . S
C531 O546 1.259 . S
C531 O547 1.268 . S
C532 Ho521 2.811 . S
C532 C533 1.488 . S
C532 O548 1.215 . S
C532 O549 1.289 . S
C533 C532 1.488 . S
C533 C534 1.348 . S
C533 C538 1.413 . S
C534 C533 1.348 . S
C534 C535 1.442 . S
C534 H556 0.930 . S
C535 C534 1.442 . S
C535 C536 1.381 . S
C535 H557 0.931 . S
C536 C535 1.381 . S
C536 C537 1.321 . S
C537 C536 1.321 . S
C537 C538 1.403 . S
C537 H558 0.934 . S
C538 C533 1.413 . S
C538 C537 1.403 . S
C538 H559 0.930 . S
C539 O550 1.275 . S
C539 O551 1.256 . S
O540 Ho520 2.322 . S
O540 C522 1.259 . S
O541 Ho521 2.346 . S
O541 C522 1.268 . S
O542 Ho520 2.378 . S
O542 C523 1.215 . S
O543 Ho520 2.524 . S
O543 C523 1.289 . S
O544 Ho520 2.381 . S
O544 C530 1.275 . S
O545 Ho520 2.669 . S
O545 Ho521 2.305 . S
O545 C530 1.256 . S
O546 Ho521 2.322 . S
O546 C531 1.259 . S
O547 Ho520 2.346 . S
O547 C531 1.268 . S
O548 Ho521 2.378 . S
O548 C532 1.215 . S
O549 Ho521 2.524 . S
O549 C532 1.289 . S
O550 Ho521 2.381 . S
O550 C539 1.275 . S
O551 Ho520 2.305 . S
O551 Ho521 2.669 . S
O551 C539 1.256 . S
H552 C525 0.930 . S
H553 C526 0.931 . S
H554 C528 0.934 . S
H555 C529 0.930 . S
H556 C534 0.930 . S
H557 C535 0.931 . S
H558 C537 0.934 . S
H559 C538 0.930 . S
Ho560 C563 2.811 . S
Ho560 O580 2.322 . S
Ho560 O582 2.378 . S
Ho560 O583 2.524 . S
Ho560 O584 2.415 . S
Ho560 O585 2.669 1_545 S
Ho560 O587 2.346 1_545 S
Ho560 O591 2.305 . S
Ho561 C572 2.811 . S
Ho561 O581 2.346 1_565 S
Ho561 O585 2.305 . S
Ho561 O586 2.322 . S
Ho561 O588 2.378 . S
Ho561 O589 2.524 . S
Ho561 O590 2.381 1_565 S
Ho561 O591 2.669 1_565 S
C562 O580 1.259 . S
C562 O581 1.268 . S
C563 Ho560 2.811 . S
C563 C564 1.488 . S
C563 O582 1.215 . S
C563 O583 1.289 . S
C564 C563 1.488 . S
C564 C565 1.348 . S
C564 C569 1.413 . S
C565 C564 1.348 . S
C565 C566 1.442 . S
C565 H592 0.930 . S
C566 C565 1.442 . S
C566 C567 1.381 . S
C566 H593 0.931 . S
C567 C566 1.381 . S
C567 C568 1.321 . S
C568 C567 1.321 . S
C568 C569 1.403 . S
C568 H594 0.934 . S
C569 C564 1.413 . S
C569 C568 1.403 . S
C569 H595 0.930 . S
C570 O584 1.233 1_565 S
C570 O585 1.256 . S
C571 O586 1.259 . S
C571 O587 1.268 . S
C572 Ho561 2.811 . S
C572 C573 1.488 . S
C572 O588 1.215 . S
C572 O589 1.289 . S
C573 C572 1.488 . S
C573 C574 1.348 . S
C573 C578 1.413 . S
C574 C573 1.348 . S
C574 C575 1.442 . S
C574 H596 0.930 . S
C575 C574 1.442 . S
C575 C576 1.381 . S
C575 H597 0.931 . S
C576 C575 1.381 . S
C576 C577 1.321 . S
C577 C576 1.321 . S
C577 C578 1.403 . S
C577 H598 0.934 . S
C578 C573 1.413 . S
C578 C577 1.403 . S
C578 H599 0.930 . S
C579 O590 1.275 . S
C579 O591 1.256 . S
O580 Ho560 2.322 . S
O580 C562 1.259 . S
O581 Ho561 2.346 1_545 S
O581 C562 1.268 . S
O582 Ho560 2.378 . S
O582 C563 1.215 . S
O583 Ho560 2.524 . S
O583 C563 1.289 . S
O584 Ho560 2.415 . S
O584 C570 1.233 1_545 S
O585 Ho560 2.669 1_565 S
O585 Ho561 2.305 . S
O585 C570 1.256 . S
O586 Ho561 2.322 . S
O586 C571 1.259 . S
O587 Ho560 2.346 1_565 S
O587 C571 1.268 . S
O588 Ho561 2.378 . S
O588 C572 1.215 . S
O589 Ho561 2.524 . S
O589 C572 1.289 . S
O590 Ho561 2.381 1_545 S
O590 C579 1.275 . S
O591 Ho560 2.305 . S
O591 Ho561 2.669 1_545 S
O591 C579 1.256 . S
H592 C565 0.930 . S
H593 C566 0.931 . S
H594 C568 0.934 . S
H595 C569 0.930 . S
H596 C574 0.930 . S
H597 C575 0.931 . S
H598 C577 0.934 . S
H599 C578 0.930 . S
Ho600 C603 2.811 . S
Ho600 O620 2.322 . S
Ho600 O622 2.378 . S
Ho600 O623 2.524 . S
Ho600 O624 2.381 . S
Ho600 O625 2.669 . S
Ho600 O627 2.346 . S
Ho600 O631 2.305 . S
Ho601 C612 2.811 . S
Ho601 O621 2.346 . S
Ho601 O625 2.305 . S
Ho601 O626 2.322 . S
Ho601 O628 2.378 . S
Ho601 O629 2.524 . S
Ho601 O630 2.381 . S
Ho601 O631 2.669 . S
C602 O620 1.259 . S
C602 O621 1.268 . S
C603 Ho600 2.811 . S
C603 C604 1.488 . S
C603 O622 1.215 . S
C603 O623 1.289 . S
C604 C603 1.488 . S
C604 C605 1.348 . S
C604 C609 1.413 . S
C605 C604 1.348 . S
C605 C606 1.442 . S
C605 H632 0.930 . S
C606 C605 1.442 . S
C606 C607 1.381 . S
C606 H633 0.931 . S
C607 C606 1.381 . S
C607 C608 1.321 . S
C608 C607 1.321 . S
C608 C609 1.403 . S
C608 H634 0.934 . S
C609 C604 1.413 . S
C609 C608 1.403 . S
C609 H635 0.930 . S
C610 O624 1.275 . S
C610 O625 1.256 . S
C611 O626 1.259 . S
C611 O627 1.268 . S
C612 Ho601 2.811 . S
C612 C613 1.488 . S
C612 O628 1.215 . S
C612 O629 1.289 . S
C613 C612 1.488 . S
C613 C614 1.348 . S
C613 C618 1.413 . S
C614 C613 1.348 . S
C614 C615 1.442 . S
C614 H636 0.930 . S
C615 C614 1.442 . S
C615 C616 1.381 . S
C615 H637 0.931 . S
C616 C615 1.381 . S
C616 C617 1.321 . S
C617 C616 1.321 . S
C617 C618 1.403 . S
C617 H638 0.934 . S
C618 C613 1.413 . S
C618 C617 1.403 . S
C618 H639 0.930 . S
C619 O630 1.275 . S
C619 O631 1.256 . S
O620 Ho600 2.322 . S
O620 C602 1.259 . S
O621 Ho601 2.346 . S
O621 C602 1.268 . S
O622 Ho600 2.378 . S
O622 C603 1.215 . S
O623 Ho600 2.524 . S
O623 C603 1.289 . S
O624 Ho600 2.381 . S
O624 C610 1.275 . S
O625 Ho600 2.669 . S
O625 Ho601 2.305 . S
O625 C610 1.256 . S
O626 Ho601 2.322 . S
O626 C611 1.259 . S
O627 Ho600 2.346 . S
O627 C611 1.268 . S
O628 Ho601 2.378 . S
O628 C612 1.215 . S
O629 Ho601 2.524 . S
O629 C612 1.289 . S
O630 Ho601 2.381 . S
O630 C619 1.275 . S
O631 Ho600 2.305 . S
O631 Ho601 2.669 . S
O631 C619 1.256 . S
H632 C605 0.930 . S
H633 C606 0.931 . S
H634 C608 0.934 . S
H635 C609 0.930 . S
H636 C614 0.930 . S
H637 C615 0.931 . S
H638 C617 0.934 . S
H639 C618 0.930 . S
Ho640 C643 2.811 . S
Ho640 O660 2.322 . S
Ho640 O662 2.378 . S
Ho640 O663 2.524 . S
Ho640 O664 2.381 . S
Ho640 O665 2.669 1_554 S
Ho640 O667 2.346 1_554 S
Ho640 O671 2.305 . S
Ho641 C652 2.811 . S
Ho641 O661 2.346 1_556 S
Ho641 O665 2.305 . S
Ho641 O666 2.322 . S
Ho641 O668 2.378 . S
Ho641 O669 2.524 . S
Ho641 O670 2.381 1_556 S
Ho641 O671 2.669 1_556 S
C642 O660 1.259 . S
C642 O661 1.268 . S
C643 Ho640 2.811 . S
C643 C644 1.488 . S
C643 O662 1.215 . S
C643 O663 1.289 . S
C644 C643 1.488 . S
C644 C645 1.348 . S
C644 C649 1.413 . S
C645 C644 1.348 . S
C645 C646 1.442 . S
C645 H672 0.930 . S
C646 C645 1.442 . S
C646 C647 1.381 . S
C646 H673 0.931 . S
C647 C646 1.381 . S
C647 C648 1.321 . S
C648 C647 1.321 . S
C648 C649 1.403 . S
C648 H674 0.934 . S
C649 C644 1.413 . S
C649 C648 1.403 . S
C649 H675 0.930 . S
C650 O664 1.275 1_556 S
C650 O665 1.256 . S
C651 O666 1.259 . S
C651 O667 1.268 . S
C652 Ho641 2.811 . S
C652 C653 1.488 . S
C652 O668 1.215 . S
C652 O669 1.289 . S
C653 C652 1.488 . S
C653 C654 1.348 . S
C653 C658 1.413 . S
C654 C653 1.348 . S
C654 C655 1.442 . S
C654 H676 0.930 . S
C655 C654 1.442 . S
C655 C656 1.381 . S
C655 H677 0.931 . S
C656 C655 1.381 . S
C656 C657 1.321 . S
C657 C656 1.321 . S
C657 C658 1.403 . S
C657 H678 0.934 . S
C658 C653 1.413 . S
C658 C657 1.403 . S
C658 H679 0.930 . S
C659 O670 1.275 . S
C659 O671 1.256 . S
O660 Ho640 2.322 . S
O660 C642 1.259 . S
O661 Ho641 2.346 1_554 S
O661 C642 1.268 . S
O662 Ho640 2.378 . S
O662 C643 1.215 . S
O663 Ho640 2.524 . S
O663 C643 1.289 . S
O664 Ho640 2.381 . S
O664 C650 1.275 1_554 S
O665 Ho640 2.669 1_556 S
O665 Ho641 2.305 . S
O665 C650 1.256 . S
O666 Ho641 2.322 . S
O666 C651 1.259 . S
O667 Ho640 2.346 1_556 S
O667 C651 1.268 . S
O668 Ho641 2.378 . S
O668 C652 1.215 . S
O669 Ho641 2.524 . S
O669 C652 1.289 . S
O670 Ho641 2.381 1_554 S
O670 C659 1.275 . S
O671 Ho640 2.305 . S
O671 Ho641 2.669 1_554 S
O671 C659 1.256 . S
H672 C645 0.930 . S
H673 C646 0.931 . S
H674 C648 0.934 . S
H675 C649 0.930 . S
H676 C654 0.930 . S
H677 C655 0.931 . S
H678 C657 0.934 . S
H679 C658 0.930 . S
Ho680 C683 2.811 1_556 S
Ho680 O700 2.322 1_556 S
Ho680 O702 2.378 1_556 S
Ho680 O703 2.524 1_556 S
Ho680 O704 2.381 . S
Ho680 O705 2.669 . S
Ho680 O707 2.346 . S
Ho680 O711 2.305 1_556 S
Ho681 C692 2.811 . S
Ho681 O701 2.346 1_556 S
Ho681 O705 2.305 . S
Ho681 O706 2.322 . S
Ho681 O708 2.378 . S
Ho681 O709 2.524 . S
Ho681 O710 2.381 1_556 S
Ho681 O711 2.669 1_556 S
C682 O700 1.259 . S
C682 O701 1.268 . S
C683 Ho680 2.811 1_554 S
C683 C684 1.488 . S
C683 O702 1.215 . S
C683 O703 1.289 . S
C684 C683 1.488 . S
C684 C685 1.348 . S
C684 C689 1.413 . S
C685 C684 1.348 . S
C685 C686 1.442 . S
C685 H712 0.930 . S
C686 C685 1.442 . S
C686 C687 1.381 . S
C686 H713 0.931 . S
C687 C686 1.381 . S
C687 C688 1.321 . S
C688 C687 1.321 . S
C688 C689 1.403 . S
C688 H714 0.934 . S
C689 C684 1.413 . S
C689 C688 1.403 . S
C689 H715 0.930 . S
C690 O704 1.275 . S
C690 O705 1.256 . S
C691 O706 1.259 . S
C691 O707 1.268 . S
C692 Ho681 2.811 . S
C692 C693 1.488 . S
C692 O708 1.215 . S
C692 O709 1.289 . S
C693 C692 1.488 . S
C693 C694 1.348 . S
C693 C698 1.413 . S
C694 C693 1.348 . S
C694 C695 1.442 . S
C694 H716 0.930 . S
C695 C694 1.442 . S
C695 C696 1.381 . S
C695 H717 0.931 . S
C696 C695 1.381 . S
C696 C697 1.321 . S
C697 C696 1.321 . S
C697 C698 1.403 . S
C697 H718 0.934 . S
C698 C693 1.413 . S
C698 C697 1.403 . S
C698 H719 0.930 . S
C699 O710 1.275 . S
C699 O711 1.256 . S
O700 Ho680 2.322 1_554 S
O700 C682 1.259 . S
O701 Ho681 2.346 1_554 S
O701 C682 1.268 . S
O702 Ho680 2.378 1_554 S
O702 C683 1.215 . S
O703 Ho680 2.524 1_554 S
O703 C683 1.289 . S
O704 Ho680 2.381 . S
O704 C690 1.275 . S
O705 Ho680 2.669 . S
O705 Ho681 2.305 . S
O705 C690 1.256 . S
O706 Ho681 2.322 . S
O706 C691 1.259 . S
O707 Ho680 2.346 . S
O707 C691 1.268 . S
O708 Ho681 2.378 . S
O708 C692 1.215 . S
O709 Ho681 2.524 . S
O709 C692 1.289 . S
O710 Ho681 2.381 1_554 S
O710 C699 1.275 . S
O711 Ho680 2.305 1_554 S
O711 Ho681 2.669 1_554 S
O711 C699 1.256 . S
H712 C685 0.930 . S
H713 C686 0.931 . S
H714 C688 0.934 . S
H715 C689 0.930 . S
H716 C694 0.930 . S
H717 C695 0.931 . S
H718 C697 0.934 . S
H719 C698 0.930 . S
Ho720 C723 2.811 . S
Ho720 O740 2.322 . S
Ho720 O742 2.378 . S
Ho720 O743 2.524 . S
Ho720 O744 2.381 . S
Ho720 O745 2.669 . S
Ho720 O747 2.346 . S
Ho720 O751 2.305 . S
Ho721 C732 2.811 . S
Ho721 O741 2.346 . S
Ho721 O745 2.305 . S
Ho721 O746 2.322 . S
Ho721 O748 2.378 . S
Ho721 O749 2.524 . S
Ho721 O750 2.381 . S
Ho721 O751 2.669 . S
C722 O740 1.259 . S
C722 O741 1.268 . S
C723 Ho720 2.811 . S
C723 C724 1.488 . S
C723 O742 1.215 . S
C723 O743 1.289 . S
C724 C723 1.488 . S
C724 C725 1.348 . S
C724 C729 1.413 . S
C725 C724 1.348 . S
C725 C726 1.442 . S
C725 H752 0.930 . S
C726 C725 1.442 . S
C726 C727 1.381 . S
C726 H753 0.931 . S
C727 C726 1.381 . S
C727 C728 1.321 . S
C728 C727 1.321 . S
C728 C729 1.403 . S
C728 H754 0.934 . S
C729 C724 1.413 . S
C729 C728 1.403 . S
C729 H755 0.930 . S
C730 O744 1.275 . S
C730 O745 1.256 . S
C731 O746 1.259 . S
C731 O747 1.268 . S
C732 Ho721 2.811 . S
C732 C733 1.488 . S
C732 O748 1.215 . S
C732 O749 1.289 . S
C733 C732 1.488 . S
C733 C734 1.348 . S
C733 C738 1.413 . S
C734 C733 1.348 . S
C734 C735 1.442 . S
C734 H756 0.930 . S
C735 C734 1.442 . S
C735 C736 1.381 . S
C735 H757 0.931 . S
C736 C735 1.381 . S
C736 C737 1.321 . S
C737 C736 1.321 . S
C737 C738 1.403 . S
C737 H758 0.934 . S
C738 C733 1.413 . S
C738 C737 1.403 . S
C738 H759 0.930 . S
C739 O750 1.275 . S
C739 O751 1.256 . S
O740 Ho720 2.322 . S
O740 C722 1.259 . S
O741 Ho721 2.346 . S
O741 C722 1.268 . S
O742 Ho720 2.378 . S
O742 C723 1.215 . S
O743 Ho720 2.524 . S
O743 C723 1.289 . S
O744 Ho720 2.381 . S
O744 C730 1.275 . S
O745 Ho720 2.669 . S
O745 Ho721 2.305 . S
O745 C730 1.256 . S
O746 Ho721 2.322 . S
O746 C731 1.259 . S
O747 Ho720 2.346 . S
O747 C731 1.268 . S
O748 Ho721 2.378 . S
O748 C732 1.215 . S
O749 Ho721 2.524 . S
O749 C732 1.289 . S
O750 Ho721 2.381 . S
O750 C739 1.275 . S
O751 Ho720 2.305 . S
O751 Ho721 2.669 . S
O751 C739 1.256 . S
H752 C725 0.930 . S
H753 C726 0.931 . S
H754 C728 0.934 . S
H755 C729 0.930 . S
H756 C734 0.930 . S
H757 C735 0.931 . S
H758 C737 0.934 . S
H759 C738 0.930 . S
Ho760 C763 2.811 . S
Ho760 O780 2.322 . S
Ho760 O782 2.378 . S
Ho760 O783 2.524 . S
Ho760 O784 2.381 . S
Ho760 O785 2.669 . S
Ho760 O787 2.346 . S
Ho760 O791 2.305 . S
Ho761 C772 2.811 . S
Ho761 O781 2.346 . S
Ho761 O785 2.305 . S
Ho761 O786 2.322 . S
Ho761 O788 2.378 . S
Ho761 O789 2.524 . S
Ho761 O790 2.381 . S
Ho761 O791 2.669 . S
C762 O780 1.259 . S
C762 O781 1.268 . S
C763 Ho760 2.811 . S
C763 C764 1.488 . S
C763 O782 1.215 . S
C763 O783 1.289 . S
C764 C763 1.488 . S
C764 C765 1.348 . S
C764 C769 1.413 . S
C765 C764 1.348 . S
C765 C766 1.442 . S
C765 H792 0.930 . S
C766 C765 1.442 . S
C766 C767 1.381 . S
C766 H793 0.931 . S
C767 C766 1.381 . S
C767 C768 1.321 . S
C768 C767 1.321 . S
C768 C769 1.403 . S
C768 H794 0.934 . S
C769 C764 1.413 . S
C769 C768 1.403 . S
C769 H795 0.930 . S
C770 O784 1.275 . S
C770 O785 1.256 . S
C771 O786 1.259 . S
C771 O787 1.268 . S
C772 Ho761 2.811 . S
C772 C773 1.488 . S
C772 O788 1.215 . S
C772 O789 1.289 . S
C773 C772 1.488 . S
C773 C774 1.348 . S
C773 C778 1.413 . S
C774 C773 1.348 . S
C774 C775 1.442 . S
C774 H796 0.930 . S
C775 C774 1.442 . S
C775 C776 1.381 . S
C775 H797 0.931 . S
C776 C775 1.381 . S
C776 C777 1.321 . S
C777 C776 1.321 . S
C777 C778 1.403 . S
C777 H798 0.934 . S
C778 C773 1.413 . S
C778 C777 1.403 . S
C778 H799 0.930 . S
C779 O790 1.275 . S
C779 O791 1.256 . S
O780 Ho760 2.322 . S
O780 C762 1.259 . S
O781 Ho761 2.346 . S
O781 C762 1.268 . S
O782 Ho760 2.378 . S
O782 C763 1.215 . S
O783 Ho760 2.524 . S
O783 C763 1.289 . S
O784 Ho760 2.381 . S
O784 C770 1.275 . S
O785 Ho760 2.669 . S
O785 Ho761 2.305 . S
O785 C770 1.256 . S
O786 Ho761 2.322 . S
O786 C771 1.259 . S
O787 Ho760 2.346 . S
O787 C771 1.268 . S
O788 Ho761 2.378 . S
O788 C772 1.215 . S
O789 Ho761 2.524 . S
O789 C772 1.289 . S
O790 Ho761 2.381 . S
O790 C779 1.275 . S
O791 Ho760 2.305 . S
O791 Ho761 2.669 . S
O791 C779 1.256 . S
H792 C765 0.930 . S
H793 C766 0.931 . S
H794 C768 0.934 . S
H795 C769 0.930 . S
H796 C774 0.930 . S
H797 C775 0.931 . S
H798 C777 0.934 . S
H799 C778 0.930 . S
Ho800 C803 2.811 . S
Ho800 O820 2.322 . S
Ho800 O822 2.378 . S
Ho800 O823 2.524 . S
Ho800 O824 2.381 . S
Ho800 O825 2.669 . S
Ho800 O827 2.346 . S
Ho800 O831 2.305 . S
Ho801 C812 2.811 . S
Ho801 O821 2.346 . S
Ho801 O825 2.305 . S
Ho801 O826 2.322 . S
Ho801 O828 2.378 . S
Ho801 O829 2.524 . S
Ho801 O830 2.381 . S
Ho801 O831 2.669 . S
C802 O820 1.259 . S
C802 O821 1.268 . S
C803 Ho800 2.811 . S
C803 C804 1.488 . S
C803 O822 1.215 . S
C803 O823 1.289 . S
C804 C803 1.488 . S
C804 C805 1.348 . S
C804 C809 1.413 . S
C805 C804 1.348 . S
C805 C806 1.442 . S
C805 H832 0.930 . S
C806 C805 1.442 . S
C806 C807 1.381 . S
C806 H833 0.931 . S
C807 C806 1.381 . S
C807 C808 1.321 . S
C808 C807 1.321 . S
C808 C809 1.403 . S
C808 H834 0.934 . S
C809 C804 1.413 . S
C809 C808 1.403 . S
C809 H835 0.930 . S
C810 O824 1.275 . S
C810 O825 1.256 . S
C811 O826 1.259 . S
C811 O827 1.268 . S
C812 Ho801 2.811 . S
C812 C813 1.488 . S
C812 O828 1.215 . S
C812 O829 1.289 . S
C813 C812 1.488 . S
C813 C814 1.348 . S
C813 C818 1.413 . S
C814 C813 1.348 . S
C814 C815 1.442 . S
C814 H836 0.930 . S
C815 C814 1.442 . S
C815 C816 1.381 . S
C815 H837 0.931 . S
C816 C815 1.381 . S
C816 C817 1.321 . S
C817 C816 1.321 . S
C817 C818 1.403 . S
C817 H838 0.934 . S
C818 C813 1.413 . S
C818 C817 1.403 . S
C818 H839 0.930 . S
C819 O830 1.275 . S
C819 O831 1.256 . S
O820 Ho800 2.322 . S
O820 C802 1.259 . S
O821 Ho801 2.346 . S
O821 C802 1.268 . S
O822 Ho800 2.378 . S
O822 C803 1.215 . S
O823 Ho800 2.524 . S
O823 C803 1.289 . S
O824 Ho800 2.381 . S
O824 C810 1.275 . S
O825 Ho800 2.669 . S
O825 Ho801 2.305 . S
O825 C810 1.256 . S
O826 Ho801 2.322 . S
O826 C811 1.259 . S
O827 Ho800 2.346 . S
O827 C811 1.268 . S
O828 Ho801 2.378 . S
O828 C812 1.215 . S
O829 Ho801 2.524 . S
O829 C812 1.289 . S
O830 Ho801 2.381 . S
O830 C819 1.275 . S
O831 Ho800 2.305 . S
O831 Ho801 2.669 . S
O831 C819 1.256 . S
H832 C805 0.930 . S
H833 C806 0.931 . S
H834 C808 0.934 . S
H835 C809 0.930 . S
H836 C814 0.930 . S
H837 C815 0.931 . S
H838 C817 0.934 . S
H839 C818 0.930 . S
Ho840 C843 2.811 . S
Ho840 O860 2.322 . S
Ho840 O862 2.378 . S
Ho840 O863 2.524 . S
Ho840 O864 2.381 . S
Ho840 O865 2.669 . S
Ho840 O867 2.346 . S
Ho840 O871 2.305 . S
Ho841 C852 2.811 . S
Ho841 O861 2.346 . S
Ho841 O865 2.305 . S
Ho841 O866 2.322 . S
Ho841 O868 2.378 . S
Ho841 O869 2.524 . S
Ho841 O870 2.381 . S
Ho841 O871 2.669 . S
C842 O860 1.259 . S
C842 O861 1.268 . S
C843 Ho840 2.811 . S
C843 C844 1.488 . S
C843 O862 1.215 . S
C843 O863 1.289 . S
C844 C843 1.488 . S
C844 C845 1.348 . S
C844 C849 1.413 . S
C845 C844 1.348 . S
C845 C846 1.442 . S
C845 H872 0.930 . S
C846 C845 1.442 . S
C846 C847 1.381 . S
C846 H873 0.931 . S
C847 C846 1.381 . S
C847 C848 1.321 . S
C848 C847 1.321 . S
C848 C849 1.403 . S
C848 H874 0.934 . S
C849 C844 1.413 . S
C849 C848 1.403 . S
C849 H875 0.930 . S
C850 O864 1.275 . S
C850 O865 1.256 . S
C851 O866 1.259 . S
C851 O867 1.268 . S
C852 Ho841 2.811 . S
C852 C853 1.488 . S
C852 O868 1.215 . S
C852 O869 1.289 . S
C853 C852 1.488 . S
C853 C854 1.348 . S
C853 C858 1.413 . S
C854 C853 1.348 . S
C854 C855 1.442 . S
C854 H876 0.930 . S
C855 C854 1.442 . S
C855 C856 1.381 . S
C855 H877 0.931 . S
C856 C855 1.381 . S
C856 C857 1.321 . S
C857 C856 1.321 . S
C857 C858 1.403 . S
C857 H878 0.934 . S
C858 C853 1.413 . S
C858 C857 1.403 . S
C858 H879 0.930 . S
C859 O870 1.275 . S
C859 O871 1.256 . S
O860 Ho840 2.322 . S
O860 C842 1.259 . S
O861 Ho841 2.346 . S
O861 C842 1.268 . S
O862 Ho840 2.378 . S
O862 C843 1.215 . S
O863 Ho840 2.524 . S
O863 C843 1.289 . S
O864 Ho840 2.381 . S
O864 C850 1.275 . S
O865 Ho840 2.669 . S
O865 Ho841 2.305 . S
O865 C850 1.256 . S
O866 Ho841 2.322 . S
O866 C851 1.259 . S
O867 Ho840 2.346 . S
O867 C851 1.268 . S
O868 Ho841 2.378 . S
O868 C852 1.215 . S
O869 Ho841 2.524 . S
O869 C852 1.289 . S
O870 Ho841 2.381 . S
O870 C859 1.275 . S
O871 Ho840 2.305 . S
O871 Ho841 2.669 . S
O871 C859 1.256 . S
H872 C845 0.930 . S
H873 C846 0.931 . S
H874 C848 0.934 . S
H875 C849 0.930 . S
H876 C854 0.930 . S
H877 C855 0.931 . S
H878 C857 0.934 . S
H879 C858 0.930 . S
Ho880 C883 2.811 . S
Ho880 O900 2.322 . S
Ho880 O902 2.378 . S
Ho880 O903 2.524 . S
Ho880 O904 2.381 . S
Ho880 O905 2.669 . S
Ho880 O907 2.346 . S
Ho880 O911 2.305 . S
Ho881 C892 2.811 . S
Ho881 O901 2.346 . S
Ho881 O905 2.305 . S
Ho881 O906 2.322 . S
Ho881 O908 2.378 . S
Ho881 O909 2.524 . S
Ho881 O910 2.381 . S
Ho881 O911 2.669 . S
C882 O900 1.259 . S
C882 O901 1.268 . S
C883 Ho880 2.811 . S
C883 C884 1.488 . S
C883 O902 1.215 . S
C883 O903 1.289 . S
C884 C883 1.488 . S
C884 C885 1.348 . S
C884 C889 1.413 . S
C885 C884 1.348 . S
C885 C886 1.442 . S
C885 H912 0.930 . S
C886 C885 1.442 . S
C886 C887 1.381 . S
C886 H913 0.931 . S
C887 C886 1.381 . S
C887 C888 1.321 . S
C888 C887 1.321 . S
C888 C889 1.403 . S
C888 H914 0.934 . S
C889 C884 1.413 . S
C889 C888 1.403 . S
C889 H915 0.930 . S
C890 O904 1.275 . S
C890 O905 1.256 . S
C891 O906 1.259 . S
C891 O907 1.268 . S
C892 Ho881 2.811 . S
C892 C893 1.488 . S
C892 O908 1.215 . S
C892 O909 1.289 . S
C893 C892 1.488 . S
C893 C894 1.348 . S
C893 C898 1.413 . S
C894 C893 1.348 . S
C894 C895 1.442 . S
C894 H916 0.930 . S
C895 C894 1.442 . S
C895 C896 1.381 . S
C895 H917 0.931 . S
C896 C895 1.381 . S
C896 C897 1.321 . S
C897 C896 1.321 . S
C897 C898 1.403 . S
C897 H918 0.934 . S
C898 C893 1.413 . S
C898 C897 1.403 . S
C898 H919 0.930 . S
C899 O910 1.275 . S
C899 O911 1.256 . S
O900 Ho880 2.322 . S
O900 C882 1.259 . S
O901 Ho881 2.346 . S
O901 C882 1.268 . S
O902 Ho880 2.378 . S
O902 C883 1.215 . S
O903 Ho880 2.524 . S
O903 C883 1.289 . S
O904 Ho880 2.381 . S
O904 C890 1.275 . S
O905 Ho880 2.669 . S
O905 Ho881 2.305 . S
O905 C890 1.256 . S
O906 Ho881 2.322 . S
O906 C891 1.259 . S
O907 Ho880 2.346 . S
O907 C891 1.268 . S
O908 Ho881 2.378 . S
O908 C892 1.215 . S
O909 Ho881 2.524 . S
O909 C892 1.289 . S
O910 Ho881 2.381 . S
O910 C899 1.275 . S
O911 Ho880 2.305 . S
O911 Ho881 2.669 . S
O911 C899 1.256 . S
H912 C885 0.930 . S
H913 C886 0.931 . S
H914 C888 0.934 . S
H915 C889 0.930 . S
H916 C894 0.930 . S
H917 C895 0.931 . S
H918 C897 0.934 . S
H919 C898 0.930 . S
Ho920 C923 2.811 . S
Ho920 O940 2.322 . S
Ho920 O942 2.378 . S
Ho920 O943 2.524 . S
Ho920 O944 2.381 . S
Ho920 O945 2.669 . S
Ho920 O947 2.346 . S
Ho920 O951 2.305 . S
Ho921 C932 2.811 . S
Ho921 O941 2.346 . S
Ho921 O945 2.305 . S
Ho921 O946 2.322 . S
Ho921 O948 2.378 . S
Ho921 O949 2.524 . S
Ho921 O950 2.381 . S
Ho921 O951 2.669 . S
C922 O940 1.259 . S
C922 O941 1.268 . S
C923 Ho920 2.811 . S
C923 C924 1.488 . S
C923 O942 1.215 . S
C923 O943 1.289 . S
C924 C923 1.488 . S
C924 C925 1.348 . S
C924 C929 1.413 . S
C925 C924 1.348 . S
C925 C926 1.442 . S
C925 H952 0.930 . S
C926 C925 1.442 . S
C926 C927 1.381 . S
C926 H953 0.931 . S
C927 C926 1.381 . S
C927 C928 1.321 . S
C928 C927 1.321 . S
C928 C929 1.403 . S
C928 H954 0.934 . S
C929 C924 1.413 . S
C929 C928 1.403 . S
C929 H955 0.930 . S
C930 O944 1.275 . S
C930 O945 1.256 . S
C931 O946 1.259 . S
C931 O947 1.268 . S
C932 Ho921 2.811 . S
C932 C933 1.488 . S
C932 O948 1.215 . S
C932 O949 1.289 . S
C933 C932 1.488 . S
C933 C934 1.348 . S
C933 C938 1.413 . S
C934 C933 1.348 . S
C934 C935 1.442 . S
C934 H956 0.930 . S
C935 C934 1.442 . S
C935 C936 1.381 . S
C935 H957 0.931 . S
C936 C935 1.381 . S
C936 C937 1.321 . S
C937 C936 1.321 . S
C937 C938 1.403 . S
C937 H958 0.934 . S
C938 C933 1.413 . S
C938 C937 1.403 . S
C938 H959 0.930 . S
C939 O950 1.275 . S
C939 O951 1.256 . S
O940 Ho920 2.322 . S
O940 C922 1.259 . S
O941 Ho921 2.346 . S
O941 C922 1.268 . S
O942 Ho920 2.378 . S
O942 C923 1.215 . S
O943 Ho920 2.524 . S
O943 C923 1.289 . S
O944 Ho920 2.381 . S
O944 C930 1.275 . S
O945 Ho920 2.669 . S
O945 Ho921 2.305 . S
O945 C930 1.256 . S
O946 Ho921 2.322 . S
O946 C931 1.259 . S
O947 Ho920 2.346 . S
O947 C931 1.268 . S
O948 Ho921 2.378 . S
O948 C932 1.215 . S
O949 Ho921 2.524 . S
O949 C932 1.289 . S
O950 Ho921 2.381 . S
O950 C939 1.275 . S
O951 Ho920 2.305 . S
O951 Ho921 2.669 . S
O951 C939 1.256 . S
H952 C925 0.930 . S
H953 C926 0.931 . S
H954 C928 0.934 . S
H955 C929 0.930 . S
H956 C934 0.930 . S
H957 C935 0.931 . S
H958 C937 0.934 . S
H959 C938 0.930 . S
Ho960 C963 2.811 . S
Ho960 O980 2.322 . S
Ho960 O982 2.378 . S
Ho960 O983 2.524 . S
Ho960 O984 2.381 1_455 S
Ho960 O985 2.669 1_455 S
Ho960 O987 2.346 1_455 S
Ho960 O991 2.305 . S
Ho961 C972 2.811 . S
Ho961 O981 2.346 1_655 S
Ho961 O985 2.305 . S
Ho961 O986 2.322 . S
Ho961 O988 2.378 . S
Ho961 O989 2.524 . S
Ho961 O990 2.381 1_655 S
Ho961 O991 2.669 1_655 S
C962 O980 1.259 . S
C962 O981 1.268 . S
C963 Ho960 2.811 . S
C963 C964 1.488 . S
C963 O982 1.215 . S
C963 O983 1.289 . S
C964 C963 1.488 . S
C964 C965 1.348 . S
C964 C969 1.413 . S
C965 C964 1.348 . S
C965 C966 1.442 . S
C965 H992 0.930 . S
C966 C965 1.442 . S
C966 C967 1.381 . S
C966 H993 0.931 . S
C967 C966 1.381 . S
C967 C968 1.321 . S
C968 C967 1.321 . S
C968 C969 1.403 . S
C968 H994 0.934 . S
C969 C964 1.413 . S
C969 C968 1.403 . S
C969 H995 0.930 . S
C970 O984 1.275 . S
C970 O985 1.256 . S
C971 O986 1.259 . S
C971 O987 1.268 . S
C972 Ho961 2.811 . S
C972 C973 1.488 . S
C972 O988 1.215 . S
C972 O989 1.289 . S
C973 C972 1.488 . S
C973 C974 1.348 . S
C973 C978 1.413 . S
C974 C973 1.348 . S
C974 C975 1.442 . S
C974 H996 0.930 . S
C975 C974 1.442 . S
C975 C976 1.381 . S
C975 H997 0.931 . S
C976 C975 1.381 . S
C976 C977 1.321 . S
C977 C976 1.321 . S
C977 C978 1.403 . S
C977 H998 0.934 . S
C978 C973 1.413 . S
C978 C977 1.403 . S
C978 H999 0.930 . S
C979 O990 1.275 . S
C979 O991 1.256 . S
O980 Ho960 2.322 . S
O980 C962 1.259 . S
O981 Ho961 2.346 1_455 S
O981 C962 1.268 . S
O982 Ho960 2.378 . S
O982 C963 1.215 . S
O983 Ho960 2.524 . S
O983 C963 1.289 . S
O984 Ho960 2.381 1_655 S
O984 C970 1.275 . S
O985 Ho960 2.669 1_655 S
O985 Ho961 2.305 . S
O985 C970 1.256 . S
O986 Ho961 2.322 . S
O986 C971 1.259 . S
O987 Ho960 2.346 1_655 S
O987 C971 1.268 . S
O988 Ho961 2.378 . S
O988 C972 1.215 . S
O989 Ho961 2.524 . S
O989 C972 1.289 . S
O990 Ho961 2.381 1_455 S
O990 C979 1.275 . S
O991 Ho960 2.305 . S
O991 Ho961 2.669 1_455 S
O991 C979 1.256 . S
H992 C965 0.930 . S
H993 C966 0.931 . S
H994 C968 0.934 . S
H995 C969 0.930 . S
H996 C974 0.930 . S
H997 C975 0.931 . S
H998 C977 0.934 . S
H999 C978 0.930 . S
Ho1000 C1003 2.811 . S
Ho1000 O1020 2.322 . S
Ho1000 O1022 2.378 . S
Ho1000 O1023 2.524 . S
Ho1000 O1024 2.381 . S
Ho1000 O1025 2.669 . S
Ho1000 O1027 2.346 . S
Ho1000 O1031 2.305 . S
Ho1001 C1012 2.811 . S
Ho1001 O1021 2.346 . S
Ho1001 O1025 2.305 . S
Ho1001 O1026 2.322 . S
Ho1001 O1028 2.378 . S
Ho1001 O1029 2.524 . S
Ho1001 O1030 2.381 . S
Ho1001 O1031 2.669 . S
C1002 O1020 1.259 . S
C1002 O1021 1.268 . S
C1003 Ho1000 2.811 . S
C1003 C1004 1.488 . S
C1003 O1022 1.215 . S
C1003 O1023 1.289 . S
C1004 C1003 1.488 . S
C1004 C1005 1.348 . S
C1004 C1009 1.413 . S
C1005 C1004 1.348 . S
C1005 C1006 1.442 . S
C1005 H1032 0.930 . S
C1006 C1005 1.442 . S
C1006 C1007 1.381 . S
C1006 H1033 0.931 . S
C1007 C1006 1.381 . S
C1007 C1008 1.321 . S
C1008 C1007 1.321 . S
C1008 C1009 1.403 . S
C1008 H1034 0.934 . S
C1009 C1004 1.413 . S
C1009 C1008 1.403 . S
C1009 H1035 0.930 . S
C1010 O1024 1.275 . S
C1010 O1025 1.256 . S
C1011 O1026 1.259 . S
C1011 O1027 1.268 . S
C1012 Ho1001 2.811 . S
C1012 C1013 1.488 . S
C1012 O1028 1.215 . S
C1012 O1029 1.289 . S
C1013 C1012 1.488 . S
C1013 C1014 1.348 . S
C1013 C1018 1.413 . S
C1014 C1013 1.348 . S
C1014 C1015 1.442 . S
C1014 H1036 0.930 . S
C1015 C1014 1.442 . S
C1015 C1016 1.381 . S
C1015 H1037 0.931 . S
C1016 C1015 1.381 . S
C1016 C1017 1.321 . S
C1017 C1016 1.321 . S
C1017 C1018 1.403 . S
C1017 H1038 0.934 . S
C1018 C1013 1.413 . S
C1018 C1017 1.403 . S
C1018 H1039 0.930 . S
C1019 O1030 1.275 . S
C1019 O1031 1.256 . S
O1020 Ho1000 2.322 . S
O1020 C1002 1.259 . S
O1021 Ho1001 2.346 . S
O1021 C1002 1.268 . S
O1022 Ho1000 2.378 . S
O1022 C1003 1.215 . S
O1023 Ho1000 2.524 . S
O1023 C1003 1.289 . S
O1024 Ho1000 2.381 . S
O1024 C1010 1.275 . S
O1025 Ho1000 2.669 . S
O1025 Ho1001 2.305 . S
O1025 C1010 1.256 . S
O1026 Ho1001 2.322 . S
O1026 C1011 1.259 . S
O1027 Ho1000 2.346 . S
O1027 C1011 1.268 . S
O1028 Ho1001 2.378 . S
O1028 C1012 1.215 . S
O1029 Ho1001 2.524 . S
O1029 C1012 1.289 . S
O1030 Ho1001 2.381 . S
O1030 C1019 1.275 . S
O1031 Ho1000 2.305 . S
O1031 Ho1001 2.669 . S
O1031 C1019 1.256 . S
H1032 C1005 0.930 . S
H1033 C1006 0.931 . S
H1034 C1008 0.934 . S
H1035 C1009 0.930 . S
H1036 C1014 0.930 . S
H1037 C1015 0.931 . S
H1038 C1017 0.934 . S
H1039 C1018 0.930 . S
Ho1040 C1043 2.811 . S
Ho1040 O1060 2.322 . S
Ho1040 O1062 2.378 . S
Ho1040 O1063 2.524 . S
Ho1040 O1064 2.381 . S
Ho1040 O1065 2.669 . S
Ho1040 O1067 2.346 . S
Ho1040 O1071 2.305 . S
Ho1041 C1052 2.811 . S
Ho1041 O1061 2.346 . S
Ho1041 O1065 2.305 . S
Ho1041 O1066 2.322 . S
Ho1041 O1068 2.378 . S
Ho1041 O1069 2.524 . S
Ho1041 O1070 2.381 . S
Ho1041 O1071 2.669 . S
C1042 O1060 1.259 . S
C1042 O1061 1.268 . S
C1043 Ho1040 2.811 . S
C1043 C1044 1.488 . S
C1043 O1062 1.215 . S
C1043 O1063 1.289 . S
C1044 C1043 1.488 . S
C1044 C1045 1.348 . S
C1044 C1049 1.413 . S
C1045 C1044 1.348 . S
C1045 C1046 1.442 . S
C1045 H1072 0.930 . S
C1046 C1045 1.442 . S
C1046 C1047 1.381 . S
C1046 H1073 0.931 . S
C1047 C1046 1.381 . S
C1047 C1048 1.321 . S
C1048 C1047 1.321 . S
C1048 C1049 1.403 . S
C1048 H1074 0.934 . S
C1049 C1044 1.413 . S
C1049 C1048 1.403 . S
C1049 H1075 0.930 . S
C1050 O1064 1.275 . S
C1050 O1065 1.256 . S
C1051 O1066 1.259 . S
C1051 O1067 1.268 . S
C1052 Ho1041 2.811 . S
C1052 C1053 1.488 . S
C1052 O1068 1.215 . S
C1052 O1069 1.289 . S
C1053 C1052 1.488 . S
C1053 C1054 1.348 . S
C1053 C1058 1.413 . S
C1054 C1053 1.348 . S
C1054 C1055 1.442 . S
C1054 H1076 0.930 . S
C1055 C1054 1.442 . S
C1055 C1056 1.381 . S
C1055 H1077 0.931 . S
C1056 C1055 1.381 . S
C1056 C1057 1.321 . S
C1057 C1056 1.321 . S
C1057 C1058 1.403 . S
C1057 H1078 0.934 . S
C1058 C1053 1.413 . S
C1058 C1057 1.403 . S
C1058 H1079 0.930 . S
C1059 O1070 1.275 . S
C1059 O1071 1.256 . S
O1060 Ho1040 2.322 . S
O1060 C1042 1.259 . S
O1061 Ho1041 2.346 . S
O1061 C1042 1.268 . S
O1062 Ho1040 2.378 . S
O1062 C1043 1.215 . S
O1063 Ho1040 2.524 . S
O1063 C1043 1.289 . S
O1064 Ho1040 2.381 . S
O1064 C1050 1.275 . S
O1065 Ho1040 2.669 . S
O1065 Ho1041 2.305 . S
O1065 C1050 1.256 . S
O1066 Ho1041 2.322 . S
O1066 C1051 1.259 . S
O1067 Ho1040 2.346 . S
O1067 C1051 1.268 . S
O1068 Ho1041 2.378 . S
O1068 C1052 1.215 . S
O1069 Ho1041 2.524 . S
O1069 C1052 1.289 . S
O1070 Ho1041 2.381 . S
O1070 C1059 1.275 . S
O1071 Ho1040 2.305 . S
O1071 Ho1041 2.669 . S
O1071 C1059 1.256 . S
H1072 C1045 0.930 . S
H1073 C1046 0.931 . S
H1074 C1048 0.934 . S
H1075 C1049 0.930 . S
H1076 C1054 0.930 . S
H1077 C1055 0.931 . S
H1078 C1057 0.934 . S
H1079 C1058 0.930 . S
Ho1080 C1083 2.811 . S
Ho1080 O1100 2.322 . S
Ho1080 O1102 2.378 . S
Ho1080 O1103 2.524 . S
Ho1080 O1104 2.381 . S
Ho1080 O1105 2.669 . S
Ho1080 O1107 2.346 . S
Ho1080 O1111 2.305 . S
Ho1081 C1092 2.811 . S
Ho1081 O1101 2.346 . S
Ho1081 O1105 2.305 . S
Ho1081 O1106 2.322 . S
Ho1081 O1108 2.378 . S
Ho1081 O1109 2.524 . S
Ho1081 O1110 2.381 . S
Ho1081 O1111 2.669 . S
C1082 O1100 1.259 . S
C1082 O1101 1.268 . S
C1083 Ho1080 2.811 . S
C1083 C1084 1.488 . S
C1083 O1102 1.215 . S
C1083 O1103 1.289 . S
C1084 C1083 1.488 . S
C1084 C1085 1.348 . S
C1084 C1089 1.413 . S
C1085 C1084 1.348 . S
C1085 C1086 1.442 . S
C1085 H1112 0.930 . S
C1086 C1085 1.442 . S
C1086 C1087 1.381 . S
C1086 H1113 0.931 . S
C1087 C1086 1.381 . S
C1087 C1088 1.321 . S
C1088 C1087 1.321 . S
C1088 C1089 1.403 . S
C1088 H1114 0.934 . S
C1089 C1084 1.413 . S
C1089 C1088 1.403 . S
C1089 H1115 0.930 . S
C1090 O1104 1.275 . S
C1090 O1105 1.256 . S
C1091 O1106 1.259 . S
C1091 O1107 1.268 . S
C1092 Ho1081 2.811 . S
C1092 C1093 1.488 . S
C1092 O1108 1.215 . S
C1092 O1109 1.289 . S
C1093 C1092 1.488 . S
C1093 C1094 1.348 . S
C1093 C1098 1.413 . S
C1094 C1093 1.348 . S
C1094 C1095 1.442 . S
C1094 H1116 0.930 . S
C1095 C1094 1.442 . S
C1095 C1096 1.381 . S
C1095 H1117 0.931 . S
C1096 C1095 1.381 . S
C1096 C1097 1.321 . S
C1097 C1096 1.321 . S
C1097 C1098 1.403 . S
C1097 H1118 0.934 . S
C1098 C1093 1.413 . S
C1098 C1097 1.403 . S
C1098 H1119 0.930 . S
C1099 O1110 1.275 . S
C1099 O1111 1.256 . S
O1100 Ho1080 2.322 . S
O1100 C1082 1.259 . S
O1101 Ho1081 2.346 . S
O1101 C1082 1.268 . S
O1102 Ho1080 2.378 . S
O1102 C1083 1.215 . S
O1103 Ho1080 2.524 . S
O1103 C1083 1.289 . S
O1104 Ho1080 2.381 . S
O1104 C1090 1.275 . S
O1105 Ho1080 2.669 . S
O1105 Ho1081 2.305 . S
O1105 C1090 1.256 . S
O1106 Ho1081 2.322 . S
O1106 C1091 1.259 . S
O1107 Ho1080 2.346 . S
O1107 C1091 1.268 . S
O1108 Ho1081 2.378 . S
O1108 C1092 1.215 . S
O1109 Ho1081 2.524 . S
O1109 C1092 1.289 . S
O1110 Ho1081 2.381 . S
O1110 C1099 1.275 . S
O1111 Ho1080 2.305 . S
O1111 Ho1081 2.669 . S
O1111 C1099 1.256 . S
H1112 C1085 0.930 . S
H1113 C1086 0.931 . S
H1114 C1088 0.934 . S
H1115 C1089 0.930 . S
H1116 C1094 0.930 . S
H1117 C1095 0.931 . S
H1118 C1097 0.934 . S
H1119 C1098 0.930 . S
Ho1120 C1123 2.811 . S
Ho1120 O1140 2.322 . S
Ho1120 O1142 2.378 . S
Ho1120 O1143 2.524 . S
Ho1120 O1144 2.381 1_455 S
Ho1120 O1145 2.669 1_455 S
Ho1120 O1147 2.346 1_455 S
Ho1120 O1151 2.305 . S
Ho1121 C1132 2.811 . S
Ho1121 O1141 2.346 1_655 S
Ho1121 O1145 2.305 . S
Ho1121 O1146 2.322 . S
Ho1121 O1148 2.378 . S
Ho1121 O1149 2.524 . S
Ho1121 O1150 2.381 1_655 S
Ho1121 O1151 2.669 1_655 S
C1122 O1140 1.259 . S
C1122 O1141 1.268 . S
C1123 Ho1120 2.811 . S
C1123 C1124 1.488 . S
C1123 O1142 1.215 . S
C1123 O1143 1.289 . S
C1124 C1123 1.488 . S
C1124 C1125 1.348 . S
C1124 C1129 1.413 . S
C1125 C1124 1.348 . S
C1125 C1126 1.442 . S
C1125 H1152 0.930 . S
C1126 C1125 1.442 . S
C1126 C1127 1.381 . S
C1126 H1153 0.931 . S
C1127 C1126 1.381 . S
C1127 C1128 1.321 . S
C1128 C1127 1.321 . S
C1128 C1129 1.403 . S
C1128 H1154 0.934 . S
C1129 C1124 1.413 . S
C1129 C1128 1.403 . S
C1129 H1155 0.930 . S
C1130 O1144 1.275 . S
C1130 O1145 1.256 . S
C1131 O1146 1.259 . S
C1131 O1147 1.268 . S
C1132 Ho1121 2.811 . S
C1132 C1133 1.488 . S
C1132 O1148 1.215 . S
C1132 O1149 1.289 . S
C1133 C1132 1.488 . S
C1133 C1134 1.348 . S
C1133 C1138 1.413 . S
C1134 C1133 1.348 . S
C1134 C1135 1.442 . S
C1134 H1156 0.930 . S
C1135 C1134 1.442 . S
C1135 C1136 1.381 . S
C1135 H1157 0.931 . S
C1136 C1135 1.381 . S
C1136 C1137 1.321 . S
C1137 C1136 1.321 . S
C1137 C1138 1.403 . S
C1137 H1158 0.934 . S
C1138 C1133 1.413 . S
C1138 C1137 1.403 . S
C1138 H1159 0.930 . S
C1139 O1150 1.275 . S
C1139 O1151 1.256 . S
O1140 Ho1120 2.322 . S
O1140 C1122 1.259 . S
O1141 Ho1121 2.346 1_455 S
O1141 C1122 1.268 . S
O1142 Ho1120 2.378 . S
O1142 C1123 1.215 . S
O1143 Ho1120 2.524 . S
O1143 C1123 1.289 . S
O1144 Ho1120 2.381 1_655 S
O1144 C1130 1.275 . S
O1145 Ho1120 2.669 1_655 S
O1145 Ho1121 2.305 . S
O1145 C1130 1.256 . S
O1146 Ho1121 2.322 . S
O1146 C1131 1.259 . S
O1147 Ho1120 2.346 1_655 S
O1147 C1131 1.268 . S
O1148 Ho1121 2.378 . S
O1148 C1132 1.215 . S
O1149 Ho1121 2.524 . S
O1149 C1132 1.289 . S
O1150 Ho1121 2.381 1_455 S
O1150 C1139 1.275 . S
O1151 Ho1120 2.305 . S
O1151 Ho1121 2.669 1_455 S
O1151 C1139 1.256 . S
H1152 C1125 0.930 . S
H1153 C1126 0.931 . S
H1154 C1128 0.934 . S
H1155 C1129 0.930 . S
H1156 C1134 0.930 . S
H1157 C1135 0.931 . S
H1158 C1137 0.934 . S
H1159 C1138 0.930 . S
Ho1160 C1163 2.811 . S
Ho1160 O1180 2.322 . S
Ho1160 O1182 2.378 . S
Ho1160 O1183 2.524 . S
Ho1160 O1184 2.381 . S
Ho1160 O1185 2.669 . S
Ho1160 O1187 2.346 . S
Ho1160 O1191 2.305 . S
Ho1161 C1172 2.811 . S
Ho1161 O1181 2.346 . S
Ho1161 O1185 2.305 . S
Ho1161 O1186 2.322 . S
Ho1161 O1188 2.378 . S
Ho1161 O1189 2.524 . S
Ho1161 O1190 2.381 . S
Ho1161 O1191 2.669 . S
C1162 O1180 1.259 . S
C1162 O1181 1.268 . S
C1163 Ho1160 2.811 . S
C1163 C1164 1.488 . S
C1163 O1182 1.215 . S
C1163 O1183 1.289 . S
C1164 C1163 1.488 . S
C1164 C1165 1.348 . S
C1164 C1169 1.413 . S
C1165 C1164 1.348 . S
C1165 C1166 1.442 . S
C1165 H1192 0.930 . S
C1166 C1165 1.442 . S
C1166 C1167 1.381 . S
C1166 H1193 0.931 . S
C1167 C1166 1.381 . S
C1167 C1168 1.321 . S
C1168 C1167 1.321 . S
C1168 C1169 1.403 . S
C1168 H1194 0.934 . S
C1169 C1164 1.413 . S
C1169 C1168 1.403 . S
C1169 H1195 0.930 . S
C1170 O1184 1.275 . S
C1170 O1185 1.256 . S
C1171 O1186 1.259 . S
C1171 O1187 1.268 . S
C1172 Ho1161 2.811 . S
C1172 C1173 1.488 . S
C1172 O1188 1.215 . S
C1172 O1189 1.289 . S
C1173 C1172 1.488 . S
C1173 C1174 1.348 . S
C1173 C1178 1.413 . S
C1174 C1173 1.348 . S
C1174 C1175 1.442 . S
C1174 H1196 0.930 . S
C1175 C1174 1.442 . S
C1175 C1176 1.381 . S
C1175 H1197 0.931 . S
C1176 C1175 1.381 . S
C1176 C1177 1.321 . S
C1177 C1176 1.321 . S
C1177 C1178 1.403 . S
C1177 H1198 0.934 . S
C1178 C1173 1.413 . S
C1178 C1177 1.403 . S
C1178 H1199 0.930 . S
C1179 O1190 1.275 . S
C1179 O1191 1.256 . S
O1180 Ho1160 2.322 . S
O1180 C1162 1.259 . S
O1181 Ho1161 2.346 . S
O1181 C1162 1.268 . S
O1182 Ho1160 2.378 . S
O1182 C1163 1.215 . S
O1183 Ho1160 2.524 . S
O1183 C1163 1.289 . S
O1184 Ho1160 2.381 . S
O1184 C1170 1.275 . S
O1185 Ho1160 2.669 . S
O1185 Ho1161 2.305 . S
O1185 C1170 1.256 . S
O1186 Ho1161 2.322 . S
O1186 C1171 1.259 . S
O1187 Ho1160 2.346 . S
O1187 C1171 1.268 . S
O1188 Ho1161 2.378 . S
O1188 C1172 1.215 . S
O1189 Ho1161 2.524 . S
O1189 C1172 1.289 . S
O1190 Ho1161 2.381 . S
O1190 C1179 1.275 . S
O1191 Ho1160 2.305 . S
O1191 Ho1161 2.669 . S
O1191 C1179 1.256 . S
H1192 C1165 0.930 . S
H1193 C1166 0.931 . S
H1194 C1168 0.934 . S
H1195 C1169 0.930 . S
H1196 C1174 0.930 . S
H1197 C1175 0.931 . S
H1198 C1177 0.934 . S
H1199 C1178 0.930 . S
Ho1200 C1203 2.811 . S
Ho1200 O1220 2.322 . S
Ho1200 O1222 2.378 . S
Ho1200 O1223 2.524 . S
Ho1200 O1224 2.381 . S
Ho1200 O1225 2.669 . S
Ho1200 O1227 2.346 . S
Ho1200 O1231 2.305 . S
Ho1201 C1212 2.811 . S
Ho1201 O1221 2.346 . S
Ho1201 O1225 2.305 . S
Ho1201 O1226 2.322 . S
Ho1201 O1228 2.378 . S
Ho1201 O1229 2.524 . S
Ho1201 O1230 2.381 . S
Ho1201 O1231 2.669 . S
C1202 O1220 1.259 . S
C1202 O1221 1.268 . S
C1203 Ho1200 2.811 . S
C1203 C1204 1.488 . S
C1203 O1222 1.215 . S
C1203 O1223 1.289 . S
C1204 C1203 1.488 . S
C1204 C1205 1.348 . S
C1204 C1209 1.413 . S
C1205 C1204 1.348 . S
C1205 C1206 1.442 . S
C1205 H1232 0.930 . S
C1206 C1205 1.442 . S
C1206 C1207 1.381 . S
C1206 H1233 0.931 . S
C1207 C1206 1.381 . S
C1207 C1208 1.321 . S
C1208 C1207 1.321 . S
C1208 C1209 1.403 . S
C1208 H1234 0.934 . S
C1209 C1204 1.413 . S
C1209 C1208 1.403 . S
C1209 H1235 0.930 . S
C1210 O1224 1.275 . S
C1210 O1225 1.256 . S
C1211 O1226 1.259 . S
C1211 O1227 1.268 . S
C1212 Ho1201 2.811 . S
C1212 C1213 1.488 . S
C1212 O1228 1.215 . S
C1212 O1229 1.289 . S
C1213 C1212 1.488 . S
C1213 C1214 1.348 . S
C1213 C1218 1.413 . S
C1214 C1213 1.348 . S
C1214 C1215 1.442 . S
C1214 H1236 0.930 . S
C1215 C1214 1.442 . S
C1215 C1216 1.381 . S
C1215 H1237 0.931 . S
C1216 C1215 1.381 . S
C1216 C1217 1.321 . S
C1217 C1216 1.321 . S
C1217 C1218 1.403 . S
C1217 H1238 0.934 . S
C1218 C1213 1.413 . S
C1218 C1217 1.403 . S
C1218 H1239 0.930 . S
C1219 O1230 1.275 . S
C1219 O1231 1.256 . S
O1220 Ho1200 2.322 . S
O1220 C1202 1.259 . S
O1221 Ho1201 2.346 . S
O1221 C1202 1.268 . S
O1222 Ho1200 2.378 . S
O1222 C1203 1.215 . S
O1223 Ho1200 2.524 . S
O1223 C1203 1.289 . S
O1224 Ho1200 2.381 . S
O1224 C1210 1.275 . S
O1225 Ho1200 2.669 . S
O1225 Ho1201 2.305 . S
O1225 C1210 1.256 . S
O1226 Ho1201 2.322 . S
O1226 C1211 1.259 . S
O1227 Ho1200 2.346 . S
O1227 C1211 1.268 . S
O1228 Ho1201 2.378 . S
O1228 C1212 1.215 . S
O1229 Ho1201 2.524 . S
O1229 C1212 1.289 . S
O1230 Ho1201 2.381 . S
O1230 C1219 1.275 . S
O1231 Ho1200 2.305 . S
O1231 Ho1201 2.669 . S
O1231 C1219 1.256 . S
H1232 C1205 0.930 . S
H1233 C1206 0.931 . S
H1234 C1208 0.934 . S
H1235 C1209 0.930 . S
H1236 C1214 0.930 . S
H1237 C1215 0.931 . S
H1238 C1217 0.934 . S
H1239 C1218 0.930 . S
Ho1240 C1243 2.811 . S
Ho1240 O1260 2.322 . S
Ho1240 O1262 2.378 . S
Ho1240 O1263 2.524 . S
Ho1240 O1264 2.381 . S
Ho1240 O1265 2.669 . S
Ho1240 O1267 2.346 . S
Ho1240 O1271 2.305 . S
Ho1241 C1252 2.811 . S
Ho1241 O1261 2.346 . S
Ho1241 O1265 2.305 . S
Ho1241 O1266 2.322 . S
Ho1241 O1268 2.378 . S
Ho1241 O1269 2.524 . S
Ho1241 O1270 2.381 . S
Ho1241 O1271 2.669 . S
C1242 O1260 1.259 . S
C1242 O1261 1.268 . S
C1243 Ho1240 2.811 . S
C1243 C1244 1.488 . S
C1243 O1262 1.215 . S
C1243 O1263 1.289 . S
C1244 C1243 1.488 . S
C1244 C1245 1.348 . S
C1244 C1249 1.413 . S
C1245 C1244 1.348 . S
C1245 C1246 1.442 . S
C1245 H1272 0.930 . S
C1246 C1245 1.442 . S
C1246 C1247 1.381 . S
C1246 H1273 0.931 . S
C1247 C1246 1.381 . S
C1247 C1248 1.321 . S
C1248 C1247 1.321 . S
C1248 C1249 1.403 . S
C1248 H1274 0.934 . S
C1249 C1244 1.413 . S
C1249 C1248 1.403 . S
C1249 H1275 0.930 . S
C1250 O1264 1.275 . S
C1250 O1265 1.256 . S
C1251 O1266 1.259 . S
C1251 O1267 1.268 . S
C1252 Ho1241 2.811 . S
C1252 C1253 1.488 . S
C1252 O1268 1.215 . S
C1252 O1269 1.289 . S
C1253 C1252 1.488 . S
C1253 C1254 1.348 . S
C1253 C1258 1.413 . S
C1254 C1253 1.348 . S
C1254 C1255 1.442 . S
C1254 H1276 0.930 . S
C1255 C1254 1.442 . S
C1255 C1256 1.381 . S
C1255 H1277 0.931 . S
C1256 C1255 1.381 . S
C1256 C1257 1.321 . S
C1257 C1256 1.321 . S
C1257 C1258 1.403 . S
C1257 H1278 0.934 . S
C1258 C1253 1.413 . S
C1258 C1257 1.403 . S
C1258 H1279 0.930 . S
C1259 O1270 1.275 . S
C1259 O1271 1.256 . S
O1260 Ho1240 2.322 . S
O1260 C1242 1.259 . S
O1261 Ho1241 2.346 . S
O1261 C1242 1.268 . S
O1262 Ho1240 2.378 . S
O1262 C1243 1.215 . S
O1263 Ho1240 2.524 . S
O1263 C1243 1.289 . S
O1264 Ho1240 2.381 . S
O1264 C1250 1.275 . S
O1265 Ho1240 2.669 . S
O1265 Ho1241 2.305 . S
O1265 C1250 1.256 . S
O1266 Ho1241 2.322 . S
O1266 C1251 1.259 . S
O1267 Ho1240 2.346 . S
O1267 C1251 1.268 . S
O1268 Ho1241 2.378 . S
O1268 C1252 1.215 . S
O1269 Ho1241 2.524 . S
O1269 C1252 1.289 . S
O1270 Ho1241 2.381 . S
O1270 C1259 1.275 . S
O1271 Ho1240 2.305 . S
O1271 Ho1241 2.669 . S
O1271 C1259 1.256 . S
H1272 C1245 0.930 . S
H1273 C1246 0.931 . S
H1274 C1248 0.934 . S
H1275 C1249 0.930 . S
H1276 C1254 0.930 . S
H1277 C1255 0.931 . S
H1278 C1257 0.934 . S
H1279 C1258 0.930 . S
Ho1280 C1283 2.811 1_565 S
Ho1280 O1300 2.322 . S
Ho1280 O1302 2.378 1_565 S
Ho1280 O1303 2.524 1_565 S
Ho1280 O1304 2.381 . S
Ho1280 O1305 2.669 . S
Ho1280 O1307 2.346 . S
Ho1280 O1311 2.305 . S
Ho1281 C1292 2.811 . S
Ho1281 O1301 2.346 . S
Ho1281 O1305 2.305 . S
Ho1281 O1306 2.322 . S
Ho1281 O1308 2.378 . S
Ho1281 O1309 2.524 . S
Ho1281 O1310 2.381 . S
Ho1281 O1311 2.669 . S
C1282 O1300 1.259 . S
C1282 O1301 1.268 . S
C1283 Ho1280 2.811 1_545 S
C1283 C1284 1.488 . S
C1283 O1302 1.215 . S
C1283 O1303 1.289 . S
C1284 C1283 1.488 . S
C1284 C1285 1.348 . S
C1284 C1289 1.413 . S
C1285 C1284 1.348 . S
C1285 C1286 1.442 . S
C1285 H1312 0.930 . S
C1286 C1285 1.442 . S
C1286 C1287 1.381 . S
C1286 H1313 0.931 . S
C1287 C1286 1.381 . S
C1287 C1288 1.321 . S
C1288 C1287 1.321 . S
C1288 C1289 1.403 . S
C1288 H1314 0.934 . S
C1289 C1284 1.413 . S
C1289 C1288 1.403 . S
C1289 H1315 0.930 . S
C1290 O1304 1.275 . S
C1290 O1305 1.256 . S
C1291 O1306 1.259 . S
C1291 O1307 1.268 . S
C1292 Ho1281 2.811 . S
C1292 C1293 1.488 . S
C1292 O1308 1.215 . S
C1292 O1309 1.289 . S
C1293 C1292 1.488 . S
C1293 C1294 1.348 . S
C1293 C1298 1.413 . S
C1294 C1293 1.348 . S
C1294 C1295 1.442 . S
C1294 H1316 0.930 . S
C1295 C1294 1.442 . S
C1295 C1296 1.381 . S
C1295 H1317 0.931 . S
C1296 C1295 1.381 . S
C1296 C1297 1.321 . S
C1297 C1296 1.321 . S
C1297 C1298 1.403 . S
C1297 H1318 0.934 . S
C1298 C1293 1.413 . S
C1298 C1297 1.403 . S
C1298 H1319 0.930 . S
C1299 O1310 1.275 . S
C1299 O1311 1.256 . S
O1300 Ho1280 2.322 . S
O1300 C1282 1.259 . S
O1301 Ho1281 2.346 . S
O1301 C1282 1.268 . S
O1302 Ho1280 2.378 1_545 S
O1302 C1283 1.215 . S
O1303 Ho1280 2.524 1_545 S
O1303 C1283 1.289 . S
O1304 Ho1280 2.381 . S
O1304 C1290 1.275 . S
O1305 Ho1280 2.669 . S
O1305 Ho1281 2.305 . S
O1305 C1290 1.256 . S
O1306 Ho1281 2.322 . S
O1306 C1291 1.259 . S
O1307 Ho1280 2.346 . S
O1307 C1291 1.268 . S
O1308 Ho1281 2.378 . S
O1308 C1292 1.215 . S
O1309 Ho1281 2.524 . S
O1309 C1292 1.289 . S
O1310 Ho1281 2.381 . S
O1310 C1299 1.275 . S
O1311 Ho1280 2.305 . S
O1311 Ho1281 2.669 . S
O1311 C1299 1.256 . S
H1312 C1285 0.930 . S
H1313 C1286 0.931 . S
H1314 C1288 0.934 . S
H1315 C1289 0.930 . S
H1316 C1294 0.930 . S
H1317 C1295 0.931 . S
H1318 C1297 0.934 . S
H1319 C1298 0.930 . S
Ho1320 C1323 2.811 . S
Ho1320 O1340 2.322 . S
Ho1320 O1342 2.378 . S
Ho1320 O1343 2.524 . S
Ho1320 O1344 2.381 . S
Ho1320 O1345 2.669 . S
Ho1320 O1347 2.346 . S
Ho1320 O1351 2.305 . S
Ho1321 C1332 2.811 . S
Ho1321 O1341 2.346 . S
Ho1321 O1345 2.305 . S
Ho1321 O1346 2.322 . S
Ho1321 O1348 2.378 . S
Ho1321 O1349 2.524 . S
Ho1321 O1350 2.381 . S
Ho1321 O1351 2.669 . S
C1322 O1340 1.259 . S
C1322 O1341 1.268 . S
C1323 Ho1320 2.811 . S
C1323 C1324 1.488 . S
C1323 O1342 1.215 . S
C1323 O1343 1.289 . S
C1324 C1323 1.488 . S
C1324 C1325 1.348 . S
C1324 C1329 1.413 . S
C1325 C1324 1.348 . S
C1325 C1326 1.442 . S
C1325 H1352 0.930 . S
C1326 C1325 1.442 . S
C1326 C1327 1.381 . S
C1326 H1353 0.931 . S
C1327 C1326 1.381 . S
C1327 C1328 1.321 . S
C1328 C1327 1.321 . S
C1328 C1329 1.403 . S
C1328 H1354 0.934 . S
C1329 C1324 1.413 . S
C1329 C1328 1.403 . S
C1329 H1355 0.930 . S
C1330 O1344 1.275 . S
C1330 O1345 1.256 . S
C1331 O1346 1.259 . S
C1331 O1347 1.268 . S
C1332 Ho1321 2.811 . S
C1332 C1333 1.488 . S
C1332 O1348 1.215 . S
C1332 O1349 1.289 . S
C1333 C1332 1.488 . S
C1333 C1334 1.348 . S
C1333 C1338 1.413 . S
C1334 C1333 1.348 . S
C1334 C1335 1.442 . S
C1334 H1356 0.930 . S
C1335 C1334 1.442 . S
C1335 C1336 1.381 . S
C1335 H1357 0.931 . S
C1336 C1335 1.381 . S
C1336 C1337 1.321 . S
C1337 C1336 1.321 . S
C1337 C1338 1.403 . S
C1337 H1358 0.934 . S
C1338 C1333 1.413 . S
C1338 C1337 1.403 . S
C1338 H1359 0.930 . S
C1339 O1350 1.275 . S
C1339 O1351 1.256 . S
O1340 Ho1320 2.322 . S
O1340 C1322 1.259 . S
O1341 Ho1321 2.346 . S
O1341 C1322 1.268 . S
O1342 Ho1320 2.378 . S
O1342 C1323 1.215 . S
O1343 Ho1320 2.524 . S
O1343 C1323 1.289 . S
O1344 Ho1320 2.381 . S
O1344 C1330 1.275 . S
O1345 Ho1320 2.669 . S
O1345 Ho1321 2.305 . S
O1345 C1330 1.256 . S
O1346 Ho1321 2.322 . S
O1346 C1331 1.259 . S
O1347 Ho1320 2.346 . S
O1347 C1331 1.268 . S
O1348 Ho1321 2.378 . S
O1348 C1332 1.215 . S
O1349 Ho1321 2.524 . S
O1349 C1332 1.289 . S
O1350 Ho1321 2.381 . S
O1350 C1339 1.275 . S
O1351 Ho1320 2.305 . S
O1351 Ho1321 2.669 . S
O1351 C1339 1.256 . S
H1352 C1325 0.930 . S
H1353 C1326 0.931 . S
H1354 C1328 0.934 . S
H1355 C1329 0.930 . S
H1356 C1334 0.930 . S
H1357 C1335 0.931 . S
H1358 C1337 0.934 . S
H1359 C1338 0.930 . S
Ho1360 C1363 2.811 . S
Ho1360 O1380 2.322 . S
Ho1360 O1382 2.378 . S
Ho1360 O1383 2.524 . S
Ho1360 O1384 2.381 1_565 S
Ho1360 O1385 2.669 1_565 S
Ho1360 O1387 2.346 1_565 S
Ho1360 O1391 2.305 . S
Ho1361 C1372 2.811 . S
Ho1361 O1381 2.346 1_545 S
Ho1361 O1385 2.305 . S
Ho1361 O1386 2.322 . S
Ho1361 O1388 2.378 . S
Ho1361 O1389 2.524 . S
Ho1361 O1390 2.381 1_545 S
Ho1361 O1391 2.669 1_545 S
C1362 O1380 1.259 . S
C1362 O1381 1.268 . S
C1363 Ho1360 2.811 . S
C1363 C1364 1.488 . S
C1363 O1382 1.215 . S
C1363 O1383 1.289 . S
C1364 C1363 1.488 . S
C1364 C1365 1.348 . S
C1364 C1369 1.413 . S
C1365 C1364 1.348 . S
C1365 C1366 1.442 . S
C1365 H1392 0.930 . S
C1366 C1365 1.442 . S
C1366 C1367 1.381 . S
C1366 H1393 0.931 . S
C1367 C1366 1.381 . S
C1367 C1368 1.321 . S
C1368 C1367 1.321 . S
C1368 C1369 1.403 . S
C1368 H1394 0.934 . S
C1369 C1364 1.413 . S
C1369 C1368 1.403 . S
C1369 H1395 0.930 . S
C1370 O1384 1.275 . S
C1370 O1385 1.256 . S
C1371 O1386 1.259 . S
C1371 O1387 1.268 . S
C1372 Ho1361 2.811 . S
C1372 C1373 1.488 . S
C1372 O1388 1.215 . S
C1372 O1389 1.289 . S
C1373 C1372 1.488 . S
C1373 C1374 1.348 . S
C1373 C1378 1.413 . S
C1374 C1373 1.348 . S
C1374 C1375 1.442 . S
C1374 H1396 0.930 . S
C1375 C1374 1.442 . S
C1375 C1376 1.381 . S
C1375 H1397 0.931 . S
C1376 C1375 1.381 . S
C1376 C1377 1.321 . S
C1377 C1376 1.321 . S
C1377 C1378 1.403 . S
C1377 H1398 0.934 . S
C1378 C1373 1.413 . S
C1378 C1377 1.403 . S
C1378 H1399 0.930 . S
C1379 O1390 1.275 . S
C1379 O1391 1.256 . S
O1380 Ho1360 2.322 . S
O1380 C1362 1.259 . S
O1381 Ho1361 2.346 1_565 S
O1381 C1362 1.268 . S
O1382 Ho1360 2.378 . S
O1382 C1363 1.215 . S
O1383 Ho1360 2.524 . S
O1383 C1363 1.289 . S
O1384 Ho1360 2.381 1_545 S
O1384 C1370 1.275 . S
O1385 Ho1360 2.669 1_545 S
O1385 Ho1361 2.305 . S
O1385 C1370 1.256 . S
O1386 Ho1361 2.322 . S
O1386 C1371 1.259 . S
O1387 Ho1360 2.346 1_545 S
O1387 C1371 1.268 . S
O1388 Ho1361 2.378 . S
O1388 C1372 1.215 . S
O1389 Ho1361 2.524 . S
O1389 C1372 1.289 . S
O1390 Ho1361 2.381 1_565 S
O1390 C1379 1.275 . S
O1391 Ho1360 2.305 . S
O1391 Ho1361 2.669 1_565 S
O1391 C1379 1.256 . S
H1392 C1365 0.930 . S
H1393 C1366 0.931 . S
H1394 C1368 0.934 . S
H1395 C1369 0.930 . S
H1396 C1374 0.930 . S
H1397 C1375 0.931 . S
H1398 C1377 0.934 . S
H1399 C1378 0.930 . S
Ho1400 C1403 2.811 . S
Ho1400 O1420 2.322 . S
Ho1400 O1422 2.378 . S
Ho1400 O1423 2.524 . S
Ho1400 O1424 2.381 . S
Ho1400 O1425 2.669 . S
Ho1400 O1427 2.346 . S
Ho1400 O1431 2.305 . S
Ho1401 C1412 2.811 . S
Ho1401 O1421 2.346 . S
Ho1401 O1425 2.305 . S
Ho1401 O1426 2.322 . S
Ho1401 O1428 2.378 . S
Ho1401 O1429 2.524 . S
Ho1401 O1430 2.381 . S
Ho1401 O1431 2.669 . S
C1402 O1420 1.259 . S
C1402 O1421 1.268 . S
C1403 Ho1400 2.811 . S
C1403 C1404 1.488 . S
C1403 O1422 1.215 . S
C1403 O1423 1.289 . S
C1404 C1403 1.488 . S
C1404 C1405 1.348 . S
C1404 C1409 1.413 . S
C1405 C1404 1.348 . S
C1405 C1406 1.442 . S
C1405 H1432 0.930 . S
C1406 C1405 1.442 . S
C1406 C1407 1.381 . S
C1406 H1433 0.931 . S
C1407 C1406 1.381 . S
C1407 C1408 1.321 . S
C1408 C1407 1.321 . S
C1408 C1409 1.403 . S
C1408 H1434 0.934 . S
C1409 C1404 1.413 . S
C1409 C1408 1.403 . S
C1409 H1435 0.930 . S
C1410 O1424 1.275 . S
C1410 O1425 1.256 . S
C1411 O1426 1.259 . S
C1411 O1427 1.268 . S
C1412 Ho1401 2.811 . S
C1412 C1413 1.488 . S
C1412 O1428 1.215 . S
C1412 O1429 1.289 . S
C1413 C1412 1.488 . S
C1413 C1414 1.348 . S
C1413 C1418 1.413 . S
C1414 C1413 1.348 . S
C1414 C1415 1.442 . S
C1414 H1436 0.930 . S
C1415 C1414 1.442 . S
C1415 C1416 1.381 . S
C1415 H1437 0.931 . S
C1416 C1415 1.381 . S
C1416 C1417 1.321 . S
C1417 C1416 1.321 . S
C1417 C1418 1.403 . S
C1417 H1438 0.934 . S
C1418 C1413 1.413 . S
C1418 C1417 1.403 . S
C1418 H1439 0.930 . S
C1419 O1430 1.275 . S
C1419 O1431 1.256 . S
O1420 Ho1400 2.322 . S
O1420 C1402 1.259 . S
O1421 Ho1401 2.346 . S
O1421 C1402 1.268 . S
O1422 Ho1400 2.378 . S
O1422 C1403 1.215 . S
O1423 Ho1400 2.524 . S
O1423 C1403 1.289 . S
O1424 Ho1400 2.381 . S
O1424 C1410 1.275 . S
O1425 Ho1400 2.669 . S
O1425 Ho1401 2.305 . S
O1425 C1410 1.256 . S
O1426 Ho1401 2.322 . S
O1426 C1411 1.259 . S
O1427 Ho1400 2.346 . S
O1427 C1411 1.268 . S
O1428 Ho1401 2.378 . S
O1428 C1412 1.215 . S
O1429 Ho1401 2.524 . S
O1429 C1412 1.289 . S
O1430 Ho1401 2.381 . S
O1430 C1419 1.275 . S
O1431 Ho1400 2.305 . S
O1431 Ho1401 2.669 . S
O1431 C1419 1.256 . S
H1432 C1405 0.930 . S
H1433 C1406 0.931 . S
H1434 C1408 0.934 . S
H1435 C1409 0.930 . S
H1436 C1414 0.930 . S
H1437 C1415 0.931 . S
H1438 C1417 0.934 . S
H1439 C1418 0.930 . S
Ho1440 C1443 2.808 1_545 S
Ho1440 O1460 2.321 1_545 S
Ho1440 O1462 2.375 1_545 S
Ho1440 O1463 2.520 1_545 S
Ho1440 O1464 2.383 . S
Ho1440 O1465 2.672 . S
Ho1440 O1467 2.348 . S
Ho1440 O1471 2.305 . S
Ho1441 C1452 2.811 . S
Ho1441 O1461 2.346 . S
Ho1441 O1465 2.305 . S
Ho1441 O1466 2.322 . S
Ho1441 O1468 2.378 . S
Ho1441 O1469 2.524 . S
Ho1441 O1470 2.381 . S
Ho1441 O1471 2.669 . S
C1442 O1460 1.259 . S
C1442 O1461 1.268 1_565 S
C1443 Ho1440 2.808 1_565 S
C1443 C1444 1.488 . S
C1443 O1462 1.215 . S
C1443 O1463 1.289 . S
C1444 C1443 1.488 . S
C1444 C1445 1.348 . S
C1444 C1449 1.413 . S
C1445 C1444 1.348 . S
C1445 C1446 1.442 . S
C1445 H1472 0.930 . S
C1446 C1445 1.442 . S
C1446 C1447 1.381 . S
C1446 H1473 0.931 . S
C1447 C1446 1.381 . S
C1447 C1448 1.321 . S
C1448 C1447 1.321 . S
C1448 C1449 1.403 . S
C1448 H1474 0.934 . S
C1449 C1444 1.413 . S
C1449 C1448 1.403 . S
C1449 H1475 0.930 . S
C1450 O1464 1.275 . S
C1450 O1465 1.256 . S
C1451 O1466 1.259 . S
C1451 O1467 1.268 . S
C1452 Ho1441 2.811 . S
C1452 C1453 1.488 . S
C1452 O1468 1.215 . S
C1452 O1469 1.289 . S
C1453 C1452 1.488 . S
C1453 C1454 1.348 . S
C1453 C1458 1.413 . S
C1454 C1453 1.348 . S
C1454 C1455 1.442 . S
C1454 H1476 0.930 . S
C1455 C1454 1.442 . S
C1455 C1456 1.381 . S
C1455 H1477 0.931 . S
C1456 C1455 1.381 . S
C1456 C1457 1.321 . S
C1457 C1456 1.321 . S
C1457 C1458 1.403 . S
C1457 H1478 0.934 . S
C1458 C1453 1.413 . S
C1458 C1457 1.403 . S
C1458 H1479 0.930 . S
C1459 O1470 1.275 . S
C1459 O1471 1.256 . S
O1460 Ho1440 2.321 1_565 S
O1460 C1442 1.259 . S
O1461 Ho1441 2.346 . S
O1461 C1442 1.268 1_545 S
O1462 Ho1440 2.375 1_565 S
O1462 C1443 1.215 . S
O1463 Ho1440 2.520 1_565 S
O1463 C1443 1.289 . S
O1464 Ho1440 2.383 . S
O1464 C1450 1.275 . S
O1465 Ho1440 2.672 . S
O1465 Ho1441 2.305 . S
O1465 C1450 1.256 . S
O1466 Ho1441 2.322 . S
O1466 C1451 1.259 . S
O1467 Ho1440 2.348 . S
O1467 C1451 1.268 . S
O1468 Ho1441 2.378 . S
O1468 C1452 1.215 . S
O1469 Ho1441 2.524 . S
O1469 C1452 1.289 . S
O1470 Ho1441 2.381 . S
O1470 C1459 1.275 . S
O1471 Ho1440 2.305 . S
O1471 Ho1441 2.669 . S
O1471 C1459 1.256 . S
H1472 C1445 0.930 . S
H1473 C1446 0.931 . S
H1474 C1448 0.934 . S
H1475 C1449 0.930 . S
H1476 C1454 0.930 . S
H1477 C1455 0.931 . S
H1478 C1457 0.934 . S
H1479 C1458 0.930 . S
Ho1480 C1483 2.811 . S
Ho1480 O1500 2.322 . S
Ho1480 O1502 2.378 . S
Ho1480 O1503 2.524 . S
Ho1480 O1504 2.381 . S
Ho1480 O1505 2.669 . S
Ho1480 O1507 2.346 . S
Ho1480 O1511 2.305 . S
Ho1481 C1492 2.811 . S
Ho1481 O1501 2.346 . S
Ho1481 O1505 2.305 . S
Ho1481 O1506 2.322 . S
Ho1481 O1508 2.378 . S
Ho1481 O1509 2.524 . S
Ho1481 O1510 2.381 . S
Ho1481 O1511 2.669 . S
C1482 O1500 1.259 . S
C1482 O1501 1.268 . S
C1483 Ho1480 2.811 . S
C1483 C1484 1.488 . S
C1483 O1502 1.215 . S
C1483 O1503 1.289 . S
C1484 C1483 1.488 . S
C1484 C1485 1.348 . S
C1484 C1489 1.413 . S
C1485 C1484 1.348 . S
C1485 C1486 1.442 . S
C1485 H1512 0.930 . S
C1486 C1485 1.442 . S
C1486 C1487 1.381 . S
C1486 H1513 0.931 . S
C1487 C1486 1.381 . S
C1487 C1488 1.321 . S
C1488 C1487 1.321 . S
C1488 C1489 1.403 . S
C1488 H1514 0.934 . S
C1489 C1484 1.413 . S
C1489 C1488 1.403 . S
C1489 H1515 0.930 . S
C1490 O1504 1.275 . S
C1490 O1505 1.256 . S
C1491 O1506 1.259 . S
C1491 O1507 1.268 . S
C1492 Ho1481 2.811 . S
C1492 C1493 1.488 . S
C1492 O1508 1.215 . S
C1492 O1509 1.289 . S
C1493 C1492 1.488 . S
C1493 C1494 1.348 . S
C1493 C1498 1.413 . S
C1494 C1493 1.348 . S
C1494 C1495 1.442 . S
C1494 H1516 0.930 . S
C1495 C1494 1.442 . S
C1495 C1496 1.381 . S
C1495 H1517 0.931 . S
C1496 C1495 1.381 . S
C1496 C1497 1.321 . S
C1497 C1496 1.321 . S
C1497 C1498 1.403 . S
C1497 H1518 0.934 . S
C1498 C1493 1.413 . S
C1498 C1497 1.403 . S
C1498 H1519 0.930 . S
C1499 O1510 1.275 . S
C1499 O1511 1.256 . S
O1500 Ho1480 2.322 . S
O1500 C1482 1.259 . S
O1501 Ho1481 2.346 . S
O1501 C1482 1.268 . S
O1502 Ho1480 2.378 . S
O1502 C1483 1.215 . S
O1503 Ho1480 2.524 . S
O1503 C1483 1.289 . S
O1504 Ho1480 2.381 . S
O1504 C1490 1.275 . S
O1505 Ho1480 2.669 . S
O1505 Ho1481 2.305 . S
O1505 C1490 1.256 . S
O1506 Ho1481 2.322 . S
O1506 C1491 1.259 . S
O1507 Ho1480 2.346 . S
O1507 C1491 1.268 . S
O1508 Ho1481 2.378 . S
O1508 C1492 1.215 . S
O1509 Ho1481 2.524 . S
O1509 C1492 1.289 . S
O1510 Ho1481 2.381 . S
O1510 C1499 1.275 . S
O1511 Ho1480 2.305 . S
O1511 Ho1481 2.669 . S
O1511 C1499 1.256 . S
H1512 C1485 0.930 . S
H1513 C1486 0.931 . S
H1514 C1488 0.934 . S
H1515 C1489 0.930 . S
H1516 C1494 0.930 . S
H1517 C1495 0.931 . S
H1518 C1497 0.934 . S
H1519 C1498 0.930 . S
Ho1520 C1523 2.811 . S
Ho1520 O1540 2.322 . S
Ho1520 O1542 2.378 . S
Ho1520 O1543 2.524 . S
Ho1520 O1544 2.381 1_545 S
Ho1520 O1545 2.669 1_545 S
Ho1520 O1547 2.346 1_545 S
Ho1520 O1551 2.305 . S
Ho1521 C1532 2.811 . S
Ho1521 O1541 2.346 1_565 S
Ho1521 O1545 2.305 . S
Ho1521 O1546 2.322 . S
Ho1521 O1548 2.378 . S
Ho1521 O1549 2.524 . S
Ho1521 O1550 2.415 . S
Ho1521 O1551 2.669 1_565 S
C1522 O1540 1.259 . S
C1522 O1541 1.268 . S
C1523 Ho1520 2.811 . S
C1523 C1524 1.488 . S
C1523 O1542 1.215 . S
C1523 O1543 1.289 . S
C1524 C1523 1.488 . S
C1524 C1525 1.348 . S
C1524 C1529 1.413 . S
C1525 C1524 1.348 . S
C1525 C1526 1.442 . S
C1525 H1552 0.930 . S
C1526 C1525 1.442 . S
C1526 C1527 1.381 . S
C1526 H1553 0.931 . S
C1527 C1526 1.381 . S
C1527 C1528 1.321 . S
C1528 C1527 1.321 . S
C1528 C1529 1.403 . S
C1528 H1554 0.934 . S
C1529 C1524 1.413 . S
C1529 C1528 1.403 . S
C1529 H1555 0.930 . S
C1530 O1544 1.275 . S
C1530 O1545 1.256 . S
C1531 O1546 1.259 . S
C1531 O1547 1.268 . S
C1532 Ho1521 2.811 . S
C1532 C1533 1.488 . S
C1532 O1548 1.215 . S
C1532 O1549 1.289 . S
C1533 C1532 1.488 . S
C1533 C1534 1.348 . S
C1533 C1538 1.413 . S
C1534 C1533 1.348 . S
C1534 C1535 1.442 . S
C1534 H1556 0.930 . S
C1535 C1534 1.442 . S
C1535 C1536 1.381 . S
C1535 H1557 0.931 . S
C1536 C1535 1.381 . S
C1536 C1537 1.321 . S
C1537 C1536 1.321 . S
C1537 C1538 1.403 . S
C1537 H1558 0.934 . S
C1538 C1533 1.413 . S
C1538 C1537 1.403 . S
C1538 H1559 0.930 . S
C1539 O1550 1.233 1_545 S
C1539 O1551 1.256 . S
O1540 Ho1520 2.322 . S
O1540 C1522 1.259 . S
O1541 Ho1521 2.346 1_545 S
O1541 C1522 1.268 . S
O1542 Ho1520 2.378 . S
O1542 C1523 1.215 . S
O1543 Ho1520 2.524 . S
O1543 C1523 1.289 . S
O1544 Ho1520 2.381 1_565 S
O1544 C1530 1.275 . S
O1545 Ho1520 2.669 1_565 S
O1545 Ho1521 2.305 . S
O1545 C1530 1.256 . S
O1546 Ho1521 2.322 . S
O1546 C1531 1.259 . S
O1547 Ho1520 2.346 1_565 S
O1547 C1531 1.268 . S
O1548 Ho1521 2.378 . S
O1548 C1532 1.215 . S
O1549 Ho1521 2.524 . S
O1549 C1532 1.289 . S
O1550 Ho1521 2.415 . S
O1550 C1539 1.233 1_565 S
O1551 Ho1520 2.305 . S
O1551 Ho1521 2.669 1_545 S
O1551 C1539 1.256 . S
H1552 C1525 0.930 . S
H1553 C1526 0.931 . S
H1554 C1528 0.934 . S
H1555 C1529 0.930 . S
H1556 C1534 0.930 . S
H1557 C1535 0.931 . S
H1558 C1537 0.934 . S
H1559 C1538 0.930 . S
Ho1560 C1563 2.811 . S
Ho1560 O1580 2.322 . S
Ho1560 O1582 2.378 . S
Ho1560 O1583 2.524 . S
Ho1560 O1584 2.381 . S
Ho1560 O1585 2.669 . S
Ho1560 O1587 2.346 . S
Ho1560 O1591 2.305 . S
Ho1561 C1572 2.811 . S
Ho1561 O1581 2.346 . S
Ho1561 O1585 2.305 . S
Ho1561 O1586 2.322 . S
Ho1561 O1588 2.378 . S
Ho1561 O1589 2.524 . S
Ho1561 O1590 2.381 . S
Ho1561 O1591 2.669 . S
C1562 O1580 1.259 . S
C1562 O1581 1.268 . S
C1563 Ho1560 2.811 . S
C1563 C1564 1.488 . S
C1563 O1582 1.215 . S
C1563 O1583 1.289 . S
C1564 C1563 1.488 . S
C1564 C1565 1.348 . S
C1564 C1569 1.413 . S
C1565 C1564 1.348 . S
C1565 C1566 1.442 . S
C1565 H1592 0.930 . S
C1566 C1565 1.442 . S
C1566 C1567 1.381 . S
C1566 H1593 0.931 . S
C1567 C1566 1.381 . S
C1567 C1568 1.321 . S
C1568 C1567 1.321 . S
C1568 C1569 1.403 . S
C1568 H1594 0.934 . S
C1569 C1564 1.413 . S
C1569 C1568 1.403 . S
C1569 H1595 0.930 . S
C1570 O1584 1.275 . S
C1570 O1585 1.256 . S
C1571 O1586 1.259 . S
C1571 O1587 1.268 . S
C1572 Ho1561 2.811 . S
C1572 C1573 1.488 . S
C1572 O1588 1.215 . S
C1572 O1589 1.289 . S
C1573 C1572 1.488 . S
C1573 C1574 1.348 . S
C1573 C1578 1.413 . S
C1574 C1573 1.348 . S
C1574 C1575 1.442 . S
C1574 H1596 0.930 . S
C1575 C1574 1.442 . S
C1575 C1576 1.381 . S
C1575 H1597 0.931 . S
C1576 C1575 1.381 . S
C1576 C1577 1.321 . S
C1577 C1576 1.321 . S
C1577 C1578 1.403 . S
C1577 H1598 0.934 . S
C1578 C1573 1.413 . S
C1578 C1577 1.403 . S
C1578 H1599 0.930 . S
C1579 O1590 1.275 . S
C1579 O1591 1.256 . S
O1580 Ho1560 2.322 . S
O1580 C1562 1.259 . S
O1581 Ho1561 2.346 . S
O1581 C1562 1.268 . S
O1582 Ho1560 2.378 . S
O1582 C1563 1.215 . S
O1583 Ho1560 2.524 . S
O1583 C1563 1.289 . S
O1584 Ho1560 2.381 . S
O1584 C1570 1.275 . S
O1585 Ho1560 2.669 . S
O1585 Ho1561 2.305 . S
O1585 C1570 1.256 . S
O1586 Ho1561 2.322 . S
O1586 C1571 1.259 . S
O1587 Ho1560 2.346 . S
O1587 C1571 1.268 . S
O1588 Ho1561 2.378 . S
O1588 C1572 1.215 . S
O1589 Ho1561 2.524 . S
O1589 C1572 1.289 . S
O1590 Ho1561 2.381 . S
O1590 C1579 1.275 . S
O1591 Ho1560 2.305 . S
O1591 Ho1561 2.669 . S
O1591 C1579 1.256 . S
H1592 C1565 0.930 . S
H1593 C1566 0.931 . S
H1594 C1568 0.934 . S
H1595 C1569 0.930 . S
H1596 C1574 0.930 . S
H1597 C1575 0.931 . S
H1598 C1577 0.934 . S
H1599 C1578 0.930 . S
Ho1600 C1603 2.811 . S
Ho1600 O1620 2.322 . S
Ho1600 O1622 2.378 . S
Ho1600 O1623 2.524 . S
Ho1600 O1624 2.381 1_554 S
Ho1600 O1625 2.669 1_554 S
Ho1600 O1627 2.346 1_554 S
Ho1600 O1631 2.305 . S
Ho1601 C1612 2.811 . S
Ho1601 O1621 2.346 1_556 S
Ho1601 O1625 2.305 . S
Ho1601 O1626 2.322 . S
Ho1601 O1628 2.378 . S
Ho1601 O1629 2.524 . S
Ho1601 O1630 2.381 . S
Ho1601 O1631 2.669 1_556 S
C1602 O1620 1.259 . S
C1602 O1621 1.268 . S
C1603 Ho1600 2.811 . S
C1603 C1604 1.488 . S
C1603 O1622 1.215 . S
C1603 O1623 1.289 . S
C1604 C1603 1.488 . S
C1604 C1605 1.348 . S
C1604 C1609 1.413 . S
C1605 C1604 1.348 . S
C1605 C1606 1.442 . S
C1605 H1632 0.930 . S
C1606 C1605 1.442 . S
C1606 C1607 1.381 . S
C1606 H1633 0.931 . S
C1607 C1606 1.381 . S
C1607 C1608 1.321 . S
C1608 C1607 1.321 . S
C1608 C1609 1.403 . S
C1608 H1634 0.934 . S
C1609 C1604 1.413 . S
C1609 C1608 1.403 . S
C1609 H1635 0.930 . S
C1610 O1624 1.275 . S
C1610 O1625 1.256 . S
C1611 O1626 1.259 . S
C1611 O1627 1.268 . S
C1612 Ho1601 2.811 . S
C1612 C1613 1.488 . S
C1612 O1628 1.215 . S
C1612 O1629 1.289 . S
C1613 C1612 1.488 . S
C1613 C1614 1.348 . S
C1613 C1618 1.413 . S
C1614 C1613 1.348 . S
C1614 C1615 1.442 . S
C1614 H1636 0.930 . S
C1615 C1614 1.442 . S
C1615 C1616 1.381 . S
C1615 H1637 0.931 . S
C1616 C1615 1.381 . S
C1616 C1617 1.321 . S
C1617 C1616 1.321 . S
C1617 C1618 1.403 . S
C1617 H1638 0.934 . S
C1618 C1613 1.413 . S
C1618 C1617 1.403 . S
C1618 H1639 0.930 . S
C1619 O1630 1.275 1_554 S
C1619 O1631 1.256 . S
O1620 Ho1600 2.322 . S
O1620 C1602 1.259 . S
O1621 Ho1601 2.346 1_554 S
O1621 C1602 1.268 . S
O1622 Ho1600 2.378 . S
O1622 C1603 1.215 . S
O1623 Ho1600 2.524 . S
O1623 C1603 1.289 . S
O1624 Ho1600 2.381 1_556 S
O1624 C1610 1.275 . S
O1625 Ho1600 2.669 1_556 S
O1625 Ho1601 2.305 . S
O1625 C1610 1.256 . S
O1626 Ho1601 2.322 . S
O1626 C1611 1.259 . S
O1627 Ho1600 2.346 1_556 S
O1627 C1611 1.268 . S
O1628 Ho1601 2.378 . S
O1628 C1612 1.215 . S
O1629 Ho1601 2.524 . S
O1629 C1612 1.289 . S
O1630 Ho1601 2.381 . S
O1630 C1619 1.275 1_556 S
O1631 Ho1600 2.305 . S
O1631 Ho1601 2.669 1_554 S
O1631 C1619 1.256 . S
H1632 C1605 0.930 . S
H1633 C1606 0.931 . S
H1634 C1608 0.934 . S
H1635 C1609 0.930 . S
H1636 C1614 0.930 . S
H1637 C1615 0.931 . S
H1638 C1617 0.934 . S
H1639 C1618 0.930 . S
Ho1640 C1643 2.811 . S
Ho1640 O1660 2.322 . S
Ho1640 O1662 2.378 . S
Ho1640 O1663 2.524 . S
Ho1640 O1664 2.381 1_554 S
Ho1640 O1665 2.669 1_554 S
Ho1640 O1667 2.346 1_554 S
Ho1640 O1671 2.305 . S
Ho1641 C1652 2.811 1_554 S
Ho1641 O1661 2.346 . S
Ho1641 O1665 2.305 1_554 S
Ho1641 O1666 2.322 1_554 S
Ho1641 O1668 2.378 1_554 S
Ho1641 O1669 2.524 1_554 S
Ho1641 O1670 2.381 . S
Ho1641 O1671 2.669 . S
C1642 O1660 1.259 . S
C1642 O1661 1.268 . S
C1643 Ho1640 2.811 . S
C1643 C1644 1.488 . S
C1643 O1662 1.215 . S
C1643 O1663 1.289 . S
C1644 C1643 1.488 . S
C1644 C1645 1.348 . S
C1644 C1649 1.413 . S
C1645 C1644 1.348 . S
C1645 C1646 1.442 . S
C1645 H1672 0.930 . S
C1646 C1645 1.442 . S
C1646 C1647 1.381 . S
C1646 H1673 0.931 . S
C1647 C1646 1.381 . S
C1647 C1648 1.321 . S
C1648 C1647 1.321 . S
C1648 C1649 1.403 . S
C1648 H1674 0.934 . S
C1649 C1644 1.413 . S
C1649 C1648 1.403 . S
C1649 H1675 0.930 . S
C1650 O1664 1.275 . S
C1650 O1665 1.256 . S
C1651 O1666 1.259 . S
C1651 O1667 1.268 . S
C1652 Ho1641 2.811 1_556 S
C1652 C1653 1.488 . S
C1652 O1668 1.215 . S
C1652 O1669 1.289 . S
C1653 C1652 1.488 . S
C1653 C1654 1.348 . S
C1653 C1658 1.413 . S
C1654 C1653 1.348 . S
C1654 C1655 1.442 . S
C1654 H1676 0.930 . S
C1655 C1654 1.442 . S
C1655 C1656 1.381 . S
C1655 H1677 0.931 . S
C1656 C1655 1.381 . S
C1656 C1657 1.321 . S
C1657 C1656 1.321 . S
C1657 C1658 1.403 . S
C1657 H1678 0.934 . S
C1658 C1653 1.413 . S
C1658 C1657 1.403 . S
C1658 H1679 0.930 . S
C1659 O1670 1.275 . S
C1659 O1671 1.256 . S
O1660 Ho1640 2.322 . S
O1660 C1642 1.259 . S
O1661 Ho1641 2.346 . S
O1661 C1642 1.268 . S
O1662 Ho1640 2.378 . S
O1662 C1643 1.215 . S
O1663 Ho1640 2.524 . S
O1663 C1643 1.289 . S
O1664 Ho1640 2.381 1_556 S
O1664 C1650 1.275 . S
O1665 Ho1640 2.669 1_556 S
O1665 Ho1641 2.305 1_556 S
O1665 C1650 1.256 . S
O1666 Ho1641 2.322 1_556 S
O1666 C1651 1.259 . S
O1667 Ho1640 2.346 1_556 S
O1667 C1651 1.268 . S
O1668 Ho1641 2.378 1_556 S
O1668 C1652 1.215 . S
O1669 Ho1641 2.524 1_556 S
O1669 C1652 1.289 . S
O1670 Ho1641 2.381 . S
O1670 C1659 1.275 . S
O1671 Ho1640 2.305 . S
O1671 Ho1641 2.669 . S
O1671 C1659 1.256 . S
H1672 C1645 0.930 . S
H1673 C1646 0.931 . S
H1674 C1648 0.934 . S
H1675 C1649 0.930 . S
H1676 C1654 0.930 . S
H1677 C1655 0.931 . S
H1678 C1657 0.934 . S
H1679 C1658 0.930 . S
Ho1680 C1683 2.811 . S
Ho1680 O1700 2.322 . S
Ho1680 O1702 2.378 . S
Ho1680 O1703 2.524 . S
Ho1680 O1704 2.381 . S
Ho1680 O1705 2.669 . S
Ho1680 O1707 2.346 . S
Ho1680 O1711 2.305 . S
Ho1681 C1692 2.811 . S
Ho1681 O1701 2.346 . S
Ho1681 O1705 2.305 . S
Ho1681 O1706 2.322 . S
Ho1681 O1708 2.378 . S
Ho1681 O1709 2.524 . S
Ho1681 O1710 2.381 . S
Ho1681 O1711 2.669 . S
C1682 O1700 1.259 . S
C1682 O1701 1.268 . S
C1683 Ho1680 2.811 . S
C1683 C1684 1.488 . S
C1683 O1702 1.215 . S
C1683 O1703 1.289 . S
C1684 C1683 1.488 . S
C1684 C1685 1.348 . S
C1684 C1689 1.413 . S
C1685 C1684 1.348 . S
C1685 C1686 1.442 . S
C1685 H1712 0.930 . S
C1686 C1685 1.442 . S
C1686 C1687 1.381 . S
C1686 H1713 0.931 . S
C1687 C1686 1.381 . S
C1687 C1688 1.321 . S
C1688 C1687 1.321 . S
C1688 C1689 1.403 . S
C1688 H1714 0.934 . S
C1689 C1684 1.413 . S
C1689 C1688 1.403 . S
C1689 H1715 0.930 . S
C1690 O1704 1.275 . S
C1690 O1705 1.256 . S
C1691 O1706 1.259 . S
C1691 O1707 1.268 . S
C1692 Ho1681 2.811 . S
C1692 C1693 1.488 . S
C1692 O1708 1.215 . S
C1692 O1709 1.289 . S
C1693 C1692 1.488 . S
C1693 C1694 1.348 . S
C1693 C1698 1.413 . S
C1694 C1693 1.348 . S
C1694 C1695 1.442 . S
C1694 H1716 0.930 . S
C1695 C1694 1.442 . S
C1695 C1696 1.381 . S
C1695 H1717 0.931 . S
C1696 C1695 1.381 . S
C1696 C1697 1.321 . S
C1697 C1696 1.321 . S
C1697 C1698 1.403 . S
C1697 H1718 0.934 . S
C1698 C1693 1.413 . S
C1698 C1697 1.403 . S
C1698 H1719 0.930 . S
C1699 O1710 1.275 . S
C1699 O1711 1.256 . S
O1700 Ho1680 2.322 . S
O1700 C1682 1.259 . S
O1701 Ho1681 2.346 . S
O1701 C1682 1.268 . S
O1702 Ho1680 2.378 . S
O1702 C1683 1.215 . S
O1703 Ho1680 2.524 . S
O1703 C1683 1.289 . S
O1704 Ho1680 2.381 . S
O1704 C1690 1.275 . S
O1705 Ho1680 2.669 . S
O1705 Ho1681 2.305 . S
O1705 C1690 1.256 . S
O1706 Ho1681 2.322 . S
O1706 C1691 1.259 . S
O1707 Ho1680 2.346 . S
O1707 C1691 1.268 . S
O1708 Ho1681 2.378 . S
O1708 C1692 1.215 . S
O1709 Ho1681 2.524 . S
O1709 C1692 1.289 . S
O1710 Ho1681 2.381 . S
O1710 C1699 1.275 . S
O1711 Ho1680 2.305 . S
O1711 Ho1681 2.669 . S
O1711 C1699 1.256 . S
H1712 C1685 0.930 . S
H1713 C1686 0.931 . S
H1714 C1688 0.934 . S
H1715 C1689 0.930 . S
H1716 C1694 0.930 . S
H1717 C1695 0.931 . S
H1718 C1697 0.934 . S
H1719 C1698 0.930 . S
Ho1720 C1723 2.811 . S
Ho1720 O1740 2.322 . S
Ho1720 O1742 2.378 . S
Ho1720 O1743 2.524 . S
Ho1720 O1744 2.381 . S
Ho1720 O1745 2.669 . S
Ho1720 O1747 2.346 . S
Ho1720 O1751 2.305 . S
Ho1721 C1732 2.811 . S
Ho1721 O1741 2.346 . S
Ho1721 O1745 2.305 . S
Ho1721 O1746 2.322 . S
Ho1721 O1748 2.378 . S
Ho1721 O1749 2.524 . S
Ho1721 O1750 2.381 . S
Ho1721 O1751 2.669 . S
C1722 O1740 1.259 . S
C1722 O1741 1.268 . S
C1723 Ho1720 2.811 . S
C1723 C1724 1.488 . S
C1723 O1742 1.215 . S
C1723 O1743 1.289 . S
C1724 C1723 1.488 . S
C1724 C1725 1.348 . S
C1724 C1729 1.413 . S
C1725 C1724 1.348 . S
C1725 C1726 1.442 . S
C1725 H1752 0.930 . S
C1726 C1725 1.442 . S
C1726 C1727 1.381 . S
C1726 H1753 0.931 . S
C1727 C1726 1.381 . S
C1727 C1728 1.321 . S
C1728 C1727 1.321 . S
C1728 C1729 1.403 . S
C1728 H1754 0.934 . S
C1729 C1724 1.413 . S
C1729 C1728 1.403 . S
C1729 H1755 0.930 . S
C1730 O1744 1.275 . S
C1730 O1745 1.256 . S
C1731 O1746 1.259 . S
C1731 O1747 1.268 . S
C1732 Ho1721 2.811 . S
C1732 C1733 1.488 . S
C1732 O1748 1.215 . S
C1732 O1749 1.289 . S
C1733 C1732 1.488 . S
C1733 C1734 1.348 . S
C1733 C1738 1.413 . S
C1734 C1733 1.348 . S
C1734 C1735 1.442 . S
C1734 H1756 0.930 . S
C1735 C1734 1.442 . S
C1735 C1736 1.381 . S
C1735 H1757 0.931 . S
C1736 C1735 1.381 . S
C1736 C1737 1.321 . S
C1737 C1736 1.321 . S
C1737 C1738 1.403 . S
C1737 H1758 0.934 . S
C1738 C1733 1.413 . S
C1738 C1737 1.403 . S
C1738 H1759 0.930 . S
C1739 O1750 1.275 . S
C1739 O1751 1.256 . S
O1740 Ho1720 2.322 . S
O1740 C1722 1.259 . S
O1741 Ho1721 2.346 . S
O1741 C1722 1.268 . S
O1742 Ho1720 2.378 . S
O1742 C1723 1.215 . S
O1743 Ho1720 2.524 . S
O1743 C1723 1.289 . S
O1744 Ho1720 2.381 . S
O1744 C1730 1.275 . S
O1745 Ho1720 2.669 . S
O1745 Ho1721 2.305 . S
O1745 C1730 1.256 . S
O1746 Ho1721 2.322 . S
O1746 C1731 1.259 . S
O1747 Ho1720 2.346 . S
O1747 C1731 1.268 . S
O1748 Ho1721 2.378 . S
O1748 C1732 1.215 . S
O1749 Ho1721 2.524 . S
O1749 C1732 1.289 . S
O1750 Ho1721 2.381 . S
O1750 C1739 1.275 . S
O1751 Ho1720 2.305 . S
O1751 Ho1721 2.669 . S
O1751 C1739 1.256 . S
H1752 C1725 0.930 . S
H1753 C1726 0.931 . S
H1754 C1728 0.934 . S
H1755 C1729 0.930 . S
H1756 C1734 0.930 . S
H1757 C1735 0.931 . S
H1758 C1737 0.934 . S
H1759 C1738 0.930 . S
Ho1760 C1763 2.811 . S
Ho1760 O1780 2.322 . S
Ho1760 O1782 2.378 . S
Ho1760 O1783 2.524 . S
Ho1760 O1784 2.381 . S
Ho1760 O1785 2.669 . S
Ho1760 O1787 2.346 . S
Ho1760 O1791 2.305 . S
Ho1761 C1772 2.811 . S
Ho1761 O1781 2.346 . S
Ho1761 O1785 2.305 . S
Ho1761 O1786 2.322 . S
Ho1761 O1788 2.378 . S
Ho1761 O1789 2.524 . S
Ho1761 O1790 2.381 . S
Ho1761 O1791 2.669 . S
C1762 O1780 1.259 . S
C1762 O1781 1.268 . S
C1763 Ho1760 2.811 . S
C1763 C1764 1.488 . S
C1763 O1782 1.215 . S
C1763 O1783 1.289 . S
C1764 C1763 1.488 . S
C1764 C1765 1.348 . S
C1764 C1769 1.413 . S
C1765 C1764 1.348 . S
C1765 C1766 1.442 . S
C1765 H1792 0.930 . S
C1766 C1765 1.442 . S
C1766 C1767 1.381 . S
C1766 H1793 0.931 . S
C1767 C1766 1.381 . S
C1767 C1768 1.321 . S
C1768 C1767 1.321 . S
C1768 C1769 1.403 . S
C1768 H1794 0.934 . S
C1769 C1764 1.413 . S
C1769 C1768 1.403 . S
C1769 H1795 0.930 . S
C1770 O1784 1.275 . S
C1770 O1785 1.256 . S
C1771 O1786 1.259 . S
C1771 O1787 1.268 . S
C1772 Ho1761 2.811 . S
C1772 C1773 1.488 . S
C1772 O1788 1.215 . S
C1772 O1789 1.289 . S
C1773 C1772 1.488 . S
C1773 C1774 1.348 . S
C1773 C1778 1.413 . S
C1774 C1773 1.348 . S
C1774 C1775 1.442 . S
C1774 H1796 0.930 . S
C1775 C1774 1.442 . S
C1775 C1776 1.381 . S
C1775 H1797 0.931 . S
C1776 C1775 1.381 . S
C1776 C1777 1.321 . S
C1777 C1776 1.321 . S
C1777 C1778 1.403 . S
C1777 H1798 0.934 . S
C1778 C1773 1.413 . S
C1778 C1777 1.403 . S
C1778 H1799 0.930 . S
C1779 O1790 1.275 . S
C1779 O1791 1.256 . S
O1780 Ho1760 2.322 . S
O1780 C1762 1.259 . S
O1781 Ho1761 2.346 . S
O1781 C1762 1.268 . S
O1782 Ho1760 2.378 . S
O1782 C1763 1.215 . S
O1783 Ho1760 2.524 . S
O1783 C1763 1.289 . S
O1784 Ho1760 2.381 . S
O1784 C1770 1.275 . S
O1785 Ho1760 2.669 . S
O1785 Ho1761 2.305 . S
O1785 C1770 1.256 . S
O1786 Ho1761 2.322 . S
O1786 C1771 1.259 . S
O1787 Ho1760 2.346 . S
O1787 C1771 1.268 . S
O1788 Ho1761 2.378 . S
O1788 C1772 1.215 . S
O1789 Ho1761 2.524 . S
O1789 C1772 1.289 . S
O1790 Ho1761 2.381 . S
O1790 C1779 1.275 . S
O1791 Ho1760 2.305 . S
O1791 Ho1761 2.669 . S
O1791 C1779 1.256 . S
H1792 C1765 0.930 . S
H1793 C1766 0.931 . S
H1794 C1768 0.934 . S
H1795 C1769 0.930 . S
H1796 C1774 0.930 . S
H1797 C1775 0.931 . S
H1798 C1777 0.934 . S
H1799 C1778 0.930 . S
Ho1800 C1803 2.811 . S
Ho1800 O1820 2.322 . S
Ho1800 O1822 2.378 . S
Ho1800 O1823 2.524 . S
Ho1800 O1824 2.381 . S
Ho1800 O1825 2.669 . S
Ho1800 O1827 2.346 . S
Ho1800 O1831 2.305 . S
Ho1801 C1812 2.811 . S
Ho1801 O1821 2.346 . S
Ho1801 O1825 2.305 . S
Ho1801 O1826 2.322 . S
Ho1801 O1828 2.378 . S
Ho1801 O1829 2.524 . S
Ho1801 O1830 2.381 . S
Ho1801 O1831 2.669 . S
C1802 O1820 1.259 . S
C1802 O1821 1.268 . S
C1803 Ho1800 2.811 . S
C1803 C1804 1.488 . S
C1803 O1822 1.215 . S
C1803 O1823 1.289 . S
C1804 C1803 1.488 . S
C1804 C1805 1.348 . S
C1804 C1809 1.413 . S
C1805 C1804 1.348 . S
C1805 C1806 1.442 . S
C1805 H1832 0.930 . S
C1806 C1805 1.442 . S
C1806 C1807 1.381 . S
C1806 H1833 0.931 . S
C1807 C1806 1.381 . S
C1807 C1808 1.321 . S
C1808 C1807 1.321 . S
C1808 C1809 1.403 . S
C1808 H1834 0.934 . S
C1809 C1804 1.413 . S
C1809 C1808 1.403 . S
C1809 H1835 0.930 . S
C1810 O1824 1.275 . S
C1810 O1825 1.256 . S
C1811 O1826 1.259 . S
C1811 O1827 1.268 . S
C1812 Ho1801 2.811 . S
C1812 C1813 1.488 . S
C1812 O1828 1.215 . S
C1812 O1829 1.289 . S
C1813 C1812 1.488 . S
C1813 C1814 1.348 . S
C1813 C1818 1.413 . S
C1814 C1813 1.348 . S
C1814 C1815 1.442 . S
C1814 H1836 0.930 . S
C1815 C1814 1.442 . S
C1815 C1816 1.381 . S
C1815 H1837 0.931 . S
C1816 C1815 1.381 . S
C1816 C1817 1.321 . S
C1817 C1816 1.321 . S
C1817 C1818 1.403 . S
C1817 H1838 0.934 . S
C1818 C1813 1.413 . S
C1818 C1817 1.403 . S
C1818 H1839 0.930 . S
C1819 O1830 1.275 . S
C1819 O1831 1.256 . S
O1820 Ho1800 2.322 . S
O1820 C1802 1.259 . S
O1821 Ho1801 2.346 . S
O1821 C1802 1.268 . S
O1822 Ho1800 2.378 . S
O1822 C1803 1.215 . S
O1823 Ho1800 2.524 . S
O1823 C1803 1.289 . S
O1824 Ho1800 2.381 . S
O1824 C1810 1.275 . S
O1825 Ho1800 2.669 . S
O1825 Ho1801 2.305 . S
O1825 C1810 1.256 . S
O1826 Ho1801 2.322 . S
O1826 C1811 1.259 . S
O1827 Ho1800 2.346 . S
O1827 C1811 1.268 . S
O1828 Ho1801 2.378 . S
O1828 C1812 1.215 . S
O1829 Ho1801 2.524 . S
O1829 C1812 1.289 . S
O1830 Ho1801 2.381 . S
O1830 C1819 1.275 . S
O1831 Ho1800 2.305 . S
O1831 Ho1801 2.669 . S
O1831 C1819 1.256 . S
H1832 C1805 0.930 . S
H1833 C1806 0.931 . S
H1834 C1808 0.934 . S
H1835 C1809 0.930 . S
H1836 C1814 0.930 . S
H1837 C1815 0.931 . S
H1838 C1817 0.934 . S
H1839 C1818 0.930 . S
Ho1840 C1843 2.811 . S
Ho1840 O1860 2.322 . S
Ho1840 O1862 2.378 . S
Ho1840 O1863 2.524 . S
Ho1840 O1864 2.381 . S
Ho1840 O1865 2.669 . S
Ho1840 O1867 2.346 . S
Ho1840 O1871 2.305 . S
Ho1841 C1852 2.811 . S
Ho1841 O1861 2.346 . S
Ho1841 O1865 2.305 . S
Ho1841 O1866 2.322 . S
Ho1841 O1868 2.378 . S
Ho1841 O1869 2.524 . S
Ho1841 O1870 2.381 . S
Ho1841 O1871 2.669 . S
C1842 O1860 1.259 . S
C1842 O1861 1.268 . S
C1843 Ho1840 2.811 . S
C1843 C1844 1.488 . S
C1843 O1862 1.215 . S
C1843 O1863 1.289 . S
C1844 C1843 1.488 . S
C1844 C1845 1.348 . S
C1844 C1849 1.413 . S
C1845 C1844 1.348 . S
C1845 C1846 1.442 . S
C1845 H1872 0.930 . S
C1846 C1845 1.442 . S
C1846 C1847 1.381 . S
C1846 H1873 0.931 . S
C1847 C1846 1.381 . S
C1847 C1848 1.321 . S
C1848 C1847 1.321 . S
C1848 C1849 1.403 . S
C1848 H1874 0.934 . S
C1849 C1844 1.413 . S
C1849 C1848 1.403 . S
C1849 H1875 0.930 . S
C1850 O1864 1.275 . S
C1850 O1865 1.256 . S
C1851 O1866 1.259 . S
C1851 O1867 1.268 . S
C1852 Ho1841 2.811 . S
C1852 C1853 1.488 . S
C1852 O1868 1.215 . S
C1852 O1869 1.289 . S
C1853 C1852 1.488 . S
C1853 C1854 1.348 . S
C1853 C1858 1.413 . S
C1854 C1853 1.348 . S
C1854 C1855 1.442 . S
C1854 H1876 0.930 . S
C1855 C1854 1.442 . S
C1855 C1856 1.381 . S
C1855 H1877 0.931 . S
C1856 C1855 1.381 . S
C1856 C1857 1.321 . S
C1857 C1856 1.321 . S
C1857 C1858 1.403 . S
C1857 H1878 0.934 . S
C1858 C1853 1.413 . S
C1858 C1857 1.403 . S
C1858 H1879 0.930 . S
C1859 O1870 1.275 . S
C1859 O1871 1.256 . S
O1860 Ho1840 2.322 . S
O1860 C1842 1.259 . S
O1861 Ho1841 2.346 . S
O1861 C1842 1.268 . S
O1862 Ho1840 2.378 . S
O1862 C1843 1.215 . S
O1863 Ho1840 2.524 . S
O1863 C1843 1.289 . S
O1864 Ho1840 2.381 . S
O1864 C1850 1.275 . S
O1865 Ho1840 2.669 . S
O1865 Ho1841 2.305 . S
O1865 C1850 1.256 . S
O1866 Ho1841 2.322 . S
O1866 C1851 1.259 . S
O1867 Ho1840 2.346 . S
O1867 C1851 1.268 . S
O1868 Ho1841 2.378 . S
O1868 C1852 1.215 . S
O1869 Ho1841 2.524 . S
O1869 C1852 1.289 . S
O1870 Ho1841 2.381 . S
O1870 C1859 1.275 . S
O1871 Ho1840 2.305 . S
O1871 Ho1841 2.669 . S
O1871 C1859 1.256 . S
H1872 C1845 0.930 . S
H1873 C1846 0.931 . S
H1874 C1848 0.934 . S
H1875 C1849 0.930 . S
H1876 C1854 0.930 . S
H1877 C1855 0.931 . S
H1878 C1857 0.934 . S
H1879 C1858 0.930 . S
Ho1880 C1883 2.811 . S
Ho1880 O1900 2.322 . S
Ho1880 O1902 2.378 . S
Ho1880 O1903 2.524 . S
Ho1880 O1904 2.381 . S
Ho1880 O1905 2.669 . S
Ho1880 O1907 2.346 . S
Ho1880 O1911 2.305 . S
Ho1881 C1892 2.811 . S
Ho1881 O1901 2.346 . S
Ho1881 O1905 2.305 . S
Ho1881 O1906 2.322 . S
Ho1881 O1908 2.378 . S
Ho1881 O1909 2.524 . S
Ho1881 O1910 2.381 . S
Ho1881 O1911 2.669 . S
C1882 O1900 1.259 . S
C1882 O1901 1.268 . S
C1883 Ho1880 2.811 . S
C1883 C1884 1.488 . S
C1883 O1902 1.215 . S
C1883 O1903 1.289 . S
C1884 C1883 1.488 . S
C1884 C1885 1.348 . S
C1884 C1889 1.413 . S
C1885 C1884 1.348 . S
C1885 C1886 1.442 . S
C1885 H1912 0.930 . S
C1886 C1885 1.442 . S
C1886 C1887 1.381 . S
C1886 H1913 0.931 . S
C1887 C1886 1.381 . S
C1887 C1888 1.321 . S
C1888 C1887 1.321 . S
C1888 C1889 1.403 . S
C1888 H1914 0.934 . S
C1889 C1884 1.413 . S
C1889 C1888 1.403 . S
C1889 H1915 0.930 . S
C1890 O1904 1.275 . S
C1890 O1905 1.256 . S
C1891 O1906 1.259 . S
C1891 O1907 1.268 . S
C1892 Ho1881 2.811 . S
C1892 C1893 1.488 . S
C1892 O1908 1.215 . S
C1892 O1909 1.289 . S
C1893 C1892 1.488 . S
C1893 C1894 1.348 . S
C1893 C1898 1.413 . S
C1894 C1893 1.348 . S
C1894 C1895 1.442 . S
C1894 H1916 0.930 . S
C1895 C1894 1.442 . S
C1895 C1896 1.381 . S
C1895 H1917 0.931 . S
C1896 C1895 1.381 . S
C1896 C1897 1.321 . S
C1897 C1896 1.321 . S
C1897 C1898 1.403 . S
C1897 H1918 0.934 . S
C1898 C1893 1.413 . S
C1898 C1897 1.403 . S
C1898 H1919 0.930 . S
C1899 O1910 1.275 . S
C1899 O1911 1.256 . S
O1900 Ho1880 2.322 . S
O1900 C1882 1.259 . S
O1901 Ho1881 2.346 . S
O1901 C1882 1.268 . S
O1902 Ho1880 2.378 . S
O1902 C1883 1.215 . S
O1903 Ho1880 2.524 . S
O1903 C1883 1.289 . S
O1904 Ho1880 2.381 . S
O1904 C1890 1.275 . S
O1905 Ho1880 2.669 . S
O1905 Ho1881 2.305 . S
O1905 C1890 1.256 . S
O1906 Ho1881 2.322 . S
O1906 C1891 1.259 . S
O1907 Ho1880 2.346 . S
O1907 C1891 1.268 . S
O1908 Ho1881 2.378 . S
O1908 C1892 1.215 . S
O1909 Ho1881 2.524 . S
O1909 C1892 1.289 . S
O1910 Ho1881 2.381 . S
O1910 C1899 1.275 . S
O1911 Ho1880 2.305 . S
O1911 Ho1881 2.669 . S
O1911 C1899 1.256 . S
H1912 C1885 0.930 . S
H1913 C1886 0.931 . S
H1914 C1888 0.934 . S
H1915 C1889 0.930 . S
H1916 C1894 0.930 . S
H1917 C1895 0.931 . S
H1918 C1897 0.934 . S
H1919 C1898 0.930 . S
Ho1920 C1923 2.811 . S
Ho1920 O1940 2.322 . S
Ho1920 O1942 2.378 . S
Ho1920 O1943 2.524 . S
Ho1920 O1944 2.381 . S
Ho1920 O1945 2.669 . S
Ho1920 O1947 2.346 . S
Ho1920 O1951 2.305 . S
Ho1921 C1932 2.811 . S
Ho1921 O1941 2.346 . S
Ho1921 O1945 2.305 . S
Ho1921 O1946 2.322 . S
Ho1921 O1948 2.378 . S
Ho1921 O1949 2.524 . S
Ho1921 O1950 2.381 . S
Ho1921 O1951 2.669 . S
C1922 O1940 1.259 . S
C1922 O1941 1.268 . S
C1923 Ho1920 2.811 . S
C1923 C1924 1.488 . S
C1923 O1942 1.215 . S
C1923 O1943 1.289 . S
C1924 C1923 1.488 . S
C1924 C1925 1.348 . S
C1924 C1929 1.413 . S
C1925 C1924 1.348 . S
C1925 C1926 1.442 . S
C1925 H1952 0.930 . S
C1926 C1925 1.442 . S
C1926 C1927 1.381 . S
C1926 H1953 0.931 . S
C1927 C1926 1.381 . S
C1927 C1928 1.321 . S
C1928 C1927 1.321 . S
C1928 C1929 1.403 . S
C1928 H1954 0.934 . S
C1929 C1924 1.413 . S
C1929 C1928 1.403 . S
C1929 H1955 0.930 . S
C1930 O1944 1.275 . S
C1930 O1945 1.256 . S
C1931 O1946 1.259 . S
C1931 O1947 1.268 . S
C1932 Ho1921 2.811 . S
C1932 C1933 1.488 . S
C1932 O1948 1.215 . S
C1932 O1949 1.289 . S
C1933 C1932 1.488 . S
C1933 C1934 1.348 . S
C1933 C1938 1.413 . S
C1934 C1933 1.348 . S
C1934 C1935 1.442 . S
C1934 H1956 0.930 . S
C1935 C1934 1.442 . S
C1935 C1936 1.381 . S
C1935 H1957 0.931 . S
C1936 C1935 1.381 . S
C1936 C1937 1.321 . S
C1937 C1936 1.321 . S
C1937 C1938 1.403 . S
C1937 H1958 0.934 . S
C1938 C1933 1.413 . S
C1938 C1937 1.403 . S
C1938 H1959 0.930 . S
C1939 O1950 1.275 . S
C1939 O1951 1.256 . S
O1940 Ho1920 2.322 . S
O1940 C1922 1.259 . S
O1941 Ho1921 2.346 . S
O1941 C1922 1.268 . S
O1942 Ho1920 2.378 . S
O1942 C1923 1.215 . S
O1943 Ho1920 2.524 . S
O1943 C1923 1.289 . S
O1944 Ho1920 2.381 . S
O1944 C1930 1.275 . S
O1945 Ho1920 2.669 . S
O1945 Ho1921 2.305 . S
O1945 C1930 1.256 . S
O1946 Ho1921 2.322 . S
O1946 C1931 1.259 . S
O1947 Ho1920 2.346 . S
O1947 C1931 1.268 . S
O1948 Ho1921 2.378 . S
O1948 C1932 1.215 . S
O1949 Ho1921 2.524 . S
O1949 C1932 1.289 . S
O1950 Ho1921 2.381 . S
O1950 C1939 1.275 . S
O1951 Ho1920 2.305 . S
O1951 Ho1921 2.669 . S
O1951 C1939 1.256 . S
H1952 C1925 0.930 . S
H1953 C1926 0.931 . S
H1954 C1928 0.934 . S
H1955 C1929 0.930 . S
H1956 C1934 0.930 . S
H1957 C1935 0.931 . S
H1958 C1937 0.934 . S
H1959 C1938 0.930 . S
Ho1960 C1963 2.811 . S
Ho1960 O1980 2.322 . S
Ho1960 O1982 2.378 . S
Ho1960 O1983 2.524 . S
Ho1960 O1984 2.381 . S
Ho1960 O1985 2.669 . S
Ho1960 O1987 2.346 . S
Ho1960 O1991 2.305 . S
Ho1961 C1972 2.811 . S
Ho1961 O1981 2.346 . S
Ho1961 O1985 2.305 . S
Ho1961 O1986 2.322 . S
Ho1961 O1988 2.378 . S
Ho1961 O1989 2.524 . S
Ho1961 O1990 2.381 . S
Ho1961 O1991 2.669 . S
C1962 O1980 1.259 . S
C1962 O1981 1.268 . S
C1963 Ho1960 2.811 . S
C1963 C1964 1.488 . S
C1963 O1982 1.215 . S
C1963 O1983 1.289 . S
C1964 C1963 1.488 . S
C1964 C1965 1.348 . S
C1964 C1969 1.413 . S
C1965 C1964 1.348 . S
C1965 C1966 1.442 . S
C1965 H1992 0.930 . S
C1966 C1965 1.442 . S
C1966 C1967 1.381 . S
C1966 H1993 0.931 . S
C1967 C1966 1.381 . S
C1967 C1968 1.321 . S
C1968 C1967 1.321 . S
C1968 C1969 1.403 . S
C1968 H1994 0.934 . S
C1969 C1964 1.413 . S
C1969 C1968 1.403 . S
C1969 H1995 0.930 . S
C1970 O1984 1.275 . S
C1970 O1985 1.256 . S
C1971 O1986 1.259 . S
C1971 O1987 1.268 . S
C1972 Ho1961 2.811 . S
C1972 C1973 1.488 . S
C1972 O1988 1.215 . S
C1972 O1989 1.289 . S
C1973 C1972 1.488 . S
C1973 C1974 1.348 . S
C1973 C1978 1.413 . S
C1974 C1973 1.348 . S
C1974 C1975 1.442 . S
C1974 H1996 0.930 . S
C1975 C1974 1.442 . S
C1975 C1976 1.381 . S
C1975 H1997 0.931 . S
C1976 C1975 1.381 . S
C1976 C1977 1.321 . S
C1977 C1976 1.321 . S
C1977 C1978 1.403 . S
C1977 H1998 0.934 . S
C1978 C1973 1.413 . S
C1978 C1977 1.403 . S
C1978 H1999 0.930 . S
C1979 O1990 1.275 . S
C1979 O1991 1.256 . S
O1980 Ho1960 2.322 . S
O1980 C1962 1.259 . S
O1981 Ho1961 2.346 . S
O1981 C1962 1.268 . S
O1982 Ho1960 2.378 . S
O1982 C1963 1.215 . S
O1983 Ho1960 2.524 . S
O1983 C1963 1.289 . S
O1984 Ho1960 2.381 . S
O1984 C1970 1.275 . S
O1985 Ho1960 2.669 . S
O1985 Ho1961 2.305 . S
O1985 C1970 1.256 . S
O1986 Ho1961 2.322 . S
O1986 C1971 1.259 . S
O1987 Ho1960 2.346 . S
O1987 C1971 1.268 . S
O1988 Ho1961 2.378 . S
O1988 C1972 1.215 . S
O1989 Ho1961 2.524 . S
O1989 C1972 1.289 . S
O1990 Ho1961 2.381 . S
O1990 C1979 1.275 . S
O1991 Ho1960 2.305 . S
O1991 Ho1961 2.669 . S
O1991 C1979 1.256 . S
H1992 C1965 0.930 . S
H1993 C1966 0.931 . S
H1994 C1968 0.934 . S
H1995 C1969 0.930 . S
H1996 C1974 0.930 . S
H1997 C1975 0.931 . S
H1998 C1977 0.934 . S
H1999 C1978 0.930 . S
Ho2000 C2003 2.811 . S
Ho2000 O2020 2.322 . S
Ho2000 O2022 2.378 . S
Ho2000 O2023 2.524 . S
Ho2000 O2024 2.381 1_455 S
Ho2000 O2025 2.669 1_455 S
Ho2000 O2027 2.346 1_455 S
Ho2000 O2031 2.305 . S
Ho2001 C2012 2.811 . S
Ho2001 O2021 2.346 1_655 S
Ho2001 O2025 2.305 . S
Ho2001 O2026 2.322 . S
Ho2001 O2028 2.378 . S
Ho2001 O2029 2.524 . S
Ho2001 O2030 2.381 1_655 S
Ho2001 O2031 2.669 1_655 S
C2002 O2020 1.259 . S
C2002 O2021 1.268 . S
C2003 Ho2000 2.811 . S
C2003 C2004 1.488 . S
C2003 O2022 1.215 . S
C2003 O2023 1.289 . S
C2004 C2003 1.488 . S
C2004 C2005 1.348 . S
C2004 C2009 1.413 . S
C2005 C2004 1.348 . S
C2005 C2006 1.442 . S
C2005 H2032 0.930 . S
C2006 C2005 1.442 . S
C2006 C2007 1.381 . S
C2006 H2033 0.931 . S
C2007 C2006 1.381 . S
C2007 C2008 1.321 . S
C2008 C2007 1.321 . S
C2008 C2009 1.403 . S
C2008 H2034 0.934 . S
C2009 C2004 1.413 . S
C2009 C2008 1.403 . S
C2009 H2035 0.930 . S
C2010 O2024 1.275 . S
C2010 O2025 1.256 . S
C2011 O2026 1.259 . S
C2011 O2027 1.268 . S
C2012 Ho2001 2.811 . S
C2012 C2013 1.488 . S
C2012 O2028 1.215 . S
C2012 O2029 1.289 . S
C2013 C2012 1.488 . S
C2013 C2014 1.348 . S
C2013 C2018 1.413 . S
C2014 C2013 1.348 . S
C2014 C2015 1.442 . S
C2014 H2036 0.930 . S
C2015 C2014 1.442 . S
C2015 C2016 1.381 . S
C2015 H2037 0.931 . S
C2016 C2015 1.381 . S
C2016 C2017 1.321 . S
C2017 C2016 1.321 . S
C2017 C2018 1.403 . S
C2017 H2038 0.934 . S
C2018 C2013 1.413 . S
C2018 C2017 1.403 . S
C2018 H2039 0.930 . S
C2019 O2030 1.275 . S
C2019 O2031 1.256 . S
O2020 Ho2000 2.322 . S
O2020 C2002 1.259 . S
O2021 Ho2001 2.346 1_455 S
O2021 C2002 1.268 . S
O2022 Ho2000 2.378 . S
O2022 C2003 1.215 . S
O2023 Ho2000 2.524 . S
O2023 C2003 1.289 . S
O2024 Ho2000 2.381 1_655 S
O2024 C2010 1.275 . S
O2025 Ho2000 2.669 1_655 S
O2025 Ho2001 2.305 . S
O2025 C2010 1.256 . S
O2026 Ho2001 2.322 . S
O2026 C2011 1.259 . S
O2027 Ho2000 2.346 1_655 S
O2027 C2011 1.268 . S
O2028 Ho2001 2.378 . S
O2028 C2012 1.215 . S
O2029 Ho2001 2.524 . S
O2029 C2012 1.289 . S
O2030 Ho2001 2.381 1_455 S
O2030 C2019 1.275 . S
O2031 Ho2000 2.305 . S
O2031 Ho2001 2.669 1_455 S
O2031 C2019 1.256 . S
H2032 C2005 0.930 . S
H2033 C2006 0.931 . S
H2034 C2008 0.934 . S
H2035 C2009 0.930 . S
H2036 C2014 0.930 . S
H2037 C2015 0.931 . S
H2038 C2017 0.934 . S
H2039 C2018 0.930 . S
Ho2040 C2043 2.811 . S
Ho2040 O2060 2.322 . S
Ho2040 O2062 2.378 . S
Ho2040 O2063 2.524 . S
Ho2040 O2064 2.381 . S
Ho2040 O2065 2.669 . S
Ho2040 O2067 2.346 . S
Ho2040 O2071 2.305 . S
Ho2041 C2052 2.811 . S
Ho2041 O2061 2.346 . S
Ho2041 O2065 2.305 . S
Ho2041 O2066 2.322 . S
Ho2041 O2068 2.378 . S
Ho2041 O2069 2.524 . S
Ho2041 O2070 2.381 . S
Ho2041 O2071 2.669 . S
C2042 O2060 1.259 . S
C2042 O2061 1.268 . S
C2043 Ho2040 2.811 . S
C2043 C2044 1.488 . S
C2043 O2062 1.215 . S
C2043 O2063 1.289 . S
C2044 C2043 1.488 . S
C2044 C2045 1.348 . S
C2044 C2049 1.413 . S
C2045 C2044 1.348 . S
C2045 C2046 1.442 . S
C2045 H2072 0.930 . S
C2046 C2045 1.442 . S
C2046 C2047 1.381 . S
C2046 H2073 0.931 . S
C2047 C2046 1.381 . S
C2047 C2048 1.321 . S
C2048 C2047 1.321 . S
C2048 C2049 1.403 . S
C2048 H2074 0.934 . S
C2049 C2044 1.413 . S
C2049 C2048 1.403 . S
C2049 H2075 0.930 . S
C2050 O2064 1.275 . S
C2050 O2065 1.256 . S
C2051 O2066 1.259 . S
C2051 O2067 1.268 . S
C2052 Ho2041 2.811 . S
C2052 C2053 1.488 . S
C2052 O2068 1.215 . S
C2052 O2069 1.289 . S
C2053 C2052 1.488 . S
C2053 C2054 1.348 . S
C2053 C2058 1.413 . S
C2054 C2053 1.348 . S
C2054 C2055 1.442 . S
C2054 H2076 0.930 . S
C2055 C2054 1.442 . S
C2055 C2056 1.381 . S
C2055 H2077 0.931 . S
C2056 C2055 1.381 . S
C2056 C2057 1.321 . S
C2057 C2056 1.321 . S
C2057 C2058 1.403 . S
C2057 H2078 0.934 . S
C2058 C2053 1.413 . S
C2058 C2057 1.403 . S
C2058 H2079 0.930 . S
C2059 O2070 1.275 . S
C2059 O2071 1.256 . S
O2060 Ho2040 2.322 . S
O2060 C2042 1.259 . S
O2061 Ho2041 2.346 . S
O2061 C2042 1.268 . S
O2062 Ho2040 2.378 . S
O2062 C2043 1.215 . S
O2063 Ho2040 2.524 . S
O2063 C2043 1.289 . S
O2064 Ho2040 2.381 . S
O2064 C2050 1.275 . S
O2065 Ho2040 2.669 . S
O2065 Ho2041 2.305 . S
O2065 C2050 1.256 . S
O2066 Ho2041 2.322 . S
O2066 C2051 1.259 . S
O2067 Ho2040 2.346 . S
O2067 C2051 1.268 . S
O2068 Ho2041 2.378 . S
O2068 C2052 1.215 . S
O2069 Ho2041 2.524 . S
O2069 C2052 1.289 . S
O2070 Ho2041 2.381 . S
O2070 C2059 1.275 . S
O2071 Ho2040 2.305 . S
O2071 Ho2041 2.669 . S
O2071 C2059 1.256 . S
H2072 C2045 0.930 . S
H2073 C2046 0.931 . S
H2074 C2048 0.934 . S
H2075 C2049 0.930 . S
H2076 C2054 0.930 . S
H2077 C2055 0.931 . S
H2078 C2057 0.934 . S
H2079 C2058 0.930 . S
Ho2080 C2083 2.811 . S
Ho2080 O2100 2.322 . S
Ho2080 O2102 2.378 . S
Ho2080 O2103 2.524 . S
Ho2080 O2104 2.381 . S
Ho2080 O2105 2.669 . S
Ho2080 O2107 2.346 . S
Ho2080 O2111 2.305 . S
Ho2081 C2092 2.811 . S
Ho2081 O2101 2.346 . S
Ho2081 O2105 2.305 . S
Ho2081 O2106 2.322 . S
Ho2081 O2108 2.378 . S
Ho2081 O2109 2.524 . S
Ho2081 O2110 2.381 . S
Ho2081 O2111 2.669 . S
C2082 O2100 1.259 . S
C2082 O2101 1.268 . S
C2083 Ho2080 2.811 . S
C2083 C2084 1.488 . S
C2083 O2102 1.215 . S
C2083 O2103 1.289 . S
C2084 C2083 1.488 . S
C2084 C2085 1.348 . S
C2084 C2089 1.413 . S
C2085 C2084 1.348 . S
C2085 C2086 1.442 . S
C2085 H2112 0.930 . S
C2086 C2085 1.442 . S
C2086 C2087 1.381 . S
C2086 H2113 0.931 . S
C2087 C2086 1.381 . S
C2087 C2088 1.321 . S
C2088 C2087 1.321 . S
C2088 C2089 1.403 . S
C2088 H2114 0.934 . S
C2089 C2084 1.413 . S
C2089 C2088 1.403 . S
C2089 H2115 0.930 . S
C2090 O2104 1.275 . S
C2090 O2105 1.256 . S
C2091 O2106 1.259 . S
C2091 O2107 1.268 . S
C2092 Ho2081 2.811 . S
C2092 C2093 1.488 . S
C2092 O2108 1.215 . S
C2092 O2109 1.289 . S
C2093 C2092 1.488 . S
C2093 C2094 1.348 . S
C2093 C2098 1.413 . S
C2094 C2093 1.348 . S
C2094 C2095 1.442 . S
C2094 H2116 0.930 . S
C2095 C2094 1.442 . S
C2095 C2096 1.381 . S
C2095 H2117 0.931 . S
C2096 C2095 1.381 . S
C2096 C2097 1.321 . S
C2097 C2096 1.321 . S
C2097 C2098 1.403 . S
C2097 H2118 0.934 . S
C2098 C2093 1.413 . S
C2098 C2097 1.403 . S
C2098 H2119 0.930 . S
C2099 O2110 1.275 . S
C2099 O2111 1.256 . S
O2100 Ho2080 2.322 . S
O2100 C2082 1.259 . S
O2101 Ho2081 2.346 . S
O2101 C2082 1.268 . S
O2102 Ho2080 2.378 . S
O2102 C2083 1.215 . S
O2103 Ho2080 2.524 . S
O2103 C2083 1.289 . S
O2104 Ho2080 2.381 . S
O2104 C2090 1.275 . S
O2105 Ho2080 2.669 . S
O2105 Ho2081 2.305 . S
O2105 C2090 1.256 . S
O2106 Ho2081 2.322 . S
O2106 C2091 1.259 . S
O2107 Ho2080 2.346 . S
O2107 C2091 1.268 . S
O2108 Ho2081 2.378 . S
O2108 C2092 1.215 . S
O2109 Ho2081 2.524 . S
O2109 C2092 1.289 . S
O2110 Ho2081 2.381 . S
O2110 C2099 1.275 . S
O2111 Ho2080 2.305 . S
O2111 Ho2081 2.669 . S
O2111 C2099 1.256 . S
H2112 C2085 0.930 . S
H2113 C2086 0.931 . S
H2114 C2088 0.934 . S
H2115 C2089 0.930 . S
H2116 C2094 0.930 . S
H2117 C2095 0.931 . S
H2118 C2097 0.934 . S
H2119 C2098 0.930 . S
Ho2120 C2123 2.811 . S
Ho2120 O2140 2.322 . S
Ho2120 O2142 2.378 . S
Ho2120 O2143 2.524 . S
Ho2120 O2144 2.381 . S
Ho2120 O2145 2.669 . S
Ho2120 O2147 2.346 . S
Ho2120 O2151 2.305 . S
Ho2121 C2132 2.811 . S
Ho2121 O2141 2.346 . S
Ho2121 O2145 2.305 . S
Ho2121 O2146 2.322 . S
Ho2121 O2148 2.378 . S
Ho2121 O2149 2.524 . S
Ho2121 O2150 2.381 . S
Ho2121 O2151 2.669 . S
C2122 O2140 1.259 . S
C2122 O2141 1.268 . S
C2123 Ho2120 2.811 . S
C2123 C2124 1.488 . S
C2123 O2142 1.215 . S
C2123 O2143 1.289 . S
C2124 C2123 1.488 . S
C2124 C2125 1.348 . S
C2124 C2129 1.413 . S
C2125 C2124 1.348 . S
C2125 C2126 1.442 . S
C2125 H2152 0.930 . S
C2126 C2125 1.442 . S
C2126 C2127 1.381 . S
C2126 H2153 0.931 . S
C2127 C2126 1.381 . S
C2127 C2128 1.321 . S
C2128 C2127 1.321 . S
C2128 C2129 1.403 . S
C2128 H2154 0.934 . S
C2129 C2124 1.413 . S
C2129 C2128 1.403 . S
C2129 H2155 0.930 . S
C2130 O2144 1.275 . S
C2130 O2145 1.256 . S
C2131 O2146 1.259 . S
C2131 O2147 1.268 . S
C2132 Ho2121 2.811 . S
C2132 C2133 1.488 . S
C2132 O2148 1.215 . S
C2132 O2149 1.289 . S
C2133 C2132 1.488 . S
C2133 C2134 1.348 . S
C2133 C2138 1.413 . S
C2134 C2133 1.348 . S
C2134 C2135 1.442 . S
C2134 H2156 0.930 . S
C2135 C2134 1.442 . S
C2135 C2136 1.381 . S
C2135 H2157 0.931 . S
C2136 C2135 1.381 . S
C2136 C2137 1.321 . S
C2137 C2136 1.321 . S
C2137 C2138 1.403 . S
C2137 H2158 0.934 . S
C2138 C2133 1.413 . S
C2138 C2137 1.403 . S
C2138 H2159 0.930 . S
C2139 O2150 1.275 . S
C2139 O2151 1.256 . S
O2140 Ho2120 2.322 . S
O2140 C2122 1.259 . S
O2141 Ho2121 2.346 . S
O2141 C2122 1.268 . S
O2142 Ho2120 2.378 . S
O2142 C2123 1.215 . S
O2143 Ho2120 2.524 . S
O2143 C2123 1.289 . S
O2144 Ho2120 2.381 . S
O2144 C2130 1.275 . S
O2145 Ho2120 2.669 . S
O2145 Ho2121 2.305 . S
O2145 C2130 1.256 . S
O2146 Ho2121 2.322 . S
O2146 C2131 1.259 . S
O2147 Ho2120 2.346 . S
O2147 C2131 1.268 . S
O2148 Ho2121 2.378 . S
O2148 C2132 1.215 . S
O2149 Ho2121 2.524 . S
O2149 C2132 1.289 . S
O2150 Ho2121 2.381 . S
O2150 C2139 1.275 . S
O2151 Ho2120 2.305 . S
O2151 Ho2121 2.669 . S
O2151 C2139 1.256 . S
H2152 C2125 0.930 . S
H2153 C2126 0.931 . S
H2154 C2128 0.934 . S
H2155 C2129 0.930 . S
H2156 C2134 0.930 . S
H2157 C2135 0.931 . S
H2158 C2137 0.934 . S
H2159 C2138 0.930 . S
Ho2160 C2163 2.811 . S
Ho2160 O2180 2.322 . S
Ho2160 O2182 2.378 . S
Ho2160 O2183 2.524 . S
Ho2160 O2184 2.381 1_455 S
Ho2160 O2185 2.669 1_455 S
Ho2160 O2187 2.346 1_455 S
Ho2160 O2191 2.305 . S
Ho2161 C2172 2.811 . S
Ho2161 O2181 2.346 1_655 S
Ho2161 O2185 2.305 . S
Ho2161 O2186 2.322 . S
Ho2161 O2188 2.378 . S
Ho2161 O2189 2.524 . S
Ho2161 O2190 2.381 1_655 S
Ho2161 O2191 2.669 1_655 S
C2162 O2180 1.259 . S
C2162 O2181 1.268 . S
C2163 Ho2160 2.811 . S
C2163 C2164 1.488 . S
C2163 O2182 1.215 . S
C2163 O2183 1.289 . S
C2164 C2163 1.488 . S
C2164 C2165 1.348 . S
C2164 C2169 1.413 . S
C2165 C2164 1.348 . S
C2165 C2166 1.442 . S
C2165 H2192 0.930 . S
C2166 C2165 1.442 . S
C2166 C2167 1.381 . S
C2166 H2193 0.931 . S
C2167 C2166 1.381 . S
C2167 C2168 1.321 . S
C2168 C2167 1.321 . S
C2168 C2169 1.403 . S
C2168 H2194 0.934 . S
C2169 C2164 1.413 . S
C2169 C2168 1.403 . S
C2169 H2195 0.930 . S
C2170 O2184 1.275 . S
C2170 O2185 1.256 . S
C2171 O2186 1.259 . S
C2171 O2187 1.268 . S
C2172 Ho2161 2.811 . S
C2172 C2173 1.488 . S
C2172 O2188 1.215 . S
C2172 O2189 1.289 . S
C2173 C2172 1.488 . S
C2173 C2174 1.348 . S
C2173 C2178 1.413 . S
C2174 C2173 1.348 . S
C2174 C2175 1.442 . S
C2174 H2196 0.930 . S
C2175 C2174 1.442 . S
C2175 C2176 1.381 . S
C2175 H2197 0.931 . S
C2176 C2175 1.381 . S
C2176 C2177 1.321 . S
C2177 C2176 1.321 . S
C2177 C2178 1.403 . S
C2177 H2198 0.934 . S
C2178 C2173 1.413 . S
C2178 C2177 1.403 . S
C2178 H2199 0.930 . S
C2179 O2190 1.275 . S
C2179 O2191 1.256 . S
O2180 Ho2160 2.322 . S
O2180 C2162 1.259 . S
O2181 Ho2161 2.346 1_455 S
O2181 C2162 1.268 . S
O2182 Ho2160 2.378 . S
O2182 C2163 1.215 . S
O2183 Ho2160 2.524 . S
O2183 C2163 1.289 . S
O2184 Ho2160 2.381 1_655 S
O2184 C2170 1.275 . S
O2185 Ho2160 2.669 1_655 S
O2185 Ho2161 2.305 . S
O2185 C2170 1.256 . S
O2186 Ho2161 2.322 . S
O2186 C2171 1.259 . S
O2187 Ho2160 2.346 1_655 S
O2187 C2171 1.268 . S
O2188 Ho2161 2.378 . S
O2188 C2172 1.215 . S
O2189 Ho2161 2.524 . S
O2189 C2172 1.289 . S
O2190 Ho2161 2.381 1_455 S
O2190 C2179 1.275 . S
O2191 Ho2160 2.305 . S
O2191 Ho2161 2.669 1_455 S
O2191 C2179 1.256 . S
H2192 C2165 0.930 . S
H2193 C2166 0.931 . S
H2194 C2168 0.934 . S
H2195 C2169 0.930 . S
H2196 C2174 0.930 . S
H2197 C2175 0.931 . S
H2198 C2177 0.934 . S
H2199 C2178 0.930 . S
Ho2200 C2203 2.811 . S
Ho2200 O2220 2.322 . S
Ho2200 O2222 2.378 . S
Ho2200 O2223 2.524 . S
Ho2200 O2224 2.381 . S
Ho2200 O2225 2.669 . S
Ho2200 O2227 2.346 . S
Ho2200 O2231 2.305 . S
Ho2201 C2212 2.811 . S
Ho2201 O2221 2.346 . S
Ho2201 O2225 2.305 . S
Ho2201 O2226 2.322 . S
Ho2201 O2228 2.378 . S
Ho2201 O2229 2.524 . S
Ho2201 O2230 2.381 . S
Ho2201 O2231 2.669 . S
C2202 O2220 1.259 . S
C2202 O2221 1.268 . S
C2203 Ho2200 2.811 . S
C2203 C2204 1.488 . S
C2203 O2222 1.215 . S
C2203 O2223 1.289 . S
C2204 C2203 1.488 . S
C2204 C2205 1.348 . S
C2204 C2209 1.413 . S
C2205 C2204 1.348 . S
C2205 C2206 1.442 . S
C2205 H2232 0.930 . S
C2206 C2205 1.442 . S
C2206 C2207 1.381 . S
C2206 H2233 0.931 . S
C2207 C2206 1.381 . S
C2207 C2208 1.321 . S
C2208 C2207 1.321 . S
C2208 C2209 1.403 . S
C2208 H2234 0.934 . S
C2209 C2204 1.413 . S
C2209 C2208 1.403 . S
C2209 H2235 0.930 . S
C2210 O2224 1.275 . S
C2210 O2225 1.256 . S
C2211 O2226 1.259 . S
C2211 O2227 1.268 . S
C2212 Ho2201 2.811 . S
C2212 C2213 1.488 . S
C2212 O2228 1.215 . S
C2212 O2229 1.289 . S
C2213 C2212 1.488 . S
C2213 C2214 1.348 . S
C2213 C2218 1.413 . S
C2214 C2213 1.348 . S
C2214 C2215 1.442 . S
C2214 H2236 0.930 . S
C2215 C2214 1.442 . S
C2215 C2216 1.381 . S
C2215 H2237 0.931 . S
C2216 C2215 1.381 . S
C2216 C2217 1.321 . S
C2217 C2216 1.321 . S
C2217 C2218 1.403 . S
C2217 H2238 0.934 . S
C2218 C2213 1.413 . S
C2218 C2217 1.403 . S
C2218 H2239 0.930 . S
C2219 O2230 1.275 . S
C2219 O2231 1.256 . S
O2220 Ho2200 2.322 . S
O2220 C2202 1.259 . S
O2221 Ho2201 2.346 . S
O2221 C2202 1.268 . S
O2222 Ho2200 2.378 . S
O2222 C2203 1.215 . S
O2223 Ho2200 2.524 . S
O2223 C2203 1.289 . S
O2224 Ho2200 2.381 . S
O2224 C2210 1.275 . S
O2225 Ho2200 2.669 . S
O2225 Ho2201 2.305 . S
O2225 C2210 1.256 . S
O2226 Ho2201 2.322 . S
O2226 C2211 1.259 . S
O2227 Ho2200 2.346 . S
O2227 C2211 1.268 . S
O2228 Ho2201 2.378 . S
O2228 C2212 1.215 . S
O2229 Ho2201 2.524 . S
O2229 C2212 1.289 . S
O2230 Ho2201 2.381 . S
O2230 C2219 1.275 . S
O2231 Ho2200 2.305 . S
O2231 Ho2201 2.669 . S
O2231 C2219 1.256 . S
H2232 C2205 0.930 . S
H2233 C2206 0.931 . S
H2234 C2208 0.934 . S
H2235 C2209 0.930 . S
H2236 C2214 0.930 . S
H2237 C2215 0.931 . S
H2238 C2217 0.934 . S
H2239 C2218 0.930 . S
Ho2240 C2243 2.811 . S
Ho2240 O2260 2.322 . S
Ho2240 O2262 2.378 . S
Ho2240 O2263 2.524 . S
Ho2240 O2264 2.381 . S
Ho2240 O2265 2.669 . S
Ho2240 O2267 2.346 . S
Ho2240 O2271 2.305 . S
Ho2241 C2252 2.811 . S
Ho2241 O2261 2.346 . S
Ho2241 O2265 2.305 . S
Ho2241 O2266 2.322 . S
Ho2241 O2268 2.378 . S
Ho2241 O2269 2.524 . S
Ho2241 O2270 2.381 . S
Ho2241 O2271 2.669 . S
C2242 O2260 1.259 . S
C2242 O2261 1.268 . S
C2243 Ho2240 2.811 . S
C2243 C2244 1.488 . S
C2243 O2262 1.215 . S
C2243 O2263 1.289 . S
C2244 C2243 1.488 . S
C2244 C2245 1.348 . S
C2244 C2249 1.413 . S
C2245 C2244 1.348 . S
C2245 C2246 1.442 . S
C2245 H2272 0.930 . S
C2246 C2245 1.442 . S
C2246 C2247 1.381 . S
C2246 H2273 0.931 . S
C2247 C2246 1.381 . S
C2247 C2248 1.321 . S
C2248 C2247 1.321 . S
C2248 C2249 1.403 . S
C2248 H2274 0.934 . S
C2249 C2244 1.413 . S
C2249 C2248 1.403 . S
C2249 H2275 0.930 . S
C2250 O2264 1.275 . S
C2250 O2265 1.256 . S
C2251 O2266 1.259 . S
C2251 O2267 1.268 . S
C2252 Ho2241 2.811 . S
C2252 C2253 1.488 . S
C2252 O2268 1.215 . S
C2252 O2269 1.289 . S
C2253 C2252 1.488 . S
C2253 C2254 1.348 . S
C2253 C2258 1.413 . S
C2254 C2253 1.348 . S
C2254 C2255 1.442 . S
C2254 H2276 0.930 . S
C2255 C2254 1.442 . S
C2255 C2256 1.381 . S
C2255 H2277 0.931 . S
C2256 C2255 1.381 . S
C2256 C2257 1.321 . S
C2257 C2256 1.321 . S
C2257 C2258 1.403 . S
C2257 H2278 0.934 . S
C2258 C2253 1.413 . S
C2258 C2257 1.403 . S
C2258 H2279 0.930 . S
C2259 O2270 1.275 . S
C2259 O2271 1.256 . S
O2260 Ho2240 2.322 . S
O2260 C2242 1.259 . S
O2261 Ho2241 2.346 . S
O2261 C2242 1.268 . S
O2262 Ho2240 2.378 . S
O2262 C2243 1.215 . S
O2263 Ho2240 2.524 . S
O2263 C2243 1.289 . S
O2264 Ho2240 2.381 . S
O2264 C2250 1.275 . S
O2265 Ho2240 2.669 . S
O2265 Ho2241 2.305 . S
O2265 C2250 1.256 . S
O2266 Ho2241 2.322 . S
O2266 C2251 1.259 . S
O2267 Ho2240 2.346 . S
O2267 C2251 1.268 . S
O2268 Ho2241 2.378 . S
O2268 C2252 1.215 . S
O2269 Ho2241 2.524 . S
O2269 C2252 1.289 . S
O2270 Ho2241 2.381 . S
O2270 C2259 1.275 . S
O2271 Ho2240 2.305 . S
O2271 Ho2241 2.669 . S
O2271 C2259 1.256 . S
H2272 C2245 0.930 . S
H2273 C2246 0.931 . S
H2274 C2248 0.934 . S
H2275 C2249 0.930 . S
H2276 C2254 0.930 . S
H2277 C2255 0.931 . S
H2278 C2257 0.934 . S
H2279 C2258 0.930 . S
Ho2280 C2283 2.811 . S
Ho2280 O2300 2.322 . S
Ho2280 O2302 2.378 . S
Ho2280 O2303 2.524 . S
Ho2280 O2304 2.381 . S
Ho2280 O2305 2.669 . S
Ho2280 O2307 2.346 . S
Ho2280 O2311 2.305 . S
Ho2281 C2292 2.811 . S
Ho2281 O2301 2.346 . S
Ho2281 O2305 2.305 . S
Ho2281 O2306 2.322 . S
Ho2281 O2308 2.378 . S
Ho2281 O2309 2.524 . S
Ho2281 O2310 2.381 . S
Ho2281 O2311 2.669 . S
C2282 O2300 1.259 . S
C2282 O2301 1.268 . S
C2283 Ho2280 2.811 . S
C2283 C2284 1.488 . S
C2283 O2302 1.215 . S
C2283 O2303 1.289 . S
C2284 C2283 1.488 . S
C2284 C2285 1.348 . S
C2284 C2289 1.413 . S
C2285 C2284 1.348 . S
C2285 C2286 1.442 . S
C2285 H2312 0.930 . S
C2286 C2285 1.442 . S
C2286 C2287 1.381 . S
C2286 H2313 0.931 . S
C2287 C2286 1.381 . S
C2287 C2288 1.321 . S
C2288 C2287 1.321 . S
C2288 C2289 1.403 . S
C2288 H2314 0.934 . S
C2289 C2284 1.413 . S
C2289 C2288 1.403 . S
C2289 H2315 0.930 . S
C2290 O2304 1.275 . S
C2290 O2305 1.256 . S
C2291 O2306 1.259 . S
C2291 O2307 1.268 . S
C2292 Ho2281 2.811 . S
C2292 C2293 1.488 . S
C2292 O2308 1.215 . S
C2292 O2309 1.289 . S
C2293 C2292 1.488 . S
C2293 C2294 1.348 . S
C2293 C2298 1.413 . S
C2294 C2293 1.348 . S
C2294 C2295 1.442 . S
C2294 H2316 0.930 . S
C2295 C2294 1.442 . S
C2295 C2296 1.381 . S
C2295 H2317 0.931 . S
C2296 C2295 1.381 . S
C2296 C2297 1.321 . S
C2297 C2296 1.321 . S
C2297 C2298 1.403 . S
C2297 H2318 0.934 . S
C2298 C2293 1.413 . S
C2298 C2297 1.403 . S
C2298 H2319 0.930 . S
C2299 O2310 1.275 . S
C2299 O2311 1.256 . S
O2300 Ho2280 2.322 . S
O2300 C2282 1.259 . S
O2301 Ho2281 2.346 . S
O2301 C2282 1.268 . S
O2302 Ho2280 2.378 . S
O2302 C2283 1.215 . S
O2303 Ho2280 2.524 . S
O2303 C2283 1.289 . S
O2304 Ho2280 2.381 . S
O2304 C2290 1.275 . S
O2305 Ho2280 2.669 . S
O2305 Ho2281 2.305 . S
O2305 C2290 1.256 . S
O2306 Ho2281 2.322 . S
O2306 C2291 1.259 . S
O2307 Ho2280 2.346 . S
O2307 C2291 1.268 . S
O2308 Ho2281 2.378 . S
O2308 C2292 1.215 . S
O2309 Ho2281 2.524 . S
O2309 C2292 1.289 . S
O2310 Ho2281 2.381 . S
O2310 C2299 1.275 . S
O2311 Ho2280 2.305 . S
O2311 Ho2281 2.669 . S
O2311 C2299 1.256 . S
H2312 C2285 0.930 . S
H2313 C2286 0.931 . S
H2314 C2288 0.934 . S
H2315 C2289 0.930 . S
H2316 C2294 0.930 . S
H2317 C2295 0.931 . S
H2318 C2297 0.934 . S
H2319 C2298 0.930 . S
Ho2320 C2323 2.811 . S
Ho2320 O2340 2.322 . S
Ho2320 O2342 2.378 . S
Ho2320 O2343 2.524 . S
Ho2320 O2344 2.381 . S
Ho2320 O2345 2.669 . S
Ho2320 O2347 2.346 . S
Ho2320 O2351 2.305 . S
Ho2321 C2332 2.811 . S
Ho2321 O2341 2.346 . S
Ho2321 O2345 2.305 . S
Ho2321 O2346 2.322 . S
Ho2321 O2348 2.378 . S
Ho2321 O2349 2.524 . S
Ho2321 O2350 2.381 . S
Ho2321 O2351 2.669 . S
C2322 O2340 1.259 . S
C2322 O2341 1.268 . S
C2323 Ho2320 2.811 . S
C2323 C2324 1.488 . S
C2323 O2342 1.215 . S
C2323 O2343 1.289 . S
C2324 C2323 1.488 . S
C2324 C2325 1.348 . S
C2324 C2329 1.413 . S
C2325 C2324 1.348 . S
C2325 C2326 1.442 . S
C2325 H2352 0.930 . S
C2326 C2325 1.442 . S
C2326 C2327 1.381 . S
C2326 H2353 0.931 . S
C2327 C2326 1.381 . S
C2327 C2328 1.321 . S
C2328 C2327 1.321 . S
C2328 C2329 1.403 . S
C2328 H2354 0.934 . S
C2329 C2324 1.413 . S
C2329 C2328 1.403 . S
C2329 H2355 0.930 . S
C2330 O2344 1.275 . S
C2330 O2345 1.256 . S
C2331 O2346 1.259 . S
C2331 O2347 1.268 . S
C2332 Ho2321 2.811 . S
C2332 C2333 1.488 . S
C2332 O2348 1.215 . S
C2332 O2349 1.289 . S
C2333 C2332 1.488 . S
C2333 C2334 1.348 . S
C2333 C2338 1.413 . S
C2334 C2333 1.348 . S
C2334 C2335 1.442 . S
C2334 H2356 0.930 . S
C2335 C2334 1.442 . S
C2335 C2336 1.381 . S
C2335 H2357 0.931 . S
C2336 C2335 1.381 . S
C2336 C2337 1.321 . S
C2337 C2336 1.321 . S
C2337 C2338 1.403 . S
C2337 H2358 0.934 . S
C2338 C2333 1.413 . S
C2338 C2337 1.403 . S
C2338 H2359 0.930 . S
C2339 O2350 1.275 . S
C2339 O2351 1.256 . S
O2340 Ho2320 2.322 . S
O2340 C2322 1.259 . S
O2341 Ho2321 2.346 . S
O2341 C2322 1.268 . S
O2342 Ho2320 2.378 . S
O2342 C2323 1.215 . S
O2343 Ho2320 2.524 . S
O2343 C2323 1.289 . S
O2344 Ho2320 2.381 . S
O2344 C2330 1.275 . S
O2345 Ho2320 2.669 . S
O2345 Ho2321 2.305 . S
O2345 C2330 1.256 . S
O2346 Ho2321 2.322 . S
O2346 C2331 1.259 . S
O2347 Ho2320 2.346 . S
O2347 C2331 1.268 . S
O2348 Ho2321 2.378 . S
O2348 C2332 1.215 . S
O2349 Ho2321 2.524 . S
O2349 C2332 1.289 . S
O2350 Ho2321 2.381 . S
O2350 C2339 1.275 . S
O2351 Ho2320 2.305 . S
O2351 Ho2321 2.669 . S
O2351 C2339 1.256 . S
H2352 C2325 0.930 . S
H2353 C2326 0.931 . S
H2354 C2328 0.934 . S
H2355 C2329 0.930 . S
H2356 C2334 0.930 . S
H2357 C2335 0.931 . S
H2358 C2337 0.934 . S
H2359 C2338 0.930 . S
Ho2360 C2363 2.811 . S
Ho2360 O2380 2.322 . S
Ho2360 O2382 2.378 . S
Ho2360 O2383 2.524 . S
Ho2360 O2384 2.381 . S
Ho2360 O2385 2.669 . S
Ho2360 O2387 2.346 . S
Ho2360 O2391 2.305 . S
Ho2361 C2372 2.811 . S
Ho2361 O2381 2.346 . S
Ho2361 O2385 2.305 . S
Ho2361 O2386 2.322 . S
Ho2361 O2388 2.378 . S
Ho2361 O2389 2.524 . S
Ho2361 O2390 2.381 . S
Ho2361 O2391 2.669 . S
C2362 O2380 1.259 . S
C2362 O2381 1.268 . S
C2363 Ho2360 2.811 . S
C2363 C2364 1.488 . S
C2363 O2382 1.215 . S
C2363 O2383 1.289 . S
C2364 C2363 1.488 . S
C2364 C2365 1.348 . S
C2364 C2369 1.413 . S
C2365 C2364 1.348 . S
C2365 C2366 1.442 . S
C2365 H2392 0.930 . S
C2366 C2365 1.442 . S
C2366 C2367 1.381 . S
C2366 H2393 0.931 . S
C2367 C2366 1.381 . S
C2367 C2368 1.321 . S
C2368 C2367 1.321 . S
C2368 C2369 1.403 . S
C2368 H2394 0.934 . S
C2369 C2364 1.413 . S
C2369 C2368 1.403 . S
C2369 H2395 0.930 . S
C2370 O2384 1.275 . S
C2370 O2385 1.256 . S
C2371 O2386 1.259 . S
C2371 O2387 1.268 . S
C2372 Ho2361 2.811 . S
C2372 C2373 1.488 . S
C2372 O2388 1.215 . S
C2372 O2389 1.289 . S
C2373 C2372 1.488 . S
C2373 C2374 1.348 . S
C2373 C2378 1.413 . S
C2374 C2373 1.348 . S
C2374 C2375 1.442 . S
C2374 H2396 0.930 . S
C2375 C2374 1.442 . S
C2375 C2376 1.381 . S
C2375 H2397 0.931 . S
C2376 C2375 1.381 . S
C2376 C2377 1.321 . S
C2377 C2376 1.321 . S
C2377 C2378 1.403 . S
C2377 H2398 0.934 . S
C2378 C2373 1.413 . S
C2378 C2377 1.403 . S
C2378 H2399 0.930 . S
C2379 O2390 1.275 . S
C2379 O2391 1.256 . S
O2380 Ho2360 2.322 . S
O2380 C2362 1.259 . S
O2381 Ho2361 2.346 . S
O2381 C2362 1.268 . S
O2382 Ho2360 2.378 . S
O2382 C2363 1.215 . S
O2383 Ho2360 2.524 . S
O2383 C2363 1.289 . S
O2384 Ho2360 2.381 . S
O2384 C2370 1.275 . S
O2385 Ho2360 2.669 . S
O2385 Ho2361 2.305 . S
O2385 C2370 1.256 . S
O2386 Ho2361 2.322 . S
O2386 C2371 1.259 . S
O2387 Ho2360 2.346 . S
O2387 C2371 1.268 . S
O2388 Ho2361 2.378 . S
O2388 C2372 1.215 . S
O2389 Ho2361 2.524 . S
O2389 C2372 1.289 . S
O2390 Ho2361 2.381 . S
O2390 C2379 1.275 . S
O2391 Ho2360 2.305 . S
O2391 Ho2361 2.669 . S
O2391 C2379 1.256 . S
H2392 C2365 0.930 . S
H2393 C2366 0.931 . S
H2394 C2368 0.934 . S
H2395 C2369 0.930 . S
H2396 C2374 0.930 . S
H2397 C2375 0.931 . S
H2398 C2377 0.934 . S
H2399 C2378 0.930 . S
Ho2400 C2403 2.811 . S
Ho2400 O2420 2.322 . S
Ho2400 O2422 2.378 . S
Ho2400 O2423 2.524 . S
Ho2400 O2424 2.381 . S
Ho2400 O2425 2.669 . S
Ho2400 O2427 2.346 . S
Ho2400 O2431 2.305 . S
Ho2401 C2412 2.811 . S
Ho2401 O2421 2.346 . S
Ho2401 O2425 2.305 . S
Ho2401 O2426 2.322 . S
Ho2401 O2428 2.378 . S
Ho2401 O2429 2.524 . S
Ho2401 O2430 2.381 . S
Ho2401 O2431 2.669 . S
C2402 O2420 1.259 . S
C2402 O2421 1.268 . S
C2403 Ho2400 2.811 . S
C2403 C2404 1.488 . S
C2403 O2422 1.215 . S
C2403 O2423 1.289 . S
C2404 C2403 1.488 . S
C2404 C2405 1.348 . S
C2404 C2409 1.413 . S
C2405 C2404 1.348 . S
C2405 C2406 1.442 . S
C2405 H2432 0.930 . S
C2406 C2405 1.442 . S
C2406 C2407 1.381 . S
C2406 H2433 0.931 . S
C2407 C2406 1.381 . S
C2407 C2408 1.321 . S
C2408 C2407 1.321 . S
C2408 C2409 1.403 . S
C2408 H2434 0.934 . S
C2409 C2404 1.413 . S
C2409 C2408 1.403 . S
C2409 H2435 0.930 . S
C2410 O2424 1.275 . S
C2410 O2425 1.256 . S
C2411 O2426 1.259 . S
C2411 O2427 1.268 . S
C2412 Ho2401 2.811 . S
C2412 C2413 1.488 . S
C2412 O2428 1.215 . S
C2412 O2429 1.289 . S
C2413 C2412 1.488 . S
C2413 C2414 1.348 . S
C2413 C2418 1.413 . S
C2414 C2413 1.348 . S
C2414 C2415 1.442 . S
C2414 H2436 0.930 . S
C2415 C2414 1.442 . S
C2415 C2416 1.381 . S
C2415 H2437 0.931 . S
C2416 C2415 1.381 . S
C2416 C2417 1.321 . S
C2417 C2416 1.321 . S
C2417 C2418 1.403 . S
C2417 H2438 0.934 . S
C2418 C2413 1.413 . S
C2418 C2417 1.403 . S
C2418 H2439 0.930 . S
C2419 O2430 1.275 . S
C2419 O2431 1.256 . S
O2420 Ho2400 2.322 . S
O2420 C2402 1.259 . S
O2421 Ho2401 2.346 . S
O2421 C2402 1.268 . S
O2422 Ho2400 2.378 . S
O2422 C2403 1.215 . S
O2423 Ho2400 2.524 . S
O2423 C2403 1.289 . S
O2424 Ho2400 2.381 . S
O2424 C2410 1.275 . S
O2425 Ho2400 2.669 . S
O2425 Ho2401 2.305 . S
O2425 C2410 1.256 . S
O2426 Ho2401 2.322 . S
O2426 C2411 1.259 . S
O2427 Ho2400 2.346 . S
O2427 C2411 1.268 . S
O2428 Ho2401 2.378 . S
O2428 C2412 1.215 . S
O2429 Ho2401 2.524 . S
O2429 C2412 1.289 . S
O2430 Ho2401 2.381 . S
O2430 C2419 1.275 . S
O2431 Ho2400 2.305 . S
O2431 Ho2401 2.669 . S
O2431 C2419 1.256 . S
H2432 C2405 0.930 . S
H2433 C2406 0.931 . S
H2434 C2408 0.934 . S
H2435 C2409 0.930 . S
H2436 C2414 0.930 . S
H2437 C2415 0.931 . S
H2438 C2417 0.934 . S
H2439 C2418 0.930 . S
Ho2440 C2443 2.811 . S
Ho2440 O2460 2.322 . S
Ho2440 O2462 2.378 . S
Ho2440 O2463 2.524 . S
Ho2440 O2464 2.381 . S
Ho2440 O2465 2.669 . S
Ho2440 O2467 2.346 . S
Ho2440 O2471 2.305 . S
Ho2441 C2452 2.811 . S
Ho2441 O2461 2.346 . S
Ho2441 O2465 2.305 . S
Ho2441 O2466 2.322 . S
Ho2441 O2468 2.378 . S
Ho2441 O2469 2.524 . S
Ho2441 O2470 2.381 . S
Ho2441 O2471 2.669 . S
C2442 O2460 1.259 . S
C2442 O2461 1.268 . S
C2443 Ho2440 2.811 . S
C2443 C2444 1.488 . S
C2443 O2462 1.215 . S
C2443 O2463 1.289 . S
C2444 C2443 1.488 . S
C2444 C2445 1.348 . S
C2444 C2449 1.413 . S
C2445 C2444 1.348 . S
C2445 C2446 1.442 . S
C2445 H2472 0.930 . S
C2446 C2445 1.442 . S
C2446 C2447 1.381 . S
C2446 H2473 0.931 . S
C2447 C2446 1.381 . S
C2447 C2448 1.321 . S
C2448 C2447 1.321 . S
C2448 C2449 1.403 . S
C2448 H2474 0.934 . S
C2449 C2444 1.413 . S
C2449 C2448 1.403 . S
C2449 H2475 0.930 . S
C2450 O2464 1.275 . S
C2450 O2465 1.256 . S
C2451 O2466 1.259 . S
C2451 O2467 1.268 . S
C2452 Ho2441 2.811 . S
C2452 C2453 1.488 . S
C2452 O2468 1.215 . S
C2452 O2469 1.289 . S
C2453 C2452 1.488 . S
C2453 C2454 1.348 . S
C2453 C2458 1.413 . S
C2454 C2453 1.348 . S
C2454 C2455 1.442 . S
C2454 H2476 0.930 . S
C2455 C2454 1.442 . S
C2455 C2456 1.381 . S
C2455 H2477 0.931 . S
C2456 C2455 1.381 . S
C2456 C2457 1.321 . S
C2457 C2456 1.321 . S
C2457 C2458 1.403 . S
C2457 H2478 0.934 . S
C2458 C2453 1.413 . S
C2458 C2457 1.403 . S
C2458 H2479 0.930 . S
C2459 O2470 1.275 . S
C2459 O2471 1.256 . S
O2460 Ho2440 2.322 . S
O2460 C2442 1.259 . S
O2461 Ho2441 2.346 . S
O2461 C2442 1.268 . S
O2462 Ho2440 2.378 . S
O2462 C2443 1.215 . S
O2463 Ho2440 2.524 . S
O2463 C2443 1.289 . S
O2464 Ho2440 2.381 . S
O2464 C2450 1.275 . S
O2465 Ho2440 2.669 . S
O2465 Ho2441 2.305 . S
O2465 C2450 1.256 . S
O2466 Ho2441 2.322 . S
O2466 C2451 1.259 . S
O2467 Ho2440 2.346 . S
O2467 C2451 1.268 . S
O2468 Ho2441 2.378 . S
O2468 C2452 1.215 . S
O2469 Ho2441 2.524 . S
O2469 C2452 1.289 . S
O2470 Ho2441 2.381 . S
O2470 C2459 1.275 . S
O2471 Ho2440 2.305 . S
O2471 Ho2441 2.669 . S
O2471 C2459 1.256 . S
H2472 C2445 0.930 . S
H2473 C2446 0.931 . S
H2474 C2448 0.934 . S
H2475 C2449 0.930 . S
H2476 C2454 0.930 . S
H2477 C2455 0.931 . S
H2478 C2457 0.934 . S
H2479 C2458 0.930 . S
Ho2480 C2483 2.811 . S
Ho2480 O2500 2.322 . S
Ho2480 O2502 2.378 . S
Ho2480 O2503 2.524 . S
Ho2480 O2504 2.381 . S
Ho2480 O2505 2.669 . S
Ho2480 O2507 2.346 . S
Ho2480 O2511 2.305 . S
Ho2481 C2492 2.811 . S
Ho2481 O2501 2.346 . S
Ho2481 O2505 2.305 . S
Ho2481 O2506 2.322 . S
Ho2481 O2508 2.378 . S
Ho2481 O2509 2.524 . S
Ho2481 O2510 2.381 . S
Ho2481 O2511 2.669 . S
C2482 O2500 1.259 . S
C2482 O2501 1.268 . S
C2483 Ho2480 2.811 . S
C2483 C2484 1.488 . S
C2483 O2502 1.215 . S
C2483 O2503 1.289 . S
C2484 C2483 1.488 . S
C2484 C2485 1.348 . S
C2484 C2489 1.413 . S
C2485 C2484 1.348 . S
C2485 C2486 1.442 . S
C2485 H2512 0.930 . S
C2486 C2485 1.442 . S
C2486 C2487 1.381 . S
C2486 H2513 0.931 . S
C2487 C2486 1.381 . S
C2487 C2488 1.321 . S
C2488 C2487 1.321 . S
C2488 C2489 1.403 . S
C2488 H2514 0.934 . S
C2489 C2484 1.413 . S
C2489 C2488 1.403 . S
C2489 H2515 0.930 . S
C2490 O2504 1.275 . S
C2490 O2505 1.256 . S
C2491 O2506 1.259 . S
C2491 O2507 1.268 . S
C2492 Ho2481 2.811 . S
C2492 C2493 1.488 . S
C2492 O2508 1.215 . S
C2492 O2509 1.289 . S
C2493 C2492 1.488 . S
C2493 C2494 1.348 . S
C2493 C2498 1.413 . S
C2494 C2493 1.348 . S
C2494 C2495 1.442 . S
C2494 H2516 0.930 . S
C2495 C2494 1.442 . S
C2495 C2496 1.381 . S
C2495 H2517 0.931 . S
C2496 C2495 1.381 . S
C2496 C2497 1.321 . S
C2497 C2496 1.321 . S
C2497 C2498 1.403 . S
C2497 H2518 0.934 . S
C2498 C2493 1.413 . S
C2498 C2497 1.403 . S
C2498 H2519 0.930 . S
C2499 O2510 1.275 . S
C2499 O2511 1.256 . S
O2500 Ho2480 2.322 . S
O2500 C2482 1.259 . S
O2501 Ho2481 2.346 . S
O2501 C2482 1.268 . S
O2502 Ho2480 2.378 . S
O2502 C2483 1.215 . S
O2503 Ho2480 2.524 . S
O2503 C2483 1.289 . S
O2504 Ho2480 2.381 . S
O2504 C2490 1.275 . S
O2505 Ho2480 2.669 . S
O2505 Ho2481 2.305 . S
O2505 C2490 1.256 . S
O2506 Ho2481 2.322 . S
O2506 C2491 1.259 . S
O2507 Ho2480 2.346 . S
O2507 C2491 1.268 . S
O2508 Ho2481 2.378 . S
O2508 C2492 1.215 . S
O2509 Ho2481 2.524 . S
O2509 C2492 1.289 . S
O2510 Ho2481 2.381 . S
O2510 C2499 1.275 . S
O2511 Ho2480 2.305 . S
O2511 Ho2481 2.669 . S
O2511 C2499 1.256 . S
H2512 C2485 0.930 . S
H2513 C2486 0.931 . S
H2514 C2488 0.934 . S
H2515 C2489 0.930 . S
H2516 C2494 0.930 . S
H2517 C2495 0.931 . S
H2518 C2497 0.934 . S
H2519 C2498 0.930 . S
Ho2520 C2523 2.811 . S
Ho2520 O2540 2.322 . S
Ho2520 O2542 2.378 . S
Ho2520 O2543 2.524 . S
Ho2520 O2544 2.381 . S
Ho2520 O2545 2.669 . S
Ho2520 O2547 2.346 . S
Ho2520 O2551 2.305 . S
Ho2521 C2532 2.811 . S
Ho2521 O2541 2.346 . S
Ho2521 O2545 2.305 . S
Ho2521 O2546 2.322 . S
Ho2521 O2548 2.378 . S
Ho2521 O2549 2.524 . S
Ho2521 O2550 2.381 . S
Ho2521 O2551 2.669 . S
C2522 O2540 1.259 . S
C2522 O2541 1.268 . S
C2523 Ho2520 2.811 . S
C2523 C2524 1.488 . S
C2523 O2542 1.215 . S
C2523 O2543 1.289 . S
C2524 C2523 1.488 . S
C2524 C2525 1.348 . S
C2524 C2529 1.413 . S
C2525 C2524 1.348 . S
C2525 C2526 1.442 . S
C2525 H2552 0.930 . S
C2526 C2525 1.442 . S
C2526 C2527 1.381 . S
C2526 H2553 0.931 . S
C2527 C2526 1.381 . S
C2527 C2528 1.321 . S
C2528 C2527 1.321 . S
C2528 C2529 1.403 . S
C2528 H2554 0.934 . S
C2529 C2524 1.413 . S
C2529 C2528 1.403 . S
C2529 H2555 0.930 . S
C2530 O2544 1.275 . S
C2530 O2545 1.256 . S
C2531 O2546 1.259 . S
C2531 O2547 1.268 . S
C2532 Ho2521 2.811 . S
C2532 C2533 1.488 . S
C2532 O2548 1.215 . S
C2532 O2549 1.289 . S
C2533 C2532 1.488 . S
C2533 C2534 1.348 . S
C2533 C2538 1.413 . S
C2534 C2533 1.348 . S
C2534 C2535 1.442 . S
C2534 H2556 0.930 . S
C2535 C2534 1.442 . S
C2535 C2536 1.381 . S
C2535 H2557 0.931 . S
C2536 C2535 1.381 . S
C2536 C2537 1.321 . S
C2537 C2536 1.321 . S
C2537 C2538 1.403 . S
C2537 H2558 0.934 . S
C2538 C2533 1.413 . S
C2538 C2537 1.403 . S
C2538 H2559 0.930 . S
C2539 O2550 1.275 . S
C2539 O2551 1.256 . S
O2540 Ho2520 2.322 . S
O2540 C2522 1.259 . S
O2541 Ho2521 2.346 . S
O2541 C2522 1.268 . S
O2542 Ho2520 2.378 . S
O2542 C2523 1.215 . S
O2543 Ho2520 2.524 . S
O2543 C2523 1.289 . S
O2544 Ho2520 2.381 . S
O2544 C2530 1.275 . S
O2545 Ho2520 2.669 . S
O2545 Ho2521 2.305 . S
O2545 C2530 1.256 . S
O2546 Ho2521 2.322 . S
O2546 C2531 1.259 . S
O2547 Ho2520 2.346 . S
O2547 C2531 1.268 . S
O2548 Ho2521 2.378 . S
O2548 C2532 1.215 . S
O2549 Ho2521 2.524 . S
O2549 C2532 1.289 . S
O2550 Ho2521 2.381 . S
O2550 C2539 1.275 . S
O2551 Ho2520 2.305 . S
O2551 Ho2521 2.669 . S
O2551 C2539 1.256 . S
H2552 C2525 0.930 . S
H2553 C2526 0.931 . S
H2554 C2528 0.934 . S
H2555 C2529 0.930 . S
H2556 C2534 0.930 . S
H2557 C2535 0.931 . S
H2558 C2537 0.934 . S
H2559 C2538 0.930 . S
Ho2560 C2563 2.811 . S
Ho2560 O2580 2.322 . S
Ho2560 O2582 2.378 . S
Ho2560 O2583 2.524 . S
Ho2560 O2584 2.381 . S
Ho2560 O2585 2.669 . S
Ho2560 O2587 2.346 . S
Ho2560 O2591 2.305 . S
Ho2561 C2572 2.811 . S
Ho2561 O2581 2.346 . S
Ho2561 O2585 2.305 . S
Ho2561 O2586 2.322 . S
Ho2561 O2588 2.378 . S
Ho2561 O2589 2.524 . S
Ho2561 O2590 2.381 . S
Ho2561 O2591 2.669 . S
C2562 O2580 1.259 . S
C2562 O2581 1.268 . S
C2563 Ho2560 2.811 . S
C2563 C2564 1.488 . S
C2563 O2582 1.215 . S
C2563 O2583 1.289 . S
C2564 C2563 1.488 . S
C2564 C2565 1.348 . S
C2564 C2569 1.413 . S
C2565 C2564 1.348 . S
C2565 C2566 1.442 . S
C2565 H2592 0.930 . S
C2566 C2565 1.442 . S
C2566 C2567 1.381 . S
C2566 H2593 0.931 . S
C2567 C2566 1.381 . S
C2567 C2568 1.321 . S
C2568 C2567 1.321 . S
C2568 C2569 1.403 . S
C2568 H2594 0.934 . S
C2569 C2564 1.413 . S
C2569 C2568 1.403 . S
C2569 H2595 0.930 . S
C2570 O2584 1.275 . S
C2570 O2585 1.256 . S
C2571 O2586 1.259 . S
C2571 O2587 1.268 . S
C2572 Ho2561 2.811 . S
C2572 C2573 1.488 . S
C2572 O2588 1.215 . S
C2572 O2589 1.289 . S
C2573 C2572 1.488 . S
C2573 C2574 1.348 . S
C2573 C2578 1.413 . S
C2574 C2573 1.348 . S
C2574 C2575 1.442 . S
C2574 H2596 0.930 . S
C2575 C2574 1.442 . S
C2575 C2576 1.381 . S
C2575 H2597 0.931 . S
C2576 C2575 1.381 . S
C2576 C2577 1.321 . S
C2577 C2576 1.321 . S
C2577 C2578 1.403 . S
C2577 H2598 0.934 . S
C2578 C2573 1.413 . S
C2578 C2577 1.403 . S
C2578 H2599 0.930 . S
C2579 O2590 1.275 . S
C2579 O2591 1.256 . S
O2580 Ho2560 2.322 . S
O2580 C2562 1.259 . S
O2581 Ho2561 2.346 . S
O2581 C2562 1.268 . S
O2582 Ho2560 2.378 . S
O2582 C2563 1.215 . S
O2583 Ho2560 2.524 . S
O2583 C2563 1.289 . S
O2584 Ho2560 2.381 . S
O2584 C2570 1.275 . S
O2585 Ho2560 2.669 . S
O2585 Ho2561 2.305 . S
O2585 C2570 1.256 . S
O2586 Ho2561 2.322 . S
O2586 C2571 1.259 . S
O2587 Ho2560 2.346 . S
O2587 C2571 1.268 . S
O2588 Ho2561 2.378 . S
O2588 C2572 1.215 . S
O2589 Ho2561 2.524 . S
O2589 C2572 1.289 . S
O2590 Ho2561 2.381 . S
O2590 C2579 1.275 . S
O2591 Ho2560 2.305 . S
O2591 Ho2561 2.669 . S
O2591 C2579 1.256 . S
H2592 C2565 0.930 . S
H2593 C2566 0.931 . S
H2594 C2568 0.934 . S
H2595 C2569 0.930 . S
H2596 C2574 0.930 . S
H2597 C2575 0.931 . S
H2598 C2577 0.934 . S
H2599 C2578 0.930 . S
Ho2600 C2603 2.811 . S
Ho2600 O2620 2.322 . S
Ho2600 O2622 2.378 . S
Ho2600 O2623 2.524 . S
Ho2600 O2624 2.381 . S
Ho2600 O2625 2.669 . S
Ho2600 O2627 2.346 . S
Ho2600 O2631 2.305 . S
Ho2601 C2612 2.811 . S
Ho2601 O2621 2.346 . S
Ho2601 O2625 2.305 . S
Ho2601 O2626 2.322 . S
Ho2601 O2628 2.378 . S
Ho2601 O2629 2.524 . S
Ho2601 O2630 2.381 . S
Ho2601 O2631 2.669 . S
C2602 O2620 1.259 . S
C2602 O2621 1.268 . S
C2603 Ho2600 2.811 . S
C2603 C2604 1.488 . S
C2603 O2622 1.215 . S
C2603 O2623 1.289 . S
C2604 C2603 1.488 . S
C2604 C2605 1.348 . S
C2604 C2609 1.413 . S
C2605 C2604 1.348 . S
C2605 C2606 1.442 . S
C2605 H2632 0.930 . S
C2606 C2605 1.442 . S
C2606 C2607 1.381 . S
C2606 H2633 0.931 . S
C2607 C2606 1.381 . S
C2607 C2608 1.321 . S
C2608 C2607 1.321 . S
C2608 C2609 1.403 . S
C2608 H2634 0.934 . S
C2609 C2604 1.413 . S
C2609 C2608 1.403 . S
C2609 H2635 0.930 . S
C2610 O2624 1.275 . S
C2610 O2625 1.256 . S
C2611 O2626 1.259 . S
C2611 O2627 1.268 . S
C2612 Ho2601 2.811 . S
C2612 C2613 1.488 . S
C2612 O2628 1.215 . S
C2612 O2629 1.289 . S
C2613 C2612 1.488 . S
C2613 C2614 1.348 . S
C2613 C2618 1.413 . S
C2614 C2613 1.348 . S
C2614 C2615 1.442 . S
C2614 H2636 0.930 . S
C2615 C2614 1.442 . S
C2615 C2616 1.381 . S
C2615 H2637 0.931 . S
C2616 C2615 1.381 . S
C2616 C2617 1.321 . S
C2617 C2616 1.321 . S
C2617 C2618 1.403 . S
C2617 H2638 0.934 . S
C2618 C2613 1.413 . S
C2618 C2617 1.403 . S
C2618 H2639 0.930 . S
C2619 O2630 1.275 . S
C2619 O2631 1.256 . S
O2620 Ho2600 2.322 . S
O2620 C2602 1.259 . S
O2621 Ho2601 2.346 . S
O2621 C2602 1.268 . S
O2622 Ho2600 2.378 . S
O2622 C2603 1.215 . S
O2623 Ho2600 2.524 . S
O2623 C2603 1.289 . S
O2624 Ho2600 2.381 . S
O2624 C2610 1.275 . S
O2625 Ho2600 2.669 . S
O2625 Ho2601 2.305 . S
O2625 C2610 1.256 . S
O2626 Ho2601 2.322 . S
O2626 C2611 1.259 . S
O2627 Ho2600 2.346 . S
O2627 C2611 1.268 . S
O2628 Ho2601 2.378 . S
O2628 C2612 1.215 . S
O2629 Ho2601 2.524 . S
O2629 C2612 1.289 . S
O2630 Ho2601 2.381 . S
O2630 C2619 1.275 . S
O2631 Ho2600 2.305 . S
O2631 Ho2601 2.669 . S
O2631 C2619 1.256 . S
H2632 C2605 0.930 . S
H2633 C2606 0.931 . S
H2634 C2608 0.934 . S
H2635 C2609 0.930 . S
H2636 C2614 0.930 . S
H2637 C2615 0.931 . S
H2638 C2617 0.934 . S
H2639 C2618 0.930 . S
Ho2640 C2643 2.811 . S
Ho2640 O2660 2.322 . S
Ho2640 O2662 2.378 . S
Ho2640 O2663 2.524 . S
Ho2640 O2664 2.381 . S
Ho2640 O2665 2.669 . S
Ho2640 O2667 2.346 . S
Ho2640 O2671 2.305 . S
Ho2641 C2652 2.811 . S
Ho2641 O2661 2.346 . S
Ho2641 O2665 2.305 . S
Ho2641 O2666 2.322 . S
Ho2641 O2668 2.378 . S
Ho2641 O2669 2.524 . S
Ho2641 O2670 2.381 . S
Ho2641 O2671 2.669 . S
C2642 O2660 1.259 . S
C2642 O2661 1.268 . S
C2643 Ho2640 2.811 . S
C2643 C2644 1.488 . S
C2643 O2662 1.215 . S
C2643 O2663 1.289 . S
C2644 C2643 1.488 . S
C2644 C2645 1.348 . S
C2644 C2649 1.413 . S
C2645 C2644 1.348 . S
C2645 C2646 1.442 . S
C2645 H2672 0.930 . S
C2646 C2645 1.442 . S
C2646 C2647 1.381 . S
C2646 H2673 0.931 . S
C2647 C2646 1.381 . S
C2647 C2648 1.321 . S
C2648 C2647 1.321 . S
C2648 C2649 1.403 . S
C2648 H2674 0.934 . S
C2649 C2644 1.413 . S
C2649 C2648 1.403 . S
C2649 H2675 0.930 . S
C2650 O2664 1.275 . S
C2650 O2665 1.256 . S
C2651 O2666 1.259 . S
C2651 O2667 1.268 . S
C2652 Ho2641 2.811 . S
C2652 C2653 1.488 . S
C2652 O2668 1.215 . S
C2652 O2669 1.289 . S
C2653 C2652 1.488 . S
C2653 C2654 1.348 . S
C2653 C2658 1.413 . S
C2654 C2653 1.348 . S
C2654 C2655 1.442 . S
C2654 H2676 0.930 . S
C2655 C2654 1.442 . S
C2655 C2656 1.381 . S
C2655 H2677 0.931 . S
C2656 C2655 1.381 . S
C2656 C2657 1.321 . S
C2657 C2656 1.321 . S
C2657 C2658 1.403 . S
C2657 H2678 0.934 . S
C2658 C2653 1.413 . S
C2658 C2657 1.403 . S
C2658 H2679 0.930 . S
C2659 O2670 1.275 . S
C2659 O2671 1.256 . S
O2660 Ho2640 2.322 . S
O2660 C2642 1.259 . S
O2661 Ho2641 2.346 . S
O2661 C2642 1.268 . S
O2662 Ho2640 2.378 . S
O2662 C2643 1.215 . S
O2663 Ho2640 2.524 . S
O2663 C2643 1.289 . S
O2664 Ho2640 2.381 . S
O2664 C2650 1.275 . S
O2665 Ho2640 2.669 . S
O2665 Ho2641 2.305 . S
O2665 C2650 1.256 . S
O2666 Ho2641 2.322 . S
O2666 C2651 1.259 . S
O2667 Ho2640 2.346 . S
O2667 C2651 1.268 . S
O2668 Ho2641 2.378 . S
O2668 C2652 1.215 . S
O2669 Ho2641 2.524 . S
O2669 C2652 1.289 . S
O2670 Ho2641 2.381 . S
O2670 C2659 1.275 . S
O2671 Ho2640 2.305 . S
O2671 Ho2641 2.669 . S
O2671 C2659 1.256 . S
H2672 C2645 0.930 . S
H2673 C2646 0.931 . S
H2674 C2648 0.934 . S
H2675 C2649 0.930 . S
H2676 C2654 0.930 . S
H2677 C2655 0.931 . S
H2678 C2657 0.934 . S
H2679 C2658 0.930 . S
Ho2680 C2683 2.811 . S
Ho2680 O2700 2.322 . S
Ho2680 O2702 2.378 . S
Ho2680 O2703 2.524 . S
Ho2680 O2704 2.377 1_556 S
Ho2680 O2705 2.669 1_556 S
Ho2680 O2707 2.346 1_556 S
Ho2680 O2711 2.305 . S
Ho2681 C2692 2.811 . S
Ho2681 O2701 2.346 1_554 S
Ho2681 O2705 2.305 . S
Ho2681 O2706 2.322 . S
Ho2681 O2708 2.378 . S
Ho2681 O2709 2.524 . S
Ho2681 O2710 2.381 1_554 S
Ho2681 O2711 2.669 1_554 S
C2682 O2700 1.259 . S
C2682 O2701 1.268 . S
C2683 Ho2680 2.811 . S
C2683 C2684 1.488 . S
C2683 O2702 1.215 . S
C2683 O2703 1.289 . S
C2684 C2683 1.488 . S
C2684 C2685 1.348 . S
C2684 C2689 1.413 . S
C2685 C2684 1.348 . S
C2685 C2686 1.442 . S
C2685 H2712 0.930 . S
C2686 C2685 1.442 . S
C2686 C2687 1.381 . S
C2686 H2713 0.931 . S
C2687 C2686 1.381 . S
C2687 C2688 1.321 . S
C2688 C2687 1.321 . S
C2688 C2689 1.403 . S
C2688 H2714 0.934 . S
C2689 C2684 1.413 . S
C2689 C2688 1.403 . S
C2689 H2715 0.930 . S
C2690 O2704 1.280 . S
C2690 O2705 1.256 . S
C2691 O2706 1.259 . S
C2691 O2707 1.268 . S
C2692 Ho2681 2.811 . S
C2692 C2693 1.488 . S
C2692 O2708 1.215 . S
C2692 O2709 1.289 . S
C2693 C2692 1.488 . S
C2693 C2694 1.348 . S
C2693 C2698 1.413 . S
C2694 C2693 1.348 . S
C2694 C2695 1.442 . S
C2694 H2716 0.930 . S
C2695 C2694 1.442 . S
C2695 C2696 1.381 . S
C2695 H2717 0.931 . S
C2696 C2695 1.381 . S
C2696 C2697 1.321 . S
C2697 C2696 1.321 . S
C2697 C2698 1.403 . S
C2697 H2718 0.934 . S
C2698 C2693 1.413 . S
C2698 C2697 1.403 . S
C2698 H2719 0.930 . S
C2699 O2710 1.275 . S
C2699 O2711 1.256 . S
O2700 Ho2680 2.322 . S
O2700 C2682 1.259 . S
O2701 Ho2681 2.346 1_556 S
O2701 C2682 1.268 . S
O2702 Ho2680 2.378 . S
O2702 C2683 1.215 . S
O2703 Ho2680 2.524 . S
O2703 C2683 1.289 . S
O2704 Ho2680 2.377 1_554 S
O2704 C2690 1.280 . S
O2705 Ho2680 2.669 1_554 S
O2705 Ho2681 2.305 . S
O2705 C2690 1.256 . S
O2706 Ho2681 2.322 . S
O2706 C2691 1.259 . S
O2707 Ho2680 2.346 1_554 S
O2707 C2691 1.268 . S
O2708 Ho2681 2.378 . S
O2708 C2692 1.215 . S
O2709 Ho2681 2.524 . S
O2709 C2692 1.289 . S
O2710 Ho2681 2.381 1_556 S
O2710 C2699 1.275 . S
O2711 Ho2680 2.305 . S
O2711 Ho2681 2.669 1_556 S
O2711 C2699 1.256 . S
H2712 C2685 0.930 . S
H2713 C2686 0.931 . S
H2714 C2688 0.934 . S
H2715 C2689 0.930 . S
H2716 C2694 0.930 . S
H2717 C2695 0.931 . S
H2718 C2697 0.934 . S
H2719 C2698 0.930 . S
Ho2720 C2723 2.811 . S
Ho2720 O2740 2.322 . S
Ho2720 O2742 2.378 . S
Ho2720 O2743 2.524 . S
Ho2720 O2744 2.381 . S
Ho2720 O2745 2.669 . S
Ho2720 O2747 2.346 . S
Ho2720 O2751 2.305 . S
Ho2721 C2732 2.811 . S
Ho2721 O2741 2.346 . S
Ho2721 O2745 2.305 . S
Ho2721 O2746 2.322 . S
Ho2721 O2748 2.378 . S
Ho2721 O2749 2.524 . S
Ho2721 O2750 2.381 . S
Ho2721 O2751 2.669 . S
C2722 O2740 1.259 . S
C2722 O2741 1.268 . S
C2723 Ho2720 2.811 . S
C2723 C2724 1.488 . S
C2723 O2742 1.215 . S
C2723 O2743 1.289 . S
C2724 C2723 1.488 . S
C2724 C2725 1.348 . S
C2724 C2729 1.413 . S
C2725 C2724 1.348 . S
C2725 C2726 1.442 . S
C2725 H2752 0.930 . S
C2726 C2725 1.442 . S
C2726 C2727 1.381 . S
C2726 H2753 0.931 . S
C2727 C2726 1.381 . S
C2727 C2728 1.321 . S
C2728 C2727 1.321 . S
C2728 C2729 1.403 . S
C2728 H2754 0.934 . S
C2729 C2724 1.413 . S
C2729 C2728 1.403 . S
C2729 H2755 0.930 . S
C2730 O2744 1.275 . S
C2730 O2745 1.256 . S
C2731 O2746 1.259 . S
C2731 O2747 1.268 . S
C2732 Ho2721 2.811 . S
C2732 C2733 1.488 . S
C2732 O2748 1.215 . S
C2732 O2749 1.289 . S
C2733 C2732 1.488 . S
C2733 C2734 1.348 . S
C2733 C2738 1.413 . S
C2734 C2733 1.348 . S
C2734 C2735 1.442 . S
C2734 H2756 0.930 . S
C2735 C2734 1.442 . S
C2735 C2736 1.381 . S
C2735 H2757 0.931 . S
C2736 C2735 1.381 . S
C2736 C2737 1.321 . S
C2737 C2736 1.321 . S
C2737 C2738 1.403 . S
C2737 H2758 0.934 . S
C2738 C2733 1.413 . S
C2738 C2737 1.403 . S
C2738 H2759 0.930 . S
C2739 O2750 1.275 . S
C2739 O2751 1.256 . S
O2740 Ho2720 2.322 . S
O2740 C2722 1.259 . S
O2741 Ho2721 2.346 . S
O2741 C2722 1.268 . S
O2742 Ho2720 2.378 . S
O2742 C2723 1.215 . S
O2743 Ho2720 2.524 . S
O2743 C2723 1.289 . S
O2744 Ho2720 2.381 . S
O2744 C2730 1.275 . S
O2745 Ho2720 2.669 . S
O2745 Ho2721 2.305 . S
O2745 C2730 1.256 . S
O2746 Ho2721 2.322 . S
O2746 C2731 1.259 . S
O2747 Ho2720 2.346 . S
O2747 C2731 1.268 . S
O2748 Ho2721 2.378 . S
O2748 C2732 1.215 . S
O2749 Ho2721 2.524 . S
O2749 C2732 1.289 . S
O2750 Ho2721 2.381 . S
O2750 C2739 1.275 . S
O2751 Ho2720 2.305 . S
O2751 Ho2721 2.669 . S
O2751 C2739 1.256 . S
H2752 C2725 0.930 . S
H2753 C2726 0.931 . S
H2754 C2728 0.934 . S
H2755 C2729 0.930 . S
H2756 C2734 0.930 . S
H2757 C2735 0.931 . S
H2758 C2737 0.934 . S
H2759 C2738 0.930 . S
Ho2760 C2763 2.811 . S
Ho2760 O2780 2.322 . S
Ho2760 O2782 2.378 . S
Ho2760 O2783 2.524 . S
Ho2760 O2784 2.392 . S
Ho2760 O2785 2.669 1_554 S
Ho2760 O2787 2.346 1_554 S
Ho2760 O2791 2.305 . S
Ho2761 C2772 2.811 . S
Ho2761 O2781 2.346 1_556 S
Ho2761 O2785 2.305 . S
Ho2761 O2786 2.322 . S
Ho2761 O2788 2.378 . S
Ho2761 O2789 2.524 . S
Ho2761 O2790 2.381 1_556 S
Ho2761 O2791 2.669 1_556 S
C2762 O2780 1.259 . S
C2762 O2781 1.268 . S
C2763 Ho2760 2.811 . S
C2763 C2764 1.488 . S
C2763 O2782 1.215 . S
C2763 O2783 1.289 . S
C2764 C2763 1.488 . S
C2764 C2765 1.348 . S
C2764 C2769 1.413 . S
C2765 C2764 1.348 . S
C2765 C2766 1.442 . S
C2765 H2792 0.930 . S
C2766 C2765 1.442 . S
C2766 C2767 1.381 . S
C2766 H2793 0.931 . S
C2767 C2766 1.381 . S
C2767 C2768 1.321 . S
C2768 C2767 1.321 . S
C2768 C2769 1.403 . S
C2768 H2794 0.934 . S
C2769 C2764 1.413 . S
C2769 C2768 1.403 . S
C2769 H2795 0.930 . S
C2770 O2784 1.260 1_556 S
C2770 O2785 1.256 . S
C2771 O2786 1.259 . S
C2771 O2787 1.268 . S
C2772 Ho2761 2.811 . S
C2772 C2773 1.488 . S
C2772 O2788 1.215 . S
C2772 O2789 1.289 . S
C2773 C2772 1.488 . S
C2773 C2774 1.348 . S
C2773 C2778 1.413 . S
C2774 C2773 1.348 . S
C2774 C2775 1.442 . S
C2774 H2796 0.930 . S
C2775 C2774 1.442 . S
C2775 C2776 1.381 . S
C2775 H2797 0.931 . S
C2776 C2775 1.381 . S
C2776 C2777 1.321 . S
C2777 C2776 1.321 . S
C2777 C2778 1.403 . S
C2777 H2798 0.934 . S
C2778 C2773 1.413 . S
C2778 C2777 1.403 . S
C2778 H2799 0.930 . S
C2779 O2790 1.275 . S
C2779 O2791 1.256 . S
O2780 Ho2760 2.322 . S
O2780 C2762 1.259 . S
O2781 Ho2761 2.346 1_554 S
O2781 C2762 1.268 . S
O2782 Ho2760 2.378 . S
O2782 C2763 1.215 . S
O2783 Ho2760 2.524 . S
O2783 C2763 1.289 . S
O2784 Ho2760 2.392 . S
O2784 C2770 1.260 1_554 S
O2785 Ho2760 2.669 1_556 S
O2785 Ho2761 2.305 . S
O2785 C2770 1.256 . S
O2786 Ho2761 2.322 . S
O2786 C2771 1.259 . S
O2787 Ho2760 2.346 1_556 S
O2787 C2771 1.268 . S
O2788 Ho2761 2.378 . S
O2788 C2772 1.215 . S
O2789 Ho2761 2.524 . S
O2789 C2772 1.289 . S
O2790 Ho2761 2.381 1_554 S
O2790 C2779 1.275 . S
O2791 Ho2760 2.305 . S
O2791 Ho2761 2.669 1_554 S
O2791 C2779 1.256 . S
H2792 C2765 0.930 . S
H2793 C2766 0.931 . S
H2794 C2768 0.934 . S
H2795 C2769 0.930 . S
H2796 C2774 0.930 . S
H2797 C2775 0.931 . S
H2798 C2777 0.934 . S
H2799 C2778 0.930 . S
Ho2800 C2803 2.811 . S
Ho2800 O2820 2.322 . S
Ho2800 O2822 2.378 . S
Ho2800 O2823 2.524 . S
Ho2800 O2824 2.381 . S
Ho2800 O2825 2.669 . S
Ho2800 O2827 2.346 . S
Ho2800 O2831 2.305 . S
Ho2801 C2812 2.811 . S
Ho2801 O2821 2.346 . S
Ho2801 O2825 2.305 . S
Ho2801 O2826 2.322 . S
Ho2801 O2828 2.378 . S
Ho2801 O2829 2.524 . S
Ho2801 O2830 2.381 . S
Ho2801 O2831 2.669 . S
C2802 O2820 1.259 . S
C2802 O2821 1.268 . S
C2803 Ho2800 2.811 . S
C2803 C2804 1.488 . S
C2803 O2822 1.215 . S
C2803 O2823 1.289 . S
C2804 C2803 1.488 . S
C2804 C2805 1.348 . S
C2804 C2809 1.413 . S
C2805 C2804 1.348 . S
C2805 C2806 1.442 . S
C2805 H2832 0.930 . S
C2806 C2805 1.442 . S
C2806 C2807 1.381 . S
C2806 H2833 0.931 . S
C2807 C2806 1.381 . S
C2807 C2808 1.321 . S
C2808 C2807 1.321 . S
C2808 C2809 1.403 . S
C2808 H2834 0.934 . S
C2809 C2804 1.413 . S
C2809 C2808 1.403 . S
C2809 H2835 0.930 . S
C2810 O2824 1.275 . S
C2810 O2825 1.256 . S
C2811 O2826 1.259 . S
C2811 O2827 1.268 . S
C2812 Ho2801 2.811 . S
C2812 C2813 1.488 . S
C2812 O2828 1.215 . S
C2812 O2829 1.289 . S
C2813 C2812 1.488 . S
C2813 C2814 1.348 . S
C2813 C2818 1.413 . S
C2814 C2813 1.348 . S
C2814 C2815 1.442 . S
C2814 H2836 0.930 . S
C2815 C2814 1.442 . S
C2815 C2816 1.381 . S
C2815 H2837 0.931 . S
C2816 C2815 1.381 . S
C2816 C2817 1.321 . S
C2817 C2816 1.321 . S
C2817 C2818 1.403 . S
C2817 H2838 0.934 . S
C2818 C2813 1.413 . S
C2818 C2817 1.403 . S
C2818 H2839 0.930 . S
C2819 O2830 1.275 . S
C2819 O2831 1.256 . S
O2820 Ho2800 2.322 . S
O2820 C2802 1.259 . S
O2821 Ho2801 2.346 . S
O2821 C2802 1.268 . S
O2822 Ho2800 2.378 . S
O2822 C2803 1.215 . S
O2823 Ho2800 2.524 . S
O2823 C2803 1.289 . S
O2824 Ho2800 2.381 . S
O2824 C2810 1.275 . S
O2825 Ho2800 2.669 . S
O2825 Ho2801 2.305 . S
O2825 C2810 1.256 . S
O2826 Ho2801 2.322 . S
O2826 C2811 1.259 . S
O2827 Ho2800 2.346 . S
O2827 C2811 1.268 . S
O2828 Ho2801 2.378 . S
O2828 C2812 1.215 . S
O2829 Ho2801 2.524 . S
O2829 C2812 1.289 . S
O2830 Ho2801 2.381 . S
O2830 C2819 1.275 . S
O2831 Ho2800 2.305 . S
O2831 Ho2801 2.669 . S
O2831 C2819 1.256 . S
H2832 C2805 0.930 . S
H2833 C2806 0.931 . S
H2834 C2808 0.934 . S
H2835 C2809 0.930 . S
H2836 C2814 0.930 . S
H2837 C2815 0.931 . S
H2838 C2817 0.934 . S
H2839 C2818 0.930 . S
Ho2840 C2843 2.811 . S
Ho2840 O2860 2.322 . S
Ho2840 O2862 2.378 . S
Ho2840 O2863 2.524 . S
Ho2840 O2864 2.381 . S
Ho2840 O2865 2.669 . S
Ho2840 O2867 2.346 . S
Ho2840 O2871 2.305 . S
Ho2841 C2852 2.811 . S
Ho2841 O2861 2.346 . S
Ho2841 O2865 2.305 . S
Ho2841 O2866 2.322 . S
Ho2841 O2868 2.378 . S
Ho2841 O2869 2.524 . S
Ho2841 O2870 2.381 . S
Ho2841 O2871 2.669 . S
C2842 O2860 1.259 . S
C2842 O2861 1.268 . S
C2843 Ho2840 2.811 . S
C2843 C2844 1.488 . S
C2843 O2862 1.215 . S
C2843 O2863 1.289 . S
C2844 C2843 1.488 . S
C2844 C2845 1.348 . S
C2844 C2849 1.413 . S
C2845 C2844 1.348 . S
C2845 C2846 1.442 . S
C2845 H2872 0.930 . S
C2846 C2845 1.442 . S
C2846 C2847 1.381 . S
C2846 H2873 0.931 . S
C2847 C2846 1.381 . S
C2847 C2848 1.321 . S
C2848 C2847 1.321 . S
C2848 C2849 1.403 . S
C2848 H2874 0.934 . S
C2849 C2844 1.413 . S
C2849 C2848 1.403 . S
C2849 H2875 0.930 . S
C2850 O2864 1.275 . S
C2850 O2865 1.256 . S
C2851 O2866 1.259 . S
C2851 O2867 1.268 . S
C2852 Ho2841 2.811 . S
C2852 C2853 1.488 . S
C2852 O2868 1.215 . S
C2852 O2869 1.289 . S
C2853 C2852 1.488 . S
C2853 C2854 1.348 . S
C2853 C2858 1.413 . S
C2854 C2853 1.348 . S
C2854 C2855 1.442 . S
C2854 H2876 0.930 . S
C2855 C2854 1.442 . S
C2855 C2856 1.381 . S
C2855 H2877 0.931 . S
C2856 C2855 1.381 . S
C2856 C2857 1.321 . S
C2857 C2856 1.321 . S
C2857 C2858 1.403 . S
C2857 H2878 0.934 . S
C2858 C2853 1.413 . S
C2858 C2857 1.403 . S
C2858 H2879 0.930 . S
C2859 O2870 1.275 . S
C2859 O2871 1.256 . S
O2860 Ho2840 2.322 . S
O2860 C2842 1.259 . S
O2861 Ho2841 2.346 . S
O2861 C2842 1.268 . S
O2862 Ho2840 2.378 . S
O2862 C2843 1.215 . S
O2863 Ho2840 2.524 . S
O2863 C2843 1.289 . S
O2864 Ho2840 2.381 . S
O2864 C2850 1.275 . S
O2865 Ho2840 2.669 . S
O2865 Ho2841 2.305 . S
O2865 C2850 1.256 . S
O2866 Ho2841 2.322 . S
O2866 C2851 1.259 . S
O2867 Ho2840 2.346 . S
O2867 C2851 1.268 . S
O2868 Ho2841 2.378 . S
O2868 C2852 1.215 . S
O2869 Ho2841 2.524 . S
O2869 C2852 1.289 . S
O2870 Ho2841 2.381 . S
O2870 C2859 1.275 . S
O2871 Ho2840 2.305 . S
O2871 Ho2841 2.669 . S
O2871 C2859 1.256 . S
H2872 C2845 0.930 . S
H2873 C2846 0.931 . S
H2874 C2848 0.934 . S
H2875 C2849 0.930 . S
H2876 C2854 0.930 . S
H2877 C2855 0.931 . S
H2878 C2857 0.934 . S
H2879 C2858 0.930 . S
Ho2880 C2883 2.811 . S
Ho2880 O2900 2.322 . S
Ho2880 O2902 2.378 . S
Ho2880 O2903 2.524 . S
Ho2880 O2904 2.381 . S
Ho2880 O2905 2.669 . S
Ho2880 O2907 2.346 . S
Ho2880 O2911 2.305 . S
Ho2881 C2892 2.811 . S
Ho2881 O2901 2.346 . S
Ho2881 O2905 2.305 . S
Ho2881 O2906 2.322 . S
Ho2881 O2908 2.378 . S
Ho2881 O2909 2.524 . S
Ho2881 O2910 2.381 . S
Ho2881 O2911 2.669 . S
C2882 O2900 1.259 . S
C2882 O2901 1.268 . S
C2883 Ho2880 2.811 . S
C2883 C2884 1.488 . S
C2883 O2902 1.215 . S
C2883 O2903 1.289 . S
C2884 C2883 1.488 . S
C2884 C2885 1.348 . S
C2884 C2889 1.413 . S
C2885 C2884 1.348 . S
C2885 C2886 1.442 . S
C2885 H2912 0.930 . S
C2886 C2885 1.442 . S
C2886 C2887 1.381 . S
C2886 H2913 0.931 . S
C2887 C2886 1.381 . S
C2887 C2888 1.321 . S
C2888 C2887 1.321 . S
C2888 C2889 1.403 . S
C2888 H2914 0.934 . S
C2889 C2884 1.413 . S
C2889 C2888 1.403 . S
C2889 H2915 0.930 . S
C2890 O2904 1.275 . S
C2890 O2905 1.256 . S
C2891 O2906 1.259 . S
C2891 O2907 1.268 . S
C2892 Ho2881 2.811 . S
C2892 C2893 1.488 . S
C2892 O2908 1.215 . S
C2892 O2909 1.289 . S
C2893 C2892 1.488 . S
C2893 C2894 1.348 . S
C2893 C2898 1.413 . S
C2894 C2893 1.348 . S
C2894 C2895 1.442 . S
C2894 H2916 0.930 . S
C2895 C2894 1.442 . S
C2895 C2896 1.381 . S
C2895 H2917 0.931 . S
C2896 C2895 1.381 . S
C2896 C2897 1.321 . S
C2897 C2896 1.321 . S
C2897 C2898 1.403 . S
C2897 H2918 0.934 . S
C2898 C2893 1.413 . S
C2898 C2897 1.403 . S
C2898 H2919 0.930 . S
C2899 O2910 1.275 . S
C2899 O2911 1.256 . S
O2900 Ho2880 2.322 . S
O2900 C2882 1.259 . S
O2901 Ho2881 2.346 . S
O2901 C2882 1.268 . S
O2902 Ho2880 2.378 . S
O2902 C2883 1.215 . S
O2903 Ho2880 2.524 . S
O2903 C2883 1.289 . S
O2904 Ho2880 2.381 . S
O2904 C2890 1.275 . S
O2905 Ho2880 2.669 . S
O2905 Ho2881 2.305 . S
O2905 C2890 1.256 . S
O2906 Ho2881 2.322 . S
O2906 C2891 1.259 . S
O2907 Ho2880 2.346 . S
O2907 C2891 1.268 . S
O2908 Ho2881 2.378 . S
O2908 C2892 1.215 . S
O2909 Ho2881 2.524 . S
O2909 C2892 1.289 . S
O2910 Ho2881 2.381 . S
O2910 C2899 1.275 . S
O2911 Ho2880 2.305 . S
O2911 Ho2881 2.669 . S
O2911 C2899 1.256 . S
H2912 C2885 0.930 . S
H2913 C2886 0.931 . S
H2914 C2888 0.934 . S
H2915 C2889 0.930 . S
H2916 C2894 0.930 . S
H2917 C2895 0.931 . S
H2918 C2897 0.934 . S
H2919 C2898 0.930 . S
Ho2920 C2923 2.811 . S
Ho2920 O2940 2.322 . S
Ho2920 O2942 2.378 . S
Ho2920 O2943 2.524 . S
Ho2920 O2944 2.381 . S
Ho2920 O2945 2.669 . S
Ho2920 O2947 2.346 . S
Ho2920 O2951 2.305 . S
Ho2921 C2932 2.811 . S
Ho2921 O2941 2.346 . S
Ho2921 O2945 2.305 . S
Ho2921 O2946 2.322 . S
Ho2921 O2948 2.378 . S
Ho2921 O2949 2.524 . S
Ho2921 O2950 2.381 . S
Ho2921 O2951 2.669 . S
C2922 O2940 1.259 . S
C2922 O2941 1.268 . S
C2923 Ho2920 2.811 . S
C2923 C2924 1.488 . S
C2923 O2942 1.215 . S
C2923 O2943 1.289 . S
C2924 C2923 1.488 . S
C2924 C2925 1.348 . S
C2924 C2929 1.413 . S
C2925 C2924 1.348 . S
C2925 C2926 1.442 . S
C2925 H2952 0.930 . S
C2926 C2925 1.442 . S
C2926 C2927 1.381 . S
C2926 H2953 0.931 . S
C2927 C2926 1.381 . S
C2927 C2928 1.321 . S
C2928 C2927 1.321 . S
C2928 C2929 1.403 . S
C2928 H2954 0.934 . S
C2929 C2924 1.413 . S
C2929 C2928 1.403 . S
C2929 H2955 0.930 . S
C2930 O2944 1.275 . S
C2930 O2945 1.256 . S
C2931 O2946 1.259 . S
C2931 O2947 1.268 . S
C2932 Ho2921 2.811 . S
C2932 C2933 1.488 . S
C2932 O2948 1.215 . S
C2932 O2949 1.289 . S
C2933 C2932 1.488 . S
C2933 C2934 1.348 . S
C2933 C2938 1.413 . S
C2934 C2933 1.348 . S
C2934 C2935 1.442 . S
C2934 H2956 0.930 . S
C2935 C2934 1.442 . S
C2935 C2936 1.381 . S
C2935 H2957 0.931 . S
C2936 C2935 1.381 . S
C2936 C2937 1.321 . S
C2937 C2936 1.321 . S
C2937 C2938 1.403 . S
C2937 H2958 0.934 . S
C2938 C2933 1.413 . S
C2938 C2937 1.403 . S
C2938 H2959 0.930 . S
C2939 O2950 1.275 . S
C2939 O2951 1.256 . S
O2940 Ho2920 2.322 . S
O2940 C2922 1.259 . S
O2941 Ho2921 2.346 . S
O2941 C2922 1.268 . S
O2942 Ho2920 2.378 . S
O2942 C2923 1.215 . S
O2943 Ho2920 2.524 . S
O2943 C2923 1.289 . S
O2944 Ho2920 2.381 . S
O2944 C2930 1.275 . S
O2945 Ho2920 2.669 . S
O2945 Ho2921 2.305 . S
O2945 C2930 1.256 . S
O2946 Ho2921 2.322 . S
O2946 C2931 1.259 . S
O2947 Ho2920 2.346 . S
O2947 C2931 1.268 . S
O2948 Ho2921 2.378 . S
O2948 C2932 1.215 . S
O2949 Ho2921 2.524 . S
O2949 C2932 1.289 . S
O2950 Ho2921 2.381 . S
O2950 C2939 1.275 . S
O2951 Ho2920 2.305 . S
O2951 Ho2921 2.669 . S
O2951 C2939 1.256 . S
H2952 C2925 0.930 . S
H2953 C2926 0.931 . S
H2954 C2928 0.934 . S
H2955 C2929 0.930 . S
H2956 C2934 0.930 . S
H2957 C2935 0.931 . S
H2958 C2937 0.934 . S
H2959 C2938 0.930 . S
Ho2960 C2963 2.811 . S
Ho2960 O2980 2.322 . S
Ho2960 O2982 2.378 . S
Ho2960 O2983 2.524 . S
Ho2960 O2984 2.381 1_455 S
Ho2960 O2985 2.669 1_455 S
Ho2960 O2987 2.346 1_455 S
Ho2960 O2991 2.305 . S
Ho2961 C2972 2.811 . S
Ho2961 O2981 2.346 1_655 S
Ho2961 O2985 2.305 . S
Ho2961 O2986 2.322 . S
Ho2961 O2988 2.378 . S
Ho2961 O2989 2.524 . S
Ho2961 O2990 2.381 1_655 S
Ho2961 O2991 2.669 1_655 S
C2962 O2980 1.259 . S
C2962 O2981 1.268 . S
C2963 Ho2960 2.811 . S
C2963 C2964 1.488 . S
C2963 O2982 1.215 . S
C2963 O2983 1.289 . S
C2964 C2963 1.488 . S
C2964 C2965 1.348 . S
C2964 C2969 1.413 . S
C2965 C2964 1.348 . S
C2965 C2966 1.442 . S
C2965 H2992 0.930 . S
C2966 C2965 1.442 . S
C2966 C2967 1.381 . S
C2966 H2993 0.931 . S
C2967 C2966 1.381 . S
C2967 C2968 1.321 . S
C2968 C2967 1.321 . S
C2968 C2969 1.403 . S
C2968 H2994 0.934 . S
C2969 C2964 1.413 . S
C2969 C2968 1.403 . S
C2969 H2995 0.930 . S
C2970 O2984 1.275 . S
C2970 O2985 1.256 . S
C2971 O2986 1.259 . S
C2971 O2987 1.268 . S
C2972 Ho2961 2.811 . S
C2972 C2973 1.488 . S
C2972 O2988 1.215 . S
C2972 O2989 1.289 . S
C2973 C2972 1.488 . S
C2973 C2974 1.348 . S
C2973 C2978 1.413 . S
C2974 C2973 1.348 . S
C2974 C2975 1.442 . S
C2974 H2996 0.930 . S
C2975 C2974 1.442 . S
C2975 C2976 1.381 . S
C2975 H2997 0.931 . S
C2976 C2975 1.381 . S
C2976 C2977 1.321 . S
C2977 C2976 1.321 . S
C2977 C2978 1.403 . S
C2977 H2998 0.934 . S
C2978 C2973 1.413 . S
C2978 C2977 1.403 . S
C2978 H2999 0.930 . S
C2979 O2990 1.275 . S
C2979 O2991 1.256 . S
O2980 Ho2960 2.322 . S
O2980 C2962 1.259 . S
O2981 Ho2961 2.346 1_455 S
O2981 C2962 1.268 . S
O2982 Ho2960 2.378 . S
O2982 C2963 1.215 . S
O2983 Ho2960 2.524 . S
O2983 C2963 1.289 . S
O2984 Ho2960 2.381 1_655 S
O2984 C2970 1.275 . S
O2985 Ho2960 2.669 1_655 S
O2985 Ho2961 2.305 . S
O2985 C2970 1.256 . S
O2986 Ho2961 2.322 . S
O2986 C2971 1.259 . S
O2987 Ho2960 2.346 1_655 S
O2987 C2971 1.268 . S
O2988 Ho2961 2.378 . S
O2988 C2972 1.215 . S
O2989 Ho2961 2.524 . S
O2989 C2972 1.289 . S
O2990 Ho2961 2.381 1_455 S
O2990 C2979 1.275 . S
O2991 Ho2960 2.305 . S
O2991 Ho2961 2.669 1_455 S
O2991 C2979 1.256 . S
H2992 C2965 0.930 . S
H2993 C2966 0.931 . S
H2994 C2968 0.934 . S
H2995 C2969 0.930 . S
H2996 C2974 0.930 . S
H2997 C2975 0.931 . S
H2998 C2977 0.934 . S
H2999 C2978 0.930 . S
Ho3000 C3003 2.811 . S
Ho3000 O3020 2.322 . S
Ho3000 O3022 2.378 . S
Ho3000 O3023 2.524 . S
Ho3000 O3024 2.381 . S
Ho3000 O3025 2.669 . S
Ho3000 O3027 2.346 . S
Ho3000 O3031 2.305 . S
Ho3001 C3012 2.811 . S
Ho3001 O3021 2.346 . S
Ho3001 O3025 2.305 . S
Ho3001 O3026 2.322 . S
Ho3001 O3028 2.378 . S
Ho3001 O3029 2.524 . S
Ho3001 O3030 2.381 . S
Ho3001 O3031 2.669 . S
C3002 O3020 1.259 . S
C3002 O3021 1.268 . S
C3003 Ho3000 2.811 . S
C3003 C3004 1.488 . S
C3003 O3022 1.215 . S
C3003 O3023 1.289 . S
C3004 C3003 1.488 . S
C3004 C3005 1.348 . S
C3004 C3009 1.413 . S
C3005 C3004 1.348 . S
C3005 C3006 1.442 . S
C3005 H3032 0.930 . S
C3006 C3005 1.442 . S
C3006 C3007 1.381 . S
C3006 H3033 0.931 . S
C3007 C3006 1.381 . S
C3007 C3008 1.321 . S
C3008 C3007 1.321 . S
C3008 C3009 1.403 . S
C3008 H3034 0.934 . S
C3009 C3004 1.413 . S
C3009 C3008 1.403 . S
C3009 H3035 0.930 . S
C3010 O3024 1.275 . S
C3010 O3025 1.256 . S
C3011 O3026 1.259 . S
C3011 O3027 1.268 . S
C3012 Ho3001 2.811 . S
C3012 C3013 1.488 . S
C3012 O3028 1.215 . S
C3012 O3029 1.289 . S
C3013 C3012 1.488 . S
C3013 C3014 1.348 . S
C3013 C3018 1.413 . S
C3014 C3013 1.348 . S
C3014 C3015 1.442 . S
C3014 H3036 0.930 . S
C3015 C3014 1.442 . S
C3015 C3016 1.381 . S
C3015 H3037 0.931 . S
C3016 C3015 1.381 . S
C3016 C3017 1.321 . S
C3017 C3016 1.321 . S
C3017 C3018 1.403 . S
C3017 H3038 0.934 . S
C3018 C3013 1.413 . S
C3018 C3017 1.403 . S
C3018 H3039 0.930 . S
C3019 O3030 1.275 . S
C3019 O3031 1.256 . S
O3020 Ho3000 2.322 . S
O3020 C3002 1.259 . S
O3021 Ho3001 2.346 . S
O3021 C3002 1.268 . S
O3022 Ho3000 2.378 . S
O3022 C3003 1.215 . S
O3023 Ho3000 2.524 . S
O3023 C3003 1.289 . S
O3024 Ho3000 2.381 . S
O3024 C3010 1.275 . S
O3025 Ho3000 2.669 . S
O3025 Ho3001 2.305 . S
O3025 C3010 1.256 . S
O3026 Ho3001 2.322 . S
O3026 C3011 1.259 . S
O3027 Ho3000 2.346 . S
O3027 C3011 1.268 . S
O3028 Ho3001 2.378 . S
O3028 C3012 1.215 . S
O3029 Ho3001 2.524 . S
O3029 C3012 1.289 . S
O3030 Ho3001 2.381 . S
O3030 C3019 1.275 . S
O3031 Ho3000 2.305 . S
O3031 Ho3001 2.669 . S
O3031 C3019 1.256 . S
H3032 C3005 0.930 . S
H3033 C3006 0.931 . S
H3034 C3008 0.934 . S
H3035 C3009 0.930 . S
H3036 C3014 0.930 . S
H3037 C3015 0.931 . S
H3038 C3017 0.934 . S
H3039 C3018 0.930 . S
Ho3040 C3043 2.811 . S
Ho3040 O3060 2.322 . S
Ho3040 O3062 2.378 . S
Ho3040 O3063 2.524 . S
Ho3040 O3064 2.381 . S
Ho3040 O3065 2.669 . S
Ho3040 O3067 2.346 . S
Ho3040 O3071 2.305 . S
Ho3041 C3052 2.811 . S
Ho3041 O3061 2.346 . S
Ho3041 O3065 2.305 . S
Ho3041 O3066 2.322 . S
Ho3041 O3068 2.378 . S
Ho3041 O3069 2.524 . S
Ho3041 O3070 2.381 . S
Ho3041 O3071 2.669 . S
C3042 O3060 1.259 . S
C3042 O3061 1.268 . S
C3043 Ho3040 2.811 . S
C3043 C3044 1.488 . S
C3043 O3062 1.215 . S
C3043 O3063 1.289 . S
C3044 C3043 1.488 . S
C3044 C3045 1.348 . S
C3044 C3049 1.413 . S
C3045 C3044 1.348 . S
C3045 C3046 1.442 . S
C3045 H3072 0.930 . S
C3046 C3045 1.442 . S
C3046 C3047 1.381 . S
C3046 H3073 0.931 . S
C3047 C3046 1.381 . S
C3047 C3048 1.321 . S
C3048 C3047 1.321 . S
C3048 C3049 1.403 . S
C3048 H3074 0.934 . S
C3049 C3044 1.413 . S
C3049 C3048 1.403 . S
C3049 H3075 0.930 . S
C3050 O3064 1.275 . S
C3050 O3065 1.256 . S
C3051 O3066 1.259 . S
C3051 O3067 1.268 . S
C3052 Ho3041 2.811 . S
C3052 C3053 1.488 . S
C3052 O3068 1.215 . S
C3052 O3069 1.289 . S
C3053 C3052 1.488 . S
C3053 C3054 1.348 . S
C3053 C3058 1.413 . S
C3054 C3053 1.348 . S
C3054 C3055 1.442 . S
C3054 H3076 0.930 . S
C3055 C3054 1.442 . S
C3055 C3056 1.381 . S
C3055 H3077 0.931 . S
C3056 C3055 1.381 . S
C3056 C3057 1.321 . S
C3057 C3056 1.321 . S
C3057 C3058 1.403 . S
C3057 H3078 0.934 . S
C3058 C3053 1.413 . S
C3058 C3057 1.403 . S
C3058 H3079 0.930 . S
C3059 O3070 1.275 . S
C3059 O3071 1.256 . S
O3060 Ho3040 2.322 . S
O3060 C3042 1.259 . S
O3061 Ho3041 2.346 . S
O3061 C3042 1.268 . S
O3062 Ho3040 2.378 . S
O3062 C3043 1.215 . S
O3063 Ho3040 2.524 . S
O3063 C3043 1.289 . S
O3064 Ho3040 2.381 . S
O3064 C3050 1.275 . S
O3065 Ho3040 2.669 . S
O3065 Ho3041 2.305 . S
O3065 C3050 1.256 . S
O3066 Ho3041 2.322 . S
O3066 C3051 1.259 . S
O3067 Ho3040 2.346 . S
O3067 C3051 1.268 . S
O3068 Ho3041 2.378 . S
O3068 C3052 1.215 . S
O3069 Ho3041 2.524 . S
O3069 C3052 1.289 . S
O3070 Ho3041 2.381 . S
O3070 C3059 1.275 . S
O3071 Ho3040 2.305 . S
O3071 Ho3041 2.669 . S
O3071 C3059 1.256 . S
H3072 C3045 0.930 . S
H3073 C3046 0.931 . S
H3074 C3048 0.934 . S
H3075 C3049 0.930 . S
H3076 C3054 0.930 . S
H3077 C3055 0.931 . S
H3078 C3057 0.934 . S
H3079 C3058 0.930 . S
Ho3080 C3083 2.811 . S
Ho3080 O3100 2.322 . S
Ho3080 O3102 2.378 . S
Ho3080 O3103 2.524 . S
Ho3080 O3104 2.381 . S
Ho3080 O3105 2.669 . S
Ho3080 O3107 2.346 . S
Ho3080 O3111 2.305 . S
Ho3081 C3092 2.811 . S
Ho3081 O3101 2.346 . S
Ho3081 O3105 2.305 . S
Ho3081 O3106 2.322 . S
Ho3081 O3108 2.378 . S
Ho3081 O3109 2.524 . S
Ho3081 O3110 2.381 . S
Ho3081 O3111 2.669 . S
C3082 O3100 1.259 . S
C3082 O3101 1.268 . S
C3083 Ho3080 2.811 . S
C3083 C3084 1.488 . S
C3083 O3102 1.215 . S
C3083 O3103 1.289 . S
C3084 C3083 1.488 . S
C3084 C3085 1.348 . S
C3084 C3089 1.413 . S
C3085 C3084 1.348 . S
C3085 C3086 1.442 . S
C3085 H3112 0.930 . S
C3086 C3085 1.442 . S
C3086 C3087 1.381 . S
C3086 H3113 0.931 . S
C3087 C3086 1.381 . S
C3087 C3088 1.321 . S
C3088 C3087 1.321 . S
C3088 C3089 1.403 . S
C3088 H3114 0.934 . S
C3089 C3084 1.413 . S
C3089 C3088 1.403 . S
C3089 H3115 0.930 . S
C3090 O3104 1.275 . S
C3090 O3105 1.256 . S
C3091 O3106 1.259 . S
C3091 O3107 1.268 . S
C3092 Ho3081 2.811 . S
C3092 C3093 1.488 . S
C3092 O3108 1.215 . S
C3092 O3109 1.289 . S
C3093 C3092 1.488 . S
C3093 C3094 1.348 . S
C3093 C3098 1.413 . S
C3094 C3093 1.348 . S
C3094 C3095 1.442 . S
C3094 H3116 0.930 . S
C3095 C3094 1.442 . S
C3095 C3096 1.381 . S
C3095 H3117 0.931 . S
C3096 C3095 1.381 . S
C3096 C3097 1.321 . S
C3097 C3096 1.321 . S
C3097 C3098 1.403 . S
C3097 H3118 0.934 . S
C3098 C3093 1.413 . S
C3098 C3097 1.403 . S
C3098 H3119 0.930 . S
C3099 O3110 1.275 . S
C3099 O3111 1.256 . S
O3100 Ho3080 2.322 . S
O3100 C3082 1.259 . S
O3101 Ho3081 2.346 . S
O3101 C3082 1.268 . S
O3102 Ho3080 2.378 . S
O3102 C3083 1.215 . S
O3103 Ho3080 2.524 . S
O3103 C3083 1.289 . S
O3104 Ho3080 2.381 . S
O3104 C3090 1.275 . S
O3105 Ho3080 2.669 . S
O3105 Ho3081 2.305 . S
O3105 C3090 1.256 . S
O3106 Ho3081 2.322 . S
O3106 C3091 1.259 . S
O3107 Ho3080 2.346 . S
O3107 C3091 1.268 . S
O3108 Ho3081 2.378 . S
O3108 C3092 1.215 . S
O3109 Ho3081 2.524 . S
O3109 C3092 1.289 . S
O3110 Ho3081 2.381 . S
O3110 C3099 1.275 . S
O3111 Ho3080 2.305 . S
O3111 Ho3081 2.669 . S
O3111 C3099 1.256 . S
H3112 C3085 0.930 . S
H3113 C3086 0.931 . S
H3114 C3088 0.934 . S
H3115 C3089 0.930 . S
H3116 C3094 0.930 . S
H3117 C3095 0.931 . S
H3118 C3097 0.934 . S
H3119 C3098 0.930 . S
Ho3120 C3123 2.811 . S
Ho3120 O3140 2.322 . S
Ho3120 O3142 2.378 . S
Ho3120 O3143 2.524 . S
Ho3120 O3144 2.381 1_455 S
Ho3120 O3145 2.669 1_455 S
Ho3120 O3147 2.346 1_455 S
Ho3120 O3151 2.305 . S
Ho3121 C3132 2.811 . S
Ho3121 O3141 2.346 1_655 S
Ho3121 O3145 2.305 . S
Ho3121 O3146 2.322 . S
Ho3121 O3148 2.378 . S
Ho3121 O3149 2.524 . S
Ho3121 O3150 2.381 1_655 S
Ho3121 O3151 2.669 1_655 S
C3122 O3140 1.259 . S
C3122 O3141 1.268 . S
C3123 Ho3120 2.811 . S
C3123 C3124 1.488 . S
C3123 O3142 1.215 . S
C3123 O3143 1.289 . S
C3124 C3123 1.488 . S
C3124 C3125 1.348 . S
C3124 C3129 1.413 . S
C3125 C3124 1.348 . S
C3125 C3126 1.442 . S
C3125 H3152 0.930 . S
C3126 C3125 1.442 . S
C3126 C3127 1.381 . S
C3126 H3153 0.931 . S
C3127 C3126 1.381 . S
C3127 C3128 1.321 . S
C3128 C3127 1.321 . S
C3128 C3129 1.403 . S
C3128 H3154 0.934 . S
C3129 C3124 1.413 . S
C3129 C3128 1.403 . S
C3129 H3155 0.930 . S
C3130 O3144 1.275 . S
C3130 O3145 1.256 . S
C3131 O3146 1.259 . S
C3131 O3147 1.268 . S
C3132 Ho3121 2.811 . S
C3132 C3133 1.488 . S
C3132 O3148 1.215 . S
C3132 O3149 1.289 . S
C3133 C3132 1.488 . S
C3133 C3134 1.348 . S
C3133 C3138 1.413 . S
C3134 C3133 1.348 . S
C3134 C3135 1.442 . S
C3134 H3156 0.930 . S
C3135 C3134 1.442 . S
C3135 C3136 1.381 . S
C3135 H3157 0.931 . S
C3136 C3135 1.381 . S
C3136 C3137 1.321 . S
C3137 C3136 1.321 . S
C3137 C3138 1.403 . S
C3137 H3158 0.934 . S
C3138 C3133 1.413 . S
C3138 C3137 1.403 . S
C3138 H3159 0.930 . S
C3139 O3150 1.275 . S
C3139 O3151 1.256 . S
O3140 Ho3120 2.322 . S
O3140 C3122 1.259 . S
O3141 Ho3121 2.346 1_455 S
O3141 C3122 1.268 . S
O3142 Ho3120 2.378 . S
O3142 C3123 1.215 . S
O3143 Ho3120 2.524 . S
O3143 C3123 1.289 . S
O3144 Ho3120 2.381 1_655 S
O3144 C3130 1.275 . S
O3145 Ho3120 2.669 1_655 S
O3145 Ho3121 2.305 . S
O3145 C3130 1.256 . S
O3146 Ho3121 2.322 . S
O3146 C3131 1.259 . S
O3147 Ho3120 2.346 1_655 S
O3147 C3131 1.268 . S
O3148 Ho3121 2.378 . S
O3148 C3132 1.215 . S
O3149 Ho3121 2.524 . S
O3149 C3132 1.289 . S
O3150 Ho3121 2.381 1_455 S
O3150 C3139 1.275 . S
O3151 Ho3120 2.305 . S
O3151 Ho3121 2.669 1_455 S
O3151 C3139 1.256 . S
H3152 C3125 0.930 . S
H3153 C3126 0.931 . S
H3154 C3128 0.934 . S
H3155 C3129 0.930 . S
H3156 C3134 0.930 . S
H3157 C3135 0.931 . S
H3158 C3137 0.934 . S
H3159 C3138 0.930 . S
Ho3160 C3163 2.811 . S
Ho3160 O3180 2.322 . S
Ho3160 O3182 2.378 . S
Ho3160 O3183 2.524 . S
Ho3160 O3184 2.381 . S
Ho3160 O3185 2.669 . S
Ho3160 O3187 2.346 . S
Ho3160 O3191 2.305 . S
Ho3161 C3172 2.811 . S
Ho3161 O3181 2.346 . S
Ho3161 O3185 2.305 . S
Ho3161 O3186 2.322 . S
Ho3161 O3188 2.378 . S
Ho3161 O3189 2.524 . S
Ho3161 O3190 2.381 . S
Ho3161 O3191 2.669 . S
C3162 O3180 1.259 . S
C3162 O3181 1.268 . S
C3163 Ho3160 2.811 . S
C3163 C3164 1.488 . S
C3163 O3182 1.215 . S
C3163 O3183 1.289 . S
C3164 C3163 1.488 . S
C3164 C3165 1.348 . S
C3164 C3169 1.413 . S
C3165 C3164 1.348 . S
C3165 C3166 1.442 . S
C3165 H3192 0.930 . S
C3166 C3165 1.442 . S
C3166 C3167 1.381 . S
C3166 H3193 0.931 . S
C3167 C3166 1.381 . S
C3167 C3168 1.321 . S
C3168 C3167 1.321 . S
C3168 C3169 1.403 . S
C3168 H3194 0.934 . S
C3169 C3164 1.413 . S
C3169 C3168 1.403 . S
C3169 H3195 0.930 . S
C3170 O3184 1.275 . S
C3170 O3185 1.256 . S
C3171 O3186 1.259 . S
C3171 O3187 1.268 . S
C3172 Ho3161 2.811 . S
C3172 C3173 1.488 . S
C3172 O3188 1.215 . S
C3172 O3189 1.289 . S
C3173 C3172 1.488 . S
C3173 C3174 1.348 . S
C3173 C3178 1.413 . S
C3174 C3173 1.348 . S
C3174 C3175 1.442 . S
C3174 H3196 0.930 . S
C3175 C3174 1.442 . S
C3175 C3176 1.381 . S
C3175 H3197 0.931 . S
C3176 C3175 1.381 . S
C3176 C3177 1.321 . S
C3177 C3176 1.321 . S
C3177 C3178 1.403 . S
C3177 H3198 0.934 . S
C3178 C3173 1.413 . S
C3178 C3177 1.403 . S
C3178 H3199 0.930 . S
C3179 O3190 1.275 . S
C3179 O3191 1.256 . S
O3180 Ho3160 2.322 . S
O3180 C3162 1.259 . S
O3181 Ho3161 2.346 . S
O3181 C3162 1.268 . S
O3182 Ho3160 2.378 . S
O3182 C3163 1.215 . S
O3183 Ho3160 2.524 . S
O3183 C3163 1.289 . S
O3184 Ho3160 2.381 . S
O3184 C3170 1.275 . S
O3185 Ho3160 2.669 . S
O3185 Ho3161 2.305 . S
O3185 C3170 1.256 . S
O3186 Ho3161 2.322 . S
O3186 C3171 1.259 . S
O3187 Ho3160 2.346 . S
O3187 C3171 1.268 . S
O3188 Ho3161 2.378 . S
O3188 C3172 1.215 . S
O3189 Ho3161 2.524 . S
O3189 C3172 1.289 . S
O3190 Ho3161 2.381 . S
O3190 C3179 1.275 . S
O3191 Ho3160 2.305 . S
O3191 Ho3161 2.669 . S
O3191 C3179 1.256 . S
H3192 C3165 0.930 . S
H3193 C3166 0.931 . S
H3194 C3168 0.934 . S
H3195 C3169 0.930 . S
H3196 C3174 0.930 . S
H3197 C3175 0.931 . S
H3198 C3177 0.934 . S
H3199 C3178 0.930 . S
Ho3200 C3203 2.811 . S
Ho3200 O3220 2.322 . S
Ho3200 O3222 2.378 . S
Ho3200 O3223 2.524 . S
Ho3200 O3224 2.381 . S
Ho3200 O3225 2.669 . S
Ho3200 O3227 2.346 . S
Ho3200 O3231 2.305 . S
Ho3201 C3212 2.811 . S
Ho3201 O3221 2.346 . S
Ho3201 O3225 2.305 . S
Ho3201 O3226 2.322 . S
Ho3201 O3228 2.378 . S
Ho3201 O3229 2.524 . S
Ho3201 O3230 2.381 . S
Ho3201 O3231 2.669 . S
C3202 O3220 1.259 . S
C3202 O3221 1.268 . S
C3203 Ho3200 2.811 . S
C3203 C3204 1.488 . S
C3203 O3222 1.215 . S
C3203 O3223 1.289 . S
C3204 C3203 1.488 . S
C3204 C3205 1.348 . S
C3204 C3209 1.413 . S
C3205 C3204 1.348 . S
C3205 C3206 1.442 . S
C3205 H3232 0.930 . S
C3206 C3205 1.442 . S
C3206 C3207 1.381 . S
C3206 H3233 0.931 . S
C3207 C3206 1.381 . S
C3207 C3208 1.321 . S
C3208 C3207 1.321 . S
C3208 C3209 1.403 . S
C3208 H3234 0.934 . S
C3209 C3204 1.413 . S
C3209 C3208 1.403 . S
C3209 H3235 0.930 . S
C3210 O3224 1.275 . S
C3210 O3225 1.256 . S
C3211 O3226 1.259 . S
C3211 O3227 1.268 . S
C3212 Ho3201 2.811 . S
C3212 C3213 1.488 . S
C3212 O3228 1.215 . S
C3212 O3229 1.289 . S
C3213 C3212 1.488 . S
C3213 C3214 1.348 . S
C3213 C3218 1.413 . S
C3214 C3213 1.348 . S
C3214 C3215 1.442 . S
C3214 H3236 0.930 . S
C3215 C3214 1.442 . S
C3215 C3216 1.381 . S
C3215 H3237 0.931 . S
C3216 C3215 1.381 . S
C3216 C3217 1.321 . S
C3217 C3216 1.321 . S
C3217 C3218 1.403 . S
C3217 H3238 0.934 . S
C3218 C3213 1.413 . S
C3218 C3217 1.403 . S
C3218 H3239 0.930 . S
C3219 O3230 1.275 . S
C3219 O3231 1.256 . S
O3220 Ho3200 2.322 . S
O3220 C3202 1.259 . S
O3221 Ho3201 2.346 . S
O3221 C3202 1.268 . S
O3222 Ho3200 2.378 . S
O3222 C3203 1.215 . S
O3223 Ho3200 2.524 . S
O3223 C3203 1.289 . S
O3224 Ho3200 2.381 . S
O3224 C3210 1.275 . S
O3225 Ho3200 2.669 . S
O3225 Ho3201 2.305 . S
O3225 C3210 1.256 . S
O3226 Ho3201 2.322 . S
O3226 C3211 1.259 . S
O3227 Ho3200 2.346 . S
O3227 C3211 1.268 . S
O3228 Ho3201 2.378 . S
O3228 C3212 1.215 . S
O3229 Ho3201 2.524 . S
O3229 C3212 1.289 . S
O3230 Ho3201 2.381 . S
O3230 C3219 1.275 . S
O3231 Ho3200 2.305 . S
O3231 Ho3201 2.669 . S
O3231 C3219 1.256 . S
H3232 C3205 0.930 . S
H3233 C3206 0.931 . S
H3234 C3208 0.934 . S
H3235 C3209 0.930 . S
H3236 C3214 0.930 . S
H3237 C3215 0.931 . S
H3238 C3217 0.934 . S
H3239 C3218 0.930 . S
Ho3240 C3243 2.811 . S
Ho3240 O3260 2.322 . S
Ho3240 O3262 2.378 . S
Ho3240 O3263 2.524 . S
Ho3240 O3264 2.381 . S
Ho3240 O3265 2.669 . S
Ho3240 O3267 2.346 . S
Ho3240 O3271 2.305 . S
Ho3241 C3252 2.811 . S
Ho3241 O3261 2.346 . S
Ho3241 O3265 2.305 . S
Ho3241 O3266 2.322 . S
Ho3241 O3268 2.378 . S
Ho3241 O3269 2.524 . S
Ho3241 O3270 2.381 . S
Ho3241 O3271 2.669 . S
C3242 O3260 1.259 . S
C3242 O3261 1.268 . S
C3243 Ho3240 2.811 . S
C3243 C3244 1.488 . S
C3243 O3262 1.215 . S
C3243 O3263 1.289 . S
C3244 C3243 1.488 . S
C3244 C3245 1.348 . S
C3244 C3249 1.413 . S
C3245 C3244 1.348 . S
C3245 C3246 1.442 . S
C3245 H3272 0.930 . S
C3246 C3245 1.442 . S
C3246 C3247 1.381 . S
C3246 H3273 0.931 . S
C3247 C3246 1.381 . S
C3247 C3248 1.321 . S
C3248 C3247 1.321 . S
C3248 C3249 1.403 . S
C3248 H3274 0.934 . S
C3249 C3244 1.413 . S
C3249 C3248 1.403 . S
C3249 H3275 0.930 . S
C3250 O3264 1.275 . S
C3250 O3265 1.256 . S
C3251 O3266 1.259 . S
C3251 O3267 1.268 . S
C3252 Ho3241 2.811 . S
C3252 C3253 1.488 . S
C3252 O3268 1.215 . S
C3252 O3269 1.289 . S
C3253 C3252 1.488 . S
C3253 C3254 1.348 . S
C3253 C3258 1.413 . S
C3254 C3253 1.348 . S
C3254 C3255 1.442 . S
C3254 H3276 0.930 . S
C3255 C3254 1.442 . S
C3255 C3256 1.381 . S
C3255 H3277 0.931 . S
C3256 C3255 1.381 . S
C3256 C3257 1.321 . S
C3257 C3256 1.321 . S
C3257 C3258 1.403 . S
C3257 H3278 0.934 . S
C3258 C3253 1.413 . S
C3258 C3257 1.403 . S
C3258 H3279 0.930 . S
C3259 O3270 1.275 . S
C3259 O3271 1.256 . S
O3260 Ho3240 2.322 . S
O3260 C3242 1.259 . S
O3261 Ho3241 2.346 . S
O3261 C3242 1.268 . S
O3262 Ho3240 2.378 . S
O3262 C3243 1.215 . S
O3263 Ho3240 2.524 . S
O3263 C3243 1.289 . S
O3264 Ho3240 2.381 . S
O3264 C3250 1.275 . S
O3265 Ho3240 2.669 . S
O3265 Ho3241 2.305 . S
O3265 C3250 1.256 . S
O3266 Ho3241 2.322 . S
O3266 C3251 1.259 . S
O3267 Ho3240 2.346 . S
O3267 C3251 1.268 . S
O3268 Ho3241 2.378 . S
O3268 C3252 1.215 . S
O3269 Ho3241 2.524 . S
O3269 C3252 1.289 . S
O3270 Ho3241 2.381 . S
O3270 C3259 1.275 . S
O3271 Ho3240 2.305 . S
O3271 Ho3241 2.669 . S
O3271 C3259 1.256 . S
H3272 C3245 0.930 . S
H3273 C3246 0.931 . S
H3274 C3248 0.934 . S
H3275 C3249 0.930 . S
H3276 C3254 0.930 . S
H3277 C3255 0.931 . S
H3278 C3257 0.934 . S
H3279 C3258 0.930 . S
Ho3280 C3283 2.811 . S
Ho3280 O3300 2.322 . S
Ho3280 O3302 2.378 . S
Ho3280 O3303 2.524 . S
Ho3280 O3304 2.381 . S
Ho3280 O3305 2.669 . S
Ho3280 O3307 2.346 . S
Ho3280 O3311 2.305 . S
Ho3281 C3292 2.811 . S
Ho3281 O3301 2.346 . S
Ho3281 O3305 2.305 . S
Ho3281 O3306 2.322 . S
Ho3281 O3308 2.378 . S
Ho3281 O3309 2.524 . S
Ho3281 O3310 2.381 . S
Ho3281 O3311 2.669 . S
C3282 O3300 1.259 . S
C3282 O3301 1.268 . S
C3283 Ho3280 2.811 . S
C3283 C3284 1.488 . S
C3283 O3302 1.215 . S
C3283 O3303 1.289 . S
C3284 C3283 1.488 . S
C3284 C3285 1.348 . S
C3284 C3289 1.413 . S
C3285 C3284 1.348 . S
C3285 C3286 1.442 . S
C3285 H3312 0.930 . S
C3286 C3285 1.442 . S
C3286 C3287 1.381 . S
C3286 H3313 0.931 . S
C3287 C3286 1.381 . S
C3287 C3288 1.321 . S
C3288 C3287 1.321 . S
C3288 C3289 1.403 . S
C3288 H3314 0.934 . S
C3289 C3284 1.413 . S
C3289 C3288 1.403 . S
C3289 H3315 0.930 . S
C3290 O3304 1.275 . S
C3290 O3305 1.256 . S
C3291 O3306 1.259 . S
C3291 O3307 1.268 . S
C3292 Ho3281 2.811 . S
C3292 C3293 1.488 . S
C3292 O3308 1.215 . S
C3292 O3309 1.289 . S
C3293 C3292 1.488 . S
C3293 C3294 1.348 . S
C3293 C3298 1.413 . S
C3294 C3293 1.348 . S
C3294 C3295 1.442 . S
C3294 H3316 0.930 . S
C3295 C3294 1.442 . S
C3295 C3296 1.381 . S
C3295 H3317 0.931 . S
C3296 C3295 1.381 . S
C3296 C3297 1.321 . S
C3297 C3296 1.321 . S
C3297 C3298 1.403 . S
C3297 H3318 0.934 . S
C3298 C3293 1.413 . S
C3298 C3297 1.403 . S
C3298 H3319 0.930 . S
C3299 O3310 1.275 . S
C3299 O3311 1.256 . S
O3300 Ho3280 2.322 . S
O3300 C3282 1.259 . S
O3301 Ho3281 2.346 . S
O3301 C3282 1.268 . S
O3302 Ho3280 2.378 . S
O3302 C3283 1.215 . S
O3303 Ho3280 2.524 . S
O3303 C3283 1.289 . S
O3304 Ho3280 2.381 . S
O3304 C3290 1.275 . S
O3305 Ho3280 2.669 . S
O3305 Ho3281 2.305 . S
O3305 C3290 1.256 . S
O3306 Ho3281 2.322 . S
O3306 C3291 1.259 . S
O3307 Ho3280 2.346 . S
O3307 C3291 1.268 . S
O3308 Ho3281 2.378 . S
O3308 C3292 1.215 . S
O3309 Ho3281 2.524 . S
O3309 C3292 1.289 . S
O3310 Ho3281 2.381 . S
O3310 C3299 1.275 . S
O3311 Ho3280 2.305 . S
O3311 Ho3281 2.669 . S
O3311 C3299 1.256 . S
H3312 C3285 0.930 . S
H3313 C3286 0.931 . S
H3314 C3288 0.934 . S
H3315 C3289 0.930 . S
H3316 C3294 0.930 . S
H3317 C3295 0.931 . S
H3318 C3297 0.934 . S
H3319 C3298 0.930 . S
Ho3320 C3323 2.811 . S
Ho3320 O3340 2.322 . S
Ho3320 O3342 2.378 . S
Ho3320 O3343 2.524 . S
Ho3320 O3344 2.381 . S
Ho3320 O3345 2.669 . S
Ho3320 O3347 2.346 . S
Ho3320 O3351 2.305 . S
Ho3321 C3332 2.811 . S
Ho3321 O3341 2.346 . S
Ho3321 O3345 2.305 . S
Ho3321 O3346 2.322 . S
Ho3321 O3348 2.378 . S
Ho3321 O3349 2.524 . S
Ho3321 O3350 2.381 . S
Ho3321 O3351 2.669 . S
C3322 O3340 1.259 . S
C3322 O3341 1.268 . S
C3323 Ho3320 2.811 . S
C3323 C3324 1.488 . S
C3323 O3342 1.215 . S
C3323 O3343 1.289 . S
C3324 C3323 1.488 . S
C3324 C3325 1.348 . S
C3324 C3329 1.413 . S
C3325 C3324 1.348 . S
C3325 C3326 1.442 . S
C3325 H3352 0.930 . S
C3326 C3325 1.442 . S
C3326 C3327 1.381 . S
C3326 H3353 0.931 . S
C3327 C3326 1.381 . S
C3327 C3328 1.321 . S
C3328 C3327 1.321 . S
C3328 C3329 1.403 . S
C3328 H3354 0.934 . S
C3329 C3324 1.413 . S
C3329 C3328 1.403 . S
C3329 H3355 0.930 . S
C3330 O3344 1.275 . S
C3330 O3345 1.256 . S
C3331 O3346 1.259 . S
C3331 O3347 1.268 . S
C3332 Ho3321 2.811 . S
C3332 C3333 1.488 . S
C3332 O3348 1.215 . S
C3332 O3349 1.289 . S
C3333 C3332 1.488 . S
C3333 C3334 1.348 . S
C3333 C3338 1.413 . S
C3334 C3333 1.348 . S
C3334 C3335 1.442 . S
C3334 H3356 0.930 . S
C3335 C3334 1.442 . S
C3335 C3336 1.381 . S
C3335 H3357 0.931 . S
C3336 C3335 1.381 . S
C3336 C3337 1.321 . S
C3337 C3336 1.321 . S
C3337 C3338 1.403 . S
C3337 H3358 0.934 . S
C3338 C3333 1.413 . S
C3338 C3337 1.403 . S
C3338 H3359 0.930 . S
C3339 O3350 1.275 . S
C3339 O3351 1.256 . S
O3340 Ho3320 2.322 . S
O3340 C3322 1.259 . S
O3341 Ho3321 2.346 . S
O3341 C3322 1.268 . S
O3342 Ho3320 2.378 . S
O3342 C3323 1.215 . S
O3343 Ho3320 2.524 . S
O3343 C3323 1.289 . S
O3344 Ho3320 2.381 . S
O3344 C3330 1.275 . S
O3345 Ho3320 2.669 . S
O3345 Ho3321 2.305 . S
O3345 C3330 1.256 . S
O3346 Ho3321 2.322 . S
O3346 C3331 1.259 . S
O3347 Ho3320 2.346 . S
O3347 C3331 1.268 . S
O3348 Ho3321 2.378 . S
O3348 C3332 1.215 . S
O3349 Ho3321 2.524 . S
O3349 C3332 1.289 . S
O3350 Ho3321 2.381 . S
O3350 C3339 1.275 . S
O3351 Ho3320 2.305 . S
O3351 Ho3321 2.669 . S
O3351 C3339 1.256 . S
H3352 C3325 0.930 . S
H3353 C3326 0.931 . S
H3354 C3328 0.934 . S
H3355 C3329 0.930 . S
H3356 C3334 0.930 . S
H3357 C3335 0.931 . S
H3358 C3337 0.934 . S
H3359 C3338 0.930 . S
Ho3360 C3363 2.811 . S
Ho3360 O3380 2.322 . S
Ho3360 O3382 2.378 . S
Ho3360 O3383 2.524 . S
Ho3360 O3384 2.381 . S
Ho3360 O3385 2.669 . S
Ho3360 O3387 2.346 . S
Ho3360 O3391 2.305 . S
Ho3361 C3372 2.811 . S
Ho3361 O3381 2.346 . S
Ho3361 O3385 2.305 . S
Ho3361 O3386 2.322 . S
Ho3361 O3388 2.378 . S
Ho3361 O3389 2.524 . S
Ho3361 O3390 2.381 . S
Ho3361 O3391 2.669 . S
C3362 O3380 1.259 . S
C3362 O3381 1.268 . S
C3363 Ho3360 2.811 . S
C3363 C3364 1.488 . S
C3363 O3382 1.215 . S
C3363 O3383 1.289 . S
C3364 C3363 1.488 . S
C3364 C3365 1.348 . S
C3364 C3369 1.413 . S
C3365 C3364 1.348 . S
C3365 C3366 1.442 . S
C3365 H3392 0.930 . S
C3366 C3365 1.442 . S
C3366 C3367 1.381 . S
C3366 H3393 0.931 . S
C3367 C3366 1.381 . S
C3367 C3368 1.321 . S
C3368 C3367 1.321 . S
C3368 C3369 1.403 . S
C3368 H3394 0.934 . S
C3369 C3364 1.413 . S
C3369 C3368 1.403 . S
C3369 H3395 0.930 . S
C3370 O3384 1.275 . S
C3370 O3385 1.256 . S
C3371 O3386 1.259 . S
C3371 O3387 1.268 . S
C3372 Ho3361 2.811 . S
C3372 C3373 1.488 . S
C3372 O3388 1.215 . S
C3372 O3389 1.289 . S
C3373 C3372 1.488 . S
C3373 C3374 1.348 . S
C3373 C3378 1.413 . S
C3374 C3373 1.348 . S
C3374 C3375 1.442 . S
C3374 H3396 0.930 . S
C3375 C3374 1.442 . S
C3375 C3376 1.381 . S
C3375 H3397 0.931 . S
C3376 C3375 1.381 . S
C3376 C3377 1.321 . S
C3377 C3376 1.321 . S
C3377 C3378 1.403 . S
C3377 H3398 0.934 . S
C3378 C3373 1.413 . S
C3378 C3377 1.403 . S
C3378 H3399 0.930 . S
C3379 O3390 1.275 . S
C3379 O3391 1.256 . S
O3380 Ho3360 2.322 . S
O3380 C3362 1.259 . S
O3381 Ho3361 2.346 . S
O3381 C3362 1.268 . S
O3382 Ho3360 2.378 . S
O3382 C3363 1.215 . S
O3383 Ho3360 2.524 . S
O3383 C3363 1.289 . S
O3384 Ho3360 2.381 . S
O3384 C3370 1.275 . S
O3385 Ho3360 2.669 . S
O3385 Ho3361 2.305 . S
O3385 C3370 1.256 . S
O3386 Ho3361 2.322 . S
O3386 C3371 1.259 . S
O3387 Ho3360 2.346 . S
O3387 C3371 1.268 . S
O3388 Ho3361 2.378 . S
O3388 C3372 1.215 . S
O3389 Ho3361 2.524 . S
O3389 C3372 1.289 . S
O3390 Ho3361 2.381 . S
O3390 C3379 1.275 . S
O3391 Ho3360 2.305 . S
O3391 Ho3361 2.669 . S
O3391 C3379 1.256 . S
H3392 C3365 0.930 . S
H3393 C3366 0.931 . S
H3394 C3368 0.934 . S
H3395 C3369 0.930 . S
H3396 C3374 0.930 . S
H3397 C3375 0.931 . S
H3398 C3377 0.934 . S
H3399 C3378 0.930 . S
Ho3400 C3403 2.811 . S
Ho3400 O3420 2.322 . S
Ho3400 O3422 2.378 . S
Ho3400 O3423 2.524 . S
Ho3400 O3424 2.381 . S
Ho3400 O3425 2.669 . S
Ho3400 O3427 2.346 . S
Ho3400 O3431 2.305 . S
Ho3401 C3412 2.811 . S
Ho3401 O3421 2.346 . S
Ho3401 O3425 2.305 . S
Ho3401 O3426 2.322 . S
Ho3401 O3428 2.378 . S
Ho3401 O3429 2.524 . S
Ho3401 O3430 2.381 . S
Ho3401 O3431 2.669 . S
C3402 O3420 1.259 . S
C3402 O3421 1.268 . S
C3403 Ho3400 2.811 . S
C3403 C3404 1.488 . S
C3403 O3422 1.215 . S
C3403 O3423 1.289 . S
C3404 C3403 1.488 . S
C3404 C3405 1.348 . S
C3404 C3409 1.413 . S
C3405 C3404 1.348 . S
C3405 C3406 1.442 . S
C3405 H3432 0.930 . S
C3406 C3405 1.442 . S
C3406 C3407 1.381 . S
C3406 H3433 0.931 . S
C3407 C3406 1.381 . S
C3407 C3408 1.321 . S
C3408 C3407 1.321 . S
C3408 C3409 1.403 . S
C3408 H3434 0.934 . S
C3409 C3404 1.413 . S
C3409 C3408 1.403 . S
C3409 H3435 0.930 . S
C3410 O3424 1.275 . S
C3410 O3425 1.256 . S
C3411 O3426 1.259 . S
C3411 O3427 1.268 . S
C3412 Ho3401 2.811 . S
C3412 C3413 1.488 . S
C3412 O3428 1.215 . S
C3412 O3429 1.289 . S
C3413 C3412 1.488 . S
C3413 C3414 1.348 . S
C3413 C3418 1.413 . S
C3414 C3413 1.348 . S
C3414 C3415 1.442 . S
C3414 H3436 0.930 . S
C3415 C3414 1.442 . S
C3415 C3416 1.381 . S
C3415 H3437 0.931 . S
C3416 C3415 1.381 . S
C3416 C3417 1.321 . S
C3417 C3416 1.321 . S
C3417 C3418 1.403 . S
C3417 H3438 0.934 . S
C3418 C3413 1.413 . S
C3418 C3417 1.403 . S
C3418 H3439 0.930 . S
C3419 O3430 1.275 . S
C3419 O3431 1.256 . S
O3420 Ho3400 2.322 . S
O3420 C3402 1.259 . S
O3421 Ho3401 2.346 . S
O3421 C3402 1.268 . S
O3422 Ho3400 2.378 . S
O3422 C3403 1.215 . S
O3423 Ho3400 2.524 . S
O3423 C3403 1.289 . S
O3424 Ho3400 2.381 . S
O3424 C3410 1.275 . S
O3425 Ho3400 2.669 . S
O3425 Ho3401 2.305 . S
O3425 C3410 1.256 . S
O3426 Ho3401 2.322 . S
O3426 C3411 1.259 . S
O3427 Ho3400 2.346 . S
O3427 C3411 1.268 . S
O3428 Ho3401 2.378 . S
O3428 C3412 1.215 . S
O3429 Ho3401 2.524 . S
O3429 C3412 1.289 . S
O3430 Ho3401 2.381 . S
O3430 C3419 1.275 . S
O3431 Ho3400 2.305 . S
O3431 Ho3401 2.669 . S
O3431 C3419 1.256 . S
H3432 C3405 0.930 . S
H3433 C3406 0.931 . S
H3434 C3408 0.934 . S
H3435 C3409 0.930 . S
H3436 C3414 0.930 . S
H3437 C3415 0.931 . S
H3438 C3417 0.934 . S
H3439 C3418 0.930 . S
Ho3440 C3443 2.811 . S
Ho3440 O3460 2.322 . S
Ho3440 O3462 2.378 . S
Ho3440 O3463 2.524 . S
Ho3440 O3464 2.381 . S
Ho3440 O3465 2.669 . S
Ho3440 O3467 2.346 . S
Ho3440 O3471 2.305 . S
Ho3441 C3452 2.811 . S
Ho3441 O3461 2.346 . S
Ho3441 O3465 2.305 . S
Ho3441 O3466 2.322 . S
Ho3441 O3468 2.378 . S
Ho3441 O3469 2.524 . S
Ho3441 O3470 2.381 . S
Ho3441 O3471 2.669 . S
C3442 O3460 1.259 . S
C3442 O3461 1.268 . S
C3443 Ho3440 2.811 . S
C3443 C3444 1.488 . S
C3443 O3462 1.215 . S
C3443 O3463 1.289 . S
C3444 C3443 1.488 . S
C3444 C3445 1.348 . S
C3444 C3449 1.413 . S
C3445 C3444 1.348 . S
C3445 C3446 1.442 . S
C3445 H3472 0.930 . S
C3446 C3445 1.442 . S
C3446 C3447 1.381 . S
C3446 H3473 0.931 . S
C3447 C3446 1.381 . S
C3447 C3448 1.321 . S
C3448 C3447 1.321 . S
C3448 C3449 1.403 . S
C3448 H3474 0.934 . S
C3449 C3444 1.413 . S
C3449 C3448 1.403 . S
C3449 H3475 0.930 . S
C3450 O3464 1.275 . S
C3450 O3465 1.256 . S
C3451 O3466 1.259 . S
C3451 O3467 1.268 . S
C3452 Ho3441 2.811 . S
C3452 C3453 1.488 . S
C3452 O3468 1.215 . S
C3452 O3469 1.289 . S
C3453 C3452 1.488 . S
C3453 C3454 1.348 . S
C3453 C3458 1.413 . S
C3454 C3453 1.348 . S
C3454 C3455 1.442 . S
C3454 H3476 0.930 . S
C3455 C3454 1.442 . S
C3455 C3456 1.381 . S
C3455 H3477 0.931 . S
C3456 C3455 1.381 . S
C3456 C3457 1.321 . S
C3457 C3456 1.321 . S
C3457 C3458 1.403 . S
C3457 H3478 0.934 . S
C3458 C3453 1.413 . S
C3458 C3457 1.403 . S
C3458 H3479 0.930 . S
C3459 O3470 1.275 . S
C3459 O3471 1.256 . S
O3460 Ho3440 2.322 . S
O3460 C3442 1.259 . S
O3461 Ho3441 2.346 . S
O3461 C3442 1.268 . S
O3462 Ho3440 2.378 . S
O3462 C3443 1.215 . S
O3463 Ho3440 2.524 . S
O3463 C3443 1.289 . S
O3464 Ho3440 2.381 . S
O3464 C3450 1.275 . S
O3465 Ho3440 2.669 . S
O3465 Ho3441 2.305 . S
O3465 C3450 1.256 . S
O3466 Ho3441 2.322 . S
O3466 C3451 1.259 . S
O3467 Ho3440 2.346 . S
O3467 C3451 1.268 . S
O3468 Ho3441 2.378 . S
O3468 C3452 1.215 . S
O3469 Ho3441 2.524 . S
O3469 C3452 1.289 . S
O3470 Ho3441 2.381 . S
O3470 C3459 1.275 . S
O3471 Ho3440 2.305 . S
O3471 Ho3441 2.669 . S
O3471 C3459 1.256 . S
H3472 C3445 0.930 . S
H3473 C3446 0.931 . S
H3474 C3448 0.934 . S
H3475 C3449 0.930 . S
H3476 C3454 0.930 . S
H3477 C3455 0.931 . S
H3478 C3457 0.934 . S
H3479 C3458 0.930 . S
Ho3480 C3483 2.811 . S
Ho3480 O3500 2.322 . S
Ho3480 O3502 2.378 . S
Ho3480 O3503 2.524 . S
Ho3480 O3504 2.381 . S
Ho3480 O3505 2.669 . S
Ho3480 O3507 2.346 . S
Ho3480 O3511 2.305 . S
Ho3481 C3492 2.811 . S
Ho3481 O3501 2.346 . S
Ho3481 O3505 2.305 . S
Ho3481 O3506 2.322 . S
Ho3481 O3508 2.378 . S
Ho3481 O3509 2.524 . S
Ho3481 O3510 2.381 . S
Ho3481 O3511 2.669 . S
C3482 O3500 1.259 . S
C3482 O3501 1.268 . S
C3483 Ho3480 2.811 . S
C3483 C3484 1.488 . S
C3483 O3502 1.215 . S
C3483 O3503 1.289 . S
C3484 C3483 1.488 . S
C3484 C3485 1.348 . S
C3484 C3489 1.413 . S
C3485 C3484 1.348 . S
C3485 C3486 1.442 . S
C3485 H3512 0.930 . S
C3486 C3485 1.442 . S
C3486 C3487 1.381 . S
C3486 H3513 0.931 . S
C3487 C3486 1.381 . S
C3487 C3488 1.321 . S
C3488 C3487 1.321 . S
C3488 C3489 1.403 . S
C3488 H3514 0.934 . S
C3489 C3484 1.413 . S
C3489 C3488 1.403 . S
C3489 H3515 0.930 . S
C3490 O3504 1.275 . S
C3490 O3505 1.256 . S
C3491 O3506 1.259 . S
C3491 O3507 1.268 . S
C3492 Ho3481 2.811 . S
C3492 C3493 1.488 . S
C3492 O3508 1.215 . S
C3492 O3509 1.289 . S
C3493 C3492 1.488 . S
C3493 C3494 1.348 . S
C3493 C3498 1.413 . S
C3494 C3493 1.348 . S
C3494 C3495 1.442 . S
C3494 H3516 0.930 . S
C3495 C3494 1.442 . S
C3495 C3496 1.381 . S
C3495 H3517 0.931 . S
C3496 C3495 1.381 . S
C3496 C3497 1.321 . S
C3497 C3496 1.321 . S
C3497 C3498 1.403 . S
C3497 H3518 0.934 . S
C3498 C3493 1.413 . S
C3498 C3497 1.403 . S
C3498 H3519 0.930 . S
C3499 O3510 1.275 . S
C3499 O3511 1.256 . S
O3500 Ho3480 2.322 . S
O3500 C3482 1.259 . S
O3501 Ho3481 2.346 . S
O3501 C3482 1.268 . S
O3502 Ho3480 2.378 . S
O3502 C3483 1.215 . S
O3503 Ho3480 2.524 . S
O3503 C3483 1.289 . S
O3504 Ho3480 2.381 . S
O3504 C3490 1.275 . S
O3505 Ho3480 2.669 . S
O3505 Ho3481 2.305 . S
O3505 C3490 1.256 . S
O3506 Ho3481 2.322 . S
O3506 C3491 1.259 . S
O3507 Ho3480 2.346 . S
O3507 C3491 1.268 . S
O3508 Ho3481 2.378 . S
O3508 C3492 1.215 . S
O3509 Ho3481 2.524 . S
O3509 C3492 1.289 . S
O3510 Ho3481 2.381 . S
O3510 C3499 1.275 . S
O3511 Ho3480 2.305 . S
O3511 Ho3481 2.669 . S
O3511 C3499 1.256 . S
H3512 C3485 0.930 . S
H3513 C3486 0.931 . S
H3514 C3488 0.934 . S
H3515 C3489 0.930 . S
H3516 C3494 0.930 . S
H3517 C3495 0.931 . S
H3518 C3497 0.934 . S
H3519 C3498 0.930 . S
Ho3520 C3523 2.811 . S
Ho3520 O3540 2.322 . S
Ho3520 O3542 2.378 . S
Ho3520 O3543 2.524 . S
Ho3520 O3544 2.381 . S
Ho3520 O3545 2.669 . S
Ho3520 O3547 2.346 . S
Ho3520 O3551 2.305 . S
Ho3521 C3532 2.811 . S
Ho3521 O3541 2.346 . S
Ho3521 O3545 2.305 . S
Ho3521 O3546 2.322 . S
Ho3521 O3548 2.378 . S
Ho3521 O3549 2.524 . S
Ho3521 O3550 2.381 . S
Ho3521 O3551 2.669 . S
C3522 O3540 1.259 . S
C3522 O3541 1.268 . S
C3523 Ho3520 2.811 . S
C3523 C3524 1.488 . S
C3523 O3542 1.215 . S
C3523 O3543 1.289 . S
C3524 C3523 1.488 . S
C3524 C3525 1.348 . S
C3524 C3529 1.413 . S
C3525 C3524 1.348 . S
C3525 C3526 1.442 . S
C3525 H3552 0.930 . S
C3526 C3525 1.442 . S
C3526 C3527 1.381 . S
C3526 H3553 0.931 . S
C3527 C3526 1.381 . S
C3527 C3528 1.321 . S
C3528 C3527 1.321 . S
C3528 C3529 1.403 . S
C3528 H3554 0.934 . S
C3529 C3524 1.413 . S
C3529 C3528 1.403 . S
C3529 H3555 0.930 . S
C3530 O3544 1.275 . S
C3530 O3545 1.256 . S
C3531 O3546 1.259 . S
C3531 O3547 1.268 . S
C3532 Ho3521 2.811 . S
C3532 C3533 1.488 . S
C3532 O3548 1.215 . S
C3532 O3549 1.289 . S
C3533 C3532 1.488 . S
C3533 C3534 1.348 . S
C3533 C3538 1.413 . S
C3534 C3533 1.348 . S
C3534 C3535 1.442 . S
C3534 H3556 0.930 . S
C3535 C3534 1.442 . S
C3535 C3536 1.381 . S
C3535 H3557 0.931 . S
C3536 C3535 1.381 . S
C3536 C3537 1.321 . S
C3537 C3536 1.321 . S
C3537 C3538 1.403 . S
C3537 H3558 0.934 . S
C3538 C3533 1.413 . S
C3538 C3537 1.403 . S
C3538 H3559 0.930 . S
C3539 O3550 1.275 . S
C3539 O3551 1.256 . S
O3540 Ho3520 2.322 . S
O3540 C3522 1.259 . S
O3541 Ho3521 2.346 . S
O3541 C3522 1.268 . S
O3542 Ho3520 2.378 . S
O3542 C3523 1.215 . S
O3543 Ho3520 2.524 . S
O3543 C3523 1.289 . S
O3544 Ho3520 2.381 . S
O3544 C3530 1.275 . S
O3545 Ho3520 2.669 . S
O3545 Ho3521 2.305 . S
O3545 C3530 1.256 . S
O3546 Ho3521 2.322 . S
O3546 C3531 1.259 . S
O3547 Ho3520 2.346 . S
O3547 C3531 1.268 . S
O3548 Ho3521 2.378 . S
O3548 C3532 1.215 . S
O3549 Ho3521 2.524 . S
O3549 C3532 1.289 . S
O3550 Ho3521 2.381 . S
O3550 C3539 1.275 . S
O3551 Ho3520 2.305 . S
O3551 Ho3521 2.669 . S
O3551 C3539 1.256 . S
H3552 C3525 0.930 . S
H3553 C3526 0.931 . S
H3554 C3528 0.934 . S
H3555 C3529 0.930 . S
H3556 C3534 0.930 . S
H3557 C3535 0.931 . S
H3558 C3537 0.934 . S
H3559 C3538 0.930 . S
Ho3560 C3563 2.811 . S
Ho3560 O3580 2.322 . S
Ho3560 O3582 2.378 . S
Ho3560 O3583 2.524 . S
Ho3560 O3584 2.381 . S
Ho3560 O3585 2.669 . S
Ho3560 O3587 2.346 . S
Ho3560 O3591 2.305 . S
Ho3561 C3572 2.811 . S
Ho3561 O3581 2.346 . S
Ho3561 O3585 2.305 . S
Ho3561 O3586 2.322 . S
Ho3561 O3588 2.378 . S
Ho3561 O3589 2.524 . S
Ho3561 O3590 2.381 . S
Ho3561 O3591 2.669 . S
C3562 O3580 1.259 . S
C3562 O3581 1.268 . S
C3563 Ho3560 2.811 . S
C3563 C3564 1.488 . S
C3563 O3582 1.215 . S
C3563 O3583 1.289 . S
C3564 C3563 1.488 . S
C3564 C3565 1.348 . S
C3564 C3569 1.413 . S
C3565 C3564 1.348 . S
C3565 C3566 1.442 . S
C3565 H3592 0.930 . S
C3566 C3565 1.442 . S
C3566 C3567 1.381 . S
C3566 H3593 0.931 . S
C3567 C3566 1.381 . S
C3567 C3568 1.321 . S
C3568 C3567 1.321 . S
C3568 C3569 1.403 . S
C3568 H3594 0.934 . S
C3569 C3564 1.413 . S
C3569 C3568 1.403 . S
C3569 H3595 0.930 . S
C3570 O3584 1.275 . S
C3570 O3585 1.256 . S
C3571 O3586 1.259 . S
C3571 O3587 1.268 . S
C3572 Ho3561 2.811 . S
C3572 C3573 1.488 . S
C3572 O3588 1.215 . S
C3572 O3589 1.289 . S
C3573 C3572 1.488 . S
C3573 C3574 1.348 . S
C3573 C3578 1.413 . S
C3574 C3573 1.348 . S
C3574 C3575 1.442 . S
C3574 H3596 0.930 . S
C3575 C3574 1.442 . S
C3575 C3576 1.381 . S
C3575 H3597 0.931 . S
C3576 C3575 1.381 . S
C3576 C3577 1.321 . S
C3577 C3576 1.321 . S
C3577 C3578 1.403 . S
C3577 H3598 0.934 . S
C3578 C3573 1.413 . S
C3578 C3577 1.403 . S
C3578 H3599 0.930 . S
C3579 O3590 1.275 . S
C3579 O3591 1.256 . S
O3580 Ho3560 2.322 . S
O3580 C3562 1.259 . S
O3581 Ho3561 2.346 . S
O3581 C3562 1.268 . S
O3582 Ho3560 2.378 . S
O3582 C3563 1.215 . S
O3583 Ho3560 2.524 . S
O3583 C3563 1.289 . S
O3584 Ho3560 2.381 . S
O3584 C3570 1.275 . S
O3585 Ho3560 2.669 . S
O3585 Ho3561 2.305 . S
O3585 C3570 1.256 . S
O3586 Ho3561 2.322 . S
O3586 C3571 1.259 . S
O3587 Ho3560 2.346 . S
O3587 C3571 1.268 . S
O3588 Ho3561 2.378 . S
O3588 C3572 1.215 . S
O3589 Ho3561 2.524 . S
O3589 C3572 1.289 . S
O3590 Ho3561 2.381 . S
O3590 C3579 1.275 . S
O3591 Ho3560 2.305 . S
O3591 Ho3561 2.669 . S
O3591 C3579 1.256 . S
H3592 C3565 0.930 . S
H3593 C3566 0.931 . S
H3594 C3568 0.934 . S
H3595 C3569 0.930 . S
H3596 C3574 0.930 . S
H3597 C3575 0.931 . S
H3598 C3577 0.934 . S
H3599 C3578 0.930 . S
Ho3600 C3603 2.811 . S
Ho3600 O3620 2.322 . S
Ho3600 O3622 2.378 . S
Ho3600 O3623 2.524 . S
Ho3600 O3624 2.381 . S
Ho3600 O3625 2.669 . S
Ho3600 O3627 2.346 . S
Ho3600 O3631 2.305 . S
Ho3601 C3612 2.811 . S
Ho3601 O3621 2.346 . S
Ho3601 O3625 2.305 . S
Ho3601 O3626 2.322 . S
Ho3601 O3628 2.378 . S
Ho3601 O3629 2.524 . S
Ho3601 O3630 2.381 . S
Ho3601 O3631 2.669 . S
C3602 O3620 1.259 . S
C3602 O3621 1.268 . S
C3603 Ho3600 2.811 . S
C3603 C3604 1.488 . S
C3603 O3622 1.215 . S
C3603 O3623 1.289 . S
C3604 C3603 1.488 . S
C3604 C3605 1.348 . S
C3604 C3609 1.413 . S
C3605 C3604 1.348 . S
C3605 C3606 1.442 . S
C3605 H3632 0.930 . S
C3606 C3605 1.442 . S
C3606 C3607 1.381 . S
C3606 H3633 0.931 . S
C3607 C3606 1.381 . S
C3607 C3608 1.321 . S
C3608 C3607 1.321 . S
C3608 C3609 1.403 . S
C3608 H3634 0.934 . S
C3609 C3604 1.413 . S
C3609 C3608 1.403 . S
C3609 H3635 0.930 . S
C3610 O3624 1.275 . S
C3610 O3625 1.256 . S
C3611 O3626 1.259 . S
C3611 O3627 1.268 . S
C3612 Ho3601 2.811 . S
C3612 C3613 1.488 . S
C3612 O3628 1.215 . S
C3612 O3629 1.289 . S
C3613 C3612 1.488 . S
C3613 C3614 1.348 . S
C3613 C3618 1.413 . S
C3614 C3613 1.348 . S
C3614 C3615 1.442 . S
C3614 H3636 0.930 . S
C3615 C3614 1.442 . S
C3615 C3616 1.381 . S
C3615 H3637 0.931 . S
C3616 C3615 1.381 . S
C3616 C3617 1.321 . S
C3617 C3616 1.321 . S
C3617 C3618 1.403 . S
C3617 H3638 0.934 . S
C3618 C3613 1.413 . S
C3618 C3617 1.403 . S
C3618 H3639 0.930 . S
C3619 O3630 1.275 . S
C3619 O3631 1.256 . S
O3620 Ho3600 2.322 . S
O3620 C3602 1.259 . S
O3621 Ho3601 2.346 . S
O3621 C3602 1.268 . S
O3622 Ho3600 2.378 . S
O3622 C3603 1.215 . S
O3623 Ho3600 2.524 . S
O3623 C3603 1.289 . S
O3624 Ho3600 2.381 . S
O3624 C3610 1.275 . S
O3625 Ho3600 2.669 . S
O3625 Ho3601 2.305 . S
O3625 C3610 1.256 . S
O3626 Ho3601 2.322 . S
O3626 C3611 1.259 . S
O3627 Ho3600 2.346 . S
O3627 C3611 1.268 . S
O3628 Ho3601 2.378 . S
O3628 C3612 1.215 . S
O3629 Ho3601 2.524 . S
O3629 C3612 1.289 . S
O3630 Ho3601 2.381 . S
O3630 C3619 1.275 . S
O3631 Ho3600 2.305 . S
O3631 Ho3601 2.669 . S
O3631 C3619 1.256 . S
H3632 C3605 0.930 . S
H3633 C3606 0.931 . S
H3634 C3608 0.934 . S
H3635 C3609 0.930 . S
H3636 C3614 0.930 . S
H3637 C3615 0.931 . S
H3638 C3617 0.934 . S
H3639 C3618 0.930 . S
Ho3640 C3643 2.811 . S
Ho3640 O3660 2.322 . S
Ho3640 O3662 2.378 . S
Ho3640 O3663 2.524 . S
Ho3640 O3664 2.381 1_556 S
Ho3640 O3665 2.669 1_556 S
Ho3640 O3667 2.346 1_556 S
Ho3640 O3671 2.305 . S
Ho3641 C3652 2.811 . S
Ho3641 O3661 2.346 1_554 S
Ho3641 O3665 2.305 . S
Ho3641 O3666 2.322 . S
Ho3641 O3668 2.378 . S
Ho3641 O3669 2.524 . S
Ho3641 O3670 2.377 1_554 S
Ho3641 O3671 2.669 1_554 S
C3642 O3660 1.259 . S
C3642 O3661 1.268 . S
C3643 Ho3640 2.811 . S
C3643 C3644 1.488 . S
C3643 O3662 1.215 . S
C3643 O3663 1.289 . S
C3644 C3643 1.488 . S
C3644 C3645 1.348 . S
C3644 C3649 1.413 . S
C3645 C3644 1.348 . S
C3645 C3646 1.442 . S
C3645 H3672 0.930 . S
C3646 C3645 1.442 . S
C3646 C3647 1.381 . S
C3646 H3673 0.931 . S
C3647 C3646 1.381 . S
C3647 C3648 1.321 . S
C3648 C3647 1.321 . S
C3648 C3649 1.403 . S
C3648 H3674 0.934 . S
C3649 C3644 1.413 . S
C3649 C3648 1.403 . S
C3649 H3675 0.930 . S
C3650 O3664 1.275 . S
C3650 O3665 1.256 . S
C3651 O3666 1.259 . S
C3651 O3667 1.268 . S
C3652 Ho3641 2.811 . S
C3652 C3653 1.488 . S
C3652 O3668 1.215 . S
C3652 O3669 1.289 . S
C3653 C3652 1.488 . S
C3653 C3654 1.348 . S
C3653 C3658 1.413 . S
C3654 C3653 1.348 . S
C3654 C3655 1.442 . S
C3654 H3676 0.930 . S
C3655 C3654 1.442 . S
C3655 C3656 1.381 . S
C3655 H3677 0.931 . S
C3656 C3655 1.381 . S
C3656 C3657 1.321 . S
C3657 C3656 1.321 . S
C3657 C3658 1.403 . S
C3657 H3678 0.934 . S
C3658 C3653 1.413 . S
C3658 C3657 1.403 . S
C3658 H3679 0.930 . S
C3659 O3670 1.280 . S
C3659 O3671 1.256 . S
O3660 Ho3640 2.322 . S
O3660 C3642 1.259 . S
O3661 Ho3641 2.346 1_556 S
O3661 C3642 1.268 . S
O3662 Ho3640 2.378 . S
O3662 C3643 1.215 . S
O3663 Ho3640 2.524 . S
O3663 C3643 1.289 . S
O3664 Ho3640 2.381 1_554 S
O3664 C3650 1.275 . S
O3665 Ho3640 2.669 1_554 S
O3665 Ho3641 2.305 . S
O3665 C3650 1.256 . S
O3666 Ho3641 2.322 . S
O3666 C3651 1.259 . S
O3667 Ho3640 2.346 1_554 S
O3667 C3651 1.268 . S
O3668 Ho3641 2.378 . S
O3668 C3652 1.215 . S
O3669 Ho3641 2.524 . S
O3669 C3652 1.289 . S
O3670 Ho3641 2.377 1_556 S
O3670 C3659 1.280 . S
O3671 Ho3640 2.305 . S
O3671 Ho3641 2.669 1_556 S
O3671 C3659 1.256 . S
H3672 C3645 0.930 . S
H3673 C3646 0.931 . S
H3674 C3648 0.934 . S
H3675 C3649 0.930 . S
H3676 C3654 0.930 . S
H3677 C3655 0.931 . S
H3678 C3657 0.934 . S
H3679 C3658 0.930 . S
Ho3680 C3683 2.811 . S
Ho3680 O3700 2.322 . S
Ho3680 O3702 2.378 . S
Ho3680 O3703 2.524 . S
Ho3680 O3704 2.381 . S
Ho3680 O3705 2.669 . S
Ho3680 O3707 2.346 . S
Ho3680 O3711 2.305 . S
Ho3681 C3692 2.811 . S
Ho3681 O3701 2.346 . S
Ho3681 O3705 2.305 . S
Ho3681 O3706 2.322 . S
Ho3681 O3708 2.378 . S
Ho3681 O3709 2.524 . S
Ho3681 O3710 2.381 . S
Ho3681 O3711 2.669 . S
C3682 O3700 1.259 . S
C3682 O3701 1.268 . S
C3683 Ho3680 2.811 . S
C3683 C3684 1.488 . S
C3683 O3702 1.215 . S
C3683 O3703 1.289 . S
C3684 C3683 1.488 . S
C3684 C3685 1.348 . S
C3684 C3689 1.413 . S
C3685 C3684 1.348 . S
C3685 C3686 1.442 . S
C3685 H3712 0.930 . S
C3686 C3685 1.442 . S
C3686 C3687 1.381 . S
C3686 H3713 0.931 . S
C3687 C3686 1.381 . S
C3687 C3688 1.321 . S
C3688 C3687 1.321 . S
C3688 C3689 1.403 . S
C3688 H3714 0.934 . S
C3689 C3684 1.413 . S
C3689 C3688 1.403 . S
C3689 H3715 0.930 . S
C3690 O3704 1.275 . S
C3690 O3705 1.256 . S
C3691 O3706 1.259 . S
C3691 O3707 1.268 . S
C3692 Ho3681 2.811 . S
C3692 C3693 1.488 . S
C3692 O3708 1.215 . S
C3692 O3709 1.289 . S
C3693 C3692 1.488 . S
C3693 C3694 1.348 . S
C3693 C3698 1.413 . S
C3694 C3693 1.348 . S
C3694 C3695 1.442 . S
C3694 H3716 0.930 . S
C3695 C3694 1.442 . S
C3695 C3696 1.381 . S
C3695 H3717 0.931 . S
C3696 C3695 1.381 . S
C3696 C3697 1.321 . S
C3697 C3696 1.321 . S
C3697 C3698 1.403 . S
C3697 H3718 0.934 . S
C3698 C3693 1.413 . S
C3698 C3697 1.403 . S
C3698 H3719 0.930 . S
C3699 O3710 1.275 . S
C3699 O3711 1.256 . S
O3700 Ho3680 2.322 . S
O3700 C3682 1.259 . S
O3701 Ho3681 2.346 . S
O3701 C3682 1.268 . S
O3702 Ho3680 2.378 . S
O3702 C3683 1.215 . S
O3703 Ho3680 2.524 . S
O3703 C3683 1.289 . S
O3704 Ho3680 2.381 . S
O3704 C3690 1.275 . S
O3705 Ho3680 2.669 . S
O3705 Ho3681 2.305 . S
O3705 C3690 1.256 . S
O3706 Ho3681 2.322 . S
O3706 C3691 1.259 . S
O3707 Ho3680 2.346 . S
O3707 C3691 1.268 . S
O3708 Ho3681 2.378 . S
O3708 C3692 1.215 . S
O3709 Ho3681 2.524 . S
O3709 C3692 1.289 . S
O3710 Ho3681 2.381 . S
O3710 C3699 1.275 . S
O3711 Ho3680 2.305 . S
O3711 Ho3681 2.669 . S
O3711 C3699 1.256 . S
H3712 C3685 0.930 . S
H3713 C3686 0.931 . S
H3714 C3688 0.934 . S
H3715 C3689 0.930 . S
H3716 C3694 0.930 . S
H3717 C3695 0.931 . S
H3718 C3697 0.934 . S
H3719 C3698 0.930 . S
Ho3720 C3723 2.811 . S
Ho3720 O3740 2.322 . S
Ho3720 O3742 2.378 . S
Ho3720 O3743 2.524 . S
Ho3720 O3744 2.381 1_554 S
Ho3720 O3745 2.669 1_554 S
Ho3720 O3747 2.346 1_554 S
Ho3720 O3751 2.305 . S
Ho3721 C3732 2.811 . S
Ho3721 O3741 2.346 1_556 S
Ho3721 O3745 2.305 . S
Ho3721 O3746 2.322 . S
Ho3721 O3748 2.378 . S
Ho3721 O3749 2.524 . S
Ho3721 O3750 2.392 . S
Ho3721 O3751 2.669 1_556 S
C3722 O3740 1.259 . S
C3722 O3741 1.268 . S
C3723 Ho3720 2.811 . S
C3723 C3724 1.488 . S
C3723 O3742 1.215 . S
C3723 O3743 1.289 . S
C3724 C3723 1.488 . S
C3724 C3725 1.348 . S
C3724 C3729 1.413 . S
C3725 C3724 1.348 . S
C3725 C3726 1.442 . S
C3725 H3752 0.930 . S
C3726 C3725 1.442 . S
C3726 C3727 1.381 . S
C3726 H3753 0.931 . S
C3727 C3726 1.381 . S
C3727 C3728 1.321 . S
C3728 C3727 1.321 . S
C3728 C3729 1.403 . S
C3728 H3754 0.934 . S
C3729 C3724 1.413 . S
C3729 C3728 1.403 . S
C3729 H3755 0.930 . S
C3730 O3744 1.275 . S
C3730 O3745 1.256 . S
C3731 O3746 1.259 . S
C3731 O3747 1.268 . S
C3732 Ho3721 2.811 . S
C3732 C3733 1.488 . S
C3732 O3748 1.215 . S
C3732 O3749 1.289 . S
C3733 C3732 1.488 . S
C3733 C3734 1.348 . S
C3733 C3738 1.413 . S
C3734 C3733 1.348 . S
C3734 C3735 1.442 . S
C3734 H3756 0.930 . S
C3735 C3734 1.442 . S
C3735 C3736 1.381 . S
C3735 H3757 0.931 . S
C3736 C3735 1.381 . S
C3736 C3737 1.321 . S
C3737 C3736 1.321 . S
C3737 C3738 1.403 . S
C3737 H3758 0.934 . S
C3738 C3733 1.413 . S
C3738 C3737 1.403 . S
C3738 H3759 0.930 . S
C3739 O3750 1.260 1_554 S
C3739 O3751 1.256 . S
O3740 Ho3720 2.322 . S
O3740 C3722 1.259 . S
O3741 Ho3721 2.346 1_554 S
O3741 C3722 1.268 . S
O3742 Ho3720 2.378 . S
O3742 C3723 1.215 . S
O3743 Ho3720 2.524 . S
O3743 C3723 1.289 . S
O3744 Ho3720 2.381 1_556 S
O3744 C3730 1.275 . S
O3745 Ho3720 2.669 1_556 S
O3745 Ho3721 2.305 . S
O3745 C3730 1.256 . S
O3746 Ho3721 2.322 . S
O3746 C3731 1.259 . S
O3747 Ho3720 2.346 1_556 S
O3747 C3731 1.268 . S
O3748 Ho3721 2.378 . S
O3748 C3732 1.215 . S
O3749 Ho3721 2.524 . S
O3749 C3732 1.289 . S
O3750 Ho3721 2.392 . S
O3750 C3739 1.260 1_556 S
O3751 Ho3720 2.305 . S
O3751 Ho3721 2.669 1_554 S
O3751 C3739 1.256 . S
H3752 C3725 0.930 . S
H3753 C3726 0.931 . S
H3754 C3728 0.934 . S
H3755 C3729 0.930 . S
H3756 C3734 0.930 . S
H3757 C3735 0.931 . S
H3758 C3737 0.934 . S
H3759 C3738 0.930 . S
Ho3760 C3763 2.811 . S
Ho3760 O3780 2.322 . S
Ho3760 O3782 2.378 . S
Ho3760 O3783 2.524 . S
Ho3760 O3784 2.381 . S
Ho3760 O3785 2.669 . S
Ho3760 O3787 2.346 . S
Ho3760 O3791 2.305 . S
Ho3761 C3772 2.811 . S
Ho3761 O3781 2.346 . S
Ho3761 O3785 2.305 . S
Ho3761 O3786 2.322 . S
Ho3761 O3788 2.378 . S
Ho3761 O3789 2.524 . S
Ho3761 O3790 2.381 . S
Ho3761 O3791 2.669 . S
C3762 O3780 1.259 . S
C3762 O3781 1.268 . S
C3763 Ho3760 2.811 . S
C3763 C3764 1.488 . S
C3763 O3782 1.215 . S
C3763 O3783 1.289 . S
C3764 C3763 1.488 . S
C3764 C3765 1.348 . S
C3764 C3769 1.413 . S
C3765 C3764 1.348 . S
C3765 C3766 1.442 . S
C3765 H3792 0.930 . S
C3766 C3765 1.442 . S
C3766 C3767 1.381 . S
C3766 H3793 0.931 . S
C3767 C3766 1.381 . S
C3767 C3768 1.321 . S
C3768 C3767 1.321 . S
C3768 C3769 1.403 . S
C3768 H3794 0.934 . S
C3769 C3764 1.413 . S
C3769 C3768 1.403 . S
C3769 H3795 0.930 . S
C3770 O3784 1.275 . S
C3770 O3785 1.256 . S
C3771 O3786 1.259 . S
C3771 O3787 1.268 . S
C3772 Ho3761 2.811 . S
C3772 C3773 1.488 . S
C3772 O3788 1.215 . S
C3772 O3789 1.289 . S
C3773 C3772 1.488 . S
C3773 C3774 1.348 . S
C3773 C3778 1.413 . S
C3774 C3773 1.348 . S
C3774 C3775 1.442 . S
C3774 H3796 0.930 . S
C3775 C3774 1.442 . S
C3775 C3776 1.381 . S
C3775 H3797 0.931 . S
C3776 C3775 1.381 . S
C3776 C3777 1.321 . S
C3777 C3776 1.321 . S
C3777 C3778 1.403 . S
C3777 H3798 0.934 . S
C3778 C3773 1.413 . S
C3778 C3777 1.403 . S
C3778 H3799 0.930 . S
C3779 O3790 1.275 . S
C3779 O3791 1.256 . S
O3780 Ho3760 2.322 . S
O3780 C3762 1.259 . S
O3781 Ho3761 2.346 . S
O3781 C3762 1.268 . S
O3782 Ho3760 2.378 . S
O3782 C3763 1.215 . S
O3783 Ho3760 2.524 . S
O3783 C3763 1.289 . S
O3784 Ho3760 2.381 . S
O3784 C3770 1.275 . S
O3785 Ho3760 2.669 . S
O3785 Ho3761 2.305 . S
O3785 C3770 1.256 . S
O3786 Ho3761 2.322 . S
O3786 C3771 1.259 . S
O3787 Ho3760 2.346 . S
O3787 C3771 1.268 . S
O3788 Ho3761 2.378 . S
O3788 C3772 1.215 . S
O3789 Ho3761 2.524 . S
O3789 C3772 1.289 . S
O3790 Ho3761 2.381 . S
O3790 C3779 1.275 . S
O3791 Ho3760 2.305 . S
O3791 Ho3761 2.669 . S
O3791 C3779 1.256 . S
H3792 C3765 0.930 . S
H3793 C3766 0.931 . S
H3794 C3768 0.934 . S
H3795 C3769 0.930 . S
H3796 C3774 0.930 . S
H3797 C3775 0.931 . S
H3798 C3777 0.934 . S
H3799 C3778 0.930 . S
Ho3800 C3803 2.811 . S
Ho3800 O3820 2.322 . S
Ho3800 O3822 2.378 . S
Ho3800 O3823 2.524 . S
Ho3800 O3824 2.381 . S
Ho3800 O3825 2.669 . S
Ho3800 O3827 2.346 . S
Ho3800 O3831 2.305 . S
Ho3801 C3812 2.811 . S
Ho3801 O3821 2.346 . S
Ho3801 O3825 2.305 . S
Ho3801 O3826 2.322 . S
Ho3801 O3828 2.378 . S
Ho3801 O3829 2.524 . S
Ho3801 O3830 2.381 . S
Ho3801 O3831 2.669 . S
C3802 O3820 1.259 . S
C3802 O3821 1.268 . S
C3803 Ho3800 2.811 . S
C3803 C3804 1.488 . S
C3803 O3822 1.215 . S
C3803 O3823 1.289 . S
C3804 C3803 1.488 . S
C3804 C3805 1.348 . S
C3804 C3809 1.413 . S
C3805 C3804 1.348 . S
C3805 C3806 1.442 . S
C3805 H3832 0.930 . S
C3806 C3805 1.442 . S
C3806 C3807 1.381 . S
C3806 H3833 0.931 . S
C3807 C3806 1.381 . S
C3807 C3808 1.321 . S
C3808 C3807 1.321 . S
C3808 C3809 1.403 . S
C3808 H3834 0.934 . S
C3809 C3804 1.413 . S
C3809 C3808 1.403 . S
C3809 H3835 0.930 . S
C3810 O3824 1.275 . S
C3810 O3825 1.256 . S
C3811 O3826 1.259 . S
C3811 O3827 1.268 . S
C3812 Ho3801 2.811 . S
C3812 C3813 1.488 . S
C3812 O3828 1.215 . S
C3812 O3829 1.289 . S
C3813 C3812 1.488 . S
C3813 C3814 1.348 . S
C3813 C3818 1.413 . S
C3814 C3813 1.348 . S
C3814 C3815 1.442 . S
C3814 H3836 0.930 . S
C3815 C3814 1.442 . S
C3815 C3816 1.381 . S
C3815 H3837 0.931 . S
C3816 C3815 1.381 . S
C3816 C3817 1.321 . S
C3817 C3816 1.321 . S
C3817 C3818 1.403 . S
C3817 H3838 0.934 . S
C3818 C3813 1.413 . S
C3818 C3817 1.403 . S
C3818 H3839 0.930 . S
C3819 O3830 1.275 . S
C3819 O3831 1.256 . S
O3820 Ho3800 2.322 . S
O3820 C3802 1.259 . S
O3821 Ho3801 2.346 . S
O3821 C3802 1.268 . S
O3822 Ho3800 2.378 . S
O3822 C3803 1.215 . S
O3823 Ho3800 2.524 . S
O3823 C3803 1.289 . S
O3824 Ho3800 2.381 . S
O3824 C3810 1.275 . S
O3825 Ho3800 2.669 . S
O3825 Ho3801 2.305 . S
O3825 C3810 1.256 . S
O3826 Ho3801 2.322 . S
O3826 C3811 1.259 . S
O3827 Ho3800 2.346 . S
O3827 C3811 1.268 . S
O3828 Ho3801 2.378 . S
O3828 C3812 1.215 . S
O3829 Ho3801 2.524 . S
O3829 C3812 1.289 . S
O3830 Ho3801 2.381 . S
O3830 C3819 1.275 . S
O3831 Ho3800 2.305 . S
O3831 Ho3801 2.669 . S
O3831 C3819 1.256 . S
H3832 C3805 0.930 . S
H3833 C3806 0.931 . S
H3834 C3808 0.934 . S
H3835 C3809 0.930 . S
H3836 C3814 0.930 . S
H3837 C3815 0.931 . S
H3838 C3817 0.934 . S
H3839 C3818 0.930 . S
H3840 C3846 0.930 . S
H3841 C3849 0.930 . S
H3842 C3850 0.930 . S
H3843 C3851 0.930 . S
H3844 C3854 0.930 . S
H3845 C3855 0.930 . S
C3846 H3840 0.930 . S
C3846 C3847 1.355 . S
C3846 C3848 1.415 . S
C3847 C3846 1.355 . S
C3847 C3849 1.419 . S
C3848 C3846 1.415 . S
C3848 C3853 1.425 . S
C3848 C3855 1.409 . S
C3849 H3841 0.930 . S
C3849 C3847 1.419 . S
C3849 C3850 1.362 . S
C3850 H3842 0.930 . S
C3850 C3849 1.362 . S
C3850 C3853 1.409 . S
C3851 H3843 0.930 . S
C3851 C3852 1.355 . S
C3851 C3853 1.415 . S
C3852 C3851 1.355 . S
C3852 C3854 1.419 . S
C3853 C3848 1.425 . S
C3853 C3850 1.409 . S
C3853 C3851 1.415 . S
C3854 H3844 0.930 . S
C3854 C3852 1.419 . S
C3854 C3855 1.362 . S
C3855 H3845 0.930 . S
C3855 C3848 1.409 . S
C3855 C3854 1.362 . S
H3856 C3862 0.930 . S
H3857 C3865 0.930 . S
H3858 C3866 0.930 . S
H3859 C3867 0.930 . S
H3860 C3870 0.930 . S
H3861 C3871 0.930 . S
C3862 H3856 0.930 . S
C3862 C3863 1.355 . S
C3862 C3864 1.415 . S
C3863 C3862 1.355 . S
C3863 C3865 1.419 . S
C3864 C3862 1.415 . S
C3864 C3869 1.425 . S
C3864 C3871 1.409 . S
C3865 H3857 0.930 . S
C3865 C3863 1.419 . S
C3865 C3866 1.362 . S
C3866 H3858 0.930 . S
C3866 C3865 1.362 . S
C3866 C3869 1.409 . S
C3867 H3859 0.930 . S
C3867 C3868 1.355 . S
C3867 C3869 1.415 . S
C3868 C3867 1.355 . S
C3868 C3870 1.419 . S
C3869 C3864 1.425 . S
C3869 C3866 1.409 . S
C3869 C3867 1.415 . S
C3870 H3860 0.930 . S
C3870 C3868 1.419 . S
C3870 C3871 1.362 . S
C3871 H3861 0.930 . S
C3871 C3864 1.409 . S
C3871 C3870 1.362 . S
H3872 C3878 0.930 . S
H3873 C3881 0.930 . S
H3874 C3882 0.930 . S
H3875 C3883 0.930 . S
H3876 C3886 0.930 . S
H3877 C3887 0.930 . S
C3878 H3872 0.930 . S
C3878 C3879 1.355 . S
C3878 C3880 1.415 . S
C3879 C3878 1.355 . S
C3879 C3881 1.419 . S
C3880 C3878 1.415 . S
C3880 C3885 1.425 . S
C3880 C3887 1.409 . S
C3881 H3873 0.930 . S
C3881 C3879 1.419 . S
C3881 C3882 1.362 . S
C3882 H3874 0.930 . S
C3882 C3881 1.362 . S
C3882 C3885 1.409 . S
C3883 H3875 0.930 . S
C3883 C3884 1.355 . S
C3883 C3885 1.415 . S
C3884 C3883 1.355 . S
C3884 C3886 1.419 . S
C3885 C3880 1.425 . S
C3885 C3882 1.409 . S
C3885 C3883 1.415 . S
C3886 H3876 0.930 . S
C3886 C3884 1.419 . S
C3886 C3887 1.362 . S
C3887 H3877 0.930 . S
C3887 C3880 1.409 . S
C3887 C3886 1.362 . S
H3888 C3894 0.930 . S
H3889 C3897 0.930 . S
H3890 C3898 0.930 . S
H3891 C3899 0.930 . S
H3892 C3902 0.930 . S
H3893 C3903 0.930 . S
C3894 H3888 0.930 . S
C3894 C3895 1.355 . S
C3894 C3896 1.415 . S
C3895 C3894 1.355 . S
C3895 C3897 1.419 . S
C3896 C3894 1.415 . S
C3896 C3901 1.425 . S
C3896 C3903 1.409 . S
C3897 H3889 0.930 . S
C3897 C3895 1.419 . S
C3897 C3898 1.362 . S
C3898 H3890 0.930 . S
C3898 C3897 1.362 . S
C3898 C3901 1.409 . S
C3899 H3891 0.930 . S
C3899 C3900 1.355 . S
C3899 C3901 1.415 . S
C3900 C3899 1.355 . S
C3900 C3902 1.419 . S
C3901 C3896 1.425 . S
C3901 C3898 1.409 . S
C3901 C3899 1.415 . S
C3902 H3892 0.930 . S
C3902 C3900 1.419 . S
C3902 C3903 1.362 . S
C3903 H3893 0.930 . S
C3903 C3896 1.409 . S
C3903 C3902 1.362 . S
H3904 C3910 0.930 . S
H3905 C3913 0.930 . S
H3906 C3914 0.930 . S
H3907 C3915 0.930 . S
H3908 C3918 0.930 . S
H3909 C3919 0.930 . S
C3910 H3904 0.930 . S
C3910 C3911 1.355 . S
C3910 C3912 1.415 . S
C3911 C3910 1.355 . S
C3911 C3913 1.419 . S
C3912 C3910 1.415 . S
C3912 C3917 1.425 . S
C3912 C3919 1.409 . S
C3913 H3905 0.930 . S
C3913 C3911 1.419 . S
C3913 C3914 1.362 . S
C3914 H3906 0.930 . S
C3914 C3913 1.362 . S
C3914 C3917 1.409 . S
C3915 H3907 0.930 . S
C3915 C3916 1.355 . S
C3915 C3917 1.415 . S
C3916 C3915 1.355 . S
C3916 C3918 1.419 . S
C3917 C3912 1.425 . S
C3917 C3914 1.409 . S
C3917 C3915 1.415 . S
C3918 H3908 0.930 . S
C3918 C3916 1.419 . S
C3918 C3919 1.362 . S
C3919 H3909 0.930 . S
C3919 C3912 1.409 . S
C3919 C3918 1.362 . S
H3920 C3926 0.930 . S
H3921 C3929 0.930 . S
H3922 C3930 0.930 . S
H3923 C3931 0.930 . S
H3924 C3934 0.930 . S
H3925 C3935 0.930 . S
C3926 H3920 0.930 . S
C3926 C3927 1.355 . S
C3926 C3928 1.415 . S
C3927 C3926 1.355 . S
C3927 C3929 1.419 . S
C3928 C3926 1.415 . S
C3928 C3933 1.425 . S
C3928 C3935 1.409 . S
C3929 H3921 0.930 . S
C3929 C3927 1.419 . S
C3929 C3930 1.362 . S
C3930 H3922 0.930 . S
C3930 C3929 1.362 . S
C3930 C3933 1.409 . S
C3931 H3923 0.930 . S
C3931 C3932 1.355 . S
C3931 C3933 1.415 . S
C3932 C3931 1.355 . S
C3932 C3934 1.419 . S
C3933 C3928 1.425 . S
C3933 C3930 1.409 . S
C3933 C3931 1.415 . S
C3934 H3924 0.930 . S
C3934 C3932 1.419 . S
C3934 C3935 1.362 . S
C3935 H3925 0.930 . S
C3935 C3928 1.409 . S
C3935 C3934 1.362 . S
H3936 C3942 0.930 . S
H3937 C3945 0.930 . S
H3938 C3946 0.930 . S
H3939 C3947 0.930 . S
H3940 C3950 0.930 . S
H3941 C3951 0.930 . S
C3942 H3936 0.930 . S
C3942 C3943 1.355 . S
C3942 C3944 1.415 . S
C3943 C3942 1.355 . S
C3943 C3945 1.419 . S
C3944 C3942 1.415 . S
C3944 C3949 1.425 . S
C3944 C3951 1.409 . S
C3945 H3937 0.930 . S
C3945 C3943 1.419 . S
C3945 C3946 1.362 . S
C3946 H3938 0.930 . S
C3946 C3945 1.362 . S
C3946 C3949 1.409 . S
C3947 H3939 0.930 . S
C3947 C3948 1.355 . S
C3947 C3949 1.415 . S
C3948 C3947 1.355 . S
C3948 C3950 1.419 . S
C3949 C3944 1.425 . S
C3949 C3946 1.409 . S
C3949 C3947 1.415 . S
C3950 H3940 0.930 . S
C3950 C3948 1.419 . S
C3950 C3951 1.362 . S
C3951 H3941 0.930 . S
C3951 C3944 1.409 . S
C3951 C3950 1.362 . S
H3952 C3958 0.930 . S
H3953 C3961 0.930 . S
H3954 C3962 0.930 . S
H3955 C3963 0.930 . S
H3956 C3966 0.930 . S
H3957 C3967 0.930 . S
C3958 H3952 0.930 . S
C3958 C3959 1.355 . S
C3958 C3960 1.415 . S
C3959 C3958 1.355 . S
C3959 C3961 1.419 . S
C3960 C3958 1.415 . S
C3960 C3965 1.425 . S
C3960 C3967 1.409 . S
C3961 H3953 0.930 . S
C3961 C3959 1.419 . S
C3961 C3962 1.362 . S
C3962 H3954 0.930 . S
C3962 C3961 1.362 . S
C3962 C3965 1.409 . S
C3963 H3955 0.930 . S
C3963 C3964 1.355 . S
C3963 C3965 1.415 . S
C3964 C3963 1.355 . S
C3964 C3966 1.419 . S
C3965 C3960 1.425 . S
C3965 C3962 1.409 . S
C3965 C3963 1.415 . S
C3966 H3956 0.930 . S
C3966 C3964 1.419 . S
C3966 C3967 1.362 . S
C3967 H3957 0.930 . S
C3967 C3960 1.409 . S
C3967 C3966 1.362 . S
H3968 C3974 0.930 . S
H3969 C3977 0.930 . S
H3970 C3978 0.930 . S
H3971 C3979 0.930 . S
H3972 C3982 0.930 . S
H3973 C3983 0.930 . S
C3974 H3968 0.930 . S
C3974 C3975 1.355 . S
C3974 C3976 1.415 . S
C3975 C3974 1.355 . S
C3975 C3977 1.419 . S
C3976 C3974 1.415 . S
C3976 C3981 1.425 . S
C3976 C3983 1.409 . S
C3977 H3969 0.930 . S
C3977 C3975 1.419 . S
C3977 C3978 1.362 . S
C3978 H3970 0.930 . S
C3978 C3977 1.362 . S
C3978 C3981 1.409 . S
C3979 H3971 0.930 . S
C3979 C3980 1.355 . S
C3979 C3981 1.415 . S
C3980 C3979 1.355 . S
C3980 C3982 1.419 . S
C3981 C3976 1.425 . S
C3981 C3978 1.409 . S
C3981 C3979 1.415 . S
C3982 H3972 0.930 . S
C3982 C3980 1.419 . S
C3982 C3983 1.362 . S
C3983 H3973 0.930 . S
C3983 C3976 1.409 . S
C3983 C3982 1.362 . S
H3984 C3990 0.930 . S
H3985 C3993 0.930 . S
H3986 C3994 0.930 . S
H3987 C3995 0.930 . S
H3988 C3998 0.930 . S
H3989 C3999 0.930 . S
C3990 H3984 0.930 . S
C3990 C3991 1.355 . S
C3990 C3992 1.415 . S
C3991 C3990 1.355 . S
C3991 C3993 1.419 . S
C3992 C3990 1.415 . S
C3992 C3997 1.425 . S
C3992 C3999 1.409 . S
C3993 H3985 0.930 . S
C3993 C3991 1.419 . S
C3993 C3994 1.362 . S
C3994 H3986 0.930 . S
C3994 C3993 1.362 . S
C3994 C3997 1.409 . S
C3995 H3987 0.930 . S
C3995 C3996 1.355 . S
C3995 C3997 1.415 . S
C3996 C3995 1.355 . S
C3996 C3998 1.419 . S
C3997 C3992 1.425 . S
C3997 C3994 1.409 . S
C3997 C3995 1.415 . S
C3998 H3988 0.930 . S
C3998 C3996 1.419 . S
C3998 C3999 1.362 . S
C3999 H3989 0.930 . S
C3999 C3992 1.409 . S
C3999 C3998 1.362 . S
H4000 C4006 0.930 . S
H4001 C4009 0.930 . S
H4002 C4010 0.930 . S
H4003 C4011 0.930 . S
H4004 C4014 0.930 . S
H4005 C4015 0.930 . S
C4006 H4000 0.930 . S
C4006 C4007 1.355 . S
C4006 C4008 1.415 . S
C4007 C4006 1.355 . S
C4007 C4009 1.419 . S
C4008 C4006 1.415 . S
C4008 C4013 1.425 . S
C4008 C4015 1.409 . S
C4009 H4001 0.930 . S
C4009 C4007 1.419 . S
C4009 C4010 1.362 . S
C4010 H4002 0.930 . S
C4010 C4009 1.362 . S
C4010 C4013 1.409 . S
C4011 H4003 0.930 . S
C4011 C4012 1.355 . S
C4011 C4013 1.415 . S
C4012 C4011 1.355 . S
C4012 C4014 1.419 . S
C4013 C4008 1.425 . S
C4013 C4010 1.409 . S
C4013 C4011 1.415 . S
C4014 H4004 0.930 . S
C4014 C4012 1.419 . S
C4014 C4015 1.362 . S
C4015 H4005 0.930 . S
C4015 C4008 1.409 . S
C4015 C4014 1.362 . S
H4016 C4022 0.930 . S
H4017 C4025 0.930 . S
H4018 C4026 0.930 . S
H4019 C4027 0.930 . S
H4020 C4030 0.930 . S
H4021 C4031 0.930 . S
C4022 H4016 0.930 . S
C4022 C4023 1.355 . S
C4022 C4024 1.415 . S
C4023 C4022 1.355 . S
C4023 C4025 1.419 . S
C4024 C4022 1.415 . S
C4024 C4029 1.425 . S
C4024 C4031 1.409 . S
C4025 H4017 0.930 . S
C4025 C4023 1.419 . S
C4025 C4026 1.362 . S
C4026 H4018 0.930 . S
C4026 C4025 1.362 . S
C4026 C4029 1.409 . S
C4027 H4019 0.930 . S
C4027 C4028 1.355 . S
C4027 C4029 1.415 . S
C4028 C4027 1.355 . S
C4028 C4030 1.419 . S
C4029 C4024 1.425 . S
C4029 C4026 1.409 . S
C4029 C4027 1.415 . S
C4030 H4020 0.930 . S
C4030 C4028 1.419 . S
C4030 C4031 1.362 . S
C4031 H4021 0.930 . S
C4031 C4024 1.409 . S
C4031 C4030 1.362 . S
H4032 C4038 0.930 . S
H4033 C4041 0.930 . S
H4034 C4042 0.930 . S
H4035 C4043 0.930 . S
H4036 C4046 0.930 . S
H4037 C4047 0.930 . S
C4038 H4032 0.930 . S
C4038 C4039 1.355 . S
C4038 C4040 1.415 . S
C4039 C4038 1.355 . S
C4039 C4041 1.419 . S
C4040 C4038 1.415 . S
C4040 C4045 1.425 . S
C4040 C4047 1.409 . S
C4041 H4033 0.930 . S
C4041 C4039 1.419 . S
C4041 C4042 1.362 . S
C4042 H4034 0.930 . S
C4042 C4041 1.362 . S
C4042 C4045 1.409 . S
C4043 H4035 0.930 . S
C4043 C4044 1.355 . S
C4043 C4045 1.415 . S
C4044 C4043 1.355 . S
C4044 C4046 1.419 . S
C4045 C4040 1.425 . S
C4045 C4042 1.409 . S
C4045 C4043 1.415 . S
C4046 H4036 0.930 . S
C4046 C4044 1.419 . S
C4046 C4047 1.362 . S
C4047 H4037 0.930 . S
C4047 C4040 1.409 . S
C4047 C4046 1.362 . S
H4048 C4054 0.930 . S
H4049 C4057 0.930 . S
H4050 C4058 0.930 . S
H4051 C4059 0.930 . S
H4052 C4062 0.930 . S
H4053 C4063 0.930 . S
C4054 H4048 0.930 . S
C4054 C4055 1.355 . S
C4054 C4056 1.415 . S
C4055 C4054 1.355 . S
C4055 C4057 1.419 . S
C4056 C4054 1.415 . S
C4056 C4061 1.425 . S
C4056 C4063 1.409 . S
C4057 H4049 0.930 . S
C4057 C4055 1.419 . S
C4057 C4058 1.362 . S
C4058 H4050 0.930 . S
C4058 C4057 1.362 . S
C4058 C4061 1.409 . S
C4059 H4051 0.930 . S
C4059 C4060 1.355 . S
C4059 C4061 1.415 . S
C4060 C4059 1.355 . S
C4060 C4062 1.419 . S
C4061 C4056 1.425 . S
C4061 C4058 1.409 . S
C4061 C4059 1.415 . S
C4062 H4052 0.930 . S
C4062 C4060 1.419 . S
C4062 C4063 1.362 . S
C4063 H4053 0.930 . S
C4063 C4056 1.409 . S
C4063 C4062 1.362 . S
H4064 C4070 0.930 . S
H4065 C4073 0.930 . S
H4066 C4074 0.930 . S
H4067 C4075 0.930 . S
H4068 C4078 0.930 . S
H4069 C4079 0.930 . S
C4070 H4064 0.930 . S
C4070 C4071 1.355 . S
C4070 C4072 1.415 . S
C4071 C4070 1.355 . S
C4071 C4073 1.419 . S
C4072 C4070 1.415 . S
C4072 C4077 1.425 . S
C4072 C4079 1.409 . S
C4073 H4065 0.930 . S
C4073 C4071 1.419 . S
C4073 C4074 1.362 . S
C4074 H4066 0.930 . S
C4074 C4073 1.362 . S
C4074 C4077 1.409 . S
C4075 H4067 0.930 . S
C4075 C4076 1.355 . S
C4075 C4077 1.415 . S
C4076 C4075 1.355 . S
C4076 C4078 1.419 . S
C4077 C4072 1.425 . S
C4077 C4074 1.409 . S
C4077 C4075 1.415 . S
C4078 H4068 0.930 . S
C4078 C4076 1.419 . S
C4078 C4079 1.362 . S
C4079 H4069 0.930 . S
C4079 C4072 1.409 . S
C4079 C4078 1.362 . S
H4080 C4086 0.930 . S
H4081 C4089 0.930 . S
H4082 C4090 0.930 . S
H4083 C4091 0.930 . S
H4084 C4094 0.930 . S
H4085 C4095 0.930 . S
C4086 H4080 0.930 . S
C4086 C4087 1.355 . S
C4086 C4088 1.415 . S
C4087 C4086 1.355 . S
C4087 C4089 1.419 . S
C4088 C4086 1.415 . S
C4088 C4093 1.425 . S
C4088 C4095 1.409 . S
C4089 H4081 0.930 . S
C4089 C4087 1.419 . S
C4089 C4090 1.362 . S
C4090 H4082 0.930 . S
C4090 C4089 1.362 . S
C4090 C4093 1.409 . S
C4091 H4083 0.930 . S
C4091 C4092 1.355 . S
C4091 C4093 1.415 . S
C4092 C4091 1.355 . S
C4092 C4094 1.419 . S
C4093 C4088 1.425 . S
C4093 C4090 1.409 . S
C4093 C4091 1.415 . S
C4094 H4084 0.930 . S
C4094 C4092 1.419 . S
C4094 C4095 1.362 . S
C4095 H4085 0.930 . S
C4095 C4088 1.409 . S
C4095 C4094 1.362 . S
H4096 C4102 0.930 . S
H4097 C4105 0.930 . S
H4098 C4106 0.930 . S
H4099 C4107 0.930 . S
H4100 C4110 0.930 . S
H4101 C4111 0.930 . S
C4102 H4096 0.930 . S
C4102 C4103 1.355 . S
C4102 C4104 1.415 . S
C4103 C4102 1.355 . S
C4103 C4105 1.419 . S
C4104 C4102 1.415 . S
C4104 C4109 1.425 . S
C4104 C4111 1.409 . S
C4105 H4097 0.930 . S
C4105 C4103 1.419 . S
C4105 C4106 1.362 . S
C4106 H4098 0.930 . S
C4106 C4105 1.362 . S
C4106 C4109 1.409 . S
C4107 H4099 0.930 . S
C4107 C4108 1.355 . S
C4107 C4109 1.415 . S
C4108 C4107 1.355 . S
C4108 C4110 1.419 . S
C4109 C4104 1.425 . S
C4109 C4106 1.409 . S
C4109 C4107 1.415 . S
C4110 H4100 0.930 . S
C4110 C4108 1.419 . S
C4110 C4111 1.362 . S
C4111 H4101 0.930 . S
C4111 C4104 1.409 . S
C4111 C4110 1.362 . S
H4112 C4118 0.930 . S
H4113 C4121 0.930 . S
H4114 C4122 0.930 . S
H4115 C4123 0.930 . S
H4116 C4126 0.930 . S
H4117 C4127 0.930 . S
C4118 H4112 0.930 . S
C4118 C4119 1.355 . S
C4118 C4120 1.415 . S
C4119 C4118 1.355 . S
C4119 C4121 1.419 . S
C4120 C4118 1.415 . S
C4120 C4125 1.425 . S
C4120 C4127 1.409 . S
C4121 H4113 0.930 . S
C4121 C4119 1.419 . S
C4121 C4122 1.362 . S
C4122 H4114 0.930 . S
C4122 C4121 1.362 . S
C4122 C4125 1.409 . S
C4123 H4115 0.930 . S
C4123 C4124 1.355 . S
C4123 C4125 1.415 . S
C4124 C4123 1.355 . S
C4124 C4126 1.419 . S
C4125 C4120 1.425 . S
C4125 C4122 1.409 . S
C4125 C4123 1.415 . S
C4126 H4116 0.930 . S
C4126 C4124 1.419 . S
C4126 C4127 1.362 . S
C4127 H4117 0.930 . S
C4127 C4120 1.409 . S
C4127 C4126 1.362 . S
H4128 C4134 0.930 . S
H4129 C4137 0.930 . S
H4130 C4138 0.930 . S
H4131 C4139 0.930 . S
H4132 C4142 0.930 . S
H4133 C4143 0.930 . S
C4134 H4128 0.930 . S
C4134 C4135 1.355 . S
C4134 C4136 1.415 . S
C4135 C4134 1.355 . S
C4135 C4137 1.419 . S
C4136 C4134 1.415 . S
C4136 C4141 1.425 . S
C4136 C4143 1.409 . S
C4137 H4129 0.930 . S
C4137 C4135 1.419 . S
C4137 C4138 1.362 . S
C4138 H4130 0.930 . S
C4138 C4137 1.362 . S
C4138 C4141 1.409 . S
C4139 H4131 0.930 . S
C4139 C4140 1.355 . S
C4139 C4141 1.415 . S
C4140 C4139 1.355 . S
C4140 C4142 1.419 . S
C4141 C4136 1.425 . S
C4141 C4138 1.409 . S
C4141 C4139 1.415 . S
C4142 H4132 0.930 . S
C4142 C4140 1.419 . S
C4142 C4143 1.362 . S
C4143 H4133 0.930 . S
C4143 C4136 1.409 . S
C4143 C4142 1.362 . S
H4144 C4150 0.930 . S
H4145 C4153 0.930 . S
H4146 C4154 0.930 . S
H4147 C4155 0.930 . S
H4148 C4158 0.930 . S
H4149 C4159 0.930 . S
C4150 H4144 0.930 . S
C4150 C4151 1.355 . S
C4150 C4152 1.415 . S
C4151 C4150 1.355 . S
C4151 C4153 1.419 . S
C4152 C4150 1.415 . S
C4152 C4157 1.425 . S
C4152 C4159 1.409 . S
C4153 H4145 0.930 . S
C4153 C4151 1.419 . S
C4153 C4154 1.362 . S
C4154 H4146 0.930 . S
C4154 C4153 1.362 . S
C4154 C4157 1.409 . S
C4155 H4147 0.930 . S
C4155 C4156 1.355 . S
C4155 C4157 1.415 . S
C4156 C4155 1.355 . S
C4156 C4158 1.419 . S
C4157 C4152 1.425 . S
C4157 C4154 1.409 . S
C4157 C4155 1.415 . S
C4158 H4148 0.930 . S
C4158 C4156 1.419 . S
C4158 C4159 1.362 . S
C4159 H4149 0.930 . S
C4159 C4152 1.409 . S
C4159 C4158 1.362 . S
H4160 C4166 0.930 . S
H4161 C4169 0.930 . S
H4162 C4170 0.930 . S
H4163 C4171 0.930 . S
H4164 C4174 0.930 . S
H4165 C4175 0.930 . S
C4166 H4160 0.930 . S
C4166 C4167 1.355 . S
C4166 C4168 1.415 . S
C4167 C4166 1.355 . S
C4167 C4169 1.419 . S
C4168 C4166 1.415 . S
C4168 C4173 1.425 . S
C4168 C4175 1.409 . S
C4169 H4161 0.930 . S
C4169 C4167 1.419 . S
C4169 C4170 1.362 . S
C4170 H4162 0.930 . S
C4170 C4169 1.362 . S
C4170 C4173 1.409 . S
C4171 H4163 0.930 . S
C4171 C4172 1.355 . S
C4171 C4173 1.415 . S
C4172 C4171 1.355 . S
C4172 C4174 1.419 . S
C4173 C4168 1.425 . S
C4173 C4170 1.409 . S
C4173 C4171 1.415 . S
C4174 H4164 0.930 . S
C4174 C4172 1.419 . S
C4174 C4175 1.362 . S
C4175 H4165 0.930 . S
C4175 C4168 1.409 . S
C4175 C4174 1.362 . S
H4176 C4182 0.930 . S
H4177 C4185 0.930 . S
H4178 C4186 0.930 . S
H4179 C4187 0.930 . S
H4180 C4190 0.930 . S
H4181 C4191 0.930 . S
C4182 H4176 0.930 . S
C4182 C4183 1.355 . S
C4182 C4184 1.415 . S
C4183 C4182 1.355 . S
C4183 C4185 1.419 . S
C4184 C4182 1.415 . S
C4184 C4189 1.425 . S
C4184 C4191 1.409 . S
C4185 H4177 0.930 . S
C4185 C4183 1.419 . S
C4185 C4186 1.362 . S
C4186 H4178 0.930 . S
C4186 C4185 1.362 . S
C4186 C4189 1.409 . S
C4187 H4179 0.930 . S
C4187 C4188 1.355 . S
C4187 C4189 1.415 . S
C4188 C4187 1.355 . S
C4188 C4190 1.419 . S
C4189 C4184 1.425 . S
C4189 C4186 1.409 . S
C4189 C4187 1.415 . S
C4190 H4180 0.930 . S
C4190 C4188 1.419 . S
C4190 C4191 1.362 . S
C4191 H4181 0.930 . S
C4191 C4184 1.409 . S
C4191 C4190 1.362 . S
H4192 C4198 0.930 . S
H4193 C4201 0.930 . S
H4194 C4202 0.930 . S
H4195 C4203 0.930 . S
H4196 C4206 0.930 . S
H4197 C4207 0.930 . S
C4198 H4192 0.930 . S
C4198 C4199 1.355 . S
C4198 C4200 1.415 . S
C4199 C4198 1.355 . S
C4199 C4201 1.419 . S
C4200 C4198 1.415 . S
C4200 C4205 1.425 . S
C4200 C4207 1.409 . S
C4201 H4193 0.930 . S
C4201 C4199 1.419 . S
C4201 C4202 1.362 . S
C4202 H4194 0.930 . S
C4202 C4201 1.362 . S
C4202 C4205 1.409 . S
C4203 H4195 0.930 . S
C4203 C4204 1.355 . S
C4203 C4205 1.415 . S
C4204 C4203 1.355 . S
C4204 C4206 1.419 . S
C4205 C4200 1.425 . S
C4205 C4202 1.409 . S
C4205 C4203 1.415 . S
C4206 H4196 0.930 . S
C4206 C4204 1.419 . S
C4206 C4207 1.362 . S
C4207 H4197 0.930 . S
C4207 C4200 1.409 . S
C4207 C4206 1.362 . S
H4208 C4214 0.930 . S
H4209 C4217 0.930 . S
H4210 C4218 0.930 . S
H4211 C4219 0.930 . S
H4212 C4222 0.930 . S
H4213 C4223 0.930 . S
C4214 H4208 0.930 . S
C4214 C4215 1.355 . S
C4214 C4216 1.415 . S
C4215 C4214 1.355 . S
C4215 C4217 1.419 . S
C4216 C4214 1.415 . S
C4216 C4221 1.425 . S
C4216 C4223 1.409 . S
C4217 H4209 0.930 . S
C4217 C4215 1.419 . S
C4217 C4218 1.362 . S
C4218 H4210 0.930 . S
C4218 C4217 1.362 . S
C4218 C4221 1.409 . S
C4219 H4211 0.930 . S
C4219 C4220 1.355 . S
C4219 C4221 1.415 . S
C4220 C4219 1.355 . S
C4220 C4222 1.419 . S
C4221 C4216 1.425 . S
C4221 C4218 1.409 . S
C4221 C4219 1.415 . S
C4222 H4212 0.930 . S
C4222 C4220 1.419 . S
C4222 C4223 1.362 . S
C4223 H4213 0.930 . S
C4223 C4216 1.409 . S
C4223 C4222 1.362 . S
H4224 C4230 0.930 . S
H4225 C4233 0.930 . S
H4226 C4234 0.930 . S
H4227 C4235 0.930 . S
H4228 C4238 0.930 . S
H4229 C4239 0.930 . S
C4230 H4224 0.930 . S
C4230 C4231 1.355 . S
C4230 C4232 1.415 . S
C4231 C4230 1.355 . S
C4231 C4233 1.419 . S
C4232 C4230 1.415 . S
C4232 C4237 1.425 . S
C4232 C4239 1.409 . S
C4233 H4225 0.930 . S
C4233 C4231 1.419 . S
C4233 C4234 1.362 . S
C4234 H4226 0.930 . S
C4234 C4233 1.362 . S
C4234 C4237 1.409 . S
C4235 H4227 0.930 . S
C4235 C4236 1.355 . S
C4235 C4237 1.415 . S
C4236 C4235 1.355 . S
C4236 C4238 1.419 . S
C4237 C4232 1.425 . S
C4237 C4234 1.409 . S
C4237 C4235 1.415 . S
C4238 H4228 0.930 . S
C4238 C4236 1.419 . S
C4238 C4239 1.362 . S
C4239 H4229 0.930 . S
C4239 C4232 1.409 . S
C4239 C4238 1.362 . S
H4240 C4246 0.930 . S
H4241 C4249 0.930 . S
H4242 C4250 0.930 . S
H4243 C4251 0.930 . S
H4244 C4254 0.930 . S
H4245 C4255 0.930 . S
C4246 H4240 0.930 . S
C4246 C4247 1.355 . S
C4246 C4248 1.415 . S
C4247 C4246 1.355 . S
C4247 C4249 1.419 . S
C4248 C4246 1.415 . S
C4248 C4253 1.425 . S
C4248 C4255 1.409 . S
C4249 H4241 0.930 . S
C4249 C4247 1.419 . S
C4249 C4250 1.362 . S
C4250 H4242 0.930 . S
C4250 C4249 1.362 . S
C4250 C4253 1.409 . S
C4251 H4243 0.930 . S
C4251 C4252 1.355 . S
C4251 C4253 1.415 . S
C4252 C4251 1.355 . S
C4252 C4254 1.419 . S
C4253 C4248 1.425 . S
C4253 C4250 1.409 . S
C4253 C4251 1.415 . S
C4254 H4244 0.930 . S
C4254 C4252 1.419 . S
C4254 C4255 1.362 . S
C4255 H4245 0.930 . S
C4255 C4248 1.409 . S
C4255 C4254 1.362 . S
H4256 C4262 0.930 . S
H4257 C4265 0.930 . S
H4258 C4266 0.930 . S
H4259 C4267 0.930 . S
H4260 C4270 0.930 . S
H4261 C4271 0.930 . S
C4262 H4256 0.930 . S
C4262 C4263 1.355 . S
C4262 C4264 1.415 . S
C4263 C4262 1.355 . S
C4263 C4265 1.419 . S
C4264 C4262 1.415 . S
C4264 C4269 1.425 . S
C4264 C4271 1.409 . S
C4265 H4257 0.930 . S
C4265 C4263 1.419 . S
C4265 C4266 1.362 . S
C4266 H4258 0.930 . S
C4266 C4265 1.362 . S
C4266 C4269 1.409 . S
C4267 H4259 0.930 . S
C4267 C4268 1.355 . S
C4267 C4269 1.415 . S
C4268 C4267 1.355 . S
C4268 C4270 1.419 . S
C4269 C4264 1.425 . S
C4269 C4266 1.409 . S
C4269 C4267 1.415 . S
C4270 H4260 0.930 . S
C4270 C4268 1.419 . S
C4270 C4271 1.362 . S
C4271 H4261 0.930 . S
C4271 C4264 1.409 . S
C4271 C4270 1.362 . S
H4272 C4278 0.930 . S
H4273 C4281 0.930 . S
H4274 C4282 0.930 . S
H4275 C4283 0.930 . S
H4276 C4286 0.930 . S
H4277 C4287 0.930 . S
C4278 H4272 0.930 . S
C4278 C4279 1.355 . S
C4278 C4280 1.415 . S
C4279 C4278 1.355 . S
C4279 C4281 1.419 . S
C4280 C4278 1.415 . S
C4280 C4285 1.425 . S
C4280 C4287 1.409 . S
C4281 H4273 0.930 . S
C4281 C4279 1.419 . S
C4281 C4282 1.362 . S
C4282 H4274 0.930 . S
C4282 C4281 1.362 . S
C4282 C4285 1.409 . S
C4283 H4275 0.930 . S
C4283 C4284 1.355 . S
C4283 C4285 1.415 . S
C4284 C4283 1.355 . S
C4284 C4286 1.419 . S
C4285 C4280 1.425 . S
C4285 C4282 1.409 . S
C4285 C4283 1.415 . S
C4286 H4276 0.930 . S
C4286 C4284 1.419 . S
C4286 C4287 1.362 . S
C4287 H4277 0.930 . S
C4287 C4280 1.409 . S
C4287 C4286 1.362 . S
H4288 C4294 0.930 . S
H4289 C4297 0.930 . S
H4290 C4298 0.930 . S
H4291 C4299 0.930 . S
H4292 C4302 0.930 . S
H4293 C4303 0.930 . S
C4294 H4288 0.930 . S
C4294 C4295 1.355 . S
C4294 C4296 1.415 . S
C4295 C4294 1.355 . S
C4295 C4297 1.419 . S
C4296 C4294 1.415 . S
C4296 C4301 1.425 . S
C4296 C4303 1.409 . S
C4297 H4289 0.930 . S
C4297 C4295 1.419 . S
C4297 C4298 1.362 . S
C4298 H4290 0.930 . S
C4298 C4297 1.362 . S
C4298 C4301 1.409 . S
C4299 H4291 0.930 . S
C4299 C4300 1.355 . S
C4299 C4301 1.415 . S
C4300 C4299 1.355 . S
C4300 C4302 1.419 . S
C4301 C4296 1.425 . S
C4301 C4298 1.409 . S
C4301 C4299 1.415 . S
C4302 H4292 0.930 . S
C4302 C4300 1.419 . S
C4302 C4303 1.362 . S
C4303 H4293 0.930 . S
C4303 C4296 1.409 . S
C4303 C4302 1.362 . S
H4304 C4310 0.930 . S
H4305 C4313 0.930 . S
H4306 C4314 0.930 . S
H4307 C4315 0.930 . S
H4308 C4318 0.930 . S
H4309 C4319 0.930 . S
C4310 H4304 0.930 . S
C4310 C4311 1.355 . S
C4310 C4312 1.415 . S
C4311 C4310 1.355 . S
C4311 C4313 1.419 . S
C4312 C4310 1.415 . S
C4312 C4317 1.425 . S
C4312 C4319 1.409 . S
C4313 H4305 0.930 . S
C4313 C4311 1.419 . S
C4313 C4314 1.362 . S
C4314 H4306 0.930 . S
C4314 C4313 1.362 . S
C4314 C4317 1.409 . S
C4315 H4307 0.930 . S
C4315 C4316 1.355 . S
C4315 C4317 1.415 . S
C4316 C4315 1.355 . S
C4316 C4318 1.419 . S
C4317 C4312 1.425 . S
C4317 C4314 1.409 . S
C4317 C4315 1.415 . S
C4318 H4308 0.930 . S
C4318 C4316 1.419 . S
C4318 C4319 1.362 . S
C4319 H4309 0.930 . S
C4319 C4312 1.409 . S
C4319 C4318 1.362 . S
H4320 C4326 0.930 . S
H4321 C4329 0.930 . S
H4322 C4330 0.930 . S
H4323 C4331 0.930 . S
H4324 C4334 0.930 . S
H4325 C4335 0.930 . S
C4326 H4320 0.930 . S
C4326 C4327 1.355 . S
C4326 C4328 1.415 . S
C4327 C4326 1.355 . S
C4327 C4329 1.419 . S
C4328 C4326 1.415 . S
C4328 C4333 1.425 . S
C4328 C4335 1.409 . S
C4329 H4321 0.930 . S
C4329 C4327 1.419 . S
C4329 C4330 1.362 . S
C4330 H4322 0.930 . S
C4330 C4329 1.362 . S
C4330 C4333 1.409 . S
C4331 H4323 0.930 . S
C4331 C4332 1.355 . S
C4331 C4333 1.415 . S
C4332 C4331 1.355 . S
C4332 C4334 1.419 . S
C4333 C4328 1.425 . S
C4333 C4330 1.409 . S
C4333 C4331 1.415 . S
C4334 H4324 0.930 . S
C4334 C4332 1.419 . S
C4334 C4335 1.362 . S
C4335 H4325 0.930 . S
C4335 C4328 1.409 . S
C4335 C4334 1.362 . S
H4336 C4342 0.930 . S
H4337 C4345 0.930 . S
H4338 C4346 0.930 . S
H4339 C4347 0.930 . S
H4340 C4350 0.930 . S
H4341 C4351 0.930 . S
C4342 H4336 0.930 . S
C4342 C4343 1.355 . S
C4342 C4344 1.415 . S
C4343 C4342 1.355 . S
C4343 C4345 1.419 . S
C4344 C4342 1.415 . S
C4344 C4349 1.425 . S
C4344 C4351 1.409 . S
C4345 H4337 0.930 . S
C4345 C4343 1.419 . S
C4345 C4346 1.362 . S
C4346 H4338 0.930 . S
C4346 C4345 1.362 . S
C4346 C4349 1.409 . S
C4347 H4339 0.930 . S
C4347 C4348 1.355 . S
C4347 C4349 1.415 . S
C4348 C4347 1.355 . S
C4348 C4350 1.419 . S
C4349 C4344 1.425 . S
C4349 C4346 1.409 . S
C4349 C4347 1.415 . S
C4350 H4340 0.930 . S
C4350 C4348 1.419 . S
C4350 C4351 1.362 . S
C4351 H4341 0.930 . S
C4351 C4344 1.409 . S
C4351 C4350 1.362 . S
H4352 C4358 0.930 . S
H4353 C4361 0.930 . S
H4354 C4362 0.930 . S
H4355 C4363 0.930 . S
H4356 C4366 0.930 . S
H4357 C4367 0.930 . S
C4358 H4352 0.930 . S
C4358 C4359 1.355 . S
C4358 C4360 1.415 . S
C4359 C4358 1.355 . S
C4359 C4361 1.419 . S
C4360 C4358 1.415 . S
C4360 C4365 1.425 . S
C4360 C4367 1.409 . S
C4361 H4353 0.930 . S
C4361 C4359 1.419 . S
C4361 C4362 1.362 . S
C4362 H4354 0.930 . S
C4362 C4361 1.362 . S
C4362 C4365 1.409 . S
C4363 H4355 0.930 . S
C4363 C4364 1.355 . S
C4363 C4365 1.415 . S
C4364 C4363 1.355 . S
C4364 C4366 1.419 . S
C4365 C4360 1.425 . S
C4365 C4362 1.409 . S
C4365 C4363 1.415 . S
C4366 H4356 0.930 . S
C4366 C4364 1.419 . S
C4366 C4367 1.362 . S
C4367 H4357 0.930 . S
C4367 C4360 1.409 . S
C4367 C4366 1.362 . S
H4368 C4374 0.930 . S
H4369 C4377 0.930 . S
H4370 C4378 0.930 . S
H4371 C4379 0.930 . S
H4372 C4382 0.930 . S
H4373 C4383 0.930 . S
C4374 H4368 0.930 . S
C4374 C4375 1.355 . S
C4374 C4376 1.415 . S
C4375 C4374 1.355 . S
C4375 C4377 1.419 . S
C4376 C4374 1.415 . S
C4376 C4381 1.425 . S
C4376 C4383 1.409 . S
C4377 H4369 0.930 . S
C4377 C4375 1.419 . S
C4377 C4378 1.362 . S
C4378 H4370 0.930 . S
C4378 C4377 1.362 . S
C4378 C4381 1.409 . S
C4379 H4371 0.930 . S
C4379 C4380 1.355 . S
C4379 C4381 1.415 . S
C4380 C4379 1.355 . S
C4380 C4382 1.419 . S
C4381 C4376 1.425 . S
C4381 C4378 1.409 . S
C4381 C4379 1.415 . S
C4382 H4372 0.930 . S
C4382 C4380 1.419 . S
C4382 C4383 1.362 . S
C4383 H4373 0.930 . S
C4383 C4376 1.409 . S
C4383 C4382 1.362 . S
H4384 C4390 0.930 . S
H4385 C4393 0.930 . S
H4386 C4394 0.930 . S
H4387 C4395 0.930 . S
H4388 C4398 0.930 . S
H4389 C4399 0.930 . S
C4390 H4384 0.930 . S
C4390 C4391 1.355 . S
C4390 C4392 1.415 . S
C4391 C4390 1.355 . S
C4391 C4393 1.419 . S
C4392 C4390 1.415 . S
C4392 C4397 1.425 . S
C4392 C4399 1.409 . S
C4393 H4385 0.930 . S
C4393 C4391 1.419 . S
C4393 C4394 1.362 . S
C4394 H4386 0.930 . S
C4394 C4393 1.362 . S
C4394 C4397 1.409 . S
C4395 H4387 0.930 . S
C4395 C4396 1.355 . S
C4395 C4397 1.415 . S
C4396 C4395 1.355 . S
C4396 C4398 1.419 . S
C4397 C4392 1.425 . S
C4397 C4394 1.409 . S
C4397 C4395 1.415 . S
C4398 H4388 0.930 . S
C4398 C4396 1.419 . S
C4398 C4399 1.362 . S
C4399 H4389 0.930 . S
C4399 C4392 1.409 . S
C4399 C4398 1.362 . S
H4400 C4406 0.930 . S
H4401 C4409 0.930 . S
H4402 C4410 0.930 . S
H4403 C4411 0.930 . S
H4404 C4414 0.930 . S
H4405 C4415 0.930 . S
C4406 H4400 0.930 . S
C4406 C4407 1.355 . S
C4406 C4408 1.415 . S
C4407 C4406 1.355 . S
C4407 C4409 1.419 . S
C4408 C4406 1.415 . S
C4408 C4413 1.425 . S
C4408 C4415 1.409 . S
C4409 H4401 0.930 . S
C4409 C4407 1.419 . S
C4409 C4410 1.362 . S
C4410 H4402 0.930 . S
C4410 C4409 1.362 . S
C4410 C4413 1.409 . S
C4411 H4403 0.930 . S
C4411 C4412 1.355 . S
C4411 C4413 1.415 . S
C4412 C4411 1.355 . S
C4412 C4414 1.419 . S
C4413 C4408 1.425 . S
C4413 C4410 1.409 . S
C4413 C4411 1.415 . S
C4414 H4404 0.930 . S
C4414 C4412 1.419 . S
C4414 C4415 1.362 . S
C4415 H4405 0.930 . S
C4415 C4408 1.409 . S
C4415 C4414 1.362 . S
H4416 C4422 0.930 . S
H4417 C4425 0.930 . S
H4418 C4426 0.930 . S
H4419 C4427 0.930 . S
H4420 C4430 0.930 . S
H4421 C4431 0.930 . S
C4422 H4416 0.930 . S
C4422 C4423 1.355 . S
C4422 C4424 1.415 . S
C4423 C4422 1.355 . S
C4423 C4425 1.419 . S
C4424 C4422 1.415 . S
C4424 C4429 1.425 . S
C4424 C4431 1.409 . S
C4425 H4417 0.930 . S
C4425 C4423 1.419 . S
C4425 C4426 1.362 . S
C4426 H4418 0.930 . S
C4426 C4425 1.362 . S
C4426 C4429 1.409 . S
C4427 H4419 0.930 . S
C4427 C4428 1.355 . S
C4427 C4429 1.415 . S
C4428 C4427 1.355 . S
C4428 C4430 1.419 . S
C4429 C4424 1.425 . S
C4429 C4426 1.409 . S
C4429 C4427 1.415 . S
C4430 H4420 0.930 . S
C4430 C4428 1.419 . S
C4430 C4431 1.362 . S
C4431 H4421 0.930 . S
C4431 C4424 1.409 . S
C4431 C4430 1.362 . S
H4432 C4438 0.930 . S
H4433 C4441 0.930 . S
H4434 C4442 0.930 . S
H4435 C4443 0.930 . S
H4436 C4446 0.930 . S
H4437 C4447 0.930 . S
C4438 H4432 0.930 . S
C4438 C4439 1.355 . S
C4438 C4440 1.415 . S
C4439 C4438 1.355 . S
C4439 C4441 1.419 . S
C4440 C4438 1.415 . S
C4440 C4445 1.425 . S
C4440 C4447 1.409 . S
C4441 H4433 0.930 . S
C4441 C4439 1.419 . S
C4441 C4442 1.362 . S
C4442 H4434 0.930 . S
C4442 C4441 1.362 . S
C4442 C4445 1.409 . S
C4443 H4435 0.930 . S
C4443 C4444 1.355 . S
C4443 C4445 1.415 . S
C4444 C4443 1.355 . S
C4444 C4446 1.419 . S
C4445 C4440 1.425 . S
C4445 C4442 1.409 . S
C4445 C4443 1.415 . S
C4446 H4436 0.930 . S
C4446 C4444 1.419 . S
C4446 C4447 1.362 . S
C4447 H4437 0.930 . S
C4447 C4440 1.409 . S
C4447 C4446 1.362 . S
H4448 C4454 0.930 . S
H4449 C4457 0.930 . S
H4450 C4458 0.930 . S
H4451 C4459 0.930 . S
H4452 C4462 0.930 . S
H4453 C4463 0.930 . S
C4454 H4448 0.930 . S
C4454 C4455 1.355 . S
C4454 C4456 1.415 . S
C4455 C4454 1.355 . S
C4455 C4457 1.419 . S
C4456 C4454 1.415 . S
C4456 C4461 1.425 . S
C4456 C4463 1.409 . S
C4457 H4449 0.930 . S
C4457 C4455 1.419 . S
C4457 C4458 1.362 . S
C4458 H4450 0.930 . S
C4458 C4457 1.362 . S
C4458 C4461 1.409 . S
C4459 H4451 0.930 . S
C4459 C4460 1.355 . S
C4459 C4461 1.415 . S
C4460 C4459 1.355 . S
C4460 C4462 1.419 . S
C4461 C4456 1.425 . S
C4461 C4458 1.409 . S
C4461 C4459 1.415 . S
C4462 H4452 0.930 . S
C4462 C4460 1.419 . S
C4462 C4463 1.362 . S
C4463 H4453 0.930 . S
C4463 C4456 1.409 . S
C4463 C4462 1.362 . S
H4464 C4470 0.930 . S
H4465 C4473 0.930 . S
H4466 C4474 0.930 . S
H4467 C4475 0.930 . S
H4468 C4478 0.930 . S
H4469 C4479 0.930 . S
C4470 H4464 0.930 . S
C4470 C4471 1.355 . S
C4470 C4472 1.415 . S
C4471 C4470 1.355 . S
C4471 C4473 1.419 . S
C4472 C4470 1.415 . S
C4472 C4477 1.425 . S
C4472 C4479 1.409 . S
C4473 H4465 0.930 . S
C4473 C4471 1.419 . S
C4473 C4474 1.362 . S
C4474 H4466 0.930 . S
C4474 C4473 1.362 . S
C4474 C4477 1.409 . S
C4475 H4467 0.930 . S
C4475 C4476 1.355 . S
C4475 C4477 1.415 . S
C4476 C4475 1.355 . S
C4476 C4478 1.419 . S
C4477 C4472 1.425 . S
C4477 C4474 1.409 . S
C4477 C4475 1.415 . S
C4478 H4468 0.930 . S
C4478 C4476 1.419 . S
C4478 C4479 1.362 . S
C4479 H4469 0.930 . S
C4479 C4472 1.409 . S
C4479 C4478 1.362 . S
H4480 C4486 0.930 . S
H4481 C4489 0.930 . S
H4482 C4490 0.930 . S
H4483 C4491 0.930 . S
H4484 C4494 0.930 . S
H4485 C4495 0.930 . S
C4486 H4480 0.930 . S
C4486 C4487 1.355 . S
C4486 C4488 1.415 . S
C4487 C4486 1.355 . S
C4487 C4489 1.419 . S
C4488 C4486 1.415 . S
C4488 C4493 1.425 . S
C4488 C4495 1.409 . S
C4489 H4481 0.930 . S
C4489 C4487 1.419 . S
C4489 C4490 1.362 . S
C4490 H4482 0.930 . S
C4490 C4489 1.362 . S
C4490 C4493 1.409 . S
C4491 H4483 0.930 . S
C4491 C4492 1.355 . S
C4491 C4493 1.415 . S
C4492 C4491 1.355 . S
C4492 C4494 1.419 . S
C4493 C4488 1.425 . S
C4493 C4490 1.409 . S
C4493 C4491 1.415 . S
C4494 H4484 0.930 . S
C4494 C4492 1.419 . S
C4494 C4495 1.362 . S
C4495 H4485 0.930 . S
C4495 C4488 1.409 . S
C4495 C4494 1.362 . S
H4496 C4502 0.930 . S
H4497 C4505 0.930 . S
H4498 C4506 0.930 . S
H4499 C4507 0.930 . S
H4500 C4510 0.930 . S
H4501 C4511 0.930 . S
C4502 H4496 0.930 . S
C4502 C4503 1.355 . S
C4502 C4504 1.415 . S
C4503 C4502 1.355 . S
C4503 C4505 1.419 . S
C4504 C4502 1.415 . S
C4504 C4509 1.425 . S
C4504 C4511 1.409 . S
C4505 H4497 0.930 . S
C4505 C4503 1.419 . S
C4505 C4506 1.362 . S
C4506 H4498 0.930 . S
C4506 C4505 1.362 . S
C4506 C4509 1.409 . S
C4507 H4499 0.930 . S
C4507 C4508 1.355 . S
C4507 C4509 1.415 . S
C4508 C4507 1.355 . S
C4508 C4510 1.419 . S
C4509 C4504 1.425 . S
C4509 C4506 1.409 . S
C4509 C4507 1.415 . S
C4510 H4500 0.930 . S
C4510 C4508 1.419 . S
C4510 C4511 1.362 . S
C4511 H4501 0.930 . S
C4511 C4504 1.409 . S
C4511 C4510 1.362 . S
H4512 C4518 0.930 . S
H4513 C4521 0.930 . S
H4514 C4522 0.930 . S
H4515 C4523 0.930 . S
H4516 C4526 0.930 . S
H4517 C4527 0.930 . S
C4518 H4512 0.930 . S
C4518 C4519 1.355 . S
C4518 C4520 1.415 . S
C4519 C4518 1.355 . S
C4519 C4521 1.419 . S
C4520 C4518 1.415 . S
C4520 C4525 1.425 . S
C4520 C4527 1.409 . S
C4521 H4513 0.930 . S
C4521 C4519 1.419 . S
C4521 C4522 1.362 . S
C4522 H4514 0.930 . S
C4522 C4521 1.362 . S
C4522 C4525 1.409 . S
C4523 H4515 0.930 . S
C4523 C4524 1.355 . S
C4523 C4525 1.415 . S
C4524 C4523 1.355 . S
C4524 C4526 1.419 . S
C4525 C4520 1.425 . S
C4525 C4522 1.409 . S
C4525 C4523 1.415 . S
C4526 H4516 0.930 . S
C4526 C4524 1.419 . S
C4526 C4527 1.362 . S
C4527 H4517 0.930 . S
C4527 C4520 1.409 . S
C4527 C4526 1.362 . S
H4528 C4534 0.930 . S
H4529 C4537 0.930 . S
H4530 C4538 0.930 . S
H4531 C4539 0.930 . S
H4532 C4542 0.930 . S
H4533 C4543 0.930 . S
C4534 H4528 0.930 . S
C4534 C4535 1.355 . S
C4534 C4536 1.415 . S
C4535 C4534 1.355 . S
C4535 C4537 1.419 . S
C4536 C4534 1.415 . S
C4536 C4541 1.425 . S
C4536 C4543 1.409 . S
C4537 H4529 0.930 . S
C4537 C4535 1.419 . S
C4537 C4538 1.362 . S
C4538 H4530 0.930 . S
C4538 C4537 1.362 . S
C4538 C4541 1.409 . S
C4539 H4531 0.930 . S
C4539 C4540 1.355 . S
C4539 C4541 1.415 . S
C4540 C4539 1.355 . S
C4540 C4542 1.419 . S
C4541 C4536 1.425 . S
C4541 C4538 1.409 . S
C4541 C4539 1.415 . S
C4542 H4532 0.930 . S
C4542 C4540 1.419 . S
C4542 C4543 1.362 . S
C4543 H4533 0.930 . S
C4543 C4536 1.409 . S
C4543 C4542 1.362 . S
H4544 C4550 0.930 . S
H4545 C4553 0.930 . S
H4546 C4554 0.930 . S
H4547 C4555 0.930 . S
H4548 C4558 0.930 . S
H4549 C4559 0.930 . S
C4550 H4544 0.930 . S
C4550 C4551 1.355 . S
C4550 C4552 1.415 . S
C4551 C4550 1.355 . S
C4551 C4553 1.419 . S
C4552 C4550 1.415 . S
C4552 C4557 1.425 . S
C4552 C4559 1.409 . S
C4553 H4545 0.930 . S
C4553 C4551 1.419 . S
C4553 C4554 1.362 . S
C4554 H4546 0.930 . S
C4554 C4553 1.362 . S
C4554 C4557 1.409 . S
C4555 H4547 0.930 . S
C4555 C4556 1.355 . S
C4555 C4557 1.415 . S
C4556 C4555 1.355 . S
C4556 C4558 1.419 . S
C4557 C4552 1.425 . S
C4557 C4554 1.409 . S
C4557 C4555 1.415 . S
C4558 H4548 0.930 . S
C4558 C4556 1.419 . S
C4558 C4559 1.362 . S
C4559 H4549 0.930 . S
C4559 C4552 1.409 . S
C4559 C4558 1.362 . S
H4560 C4566 0.930 . S
H4561 C4569 0.930 . S
H4562 C4570 0.930 . S
H4563 C4571 0.930 . S
H4564 C4574 0.930 . S
H4565 C4575 0.930 . S
C4566 H4560 0.930 . S
C4566 C4567 1.355 . S
C4566 C4568 1.415 . S
C4567 C4566 1.355 . S
C4567 C4569 1.419 . S
C4568 C4566 1.415 . S
C4568 C4573 1.425 . S
C4568 C4575 1.409 . S
C4569 H4561 0.930 . S
C4569 C4567 1.419 . S
C4569 C4570 1.362 . S
C4570 H4562 0.930 . S
C4570 C4569 1.362 . S
C4570 C4573 1.409 . S
C4571 H4563 0.930 . S
C4571 C4572 1.355 . S
C4571 C4573 1.415 . S
C4572 C4571 1.355 . S
C4572 C4574 1.419 . S
C4573 C4568 1.425 . S
C4573 C4570 1.409 . S
C4573 C4571 1.415 . S
C4574 H4564 0.930 . S
C4574 C4572 1.419 . S
C4574 C4575 1.362 . S
C4575 H4565 0.930 . S
C4575 C4568 1.409 . S
C4575 C4574 1.362 . S
H4576 C4582 0.930 . S
H4577 C4585 0.930 . S
H4578 C4586 0.930 . S
H4579 C4587 0.930 . S
H4580 C4590 0.930 . S
H4581 C4591 0.930 . S
C4582 H4576 0.930 . S
C4582 C4583 1.355 . S
C4582 C4584 1.415 . S
C4583 C4582 1.355 . S
C4583 C4585 1.419 . S
C4584 C4582 1.415 . S
C4584 C4589 1.425 . S
C4584 C4591 1.409 . S
C4585 H4577 0.930 . S
C4585 C4583 1.419 . S
C4585 C4586 1.362 . S
C4586 H4578 0.930 . S
C4586 C4585 1.362 . S
C4586 C4589 1.409 . S
C4587 H4579 0.930 . S
C4587 C4588 1.355 . S
C4587 C4589 1.415 . S
C4588 C4587 1.355 . S
C4588 C4590 1.419 . S
C4589 C4584 1.425 . S
C4589 C4586 1.409 . S
C4589 C4587 1.415 . S
C4590 H4580 0.930 . S
C4590 C4588 1.419 . S
C4590 C4591 1.362 . S
C4591 H4581 0.930 . S
C4591 C4584 1.409 . S
C4591 C4590 1.362 . S
H4592 C4598 0.930 . S
H4593 C4601 0.930 . S
H4594 C4602 0.930 . S
H4595 C4603 0.930 . S
H4596 C4606 0.930 . S
H4597 C4607 0.930 . S
C4598 H4592 0.930 . S
C4598 C4599 1.355 . S
C4598 C4600 1.415 . S
C4599 C4598 1.355 . S
C4599 C4601 1.419 . S
C4600 C4598 1.415 . S
C4600 C4605 1.425 . S
C4600 C4607 1.409 . S
C4601 H4593 0.930 . S
C4601 C4599 1.419 . S
C4601 C4602 1.362 . S
C4602 H4594 0.930 . S
C4602 C4601 1.362 . S
C4602 C4605 1.409 . S
C4603 H4595 0.930 . S
C4603 C4604 1.355 . S
C4603 C4605 1.415 . S
C4604 C4603 1.355 . S
C4604 C4606 1.419 . S
C4605 C4600 1.425 . S
C4605 C4602 1.409 . S
C4605 C4603 1.415 . S
C4606 H4596 0.930 . S
C4606 C4604 1.419 . S
C4606 C4607 1.362 . S
C4607 H4597 0.930 . S
C4607 C4600 1.409 . S
C4607 C4606 1.362 . S
H4608 C4614 0.930 . S
H4609 C4617 0.930 . S
H4610 C4618 0.930 . S
H4611 C4619 0.930 . S
H4612 C4622 0.930 . S
H4613 C4623 0.930 . S
C4614 H4608 0.930 . S
C4614 C4615 1.355 . S
C4614 C4616 1.415 . S
C4615 C4614 1.355 . S
C4615 C4617 1.419 . S
C4616 C4614 1.415 . S
C4616 C4621 1.425 . S
C4616 C4623 1.409 . S
C4617 H4609 0.930 . S
C4617 C4615 1.419 . S
C4617 C4618 1.362 . S
C4618 H4610 0.930 . S
C4618 C4617 1.362 . S
C4618 C4621 1.409 . S
C4619 H4611 0.930 . S
C4619 C4620 1.355 . S
C4619 C4621 1.415 . S
C4620 C4619 1.355 . S
C4620 C4622 1.419 . S
C4621 C4616 1.425 . S
C4621 C4618 1.409 . S
C4621 C4619 1.415 . S
C4622 H4612 0.930 . S
C4622 C4620 1.419 . S
C4622 C4623 1.362 . S
C4623 H4613 0.930 . S
C4623 C4616 1.409 . S
C4623 C4622 1.362 . S
H4624 C4630 0.930 . S
H4625 C4633 0.930 . S
H4626 C4634 0.930 . S
H4627 C4635 0.930 . S
H4628 C4638 0.930 . S
H4629 C4639 0.930 . S
C4630 H4624 0.930 . S
C4630 C4631 1.355 . S
C4630 C4632 1.415 . S
C4631 C4630 1.355 . S
C4631 C4633 1.419 . S
C4632 C4630 1.415 . S
C4632 C4637 1.425 . S
C4632 C4639 1.409 . S
C4633 H4625 0.930 . S
C4633 C4631 1.419 . S
C4633 C4634 1.362 . S
C4634 H4626 0.930 . S
C4634 C4633 1.362 . S
C4634 C4637 1.409 . S
C4635 H4627 0.930 . S
C4635 C4636 1.355 . S
C4635 C4637 1.415 . S
C4636 C4635 1.355 . S
C4636 C4638 1.419 . S
C4637 C4632 1.425 . S
C4637 C4634 1.409 . S
C4637 C4635 1.415 . S
C4638 H4628 0.930 . S
C4638 C4636 1.419 . S
C4638 C4639 1.362 . S
C4639 H4629 0.930 . S
C4639 C4632 1.409 . S
C4639 C4638 1.362 . S
H4640 C4646 0.930 . S
H4641 C4649 0.930 . S
H4642 C4650 0.930 . S
H4643 C4651 0.930 . S
H4644 C4654 0.930 . S
H4645 C4655 0.930 . S
C4646 H4640 0.930 . S
C4646 C4647 1.355 . S
C4646 C4648 1.415 . S
C4647 C4646 1.355 . S
C4647 C4649 1.419 . S
C4648 C4646 1.415 . S
C4648 C4653 1.425 . S
C4648 C4655 1.409 . S
C4649 H4641 0.930 . S
C4649 C4647 1.419 . S
C4649 C4650 1.362 . S
C4650 H4642 0.930 . S
C4650 C4649 1.362 . S
C4650 C4653 1.409 . S
C4651 H4643 0.930 . S
C4651 C4652 1.355 . S
C4651 C4653 1.415 . S
C4652 C4651 1.355 . S
C4652 C4654 1.419 . S
C4653 C4648 1.425 . S
C4653 C4650 1.409 . S
C4653 C4651 1.415 . S
C4654 H4644 0.930 . S
C4654 C4652 1.419 . S
C4654 C4655 1.362 . S
C4655 H4645 0.930 . S
C4655 C4648 1.409 . S
C4655 C4654 1.362 . S
H4656 C4662 0.930 . S
H4657 C4665 0.930 . S
H4658 C4666 0.930 . S
H4659 C4667 0.930 . S
H4660 C4670 0.930 . S
H4661 C4671 0.930 . S
C4662 H4656 0.930 . S
C4662 C4663 1.355 . S
C4662 C4664 1.415 . S
C4663 C4662 1.355 . S
C4663 C4665 1.419 . S
C4664 C4662 1.415 . S
C4664 C4669 1.425 . S
C4664 C4671 1.409 . S
C4665 H4657 0.930 . S
C4665 C4663 1.419 . S
C4665 C4666 1.362 . S
C4666 H4658 0.930 . S
C4666 C4665 1.362 . S
C4666 C4669 1.409 . S
C4667 H4659 0.930 . S
C4667 C4668 1.355 . S
C4667 C4669 1.415 . S
C4668 C4667 1.355 . S
C4668 C4670 1.419 . S
C4669 C4664 1.425 . S
C4669 C4666 1.409 . S
C4669 C4667 1.415 . S
C4670 H4660 0.930 . S
C4670 C4668 1.419 . S
C4670 C4671 1.362 . S
C4671 H4661 0.930 . S
C4671 C4664 1.409 . S
C4671 C4670 1.362 . S
H4672 C4678 0.930 . S
H4673 C4681 0.930 . S
H4674 C4682 0.930 . S
H4675 C4683 0.930 . S
H4676 C4686 0.930 . S
H4677 C4687 0.930 . S
C4678 H4672 0.930 . S
C4678 C4679 1.355 . S
C4678 C4680 1.415 . S
C4679 C4678 1.355 . S
C4679 C4681 1.419 . S
C4680 C4678 1.415 . S
C4680 C4685 1.425 . S
C4680 C4687 1.409 . S
C4681 H4673 0.930 . S
C4681 C4679 1.419 . S
C4681 C4682 1.362 . S
C4682 H4674 0.930 . S
C4682 C4681 1.362 . S
C4682 C4685 1.409 . S
C4683 H4675 0.930 . S
C4683 C4684 1.355 . S
C4683 C4685 1.415 . S
C4684 C4683 1.355 . S
C4684 C4686 1.419 . S
C4685 C4680 1.425 . S
C4685 C4682 1.409 . S
C4685 C4683 1.415 . S
C4686 H4676 0.930 . S
C4686 C4684 1.419 . S
C4686 C4687 1.362 . S
C4687 H4677 0.930 . S
C4687 C4680 1.409 . S
C4687 C4686 1.362 . S
H4688 C4694 0.930 . S
H4689 C4697 0.930 . S
H4690 C4698 0.930 . S
H4691 C4699 0.930 . S
H4692 C4702 0.930 . S
H4693 C4703 0.930 . S
C4694 H4688 0.930 . S
C4694 C4695 1.355 . S
C4694 C4696 1.415 . S
C4695 C4694 1.355 . S
C4695 C4697 1.419 . S
C4696 C4694 1.415 . S
C4696 C4701 1.425 . S
C4696 C4703 1.409 . S
C4697 H4689 0.930 . S
C4697 C4695 1.419 . S
C4697 C4698 1.362 . S
C4698 H4690 0.930 . S
C4698 C4697 1.362 . S
C4698 C4701 1.409 . S
C4699 H4691 0.930 . S
C4699 C4700 1.355 . S
C4699 C4701 1.415 . S
C4700 C4699 1.355 . S
C4700 C4702 1.419 . S
C4701 C4696 1.425 . S
C4701 C4698 1.409 . S
C4701 C4699 1.415 . S
C4702 H4692 0.930 . S
C4702 C4700 1.419 . S
C4702 C4703 1.362 . S
C4703 H4693 0.930 . S
C4703 C4696 1.409 . S
C4703 C4702 1.362 . S
H4704 C4710 0.930 . S
H4705 C4713 0.930 . S
H4706 C4714 0.930 . S
H4707 C4715 0.930 . S
H4708 C4718 0.930 . S
H4709 C4719 0.930 . S
C4710 H4704 0.930 . S
C4710 C4711 1.355 . S
C4710 C4712 1.415 . S
C4711 C4710 1.355 . S
C4711 C4713 1.419 . S
C4712 C4710 1.415 . S
C4712 C4717 1.425 . S
C4712 C4719 1.409 . S
C4713 H4705 0.930 . S
C4713 C4711 1.419 . S
C4713 C4714 1.362 . S
C4714 H4706 0.930 . S
C4714 C4713 1.362 . S
C4714 C4717 1.409 . S
C4715 H4707 0.930 . S
C4715 C4716 1.355 . S
C4715 C4717 1.415 . S
C4716 C4715 1.355 . S
C4716 C4718 1.419 . S
C4717 C4712 1.425 . S
C4717 C4714 1.409 . S
C4717 C4715 1.415 . S
C4718 H4708 0.930 . S
C4718 C4716 1.419 . S
C4718 C4719 1.362 . S
C4719 H4709 0.930 . S
C4719 C4712 1.409 . S
C4719 C4718 1.362 . S
H4720 C4726 0.930 . S
H4721 C4729 0.930 . S
H4722 C4730 0.930 . S
H4723 C4731 0.930 . S
H4724 C4734 0.930 . S
H4725 C4735 0.930 . S
C4726 H4720 0.930 . S
C4726 C4727 1.355 . S
C4726 C4728 1.415 . S
C4727 C4726 1.355 . S
C4727 C4729 1.419 . S
C4728 C4726 1.415 . S
C4728 C4733 1.425 . S
C4728 C4735 1.409 . S
C4729 H4721 0.930 . S
C4729 C4727 1.419 . S
C4729 C4730 1.362 . S
C4730 H4722 0.930 . S
C4730 C4729 1.362 . S
C4730 C4733 1.409 . S
C4731 H4723 0.930 . S
C4731 C4732 1.355 . S
C4731 C4733 1.415 . S
C4732 C4731 1.355 . S
C4732 C4734 1.419 . S
C4733 C4728 1.425 . S
C4733 C4730 1.409 . S
C4733 C4731 1.415 . S
C4734 H4724 0.930 . S
C4734 C4732 1.419 . S
C4734 C4735 1.362 . S
C4735 H4725 0.930 . S
C4735 C4728 1.409 . S
C4735 C4734 1.362 . S
H4736 C4742 0.930 . S
H4737 C4745 0.930 . S
H4738 C4746 0.930 . S
H4739 C4747 0.930 . S
H4740 C4750 0.930 . S
H4741 C4751 0.930 . S
C4742 H4736 0.930 . S
C4742 C4743 1.355 . S
C4742 C4744 1.415 . S
C4743 C4742 1.355 . S
C4743 C4745 1.419 . S
C4744 C4742 1.415 . S
C4744 C4749 1.425 . S
C4744 C4751 1.409 . S
C4745 H4737 0.930 . S
C4745 C4743 1.419 . S
C4745 C4746 1.362 . S
C4746 H4738 0.930 . S
C4746 C4745 1.362 . S
C4746 C4749 1.409 . S
C4747 H4739 0.930 . S
C4747 C4748 1.355 . S
C4747 C4749 1.415 . S
C4748 C4747 1.355 . S
C4748 C4750 1.419 . S
C4749 C4744 1.425 . S
C4749 C4746 1.409 . S
C4749 C4747 1.415 . S
C4750 H4740 0.930 . S
C4750 C4748 1.419 . S
C4750 C4751 1.362 . S
C4751 H4741 0.930 . S
C4751 C4744 1.409 . S
C4751 C4750 1.362 . S
H4752 C4758 0.930 . S
H4753 C4761 0.930 . S
H4754 C4762 0.930 . S
H4755 C4763 0.930 . S
H4756 C4766 0.930 . S
H4757 C4767 0.930 . S
C4758 H4752 0.930 . S
C4758 C4759 1.355 . S
C4758 C4760 1.415 . S
C4759 C4758 1.355 . S
C4759 C4761 1.419 . S
C4760 C4758 1.415 . S
C4760 C4765 1.425 . S
C4760 C4767 1.409 . S
C4761 H4753 0.930 . S
C4761 C4759 1.419 . S
C4761 C4762 1.362 . S
C4762 H4754 0.930 . S
C4762 C4761 1.362 . S
C4762 C4765 1.409 . S
C4763 H4755 0.930 . S
C4763 C4764 1.355 . S
C4763 C4765 1.415 . S
C4764 C4763 1.355 . S
C4764 C4766 1.419 . S
C4765 C4760 1.425 . S
C4765 C4762 1.409 . S
C4765 C4763 1.415 . S
C4766 H4756 0.930 . S
C4766 C4764 1.419 . S
C4766 C4767 1.362 . S
C4767 H4757 0.930 . S
C4767 C4760 1.409 . S
C4767 C4766 1.362 . S
H4768 C4774 0.930 . S
H4769 C4777 0.930 . S
H4770 C4778 0.930 . S
H4771 C4779 0.930 . S
H4772 C4782 0.930 . S
H4773 C4783 0.930 . S
C4774 H4768 0.930 . S
C4774 C4775 1.355 . S
C4774 C4776 1.415 . S
C4775 C4774 1.355 . S
C4775 C4777 1.419 . S
C4776 C4774 1.415 . S
C4776 C4781 1.425 . S
C4776 C4783 1.409 . S
C4777 H4769 0.930 . S
C4777 C4775 1.419 . S
C4777 C4778 1.362 . S
C4778 H4770 0.930 . S
C4778 C4777 1.362 . S
C4778 C4781 1.409 . S
C4779 H4771 0.930 . S
C4779 C4780 1.355 . S
C4779 C4781 1.415 . S
C4780 C4779 1.355 . S
C4780 C4782 1.419 . S
C4781 C4776 1.425 . S
C4781 C4778 1.409 . S
C4781 C4779 1.415 . S
C4782 H4772 0.930 . S
C4782 C4780 1.419 . S
C4782 C4783 1.362 . S
C4783 H4773 0.930 . S
C4783 C4776 1.409 . S
C4783 C4782 1.362 . S
H4784 C4790 0.930 . S
H4785 C4793 0.930 . S
H4786 C4794 0.930 . S
H4787 C4795 0.930 . S
H4788 C4798 0.930 . S
H4789 C4799 0.930 . S
C4790 H4784 0.930 . S
C4790 C4791 1.355 . S
C4790 C4792 1.415 . S
C4791 C4790 1.355 . S
C4791 C4793 1.419 . S
C4792 C4790 1.415 . S
C4792 C4797 1.425 . S
C4792 C4799 1.409 . S
C4793 H4785 0.930 . S
C4793 C4791 1.419 . S
C4793 C4794 1.362 . S
C4794 H4786 0.930 . S
C4794 C4793 1.362 . S
C4794 C4797 1.409 . S
C4795 H4787 0.930 . S
C4795 C4796 1.355 . S
C4795 C4797 1.415 . S
C4796 C4795 1.355 . S
C4796 C4798 1.419 . S
C4797 C4792 1.425 . S
C4797 C4794 1.409 . S
C4797 C4795 1.415 . S
C4798 H4788 0.930 . S
C4798 C4796 1.419 . S
C4798 C4799 1.362 . S
C4799 H4789 0.930 . S
C4799 C4792 1.409 . S
C4799 C4798 1.362 . S
H4800 C4806 0.930 . S
H4801 C4809 0.930 . S
H4802 C4810 0.930 . S
H4803 C4811 0.930 . S
H4804 C4814 0.930 . S
H4805 C4815 0.930 . S
C4806 H4800 0.930 . S
C4806 C4807 1.355 . S
C4806 C4808 1.415 . S
C4807 C4806 1.355 . S
C4807 C4809 1.419 . S
C4808 C4806 1.415 . S
C4808 C4813 1.425 . S
C4808 C4815 1.409 . S
C4809 H4801 0.930 . S
C4809 C4807 1.419 . S
C4809 C4810 1.362 . S
C4810 H4802 0.930 . S
C4810 C4809 1.362 . S
C4810 C4813 1.409 . S
C4811 H4803 0.930 . S
C4811 C4812 1.355 . S
C4811 C4813 1.415 . S
C4812 C4811 1.355 . S
C4812 C4814 1.419 . S
C4813 C4808 1.425 . S
C4813 C4810 1.409 . S
C4813 C4811 1.415 . S
C4814 H4804 0.930 . S
C4814 C4812 1.419 . S
C4814 C4815 1.362 . S
C4815 H4805 0.930 . S
C4815 C4808 1.409 . S
C4815 C4814 1.362 . S
H4816 C4822 0.930 . S
H4817 C4825 0.930 . S
H4818 C4826 0.930 . S
H4819 C4827 0.930 . S
H4820 C4830 0.930 . S
H4821 C4831 0.930 . S
C4822 H4816 0.930 . S
C4822 C4823 1.355 . S
C4822 C4824 1.415 . S
C4823 C4822 1.355 . S
C4823 C4825 1.419 . S
C4824 C4822 1.415 . S
C4824 C4829 1.425 . S
C4824 C4831 1.409 . S
C4825 H4817 0.930 . S
C4825 C4823 1.419 . S
C4825 C4826 1.362 . S
C4826 H4818 0.930 . S
C4826 C4825 1.362 . S
C4826 C4829 1.409 . S
C4827 H4819 0.930 . S
C4827 C4828 1.355 . S
C4827 C4829 1.415 . S
C4828 C4827 1.355 . S
C4828 C4830 1.419 . S
C4829 C4824 1.425 . S
C4829 C4826 1.409 . S
C4829 C4827 1.415 . S
C4830 H4820 0.930 . S
C4830 C4828 1.419 . S
C4830 C4831 1.362 . S
C4831 H4821 0.930 . S
C4831 C4824 1.409 . S
C4831 C4830 1.362 . S
H4832 C4838 0.930 . S
H4833 C4841 0.930 . S
H4834 C4842 0.930 . S
H4835 C4843 0.930 . S
H4836 C4846 0.930 . S
H4837 C4847 0.930 . S
C4838 H4832 0.930 . S
C4838 C4839 1.355 . S
C4838 C4840 1.415 . S
C4839 C4838 1.355 . S
C4839 C4841 1.419 . S
C4840 C4838 1.415 . S
C4840 C4845 1.425 . S
C4840 C4847 1.409 . S
C4841 H4833 0.930 . S
C4841 C4839 1.419 . S
C4841 C4842 1.362 . S
C4842 H4834 0.930 . S
C4842 C4841 1.362 . S
C4842 C4845 1.409 . S
C4843 H4835 0.930 . S
C4843 C4844 1.355 . S
C4843 C4845 1.415 . S
C4844 C4843 1.355 . S
C4844 C4846 1.419 . S
C4845 C4840 1.425 . S
C4845 C4842 1.409 . S
C4845 C4843 1.415 . S
C4846 H4836 0.930 . S
C4846 C4844 1.419 . S
C4846 C4847 1.362 . S
C4847 H4837 0.930 . S
C4847 C4840 1.409 . S
C4847 C4846 1.362 . S
H4848 C4854 0.930 . S
H4849 C4857 0.930 . S
H4850 C4858 0.930 . S
H4851 C4859 0.930 . S
H4852 C4862 0.930 . S
H4853 C4863 0.930 . S
C4854 H4848 0.930 . S
C4854 C4855 1.355 . S
C4854 C4856 1.415 . S
C4855 C4854 1.355 . S
C4855 C4857 1.419 . S
C4856 C4854 1.415 . S
C4856 C4861 1.425 . S
C4856 C4863 1.409 . S
C4857 H4849 0.930 . S
C4857 C4855 1.419 . S
C4857 C4858 1.362 . S
C4858 H4850 0.930 . S
C4858 C4857 1.362 . S
C4858 C4861 1.409 . S
C4859 H4851 0.930 . S
C4859 C4860 1.355 . S
C4859 C4861 1.415 . S
C4860 C4859 1.355 . S
C4860 C4862 1.419 . S
C4861 C4856 1.425 . S
C4861 C4858 1.409 . S
C4861 C4859 1.415 . S
C4862 H4852 0.930 . S
C4862 C4860 1.419 . S
C4862 C4863 1.362 . S
C4863 H4853 0.930 . S
C4863 C4856 1.409 . S
C4863 C4862 1.362 . S
H4864 C4870 0.930 . S
H4865 C4873 0.930 . S
H4866 C4874 0.930 . S
H4867 C4875 0.930 . S
H4868 C4878 0.930 . S
H4869 C4879 0.930 . S
C4870 H4864 0.930 . S
C4870 C4871 1.355 . S
C4870 C4872 1.415 . S
C4871 C4870 1.355 . S
C4871 C4873 1.419 . S
C4872 C4870 1.415 . S
C4872 C4877 1.425 . S
C4872 C4879 1.409 . S
C4873 H4865 0.930 . S
C4873 C4871 1.419 . S
C4873 C4874 1.362 . S
C4874 H4866 0.930 . S
C4874 C4873 1.362 . S
C4874 C4877 1.409 . S
C4875 H4867 0.930 . S
C4875 C4876 1.355 . S
C4875 C4877 1.415 . S
C4876 C4875 1.355 . S
C4876 C4878 1.419 . S
C4877 C4872 1.425 . S
C4877 C4874 1.409 . S
C4877 C4875 1.415 . S
C4878 H4868 0.930 . S
C4878 C4876 1.419 . S
C4878 C4879 1.362 . S
C4879 H4869 0.930 . S
C4879 C4872 1.409 . S
C4879 C4878 1.362 . S
H4880 C4886 0.930 . S
H4881 C4889 0.930 . S
H4882 C4890 0.930 . S
H4883 C4891 0.930 . S
H4884 C4894 0.930 . S
H4885 C4895 0.930 . S
C4886 H4880 0.930 . S
C4886 C4887 1.355 . S
C4886 C4888 1.415 . S
C4887 C4886 1.355 . S
C4887 C4889 1.419 . S
C4888 C4886 1.415 . S
C4888 C4893 1.425 . S
C4888 C4895 1.409 . S
C4889 H4881 0.930 . S
C4889 C4887 1.419 . S
C4889 C4890 1.362 . S
C4890 H4882 0.930 . S
C4890 C4889 1.362 . S
C4890 C4893 1.409 . S
C4891 H4883 0.930 . S
C4891 C4892 1.355 . S
C4891 C4893 1.415 . S
C4892 C4891 1.355 . S
C4892 C4894 1.419 . S
C4893 C4888 1.425 . S
C4893 C4890 1.409 . S
C4893 C4891 1.415 . S
C4894 H4884 0.930 . S
C4894 C4892 1.419 . S
C4894 C4895 1.362 . S
C4895 H4885 0.930 . S
C4895 C4888 1.409 . S
C4895 C4894 1.362 . S
H4896 C4902 0.930 . S
H4897 C4905 0.930 . S
H4898 C4906 0.930 . S
H4899 C4907 0.930 . S
H4900 C4910 0.930 . S
H4901 C4911 0.930 . S
C4902 H4896 0.930 . S
C4902 C4903 1.355 . S
C4902 C4904 1.415 . S
C4903 C4902 1.355 . S
C4903 C4905 1.419 . S
C4904 C4902 1.415 . S
C4904 C4909 1.425 . S
C4904 C4911 1.409 . S
C4905 H4897 0.930 . S
C4905 C4903 1.419 . S
C4905 C4906 1.362 . S
C4906 H4898 0.930 . S
C4906 C4905 1.362 . S
C4906 C4909 1.409 . S
C4907 H4899 0.930 . S
C4907 C4908 1.355 . S
C4907 C4909 1.415 . S
C4908 C4907 1.355 . S
C4908 C4910 1.419 . S
C4909 C4904 1.425 . S
C4909 C4906 1.409 . S
C4909 C4907 1.415 . S
C4910 H4900 0.930 . S
C4910 C4908 1.419 . S
C4910 C4911 1.362 . S
C4911 H4901 0.930 . S
C4911 C4904 1.409 . S
C4911 C4910 1.362 . S
H4912 C4918 0.930 . S
H4913 C4921 0.930 . S
H4914 C4922 0.930 . S
H4915 C4923 0.930 . S
H4916 C4926 0.930 . S
H4917 C4927 0.930 . S
C4918 H4912 0.930 . S
C4918 C4919 1.355 . S
C4918 C4920 1.415 . S
C4919 C4918 1.355 . S
C4919 C4921 1.419 . S
C4920 C4918 1.415 . S
C4920 C4925 1.425 . S
C4920 C4927 1.409 . S
C4921 H4913 0.930 . S
C4921 C4919 1.419 . S
C4921 C4922 1.362 . S
C4922 H4914 0.930 . S
C4922 C4921 1.362 . S
C4922 C4925 1.409 . S
C4923 H4915 0.930 . S
C4923 C4924 1.355 . S
C4923 C4925 1.415 . S
C4924 C4923 1.355 . S
C4924 C4926 1.419 . S
C4925 C4920 1.425 . S
C4925 C4922 1.409 . S
C4925 C4923 1.415 . S
C4926 H4916 0.930 . S
C4926 C4924 1.419 . S
C4926 C4927 1.362 . S
C4927 H4917 0.930 . S
C4927 C4920 1.409 . S
C4927 C4926 1.362 . S
H4928 C4934 0.930 . S
H4929 C4937 0.930 . S
H4930 C4938 0.930 . S
H4931 C4939 0.930 . S
H4932 C4942 0.930 . S
H4933 C4943 0.930 . S
C4934 H4928 0.930 . S
C4934 C4935 1.355 . S
C4934 C4936 1.415 . S
C4935 C4934 1.355 . S
C4935 C4937 1.419 . S
C4936 C4934 1.415 . S
C4936 C4941 1.425 . S
C4936 C4943 1.409 . S
C4937 H4929 0.930 . S
C4937 C4935 1.419 . S
C4937 C4938 1.362 . S
C4938 H4930 0.930 . S
C4938 C4937 1.362 . S
C4938 C4941 1.409 . S
C4939 H4931 0.930 . S
C4939 C4940 1.355 . S
C4939 C4941 1.415 . S
C4940 C4939 1.355 . S
C4940 C4942 1.419 . S
C4941 C4936 1.425 . S
C4941 C4938 1.409 . S
C4941 C4939 1.415 . S
C4942 H4932 0.930 . S
C4942 C4940 1.419 . S
C4942 C4943 1.362 . S
C4943 H4933 0.930 . S
C4943 C4936 1.409 . S
C4943 C4942 1.362 . S
H4944 C4950 0.930 . S
H4945 C4953 0.930 . S
H4946 C4954 0.930 . S
H4947 C4955 0.930 . S
H4948 C4958 0.930 . S
H4949 C4959 0.930 . S
C4950 H4944 0.930 . S
C4950 C4951 1.355 . S
C4950 C4952 1.415 . S
C4951 C4950 1.355 . S
C4951 C4953 1.419 . S
C4952 C4950 1.415 . S
C4952 C4957 1.425 . S
C4952 C4959 1.409 . S
C4953 H4945 0.930 . S
C4953 C4951 1.419 . S
C4953 C4954 1.362 . S
C4954 H4946 0.930 . S
C4954 C4953 1.362 . S
C4954 C4957 1.409 . S
C4955 H4947 0.930 . S
C4955 C4956 1.355 . S
C4955 C4957 1.415 . S
C4956 C4955 1.355 . S
C4956 C4958 1.419 . S
C4957 C4952 1.425 . S
C4957 C4954 1.409 . S
C4957 C4955 1.415 . S
C4958 H4948 0.930 . S
C4958 C4956 1.419 . S
C4958 C4959 1.362 . S
C4959 H4949 0.930 . S
C4959 C4952 1.409 . S
C4959 C4958 1.362 . S
H4960 C4966 0.930 . S
H4961 C4969 0.930 . S
H4962 C4970 0.930 . S
H4963 C4971 0.930 . S
H4964 C4974 0.930 . S
H4965 C4975 0.930 . S
C4966 H4960 0.930 . S
C4966 C4967 1.355 . S
C4966 C4968 1.415 . S
C4967 C4966 1.355 . S
C4967 C4969 1.419 . S
C4968 C4966 1.415 . S
C4968 C4973 1.425 . S
C4968 C4975 1.409 . S
C4969 H4961 0.930 . S
C4969 C4967 1.419 . S
C4969 C4970 1.362 . S
C4970 H4962 0.930 . S
C4970 C4969 1.362 . S
C4970 C4973 1.409 . S
C4971 H4963 0.930 . S
C4971 C4972 1.355 . S
C4971 C4973 1.415 . S
C4972 C4971 1.355 . S
C4972 C4974 1.419 . S
C4973 C4968 1.425 . S
C4973 C4970 1.409 . S
C4973 C4971 1.415 . S
C4974 H4964 0.930 . S
C4974 C4972 1.419 . S
C4974 C4975 1.362 . S
C4975 H4965 0.930 . S
C4975 C4968 1.409 . S
C4975 C4974 1.362 . S
H4976 C4982 0.930 . S
H4977 C4985 0.930 . S
H4978 C4986 0.930 . S
H4979 C4987 0.930 . S
H4980 C4990 0.930 . S
H4981 C4991 0.930 . S
C4982 H4976 0.930 . S
C4982 C4983 1.355 . S
C4982 C4984 1.415 . S
C4983 C4982 1.355 . S
C4983 C4985 1.419 . S
C4984 C4982 1.415 . S
C4984 C4989 1.425 . S
C4984 C4991 1.409 . S
C4985 H4977 0.930 . S
C4985 C4983 1.419 . S
C4985 C4986 1.362 . S
C4986 H4978 0.930 . S
C4986 C4985 1.362 . S
C4986 C4989 1.409 . S
C4987 H4979 0.930 . S
C4987 C4988 1.355 . S
C4987 C4989 1.415 . S
C4988 C4987 1.355 . S
C4988 C4990 1.419 . S
C4989 C4984 1.425 . S
C4989 C4986 1.409 . S
C4989 C4987 1.415 . S
C4990 H4980 0.930 . S
C4990 C4988 1.419 . S
C4990 C4991 1.362 . S
C4991 H4981 0.930 . S
C4991 C4984 1.409 . S
C4991 C4990 1.362 . S
H4992 C4998 0.930 . S
H4993 C5001 0.930 . S
H4994 C5002 0.930 . S
H4995 C5003 0.930 . S
H4996 C5006 0.930 . S
H4997 C5007 0.930 . S
C4998 H4992 0.930 . S
C4998 C4999 1.355 . S
C4998 C5000 1.415 . S
C4999 C4998 1.355 . S
C4999 C5001 1.419 . S
C5000 C4998 1.415 . S
C5000 C5005 1.425 . S
C5000 C5007 1.409 . S
C5001 H4993 0.930 . S
C5001 C4999 1.419 . S
C5001 C5002 1.362 . S
C5002 H4994 0.930 . S
C5002 C5001 1.362 . S
C5002 C5005 1.409 . S
C5003 H4995 0.930 . S
C5003 C5004 1.355 . S
C5003 C5005 1.415 . S
C5004 C5003 1.355 . S
C5004 C5006 1.419 . S
C5005 C5000 1.425 . S
C5005 C5002 1.409 . S
C5005 C5003 1.415 . S
C5006 H4996 0.930 . S
C5006 C5004 1.419 . S
C5006 C5007 1.362 . S
C5007 H4997 0.930 . S
C5007 C5000 1.409 . S
C5007 C5006 1.362 . S
H5008 C5014 0.930 . S
H5009 C5017 0.930 . S
H5010 C5018 0.930 . S
H5011 C5019 0.930 . S
H5012 C5022 0.930 . S
H5013 C5023 0.930 . S
C5014 H5008 0.930 . S
C5014 C5015 1.355 . S
C5014 C5016 1.415 . S
C5015 C5014 1.355 . S
C5015 C5017 1.419 . S
C5016 C5014 1.415 . S
C5016 C5021 1.425 . S
C5016 C5023 1.409 . S
C5017 H5009 0.930 . S
C5017 C5015 1.419 . S
C5017 C5018 1.362 . S
C5018 H5010 0.930 . S
C5018 C5017 1.362 . S
C5018 C5021 1.409 . S
C5019 H5011 0.930 . S
C5019 C5020 1.355 . S
C5019 C5021 1.415 . S
C5020 C5019 1.355 . S
C5020 C5022 1.419 . S
C5021 C5016 1.425 . S
C5021 C5018 1.409 . S
C5021 C5019 1.415 . S
C5022 H5012 0.930 . S
C5022 C5020 1.419 . S
C5022 C5023 1.362 . S
C5023 H5013 0.930 . S
C5023 C5016 1.409 . S
C5023 C5022 1.362 . S
H5024 C5030 0.930 . S
H5025 C5033 0.930 . S
H5026 C5034 0.930 . S
H5027 C5035 0.930 . S
H5028 C5038 0.930 . S
H5029 C5039 0.930 . S
C5030 H5024 0.930 . S
C5030 C5031 1.355 . S
C5030 C5032 1.415 . S
C5031 C5030 1.355 . S
C5031 C5033 1.419 . S
C5032 C5030 1.415 . S
C5032 C5037 1.425 . S
C5032 C5039 1.409 . S
C5033 H5025 0.930 . S
C5033 C5031 1.419 . S
C5033 C5034 1.362 . S
C5034 H5026 0.930 . S
C5034 C5033 1.362 . S
C5034 C5037 1.409 . S
C5035 H5027 0.930 . S
C5035 C5036 1.355 . S
C5035 C5037 1.415 . S
C5036 C5035 1.355 . S
C5036 C5038 1.419 . S
C5037 C5032 1.425 . S
C5037 C5034 1.409 . S
C5037 C5035 1.415 . S
C5038 H5028 0.930 . S
C5038 C5036 1.419 . S
C5038 C5039 1.362 . S
C5039 H5029 0.930 . S
C5039 C5032 1.409 . S
C5039 C5038 1.362 . S
H5040 C5046 0.930 . S
H5041 C5049 0.930 . S
H5042 C5050 0.930 . S
H5043 C5051 0.930 . S
H5044 C5054 0.930 . S
H5045 C5055 0.930 . S
C5046 H5040 0.930 . S
C5046 C5047 1.355 . S
C5046 C5048 1.415 . S
C5047 C5046 1.355 . S
C5047 C5049 1.419 . S
C5048 C5046 1.415 . S
C5048 C5053 1.425 . S
C5048 C5055 1.409 . S
C5049 H5041 0.930 . S
C5049 C5047 1.419 . S
C5049 C5050 1.362 . S
C5050 H5042 0.930 . S
C5050 C5049 1.362 . S
C5050 C5053 1.409 . S
C5051 H5043 0.930 . S
C5051 C5052 1.355 . S
C5051 C5053 1.415 . S
C5052 C5051 1.355 . S
C5052 C5054 1.419 . S
C5053 C5048 1.425 . S
C5053 C5050 1.409 . S
C5053 C5051 1.415 . S
C5054 H5044 0.930 . S
C5054 C5052 1.419 . S
C5054 C5055 1.362 . S
C5055 H5045 0.930 . S
C5055 C5048 1.409 . S
C5055 C5054 1.362 . S
H5056 C5062 0.930 . S
H5057 C5065 0.930 . S
H5058 C5066 0.930 . S
H5059 C5067 0.930 . S
H5060 C5070 0.930 . S
H5061 C5071 0.930 . S
C5062 H5056 0.930 . S
C5062 C5063 1.355 . S
C5062 C5064 1.415 . S
C5063 C5062 1.355 . S
C5063 C5065 1.419 . S
C5064 C5062 1.415 . S
C5064 C5069 1.425 . S
C5064 C5071 1.409 . S
C5065 H5057 0.930 . S
C5065 C5063 1.419 . S
C5065 C5066 1.362 . S
C5066 H5058 0.930 . S
C5066 C5065 1.362 . S
C5066 C5069 1.409 . S
C5067 H5059 0.930 . S
C5067 C5068 1.355 . S
C5067 C5069 1.415 . S
C5068 C5067 1.355 . S
C5068 C5070 1.419 . S
C5069 C5064 1.425 . S
C5069 C5066 1.409 . S
C5069 C5067 1.415 . S
C5070 H5060 0.930 . S
C5070 C5068 1.419 . S
C5070 C5071 1.362 . S
C5071 H5061 0.930 . S
C5071 C5064 1.409 . S
C5071 C5070 1.362 . S
H5072 C5078 0.930 . S
H5073 C5081 0.930 . S
H5074 C5082 0.930 . S
H5075 C5083 0.930 . S
H5076 C5086 0.930 . S
H5077 C5087 0.930 . S
C5078 H5072 0.930 . S
C5078 C5079 1.355 . S
C5078 C5080 1.415 . S
C5079 C5078 1.355 . S
C5079 C5081 1.419 . S
C5080 C5078 1.415 . S
C5080 C5085 1.425 . S
C5080 C5087 1.409 . S
C5081 H5073 0.930 . S
C5081 C5079 1.419 . S
C5081 C5082 1.362 . S
C5082 H5074 0.930 . S
C5082 C5081 1.362 . S
C5082 C5085 1.409 . S
C5083 H5075 0.930 . S
C5083 C5084 1.355 . S
C5083 C5085 1.415 . S
C5084 C5083 1.355 . S
C5084 C5086 1.419 . S
C5085 C5080 1.425 . S
C5085 C5082 1.409 . S
C5085 C5083 1.415 . S
C5086 H5076 0.930 . S
C5086 C5084 1.419 . S
C5086 C5087 1.362 . S
C5087 H5077 0.930 . S
C5087 C5080 1.409 . S
C5087 C5086 1.362 . S
H5088 C5094 0.930 . S
H5089 C5097 0.930 . S
H5090 C5098 0.930 . S
H5091 C5099 0.930 . S
H5092 C5102 0.930 . S
H5093 C5103 0.930 . S
C5094 H5088 0.930 . S
C5094 C5095 1.355 . S
C5094 C5096 1.415 . S
C5095 C5094 1.355 . S
C5095 C5097 1.419 . S
C5096 C5094 1.415 . S
C5096 C5101 1.425 . S
C5096 C5103 1.409 . S
C5097 H5089 0.930 . S
C5097 C5095 1.419 . S
C5097 C5098 1.362 . S
C5098 H5090 0.930 . S
C5098 C5097 1.362 . S
C5098 C5101 1.409 . S
C5099 H5091 0.930 . S
C5099 C5100 1.355 . S
C5099 C5101 1.415 . S
C5100 C5099 1.355 . S
C5100 C5102 1.419 . S
C5101 C5096 1.425 . S
C5101 C5098 1.409 . S
C5101 C5099 1.415 . S
C5102 H5092 0.930 . S
C5102 C5100 1.419 . S
C5102 C5103 1.362 . S
C5103 H5093 0.930 . S
C5103 C5096 1.409 . S
C5103 C5102 1.362 . S
H5104 C5110 0.930 . S
H5105 C5113 0.930 . S
H5106 C5114 0.930 . S
H5107 C5115 0.930 . S
H5108 C5118 0.930 . S
H5109 C5119 0.930 . S
C5110 H5104 0.930 . S
C5110 C5111 1.355 . S
C5110 C5112 1.415 . S
C5111 C5110 1.355 . S
C5111 C5113 1.419 . S
C5112 C5110 1.415 . S
C5112 C5117 1.425 . S
C5112 C5119 1.409 . S
C5113 H5105 0.930 . S
C5113 C5111 1.419 . S
C5113 C5114 1.362 . S
C5114 H5106 0.930 . S
C5114 C5113 1.362 . S
C5114 C5117 1.409 . S
C5115 H5107 0.930 . S
C5115 C5116 1.355 . S
C5115 C5117 1.415 . S
C5116 C5115 1.355 . S
C5116 C5118 1.419 . S
C5117 C5112 1.425 . S
C5117 C5114 1.409 . S
C5117 C5115 1.415 . S
C5118 H5108 0.930 . S
C5118 C5116 1.419 . S
C5118 C5119 1.362 . S
C5119 H5109 0.930 . S
C5119 C5112 1.409 . S
C5119 C5118 1.362 . S
H5120 C5126 0.930 . S
H5121 C5129 0.930 . S
H5122 C5130 0.930 . S
H5123 C5131 0.930 . S
H5124 C5134 0.930 . S
H5125 C5135 0.930 . S
C5126 H5120 0.930 . S
C5126 C5127 1.355 . S
C5126 C5128 1.415 . S
C5127 C5126 1.355 . S
C5127 C5129 1.419 . S
C5128 C5126 1.415 . S
C5128 C5133 1.425 . S
C5128 C5135 1.409 . S
C5129 H5121 0.930 . S
C5129 C5127 1.419 . S
C5129 C5130 1.362 . S
C5130 H5122 0.930 . S
C5130 C5129 1.362 . S
C5130 C5133 1.409 . S
C5131 H5123 0.930 . S
C5131 C5132 1.355 . S
C5131 C5133 1.415 . S
C5132 C5131 1.355 . S
C5132 C5134 1.419 . S
C5133 C5128 1.425 . S
C5133 C5130 1.409 . S
C5133 C5131 1.415 . S
C5134 H5124 0.930 . S
C5134 C5132 1.419 . S
C5134 C5135 1.362 . S
C5135 H5125 0.930 . S
C5135 C5128 1.409 . S
C5135 C5134 1.362 . S
H5136 C5142 0.930 . S
H5137 C5145 0.930 . S
H5138 C5146 0.930 . S
H5139 C5147 0.930 . S
H5140 C5150 0.930 . S
H5141 C5151 0.930 . S
C5142 H5136 0.930 . S
C5142 C5143 1.355 . S
C5142 C5144 1.415 . S
C5143 C5142 1.355 . S
C5143 C5145 1.419 . S
C5144 C5142 1.415 . S
C5144 C5149 1.425 . S
C5144 C5151 1.409 . S
C5145 H5137 0.930 . S
C5145 C5143 1.419 . S
C5145 C5146 1.362 . S
C5146 H5138 0.930 . S
C5146 C5145 1.362 . S
C5146 C5149 1.409 . S
C5147 H5139 0.930 . S
C5147 C5148 1.355 . S
C5147 C5149 1.415 . S
C5148 C5147 1.355 . S
C5148 C5150 1.419 . S
C5149 C5144 1.425 . S
C5149 C5146 1.409 . S
C5149 C5147 1.415 . S
C5150 H5140 0.930 . S
C5150 C5148 1.419 . S
C5150 C5151 1.362 . S
C5151 H5141 0.930 . S
C5151 C5144 1.409 . S
C5151 C5150 1.362 . S
H5152 C5158 0.930 . S
H5153 C5161 0.930 . S
H5154 C5162 0.930 . S
H5155 C5163 0.930 . S
H5156 C5166 0.930 . S
H5157 C5167 0.930 . S
C5158 H5152 0.930 . S
C5158 C5159 1.355 . S
C5158 C5160 1.415 . S
C5159 C5158 1.355 . S
C5159 C5161 1.419 . S
C5160 C5158 1.415 . S
C5160 C5165 1.425 . S
C5160 C5167 1.409 . S
C5161 H5153 0.930 . S
C5161 C5159 1.419 . S
C5161 C5162 1.362 . S
C5162 H5154 0.930 . S
C5162 C5161 1.362 . S
C5162 C5165 1.409 . S
C5163 H5155 0.930 . S
C5163 C5164 1.355 . S
C5163 C5165 1.415 . S
C5164 C5163 1.355 . S
C5164 C5166 1.419 . S
C5165 C5160 1.425 . S
C5165 C5162 1.409 . S
C5165 C5163 1.415 . S
C5166 H5156 0.930 . S
C5166 C5164 1.419 . S
C5166 C5167 1.362 . S
C5167 H5157 0.930 . S
C5167 C5160 1.409 . S
C5167 C5166 1.362 . S
H5168 C5174 0.930 . S
H5169 C5177 0.930 . S
H5170 C5178 0.930 . S
H5171 C5179 0.930 . S
H5172 C5182 0.930 . S
H5173 C5183 0.930 . S
C5174 H5168 0.930 . S
C5174 C5175 1.355 . S
C5174 C5176 1.415 . S
C5175 C5174 1.355 . S
C5175 C5177 1.419 . S
C5176 C5174 1.415 . S
C5176 C5181 1.425 . S
C5176 C5183 1.409 . S
C5177 H5169 0.930 . S
C5177 C5175 1.419 . S
C5177 C5178 1.362 . S
C5178 H5170 0.930 . S
C5178 C5177 1.362 . S
C5178 C5181 1.409 . S
C5179 H5171 0.930 . S
C5179 C5180 1.355 . S
C5179 C5181 1.415 . S
C5180 C5179 1.355 . S
C5180 C5182 1.419 . S
C5181 C5176 1.425 . S
C5181 C5178 1.409 . S
C5181 C5179 1.415 . S
C5182 H5172 0.930 . S
C5182 C5180 1.419 . S
C5182 C5183 1.362 . S
C5183 H5173 0.930 . S
C5183 C5176 1.409 . S
C5183 C5182 1.362 . S
H5184 C5190 0.930 . S
H5185 C5193 0.930 . S
H5186 C5194 0.930 . S
H5187 C5195 0.930 . S
H5188 C5198 0.930 . S
H5189 C5199 0.930 . S
C5190 H5184 0.930 . S
C5190 C5191 1.355 . S
C5190 C5192 1.415 . S
C5191 C5190 1.355 . S
C5191 C5193 1.419 . S
C5192 C5190 1.415 . S
C5192 C5197 1.425 . S
C5192 C5199 1.409 . S
C5193 H5185 0.930 . S
C5193 C5191 1.419 . S
C5193 C5194 1.362 . S
C5194 H5186 0.930 . S
C5194 C5193 1.362 . S
C5194 C5197 1.409 . S
C5195 H5187 0.930 . S
C5195 C5196 1.355 . S
C5195 C5197 1.415 . S
C5196 C5195 1.355 . S
C5196 C5198 1.419 . S
C5197 C5192 1.425 . S
C5197 C5194 1.409 . S
C5197 C5195 1.415 . S
C5198 H5188 0.930 . S
C5198 C5196 1.419 . S
C5198 C5199 1.362 . S
C5199 H5189 0.930 . S
C5199 C5192 1.409 . S
C5199 C5198 1.362 . S
H5200 C5206 0.930 . S
H5201 C5209 0.930 . S
H5202 C5210 0.930 . S
H5203 C5211 0.930 . S
H5204 C5214 0.930 . S
H5205 C5215 0.930 . S
C5206 H5200 0.930 . S
C5206 C5207 1.355 . S
C5206 C5208 1.415 . S
C5207 C5206 1.355 . S
C5207 C5209 1.419 . S
C5208 C5206 1.415 . S
C5208 C5213 1.425 . S
C5208 C5215 1.409 . S
C5209 H5201 0.930 . S
C5209 C5207 1.419 . S
C5209 C5210 1.362 . S
C5210 H5202 0.930 . S
C5210 C5209 1.362 . S
C5210 C5213 1.409 . S
C5211 H5203 0.930 . S
C5211 C5212 1.355 . S
C5211 C5213 1.415 . S
C5212 C5211 1.355 . S
C5212 C5214 1.419 . S
C5213 C5208 1.425 . S
C5213 C5210 1.409 . S
C5213 C5211 1.415 . S
C5214 H5204 0.930 . S
C5214 C5212 1.419 . S
C5214 C5215 1.362 . S
C5215 H5205 0.930 . S
C5215 C5208 1.409 . S
C5215 C5214 1.362 . S
H5216 C5222 0.930 . S
H5217 C5225 0.930 . S
H5218 C5226 0.930 . S
H5219 C5227 0.930 . S
H5220 C5230 0.930 . S
H5221 C5231 0.930 . S
C5222 H5216 0.930 . S
C5222 C5223 1.355 . S
C5222 C5224 1.415 . S
C5223 C5222 1.355 . S
C5223 C5225 1.419 . S
C5224 C5222 1.415 . S
C5224 C5229 1.425 . S
C5224 C5231 1.409 . S
C5225 H5217 0.930 . S
C5225 C5223 1.419 . S
C5225 C5226 1.362 . S
C5226 H5218 0.930 . S
C5226 C5225 1.362 . S
C5226 C5229 1.409 . S
C5227 H5219 0.930 . S
C5227 C5228 1.355 . S
C5227 C5229 1.415 . S
C5228 C5227 1.355 . S
C5228 C5230 1.419 . S
C5229 C5224 1.425 . S
C5229 C5226 1.409 . S
C5229 C5227 1.415 . S
C5230 H5220 0.930 . S
C5230 C5228 1.419 . S
C5230 C5231 1.362 . S
C5231 H5221 0.930 . S
C5231 C5224 1.409 . S
C5231 C5230 1.362 . S
H5232 C5238 0.930 . S
H5233 C5241 0.930 . S
H5234 C5242 0.930 . S
H5235 C5243 0.930 . S
H5236 C5246 0.930 . S
H5237 C5247 0.930 . S
C5238 H5232 0.930 . S
C5238 C5239 1.355 . S
C5238 C5240 1.415 . S
C5239 C5238 1.355 . S
C5239 C5241 1.419 . S
C5240 C5238 1.415 . S
C5240 C5245 1.425 . S
C5240 C5247 1.409 . S
C5241 H5233 0.930 . S
C5241 C5239 1.419 . S
C5241 C5242 1.362 . S
C5242 H5234 0.930 . S
C5242 C5241 1.362 . S
C5242 C5245 1.409 . S
C5243 H5235 0.930 . S
C5243 C5244 1.355 . S
C5243 C5245 1.415 . S
C5244 C5243 1.355 . S
C5244 C5246 1.419 . S
C5245 C5240 1.425 . S
C5245 C5242 1.409 . S
C5245 C5243 1.415 . S
C5246 H5236 0.930 . S
C5246 C5244 1.419 . S
C5246 C5247 1.362 . S
C5247 H5237 0.930 . S
C5247 C5240 1.409 . S
C5247 C5246 1.362 . S
H5248 C5254 0.930 . S
H5249 C5257 0.930 . S
H5250 C5258 0.930 . S
H5251 C5259 0.930 . S
H5252 C5262 0.930 . S
H5253 C5263 0.930 . S
C5254 H5248 0.930 . S
C5254 C5255 1.355 . S
C5254 C5256 1.415 . S
C5255 C5254 1.355 . S
C5255 C5257 1.419 . S
C5256 C5254 1.415 . S
C5256 C5261 1.425 . S
C5256 C5263 1.409 . S
C5257 H5249 0.930 . S
C5257 C5255 1.419 . S
C5257 C5258 1.362 . S
C5258 H5250 0.930 . S
C5258 C5257 1.362 . S
C5258 C5261 1.409 . S
C5259 H5251 0.930 . S
C5259 C5260 1.355 . S
C5259 C5261 1.415 . S
C5260 C5259 1.355 . S
C5260 C5262 1.419 . S
C5261 C5256 1.425 . S
C5261 C5258 1.409 . S
C5261 C5259 1.415 . S
C5262 H5252 0.930 . S
C5262 C5260 1.419 . S
C5262 C5263 1.362 . S
C5263 H5253 0.930 . S
C5263 C5256 1.409 . S
C5263 C5262 1.362 . S
H5264 C5270 0.930 . S
H5265 C5273 0.930 . S
H5266 C5274 0.930 . S
H5267 C5275 0.930 . S
H5268 C5278 0.930 . S
H5269 C5279 0.930 . S
C5270 H5264 0.930 . S
C5270 C5271 1.355 . S
C5270 C5272 1.415 . S
C5271 C5270 1.355 . S
C5271 C5273 1.419 . S
C5272 C5270 1.415 . S
C5272 C5277 1.425 . S
C5272 C5279 1.409 . S
C5273 H5265 0.930 . S
C5273 C5271 1.419 . S
C5273 C5274 1.362 . S
C5274 H5266 0.930 . S
C5274 C5273 1.362 . S
C5274 C5277 1.409 . S
C5275 H5267 0.930 . S
C5275 C5276 1.355 . S
C5275 C5277 1.415 . S
C5276 C5275 1.355 . S
C5276 C5278 1.419 . S
C5277 C5272 1.425 . S
C5277 C5274 1.409 . S
C5277 C5275 1.415 . S
C5278 H5268 0.930 . S
C5278 C5276 1.419 . S
C5278 C5279 1.362 . S
C5279 H5269 0.930 . S
C5279 C5272 1.409 . S
C5279 C5278 1.362 . S
H5280 C5286 0.930 . S
H5281 C5289 0.930 . S
H5282 C5290 0.930 . S
H5283 C5291 0.930 . S
H5284 C5294 0.930 . S
H5285 C5295 0.930 . S
C5286 H5280 0.930 . S
C5286 C5287 1.355 . S
C5286 C5288 1.415 . S
C5287 C5286 1.355 . S
C5287 C5289 1.419 . S
C5288 C5286 1.415 . S
C5288 C5293 1.425 . S
C5288 C5295 1.409 . S
C5289 H5281 0.930 . S
C5289 C5287 1.419 . S
C5289 C5290 1.362 . S
C5290 H5282 0.930 . S
C5290 C5289 1.362 . S
C5290 C5293 1.409 . S
C5291 H5283 0.930 . S
C5291 C5292 1.355 . S
C5291 C5293 1.415 . S
C5292 C5291 1.355 . S
C5292 C5294 1.419 . S
C5293 C5288 1.425 . S
C5293 C5290 1.409 . S
C5293 C5291 1.415 . S
C5294 H5284 0.930 . S
C5294 C5292 1.419 . S
C5294 C5295 1.362 . S
C5295 H5285 0.930 . S
C5295 C5288 1.409 . S
C5295 C5294 1.362 . S
H5296 C5302 0.930 . S
H5297 C5305 0.930 . S
H5298 C5306 0.930 . S
H5299 C5307 0.930 . S
H5300 C5310 0.930 . S
H5301 C5311 0.930 . S
C5302 H5296 0.930 . S
C5302 C5303 1.355 . S
C5302 C5304 1.415 . S
C5303 C5302 1.355 . S
C5303 C5305 1.419 . S
C5304 C5302 1.415 . S
C5304 C5309 1.425 . S
C5304 C5311 1.409 . S
C5305 H5297 0.930 . S
C5305 C5303 1.419 . S
C5305 C5306 1.362 . S
C5306 H5298 0.930 . S
C5306 C5305 1.362 . S
C5306 C5309 1.409 . S
C5307 H5299 0.930 . S
C5307 C5308 1.355 . S
C5307 C5309 1.415 . S
C5308 C5307 1.355 . S
C5308 C5310 1.419 . S
C5309 C5304 1.425 . S
C5309 C5306 1.409 . S
C5309 C5307 1.415 . S
C5310 H5300 0.930 . S
C5310 C5308 1.419 . S
C5310 C5311 1.362 . S
C5311 H5301 0.930 . S
C5311 C5304 1.409 . S
C5311 C5310 1.362 . S
H5312 C5318 0.930 . S
H5313 C5321 0.930 . S
H5314 C5322 0.930 . S
H5315 C5323 0.930 . S
H5316 C5326 0.930 . S
H5317 C5327 0.930 . S
C5318 H5312 0.930 . S
C5318 C5319 1.355 . S
C5318 C5320 1.415 . S
C5319 C5318 1.355 . S
C5319 C5321 1.419 . S
C5320 C5318 1.415 . S
C5320 C5325 1.425 . S
C5320 C5327 1.409 . S
C5321 H5313 0.930 . S
C5321 C5319 1.419 . S
C5321 C5322 1.362 . S
C5322 H5314 0.930 . S
C5322 C5321 1.362 . S
C5322 C5325 1.409 . S
C5323 H5315 0.930 . S
C5323 C5324 1.355 . S
C5323 C5325 1.415 . S
C5324 C5323 1.355 . S
C5324 C5326 1.419 . S
C5325 C5320 1.425 . S
C5325 C5322 1.409 . S
C5325 C5323 1.415 . S
C5326 H5316 0.930 . S
C5326 C5324 1.419 . S
C5326 C5327 1.362 . S
C5327 H5317 0.930 . S
C5327 C5320 1.409 . S
C5327 C5326 1.362 . S
H5328 C5334 0.930 . S
H5329 C5337 0.930 . S
H5330 C5338 0.930 . S
H5331 C5339 0.930 . S
H5332 C5342 0.930 . S
H5333 C5343 0.930 . S
C5334 H5328 0.930 . S
C5334 C5335 1.355 . S
C5334 C5336 1.415 . S
C5335 C5334 1.355 . S
C5335 C5337 1.419 . S
C5336 C5334 1.415 . S
C5336 C5341 1.425 . S
C5336 C5343 1.409 . S
C5337 H5329 0.930 . S
C5337 C5335 1.419 . S
C5337 C5338 1.362 . S
C5338 H5330 0.930 . S
C5338 C5337 1.362 . S
C5338 C5341 1.409 . S
C5339 H5331 0.930 . S
C5339 C5340 1.355 . S
C5339 C5341 1.415 . S
C5340 C5339 1.355 . S
C5340 C5342 1.419 . S
C5341 C5336 1.425 . S
C5341 C5338 1.409 . S
C5341 C5339 1.415 . S
C5342 H5332 0.930 . S
C5342 C5340 1.419 . S
C5342 C5343 1.362 . S
C5343 H5333 0.930 . S
C5343 C5336 1.409 . S
C5343 C5342 1.362 . S
H5344 C5350 0.930 . S
H5345 C5353 0.930 . S
H5346 C5354 0.930 . S
H5347 C5355 0.930 . S
H5348 C5358 0.930 . S
H5349 C5359 0.930 . S
C5350 H5344 0.930 . S
C5350 C5351 1.355 . S
C5350 C5352 1.415 . S
C5351 C5350 1.355 . S
C5351 C5353 1.419 . S
C5352 C5350 1.415 . S
C5352 C5357 1.425 . S
C5352 C5359 1.409 . S
C5353 H5345 0.930 . S
C5353 C5351 1.419 . S
C5353 C5354 1.362 . S
C5354 H5346 0.930 . S
C5354 C5353 1.362 . S
C5354 C5357 1.409 . S
C5355 H5347 0.930 . S
C5355 C5356 1.355 . S
C5355 C5357 1.415 . S
C5356 C5355 1.355 . S
C5356 C5358 1.419 . S
C5357 C5352 1.425 . S
C5357 C5354 1.409 . S
C5357 C5355 1.415 . S
C5358 H5348 0.930 . S
C5358 C5356 1.419 . S
C5358 C5359 1.362 . S
C5359 H5349 0.930 . S
C5359 C5352 1.409 . S
C5359 C5358 1.362 . S
H5360 C5366 0.930 . S
H5361 C5369 0.930 . S
H5362 C5370 0.930 . S
H5363 C5371 0.930 . S
H5364 C5374 0.930 . S
H5365 C5375 0.930 . S
C5366 H5360 0.930 . S
C5366 C5367 1.355 . S
C5366 C5368 1.415 . S
C5367 C5366 1.355 . S
C5367 C5369 1.419 . S
C5368 C5366 1.415 . S
C5368 C5373 1.425 . S
C5368 C5375 1.409 . S
C5369 H5361 0.930 . S
C5369 C5367 1.419 . S
C5369 C5370 1.362 . S
C5370 H5362 0.930 . S
C5370 C5369 1.362 . S
C5370 C5373 1.409 . S
C5371 H5363 0.930 . S
C5371 C5372 1.355 . S
C5371 C5373 1.415 . S
C5372 C5371 1.355 . S
C5372 C5374 1.419 . S
C5373 C5368 1.425 . S
C5373 C5370 1.409 . S
C5373 C5371 1.415 . S
C5374 H5364 0.930 . S
C5374 C5372 1.419 . S
C5374 C5375 1.362 . S
C5375 H5365 0.930 . S
C5375 C5368 1.409 . S
C5375 C5374 1.362 . S
H5376 C5382 0.930 . S
H5377 C5385 0.930 . S
H5378 C5386 0.930 . S
H5379 C5387 0.930 . S
H5380 C5390 0.930 . S
H5381 C5391 0.930 . S
C5382 H5376 0.930 . S
C5382 C5383 1.355 . S
C5382 C5384 1.415 . S
C5383 C5382 1.355 . S
C5383 C5385 1.419 . S
C5384 C5382 1.415 . S
C5384 C5389 1.425 . S
C5384 C5391 1.409 . S
C5385 H5377 0.930 . S
C5385 C5383 1.419 . S
C5385 C5386 1.362 . S
C5386 H5378 0.930 . S
C5386 C5385 1.362 . S
C5386 C5389 1.409 . S
C5387 H5379 0.930 . S
C5387 C5388 1.355 . S
C5387 C5389 1.415 . S
C5388 C5387 1.355 . S
C5388 C5390 1.419 . S
C5389 C5384 1.425 . S
C5389 C5386 1.409 . S
C5389 C5387 1.415 . S
C5390 H5380 0.930 . S
C5390 C5388 1.419 . S
C5390 C5391 1.362 . S
C5391 H5381 0.930 . S
C5391 C5384 1.409 . S
C5391 C5390 1.362 . S
H5392 C5398 0.930 . S
H5393 C5401 0.930 . S
H5394 C5402 0.930 . S
H5395 C5403 0.930 . S
H5396 C5406 0.930 . S
H5397 C5407 0.930 . S
C5398 H5392 0.930 . S
C5398 C5399 1.355 . S
C5398 C5400 1.415 . S
C5399 C5398 1.355 . S
C5399 C5401 1.419 . S
C5400 C5398 1.415 . S
C5400 C5405 1.425 . S
C5400 C5407 1.409 . S
C5401 H5393 0.930 . S
C5401 C5399 1.419 . S
C5401 C5402 1.362 . S
C5402 H5394 0.930 . S
C5402 C5401 1.362 . S
C5402 C5405 1.409 . S
C5403 H5395 0.930 . S
C5403 C5404 1.355 . S
C5403 C5405 1.415 . S
C5404 C5403 1.355 . S
C5404 C5406 1.419 . S
C5405 C5400 1.425 . S
C5405 C5402 1.409 . S
C5405 C5403 1.415 . S
C5406 H5396 0.930 . S
C5406 C5404 1.419 . S
C5406 C5407 1.362 . S
C5407 H5397 0.930 . S
C5407 C5400 1.409 . S
C5407 C5406 1.362 . S
H5408 C5414 0.930 . S
H5409 C5417 0.930 . S
H5410 C5418 0.930 . S
H5411 C5419 0.930 . S
H5412 C5422 0.930 . S
H5413 C5423 0.930 . S
C5414 H5408 0.930 . S
C5414 C5415 1.355 . S
C5414 C5416 1.415 . S
C5415 C5414 1.355 . S
C5415 C5417 1.419 . S
C5416 C5414 1.415 . S
C5416 C5421 1.425 . S
C5416 C5423 1.409 . S
C5417 H5409 0.930 . S
C5417 C5415 1.419 . S
C5417 C5418 1.362 . S
C5418 H5410 0.930 . S
C5418 C5417 1.362 . S
C5418 C5421 1.409 . S
C5419 H5411 0.930 . S
C5419 C5420 1.355 . S
C5419 C5421 1.415 . S
C5420 C5419 1.355 . S
C5420 C5422 1.419 . S
C5421 C5416 1.425 . S
C5421 C5418 1.409 . S
C5421 C5419 1.415 . S
C5422 H5412 0.930 . S
C5422 C5420 1.419 . S
C5422 C5423 1.362 . S
C5423 H5413 0.930 . S
C5423 C5416 1.409 . S
C5423 C5422 1.362 . S
H5424 C5430 0.930 . S
H5425 C5433 0.930 . S
H5426 C5434 0.930 . S
H5427 C5435 0.930 . S
H5428 C5438 0.930 . S
H5429 C5439 0.930 . S
C5430 H5424 0.930 . S
C5430 C5431 1.355 . S
C5430 C5432 1.415 . S
C5431 C5430 1.355 . S
C5431 C5433 1.419 . S
C5432 C5430 1.415 . S
C5432 C5437 1.425 . S
C5432 C5439 1.409 . S
C5433 H5425 0.930 . S
C5433 C5431 1.419 . S
C5433 C5434 1.362 . S
C5434 H5426 0.930 . S
C5434 C5433 1.362 . S
C5434 C5437 1.409 . S
C5435 H5427 0.930 . S
C5435 C5436 1.355 . S
C5435 C5437 1.415 . S
C5436 C5435 1.355 . S
C5436 C5438 1.419 . S
C5437 C5432 1.425 . S
C5437 C5434 1.409 . S
C5437 C5435 1.415 . S
C5438 H5428 0.930 . S
C5438 C5436 1.419 . S
C5438 C5439 1.362 . S
C5439 H5429 0.930 . S
C5439 C5432 1.409 . S
C5439 C5438 1.362 . S
H5440 C5446 0.930 . S
H5441 C5449 0.930 . S
H5442 C5450 0.930 . S
H5443 C5451 0.930 . S
H5444 C5454 0.930 . S
H5445 C5455 0.930 . S
C5446 H5440 0.930 . S
C5446 C5447 1.355 . S
C5446 C5448 1.415 . S
C5447 C5446 1.355 . S
C5447 C5449 1.419 . S
C5448 C5446 1.415 . S
C5448 C5453 1.425 . S
C5448 C5455 1.409 . S
C5449 H5441 0.930 . S
C5449 C5447 1.419 . S
C5449 C5450 1.362 . S
C5450 H5442 0.930 . S
C5450 C5449 1.362 . S
C5450 C5453 1.409 . S
C5451 H5443 0.930 . S
C5451 C5452 1.355 . S
C5451 C5453 1.415 . S
C5452 C5451 1.355 . S
C5452 C5454 1.419 . S
C5453 C5448 1.425 . S
C5453 C5450 1.409 . S
C5453 C5451 1.415 . S
C5454 H5444 0.930 . S
C5454 C5452 1.419 . S
C5454 C5455 1.362 . S
C5455 H5445 0.930 . S
C5455 C5448 1.409 . S
C5455 C5454 1.362 . S
H5456 C5462 0.930 . S
H5457 C5465 0.930 . S
H5458 C5466 0.930 . S
H5459 C5467 0.930 . S
H5460 C5470 0.930 . S
H5461 C5471 0.930 . S
C5462 H5456 0.930 . S
C5462 C5463 1.355 . S
C5462 C5464 1.415 . S
C5463 C5462 1.355 . S
C5463 C5465 1.419 . S
C5464 C5462 1.415 . S
C5464 C5469 1.425 . S
C5464 C5471 1.409 . S
C5465 H5457 0.930 . S
C5465 C5463 1.419 . S
C5465 C5466 1.362 . S
C5466 H5458 0.930 . S
C5466 C5465 1.362 . S
C5466 C5469 1.409 . S
C5467 H5459 0.930 . S
C5467 C5468 1.355 . S
C5467 C5469 1.415 . S
C5468 C5467 1.355 . S
C5468 C5470 1.419 . S
C5469 C5464 1.425 . S
C5469 C5466 1.409 . S
C5469 C5467 1.415 . S
C5470 H5460 0.930 . S
C5470 C5468 1.419 . S
C5470 C5471 1.362 . S
C5471 H5461 0.930 . S
C5471 C5464 1.409 . S
C5471 C5470 1.362 . S
H5472 C5478 0.930 . S
H5473 C5481 0.930 . S
H5474 C5482 0.930 . S
H5475 C5483 0.930 . S
H5476 C5486 0.930 . S
H5477 C5487 0.930 . S
C5478 H5472 0.930 . S
C5478 C5479 1.355 . S
C5478 C5480 1.415 . S
C5479 C5478 1.355 . S
C5479 C5481 1.419 . S
C5480 C5478 1.415 . S
C5480 C5485 1.425 . S
C5480 C5487 1.409 . S
C5481 H5473 0.930 . S
C5481 C5479 1.419 . S
C5481 C5482 1.362 . S
C5482 H5474 0.930 . S
C5482 C5481 1.362 . S
C5482 C5485 1.409 . S
C5483 H5475 0.930 . S
C5483 C5484 1.355 . S
C5483 C5485 1.415 . S
C5484 C5483 1.355 . S
C5484 C5486 1.419 . S
C5485 C5480 1.425 . S
C5485 C5482 1.409 . S
C5485 C5483 1.415 . S
C5486 H5476 0.930 . S
C5486 C5484 1.419 . S
C5486 C5487 1.362 . S
C5487 H5477 0.930 . S
C5487 C5480 1.409 . S
C5487 C5486 1.362 . S
H5488 C5494 0.930 . S
H5489 C5497 0.930 . S
H5490 C5498 0.930 . S
H5491 C5499 0.930 . S
H5492 C5502 0.930 . S
H5493 C5503 0.930 . S
C5494 H5488 0.930 . S
C5494 C5495 1.355 . S
C5494 C5496 1.415 . S
C5495 C5494 1.355 . S
C5495 C5497 1.419 . S
C5496 C5494 1.415 . S
C5496 C5501 1.425 . S
C5496 C5503 1.409 . S
C5497 H5489 0.930 . S
C5497 C5495 1.419 . S
C5497 C5498 1.362 . S
C5498 H5490 0.930 . S
C5498 C5497 1.362 . S
C5498 C5501 1.409 . S
C5499 H5491 0.930 . S
C5499 C5500 1.355 . S
C5499 C5501 1.415 . S
C5500 C5499 1.355 . S
C5500 C5502 1.419 . S
C5501 C5496 1.425 . S
C5501 C5498 1.409 . S
C5501 C5499 1.415 . S
C5502 H5492 0.930 . S
C5502 C5500 1.419 . S
C5502 C5503 1.362 . S
C5503 H5493 0.930 . S
C5503 C5496 1.409 . S
C5503 C5502 1.362 . S
H5504 C5510 0.930 . S
H5505 C5513 0.930 . S
H5506 C5514 0.930 . S
H5507 C5515 0.930 . S
H5508 C5518 0.930 . S
H5509 C5519 0.930 . S
C5510 H5504 0.930 . S
C5510 C5511 1.355 . S
C5510 C5512 1.415 . S
C5511 C5510 1.355 . S
C5511 C5513 1.419 . S
C5512 C5510 1.415 . S
C5512 C5517 1.425 . S
C5512 C5519 1.409 . S
C5513 H5505 0.930 . S
C5513 C5511 1.419 . S
C5513 C5514 1.362 . S
C5514 H5506 0.930 . S
C5514 C5513 1.362 . S
C5514 C5517 1.409 . S
C5515 H5507 0.930 . S
C5515 C5516 1.355 . S
C5515 C5517 1.415 . S
C5516 C5515 1.355 . S
C5516 C5518 1.419 . S
C5517 C5512 1.425 . S
C5517 C5514 1.409 . S
C5517 C5515 1.415 . S
C5518 H5508 0.930 . S
C5518 C5516 1.419 . S
C5518 C5519 1.362 . S
C5519 H5509 0.930 . S
C5519 C5512 1.409 . S
C5519 C5518 1.362 . S
H5520 C5526 0.930 . S
H5521 C5529 0.930 . S
H5522 C5530 0.930 . S
H5523 C5531 0.930 . S
H5524 C5534 0.930 . S
H5525 C5535 0.930 . S
C5526 H5520 0.930 . S
C5526 C5527 1.355 . S
C5526 C5528 1.415 . S
C5527 C5526 1.355 . S
C5527 C5529 1.419 . S
C5528 C5526 1.415 . S
C5528 C5533 1.425 . S
C5528 C5535 1.409 . S
C5529 H5521 0.930 . S
C5529 C5527 1.419 . S
C5529 C5530 1.362 . S
C5530 H5522 0.930 . S
C5530 C5529 1.362 . S
C5530 C5533 1.409 . S
C5531 H5523 0.930 . S
C5531 C5532 1.355 . S
C5531 C5533 1.415 . S
C5532 C5531 1.355 . S
C5532 C5534 1.419 . S
C5533 C5528 1.425 . S
C5533 C5530 1.409 . S
C5533 C5531 1.415 . S
C5534 H5524 0.930 . S
C5534 C5532 1.419 . S
C5534 C5535 1.362 . S
C5535 H5525 0.930 . S
C5535 C5528 1.409 . S
C5535 C5534 1.362 . S
H5536 C5542 0.930 . S
H5537 C5545 0.930 . S
H5538 C5546 0.930 . S
H5539 C5547 0.930 . S
H5540 C5550 0.930 . S
H5541 C5551 0.930 . S
C5542 H5536 0.930 . S
C5542 C5543 1.355 . S
C5542 C5544 1.415 . S
C5543 C5542 1.355 . S
C5543 C5545 1.419 . S
C5544 C5542 1.415 . S
C5544 C5549 1.425 . S
C5544 C5551 1.409 . S
C5545 H5537 0.930 . S
C5545 C5543 1.419 . S
C5545 C5546 1.362 . S
C5546 H5538 0.930 . S
C5546 C5545 1.362 . S
C5546 C5549 1.409 . S
C5547 H5539 0.930 . S
C5547 C5548 1.355 . S
C5547 C5549 1.415 . S
C5548 C5547 1.355 . S
C5548 C5550 1.419 . S
C5549 C5544 1.425 . S
C5549 C5546 1.409 . S
C5549 C5547 1.415 . S
C5550 H5540 0.930 . S
C5550 C5548 1.419 . S
C5550 C5551 1.362 . S
C5551 H5541 0.930 . S
C5551 C5544 1.409 . S
C5551 C5550 1.362 . S
H5552 C5558 0.930 . S
H5553 C5561 0.930 . S
H5554 C5562 0.930 . S
H5555 C5563 0.930 . S
H5556 C5566 0.930 . S
H5557 C5567 0.930 . S
C5558 H5552 0.930 . S
C5558 C5559 1.355 . S
C5558 C5560 1.415 . S
C5559 C5558 1.355 . S
C5559 C5561 1.419 . S
C5560 C5558 1.415 . S
C5560 C5565 1.425 . S
C5560 C5567 1.409 . S
C5561 H5553 0.930 . S
C5561 C5559 1.419 . S
C5561 C5562 1.362 . S
C5562 H5554 0.930 . S
C5562 C5561 1.362 . S
C5562 C5565 1.409 . S
C5563 H5555 0.930 . S
C5563 C5564 1.355 . S
C5563 C5565 1.415 . S
C5564 C5563 1.355 . S
C5564 C5566 1.419 . S
C5565 C5560 1.425 . S
C5565 C5562 1.409 . S
C5565 C5563 1.415 . S
C5566 H5556 0.930 . S
C5566 C5564 1.419 . S
C5566 C5567 1.362 . S
C5567 H5557 0.930 . S
C5567 C5560 1.409 . S
C5567 C5566 1.362 . S
H5568 C5574 0.930 . S
H5569 C5577 0.930 . S
H5570 C5578 0.930 . S
H5571 C5579 0.930 . S
H5572 C5582 0.930 . S
H5573 C5583 0.930 . S
C5574 H5568 0.930 . S
C5574 C5575 1.355 . S
C5574 C5576 1.415 . S
C5575 C5574 1.355 . S
C5575 C5577 1.419 . S
C5576 C5574 1.415 . S
C5576 C5581 1.425 . S
C5576 C5583 1.409 . S
C5577 H5569 0.930 . S
C5577 C5575 1.419 . S
C5577 C5578 1.362 . S
C5578 H5570 0.930 . S
C5578 C5577 1.362 . S
C5578 C5581 1.409 . S
C5579 H5571 0.930 . S
C5579 C5580 1.355 . S
C5579 C5581 1.415 . S
C5580 C5579 1.355 . S
C5580 C5582 1.419 . S
C5581 C5576 1.425 . S
C5581 C5578 1.409 . S
C5581 C5579 1.415 . S
C5582 H5572 0.930 . S
C5582 C5580 1.419 . S
C5582 C5583 1.362 . S
C5583 H5573 0.930 . S
C5583 C5576 1.409 . S
C5583 C5582 1.362 . S
H5584 C5590 0.930 . S
H5585 C5593 0.930 . S
H5586 C5594 0.930 . S
H5587 C5595 0.930 . S
H5588 C5598 0.930 . S
H5589 C5599 0.930 . S
C5590 H5584 0.930 . S
C5590 C5591 1.355 . S
C5590 C5592 1.415 . S
C5591 C5590 1.355 . S
C5591 C5593 1.419 . S
C5592 C5590 1.415 . S
C5592 C5597 1.425 . S
C5592 C5599 1.409 . S
C5593 H5585 0.930 . S
C5593 C5591 1.419 . S
C5593 C5594 1.362 . S
C5594 H5586 0.930 . S
C5594 C5593 1.362 . S
C5594 C5597 1.409 . S
C5595 H5587 0.930 . S
C5595 C5596 1.355 . S
C5595 C5597 1.415 . S
C5596 C5595 1.355 . S
C5596 C5598 1.419 . S
C5597 C5592 1.425 . S
C5597 C5594 1.409 . S
C5597 C5595 1.415 . S
C5598 H5588 0.930 . S
C5598 C5596 1.419 . S
C5598 C5599 1.362 . S
C5599 H5589 0.930 . S
C5599 C5592 1.409 . S
C5599 C5598 1.362 . S
H5600 C5606 0.930 . S
H5601 C5609 0.930 . S
H5602 C5610 0.930 . S
H5603 C5611 0.930 . S
H5604 C5614 0.930 . S
H5605 C5615 0.930 . S
C5606 H5600 0.930 . S
C5606 C5607 1.355 . S
C5606 C5608 1.415 . S
C5607 C5606 1.355 . S
C5607 C5609 1.419 . S
C5608 C5606 1.415 . S
C5608 C5613 1.425 . S
C5608 C5615 1.409 . S
C5609 H5601 0.930 . S
C5609 C5607 1.419 . S
C5609 C5610 1.362 . S
C5610 H5602 0.930 . S
C5610 C5609 1.362 . S
C5610 C5613 1.409 . S
C5611 H5603 0.930 . S
C5611 C5612 1.355 . S
C5611 C5613 1.415 . S
C5612 C5611 1.355 . S
C5612 C5614 1.419 . S
C5613 C5608 1.425 . S
C5613 C5610 1.409 . S
C5613 C5611 1.415 . S
C5614 H5604 0.930 . S
C5614 C5612 1.419 . S
C5614 C5615 1.362 . S
C5615 H5605 0.930 . S
C5615 C5608 1.409 . S
C5615 C5614 1.362 . S
H5616 C5622 0.930 . S
H5617 C5625 0.930 . S
H5618 C5626 0.930 . S
H5619 C5627 0.930 . S
H5620 C5630 0.930 . S
H5621 C5631 0.930 . S
C5622 H5616 0.930 . S
C5622 C5623 1.355 . S
C5622 C5624 1.415 . S
C5623 C5622 1.355 . S
C5623 C5625 1.419 . S
C5624 C5622 1.415 . S
C5624 C5629 1.425 . S
C5624 C5631 1.409 . S
C5625 H5617 0.930 . S
C5625 C5623 1.419 . S
C5625 C5626 1.362 . S
C5626 H5618 0.930 . S
C5626 C5625 1.362 . S
C5626 C5629 1.409 . S
C5627 H5619 0.930 . S
C5627 C5628 1.355 . S
C5627 C5629 1.415 . S
C5628 C5627 1.355 . S
C5628 C5630 1.419 . S
C5629 C5624 1.425 . S
C5629 C5626 1.409 . S
C5629 C5627 1.415 . S
C5630 H5620 0.930 . S
C5630 C5628 1.419 . S
C5630 C5631 1.362 . S
C5631 H5621 0.930 . S
C5631 C5624 1.409 . S
C5631 C5630 1.362 . S
H5632 C5638 0.930 . S
H5633 C5641 0.930 . S
H5634 C5642 0.930 . S
H5635 C5643 0.930 . S
H5636 C5646 0.930 . S
H5637 C5647 0.930 . S
C5638 H5632 0.930 . S
C5638 C5639 1.355 . S
C5638 C5640 1.415 . S
C5639 C5638 1.355 . S
C5639 C5641 1.419 . S
C5640 C5638 1.415 . S
C5640 C5645 1.425 . S
C5640 C5647 1.409 . S
C5641 H5633 0.930 . S
C5641 C5639 1.419 . S
C5641 C5642 1.362 . S
C5642 H5634 0.930 . S
C5642 C5641 1.362 . S
C5642 C5645 1.409 . S
C5643 H5635 0.930 . S
C5643 C5644 1.355 . S
C5643 C5645 1.415 . S
C5644 C5643 1.355 . S
C5644 C5646 1.419 . S
C5645 C5640 1.425 . S
C5645 C5642 1.409 . S
C5645 C5643 1.415 . S
C5646 H5636 0.930 . S
C5646 C5644 1.419 . S
C5646 C5647 1.362 . S
C5647 H5637 0.930 . S
C5647 C5640 1.409 . S
C5647 C5646 1.362 . S
H5648 C5654 0.930 . S
H5649 C5657 0.930 . S
H5650 C5658 0.930 . S
H5651 C5659 0.930 . S
H5652 C5662 0.930 . S
H5653 C5663 0.930 . S
C5654 H5648 0.930 . S
C5654 C5655 1.355 . S
C5654 C5656 1.415 . S
C5655 C5654 1.355 . S
C5655 C5657 1.419 . S
C5656 C5654 1.415 . S
C5656 C5661 1.425 . S
C5656 C5663 1.409 . S
C5657 H5649 0.930 . S
C5657 C5655 1.419 . S
C5657 C5658 1.362 . S
C5658 H5650 0.930 . S
C5658 C5657 1.362 . S
C5658 C5661 1.409 . S
C5659 H5651 0.930 . S
C5659 C5660 1.355 . S
C5659 C5661 1.415 . S
C5660 C5659 1.355 . S
C5660 C5662 1.419 . S
C5661 C5656 1.425 . S
C5661 C5658 1.409 . S
C5661 C5659 1.415 . S
C5662 H5652 0.930 . S
C5662 C5660 1.419 . S
C5662 C5663 1.362 . S
C5663 H5653 0.930 . S
C5663 C5656 1.409 . S
C5663 C5662 1.362 . S
H5664 C5670 0.930 . S
H5665 C5673 0.930 . S
H5666 C5674 0.930 . S
H5667 C5675 0.930 . S
H5668 C5678 0.930 . S
H5669 C5679 0.930 . S
C5670 H5664 0.930 . S
C5670 C5671 1.355 . S
C5670 C5672 1.415 . S
C5671 C5670 1.355 . S
C5671 C5673 1.419 . S
C5672 C5670 1.415 . S
C5672 C5677 1.425 . S
C5672 C5679 1.409 . S
C5673 H5665 0.930 . S
C5673 C5671 1.419 . S
C5673 C5674 1.362 . S
C5674 H5666 0.930 . S
C5674 C5673 1.362 . S
C5674 C5677 1.409 . S
C5675 H5667 0.930 . S
C5675 C5676 1.355 . S
C5675 C5677 1.415 . S
C5676 C5675 1.355 . S
C5676 C5678 1.419 . S
C5677 C5672 1.425 . S
C5677 C5674 1.409 . S
C5677 C5675 1.415 . S
C5678 H5668 0.930 . S
C5678 C5676 1.419 . S
C5678 C5679 1.362 . S
C5679 H5669 0.930 . S
C5679 C5672 1.409 . S
C5679 C5678 1.362 . S
H5680 C5686 0.930 . S
H5681 C5689 0.930 . S
H5682 C5690 0.930 . S
H5683 C5691 0.930 . S
H5684 C5694 0.930 . S
H5685 C5695 0.930 . S
C5686 H5680 0.930 . S
C5686 C5687 1.355 . S
C5686 C5688 1.415 . S
C5687 C5686 1.355 . S
C5687 C5689 1.419 . S
C5688 C5686 1.415 . S
C5688 C5693 1.425 . S
C5688 C5695 1.409 . S
C5689 H5681 0.930 . S
C5689 C5687 1.419 . S
C5689 C5690 1.362 . S
C5690 H5682 0.930 . S
C5690 C5689 1.362 . S
C5690 C5693 1.409 . S
C5691 H5683 0.930 . S
C5691 C5692 1.355 . S
C5691 C5693 1.415 . S
C5692 C5691 1.355 . S
C5692 C5694 1.419 . S
C5693 C5688 1.425 . S
C5693 C5690 1.409 . S
C5693 C5691 1.415 . S
C5694 H5684 0.930 . S
C5694 C5692 1.419 . S
C5694 C5695 1.362 . S
C5695 H5685 0.930 . S
C5695 C5688 1.409 . S
C5695 C5694 1.362 . S
H5696 C5702 0.930 . S
H5697 C5705 0.930 . S
H5698 C5706 0.930 . S
H5699 C5707 0.930 . S
H5700 C5710 0.930 . S
H5701 C5711 0.930 . S
C5702 H5696 0.930 . S
C5702 C5703 1.355 . S
C5702 C5704 1.415 . S
C5703 C5702 1.355 . S
C5703 C5705 1.419 . S
C5704 C5702 1.415 . S
C5704 C5709 1.425 . S
C5704 C5711 1.409 . S
C5705 H5697 0.930 . S
C5705 C5703 1.419 . S
C5705 C5706 1.362 . S
C5706 H5698 0.930 . S
C5706 C5705 1.362 . S
C5706 C5709 1.409 . S
C5707 H5699 0.930 . S
C5707 C5708 1.355 . S
C5707 C5709 1.415 . S
C5708 C5707 1.355 . S
C5708 C5710 1.419 . S
C5709 C5704 1.425 . S
C5709 C5706 1.409 . S
C5709 C5707 1.415 . S
C5710 H5700 0.930 . S
C5710 C5708 1.419 . S
C5710 C5711 1.362 . S
C5711 H5701 0.930 . S
C5711 C5704 1.409 . S
C5711 C5710 1.362 . S
H5712 C5718 0.930 . S
H5713 C5721 0.930 . S
H5714 C5722 0.930 . S
H5715 C5723 0.930 . S
H5716 C5726 0.930 . S
H5717 C5727 0.930 . S
C5718 H5712 0.930 . S
C5718 C5719 1.355 . S
C5718 C5720 1.415 . S
C5719 C5718 1.355 . S
C5719 C5721 1.419 . S
C5720 C5718 1.415 . S
C5720 C5725 1.425 . S
C5720 C5727 1.409 . S
C5721 H5713 0.930 . S
C5721 C5719 1.419 . S
C5721 C5722 1.362 . S
C5722 H5714 0.930 . S
C5722 C5721 1.362 . S
C5722 C5725 1.409 . S
C5723 H5715 0.930 . S
C5723 C5724 1.355 . S
C5723 C5725 1.415 . S
C5724 C5723 1.355 . S
C5724 C5726 1.419 . S
C5725 C5720 1.425 . S
C5725 C5722 1.409 . S
C5725 C5723 1.415 . S
C5726 H5716 0.930 . S
C5726 C5724 1.419 . S
C5726 C5727 1.362 . S
C5727 H5717 0.930 . S
C5727 C5720 1.409 . S
C5727 C5726 1.362 . S
H5728 C5734 0.930 . S
H5729 C5737 0.930 . S
H5730 C5738 0.930 . S
H5731 C5739 0.930 . S
H5732 C5742 0.930 . S
H5733 C5743 0.930 . S
C5734 H5728 0.930 . S
C5734 C5735 1.355 . S
C5734 C5736 1.415 . S
C5735 C5734 1.355 . S
C5735 C5737 1.419 . S
C5736 C5734 1.415 . S
C5736 C5741 1.425 . S
C5736 C5743 1.409 . S
C5737 H5729 0.930 . S
C5737 C5735 1.419 . S
C5737 C5738 1.362 . S
C5738 H5730 0.930 . S
C5738 C5737 1.362 . S
C5738 C5741 1.409 . S
C5739 H5731 0.930 . S
C5739 C5740 1.355 . S
C5739 C5741 1.415 . S
C5740 C5739 1.355 . S
C5740 C5742 1.419 . S
C5741 C5736 1.425 . S
C5741 C5738 1.409 . S
C5741 C5739 1.415 . S
C5742 H5732 0.930 . S
C5742 C5740 1.419 . S
C5742 C5743 1.362 . S
C5743 H5733 0.930 . S
C5743 C5736 1.409 . S
C5743 C5742 1.362 . S
H5744 C5750 0.930 . S
H5745 C5753 0.930 . S
H5746 C5754 0.930 . S
H5747 C5755 0.930 . S
H5748 C5758 0.930 . S
H5749 C5759 0.930 . S
C5750 H5744 0.930 . S
C5750 C5751 1.355 . S
C5750 C5752 1.415 . S
C5751 C5750 1.355 . S
C5751 C5753 1.419 . S
C5752 C5750 1.415 . S
C5752 C5757 1.425 . S
C5752 C5759 1.409 . S
C5753 H5745 0.930 . S
C5753 C5751 1.419 . S
C5753 C5754 1.362 . S
C5754 H5746 0.930 . S
C5754 C5753 1.362 . S
C5754 C5757 1.409 . S
C5755 H5747 0.930 . S
C5755 C5756 1.355 . S
C5755 C5757 1.415 . S
C5756 C5755 1.355 . S
C5756 C5758 1.419 . S
C5757 C5752 1.425 . S
C5757 C5754 1.409 . S
C5757 C5755 1.415 . S
C5758 H5748 0.930 . S
C5758 C5756 1.419 . S
C5758 C5759 1.362 . S
C5759 H5749 0.930 . S
C5759 C5752 1.409 . S
C5759 C5758 1.362 . S
H5760 C5766 0.930 . S
H5761 C5769 0.930 . S
H5762 C5770 0.930 . S
H5763 C5771 0.930 . S
H5764 C5774 0.930 . S
H5765 C5775 0.930 . S
C5766 H5760 0.930 . S
C5766 C5767 1.355 . S
C5766 C5768 1.415 . S
C5767 C5766 1.355 . S
C5767 C5769 1.419 . S
C5768 C5766 1.415 . S
C5768 C5773 1.425 . S
C5768 C5775 1.409 . S
C5769 H5761 0.930 . S
C5769 C5767 1.419 . S
C5769 C5770 1.362 . S
C5770 H5762 0.930 . S
C5770 C5769 1.362 . S
C5770 C5773 1.409 . S
C5771 H5763 0.930 . S
C5771 C5772 1.355 . S
C5771 C5773 1.415 . S
C5772 C5771 1.355 . S
C5772 C5774 1.419 . S
C5773 C5768 1.425 . S
C5773 C5770 1.409 . S
C5773 C5771 1.415 . S
C5774 H5764 0.930 . S
C5774 C5772 1.419 . S
C5774 C5775 1.362 . S
C5775 H5765 0.930 . S
C5775 C5768 1.409 . S
C5775 C5774 1.362 . S
H5776 C5782 0.930 . S
H5777 C5785 0.930 . S
H5778 C5786 0.930 . S
H5779 C5787 0.930 . S
H5780 C5790 0.930 . S
H5781 C5791 0.930 . S
C5782 H5776 0.930 . S
C5782 C5783 1.355 . S
C5782 C5784 1.415 . S
C5783 C5782 1.355 . S
C5783 C5785 1.419 . S
C5784 C5782 1.415 . S
C5784 C5789 1.425 . S
C5784 C5791 1.409 . S
C5785 H5777 0.930 . S
C5785 C5783 1.419 . S
C5785 C5786 1.362 . S
C5786 H5778 0.930 . S
C5786 C5785 1.362 . S
C5786 C5789 1.409 . S
C5787 H5779 0.930 . S
C5787 C5788 1.355 . S
C5787 C5789 1.415 . S
C5788 C5787 1.355 . S
C5788 C5790 1.419 . S
C5789 C5784 1.425 . S
C5789 C5786 1.409 . S
C5789 C5787 1.415 . S
C5790 H5780 0.930 . S
C5790 C5788 1.419 . S
C5790 C5791 1.362 . S
C5791 H5781 0.930 . S
C5791 C5784 1.409 . S
C5791 C5790 1.362 . S
H5792 C5798 0.930 . S
H5793 C5801 0.930 . S
H5794 C5802 0.930 . S
H5795 C5803 0.930 . S
H5796 C5806 0.930 . S
H5797 C5807 0.930 . S
C5798 H5792 0.930 . S
C5798 C5799 1.355 . S
C5798 C5800 1.415 . S
C5799 C5798 1.355 . S
C5799 C5801 1.419 . S
C5800 C5798 1.415 . S
C5800 C5805 1.425 . S
C5800 C5807 1.409 . S
C5801 H5793 0.930 . S
C5801 C5799 1.419 . S
C5801 C5802 1.362 . S
C5802 H5794 0.930 . S
C5802 C5801 1.362 . S
C5802 C5805 1.409 . S
C5803 H5795 0.930 . S
C5803 C5804 1.355 . S
C5803 C5805 1.415 . S
C5804 C5803 1.355 . S
C5804 C5806 1.419 . S
C5805 C5800 1.425 . S
C5805 C5802 1.409 . S
C5805 C5803 1.415 . S
C5806 H5796 0.930 . S
C5806 C5804 1.419 . S
C5806 C5807 1.362 . S
C5807 H5797 0.930 . S
C5807 C5800 1.409 . S
C5807 C5806 1.362 . S
H5808 C5814 0.930 . S
H5809 C5817 0.930 . S
H5810 C5818 0.930 . S
H5811 C5819 0.930 . S
H5812 C5822 0.930 . S
H5813 C5823 0.930 . S
C5814 H5808 0.930 . S
C5814 C5815 1.355 . S
C5814 C5816 1.415 . S
C5815 C5814 1.355 . S
C5815 C5817 1.419 . S
C5816 C5814 1.415 . S
C5816 C5821 1.425 . S
C5816 C5823 1.409 . S
C5817 H5809 0.930 . S
C5817 C5815 1.419 . S
C5817 C5818 1.362 . S
C5818 H5810 0.930 . S
C5818 C5817 1.362 . S
C5818 C5821 1.409 . S
C5819 H5811 0.930 . S
C5819 C5820 1.355 . S
C5819 C5821 1.415 . S
C5820 C5819 1.355 . S
C5820 C5822 1.419 . S
C5821 C5816 1.425 . S
C5821 C5818 1.409 . S
C5821 C5819 1.415 . S
C5822 H5812 0.930 . S
C5822 C5820 1.419 . S
C5822 C5823 1.362 . S
C5823 H5813 0.930 . S
C5823 C5816 1.409 . S
C5823 C5822 1.362 . S
H5824 C5830 0.930 . S
H5825 C5833 0.930 . S
H5826 C5834 0.930 . S
H5827 C5835 0.930 . S
H5828 C5838 0.930 . S
H5829 C5839 0.930 . S
C5830 H5824 0.930 . S
C5830 C5831 1.355 . S
C5830 C5832 1.415 . S
C5831 C5830 1.355 . S
C5831 C5833 1.419 . S
C5832 C5830 1.415 . S
C5832 C5837 1.425 . S
C5832 C5839 1.409 . S
C5833 H5825 0.930 . S
C5833 C5831 1.419 . S
C5833 C5834 1.362 . S
C5834 H5826 0.930 . S
C5834 C5833 1.362 . S
C5834 C5837 1.409 . S
C5835 H5827 0.930 . S
C5835 C5836 1.355 . S
C5835 C5837 1.415 . S
C5836 C5835 1.355 . S
C5836 C5838 1.419 . S
C5837 C5832 1.425 . S
C5837 C5834 1.409 . S
C5837 C5835 1.415 . S
C5838 H5828 0.930 . S
C5838 C5836 1.419 . S
C5838 C5839 1.362 . S
C5839 H5829 0.930 . S
C5839 C5832 1.409 . S
C5839 C5838 1.362 . S
H5840 C5846 0.930 . S
H5841 C5849 0.930 . S
H5842 C5850 0.930 . S
H5843 C5851 0.930 . S
H5844 C5854 0.930 . S
H5845 C5855 0.930 . S
C5846 H5840 0.930 . S
C5846 C5847 1.355 . S
C5846 C5848 1.415 . S
C5847 C5846 1.355 . S
C5847 C5849 1.419 . S
C5848 C5846 1.415 . S
C5848 C5853 1.425 . S
C5848 C5855 1.409 . S
C5849 H5841 0.930 . S
C5849 C5847 1.419 . S
C5849 C5850 1.362 . S
C5850 H5842 0.930 . S
C5850 C5849 1.362 . S
C5850 C5853 1.409 . S
C5851 H5843 0.930 . S
C5851 C5852 1.355 . S
C5851 C5853 1.415 . S
C5852 C5851 1.355 . S
C5852 C5854 1.419 . S
C5853 C5848 1.425 . S
C5853 C5850 1.409 . S
C5853 C5851 1.415 . S
C5854 H5844 0.930 . S
C5854 C5852 1.419 . S
C5854 C5855 1.362 . S
C5855 H5845 0.930 . S
C5855 C5848 1.409 . S
C5855 C5854 1.362 . S
H5856 C5862 0.930 . S
H5857 C5865 0.930 . S
H5858 C5866 0.930 . S
H5859 C5867 0.930 . S
H5860 C5870 0.930 . S
H5861 C5871 0.930 . S
C5862 H5856 0.930 . S
C5862 C5863 1.355 . S
C5862 C5864 1.415 . S
C5863 C5862 1.355 . S
C5863 C5865 1.419 . S
C5864 C5862 1.415 . S
C5864 C5869 1.425 . S
C5864 C5871 1.409 . S
C5865 H5857 0.930 . S
C5865 C5863 1.419 . S
C5865 C5866 1.362 . S
C5866 H5858 0.930 . S
C5866 C5865 1.362 . S
C5866 C5869 1.409 . S
C5867 H5859 0.930 . S
C5867 C5868 1.355 . S
C5867 C5869 1.415 . S
C5868 C5867 1.355 . S
C5868 C5870 1.419 . S
C5869 C5864 1.425 . S
C5869 C5866 1.409 . S
C5869 C5867 1.415 . S
C5870 H5860 0.930 . S
C5870 C5868 1.419 . S
C5870 C5871 1.362 . S
C5871 H5861 0.930 . S
C5871 C5864 1.409 . S
C5871 C5870 1.362 . S
H5872 C5878 0.930 . S
H5873 C5881 0.930 . S
H5874 C5882 0.930 . S
H5875 C5883 0.930 . S
H5876 C5886 0.930 . S
H5877 C5887 0.930 . S
C5878 H5872 0.930 . S
C5878 C5879 1.355 . S
C5878 C5880 1.415 . S
C5879 C5878 1.355 . S
C5879 C5881 1.419 . S
C5880 C5878 1.415 . S
C5880 C5885 1.425 . S
C5880 C5887 1.409 . S
C5881 H5873 0.930 . S
C5881 C5879 1.419 . S
C5881 C5882 1.362 . S
C5882 H5874 0.930 . S
C5882 C5881 1.362 . S
C5882 C5885 1.409 . S
C5883 H5875 0.930 . S
C5883 C5884 1.355 . S
C5883 C5885 1.415 . S
C5884 C5883 1.355 . S
C5884 C5886 1.419 . S
C5885 C5880 1.425 . S
C5885 C5882 1.409 . S
C5885 C5883 1.415 . S
C5886 H5876 0.930 . S
C5886 C5884 1.419 . S
C5886 C5887 1.362 . S
C5887 H5877 0.930 . S
C5887 C5880 1.409 . S
C5887 C5886 1.362 . S
H5888 C5894 0.930 . S
H5889 C5897 0.930 . S
H5890 C5898 0.930 . S
H5891 C5899 0.930 . S
H5892 C5902 0.930 . S
H5893 C5903 0.930 . S
C5894 H5888 0.930 . S
C5894 C5895 1.355 . S
C5894 C5896 1.415 . S
C5895 C5894 1.355 . S
C5895 C5897 1.419 . S
C5896 C5894 1.415 . S
C5896 C5901 1.425 . S
C5896 C5903 1.409 . S
C5897 H5889 0.930 . S
C5897 C5895 1.419 . S
C5897 C5898 1.362 . S
C5898 H5890 0.930 . S
C5898 C5897 1.362 . S
C5898 C5901 1.409 . S
C5899 H5891 0.930 . S
C5899 C5900 1.355 . S
C5899 C5901 1.415 . S
C5900 C5899 1.355 . S
C5900 C5902 1.419 . S
C5901 C5896 1.425 . S
C5901 C5898 1.409 . S
C5901 C5899 1.415 . S
C5902 H5892 0.930 . S
C5902 C5900 1.419 . S
C5902 C5903 1.362 . S
C5903 H5893 0.930 . S
C5903 C5896 1.409 . S
C5903 C5902 1.362 . S
H5904 C5910 0.930 . S
H5905 C5913 0.930 . S
H5906 C5914 0.930 . S
H5907 C5915 0.930 . S
H5908 C5918 0.930 . S
H5909 C5919 0.930 . S
C5910 H5904 0.930 . S
C5910 C5911 1.355 . S
C5910 C5912 1.415 . S
C5911 C5910 1.355 . S
C5911 C5913 1.419 . S
C5912 C5910 1.415 . S
C5912 C5917 1.425 . S
C5912 C5919 1.409 . S
C5913 H5905 0.930 . S
C5913 C5911 1.419 . S
C5913 C5914 1.362 . S
C5914 H5906 0.930 . S
C5914 C5913 1.362 . S
C5914 C5917 1.409 . S
C5915 H5907 0.930 . S
C5915 C5916 1.355 . S
C5915 C5917 1.415 . S
C5916 C5915 1.355 . S
C5916 C5918 1.419 . S
C5917 C5912 1.425 . S
C5917 C5914 1.409 . S
C5917 C5915 1.415 . S
C5918 H5908 0.930 . S
C5918 C5916 1.419 . S
C5918 C5919 1.362 . S
C5919 H5909 0.930 . S
C5919 C5912 1.409 . S
C5919 C5918 1.362 . S
H5920 C5926 0.930 . S
H5921 C5929 0.930 . S
H5922 C5930 0.930 . S
H5923 C5931 0.930 . S
H5924 C5934 0.930 . S
H5925 C5935 0.930 . S
C5926 H5920 0.930 . S
C5926 C5927 1.355 . S
C5926 C5928 1.415 . S
C5927 C5926 1.355 . S
C5927 C5929 1.419 . S
C5928 C5926 1.415 . S
C5928 C5933 1.425 . S
C5928 C5935 1.409 . S
C5929 H5921 0.930 . S
C5929 C5927 1.419 . S
C5929 C5930 1.362 . S
C5930 H5922 0.930 . S
C5930 C5929 1.362 . S
C5930 C5933 1.409 . S
C5931 H5923 0.930 . S
C5931 C5932 1.355 . S
C5931 C5933 1.415 . S
C5932 C5931 1.355 . S
C5932 C5934 1.419 . S
C5933 C5928 1.425 . S
C5933 C5930 1.409 . S
C5933 C5931 1.415 . S
C5934 H5924 0.930 . S
C5934 C5932 1.419 . S
C5934 C5935 1.362 . S
C5935 H5925 0.930 . S
C5935 C5928 1.409 . S
C5935 C5934 1.362 . S
H5936 C5942 0.930 . S
H5937 C5945 0.930 . S
H5938 C5946 0.930 . S
H5939 C5947 0.930 . S
H5940 C5950 0.930 . S
H5941 C5951 0.930 . S
C5942 H5936 0.930 . S
C5942 C5943 1.355 . S
C5942 C5944 1.415 . S
C5943 C5942 1.355 . S
C5943 C5945 1.419 . S
C5944 C5942 1.415 . S
C5944 C5949 1.425 . S
C5944 C5951 1.409 . S
C5945 H5937 0.930 . S
C5945 C5943 1.419 . S
C5945 C5946 1.362 . S
C5946 H5938 0.930 . S
C5946 C5945 1.362 . S
C5946 C5949 1.409 . S
C5947 H5939 0.930 . S
C5947 C5948 1.355 . S
C5947 C5949 1.415 . S
C5948 C5947 1.355 . S
C5948 C5950 1.419 . S
C5949 C5944 1.425 . S
C5949 C5946 1.409 . S
C5949 C5947 1.415 . S
C5950 H5940 0.930 . S
C5950 C5948 1.419 . S
C5950 C5951 1.362 . S
C5951 H5941 0.930 . S
C5951 C5944 1.409 . S
C5951 C5950 1.362 . S
H5952 C5958 0.930 . S
H5953 C5961 0.930 . S
H5954 C5962 0.930 . S
H5955 C5963 0.930 . S
H5956 C5966 0.930 . S
H5957 C5967 0.930 . S
C5958 H5952 0.930 . S
C5958 C5959 1.355 . S
C5958 C5960 1.415 . S
C5959 C5958 1.355 . S
C5959 C5961 1.419 . S
C5960 C5958 1.415 . S
C5960 C5965 1.425 . S
C5960 C5967 1.409 . S
C5961 H5953 0.930 . S
C5961 C5959 1.419 . S
C5961 C5962 1.362 . S
C5962 H5954 0.930 . S
C5962 C5961 1.362 . S
C5962 C5965 1.409 . S
C5963 H5955 0.930 . S
C5963 C5964 1.355 . S
C5963 C5965 1.415 . S
C5964 C5963 1.355 . S
C5964 C5966 1.419 . S
C5965 C5960 1.425 . S
C5965 C5962 1.409 . S
C5965 C5963 1.415 . S
C5966 H5956 0.930 . S
C5966 C5964 1.419 . S
C5966 C5967 1.362 . S
C5967 H5957 0.930 . S
C5967 C5960 1.409 . S
C5967 C5966 1.362 . S
H5968 C5974 0.930 . S
H5969 C5977 0.930 . S
H5970 C5978 0.930 . S
H5971 C5979 0.930 . S
H5972 C5982 0.930 . S
H5973 C5983 0.930 . S
C5974 H5968 0.930 . S
C5974 C5975 1.355 . S
C5974 C5976 1.415 . S
C5975 C5974 1.355 . S
C5975 C5977 1.419 . S
C5976 C5974 1.415 . S
C5976 C5981 1.425 . S
C5976 C5983 1.409 . S
C5977 H5969 0.930 . S
C5977 C5975 1.419 . S
C5977 C5978 1.362 . S
C5978 H5970 0.930 . S
C5978 C5977 1.362 . S
C5978 C5981 1.409 . S
C5979 H5971 0.930 . S
C5979 C5980 1.355 . S
C5979 C5981 1.415 . S
C5980 C5979 1.355 . S
C5980 C5982 1.419 . S
C5981 C5976 1.425 . S
C5981 C5978 1.409 . S
C5981 C5979 1.415 . S
C5982 H5972 0.930 . S
C5982 C5980 1.419 . S
C5982 C5983 1.362 . S
C5983 H5973 0.930 . S
C5983 C5976 1.409 . S
C5983 C5982 1.362 . S
H5984 C5990 0.930 . S
H5985 C5993 0.930 . S
H5986 C5994 0.930 . S
H5987 C5995 0.930 . S
H5988 C5998 0.930 . S
H5989 C5999 0.930 . S
C5990 H5984 0.930 . S
C5990 C5991 1.355 . S
C5990 C5992 1.415 . S
C5991 C5990 1.355 . S
C5991 C5993 1.419 . S
C5992 C5990 1.415 . S
C5992 C5997 1.425 . S
C5992 C5999 1.409 . S
C5993 H5985 0.930 . S
C5993 C5991 1.419 . S
C5993 C5994 1.362 . S
C5994 H5986 0.930 . S
C5994 C5993 1.362 . S
C5994 C5997 1.409 . S
C5995 H5987 0.930 . S
C5995 C5996 1.355 . S
C5995 C5997 1.415 . S
C5996 C5995 1.355 . S
C5996 C5998 1.419 . S
C5997 C5992 1.425 . S
C5997 C5994 1.409 . S
C5997 C5995 1.415 . S
C5998 H5988 0.930 . S
C5998 C5996 1.419 . S
C5998 C5999 1.362 . S
C5999 H5989 0.930 . S
C5999 C5992 1.409 . S
C5999 C5998 1.362 . S
H6000 C6006 0.930 . S
H6001 C6009 0.930 . S
H6002 C6010 0.930 . S
H6003 C6011 0.930 . S
H6004 C6014 0.930 . S
H6005 C6015 0.930 . S
C6006 H6000 0.930 . S
C6006 C6007 1.355 . S
C6006 C6008 1.415 . S
C6007 C6006 1.355 . S
C6007 C6009 1.419 . S
C6008 C6006 1.415 . S
C6008 C6013 1.425 . S
C6008 C6015 1.409 . S
C6009 H6001 0.930 . S
C6009 C6007 1.419 . S
C6009 C6010 1.362 . S
C6010 H6002 0.930 . S
C6010 C6009 1.362 . S
C6010 C6013 1.409 . S
C6011 H6003 0.930 . S
C6011 C6012 1.355 . S
C6011 C6013 1.415 . S
C6012 C6011 1.355 . S
C6012 C6014 1.419 . S
C6013 C6008 1.425 . S
C6013 C6010 1.409 . S
C6013 C6011 1.415 . S
C6014 H6004 0.930 . S
C6014 C6012 1.419 . S
C6014 C6015 1.362 . S
C6015 H6005 0.930 . S
C6015 C6008 1.409 . S
C6015 C6014 1.362 . S
H6016 C6022 0.930 . S
H6017 C6025 0.930 . S
H6018 C6026 0.930 . S
H6019 C6027 0.930 . S
H6020 C6030 0.930 . S
H6021 C6031 0.930 . S
C6022 H6016 0.930 . S
C6022 C6023 1.355 . S
C6022 C6024 1.415 . S
C6023 C6022 1.355 . S
C6023 C6025 1.419 . S
C6024 C6022 1.415 . S
C6024 C6029 1.425 . S
C6024 C6031 1.409 . S
C6025 H6017 0.930 . S
C6025 C6023 1.419 . S
C6025 C6026 1.362 . S
C6026 H6018 0.930 . S
C6026 C6025 1.362 . S
C6026 C6029 1.409 . S
C6027 H6019 0.930 . S
C6027 C6028 1.355 . S
C6027 C6029 1.415 . S
C6028 C6027 1.355 . S
C6028 C6030 1.419 . S
C6029 C6024 1.425 . S
C6029 C6026 1.409 . S
C6029 C6027 1.415 . S
C6030 H6020 0.930 . S
C6030 C6028 1.419 . S
C6030 C6031 1.362 . S
C6031 H6021 0.930 . S
C6031 C6024 1.409 . S
C6031 C6030 1.362 . S
H6032 C6038 0.930 . S
H6033 C6041 0.930 . S
H6034 C6042 0.930 . S
H6035 C6043 0.930 . S
H6036 C6046 0.930 . S
H6037 C6047 0.930 . S
C6038 H6032 0.930 . S
C6038 C6039 1.355 . S
C6038 C6040 1.415 . S
C6039 C6038 1.355 . S
C6039 C6041 1.419 . S
C6040 C6038 1.415 . S
C6040 C6045 1.425 . S
C6040 C6047 1.409 . S
C6041 H6033 0.930 . S
C6041 C6039 1.419 . S
C6041 C6042 1.362 . S
C6042 H6034 0.930 . S
C6042 C6041 1.362 . S
C6042 C6045 1.409 . S
C6043 H6035 0.930 . S
C6043 C6044 1.355 . S
C6043 C6045 1.415 . S
C6044 C6043 1.355 . S
C6044 C6046 1.419 . S
C6045 C6040 1.425 . S
C6045 C6042 1.409 . S
C6045 C6043 1.415 . S
C6046 H6036 0.930 . S
C6046 C6044 1.419 . S
C6046 C6047 1.362 . S
C6047 H6037 0.930 . S
C6047 C6040 1.409 . S
C6047 C6046 1.362 . S
H6048 C6054 0.930 . S
H6049 C6057 0.930 . S
H6050 C6058 0.930 . S
H6051 C6059 0.930 . S
H6052 C6062 0.930 . S
H6053 C6063 0.930 . S
C6054 H6048 0.930 . S
C6054 C6055 1.355 . S
C6054 C6056 1.415 . S
C6055 C6054 1.355 . S
C6055 C6057 1.419 . S
C6056 C6054 1.415 . S
C6056 C6061 1.425 . S
C6056 C6063 1.409 . S
C6057 H6049 0.930 . S
C6057 C6055 1.419 . S
C6057 C6058 1.362 . S
C6058 H6050 0.930 . S
C6058 C6057 1.362 . S
C6058 C6061 1.409 . S
C6059 H6051 0.930 . S
C6059 C6060 1.355 . S
C6059 C6061 1.415 . S
C6060 C6059 1.355 . S
C6060 C6062 1.419 . S
C6061 C6056 1.425 . S
C6061 C6058 1.409 . S
C6061 C6059 1.415 . S
C6062 H6052 0.930 . S
C6062 C6060 1.419 . S
C6062 C6063 1.362 . S
C6063 H6053 0.930 . S
C6063 C6056 1.409 . S
C6063 C6062 1.362 . S
H6064 C6070 0.930 . S
H6065 C6073 0.930 . S
H6066 C6074 0.930 . S
H6067 C6075 0.930 . S
H6068 C6078 0.930 . S
H6069 C6079 0.930 . S
C6070 H6064 0.930 . S
C6070 C6071 1.355 . S
C6070 C6072 1.415 . S
C6071 C6070 1.355 . S
C6071 C6073 1.419 . S
C6072 C6070 1.415 . S
C6072 C6077 1.425 . S
C6072 C6079 1.409 . S
C6073 H6065 0.930 . S
C6073 C6071 1.419 . S
C6073 C6074 1.362 . S
C6074 H6066 0.930 . S
C6074 C6073 1.362 . S
C6074 C6077 1.409 . S
C6075 H6067 0.930 . S
C6075 C6076 1.355 . S
C6075 C6077 1.415 . S
C6076 C6075 1.355 . S
C6076 C6078 1.419 . S
C6077 C6072 1.425 . S
C6077 C6074 1.409 . S
C6077 C6075 1.415 . S
C6078 H6068 0.930 . S
C6078 C6076 1.419 . S
C6078 C6079 1.362 . S
C6079 H6069 0.930 . S
C6079 C6072 1.409 . S
C6079 C6078 1.362 . S
H6080 C6086 0.930 . S
H6081 C6089 0.930 . S
H6082 C6090 0.930 . S
H6083 C6091 0.930 . S
H6084 C6094 0.930 . S
H6085 C6095 0.930 . S
C6086 H6080 0.930 . S
C6086 C6087 1.355 . S
C6086 C6088 1.415 . S
C6087 C6086 1.355 . S
C6087 C6089 1.419 . S
C6088 C6086 1.415 . S
C6088 C6093 1.425 . S
C6088 C6095 1.409 . S
C6089 H6081 0.930 . S
C6089 C6087 1.419 . S
C6089 C6090 1.362 . S
C6090 H6082 0.930 . S
C6090 C6089 1.362 . S
C6090 C6093 1.409 . S
C6091 H6083 0.930 . S
C6091 C6092 1.355 . S
C6091 C6093 1.415 . S
C6092 C6091 1.355 . S
C6092 C6094 1.419 . S
C6093 C6088 1.425 . S
C6093 C6090 1.409 . S
C6093 C6091 1.415 . S
C6094 H6084 0.930 . S
C6094 C6092 1.419 . S
C6094 C6095 1.362 . S
C6095 H6085 0.930 . S
C6095 C6088 1.409 . S
C6095 C6094 1.362 . S
H6096 C6102 0.930 . S
H6097 C6105 0.930 . S
H6098 C6106 0.930 . S
H6099 C6107 0.930 . S
H6100 C6110 0.930 . S
H6101 C6111 0.930 . S
C6102 H6096 0.930 . S
C6102 C6103 1.355 . S
C6102 C6104 1.415 . S
C6103 C6102 1.355 . S
C6103 C6105 1.419 . S
C6104 C6102 1.415 . S
C6104 C6109 1.425 . S
C6104 C6111 1.409 . S
C6105 H6097 0.930 . S
C6105 C6103 1.419 . S
C6105 C6106 1.362 . S
C6106 H6098 0.930 . S
C6106 C6105 1.362 . S
C6106 C6109 1.409 . S
C6107 H6099 0.930 . S
C6107 C6108 1.355 . S
C6107 C6109 1.415 . S
C6108 C6107 1.355 . S
C6108 C6110 1.419 . S
C6109 C6104 1.425 . S
C6109 C6106 1.409 . S
C6109 C6107 1.415 . S
C6110 H6100 0.930 . S
C6110 C6108 1.419 . S
C6110 C6111 1.362 . S
C6111 H6101 0.930 . S
C6111 C6104 1.409 . S
C6111 C6110 1.362 . S
H6112 C6118 0.930 . S
H6113 C6121 0.930 . S
H6114 C6122 0.930 . S
H6115 C6123 0.930 . S
H6116 C6126 0.930 . S
H6117 C6127 0.930 . S
C6118 H6112 0.930 . S
C6118 C6119 1.355 . S
C6118 C6120 1.415 . S
C6119 C6118 1.355 . S
C6119 C6121 1.419 . S
C6120 C6118 1.415 . S
C6120 C6125 1.425 . S
C6120 C6127 1.409 . S
C6121 H6113 0.930 . S
C6121 C6119 1.419 . S
C6121 C6122 1.362 . S
C6122 H6114 0.930 . S
C6122 C6121 1.362 . S
C6122 C6125 1.409 . S
C6123 H6115 0.930 . S
C6123 C6124 1.355 . S
C6123 C6125 1.415 . S
C6124 C6123 1.355 . S
C6124 C6126 1.419 . S
C6125 C6120 1.425 . S
C6125 C6122 1.409 . S
C6125 C6123 1.415 . S
C6126 H6116 0.930 . S
C6126 C6124 1.419 . S
C6126 C6127 1.362 . S
C6127 H6117 0.930 . S
C6127 C6120 1.409 . S
C6127 C6126 1.362 . S
H6128 C6134 0.930 . S
H6129 C6137 0.930 . S
H6130 C6138 0.930 . S
H6131 C6139 0.930 . S
H6132 C6142 0.930 . S
H6133 C6143 0.930 . S
C6134 H6128 0.930 . S
C6134 C6135 1.355 . S
C6134 C6136 1.415 . S
C6135 C6134 1.355 . S
C6135 C6137 1.419 . S
C6136 C6134 1.415 . S
C6136 C6141 1.425 . S
C6136 C6143 1.409 . S
C6137 H6129 0.930 . S
C6137 C6135 1.419 . S
C6137 C6138 1.362 . S
C6138 H6130 0.930 . S
C6138 C6137 1.362 . S
C6138 C6141 1.409 . S
C6139 H6131 0.930 . S
C6139 C6140 1.355 . S
C6139 C6141 1.415 . S
C6140 C6139 1.355 . S
C6140 C6142 1.419 . S
C6141 C6136 1.425 . S
C6141 C6138 1.409 . S
C6141 C6139 1.415 . S
C6142 H6132 0.930 . S
C6142 C6140 1.419 . S
C6142 C6143 1.362 . S
C6143 H6133 0.930 . S
C6143 C6136 1.409 . S
C6143 C6142 1.362 . S
H6144 C6150 0.930 . S
H6145 C6153 0.930 . S
H6146 C6154 0.930 . S
H6147 C6155 0.930 . S
H6148 C6158 0.930 . S
H6149 C6159 0.930 . S
C6150 H6144 0.930 . S
C6150 C6151 1.355 . S
C6150 C6152 1.415 . S
C6151 C6150 1.355 . S
C6151 C6153 1.419 . S
C6152 C6150 1.415 . S
C6152 C6157 1.425 . S
C6152 C6159 1.409 . S
C6153 H6145 0.930 . S
C6153 C6151 1.419 . S
C6153 C6154 1.362 . S
C6154 H6146 0.930 . S
C6154 C6153 1.362 . S
C6154 C6157 1.409 . S
C6155 H6147 0.930 . S
C6155 C6156 1.355 . S
C6155 C6157 1.415 . S
C6156 C6155 1.355 . S
C6156 C6158 1.419 . S
C6157 C6152 1.425 . S
C6157 C6154 1.409 . S
C6157 C6155 1.415 . S
C6158 H6148 0.930 . S
C6158 C6156 1.419 . S
C6158 C6159 1.362 . S
C6159 H6149 0.930 . S
C6159 C6152 1.409 . S
C6159 C6158 1.362 . S
H6160 C6166 0.930 . S
H6161 C6169 0.930 . S
H6162 C6170 0.930 . S
H6163 C6171 0.930 . S
H6164 C6174 0.930 . S
H6165 C6175 0.930 . S
C6166 H6160 0.930 . S
C6166 C6167 1.355 . S
C6166 C6168 1.415 . S
C6167 C6166 1.355 . S
C6167 C6169 1.419 . S
C6168 C6166 1.415 . S
C6168 C6173 1.425 . S
C6168 C6175 1.409 . S
C6169 H6161 0.930 . S
C6169 C6167 1.419 . S
C6169 C6170 1.362 . S
C6170 H6162 0.930 . S
C6170 C6169 1.362 . S
C6170 C6173 1.409 . S
C6171 H6163 0.930 . S
C6171 C6172 1.355 . S
C6171 C6173 1.415 . S
C6172 C6171 1.355 . S
C6172 C6174 1.419 . S
C6173 C6168 1.425 . S
C6173 C6170 1.409 . S
C6173 C6171 1.415 . S
C6174 H6164 0.930 . S
C6174 C6172 1.419 . S
C6174 C6175 1.362 . S
C6175 H6165 0.930 . S
C6175 C6168 1.409 . S
C6175 C6174 1.362 . S
H6176 C6182 0.930 . S
H6177 C6185 0.930 1_554 S
H6178 C6186 0.930 . S
H6179 C6187 0.930 . S
H6180 C6190 0.930 . S
H6181 C6191 0.930 . S
C6182 H6176 0.930 . S
C6182 C6183 1.355 . S
C6182 C6184 1.415 . S
C6183 C6182 1.355 . S
C6183 C6185 1.419 . S
C6184 C6182 1.415 . S
C6184 C6189 1.425 . S
C6184 C6191 1.409 . S
C6185 H6177 0.930 1_556 S
C6185 C6183 1.419 . S
C6185 C6186 1.362 . S
C6186 H6178 0.930 . S
C6186 C6185 1.362 . S
C6186 C6189 1.409 . S
C6187 H6179 0.930 . S
C6187 C6188 1.355 . S
C6187 C6189 1.415 . S
C6188 C6187 1.355 . S
C6188 C6190 1.419 . S
C6189 C6184 1.425 . S
C6189 C6186 1.409 . S
C6189 C6187 1.415 . S
C6190 H6180 0.930 . S
C6190 C6188 1.419 . S
C6190 C6191 1.362 . S
C6191 H6181 0.930 . S
C6191 C6184 1.409 . S
C6191 C6190 1.362 . S
H6192 C6198 0.930 . S
H6193 C6201 0.930 . S
H6194 C6202 0.930 . S
H6195 C6203 0.930 . S
H6196 C6206 0.930 . S
H6197 C6207 0.930 . S
C6198 H6192 0.930 . S
C6198 C6199 1.355 . S
C6198 C6200 1.415 . S
C6199 C6198 1.355 . S
C6199 C6201 1.419 . S
C6200 C6198 1.415 . S
C6200 C6205 1.425 . S
C6200 C6207 1.409 . S
C6201 H6193 0.930 . S
C6201 C6199 1.419 . S
C6201 C6202 1.362 . S
C6202 H6194 0.930 . S
C6202 C6201 1.362 . S
C6202 C6205 1.409 . S
C6203 H6195 0.930 . S
C6203 C6204 1.355 . S
C6203 C6205 1.415 . S
C6204 C6203 1.355 . S
C6204 C6206 1.419 . S
C6205 C6200 1.425 . S
C6205 C6202 1.409 . S
C6205 C6203 1.415 . S
C6206 H6196 0.930 . S
C6206 C6204 1.419 . S
C6206 C6207 1.362 . S
C6207 H6197 0.930 . S
C6207 C6200 1.409 . S
C6207 C6206 1.362 . S
H6208 C6214 0.930 . S
H6209 C6217 0.930 . S
H6210 C6218 0.930 . S
H6211 C6219 0.930 . S
H6212 C6222 0.930 . S
H6213 C6223 0.930 . S
C6214 H6208 0.930 . S
C6214 C6215 1.355 . S
C6214 C6216 1.415 . S
C6215 C6214 1.355 . S
C6215 C6217 1.419 . S
C6216 C6214 1.415 . S
C6216 C6221 1.425 . S
C6216 C6223 1.409 . S
C6217 H6209 0.930 . S
C6217 C6215 1.419 . S
C6217 C6218 1.362 . S
C6218 H6210 0.930 . S
C6218 C6217 1.362 . S
C6218 C6221 1.409 . S
C6219 H6211 0.930 . S
C6219 C6220 1.355 . S
C6219 C6221 1.415 . S
C6220 C6219 1.355 . S
C6220 C6222 1.419 . S
C6221 C6216 1.425 . S
C6221 C6218 1.409 . S
C6221 C6219 1.415 . S
C6222 H6212 0.930 . S
C6222 C6220 1.419 . S
C6222 C6223 1.362 . S
C6223 H6213 0.930 . S
C6223 C6216 1.409 . S
C6223 C6222 1.362 . S
H6224 C6230 0.930 . S
H6225 C6233 0.930 . S
H6226 C6234 0.930 . S
H6227 C6235 0.930 . S
H6228 C6238 0.930 . S
H6229 C6239 0.930 . S
C6230 H6224 0.930 . S
C6230 C6231 1.355 . S
C6230 C6232 1.415 . S
C6231 C6230 1.355 . S
C6231 C6233 1.419 . S
C6232 C6230 1.415 . S
C6232 C6237 1.425 . S
C6232 C6239 1.409 . S
C6233 H6225 0.930 . S
C6233 C6231 1.419 . S
C6233 C6234 1.362 . S
C6234 H6226 0.930 . S
C6234 C6233 1.362 . S
C6234 C6237 1.409 . S
C6235 H6227 0.930 . S
C6235 C6236 1.355 . S
C6235 C6237 1.415 . S
C6236 C6235 1.355 . S
C6236 C6238 1.419 . S
C6237 C6232 1.425 . S
C6237 C6234 1.409 . S
C6237 C6235 1.415 . S
C6238 H6228 0.930 . S
C6238 C6236 1.419 . S
C6238 C6239 1.362 . S
C6239 H6229 0.930 . S
C6239 C6232 1.409 . S
C6239 C6238 1.362 . S
H6240 C6246 0.930 . S
H6241 C6249 0.930 . S
H6242 C6250 0.930 . S
H6243 C6251 0.930 . S
H6244 C6254 0.930 . S
H6245 C6255 0.930 . S
C6246 H6240 0.930 . S
C6246 C6247 1.355 . S
C6246 C6248 1.415 . S
C6247 C6246 1.355 . S
C6247 C6249 1.419 . S
C6248 C6246 1.415 . S
C6248 C6253 1.425 . S
C6248 C6255 1.409 . S
C6249 H6241 0.930 . S
C6249 C6247 1.419 . S
C6249 C6250 1.362 . S
C6250 H6242 0.930 . S
C6250 C6249 1.362 . S
C6250 C6253 1.409 . S
C6251 H6243 0.930 . S
C6251 C6252 1.355 . S
C6251 C6253 1.415 . S
C6252 C6251 1.355 . S
C6252 C6254 1.419 . S
C6253 C6248 1.425 . S
C6253 C6250 1.409 . S
C6253 C6251 1.415 . S
C6254 H6244 0.930 . S
C6254 C6252 1.419 . S
C6254 C6255 1.362 . S
C6255 H6245 0.930 . S
C6255 C6248 1.409 . S
C6255 C6254 1.362 . S
H6256 C6262 0.930 . S
H6257 C6265 0.930 . S
H6258 C6266 0.930 . S
H6259 C6267 0.930 . S
H6260 C6270 0.930 . S
H6261 C6271 0.930 . S
C6262 H6256 0.930 . S
C6262 C6263 1.355 . S
C6262 C6264 1.415 . S
C6263 C6262 1.355 . S
C6263 C6265 1.419 . S
C6264 C6262 1.415 . S
C6264 C6269 1.425 . S
C6264 C6271 1.409 . S
C6265 H6257 0.930 . S
C6265 C6263 1.419 . S
C6265 C6266 1.362 . S
C6266 H6258 0.930 . S
C6266 C6265 1.362 . S
C6266 C6269 1.409 . S
C6267 H6259 0.930 . S
C6267 C6268 1.355 . S
C6267 C6269 1.415 . S
C6268 C6267 1.355 . S
C6268 C6270 1.419 . S
C6269 C6264 1.425 . S
C6269 C6266 1.409 . S
C6269 C6267 1.415 . S
C6270 H6260 0.930 . S
C6270 C6268 1.419 . S
C6270 C6271 1.362 . S
C6271 H6261 0.930 . S
C6271 C6264 1.409 . S
C6271 C6270 1.362 . S
H6272 C6278 0.930 . S
H6273 C6281 0.930 . S
H6274 C6282 0.930 . S
H6275 C6283 0.930 . S
H6276 C6286 0.930 . S
H6277 C6287 0.930 . S
C6278 H6272 0.930 . S
C6278 C6279 1.355 . S
C6278 C6280 1.415 . S
C6279 C6278 1.355 . S
C6279 C6281 1.419 . S
C6280 C6278 1.415 . S
C6280 C6285 1.425 . S
C6280 C6287 1.409 . S
C6281 H6273 0.930 . S
C6281 C6279 1.419 . S
C6281 C6282 1.362 . S
C6282 H6274 0.930 . S
C6282 C6281 1.362 . S
C6282 C6285 1.409 . S
C6283 H6275 0.930 . S
C6283 C6284 1.355 . S
C6283 C6285 1.415 . S
C6284 C6283 1.355 . S
C6284 C6286 1.419 . S
C6285 C6280 1.425 . S
C6285 C6282 1.409 . S
C6285 C6283 1.415 . S
C6286 H6276 0.930 . S
C6286 C6284 1.419 . S
C6286 C6287 1.362 . S
C6287 H6277 0.930 . S
C6287 C6280 1.409 . S
C6287 C6286 1.362 . S
H6288 C6294 0.930 . S
H6289 C6297 0.930 . S
H6290 C6298 0.930 . S
H6291 C6299 0.930 . S
H6292 C6302 0.930 . S
H6293 C6303 0.930 . S
C6294 H6288 0.930 . S
C6294 C6295 1.355 . S
C6294 C6296 1.415 . S
C6295 C6294 1.355 . S
C6295 C6297 1.419 . S
C6296 C6294 1.415 . S
C6296 C6301 1.425 . S
C6296 C6303 1.409 . S
C6297 H6289 0.930 . S
C6297 C6295 1.419 . S
C6297 C6298 1.362 . S
C6298 H6290 0.930 . S
C6298 C6297 1.362 . S
C6298 C6301 1.409 . S
C6299 H6291 0.930 . S
C6299 C6300 1.355 . S
C6299 C6301 1.415 . S
C6300 C6299 1.355 . S
C6300 C6302 1.419 . S
C6301 C6296 1.425 . S
C6301 C6298 1.409 . S
C6301 C6299 1.415 . S
C6302 H6292 0.930 . S
C6302 C6300 1.419 . S
C6302 C6303 1.362 . S
C6303 H6293 0.930 . S
C6303 C6296 1.409 . S
C6303 C6302 1.362 . S
H6304 C6310 0.930 . S
H6305 C6313 0.930 . S
H6306 C6314 0.930 . S
H6307 C6315 0.930 . S
H6308 C6318 0.930 . S
H6309 C6319 0.930 . S
C6310 H6304 0.930 . S
C6310 C6311 1.355 . S
C6310 C6312 1.415 . S
C6311 C6310 1.355 . S
C6311 C6313 1.419 . S
C6312 C6310 1.415 . S
C6312 C6317 1.425 . S
C6312 C6319 1.409 . S
C6313 H6305 0.930 . S
C6313 C6311 1.419 . S
C6313 C6314 1.362 . S
C6314 H6306 0.930 . S
C6314 C6313 1.362 . S
C6314 C6317 1.409 . S
C6315 H6307 0.930 . S
C6315 C6316 1.355 . S
C6315 C6317 1.415 . S
C6316 C6315 1.355 . S
C6316 C6318 1.419 . S
C6317 C6312 1.425 . S
C6317 C6314 1.409 . S
C6317 C6315 1.415 . S
C6318 H6308 0.930 . S
C6318 C6316 1.419 . S
C6318 C6319 1.362 . S
C6319 H6309 0.930 . S
C6319 C6312 1.409 . S
C6319 C6318 1.362 . S
H6320 C6326 0.930 . S
H6321 C6329 0.930 . S
H6322 C6330 0.930 . S
H6323 C6331 0.930 . S
H6324 C6334 0.930 . S
H6325 C6335 0.930 . S
C6326 H6320 0.930 . S
C6326 C6327 1.355 . S
C6326 C6328 1.415 . S
C6327 C6326 1.355 . S
C6327 C6329 1.419 . S
C6328 C6326 1.415 . S
C6328 C6333 1.425 . S
C6328 C6335 1.409 . S
C6329 H6321 0.930 . S
C6329 C6327 1.419 . S
C6329 C6330 1.362 . S
C6330 H6322 0.930 . S
C6330 C6329 1.362 . S
C6330 C6333 1.409 . S
C6331 H6323 0.930 . S
C6331 C6332 1.355 . S
C6331 C6333 1.415 . S
C6332 C6331 1.355 . S
C6332 C6334 1.419 . S
C6333 C6328 1.425 . S
C6333 C6330 1.409 . S
C6333 C6331 1.415 . S
C6334 H6324 0.930 . S
C6334 C6332 1.419 . S
C6334 C6335 1.362 . S
C6335 H6325 0.930 . S
C6335 C6328 1.409 . S
C6335 C6334 1.362 . S
H6336 C6342 0.930 . S
H6337 C6345 0.930 . S
H6338 C6346 0.930 . S
H6339 C6347 0.930 . S
H6340 C6350 0.930 . S
H6341 C6351 0.930 . S
C6342 H6336 0.930 . S
C6342 C6343 1.355 . S
C6342 C6344 1.415 . S
C6343 C6342 1.355 . S
C6343 C6345 1.419 . S
C6344 C6342 1.415 . S
C6344 C6349 1.425 . S
C6344 C6351 1.409 . S
C6345 H6337 0.930 . S
C6345 C6343 1.419 . S
C6345 C6346 1.362 . S
C6346 H6338 0.930 . S
C6346 C6345 1.362 . S
C6346 C6349 1.409 . S
C6347 H6339 0.930 . S
C6347 C6348 1.355 . S
C6347 C6349 1.415 . S
C6348 C6347 1.355 . S
C6348 C6350 1.419 . S
C6349 C6344 1.425 . S
C6349 C6346 1.409 . S
C6349 C6347 1.415 . S
C6350 H6340 0.930 . S
C6350 C6348 1.419 . S
C6350 C6351 1.362 . S
C6351 H6341 0.930 . S
C6351 C6344 1.409 . S
C6351 C6350 1.362 . S
H6352 C6358 0.930 . S
H6353 C6361 0.930 . S
H6354 C6362 0.930 . S
H6355 C6363 0.930 . S
H6356 C6366 0.930 . S
H6357 C6367 0.930 . S
C6358 H6352 0.930 . S
C6358 C6359 1.355 . S
C6358 C6360 1.415 . S
C6359 C6358 1.355 . S
C6359 C6361 1.419 . S
C6360 C6358 1.415 . S
C6360 C6365 1.425 . S
C6360 C6367 1.409 . S
C6361 H6353 0.930 . S
C6361 C6359 1.419 . S
C6361 C6362 1.362 . S
C6362 H6354 0.930 . S
C6362 C6361 1.362 . S
C6362 C6365 1.409 . S
C6363 H6355 0.930 . S
C6363 C6364 1.355 . S
C6363 C6365 1.415 . S
C6364 C6363 1.355 . S
C6364 C6366 1.419 . S
C6365 C6360 1.425 . S
C6365 C6362 1.409 . S
C6365 C6363 1.415 . S
C6366 H6356 0.930 . S
C6366 C6364 1.419 . S
C6366 C6367 1.362 . S
C6367 H6357 0.930 . S
C6367 C6360 1.409 . S
C6367 C6366 1.362 . S
H6368 C6374 0.930 . S
H6369 C6377 0.930 . S
H6370 C6378 0.930 . S
H6371 C6379 0.930 . S
H6372 C6382 0.930 . S
H6373 C6383 0.930 . S
C6374 H6368 0.930 . S
C6374 C6375 1.355 . S
C6374 C6376 1.415 . S
C6375 C6374 1.355 . S
C6375 C6377 1.419 . S
C6376 C6374 1.415 . S
C6376 C6381 1.425 . S
C6376 C6383 1.409 . S
C6377 H6369 0.930 . S
C6377 C6375 1.419 . S
C6377 C6378 1.362 . S
C6378 H6370 0.930 . S
C6378 C6377 1.362 . S
C6378 C6381 1.409 . S
C6379 H6371 0.930 . S
C6379 C6380 1.355 . S
C6379 C6381 1.415 . S
C6380 C6379 1.355 . S
C6380 C6382 1.419 . S
C6381 C6376 1.425 . S
C6381 C6378 1.409 . S
C6381 C6379 1.415 . S
C6382 H6372 0.930 . S
C6382 C6380 1.419 . S
C6382 C6383 1.362 . S
C6383 H6373 0.930 . S
C6383 C6376 1.409 . S
C6383 C6382 1.362 . S
H6384 C6390 0.930 . S
H6385 C6393 0.930 . S
H6386 C6394 0.930 . S
H6387 C6395 0.930 . S
H6388 C6398 0.930 . S
H6389 C6399 0.930 . S
C6390 H6384 0.930 . S
C6390 C6391 1.355 . S
C6390 C6392 1.415 . S
C6391 C6390 1.355 . S
C6391 C6393 1.419 . S
C6392 C6390 1.415 . S
C6392 C6397 1.425 . S
C6392 C6399 1.409 . S
C6393 H6385 0.930 . S
C6393 C6391 1.419 . S
C6393 C6394 1.362 . S
C6394 H6386 0.930 . S
C6394 C6393 1.362 . S
C6394 C6397 1.409 . S
C6395 H6387 0.930 . S
C6395 C6396 1.355 . S
C6395 C6397 1.415 . S
C6396 C6395 1.355 . S
C6396 C6398 1.419 . S
C6397 C6392 1.425 . S
C6397 C6394 1.409 . S
C6397 C6395 1.415 . S
C6398 H6388 0.930 . S
C6398 C6396 1.419 . S
C6398 C6399 1.362 . S
C6399 H6389 0.930 . S
C6399 C6392 1.409 . S
C6399 C6398 1.362 . S
H6400 C6406 0.930 . S
H6401 C6409 0.930 . S
H6402 C6410 0.930 . S
H6403 C6411 0.930 . S
H6404 C6414 0.930 . S
H6405 C6415 0.930 . S
C6406 H6400 0.930 . S
C6406 C6407 1.355 . S
C6406 C6408 1.415 . S
C6407 C6406 1.355 . S
C6407 C6409 1.419 . S
C6408 C6406 1.415 . S
C6408 C6413 1.425 . S
C6408 C6415 1.409 . S
C6409 H6401 0.930 . S
C6409 C6407 1.419 . S
C6409 C6410 1.362 . S
C6410 H6402 0.930 . S
C6410 C6409 1.362 . S
C6410 C6413 1.409 . S
C6411 H6403 0.930 . S
C6411 C6412 1.355 . S
C6411 C6413 1.415 . S
C6412 C6411 1.355 . S
C6412 C6414 1.419 . S
C6413 C6408 1.425 . S
C6413 C6410 1.409 . S
C6413 C6411 1.415 . S
C6414 H6404 0.930 . S
C6414 C6412 1.419 . S
C6414 C6415 1.362 . S
C6415 H6405 0.930 . S
C6415 C6408 1.409 . S
C6415 C6414 1.362 . S
H6416 C6422 0.929 1_565 S
H6417 C6425 0.930 . S
H6418 C6426 0.930 . S
H6419 C6427 0.930 . S
H6420 C6430 0.930 . S
H6421 C6431 0.930 . S
C6422 H6416 0.929 1_545 S
C6422 C6423 1.355 1_545 S
C6422 C6424 1.415 . S
C6423 C6422 1.355 1_565 S
C6423 C6425 1.419 . S
C6424 C6422 1.415 . S
C6424 C6429 1.425 . S
C6424 C6431 1.409 . S
C6425 H6417 0.930 . S
C6425 C6423 1.419 . S
C6425 C6426 1.362 1_565 S
C6426 H6418 0.930 . S
C6426 C6425 1.362 1_545 S
C6426 C6429 1.409 . S
C6427 H6419 0.930 . S
C6427 C6428 1.355 . S
C6427 C6429 1.415 . S
C6428 C6427 1.355 . S
C6428 C6430 1.419 . S
C6429 C6424 1.425 . S
C6429 C6426 1.409 . S
C6429 C6427 1.415 . S
C6430 H6420 0.930 . S
C6430 C6428 1.419 . S
C6430 C6431 1.362 . S
C6431 H6421 0.930 . S
C6431 C6424 1.409 . S
C6431 C6430 1.362 . S
H6432 C6438 0.930 . S
H6433 C6441 0.930 . S
H6434 C6442 0.930 . S
H6435 C6443 0.930 . S
H6436 C6446 0.930 . S
H6437 C6447 0.930 . S
C6438 H6432 0.930 . S
C6438 C6439 1.355 . S
C6438 C6440 1.415 . S
C6439 C6438 1.355 . S
C6439 C6441 1.419 . S
C6440 C6438 1.415 . S
C6440 C6445 1.425 . S
C6440 C6447 1.409 . S
C6441 H6433 0.930 . S
C6441 C6439 1.419 . S
C6441 C6442 1.362 . S
C6442 H6434 0.930 . S
C6442 C6441 1.362 . S
C6442 C6445 1.409 . S
C6443 H6435 0.930 . S
C6443 C6444 1.355 . S
C6443 C6445 1.415 . S
C6444 C6443 1.355 . S
C6444 C6446 1.419 . S
C6445 C6440 1.425 . S
C6445 C6442 1.409 . S
C6445 C6443 1.415 . S
C6446 H6436 0.930 . S
C6446 C6444 1.419 . S
C6446 C6447 1.362 . S
C6447 H6437 0.930 . S
C6447 C6440 1.409 . S
C6447 C6446 1.362 . S
H6448 C6454 0.930 . S
H6449 C6457 0.930 . S
H6450 C6458 0.930 . S
H6451 C6459 0.930 . S
H6452 C6462 0.930 . S
H6453 C6463 0.930 . S
C6454 H6448 0.930 . S
C6454 C6455 1.355 . S
C6454 C6456 1.415 . S
C6455 C6454 1.355 . S
C6455 C6457 1.419 . S
C6456 C6454 1.415 . S
C6456 C6461 1.425 . S
C6456 C6463 1.409 . S
C6457 H6449 0.930 . S
C6457 C6455 1.419 . S
C6457 C6458 1.362 . S
C6458 H6450 0.930 . S
C6458 C6457 1.362 . S
C6458 C6461 1.409 . S
C6459 H6451 0.930 . S
C6459 C6460 1.355 . S
C6459 C6461 1.415 . S
C6460 C6459 1.355 . S
C6460 C6462 1.419 . S
C6461 C6456 1.425 . S
C6461 C6458 1.409 . S
C6461 C6459 1.415 . S
C6462 H6452 0.930 . S
C6462 C6460 1.419 . S
C6462 C6463 1.362 . S
C6463 H6453 0.930 . S
C6463 C6456 1.409 . S
C6463 C6462 1.362 . S
H6464 C6470 0.930 . S
H6465 C6473 0.930 . S
H6466 C6474 0.930 . S
H6467 C6475 0.930 . S
H6468 C6478 0.930 . S
H6469 C6479 0.930 . S
C6470 H6464 0.930 . S
C6470 C6471 1.355 . S
C6470 C6472 1.415 . S
C6471 C6470 1.355 . S
C6471 C6473 1.419 . S
C6472 C6470 1.415 . S
C6472 C6477 1.425 . S
C6472 C6479 1.409 . S
C6473 H6465 0.930 . S
C6473 C6471 1.419 . S
C6473 C6474 1.362 . S
C6474 H6466 0.930 . S
C6474 C6473 1.362 . S
C6474 C6477 1.409 . S
C6475 H6467 0.930 . S
C6475 C6476 1.355 . S
C6475 C6477 1.415 . S
C6476 C6475 1.355 . S
C6476 C6478 1.419 . S
C6477 C6472 1.425 . S
C6477 C6474 1.409 . S
C6477 C6475 1.415 . S
C6478 H6468 0.930 . S
C6478 C6476 1.419 . S
C6478 C6479 1.362 . S
C6479 H6469 0.930 . S
C6479 C6472 1.409 . S
C6479 C6478 1.362 . S
H6480 C6486 0.930 . S
H6481 C6489 0.930 . S
H6482 C6490 0.930 . S
H6483 C6491 0.930 . S
H6484 C6494 0.930 . S
H6485 C6495 0.930 . S
C6486 H6480 0.930 . S
C6486 C6487 1.355 . S
C6486 C6488 1.415 . S
C6487 C6486 1.355 . S
C6487 C6489 1.419 . S
C6488 C6486 1.415 . S
C6488 C6493 1.425 . S
C6488 C6495 1.409 . S
C6489 H6481 0.930 . S
C6489 C6487 1.419 . S
C6489 C6490 1.362 . S
C6490 H6482 0.930 . S
C6490 C6489 1.362 . S
C6490 C6493 1.409 . S
C6491 H6483 0.930 . S
C6491 C6492 1.355 . S
C6491 C6493 1.415 . S
C6492 C6491 1.355 . S
C6492 C6494 1.419 . S
C6493 C6488 1.425 . S
C6493 C6490 1.409 . S
C6493 C6491 1.415 . S
C6494 H6484 0.930 . S
C6494 C6492 1.419 . S
C6494 C6495 1.362 . S
C6495 H6485 0.930 . S
C6495 C6488 1.409 . S
C6495 C6494 1.362 . S
H6496 C6502 0.930 . S
H6497 C6505 0.930 . S
H6498 C6506 0.930 . S
H6499 C6507 0.930 . S
H6500 C6510 0.930 . S
H6501 C6511 0.930 . S
C6502 H6496 0.930 . S
C6502 C6503 1.355 . S
C6502 C6504 1.415 . S
C6503 C6502 1.355 . S
C6503 C6505 1.419 . S
C6504 C6502 1.415 . S
C6504 C6509 1.425 . S
C6504 C6511 1.409 . S
C6505 H6497 0.930 . S
C6505 C6503 1.419 . S
C6505 C6506 1.362 . S
C6506 H6498 0.930 . S
C6506 C6505 1.362 . S
C6506 C6509 1.409 . S
C6507 H6499 0.930 . S
C6507 C6508 1.355 . S
C6507 C6509 1.415 . S
C6508 C6507 1.355 . S
C6508 C6510 1.419 . S
C6509 C6504 1.425 . S
C6509 C6506 1.409 . S
C6509 C6507 1.415 . S
C6510 H6500 0.930 . S
C6510 C6508 1.419 . S
C6510 C6511 1.362 . S
C6511 H6501 0.930 . S
C6511 C6504 1.409 . S
C6511 C6510 1.362 . S
H6512 C6518 0.930 . S
H6513 C6521 0.930 . S
H6514 C6522 0.930 . S
H6515 C6523 0.930 . S
H6516 C6526 0.930 . S
H6517 C6527 0.930 . S
C6518 H6512 0.930 . S
C6518 C6519 1.355 . S
C6518 C6520 1.415 . S
C6519 C6518 1.355 . S
C6519 C6521 1.419 . S
C6520 C6518 1.415 . S
C6520 C6525 1.425 . S
C6520 C6527 1.409 . S
C6521 H6513 0.930 . S
C6521 C6519 1.419 . S
C6521 C6522 1.362 . S
C6522 H6514 0.930 . S
C6522 C6521 1.362 . S
C6522 C6525 1.409 . S
C6523 H6515 0.930 . S
C6523 C6524 1.355 . S
C6523 C6525 1.415 . S
C6524 C6523 1.355 . S
C6524 C6526 1.419 . S
C6525 C6520 1.425 . S
C6525 C6522 1.409 . S
C6525 C6523 1.415 . S
C6526 H6516 0.930 . S
C6526 C6524 1.419 . S
C6526 C6527 1.362 . S
C6527 H6517 0.930 . S
C6527 C6520 1.409 . S
C6527 C6526 1.362 . S
H6528 C6534 0.930 . S
H6529 C6537 0.930 . S
H6530 C6538 0.930 . S
H6531 C6539 0.930 . S
H6532 C6542 0.930 . S
H6533 C6543 0.930 . S
C6534 H6528 0.930 . S
C6534 C6535 1.355 . S
C6534 C6536 1.415 . S
C6535 C6534 1.355 . S
C6535 C6537 1.419 . S
C6536 C6534 1.415 . S
C6536 C6541 1.425 . S
C6536 C6543 1.409 . S
C6537 H6529 0.930 . S
C6537 C6535 1.419 . S
C6537 C6538 1.362 . S
C6538 H6530 0.930 . S
C6538 C6537 1.362 . S
C6538 C6541 1.409 . S
C6539 H6531 0.930 . S
C6539 C6540 1.355 . S
C6539 C6541 1.415 . S
C6540 C6539 1.355 . S
C6540 C6542 1.419 . S
C6541 C6536 1.425 . S
C6541 C6538 1.409 . S
C6541 C6539 1.415 . S
C6542 H6532 0.930 . S
C6542 C6540 1.419 . S
C6542 C6543 1.362 . S
C6543 H6533 0.930 . S
C6543 C6536 1.409 . S
C6543 C6542 1.362 . S
H6544 C6550 0.930 . S
H6545 C6553 0.930 . S
H6546 C6554 0.930 . S
H6547 C6555 0.930 . S
H6548 C6558 0.930 . S
H6549 C6559 0.930 . S
C6550 H6544 0.930 . S
C6550 C6551 1.355 . S
C6550 C6552 1.415 . S
C6551 C6550 1.355 . S
C6551 C6553 1.419 . S
C6552 C6550 1.415 . S
C6552 C6557 1.425 . S
C6552 C6559 1.409 . S
C6553 H6545 0.930 . S
C6553 C6551 1.419 . S
C6553 C6554 1.362 . S
C6554 H6546 0.930 . S
C6554 C6553 1.362 . S
C6554 C6557 1.409 . S
C6555 H6547 0.930 . S
C6555 C6556 1.355 . S
C6555 C6557 1.415 . S
C6556 C6555 1.355 . S
C6556 C6558 1.419 . S
C6557 C6552 1.425 . S
C6557 C6554 1.409 . S
C6557 C6555 1.415 . S
C6558 H6548 0.930 . S
C6558 C6556 1.419 . S
C6558 C6559 1.362 . S
C6559 H6549 0.930 . S
C6559 C6552 1.409 . S
C6559 C6558 1.362 . S
H6560 C6566 0.930 1_556 S
H6561 C6569 0.930 . S
H6562 C6570 0.930 . S
H6563 C6571 0.930 . S
H6564 C6574 0.930 . S
H6565 C6575 0.930 . S
C6566 H6560 0.930 1_554 S
C6566 C6567 1.355 . S
C6566 C6568 1.415 . S
C6567 C6566 1.355 . S
C6567 C6569 1.419 . S
C6568 C6566 1.415 . S
C6568 C6573 1.425 . S
C6568 C6575 1.409 . S
C6569 H6561 0.930 . S
C6569 C6567 1.419 . S
C6569 C6570 1.362 . S
C6570 H6562 0.930 . S
C6570 C6569 1.362 . S
C6570 C6573 1.409 . S
C6571 H6563 0.930 . S
C6571 C6572 1.355 . S
C6571 C6573 1.415 . S
C6572 C6571 1.355 . S
C6572 C6574 1.419 . S
C6573 C6568 1.425 . S
C6573 C6570 1.409 . S
C6573 C6571 1.415 . S
C6574 H6564 0.930 . S
C6574 C6572 1.419 . S
C6574 C6575 1.362 . S
C6575 H6565 0.930 . S
C6575 C6568 1.409 . S
C6575 C6574 1.362 . S
H6576 C6582 0.930 . S
H6577 C6585 0.930 . S
H6578 C6586 0.930 . S
H6579 C6587 0.930 . S
H6580 C6590 0.930 . S
H6581 C6591 0.930 . S
C6582 H6576 0.930 . S
C6582 C6583 1.355 . S
C6582 C6584 1.415 . S
C6583 C6582 1.355 . S
C6583 C6585 1.419 . S
C6584 C6582 1.415 . S
C6584 C6589 1.425 . S
C6584 C6591 1.409 . S
C6585 H6577 0.930 . S
C6585 C6583 1.419 . S
C6585 C6586 1.362 . S
C6586 H6578 0.930 . S
C6586 C6585 1.362 . S
C6586 C6589 1.409 . S
C6587 H6579 0.930 . S
C6587 C6588 1.355 . S
C6587 C6589 1.415 . S
C6588 C6587 1.355 . S
C6588 C6590 1.419 . S
C6589 C6584 1.425 . S
C6589 C6586 1.409 . S
C6589 C6587 1.415 . S
C6590 H6580 0.930 . S
C6590 C6588 1.419 . S
C6590 C6591 1.362 . S
C6591 H6581 0.930 . S
C6591 C6584 1.409 . S
C6591 C6590 1.362 . S
H6592 C6598 0.930 . S
H6593 C6601 0.930 . S
H6594 C6602 0.930 . S
H6595 C6603 0.930 . S
H6596 C6606 0.930 . S
H6597 C6607 0.930 . S
C6598 H6592 0.930 . S
C6598 C6599 1.355 . S
C6598 C6600 1.415 . S
C6599 C6598 1.355 . S
C6599 C6601 1.419 . S
C6600 C6598 1.415 . S
C6600 C6605 1.425 . S
C6600 C6607 1.409 . S
C6601 H6593 0.930 . S
C6601 C6599 1.419 . S
C6601 C6602 1.362 . S
C6602 H6594 0.930 . S
C6602 C6601 1.362 . S
C6602 C6605 1.409 . S
C6603 H6595 0.930 . S
C6603 C6604 1.355 . S
C6603 C6605 1.415 . S
C6604 C6603 1.355 . S
C6604 C6606 1.419 . S
C6605 C6600 1.425 . S
C6605 C6602 1.409 . S
C6605 C6603 1.415 . S
C6606 H6596 0.930 . S
C6606 C6604 1.419 . S
C6606 C6607 1.362 . S
C6607 H6597 0.930 . S
C6607 C6600 1.409 . S
C6607 C6606 1.362 . S
H6608 C6614 0.930 . S
H6609 C6617 0.930 . S
H6610 C6618 0.930 . S
H6611 C6619 0.930 . S
H6612 C6622 0.930 . S
H6613 C6623 0.930 . S
C6614 H6608 0.930 . S
C6614 C6615 1.355 . S
C6614 C6616 1.415 . S
C6615 C6614 1.355 . S
C6615 C6617 1.419 . S
C6616 C6614 1.415 . S
C6616 C6621 1.425 . S
C6616 C6623 1.409 . S
C6617 H6609 0.930 . S
C6617 C6615 1.419 . S
C6617 C6618 1.362 . S
C6618 H6610 0.930 . S
C6618 C6617 1.362 . S
C6618 C6621 1.409 . S
C6619 H6611 0.930 . S
C6619 C6620 1.355 . S
C6619 C6621 1.415 . S
C6620 C6619 1.355 . S
C6620 C6622 1.419 . S
C6621 C6616 1.425 . S
C6621 C6618 1.409 . S
C6621 C6619 1.415 . S
C6622 H6612 0.930 . S
C6622 C6620 1.419 . S
C6622 C6623 1.362 . S
C6623 H6613 0.930 . S
C6623 C6616 1.409 . S
C6623 C6622 1.362 . S
H6624 C6630 0.930 . S
H6625 C6633 0.930 . S
H6626 C6634 0.930 . S
H6627 C6635 0.930 . S
H6628 C6638 0.930 . S
H6629 C6639 0.930 . S
C6630 H6624 0.930 . S
C6630 C6631 1.355 . S
C6630 C6632 1.415 . S
C6631 C6630 1.355 . S
C6631 C6633 1.419 . S
C6632 C6630 1.415 . S
C6632 C6637 1.425 . S
C6632 C6639 1.409 . S
C6633 H6625 0.930 . S
C6633 C6631 1.419 . S
C6633 C6634 1.362 . S
C6634 H6626 0.930 . S
C6634 C6633 1.362 . S
C6634 C6637 1.409 . S
C6635 H6627 0.930 . S
C6635 C6636 1.355 . S
C6635 C6637 1.415 . S
C6636 C6635 1.355 . S
C6636 C6638 1.419 . S
C6637 C6632 1.425 . S
C6637 C6634 1.409 . S
C6637 C6635 1.415 . S
C6638 H6628 0.930 . S
C6638 C6636 1.419 . S
C6638 C6639 1.362 . S
C6639 H6629 0.930 . S
C6639 C6632 1.409 . S
C6639 C6638 1.362 . S
H6640 C6646 0.930 . S
H6641 C6649 0.930 . S
H6642 C6650 0.930 . S
H6643 C6651 0.930 . S
H6644 C6654 0.930 . S
H6645 C6655 0.930 . S
C6646 H6640 0.930 . S
C6646 C6647 1.355 . S
C6646 C6648 1.415 . S
C6647 C6646 1.355 . S
C6647 C6649 1.419 . S
C6648 C6646 1.415 . S
C6648 C6653 1.425 . S
C6648 C6655 1.409 . S
C6649 H6641 0.930 . S
C6649 C6647 1.419 . S
C6649 C6650 1.362 . S
C6650 H6642 0.930 . S
C6650 C6649 1.362 . S
C6650 C6653 1.409 . S
C6651 H6643 0.930 . S
C6651 C6652 1.355 . S
C6651 C6653 1.415 . S
C6652 C6651 1.355 . S
C6652 C6654 1.419 . S
C6653 C6648 1.425 . S
C6653 C6650 1.409 . S
C6653 C6651 1.415 . S
C6654 H6644 0.930 . S
C6654 C6652 1.419 . S
C6654 C6655 1.362 . S
C6655 H6645 0.930 . S
C6655 C6648 1.409 . S
C6655 C6654 1.362 . S
H6656 C6662 0.930 . S
H6657 C6665 0.930 . S
H6658 C6666 0.930 . S
H6659 C6667 0.930 . S
H6660 C6670 0.930 . S
H6661 C6671 0.930 . S
C6662 H6656 0.930 . S
C6662 C6663 1.355 . S
C6662 C6664 1.415 . S
C6663 C6662 1.355 . S
C6663 C6665 1.419 . S
C6664 C6662 1.415 . S
C6664 C6669 1.425 . S
C6664 C6671 1.409 . S
C6665 H6657 0.930 . S
C6665 C6663 1.419 . S
C6665 C6666 1.362 . S
C6666 H6658 0.930 . S
C6666 C6665 1.362 . S
C6666 C6669 1.409 . S
C6667 H6659 0.930 . S
C6667 C6668 1.355 . S
C6667 C6669 1.415 . S
C6668 C6667 1.355 . S
C6668 C6670 1.419 . S
C6669 C6664 1.425 . S
C6669 C6666 1.409 . S
C6669 C6667 1.415 . S
C6670 H6660 0.930 . S
C6670 C6668 1.419 . S
C6670 C6671 1.362 . S
C6671 H6661 0.930 . S
C6671 C6664 1.409 . S
C6671 C6670 1.362 . S
H6672 C6678 0.930 . S
H6673 C6681 0.930 . S
H6674 C6682 0.930 . S
H6675 C6683 0.930 . S
H6676 C6686 0.930 . S
H6677 C6687 0.930 . S
C6678 H6672 0.930 . S
C6678 C6679 1.355 . S
C6678 C6680 1.415 . S
C6679 C6678 1.355 . S
C6679 C6681 1.419 . S
C6680 C6678 1.415 . S
C6680 C6685 1.425 . S
C6680 C6687 1.409 . S
C6681 H6673 0.930 . S
C6681 C6679 1.419 . S
C6681 C6682 1.362 . S
C6682 H6674 0.930 . S
C6682 C6681 1.362 . S
C6682 C6685 1.409 . S
C6683 H6675 0.930 . S
C6683 C6684 1.355 . S
C6683 C6685 1.415 . S
C6684 C6683 1.355 . S
C6684 C6686 1.419 . S
C6685 C6680 1.425 . S
C6685 C6682 1.409 . S
C6685 C6683 1.415 . S
C6686 H6676 0.930 . S
C6686 C6684 1.419 . S
C6686 C6687 1.362 . S
C6687 H6677 0.930 . S
C6687 C6680 1.409 . S
C6687 C6686 1.362 . S
H6688 C6694 0.930 . S
H6689 C6697 0.930 . S
H6690 C6698 0.930 . S
H6691 C6699 0.930 . S
H6692 C6702 0.930 . S
H6693 C6703 0.930 . S
C6694 H6688 0.930 . S
C6694 C6695 1.355 . S
C6694 C6696 1.415 . S
C6695 C6694 1.355 . S
C6695 C6697 1.419 . S
C6696 C6694 1.415 . S
C6696 C6701 1.425 . S
C6696 C6703 1.409 . S
C6697 H6689 0.930 . S
C6697 C6695 1.419 . S
C6697 C6698 1.362 . S
C6698 H6690 0.930 . S
C6698 C6697 1.362 . S
C6698 C6701 1.409 . S
C6699 H6691 0.930 . S
C6699 C6700 1.355 . S
C6699 C6701 1.415 . S
C6700 C6699 1.355 . S
C6700 C6702 1.419 . S
C6701 C6696 1.425 . S
C6701 C6698 1.409 . S
C6701 C6699 1.415 . S
C6702 H6692 0.930 . S
C6702 C6700 1.419 . S
C6702 C6703 1.362 . S
C6703 H6693 0.930 . S
C6703 C6696 1.409 . S
C6703 C6702 1.362 . S
H6704 C6710 0.930 . S
H6705 C6713 0.930 . S
H6706 C6714 0.930 . S
H6707 C6715 0.930 . S
H6708 C6718 0.930 . S
H6709 C6719 0.930 . S
C6710 H6704 0.930 . S
C6710 C6711 1.355 . S
C6710 C6712 1.415 . S
C6711 C6710 1.355 . S
C6711 C6713 1.419 . S
C6712 C6710 1.415 . S
C6712 C6717 1.425 . S
C6712 C6719 1.409 . S
C6713 H6705 0.930 . S
C6713 C6711 1.419 . S
C6713 C6714 1.362 . S
C6714 H6706 0.930 . S
C6714 C6713 1.362 . S
C6714 C6717 1.409 . S
C6715 H6707 0.930 . S
C6715 C6716 1.355 . S
C6715 C6717 1.415 . S
C6716 C6715 1.355 . S
C6716 C6718 1.419 . S
C6717 C6712 1.425 . S
C6717 C6714 1.409 . S
C6717 C6715 1.415 . S
C6718 H6708 0.930 . S
C6718 C6716 1.419 . S
C6718 C6719 1.362 . S
C6719 H6709 0.930 . S
C6719 C6712 1.409 . S
C6719 C6718 1.362 . S
H6720 C6726 0.930 . S
H6721 C6729 0.930 . S
H6722 C6730 0.930 . S
H6723 C6731 0.930 . S
H6724 C6734 0.930 . S
H6725 C6735 0.930 . S
C6726 H6720 0.930 . S
C6726 C6727 1.355 . S
C6726 C6728 1.415 . S
C6727 C6726 1.355 . S
C6727 C6729 1.419 . S
C6728 C6726 1.415 . S
C6728 C6733 1.425 . S
C6728 C6735 1.409 . S
C6729 H6721 0.930 . S
C6729 C6727 1.419 . S
C6729 C6730 1.362 . S
C6730 H6722 0.930 . S
C6730 C6729 1.362 . S
C6730 C6733 1.409 . S
C6731 H6723 0.930 . S
C6731 C6732 1.355 . S
C6731 C6733 1.415 . S
C6732 C6731 1.355 . S
C6732 C6734 1.419 . S
C6733 C6728 1.425 . S
C6733 C6730 1.409 . S
C6733 C6731 1.415 . S
C6734 H6724 0.930 . S
C6734 C6732 1.419 . S
C6734 C6735 1.362 . S
C6735 H6725 0.930 . S
C6735 C6728 1.409 . S
C6735 C6734 1.362 . S
H6736 C6742 0.930 . S
H6737 C6745 0.930 . S
H6738 C6746 0.930 . S
H6739 C6747 0.930 . S
H6740 C6750 0.930 . S
H6741 C6751 0.930 . S
C6742 H6736 0.930 . S
C6742 C6743 1.355 . S
C6742 C6744 1.415 . S
C6743 C6742 1.355 . S
C6743 C6745 1.419 . S
C6744 C6742 1.415 . S
C6744 C6749 1.425 . S
C6744 C6751 1.409 . S
C6745 H6737 0.930 . S
C6745 C6743 1.419 . S
C6745 C6746 1.362 . S
C6746 H6738 0.930 . S
C6746 C6745 1.362 . S
C6746 C6749 1.409 . S
C6747 H6739 0.930 . S
C6747 C6748 1.355 . S
C6747 C6749 1.415 . S
C6748 C6747 1.355 . S
C6748 C6750 1.419 . S
C6749 C6744 1.425 . S
C6749 C6746 1.409 . S
C6749 C6747 1.415 . S
C6750 H6740 0.930 . S
C6750 C6748 1.419 . S
C6750 C6751 1.362 . S
C6751 H6741 0.930 . S
C6751 C6744 1.409 . S
C6751 C6750 1.362 . S
H6752 C6758 0.930 . S
H6753 C6761 0.930 . S
H6754 C6762 0.930 . S
H6755 C6763 0.930 . S
H6756 C6766 0.930 . S
H6757 C6767 0.930 . S
C6758 H6752 0.930 . S
C6758 C6759 1.355 . S
C6758 C6760 1.415 . S
C6759 C6758 1.355 . S
C6759 C6761 1.419 . S
C6760 C6758 1.415 . S
C6760 C6765 1.425 . S
C6760 C6767 1.409 . S
C6761 H6753 0.930 . S
C6761 C6759 1.419 . S
C6761 C6762 1.362 . S
C6762 H6754 0.930 . S
C6762 C6761 1.362 . S
C6762 C6765 1.409 . S
C6763 H6755 0.930 . S
C6763 C6764 1.355 . S
C6763 C6765 1.415 . S
C6764 C6763 1.355 . S
C6764 C6766 1.419 . S
C6765 C6760 1.425 . S
C6765 C6762 1.409 . S
C6765 C6763 1.415 . S
C6766 H6756 0.930 . S
C6766 C6764 1.419 . S
C6766 C6767 1.362 . S
C6767 H6757 0.930 . S
C6767 C6760 1.409 . S
C6767 C6766 1.362 . S
H6768 C6774 0.930 . S
H6769 C6777 0.930 . S
H6770 C6778 0.930 . S
H6771 C6779 0.930 . S
H6772 C6782 0.930 . S
H6773 C6783 0.930 . S
C6774 H6768 0.930 . S
C6774 C6775 1.355 . S
C6774 C6776 1.415 . S
C6775 C6774 1.355 . S
C6775 C6777 1.419 . S
C6776 C6774 1.415 . S
C6776 C6781 1.425 . S
C6776 C6783 1.409 . S
C6777 H6769 0.930 . S
C6777 C6775 1.419 . S
C6777 C6778 1.362 . S
C6778 H6770 0.930 . S
C6778 C6777 1.362 . S
C6778 C6781 1.409 . S
C6779 H6771 0.930 . S
C6779 C6780 1.355 . S
C6779 C6781 1.415 . S
C6780 C6779 1.355 . S
C6780 C6782 1.419 . S
C6781 C6776 1.425 . S
C6781 C6778 1.409 . S
C6781 C6779 1.415 . S
C6782 H6772 0.930 . S
C6782 C6780 1.419 . S
C6782 C6783 1.362 . S
C6783 H6773 0.930 . S
C6783 C6776 1.409 . S
C6783 C6782 1.362 . S
H6784 C6790 0.930 . S
H6785 C6793 0.930 . S
H6786 C6794 0.930 . S
H6787 C6795 0.930 . S
H6788 C6798 0.930 . S
H6789 C6799 0.930 . S
C6790 H6784 0.930 . S
C6790 C6791 1.355 . S
C6790 C6792 1.415 . S
C6791 C6790 1.355 . S
C6791 C6793 1.419 . S
C6792 C6790 1.415 . S
C6792 C6797 1.425 . S
C6792 C6799 1.409 . S
C6793 H6785 0.930 . S
C6793 C6791 1.419 . S
C6793 C6794 1.362 . S
C6794 H6786 0.930 . S
C6794 C6793 1.362 . S
C6794 C6797 1.409 . S
C6795 H6787 0.930 . S
C6795 C6796 1.355 . S
C6795 C6797 1.415 . S
C6796 C6795 1.355 . S
C6796 C6798 1.419 . S
C6797 C6792 1.425 . S
C6797 C6794 1.409 . S
C6797 C6795 1.415 . S
C6798 H6788 0.930 . S
C6798 C6796 1.419 . S
C6798 C6799 1.362 . S
C6799 H6789 0.930 . S
C6799 C6792 1.409 . S
C6799 C6798 1.362 . S
H6800 C6806 0.930 . S
H6801 C6809 0.930 . S
H6802 C6810 0.930 . S
H6803 C6811 0.928 1_545 S
H6804 C6814 0.930 . S
H6805 C6815 0.930 . S
C6806 H6800 0.930 . S
C6806 C6807 1.355 . S
C6806 C6808 1.415 . S
C6807 C6806 1.355 . S
C6807 C6809 1.419 . S
C6808 C6806 1.415 . S
C6808 C6813 1.425 . S
C6808 C6815 1.409 . S
C6809 H6801 0.930 . S
C6809 C6807 1.419 . S
C6809 C6810 1.362 . S
C6810 H6802 0.930 . S
C6810 C6809 1.362 . S
C6810 C6813 1.409 . S
C6811 H6803 0.928 1_565 S
C6811 C6812 1.352 1_565 S
C6811 C6813 1.419 . S
C6812 C6811 1.352 1_545 S
C6812 C6814 1.419 . S
C6813 C6808 1.425 . S
C6813 C6810 1.409 . S
C6813 C6811 1.419 . S
C6814 H6804 0.930 . S
C6814 C6812 1.419 . S
C6814 C6815 1.362 1_545 S
C6815 H6805 0.930 . S
C6815 C6808 1.409 . S
C6815 C6814 1.362 1_565 S
H6816 C6822 0.930 . S
H6817 C6825 0.930 . S
H6818 C6826 0.930 . S
H6819 C6827 0.930 . S
H6820 C6830 0.930 . S
H6821 C6831 0.930 . S
C6822 H6816 0.930 . S
C6822 C6823 1.355 . S
C6822 C6824 1.415 . S
C6823 C6822 1.355 . S
C6823 C6825 1.419 . S
C6824 C6822 1.415 . S
C6824 C6829 1.425 . S
C6824 C6831 1.409 . S
C6825 H6817 0.930 . S
C6825 C6823 1.419 . S
C6825 C6826 1.362 . S
C6826 H6818 0.930 . S
C6826 C6825 1.362 . S
C6826 C6829 1.409 . S
C6827 H6819 0.930 . S
C6827 C6828 1.355 . S
C6827 C6829 1.415 . S
C6828 C6827 1.355 . S
C6828 C6830 1.419 . S
C6829 C6824 1.425 . S
C6829 C6826 1.409 . S
C6829 C6827 1.415 . S
C6830 H6820 0.930 . S
C6830 C6828 1.419 . S
C6830 C6831 1.362 . S
C6831 H6821 0.930 . S
C6831 C6824 1.409 . S
C6831 C6830 1.362 . S
H6832 C6838 0.930 . S
H6833 C6841 0.930 . S
H6834 C6842 0.930 . S
H6835 C6843 0.930 . S
H6836 C6846 0.930 . S
H6837 C6847 0.930 . S
C6838 H6832 0.930 . S
C6838 C6839 1.355 . S
C6838 C6840 1.415 . S
C6839 C6838 1.355 . S
C6839 C6841 1.419 . S
C6840 C6838 1.415 . S
C6840 C6845 1.425 . S
C6840 C6847 1.409 . S
C6841 H6833 0.930 . S
C6841 C6839 1.419 . S
C6841 C6842 1.362 . S
C6842 H6834 0.930 . S
C6842 C6841 1.362 . S
C6842 C6845 1.409 . S
C6843 H6835 0.930 . S
C6843 C6844 1.355 . S
C6843 C6845 1.415 . S
C6844 C6843 1.355 . S
C6844 C6846 1.419 . S
C6845 C6840 1.425 . S
C6845 C6842 1.409 . S
C6845 C6843 1.415 . S
C6846 H6836 0.930 . S
C6846 C6844 1.419 . S
C6846 C6847 1.362 . S
C6847 H6837 0.930 . S
C6847 C6840 1.409 . S
C6847 C6846 1.362 . S
H6848 C6854 0.930 . S
H6849 C6857 0.930 . S
H6850 C6858 0.930 . S
H6851 C6859 0.930 . S
H6852 C6862 0.930 . S
H6853 C6863 0.930 . S
C6854 H6848 0.930 . S
C6854 C6855 1.355 . S
C6854 C6856 1.415 . S
C6855 C6854 1.355 . S
C6855 C6857 1.419 . S
C6856 C6854 1.415 . S
C6856 C6861 1.425 . S
C6856 C6863 1.409 . S
C6857 H6849 0.930 . S
C6857 C6855 1.419 . S
C6857 C6858 1.362 . S
C6858 H6850 0.930 . S
C6858 C6857 1.362 . S
C6858 C6861 1.409 . S
C6859 H6851 0.930 . S
C6859 C6860 1.355 . S
C6859 C6861 1.415 . S
C6860 C6859 1.355 . S
C6860 C6862 1.419 . S
C6861 C6856 1.425 . S
C6861 C6858 1.409 . S
C6861 C6859 1.415 . S
C6862 H6852 0.930 . S
C6862 C6860 1.419 . S
C6862 C6863 1.362 . S
C6863 H6853 0.930 . S
C6863 C6856 1.409 . S
C6863 C6862 1.362 . S
H6864 C6870 0.930 . S
H6865 C6873 0.930 . S
H6866 C6874 0.930 . S
H6867 C6875 0.930 . S
H6868 C6878 0.930 . S
H6869 C6879 0.930 . S
C6870 H6864 0.930 . S
C6870 C6871 1.355 . S
C6870 C6872 1.415 . S
C6871 C6870 1.355 . S
C6871 C6873 1.419 . S
C6872 C6870 1.415 . S
C6872 C6877 1.425 . S
C6872 C6879 1.409 . S
C6873 H6865 0.930 . S
C6873 C6871 1.419 . S
C6873 C6874 1.362 . S
C6874 H6866 0.930 . S
C6874 C6873 1.362 . S
C6874 C6877 1.409 . S
C6875 H6867 0.930 . S
C6875 C6876 1.355 . S
C6875 C6877 1.415 . S
C6876 C6875 1.355 . S
C6876 C6878 1.419 . S
C6877 C6872 1.425 . S
C6877 C6874 1.409 . S
C6877 C6875 1.415 . S
C6878 H6868 0.930 . S
C6878 C6876 1.419 . S
C6878 C6879 1.362 . S
C6879 H6869 0.930 . S
C6879 C6872 1.409 . S
C6879 C6878 1.362 . S
H6880 C6886 0.930 . S
H6881 C6889 0.930 . S
H6882 C6890 0.930 . S
H6883 C6891 0.930 . S
H6884 C6894 0.930 . S
H6885 C6895 0.930 . S
C6886 H6880 0.930 . S
C6886 C6887 1.355 . S
C6886 C6888 1.415 . S
C6887 C6886 1.355 . S
C6887 C6889 1.419 . S
C6888 C6886 1.415 . S
C6888 C6893 1.425 . S
C6888 C6895 1.409 . S
C6889 H6881 0.930 . S
C6889 C6887 1.419 . S
C6889 C6890 1.362 . S
C6890 H6882 0.930 . S
C6890 C6889 1.362 . S
C6890 C6893 1.409 . S
C6891 H6883 0.930 . S
C6891 C6892 1.355 . S
C6891 C6893 1.415 . S
C6892 C6891 1.355 . S
C6892 C6894 1.419 . S
C6893 C6888 1.425 . S
C6893 C6890 1.409 . S
C6893 C6891 1.415 . S
C6894 H6884 0.930 . S
C6894 C6892 1.419 . S
C6894 C6895 1.362 . S
C6895 H6885 0.930 . S
C6895 C6888 1.409 . S
C6895 C6894 1.362 . S
H6896 C6902 0.930 . S
H6897 C6905 0.930 . S
H6898 C6906 0.930 . S
H6899 C6907 0.930 . S
H6900 C6910 0.930 . S
H6901 C6911 0.930 . S
C6902 H6896 0.930 . S
C6902 C6903 1.355 . S
C6902 C6904 1.415 . S
C6903 C6902 1.355 . S
C6903 C6905 1.419 . S
C6904 C6902 1.415 . S
C6904 C6909 1.425 . S
C6904 C6911 1.409 . S
C6905 H6897 0.930 . S
C6905 C6903 1.419 . S
C6905 C6906 1.362 . S
C6906 H6898 0.930 . S
C6906 C6905 1.362 . S
C6906 C6909 1.409 . S
C6907 H6899 0.930 . S
C6907 C6908 1.355 . S
C6907 C6909 1.415 . S
C6908 C6907 1.355 . S
C6908 C6910 1.419 . S
C6909 C6904 1.425 . S
C6909 C6906 1.409 . S
C6909 C6907 1.415 . S
C6910 H6900 0.930 . S
C6910 C6908 1.419 . S
C6910 C6911 1.362 . S
C6911 H6901 0.930 . S
C6911 C6904 1.409 . S
C6911 C6910 1.362 . S
H6912 C6918 0.930 . S
H6913 C6921 0.930 . S
H6914 C6922 0.930 . S
H6915 C6923 0.930 . S
H6916 C6926 0.930 . S
H6917 C6927 0.930 . S
C6918 H6912 0.930 . S
C6918 C6919 1.355 . S
C6918 C6920 1.415 . S
C6919 C6918 1.355 . S
C6919 C6921 1.419 . S
C6920 C6918 1.415 . S
C6920 C6925 1.425 . S
C6920 C6927 1.409 . S
C6921 H6913 0.930 . S
C6921 C6919 1.419 . S
C6921 C6922 1.362 . S
C6922 H6914 0.930 . S
C6922 C6921 1.362 . S
C6922 C6925 1.409 . S
C6923 H6915 0.930 . S
C6923 C6924 1.355 . S
C6923 C6925 1.415 . S
C6924 C6923 1.355 . S
C6924 C6926 1.419 . S
C6925 C6920 1.425 . S
C6925 C6922 1.409 . S
C6925 C6923 1.415 . S
C6926 H6916 0.930 . S
C6926 C6924 1.419 . S
C6926 C6927 1.362 . S
C6927 H6917 0.930 . S
C6927 C6920 1.409 . S
C6927 C6926 1.362 . S
H6928 C6934 0.930 . S
H6929 C6937 0.930 . S
H6930 C6938 0.930 . S
H6931 C6939 0.930 . S
H6932 C6942 0.930 . S
H6933 C6943 0.930 . S
C6934 H6928 0.930 . S
C6934 C6935 1.355 . S
C6934 C6936 1.415 . S
C6935 C6934 1.355 . S
C6935 C6937 1.419 . S
C6936 C6934 1.415 . S
C6936 C6941 1.425 . S
C6936 C6943 1.409 . S
C6937 H6929 0.930 . S
C6937 C6935 1.419 . S
C6937 C6938 1.362 . S
C6938 H6930 0.930 . S
C6938 C6937 1.362 . S
C6938 C6941 1.409 . S
C6939 H6931 0.930 . S
C6939 C6940 1.355 . S
C6939 C6941 1.415 . S
C6940 C6939 1.355 . S
C6940 C6942 1.419 . S
C6941 C6936 1.425 . S
C6941 C6938 1.409 . S
C6941 C6939 1.415 . S
C6942 H6932 0.930 . S
C6942 C6940 1.419 . S
C6942 C6943 1.362 . S
C6943 H6933 0.930 . S
C6943 C6936 1.409 . S
C6943 C6942 1.362 . S
H6944 C6950 0.930 . S
H6945 C6953 0.930 . S
H6946 C6954 0.930 . S
H6947 C6955 0.930 . S
H6948 C6958 0.930 . S
H6949 C6959 0.930 . S
C6950 H6944 0.930 . S
C6950 C6951 1.355 . S
C6950 C6952 1.415 . S
C6951 C6950 1.355 . S
C6951 C6953 1.419 . S
C6952 C6950 1.415 . S
C6952 C6957 1.425 . S
C6952 C6959 1.409 . S
C6953 H6945 0.930 . S
C6953 C6951 1.419 . S
C6953 C6954 1.362 . S
C6954 H6946 0.930 . S
C6954 C6953 1.362 . S
C6954 C6957 1.409 . S
C6955 H6947 0.930 . S
C6955 C6956 1.355 . S
C6955 C6957 1.415 . S
C6956 C6955 1.355 . S
C6956 C6958 1.419 . S
C6957 C6952 1.425 . S
C6957 C6954 1.409 . S
C6957 C6955 1.415 . S
C6958 H6948 0.930 . S
C6958 C6956 1.419 . S
C6958 C6959 1.362 . S
C6959 H6949 0.930 . S
C6959 C6952 1.409 . S
C6959 C6958 1.362 . S
H6960 C6966 0.930 . S
H6961 C6969 0.930 . S
H6962 C6970 0.930 . S
H6963 C6971 0.930 . S
H6964 C6974 0.930 . S
H6965 C6975 0.930 . S
C6966 H6960 0.930 . S
C6966 C6967 1.355 . S
C6966 C6968 1.415 . S
C6967 C6966 1.355 . S
C6967 C6969 1.419 . S
C6968 C6966 1.415 . S
C6968 C6973 1.425 . S
C6968 C6975 1.409 . S
C6969 H6961 0.930 . S
C6969 C6967 1.419 . S
C6969 C6970 1.362 . S
C6970 H6962 0.930 . S
C6970 C6969 1.362 . S
C6970 C6973 1.409 . S
C6971 H6963 0.930 . S
C6971 C6972 1.355 . S
C6971 C6973 1.415 . S
C6972 C6971 1.355 . S
C6972 C6974 1.419 . S
C6973 C6968 1.425 . S
C6973 C6970 1.409 . S
C6973 C6971 1.415 . S
C6974 H6964 0.930 . S
C6974 C6972 1.419 . S
C6974 C6975 1.362 . S
C6975 H6965 0.930 . S
C6975 C6968 1.409 . S
C6975 C6974 1.362 . S
H6976 C6982 0.930 . S
H6977 C6985 0.930 . S
H6978 C6986 0.930 . S
H6979 C6987 0.930 . S
H6980 C6990 0.930 . S
H6981 C6991 0.930 . S
C6982 H6976 0.930 . S
C6982 C6983 1.355 . S
C6982 C6984 1.415 . S
C6983 C6982 1.355 . S
C6983 C6985 1.419 . S
C6984 C6982 1.415 . S
C6984 C6989 1.425 . S
C6984 C6991 1.409 . S
C6985 H6977 0.930 . S
C6985 C6983 1.419 . S
C6985 C6986 1.362 . S
C6986 H6978 0.930 . S
C6986 C6985 1.362 . S
C6986 C6989 1.409 . S
C6987 H6979 0.930 . S
C6987 C6988 1.355 . S
C6987 C6989 1.415 . S
C6988 C6987 1.355 . S
C6988 C6990 1.419 . S
C6989 C6984 1.425 . S
C6989 C6986 1.409 . S
C6989 C6987 1.415 . S
C6990 H6980 0.930 . S
C6990 C6988 1.419 . S
C6990 C6991 1.362 . S
C6991 H6981 0.930 . S
C6991 C6984 1.409 . S
C6991 C6990 1.362 . S
H6992 C6998 0.930 . S
H6993 C7001 0.930 . S
H6994 C7002 0.930 . S
H6995 C7003 0.930 . S
H6996 C7006 0.930 . S
H6997 C7007 0.930 . S
C6998 H6992 0.930 . S
C6998 C6999 1.355 . S
C6998 C7000 1.415 . S
C6999 C6998 1.355 . S
C6999 C7001 1.419 . S
C7000 C6998 1.415 . S
C7000 C7005 1.425 . S
C7000 C7007 1.409 . S
C7001 H6993 0.930 . S
C7001 C6999 1.419 . S
C7001 C7002 1.362 . S
C7002 H6994 0.930 . S
C7002 C7001 1.362 . S
C7002 C7005 1.409 . S
C7003 H6995 0.930 . S
C7003 C7004 1.355 . S
C7003 C7005 1.415 . S
C7004 C7003 1.355 . S
C7004 C7006 1.419 . S
C7005 C7000 1.425 . S
C7005 C7002 1.409 . S
C7005 C7003 1.415 . S
C7006 H6996 0.930 . S
C7006 C7004 1.419 . S
C7006 C7007 1.362 . S
C7007 H6997 0.930 . S
C7007 C7000 1.409 . S
C7007 C7006 1.362 . S
H7008 C7014 0.930 . S
H7009 C7017 0.930 1_556 S
H7010 C7018 0.930 . S
H7011 C7019 0.930 . S
H7012 C7022 0.930 . S
H7013 C7023 0.930 . S
C7014 H7008 0.930 . S
C7014 C7015 1.355 . S
C7014 C7016 1.415 . S
C7015 C7014 1.355 . S
C7015 C7017 1.419 . S
C7016 C7014 1.415 . S
C7016 C7021 1.425 . S
C7016 C7023 1.409 . S
C7017 H7009 0.930 1_554 S
C7017 C7015 1.419 . S
C7017 C7018 1.362 . S
C7018 H7010 0.930 . S
C7018 C7017 1.362 . S
C7018 C7021 1.409 . S
C7019 H7011 0.930 . S
C7019 C7020 1.355 . S
C7019 C7021 1.415 . S
C7020 C7019 1.355 . S
C7020 C7022 1.419 . S
C7021 C7016 1.425 . S
C7021 C7018 1.409 . S
C7021 C7019 1.415 . S
C7022 H7012 0.930 . S
C7022 C7020 1.419 . S
C7022 C7023 1.362 . S
C7023 H7013 0.930 . S
C7023 C7016 1.409 . S
C7023 C7022 1.362 . S
H7024 C7030 0.930 . S
H7025 C7033 0.930 . S
H7026 C7034 0.930 . S
H7027 C7035 0.930 . S
H7028 C7038 0.930 . S
H7029 C7039 0.930 . S
C7030 H7024 0.930 . S
C7030 C7031 1.355 . S
C7030 C7032 1.415 . S
C7031 C7030 1.355 . S
C7031 C7033 1.419 . S
C7032 C7030 1.415 . S
C7032 C7037 1.425 . S
C7032 C7039 1.409 . S
C7033 H7025 0.930 . S
C7033 C7031 1.419 . S
C7033 C7034 1.362 . S
C7034 H7026 0.930 . S
C7034 C7033 1.362 . S
C7034 C7037 1.409 . S
C7035 H7027 0.930 . S
C7035 C7036 1.355 . S
C7035 C7037 1.415 . S
C7036 C7035 1.355 . S
C7036 C7038 1.419 . S
C7037 C7032 1.425 . S
C7037 C7034 1.409 . S
C7037 C7035 1.415 . S
C7038 H7028 0.930 . S
C7038 C7036 1.419 . S
C7038 C7039 1.362 . S
C7039 H7029 0.930 . S
C7039 C7032 1.409 . S
C7039 C7038 1.362 . S
H7040 C7046 0.930 . S
H7041 C7049 0.930 . S
H7042 C7050 0.930 . S
H7043 C7051 0.930 . S
H7044 C7054 0.930 . S
H7045 C7055 0.930 . S
C7046 H7040 0.930 . S
C7046 C7047 1.355 . S
C7046 C7048 1.415 . S
C7047 C7046 1.355 . S
C7047 C7049 1.419 . S
C7048 C7046 1.415 . S
C7048 C7053 1.425 . S
C7048 C7055 1.409 . S
C7049 H7041 0.930 . S
C7049 C7047 1.419 . S
C7049 C7050 1.362 . S
C7050 H7042 0.930 . S
C7050 C7049 1.362 . S
C7050 C7053 1.409 . S
C7051 H7043 0.930 . S
C7051 C7052 1.355 . S
C7051 C7053 1.415 . S
C7052 C7051 1.355 . S
C7052 C7054 1.419 . S
C7053 C7048 1.425 . S
C7053 C7050 1.409 . S
C7053 C7051 1.415 . S
C7054 H7044 0.930 . S
C7054 C7052 1.419 . S
C7054 C7055 1.362 . S
C7055 H7045 0.930 . S
C7055 C7048 1.409 . S
C7055 C7054 1.362 . S
H7056 C7062 0.930 . S
H7057 C7065 0.930 . S
H7058 C7066 0.930 . S
H7059 C7067 0.930 . S
H7060 C7070 0.930 . S
H7061 C7071 0.930 . S
C7062 H7056 0.930 . S
C7062 C7063 1.355 . S
C7062 C7064 1.415 . S
C7063 C7062 1.355 . S
C7063 C7065 1.419 . S
C7064 C7062 1.415 . S
C7064 C7069 1.425 . S
C7064 C7071 1.409 . S
C7065 H7057 0.930 . S
C7065 C7063 1.419 . S
C7065 C7066 1.362 . S
C7066 H7058 0.930 . S
C7066 C7065 1.362 . S
C7066 C7069 1.409 . S
C7067 H7059 0.930 . S
C7067 C7068 1.355 . S
C7067 C7069 1.415 . S
C7068 C7067 1.355 . S
C7068 C7070 1.419 . S
C7069 C7064 1.425 . S
C7069 C7066 1.409 . S
C7069 C7067 1.415 . S
C7070 H7060 0.930 . S
C7070 C7068 1.419 . S
C7070 C7071 1.362 . S
C7071 H7061 0.930 . S
C7071 C7064 1.409 . S
C7071 C7070 1.362 . S
H7072 C7078 0.930 . S
H7073 C7081 0.930 . S
H7074 C7082 0.930 . S
H7075 C7083 0.930 . S
H7076 C7086 0.930 . S
H7077 C7087 0.930 . S
C7078 H7072 0.930 . S
C7078 C7079 1.355 . S
C7078 C7080 1.415 . S
C7079 C7078 1.355 . S
C7079 C7081 1.419 . S
C7080 C7078 1.415 . S
C7080 C7085 1.425 . S
C7080 C7087 1.409 . S
C7081 H7073 0.930 . S
C7081 C7079 1.419 . S
C7081 C7082 1.362 . S
C7082 H7074 0.930 . S
C7082 C7081 1.362 . S
C7082 C7085 1.409 . S
C7083 H7075 0.930 . S
C7083 C7084 1.355 . S
C7083 C7085 1.415 . S
C7084 C7083 1.355 . S
C7084 C7086 1.419 . S
C7085 C7080 1.425 . S
C7085 C7082 1.409 . S
C7085 C7083 1.415 . S
C7086 H7076 0.930 . S
C7086 C7084 1.419 . S
C7086 C7087 1.362 . S
C7087 H7077 0.930 . S
C7087 C7080 1.409 . S
C7087 C7086 1.362 . S
H7088 C7094 0.930 . S
H7089 C7097 0.930 . S
H7090 C7098 0.930 . S
H7091 C7099 0.930 . S
H7092 C7102 0.930 . S
H7093 C7103 0.930 . S
C7094 H7088 0.930 . S
C7094 C7095 1.355 . S
C7094 C7096 1.415 . S
C7095 C7094 1.355 . S
C7095 C7097 1.419 . S
C7096 C7094 1.415 . S
C7096 C7101 1.425 . S
C7096 C7103 1.409 . S
C7097 H7089 0.930 . S
C7097 C7095 1.419 . S
C7097 C7098 1.362 . S
C7098 H7090 0.930 . S
C7098 C7097 1.362 . S
C7098 C7101 1.409 . S
C7099 H7091 0.930 . S
C7099 C7100 1.355 . S
C7099 C7101 1.415 . S
C7100 C7099 1.355 . S
C7100 C7102 1.419 . S
C7101 C7096 1.425 . S
C7101 C7098 1.409 . S
C7101 C7099 1.415 . S
C7102 H7092 0.930 . S
C7102 C7100 1.419 . S
C7102 C7103 1.362 . S
C7103 H7093 0.930 . S
C7103 C7096 1.409 . S
C7103 C7102 1.362 . S
H7104 C7110 0.930 . S
H7105 C7113 0.930 . S
H7106 C7114 0.930 . S
H7107 C7115 0.930 . S
H7108 C7118 0.930 . S
H7109 C7119 0.930 . S
C7110 H7104 0.930 . S
C7110 C7111 1.355 . S
C7110 C7112 1.415 . S
C7111 C7110 1.355 . S
C7111 C7113 1.419 . S
C7112 C7110 1.415 . S
C7112 C7117 1.425 . S
C7112 C7119 1.409 . S
C7113 H7105 0.930 . S
C7113 C7111 1.419 . S
C7113 C7114 1.362 . S
C7114 H7106 0.930 . S
C7114 C7113 1.362 . S
C7114 C7117 1.409 . S
C7115 H7107 0.930 . S
C7115 C7116 1.355 . S
C7115 C7117 1.415 . S
C7116 C7115 1.355 . S
C7116 C7118 1.419 . S
C7117 C7112 1.425 . S
C7117 C7114 1.409 . S
C7117 C7115 1.415 . S
C7118 H7108 0.930 . S
C7118 C7116 1.419 . S
C7118 C7119 1.362 . S
C7119 H7109 0.930 . S
C7119 C7112 1.409 . S
C7119 C7118 1.362 . S
H7120 C7126 0.930 . S
H7121 C7129 0.930 . S
H7122 C7130 0.930 . S
H7123 C7131 0.930 . S
H7124 C7134 0.930 . S
H7125 C7135 0.930 . S
C7126 H7120 0.930 . S
C7126 C7127 1.355 . S
C7126 C7128 1.415 . S
C7127 C7126 1.355 . S
C7127 C7129 1.419 . S
C7128 C7126 1.415 . S
C7128 C7133 1.425 . S
C7128 C7135 1.409 . S
C7129 H7121 0.930 . S
C7129 C7127 1.419 . S
C7129 C7130 1.362 . S
C7130 H7122 0.930 . S
C7130 C7129 1.362 . S
C7130 C7133 1.409 . S
C7131 H7123 0.930 . S
C7131 C7132 1.355 . S
C7131 C7133 1.415 . S
C7132 C7131 1.355 . S
C7132 C7134 1.419 . S
C7133 C7128 1.425 . S
C7133 C7130 1.409 . S
C7133 C7131 1.415 . S
C7134 H7124 0.930 . S
C7134 C7132 1.419 . S
C7134 C7135 1.362 . S
C7135 H7125 0.930 . S
C7135 C7128 1.409 . S
C7135 C7134 1.362 . S
H7136 C7142 0.930 . S
H7137 C7145 0.930 . S
H7138 C7146 0.930 . S
H7139 C7147 0.930 . S
H7140 C7150 0.930 . S
H7141 C7151 0.930 . S
C7142 H7136 0.930 . S
C7142 C7143 1.355 . S
C7142 C7144 1.415 . S
C7143 C7142 1.355 . S
C7143 C7145 1.419 . S
C7144 C7142 1.415 . S
C7144 C7149 1.425 . S
C7144 C7151 1.409 . S
C7145 H7137 0.930 . S
C7145 C7143 1.419 . S
C7145 C7146 1.362 . S
C7146 H7138 0.930 . S
C7146 C7145 1.362 . S
C7146 C7149 1.409 . S
C7147 H7139 0.930 . S
C7147 C7148 1.355 . S
C7147 C7149 1.415 . S
C7148 C7147 1.355 . S
C7148 C7150 1.419 . S
C7149 C7144 1.425 . S
C7149 C7146 1.409 . S
C7149 C7147 1.415 . S
C7150 H7140 0.930 . S
C7150 C7148 1.419 . S
C7150 C7151 1.362 . S
C7151 H7141 0.930 . S
C7151 C7144 1.409 . S
C7151 C7150 1.362 . S
H7152 C7158 0.930 . S
H7153 C7161 0.930 . S
H7154 C7162 0.930 . S
H7155 C7163 0.930 . S
H7156 C7166 0.930 . S
H7157 C7167 0.930 . S
C7158 H7152 0.930 . S
C7158 C7159 1.355 . S
C7158 C7160 1.415 . S
C7159 C7158 1.355 . S
C7159 C7161 1.419 . S
C7160 C7158 1.415 . S
C7160 C7165 1.425 . S
C7160 C7167 1.409 . S
C7161 H7153 0.930 . S
C7161 C7159 1.419 . S
C7161 C7162 1.362 . S
C7162 H7154 0.930 . S
C7162 C7161 1.362 . S
C7162 C7165 1.409 . S
C7163 H7155 0.930 . S
C7163 C7164 1.355 . S
C7163 C7165 1.415 . S
C7164 C7163 1.355 . S
C7164 C7166 1.419 . S
C7165 C7160 1.425 . S
C7165 C7162 1.409 . S
C7165 C7163 1.415 . S
C7166 H7156 0.930 . S
C7166 C7164 1.419 . S
C7166 C7167 1.362 . S
C7167 H7157 0.930 . S
C7167 C7160 1.409 . S
C7167 C7166 1.362 . S
H7168 C7174 0.930 . S
H7169 C7177 0.930 . S
H7170 C7178 0.930 . S
H7171 C7179 0.930 . S
H7172 C7182 0.930 . S
H7173 C7183 0.930 . S
C7174 H7168 0.930 . S
C7174 C7175 1.355 . S
C7174 C7176 1.415 . S
C7175 C7174 1.355 . S
C7175 C7177 1.419 . S
C7176 C7174 1.415 . S
C7176 C7181 1.425 . S
C7176 C7183 1.409 . S
C7177 H7169 0.930 . S
C7177 C7175 1.419 . S
C7177 C7178 1.362 . S
C7178 H7170 0.930 . S
C7178 C7177 1.362 . S
C7178 C7181 1.409 . S
C7179 H7171 0.930 . S
C7179 C7180 1.355 . S
C7179 C7181 1.415 . S
C7180 C7179 1.355 . S
C7180 C7182 1.419 . S
C7181 C7176 1.425 . S
C7181 C7178 1.409 . S
C7181 C7179 1.415 . S
C7182 H7172 0.930 . S
C7182 C7180 1.419 . S
C7182 C7183 1.362 . S
C7183 H7173 0.930 . S
C7183 C7176 1.409 . S
C7183 C7182 1.362 . S
H7184 C7190 0.930 . S
H7185 C7193 0.930 . S
H7186 C7194 0.930 . S
H7187 C7195 0.930 . S
H7188 C7198 0.930 . S
H7189 C7199 0.930 . S
C7190 H7184 0.930 . S
C7190 C7191 1.355 . S
C7190 C7192 1.415 . S
C7191 C7190 1.355 . S
C7191 C7193 1.419 . S
C7192 C7190 1.415 . S
C7192 C7197 1.425 . S
C7192 C7199 1.409 . S
C7193 H7185 0.930 . S
C7193 C7191 1.419 . S
C7193 C7194 1.362 . S
C7194 H7186 0.930 . S
C7194 C7193 1.362 . S
C7194 C7197 1.409 . S
C7195 H7187 0.930 . S
C7195 C7196 1.355 . S
C7195 C7197 1.415 . S
C7196 C7195 1.355 . S
C7196 C7198 1.419 . S
C7197 C7192 1.425 . S
C7197 C7194 1.409 . S
C7197 C7195 1.415 . S
C7198 H7188 0.930 . S
C7198 C7196 1.419 . S
C7198 C7199 1.362 . S
C7199 H7189 0.930 . S
C7199 C7192 1.409 . S
C7199 C7198 1.362 . S
H7200 C7206 0.930 . S
H7201 C7209 0.930 . S
H7202 C7210 0.930 . S
H7203 C7211 0.930 . S
H7204 C7214 0.930 . S
H7205 C7215 0.930 . S
C7206 H7200 0.930 . S
C7206 C7207 1.355 . S
C7206 C7208 1.415 . S
C7207 C7206 1.355 . S
C7207 C7209 1.419 . S
C7208 C7206 1.415 . S
C7208 C7213 1.425 . S
C7208 C7215 1.409 . S
C7209 H7201 0.930 . S
C7209 C7207 1.419 . S
C7209 C7210 1.362 . S
C7210 H7202 0.930 . S
C7210 C7209 1.362 . S
C7210 C7213 1.409 . S
C7211 H7203 0.930 . S
C7211 C7212 1.355 . S
C7211 C7213 1.415 . S
C7212 C7211 1.355 . S
C7212 C7214 1.419 . S
C7213 C7208 1.425 . S
C7213 C7210 1.409 . S
C7213 C7211 1.415 . S
C7214 H7204 0.930 . S
C7214 C7212 1.419 . S
C7214 C7215 1.362 . S
C7215 H7205 0.930 . S
C7215 C7208 1.409 . S
C7215 C7214 1.362 . S
H7216 C7222 0.930 . S
H7217 C7225 0.930 . S
H7218 C7226 0.930 . S
H7219 C7227 0.930 . S
H7220 C7230 0.930 . S
H7221 C7231 0.930 . S
C7222 H7216 0.930 . S
C7222 C7223 1.355 . S
C7222 C7224 1.415 . S
C7223 C7222 1.355 . S
C7223 C7225 1.419 . S
C7224 C7222 1.415 . S
C7224 C7229 1.425 . S
C7224 C7231 1.409 . S
C7225 H7217 0.930 . S
C7225 C7223 1.419 . S
C7225 C7226 1.362 . S
C7226 H7218 0.930 . S
C7226 C7225 1.362 . S
C7226 C7229 1.409 . S
C7227 H7219 0.930 . S
C7227 C7228 1.355 . S
C7227 C7229 1.415 . S
C7228 C7227 1.355 . S
C7228 C7230 1.419 . S
C7229 C7224 1.425 . S
C7229 C7226 1.409 . S
C7229 C7227 1.415 . S
C7230 H7220 0.930 . S
C7230 C7228 1.419 . S
C7230 C7231 1.362 . S
C7231 H7221 0.930 . S
C7231 C7224 1.409 . S
C7231 C7230 1.362 . S
H7232 C7238 0.930 . S
H7233 C7241 0.930 . S
H7234 C7242 0.930 . S
H7235 C7243 0.930 . S
H7236 C7246 0.930 . S
H7237 C7247 0.930 . S
C7238 H7232 0.930 . S
C7238 C7239 1.355 . S
C7238 C7240 1.415 . S
C7239 C7238 1.355 . S
C7239 C7241 1.419 . S
C7240 C7238 1.415 . S
C7240 C7245 1.425 . S
C7240 C7247 1.409 . S
C7241 H7233 0.930 . S
C7241 C7239 1.419 . S
C7241 C7242 1.362 . S
C7242 H7234 0.930 . S
C7242 C7241 1.362 . S
C7242 C7245 1.409 . S
C7243 H7235 0.930 . S
C7243 C7244 1.355 . S
C7243 C7245 1.415 . S
C7244 C7243 1.355 . S
C7244 C7246 1.419 . S
C7245 C7240 1.425 . S
C7245 C7242 1.409 . S
C7245 C7243 1.415 . S
C7246 H7236 0.930 . S
C7246 C7244 1.419 . S
C7246 C7247 1.362 . S
C7247 H7237 0.930 . S
C7247 C7240 1.409 . S
C7247 C7246 1.362 . S
H7248 C7254 0.930 . S
H7249 C7257 0.930 . S
H7250 C7258 0.930 . S
H7251 C7259 0.930 . S
H7252 C7262 0.930 . S
H7253 C7263 0.930 . S
C7254 H7248 0.930 . S
C7254 C7255 1.355 . S
C7254 C7256 1.415 . S
C7255 C7254 1.355 . S
C7255 C7257 1.419 . S
C7256 C7254 1.415 . S
C7256 C7261 1.425 . S
C7256 C7263 1.409 . S
C7257 H7249 0.930 . S
C7257 C7255 1.419 . S
C7257 C7258 1.362 . S
C7258 H7250 0.930 . S
C7258 C7257 1.362 . S
C7258 C7261 1.409 . S
C7259 H7251 0.930 . S
C7259 C7260 1.355 . S
C7259 C7261 1.415 . S
C7260 C7259 1.355 . S
C7260 C7262 1.419 . S
C7261 C7256 1.425 . S
C7261 C7258 1.409 . S
C7261 C7259 1.415 . S
C7262 H7252 0.930 . S
C7262 C7260 1.419 . S
C7262 C7263 1.362 . S
C7263 H7253 0.930 . S
C7263 C7256 1.409 . S
C7263 C7262 1.362 . S
H7264 C7270 0.930 . S
H7265 C7273 0.930 . S
H7266 C7274 0.930 . S
H7267 C7275 0.930 . S
H7268 C7278 0.930 . S
H7269 C7279 0.930 . S
C7270 H7264 0.930 . S
C7270 C7271 1.355 . S
C7270 C7272 1.415 . S
C7271 C7270 1.355 . S
C7271 C7273 1.419 . S
C7272 C7270 1.415 . S
C7272 C7277 1.425 . S
C7272 C7279 1.409 . S
C7273 H7265 0.930 . S
C7273 C7271 1.419 . S
C7273 C7274 1.362 . S
C7274 H7266 0.930 . S
C7274 C7273 1.362 . S
C7274 C7277 1.409 . S
C7275 H7267 0.930 . S
C7275 C7276 1.355 . S
C7275 C7277 1.415 . S
C7276 C7275 1.355 . S
C7276 C7278 1.419 . S
C7277 C7272 1.425 . S
C7277 C7274 1.409 . S
C7277 C7275 1.415 . S
C7278 H7268 0.930 . S
C7278 C7276 1.419 . S
C7278 C7279 1.362 . S
C7279 H7269 0.930 . S
C7279 C7272 1.409 . S
C7279 C7278 1.362 . S
H7280 C7286 0.930 . S
H7281 C7289 0.930 . S
H7282 C7290 0.930 . S
H7283 C7291 0.930 . S
H7284 C7294 0.930 . S
H7285 C7295 0.930 . S
C7286 H7280 0.930 . S
C7286 C7287 1.355 . S
C7286 C7288 1.415 . S
C7287 C7286 1.355 . S
C7287 C7289 1.419 . S
C7288 C7286 1.415 . S
C7288 C7293 1.425 . S
C7288 C7295 1.409 . S
C7289 H7281 0.930 . S
C7289 C7287 1.419 . S
C7289 C7290 1.362 . S
C7290 H7282 0.930 . S
C7290 C7289 1.362 . S
C7290 C7293 1.409 . S
C7291 H7283 0.930 . S
C7291 C7292 1.355 . S
C7291 C7293 1.415 . S
C7292 C7291 1.355 . S
C7292 C7294 1.419 . S
C7293 C7288 1.425 . S
C7293 C7290 1.409 . S
C7293 C7291 1.415 . S
C7294 H7284 0.930 . S
C7294 C7292 1.419 . S
C7294 C7295 1.362 . S
C7295 H7285 0.930 . S
C7295 C7288 1.409 . S
C7295 C7294 1.362 . S
H7296 C7302 0.930 . S
H7297 C7305 0.930 . S
H7298 C7306 0.930 . S
H7299 C7307 0.930 . S
H7300 C7310 0.930 . S
H7301 C7311 0.930 . S
C7302 H7296 0.930 . S
C7302 C7303 1.355 . S
C7302 C7304 1.415 . S
C7303 C7302 1.355 . S
C7303 C7305 1.419 . S
C7304 C7302 1.415 . S
C7304 C7309 1.425 . S
C7304 C7311 1.409 . S
C7305 H7297 0.930 . S
C7305 C7303 1.419 . S
C7305 C7306 1.362 . S
C7306 H7298 0.930 . S
C7306 C7305 1.362 . S
C7306 C7309 1.409 . S
C7307 H7299 0.930 . S
C7307 C7308 1.355 . S
C7307 C7309 1.415 . S
C7308 C7307 1.355 . S
C7308 C7310 1.419 . S
C7309 C7304 1.425 . S
C7309 C7306 1.409 . S
C7309 C7307 1.415 . S
C7310 H7300 0.930 . S
C7310 C7308 1.419 . S
C7310 C7311 1.362 . S
C7311 H7301 0.930 . S
C7311 C7304 1.409 . S
C7311 C7310 1.362 . S
H7312 C7318 0.930 . S
H7313 C7321 0.930 . S
H7314 C7322 0.930 . S
H7315 C7323 0.930 . S
H7316 C7326 0.930 . S
H7317 C7327 0.930 . S
C7318 H7312 0.930 . S
C7318 C7319 1.355 . S
C7318 C7320 1.415 . S
C7319 C7318 1.355 . S
C7319 C7321 1.419 . S
C7320 C7318 1.415 . S
C7320 C7325 1.425 . S
C7320 C7327 1.409 . S
C7321 H7313 0.930 . S
C7321 C7319 1.419 . S
C7321 C7322 1.362 . S
C7322 H7314 0.930 . S
C7322 C7321 1.362 . S
C7322 C7325 1.409 . S
C7323 H7315 0.930 . S
C7323 C7324 1.355 . S
C7323 C7325 1.415 . S
C7324 C7323 1.355 . S
C7324 C7326 1.419 . S
C7325 C7320 1.425 . S
C7325 C7322 1.409 . S
C7325 C7323 1.415 . S
C7326 H7316 0.930 . S
C7326 C7324 1.419 . S
C7326 C7327 1.362 . S
C7327 H7317 0.930 . S
C7327 C7320 1.409 . S
C7327 C7326 1.362 . S
H7328 C7334 0.930 . S
H7329 C7337 0.930 . S
H7330 C7338 0.930 . S
H7331 C7339 0.930 . S
H7332 C7342 0.930 . S
H7333 C7343 0.930 . S
C7334 H7328 0.930 . S
C7334 C7335 1.355 . S
C7334 C7336 1.415 . S
C7335 C7334 1.355 . S
C7335 C7337 1.419 . S
C7336 C7334 1.415 . S
C7336 C7341 1.425 . S
C7336 C7343 1.409 . S
C7337 H7329 0.930 . S
C7337 C7335 1.419 . S
C7337 C7338 1.362 . S
C7338 H7330 0.930 . S
C7338 C7337 1.362 . S
C7338 C7341 1.409 . S
C7339 H7331 0.930 . S
C7339 C7340 1.355 . S
C7339 C7341 1.415 . S
C7340 C7339 1.355 . S
C7340 C7342 1.419 . S
C7341 C7336 1.425 . S
C7341 C7338 1.409 . S
C7341 C7339 1.415 . S
C7342 H7332 0.930 . S
C7342 C7340 1.419 . S
C7342 C7343 1.362 . S
C7343 H7333 0.930 . S
C7343 C7336 1.409 . S
C7343 C7342 1.362 . S
H7344 C7350 0.930 . S
H7345 C7353 0.930 . S
H7346 C7354 0.930 . S
H7347 C7355 0.930 . S
H7348 C7358 0.930 . S
H7349 C7359 0.930 . S
C7350 H7344 0.930 . S
C7350 C7351 1.355 . S
C7350 C7352 1.415 . S
C7351 C7350 1.355 . S
C7351 C7353 1.419 . S
C7352 C7350 1.415 . S
C7352 C7357 1.425 . S
C7352 C7359 1.409 . S
C7353 H7345 0.930 . S
C7353 C7351 1.419 . S
C7353 C7354 1.362 . S
C7354 H7346 0.930 . S
C7354 C7353 1.362 . S
C7354 C7357 1.409 . S
C7355 H7347 0.930 . S
C7355 C7356 1.355 . S
C7355 C7357 1.415 . S
C7356 C7355 1.355 . S
C7356 C7358 1.419 . S
C7357 C7352 1.425 . S
C7357 C7354 1.409 . S
C7357 C7355 1.415 . S
C7358 H7348 0.930 . S
C7358 C7356 1.419 . S
C7358 C7359 1.362 . S
C7359 H7349 0.930 . S
C7359 C7352 1.409 . S
C7359 C7358 1.362 . S
H7360 C7366 0.930 . S
H7361 C7369 0.930 . S
H7362 C7370 0.930 . S
H7363 C7371 0.930 . S
H7364 C7374 0.930 . S
H7365 C7375 0.930 . S
C7366 H7360 0.930 . S
C7366 C7367 1.355 . S
C7366 C7368 1.415 . S
C7367 C7366 1.355 . S
C7367 C7369 1.419 . S
C7368 C7366 1.415 . S
C7368 C7373 1.425 . S
C7368 C7375 1.409 . S
C7369 H7361 0.930 . S
C7369 C7367 1.419 . S
C7369 C7370 1.362 . S
C7370 H7362 0.930 . S
C7370 C7369 1.362 . S
C7370 C7373 1.409 . S
C7371 H7363 0.930 . S
C7371 C7372 1.355 . S
C7371 C7373 1.415 . S
C7372 C7371 1.355 . S
C7372 C7374 1.419 . S
C7373 C7368 1.425 . S
C7373 C7370 1.409 . S
C7373 C7371 1.415 . S
C7374 H7364 0.930 . S
C7374 C7372 1.419 . S
C7374 C7375 1.362 . S
C7375 H7365 0.930 . S
C7375 C7368 1.409 . S
C7375 C7374 1.362 . S
H7376 C7382 0.930 . S
H7377 C7385 0.930 . S
H7378 C7386 0.930 . S
H7379 C7387 0.930 . S
H7380 C7390 0.930 . S
H7381 C7391 0.930 . S
C7382 H7376 0.930 . S
C7382 C7383 1.355 . S
C7382 C7384 1.415 . S
C7383 C7382 1.355 . S
C7383 C7385 1.419 . S
C7384 C7382 1.415 . S
C7384 C7389 1.425 . S
C7384 C7391 1.409 . S
C7385 H7377 0.930 . S
C7385 C7383 1.419 . S
C7385 C7386 1.362 . S
C7386 H7378 0.930 . S
C7386 C7385 1.362 . S
C7386 C7389 1.409 . S
C7387 H7379 0.930 . S
C7387 C7388 1.355 . S
C7387 C7389 1.415 . S
C7388 C7387 1.355 . S
C7388 C7390 1.419 . S
C7389 C7384 1.425 . S
C7389 C7386 1.409 . S
C7389 C7387 1.415 . S
C7390 H7380 0.930 . S
C7390 C7388 1.419 . S
C7390 C7391 1.362 . S
C7391 H7381 0.930 . S
C7391 C7384 1.409 . S
C7391 C7390 1.362 . S
H7392 C7398 0.930 . S
H7393 C7401 0.930 . S
H7394 C7402 0.930 . S
H7395 C7403 0.930 . S
H7396 C7406 0.930 . S
H7397 C7407 0.930 . S
C7398 H7392 0.930 . S
C7398 C7399 1.355 . S
C7398 C7400 1.415 . S
C7399 C7398 1.355 . S
C7399 C7401 1.419 . S
C7400 C7398 1.415 . S
C7400 C7405 1.425 . S
C7400 C7407 1.409 . S
C7401 H7393 0.930 . S
C7401 C7399 1.419 . S
C7401 C7402 1.362 . S
C7402 H7394 0.930 . S
C7402 C7401 1.362 . S
C7402 C7405 1.409 . S
C7403 H7395 0.930 . S
C7403 C7404 1.355 . S
C7403 C7405 1.415 . S
C7404 C7403 1.355 . S
C7404 C7406 1.419 . S
C7405 C7400 1.425 . S
C7405 C7402 1.409 . S
C7405 C7403 1.415 . S
C7406 H7396 0.930 . S
C7406 C7404 1.419 . S
C7406 C7407 1.362 . S
C7407 H7397 0.930 . S
C7407 C7400 1.409 . S
C7407 C7406 1.362 . S
H7408 C7414 0.930 . S
H7409 C7417 0.930 . S
H7410 C7418 0.930 . S
H7411 C7419 0.930 . S
H7412 C7422 0.930 . S
H7413 C7423 0.930 . S
C7414 H7408 0.930 . S
C7414 C7415 1.355 . S
C7414 C7416 1.415 . S
C7415 C7414 1.355 . S
C7415 C7417 1.419 . S
C7416 C7414 1.415 . S
C7416 C7421 1.425 . S
C7416 C7423 1.409 . S
C7417 H7409 0.930 . S
C7417 C7415 1.419 . S
C7417 C7418 1.362 . S
C7418 H7410 0.930 . S
C7418 C7417 1.362 . S
C7418 C7421 1.409 . S
C7419 H7411 0.930 . S
C7419 C7420 1.355 . S
C7419 C7421 1.415 . S
C7420 C7419 1.355 . S
C7420 C7422 1.419 . S
C7421 C7416 1.425 . S
C7421 C7418 1.409 . S
C7421 C7419 1.415 . S
C7422 H7412 0.930 . S
C7422 C7420 1.419 . S
C7422 C7423 1.362 . S
C7423 H7413 0.930 . S
C7423 C7416 1.409 . S
C7423 C7422 1.362 . S
H7424 C7430 0.930 . S
H7425 C7433 0.930 . S
H7426 C7434 0.930 . S
H7427 C7435 0.930 . S
H7428 C7438 0.930 . S
H7429 C7439 0.930 . S
C7430 H7424 0.930 . S
C7430 C7431 1.355 . S
C7430 C7432 1.415 . S
C7431 C7430 1.355 . S
C7431 C7433 1.419 . S
C7432 C7430 1.415 . S
C7432 C7437 1.425 . S
C7432 C7439 1.409 . S
C7433 H7425 0.930 . S
C7433 C7431 1.419 . S
C7433 C7434 1.362 . S
C7434 H7426 0.930 . S
C7434 C7433 1.362 . S
C7434 C7437 1.409 . S
C7435 H7427 0.930 . S
C7435 C7436 1.355 . S
C7435 C7437 1.415 . S
C7436 C7435 1.355 . S
C7436 C7438 1.419 . S
C7437 C7432 1.425 . S
C7437 C7434 1.409 . S
C7437 C7435 1.415 . S
C7438 H7428 0.930 . S
C7438 C7436 1.419 . S
C7438 C7439 1.362 . S
C7439 H7429 0.930 . S
C7439 C7432 1.409 . S
C7439 C7438 1.362 . S
H7440 C7446 0.930 . S
H7441 C7449 0.930 . S
H7442 C7450 0.930 . S
H7443 C7451 0.930 . S
H7444 C7454 0.930 . S
H7445 C7455 0.930 . S
C7446 H7440 0.930 . S
C7446 C7447 1.355 . S
C7446 C7448 1.415 . S
C7447 C7446 1.355 . S
C7447 C7449 1.419 . S
C7448 C7446 1.415 . S
C7448 C7453 1.425 . S
C7448 C7455 1.409 . S
C7449 H7441 0.930 . S
C7449 C7447 1.419 . S
C7449 C7450 1.362 . S
C7450 H7442 0.930 . S
C7450 C7449 1.362 . S
C7450 C7453 1.409 . S
C7451 H7443 0.930 . S
C7451 C7452 1.355 . S
C7451 C7453 1.415 . S
C7452 C7451 1.355 . S
C7452 C7454 1.419 . S
C7453 C7448 1.425 . S
C7453 C7450 1.409 . S
C7453 C7451 1.415 . S
C7454 H7444 0.930 . S
C7454 C7452 1.419 . S
C7454 C7455 1.362 . S
C7455 H7445 0.930 . S
C7455 C7448 1.409 . S
C7455 C7454 1.362 . S
H7456 C7462 0.930 . S
H7457 C7465 0.930 . S
H7458 C7466 0.930 . S
H7459 C7467 0.930 . S
H7460 C7470 0.930 . S
H7461 C7471 0.930 . S
C7462 H7456 0.930 . S
C7462 C7463 1.355 . S
C7462 C7464 1.415 . S
C7463 C7462 1.355 . S
C7463 C7465 1.419 . S
C7464 C7462 1.415 . S
C7464 C7469 1.425 . S
C7464 C7471 1.409 . S
C7465 H7457 0.930 . S
C7465 C7463 1.419 . S
C7465 C7466 1.362 . S
C7466 H7458 0.930 . S
C7466 C7465 1.362 . S
C7466 C7469 1.409 . S
C7467 H7459 0.930 . S
C7467 C7468 1.355 . S
C7467 C7469 1.415 . S
C7468 C7467 1.355 . S
C7468 C7470 1.419 . S
C7469 C7464 1.425 . S
C7469 C7466 1.409 . S
C7469 C7467 1.415 . S
C7470 H7460 0.930 . S
C7470 C7468 1.419 . S
C7470 C7471 1.362 . S
C7471 H7461 0.930 . S
C7471 C7464 1.409 . S
C7471 C7470 1.362 . S
H7472 C7478 0.930 . S
H7473 C7481 0.930 . S
H7474 C7482 0.930 . S
H7475 C7483 0.930 . S
H7476 C7486 0.930 . S
H7477 C7487 0.930 . S
C7478 H7472 0.930 . S
C7478 C7479 1.355 . S
C7478 C7480 1.415 . S
C7479 C7478 1.355 . S
C7479 C7481 1.419 . S
C7480 C7478 1.415 . S
C7480 C7485 1.425 . S
C7480 C7487 1.409 . S
C7481 H7473 0.930 . S
C7481 C7479 1.419 . S
C7481 C7482 1.362 . S
C7482 H7474 0.930 . S
C7482 C7481 1.362 . S
C7482 C7485 1.409 . S
C7483 H7475 0.930 . S
C7483 C7484 1.355 . S
C7483 C7485 1.415 . S
C7484 C7483 1.355 . S
C7484 C7486 1.419 . S
C7485 C7480 1.425 . S
C7485 C7482 1.409 . S
C7485 C7483 1.415 . S
C7486 H7476 0.930 . S
C7486 C7484 1.419 . S
C7486 C7487 1.362 . S
C7487 H7477 0.930 . S
C7487 C7480 1.409 . S
C7487 C7486 1.362 . S
H7488 C7494 0.930 . S
H7489 C7497 0.930 . S
H7490 C7498 0.930 . S
H7491 C7499 0.930 . S
H7492 C7502 0.930 . S
H7493 C7503 0.930 . S
C7494 H7488 0.930 . S
C7494 C7495 1.355 . S
C7494 C7496 1.415 . S
C7495 C7494 1.355 . S
C7495 C7497 1.419 . S
C7496 C7494 1.415 . S
C7496 C7501 1.425 . S
C7496 C7503 1.409 . S
C7497 H7489 0.930 . S
C7497 C7495 1.419 . S
C7497 C7498 1.362 . S
C7498 H7490 0.930 . S
C7498 C7497 1.362 . S
C7498 C7501 1.409 . S
C7499 H7491 0.930 . S
C7499 C7500 1.355 . S
C7499 C7501 1.415 . S
C7500 C7499 1.355 . S
C7500 C7502 1.419 . S
C7501 C7496 1.425 . S
C7501 C7498 1.409 . S
C7501 C7499 1.415 . S
C7502 H7492 0.930 . S
C7502 C7500 1.419 . S
C7502 C7503 1.362 . S
C7503 H7493 0.930 . S
C7503 C7496 1.409 . S
C7503 C7502 1.362 . S
H7504 C7510 0.930 . S
H7505 C7513 0.930 . S
H7506 C7514 0.930 . S
H7507 C7515 0.930 . S
H7508 C7518 0.930 . S
H7509 C7519 0.930 . S
C7510 H7504 0.930 . S
C7510 C7511 1.355 . S
C7510 C7512 1.415 . S
C7511 C7510 1.355 . S
C7511 C7513 1.419 . S
C7512 C7510 1.415 . S
C7512 C7517 1.425 . S
C7512 C7519 1.409 . S
C7513 H7505 0.930 . S
C7513 C7511 1.419 . S
C7513 C7514 1.362 . S
C7514 H7506 0.930 . S
C7514 C7513 1.362 . S
C7514 C7517 1.409 . S
C7515 H7507 0.930 . S
C7515 C7516 1.355 . S
C7515 C7517 1.415 . S
C7516 C7515 1.355 . S
C7516 C7518 1.419 . S
C7517 C7512 1.425 . S
C7517 C7514 1.409 . S
C7517 C7515 1.415 . S
C7518 H7508 0.930 . S
C7518 C7516 1.419 . S
C7518 C7519 1.362 . S
C7519 H7509 0.930 . S
C7519 C7512 1.409 . S
C7519 C7518 1.362 . S
H7520 C7526 0.930 . S
H7521 C7529 0.930 . S
H7522 C7530 0.930 . S
H7523 C7531 0.930 . S
H7524 C7534 0.930 . S
H7525 C7535 0.930 . S
C7526 H7520 0.930 . S
C7526 C7527 1.355 . S
C7526 C7528 1.415 . S
C7527 C7526 1.355 . S
C7527 C7529 1.419 . S
C7528 C7526 1.415 . S
C7528 C7533 1.425 . S
C7528 C7535 1.409 . S
C7529 H7521 0.930 . S
C7529 C7527 1.419 . S
C7529 C7530 1.362 . S
C7530 H7522 0.930 . S
C7530 C7529 1.362 . S
C7530 C7533 1.409 . S
C7531 H7523 0.930 . S
C7531 C7532 1.355 . S
C7531 C7533 1.415 . S
C7532 C7531 1.355 . S
C7532 C7534 1.419 . S
C7533 C7528 1.425 . S
C7533 C7530 1.409 . S
C7533 C7531 1.415 . S
C7534 H7524 0.930 . S
C7534 C7532 1.419 . S
C7534 C7535 1.362 . S
C7535 H7525 0.930 . S
C7535 C7528 1.409 . S
C7535 C7534 1.362 . S
H7536 C7542 0.930 . S
H7537 C7545 0.930 . S
H7538 C7546 0.930 . S
H7539 C7547 0.930 . S
H7540 C7550 0.930 . S
H7541 C7551 0.930 . S
C7542 H7536 0.930 . S
C7542 C7543 1.355 . S
C7542 C7544 1.415 . S
C7543 C7542 1.355 . S
C7543 C7545 1.419 . S
C7544 C7542 1.415 . S
C7544 C7549 1.425 . S
C7544 C7551 1.409 . S
C7545 H7537 0.930 . S
C7545 C7543 1.419 . S
C7545 C7546 1.362 . S
C7546 H7538 0.930 . S
C7546 C7545 1.362 . S
C7546 C7549 1.409 . S
C7547 H7539 0.930 . S
C7547 C7548 1.355 . S
C7547 C7549 1.415 . S
C7548 C7547 1.355 . S
C7548 C7550 1.419 . S
C7549 C7544 1.425 . S
C7549 C7546 1.409 . S
C7549 C7547 1.415 . S
C7550 H7540 0.930 . S
C7550 C7548 1.419 . S
C7550 C7551 1.362 . S
C7551 H7541 0.930 . S
C7551 C7544 1.409 . S
C7551 C7550 1.362 . S
H7552 C7558 0.930 . S
H7553 C7561 0.930 . S
H7554 C7562 0.930 . S
H7555 C7563 0.930 . S
H7556 C7566 0.930 . S
H7557 C7567 0.930 . S
C7558 H7552 0.930 . S
C7558 C7559 1.355 . S
C7558 C7560 1.415 . S
C7559 C7558 1.355 . S
C7559 C7561 1.419 . S
C7560 C7558 1.415 . S
C7560 C7565 1.425 . S
C7560 C7567 1.409 . S
C7561 H7553 0.930 . S
C7561 C7559 1.419 . S
C7561 C7562 1.362 . S
C7562 H7554 0.930 . S
C7562 C7561 1.362 . S
C7562 C7565 1.409 . S
C7563 H7555 0.930 . S
C7563 C7564 1.355 . S
C7563 C7565 1.415 . S
C7564 C7563 1.355 . S
C7564 C7566 1.419 . S
C7565 C7560 1.425 . S
C7565 C7562 1.409 . S
C7565 C7563 1.415 . S
C7566 H7556 0.930 . S
C7566 C7564 1.419 . S
C7566 C7567 1.362 . S
C7567 H7557 0.930 . S
C7567 C7560 1.409 . S
C7567 C7566 1.362 . S
H7568 C7574 0.930 . S
H7569 C7577 0.930 . S
H7570 C7578 0.930 . S
H7571 C7579 0.930 . S
H7572 C7582 0.930 . S
H7573 C7583 0.930 . S
C7574 H7568 0.930 . S
C7574 C7575 1.355 . S
C7574 C7576 1.415 . S
C7575 C7574 1.355 . S
C7575 C7577 1.419 . S
C7576 C7574 1.415 . S
C7576 C7581 1.425 . S
C7576 C7583 1.409 . S
C7577 H7569 0.930 . S
C7577 C7575 1.419 . S
C7577 C7578 1.362 . S
C7578 H7570 0.930 . S
C7578 C7577 1.362 . S
C7578 C7581 1.409 . S
C7579 H7571 0.930 . S
C7579 C7580 1.355 . S
C7579 C7581 1.415 . S
C7580 C7579 1.355 . S
C7580 C7582 1.419 . S
C7581 C7576 1.425 . S
C7581 C7578 1.409 . S
C7581 C7579 1.415 . S
C7582 H7572 0.930 . S
C7582 C7580 1.419 . S
C7582 C7583 1.362 . S
C7583 H7573 0.930 . S
C7583 C7576 1.409 . S
C7583 C7582 1.362 . S
H7584 C7590 0.930 . S
H7585 C7593 0.930 . S
H7586 C7594 0.930 . S
H7587 C7595 0.930 . S
H7588 C7598 0.930 . S
H7589 C7599 0.930 . S
C7590 H7584 0.930 . S
C7590 C7591 1.355 . S
C7590 C7592 1.415 . S
C7591 C7590 1.355 . S
C7591 C7593 1.419 . S
C7592 C7590 1.415 . S
C7592 C7597 1.425 . S
C7592 C7599 1.409 . S
C7593 H7585 0.930 . S
C7593 C7591 1.419 . S
C7593 C7594 1.362 . S
C7594 H7586 0.930 . S
C7594 C7593 1.362 . S
C7594 C7597 1.409 . S
C7595 H7587 0.930 . S
C7595 C7596 1.355 . S
C7595 C7597 1.415 . S
C7596 C7595 1.355 . S
C7596 C7598 1.419 . S
C7597 C7592 1.425 . S
C7597 C7594 1.409 . S
C7597 C7595 1.415 . S
C7598 H7588 0.930 . S
C7598 C7596 1.419 . S
C7598 C7599 1.362 . S
C7599 H7589 0.930 . S
C7599 C7592 1.409 . S
C7599 C7598 1.362 . S
H7600 C7606 0.930 . S
H7601 C7609 0.930 . S
H7602 C7610 0.930 . S
H7603 C7611 0.930 . S
H7604 C7614 0.930 . S
H7605 C7615 0.930 . S
C7606 H7600 0.930 . S
C7606 C7607 1.355 . S
C7606 C7608 1.415 . S
C7607 C7606 1.355 . S
C7607 C7609 1.419 . S
C7608 C7606 1.415 . S
C7608 C7613 1.425 . S
C7608 C7615 1.409 . S
C7609 H7601 0.930 . S
C7609 C7607 1.419 . S
C7609 C7610 1.362 . S
C7610 H7602 0.930 . S
C7610 C7609 1.362 . S
C7610 C7613 1.409 . S
C7611 H7603 0.930 . S
C7611 C7612 1.355 . S
C7611 C7613 1.415 . S
C7612 C7611 1.355 . S
C7612 C7614 1.419 . S
C7613 C7608 1.425 . S
C7613 C7610 1.409 . S
C7613 C7611 1.415 . S
C7614 H7604 0.930 . S
C7614 C7612 1.419 . S
C7614 C7615 1.362 . S
C7615 H7605 0.930 . S
C7615 C7608 1.409 . S
C7615 C7614 1.362 . S
H7616 C7622 0.930 . S
H7617 C7625 0.930 . S
H7618 C7626 0.930 . S
H7619 C7627 0.930 . S
H7620 C7630 0.930 . S
H7621 C7631 0.930 . S
C7622 H7616 0.930 . S
C7622 C7623 1.355 . S
C7622 C7624 1.415 . S
C7623 C7622 1.355 . S
C7623 C7625 1.419 . S
C7624 C7622 1.415 . S
C7624 C7629 1.425 . S
C7624 C7631 1.409 . S
C7625 H7617 0.930 . S
C7625 C7623 1.419 . S
C7625 C7626 1.362 . S
C7626 H7618 0.930 . S
C7626 C7625 1.362 . S
C7626 C7629 1.409 . S
C7627 H7619 0.930 . S
C7627 C7628 1.355 . S
C7627 C7629 1.415 . S
C7628 C7627 1.355 . S
C7628 C7630 1.419 . S
C7629 C7624 1.425 . S
C7629 C7626 1.409 . S
C7629 C7627 1.415 . S
C7630 H7620 0.930 . S
C7630 C7628 1.419 . S
C7630 C7631 1.362 . S
C7631 H7621 0.930 . S
C7631 C7624 1.409 . S
C7631 C7630 1.362 . S
H7632 C7638 0.930 . S
H7633 C7641 0.930 . S
H7634 C7642 0.930 . S
H7635 C7643 0.930 . S
H7636 C7646 0.930 . S
H7637 C7647 0.930 . S
C7638 H7632 0.930 . S
C7638 C7639 1.355 . S
C7638 C7640 1.415 . S
C7639 C7638 1.355 . S
C7639 C7641 1.419 . S
C7640 C7638 1.415 . S
C7640 C7645 1.425 . S
C7640 C7647 1.409 . S
C7641 H7633 0.930 . S
C7641 C7639 1.419 . S
C7641 C7642 1.362 . S
C7642 H7634 0.930 . S
C7642 C7641 1.362 . S
C7642 C7645 1.409 . S
C7643 H7635 0.930 . S
C7643 C7644 1.355 . S
C7643 C7645 1.415 . S
C7644 C7643 1.355 . S
C7644 C7646 1.419 . S
C7645 C7640 1.425 . S
C7645 C7642 1.409 . S
C7645 C7643 1.415 . S
C7646 H7636 0.930 . S
C7646 C7644 1.419 . S
C7646 C7647 1.362 . S
C7647 H7637 0.930 . S
C7647 C7640 1.409 . S
C7647 C7646 1.362 . S
H7648 C7654 0.930 . S
H7649 C7657 0.930 . S
H7650 C7658 0.930 . S
H7651 C7659 0.930 . S
H7652 C7662 0.930 . S
H7653 C7663 0.930 . S
C7654 H7648 0.930 . S
C7654 C7655 1.355 . S
C7654 C7656 1.415 . S
C7655 C7654 1.355 . S
C7655 C7657 1.419 . S
C7656 C7654 1.415 . S
C7656 C7661 1.425 . S
C7656 C7663 1.409 . S
C7657 H7649 0.930 . S
C7657 C7655 1.419 . S
C7657 C7658 1.362 . S
C7658 H7650 0.930 . S
C7658 C7657 1.362 . S
C7658 C7661 1.409 . S
C7659 H7651 0.930 . S
C7659 C7660 1.355 . S
C7659 C7661 1.415 . S
C7660 C7659 1.355 . S
C7660 C7662 1.419 . S
C7661 C7656 1.425 . S
C7661 C7658 1.409 . S
C7661 C7659 1.415 . S
C7662 H7652 0.930 . S
C7662 C7660 1.419 . S
C7662 C7663 1.362 . S
C7663 H7653 0.930 . S
C7663 C7656 1.409 . S
C7663 C7662 1.362 . S
H7664 C7670 0.930 . S
H7665 C7673 0.930 . S
H7666 C7674 0.930 . S
H7667 C7675 0.930 . S
H7668 C7678 0.930 . S
H7669 C7679 0.930 . S
C7670 H7664 0.930 . S
C7670 C7671 1.355 . S
C7670 C7672 1.415 . S
C7671 C7670 1.355 . S
C7671 C7673 1.419 . S
C7672 C7670 1.415 . S
C7672 C7677 1.425 . S
C7672 C7679 1.409 . S
C7673 H7665 0.930 . S
C7673 C7671 1.419 . S
C7673 C7674 1.362 . S
C7674 H7666 0.930 . S
C7674 C7673 1.362 . S
C7674 C7677 1.409 . S
C7675 H7667 0.930 . S
C7675 C7676 1.355 . S
C7675 C7677 1.415 . S
C7676 C7675 1.355 . S
C7676 C7678 1.419 . S
C7677 C7672 1.425 . S
C7677 C7674 1.409 . S
C7677 C7675 1.415 . S
C7678 H7668 0.930 . S
C7678 C7676 1.419 . S
C7678 C7679 1.362 . S
C7679 H7669 0.930 . S
C7679 C7672 1.409 . S
C7679 C7678 1.362 . S
H7680 C7686 0.930 . S
H7681 C7689 0.930 . S
H7682 C7690 0.930 . S
H7683 C7691 0.930 . S
H7684 C7694 0.930 . S
H7685 C7695 0.930 . S
C7686 H7680 0.930 . S
C7686 C7687 1.355 . S
C7686 C7688 1.415 . S
C7687 C7686 1.355 . S
C7687 C7689 1.419 . S
C7688 C7686 1.415 . S
C7688 C7693 1.425 . S
C7688 C7695 1.409 . S
C7689 H7681 0.930 . S
C7689 C7687 1.419 . S
C7689 C7690 1.362 . S
C7690 H7682 0.930 . S
C7690 C7689 1.362 . S
C7690 C7693 1.409 . S
C7691 H7683 0.930 . S
C7691 C7692 1.355 . S
C7691 C7693 1.415 . S
C7692 C7691 1.355 . S
C7692 C7694 1.419 . S
C7693 C7688 1.425 . S
C7693 C7690 1.409 . S
C7693 C7691 1.415 . S
C7694 H7684 0.930 . S
C7694 C7692 1.419 . S
C7694 C7695 1.362 . S
C7695 H7685 0.930 . S
C7695 C7688 1.409 . S
C7695 C7694 1.362 . S
H7696 C7702 0.930 . S
H7697 C7705 0.930 . S
H7698 C7706 0.930 . S
H7699 C7707 0.930 . S
H7700 C7710 0.930 . S
H7701 C7711 0.930 . S
C7702 H7696 0.930 . S
C7702 C7703 1.355 . S
C7702 C7704 1.415 . S
C7703 C7702 1.355 . S
C7703 C7705 1.419 . S
C7704 C7702 1.415 . S
C7704 C7709 1.425 . S
C7704 C7711 1.409 . S
C7705 H7697 0.930 . S
C7705 C7703 1.419 . S
C7705 C7706 1.362 . S
C7706 H7698 0.930 . S
C7706 C7705 1.362 . S
C7706 C7709 1.409 . S
C7707 H7699 0.930 . S
C7707 C7708 1.355 . S
C7707 C7709 1.415 . S
C7708 C7707 1.355 . S
C7708 C7710 1.419 . S
C7709 C7704 1.425 . S
C7709 C7706 1.409 . S
C7709 C7707 1.415 . S
C7710 H7700 0.930 . S
C7710 C7708 1.419 . S
C7710 C7711 1.362 . S
C7711 H7701 0.930 . S
C7711 C7704 1.409 . S
C7711 C7710 1.362 . S
H7712 C7718 0.930 . S
H7713 C7721 0.930 . S
H7714 C7722 0.930 . S
H7715 C7723 0.930 . S
H7716 C7726 0.930 . S
H7717 C7727 0.930 . S
C7718 H7712 0.930 . S
C7718 C7719 1.355 . S
C7718 C7720 1.415 . S
C7719 C7718 1.355 . S
C7719 C7721 1.419 . S
C7720 C7718 1.415 . S
C7720 C7725 1.425 . S
C7720 C7727 1.409 . S
C7721 H7713 0.930 . S
C7721 C7719 1.419 . S
C7721 C7722 1.362 . S
C7722 H7714 0.930 . S
C7722 C7721 1.362 . S
C7722 C7725 1.409 . S
C7723 H7715 0.930 . S
C7723 C7724 1.355 . S
C7723 C7725 1.415 . S
C7724 C7723 1.355 . S
C7724 C7726 1.419 . S
C7725 C7720 1.425 . S
C7725 C7722 1.409 . S
C7725 C7723 1.415 . S
C7726 H7716 0.930 . S
C7726 C7724 1.419 . S
C7726 C7727 1.362 . S
C7727 H7717 0.930 . S
C7727 C7720 1.409 . S
C7727 C7726 1.362 . S
H7728 C7734 0.930 . S
H7729 C7737 0.930 . S
H7730 C7738 0.930 . S
H7731 C7739 0.930 . S
H7732 C7742 0.930 . S
H7733 C7743 0.930 . S
C7734 H7728 0.930 . S
C7734 C7735 1.355 . S
C7734 C7736 1.415 . S
C7735 C7734 1.355 . S
C7735 C7737 1.419 . S
C7736 C7734 1.415 . S
C7736 C7741 1.425 . S
C7736 C7743 1.409 . S
C7737 H7729 0.930 . S
C7737 C7735 1.419 . S
C7737 C7738 1.362 . S
C7738 H7730 0.930 . S
C7738 C7737 1.362 . S
C7738 C7741 1.409 . S
C7739 H7731 0.930 . S
C7739 C7740 1.355 . S
C7739 C7741 1.415 . S
C7740 C7739 1.355 . S
C7740 C7742 1.419 . S
C7741 C7736 1.425 . S
C7741 C7738 1.409 . S
C7741 C7739 1.415 . S
C7742 H7732 0.930 . S
C7742 C7740 1.419 . S
C7742 C7743 1.362 . S
C7743 H7733 0.930 . S
C7743 C7736 1.409 . S
C7743 C7742 1.362 . S
H7744 C7750 0.930 . S
H7745 C7753 0.930 . S
H7746 C7754 0.930 . S
H7747 C7755 0.930 . S
H7748 C7758 0.930 . S
H7749 C7759 0.930 . S
C7750 H7744 0.930 . S
C7750 C7751 1.355 . S
C7750 C7752 1.415 . S
C7751 C7750 1.355 . S
C7751 C7753 1.419 . S
C7752 C7750 1.415 . S
C7752 C7757 1.425 . S
C7752 C7759 1.409 . S
C7753 H7745 0.930 . S
C7753 C7751 1.419 . S
C7753 C7754 1.362 . S
C7754 H7746 0.930 . S
C7754 C7753 1.362 . S
C7754 C7757 1.409 . S
C7755 H7747 0.930 . S
C7755 C7756 1.355 . S
C7755 C7757 1.415 . S
C7756 C7755 1.355 . S
C7756 C7758 1.419 . S
C7757 C7752 1.425 . S
C7757 C7754 1.409 . S
C7757 C7755 1.415 . S
C7758 H7748 0.930 . S
C7758 C7756 1.419 . S
C7758 C7759 1.362 . S
C7759 H7749 0.930 . S
C7759 C7752 1.409 . S
C7759 C7758 1.362 . S
H7760 C7766 0.930 . S
H7761 C7769 0.930 . S
H7762 C7770 0.930 . S
H7763 C7771 0.930 . S
H7764 C7774 0.930 . S
H7765 C7775 0.930 . S
C7766 H7760 0.930 . S
C7766 C7767 1.355 . S
C7766 C7768 1.415 . S
C7767 C7766 1.355 . S
C7767 C7769 1.419 . S
C7768 C7766 1.415 . S
C7768 C7773 1.425 . S
C7768 C7775 1.409 . S
C7769 H7761 0.930 . S
C7769 C7767 1.419 . S
C7769 C7770 1.362 . S
C7770 H7762 0.930 . S
C7770 C7769 1.362 . S
C7770 C7773 1.409 . S
C7771 H7763 0.930 . S
C7771 C7772 1.355 . S
C7771 C7773 1.415 . S
C7772 C7771 1.355 . S
C7772 C7774 1.419 . S
C7773 C7768 1.425 . S
C7773 C7770 1.409 . S
C7773 C7771 1.415 . S
C7774 H7764 0.930 . S
C7774 C7772 1.419 . S
C7774 C7775 1.362 . S
C7775 H7765 0.930 . S
C7775 C7768 1.409 . S
C7775 C7774 1.362 . S
H7776 C7782 0.930 . S
H7777 C7785 0.930 . S
H7778 C7786 0.930 . S
H7779 C7787 0.930 . S
H7780 C7790 0.930 . S
H7781 C7791 0.930 . S
C7782 H7776 0.930 . S
C7782 C7783 1.355 . S
C7782 C7784 1.415 . S
C7783 C7782 1.355 . S
C7783 C7785 1.419 . S
C7784 C7782 1.415 . S
C7784 C7789 1.425 . S
C7784 C7791 1.409 . S
C7785 H7777 0.930 . S
C7785 C7783 1.419 . S
C7785 C7786 1.362 . S
C7786 H7778 0.930 . S
C7786 C7785 1.362 . S
C7786 C7789 1.409 . S
C7787 H7779 0.930 . S
C7787 C7788 1.355 . S
C7787 C7789 1.415 . S
C7788 C7787 1.355 . S
C7788 C7790 1.419 . S
C7789 C7784 1.425 . S
C7789 C7786 1.409 . S
C7789 C7787 1.415 . S
C7790 H7780 0.930 . S
C7790 C7788 1.419 . S
C7790 C7791 1.362 . S
C7791 H7781 0.930 . S
C7791 C7784 1.409 . S
C7791 C7790 1.362 . S
H7792 C7798 0.930 . S
H7793 C7801 0.930 . S
H7794 C7802 0.930 . S
H7795 C7803 0.930 . S
H7796 C7806 0.930 . S
H7797 C7807 0.930 . S
C7798 H7792 0.930 . S
C7798 C7799 1.355 . S
C7798 C7800 1.415 . S
C7799 C7798 1.355 . S
C7799 C7801 1.419 . S
C7800 C7798 1.415 . S
C7800 C7805 1.425 . S
C7800 C7807 1.409 . S
C7801 H7793 0.930 . S
C7801 C7799 1.419 . S
C7801 C7802 1.362 . S
C7802 H7794 0.930 . S
C7802 C7801 1.362 . S
C7802 C7805 1.409 . S
C7803 H7795 0.930 . S
C7803 C7804 1.355 . S
C7803 C7805 1.415 . S
C7804 C7803 1.355 . S
C7804 C7806 1.419 . S
C7805 C7800 1.425 . S
C7805 C7802 1.409 . S
C7805 C7803 1.415 . S
C7806 H7796 0.930 . S
C7806 C7804 1.419 . S
C7806 C7807 1.362 . S
C7807 H7797 0.930 . S
C7807 C7800 1.409 . S
C7807 C7806 1.362 . S
H7808 C7814 0.930 . S
H7809 C7817 0.930 . S
H7810 C7818 0.930 . S
H7811 C7819 0.930 . S
H7812 C7822 0.930 . S
H7813 C7823 0.930 . S
C7814 H7808 0.930 . S
C7814 C7815 1.355 . S
C7814 C7816 1.415 . S
C7815 C7814 1.355 . S
C7815 C7817 1.419 . S
C7816 C7814 1.415 . S
C7816 C7821 1.425 . S
C7816 C7823 1.409 . S
C7817 H7809 0.930 . S
C7817 C7815 1.419 . S
C7817 C7818 1.362 . S
C7818 H7810 0.930 . S
C7818 C7817 1.362 . S
C7818 C7821 1.409 . S
C7819 H7811 0.930 . S
C7819 C7820 1.355 . S
C7819 C7821 1.415 . S
C7820 C7819 1.355 . S
C7820 C7822 1.419 . S
C7821 C7816 1.425 . S
C7821 C7818 1.409 . S
C7821 C7819 1.415 . S
C7822 H7812 0.930 . S
C7822 C7820 1.419 . S
C7822 C7823 1.362 . S
C7823 H7813 0.930 . S
C7823 C7816 1.409 . S
C7823 C7822 1.362 . S
H7824 C7830 0.930 . S
H7825 C7833 0.930 . S
H7826 C7834 0.930 . S
H7827 C7835 0.930 . S
H7828 C7838 0.930 . S
H7829 C7839 0.930 . S
C7830 H7824 0.930 . S
C7830 C7831 1.355 . S
C7830 C7832 1.415 . S
C7831 C7830 1.355 . S
C7831 C7833 1.419 . S
C7832 C7830 1.415 . S
C7832 C7837 1.425 . S
C7832 C7839 1.409 . S
C7833 H7825 0.930 . S
C7833 C7831 1.419 . S
C7833 C7834 1.362 . S
C7834 H7826 0.930 . S
C7834 C7833 1.362 . S
C7834 C7837 1.409 . S
C7835 H7827 0.930 . S
C7835 C7836 1.355 . S
C7835 C7837 1.415 . S
C7836 C7835 1.355 . S
C7836 C7838 1.419 . S
C7837 C7832 1.425 . S
C7837 C7834 1.409 . S
C7837 C7835 1.415 . S
C7838 H7828 0.930 . S
C7838 C7836 1.419 . S
C7838 C7839 1.362 . S
C7839 H7829 0.930 . S
C7839 C7832 1.409 . S
C7839 C7838 1.362 . S
H7840 C7846 0.930 . S
H7841 C7849 0.930 . S
H7842 C7850 0.930 . S
H7843 C7851 0.930 . S
H7844 C7854 0.930 . S
H7845 C7855 0.930 . S
C7846 H7840 0.930 . S
C7846 C7847 1.355 . S
C7846 C7848 1.415 . S
C7847 C7846 1.355 . S
C7847 C7849 1.419 . S
C7848 C7846 1.415 . S
C7848 C7853 1.425 . S
C7848 C7855 1.409 . S
C7849 H7841 0.930 . S
C7849 C7847 1.419 . S
C7849 C7850 1.362 . S
C7850 H7842 0.930 . S
C7850 C7849 1.362 . S
C7850 C7853 1.409 . S
C7851 H7843 0.930 . S
C7851 C7852 1.355 . S
C7851 C7853 1.415 . S
C7852 C7851 1.355 . S
C7852 C7854 1.419 . S
C7853 C7848 1.425 . S
C7853 C7850 1.409 . S
C7853 C7851 1.415 . S
C7854 H7844 0.930 . S
C7854 C7852 1.419 . S
C7854 C7855 1.362 . S
C7855 H7845 0.930 . S
C7855 C7848 1.409 . S
C7855 C7854 1.362 . S
H7856 C7862 0.930 . S
H7857 C7865 0.930 . S
H7858 C7866 0.930 . S
H7859 C7867 0.930 . S
H7860 C7870 0.930 . S
H7861 C7871 0.930 . S
C7862 H7856 0.930 . S
C7862 C7863 1.355 . S
C7862 C7864 1.415 . S
C7863 C7862 1.355 . S
C7863 C7865 1.419 . S
C7864 C7862 1.415 . S
C7864 C7869 1.425 . S
C7864 C7871 1.409 . S
C7865 H7857 0.930 . S
C7865 C7863 1.419 . S
C7865 C7866 1.362 . S
C7866 H7858 0.930 . S
C7866 C7865 1.362 . S
C7866 C7869 1.409 . S
C7867 H7859 0.930 . S
C7867 C7868 1.355 . S
C7867 C7869 1.415 . S
C7868 C7867 1.355 . S
C7868 C7870 1.419 . S
C7869 C7864 1.425 . S
C7869 C7866 1.409 . S
C7869 C7867 1.415 . S
C7870 H7860 0.930 . S
C7870 C7868 1.419 . S
C7870 C7871 1.362 . S
C7871 H7861 0.930 . S
C7871 C7864 1.409 . S
C7871 C7870 1.362 . S
H7872 C7878 0.930 . S
H7873 C7881 0.930 . S
H7874 C7882 0.930 . S
H7875 C7883 0.930 . S
H7876 C7886 0.930 . S
H7877 C7887 0.930 . S
C7878 H7872 0.930 . S
C7878 C7879 1.355 . S
C7878 C7880 1.415 . S
C7879 C7878 1.355 . S
C7879 C7881 1.419 . S
C7880 C7878 1.415 . S
C7880 C7885 1.425 . S
C7880 C7887 1.409 . S
C7881 H7873 0.930 . S
C7881 C7879 1.419 . S
C7881 C7882 1.362 . S
C7882 H7874 0.930 . S
C7882 C7881 1.362 . S
C7882 C7885 1.409 . S
C7883 H7875 0.930 . S
C7883 C7884 1.355 . S
C7883 C7885 1.415 . S
C7884 C7883 1.355 . S
C7884 C7886 1.419 . S
C7885 C7880 1.425 . S
C7885 C7882 1.409 . S
C7885 C7883 1.415 . S
C7886 H7876 0.930 . S
C7886 C7884 1.419 . S
C7886 C7887 1.362 . S
C7887 H7877 0.930 . S
C7887 C7880 1.409 . S
C7887 C7886 1.362 . S
H7888 C7894 0.930 . S
H7889 C7897 0.930 . S
H7890 C7898 0.930 . S
H7891 C7899 0.930 . S
H7892 C7902 0.930 . S
H7893 C7903 0.930 . S
C7894 H7888 0.930 . S
C7894 C7895 1.355 . S
C7894 C7896 1.415 . S
C7895 C7894 1.355 . S
C7895 C7897 1.419 . S
C7896 C7894 1.415 . S
C7896 C7901 1.425 . S
C7896 C7903 1.409 . S
C7897 H7889 0.930 . S
C7897 C7895 1.419 . S
C7897 C7898 1.362 . S
C7898 H7890 0.930 . S
C7898 C7897 1.362 . S
C7898 C7901 1.409 . S
C7899 H7891 0.930 . S
C7899 C7900 1.355 . S
C7899 C7901 1.415 . S
C7900 C7899 1.355 . S
C7900 C7902 1.419 . S
C7901 C7896 1.425 . S
C7901 C7898 1.409 . S
C7901 C7899 1.415 . S
C7902 H7892 0.930 . S
C7902 C7900 1.419 . S
C7902 C7903 1.362 . S
C7903 H7893 0.930 . S
C7903 C7896 1.409 . S
C7903 C7902 1.362 . S
H7904 C7910 0.930 . S
H7905 C7913 0.930 . S
H7906 C7914 0.930 . S
H7907 C7915 0.930 . S
H7908 C7918 0.930 . S
H7909 C7919 0.930 . S
C7910 H7904 0.930 . S
C7910 C7911 1.355 . S
C7910 C7912 1.415 . S
C7911 C7910 1.355 . S
C7911 C7913 1.419 . S
C7912 C7910 1.415 . S
C7912 C7917 1.425 . S
C7912 C7919 1.409 . S
C7913 H7905 0.930 . S
C7913 C7911 1.419 . S
C7913 C7914 1.362 . S
C7914 H7906 0.930 . S
C7914 C7913 1.362 . S
C7914 C7917 1.409 . S
C7915 H7907 0.930 . S
C7915 C7916 1.355 . S
C7915 C7917 1.415 . S
C7916 C7915 1.355 . S
C7916 C7918 1.419 . S
C7917 C7912 1.425 . S
C7917 C7914 1.409 . S
C7917 C7915 1.415 . S
C7918 H7908 0.930 . S
C7918 C7916 1.419 . S
C7918 C7919 1.362 . S
C7919 H7909 0.930 . S
C7919 C7912 1.409 . S
C7919 C7918 1.362 . S
H7920 C7926 0.930 . S
H7921 C7929 0.930 . S
H7922 C7930 0.930 . S
H7923 C7931 0.930 . S
H7924 C7934 0.930 . S
H7925 C7935 0.930 . S
C7926 H7920 0.930 . S
C7926 C7927 1.355 . S
C7926 C7928 1.415 . S
C7927 C7926 1.355 . S
C7927 C7929 1.419 . S
C7928 C7926 1.415 . S
C7928 C7933 1.425 . S
C7928 C7935 1.409 . S
C7929 H7921 0.930 . S
C7929 C7927 1.419 . S
C7929 C7930 1.362 . S
C7930 H7922 0.930 . S
C7930 C7929 1.362 . S
C7930 C7933 1.409 . S
C7931 H7923 0.930 . S
C7931 C7932 1.355 . S
C7931 C7933 1.415 . S
C7932 C7931 1.355 . S
C7932 C7934 1.419 . S
C7933 C7928 1.425 . S
C7933 C7930 1.409 . S
C7933 C7931 1.415 . S
C7934 H7924 0.930 . S
C7934 C7932 1.419 . S
C7934 C7935 1.362 . S
C7935 H7925 0.930 . S
C7935 C7928 1.409 . S
C7935 C7934 1.362 . S
H7936 C7942 0.930 . S
H7937 C7945 0.930 . S
H7938 C7946 0.930 . S
H7939 C7947 0.930 . S
H7940 C7950 0.930 . S
H7941 C7951 0.930 . S
C7942 H7936 0.930 . S
C7942 C7943 1.355 . S
C7942 C7944 1.415 . S
C7943 C7942 1.355 . S
C7943 C7945 1.419 . S
C7944 C7942 1.415 . S
C7944 C7949 1.425 . S
C7944 C7951 1.409 . S
C7945 H7937 0.930 . S
C7945 C7943 1.419 . S
C7945 C7946 1.362 . S
C7946 H7938 0.930 . S
C7946 C7945 1.362 . S
C7946 C7949 1.409 . S
C7947 H7939 0.930 . S
C7947 C7948 1.355 . S
C7947 C7949 1.415 . S
C7948 C7947 1.355 . S
C7948 C7950 1.419 . S
C7949 C7944 1.425 . S
C7949 C7946 1.409 . S
C7949 C7947 1.415 . S
C7950 H7940 0.930 . S
C7950 C7948 1.419 . S
C7950 C7951 1.362 . S
C7951 H7941 0.930 . S
C7951 C7944 1.409 . S
C7951 C7950 1.362 . S
H7952 C7958 0.930 . S
H7953 C7961 0.930 . S
H7954 C7962 0.930 . S
H7955 C7963 0.930 . S
H7956 C7966 0.930 . S
H7957 C7967 0.930 . S
C7958 H7952 0.930 . S
C7958 C7959 1.355 . S
C7958 C7960 1.415 . S
C7959 C7958 1.355 . S
C7959 C7961 1.419 . S
C7960 C7958 1.415 . S
C7960 C7965 1.425 . S
C7960 C7967 1.409 . S
C7961 H7953 0.930 . S
C7961 C7959 1.419 . S
C7961 C7962 1.362 . S
C7962 H7954 0.930 . S
C7962 C7961 1.362 . S
C7962 C7965 1.409 . S
C7963 H7955 0.930 . S
C7963 C7964 1.355 . S
C7963 C7965 1.415 . S
C7964 C7963 1.355 . S
C7964 C7966 1.419 . S
C7965 C7960 1.425 . S
C7965 C7962 1.409 . S
C7965 C7963 1.415 . S
C7966 H7956 0.930 . S
C7966 C7964 1.419 . S
C7966 C7967 1.362 . S
C7967 H7957 0.930 . S
C7967 C7960 1.409 . S
C7967 C7966 1.362 . S
H7968 C7974 0.930 . S
H7969 C7977 0.930 . S
H7970 C7978 0.930 . S
H7971 C7979 0.930 . S
H7972 C7982 0.930 . S
H7973 C7983 0.930 . S
C7974 H7968 0.930 . S
C7974 C7975 1.355 . S
C7974 C7976 1.415 . S
C7975 C7974 1.355 . S
C7975 C7977 1.419 . S
C7976 C7974 1.415 . S
C7976 C7981 1.425 . S
C7976 C7983 1.409 . S
C7977 H7969 0.930 . S
C7977 C7975 1.419 . S
C7977 C7978 1.362 . S
C7978 H7970 0.930 . S
C7978 C7977 1.362 . S
C7978 C7981 1.409 . S
C7979 H7971 0.930 . S
C7979 C7980 1.355 . S
C7979 C7981 1.415 . S
C7980 C7979 1.355 . S
C7980 C7982 1.419 . S
C7981 C7976 1.425 . S
C7981 C7978 1.409 . S
C7981 C7979 1.415 . S
C7982 H7972 0.930 . S
C7982 C7980 1.419 . S
C7982 C7983 1.362 . S
C7983 H7973 0.930 . S
C7983 C7976 1.409 . S
C7983 C7982 1.362 . S
H7984 C7990 0.930 . S
H7985 C7993 0.930 . S
H7986 C7994 0.930 . S
H7987 C7995 0.930 . S
H7988 C7998 0.930 . S
H7989 C7999 0.930 . S
C7990 H7984 0.930 . S
C7990 C7991 1.355 . S
C7990 C7992 1.415 . S
C7991 C7990 1.355 . S
C7991 C7993 1.419 . S
C7992 C7990 1.415 . S
C7992 C7997 1.425 . S
C7992 C7999 1.409 . S
C7993 H7985 0.930 . S
C7993 C7991 1.419 . S
C7993 C7994 1.362 . S
C7994 H7986 0.930 . S
C7994 C7993 1.362 . S
C7994 C7997 1.409 . S
C7995 H7987 0.930 . S
C7995 C7996 1.355 . S
C7995 C7997 1.415 . S
C7996 C7995 1.355 . S
C7996 C7998 1.419 . S
C7997 C7992 1.425 . S
C7997 C7994 1.409 . S
C7997 C7995 1.415 . S
C7998 H7988 0.930 . S
C7998 C7996 1.419 . S
C7998 C7999 1.362 . S
C7999 H7989 0.930 . S
C7999 C7992 1.409 . S
C7999 C7998 1.362 . S
H8000 C8006 0.930 . S
H8001 C8009 0.930 . S
H8002 C8010 0.930 . S
H8003 C8011 0.930 . S
H8004 C8014 0.930 . S
H8005 C8015 0.930 . S
C8006 H8000 0.930 . S
C8006 C8007 1.355 . S
C8006 C8008 1.415 . S
C8007 C8006 1.355 . S
C8007 C8009 1.419 . S
C8008 C8006 1.415 . S
C8008 C8013 1.425 . S
C8008 C8015 1.409 . S
C8009 H8001 0.930 . S
C8009 C8007 1.419 . S
C8009 C8010 1.362 . S
C8010 H8002 0.930 . S
C8010 C8009 1.362 . S
C8010 C8013 1.409 . S
C8011 H8003 0.930 . S
C8011 C8012 1.355 . S
C8011 C8013 1.415 . S
C8012 C8011 1.355 . S
C8012 C8014 1.419 . S
C8013 C8008 1.425 . S
C8013 C8010 1.409 . S
C8013 C8011 1.415 . S
C8014 H8004 0.930 . S
C8014 C8012 1.419 . S
C8014 C8015 1.362 . S
C8015 H8005 0.930 . S
C8015 C8008 1.409 . S
C8015 C8014 1.362 . S
H8016 C8022 0.930 . S
H8017 C8025 0.930 . S
H8018 C8026 0.930 . S
H8019 C8027 0.930 . S
H8020 C8030 0.930 . S
H8021 C8031 0.930 . S
C8022 H8016 0.930 . S
C8022 C8023 1.355 . S
C8022 C8024 1.415 . S
C8023 C8022 1.355 . S
C8023 C8025 1.419 . S
C8024 C8022 1.415 . S
C8024 C8029 1.425 . S
C8024 C8031 1.409 . S
C8025 H8017 0.930 . S
C8025 C8023 1.419 . S
C8025 C8026 1.362 . S
C8026 H8018 0.930 . S
C8026 C8025 1.362 . S
C8026 C8029 1.409 . S
C8027 H8019 0.930 . S
C8027 C8028 1.355 . S
C8027 C8029 1.415 . S
C8028 C8027 1.355 . S
C8028 C8030 1.419 . S
C8029 C8024 1.425 . S
C8029 C8026 1.409 . S
C8029 C8027 1.415 . S
C8030 H8020 0.930 . S
C8030 C8028 1.419 . S
C8030 C8031 1.362 . S
C8031 H8021 0.930 . S
C8031 C8024 1.409 . S
C8031 C8030 1.362 . S
H8032 C8038 0.930 . S
H8033 C8041 0.930 . S
H8034 C8042 0.930 . S
H8035 C8043 0.930 . S
H8036 C8046 0.930 . S
H8037 C8047 0.930 . S
C8038 H8032 0.930 . S
C8038 C8039 1.355 . S
C8038 C8040 1.415 . S
C8039 C8038 1.355 . S
C8039 C8041 1.419 . S
C8040 C8038 1.415 . S
C8040 C8045 1.425 . S
C8040 C8047 1.409 . S
C8041 H8033 0.930 . S
C8041 C8039 1.419 . S
C8041 C8042 1.362 . S
C8042 H8034 0.930 . S
C8042 C8041 1.362 . S
C8042 C8045 1.409 . S
C8043 H8035 0.930 . S
C8043 C8044 1.355 . S
C8043 C8045 1.415 . S
C8044 C8043 1.355 . S
C8044 C8046 1.419 . S
C8045 C8040 1.425 . S
C8045 C8042 1.409 . S
C8045 C8043 1.415 . S
C8046 H8036 0.930 . S
C8046 C8044 1.419 . S
C8046 C8047 1.362 . S
C8047 H8037 0.930 . S
C8047 C8040 1.409 . S
C8047 C8046 1.362 . S
H8048 C8054 0.930 . S
H8049 C8057 0.930 . S
H8050 C8058 0.930 . S
H8051 C8059 0.930 . S
H8052 C8062 0.930 . S
H8053 C8063 0.930 . S
C8054 H8048 0.930 . S
C8054 C8055 1.355 . S
C8054 C8056 1.415 . S
C8055 C8054 1.355 . S
C8055 C8057 1.419 . S
C8056 C8054 1.415 . S
C8056 C8061 1.425 . S
C8056 C8063 1.409 . S
C8057 H8049 0.930 . S
C8057 C8055 1.419 . S
C8057 C8058 1.362 . S
C8058 H8050 0.930 . S
C8058 C8057 1.362 . S
C8058 C8061 1.409 . S
C8059 H8051 0.930 . S
C8059 C8060 1.355 . S
C8059 C8061 1.415 . S
C8060 C8059 1.355 . S
C8060 C8062 1.419 . S
C8061 C8056 1.425 . S
C8061 C8058 1.409 . S
C8061 C8059 1.415 . S
C8062 H8052 0.930 . S
C8062 C8060 1.419 . S
C8062 C8063 1.362 . S
C8063 H8053 0.930 . S
C8063 C8056 1.409 . S
C8063 C8062 1.362 . S
H8064 C8070 0.930 . S
H8065 C8073 0.930 . S
H8066 C8074 0.930 . S
H8067 C8075 0.930 . S
H8068 C8078 0.930 . S
H8069 C8079 0.930 . S
C8070 H8064 0.930 . S
C8070 C8071 1.355 . S
C8070 C8072 1.415 . S
C8071 C8070 1.355 . S
C8071 C8073 1.419 . S
C8072 C8070 1.415 . S
C8072 C8077 1.425 . S
C8072 C8079 1.409 . S
C8073 H8065 0.930 . S
C8073 C8071 1.419 . S
C8073 C8074 1.362 . S
C8074 H8066 0.930 . S
C8074 C8073 1.362 . S
C8074 C8077 1.409 . S
C8075 H8067 0.930 . S
C8075 C8076 1.355 . S
C8075 C8077 1.415 . S
C8076 C8075 1.355 . S
C8076 C8078 1.419 . S
C8077 C8072 1.425 . S
C8077 C8074 1.409 . S
C8077 C8075 1.415 . S
C8078 H8068 0.930 . S
C8078 C8076 1.419 . S
C8078 C8079 1.362 . S
C8079 H8069 0.930 . S
C8079 C8072 1.409 . S
C8079 C8078 1.362 . S
H8080 C8086 0.930 . S
H8081 C8089 0.930 . S
H8082 C8090 0.930 . S
H8083 C8091 0.930 . S
H8084 C8094 0.930 . S
H8085 C8095 0.930 . S
C8086 H8080 0.930 . S
C8086 C8087 1.355 . S
C8086 C8088 1.415 . S
C8087 C8086 1.355 . S
C8087 C8089 1.419 . S
C8088 C8086 1.415 . S
C8088 C8093 1.425 . S
C8088 C8095 1.409 . S
C8089 H8081 0.930 . S
C8089 C8087 1.419 . S
C8089 C8090 1.362 . S
C8090 H8082 0.930 . S
C8090 C8089 1.362 . S
C8090 C8093 1.409 . S
C8091 H8083 0.930 . S
C8091 C8092 1.355 . S
C8091 C8093 1.415 . S
C8092 C8091 1.355 . S
C8092 C8094 1.419 . S
C8093 C8088 1.425 . S
C8093 C8090 1.409 . S
C8093 C8091 1.415 . S
C8094 H8084 0.930 . S
C8094 C8092 1.419 . S
C8094 C8095 1.362 . S
C8095 H8085 0.930 . S
C8095 C8088 1.409 . S
C8095 C8094 1.362 . S
H8096 C8102 0.930 . S
H8097 C8105 0.930 . S
H8098 C8106 0.930 . S
H8099 C8107 0.930 . S
H8100 C8110 0.930 . S
H8101 C8111 0.930 . S
C8102 H8096 0.930 . S
C8102 C8103 1.355 . S
C8102 C8104 1.415 . S
C8103 C8102 1.355 . S
C8103 C8105 1.419 . S
C8104 C8102 1.415 . S
C8104 C8109 1.425 . S
C8104 C8111 1.409 . S
C8105 H8097 0.930 . S
C8105 C8103 1.419 . S
C8105 C8106 1.362 . S
C8106 H8098 0.930 . S
C8106 C8105 1.362 . S
C8106 C8109 1.409 . S
C8107 H8099 0.930 . S
C8107 C8108 1.355 . S
C8107 C8109 1.415 . S
C8108 C8107 1.355 . S
C8108 C8110 1.419 . S
C8109 C8104 1.425 . S
C8109 C8106 1.409 . S
C8109 C8107 1.415 . S
C8110 H8100 0.930 . S
C8110 C8108 1.419 . S
C8110 C8111 1.362 . S
C8111 H8101 0.930 . S
C8111 C8104 1.409 . S
C8111 C8110 1.362 . S
H8112 C8118 0.930 . S
H8113 C8121 0.930 . S
H8114 C8122 0.930 . S
H8115 C8123 0.930 . S
H8116 C8126 0.930 . S
H8117 C8127 0.930 . S
C8118 H8112 0.930 . S
C8118 C8119 1.355 . S
C8118 C8120 1.415 . S
C8119 C8118 1.355 . S
C8119 C8121 1.419 . S
C8120 C8118 1.415 . S
C8120 C8125 1.425 . S
C8120 C8127 1.409 . S
C8121 H8113 0.930 . S
C8121 C8119 1.419 . S
C8121 C8122 1.362 . S
C8122 H8114 0.930 . S
C8122 C8121 1.362 . S
C8122 C8125 1.409 . S
C8123 H8115 0.930 . S
C8123 C8124 1.355 . S
C8123 C8125 1.415 . S
C8124 C8123 1.355 . S
C8124 C8126 1.419 . S
C8125 C8120 1.425 . S
C8125 C8122 1.409 . S
C8125 C8123 1.415 . S
C8126 H8116 0.930 . S
C8126 C8124 1.419 . S
C8126 C8127 1.362 . S
C8127 H8117 0.930 . S
C8127 C8120 1.409 . S
C8127 C8126 1.362 . S
H8128 C8134 0.930 . S
H8129 C8137 0.930 . S
H8130 C8138 0.930 . S
H8131 C8139 0.930 . S
H8132 C8142 0.930 . S
H8133 C8143 0.930 . S
C8134 H8128 0.930 . S
C8134 C8135 1.355 . S
C8134 C8136 1.415 . S
C8135 C8134 1.355 . S
C8135 C8137 1.419 . S
C8136 C8134 1.415 . S
C8136 C8141 1.425 . S
C8136 C8143 1.409 . S
C8137 H8129 0.930 . S
C8137 C8135 1.419 . S
C8137 C8138 1.362 . S
C8138 H8130 0.930 . S
C8138 C8137 1.362 . S
C8138 C8141 1.409 . S
C8139 H8131 0.930 . S
C8139 C8140 1.355 . S
C8139 C8141 1.415 . S
C8140 C8139 1.355 . S
C8140 C8142 1.419 . S
C8141 C8136 1.425 . S
C8141 C8138 1.409 . S
C8141 C8139 1.415 . S
C8142 H8132 0.930 . S
C8142 C8140 1.419 . S
C8142 C8143 1.362 . S
C8143 H8133 0.930 . S
C8143 C8136 1.409 . S
C8143 C8142 1.362 . S
H8144 C8150 0.930 . S
H8145 C8153 0.930 . S
H8146 C8154 0.930 . S
H8147 C8155 0.930 . S
H8148 C8158 0.930 . S
H8149 C8159 0.930 . S
C8150 H8144 0.930 . S
C8150 C8151 1.355 . S
C8150 C8152 1.415 . S
C8151 C8150 1.355 . S
C8151 C8153 1.419 . S
C8152 C8150 1.415 . S
C8152 C8157 1.425 . S
C8152 C8159 1.409 . S
C8153 H8145 0.930 . S
C8153 C8151 1.419 . S
C8153 C8154 1.362 . S
C8154 H8146 0.930 . S
C8154 C8153 1.362 . S
C8154 C8157 1.409 . S
C8155 H8147 0.930 . S
C8155 C8156 1.355 . S
C8155 C8157 1.415 . S
C8156 C8155 1.355 . S
C8156 C8158 1.419 . S
C8157 C8152 1.425 . S
C8157 C8154 1.409 . S
C8157 C8155 1.415 . S
C8158 H8148 0.930 . S
C8158 C8156 1.419 . S
C8158 C8159 1.362 . S
C8159 H8149 0.930 . S
C8159 C8152 1.409 . S
C8159 C8158 1.362 . S
H8160 C8166 0.930 . S
H8161 C8169 0.930 . S
H8162 C8170 0.930 . S
H8163 C8171 0.930 . S
H8164 C8174 0.930 . S
H8165 C8175 0.930 . S
C8166 H8160 0.930 . S
C8166 C8167 1.355 . S
C8166 C8168 1.415 . S
C8167 C8166 1.355 . S
C8167 C8169 1.419 . S
C8168 C8166 1.415 . S
C8168 C8173 1.425 . S
C8168 C8175 1.409 . S
C8169 H8161 0.930 . S
C8169 C8167 1.419 . S
C8169 C8170 1.362 . S
C8170 H8162 0.930 . S
C8170 C8169 1.362 . S
C8170 C8173 1.409 . S
C8171 H8163 0.930 . S
C8171 C8172 1.355 . S
C8171 C8173 1.415 . S
C8172 C8171 1.355 . S
C8172 C8174 1.419 . S
C8173 C8168 1.425 . S
C8173 C8170 1.409 . S
C8173 C8171 1.415 . S
C8174 H8164 0.930 . S
C8174 C8172 1.419 . S
C8174 C8175 1.362 . S
C8175 H8165 0.930 . S
C8175 C8168 1.409 . S
C8175 C8174 1.362 . S
H8176 C8182 0.930 . S
H8177 C8185 0.930 . S
H8178 C8186 0.930 . S
H8179 C8187 0.930 . S
H8180 C8190 0.930 . S
H8181 C8191 0.930 . S
C8182 H8176 0.930 . S
C8182 C8183 1.355 . S
C8182 C8184 1.415 . S
C8183 C8182 1.355 . S
C8183 C8185 1.419 . S
C8184 C8182 1.415 . S
C8184 C8189 1.425 . S
C8184 C8191 1.409 . S
C8185 H8177 0.930 . S
C8185 C8183 1.419 . S
C8185 C8186 1.362 . S
C8186 H8178 0.930 . S
C8186 C8185 1.362 . S
C8186 C8189 1.409 . S
C8187 H8179 0.930 . S
C8187 C8188 1.355 . S
C8187 C8189 1.415 . S
C8188 C8187 1.355 . S
C8188 C8190 1.419 . S
C8189 C8184 1.425 . S
C8189 C8186 1.409 . S
C8189 C8187 1.415 . S
C8190 H8180 0.930 . S
C8190 C8188 1.419 . S
C8190 C8191 1.362 . S
C8191 H8181 0.930 . S
C8191 C8184 1.409 . S
C8191 C8190 1.362 . S
H8192 C8198 0.930 . S
H8193 C8201 0.930 . S
H8194 C8202 0.930 . S
H8195 C8203 0.930 . S
H8196 C8206 0.930 . S
H8197 C8207 0.930 . S
C8198 H8192 0.930 . S
C8198 C8199 1.355 . S
C8198 C8200 1.415 . S
C8199 C8198 1.355 . S
C8199 C8201 1.419 . S
C8200 C8198 1.415 . S
C8200 C8205 1.425 . S
C8200 C8207 1.409 . S
C8201 H8193 0.930 . S
C8201 C8199 1.419 . S
C8201 C8202 1.362 . S
C8202 H8194 0.930 . S
C8202 C8201 1.362 . S
C8202 C8205 1.409 . S
C8203 H8195 0.930 . S
C8203 C8204 1.355 . S
C8203 C8205 1.415 . S
C8204 C8203 1.355 . S
C8204 C8206 1.419 . S
C8205 C8200 1.425 . S
C8205 C8202 1.409 . S
C8205 C8203 1.415 . S
C8206 H8196 0.930 . S
C8206 C8204 1.419 . S
C8206 C8207 1.362 . S
C8207 H8197 0.930 . S
C8207 C8200 1.409 . S
C8207 C8206 1.362 . S
H8208 C8214 0.930 . S
H8209 C8217 0.930 . S
H8210 C8218 0.930 . S
H8211 C8219 0.930 . S
H8212 C8222 0.930 . S
H8213 C8223 0.930 . S
C8214 H8208 0.930 . S
C8214 C8215 1.355 . S
C8214 C8216 1.415 . S
C8215 C8214 1.355 . S
C8215 C8217 1.419 . S
C8216 C8214 1.415 . S
C8216 C8221 1.425 . S
C8216 C8223 1.409 . S
C8217 H8209 0.930 . S
C8217 C8215 1.419 . S
C8217 C8218 1.362 . S
C8218 H8210 0.930 . S
C8218 C8217 1.362 . S
C8218 C8221 1.409 . S
C8219 H8211 0.930 . S
C8219 C8220 1.355 . S
C8219 C8221 1.415 . S
C8220 C8219 1.355 . S
C8220 C8222 1.419 . S
C8221 C8216 1.425 . S
C8221 C8218 1.409 . S
C8221 C8219 1.415 . S
C8222 H8212 0.930 . S
C8222 C8220 1.419 . S
C8222 C8223 1.362 . S
C8223 H8213 0.930 . S
C8223 C8216 1.409 . S
C8223 C8222 1.362 . S
H8224 C8230 0.930 . S
H8225 C8233 0.930 . S
H8226 C8234 0.930 . S
H8227 C8235 0.930 . S
H8228 C8238 0.930 . S
H8229 C8239 0.930 . S
C8230 H8224 0.930 . S
C8230 C8231 1.355 . S
C8230 C8232 1.415 . S
C8231 C8230 1.355 . S
C8231 C8233 1.419 . S
C8232 C8230 1.415 . S
C8232 C8237 1.425 . S
C8232 C8239 1.409 . S
C8233 H8225 0.930 . S
C8233 C8231 1.419 . S
C8233 C8234 1.362 . S
C8234 H8226 0.930 . S
C8234 C8233 1.362 . S
C8234 C8237 1.409 . S
C8235 H8227 0.930 . S
C8235 C8236 1.355 . S
C8235 C8237 1.415 . S
C8236 C8235 1.355 . S
C8236 C8238 1.419 . S
C8237 C8232 1.425 . S
C8237 C8234 1.409 . S
C8237 C8235 1.415 . S
C8238 H8228 0.930 . S
C8238 C8236 1.419 . S
C8238 C8239 1.362 . S
C8239 H8229 0.930 . S
C8239 C8232 1.409 . S
C8239 C8238 1.362 . S
H8240 C8246 0.930 . S
H8241 C8249 0.930 . S
H8242 C8250 0.930 . S
H8243 C8251 0.930 . S
H8244 C8254 0.930 . S
H8245 C8255 0.930 . S
C8246 H8240 0.930 . S
C8246 C8247 1.355 . S
C8246 C8248 1.415 . S
C8247 C8246 1.355 . S
C8247 C8249 1.419 . S
C8248 C8246 1.415 . S
C8248 C8253 1.425 . S
C8248 C8255 1.409 . S
C8249 H8241 0.930 . S
C8249 C8247 1.419 . S
C8249 C8250 1.362 . S
C8250 H8242 0.930 . S
C8250 C8249 1.362 . S
C8250 C8253 1.409 . S
C8251 H8243 0.930 . S
C8251 C8252 1.355 . S
C8251 C8253 1.415 . S
C8252 C8251 1.355 . S
C8252 C8254 1.419 . S
C8253 C8248 1.425 . S
C8253 C8250 1.409 . S
C8253 C8251 1.415 . S
C8254 H8244 0.930 . S
C8254 C8252 1.419 . S
C8254 C8255 1.362 . S
C8255 H8245 0.930 . S
C8255 C8248 1.409 . S
C8255 C8254 1.362 . S
H8256 C8262 0.930 . S
H8257 C8265 0.930 . S
H8258 C8266 0.930 . S
H8259 C8267 0.930 . S
H8260 C8270 0.930 . S
H8261 C8271 0.930 . S
C8262 H8256 0.930 . S
C8262 C8263 1.355 . S
C8262 C8264 1.415 . S
C8263 C8262 1.355 . S
C8263 C8265 1.419 . S
C8264 C8262 1.415 . S
C8264 C8269 1.425 . S
C8264 C8271 1.409 . S
C8265 H8257 0.930 . S
C8265 C8263 1.419 . S
C8265 C8266 1.362 . S
C8266 H8258 0.930 . S
C8266 C8265 1.362 . S
C8266 C8269 1.409 . S
C8267 H8259 0.930 . S
C8267 C8268 1.355 . S
C8267 C8269 1.415 . S
C8268 C8267 1.355 . S
C8268 C8270 1.419 . S
C8269 C8264 1.425 . S
C8269 C8266 1.409 . S
C8269 C8267 1.415 . S
C8270 H8260 0.930 . S
C8270 C8268 1.419 . S
C8270 C8271 1.362 . S
C8271 H8261 0.930 . S
C8271 C8264 1.409 . S
C8271 C8270 1.362 . S
H8272 C8278 0.930 . S
H8273 C8281 0.930 . S
H8274 C8282 0.930 . S
H8275 C8283 0.930 . S
H8276 C8286 0.930 . S
H8277 C8287 0.930 . S
C8278 H8272 0.930 . S
C8278 C8279 1.355 . S
C8278 C8280 1.415 . S
C8279 C8278 1.355 . S
C8279 C8281 1.419 . S
C8280 C8278 1.415 . S
C8280 C8285 1.425 . S
C8280 C8287 1.409 . S
C8281 H8273 0.930 . S
C8281 C8279 1.419 . S
C8281 C8282 1.362 . S
C8282 H8274 0.930 . S
C8282 C8281 1.362 . S
C8282 C8285 1.409 . S
C8283 H8275 0.930 . S
C8283 C8284 1.355 . S
C8283 C8285 1.415 . S
C8284 C8283 1.355 . S
C8284 C8286 1.419 . S
C8285 C8280 1.425 . S
C8285 C8282 1.409 . S
C8285 C8283 1.415 . S
C8286 H8276 0.930 . S
C8286 C8284 1.419 . S
C8286 C8287 1.362 . S
C8287 H8277 0.930 . S
C8287 C8280 1.409 . S
C8287 C8286 1.362 . S
H8288 C8294 0.930 . S
H8289 C8297 0.930 . S
H8290 C8298 0.930 . S
H8291 C8299 0.930 . S
H8292 C8302 0.930 . S
H8293 C8303 0.930 . S
C8294 H8288 0.930 . S
C8294 C8295 1.355 . S
C8294 C8296 1.415 . S
C8295 C8294 1.355 . S
C8295 C8297 1.419 . S
C8296 C8294 1.415 . S
C8296 C8301 1.425 . S
C8296 C8303 1.409 . S
C8297 H8289 0.930 . S
C8297 C8295 1.419 . S
C8297 C8298 1.362 . S
C8298 H8290 0.930 . S
C8298 C8297 1.362 . S
C8298 C8301 1.409 . S
C8299 H8291 0.930 . S
C8299 C8300 1.355 . S
C8299 C8301 1.415 . S
C8300 C8299 1.355 . S
C8300 C8302 1.419 . S
C8301 C8296 1.425 . S
C8301 C8298 1.409 . S
C8301 C8299 1.415 . S
C8302 H8292 0.930 . S
C8302 C8300 1.419 . S
C8302 C8303 1.362 . S
C8303 H8293 0.930 . S
C8303 C8296 1.409 . S
C8303 C8302 1.362 . S
H8304 C8310 0.930 . S
H8305 C8313 0.930 . S
H8306 C8314 0.930 . S
H8307 C8315 0.930 . S
H8308 C8318 0.930 . S
H8309 C8319 0.930 . S
C8310 H8304 0.930 . S
C8310 C8311 1.355 . S
C8310 C8312 1.415 . S
C8311 C8310 1.355 . S
C8311 C8313 1.419 . S
C8312 C8310 1.415 . S
C8312 C8317 1.425 . S
C8312 C8319 1.409 . S
C8313 H8305 0.930 . S
C8313 C8311 1.419 . S
C8313 C8314 1.362 . S
C8314 H8306 0.930 . S
C8314 C8313 1.362 . S
C8314 C8317 1.409 . S
C8315 H8307 0.930 . S
C8315 C8316 1.355 . S
C8315 C8317 1.415 . S
C8316 C8315 1.355 . S
C8316 C8318 1.419 . S
C8317 C8312 1.425 . S
C8317 C8314 1.409 . S
C8317 C8315 1.415 . S
C8318 H8308 0.930 . S
C8318 C8316 1.419 . S
C8318 C8319 1.362 . S
C8319 H8309 0.930 . S
C8319 C8312 1.409 . S
C8319 C8318 1.362 . S
H8320 C8326 0.930 . S
H8321 C8329 0.930 . S
H8322 C8330 0.930 . S
H8323 C8331 0.930 . S
H8324 C8334 0.930 . S
H8325 C8335 0.930 . S
C8326 H8320 0.930 . S
C8326 C8327 1.355 . S
C8326 C8328 1.415 . S
C8327 C8326 1.355 . S
C8327 C8329 1.419 . S
C8328 C8326 1.415 . S
C8328 C8333 1.425 . S
C8328 C8335 1.409 . S
C8329 H8321 0.930 . S
C8329 C8327 1.419 . S
C8329 C8330 1.362 . S
C8330 H8322 0.930 . S
C8330 C8329 1.362 . S
C8330 C8333 1.409 . S
C8331 H8323 0.930 . S
C8331 C8332 1.355 . S
C8331 C8333 1.415 . S
C8332 C8331 1.355 . S
C8332 C8334 1.419 . S
C8333 C8328 1.425 . S
C8333 C8330 1.409 . S
C8333 C8331 1.415 . S
C8334 H8324 0.930 . S
C8334 C8332 1.419 . S
C8334 C8335 1.362 . S
C8335 H8325 0.930 . S
C8335 C8328 1.409 . S
C8335 C8334 1.362 . S
H8336 C8342 0.930 . S
H8337 C8345 0.930 . S
H8338 C8346 0.930 . S
H8339 C8347 0.930 . S
H8340 C8350 0.930 . S
H8341 C8351 0.930 . S
C8342 H8336 0.930 . S
C8342 C8343 1.355 . S
C8342 C8344 1.415 . S
C8343 C8342 1.355 . S
C8343 C8345 1.419 . S
C8344 C8342 1.415 . S
C8344 C8349 1.425 . S
C8344 C8351 1.409 . S
C8345 H8337 0.930 . S
C8345 C8343 1.419 . S
C8345 C8346 1.362 . S
C8346 H8338 0.930 . S
C8346 C8345 1.362 . S
C8346 C8349 1.409 . S
C8347 H8339 0.930 . S
C8347 C8348 1.355 . S
C8347 C8349 1.415 . S
C8348 C8347 1.355 . S
C8348 C8350 1.419 . S
C8349 C8344 1.425 . S
C8349 C8346 1.409 . S
C8349 C8347 1.415 . S
C8350 H8340 0.930 . S
C8350 C8348 1.419 . S
C8350 C8351 1.362 . S
C8351 H8341 0.930 . S
C8351 C8344 1.409 . S
C8351 C8350 1.362 . S
H8352 C8358 0.930 . S
H8353 C8361 0.930 . S
H8354 C8362 0.930 . S
H8355 C8363 0.930 . S
H8356 C8366 0.930 . S
H8357 C8367 0.930 . S
C8358 H8352 0.930 . S
C8358 C8359 1.355 . S
C8358 C8360 1.415 . S
C8359 C8358 1.355 . S
C8359 C8361 1.419 . S
C8360 C8358 1.415 . S
C8360 C8365 1.425 . S
C8360 C8367 1.409 . S
C8361 H8353 0.930 . S
C8361 C8359 1.419 . S
C8361 C8362 1.362 . S
C8362 H8354 0.930 . S
C8362 C8361 1.362 . S
C8362 C8365 1.409 . S
C8363 H8355 0.930 . S
C8363 C8364 1.355 . S
C8363 C8365 1.415 . S
C8364 C8363 1.355 . S
C8364 C8366 1.419 . S
C8365 C8360 1.425 . S
C8365 C8362 1.409 . S
C8365 C8363 1.415 . S
C8366 H8356 0.930 . S
C8366 C8364 1.419 . S
C8366 C8367 1.362 . S
C8367 H8357 0.930 . S
C8367 C8360 1.409 . S
C8367 C8366 1.362 . S
H8368 C8374 0.930 . S
H8369 C8377 0.930 . S
H8370 C8378 0.930 . S
H8371 C8379 0.930 . S
H8372 C8382 0.930 . S
H8373 C8383 0.930 . S
C8374 H8368 0.930 . S
C8374 C8375 1.355 . S
C8374 C8376 1.415 . S
C8375 C8374 1.355 . S
C8375 C8377 1.419 . S
C8376 C8374 1.415 . S
C8376 C8381 1.425 . S
C8376 C8383 1.409 . S
C8377 H8369 0.930 . S
C8377 C8375 1.419 . S
C8377 C8378 1.362 . S
C8378 H8370 0.930 . S
C8378 C8377 1.362 . S
C8378 C8381 1.409 . S
C8379 H8371 0.930 . S
C8379 C8380 1.355 . S
C8379 C8381 1.415 . S
C8380 C8379 1.355 . S
C8380 C8382 1.419 . S
C8381 C8376 1.425 . S
C8381 C8378 1.409 . S
C8381 C8379 1.415 . S
C8382 H8372 0.930 . S
C8382 C8380 1.419 . S
C8382 C8383 1.362 . S
C8383 H8373 0.930 . S
C8383 C8376 1.409 . S
C8383 C8382 1.362 . S
H8384 C8390 0.930 . S
H8385 C8393 0.930 . S
H8386 C8394 0.930 . S
H8387 C8395 0.930 . S
H8388 C8398 0.930 . S
H8389 C8399 0.930 . S
C8390 H8384 0.930 . S
C8390 C8391 1.355 . S
C8390 C8392 1.415 . S
C8391 C8390 1.355 . S
C8391 C8393 1.419 . S
C8392 C8390 1.415 . S
C8392 C8397 1.425 . S
C8392 C8399 1.409 . S
C8393 H8385 0.930 . S
C8393 C8391 1.419 . S
C8393 C8394 1.362 . S
C8394 H8386 0.930 . S
C8394 C8393 1.362 . S
C8394 C8397 1.409 . S
C8395 H8387 0.930 . S
C8395 C8396 1.355 . S
C8395 C8397 1.415 . S
C8396 C8395 1.355 . S
C8396 C8398 1.419 . S
C8397 C8392 1.425 . S
C8397 C8394 1.409 . S
C8397 C8395 1.415 . S
C8398 H8388 0.930 . S
C8398 C8396 1.419 . S
C8398 C8399 1.362 . S
C8399 H8389 0.930 . S
C8399 C8392 1.409 . S
C8399 C8398 1.362 . S
H8400 C8406 0.930 . S
H8401 C8409 0.930 . S
H8402 C8410 0.930 . S
H8403 C8411 0.930 . S
H8404 C8414 0.930 . S
H8405 C8415 0.930 . S
C8406 H8400 0.930 . S
C8406 C8407 1.355 . S
C8406 C8408 1.415 . S
C8407 C8406 1.355 . S
C8407 C8409 1.419 . S
C8408 C8406 1.415 . S
C8408 C8413 1.425 . S
C8408 C8415 1.409 . S
C8409 H8401 0.930 . S
C8409 C8407 1.419 . S
C8409 C8410 1.362 . S
C8410 H8402 0.930 . S
C8410 C8409 1.362 . S
C8410 C8413 1.409 . S
C8411 H8403 0.930 . S
C8411 C8412 1.355 . S
C8411 C8413 1.415 . S
C8412 C8411 1.355 . S
C8412 C8414 1.419 . S
C8413 C8408 1.425 . S
C8413 C8410 1.409 . S
C8413 C8411 1.415 . S
C8414 H8404 0.930 . S
C8414 C8412 1.419 . S
C8414 C8415 1.362 . S
C8415 H8405 0.930 . S
C8415 C8408 1.409 . S
C8415 C8414 1.362 . S
H8416 C8422 0.930 . S
H8417 C8425 0.930 . S
H8418 C8426 0.930 . S
H8419 C8427 0.930 . S
H8420 C8430 0.930 . S
H8421 C8431 0.930 . S
C8422 H8416 0.930 . S
C8422 C8423 1.355 . S
C8422 C8424 1.415 . S
C8423 C8422 1.355 . S
C8423 C8425 1.419 . S
C8424 C8422 1.415 . S
C8424 C8429 1.425 . S
C8424 C8431 1.409 . S
C8425 H8417 0.930 . S
C8425 C8423 1.419 . S
C8425 C8426 1.362 . S
C8426 H8418 0.930 . S
C8426 C8425 1.362 . S
C8426 C8429 1.409 . S
C8427 H8419 0.930 . S
C8427 C8428 1.355 . S
C8427 C8429 1.415 . S
C8428 C8427 1.355 . S
C8428 C8430 1.419 . S
C8429 C8424 1.425 . S
C8429 C8426 1.409 . S
C8429 C8427 1.415 . S
C8430 H8420 0.930 . S
C8430 C8428 1.419 . S
C8430 C8431 1.362 . S
C8431 H8421 0.930 . S
C8431 C8424 1.409 . S
C8431 C8430 1.362 . S
H8432 C8438 0.930 . S
H8433 C8441 0.930 . S
H8434 C8442 0.930 . S
H8435 C8443 0.930 . S
H8436 C8446 0.930 . S
H8437 C8447 0.930 . S
C8438 H8432 0.930 . S
C8438 C8439 1.355 . S
C8438 C8440 1.415 . S
C8439 C8438 1.355 . S
C8439 C8441 1.419 . S
C8440 C8438 1.415 . S
C8440 C8445 1.425 . S
C8440 C8447 1.409 . S
C8441 H8433 0.930 . S
C8441 C8439 1.419 . S
C8441 C8442 1.362 . S
C8442 H8434 0.930 . S
C8442 C8441 1.362 . S
C8442 C8445 1.409 . S
C8443 H8435 0.930 . S
C8443 C8444 1.355 . S
C8443 C8445 1.415 . S
C8444 C8443 1.355 . S
C8444 C8446 1.419 . S
C8445 C8440 1.425 . S
C8445 C8442 1.409 . S
C8445 C8443 1.415 . S
C8446 H8436 0.930 . S
C8446 C8444 1.419 . S
C8446 C8447 1.362 . S
C8447 H8437 0.930 . S
C8447 C8440 1.409 . S
C8447 C8446 1.362 . S
C3847 C3007 0.662 . S
C3852 C19 0.419 . S
C3863 C967 1.305 . S
C3868 C59 1.401 . S
C3879 C90 1.426 . S
C3884 C2927 1.435 . S
C3895 C139 2.702 . S
C3900 C1051 2.588 . S
C3911 C179 2.102 . S
C3916 C3091 2.065 . S
C3927 C1211 2.605 . S
C3932 C210 2.664 . S
C3943 C250 1.038 . S
C3948 C3167 0.943 . S
C3959 C299 0.785 . S
C3964 C1127 0.755 . S
C3975 C339 1.299 . S
C3980 C3607 1.139 . S
C3991 C1727 1.220 . S
C3996 C379 1.257 . S
C4007 C1767 1.125 . S
C4012 C419 1.197 . S
C4023 C1651 2.058 . S
C4028 C459 2.104 . S
C4039 C499 1.203 . S
C4044 C3767 1.157 . S
C4055 C539 0.699 . S
C4060 C3527 0.613 . S
C4071 C3807 1.327 . S
C4076 C579 1.467 . S
C4087 C619 1.320 . S
C4092 C3727 1.134 . S
C4103 C659 1.369 . S
C4108 C3247 1.247 . S
C4119 C1567 1.104 . S
C4124 C690 1.107 . S
C4135 C3367 1.168 . S
C4140 C739 1.268 . S
C4151 C779 1.536 . S
C4156 C1487 1.402 . S
C4167 C819 1.419 . S
C4172 C1527 1.268 . S
C4183 C859 1.067 . S
C4188 C3327 1.063 . S
C4199 C899 0.301 . S
C4204 C3207 0.593 . S
C4215 C3287 1.244 . S
C4220 C939 1.338 . S
C4231 C970 0.364 . S
C4236 C2056 0.403 . S
C4247 C1010 1.373 . S
C4252 C16 1.230 . S
C4263 C1059 1.432 . S
C4268 C1976 1.403 . S
C4279 C82 2.590 . S
C4284 C1090 2.717 . S
C4295 C2122 2.016 . S
C4300 C1130 2.109 . S
C4311 C1179 2.695 . S
C4316 C242 2.625 . S
C4327 C2216 1.056 . S
C4332 C1219 1.076 . S
C4343 C1250 0.801 . S
C4348 C176 0.734 . S
C4359 C1290 1.343 . S
C4364 C2656 1.215 . S
C4375 C1330 1.184 . S
C4380 C776 1.111 . S
C4391 C1370 1.124 . S
C4396 C816 0.994 . S
C4407 C682 2.049 . S
C4412 C1410 2.124 . S
C4423 C2816 1.139 . S
C4428 C1450 1.223 . S
C4439 C1490 0.669 . S
C4444 C2576 0.621 . S
C4455 C1530 1.466 . S
C4460 C2856 1.325 . S
C4471 C2776 1.272 . S
C4476 C1570 1.360 . S
C4487 C1610 1.323 . S
C4492 C2296 1.156 . S
C4503 C1659 1.005 . S
C4508 C616 1.021 . S
C4519 C2416 1.229 . S
C4524 C1690 1.262 . S
C4535 C1730 1.556 . S
C4540 C536 1.477 . S
C4551 C1770 1.359 . S
C4556 C576 1.243 . S
C4567 C2376 1.104 . S
C4572 C1810 1.098 . S
C4583 C2256 0.614 . S
C4588 C1850 0.337 . S
C4599 C2336 1.210 . S
C4604 C1890 1.334 . S
C4615 C1939 0.874 . S
C4620 C1087 0.837 . S
C4631 C2887 0.987 . S
C4636 C1979 1.212 . S
C4647 C1007 1.131 . S
C4652 C2010 1.108 . S
C4663 C2971 2.936 . S
C4668 C2059 3.056 . S
C4679 C2099 2.491 . S
C4684 C1171 2.419 . S
C4695 C2130 2.844 . S
C4700 C3131 2.793 . S
C4711 C1247 0.934 . S
C4716 C2170 0.961 . S
C4727 C3047 0.677 . S
C4732 C2219 0.773 . S
C4743 C1687 1.069 . S
C4748 C2259 1.211 . S
C4759 C2299 1.127 . S
C4764 C3647 1.095 . S
C4775 C2339 1.464 . S
C4780 C3687 1.368 . S
C4791 C3571 2.021 . S
C4796 C2379 2.046 . S
C4807 C1847 1.132 . S
C4812 C2419 1.208 . S
C4823 C1607 0.783 . S
C4828 C2459 0.681 . S
C4839 C1887 1.438 . S
C4844 C2499 1.522 . S
C4855 C1807 1.225 . S
C4860 C2539 1.343 . S
C4871 C1327 1.139 . S
C4876 C2579 1.282 . S
C4887 C3487 1.015 . S
C4892 C2610 1.073 . S
C4903 C2659 1.248 . S
C4908 C1447 1.221 . S
C4919 C3407 1.547 . S
C4924 C2699 1.605 . S
C4935 C3447 1.252 . S
C4940 C2739 1.406 . S
C4951 C2779 1.061 . S
C4956 C1407 1.004 . S
C4967 C2819 0.173 . S
C4972 C1287 0.401 . S
C4983 C2859 1.462 . S
C4988 C1367 1.360 . S
C4999 C2890 0.917 . S
C5004 C136 0.842 . S
C5015 C1936 1.151 . S
C5020 C2930 1.275 . S
C5031 C2979 1.110 . S
C5036 C56 1.122 . S
C5047 C3010 3.036 . S
C5052 C2002 2.917 . S
C5063 C3050 2.487 . S
C5068 C202 2.394 . S
C5079 C2162 2.788 . S
C5084 C3099 2.849 . S
C5095 C296 1.052 . S
C5100 C3139 1.075 . S
C5111 C3170 0.756 . S
C5116 C2096 0.755 . S
C5127 C736 1.131 . S
C5132 C3210 1.256 . S
C5143 C2696 1.150 . S
C5148 C3250 1.156 . S
C5159 C3290 1.446 . S
C5164 C2736 1.263 . S
C5175 C3330 2.057 . S
C5180 C2602 1.976 . S
C5191 C3370 1.204 . S
C5196 C896 1.190 . S
C5207 C3410 0.660 . S
C5212 C656 0.773 . S
C5223 C3450 1.523 . S
C5228 C936 1.436 . S
C5239 C856 1.161 . S
C5244 C3490 1.329 . S
C5255 C376 1.135 . S
C5260 C3530 1.281 . S
C5271 C3579 1.155 . S
C5276 C2536 1.104 . S
C5287 C3610 1.211 . S
C5292 C496 1.102 . S
C5303 C3650 1.589 . S
C5308 C2456 1.540 . S
C5319 C2496 1.365 . S
C5324 C3690 1.436 . S
C5335 C456 1.061 . S
C5340 C3730 1.054 . S
C5351 C336 0.342 . S
C5356 C3770 0.321 . S
C5367 C3810 1.539 . S
C5372 C416 1.434 . S
C5383 C11 2.594 . S
C5388 C811 2.596 . S
C5399 C2607 1.024 . S
C5404 C51 1.028 . S
C5415 C87 0.693 . S
C5420 C2651 0.687 . S
C5431 C131 2.558 . S
C5436 C2691 2.581 . S
C5447 C171 2.718 . S
C5452 C2851 2.720 . S
C5463 C207 1.151 . S
C5468 C851 1.156 . S
C5479 C2811 0.915 . S
C5484 C247 0.914 . S
C5495 C651 2.740 . S
C5500 C291 2.735 . S
C5511 C331 2.685 1_565 S
C5516 C611 2.687 . S
C5527 C491 2.220 . S
C5532 C371 2.213 . S
C5543 C411 2.335 . S
C5548 C531 2.343 . S
C5559 C451 2.578 . S
C5564 C571 2.577 . S
C5575 C687 0.964 . S
C5580 C1971 0.960 . S
C5591 C731 0.968 . S
C5596 C2007 0.981 . S
C5607 C771 2.654 . S
C5612 C2051 2.639 . S
C5623 C891 1.100 . S
C5628 C2167 1.114 . S
C5639 C2091 2.585 . S
C5644 C931 2.591 . S
C5655 C962 2.591 . S
C5660 C1762 2.592 . S
C5671 C1002 1.017 . S
C5676 C3576 1.018 . S
C5687 C3602 0.614 . S
C5692 C1056 0.636 . S
C5703 C3642 2.583 . S
C5708 C1082 2.574 . S
C5719 C1122 2.713 . S
C5724 C3802 2.721 . S
C5735 C1176 1.075 . S
C5740 C1802 1.121 . S
C5751 C3762 0.917 . S
C5756 C1216 0.919 . S
C5767 C1242 2.731 . S
C5772 C1602 2.739 . S
C5783 C1562 2.708 . S
C5788 C1282 2.705 1_545 S
C5799 C1442 2.215 . S
C5804 C1322 2.206 . S
C5815 C1482 2.346 . S
C5820 C1362 2.354 . S
C5831 C1402 2.574 . S
C5836 C1522 2.569 . S
C5847 C1656 0.987 . S
C5852 C2922 0.982 . S
C5863 C2976 0.926 . S
C5868 C1682 0.944 . S
C5879 C3002 2.646 . S
C5884 C1722 2.654 . S
C5895 C1842 1.092 . S
C5900 C3136 1.080 . S
C5911 C3042 2.585 . S
C5916 C1882 2.591 . S
C5927 C2731 2.385 . S
C5932 C1931 2.369 . S
C5943 C2771 1.053 . S
C5948 C2127 1.055 . S
C5959 C2571 2.662 . S
C5964 C2211 2.659 . S
C5975 C2251 2.738 . S
C5980 C2531 2.743 . S
C5991 C2291 2.254 . S
C5996 C2411 2.255 . S
C6007 C2451 2.009 . S
C6012 C2331 2.002 . S
C6023 C2491 2.395 . S
C6028 C2371 2.394 . S
C6039 C2882 2.385 . S
C6044 C3682 2.391 . S
C6055 C3722 0.996 . S
C6060 C3096 0.976 . S
C6071 C3162 2.658 . S
C6076 C3522 2.660 . S
C6087 C3202 2.747 . S
C6092 C3482 2.751 . S
C6103 C3362 2.258 . S
C6108 C3242 2.263 . S
C6119 C3402 2.020 . S
C6124 C3282 2.010 . S
C6135 C3322 2.394 . S
C6140 C3442 2.395 . S
C6151 C2 2.251 . S
C6156 C1739 2.244 . S
C6167 C1779 1.711 . S
C6172 C42 1.683 . S
C6183 C1650 0.688 . S
C6188 C96 0.496 . S
C6199 C3619 2.403 . S
C6204 C122 2.502 . S
C6215 C162 2.276 . S
C6220 C3739 2.190 . S
C6231 C3779 0.612 . S
C6236 C216 0.630 . S
C6247 C256 0.632 . S
C6252 C3539 0.327 . S
C6263 C3819 2.376 . S
C6268 C282 2.353 . S
C6279 C1050 2.271 . S
C6284 C322 2.320 . S
C6295 C3019 2.113 . S
C6300 C362 2.136 . S
C6311 C402 1.992 . S
C6316 C979 2.006 . S
C6327 C2939 1.487 . S
C6332 C442 1.552 . S
C6343 C482 1.325 . S
C6348 C1210 1.236 . S
C6359 C522 1.097 . S
C6364 C3179 1.080 . S
C6375 C562 2.385 . S
C6380 C1139 2.379 . S
C6391 C602 2.766 . S
C6396 C3090 2.711 . S
C6407 C642 2.687 . S
C6412 C3379 2.686 . S
C6423 C1299 0.518 . S
C6428 C696 0.745 . S
C6439 C3259 1.762 . S
C6444 C722 1.721 . S
C6455 C762 2.217 . S
C6460 C1379 2.244 . S
C6471 C802 2.665 . S
C6476 C1419 2.671 . S
C6487 C842 1.977 . S
C6492 C3459 2.045 . S
C6503 C882 0.775 . S
C6508 C3499 0.780 . S
C6519 C922 2.377 . S
C6524 C3419 2.381 . S
C6535 C770 2.266 . S
C6540 C971 2.222 . S
C6551 C1011 1.677 . S
C6556 C810 1.705 . S
C6567 C699 0.606 . S
C6572 C1047 0.481 . S
C6583 C1091 2.501 . S
C6588 C2650 2.402 . S
C6599 C1131 2.269 . S
C6604 C2770 2.212 . S
C6615 C2810 0.637 . S
C6620 C1167 0.633 . S
C6631 C2570 0.143 . S
C6636 C1207 0.548 . S
C6647 C1251 2.352 . S
C6652 C2850 2.378 . S
C6663 C99 2.288 . S
C6668 C1291 2.339 . S
C6679 C1331 2.143 . S
C6684 C2050 2.087 . S
C6695 C1371 1.980 . S
C6700 C10 2.013 . S
C6711 C1970 1.561 . S
C6716 C1411 1.590 . S
C6727 C259 1.261 . S
C6732 C1451 1.344 . S
C6743 C1491 1.043 . S
C6748 C2210 1.093 . S
C6759 C1531 2.391 . S
C6764 C170 2.362 . S
C6775 C2139 2.722 . S
C6780 C1571 2.768 . S
C6791 C1611 2.697 . S
C6796 C2410 2.681 . S
C6807 C1647 0.489 . S
C6812 C330 0.303 . S
C6823 C2290 1.774 . S
C6828 C1691 1.751 . S
C6839 C1731 2.225 . S
C6844 C410 2.236 . S
C6855 C450 2.661 . S
C6860 C1771 2.674 . S
C6871 C1811 2.019 . S
C6876 C2490 2.040 . S
C6887 C2530 0.752 . S
C6892 C1851 0.815 . S
C6903 C2450 2.393 . S
C6908 C1891 2.361 . S
C6919 C3659 2.593 . S
C6924 C1922 2.578 . S
C6935 C3699 1.759 . S
C6940 C1962 1.741 . S
C6951 C2016 0.480 . S
C6956 C3570 0.637 . S
C6967 C2042 2.445 . S
C6972 C1699 2.369 . S
C6983 C2082 2.553 . S
C6988 C1819 2.470 . S
C6999 C2136 0.428 . S
C7004 C1859 0.489 . S
C7015 C1619 0.362 . S
C7020 C2176 0.475 . S
C7031 C1899 2.229 . S
C7036 C2202 2.222 . S
C7047 C2242 2.559 . S
C7052 C2970 2.515 . S
C7063 C2282 2.053 . S
C7068 C1099 2.003 . S
C7079 C2322 1.712 . S
C7084 C2899 1.680 . S
C7095 C2362 1.521 . S
C7100 C1019 1.445 . S
C7111 C2402 1.588 . S
C7116 C3130 1.527 . S
C7127 C2442 1.017 . S
C7132 C1259 1.016 . S
C7143 C2482 1.997 . S
C7148 C3059 1.942 . S
C7159 C2522 2.661 . S
C7164 C1170 2.622 . S
C7175 C1459 2.599 1_565 S
C7180 C2562 2.585 . S
C7191 C3219 0.269 . S
C7196 C2616 0.529 . S
C7207 C1339 1.418 . S
C7212 C2642 1.381 . S
C7223 C3299 1.929 . S
C7228 C2682 1.892 . S
C7239 C2722 2.538 . S
C7244 C3339 2.512 . S
C7255 C2762 1.747 . S
C7260 C1539 1.788 . S
C7271 C2802 0.431 . S
C7276 C1579 0.421 . S
C7287 C2842 2.435 . S
C7292 C1499 2.460 . S
C7303 C2690 2.579 . S
C7308 C2891 2.593 . S
C7319 C2730 1.763 . S
C7324 C2931 1.735 . S
C7335 C2967 0.441 . S
C7340 C2619 0.593 . S
C7351 C3011 2.454 . S
C7356 C730 2.365 . S
C7367 C850 2.459 . S
C7372 C3051 2.551 . S
C7383 C3087 0.429 . S
C7388 C890 0.503 . S
C7399 C650 0.219 . S
C7404 C3127 0.387 . S
C7415 C930 2.237 . S
C7420 C3171 2.228 . S
C7431 C3211 2.541 . S
C7436 C2019 2.486 . S
C7447 C3251 2.055 . S
C7452 C130 1.995 . S
C7463 C3291 1.716 . S
C7468 C1930 1.645 . S
C7479 C3331 1.559 . S
C7484 C50 1.534 . S
C7495 C2179 1.556 . S
C7500 C3371 1.613 . S
C7511 C290 0.998 . S
C7516 C3411 0.957 . S
C7527 C2090 1.968 . S
C7532 C3451 1.995 . S
C7543 C3491 2.665 . S
C7548 C219 2.627 . S
C7559 C490 2.594 1_545 S
C7564 C3531 2.587 . S
C7575 C3567 0.591 . S
C7580 C2250 0.307 . S
C7591 C3611 1.398 . S
C7596 C370 1.450 . S
C7607 C2330 1.919 . S
C7612 C3651 1.918 . S
C7623 C3691 2.533 . S
C7628 C2370 2.525 . S
C7639 C3731 1.751 . S
C7644 C570 1.790 . S
C7655 C610 0.465 . S
C7660 C3771 0.426 . S
C7671 C3811 2.450 . S
C7676 C530 2.450 . S
C7687 C7 2.349 . S
C7692 C367 2.375 . S
C7703 C407 2.759 . S
C7708 C47 2.752 . S
C7719 C91 2.754 . S
C7724 C447 2.687 . S
C7735 C327 1.966 . S
C7740 C127 2.014 . S
C7751 C607 1.699 . S
C7756 C167 1.805 . S
C7767 C487 2.674 . S
C7772 C211 2.746 . S
C7783 C251 3.062 . S
C7788 C527 2.999 . S
C7799 C287 2.553 . S
C7804 C567 2.601 . S
C7815 C647 2.522 . S
C7820 C727 2.587 . S
C7831 C2807 2.355 . S
C7836 C691 2.443 . S
C7847 C767 2.908 . S
C7852 C2847 2.910 . S
C7863 C2767 2.836 . S
C7868 C807 2.819 . S
C7879 C2727 2.770 . S
C7884 C847 2.753 . S
C7895 C887 2.384 . S
C7900 C2611 2.490 . S
C7911 C927 2.896 . S
C7916 C2687 2.923 . S
C7927 C1336 2.455 . S
C7932 C976 2.406 . S
C7943 C1016 2.746 . S
C7948 C1376 2.756 . S
C7959 C1042 2.793 . S
C7964 C1416 2.729 . S
C7975 C1296 1.959 . S
C7980 C1096 2.030 . S
C7991 C1576 1.706 . S
C7996 C1136 1.789 . S
C8007 C1456 2.712 . S
C8012 C1162 2.761 . S
C8023 C1496 2.999 . S
C8028 C1202 3.066 . S
C8039 C1536 2.574 . S
C8044 C1256 2.563 . S
C8055 C1696 2.587 . S
C8060 C1616 2.556 . S
C8071 C1642 2.500 . S
C8076 C3776 2.430 . S
C8087 C1736 2.947 . S
C8092 C3816 2.930 . S
C8103 C1776 2.763 . S
C8108 C3736 2.792 . S
C8119 C3696 2.774 . S
C8124 C1816 2.758 . S
C8135 C3562 2.536 . S
C8140 C1856 2.446 . S
C8151 C3656 2.911 . S
C8156 C1896 2.874 . S
C8167 C1927 2.643 . S
C8172 C2287 2.641 . S
C8183 C1967 2.948 . S
C8188 C2327 2.996 . S
C8199 C2011 2.452 . S
C8204 C2367 2.416 . S
C8215 C2047 1.829 . S
C8220 C2247 1.716 . S
C8231 C2527 2.088 . S
C8236 C2087 2.193 . S
C8247 C2131 2.785 . S
C8252 C2407 2.714 . S
C8263 C2447 2.902 . S
C8268 C2171 2.928 . S
C8279 C2487 2.832 . S
C8284 C2207 2.819 . S
C8295 C2647 2.640 . S
C8300 C2567 2.564 . S
C8311 C2896 2.607 . S
C8316 C3256 2.639 . S
C8327 C3296 2.997 . S
C8332 C2936 2.945 . S
C8343 C2962 2.452 . S
C8348 C3336 2.416 . S
C8359 C3216 1.722 . S
C8364 C3016 1.837 . S
C8375 C3056 2.249 . S
C8380 C3496 2.177 . S
C8391 C3376 2.686 . S
C8396 C3082 2.766 . S
C8407 C3122 2.976 . S
C8412 C3416 2.917 . S
C8423 C3176 2.830 . S
C8428 C3456 2.849 . S
C8439 C3536 2.606 . S
C8444 C3616 2.640 . S
