# Generated by pormake.
# Topology lcy-a, (4)-cn, num edge types: 1
# Building blocks:
#     Node 0, Type 0, BuildingBlock: UXUYUI_clean_sbu_0, # of connection points: 4
#     Node 1, Type 0, BuildingBlock: UXUYUI_clean_sbu_0, # of connection points: 4
#     Node 2, Type 0, BuildingBlock: UXUYUI_clean_sbu_0, # of connection points: 4
#     Node 3, Type 0, BuildingBlock: UXUYUI_clean_sbu_0, # of connection points: 4
#     Node 4, Type 0, BuildingBlock: UXUYUI_clean_sbu_0, # of connection points: 4
#     Node 5, Type 0, BuildingBlock: UXUYUI_clean_sbu_0, # of connection points: 4
#     Node 6, Type 0, BuildingBlock: UXUYUI_clean_sbu_0, # of connection points: 4
#     Node 7, Type 0, BuildingBlock: UXUYUI_clean_sbu_0, # of connection points: 4
#     Node 8, Type 0, BuildingBlock: UXUYUI_clean_sbu_0, # of connection points: 4
#     Node 9, Type 0, BuildingBlock: UXUYUI_clean_sbu_0, # of connection points: 4
#     Node 10, Type 0, BuildingBlock: UXUYUI_clean_sbu_0, # of connection points: 4
#     Node 11, Type 0, BuildingBlock: UXUYUI_clean_sbu_0, # of connection points: 4
#     Node 12, Type 0, BuildingBlock: UXUYUI_clean_sbu_0, # of connection points: 4
#     Node 13, Type 0, BuildingBlock: UXUYUI_clean_sbu_0, # of connection points: 4
#     Node 14, Type 0, BuildingBlock: UXUYUI_clean_sbu_0, # of connection points: 4
#     Node 15, Type 0, BuildingBlock: UXUYUI_clean_sbu_0, # of connection points: 4
#     Node 16, Type 0, BuildingBlock: UXUYUI_clean_sbu_0, # of connection points: 4
#     Node 17, Type 0, BuildingBlock: UXUYUI_clean_sbu_0, # of connection points: 4
#     Node 18, Type 0, BuildingBlock: UXUYUI_clean_sbu_0, # of connection points: 4
#     Node 19, Type 0, BuildingBlock: UXUYUI_clean_sbu_0, # of connection points: 4
#     Node 20, Type 0, BuildingBlock: UXUYUI_clean_sbu_0, # of connection points: 4
#     Node 21, Type 0, BuildingBlock: UXUYUI_clean_sbu_0, # of connection points: 4
#     Node 22, Type 0, BuildingBlock: UXUYUI_clean_sbu_0, # of connection points: 4
#     Node 23, Type 0, BuildingBlock: UXUYUI_clean_sbu_0, # of connection points: 4
#     Edge 24, Type (0, 0), BuildingBlock: OJICUG_clean_linker_0, # of connection points: 2
#     Edge 25, Type (0, 0), BuildingBlock: OJICUG_clean_linker_0, # of connection points: 2
#     Edge 26, Type (0, 0), BuildingBlock: OJICUG_clean_linker_0, # of connection points: 2
#     Edge 27, Type (0, 0), BuildingBlock: OJICUG_clean_linker_0, # of connection points: 2
#     Edge 28, Type (0, 0), BuildingBlock: OJICUG_clean_linker_0, # of connection points: 2
#     Edge 29, Type (0, 0), BuildingBlock: OJICUG_clean_linker_0, # of connection points: 2
#     Edge 30, Type (0, 0), BuildingBlock: OJICUG_clean_linker_0, # of connection points: 2
#     Edge 31, Type (0, 0), BuildingBlock: OJICUG_clean_linker_0, # of connection points: 2
#     Edge 32, Type (0, 0), BuildingBlock: OJICUG_clean_linker_0, # of connection points: 2
#     Edge 33, Type (0, 0), BuildingBlock: OJICUG_clean_linker_0, # of connection points: 2
#     Edge 34, Type (0, 0), BuildingBlock: OJICUG_clean_linker_0, # of connection points: 2
#     Edge 35, Type (0, 0), BuildingBlock: OJICUG_clean_linker_0, # of connection points: 2
#     Edge 36, Type (0, 0), BuildingBlock: OJICUG_clean_linker_0, # of connection points: 2
#     Edge 37, Type (0, 0), BuildingBlock: OJICUG_clean_linker_0, # of connection points: 2
#     Edge 38, Type (0, 0), BuildingBlock: OJICUG_clean_linker_0, # of connection points: 2
#     Edge 39, Type (0, 0), BuildingBlock: OJICUG_clean_linker_0, # of connection points: 2
#     Edge 40, Type (0, 0), BuildingBlock: OJICUG_clean_linker_0, # of connection points: 2
#     Edge 41, Type (0, 0), BuildingBlock: OJICUG_clean_linker_0, # of connection points: 2
#     Edge 42, Type (0, 0), BuildingBlock: OJICUG_clean_linker_0, # of connection points: 2
#     Edge 43, Type (0, 0), BuildingBlock: OJICUG_clean_linker_0, # of connection points: 2
#     Edge 44, Type (0, 0), BuildingBlock: OJICUG_clean_linker_0, # of connection points: 2
#     Edge 45, Type (0, 0), BuildingBlock: OJICUG_clean_linker_0, # of connection points: 2
#     Edge 46, Type (0, 0), BuildingBlock: OJICUG_clean_linker_0, # of connection points: 2
#     Edge 47, Type (0, 0), BuildingBlock: OJICUG_clean_linker_0, # of connection points: 2
#     Edge 48, Type (0, 0), BuildingBlock: OJICUG_clean_linker_0, # of connection points: 2
#     Edge 49, Type (0, 0), BuildingBlock: OJICUG_clean_linker_0, # of connection points: 2
#     Edge 50, Type (0, 0), BuildingBlock: OJICUG_clean_linker_0, # of connection points: 2
#     Edge 51, Type (0, 0), BuildingBlock: OJICUG_clean_linker_0, # of connection points: 2
#     Edge 52, Type (0, 0), BuildingBlock: OJICUG_clean_linker_0, # of connection points: 2
#     Edge 53, Type (0, 0), BuildingBlock: OJICUG_clean_linker_0, # of connection points: 2
#     Edge 54, Type (0, 0), BuildingBlock: OJICUG_clean_linker_0, # of connection points: 2
#     Edge 55, Type (0, 0), BuildingBlock: OJICUG_clean_linker_0, # of connection points: 2
#     Edge 56, Type (0, 0), BuildingBlock: OJICUG_clean_linker_0, # of connection points: 2
#     Edge 57, Type (0, 0), BuildingBlock: OJICUG_clean_linker_0, # of connection points: 2
#     Edge 58, Type (0, 0), BuildingBlock: OJICUG_clean_linker_0, # of connection points: 2
#     Edge 59, Type (0, 0), BuildingBlock: OJICUG_clean_linker_0, # of connection points: 2
#     Edge 60, Type (0, 0), BuildingBlock: OJICUG_clean_linker_0, # of connection points: 2
#     Edge 61, Type (0, 0), BuildingBlock: OJICUG_clean_linker_0, # of connection points: 2
#     Edge 62, Type (0, 0), BuildingBlock: OJICUG_clean_linker_0, # of connection points: 2
#     Edge 63, Type (0, 0), BuildingBlock: OJICUG_clean_linker_0, # of connection points: 2
#     Edge 64, Type (0, 0), BuildingBlock: OJICUG_clean_linker_0, # of connection points: 2
#     Edge 65, Type (0, 0), BuildingBlock: OJICUG_clean_linker_0, # of connection points: 2
#     Edge 66, Type (0, 0), BuildingBlock: OJICUG_clean_linker_0, # of connection points: 2
#     Edge 67, Type (0, 0), BuildingBlock: OJICUG_clean_linker_0, # of connection points: 2
#     Edge 68, Type (0, 0), BuildingBlock: OJICUG_clean_linker_0, # of connection points: 2
#     Edge 69, Type (0, 0), BuildingBlock: OJICUG_clean_linker_0, # of connection points: 2
#     Edge 70, Type (0, 0), BuildingBlock: OJICUG_clean_linker_0, # of connection points: 2
#     Edge 71, Type (0, 0), BuildingBlock: OJICUG_clean_linker_0, # of connection points: 2
# Relax obj value: 0.522
# Max RMSD: 0.263
# Mean RMSD: 0.261
data_MOF--net-lcy-a--node1-UXUYUI_clean_sbu_0--edge1-OJICUG_clean_linker_0
_symmetry_space_group_name_H-M    P1
_symmetry_Int_Tables_number       1
_symmetry_cell_setting            triclinic
loop_
_symmetry_equiv_pos_as_xyz
'x, y, z'
_cell_length_a     67.549399
_cell_length_b     66.133549
_cell_length_c     66.15095
_cell_angle_alpha  89.999827
_cell_angle_beta   90.020794
_cell_angle_gamma 90.001194
loop_
_atom_site_label
_atom_site_type_symbol
_atom_site_fract_x
_atom_site_fract_y
_atom_site_fract_z
_atom_type_partial_charge
Li0 Li 0.2058 0.31298 0.40938 0.0
Li1 Li 0.20953 0.27941 0.38978 0.0
Li2 Li 0.18863 0.30758 0.37766 0.0
Li3 Li 0.17859 0.28917 0.40633 0.0
C4 C 0.22521 0.31814 0.36658 0.0
N5 N 0.2384 0.33988 0.33355 0.0
C6 C 0.23213 0.30806 0.34942 0.0
C7 C 0.22518 0.33927 0.36704 0.0
C8 C 0.23868 0.31932 0.33284 0.0
C9 C 0.23187 0.34999 0.35017 0.0
C10 C 0.20183 0.27192 0.43488 0.0
C11 C 0.19505 0.23864 0.44806 0.0
N12 N 0.19451 0.2464 0.46709 0.0
C13 C 0.20136 0.27956 0.45457 0.0
C14 C 0.19874 0.25129 0.43158 0.0
C15 C 0.19757 0.26642 0.47065 0.0
C16 C 0.21143 0.33694 0.44412 0.0
N17 N 0.21967 0.33085 0.42639 0.0
C18 C 0.24939 0.34893 0.43363 0.0
C19 C 0.23824 0.33655 0.42095 0.0
C20 C 0.24146 0.35512 0.45223 0.0
C21 C 0.22222 0.34904 0.45747 0.0
H22 H 0.19662 0.33208 0.44801 0.0
H23 H 0.2445 0.33121 0.40689 0.0
C24 C 0.2279 0.25 0.36495 0.0
N25 N 0.22723 0.25818 0.38377 0.0
C26 C 0.24133 0.23455 0.36063 0.0
C27 C 0.25271 0.23599 0.39526 0.0
C28 C 0.23923 0.25152 0.39884 0.0
C29 C 0.25411 0.22746 0.37586 0.0
H30 H 0.21816 0.25567 0.35326 0.0
H31 H 0.23843 0.25841 0.41364 0.0
C32 C 0.15908 0.32642 0.40016 0.0
N33 N 0.12141 0.34129 0.39358 0.0
C34 C 0.14443 0.31393 0.39203 0.0
C35 C 0.15456 0.34644 0.40506 0.0
C36 C 0.12547 0.32173 0.38879 0.0
C37 C 0.13543 0.3537 0.40159 0.0
C38 C 0.17172 0.26408 0.36928 0.0
C39 C 0.15564 0.2695 0.35711 0.0
C40 C 0.17678 0.24368 0.37136 0.0
C41 C 0.14469 0.25438 0.3475 0.0
C42 C 0.16544 0.22902 0.36151 0.0
N43 N 0.14976 0.23462 0.3499 0.0
C44 C 0.18467 0.30994 0.33588 0.0
C45 C 0.1787 0.34095 0.35282 0.0
C46 C 0.18584 0.31987 0.31734 0.0
N47 N 0.18194 0.32068 0.35315 0.0
C48 C 0.17974 0.35151 0.33459 0.0
C49 C 0.18432 0.34105 0.31669 0.0
H50 H 0.18774 0.29391 0.3367 0.0
H51 H 0.17706 0.34917 0.36684 0.0
C52 C 0.15473 0.28683 0.44063 0.0
N53 N 0.15844 0.27764 0.42262 0.0
C54 C 0.14557 0.27608 0.4562 0.0
C55 C 0.14271 0.24741 0.43369 0.0
C56 C 0.15183 0.25868 0.4186 0.0
C57 C 0.14041 0.2558 0.45301 0.0
H58 H 0.16053 0.30181 0.44348 0.0
H59 H 0.15509 0.25161 0.40437 0.0
O60 O 0.21822 0.30739 0.38274 0.0
O61 O 0.20519 0.2846 0.41888 0.0
O62 O 0.17781 0.31923 0.40333 0.0
O63 O 0.18288 0.27869 0.37852 0.0
H64 H 0.23221 0.29172 0.34881 0.0
H65 H 0.21972 0.34731 0.38016 0.0
H66 H 0.24393 0.31172 0.31939 0.0
H67 H 0.23176 0.36634 0.35023 0.0
H68 H 0.19251 0.22266 0.44571 0.0
H69 H 0.20374 0.29547 0.4574 0.0
H70 H 0.19895 0.24515 0.41643 0.0
H71 H 0.19702 0.27214 0.48596 0.0
H72 H 0.26428 0.35315 0.42923 0.0
H73 H 0.21565 0.35361 0.47168 0.0
H74 H 0.24211 0.22871 0.34536 0.0
H75 H 0.2621 0.23089 0.40752 0.0
H76 H 0.1476 0.29836 0.38839 0.0
H77 H 0.16576 0.3563 0.41139 0.0
H78 H 0.11399 0.31221 0.3825 0.0
H79 H 0.13174 0.36919 0.40524 0.0
H80 H 0.15172 0.28521 0.35497 0.0
H81 H 0.18917 0.23919 0.38067 0.0
H82 H 0.13219 0.25836 0.33808 0.0
H83 H 0.16911 0.21317 0.36311 0.0
H84 H 0.18971 0.31124 0.304 0.0
H85 H 0.17838 0.36783 0.3347 0.0
H86 H 0.14404 0.28297 0.47097 0.0
H87 H 0.13862 0.23186 0.43066 0.0
Li88 Li 0.9276 0.95268 0.65351 0.0
Li89 Li 0.95196 0.92427 0.6516 0.0
Li90 Li 0.95983 0.95596 0.63555 0.0
Li91 Li 0.93486 0.93439 0.62177 0.0
C92 C 0.96827 0.96247 0.674 0.0
N93 N 0.99661 0.98671 0.69188 0.0
C94 C 0.98699 0.95466 0.67845 0.0
C95 C 0.96394 0.98261 0.67867 0.0
C96 C 0.00112 0.96715 0.6875 0.0
C97 C 0.97848 0.99462 0.68769 0.0
C98 C 0.91281 0.90833 0.65585 0.0
C99 C 0.89844 0.87495 0.65484 0.0
N100 N 0.89249 0.87715 0.67436 0.0
C101 C 0.90624 0.91039 0.67577 0.0
C102 C 0.90861 0.8906 0.64517 0.0
C103 C 0.89612 0.8944 0.68492 0.0
C104 C 0.89368 0.97613 0.66376 0.0
N105 N 0.9099 0.96629 0.67086 0.0
C106 C 0.90394 0.97841 0.70428 0.0
C107 C 0.91499 0.96693 0.69071 0.0
C108 C 0.88741 0.98926 0.69735 0.0
C109 C 0.88212 0.98776 0.67684 0.0
H110 H 0.88993 0.97526 0.64793 0.0
H111 H 0.928 0.95893 0.6959 0.0
C112 C 0.98253 0.89837 0.66355 0.0
N113 N 0.96424 0.90522 0.66869 0.0
C114 C 0.99516 0.89081 0.67835 0.0
C115 C 0.96948 0.89623 0.70324 0.0
C116 C 0.95738 0.90389 0.68797 0.0
C117 C 0.98891 0.89049 0.69856 0.0
H118 H 0.98811 0.9006 0.64843 0.0
H119 H 0.94334 0.91058 0.69189 0.0
C120 C 0.92858 0.97212 0.60794 0.0
N121 N 0.91884 0.98634 0.5699 0.0
C122 C 0.94338 0.97549 0.59355 0.0
C123 C 0.90882 0.97592 0.60292 0.0
C124 C 0.93816 0.98271 0.57442 0.0
C125 C 0.9042 0.98313 0.58363 0.0
C126 C 0.96852 0.91156 0.61391 0.0
C127 C 0.98309 0.91221 0.59894 0.0
C128 C 0.95886 0.89336 0.61806 0.0
C129 C 0.98768 0.8946 0.58826 0.0
C130 C 0.96388 0.87607 0.60708 0.0
N131 N 0.97805 0.87704 0.59252 0.0
C132 C -0.0005 0.9683 0.62892 0.0
C133 C 0.97562 0.99454 0.63083 0.0
C134 C 0.01466 0.98242 0.62618 0.0
N135 N 0.98048 0.97463 0.63108 0.0
C136 C 0.99023 0.00911 0.62807 0.0
C137 C 0.01007 0.00315 0.62567 0.0
H138 H 0.00286 0.95232 0.62945 0.0
H139 H 0.96034 -0.00095 0.63272 0.0
C140 C 0.90277 0.92479 0.59662 0.0
N141 N 0.92274 0.9271 0.59705 0.0
C142 C 0.89258 0.92642 0.57833 0.0
C143 C 0.9239 0.93098 0.56124 0.0
C144 C 0.93347 0.92914 0.57981 0.0
C145 C 0.90311 0.93078 0.56051 0.0
H146 H 0.89463 0.92355 0.61065 0.0
H147 H 0.94926 0.93157 0.58066 0.0
O148 O 0.95441 0.95063 0.66467 0.0
O149 O 0.92242 0.92397 0.64651 0.0
O150 O 0.93336 0.9647 0.62665 0.0
O151 O 0.96371 0.92877 0.62428 0.0
H152 H 0.99067 0.93918 0.67479 0.0
H153 H 0.9496 0.98897 0.67508 0.0
H154 H 0.01569 0.96131 0.69098 0.0
H155 H 0.97537 0.01026 0.69129 0.0
H156 H 0.89518 0.86111 0.6468 0.0
H157 H 0.90903 0.92414 0.68413 0.0
H158 H 0.91299 0.88898 0.62952 0.0
H159 H 0.89112 0.89573 0.70039 0.0
H160 H 0.90873 0.9793 0.71988 0.0
H161 H 0.86931 0.99563 0.67093 0.0
H162 H 0.01012 0.88652 0.67428 0.0
H163 H 0.96434 0.89646 0.71875 0.0
H164 H 0.9587 0.9722 0.59692 0.0
H165 H 0.89712 0.97307 0.61368 0.0
H166 H 0.94945 0.98528 0.56312 0.0
H167 H 0.88897 0.98609 0.57955 0.0
H168 H 0.99069 0.92623 0.59555 0.0
H169 H 0.94782 0.89257 0.62981 0.0
H170 H -0.00111 0.89489 0.57659 0.0
H171 H 0.95653 0.86187 0.61017 0.0
H172 H 0.02976 0.97718 0.62451 0.0
H173 H 0.98592 0.02486 0.62736 0.0
H174 H 0.87655 0.92588 0.5784 0.0
H175 H 0.93265 0.93462 0.54803 0.0
Li176 Li 0.28712 0.71857 0.89178 0.0
Li177 Li 0.28891 0.68601 0.91328 0.0
Li178 Li 0.31738 0.70791 0.90902 0.0
Li179 Li 0.30648 0.68861 0.88139 0.0
C180 C 0.29504 0.72763 0.93675 0.0
N181 N 0.30343 0.75355 0.96835 0.0
C182 C 0.29591 0.72029 0.95654 0.0
C183 C 0.29831 0.74816 0.93304 0.0
C184 C 0.30024 0.73364 0.97231 0.0
C185 C 0.30253 0.76102 0.94922 0.0
C186 C 0.26915 0.67949 0.87099 0.0
C187 C 0.25935 0.64723 0.85725 0.0
N188 N 0.25399 0.65651 0.83973 0.0
C189 C 0.26342 0.68874 0.85291 0.0
C190 C 0.26703 0.65859 0.87324 0.0
C191 C 0.25585 0.67684 0.83726 0.0
C192 C 0.26988 0.74727 0.86527 0.0
N193 N 0.27018 0.73997 0.88446 0.0
C194 C 0.24421 0.76234 0.89429 0.0
C195 C 0.25783 0.74723 0.89894 0.0
C196 C 0.24309 0.76984 0.87445 0.0
C197 C 0.25637 0.76232 0.85989 0.0
H198 H 0.27984 0.74108 0.85406 0.0
H199 H 0.25834 0.741 0.91404 0.0
C200 C 0.28159 0.66314 0.94858 0.0
N201 N 0.27366 0.67034 0.93114 0.0
C202 C 0.26962 0.65307 0.96256 0.0
C203 C 0.24181 0.65756 0.93994 0.0
C204 C 0.25424 0.66772 0.92657 0.0
C205 C 0.24937 0.65034 0.95839 0.0
H206 H 0.29709 0.66567 0.95184 0.0
H207 H 0.24835 0.67379 0.91263 0.0
C208 C 0.32584 0.73101 0.87136 0.0
N209 N 0.34951 0.75893 0.8518 0.0
C210 C 0.34208 0.72457 0.85995 0.0
C211 C 0.32146 0.75165 0.87254 0.0
C212 C 0.35391 0.73892 0.85026 0.0
C213 C 0.33367 0.76553 0.86264 0.0
C214 C 0.33473 0.66918 0.90486 0.0
C215 C 0.35015 0.68039 0.89637 0.0
C216 C 0.33795 0.64906 0.91039 0.0
C217 C 0.36856 0.67124 0.89345 0.0
C218 C 0.35657 0.64043 0.90722 0.0
N219 N 0.37137 0.65161 0.89888 0.0
C220 C 0.34193 0.70989 0.94293 0.0
C221 C 0.34484 0.73791 0.92074 0.0
C222 C 0.3516 0.72054 0.95827 0.0
N223 N 0.33803 0.71906 0.92496 0.0
C224 C 0.35447 0.74907 0.93558 0.0
C225 C 0.35703 0.74071 0.95487 0.0
H226 H 0.33593 0.69504 0.94598 0.0
H227 H 0.34133 0.74502 0.90659 0.0
C228 C 0.31086 0.68422 0.83992 0.0
N229 N 0.31226 0.67392 0.85763 0.0
C230 C 0.30863 0.67376 0.82179 0.0
C231 C 0.311 0.64232 0.84032 0.0
C232 C 0.31322 0.65341 0.85813 0.0
C233 C 0.30766 0.65255 0.822 0.0
H234 H 0.30956 0.70051 0.8401 0.0
H235 H 0.31384 0.64564 0.8725 0.0
O236 O 0.29107 0.71476 0.92107 0.0
O237 O 0.27702 0.69081 0.88632 0.0
O238 O 0.3138 0.71717 0.8806 0.0
O239 O 0.31648 0.67769 0.9077 0.0
H240 H 0.29343 0.70444 0.95967 0.0
H241 H 0.29779 0.75406 0.91779 0.0
H242 H 0.30109 0.72815 0.98769 0.0
H243 H 0.3052 0.77693 0.94655 0.0
H244 H 0.25777 0.63102 0.85871 0.0
H245 H 0.26503 0.70488 0.85091 0.0
H246 H 0.27152 0.65119 0.8871 0.0
H247 H 0.2515 0.68376 0.82312 0.0
H248 H 0.2344 0.76783 0.90602 0.0
H249 H 0.25581 0.76741 0.84435 0.0
H250 H 0.27605 0.64797 0.97665 0.0
H251 H 0.22643 0.65546 0.93586 0.0
H252 H 0.34544 0.70865 0.85845 0.0
H253 H 0.30894 0.75692 0.88124 0.0
H254 H 0.36656 0.73415 0.84143 0.0
H255 H 0.33054 0.78154 0.86357 0.0
H256 H 0.34797 0.696 0.8922 0.0
H257 H 0.32613 0.64018 0.91698 0.0
H258 H 0.38063 0.67976 0.88689 0.0
H259 H 0.35926 0.62485 0.91138 0.0
H260 H 0.35332 0.71369 0.97304 0.0
H261 H 0.35872 0.76454 0.93241 0.0
H262 H 0.30578 0.68226 0.8081 0.0
H263 H 0.31045 0.62598 0.84109 0.0
Li264 Li 0.56139 0.04377 0.16152 0.0
Li265 Li 0.54291 0.07468 0.15657 0.0
Li266 Li 0.52961 0.04482 0.14267 0.0
Li267 Li 0.55797 0.06077 0.12716 0.0
C268 C 0.5234 0.05584 0.18704 0.0
N269 N 0.50041 0.06881 0.21903 0.0
C270 C 0.50329 0.05989 0.18417 0.0
C271 C 0.53181 0.05829 0.20619 0.0
C272 C 0.49192 0.06649 0.20053 0.0
C273 C 0.51993 0.06488 0.22217 0.0
C274 C 0.58431 0.08293 0.16221 0.0
C275 C 0.60636 0.11162 0.16271 0.0
N276 N 0.61074 0.10764 0.18239 0.0
C277 C 0.58924 0.07897 0.18235 0.0
C278 C 0.59313 0.09923 0.15222 0.0
C279 C 0.60254 0.0917 0.19232 0.0
C280 C 0.59716 0.02652 0.17535 0.0
N281 N 0.5773 0.02759 0.17833 0.0
C282 C 0.57911 0.00392 0.20547 0.0
C283 C 0.56815 0.0167 0.19301 0.0
C284 C 0.59969 0.00239 0.20278 0.0
C285 C 0.60874 0.01398 0.18753 0.0
H286 H 0.60395 0.03539 0.16349 0.0
H287 H 0.55227 0.0177 0.1948 0.0
C288 C 0.51541 0.10406 0.1658 0.0
N289 N 0.5339 0.09784 0.17094 0.0
C290 C 0.50422 0.11541 0.17928 0.0
C291 C 0.53188 0.11531 0.20246 0.0
C292 C 0.54258 0.10391 0.18848 0.0
C293 C 0.51208 0.12026 0.19833 0.0
H294 H 0.50846 0.09834 0.15227 0.0
H295 H 0.55693 0.09826 0.19265 0.0
C296 C 0.54891 0.01344 0.12797 0.0
N297 N 0.53424 0.97671 0.11486 0.0
C298 C 0.54466 0.01044 0.10751 0.0
C299 C 0.5459 0.99771 0.14173 0.0
C300 C 0.53722 0.99176 0.10119 0.0
C301 C 0.53841 0.97926 0.13481 0.0
C302 C 0.52966 0.08901 0.11854 0.0
C303 C 0.51509 0.09163 0.10377 0.0
C304 C 0.54333 0.10443 0.12216 0.0
C305 C 0.51447 0.10969 0.09282 0.0
C306 C 0.54221 0.12228 0.11092 0.0
N307 N 0.52793 0.12451 0.0966 0.0
C308 C 0.50049 0.01615 0.15193 0.0
C309 C 0.49956 0.02844 0.11825 0.0
C310 C 0.48628 0.00155 0.14741 0.0
N311 N 0.50712 0.02882 0.13727 0.0
C312 C 0.48543 0.01396 0.11301 0.0
C313 C 0.47907 -0.00012 0.12755 0.0
H314 H 0.50699 0.01669 0.16686 0.0
H315 H 0.50539 0.03856 0.10688 0.0
C316 C 0.59108 0.0647 0.10206 0.0
N317 N 0.571 0.06406 0.1024 0.0
C318 C 0.60117 0.06164 0.08393 0.0
C319 C 0.56963 0.05875 0.0668 0.0
C320 C 0.56017 0.06196 0.08523 0.0
C321 C 0.59039 0.0576 0.06619 0.0
H322 H 0.59923 0.06614 0.11607 0.0
H323 H 0.54421 0.06107 0.08612 0.0
O324 O 0.53479 0.04945 0.1712 0.0
O325 O 0.57181 0.07027 0.15196 0.0
O326 O 0.55544 0.03187 0.1346 0.0
O327 O 0.53055 0.07127 0.12915 0.0
H328 H 0.49659 0.05819 0.1694 0.0
H329 H 0.54739 0.0553 0.20863 0.0
H330 H 0.47637 0.06983 0.1985 0.0
H331 H 0.52625 0.06695 0.23705 0.0
H332 H 0.61324 0.12433 0.15519 0.0
H333 H 0.5826 0.06641 0.19033 0.0
H334 H 0.58994 0.1022 0.13646 0.0
H335 H 0.60633 0.08892 0.20797 0.0
H336 H 0.57148 0.99502 0.21677 0.0
H337 H 0.62458 0.01342 0.1851 0.0
H338 H 0.48891 0.11852 0.17556 0.0
H339 H 0.53854 0.11888 0.21692 0.0
H340 H 0.54682 0.02247 0.09667 0.0
H341 H 0.54897 -0.00018 0.15763 0.0
H342 H 0.53372 0.98928 0.08543 0.0
H343 H 0.53582 0.96702 0.14533 0.0
H344 H 0.50443 0.07979 0.10075 0.0
H345 H 0.55457 0.10271 0.13361 0.0
H346 H 0.50329 0.11191 0.08132 0.0
H347 H 0.55269 0.13435 0.1136 0.0
H348 H 0.48163 0.99115 0.15912 0.0
H349 H 0.48053 0.01303 0.09745 0.0
H350 H 0.6172 0.06107 0.08404 0.0
H351 H 0.56074 0.05544 0.05359 0.0
Li352 Li 0.6881 0.18655 0.62004 0.0
Li353 Li 0.67613 0.20461 0.59201 0.0
Li354 Li 0.70484 0.18305 0.58779 0.0
Li355 Li 0.7066 0.2164 0.60791 0.0
C356 C 0.65942 0.16607 0.5979 0.0
N357 N 0.62293 0.1486 0.60502 0.0
C358 C 0.64442 0.17719 0.60725 0.0
C359 C 0.65584 0.14609 0.59208 0.0
C360 C 0.62607 0.16809 0.61074 0.0
C361 C 0.6373 0.13751 0.59584 0.0
C362 C 0.6688 0.22905 0.62943 0.0
C363 C 0.66099 0.26384 0.63701 0.0
N364 N 0.64604 0.25756 0.64927 0.0
C365 C 0.65347 0.22295 0.64225 0.0
C366 C 0.67271 0.24967 0.62692 0.0
C367 C 0.64209 0.2376 0.65208 0.0
C368 C 0.68517 0.18328 0.66182 0.0
N369 N 0.68289 0.17261 0.64443 0.0
C370 C 0.68309 0.14144 0.66255 0.0
C371 C 0.68105 0.15215 0.64449 0.0
C372 C 0.68718 0.15196 0.68053 0.0
C373 C 0.68728 0.1732 0.68018 0.0
H374 H 0.68713 0.1995 0.66118 0.0
H375 H 0.67971 0.14405 0.63037 0.0
C376 C 0.65134 0.20577 0.55838 0.0
N377 N 0.6545 0.21457 0.57667 0.0
C378 C 0.64033 0.21584 0.54363 0.0
C379 C 0.63445 0.24275 0.56763 0.0
C380 C 0.6456 0.23223 0.58181 0.0
C381 C 0.63246 0.23501 0.54796 0.0
H382 H 0.65881 0.19178 0.55467 0.0
H383 H 0.6484 0.23904 0.59628 0.0
C384 C 0.72549 0.17828 0.62988 0.0
N385 N 0.7408 0.15647 0.66189 0.0
C386 C 0.73216 0.18827 0.64721 0.0
C387 C 0.72677 0.15722 0.62875 0.0
C388 C 0.73981 0.17696 0.66325 0.0
C389 C 0.73452 0.14646 0.64511 0.0
C390 C 0.69695 0.22376 0.56295 0.0
C391 C 0.69662 0.21613 0.54325 0.0
C392 C 0.69186 0.24395 0.56643 0.0
C393 C 0.69092 0.22878 0.52736 0.0
C394 C 0.68621 0.2561 0.55015 0.0
N395 N 0.68584 0.24832 0.53112 0.0
C396 C 0.71148 0.15942 0.55293 0.0
C397 C 0.73878 0.16252 0.57532 0.0
C398 C 0.72287 0.14799 0.5395 0.0
N399 N 0.71966 0.16647 0.57034 0.0
C400 C 0.75056 0.15088 0.56255 0.0
C401 C 0.74264 0.14361 0.54434 0.0
H402 H 0.69622 0.1629 0.5494 0.0
H403 H 0.74494 0.16862 0.58912 0.0
C404 C 0.72408 0.24599 0.63312 0.0
N405 N 0.72315 0.2385 0.61403 0.0
C406 C 0.73727 0.26158 0.63772 0.0
C407 C 0.7478 0.26175 0.60277 0.0
C408 C 0.73449 0.24612 0.59889 0.0
C409 C 0.74958 0.26944 0.62248 0.0
H410 H 0.71487 0.23955 0.64485 0.0
H411 H 0.73347 0.23978 0.58386 0.0
O412 O 0.67757 0.17454 0.59444 0.0
O413 O 0.68032 0.21493 0.61991 0.0
O414 O 0.71741 0.18904 0.61425 0.0
O415 O 0.70199 0.21148 0.57878 0.0
H416 H 0.64686 0.1927 0.61164 0.0
H417 H 0.66733 0.13728 0.58481 0.0
H418 H 0.61433 0.17655 0.61797 0.0
H419 H 0.63435 0.12204 0.59147 0.0
H420 H 0.66379 0.27983 0.6351 0.0
H421 H 0.65042 0.20708 0.64469 0.0
H422 H 0.68454 0.2547 0.61715 0.0
H423 H 0.63015 0.23308 0.66199 0.0
H424 H 0.68282 0.12507 0.66222 0.0
H425 H 0.69073 0.18189 0.69361 0.0
H426 H 0.63894 0.20924 0.52872 0.0
H427 H 0.62885 0.25757 0.5716 0.0
H428 H 0.73124 0.20456 0.64834 0.0
H429 H 0.7215 0.14924 0.61551 0.0
H430 H 0.74489 0.18448 0.67682 0.0
H431 H 0.73543 0.13014 0.64453 0.0
H432 H 0.70055 0.20056 0.54029 0.0
H433 H 0.69203 0.25008 0.58157 0.0
H434 H 0.69044 0.22303 0.51206 0.0
H435 H 0.68204 0.27169 0.55265 0.0
H436 H 0.7163 0.14255 0.52559 0.0
H437 H 0.76583 0.14798 0.56663 0.0
H438 H 0.73838 0.26681 0.65319 0.0
H439 H 0.75686 0.26749 0.59054 0.0
Li440 Li 0.0348 0.45408 0.85898 0.0
Li441 Li 0.06012 0.43227 0.87169 0.0
Li442 Li 0.06613 0.45143 0.83996 0.0
Li443 Li 0.04203 0.42288 0.84216 0.0
C444 C 0.06471 0.47077 0.88606 0.0
N445 N 0.07151 0.48657 0.92414 0.0
C446 C 0.04977 0.47039 0.90069 0.0
C447 C 0.08313 0.47914 0.89085 0.0
C448 C 0.05349 0.47847 0.91983 0.0
C449 C 0.08626 0.48709 0.91016 0.0
C450 C 0.02669 0.40901 0.87972 0.0
C451 C 0.0318 0.37332 0.88496 0.0
N452 N 0.01785 0.37351 0.89978 0.0
C453 C 0.01234 0.40886 0.89494 0.0
C454 C 0.03646 0.39112 0.87464 0.0
C455 C 0.0081 0.39076 0.90493 0.0
C456 C 0.99548 0.46664 0.86743 0.0
N457 N 0.01446 0.47283 0.86465 0.0
C458 C 0.00517 0.50733 0.86866 0.0
C459 C 0.01953 0.49267 0.86513 0.0
C460 C 0.98537 0.50152 0.87163 0.0
C461 C 0.98056 0.48085 0.87099 0.0
H462 H 0.99194 0.4507 0.86674 0.0
H463 H 0.03477 0.49708 0.86274 0.0
C464 C 0.09352 0.42563 0.89515 0.0
N465 N 0.07344 0.42506 0.89568 0.0
C466 C 0.10418 0.42876 0.91294 0.0
C467 C 0.07335 0.42864 0.93151 0.0
C468 C 0.06331 0.42535 0.9134 0.0
C469 C 0.09394 0.4317 0.9312 0.0
H470 H 0.1011 0.42579 0.88075 0.0
H471 H 0.04733 0.42557 0.91331 0.0
C472 C 0.02497 0.46163 0.82116 0.0
N473 N 0.99612 0.4865 0.80507 0.0
C474 C 0.00603 0.45404 0.81727 0.0
C475 C 0.02926 0.48185 0.81682 0.0
C476 C 0.99165 0.46686 0.80913 0.0
C477 C 0.01446 0.49418 0.80871 0.0
C478 C 0.08161 0.40725 0.83686 0.0
C479 C 0.08793 0.40943 0.81687 0.0
C480 C 0.08642 0.3897 0.84757 0.0
C481 C 0.09841 0.3937 0.80768 0.0
C482 C 0.09694 0.37432 0.83786 0.0
N483 N 0.10263 0.37661 0.81827 0.0
C484 C 0.09975 0.47507 0.82979 0.0
C485 C 0.07804 0.46661 0.8029 0.0
C486 C 0.11107 0.48713 0.81689 0.0
N487 N 0.08344 0.46542 0.82264 0.0
C488 C 0.08886 0.47851 0.78951 0.0
C489 C 0.10545 0.48922 0.79652 0.0
H490 H 0.10372 0.4737 0.84554 0.0
H491 H 0.06497 0.45873 0.7977 0.0
C492 C 0.01117 0.39741 0.83021 0.0
N493 N 0.02951 0.4041 0.82505 0.0
C494 C -0.00161 0.39019 0.81537 0.0
C495 C 0.02404 0.39559 0.79043 0.0
C496 C 0.03629 0.40291 0.80574 0.0
C497 C 0.00456 0.39005 0.79513 0.0
H498 H 0.0057 0.39952 0.84539 0.0
H499 H 0.05039 0.40947 0.80184 0.0
O500 O 0.06155 0.46249 0.86736 0.0
O501 O 0.03111 0.4267 0.87002 0.0
O502 O 0.0391 0.44946 0.82959 0.0
O503 O 0.07166 0.42264 0.84623 0.0
H504 H 0.03559 0.46352 0.89748 0.0
H505 H 0.09494 0.47939 0.87984 0.0
H506 H 0.0421 0.47815 0.93131 0.0
H507 H 0.10045 0.49359 0.91407 0.0
H508 H 0.03923 0.35934 0.88114 0.0
H509 H 0.00465 0.42262 0.89904 0.0
H510 H 0.0473 0.39094 0.86268 0.0
H511 H 0.99708 0.39042 0.91679 0.0
H512 H 0.00965 0.52304 0.86945 0.0
H513 H 0.96547 0.47574 0.87309 0.0
H514 H 0.12008 0.43071 0.9121 0.0
H515 H 0.06479 0.43105 0.94513 0.0
H516 H 0.00241 0.43849 0.82067 0.0
H517 H 0.04377 0.48803 0.81997 0.0
H518 H 0.97692 0.4612 0.80611 0.0
H519 H 0.01753 0.50989 0.80539 0.0
H520 H 0.08469 0.42308 0.80849 0.0
H521 H 0.08225 0.38803 0.86327 0.0
H522 H 0.10323 0.39512 0.79215 0.0
H523 H 0.10066 0.36061 0.84593 0.0
H524 H 0.12394 0.49487 0.82283 0.0
H525 H 0.08386 0.47984 0.77401 0.0
H526 H 0.9834 0.38603 0.81945 0.0
H527 H 0.02913 0.39596 0.77491 0.0
Li528 Li 0.8192 0.7904 0.08862 0.0
Li529 Li 0.8096 0.80798 0.11804 0.0
Li530 Li 0.78871 0.78002 0.10591 0.0
Li531 Li 0.79177 0.81386 0.08672 0.0
C532 C 0.82706 0.76498 0.12553 0.0
N533 N 0.84957 0.73614 0.14518 0.0
C534 C 0.84322 0.77081 0.13739 0.0
C535 C 0.82222 0.74449 0.12387 0.0
C536 C 0.85445 0.75599 0.14715 0.0
C537 C 0.83382 0.73014 0.13385 0.0
C538 C 0.83851 0.82776 0.09573 0.0
C539 C 0.86162 0.85556 0.09581 0.0
N540 N 0.87602 0.84292 0.10267 0.0
C541 C 0.85355 0.81504 0.10271 0.0
C542 C 0.84257 0.84817 0.09218 0.0
C543 C 0.87241 0.82299 0.10614 0.0
C544 C 0.84206 0.78832 0.05352 0.0
N545 N 0.83893 0.77918 0.07166 0.0
C546 C 0.85437 0.74895 0.06022 0.0
C547 C 0.84569 0.76025 0.07554 0.0
C548 C 0.85606 0.75728 0.04082 0.0
C549 C 0.85077 0.77754 0.0377 0.0
H550 H 0.83612 0.80327 0.0508 0.0
H551 H 0.84284 0.75322 0.0899 0.0
C552 C 0.81203 0.80749 0.15925 0.0
N553 N 0.81626 0.81956 0.14324 0.0
C554 C 0.8099 0.81576 0.17844 0.0
C555 C 0.81854 0.84846 0.16467 0.0
C556 C 0.82035 0.83953 0.14561 0.0
C557 C 0.81213 0.83672 0.18118 0.0
H558 H 0.80828 0.79178 0.15677 0.0
H559 H 0.82323 0.84886 0.13252 0.0
C560 C 0.79519 0.77295 0.0607 0.0
N561 N 0.80147 0.74745 0.02825 0.0
C562 C 0.79502 0.7806 0.04101 0.0
C563 C 0.79844 0.75233 0.06389 0.0
C564 C 0.7983 0.76747 0.0248 0.0
C565 C 0.80158 0.73968 0.04729 0.0
C566 C 0.77307 0.81935 0.12912 0.0
C567 C 0.76497 0.81015 0.14624 0.0
C568 C 0.77439 0.84042 0.12816 0.0
C569 C 0.75855 0.82222 0.1623 0.0
C570 C 0.7678 0.85195 0.14453 0.0
N571 N 0.76011 0.84269 0.16112 0.0
C572 C 0.77157 0.75198 0.13241 0.0
C573 C 0.75929 0.75083 0.09884 0.0
C574 C 0.75848 0.73677 0.1383 0.0
N575 N 0.77158 0.75874 0.11303 0.0
C576 C 0.74608 0.73548 0.10401 0.0
C577 C 0.74532 0.72847 0.12405 0.0
H578 H 0.78151 0.75868 0.14335 0.0
H579 H 0.75956 0.75664 0.08357 0.0
C580 C 0.78549 0.83778 0.05221 0.0
N581 N 0.77741 0.83156 0.06997 0.0
C582 C 0.77424 0.84913 0.03861 0.0
C583 C 0.74693 0.84805 0.06225 0.0
C584 C 0.75859 0.8365 0.07525 0.0
C585 C 0.75466 0.85424 0.04355 0.0
H586 H 0.80048 0.83345 0.04843 0.0
H587 H 0.75249 0.83102 0.08933 0.0
O588 O 0.81565 0.77927 0.11611 0.0
O589 O 0.81985 0.82044 0.09247 0.0
O590 O 0.79228 0.7856 0.07679 0.0
O591 O 0.77997 0.80778 0.11349 0.0
H592 H 0.847 0.7866 0.13918 0.0
H593 H 0.80975 0.7397 0.11479 0.0
H594 H 0.86701 0.76029 0.15635 0.0
H595 H 0.83031 0.71423 0.13259 0.0
H596 H 0.86495 0.87134 0.09319 0.0
H597 H 0.85073 0.7992 0.10535 0.0
H598 H 0.83106 0.85821 0.08679 0.0
H599 H 0.88418 0.8133 0.11156 0.0
H600 H 0.85856 0.73341 0.06316 0.0
H601 H 0.85185 0.78437 0.02286 0.0
H602 H 0.80461 0.80608 0.19047 0.0
H603 H 0.8207 0.86462 0.16613 0.0
H604 H 0.79252 0.79651 0.03827 0.0
H605 H 0.79876 0.74619 0.07904 0.0
H606 H 0.79833 0.77319 0.00948 0.0
H607 H 0.80419 0.72371 0.04955 0.0
H608 H 0.76386 0.79386 0.14722 0.0
H609 H 0.78073 0.84775 0.11504 0.0
H610 H 0.75242 0.81531 0.17572 0.0
H611 H 0.7689 0.86826 0.14409 0.0
H612 H 0.75818 0.73213 0.15399 0.0
H613 H 0.73636 0.7294 0.09249 0.0
H614 H 0.7807 0.85374 0.02435 0.0
H615 H 0.73181 0.85149 0.06647 0.0
Li616 Li 0.43916 0.55559 0.37218 0.0
Li617 Li 0.46553 0.53576 0.35659 0.0
Li618 Li 0.45509 0.56838 0.34293 0.0
Li619 Li 0.43407 0.53891 0.33952 0.0
C620 C 0.47275 0.57177 0.38676 0.0
N621 N 0.48232 0.58956 0.42326 0.0
C622 C 0.4851 0.56172 0.40042 0.0
C623 C 0.46545 0.59095 0.39156 0.0
C624 C 0.48972 0.57095 0.41883 0.0
C625 C 0.4704 0.59966 0.41012 0.0
C626 C 0.42568 0.51128 0.36699 0.0
C627 C 0.41273 0.47928 0.35546 0.0
N628 N 0.39677 0.4817 0.36774 0.0
C629 C 0.40915 0.51342 0.37953 0.0
C630 C 0.42752 0.49404 0.35489 0.0
C631 C 0.39471 0.4983 0.3797 0.0
C632 C 0.41015 0.571 0.39945 0.0
N633 N 0.42761 0.56096 0.39752 0.0
C634 C 0.42736 0.55185 0.43235 0.0
C635 C 0.43636 0.55165 0.41347 0.0
C636 C 0.40883 0.56112 0.43464 0.0
C637 C 0.40032 0.57113 0.41805 0.0
H638 H 0.40334 0.57783 0.38631 0.0
H639 H 0.44976 0.54302 0.41124 0.0
C640 C 0.50628 0.52548 0.36104 0.0
N641 N 0.48736 0.51842 0.36158 0.0
C642 C 0.52216 0.51228 0.36427 0.0
C643 C 0.49866 0.485 0.36845 0.0
C644 C 0.48333 0.49869 0.36536 0.0
C645 C 0.51837 0.49172 0.36787 0.0
H646 H 0.509 0.54132 0.35807 0.0
H647 H 0.4682 0.49357 0.36604 0.0
C648 C 0.41915 0.58308 0.33795 0.0
N649 N 0.40605 0.61676 0.31721 0.0
C650 C 0.41113 0.58104 0.31858 0.0
C651 C 0.4203 0.60218 0.34688 0.0
C652 C 0.40465 0.59827 0.30831 0.0
C653 C 0.41366 0.61905 0.33611 0.0
C654 C 0.47678 0.53461 0.31923 0.0
C655 C 0.49332 0.54657 0.31491 0.0
C656 C 0.47743 0.51384 0.31535 0.0
C657 C 0.51022 0.53755 0.30675 0.0
C658 C 0.49463 0.50537 0.30724 0.0
N659 N 0.51053 0.51731 0.30313 0.0
C660 C 0.48037 0.60108 0.33671 0.0
C661 C 0.46121 0.59101 0.30833 0.0
C662 C 0.49325 0.61178 0.32424 0.0
N663 N 0.46525 0.59036 0.32844 0.0
C664 C 0.47359 0.6017 0.29534 0.0
C665 C 0.49041 0.61128 0.30323 0.0
H666 H 0.48362 0.59968 0.35263 0.0
H667 H 0.44967 0.58154 0.30213 0.0
C668 C 0.3968 0.52276 0.32742 0.0
N669 N 0.41605 0.52552 0.32209 0.0
C670 C 0.38424 0.5114 0.31507 0.0
C671 C 0.4113 0.507 0.29154 0.0
C672 C 0.42329 0.51837 0.30434 0.0
C673 C 0.39161 0.50306 0.29703 0.0
H674 H 0.39138 0.52893 0.34151 0.0
H675 H 0.43846 0.52133 0.30016 0.0
O676 O 0.46793 0.56291 0.36874 0.0
O677 O 0.43993 0.52601 0.36649 0.0
O678 O 0.42569 0.56642 0.34819 0.0
O679 O 0.46023 0.54306 0.3277 0.0
H680 H 0.49087 0.54687 0.39695 0.0
H681 H 0.45598 0.59897 0.3811 0.0
H682 H 0.49916 0.5633 0.4296 0.0
H683 H 0.46477 0.61445 0.41408 0.0
H684 H 0.41389 0.46596 0.34604 0.0
H685 H 0.4074 0.52662 0.38898 0.0
H686 H 0.44002 0.49224 0.34484 0.0
H687 H 0.38183 0.49979 0.3893 0.0
H688 H 0.43409 0.54345 0.44462 0.0
H689 H 0.38587 0.57814 0.41926 0.0
H690 H 0.53717 0.51802 0.36383 0.0
H691 H 0.4951 0.46936 0.3717 0.0
H692 H 0.41009 0.56634 0.31147 0.0
H693 H 0.42624 0.60397 0.36195 0.0
H694 H 0.39852 0.59695 0.29326 0.0
H695 H 0.41453 0.63395 0.3428 0.0
H696 H 0.49327 0.5626 0.31803 0.0
H697 H 0.46491 0.50428 0.31889 0.0
H698 H 0.52313 0.54663 0.30338 0.0
H699 H 0.49537 0.4893 0.3043 0.0
H700 H 0.50611 0.61908 0.33077 0.0
H701 H 0.47116 0.60077 0.27918 0.0
H702 H 0.36914 0.5087 0.31986 0.0
H703 H 0.41741 0.5013 0.27752 0.0
Li704 Li 0.38761 0.20288 0.28411 0.0
Li705 Li 0.4085 0.20018 0.31673 0.0
Li706 Li 0.40535 0.17201 0.29341 0.0
Li707 Li 0.37778 0.18146 0.31294 0.0
C708 C 0.43158 0.19751 0.27456 0.0
N709 N 0.46237 0.19324 0.24741 0.0
C710 C 0.45118 0.19878 0.28122 0.0
C711 C 0.42764 0.19419 0.25409 0.0
C712 C 0.46654 0.1965 0.26726 0.0
C713 C 0.4434 0.1921 0.2406 0.0
C714 C 0.36681 0.21916 0.32393 0.0
C715 C 0.35341 0.22772 0.35661 0.0
N716 N 0.33634 0.23385 0.34758 0.0
C717 C 0.34918 0.22563 0.31496 0.0
C718 C 0.36899 0.22024 0.34491 0.0
C719 C 0.33392 0.23295 0.32719 0.0
C720 C 0.3609 0.22058 0.25647 0.0
N721 N 0.37982 0.22068 0.26341 0.0
C722 C 0.38825 0.24805 0.24157 0.0
C723 C 0.39349 0.23391 0.25623 0.0
C724 C 0.36864 0.24882 0.23452 0.0
C725 C 0.35493 0.23462 0.24194 0.0
H726 H 0.35036 0.20989 0.26258 0.0
H727 H 0.4084 0.23371 0.26216 0.0
C728 C 0.44315 0.20707 0.33936 0.0
N729 N 0.42569 0.21524 0.33323 0.0
C730 C 0.45674 0.21882 0.3501 0.0
C731 C 0.43377 0.24686 0.34847 0.0
C732 C 0.42078 0.23468 0.33754 0.0
C733 C 0.45209 0.239 0.35469 0.0
H734 H 0.44666 0.19158 0.33549 0.0
H735 H 0.40693 0.24084 0.33211 0.0
C736 C 0.36893 0.16316 0.26979 0.0
N737 N 0.35084 0.13918 0.24099 0.0
C738 C 0.35835 0.14595 0.27562 0.0
C739 C 0.37005 0.16833 0.24933 0.0
C740 C 0.34938 0.13398 0.26083 0.0
C741 C 0.36088 0.15596 0.23499 0.0
C742 C 0.4013 0.15239 0.33128 0.0
C743 C 0.39401 0.13681 0.31912 0.0
C744 C 0.40605 0.14849 0.35147 0.0
C745 C 0.39149 0.11755 0.3274 0.0
C746 C 0.40331 0.12903 0.3592 0.0
N747 N 0.39614 0.11409 0.34711 0.0
C748 C 0.44038 0.15082 0.28928 0.0
C749 C 0.41752 0.14486 0.26271 0.0
C750 C 0.45592 0.1435 0.27748 0.0
N751 N 0.42189 0.15236 0.28129 0.0
C752 C 0.43255 0.13742 0.25044 0.0
C753 C 0.45216 0.13781 0.25742 0.0
H754 H 0.44343 0.1573 0.30397 0.0
H755 H 0.40283 0.1463 0.25663 0.0
C756 C 0.33739 0.1766 0.31602 0.0
N757 N 0.35435 0.17448 0.32682 0.0
C758 C 0.31937 0.17894 0.32595 0.0
C759 C 0.33642 0.17483 0.35784 0.0
C760 C 0.35417 0.17261 0.34727 0.0
C761 C 0.31892 0.17925 0.34718 0.0
H762 H 0.33811 0.17866 0.29982 0.0
H763 H 0.36797 0.17144 0.35546 0.0
O764 O 0.41633 0.19956 0.28801 0.0
O765 O 0.38184 0.21175 0.31224 0.0
O766 O 0.37753 0.17528 0.28408 0.0
O767 O 0.40373 0.17144 0.32363 0.0
H768 H 0.45449 0.20136 0.297 0.0
H769 H 0.41256 0.19312 0.2487 0.0
H770 H 0.48179 0.1973 0.27221 0.0
H771 H 0.44055 0.1895 0.22472 0.0
H772 H 0.35484 0.22854 0.37287 0.0
H773 H 0.34724 0.22485 0.29875 0.0
H774 H 0.3825 0.21515 0.3521 0.0
H775 H 0.32013 0.23788 0.32047 0.0
H776 H 0.39935 0.25852 0.23611 0.0
H777 H 0.33959 0.23486 0.23721 0.0
H778 H 0.47071 0.21225 0.35474 0.0
H779 H 0.42979 0.26243 0.35149 0.0
H780 H 0.35694 0.14194 0.29142 0.0
H781 H 0.37807 0.18164 0.24453 0.0
H782 H 0.3412 0.12059 0.26512 0.0
H783 H 0.36175 0.15971 0.2191 0.0
H784 H 0.39043 0.13951 0.30346 0.0
H785 H 0.4117 0.16042 0.36108 0.0
H786 H 0.38585 0.10535 0.31815 0.0
H787 H 0.40687 0.12581 0.37482 0.0
H788 H 0.47088 0.14402 0.28335 0.0
H789 H 0.42908 0.13271 0.23516 0.0
H790 H 0.30638 0.18262 0.31708 0.0
H791 H 0.33668 0.17477 0.37421 0.0
Li792 Li 0.04099 0.16177 0.56647 0.0
Li793 Li 0.03905 0.14098 0.53353 0.0
Li794 Li 0.05775 0.12941 0.56346 0.0
Li795 Li 0.06958 0.15719 0.54496 0.0
C796 C 0.02041 0.12002 0.57248 0.0
N797 N 0.00527 0.08889 0.59565 0.0
C798 C 0.01294 0.10264 0.56319 0.0
C799 C 0.01999 0.12167 0.59355 0.0
C800 C 0.00539 0.08704 0.57517 0.0
C801 C 0.01232 0.10573 0.605 0.0
C802 C 0.04884 0.18566 0.52511 0.0
C803 C 0.05962 0.19744 0.49241 0.0
N804 N 0.06037 0.21665 0.4997 0.0
C805 C 0.04954 0.20554 0.53223 0.0
C806 C 0.05374 0.18157 0.50499 0.0
C807 C 0.05546 0.221 0.51916 0.0
C808 C 0.03391 0.19747 0.58885 0.0
N809 N 0.026 0.1797 0.58245 0.0
C810 C 0.99458 0.18829 0.59644 0.0
C811 C 0.00681 0.17486 0.5861 0.0
C812 C 0.00206 0.2071 0.60276 0.0
C813 C 0.02211 0.21153 0.59903 0.0
H814 H 0.04923 0.20093 0.58556 0.0
H815 H 0.00089 0.16067 0.58066 0.0
C816 C 0.02142 0.11473 0.50502 0.0
N817 N 0.02235 0.13411 0.51177 0.0
C818 C 0.008 0.10947 0.48986 0.0
C819 C 0.99719 0.14432 0.48859 0.0
C820 C 0.01077 0.14889 0.50379 0.0
C821 C 0.99541 0.12431 0.48169 0.0
H822 H 0.03078 0.1033 0.51178 0.0
H823 H 0.0118 0.16415 0.50956 0.0
C824 C 0.08648 0.15176 0.58353 0.0
N825 N 0.12302 0.14459 0.60089 0.0
C826 C 0.10141 0.1423 0.5724 0.0
C827 C 0.09015 0.15765 0.60347 0.0
C828 C 0.11978 0.13879 0.58144 0.0
C829 C 0.10871 0.15387 0.61198 0.0
C830 C 0.07673 0.11905 0.52124 0.0
C831 C 0.09199 0.10631 0.52769 0.0
C832 C 0.07272 0.12089 0.50058 0.0
C833 C 0.10319 0.09587 0.51334 0.0
C834 C 0.08426 0.1102 0.4867 0.0
N835 N 0.09914 0.09802 0.49331 0.0
C836 C 0.05966 0.08795 0.56628 0.0
C837 C 0.06565 0.1043 0.5976 0.0
C838 C 0.05709 0.06947 0.57598 0.0
N839 N 0.06298 0.10495 0.57725 0.0
C840 C 0.06328 0.08605 0.60795 0.0
C841 C 0.05789 0.06854 0.59719 0.0
H842 H 0.05709 0.08907 0.55019 0.0
H843 H 0.06787 0.11815 0.60597 0.0
C844 C 0.09467 0.19064 0.54303 0.0
N845 N 0.09123 0.17222 0.53462 0.0
C846 C 0.10605 0.20492 0.53272 0.0
C847 C 0.11158 0.18022 0.50637 0.0
C848 C 0.10006 0.16652 0.5171 0.0
C849 C 0.114 0.19997 0.51375 0.0
H850 H 0.08725 0.19478 0.55692 0.0
H851 H 0.09699 0.15197 0.51059 0.0
O852 O 0.02844 0.13518 0.56106 0.0
O853 O 0.04367 0.17022 0.53783 0.0
O854 O 0.06829 0.15521 0.57513 0.0
O855 O 0.06538 0.12919 0.53507 0.0
H856 H 0.01319 0.10112 0.54691 0.0
H857 H 0.02585 0.13497 0.60097 0.0
H858 H -0.00028 0.07343 0.5682 0.0
H859 H 0.01209 0.10671 0.62132 0.0
H860 H 0.06365 0.19447 0.47687 0.0
H861 H 0.04577 0.20897 0.54774 0.0
H862 H 0.05329 0.16628 0.49925 0.0
H863 H 0.05624 0.23643 0.52451 0.0
H864 H 0.97938 0.18398 0.59933 0.0
H865 H 0.0285 0.22589 0.6034 0.0
H866 H 0.00691 0.09381 0.48521 0.0
H867 H 0.9879 0.15625 0.4826 0.0
H868 H 0.0989 0.13782 0.55693 0.0
H869 H 0.07872 0.165 0.61228 0.0
H870 H 0.13147 0.13148 0.57298 0.0
H871 H 0.11174 0.15831 0.62742 0.0
H872 H 0.09512 0.1044 0.54362 0.0
H873 H 0.06094 0.1306 0.49528 0.0
H874 H 0.11508 0.086 0.51813 0.0
H875 H 0.08139 0.11158 0.47067 0.0
H876 H 0.05262 0.05655 0.56702 0.0
H877 H 0.06424 0.08596 0.62429 0.0
H878 H 0.10775 0.21994 0.53901 0.0
H879 H 0.11722 0.1758 0.4917 0.0
Li880 Li 0.09224 0.82872 0.78908 0.0
Li881 Li 0.11931 0.81677 0.80781 0.0
Li882 Li 0.10854 0.79795 0.77749 0.0
Li883 Li 0.08778 0.79917 0.81022 0.0
C884 C 0.12929 0.83696 0.7657 0.0
N885 N 0.14909 0.86062 0.73783 0.0
C886 C 0.14124 0.85295 0.7722 0.0
C887 C 0.12766 0.83281 0.74504 0.0
C888 C 0.15106 0.86479 0.75787 0.0
C889 C 0.13771 0.84501 0.73119 0.0
C890 C 0.09682 0.84547 0.82808 0.0
C891 C 0.09425 0.8675 0.857 0.0
N892 N 0.10314 0.88251 0.84627 0.0
C893 C 0.10587 0.86111 0.81732 0.0
C894 C 0.0909 0.84867 0.84806 0.0
C895 C 0.10896 0.87973 0.82678 0.0
C896 C 0.05951 0.85428 0.78785 0.0
N897 N 0.07719 0.85061 0.77878 0.0
C898 C 0.06754 0.86937 0.74969 0.0
C899 C 0.08176 0.8587 0.76052 0.0
C900 C 0.04845 0.8717 0.75777 0.0
C901 C 0.04479 0.8649 0.77754 0.0
H902 H 0.05622 0.84737 0.8023 0.0
H903 H 0.0957 0.85535 0.75345 0.0
C904 C 0.15993 0.81945 0.81153 0.0
N905 N 0.14292 0.82201 0.82215 0.0
C906 C 0.17778 0.81652 0.82165 0.0
C907 C 0.16049 0.8208 0.85338 0.0
C908 C 0.14293 0.82362 0.84262 0.0
C909 C 0.178 0.81612 0.84288 0.0
H910 H 0.15933 0.81769 0.79529 0.0
H911 H 0.12909 0.82519 0.85067 0.0
C912 C 0.06447 0.80725 0.76908 0.0
N913 N 0.0335 0.81819 0.74407 0.0
C914 C 0.04514 0.80789 0.77659 0.0
C915 C 0.06802 0.81197 0.74881 0.0
C916 C 0.02969 0.8135 0.76371 0.0
C917 C 0.05218 0.81754 0.73642 0.0
C918 C 0.12853 0.77842 0.81667 0.0
C919 C 0.14596 0.7713 0.80781 0.0
C920 C 0.1261 0.77719 0.83762 0.0
C921 C 0.16081 0.76323 0.82012 0.0
C922 C 0.14128 0.76898 0.8494 0.0
N923 N 0.15818 0.76226 0.84048 0.0
C924 C 0.13494 0.77998 0.74976 0.0
C925 C 0.10146 0.76946 0.74723 0.0
C926 C 0.14056 0.76598 0.73506 0.0
N927 N 0.11574 0.78114 0.75574 0.0
C928 C 0.10638 0.75538 0.73237 0.0
C929 C 0.12625 0.75312 0.72649 0.0
H930 H 0.14595 0.78946 0.75692 0.0
H931 H 0.08633 0.77065 0.7524 0.0
C932 C 0.05334 0.79142 0.8333 0.0
N933 N 0.07038 0.7834 0.82594 0.0
C934 C 0.03993 0.7792 0.84378 0.0
C935 C 0.06226 0.75097 0.83934 0.0
C936 C 0.07505 0.76363 0.82873 0.0
C937 C 0.04427 0.75861 0.84682 0.0
H938 H 0.05 0.80721 0.83067 0.0
H939 H 0.08865 0.75765 0.82254 0.0
O940 O 0.11985 0.82494 0.77952 0.0
O941 O 0.09378 0.82702 0.81925 0.0
O942 O 0.07986 0.80218 0.78155 0.0
O943 O 0.11403 0.78686 0.80494 0.0
H944 H 0.14304 0.85613 0.78814 0.0
H945 H 0.11857 0.82045 0.73973 0.0
H946 H 0.16031 0.87725 0.76268 0.0
H947 H 0.13646 0.84206 0.71515 0.0
H948 H 0.0898 0.87018 0.87248 0.0
H949 H 0.11035 0.85896 0.80182 0.0
H950 H 0.08387 0.83668 0.85658 0.0
H951 H 0.11595 0.89197 0.81862 0.0
H952 H 0.07101 0.8741 0.73443 0.0
H953 H 0.03035 0.86662 0.78443 0.0
H954 H 0.1908 0.81266 0.81293 0.0
H955 H 0.16008 0.82078 0.86975 0.0
H956 H 0.04214 0.80427 0.79223 0.0
H957 H 0.0829 0.8116 0.74278 0.0
H958 H 0.01468 0.8142 0.76935 0.0
H959 H 0.05473 0.82142 0.72076 0.0
H960 H 0.14809 0.77219 0.79163 0.0
H961 H 0.11275 0.7828 0.84473 0.0
H962 H 0.17445 0.7578 0.81349 0.0
H963 H 0.13968 0.76809 0.86564 0.0
H964 H 0.15608 0.76457 0.73122 0.0
H965 H 0.09485 0.74596 0.72602 0.0
H966 H 0.02616 0.78574 0.84901 0.0
H967 H 0.0665 0.73535 0.84165 0.0
Li968 Li 0.43177 0.84007 0.04269 0.0
Li969 Li 0.44388 0.86828 0.06037 0.0
Li970 Li 0.46209 0.85583 0.0305 0.0
Li971 Li 0.46058 0.83604 0.06405 0.0
C972 C 0.42454 0.87729 0.01772 0.0
N973 N 0.40218 0.89681 0.98867 0.0
C974 C 0.40944 0.89056 0.02345 0.0
C975 C 0.42839 0.87411 0.99719 0.0
C976 C 0.39827 0.90024 0.00854 0.0
C977 C 0.41688 0.88407 0.98274 0.0
C978 C 0.41528 0.84628 0.08117 0.0
C979 C 0.39308 0.84374 0.1096 0.0
N980 N 0.37883 0.85336 0.09871 0.0
C981 C 0.40041 0.85608 0.07025 0.0
C982 C 0.4116 0.83999 0.10099 0.0
C983 C 0.38208 0.85954 0.07938 0.0
C984 C 0.40652 0.80669 0.04219 0.0
N985 N 0.4098 0.8249 0.03326 0.0
C986 C 0.38829 0.81651 0.00602 0.0
C987 C 0.40033 0.83031 0.01599 0.0
C988 C 0.386 0.79693 0.0139 0.0
C989 C 0.39465 0.79229 0.03263 0.0
H990 H 0.41438 0.80279 0.0559 0.0
H991 H 0.40316 0.84473 0.00911 0.0
C992 C 0.44065 0.91011 0.06343 0.0
N993 N 0.43859 0.89273 0.07416 0.0
C994 C 0.4422 0.92858 0.07343 0.0
C995 C 0.43806 0.911 0.10522 0.0
C996 C 0.43656 0.89285 0.09459 0.0
C997 C 0.44179 0.92904 0.09465 0.0
H998 H 0.44274 0.90944 0.04724 0.0
H999 H 0.43539 0.87874 0.10275 0.0
C1000 C 0.45203 0.81048 0.02417 0.0
N1001 N 0.43981 0.77792 0.00116 0.0
C1002 C 0.4517 0.79108 0.03254 0.0
C1003 C 0.44642 0.81329 0.00403 0.0
C1004 C 0.44542 0.77482 0.02067 0.0
C1005 C 0.44019 0.79665 0.99267 0.0
C1006 C 0.48113 0.87808 0.06857 0.0
C1007 C 0.48766 0.89552 0.05869 0.0
C1008 C 0.48235 0.87684 0.08963 0.0
C1009 C 0.4951 0.9116 0.07011 0.0
C1010 C 0.48988 0.89324 0.1005 0.0
N1011 N 0.49602 0.91015 0.0906 0.0
C1012 C 0.4793 0.88104 0.00081 0.0
C1013 C 0.48913 0.84663 -0.00012 0.0
C1014 C 0.49204 0.88563 0.98485 0.0
N1015 N 0.47829 0.86186 0.00808 0.0
C1016 C 0.50201 0.85051 0.98387 0.0
C1017 C 0.50384 0.87029 0.97636 0.0
H1018 H 0.47046 0.89283 0.00768 0.0
H1019 H 0.48803 0.83153 0.00602 0.0
C1020 C 0.46672 0.80219 0.08918 0.0
N1021 N 0.47532 0.81885 0.08096 0.0
C1022 C 0.47783 0.78915 0.10133 0.0
C1023 C 0.50619 0.81101 0.09661 0.0
C1024 C 0.49464 0.82342 0.08433 0.0
C1025 C 0.4978 0.7936 0.1052 0.0
H1026 H 0.45129 0.799 0.08617 0.0
H1027 H 0.5011 0.83667 0.07739 0.0
O1028 O 0.43583 0.86788 0.03212 0.0
O1029 O 0.43343 0.84282 0.07267 0.0
O1030 O 0.45758 0.82669 0.03572 0.0
O1031 O 0.47317 0.86245 0.05771 0.0
H1032 H 0.40641 0.89346 0.03925 0.0
H1033 H 0.44 0.86393 0.99244 0.0
H1034 H 0.38652 0.91051 0.01277 0.0
H1035 H 0.41963 0.88167 0.96681 0.0
H1036 H 0.39004 0.83901 0.12494 0.0
H1037 H 0.40294 0.86085 0.05488 0.0
H1038 H 0.42299 0.83237 0.10963 0.0
H1039 H 0.37044 0.86711 0.07109 0.0
H1040 H 0.3821 0.82069 0.99151 0.0
H1041 H 0.39307 0.77742 0.03929 0.0
H1042 H 0.4454 0.94205 0.06472 0.0
H1043 H 0.43759 0.91076 0.12159 0.0
H1044 H 0.45603 0.78864 0.04809 0.0
H1045 H 0.4466 0.8282 0.99733 0.0
H1046 H 0.44492 0.75974 0.02699 0.0
H1047 H 0.4356 0.79863 0.97713 0.0
H1048 H 0.48677 0.89673 0.04242 0.0
H1049 H 0.47719 0.8635 0.09751 0.0
H1050 H 0.50005 0.92527 0.06269 0.0
H1051 H 0.49073 0.89259 0.11682 0.0
H1052 H 0.4932 0.90115 0.97978 0.0
H1053 H 0.51068 0.83822 0.97767 0.0
H1054 H 0.47086 0.77589 0.10779 0.0
H1055 H 0.52161 0.81477 0.09907 0.0
Li1056 Li 0.87403 0.31809 0.6855 0.0
Li1057 Li 0.90116 0.33016 0.70402 0.0
Li1058 Li 0.90581 0.30108 0.68225 0.0
Li1059 Li 0.88556 0.29887 0.71526 0.0
C1060 C 0.89571 0.34751 0.66536 0.0
N1061 N 0.88851 0.3847 0.64783 0.0
C1062 C 0.88676 0.36289 0.67655 0.0
C1063 C 0.90109 0.35104 0.64527 0.0
C1064 C 0.88322 0.38159 0.66742 0.0
C1065 C 0.8973 0.36994 0.63667 0.0
C1066 C 0.86441 0.33743 0.72807 0.0
C1067 C 0.85637 0.34491 0.76281 0.0
N1068 N 0.84484 0.36056 0.75655 0.0
C1069 C 0.8523 0.35346 0.72198 0.0
C1070 C 0.86631 0.33298 0.74865 0.0
C1071 C 0.8426 0.36502 0.73661 0.0
C1072 C 0.83336 0.32036 0.68268 0.0
N1073 N 0.85009 0.32321 0.67168 0.0
C1074 C 0.83182 0.32207 0.64086 0.0
C1075 C 0.8496 0.325 0.65123 0.0
C1076 C 0.8146 0.3171 0.65174 0.0
C1077 C 0.81532 0.31733 0.67297 0.0
H1078 H 0.83435 0.31845 0.69888 0.0
H1079 H 0.86323 0.3268 0.64287 0.0
C1080 C 0.93364 0.35596 0.7054 0.0
N1081 N 0.91603 0.35205 0.71453 0.0
C1082 C 0.94837 0.36647 0.7158 0.0
C1083 C 0.92574 0.37042 0.74383 0.0
C1084 C 0.91151 0.35987 0.73292 0.0
C1085 C 0.94479 0.37291 0.7357 0.0
H1086 H 0.93688 0.34927 0.69084 0.0
H1087 H 0.89762 0.35637 0.74001 0.0
C1088 C 0.86515 0.27976 0.67624 0.0
N1089 N 0.8351 0.26351 0.65302 0.0
C1090 C 0.84802 0.27233 0.68546 0.0
C1091 C 0.86707 0.27879 0.65522 0.0
C1092 C 0.83297 0.26422 0.67345 0.0
C1093 C 0.8517 0.27054 0.64374 0.0
C1094 C 0.92944 0.30865 0.72342 0.0
C1095 C 0.94876 0.30957 0.71593 0.0
C1096 C 0.92586 0.31293 0.74378 0.0
C1097 C 0.96418 0.315 0.72892 0.0
C1098 C 0.94167 0.31834 0.75628 0.0
N1099 N 0.96034 0.31926 0.74865 0.0
C1100 C 0.94028 0.2943 0.6589 0.0
C1101 C 0.91866 0.26626 0.66251 0.0
C1102 C 0.95367 0.28253 0.64789 0.0
N1103 N 0.92326 0.28595 0.66599 0.0
C1104 C 0.93141 0.25407 0.65132 0.0
C1105 C 0.94921 0.26216 0.64399 0.0
H1106 H 0.94356 0.31 0.66204 0.0
H1107 H 0.90518 0.25995 0.66866 0.0
C1108 C 0.85997 0.28019 0.7433 0.0
N1109 N 0.87898 0.28151 0.73677 0.0
C1110 C 0.85478 0.26588 0.75787 0.0
C1111 C 0.88902 0.25523 0.75924 0.0
C1112 C 0.8935 0.26963 0.74457 0.0
C1113 C 0.86935 0.25286 0.76571 0.0
H1114 H 0.84875 0.28982 0.73671 0.0
H1115 H 0.90848 0.27097 0.73896 0.0
O1116 O 0.8992 0.329 0.67386 0.0
O1117 O 0.87376 0.32568 0.71396 0.0
O1118 O 0.87985 0.28821 0.68769 0.0
O1119 O 0.91409 0.3037 0.71085 0.0
H1120 H 0.88269 0.36048 0.69213 0.0
H1121 H 0.90805 0.33925 0.63641 0.0
H1122 H 0.87629 0.39364 0.67592 0.0
H1123 H 0.90133 0.37288 0.62112 0.0
H1124 H 0.85783 0.34172 0.77878 0.0
H1125 H 0.85029 0.35687 0.70611 0.0
H1126 H 0.87552 0.32059 0.75366 0.0
H1127 H 0.83324 0.3775 0.7321 0.0
H1128 H 0.83185 0.32218 0.62449 0.0
H1129 H 0.80255 0.31324 0.68197 0.0
H1130 H 0.96277 0.36834 0.70886 0.0
H1131 H 0.92233 0.37488 0.75919 0.0
H1132 H 0.84628 0.27301 0.7017 0.0
H1133 H 0.88017 0.28464 0.64784 0.0
H1134 H 0.81956 0.25856 0.68036 0.0
H1135 H 0.85291 0.26984 0.62745 0.0
H1136 H 0.9518 0.30628 0.70021 0.0
H1137 H 0.91099 0.31232 0.7498 0.0
H1138 H 0.9792 0.31591 0.7233 0.0
H1139 H 0.93909 0.32188 0.77202 0.0
H1140 H 0.96727 0.28926 0.64241 0.0
H1141 H 0.92761 0.23835 0.64882 0.0
H1142 H 0.83939 0.26439 0.76218 0.0
H1143 H 0.90074 0.24566 0.76503 0.0
Li1144 Li 0.95646 0.64094 0.9638 0.0
Li1145 Li 0.95499 0.66082 0.93027 0.0
Li1146 Li 0.92615 0.65685 0.95149 0.0
Li1147 Li 0.93823 0.62855 0.93392 0.0
C1148 C 0.94654 0.68593 0.97079 0.0
N1149 N 0.93455 0.7177 0.99499 0.0
C1150 C 0.94623 0.70562 0.96311 0.0
C1151 C 0.94101 0.68244 0.99084 0.0
C1152 C 0.94007 0.72147 0.97558 0.0
C1153 C 0.93492 0.69869 0.00281 0.0
C1154 C 0.97566 0.61907 0.92544 0.0
C1155 C 0.98355 0.60409 0.89319 0.0
N1156 N 0.99093 0.58758 0.90286 0.0
C1157 C 0.98346 0.60203 0.93506 0.0
C1158 C 0.97581 0.6202 0.90433 0.0
C1159 C 0.99107 0.58624 0.92337 0.0
C1160 C 0.9735 0.61501 0.99277 0.0
N1161 N 0.97253 0.63444 0.9862 0.0
C1162 C 0.99605 0.64491 0.01101 0.0
C1163 C 0.98329 0.64937 0.99504 0.0
C1164 C 0.99789 0.62486 0.01778 0.0
C1165 C 0.98616 0.60984 0.00863 0.0
H1166 H 0.96474 0.60347 0.98539 0.0
H1167 H 0.98223 0.66468 0.98943 0.0
C1168 C 0.96144 0.69572 0.90679 0.0
N1169 N 0.96976 0.67828 0.91359 0.0
C1170 C 0.97262 0.70929 0.89531 0.0
C1171 C 0.0004 0.6863 0.89756 0.0
C1172 C 0.98882 0.67337 0.90927 0.0
C1173 C 0.99234 0.70457 0.89059 0.0
H1174 H 0.94622 0.69917 0.91052 0.0
H1175 H 0.9951 0.65952 0.91513 0.0
C1176 C 0.91875 0.6192 0.97606 0.0
N1177 N 0.89622 0.59857 0.00419 0.0
C1178 C 0.90384 0.60598 0.96971 0.0
C1179 C 0.92235 0.62173 0.99672 0.0
C1180 C 0.89257 0.59575 0.98417 0.0
C1181 C 0.91076 0.61123 0.0107 0.0
C1182 C 0.90972 0.65045 0.91294 0.0
C1183 C 0.89473 0.64101 0.92399 0.0
C1184 C 0.90619 0.65627 0.89296 0.0
C1185 C 0.87643 0.63742 0.91483 0.0
C1186 C 0.88769 0.65241 0.88431 0.0
N1187 N 0.87332 0.64314 0.89533 0.0
C1188 C 0.90112 0.69032 0.95203 0.0
C1189 C 0.8951 0.66682 0.97838 0.0
C1190 C 0.88964 0.7049 0.96177 0.0
N1191 N 0.90432 0.67209 0.96095 0.0
C1192 C 0.88347 0.68083 0.98857 0.0
C1193 C 0.88134 0.70044 0.98071 0.0
H1194 H 0.90885 0.69411 0.93822 0.0
H1195 H 0.89797 0.6524 0.98528 0.0
C1196 C 0.93678 0.58696 0.93177 0.0
N1197 N 0.93314 0.60379 0.92063 0.0
C1198 C 0.9394 0.56838 0.92228 0.0
C1199 C 0.93252 0.58446 0.8902 0.0
C1200 C 0.93017 0.60282 0.90034 0.0
C1201 C 0.93827 0.56716 0.9011 0.0
H1202 H 0.93954 0.58833 0.94782 0.0
H1203 H 0.92769 0.61653 0.8918 0.0
O1204 O 0.95199 0.67011 0.95866 0.0
O1205 O 0.96754 0.6344 0.93658 0.0
O1206 O 0.93015 0.62914 0.96213 0.0
O1207 O 0.92783 0.65402 0.92148 0.0
H1208 H 0.9505 0.7086 0.94765 0.0
H1209 H 0.94116 0.6673 0.99701 0.0
H1210 H 0.93959 0.73676 0.9698 0.0
H1211 H 0.9304 0.69617 0.01829 0.0
H1212 H 0.98357 0.60466 0.87684 0.0
H1213 H 0.98343 0.60091 0.95137 0.0
H1214 H 0.96968 0.63323 0.89665 0.0
H1215 H 0.99701 0.57289 0.93061 0.0
H1216 H 0.00465 0.65699 0.01773 0.0
H1217 H 0.98732 0.59414 0.0131 0.0
H1218 H 0.96592 0.72322 0.89009 0.0
H1219 H 0.01563 0.68229 0.89437 0.0
H1220 H 0.90103 0.60354 0.95379 0.0
H1221 H 0.93386 0.63181 0.00195 0.0
H1222 H 0.88096 0.58551 0.97946 0.0
H1223 H 0.91332 0.61314 0.02673 0.0
H1224 H 0.89713 0.63662 0.9395 0.0
H1225 H 0.91766 0.66362 0.8842 0.0
H1226 H 0.8647 0.63013 0.92322 0.0
H1227 H 0.88477 0.65679 0.86883 0.0
H1228 H 0.88817 0.71979 0.95513 0.0
H1229 H 0.87756 0.67678 0.00324 0.0
H1230 H 0.94412 0.55562 0.93132 0.0
H1231 H 0.93128 0.58415 0.87388 0.0
Li1232 Li 0.61394 0.70405 0.22263 0.0
Li1233 Li 0.59214 0.70238 0.1907 0.0
Li1234 Li 0.59645 0.67357 0.21353 0.0
Li1235 Li 0.62293 0.68391 0.19346 0.0
C1236 C 0.57024 0.69719 0.2333 0.0
N1237 N 0.54048 0.68868 0.26065 0.0
C1238 C 0.55097 0.69358 0.22652 0.0
C1239 C 0.57434 0.6967 0.25401 0.0
C1240 C 0.53614 0.68923 0.24058 0.0
C1241 C 0.55909 0.69233 0.26759 0.0
C1242 C 0.63511 0.72183 0.18528 0.0
C1243 C 0.65218 0.73149 0.15476 0.0
N1244 N 0.66816 0.73706 0.16597 0.0
C1245 C 0.65162 0.72783 0.19653 0.0
C1246 C 0.6353 0.72381 0.16425 0.0
C1247 C 0.66822 0.73543 0.18647 0.0
C1248 C 0.63552 0.71571 0.25754 0.0
N1249 N 0.62132 0.72115 0.24404 0.0
C1250 C 0.61547 0.75206 0.26158 0.0
C1251 C 0.61125 0.73881 0.24578 0.0
C1252 C 0.6302 0.74704 0.27574 0.0
C1253 C 0.64025 0.72854 0.27361 0.0
H1254 H 0.64315 0.70146 0.25579 0.0
H1255 H 0.59996 0.7426 0.23481 0.0
C1256 C 0.55668 0.71018 0.16933 0.0
N1257 N 0.57454 0.71782 0.17487 0.0
C1258 C 0.54347 0.722 0.1582 0.0
C1259 C 0.56759 0.74904 0.15829 0.0
C1260 C 0.58021 0.73679 0.16959 0.0
C1261 C 0.54882 0.74178 0.1526 0.0
H1262 H 0.55267 0.69496 0.17369 0.0
H1263 H 0.59454 0.74241 0.17422 0.0
C1264 C 0.63242 0.65729 0.22478 0.0
N1265 N 0.64859 0.61919 0.22942 0.0
C1266 C 0.62991 0.64269 0.20973 0.0
C1267 C 0.64315 0.65251 0.2422 0.0
C1268 C 0.63821 0.62352 0.21235 0.0
C1269 C 0.65121 0.63316 0.24427 0.0
C1270 C 0.59556 0.66626 0.16466 0.0
C1271 C 0.59435 0.64539 0.16154 0.0
C1272 C 0.59484 0.67936 0.14808 0.0
C1273 C 0.59285 0.63795 0.14183 0.0
C1274 C 0.59331 0.67132 0.12861 0.0
N1275 N 0.59238 0.65096 0.12591 0.0
C1276 C 0.56502 0.6463 0.21685 0.0
C1277 C 0.5857 0.64938 0.24572 0.0
C1278 C 0.55056 0.63653 0.22828 0.0
N1279 N 0.58176 0.65311 0.22595 0.0
C1280 C 0.57167 0.63977 0.2577 0.0
C1281 C 0.55348 0.634 0.24917 0.0
H1282 H 0.5622 0.64997 0.20118 0.0
H1283 H 0.59887 0.65562 0.25261 0.0
C1284 C 0.66344 0.68048 0.18937 0.0
N1285 N 0.64646 0.67725 0.17883 0.0
C1286 C 0.68135 0.68288 0.17921 0.0
C1287 C 0.66437 0.67613 0.14777 0.0
C1288 C 0.64676 0.67396 0.15855 0.0
C1289 C 0.6817 0.68189 0.15801 0.0
H1290 H 0.66276 0.68329 0.20546 0.0
H1291 H 0.63324 0.67133 0.1504 0.0
O1292 O 0.58509 0.70091 0.21973 0.0
O1293 O 0.61887 0.71402 0.19485 0.0
O1294 O 0.62435 0.67617 0.22267 0.0
O1295 O 0.59652 0.67374 0.18392 0.0
H1296 H 0.54756 0.69384 0.21055 0.0
H1297 H 0.5892 0.69933 0.25952 0.0
H1298 H 0.5212 0.6862 0.23553 0.0
H1299 H 0.56209 0.69172 0.28364 0.0
H1300 H 0.65259 0.73297 0.13849 0.0
H1301 H 0.65169 0.72639 0.21283 0.0
H1302 H 0.62263 0.71931 0.15533 0.0
H1303 H 0.68117 0.73996 0.19495 0.0
H1304 H 0.60765 0.76633 0.26235 0.0
H1305 H 0.65165 0.72406 0.28423 0.0
H1306 H 0.52911 0.71582 0.15433 0.0
H1307 H 0.57257 0.76399 0.15398 0.0
H1308 H 0.62174 0.64611 0.19615 0.0
H1309 H 0.64517 0.66361 0.25405 0.0
H1310 H 0.6364 0.6121 0.20079 0.0
H1311 H 0.65953 0.62925 0.25769 0.0
H1312 H 0.59448 0.63504 0.17421 0.0
H1313 H 0.59576 0.69552 0.15014 0.0
H1314 H 0.59199 0.62183 0.1392 0.0
H1315 H 0.5929 0.68128 0.11564 0.0
H1316 H 0.53685 0.63203 0.2211 0.0
H1317 H 0.57442 0.63841 0.27377 0.0
H1318 H 0.69428 0.68748 0.18773 0.0
H1319 H 0.6641 0.67488 0.13145 0.0
Li1320 Li 0.56422 0.36982 0.43427 0.0
Li1321 Li 0.57313 0.34182 0.45416 0.0
Li1322 Li 0.54604 0.33839 0.43031 0.0
Li1323 Li 0.54258 0.35979 0.46276 0.0
C1324 C 0.5932 0.3456 0.41695 0.0
N1325 N 0.63126 0.35057 0.40251 0.0
C1326 C 0.60783 0.35394 0.42932 0.0
C1327 C 0.59794 0.33969 0.39725 0.0
C1328 C 0.62699 0.35635 0.42175 0.0
C1329 C 0.61726 0.34235 0.39022 0.0
C1330 C 0.58068 0.37957 0.47788 0.0
C1331 C 0.5863 0.38839 0.5128 0.0
N1332 N 0.60253 0.39922 0.50724 0.0
C1333 C 0.59729 0.39097 0.47249 0.0
C1334 C 0.57501 0.37843 0.49817 0.0
C1335 C 0.60819 0.40072 0.48757 0.0
C1336 C 0.56861 0.41119 0.43037 0.0
N1337 N 0.57148 0.39359 0.42022 0.0
C1338 C 0.57313 0.41111 0.38875 0.0
C1339 C 0.57468 0.39328 0.39995 0.0
C1340 C 0.56789 0.42921 0.39857 0.0
C1341 C 0.5668 0.4293 0.4198 0.0
H1342 H 0.5656 0.41086 0.44642 0.0
H1343 H 0.57651 0.37899 0.39222 0.0
C1344 C 0.59625 0.30711 0.45813 0.0
N1345 N 0.59255 0.32539 0.46676 0.0
C1346 C 0.60464 0.29157 0.46959 0.0
C1347 C 0.60679 0.31464 0.49788 0.0
C1348 C 0.59845 0.32967 0.48591 0.0
C1349 C 0.60904 0.29509 0.49 0.0
H1350 H 0.59099 0.30404 0.44299 0.0
H1351 H 0.59514 0.3441 0.49255 0.0
C1352 C 0.52769 0.38105 0.42256 0.0
N1353 N 0.51441 0.41242 0.39855 0.0
C1354 C 0.52098 0.39898 0.43139 0.0
C1355 C 0.5275 0.37899 0.40153 0.0
C1356 C 0.51438 0.41469 0.41898 0.0
C1357 C 0.52075 0.39504 0.38965 0.0
C1358 C 0.5488 0.3147 0.47225 0.0
C1359 C 0.54931 0.29482 0.46511 0.0
C1360 C 0.55111 0.31845 0.49291 0.0
C1361 C 0.55232 0.279 0.47878 0.0
C1362 C 0.55404 0.30222 0.50609 0.0
N1363 N 0.55461 0.283 0.49881 0.0
C1364 C 0.53867 0.30297 0.40749 0.0
C1365 C 0.51208 0.32625 0.41005 0.0
C1366 C 0.52655 0.28913 0.39741 0.0
N1367 N 0.53115 0.32095 0.41378 0.0
C1368 C 0.49954 0.31302 0.39985 0.0
C1369 C 0.50658 0.29398 0.39375 0.0
H1370 H 0.55387 0.29913 0.41093 0.0
H1371 H 0.50648 0.34058 0.41545 0.0
C1372 C 0.52376 0.3863 0.4906 0.0
N1373 N 0.52436 0.36722 0.48303 0.0
C1374 C 0.50952 0.39149 0.505 0.0
C1375 C 0.49719 0.35718 0.50375 0.0
C1376 C 0.51152 0.35272 0.4893 0.0
C1377 C 0.49584 0.37687 0.51159 0.0
H1378 H 0.53412 0.39754 0.48519 0.0
H1379 H 0.51225 0.33772 0.48286 0.0
O1380 O 0.57428 0.34324 0.4239 0.0
O1381 O 0.56955 0.37026 0.4633 0.0
O1382 O 0.53457 0.36563 0.43442 0.0
O1383 O 0.54616 0.33042 0.45908 0.0
H1384 H 0.60449 0.35838 0.44463 0.0
H1385 H 0.58675 0.3332 0.38748 0.0
H1386 H 0.63845 0.36279 0.43118 0.0
H1387 H 0.62112 0.33791 0.37498 0.0
H1388 H 0.58216 0.38751 0.52857 0.0
H1389 H 0.60167 0.39241 0.45683 0.0
H1390 H 0.56216 0.36976 0.50262 0.0
H1391 H 0.62111 0.40954 0.48362 0.0
H1392 H 0.57434 0.4104 0.37245 0.0
H1393 H 0.56247 0.44272 0.42805 0.0
H1394 H 0.60615 0.27663 0.46307 0.0
H1395 H 0.61031 0.31792 0.51352 0.0
H1396 H 0.52108 0.40081 0.44764 0.0
H1397 H 0.53275 0.36523 0.39447 0.0
H1398 H 0.5093 0.42872 0.42559 0.0
H1399 H 0.52065 0.39373 0.37335 0.0
H1400 H 0.54756 0.29165 0.44918 0.0
H1401 H 0.55086 0.33376 0.49868 0.0
H1402 H 0.55289 0.26355 0.47345 0.0
H1403 H 0.55596 0.30492 0.5221 0.0
H1404 H 0.53257 0.27456 0.39317 0.0
H1405 H 0.4844 0.31761 0.397 0.0
H1406 H 0.50882 0.40694 0.51038 0.0
H1407 H 0.48711 0.34537 0.50854 0.0
Li1408 Li 0.2734 0.3919 0.20287 0.0
Li1409 Li 0.30199 0.37649 0.18738 0.0
Li1410 Li 0.30477 0.41068 0.20486 0.0
Li1411 Li 0.28754 0.40615 0.17301 0.0
C1412 C 0.29218 0.37799 0.235 0.0
N1413 N 0.27759 0.36657 0.2723 0.0
C1414 C 0.28886 0.35757 0.23928 0.0
C1415 C 0.28827 0.39259 0.24974 0.0
C1416 C 0.28144 0.35211 0.25822 0.0
C1417 C 0.28084 0.38651 0.2685 0.0
C1418 C 0.27346 0.36619 0.15989 0.0
C1419 C 0.28371 0.35574 0.12657 0.0
N1420 N 0.27108 0.33976 0.12762 0.0
C1421 C 0.2605 0.34973 0.1606 0.0
C1422 C 0.2851 0.36927 0.14272 0.0
C1423 C 0.25954 0.33651 0.14415 0.0
C1424 C 0.24286 0.40038 0.2308 0.0
N1425 N 0.25063 0.38591 0.21856 0.0
C1426 C 0.22984 0.36072 0.23323 0.0
C1427 C 0.24414 0.36649 0.21917 0.0
C1428 C 0.22219 0.37513 0.24677 0.0
C1429 C 0.22842 0.39532 0.24498 0.0
H1430 H 0.2486 0.41563 0.23028 0.0
H1431 H 0.251 0.35524 0.20961 0.0
C1432 C 0.33522 0.35157 0.18257 0.0
N1433 N 0.3152 0.35169 0.18441 0.0
C1434 C 0.34574 0.33366 0.18553 0.0
C1435 C 0.31469 0.31626 0.191 0.0
C1436 C 0.30479 0.33448 0.1879 0.0
C1437 C 0.33548 0.3159 0.19071 0.0
H1438 H 0.3431 0.36561 0.18022 0.0
H1439 H 0.28892 0.33521 0.18987 0.0
C1440 C 0.26219 0.43218 0.19271 0.0
N1441 N 0.23001 0.45521 0.181 0.0
C1442 C 0.24525 0.42286 0.18489 0.0
C1443 C 0.26272 0.45323 0.19459 0.0
C1444 C 0.22915 0.43476 0.17906 0.0
C1445 C 0.24631 0.4646 0.18859 0.0
C1446 C 0.32796 0.40913 0.1638 0.0
C1447 C 0.33515 0.42888 0.16535 0.0
C1448 C 0.33376 0.39706 0.14749 0.0
C1449 C 0.34742 0.43651 0.15016 0.0
C1450 C 0.34607 0.40522 0.13261 0.0
N1451 N 0.35255 0.42463 0.13422 0.0
C1452 C 0.33299 0.4187 0.2348 0.0
C1453 C 0.31936 0.4478 0.21914 0.0
C1454 C 0.34454 0.43072 0.24749 0.0
N1455 N 0.32071 0.42741 0.22108 0.0
C1456 C 0.33065 0.46042 0.2315 0.0
C1457 C 0.34341 0.45189 0.24594 0.0
H1458 H 0.33364 0.4024 0.236 0.0
H1459 H 0.30959 0.45424 0.20792 0.0
C1460 C 0.26368 0.41589 0.13986 0.0
N1461 N 0.28005 0.4217 0.15027 0.0
C1462 C 0.25265 0.43012 0.12923 0.0
C1463 C 0.27648 0.45568 0.13874 0.0
C1464 C 0.28696 0.44097 0.14936 0.0
C1465 C 0.25848 0.45053 0.12945 0.0
H1466 H 0.25778 0.40085 0.14176 0.0
H1467 H 0.29926 0.4455 0.15871 0.0
O1468 O 0.29872 0.38372 0.21629 0.0
O1469 O 0.27486 0.37904 0.17606 0.0
O1470 O 0.27847 0.42087 0.19773 0.0
O1471 O 0.31622 0.40131 0.17874 0.0
H1472 H 0.29175 0.34609 0.22802 0.0
H1473 H 0.29057 0.40847 0.2466 0.0
H1474 H 0.27866 0.33638 0.2617 0.0
H1475 H 0.27756 0.39766 0.27998 0.0
H1476 H 0.29263 0.35798 0.11318 0.0
H1477 H 0.25133 0.34713 0.17375 0.0
H1478 H 0.29487 0.38213 0.14178 0.0
H1479 H 0.24963 0.32367 0.14454 0.0
H1480 H 0.22579 0.34491 0.23432 0.0
H1481 H 0.22282 0.40693 0.255 0.0
H1482 H 0.36176 0.33397 0.18504 0.0
H1483 H 0.30621 0.30304 0.19528 0.0
H1484 H 0.24466 0.40663 0.18298 0.0
H1485 H 0.27572 0.46074 0.20047 0.0
H1486 H 0.21602 0.42774 0.17286 0.0
H1487 H 0.24656 0.4809 0.18987 0.0
H1488 H 0.33117 0.43829 0.17809 0.0
H1489 H 0.32901 0.38148 0.14641 0.0
H1490 H 0.3529 0.45185 0.15107 0.0
H1491 H 0.35057 0.39609 0.11985 0.0
H1492 H 0.35402 0.42353 0.25856 0.0
H1493 H 0.32958 0.47665 0.2296 0.0
H1494 H 0.23868 0.42545 0.12271 0.0
H1495 H 0.2816 0.47119 0.13916 0.0
Li1496 Li 0.79235 0.09183 0.82483 0.0
Li1497 Li 0.81002 0.08621 0.79339 0.0
Li1498 Li 0.80705 0.12104 0.80949 0.0
Li1499 Li 0.77887 0.10465 0.7943 0.0
C1500 C 0.83346 0.08841 0.8336 0.0
N1501 N 0.85932 0.07231 0.86171 0.0
C1502 C 0.83996 0.06844 0.83174 0.0
C1503 C 0.84056 0.10037 0.84946 0.0
C1504 C 0.85289 0.06052 0.8462 0.0
C1505 C 0.8535 0.09191 0.8636 0.0
C1506 C 0.76663 0.0658 0.80559 0.0
C1507 C 0.74861 0.03455 0.80969 0.0
N1508 N 0.7328 0.04508 0.81684 0.0
C1509 C 0.75017 0.0763 0.81298 0.0
C1510 C 0.76582 0.04474 0.80393 0.0
C1511 C 0.73322 0.06556 0.81856 0.0
C1512 C 0.76782 0.08291 0.85786 0.0
N1513 N 0.78455 0.07709 0.84805 0.0
C1514 C 0.78083 0.04323 0.85989 0.0
C1515 C 0.79158 0.0579 0.84951 0.0
C1516 C 0.76241 0.0483 0.86831 0.0
C1517 C 0.75648 0.06869 0.86816 0.0
H1518 H 0.76186 0.09787 0.85558 0.0
H1519 H 0.80421 0.05333 0.84067 0.0
C1520 C 0.83949 0.07654 0.76497 0.0
N1521 N 0.82581 0.06874 0.77782 0.0
C1522 C 0.85007 0.06378 0.7521 0.0
C1523 C 0.83242 0.03526 0.76625 0.0
C1524 C 0.82225 0.04857 0.77885 0.0
C1525 C 0.84641 0.04284 0.75248 0.0
H1526 H 0.8419 0.09271 0.76448 0.0
H1527 H 0.81129 0.04287 0.78927 0.0
C1528 C 0.77832 0.13096 0.83719 0.0
N1529 N 0.77575 0.15583 0.87065 0.0
C1530 C 0.76418 0.14636 0.83786 0.0
C1531 C 0.79112 0.12819 0.85354 0.0
C1532 C 0.76312 0.15879 0.8549 0.0
C1533 C 0.78959 0.1409 0.87032 0.0
C1534 C 0.79765 0.11806 0.76207 0.0
C1535 C 0.79322 0.13826 0.75783 0.0
C1536 C 0.79483 0.10333 0.74719 0.0
C1537 C 0.78579 0.14337 0.73879 0.0
C1538 C 0.78737 0.10906 0.72833 0.0
N1539 N 0.78302 0.12878 0.72457 0.0
C1540 C 0.8399 0.14687 0.81381 0.0
C1541 C 0.8089 0.16299 0.80895 0.0
C1542 C 0.84979 0.16523 0.81129 0.0
N1543 N 0.81989 0.14609 0.81204 0.0
C1544 C 0.81815 0.18162 0.80627 0.0
C1545 C 0.83892 0.18276 0.80666 0.0
H1546 H 0.84824 0.13308 0.81599 0.0
H1547 H 0.79303 0.16176 0.80717 0.0
C1548 C 0.7495 0.09517 0.76547 0.0
N1549 N 0.75624 0.10982 0.77812 0.0
C1550 C 0.73494 0.09962 0.75121 0.0
C1551 C 0.73409 0.13396 0.76376 0.0
C1552 C 0.74857 0.1288 0.77789 0.0
C1553 C 0.72747 0.1194 0.74982 0.0
H1554 H 0.7561 0.08028 0.76581 0.0
H1555 H 0.75452 0.1402 0.78791 0.0
O1556 O 0.82112 0.09655 0.81933 0.0
O1557 O 0.78371 0.07592 0.80076 0.0
O1558 O 0.77978 0.11896 0.8204 0.0
O1559 O 0.80425 0.11263 0.78085 0.0
H1560 H 0.83495 0.05908 0.81936 0.0
H1561 H 0.83632 0.11609 0.85075 0.0
H1562 H 0.85786 0.04501 0.84505 0.0
H1563 H 0.85902 0.10096 0.876 0.0
H1564 H 0.74784 0.01825 0.80857 0.0
H1565 H 0.75054 0.09254 0.81476 0.0
H1566 H 0.7784 0.03628 0.79842 0.0
H1567 H 0.72045 0.0735 0.82441 0.0
H1568 H 0.7861 0.02777 0.85986 0.0
H1569 H 0.74223 0.07332 0.87404 0.0
H1570 H 0.86093 0.07024 0.74194 0.0
H1571 H 0.82897 0.01928 0.76692 0.0
H1572 H 0.75417 0.14874 0.8253 0.0
H1573 H 0.80189 0.11617 0.85336 0.0
H1574 H 0.75227 0.1708 0.85561 0.0
H1575 H 0.79938 0.13887 0.88311 0.0
H1576 H 0.79526 0.14983 0.7692 0.0
H1577 H 0.79802 0.0876 0.75029 0.0
H1578 H 0.78215 0.15892 0.73534 0.0
H1579 H 0.78493 0.0978 0.71673 0.0
H1580 H 0.86581 0.1655 0.81189 0.0
H1581 H 0.80919 0.19464 0.8024 0.0
H1582 H 0.73014 0.08789 0.74089 0.0
H1583 H 0.72903 0.14948 0.76301 0.0
Li1584 Li 0.14956 0.54225 0.0751 0.0
Li1585 Li 0.12162 0.56107 0.06506 0.0
Li1586 Li 0.13348 0.53346 0.04302 0.0
Li1587 Li 0.1528 0.56693 0.04785 0.0
C1588 C 0.113 0.51839 0.08253 0.0
N1589 N 0.09335 0.49102 0.1069 0.0
C1590 C 0.1023 0.52513 0.09931 0.0
C1591 C 0.11342 0.49775 0.07796 0.0
C1592 C 0.09254 0.51105 0.1115 0.0
C1593 C 0.10349 0.48415 0.09053 0.0
C1594 C 0.14344 0.57988 0.09555 0.0
C1595 C 0.14305 0.60802 0.11873 0.0
N1596 N 0.13668 0.59548 0.13367 0.0
C1597 C 0.13702 0.56726 0.11115 0.0
C1598 C 0.14661 0.60041 0.09937 0.0
C1599 C 0.13363 0.57543 0.13031 0.0
C1600 C 0.18325 0.53877 0.09912 0.0
N1601 N 0.16569 0.52967 0.09485 0.0
C1602 C 0.17731 0.49824 0.10776 0.0
C1603 C 0.16218 0.51008 0.09984 0.0
C1604 C 0.19614 0.5067 0.11051 0.0
C1605 C 0.19885 0.52745 0.10713 0.0
H1606 H 0.18574 0.55424 0.09445 0.0
H1607 H 0.14837 0.50306 0.09589 0.0
C1608 C 0.0808 0.56294 0.06787 0.0
N1609 N 0.09739 0.57396 0.07146 0.0
C1610 C 0.06267 0.57261 0.06516 0.0
C1611 C 0.07874 0.60458 0.07191 0.0
C1612 C 0.09662 0.59428 0.07439 0.0
C1613 C 0.06172 0.59382 0.06605 0.0
H1614 H 0.082 0.54689 0.06499 0.0
H1615 H 0.11013 0.60273 0.07666 0.0
C1616 C 0.17735 0.52541 0.05007 0.0
N1617 N 0.20864 0.49887 0.05443 0.0
C1618 C 0.19677 0.53268 0.05066 0.0
C1619 C 0.17384 0.50464 0.05168 0.0
C1620 C 0.21239 0.51903 0.05294 0.0
C1621 C 0.18987 0.49147 0.05381 0.0
C1622 C 0.11116 0.57219 0.02723 0.0
C1623 C 0.09464 0.56191 0.01975 0.0
C1624 C 0.11154 0.59332 0.02692 0.0
C1625 C 0.07863 0.57298 0.01223 0.0
C1626 C 0.09526 0.60384 0.01921 0.0
N1627 N 0.07927 0.59353 0.01212 0.0
C1628 C 0.10982 0.50346 0.02438 0.0
C1629 C 0.14216 0.50755 0.01106 0.0
C1630 C 0.10582 0.48813 0.01045 0.0
N1631 N 0.12773 0.51278 0.02436 0.0
C1632 C 0.13888 0.49223 0.99701 0.0
C1633 C 0.12044 0.48242 0.99643 0.0
H1634 H 0.0986 0.50808 0.03509 0.0
H1635 H 0.15623 0.51534 0.01136 0.0
C1636 C 0.18709 0.59067 0.04271 0.0
N1637 N 0.16975 0.5848 0.0341 0.0
C1638 C 0.2005 0.60244 0.03176 0.0
C1639 C 0.17754 0.60239 0.00367 0.0
C1640 C 0.16476 0.59039 0.01502 0.0
C1641 C 0.19576 0.60834 0.01195 0.0
H1642 H 0.19066 0.58582 0.0579 0.0
H1643 H 0.15103 0.58514 0.00845 0.0
O1644 O 0.12234 0.53194 0.07013 0.0
O1645 O 0.14678 0.5723 0.07662 0.0
O1646 O 0.16185 0.53853 0.04787 0.0
O1647 O 0.12686 0.56163 0.03492 0.0
H1648 H 0.10136 0.54108 0.10281 0.0
H1649 H 0.1216 0.49227 0.06501 0.0
H1650 H 0.08425 0.51606 0.12456 0.0
H1651 H 0.10385 0.46812 0.08726 0.0
H1652 H 0.14536 0.6239 0.12189 0.0
H1653 H 0.13477 0.55131 0.10854 0.0
H1654 H 0.15166 0.61037 0.08745 0.0
H1655 H 0.12862 0.56582 0.14251 0.0
H1656 H 0.1747 0.4823 0.11043 0.0
H1657 H 0.21325 0.53442 0.10901 0.0
H1658 H 0.05008 0.56368 0.06036 0.0
H1659 H 0.07861 0.62092 0.07294 0.0
H1660 H 0.19974 0.54871 0.04946 0.0
H1661 H 0.15889 0.49877 0.05146 0.0
H1662 H 0.22748 0.52444 0.05352 0.0
H1663 H 0.18736 0.47537 0.0551 0.0
H1664 H 0.09412 0.54556 0.01993 0.0
H1665 H 0.12418 0.60151 0.03278 0.0
H1666 H 0.06568 0.56523 0.00653 0.0
H1667 H 0.09529 0.62019 0.01898 0.0
H1668 H 0.09128 0.48126 0.0103 0.0
H1669 H 0.15063 0.48822 0.98661 0.0
H1670 H 0.21442 0.60681 0.03863 0.0
H1671 H 0.17352 0.60643 0.98833 0.0
Li1672 Li 0.70654 0.90549 0.31912 0.0
Li1673 Li 0.68437 0.90376 0.29065 0.0
Li1674 Li 0.68702 0.87457 0.31305 0.0
Li1675 Li 0.71362 0.88339 0.29013 0.0
C1676 C 0.6709 0.90289 0.33959 0.0
N1677 N 0.65821 0.90366 0.37929 0.0
C1678 C 0.65407 0.91395 0.34493 0.0
C1679 C 0.6813 0.89223 0.35445 0.0
C1680 C 0.64789 0.91415 0.36508 0.0
C1681 C 0.67463 0.89281 0.37443 0.0
C1682 C 0.71143 0.92994 0.27943 0.0
C1683 C 0.71129 0.94613 0.24675 0.0
N1684 N 0.709 0.96439 0.25591 0.0
C1685 C 0.70923 0.94889 0.28852 0.0
C1686 C 0.71262 0.92855 0.25838 0.0
C1687 C 0.70799 0.96612 0.27637 0.0
C1688 C 0.73949 0.92274 0.33388 0.0
N1689 N 0.71957 0.92364 0.33616 0.0
C1690 C 0.72199 0.95533 0.35321 0.0
C1691 C 0.71061 0.93923 0.34594 0.0
C1692 C 0.74259 0.95523 0.35015 0.0
C1693 C 0.75137 0.9383 0.34103 0.0
H1694 H 0.746 0.91056 0.32525 0.0
H1695 H 0.69463 0.93989 0.34676 0.0
C1696 C 0.66127 0.9144 0.25638 0.0
N1697 N 0.66705 0.92006 0.2752 0.0
C1698 C 0.64994 0.92746 0.24454 0.0
C1699 C 0.65031 0.95166 0.27195 0.0
C1700 C 0.66155 0.93808 0.28328 0.0
C1701 C 0.64453 0.9465 0.25221 0.0
H1702 H 0.66562 0.89986 0.25045 0.0
H1703 H 0.66639 0.94212 0.29834 0.0
C1704 C 0.72845 0.86113 0.32259 0.0
N1705 N 0.75452 0.82945 0.3285 0.0
C1706 C 0.72462 0.8422 0.31409 0.0
C1707 C 0.74551 0.8639 0.33424 0.0
C1708 C 0.73797 0.82639 0.31719 0.0
C1709 C 0.75852 0.84771 0.33702 0.0
C1710 C 0.68842 0.86145 0.26767 0.0
C1711 C 0.68484 0.84087 0.27096 0.0
C1712 C 0.69423 0.868 0.24847 0.0
C1713 C 0.68731 0.82721 0.25506 0.0
C1714 C 0.69658 0.85386 0.23297 0.0
N1715 N 0.6931 0.83393 0.23655 0.0
C1716 C 0.65391 0.85128 0.31447 0.0
C1717 C 0.67989 0.83731 0.33413 0.0
C1718 C 0.64423 0.83271 0.31388 0.0
N1719 N 0.67197 0.85281 0.32333 0.0
C1720 C 0.67082 0.81832 0.33371 0.0
C1721 C 0.65343 0.81564 0.32233 0.0
H1722 H 0.64814 0.86388 0.30586 0.0
H1723 H 0.69411 0.8391 0.34137 0.0
C1724 C 0.74853 0.88897 0.26838 0.0
N1725 N 0.73535 0.87443 0.27391 0.0
C1726 C 0.76414 0.88437 0.25539 0.0
C1727 C 0.7532 0.84958 0.25507 0.0
C1728 C 0.73761 0.85492 0.26781 0.0
C1729 C 0.76645 0.86451 0.24843 0.0
H1730 H 0.74671 0.90428 0.27374 0.0
H1731 H 0.72706 0.84355 0.27231 0.0
O1732 O 0.67707 0.9027 0.31989 0.0
O1733 O 0.71221 0.91283 0.29105 0.0
O1734 O 0.71556 0.87684 0.31969 0.0
O1735 O 0.686 0.8751 0.28305 0.0
H1736 H 0.64589 0.92231 0.3336 0.0
H1737 H 0.69436 0.8836 0.35068 0.0
H1738 H 0.63489 0.92265 0.36943 0.0
H1739 H 0.68253 0.88462 0.38607 0.0
H1740 H 0.71207 0.94526 0.23045 0.0
H1741 H 0.70822 0.95028 0.30476 0.0
H1742 H 0.7145 0.91406 0.25109 0.0
H1743 H 0.70614 0.98086 0.28321 0.0
H1744 H 0.71465 0.96818 0.36005 0.0
H1745 H 0.76722 0.93742 0.33871 0.0
H1746 H 0.64546 0.92271 0.22955 0.0
H1747 H 0.64665 0.96624 0.27841 0.0
H1748 H 0.71146 0.83976 0.30514 0.0
H1749 H 0.74861 0.87834 0.34122 0.0
H1750 H 0.73517 0.81168 0.31062 0.0
H1751 H 0.77177 0.84966 0.346 0.0
H1752 H 0.68034 0.83541 0.28564 0.0
H1753 H 0.69713 0.8838 0.24561 0.0
H1754 H 0.68466 0.81125 0.25745 0.0
H1755 H 0.70121 0.85874 0.21809 0.0
H1756 H 0.63093 0.83134 0.30484 0.0
H1757 H 0.6782 0.80556 0.34068 0.0
H1758 H 0.77415 0.89625 0.2506 0.0
H1759 H 0.75438 0.83413 0.24977 0.0
Li1760 Li 0.34249 0.45612 0.57561 0.0
Li1761 Li 0.36967 0.43864 0.56188 0.0
Li1762 Li 0.35759 0.4694 0.54484 0.0
Li1763 Li 0.33764 0.43619 0.54533 0.0
C1764 C 0.37977 0.47983 0.58337 0.0
N1765 N 0.40075 0.50675 0.60709 0.0
C1766 C 0.39248 0.47271 0.59846 0.0
C1767 C 0.37791 0.50065 0.5802 0.0
C1768 C 0.40291 0.48656 0.61033 0.0
C1769 C 0.38858 0.51401 0.5924 0.0
C1770 C 0.34874 0.4167 0.59056 0.0
C1771 C 0.34802 0.38687 0.61151 0.0
N1772 N 0.35695 0.3974 0.62664 0.0
C1773 C 0.35785 0.42724 0.60632 0.0
C1774 C 0.34372 0.39637 0.59316 0.0
C1775 C 0.3619 0.41722 0.62444 0.0
C1776 C 0.31023 0.4564 0.60186 0.0
N1777 N 0.32794 0.46541 0.5982 0.0
C1778 C 0.3186 0.49439 0.61723 0.0
C1779 C 0.33272 0.48349 0.60655 0.0
C1780 C 0.29939 0.48651 0.61942 0.0
C1781 C 0.29561 0.46674 0.61262 0.0
H1782 H 0.30677 0.4421 0.59474 0.0
H1783 H 0.3467 0.49048 0.60322 0.0
C1784 C 0.41043 0.43626 0.56286 0.0
N1785 N 0.39391 0.42491 0.56566 0.0
C1786 C 0.42855 0.42695 0.55912 0.0
C1787 C 0.41255 0.39443 0.56281 0.0
C1788 C 0.3947 0.4044 0.56654 0.0
C1789 C 0.42953 0.40577 0.55807 0.0
H1790 H 0.40919 0.45252 0.56162 0.0
H1791 H 0.38122 0.39577 0.5683 0.0
C1792 C 0.31366 0.47649 0.55551 0.0
N1793 N 0.28235 0.5006 0.56735 0.0
C1794 C 0.29443 0.4687 0.55574 0.0
C1795 C 0.31695 0.49657 0.56117 0.0
C1796 C 0.27879 0.48114 0.5618 0.0
C1797 C 0.30093 0.5085 0.56717 0.0
C1798 C 0.37741 0.43102 0.523 0.0
C1799 C 0.39453 0.43999 0.51523 0.0
C1800 C 0.37491 0.41009 0.52154 0.0
C1801 C 0.40899 0.42781 0.5063 0.0
C1802 C 0.3897 0.39844 0.51247 0.0
N1803 N 0.4063 0.40746 0.50513 0.0
C1804 C 0.3835 0.49731 0.52743 0.0
C1805 C 0.34973 0.5023 0.51904 0.0
C1806 C 0.38915 0.51288 0.51447 0.0
N1807 N 0.36414 0.49213 0.52913 0.0
C1808 C 0.35467 0.51817 0.5061 0.0
C1809 C 0.37467 0.52332 0.50325 0.0
H1810 H 0.3946 0.48888 0.53568 0.0
H1811 H 0.33444 0.49773 0.52061 0.0
C1812 C 0.30353 0.41255 0.53818 0.0
N1813 N 0.31998 0.42072 0.52966 0.0
C1814 C 0.28989 0.4021 0.52623 0.0
C1815 C 0.31074 0.40829 0.49717 0.0
C1816 C 0.32379 0.41884 0.50961 0.0
C1817 C 0.29337 0.39992 0.50537 0.0
H1818 H 0.30086 0.41448 0.5542 0.0
H1819 H 0.33693 0.42566 0.50324 0.0
O1820 O 0.36968 0.4665 0.57134 0.0
O1821 O 0.34477 0.42608 0.57258 0.0
O1822 O 0.32919 0.46449 0.54979 0.0
O1823 O 0.36333 0.4426 0.53232 0.0
H1824 H 0.3944 0.45665 0.60092 0.0
H1825 H 0.36817 0.50645 0.5686 0.0
H1826 H 0.41276 0.48126 0.62208 0.0
H1827 H 0.38719 0.53015 0.59019 0.0
H1828 H 0.34427 0.37112 0.61372 0.0
H1829 H 0.36166 0.44299 0.60465 0.0
H1830 H 0.33666 0.38801 0.58108 0.0
H1831 H 0.36895 0.4252 0.63677 0.0
H1832 H 0.32226 0.50961 0.62192 0.0
H1833 H 0.28114 0.45991 0.61431 0.0
H1834 H 0.44116 0.43628 0.55522 0.0
H1835 H 0.41274 0.37807 0.56225 0.0
H1836 H 0.29162 0.4532 0.55139 0.0
H1837 H 0.33176 0.50279 0.56117 0.0
H1838 H 0.26384 0.47529 0.56215 0.0
H1839 H 0.30329 0.52402 0.57175 0.0
H1840 H 0.39671 0.45615 0.51627 0.0
H1841 H 0.36182 0.40288 0.52765 0.0
H1842 H 0.42238 0.43452 0.50037 0.0
H1843 H 0.38804 0.3822 0.51139 0.0
H1844 H 0.40477 0.51596 0.51253 0.0
H1845 H 0.34299 0.52591 0.49797 0.0
H1846 H 0.27661 0.39616 0.5332 0.0
H1847 H 0.31432 0.40667 0.4813 0.0
Li1848 Li 0.19 0.62175 0.68744 0.0
Li1849 Li 0.21625 0.60595 0.70627 0.0
Li1850 Li 0.20612 0.59187 0.67499 0.0
Li1851 Li 0.18512 0.58758 0.70441 0.0
C1852 C 0.22153 0.63032 0.66251 0.0
N1853 N 0.22771 0.65346 0.62831 0.0
C1854 C 0.23579 0.64563 0.66259 0.0
C1855 C 0.21046 0.62676 0.64504 0.0
C1856 C 0.23868 0.65718 0.64515 0.0
C1857 C 0.2138 0.6386 0.6279 0.0
C1858 C 0.19473 0.62079 0.7356 0.0
C1859 C 0.20184 0.61346 0.77057 0.0
N1860 N 0.20626 0.63328 0.77368 0.0
C1861 C 0.19923 0.64111 0.73916 0.0
C1862 C 0.19595 0.60684 0.75143 0.0
C1863 C 0.20506 0.64712 0.75851 0.0
C1864 C 0.15773 0.64745 0.67965 0.0
N1865 N 0.1776 0.64672 0.6827 0.0
C1866 C 0.17901 0.68238 0.68777 0.0
C1867 C 0.1884 0.66371 0.68603 0.0
C1868 C 0.15829 0.68346 0.68622 0.0
C1869 C 0.14771 0.66584 0.68118 0.0
H1870 H 0.14952 0.63359 0.67737 0.0
H1871 H 0.20412 0.66253 0.6889 0.0
C1872 C 0.2427 0.59707 0.73807 0.0
N1873 N 0.23743 0.61139 0.72436 0.0
C1874 C 0.25691 0.60134 0.75273 0.0
C1875 C 0.26016 0.63497 0.73873 0.0
C1876 C 0.24602 0.62995 0.72419 0.0
C1877 C 0.26553 0.62066 0.75349 0.0
H1878 H 0.2354 0.58252 0.73803 0.0
H1879 H 0.24126 0.64112 0.71328 0.0
C1880 C 0.16621 0.58872 0.66146 0.0
N1881 N 0.14354 0.57257 0.63063 0.0
C1882 C 0.15961 0.56873 0.66257 0.0
C1883 C 0.16078 0.60068 0.64493 0.0
C1884 C 0.14832 0.56078 0.64675 0.0
C1885 C 0.14945 0.59219 0.62943 0.0
C1886 C 0.22944 0.56677 0.69869 0.0
C1887 C 0.24652 0.57664 0.69197 0.0
C1888 C 0.2303 0.54621 0.70353 0.0
C1889 C 0.26418 0.5658 0.69027 0.0
C1890 C 0.24823 0.53587 0.70154 0.0
N1891 N 0.26466 0.5458 0.69505 0.0
C1892 C 0.23362 0.5813 0.64476 0.0
C1893 C 0.20951 0.55652 0.65293 0.0
C1894 C 0.24576 0.56659 0.63623 0.0
N1895 N 0.21624 0.5759 0.65359 0.0
C1896 C 0.22111 0.54136 0.64436 0.0
C1897 C 0.23989 0.54626 0.63691 0.0
H1898 H 0.23926 0.59647 0.64644 0.0
H1899 H 0.19637 0.55237 0.6612 0.0
C1900 C 0.15403 0.57798 0.73121 0.0
N1901 N 0.16802 0.57031 0.71863 0.0
C1902 C 0.14292 0.56503 0.74341 0.0
C1903 C 0.16057 0.53663 0.72903 0.0
C1904 C 0.17129 0.55011 0.71712 0.0
C1905 C 0.14635 0.54407 0.74262 0.0
H1906 H 0.15189 0.59416 0.73213 0.0
H1907 H 0.18254 0.54454 0.70693 0.0
O1908 O 0.21827 0.61918 0.67963 0.0
O1909 O 0.18967 0.61447 0.71661 0.0
O1910 O 0.17694 0.59689 0.67702 0.0
O1911 O 0.21193 0.57708 0.70055 0.0
H1912 H 0.24448 0.64861 0.67601 0.0
H1913 H 0.19968 0.61475 0.64463 0.0
H1914 H 0.24964 0.66911 0.64501 0.0
H1915 H 0.20536 0.63595 0.61425 0.0
H1916 H 0.203 0.60281 0.78292 0.0
H1917 H 0.19844 0.65207 0.72706 0.0
H1918 H 0.19272 0.59102 0.74888 0.0
H1919 H 0.20872 0.66277 0.76146 0.0
H1920 H 0.18773 0.69545 0.69199 0.0
H1921 H 0.13175 0.66606 0.67969 0.0
H1922 H 0.26072 0.58979 0.76365 0.0
H1923 H 0.26611 0.65017 0.73896 0.0
H1924 H 0.16324 0.5594 0.67546 0.0
H1925 H 0.16508 0.61642 0.64413 0.0
H1926 H 0.1433 0.54526 0.64734 0.0
H1927 H 0.14525 0.60124 0.61649 0.0
H1928 H 0.24619 0.5925 0.68804 0.0
H1929 H 0.21728 0.53829 0.70878 0.0
H1930 H 0.27748 0.57325 0.68506 0.0
H1931 H 0.24908 0.51995 0.7052 0.0
H1932 H 0.26027 0.5708 0.63067 0.0
H1933 H 0.21633 0.52575 0.64545 0.0
H1934 H 0.13191 0.57137 0.75348 0.0
H1935 H 0.16386 0.52064 0.72807 0.0
Li1936 Li 0.63671 0.96332 0.95108 0.0
Li1937 Li 0.65755 0.93069 0.94783 0.0
Li1938 Li 0.65411 0.95439 0.91984 0.0
Li1939 Li 0.62664 0.93468 0.92943 0.0
C1940 C 0.68074 0.97269 0.94515 0.0
N1941 N 0.71178 -0.00045 0.94108 0.0
C1942 C 0.70024 0.96565 0.94513 0.0
C1943 C 0.67701 0.99338 0.94313 0.0
C1944 C 0.71574 0.97948 0.94297 0.0
C1945 C 0.69291 0.00672 0.94116 0.0
C1946 C 0.61593 0.92356 0.96718 0.0
C1947 C 0.60223 0.89097 0.97562 0.0
N1948 N 0.58532 0.90016 0.98196 0.0
C1949 C 0.59847 0.9327 0.97389 0.0
C1950 C 0.61789 0.90255 0.96811 0.0
C1951 C 0.58313 0.92059 0.98125 0.0
C1952 C 0.61094 0.99161 0.96961 0.0
N1953 N 0.62954 0.98381 0.96936 0.0
C1954 C 0.63921 0.00462 0.99709 0.0
C1955 C 0.64362 0.99 0.98264 0.0
C1956 C 0.61998 0.01263 0.99816 0.0
C1957 C 0.6058 0.00615 0.98399 0.0
H1958 H 0.60003 0.98623 0.95891 0.0
H1959 H 0.65823 0.98335 0.98219 0.0
C1960 C 0.6922 0.9078 0.95538 0.0
N1961 N 0.67472 0.91433 0.96314 0.0
C1962 C 0.70578 0.89774 0.96775 0.0
C1963 C 0.6827 0.90077 0.99553 0.0
C1964 C 0.66971 0.91094 0.98272 0.0
C1965 C 0.7012 0.89435 0.98822 0.0
H1966 H 0.69584 0.91101 0.93978 0.0
H1967 H 0.65579 0.91654 0.98851 0.0
C1968 C 0.61717 0.97762 0.91155 0.0
N1969 N 0.59781 0.00578 0.88782 0.0
C1970 C 0.6066 0.97142 0.89446 0.0
C1971 C 0.61762 0.99812 0.91674 0.0
C1972 C 0.59699 0.9859 0.88262 0.0
C1973 C 0.60783 0.01212 0.90449 0.0
C1974 C 0.64995 0.91655 0.89996 0.0
C1975 C 0.64274 0.92886 0.88447 0.0
C1976 C 0.65447 0.89632 0.89594 0.0
C1977 C 0.64004 0.92071 0.86519 0.0
C1978 C 0.65157 0.88872 0.87646 0.0
N1979 N 0.64446 0.90097 0.86161 0.0
C1980 C 0.68831 0.95858 0.89671 0.0
C1981 C 0.66627 0.98643 0.8946 0.0
C1982 C 0.70374 0.9703 0.88896 0.0
N1983 N 0.67031 0.96711 0.9002 0.0
C1984 C 0.68122 -0.00134 0.88692 0.0
C1985 C 0.70043 0.99086 0.88504 0.0
H1986 H 0.6912 0.94333 0.90182 0.0
H1987 H 0.65208 0.993 0.89785 0.0
C1988 C 0.58615 0.9315 0.9253 0.0
N1989 N 0.6031 0.9208 0.92266 0.0
C1990 C 0.5682 0.92147 0.92785 0.0
C1991 C 0.58524 0.8897 0.92284 0.0
C1992 C 0.60292 0.90038 0.92047 0.0
C1993 C 0.56779 0.90023 0.92779 0.0
H1994 H 0.58686 0.94767 0.92761 0.0
H1995 H 0.61672 0.89224 0.91889 0.0
O1996 O 0.66536 0.9594 0.94729 0.0
O1997 O 0.631 0.93513 0.95965 0.0
O1998 O 0.62634 0.96366 0.92361 0.0
O1999 O 0.65256 0.92408 0.91903 0.0
H2000 H 0.70338 0.94969 0.94665 0.0
H2001 H 0.66199 -0.00095 0.94296 0.0
H2002 H 0.73091 0.97425 0.94281 0.0
H2003 H 0.69024 0.02277 0.93959 0.0
H2004 H 0.60348 0.87468 0.97631 0.0
H2005 H 0.59672 0.94894 0.97322 0.0
H2006 H 0.63128 0.89525 0.96287 0.0
H2007 H 0.56947 0.92743 0.98634 0.0
H2008 H 0.65066 0.00932 0.00754 0.0
H2009 H 0.59071 0.01164 0.98448 0.0
H2010 H 0.71993 0.89326 0.96151 0.0
H2011 H 0.67833 0.89815 0.01106 0.0
H2012 H 0.60568 0.95559 0.89046 0.0
H2013 H 0.62569 0.00319 0.92993 0.0
H2014 H 0.5888 0.98131 0.86933 0.0
H2015 H 0.6082 0.02804 0.90824 0.0
H2016 H 0.63935 0.94456 0.88726 0.0
H2017 H 0.66008 0.88659 0.90779 0.0
H2018 H 0.63445 0.93009 0.85306 0.0
H2019 H 0.65495 0.87308 0.87314 0.0
H2020 H 0.71843 0.96384 0.88776 0.0
H2021 H 0.67813 0.01443 0.8838 0.0
H2022 H 0.55528 0.93025 0.93193 0.0
H2023 H 0.58554 0.87334 0.92246 0.0
Li2024 Li 0.85822 0.02982 0.45039 0.0
Li2025 Li 0.83888 0.0635 0.45059 0.0
Li2026 Li 0.84244 0.04345 0.4201 0.0
Li2027 Li 0.87027 0.06045 0.43293 0.0
C2028 C 0.8141 0.02318 0.44158 0.0
N2029 N 0.78242 -0.00134 0.43174 0.0
C2030 C 0.79474 0.0303 0.44379 0.0
C2031 C 0.81734 0.00354 0.43454 0.0
C2032 C 0.77892 0.01768 0.43869 0.0
C2033 C 0.80113 0.9914 0.42956 0.0
C2034 C 0.87992 0.06707 0.47162 0.0
C2035 C 0.89452 0.09864 0.48213 0.0
N2036 N 0.91086 0.0885 0.48857 0.0
C2037 C 0.89679 0.05693 0.47847 0.0
C2038 C 0.8787 0.08808 0.47354 0.0
C2039 C 0.9123 0.06805 0.48695 0.0
C2040 C 0.88308 -0.00031 0.46695 0.0
N2041 N 0.86428 0.00693 0.4662 0.0
C2042 C 0.85366 0.98309 0.49099 0.0
C2043 C 0.84958 -0.00119 0.4776 0.0
C2044 C 0.87314 0.97586 0.49286 0.0
C2045 C 0.88788 0.98406 0.48027 0.0
H2046 H 0.89446 0.00655 0.45771 0.0
H2047 H 0.83478 0.00497 0.47675 0.0
C2048 C 0.80471 0.08642 0.45841 0.0
N2049 N 0.82179 0.07927 0.46653 0.0
C2050 C 0.79121 0.09691 0.47048 0.0
C2051 C 0.81356 0.09298 0.49879 0.0
C2052 C 0.82645 0.08233 0.48626 0.0
C2053 C 0.7955 0.1002 0.49104 0.0
H2054 H 0.80139 0.08356 0.44267 0.0
H2055 H 0.84009 0.0763 0.49232 0.0
C2056 C 0.8782 0.01895 0.4105 0.0
N2057 N 0.8959 0.99154 0.38468 0.0
C2058 C 0.89049 0.02573 0.39491 0.0
C2059 C 0.87521 0.9982 0.41318 0.0
C2060 C 0.89921 0.01164 0.38195 0.0
C2061 C 0.88421 0.9846 0.3999 0.0
C2062 C 0.84853 0.08286 0.40509 0.0
C2063 C 0.85719 0.07247 0.38898 0.0
C2064 C 0.84319 0.10313 0.40272 0.0
C2065 C 0.8605 0.08258 0.37076 0.0
C2066 C 0.84675 0.11273 0.38426 0.0
N2067 N 0.85527 0.10234 0.36879 0.0
C2068 C 0.80827 0.04336 0.39729 0.0
C2069 C 0.83166 0.01902 0.38624 0.0
C2070 C 0.79333 0.03405 0.38612 0.0
N2071 N 0.82668 0.03509 0.39795 0.0
C2072 C 0.81727 0.00939 0.37464 0.0
C2073 C 0.79764 0.01634 0.37533 0.0
H2074 H 0.80477 0.05611 0.4069 0.0
H2075 H 0.84632 0.01268 0.387 0.0
C2076 C 0.91111 0.06309 0.43083 0.0
N2077 N 0.89438 0.07419 0.42831 0.0
C2078 C 0.92916 0.0727 0.43424 0.0
C2079 C 0.91269 0.10494 0.43034 0.0
C2080 C 0.89491 0.09469 0.42714 0.0
C2081 C 0.92989 0.09392 0.43507 0.0
H2082 H 0.9101 0.04682 0.43217 0.0
H2083 H 0.8813 0.10313 0.42557 0.0
O2084 O 0.8298 0.03541 0.44625 0.0
O2085 O 0.8648 0.05652 0.46276 0.0
O2086 O 0.86972 0.03251 0.42351 0.0
O2087 O 0.84524 0.07337 0.42315 0.0
H2088 H 0.79196 0.04544 0.44928 0.0
H2089 H 0.83221 0.9978 0.43278 0.0
H2090 H 0.76386 0.02302 0.44022 0.0
H2091 H 0.80343 0.97622 0.42394 0.0
H2092 H 0.89387 0.11492 0.48355 0.0
H2093 H 0.89798 0.04068 0.47705 0.0
H2094 H 0.8658 0.09616 0.46816 0.0
H2095 H 0.92551 0.06042 0.49217 0.0
H2096 H 0.8418 0.97706 0.50022 0.0
H2097 H 0.90314 0.97918 0.48141 0.0
H2098 H 0.77739 0.10192 0.46387 0.0
H2099 H 0.81774 0.09548 0.51439 0.0
H2100 H 0.89335 0.0417 0.39287 0.0
H2101 H 0.86603 0.99264 0.42534 0.0
H2102 H 0.90868 0.01668 0.36977 0.0
H2103 H 0.88192 0.96851 0.40173 0.0
H2104 H 0.86119 0.05675 0.39048 0.0
H2105 H 0.83644 0.11138 0.41507 0.0
H2106 H 0.8672 0.0747 0.35817 0.0
H2107 H 0.84275 0.12844 0.38223 0.0
H2108 H 0.77837 0.0399 0.38688 0.0
H2109 H 0.82115 0.99568 0.36661 0.0
H2110 H 0.94192 0.06357 0.43808 0.0
H2111 H 0.91266 0.12131 0.4306 0.0
C2112 C 0.13874 0.21086 0.48792 0.0
C2113 C 0.12267 0.21565 0.50047 0.0
H2114 H 0.15677 0.21985 0.46298 0.0
C2115 C 0.11343 0.23463 0.49841 0.0
H2116 H 0.14637 0.19653 0.48938 0.0
C2117 C 0.11954 0.2481 0.48336 0.0
C2118 C 0.13479 0.24265 0.47006 0.0
H2119 H 0.10084 0.23866 0.5077 0.0
H2120 H 0.11181 0.26234 0.48156 0.0
C2121 C 0.14466 0.22417 0.4728 0.0
C2122 C 0.02124 0.89744 0.71508 0.0
C2123 C 0.00335 0.88666 0.7148 0.0
H2124 H 0.04921 0.90185 0.72949 0.0
C2125 C -0.00056 0.87252 0.73006 0.0
H2126 H 0.02432 0.90884 0.70374 0.0
C2127 C 0.01374 0.86838 0.74474 0.0
C2128 C 0.03208 0.87853 0.74451 0.0
H2129 H 0.98565 0.86415 0.73017 0.0
H2130 H 0.01077 0.85657 0.75566 0.0
C2131 C 0.03542 0.89351 0.72986 0.0
C2132 C 0.35357 0.77243 0.97462 0.0
C2133 C 0.36322 0.75386 0.97171 0.0
H2134 H 0.35267 0.80027 0.99092 0.0
C2135 C 0.37886 0.74841 0.98453 0.0
H2136 H 0.34119 0.77677 0.96517 0.0
C2137 C 0.38563 0.76201 -0.00082 0.0
C2138 C 0.37664 0.7811 0.00132 0.0
H2139 H 0.38643 0.7341 0.98258 0.0
H2140 H 0.39854 0.758 0.00803 0.0
C2141 C 0.36011 0.78585 0.98937 0.0
C2142 C 0.48307 0.14058 0.21004 0.0
C2143 C 0.49866 0.12731 0.21456 0.0
H2144 H 0.45608 0.15403 0.21999 0.0
C2145 C 0.49967 0.11864 0.23398 0.0
H2146 H 0.48207 0.14779 0.19537 0.0
C2147 C 0.48479 0.12232 0.24817 0.0
C2148 C 0.46861 0.13459 0.24309 0.0
H2149 H 0.51137 0.10816 0.23792 0.0
H2150 H 0.48553 0.11495 0.26277 0.0
C2151 C 0.46815 0.14408 0.2241 0.0
C2152 C 0.63427 0.24949 0.51299 0.0
C2153 C 0.6245 0.24811 0.53174 0.0
H2154 H 0.63706 0.26564 0.48498 0.0
C2155 C 0.60862 0.26119 0.53577 0.0
H2156 H 0.64672 0.23978 0.50952 0.0
C2157 C 0.60345 0.27615 0.52196 0.0
C2158 C 0.61387 0.27821 0.50371 0.0
H2159 H 0.60057 0.26026 0.5499 0.0
H2160 H 0.59147 0.28637 0.52571 0.0
C2161 C 0.62891 0.26438 0.49902 0.0
C2162 C 0.95798 0.39404 0.76405 0.0
C2163 C 0.96123 0.3794 0.74903 0.0
H2164 H 0.96919 0.40868 0.79051 0.0
C2165 C 0.97951 0.36918 0.74851 0.0
H2166 H 0.94423 0.40244 0.76465 0.0
C2167 C 0.99385 0.37287 0.76327 0.0
C2168 C 0.99002 0.38664 0.77889 0.0
H2169 H 0.98242 0.35764 0.7373 0.0
H2170 H 0.0076 0.36444 0.76292 0.0
C2171 C 0.97219 0.39754 0.7789 0.0
C2172 C 0.87639 0.74915 0.01022 0.0
C2173 C 0.86117 0.74405 0.02368 0.0
H2174 H 0.89489 0.73912 0.98596 0.0
C2175 C 0.85099 0.72573 0.02118 0.0
H2176 H 0.88435 0.76327 0.01186 0.0
C2177 C 0.85661 0.71217 0.00618 0.0
C2178 C 0.87276 0.71652 0.99356 0.0
H2179 H 0.83892 0.72167 0.03115 0.0
H2180 H 0.84879 0.69792 0.00495 0.0
C2181 C 0.88225 0.7354 0.99532 0.0
C2182 C 0.51771 0.63468 0.25921 0.0
C2183 C 0.53705 0.62743 0.26244 0.0
H2184 H 0.48771 0.6354 0.26982 0.0
C2185 C 0.54083 0.61507 0.27926 0.0
H2186 H 0.5144 0.64458 0.24662 0.0
C2187 C 0.52569 0.61029 0.29271 0.0
C2188 C 0.50644 0.61764 0.28954 0.0
H2189 H 0.55549 0.60904 0.28201 0.0
H2190 H 0.52896 0.60049 0.30541 0.0
C2191 C 0.50249 0.62969 0.27258 0.0
C2192 C 0.23156 0.46285 0.10654 0.0
C2193 C 0.24437 0.4664 0.12287 0.0
H2194 H 0.20606 0.47265 0.0902 0.0
C2195 C 0.24197 0.48418 0.13437 0.0
H2196 H 0.23319 0.44954 0.09715 0.0
C2197 C 0.2266 0.49765 0.13009 0.0
C2198 C 0.2132 0.49338 0.1145 0.0
H2199 H 0.25134 0.48726 0.14729 0.0
H2200 H 0.22471 0.51095 0.13946 0.0
C2201 C 0.21603 0.47609 0.10255 0.0
C2202 C 0.71895 0.02234 0.89316 0.0
C2203 C 0.71716 0.00473 0.88145 0.0
H2204 H 0.73525 0.04935 0.89902 0.0
C2205 C 0.73138 0.00056 0.86663 0.0
H2206 H 0.70831 0.02574 0.90491 0.0
C2207 C 0.74663 0.01433 0.86291 0.0
C2208 C 0.74812 0.03233 0.87425 0.0
H2209 H 0.73029 0.98704 0.85745 0.0
H2210 H 0.75669 0.01124 0.85056 0.0
C2211 C 0.73438 0.03587 0.88977 0.0
C2212 C 0.75215 0.98332 0.37374 0.0
C2213 C 0.755 0.97291 0.35548 0.0
H2214 H 0.76339 0.00557 0.39421 0.0
C2215 C 0.77048 0.97893 0.34257 0.0
H2216 H 0.74035 0.97905 0.38398 0.0
C2217 C 0.78372 0.99396 0.34848 0.0
C2218 C 0.7816 0.00347 0.36728 0.0
H2219 H 0.77268 0.97164 0.32808 0.0
H2220 H 0.79599 0.9977 0.33862 0.0
C2221 C 0.76531 0.99853 0.37956 0.0
C2222 C 0.25024 0.51412 0.61995 0.0
C2223 C 0.25447 0.53016 0.63309 0.0
H2224 H 0.26121 0.48774 0.60513 0.0
C2225 C 0.27264 0.53054 0.64334 0.0
H2226 H 0.23619 0.51347 0.61206 0.0
C2227 C 0.28668 0.51551 0.64003 0.0
C2228 C 0.28306 0.50003 0.62595 0.0
H2229 H 0.27604 0.54255 0.6539 0.0
H2230 H 0.30058 0.51633 0.64814 0.0
C2231 C 0.26449 0.49926 0.61625 0.0
C2232 C 0.26884 0.3719 0.4992 0.0
C2233 C 0.27907 0.38905 0.49215 0.0
H2234 H 0.24879 0.34779 0.49205 0.0
C2235 C 0.27588 0.3955 0.47212 0.0
H2236 H 0.27109 0.36633 0.51441 0.0
C2237 C 0.2634 0.38465 0.45928 0.0
C2238 C 0.25355 0.36734 0.46625 0.0
H2239 H 0.28306 0.40892 0.46629 0.0
H2240 H 0.26146 0.38978 0.44385 0.0
C2241 C 0.25611 0.36123 0.4864 0.0
C2242 C 0.86981 0.02181 0.70482 0.0
C2243 C 0.87633 0.00269 0.71131 0.0
H2244 H 0.85512 0.04935 0.71263 0.0
C2245 C 0.87281 0.99683 0.73141 0.0
H2246 H 0.87251 0.0269 0.68951 0.0
C2247 C 0.86319 0.00987 0.74478 0.0
C2248 C 0.85678 0.02903 0.73833 0.0
H2249 H 0.87747 0.98213 0.73684 0.0
H2250 H 0.86099 0.00501 0.76026 0.0
C2251 C 0.86013 0.03481 0.71817 0.0
C2252 C 0.21643 0.647 0.97562 0.0
C2253 C 0.23605 0.64027 0.97317 0.0
H2254 H 0.18838 0.64221 0.9899 0.0
C2255 C 0.24261 0.62363 0.9846 0.0
H2256 H 0.211 0.66008 0.96749 0.0
C2257 C 0.2297 0.61365 0.99775 0.0
C2258 C 0.20994 0.61999 -0.00044 0.0
H2259 H 0.25754 0.6179 0.98296 0.0
H2260 H 0.23495 0.60052 0.00595 0.0
C2261 C 0.20349 0.63688 0.98856 0.0
C2262 C 0.62673 0.97674 0.20703 0.0
C2263 C 0.6115 0.98844 0.21555 0.0
H2264 H 0.64922 0.95453 0.21195 0.0
C2265 C 0.60734 0.98637 0.23627 0.0
H2266 H 0.63017 0.9778 0.19108 0.0
C2267 C 0.61803 0.97278 0.24816 0.0
C2268 C 0.63317 0.96098 0.23961 0.0
H2269 H 0.59585 0.99533 0.24335 0.0
H2270 H 0.61425 0.97133 0.264 0.0
C2271 C 0.63746 0.96318 0.21893 0.0
C2272 C 0.76637 0.1155 0.53763 0.0
C2273 C 0.75522 0.13185 0.53038 0.0
H2274 H 0.78724 0.09227 0.53081 0.0
C2275 C 0.75679 0.13739 0.50997 0.0
H2276 H 0.76521 0.11081 0.55328 0.0
C2277 C 0.76977 0.12709 0.49713 0.0
C2278 C 0.78121 0.11086 0.50442 0.0
H2279 H 0.74845 0.15009 0.5041 0.0
H2280 H 0.77117 0.13219 0.48165 0.0
C2281 C 0.7791 0.10501 0.52477 0.0
C2282 C 0.12928 0.51107 0.74945 0.0
C2283 C 0.13572 0.53007 0.75635 0.0
H2284 H 0.11507 0.48313 0.75679 0.0
C2285 C 0.13237 0.53539 0.77664 0.0
H2286 H 0.1315 0.50657 0.73387 0.0
C2287 C 0.12275 0.52206 0.7897 0.0
C2288 C 0.1163 0.50307 0.7828 0.0
H2289 H 0.13739 0.5498 0.78251 0.0
H2290 H 0.12011 0.52676 0.80515 0.0
C2291 C 0.11971 0.49771 0.76254 0.0
C2292 C 0.71738 0.89118 0.02224 0.0
C2293 C 0.71568 0.88461 0.00208 0.0
H2294 H 0.73112 0.88679 0.05108 0.0
C2295 C 0.72771 0.86857 0.99543 0.0
H2296 H 0.70874 0.90382 0.02776 0.0
C2297 C 0.74079 0.85906 0.00877 0.0
C2298 C 0.74198 0.86529 0.02903 0.0
H2299 H 0.72665 0.86299 0.98008 0.0
H2300 H 0.74951 0.84641 0.00339 0.0
C2301 C 0.73028 0.88154 0.03559 0.0
C2302 C 0.34762 0.48259 0.26785 0.0
C2303 C 0.35562 0.46497 0.2592 0.0
H2304 H 0.35274 0.50852 0.28654 0.0
C2305 C 0.37543 0.45993 0.26324 0.0
H2306 H 0.33234 0.48675 0.26518 0.0
C2307 C 0.38702 0.47226 0.27558 0.0
C2308 C 0.37908 0.48994 0.28415 0.0
H2309 H 0.38208 0.44656 0.25665 0.0
H2310 H 0.40219 0.46786 0.27853 0.0
C2311 C 0.35923 0.49493 0.28024 0.0
C2312 C 0.47319 0.27766 0.39081 0.0
C2313 C 0.49294 0.27915 0.38422 0.0
H2314 H 0.44488 0.2637 0.38672 0.0
C2315 C 0.49938 0.26653 0.36842 0.0
H2316 H 0.46783 0.28674 0.40329 0.0
C2317 C 0.48624 0.25307 0.35916 0.0
C2318 C 0.4664 0.2521 0.36541 0.0
H2319 H 0.51442 0.26741 0.36284 0.0
H2320 H 0.49145 0.24388 0.34669 0.0
C2321 C 0.46005 0.26438 0.38143 0.0
C2322 C 0.99587 0.2345 0.62848 0.0
C2323 C 0.98885 0.22205 0.61278 0.0
H2324 H 0.98878 0.25708 0.65062 0.0
C2325 C 0.96891 0.22378 0.60683 0.0
H2326 H 0.01105 0.23345 0.63361 0.0
C2327 C 0.95617 0.23705 0.61677 0.0
C2328 C 0.96311 0.24914 0.63267 0.0
H2329 H 0.96308 0.21487 0.59444 0.0
H2330 H 0.94083 0.23786 0.61203 0.0
C2331 C 0.98313 0.24801 0.63826 0.0
C2332 C 0.01563 0.71167 0.86219 0.0
C2333 C 0.00468 0.71871 0.87875 0.0
H2334 H 0.03609 0.71882 0.83869 0.0
C2335 C 0.00618 0.73911 0.88439 0.0
H2336 H 0.01452 0.69604 0.85741 0.0
C2337 C 0.01889 0.75214 0.87397 0.0
C2338 C 0.03015 0.74505 0.85753 0.0
H2339 H -0.00202 0.74483 0.89725 0.0
H2340 H 0.02025 0.7676 0.87916 0.0
C2341 C 0.02809 0.72472 0.85158 0.0
C2342 C 0.53415 0.77578 0.1448 0.0
C2343 C 0.53501 0.75487 0.14098 0.0
H2344 H 0.52166 0.80435 0.1365 0.0
C2345 C 0.52283 0.7467 0.12576 0.0
H2346 H 0.54293 0.78254 0.15671 0.0
C2347 C 0.51036 0.75921 0.11444 0.0
C2348 C 0.51 0.78013 0.11796 0.0
H2349 H 0.52327 0.73072 0.12222 0.0
H2350 H 0.50144 0.7526 0.10254 0.0
C2351 C 0.52189 0.78828 0.13332 0.0
C2352 C 0.18627 0.345 0.27894 0.0
C2353 C 0.19091 0.35212 0.2984 0.0
H2354 H 0.19218 0.34705 0.24718 0.0
C2355 C 0.2042 0.36833 0.30041 0.0
H2356 H 0.17596 0.33262 0.27693 0.0
C2357 C 0.21355 0.37646 0.28348 0.0
C2358 C 0.20978 0.36863 0.26411 0.0
H2359 H 0.20842 0.37392 0.31518 0.0
H2360 H 0.22465 0.38805 0.28579 0.0
C2361 C 0.1956 0.35321 0.26195 0.0
C2362 C 0.87031 0.96416 0.52867 0.0
C2363 C 0.87847 0.96158 0.50931 0.0
H2364 H 0.87159 0.95643 0.55989 0.0
C2365 C 0.89297 0.94661 0.50643 0.0
H2366 H 0.85934 0.97575 0.53154 0.0
C2367 C 0.90005 0.93538 0.52284 0.0
C2368 C 0.89278 0.93895 0.54244 0.0
H2369 H 0.89931 0.94401 0.49162 0.0
H2370 H 0.91176 0.92449 0.52032 0.0
C2371 C 0.87734 0.95298 0.54501 0.0
C2372 C 0.27394 0.62003 0.79033 0.0
C2373 C 0.27853 0.6265 0.77064 0.0
H2374 H 0.27967 0.62304 0.82188 0.0
C2375 C 0.29455 0.6398 0.76783 0.0
H2376 H 0.2615 0.61009 0.79313 0.0
C2377 C 0.30497 0.64737 0.78446 0.0
C2378 C 0.29964 0.64168 0.80419 0.0
H2379 H 0.29868 0.6448 0.75282 0.0
H2380 H 0.31675 0.65818 0.78193 0.0
C2381 C 0.28442 0.62747 0.80688 0.0
C2382 C 0.59391 0.05334 0.02858 0.0
C2383 C 0.6003 0.04875 0.04828 0.0
H2384 H 0.59541 0.04577 0.99712 0.0
C2385 C 0.6145 0.03348 0.05102 0.0
H2386 H 0.58307 0.06514 0.026 0.0
C2387 C 0.6214 0.02235 0.03462 0.0
C2388 C 0.61434 0.02623 0.01502 0.0
H2389 H 0.61943 0.02923 0.06602 0.0
H2390 H 0.63149 0.00995 0.03752 0.0
C2391 C 0.60088 0.0422 0.01209 0.0
C2392 C 0.70904 0.12599 0.69628 0.0
C2393 C 0.69464 0.14113 0.69861 0.0
H2394 H 0.73085 0.10754 0.71053 0.0
C2395 C 0.68959 0.14755 0.71819 0.0
H2396 H 0.71359 0.121 0.68139 0.0
C2397 C 0.69951 0.13974 0.73503 0.0
C2398 C 0.71471 0.12542 0.73257 0.0
H2399 H 0.67844 0.15911 0.72044 0.0
H2400 H 0.69569 0.14535 0.7499 0.0
C2401 C 0.71898 0.11826 0.71305 0.0
C2402 C 0.12245 0.47096 0.96048 0.0
C2403 C 0.11599 0.46745 0.98035 0.0
H2404 H 0.12073 0.46236 0.92953 0.0
C2405 C 0.10421 0.45037 0.98432 0.0
H2406 H 0.13128 0.48412 0.9568 0.0
C2407 C 0.0981 0.43775 0.96854 0.0
C2408 C 0.10367 0.44198 0.9485 0.0
H2409 H 0.0993 0.44705 -0.00046 0.0
H2410 H 0.08845 0.42513 0.97192 0.0
C2411 C 0.11642 0.45836 0.94478 0.0
C2412 C 0.79352 0.84261 0.23478 0.0
C2413 C 0.7813 0.85964 0.23281 0.0
H2414 H 0.81391 0.82258 0.22029 0.0
C2415 C 0.78178 0.87085 0.21482 0.0
H2416 H 0.79354 0.83388 0.24864 0.0
C2417 C 0.79307 0.86421 0.19846 0.0
C2418 C 0.8043 0.84634 0.19986 0.0
H2419 H 0.77236 0.88397 0.2129 0.0
H2420 H 0.79175 0.87232 0.18431 0.0
C2421 C 0.80511 0.83615 0.21853 0.0
C2422 C 0.37088 0.53728 0.46823 0.0
C2423 C 0.38071 0.53756 0.487 0.0
H2424 H 0.37206 0.54505 0.43688 0.0
C2425 C 0.39789 0.54942 0.48905 0.0
H2426 H 0.35773 0.52821 0.46596 0.0
C2427 C 0.40623 0.55887 0.47221 0.0
C2428 C 0.39735 0.55691 0.45313 0.0
H2429 H 0.40554 0.55043 0.5034 0.0
H2430 H 0.42029 0.5666 0.47383 0.0
C2431 C 0.37908 0.54697 0.45148 0.0
C2432 C 0.26652 0.19677 0.35724 0.0
C2433 C 0.26987 0.21254 0.3711 0.0
H2434 H 0.27937 0.17328 0.33921 0.0
C2435 C 0.28895 0.21499 0.37922 0.0
H2436 H 0.2519 0.19417 0.35105 0.0
C2437 C 0.30456 0.20289 0.37266 0.0
C2438 C 0.30155 0.18817 0.35765 0.0
H2439 H 0.29217 0.22709 0.38974 0.0
H2440 H 0.31925 0.20618 0.3783 0.0
C2441 C 0.28222 0.18472 0.35056 0.0
C2442 C 0.03977 0.01525 0.60637 0.0
C2443 C 0.02547 0.01858 0.62143 0.0
H2444 H 0.06192 0.02836 0.58731 0.0
C2445 C 0.02463 0.03759 0.63086 0.0
H2446 H 0.04085 0.00076 0.59881 0.0
C2447 C 0.03644 0.05348 0.62405 0.0
C2448 C 0.04951 0.05066 0.60775 0.0
H2449 H 0.0141 0.0405 0.64286 0.0
H2450 H 0.03418 0.0683 0.63061 0.0
C2451 C 0.05174 0.03112 0.59965 0.0
C2452 C 0.20778 0.78106 0.87596 0.0
C2453 C 0.22706 0.78401 0.86856 0.0
H2454 H 0.17727 0.78895 0.87373 0.0
C2455 C 0.23045 0.7995 0.85442 0.0
H2456 H 0.20456 0.76908 0.88662 0.0
C2457 C 0.21467 0.811 0.84699 0.0
C2458 C 0.19523 0.80723 0.85357 0.0
H2459 H 0.2452 0.80236 0.8487 0.0
H2460 H 0.21759 0.82236 0.83558 0.0
C2461 C 0.19207 0.79255 0.86858 0.0
C2462 C 0.47194 0.96282 0.12867 0.0
C2463 C 0.46701 0.98215 0.12143 0.0
H2464 H 0.46781 0.93096 0.12588 0.0
C2465 C 0.45192 0.984 0.10689 0.0
H2466 H 0.48376 0.96078 0.13954 0.0
C2467 C 0.44276 0.96677 0.09896 0.0
C2468 C 0.44847 0.94741 0.10549 0.0
H2469 H 0.44762 -0.00129 0.1012 0.0
H2470 H 0.43169 0.96856 0.08725 0.0
C2471 C 0.46276 0.94566 0.12082 0.0
C2472 C 0.78448 0.28169 0.61941 0.0
C2473 C 0.76541 0.28416 0.62754 0.0
H2474 H 0.81488 0.29023 0.6206 0.0
C2475 C 0.76216 0.29961 0.64175 0.0
H2476 H 0.78758 0.26976 0.60865 0.0
C2477 C 0.77792 0.31147 0.64862 0.0
C2478 C 0.79722 0.30808 0.64142 0.0
H2479 H 0.74756 0.30212 0.64802 0.0
H2480 H 0.77514 0.32274 0.66016 0.0
C2481 C 0.80018 0.29352 0.62624 0.0
C2482 C 0.97089 0.53604 0.86691 0.0
C2483 C 0.97024 0.51705 0.87642 0.0
H2484 H 0.96137 0.56674 0.86726 0.0
C2485 C 0.95638 0.51382 0.89192 0.0
H2486 H 0.98109 0.53887 0.8546 0.0
C2487 C 0.94462 0.52974 0.8989 0.0
C2488 C 0.9466 0.54922 0.89059 0.0
H2489 H 0.95547 0.49935 0.89954 0.0
H2490 H 0.93475 0.52705 0.91151 0.0
C2491 C 0.95928 0.55196 0.87397 0.0
C2492 C 0.71822 0.68778 0.15353 0.0
C2493 C 0.69868 0.69059 0.14678 0.0
H2494 H 0.74847 0.69721 0.15129 0.0
C2495 C 0.69509 0.70428 0.13095 0.0
H2496 H 0.72146 0.67719 0.16558 0.0
C2497 C 0.71043 0.71586 0.12296 0.0
C2498 C 0.72978 0.71396 0.13051 0.0
H2499 H 0.68019 0.70711 0.12561 0.0
H2500 H 0.70682 0.72716 0.1117 0.0
C2501 C 0.73364 0.69932 0.14543 0.0
C2502 C 0.53401 0.45782 0.36365 0.0
C2503 C 0.53454 0.47725 0.37217 0.0
H2504 H 0.5443 0.42746 0.36512 0.0
C2505 C 0.54902 0.48172 0.38674 0.0
H2506 H 0.52319 0.45408 0.35214 0.0
C2507 C 0.5614 0.46645 0.3941 0.0
C2508 C 0.55946 0.44647 0.38702 0.0
H2509 H 0.5498 0.49662 0.3935 0.0
H2510 H 0.5716 0.47 0.40623 0.0
C2511 C 0.54634 0.44261 0.37096 0.0
C2512 C 0.34773 0.26213 0.20596 0.0
C2513 C 0.3621 0.26543 0.22099 0.0
H2514 H 0.32828 0.27554 0.18411 0.0
C2515 C 0.36914 0.28517 0.22417 0.0
H2516 H 0.34224 0.24705 0.20291 0.0
C2517 C 0.36132 0.30136 0.21333 0.0
C2518 C 0.34619 0.29824 0.1991 0.0
H2519 H 0.37993 0.28835 0.23585 0.0
H2520 H 0.36629 0.31647 0.21707 0.0
C2521 C 0.33981 0.2784 0.19513 0.0
C2522 C 0.84154 0.22059 0.80363 0.0
C2523 C 0.849 0.20124 0.7992 0.0
H2524 H 0.84239 0.25225 0.79681 0.0
C2525 C 0.86468 0.19944 0.78536 0.0
H2526 H 0.82961 0.22248 0.81441 0.0
C2527 C 0.87193 0.2164 0.77529 0.0
C2528 C 0.86368 0.23559 0.7788 0.0
H2529 H 0.87055 0.18476 0.78129 0.0
H2530 H 0.88318 0.21422 0.76384 0.0
C2531 C 0.84881 0.2376 0.79353 0.0
C2532 C 0.0097 0.60404 0.04727 0.0
C2533 C 0.01322 0.61928 0.03288 0.0
H2534 H 0.02218 0.58441 0.06966 0.0
C2535 C 0.03217 0.62795 0.03176 0.0
H2536 H 0.99515 0.59733 0.04878 0.0
C2537 C 0.04756 0.62068 0.04377 0.0
C2538 C 0.04442 0.60446 0.05714 0.0
H2539 H 0.0355 0.63953 0.0207 0.0
H2540 H 0.06222 0.62686 0.04145 0.0
C2541 C 0.02515 0.59671 0.05928 0.0
C2542 C 0.62722 0.79049 0.31286 0.0
C2543 C 0.64734 0.79527 0.31534 0.0
H2544 H 0.60596 0.77111 0.2987 0.0
C2545 C 0.66169 0.78213 0.30732 0.0
H2546 H 0.61585 0.80026 0.31902 0.0
C2547 C 0.65606 0.7656 0.29553 0.0
C2548 C 0.63596 0.76185 0.29155 0.0
H2549 H 0.67732 0.78554 0.30867 0.0
H2550 H 0.66752 0.75671 0.28832 0.0
C2551 C 0.62159 0.77391 0.3011 0.0
C2552 C 0.46629 0.40295 0.55286 0.0
C2553 C 0.44703 0.39603 0.54871 0.0
H2554 H 0.49694 0.40204 0.54462 0.0
C2555 C 0.44428 0.38154 0.53344 0.0
H2556 H 0.46886 0.41402 0.56463 0.0
C2557 C 0.46024 0.37486 0.5219 0.0
C2558 C 0.47939 0.38243 0.52539 0.0
H2559 H 0.4296 0.3762 0.52956 0.0
H2560 H 0.45735 0.36452 0.50955 0.0
C2561 C 0.48232 0.39619 0.54133 0.0
C2562 C 0.13151 0.69999 0.70628 0.0
C2563 C 0.14779 0.7019 0.69319 0.0
H2564 H 0.11219 0.71453 0.72717 0.0
C2565 C 0.15544 0.72128 0.68927 0.0
H2566 H 0.12547 0.68527 0.70996 0.0
C2567 C 0.14777 0.7382 0.69925 0.0
C2568 C 0.13232 0.73604 0.71332 0.0
H2569 H 0.16782 0.72326 0.67907 0.0
H2570 H 0.15436 0.75286 0.69643 0.0
C2571 C 0.12389 0.71684 0.71623 0.0
C2572 C 0.53827 0.86695 0.96289 0.0
C2573 C 0.51924 0.87533 0.96117 0.0
H2574 H 0.56844 0.86809 0.9536 0.0
C2575 C 0.51568 0.88982 0.94605 0.0
H2576 H 0.54161 0.85592 0.9745 0.0
C2577 C 0.53117 0.89683 0.93391 0.0
C2578 C 0.55054 0.88952 0.93671 0.0
H2579 H 0.50106 0.89626 0.94408 0.0
H2580 H 0.52816 0.90861 0.92297 0.0
C2581 C 0.55372 0.87393 0.95079 0.0
C2582 C 0.96662 0.09696 0.44073 0.0
C2583 C 0.94731 0.10409 0.44423 0.0
H2584 H 0.99712 0.09798 0.44964 0.0
C2585 C 0.94442 0.11934 0.45874 0.0
H2586 H 0.96937 0.08537 0.42951 0.0
C2587 C 0.96023 0.1265 0.47022 0.0
C2588 C 0.97934 0.1186 0.46751 0.0
H2589 H 0.92972 0.1249 0.46218 0.0
H2590 H 0.95722 0.13743 0.48203 0.0
C2591 C 0.98249 0.10412 0.45228 0.0
loop_
_geom_bond_atom_site_label_1
_geom_bond_atom_site_label_2
_geom_bond_distance
_geom_bond_site_symmetry_2
_ccdc_geom_bond_type
Li0 N17 1.990 . S
Li0 O60 1.956 . S
Li0 O61 1.970 . S
Li0 O62 1.961 . S
Li1 N25 1.990 . S
Li1 O60 1.970 . S
Li1 O61 1.956 . S
Li1 O63 1.961 . S
Li2 N47 1.990 . S
Li2 O60 1.961 . S
Li2 O62 1.956 . S
Li2 O63 1.970 . S
Li3 N53 1.990 . S
Li3 O61 1.961 . S
Li3 O62 1.970 . S
Li3 O63 1.956 . S
C4 C6 1.348 . S
C4 C7 1.356 . S
C4 O60 1.325 . S
N5 C8 1.314 . S
N5 C9 1.279 . S
C6 C4 1.348 . S
C6 C8 1.353 . S
C6 H64 0.929 . S
C7 C4 1.356 . S
C7 C9 1.358 . S
C7 H65 0.930 . S
C8 N5 1.314 . S
C8 C6 1.353 . S
C8 H66 0.930 . S
C9 N5 1.279 . S
C9 C7 1.358 . S
C9 H67 0.930 . S
C10 C13 1.348 . S
C10 C14 1.356 . S
C10 O61 1.325 . S
C11 N12 1.279 . S
C11 C14 1.358 . S
C11 H68 0.930 . S
N12 C11 1.279 . S
N12 C15 1.314 . S
C13 C10 1.348 . S
C13 C15 1.353 . S
C13 H69 0.929 . S
C14 C10 1.356 . S
C14 C11 1.358 . S
C14 H70 0.930 . S
C15 N12 1.314 . S
C15 C13 1.353 . S
C15 H71 0.930 . S
C16 N17 1.314 . S
C16 C21 1.353 . S
C16 H22 0.930 . S
N17 Li0 1.990 . S
N17 C16 1.314 . S
N17 C19 1.279 . S
C18 C19 1.358 . S
C18 C20 1.356 . S
C18 H72 0.930 . S
C19 N17 1.279 . S
C19 C18 1.358 . S
C19 H23 0.930 . S
C20 C18 1.356 . S
C20 C21 1.348 . S
C21 C16 1.353 . S
C21 C20 1.348 . S
C21 H73 0.929 . S
H22 C16 0.930 . S
H23 C19 0.930 . S
C24 N25 1.314 . S
C24 C26 1.353 . S
C24 H30 0.930 . S
N25 Li1 1.990 . S
N25 C24 1.314 . S
N25 C28 1.279 . S
C26 C24 1.353 . S
C26 C29 1.348 . S
C26 H74 0.929 . S
C27 C28 1.358 . S
C27 C29 1.356 . S
C27 H75 0.930 . S
C28 N25 1.279 . S
C28 C27 1.358 . S
C28 H31 0.930 . S
C29 C26 1.348 . S
C29 C27 1.356 . S
H30 C24 0.930 . S
H31 C28 0.930 . S
C32 C34 1.348 . S
C32 C35 1.356 . S
C32 O62 1.325 . S
N33 C36 1.314 . S
N33 C37 1.279 . S
C34 C32 1.348 . S
C34 C36 1.353 . S
C34 H76 0.929 . S
C35 C32 1.356 . S
C35 C37 1.358 . S
C35 H77 0.930 . S
C36 N33 1.314 . S
C36 C34 1.353 . S
C36 H78 0.930 . S
C37 N33 1.279 . S
C37 C35 1.358 . S
C37 H79 0.930 . S
C38 C39 1.348 . S
C38 C40 1.356 . S
C38 O63 1.325 . S
C39 C38 1.348 . S
C39 C41 1.353 . S
C39 H80 0.929 . S
C40 C38 1.356 . S
C40 C42 1.358 . S
C40 H81 0.930 . S
C41 C39 1.353 . S
C41 N43 1.314 . S
C41 H82 0.930 . S
C42 C40 1.358 . S
C42 N43 1.279 . S
C42 H83 0.930 . S
N43 C41 1.314 . S
N43 C42 1.279 . S
C44 C46 1.353 . S
C44 N47 1.314 . S
C44 H50 0.930 . S
C45 N47 1.279 . S
C45 C48 1.358 . S
C45 H51 0.930 . S
C46 C44 1.353 . S
C46 C49 1.348 . S
C46 H84 0.929 . S
N47 Li2 1.990 . S
N47 C44 1.314 . S
N47 C45 1.279 . S
C48 C45 1.358 . S
C48 C49 1.356 . S
C48 H85 0.930 . S
C49 C46 1.348 . S
C49 C48 1.356 . S
H50 C44 0.930 . S
H51 C45 0.930 . S
C52 N53 1.314 . S
C52 C54 1.353 . S
C52 H58 0.930 . S
N53 Li3 1.990 . S
N53 C52 1.314 . S
N53 C56 1.279 . S
C54 C52 1.353 . S
C54 C57 1.348 . S
C54 H86 0.929 . S
C55 C56 1.358 . S
C55 C57 1.356 . S
C55 H87 0.930 . S
C56 N53 1.279 . S
C56 C55 1.358 . S
C56 H59 0.930 . S
C57 C54 1.348 . S
C57 C55 1.356 . S
H58 C52 0.930 . S
H59 C56 0.930 . S
O60 Li0 1.956 . S
O60 Li1 1.970 . S
O60 Li2 1.961 . S
O60 C4 1.325 . S
O61 Li0 1.970 . S
O61 Li1 1.956 . S
O61 Li3 1.961 . S
O61 C10 1.325 . S
O62 Li0 1.961 . S
O62 Li2 1.956 . S
O62 Li3 1.970 . S
O62 C32 1.325 . S
O63 Li1 1.961 . S
O63 Li2 1.970 . S
O63 Li3 1.956 . S
O63 C38 1.325 . S
H64 C6 0.929 . S
H65 C7 0.930 . S
H66 C8 0.930 . S
H67 C9 0.930 . S
H68 C11 0.930 . S
H69 C13 0.929 . S
H70 C14 0.930 . S
H71 C15 0.930 . S
H72 C18 0.930 . S
H73 C21 0.929 . S
H74 C26 0.929 . S
H75 C27 0.930 . S
H76 C34 0.929 . S
H77 C35 0.930 . S
H78 C36 0.930 . S
H79 C37 0.930 . S
H80 C39 0.929 . S
H81 C40 0.930 . S
H82 C41 0.930 . S
H83 C42 0.930 . S
H84 C46 0.929 . S
H85 C48 0.930 . S
H86 C54 0.929 . S
H87 C55 0.930 . S
Li88 N105 1.990 . S
Li88 O148 1.956 . S
Li88 O149 1.970 . S
Li88 O150 1.961 . S
Li89 N113 1.990 . S
Li89 O148 1.970 . S
Li89 O149 1.956 . S
Li89 O151 1.961 . S
Li90 N135 1.990 . S
Li90 O148 1.961 . S
Li90 O150 1.956 . S
Li90 O151 1.970 . S
Li91 N141 1.990 . S
Li91 O149 1.961 . S
Li91 O150 1.970 . S
Li91 O151 1.956 . S
C92 C94 1.348 . S
C92 C95 1.356 . S
C92 O148 1.325 . S
N93 C96 1.314 1_455 S
N93 C97 1.279 1_455 S
C94 C92 1.348 . S
C94 C96 1.353 . S
C94 H152 0.929 . S
C95 C92 1.356 . S
C95 C97 1.358 . S
C95 H153 0.930 . S
C96 N93 1.314 1_655 S
C96 C94 1.353 . S
C96 H154 0.930 1_655 S
C97 N93 1.279 1_655 S
C97 C95 1.358 . S
C97 H155 0.907 1_565 S
C98 C101 1.348 . S
C98 C102 1.356 . S
C98 O149 1.325 . S
C99 N100 1.279 . S
C99 C102 1.358 . S
C99 H156 0.930 . S
N100 C99 1.279 . S
N100 C103 1.314 . S
C101 C98 1.348 . S
C101 C103 1.353 . S
C101 H157 0.929 . S
C102 C98 1.356 . S
C102 C99 1.358 . S
C102 H158 0.930 . S
C103 N100 1.314 . S
C103 C101 1.353 . S
C103 H159 0.930 . S
C104 N105 1.314 . S
C104 C109 1.353 . S
C104 H110 0.930 . S
N105 Li88 1.990 . S
N105 C104 1.314 . S
N105 C107 1.279 . S
C106 C107 1.358 . S
C106 C108 1.356 . S
C106 H160 0.930 . S
C107 N105 1.279 . S
C107 C106 1.358 . S
C107 H111 0.930 . S
C108 C106 1.356 . S
C108 C109 1.348 . S
C109 C104 1.353 . S
C109 C108 1.348 . S
C109 H161 0.929 . S
H110 C104 0.930 . S
H111 C107 0.930 . S
C112 N113 1.314 1_455 S
C112 C114 1.353 . S
C112 H118 0.930 . S
N113 Li89 1.990 . S
N113 C112 1.314 1_655 S
N113 C116 1.279 . S
C114 C112 1.353 . S
C114 C117 1.348 . S
C114 H162 0.929 . S
C115 C116 1.358 . S
C115 C117 1.356 1_655 S
C115 H163 0.930 . S
C116 N113 1.279 . S
C116 C115 1.358 . S
C116 H119 0.930 . S
C117 C114 1.348 . S
C117 C115 1.356 1_455 S
H118 C112 0.930 . S
H119 C116 0.930 . S
C120 C122 1.348 . S
C120 C123 1.356 1_565 S
C120 O150 1.325 . S
N121 C124 1.314 . S
N121 C125 1.279 . S
C122 C120 1.348 . S
C122 C124 1.353 1_565 S
C122 H164 0.929 . S
C123 C120 1.356 1_545 S
C123 C125 1.358 . S
C123 H165 0.930 . S
C124 N121 1.314 . S
C124 C122 1.353 1_545 S
C124 H166 0.930 . S
C125 N121 1.279 . S
C125 C123 1.358 . S
C125 H167 0.930 . S
C126 C127 1.348 . S
C126 C128 1.356 . S
C126 O151 1.325 . S
C127 C126 1.348 . S
C127 C129 1.353 1_655 S
C127 H168 0.929 . S
C128 C126 1.356 . S
C128 C130 1.358 . S
C128 H169 0.930 . S
C129 C127 1.353 1_455 S
C129 N131 1.314 . S
C129 H170 0.930 . S
C130 C128 1.358 . S
C130 N131 1.279 1_655 S
C130 H171 0.930 . S
N131 C129 1.314 . S
N131 C130 1.279 1_455 S
C132 C134 1.326 1_565 S
C132 N135 1.314 1_455 S
C132 H138 0.930 . S
C133 N135 1.279 1_545 S
C133 C136 1.358 1_655 S
C133 H139 0.930 . S
C134 C132 1.326 1_545 S
C134 C137 1.380 . S
C134 H172 0.926 1_545 S
N135 Li90 1.990 . S
N135 C132 1.314 1_655 S
N135 C133 1.279 1_565 S
C136 C133 1.358 1_455 S
C136 C137 1.356 . S
C136 H173 0.930 1_455 S
C137 C134 1.380 . S
C137 C136 1.356 . S
H138 C132 0.930 . S
H139 C133 0.930 . S
C140 N141 1.314 . S
C140 C142 1.353 . S
C140 H146 0.930 . S
N141 Li91 1.990 . S
N141 C140 1.314 . S
N141 C144 1.279 . S
C142 C140 1.353 . S
C142 C145 1.348 . S
C142 H174 0.929 . S
C143 C144 1.358 . S
C143 C145 1.356 . S
C143 H175 0.930 . S
C144 N141 1.279 . S
C144 C143 1.358 . S
C144 H147 0.930 . S
C145 C142 1.348 . S
C145 C143 1.356 . S
H146 C140 0.930 . S
H147 C144 0.930 . S
O148 Li88 1.956 . S
O148 Li89 1.970 . S
O148 Li90 1.961 . S
O148 C92 1.325 . S
O149 Li88 1.970 . S
O149 Li89 1.956 . S
O149 Li91 1.961 . S
O149 C98 1.325 . S
O150 Li88 1.961 . S
O150 Li90 1.956 . S
O150 Li91 1.970 . S
O150 C120 1.325 . S
O151 Li89 1.961 . S
O151 Li90 1.970 . S
O151 Li91 1.956 . S
O151 C126 1.325 . S
H152 C94 0.929 . S
H153 C95 0.930 . S
H154 C96 0.930 1_455 S
H155 C97 0.907 1_545 S
H156 C99 0.930 . S
H157 C101 0.929 . S
H158 C102 0.930 . S
H159 C103 0.930 . S
H160 C106 0.930 . S
H161 C109 0.929 . S
H162 C114 0.929 . S
H163 C115 0.930 . S
H164 C122 0.929 . S
H165 C123 0.930 . S
H166 C124 0.930 . S
H167 C125 0.930 . S
H168 C127 0.929 . S
H169 C128 0.930 . S
H170 C129 0.930 . S
H171 C130 0.930 . S
H172 C134 0.926 1_565 S
H173 C136 0.930 1_655 S
H174 C142 0.929 . S
H175 C143 0.930 . S
Li176 N193 1.990 . S
Li176 O236 1.956 . S
Li176 O237 1.970 . S
Li176 O238 1.961 . S
Li177 N201 1.990 . S
Li177 O236 1.970 . S
Li177 O237 1.956 . S
Li177 O239 1.961 . S
Li178 N223 1.990 . S
Li178 O236 1.961 . S
Li178 O238 1.956 . S
Li178 O239 1.970 . S
Li179 N229 1.990 . S
Li179 O237 1.961 . S
Li179 O238 1.970 . S
Li179 O239 1.956 . S
C180 C182 1.348 . S
C180 C183 1.356 . S
C180 O236 1.325 . S
N181 C184 1.314 . S
N181 C185 1.279 . S
C182 C180 1.348 . S
C182 C184 1.353 . S
C182 H240 0.929 . S
C183 C180 1.356 . S
C183 C185 1.358 . S
C183 H241 0.930 . S
C184 N181 1.314 . S
C184 C182 1.353 . S
C184 H242 0.930 . S
C185 N181 1.279 . S
C185 C183 1.358 . S
C185 H243 0.930 . S
C186 C189 1.348 . S
C186 C190 1.356 . S
C186 O237 1.325 . S
C187 N188 1.279 . S
C187 C190 1.358 . S
C187 H244 0.930 . S
N188 C187 1.279 . S
N188 C191 1.314 . S
C189 C186 1.348 . S
C189 C191 1.353 . S
C189 H245 0.929 . S
C190 C186 1.356 . S
C190 C187 1.358 . S
C190 H246 0.930 . S
C191 N188 1.314 . S
C191 C189 1.353 . S
C191 H247 0.930 . S
C192 N193 1.314 . S
C192 C197 1.353 . S
C192 H198 0.930 . S
N193 Li176 1.990 . S
N193 C192 1.314 . S
N193 C195 1.279 . S
C194 C195 1.358 . S
C194 C196 1.356 . S
C194 H248 0.930 . S
C195 N193 1.279 . S
C195 C194 1.358 . S
C195 H199 0.930 . S
C196 C194 1.356 . S
C196 C197 1.348 . S
C197 C192 1.353 . S
C197 C196 1.348 . S
C197 H249 0.929 . S
H198 C192 0.930 . S
H199 C195 0.930 . S
C200 N201 1.314 . S
C200 C202 1.353 . S
C200 H206 0.930 . S
N201 Li177 1.990 . S
N201 C200 1.314 . S
N201 C204 1.279 . S
C202 C200 1.353 . S
C202 C205 1.348 . S
C202 H250 0.929 . S
C203 C204 1.358 . S
C203 C205 1.356 . S
C203 H251 0.930 . S
C204 N201 1.279 . S
C204 C203 1.358 . S
C204 H207 0.930 . S
C205 C202 1.348 . S
C205 C203 1.356 . S
H206 C200 0.930 . S
H207 C204 0.930 . S
C208 C210 1.348 . S
C208 C211 1.356 . S
C208 O238 1.325 . S
N209 C212 1.314 . S
N209 C213 1.279 . S
C210 C208 1.348 . S
C210 C212 1.353 . S
C210 H252 0.929 . S
C211 C208 1.356 . S
C211 C213 1.358 . S
C211 H253 0.930 . S
C212 N209 1.314 . S
C212 C210 1.353 . S
C212 H254 0.930 . S
C213 N209 1.279 . S
C213 C211 1.358 . S
C213 H255 0.930 . S
C214 C215 1.348 . S
C214 C216 1.356 . S
C214 O239 1.325 . S
C215 C214 1.348 . S
C215 C217 1.353 . S
C215 H256 0.929 . S
C216 C214 1.356 . S
C216 C218 1.358 . S
C216 H257 0.930 . S
C217 C215 1.353 . S
C217 N219 1.314 . S
C217 H258 0.930 . S
C218 C216 1.358 . S
C218 N219 1.279 . S
C218 H259 0.930 . S
N219 C217 1.314 . S
N219 C218 1.279 . S
C220 C222 1.353 . S
C220 N223 1.314 . S
C220 H226 0.930 . S
C221 N223 1.279 . S
C221 C224 1.358 . S
C221 H227 0.930 . S
C222 C220 1.353 . S
C222 C225 1.348 . S
C222 H260 0.929 . S
N223 Li178 1.990 . S
N223 C220 1.314 . S
N223 C221 1.279 . S
C224 C221 1.358 . S
C224 C225 1.356 . S
C224 H261 0.930 . S
C225 C222 1.348 . S
C225 C224 1.356 . S
H226 C220 0.930 . S
H227 C221 0.930 . S
C228 N229 1.314 . S
C228 C230 1.353 . S
C228 H234 0.930 . S
N229 Li179 1.990 . S
N229 C228 1.314 . S
N229 C232 1.279 . S
C230 C228 1.353 . S
C230 C233 1.348 . S
C230 H262 0.929 . S
C231 C232 1.358 . S
C231 C233 1.356 . S
C231 H263 0.930 . S
C232 N229 1.279 . S
C232 C231 1.358 . S
C232 H235 0.930 . S
C233 C230 1.348 . S
C233 C231 1.356 . S
H234 C228 0.930 . S
H235 C232 0.930 . S
O236 Li176 1.956 . S
O236 Li177 1.970 . S
O236 Li178 1.961 . S
O236 C180 1.325 . S
O237 Li176 1.970 . S
O237 Li177 1.956 . S
O237 Li179 1.961 . S
O237 C186 1.325 . S
O238 Li176 1.961 . S
O238 Li178 1.956 . S
O238 Li179 1.970 . S
O238 C208 1.325 . S
O239 Li177 1.961 . S
O239 Li178 1.970 . S
O239 Li179 1.956 . S
O239 C214 1.325 . S
H240 C182 0.929 . S
H241 C183 0.930 . S
H242 C184 0.930 . S
H243 C185 0.930 . S
H244 C187 0.930 . S
H245 C189 0.929 . S
H246 C190 0.930 . S
H247 C191 0.930 . S
H248 C194 0.930 . S
H249 C197 0.929 . S
H250 C202 0.929 . S
H251 C203 0.930 . S
H252 C210 0.929 . S
H253 C211 0.930 . S
H254 C212 0.930 . S
H255 C213 0.930 . S
H256 C215 0.929 . S
H257 C216 0.930 . S
H258 C217 0.930 . S
H259 C218 0.930 . S
H260 C222 0.929 . S
H261 C224 0.930 . S
H262 C230 0.929 . S
H263 C231 0.930 . S
Li264 N281 1.990 . S
Li264 O324 1.956 . S
Li264 O325 1.970 . S
Li264 O326 1.961 . S
Li265 N289 1.990 . S
Li265 O324 1.970 . S
Li265 O325 1.956 . S
Li265 O327 1.961 . S
Li266 N311 1.990 . S
Li266 O324 1.961 . S
Li266 O326 1.956 . S
Li266 O327 1.970 . S
Li267 N317 1.990 . S
Li267 O325 1.961 . S
Li267 O326 1.970 . S
Li267 O327 1.956 . S
C268 C270 1.348 . S
C268 C271 1.356 . S
C268 O324 1.325 . S
N269 C272 1.314 . S
N269 C273 1.279 . S
C270 C268 1.348 . S
C270 C272 1.353 . S
C270 H328 0.929 . S
C271 C268 1.356 . S
C271 C273 1.358 . S
C271 H329 0.930 . S
C272 N269 1.314 . S
C272 C270 1.353 . S
C272 H330 0.930 . S
C273 N269 1.279 . S
C273 C271 1.358 . S
C273 H331 0.908 1_545 S
C274 C277 1.348 . S
C274 C278 1.356 . S
C274 O325 1.325 . S
C275 N276 1.279 . S
C275 C278 1.358 . S
C275 H332 0.930 . S
N276 C275 1.279 . S
N276 C279 1.314 . S
C277 C274 1.348 . S
C277 C279 1.353 . S
C277 H333 0.929 . S
C278 C274 1.356 . S
C278 C275 1.358 . S
C278 H334 0.930 . S
C279 N276 1.314 . S
C279 C277 1.353 . S
C279 H335 0.930 . S
C280 N281 1.314 . S
C280 C285 1.353 . S
C280 H286 0.930 . S
N281 Li264 1.990 . S
N281 C280 1.314 . S
N281 C283 1.279 . S
C282 C283 1.358 . S
C282 C284 1.356 . S
C282 H336 0.930 . S
C283 N281 1.279 . S
C283 C282 1.358 . S
C283 H287 0.930 . S
C284 C282 1.356 . S
C284 C285 1.348 . S
C285 C280 1.353 . S
C285 C284 1.348 . S
C285 H337 0.929 . S
H286 C280 0.930 . S
H287 C283 0.930 . S
C288 N289 1.314 . S
C288 C290 1.353 . S
C288 H294 0.930 . S
N289 Li265 1.990 . S
N289 C288 1.314 . S
N289 C292 1.279 . S
C290 C288 1.353 . S
C290 C293 1.348 . S
C290 H338 0.929 . S
C291 C292 1.358 . S
C291 C293 1.356 . S
C291 H339 0.930 . S
C292 N289 1.279 . S
C292 C291 1.358 . S
C292 H295 0.930 . S
C293 C290 1.348 . S
C293 C291 1.356 . S
H294 C288 0.930 . S
H295 C292 0.930 . S
C296 C298 1.348 . S
C296 C299 1.356 1_545 S
C296 O326 1.325 . S
N297 C300 1.314 . S
N297 C301 1.279 . S
C298 C296 1.348 . S
C298 C300 1.353 1_545 S
C298 H340 0.929 . S
C299 C296 1.356 1_565 S
C299 C301 1.358 . S
C299 H341 0.930 . S
C300 N297 1.314 . S
C300 C298 1.353 1_565 S
C300 H342 0.930 . S
C301 N297 1.279 . S
C301 C299 1.358 . S
C301 H343 0.930 . S
C302 C303 1.348 . S
C302 C304 1.356 . S
C302 O327 1.325 . S
C303 C302 1.348 . S
C303 C305 1.353 . S
C303 H344 0.929 . S
C304 C302 1.356 . S
C304 C306 1.358 . S
C304 H345 0.930 . S
C305 C303 1.353 . S
C305 N307 1.314 . S
C305 H346 0.930 . S
C306 C304 1.358 . S
C306 N307 1.279 . S
C306 H347 0.930 . S
N307 C305 1.314 . S
N307 C306 1.279 . S
C308 C310 1.327 1_545 S
C308 N311 1.314 . S
C308 H314 0.930 . S
C309 N311 1.279 1_565 S
C309 C312 1.358 . S
C309 H315 0.930 . S
C310 C308 1.327 1_565 S
C310 C313 1.379 . S
C310 H348 0.926 1_565 S
N311 Li266 1.990 . S
N311 C308 1.314 . S
N311 C309 1.279 1_545 S
C312 C309 1.358 . S
C312 C313 1.356 . S
C312 H349 0.930 . S
C313 C310 1.379 . S
C313 C312 1.356 . S
H314 C308 0.930 . S
H315 C309 0.930 . S
C316 N317 1.314 . S
C316 C318 1.353 . S
C316 H322 0.930 . S
N317 Li267 1.990 . S
N317 C316 1.314 . S
N317 C320 1.279 . S
C318 C316 1.353 . S
C318 C321 1.348 . S
C318 H350 0.929 . S
C319 C320 1.358 . S
C319 C321 1.356 . S
C319 H351 0.930 . S
C320 N317 1.279 . S
C320 C319 1.358 . S
C320 H323 0.930 . S
C321 C318 1.348 . S
C321 C319 1.356 . S
H322 C316 0.930 . S
H323 C320 0.930 . S
O324 Li264 1.956 . S
O324 Li265 1.970 . S
O324 Li266 1.961 . S
O324 C268 1.325 . S
O325 Li264 1.970 . S
O325 Li265 1.956 . S
O325 Li267 1.961 . S
O325 C274 1.325 . S
O326 Li264 1.961 . S
O326 Li266 1.956 . S
O326 Li267 1.970 . S
O326 C296 1.325 . S
O327 Li265 1.961 . S
O327 Li266 1.970 . S
O327 Li267 1.956 . S
O327 C302 1.325 . S
H328 C270 0.929 . S
H329 C271 0.930 . S
H330 C272 0.930 . S
H331 C273 0.908 1_565 S
H332 C275 0.930 . S
H333 C277 0.929 . S
H334 C278 0.930 . S
H335 C279 0.930 . S
H336 C282 0.930 . S
H337 C285 0.929 . S
H338 C290 0.929 . S
H339 C291 0.930 . S
H340 C298 0.929 . S
H341 C299 0.930 . S
H342 C300 0.930 . S
H343 C301 0.930 . S
H344 C303 0.929 . S
H345 C304 0.930 . S
H346 C305 0.930 . S
H347 C306 0.930 . S
H348 C310 0.926 1_545 S
H349 C312 0.930 . S
H350 C318 0.929 . S
H351 C319 0.930 . S
Li352 N369 1.990 . S
Li352 O412 1.956 . S
Li352 O413 1.970 . S
Li352 O414 1.961 . S
Li353 N377 1.990 . S
Li353 O412 1.970 . S
Li353 O413 1.956 . S
Li353 O415 1.961 . S
Li354 N399 1.990 . S
Li354 O412 1.961 . S
Li354 O414 1.956 . S
Li354 O415 1.970 . S
Li355 N405 1.990 . S
Li355 O413 1.961 . S
Li355 O414 1.970 . S
Li355 O415 1.956 . S
C356 C358 1.348 . S
C356 C359 1.356 . S
C356 O412 1.325 . S
N357 C360 1.314 . S
N357 C361 1.279 . S
C358 C356 1.348 . S
C358 C360 1.353 . S
C358 H416 0.929 . S
C359 C356 1.356 . S
C359 C361 1.358 . S
C359 H417 0.930 . S
C360 N357 1.314 . S
C360 C358 1.353 . S
C360 H418 0.930 . S
C361 N357 1.279 . S
C361 C359 1.358 . S
C361 H419 0.930 . S
C362 C365 1.348 . S
C362 C366 1.356 . S
C362 O413 1.325 . S
C363 N364 1.279 . S
C363 C366 1.358 . S
C363 H420 0.930 . S
N364 C363 1.279 . S
N364 C367 1.314 . S
C365 C362 1.348 . S
C365 C367 1.353 . S
C365 H421 0.929 . S
C366 C362 1.356 . S
C366 C363 1.358 . S
C366 H422 0.930 . S
C367 N364 1.314 . S
C367 C365 1.353 . S
C367 H423 0.930 . S
C368 N369 1.314 . S
C368 C373 1.353 . S
C368 H374 0.930 . S
N369 Li352 1.990 . S
N369 C368 1.314 . S
N369 C371 1.279 . S
C370 C371 1.358 . S
C370 C372 1.356 . S
C370 H424 0.930 . S
C371 N369 1.279 . S
C371 C370 1.358 . S
C371 H375 0.930 . S
C372 C370 1.356 . S
C372 C373 1.348 . S
C373 C368 1.353 . S
C373 C372 1.348 . S
C373 H425 0.929 . S
H374 C368 0.930 . S
H375 C371 0.930 . S
C376 N377 1.314 . S
C376 C378 1.353 . S
C376 H382 0.930 . S
N377 Li353 1.990 . S
N377 C376 1.314 . S
N377 C380 1.279 . S
C378 C376 1.353 . S
C378 C381 1.348 . S
C378 H426 0.929 . S
C379 C380 1.358 . S
C379 C381 1.356 . S
C379 H427 0.930 . S
C380 N377 1.279 . S
C380 C379 1.358 . S
C380 H383 0.930 . S
C381 C378 1.348 . S
C381 C379 1.356 . S
H382 C376 0.930 . S
H383 C380 0.930 . S
C384 C386 1.348 . S
C384 C387 1.356 . S
C384 O414 1.325 . S
N385 C388 1.314 . S
N385 C389 1.279 . S
C386 C384 1.348 . S
C386 C388 1.353 . S
C386 H428 0.929 . S
C387 C384 1.356 . S
C387 C389 1.358 . S
C387 H429 0.930 . S
C388 N385 1.314 . S
C388 C386 1.353 . S
C388 H430 0.930 . S
C389 N385 1.279 . S
C389 C387 1.358 . S
C389 H431 0.930 . S
C390 C391 1.348 . S
C390 C392 1.356 . S
C390 O415 1.325 . S
C391 C390 1.348 . S
C391 C393 1.353 . S
C391 H432 0.929 . S
C392 C390 1.356 . S
C392 C394 1.358 . S
C392 H433 0.930 . S
C393 C391 1.353 . S
C393 N395 1.314 . S
C393 H434 0.930 . S
C394 C392 1.358 . S
C394 N395 1.279 . S
C394 H435 0.930 . S
N395 C393 1.314 . S
N395 C394 1.279 . S
C396 C398 1.353 . S
C396 N399 1.314 . S
C396 H402 0.930 . S
C397 N399 1.279 . S
C397 C400 1.358 . S
C397 H403 0.930 . S
C398 C396 1.353 . S
C398 C401 1.348 . S
C398 H436 0.929 . S
N399 Li354 1.990 . S
N399 C396 1.314 . S
N399 C397 1.279 . S
C400 C397 1.358 . S
C400 C401 1.356 . S
C400 H437 0.930 . S
C401 C398 1.348 . S
C401 C400 1.356 . S
H402 C396 0.930 . S
H403 C397 0.930 . S
C404 N405 1.314 . S
C404 C406 1.353 . S
C404 H410 0.930 . S
N405 Li355 1.990 . S
N405 C404 1.314 . S
N405 C408 1.279 . S
C406 C404 1.353 . S
C406 C409 1.348 . S
C406 H438 0.929 . S
C407 C408 1.358 . S
C407 C409 1.356 . S
C407 H439 0.930 . S
C408 N405 1.279 . S
C408 C407 1.358 . S
C408 H411 0.930 . S
C409 C406 1.348 . S
C409 C407 1.356 . S
H410 C404 0.930 . S
H411 C408 0.930 . S
O412 Li352 1.956 . S
O412 Li353 1.970 . S
O412 Li354 1.961 . S
O412 C356 1.325 . S
O413 Li352 1.970 . S
O413 Li353 1.956 . S
O413 Li355 1.961 . S
O413 C362 1.325 . S
O414 Li352 1.961 . S
O414 Li354 1.956 . S
O414 Li355 1.970 . S
O414 C384 1.325 . S
O415 Li353 1.961 . S
O415 Li354 1.970 . S
O415 Li355 1.956 . S
O415 C390 1.325 . S
H416 C358 0.929 . S
H417 C359 0.930 . S
H418 C360 0.930 . S
H419 C361 0.930 . S
H420 C363 0.930 . S
H421 C365 0.929 . S
H422 C366 0.930 . S
H423 C367 0.930 . S
H424 C370 0.930 . S
H425 C373 0.929 . S
H426 C378 0.929 . S
H427 C379 0.930 . S
H428 C386 0.929 . S
H429 C387 0.930 . S
H430 C388 0.930 . S
H431 C389 0.930 . S
H432 C391 0.929 . S
H433 C392 0.930 . S
H434 C393 0.930 . S
H435 C394 0.930 . S
H436 C398 0.929 . S
H437 C400 0.930 . S
H438 C406 0.929 . S
H439 C407 0.930 . S
Li440 N457 1.990 . S
Li440 O500 1.956 . S
Li440 O501 1.970 . S
Li440 O502 1.961 . S
Li441 N465 1.990 . S
Li441 O500 1.970 . S
Li441 O501 1.956 . S
Li441 O503 1.961 . S
Li442 N487 1.990 . S
Li442 O500 1.961 . S
Li442 O502 1.956 . S
Li442 O503 1.970 . S
Li443 N493 1.990 . S
Li443 O501 1.961 . S
Li443 O502 1.970 . S
Li443 O503 1.956 . S
C444 C446 1.348 . S
C444 C447 1.356 . S
C444 O500 1.325 . S
N445 C448 1.314 . S
N445 C449 1.279 . S
C446 C444 1.348 . S
C446 C448 1.353 . S
C446 H504 0.929 . S
C447 C444 1.356 . S
C447 C449 1.358 . S
C447 H505 0.930 . S
C448 N445 1.314 . S
C448 C446 1.353 . S
C448 H506 0.930 . S
C449 N445 1.279 . S
C449 C447 1.358 . S
C449 H507 0.930 . S
C450 C453 1.348 . S
C450 C454 1.356 . S
C450 O501 1.325 . S
C451 N452 1.279 1_455 S
C451 C454 1.358 . S
C451 H508 0.930 . S
N452 C451 1.279 1_655 S
N452 C455 1.314 . S
C453 C450 1.348 . S
C453 C455 1.353 1_455 S
C453 H509 0.929 . S
C454 C450 1.356 . S
C454 C451 1.358 . S
C454 H510 0.930 . S
C455 N452 1.314 . S
C455 C453 1.353 1_655 S
C455 H511 0.930 . S
C456 N457 1.314 1_655 S
C456 C461 1.353 . S
C456 H462 0.930 . S
N457 Li440 1.990 . S
N457 C456 1.314 1_455 S
N457 C459 1.279 . S
C458 C459 1.358 1_655 S
C458 C460 1.356 . S
C458 H512 0.930 1_655 S
C459 N457 1.279 . S
C459 C458 1.358 1_455 S
C459 H463 0.930 . S
C460 C458 1.356 . S
C460 C461 1.348 . S
C461 C456 1.353 . S
C461 C460 1.348 . S
C461 H513 0.929 . S
H462 C456 0.930 . S
H463 C459 0.930 . S
C464 N465 1.314 . S
C464 C466 1.353 . S
C464 H470 0.930 . S
N465 Li441 1.990 . S
N465 C464 1.314 . S
N465 C468 1.279 . S
C466 C464 1.353 . S
C466 C469 1.348 . S
C466 H514 0.929 . S
C467 C468 1.358 . S
C467 C469 1.356 . S
C467 H515 0.930 . S
C468 N465 1.279 . S
C468 C467 1.358 . S
C468 H471 0.930 . S
C469 C466 1.348 . S
C469 C467 1.356 . S
H470 C464 0.930 . S
H471 C468 0.930 . S
C472 C474 1.348 . S
C472 C475 1.356 . S
C472 O502 1.325 . S
N473 C476 1.314 1_655 S
N473 C477 1.279 1_655 S
C474 C472 1.348 . S
C474 C476 1.353 . S
C474 H516 0.929 . S
C475 C472 1.356 . S
C475 C477 1.358 . S
C475 H517 0.930 . S
C476 N473 1.314 1_455 S
C476 C474 1.353 . S
C476 H518 0.930 1_455 S
C477 N473 1.279 1_455 S
C477 C475 1.358 . S
C477 H519 0.930 . S
C478 C479 1.348 . S
C478 C480 1.356 . S
C478 O503 1.325 . S
C479 C478 1.348 . S
C479 C481 1.353 . S
C479 H520 0.929 . S
C480 C478 1.356 . S
C480 C482 1.358 . S
C480 H521 0.930 . S
C481 C479 1.353 . S
C481 N483 1.314 . S
C481 H522 0.930 . S
C482 C480 1.358 . S
C482 N483 1.279 . S
C482 H523 0.930 . S
N483 C481 1.314 . S
N483 C482 1.279 . S
C484 C486 1.353 . S
C484 N487 1.314 . S
C484 H490 0.930 . S
C485 N487 1.279 . S
C485 C488 1.358 . S
C485 H491 0.930 . S
C486 C484 1.353 . S
C486 C489 1.348 . S
C486 H524 0.929 . S
N487 Li442 1.990 . S
N487 C484 1.314 . S
N487 C485 1.279 . S
C488 C485 1.358 . S
C488 C489 1.356 . S
C488 H525 0.930 . S
C489 C486 1.348 . S
C489 C488 1.356 . S
H490 C484 0.930 . S
H491 C485 0.930 . S
C492 N493 1.314 1_655 S
C492 C494 1.353 . S
C492 H498 0.930 . S
N493 Li443 1.990 . S
N493 C492 1.314 1_455 S
N493 C496 1.279 . S
C494 C492 1.353 . S
C494 C497 1.348 . S
C494 H526 0.929 . S
C495 C496 1.358 . S
C495 C497 1.356 1_455 S
C495 H527 0.930 . S
C496 N493 1.279 . S
C496 C495 1.358 . S
C496 H499 0.930 . S
C497 C494 1.348 . S
C497 C495 1.356 1_655 S
H498 C492 0.930 . S
H499 C496 0.930 . S
O500 Li440 1.956 . S
O500 Li441 1.970 . S
O500 Li442 1.961 . S
O500 C444 1.325 . S
O501 Li440 1.970 . S
O501 Li441 1.956 . S
O501 Li443 1.961 . S
O501 C450 1.325 . S
O502 Li440 1.961 . S
O502 Li442 1.956 . S
O502 Li443 1.970 . S
O502 C472 1.325 . S
O503 Li441 1.961 . S
O503 Li442 1.970 . S
O503 Li443 1.956 . S
O503 C478 1.325 . S
H504 C446 0.929 . S
H505 C447 0.930 . S
H506 C448 0.930 . S
H507 C449 0.930 . S
H508 C451 0.930 . S
H509 C453 0.929 . S
H510 C454 0.930 . S
H511 C455 0.930 . S
H512 C458 0.930 1_455 S
H513 C461 0.929 . S
H514 C466 0.929 . S
H515 C467 0.930 . S
H516 C474 0.929 . S
H517 C475 0.930 . S
H518 C476 0.930 1_655 S
H519 C477 0.930 . S
H520 C479 0.929 . S
H521 C480 0.930 . S
H522 C481 0.930 . S
H523 C482 0.930 . S
H524 C486 0.929 . S
H525 C488 0.930 . S
H526 C494 0.929 . S
H527 C495 0.930 . S
Li528 N545 1.990 . S
Li528 O588 1.956 . S
Li528 O589 1.970 . S
Li528 O590 1.961 . S
Li529 N553 1.990 . S
Li529 O588 1.970 . S
Li529 O589 1.956 . S
Li529 O591 1.961 . S
Li530 N575 1.990 . S
Li530 O588 1.961 . S
Li530 O590 1.956 . S
Li530 O591 1.970 . S
Li531 N581 1.990 . S
Li531 O589 1.961 . S
Li531 O590 1.970 . S
Li531 O591 1.956 . S
C532 C534 1.348 . S
C532 C535 1.356 . S
C532 O588 1.325 . S
N533 C536 1.314 . S
N533 C537 1.279 . S
C534 C532 1.348 . S
C534 C536 1.353 . S
C534 H592 0.929 . S
C535 C532 1.356 . S
C535 C537 1.358 . S
C535 H593 0.930 . S
C536 N533 1.314 . S
C536 C534 1.353 . S
C536 H594 0.930 . S
C537 N533 1.279 . S
C537 C535 1.358 . S
C537 H595 0.930 . S
C538 C541 1.348 . S
C538 C542 1.356 . S
C538 O589 1.325 . S
C539 N540 1.279 . S
C539 C542 1.358 . S
C539 H596 0.930 . S
N540 C539 1.279 . S
N540 C543 1.314 . S
C541 C538 1.348 . S
C541 C543 1.353 . S
C541 H597 0.929 . S
C542 C538 1.356 . S
C542 C539 1.358 . S
C542 H598 0.930 . S
C543 N540 1.314 . S
C543 C541 1.353 . S
C543 H599 0.930 . S
C544 N545 1.314 . S
C544 C549 1.353 . S
C544 H550 0.930 . S
N545 Li528 1.990 . S
N545 C544 1.314 . S
N545 C547 1.279 . S
C546 C547 1.358 . S
C546 C548 1.356 . S
C546 H600 0.930 . S
C547 N545 1.279 . S
C547 C546 1.358 . S
C547 H551 0.930 . S
C548 C546 1.356 . S
C548 C549 1.348 . S
C549 C544 1.353 . S
C549 C548 1.348 . S
C549 H601 0.929 . S
H550 C544 0.930 . S
H551 C547 0.930 . S
C552 N553 1.314 . S
C552 C554 1.353 . S
C552 H558 0.930 . S
N553 Li529 1.990 . S
N553 C552 1.314 . S
N553 C556 1.279 . S
C554 C552 1.353 . S
C554 C557 1.348 . S
C554 H602 0.929 . S
C555 C556 1.358 . S
C555 C557 1.356 . S
C555 H603 0.930 . S
C556 N553 1.279 . S
C556 C555 1.358 . S
C556 H559 0.930 . S
C557 C554 1.348 . S
C557 C555 1.356 . S
H558 C552 0.930 . S
H559 C556 0.930 . S
C560 C562 1.348 . S
C560 C563 1.356 . S
C560 O590 1.325 . S
N561 C564 1.314 . S
N561 C565 1.279 . S
C562 C560 1.348 . S
C562 C564 1.353 . S
C562 H604 0.929 . S
C563 C560 1.356 . S
C563 C565 1.358 . S
C563 H605 0.930 . S
C564 N561 1.314 . S
C564 C562 1.353 . S
C564 H606 0.930 . S
C565 N561 1.279 . S
C565 C563 1.358 . S
C565 H607 0.930 . S
C566 C567 1.348 . S
C566 C568 1.356 . S
C566 O591 1.325 . S
C567 C566 1.348 . S
C567 C569 1.353 . S
C567 H608 0.929 . S
C568 C566 1.356 . S
C568 C570 1.358 . S
C568 H609 0.930 . S
C569 C567 1.353 . S
C569 N571 1.314 . S
C569 H610 0.930 . S
C570 C568 1.358 . S
C570 N571 1.279 . S
C570 H611 0.930 . S
N571 C569 1.314 . S
N571 C570 1.279 . S
C572 C574 1.353 . S
C572 N575 1.314 . S
C572 H578 0.930 . S
C573 N575 1.279 . S
C573 C576 1.358 . S
C573 H579 0.930 . S
C574 C572 1.353 . S
C574 C577 1.348 . S
C574 H612 0.929 . S
N575 Li530 1.990 . S
N575 C572 1.314 . S
N575 C573 1.279 . S
C576 C573 1.358 . S
C576 C577 1.356 . S
C576 H613 0.930 . S
C577 C574 1.348 . S
C577 C576 1.356 . S
H578 C572 0.930 . S
H579 C573 0.930 . S
C580 N581 1.314 . S
C580 C582 1.353 . S
C580 H586 0.930 . S
N581 Li531 1.990 . S
N581 C580 1.314 . S
N581 C584 1.279 . S
C582 C580 1.353 . S
C582 C585 1.348 . S
C582 H614 0.929 . S
C583 C584 1.358 . S
C583 C585 1.356 . S
C583 H615 0.930 . S
C584 N581 1.279 . S
C584 C583 1.358 . S
C584 H587 0.930 . S
C585 C582 1.348 . S
C585 C583 1.356 . S
H586 C580 0.930 . S
H587 C584 0.930 . S
O588 Li528 1.956 . S
O588 Li529 1.970 . S
O588 Li530 1.961 . S
O588 C532 1.325 . S
O589 Li528 1.970 . S
O589 Li529 1.956 . S
O589 Li531 1.961 . S
O589 C538 1.325 . S
O590 Li528 1.961 . S
O590 Li530 1.956 . S
O590 Li531 1.970 . S
O590 C560 1.325 . S
O591 Li529 1.961 . S
O591 Li530 1.970 . S
O591 Li531 1.956 . S
O591 C566 1.325 . S
H592 C534 0.929 . S
H593 C535 0.930 . S
H594 C536 0.930 . S
H595 C537 0.930 . S
H596 C539 0.930 . S
H597 C541 0.929 . S
H598 C542 0.930 . S
H599 C543 0.930 . S
H600 C546 0.930 . S
H601 C549 0.929 . S
H602 C554 0.929 . S
H603 C555 0.930 . S
H604 C562 0.929 . S
H605 C563 0.930 . S
H606 C564 0.930 . S
H607 C565 0.930 . S
H608 C567 0.929 . S
H609 C568 0.930 . S
H610 C569 0.930 . S
H611 C570 0.930 . S
H612 C574 0.929 . S
H613 C576 0.930 . S
H614 C582 0.929 . S
H615 C583 0.930 . S
Li616 N633 1.990 . S
Li616 O676 1.956 . S
Li616 O677 1.970 . S
Li616 O678 1.961 . S
Li617 N641 1.990 . S
Li617 O676 1.970 . S
Li617 O677 1.956 . S
Li617 O679 1.961 . S
Li618 N663 1.990 . S
Li618 O676 1.961 . S
Li618 O678 1.956 . S
Li618 O679 1.970 . S
Li619 N669 1.990 . S
Li619 O677 1.961 . S
Li619 O678 1.970 . S
Li619 O679 1.956 . S
C620 C622 1.348 . S
C620 C623 1.356 . S
C620 O676 1.325 . S
N621 C624 1.314 . S
N621 C625 1.279 . S
C622 C620 1.348 . S
C622 C624 1.353 . S
C622 H680 0.929 . S
C623 C620 1.356 . S
C623 C625 1.358 . S
C623 H681 0.930 . S
C624 N621 1.314 . S
C624 C622 1.353 . S
C624 H682 0.930 . S
C625 N621 1.279 . S
C625 C623 1.358 . S
C625 H683 0.930 . S
C626 C629 1.348 . S
C626 C630 1.356 . S
C626 O677 1.325 . S
C627 N628 1.279 . S
C627 C630 1.358 . S
C627 H684 0.930 . S
N628 C627 1.279 . S
N628 C631 1.314 . S
C629 C626 1.348 . S
C629 C631 1.353 . S
C629 H685 0.929 . S
C630 C626 1.356 . S
C630 C627 1.358 . S
C630 H686 0.930 . S
C631 N628 1.314 . S
C631 C629 1.353 . S
C631 H687 0.930 . S
C632 N633 1.314 . S
C632 C637 1.353 . S
C632 H638 0.930 . S
N633 Li616 1.990 . S
N633 C632 1.314 . S
N633 C635 1.279 . S
C634 C635 1.358 . S
C634 C636 1.356 . S
C634 H688 0.930 . S
C635 N633 1.279 . S
C635 C634 1.358 . S
C635 H639 0.930 . S
C636 C634 1.356 . S
C636 C637 1.348 . S
C637 C632 1.353 . S
C637 C636 1.348 . S
C637 H689 0.929 . S
H638 C632 0.930 . S
H639 C635 0.930 . S
C640 N641 1.314 . S
C640 C642 1.353 . S
C640 H646 0.930 . S
N641 Li617 1.990 . S
N641 C640 1.314 . S
N641 C644 1.279 . S
C642 C640 1.353 . S
C642 C645 1.348 . S
C642 H690 0.929 . S
C643 C644 1.358 . S
C643 C645 1.356 . S
C643 H691 0.930 . S
C644 N641 1.279 . S
C644 C643 1.358 . S
C644 H647 0.930 . S
C645 C642 1.348 . S
C645 C643 1.356 . S
H646 C640 0.930 . S
H647 C644 0.930 . S
C648 C650 1.348 . S
C648 C651 1.356 . S
C648 O678 1.325 . S
N649 C652 1.314 . S
N649 C653 1.279 . S
C650 C648 1.348 . S
C650 C652 1.353 . S
C650 H692 0.929 . S
C651 C648 1.356 . S
C651 C653 1.358 . S
C651 H693 0.930 . S
C652 N649 1.314 . S
C652 C650 1.353 . S
C652 H694 0.930 . S
C653 N649 1.279 . S
C653 C651 1.358 . S
C653 H695 0.930 . S
C654 C655 1.348 . S
C654 C656 1.356 . S
C654 O679 1.325 . S
C655 C654 1.348 . S
C655 C657 1.353 . S
C655 H696 0.929 . S
C656 C654 1.356 . S
C656 C658 1.358 . S
C656 H697 0.930 . S
C657 C655 1.353 . S
C657 N659 1.314 . S
C657 H698 0.930 . S
C658 C656 1.358 . S
C658 N659 1.279 . S
C658 H699 0.930 . S
N659 C657 1.314 . S
N659 C658 1.279 . S
C660 C662 1.353 . S
C660 N663 1.314 . S
C660 H666 0.930 . S
C661 N663 1.279 . S
C661 C664 1.358 . S
C661 H667 0.930 . S
C662 C660 1.353 . S
C662 C665 1.348 . S
C662 H700 0.929 . S
N663 Li618 1.990 . S
N663 C660 1.314 . S
N663 C661 1.279 . S
C664 C661 1.358 . S
C664 C665 1.356 . S
C664 H701 0.930 . S
C665 C662 1.348 . S
C665 C664 1.356 . S
H666 C660 0.930 . S
H667 C661 0.930 . S
C668 N669 1.314 . S
C668 C670 1.353 . S
C668 H674 0.930 . S
N669 Li619 1.990 . S
N669 C668 1.314 . S
N669 C672 1.279 . S
C670 C668 1.353 . S
C670 C673 1.348 . S
C670 H702 0.929 . S
C671 C672 1.358 . S
C671 C673 1.356 . S
C671 H703 0.930 . S
C672 N669 1.279 . S
C672 C671 1.358 . S
C672 H675 0.930 . S
C673 C670 1.348 . S
C673 C671 1.356 . S
H674 C668 0.930 . S
H675 C672 0.930 . S
O676 Li616 1.956 . S
O676 Li617 1.970 . S
O676 Li618 1.961 . S
O676 C620 1.325 . S
O677 Li616 1.970 . S
O677 Li617 1.956 . S
O677 Li619 1.961 . S
O677 C626 1.325 . S
O678 Li616 1.961 . S
O678 Li618 1.956 . S
O678 Li619 1.970 . S
O678 C648 1.325 . S
O679 Li617 1.961 . S
O679 Li618 1.970 . S
O679 Li619 1.956 . S
O679 C654 1.325 . S
H680 C622 0.929 . S
H681 C623 0.930 . S
H682 C624 0.930 . S
H683 C625 0.930 . S
H684 C627 0.930 . S
H685 C629 0.929 . S
H686 C630 0.930 . S
H687 C631 0.930 . S
H688 C634 0.930 . S
H689 C637 0.929 . S
H690 C642 0.929 . S
H691 C643 0.930 . S
H692 C650 0.929 . S
H693 C651 0.930 . S
H694 C652 0.930 . S
H695 C653 0.930 . S
H696 C655 0.929 . S
H697 C656 0.930 . S
H698 C657 0.930 . S
H699 C658 0.930 . S
H700 C662 0.929 . S
H701 C664 0.930 . S
H702 C670 0.929 . S
H703 C671 0.930 . S
Li704 N721 1.990 . S
Li704 O764 1.956 . S
Li704 O765 1.970 . S
Li704 O766 1.961 . S
Li705 N729 1.990 . S
Li705 O764 1.970 . S
Li705 O765 1.956 . S
Li705 O767 1.961 . S
Li706 N751 1.990 . S
Li706 O764 1.961 . S
Li706 O766 1.956 . S
Li706 O767 1.970 . S
Li707 N757 1.990 . S
Li707 O765 1.961 . S
Li707 O766 1.970 . S
Li707 O767 1.956 . S
C708 C710 1.348 . S
C708 C711 1.356 . S
C708 O764 1.325 . S
N709 C712 1.314 . S
N709 C713 1.279 . S
C710 C708 1.348 . S
C710 C712 1.353 . S
C710 H768 0.929 . S
C711 C708 1.356 . S
C711 C713 1.358 . S
C711 H769 0.930 . S
C712 N709 1.314 . S
C712 C710 1.353 . S
C712 H770 0.930 . S
C713 N709 1.279 . S
C713 C711 1.358 . S
C713 H771 0.930 . S
C714 C717 1.348 . S
C714 C718 1.356 . S
C714 O765 1.325 . S
C715 N716 1.279 . S
C715 C718 1.358 . S
C715 H772 0.930 . S
N716 C715 1.279 . S
N716 C719 1.314 . S
C717 C714 1.348 . S
C717 C719 1.353 . S
C717 H773 0.929 . S
C718 C714 1.356 . S
C718 C715 1.358 . S
C718 H774 0.930 . S
C719 N716 1.314 . S
C719 C717 1.353 . S
C719 H775 0.930 . S
C720 N721 1.314 . S
C720 C725 1.353 . S
C720 H726 0.930 . S
N721 Li704 1.990 . S
N721 C720 1.314 . S
N721 C723 1.279 . S
C722 C723 1.358 . S
C722 C724 1.356 . S
C722 H776 0.930 . S
C723 N721 1.279 . S
C723 C722 1.358 . S
C723 H727 0.930 . S
C724 C722 1.356 . S
C724 C725 1.348 . S
C725 C720 1.353 . S
C725 C724 1.348 . S
C725 H777 0.929 . S
H726 C720 0.930 . S
H727 C723 0.930 . S
C728 N729 1.314 . S
C728 C730 1.353 . S
C728 H734 0.930 . S
N729 Li705 1.990 . S
N729 C728 1.314 . S
N729 C732 1.279 . S
C730 C728 1.353 . S
C730 C733 1.348 . S
C730 H778 0.929 . S
C731 C732 1.358 . S
C731 C733 1.356 . S
C731 H779 0.930 . S
C732 N729 1.279 . S
C732 C731 1.358 . S
C732 H735 0.930 . S
C733 C730 1.348 . S
C733 C731 1.356 . S
H734 C728 0.930 . S
H735 C732 0.930 . S
C736 C738 1.348 . S
C736 C739 1.356 . S
C736 O766 1.325 . S
N737 C740 1.314 . S
N737 C741 1.279 . S
C738 C736 1.348 . S
C738 C740 1.353 . S
C738 H780 0.929 . S
C739 C736 1.356 . S
C739 C741 1.358 . S
C739 H781 0.930 . S
C740 N737 1.314 . S
C740 C738 1.353 . S
C740 H782 0.930 . S
C741 N737 1.279 . S
C741 C739 1.358 . S
C741 H783 0.930 . S
C742 C743 1.348 . S
C742 C744 1.356 . S
C742 O767 1.325 . S
C743 C742 1.348 . S
C743 C745 1.353 . S
C743 H784 0.929 . S
C744 C742 1.356 . S
C744 C746 1.358 . S
C744 H785 0.930 . S
C745 C743 1.353 . S
C745 N747 1.314 . S
C745 H786 0.930 . S
C746 C744 1.358 . S
C746 N747 1.279 . S
C746 H787 0.930 . S
N747 C745 1.314 . S
N747 C746 1.279 . S
C748 C750 1.353 . S
C748 N751 1.314 . S
C748 H754 0.930 . S
C749 N751 1.279 . S
C749 C752 1.358 . S
C749 H755 0.930 . S
C750 C748 1.353 . S
C750 C753 1.348 . S
C750 H788 0.929 . S
N751 Li706 1.990 . S
N751 C748 1.314 . S
N751 C749 1.279 . S
C752 C749 1.358 . S
C752 C753 1.356 . S
C752 H789 0.930 . S
C753 C750 1.348 . S
C753 C752 1.356 . S
H754 C748 0.930 . S
H755 C749 0.930 . S
C756 N757 1.314 . S
C756 C758 1.353 . S
C756 H762 0.930 . S
N757 Li707 1.990 . S
N757 C756 1.314 . S
N757 C760 1.279 . S
C758 C756 1.353 . S
C758 C761 1.348 . S
C758 H790 0.929 . S
C759 C760 1.358 . S
C759 C761 1.356 . S
C759 H791 0.930 . S
C760 N757 1.279 . S
C760 C759 1.358 . S
C760 H763 0.930 . S
C761 C758 1.348 . S
C761 C759 1.356 . S
H762 C756 0.930 . S
H763 C760 0.930 . S
O764 Li704 1.956 . S
O764 Li705 1.970 . S
O764 Li706 1.961 . S
O764 C708 1.325 . S
O765 Li704 1.970 . S
O765 Li705 1.956 . S
O765 Li707 1.961 . S
O765 C714 1.325 . S
O766 Li704 1.961 . S
O766 Li706 1.956 . S
O766 Li707 1.970 . S
O766 C736 1.325 . S
O767 Li705 1.961 . S
O767 Li706 1.970 . S
O767 Li707 1.956 . S
O767 C742 1.325 . S
H768 C710 0.929 . S
H769 C711 0.930 . S
H770 C712 0.930 . S
H771 C713 0.930 . S
H772 C715 0.930 . S
H773 C717 0.929 . S
H774 C718 0.930 . S
H775 C719 0.930 . S
H776 C722 0.930 . S
H777 C725 0.929 . S
H778 C730 0.929 . S
H779 C731 0.930 . S
H780 C738 0.929 . S
H781 C739 0.930 . S
H782 C740 0.930 . S
H783 C741 0.930 . S
H784 C743 0.929 . S
H785 C744 0.930 . S
H786 C745 0.930 . S
H787 C746 0.930 . S
H788 C750 0.929 . S
H789 C752 0.930 . S
H790 C758 0.929 . S
H791 C759 0.930 . S
Li792 N809 1.990 . S
Li792 O852 1.956 . S
Li792 O853 1.970 . S
Li792 O854 1.961 . S
Li793 N817 1.990 . S
Li793 O852 1.970 . S
Li793 O853 1.956 . S
Li793 O855 1.961 . S
Li794 N839 1.990 . S
Li794 O852 1.961 . S
Li794 O854 1.956 . S
Li794 O855 1.970 . S
Li795 N845 1.990 . S
Li795 O853 1.961 . S
Li795 O854 1.970 . S
Li795 O855 1.956 . S
C796 C798 1.348 1_455 S
C796 C799 1.356 . S
C796 O852 1.325 . S
N797 C800 1.314 . S
N797 C801 1.279 . S
C798 C796 1.348 1_655 S
C798 C800 1.353 . S
C798 H856 0.929 . S
C799 C796 1.356 . S
C799 C801 1.358 1_455 S
C799 H857 0.930 . S
C800 N797 1.314 . S
C800 C798 1.353 . S
C800 H858 0.930 . S
C801 N797 1.279 . S
C801 C799 1.358 1_655 S
C801 H859 0.930 . S
C802 C805 1.348 . S
C802 C806 1.356 . S
C802 O853 1.325 . S
C803 N804 1.279 . S
C803 C806 1.358 . S
C803 H860 0.930 . S
N804 C803 1.279 . S
N804 C807 1.314 . S
C805 C802 1.348 . S
C805 C807 1.353 . S
C805 H861 0.929 . S
C806 C802 1.356 . S
C806 C803 1.358 . S
C806 H862 0.930 . S
C807 N804 1.314 . S
C807 C805 1.353 . S
C807 H863 0.930 . S
C808 N809 1.314 . S
C808 C813 1.353 . S
C808 H814 0.930 . S
N809 Li792 1.990 . S
N809 C808 1.314 . S
N809 C811 1.279 . S
C810 C811 1.358 . S
C810 C812 1.356 . S
C810 H864 0.930 1_455 S
C811 N809 1.279 . S
C811 C810 1.358 . S
C811 H815 0.930 . S
C812 C810 1.356 . S
C812 C813 1.348 . S
C813 C808 1.353 . S
C813 C812 1.348 . S
C813 H865 0.929 . S
H814 C808 0.930 . S
H815 C811 0.930 . S
C816 N817 1.314 . S
C816 C818 1.353 1_455 S
C816 H822 0.930 . S
N817 Li793 1.990 . S
N817 C816 1.314 . S
N817 C820 1.279 . S
C818 C816 1.353 1_655 S
C818 C821 1.348 . S
C818 H866 0.929 . S
C819 C820 1.358 1_655 S
C819 C821 1.356 . S
C819 H867 0.930 . S
C820 N817 1.279 . S
C820 C819 1.358 1_455 S
C820 H823 0.930 . S
C821 C818 1.348 . S
C821 C819 1.356 . S
H822 C816 0.930 . S
H823 C820 0.930 . S
C824 C826 1.348 . S
C824 C827 1.356 . S
C824 O854 1.325 . S
N825 C828 1.314 . S
N825 C829 1.279 . S
C826 C824 1.348 . S
C826 C828 1.353 . S
C826 H868 0.929 . S
C827 C824 1.356 . S
C827 C829 1.358 . S
C827 H869 0.930 . S
C828 N825 1.314 . S
C828 C826 1.353 . S
C828 H870 0.930 . S
C829 N825 1.279 . S
C829 C827 1.358 . S
C829 H871 0.930 . S
C830 C831 1.348 . S
C830 C832 1.356 . S
C830 O855 1.325 . S
C831 C830 1.348 . S
C831 C833 1.353 . S
C831 H872 0.929 . S
C832 C830 1.356 . S
C832 C834 1.358 . S
C832 H873 0.930 . S
C833 C831 1.353 . S
C833 N835 1.314 . S
C833 H874 0.930 . S
C834 C832 1.358 . S
C834 N835 1.279 . S
C834 H875 0.930 . S
N835 C833 1.314 . S
N835 C834 1.279 . S
C836 C838 1.353 . S
C836 N839 1.314 . S
C836 H842 0.930 . S
C837 N839 1.279 . S
C837 C840 1.358 . S
C837 H843 0.930 . S
C838 C836 1.353 . S
C838 C841 1.348 . S
C838 H876 0.929 . S
N839 Li794 1.990 . S
N839 C836 1.314 . S
N839 C837 1.279 . S
C840 C837 1.358 . S
C840 C841 1.356 . S
C840 H877 0.930 . S
C841 C838 1.348 . S
C841 C840 1.356 . S
H842 C836 0.930 . S
H843 C837 0.930 . S
C844 N845 1.314 . S
C844 C846 1.353 . S
C844 H850 0.930 . S
N845 Li795 1.990 . S
N845 C844 1.314 . S
N845 C848 1.279 . S
C846 C844 1.353 . S
C846 C849 1.348 . S
C846 H878 0.929 . S
C847 C848 1.358 . S
C847 C849 1.356 . S
C847 H879 0.930 . S
C848 N845 1.279 . S
C848 C847 1.358 . S
C848 H851 0.930 . S
C849 C846 1.348 . S
C849 C847 1.356 . S
H850 C844 0.930 . S
H851 C848 0.930 . S
O852 Li792 1.956 . S
O852 Li793 1.970 . S
O852 Li794 1.961 . S
O852 C796 1.325 . S
O853 Li792 1.970 . S
O853 Li793 1.956 . S
O853 Li795 1.961 . S
O853 C802 1.325 . S
O854 Li792 1.961 . S
O854 Li794 1.956 . S
O854 Li795 1.970 . S
O854 C824 1.325 . S
O855 Li793 1.961 . S
O855 Li794 1.970 . S
O855 Li795 1.956 . S
O855 C830 1.325 . S
H856 C798 0.929 . S
H857 C799 0.930 . S
H858 C800 0.930 . S
H859 C801 0.930 . S
H860 C803 0.930 . S
H861 C805 0.929 . S
H862 C806 0.930 . S
H863 C807 0.930 . S
H864 C810 0.930 1_655 S
H865 C813 0.929 . S
H866 C818 0.929 . S
H867 C819 0.930 . S
H868 C826 0.929 . S
H869 C827 0.930 . S
H870 C828 0.930 . S
H871 C829 0.930 . S
H872 C831 0.929 . S
H873 C832 0.930 . S
H874 C833 0.930 . S
H875 C834 0.930 . S
H876 C838 0.929 . S
H877 C840 0.930 . S
H878 C846 0.929 . S
H879 C847 0.930 . S
Li880 N897 1.990 . S
Li880 O940 1.956 . S
Li880 O941 1.970 . S
Li880 O942 1.961 . S
Li881 N905 1.990 . S
Li881 O940 1.970 . S
Li881 O941 1.956 . S
Li881 O943 1.961 . S
Li882 N927 1.990 . S
Li882 O940 1.961 . S
Li882 O942 1.956 . S
Li882 O943 1.970 . S
Li883 N933 1.990 . S
Li883 O941 1.961 . S
Li883 O942 1.970 . S
Li883 O943 1.956 . S
C884 C886 1.348 . S
C884 C887 1.356 . S
C884 O940 1.325 . S
N885 C888 1.314 . S
N885 C889 1.279 . S
C886 C884 1.348 . S
C886 C888 1.353 . S
C886 H944 0.929 . S
C887 C884 1.356 . S
C887 C889 1.358 . S
C887 H945 0.930 . S
C888 N885 1.314 . S
C888 C886 1.353 . S
C888 H946 0.930 . S
C889 N885 1.279 . S
C889 C887 1.358 . S
C889 H947 0.930 . S
C890 C893 1.348 . S
C890 C894 1.356 . S
C890 O941 1.325 . S
C891 N892 1.279 . S
C891 C894 1.358 . S
C891 H948 0.930 . S
N892 C891 1.279 . S
N892 C895 1.314 . S
C893 C890 1.348 . S
C893 C895 1.353 . S
C893 H949 0.929 . S
C894 C890 1.356 . S
C894 C891 1.358 . S
C894 H950 0.930 . S
C895 N892 1.314 . S
C895 C893 1.353 . S
C895 H951 0.930 . S
C896 N897 1.314 . S
C896 C901 1.353 . S
C896 H902 0.930 . S
N897 Li880 1.990 . S
N897 C896 1.314 . S
N897 C899 1.279 . S
C898 C899 1.358 . S
C898 C900 1.356 . S
C898 H952 0.930 . S
C899 N897 1.279 . S
C899 C898 1.358 . S
C899 H903 0.930 . S
C900 C898 1.356 . S
C900 C901 1.348 . S
C901 C896 1.353 . S
C901 C900 1.348 . S
C901 H953 0.929 . S
H902 C896 0.930 . S
H903 C899 0.930 . S
C904 N905 1.314 . S
C904 C906 1.353 . S
C904 H910 0.930 . S
N905 Li881 1.990 . S
N905 C904 1.314 . S
N905 C908 1.279 . S
C906 C904 1.353 . S
C906 C909 1.348 . S
C906 H954 0.929 . S
C907 C908 1.358 . S
C907 C909 1.356 . S
C907 H955 0.930 . S
C908 N905 1.279 . S
C908 C907 1.358 . S
C908 H911 0.930 . S
C909 C906 1.348 . S
C909 C907 1.356 . S
H910 C904 0.930 . S
H911 C908 0.930 . S
C912 C914 1.348 . S
C912 C915 1.356 . S
C912 O942 1.325 . S
N913 C916 1.314 . S
N913 C917 1.279 . S
C914 C912 1.348 . S
C914 C916 1.353 . S
C914 H956 0.929 . S
C915 C912 1.356 . S
C915 C917 1.358 . S
C915 H957 0.930 . S
C916 N913 1.314 . S
C916 C914 1.353 . S
C916 H958 0.930 . S
C917 N913 1.279 . S
C917 C915 1.358 . S
C917 H959 0.930 . S
C918 C919 1.348 . S
C918 C920 1.356 . S
C918 O943 1.325 . S
C919 C918 1.348 . S
C919 C921 1.353 . S
C919 H960 0.929 . S
C920 C918 1.356 . S
C920 C922 1.358 . S
C920 H961 0.930 . S
C921 C919 1.353 . S
C921 N923 1.314 . S
C921 H962 0.930 . S
C922 C920 1.358 . S
C922 N923 1.279 . S
C922 H963 0.930 . S
N923 C921 1.314 . S
N923 C922 1.279 . S
C924 C926 1.353 . S
C924 N927 1.314 . S
C924 H930 0.930 . S
C925 N927 1.279 . S
C925 C928 1.358 . S
C925 H931 0.930 . S
C926 C924 1.353 . S
C926 C929 1.348 . S
C926 H964 0.929 . S
N927 Li882 1.990 . S
N927 C924 1.314 . S
N927 C925 1.279 . S
C928 C925 1.358 . S
C928 C929 1.356 . S
C928 H965 0.930 . S
C929 C926 1.348 . S
C929 C928 1.356 . S
H930 C924 0.930 . S
H931 C925 0.930 . S
C932 N933 1.314 . S
C932 C934 1.353 . S
C932 H938 0.930 . S
N933 Li883 1.990 . S
N933 C932 1.314 . S
N933 C936 1.279 . S
C934 C932 1.353 . S
C934 C937 1.348 . S
C934 H966 0.929 . S
C935 C936 1.358 . S
C935 C937 1.356 . S
C935 H967 0.930 . S
C936 N933 1.279 . S
C936 C935 1.358 . S
C936 H939 0.930 . S
C937 C934 1.348 . S
C937 C935 1.356 . S
H938 C932 0.930 . S
H939 C936 0.930 . S
O940 Li880 1.956 . S
O940 Li881 1.970 . S
O940 Li882 1.961 . S
O940 C884 1.325 . S
O941 Li880 1.970 . S
O941 Li881 1.956 . S
O941 Li883 1.961 . S
O941 C890 1.325 . S
O942 Li880 1.961 . S
O942 Li882 1.956 . S
O942 Li883 1.970 . S
O942 C912 1.325 . S
O943 Li881 1.961 . S
O943 Li882 1.970 . S
O943 Li883 1.956 . S
O943 C918 1.325 . S
H944 C886 0.929 . S
H945 C887 0.930 . S
H946 C888 0.930 . S
H947 C889 0.930 . S
H948 C891 0.930 . S
H949 C893 0.929 . S
H950 C894 0.930 . S
H951 C895 0.930 . S
H952 C898 0.930 . S
H953 C901 0.929 . S
H954 C906 0.929 . S
H955 C907 0.930 . S
H956 C914 0.929 . S
H957 C915 0.930 . S
H958 C916 0.930 . S
H959 C917 0.930 . S
H960 C919 0.929 . S
H961 C920 0.930 . S
H962 C921 0.930 . S
H963 C922 0.930 . S
H964 C926 0.929 . S
H965 C928 0.930 . S
H966 C934 0.929 . S
H967 C935 0.930 . S
Li968 N985 1.990 . S
Li968 O1028 1.956 . S
Li968 O1029 1.970 . S
Li968 O1030 1.961 . S
Li969 N993 1.990 . S
Li969 O1028 1.970 . S
Li969 O1029 1.956 . S
Li969 O1031 1.961 . S
Li970 N1015 2.002 . S
Li970 O1028 1.961 . S
Li970 O1030 1.956 . S
Li970 O1031 1.970 . S
Li971 N1021 1.990 . S
Li971 O1029 1.961 . S
Li971 O1030 1.970 . S
Li971 O1031 1.956 . S
C972 C974 1.348 . S
C972 C975 1.356 1_554 S
C972 O1028 1.325 . S
N973 C976 1.314 1_556 S
N973 C977 1.279 . S
C974 C972 1.348 . S
C974 C976 1.353 . S
C974 H1032 0.929 . S
C975 C972 1.356 1_556 S
C975 C977 1.358 . S
C975 H1033 0.930 . S
C976 N973 1.314 1_554 S
C976 C974 1.353 . S
C976 H1034 0.930 . S
C977 N973 1.279 . S
C977 C975 1.358 . S
C977 H1035 0.930 . S
C978 C981 1.348 . S
C978 C982 1.356 . S
C978 O1029 1.325 . S
C979 N980 1.279 . S
C979 C982 1.358 . S
C979 H1036 0.930 . S
N980 C979 1.279 . S
N980 C983 1.314 . S
C981 C978 1.348 . S
C981 C983 1.353 . S
C981 H1037 0.929 . S
C982 C978 1.356 . S
C982 C979 1.358 . S
C982 H1038 0.930 . S
C983 N980 1.314 . S
C983 C981 1.353 . S
C983 H1039 0.930 . S
C984 N985 1.314 . S
C984 C989 1.353 . S
C984 H990 0.930 . S
N985 Li968 1.990 . S
N985 C984 1.314 . S
N985 C987 1.279 . S
C986 C987 1.358 1_556 S
C986 C988 1.356 . S
C986 H1040 0.930 . S
C987 N985 1.279 . S
C987 C986 1.358 1_554 S
C987 H991 0.930 . S
C988 C986 1.356 . S
C988 C989 1.348 1_556 S
C989 C984 1.353 . S
C989 C988 1.348 1_554 S
C989 H1041 0.929 . S
H990 C984 0.930 . S
H991 C987 0.930 . S
C992 N993 1.314 . S
C992 C994 1.353 . S
C992 H998 0.930 . S
N993 Li969 1.990 . S
N993 C992 1.314 . S
N993 C996 1.279 . S
C994 C992 1.353 . S
C994 C997 1.348 . S
C994 H1042 0.929 . S
C995 C996 1.358 . S
C995 C997 1.356 . S
C995 H1043 0.930 . S
C996 N993 1.279 . S
C996 C995 1.358 . S
C996 H999 0.930 . S
C997 C994 1.348 . S
C997 C995 1.356 . S
H998 C992 0.930 . S
H999 C996 0.930 . S
C1000 C1002 1.348 . S
C1000 C1003 1.356 1_554 S
C1000 O1030 1.325 . S
N1001 C1004 1.314 1_556 S
N1001 C1005 1.279 . S
C1002 C1000 1.348 . S
C1002 C1004 1.353 . S
C1002 H1044 0.929 . S
C1003 C1000 1.356 1_556 S
C1003 C1005 1.358 . S
C1003 H1045 0.930 . S
C1004 N1001 1.314 1_554 S
C1004 C1002 1.353 . S
C1004 H1046 0.930 . S
C1005 N1001 1.279 . S
C1005 C1003 1.358 . S
C1005 H1047 0.930 . S
C1006 C1007 1.348 . S
C1006 C1008 1.356 . S
C1006 O1031 1.325 . S
C1007 C1006 1.348 . S
C1007 C1009 1.353 . S
C1007 H1048 0.929 . S
C1008 C1006 1.356 . S
C1008 C1010 1.358 . S
C1008 H1049 0.930 . S
C1009 C1007 1.353 . S
C1009 N1011 1.314 . S
C1009 H1050 0.930 . S
C1010 C1008 1.358 . S
C1010 N1011 1.279 . S
C1010 H1051 0.930 . S
N1011 C1009 1.314 . S
N1011 C1010 1.279 . S
C1012 C1014 1.353 . S
C1012 N1015 1.310 1_556 S
C1012 H1018 0.930 1_556 S
C1013 N1015 1.271 1_556 S
C1013 C1016 1.358 . S
C1013 H1019 0.930 . S
C1014 C1012 1.353 . S
C1014 C1017 1.348 . S
C1014 H1052 0.929 . S
N1015 Li970 2.002 . S
N1015 C1012 1.310 1_554 S
N1015 C1013 1.271 1_554 S
C1016 C1013 1.358 . S
C1016 C1017 1.356 . S
C1016 H1053 0.930 . S
C1017 C1014 1.348 . S
C1017 C1016 1.356 . S
H1018 C1012 0.930 1_554 S
H1019 C1013 0.930 . S
C1020 N1021 1.314 . S
C1020 C1022 1.353 . S
C1020 H1026 0.930 . S
N1021 Li971 1.990 . S
N1021 C1020 1.314 . S
N1021 C1024 1.279 . S
C1022 C1020 1.353 . S
C1022 C1025 1.348 . S
C1022 H1054 0.929 . S
C1023 C1024 1.358 . S
C1023 C1025 1.356 . S
C1023 H1055 0.930 . S
C1024 N1021 1.279 . S
C1024 C1023 1.358 . S
C1024 H1027 0.930 . S
C1025 C1022 1.348 . S
C1025 C1023 1.356 . S
H1026 C1020 0.930 . S
H1027 C1024 0.930 . S
O1028 Li968 1.956 . S
O1028 Li969 1.970 . S
O1028 Li970 1.961 . S
O1028 C972 1.325 . S
O1029 Li968 1.970 . S
O1029 Li969 1.956 . S
O1029 Li971 1.961 . S
O1029 C978 1.325 . S
O1030 Li968 1.961 . S
O1030 Li970 1.956 . S
O1030 Li971 1.970 . S
O1030 C1000 1.325 . S
O1031 Li969 1.961 . S
O1031 Li970 1.970 . S
O1031 Li971 1.956 . S
O1031 C1006 1.325 . S
H1032 C974 0.929 . S
H1033 C975 0.930 . S
H1034 C976 0.930 . S
H1035 C977 0.930 . S
H1036 C979 0.930 . S
H1037 C981 0.929 . S
H1038 C982 0.930 . S
H1039 C983 0.930 . S
H1040 C986 0.930 . S
H1041 C989 0.929 . S
H1042 C994 0.929 . S
H1043 C995 0.930 . S
H1044 C1002 0.929 . S
H1045 C1003 0.930 . S
H1046 C1004 0.930 . S
H1047 C1005 0.930 . S
H1048 C1007 0.929 . S
H1049 C1008 0.930 . S
H1050 C1009 0.930 . S
H1051 C1010 0.930 . S
H1052 C1014 0.929 . S
H1053 C1016 0.930 . S
H1054 C1022 0.929 . S
H1055 C1023 0.930 . S
Li1056 N1073 1.990 . S
Li1056 O1116 1.956 . S
Li1056 O1117 1.970 . S
Li1056 O1118 1.961 . S
Li1057 N1081 1.990 . S
Li1057 O1116 1.970 . S
Li1057 O1117 1.956 . S
Li1057 O1119 1.961 . S
Li1058 N1103 1.990 . S
Li1058 O1116 1.961 . S
Li1058 O1118 1.956 . S
Li1058 O1119 1.970 . S
Li1059 N1109 1.990 . S
Li1059 O1117 1.961 . S
Li1059 O1118 1.970 . S
Li1059 O1119 1.956 . S
C1060 C1062 1.348 . S
C1060 C1063 1.356 . S
C1060 O1116 1.325 . S
N1061 C1064 1.314 . S
N1061 C1065 1.279 . S
C1062 C1060 1.348 . S
C1062 C1064 1.353 . S
C1062 H1120 0.929 . S
C1063 C1060 1.356 . S
C1063 C1065 1.358 . S
C1063 H1121 0.930 . S
C1064 N1061 1.314 . S
C1064 C1062 1.353 . S
C1064 H1122 0.930 . S
C1065 N1061 1.279 . S
C1065 C1063 1.358 . S
C1065 H1123 0.930 . S
C1066 C1069 1.348 . S
C1066 C1070 1.356 . S
C1066 O1117 1.325 . S
C1067 N1068 1.279 . S
C1067 C1070 1.358 . S
C1067 H1124 0.930 . S
N1068 C1067 1.279 . S
N1068 C1071 1.314 . S
C1069 C1066 1.348 . S
C1069 C1071 1.353 . S
C1069 H1125 0.929 . S
C1070 C1066 1.356 . S
C1070 C1067 1.358 . S
C1070 H1126 0.930 . S
C1071 N1068 1.314 . S
C1071 C1069 1.353 . S
C1071 H1127 0.930 . S
C1072 N1073 1.314 . S
C1072 C1077 1.353 . S
C1072 H1078 0.930 . S
N1073 Li1056 1.990 . S
N1073 C1072 1.314 . S
N1073 C1075 1.279 . S
C1074 C1075 1.358 . S
C1074 C1076 1.356 . S
C1074 H1128 0.930 . S
C1075 N1073 1.279 . S
C1075 C1074 1.358 . S
C1075 H1079 0.930 . S
C1076 C1074 1.356 . S
C1076 C1077 1.348 . S
C1077 C1072 1.353 . S
C1077 C1076 1.348 . S
C1077 H1129 0.929 . S
H1078 C1072 0.930 . S
H1079 C1075 0.930 . S
C1080 N1081 1.314 . S
C1080 C1082 1.353 . S
C1080 H1086 0.930 . S
N1081 Li1057 1.990 . S
N1081 C1080 1.314 . S
N1081 C1084 1.279 . S
C1082 C1080 1.353 . S
C1082 C1085 1.348 . S
C1082 H1130 0.929 . S
C1083 C1084 1.358 . S
C1083 C1085 1.356 . S
C1083 H1131 0.930 . S
C1084 N1081 1.279 . S
C1084 C1083 1.358 . S
C1084 H1087 0.930 . S
C1085 C1082 1.348 . S
C1085 C1083 1.356 . S
H1086 C1080 0.930 . S
H1087 C1084 0.930 . S
C1088 C1090 1.348 . S
C1088 C1091 1.356 . S
C1088 O1118 1.325 . S
N1089 C1092 1.314 . S
N1089 C1093 1.279 . S
C1090 C1088 1.348 . S
C1090 C1092 1.353 . S
C1090 H1132 0.929 . S
C1091 C1088 1.356 . S
C1091 C1093 1.358 . S
C1091 H1133 0.930 . S
C1092 N1089 1.314 . S
C1092 C1090 1.353 . S
C1092 H1134 0.930 . S
C1093 N1089 1.279 . S
C1093 C1091 1.358 . S
C1093 H1135 0.930 . S
C1094 C1095 1.348 . S
C1094 C1096 1.356 . S
C1094 O1119 1.325 . S
C1095 C1094 1.348 . S
C1095 C1097 1.353 . S
C1095 H1136 0.929 . S
C1096 C1094 1.356 . S
C1096 C1098 1.358 . S
C1096 H1137 0.930 . S
C1097 C1095 1.353 . S
C1097 N1099 1.314 . S
C1097 H1138 0.930 . S
C1098 C1096 1.358 . S
C1098 N1099 1.279 . S
C1098 H1139 0.930 . S
N1099 C1097 1.314 . S
N1099 C1098 1.279 . S
C1100 C1102 1.353 . S
C1100 N1103 1.314 . S
C1100 H1106 0.930 . S
C1101 N1103 1.279 . S
C1101 C1104 1.358 . S
C1101 H1107 0.930 . S
C1102 C1100 1.353 . S
C1102 C1105 1.348 . S
C1102 H1140 0.929 . S
N1103 Li1058 1.990 . S
N1103 C1100 1.314 . S
N1103 C1101 1.279 . S
C1104 C1101 1.358 . S
C1104 C1105 1.356 . S
C1104 H1141 0.930 . S
C1105 C1102 1.348 . S
C1105 C1104 1.356 . S
H1106 C1100 0.930 . S
H1107 C1101 0.930 . S
C1108 N1109 1.314 . S
C1108 C1110 1.353 . S
C1108 H1114 0.930 . S
N1109 Li1059 1.990 . S
N1109 C1108 1.314 . S
N1109 C1112 1.279 . S
C1110 C1108 1.353 . S
C1110 C1113 1.348 . S
C1110 H1142 0.929 . S
C1111 C1112 1.358 . S
C1111 C1113 1.356 . S
C1111 H1143 0.930 . S
C1112 N1109 1.279 . S
C1112 C1111 1.358 . S
C1112 H1115 0.930 . S
C1113 C1110 1.348 . S
C1113 C1111 1.356 . S
H1114 C1108 0.930 . S
H1115 C1112 0.930 . S
O1116 Li1056 1.956 . S
O1116 Li1057 1.970 . S
O1116 Li1058 1.961 . S
O1116 C1060 1.325 . S
O1117 Li1056 1.970 . S
O1117 Li1057 1.956 . S
O1117 Li1059 1.961 . S
O1117 C1066 1.325 . S
O1118 Li1056 1.961 . S
O1118 Li1058 1.956 . S
O1118 Li1059 1.970 . S
O1118 C1088 1.325 . S
O1119 Li1057 1.961 . S
O1119 Li1058 1.970 . S
O1119 Li1059 1.956 . S
O1119 C1094 1.325 . S
H1120 C1062 0.929 . S
H1121 C1063 0.930 . S
H1122 C1064 0.930 . S
H1123 C1065 0.930 . S
H1124 C1067 0.930 . S
H1125 C1069 0.929 . S
H1126 C1070 0.930 . S
H1127 C1071 0.930 . S
H1128 C1074 0.930 . S
H1129 C1077 0.929 . S
H1130 C1082 0.929 . S
H1131 C1083 0.930 . S
H1132 C1090 0.929 . S
H1133 C1091 0.930 . S
H1134 C1092 0.930 . S
H1135 C1093 0.930 . S
H1136 C1095 0.929 . S
H1137 C1096 0.930 . S
H1138 C1097 0.930 . S
H1139 C1098 0.930 . S
H1140 C1102 0.929 . S
H1141 C1104 0.930 . S
H1142 C1110 0.929 . S
H1143 C1111 0.930 . S
Li1144 N1161 2.002 . S
Li1144 O1204 1.956 . S
Li1144 O1205 1.970 . S
Li1144 O1206 1.961 . S
Li1145 N1169 1.990 . S
Li1145 O1204 1.970 . S
Li1145 O1205 1.956 . S
Li1145 O1207 1.961 . S
Li1146 N1191 1.990 . S
Li1146 O1204 1.961 . S
Li1146 O1206 1.956 . S
Li1146 O1207 1.970 . S
Li1147 N1197 1.990 . S
Li1147 O1205 1.961 . S
Li1147 O1206 1.970 . S
Li1147 O1207 1.956 . S
C1148 C1150 1.348 . S
C1148 C1151 1.356 1_556 S
C1148 O1204 1.325 . S
N1149 C1152 1.314 1_554 S
N1149 C1153 1.279 . S
C1150 C1148 1.348 . S
C1150 C1152 1.353 . S
C1150 H1208 0.929 . S
C1151 C1148 1.356 1_554 S
C1151 C1153 1.358 . S
C1151 H1209 0.930 . S
C1152 N1149 1.314 1_556 S
C1152 C1150 1.353 . S
C1152 H1210 0.930 . S
C1153 N1149 1.279 . S
C1153 C1151 1.358 . S
C1153 H1211 0.930 . S
C1154 C1157 1.348 1_655 S
C1154 C1158 1.356 . S
C1154 O1205 1.325 . S
C1155 N1156 1.279 . S
C1155 C1158 1.358 1_455 S
C1155 H1212 0.930 . S
N1156 C1155 1.279 . S
N1156 C1159 1.314 . S
C1157 C1154 1.348 1_455 S
C1157 C1159 1.353 . S
C1157 H1213 0.929 . S
C1158 C1154 1.356 . S
C1158 C1155 1.358 1_655 S
C1158 H1214 0.930 . S
C1159 N1156 1.314 . S
C1159 C1157 1.353 . S
C1159 H1215 0.930 . S
C1160 N1161 1.310 1_554 S
C1160 C1165 1.353 1_655 S
C1160 H1166 0.930 1_554 S
N1161 Li1144 2.002 . S
N1161 C1160 1.310 1_556 S
N1161 C1163 1.272 1_556 S
C1162 C1163 1.358 1_455 S
C1162 C1164 1.356 . S
C1162 H1216 0.930 . S
C1163 N1161 1.272 1_554 S
C1163 C1162 1.358 1_655 S
C1163 H1167 0.930 . S
C1164 C1162 1.356 . S
C1164 C1165 1.348 . S
C1165 C1160 1.353 1_455 S
C1165 C1164 1.348 . S
C1165 H1217 0.929 . S
H1166 C1160 0.930 1_556 S
H1167 C1163 0.930 . S
C1168 N1169 1.314 . S
C1168 C1170 1.353 . S
C1168 H1174 0.930 . S
N1169 Li1145 1.990 . S
N1169 C1168 1.314 . S
N1169 C1172 1.279 . S
C1170 C1168 1.353 . S
C1170 C1173 1.348 . S
C1170 H1218 0.929 . S
C1171 C1172 1.358 . S
C1171 C1173 1.356 . S
C1171 H1219 0.930 1_655 S
C1172 N1169 1.279 . S
C1172 C1171 1.358 . S
C1172 H1175 0.930 . S
C1173 C1170 1.348 . S
C1173 C1171 1.356 . S
H1174 C1168 0.930 . S
H1175 C1172 0.930 . S
C1176 C1178 1.348 . S
C1176 C1179 1.356 1_556 S
C1176 O1206 1.325 . S
N1177 C1180 1.314 1_554 S
N1177 C1181 1.279 . S
C1178 C1176 1.348 . S
C1178 C1180 1.353 . S
C1178 H1220 0.929 . S
C1179 C1176 1.356 1_554 S
C1179 C1181 1.358 . S
C1179 H1221 0.930 . S
C1180 N1177 1.314 1_556 S
C1180 C1178 1.353 . S
C1180 H1222 0.930 . S
C1181 N1177 1.279 . S
C1181 C1179 1.358 . S
C1181 H1223 0.930 . S
C1182 C1183 1.348 . S
C1182 C1184 1.356 . S
C1182 O1207 1.325 . S
C1183 C1182 1.348 . S
C1183 C1185 1.353 . S
C1183 H1224 0.929 . S
C1184 C1182 1.356 . S
C1184 C1186 1.358 . S
C1184 H1225 0.930 . S
C1185 C1183 1.353 . S
C1185 N1187 1.314 . S
C1185 H1226 0.930 . S
C1186 C1184 1.358 . S
C1186 N1187 1.279 . S
C1186 H1227 0.930 . S
N1187 C1185 1.314 . S
N1187 C1186 1.279 . S
C1188 C1190 1.353 . S
C1188 N1191 1.314 . S
C1188 H1194 0.930 . S
C1189 N1191 1.279 . S
C1189 C1192 1.358 1_556 S
C1189 H1195 0.930 . S
C1190 C1188 1.353 . S
C1190 C1193 1.348 1_556 S
C1190 H1228 0.929 . S
N1191 Li1146 1.990 . S
N1191 C1188 1.314 . S
N1191 C1189 1.279 . S
C1192 C1189 1.358 1_554 S
C1192 C1193 1.356 . S
C1192 H1229 0.930 . S
C1193 C1190 1.348 1_554 S
C1193 C1192 1.356 . S
H1194 C1188 0.930 . S
H1195 C1189 0.930 . S
C1196 N1197 1.314 . S
C1196 C1198 1.353 . S
C1196 H1202 0.930 . S
N1197 Li1147 1.990 . S
N1197 C1196 1.314 . S
N1197 C1200 1.279 . S
C1198 C1196 1.353 . S
C1198 C1201 1.348 . S
C1198 H1230 0.929 . S
C1199 C1200 1.358 . S
C1199 C1201 1.356 . S
C1199 H1231 0.930 . S
C1200 N1197 1.279 . S
C1200 C1199 1.358 . S
C1200 H1203 0.930 . S
C1201 C1198 1.348 . S
C1201 C1199 1.356 . S
H1202 C1196 0.930 . S
H1203 C1200 0.930 . S
O1204 Li1144 1.956 . S
O1204 Li1145 1.970 . S
O1204 Li1146 1.961 . S
O1204 C1148 1.325 . S
O1205 Li1144 1.970 . S
O1205 Li1145 1.956 . S
O1205 Li1147 1.961 . S
O1205 C1154 1.325 . S
O1206 Li1144 1.961 . S
O1206 Li1146 1.956 . S
O1206 Li1147 1.970 . S
O1206 C1176 1.325 . S
O1207 Li1145 1.961 . S
O1207 Li1146 1.970 . S
O1207 Li1147 1.956 . S
O1207 C1182 1.325 . S
H1208 C1150 0.929 . S
H1209 C1151 0.930 . S
H1210 C1152 0.930 . S
H1211 C1153 0.930 . S
H1212 C1155 0.930 . S
H1213 C1157 0.929 . S
H1214 C1158 0.930 . S
H1215 C1159 0.930 . S
H1216 C1162 0.930 . S
H1217 C1165 0.929 . S
H1218 C1170 0.929 . S
H1219 C1171 0.930 1_455 S
H1220 C1178 0.929 . S
H1221 C1179 0.930 . S
H1222 C1180 0.930 . S
H1223 C1181 0.930 . S
H1224 C1183 0.929 . S
H1225 C1184 0.930 . S
H1226 C1185 0.930 . S
H1227 C1186 0.930 . S
H1228 C1190 0.929 . S
H1229 C1192 0.930 . S
H1230 C1198 0.929 . S
H1231 C1199 0.930 . S
Li1232 N1249 1.990 . S
Li1232 O1292 1.956 . S
Li1232 O1293 1.970 . S
Li1232 O1294 1.961 . S
Li1233 N1257 1.990 . S
Li1233 O1292 1.970 . S
Li1233 O1293 1.956 . S
Li1233 O1295 1.961 . S
Li1234 N1279 1.990 . S
Li1234 O1292 1.961 . S
Li1234 O1294 1.956 . S
Li1234 O1295 1.970 . S
Li1235 N1285 1.990 . S
Li1235 O1293 1.961 . S
Li1235 O1294 1.970 . S
Li1235 O1295 1.956 . S
C1236 C1238 1.348 . S
C1236 C1239 1.356 . S
C1236 O1292 1.325 . S
N1237 C1240 1.314 . S
N1237 C1241 1.279 . S
C1238 C1236 1.348 . S
C1238 C1240 1.353 . S
C1238 H1296 0.929 . S
C1239 C1236 1.356 . S
C1239 C1241 1.358 . S
C1239 H1297 0.930 . S
C1240 N1237 1.314 . S
C1240 C1238 1.353 . S
C1240 H1298 0.930 . S
C1241 N1237 1.279 . S
C1241 C1239 1.358 . S
C1241 H1299 0.930 . S
C1242 C1245 1.348 . S
C1242 C1246 1.356 . S
C1242 O1293 1.325 . S
C1243 N1244 1.279 . S
C1243 C1246 1.358 . S
C1243 H1300 0.930 . S
N1244 C1243 1.279 . S
N1244 C1247 1.314 . S
C1245 C1242 1.348 . S
C1245 C1247 1.353 . S
C1245 H1301 0.929 . S
C1246 C1242 1.356 . S
C1246 C1243 1.358 . S
C1246 H1302 0.930 . S
C1247 N1244 1.314 . S
C1247 C1245 1.353 . S
C1247 H1303 0.930 . S
C1248 N1249 1.314 . S
C1248 C1253 1.353 . S
C1248 H1254 0.930 . S
N1249 Li1232 1.990 . S
N1249 C1248 1.314 . S
N1249 C1251 1.279 . S
C1250 C1251 1.358 . S
C1250 C1252 1.356 . S
C1250 H1304 0.930 . S
C1251 N1249 1.279 . S
C1251 C1250 1.358 . S
C1251 H1255 0.930 . S
C1252 C1250 1.356 . S
C1252 C1253 1.348 . S
C1253 C1248 1.353 . S
C1253 C1252 1.348 . S
C1253 H1305 0.929 . S
H1254 C1248 0.930 . S
H1255 C1251 0.930 . S
C1256 N1257 1.314 . S
C1256 C1258 1.353 . S
C1256 H1262 0.930 . S
N1257 Li1233 1.990 . S
N1257 C1256 1.314 . S
N1257 C1260 1.279 . S
C1258 C1256 1.353 . S
C1258 C1261 1.348 . S
C1258 H1306 0.929 . S
C1259 C1260 1.358 . S
C1259 C1261 1.356 . S
C1259 H1307 0.930 . S
C1260 N1257 1.279 . S
C1260 C1259 1.358 . S
C1260 H1263 0.930 . S
C1261 C1258 1.348 . S
C1261 C1259 1.356 . S
H1262 C1256 0.930 . S
H1263 C1260 0.930 . S
C1264 C1266 1.348 . S
C1264 C1267 1.356 . S
C1264 O1294 1.325 . S
N1265 C1268 1.314 . S
N1265 C1269 1.279 . S
C1266 C1264 1.348 . S
C1266 C1268 1.353 . S
C1266 H1308 0.929 . S
C1267 C1264 1.356 . S
C1267 C1269 1.358 . S
C1267 H1309 0.930 . S
C1268 N1265 1.314 . S
C1268 C1266 1.353 . S
C1268 H1310 0.930 . S
C1269 N1265 1.279 . S
C1269 C1267 1.358 . S
C1269 H1311 0.930 . S
C1270 C1271 1.348 . S
C1270 C1272 1.356 . S
C1270 O1295 1.325 . S
C1271 C1270 1.348 . S
C1271 C1273 1.353 . S
C1271 H1312 0.929 . S
C1272 C1270 1.356 . S
C1272 C1274 1.358 . S
C1272 H1313 0.930 . S
C1273 C1271 1.353 . S
C1273 N1275 1.314 . S
C1273 H1314 0.930 . S
C1274 C1272 1.358 . S
C1274 N1275 1.279 . S
C1274 H1315 0.930 . S
N1275 C1273 1.314 . S
N1275 C1274 1.279 . S
C1276 C1278 1.353 . S
C1276 N1279 1.314 . S
C1276 H1282 0.930 . S
C1277 N1279 1.279 . S
C1277 C1280 1.358 . S
C1277 H1283 0.930 . S
C1278 C1276 1.353 . S
C1278 C1281 1.348 . S
C1278 H1316 0.929 . S
N1279 Li1234 1.990 . S
N1279 C1276 1.314 . S
N1279 C1277 1.279 . S
C1280 C1277 1.358 . S
C1280 C1281 1.356 . S
C1280 H1317 0.930 . S
C1281 C1278 1.348 . S
C1281 C1280 1.356 . S
H1282 C1276 0.930 . S
H1283 C1277 0.930 . S
C1284 N1285 1.314 . S
C1284 C1286 1.353 . S
C1284 H1290 0.930 . S
N1285 Li1235 1.990 . S
N1285 C1284 1.314 . S
N1285 C1288 1.279 . S
C1286 C1284 1.353 . S
C1286 C1289 1.348 . S
C1286 H1318 0.929 . S
C1287 C1288 1.358 . S
C1287 C1289 1.356 . S
C1287 H1319 0.930 . S
C1288 N1285 1.279 . S
C1288 C1287 1.358 . S
C1288 H1291 0.930 . S
C1289 C1286 1.348 . S
C1289 C1287 1.356 . S
H1290 C1284 0.930 . S
H1291 C1288 0.930 . S
O1292 Li1232 1.956 . S
O1292 Li1233 1.970 . S
O1292 Li1234 1.961 . S
O1292 C1236 1.325 . S
O1293 Li1232 1.970 . S
O1293 Li1233 1.956 . S
O1293 Li1235 1.961 . S
O1293 C1242 1.325 . S
O1294 Li1232 1.961 . S
O1294 Li1234 1.956 . S
O1294 Li1235 1.970 . S
O1294 C1264 1.325 . S
O1295 Li1233 1.961 . S
O1295 Li1234 1.970 . S
O1295 Li1235 1.956 . S
O1295 C1270 1.325 . S
H1296 C1238 0.929 . S
H1297 C1239 0.930 . S
H1298 C1240 0.930 . S
H1299 C1241 0.930 . S
H1300 C1243 0.930 . S
H1301 C1245 0.929 . S
H1302 C1246 0.930 . S
H1303 C1247 0.930 . S
H1304 C1250 0.930 . S
H1305 C1253 0.929 . S
H1306 C1258 0.929 . S
H1307 C1259 0.930 . S
H1308 C1266 0.929 . S
H1309 C1267 0.930 . S
H1310 C1268 0.930 . S
H1311 C1269 0.930 . S
H1312 C1271 0.929 . S
H1313 C1272 0.930 . S
H1314 C1273 0.930 . S
H1315 C1274 0.930 . S
H1316 C1278 0.929 . S
H1317 C1280 0.930 . S
H1318 C1286 0.929 . S
H1319 C1287 0.930 . S
Li1320 N1337 1.990 . S
Li1320 O1380 1.956 . S
Li1320 O1381 1.970 . S
Li1320 O1382 1.961 . S
Li1321 N1345 1.990 . S
Li1321 O1380 1.970 . S
Li1321 O1381 1.956 . S
Li1321 O1383 1.961 . S
Li1322 N1367 1.990 . S
Li1322 O1380 1.961 . S
Li1322 O1382 1.956 . S
Li1322 O1383 1.970 . S
Li1323 N1373 1.990 . S
Li1323 O1381 1.961 . S
Li1323 O1382 1.970 . S
Li1323 O1383 1.956 . S
C1324 C1326 1.348 . S
C1324 C1327 1.356 . S
C1324 O1380 1.325 . S
N1325 C1328 1.314 . S
N1325 C1329 1.279 . S
C1326 C1324 1.348 . S
C1326 C1328 1.353 . S
C1326 H1384 0.929 . S
C1327 C1324 1.356 . S
C1327 C1329 1.358 . S
C1327 H1385 0.930 . S
C1328 N1325 1.314 . S
C1328 C1326 1.353 . S
C1328 H1386 0.930 . S
C1329 N1325 1.279 . S
C1329 C1327 1.358 . S
C1329 H1387 0.930 . S
C1330 C1333 1.348 . S
C1330 C1334 1.356 . S
C1330 O1381 1.325 . S
C1331 N1332 1.279 . S
C1331 C1334 1.358 . S
C1331 H1388 0.930 . S
N1332 C1331 1.279 . S
N1332 C1335 1.314 . S
C1333 C1330 1.348 . S
C1333 C1335 1.353 . S
C1333 H1389 0.929 . S
C1334 C1330 1.356 . S
C1334 C1331 1.358 . S
C1334 H1390 0.930 . S
C1335 N1332 1.314 . S
C1335 C1333 1.353 . S
C1335 H1391 0.930 . S
C1336 N1337 1.314 . S
C1336 C1341 1.353 . S
C1336 H1342 0.930 . S
N1337 Li1320 1.990 . S
N1337 C1336 1.314 . S
N1337 C1339 1.279 . S
C1338 C1339 1.358 . S
C1338 C1340 1.356 . S
C1338 H1392 0.930 . S
C1339 N1337 1.279 . S
C1339 C1338 1.358 . S
C1339 H1343 0.930 . S
C1340 C1338 1.356 . S
C1340 C1341 1.348 . S
C1341 C1336 1.353 . S
C1341 C1340 1.348 . S
C1341 H1393 0.929 . S
H1342 C1336 0.930 . S
H1343 C1339 0.930 . S
C1344 N1345 1.314 . S
C1344 C1346 1.353 . S
C1344 H1350 0.930 . S
N1345 Li1321 1.990 . S
N1345 C1344 1.314 . S
N1345 C1348 1.279 . S
C1346 C1344 1.353 . S
C1346 C1349 1.348 . S
C1346 H1394 0.929 . S
C1347 C1348 1.358 . S
C1347 C1349 1.356 . S
C1347 H1395 0.930 . S
C1348 N1345 1.279 . S
C1348 C1347 1.358 . S
C1348 H1351 0.930 . S
C1349 C1346 1.348 . S
C1349 C1347 1.356 . S
H1350 C1344 0.930 . S
H1351 C1348 0.930 . S
C1352 C1354 1.348 . S
C1352 C1355 1.356 . S
C1352 O1382 1.325 . S
N1353 C1356 1.314 . S
N1353 C1357 1.279 . S
C1354 C1352 1.348 . S
C1354 C1356 1.353 . S
C1354 H1396 0.929 . S
C1355 C1352 1.356 . S
C1355 C1357 1.358 . S
C1355 H1397 0.930 . S
C1356 N1353 1.314 . S
C1356 C1354 1.353 . S
C1356 H1398 0.930 . S
C1357 N1353 1.279 . S
C1357 C1355 1.358 . S
C1357 H1399 0.930 . S
C1358 C1359 1.348 . S
C1358 C1360 1.356 . S
C1358 O1383 1.325 . S
C1359 C1358 1.348 . S
C1359 C1361 1.353 . S
C1359 H1400 0.929 . S
C1360 C1358 1.356 . S
C1360 C1362 1.358 . S
C1360 H1401 0.930 . S
C1361 C1359 1.353 . S
C1361 N1363 1.314 . S
C1361 H1402 0.930 . S
C1362 C1360 1.358 . S
C1362 N1363 1.279 . S
C1362 H1403 0.930 . S
N1363 C1361 1.314 . S
N1363 C1362 1.279 . S
C1364 C1366 1.353 . S
C1364 N1367 1.314 . S
C1364 H1370 0.930 . S
C1365 N1367 1.279 . S
C1365 C1368 1.358 . S
C1365 H1371 0.930 . S
C1366 C1364 1.353 . S
C1366 C1369 1.348 . S
C1366 H1404 0.929 . S
N1367 Li1322 1.990 . S
N1367 C1364 1.314 . S
N1367 C1365 1.279 . S
C1368 C1365 1.358 . S
C1368 C1369 1.356 . S
C1368 H1405 0.930 . S
C1369 C1366 1.348 . S
C1369 C1368 1.356 . S
H1370 C1364 0.930 . S
H1371 C1365 0.930 . S
C1372 N1373 1.314 . S
C1372 C1374 1.353 . S
C1372 H1378 0.930 . S
N1373 Li1323 1.990 . S
N1373 C1372 1.314 . S
N1373 C1376 1.279 . S
C1374 C1372 1.353 . S
C1374 C1377 1.348 . S
C1374 H1406 0.929 . S
C1375 C1376 1.358 . S
C1375 C1377 1.356 . S
C1375 H1407 0.930 . S
C1376 N1373 1.279 . S
C1376 C1375 1.358 . S
C1376 H1379 0.930 . S
C1377 C1374 1.348 . S
C1377 C1375 1.356 . S
H1378 C1372 0.930 . S
H1379 C1376 0.930 . S
O1380 Li1320 1.956 . S
O1380 Li1321 1.970 . S
O1380 Li1322 1.961 . S
O1380 C1324 1.325 . S
O1381 Li1320 1.970 . S
O1381 Li1321 1.956 . S
O1381 Li1323 1.961 . S
O1381 C1330 1.325 . S
O1382 Li1320 1.961 . S
O1382 Li1322 1.956 . S
O1382 Li1323 1.970 . S
O1382 C1352 1.325 . S
O1383 Li1321 1.961 . S
O1383 Li1322 1.970 . S
O1383 Li1323 1.956 . S
O1383 C1358 1.325 . S
H1384 C1326 0.929 . S
H1385 C1327 0.930 . S
H1386 C1328 0.930 . S
H1387 C1329 0.930 . S
H1388 C1331 0.930 . S
H1389 C1333 0.929 . S
H1390 C1334 0.930 . S
H1391 C1335 0.930 . S
H1392 C1338 0.930 . S
H1393 C1341 0.929 . S
H1394 C1346 0.929 . S
H1395 C1347 0.930 . S
H1396 C1354 0.929 . S
H1397 C1355 0.930 . S
H1398 C1356 0.930 . S
H1399 C1357 0.930 . S
H1400 C1359 0.929 . S
H1401 C1360 0.930 . S
H1402 C1361 0.930 . S
H1403 C1362 0.930 . S
H1404 C1366 0.929 . S
H1405 C1368 0.930 . S
H1406 C1374 0.929 . S
H1407 C1375 0.930 . S
Li1408 N1425 1.990 . S
Li1408 O1468 1.956 . S
Li1408 O1469 1.970 . S
Li1408 O1470 1.961 . S
Li1409 N1433 1.990 . S
Li1409 O1468 1.970 . S
Li1409 O1469 1.956 . S
Li1409 O1471 1.961 . S
Li1410 N1455 1.990 . S
Li1410 O1468 1.961 . S
Li1410 O1470 1.956 . S
Li1410 O1471 1.970 . S
Li1411 N1461 1.990 . S
Li1411 O1469 1.961 . S
Li1411 O1470 1.970 . S
Li1411 O1471 1.956 . S
C1412 C1414 1.348 . S
C1412 C1415 1.356 . S
C1412 O1468 1.325 . S
N1413 C1416 1.314 . S
N1413 C1417 1.279 . S
C1414 C1412 1.348 . S
C1414 C1416 1.353 . S
C1414 H1472 0.929 . S
C1415 C1412 1.356 . S
C1415 C1417 1.358 . S
C1415 H1473 0.930 . S
C1416 N1413 1.314 . S
C1416 C1414 1.353 . S
C1416 H1474 0.930 . S
C1417 N1413 1.279 . S
C1417 C1415 1.358 . S
C1417 H1475 0.930 . S
C1418 C1421 1.348 . S
C1418 C1422 1.356 . S
C1418 O1469 1.325 . S
C1419 N1420 1.279 . S
C1419 C1422 1.358 . S
C1419 H1476 0.930 . S
N1420 C1419 1.279 . S
N1420 C1423 1.314 . S
C1421 C1418 1.348 . S
C1421 C1423 1.353 . S
C1421 H1477 0.929 . S
C1422 C1418 1.356 . S
C1422 C1419 1.358 . S
C1422 H1478 0.930 . S
C1423 N1420 1.314 . S
C1423 C1421 1.353 . S
C1423 H1479 0.930 . S
C1424 N1425 1.314 . S
C1424 C1429 1.353 . S
C1424 H1430 0.930 . S
N1425 Li1408 1.990 . S
N1425 C1424 1.314 . S
N1425 C1427 1.279 . S
C1426 C1427 1.358 . S
C1426 C1428 1.356 . S
C1426 H1480 0.930 . S
C1427 N1425 1.279 . S
C1427 C1426 1.358 . S
C1427 H1431 0.930 . S
C1428 C1426 1.356 . S
C1428 C1429 1.348 . S
C1429 C1424 1.353 . S
C1429 C1428 1.348 . S
C1429 H1481 0.929 . S
H1430 C1424 0.930 . S
H1431 C1427 0.930 . S
C1432 N1433 1.314 . S
C1432 C1434 1.353 . S
C1432 H1438 0.930 . S
N1433 Li1409 1.990 . S
N1433 C1432 1.314 . S
N1433 C1436 1.279 . S
C1434 C1432 1.353 . S
C1434 C1437 1.348 . S
C1434 H1482 0.929 . S
C1435 C1436 1.358 . S
C1435 C1437 1.356 . S
C1435 H1483 0.930 . S
C1436 N1433 1.279 . S
C1436 C1435 1.358 . S
C1436 H1439 0.930 . S
C1437 C1434 1.348 . S
C1437 C1435 1.356 . S
H1438 C1432 0.930 . S
H1439 C1436 0.930 . S
C1440 C1442 1.348 . S
C1440 C1443 1.356 . S
C1440 O1470 1.325 . S
N1441 C1444 1.314 . S
N1441 C1445 1.279 . S
C1442 C1440 1.348 . S
C1442 C1444 1.353 . S
C1442 H1484 0.929 . S
C1443 C1440 1.356 . S
C1443 C1445 1.358 . S
C1443 H1485 0.930 . S
C1444 N1441 1.314 . S
C1444 C1442 1.353 . S
C1444 H1486 0.930 . S
C1445 N1441 1.279 . S
C1445 C1443 1.358 . S
C1445 H1487 0.930 . S
C1446 C1447 1.348 . S
C1446 C1448 1.356 . S
C1446 O1471 1.325 . S
C1447 C1446 1.348 . S
C1447 C1449 1.353 . S
C1447 H1488 0.929 . S
C1448 C1446 1.356 . S
C1448 C1450 1.358 . S
C1448 H1489 0.930 . S
C1449 C1447 1.353 . S
C1449 N1451 1.314 . S
C1449 H1490 0.930 . S
C1450 C1448 1.358 . S
C1450 N1451 1.279 . S
C1450 H1491 0.930 . S
N1451 C1449 1.314 . S
N1451 C1450 1.279 . S
C1452 C1454 1.353 . S
C1452 N1455 1.314 . S
C1452 H1458 0.930 . S
C1453 N1455 1.279 . S
C1453 C1456 1.358 . S
C1453 H1459 0.930 . S
C1454 C1452 1.353 . S
C1454 C1457 1.348 . S
C1454 H1492 0.929 . S
N1455 Li1410 1.990 . S
N1455 C1452 1.314 . S
N1455 C1453 1.279 . S
C1456 C1453 1.358 . S
C1456 C1457 1.356 . S
C1456 H1493 0.930 . S
C1457 C1454 1.348 . S
C1457 C1456 1.356 . S
H1458 C1452 0.930 . S
H1459 C1453 0.930 . S
C1460 N1461 1.314 . S
C1460 C1462 1.353 . S
C1460 H1466 0.930 . S
N1461 Li1411 1.990 . S
N1461 C1460 1.314 . S
N1461 C1464 1.279 . S
C1462 C1460 1.353 . S
C1462 C1465 1.348 . S
C1462 H1494 0.929 . S
C1463 C1464 1.358 . S
C1463 C1465 1.356 . S
C1463 H1495 0.930 . S
C1464 N1461 1.279 . S
C1464 C1463 1.358 . S
C1464 H1467 0.930 . S
C1465 C1462 1.348 . S
C1465 C1463 1.356 . S
H1466 C1460 0.930 . S
H1467 C1464 0.930 . S
O1468 Li1408 1.956 . S
O1468 Li1409 1.970 . S
O1468 Li1410 1.961 . S
O1468 C1412 1.325 . S
O1469 Li1408 1.970 . S
O1469 Li1409 1.956 . S
O1469 Li1411 1.961 . S
O1469 C1418 1.325 . S
O1470 Li1408 1.961 . S
O1470 Li1410 1.956 . S
O1470 Li1411 1.970 . S
O1470 C1440 1.325 . S
O1471 Li1409 1.961 . S
O1471 Li1410 1.970 . S
O1471 Li1411 1.956 . S
O1471 C1446 1.325 . S
H1472 C1414 0.929 . S
H1473 C1415 0.930 . S
H1474 C1416 0.930 . S
H1475 C1417 0.930 . S
H1476 C1419 0.930 . S
H1477 C1421 0.929 . S
H1478 C1422 0.930 . S
H1479 C1423 0.930 . S
H1480 C1426 0.930 . S
H1481 C1429 0.929 . S
H1482 C1434 0.929 . S
H1483 C1435 0.930 . S
H1484 C1442 0.929 . S
H1485 C1443 0.930 . S
H1486 C1444 0.930 . S
H1487 C1445 0.930 . S
H1488 C1447 0.929 . S
H1489 C1448 0.930 . S
H1490 C1449 0.930 . S
H1491 C1450 0.930 . S
H1492 C1454 0.929 . S
H1493 C1456 0.930 . S
H1494 C1462 0.929 . S
H1495 C1463 0.930 . S
Li1496 N1513 1.990 . S
Li1496 O1556 1.956 . S
Li1496 O1557 1.970 . S
Li1496 O1558 1.961 . S
Li1497 N1521 1.990 . S
Li1497 O1556 1.970 . S
Li1497 O1557 1.956 . S
Li1497 O1559 1.961 . S
Li1498 N1543 1.990 . S
Li1498 O1556 1.961 . S
Li1498 O1558 1.956 . S
Li1498 O1559 1.970 . S
Li1499 N1549 1.990 . S
Li1499 O1557 1.961 . S
Li1499 O1558 1.970 . S
Li1499 O1559 1.956 . S
C1500 C1502 1.348 . S
C1500 C1503 1.356 . S
C1500 O1556 1.325 . S
N1501 C1504 1.314 . S
N1501 C1505 1.279 . S
C1502 C1500 1.348 . S
C1502 C1504 1.353 . S
C1502 H1560 0.929 . S
C1503 C1500 1.356 . S
C1503 C1505 1.358 . S
C1503 H1561 0.930 . S
C1504 N1501 1.314 . S
C1504 C1502 1.353 . S
C1504 H1562 0.930 . S
C1505 N1501 1.279 . S
C1505 C1503 1.358 . S
C1505 H1563 0.930 . S
C1506 C1509 1.348 . S
C1506 C1510 1.356 . S
C1506 O1557 1.325 . S
C1507 N1508 1.279 . S
C1507 C1510 1.358 . S
C1507 H1564 0.930 . S
N1508 C1507 1.279 . S
N1508 C1511 1.314 . S
C1509 C1506 1.348 . S
C1509 C1511 1.353 . S
C1509 H1565 0.929 . S
C1510 C1506 1.356 . S
C1510 C1507 1.358 . S
C1510 H1566 0.930 . S
C1511 N1508 1.314 . S
C1511 C1509 1.353 . S
C1511 H1567 0.930 . S
C1512 N1513 1.314 . S
C1512 C1517 1.353 . S
C1512 H1518 0.930 . S
N1513 Li1496 1.990 . S
N1513 C1512 1.314 . S
N1513 C1515 1.279 . S
C1514 C1515 1.358 . S
C1514 C1516 1.356 . S
C1514 H1568 0.930 . S
C1515 N1513 1.279 . S
C1515 C1514 1.358 . S
C1515 H1519 0.930 . S
C1516 C1514 1.356 . S
C1516 C1517 1.348 . S
C1517 C1512 1.353 . S
C1517 C1516 1.348 . S
C1517 H1569 0.929 . S
H1518 C1512 0.930 . S
H1519 C1515 0.930 . S
C1520 N1521 1.314 . S
C1520 C1522 1.353 . S
C1520 H1526 0.930 . S
N1521 Li1497 1.990 . S
N1521 C1520 1.314 . S
N1521 C1524 1.279 . S
C1522 C1520 1.353 . S
C1522 C1525 1.348 . S
C1522 H1570 0.929 . S
C1523 C1524 1.358 . S
C1523 C1525 1.356 . S
C1523 H1571 0.930 . S
C1524 N1521 1.279 . S
C1524 C1523 1.358 . S
C1524 H1527 0.930 . S
C1525 C1522 1.348 . S
C1525 C1523 1.356 . S
H1526 C1520 0.930 . S
H1527 C1524 0.930 . S
C1528 C1530 1.348 . S
C1528 C1531 1.356 . S
C1528 O1558 1.325 . S
N1529 C1532 1.314 . S
N1529 C1533 1.279 . S
C1530 C1528 1.348 . S
C1530 C1532 1.353 . S
C1530 H1572 0.929 . S
C1531 C1528 1.356 . S
C1531 C1533 1.358 . S
C1531 H1573 0.930 . S
C1532 N1529 1.314 . S
C1532 C1530 1.353 . S
C1532 H1574 0.930 . S
C1533 N1529 1.279 . S
C1533 C1531 1.358 . S
C1533 H1575 0.930 . S
C1534 C1535 1.348 . S
C1534 C1536 1.356 . S
C1534 O1559 1.325 . S
C1535 C1534 1.348 . S
C1535 C1537 1.353 . S
C1535 H1576 0.929 . S
C1536 C1534 1.356 . S
C1536 C1538 1.358 . S
C1536 H1577 0.930 . S
C1537 C1535 1.353 . S
C1537 N1539 1.314 . S
C1537 H1578 0.930 . S
C1538 C1536 1.358 . S
C1538 N1539 1.279 . S
C1538 H1579 0.930 . S
N1539 C1537 1.314 . S
N1539 C1538 1.279 . S
C1540 C1542 1.353 . S
C1540 N1543 1.314 . S
C1540 H1546 0.930 . S
C1541 N1543 1.279 . S
C1541 C1544 1.358 . S
C1541 H1547 0.930 . S
C1542 C1540 1.353 . S
C1542 C1545 1.348 . S
C1542 H1580 0.929 . S
N1543 Li1498 1.990 . S
N1543 C1540 1.314 . S
N1543 C1541 1.279 . S
C1544 C1541 1.358 . S
C1544 C1545 1.356 . S
C1544 H1581 0.930 . S
C1545 C1542 1.348 . S
C1545 C1544 1.356 . S
H1546 C1540 0.930 . S
H1547 C1541 0.930 . S
C1548 N1549 1.314 . S
C1548 C1550 1.353 . S
C1548 H1554 0.930 . S
N1549 Li1499 1.990 . S
N1549 C1548 1.314 . S
N1549 C1552 1.279 . S
C1550 C1548 1.353 . S
C1550 C1553 1.348 . S
C1550 H1582 0.929 . S
C1551 C1552 1.358 . S
C1551 C1553 1.356 . S
C1551 H1583 0.930 . S
C1552 N1549 1.279 . S
C1552 C1551 1.358 . S
C1552 H1555 0.930 . S
C1553 C1550 1.348 . S
C1553 C1551 1.356 . S
H1554 C1548 0.930 . S
H1555 C1552 0.930 . S
O1556 Li1496 1.956 . S
O1556 Li1497 1.970 . S
O1556 Li1498 1.961 . S
O1556 C1500 1.325 . S
O1557 Li1496 1.970 . S
O1557 Li1497 1.956 . S
O1557 Li1499 1.961 . S
O1557 C1506 1.325 . S
O1558 Li1496 1.961 . S
O1558 Li1498 1.956 . S
O1558 Li1499 1.970 . S
O1558 C1528 1.325 . S
O1559 Li1497 1.961 . S
O1559 Li1498 1.970 . S
O1559 Li1499 1.956 . S
O1559 C1534 1.325 . S
H1560 C1502 0.929 . S
H1561 C1503 0.930 . S
H1562 C1504 0.930 . S
H1563 C1505 0.930 . S
H1564 C1507 0.930 . S
H1565 C1509 0.929 . S
H1566 C1510 0.930 . S
H1567 C1511 0.930 . S
H1568 C1514 0.930 . S
H1569 C1517 0.929 . S
H1570 C1522 0.929 . S
H1571 C1523 0.930 . S
H1572 C1530 0.929 . S
H1573 C1531 0.930 . S
H1574 C1532 0.930 . S
H1575 C1533 0.930 . S
H1576 C1535 0.929 . S
H1577 C1536 0.930 . S
H1578 C1537 0.930 . S
H1579 C1538 0.930 . S
H1580 C1542 0.929 . S
H1581 C1544 0.930 . S
H1582 C1550 0.929 . S
H1583 C1551 0.930 . S
Li1584 N1601 1.990 . S
Li1584 O1644 1.956 . S
Li1584 O1645 1.970 . S
Li1584 O1646 1.961 . S
Li1585 N1609 1.990 . S
Li1585 O1644 1.970 . S
Li1585 O1645 1.956 . S
Li1585 O1647 1.961 . S
Li1586 N1631 1.990 . S
Li1586 O1644 1.961 . S
Li1586 O1646 1.956 . S
Li1586 O1647 1.970 . S
Li1587 N1637 1.990 . S
Li1587 O1645 1.961 . S
Li1587 O1646 1.970 . S
Li1587 O1647 1.956 . S
C1588 C1590 1.348 . S
C1588 C1591 1.356 . S
C1588 O1644 1.325 . S
N1589 C1592 1.314 . S
N1589 C1593 1.279 . S
C1590 C1588 1.348 . S
C1590 C1592 1.353 . S
C1590 H1648 0.929 . S
C1591 C1588 1.356 . S
C1591 C1593 1.358 . S
C1591 H1649 0.930 . S
C1592 N1589 1.314 . S
C1592 C1590 1.353 . S
C1592 H1650 0.930 . S
C1593 N1589 1.279 . S
C1593 C1591 1.358 . S
C1593 H1651 0.930 . S
C1594 C1597 1.348 . S
C1594 C1598 1.356 . S
C1594 O1645 1.325 . S
C1595 N1596 1.279 . S
C1595 C1598 1.358 . S
C1595 H1652 0.930 . S
N1596 C1595 1.279 . S
N1596 C1599 1.314 . S
C1597 C1594 1.348 . S
C1597 C1599 1.353 . S
C1597 H1653 0.929 . S
C1598 C1594 1.356 . S
C1598 C1595 1.358 . S
C1598 H1654 0.930 . S
C1599 N1596 1.314 . S
C1599 C1597 1.353 . S
C1599 H1655 0.930 . S
C1600 N1601 1.314 . S
C1600 C1605 1.353 . S
C1600 H1606 0.930 . S
N1601 Li1584 1.990 . S
N1601 C1600 1.314 . S
N1601 C1603 1.279 . S
C1602 C1603 1.358 . S
C1602 C1604 1.356 . S
C1602 H1656 0.930 . S
C1603 N1601 1.279 . S
C1603 C1602 1.358 . S
C1603 H1607 0.930 . S
C1604 C1602 1.356 . S
C1604 C1605 1.348 . S
C1605 C1600 1.353 . S
C1605 C1604 1.348 . S
C1605 H1657 0.929 . S
H1606 C1600 0.930 . S
H1607 C1603 0.930 . S
C1608 N1609 1.314 . S
C1608 C1610 1.353 . S
C1608 H1614 0.930 . S
N1609 Li1585 1.990 . S
N1609 C1608 1.314 . S
N1609 C1612 1.279 . S
C1610 C1608 1.353 . S
C1610 C1613 1.348 . S
C1610 H1658 0.929 . S
C1611 C1612 1.358 . S
C1611 C1613 1.356 . S
C1611 H1659 0.930 . S
C1612 N1609 1.279 . S
C1612 C1611 1.358 . S
C1612 H1615 0.930 . S
C1613 C1610 1.348 . S
C1613 C1611 1.356 . S
H1614 C1608 0.930 . S
H1615 C1612 0.930 . S
C1616 C1618 1.348 . S
C1616 C1619 1.356 . S
C1616 O1646 1.325 . S
N1617 C1620 1.314 . S
N1617 C1621 1.279 . S
C1618 C1616 1.348 . S
C1618 C1620 1.353 . S
C1618 H1660 0.929 . S
C1619 C1616 1.356 . S
C1619 C1621 1.358 . S
C1619 H1661 0.930 . S
C1620 N1617 1.314 . S
C1620 C1618 1.353 . S
C1620 H1662 0.930 . S
C1621 N1617 1.279 . S
C1621 C1619 1.358 . S
C1621 H1663 0.930 . S
C1622 C1623 1.348 1_554 S
C1622 C1624 1.356 . S
C1622 O1647 1.325 . S
C1623 C1622 1.348 1_556 S
C1623 C1625 1.353 . S
C1623 H1664 0.929 . S
C1624 C1622 1.356 . S
C1624 C1626 1.358 . S
C1624 H1665 0.930 . S
C1625 C1623 1.353 . S
C1625 N1627 1.314 . S
C1625 H1666 0.930 . S
C1626 C1624 1.358 . S
C1626 N1627 1.279 1_554 S
C1626 H1667 0.930 . S
N1627 C1625 1.314 . S
N1627 C1626 1.279 1_556 S
C1628 C1630 1.344 1_554 S
C1628 N1631 1.314 . S
C1628 H1634 0.930 . S
C1629 N1631 1.279 . S
C1629 C1632 1.358 1_554 S
C1629 H1635 0.930 . S
C1630 C1628 1.344 1_556 S
C1630 C1633 1.356 . S
C1630 H1668 0.928 . S
N1631 Li1586 1.990 . S
N1631 C1628 1.314 . S
N1631 C1629 1.279 . S
C1632 C1629 1.358 1_556 S
C1632 C1633 1.356 . S
C1632 H1669 0.930 . S
C1633 C1630 1.356 . S
C1633 C1632 1.356 . S
H1634 C1628 0.930 . S
H1635 C1629 0.930 . S
C1636 N1637 1.314 . S
C1636 C1638 1.353 . S
C1636 H1642 0.930 . S
N1637 Li1587 1.990 . S
N1637 C1636 1.314 . S
N1637 C1640 1.279 . S
C1638 C1636 1.353 . S
C1638 C1641 1.348 . S
C1638 H1670 0.929 . S
C1639 C1640 1.358 . S
C1639 C1641 1.356 . S
C1639 H1671 0.930 1_554 S
C1640 N1637 1.279 . S
C1640 C1639 1.358 . S
C1640 H1643 0.930 . S
C1641 C1638 1.348 . S
C1641 C1639 1.356 . S
H1642 C1636 0.930 . S
H1643 C1640 0.930 . S
O1644 Li1584 1.956 . S
O1644 Li1585 1.970 . S
O1644 Li1586 1.961 . S
O1644 C1588 1.325 . S
O1645 Li1584 1.970 . S
O1645 Li1585 1.956 . S
O1645 Li1587 1.961 . S
O1645 C1594 1.325 . S
O1646 Li1584 1.961 . S
O1646 Li1586 1.956 . S
O1646 Li1587 1.970 . S
O1646 C1616 1.325 . S
O1647 Li1585 1.961 . S
O1647 Li1586 1.970 . S
O1647 Li1587 1.956 . S
O1647 C1622 1.325 . S
H1648 C1590 0.929 . S
H1649 C1591 0.930 . S
H1650 C1592 0.930 . S
H1651 C1593 0.930 . S
H1652 C1595 0.930 . S
H1653 C1597 0.929 . S
H1654 C1598 0.930 . S
H1655 C1599 0.930 . S
H1656 C1602 0.930 . S
H1657 C1605 0.929 . S
H1658 C1610 0.929 . S
H1659 C1611 0.930 . S
H1660 C1618 0.929 . S
H1661 C1619 0.930 . S
H1662 C1620 0.930 . S
H1663 C1621 0.930 . S
H1664 C1623 0.929 . S
H1665 C1624 0.930 . S
H1666 C1625 0.930 . S
H1667 C1626 0.930 . S
H1668 C1630 0.928 . S
H1669 C1632 0.930 . S
H1670 C1638 0.929 . S
H1671 C1639 0.930 1_556 S
Li1672 N1689 1.990 . S
Li1672 O1732 1.956 . S
Li1672 O1733 1.970 . S
Li1672 O1734 1.961 . S
Li1673 N1697 1.990 . S
Li1673 O1732 1.970 . S
Li1673 O1733 1.956 . S
Li1673 O1735 1.961 . S
Li1674 N1719 1.990 . S
Li1674 O1732 1.961 . S
Li1674 O1734 1.956 . S
Li1674 O1735 1.970 . S
Li1675 N1725 1.990 . S
Li1675 O1733 1.961 . S
Li1675 O1734 1.970 . S
Li1675 O1735 1.956 . S
C1676 C1678 1.348 . S
C1676 C1679 1.356 . S
C1676 O1732 1.325 . S
N1677 C1680 1.314 . S
N1677 C1681 1.279 . S
C1678 C1676 1.348 . S
C1678 C1680 1.353 . S
C1678 H1736 0.929 . S
C1679 C1676 1.356 . S
C1679 C1681 1.358 . S
C1679 H1737 0.930 . S
C1680 N1677 1.314 . S
C1680 C1678 1.353 . S
C1680 H1738 0.930 . S
C1681 N1677 1.279 . S
C1681 C1679 1.358 . S
C1681 H1739 0.930 . S
C1682 C1685 1.348 . S
C1682 C1686 1.356 . S
C1682 O1733 1.325 . S
C1683 N1684 1.279 . S
C1683 C1686 1.358 . S
C1683 H1740 0.930 . S
N1684 C1683 1.279 . S
N1684 C1687 1.314 . S
C1685 C1682 1.348 . S
C1685 C1687 1.353 . S
C1685 H1741 0.929 . S
C1686 C1682 1.356 . S
C1686 C1683 1.358 . S
C1686 H1742 0.930 . S
C1687 N1684 1.314 . S
C1687 C1685 1.353 . S
C1687 H1743 0.930 . S
C1688 N1689 1.314 . S
C1688 C1693 1.353 . S
C1688 H1694 0.930 . S
N1689 Li1672 1.990 . S
N1689 C1688 1.314 . S
N1689 C1691 1.279 . S
C1690 C1691 1.358 . S
C1690 C1692 1.356 . S
C1690 H1744 0.930 . S
C1691 N1689 1.279 . S
C1691 C1690 1.358 . S
C1691 H1695 0.930 . S
C1692 C1690 1.356 . S
C1692 C1693 1.348 . S
C1693 C1688 1.353 . S
C1693 C1692 1.348 . S
C1693 H1745 0.929 . S
H1694 C1688 0.930 . S
H1695 C1691 0.930 . S
C1696 N1697 1.314 . S
C1696 C1698 1.353 . S
C1696 H1702 0.930 . S
N1697 Li1673 1.990 . S
N1697 C1696 1.314 . S
N1697 C1700 1.279 . S
C1698 C1696 1.353 . S
C1698 C1701 1.348 . S
C1698 H1746 0.929 . S
C1699 C1700 1.358 . S
C1699 C1701 1.356 . S
C1699 H1747 0.930 . S
C1700 N1697 1.279 . S
C1700 C1699 1.358 . S
C1700 H1703 0.930 . S
C1701 C1698 1.348 . S
C1701 C1699 1.356 . S
H1702 C1696 0.930 . S
H1703 C1700 0.930 . S
C1704 C1706 1.348 . S
C1704 C1707 1.356 . S
C1704 O1734 1.325 . S
N1705 C1708 1.314 . S
N1705 C1709 1.279 . S
C1706 C1704 1.348 . S
C1706 C1708 1.353 . S
C1706 H1748 0.929 . S
C1707 C1704 1.356 . S
C1707 C1709 1.358 . S
C1707 H1749 0.930 . S
C1708 N1705 1.314 . S
C1708 C1706 1.353 . S
C1708 H1750 0.930 . S
C1709 N1705 1.279 . S
C1709 C1707 1.358 . S
C1709 H1751 0.930 . S
C1710 C1711 1.348 . S
C1710 C1712 1.356 . S
C1710 O1735 1.325 . S
C1711 C1710 1.348 . S
C1711 C1713 1.353 . S
C1711 H1752 0.929 . S
C1712 C1710 1.356 . S
C1712 C1714 1.358 . S
C1712 H1753 0.930 . S
C1713 C1711 1.353 . S
C1713 N1715 1.314 . S
C1713 H1754 0.930 . S
C1714 C1712 1.358 . S
C1714 N1715 1.279 . S
C1714 H1755 0.930 . S
N1715 C1713 1.314 . S
N1715 C1714 1.279 . S
C1716 C1718 1.353 . S
C1716 N1719 1.314 . S
C1716 H1722 0.930 . S
C1717 N1719 1.279 . S
C1717 C1720 1.358 . S
C1717 H1723 0.930 . S
C1718 C1716 1.353 . S
C1718 C1721 1.348 . S
C1718 H1756 0.929 . S
N1719 Li1674 1.990 . S
N1719 C1716 1.314 . S
N1719 C1717 1.279 . S
C1720 C1717 1.358 . S
C1720 C1721 1.356 . S
C1720 H1757 0.930 . S
C1721 C1718 1.348 . S
C1721 C1720 1.356 . S
H1722 C1716 0.930 . S
H1723 C1717 0.930 . S
C1724 N1725 1.314 . S
C1724 C1726 1.353 . S
C1724 H1730 0.930 . S
N1725 Li1675 1.990 . S
N1725 C1724 1.314 . S
N1725 C1728 1.279 . S
C1726 C1724 1.353 . S
C1726 C1729 1.348 . S
C1726 H1758 0.929 . S
C1727 C1728 1.358 . S
C1727 C1729 1.356 . S
C1727 H1759 0.930 . S
C1728 N1725 1.279 . S
C1728 C1727 1.358 . S
C1728 H1731 0.930 . S
C1729 C1726 1.348 . S
C1729 C1727 1.356 . S
H1730 C1724 0.930 . S
H1731 C1728 0.930 . S
O1732 Li1672 1.956 . S
O1732 Li1673 1.970 . S
O1732 Li1674 1.961 . S
O1732 C1676 1.325 . S
O1733 Li1672 1.970 . S
O1733 Li1673 1.956 . S
O1733 Li1675 1.961 . S
O1733 C1682 1.325 . S
O1734 Li1672 1.961 . S
O1734 Li1674 1.956 . S
O1734 Li1675 1.970 . S
O1734 C1704 1.325 . S
O1735 Li1673 1.961 . S
O1735 Li1674 1.970 . S
O1735 Li1675 1.956 . S
O1735 C1710 1.325 . S
H1736 C1678 0.929 . S
H1737 C1679 0.930 . S
H1738 C1680 0.930 . S
H1739 C1681 0.930 . S
H1740 C1683 0.930 . S
H1741 C1685 0.929 . S
H1742 C1686 0.930 . S
H1743 C1687 0.930 . S
H1744 C1690 0.930 . S
H1745 C1693 0.929 . S
H1746 C1698 0.929 . S
H1747 C1699 0.930 . S
H1748 C1706 0.929 . S
H1749 C1707 0.930 . S
H1750 C1708 0.930 . S
H1751 C1709 0.930 . S
H1752 C1711 0.929 . S
H1753 C1712 0.930 . S
H1754 C1713 0.930 . S
H1755 C1714 0.930 . S
H1756 C1718 0.929 . S
H1757 C1720 0.930 . S
H1758 C1726 0.929 . S
H1759 C1727 0.930 . S
Li1760 N1777 1.990 . S
Li1760 O1820 1.956 . S
Li1760 O1821 1.970 . S
Li1760 O1822 1.961 . S
Li1761 N1785 1.990 . S
Li1761 O1820 1.970 . S
Li1761 O1821 1.956 . S
Li1761 O1823 1.961 . S
Li1762 N1807 1.990 . S
Li1762 O1820 1.961 . S
Li1762 O1822 1.956 . S
Li1762 O1823 1.970 . S
Li1763 N1813 1.990 . S
Li1763 O1821 1.961 . S
Li1763 O1822 1.970 . S
Li1763 O1823 1.956 . S
C1764 C1766 1.348 . S
C1764 C1767 1.356 . S
C1764 O1820 1.325 . S
N1765 C1768 1.314 . S
N1765 C1769 1.279 . S
C1766 C1764 1.348 . S
C1766 C1768 1.353 . S
C1766 H1824 0.929 . S
C1767 C1764 1.356 . S
C1767 C1769 1.358 . S
C1767 H1825 0.930 . S
C1768 N1765 1.314 . S
C1768 C1766 1.353 . S
C1768 H1826 0.930 . S
C1769 N1765 1.279 . S
C1769 C1767 1.358 . S
C1769 H1827 0.930 . S
C1770 C1773 1.348 . S
C1770 C1774 1.356 . S
C1770 O1821 1.325 . S
C1771 N1772 1.279 . S
C1771 C1774 1.358 . S
C1771 H1828 0.930 . S
N1772 C1771 1.279 . S
N1772 C1775 1.314 . S
C1773 C1770 1.348 . S
C1773 C1775 1.353 . S
C1773 H1829 0.929 . S
C1774 C1770 1.356 . S
C1774 C1771 1.358 . S
C1774 H1830 0.930 . S
C1775 N1772 1.314 . S
C1775 C1773 1.353 . S
C1775 H1831 0.930 . S
C1776 N1777 1.314 . S
C1776 C1781 1.353 . S
C1776 H1782 0.930 . S
N1777 Li1760 1.990 . S
N1777 C1776 1.314 . S
N1777 C1779 1.279 . S
C1778 C1779 1.358 . S
C1778 C1780 1.356 . S
C1778 H1832 0.930 . S
C1779 N1777 1.279 . S
C1779 C1778 1.358 . S
C1779 H1783 0.930 . S
C1780 C1778 1.356 . S
C1780 C1781 1.348 . S
C1781 C1776 1.353 . S
C1781 C1780 1.348 . S
C1781 H1833 0.929 . S
H1782 C1776 0.930 . S
H1783 C1779 0.930 . S
C1784 N1785 1.314 . S
C1784 C1786 1.353 . S
C1784 H1790 0.930 . S
N1785 Li1761 1.990 . S
N1785 C1784 1.314 . S
N1785 C1788 1.279 . S
C1786 C1784 1.353 . S
C1786 C1789 1.348 . S
C1786 H1834 0.929 . S
C1787 C1788 1.358 . S
C1787 C1789 1.356 . S
C1787 H1835 0.930 . S
C1788 N1785 1.279 . S
C1788 C1787 1.358 . S
C1788 H1791 0.930 . S
C1789 C1786 1.348 . S
C1789 C1787 1.356 . S
H1790 C1784 0.930 . S
H1791 C1788 0.930 . S
C1792 C1794 1.348 . S
C1792 C1795 1.356 . S
C1792 O1822 1.325 . S
N1793 C1796 1.314 . S
N1793 C1797 1.279 . S
C1794 C1792 1.348 . S
C1794 C1796 1.353 . S
C1794 H1836 0.929 . S
C1795 C1792 1.356 . S
C1795 C1797 1.358 . S
C1795 H1837 0.930 . S
C1796 N1793 1.314 . S
C1796 C1794 1.353 . S
C1796 H1838 0.930 . S
C1797 N1793 1.279 . S
C1797 C1795 1.358 . S
C1797 H1839 0.930 . S
C1798 C1799 1.348 . S
C1798 C1800 1.356 . S
C1798 O1823 1.325 . S
C1799 C1798 1.348 . S
C1799 C1801 1.353 . S
C1799 H1840 0.929 . S
C1800 C1798 1.356 . S
C1800 C1802 1.358 . S
C1800 H1841 0.930 . S
C1801 C1799 1.353 . S
C1801 N1803 1.314 . S
C1801 H1842 0.930 . S
C1802 C1800 1.358 . S
C1802 N1803 1.279 . S
C1802 H1843 0.930 . S
N1803 C1801 1.314 . S
N1803 C1802 1.279 . S
C1804 C1806 1.353 . S
C1804 N1807 1.314 . S
C1804 H1810 0.930 . S
C1805 N1807 1.279 . S
C1805 C1808 1.358 . S
C1805 H1811 0.930 . S
C1806 C1804 1.353 . S
C1806 C1809 1.348 . S
C1806 H1844 0.929 . S
N1807 Li1762 1.990 . S
N1807 C1804 1.314 . S
N1807 C1805 1.279 . S
C1808 C1805 1.358 . S
C1808 C1809 1.356 . S
C1808 H1845 0.930 . S
C1809 C1806 1.348 . S
C1809 C1808 1.356 . S
H1810 C1804 0.930 . S
H1811 C1805 0.930 . S
C1812 N1813 1.314 . S
C1812 C1814 1.353 . S
C1812 H1818 0.930 . S
N1813 Li1763 1.990 . S
N1813 C1812 1.314 . S
N1813 C1816 1.279 . S
C1814 C1812 1.353 . S
C1814 C1817 1.348 . S
C1814 H1846 0.929 . S
C1815 C1816 1.358 . S
C1815 C1817 1.356 . S
C1815 H1847 0.930 . S
C1816 N1813 1.279 . S
C1816 C1815 1.358 . S
C1816 H1819 0.930 . S
C1817 C1814 1.348 . S
C1817 C1815 1.356 . S
H1818 C1812 0.930 . S
H1819 C1816 0.930 . S
O1820 Li1760 1.956 . S
O1820 Li1761 1.970 . S
O1820 Li1762 1.961 . S
O1820 C1764 1.325 . S
O1821 Li1760 1.970 . S
O1821 Li1761 1.956 . S
O1821 Li1763 1.961 . S
O1821 C1770 1.325 . S
O1822 Li1760 1.961 . S
O1822 Li1762 1.956 . S
O1822 Li1763 1.970 . S
O1822 C1792 1.325 . S
O1823 Li1761 1.961 . S
O1823 Li1762 1.970 . S
O1823 Li1763 1.956 . S
O1823 C1798 1.325 . S
H1824 C1766 0.929 . S
H1825 C1767 0.930 . S
H1826 C1768 0.930 . S
H1827 C1769 0.930 . S
H1828 C1771 0.930 . S
H1829 C1773 0.929 . S
H1830 C1774 0.930 . S
H1831 C1775 0.930 . S
H1832 C1778 0.930 . S
H1833 C1781 0.929 . S
H1834 C1786 0.929 . S
H1835 C1787 0.930 . S
H1836 C1794 0.929 . S
H1837 C1795 0.930 . S
H1838 C1796 0.930 . S
H1839 C1797 0.930 . S
H1840 C1799 0.929 . S
H1841 C1800 0.930 . S
H1842 C1801 0.930 . S
H1843 C1802 0.930 . S
H1844 C1806 0.929 . S
H1845 C1808 0.930 . S
H1846 C1814 0.929 . S
H1847 C1815 0.930 . S
Li1848 N1865 1.990 . S
Li1848 O1908 1.956 . S
Li1848 O1909 1.970 . S
Li1848 O1910 1.961 . S
Li1849 N1873 1.990 . S
Li1849 O1908 1.970 . S
Li1849 O1909 1.956 . S
Li1849 O1911 1.961 . S
Li1850 N1895 1.990 . S
Li1850 O1908 1.961 . S
Li1850 O1910 1.956 . S
Li1850 O1911 1.970 . S
Li1851 N1901 1.990 . S
Li1851 O1909 1.961 . S
Li1851 O1910 1.970 . S
Li1851 O1911 1.956 . S
C1852 C1854 1.348 . S
C1852 C1855 1.356 . S
C1852 O1908 1.325 . S
N1853 C1856 1.314 . S
N1853 C1857 1.279 . S
C1854 C1852 1.348 . S
C1854 C1856 1.353 . S
C1854 H1912 0.929 . S
C1855 C1852 1.356 . S
C1855 C1857 1.358 . S
C1855 H1913 0.930 . S
C1856 N1853 1.314 . S
C1856 C1854 1.353 . S
C1856 H1914 0.930 . S
C1857 N1853 1.279 . S
C1857 C1855 1.358 . S
C1857 H1915 0.930 . S
C1858 C1861 1.348 . S
C1858 C1862 1.356 . S
C1858 O1909 1.325 . S
C1859 N1860 1.279 . S
C1859 C1862 1.358 . S
C1859 H1916 0.930 . S
N1860 C1859 1.279 . S
N1860 C1863 1.314 . S
C1861 C1858 1.348 . S
C1861 C1863 1.353 . S
C1861 H1917 0.929 . S
C1862 C1858 1.356 . S
C1862 C1859 1.358 . S
C1862 H1918 0.930 . S
C1863 N1860 1.314 . S
C1863 C1861 1.353 . S
C1863 H1919 0.930 . S
C1864 N1865 1.314 . S
C1864 C1869 1.353 . S
C1864 H1870 0.930 . S
N1865 Li1848 1.990 . S
N1865 C1864 1.314 . S
N1865 C1867 1.279 . S
C1866 C1867 1.358 . S
C1866 C1868 1.356 . S
C1866 H1920 0.930 . S
C1867 N1865 1.279 . S
C1867 C1866 1.358 . S
C1867 H1871 0.930 . S
C1868 C1866 1.356 . S
C1868 C1869 1.348 . S
C1869 C1864 1.353 . S
C1869 C1868 1.348 . S
C1869 H1921 0.929 . S
H1870 C1864 0.930 . S
H1871 C1867 0.930 . S
C1872 N1873 1.314 . S
C1872 C1874 1.353 . S
C1872 H1878 0.930 . S
N1873 Li1849 1.990 . S
N1873 C1872 1.314 . S
N1873 C1876 1.279 . S
C1874 C1872 1.353 . S
C1874 C1877 1.348 . S
C1874 H1922 0.929 . S
C1875 C1876 1.358 . S
C1875 C1877 1.356 . S
C1875 H1923 0.930 . S
C1876 N1873 1.279 . S
C1876 C1875 1.358 . S
C1876 H1879 0.930 . S
C1877 C1874 1.348 . S
C1877 C1875 1.356 . S
H1878 C1872 0.930 . S
H1879 C1876 0.930 . S
C1880 C1882 1.348 . S
C1880 C1883 1.356 . S
C1880 O1910 1.325 . S
N1881 C1884 1.314 . S
N1881 C1885 1.279 . S
C1882 C1880 1.348 . S
C1882 C1884 1.353 . S
C1882 H1924 0.929 . S
C1883 C1880 1.356 . S
C1883 C1885 1.358 . S
C1883 H1925 0.930 . S
C1884 N1881 1.314 . S
C1884 C1882 1.353 . S
C1884 H1926 0.930 . S
C1885 N1881 1.279 . S
C1885 C1883 1.358 . S
C1885 H1927 0.930 . S
C1886 C1887 1.348 . S
C1886 C1888 1.356 . S
C1886 O1911 1.325 . S
C1887 C1886 1.348 . S
C1887 C1889 1.353 . S
C1887 H1928 0.929 . S
C1888 C1886 1.356 . S
C1888 C1890 1.358 . S
C1888 H1929 0.930 . S
C1889 C1887 1.353 . S
C1889 N1891 1.314 . S
C1889 H1930 0.930 . S
C1890 C1888 1.358 . S
C1890 N1891 1.279 . S
C1890 H1931 0.930 . S
N1891 C1889 1.314 . S
N1891 C1890 1.279 . S
C1892 C1894 1.353 . S
C1892 N1895 1.314 . S
C1892 H1898 0.930 . S
C1893 N1895 1.279 . S
C1893 C1896 1.358 . S
C1893 H1899 0.930 . S
C1894 C1892 1.353 . S
C1894 C1897 1.348 . S
C1894 H1932 0.929 . S
N1895 Li1850 1.990 . S
N1895 C1892 1.314 . S
N1895 C1893 1.279 . S
C1896 C1893 1.358 . S
C1896 C1897 1.356 . S
C1896 H1933 0.930 . S
C1897 C1894 1.348 . S
C1897 C1896 1.356 . S
H1898 C1892 0.930 . S
H1899 C1893 0.930 . S
C1900 N1901 1.314 . S
C1900 C1902 1.353 . S
C1900 H1906 0.930 . S
N1901 Li1851 1.990 . S
N1901 C1900 1.314 . S
N1901 C1904 1.279 . S
C1902 C1900 1.353 . S
C1902 C1905 1.348 . S
C1902 H1934 0.929 . S
C1903 C1904 1.358 . S
C1903 C1905 1.356 . S
C1903 H1935 0.930 . S
C1904 N1901 1.279 . S
C1904 C1903 1.358 . S
C1904 H1907 0.930 . S
C1905 C1902 1.348 . S
C1905 C1903 1.356 . S
H1906 C1900 0.930 . S
H1907 C1904 0.930 . S
O1908 Li1848 1.956 . S
O1908 Li1849 1.970 . S
O1908 Li1850 1.961 . S
O1908 C1852 1.325 . S
O1909 Li1848 1.970 . S
O1909 Li1849 1.956 . S
O1909 Li1851 1.961 . S
O1909 C1858 1.325 . S
O1910 Li1848 1.961 . S
O1910 Li1850 1.956 . S
O1910 Li1851 1.970 . S
O1910 C1880 1.325 . S
O1911 Li1849 1.961 . S
O1911 Li1850 1.970 . S
O1911 Li1851 1.956 . S
O1911 C1886 1.325 . S
H1912 C1854 0.929 . S
H1913 C1855 0.930 . S
H1914 C1856 0.930 . S
H1915 C1857 0.930 . S
H1916 C1859 0.930 . S
H1917 C1861 0.929 . S
H1918 C1862 0.930 . S
H1919 C1863 0.930 . S
H1920 C1866 0.930 . S
H1921 C1869 0.929 . S
H1922 C1874 0.929 . S
H1923 C1875 0.930 . S
H1924 C1882 0.929 . S
H1925 C1883 0.930 . S
H1926 C1884 0.930 . S
H1927 C1885 0.930 . S
H1928 C1887 0.929 . S
H1929 C1888 0.930 . S
H1930 C1889 0.930 . S
H1931 C1890 0.930 . S
H1932 C1894 0.929 . S
H1933 C1896 0.930 . S
H1934 C1902 0.929 . S
H1935 C1903 0.930 . S
Li1936 N1953 1.990 . S
Li1936 O1996 1.956 . S
Li1936 O1997 1.970 . S
Li1936 O1998 1.961 . S
Li1937 N1961 1.990 . S
Li1937 O1996 1.970 . S
Li1937 O1997 1.956 . S
Li1937 O1999 1.961 . S
Li1938 N1983 1.990 . S
Li1938 O1996 1.961 . S
Li1938 O1998 1.956 . S
Li1938 O1999 1.970 . S
Li1939 N1989 1.990 . S
Li1939 O1997 1.961 . S
Li1939 O1998 1.970 . S
Li1939 O1999 1.956 . S
C1940 C1942 1.348 . S
C1940 C1943 1.356 1_565 S
C1940 O1996 1.325 . S
N1941 C1944 1.314 1_545 S
N1941 C1945 1.279 . S
C1942 C1940 1.348 . S
C1942 C1944 1.353 . S
C1942 H2000 0.929 . S
C1943 C1940 1.356 1_545 S
C1943 C1945 1.358 . S
C1943 H2001 0.930 . S
C1944 N1941 1.314 1_565 S
C1944 C1942 1.353 . S
C1944 H2002 0.930 . S
C1945 N1941 1.279 . S
C1945 C1943 1.358 . S
C1945 H2003 0.930 . S
C1946 C1949 1.348 1_556 S
C1946 C1950 1.356 . S
C1946 O1997 1.325 . S
C1947 N1948 1.279 1_556 S
C1947 C1950 1.358 . S
C1947 H2004 0.930 . S
N1948 C1947 1.279 1_554 S
N1948 C1951 1.314 . S
C1949 C1946 1.348 1_554 S
C1949 C1951 1.353 . S
C1949 H2005 0.929 . S
C1950 C1946 1.356 . S
C1950 C1947 1.358 . S
C1950 H2006 0.930 . S
C1951 N1948 1.314 . S
C1951 C1949 1.353 . S
C1951 H2007 0.930 . S
C1952 N1953 1.305 1_545 S
C1952 C1957 1.370 1_556 S
C1952 H1958 0.913 1_545 S
N1953 Li1936 1.990 . S
N1953 C1952 1.305 1_565 S
N1953 C1955 1.279 1_565 S
C1954 C1955 1.358 1_554 S
C1954 C1956 1.356 . S
C1954 H2008 0.930 . S
C1955 N1953 1.279 1_545 S
C1955 C1954 1.358 1_556 S
C1955 H1959 0.930 . S
C1956 C1954 1.356 . S
C1956 C1957 1.355 . S
C1957 C1952 1.370 1_554 S
C1957 C1956 1.355 . S
C1957 H2009 0.928 . S
H1958 C1952 0.913 1_565 S
H1959 C1955 0.930 . S
C1960 N1961 1.314 . S
C1960 C1962 1.353 . S
C1960 H1966 0.930 . S
N1961 Li1937 1.990 . S
N1961 C1960 1.314 . S
N1961 C1964 1.279 . S
C1962 C1960 1.353 . S
C1962 C1965 1.348 . S
C1962 H2010 0.929 . S
C1963 C1964 1.358 . S
C1963 C1965 1.356 . S
C1963 H2011 0.930 1_556 S
C1964 N1961 1.279 . S
C1964 C1963 1.358 . S
C1964 H1967 0.930 . S
C1965 C1962 1.348 . S
C1965 C1963 1.356 . S
H1966 C1960 0.930 . S
H1967 C1964 0.930 . S
C1968 C1970 1.348 . S
C1968 C1971 1.356 1_565 S
C1968 O1998 1.325 . S
N1969 C1972 1.314 1_545 S
N1969 C1973 1.279 . S
C1970 C1968 1.348 . S
C1970 C1972 1.353 . S
C1970 H2012 0.929 . S
C1971 C1968 1.356 1_545 S
C1971 C1973 1.358 . S
C1971 H2013 0.930 . S
C1972 N1969 1.314 1_565 S
C1972 C1970 1.353 . S
C1972 H2014 0.930 . S
C1973 N1969 1.279 . S
C1973 C1971 1.358 . S
C1973 H2015 0.930 . S
C1974 C1975 1.348 . S
C1974 C1976 1.356 . S
C1974 O1999 1.325 . S
C1975 C1974 1.348 . S
C1975 C1977 1.353 . S
C1975 H2016 0.929 . S
C1976 C1974 1.356 . S
C1976 C1978 1.358 . S
C1976 H2017 0.930 . S
C1977 C1975 1.353 . S
C1977 N1979 1.314 . S
C1977 H2018 0.930 . S
C1978 C1976 1.358 . S
C1978 N1979 1.279 . S
C1978 H2019 0.930 . S
N1979 C1977 1.314 . S
N1979 C1978 1.279 . S
C1980 C1982 1.353 . S
C1980 N1983 1.314 . S
C1980 H1986 0.930 . S
C1981 N1983 1.279 . S
C1981 C1984 1.358 1_565 S
C1981 H1987 0.930 . S
C1982 C1980 1.353 . S
C1982 C1985 1.348 1_565 S
C1982 H2020 0.929 . S
N1983 Li1938 1.990 . S
N1983 C1980 1.314 . S
N1983 C1981 1.279 . S
C1984 C1981 1.358 1_545 S
C1984 C1985 1.356 . S
C1984 H2021 0.930 . S
C1985 C1982 1.348 1_545 S
C1985 C1984 1.356 . S
H1986 C1980 0.930 . S
H1987 C1981 0.930 . S
C1988 N1989 1.314 . S
C1988 C1990 1.353 . S
C1988 H1994 0.930 . S
N1989 Li1939 1.990 . S
N1989 C1988 1.314 . S
N1989 C1992 1.279 . S
C1990 C1988 1.353 . S
C1990 C1993 1.348 . S
C1990 H2022 0.929 . S
C1991 C1992 1.358 . S
C1991 C1993 1.356 . S
C1991 H2023 0.930 . S
C1992 N1989 1.279 . S
C1992 C1991 1.358 . S
C1992 H1995 0.930 . S
C1993 C1990 1.348 . S
C1993 C1991 1.356 . S
H1994 C1988 0.930 . S
H1995 C1992 0.930 . S
O1996 Li1936 1.956 . S
O1996 Li1937 1.970 . S
O1996 Li1938 1.961 . S
O1996 C1940 1.325 . S
O1997 Li1936 1.970 . S
O1997 Li1937 1.956 . S
O1997 Li1939 1.961 . S
O1997 C1946 1.325 . S
O1998 Li1936 1.961 . S
O1998 Li1938 1.956 . S
O1998 Li1939 1.970 . S
O1998 C1968 1.325 . S
O1999 Li1937 1.961 . S
O1999 Li1938 1.970 . S
O1999 Li1939 1.956 . S
O1999 C1974 1.325 . S
H2000 C1942 0.929 . S
H2001 C1943 0.930 . S
H2002 C1944 0.930 . S
H2003 C1945 0.930 . S
H2004 C1947 0.930 . S
H2005 C1949 0.929 . S
H2006 C1950 0.930 . S
H2007 C1951 0.930 . S
H2008 C1954 0.930 . S
H2009 C1957 0.928 . S
H2010 C1962 0.929 . S
H2011 C1963 0.930 1_554 S
H2012 C1970 0.929 . S
H2013 C1971 0.930 . S
H2014 C1972 0.930 . S
H2015 C1973 0.930 . S
H2016 C1975 0.929 . S
H2017 C1976 0.930 . S
H2018 C1977 0.930 . S
H2019 C1978 0.930 . S
H2020 C1982 0.929 . S
H2021 C1984 0.930 . S
H2022 C1990 0.929 . S
H2023 C1991 0.930 . S
Li2024 N2041 1.990 . S
Li2024 O2084 1.956 . S
Li2024 O2085 1.970 . S
Li2024 O2086 1.961 . S
Li2025 N2049 1.990 . S
Li2025 O2084 1.970 . S
Li2025 O2085 1.956 . S
Li2025 O2087 1.961 . S
Li2026 N2071 1.990 . S
Li2026 O2084 1.961 . S
Li2026 O2086 1.956 . S
Li2026 O2087 1.970 . S
Li2027 N2077 1.990 . S
Li2027 O2085 1.961 . S
Li2027 O2086 1.970 . S
Li2027 O2087 1.956 . S
C2028 C2030 1.348 . S
C2028 C2031 1.356 1_545 S
C2028 O2084 1.325 . S
N2029 C2032 1.314 1_565 S
N2029 C2033 1.279 . S
C2030 C2028 1.348 . S
C2030 C2032 1.353 . S
C2030 H2088 0.929 . S
C2031 C2028 1.356 1_565 S
C2031 C2033 1.358 . S
C2031 H2089 0.930 . S
C2032 N2029 1.314 1_545 S
C2032 C2030 1.353 . S
C2032 H2090 0.930 . S
C2033 N2029 1.279 . S
C2033 C2031 1.358 . S
C2033 H2091 0.930 . S
C2034 C2037 1.348 . S
C2034 C2038 1.356 . S
C2034 O2085 1.325 . S
C2035 N2036 1.279 . S
C2035 C2038 1.358 . S
C2035 H2092 0.930 . S
N2036 C2035 1.279 . S
N2036 C2039 1.314 . S
C2037 C2034 1.348 . S
C2037 C2039 1.353 . S
C2037 H2093 0.929 . S
C2038 C2034 1.356 . S
C2038 C2035 1.358 . S
C2038 H2094 0.930 . S
C2039 N2036 1.314 . S
C2039 C2037 1.353 . S
C2039 H2095 0.930 . S
C2040 N2041 1.305 1_565 S
C2040 C2045 1.378 . S
C2040 H2046 0.913 1_565 S
N2041 Li2024 1.990 . S
N2041 C2040 1.305 1_545 S
N2041 C2043 1.279 1_545 S
C2042 C2043 1.358 . S
C2042 C2044 1.356 . S
C2042 H2096 0.930 . S
C2043 N2041 1.279 1_565 S
C2043 C2042 1.358 . S
C2043 H2047 0.930 . S
C2044 C2042 1.356 . S
C2044 C2045 1.348 . S
C2045 C2040 1.378 . S
C2045 C2044 1.348 . S
C2045 H2097 0.929 . S
H2046 C2040 0.913 1_545 S
H2047 C2043 0.930 . S
C2048 N2049 1.314 . S
C2048 C2050 1.353 . S
C2048 H2054 0.930 . S
N2049 Li2025 1.990 . S
N2049 C2048 1.314 . S
N2049 C2052 1.279 . S
C2050 C2048 1.353 . S
C2050 C2053 1.348 . S
C2050 H2098 0.929 . S
C2051 C2052 1.358 . S
C2051 C2053 1.356 . S
C2051 H2099 0.930 . S
C2052 N2049 1.279 . S
C2052 C2051 1.358 . S
C2052 H2055 0.930 . S
C2053 C2050 1.348 . S
C2053 C2051 1.356 . S
H2054 C2048 0.930 . S
H2055 C2052 0.930 . S
C2056 C2058 1.348 . S
C2056 C2059 1.356 1_545 S
C2056 O2086 1.325 . S
N2057 C2060 1.314 1_565 S
N2057 C2061 1.279 . S
C2058 C2056 1.348 . S
C2058 C2060 1.353 . S
C2058 H2100 0.929 . S
C2059 C2056 1.356 1_565 S
C2059 C2061 1.358 . S
C2059 H2101 0.930 . S
C2060 N2057 1.314 1_545 S
C2060 C2058 1.353 . S
C2060 H2102 0.930 . S
C2061 N2057 1.279 . S
C2061 C2059 1.358 . S
C2061 H2103 0.930 . S
C2062 C2063 1.348 . S
C2062 C2064 1.356 . S
C2062 O2087 1.325 . S
C2063 C2062 1.348 . S
C2063 C2065 1.353 . S
C2063 H2104 0.929 . S
C2064 C2062 1.356 . S
C2064 C2066 1.358 . S
C2064 H2105 0.930 . S
C2065 C2063 1.353 . S
C2065 N2067 1.314 . S
C2065 H2106 0.930 . S
C2066 C2064 1.358 . S
C2066 N2067 1.279 . S
C2066 H2107 0.930 . S
N2067 C2065 1.314 . S
N2067 C2066 1.279 . S
C2068 C2070 1.353 . S
C2068 N2071 1.314 . S
C2068 H2074 0.930 . S
C2069 N2071 1.279 . S
C2069 C2072 1.358 1_545 S
C2069 H2075 0.930 . S
C2070 C2068 1.353 . S
C2070 C2073 1.348 1_545 S
C2070 H2108 0.929 . S
N2071 Li2026 1.990 . S
N2071 C2068 1.314 . S
N2071 C2069 1.279 . S
C2072 C2069 1.358 1_565 S
C2072 C2073 1.356 . S
C2072 H2109 0.930 . S
C2073 C2070 1.348 1_565 S
C2073 C2072 1.356 . S
H2074 C2068 0.930 . S
H2075 C2069 0.930 . S
C2076 N2077 1.314 . S
C2076 C2078 1.353 . S
C2076 H2082 0.930 . S
N2077 Li2027 1.990 . S
N2077 C2076 1.314 . S
N2077 C2080 1.279 . S
C2078 C2076 1.353 . S
C2078 C2081 1.348 . S
C2078 H2110 0.929 . S
C2079 C2080 1.358 . S
C2079 C2081 1.356 . S
C2079 H2111 0.930 . S
C2080 N2077 1.279 . S
C2080 C2079 1.358 . S
C2080 H2083 0.930 . S
C2081 C2078 1.348 . S
C2081 C2079 1.356 . S
H2082 C2076 0.930 . S
H2083 C2080 0.930 . S
O2084 Li2024 1.956 . S
O2084 Li2025 1.970 . S
O2084 Li2026 1.961 . S
O2084 C2028 1.325 . S
O2085 Li2024 1.970 . S
O2085 Li2025 1.956 . S
O2085 Li2027 1.961 . S
O2085 C2034 1.325 . S
O2086 Li2024 1.961 . S
O2086 Li2026 1.956 . S
O2086 Li2027 1.970 . S
O2086 C2056 1.325 . S
O2087 Li2025 1.961 . S
O2087 Li2026 1.970 . S
O2087 Li2027 1.956 . S
O2087 C2062 1.325 . S
H2088 C2030 0.929 . S
H2089 C2031 0.930 . S
H2090 C2032 0.930 . S
H2091 C2033 0.930 . S
H2092 C2035 0.930 . S
H2093 C2037 0.929 . S
H2094 C2038 0.930 . S
H2095 C2039 0.930 . S
H2096 C2042 0.930 . S
H2097 C2045 0.929 . S
H2098 C2050 0.929 . S
H2099 C2051 0.930 . S
H2100 C2058 0.929 . S
H2101 C2059 0.930 . S
H2102 C2060 0.930 . S
H2103 C2061 0.930 . S
H2104 C2063 0.929 . S
H2105 C2064 0.930 . S
H2106 C2065 0.930 . S
H2107 C2066 0.930 . S
H2108 C2070 0.929 . S
H2109 C2072 0.930 . S
H2110 C2078 0.929 . S
H2111 C2079 0.930 . S
C2112 C2113 1.387 . S
C2112 H2116 0.950 . S
C2112 C2121 1.390 . S
C2113 C2112 1.387 . S
C2113 C2115 1.387 . S
H2114 C2121 0.950 . S
C2115 C2113 1.387 . S
C2115 C2117 1.390 . S
C2115 H2119 0.950 . S
H2116 C2112 0.950 . S
C2117 C2115 1.390 . S
C2117 C2118 1.387 . S
C2117 H2120 0.950 . S
C2118 C2117 1.387 . S
C2118 C2121 1.387 . S
H2119 C2115 0.950 . S
H2120 C2117 0.950 . S
C2121 C2112 1.390 . S
C2121 H2114 0.950 . S
C2121 C2118 1.387 . S
C2122 C2123 1.387 . S
C2122 H2126 0.950 . S
C2122 C2131 1.390 . S
C2123 C2122 1.387 . S
C2123 C2125 1.387 . S
H2124 C2131 0.950 . S
C2125 C2123 1.387 . S
C2125 C2127 1.390 . S
C2125 H2129 0.950 . S
H2126 C2122 0.950 . S
C2127 C2125 1.390 . S
C2127 C2128 1.387 . S
C2127 H2130 0.950 . S
C2128 C2127 1.387 . S
C2128 C2131 1.387 . S
H2129 C2125 0.950 . S
H2130 C2127 0.950 . S
C2131 C2122 1.390 . S
C2131 H2124 0.950 . S
C2131 C2128 1.387 . S
C2132 C2133 1.387 . S
C2132 H2136 0.950 . S
C2132 C2141 1.390 . S
C2133 C2132 1.387 . S
C2133 C2135 1.387 . S
H2134 C2141 0.950 . S
C2135 C2133 1.387 . S
C2135 C2137 1.390 . S
C2135 H2139 0.950 . S
H2136 C2132 0.950 . S
C2137 C2135 1.390 . S
C2137 C2138 1.387 . S
C2137 H2140 0.950 . S
C2138 C2137 1.387 . S
C2138 C2141 1.387 . S
H2139 C2135 0.950 . S
H2140 C2137 0.950 . S
C2141 C2132 1.390 . S
C2141 H2134 0.950 . S
C2141 C2138 1.387 . S
C2142 C2143 1.387 . S
C2142 H2146 0.950 . S
C2142 C2151 1.390 . S
C2143 C2142 1.387 . S
C2143 C2145 1.387 . S
H2144 C2151 0.950 . S
C2145 C2143 1.387 . S
C2145 C2147 1.390 . S
C2145 H2149 0.950 . S
H2146 C2142 0.950 . S
C2147 C2145 1.390 . S
C2147 C2148 1.387 . S
C2147 H2150 0.950 . S
C2148 C2147 1.387 . S
C2148 C2151 1.387 . S
H2149 C2145 0.950 . S
H2150 C2147 0.950 . S
C2151 C2142 1.390 . S
C2151 H2144 0.950 . S
C2151 C2148 1.387 . S
C2152 C2153 1.387 . S
C2152 H2156 0.950 . S
C2152 C2161 1.390 . S
C2153 C2152 1.387 . S
C2153 C2155 1.387 . S
H2154 C2161 0.950 . S
C2155 C2153 1.387 . S
C2155 C2157 1.390 . S
C2155 H2159 0.950 . S
H2156 C2152 0.950 . S
C2157 C2155 1.390 . S
C2157 C2158 1.387 . S
C2157 H2160 0.950 . S
C2158 C2157 1.387 . S
C2158 C2161 1.387 . S
H2159 C2155 0.950 . S
H2160 C2157 0.950 . S
C2161 C2152 1.390 . S
C2161 H2154 0.950 . S
C2161 C2158 1.387 . S
C2162 C2163 1.387 . S
C2162 H2166 0.950 . S
C2162 C2171 1.390 . S
C2163 C2162 1.387 . S
C2163 C2165 1.387 . S
H2164 C2171 0.950 . S
C2165 C2163 1.387 . S
C2165 C2167 1.390 . S
C2165 H2169 0.950 . S
H2166 C2162 0.950 . S
C2167 C2165 1.390 . S
C2167 C2168 1.387 . S
C2167 H2170 0.950 . S
C2168 C2167 1.387 . S
C2168 C2171 1.387 . S
H2169 C2165 0.950 . S
H2170 C2167 0.950 . S
C2171 C2162 1.390 . S
C2171 H2164 0.950 . S
C2171 C2168 1.387 . S
C2172 C2173 1.387 . S
C2172 H2176 0.950 . S
C2172 C2181 1.390 . S
C2173 C2172 1.387 . S
C2173 C2175 1.387 . S
H2174 C2181 0.950 . S
C2175 C2173 1.387 . S
C2175 C2177 1.390 . S
C2175 H2179 0.950 . S
H2176 C2172 0.950 . S
C2177 C2175 1.390 . S
C2177 C2178 1.387 . S
C2177 H2180 0.950 . S
C2178 C2177 1.387 . S
C2178 C2181 1.387 . S
H2179 C2175 0.950 . S
H2180 C2177 0.950 . S
C2181 C2172 1.390 . S
C2181 H2174 0.950 . S
C2181 C2178 1.387 . S
C2182 C2183 1.387 . S
C2182 H2186 0.950 . S
C2182 C2191 1.390 . S
C2183 C2182 1.387 . S
C2183 C2185 1.387 . S
H2184 C2191 0.950 . S
C2185 C2183 1.387 . S
C2185 C2187 1.390 . S
C2185 H2189 0.950 . S
H2186 C2182 0.950 . S
C2187 C2185 1.390 . S
C2187 C2188 1.387 . S
C2187 H2190 0.950 . S
C2188 C2187 1.387 . S
C2188 C2191 1.387 . S
H2189 C2185 0.950 . S
H2190 C2187 0.950 . S
C2191 C2182 1.390 . S
C2191 H2184 0.950 . S
C2191 C2188 1.387 . S
C2192 C2193 1.387 . S
C2192 H2196 0.950 . S
C2192 C2201 1.390 . S
C2193 C2192 1.387 . S
C2193 C2195 1.387 . S
H2194 C2201 0.950 . S
C2195 C2193 1.387 . S
C2195 C2197 1.390 . S
C2195 H2199 0.950 . S
H2196 C2192 0.950 . S
C2197 C2195 1.390 . S
C2197 C2198 1.387 . S
C2197 H2200 0.950 . S
C2198 C2197 1.387 . S
C2198 C2201 1.387 . S
H2199 C2195 0.950 . S
H2200 C2197 0.950 . S
C2201 C2192 1.390 . S
C2201 H2194 0.950 . S
C2201 C2198 1.387 . S
C2202 C2203 1.387 . S
C2202 H2206 0.950 . S
C2202 C2211 1.390 . S
C2203 C2202 1.387 . S
C2203 C2205 1.387 . S
H2204 C2211 0.950 . S
C2205 C2203 1.387 . S
C2205 C2207 1.390 . S
C2205 H2209 0.950 . S
H2206 C2202 0.950 . S
C2207 C2205 1.390 . S
C2207 C2208 1.387 . S
C2207 H2210 0.950 . S
C2208 C2207 1.387 . S
C2208 C2211 1.387 . S
H2209 C2205 0.950 . S
H2210 C2207 0.950 . S
C2211 C2202 1.390 . S
C2211 H2204 0.950 . S
C2211 C2208 1.387 . S
C2212 C2213 1.387 . S
C2212 H2216 0.950 . S
C2212 C2221 1.390 . S
C2213 C2212 1.387 . S
C2213 C2215 1.387 . S
H2214 C2221 0.950 . S
C2215 C2213 1.387 . S
C2215 C2217 1.390 . S
C2215 H2219 0.950 . S
H2216 C2212 0.950 . S
C2217 C2215 1.390 . S
C2217 C2218 1.387 . S
C2217 H2220 0.950 . S
C2218 C2217 1.387 . S
C2218 C2221 1.387 . S
H2219 C2215 0.950 . S
H2220 C2217 0.950 . S
C2221 C2212 1.390 . S
C2221 H2214 0.950 . S
C2221 C2218 1.387 . S
C2222 C2223 1.387 . S
C2222 H2226 0.950 . S
C2222 C2231 1.390 . S
C2223 C2222 1.387 . S
C2223 C2225 1.387 . S
H2224 C2231 0.950 . S
C2225 C2223 1.387 . S
C2225 C2227 1.390 . S
C2225 H2229 0.950 . S
H2226 C2222 0.950 . S
C2227 C2225 1.390 . S
C2227 C2228 1.387 . S
C2227 H2230 0.950 . S
C2228 C2227 1.387 . S
C2228 C2231 1.387 . S
H2229 C2225 0.950 . S
H2230 C2227 0.950 . S
C2231 C2222 1.390 . S
C2231 H2224 0.950 . S
C2231 C2228 1.387 . S
C2232 C2233 1.387 . S
C2232 H2236 0.950 . S
C2232 C2241 1.390 . S
C2233 C2232 1.387 . S
C2233 C2235 1.387 . S
H2234 C2241 0.950 . S
C2235 C2233 1.387 . S
C2235 C2237 1.390 . S
C2235 H2239 0.950 . S
H2236 C2232 0.950 . S
C2237 C2235 1.390 . S
C2237 C2238 1.387 . S
C2237 H2240 0.950 . S
C2238 C2237 1.387 . S
C2238 C2241 1.387 . S
H2239 C2235 0.950 . S
H2240 C2237 0.950 . S
C2241 C2232 1.390 . S
C2241 H2234 0.950 . S
C2241 C2238 1.387 . S
C2242 C2243 1.387 1_545 S
C2242 H2246 0.950 . S
C2242 C2251 1.390 . S
C2243 C2242 1.387 1_565 S
C2243 C2245 1.387 . S
H2244 C2251 0.950 . S
C2245 C2243 1.387 . S
C2245 C2247 1.390 1_565 S
C2245 H2249 0.950 . S
H2246 C2242 0.950 . S
C2247 C2245 1.390 1_545 S
C2247 C2248 1.387 . S
C2247 H2250 0.950 1_545 S
C2248 C2247 1.387 . S
C2248 C2251 1.387 . S
H2249 C2245 0.950 . S
H2250 C2247 0.950 1_565 S
C2251 C2242 1.390 . S
C2251 H2244 0.950 . S
C2251 C2248 1.387 . S
C2252 C2253 1.387 . S
C2252 H2256 0.950 . S
C2252 C2261 1.390 1_556 S
C2253 C2252 1.387 . S
C2253 C2255 1.387 . S
H2254 C2261 0.950 . S
C2255 C2253 1.387 . S
C2255 C2257 1.390 . S
C2255 H2259 0.950 . S
H2256 C2252 0.950 . S
C2257 C2255 1.390 . S
C2257 C2258 1.387 1_556 S
C2257 H2260 0.950 . S
C2258 C2257 1.387 1_554 S
C2258 C2261 1.387 . S
H2259 C2255 0.950 . S
H2260 C2257 0.950 . S
C2261 C2252 1.390 1_554 S
C2261 H2254 0.950 . S
C2261 C2258 1.387 . S
C2262 C2263 1.387 1_565 S
C2262 H2266 0.950 . S
C2262 C2271 1.390 . S
C2263 C2262 1.387 1_545 S
C2263 C2265 1.387 . S
H2264 C2271 0.950 . S
C2265 C2263 1.387 . S
C2265 C2267 1.390 1_545 S
C2265 H2269 0.950 . S
H2266 C2262 0.950 . S
C2267 C2265 1.390 1_565 S
C2267 C2268 1.387 . S
C2267 H2270 0.950 1_565 S
C2268 C2267 1.387 . S
C2268 C2271 1.387 . S
H2269 C2265 0.950 . S
H2270 C2267 0.950 1_545 S
C2271 C2262 1.390 . S
C2271 H2264 0.950 . S
C2271 C2268 1.387 . S
C2272 C2273 1.387 . S
C2272 H2276 0.950 . S
C2272 C2281 1.390 . S
C2273 C2272 1.387 . S
C2273 C2275 1.387 . S
H2274 C2281 0.950 . S
C2275 C2273 1.387 . S
C2275 C2277 1.390 . S
C2275 H2279 0.950 . S
H2276 C2272 0.950 . S
C2277 C2275 1.390 . S
C2277 C2278 1.387 . S
C2277 H2280 0.950 . S
C2278 C2277 1.387 . S
C2278 C2281 1.387 . S
H2279 C2275 0.950 . S
H2280 C2277 0.950 . S
C2281 C2272 1.390 . S
C2281 H2274 0.950 . S
C2281 C2278 1.387 . S
C2282 C2283 1.387 . S
C2282 H2286 0.950 . S
C2282 C2291 1.390 . S
C2283 C2282 1.387 . S
C2283 C2285 1.387 . S
H2284 C2291 0.950 . S
C2285 C2283 1.387 . S
C2285 C2287 1.390 . S
C2285 H2289 0.950 . S
H2286 C2282 0.950 . S
C2287 C2285 1.390 . S
C2287 C2288 1.387 . S
C2287 H2290 0.950 . S
C2288 C2287 1.387 . S
C2288 C2291 1.387 . S
H2289 C2285 0.950 . S
H2290 C2287 0.950 . S
C2291 C2282 1.390 . S
C2291 H2284 0.950 . S
C2291 C2288 1.387 . S
C2292 C2293 1.387 1_554 S
C2292 H2296 0.950 . S
C2292 C2301 1.390 . S
C2293 C2292 1.387 1_556 S
C2293 C2295 1.387 . S
H2294 C2301 0.950 . S
C2295 C2293 1.387 . S
C2295 C2297 1.390 1_556 S
C2295 H2299 0.950 . S
H2296 C2292 0.950 . S
C2297 C2295 1.390 1_554 S
C2297 C2298 1.387 . S
C2297 H2300 0.950 . S
C2298 C2297 1.387 . S
C2298 C2301 1.387 . S
H2299 C2295 0.950 . S
H2300 C2297 0.950 . S
C2301 C2292 1.390 . S
C2301 H2294 0.950 . S
C2301 C2298 1.387 . S
C2302 C2303 1.387 . S
C2302 H2306 0.950 . S
C2302 C2311 1.390 . S
C2303 C2302 1.387 . S
C2303 C2305 1.387 . S
H2304 C2311 0.950 . S
C2305 C2303 1.387 . S
C2305 C2307 1.390 . S
C2305 H2309 0.950 . S
H2306 C2302 0.950 . S
C2307 C2305 1.390 . S
C2307 C2308 1.387 . S
C2307 H2310 0.950 . S
C2308 C2307 1.387 . S
C2308 C2311 1.387 . S
H2309 C2305 0.950 . S
H2310 C2307 0.950 . S
C2311 C2302 1.390 . S
C2311 H2304 0.950 . S
C2311 C2308 1.387 . S
C2312 C2313 1.387 . S
C2312 H2316 0.950 . S
C2312 C2321 1.390 . S
C2313 C2312 1.387 . S
C2313 C2315 1.387 . S
H2314 C2321 0.950 . S
C2315 C2313 1.387 . S
C2315 C2317 1.390 . S
C2315 H2319 0.950 . S
H2316 C2312 0.950 . S
C2317 C2315 1.390 . S
C2317 C2318 1.387 . S
C2317 H2320 0.950 . S
C2318 C2317 1.387 . S
C2318 C2321 1.387 . S
H2319 C2315 0.950 . S
H2320 C2317 0.950 . S
C2321 C2312 1.390 . S
C2321 H2314 0.950 . S
C2321 C2318 1.387 . S
C2322 C2323 1.390 . S
C2322 H2326 0.950 . S
C2322 C2331 1.390 1_455 S
C2323 C2322 1.390 . S
C2323 C2325 1.369 1_455 S
H2324 C2331 0.950 . S
C2325 C2323 1.369 1_655 S
C2325 C2327 1.390 . S
C2325 H2329 0.950 . S
H2326 C2322 0.950 . S
C2327 C2325 1.390 . S
C2327 C2328 1.387 . S
C2327 H2330 0.950 . S
C2328 C2327 1.387 . S
C2328 C2331 1.387 . S
H2329 C2325 0.950 . S
H2330 C2327 0.950 . S
C2331 C2322 1.390 1_655 S
C2331 H2324 0.950 . S
C2331 C2328 1.387 . S
C2332 C2333 1.368 1_455 S
C2332 H2336 0.950 . S
C2332 C2341 1.390 . S
C2333 C2332 1.368 1_655 S
C2333 C2335 1.389 . S
H2334 C2341 0.950 . S
C2335 C2333 1.389 . S
C2335 C2337 1.390 1_655 S
C2335 H2339 0.950 . S
H2336 C2332 0.950 . S
C2337 C2335 1.390 1_455 S
C2337 C2338 1.387 . S
C2337 H2340 0.950 . S
C2338 C2337 1.387 . S
C2338 C2341 1.387 . S
H2339 C2335 0.950 . S
H2340 C2337 0.950 . S
C2341 C2332 1.390 . S
C2341 H2334 0.950 . S
C2341 C2338 1.387 . S
C2342 C2343 1.387 . S
C2342 H2346 0.950 . S
C2342 C2351 1.390 . S
C2343 C2342 1.387 . S
C2343 C2345 1.387 . S
H2344 C2351 0.950 . S
C2345 C2343 1.387 . S
C2345 C2347 1.390 . S
C2345 H2349 0.950 . S
H2346 C2342 0.950 . S
C2347 C2345 1.390 . S
C2347 C2348 1.387 . S
C2347 H2350 0.950 . S
C2348 C2347 1.387 . S
C2348 C2351 1.387 . S
H2349 C2345 0.950 . S
H2350 C2347 0.950 . S
C2351 C2342 1.390 . S
C2351 H2344 0.950 . S
C2351 C2348 1.387 . S
C2352 C2353 1.387 . S
C2352 H2356 0.950 . S
C2352 C2361 1.390 . S
C2353 C2352 1.387 . S
C2353 C2355 1.387 . S
H2354 C2361 0.950 . S
C2355 C2353 1.387 . S
C2355 C2357 1.390 . S
C2355 H2359 0.950 . S
H2356 C2352 0.950 . S
C2357 C2355 1.390 . S
C2357 C2358 1.387 . S
C2357 H2360 0.950 . S
C2358 C2357 1.387 . S
C2358 C2361 1.387 . S
H2359 C2355 0.950 . S
H2360 C2357 0.950 . S
C2361 C2352 1.390 . S
C2361 H2354 0.950 . S
C2361 C2358 1.387 . S
C2362 C2363 1.387 . S
C2362 H2366 0.950 . S
C2362 C2371 1.390 . S
C2363 C2362 1.387 . S
C2363 C2365 1.387 . S
H2364 C2371 0.950 . S
C2365 C2363 1.387 . S
C2365 C2367 1.390 . S
C2365 H2369 0.950 . S
H2366 C2362 0.950 . S
C2367 C2365 1.390 . S
C2367 C2368 1.387 . S
C2367 H2370 0.950 . S
C2368 C2367 1.387 . S
C2368 C2371 1.387 . S
H2369 C2365 0.950 . S
H2370 C2367 0.950 . S
C2371 C2362 1.390 . S
C2371 H2364 0.950 . S
C2371 C2368 1.387 . S
C2372 C2373 1.387 . S
C2372 H2376 0.950 . S
C2372 C2381 1.390 . S
C2373 C2372 1.387 . S
C2373 C2375 1.387 . S
H2374 C2381 0.950 . S
C2375 C2373 1.387 . S
C2375 C2377 1.390 . S
C2375 H2379 0.950 . S
H2376 C2372 0.950 . S
C2377 C2375 1.390 . S
C2377 C2378 1.387 . S
C2377 H2380 0.950 . S
C2378 C2377 1.387 . S
C2378 C2381 1.387 . S
H2379 C2375 0.950 . S
H2380 C2377 0.950 . S
C2381 C2372 1.390 . S
C2381 H2374 0.950 . S
C2381 C2378 1.387 . S
C2382 C2383 1.387 . S
C2382 H2386 0.950 . S
C2382 C2391 1.390 . S
C2383 C2382 1.387 . S
C2383 C2385 1.387 . S
H2384 C2391 0.950 . S
C2385 C2383 1.387 . S
C2385 C2387 1.390 . S
C2385 H2389 0.950 . S
H2386 C2382 0.950 . S
C2387 C2385 1.390 . S
C2387 C2388 1.387 . S
C2387 H2390 0.950 . S
C2388 C2387 1.387 . S
C2388 C2391 1.387 . S
H2389 C2385 0.950 . S
H2390 C2387 0.950 . S
C2391 C2382 1.390 . S
C2391 H2384 0.950 . S
C2391 C2388 1.387 . S
C2392 C2393 1.387 . S
C2392 H2396 0.950 . S
C2392 C2401 1.390 . S
C2393 C2392 1.387 . S
C2393 C2395 1.387 . S
H2394 C2401 0.950 . S
C2395 C2393 1.387 . S
C2395 C2397 1.390 . S
C2395 H2399 0.950 . S
H2396 C2392 0.950 . S
C2397 C2395 1.390 . S
C2397 C2398 1.387 . S
C2397 H2400 0.950 . S
C2398 C2397 1.387 . S
C2398 C2401 1.387 . S
H2399 C2395 0.950 . S
H2400 C2397 0.950 . S
C2401 C2392 1.390 . S
C2401 H2394 0.950 . S
C2401 C2398 1.387 . S
C2402 C2403 1.387 . S
C2402 H2406 0.950 . S
C2402 C2411 1.390 . S
C2403 C2402 1.387 . S
C2403 C2405 1.387 . S
H2404 C2411 0.950 . S
C2405 C2403 1.387 . S
C2405 C2407 1.390 . S
C2405 H2409 0.950 . S
H2406 C2402 0.950 . S
C2407 C2405 1.390 . S
C2407 C2408 1.387 . S
C2407 H2410 0.950 . S
C2408 C2407 1.387 . S
C2408 C2411 1.387 . S
H2409 C2405 0.950 . S
H2410 C2407 0.950 . S
C2411 C2402 1.390 . S
C2411 H2404 0.950 . S
C2411 C2408 1.387 . S
C2412 C2413 1.387 . S
C2412 H2416 0.950 . S
C2412 C2421 1.390 . S
C2413 C2412 1.387 . S
C2413 C2415 1.387 . S
H2414 C2421 0.950 . S
C2415 C2413 1.387 . S
C2415 C2417 1.390 . S
C2415 H2419 0.950 . S
H2416 C2412 0.950 . S
C2417 C2415 1.390 . S
C2417 C2418 1.387 . S
C2417 H2420 0.950 . S
C2418 C2417 1.387 . S
C2418 C2421 1.387 . S
H2419 C2415 0.950 . S
H2420 C2417 0.950 . S
C2421 C2412 1.390 . S
C2421 H2414 0.950 . S
C2421 C2418 1.387 . S
C2422 C2423 1.387 . S
C2422 H2426 0.950 . S
C2422 C2431 1.390 . S
C2423 C2422 1.387 . S
C2423 C2425 1.387 . S
H2424 C2431 0.950 . S
C2425 C2423 1.387 . S
C2425 C2427 1.390 . S
C2425 H2429 0.950 . S
H2426 C2422 0.950 . S
C2427 C2425 1.390 . S
C2427 C2428 1.387 . S
C2427 H2430 0.950 . S
C2428 C2427 1.387 . S
C2428 C2431 1.387 . S
H2429 C2425 0.950 . S
H2430 C2427 0.950 . S
C2431 C2422 1.390 . S
C2431 H2424 0.950 . S
C2431 C2428 1.387 . S
C2432 C2433 1.387 . S
C2432 H2436 0.950 . S
C2432 C2441 1.390 . S
C2433 C2432 1.387 . S
C2433 C2435 1.387 . S
H2434 C2441 0.950 . S
C2435 C2433 1.387 . S
C2435 C2437 1.390 . S
C2435 H2439 0.950 . S
H2436 C2432 0.950 . S
C2437 C2435 1.390 . S
C2437 C2438 1.387 . S
C2437 H2440 0.950 . S
C2438 C2437 1.387 . S
C2438 C2441 1.387 . S
H2439 C2435 0.950 . S
H2440 C2437 0.950 . S
C2441 C2432 1.390 . S
C2441 H2434 0.950 . S
C2441 C2438 1.387 . S
C2442 C2443 1.387 . S
C2442 H2446 0.950 . S
C2442 C2451 1.390 . S
C2443 C2442 1.387 . S
C2443 C2445 1.387 . S
H2444 C2451 0.950 . S
C2445 C2443 1.387 . S
C2445 C2447 1.390 . S
C2445 H2449 0.950 . S
H2446 C2442 0.950 . S
C2447 C2445 1.390 . S
C2447 C2448 1.387 . S
C2447 H2450 0.950 . S
C2448 C2447 1.387 . S
C2448 C2451 1.387 . S
H2449 C2445 0.950 . S
H2450 C2447 0.950 . S
C2451 C2442 1.390 . S
C2451 H2444 0.950 . S
C2451 C2448 1.387 . S
C2452 C2453 1.387 . S
C2452 H2456 0.950 . S
C2452 C2461 1.390 . S
C2453 C2452 1.387 . S
C2453 C2455 1.387 . S
H2454 C2461 0.950 . S
C2455 C2453 1.387 . S
C2455 C2457 1.390 . S
C2455 H2459 0.950 . S
H2456 C2452 0.950 . S
C2457 C2455 1.390 . S
C2457 C2458 1.387 . S
C2457 H2460 0.950 . S
C2458 C2457 1.387 . S
C2458 C2461 1.387 . S
H2459 C2455 0.950 . S
H2460 C2457 0.950 . S
C2461 C2452 1.390 . S
C2461 H2454 0.950 . S
C2461 C2458 1.387 . S
C2462 C2463 1.387 . S
C2462 H2466 0.950 . S
C2462 C2471 1.390 . S
C2463 C2462 1.387 . S
C2463 C2465 1.387 . S
H2464 C2471 0.950 . S
C2465 C2463 1.387 . S
C2465 C2467 1.390 . S
C2465 H2469 0.950 . S
H2466 C2462 0.950 . S
C2467 C2465 1.390 . S
C2467 C2468 1.387 . S
C2467 H2470 0.950 . S
C2468 C2467 1.387 . S
C2468 C2471 1.387 . S
H2469 C2465 0.950 . S
H2470 C2467 0.950 . S
C2471 C2462 1.390 . S
C2471 H2464 0.950 . S
C2471 C2468 1.387 . S
C2472 C2473 1.387 . S
C2472 H2476 0.950 . S
C2472 C2481 1.390 . S
C2473 C2472 1.387 . S
C2473 C2475 1.387 . S
H2474 C2481 0.950 . S
C2475 C2473 1.387 . S
C2475 C2477 1.390 . S
C2475 H2479 0.950 . S
H2476 C2472 0.950 . S
C2477 C2475 1.390 . S
C2477 C2478 1.387 . S
C2477 H2480 0.950 . S
C2478 C2477 1.387 . S
C2478 C2481 1.387 . S
H2479 C2475 0.950 . S
H2480 C2477 0.950 . S
C2481 C2472 1.390 . S
C2481 H2474 0.950 . S
C2481 C2478 1.387 . S
C2482 C2483 1.387 . S
C2482 H2486 0.950 . S
C2482 C2491 1.390 . S
C2483 C2482 1.387 . S
C2483 C2485 1.387 . S
H2484 C2491 0.950 . S
C2485 C2483 1.387 . S
C2485 C2487 1.390 . S
C2485 H2489 0.950 . S
H2486 C2482 0.950 . S
C2487 C2485 1.390 . S
C2487 C2488 1.387 . S
C2487 H2490 0.950 . S
C2488 C2487 1.387 . S
C2488 C2491 1.387 . S
H2489 C2485 0.950 . S
H2490 C2487 0.950 . S
C2491 C2482 1.390 . S
C2491 H2484 0.950 . S
C2491 C2488 1.387 . S
C2492 C2493 1.387 . S
C2492 H2496 0.950 . S
C2492 C2501 1.390 . S
C2493 C2492 1.387 . S
C2493 C2495 1.387 . S
H2494 C2501 0.950 . S
C2495 C2493 1.387 . S
C2495 C2497 1.390 . S
C2495 H2499 0.950 . S
H2496 C2492 0.950 . S
C2497 C2495 1.390 . S
C2497 C2498 1.387 . S
C2497 H2500 0.950 . S
C2498 C2497 1.387 . S
C2498 C2501 1.387 . S
H2499 C2495 0.950 . S
H2500 C2497 0.950 . S
C2501 C2492 1.390 . S
C2501 H2494 0.950 . S
C2501 C2498 1.387 . S
C2502 C2503 1.387 . S
C2502 H2506 0.950 . S
C2502 C2511 1.390 . S
C2503 C2502 1.387 . S
C2503 C2505 1.387 . S
H2504 C2511 0.950 . S
C2505 C2503 1.387 . S
C2505 C2507 1.390 . S
C2505 H2509 0.950 . S
H2506 C2502 0.950 . S
C2507 C2505 1.390 . S
C2507 C2508 1.387 . S
C2507 H2510 0.950 . S
C2508 C2507 1.387 . S
C2508 C2511 1.387 . S
H2509 C2505 0.950 . S
H2510 C2507 0.950 . S
C2511 C2502 1.390 . S
C2511 H2504 0.950 . S
C2511 C2508 1.387 . S
C2512 C2513 1.387 . S
C2512 H2516 0.950 . S
C2512 C2521 1.390 . S
C2513 C2512 1.387 . S
C2513 C2515 1.387 . S
H2514 C2521 0.950 . S
C2515 C2513 1.387 . S
C2515 C2517 1.390 . S
C2515 H2519 0.950 . S
H2516 C2512 0.950 . S
C2517 C2515 1.390 . S
C2517 C2518 1.387 . S
C2517 H2520 0.950 . S
C2518 C2517 1.387 . S
C2518 C2521 1.387 . S
H2519 C2515 0.950 . S
H2520 C2517 0.950 . S
C2521 C2512 1.390 . S
C2521 H2514 0.950 . S
C2521 C2518 1.387 . S
C2522 C2523 1.387 . S
C2522 H2526 0.950 . S
C2522 C2531 1.390 . S
C2523 C2522 1.387 . S
C2523 C2525 1.387 . S
H2524 C2531 0.950 . S
C2525 C2523 1.387 . S
C2525 C2527 1.390 . S
C2525 H2529 0.950 . S
H2526 C2522 0.950 . S
C2527 C2525 1.390 . S
C2527 C2528 1.387 . S
C2527 H2530 0.950 . S
C2528 C2527 1.387 . S
C2528 C2531 1.387 . S
H2529 C2525 0.950 . S
H2530 C2527 0.950 . S
C2531 C2522 1.390 . S
C2531 H2524 0.950 . S
C2531 C2528 1.387 . S
C2532 C2533 1.387 . S
C2532 H2536 0.950 . S
C2532 C2541 1.390 . S
C2533 C2532 1.387 . S
C2533 C2535 1.387 . S
H2534 C2541 0.950 . S
C2535 C2533 1.387 . S
C2535 C2537 1.390 . S
C2535 H2539 0.950 . S
H2536 C2532 0.950 . S
C2537 C2535 1.390 . S
C2537 C2538 1.387 . S
C2537 H2540 0.950 . S
C2538 C2537 1.387 . S
C2538 C2541 1.387 . S
H2539 C2535 0.950 . S
H2540 C2537 0.950 . S
C2541 C2532 1.390 . S
C2541 H2534 0.950 . S
C2541 C2538 1.387 . S
C2542 C2543 1.387 . S
C2542 H2546 0.950 . S
C2542 C2551 1.390 . S
C2543 C2542 1.387 . S
C2543 C2545 1.387 . S
H2544 C2551 0.950 . S
C2545 C2543 1.387 . S
C2545 C2547 1.390 . S
C2545 H2549 0.950 . S
H2546 C2542 0.950 . S
C2547 C2545 1.390 . S
C2547 C2548 1.387 . S
C2547 H2550 0.950 . S
C2548 C2547 1.387 . S
C2548 C2551 1.387 . S
H2549 C2545 0.950 . S
H2550 C2547 0.950 . S
C2551 C2542 1.390 . S
C2551 H2544 0.950 . S
C2551 C2548 1.387 . S
C2552 C2553 1.387 . S
C2552 H2556 0.950 . S
C2552 C2561 1.390 . S
C2553 C2552 1.387 . S
C2553 C2555 1.387 . S
H2554 C2561 0.950 . S
C2555 C2553 1.387 . S
C2555 C2557 1.390 . S
C2555 H2559 0.950 . S
H2556 C2552 0.950 . S
C2557 C2555 1.390 . S
C2557 C2558 1.387 . S
C2557 H2560 0.950 . S
C2558 C2557 1.387 . S
C2558 C2561 1.387 . S
H2559 C2555 0.950 . S
H2560 C2557 0.950 . S
C2561 C2552 1.390 . S
C2561 H2554 0.950 . S
C2561 C2558 1.387 . S
C2562 C2563 1.387 . S
C2562 H2566 0.950 . S
C2562 C2571 1.390 . S
C2563 C2562 1.387 . S
C2563 C2565 1.387 . S
H2564 C2571 0.950 . S
C2565 C2563 1.387 . S
C2565 C2567 1.390 . S
C2565 H2569 0.950 . S
H2566 C2562 0.950 . S
C2567 C2565 1.390 . S
C2567 C2568 1.387 . S
C2567 H2570 0.950 . S
C2568 C2567 1.387 . S
C2568 C2571 1.387 . S
H2569 C2565 0.950 . S
H2570 C2567 0.950 . S
C2571 C2562 1.390 . S
C2571 H2564 0.950 . S
C2571 C2568 1.387 . S
C2572 C2573 1.387 . S
C2572 H2576 0.950 . S
C2572 C2581 1.390 . S
C2573 C2572 1.387 . S
C2573 C2575 1.387 . S
H2574 C2581 0.950 . S
C2575 C2573 1.387 . S
C2575 C2577 1.390 . S
C2575 H2579 0.950 . S
H2576 C2572 0.950 . S
C2577 C2575 1.390 . S
C2577 C2578 1.387 . S
C2577 H2580 0.950 . S
C2578 C2577 1.387 . S
C2578 C2581 1.387 . S
H2579 C2575 0.950 . S
H2580 C2577 0.950 . S
C2581 C2572 1.390 . S
C2581 H2574 0.950 . S
C2581 C2578 1.387 . S
C2582 C2583 1.387 . S
C2582 H2586 0.950 . S
C2582 C2591 1.390 . S
C2583 C2582 1.387 . S
C2583 C2585 1.387 . S
H2584 C2591 0.950 . S
C2585 C2583 1.387 . S
C2585 C2587 1.390 . S
C2585 H2589 0.950 . S
H2586 C2582 0.950 . S
C2587 C2585 1.390 . S
C2587 C2588 1.387 . S
C2587 H2590 0.950 . S
C2588 C2587 1.387 . S
C2588 C2591 1.387 . S
H2589 C2585 0.950 . S
H2590 C2587 0.950 . S
C2591 C2582 1.390 . S
C2591 H2584 0.950 . S
C2591 C2588 1.387 . S
C2113 C849 1.674 . S
C2118 C57 1.674 . S
C2123 C117 1.859 . S
C2128 C900 1.829 . S
C2133 C225 1.674 . S
C2138 C988 1.674 . S
C2143 C293 1.860 . S
C2148 C753 1.830 . S
C2153 C381 1.671 . S
C2158 C1349 1.671 . S
C2163 C1085 1.830 . S
C2168 C497 1.860 . S
C2173 C548 1.671 . S
C2178 C1193 1.671 . S
C2183 C1281 1.827 . S
C2188 C665 1.856 . S
C2193 C1465 1.858 . S
C2198 C1604 1.828 . S
C2203 C1985 1.831 . S
C2208 C1516 1.861 . S
C2213 C1692 1.857 . S
C2218 C2073 1.828 . S
C2223 C1897 1.856 . S
C2228 C1780 1.827 . S
C2233 C1817 1.654 . S
C2238 C20 1.655 . S
C2243 C108 1.660 . S
C2248 C1525 1.660 . S
C2253 C205 1.654 . S
C2258 C1641 1.654 . S
C2263 C284 1.660 . S
C2268 C1701 1.660 . S
C2273 C401 1.653 . S
C2278 C2053 1.655 . S
C2283 C1905 1.661 . S
C2288 C489 1.661 . S
C2293 C1965 1.655 . S
C2298 C585 1.653 . S
C2303 C1457 1.661 . S
C2308 C673 1.660 . S
C2313 C1369 1.655 . S
C2318 C733 1.654 . S
C2323 C812 1.668 . S
C2328 C1105 1.656 . S
C2333 C1173 1.669 . S
C2338 C937 1.655 . S
C2343 C1261 1.655 . S
C2348 C1025 1.653 . S
C2353 C49 1.124 . S
C2358 C1428 1.359 . S
C2363 C2044 1.458 . S
C2368 C145 1.210 . S
C2373 C1877 1.361 . S
C2378 C233 1.132 . S
C2383 C321 1.204 . S
C2388 C1956 1.457 . S
C2393 C372 1.132 . S
C2398 C1553 1.361 . S
C2403 C1633 1.458 . S
C2408 C469 1.210 . S
C2413 C1729 1.359 . S
C2418 C557 1.125 . S
C2423 C1809 1.459 . S
C2428 C636 1.211 . S
C2433 C29 1.429 . S
C2438 C761 1.172 . S
C2443 C137 1.359 . S
C2448 C841 1.124 . S
C2453 C196 1.430 . S
C2458 C909 1.177 . S
C2463 C313 1.361 . S
C2468 C997 1.132 . S
C2473 C409 1.430 . S
C2478 C1076 1.175 . S
C2483 C460 1.360 . S
C2488 C1201 1.128 . S
C2493 C1289 1.172 . S
C2498 C577 1.429 . S
C2503 C645 1.361 . S
C2508 C1340 1.132 . S
C2513 C724 1.458 . S
C2518 C1437 1.207 . S
C2523 C1545 1.204 . S
C2528 C1113 1.458 . S
C2533 C1164 1.428 . S
C2538 C1613 1.172 . S
C2543 C1721 1.209 . S
C2548 C1252 1.458 . S
C2553 C1789 1.173 . S
C2558 C1377 1.429 . S
C2563 C1868 1.210 . S
C2568 C929 1.458 . S
C2573 C1017 1.430 . S
C2578 C1993 1.177 . S
C2583 C2081 1.172 . S
C2588 C821 1.428 . S
