# Generated by pormake.
# Topology whp, (6)-cn, num edge types: 1
# Building blocks:
#     Node 0, Type 0, BuildingBlock: VOLQOD_clean_sbu_1, # of connection points: 6
#     Node 1, Type 0, BuildingBlock: VOLQOD_clean_sbu_1, # of connection points: 6
#     Node 2, Type 0, BuildingBlock: VOLQOD_clean_sbu_1, # of connection points: 6
#     Node 3, Type 0, BuildingBlock: VOLQOD_clean_sbu_1, # of connection points: 6
#     Node 4, Type 0, BuildingBlock: VOLQOD_clean_sbu_1, # of connection points: 6
#     Node 5, Type 0, BuildingBlock: VOLQOD_clean_sbu_1, # of connection points: 6
#     Node 6, Type 0, BuildingBlock: VOLQOD_clean_sbu_1, # of connection points: 6
#     Node 7, Type 0, BuildingBlock: VOLQOD_clean_sbu_1, # of connection points: 6
#     Node 8, Type 0, BuildingBlock: VOLQOD_clean_sbu_1, # of connection points: 6
#     Node 9, Type 0, BuildingBlock: VOLQOD_clean_sbu_1, # of connection points: 6
#     Node 10, Type 0, BuildingBlock: VOLQOD_clean_sbu_1, # of connection points: 6
#     Node 11, Type 0, BuildingBlock: VOLQOD_clean_sbu_1, # of connection points: 6
#     Node 12, Type 0, BuildingBlock: VOLQOD_clean_sbu_1, # of connection points: 6
#     Node 13, Type 0, BuildingBlock: VOLQOD_clean_sbu_1, # of connection points: 6
#     Node 14, Type 0, BuildingBlock: VOLQOD_clean_sbu_1, # of connection points: 6
#     Node 15, Type 0, BuildingBlock: VOLQOD_clean_sbu_1, # of connection points: 6
#     Edge 16, Type (0, 0), None
#     Edge 17, Type (0, 0), None
#     Edge 18, Type (0, 0), None
#     Edge 19, Type (0, 0), None
#     Edge 20, Type (0, 0), None
#     Edge 21, Type (0, 0), None
#     Edge 22, Type (0, 0), None
#     Edge 23, Type (0, 0), None
#     Edge 24, Type (0, 0), None
#     Edge 25, Type (0, 0), None
#     Edge 26, Type (0, 0), None
#     Edge 27, Type (0, 0), None
#     Edge 28, Type (0, 0), None
#     Edge 29, Type (0, 0), None
#     Edge 30, Type (0, 0), None
#     Edge 31, Type (0, 0), None
#     Edge 32, Type (0, 0), None
#     Edge 33, Type (0, 0), None
#     Edge 34, Type (0, 0), None
#     Edge 35, Type (0, 0), None
#     Edge 36, Type (0, 0), None
#     Edge 37, Type (0, 0), None
#     Edge 38, Type (0, 0), None
#     Edge 39, Type (0, 0), None
#     Edge 40, Type (0, 0), None
#     Edge 41, Type (0, 0), None
#     Edge 42, Type (0, 0), None
#     Edge 43, Type (0, 0), None
#     Edge 44, Type (0, 0), None
#     Edge 45, Type (0, 0), None
#     Edge 46, Type (0, 0), None
#     Edge 47, Type (0, 0), None
#     Edge 48, Type (0, 0), None
#     Edge 49, Type (0, 0), None
#     Edge 50, Type (0, 0), None
#     Edge 51, Type (0, 0), None
#     Edge 52, Type (0, 0), None
#     Edge 53, Type (0, 0), None
#     Edge 54, Type (0, 0), None
#     Edge 55, Type (0, 0), None
#     Edge 56, Type (0, 0), None
#     Edge 57, Type (0, 0), None
#     Edge 58, Type (0, 0), None
#     Edge 59, Type (0, 0), None
#     Edge 60, Type (0, 0), None
#     Edge 61, Type (0, 0), None
#     Edge 62, Type (0, 0), None
#     Edge 63, Type (0, 0), None
# Relax obj value: 0.403
# Max RMSD: 0.252
# Mean RMSD: 0.249
data_MOF--net-whp--node1-VOLQOD_clean_sbu_1--edge1-none
_symmetry_space_group_name_H-M    P1
_symmetry_Int_Tables_number       1
_symmetry_cell_setting            triclinic
loop_
_symmetry_equiv_pos_as_xyz
'x, y, z'
_cell_length_a     27.462915
_cell_length_b     27.002062
_cell_length_c     14.344754
_cell_angle_alpha  90.180503
_cell_angle_beta   90.404862
_cell_angle_gamma 90.051897
loop_
_atom_site_label
_atom_site_type_symbol
_atom_site_fract_x
_atom_site_fract_y
_atom_site_fract_z
_atom_type_partial_charge
O0 O 0.28732 0.57582 0.49555 0.0
Zn1 Zn 0.26121 0.57214 0.36789 0.0
O2 O 0.27133 0.5065 0.32272 0.0
Zn3 Zn 0.20834 0.47701 0.31395 0.0
Zn4 Zn 0.30794 0.47411 0.41673 0.0
Zn5 Zn 0.31617 0.50349 0.22033 0.0
O6 O 0.20884 0.44395 0.18277 0.0
O7 O 0.27378 0.47898 0.11367 0.0
O8 O 0.19192 0.59564 0.3632 0.0
O9 O 0.15389 0.52889 0.31013 0.0
O10 O 0.19408 0.44521 0.44318 0.0
O11 O 0.26488 0.45489 0.51727 0.0
O12 O 0.34586 0.41612 0.37169 0.0
O13 O 0.3022 0.61964 0.29775 0.0
O14 O 0.36885 0.45045 0.23902 0.0
O15 O 0.34842 0.57324 0.2048 0.0
C16 C 0.33126 0.56343 0.5108 0.0
C17 C 0.23473 0.45294 0.10983 0.0
C18 C 0.21983 0.44512 0.51838 0.0
C19 C 0.15301 0.57374 0.33808 0.0
C20 C 0.37181 0.41574 0.29895 0.0
C21 C 0.33696 0.61527 0.24039 0.0
O22 O 0.35039 0.52592 0.47159 0.0
O23 O 0.85692 0.29687 0.97961 0.0
Zn24 Zn 0.86564 0.27006 0.85306 0.0
O25 O 0.93125 0.28082 0.81396 0.0
Zn26 Zn 0.95977 0.21645 0.80728 0.0
Zn27 Zn 0.96002 0.31793 0.91124 0.0
Zn28 Zn 0.93698 0.32684 0.71142 0.0
O29 O -0.00699 0.21678 0.67741 0.0
O30 O 0.96048 0.28346 0.60618 0.0
O31 O 0.84169 0.20017 0.84602 0.0
O32 O 0.90828 0.16089 0.80174 0.0
O33 O -0.00886 0.20251 0.93747 0.0
O34 O -0.0201 0.27412 1.01141 0.0
O35 O 0.01447 0.36029 0.87392 0.0
O36 O 0.8216 0.31125 0.77768 0.0
O37 O -0.00993 0.38003 0.73145 0.0
O38 O 0.86928 0.3604 0.6929 0.0
C39 C 0.8708 0.3406 0.99903 0.0
C40 C -0.01487 0.2432 0.60383 0.0
C41 C -0.0091 0.22865 1.01258 0.0
C42 C 0.86344 0.16039 0.82434 0.0
C43 C 0.01929 0.38551 0.80022 0.0
C44 C 0.82727 0.34767 0.72322 0.0
O45 O 0.90871 0.35945 0.96361 0.0
O46 O 0.1481 0.8713 0.49161 0.0
Zn47 Zn 0.17435 0.87871 0.36477 0.0
O48 O 0.16296 0.94461 0.32149 0.0
Zn49 Zn 0.22563 0.9753 0.31618 0.0
Zn50 Zn 0.12533 0.97371 0.4163 0.0
Zn51 Zn 0.11846 0.94845 0.21686 0.0
O52 O 0.2257 0.00829 0.18497 0.0
O53 O 0.16084 0.97369 0.11281 0.0
O54 O 0.24391 0.85667 0.36183 0.0
O55 O 0.28146 0.92461 0.31513 0.0
O56 O 0.23805 0.00748 0.44634 0.0
O57 O 0.1675 -0.00497 0.51799 0.0
O58 O 0.08235 0.02729 0.37547 0.0
O59 O 0.13432 0.83204 0.29033 0.0
O60 O 0.06408 -0.00015 0.23387 0.0
O61 O 0.08723 0.87891 0.19883 0.0
C62 C 0.10451 0.88409 0.50802 0.0
C63 C 0.19995 -0.0004 0.11091 0.0
C64 C 0.21215 0.00651 0.52065 0.0
C65 C 0.28277 0.87948 0.34087 0.0
C66 C 0.05726 0.02991 0.30118 0.0
C67 C 0.09927 0.83678 0.23284 0.0
O68 O 0.08501 0.92113 0.46858 0.0
O69 O 0.59288 0.13709 0.92429 0.0
Zn70 Zn 0.57041 0.17947 0.82158 0.0
O71 O 0.50147 0.16986 0.8046 0.0
Zn72 Zn 0.47267 0.2345 0.79807 0.0
Zn73 Zn 0.47545 0.13354 0.90507 0.0
Zn74 Zn 0.49347 0.12317 0.70334 0.0
O75 O 0.44101 0.23557 0.66422 0.0
O76 O 0.47242 0.1676 0.59662 0.0
O77 O 0.59172 0.24999 0.83967 0.0
O78 O 0.52456 0.29023 0.80027 0.0
O79 O 0.43899 0.24764 0.92674 0.0
O80 O 0.45674 0.17885 1.00469 0.0
O81 O 0.42008 0.09099 0.87131 0.0
O82 O 0.60761 0.1518 0.71503 0.0
O83 O 0.43929 0.07206 0.72581 0.0
O84 O 0.56047 0.08649 0.69117 0.0
C85 C 0.5728 0.09934 0.96008 0.0
C86 C 0.44943 0.20888 0.59105 0.0
C87 C 0.44194 0.22325 1.00361 0.0
C88 C 0.56934 0.29041 0.82488 0.0
C89 C 0.41262 0.06623 0.79738 0.0
C90 C 0.60285 0.10629 0.69438 0.0
O91 O 0.5275 0.09068 0.95299 0.0
O92 O 0.80147 0.35256 0.08867 0.0
Zn93 Zn 0.76329 0.37384 0.19706 0.0
O94 O 0.77694 0.44231 0.22235 0.0
Zn95 Zn 0.71637 0.47608 0.22767 0.0
Zn96 Zn 0.81386 0.46816 0.12417 0.0
Zn97 Zn 0.82161 0.44759 0.32591 0.0
O98 O 0.71686 0.5103 0.35773 0.0
O99 O 0.77952 0.47294 0.43126 0.0
O100 O 0.69242 0.35753 0.17674 0.0
O101 O 0.66019 0.42735 0.22939 0.0
O102 O 0.70276 0.50779 0.09731 0.0
O103 O 0.77068 0.4881 0.02232 0.0
O104 O 0.85621 0.52318 0.16241 0.0
O105 O 0.79056 0.33149 0.29805 0.0
O106 O 0.87426 0.50019 0.30671 0.0
O107 O 0.85396 0.37818 0.33858 0.0
C108 C 0.8411 0.37057 0.05873 0.0
C109 C 0.74157 0.50061 0.43242 0.0
C110 C 0.72713 0.50351 0.02152 0.0
C111 C 0.65548 0.38324 0.19867 0.0
C112 C 0.88046 0.52875 0.23729 0.0
C113 C 0.83414 0.33558 0.32766 0.0
O114 O 0.85454 0.41462 0.07606 0.0
O115 O 0.09485 0.81544 0.60367 0.0
Zn116 Zn 0.07278 0.77434 0.70794 0.0
O117 O 0.00437 0.78438 0.72411 0.0
Zn118 Zn -0.02444 0.71987 0.72798 0.0
Zn119 Zn -0.02148 0.82163 0.62471 0.0
Zn120 Zn -0.00368 0.83092 0.82582 0.0
O121 O 0.94316 0.71974 0.85892 0.0
O122 O -0.02622 0.7874 0.9312 0.0
O123 O 0.09369 0.70393 0.6893 0.0
O124 O 0.0266 0.66339 0.72635 0.0
O125 O 0.94203 0.70737 0.59891 0.0
O126 O 0.95982 0.77711 0.52404 0.0
O127 O 0.92214 0.86279 0.65867 0.0
O128 O 0.10951 0.80173 0.81602 0.0
O129 O 0.94141 0.88146 0.80458 0.0
O130 O 0.06311 0.86739 0.84054 0.0
C131 C 0.07535 0.85344 0.56732 0.0
C132 C 0.94991 0.74658 0.93273 0.0
C133 C 0.94499 0.73271 0.52336 0.0
C134 C 0.07131 0.66339 0.70253 0.0
C135 C 0.91395 0.88655 0.73328 0.0
C136 C 0.10519 0.8471 0.83786 0.0
O137 O 0.03066 0.8641 0.57719 0.0
O138 O 0.64761 0.0751 0.02266 0.0
Zn139 Zn 0.67385 0.0742 0.1505 0.0
O140 O 0.66169 0.01173 0.2068 0.0
Zn141 Zn 0.72365 -0.01977 0.21436 0.0
Zn142 Zn 0.62311 -0.01978 0.11536 0.0
Zn143 Zn 0.61778 0.01303 0.31232 0.0
O144 O 0.72201 0.94673 0.34494 0.0
O145 O 0.65931 -0.01522 0.41616 0.0
O146 O 0.74358 0.09637 0.15404 0.0
O147 O 0.77995 0.03086 0.21551 0.0
O148 O 0.73513 0.9466 0.08544 0.0
O149 O 0.66387 0.95671 1.01346 0.0
O150 O 0.58185 0.92758 0.16453 0.0
O151 O 0.63359 0.12383 0.21364 0.0
O152 O 0.56067 0.96215 0.29857 0.0
O153 O 0.59335 0.08699 0.32907 0.0
C154 C 0.60234 0.06636 1.01485 0.0
C155 C 0.69643 0.95602 0.41826 0.0
C156 C 0.70865 0.94578 1.01117 0.0
C157 C 0.78189 0.07476 0.18288 0.0
C158 C 0.55576 0.92803 0.23711 0.0
C159 C 0.60349 0.12555 0.28021 0.0
O160 O 0.58209 0.03207 0.06084 0.0
O161 O 0.34038 0.63332 0.60441 0.0
Zn162 Zn 0.36132 0.67669 0.70759 0.0
O163 O 0.42972 0.66756 0.7269 0.0
Zn164 Zn 0.45783 0.73241 0.73332 0.0
Zn165 Zn 0.45662 0.6311 0.62736 0.0
Zn166 Zn 0.43754 0.62136 0.82896 0.0
O167 O 0.49008 0.73302 0.86513 0.0
O168 O 0.46018 0.66508 0.93588 0.0
O169 O 0.33971 0.74698 0.68722 0.0
O170 O 0.40594 0.78781 0.73107 0.0
O171 O 0.49184 0.74628 0.60633 0.0
O172 O 0.47528 0.67672 0.52849 0.0
O173 O 0.51317 0.59072 0.66399 0.0
O174 O 0.32422 0.65015 0.81478 0.0
O175 O 0.49235 0.57077 0.80791 0.0
O176 O 0.37064 0.58474 0.84164 0.0
C177 C 0.36064 0.59562 0.56832 0.0
C178 C 0.48371 0.70614 0.93848 0.0
C179 C 0.48965 0.72134 0.52989 0.0
C180 C 0.36157 0.78761 0.70387 0.0
C181 C 0.52048 0.56626 0.73809 0.0
C182 C 0.32851 0.60492 0.83725 0.0
O183 O 0.4058 0.58671 0.57732 0.0
O184 O 0.64745 0.36446 0.55478 0.0
Zn185 Zn 0.67493 0.37541 0.6805 0.0
O186 O 0.66406 0.44259 0.71861 0.0
Zn187 Zn 0.72708 0.47333 0.72672 0.0
Zn188 Zn 0.62832 0.47272 0.6211 0.0
Zn189 Zn 0.61987 0.44725 0.8233 0.0
O190 O 0.72732 0.5073 0.8567 0.0
O191 O 0.66314 0.47262 0.92878 0.0
O192 O 0.74462 0.35404 0.68402 0.0
O193 O 0.78222 0.42245 0.73025 0.0
O194 O 0.74211 0.50594 0.59892 0.0
O195 O 0.67227 0.49499 0.52243 0.0
O196 O 0.58452 0.52609 0.66249 0.0
O197 O 0.63571 0.32958 0.75733 0.0
O198 O 0.56674 0.4999 0.80458 0.0
O199 O 0.58653 0.37799 0.84045 0.0
C200 C 0.60609 0.38099 0.53001 0.0
C201 C 0.7021 0.49892 0.93065 0.0
C202 C 0.71706 0.50622 0.52302 0.0
C203 C 0.78346 0.3772 0.70503 0.0
C204 C 0.55996 0.52963 0.73686 0.0
C205 C 0.59931 0.33513 0.81048 0.0
O206 O 0.58866 0.42085 0.56278 0.0
O207 O 0.08213 0.65463 0.06371 0.0
Zn208 Zn 0.07183 0.68192 0.18937 0.0
O209 O 0.00575 0.67094 0.22453 0.0
Zn210 Zn -0.02469 0.73448 0.22963 0.0
Zn211 Zn -0.02203 0.63388 0.12656 0.0
Zn212 Zn -9e-05 0.62523 0.3273 0.0
O213 O 0.94123 0.73373 0.35857 0.0
O214 O -0.02483 0.66831 0.43151 0.0
O215 O 0.09358 0.75246 0.19519 0.0
O216 O 0.02555 0.79076 0.23507 0.0
O217 O 0.94389 0.74824 0.09932 0.0
O218 O 0.9582 0.67735 0.02523 0.0
O219 O 0.92357 0.5917 0.16376 0.0
O220 O 0.11612 0.64138 0.26717 0.0
O221 O 0.94733 0.57232 0.30686 0.0
O222 O 0.06728 0.59134 0.34735 0.0
C223 C 0.06809 0.61112 0.04298 0.0
C224 C 0.94927 0.70775 0.43261 0.0
C225 C 0.94542 0.72234 0.02406 0.0
C226 C 0.07057 0.79194 0.21411 0.0
C227 C 0.91841 0.56681 0.23777 0.0
C228 C 0.10973 0.60429 0.31983 0.0
O229 O 0.02963 0.59237 0.07627 0.0
O230 O 0.78509 0.08454 0.54728 0.0
Zn231 Zn 0.75749 0.07639 0.67245 0.0
O232 O 0.76813 0.00955 0.71174 0.0
Zn233 Zn 0.70472 -0.02014 0.71526 0.0
Zn234 Zn 0.80588 -0.02021 0.61706 0.0
Zn235 Zn 0.81307 0.00443 0.8159 0.0
O236 O 0.70503 0.94542 0.84551 0.0
O237 O 0.77083 -0.02215 0.91852 0.0
O238 O 0.68758 0.0988 0.67077 0.0
O239 O 0.64855 0.03115 0.71459 0.0
O240 O 0.69284 0.94807 0.58412 0.0
O241 O 0.764 0.95919 0.51398 0.0
O242 O 0.84879 0.92542 0.65733 0.0
O243 O 0.79768 0.12234 0.74953 0.0
O244 O 0.86731 0.95285 0.79862 0.0
O245 O 0.84529 0.07347 0.83606 0.0
C246 C 0.82816 0.07051 0.52949 0.0
C247 C 0.73155 0.95217 0.91939 0.0
C248 C 0.71919 0.94838 0.51036 0.0
C249 C 0.64805 0.07641 0.68909 0.0
C250 C 0.87398 0.92265 0.73153 0.0
C251 C 0.83344 0.1163 0.80505 0.0
O252 O 0.84674 0.03223 0.56624 0.0
O253 O 0.35198 0.79834 0.07033 0.0
Zn254 Zn 0.36396 0.77092 0.19576 0.0
O255 O 0.43034 0.78323 0.23081 0.0
Zn256 Zn 0.46027 0.7192 0.2362 0.0
Zn257 Zn 0.45723 0.81988 0.13256 0.0
Zn258 Zn 0.43711 0.83053 0.33258 0.0
O259 O 0.4947 0.72063 0.36546 0.0
O260 O 0.46175 0.78694 0.4375 0.0
O261 O 0.34213 0.69988 0.20236 0.0
O262 O 0.41052 0.66221 0.24271 0.0
O263 O 0.49033 0.70472 0.10544 0.0
O264 O 0.47648 0.77568 0.03159 0.0
O265 O 0.51134 0.86355 0.169 0.0
O266 O 0.32031 0.81138 0.27363 0.0
O267 O 0.48942 0.88503 0.31159 0.0
O268 O 0.3691 0.86376 0.35065 0.0
C269 C 0.36599 0.84168 0.0489 0.0
C270 C 0.48665 0.74676 0.43941 0.0
C271 C 0.48861 0.73047 0.03026 0.0
C272 C 0.36534 0.66054 0.22198 0.0
C273 C 0.51724 0.89005 0.24137 0.0
C274 C 0.32659 0.84957 0.32411 0.0
O275 O 0.40484 0.86052 0.08159 0.0
O276 O 0.13731 0.59975 0.95311 0.0
Zn277 Zn 0.17357 0.58041 0.8415 0.0
O278 O 0.16176 0.51169 0.81687 0.0
Zn279 Zn 0.22441 0.48036 0.8135 0.0
Zn280 Zn 0.12441 0.48453 0.914 0.0
Zn281 Zn 0.11605 0.5057 0.71388 0.0
O282 O 0.22278 0.44568 0.68353 0.0
O283 O 0.15792 0.47935 0.60984 0.0
O284 O 0.24374 0.59917 0.85702 0.0
O285 O 0.28171 0.5305 0.81495 0.0
O286 O 0.2362 0.44699 0.94305 0.0
O287 O 0.16697 0.46381 1.01612 0.0
O288 O 0.0818 0.42926 0.87547 0.0
O289 O 0.14362 0.62326 0.74414 0.0
O290 O 0.06322 0.45284 0.73208 0.0
O291 O 0.08261 0.5747 0.69832 0.0
C292 C 0.09768 0.58156 0.98255 0.0
C293 C 0.19658 0.45271 0.60946 0.0
C294 C 0.21076 0.44922 0.01785 0.0
C295 C 0.28294 0.57569 0.84146 0.0
C296 C 0.05725 0.42386 0.80091 0.0
C297 C 0.10098 0.61787 0.71059 0.0
O298 O 0.08386 0.53785 0.9632 0.0
O299 O 0.839 0.13989 0.43669 0.0
Zn300 Zn 0.85955 0.17853 0.32848 0.0
O301 O 0.92768 0.16807 0.31033 0.0
Zn302 Zn 0.95798 0.23192 0.30783 0.0
Zn303 Zn 0.95348 0.13066 0.40939 0.0
Zn304 Zn 0.93555 0.1218 0.20834 0.0
O305 O -0.00863 0.23154 0.17773 0.0
O306 O 0.95987 0.16467 0.10429 0.0
O307 O 0.83976 0.24922 0.34495 0.0
O308 O 0.90771 0.28898 0.30999 0.0
O309 O -0.0084 0.24388 0.43721 0.0
O310 O -0.02752 0.17438 0.51139 0.0
O311 O 0.0096 0.08984 0.37429 0.0
O312 O 0.82011 0.14888 0.22567 0.0
O313 O -0.01051 0.0706 0.22907 0.0
O314 O 0.86885 0.0862 0.18973 0.0
C315 C 0.85755 0.10064 0.46995 0.0
C316 C -0.01514 0.20475 0.10376 0.0
C317 C -0.01178 0.21845 0.51255 0.0
C318 C 0.86287 0.28943 0.33294 0.0
C319 C 0.01733 0.06585 0.29979 0.0
C320 C 0.8262 0.10502 0.19573 0.0
O321 O 0.90142 0.08807 0.45601 0.0
O322 O 0.29619 0.85281 0.95858 0.0
Zn323 Zn 0.26 0.87112 0.84534 0.0
O324 O 0.27156 0.93964 0.81949 0.0
Zn325 Zn 0.20911 0.97142 0.81536 0.0
Zn326 Zn 0.30964 0.96752 0.91645 0.0
Zn327 Zn 0.31593 0.94495 0.71586 0.0
O328 O 0.20988 0.00614 0.68584 0.0
O329 O 0.27365 0.97128 0.61226 0.0
O330 O 0.18989 0.8528 0.85935 0.0
O331 O 0.15188 0.92136 0.81629 0.0
O332 O 0.19813 0.00542 0.94445 0.0
O333 O 0.26767 -0.01099 0.01843 0.0
O334 O 0.3518 0.02267 0.87617 0.0
O335 O 0.28996 0.82712 0.74983 0.0
O336 O 0.36829 -0.00193 0.73258 0.0
O337 O 0.34924 0.87603 0.6993 0.0
C338 C 0.33619 0.87093 0.98765 0.0
C339 C 0.23557 -0.00129 0.61192 0.0
C340 C 0.22385 0.00357 0.01958 0.0
C341 C 0.15071 0.8763 0.84297 0.0
C342 C 0.37495 0.02775 0.80055 0.0
C343 C 0.33156 0.83277 0.7131 0.0
O344 O 0.35033 0.91427 0.96687 0.0
O345 O 0.43119 0.23823 0.1672 0.0
Zn346 Zn 0.4419 0.26927 0.30101 0.0
O347 O 0.5085 0.28843 0.29816 0.0
Zn348 Zn 0.5435 0.26123 0.39802 0.0
Zn349 Zn 0.54408 0.26817 0.19549 0.0
Zn350 Zn 0.51555 0.35792 0.30751 0.0
O351 O 0.59221 0.3107 0.43791 0.0
O352 O 0.53707 0.37111 0.43622 0.0
O353 O 0.4328 0.22801 0.42735 0.0
O354 O 0.49866 0.25632 0.50152 0.0
O355 O 0.57145 0.19229 0.372 0.0
O356 O 0.56932 0.19845 0.21792 0.0
O357 O 0.60277 0.31368 0.18211 0.0
O358 O 0.40078 0.33296 0.30847 0.0
O359 O 0.57245 0.38394 0.2373 0.0
O360 O 0.45369 0.39379 0.28055 0.0
C361 C 0.45294 0.24983 0.09068 0.0
C362 C 0.5774 0.35313 0.46414 0.0
C363 C 0.57834 0.17353 0.29167 0.0
C364 C 0.45741 0.23554 0.50315 0.0
C365 C 0.60724 0.35959 0.20158 0.0
C366 C 0.41035 0.3785 0.29195 0.0
O367 O 0.49529 0.26949 0.09138 0.0
loop_
_geom_bond_atom_site_label_1
_geom_bond_atom_site_label_2
_geom_bond_distance
_geom_bond_site_symmetry_2
_ccdc_geom_bond_type
O0 Zn1 1.953 . S
O0 C16 1.225 . S
Zn1 O0 1.953 . S
Zn1 O2 1.949 . S
Zn1 O8 1.919 . S
Zn1 O13 1.924 . S
O2 Zn1 1.949 . S
O2 Zn3 1.923 . S
O2 Zn4 1.950 . S
O2 Zn5 1.945 . S
Zn3 O2 1.923 . S
Zn3 O6 1.933 . S
Zn3 O9 1.941 . S
Zn3 O10 1.965 . S
Zn4 O2 1.950 . S
Zn4 O11 1.938 . S
Zn4 O12 1.906 . S
Zn4 O22 1.953 . S
Zn5 O2 1.945 . S
Zn5 O7 1.932 . S
Zn5 O14 1.977 . S
Zn5 O15 1.910 . S
O6 Zn3 1.933 . S
O6 C17 1.226 . S
O7 Zn5 1.932 . S
O7 C17 1.307 . S
O8 Zn1 1.919 . S
O8 C19 1.253 . S
O9 Zn3 1.941 . S
O9 C19 1.283 . S
O10 Zn3 1.965 . S
O10 C18 1.303 . S
O11 Zn4 1.938 . S
O11 C18 1.247 . S
O12 Zn4 1.906 . S
O12 C20 1.304 . S
O13 Zn1 1.924 . S
O13 C21 1.311 . S
O14 Zn5 1.977 . S
O14 C20 1.272 . S
O15 Zn5 1.910 . S
O15 C21 1.231 . S
C16 O0 1.225 . S
C16 O22 1.298 . S
C17 O6 1.226 . S
C17 O7 1.307 . S
C18 O10 1.303 . S
C18 O11 1.247 . S
C19 O8 1.253 . S
C19 O9 1.283 . S
C20 O12 1.304 . S
C20 O14 1.272 . S
C21 O13 1.311 . S
C21 O15 1.231 . S
O22 Zn4 1.953 . S
O22 C16 1.298 . S
O23 Zn24 1.953 . S
O23 C39 1.225 1_556 S
Zn24 O23 1.953 . S
Zn24 O25 1.949 . S
Zn24 O31 1.919 . S
Zn24 O36 1.924 . S
O25 Zn24 1.949 . S
O25 Zn26 1.923 . S
O25 Zn27 1.950 . S
O25 Zn28 1.945 . S
Zn26 O25 1.923 . S
Zn26 O29 1.933 1_655 S
Zn26 O32 1.941 . S
Zn26 O33 1.965 1_655 S
Zn27 O25 1.950 . S
Zn27 O34 1.939 1_655 S
Zn27 O35 1.907 1_655 S
Zn27 O45 1.953 . S
Zn28 O25 1.945 . S
Zn28 O30 1.932 1_655 S
Zn28 O37 1.977 1_655 S
Zn28 O38 1.910 . S
O29 Zn26 1.933 1_455 S
O29 C40 1.226 . S
O30 Zn28 1.932 1_455 S
O30 C40 1.307 . S
O31 Zn24 1.919 . S
O31 C42 1.253 . S
O32 Zn26 1.941 . S
O32 C42 1.283 . S
O33 Zn26 1.965 1_455 S
O33 C41 1.303 . S
O34 Zn27 1.939 1_455 S
O34 C41 1.247 . S
O35 Zn27 1.907 1_455 S
O35 C43 1.304 . S
O36 Zn24 1.924 . S
O36 C44 1.311 . S
O37 Zn28 1.977 1_455 S
O37 C43 1.272 . S
O38 Zn28 1.910 . S
O38 C44 1.231 . S
C39 O23 1.225 1_554 S
C39 O45 1.298 1_554 S
C40 O29 1.226 . S
C40 O30 1.307 . S
C41 O33 1.303 . S
C41 O34 1.247 . S
C42 O31 1.253 . S
C42 O32 1.283 . S
C43 O35 1.304 . S
C43 O37 1.272 . S
C44 O36 1.311 . S
C44 O38 1.231 . S
O45 Zn27 1.953 . S
O45 C39 1.298 1_556 S
O46 Zn47 1.953 . S
O46 C62 1.225 . S
Zn47 O46 1.953 . S
Zn47 O48 1.949 . S
Zn47 O54 1.919 . S
Zn47 O59 1.924 . S
O48 Zn47 1.949 . S
O48 Zn49 1.923 . S
O48 Zn50 1.951 1_565 S
O48 Zn51 1.945 . S
Zn49 O48 1.923 . S
Zn49 O52 1.933 1_565 S
Zn49 O55 1.941 . S
Zn49 O56 1.965 1_565 S
Zn50 O48 1.951 1_545 S
Zn50 O57 1.938 . S
Zn50 O58 1.905 . S
Zn50 O68 1.954 1_545 S
Zn51 O48 1.945 . S
Zn51 O53 1.932 1_565 S
Zn51 O60 1.977 1_565 S
Zn51 O61 1.910 . S
O52 Zn49 1.933 1_545 S
O52 C63 1.226 . S
O53 Zn51 1.932 1_545 S
O53 C63 1.307 . S
O54 Zn47 1.919 . S
O54 C65 1.253 . S
O55 Zn49 1.941 . S
O55 C65 1.283 . S
O56 Zn49 1.965 1_545 S
O56 C64 1.303 . S
O57 Zn50 1.938 . S
O57 C64 1.247 . S
O58 Zn50 1.905 . S
O58 C66 1.304 . S
O59 Zn47 1.924 . S
O59 C67 1.311 . S
O60 Zn51 1.977 1_545 S
O60 C66 1.272 . S
O61 Zn51 1.910 . S
O61 C67 1.231 . S
C62 O46 1.225 . S
C62 O68 1.298 . S
C63 O52 1.226 . S
C63 O53 1.307 . S
C64 O56 1.303 . S
C64 O57 1.247 . S
C65 O54 1.253 . S
C65 O55 1.283 . S
C66 O58 1.304 . S
C66 O60 1.272 . S
C67 O59 1.311 . S
C67 O61 1.231 . S
O68 Zn50 1.954 1_565 S
O68 C62 1.298 . S
O69 Zn70 1.953 . S
O69 C85 1.225 1_556 S
Zn70 O69 1.953 . S
Zn70 O71 1.949 . S
Zn70 O77 1.919 . S
Zn70 O82 1.924 . S
O71 Zn70 1.949 . S
O71 Zn72 1.923 . S
O71 Zn73 1.950 . S
O71 Zn74 1.945 . S
Zn72 O71 1.923 . S
Zn72 O75 1.933 . S
Zn72 O78 1.941 . S
Zn72 O79 1.965 . S
Zn73 O71 1.950 . S
Zn73 O80 1.938 . S
Zn73 O81 1.906 . S
Zn73 O91 1.953 . S
Zn74 O71 1.945 . S
Zn74 O76 1.932 . S
Zn74 O83 1.977 . S
Zn74 O84 1.910 . S
O75 Zn72 1.933 . S
O75 C86 1.226 . S
O76 Zn74 1.932 . S
O76 C86 1.307 . S
O77 Zn70 1.919 . S
O77 C88 1.253 . S
O78 Zn72 1.941 . S
O78 C88 1.283 . S
O79 Zn72 1.965 . S
O79 C87 1.303 . S
O80 Zn73 1.938 . S
O80 C87 1.247 . S
O81 Zn73 1.906 . S
O81 C89 1.304 . S
O82 Zn70 1.924 . S
O82 C90 1.311 . S
O83 Zn74 1.977 . S
O83 C89 1.272 . S
O84 Zn74 1.910 . S
O84 C90 1.231 . S
C85 O69 1.225 1_554 S
C85 O91 1.298 1_554 S
C86 O75 1.226 . S
C86 O76 1.307 . S
C87 O79 1.303 . S
C87 O80 1.247 . S
C88 O77 1.253 . S
C88 O78 1.283 . S
C89 O81 1.304 . S
C89 O83 1.272 . S
C90 O82 1.311 . S
C90 O84 1.231 . S
O91 Zn73 1.953 . S
O91 C85 1.298 1_556 S
O92 Zn93 1.953 . S
O92 C108 1.218 1_554 S
Zn93 O92 1.953 . S
Zn93 O94 1.949 . S
Zn93 O100 1.919 . S
Zn93 O105 1.924 . S
O94 Zn93 1.949 . S
O94 Zn95 1.923 . S
O94 Zn96 1.950 . S
O94 Zn97 1.945 . S
Zn95 O94 1.923 . S
Zn95 O98 1.933 . S
Zn95 O101 1.941 . S
Zn95 O102 1.965 . S
Zn96 O94 1.950 . S
Zn96 O103 1.938 . S
Zn96 O104 1.906 . S
Zn96 O114 1.953 . S
Zn97 O94 1.945 . S
Zn97 O99 1.932 . S
Zn97 O106 1.977 . S
Zn97 O107 1.910 . S
O98 Zn95 1.933 . S
O98 C109 1.226 . S
O99 Zn97 1.932 . S
O99 C109 1.307 . S
O100 Zn93 1.919 . S
O100 C111 1.253 . S
O101 Zn95 1.941 . S
O101 C111 1.283 . S
O102 Zn95 1.965 . S
O102 C110 1.303 . S
O103 Zn96 1.938 . S
O103 C110 1.247 . S
O104 Zn96 1.906 . S
O104 C112 1.304 . S
O105 Zn93 1.924 . S
O105 C113 1.311 . S
O106 Zn97 1.977 . S
O106 C112 1.272 . S
O107 Zn97 1.910 . S
O107 C113 1.231 . S
C108 O92 1.218 1_556 S
C108 O114 1.297 1_556 S
C109 O98 1.226 . S
C109 O99 1.307 . S
C110 O102 1.303 . S
C110 O103 1.247 . S
C111 O100 1.253 . S
C111 O101 1.283 . S
C112 O104 1.304 . S
C112 O106 1.272 . S
C113 O105 1.311 . S
C113 O107 1.231 . S
O114 Zn96 1.953 . S
O114 C108 1.297 1_554 S
O115 Zn116 1.953 . S
O115 C131 1.225 . S
Zn116 O115 1.953 . S
Zn116 O117 1.949 . S
Zn116 O123 1.919 . S
Zn116 O128 1.924 . S
O117 Zn116 1.949 . S
O117 Zn118 1.923 . S
O117 Zn119 1.951 1_455 S
O117 Zn120 1.945 . S
Zn118 O117 1.923 . S
Zn118 O121 1.933 1_455 S
Zn118 O124 1.941 . S
Zn118 O125 1.965 1_455 S
Zn119 O117 1.951 1_655 S
Zn119 O126 1.938 . S
Zn119 O127 1.905 . S
Zn119 O137 1.954 1_655 S
Zn120 O117 1.945 . S
Zn120 O122 1.932 1_455 S
Zn120 O129 1.977 1_455 S
Zn120 O130 1.910 . S
O121 Zn118 1.933 1_655 S
O121 C132 1.226 . S
O122 Zn120 1.932 1_655 S
O122 C132 1.307 . S
O123 Zn116 1.919 . S
O123 C134 1.253 . S
O124 Zn118 1.941 . S
O124 C134 1.283 . S
O125 Zn118 1.965 1_655 S
O125 C133 1.303 . S
O126 Zn119 1.938 . S
O126 C133 1.247 . S
O127 Zn119 1.905 . S
O127 C135 1.304 . S
O128 Zn116 1.924 . S
O128 C136 1.311 . S
O129 Zn120 1.977 1_655 S
O129 C135 1.272 . S
O130 Zn120 1.910 . S
O130 C136 1.231 . S
C131 O115 1.225 . S
C131 O137 1.298 . S
C132 O121 1.226 . S
C132 O122 1.307 . S
C133 O125 1.303 . S
C133 O126 1.247 . S
C134 O123 1.253 . S
C134 O124 1.283 . S
C135 O127 1.304 . S
C135 O129 1.272 . S
C136 O128 1.311 . S
C136 O130 1.231 . S
O137 Zn119 1.954 1_455 S
O137 C131 1.298 . S
O138 Zn139 1.953 . S
O138 C154 1.225 1_554 S
Zn139 O138 1.953 . S
Zn139 O140 1.949 . S
Zn139 O146 1.919 . S
Zn139 O151 1.924 . S
O140 Zn139 1.949 . S
O140 Zn141 1.923 . S
O140 Zn142 1.953 . S
O140 Zn143 1.945 . S
Zn141 O140 1.923 . S
Zn141 O144 1.933 1_545 S
Zn141 O147 1.941 . S
Zn141 O148 1.965 1_545 S
Zn142 O140 1.953 . S
Zn142 O149 1.936 1_545 S
Zn142 O150 1.901 1_545 S
Zn142 O160 1.957 . S
Zn143 O140 1.945 . S
Zn143 O145 1.932 1_545 S
Zn143 O152 1.977 1_545 S
Zn143 O153 1.910 . S
O144 Zn141 1.933 1_565 S
O144 C155 1.226 . S
O145 Zn143 1.932 1_565 S
O145 C155 1.307 . S
O146 Zn139 1.919 . S
O146 C157 1.253 . S
O147 Zn141 1.941 . S
O147 C157 1.283 . S
O148 Zn141 1.965 1_565 S
O148 C156 1.303 . S
O149 Zn142 1.936 1_565 S
O149 C156 1.247 . S
O150 Zn142 1.901 1_565 S
O150 C158 1.304 . S
O151 Zn139 1.924 . S
O151 C159 1.311 . S
O152 Zn143 1.977 1_565 S
O152 C158 1.272 . S
O153 Zn143 1.910 . S
O153 C159 1.231 . S
C154 O138 1.225 1_556 S
C154 O160 1.298 1_556 S
C155 O144 1.226 . S
C155 O145 1.307 . S
C156 O148 1.303 . S
C156 O149 1.247 . S
C157 O146 1.253 . S
C157 O147 1.283 . S
C158 O150 1.304 . S
C158 O152 1.272 . S
C159 O151 1.311 . S
C159 O153 1.231 . S
O160 Zn142 1.957 . S
O160 C154 1.298 1_554 S
O161 Zn162 1.953 . S
O161 C177 1.225 . S
Zn162 O161 1.953 . S
Zn162 O163 1.949 . S
Zn162 O169 1.919 . S
Zn162 O174 1.924 . S
O163 Zn162 1.949 . S
O163 Zn164 1.923 . S
O163 Zn165 1.950 . S
O163 Zn166 1.945 . S
Zn164 O163 1.923 . S
Zn164 O167 1.933 . S
Zn164 O170 1.941 . S
Zn164 O171 1.965 . S
Zn165 O163 1.950 . S
Zn165 O172 1.938 . S
Zn165 O173 1.906 . S
Zn165 O183 1.953 . S
Zn166 O163 1.945 . S
Zn166 O168 1.932 . S
Zn166 O175 1.977 . S
Zn166 O176 1.910 . S
O167 Zn164 1.933 . S
O167 C178 1.226 . S
O168 Zn166 1.932 . S
O168 C178 1.307 . S
O169 Zn162 1.919 . S
O169 C180 1.253 . S
O170 Zn164 1.941 . S
O170 C180 1.283 . S
O171 Zn164 1.965 . S
O171 C179 1.303 . S
O172 Zn165 1.938 . S
O172 C179 1.247 . S
O173 Zn165 1.906 . S
O173 C181 1.304 . S
O174 Zn162 1.924 . S
O174 C182 1.311 . S
O175 Zn166 1.977 . S
O175 C181 1.272 . S
O176 Zn166 1.910 . S
O176 C182 1.231 . S
C177 O161 1.225 . S
C177 O183 1.298 . S
C178 O167 1.226 . S
C178 O168 1.307 . S
C179 O171 1.303 . S
C179 O172 1.247 . S
C180 O169 1.253 . S
C180 O170 1.283 . S
C181 O173 1.304 . S
C181 O175 1.272 . S
C182 O174 1.311 . S
C182 O176 1.231 . S
O183 Zn165 1.953 . S
O183 C177 1.298 . S
O184 Zn185 1.953 . S
O184 C200 1.225 . S
Zn185 O184 1.953 . S
Zn185 O186 1.949 . S
Zn185 O192 1.919 . S
Zn185 O197 1.924 . S
O186 Zn185 1.949 . S
O186 Zn187 1.923 . S
O186 Zn188 1.950 . S
O186 Zn189 1.945 . S
Zn187 O186 1.923 . S
Zn187 O190 1.933 . S
Zn187 O193 1.941 . S
Zn187 O194 1.965 . S
Zn188 O186 1.950 . S
Zn188 O195 1.938 . S
Zn188 O196 1.906 . S
Zn188 O206 1.953 . S
Zn189 O186 1.945 . S
Zn189 O191 1.932 . S
Zn189 O198 1.977 . S
Zn189 O199 1.910 . S
O190 Zn187 1.933 . S
O190 C201 1.226 . S
O191 Zn189 1.932 . S
O191 C201 1.307 . S
O192 Zn185 1.919 . S
O192 C203 1.253 . S
O193 Zn187 1.941 . S
O193 C203 1.283 . S
O194 Zn187 1.965 . S
O194 C202 1.303 . S
O195 Zn188 1.938 . S
O195 C202 1.247 . S
O196 Zn188 1.906 . S
O196 C204 1.304 . S
O197 Zn185 1.924 . S
O197 C205 1.311 . S
O198 Zn189 1.977 . S
O198 C204 1.272 . S
O199 Zn189 1.910 . S
O199 C205 1.231 . S
C200 O184 1.225 . S
C200 O206 1.298 . S
C201 O190 1.226 . S
C201 O191 1.307 . S
C202 O194 1.303 . S
C202 O195 1.247 . S
C203 O192 1.253 . S
C203 O193 1.283 . S
C204 O196 1.304 . S
C204 O198 1.272 . S
C205 O197 1.311 . S
C205 O199 1.231 . S
O206 Zn188 1.953 . S
O206 C200 1.298 . S
O207 Zn208 1.953 . S
O207 C223 1.225 1_554 S
Zn208 O207 1.953 . S
Zn208 O209 1.949 . S
Zn208 O215 1.919 . S
Zn208 O220 1.924 . S
O209 Zn208 1.949 . S
O209 Zn210 1.923 . S
O209 Zn211 1.953 . S
O209 Zn212 1.945 . S
Zn210 O209 1.923 . S
Zn210 O213 1.933 1_455 S
Zn210 O216 1.941 . S
Zn210 O217 1.965 1_455 S
Zn211 O209 1.953 . S
Zn211 O218 1.935 1_455 S
Zn211 O219 1.901 1_455 S
Zn211 O229 1.958 . S
Zn212 O209 1.945 . S
Zn212 O214 1.932 1_455 S
Zn212 O221 1.977 1_455 S
Zn212 O222 1.910 . S
O213 Zn210 1.933 1_655 S
O213 C224 1.226 . S
O214 Zn212 1.932 1_655 S
O214 C224 1.307 . S
O215 Zn208 1.919 . S
O215 C226 1.253 . S
O216 Zn210 1.941 . S
O216 C226 1.283 . S
O217 Zn210 1.965 1_655 S
O217 C225 1.303 . S
O218 Zn211 1.935 1_655 S
O218 C225 1.247 . S
O219 Zn211 1.901 1_655 S
O219 C227 1.304 . S
O220 Zn208 1.924 . S
O220 C228 1.311 . S
O221 Zn212 1.977 1_655 S
O221 C227 1.272 . S
O222 Zn212 1.910 . S
O222 C228 1.231 . S
C223 O207 1.225 1_556 S
C223 O229 1.298 1_556 S
C224 O213 1.226 . S
C224 O214 1.307 . S
C225 O217 1.303 . S
C225 O218 1.247 . S
C226 O215 1.253 . S
C226 O216 1.283 . S
C227 O219 1.304 . S
C227 O221 1.272 . S
C228 O220 1.311 . S
C228 O222 1.231 . S
O229 Zn211 1.958 . S
O229 C223 1.298 1_554 S
O230 Zn231 1.953 . S
O230 C246 1.225 . S
Zn231 O230 1.953 . S
Zn231 O232 1.949 . S
Zn231 O238 1.919 . S
Zn231 O243 1.924 . S
O232 Zn231 1.949 . S
O232 Zn233 1.923 . S
O232 Zn234 1.956 . S
O232 Zn235 1.945 . S
Zn233 O232 1.923 . S
Zn233 O236 1.933 1_545 S
Zn233 O239 1.941 . S
Zn233 O240 1.965 1_545 S
Zn234 O232 1.956 . S
Zn234 O241 1.933 1_545 S
Zn234 O242 1.897 1_545 S
Zn234 O252 1.962 . S
Zn235 O232 1.945 . S
Zn235 O237 1.932 1_545 S
Zn235 O244 1.977 1_545 S
Zn235 O245 1.910 . S
O236 Zn233 1.933 1_565 S
O236 C247 1.226 . S
O237 Zn235 1.932 1_565 S
O237 C247 1.307 . S
O238 Zn231 1.919 . S
O238 C249 1.253 . S
O239 Zn233 1.941 . S
O239 C249 1.283 . S
O240 Zn233 1.965 1_565 S
O240 C248 1.303 . S
O241 Zn234 1.933 1_565 S
O241 C248 1.247 . S
O242 Zn234 1.897 1_565 S
O242 C250 1.304 . S
O243 Zn231 1.924 . S
O243 C251 1.311 . S
O244 Zn235 1.977 1_565 S
O244 C250 1.272 . S
O245 Zn235 1.910 . S
O245 C251 1.231 . S
C246 O230 1.225 . S
C246 O252 1.298 . S
C247 O236 1.226 . S
C247 O237 1.307 . S
C248 O240 1.303 . S
C248 O241 1.247 . S
C249 O238 1.253 . S
C249 O239 1.283 . S
C250 O242 1.304 . S
C250 O244 1.272 . S
C251 O243 1.311 . S
C251 O245 1.231 . S
O252 Zn234 1.962 . S
O252 C246 1.298 . S
O253 Zn254 1.953 . S
O253 C269 1.225 1_554 S
Zn254 O253 1.953 . S
Zn254 O255 1.949 . S
Zn254 O261 1.919 . S
Zn254 O266 1.924 . S
O255 Zn254 1.949 . S
O255 Zn256 1.923 . S
O255 Zn257 1.950 . S
O255 Zn258 1.945 . S
Zn256 O255 1.923 . S
Zn256 O259 1.933 . S
Zn256 O262 1.941 . S
Zn256 O263 1.965 . S
Zn257 O255 1.950 . S
Zn257 O264 1.938 . S
Zn257 O265 1.906 . S
Zn257 O275 1.953 . S
Zn258 O255 1.945 . S
Zn258 O260 1.932 . S
Zn258 O267 1.977 . S
Zn258 O268 1.910 . S
O259 Zn256 1.933 . S
O259 C270 1.226 . S
O260 Zn258 1.932 . S
O260 C270 1.307 . S
O261 Zn254 1.919 . S
O261 C272 1.253 . S
O262 Zn256 1.941 . S
O262 C272 1.283 . S
O263 Zn256 1.965 . S
O263 C271 1.303 . S
O264 Zn257 1.938 . S
O264 C271 1.247 . S
O265 Zn257 1.906 . S
O265 C273 1.304 . S
O266 Zn254 1.924 . S
O266 C274 1.311 . S
O267 Zn258 1.977 . S
O267 C273 1.272 . S
O268 Zn258 1.910 . S
O268 C274 1.231 . S
C269 O253 1.225 1_556 S
C269 O275 1.298 1_556 S
C270 O259 1.226 . S
C270 O260 1.307 . S
C271 O263 1.303 . S
C271 O264 1.247 . S
C272 O261 1.253 . S
C272 O262 1.283 . S
C273 O265 1.304 . S
C273 O267 1.272 . S
C274 O266 1.311 . S
C274 O268 1.231 . S
O275 Zn257 1.953 . S
O275 C269 1.298 1_554 S
O276 Zn277 1.953 . S
O276 C292 1.218 1_556 S
Zn277 O276 1.953 . S
Zn277 O278 1.949 . S
Zn277 O284 1.919 . S
Zn277 O289 1.924 . S
O278 Zn277 1.949 . S
O278 Zn279 1.923 . S
O278 Zn280 1.950 . S
O278 Zn281 1.945 . S
Zn279 O278 1.923 . S
Zn279 O282 1.933 . S
Zn279 O285 1.941 . S
Zn279 O286 1.965 . S
Zn280 O278 1.950 . S
Zn280 O287 1.938 . S
Zn280 O288 1.906 . S
Zn280 O298 1.953 . S
Zn281 O278 1.945 . S
Zn281 O283 1.932 . S
Zn281 O290 1.977 . S
Zn281 O291 1.910 . S
O282 Zn279 1.933 . S
O282 C293 1.226 . S
O283 Zn281 1.932 . S
O283 C293 1.307 . S
O284 Zn277 1.919 . S
O284 C295 1.253 . S
O285 Zn279 1.941 . S
O285 C295 1.283 . S
O286 Zn279 1.965 . S
O286 C294 1.303 . S
O287 Zn280 1.938 . S
O287 C294 1.247 . S
O288 Zn280 1.906 . S
O288 C296 1.304 . S
O289 Zn277 1.924 . S
O289 C297 1.311 . S
O290 Zn281 1.977 . S
O290 C296 1.272 . S
O291 Zn281 1.910 . S
O291 C297 1.231 . S
C292 O276 1.218 1_554 S
C292 O298 1.297 1_554 S
C293 O282 1.226 . S
C293 O283 1.307 . S
C294 O286 1.303 . S
C294 O287 1.247 . S
C295 O284 1.253 . S
C295 O285 1.283 . S
C296 O288 1.304 . S
C296 O290 1.272 . S
C297 O289 1.311 . S
C297 O291 1.231 . S
O298 Zn280 1.953 . S
O298 C292 1.297 1_556 S
O299 Zn300 1.953 . S
O299 C315 1.225 . S
Zn300 O299 1.953 . S
Zn300 O301 1.949 . S
Zn300 O307 1.919 . S
Zn300 O312 1.924 . S
O301 Zn300 1.949 . S
O301 Zn302 1.923 . S
O301 Zn303 1.951 . S
O301 Zn304 1.945 . S
Zn302 O301 1.923 . S
Zn302 O305 1.933 1_655 S
Zn302 O308 1.941 . S
Zn302 O309 1.965 1_655 S
Zn303 O301 1.951 . S
Zn303 O310 1.937 1_655 S
Zn303 O311 1.905 1_655 S
Zn303 O321 1.954 . S
Zn304 O301 1.945 . S
Zn304 O306 1.932 1_655 S
Zn304 O313 1.977 1_655 S
Zn304 O314 1.910 . S
O305 Zn302 1.933 1_455 S
O305 C316 1.226 . S
O306 Zn304 1.932 1_455 S
O306 C316 1.307 . S
O307 Zn300 1.919 . S
O307 C318 1.253 . S
O308 Zn302 1.941 . S
O308 C318 1.283 . S
O309 Zn302 1.965 1_455 S
O309 C317 1.303 . S
O310 Zn303 1.937 1_455 S
O310 C317 1.247 . S
O311 Zn303 1.905 1_455 S
O311 C319 1.304 . S
O312 Zn300 1.924 . S
O312 C320 1.311 . S
O313 Zn304 1.977 1_455 S
O313 C319 1.272 . S
O314 Zn304 1.910 . S
O314 C320 1.231 . S
C315 O299 1.225 . S
C315 O321 1.298 . S
C316 O305 1.226 . S
C316 O306 1.307 . S
C317 O309 1.303 . S
C317 O310 1.247 . S
C318 O307 1.253 . S
C318 O308 1.283 . S
C319 O311 1.304 . S
C319 O313 1.272 . S
C320 O312 1.311 . S
C320 O314 1.231 . S
O321 Zn303 1.954 . S
O321 C315 1.298 . S
O322 Zn323 1.953 . S
O322 C338 1.225 1_556 S
Zn323 O322 1.953 . S
Zn323 O324 1.949 . S
Zn323 O330 1.919 . S
Zn323 O335 1.924 . S
O324 Zn323 1.949 . S
O324 Zn325 1.923 . S
O324 Zn326 1.950 1_565 S
O324 Zn327 1.945 . S
Zn325 O324 1.923 . S
Zn325 O328 1.933 1_565 S
Zn325 O331 1.941 . S
Zn325 O332 1.965 1_565 S
Zn326 O324 1.950 1_545 S
Zn326 O333 1.939 . S
Zn326 O334 1.906 . S
Zn326 O344 1.953 1_545 S
Zn327 O324 1.945 . S
Zn327 O329 1.932 1_565 S
Zn327 O336 1.977 1_565 S
Zn327 O337 1.910 . S
O328 Zn325 1.933 1_545 S
O328 C339 1.226 . S
O329 Zn327 1.932 1_545 S
O329 C339 1.307 . S
O330 Zn323 1.919 . S
O330 C341 1.253 . S
O331 Zn325 1.941 . S
O331 C341 1.283 . S
O332 Zn325 1.965 1_545 S
O332 C340 1.303 . S
O333 Zn326 1.939 . S
O333 C340 1.247 . S
O334 Zn326 1.906 . S
O334 C342 1.304 . S
O335 Zn323 1.924 . S
O335 C343 1.311 . S
O336 Zn327 1.977 1_545 S
O336 C342 1.272 . S
O337 Zn327 1.910 . S
O337 C343 1.231 . S
C338 O322 1.225 1_554 S
C338 O344 1.298 1_554 S
C339 O328 1.226 . S
C339 O329 1.307 . S
C340 O332 1.303 . S
C340 O333 1.247 . S
C341 O330 1.253 . S
C341 O331 1.283 . S
C342 O334 1.304 . S
C342 O336 1.272 . S
C343 O335 1.311 . S
C343 O337 1.231 . S
O344 Zn326 1.953 1_565 S
O344 C338 1.298 1_556 S
O345 Zn346 1.953 . S
O345 C361 1.225 . S
Zn346 O345 1.953 . S
Zn346 O347 1.949 . S
Zn346 O353 1.919 . S
Zn346 O358 1.924 . S
O347 Zn346 1.949 . S
O347 Zn348 1.923 . S
O347 Zn349 1.950 . S
O347 Zn350 1.945 . S
Zn348 O347 1.923 . S
Zn348 O351 1.933 . S
Zn348 O354 1.941 . S
Zn348 O355 1.965 . S
Zn349 O347 1.950 . S
Zn349 O356 1.938 . S
Zn349 O357 1.906 . S
Zn349 O367 1.953 . S
Zn350 O347 1.945 . S
Zn350 O352 1.932 . S
Zn350 O359 1.977 . S
Zn350 O360 1.910 . S
O351 Zn348 1.933 . S
O351 C362 1.226 . S
O352 Zn350 1.932 . S
O352 C362 1.307 . S
O353 Zn346 1.919 . S
O353 C364 1.253 . S
O354 Zn348 1.941 . S
O354 C364 1.283 . S
O355 Zn348 1.965 . S
O355 C363 1.303 . S
O356 Zn349 1.938 . S
O356 C363 1.247 . S
O357 Zn349 1.906 . S
O357 C365 1.304 . S
O358 Zn346 1.924 . S
O358 C366 1.311 . S
O359 Zn350 1.977 . S
O359 C365 1.272 . S
O360 Zn350 1.910 . S
O360 C366 1.231 . S
C361 O345 1.225 . S
C361 O367 1.298 . S
C362 O351 1.226 . S
C362 O352 1.307 . S
C363 O355 1.303 . S
C363 O356 1.247 . S
C364 O353 1.253 . S
C364 O354 1.283 . S
C365 O357 1.304 . S
C365 O359 1.272 . S
C366 O358 1.311 . S
C366 O360 1.231 . S
O367 Zn349 1.953 . S
O367 C361 1.298 . S
C16 C177 1.463 . S
C108 C39 1.460 1_556 S
C131 C62 1.465 . S
C85 C154 1.470 1_554 S
C362 C200 1.469 . S
C292 C223 1.461 1_554 S
C315 C246 1.464 . S
C338 C269 1.467 1_554 S
C20 C366 1.173 . S
C43 C296 1.152 . S
C66 C319 1.143 . S
C342 C89 1.140 . S
C227 C112 1.143 . S
C135 C250 1.146 . S
C273 C158 1.142 . S
C181 C204 1.118 . S
C294 C17 2.064 1_556 S
C40 C317 2.066 . S
C340 C63 2.065 1_556 S
C364 C86 2.189 . S
C109 C202 2.074 . S
C132 C225 2.067 1_556 S
C155 C248 2.074 . S
C271 C178 2.065 1_554 S
C201 C110 2.058 1_556 S
C224 C133 2.066 . S
C156 C247 2.059 1_554 S
C270 C179 2.069 . S
C293 C18 2.068 . S
C316 C41 2.067 1_554 S
C64 C339 2.068 . S
C87 C361 2.151 1_556 S
C19 C228 1.912 . S
C251 C42 1.910 . S
C65 C274 1.903 . S
C88 C205 1.929 . S
C111 C365 2.023 . S
C134 C297 1.906 . S
C157 C320 1.909 . S
C343 C180 1.905 . S
C44 C203 1.914 . S
C67 C226 1.906 . S
C249 C90 1.911 . S
C272 C21 1.913 . S
C182 C295 1.903 . S
C113 C318 1.909 . S
C136 C341 1.904 . S
C159 C363 2.114 . S
