# Generated by pormake.
# Topology uoy, (4)-cn, num edge types: 1
# Building blocks:
#     Node 0, Type 0, BuildingBlock: AZAVOO_clean_sbu_0, # of connection points: 4
#     Node 1, Type 0, BuildingBlock: AZAVOO_clean_sbu_0, # of connection points: 4
#     Node 2, Type 0, BuildingBlock: AZAVOO_clean_sbu_0, # of connection points: 4
#     Node 3, Type 0, BuildingBlock: AZAVOO_clean_sbu_0, # of connection points: 4
#     Node 4, Type 0, BuildingBlock: AZAVOO_clean_sbu_0, # of connection points: 4
#     Node 5, Type 0, BuildingBlock: AZAVOO_clean_sbu_0, # of connection points: 4
#     Node 6, Type 0, BuildingBlock: AZAVOO_clean_sbu_0, # of connection points: 4
#     Node 7, Type 0, BuildingBlock: AZAVOO_clean_sbu_0, # of connection points: 4
#     Node 8, Type 0, BuildingBlock: AZAVOO_clean_sbu_0, # of connection points: 4
#     Node 9, Type 0, BuildingBlock: AZAVOO_clean_sbu_0, # of connection points: 4
#     Node 10, Type 0, BuildingBlock: AZAVOO_clean_sbu_0, # of connection points: 4
#     Node 11, Type 0, BuildingBlock: AZAVOO_clean_sbu_0, # of connection points: 4
#     Node 12, Type 0, BuildingBlock: AZAVOO_clean_sbu_0, # of connection points: 4
#     Node 13, Type 0, BuildingBlock: AZAVOO_clean_sbu_0, # of connection points: 4
#     Node 14, Type 0, BuildingBlock: AZAVOO_clean_sbu_0, # of connection points: 4
#     Node 15, Type 0, BuildingBlock: AZAVOO_clean_sbu_0, # of connection points: 4
#     Edge 16, Type (0, 0), BuildingBlock: OJICUG_clean_linker_0, # of connection points: 2
#     Edge 17, Type (0, 0), BuildingBlock: OJICUG_clean_linker_0, # of connection points: 2
#     Edge 18, Type (0, 0), BuildingBlock: OJICUG_clean_linker_0, # of connection points: 2
#     Edge 19, Type (0, 0), BuildingBlock: OJICUG_clean_linker_0, # of connection points: 2
#     Edge 20, Type (0, 0), BuildingBlock: OJICUG_clean_linker_0, # of connection points: 2
#     Edge 21, Type (0, 0), BuildingBlock: OJICUG_clean_linker_0, # of connection points: 2
#     Edge 22, Type (0, 0), BuildingBlock: OJICUG_clean_linker_0, # of connection points: 2
#     Edge 23, Type (0, 0), BuildingBlock: OJICUG_clean_linker_0, # of connection points: 2
#     Edge 24, Type (0, 0), BuildingBlock: OJICUG_clean_linker_0, # of connection points: 2
#     Edge 25, Type (0, 0), BuildingBlock: OJICUG_clean_linker_0, # of connection points: 2
#     Edge 26, Type (0, 0), BuildingBlock: OJICUG_clean_linker_0, # of connection points: 2
#     Edge 27, Type (0, 0), BuildingBlock: OJICUG_clean_linker_0, # of connection points: 2
#     Edge 28, Type (0, 0), BuildingBlock: OJICUG_clean_linker_0, # of connection points: 2
#     Edge 29, Type (0, 0), BuildingBlock: OJICUG_clean_linker_0, # of connection points: 2
#     Edge 30, Type (0, 0), BuildingBlock: OJICUG_clean_linker_0, # of connection points: 2
#     Edge 31, Type (0, 0), BuildingBlock: OJICUG_clean_linker_0, # of connection points: 2
#     Edge 32, Type (0, 0), BuildingBlock: OJICUG_clean_linker_0, # of connection points: 2
#     Edge 33, Type (0, 0), BuildingBlock: OJICUG_clean_linker_0, # of connection points: 2
#     Edge 34, Type (0, 0), BuildingBlock: OJICUG_clean_linker_0, # of connection points: 2
#     Edge 35, Type (0, 0), BuildingBlock: OJICUG_clean_linker_0, # of connection points: 2
#     Edge 36, Type (0, 0), BuildingBlock: OJICUG_clean_linker_0, # of connection points: 2
#     Edge 37, Type (0, 0), BuildingBlock: OJICUG_clean_linker_0, # of connection points: 2
#     Edge 38, Type (0, 0), BuildingBlock: OJICUG_clean_linker_0, # of connection points: 2
#     Edge 39, Type (0, 0), BuildingBlock: OJICUG_clean_linker_0, # of connection points: 2
#     Edge 40, Type (0, 0), BuildingBlock: OJICUG_clean_linker_0, # of connection points: 2
#     Edge 41, Type (0, 0), BuildingBlock: OJICUG_clean_linker_0, # of connection points: 2
#     Edge 42, Type (0, 0), BuildingBlock: OJICUG_clean_linker_0, # of connection points: 2
#     Edge 43, Type (0, 0), BuildingBlock: OJICUG_clean_linker_0, # of connection points: 2
#     Edge 44, Type (0, 0), BuildingBlock: OJICUG_clean_linker_0, # of connection points: 2
#     Edge 45, Type (0, 0), BuildingBlock: OJICUG_clean_linker_0, # of connection points: 2
#     Edge 46, Type (0, 0), BuildingBlock: OJICUG_clean_linker_0, # of connection points: 2
#     Edge 47, Type (0, 0), BuildingBlock: OJICUG_clean_linker_0, # of connection points: 2
# Relax obj value: 0.175
# Max RMSD: 0.202
# Mean RMSD: 0.202
data_MOF--net-uoy--node1-AZAVOO_clean_sbu_0--edge1-OJICUG_clean_linker_0
_symmetry_space_group_name_H-M    P1
_symmetry_Int_Tables_number       1
_symmetry_cell_setting            triclinic
loop_
_symmetry_equiv_pos_as_xyz
'x, y, z'
_cell_length_a     19.08675
_cell_length_b     19.076414
_cell_length_c     81.24667
_cell_angle_alpha  89.865119
_cell_angle_beta   90.181081
_cell_angle_gamma 89.975189
loop_
_atom_site_label
_atom_site_type_symbol
_atom_site_fract_x
_atom_site_fract_y
_atom_site_fract_z
_atom_type_partial_charge
Mg0 Mg 0.23831 0.24831 0.17891 0.0
O1 O 0.31091 0.16636 0.16696 0.0
O2 O 0.30069 0.18032 0.1398 0.0
Mg3 Mg 0.21626 0.26315 0.13439 0.0
C4 C 0.32973 0.1516 0.15229 0.0
C5 C 0.21243 0.20325 0.21506 0.0
O6 O 0.15188 0.23276 0.21162 0.0
O7 O 0.13626 0.18506 0.17421 0.0
O8 O 0.1269 0.20503 0.1472 0.0
O9 O 0.32896 0.32305 0.17586 0.0
O10 O 0.24193 0.3112 0.15805 0.0
C11 C 0.1024 0.18038 0.16062 0.0
C12 C 0.30174 0.33778 0.16166 0.0
O13 O 0.25789 0.19781 0.20376 0.0
Mg14 Mg 0.84708 0.77632 0.40991 0.0
O15 O 0.91733 0.8691 0.4159 0.0
O16 O 0.01902 0.85712 0.40275 0.0
Mg17 Mg 0.00998 0.75872 0.38677 0.0
C18 C 0.97858 0.89063 0.41241 0.0
C19 C 0.74349 0.76088 0.43947 0.0
O20 O 0.72876 0.7023 0.43171 0.0
O21 O 0.91152 0.69666 0.4247 0.0
O22 O 0.00724 0.68513 0.40916 0.0
O23 O 0.80346 0.83747 0.38848 0.0
O24 O 0.89392 0.76589 0.38694 0.0
C25 C 0.97051 0.66804 0.42164 0.0
C26 C 0.85281 0.80968 0.37972 0.0
O27 O 0.78592 0.80386 0.43294 0.0
Mg28 Mg 0.31142 0.3187 0.68545 0.0
O29 O 0.22338 0.39927 0.6832 0.0
O30 O 0.23517 0.45718 0.65943 0.0
Mg31 Mg 0.32979 0.41107 0.64617 0.0
C32 C 0.20273 0.44519 0.67285 0.0
C33 C 0.25634 0.25708 0.71853 0.0
O34 O 0.24597 0.20266 0.70895 0.0
O35 O 0.39736 0.39977 0.6904 0.0
O36 O 0.40739 0.45045 0.6657 0.0
O37 O 0.24 0.24247 0.67328 0.0
O38 O 0.31331 0.3116 0.65977 0.0
C39 C 0.42648 0.4435 0.68069 0.0
C40 C 0.26263 0.2669 0.65941 0.0
O41 O 0.28574 0.31131 0.71266 0.0
Mg42 Mg 0.66301 0.71009 0.90613 0.0
O43 O 0.59949 0.61501 0.91456 0.0
O44 O 0.49297 0.62254 0.90325 0.0
Mg45 Mg 0.49214 0.71664 0.88572 0.0
C46 C 0.53749 0.59182 0.91253 0.0
C47 C 0.76235 0.74707 0.93487 0.0
O48 O 0.7573 0.80816 0.92745 0.0
O49 O 0.59965 0.78851 0.92109 0.0
O50 O 0.49898 0.79502 0.90703 0.0
O51 O 0.70291 0.64804 0.88452 0.0
O52 O 0.6079 0.71359 0.8841 0.0
C53 C 0.53909 0.81498 0.91872 0.0
C54 C 0.64931 0.67195 0.87643 0.0
O55 O 0.73431 0.69375 0.92819 0.0
Mg56 Mg 0.30324 0.34691 0.0671 0.0
O57 O 0.39556 0.41131 0.05766 0.0
O58 O 0.38833 0.51866 0.06842 0.0
Mg59 Mg 0.29535 0.52016 0.08608 0.0
C60 C 0.41847 0.47363 0.05927 0.0
C61 C 0.26607 0.24421 0.03915 0.0
O62 O 0.20508 0.24958 0.0465 0.0
O63 O 0.22208 0.40651 0.05193 0.0
O64 O 0.21607 0.5094 0.06494 0.0
O65 O 0.37 0.3115 0.08835 0.0
O66 O 0.30159 0.40472 0.08867 0.0
C67 C 0.19552 0.46732 0.05373 0.0
C68 C 0.3465 0.36577 0.09617 0.0
O69 O 0.31925 0.27323 0.04565 0.0
Mg70 Mg 0.73595 0.70839 0.29189 0.0
O71 O 0.64804 0.78049 0.30151 0.0
O72 O 0.64548 0.76455 0.32872 0.0
Mg73 Mg 0.72305 0.67836 0.33633 0.0
C74 C 0.62489 0.79658 0.31575 0.0
C75 C 0.70181 0.79229 0.25991 0.0
O76 O 0.71788 0.84397 0.26989 0.0
O77 O 0.66981 0.6064 0.29345 0.0
O78 O 0.67478 0.5913 0.32072 0.0
O79 O 0.81013 0.79683 0.29852 0.0
O80 O 0.7846 0.70778 0.31485 0.0
C81 C 0.65806 0.56978 0.30637 0.0
C82 C 0.81497 0.76697 0.31278 0.0
O83 O 0.70161 0.72994 0.26547 0.0
Mg84 Mg 0.2207 0.10877 0.56802 0.0
O85 O 0.11541 0.04679 0.568 0.0
O86 O 0.11825 0.98284 0.59107 0.0
Mg87 Mg 0.21994 1.00137 0.60544 0.0
C88 C 0.08707 1.00327 0.57797 0.0
C89 C 0.22032 0.20431 0.53784 0.0
O90 O 0.24002 0.24681 0.54968 0.0
O91 O 0.2878 0.01364 0.5609 0.0
O92 O 0.29173 0.95855 0.58516 0.0
O93 O 0.17432 0.19651 0.58302 0.0
O94 O 0.22671 0.10365 0.5935 0.0
C95 C 0.31193 0.96531 0.57025 0.0
C96 C 0.19493 0.16194 0.59588 0.0
O97 O 0.20604 0.14096 0.54137 0.0
Mg98 Mg 0.76284 0.80636 0.79341 0.0
O99 O 0.85079 0.734 0.80362 0.0
O100 O 0.84226 0.74304 0.83093 0.0
Mg101 Mg 0.75782 0.82251 0.83816 0.0
C102 C 0.86925 0.71523 0.81814 0.0
C103 C 0.77626 0.84054 0.75726 0.0
O104 O 0.72995 0.88557 0.76283 0.0
O105 O 0.8234 0.90957 0.79814 0.0
O106 O 0.80893 0.91626 0.82535 0.0
O107 O 0.69211 0.71229 0.79652 0.0
O108 O 0.70629 0.79594 0.81501 0.0
C109 C 0.82971 0.94255 0.81175 0.0
C110 C 0.68084 0.73593 0.81119 0.0
O111 O 0.80505 0.79844 0.76738 0.0
Mg112 Mg 0.80485 0.66546 0.66054 0.0
O113 O 0.89861 0.59797 0.66758 0.0
O114 O 0.88837 0.49384 0.65535 0.0
Mg115 Mg 0.79079 0.49837 0.63891 0.0
C116 C 0.92096 0.53634 0.66474 0.0
C117 C 0.78594 0.7767 0.68824 0.0
O118 O 0.72972 0.79067 0.67945 0.0
O119 O 0.72585 0.6023 0.67566 0.0
O120 O 0.71623 0.50373 0.661 0.0
O121 O 0.8662 0.70658 0.63902 0.0
O122 O 0.79654 0.61444 0.63804 0.0
C123 C 0.6982 0.5424 0.67308 0.0
C124 C 0.83985 0.6552 0.63062 0.0
O125 O 0.8293 0.73168 0.68296 0.0
Mg126 Mg 0.31792 0.20215 0.9334 0.0
O127 O 0.39934 0.29082 0.93227 0.0
O128 O 0.45429 0.28289 0.90806 0.0
Mg129 Mg 0.40584 0.1929 0.89355 0.0
C130 C 0.44458 0.31267 0.92191 0.0
C131 C 0.2684 0.18179 0.96991 0.0
O132 O 0.22111 0.14184 0.96283 0.0
O133 O 0.39871 0.11548 0.93663 0.0
O134 O 0.44733 0.11014 0.9117 0.0
O135 O 0.24029 0.27705 0.92278 0.0
O136 O 0.30869 0.20809 0.90793 0.0
C137 C 0.44141 0.08816 0.92648 0.0
C138 C 0.26377 0.25853 0.90849 0.0
O139 O 0.31272 0.21412 0.96108 0.0
Mg140 Mg 0.73074 0.9162 0.15663 0.0
O141 O 0.62985 0.98327 0.15428 0.0
O142 O 0.63625 0.03909 0.13015 0.0
Mg143 Mg 0.73818 0.00889 0.11704 0.0
C144 C 0.60372 0.02445 0.14344 0.0
C145 C 0.69363 0.84016 0.1897 0.0
O146 O 0.68624 0.7873 0.17951 0.0
O147 O 0.80337 0.00993 0.16194 0.0
O148 O 0.81084 0.05593 0.13671 0.0
O149 O 0.67965 0.82601 0.14303 0.0
O150 O 0.73887 0.91114 0.13115 0.0
C151 C 0.83017 0.05356 0.15178 0.0
C152 C 0.70268 0.85497 0.12968 0.0
O153 O 0.71021 0.89996 0.18399 0.0
Mg154 Mg 0.19724 0.28285 0.43179 0.0
O155 O 0.11822 0.19322 0.42989 0.0
O156 O 0.05658 0.20609 0.40665 0.0
Mg157 Mg 0.09924 0.30236 0.39328 0.0
C158 C 0.07112 0.17271 0.41985 0.0
C159 C 0.21508 0.30023 0.47032 0.0
O160 O 0.21737 0.36735 0.4667 0.0
O161 O 0.11521 0.36685 0.43755 0.0
O162 O 0.06128 0.37822 0.41325 0.0
O163 O 0.27327 0.21398 0.41895 0.0
O164 O 0.20067 0.28675 0.40614 0.0
C165 C 0.06992 0.39622 0.42824 0.0
C166 C 0.2464 0.23707 0.40532 0.0
O167 O 0.20924 0.25568 0.45882 0.0
Mg168 Mg 0.72031 0.76883 0.54527 0.0
O169 O 0.79425 0.85773 0.55433 0.0
O170 O 0.7827 0.85664 0.58168 0.0
Mg171 Mg 0.70131 0.77592 0.59 0.0
C172 C 0.81213 0.87962 0.56863 0.0
C173 C 0.6881 0.77066 0.50902 0.0
O174 O 0.64298 0.72668 0.51554 0.0
O175 O 0.61816 0.83287 0.54863 0.0
O176 O 0.6093 0.8244 0.57598 0.0
O177 O 0.81183 0.69576 0.54993 0.0
O178 O 0.72773 0.7183 0.56778 0.0
C179 C 0.58427 0.84238 0.562 0.0
C180 C 0.78669 0.68928 0.56462 0.0
O181 O 0.73026 0.80278 0.51853 0.0
Mg182 Mg 0.09704 0.30568 0.81838 0.0
O183 O 0.03601 0.41166 0.81814 0.0
O184 O 0.97276 0.40966 0.84124 0.0
Mg185 Mg 0.99145 0.30872 0.85592 0.0
C186 C 0.99291 0.44046 0.8281 0.0
C187 C 0.14258 0.25984 0.78434 0.0
O188 O 0.13373 0.20055 0.79233 0.0
O189 O 1.00099 0.23919 0.81157 0.0
O190 O 0.94756 0.23554 0.83596 0.0
O191 O 0.18592 0.35197 0.83307 0.0
O192 O 0.09309 0.3014 0.84387 0.0
C193 C 0.95348 0.21497 0.82106 0.0
C194 C 0.15189 0.33253 0.84606 0.0
O195 O 0.1291 0.31712 0.79164 0.0
Mg196 Mg 0.81066 0.68984 0.04081 0.0
O197 O 0.72072 0.61036 0.04129 0.0
O198 O 0.72861 0.5495 0.06477 0.0
Mg199 Mg 0.82024 0.59289 0.07965 0.0
C200 C 0.6985 0.56307 0.05109 0.0
C201 C 0.82807 0.74363 0.00416 0.0
O202 O 0.87079 0.78913 0.01099 0.0
O203 O 0.8952 0.60782 0.0365 0.0
O204 O 0.90093 0.55392 0.06089 0.0
O205 O 0.73866 0.76678 0.05267 0.0
O206 O 0.80747 0.69399 0.06648 0.0
C207 C 0.9222 0.56245 0.04615 0.0
C208 C 0.75847 0.74049 0.06665 0.0
O209 O 0.79573 0.6999 0.01317 0.0
Mg210 Mg 0.39498 0.20248 0.31272 0.0
O211 O 0.46026 0.09978 0.31371 0.0
O212 O 0.5243 0.10637 0.33672 0.0
Mg213 Mg 0.50354 0.2101 0.34995 0.0
C214 C 0.50425 0.07335 0.32389 0.0
C215 C 0.2987 0.18266 0.28281 0.0
O216 O 0.25369 0.19494 0.29466 0.0
O217 O 0.48751 0.27222 0.30485 0.0
O218 O 0.54425 0.27919 0.32887 0.0
O219 O 0.31008 0.1543 0.32828 0.0
O220 O 0.40067 0.21248 0.33812 0.0
C221 C 0.53624 0.29774 0.31385 0.0
C222 C 0.34443 0.17771 0.34087 0.0
O223 O 0.36368 0.18074 0.28625 0.0
C224 C 0.39876 0.32681 0.12303 0.0
C225 C 0.36027 0.37641 0.11391 0.0
H226 H 0.41381 0.27886 0.14666 0.0
C227 C 0.32258 0.42831 0.12239 0.0
H228 H 0.42914 0.28676 0.11687 0.0
C229 C 0.31325 0.42307 0.13936 0.0
C230 C 0.34266 0.3669 0.14808 0.0
H231 H 0.29332 0.46813 0.1158 0.0
H232 H 0.27579 0.45751 0.14525 0.0
C233 C 0.39059 0.32269 0.14013 0.0
C234 C 0.80426 0.85638 0.35308 0.0
C235 C 0.85677 0.81947 0.36166 0.0
H236 H 0.75182 0.87109 0.32992 0.0
C237 C 0.90669 0.78146 0.35261 0.0
H238 H 0.76525 0.88643 0.35967 0.0
C239 C 0.8987 0.77264 0.33568 0.0
C240 C 0.84162 0.80276 0.32744 0.0
H241 H 0.94819 0.75283 0.35876 0.0
H242 H 0.93302 0.73642 0.32934 0.0
C243 C 0.79692 0.8482 0.33602 0.0
C244 C 0.19126 0.14852 0.62635 0.0
C245 C 0.19388 0.19248 0.61248 0.0
H246 H 0.20998 0.13843 0.65227 0.0
C247 C 0.20983 0.2637 0.61456 0.0
H248 H 0.1786 0.0935 0.62508 0.0
C249 C 0.22943 0.28898 0.63003 0.0
C250 C 0.23184 0.24374 0.64368 0.0
H251 H 0.21255 0.29859 0.60404 0.0
H252 H 0.24471 0.34329 0.63116 0.0
C253 C 0.20926 0.17419 0.64189 0.0
C254 C 0.59618 0.71557 0.83327 0.0
C255 C 0.65476 0.69183 0.8246 0.0
H256 H 0.54697 0.72539 0.85664 0.0
C257 C 0.70148 0.64518 0.8323 0.0
H258 H 0.55996 0.75221 0.8276 0.0
C259 C 0.6957 0.6315 0.84919 0.0
C260 C 0.64232 0.66354 0.85839 0.0
H261 H 0.74733 0.62658 0.82581 0.0
H262 H 0.73685 0.60192 0.85525 0.0
C263 C 0.58944 0.70077 0.85001 0.0
C264 C 0.87308 0.70881 0.58672 0.0
C265 C 0.82759 0.66262 0.57855 0.0
H266 H 0.91308 0.7429 0.61005 0.0
C267 C 0.80124 0.6044 0.58701 0.0
H268 H 0.89332 0.75459 0.58042 0.0
C269 C 0.81268 0.59734 0.60389 0.0
C270 C 0.84952 0.64929 0.61261 0.0
H271 H 0.76521 0.56877 0.58098 0.0
H272 H 0.78629 0.55517 0.61029 0.0
C273 C 0.8838 0.70242 0.60372 0.0
C274 C 0.28284 0.29857 0.87955 0.0
C275 C 0.23881 0.29272 0.8933 0.0
H276 H 0.28979 0.31905 0.85368 0.0
C277 C 0.16862 0.31377 0.89192 0.0
H278 H 0.3376 0.28451 0.88039 0.0
C279 C 0.14113 0.33317 0.87662 0.0
C280 C 0.18387 0.33332 0.86257 0.0
H281 H 0.13377 0.31037 0.9024 0.0
H282 H 0.08568 0.34428 0.87563 0.0
C283 C 0.25571 0.31947 0.86432 0.0
C284 C 0.70537 0.83479 0.08376 0.0
C285 C 0.72853 0.76524 0.08234 0.0
H286 H 0.6776 0.91792 0.10016 0.0
C287 C 0.72942 0.72226 0.09642 0.0
H288 H 0.70361 0.86896 0.0731 0.0
C289 C 0.71306 0.74994 0.11186 0.0
C290 C 0.69703 0.82132 0.11346 0.0
H291 H 0.74552 0.66806 0.09565 0.0
H292 H 0.71877 0.71699 0.12266 0.0
C293 C 0.69054 0.86283 0.09924 0.0
C294 C 0.33788 0.18738 0.38697 0.0
C295 C 0.26813 0.20814 0.38934 0.0
H296 H 0.41695 0.16015 0.36949 0.0
C297 C 0.22122 0.20605 0.376 0.0
H298 H 0.37491 0.18787 0.39711 0.0
C299 C 0.24492 0.18867 0.36027 0.0
C300 C 0.31614 0.17464 0.35766 0.0
H301 H 0.16677 0.21993 0.37757 0.0
H302 H 0.20869 0.19161 0.35 0.0
C303 C 0.36191 0.17156 0.3712 0.0
C304 C 0.30128 0.16943 0.23637 0.0
C305 C 0.23192 0.18762 0.23231 0.0
H306 H 0.37686 0.15357 0.25552 0.0
C307 C 0.18323 0.19725 0.24503 0.0
H308 H 0.34006 0.16131 0.22685 0.0
C309 C 0.20434 0.1926 0.26148 0.0
C310 C 0.27464 0.17858 0.26552 0.0
H311 H 0.12931 0.21086 0.24232 0.0
H312 H 0.16604 0.20266 0.271 0.0
C313 C 0.32247 0.16518 0.25281 0.0
C314 C 0.7547 0.82096 0.46675 0.0
C315 C 0.72136 0.7708 0.45675 0.0
H316 H 0.7706 0.86019 0.49117 0.0
C317 C 0.67184 0.72567 0.46386 0.0
H318 H 0.79311 0.85663 0.46165 0.0
C319 C 0.65859 0.72815 0.48075 0.0
C320 C 0.69516 0.77528 0.49092 0.0
H321 H 0.64496 0.68679 0.45647 0.0
H322 H 0.62176 0.69099 0.4859 0.0
C323 C 0.74202 0.8229 0.48368 0.0
C324 C 0.22442 0.32062 0.74438 0.0
C325 C 0.22893 0.25753 0.73552 0.0
H326 H 0.19263 0.37107 0.76665 0.0
C327 C 0.20441 0.19544 0.74281 0.0
H328 H 0.24244 0.36947 0.73905 0.0
C329 C 0.17617 0.19634 0.75865 0.0
C330 C 0.17114 0.25949 0.76745 0.0
H331 H 0.20706 0.14604 0.7363 0.0
H332 H 0.15794 0.14753 0.76396 0.0
C333 C 0.19543 0.32165 0.76014 0.0
C334 C 0.83582 0.80049 0.97635 0.0
C335 C 0.81719 0.74269 0.98614 0.0
H336 H 0.83324 0.84719 0.95233 0.0
C337 C 0.78637 0.68399 0.97862 0.0
H338 H 0.85996 0.84631 0.98179 0.0
C339 C 0.77219 0.68398 0.96176 0.0
C340 C 0.78757 0.74308 0.95208 0.0
H341 H 0.77221 0.63826 0.9858 0.0
H342 H 0.74658 0.6386 0.95647 0.0
C343 C 0.82067 0.80089 0.95948 0.0
C344 C 0.2113 0.18734 0.01449 0.0
C345 C 0.2699 0.21849 0.02203 0.0
H346 H 0.16494 0.15081 -0.00798 0.0
C347 C 0.32972 0.23214 0.01251 0.0
H348 H 0.16448 0.17607 0.02151 0.0
C349 C 0.32952 0.21875 -0.00435 0.0
C350 C 0.2699 0.1905 0.98796 0.0
H351 H 0.37579 0.25607 0.01792 0.0
H352 H 0.37574 0.23185 0.98857 0.0
C353 C 0.21148 0.17304 -0.00239 0.0
C354 C 0.67931 0.74992 0.23117 0.0
C355 C 0.69214 0.80561 0.24207 0.0
H356 H 0.66933 0.71717 0.20609 0.0
C357 C 0.70028 0.87358 0.23565 0.0
H358 H 0.67248 0.69695 0.23571 0.0
C359 C 0.69865 0.88514 0.21865 0.0
C360 C 0.68867 0.82901 0.20771 0.0
H361 H 0.70994 0.91772 0.2437 0.0
H362 H 0.70694 0.93789 0.2141 0.0
C363 C 0.67754 0.76152 0.21417 0.0
C364 C 0.20521 0.20504 0.4914 0.0
C365 C 0.21654 0.27613 0.48763 0.0
H366 H 0.19692 0.12675 0.51017 0.0
C367 C 0.22821 0.32361 0.50053 0.0
H368 H 0.19574 0.16708 0.48175 0.0
C369 C 0.22905 0.30034 0.51686 0.0
C370 C 0.21778 0.22922 0.52061 0.0
H371 H 0.23699 0.3787 0.49803 0.0
H372 H 0.23856 0.33814 0.52654 0.0
C373 C 0.20561 0.18189 0.5077 0.0
C374 C 0.83958 0.77078 0.71638 0.0
C375 C 0.79175 0.80211 0.70538 0.0
H376 H 0.87219 0.75824 0.74146 0.0
C377 C 0.74449 0.85225 0.71139 0.0
H378 H 0.87691 0.73207 0.71214 0.0
C379 C 0.74221 0.86759 0.72818 0.0
C380 C 0.78664 0.83255 0.73933 0.0
H381 H 0.70735 0.87767 0.70322 0.0
H382 H 0.70327 0.90451 0.73249 0.0
C383 C 0.83679 0.78557 0.7332 0.0
C384 C 0.98478 0.17467 0.14738 0.0
C385 C 0.0297 0.15232 0.16012 0.0
H386 H 0.88632 0.16359 0.13524 0.0
C387 C 0.00406 0.10393 0.17172 0.0
H388 H 1.00177 0.21335 0.13846 0.0
C389 C 0.93664 0.07486 0.16983 0.0
C390 C 0.89367 0.09441 0.15641 0.0
H391 H 0.03703 0.08637 0.18179 0.0
H392 H 0.91977 0.03455 0.17834 0.0
C393 C 0.91791 0.14654 0.14561 0.0
C394 C 0.08333 0.52025 0.43645 0.0
C395 C 0.03856 0.46344 0.43321 0.0
H396 H 0.09642 0.63187 0.43514 0.0
C397 C 0.96729 0.47634 0.43019 0.0
H398 H 0.13878 0.51158 0.43851 0.0
C399 C 0.94254 0.54522 0.42891 0.0
C400 C 0.98938 0.60188 0.42994 0.0
H401 H 0.93211 0.43337 0.42742 0.0
H402 H 0.88869 0.55369 0.42512 0.0
C403 C 0.05921 0.58908 0.4345 0.0
C404 C 0.55119 0.43041 0.68847 0.0
C405 C 0.49418 0.47506 0.68526 0.0
H406 H 0.66266 0.41715 0.68695 0.0
C407 C 0.50684 0.54613 0.68193 0.0
H408 H 0.54267 0.37508 0.69076 0.0
C409 C 0.57558 0.57075 0.68037 0.0
C410 C 0.6323 0.52393 0.68144 0.0
H411 H 0.46368 0.58119 0.67917 0.0
H412 H 0.58376 0.62438 0.6764 0.0
C413 C 0.61983 0.45436 0.68626 0.0
C414 C 0.54363 0.00713 0.92656 0.0
C415 C 0.47323 0.01993 0.9304 0.0
H416 H 0.62103 0.92979 0.9208 0.0
C417 C 0.42903 0.9632 0.9341 0.0
H418 H 0.57828 0.05016 0.92349 0.0
C419 C 0.4526 0.89443 0.93195 0.0
C420 C 0.5214 0.8817 0.92673 0.0
H421 H 0.37419 0.97195 0.93684 0.0
H422 H 0.41564 0.8516 0.93309 0.0
C423 C 0.56799 0.93831 0.92508 0.0
C424 C 0.11506 0.55203 0.04 0.0
C425 C 0.12853 0.48369 0.04558 0.0
H426 H 0.03687 0.62965 0.03489 0.0
C427 C 0.07245 0.43666 0.04744 0.0
H428 H 0.15752 0.58927 0.03865 0.0
C429 C 1.00342 0.46041 0.04592 0.0
C430 C 0.98989 0.53064 0.04186 0.0
H431 H 0.08156 0.38392 0.05195 0.0
H432 H 0.96086 0.4256 0.04922 0.0
C433 C 0.04607 0.57497 0.03783 0.0
C434 C 0.57706 0.47576 0.29515 0.0
C435 C 0.63356 0.49625 0.30517 0.0
H436 H 0.50149 0.39511 0.28987 0.0
C437 C 0.66497 0.44613 0.31553 0.0
H438 H 0.55225 0.51328 0.28698 0.0
C439 C 0.63725 0.37891 0.31696 0.0
C440 C 0.57662 0.35992 0.30823 0.0
H441 H 0.70968 0.45988 0.32311 0.0
H442 H 0.66081 0.34321 0.32578 0.0
C443 C 0.54849 0.40796 0.29673 0.0
C444 C 0.48679 0.91922 0.5507 0.0
C445 C 0.51078 0.86762 0.56173 0.0
H446 H 0.40369 0.991 0.5446 0.0
C447 C 0.46408 0.84083 0.57351 0.0
H448 H 0.52145 0.94021 0.54139 0.0
C449 C 0.39689 0.86833 0.57512 0.0
C450 C 0.3745 0.92432 0.56516 0.0
H451 H 0.48026 0.79964 0.58191 0.0
H452 H 0.3639 0.8482 0.58488 0.0
C453 C 0.41916 0.94776 0.55247 0.0
C454 C 0.85894 0.12787 0.82643 0.0
C455 C 0.91258 0.15206 0.81608 0.0
H456 H 0.79185 0.04339 0.83319 0.0
C457 C 0.93383 0.10913 0.80287 0.0
H458 H 0.84052 0.15944 0.83661 0.0
C459 C 0.90527 0.04163 0.80085 0.0
C460 C 0.85579 0.01586 0.81213 0.0
H461 H 0.97524 0.12596 0.79468 0.0
H462 H 0.92441 0.0085 0.79104 0.0
C463 C 0.8314 0.06076 0.82456 0.0
C464 C 0.496 0.08402 0.1324 0.0
C465 C 0.53184 0.05336 0.14576 0.0
H466 H 0.40412 0.13681 0.12383 0.0
C467 C 0.49764 0.04967 0.16107 0.0
H468 H 0.52004 0.08705 0.12037 0.0
C469 C 0.43046 0.07847 0.16308 0.0
C470 C 0.39547 0.11079 0.14978 0.0
H471 H 0.52338 0.02594 0.1716 0.0
H472 H 0.40674 0.07696 0.17516 0.0
C473 C 0.42879 0.11191 0.13435 0.0
C474 C 0.06836 0.9762 0.42223 0.0
C475 C 0.99908 0.96161 0.41761 0.0
H476 H 0.14456 0.05568 0.42733 0.0
C477 C 0.95099 0.01708 0.41598 0.0
H478 H 0.10628 0.93424 0.4235 0.0
C479 C 0.97326 0.0865 0.41765 0.0
C480 C 0.04325 0.10122 0.42161 0.0
H481 H 0.89736 0.00705 0.41226 0.0
H482 H 0.93662 0.12867 0.4152 0.0
C483 C 0.08997 0.04551 0.42452 0.0
C484 C 0.07609 0.42844 0.67836 0.0
C485 C 0.13165 0.47405 0.67457 0.0
H486 H 0.96483 0.4122 0.67783 0.0
C487 C 0.11677 0.54297 0.66965 0.0
H488 H 0.08633 0.37462 0.68193 0.0
C489 C 0.04731 0.56498 0.66783 0.0
C490 C 0.99197 0.51753 0.67028 0.0
H491 H 0.15879 0.57872 0.66652 0.0
H492 H 0.03708 0.61749 0.6633 0.0
C493 C 0.00673 0.44962 0.67593 0.0
C494 C 0.54386 0.39674 0.91896 0.0
C495 C 0.47509 0.38293 0.92409 0.0
H496 H 0.61846 0.47509 0.91189 0.0
C497 C 0.43059 0.4393 0.92789 0.0
H498 H 0.57874 0.35408 0.91578 0.0
C499 C 0.45229 0.50827 0.92507 0.0
C500 C 0.51964 0.52188 0.919 0.0
H501 H 0.37691 0.42994 0.9316 0.0
H502 H 0.41534 0.55069 0.92686 0.0
C503 C 0.56642 0.46585 0.91673 0.0
C504 C 0.57248 0.57971 0.04467 0.0
C505 C 0.62796 0.53394 0.04849 0.0
H506 H 0.46137 0.5965 0.0454 0.0
C507 C 0.613 0.46467 0.05311 0.0
H508 H 0.58274 0.63372 0.0413 0.0
C509 C 0.54357 0.44285 0.05495 0.0
C510 C 0.48836 0.49082 0.05279 0.0
H511 H 0.65499 0.42874 0.05623 0.0
H512 H 0.53347 0.39038 0.05949 0.0
C513 C 0.50314 0.55866 0.0471 0.0
C514 C 0.53132 0.9685 0.30594 0.0
C515 C 0.52989 1.0004 0.32154 0.0
H516 H 0.56234 0.87874 0.29178 0.0
C517 C 0.55324 0.96164 0.33523 0.0
H518 H 0.51324 0.99679 0.29516 0.0
C519 C 0.57945 0.89378 0.33339 0.0
C520 C 0.58436 0.86282 0.31773 0.0
H521 H 0.55185 0.98399 0.34747 0.0
H522 H 0.5988 0.86689 0.34425 0.0
C523 C 0.55901 0.90068 0.30403 0.0
C524 C 0.91727 0.94455 0.55703 0.0
C525 C 0.87752 0.92183 0.57064 0.0
H526 H 0.01466 0.98878 0.54857 0.0
C527 C 0.90592 0.93106 0.5865 0.0
H528 H 0.89739 0.93803 0.54463 0.0
C529 C 0.97318 0.95821 0.58868 0.0
C530 C 0.01409 0.97835 0.57513 0.0
H531 H 0.87752 0.91435 0.59734 0.0
H532 H 0.99352 0.96259 0.6011 0.0
C533 C 0.98465 0.97324 0.55927 0.0
C534 C 0.9188 0.6213 0.83633 0.0
C535 C 0.91182 0.6502 0.82046 0.0
H536 H 0.94849 0.5333 0.85104 0.0
C537 C 0.93671 0.61095 0.80699 0.0
H538 H 0.90036 0.64932 0.84706 0.0
C539 C 0.96517 0.54351 0.80935 0.0
C540 C 0.96805 0.51351 0.82518 0.0
H541 H 0.93194 0.63121 0.79457 0.0
H542 H 0.98236 0.51391 0.79874 0.0
C543 C 0.94587 0.554 0.83863 0.0
loop_
_geom_bond_atom_site_label_1
_geom_bond_atom_site_label_2
_geom_bond_distance
_geom_bond_site_symmetry_2
_ccdc_geom_bond_type
Mg0 O1 2.028 . S
Mg0 O7 1.986 . S
Mg0 O9 2.114 . S
Mg0 O10 2.251 . S
Mg0 O13 2.010 . S
O1 Mg0 2.028 . S
O1 C4 1.250 . S
O2 Mg3 2.028 . S
O2 C4 1.248 . S
Mg3 O2 2.028 . S
Mg3 O8 2.032 . S
Mg3 O10 2.079 . S
C4 O1 1.250 . S
C4 O2 1.248 . S
C5 O6 1.264 . S
C5 O13 1.249 . S
O6 C5 1.264 . S
O7 Mg0 1.986 . S
O7 C11 1.246 . S
O8 Mg3 2.032 . S
O8 C11 1.259 . S
O9 Mg0 2.114 . S
O9 C12 1.252 . S
O10 Mg0 2.251 . S
O10 Mg3 2.079 . S
O10 C12 1.273 . S
C11 O7 1.246 . S
C11 O8 1.259 . S
C12 O9 1.252 . S
C12 O10 1.273 . S
O13 Mg0 2.010 . S
O13 C5 1.249 . S
Mg14 O15 2.028 . S
Mg14 O21 1.986 . S
Mg14 O23 2.114 . S
Mg14 O24 2.251 . S
Mg14 O27 2.010 . S
O15 Mg14 2.028 . S
O15 C18 1.250 . S
O16 Mg17 2.028 . S
O16 C18 1.248 . S
Mg17 O16 2.028 . S
Mg17 O22 2.032 . S
Mg17 O24 2.079 . S
C18 O15 1.250 . S
C18 O16 1.248 . S
C19 O20 1.264 . S
C19 O27 1.249 . S
O20 C19 1.264 . S
O21 Mg14 1.986 . S
O21 C25 1.246 . S
O22 Mg17 2.032 . S
O22 C25 1.259 . S
O23 Mg14 2.114 . S
O23 C26 1.252 . S
O24 Mg14 2.251 . S
O24 Mg17 2.079 . S
O24 C26 1.273 . S
C25 O21 1.246 . S
C25 O22 1.259 . S
C26 O23 1.252 . S
C26 O24 1.273 . S
O27 Mg14 2.010 . S
O27 C19 1.249 . S
Mg28 O29 2.028 . S
Mg28 O35 1.986 . S
Mg28 O37 2.114 . S
Mg28 O38 2.251 . S
Mg28 O41 2.010 . S
O29 Mg28 2.028 . S
O29 C32 1.250 . S
O30 Mg31 2.028 . S
O30 C32 1.248 . S
Mg31 O30 2.028 . S
Mg31 O36 2.032 . S
Mg31 O38 2.079 . S
C32 O29 1.250 . S
C32 O30 1.248 . S
C33 O34 1.264 . S
C33 O41 1.249 . S
O34 C33 1.264 . S
O35 Mg28 1.986 . S
O35 C39 1.246 . S
O36 Mg31 2.032 . S
O36 C39 1.259 . S
O37 Mg28 2.114 . S
O37 C40 1.252 . S
O38 Mg28 2.251 . S
O38 Mg31 2.079 . S
O38 C40 1.273 . S
C39 O35 1.246 . S
C39 O36 1.259 . S
C40 O37 1.252 . S
C40 O38 1.273 . S
O41 Mg28 2.010 . S
O41 C33 1.249 . S
Mg42 O43 2.028 . S
Mg42 O49 1.986 . S
Mg42 O51 2.114 . S
Mg42 O52 2.251 . S
Mg42 O55 2.010 . S
O43 Mg42 2.028 . S
O43 C46 1.250 . S
O44 Mg45 2.028 . S
O44 C46 1.248 . S
Mg45 O44 2.028 . S
Mg45 O50 2.032 . S
Mg45 O52 2.079 . S
C46 O43 1.250 . S
C46 O44 1.248 . S
C47 O48 1.264 . S
C47 O55 1.249 . S
O48 C47 1.264 . S
O49 Mg42 1.986 . S
O49 C53 1.246 . S
O50 Mg45 2.032 . S
O50 C53 1.259 . S
O51 Mg42 2.114 . S
O51 C54 1.252 . S
O52 Mg42 2.251 . S
O52 Mg45 2.079 . S
O52 C54 1.273 . S
C53 O49 1.246 . S
C53 O50 1.259 . S
C54 O51 1.252 . S
C54 O52 1.273 . S
O55 Mg42 2.010 . S
O55 C47 1.249 . S
Mg56 O57 2.028 . S
Mg56 O63 1.986 . S
Mg56 O65 2.114 . S
Mg56 O66 2.251 . S
Mg56 O69 2.010 . S
O57 Mg56 2.028 . S
O57 C60 1.250 . S
O58 Mg59 2.028 . S
O58 C60 1.248 . S
Mg59 O58 2.028 . S
Mg59 O64 2.032 . S
Mg59 O66 2.079 . S
C60 O57 1.250 . S
C60 O58 1.248 . S
C61 O62 1.264 . S
C61 O69 1.249 . S
O62 C61 1.264 . S
O63 Mg56 1.986 . S
O63 C67 1.246 . S
O64 Mg59 2.032 . S
O64 C67 1.259 . S
O65 Mg56 2.114 . S
O65 C68 1.252 . S
O66 Mg56 2.251 . S
O66 Mg59 2.079 . S
O66 C68 1.273 . S
C67 O63 1.246 . S
C67 O64 1.259 . S
C68 O65 1.252 . S
C68 O66 1.273 . S
O69 Mg56 2.010 . S
O69 C61 1.249 . S
Mg70 O71 2.028 . S
Mg70 O77 1.986 . S
Mg70 O79 2.114 . S
Mg70 O80 2.251 . S
Mg70 O83 2.010 . S
O71 Mg70 2.028 . S
O71 C74 1.250 . S
O72 Mg73 2.028 . S
O72 C74 1.248 . S
Mg73 O72 2.028 . S
Mg73 O78 2.032 . S
Mg73 O80 2.079 . S
C74 O71 1.250 . S
C74 O72 1.248 . S
C75 O76 1.264 . S
C75 O83 1.249 . S
O76 C75 1.264 . S
O77 Mg70 1.986 . S
O77 C81 1.246 . S
O78 Mg73 2.032 . S
O78 C81 1.259 . S
O79 Mg70 2.114 . S
O79 C82 1.252 . S
O80 Mg70 2.251 . S
O80 Mg73 2.079 . S
O80 C82 1.273 . S
C81 O77 1.246 . S
C81 O78 1.259 . S
C82 O79 1.252 . S
C82 O80 1.273 . S
O83 Mg70 2.010 . S
O83 C75 1.249 . S
Mg84 O85 2.028 . S
Mg84 O91 1.986 . S
Mg84 O93 2.114 . S
Mg84 O94 2.251 . S
Mg84 O97 2.010 . S
O85 Mg84 2.028 . S
O85 C88 1.250 . S
O86 Mg87 2.028 . S
O86 C88 1.248 . S
Mg87 O86 2.028 . S
Mg87 O92 2.032 . S
Mg87 O94 2.079 . S
C88 O85 1.250 . S
C88 O86 1.248 . S
C89 O90 1.264 . S
C89 O97 1.249 . S
O90 C89 1.264 . S
O91 Mg84 1.986 . S
O91 C95 1.246 . S
O92 Mg87 2.032 . S
O92 C95 1.259 . S
O93 Mg84 2.114 . S
O93 C96 1.252 . S
O94 Mg84 2.251 . S
O94 Mg87 2.079 . S
O94 C96 1.273 . S
C95 O91 1.246 . S
C95 O92 1.259 . S
C96 O93 1.252 . S
C96 O94 1.273 . S
O97 Mg84 2.010 . S
O97 C89 1.249 . S
Mg98 O99 2.028 . S
Mg98 O105 1.986 . S
Mg98 O107 2.114 . S
Mg98 O108 2.251 . S
Mg98 O111 2.010 . S
O99 Mg98 2.028 . S
O99 C102 1.250 . S
O100 Mg101 2.028 . S
O100 C102 1.248 . S
Mg101 O100 2.028 . S
Mg101 O106 2.032 . S
Mg101 O108 2.079 . S
C102 O99 1.250 . S
C102 O100 1.248 . S
C103 O104 1.264 . S
C103 O111 1.249 . S
O104 C103 1.264 . S
O105 Mg98 1.986 . S
O105 C109 1.246 . S
O106 Mg101 2.032 . S
O106 C109 1.259 . S
O107 Mg98 2.114 . S
O107 C110 1.252 . S
O108 Mg98 2.251 . S
O108 Mg101 2.079 . S
O108 C110 1.273 . S
C109 O105 1.246 . S
C109 O106 1.259 . S
C110 O107 1.252 . S
C110 O108 1.273 . S
O111 Mg98 2.010 . S
O111 C103 1.249 . S
Mg112 O113 2.028 . S
Mg112 O119 1.986 . S
Mg112 O121 2.114 . S
Mg112 O122 2.251 . S
Mg112 O125 2.010 . S
O113 Mg112 2.028 . S
O113 C116 1.250 . S
O114 Mg115 2.028 . S
O114 C116 1.248 . S
Mg115 O114 2.028 . S
Mg115 O120 2.032 . S
Mg115 O122 2.079 . S
C116 O113 1.250 . S
C116 O114 1.248 . S
C117 O118 1.264 . S
C117 O125 1.249 . S
O118 C117 1.264 . S
O119 Mg112 1.986 . S
O119 C123 1.246 . S
O120 Mg115 2.032 . S
O120 C123 1.259 . S
O121 Mg112 2.114 . S
O121 C124 1.252 . S
O122 Mg112 2.251 . S
O122 Mg115 2.079 . S
O122 C124 1.273 . S
C123 O119 1.246 . S
C123 O120 1.259 . S
C124 O121 1.252 . S
C124 O122 1.273 . S
O125 Mg112 2.010 . S
O125 C117 1.249 . S
Mg126 O127 2.028 . S
Mg126 O133 1.986 . S
Mg126 O135 2.114 . S
Mg126 O136 2.251 . S
Mg126 O139 2.010 . S
O127 Mg126 2.028 . S
O127 C130 1.250 . S
O128 Mg129 2.028 . S
O128 C130 1.248 . S
Mg129 O128 2.028 . S
Mg129 O134 2.032 . S
Mg129 O136 2.079 . S
C130 O127 1.250 . S
C130 O128 1.248 . S
C131 O132 1.264 . S
C131 O139 1.249 . S
O132 C131 1.264 . S
O133 Mg126 1.986 . S
O133 C137 1.246 . S
O134 Mg129 2.032 . S
O134 C137 1.259 . S
O135 Mg126 2.114 . S
O135 C138 1.252 . S
O136 Mg126 2.251 . S
O136 Mg129 2.079 . S
O136 C138 1.273 . S
C137 O133 1.246 . S
C137 O134 1.259 . S
C138 O135 1.252 . S
C138 O136 1.273 . S
O139 Mg126 2.010 . S
O139 C131 1.249 . S
Mg140 O141 2.028 . S
Mg140 O147 1.986 . S
Mg140 O149 2.114 . S
Mg140 O150 2.251 . S
Mg140 O153 2.010 . S
O141 Mg140 2.028 . S
O141 C144 1.250 . S
O142 Mg143 2.028 . S
O142 C144 1.248 . S
Mg143 O142 2.028 . S
Mg143 O148 2.032 . S
Mg143 O150 2.079 . S
C144 O141 1.250 . S
C144 O142 1.248 . S
C145 O146 1.264 . S
C145 O153 1.249 . S
O146 C145 1.264 . S
O147 Mg140 1.986 . S
O147 C151 1.246 . S
O148 Mg143 2.032 . S
O148 C151 1.259 . S
O149 Mg140 2.114 . S
O149 C152 1.252 . S
O150 Mg140 2.251 . S
O150 Mg143 2.079 . S
O150 C152 1.273 . S
C151 O147 1.246 . S
C151 O148 1.259 . S
C152 O149 1.252 . S
C152 O150 1.273 . S
O153 Mg140 2.010 . S
O153 C145 1.249 . S
Mg154 O155 2.028 . S
Mg154 O161 1.986 . S
Mg154 O163 2.114 . S
Mg154 O164 2.251 . S
Mg154 O167 2.010 . S
O155 Mg154 2.028 . S
O155 C158 1.250 . S
O156 Mg157 2.028 . S
O156 C158 1.248 . S
Mg157 O156 2.028 . S
Mg157 O162 2.032 . S
Mg157 O164 2.079 . S
C158 O155 1.250 . S
C158 O156 1.248 . S
C159 O160 1.264 . S
C159 O167 1.249 . S
O160 C159 1.264 . S
O161 Mg154 1.986 . S
O161 C165 1.246 . S
O162 Mg157 2.032 . S
O162 C165 1.259 . S
O163 Mg154 2.114 . S
O163 C166 1.252 . S
O164 Mg154 2.251 . S
O164 Mg157 2.079 . S
O164 C166 1.273 . S
C165 O161 1.246 . S
C165 O162 1.259 . S
C166 O163 1.252 . S
C166 O164 1.273 . S
O167 Mg154 2.010 . S
O167 C159 1.249 . S
Mg168 O169 2.028 . S
Mg168 O175 1.986 . S
Mg168 O177 2.114 . S
Mg168 O178 2.251 . S
Mg168 O181 2.010 . S
O169 Mg168 2.028 . S
O169 C172 1.250 . S
O170 Mg171 2.028 . S
O170 C172 1.248 . S
Mg171 O170 2.028 . S
Mg171 O176 2.032 . S
Mg171 O178 2.079 . S
C172 O169 1.250 . S
C172 O170 1.248 . S
C173 O174 1.264 . S
C173 O181 1.249 . S
O174 C173 1.264 . S
O175 Mg168 1.986 . S
O175 C179 1.246 . S
O176 Mg171 2.032 . S
O176 C179 1.259 . S
O177 Mg168 2.114 . S
O177 C180 1.252 . S
O178 Mg168 2.251 . S
O178 Mg171 2.079 . S
O178 C180 1.273 . S
C179 O175 1.246 . S
C179 O176 1.259 . S
C180 O177 1.252 . S
C180 O178 1.273 . S
O181 Mg168 2.010 . S
O181 C173 1.249 . S
Mg182 O183 2.028 . S
Mg182 O189 1.986 . S
Mg182 O191 2.114 . S
Mg182 O192 2.251 . S
Mg182 O195 2.010 . S
O183 Mg182 2.028 . S
O183 C186 1.250 . S
O184 Mg185 2.028 . S
O184 C186 1.248 . S
Mg185 O184 2.028 . S
Mg185 O190 2.032 . S
Mg185 O192 2.079 . S
C186 O183 1.250 . S
C186 O184 1.248 . S
C187 O188 1.264 . S
C187 O195 1.249 . S
O188 C187 1.264 . S
O189 Mg182 1.986 . S
O189 C193 1.246 . S
O190 Mg185 2.032 . S
O190 C193 1.259 . S
O191 Mg182 2.114 . S
O191 C194 1.252 . S
O192 Mg182 2.251 . S
O192 Mg185 2.079 . S
O192 C194 1.273 . S
C193 O189 1.246 . S
C193 O190 1.259 . S
C194 O191 1.252 . S
C194 O192 1.273 . S
O195 Mg182 2.010 . S
O195 C187 1.249 . S
Mg196 O197 2.028 . S
Mg196 O203 1.986 . S
Mg196 O205 2.114 . S
Mg196 O206 2.251 . S
Mg196 O209 2.010 . S
O197 Mg196 2.028 . S
O197 C200 1.250 . S
O198 Mg199 2.028 . S
O198 C200 1.248 . S
Mg199 O198 2.028 . S
Mg199 O204 2.032 . S
Mg199 O206 2.079 . S
C200 O197 1.250 . S
C200 O198 1.248 . S
C201 O202 1.264 . S
C201 O209 1.249 . S
O202 C201 1.264 . S
O203 Mg196 1.986 . S
O203 C207 1.246 . S
O204 Mg199 2.032 . S
O204 C207 1.259 . S
O205 Mg196 2.114 . S
O205 C208 1.252 . S
O206 Mg196 2.251 . S
O206 Mg199 2.079 . S
O206 C208 1.273 . S
C207 O203 1.246 . S
C207 O204 1.259 . S
C208 O205 1.252 . S
C208 O206 1.273 . S
O209 Mg196 2.010 . S
O209 C201 1.249 . S
Mg210 O211 2.028 . S
Mg210 O217 1.986 . S
Mg210 O219 2.114 . S
Mg210 O220 2.251 . S
Mg210 O223 2.010 . S
O211 Mg210 2.028 . S
O211 C214 1.250 . S
O212 Mg213 2.028 . S
O212 C214 1.248 . S
Mg213 O212 2.028 . S
Mg213 O218 2.032 . S
Mg213 O220 2.079 . S
C214 O211 1.250 . S
C214 O212 1.248 . S
C215 O216 1.264 . S
C215 O223 1.249 . S
O216 C215 1.264 . S
O217 Mg210 1.986 . S
O217 C221 1.246 . S
O218 Mg213 2.032 . S
O218 C221 1.259 . S
O219 Mg210 2.114 . S
O219 C222 1.252 . S
O220 Mg210 2.251 . S
O220 Mg213 2.079 . S
O220 C222 1.273 . S
C221 O217 1.246 . S
C221 O218 1.259 . S
C222 O219 1.252 . S
C222 O220 1.273 . S
O223 Mg210 2.010 . S
O223 C215 1.249 . S
C224 C225 1.387 . S
C224 H228 0.950 . S
C224 C233 1.390 . S
C225 C224 1.387 . S
C225 C227 1.387 . S
H226 C233 0.950 . S
C227 C225 1.387 . S
C227 C229 1.390 . S
C227 H231 0.950 . S
H228 C224 0.950 . S
C229 C227 1.390 . S
C229 C230 1.387 . S
C229 H232 0.950 . S
C230 C229 1.387 . S
C230 C233 1.387 . S
H231 C227 0.950 . S
H232 C229 0.950 . S
C233 C224 1.390 . S
C233 H226 0.950 . S
C233 C230 1.387 . S
C234 C235 1.387 . S
C234 H238 0.950 . S
C234 C243 1.390 . S
C235 C234 1.387 . S
C235 C237 1.387 . S
H236 C243 0.950 . S
C237 C235 1.387 . S
C237 C239 1.390 . S
C237 H241 0.950 . S
H238 C234 0.950 . S
C239 C237 1.390 . S
C239 C240 1.387 . S
C239 H242 0.950 . S
C240 C239 1.387 . S
C240 C243 1.387 . S
H241 C237 0.950 . S
H242 C239 0.950 . S
C243 C234 1.390 . S
C243 H236 0.950 . S
C243 C240 1.387 . S
C244 C245 1.387 . S
C244 H248 0.950 . S
C244 C253 1.390 . S
C245 C244 1.387 . S
C245 C247 1.387 . S
H246 C253 0.950 . S
C247 C245 1.387 . S
C247 C249 1.390 . S
C247 H251 0.950 . S
H248 C244 0.950 . S
C249 C247 1.390 . S
C249 C250 1.387 . S
C249 H252 0.950 . S
C250 C249 1.387 . S
C250 C253 1.387 . S
H251 C247 0.950 . S
H252 C249 0.950 . S
C253 C244 1.390 . S
C253 H246 0.950 . S
C253 C250 1.387 . S
C254 C255 1.387 . S
C254 H258 0.950 . S
C254 C263 1.390 . S
C255 C254 1.387 . S
C255 C257 1.387 . S
H256 C263 0.950 . S
C257 C255 1.387 . S
C257 C259 1.390 . S
C257 H261 0.950 . S
H258 C254 0.950 . S
C259 C257 1.390 . S
C259 C260 1.387 . S
C259 H262 0.950 . S
C260 C259 1.387 . S
C260 C263 1.387 . S
H261 C257 0.950 . S
H262 C259 0.950 . S
C263 C254 1.390 . S
C263 H256 0.950 . S
C263 C260 1.387 . S
C264 C265 1.387 . S
C264 H268 0.950 . S
C264 C273 1.390 . S
C265 C264 1.387 . S
C265 C267 1.387 . S
H266 C273 0.950 . S
C267 C265 1.387 . S
C267 C269 1.390 . S
C267 H271 0.950 . S
H268 C264 0.950 . S
C269 C267 1.390 . S
C269 C270 1.387 . S
C269 H272 0.950 . S
C270 C269 1.387 . S
C270 C273 1.387 . S
H271 C267 0.950 . S
H272 C269 0.950 . S
C273 C264 1.390 . S
C273 H266 0.950 . S
C273 C270 1.387 . S
C274 C275 1.387 . S
C274 H278 0.950 . S
C274 C283 1.390 . S
C275 C274 1.387 . S
C275 C277 1.387 . S
H276 C283 0.950 . S
C277 C275 1.387 . S
C277 C279 1.390 . S
C277 H281 0.950 . S
H278 C274 0.950 . S
C279 C277 1.390 . S
C279 C280 1.387 . S
C279 H282 0.950 . S
C280 C279 1.387 . S
C280 C283 1.387 . S
H281 C277 0.950 . S
H282 C279 0.950 . S
C283 C274 1.390 . S
C283 H276 0.950 . S
C283 C280 1.387 . S
C284 C285 1.387 . S
C284 H288 0.950 . S
C284 C293 1.390 . S
C285 C284 1.387 . S
C285 C287 1.387 . S
H286 C293 0.950 . S
C287 C285 1.387 . S
C287 C289 1.390 . S
C287 H291 0.950 . S
H288 C284 0.950 . S
C289 C287 1.390 . S
C289 C290 1.387 . S
C289 H292 0.950 . S
C290 C289 1.387 . S
C290 C293 1.387 . S
H291 C287 0.950 . S
H292 C289 0.950 . S
C293 C284 1.390 . S
C293 H286 0.950 . S
C293 C290 1.387 . S
C294 C295 1.387 . S
C294 H298 0.950 . S
C294 C303 1.390 . S
C295 C294 1.387 . S
C295 C297 1.387 . S
H296 C303 0.950 . S
C297 C295 1.387 . S
C297 C299 1.390 . S
C297 H301 0.950 . S
H298 C294 0.950 . S
C299 C297 1.390 . S
C299 C300 1.387 . S
C299 H302 0.950 . S
C300 C299 1.387 . S
C300 C303 1.387 . S
H301 C297 0.950 . S
H302 C299 0.950 . S
C303 C294 1.390 . S
C303 H296 0.950 . S
C303 C300 1.387 . S
C304 C305 1.387 . S
C304 H308 0.950 . S
C304 C313 1.390 . S
C305 C304 1.387 . S
C305 C307 1.387 . S
H306 C313 0.950 . S
C307 C305 1.387 . S
C307 C309 1.390 . S
C307 H311 0.950 . S
H308 C304 0.950 . S
C309 C307 1.390 . S
C309 C310 1.387 . S
C309 H312 0.950 . S
C310 C309 1.387 . S
C310 C313 1.387 . S
H311 C307 0.950 . S
H312 C309 0.950 . S
C313 C304 1.390 . S
C313 H306 0.950 . S
C313 C310 1.387 . S
C314 C315 1.387 . S
C314 H318 0.950 . S
C314 C323 1.390 . S
C315 C314 1.387 . S
C315 C317 1.387 . S
H316 C323 0.950 . S
C317 C315 1.387 . S
C317 C319 1.390 . S
C317 H321 0.950 . S
H318 C314 0.950 . S
C319 C317 1.390 . S
C319 C320 1.387 . S
C319 H322 0.950 . S
C320 C319 1.387 . S
C320 C323 1.387 . S
H321 C317 0.950 . S
H322 C319 0.950 . S
C323 C314 1.390 . S
C323 H316 0.950 . S
C323 C320 1.387 . S
C324 C325 1.387 . S
C324 H328 0.950 . S
C324 C333 1.390 . S
C325 C324 1.387 . S
C325 C327 1.387 . S
H326 C333 0.950 . S
C327 C325 1.387 . S
C327 C329 1.390 . S
C327 H331 0.950 . S
H328 C324 0.950 . S
C329 C327 1.390 . S
C329 C330 1.387 . S
C329 H332 0.950 . S
C330 C329 1.387 . S
C330 C333 1.387 . S
H331 C327 0.950 . S
H332 C329 0.950 . S
C333 C324 1.390 . S
C333 H326 0.950 . S
C333 C330 1.387 . S
C334 C335 1.387 . S
C334 H338 0.950 . S
C334 C343 1.390 1_554 S
C335 C334 1.387 . S
C335 C337 1.387 . S
H336 C343 0.950 . S
C337 C335 1.387 . S
C337 C339 1.390 1_554 S
C337 H341 0.950 . S
H338 C334 0.950 . S
C339 C337 1.390 1_556 S
C339 C340 1.387 . S
C339 H342 0.950 . S
C340 C339 1.387 . S
C340 C343 1.387 . S
H341 C337 0.950 . S
H342 C339 0.950 . S
C343 C334 1.390 1_556 S
C343 H336 0.950 . S
C343 C340 1.387 . S
C344 C345 1.387 . S
C344 H348 0.950 . S
C344 C353 1.390 1_554 S
C345 C344 1.387 . S
C345 C347 1.387 . S
H346 C353 0.950 . S
C347 C345 1.387 . S
C347 C349 1.390 1_554 S
C347 H351 0.950 . S
H348 C344 0.950 . S
C349 C347 1.390 1_556 S
C349 C350 1.387 . S
C349 H352 0.950 . S
C350 C349 1.387 . S
C350 C353 1.387 . S
H351 C347 0.950 . S
H352 C349 0.950 . S
C353 C344 1.390 1_556 S
C353 H346 0.950 . S
C353 C350 1.387 . S
C354 C355 1.387 . S
C354 H358 0.950 . S
C354 C363 1.390 . S
C355 C354 1.387 . S
C355 C357 1.387 . S
H356 C363 0.950 . S
C357 C355 1.387 . S
C357 C359 1.390 . S
C357 H361 0.950 . S
H358 C354 0.950 . S
C359 C357 1.390 . S
C359 C360 1.387 . S
C359 H362 0.950 . S
C360 C359 1.387 . S
C360 C363 1.387 . S
H361 C357 0.950 . S
H362 C359 0.950 . S
C363 C354 1.390 . S
C363 H356 0.950 . S
C363 C360 1.387 . S
C364 C365 1.387 . S
C364 H368 0.950 . S
C364 C373 1.390 . S
C365 C364 1.387 . S
C365 C367 1.387 . S
H366 C373 0.950 . S
C367 C365 1.387 . S
C367 C369 1.390 . S
C367 H371 0.950 . S
H368 C364 0.950 . S
C369 C367 1.390 . S
C369 C370 1.387 . S
C369 H372 0.950 . S
C370 C369 1.387 . S
C370 C373 1.387 . S
H371 C367 0.950 . S
H372 C369 0.950 . S
C373 C364 1.390 . S
C373 H366 0.950 . S
C373 C370 1.387 . S
C374 C375 1.387 . S
C374 H378 0.950 . S
C374 C383 1.390 . S
C375 C374 1.387 . S
C375 C377 1.387 . S
H376 C383 0.950 . S
C377 C375 1.387 . S
C377 C379 1.390 . S
C377 H381 0.950 . S
H378 C374 0.950 . S
C379 C377 1.390 . S
C379 C380 1.387 . S
C379 H382 0.950 . S
C380 C379 1.387 . S
C380 C383 1.387 . S
H381 C377 0.950 . S
H382 C379 0.950 . S
C383 C374 1.390 . S
C383 H376 0.950 . S
C383 C380 1.387 . S
C384 C385 1.387 . S
C384 H388 0.950 . S
C384 C393 1.390 1_445 S
C385 C384 1.387 . S
C385 C387 1.387 . S
H386 C393 0.950 . S
C387 C385 1.387 . S
C387 C389 1.390 1_445 S
C387 H391 0.950 . S
H388 C384 0.950 . S
C389 C387 1.390 1_665 S
C389 C390 1.387 . S
C389 H392 0.950 . S
C390 C389 1.387 . S
C390 C393 1.387 . S
H391 C387 0.950 . S
H392 C389 0.950 . S
C393 C384 1.390 1_665 S
C393 H386 0.950 . S
C393 C390 1.387 . S
C394 C395 1.387 . S
C394 H398 0.950 . S
C394 C403 1.390 1_455 S
C395 C394 1.387 . S
C395 C397 1.387 . S
H396 C403 0.950 . S
C397 C395 1.387 . S
C397 C399 1.390 1_455 S
C397 H401 0.950 . S
H398 C394 0.950 . S
C399 C397 1.390 1_655 S
C399 C400 1.387 . S
C399 H402 0.950 . S
C400 C399 1.387 . S
C400 C403 1.387 . S
H401 C397 0.950 . S
H402 C399 0.950 . S
C403 C394 1.390 1_655 S
C403 H396 0.950 . S
C403 C400 1.387 . S
C404 C405 1.387 . S
C404 H408 0.950 . S
C404 C413 1.390 . S
C405 C404 1.387 . S
C405 C407 1.387 . S
H406 C413 0.950 . S
C407 C405 1.387 . S
C407 C409 1.390 . S
C407 H411 0.950 . S
H408 C404 0.950 . S
C409 C407 1.390 . S
C409 C410 1.387 . S
C409 H412 0.950 . S
C410 C409 1.387 . S
C410 C413 1.387 . S
H411 C407 0.950 . S
H412 C409 0.950 . S
C413 C404 1.390 . S
C413 H406 0.950 . S
C413 C410 1.387 . S
C414 C415 1.387 . S
C414 H418 0.950 . S
C414 C423 1.390 1_545 S
C415 C414 1.387 . S
C415 C417 1.387 . S
H416 C423 0.950 . S
C417 C415 1.387 . S
C417 C419 1.390 1_545 S
C417 H421 0.950 . S
H418 C414 0.950 . S
C419 C417 1.390 1_565 S
C419 C420 1.387 . S
C419 H422 0.950 . S
C420 C419 1.387 . S
C420 C423 1.387 . S
H421 C417 0.950 . S
H422 C419 0.950 . S
C423 C414 1.390 1_565 S
C423 H416 0.950 . S
C423 C420 1.387 . S
C424 C425 1.387 . S
C424 H428 0.950 . S
C424 C433 1.390 1_455 S
C425 C424 1.387 . S
C425 C427 1.387 . S
H426 C433 0.950 . S
C427 C425 1.387 . S
C427 C429 1.390 1_455 S
C427 H431 0.950 . S
H428 C424 0.950 . S
C429 C427 1.390 1_655 S
C429 C430 1.387 . S
C429 H432 0.950 . S
C430 C429 1.387 . S
C430 C433 1.387 . S
H431 C427 0.950 . S
H432 C429 0.950 . S
C433 C424 1.390 1_655 S
C433 H426 0.950 . S
C433 C430 1.387 . S
C434 C435 1.387 . S
C434 H438 0.950 . S
C434 C443 1.390 . S
C435 C434 1.387 . S
C435 C437 1.387 . S
H436 C443 0.950 . S
C437 C435 1.387 . S
C437 C439 1.390 . S
C437 H441 0.950 . S
H438 C434 0.950 . S
C439 C437 1.390 . S
C439 C440 1.387 . S
C439 H442 0.950 . S
C440 C439 1.387 . S
C440 C443 1.387 . S
H441 C437 0.950 . S
H442 C439 0.950 . S
C443 C434 1.390 . S
C443 H436 0.950 . S
C443 C440 1.387 . S
C444 C445 1.387 . S
C444 H448 0.950 . S
C444 C453 1.390 1_565 S
C445 C444 1.387 . S
C445 C447 1.387 . S
H446 C453 0.950 . S
C447 C445 1.387 . S
C447 C449 1.390 1_565 S
C447 H451 0.950 . S
H448 C444 0.950 . S
C449 C447 1.390 1_545 S
C449 C450 1.387 . S
C449 H452 0.950 . S
C450 C449 1.387 . S
C450 C453 1.387 . S
H451 C447 0.950 . S
H452 C449 0.950 . S
C453 C444 1.390 1_545 S
C453 H446 0.950 . S
C453 C450 1.387 . S
C454 C455 1.387 . S
C454 H458 0.950 . S
C454 C463 1.390 1_445 S
C455 C454 1.387 . S
C455 C457 1.387 . S
H456 C463 0.950 . S
C457 C455 1.387 . S
C457 C459 1.390 1_445 S
C457 H461 0.950 . S
H458 C454 0.950 . S
C459 C457 1.390 1_665 S
C459 C460 1.387 . S
C459 H462 0.950 . S
C460 C459 1.387 . S
C460 C463 1.387 . S
H461 C457 0.950 . S
H462 C459 0.950 . S
C463 C454 1.390 1_665 S
C463 H456 0.950 . S
C463 C460 1.387 . S
C464 C465 1.387 . S
C464 H468 0.950 . S
C464 C473 1.390 1_565 S
C465 C464 1.387 . S
C465 C467 1.387 . S
H466 C473 0.950 . S
C467 C465 1.387 . S
C467 C469 1.390 1_565 S
C467 H471 0.950 . S
H468 C464 0.950 . S
C469 C467 1.390 1_545 S
C469 C470 1.387 . S
C469 H472 0.950 . S
C470 C469 1.387 . S
C470 C473 1.387 . S
H471 C467 0.950 . S
H472 C469 0.950 . S
C473 C464 1.390 1_545 S
C473 H466 0.950 . S
C473 C470 1.387 . S
C474 C475 1.387 . S
C474 H478 0.950 . S
C474 C483 1.390 1_665 S
C475 C474 1.387 . S
C475 C477 1.387 . S
H476 C483 0.950 . S
C477 C475 1.387 . S
C477 C479 1.390 1_665 S
C477 H481 0.950 . S
H478 C474 0.950 . S
C479 C477 1.390 1_445 S
C479 C480 1.387 . S
C479 H482 0.950 . S
C480 C479 1.387 . S
C480 C483 1.387 . S
H481 C477 0.950 . S
H482 C479 0.950 . S
C483 C474 1.390 1_445 S
C483 H476 0.950 . S
C483 C480 1.387 . S
C484 C485 1.387 . S
C484 H488 0.950 . S
C484 C493 1.390 1_455 S
C485 C484 1.387 . S
C485 C487 1.387 . S
H486 C493 0.950 . S
C487 C485 1.387 . S
C487 C489 1.390 1_455 S
C487 H491 0.950 . S
H488 C484 0.950 . S
C489 C487 1.390 1_655 S
C489 C490 1.387 . S
C489 H492 0.950 . S
C490 C489 1.387 . S
C490 C493 1.387 . S
H491 C487 0.950 . S
H492 C489 0.950 . S
C493 C484 1.390 1_655 S
C493 H486 0.950 . S
C493 C490 1.387 . S
C494 C495 1.387 . S
C494 H498 0.950 . S
C494 C503 1.390 . S
C495 C494 1.387 . S
C495 C497 1.387 . S
H496 C503 0.950 . S
C497 C495 1.387 . S
C497 C499 1.390 . S
C497 H501 0.950 . S
H498 C494 0.950 . S
C499 C497 1.390 . S
C499 C500 1.387 . S
C499 H502 0.950 . S
C500 C499 1.387 . S
C500 C503 1.387 . S
H501 C497 0.950 . S
H502 C499 0.950 . S
C503 C494 1.390 . S
C503 H496 0.950 . S
C503 C500 1.387 . S
C504 C505 1.387 . S
C504 H508 0.950 . S
C504 C513 1.390 . S
C505 C504 1.387 . S
C505 C507 1.387 . S
H506 C513 0.950 . S
C507 C505 1.387 . S
C507 C509 1.390 . S
C507 H511 0.950 . S
H508 C504 0.950 . S
C509 C507 1.390 . S
C509 C510 1.387 . S
C509 H512 0.950 . S
C510 C509 1.387 . S
C510 C513 1.387 . S
H511 C507 0.950 . S
H512 C509 0.950 . S
C513 C504 1.390 . S
C513 H506 0.950 . S
C513 C510 1.387 . S
C514 C515 1.387 . S
C514 H518 0.950 . S
C514 C523 1.390 1_545 S
C515 C514 1.387 . S
C515 C517 1.387 . S
H516 C523 0.950 . S
C517 C515 1.387 . S
C517 C519 1.390 1_545 S
C517 H521 0.950 . S
H518 C514 0.950 . S
C519 C517 1.390 1_565 S
C519 C520 1.387 . S
C519 H522 0.950 . S
C520 C519 1.387 . S
C520 C523 1.387 . S
H521 C517 0.950 . S
H522 C519 0.950 . S
C523 C514 1.390 1_565 S
C523 H516 0.950 . S
C523 C520 1.387 . S
C524 C525 1.387 . S
C524 H528 0.950 . S
C524 C533 1.390 1_665 S
C525 C524 1.387 . S
C525 C527 1.387 . S
H526 C533 0.950 . S
C527 C525 1.387 . S
C527 C529 1.390 1_665 S
C527 H531 0.950 . S
H528 C524 0.950 . S
C529 C527 1.390 1_445 S
C529 C530 1.387 . S
C529 H532 0.950 . S
C530 C529 1.387 . S
C530 C533 1.387 . S
H531 C527 0.950 . S
H532 C529 0.950 . S
C533 C524 1.390 1_445 S
C533 H526 0.950 . S
C533 C530 1.387 . S
C534 C535 1.387 . S
C534 H538 0.950 . S
C534 C543 1.390 1_655 S
C535 C534 1.387 . S
C535 C537 1.387 . S
H536 C543 0.950 . S
C537 C535 1.387 . S
C537 C539 1.390 1_655 S
C537 H541 0.950 . S
H538 C534 0.950 . S
C539 C537 1.390 1_455 S
C539 C540 1.387 . S
C539 H542 0.950 . S
C540 C539 1.387 . S
C540 C543 1.387 . S
H541 C537 0.950 . S
H542 C539 0.950 . S
C543 C534 1.390 1_455 S
C543 H536 0.950 . S
C543 C540 1.387 . S
C225 C68 1.185 . S
C230 C12 1.185 . S
C235 C26 1.185 . S
C240 C82 1.185 . S
C245 C96 1.185 . S
C250 C40 1.185 . S
C255 C110 1.181 . S
C260 C54 1.181 . S
C265 C180 1.185 . S
C270 C124 1.185 . S
C275 C138 1.185 . S
C280 C194 1.185 . S
C285 C208 1.185 . S
C290 C152 1.185 . S
C295 C166 1.185 . S
C300 C222 1.185 . S
C305 C5 1.219 . S
C310 C215 1.224 . S
C315 C19 1.219 . S
C320 C173 1.224 . S
C325 C33 1.220 . S
C330 C187 1.221 . S
C335 C201 1.224 . S
C340 C47 1.222 . S
C345 C61 1.225 . S
C350 C131 1.220 . S
C355 C75 1.219 . S
C360 C145 1.224 . S
C365 C159 1.222 . S
C370 C89 1.219 . S
C375 C117 1.224 . S
C380 C103 1.219 . S
C385 C11 1.518 . S
C390 C151 1.519 . S
C395 C165 1.520 . S
C400 C25 1.520 . S
C405 C39 1.520 . S
C410 C123 1.520 . S
C415 C137 1.520 . S
C420 C53 1.520 . S
C425 C67 1.520 . S
C430 C207 1.520 . S
C435 C81 1.520 . S
C440 C221 1.520 . S
C445 C179 1.520 . S
C450 C95 1.520 . S
C455 C193 1.519 . S
C460 C109 1.518 . S
C465 C144 1.593 . S
C470 C4 1.593 . S
C475 C18 1.593 . S
C480 C158 1.593 . S
C485 C32 1.593 . S
C490 C116 1.593 . S
C495 C130 1.593 . S
C500 C46 1.593 . S
C505 C200 1.593 . S
C510 C60 1.593 . S
C515 C214 1.592 . S
C520 C74 1.592 . S
C525 C172 1.592 . S
C530 C88 1.592 . S
C535 C102 1.593 . S
C540 C186 1.593 . S
