# Generated by pormake.
# Topology vbd, (5)-cn, num edge types: 1
# Building blocks:
#     Node 0, Type 0, BuildingBlock: BEQFEK_clean_sbu_0, # of connection points: 5
#     Node 1, Type 0, BuildingBlock: BEQFEK_clean_sbu_0, # of connection points: 5
#     Node 2, Type 0, BuildingBlock: BEQFEK_clean_sbu_0, # of connection points: 5
#     Node 3, Type 0, BuildingBlock: BEQFEK_clean_sbu_0, # of connection points: 5
#     Node 4, Type 0, BuildingBlock: BEQFEK_clean_sbu_0, # of connection points: 5
#     Node 5, Type 0, BuildingBlock: BEQFEK_clean_sbu_0, # of connection points: 5
#     Node 6, Type 0, BuildingBlock: BEQFEK_clean_sbu_0, # of connection points: 5
#     Node 7, Type 0, BuildingBlock: BEQFEK_clean_sbu_0, # of connection points: 5
#     Node 8, Type 0, BuildingBlock: BEQFEK_clean_sbu_0, # of connection points: 5
#     Node 9, Type 0, BuildingBlock: BEQFEK_clean_sbu_0, # of connection points: 5
#     Node 10, Type 0, BuildingBlock: BEQFEK_clean_sbu_0, # of connection points: 5
#     Node 11, Type 0, BuildingBlock: BEQFEK_clean_sbu_0, # of connection points: 5
#     Node 12, Type 0, BuildingBlock: BEQFEK_clean_sbu_0, # of connection points: 5
#     Node 13, Type 0, BuildingBlock: BEQFEK_clean_sbu_0, # of connection points: 5
#     Node 14, Type 0, BuildingBlock: BEQFEK_clean_sbu_0, # of connection points: 5
#     Node 15, Type 0, BuildingBlock: BEQFEK_clean_sbu_0, # of connection points: 5
#     Node 16, Type 0, BuildingBlock: BEQFEK_clean_sbu_0, # of connection points: 5
#     Node 17, Type 0, BuildingBlock: BEQFEK_clean_sbu_0, # of connection points: 5
#     Node 18, Type 0, BuildingBlock: BEQFEK_clean_sbu_0, # of connection points: 5
#     Node 19, Type 0, BuildingBlock: BEQFEK_clean_sbu_0, # of connection points: 5
#     Node 20, Type 0, BuildingBlock: BEQFEK_clean_sbu_0, # of connection points: 5
#     Node 21, Type 0, BuildingBlock: BEQFEK_clean_sbu_0, # of connection points: 5
#     Node 22, Type 0, BuildingBlock: BEQFEK_clean_sbu_0, # of connection points: 5
#     Node 23, Type 0, BuildingBlock: BEQFEK_clean_sbu_0, # of connection points: 5
#     Node 24, Type 0, BuildingBlock: BEQFEK_clean_sbu_0, # of connection points: 5
#     Node 25, Type 0, BuildingBlock: BEQFEK_clean_sbu_0, # of connection points: 5
#     Node 26, Type 0, BuildingBlock: BEQFEK_clean_sbu_0, # of connection points: 5
#     Node 27, Type 0, BuildingBlock: BEQFEK_clean_sbu_0, # of connection points: 5
#     Node 28, Type 0, BuildingBlock: BEQFEK_clean_sbu_0, # of connection points: 5
#     Node 29, Type 0, BuildingBlock: BEQFEK_clean_sbu_0, # of connection points: 5
#     Node 30, Type 0, BuildingBlock: BEQFEK_clean_sbu_0, # of connection points: 5
#     Node 31, Type 0, BuildingBlock: BEQFEK_clean_sbu_0, # of connection points: 5
#     Edge 32, Type (0, 0), BuildingBlock: AJUNOK_clean_linker_0, # of connection points: 2
#     Edge 33, Type (0, 0), BuildingBlock: AJUNOK_clean_linker_0, # of connection points: 2
#     Edge 34, Type (0, 0), BuildingBlock: AJUNOK_clean_linker_0, # of connection points: 2
#     Edge 35, Type (0, 0), BuildingBlock: AJUNOK_clean_linker_0, # of connection points: 2
#     Edge 36, Type (0, 0), BuildingBlock: AJUNOK_clean_linker_0, # of connection points: 2
#     Edge 37, Type (0, 0), BuildingBlock: AJUNOK_clean_linker_0, # of connection points: 2
#     Edge 38, Type (0, 0), BuildingBlock: AJUNOK_clean_linker_0, # of connection points: 2
#     Edge 39, Type (0, 0), BuildingBlock: AJUNOK_clean_linker_0, # of connection points: 2
#     Edge 40, Type (0, 0), BuildingBlock: AJUNOK_clean_linker_0, # of connection points: 2
#     Edge 41, Type (0, 0), BuildingBlock: AJUNOK_clean_linker_0, # of connection points: 2
#     Edge 42, Type (0, 0), BuildingBlock: AJUNOK_clean_linker_0, # of connection points: 2
#     Edge 43, Type (0, 0), BuildingBlock: AJUNOK_clean_linker_0, # of connection points: 2
#     Edge 44, Type (0, 0), BuildingBlock: AJUNOK_clean_linker_0, # of connection points: 2
#     Edge 45, Type (0, 0), BuildingBlock: AJUNOK_clean_linker_0, # of connection points: 2
#     Edge 46, Type (0, 0), BuildingBlock: AJUNOK_clean_linker_0, # of connection points: 2
#     Edge 47, Type (0, 0), BuildingBlock: AJUNOK_clean_linker_0, # of connection points: 2
#     Edge 48, Type (0, 0), BuildingBlock: AJUNOK_clean_linker_0, # of connection points: 2
#     Edge 49, Type (0, 0), BuildingBlock: AJUNOK_clean_linker_0, # of connection points: 2
#     Edge 50, Type (0, 0), BuildingBlock: AJUNOK_clean_linker_0, # of connection points: 2
#     Edge 51, Type (0, 0), BuildingBlock: AJUNOK_clean_linker_0, # of connection points: 2
#     Edge 52, Type (0, 0), BuildingBlock: AJUNOK_clean_linker_0, # of connection points: 2
#     Edge 53, Type (0, 0), BuildingBlock: AJUNOK_clean_linker_0, # of connection points: 2
#     Edge 54, Type (0, 0), BuildingBlock: AJUNOK_clean_linker_0, # of connection points: 2
#     Edge 55, Type (0, 0), BuildingBlock: AJUNOK_clean_linker_0, # of connection points: 2
#     Edge 56, Type (0, 0), BuildingBlock: AJUNOK_clean_linker_0, # of connection points: 2
#     Edge 57, Type (0, 0), BuildingBlock: AJUNOK_clean_linker_0, # of connection points: 2
#     Edge 58, Type (0, 0), BuildingBlock: AJUNOK_clean_linker_0, # of connection points: 2
#     Edge 59, Type (0, 0), BuildingBlock: AJUNOK_clean_linker_0, # of connection points: 2
#     Edge 60, Type (0, 0), BuildingBlock: AJUNOK_clean_linker_0, # of connection points: 2
#     Edge 61, Type (0, 0), BuildingBlock: AJUNOK_clean_linker_0, # of connection points: 2
#     Edge 62, Type (0, 0), BuildingBlock: AJUNOK_clean_linker_0, # of connection points: 2
#     Edge 63, Type (0, 0), BuildingBlock: AJUNOK_clean_linker_0, # of connection points: 2
#     Edge 64, Type (0, 0), BuildingBlock: AJUNOK_clean_linker_0, # of connection points: 2
#     Edge 65, Type (0, 0), BuildingBlock: AJUNOK_clean_linker_0, # of connection points: 2
#     Edge 66, Type (0, 0), BuildingBlock: AJUNOK_clean_linker_0, # of connection points: 2
#     Edge 67, Type (0, 0), BuildingBlock: AJUNOK_clean_linker_0, # of connection points: 2
#     Edge 68, Type (0, 0), BuildingBlock: AJUNOK_clean_linker_0, # of connection points: 2
#     Edge 69, Type (0, 0), BuildingBlock: AJUNOK_clean_linker_0, # of connection points: 2
#     Edge 70, Type (0, 0), BuildingBlock: AJUNOK_clean_linker_0, # of connection points: 2
#     Edge 71, Type (0, 0), BuildingBlock: AJUNOK_clean_linker_0, # of connection points: 2
#     Edge 72, Type (0, 0), BuildingBlock: AJUNOK_clean_linker_0, # of connection points: 2
#     Edge 73, Type (0, 0), BuildingBlock: AJUNOK_clean_linker_0, # of connection points: 2
#     Edge 74, Type (0, 0), BuildingBlock: AJUNOK_clean_linker_0, # of connection points: 2
#     Edge 75, Type (0, 0), BuildingBlock: AJUNOK_clean_linker_0, # of connection points: 2
#     Edge 76, Type (0, 0), BuildingBlock: AJUNOK_clean_linker_0, # of connection points: 2
#     Edge 77, Type (0, 0), BuildingBlock: AJUNOK_clean_linker_0, # of connection points: 2
#     Edge 78, Type (0, 0), BuildingBlock: AJUNOK_clean_linker_0, # of connection points: 2
#     Edge 79, Type (0, 0), BuildingBlock: AJUNOK_clean_linker_0, # of connection points: 2
#     Edge 80, Type (0, 0), BuildingBlock: AJUNOK_clean_linker_0, # of connection points: 2
#     Edge 81, Type (0, 0), BuildingBlock: AJUNOK_clean_linker_0, # of connection points: 2
#     Edge 82, Type (0, 0), BuildingBlock: AJUNOK_clean_linker_0, # of connection points: 2
#     Edge 83, Type (0, 0), BuildingBlock: AJUNOK_clean_linker_0, # of connection points: 2
#     Edge 84, Type (0, 0), BuildingBlock: AJUNOK_clean_linker_0, # of connection points: 2
#     Edge 85, Type (0, 0), BuildingBlock: AJUNOK_clean_linker_0, # of connection points: 2
#     Edge 86, Type (0, 0), BuildingBlock: AJUNOK_clean_linker_0, # of connection points: 2
#     Edge 87, Type (0, 0), BuildingBlock: AJUNOK_clean_linker_0, # of connection points: 2
#     Edge 88, Type (0, 0), BuildingBlock: AJUNOK_clean_linker_0, # of connection points: 2
#     Edge 89, Type (0, 0), BuildingBlock: AJUNOK_clean_linker_0, # of connection points: 2
#     Edge 90, Type (0, 0), BuildingBlock: AJUNOK_clean_linker_0, # of connection points: 2
#     Edge 91, Type (0, 0), BuildingBlock: AJUNOK_clean_linker_0, # of connection points: 2
#     Edge 92, Type (0, 0), BuildingBlock: AJUNOK_clean_linker_0, # of connection points: 2
#     Edge 93, Type (0, 0), BuildingBlock: AJUNOK_clean_linker_0, # of connection points: 2
#     Edge 94, Type (0, 0), BuildingBlock: AJUNOK_clean_linker_0, # of connection points: 2
#     Edge 95, Type (0, 0), BuildingBlock: AJUNOK_clean_linker_0, # of connection points: 2
#     Edge 96, Type (0, 0), BuildingBlock: AJUNOK_clean_linker_0, # of connection points: 2
#     Edge 97, Type (0, 0), BuildingBlock: AJUNOK_clean_linker_0, # of connection points: 2
#     Edge 98, Type (0, 0), BuildingBlock: AJUNOK_clean_linker_0, # of connection points: 2
#     Edge 99, Type (0, 0), BuildingBlock: AJUNOK_clean_linker_0, # of connection points: 2
#     Edge 100, Type (0, 0), BuildingBlock: AJUNOK_clean_linker_0, # of connection points: 2
#     Edge 101, Type (0, 0), BuildingBlock: AJUNOK_clean_linker_0, # of connection points: 2
#     Edge 102, Type (0, 0), BuildingBlock: AJUNOK_clean_linker_0, # of connection points: 2
#     Edge 103, Type (0, 0), BuildingBlock: AJUNOK_clean_linker_0, # of connection points: 2
#     Edge 104, Type (0, 0), BuildingBlock: AJUNOK_clean_linker_0, # of connection points: 2
#     Edge 105, Type (0, 0), BuildingBlock: AJUNOK_clean_linker_0, # of connection points: 2
#     Edge 106, Type (0, 0), BuildingBlock: AJUNOK_clean_linker_0, # of connection points: 2
#     Edge 107, Type (0, 0), BuildingBlock: AJUNOK_clean_linker_0, # of connection points: 2
#     Edge 108, Type (0, 0), BuildingBlock: AJUNOK_clean_linker_0, # of connection points: 2
#     Edge 109, Type (0, 0), BuildingBlock: AJUNOK_clean_linker_0, # of connection points: 2
#     Edge 110, Type (0, 0), BuildingBlock: AJUNOK_clean_linker_0, # of connection points: 2
#     Edge 111, Type (0, 0), BuildingBlock: AJUNOK_clean_linker_0, # of connection points: 2
# Relax obj value: 0.119
# Max RMSD: 0.133
# Mean RMSD: 0.133
data_MOF--net-vbd--node1-BEQFEK_clean_sbu_0--edge1-AJUNOK_clean_linker_0
_symmetry_space_group_name_H-M    P1
_symmetry_Int_Tables_number       1
_symmetry_cell_setting            triclinic
loop_
_symmetry_equiv_pos_as_xyz
'x, y, z'
_cell_length_a     67.56308
_cell_length_b     19.456023
_cell_length_c     58.579713
_cell_angle_alpha  90.022881
_cell_angle_beta   89.988091
_cell_angle_gamma 89.986289
loop_
_atom_site_label
_atom_site_type_symbol
_atom_site_fract_x
_atom_site_fract_y
_atom_site_fract_z
_atom_type_partial_charge
Co0 Co 0.03909 0.25909 0.04697 0.0
Co1 Co 0.04244 0.26082 0.99262 0.0
C2 C 0.07646 0.22363 0.02274 0.0
O3 O 0.06642 0.23362 0.04074 0.0
O4 O 0.069 0.23231 1.003 0.0
C5 C 0.03969 0.1952 0.0886 0.0
O6 O 0.04513 0.14817 0.07378 0.0
C7 C 0.05414 0.32725 0.94926 0.0
C8 C 0.03302 0.28041 0.92509 0.0
C9 C 0.04748 0.33077 0.92674 0.0
N10 N 0.04357 0.27902 0.96036 0.0
N11 N 0.03131 0.25015 0.94564 0.0
C12 C 0.0705 0.36726 0.9602 0.0
H13 H 0.07952 0.33254 0.97105 0.0
H14 H 0.06415 0.40711 0.9716 0.0
H15 H 0.08012 0.39184 0.94719 0.0
C16 C 0.02286 0.39862 0.03788 0.0
N17 N 0.03224 0.34089 0.03121 0.0
N18 N 0.03292 0.33943 0.00868 0.0
C19 C 0.02348 0.39496 1.00042 0.0
C20 C 0.01734 0.43507 0.01852 0.0
C21 C 0.0174 0.41427 0.06205 0.0
H22 H 0.02925 0.39625 0.07373 0.0
H23 H 0.01484 0.4702 0.0644 0.0
H24 H 0.00359 0.38634 0.06639 0.0
O25 O 0.02176 0.18666 0.03558 0.0
O26 O 0.02376 0.18471 0.99778 0.0
H27 H 0.01236 0.35067 0.96936 0.0
H28 H 0.00311 0.43535 0.97505 0.0
C29 C 0.01633 0.40174 0.9763 0.0
H30 H 0.02814 0.42483 0.96578 0.0
H31 H 0.02108 0.21207 0.9499 0.0
O32 O 0.03599 0.25566 0.08117 0.0
C33 C 0.01681 0.16138 0.01644 0.0
Co34 Co 0.19127 0.0715 0.05673 0.0
Co35 Co 0.19027 0.06461 1.00216 0.0
C36 C 0.15503 0.10562 0.02943 0.0
O37 O 0.16385 0.0979 0.04845 0.0
O38 O 0.16368 0.09326 0.01063 0.0
C39 C 0.17994 0.09181 0.10365 0.0
O40 O 0.16221 0.08578 0.09471 0.0
C41 C 0.17923 0.00037 0.95848 0.0
C42 C 0.20138 0.04496 0.93505 0.0
C43 C 0.18617 -0.00271 0.93613 0.0
N44 N 0.19028 0.046 0.97009 0.0
N45 N 0.20321 0.07356 0.95585 0.0
C46 C 0.16212 0.96248 0.96874 0.0
H47 H 0.15308 -0.00161 0.97912 0.0
H48 H 0.16771 0.9221 0.98044 0.0
H49 H 0.15269 0.93882 0.95536 0.0
C50 C 0.20856 0.9315 0.04923 0.0
N51 N 0.19918 0.98841 0.04176 0.0
N52 N 0.19909 0.98774 0.01921 0.0
C53 C 0.20875 0.9317 0.01174 0.0
C54 C 0.2147 0.8935 0.03036 0.0
C55 C 0.21311 0.91766 0.07377 0.0
H56 H 0.2 0.93005 0.08441 0.0
H57 H 0.21755 0.86327 0.07638 0.0
H58 H 0.22538 0.95176 0.07929 0.0
O59 O 0.20858 0.14463 0.04559 0.0
O60 O 0.20825 0.14104 0.00774 0.0
H61 H 0.22063 0.9724 0.98056 0.0
H62 H 0.22869 0.88671 0.98665 0.0
C63 C 0.21592 0.92237 0.9877 0.0
H64 H 0.20382 0.90097 0.97719 0.0
H65 H 0.21379 0.1099 0.96056 0.0
O66 O 0.19486 0.07813 0.09112 0.0
C67 C 0.21425 0.16737 0.02635 0.0
Co68 Co 0.0409 0.06574 0.22856 0.0
Co69 Co 0.04082 0.05819 0.28268 0.0
C70 C 0.07409 0.12155 0.2568 0.0
O71 O 0.06615 0.10867 0.23759 0.0
O72 O 0.06582 0.10386 0.27537 0.0
C73 C 0.03991 0.12894 0.18618 0.0
O74 O 0.04094 0.18058 0.2006 0.0
C75 C 0.05286 0.00504 0.32793 0.0
C76 C 0.02803 0.04101 0.34935 0.0
C77 C 0.04539 0.00313 0.35007 0.0
N78 N 0.04029 0.04143 0.31483 0.0
N79 N 0.02566 0.06366 0.32785 0.0
C80 C 0.07179 0.97451 0.31934 0.0
H81 H 0.0778 0.00603 0.30517 0.0
H82 H 0.06894 0.92221 0.31258 0.0
H83 H 0.08284 0.97075 0.3333 0.0
C84 C 0.03069 0.91817 0.23485 0.0
N85 N 0.03743 0.97854 0.24299 0.0
N86 N 0.0371 0.97653 0.26551 0.0
C87 C 0.02984 0.91553 0.27235 0.0
C88 C 0.02574 0.87616 0.25323 0.0
C89 C 0.02675 0.90495 0.21012 0.0
H90 H 0.03982 0.92066 0.19989 0.0
H91 H 0.02335 0.84993 0.20698 0.0
H92 H 0.01406 0.93699 0.2045 0.0
O93 O 0.01905 0.12501 0.23823 0.0
O94 O 0.01895 0.1208 0.27601 0.0
H95 H 0.01506 0.9476 0.303 0.0
H96 H 0.0121 0.85794 0.29685 0.0
C97 C 0.02264 0.90153 0.29614 0.0
H98 H 0.03539 0.88898 0.30724 0.0
H99 H 0.01375 0.09277 0.32193 0.0
O100 O 0.03985 0.06791 0.19426 0.0
C101 C 0.01174 0.14252 0.25732 0.0
Co102 Co 0.19306 0.235 0.24011 0.0
Co103 Co 0.18822 0.24399 0.29439 0.0
C104 C 0.15345 0.23147 0.26294 0.0
O105 O 0.16421 0.23106 0.24513 0.0
O106 O 0.16099 0.23704 0.28276 0.0
C107 C 0.18455 0.23421 0.19192 0.0
O108 O 0.16835 0.26468 0.19903 0.0
C109 C 0.17883 0.31522 0.33796 0.0
C110 C 0.19579 0.25228 0.36244 0.0
C111 C 0.18413 0.31077 0.36092 0.0
N112 N 0.18729 0.2626 0.3266 0.0
N113 N 0.19711 0.22463 0.34146 0.0
C114 C 0.16566 0.3674 0.32691 0.0
H115 H 0.1578 0.34415 0.31219 0.0
H116 H 0.17471 0.41062 0.32035 0.0
H117 H 0.15478 0.38794 0.33937 0.0
C118 C 0.21699 0.36157 0.24954 0.0
N119 N 0.20477 0.31046 0.25611 0.0
N120 N 0.20337 0.31115 0.27861 0.0
C121 C 0.21517 0.36079 0.28698 0.0
C122 C 0.22388 0.39518 0.26897 0.0
C123 C 0.22219 0.37626 0.22523 0.0
H124 H 0.20913 0.3672 0.21414 0.0
H125 H 0.22752 0.42988 0.22319 0.0
H126 H 0.23406 0.34043 0.21974 0.0
O127 O 0.20428 0.15019 0.25272 0.0
O128 O 0.20105 0.15456 0.29036 0.0
H129 H 0.22155 0.31685 0.31982 0.0
H130 H 0.23533 0.39341 0.31363 0.0
C131 C 0.22073 0.36804 0.31165 0.0
H132 H 0.20956 0.39986 0.32057 0.0
H133 H 0.20531 0.18112 0.33716 0.0
O134 O 0.19854 0.22526 0.20619 0.0
C135 C 0.20662 0.12362 0.27237 0.0
Co136 Co 0.93881 0.83966 0.98186 0.0
Co137 Co 0.93754 0.82822 0.03606 0.0
C138 C 0.90167 0.85948 0.00851 0.0
O139 O 0.91086 0.85656 0.98959 0.0
O140 O 0.91044 0.84997 0.02741 0.0
C141 C 0.93768 0.90388 0.93928 0.0
O142 O 0.9329 0.95371 0.95339 0.0
C143 C 0.92698 0.7595 0.07913 0.0
C144 C 0.94899 0.80319 0.10293 0.0
C145 C 0.93403 0.75467 0.1014 0.0
N146 N 0.93775 0.80697 0.06797 0.0
N147 N 0.95059 0.83389 0.08244 0.0
C148 C 0.91003 0.72154 0.06856 0.0
H149 H 0.91579 0.68318 0.05621 0.0
H150 H 0.90088 0.69547 0.08169 0.0
H151 H 0.90063 0.75797 0.05885 0.0
C152 C 0.95748 0.70153 0.98799 0.0
N153 N 0.94783 0.75715 0.99603 0.0
N154 N 0.94772 0.75457 0.01855 0.0
C155 C 0.95768 0.6986 0.02549 0.0
C156 C 0.96384 0.66249 1.00648 0.0
C157 C 0.96159 0.68908 0.96326 0.0
H158 H 0.94815 0.70063 0.95306 0.0
H159 H 0.96636 0.63523 0.96024 0.0
H160 H 0.97345 0.72455 0.95753 0.0
O161 O 0.95526 0.9157 0.99334 0.0
O162 O 0.9543 0.90838 0.03112 0.0
H163 H 0.96881 0.73619 0.05745 0.0
H164 H 0.97747 0.65188 0.05031 0.0
C165 C 0.96451 0.68678 0.04952 0.0
H166 H 0.95236 0.66332 0.05946 0.0
H167 H 0.96099 0.87122 0.07809 0.0
O168 O 0.94117 0.8444 0.94762 0.0
C169 C 0.96034 0.93736 0.01297 0.0
Co170 Co 0.78711 0.01534 0.98329 0.0
Co171 Co 0.78911 0.02381 0.03782 0.0
C172 C 0.82144 0.96189 0.0106 0.0
O173 O 0.81231 0.97272 0.99202 0.0
O174 O 0.81426 0.98045 0.02968 0.0
C175 C 0.80152 -0.00022 0.93751 0.0
O176 O 0.81836 0.01226 0.94787 0.0
C177 C 0.80114 0.08271 0.08265 0.0
C178 C 0.77832 0.03801 0.10516 0.0
C179 C 0.79437 0.08228 0.1051 0.0
N180 N 0.78941 0.04133 0.0701 0.0
N181 N 0.77601 0.01405 0.0838 0.0
C182 C 0.81887 0.11949 0.07341 0.0
H183 H 0.82425 0.09377 0.05767 0.0
H184 H 0.81494 0.17315 0.06903 0.0
H185 H 0.8308 0.12105 0.08643 0.0
C186 C 0.77783 0.16389 0.99008 0.0
N187 N 0.78429 0.10278 0.99789 0.0
N188 N 0.78448 0.10454 0.02046 0.0
C189 C 0.77759 0.16569 0.02761 0.0
C190 C 0.77368 0.20596 0.0087 0.0
C191 C 0.77325 0.17799 0.96557 0.0
H192 H 0.78465 0.15391 0.95451 0.0
H193 H 0.77251 0.23414 0.96229 0.0
H194 H 0.75874 0.15464 0.96127 0.0
O195 O 0.7656 0.95673 0.99414 0.0
O196 O 0.76733 0.95987 0.03195 0.0
H197 H 0.75781 0.21717 0.05144 0.0
H198 H 0.78201 0.19881 0.06217 0.0
C199 C 0.76993 0.17873 0.0513 0.0
H200 H 0.76404 0.13072 0.05878 0.0
H201 H 0.7649 0.98046 0.07844 0.0
O202 O 0.78555 0.0086 0.94875 0.0
C203 C 0.75922 0.93886 0.01365 0.0
Co204 Co 0.93616 0.02984 0.79933 0.0
Co205 Co 0.93359 0.03419 0.74506 0.0
C206 C 0.89887 -0.00137 0.77396 0.0
O207 O 0.90853 0.00551 0.79244 0.0
O208 O 0.90689 0.00841 0.75462 0.0
C209 C 0.93694 0.96652 0.84145 0.0
O210 O 0.93276 0.917 0.82699 0.0
C211 C 0.92334 0.09635 0.7004 0.0
C212 C 0.94318 0.03821 0.67745 0.0
C213 C 0.9296 0.09152 0.67781 0.0
N214 N 0.9332 0.04913 0.71277 0.0
N215 N 0.94473 0.01379 0.69882 0.0
C216 C 0.90761 0.14213 0.71004 0.0
H217 H 0.89772 0.11163 0.72127 0.0
H218 H 0.91446 0.18249 0.72081 0.0
H219 H 0.89878 0.16657 0.69628 0.0
C220 C 0.95309 0.16928 0.79083 0.0
N221 N 0.94356 0.11225 0.78379 0.0
N222 N 0.94318 0.11174 0.76124 0.0
C223 C 0.95303 0.16684 0.75333 0.0
C224 C 0.95919 0.20588 0.77168 0.0
C225 C 0.95774 0.18456 0.81525 0.0
H226 H 0.94464 0.17314 0.82603 0.0
H227 H 0.96226 0.23901 0.81749 0.0
H228 H 0.96996 0.15056 0.82096 0.0
O229 O 0.95392 0.95673 0.78844 0.0
O230 O 0.95177 0.95813 0.75066 0.0
H231 H 0.96342 0.1231 0.72178 0.0
H232 H 0.97411 0.20507 0.72843 0.0
C233 C 0.96033 0.17419 0.72928 0.0
H234 H 0.94897 0.20079 0.71899 0.0
H235 H 0.95412 0.97424 0.704 0.0
O236 O 0.93902 0.02744 0.83363 0.0
C237 C 0.9589 0.93362 0.76898 0.0
Co238 Co 0.78614 0.83006 0.80483 0.0
Co239 Co 0.78751 0.81623 0.75037 0.0
C240 C 0.82031 0.88009 0.77639 0.0
O241 O 0.81147 0.87097 0.79528 0.0
O242 O 0.81278 0.86003 0.75768 0.0
C243 C 0.80104 0.84907 0.8503 0.0
O244 O 0.81775 0.83563 0.83978 0.0
C245 C 0.80026 0.75296 0.70671 0.0
C246 C 0.77647 0.78695 0.68347 0.0
C247 C 0.79329 0.74633 0.68444 0.0
N248 N 0.78779 0.79405 0.71837 0.0
N249 N 0.77382 0.81508 0.70422 0.0
C250 C 0.81876 0.7232 0.71672 0.0
H251 H 0.8149 0.68039 0.72839 0.0
H252 H 0.82886 0.70412 0.70318 0.0
H253 H 0.82642 0.76284 0.72708 0.0
C254 C 0.77605 0.68106 0.7997 0.0
N255 N 0.78271 0.74127 0.79127 0.0
N256 N 0.78283 0.73744 0.76874 0.0
C257 C 0.77582 0.67584 0.76223 0.0
C258 C 0.77179 0.63736 0.78152 0.0
C259 C 0.77154 0.66917 0.82435 0.0
H260 H 0.78293 0.6943 0.83514 0.0
H261 H 0.77083 0.61334 0.82818 0.0
H262 H 0.75701 0.69278 0.82845 0.0
O263 O 0.7648 0.88911 0.79353 0.0
O264 O 0.76596 0.88182 0.75572 0.0
H265 H 0.76182 0.70727 0.73099 0.0
H266 H 0.75694 0.61992 0.73846 0.0
C267 C 0.76843 0.66057 0.7386 0.0
H268 H 0.78089 0.64285 0.72788 0.0
H269 H 0.76209 0.84697 0.70891 0.0
O270 O 0.78494 0.83985 0.83934 0.0
C271 C 0.75826 0.90546 0.77392 0.0
Co272 Co 0.0406 0.73249 0.54438 0.0
Co273 Co 0.04687 0.74222 0.49067 0.0
C274 C 0.08073 0.73028 0.52388 0.0
O275 O 0.06967 0.73036 0.54147 0.0
O276 O 0.0735 0.73531 0.50389 0.0
C277 C 0.04361 0.73528 0.59451 0.0
O278 O 0.0596 0.7726 0.59156 0.0
C279 C 0.0576 0.81773 0.44873 0.0
C280 C 0.04257 0.7553 0.42243 0.0
C281 C 0.0533 0.8153 0.42549 0.0
N282 N 0.04928 0.76276 0.45884 0.0
N283 N 0.04066 0.72504 0.44294 0.0
C284 C 0.0699 0.86947 0.46123 0.0
H285 H 0.06016 0.9032 0.47157 0.0
H286 H 0.07874 0.90117 0.44922 0.0
H287 H 0.07995 0.84263 0.47326 0.0
C288 C 0.01661 0.85892 0.53436 0.0
N289 N 0.02906 0.80793 0.52822 0.0
N290 N 0.03089 0.80823 0.50578 0.0
C291 C 0.01907 0.8571 0.49699 0.0
C292 C 0.00999 0.89189 0.51467 0.0
C293 C 0.01096 0.87425 0.5585 0.0
H294 H 0.0238 0.86533 0.56993 0.0
H295 H 0.00564 0.92799 0.56027 0.0
H296 H -0.00105 0.83873 0.56377 0.0
O297 O 0.0303 0.64747 0.53076 0.0
O298 O 0.03411 0.65277 0.49325 0.0
H299 H 0.01397 0.81208 0.464 0.0
H300 H -0.00095 0.88658 0.46987 0.0
C301 C 0.01392 0.86333 0.47221 0.0
H302 H 0.02485 0.89685 0.4637 0.0
H303 H 0.03282 0.67995 0.4462 0.0
O304 O 0.03293 0.72017 0.57732 0.0
C305 C 0.02835 0.62123 0.51101 0.0
Co306 Co 0.19771 0.59206 0.55411 0.0
Co307 Co 0.19587 0.58208 0.49987 0.0
C308 C 0.16177 0.63288 0.52799 0.0
O309 O 0.17074 0.62304 0.54676 0.0
O310 O 0.16992 0.61889 0.50897 0.0
C311 C 0.19377 0.5772 0.60569 0.0
O312 O 0.18271 0.52207 0.60373 0.0
C313 C 0.18308 0.51527 0.45689 0.0
C314 C 0.2053 0.55479 0.43258 0.0
C315 C 0.1896 0.50928 0.43439 0.0
N316 N 0.19483 0.56042 0.46785 0.0
N317 N 0.20781 0.58483 0.45306 0.0
C318 C 0.1657 0.48083 0.46786 0.0
H319 H 0.17097 0.4394 0.47935 0.0
H320 H 0.15554 0.45894 0.45486 0.0
H321 H 0.15758 0.51848 0.47857 0.0
C322 C 0.21218 0.44715 0.54767 0.0
N323 N 0.20375 0.50566 0.54 0.0
N324 N 0.20335 0.50381 0.51744 0.0
C325 C 0.21185 0.44525 0.51018 0.0
C326 C 0.21724 0.40657 0.52895 0.0
C327 C 0.21668 0.4334 0.57224 0.0
H328 H 0.22375 0.47931 0.57998 0.0
H329 H 0.2026 0.42397 0.58142 0.0
H330 H 0.22636 0.38781 0.57438 0.0
O331 O 0.21656 0.65882 0.54198 0.0
O332 O 0.21606 0.65339 0.50418 0.0
H333 H 0.22398 0.4823 0.4786 0.0
H334 H 0.23118 0.39613 0.48533 0.0
C335 C 0.21879 0.43342 0.48617 0.0
H336 H 0.20644 0.41269 0.47589 0.0
H337 H 0.21888 0.62009 0.45717 0.0
O338 O 0.20094 0.60549 0.58797 0.0
C339 C 0.22289 0.67835 0.52264 0.0
Co340 Co 0.03724 0.61298 0.73409 0.0
Co341 Co 0.03779 0.60231 0.78838 0.0
C342 C 0.07385 0.63663 0.76053 0.0
O343 O 0.06537 0.63057 0.74124 0.0
O344 O 0.06444 0.62729 0.77901 0.0
C345 C 0.0395 0.59565 0.68241 0.0
O346 O 0.04888 0.53686 0.68437 0.0
C347 C 0.0493 0.53128 0.83106 0.0
C348 C 0.03015 0.58339 0.85622 0.0
C349 C 0.04406 0.53137 0.85404 0.0
N350 N 0.03876 0.58025 0.82026 0.0
N351 N 0.02755 0.61176 0.8355 0.0
C352 C 0.06439 0.48686 0.81954 0.0
H353 H 0.0706 0.51353 0.80442 0.0
H354 H 0.05732 0.43873 0.81354 0.0
H355 H 0.07644 0.4732 0.8316 0.0
C356 C 0.01816 0.47388 0.74057 0.0
N357 N 0.02779 0.53012 0.74827 0.0
N358 N 0.02775 0.52864 0.77084 0.0
C359 C 0.01783 0.473 0.77808 0.0
C360 C 0.01192 0.43554 0.75931 0.0
C361 C 0.01419 0.45938 0.71594 0.0
H362 H 0.0092 0.50707 0.70729 0.0
H363 H 0.02815 0.44249 0.70772 0.0
H364 H 0.00297 0.4183 0.71375 0.0
O365 O 0.02145 0.68887 0.74656 0.0
O366 O 0.02055 0.68175 0.78432 0.0
H367 H 0.00729 0.51297 0.81009 0.0
H368 H -0.00289 0.43078 0.80267 0.0
C369 C 0.01069 0.46276 0.80211 0.0
H370 H 0.02224 0.43622 0.8122 0.0
H371 H 0.01776 0.65158 0.83166 0.0
O372 O 0.0337 0.62718 0.70023 0.0
C373 C 0.01562 0.71113 0.76581 0.0
Co374 Co 0.19503 0.73132 0.74125 0.0
Co375 Co 0.19127 0.73974 0.7953 0.0
C376 C 0.15618 0.72179 0.76435 0.0
O377 O 0.16604 0.7246 0.74584 0.0
O378 O 0.16456 0.72778 0.78364 0.0
C379 C 0.18917 0.72576 0.6918 0.0
O380 O 0.17173 0.75278 0.69596 0.0
C381 C 0.1801 0.8067 0.83881 0.0
C382 C 0.19846 0.7481 0.86317 0.0
C383 C 0.18534 0.80269 0.86176 0.0
N384 N 0.18997 0.75749 0.82733 0.0
N385 N 0.20064 0.722 0.84209 0.0
C386 C 0.16573 0.85518 0.82791 0.0
H387 H 0.15837 0.83003 0.8132 0.0
H388 H 0.17373 0.90085 0.82138 0.0
H389 H 0.15445 0.87246 0.84044 0.0
C390 C 0.21774 0.86171 0.75032 0.0
N391 N 0.20632 0.80847 0.757 0.0
N392 N 0.20505 0.80936 0.7795 0.0
C393 C 0.21588 0.8617 0.78775 0.0
C394 C 0.22392 0.89735 0.76964 0.0
C395 C 0.2233 0.87606 0.7261 0.0
H396 H 0.21114 0.86024 0.71449 0.0
H397 H 0.22674 0.9314 0.72371 0.0
H398 H 0.23666 0.84564 0.72173 0.0
O399 O 0.20676 0.64741 0.75386 0.0
O400 O 0.20512 0.65314 0.79154 0.0
H401 H 0.22333 0.82075 0.8207 0.0
H402 H 0.23473 0.90209 0.81455 0.0
C403 C 0.22103 0.87131 0.81245 0.0
H404 H 0.20884 0.89867 0.82123 0.0
H405 H 0.20993 0.68128 0.83765 0.0
O406 O 0.20163 0.72015 0.70799 0.0
C407 C 0.21006 0.62182 0.77344 0.0
Co408 Co 0.94448 0.31761 0.47709 0.0
Co409 Co 0.94472 0.31114 0.5312 0.0
C410 C 0.91151 0.37484 0.50546 0.0
O411 O 0.91902 0.36002 0.48618 0.0
O412 O 0.92004 0.35819 0.52393 0.0
C413 C 0.94252 0.38547 0.43662 0.0
O414 O 0.93976 0.43177 0.45264 0.0
C415 C 0.93179 0.25996 0.57628 0.0
C416 C 0.95525 0.30172 0.59857 0.0
C417 C 0.93816 0.26238 0.59881 0.0
N418 N 0.94464 0.29578 0.56338 0.0
N419 N 0.95848 0.32124 0.57688 0.0
C420 C 0.91341 0.22676 0.56723 0.0
H421 H 0.90872 0.25181 0.55111 0.0
H422 H 0.91633 0.1718 0.56356 0.0
H423 H 0.90135 0.22965 0.58007 0.0
C424 C 0.95442 0.16882 0.48388 0.0
N425 N 0.94799 0.23014 0.49165 0.0
N426 N 0.94815 0.22891 0.5142 0.0
C427 C 0.95494 0.16765 0.52139 0.0
C428 C 0.95878 0.12695 0.50251 0.0
C429 C 0.95872 0.15418 0.45933 0.0
H430 H 0.94731 0.17859 0.44837 0.0
H431 H 0.95923 0.09796 0.45612 0.0
H432 H 0.97328 0.1768 0.45482 0.0
O433 O 0.96635 0.37712 0.48682 0.0
O434 O 0.96685 0.37242 0.52459 0.0
H435 H 0.96918 0.20118 0.55225 0.0
H436 H 0.9731 0.11213 0.54597 0.0
C437 C 0.96211 0.15439 0.54525 0.0
H438 H 0.94942 0.14004 0.55621 0.0
H439 H 0.97033 0.35115 0.57123 0.0
O440 O 0.94528 0.32306 0.44268 0.0
C441 C 0.97389 0.39426 0.50583 0.0
Co442 Co 0.79284 0.48785 0.48783 0.0
Co443 Co 0.79745 0.49478 0.54211 0.0
C444 C 0.83232 0.4848 0.51089 0.0
O445 O 0.82168 0.48504 0.49297 0.0
O446 O 0.82464 0.48884 0.53066 0.0
C447 C 0.79684 0.42942 0.4452 0.0
O448 O 0.80705 0.38986 0.45905 0.0
C449 C 0.80659 0.56255 0.58641 0.0
C450 C 0.78936 0.49773 0.61011 0.0
C451 C 0.80111 0.55604 0.60925 0.0
N452 N 0.79814 0.51113 0.57445 0.0
N453 N 0.78816 0.47203 0.58885 0.0
C454 C 0.81994 0.61551 0.5761 0.0
H455 H 0.82764 0.59401 0.56098 0.0
H456 H 0.81112 0.66023 0.57031 0.0
H457 H 0.83094 0.63365 0.58883 0.0
C458 C 0.76905 0.61489 0.49779 0.0
N459 N 0.78103 0.56277 0.50412 0.0
N460 N 0.78245 0.56269 0.52663 0.0
C461 C 0.77097 0.61289 0.53521 0.0
C462 C 0.76254 0.64855 0.51734 0.0
C463 C 0.76337 0.63016 0.47367 0.0
H464 H 0.7502 0.59899 0.46913 0.0
H465 H 0.77561 0.61595 0.46194 0.0
H466 H 0.75957 0.68533 0.47162 0.0
O467 O 0.78144 0.40211 0.49981 0.0
O468 O 0.78473 0.40574 0.53745 0.0
H469 H 0.76411 0.56843 0.56785 0.0
H470 H 0.75104 0.64684 0.5619 0.0
C471 C 0.7654 0.61981 0.55989 0.0
H472 H 0.77679 0.65006 0.56899 0.0
H473 H 0.77992 0.42908 0.58405 0.0
O474 O 0.7883 0.48227 0.45365 0.0
C475 C 0.77915 0.37514 0.51941 0.0
Co476 Co 0.94409 0.48201 0.29411 0.0
Co477 Co 0.93848 0.4891 0.24031 0.0
C478 C 0.90422 0.47834 0.27257 0.0
O479 O 0.91509 0.47872 0.29029 0.0
O480 O 0.91165 0.48249 0.25267 0.0
C481 C 0.9377 0.48664 0.34289 0.0
O482 O 0.92098 0.51622 0.33706 0.0
C483 C 0.92734 0.55703 0.19707 0.0
C484 C 0.94514 0.49777 0.17233 0.0
C485 C 0.93251 0.55368 0.17408 0.0
N486 N 0.93684 0.50638 0.20825 0.0
N487 N 0.94714 0.47043 0.19326 0.0
C488 C 0.91349 0.60661 0.20836 0.0
H489 H 0.90564 0.58114 0.22266 0.0
H490 H 0.92201 0.65019 0.21558 0.0
H491 H 0.90256 0.62693 0.19593 0.0
C492 C 0.96743 0.6096 0.28388 0.0
N493 N 0.95547 0.55727 0.27773 0.0
N494 N 0.95357 0.55764 0.25529 0.0
C495 C 0.96463 0.60871 0.24653 0.0
C496 C 0.9734 0.6441 0.26427 0.0
C497 C 0.97351 0.62446 0.30791 0.0
H498 H 0.96124 0.61187 0.31979 0.0
H499 H 0.97787 0.67915 0.30988 0.0
H500 H 0.98637 0.59161 0.31233 0.0
O501 O 0.95509 0.39663 0.28171 0.0
O502 O 0.95157 0.40049 0.24414 0.0
H503 H 0.97098 0.56642 0.21346 0.0
H504 H 0.98314 0.64678 0.21908 0.0
C505 C 0.96925 0.61733 0.22166 0.0
H506 H 0.95709 0.6457 0.21321 0.0
H507 H 0.95617 0.42882 0.19746 0.0
O508 O 0.95057 0.47466 0.32753 0.0
C509 C 0.95731 0.36984 0.26209 0.0
Co510 Co 0.78573 0.35089 0.30099 0.0
Co511 Co 0.78906 0.34024 0.24664 0.0
C512 C 0.82233 0.39131 0.27571 0.0
O513 O 0.81279 0.3835 0.29424 0.0
O514 O 0.81475 0.37566 0.25653 0.0
C515 C 0.79661 0.3477 0.34883 0.0
O516 O 0.81367 0.32749 0.34042 0.0
C517 C 0.80162 0.27234 0.20353 0.0
C518 C 0.78134 0.32087 0.17877 0.0
C519 C 0.79586 0.27093 0.18069 0.0
N520 N 0.79062 0.31968 0.21454 0.0
N521 N 0.77879 0.34924 0.1995 0.0
C522 C 0.81782 0.23198 0.21469 0.0
H523 H 0.82651 0.26622 0.22605 0.0
H524 H 0.81134 0.19118 0.22557 0.0
H525 H 0.82773 0.20827 0.20178 0.0
C526 C 0.77233 0.20609 0.29406 0.0
N527 N 0.78061 0.26475 0.28639 0.0
N528 N 0.78118 0.2627 0.26387 0.0
C529 C 0.77263 0.20436 0.25656 0.0
C530 C 0.76733 0.16559 0.27535 0.0
C531 C 0.76741 0.19285 0.31853 0.0
H532 H 0.77969 0.21097 0.32958 0.0
H533 H 0.76463 0.13736 0.32156 0.0
H534 H 0.75393 0.22238 0.32313 0.0
O535 O 0.76674 0.41802 0.28864 0.0
O536 O 0.76907 0.41157 0.25088 0.0
H537 H 0.75189 0.16021 0.23233 0.0
H538 H 0.7768 0.16856 0.22238 0.0
C539 C 0.76518 0.19369 0.2327 0.0
H540 H 0.76116 0.2435 0.22485 0.0
H541 H 0.7685 0.38729 0.20352 0.0
O542 O 0.78201 0.35473 0.33527 0.0
C543 C 0.76139 0.43709 0.26878 0.0
Co544 Co 0.54423 0.23112 0.54496 0.0
Co545 Co 0.54824 0.23954 0.49075 0.0
C546 C 0.58342 0.23421 0.52179 0.0
O547 O 0.57298 0.23377 0.53984 0.0
O548 O 0.57548 0.23624 0.50215 0.0
C549 C 0.55001 0.16854 0.58611 0.0
O550 O 0.56004 0.13275 0.57102 0.0
C551 C 0.55706 0.31704 0.44873 0.0
C552 C 0.54169 0.25499 0.42263 0.0
C553 C 0.55214 0.31562 0.42566 0.0
N554 N 0.54934 0.26099 0.45883 0.0
N555 N 0.5405 0.22348 0.44303 0.0
C556 C 0.56929 0.36928 0.46111 0.0
H557 H 0.55954 0.40221 0.47172 0.0
H558 H 0.57779 0.40177 0.44901 0.0
H559 H 0.57966 0.34298 0.47288 0.0
C560 C 0.51898 0.35583 0.53567 0.0
N561 N 0.53136 0.3049 0.52923 0.0
N562 N 0.53233 0.30409 0.5067 0.0
C563 C 0.51998 0.3518 0.49824 0.0
C564 C 0.51154 0.38737 0.51612 0.0
C565 C 0.51423 0.37265 0.55995 0.0
H566 H 0.52727 0.3623 0.57095 0.0
H567 H 0.50955 0.42711 0.56167 0.0
H568 H 0.50195 0.33911 0.56578 0.0
O569 O 0.53384 0.14478 0.53216 0.0
O570 O 0.5364 0.14872 0.49439 0.0
H571 H 0.5137 0.30445 0.46587 0.0
H572 H 0.49865 0.3783 0.47213 0.0
C573 C 0.51374 0.35618 0.47374 0.0
H574 H 0.52406 0.38997 0.46438 0.0
H575 H 0.53303 0.17763 0.44632 0.0
O576 O 0.54025 0.22077 0.57911 0.0
C577 C 0.53151 0.11753 0.51261 0.0
Co578 Co 0.69598 0.07061 0.55378 0.0
Co579 Co 0.69561 0.0634 0.49959 0.0
C580 C 0.663 0.12905 0.52605 0.0
O581 O 0.67086 0.11521 0.54522 0.0
O582 O 0.67103 0.11079 0.50741 0.0
C583 C 0.69864 0.13219 0.5964 0.0
O584 O 0.69965 0.18419 0.58216 0.0
C585 C 0.68228 0.00801 0.45529 0.0
C586 C 0.70636 0.04221 0.43245 0.0
C587 C 0.6891 0.00378 0.43292 0.0
N588 N 0.69522 0.04569 0.46747 0.0
N589 N 0.70937 0.06698 0.4536 0.0
C590 C 0.66354 0.97916 0.46497 0.0
H591 H 0.65622 0.01851 0.47578 0.0
H592 H 0.66705 0.9348 0.47614 0.0
H593 H 0.65328 0.96257 0.45124 0.0
C594 C 0.70545 0.92262 0.54724 0.0
N595 N 0.69886 0.98335 0.53923 0.0
N596 N 0.69919 0.98169 0.5167 0.0
C597 C 0.70638 0.92071 0.50975 0.0
C598 C 0.71035 0.88082 0.52876 0.0
C599 C 0.70935 0.90887 0.57194 0.0
H600 H 0.69627 0.92448 0.58217 0.0
H601 H 0.7127 0.85374 0.57494 0.0
H602 H 0.72205 0.94067 0.57766 0.0
O603 O 0.71806 0.12891 0.54363 0.0
O604 O 0.71784 0.1248 0.5058 0.0
H605 H 0.72101 0.9539 0.47913 0.0
H606 H 0.72458 0.86454 0.48531 0.0
C607 C 0.71375 0.90727 0.48599 0.0
H608 H 0.7011 0.89359 0.47492 0.0
H609 H 0.72143 0.09672 0.45874 0.0
O610 O 0.69689 0.07169 0.58815 0.0
C611 C 0.72526 0.1462 0.52444 0.0
Co612 Co 0.53824 0.06667 0.72741 0.0
Co613 Co 0.54011 0.06003 0.78183 0.0
C614 C 0.5716 0.12808 0.75425 0.0
O615 O 0.5631 0.11451 0.73542 0.0
O616 O 0.56429 0.10861 0.77316 0.0
C617 C 0.55181 0.07141 0.68083 0.0
O618 O 0.56896 0.06253 0.69094 0.0
C619 C 0.55291 0.003 0.82663 0.0
C620 C 0.53151 0.05309 0.84976 0.0
C621 C 0.54707 0.00678 0.84936 0.0
N622 N 0.54116 0.0447 0.81422 0.0
N623 N 0.52861 0.07511 0.82827 0.0
C624 C 0.57001 0.96359 0.81701 0.0
H625 H 0.57188 0.97493 0.79856 0.0
H626 H 0.56773 0.90766 0.81931 0.0
H627 H 0.5837 0.9776 0.82639 0.0
C628 C 0.53067 0.91725 0.73464 0.0
N629 N 0.53651 0.97925 0.74236 0.0
N630 N 0.53667 0.97787 0.76491 0.0
C631 C 0.53039 0.916 0.77214 0.0
C632 C 0.52686 0.87494 0.75329 0.0
C633 C 0.52632 0.90226 0.71012 0.0
H634 H 0.53807 0.92466 0.69918 0.0
H635 H 0.52523 0.84606 0.70708 0.0
H636 H 0.51208 0.92687 0.70539 0.0
O637 O 0.516 0.12336 0.73799 0.0
O638 O 0.51739 0.11957 0.77584 0.0
H639 H 0.51093 0.86368 0.79604 0.0
H640 H 0.53526 0.8818 0.80644 0.0
C641 C 0.52301 0.90225 0.79589 0.0
H642 H 0.51721 0.94996 0.80369 0.0
H643 H 0.51775 0.10991 0.82313 0.0
O644 O 0.53617 0.06793 0.69293 0.0
C645 C 0.50924 0.13999 0.7575 0.0
Co646 Co 0.69022 0.24713 0.73733 0.0
Co647 Co 0.68488 0.24992 0.79121 0.0
C648 C 0.6505 0.24093 0.75898 0.0
O649 O 0.66133 0.24316 0.74125 0.0
O650 O 0.65797 0.2436 0.77889 0.0
C651 C 0.69017 0.18978 0.69396 0.0
O652 O 0.68072 0.14409 0.70637 0.0
C653 C 0.67422 0.32016 0.83382 0.0
C654 C 0.69279 0.26521 0.8589 0.0
C655 C 0.68037 0.32155 0.85652 0.0
N656 N 0.6833 0.26743 0.82328 0.0
N657 N 0.69395 0.23372 0.8385 0.0
C658 C 0.65973 0.36649 0.82213 0.0
H659 H 0.6678 0.40225 0.81068 0.0
H660 H 0.6508 0.39599 0.83466 0.0
H661 H 0.64969 0.33546 0.81127 0.0
C662 C 0.71369 0.37338 0.74838 0.0
N663 N 0.70156 0.32116 0.75417 0.0
N664 N 0.70002 0.31914 0.77662 0.0
C665 C 0.71159 0.3682 0.78574 0.0
C666 C 0.72028 0.40497 0.76829 0.0
C667 C 0.71926 0.39061 0.72436 0.0
H668 H 0.7063 0.38356 0.71296 0.0
H669 H 0.72485 0.44414 0.72309 0.0
H670 H 0.73104 0.3548 0.7186 0.0
O671 O 0.70162 0.1612 0.74909 0.0
O672 O 0.69805 0.16162 0.78675 0.0
H673 H 0.71841 0.3209 0.81786 0.0
H674 H 0.73116 0.40043 0.81306 0.0
C675 C 0.71694 0.37299 0.8105 0.0
H676 H 0.70526 0.40163 0.81966 0.0
H677 H 0.70286 0.19145 0.83469 0.0
O678 O 0.69607 0.24485 0.7037 0.0
C679 C 0.70383 0.13276 0.76845 0.0
Co680 Co 0.44778 0.81601 0.47899 0.0
Co681 Co 0.44749 0.80767 0.5334 0.0
C682 C 0.41462 0.87294 0.50721 0.0
O683 O 0.42255 0.86013 0.48799 0.0
O684 O 0.42272 0.85445 0.52578 0.0
C685 C 0.43422 0.83 0.4324 0.0
O686 O 0.41674 0.8258 0.44212 0.0
C687 C 0.43461 0.74921 0.57757 0.0
C688 C 0.45893 0.78195 0.60029 0.0
C689 C 0.44182 0.74275 0.59976 0.0
N690 N 0.44725 0.78859 0.56555 0.0
N691 N 0.46153 0.80905 0.57938 0.0
C692 C 0.41581 0.7208 0.56793 0.0
H693 H 0.41924 0.67714 0.5564 0.0
H694 H 0.40568 0.70334 0.58167 0.0
H695 H 0.40836 0.76072 0.55748 0.0
C696 C 0.45685 0.66662 0.48546 0.0
N697 N 0.45081 0.72821 0.49343 0.0
N698 N 0.45116 0.72655 0.51596 0.0
C699 C 0.4579 0.66502 0.52293 0.0
C700 C 0.46124 0.62428 0.50397 0.0
C701 C 0.46068 0.65193 0.46082 0.0
H702 H 0.44895 0.67577 0.45018 0.0
H703 H 0.4613 0.59571 0.45762 0.0
H704 H 0.47505 0.67517 0.45586 0.0
O705 O 0.46968 0.87473 0.48931 0.0
O706 O 0.46967 0.8694 0.52717 0.0
H707 H 0.47272 0.69852 0.55343 0.0
H708 H 0.47698 0.61012 0.54673 0.0
C709 C 0.46572 0.65154 0.5465 0.0
H710 H 0.45338 0.63575 0.55772 0.0
H711 H 0.47346 0.83953 0.57435 0.0
O712 O 0.4496 0.81983 0.44453 0.0
C713 C 0.477 0.89125 0.50855 0.0
Co714 Co 0.29726 0.00815 0.48706 0.0
Co715 Co 0.30098 0.0137 0.54121 0.0
C716 C 0.33601 0.9909 0.51086 0.0
O717 O 0.32584 0.99442 0.49261 0.0
O718 O 0.32801 -0.00201 0.53035 0.0
C719 C 0.29708 0.94417 0.44501 0.0
O720 O 0.30438 0.89815 0.45908 0.0
C721 C 0.31131 0.08129 0.58487 0.0
C722 C 0.2933 0.02128 0.60921 0.0
C723 C 0.3058 0.07755 0.60775 0.0
N724 N 0.30204 0.03066 0.57342 0.0
N725 N 0.2916 0.99429 0.58817 0.0
C726 C 0.32564 0.13003 0.57403 0.0
H727 H 0.33541 0.10153 0.56211 0.0
H728 H 0.31748 0.16859 0.56376 0.0
H729 H 0.33476 0.15663 0.58708 0.0
C730 C 0.27633 0.14135 0.49633 0.0
N731 N 0.28741 0.08719 0.50294 0.0
N732 N 0.28832 0.08661 0.52546 0.0
C733 C 0.27738 0.13862 0.53378 0.0
C734 C 0.26981 0.17589 0.51575 0.0
C735 C 0.27118 0.15668 0.47205 0.0
H736 H 0.28417 0.1467 0.46093 0.0
H737 H 0.26618 0.21072 0.47008 0.0
H738 H 0.25909 0.12179 0.46655 0.0
O739 O 0.28276 0.92803 0.4988 0.0
O740 O 0.28549 0.93008 0.53649 0.0
H741 H 0.26921 0.09348 0.56593 0.0
H742 H 0.25674 0.17282 0.55976 0.0
C743 C 0.27102 0.14499 0.55821 0.0
H744 H 0.2823 0.17423 0.5678 0.0
H745 H 0.28275 0.95242 0.58375 0.0
O746 O 0.29276 0.00344 0.45304 0.0
C747 C 0.27916 0.90224 0.51828 0.0
Co748 Co 0.44034 0.99149 0.29655 0.0
Co749 Co 0.43703 -0.00091 0.24222 0.0
C750 C 0.40141 0.9905 0.27222 0.0
O751 O 0.41166 0.99082 0.29044 0.0
O752 O 0.40952 0.99377 0.25266 0.0
C753 C 0.43471 0.93061 0.33825 0.0
O754 O 0.42395 0.89501 0.32378 0.0
C755 C 0.42884 0.06527 0.19754 0.0
C756 C 0.44907 0.00677 0.17523 0.0
C757 C 0.4361 0.06206 0.17524 0.0
N758 N 0.43757 0.01548 0.20995 0.0
N759 N 0.44931 0.97988 0.19634 0.0
C760 C 0.41379 0.1139 0.20711 0.0
H761 H 0.40576 0.08958 0.22148 0.0
H762 H 0.42132 0.16026 0.21386 0.0
H763 H 0.40309 0.12975 0.19373 0.0
C764 C 0.4649 0.11751 0.28761 0.0
N765 N 0.45291 0.06593 0.28084 0.0
N766 N 0.45181 0.06657 0.25832 0.0
C767 C 0.46341 0.11704 0.25016 0.0
C768 C 0.47179 0.15164 0.2683 0.0
C769 C 0.46995 0.13226 0.31196 0.0
H770 H 0.45691 0.12223 0.32299 0.0
H771 H 0.47501 0.18618 0.31407 0.0
H772 H 0.48201 0.09721 0.31741 0.0
O773 O 0.45154 0.90557 0.28481 0.0
O774 O 0.4493 0.90957 0.24711 0.0
H775 H 0.48264 0.15619 0.22347 0.0
H776 H 0.45677 0.15368 0.21657 0.0
C777 C 0.46881 0.12607 0.22551 0.0
H778 H 0.47112 0.0753 0.21744 0.0
H779 H 0.45816 0.93901 0.20169 0.0
O780 O 0.44419 0.98276 0.33071 0.0
C781 C 0.45422 0.87857 0.2653 0.0
Co782 Co 0.29014 0.81811 0.30481 0.0
Co783 Co 0.28978 0.81169 0.25062 0.0
C784 C 0.32261 0.87772 0.27653 0.0
O785 O 0.31504 0.86334 0.29581 0.0
O786 O 0.31436 0.8595 0.25803 0.0
C787 C 0.28956 0.8801 0.34757 0.0
O788 O 0.28911 0.93239 0.33339 0.0
C789 C 0.30244 0.75512 0.20612 0.0
C790 C 0.27944 0.79668 0.1832 0.0
C791 C 0.29601 0.75468 0.18358 0.0
N792 N 0.29007 0.79478 0.21843 0.0
N793 N 0.27653 0.82025 0.20453 0.0
C794 C 0.32039 0.72053 0.21575 0.0
H795 H 0.32575 0.74872 0.23101 0.0
H796 H 0.31663 0.66748 0.22107 0.0
H797 H 0.33226 0.71759 0.20268 0.0
C798 C 0.28091 0.66952 0.29807 0.0
N799 N 0.28714 0.73081 0.29012 0.0
N800 N 0.28655 0.72959 0.2676 0.0
C801 C 0.27952 0.66842 0.26059 0.0
C802 C 0.27613 0.62773 0.27956 0.0
C803 C 0.27701 0.65509 0.32272 0.0
H804 H 0.28904 0.67716 0.33332 0.0
H805 H 0.27577 0.59898 0.32586 0.0
H806 H 0.26294 0.68031 0.32779 0.0
O807 O 0.26793 0.87649 0.2953 0.0
O808 O 0.2675 0.87277 0.25745 0.0
H809 H 0.26497 0.70339 0.23004 0.0
H810 H 0.25963 0.61588 0.23714 0.0
C811 C 0.2714 0.65558 0.2371 0.0
H812 H 0.28339 0.63739 0.22574 0.0
H813 H 0.26501 0.85235 0.20971 0.0
O814 O 0.28986 0.81942 0.33919 0.0
C815 C 0.2604 0.894 0.2763 0.0
Co816 Co 0.54045 0.76852 0.05016 0.0
Co817 Co 0.54203 0.7759 0.99558 0.0
C818 C 0.57367 0.70922 0.02252 0.0
O819 O 0.5652 0.72395 0.04121 0.0
O820 O 0.56642 0.72724 1.00343 0.0
C821 C 0.5432 0.69965 0.09071 0.0
O822 O 0.54636 0.6534 0.07479 0.0
C823 C 0.55454 0.83019 0.95019 0.0
C824 C 0.52997 0.79309 0.92859 0.0
C825 C 0.54707 0.83226 0.92802 0.0
N826 N 0.5421 0.79283 0.96321 0.0
N827 N 0.52768 0.76988 0.95002 0.0
C828 C 0.57356 0.86005 0.95873 0.0
H829 H 0.57045 0.90401 0.97022 0.0
H830 H 0.58308 0.87742 0.9444 0.0
H831 H 0.58155 0.82089 0.96898 0.0
C832 C 0.53218 0.91736 0.04334 0.0
N833 N 0.5384 0.85592 0.03555 0.0
N834 N 0.53872 0.8576 0.01299 0.0
C835 C 0.53228 0.91929 1.00583 0.0
C836 C 0.52831 0.95962 0.02471 0.0
C837 C 0.52735 0.93128 0.06781 0.0
H838 H 0.53962 0.91279 0.0788 0.0
H839 H 0.52474 0.98692 0.07079 0.0
H840 H 0.51387 0.90202 0.07259 0.0
O841 O 0.51829 0.71241 0.03976 0.0
O842 O 0.51948 0.71571 1.00191 0.0
H843 H 0.51776 0.88713 0.97498 0.0
H844 H 0.51457 0.97654 0.98117 0.0
C845 C 0.5252 0.93323 0.98198 0.0
H846 H 0.53798 0.94655 0.9711 0.0
H847 H 0.5159 0.73997 0.9558 0.0
O848 O 0.5397 0.76167 0.08465 0.0
C849 C 0.51145 0.69555 0.02036 0.0
Co850 Co 0.69057 0.59803 0.04956 0.0
Co851 Co 0.68836 0.59233 0.99521 0.0
C852 C 0.65231 0.5981 0.02459 0.0
O853 O 0.66185 0.59684 0.04331 0.0
O854 O 0.66115 0.59746 1.00551 0.0
C855 C 0.68326 0.64809 0.09323 0.0
O856 O 0.67047 0.68151 0.08051 0.0
C857 C 0.67878 0.52194 0.95213 0.0
C858 C 0.69642 0.58132 0.92732 0.0
C859 C 0.68405 0.52463 0.92914 0.0
N860 N 0.68792 0.57366 0.96318 0.0
N861 N 0.69819 0.6096 0.94817 0.0
C862 C 0.66525 0.47176 0.96363 0.0
H863 H 0.65876 0.49448 0.97924 0.0
H864 H 0.67377 0.42578 0.96895 0.0
H865 H 0.65326 0.45548 0.95186 0.0
C866 C 0.71529 0.47242 0.04048 0.0
N867 N 0.70349 0.52454 0.03375 0.0
N868 N 0.70289 0.5252 0.01122 0.0
C869 C 0.71468 0.47546 1.003 0.0
C870 C 0.72259 0.43963 0.02111 0.0
C871 C 0.71969 0.45569 0.06485 0.0
H872 H 0.70633 0.46457 0.07549 0.0
H873 H 0.72477 0.40168 0.06664 0.0
H874 H 0.73153 0.49046 0.07109 0.0
O875 O 0.70157 0.68523 0.03812 0.0
O876 O 0.70062 0.68128 1.00024 0.0
H877 H 0.73503 0.44111 0.97674 0.0
H878 H 0.70933 0.43854 0.96911 0.0
C879 C 0.72068 0.4684 0.97846 0.0
H880 H 0.72224 0.51978 0.97057 0.0
H881 H 0.70685 0.65218 0.95227 0.0
O882 O 0.69445 0.6034 0.08378 0.0
C883 C 0.70484 0.71229 0.0187 0.0
Co884 Co 0.53684 0.57527 0.23042 0.0
Co885 Co 0.53821 0.56781 0.28471 0.0
C886 C 0.57035 0.63345 0.25767 0.0
O887 O 0.56204 0.61993 0.23872 0.0
O888 O 0.56274 0.61504 0.27653 0.0
C889 C 0.54913 0.59234 0.18343 0.0
O890 O 0.56699 0.58809 0.19216 0.0
C891 C 0.55111 0.51334 0.32959 0.0
C892 C 0.52658 0.54865 0.35158 0.0
C893 C 0.54383 0.51006 0.35182 0.0
N894 N 0.53849 0.55092 0.31691 0.0
N895 N 0.52408 0.57287 0.33031 0.0
C896 C 0.56988 0.4829 0.32052 0.0
H897 H 0.57583 0.51541 0.30656 0.0
H898 H 0.56687 0.43124 0.31333 0.0
H899 H 0.58104 0.47775 0.33431 0.0
C900 C 0.52753 0.42655 0.23735 0.0
N901 N 0.53408 0.48771 0.24508 0.0
N902 N 0.53441 0.48603 0.26762 0.0
C903 C 0.52777 0.42459 0.27485 0.0
C904 C 0.52357 0.38433 0.25599 0.0
C905 C 0.52262 0.41258 0.21291 0.0
H906 H 0.53402 0.43584 0.20168 0.0
H907 H 0.52156 0.35647 0.20966 0.0
H908 H 0.50819 0.43687 0.2088 0.0
O909 O 0.51517 0.63371 0.24099 0.0
O910 O 0.5159 0.62915 0.27878 0.0
H911 H 0.50997 0.36838 0.29965 0.0
H912 H 0.53365 0.39671 0.3096 0.0
C913 C 0.52085 0.41091 0.2988 0.0
H914 H 0.51368 0.45737 0.30589 0.0
H915 H 0.51214 0.60247 0.32474 0.0
O916 O 0.53423 0.58022 0.19615 0.0
C917 C 0.50821 0.65062 0.26032 0.0
Co918 Co 0.68675 0.76984 0.2336 0.0
Co919 Co 0.68428 0.7709 0.28788 0.0
C920 C 0.64852 0.75333 0.25856 0.0
O921 O 0.65821 0.75808 0.24 0.0
O922 O 0.65704 0.75764 0.27782 0.0
C923 C 0.68161 0.71833 0.18988 0.0
O924 O 0.67042 0.67837 0.20251 0.0
C925 C 0.67522 0.8325 0.33291 0.0
C926 C 0.6933 0.76708 0.35558 0.0
C927 C 0.68091 0.82386 0.35555 0.0
N928 N 0.6841 0.78366 0.32024 0.0
N929 N 0.69461 0.74412 0.33399 0.0
C930 C 0.66111 0.88463 0.3235 0.0
H931 H 0.65392 0.86465 0.30783 0.0
H932 H 0.66921 0.9321 0.31886 0.0
H933 H 0.64973 0.8981 0.33643 0.0
C934 C 0.70802 0.90161 0.2435 0.0
N935 N 0.6972 0.8468 0.25 0.0
N936 N 0.69672 0.8447 0.27253 0.0
C937 C 0.7077 0.89641 0.28098 0.0
C938 C 0.71486 0.9349 0.263 0.0
C939 C 0.71246 0.91911 0.21919 0.0
H940 H 0.69913 0.91026 0.20852 0.0
H941 H 0.71743 0.97327 0.21755 0.0
H942 H 0.72433 0.8846 0.21285 0.0
O943 O 0.70095 0.68757 0.24396 0.0
O944 O 0.69929 0.68742 0.28174 0.0
H945 H 0.72885 0.92872 0.30664 0.0
H946 H 0.70347 0.93083 0.31539 0.0
C947 C 0.71446 0.90152 0.30532 0.0
H948 H 0.71626 0.84963 0.31276 0.0
H949 H 0.70318 0.70263 0.32853 0.0
O950 O 0.69071 0.76824 0.1994 0.0
C951 C 0.70499 0.66041 0.26312 0.0
Co952 Co 0.44597 0.35247 0.98264 0.0
Co953 Co 0.44304 0.34247 0.03708 0.0
C954 C 0.40738 0.35069 1.0066 0.0
O955 O 0.41703 0.35215 0.98792 0.0
O956 O 0.41607 0.34696 0.02576 0.0
C957 C 0.43966 0.33681 0.9338 0.0
O958 O 0.42408 0.30196 0.94058 0.0
C959 C 0.43394 0.26347 0.07861 0.0
C960 C 0.44989 0.32234 0.10509 0.0
C961 C 0.43892 0.26295 0.10169 0.0
N962 N 0.44212 0.31934 0.06888 0.0
N963 N 0.45136 0.35483 0.08488 0.0
C964 C 0.4213 0.21319 0.06588 0.0
H965 H 0.4126 0.24013 0.05264 0.0
H966 H 0.43083 0.17563 0.05682 0.0
H967 H 0.41119 0.18543 0.07762 0.0
C968 C 0.47063 0.22662 0.99125 0.0
N969 N 0.45878 0.27841 0.99822 0.0
N970 N 0.45831 0.27849 0.02075 0.0
C971 C 0.47032 0.22912 0.02871 0.0
C972 C 0.47806 0.19372 0.01047 0.0
C973 C 0.47502 0.21053 0.96683 0.0
H974 H 0.48481 0.25112 0.95979 0.0
H975 H 0.46108 0.21108 0.95682 0.0
H976 H 0.48244 0.15988 0.96509 0.0
O977 O 0.45619 0.43903 0.99544 0.0
O978 O 0.45467 0.43291 0.03331 0.0
H979 H 0.47729 0.27202 0.06159 0.0
H980 H 0.49134 0.19656 0.05438 0.0
C981 C 0.47656 0.2212 0.05313 0.0
H982 H 0.46588 0.18791 0.06221 0.0
H983 H 0.45919 0.40014 0.08187 0.0
O984 O 0.45163 0.35955 0.94878 0.0
C985 C 0.45886 0.46534 0.0151 0.0
Co986 Co 0.29007 0.48987 0.98802 0.0
Co987 Co 0.2949 0.49835 0.04233 0.0
C988 C 0.32752 0.452 0.01218 0.0
O989 O 0.31731 0.46015 0.99422 0.0
O990 O 0.32076 0.46685 0.0318 0.0
C991 C 0.30174 0.47991 0.94117 0.0
O992 O 0.31883 0.49773 0.95005 0.0
C993 C 0.30718 0.56581 0.0855 0.0
C994 C 0.28759 0.51397 0.11027 0.0
C995 C 0.30147 0.56607 0.10837 0.0
N996 N 0.29668 0.51721 0.07447 0.0
N997 N 0.28532 0.48555 0.08951 0.0
C998 C 0.32275 0.60882 0.07427 0.0
H999 H 0.33189 0.57601 0.0629 0.0
H1000 H 0.31567 0.64836 0.06336 0.0
H1001 H 0.33236 0.6342 0.08712 0.0
C1002 C 0.27402 0.63099 0.9965 0.0
N1003 N 0.28385 0.57419 1.00329 0.0
N1004 N 0.28525 0.57511 0.02579 0.0
C1005 C 0.2758 0.63076 0.03392 0.0
C1006 C 0.26895 0.66906 0.01575 0.0
C1007 C 0.26764 0.64403 0.97247 0.0
H1008 H 0.27909 0.62517 0.96042 0.0
H1009 H 0.26484 0.69962 0.96966 0.0
H1010 H 0.25375 0.61529 0.96912 0.0
O1011 O 0.27266 0.41868 1.00053 0.0
O1012 O 0.27626 0.42293 0.03819 0.0
H1013 H 0.26568 0.58732 0.0656 0.0
H1014 H 0.25548 0.67029 0.05954 0.0
C1015 C 0.26902 0.6383 0.05819 0.0
H1016 H 0.28075 0.66357 0.06825 0.0
H1017 H 0.27542 0.44635 0.08545 0.0
O1018 O 0.28637 0.48311 0.95378 0.0
C1019 C 0.26856 0.39666 0.02043 0.0
Co1020 Co 0.44438 0.48378 0.79628 0.0
Co1021 Co 0.43908 0.49116 0.74206 0.0
C1022 C 0.40464 0.48555 0.77399 0.0
O1023 O 0.41554 0.48468 0.79167 0.0
O1024 O 0.41206 0.48885 0.75407 0.0
C1025 C 0.44098 0.42057 0.8377 0.0
O1026 O 0.43077 0.38408 0.82297 0.0
C1027 C 0.42983 0.56081 0.69826 0.0
C1028 C 0.44537 0.49321 0.67385 0.0
C1029 C 0.43449 0.55347 0.67521 0.0
N1030 N 0.4379 0.50795 0.70983 0.0
N1031 N 0.44687 0.46723 0.69504 0.0
C1032 C 0.41751 0.61578 0.70914 0.0
H1033 H 0.40971 0.59503 0.7243 0.0
H1034 H 0.42717 0.65832 0.71499 0.0
H1035 H 0.40662 0.63671 0.69677 0.0
C1036 C 0.46937 0.60765 0.78585 0.0
N1037 N 0.45679 0.55699 0.77978 0.0
N1038 N 0.4552 0.55646 0.75729 0.0
C1039 C 0.46723 0.60457 0.74844 0.0
C1040 C 0.47625 0.63949 0.7661 0.0
C1041 C 0.4748 0.62397 0.80998 0.0
H1042 H 0.46197 0.61449 0.82138 0.0
H1043 H 0.47982 0.67808 0.8116 0.0
H1044 H 0.48701 0.58948 0.81539 0.0
O1045 O 0.45464 0.39684 0.78376 0.0
O1046 O 0.4507 0.40033 0.74618 0.0
H1047 H 0.47271 0.55868 0.71565 0.0
H1048 H 0.48735 0.63375 0.72136 0.0
C1049 C 0.47252 0.61022 0.72365 0.0
H1050 H 0.46159 0.64314 0.7148 0.0
H1051 H 0.45457 0.42273 0.6995 0.0
O1052 O 0.44925 0.47546 0.83041 0.0
C1053 C 0.45617 0.36925 0.76417 0.0
Co1054 Co 0.2923 0.31545 0.80734 0.0
Co1055 Co 0.29322 0.309 0.75302 0.0
C1056 C 0.32576 0.37347 0.77988 0.0
O1057 O 0.31758 0.35995 0.7989 0.0
O1058 O 0.3179 0.35522 0.76112 0.0
C1059 C 0.30478 0.33238 0.85383 0.0
O1060 O 0.32234 0.32494 0.84454 0.0
C1061 C 0.30581 0.25611 0.70776 0.0
C1062 C 0.2821 0.29773 0.6858 0.0
C1063 C 0.29898 0.25728 0.68535 0.0
N1064 N 0.29335 0.29344 0.72075 0.0
N1065 N 0.2794 0.31891 0.70741 0.0
C1066 C 0.32414 0.22224 0.71666 0.0
H1067 H 0.32972 0.25016 0.73187 0.0
H1068 H 0.32072 0.16882 0.72191 0.0
H1069 H 0.33573 0.22045 0.70323 0.0
C1070 C 0.28172 0.16844 0.80022 0.0
N1071 N 0.28898 0.22856 0.79249 0.0
N1072 N 0.28906 0.2272 0.76994 0.0
C1073 C 0.28152 0.16705 0.76269 0.0
C1074 C 0.27684 0.12739 0.78155 0.0
C1075 C 0.27718 0.15485 0.82478 0.0
H1076 H 0.29002 0.17009 0.83545 0.0
H1077 H 0.27359 0.09985 0.82767 0.0
H1078 H 0.26441 0.18706 0.83007 0.0
O1079 O 0.27089 0.37516 0.79706 0.0
O1080 O 0.27127 0.37136 0.75926 0.0
H1081 H 0.26748 0.20199 0.73192 0.0
H1082 H 0.2634 0.11271 0.73774 0.0
C1083 C 0.27444 0.15473 0.73874 0.0
H1084 H 0.28715 0.14061 0.72779 0.0
H1085 H 0.26774 0.34954 0.71316 0.0
O1086 O 0.28961 0.31986 0.84162 0.0
C1087 C 0.26387 0.39296 0.77786 0.0
C1088 C 0.03842 0.21237 0.15346 0.0
C1089 C 0.03904 0.14356 0.16117 0.0
C1090 C 0.03817 0.22875 0.1301 0.0
C1091 C 0.03866 0.17711 0.11334 0.0
H1092 H 0.03828 0.25441 0.16558 0.0
H1093 H 0.03799 0.28241 0.12517 0.0
S1094 S 0.03902 0.98861 0.12423 0.0
N1095 N 0.03918 0.02336 0.14993 0.0
N1096 N 0.03877 0.05366 0.10616 0.0
C1097 C 0.03882 0.10796 0.12077 0.0
C1098 C 0.03899 0.09133 0.14459 0.0
C1099 C 0.16534 0.15607 0.13664 0.0
C1100 C 0.1821 0.12559 0.1265 0.0
C1101 C 0.16657 0.19237 0.15725 0.0
C1102 C 0.1846 0.1996 0.16908 0.0
H1103 H 0.15098 0.1528 0.12847 0.0
H1104 H 0.15305 0.21407 0.1641 0.0
S1105 S 0.2331 0.13007 0.1501 0.0
N1106 N 0.21754 0.10593 0.12989 0.0
N1107 N 0.21979 0.17304 0.16899 0.0
C1108 C 0.20157 0.16933 0.15927 0.0
C1109 C 0.20034 0.13274 0.13796 0.0
C1110 C 0.93577 0.00186 0.8828 0.0
C1111 C 0.93847 0.95032 0.86629 0.0
C1112 C 0.93573 0.98616 0.90624 0.0
C1113 C 0.93857 0.91834 0.91424 0.0
H1114 H 0.93318 0.05453 0.87761 0.0
H1115 H 0.93325 0.02784 0.91816 0.0
S1116 S 0.94791 0.76524 0.878 0.0
N1117 N 0.94518 0.8289 0.85965 0.0
N1118 N 0.94518 0.79986 0.90354 0.0
C1119 C 0.94188 0.86665 0.89791 0.0
C1120 C 0.94181 0.88251 0.87403 0.0
C1121 C 0.78355 0.90459 0.88393 0.0
C1122 C 0.80129 0.88529 0.87294 0.0
C1123 C 0.78365 0.94289 0.90442 0.0
C1124 C 0.80149 0.96433 0.91473 0.0
H1125 H 0.76942 0.89021 0.87664 0.0
H1126 H 0.76959 0.95532 0.91229 0.0
S1127 S 0.85214 0.92834 0.89278 0.0
N1128 N 0.83728 0.89082 0.87425 0.0
N1129 N 0.83744 0.96381 0.91192 0.0
C1130 C 0.81932 0.94591 0.90376 0.0
C1131 C 0.81923 0.90617 0.88317 0.0
C1132 C 0.04406 0.7357 0.63736 0.0
C1133 C 0.0402 0.70073 0.61682 0.0
C1134 C 0.0429 0.7019 0.65854 0.0
C1135 C 0.03854 0.63117 0.65996 0.0
H1136 H 0.04822 0.78947 0.63703 0.0
H1137 H 0.04624 0.73082 0.67388 0.0
S1138 S 0.02699 0.51619 0.6113 0.0
N1139 N 0.03115 0.59172 0.59935 0.0
N1140 N 0.02989 0.52779 0.63904 0.0
C1141 C 0.03447 0.59576 0.63961 0.0
C1142 C 0.03504 0.63063 0.61808 0.0
C1143 C 0.18774 0.68394 0.62839 0.0
C1144 C 0.19435 0.6153 0.62762 0.0
C1145 C 0.18654 0.72006 0.64915 0.0
C1146 C 0.1926 0.68976 0.66978 0.0
H1147 H 0.18275 0.70911 0.61293 0.0
H1148 H 0.18064 0.77185 0.64909 0.0
S1149 S 0.21183 0.5122 0.67678 0.0
N1150 N 0.20721 0.51869 0.64916 0.0
N1151 N 0.20592 0.58737 0.68802 0.0
C1152 C 0.19989 0.62189 0.66909 0.0
C1153 C 0.2005 0.58443 0.64806 0.0
C1154 C 0.92993 0.49293 0.38451 0.0
C1155 C 0.94029 0.46091 0.36664 0.0
C1156 C 0.93078 0.46753 0.40687 0.0
C1157 C 0.94168 0.40799 0.41236 0.0
H1158 H 0.92105 0.53823 0.38123 0.0
H1159 H 0.92257 0.49465 0.41997 0.0
S1160 S 0.97126 0.30381 0.37178 0.0
N1161 N 0.96187 0.36599 0.35591 0.0
N1162 N 0.9631 0.31753 0.39799 0.0
C1163 C 0.95203 0.37494 0.39467 0.0
C1164 C 0.95147 0.40166 0.37184 0.0
C1165 C 0.80986 0.34405 0.38869 0.0
C1166 C 0.79528 0.36751 0.37344 0.0
C1167 C 0.8101 0.36479 0.41161 0.0
C1168 C 0.79594 0.41091 0.42045 0.0
H1169 H 0.82133 0.30923 0.38289 0.0
H1170 H 0.82174 0.34474 0.42245 0.0
S1171 S 0.7545 0.48827 0.38779 0.0
N1172 N 0.76609 0.43964 0.36892 0.0
N1173 N 0.76674 0.4793 0.41202 0.0
C1174 C 0.78122 0.43509 0.40546 0.0
C1175 C 0.78081 0.41312 0.38202 0.0
C1176 C 0.53431 0.12775 0.64747 0.0
C1177 C 0.55111 0.0939 0.65642 0.0
C1178 C 0.53411 0.15404 0.62499 0.0
C1179 C 0.55059 0.14655 0.61049 0.0
H1180 H 0.5213 0.135 0.658 0.0
H1181 H 0.52084 0.17912 0.61879 0.0
S1182 S 0.59836 0.06343 0.62556 0.0
N1183 N 0.58474 0.05563 0.64879 0.0
N1184 N 0.58429 0.10404 0.60691 0.0
C1185 C 0.56743 0.11294 0.61925 0.0
C1186 C 0.56771 0.0869 0.64207 0.0
C1187 C 0.6875 0.11227 0.6598 0.0
C1188 C 0.69358 0.17571 0.66922 0.0
C1189 C 0.68978 0.09753 0.63647 0.0
C1190 C 0.69812 0.14576 0.62144 0.0
H1191 H 0.68066 0.07353 0.67048 0.0
H1192 H 0.68445 0.04865 0.63008 0.0
S1193 S 0.71808 0.31723 0.63751 0.0
N1194 N 0.70949 0.28543 0.66169 0.0
N1195 N 0.71372 0.2581 0.61793 0.0
C1196 C 0.70483 0.20861 0.63069 0.0
C1197 C 0.70259 0.22347 0.65451 0.0
C1198 C 0.41935 0.84379 0.3936 0.0
C1199 C 0.4356 0.85372 0.40823 0.0
C1200 C 0.4193 0.86965 0.37126 0.0
C1201 C 0.43531 0.90798 0.36256 0.0
H1202 H 0.40648 0.81561 0.39943 0.0
H1203 H 0.40641 0.85983 0.36074 0.0
S1204 S 0.48147 0.94973 0.39388 0.0
N1205 N 0.46828 0.90487 0.41237 0.0
N1206 N 0.46796 0.95455 0.37042 0.0
C1207 C 0.45165 0.91891 0.377 0.0
C1208 C 0.45187 0.89138 0.39975 0.0
C1209 C 0.28848 0.96167 0.38085 0.0
C1210 C 0.29049 0.8937 0.37266 0.0
C1211 C 0.29026 0.9775 0.40418 0.0
C1212 C 0.29427 0.92615 0.42041 0.0
H1213 H 0.28566 0.00355 0.36912 0.0
H1214 H 0.28882 0.03064 0.40945 0.0
S1215 S 0.29976 0.73926 0.40821 0.0
N1216 N 0.2959 0.77425 0.38294 0.0
N1217 N 0.29929 0.80344 0.42663 0.0
C1218 C 0.29588 0.85764 0.41253 0.0
C1219 C 0.29397 0.84156 0.38875 0.0
C1220 C 0.55971 0.6308 0.12105 0.0
C1221 C 0.54471 0.67758 0.11491 0.0
C1222 C 0.56085 0.60315 0.14313 0.0
C1223 C 0.54666 0.61925 0.15983 0.0
H1224 H 0.57075 0.61547 0.10863 0.0
H1225 H 0.57288 0.56826 0.14707 0.0
S1226 S 0.50431 0.739 0.15251 0.0
N1227 N 0.51548 0.73955 0.1274 0.0
N1228 N 0.51717 0.68593 0.16879 0.0
C1229 C 0.53147 0.66573 0.15393 0.0
C1230 C 0.53063 0.6954 0.13152 0.0
C1231 C 0.66579 0.67073 0.12988 0.0
C1232 C 0.68379 0.66289 0.11808 0.0
C1233 C 0.66535 0.6897 0.15297 0.0
C1234 C 0.68285 0.70422 0.16503 0.0
H1235 H 0.65187 0.66156 0.1212 0.0
H1236 H 0.65114 0.69349 0.16145 0.0
S1237 S 0.73386 0.69269 0.14201 0.0
N1238 N 0.71962 0.67091 0.12021 0.0
N1239 N 0.71875 0.7092 0.16353 0.0
C1240 C 0.70098 0.69753 0.15343 0.0
C1241 C 0.70146 0.67613 0.12999 0.0
C1242 C 0.45052 0.43856 0.87925 0.0
C1243 C 0.44219 0.39696 0.86204 0.0
C1244 C 0.45048 0.41772 0.90236 0.0
C1245 C 0.44196 0.35475 0.90917 0.0
H1246 H 0.45672 0.48823 0.87495 0.0
H1247 H 0.4565 0.45236 0.91506 0.0
S1248 S 0.4204 0.22304 0.87076 0.0
N1249 N 0.42685 0.28632 0.85357 0.0
N1250 N 0.42654 0.24872 0.89664 0.0
C1251 C 0.43433 0.31169 0.89208 0.0
C1252 C 0.43451 0.33233 0.86865 0.0
C1253 C 0.31956 0.42762 0.90795 0.0
C1254 C 0.30144 0.44447 0.91849 0.0
C1255 C 0.32033 0.38977 0.88762 0.0
C1256 C 0.30303 0.36707 0.87655 0.0
H1257 H 0.33347 0.44301 0.91558 0.0
H1258 H 0.33478 0.37901 0.88042 0.0
S1259 S 0.2516 0.39824 0.89659 0.0
N1260 N 0.26559 0.43551 0.91612 0.0
N1261 N 0.26701 0.36518 0.87764 0.0
C1262 C 0.28471 0.38369 0.88676 0.0
C1263 C 0.28393 0.42213 0.90771 0.0
C1264 C 0.05084 0.36257 0.88564 0.0
C1265 C 0.05109 0.38319 0.90869 0.0
C1266 C 0.04994 0.4108 0.86784 0.0
C1267 C 0.04919 0.48175 0.87239 0.0
H1268 H 0.05036 0.30843 0.88133 0.0
H1269 H 0.04846 0.39189 0.85056 0.0
S1270 S 0.05032 0.56361 0.92954 0.0
N1271 N 0.05104 0.48041 0.93487 0.0
N1272 N 0.04987 0.57057 0.90148 0.0
C1273 C 0.05037 0.50325 0.89526 0.0
C1274 C 0.05125 0.4542 0.9134 0.0
C1275 C 0.18138 0.92276 0.87674 0.0
C1276 C 0.18132 0.85143 0.88069 0.0
C1277 C 0.18161 0.96964 0.89493 0.0
C1278 C 0.18176 0.94713 0.91775 0.0
H1279 H 0.18263 0.94284 0.85959 0.0
H1280 H 0.1826 0.02401 0.89109 0.0
S1281 S 0.18133 0.76548 0.9372 0.0
N1282 N 0.18061 0.76052 0.90909 0.0
N1283 N 0.18174 0.84832 0.94319 0.0
C1284 C 0.18099 0.87598 0.92193 0.0
C1285 C 0.18064 0.82828 0.90341 0.0
C1286 C 0.05802 0.8926 0.36658 0.0
C1287 C 0.0517 0.96078 0.36984 0.0
C1288 C 0.05994 0.8473 0.38506 0.0
C1289 C 0.05568 0.86835 0.40751 0.0
H1290 H 0.06013 0.8723 0.34956 0.0
H1291 H 0.06381 0.79425 0.3816 0.0
S1292 S 0.03942 0.04273 0.42525 0.0
N1293 N 0.04224 0.04836 0.39732 0.0
N1294 N 0.04534 0.96296 0.43193 0.0
C1295 C 0.05026 0.93733 0.41113 0.0
C1296 C 0.04835 0.98349 0.39231 0.0
C1297 C 0.18282 0.43242 0.37544 0.0
C1298 C 0.18152 0.3614 0.37975 0.0
C1299 C 0.18413 0.4801 0.39338 0.0
C1300 C 0.18418 0.45888 0.41635 0.0
H1301 H 0.18415 0.45143 0.35817 0.0
H1302 H 0.18599 0.53395 0.38919 0.0
S1303 S 0.1809 0.27863 0.43683 0.0
N1304 N 0.17968 0.27237 0.40876 0.0
N1305 N 0.18286 0.36152 0.44233 0.0
C1306 C 0.18228 0.3882 0.42092 0.0
C1307 C 0.18082 0.33968 0.40266 0.0
C1308 C 0.92961 0.72348 0.14232 0.0
C1309 C 0.92981 0.70285 0.11931 0.0
C1310 C 0.92924 0.67515 0.16007 0.0
C1311 C 0.929 0.60414 0.15549 0.0
H1312 H 0.93062 0.77751 0.14667 0.0
H1313 H 0.93046 0.69393 0.17739 0.0
S1314 S 0.92945 0.52286 0.09819 0.0
N1315 N 0.93002 0.60615 0.09297 0.0
N1316 N 0.92845 0.5156 0.12623 0.0
C1317 C 0.92851 0.58286 0.13255 0.0
C1318 C 0.92908 0.63206 0.11447 0.0
C1319 C 0.80233 0.24442 0.13969 0.0
C1320 C 0.80051 0.22081 0.16232 0.0
C1321 C 0.80206 0.1987 0.12114 0.0
C1322 C 0.79974 0.12759 0.12452 0.0
H1323 H 0.80289 0.29909 0.13623 0.0
H1324 H 0.80211 0.21993 0.10407 0.0
S1325 S 0.79548 0.03871 0.18028 0.0
N1326 N 0.79724 0.1209 0.18695 0.0
N1327 N 0.79687 0.03523 0.15217 0.0
C1328 C 0.79899 0.10298 0.14707 0.0
C1329 C 0.79937 0.14946 0.16596 0.0
C1330 C 0.9269 0.15267 0.61681 0.0
C1331 C 0.93103 0.22322 0.61884 0.0
C1332 C 0.92477 0.11122 0.63623 0.0
C1333 C 0.92649 0.13886 0.65835 0.0
H1334 H 0.92687 0.12809 0.60024 0.0
H1335 H 0.92291 0.05633 0.63392 0.0
S1336 S 0.93559 0.32196 0.67271 0.0
N1337 N 0.93531 0.32 0.64453 0.0
N1338 N 0.93144 0.2422 0.681 0.0
C1339 C 0.92932 0.21015 0.66056 0.0
C1340 C 0.93161 0.25225 0.64079 0.0
C1341 C 0.7992 0.72217 0.64317 0.0
C1342 C 0.79953 0.69895 0.66592 0.0
C1343 C 0.80118 0.67633 0.6248 0.0
C1344 C 0.80343 0.60528 0.62847 0.0
H1345 H 0.7965 0.77595 0.63952 0.0
H1346 H 0.79953 0.69644 0.6077 0.0
S1347 S 0.80556 0.518 0.68473 0.0
N1348 N 0.80252 0.60001 0.69102 0.0
N1349 N 0.80665 0.51421 0.6566 0.0
C1350 C 0.80456 0.58174 0.65115 0.0
C1351 C 0.80255 0.62842 0.66985 0.0
C1352 C 0.55618 0.39754 0.36723 0.0
C1353 C 0.55003 0.46564 0.37115 0.0
C1354 C 0.55807 0.3506 0.38528 0.0
C1355 C 0.55397 0.36984 0.40795 0.0
H1356 H 0.55824 0.3787 0.35002 0.0
H1357 H 0.56191 0.29784 0.38132 0.0
S1358 S 0.53783 0.54278 0.42735 0.0
N1359 N 0.54067 0.55083 0.39949 0.0
N1360 N 0.54366 0.46237 0.43324 0.0
C1361 C 0.54855 0.43851 0.4122 0.0
C1362 C 0.5467 0.48635 0.39384 0.0
C1363 C 0.68274 0.98548 0.39148 0.0
C1364 C 0.6824 0.95941 0.41387 0.0
C1365 C 0.68064 0.942 0.37253 0.0
C1366 C 0.67829 0.87065 0.3753 0.0
H1367 H 0.68564 0.03955 0.38856 0.0
H1368 H 0.68236 0.96402 0.3557 0.0
S1369 S 0.67567 0.77666 0.43027 0.0
N1370 N 0.67895 0.85772 0.43766 0.0
N1371 N 0.67468 0.77631 0.40211 0.0
C1372 C 0.67698 0.84438 0.3976 0.0
C1373 C 0.67908 0.88865 0.41689 0.0
C1374 C 0.55168 0.8907 0.86681 0.0
C1375 C 0.5526 0.9626 0.86893 0.0
C1376 C 0.55163 0.84823 0.88617 0.0
C1377 C 0.55268 0.87599 0.90833 0.0
H1378 H 0.54926 0.86721 0.85029 0.0
H1379 H 0.54954 0.79346 0.88384 0.0
S1380 S 0.5566 0.06109 0.9229 0.0
N1381 N 0.55574 0.05959 0.89473 0.0
N1382 N 0.55564 0.97998 0.93109 0.0
C1383 C 0.55485 0.94755 0.91059 0.0
C1384 C 0.55475 0.99079 0.89088 0.0
C1385 C 0.67822 0.40395 0.91498 0.0
C1386 C 0.68004 0.47471 0.91041 0.0
C1387 C 0.67706 0.35559 0.8973 0.0
C1388 C 0.67796 0.37553 0.87426 0.0
H1389 H 0.67885 0.38462 0.93222 0.0
H1390 H 0.67628 0.30161 0.90177 0.0
S1391 S 0.68359 0.55443 0.85297 0.0
N1392 N 0.68247 0.56241 0.88098 0.0
N1393 N 0.68165 0.47133 0.84788 0.0
C1394 C 0.67965 0.44616 0.86937 0.0
C1395 C 0.68043 0.49562 0.8874 0.0
C1396 C 0.43689 0.71926 0.64121 0.0
C1397 C 0.43564 0.69609 0.61849 0.0
C1398 C 0.43511 0.67367 0.65965 0.0
C1399 C 0.43209 0.60293 0.65609 0.0
H1400 H 0.4402 0.77271 0.64474 0.0
H1401 H 0.4375 0.6936 0.67667 0.0
S1402 S 0.42728 0.51585 0.6 0.0
N1403 N 0.43091 0.59744 0.59357 0.0
N1404 N 0.42706 0.51226 0.62816 0.0
C1405 C 0.42998 0.57952 0.63349 0.0
C1406 C 0.43183 0.62591 0.61471 0.0
C1407 C 0.31162 0.1025 0.64893 0.0
C1408 C 0.30876 0.12739 0.62662 0.0
C1409 C 0.31002 0.14598 0.66796 0.0
C1410 C 0.30535 0.21599 0.66537 0.0
H1411 H 0.31408 0.04814 0.65178 0.0
H1412 H 0.31099 0.12327 0.68477 0.0
S1413 S 0.29741 0.30781 0.61067 0.0
N1414 N 0.30177 0.22751 0.60311 0.0
N1415 N 0.29911 0.30922 0.63877 0.0
C1416 C 0.3035 0.24228 0.64312 0.0
C1417 C 0.30515 0.19807 0.62375 0.0
C1418 C 0.43108 0.18202 0.15989 0.0
C1419 C 0.43385 0.11128 0.15589 0.0
C1420 C 0.43181 0.22992 0.14202 0.0
C1421 C 0.43559 0.20947 0.1194 0.0
H1422 H 0.42942 0.2017 0.17701 0.0
H1423 H 0.43005 0.28391 0.14609 0.0
S1424 S 0.44508 0.03089 0.09984 0.0
N1425 N 0.44049 0.02329 0.12738 0.0
N1426 N 0.44328 0.11371 0.09423 0.0
C1427 C 0.43841 0.13901 0.11509 0.0
C1428 C 0.43724 0.09 0.13322 0.0
C1429 C 0.30561 0.63967 0.16787 0.0
C1430 C 0.30231 0.71024 0.16434 0.0
C1431 C 0.30696 0.59399 0.14939 0.0
C1432 C 0.30526 0.61712 0.1267 0.0
H1433 H 0.30561 0.61857 0.18496 0.0
H1434 H 0.30823 0.5395 0.15293 0.0
S1435 S 0.29815 0.79821 0.10844 0.0
N1436 N 0.29881 0.80197 0.13658 0.0
N1437 N 0.30121 0.71639 0.1019 0.0
C1438 C 0.30322 0.68822 0.12296 0.0
C1439 C 0.30173 0.73464 0.14179 0.0
C1440 C 0.10567 0.16407 1.00604 0.0
C1441 C 0.09671 0.19606 0.0249 0.0
C1442 C 0.1243 0.13361 0.00791 0.0
C1443 C 0.13479 0.13423 0.02868 0.0
H1444 H 0.09815 0.16149 0.98974 0.0
H1445 H 0.13051 0.10949 0.99285 0.0
S1446 S 0.11818 0.21436 0.08298 0.0
N1447 N 0.09986 0.22818 0.06494 0.0
N1448 N 0.13505 0.17165 0.06835 0.0
C1449 C 0.12607 0.16657 0.04767 0.0
C1450 C 0.10701 0.19741 0.04579 0.0
C1451 C 0.10274 0.16633 0.27906 0.0
C1452 C 0.09345 0.15686 0.2578 0.0
C1453 C 0.12166 0.1947 0.28061 0.0
C1454 C 0.13217 0.21452 0.26095 0.0
H1455 H 0.09564 0.14987 0.29472 0.0
H1456 H 0.12839 0.1981 0.29736 0.0
S1457 S 0.11333 0.21017 0.20138 0.0
N1458 N 0.09532 0.17659 0.21678 0.0
N1459 N 0.13096 0.22989 0.21973 0.0
C1460 C 0.12258 0.20938 0.23968 0.0
C1461 C 0.10324 0.18048 0.23808 0.0
C1462 C 0.85335 0.93314 0.0294 0.0
C1463 C 0.84121 0.9299 0.00996 0.0
C1464 C 0.87269 0.9082 0.0289 0.0
C1465 C 0.88067 0.87938 0.0089 0.0
H1466 H 0.84813 0.95682 0.04503 0.0
H1467 H 0.88162 0.91368 0.04415 0.0
S1468 S 0.85422 0.85019 0.95428 0.0
N1469 N 0.83789 0.88907 0.97079 0.0
N1470 N 0.8745 0.84313 0.9698 0.0
C1471 C 0.86848 0.87306 0.9896 0.0
C1472 C 0.84868 0.89807 0.99014 0.0
C1473 C 0.87022 0.94107 0.75547 0.0
C1474 C 0.87831 0.97354 0.77478 0.0
C1475 C 0.85139 0.91174 0.75614 0.0
C1476 C 0.83985 0.91402 0.77611 0.0
H1477 H 0.87868 0.93648 0.73983 0.0
H1478 H 0.84603 0.88599 0.74095 0.0
S1479 S 0.85341 0.00022 0.83053 0.0
N1480 N 0.8729 0.01086 0.81392 0.0
N1481 N 0.83727 0.95652 0.81516 0.0
C1482 C 0.84747 0.94864 0.79533 0.0
C1483 C 0.86675 0.9782 0.79466 0.0
C1484 C 0.11359 0.70718 0.50625 0.0
C1485 C 0.10209 0.71453 0.52614 0.0
C1486 C 0.13286 0.68156 0.50716 0.0
C1487 C 0.14159 0.6626 0.52801 0.0
H1488 H 0.1075 0.71909 0.4896 0.0
H1489 H 0.14082 0.67567 0.49122 0.0
S1490 S 0.11862 0.67848 0.58543 0.0
N1491 N 0.10139 0.70558 0.56761 0.0
N1492 N 0.13778 0.65775 0.56935 0.0
C1493 C 0.13067 0.67283 0.54823 0.0
C1494 C 0.11092 0.69882 0.54729 0.0
C1495 C 0.12483 0.69909 0.74283 0.0
C1496 C 0.1349 0.70391 0.76379 0.0
C1497 C 0.10514 0.67677 0.74186 0.0
C1498 C 0.09482 0.65814 0.76179 0.0
H1499 H 0.13222 0.71207 0.727 0.0
H1500 H 0.098 0.67418 0.72532 0.0
S1501 S 0.11455 0.66082 0.82108 0.0
N1502 N 0.13298 0.68818 0.80506 0.0
N1503 N 0.09626 0.64562 0.80318 0.0
C1504 C 0.10473 0.66287 0.78289 0.0
C1505 C 0.12467 0.68602 0.78391 0.0
C1506 C 0.86104 0.44145 0.48832 0.0
C1507 C 0.85363 0.46875 0.50889 0.0
C1508 C 0.88005 0.41325 0.48715 0.0
C1509 C 0.89234 0.41118 0.5065 0.0
H1510 H 0.85179 0.43861 0.47325 0.0
H1511 H 0.88478 0.39044 0.47119 0.0
S1512 S 0.88129 0.48688 0.56334 0.0
N1513 N 0.86104 0.50004 0.54822 0.0
N1514 N 0.89675 0.44682 0.54606 0.0
C1515 C 0.88565 0.44263 0.52674 0.0
C1516 C 0.86632 0.47157 0.52791 0.0
C1517 C 0.87126 0.4605 0.25467 0.0
C1518 C 0.88274 0.46502 0.27464 0.0
C1519 C 0.85169 0.43797 0.25537 0.0
C1520 C 0.84265 0.41942 0.27609 0.0
H1521 H 0.87756 0.4723 0.23812 0.0
H1522 H 0.84374 0.43401 0.23936 0.0
S1523 S 0.86549 0.42908 0.33368 0.0
N1524 N 0.88314 0.4541 0.31608 0.0
N1525 N 0.84615 0.4123 0.3174 0.0
C1526 C 0.85356 0.42717 0.29641 0.0
C1527 C 0.87363 0.4499 0.29568 0.0
C1528 C 0.61267 0.19436 0.54405 0.0
C1529 C 0.60487 0.2206 0.52354 0.0
C1530 C 0.63181 0.16728 0.54495 0.0
C1531 C 0.64384 0.16536 0.52537 0.0
H1532 H 0.60361 0.19115 0.55928 0.0
H1533 H 0.63683 0.14487 0.56085 0.0
S1534 S 0.63178 0.2395 0.46863 0.0
N1535 N 0.61165 0.25172 0.48405 0.0
N1536 N 0.64765 0.20068 0.48572 0.0
C1537 C 0.63679 0.19622 0.50522 0.0
C1538 C 0.61732 0.22399 0.50432 0.0
C1539 C 0.61807 0.21226 0.77665 0.0
C1540 C 0.62921 0.22452 0.75677 0.0
C1541 C 0.59923 0.18331 0.77551 0.0
C1542 C 0.59061 0.1658 0.75444 0.0
H1543 H 0.62425 0.22201 0.79341 0.0
H1544 H 0.59167 0.17267 0.79143 0.0
S1545 S 0.61217 0.19838 0.69709 0.0
N1546 N 0.6293 0.22472 0.71517 0.0
N1547 N 0.59365 0.17094 0.71303 0.0
C1548 C 0.60091 0.18274 0.73431 0.0
C1549 C 0.62024 0.21203 0.73547 0.0
C1550 C 0.38351 0.91298 0.4884 0.0
C1551 C 0.39544 0.90939 0.50804 0.0
C1552 C 0.36466 0.94265 0.48918 0.0
C1553 C 0.35704 0.97003 0.50962 0.0
H1554 H 0.38845 0.89067 0.47244 0.0
H1555 H 0.35574 0.94158 0.47381 0.0
S1556 S 0.38357 0.98245 0.56503 0.0
N1557 N 0.39914 0.94215 0.54794 0.0
N1558 N 0.36377 -0.0019 0.5494 0.0
C1559 C 0.36929 0.97033 0.52906 0.0
C1560 C 0.38845 0.93989 0.52829 0.0
C1561 C 0.35333 0.9206 0.2953 0.0
C1562 C 0.34158 0.91521 0.27558 0.0
C1563 C 0.37222 0.94968 0.29438 0.0
C1564 C 0.38008 0.97448 0.27371 0.0
H1565 H 0.34829 0.89969 0.31142 0.0
H1566 H 0.38105 0.94932 0.30982 0.0
S1567 S 0.35381 0.98388 0.2181 0.0
N1568 N 0.33806 0.94539 0.23541 0.0
N1569 N 0.37358 0.00012 0.23371 0.0
C1570 C 0.36788 0.9742 0.25424 0.0
C1571 C 0.34865 0.94441 0.25515 0.0
C1572 C 0.60324 0.66829 0.04382 0.0
C1573 C 0.59253 0.67153 0.02324 0.0
C1574 C 0.6221 0.63921 0.04457 0.0
C1575 C 0.63091 0.6123 0.02476 0.0
H1576 H 0.59743 0.69113 0.05931 0.0
H1577 H 0.63022 0.64162 0.06049 0.0
S1578 S 0.60734 0.5954 0.96771 0.0
N1579 N 0.59083 0.63629 0.98341 0.0
N1580 N 0.62631 0.58113 0.9848 0.0
C1581 C 0.61966 0.60979 1.00453 0.0
C1582 C 0.60047 0.63974 1.00376 0.0
C1583 C 0.61949 0.70489 0.23778 0.0
C1584 C 0.62746 0.73318 0.25788 0.0
C1585 C 0.60077 0.67437 0.23772 0.0
C1586 C 0.58934 0.6709 0.25776 0.0
H1587 H 0.62809 0.70343 0.22218 0.0
H1588 H 0.59557 0.65116 0.22203 0.0
S1589 S 0.60212 0.7473 0.31398 0.0
N1590 N 0.62151 0.7631 0.29768 0.0
N1591 N 0.58634 0.70542 0.29759 0.0
C1592 C 0.59661 0.70273 0.27763 0.0
C1593 C 0.61565 0.73405 0.27768 0.0
C1594 C 0.3582 0.42729 0.98999 0.0
C1595 C 0.34723 0.42062 0.01027 0.0
C1596 C 0.3773 0.40003 0.98824 0.0
C1597 C 0.38597 0.36494 1.00669 0.0
H1598 H 0.3523 0.45587 0.97567 0.0
H1599 H 0.38564 0.40965 0.97277 0.0
S1600 S 0.36185 0.32288 0.06196 0.0
N1601 N 0.34531 0.36904 0.04804 0.0
N1602 N 0.38109 0.3173 0.04473 0.0
C1603 C 0.37454 0.35377 0.02644 0.0
C1604 C 0.35521 0.38194 0.02828 0.0
C1605 C 0.37235 0.45449 0.75648 0.0
C1606 C 0.38331 0.47013 0.77623 0.0
C1607 C 0.35358 0.42514 0.75795 0.0
C1608 C 0.34485 0.41067 0.77922 0.0
H1609 H 0.37866 0.46156 0.73964 0.0
H1610 H 0.34618 0.41174 0.74216 0.0
S1611 S 0.36584 0.45349 0.8361 0.0
N1612 N 0.38307 0.47719 0.81775 0.0
N1613 N 0.34752 0.42287 0.8205 0.0
C1614 C 0.35495 0.43113 0.79912 0.0
C1615 C 0.37421 0.46077 0.79763 0.0
C1616 C 0.98475 0.49162 0.02457 0.0
C1617 C 0.00425 0.49507 0.01649 0.0
C1618 C 0.97135 0.54468 0.01998 0.0
C1619 C 0.97708 0.60255 0.00718 0.0
H1620 H 0.97974 0.44717 0.03409 0.0
H1621 H 0.95649 0.54127 0.02688 0.0
S1622 S 0.0267 0.63613 0.98285 0.0
N1623 N 0.02876 0.56021 0.99525 0.0
N1624 N 0.00363 0.66109 0.98714 0.0
C1625 C -0.00347 0.60644 0.99902 0.0
C1626 C 0.01014 0.55237 1.00361 0.0
C1627 C 0.236 0.72452 0.01061 0.0
C1628 C 0.2557 0.72879 0.018 0.0
C1629 C 0.22244 0.77658 0.01598 0.0
C1630 C 0.22817 0.83412 0.02897 0.0
H1631 H 0.23094 0.68009 1.00112 0.0
H1632 H 0.20744 0.77261 0.00956 0.0
S1633 S 0.27828 0.86989 0.05159 0.0
N1634 N 0.28042 0.79485 0.03862 0.0
N1635 N 0.25495 0.89342 0.04833 0.0
C1636 C 0.24783 0.83895 0.03637 0.0
C1637 C 0.26162 0.78609 0.0309 0.0
C1638 C 0.01931 0.75558 0.26532 0.0
C1639 C 0.01304 0.81455 0.25344 0.0
C1640 C 0.00627 0.70089 0.26943 0.0
C1641 C 0.98661 0.70386 0.26179 0.0
H1642 H 0.03426 0.75264 0.27195 0.0
H1643 H 0.01161 0.65591 0.27842 0.0
S1644 S 0.96271 0.84798 0.23098 0.0
N1645 N 0.98575 0.87366 0.23495 0.0
N1646 N 0.96132 0.77044 0.24232 0.0
C1647 C 0.9802 0.76242 0.24991 0.0
C1648 C -0.00659 0.81793 0.24577 0.0
C1649 C 0.23205 0.51025 0.28469 0.0
C1650 C 0.23766 0.45363 0.2712 0.0
C1651 C 0.2451 0.56481 0.28864 0.0
C1652 C 0.2642 0.56433 0.27926 0.0
H1653 H 0.21736 0.51259 0.29208 0.0
H1654 H 0.23993 0.60877 0.29831 0.0
S1655 S 0.28647 0.42664 0.24389 0.0
N1656 N 0.2639 0.3987 0.2495 0.0
N1657 N 0.28838 0.50229 0.25653 0.0
C1658 C 0.27014 0.50751 0.26614 0.0
C1659 C 0.25685 0.4519 0.26213 0.0
C1660 C 0.74266 0.26975 1.00072 0.0
C1661 C 0.76197 0.26962 0.00946 0.0
C1662 C 0.72982 0.32431 1.00534 0.0
C1663 C 0.73586 0.38012 0.01893 0.0
H1664 H 0.7372 0.22631 0.99101 0.0
H1665 H 0.715 0.32288 0.99829 0.0
S1666 S 0.78522 0.40495 0.04499 0.0
N1667 N 0.78677 0.33005 0.0318 0.0
N1668 N 0.76255 0.43349 0.04025 0.0
C1669 C 0.7552 0.3811 0.02748 0.0
C1670 C 0.76831 0.32563 0.02272 0.0
C1671 C 0.96663 0.32251 0.75688 0.0
C1672 C 0.97252 0.26543 0.76996 0.0
C1673 C 0.97981 0.37633 0.7523 0.0
C1674 C -0.00067 0.37397 0.76042 0.0
H1675 H 0.95174 0.32528 0.75007 0.0
H1676 H 0.97457 0.42076 0.74294 0.0
S1677 S 0.02231 0.23412 0.79418 0.0
N1678 N -0.00068 0.20822 0.79 0.0
N1679 N 0.02412 0.30973 0.78154 0.0
C1680 C 0.00546 0.31669 0.77317 0.0
C1681 C -0.00796 0.26224 0.77794 0.0
C1682 C 0.72791 0.51899 0.78512 0.0
C1683 C 0.73393 0.46324 0.77147 0.0
C1684 C 0.74082 0.57335 0.78991 0.0
C1685 C 0.76019 0.57329 0.7813 0.0
H1686 H 0.713 0.52088 0.79192 0.0
H1687 H 0.73532 0.61703 0.79947 0.0
S1688 S 0.78358 0.43711 0.7462 0.0
N1689 N 0.76081 0.40914 0.75063 0.0
N1690 N 0.78513 0.51192 0.75944 0.0
C1691 C 0.76659 0.51677 0.7683 0.0
C1692 C 0.75342 0.46163 0.76333 0.0
C1693 C 0.98968 0.06205 0.4941 0.0
C1694 C 0.97046 0.06287 0.50315 0.0
C1695 C 0.00243 0.00683 0.49838 0.0
C1696 C -0.00358 0.95083 0.51192 0.0
H1697 H -0.00483 0.10553 0.48445 0.0
H1698 H 0.01723 0.00826 0.49125 0.0
S1699 S 0.94708 0.92686 0.53827 0.0
N1700 N 0.94567 0.00233 0.52544 0.0
N1701 N 0.96963 0.89772 0.53319 0.0
C1702 C 0.97708 0.95028 0.5206 0.0
C1703 C 0.96408 0.00649 0.51621 0.0
C1704 C 0.26222 0.29172 0.53126 0.0
C1705 C 0.25627 0.23494 0.51805 0.0
C1706 C 0.24914 0.34579 0.53593 0.0
C1707 C 0.22961 0.34418 0.52781 0.0
H1708 H 0.27714 0.2943 0.53799 0.0
H1709 H 0.25451 0.39 0.54532 0.0
S1710 S 0.20647 0.20554 0.49358 0.0
N1711 N 0.22941 0.17893 0.49777 0.0
N1712 N 0.20476 0.28086 0.50646 0.0
C1713 C 0.22339 0.28713 0.51495 0.0
C1714 C 0.23675 0.23239 0.51005 0.0
C1715 C 0.26998 0.00779 0.76872 0.0
C1716 C 0.26382 0.06667 0.78075 0.0
C1717 C 0.25678 0.95378 0.76426 0.0
C1718 C 0.23706 0.9574 0.77168 0.0
H1719 H 0.285 0.00425 0.76234 0.0
H1720 H 0.26208 0.90861 0.75533 0.0
S1721 S 0.21335 0.10182 0.80257 0.0
N1722 N 0.23652 0.12666 0.79896 0.0
N1723 N 0.21181 0.0246 0.79099 0.0
C1724 C 0.23072 0.01607 0.78357 0.0
C1725 C 0.24409 0.07089 0.78806 0.0
C1726 C 0.71677 0.76072 0.51611 0.0
C1727 C 0.72298 0.81905 0.5284 0.0
C1728 C 0.72981 0.70608 0.51183 0.0
C1729 C 0.7494 0.7085 0.51972 0.0
H1730 H 0.70188 0.75827 0.50929 0.0
H1731 H 0.72451 0.66155 0.50256 0.0
S1732 S 0.77316 0.8509 0.55157 0.0
N1733 N 0.75018 0.87705 0.54746 0.0
N1734 N 0.77456 0.77386 0.53984 0.0
C1735 C 0.75575 0.76644 0.53199 0.0
C1736 C 0.74255 0.8219 0.53627 0.0
C1737 C 0.73586 0.10373 0.2835 0.0
C1738 C 0.75502 0.10323 0.27431 0.0
C1739 C 0.72275 0.04961 0.27911 0.0
C1740 C 0.72837 0.99384 0.26526 0.0
H1741 H 0.73075 0.14714 0.29348 0.0
H1742 H 0.70807 0.05139 0.28654 0.0
S1743 S 0.77736 0.96675 0.23844 0.0
N1744 N 0.77932 0.04159 0.25158 0.0
N1745 N 0.75464 0.93939 0.2435 0.0
C1746 C 0.74759 0.99217 0.25634 0.0
C1747 C 0.76096 0.04702 0.26088 0.0
C1748 C 0.50413 0.50152 0.49929 0.0
C1749 C 0.49821 0.44695 0.51353 0.0
C1750 C 0.4915 0.55694 0.49487 0.0
C1751 C 0.4725 0.55936 0.50446 0.0
H1752 H 0.51876 0.50166 0.49171 0.0
H1753 H 0.49696 0.5994 0.48471 0.0
S1754 S 0.44947 0.42761 0.54165 0.0
N1755 N 0.47179 0.39697 0.53617 0.0
N1756 N 0.44801 0.50187 0.52808 0.0
C1757 C 0.4662 0.50433 0.51822 0.0
C1758 C 0.4791 0.448 0.52279 0.0
C1759 C 0.49616 0.80928 0.74511 0.0
C1760 C 0.51541 0.81055 0.75403 0.0
C1761 C 0.48352 0.75408 0.74963 0.0
C1762 C 0.48968 0.69856 0.76327 0.0
H1763 H 0.49056 0.85246 0.73539 0.0
H1764 H 0.46869 0.75511 0.74259 0.0
S1765 S 0.53907 0.67615 0.78957 0.0
N1766 N 0.54035 0.75121 0.77647 0.0
N1767 N 0.51656 0.64646 0.78466 0.0
C1768 C 0.50902 0.69851 0.7719 0.0
C1769 C 0.52192 0.75474 0.76727 0.0
C1770 C 0.49202 0.32254 0.2488 0.0
C1771 C 0.51156 0.32119 0.25684 0.0
C1772 C 0.47908 0.26816 0.25338 0.0
C1773 C 0.48524 0.21091 0.26621 0.0
H1774 H 0.48649 0.36692 0.23963 0.0
H1775 H 0.46409 0.2708 0.24683 0.0
S1776 S 0.53516 0.18202 0.29035 0.0
N1777 N 0.53666 0.25791 0.27781 0.0
N1778 N 0.51229 0.15483 0.28612 0.0
C1779 C 0.50479 0.20852 0.27409 0.0
C1780 C 0.518 0.26385 0.26939 0.0
C1781 C 0.5107 0.13527 0.00694 0.0
C1782 C 0.49055 0.13243 0.01255 0.0
C1783 C 0.52329 0.08041 0.01241 0.0
C1784 C 0.51604 0.02189 0.02378 0.0
H1785 H 0.51676 0.18039 0.99868 0.0
H1786 H 0.53868 0.08287 0.00724 0.0
S1787 S 0.46418 0.98945 0.0411 0.0
N1788 N 0.46378 0.06688 0.02958 0.0
N1789 N 0.48739 0.96326 0.03948 0.0
C1790 C 0.49591 0.0187 0.02937 0.0
C1791 C 0.48315 0.0742 0.02379 0.0
C1792 C 0.97999 0.03062 0.99458 0.0
C1793 C 0.97427 0.99559 0.01455 0.0
C1794 C -0.00619 0.08393 0.99533 0.0
C1795 C 0.00243 0.10437 0.01607 0.0
H1796 H 0.97382 0.01675 0.97814 0.0
H1797 H -0.00232 0.10938 0.9795 0.0
S1798 S -0.00727 0.0287 0.0733 0.0
N1799 N 0.97842 0.985 0.05572 0.0
N1800 N 0.0044 0.085 0.05715 0.0
C1801 C -0.00318 0.06994 0.03623 0.0
C1802 C 0.98273 0.01567 0.03546 0.0
C1803 C 0.2321 0.25767 1.00457 0.0
C1804 C 0.22807 0.22581 0.02558 0.0
C1805 C 0.24512 0.31302 1.00318 0.0
C1806 C 0.25467 0.3387 0.02274 0.0
H1807 H 0.22512 0.24002 0.98899 0.0
H1808 H 0.24766 0.33571 0.98655 0.0
S1809 S 0.24944 0.27259 0.08195 0.0
N1810 N 0.23479 0.22336 0.06647 0.0
N1811 N 0.25935 0.32758 0.06383 0.0
C1812 C 0.2508 0.30733 0.04392 0.0
C1813 C 0.23748 0.25086 0.04535 0.0
C1814 C 0.97599 0.27428 0.2802 0.0
C1815 C 0.96849 0.30494 0.26024 0.0
C1816 C 0.98923 0.2195 0.27906 0.0
C1817 C -0.00449 0.19314 0.25793 0.0
H1818 H 0.97229 0.29437 0.29691 0.0
H1819 H -0.00483 0.19972 0.29493 0.0
S1820 S 0.97767 0.24739 0.20069 0.0
N1821 N 0.96636 0.29931 0.21875 0.0
N1822 N 0.99133 0.19595 0.2166 0.0
C1823 C 0.98699 0.21977 0.23785 0.0
C1824 C 0.97345 0.27575 0.23901 0.0
C1825 C 0.22466 0.02678 0.25404 0.0
C1826 C 0.21763 0.05824 0.2741 0.0
C1827 C 0.23767 0.97125 0.25496 0.0
C1828 C 0.24419 0.94487 0.27598 0.0
H1829 H 0.22077 0.04676 0.23737 0.0
H1830 H 0.24326 0.95094 0.23899 0.0
S1831 S 0.22756 0.00115 0.33351 0.0
N1832 N 0.21619 0.05341 0.31563 0.0
N1833 N 0.24069 0.94863 0.31739 0.0
C1834 C 0.23611 0.97232 0.2962 0.0
C1835 C 0.22282 0.02909 0.29525 0.0
C1836 C 0.72571 0.80134 0.03724 0.0
C1837 C 0.71582 0.77756 0.01765 0.0
C1838 C 0.73903 0.85592 0.03598 0.0
C1839 C 0.74293 0.88878 0.01509 0.0
H1840 H 0.72398 0.77556 0.05351 0.0
H1841 H 0.74697 0.87016 0.05134 0.0
S1842 S 0.71786 0.85495 0.95978 0.0
N1843 N 0.70861 0.79728 0.97745 0.0
N1844 N 0.73369 0.90029 0.97505 0.0
C1845 C 0.73192 0.86924 0.99575 0.0
C1846 C 0.71834 0.81352 0.99704 0.0
C1847 C 0.97724 0.83708 0.78708 0.0
C1848 C 0.97366 0.87814 0.76777 0.0
C1849 C 0.99115 0.78403 0.78643 0.0
C1850 C 0.00199 0.77019 0.76646 0.0
H1851 H 0.96906 0.84526 0.80276 0.0
H1852 H -0.00689 0.75293 0.8016 0.0
S1853 S -0.0006 0.86708 0.71189 0.0
N1854 N 0.98293 0.90442 0.72858 0.0
N1855 N 0.00908 0.80458 0.72729 0.0
C1856 C -0.00109 0.81203 0.74718 0.0
C1857 C 0.98472 0.866 0.74785 0.0
C1858 C 0.73678 0.99379 0.79207 0.0
C1859 C 0.74222 0.9567 0.77242 0.0
C1860 C 0.72347 0.04845 0.79082 0.0
C1861 C 0.71512 0.06818 0.76986 0.0
H1862 H 0.74342 0.98255 0.80848 0.0
H1863 H 0.72048 0.07731 0.80626 0.0
S1864 S 0.72174 0.98023 0.7141 0.0
N1865 N 0.73625 0.9379 0.73188 0.0
N1866 N 0.71119 0.04102 0.72952 0.0
C1867 C 0.71932 0.02857 0.75035 0.0
C1868 C 0.73289 0.97274 0.75162 0.0
C1869 C 0.01052 0.5231 0.5287 0.0
C1870 C 0.01732 0.55611 0.50883 0.0
C1871 C -0.00277 0.46847 0.52747 0.0
C1872 C 0.99022 0.44457 0.50633 0.0
H1873 H 0.01479 0.54125 0.54548 0.0
H1874 H -0.00816 0.44686 0.54334 0.0
S1875 S 0.0061 0.5055 0.44906 0.0
N1876 N 0.01803 0.55529 0.46724 0.0
N1877 N -0.00699 0.45217 0.4649 0.0
C1878 C -0.00192 0.47345 0.48623 0.0
C1879 C 0.01167 0.52929 0.48749 0.0
C1880 C 0.24248 0.76507 0.50101 0.0
C1881 C 0.23833 0.73188 0.52175 0.0
C1882 C 0.25617 0.81872 0.49997 0.0
C1883 C 0.26624 0.84125 0.51964 0.0
H1884 H 0.23478 0.75076 0.4855 0.0
H1885 H 0.25844 0.84374 0.48366 0.0
S1886 S 0.26237 0.76599 0.57772 0.0
N1887 N 0.24659 0.72146 0.56213 0.0
N1888 N 0.27231 0.82246 0.56014 0.0
C1889 C 0.26285 0.80659 0.54034 0.0
C1890 C 0.24889 0.75191 0.54141 0.0
C1891 C 0.24257 0.47353 0.75603 0.0
C1892 C 0.24783 0.44413 0.77708 0.0
C1893 C 0.22955 0.52894 0.75498 0.0
C1894 C 0.22129 0.55713 0.77494 0.0
H1895 H 0.24914 0.45567 0.74024 0.0
H1896 H 0.22663 0.55141 0.7384 0.0
S1897 S 0.2276 0.49109 0.83399 0.0
N1898 N 0.24183 0.4414 0.81812 0.0
N1899 N 0.21728 0.54598 0.81612 0.0
C1900 C 0.22527 0.52506 0.79597 0.0
C1901 C 0.23856 0.46843 0.79705 0.0
C1902 C 0.74726 0.22448 0.50249 0.0
C1903 C 0.74148 0.19692 0.52364 0.0
C1904 C 0.76031 0.27982 0.50128 0.0
C1905 C 0.76812 0.30985 0.52118 0.0
H1906 H 0.74104 0.20528 0.48668 0.0
H1907 H 0.76361 0.30085 0.48459 0.0
S1908 S 0.76036 0.24905 0.58065 0.0
N1909 N 0.74652 0.19791 0.56484 0.0
N1910 N 0.77114 0.30219 0.56257 0.0
C1911 C 0.76369 0.27942 0.54238 0.0
C1912 C 0.75033 0.22292 0.54361 0.0
C1913 C 0.73883 0.52308 0.28646 0.0
C1914 C 0.74604 0.49075 0.26666 0.0
C1915 C 0.72504 0.57622 0.28513 0.0
C1916 C 0.7179 0.59934 0.26394 0.0
H1917 H 0.74412 0.50831 0.30321 0.0
H1918 H 0.72038 0.6004 0.3009 0.0
S1919 S 0.73066 0.52778 0.20699 0.0
N1920 N 0.744 0.48264 0.22519 0.0
N1921 N 0.71802 0.5828 0.2227 0.0
C1922 C 0.72439 0.56584 0.24399 0.0
C1923 C 0.73848 0.51156 0.24535 0.0
C1924 C 0.51126 0.03429 0.49047 0.0
C1925 C 0.5207 0.05202 0.51102 0.0
C1926 C 0.49786 0.9798 0.48958 0.0
C1927 C 0.49343 0.94106 0.5092 0.0
H1928 H 0.51336 0.06493 0.47522 0.0
H1929 H 0.49024 0.97036 0.47362 0.0
S1930 S 0.51731 0.95798 0.56602 0.0
N1931 N 0.527 0.02041 0.55058 0.0
N1932 N 0.50178 0.91764 0.5489 0.0
C1933 C 0.50402 0.95461 0.52938 0.0
C1934 C 0.51768 0.01019 0.53029 0.0
C1935 C 0.48801 0.22905 0.73947 0.0
C1936 C 0.49282 0.18967 0.75881 0.0
C1937 C 0.47507 0.2847 0.74106 0.0
C1938 C 0.46651 0.30299 0.76207 0.0
H1939 H 0.49508 0.21938 0.72318 0.0
H1940 H 0.47271 0.3158 0.72596 0.0
S1941 S 0.47081 0.20722 0.81663 0.0
N1942 N 0.48549 0.16583 0.79876 0.0
N1943 N 0.46117 0.27103 0.80178 0.0
C1944 C 0.46978 0.26043 0.78109 0.0
C1945 C 0.48294 0.20357 0.77945 0.0
C1946 C 0.47397 0.78624 0.28369 0.0
C1947 C 0.46512 0.8131 0.26388 0.0
C1948 C 0.48711 0.73116 0.28249 0.0
C1949 C 0.4919 0.70079 0.26144 0.0
H1950 H 0.47152 0.8098 0.30022 0.0
H1951 H 0.49423 0.71458 0.29812 0.0
S1952 S 0.46969 0.743 0.20515 0.0
N1953 N 0.45979 0.79885 0.22302 0.0
N1954 N 0.48459 0.69491 0.22073 0.0
C1955 C 0.48191 0.72334 0.24172 0.0
C1956 C 0.46849 0.7796 0.24295 0.0
C1957 C 0.49063 0.60672 0.03892 0.0
C1958 C 0.49512 0.64574 0.01939 0.0
C1959 C 0.47781 0.55081 0.03767 0.0
C1960 C 0.46903 0.53192 0.01685 0.0
H1961 H 0.49788 0.61681 0.05507 0.0
H1962 H 0.47571 0.52004 0.05289 0.0
S1963 S 0.47243 0.62694 0.96204 0.0
N1964 N 0.48725 0.66888 0.97957 0.0
N1965 N 0.46309 0.56317 0.97716 0.0
C1966 C 0.47193 0.57427 0.99769 0.0
C1967 C 0.48501 0.63138 0.99897 0.0
loop_
_geom_bond_atom_site_label_1
_geom_bond_atom_site_label_2
_geom_bond_distance
_geom_bond_site_symmetry_2
_ccdc_geom_bond_type
Co0 O3 1.970 . S
Co0 N17 1.989 . S
Co0 O25 1.967 . S
Co0 O32 1.920 . S
Co1 O4 1.966 . S
Co1 N10 2.022 . S
Co1 N18 1.993 1_556 S
Co1 O26 1.941 . S
C2 O3 1.258 . S
C2 O4 1.263 1_554 S
O3 Co0 1.970 . S
O3 C2 1.258 . S
O4 Co1 1.966 . S
O4 C2 1.263 1_556 S
C5 O6 1.235 . S
C5 O32 1.289 . S
O6 C5 1.235 . S
C7 C9 1.400 . S
C7 N10 1.351 . S
C7 C12 1.501 . S
C8 C9 1.387 . S
C8 N11 1.341 . S
C9 C7 1.400 . S
C9 C8 1.387 . S
N10 Co1 2.022 . S
N10 C7 1.351 . S
N10 N11 1.365 . S
N11 C8 1.341 . S
N11 N10 1.365 . S
N11 H31 0.862 . S
C12 C7 1.501 . S
C12 H13 0.961 . S
C12 H14 0.961 . S
C12 H15 0.960 . S
H13 C12 0.961 . S
H14 C12 0.961 . S
H15 C12 0.960 . S
C16 N17 1.342 . S
C16 C20 1.401 . S
C16 C21 1.499 . S
N17 Co0 1.989 . S
N17 C16 1.342 . S
N17 N18 1.388 . S
N18 Co1 1.993 1_554 S
N18 N17 1.388 . S
N18 C19 1.346 . S
C19 N18 1.346 . S
C19 C20 1.396 . S
C19 C29 1.510 1_554 S
C20 C16 1.401 . S
C20 C19 1.396 . S
C21 C16 1.499 . S
C21 H22 0.959 . S
C21 H23 0.960 . S
C21 H24 0.961 . S
H22 C21 0.959 . S
H23 C21 0.960 . S
H24 C21 0.961 . S
O25 Co0 1.967 . S
O25 C33 1.258 . S
O26 Co1 1.941 . S
O26 C33 1.266 1_556 S
H27 C29 0.959 . S
H28 C29 0.961 . S
C29 C19 1.510 1_556 S
C29 H27 0.959 . S
C29 H28 0.961 . S
C29 H30 0.960 . S
H30 C29 0.960 . S
H31 N11 0.862 . S
O32 Co0 1.920 . S
O32 C5 1.289 . S
C33 O25 1.258 . S
C33 O26 1.266 1_554 S
Co34 O37 1.970 . S
Co34 N51 1.989 . S
Co34 O59 1.967 . S
Co34 O66 1.920 . S
Co35 O38 1.966 . S
Co35 N44 2.022 . S
Co35 N52 1.993 1_546 S
Co35 O60 1.941 . S
C36 O37 1.258 . S
C36 O38 1.263 1_554 S
O37 Co34 1.970 . S
O37 C36 1.258 . S
O38 Co35 1.966 . S
O38 C36 1.263 1_556 S
C39 O40 1.235 . S
C39 O66 1.289 . S
O40 C39 1.235 . S
C41 C43 1.400 1_545 S
C41 N44 1.351 . S
C41 C46 1.501 . S
C42 C43 1.387 . S
C42 N45 1.341 1_565 S
C43 C41 1.400 1_565 S
C43 C42 1.387 . S
N44 Co35 2.022 . S
N44 C41 1.351 . S
N44 N45 1.365 . S
N45 C42 1.341 1_545 S
N45 N44 1.365 . S
N45 H65 0.862 . S
C46 C41 1.501 . S
C46 H47 0.961 . S
C46 H48 0.961 1_545 S
C46 H49 0.960 . S
H47 C46 0.961 . S
H48 C46 0.961 1_565 S
H49 C46 0.960 . S
C50 N51 1.342 1_565 S
C50 C54 1.401 . S
C50 C55 1.499 . S
N51 Co34 1.989 . S
N51 C50 1.342 1_545 S
N51 N52 1.388 1_545 S
N52 Co35 1.993 1_564 S
N52 N51 1.388 1_565 S
N52 C53 1.346 . S
C53 N52 1.346 . S
C53 C54 1.396 . S
C53 C63 1.510 1_554 S
C54 C50 1.401 . S
C54 C53 1.396 . S
C55 C50 1.499 . S
C55 H56 0.959 . S
C55 H57 0.960 . S
C55 H58 0.961 . S
H56 C55 0.959 . S
H57 C55 0.960 . S
H58 C55 0.961 . S
O59 Co34 1.967 . S
O59 C67 1.258 . S
O60 Co35 1.941 . S
O60 C67 1.266 1_556 S
H61 C63 0.959 . S
H62 C63 0.961 . S
C63 C53 1.510 1_556 S
C63 H61 0.959 . S
C63 H62 0.961 . S
C63 H64 0.960 . S
H64 C63 0.960 . S
H65 N45 0.862 . S
O66 Co34 1.920 . S
O66 C39 1.289 . S
C67 O59 1.258 . S
C67 O60 1.266 1_554 S
Co68 O71 1.970 . S
Co68 N85 1.989 . S
Co68 O93 1.967 . S
Co68 O100 1.920 . S
Co69 O72 1.966 . S
Co69 N78 2.022 . S
Co69 N86 1.993 1_545 S
Co69 O94 1.941 . S
C70 O71 1.258 . S
C70 O72 1.263 . S
O71 Co68 1.970 . S
O71 C70 1.258 . S
O72 Co69 1.966 . S
O72 C70 1.263 . S
C73 O74 1.235 . S
C73 O100 1.289 . S
O74 C73 1.235 . S
C75 C77 1.400 1_545 S
C75 N78 1.351 . S
C75 C80 1.501 . S
C76 C77 1.387 . S
C76 N79 1.341 1_565 S
C77 C75 1.400 1_565 S
C77 C76 1.387 . S
N78 Co69 2.022 . S
N78 C75 1.351 . S
N78 N79 1.365 . S
N79 C76 1.341 1_545 S
N79 N78 1.365 . S
N79 H99 0.862 . S
C80 C75 1.501 . S
C80 H81 0.961 . S
C80 H82 0.961 1_545 S
C80 H83 0.960 . S
H81 C80 0.961 . S
H82 C80 0.961 1_565 S
H83 C80 0.960 . S
C84 N85 1.342 1_565 S
C84 C88 1.401 . S
C84 C89 1.499 . S
N85 Co68 1.989 . S
N85 C84 1.342 1_545 S
N85 N86 1.388 1_545 S
N86 Co69 1.993 1_565 S
N86 N85 1.388 1_565 S
N86 C87 1.346 . S
C87 N86 1.346 . S
C87 C88 1.396 . S
C87 C97 1.510 . S
C88 C84 1.401 . S
C88 C87 1.396 . S
C89 C84 1.499 . S
C89 H90 0.959 . S
C89 H91 0.960 . S
C89 H92 0.961 . S
H90 C89 0.959 . S
H91 C89 0.960 . S
H92 C89 0.961 . S
O93 Co68 1.967 . S
O93 C101 1.258 . S
O94 Co69 1.941 . S
O94 C101 1.266 . S
H95 C97 0.959 . S
H96 C97 0.961 . S
C97 C87 1.510 . S
C97 H95 0.959 . S
C97 H96 0.961 . S
C97 H98 0.960 . S
H98 C97 0.960 . S
H99 N79 0.862 . S
O100 Co68 1.920 . S
O100 C73 1.289 . S
C101 O93 1.258 . S
C101 O94 1.266 . S
Co102 O105 1.970 . S
Co102 N119 1.989 . S
Co102 O127 1.967 . S
Co102 O134 1.920 . S
Co103 O106 1.966 . S
Co103 N112 2.022 . S
Co103 N120 1.993 . S
Co103 O128 1.941 . S
C104 O105 1.258 . S
C104 O106 1.263 . S
O105 Co102 1.970 . S
O105 C104 1.258 . S
O106 Co103 1.966 . S
O106 C104 1.263 . S
C107 O108 1.235 . S
C107 O134 1.289 . S
O108 C107 1.235 . S
C109 C111 1.400 . S
C109 N112 1.351 . S
C109 C114 1.501 . S
C110 C111 1.387 . S
C110 N113 1.341 . S
C111 C109 1.400 . S
C111 C110 1.387 . S
N112 Co103 2.022 . S
N112 C109 1.351 . S
N112 N113 1.365 . S
N113 C110 1.341 . S
N113 N112 1.365 . S
N113 H133 0.862 . S
C114 C109 1.501 . S
C114 H115 0.961 . S
C114 H116 0.961 . S
C114 H117 0.960 . S
H115 C114 0.961 . S
H116 C114 0.961 . S
H117 C114 0.960 . S
C118 N119 1.342 . S
C118 C122 1.401 . S
C118 C123 1.499 . S
N119 Co102 1.989 . S
N119 C118 1.342 . S
N119 N120 1.388 . S
N120 Co103 1.993 . S
N120 N119 1.388 . S
N120 C121 1.346 . S
C121 N120 1.346 . S
C121 C122 1.396 . S
C121 C131 1.510 . S
C122 C118 1.401 . S
C122 C121 1.396 . S
C123 C118 1.499 . S
C123 H124 0.959 . S
C123 H125 0.960 . S
C123 H126 0.961 . S
H124 C123 0.959 . S
H125 C123 0.960 . S
H126 C123 0.961 . S
O127 Co102 1.967 . S
O127 C135 1.258 . S
O128 Co103 1.941 . S
O128 C135 1.266 . S
H129 C131 0.959 . S
H130 C131 0.961 . S
C131 C121 1.510 . S
C131 H129 0.959 . S
C131 H130 0.961 . S
C131 H132 0.960 . S
H132 C131 0.960 . S
H133 N113 0.862 . S
O134 Co102 1.920 . S
O134 C107 1.289 . S
C135 O127 1.258 . S
C135 O128 1.266 . S
Co136 O139 1.970 . S
Co136 N153 1.989 . S
Co136 O161 1.967 . S
Co136 O168 1.920 . S
Co137 O140 1.966 . S
Co137 N146 2.022 . S
Co137 N154 1.993 . S
Co137 O162 1.941 . S
C138 O139 1.258 1_554 S
C138 O140 1.263 . S
O139 Co136 1.970 . S
O139 C138 1.258 1_556 S
O140 Co137 1.966 . S
O140 C138 1.263 . S
C141 O142 1.235 . S
C141 O168 1.289 . S
O142 C141 1.235 . S
C143 C145 1.400 . S
C143 N146 1.351 . S
C143 C148 1.501 . S
C144 C145 1.387 . S
C144 N147 1.341 . S
C145 C143 1.400 . S
C145 C144 1.387 . S
N146 Co137 2.022 . S
N146 C143 1.351 . S
N146 N147 1.365 . S
N147 C144 1.341 . S
N147 N146 1.365 . S
N147 H167 0.862 . S
C148 C143 1.501 . S
C148 H149 0.961 . S
C148 H150 0.961 . S
C148 H151 0.960 . S
H149 C148 0.961 . S
H150 C148 0.961 . S
H151 C148 0.960 . S
C152 N153 1.342 . S
C152 C156 1.401 . S
C152 C157 1.499 . S
N153 Co136 1.989 . S
N153 C152 1.342 . S
N153 N154 1.388 1_556 S
N154 Co137 1.993 . S
N154 N153 1.388 1_554 S
N154 C155 1.346 . S
C155 N154 1.346 . S
C155 C156 1.396 1_554 S
C155 C165 1.510 . S
C156 C152 1.401 . S
C156 C155 1.396 1_556 S
C157 C152 1.499 . S
C157 H158 0.959 . S
C157 H159 0.960 . S
C157 H160 0.961 . S
H158 C157 0.959 . S
H159 C157 0.960 . S
H160 C157 0.961 . S
O161 Co136 1.967 . S
O161 C169 1.258 1_556 S
O162 Co137 1.941 . S
O162 C169 1.266 . S
H163 C165 0.959 . S
H164 C165 0.961 . S
C165 C155 1.510 . S
C165 H163 0.959 . S
C165 H164 0.961 . S
C165 H166 0.960 . S
H166 C165 0.960 . S
H167 N147 0.862 . S
O168 Co136 1.920 . S
O168 C141 1.289 . S
C169 O161 1.258 1_554 S
C169 O162 1.266 . S
Co170 O173 1.970 . S
Co170 N187 1.989 1_565 S
Co170 O195 1.967 . S
Co170 O202 1.920 . S
Co171 O174 1.966 1_545 S
Co171 N180 2.022 . S
Co171 N188 1.993 . S
Co171 O196 1.941 1_545 S
C172 O173 1.258 1_554 S
C172 O174 1.263 . S
O173 Co170 1.970 . S
O173 C172 1.258 1_556 S
O174 Co171 1.966 1_565 S
O174 C172 1.263 . S
C175 O176 1.235 . S
C175 O202 1.289 1_545 S
O176 C175 1.235 . S
C177 C179 1.400 . S
C177 N180 1.351 . S
C177 C182 1.501 . S
C178 C179 1.387 . S
C178 N181 1.341 . S
C179 C177 1.400 . S
C179 C178 1.387 . S
N180 Co171 2.022 . S
N180 C177 1.351 . S
N180 N181 1.365 . S
N181 C178 1.341 . S
N181 N180 1.365 . S
N181 H201 0.862 . S
C182 C177 1.501 . S
C182 H183 0.961 . S
C182 H184 0.961 . S
C182 H185 0.960 . S
H183 C182 0.961 . S
H184 C182 0.961 . S
H185 C182 0.960 . S
C186 N187 1.342 . S
C186 C190 1.401 . S
C186 C191 1.499 . S
N187 Co170 1.989 1_545 S
N187 C186 1.342 . S
N187 N188 1.388 1_556 S
N188 Co171 1.993 . S
N188 N187 1.388 1_554 S
N188 C189 1.346 . S
C189 N188 1.346 . S
C189 C190 1.396 1_554 S
C189 C199 1.510 . S
C190 C186 1.401 . S
C190 C189 1.396 1_556 S
C191 C186 1.499 . S
C191 H192 0.959 . S
C191 H193 0.960 . S
C191 H194 0.961 . S
H192 C191 0.959 . S
H193 C191 0.960 . S
H194 C191 0.961 . S
O195 Co170 1.967 . S
O195 C203 1.258 1_556 S
O196 Co171 1.941 1_565 S
O196 C203 1.266 . S
H197 C199 0.959 . S
H198 C199 0.961 . S
C199 C189 1.510 . S
C199 H197 0.959 . S
C199 H198 0.961 . S
C199 H200 0.960 . S
H200 C199 0.960 . S
H201 N181 0.862 . S
O202 Co170 1.920 . S
O202 C175 1.289 1_565 S
C203 O195 1.258 1_554 S
C203 O196 1.266 . S
Co204 O207 1.970 . S
Co204 N221 1.989 1_565 S
Co204 O229 1.967 . S
Co204 O236 1.920 . S
Co205 O208 1.966 1_545 S
Co205 N214 2.022 . S
Co205 N222 1.993 . S
Co205 O230 1.941 1_545 S
C206 O207 1.258 . S
C206 O208 1.263 . S
O207 Co204 1.970 . S
O207 C206 1.258 . S
O208 Co205 1.966 1_565 S
O208 C206 1.263 . S
C209 O210 1.235 . S
C209 O236 1.289 1_545 S
O210 C209 1.235 . S
C211 C213 1.400 . S
C211 N214 1.351 . S
C211 C216 1.501 . S
C212 C213 1.387 . S
C212 N215 1.341 . S
C213 C211 1.400 . S
C213 C212 1.387 . S
N214 Co205 2.022 . S
N214 C211 1.351 . S
N214 N215 1.365 . S
N215 C212 1.341 . S
N215 N214 1.365 . S
N215 H235 0.862 . S
C216 C211 1.501 . S
C216 H217 0.961 . S
C216 H218 0.961 . S
C216 H219 0.960 . S
H217 C216 0.961 . S
H218 C216 0.961 . S
H219 C216 0.960 . S
C220 N221 1.342 . S
C220 C224 1.401 . S
C220 C225 1.499 . S
N221 Co204 1.989 1_545 S
N221 C220 1.342 . S
N221 N222 1.388 . S
N222 Co205 1.993 . S
N222 N221 1.388 . S
N222 C223 1.346 . S
C223 N222 1.346 . S
C223 C224 1.396 . S
C223 C233 1.510 . S
C224 C220 1.401 . S
C224 C223 1.396 . S
C225 C220 1.499 . S
C225 H226 0.959 . S
C225 H227 0.960 . S
C225 H228 0.961 . S
H226 C225 0.959 . S
H227 C225 0.960 . S
H228 C225 0.961 . S
O229 Co204 1.967 . S
O229 C237 1.258 . S
O230 Co205 1.941 1_565 S
O230 C237 1.266 . S
H231 C233 0.959 . S
H232 C233 0.961 . S
C233 C223 1.510 . S
C233 H231 0.959 . S
C233 H232 0.961 . S
C233 H234 0.960 . S
H234 C233 0.960 . S
H235 N215 0.862 . S
O236 Co204 1.920 . S
O236 C209 1.289 1_565 S
C237 O229 1.258 . S
C237 O230 1.266 . S
Co238 O241 1.970 . S
Co238 N255 1.989 . S
Co238 O263 1.967 . S
Co238 O270 1.920 . S
Co239 O242 1.966 . S
Co239 N248 2.022 . S
Co239 N256 1.993 . S
Co239 O264 1.941 . S
C240 O241 1.258 . S
C240 O242 1.263 . S
O241 Co238 1.970 . S
O241 C240 1.258 . S
O242 Co239 1.966 . S
O242 C240 1.263 . S
C243 O244 1.235 . S
C243 O270 1.289 . S
O244 C243 1.235 . S
C245 C247 1.400 . S
C245 N248 1.351 . S
C245 C250 1.501 . S
C246 C247 1.387 . S
C246 N249 1.341 . S
C247 C245 1.400 . S
C247 C246 1.387 . S
N248 Co239 2.022 . S
N248 C245 1.351 . S
N248 N249 1.365 . S
N249 C246 1.341 . S
N249 N248 1.365 . S
N249 H269 0.862 . S
C250 C245 1.501 . S
C250 H251 0.961 . S
C250 H252 0.961 . S
C250 H253 0.960 . S
H251 C250 0.961 . S
H252 C250 0.961 . S
H253 C250 0.960 . S
C254 N255 1.342 . S
C254 C258 1.401 . S
C254 C259 1.499 . S
N255 Co238 1.989 . S
N255 C254 1.342 . S
N255 N256 1.388 . S
N256 Co239 1.993 . S
N256 N255 1.388 . S
N256 C257 1.346 . S
C257 N256 1.346 . S
C257 C258 1.396 . S
C257 C267 1.510 . S
C258 C254 1.401 . S
C258 C257 1.396 . S
C259 C254 1.499 . S
C259 H260 0.959 . S
C259 H261 0.960 . S
C259 H262 0.961 . S
H260 C259 0.959 . S
H261 C259 0.960 . S
H262 C259 0.961 . S
O263 Co238 1.967 . S
O263 C271 1.258 . S
O264 Co239 1.941 . S
O264 C271 1.266 . S
H265 C267 0.959 . S
H266 C267 0.961 . S
C267 C257 1.510 . S
C267 H265 0.959 . S
C267 H266 0.961 . S
C267 H268 0.960 . S
H268 C267 0.960 . S
H269 N249 0.862 . S
O270 Co238 1.920 . S
O270 C243 1.289 . S
C271 O263 1.258 . S
C271 O264 1.266 . S
Co272 O275 1.970 . S
Co272 N289 1.989 . S
Co272 O297 1.967 . S
Co272 O304 1.920 . S
Co273 O276 1.966 . S
Co273 N282 2.022 . S
Co273 N290 1.993 . S
Co273 O298 1.941 . S
C274 O275 1.258 . S
C274 O276 1.263 . S
O275 Co272 1.970 . S
O275 C274 1.258 . S
O276 Co273 1.966 . S
O276 C274 1.263 . S
C277 O278 1.235 . S
C277 O304 1.289 . S
O278 C277 1.235 . S
C279 C281 1.400 . S
C279 N282 1.351 . S
C279 C284 1.501 . S
C280 C281 1.387 . S
C280 N283 1.341 . S
C281 C279 1.400 . S
C281 C280 1.387 . S
N282 Co273 2.022 . S
N282 C279 1.351 . S
N282 N283 1.365 . S
N283 C280 1.341 . S
N283 N282 1.365 . S
N283 H303 0.862 . S
C284 C279 1.501 . S
C284 H285 0.961 . S
C284 H286 0.961 . S
C284 H287 0.960 . S
H285 C284 0.961 . S
H286 C284 0.961 . S
H287 C284 0.960 . S
C288 N289 1.342 . S
C288 C292 1.401 . S
C288 C293 1.499 . S
N289 Co272 1.989 . S
N289 C288 1.342 . S
N289 N290 1.388 . S
N290 Co273 1.993 . S
N290 N289 1.388 . S
N290 C291 1.346 . S
C291 N290 1.346 . S
C291 C292 1.396 . S
C291 C301 1.510 . S
C292 C288 1.401 . S
C292 C291 1.396 . S
C293 C288 1.499 . S
C293 H294 0.959 . S
C293 H295 0.960 . S
C293 H296 0.961 . S
H294 C293 0.959 . S
H295 C293 0.960 . S
H296 C293 0.961 . S
O297 Co272 1.967 . S
O297 C305 1.258 . S
O298 Co273 1.941 . S
O298 C305 1.266 . S
H299 C301 0.959 . S
H300 C301 0.961 . S
C301 C291 1.510 . S
C301 H299 0.959 . S
C301 H300 0.961 . S
C301 H302 0.960 . S
H302 C301 0.960 . S
H303 N283 0.862 . S
O304 Co272 1.920 . S
O304 C277 1.289 . S
C305 O297 1.258 . S
C305 O298 1.266 . S
Co306 O309 1.970 . S
Co306 N323 1.989 . S
Co306 O331 1.967 . S
Co306 O338 1.920 . S
Co307 O310 1.966 . S
Co307 N316 2.022 . S
Co307 N324 1.993 . S
Co307 O332 1.941 . S
C308 O309 1.258 . S
C308 O310 1.263 . S
O309 Co306 1.970 . S
O309 C308 1.258 . S
O310 Co307 1.966 . S
O310 C308 1.263 . S
C311 O312 1.235 . S
C311 O338 1.289 . S
O312 C311 1.235 . S
C313 C315 1.400 . S
C313 N316 1.351 . S
C313 C318 1.501 . S
C314 C315 1.387 . S
C314 N317 1.341 . S
C315 C313 1.400 . S
C315 C314 1.387 . S
N316 Co307 2.022 . S
N316 C313 1.351 . S
N316 N317 1.365 . S
N317 C314 1.341 . S
N317 N316 1.365 . S
N317 H337 0.862 . S
C318 C313 1.501 . S
C318 H319 0.961 . S
C318 H320 0.961 . S
C318 H321 0.960 . S
H319 C318 0.961 . S
H320 C318 0.961 . S
H321 C318 0.960 . S
C322 N323 1.342 . S
C322 C326 1.401 . S
C322 C327 1.499 . S
N323 Co306 1.989 . S
N323 C322 1.342 . S
N323 N324 1.388 . S
N324 Co307 1.993 . S
N324 N323 1.388 . S
N324 C325 1.346 . S
C325 N324 1.346 . S
C325 C326 1.396 . S
C325 C335 1.510 . S
C326 C322 1.401 . S
C326 C325 1.396 . S
C327 C322 1.499 . S
C327 H328 0.959 . S
C327 H329 0.960 . S
C327 H330 0.961 . S
H328 C327 0.959 . S
H329 C327 0.960 . S
H330 C327 0.961 . S
O331 Co306 1.967 . S
O331 C339 1.258 . S
O332 Co307 1.941 . S
O332 C339 1.266 . S
H333 C335 0.959 . S
H334 C335 0.961 . S
C335 C325 1.510 . S
C335 H333 0.959 . S
C335 H334 0.961 . S
C335 H336 0.960 . S
H336 C335 0.960 . S
H337 N317 0.862 . S
O338 Co306 1.920 . S
O338 C311 1.289 . S
C339 O331 1.258 . S
C339 O332 1.266 . S
Co340 O343 1.970 . S
Co340 N357 1.989 . S
Co340 O365 1.967 . S
Co340 O372 1.920 . S
Co341 O344 1.966 . S
Co341 N350 2.022 . S
Co341 N358 1.993 . S
Co341 O366 1.941 . S
C342 O343 1.258 . S
C342 O344 1.263 . S
O343 Co340 1.970 . S
O343 C342 1.258 . S
O344 Co341 1.966 . S
O344 C342 1.263 . S
C345 O346 1.235 . S
C345 O372 1.289 . S
O346 C345 1.235 . S
C347 C349 1.400 . S
C347 N350 1.351 . S
C347 C352 1.501 . S
C348 C349 1.387 . S
C348 N351 1.341 . S
C349 C347 1.400 . S
C349 C348 1.387 . S
N350 Co341 2.022 . S
N350 C347 1.351 . S
N350 N351 1.365 . S
N351 C348 1.341 . S
N351 N350 1.365 . S
N351 H371 0.862 . S
C352 C347 1.501 . S
C352 H353 0.961 . S
C352 H354 0.961 . S
C352 H355 0.960 . S
H353 C352 0.961 . S
H354 C352 0.961 . S
H355 C352 0.960 . S
C356 N357 1.342 . S
C356 C360 1.401 . S
C356 C361 1.499 . S
N357 Co340 1.989 . S
N357 C356 1.342 . S
N357 N358 1.388 . S
N358 Co341 1.993 . S
N358 N357 1.388 . S
N358 C359 1.346 . S
C359 N358 1.346 . S
C359 C360 1.396 . S
C359 C369 1.510 . S
C360 C356 1.401 . S
C360 C359 1.396 . S
C361 C356 1.499 . S
C361 H362 0.959 . S
C361 H363 0.960 . S
C361 H364 0.961 . S
H362 C361 0.959 . S
H363 C361 0.960 . S
H364 C361 0.961 . S
O365 Co340 1.967 . S
O365 C373 1.258 . S
O366 Co341 1.941 . S
O366 C373 1.266 . S
H367 C369 0.959 . S
H368 C369 0.961 . S
C369 C359 1.510 . S
C369 H367 0.959 . S
C369 H368 0.961 . S
C369 H370 0.960 . S
H370 C369 0.960 . S
H371 N351 0.862 . S
O372 Co340 1.920 . S
O372 C345 1.289 . S
C373 O365 1.258 . S
C373 O366 1.266 . S
Co374 O377 1.970 . S
Co374 N391 1.989 . S
Co374 O399 1.967 . S
Co374 O406 1.920 . S
Co375 O378 1.966 . S
Co375 N384 2.022 . S
Co375 N392 1.993 . S
Co375 O400 1.941 . S
C376 O377 1.258 . S
C376 O378 1.263 . S
O377 Co374 1.970 . S
O377 C376 1.258 . S
O378 Co375 1.966 . S
O378 C376 1.263 . S
C379 O380 1.235 . S
C379 O406 1.289 . S
O380 C379 1.235 . S
C381 C383 1.400 . S
C381 N384 1.351 . S
C381 C386 1.501 . S
C382 C383 1.387 . S
C382 N385 1.341 . S
C383 C381 1.400 . S
C383 C382 1.387 . S
N384 Co375 2.022 . S
N384 C381 1.351 . S
N384 N385 1.365 . S
N385 C382 1.341 . S
N385 N384 1.365 . S
N385 H405 0.862 . S
C386 C381 1.501 . S
C386 H387 0.961 . S
C386 H388 0.961 . S
C386 H389 0.960 . S
H387 C386 0.961 . S
H388 C386 0.961 . S
H389 C386 0.960 . S
C390 N391 1.342 . S
C390 C394 1.401 . S
C390 C395 1.499 . S
N391 Co374 1.989 . S
N391 C390 1.342 . S
N391 N392 1.388 . S
N392 Co375 1.993 . S
N392 N391 1.388 . S
N392 C393 1.346 . S
C393 N392 1.346 . S
C393 C394 1.396 . S
C393 C403 1.510 . S
C394 C390 1.401 . S
C394 C393 1.396 . S
C395 C390 1.499 . S
C395 H396 0.959 . S
C395 H397 0.960 . S
C395 H398 0.961 . S
H396 C395 0.959 . S
H397 C395 0.960 . S
H398 C395 0.961 . S
O399 Co374 1.967 . S
O399 C407 1.258 . S
O400 Co375 1.941 . S
O400 C407 1.266 . S
H401 C403 0.959 . S
H402 C403 0.961 . S
C403 C393 1.510 . S
C403 H401 0.959 . S
C403 H402 0.961 . S
C403 H404 0.960 . S
H404 C403 0.960 . S
H405 N385 0.862 . S
O406 Co374 1.920 . S
O406 C379 1.289 . S
C407 O399 1.258 . S
C407 O400 1.266 . S
Co408 O411 1.970 . S
Co408 N425 1.989 . S
Co408 O433 1.967 . S
Co408 O440 1.920 . S
Co409 O412 1.966 . S
Co409 N418 2.022 . S
Co409 N426 1.993 . S
Co409 O434 1.941 . S
C410 O411 1.258 . S
C410 O412 1.263 . S
O411 Co408 1.970 . S
O411 C410 1.258 . S
O412 Co409 1.966 . S
O412 C410 1.263 . S
C413 O414 1.235 . S
C413 O440 1.289 . S
O414 C413 1.235 . S
C415 C417 1.400 . S
C415 N418 1.351 . S
C415 C420 1.501 . S
C416 C417 1.387 . S
C416 N419 1.341 . S
C417 C415 1.400 . S
C417 C416 1.387 . S
N418 Co409 2.022 . S
N418 C415 1.351 . S
N418 N419 1.365 . S
N419 C416 1.341 . S
N419 N418 1.365 . S
N419 H439 0.862 . S
C420 C415 1.501 . S
C420 H421 0.961 . S
C420 H422 0.961 . S
C420 H423 0.960 . S
H421 C420 0.961 . S
H422 C420 0.961 . S
H423 C420 0.960 . S
C424 N425 1.342 . S
C424 C428 1.401 . S
C424 C429 1.499 . S
N425 Co408 1.989 . S
N425 C424 1.342 . S
N425 N426 1.388 . S
N426 Co409 1.993 . S
N426 N425 1.388 . S
N426 C427 1.346 . S
C427 N426 1.346 . S
C427 C428 1.396 . S
C427 C437 1.510 . S
C428 C424 1.401 . S
C428 C427 1.396 . S
C429 C424 1.499 . S
C429 H430 0.959 . S
C429 H431 0.960 . S
C429 H432 0.961 . S
H430 C429 0.959 . S
H431 C429 0.960 . S
H432 C429 0.961 . S
O433 Co408 1.967 . S
O433 C441 1.258 . S
O434 Co409 1.941 . S
O434 C441 1.266 . S
H435 C437 0.959 . S
H436 C437 0.961 . S
C437 C427 1.510 . S
C437 H435 0.959 . S
C437 H436 0.961 . S
C437 H438 0.960 . S
H438 C437 0.960 . S
H439 N419 0.862 . S
O440 Co408 1.920 . S
O440 C413 1.289 . S
C441 O433 1.258 . S
C441 O434 1.266 . S
Co442 O445 1.970 . S
Co442 N459 1.989 . S
Co442 O467 1.967 . S
Co442 O474 1.920 . S
Co443 O446 1.966 . S
Co443 N452 2.022 . S
Co443 N460 1.993 . S
Co443 O468 1.941 . S
C444 O445 1.258 . S
C444 O446 1.263 . S
O445 Co442 1.970 . S
O445 C444 1.258 . S
O446 Co443 1.966 . S
O446 C444 1.263 . S
C447 O448 1.235 . S
C447 O474 1.289 . S
O448 C447 1.235 . S
C449 C451 1.400 . S
C449 N452 1.351 . S
C449 C454 1.501 . S
C450 C451 1.387 . S
C450 N453 1.341 . S
C451 C449 1.400 . S
C451 C450 1.387 . S
N452 Co443 2.022 . S
N452 C449 1.351 . S
N452 N453 1.365 . S
N453 C450 1.341 . S
N453 N452 1.365 . S
N453 H473 0.862 . S
C454 C449 1.501 . S
C454 H455 0.961 . S
C454 H456 0.961 . S
C454 H457 0.960 . S
H455 C454 0.961 . S
H456 C454 0.961 . S
H457 C454 0.960 . S
C458 N459 1.342 . S
C458 C462 1.401 . S
C458 C463 1.499 . S
N459 Co442 1.989 . S
N459 C458 1.342 . S
N459 N460 1.388 . S
N460 Co443 1.993 . S
N460 N459 1.388 . S
N460 C461 1.346 . S
C461 N460 1.346 . S
C461 C462 1.396 . S
C461 C471 1.510 . S
C462 C458 1.401 . S
C462 C461 1.396 . S
C463 C458 1.499 . S
C463 H464 0.959 . S
C463 H465 0.960 . S
C463 H466 0.961 . S
H464 C463 0.959 . S
H465 C463 0.960 . S
H466 C463 0.961 . S
O467 Co442 1.967 . S
O467 C475 1.258 . S
O468 Co443 1.941 . S
O468 C475 1.266 . S
H469 C471 0.959 . S
H470 C471 0.961 . S
C471 C461 1.510 . S
C471 H469 0.959 . S
C471 H470 0.961 . S
C471 H472 0.960 . S
H472 C471 0.960 . S
H473 N453 0.862 . S
O474 Co442 1.920 . S
O474 C447 1.289 . S
C475 O467 1.258 . S
C475 O468 1.266 . S
Co476 O479 1.970 . S
Co476 N493 1.989 . S
Co476 O501 1.967 . S
Co476 O508 1.920 . S
Co477 O480 1.966 . S
Co477 N486 2.022 . S
Co477 N494 1.993 . S
Co477 O502 1.941 . S
C478 O479 1.258 . S
C478 O480 1.263 . S
O479 Co476 1.970 . S
O479 C478 1.258 . S
O480 Co477 1.966 . S
O480 C478 1.263 . S
C481 O482 1.235 . S
C481 O508 1.289 . S
O482 C481 1.235 . S
C483 C485 1.400 . S
C483 N486 1.351 . S
C483 C488 1.501 . S
C484 C485 1.387 . S
C484 N487 1.341 . S
C485 C483 1.400 . S
C485 C484 1.387 . S
N486 Co477 2.022 . S
N486 C483 1.351 . S
N486 N487 1.365 . S
N487 C484 1.341 . S
N487 N486 1.365 . S
N487 H507 0.862 . S
C488 C483 1.501 . S
C488 H489 0.961 . S
C488 H490 0.961 . S
C488 H491 0.960 . S
H489 C488 0.961 . S
H490 C488 0.961 . S
H491 C488 0.960 . S
C492 N493 1.342 . S
C492 C496 1.401 . S
C492 C497 1.499 . S
N493 Co476 1.989 . S
N493 C492 1.342 . S
N493 N494 1.388 . S
N494 Co477 1.993 . S
N494 N493 1.388 . S
N494 C495 1.346 . S
C495 N494 1.346 . S
C495 C496 1.396 . S
C495 C505 1.510 . S
C496 C492 1.401 . S
C496 C495 1.396 . S
C497 C492 1.499 . S
C497 H498 0.959 . S
C497 H499 0.960 . S
C497 H500 0.961 . S
H498 C497 0.959 . S
H499 C497 0.960 . S
H500 C497 0.961 . S
O501 Co476 1.967 . S
O501 C509 1.258 . S
O502 Co477 1.941 . S
O502 C509 1.266 . S
H503 C505 0.959 . S
H504 C505 0.961 . S
C505 C495 1.510 . S
C505 H503 0.959 . S
C505 H504 0.961 . S
C505 H506 0.960 . S
H506 C505 0.960 . S
H507 N487 0.862 . S
O508 Co476 1.920 . S
O508 C481 1.289 . S
C509 O501 1.258 . S
C509 O502 1.266 . S
Co510 O513 1.970 . S
Co510 N527 1.989 . S
Co510 O535 1.967 . S
Co510 O542 1.920 . S
Co511 O514 1.966 . S
Co511 N520 2.022 . S
Co511 N528 1.993 . S
Co511 O536 1.941 . S
C512 O513 1.258 . S
C512 O514 1.263 . S
O513 Co510 1.970 . S
O513 C512 1.258 . S
O514 Co511 1.966 . S
O514 C512 1.263 . S
C515 O516 1.235 . S
C515 O542 1.289 . S
O516 C515 1.235 . S
C517 C519 1.400 . S
C517 N520 1.351 . S
C517 C522 1.501 . S
C518 C519 1.387 . S
C518 N521 1.341 . S
C519 C517 1.400 . S
C519 C518 1.387 . S
N520 Co511 2.022 . S
N520 C517 1.351 . S
N520 N521 1.365 . S
N521 C518 1.341 . S
N521 N520 1.365 . S
N521 H541 0.862 . S
C522 C517 1.501 . S
C522 H523 0.961 . S
C522 H524 0.961 . S
C522 H525 0.960 . S
H523 C522 0.961 . S
H524 C522 0.961 . S
H525 C522 0.960 . S
C526 N527 1.342 . S
C526 C530 1.401 . S
C526 C531 1.499 . S
N527 Co510 1.989 . S
N527 C526 1.342 . S
N527 N528 1.388 . S
N528 Co511 1.993 . S
N528 N527 1.388 . S
N528 C529 1.346 . S
C529 N528 1.346 . S
C529 C530 1.396 . S
C529 C539 1.510 . S
C530 C526 1.401 . S
C530 C529 1.396 . S
C531 C526 1.499 . S
C531 H532 0.959 . S
C531 H533 0.960 . S
C531 H534 0.961 . S
H532 C531 0.959 . S
H533 C531 0.960 . S
H534 C531 0.961 . S
O535 Co510 1.967 . S
O535 C543 1.258 . S
O536 Co511 1.941 . S
O536 C543 1.266 . S
H537 C539 0.959 . S
H538 C539 0.961 . S
C539 C529 1.510 . S
C539 H537 0.959 . S
C539 H538 0.961 . S
C539 H540 0.960 . S
H540 C539 0.960 . S
H541 N521 0.862 . S
O542 Co510 1.920 . S
O542 C515 1.289 . S
C543 O535 1.258 . S
C543 O536 1.266 . S
Co544 O547 1.970 . S
Co544 N561 1.989 . S
Co544 O569 1.967 . S
Co544 O576 1.920 . S
Co545 O548 1.966 . S
Co545 N554 2.022 . S
Co545 N562 1.993 . S
Co545 O570 1.941 . S
C546 O547 1.258 . S
C546 O548 1.263 . S
O547 Co544 1.970 . S
O547 C546 1.258 . S
O548 Co545 1.966 . S
O548 C546 1.263 . S
C549 O550 1.235 . S
C549 O576 1.289 . S
O550 C549 1.235 . S
C551 C553 1.400 . S
C551 N554 1.351 . S
C551 C556 1.501 . S
C552 C553 1.387 . S
C552 N555 1.341 . S
C553 C551 1.400 . S
C553 C552 1.387 . S
N554 Co545 2.022 . S
N554 C551 1.351 . S
N554 N555 1.365 . S
N555 C552 1.341 . S
N555 N554 1.365 . S
N555 H575 0.862 . S
C556 C551 1.501 . S
C556 H557 0.961 . S
C556 H558 0.961 . S
C556 H559 0.960 . S
H557 C556 0.961 . S
H558 C556 0.961 . S
H559 C556 0.960 . S
C560 N561 1.342 . S
C560 C564 1.401 . S
C560 C565 1.499 . S
N561 Co544 1.989 . S
N561 C560 1.342 . S
N561 N562 1.388 . S
N562 Co545 1.993 . S
N562 N561 1.388 . S
N562 C563 1.346 . S
C563 N562 1.346 . S
C563 C564 1.396 . S
C563 C573 1.510 . S
C564 C560 1.401 . S
C564 C563 1.396 . S
C565 C560 1.499 . S
C565 H566 0.959 . S
C565 H567 0.960 . S
C565 H568 0.961 . S
H566 C565 0.959 . S
H567 C565 0.960 . S
H568 C565 0.961 . S
O569 Co544 1.967 . S
O569 C577 1.258 . S
O570 Co545 1.941 . S
O570 C577 1.266 . S
H571 C573 0.959 . S
H572 C573 0.961 . S
C573 C563 1.510 . S
C573 H571 0.959 . S
C573 H572 0.961 . S
C573 H574 0.960 . S
H574 C573 0.960 . S
H575 N555 0.862 . S
O576 Co544 1.920 . S
O576 C549 1.289 . S
C577 O569 1.258 . S
C577 O570 1.266 . S
Co578 O581 1.970 . S
Co578 N595 1.989 . S
Co578 O603 1.967 . S
Co578 O610 1.920 . S
Co579 O582 1.966 . S
Co579 N588 2.022 . S
Co579 N596 1.993 1_545 S
Co579 O604 1.941 . S
C580 O581 1.258 . S
C580 O582 1.263 . S
O581 Co578 1.970 . S
O581 C580 1.258 . S
O582 Co579 1.966 . S
O582 C580 1.263 . S
C583 O584 1.235 . S
C583 O610 1.289 . S
O584 C583 1.235 . S
C585 C587 1.400 1_545 S
C585 N588 1.351 . S
C585 C590 1.501 . S
C586 C587 1.387 . S
C586 N589 1.341 1_565 S
C587 C585 1.400 1_565 S
C587 C586 1.387 . S
N588 Co579 2.022 . S
N588 C585 1.351 . S
N588 N589 1.365 . S
N589 C586 1.341 1_545 S
N589 N588 1.365 . S
N589 H609 0.862 . S
C590 C585 1.501 . S
C590 H591 0.961 . S
C590 H592 0.961 1_545 S
C590 H593 0.960 . S
H591 C590 0.961 . S
H592 C590 0.961 1_565 S
H593 C590 0.960 . S
C594 N595 1.342 1_565 S
C594 C598 1.401 . S
C594 C599 1.499 . S
N595 Co578 1.989 . S
N595 C594 1.342 1_545 S
N595 N596 1.388 1_545 S
N596 Co579 1.993 1_565 S
N596 N595 1.388 1_565 S
N596 C597 1.346 . S
C597 N596 1.346 . S
C597 C598 1.396 . S
C597 C607 1.510 . S
C598 C594 1.401 . S
C598 C597 1.396 . S
C599 C594 1.499 . S
C599 H600 0.959 . S
C599 H601 0.960 . S
C599 H602 0.961 . S
H600 C599 0.959 . S
H601 C599 0.960 . S
H602 C599 0.961 . S
O603 Co578 1.967 . S
O603 C611 1.258 . S
O604 Co579 1.941 . S
O604 C611 1.266 . S
H605 C607 0.959 . S
H606 C607 0.961 . S
C607 C597 1.510 . S
C607 H605 0.959 . S
C607 H606 0.961 . S
C607 H608 0.960 . S
H608 C607 0.960 . S
H609 N589 0.862 . S
O610 Co578 1.920 . S
O610 C583 1.289 . S
C611 O603 1.258 . S
C611 O604 1.266 . S
Co612 O615 1.970 . S
Co612 N629 1.989 . S
Co612 O637 1.967 . S
Co612 O644 1.920 . S
Co613 O616 1.966 . S
Co613 N622 2.022 . S
Co613 N630 1.993 1_545 S
Co613 O638 1.941 . S
C614 O615 1.258 . S
C614 O616 1.263 . S
O615 Co612 1.970 . S
O615 C614 1.258 . S
O616 Co613 1.966 . S
O616 C614 1.263 . S
C617 O618 1.235 . S
C617 O644 1.289 . S
O618 C617 1.235 . S
C619 C621 1.400 1_545 S
C619 N622 1.351 . S
C619 C624 1.501 . S
C620 C621 1.387 . S
C620 N623 1.341 1_565 S
C621 C619 1.400 1_565 S
C621 C620 1.387 . S
N622 Co613 2.022 . S
N622 C619 1.351 . S
N622 N623 1.365 . S
N623 C620 1.341 1_545 S
N623 N622 1.365 . S
N623 H643 0.862 . S
C624 C619 1.501 . S
C624 H625 0.961 . S
C624 H626 0.961 1_545 S
C624 H627 0.960 . S
H625 C624 0.961 . S
H626 C624 0.961 1_565 S
H627 C624 0.960 . S
C628 N629 1.342 1_565 S
C628 C632 1.401 . S
C628 C633 1.499 . S
N629 Co612 1.989 . S
N629 C628 1.342 1_545 S
N629 N630 1.388 1_545 S
N630 Co613 1.993 1_565 S
N630 N629 1.388 1_565 S
N630 C631 1.346 . S
C631 N630 1.346 . S
C631 C632 1.396 . S
C631 C641 1.510 . S
C632 C628 1.401 . S
C632 C631 1.396 . S
C633 C628 1.499 . S
C633 H634 0.959 . S
C633 H635 0.960 . S
C633 H636 0.961 . S
H634 C633 0.959 . S
H635 C633 0.960 . S
H636 C633 0.961 . S
O637 Co612 1.967 . S
O637 C645 1.258 . S
O638 Co613 1.941 . S
O638 C645 1.266 . S
H639 C641 0.959 . S
H640 C641 0.961 . S
C641 C631 1.510 . S
C641 H639 0.959 . S
C641 H640 0.961 . S
C641 H642 0.960 . S
H642 C641 0.960 . S
H643 N623 0.862 . S
O644 Co612 1.920 . S
O644 C617 1.289 . S
C645 O637 1.258 . S
C645 O638 1.266 . S
Co646 O649 1.970 . S
Co646 N663 1.989 . S
Co646 O671 1.967 . S
Co646 O678 1.920 . S
Co647 O650 1.966 . S
Co647 N656 2.022 . S
Co647 N664 1.993 . S
Co647 O672 1.941 . S
C648 O649 1.258 . S
C648 O650 1.263 . S
O649 Co646 1.970 . S
O649 C648 1.258 . S
O650 Co647 1.966 . S
O650 C648 1.263 . S
C651 O652 1.235 . S
C651 O678 1.289 . S
O652 C651 1.235 . S
C653 C655 1.400 . S
C653 N656 1.351 . S
C653 C658 1.501 . S
C654 C655 1.387 . S
C654 N657 1.341 . S
C655 C653 1.400 . S
C655 C654 1.387 . S
N656 Co647 2.022 . S
N656 C653 1.351 . S
N656 N657 1.365 . S
N657 C654 1.341 . S
N657 N656 1.365 . S
N657 H677 0.862 . S
C658 C653 1.501 . S
C658 H659 0.961 . S
C658 H660 0.961 . S
C658 H661 0.960 . S
H659 C658 0.961 . S
H660 C658 0.961 . S
H661 C658 0.960 . S
C662 N663 1.342 . S
C662 C666 1.401 . S
C662 C667 1.499 . S
N663 Co646 1.989 . S
N663 C662 1.342 . S
N663 N664 1.388 . S
N664 Co647 1.993 . S
N664 N663 1.388 . S
N664 C665 1.346 . S
C665 N664 1.346 . S
C665 C666 1.396 . S
C665 C675 1.510 . S
C666 C662 1.401 . S
C666 C665 1.396 . S
C667 C662 1.499 . S
C667 H668 0.959 . S
C667 H669 0.960 . S
C667 H670 0.961 . S
H668 C667 0.959 . S
H669 C667 0.960 . S
H670 C667 0.961 . S
O671 Co646 1.967 . S
O671 C679 1.258 . S
O672 Co647 1.941 . S
O672 C679 1.266 . S
H673 C675 0.959 . S
H674 C675 0.961 . S
C675 C665 1.510 . S
C675 H673 0.959 . S
C675 H674 0.961 . S
C675 H676 0.960 . S
H676 C675 0.960 . S
H677 N657 0.862 . S
O678 Co646 1.920 . S
O678 C651 1.289 . S
C679 O671 1.258 . S
C679 O672 1.266 . S
Co680 O683 1.970 . S
Co680 N697 1.989 . S
Co680 O705 1.967 . S
Co680 O712 1.920 . S
Co681 O684 1.966 . S
Co681 N690 2.022 . S
Co681 N698 1.993 . S
Co681 O706 1.941 . S
C682 O683 1.258 . S
C682 O684 1.263 . S
O683 Co680 1.970 . S
O683 C682 1.258 . S
O684 Co681 1.966 . S
O684 C682 1.263 . S
C685 O686 1.235 . S
C685 O712 1.289 . S
O686 C685 1.235 . S
C687 C689 1.400 . S
C687 N690 1.351 . S
C687 C692 1.501 . S
C688 C689 1.387 . S
C688 N691 1.341 . S
C689 C687 1.400 . S
C689 C688 1.387 . S
N690 Co681 2.022 . S
N690 C687 1.351 . S
N690 N691 1.365 . S
N691 C688 1.341 . S
N691 N690 1.365 . S
N691 H711 0.862 . S
C692 C687 1.501 . S
C692 H693 0.961 . S
C692 H694 0.961 . S
C692 H695 0.960 . S
H693 C692 0.961 . S
H694 C692 0.961 . S
H695 C692 0.960 . S
C696 N697 1.342 . S
C696 C700 1.401 . S
C696 C701 1.499 . S
N697 Co680 1.989 . S
N697 C696 1.342 . S
N697 N698 1.388 . S
N698 Co681 1.993 . S
N698 N697 1.388 . S
N698 C699 1.346 . S
C699 N698 1.346 . S
C699 C700 1.396 . S
C699 C709 1.510 . S
C700 C696 1.401 . S
C700 C699 1.396 . S
C701 C696 1.499 . S
C701 H702 0.959 . S
C701 H703 0.960 . S
C701 H704 0.961 . S
H702 C701 0.959 . S
H703 C701 0.960 . S
H704 C701 0.961 . S
O705 Co680 1.967 . S
O705 C713 1.258 . S
O706 Co681 1.941 . S
O706 C713 1.266 . S
H707 C709 0.959 . S
H708 C709 0.961 . S
C709 C699 1.510 . S
C709 H707 0.959 . S
C709 H708 0.961 . S
C709 H710 0.960 . S
H710 C709 0.960 . S
H711 N691 0.862 . S
O712 Co680 1.920 . S
O712 C685 1.289 . S
C713 O705 1.258 . S
C713 O706 1.266 . S
Co714 O717 1.970 . S
Co714 N731 1.989 1_565 S
Co714 O739 1.967 . S
Co714 O746 1.920 . S
Co715 O718 1.966 1_545 S
Co715 N724 2.022 . S
Co715 N732 1.993 . S
Co715 O740 1.941 1_545 S
C716 O717 1.258 . S
C716 O718 1.263 . S
O717 Co714 1.970 . S
O717 C716 1.258 . S
O718 Co715 1.966 1_565 S
O718 C716 1.263 . S
C719 O720 1.235 . S
C719 O746 1.289 1_545 S
O720 C719 1.235 . S
C721 C723 1.400 . S
C721 N724 1.351 . S
C721 C726 1.501 . S
C722 C723 1.387 . S
C722 N725 1.341 . S
C723 C721 1.400 . S
C723 C722 1.387 . S
N724 Co715 2.022 . S
N724 C721 1.351 . S
N724 N725 1.365 . S
N725 C722 1.341 . S
N725 N724 1.365 . S
N725 H745 0.862 . S
C726 C721 1.501 . S
C726 H727 0.961 . S
C726 H728 0.961 . S
C726 H729 0.960 . S
H727 C726 0.961 . S
H728 C726 0.961 . S
H729 C726 0.960 . S
C730 N731 1.342 . S
C730 C734 1.401 . S
C730 C735 1.499 . S
N731 Co714 1.989 1_545 S
N731 C730 1.342 . S
N731 N732 1.388 . S
N732 Co715 1.993 . S
N732 N731 1.388 . S
N732 C733 1.346 . S
C733 N732 1.346 . S
C733 C734 1.396 . S
C733 C743 1.510 . S
C734 C730 1.401 . S
C734 C733 1.396 . S
C735 C730 1.499 . S
C735 H736 0.959 . S
C735 H737 0.960 . S
C735 H738 0.961 . S
H736 C735 0.959 . S
H737 C735 0.960 . S
H738 C735 0.961 . S
O739 Co714 1.967 . S
O739 C747 1.258 . S
O740 Co715 1.941 1_565 S
O740 C747 1.266 . S
H741 C743 0.959 . S
H742 C743 0.961 . S
C743 C733 1.510 . S
C743 H741 0.959 . S
C743 H742 0.961 . S
C743 H744 0.960 . S
H744 C743 0.960 . S
H745 N725 0.862 . S
O746 Co714 1.920 . S
O746 C719 1.289 1_565 S
C747 O739 1.258 . S
C747 O740 1.266 . S
Co748 O751 1.970 . S
Co748 N765 1.989 1_565 S
Co748 O773 1.967 . S
Co748 O780 1.920 . S
Co749 O752 1.966 1_545 S
Co749 N758 2.022 . S
Co749 N766 1.993 . S
Co749 O774 1.941 1_545 S
C750 O751 1.258 . S
C750 O752 1.263 . S
O751 Co748 1.970 . S
O751 C750 1.258 . S
O752 Co749 1.966 1_565 S
O752 C750 1.263 . S
C753 O754 1.235 . S
C753 O780 1.289 1_545 S
O754 C753 1.235 . S
C755 C757 1.400 . S
C755 N758 1.351 . S
C755 C760 1.501 . S
C756 C757 1.387 . S
C756 N759 1.341 . S
C757 C755 1.400 . S
C757 C756 1.387 . S
N758 Co749 2.022 . S
N758 C755 1.351 . S
N758 N759 1.365 . S
N759 C756 1.341 . S
N759 N758 1.365 . S
N759 H779 0.862 . S
C760 C755 1.501 . S
C760 H761 0.961 . S
C760 H762 0.961 . S
C760 H763 0.960 . S
H761 C760 0.961 . S
H762 C760 0.961 . S
H763 C760 0.960 . S
C764 N765 1.342 . S
C764 C768 1.401 . S
C764 C769 1.499 . S
N765 Co748 1.989 1_545 S
N765 C764 1.342 . S
N765 N766 1.388 . S
N766 Co749 1.993 . S
N766 N765 1.388 . S
N766 C767 1.346 . S
C767 N766 1.346 . S
C767 C768 1.396 . S
C767 C777 1.510 . S
C768 C764 1.401 . S
C768 C767 1.396 . S
C769 C764 1.499 . S
C769 H770 0.959 . S
C769 H771 0.960 . S
C769 H772 0.961 . S
H770 C769 0.959 . S
H771 C769 0.960 . S
H772 C769 0.961 . S
O773 Co748 1.967 . S
O773 C781 1.258 . S
O774 Co749 1.941 1_565 S
O774 C781 1.266 . S
H775 C777 0.959 . S
H776 C777 0.961 . S
C777 C767 1.510 . S
C777 H775 0.959 . S
C777 H776 0.961 . S
C777 H778 0.960 . S
H778 C777 0.960 . S
H779 N759 0.862 . S
O780 Co748 1.920 . S
O780 C753 1.289 1_565 S
C781 O773 1.258 . S
C781 O774 1.266 . S
Co782 O785 1.970 . S
Co782 N799 1.989 . S
Co782 O807 1.967 . S
Co782 O814 1.920 . S
Co783 O786 1.966 . S
Co783 N792 2.022 . S
Co783 N800 1.993 . S
Co783 O808 1.941 . S
C784 O785 1.258 . S
C784 O786 1.263 . S
O785 Co782 1.970 . S
O785 C784 1.258 . S
O786 Co783 1.966 . S
O786 C784 1.263 . S
C787 O788 1.235 . S
C787 O814 1.289 . S
O788 C787 1.235 . S
C789 C791 1.400 . S
C789 N792 1.351 . S
C789 C794 1.501 . S
C790 C791 1.387 . S
C790 N793 1.341 . S
C791 C789 1.400 . S
C791 C790 1.387 . S
N792 Co783 2.022 . S
N792 C789 1.351 . S
N792 N793 1.365 . S
N793 C790 1.341 . S
N793 N792 1.365 . S
N793 H813 0.862 . S
C794 C789 1.501 . S
C794 H795 0.961 . S
C794 H796 0.961 . S
C794 H797 0.960 . S
H795 C794 0.961 . S
H796 C794 0.961 . S
H797 C794 0.960 . S
C798 N799 1.342 . S
C798 C802 1.401 . S
C798 C803 1.499 . S
N799 Co782 1.989 . S
N799 C798 1.342 . S
N799 N800 1.388 . S
N800 Co783 1.993 . S
N800 N799 1.388 . S
N800 C801 1.346 . S
C801 N800 1.346 . S
C801 C802 1.396 . S
C801 C811 1.510 . S
C802 C798 1.401 . S
C802 C801 1.396 . S
C803 C798 1.499 . S
C803 H804 0.959 . S
C803 H805 0.960 . S
C803 H806 0.961 . S
H804 C803 0.959 . S
H805 C803 0.960 . S
H806 C803 0.961 . S
O807 Co782 1.967 . S
O807 C815 1.258 . S
O808 Co783 1.941 . S
O808 C815 1.266 . S
H809 C811 0.959 . S
H810 C811 0.961 . S
C811 C801 1.510 . S
C811 H809 0.959 . S
C811 H810 0.961 . S
C811 H812 0.960 . S
H812 C811 0.960 . S
H813 N793 0.862 . S
O814 Co782 1.920 . S
O814 C787 1.289 . S
C815 O807 1.258 . S
C815 O808 1.266 . S
Co816 O819 1.970 . S
Co816 N833 1.989 . S
Co816 O841 1.967 . S
Co816 O848 1.920 . S
Co817 O820 1.966 . S
Co817 N826 2.022 . S
Co817 N834 1.993 1_556 S
Co817 O842 1.941 . S
C818 O819 1.258 . S
C818 O820 1.263 1_554 S
O819 Co816 1.970 . S
O819 C818 1.258 . S
O820 Co817 1.966 . S
O820 C818 1.263 1_556 S
C821 O822 1.235 . S
C821 O848 1.289 . S
O822 C821 1.235 . S
C823 C825 1.400 . S
C823 N826 1.351 . S
C823 C828 1.501 . S
C824 C825 1.387 . S
C824 N827 1.341 . S
C825 C823 1.400 . S
C825 C824 1.387 . S
N826 Co817 2.022 . S
N826 C823 1.351 . S
N826 N827 1.365 . S
N827 C824 1.341 . S
N827 N826 1.365 . S
N827 H847 0.862 . S
C828 C823 1.501 . S
C828 H829 0.961 . S
C828 H830 0.961 . S
C828 H831 0.960 . S
H829 C828 0.961 . S
H830 C828 0.961 . S
H831 C828 0.960 . S
C832 N833 1.342 . S
C832 C836 1.401 . S
C832 C837 1.499 . S
N833 Co816 1.989 . S
N833 C832 1.342 . S
N833 N834 1.388 . S
N834 Co817 1.993 1_554 S
N834 N833 1.388 . S
N834 C835 1.346 . S
C835 N834 1.346 . S
C835 C836 1.396 . S
C835 C845 1.510 1_554 S
C836 C832 1.401 . S
C836 C835 1.396 . S
C837 C832 1.499 . S
C837 H838 0.959 . S
C837 H839 0.960 . S
C837 H840 0.961 . S
H838 C837 0.959 . S
H839 C837 0.960 . S
H840 C837 0.961 . S
O841 Co816 1.967 . S
O841 C849 1.258 . S
O842 Co817 1.941 . S
O842 C849 1.266 1_556 S
H843 C845 0.959 . S
H844 C845 0.961 . S
C845 C835 1.510 1_556 S
C845 H843 0.959 . S
C845 H844 0.961 . S
C845 H846 0.960 . S
H846 C845 0.960 . S
H847 N827 0.862 . S
O848 Co816 1.920 . S
O848 C821 1.289 . S
C849 O841 1.258 . S
C849 O842 1.266 1_554 S
Co850 O853 1.970 . S
Co850 N867 1.989 . S
Co850 O875 1.967 . S
Co850 O882 1.920 . S
Co851 O854 1.966 . S
Co851 N860 2.022 . S
Co851 N868 1.993 1_556 S
Co851 O876 1.941 . S
C852 O853 1.258 . S
C852 O854 1.263 1_554 S
O853 Co850 1.970 . S
O853 C852 1.258 . S
O854 Co851 1.966 . S
O854 C852 1.263 1_556 S
C855 O856 1.235 . S
C855 O882 1.289 . S
O856 C855 1.235 . S
C857 C859 1.400 . S
C857 N860 1.351 . S
C857 C862 1.501 . S
C858 C859 1.387 . S
C858 N861 1.341 . S
C859 C857 1.400 . S
C859 C858 1.387 . S
N860 Co851 2.022 . S
N860 C857 1.351 . S
N860 N861 1.365 . S
N861 C858 1.341 . S
N861 N860 1.365 . S
N861 H881 0.862 . S
C862 C857 1.501 . S
C862 H863 0.961 . S
C862 H864 0.961 . S
C862 H865 0.960 . S
H863 C862 0.961 . S
H864 C862 0.961 . S
H865 C862 0.960 . S
C866 N867 1.342 . S
C866 C870 1.401 . S
C866 C871 1.499 . S
N867 Co850 1.989 . S
N867 C866 1.342 . S
N867 N868 1.388 . S
N868 Co851 1.993 1_554 S
N868 N867 1.388 . S
N868 C869 1.346 . S
C869 N868 1.346 . S
C869 C870 1.396 . S
C869 C879 1.510 1_554 S
C870 C866 1.401 . S
C870 C869 1.396 . S
C871 C866 1.499 . S
C871 H872 0.959 . S
C871 H873 0.960 . S
C871 H874 0.961 . S
H872 C871 0.959 . S
H873 C871 0.960 . S
H874 C871 0.961 . S
O875 Co850 1.967 . S
O875 C883 1.258 . S
O876 Co851 1.941 . S
O876 C883 1.266 1_556 S
H877 C879 0.959 . S
H878 C879 0.961 . S
C879 C869 1.510 1_556 S
C879 H877 0.959 . S
C879 H878 0.961 . S
C879 H880 0.960 . S
H880 C879 0.960 . S
H881 N861 0.862 . S
O882 Co850 1.920 . S
O882 C855 1.289 . S
C883 O875 1.258 . S
C883 O876 1.266 1_554 S
Co884 O887 1.970 . S
Co884 N901 1.989 . S
Co884 O909 1.967 . S
Co884 O916 1.920 . S
Co885 O888 1.966 . S
Co885 N894 2.022 . S
Co885 N902 1.993 . S
Co885 O910 1.941 . S
C886 O887 1.258 . S
C886 O888 1.263 . S
O887 Co884 1.970 . S
O887 C886 1.258 . S
O888 Co885 1.966 . S
O888 C886 1.263 . S
C889 O890 1.235 . S
C889 O916 1.289 . S
O890 C889 1.235 . S
C891 C893 1.400 . S
C891 N894 1.351 . S
C891 C896 1.501 . S
C892 C893 1.387 . S
C892 N895 1.341 . S
C893 C891 1.400 . S
C893 C892 1.387 . S
N894 Co885 2.022 . S
N894 C891 1.351 . S
N894 N895 1.365 . S
N895 C892 1.341 . S
N895 N894 1.365 . S
N895 H915 0.862 . S
C896 C891 1.501 . S
C896 H897 0.961 . S
C896 H898 0.961 . S
C896 H899 0.960 . S
H897 C896 0.961 . S
H898 C896 0.961 . S
H899 C896 0.960 . S
C900 N901 1.342 . S
C900 C904 1.401 . S
C900 C905 1.499 . S
N901 Co884 1.989 . S
N901 C900 1.342 . S
N901 N902 1.388 . S
N902 Co885 1.993 . S
N902 N901 1.388 . S
N902 C903 1.346 . S
C903 N902 1.346 . S
C903 C904 1.396 . S
C903 C913 1.510 . S
C904 C900 1.401 . S
C904 C903 1.396 . S
C905 C900 1.499 . S
C905 H906 0.959 . S
C905 H907 0.960 . S
C905 H908 0.961 . S
H906 C905 0.959 . S
H907 C905 0.960 . S
H908 C905 0.961 . S
O909 Co884 1.967 . S
O909 C917 1.258 . S
O910 Co885 1.941 . S
O910 C917 1.266 . S
H911 C913 0.959 . S
H912 C913 0.961 . S
C913 C903 1.510 . S
C913 H911 0.959 . S
C913 H912 0.961 . S
C913 H914 0.960 . S
H914 C913 0.960 . S
H915 N895 0.862 . S
O916 Co884 1.920 . S
O916 C889 1.289 . S
C917 O909 1.258 . S
C917 O910 1.266 . S
Co918 O921 1.970 . S
Co918 N935 1.989 . S
Co918 O943 1.967 . S
Co918 O950 1.920 . S
Co919 O922 1.966 . S
Co919 N928 2.022 . S
Co919 N936 1.993 . S
Co919 O944 1.941 . S
C920 O921 1.258 . S
C920 O922 1.263 . S
O921 Co918 1.970 . S
O921 C920 1.258 . S
O922 Co919 1.966 . S
O922 C920 1.263 . S
C923 O924 1.235 . S
C923 O950 1.289 . S
O924 C923 1.235 . S
C925 C927 1.400 . S
C925 N928 1.351 . S
C925 C930 1.501 . S
C926 C927 1.387 . S
C926 N929 1.341 . S
C927 C925 1.400 . S
C927 C926 1.387 . S
N928 Co919 2.022 . S
N928 C925 1.351 . S
N928 N929 1.365 . S
N929 C926 1.341 . S
N929 N928 1.365 . S
N929 H949 0.862 . S
C930 C925 1.501 . S
C930 H931 0.961 . S
C930 H932 0.961 . S
C930 H933 0.960 . S
H931 C930 0.961 . S
H932 C930 0.961 . S
H933 C930 0.960 . S
C934 N935 1.342 . S
C934 C938 1.401 . S
C934 C939 1.499 . S
N935 Co918 1.989 . S
N935 C934 1.342 . S
N935 N936 1.388 . S
N936 Co919 1.993 . S
N936 N935 1.388 . S
N936 C937 1.346 . S
C937 N936 1.346 . S
C937 C938 1.396 . S
C937 C947 1.510 . S
C938 C934 1.401 . S
C938 C937 1.396 . S
C939 C934 1.499 . S
C939 H940 0.959 . S
C939 H941 0.960 . S
C939 H942 0.961 . S
H940 C939 0.959 . S
H941 C939 0.960 . S
H942 C939 0.961 . S
O943 Co918 1.967 . S
O943 C951 1.258 . S
O944 Co919 1.941 . S
O944 C951 1.266 . S
H945 C947 0.959 . S
H946 C947 0.961 . S
C947 C937 1.510 . S
C947 H945 0.959 . S
C947 H946 0.961 . S
C947 H948 0.960 . S
H948 C947 0.960 . S
H949 N929 0.862 . S
O950 Co918 1.920 . S
O950 C923 1.289 . S
C951 O943 1.258 . S
C951 O944 1.266 . S
Co952 O955 1.970 . S
Co952 N969 1.989 . S
Co952 O977 1.967 . S
Co952 O984 1.920 . S
Co953 O956 1.966 . S
Co953 N962 2.022 . S
Co953 N970 1.993 . S
Co953 O978 1.941 . S
C954 O955 1.258 1_554 S
C954 O956 1.263 . S
O955 Co952 1.970 . S
O955 C954 1.258 1_556 S
O956 Co953 1.966 . S
O956 C954 1.263 . S
C957 O958 1.235 . S
C957 O984 1.289 . S
O958 C957 1.235 . S
C959 C961 1.400 . S
C959 N962 1.351 . S
C959 C964 1.501 . S
C960 C961 1.387 . S
C960 N963 1.341 . S
C961 C959 1.400 . S
C961 C960 1.387 . S
N962 Co953 2.022 . S
N962 C959 1.351 . S
N962 N963 1.365 . S
N963 C960 1.341 . S
N963 N962 1.365 . S
N963 H983 0.862 . S
C964 C959 1.501 . S
C964 H965 0.961 . S
C964 H966 0.961 . S
C964 H967 0.960 . S
H965 C964 0.961 . S
H966 C964 0.961 . S
H967 C964 0.960 . S
C968 N969 1.342 . S
C968 C972 1.401 . S
C968 C973 1.499 . S
N969 Co952 1.989 . S
N969 C968 1.342 . S
N969 N970 1.388 1_556 S
N970 Co953 1.993 . S
N970 N969 1.388 1_554 S
N970 C971 1.346 . S
C971 N970 1.346 . S
C971 C972 1.396 1_554 S
C971 C981 1.510 . S
C972 C968 1.401 . S
C972 C971 1.396 1_556 S
C973 C968 1.499 . S
C973 H974 0.959 . S
C973 H975 0.960 . S
C973 H976 0.961 . S
H974 C973 0.959 . S
H975 C973 0.960 . S
H976 C973 0.961 . S
O977 Co952 1.967 . S
O977 C985 1.258 1_556 S
O978 Co953 1.941 . S
O978 C985 1.266 . S
H979 C981 0.959 . S
H980 C981 0.961 . S
C981 C971 1.510 . S
C981 H979 0.959 . S
C981 H980 0.961 . S
C981 H982 0.960 . S
H982 C981 0.960 . S
H983 N963 0.862 . S
O984 Co952 1.920 . S
O984 C957 1.289 . S
C985 O977 1.258 1_554 S
C985 O978 1.266 . S
Co986 O989 1.970 . S
Co986 N1003 1.989 . S
Co986 O1011 1.967 . S
Co986 O1018 1.920 . S
Co987 O990 1.966 . S
Co987 N996 2.022 . S
Co987 N1004 1.993 . S
Co987 O1012 1.941 . S
C988 O989 1.258 1_554 S
C988 O990 1.263 . S
O989 Co986 1.970 . S
O989 C988 1.258 1_556 S
O990 Co987 1.966 . S
O990 C988 1.263 . S
C991 O992 1.235 . S
C991 O1018 1.289 . S
O992 C991 1.235 . S
C993 C995 1.400 . S
C993 N996 1.351 . S
C993 C998 1.501 . S
C994 C995 1.387 . S
C994 N997 1.341 . S
C995 C993 1.400 . S
C995 C994 1.387 . S
N996 Co987 2.022 . S
N996 C993 1.351 . S
N996 N997 1.365 . S
N997 C994 1.341 . S
N997 N996 1.365 . S
N997 H1017 0.862 . S
C998 C993 1.501 . S
C998 H999 0.961 . S
C998 H1000 0.961 . S
C998 H1001 0.960 . S
H999 C998 0.961 . S
H1000 C998 0.961 . S
H1001 C998 0.960 . S
C1002 N1003 1.342 . S
C1002 C1006 1.401 . S
C1002 C1007 1.499 . S
N1003 Co986 1.989 . S
N1003 C1002 1.342 . S
N1003 N1004 1.388 1_556 S
N1004 Co987 1.993 . S
N1004 N1003 1.388 1_554 S
N1004 C1005 1.346 . S
C1005 N1004 1.346 . S
C1005 C1006 1.396 1_554 S
C1005 C1015 1.510 . S
C1006 C1002 1.401 . S
C1006 C1005 1.396 1_556 S
C1007 C1002 1.499 . S
C1007 H1008 0.959 . S
C1007 H1009 0.960 . S
C1007 H1010 0.961 . S
H1008 C1007 0.959 . S
H1009 C1007 0.960 . S
H1010 C1007 0.961 . S
O1011 Co986 1.967 . S
O1011 C1019 1.258 1_556 S
O1012 Co987 1.941 . S
O1012 C1019 1.266 . S
H1013 C1015 0.959 . S
H1014 C1015 0.961 . S
C1015 C1005 1.510 . S
C1015 H1013 0.959 . S
C1015 H1014 0.961 . S
C1015 H1016 0.960 . S
H1016 C1015 0.960 . S
H1017 N997 0.862 . S
O1018 Co986 1.920 . S
O1018 C991 1.289 . S
C1019 O1011 1.258 1_554 S
C1019 O1012 1.266 . S
Co1020 O1023 1.970 . S
Co1020 N1037 1.989 . S
Co1020 O1045 1.967 . S
Co1020 O1052 1.920 . S
Co1021 O1024 1.966 . S
Co1021 N1030 2.022 . S
Co1021 N1038 1.993 . S
Co1021 O1046 1.941 . S
C1022 O1023 1.258 . S
C1022 O1024 1.263 . S
O1023 Co1020 1.970 . S
O1023 C1022 1.258 . S
O1024 Co1021 1.966 . S
O1024 C1022 1.263 . S
C1025 O1026 1.235 . S
C1025 O1052 1.289 . S
O1026 C1025 1.235 . S
C1027 C1029 1.400 . S
C1027 N1030 1.351 . S
C1027 C1032 1.501 . S
C1028 C1029 1.387 . S
C1028 N1031 1.341 . S
C1029 C1027 1.400 . S
C1029 C1028 1.387 . S
N1030 Co1021 2.022 . S
N1030 C1027 1.351 . S
N1030 N1031 1.365 . S
N1031 C1028 1.341 . S
N1031 N1030 1.365 . S
N1031 H1051 0.862 . S
C1032 C1027 1.501 . S
C1032 H1033 0.961 . S
C1032 H1034 0.961 . S
C1032 H1035 0.960 . S
H1033 C1032 0.961 . S
H1034 C1032 0.961 . S
H1035 C1032 0.960 . S
C1036 N1037 1.342 . S
C1036 C1040 1.401 . S
C1036 C1041 1.499 . S
N1037 Co1020 1.989 . S
N1037 C1036 1.342 . S
N1037 N1038 1.388 . S
N1038 Co1021 1.993 . S
N1038 N1037 1.388 . S
N1038 C1039 1.346 . S
C1039 N1038 1.346 . S
C1039 C1040 1.396 . S
C1039 C1049 1.510 . S
C1040 C1036 1.401 . S
C1040 C1039 1.396 . S
C1041 C1036 1.499 . S
C1041 H1042 0.959 . S
C1041 H1043 0.960 . S
C1041 H1044 0.961 . S
H1042 C1041 0.959 . S
H1043 C1041 0.960 . S
H1044 C1041 0.961 . S
O1045 Co1020 1.967 . S
O1045 C1053 1.258 . S
O1046 Co1021 1.941 . S
O1046 C1053 1.266 . S
H1047 C1049 0.959 . S
H1048 C1049 0.961 . S
C1049 C1039 1.510 . S
C1049 H1047 0.959 . S
C1049 H1048 0.961 . S
C1049 H1050 0.960 . S
H1050 C1049 0.960 . S
H1051 N1031 0.862 . S
O1052 Co1020 1.920 . S
O1052 C1025 1.289 . S
C1053 O1045 1.258 . S
C1053 O1046 1.266 . S
Co1054 O1057 1.970 . S
Co1054 N1071 1.989 . S
Co1054 O1079 1.967 . S
Co1054 O1086 1.920 . S
Co1055 O1058 1.966 . S
Co1055 N1064 2.022 . S
Co1055 N1072 1.993 . S
Co1055 O1080 1.941 . S
C1056 O1057 1.258 . S
C1056 O1058 1.263 . S
O1057 Co1054 1.970 . S
O1057 C1056 1.258 . S
O1058 Co1055 1.966 . S
O1058 C1056 1.263 . S
C1059 O1060 1.235 . S
C1059 O1086 1.289 . S
O1060 C1059 1.235 . S
C1061 C1063 1.400 . S
C1061 N1064 1.351 . S
C1061 C1066 1.501 . S
C1062 C1063 1.387 . S
C1062 N1065 1.341 . S
C1063 C1061 1.400 . S
C1063 C1062 1.387 . S
N1064 Co1055 2.022 . S
N1064 C1061 1.351 . S
N1064 N1065 1.365 . S
N1065 C1062 1.341 . S
N1065 N1064 1.365 . S
N1065 H1085 0.862 . S
C1066 C1061 1.501 . S
C1066 H1067 0.961 . S
C1066 H1068 0.961 . S
C1066 H1069 0.960 . S
H1067 C1066 0.961 . S
H1068 C1066 0.961 . S
H1069 C1066 0.960 . S
C1070 N1071 1.342 . S
C1070 C1074 1.401 . S
C1070 C1075 1.499 . S
N1071 Co1054 1.989 . S
N1071 C1070 1.342 . S
N1071 N1072 1.388 . S
N1072 Co1055 1.993 . S
N1072 N1071 1.388 . S
N1072 C1073 1.346 . S
C1073 N1072 1.346 . S
C1073 C1074 1.396 . S
C1073 C1083 1.510 . S
C1074 C1070 1.401 . S
C1074 C1073 1.396 . S
C1075 C1070 1.499 . S
C1075 H1076 0.959 . S
C1075 H1077 0.960 . S
C1075 H1078 0.961 . S
H1076 C1075 0.959 . S
H1077 C1075 0.960 . S
H1078 C1075 0.961 . S
O1079 Co1054 1.967 . S
O1079 C1087 1.258 . S
O1080 Co1055 1.941 . S
O1080 C1087 1.266 . S
H1081 C1083 0.959 . S
H1082 C1083 0.961 . S
C1083 C1073 1.510 . S
C1083 H1081 0.959 . S
C1083 H1082 0.961 . S
C1083 H1084 0.960 . S
H1084 C1083 0.960 . S
H1085 N1065 0.862 . S
O1086 Co1054 1.920 . S
O1086 C1059 1.289 . S
C1087 O1079 1.258 . S
C1087 O1080 1.266 . S
C1088 C1089 1.369 . S
C1088 C1090 1.419 . S
C1088 H1092 0.930 . S
C1089 C1088 1.369 . S
C1089 C1098 1.429 . S
C1090 C1088 1.419 . S
C1090 C1091 1.363 . S
C1090 H1093 0.929 . S
C1091 C1090 1.363 . S
C1091 C1097 1.428 . S
H1092 C1088 0.930 . S
H1093 C1090 0.929 . S
S1094 N1095 1.613 . S
S1094 N1096 1.610 . S
N1095 S1094 1.613 . S
N1095 C1098 1.350 . S
N1096 S1094 1.610 . S
N1096 C1097 1.351 . S
C1097 C1091 1.428 . S
C1097 N1096 1.351 . S
C1097 C1098 1.434 . S
C1098 C1089 1.429 . S
C1098 N1095 1.350 . S
C1098 C1097 1.434 . S
C1099 C1100 1.369 . S
C1099 C1101 1.419 . S
C1099 H1103 0.930 . S
C1100 C1099 1.369 . S
C1100 C1109 1.429 . S
C1101 C1099 1.419 . S
C1101 C1102 1.363 . S
C1101 H1104 0.929 . S
C1102 C1101 1.363 . S
C1102 C1108 1.428 . S
H1103 C1099 0.930 . S
H1104 C1101 0.929 . S
S1105 N1106 1.613 . S
S1105 N1107 1.610 . S
N1106 S1105 1.613 . S
N1106 C1109 1.350 . S
N1107 S1105 1.610 . S
N1107 C1108 1.351 . S
C1108 C1102 1.428 . S
C1108 N1107 1.351 . S
C1108 C1109 1.434 . S
C1109 C1100 1.429 . S
C1109 N1106 1.350 . S
C1109 C1108 1.434 . S
C1110 C1111 1.369 . S
C1110 C1112 1.419 . S
C1110 H1114 0.930 . S
C1111 C1110 1.369 . S
C1111 C1120 1.429 . S
C1112 C1110 1.419 . S
C1112 C1113 1.363 . S
C1112 H1115 0.929 . S
C1113 C1112 1.363 . S
C1113 C1119 1.428 . S
H1114 C1110 0.930 . S
H1115 C1112 0.929 . S
S1116 N1117 1.613 . S
S1116 N1118 1.610 . S
N1117 S1116 1.613 . S
N1117 C1120 1.350 . S
N1118 S1116 1.610 . S
N1118 C1119 1.351 . S
C1119 C1113 1.428 . S
C1119 N1118 1.351 . S
C1119 C1120 1.434 . S
C1120 C1111 1.429 . S
C1120 N1117 1.350 . S
C1120 C1119 1.434 . S
C1121 C1122 1.369 . S
C1121 C1123 1.419 . S
C1121 H1125 0.930 . S
C1122 C1121 1.369 . S
C1122 C1131 1.429 . S
C1123 C1121 1.419 . S
C1123 C1124 1.363 . S
C1123 H1126 0.929 1_565 S
C1124 C1123 1.363 . S
C1124 C1130 1.428 . S
H1125 C1121 0.930 . S
H1126 C1123 0.929 1_545 S
S1127 N1128 1.613 . S
S1127 N1129 1.610 . S
N1128 S1127 1.613 . S
N1128 C1131 1.350 . S
N1129 S1127 1.610 . S
N1129 C1130 1.351 . S
C1130 C1124 1.428 . S
C1130 N1129 1.351 . S
C1130 C1131 1.434 . S
C1131 C1122 1.429 . S
C1131 N1128 1.350 . S
C1131 C1130 1.434 . S
C1132 C1133 1.369 . S
C1132 C1134 1.419 . S
C1132 H1136 0.930 . S
C1133 C1132 1.369 . S
C1133 C1142 1.429 . S
C1134 C1132 1.419 . S
C1134 C1135 1.363 . S
C1134 H1137 0.929 . S
C1135 C1134 1.363 . S
C1135 C1141 1.428 . S
H1136 C1132 0.930 . S
H1137 C1134 0.929 . S
S1138 N1139 1.613 . S
S1138 N1140 1.610 . S
N1139 S1138 1.613 . S
N1139 C1142 1.350 . S
N1140 S1138 1.610 . S
N1140 C1141 1.351 . S
C1141 C1135 1.428 . S
C1141 N1140 1.351 . S
C1141 C1142 1.434 . S
C1142 C1133 1.429 . S
C1142 N1139 1.350 . S
C1142 C1141 1.434 . S
C1143 C1144 1.369 . S
C1143 C1145 1.419 . S
C1143 H1147 0.930 . S
C1144 C1143 1.369 . S
C1144 C1153 1.429 . S
C1145 C1143 1.419 . S
C1145 C1146 1.363 . S
C1145 H1148 0.929 . S
C1146 C1145 1.363 . S
C1146 C1152 1.428 . S
H1147 C1143 0.930 . S
H1148 C1145 0.929 . S
S1149 N1150 1.613 . S
S1149 N1151 1.610 . S
N1150 S1149 1.613 . S
N1150 C1153 1.350 . S
N1151 S1149 1.610 . S
N1151 C1152 1.351 . S
C1152 C1146 1.428 . S
C1152 N1151 1.351 . S
C1152 C1153 1.434 . S
C1153 C1144 1.429 . S
C1153 N1150 1.350 . S
C1153 C1152 1.434 . S
C1154 C1155 1.369 . S
C1154 C1156 1.419 . S
C1154 H1158 0.930 . S
C1155 C1154 1.369 . S
C1155 C1164 1.429 . S
C1156 C1154 1.419 . S
C1156 C1157 1.363 . S
C1156 H1159 0.929 . S
C1157 C1156 1.363 . S
C1157 C1163 1.428 . S
H1158 C1154 0.930 . S
H1159 C1156 0.929 . S
S1160 N1161 1.613 . S
S1160 N1162 1.610 . S
N1161 S1160 1.613 . S
N1161 C1164 1.350 . S
N1162 S1160 1.610 . S
N1162 C1163 1.351 . S
C1163 C1157 1.428 . S
C1163 N1162 1.351 . S
C1163 C1164 1.434 . S
C1164 C1155 1.429 . S
C1164 N1161 1.350 . S
C1164 C1163 1.434 . S
C1165 C1166 1.369 . S
C1165 C1167 1.419 . S
C1165 H1169 0.930 . S
C1166 C1165 1.369 . S
C1166 C1175 1.429 . S
C1167 C1165 1.419 . S
C1167 C1168 1.363 . S
C1167 H1170 0.929 . S
C1168 C1167 1.363 . S
C1168 C1174 1.428 . S
H1169 C1165 0.930 . S
H1170 C1167 0.929 . S
S1171 N1172 1.613 . S
S1171 N1173 1.610 . S
N1172 S1171 1.613 . S
N1172 C1175 1.350 . S
N1173 S1171 1.610 . S
N1173 C1174 1.351 . S
C1174 C1168 1.428 . S
C1174 N1173 1.351 . S
C1174 C1175 1.434 . S
C1175 C1166 1.429 . S
C1175 N1172 1.350 . S
C1175 C1174 1.434 . S
C1176 C1177 1.369 . S
C1176 C1178 1.419 . S
C1176 H1180 0.930 . S
C1177 C1176 1.369 . S
C1177 C1186 1.429 . S
C1178 C1176 1.419 . S
C1178 C1179 1.363 . S
C1178 H1181 0.929 . S
C1179 C1178 1.363 . S
C1179 C1185 1.428 . S
H1180 C1176 0.930 . S
H1181 C1178 0.929 . S
S1182 N1183 1.613 . S
S1182 N1184 1.610 . S
N1183 S1182 1.613 . S
N1183 C1186 1.350 . S
N1184 S1182 1.610 . S
N1184 C1185 1.351 . S
C1185 C1179 1.428 . S
C1185 N1184 1.351 . S
C1185 C1186 1.434 . S
C1186 C1177 1.429 . S
C1186 N1183 1.350 . S
C1186 C1185 1.434 . S
C1187 C1188 1.369 . S
C1187 C1189 1.419 . S
C1187 H1191 0.930 . S
C1188 C1187 1.369 . S
C1188 C1197 1.429 . S
C1189 C1187 1.419 . S
C1189 C1190 1.363 . S
C1189 H1192 0.929 . S
C1190 C1189 1.363 . S
C1190 C1196 1.428 . S
H1191 C1187 0.930 . S
H1192 C1189 0.929 . S
S1193 N1194 1.613 . S
S1193 N1195 1.610 . S
N1194 S1193 1.613 . S
N1194 C1197 1.350 . S
N1195 S1193 1.610 . S
N1195 C1196 1.351 . S
C1196 C1190 1.428 . S
C1196 N1195 1.351 . S
C1196 C1197 1.434 . S
C1197 C1188 1.429 . S
C1197 N1194 1.350 . S
C1197 C1196 1.434 . S
C1198 C1199 1.369 . S
C1198 C1200 1.419 . S
C1198 H1202 0.930 . S
C1199 C1198 1.369 . S
C1199 C1208 1.429 . S
C1200 C1198 1.419 . S
C1200 C1201 1.363 . S
C1200 H1203 0.929 . S
C1201 C1200 1.363 . S
C1201 C1207 1.428 . S
H1202 C1198 0.930 . S
H1203 C1200 0.929 . S
S1204 N1205 1.613 . S
S1204 N1206 1.610 . S
N1205 S1204 1.613 . S
N1205 C1208 1.350 . S
N1206 S1204 1.610 . S
N1206 C1207 1.351 . S
C1207 C1201 1.428 . S
C1207 N1206 1.351 . S
C1207 C1208 1.434 . S
C1208 C1199 1.429 . S
C1208 N1205 1.350 . S
C1208 C1207 1.434 . S
C1209 C1210 1.369 . S
C1209 C1211 1.419 . S
C1209 H1213 0.930 . S
C1210 C1209 1.369 . S
C1210 C1219 1.429 . S
C1211 C1209 1.419 . S
C1211 C1212 1.363 . S
C1211 H1214 0.929 . S
C1212 C1211 1.363 . S
C1212 C1218 1.428 . S
H1213 C1209 0.930 . S
H1214 C1211 0.929 . S
S1215 N1216 1.613 1_545 S
S1215 N1217 1.610 . S
N1216 S1215 1.613 1_565 S
N1216 C1219 1.350 . S
N1217 S1215 1.610 . S
N1217 C1218 1.351 1_545 S
C1218 C1212 1.428 . S
C1218 N1217 1.351 1_565 S
C1218 C1219 1.434 . S
C1219 C1210 1.429 . S
C1219 N1216 1.350 . S
C1219 C1218 1.434 . S
C1220 C1221 1.369 . S
C1220 C1222 1.419 . S
C1220 H1224 0.930 . S
C1221 C1220 1.369 . S
C1221 C1230 1.429 . S
C1222 C1220 1.419 . S
C1222 C1223 1.363 . S
C1222 H1225 0.929 . S
C1223 C1222 1.363 . S
C1223 C1229 1.428 . S
H1224 C1220 0.930 . S
H1225 C1222 0.929 . S
S1226 N1227 1.613 . S
S1226 N1228 1.610 . S
N1227 S1226 1.613 . S
N1227 C1230 1.350 . S
N1228 S1226 1.610 . S
N1228 C1229 1.351 . S
C1229 C1223 1.428 . S
C1229 N1228 1.351 . S
C1229 C1230 1.434 . S
C1230 C1221 1.429 . S
C1230 N1227 1.350 . S
C1230 C1229 1.434 . S
C1231 C1232 1.369 . S
C1231 C1233 1.419 . S
C1231 H1235 0.930 . S
C1232 C1231 1.369 . S
C1232 C1241 1.429 . S
C1233 C1231 1.419 . S
C1233 C1234 1.363 . S
C1233 H1236 0.929 . S
C1234 C1233 1.363 . S
C1234 C1240 1.428 . S
H1235 C1231 0.930 . S
H1236 C1233 0.929 . S
S1237 N1238 1.613 . S
S1237 N1239 1.610 . S
N1238 S1237 1.613 . S
N1238 C1241 1.350 . S
N1239 S1237 1.610 . S
N1239 C1240 1.351 . S
C1240 C1234 1.428 . S
C1240 N1239 1.351 . S
C1240 C1241 1.434 . S
C1241 C1232 1.429 . S
C1241 N1238 1.350 . S
C1241 C1240 1.434 . S
C1242 C1243 1.369 . S
C1242 C1244 1.419 . S
C1242 H1246 0.930 . S
C1243 C1242 1.369 . S
C1243 C1252 1.429 . S
C1244 C1242 1.419 . S
C1244 C1245 1.363 . S
C1244 H1247 0.929 . S
C1245 C1244 1.363 . S
C1245 C1251 1.428 . S
H1246 C1242 0.930 . S
H1247 C1244 0.929 . S
S1248 N1249 1.613 . S
S1248 N1250 1.610 . S
N1249 S1248 1.613 . S
N1249 C1252 1.350 . S
N1250 S1248 1.610 . S
N1250 C1251 1.351 . S
C1251 C1245 1.428 . S
C1251 N1250 1.351 . S
C1251 C1252 1.434 . S
C1252 C1243 1.429 . S
C1252 N1249 1.350 . S
C1252 C1251 1.434 . S
C1253 C1254 1.369 . S
C1253 C1255 1.419 . S
C1253 H1257 0.930 . S
C1254 C1253 1.369 . S
C1254 C1263 1.429 . S
C1255 C1253 1.419 . S
C1255 C1256 1.363 . S
C1255 H1258 0.929 . S
C1256 C1255 1.363 . S
C1256 C1262 1.428 . S
H1257 C1253 0.930 . S
H1258 C1255 0.929 . S
S1259 N1260 1.613 . S
S1259 N1261 1.610 . S
N1260 S1259 1.613 . S
N1260 C1263 1.350 . S
N1261 S1259 1.610 . S
N1261 C1262 1.351 . S
C1262 C1256 1.428 . S
C1262 N1261 1.351 . S
C1262 C1263 1.434 . S
C1263 C1254 1.429 . S
C1263 N1260 1.350 . S
C1263 C1262 1.434 . S
C1264 C1265 1.369 . S
C1264 C1266 1.419 . S
C1264 H1268 0.930 . S
C1265 C1264 1.369 . S
C1265 C1274 1.429 . S
C1266 C1264 1.419 . S
C1266 C1267 1.363 . S
C1266 H1269 0.929 . S
C1267 C1266 1.363 . S
C1267 C1273 1.428 . S
H1268 C1264 0.930 . S
H1269 C1266 0.929 . S
S1270 N1271 1.613 . S
S1270 N1272 1.610 . S
N1271 S1270 1.613 . S
N1271 C1274 1.350 . S
N1272 S1270 1.610 . S
N1272 C1273 1.351 . S
C1273 C1267 1.428 . S
C1273 N1272 1.351 . S
C1273 C1274 1.434 . S
C1274 C1265 1.429 . S
C1274 N1271 1.350 . S
C1274 C1273 1.434 . S
C1275 C1276 1.369 . S
C1275 C1277 1.419 . S
C1275 H1279 0.930 . S
C1276 C1275 1.369 . S
C1276 C1285 1.429 . S
C1277 C1275 1.419 . S
C1277 C1278 1.363 . S
C1277 H1280 0.929 1_565 S
C1278 C1277 1.363 . S
C1278 C1284 1.428 . S
H1279 C1275 0.930 . S
H1280 C1277 0.929 1_545 S
S1281 N1282 1.613 . S
S1281 N1283 1.610 . S
N1282 S1281 1.613 . S
N1282 C1285 1.350 . S
N1283 S1281 1.610 . S
N1283 C1284 1.351 . S
C1284 C1278 1.428 . S
C1284 N1283 1.351 . S
C1284 C1285 1.434 . S
C1285 C1276 1.429 . S
C1285 N1282 1.350 . S
C1285 C1284 1.434 . S
C1286 C1287 1.369 . S
C1286 C1288 1.419 . S
C1286 H1290 0.930 . S
C1287 C1286 1.369 . S
C1287 C1296 1.429 . S
C1288 C1286 1.419 . S
C1288 C1289 1.363 . S
C1288 H1291 0.929 . S
C1289 C1288 1.363 . S
C1289 C1295 1.428 . S
H1290 C1286 0.930 . S
H1291 C1288 0.929 . S
S1292 N1293 1.613 . S
S1292 N1294 1.610 1_545 S
N1293 S1292 1.613 . S
N1293 C1296 1.350 1_545 S
N1294 S1292 1.610 1_565 S
N1294 C1295 1.351 . S
C1295 C1289 1.428 . S
C1295 N1294 1.351 . S
C1295 C1296 1.434 . S
C1296 C1287 1.429 . S
C1296 N1293 1.350 1_565 S
C1296 C1295 1.434 . S
C1297 C1298 1.369 . S
C1297 C1299 1.419 . S
C1297 H1301 0.930 . S
C1298 C1297 1.369 . S
C1298 C1307 1.429 . S
C1299 C1297 1.419 . S
C1299 C1300 1.363 . S
C1299 H1302 0.929 . S
C1300 C1299 1.363 . S
C1300 C1306 1.428 . S
H1301 C1297 0.930 . S
H1302 C1299 0.929 . S
S1303 N1304 1.613 . S
S1303 N1305 1.610 . S
N1304 S1303 1.613 . S
N1304 C1307 1.350 . S
N1305 S1303 1.610 . S
N1305 C1306 1.351 . S
C1306 C1300 1.428 . S
C1306 N1305 1.351 . S
C1306 C1307 1.434 . S
C1307 C1298 1.429 . S
C1307 N1304 1.350 . S
C1307 C1306 1.434 . S
C1308 C1309 1.369 . S
C1308 C1310 1.419 . S
C1308 H1312 0.930 . S
C1309 C1308 1.369 . S
C1309 C1318 1.429 . S
C1310 C1308 1.419 . S
C1310 C1311 1.363 . S
C1310 H1313 0.929 . S
C1311 C1310 1.363 . S
C1311 C1317 1.428 . S
H1312 C1308 0.930 . S
H1313 C1310 0.929 . S
S1314 N1315 1.613 . S
S1314 N1316 1.610 . S
N1315 S1314 1.613 . S
N1315 C1318 1.350 . S
N1316 S1314 1.610 . S
N1316 C1317 1.351 . S
C1317 C1311 1.428 . S
C1317 N1316 1.351 . S
C1317 C1318 1.434 . S
C1318 C1309 1.429 . S
C1318 N1315 1.350 . S
C1318 C1317 1.434 . S
C1319 C1320 1.369 . S
C1319 C1321 1.419 . S
C1319 H1323 0.930 . S
C1320 C1319 1.369 . S
C1320 C1329 1.429 . S
C1321 C1319 1.419 . S
C1321 C1322 1.363 . S
C1321 H1324 0.929 . S
C1322 C1321 1.363 . S
C1322 C1328 1.428 . S
H1323 C1319 0.930 . S
H1324 C1321 0.929 . S
S1325 N1326 1.613 . S
S1325 N1327 1.610 . S
N1326 S1325 1.613 . S
N1326 C1329 1.350 . S
N1327 S1325 1.610 . S
N1327 C1328 1.351 . S
C1328 C1322 1.428 . S
C1328 N1327 1.351 . S
C1328 C1329 1.434 . S
C1329 C1320 1.429 . S
C1329 N1326 1.350 . S
C1329 C1328 1.434 . S
C1330 C1331 1.369 . S
C1330 C1332 1.419 . S
C1330 H1334 0.930 . S
C1331 C1330 1.369 . S
C1331 C1340 1.429 . S
C1332 C1330 1.419 . S
C1332 C1333 1.363 . S
C1332 H1335 0.929 . S
C1333 C1332 1.363 . S
C1333 C1339 1.428 . S
H1334 C1330 0.930 . S
H1335 C1332 0.929 . S
S1336 N1337 1.613 . S
S1336 N1338 1.610 . S
N1337 S1336 1.613 . S
N1337 C1340 1.350 . S
N1338 S1336 1.610 . S
N1338 C1339 1.351 . S
C1339 C1333 1.428 . S
C1339 N1338 1.351 . S
C1339 C1340 1.434 . S
C1340 C1331 1.429 . S
C1340 N1337 1.350 . S
C1340 C1339 1.434 . S
C1341 C1342 1.369 . S
C1341 C1343 1.419 . S
C1341 H1345 0.930 . S
C1342 C1341 1.369 . S
C1342 C1351 1.429 . S
C1343 C1341 1.419 . S
C1343 C1344 1.363 . S
C1343 H1346 0.929 . S
C1344 C1343 1.363 . S
C1344 C1350 1.428 . S
H1345 C1341 0.930 . S
H1346 C1343 0.929 . S
S1347 N1348 1.613 . S
S1347 N1349 1.610 . S
N1348 S1347 1.613 . S
N1348 C1351 1.350 . S
N1349 S1347 1.610 . S
N1349 C1350 1.351 . S
C1350 C1344 1.428 . S
C1350 N1349 1.351 . S
C1350 C1351 1.434 . S
C1351 C1342 1.429 . S
C1351 N1348 1.350 . S
C1351 C1350 1.434 . S
C1352 C1353 1.369 . S
C1352 C1354 1.419 . S
C1352 H1356 0.930 . S
C1353 C1352 1.369 . S
C1353 C1362 1.429 . S
C1354 C1352 1.419 . S
C1354 C1355 1.363 . S
C1354 H1357 0.929 . S
C1355 C1354 1.363 . S
C1355 C1361 1.428 . S
H1356 C1352 0.930 . S
H1357 C1354 0.929 . S
S1358 N1359 1.613 . S
S1358 N1360 1.610 . S
N1359 S1358 1.613 . S
N1359 C1362 1.350 . S
N1360 S1358 1.610 . S
N1360 C1361 1.351 . S
C1361 C1355 1.428 . S
C1361 N1360 1.351 . S
C1361 C1362 1.434 . S
C1362 C1353 1.429 . S
C1362 N1359 1.350 . S
C1362 C1361 1.434 . S
C1363 C1364 1.369 . S
C1363 C1365 1.419 . S
C1363 H1367 0.930 1_565 S
C1364 C1363 1.369 . S
C1364 C1373 1.429 . S
C1365 C1363 1.419 . S
C1365 C1366 1.363 . S
C1365 H1368 0.929 . S
C1366 C1365 1.363 . S
C1366 C1372 1.428 . S
H1367 C1363 0.930 1_545 S
H1368 C1365 0.929 . S
S1369 N1370 1.613 . S
S1369 N1371 1.610 . S
N1370 S1369 1.613 . S
N1370 C1373 1.350 . S
N1371 S1369 1.610 . S
N1371 C1372 1.351 . S
C1372 C1366 1.428 . S
C1372 N1371 1.351 . S
C1372 C1373 1.434 . S
C1373 C1364 1.429 . S
C1373 N1370 1.350 . S
C1373 C1372 1.434 . S
C1374 C1375 1.369 . S
C1374 C1376 1.419 . S
C1374 H1378 0.930 . S
C1375 C1374 1.369 . S
C1375 C1384 1.429 . S
C1376 C1374 1.419 . S
C1376 C1377 1.363 . S
C1376 H1379 0.929 . S
C1377 C1376 1.363 . S
C1377 C1383 1.428 . S
H1378 C1374 0.930 . S
H1379 C1376 0.929 . S
S1380 N1381 1.613 . S
S1380 N1382 1.610 1_545 S
N1381 S1380 1.613 . S
N1381 C1384 1.350 1_545 S
N1382 S1380 1.610 1_565 S
N1382 C1383 1.351 . S
C1383 C1377 1.428 . S
C1383 N1382 1.351 . S
C1383 C1384 1.434 . S
C1384 C1375 1.429 . S
C1384 N1381 1.350 1_565 S
C1384 C1383 1.434 . S
C1385 C1386 1.369 . S
C1385 C1387 1.419 . S
C1385 H1389 0.930 . S
C1386 C1385 1.369 . S
C1386 C1395 1.429 . S
C1387 C1385 1.419 . S
C1387 C1388 1.363 . S
C1387 H1390 0.929 . S
C1388 C1387 1.363 . S
C1388 C1394 1.428 . S
H1389 C1385 0.930 . S
H1390 C1387 0.929 . S
S1391 N1392 1.613 . S
S1391 N1393 1.610 . S
N1392 S1391 1.613 . S
N1392 C1395 1.350 . S
N1393 S1391 1.610 . S
N1393 C1394 1.351 . S
C1394 C1388 1.428 . S
C1394 N1393 1.351 . S
C1394 C1395 1.434 . S
C1395 C1386 1.429 . S
C1395 N1392 1.350 . S
C1395 C1394 1.434 . S
C1396 C1397 1.369 . S
C1396 C1398 1.419 . S
C1396 H1400 0.930 . S
C1397 C1396 1.369 . S
C1397 C1406 1.429 . S
C1398 C1396 1.419 . S
C1398 C1399 1.363 . S
C1398 H1401 0.929 . S
C1399 C1398 1.363 . S
C1399 C1405 1.428 . S
H1400 C1396 0.930 . S
H1401 C1398 0.929 . S
S1402 N1403 1.613 . S
S1402 N1404 1.610 . S
N1403 S1402 1.613 . S
N1403 C1406 1.350 . S
N1404 S1402 1.610 . S
N1404 C1405 1.351 . S
C1405 C1399 1.428 . S
C1405 N1404 1.351 . S
C1405 C1406 1.434 . S
C1406 C1397 1.429 . S
C1406 N1403 1.350 . S
C1406 C1405 1.434 . S
C1407 C1408 1.369 . S
C1407 C1409 1.419 . S
C1407 H1411 0.930 . S
C1408 C1407 1.369 . S
C1408 C1417 1.429 . S
C1409 C1407 1.419 . S
C1409 C1410 1.363 . S
C1409 H1412 0.929 . S
C1410 C1409 1.363 . S
C1410 C1416 1.428 . S
H1411 C1407 0.930 . S
H1412 C1409 0.929 . S
S1413 N1414 1.613 . S
S1413 N1415 1.610 . S
N1414 S1413 1.613 . S
N1414 C1417 1.350 . S
N1415 S1413 1.610 . S
N1415 C1416 1.351 . S
C1416 C1410 1.428 . S
C1416 N1415 1.351 . S
C1416 C1417 1.434 . S
C1417 C1408 1.429 . S
C1417 N1414 1.350 . S
C1417 C1416 1.434 . S
C1418 C1419 1.369 . S
C1418 C1420 1.419 . S
C1418 H1422 0.930 . S
C1419 C1418 1.369 . S
C1419 C1428 1.429 . S
C1420 C1418 1.419 . S
C1420 C1421 1.363 . S
C1420 H1423 0.929 . S
C1421 C1420 1.363 . S
C1421 C1427 1.428 . S
H1422 C1418 0.930 . S
H1423 C1420 0.929 . S
S1424 N1425 1.613 . S
S1424 N1426 1.610 . S
N1425 S1424 1.613 . S
N1425 C1428 1.350 . S
N1426 S1424 1.610 . S
N1426 C1427 1.351 . S
C1427 C1421 1.428 . S
C1427 N1426 1.351 . S
C1427 C1428 1.434 . S
C1428 C1419 1.429 . S
C1428 N1425 1.350 . S
C1428 C1427 1.434 . S
C1429 C1430 1.369 . S
C1429 C1431 1.419 . S
C1429 H1433 0.930 . S
C1430 C1429 1.369 . S
C1430 C1439 1.429 . S
C1431 C1429 1.419 . S
C1431 C1432 1.363 . S
C1431 H1434 0.929 . S
C1432 C1431 1.363 . S
C1432 C1438 1.428 . S
H1433 C1429 0.930 . S
H1434 C1431 0.929 . S
S1435 N1436 1.613 . S
S1435 N1437 1.610 . S
N1436 S1435 1.613 . S
N1436 C1439 1.350 . S
N1437 S1435 1.610 . S
N1437 C1438 1.351 . S
C1438 C1432 1.428 . S
C1438 N1437 1.351 . S
C1438 C1439 1.434 . S
C1439 C1430 1.429 . S
C1439 N1436 1.350 . S
C1439 C1438 1.434 . S
C1440 C1441 1.369 1_556 S
C1440 C1442 1.419 . S
C1440 H1444 0.930 . S
C1441 C1440 1.369 1_554 S
C1441 C1450 1.429 . S
C1442 C1440 1.419 . S
C1442 C1443 1.363 1_556 S
C1442 H1445 0.929 . S
C1443 C1442 1.363 1_554 S
C1443 C1449 1.428 . S
H1444 C1440 0.930 . S
H1445 C1442 0.929 . S
S1446 N1447 1.613 . S
S1446 N1448 1.610 . S
N1447 S1446 1.613 . S
N1447 C1450 1.350 . S
N1448 S1446 1.610 . S
N1448 C1449 1.351 . S
C1449 C1443 1.428 . S
C1449 N1448 1.351 . S
C1449 C1450 1.434 . S
C1450 C1441 1.429 . S
C1450 N1447 1.350 . S
C1450 C1449 1.434 . S
C1451 C1452 1.369 . S
C1451 C1453 1.419 . S
C1451 H1455 0.930 . S
C1452 C1451 1.369 . S
C1452 C1461 1.429 . S
C1453 C1451 1.419 . S
C1453 C1454 1.363 . S
C1453 H1456 0.929 . S
C1454 C1453 1.363 . S
C1454 C1460 1.428 . S
H1455 C1451 0.930 . S
H1456 C1453 0.929 . S
S1457 N1458 1.613 . S
S1457 N1459 1.610 . S
N1458 S1457 1.613 . S
N1458 C1461 1.350 . S
N1459 S1457 1.610 . S
N1459 C1460 1.351 . S
C1460 C1454 1.428 . S
C1460 N1459 1.351 . S
C1460 C1461 1.434 . S
C1461 C1452 1.429 . S
C1461 N1458 1.350 . S
C1461 C1460 1.434 . S
C1462 C1463 1.369 . S
C1462 C1464 1.419 . S
C1462 H1466 0.930 1_565 S
C1463 C1462 1.369 . S
C1463 C1472 1.429 1_554 S
C1464 C1462 1.419 . S
C1464 C1465 1.363 . S
C1464 H1467 0.929 . S
C1465 C1464 1.363 . S
C1465 C1471 1.428 1_554 S
H1466 C1462 0.930 1_545 S
H1467 C1464 0.929 . S
S1468 N1469 1.613 . S
S1468 N1470 1.610 . S
N1469 S1468 1.613 . S
N1469 C1472 1.350 . S
N1470 S1468 1.610 . S
N1470 C1471 1.351 . S
C1471 C1465 1.428 1_556 S
C1471 N1470 1.351 . S
C1471 C1472 1.434 . S
C1472 C1463 1.429 1_556 S
C1472 N1469 1.350 . S
C1472 C1471 1.434 . S
C1473 C1474 1.369 . S
C1473 C1475 1.419 . S
C1473 H1477 0.930 . S
C1474 C1473 1.369 . S
C1474 C1483 1.429 . S
C1475 C1473 1.419 . S
C1475 C1476 1.363 . S
C1475 H1478 0.929 . S
C1476 C1475 1.363 . S
C1476 C1482 1.428 . S
H1477 C1473 0.930 . S
H1478 C1475 0.929 . S
S1479 N1480 1.613 . S
S1479 N1481 1.610 . S
N1480 S1479 1.613 . S
N1480 C1483 1.350 1_545 S
N1481 S1479 1.610 . S
N1481 C1482 1.351 1_545 S
C1482 C1476 1.428 . S
C1482 N1481 1.351 1_565 S
C1482 C1483 1.434 . S
C1483 C1474 1.429 . S
C1483 N1480 1.350 1_565 S
C1483 C1482 1.434 . S
C1484 C1485 1.369 . S
C1484 C1486 1.419 . S
C1484 H1488 0.930 . S
C1485 C1484 1.369 . S
C1485 C1494 1.429 . S
C1486 C1484 1.419 . S
C1486 C1487 1.363 . S
C1486 H1489 0.929 . S
C1487 C1486 1.363 . S
C1487 C1493 1.428 . S
H1488 C1484 0.930 . S
H1489 C1486 0.929 . S
S1490 N1491 1.613 . S
S1490 N1492 1.610 . S
N1491 S1490 1.613 . S
N1491 C1494 1.350 . S
N1492 S1490 1.610 . S
N1492 C1493 1.351 . S
C1493 C1487 1.428 . S
C1493 N1492 1.351 . S
C1493 C1494 1.434 . S
C1494 C1485 1.429 . S
C1494 N1491 1.350 . S
C1494 C1493 1.434 . S
C1495 C1496 1.369 . S
C1495 C1497 1.419 . S
C1495 H1499 0.930 . S
C1496 C1495 1.369 . S
C1496 C1505 1.429 . S
C1497 C1495 1.419 . S
C1497 C1498 1.363 . S
C1497 H1500 0.929 . S
C1498 C1497 1.363 . S
C1498 C1504 1.428 . S
H1499 C1495 0.930 . S
H1500 C1497 0.929 . S
S1501 N1502 1.613 . S
S1501 N1503 1.610 . S
N1502 S1501 1.613 . S
N1502 C1505 1.350 . S
N1503 S1501 1.610 . S
N1503 C1504 1.351 . S
C1504 C1498 1.428 . S
C1504 N1503 1.351 . S
C1504 C1505 1.434 . S
C1505 C1496 1.429 . S
C1505 N1502 1.350 . S
C1505 C1504 1.434 . S
C1506 C1507 1.369 . S
C1506 C1508 1.419 . S
C1506 H1510 0.930 . S
C1507 C1506 1.369 . S
C1507 C1516 1.429 . S
C1508 C1506 1.419 . S
C1508 C1509 1.363 . S
C1508 H1511 0.929 . S
C1509 C1508 1.363 . S
C1509 C1515 1.428 . S
H1510 C1506 0.930 . S
H1511 C1508 0.929 . S
S1512 N1513 1.613 . S
S1512 N1514 1.610 . S
N1513 S1512 1.613 . S
N1513 C1516 1.350 . S
N1514 S1512 1.610 . S
N1514 C1515 1.351 . S
C1515 C1509 1.428 . S
C1515 N1514 1.351 . S
C1515 C1516 1.434 . S
C1516 C1507 1.429 . S
C1516 N1513 1.350 . S
C1516 C1515 1.434 . S
C1517 C1518 1.369 . S
C1517 C1519 1.419 . S
C1517 H1521 0.930 . S
C1518 C1517 1.369 . S
C1518 C1527 1.429 . S
C1519 C1517 1.419 . S
C1519 C1520 1.363 . S
C1519 H1522 0.929 . S
C1520 C1519 1.363 . S
C1520 C1526 1.428 . S
H1521 C1517 0.930 . S
H1522 C1519 0.929 . S
S1523 N1524 1.613 . S
S1523 N1525 1.610 . S
N1524 S1523 1.613 . S
N1524 C1527 1.350 . S
N1525 S1523 1.610 . S
N1525 C1526 1.351 . S
C1526 C1520 1.428 . S
C1526 N1525 1.351 . S
C1526 C1527 1.434 . S
C1527 C1518 1.429 . S
C1527 N1524 1.350 . S
C1527 C1526 1.434 . S
C1528 C1529 1.369 . S
C1528 C1530 1.419 . S
C1528 H1532 0.930 . S
C1529 C1528 1.369 . S
C1529 C1538 1.429 . S
C1530 C1528 1.419 . S
C1530 C1531 1.363 . S
C1530 H1533 0.929 . S
C1531 C1530 1.363 . S
C1531 C1537 1.428 . S
H1532 C1528 0.930 . S
H1533 C1530 0.929 . S
S1534 N1535 1.613 . S
S1534 N1536 1.610 . S
N1535 S1534 1.613 . S
N1535 C1538 1.350 . S
N1536 S1534 1.610 . S
N1536 C1537 1.351 . S
C1537 C1531 1.428 . S
C1537 N1536 1.351 . S
C1537 C1538 1.434 . S
C1538 C1529 1.429 . S
C1538 N1535 1.350 . S
C1538 C1537 1.434 . S
C1539 C1540 1.369 . S
C1539 C1541 1.419 . S
C1539 H1543 0.930 . S
C1540 C1539 1.369 . S
C1540 C1549 1.429 . S
C1541 C1539 1.419 . S
C1541 C1542 1.363 . S
C1541 H1544 0.929 . S
C1542 C1541 1.363 . S
C1542 C1548 1.428 . S
H1543 C1539 0.930 . S
H1544 C1541 0.929 . S
S1545 N1546 1.613 . S
S1545 N1547 1.610 . S
N1546 S1545 1.613 . S
N1546 C1549 1.350 . S
N1547 S1545 1.610 . S
N1547 C1548 1.351 . S
C1548 C1542 1.428 . S
C1548 N1547 1.351 . S
C1548 C1549 1.434 . S
C1549 C1540 1.429 . S
C1549 N1546 1.350 . S
C1549 C1548 1.434 . S
C1550 C1551 1.369 . S
C1550 C1552 1.419 . S
C1550 H1554 0.930 . S
C1551 C1550 1.369 . S
C1551 C1560 1.429 . S
C1552 C1550 1.419 . S
C1552 C1553 1.363 . S
C1552 H1555 0.929 . S
C1553 C1552 1.363 . S
C1553 C1559 1.428 . S
H1554 C1550 0.930 . S
H1555 C1552 0.929 . S
S1556 N1557 1.613 . S
S1556 N1558 1.610 . S
N1557 S1556 1.613 . S
N1557 C1560 1.350 1_545 S
N1558 S1556 1.610 . S
N1558 C1559 1.351 1_545 S
C1559 C1553 1.428 . S
C1559 N1558 1.351 1_565 S
C1559 C1560 1.434 . S
C1560 C1551 1.429 . S
C1560 N1557 1.350 1_565 S
C1560 C1559 1.434 . S
C1561 C1562 1.369 . S
C1561 C1563 1.419 . S
C1561 H1565 0.930 . S
C1562 C1561 1.369 . S
C1562 C1571 1.429 . S
C1563 C1561 1.419 . S
C1563 C1564 1.363 . S
C1563 H1566 0.929 . S
C1564 C1563 1.363 . S
C1564 C1570 1.428 . S
H1565 C1561 0.930 . S
H1566 C1563 0.929 . S
S1567 N1568 1.613 1_545 S
S1567 N1569 1.610 . S
N1568 S1567 1.613 1_565 S
N1568 C1571 1.350 . S
N1569 S1567 1.610 . S
N1569 C1570 1.351 1_545 S
C1570 C1564 1.428 . S
C1570 N1569 1.351 1_565 S
C1570 C1571 1.434 . S
C1571 C1562 1.429 . S
C1571 N1568 1.350 . S
C1571 C1570 1.434 . S
C1572 C1573 1.369 . S
C1572 C1574 1.419 . S
C1572 H1576 0.930 . S
C1573 C1572 1.369 . S
C1573 C1582 1.429 . S
C1574 C1572 1.419 . S
C1574 C1575 1.363 . S
C1574 H1577 0.929 . S
C1575 C1574 1.363 . S
C1575 C1581 1.428 . S
H1576 C1572 0.930 . S
H1577 C1574 0.929 . S
S1578 N1579 1.613 . S
S1578 N1580 1.610 . S
N1579 S1578 1.613 . S
N1579 C1582 1.350 . S
N1580 S1578 1.610 . S
N1580 C1581 1.351 . S
C1581 C1575 1.428 . S
C1581 N1580 1.351 . S
C1581 C1582 1.434 . S
C1582 C1573 1.429 . S
C1582 N1579 1.350 . S
C1582 C1581 1.434 . S
C1583 C1584 1.369 . S
C1583 C1585 1.419 . S
C1583 H1587 0.930 . S
C1584 C1583 1.369 . S
C1584 C1593 1.429 . S
C1585 C1583 1.419 . S
C1585 C1586 1.363 . S
C1585 H1588 0.929 . S
C1586 C1585 1.363 . S
C1586 C1592 1.428 . S
H1587 C1583 0.930 . S
H1588 C1585 0.929 . S
S1589 N1590 1.613 . S
S1589 N1591 1.610 . S
N1590 S1589 1.613 . S
N1590 C1593 1.350 . S
N1591 S1589 1.610 . S
N1591 C1592 1.351 . S
C1592 C1586 1.428 . S
C1592 N1591 1.351 . S
C1592 C1593 1.434 . S
C1593 C1584 1.429 . S
C1593 N1590 1.350 . S
C1593 C1592 1.434 . S
C1594 C1595 1.369 . S
C1594 C1596 1.419 . S
C1594 H1598 0.930 . S
C1595 C1594 1.369 . S
C1595 C1604 1.429 . S
C1596 C1594 1.419 . S
C1596 C1597 1.363 . S
C1596 H1599 0.929 . S
C1597 C1596 1.363 . S
C1597 C1603 1.428 . S
H1598 C1594 0.930 . S
H1599 C1596 0.929 . S
S1600 N1601 1.613 . S
S1600 N1602 1.610 . S
N1601 S1600 1.613 . S
N1601 C1604 1.350 . S
N1602 S1600 1.610 . S
N1602 C1603 1.351 . S
C1603 C1597 1.428 . S
C1603 N1602 1.351 . S
C1603 C1604 1.434 . S
C1604 C1595 1.429 . S
C1604 N1601 1.350 . S
C1604 C1603 1.434 . S
C1605 C1606 1.369 . S
C1605 C1607 1.419 . S
C1605 H1609 0.930 . S
C1606 C1605 1.369 . S
C1606 C1615 1.429 . S
C1607 C1605 1.419 . S
C1607 C1608 1.363 . S
C1607 H1610 0.929 . S
C1608 C1607 1.363 . S
C1608 C1614 1.428 . S
H1609 C1605 0.930 . S
H1610 C1607 0.929 . S
S1611 N1612 1.613 . S
S1611 N1613 1.610 . S
N1612 S1611 1.613 . S
N1612 C1615 1.350 . S
N1613 S1611 1.610 . S
N1613 C1614 1.351 . S
C1614 C1608 1.428 . S
C1614 N1613 1.351 . S
C1614 C1615 1.434 . S
C1615 C1606 1.429 . S
C1615 N1612 1.350 . S
C1615 C1614 1.434 . S
C1616 C1617 1.369 1_655 S
C1616 C1618 1.419 1_554 S
C1616 H1620 0.930 1_554 S
C1617 C1616 1.369 1_455 S
C1617 C1626 1.429 . S
C1618 C1616 1.419 1_556 S
C1618 C1619 1.363 1_556 S
C1618 H1621 0.929 . S
C1619 C1618 1.363 1_554 S
C1619 C1625 1.428 1_655 S
H1620 C1616 0.930 1_556 S
H1621 C1618 0.929 . S
S1622 N1623 1.613 . S
S1622 N1624 1.610 . S
N1623 S1622 1.613 . S
N1623 C1626 1.350 . S
N1624 S1622 1.610 . S
N1624 C1625 1.351 . S
C1625 C1619 1.428 1_455 S
C1625 N1624 1.351 . S
C1625 C1626 1.434 . S
C1626 C1617 1.429 . S
C1626 N1623 1.350 . S
C1626 C1625 1.434 . S
C1627 C1628 1.368 1_556 S
C1627 C1629 1.414 1_556 S
C1627 H1631 0.936 . S
C1628 C1627 1.368 1_554 S
C1628 C1637 1.429 . S
C1629 C1627 1.414 1_554 S
C1629 C1630 1.363 . S
C1629 H1632 0.929 . S
C1630 C1629 1.363 . S
C1630 C1636 1.428 . S
H1631 C1627 0.936 . S
H1632 C1629 0.929 . S
S1633 N1634 1.613 . S
S1633 N1635 1.610 . S
N1634 S1633 1.613 . S
N1634 C1637 1.350 . S
N1635 S1633 1.610 . S
N1635 C1636 1.351 . S
C1636 C1630 1.428 . S
C1636 N1635 1.351 . S
C1636 C1637 1.434 . S
C1637 C1628 1.429 . S
C1637 N1634 1.350 . S
C1637 C1636 1.434 . S
C1638 C1639 1.369 . S
C1638 C1640 1.419 . S
C1638 H1642 0.930 . S
C1639 C1638 1.369 . S
C1639 C1648 1.429 1_455 S
C1640 C1638 1.419 . S
C1640 C1641 1.363 1_455 S
C1640 H1643 0.929 . S
C1641 C1640 1.363 1_655 S
C1641 C1647 1.428 . S
H1642 C1638 0.930 . S
H1643 C1640 0.929 . S
S1644 N1645 1.613 . S
S1644 N1646 1.610 . S
N1645 S1644 1.613 . S
N1645 C1648 1.350 . S
N1646 S1644 1.610 . S
N1646 C1647 1.351 . S
C1647 C1641 1.428 . S
C1647 N1646 1.351 . S
C1647 C1648 1.434 . S
C1648 C1639 1.429 1_655 S
C1648 N1645 1.350 . S
C1648 C1647 1.434 . S
C1649 C1650 1.369 . S
C1649 C1651 1.419 . S
C1649 H1653 0.930 . S
C1650 C1649 1.369 . S
C1650 C1659 1.429 . S
C1651 C1649 1.419 . S
C1651 C1652 1.363 . S
C1651 H1654 0.929 . S
C1652 C1651 1.363 . S
C1652 C1658 1.428 . S
H1653 C1649 0.930 . S
H1654 C1651 0.929 . S
S1655 N1656 1.613 . S
S1655 N1657 1.610 . S
N1656 S1655 1.613 . S
N1656 C1659 1.350 . S
N1657 S1655 1.610 . S
N1657 C1658 1.351 . S
C1658 C1652 1.428 . S
C1658 N1657 1.351 . S
C1658 C1659 1.434 . S
C1659 C1650 1.429 . S
C1659 N1656 1.350 . S
C1659 C1658 1.434 . S
C1660 C1661 1.369 1_556 S
C1660 C1662 1.419 . S
C1660 H1664 0.930 . S
C1661 C1660 1.369 1_554 S
C1661 C1670 1.429 . S
C1662 C1660 1.419 . S
C1662 C1663 1.363 1_556 S
C1662 H1665 0.929 . S
C1663 C1662 1.363 1_554 S
C1663 C1669 1.428 . S
H1664 C1660 0.930 . S
H1665 C1662 0.929 . S
S1666 N1667 1.613 . S
S1666 N1668 1.610 . S
N1667 S1666 1.613 . S
N1667 C1670 1.350 . S
N1668 S1666 1.610 . S
N1668 C1669 1.351 . S
C1669 C1663 1.428 . S
C1669 N1668 1.351 . S
C1669 C1670 1.434 . S
C1670 C1661 1.429 . S
C1670 N1667 1.350 . S
C1670 C1669 1.434 . S
C1671 C1672 1.369 . S
C1671 C1673 1.419 . S
C1671 H1675 0.930 . S
C1672 C1671 1.369 . S
C1672 C1681 1.429 1_655 S
C1673 C1671 1.419 . S
C1673 C1674 1.363 1_655 S
C1673 H1676 0.929 . S
C1674 C1673 1.363 1_455 S
C1674 C1680 1.428 . S
H1675 C1671 0.930 . S
H1676 C1673 0.929 . S
S1677 N1678 1.613 . S
S1677 N1679 1.610 . S
N1678 S1677 1.613 . S
N1678 C1681 1.350 . S
N1679 S1677 1.610 . S
N1679 C1680 1.351 . S
C1680 C1674 1.428 . S
C1680 N1679 1.351 . S
C1680 C1681 1.434 . S
C1681 C1672 1.429 1_455 S
C1681 N1678 1.350 . S
C1681 C1680 1.434 . S
C1682 C1683 1.369 . S
C1682 C1684 1.419 . S
C1682 H1686 0.930 . S
C1683 C1682 1.369 . S
C1683 C1692 1.429 . S
C1684 C1682 1.419 . S
C1684 C1685 1.363 . S
C1684 H1687 0.929 . S
C1685 C1684 1.363 . S
C1685 C1691 1.428 . S
H1686 C1682 0.930 . S
H1687 C1684 0.929 . S
S1688 N1689 1.613 . S
S1688 N1690 1.610 . S
N1689 S1688 1.613 . S
N1689 C1692 1.350 . S
N1690 S1688 1.610 . S
N1690 C1691 1.351 . S
C1691 C1685 1.428 . S
C1691 N1690 1.351 . S
C1691 C1692 1.434 . S
C1692 C1683 1.429 . S
C1692 N1689 1.350 . S
C1692 C1691 1.434 . S
C1693 C1694 1.369 1_455 S
C1693 C1695 1.419 . S
C1693 H1697 0.930 . S
C1694 C1693 1.369 1_655 S
C1694 C1703 1.429 . S
C1695 C1693 1.419 . S
C1695 C1696 1.363 1_545 S
C1695 H1698 0.929 . S
C1696 C1695 1.363 1_565 S
C1696 C1702 1.428 1_455 S
H1697 C1693 0.930 . S
H1698 C1695 0.929 . S
S1699 N1700 1.613 1_565 S
S1699 N1701 1.610 . S
N1700 S1699 1.613 1_545 S
N1700 C1703 1.350 . S
N1701 S1699 1.610 . S
N1701 C1702 1.351 . S
C1702 C1696 1.428 1_655 S
C1702 N1701 1.351 . S
C1702 C1703 1.434 1_565 S
C1703 C1694 1.429 . S
C1703 N1700 1.350 . S
C1703 C1702 1.434 1_545 S
C1704 C1705 1.369 . S
C1704 C1706 1.419 . S
C1704 H1708 0.930 . S
C1705 C1704 1.369 . S
C1705 C1714 1.429 . S
C1706 C1704 1.419 . S
C1706 C1707 1.363 . S
C1706 H1709 0.929 . S
C1707 C1706 1.363 . S
C1707 C1713 1.428 . S
H1708 C1704 0.930 . S
H1709 C1706 0.929 . S
S1710 N1711 1.613 . S
S1710 N1712 1.610 . S
N1711 S1710 1.613 . S
N1711 C1714 1.350 . S
N1712 S1710 1.610 . S
N1712 C1713 1.351 . S
C1713 C1707 1.428 . S
C1713 N1712 1.351 . S
C1713 C1714 1.434 . S
C1714 C1705 1.429 . S
C1714 N1711 1.350 . S
C1714 C1713 1.434 . S
C1715 C1716 1.369 . S
C1715 C1717 1.419 1_545 S
C1715 H1719 0.930 . S
C1716 C1715 1.369 . S
C1716 C1725 1.429 . S
C1717 C1715 1.419 1_565 S
C1717 C1718 1.363 . S
C1717 H1720 0.929 . S
C1718 C1717 1.363 . S
C1718 C1724 1.428 1_565 S
H1719 C1715 0.930 . S
H1720 C1717 0.929 . S
S1721 N1722 1.613 . S
S1721 N1723 1.610 . S
N1722 S1721 1.613 . S
N1722 C1725 1.350 . S
N1723 S1721 1.610 . S
N1723 C1724 1.351 . S
C1724 C1718 1.428 1_545 S
C1724 N1723 1.351 . S
C1724 C1725 1.434 . S
C1725 C1716 1.429 . S
C1725 N1722 1.350 . S
C1725 C1724 1.434 . S
C1726 C1727 1.369 . S
C1726 C1728 1.419 . S
C1726 H1730 0.930 . S
C1727 C1726 1.369 . S
C1727 C1736 1.429 . S
C1728 C1726 1.419 . S
C1728 C1729 1.363 . S
C1728 H1731 0.929 . S
C1729 C1728 1.363 . S
C1729 C1735 1.428 . S
H1730 C1726 0.930 . S
H1731 C1728 0.929 . S
S1732 N1733 1.613 . S
S1732 N1734 1.610 . S
N1733 S1732 1.613 . S
N1733 C1736 1.350 . S
N1734 S1732 1.610 . S
N1734 C1735 1.351 . S
C1735 C1729 1.428 . S
C1735 N1734 1.351 . S
C1735 C1736 1.434 . S
C1736 C1727 1.429 . S
C1736 N1733 1.350 . S
C1736 C1735 1.434 . S
C1737 C1738 1.369 . S
C1737 C1739 1.419 . S
C1737 H1741 0.930 . S
C1738 C1737 1.369 . S
C1738 C1747 1.429 . S
C1739 C1737 1.419 . S
C1739 C1740 1.363 1_545 S
C1739 H1742 0.929 . S
C1740 C1739 1.363 1_565 S
C1740 C1746 1.428 . S
H1741 C1737 0.930 . S
H1742 C1739 0.929 . S
S1743 N1744 1.613 . S
S1743 N1745 1.610 1_545 S
N1744 S1743 1.613 . S
N1744 C1747 1.350 . S
N1745 S1743 1.610 1_565 S
N1745 C1746 1.351 . S
C1746 C1740 1.428 . S
C1746 N1745 1.351 . S
C1746 C1747 1.434 1_565 S
C1747 C1738 1.429 . S
C1747 N1744 1.350 . S
C1747 C1746 1.434 1_545 S
C1748 C1749 1.369 . S
C1748 C1750 1.419 . S
C1748 H1752 0.930 . S
C1749 C1748 1.369 . S
C1749 C1758 1.429 . S
C1750 C1748 1.419 . S
C1750 C1751 1.363 . S
C1750 H1753 0.929 . S
C1751 C1750 1.363 . S
C1751 C1757 1.428 . S
H1752 C1748 0.930 . S
H1753 C1750 0.929 . S
S1754 N1755 1.613 . S
S1754 N1756 1.610 . S
N1755 S1754 1.613 . S
N1755 C1758 1.350 . S
N1756 S1754 1.610 . S
N1756 C1757 1.351 . S
C1757 C1751 1.428 . S
C1757 N1756 1.351 . S
C1757 C1758 1.434 . S
C1758 C1749 1.429 . S
C1758 N1755 1.350 . S
C1758 C1757 1.434 . S
C1759 C1760 1.369 . S
C1759 C1761 1.419 . S
C1759 H1763 0.930 . S
C1760 C1759 1.369 . S
C1760 C1769 1.429 . S
C1761 C1759 1.419 . S
C1761 C1762 1.363 . S
C1761 H1764 0.929 . S
C1762 C1761 1.363 . S
C1762 C1768 1.428 . S
H1763 C1759 0.930 . S
H1764 C1761 0.929 . S
S1765 N1766 1.613 . S
S1765 N1767 1.610 . S
N1766 S1765 1.613 . S
N1766 C1769 1.350 . S
N1767 S1765 1.610 . S
N1767 C1768 1.351 . S
C1768 C1762 1.428 . S
C1768 N1767 1.351 . S
C1768 C1769 1.434 . S
C1769 C1760 1.429 . S
C1769 N1766 1.350 . S
C1769 C1768 1.434 . S
C1770 C1771 1.369 . S
C1770 C1772 1.419 . S
C1770 H1774 0.930 . S
C1771 C1770 1.369 . S
C1771 C1780 1.429 . S
C1772 C1770 1.419 . S
C1772 C1773 1.363 . S
C1772 H1775 0.929 . S
C1773 C1772 1.363 . S
C1773 C1779 1.428 . S
H1774 C1770 0.930 . S
H1775 C1772 0.929 . S
S1776 N1777 1.613 . S
S1776 N1778 1.610 . S
N1777 S1776 1.613 . S
N1777 C1780 1.350 . S
N1778 S1776 1.610 . S
N1778 C1779 1.351 . S
C1779 C1773 1.428 . S
C1779 N1778 1.351 . S
C1779 C1780 1.434 . S
C1780 C1771 1.429 . S
C1780 N1777 1.350 . S
C1780 C1779 1.434 . S
C1781 C1782 1.369 . S
C1781 C1783 1.419 . S
C1781 H1785 0.930 . S
C1782 C1781 1.369 . S
C1782 C1791 1.429 1_554 S
C1783 C1781 1.419 . S
C1783 C1784 1.363 1_545 S
C1783 H1786 0.929 . S
C1784 C1783 1.363 1_565 S
C1784 C1790 1.428 1_554 S
H1785 C1781 0.930 . S
H1786 C1783 0.929 . S
S1787 N1788 1.613 1_565 S
S1787 N1789 1.610 . S
N1788 S1787 1.613 1_545 S
N1788 C1791 1.350 . S
N1789 S1787 1.610 . S
N1789 C1790 1.351 . S
C1790 C1784 1.428 1_556 S
C1790 N1789 1.351 . S
C1790 C1791 1.434 1_565 S
C1791 C1782 1.429 1_556 S
C1791 N1788 1.350 . S
C1791 C1790 1.434 1_545 S
C1792 C1793 1.354 1_546 S
C1792 C1794 1.421 . S
C1792 H1796 0.944 . S
C1793 C1792 1.354 1_564 S
C1793 C1802 1.429 1_655 S
C1794 C1792 1.421 . S
C1794 C1795 1.363 1_656 S
C1794 H1797 0.929 . S
C1795 C1794 1.363 1_454 S
C1795 C1801 1.428 . S
H1796 C1792 0.944 . S
H1797 C1794 0.929 . S
S1798 N1799 1.613 . S
S1798 N1800 1.610 1_565 S
N1799 S1798 1.613 . S
N1799 C1802 1.350 . S
N1800 S1798 1.610 1_545 S
N1800 C1801 1.351 . S
C1801 C1795 1.428 . S
C1801 N1800 1.351 . S
C1801 C1802 1.434 1_545 S
C1802 C1793 1.429 1_455 S
C1802 N1799 1.350 . S
C1802 C1801 1.434 1_565 S
C1803 C1804 1.369 1_556 S
C1803 C1805 1.419 1_556 S
C1803 H1807 0.930 . S
C1804 C1803 1.369 1_554 S
C1804 C1813 1.429 . S
C1805 C1803 1.419 1_554 S
C1805 C1806 1.363 . S
C1805 H1808 0.929 1_554 S
C1806 C1805 1.363 . S
C1806 C1812 1.428 . S
H1807 C1803 0.930 . S
H1808 C1805 0.929 1_556 S
S1809 N1810 1.613 . S
S1809 N1811 1.610 . S
N1810 S1809 1.613 . S
N1810 C1813 1.350 . S
N1811 S1809 1.610 . S
N1811 C1812 1.351 . S
C1812 C1806 1.428 . S
C1812 N1811 1.351 . S
C1812 C1813 1.434 . S
C1813 C1804 1.429 . S
C1813 N1810 1.350 . S
C1813 C1812 1.434 . S
C1814 C1815 1.369 . S
C1814 C1816 1.419 1_655 S
C1814 H1818 0.930 . S
C1815 C1814 1.369 . S
C1815 C1824 1.429 . S
C1816 C1814 1.419 1_455 S
C1816 C1817 1.363 . S
C1816 H1819 0.929 . S
C1817 C1816 1.363 . S
C1817 C1823 1.459 . S
H1818 C1814 0.930 . S
H1819 C1816 0.929 . S
S1820 N1821 1.613 . S
S1820 N1822 1.610 . S
N1821 S1820 1.613 . S
N1821 C1824 1.350 . S
N1822 S1820 1.610 . S
N1822 C1823 1.348 1_655 S
C1823 C1817 1.459 . S
C1823 N1822 1.348 1_455 S
C1823 C1824 1.402 1_455 S
C1824 C1815 1.429 . S
C1824 N1821 1.350 . S
C1824 C1823 1.402 1_655 S
C1825 C1826 1.369 . S
C1825 C1827 1.419 1_545 S
C1825 H1829 0.930 . S
C1826 C1825 1.369 . S
C1826 C1835 1.429 . S
C1827 C1825 1.419 1_565 S
C1827 C1828 1.363 . S
C1827 H1830 0.929 . S
C1828 C1827 1.363 . S
C1828 C1834 1.428 1_565 S
H1829 C1825 0.930 . S
H1830 C1827 0.929 . S
S1831 N1832 1.613 . S
S1831 N1833 1.610 . S
N1832 S1831 1.613 . S
N1832 C1835 1.350 . S
N1833 S1831 1.610 . S
N1833 C1834 1.351 . S
C1834 C1828 1.428 1_545 S
C1834 N1833 1.351 . S
C1834 C1835 1.434 . S
C1835 C1826 1.429 . S
C1835 N1832 1.350 . S
C1835 C1834 1.434 . S
C1836 C1837 1.369 . S
C1836 C1838 1.419 . S
C1836 H1840 0.930 . S
C1837 C1836 1.369 . S
C1837 C1846 1.429 1_554 S
C1838 C1836 1.419 . S
C1838 C1839 1.363 . S
C1838 H1841 0.929 . S
C1839 C1838 1.363 . S
C1839 C1845 1.428 1_554 S
H1840 C1836 0.930 . S
H1841 C1838 0.929 . S
S1842 N1843 1.613 . S
S1842 N1844 1.610 . S
N1843 S1842 1.613 . S
N1843 C1846 1.350 . S
N1844 S1842 1.610 . S
N1844 C1845 1.351 . S
C1845 C1839 1.428 1_556 S
C1845 N1844 1.351 . S
C1845 C1846 1.434 . S
C1846 C1837 1.429 1_556 S
C1846 N1843 1.350 . S
C1846 C1845 1.434 . S
C1847 C1848 1.369 . S
C1847 C1849 1.419 . S
C1847 H1851 0.930 . S
C1848 C1847 1.369 . S
C1848 C1857 1.429 1_655 S
C1849 C1847 1.419 . S
C1849 C1850 1.363 1_655 S
C1849 H1852 0.929 . S
C1850 C1849 1.363 1_455 S
C1850 C1856 1.428 . S
H1851 C1847 0.930 . S
H1852 C1849 0.929 . S
S1853 N1854 1.613 . S
S1853 N1855 1.610 . S
N1854 S1853 1.613 . S
N1854 C1857 1.350 . S
N1855 S1853 1.610 . S
N1855 C1856 1.351 . S
C1856 C1850 1.428 . S
C1856 N1855 1.351 . S
C1856 C1857 1.434 . S
C1857 C1848 1.429 1_455 S
C1857 N1854 1.350 . S
C1857 C1856 1.434 . S
C1858 C1859 1.369 1_545 S
C1858 C1860 1.419 . S
C1858 H1862 0.930 . S
C1859 C1858 1.369 1_565 S
C1859 C1868 1.429 . S
C1860 C1858 1.419 . S
C1860 C1861 1.363 . S
C1860 H1863 0.929 . S
C1861 C1860 1.363 . S
C1861 C1867 1.428 . S
H1862 C1858 0.930 . S
H1863 C1860 0.929 . S
S1864 N1865 1.613 . S
S1864 N1866 1.610 1_565 S
N1865 S1864 1.613 . S
N1865 C1868 1.350 . S
N1866 S1864 1.610 1_545 S
N1866 C1867 1.351 . S
C1867 C1861 1.428 . S
C1867 N1866 1.351 . S
C1867 C1868 1.434 1_545 S
C1868 C1859 1.429 . S
C1868 N1865 1.350 . S
C1868 C1867 1.434 1_565 S
C1869 C1870 1.369 1_655 S
C1869 C1871 1.419 . S
C1869 H1873 0.930 . S
C1870 C1869 1.369 1_455 S
C1870 C1879 1.429 . S
C1871 C1869 1.419 . S
C1871 C1872 1.363 . S
C1871 H1874 0.929 . S
C1872 C1871 1.363 . S
C1872 C1878 1.428 1_655 S
H1873 C1869 0.930 . S
H1874 C1871 0.929 . S
S1875 N1876 1.613 . S
S1875 N1877 1.610 . S
N1876 S1875 1.613 . S
N1876 C1879 1.350 . S
N1877 S1875 1.610 . S
N1877 C1878 1.351 . S
C1878 C1872 1.428 1_455 S
C1878 N1877 1.351 . S
C1878 C1879 1.434 . S
C1879 C1870 1.429 . S
C1879 N1876 1.350 . S
C1879 C1878 1.434 . S
C1880 C1881 1.369 . S
C1880 C1882 1.419 . S
C1880 H1884 0.930 . S
C1881 C1880 1.369 . S
C1881 C1890 1.429 . S
C1882 C1880 1.419 . S
C1882 C1883 1.363 . S
C1882 H1885 0.929 . S
C1883 C1882 1.363 . S
C1883 C1889 1.428 . S
H1884 C1880 0.930 . S
H1885 C1882 0.929 . S
S1886 N1887 1.613 . S
S1886 N1888 1.610 . S
N1887 S1886 1.613 . S
N1887 C1890 1.350 . S
N1888 S1886 1.610 . S
N1888 C1889 1.351 . S
C1889 C1883 1.428 . S
C1889 N1888 1.351 . S
C1889 C1890 1.434 . S
C1890 C1881 1.429 . S
C1890 N1887 1.350 . S
C1890 C1889 1.434 . S
C1891 C1892 1.369 . S
C1891 C1893 1.419 . S
C1891 H1895 0.930 . S
C1892 C1891 1.369 . S
C1892 C1901 1.429 . S
C1893 C1891 1.419 . S
C1893 C1894 1.363 . S
C1893 H1896 0.929 . S
C1894 C1893 1.363 . S
C1894 C1900 1.428 . S
H1895 C1891 0.930 . S
H1896 C1893 0.929 . S
S1897 N1898 1.613 . S
S1897 N1899 1.610 . S
N1898 S1897 1.613 . S
N1898 C1901 1.350 . S
N1899 S1897 1.610 . S
N1899 C1900 1.351 . S
C1900 C1894 1.428 . S
C1900 N1899 1.351 . S
C1900 C1901 1.434 . S
C1901 C1892 1.429 . S
C1901 N1898 1.350 . S
C1901 C1900 1.434 . S
C1902 C1903 1.369 . S
C1902 C1904 1.419 . S
C1902 H1906 0.930 . S
C1903 C1902 1.369 . S
C1903 C1912 1.429 . S
C1904 C1902 1.419 . S
C1904 C1905 1.363 . S
C1904 H1907 0.929 . S
C1905 C1904 1.363 . S
C1905 C1911 1.428 . S
H1906 C1902 0.930 . S
H1907 C1904 0.929 . S
S1908 N1909 1.613 . S
S1908 N1910 1.610 . S
N1909 S1908 1.613 . S
N1909 C1912 1.350 . S
N1910 S1908 1.610 . S
N1910 C1911 1.351 . S
C1911 C1905 1.428 . S
C1911 N1910 1.351 . S
C1911 C1912 1.434 . S
C1912 C1903 1.429 . S
C1912 N1909 1.350 . S
C1912 C1911 1.434 . S
C1913 C1914 1.369 . S
C1913 C1915 1.419 . S
C1913 H1917 0.930 . S
C1914 C1913 1.369 . S
C1914 C1923 1.429 . S
C1915 C1913 1.419 . S
C1915 C1916 1.363 . S
C1915 H1918 0.929 . S
C1916 C1915 1.363 . S
C1916 C1922 1.428 . S
H1917 C1913 0.930 . S
H1918 C1915 0.929 . S
S1919 N1920 1.613 . S
S1919 N1921 1.610 . S
N1920 S1919 1.613 . S
N1920 C1923 1.350 . S
N1921 S1919 1.610 . S
N1921 C1922 1.351 . S
C1922 C1916 1.428 . S
C1922 N1921 1.351 . S
C1922 C1923 1.434 . S
C1923 C1914 1.429 . S
C1923 N1920 1.350 . S
C1923 C1922 1.434 . S
C1924 C1925 1.369 . S
C1924 C1926 1.419 . S
C1924 H1928 0.930 . S
C1925 C1924 1.369 . S
C1925 C1934 1.429 . S
C1926 C1924 1.419 . S
C1926 C1927 1.363 1_545 S
C1926 H1929 0.929 . S
C1927 C1926 1.363 1_565 S
C1927 C1933 1.428 . S
H1928 C1924 0.930 . S
H1929 C1926 0.929 . S
S1930 N1931 1.613 . S
S1930 N1932 1.610 . S
N1931 S1930 1.613 . S
N1931 C1934 1.350 1_565 S
N1932 S1930 1.610 . S
N1932 C1933 1.351 . S
C1933 C1927 1.428 . S
C1933 N1932 1.351 . S
C1933 C1934 1.434 1_565 S
C1934 C1925 1.429 . S
C1934 N1931 1.350 1_545 S
C1934 C1933 1.434 1_545 S
C1935 C1936 1.369 . S
C1935 C1937 1.419 . S
C1935 H1939 0.930 . S
C1936 C1935 1.369 . S
C1936 C1945 1.429 . S
C1937 C1935 1.419 . S
C1937 C1938 1.363 . S
C1937 H1940 0.929 . S
C1938 C1937 1.363 . S
C1938 C1944 1.428 . S
H1939 C1935 0.930 . S
H1940 C1937 0.929 . S
S1941 N1942 1.613 . S
S1941 N1943 1.610 . S
N1942 S1941 1.613 . S
N1942 C1945 1.350 . S
N1943 S1941 1.610 . S
N1943 C1944 1.351 . S
C1944 C1938 1.428 . S
C1944 N1943 1.351 . S
C1944 C1945 1.434 . S
C1945 C1936 1.429 . S
C1945 N1942 1.350 . S
C1945 C1944 1.434 . S
C1946 C1947 1.369 . S
C1946 C1948 1.419 . S
C1946 H1950 0.930 . S
C1947 C1946 1.369 . S
C1947 C1956 1.429 . S
C1948 C1946 1.419 . S
C1948 C1949 1.363 . S
C1948 H1951 0.929 . S
C1949 C1948 1.363 . S
C1949 C1955 1.428 . S
H1950 C1946 0.930 . S
H1951 C1948 0.929 . S
S1952 N1953 1.613 . S
S1952 N1954 1.610 . S
N1953 S1952 1.613 . S
N1953 C1956 1.350 . S
N1954 S1952 1.610 . S
N1954 C1955 1.351 . S
C1955 C1949 1.428 . S
C1955 N1954 1.351 . S
C1955 C1956 1.434 . S
C1956 C1947 1.429 . S
C1956 N1953 1.350 . S
C1956 C1955 1.434 . S
C1957 C1958 1.369 . S
C1957 C1959 1.419 . S
C1957 H1961 0.930 . S
C1958 C1957 1.369 . S
C1958 C1967 1.429 . S
C1959 C1957 1.419 . S
C1959 C1960 1.363 . S
C1959 H1962 0.929 . S
C1960 C1959 1.363 . S
C1960 C1966 1.428 . S
H1961 C1957 0.930 . S
H1962 C1959 0.929 . S
S1963 N1964 1.614 . S
S1963 N1965 1.618 . S
N1964 S1963 1.614 . S
N1964 C1967 1.350 . S
N1965 S1963 1.618 . S
N1965 C1966 1.351 . S
C1966 C1960 1.428 . S
C1966 N1965 1.351 . S
C1966 C1967 1.434 . S
C1967 C1958 1.429 . S
C1967 N1964 1.350 . S
C1967 C1966 1.434 . S
C1089 C73 1.916 . S
C1091 C5 1.920 . S
C1100 C39 1.921 . S
C1102 C107 1.917 . S
C1111 C209 1.919 1_565 S
C1113 C141 1.920 . S
C1122 C243 1.920 . S
C1124 C175 1.917 1_565 S
C1133 C277 1.918 . S
C1135 C345 1.921 . S
C1144 C311 1.920 . S
C1146 C379 1.917 . S
C1155 C481 1.917 . S
C1157 C413 1.921 . S
C1166 C515 1.921 . S
C1168 C447 1.918 . S
C1177 C617 1.918 . S
C1179 C549 1.917 . S
C1188 C651 1.918 . S
C1190 C583 1.917 . S
C1199 C685 1.919 . S
C1201 C753 1.920 1_565 S
C1210 C787 1.917 . S
C1212 C719 1.919 1_565 S
C1221 C821 1.921 . S
C1223 C889 1.918 . S
C1232 C855 1.918 . S
C1234 C923 1.920 . S
C1243 C1025 1.917 . S
C1245 C957 1.920 . S
C1254 C991 1.918 . S
C1256 C1059 1.920 . S
C1265 C9 1.203 . S
C1267 C349 1.201 . S
C1276 C383 1.204 . S
C1278 C43 1.204 . S
C1287 C77 1.196 . S
C1289 C281 1.199 . S
C1298 C111 1.198 . S
C1300 C315 1.201 . S
C1309 C145 1.202 . S
C1311 C485 1.200 . S
C1320 C519 1.203 . S
C1322 C179 1.200 . S
C1331 C417 1.203 . S
C1333 C213 1.204 . S
C1342 C247 1.202 . S
C1344 C451 1.199 . S
C1353 C893 1.195 . S
C1355 C553 1.198 . S
C1364 C587 1.204 . S
C1366 C927 1.202 . S
C1375 C621 1.198 . S
C1377 C825 1.200 . S
C1386 C859 1.198 . S
C1388 C655 1.200 . S
C1397 C689 1.200 . S
C1399 C1029 1.198 . S
C1408 C723 1.207 . S
C1410 C1063 1.205 . S
C1419 C757 1.201 . S
C1421 C961 1.203 . S
C1430 C791 1.203 . S
C1432 C995 1.204 . S
C1441 C2 1.433 . S
C1443 C36 1.435 . S
C1452 C70 1.433 . S
C1454 C104 1.435 . S
C1463 C172 1.435 . S
C1465 C138 1.434 . S
C1474 C206 1.433 . S
C1476 C240 1.435 . S
C1485 C274 1.434 . S
C1487 C308 1.436 . S
C1496 C376 1.435 . S
C1498 C342 1.434 . S
C1507 C444 1.435 . S
C1509 C410 1.436 . S
C1518 C478 1.433 . S
C1520 C512 1.435 . S
C1529 C546 1.436 . S
C1531 C580 1.435 . S
C1540 C648 1.433 . S
C1542 C614 1.435 . S
C1551 C682 1.436 . S
C1553 C716 1.435 . S
C1562 C784 1.436 . S
C1564 C750 1.435 . S
C1573 C818 1.434 . S
C1575 C852 1.436 . S
C1584 C920 1.436 . S
C1586 C886 1.435 . S
C1595 C988 1.436 . S
C1597 C954 1.434 . S
C1606 C1022 1.434 . S
C1608 C1056 1.434 . S
C1617 C20 1.332 . S
C1619 C156 1.326 1_554 S
C1628 C1006 1.326 1_554 S
C1630 C54 1.331 . S
C1639 C88 1.324 . S
C1641 C496 1.332 . S
C1650 C122 1.329 . S
C1652 C802 1.328 . S
C1661 C190 1.324 1_554 S
C1663 C870 1.332 . S
C1672 C224 1.330 . S
C1674 C360 1.328 . S
C1683 C666 1.325 . S
C1685 C258 1.331 . S
C1694 C428 1.326 . S
C1696 C292 1.331 . S
C1705 C734 1.326 . S
C1707 C326 1.331 . S
C1716 C1074 1.328 . S
C1718 C394 1.330 . S
C1727 C598 1.324 . S
C1729 C462 1.332 . S
C1738 C530 1.325 . S
C1740 C938 1.332 . S
C1749 C564 1.326 . S
C1751 C700 1.331 . S
C1760 C632 1.327 . S
C1762 C1040 1.331 . S
C1771 C904 1.326 . S
C1773 C768 1.331 . S
C1782 C972 1.331 1_554 S
C1784 C836 1.326 . S
C1793 C169 1.251 . S
C1795 C33 1.251 . S
C1804 C67 1.248 . S
C1806 C1019 1.253 . S
C1815 C509 1.255 . S
C1817 C101 1.249 . S
C1826 C135 1.248 . S
C1828 C815 1.254 . S
C1837 C883 1.253 . S
C1839 C203 1.249 . S
C1848 C237 1.250 . S
C1850 C373 1.253 . S
C1859 C271 1.251 . S
C1861 C679 1.251 . S
C1870 C305 1.254 . S
C1872 C441 1.249 . S
C1881 C339 1.249 . S
C1883 C747 1.253 . S
C1892 C1087 1.251 . S
C1894 C407 1.251 . S
C1903 C611 1.248 . S
C1905 C475 1.254 . S
C1914 C543 1.254 . S
C1916 C951 1.249 . S
C1925 C577 1.255 . S
C1927 C713 1.249 . S
C1936 C645 1.249 . S
C1938 C1053 1.253 . S
C1947 C781 1.251 . S
C1949 C917 1.252 . S
C1958 C849 1.248 . S
C1960 C985 1.254 . S
