# Generated by pormake.
# Topology uow, (4)-cn, num edge types: 1
# Building blocks:
#     Node 0, Type 0, BuildingBlock: AZAVOO_clean_sbu_0, # of connection points: 4
#     Node 1, Type 0, BuildingBlock: AZAVOO_clean_sbu_0, # of connection points: 4
#     Node 2, Type 0, BuildingBlock: AZAVOO_clean_sbu_0, # of connection points: 4
#     Node 3, Type 0, BuildingBlock: AZAVOO_clean_sbu_0, # of connection points: 4
#     Node 4, Type 0, BuildingBlock: AZAVOO_clean_sbu_0, # of connection points: 4
#     Node 5, Type 0, BuildingBlock: AZAVOO_clean_sbu_0, # of connection points: 4
#     Node 6, Type 0, BuildingBlock: AZAVOO_clean_sbu_0, # of connection points: 4
#     Node 7, Type 0, BuildingBlock: AZAVOO_clean_sbu_0, # of connection points: 4
#     Node 8, Type 0, BuildingBlock: AZAVOO_clean_sbu_0, # of connection points: 4
#     Node 9, Type 0, BuildingBlock: AZAVOO_clean_sbu_0, # of connection points: 4
#     Node 10, Type 0, BuildingBlock: AZAVOO_clean_sbu_0, # of connection points: 4
#     Node 11, Type 0, BuildingBlock: AZAVOO_clean_sbu_0, # of connection points: 4
#     Node 12, Type 0, BuildingBlock: AZAVOO_clean_sbu_0, # of connection points: 4
#     Node 13, Type 0, BuildingBlock: AZAVOO_clean_sbu_0, # of connection points: 4
#     Node 14, Type 0, BuildingBlock: AZAVOO_clean_sbu_0, # of connection points: 4
#     Node 15, Type 0, BuildingBlock: AZAVOO_clean_sbu_0, # of connection points: 4
#     Node 16, Type 0, BuildingBlock: AZAVOO_clean_sbu_0, # of connection points: 4
#     Node 17, Type 0, BuildingBlock: AZAVOO_clean_sbu_0, # of connection points: 4
#     Node 18, Type 0, BuildingBlock: AZAVOO_clean_sbu_0, # of connection points: 4
#     Node 19, Type 0, BuildingBlock: AZAVOO_clean_sbu_0, # of connection points: 4
#     Node 20, Type 0, BuildingBlock: AZAVOO_clean_sbu_0, # of connection points: 4
#     Node 21, Type 0, BuildingBlock: AZAVOO_clean_sbu_0, # of connection points: 4
#     Node 22, Type 0, BuildingBlock: AZAVOO_clean_sbu_0, # of connection points: 4
#     Node 23, Type 0, BuildingBlock: AZAVOO_clean_sbu_0, # of connection points: 4
#     Node 24, Type 0, BuildingBlock: AZAVOO_clean_sbu_0, # of connection points: 4
#     Node 25, Type 0, BuildingBlock: AZAVOO_clean_sbu_0, # of connection points: 4
#     Node 26, Type 0, BuildingBlock: AZAVOO_clean_sbu_0, # of connection points: 4
#     Node 27, Type 0, BuildingBlock: AZAVOO_clean_sbu_0, # of connection points: 4
#     Node 28, Type 0, BuildingBlock: AZAVOO_clean_sbu_0, # of connection points: 4
#     Node 29, Type 0, BuildingBlock: AZAVOO_clean_sbu_0, # of connection points: 4
#     Node 30, Type 0, BuildingBlock: AZAVOO_clean_sbu_0, # of connection points: 4
#     Node 31, Type 0, BuildingBlock: AZAVOO_clean_sbu_0, # of connection points: 4
#     Edge 32, Type (0, 0), BuildingBlock: ZUJKAS_clean_linker_0, # of connection points: 2
#     Edge 33, Type (0, 0), BuildingBlock: ZUJKAS_clean_linker_0, # of connection points: 2
#     Edge 34, Type (0, 0), BuildingBlock: ZUJKAS_clean_linker_0, # of connection points: 2
#     Edge 35, Type (0, 0), BuildingBlock: ZUJKAS_clean_linker_0, # of connection points: 2
#     Edge 36, Type (0, 0), BuildingBlock: ZUJKAS_clean_linker_0, # of connection points: 2
#     Edge 37, Type (0, 0), BuildingBlock: ZUJKAS_clean_linker_0, # of connection points: 2
#     Edge 38, Type (0, 0), BuildingBlock: ZUJKAS_clean_linker_0, # of connection points: 2
#     Edge 39, Type (0, 0), BuildingBlock: ZUJKAS_clean_linker_0, # of connection points: 2
#     Edge 40, Type (0, 0), BuildingBlock: ZUJKAS_clean_linker_0, # of connection points: 2
#     Edge 41, Type (0, 0), BuildingBlock: ZUJKAS_clean_linker_0, # of connection points: 2
#     Edge 42, Type (0, 0), BuildingBlock: ZUJKAS_clean_linker_0, # of connection points: 2
#     Edge 43, Type (0, 0), BuildingBlock: ZUJKAS_clean_linker_0, # of connection points: 2
#     Edge 44, Type (0, 0), BuildingBlock: ZUJKAS_clean_linker_0, # of connection points: 2
#     Edge 45, Type (0, 0), BuildingBlock: ZUJKAS_clean_linker_0, # of connection points: 2
#     Edge 46, Type (0, 0), BuildingBlock: ZUJKAS_clean_linker_0, # of connection points: 2
#     Edge 47, Type (0, 0), BuildingBlock: ZUJKAS_clean_linker_0, # of connection points: 2
#     Edge 48, Type (0, 0), BuildingBlock: ZUJKAS_clean_linker_0, # of connection points: 2
#     Edge 49, Type (0, 0), BuildingBlock: ZUJKAS_clean_linker_0, # of connection points: 2
#     Edge 50, Type (0, 0), BuildingBlock: ZUJKAS_clean_linker_0, # of connection points: 2
#     Edge 51, Type (0, 0), BuildingBlock: ZUJKAS_clean_linker_0, # of connection points: 2
#     Edge 52, Type (0, 0), BuildingBlock: ZUJKAS_clean_linker_0, # of connection points: 2
#     Edge 53, Type (0, 0), BuildingBlock: ZUJKAS_clean_linker_0, # of connection points: 2
#     Edge 54, Type (0, 0), BuildingBlock: ZUJKAS_clean_linker_0, # of connection points: 2
#     Edge 55, Type (0, 0), BuildingBlock: ZUJKAS_clean_linker_0, # of connection points: 2
#     Edge 56, Type (0, 0), BuildingBlock: ZUJKAS_clean_linker_0, # of connection points: 2
#     Edge 57, Type (0, 0), BuildingBlock: ZUJKAS_clean_linker_0, # of connection points: 2
#     Edge 58, Type (0, 0), BuildingBlock: ZUJKAS_clean_linker_0, # of connection points: 2
#     Edge 59, Type (0, 0), BuildingBlock: ZUJKAS_clean_linker_0, # of connection points: 2
#     Edge 60, Type (0, 0), BuildingBlock: ZUJKAS_clean_linker_0, # of connection points: 2
#     Edge 61, Type (0, 0), BuildingBlock: ZUJKAS_clean_linker_0, # of connection points: 2
#     Edge 62, Type (0, 0), BuildingBlock: ZUJKAS_clean_linker_0, # of connection points: 2
#     Edge 63, Type (0, 0), BuildingBlock: ZUJKAS_clean_linker_0, # of connection points: 2
#     Edge 64, Type (0, 0), BuildingBlock: ZUJKAS_clean_linker_0, # of connection points: 2
#     Edge 65, Type (0, 0), BuildingBlock: ZUJKAS_clean_linker_0, # of connection points: 2
#     Edge 66, Type (0, 0), BuildingBlock: ZUJKAS_clean_linker_0, # of connection points: 2
#     Edge 67, Type (0, 0), BuildingBlock: ZUJKAS_clean_linker_0, # of connection points: 2
#     Edge 68, Type (0, 0), BuildingBlock: ZUJKAS_clean_linker_0, # of connection points: 2
#     Edge 69, Type (0, 0), BuildingBlock: ZUJKAS_clean_linker_0, # of connection points: 2
#     Edge 70, Type (0, 0), BuildingBlock: ZUJKAS_clean_linker_0, # of connection points: 2
#     Edge 71, Type (0, 0), BuildingBlock: ZUJKAS_clean_linker_0, # of connection points: 2
#     Edge 72, Type (0, 0), BuildingBlock: ZUJKAS_clean_linker_0, # of connection points: 2
#     Edge 73, Type (0, 0), BuildingBlock: ZUJKAS_clean_linker_0, # of connection points: 2
#     Edge 74, Type (0, 0), BuildingBlock: ZUJKAS_clean_linker_0, # of connection points: 2
#     Edge 75, Type (0, 0), BuildingBlock: ZUJKAS_clean_linker_0, # of connection points: 2
#     Edge 76, Type (0, 0), BuildingBlock: ZUJKAS_clean_linker_0, # of connection points: 2
#     Edge 77, Type (0, 0), BuildingBlock: ZUJKAS_clean_linker_0, # of connection points: 2
#     Edge 78, Type (0, 0), BuildingBlock: ZUJKAS_clean_linker_0, # of connection points: 2
#     Edge 79, Type (0, 0), BuildingBlock: ZUJKAS_clean_linker_0, # of connection points: 2
#     Edge 80, Type (0, 0), BuildingBlock: ZUJKAS_clean_linker_0, # of connection points: 2
#     Edge 81, Type (0, 0), BuildingBlock: ZUJKAS_clean_linker_0, # of connection points: 2
#     Edge 82, Type (0, 0), BuildingBlock: ZUJKAS_clean_linker_0, # of connection points: 2
#     Edge 83, Type (0, 0), BuildingBlock: ZUJKAS_clean_linker_0, # of connection points: 2
#     Edge 84, Type (0, 0), BuildingBlock: ZUJKAS_clean_linker_0, # of connection points: 2
#     Edge 85, Type (0, 0), BuildingBlock: ZUJKAS_clean_linker_0, # of connection points: 2
#     Edge 86, Type (0, 0), BuildingBlock: ZUJKAS_clean_linker_0, # of connection points: 2
#     Edge 87, Type (0, 0), BuildingBlock: ZUJKAS_clean_linker_0, # of connection points: 2
#     Edge 88, Type (0, 0), BuildingBlock: ZUJKAS_clean_linker_0, # of connection points: 2
#     Edge 89, Type (0, 0), BuildingBlock: ZUJKAS_clean_linker_0, # of connection points: 2
#     Edge 90, Type (0, 0), BuildingBlock: ZUJKAS_clean_linker_0, # of connection points: 2
#     Edge 91, Type (0, 0), BuildingBlock: ZUJKAS_clean_linker_0, # of connection points: 2
#     Edge 92, Type (0, 0), BuildingBlock: ZUJKAS_clean_linker_0, # of connection points: 2
#     Edge 93, Type (0, 0), BuildingBlock: ZUJKAS_clean_linker_0, # of connection points: 2
#     Edge 94, Type (0, 0), BuildingBlock: ZUJKAS_clean_linker_0, # of connection points: 2
#     Edge 95, Type (0, 0), BuildingBlock: ZUJKAS_clean_linker_0, # of connection points: 2
# Relax obj value: 0.274
# Max RMSD: 0.244
# Mean RMSD: 0.244
data_MOF--net-uow--node1-AZAVOO_clean_sbu_0--edge1-ZUJKAS_clean_linker_0
_symmetry_space_group_name_H-M    P1
_symmetry_Int_Tables_number       1
_symmetry_cell_setting            triclinic
loop_
_symmetry_equiv_pos_as_xyz
'x, y, z'
_cell_length_a     77.174171
_cell_length_b     77.179421
_cell_length_c     52.545864
_cell_angle_alpha  90.003295
_cell_angle_beta   89.981105
_cell_angle_gamma 90.005395
loop_
_atom_site_label
_atom_site_type_symbol
_atom_site_fract_x
_atom_site_fract_y
_atom_site_fract_z
_atom_type_partial_charge
Mg0 Mg 0.973 0.37976 0.23964 0.0
O1 O 0.99277 0.37203 0.27064 0.0
O2 O 0.01875 0.37318 0.25176 0.0
Mg3 Mg 0.01591 0.38107 0.2101 0.0
C4 C 0.00927 0.37036 0.27127 0.0
C5 C 0.94624 0.38267 0.29043 0.0
O6 O 0.93376 0.39222 0.30005 0.0
O7 O 0.98176 0.40769 0.24225 0.0
O8 O 0.00742 0.40845 0.22271 0.0
O9 O 0.97061 0.35184 0.22735 0.0
O10 O 0.98944 0.37051 0.21179 0.0
C11 C 0.99498 0.41599 0.23433 0.0
C12 C 0.98362 0.35493 0.21242 0.0
O13 O 0.95197 0.38656 0.2685 0.0
Mg14 Mg 0.87622 0.72413 0.47483 0.0
O15 O 0.88263 0.74361 0.50673 0.0
O16 O 0.8834 0.76973 0.48822 0.0
Mg17 Mg 0.87843 0.76708 0.44552 0.0
C18 C 0.88465 0.76005 0.50787 0.0
C19 C 0.86907 0.69712 0.52472 0.0
O20 O 0.85805 0.68538 0.53283 0.0
O21 O 0.8486 0.734 0.47352 0.0
O22 O 0.85004 0.75964 0.45404 0.0
O23 O 0.90471 0.7207 0.46663 0.0
O24 O 0.88791 0.74022 0.44852 0.0
C25 C 0.84134 0.7475 0.46451 0.0
C26 C 0.90315 0.73382 0.45141 0.0
O27 O 0.86668 0.70354 0.50273 0.0
Mg28 Mg 0.52016 0.63281 0.73099 0.0
O29 O 0.49559 0.63709 0.7546 0.0
O30 O 0.47205 0.63117 0.73155 0.0
Mg31 Mg 0.48191 0.62206 0.69266 0.0
C32 C 0.47916 0.63612 0.75224 0.0
C33 C 0.53325 0.64919 0.78051 0.0
O34 O 0.52126 0.66005 0.77271 0.0
O35 O 0.51733 0.60356 0.73607 0.0
O36 O 0.49437 0.59814 0.71138 0.0
O37 O 0.51824 0.65977 0.71623 0.0
O38 O 0.5059 0.63723 0.69771 0.0
C39 C 0.50648 0.59301 0.72618 0.0
C40 C 0.50811 0.65377 0.6987 0.0
O41 O 0.53635 0.63575 0.76725 0.0
Mg42 Mg 0.62109 0.26908 0.99198 0.0
O43 O 0.61569 0.24384 0.01357 0.0
O44 O 0.62204 0.22097 0.98935 0.0
Mg45 Mg 0.63229 0.23187 0.95172 0.0
C46 C 0.61655 0.2275 0.01015 0.0
C47 C 0.60345 0.2809 0.04115 0.0
O48 O 0.59256 0.26956 0.03157 0.0
O49 O 0.65013 0.26556 0.9986 0.0
O50 O 0.65579 0.24328 0.9727 0.0
O51 O 0.59456 0.26816 0.97542 0.0
O52 O 0.61743 0.25598 0.95754 0.0
C53 C 0.66073 0.25481 0.9886 0.0
C54 C 0.60092 0.25848 0.95761 0.0
O55 O 0.61741 0.28411 0.02915 0.0
Mg56 Mg 0.9797 0.63847 0.26877 0.0
O57 O 0.00578 0.64369 0.24947 0.0
O58 O 0.02728 0.63964 0.2773 0.0
Mg59 Mg 0.01458 0.63145 0.31481 0.0
C60 C 0.02188 0.64358 0.25508 0.0
C61 C 0.95225 0.64646 0.22794 0.0
O62 O 0.94493 0.65259 0.24865 0.0
O63 O 0.98492 0.60951 0.26644 0.0
O64 O 0.00586 0.6061 0.29539 0.0
O65 O 0.97884 0.66598 0.28093 0.0
O66 O 0.99051 0.64496 0.30388 0.0
C67 C 0.99554 0.59992 0.27864 0.0
C68 C 0.98771 0.66129 0.30067 0.0
O69 O 0.9668 0.63886 0.22983 0.0
Mg70 Mg 0.61953 0.73802 0.5034 0.0
O71 O 0.6111 0.76275 0.48281 0.0
O72 O 0.61612 0.78576 0.50745 0.0
Mg73 Mg 0.62825 0.77547 0.54419 0.0
C74 C 0.61066 0.77906 0.48674 0.0
C75 C 0.61822 0.70713 0.4642 0.0
O76 O 0.62348 0.69829 0.48412 0.0
O77 O 0.64776 0.74451 0.49514 0.0
O78 O 0.65228 0.76683 0.52143 0.0
O79 O 0.5935 0.73608 0.52106 0.0
O80 O 0.61547 0.75018 0.53842 0.0
C81 C 0.65766 0.75606 0.50471 0.0
C82 C 0.59926 0.74611 0.53891 0.0
O83 O 0.61634 0.72343 0.46608 0.0
Mg84 Mg 0.51621 0.36925 0.76166 0.0
O85 O 0.49184 0.36515 0.73756 0.0
O86 O 0.46837 0.37167 0.76047 0.0
Mg87 Mg 0.47802 0.38069 0.79951 0.0
C88 C 0.47542 0.36646 0.73987 0.0
C89 C 0.54672 0.35824 0.7265 0.0
O90 O 0.55226 0.35248 0.74858 0.0
O91 O 0.51392 0.39853 0.75667 0.0
O92 O 0.49099 0.40449 0.78115 0.0
O93 O 0.51365 0.34228 0.77633 0.0
O94 O 0.50177 0.36511 0.79476 0.0
C95 C 0.5033 0.40933 0.76648 0.0
C96 C 0.5036 0.34853 0.79381 0.0
O97 O 0.53244 0.36641 0.7256 0.0
Mg98 Mg 0.88479 0.26569 0.01593 0.0
O99 O 0.88781 0.24092 0.99241 0.0
O100 O 0.88233 0.21781 0.01666 0.0
Mg101 Mg 0.87499 0.22814 0.05608 0.0
C102 C 0.88661 0.22455 0.99538 0.0
C103 C 0.89437 0.29542 0.97851 0.0
O104 O 0.90119 0.30134 0.99971 0.0
O105 O 0.85539 0.26332 0.0137 0.0
O106 O 0.85047 0.24072 0.0393 0.0
O107 O 0.91234 0.26331 0.02799 0.0
O108 O 0.89038 0.25176 0.04901 0.0
C109 C 0.84503 0.25279 0.0247 0.0
C110 C 0.90689 0.25348 0.04629 0.0
O111 O 0.88604 0.28122 0.97906 0.0
Mg112 Mg 0.01641 0.63499 0.744 0.0
O113 O 0.99523 0.64537 0.7177 0.0
O114 O 0.96954 0.64294 0.73677 0.0
Mg115 Mg 0.97449 0.6304 0.77572 0.0
C116 C 0.97885 0.64754 0.71785 0.0
C117 C 0.04803 0.64523 0.71074 0.0
O118 O 0.05221 0.65268 0.73238 0.0
O119 O 0.00861 0.60698 0.73582 0.0
O120 O 0.98366 0.60489 0.75721 0.0
O121 O 0.01849 0.66124 0.76161 0.0
O122 O 0.00125 0.64056 0.77593 0.0
C123 C 0.99565 0.59814 0.74363 0.0
C124 C 0.00651 0.65638 0.77731 0.0
O125 O 0.03445 0.63595 0.7098 0.0
Mg126 Mg 0.10951 0.26444 0.51787 0.0
O127 O 0.10531 0.24009 0.49348 0.0
O128 O 0.11238 0.21674 0.51634 0.0
Mg129 Mg 0.12192 0.22625 0.55509 0.0
C130 C 0.10685 0.22368 0.49584 0.0
C131 C 0.09562 0.29452 0.48611 0.0
O132 O 0.09065 0.29838 0.50935 0.0
O133 O 0.13879 0.26253 0.51149 0.0
O134 O 0.1451 0.23961 0.53579 0.0
O135 O 0.08289 0.26164 0.53357 0.0
O136 O 0.1061 0.24978 0.55096 0.0
C137 C 0.14974 0.25191 0.52098 0.0
C138 C 0.08949 0.25155 0.55068 0.0
O139 O 0.10503 0.28119 0.48275 0.0
Mg140 Mg 0.47957 0.3639 0.27012 0.0
O141 O 0.5048 0.35974 0.24805 0.0
O142 O 0.52745 0.36495 0.27332 0.0
Mg143 Mg 0.51633 0.37398 0.31158 0.0
C144 C 0.52111 0.36041 0.2519 0.0
C145 C 0.45046 0.35352 0.23265 0.0
O146 O 0.44441 0.34743 0.25426 0.0
O147 O 0.48258 0.39317 0.26616 0.0
O148 O 0.50483 0.39823 0.29238 0.0
O149 O 0.4814 0.33666 0.284 0.0
O150 O 0.49243 0.35922 0.30431 0.0
C151 C 0.4932 0.40356 0.27691 0.0
C152 C 0.49064 0.34268 0.30257 0.0
O153 O 0.46473 0.36173 0.23276 0.0
Mg154 Mg 0.38417 0.72804 0.01206 0.0
O155 O 0.39018 0.75262 0.98926 0.0
O156 O 0.38558 0.77592 0.01349 0.0
Mg157 Mg 0.37603 0.76601 0.05209 0.0
C158 C 0.39015 0.76902 0.99245 0.0
C159 C 0.39426 0.69869 0.97482 0.0
O160 O 0.40098 0.69296 0.9962 0.0
O161 O 0.35521 0.73286 0.00753 0.0
O162 O 0.3512 0.75558 0.03325 0.0
O163 O 0.41127 0.72795 0.02643 0.0
O164 O 0.38956 0.74118 0.04583 0.0
C165 C 0.34535 0.7441 0.01796 0.0
C166 C 0.40594 0.73803 0.04451 0.0
O167 O 0.38563 0.7127 0.97514 0.0
Mg168 Mg 0.0136 0.37424 0.73728 0.0
O169 O 0.98919 0.3668 0.75912 0.0
O170 O 0.96576 0.36944 0.73465 0.0
Mg171 Mg 0.97576 0.379 0.69592 0.0
C172 C 0.97286 0.36562 0.75586 0.0
C173 C 0.04383 0.37083 0.77732 0.0
O174 O 0.05331 0.36997 0.75659 0.0
O175 O 0.00679 0.40297 0.74057 0.0
O176 O 0.98447 0.40495 0.71359 0.0
O177 O 0.01592 0.34707 0.72366 0.0
O178 O 0.00158 0.36747 0.70297 0.0
C179 C 0.99526 0.41189 0.729 0.0
C180 C 0.006 0.35141 0.70485 0.0
O181 O 0.02768 0.37373 0.77535 0.0
Mg182 Mg 0.37289 0.2719 0.48719 0.0
O183 O 0.37948 0.24739 0.50988 0.0
O184 O 0.37435 0.22408 0.4859 0.0
Mg185 Mg 0.36361 0.23386 0.4479 0.0
C186 C 0.37948 0.23099 0.50664 0.0
C187 C 0.38441 0.30134 0.52289 0.0
O188 O 0.39035 0.30661 0.50077 0.0
O189 O 0.34398 0.26735 0.49323 0.0
O190 O 0.33925 0.24468 0.4677 0.0
O191 O 0.39962 0.27188 0.47144 0.0
O192 O 0.3775 0.25859 0.45319 0.0
C193 C 0.33379 0.25625 0.48316 0.0
C194 C 0.39391 0.26172 0.45373 0.0
O195 O 0.37551 0.2875 0.52377 0.0
Mg196 Mg 0.4836 0.627 0.23696 0.0
O197 O 0.50812 0.63209 0.26039 0.0
O198 O 0.53141 0.62519 0.2373 0.0
Mg199 Mg 0.52158 0.61541 0.19881 0.0
C200 C 0.52452 0.63084 0.25777 0.0
C201 C 0.45373 0.63918 0.2719 0.0
O202 O 0.44861 0.64507 0.24967 0.0
O203 O 0.48643 0.59789 0.24314 0.0
O204 O 0.50915 0.59177 0.21834 0.0
O205 O 0.48543 0.65369 0.22136 0.0
O206 O 0.49772 0.63085 0.20349 0.0
C207 C 0.49709 0.58705 0.23352 0.0
C208 C 0.49557 0.64742 0.20402 0.0
O209 O 0.46758 0.63032 0.27307 0.0
Mg210 Mg 0.12163 0.72528 0.99791 0.0
O211 O 0.11626 0.75099 0.01772 0.0
O212 O 0.11971 0.77322 0.9911 0.0
Mg213 Mg 0.12851 0.76106 0.95334 0.0
C214 C 0.1159 0.76719 0.01302 0.0
C215 C 0.12197 0.69659 0.04133 0.0
O216 O 0.12561 0.68601 0.02248 0.0
O217 O 0.15065 0.73027 0.00036 0.0
O218 O 0.15381 0.7518 0.97227 0.0
O219 O 0.09418 0.72477 0.98543 0.0
O220 O 0.11545 0.73643 0.9629 0.0
C221 C 0.16014 0.74111 0.98837 0.0
C222 C 0.0991 0.7337 0.96586 0.0
O223 O 0.12063 0.71271 0.03696 0.0
Mg224 Mg 0.48365 0.8696 0.73775 0.0
O225 O 0.50839 0.86433 0.76053 0.0
O226 O 0.53155 0.86936 0.73618 0.0
Mg227 Mg 0.52135 0.87866 0.69758 0.0
C228 C 0.52478 0.86469 0.75727 0.0
C229 C 0.45445 0.85872 0.7745 0.0
O230 O 0.44894 0.85231 0.75278 0.0
O231 O 0.48754 0.89874 0.74201 0.0
O232 O 0.51004 0.90327 0.71605 0.0
O233 O 0.4843 0.84247 0.72356 0.0
O234 O 0.49692 0.86444 0.70394 0.0
C235 C 0.4984 0.90888 0.73127 0.0
C236 C 0.49418 0.84799 0.70538 0.0
O237 O 0.46831 0.86761 0.77467 0.0
Mg238 Mg 0.36867 0.2382 0.9857 0.0
O239 O 0.37597 0.26135 0.01066 0.0
O240 O 0.37152 0.28599 0.98947 0.0
Mg241 Mg 0.36081 0.27827 0.95036 0.0
C242 C 0.37639 0.27785 0.00937 0.0
C243 C 0.37983 0.20773 0.02042 0.0
O244 O 0.38701 0.20319 0.99874 0.0
O245 O 0.33997 0.24356 0.9921 0.0
O246 O 0.3359 0.2675 0.96895 0.0
O247 O 0.39541 0.23792 0.97013 0.0
O248 O 0.3739 0.25283 0.95304 0.0
C249 C 0.33011 0.25541 0.98326 0.0
C250 C 0.39017 0.24899 0.95331 0.0
O251 O 0.37044 0.22125 0.02107 0.0
Mg252 Mg 0.02274 0.12049 0.23248 0.0
O253 O 0.99789 0.12677 0.25433 0.0
O254 O 0.97438 0.12119 0.2311 0.0
Mg255 Mg 0.98464 0.11021 0.19349 0.0
C256 C 0.98148 0.12653 0.25158 0.0
C257 C 0.03466 0.13866 0.28068 0.0
O258 O 0.0236 0.1494 0.27011 0.0
O259 O 0.01823 0.0917 0.23992 0.0
O260 O 0.99542 0.08643 0.21487 0.0
O261 O 0.02271 0.14682 0.21567 0.0
O262 O 0.0093 0.12452 0.19817 0.0
C263 C 0.00698 0.08133 0.23062 0.0
C264 C 0.01248 0.14094 0.1982 0.0
O265 O 0.03792 0.12437 0.26955 0.0
Mg266 Mg 0.11548 0.78238 0.48398 0.0
O267 O 0.11028 0.75637 0.50319 0.0
O268 O 0.1138 0.73465 0.47566 0.0
Mg269 Mg 0.12247 0.74726 0.43824 0.0
C270 C 0.11003 0.74025 0.49784 0.0
C271 C 0.10481 0.80794 0.52636 0.0
O272 O 0.09686 0.81448 0.50644 0.0
O273 O 0.14461 0.77736 0.48633 0.0
O274 O 0.14769 0.75618 0.45766 0.0
O275 O 0.08793 0.78289 0.4714 0.0
O276 O 0.10927 0.77158 0.44871 0.0
C277 C 0.15406 0.7666 0.4741 0.0
C278 C 0.0929 0.77419 0.45164 0.0
O279 O 0.11463 0.79489 0.52326 0.0
Mg280 Mg 0.48736 0.13353 0.75515 0.0
O281 O 0.51251 0.1378 0.73259 0.0
O282 O 0.53525 0.13105 0.75691 0.0
Mg283 Mg 0.52454 0.12234 0.79544 0.0
C284 C 0.52883 0.13634 0.73592 0.0
C285 C 0.47469 0.15025 0.70555 0.0
O286 O 0.48674 0.16099 0.71348 0.0
O287 O 0.49002 0.1042 0.75018 0.0
O288 O 0.51213 0.09859 0.77639 0.0
O289 O 0.48904 0.16044 0.77019 0.0
O290 O 0.50092 0.13779 0.78904 0.0
C291 C 0.5004 0.09356 0.7609 0.0
C292 C 0.49874 0.15433 0.78816 0.0
O293 O 0.47162 0.13667 0.71853 0.0
Mg294 Mg 0.10652 0.23673 0.0178 0.0
O295 O 0.10035 0.26117 0.99466 0.0
O296 O 0.10578 0.28454 0.01844 0.0
Mg297 Mg 0.11491 0.27486 0.05741 0.0
C298 C 0.10088 0.27758 0.99761 0.0
C299 C 0.09716 0.20619 0.98245 0.0
O300 O 0.0917 0.20058 0.00467 0.0
O301 O 0.13556 0.24165 0.01273 0.0
O302 O 0.13969 0.26424 0.03864 0.0
O303 O 0.0795 0.23649 0.03278 0.0
O304 O 0.10121 0.2501 0.05151 0.0
C305 C 0.14549 0.25281 0.02322 0.0
C306 C 0.08487 0.24664 0.05073 0.0
O307 O 0.10478 0.22077 0.98132 0.0
Mg308 Mg 0.02587 0.8595 0.27392 0.0
O309 O 0.00118 0.85339 0.25151 0.0
O310 O 0.97799 0.85709 0.27628 0.0
Mg311 Mg 0.98825 0.86622 0.31502 0.0
C312 C 0.98481 0.85305 0.25495 0.0
C313 C 0.05511 0.85145 0.23498 0.0
O314 O 0.06174 0.8446 0.2557 0.0
O315 O 0.02028 0.88832 0.27052 0.0
O316 O 0.9978 0.89182 0.29683 0.0
O317 O 0.027 0.83221 0.28731 0.0
O318 O 0.01332 0.8531 0.30792 0.0
C319 C 0.00905 0.89796 0.28138 0.0
C320 C 0.0171 0.83687 0.30601 0.0
O321 O 0.04067 0.85927 0.23643 0.0
Mg322 Mg 0.37801 0.76937 0.50688 0.0
O323 O 0.38361 0.74494 0.48353 0.0
O324 O 0.37776 0.72148 0.50681 0.0
Mg325 Mg 0.36787 0.73119 0.54538 0.0
C326 C 0.38297 0.72852 0.4862 0.0
C327 C 0.3895 0.799 0.471 0.0
O328 O 0.39578 0.80433 0.49289 0.0
O329 O 0.349 0.76567 0.50129 0.0
O330 O 0.34361 0.74283 0.52622 0.0
O331 O 0.40484 0.76848 0.52199 0.0
O332 O 0.38258 0.75554 0.54045 0.0
C333 C 0.33849 0.75476 0.5111 0.0
C334 C 0.39906 0.75828 0.53963 0.0
O335 O 0.38058 0.78517 0.47047 0.0
Mg336 Mg 0.50936 0.13562 0.25695 0.0
O337 O 0.48468 0.14181 0.23457 0.0
O338 O 0.46141 0.13629 0.25844 0.0
Mg339 Mg 0.47151 0.1261 0.29659 0.0
C340 C 0.46828 0.14143 0.23768 0.0
C341 C 0.54055 0.13521 0.21754 0.0
O342 O 0.54922 0.12889 0.23695 0.0
O343 O 0.5049 0.10672 0.25092 0.0
O344 O 0.48231 0.10184 0.27657 0.0
O345 O 0.50922 0.16235 0.2726 0.0
O346 O 0.49616 0.14015 0.29104 0.0
C347 C 0.49383 0.09649 0.26094 0.0
C348 C 0.4992 0.15658 0.29045 0.0
O349 O 0.52448 0.13837 0.22001 0.0
Mg350 Mg 0.62452 0.76573 0.01243 0.0
O351 O 0.6198 0.74133 0.98856 0.0
O352 O 0.6258 0.7176 0.01111 0.0
Mg353 Mg 0.63573 0.72715 0.04974 0.0
C354 C 0.6206 0.72488 0.99069 0.0
C355 C 0.60701 0.77907 0.96424 0.0
O356 O 0.59643 0.76709 0.97286 0.0
O357 O 0.6537 0.76299 0.00649 0.0
O358 O 0.65945 0.73986 0.03067 0.0
O359 O 0.5978 0.7638 0.028 0.0
O360 O 0.62051 0.75121 0.04567 0.0
C361 C 0.66439 0.75212 0.01599 0.0
C362 C 0.60396 0.75349 0.04517 0.0
O363 O 0.62091 0.78213 0.97647 0.0
Mg364 Mg 0.97571 0.85579 0.77411 0.0
O365 O 0.00101 0.8511 0.75238 0.0
O366 O 0.02386 0.85748 0.77659 0.0
Mg367 Mg 0.01286 0.86727 0.81449 0.0
C368 C 0.01735 0.85216 0.75567 0.0
C369 C 0.96389 0.83618 0.72742 0.0
O370 O 0.97525 0.82612 0.73874 0.0
O371 O 0.97872 0.88502 0.76755 0.0
O372 O 0.00094 0.89059 0.79364 0.0
O373 O 0.97729 0.82929 0.79059 0.0
O374 O 0.98888 0.85236 0.80869 0.0
C375 C 0.9894 0.89561 0.7778 0.0
C376 C 0.98687 0.8358 0.80834 0.0
O377 O 0.96082 0.85104 0.73695 0.0
Mg378 Mg 0.89104 0.23074 0.50381 0.0
O379 O 0.90135 0.25204 0.47758 0.0
O380 O 0.89853 0.27765 0.49678 0.0
Mg381 Mg 0.88568 0.2726 0.53547 0.0
C382 C 0.90336 0.26844 0.47787 0.0
C383 C 0.90119 0.19881 0.47059 0.0
O384 O 0.90893 0.1946 0.49197 0.0
O385 O 0.86302 0.23824 0.49513 0.0
O386 O 0.86051 0.26322 0.51631 0.0
O387 O 0.91723 0.22912 0.52195 0.0
O388 O 0.89608 0.24598 0.53572 0.0
C389 C 0.85401 0.25116 0.50263 0.0
C390 C 0.91196 0.24104 0.53747 0.0
O391 O 0.89217 0.21257 0.46978 0.0
Mg392 Mg 0.51608 0.87397 0.23055 0.0
O393 O 0.49198 0.86726 0.25394 0.0
O394 O 0.46826 0.87052 0.23016 0.0
Mg395 Mg 0.47753 0.87974 0.19098 0.0
C396 C 0.47557 0.86657 0.25117 0.0
C397 C 0.54571 0.86545 0.26797 0.0
O398 O 0.55152 0.85841 0.24686 0.0
O399 O 0.50997 0.90267 0.23409 0.0
O400 O 0.48701 0.90548 0.20851 0.0
O401 O 0.5175 0.84672 0.21733 0.0
O402 O 0.50299 0.86729 0.1972 0.0
C403 C 0.49836 0.91197 0.22346 0.0
C404 C 0.50707 0.85113 0.19915 0.0
O405 O 0.53157 0.87385 0.26734 0.0
Mg406 Mg 0.88823 0.7715 0.98462 0.0
O407 O 0.89307 0.74621 0.00599 0.0
O408 O 0.88769 0.72315 0.98173 0.0
Mg409 Mg 0.87802 0.73426 0.94379 0.0
C410 C 0.89254 0.72985 0.00275 0.0
C411 C 0.90527 0.78227 0.03459 0.0
O412 O 0.91614 0.7711 0.02453 0.0
O413 O 0.85902 0.76789 0.99001 0.0
O414 O 0.85402 0.7456 0.96383 0.0
O415 O 0.91508 0.7706 0.96891 0.0
O416 O 0.8925 0.75859 0.95007 0.0
C417 C 0.84868 0.7571 0.97951 0.0
C418 C 0.90899 0.76112 0.95066 0.0
O419 O 0.89147 0.78597 0.02247 0.0
Mg420 Mg 0.97717 0.11907 0.74424 0.0
O421 O 0.00069 0.12564 0.76899 0.0
O422 O 0.025 0.12037 0.74736 0.0
Mg423 Mg 0.01673 0.10985 0.70839 0.0
C424 C 0.01719 0.12556 0.76738 0.0
C425 C 0.94686 0.13086 0.77845 0.0
O426 O 0.94232 0.13743 0.75636 0.0
O427 O 0.98144 0.09018 0.75038 0.0
O428 O 0.00503 0.08532 0.72675 0.0
O429 O 0.97775 0.14581 0.72876 0.0
O430 O 0.99179 0.12378 0.71146 0.0
C431 C 0.9928 0.07991 0.74114 0.0
C432 C 0.98857 0.14017 0.71184 0.0
O433 O 0.96038 0.1215 0.77964 0.0
Mg434 Mg 0.62992 0.23519 0.49023 0.0
O435 O 0.62333 0.25954 0.51298 0.0
O436 O 0.6264 0.28307 0.48879 0.0
Mg437 Mg 0.63591 0.27337 0.44989 0.0
C438 C 0.62248 0.27591 0.50993 0.0
C439 C 0.62767 0.20379 0.5282 0.0
O440 O 0.6289 0.19496 0.50689 0.0
O441 O 0.65886 0.24095 0.49376 0.0
O442 O 0.66145 0.2637 0.46769 0.0
O443 O 0.60261 0.2343 0.47694 0.0
O444 O 0.62359 0.24795 0.45638 0.0
C445 C 0.66809 0.25248 0.48271 0.0
C446 C 0.60734 0.24437 0.4585 0.0
O447 O 0.6289 0.2202 0.52749 0.0
H448 H 0.97747 0.31978 0.21323 0.0
H449 H 0.99146 0.29753 0.18676 0.0
H450 H 0.02245 0.33698 0.15059 0.0
H451 H 0.00843 0.3591 0.17625 0.0
H452 H 0.00684 0.31403 0.1164 0.0
H453 H 0.0417 0.27943 0.19403 0.0
H454 H 0.01866 0.28205 0.19764 0.0
H455 H 0.0325 0.30073 0.1984 0.0
C456 C 0.9873 0.32366 0.19966 0.0
C457 C 0.99197 0.34119 0.19705 0.0
C458 C 0.99533 0.31094 0.18466 0.0
C459 C 0.00812 0.31561 0.16691 0.0
C460 C 0.01265 0.33309 0.16422 0.0
H461 H 0.09232 0.26793 0.09085 0.0
H462 H 0.07193 0.28266 0.11902 0.0
C463 C 0.00468 0.34573 0.17909 0.0
C464 C 0.01688 0.30256 0.15068 0.0
H465 H 0.04679 0.26998 0.15215 0.0
C466 C 0.01541 0.30423 0.12417 0.0
C467 C 0.02812 0.28991 0.16096 0.0
C468 C 0.03051 0.28789 0.1893 0.0
C469 C 0.02537 0.29403 0.1076 0.0
C470 C 0.03688 0.28159 0.11786 0.0
C471 C 0.0379 0.27949 0.14437 0.0
C472 C 0.04904 0.27174 0.10148 0.0
C473 C 0.02415 0.2973 0.07933 0.0
C474 C 0.04294 0.26049 0.0825 0.0
C475 C 0.05459 0.2522 0.06612 0.0
C476 C 0.07254 0.25493 0.06856 0.0
C477 C 0.07859 0.26576 0.08815 0.0
C478 C 0.06695 0.27409 0.10442 0.0
H479 H 0.01744 0.3097 0.07499 0.0
H480 H 0.03724 0.29764 0.07056 0.0
H481 H 0.01671 0.28666 0.07028 0.0
H482 H 0.02918 0.25824 0.08022 0.0
H483 H 0.04951 0.24379 0.0514 0.0
H484 H 0.99618 0.8426 0.34719 0.0
H485 H 0.98221 0.82102 0.37421 0.0
H486 H 0.00707 0.78009 0.33189 0.0
H487 H 0.02079 0.80163 0.30428 0.0
H488 H 0.97313 0.77435 0.33664 0.0
H489 H 0.99976 0.7904 0.43115 0.0
H490 H 0.99111 0.80936 0.41602 0.0
H491 H 0.0093 0.79826 0.40196 0.0
C492 C 0.99875 0.82902 0.34366 0.0
C493 C 0.00946 0.82384 0.3234 0.0
C494 C 0.99093 0.81669 0.35938 0.0
C495 C 0.99381 0.79893 0.35537 0.0
C496 C 0.00476 0.79372 0.33546 0.0
H497 H 0.93786 0.72681 0.45801 0.0
H498 H 0.96234 0.73987 0.43485 0.0
C499 C 0.01256 0.80606 0.31966 0.0
C500 C 0.98401 0.78593 0.37038 0.0
H501 H 0.97202 0.77548 0.43104 0.0
C502 C 0.97314 0.77439 0.35729 0.0
C503 C 0.98434 0.78558 0.39731 0.0
C504 C 0.99692 0.79644 0.41241 0.0
C505 C 0.96163 0.76354 0.37038 0.0
C506 C 0.96069 0.76452 0.39722 0.0
C507 C 0.97251 0.775 0.41043 0.0
C508 C 0.94625 0.75638 0.41144 0.0
C509 C 0.95017 0.75148 0.3553 0.0
C510 C 0.92921 0.76158 0.40624 0.0
C511 C 0.91535 0.75425 0.41934 0.0
C512 C 0.91817 0.7416 0.43813 0.0
C513 C 0.93528 0.7365 0.44359 0.0
C514 C 0.94925 0.74393 0.43042 0.0
H515 H 0.95622 0.748 0.3368 0.0
H516 H 0.9474 0.7394 0.36604 0.0
H517 H 0.93769 0.75805 0.3512 0.0
H518 H 0.92663 0.77141 0.39202 0.0
H519 H 0.90237 0.75843 0.4145 0.0
H520 H 0.48641 0.64509 0.65957 0.0
H521 H 0.46943 0.66456 0.63285 0.0
H522 H 0.49103 0.70864 0.67208 0.0
H523 H 0.50768 0.68919 0.69954 0.0
H524 H 0.45617 0.71127 0.66679 0.0
H525 H 0.48581 0.69423 0.57417 0.0
H526 H 0.47769 0.6756 0.59073 0.0
H527 H 0.49526 0.6879 0.60418 0.0
C528 C 0.48754 0.65891 0.6626 0.0
C529 C 0.49833 0.66557 0.6818 0.0
C530 C 0.47796 0.67004 0.64709 0.0
C531 C 0.47918 0.68806 0.65019 0.0
C532 C 0.48997 0.69477 0.66928 0.0
H533 H 0.43442 0.75995 0.54008 0.0
H534 H 0.45437 0.74429 0.56796 0.0
C535 C 0.4995 0.68364 0.68492 0.0
C536 C 0.46863 0.69983 0.63417 0.0
H537 H 0.45902 0.7098 0.5725 0.0
C538 C 0.4569 0.71108 0.64617 0.0
C539 C 0.4698 0.69977 0.6073 0.0
C540 C 0.48295 0.68886 0.59334 0.0
C541 C 0.44589 0.72186 0.632 0.0
C542 C 0.44636 0.72105 0.6051 0.0
C543 C 0.4585 0.71024 0.59312 0.0
C544 C 0.4342 0.73108 0.58899 0.0
C545 C 0.43396 0.73408 0.64599 0.0
C546 C 0.41624 0.7288 0.59148 0.0
C547 C 0.40479 0.73782 0.57571 0.0
C548 C 0.41111 0.7491 0.55686 0.0
C549 C 0.42912 0.75135 0.5544 0.0
C550 C 0.44055 0.7424 0.57029 0.0
H551 H 0.43889 0.73702 0.66539 0.0
H552 H 0.43235 0.74645 0.63547 0.0
H553 H 0.42104 0.72793 0.64807 0.0
H554 H 0.41105 0.71984 0.6054 0.0
H555 H 0.39102 0.73585 0.57823 0.0
H556 H 0.49811 0.18976 0.78907 0.0
H557 H 0.5139 0.20903 0.81783 0.0
H558 H 0.53631 0.16473 0.85549 0.0
H559 H 0.52007 0.14541 0.82759 0.0
H560 H 0.52543 0.18869 0.88911 0.0
H561 H 0.56501 0.22011 0.81392 0.0
H562 H 0.54207 0.22196 0.80899 0.0
H563 H 0.5522 0.20098 0.80802 0.0
C564 C 0.5064 0.18411 0.80348 0.0
C565 C 0.50804 0.16603 0.80577 0.0
C566 C 0.51551 0.19516 0.81978 0.0
C567 C 0.52658 0.18832 0.83843 0.0
C568 C 0.52795 0.17028 0.84108 0.0
H569 H 0.61044 0.2375 0.91808 0.0
H570 H 0.59155 0.22109 0.88974 0.0
C571 C 0.51874 0.15924 0.82497 0.0
C572 C 0.53669 0.19985 0.85539 0.0
H573 H 0.56765 0.23145 0.85559 0.0
C574 C 0.53465 0.19806 0.88181 0.0
C575 C 0.54884 0.21193 0.84578 0.0
C576 C 0.55232 0.21379 0.81764 0.0
C577 C 0.54453 0.20791 0.89892 0.0
C578 C 0.55644 0.22023 0.88931 0.0
C579 C 0.55839 0.22211 0.86289 0.0
C580 C 0.5677 0.23061 0.90631 0.0
C581 C 0.54253 0.20458 0.92708 0.0
C582 C 0.56057 0.24165 0.92477 0.0
C583 C 0.57137 0.25086 0.94132 0.0
C584 C 0.58948 0.24932 0.93948 0.0
C585 C 0.59656 0.23872 0.92037 0.0
C586 C 0.58577 0.22943 0.90401 0.0
H587 H 0.53637 0.19183 0.9309 0.0
H588 H 0.55528 0.20496 0.93687 0.0
H589 H 0.53416 0.21477 0.93549 0.0
H590 H 0.54666 0.24312 0.92644 0.0
H591 H 0.5655 0.25906 0.95565 0.0
H592 H 0.99297 0.69561 0.29067 0.0
H593 H 0.00922 0.71644 0.31638 0.0
H594 H 0.01702 0.67741 0.37404 0.0
H595 H 0.00135 0.65635 0.34798 0.0
H596 H 0.00566 0.73004 0.36301 0.0
H597 H 0.06603 0.69128 0.35894 0.0
H598 H 0.04731 0.68619 0.33985 0.0
H599 H 0.04834 0.67946 0.37264 0.0
C600 C 0.99809 0.69149 0.30888 0.0
C601 C 0.99613 0.67428 0.31717 0.0
C602 C 0.00735 0.70341 0.32356 0.0
C603 C 0.01469 0.69837 0.34685 0.0
C604 C 0.01193 0.68144 0.35577 0.0
H605 H 0.05889 0.76682 0.46151 0.0
H606 H 0.03907 0.74974 0.43521 0.0
C607 C 0.0029 0.66944 0.34093 0.0
C608 C 0.0257 0.71063 0.36136 0.0
H609 H 0.06591 0.71513 0.3874 0.0
C610 C 0.01887 0.72684 0.36827 0.0
C611 C 0.04305 0.70659 0.36773 0.0
C612 C 0.05168 0.69002 0.35918 0.0
C613 C 0.02886 0.73902 0.38171 0.0
C614 C 0.04595 0.73463 0.38908 0.0
C615 C 0.05278 0.71848 0.38192 0.0
C616 C 0.05719 0.74645 0.40408 0.0
C617 C 0.0211 0.75655 0.38725 0.0
C618 C 0.07403 0.75016 0.39552 0.0
C619 C 0.08547 0.75956 0.41075 0.0
C620 C 0.08025 0.7656 0.43476 0.0
C621 C 0.06321 0.76244 0.44298 0.0
C622 C 0.05183 0.75278 0.42788 0.0
H623 H 0.0108 0.7598 0.3733 0.0
H624 H 0.01509 0.75638 0.40644 0.0
H625 H 0.03105 0.76693 0.38677 0.0
H626 H 0.07847 0.74543 0.37723 0.0
H627 H 0.0985 0.76188 0.40386 0.0
H628 H 0.60733 0.7675 0.57871 0.0
H629 H 0.58735 0.78188 0.6078 0.0
H630 H 0.5442 0.75637 0.57148 0.0
H631 H 0.5641 0.74236 0.54165 0.0
H632 H 0.53844 0.79047 0.57708 0.0
H633 H 0.56128 0.76337 0.66854 0.0
H634 H 0.5786 0.77309 0.6508 0.0
H635 H 0.5676 0.75439 0.63819 0.0
C636 C 0.59361 0.76492 0.57687 0.0
C637 C 0.5873 0.75391 0.55769 0.0
C638 C 0.5822 0.77299 0.59376 0.0
C639 C 0.56431 0.76999 0.59208 0.0
C640 C 0.55798 0.75879 0.5732 0.0
H641 H 0.49385 0.81256 0.70707 0.0
H642 H 0.5092 0.79246 0.6789 0.0
C643 C 0.56938 0.75079 0.55618 0.0
C644 C 0.55215 0.77945 0.60892 0.0
H645 H 0.54398 0.78923 0.67112 0.0
C646 C 0.5395 0.79003 0.59765 0.0
C647 C 0.55334 0.77864 0.63576 0.0
C648 C 0.56582 0.76661 0.64904 0.0
C649 C 0.52852 0.8004 0.61248 0.0
C650 C 0.53052 0.80049 0.63923 0.0
C651 C 0.54263 0.78933 0.65057 0.0
C652 C 0.52071 0.81258 0.65571 0.0
C653 C 0.51489 0.81119 0.59931 0.0
C654 C 0.5222 0.83053 0.65211 0.0
C655 C 0.51339 0.84201 0.66803 0.0
C656 C 0.50311 0.83577 0.68813 0.0
C657 C 0.50166 0.81778 0.69175 0.0
C658 C 0.51043 0.80628 0.67571 0.0
H659 H 0.51136 0.8056 0.58052 0.0
H660 H 0.50298 0.81228 0.61106 0.0
H661 H 0.52007 0.82441 0.59597 0.0
H662 H 0.53036 0.83568 0.63715 0.0
H663 H 0.51472 0.85577 0.66461 0.0
H664 H 0.38327 0.2728 0.91602 0.0
H665 H 0.40404 0.28781 0.88876 0.0
H666 H 0.446 0.25977 0.92402 0.0
H667 H 0.42534 0.24504 0.95191 0.0
H668 H 0.45292 0.29413 0.92024 0.0
H669 H 0.42986 0.26922 0.82741 0.0
H670 H 0.41291 0.27922 0.8456 0.0
H671 H 0.42319 0.25987 0.85735 0.0
C672 C 0.39691 0.26983 0.91804 0.0
C673 C 0.40265 0.25778 0.93624 0.0
C674 C 0.40876 0.27829 0.90223 0.0
C675 C 0.42654 0.2747 0.90406 0.0
C676 C 0.43232 0.26267 0.92219 0.0
H677 H 0.50153 0.31313 0.79249 0.0
H678 H 0.48413 0.2943 0.82001 0.0
C679 C 0.42048 0.25425 0.9381 0.0
C680 C 0.43917 0.28403 0.8878 0.0
H681 H 0.44893 0.29365 0.82601 0.0
C682 C 0.45215 0.29391 0.89963 0.0
C683 C 0.43835 0.28349 0.86091 0.0
C684 C 0.42544 0.27223 0.84705 0.0
C685 C 0.46394 0.30374 0.88532 0.0
C686 C 0.46248 0.30398 0.85848 0.0
C687 C 0.4499 0.29362 0.84661 0.0
C688 C 0.47349 0.31529 0.84241 0.0
C689 C 0.47791 0.3137 0.8991 0.0
C690 C 0.47319 0.33332 0.84579 0.0
C691 C 0.48316 0.34407 0.83022 0.0
C692 C 0.49346 0.33703 0.81072 0.0
C693 C 0.49374 0.31896 0.80736 0.0
C694 C 0.4838 0.30819 0.82302 0.0
H695 H 0.48062 0.30804 0.91812 0.0
H696 H 0.49014 0.31395 0.88796 0.0
H697 H 0.47353 0.32725 0.90199 0.0
H698 H 0.46507 0.33911 0.86028 0.0
H699 H 0.48271 0.35791 0.83346 0.0
H700 H 0.89935 0.23273 0.08693 0.0
H701 H 0.91928 0.2149 0.11158 0.0
H702 H 0.96214 0.23372 0.06671 0.0
H703 H 0.94213 0.25124 0.04128 0.0
H704 H 0.96316 0.19867 0.07273 0.0
H705 H 0.9529 0.23032 0.16603 0.0
H706 H 0.93297 0.22314 0.15199 0.0
H707 H 0.94551 0.23977 0.13656 0.0
C708 C 0.91299 0.23308 0.0822 0.0
C709 C 0.91913 0.24333 0.06202 0.0
C710 C 0.92441 0.223 0.09653 0.0
C711 C 0.94223 0.22318 0.09124 0.0
C712 C 0.94843 0.23346 0.07118 0.0
H713 H 0.01615 0.17603 0.19557 0.0
H714 H 0.00065 0.19622 0.16801 0.0
C715 C 0.93699 0.24349 0.05672 0.0
C716 C 0.95423 0.21215 0.10614 0.0
H717 H 0.96674 0.20257 0.1668 0.0
C718 C 0.96409 0.19962 0.09328 0.0
C719 C 0.95565 0.2136 0.1329 0.0
C720 C 0.94633 0.22756 0.14765 0.0
C721 C 0.97489 0.1881 0.10655 0.0
C722 C 0.97551 0.1889 0.13344 0.0
C723 C 0.96609 0.20181 0.14621 0.0
C724 C 0.98569 0.17642 0.14884 0.0
C725 C 0.98562 0.17532 0.0916 0.0
C726 C 0.98248 0.15855 0.14719 0.0
C727 C 0.99146 0.14692 0.16278 0.0
C728 C 0.00358 0.153 0.18063 0.0
C729 C 0.00686 0.1709 0.18208 0.0
C730 C 0.998 0.18248 0.16636 0.0
H731 H 0.98787 0.17987 0.07181 0.0
H732 H 0.99837 0.17303 0.1008 0.0
H733 H 0.97861 0.16279 0.09054 0.0
H734 H 0.97278 0.15359 0.13422 0.0
H735 H 0.9887 0.13324 0.16103 0.0
H736 H 0.98243 0.64934 0.81388 0.0
H737 H 0.96831 0.66968 0.8427 0.0
H738 H 0.99826 0.71161 0.81094 0.0
H739 H 0.01222 0.69133 0.78145 0.0
H740 H 0.98286 0.69106 0.87937 0.0
H741 H 0.94829 0.72927 0.80537 0.0
H742 H 0.95817 0.70856 0.7987 0.0
H743 H 0.97137 0.72763 0.80148 0.0
C744 C 0.98593 0.6629 0.8128 0.0
C745 C 0.99829 0.66875 0.79512 0.0
C746 C 0.97791 0.6745 0.82942 0.0
C747 C 0.98207 0.69218 0.82873 0.0
C748 C 0.99464 0.69806 0.81145 0.0
H749 H 0.94448 0.76131 0.95 0.0
H750 H 0.96364 0.74615 0.92024 0.0
C751 C 0.00266 0.68644 0.79472 0.0
C752 C 0.97315 0.70428 0.84627 0.0
H753 H 0.94455 0.73801 0.84798 0.0
C754 C 0.97458 0.70142 0.87256 0.0
C755 C 0.96227 0.71769 0.83724 0.0
C756 C 0.95976 0.72096 0.80917 0.0
C757 C 0.96512 0.71134 0.8901 0.0
C758 C 0.95417 0.7247 0.88108 0.0
C759 C 0.95303 0.72782 0.85481 0.0
C760 C 0.94279 0.73469 0.89843 0.0
C761 C 0.96637 0.70695 0.91804 0.0
C762 C 0.92475 0.73374 0.89553 0.0
C763 C 0.91379 0.7425 0.9123 0.0
C764 C 0.92067 0.75238 0.93238 0.0
C765 C 0.93877 0.75367 0.93488 0.0
C766 C 0.94974 0.74495 0.91799 0.0
H767 H 0.97228 0.694 0.9212 0.0
H768 H 0.9746 0.71673 0.92771 0.0
H769 H 0.95338 0.70715 0.92711 0.0
H770 H 0.91912 0.72598 0.88047 0.0
H771 H 0.89994 0.74145 0.90955 0.0
H772 H 0.09951 0.22987 0.58909 0.0
H773 H 0.08106 0.21187 0.61597 0.0
H774 H 0.03566 0.23265 0.57912 0.0
H775 H 0.05408 0.2503 0.55147 0.0
H776 H 0.05583 0.22076 0.6499 0.0
H777 H 0.02832 0.18074 0.57191 0.0
H778 H 0.04675 0.19479 0.56733 0.0
H779 H 0.0252 0.20363 0.56796 0.0
C780 C 0.08562 0.23049 0.58647 0.0
C781 C 0.07829 0.24128 0.5678 0.0
C782 C 0.07508 0.22028 0.60198 0.0
C783 C 0.05701 0.22068 0.59921 0.0
C784 C 0.0496 0.23183 0.58114 0.0
H785 H 0.98606 0.17549 0.71066 0.0
H786 H 0.00193 0.19558 0.68323 0.0
C787 C 0.06015 0.24199 0.56548 0.0
C788 C 0.04602 0.20942 0.61534 0.0
H789 H 0.01671 0.17633 0.61311 0.0
C790 C 0.04725 0.21105 0.64188 0.0
C791 C 0.03501 0.19665 0.60479 0.0
C792 C 0.03381 0.19369 0.57645 0.0
C793 C 0.0378 0.20021 0.65821 0.0
C794 C 0.02653 0.18766 0.64766 0.0
C795 C 0.02526 0.18606 0.62112 0.0
C796 C 0.01647 0.17557 0.66381 0.0
C797 C 0.04038 0.20194 0.68657 0.0
C798 C 0.01894 0.15764 0.66137 0.0
C799 C 0.00974 0.14612 0.67678 0.0
C800 C 0.99792 0.15233 0.69497 0.0
C801 C 0.9952 0.17029 0.69701 0.0
C802 C 0.00434 0.18181 0.68147 0.0
H803 H 0.05257 0.20893 0.6912 0.0
H804 H 0.02944 0.20942 0.69477 0.0
H805 H 0.04071 0.18904 0.6959 0.0
H806 H 0.02815 0.15255 0.64771 0.0
H807 H 0.01196 0.13237 0.67443 0.0
H808 H 0.6128 0.2595 0.41238 0.0
H809 H 0.59167 0.27464 0.38582 0.0
H810 H 0.55176 0.26426 0.44131 0.0
H811 H 0.57271 0.24844 0.46744 0.0
H812 H 0.53945 0.26012 0.39467 0.0
H813 H 0.57454 0.32259 0.39914 0.0
H814 H 0.58771 0.30568 0.38602 0.0
H815 H 0.58048 0.30429 0.41856 0.0
C816 C 0.59951 0.26042 0.41888 0.0
C817 C 0.59442 0.25294 0.44207 0.0
C818 C 0.58747 0.26917 0.40377 0.0
C819 C 0.57023 0.27099 0.41188 0.0
C820 C 0.56502 0.26312 0.43474 0.0
H821 H 0.50285 0.35012 0.34975 0.0
H822 H 0.52061 0.33179 0.37719 0.0
C823 C 0.577 0.2541 0.44966 0.0
C824 C 0.55767 0.28122 0.39667 0.0
H825 H 0.5516 0.32074 0.36904 0.0
C826 C 0.54204 0.27342 0.38918 0.0
C827 C 0.5609 0.29868 0.38993 0.0
C828 C 0.57673 0.30836 0.39906 0.0
C829 C 0.52966 0.28251 0.37482 0.0
C830 C 0.5333 0.29969 0.36703 0.0
C831 C 0.54885 0.30752 0.37479 0.0
C832 C 0.52117 0.31002 0.35117 0.0
C833 C 0.5127 0.27371 0.36872 0.0
C834 C 0.51537 0.30386 0.32748 0.0
C835 C 0.50489 0.31423 0.31198 0.0
C836 C 0.50043 0.33109 0.31963 0.0
C837 C 0.50615 0.33719 0.34335 0.0
C838 C 0.51631 0.32673 0.35903 0.0
H839 H 0.50973 0.26327 0.38261 0.0
H840 H 0.50179 0.28309 0.36868 0.0
H841 H 0.51356 0.26768 0.3496 0.0
H842 H 0.51934 0.29125 0.32062 0.0
H843 H 0.50082 0.30929 0.29363 0.0
H844 H 0.51155 0.81602 0.20098 0.0
H845 H 0.49786 0.79411 0.174 0.0
H846 H 0.47063 0.8343 0.13333 0.0
H847 H 0.48466 0.85626 0.15954 0.0
H848 H 0.464 0.78669 0.16923 0.0
H849 H 0.49012 0.80603 0.07547 0.0
H850 H 0.49889 0.81413 0.105 0.0
H851 H 0.47983 0.82385 0.09132 0.0
C852 C 0.50277 0.82021 0.18612 0.0
C853 C 0.49914 0.8379 0.18248 0.0
C854 C 0.49496 0.80767 0.17075 0.0
C855 C 0.48344 0.81258 0.1514 0.0
C856 C 0.4798 0.83022 0.14773 0.0
H857 H 0.3985 0.75874 0.08517 0.0
H858 H 0.41876 0.77497 0.11152 0.0
C859 C 0.48768 0.84277 0.16297 0.0
C860 C 0.47442 0.79929 0.13598 0.0
H861 H 0.4646 0.78808 0.07485 0.0
C862 C 0.46432 0.78683 0.14859 0.0
C863 C 0.47512 0.79925 0.10907 0.0
C864 C 0.48673 0.81142 0.09444 0.0
C865 C 0.4542 0.77491 0.135 0.0
C866 C 0.45388 0.77575 0.10811 0.0
C867 C 0.46467 0.7876 0.09549 0.0
C868 C 0.44174 0.76518 0.09277 0.0
C869 C 0.4439 0.76159 0.14961 0.0
C870 C 0.44789 0.75455 0.07306 0.0
C871 C 0.43628 0.74545 0.05761 0.0
C872 C 0.41831 0.74693 0.06152 0.0
C873 C 0.41223 0.75741 0.08149 0.0
C874 C 0.42382 0.76655 0.09681 0.0
H875 H 0.4499 0.75882 0.1684 0.0
H876 H 0.43067 0.76668 0.15314 0.0
H877 H 0.44278 0.74926 0.13884 0.0
H878 H 0.46168 0.75341 0.06952 0.0
H879 H 0.44138 0.73748 0.04238 0.0
H880 H 0.01032 0.31625 0.70693 0.0
H881 H 0.9983 0.29447 0.678 0.0
H882 H 0.97374 0.33488 0.63429 0.0
H883 H 0.98598 0.3567 0.66268 0.0
H884 H 0.96426 0.2876 0.66852 0.0
H885 H 0.99714 0.30638 0.57914 0.0
H886 H 0.00415 0.31405 0.60993 0.0
H887 H 0.98635 0.32438 0.59382 0.0
C888 C 0.00248 0.32051 0.69103 0.0
C889 C 0.99905 0.33822 0.68716 0.0
C890 C 0.99564 0.30805 0.67452 0.0
C891 C 0.98537 0.31307 0.65376 0.0
C892 C 0.98196 0.33073 0.64984 0.0
H893 H 0.90358 0.26378 0.57509 0.0
H894 H 0.9231 0.2791 0.60371 0.0
C895 C 0.98881 0.34319 0.66629 0.0
C896 C 0.97728 0.29988 0.63705 0.0
H897 H 0.97143 0.28891 0.5747 0.0
C898 C 0.96603 0.28771 0.64804 0.0
C899 C 0.97985 0.2998 0.61038 0.0
C900 C 0.99268 0.31173 0.59764 0.0
C901 C 0.95651 0.27613 0.63294 0.0
C902 C 0.95808 0.27698 0.60615 0.0
C903 C 0.97008 0.28844 0.59524 0.0
C904 C 0.94641 0.26709 0.58912 0.0
C905 C 0.94467 0.26328 0.64582 0.0
C906 C 0.95307 0.25551 0.57098 0.0
C907 C 0.9419 0.2468 0.55431 0.0
C908 C 0.92393 0.24971 0.55539 0.0
C909 C 0.91736 0.2613 0.57363 0.0
C910 C 0.92848 0.26995 0.59023 0.0
H911 H 0.94903 0.26044 0.66553 0.0
H912 H 0.93143 0.26881 0.64695 0.0
H913 H 0.94401 0.25093 0.63501 0.0
H914 H 0.9669 0.25325 0.5697 0.0
H915 H 0.94735 0.23798 0.54043 0.0
H916 H 0.47751 0.1484 0.32981 0.0
H917 H 0.46141 0.16828 0.35706 0.0
H918 H 0.48524 0.2118 0.3193 0.0
H919 H 0.50095 0.19198 0.29123 0.0
H920 H 0.47221 0.19279 0.39056 0.0
H921 H 0.43414 0.22312 0.3127 0.0
H922 H 0.4468 0.20374 0.30806 0.0
H923 H 0.4572 0.22458 0.30875 0.0
C924 C 0.47923 0.16218 0.32709 0.0
C925 C 0.49025 0.1686 0.30799 0.0
C926 C 0.4701 0.17354 0.34282 0.0
C927 C 0.47187 0.19152 0.33988 0.0
C928 C 0.48335 0.19798 0.32147 0.0
H929 H 0.42932 0.26347 0.45312 0.0
H930 H 0.44922 0.2477 0.42522 0.0
C931 C 0.4924 0.18662 0.30556 0.0
C932 C 0.46155 0.20338 0.35606 0.0
H933 H 0.43028 0.23463 0.35397 0.0
C934 C 0.46308 0.20199 0.38259 0.0
C935 C 0.44952 0.21523 0.34556 0.0
C936 C 0.44665 0.2167 0.31723 0.0
C937 C 0.45276 0.21198 0.39897 0.0
C938 C 0.44088 0.22397 0.38848 0.0
C939 C 0.43951 0.22552 0.36194 0.0
C940 C 0.42898 0.23427 0.40464 0.0
C941 C 0.45422 0.2091 0.42731 0.0
C942 C 0.41101 0.23246 0.40165 0.0
C943 C 0.39962 0.24163 0.41728 0.0
C944 C 0.40598 0.25272 0.43631 0.0
C945 C 0.424 0.25488 0.43882 0.0
C946 C 0.4354 0.24579 0.42302 0.0
H947 H 0.46068 0.19661 0.43183 0.0
H948 H 0.46206 0.21968 0.43579 0.0
H949 H 0.44125 0.20921 0.43646 0.0
H950 H 0.40578 0.22374 0.38743 0.0
H951 H 0.38584 0.23989 0.41451 0.0
H952 H 0.51763 0.63819 0.16559 0.0
H953 H 0.53538 0.65725 0.13925 0.0
H954 H 0.51332 0.70188 0.17657 0.0
H955 H 0.49595 0.68285 0.2037 0.0
H956 H 0.52637 0.68228 0.10561 0.0
H957 H 0.56482 0.7107 0.1845 0.0
H958 H 0.55119 0.69193 0.18872 0.0
H959 H 0.54184 0.71328 0.18817 0.0
C960 C 0.51666 0.65204 0.16842 0.0
C961 C 0.50561 0.65898 0.18708 0.0
C962 C 0.52675 0.66293 0.15322 0.0
C963 C 0.52593 0.68097 0.1563 0.0
C964 C 0.51449 0.68798 0.17433 0.0
H965 H 0.56856 0.75408 0.04601 0.0
H966 H 0.54922 0.73712 0.07316 0.0
C967 C 0.50448 0.67708 0.18968 0.0
C968 C 0.53702 0.69236 0.14047 0.0
H969 H 0.56889 0.72296 0.14357 0.0
C970 C 0.53567 0.69119 0.11389 0.0
C971 C 0.5493 0.70379 0.15134 0.0
C972 C 0.55204 0.70493 0.17973 0.0
C973 C 0.54625 0.70115 0.09784 0.0
C974 C 0.55822 0.71291 0.10871 0.0
C975 C 0.55959 0.71406 0.1353 0.0
C976 C 0.56987 0.7237 0.09285 0.0
C977 C 0.54485 0.69861 0.06943 0.0
C978 C 0.5879 0.72228 0.09559 0.0
C979 C 0.59899 0.73213 0.08036 0.0
C980 C 0.59226 0.74356 0.06203 0.0
C981 C 0.57418 0.74526 0.05975 0.0
C982 C 0.56309 0.73549 0.07513 0.0
H983 H 0.53863 0.68605 0.0646 0.0
H984 H 0.53678 0.70911 0.06125 0.0
H985 H 0.55781 0.69908 0.06026 0.0
H986 H 0.5934 0.71337 0.10932 0.0
H987 H 0.61283 0.73072 0.08293 0.0
H988 H 0.00202 0.84461 0.85339 0.0
H989 H 0.01965 0.82613 0.88096 0.0
H990 H 0.01236 0.78329 0.82927 0.0
H991 H 0.99412 0.80149 0.80223 0.0
H992 H 0.01021 0.77249 0.87682 0.0
H993 H 0.06884 0.81332 0.86671 0.0
H994 H 0.0509 0.82512 0.87972 0.0
H995 H 0.04968 0.81673 0.84777 0.0
C996 C 0.00415 0.83123 0.84798 0.0
C997 C 0.99685 0.82451 0.82558 0.0
C998 C 0.01431 0.82072 0.86364 0.0
C999 C 0.0177 0.80345 0.85684 0.0
C1000 C 0.01001 0.7966 0.83482 0.0
H1001 H 0.10431 0.74547 0.91771 0.0
H1002 H 0.08375 0.76094 0.89061 0.0
C1003 C 0.9996 0.80702 0.81938 0.0
C1004 C 0.02941 0.79255 0.87245 0.0
H1005 H 0.07003 0.79106 0.89786 0.0
C1006 C 0.02333 0.77649 0.88133 0.0
C1007 C 0.04663 0.79764 0.87791 0.0
C1008 C 0.05447 0.81405 0.8673 0.0
C1009 C 0.03395 0.76546 0.89575 0.0
C1010 C 0.05091 0.77092 0.90218 0.0
C1011 C 0.05699 0.78692 0.89312 0.0
C1012 C 0.06276 0.76027 0.91798 0.0
C1013 C 0.02699 0.74792 0.90332 0.0
C1014 C 0.05779 0.75462 0.94233 0.0
C1015 C 0.06943 0.74546 0.95763 0.0
C1016 C 0.08637 0.74221 0.9491 0.0
C1017 C 0.09133 0.74784 0.92476 0.0
C1018 C 0.0796 0.75669 0.90929 0.0
H1019 H 0.0165 0.7436 0.8903 0.0
H1020 H 0.03736 0.73795 0.90334 0.0
H1021 H 0.02143 0.74874 0.92276 0.0
H1022 H 0.04508 0.75767 0.94979 0.0
H1023 H 0.06535 0.74145 0.97646 0.0
H1024 H 0.04394 0.36617 0.27954 0.0
H1025 H 0.05822 0.35474 0.31726 0.0
H1026 H 0.00883 0.34974 0.35482 0.0
H1027 H 0.99418 0.3609 0.31676 0.0
H1028 H 0.05791 0.36682 0.36818 0.0
H1029 H 0.03049 0.30049 0.35851 0.0
H1030 H 0.02974 0.31618 0.33305 0.0
H1031 H 0.01497 0.31784 0.35933 0.0
C1032 C 0.03601 0.36268 0.29576 0.0
C1033 C 0.01785 0.36435 0.29496 0.0
C1034 C 0.04425 0.35617 0.31736 0.0
C1035 C 0.03456 0.35114 0.33864 0.0
C1036 C 0.01648 0.35322 0.33833 0.0
H1037 H 0.07587 0.32385 0.48734 0.0
H1038 H 0.06161 0.33826 0.45164 0.0
C1039 C 0.00816 0.35971 0.31663 0.0
C1040 C 0.04352 0.34345 0.36087 0.0
H1041 H 0.04833 0.30577 0.39417 0.0
C1042 C 0.05578 0.3535 0.37397 0.0
C1043 C 0.04089 0.32599 0.36805 0.0
C1044 C 0.02842 0.31439 0.35393 0.0
C1045 C 0.06544 0.34656 0.39419 0.0
C1046 C 0.06263 0.32918 0.4016 0.0
C1047 C 0.05041 0.31911 0.38845 0.0
C1048 C 0.0722 0.32113 0.423 0.0
C1049 C 0.07885 0.35776 0.40709 0.0
C1050 C 0.08288 0.30669 0.41874 0.0
C1051 C 0.09107 0.2984 0.43913 0.0
C1052 C 0.08856 0.3043 0.46418 0.0
C1053 C 0.07812 0.31899 0.46829 0.0
C1054 C 0.07 0.3273 0.4479 0.0
H1055 H 0.08232 0.36922 0.39535 0.0
H1056 H 0.07358 0.36249 0.42548 0.0
H1057 H 0.0908 0.35024 0.41113 0.0
H1058 H 0.0847 0.30172 0.39965 0.0
H1059 H 0.09895 0.28708 0.43531 0.0
H1060 H 0.89672 0.74422 0.55119 0.0
H1061 H 0.90784 0.75842 0.58964 0.0
H1062 H 0.89504 0.80837 0.55833 0.0
H1063 H 0.88397 0.79447 0.51984 0.0
H1064 H 0.93609 0.78764 0.58329 0.0
H1065 H 0.87627 0.80567 0.6365 0.0
H1066 H 0.87701 0.78707 0.61559 0.0
H1067 H 0.87675 0.80848 0.60243 0.0
C1068 C 0.896 0.75821 0.55262 0.0
C1069 C 0.88956 0.76823 0.53234 0.0
C1070 C 0.90238 0.76626 0.57457 0.0
C1071 C 0.90218 0.78438 0.57672 0.0
C1072 C 0.89517 0.79436 0.55702 0.0
H1073 H 0.9412 0.85365 0.69606 0.0
H1074 H 0.92614 0.84206 0.65848 0.0
C1075 C 0.88893 0.78637 0.53501 0.0
C1076 C 0.91076 0.79296 0.59846 0.0
H1077 H 0.903 0.81464 0.65391 0.0
C1078 C 0.92889 0.79353 0.59878 0.0
C1079 C 0.90125 0.80088 0.61825 0.0
C1080 C 0.88172 0.80053 0.61844 0.0
C1081 C 0.93786 0.80178 0.61856 0.0
C1082 C 0.92841 0.80921 0.63892 0.0
C1083 C 0.91021 0.80892 0.63832 0.0
C1084 C 0.93726 0.8164 0.66163 0.0
C1085 C 0.95739 0.80263 0.61725 0.0
C1086 C 0.94823 0.80576 0.67601 0.0
C1087 C 0.9569 0.81233 0.69716 0.0
C1088 C 0.9546 0.82967 0.70471 0.0
C1089 C 0.9433 0.84028 0.69063 0.0
C1090 C 0.93468 0.83367 0.66924 0.0
H1091 H 0.96209 0.80159 0.59732 0.0
H1092 H 0.96236 0.81488 0.62557 0.0
H1093 H 0.96294 0.79162 0.62812 0.0
H1094 H 0.95006 0.79228 0.67093 0.0
H1095 H 0.96532 0.80371 0.7077 0.0
H1096 H 0.38512 0.70893 0.92676 0.0
H1097 H 0.39525 0.69678 0.8864 0.0
H1098 H 0.4237 0.65751 0.92714 0.0
H1099 H 0.4135 0.66939 0.9675 0.0
H1100 H 0.42943 0.69523 0.8726 0.0
H1101 H 0.40077 0.62947 0.8707 0.0
H1102 H 0.39297 0.64634 0.89161 0.0
H1103 H 0.41195 0.63404 0.89989 0.0
C1104 C 0.39326 0.6975 0.92713 0.0
C1105 C 0.39855 0.69016 0.95037 0.0
C1106 C 0.39904 0.69059 0.90404 0.0
C1107 C 0.41008 0.67614 0.90375 0.0
C1108 C 0.4149 0.66844 0.92688 0.0
H1109 H 0.4897 0.64798 0.79879 0.0
H1110 H 0.47165 0.6577 0.83409 0.0
C1111 C 0.40914 0.67533 0.94996 0.0
C1112 C 0.41801 0.67021 0.87958 0.0
H1113 H 0.42492 0.63442 0.84271 0.0
C1114 C 0.42826 0.68199 0.86589 0.0
C1115 C 0.41633 0.65298 0.8707 0.0
C1116 C 0.40477 0.64002 0.88385 0.0
C1117 C 0.43745 0.67684 0.84415 0.0
C1118 C 0.43657 0.65937 0.83613 0.0
C1119 C 0.42574 0.64775 0.84912 0.0
C1120 C 0.44734 0.65287 0.81487 0.0
C1121 C 0.44816 0.6901 0.83007 0.0
C1122 C 0.43963 0.64646 0.79262 0.0
C1123 C 0.44992 0.64083 0.7723 0.0
C1124 C 0.46812 0.6414 0.77401 0.0
C1125 C 0.47575 0.64745 0.79667 0.0
C1126 C 0.46546 0.65309 0.81687 0.0
H1127 H 0.44383 0.70352 0.83433 0.0
H1128 H 0.4619 0.68891 0.83603 0.0
H1129 H 0.44749 0.68799 0.80919 0.0
H1130 H 0.42565 0.6461 0.79081 0.0
H1131 H 0.44361 0.6362 0.7552 0.0
H1132 H 0.6194 0.19207 0.01289 0.0
H1133 H 0.609 0.17304 0.04688 0.0
H1134 H 0.58956 0.21741 0.08782 0.0
H1135 H 0.60027 0.23653 0.05443 0.0
H1136 H 0.60659 0.19512 0.1188 0.0
H1137 H 0.55899 0.1594 0.05928 0.0
H1138 H 0.58092 0.1586 0.04792 0.0
H1139 H 0.56955 0.17892 0.04852 0.0
C1140 C 0.61291 0.19779 0.02913 0.0
C1141 C 0.61059 0.21585 0.03082 0.0
C1142 C 0.60689 0.18687 0.04847 0.0
C1143 C 0.59824 0.19378 0.06967 0.0
C1144 C 0.59615 0.21179 0.07158 0.0
H1145 H 0.52688 0.15223 0.17669 0.0
H1146 H 0.54236 0.16431 0.14037 0.0
C1147 C 0.60227 0.22271 0.05242 0.0
C1148 C 0.59133 0.18241 0.09006 0.0
H1149 H 0.56165 0.15062 0.10209 0.0
C1150 C 0.59685 0.1853 0.11515 0.0
C1151 C 0.57853 0.1697 0.08523 0.0
C1152 C 0.5715 0.16652 0.05884 0.0
C1153 C 0.5896 0.17618 0.13566 0.0
C1154 C 0.5768 0.16346 0.13085 0.0
C1155 C 0.57159 0.16025 0.10569 0.0
C1156 C 0.56747 0.15458 0.15183 0.0
C1157 C 0.59515 0.18085 0.16235 0.0
C1158 C 0.57636 0.14463 0.17 0.0
C1159 C 0.56754 0.13781 0.19103 0.0
C1160 C 0.54966 0.14066 0.19405 0.0
C1161 C 0.54067 0.14985 0.17506 0.0
C1162 C 0.5495 0.15675 0.15422 0.0
H1163 H 0.60209 0.19346 0.16299 0.0
H1164 H 0.58379 0.18158 0.17529 0.0
H1165 H 0.60405 0.17073 0.16968 0.0
H1166 H 0.59016 0.14243 0.16819 0.0
H1167 H 0.57481 0.13064 0.20517 0.0
H1168 H 0.05703 0.63826 0.25543 0.0
H1169 H 0.07774 0.64493 0.22153 0.0
H1170 H 0.03634 0.6659 0.1758 0.0
H1171 H 0.01553 0.65883 0.20915 0.0
H1172 H 0.0567 0.64473 0.14861 0.0
H1173 H 0.09745 0.69154 0.20217 0.0
H1174 H 0.09572 0.67053 0.21662 0.0
H1175 H 0.07681 0.68401 0.21389 0.0
C1176 C 0.05235 0.64438 0.23821 0.0
C1177 C 0.03462 0.64804 0.23503 0.0
C1178 C 0.06423 0.64826 0.2189 0.0
C1179 C 0.05863 0.65614 0.19627 0.0
C1180 C 0.04096 0.65983 0.19311 0.0
H1181 H 0.10843 0.71472 0.08121 0.0
H1182 H 0.09547 0.70311 0.11984 0.0
C1183 C 0.02907 0.6558 0.21223 0.0
C1184 C 0.07096 0.66024 0.17545 0.0
H1185 H 0.1063 0.68481 0.16032 0.0
C1186 C 0.06762 0.65342 0.15118 0.0
C1187 C 0.08514 0.67163 0.17886 0.0
C1188 C 0.08895 0.67999 0.20422 0.0
C1189 C 0.07768 0.6581 0.13004 0.0
C1190 C 0.09187 0.6695 0.13341 0.0
C1191 C 0.09554 0.67593 0.15784 0.0
C1192 C 0.1018 0.67639 0.11144 0.0
C1193 C 0.07242 0.65148 0.10412 0.0
C1194 C 0.11028 0.66531 0.09427 0.0
C1195 C 0.11754 0.67191 0.07185 0.0
C1196 C 0.11667 0.68974 0.06649 0.0
C1197 C 0.10925 0.70091 0.08462 0.0
C1198 C 0.10184 0.69429 0.1068 0.0
H1199 H 0.05903 0.64617 0.10413 0.0
H1200 H 0.07316 0.66194 0.08965 0.0
H1201 H 0.08133 0.64092 0.09829 0.0
H1202 H 0.11082 0.6515 0.09782 0.0
H1203 H 0.12335 0.66299 0.05842 0.0
H1204 H 0.53496 0.87478 0.31573 0.0
H1205 H 0.54678 0.86488 0.35641 0.0
H1206 H 0.58683 0.83682 0.31666 0.0
H1207 H 0.57527 0.84679 0.27601 0.0
H1208 H 0.54846 0.83074 0.37025 0.0
H1209 H 0.61394 0.85987 0.37383 0.0
H1210 H 0.59727 0.86757 0.35251 0.0
H1211 H 0.60991 0.84876 0.34442 0.0
C1212 C 0.5465 0.8668 0.31565 0.0
C1213 C 0.55414 0.86152 0.29261 0.0
C1214 C 0.55323 0.86115 0.33892 0.0
C1215 C 0.56778 0.85026 0.33957 0.0
C1216 C 0.5758 0.8455 0.31665 0.0
H1217 H 0.59656 0.76946 0.44112 0.0
H1218 H 0.58554 0.78823 0.40749 0.0
C1219 C 0.5691 0.85113 0.29339 0.0
C1220 C 0.57349 0.84234 0.36385 0.0
H1221 H 0.60908 0.83519 0.40096 0.0
C1222 C 0.56165 0.83193 0.37718 0.0
C1223 C 0.59063 0.84404 0.37303 0.0
C1224 C 0.60362 0.85581 0.36035 0.0
C1225 C 0.56672 0.82251 0.39874 0.0
C1226 C 0.58414 0.82334 0.40694 0.0
C1227 C 0.59578 0.83442 0.39441 0.0
C1228 C 0.59071 0.81212 0.42764 0.0
C1229 C 0.55343 0.81158 0.41239 0.0
C1230 C 0.5976 0.81936 0.44992 0.0
C1231 C 0.60398 0.80866 0.46926 0.0
C1232 C 0.60372 0.79051 0.4665 0.0
C1233 C 0.59691 0.78335 0.44399 0.0
C1234 C 0.59051 0.79406 0.42476 0.0
H1235 H 0.54003 0.81611 0.40844 0.0
H1236 H 0.55448 0.79798 0.4057 0.0
H1237 H 0.5556 0.81174 0.43328 0.0
H1238 H 0.59796 0.8333 0.4524 0.0
H1239 H 0.60918 0.81462 0.48628 0.0
H1240 H 0.40445 0.33034 0.52739 0.0
H1241 H 0.41689 0.34244 0.56626 0.0
H1242 H 0.38961 0.30436 0.61098 0.0
H1243 H 0.37723 0.29197 0.57212 0.0
H1244 H 0.40233 0.35578 0.61182 0.0
H1245 H 0.44108 0.29603 0.6281 0.0
H1246 H 0.43023 0.30037 0.59837 0.0
H1247 H 0.41809 0.29284 0.62537 0.0
C1248 C 0.40092 0.32463 0.54549 0.0
C1249 C 0.39001 0.31005 0.54662 0.0
C1250 C 0.40802 0.3316 0.56769 0.0
C1251 C 0.4044 0.32411 0.59141 0.0
C1252 C 0.3928 0.31014 0.59278 0.0
H1253 H 0.43987 0.36581 0.73765 0.0
H1254 H 0.42172 0.35601 0.70228 0.0
C1255 C 0.38568 0.30314 0.57057 0.0
C1256 C 0.4136 0.33033 0.6144 0.0
H1257 H 0.44374 0.31828 0.65852 0.0
C1258 C 0.41131 0.34758 0.62218 0.0
C1259 C 0.42548 0.31964 0.62759 0.0
C1260 C 0.42904 0.30123 0.61939 0.0
C1261 C 0.42065 0.35446 0.64279 0.0
C1262 C 0.43243 0.34371 0.65606 0.0
C1263 C 0.43462 0.32644 0.64837 0.0
C1264 C 0.44325 0.35027 0.67727 0.0
C1265 C 0.41826 0.37327 0.64971 0.0
C1266 C 0.46136 0.35009 0.67504 0.0
C1267 C 0.47177 0.35558 0.69522 0.0
C1268 C 0.46428 0.3613 0.71814 0.0
C1269 C 0.44609 0.36157 0.72025 0.0
C1270 C 0.43567 0.35605 0.70001 0.0
H1271 H 0.41167 0.38064 0.63433 0.0
H1272 H 0.41018 0.37419 0.66713 0.0
H1273 H 0.43093 0.3795 0.65376 0.0
H1274 H 0.46745 0.34562 0.65766 0.0
H1275 H 0.48571 0.35517 0.69287 0.0
H1276 H 0.91853 0.1519 0.78262 0.0
H1277 H 0.90666 0.16466 0.82147 0.0
H1278 H 0.94315 0.13551 0.86647 0.0
H1279 H 0.95526 0.12277 0.8277 0.0
H1280 H 0.89268 0.15034 0.86784 0.0
H1281 H 0.95394 0.18707 0.88236 0.0
H1282 H 0.94882 0.17642 0.85273 0.0
H1283 H 0.95619 0.16397 0.87948 0.0
C1284 C 0.92389 0.148 0.80079 0.0
C1285 C 0.93799 0.13649 0.80203 0.0
C1286 C 0.91706 0.15528 0.82297 0.0
C1287 C 0.92423 0.15123 0.84675 0.0
C1288 C 0.93762 0.13899 0.84822 0.0
H1289 H 0.88636 0.18896 0.9939 0.0
H1290 H 0.89478 0.17027 0.95835 0.0
C1291 C 0.94447 0.13168 0.82605 0.0
C1292 C 0.9185 0.1608 0.86967 0.0
H1293 H 0.93203 0.1908 0.91305 0.0
C1294 C 0.90127 0.15911 0.87787 0.0
C1295 C 0.92973 0.17239 0.88243 0.0
C1296 C 0.94817 0.17525 0.87377 0.0
C1297 C 0.89496 0.16877 0.89856 0.0
C1298 C 0.90623 0.18029 0.91137 0.0
C1299 C 0.92346 0.18188 0.90323 0.0
C1300 C 0.90029 0.19142 0.93259 0.0
C1301 C 0.87618 0.16699 0.90609 0.0
C1302 C 0.90076 0.20949 0.92992 0.0
C1303 C 0.89604 0.22021 0.95016 0.0
C1304 C 0.89084 0.21307 0.9736 0.0
C1305 C 0.89024 0.19492 0.97612 0.0
C1306 C 0.89496 0.18419 0.9558 0.0
H1307 H 0.86844 0.16031 0.8912 0.0
H1308 H 0.87528 0.15931 0.92388 0.0
H1309 H 0.87035 0.17991 0.90978 0.0
H1310 H 0.90489 0.21532 0.91216 0.0
H1311 H 0.89667 0.23412 0.94748 0.0
H1312 H 0.94476 0.65677 0.7122 0.0
H1313 H 0.93131 0.67139 0.67598 0.0
H1314 H 0.98057 0.67291 0.63736 0.0
H1315 H 0.9942 0.65819 0.67341 0.0
H1316 H 0.941 0.70486 0.653 0.0
H1317 H 0.94674 0.64889 0.58644 0.0
H1318 H 0.94856 0.64631 0.62048 0.0
H1319 H 0.966 0.65585 0.60279 0.0
C1320 C 0.95277 0.66014 0.69601 0.0
C1321 C 0.97056 0.65618 0.69572 0.0
C1322 C 0.94506 0.66858 0.67537 0.0
C1323 C 0.95494 0.67314 0.65397 0.0
C1324 C 0.9727 0.66935 0.65361 0.0
H1325 H 0.90309 0.70227 0.51176 0.0
H1326 H 0.92773 0.70162 0.54148 0.0
C1327 C 0.98045 0.66094 0.67427 0.0
C1328 C 0.9464 0.68154 0.63193 0.0
H1329 H 0.93155 0.67322 0.57203 0.0
C1330 C 0.93914 0.69807 0.63514 0.0
C1331 C 0.94424 0.67278 0.60852 0.0
C1332 C 0.95169 0.65494 0.6042 0.0
C1333 C 0.92905 0.70572 0.61594 0.0
C1334 C 0.92584 0.69642 0.59322 0.0
C1335 C 0.93405 0.68038 0.58941 0.0
C1336 C 0.91178 0.7014 0.57539 0.0
C1337 C 0.92157 0.7235 0.62039 0.0
C1338 C 0.89473 0.70215 0.58458 0.0
C1339 C 0.8808 0.70243 0.56774 0.0
C1340 C 0.88361 0.70204 0.54137 0.0
C1341 C 0.90063 0.70283 0.53203 0.0
C1342 C 0.91468 0.70234 0.54898 0.0
H1343 H 0.93008 0.7313 0.63301 0.0
H1344 H 0.91974 0.73055 0.60219 0.0
H1345 H 0.9088 0.72224 0.62993 0.0
H1346 H 0.89209 0.70106 0.60477 0.0
H1347 H 0.86777 0.70176 0.57539 0.0
H1348 H 0.06368 0.12448 0.30287 0.0
H1349 H 0.07827 0.13439 0.34189 0.0
H1350 H 0.03926 0.17382 0.35174 0.0
H1351 H 0.02474 0.16414 0.31312 0.0
H1352 H 0.09092 0.1696 0.35033 0.0
H1353 H 0.04234 0.14949 0.42222 0.0
H1354 H 0.04335 0.1401 0.39074 0.0
H1355 H 0.03321 0.16082 0.39554 0.0
C1356 C 0.05815 0.13513 0.31355 0.0
C1357 C 0.04311 0.14356 0.3049 0.0
C1358 C 0.06649 0.14078 0.33575 0.0
C1359 C 0.05971 0.15471 0.34979 0.0
C1360 C 0.04455 0.16289 0.34139 0.0
H1361 H 0.0975 0.23343 0.44763 0.0
H1362 H 0.08808 0.2148 0.41271 0.0
C1363 C 0.03634 0.1574 0.31919 0.0
C1364 C 0.06883 0.16158 0.37241 0.0
H1365 H 0.06258 0.1714 0.43507 0.0
C1366 C 0.0849 0.16975 0.36898 0.0
C1367 C 0.06099 0.16162 0.39673 0.0
C1368 C 0.04409 0.1524 0.40167 0.0
C1369 C 0.0929 0.17879 0.38898 0.0
C1370 C 0.08449 0.17978 0.41286 0.0
C1371 C 0.06891 0.17078 0.41666 0.0
C1372 C 0.09112 0.19087 0.4337 0.0
C1373 C 0.11011 0.18748 0.38427 0.0
C1374 C 0.09571 0.18361 0.45721 0.0
C1375 C 0.10109 0.19423 0.47728 0.0
C1376 C 0.10177 0.21235 0.47429 0.0
C1377 C 0.09717 0.21955 0.45063 0.0
C1378 C 0.0919 0.20891 0.43056 0.0
H1379 H 0.11699 0.18162 0.36782 0.0
H1380 H 0.1079 0.20138 0.37996 0.0
H1381 H 0.11856 0.18664 0.40133 0.0
H1382 H 0.09505 0.16972 0.46005 0.0
H1383 H 0.10446 0.18823 0.49524 0.0
H1384 H 0.6195 0.3092 0.0625 0.0
H1385 H 0.61074 0.32486 0.10114 0.0
H1386 H 0.56868 0.28885 0.11212 0.0
H1387 H 0.57728 0.27319 0.07389 0.0
H1388 H 0.5778 0.34052 0.10953 0.0
H1389 H 0.59211 0.2908 0.18252 0.0
H1390 H 0.60141 0.29023 0.15096 0.0
H1391 H 0.57974 0.28246 0.15631 0.0
C1392 C 0.60851 0.30452 0.07334 0.0
C1393 C 0.59906 0.28997 0.06512 0.0
C1394 C 0.60353 0.31349 0.09535 0.0
C1395 C 0.58922 0.30786 0.10964 0.0
C1396 C 0.57996 0.29322 0.10164 0.0
H1397 H 0.51269 0.35327 0.20247 0.0
H1398 H 0.5317 0.3427 0.16882 0.0
C1399 C 0.58483 0.28435 0.07965 0.0
C1400 C 0.58306 0.31779 0.13201 0.0
H1401 H 0.57171 0.31297 0.19439 0.0
C1402 C 0.57676 0.33464 0.12822 0.0
C1403 C 0.58191 0.31018 0.15644 0.0
C1404 C 0.58931 0.29248 0.16192 0.0
C1405 C 0.56833 0.34367 0.14785 0.0
C1406 C 0.56603 0.33553 0.17173 0.0
C1407 C 0.57332 0.31912 0.17598 0.0
C1408 C 0.55493 0.34315 0.19184 0.0
C1409 C 0.56164 0.36169 0.1427 0.0
C1410 C 0.56165 0.34672 0.21609 0.0
C1411 C 0.55078 0.35276 0.23549 0.0
C1412 C 0.53294 0.3551 0.23104 0.0
C1413 C 0.52634 0.35165 0.2066 0.0
C1414 C 0.53722 0.34572 0.18724 0.0
H1415 H 0.56885 0.36798 0.1269 0.0
H1416 H 0.5478 0.36092 0.1371 0.0
H1417 H 0.56263 0.36998 0.15992 0.0
H1418 H 0.57527 0.34468 0.22005 0.0
H1419 H 0.5563 0.35521 0.25409 0.0
H1420 H 0.40219 0.75906 0.94568 0.0
H1421 H 0.41245 0.77755 0.91116 0.0
H1422 H 0.40165 0.82296 0.95622 0.0
H1423 H 0.39122 0.80457 0.99098 0.0
H1424 H 0.38993 0.82488 0.90463 0.0
H1425 H 0.45872 0.80457 0.91161 0.0
H1426 H 0.44374 0.78684 0.90914 0.0
H1427 H 0.44319 0.80066 0.93668 0.0
C1428 C 0.40197 0.77297 0.94835 0.0
C1429 C 0.39596 0.7803 0.97123 0.0
C1430 C 0.40792 0.78352 0.9286 0.0
C1431 C 0.40804 0.80159 0.93131 0.0
C1432 C 0.40174 0.80902 0.95385 0.0
H1433 H 0.46476 0.8663 0.82314 0.0
H1434 H 0.45257 0.85495 0.86279 0.0
C1435 C 0.39581 0.79847 0.97369 0.0
C1436 C 0.4147 0.81267 0.91048 0.0
H1437 H 0.45065 0.82019 0.87432 0.0
C1438 C 0.40324 0.82401 0.89812 0.0
C1439 C 0.43213 0.81169 0.90233 0.0
C1440 C 0.44523 0.80041 0.91576 0.0
C1441 C 0.40861 0.83389 0.87709 0.0
C1442 C 0.42581 0.8322 0.8681 0.0
C1443 C 0.43743 0.82139 0.88113 0.0
C1444 C 0.43187 0.84076 0.84446 0.0
C1445 C 0.39583 0.84599 0.86464 0.0
C1446 C 0.42415 0.8367 0.82103 0.0
C1447 C 0.43107 0.84316 0.79836 0.0
C1448 C 0.44592 0.85371 0.79866 0.0
C1449 C 0.45329 0.85823 0.82223 0.0
C1450 C 0.44637 0.85174 0.84491 0.0
H1451 H 0.38528 0.84971 0.87796 0.0
H1452 H 0.40232 0.85794 0.85771 0.0
H1453 H 0.38983 0.83938 0.84809 0.0
H1454 H 0.41317 0.82798 0.82018 0.0
H1455 H 0.42509 0.83938 0.78055 0.0
H1456 H 0.91207 0.32564 0.97075 0.0
H1457 H 0.92081 0.3383 0.93014 0.0
H1458 H 0.89382 0.29771 0.89003 0.0
H1459 H 0.88514 0.28481 0.93063 0.0
H1460 H 0.92767 0.30154 0.87462 0.0
H1461 H 0.89476 0.36529 0.87534 0.0
H1462 H 0.90676 0.36116 0.90396 0.0
H1463 H 0.88846 0.34774 0.89613 0.0
C1464 C 0.90774 0.31954 0.95332 0.0
C1465 C 0.89795 0.30418 0.95396 0.0
C1466 C 0.91265 0.32688 0.93009 0.0
C1467 C 0.90778 0.31908 0.90705 0.0
C1468 C 0.89761 0.30401 0.9076 0.0
H1469 H 0.93737 0.36225 0.75799 0.0
H1470 H 0.92003 0.3506 0.79321 0.0
C1471 C 0.89266 0.29666 0.93083 0.0
C1472 C 0.91477 0.32569 0.88261 0.0
H1473 H 0.91866 0.3622 0.84628 0.0
C1474 C 0.92549 0.31473 0.86824 0.0
C1475 C 0.91179 0.34284 0.87415 0.0
C1476 C 0.89967 0.3549 0.88806 0.0
C1477 C 0.93395 0.3207 0.8463 0.0
C1478 C 0.93179 0.33814 0.83871 0.0
C1479 C 0.92043 0.34888 0.85233 0.0
C1480 C 0.94205 0.34563 0.81759 0.0
C1481 C 0.94536 0.30837 0.83161 0.0
C1482 C 0.96009 0.34698 0.8199 0.0
C1483 C 0.97 0.35365 0.79997 0.0
C1484 C 0.96207 0.35915 0.77724 0.0
C1485 C 0.94391 0.35808 0.77516 0.0
C1486 C 0.93398 0.35145 0.79525 0.0
H1487 H 0.9421 0.29463 0.83577 0.0
H1488 H 0.94418 0.31059 0.8108 0.0
H1489 H 0.95908 0.31054 0.83709 0.0
H1490 H 0.96653 0.34281 0.83717 0.0
H1491 H 0.98393 0.35433 0.80237 0.0
H1492 H 0.44485 0.1347 0.68841 0.0
H1493 H 0.42672 0.14384 0.65244 0.0
H1494 H 0.46271 0.18505 0.63583 0.0
H1495 H 0.48085 0.17604 0.67142 0.0
H1496 H 0.41124 0.17691 0.64685 0.0
H1497 H 0.45494 0.16219 0.56607 0.0
H1498 H 0.45782 0.15284 0.59731 0.0
H1499 H 0.46531 0.17447 0.59078 0.0
C1500 C 0.44901 0.14556 0.67686 0.0
C1501 C 0.46428 0.15466 0.68278 0.0
C1502 C 0.43863 0.15077 0.65638 0.0
C1503 C 0.44349 0.16499 0.64131 0.0
C1504 C 0.45888 0.17385 0.64692 0.0
H1505 H 0.38998 0.24064 0.55435 0.0
H1506 H 0.40356 0.22258 0.58681 0.0
C1507 C 0.46918 0.16874 0.6674 0.0
C1508 C 0.43205 0.17143 0.62074 0.0
H1509 H 0.43198 0.18245 0.55784 0.0
C1510 C 0.41564 0.17787 0.62729 0.0
C1511 C 0.43773 0.1725 0.5952 0.0
C1512 C 0.45485 0.16497 0.58682 0.0
C1513 C 0.40514 0.1862 0.60922 0.0
C1514 C 0.41133 0.18829 0.58406 0.0
C1515 C 0.42733 0.181 0.5772 0.0
C1516 C 0.40194 0.19886 0.56497 0.0
C1517 C 0.38762 0.1929 0.61728 0.0
C1518 C 0.39667 0.19156 0.54178 0.0
C1519 C 0.38893 0.20188 0.52307 0.0
C1520 C 0.38649 0.21975 0.52713 0.0
C1521 C 0.3916 0.22694 0.55056 0.0
C1522 C 0.39927 0.21661 0.56925 0.0
H1523 H 0.3827 0.18593 0.63431 0.0
H1524 H 0.38874 0.20683 0.62225 0.0
H1525 H 0.378 0.19161 0.60168 0.0
H1526 H 0.39873 0.17791 0.53805 0.0
H1527 H 0.38522 0.19591 0.50524 0.0
H1528 H 0.60207 0.7212 0.42284 0.0
H1529 H 0.58911 0.7059 0.38698 0.0
H1530 H 0.60825 0.65736 0.41638 0.0
H1531 H 0.62089 0.67255 0.45285 0.0
H1532 H 0.60163 0.68533 0.34937 0.0
H1533 H 0.55669 0.64816 0.41142 0.0
H1534 H 0.56955 0.66595 0.42314 0.0
H1535 H 0.57924 0.64501 0.4184 0.0
C1536 C 0.60367 0.70728 0.42164 0.0
C1537 C 0.61233 0.69806 0.44091 0.0
C1538 C 0.59625 0.69855 0.40107 0.0
C1539 C 0.59739 0.68045 0.39928 0.0
C1540 C 0.60684 0.67129 0.41773 0.0
H1541 H 0.55974 0.62693 0.26226 0.0
H1542 H 0.57843 0.6376 0.29642 0.0
C1543 C 0.61415 0.68001 0.43847 0.0
C1544 C 0.58804 0.67129 0.3786 0.0
H1545 H 0.55532 0.64249 0.36741 0.0
C1546 C 0.59157 0.67588 0.35327 0.0
C1547 C 0.57475 0.65914 0.38379 0.0
C1548 C 0.56968 0.65435 0.41064 0.0
C1549 C 0.58202 0.66886 0.333 0.0
C1550 C 0.56884 0.65659 0.33819 0.0
C1551 C 0.56551 0.65179 0.36348 0.0
C1552 C 0.5576 0.64942 0.31786 0.0
C1553 C 0.58565 0.67519 0.30635 0.0
C1554 C 0.53961 0.65196 0.31902 0.0
C1555 C 0.52886 0.64567 0.29974 0.0
C1556 C 0.53589 0.63673 0.27882 0.0
C1557 C 0.5539 0.6339 0.27796 0.0
C1558 C 0.56463 0.64008 0.29739 0.0
H1559 H 0.59303 0.68756 0.30636 0.0
H1560 H 0.59352 0.66537 0.29613 0.0
H1561 H 0.57343 0.67715 0.2956 0.0
H1562 H 0.53389 0.65907 0.33469 0.0
H1563 H 0.51507 0.6481 0.30107 0.0
H1564 H 0.10494 0.7586 0.06077 0.0
H1565 H 0.09509 0.7779 0.09444 0.0
H1566 H 0.10448 0.82214 0.04632 0.0
H1567 H 0.11447 0.80285 0.01217 0.0
H1568 H 0.11727 0.82474 0.09893 0.0
H1569 H 0.04832 0.805 0.09274 0.0
H1570 H 0.06315 0.7871 0.09451 0.0
H1571 H 0.06363 0.80123 0.06732 0.0
C1572 C 0.10496 0.77242 0.0572 0.0
C1573 C 0.11042 0.77915 0.03363 0.0
C1574 C 0.09925 0.78342 0.0765 0.0
C1575 C 0.09884 0.80139 0.0727 0.0
C1576 C 0.10462 0.80827 0.04949 0.0
H1577 H 0.04339 0.86148 0.18804 0.0
H1578 H 0.05489 0.8529 0.14652 0.0
C1579 C 0.11029 0.79723 0.03003 0.0
C1580 C 0.09236 0.81278 0.09326 0.0
H1581 H 0.057 0.81946 0.1309 0.0
C1582 C 0.10403 0.82383 0.10573 0.0
C1583 C 0.07502 0.81176 0.10179 0.0
C1584 C 0.06174 0.80076 0.08826 0.0
C1585 C 0.09902 0.83316 0.12749 0.0
C1586 C 0.082 0.83117 0.13708 0.0
C1587 C 0.07009 0.82088 0.12368 0.0
C1588 C 0.07653 0.83848 0.16191 0.0
C1589 C 0.11206 0.84487 0.1402 0.0
C1590 C 0.08499 0.8334 0.18434 0.0
C1591 C 0.07846 0.83828 0.20809 0.0
C1592 C 0.06324 0.84821 0.20988 0.0
C1593 C 0.05514 0.85382 0.18735 0.0
C1594 C 0.06169 0.84894 0.1636 0.0
H1595 H 0.12205 0.84937 0.12648 0.0
H1596 H 0.10568 0.85635 0.14884 0.0
H1597 H 0.11876 0.83757 0.1555 0.0
H1598 H 0.09623 0.82501 0.18355 0.0
H1599 H 0.085 0.8337 0.22504 0.0
H1600 H 0.62286 0.80803 0.94436 0.0
H1601 H 0.61341 0.82512 0.90742 0.0
H1602 H 0.57093 0.78974 0.89555 0.0
H1603 H 0.58024 0.77264 0.93201 0.0
H1604 H 0.58954 0.79892 0.85047 0.0
H1605 H 0.56917 0.85615 0.90778 0.0
H1606 H 0.59096 0.84839 0.91209 0.0
H1607 H 0.57304 0.8352 0.92199 0.0
C1608 C 0.61158 0.80386 0.93376 0.0
C1609 C 0.60223 0.78906 0.94124 0.0
C1610 C 0.60616 0.81367 0.91276 0.0
C1611 C 0.59136 0.80877 0.89897 0.0
C1612 C 0.58235 0.79376 0.90599 0.0
H1613 H 0.51523 0.85479 0.80527 0.0
H1614 H 0.53364 0.84287 0.8387 0.0
C1615 C 0.58768 0.78403 0.92692 0.0
C1616 C 0.58478 0.81932 0.87749 0.0
H1617 H 0.56332 0.85689 0.86392 0.0
C1618 C 0.58404 0.81172 0.85326 0.0
C1619 C 0.57749 0.83592 0.88135 0.0
C1620 C 0.57754 0.84444 0.90719 0.0
C1621 C 0.57569 0.82003 0.83292 0.0
C1622 C 0.56807 0.83648 0.83691 0.0
C1623 C 0.56928 0.84432 0.86094 0.0
C1624 C 0.55739 0.84495 0.81705 0.0
C1625 C 0.57432 0.81079 0.80768 0.0
C1626 C 0.56472 0.85041 0.79397 0.0
C1627 C 0.55421 0.85722 0.77471 0.0
C1628 C 0.53618 0.85872 0.77825 0.0
C1629 C 0.52903 0.85375 0.80178 0.0
C1630 C 0.53954 0.84698 0.82098 0.0
H1631 H 0.57824 0.79697 0.80908 0.0
H1632 H 0.56085 0.81142 0.80031 0.0
H1633 H 0.58291 0.81723 0.79364 0.0
H1634 H 0.57853 0.84917 0.79072 0.0
H1635 H 0.56019 0.86099 0.7569 0.0
H1636 H 0.46091 0.36163 0.18424 0.0
H1637 H 0.44749 0.35256 0.1442 0.0
H1638 H 0.40696 0.32669 0.18602 0.0
H1639 H 0.42012 0.33585 0.22606 0.0
H1640 H 0.44268 0.31874 0.12924 0.0
H1641 H 0.37971 0.35312 0.13199 0.0
H1642 H 0.39772 0.35904 0.15216 0.0
H1643 H 0.38403 0.34104 0.16049 0.0
C1644 C 0.44899 0.35425 0.18492 0.0
C1645 C 0.44159 0.34945 0.20837 0.0
C1646 C 0.44135 0.34906 0.16202 0.0
C1647 C 0.42611 0.33913 0.16212 0.0
C1648 C 0.4185 0.33466 0.18547 0.0
H1649 H 0.38864 0.26492 0.05438 0.0
H1650 H 0.40087 0.28097 0.0901 0.0
C1651 C 0.42613 0.33981 0.20836 0.0
C1652 C 0.41895 0.33218 0.138 0.0
H1653 H 0.38192 0.3294 0.10264 0.0
C1654 C 0.42946 0.32123 0.12327 0.0
C1655 C 0.40177 0.3356 0.13007 0.0
C1656 C 0.3902 0.34798 0.14436 0.0
C1657 C 0.42303 0.31306 0.10138 0.0
C1658 C 0.40556 0.31571 0.09425 0.0
C1659 C 0.39525 0.32722 0.10834 0.0
C1660 C 0.39764 0.30617 0.07273 0.0
C1661 C 0.43497 0.30158 0.08612 0.0
C1662 C 0.3913 0.31508 0.0514 0.0
C1663 C 0.38422 0.30594 0.03087 0.0
C1664 C 0.38325 0.28772 0.03143 0.0
C1665 C 0.38927 0.27892 0.05316 0.0
C1666 C 0.39635 0.28806 0.07359 0.0
H1667 H 0.44881 0.30462 0.08987 0.0
H1668 H 0.4327 0.28786 0.09151 0.0
H1669 H 0.43247 0.30292 0.0654 0.0
H1670 H 0.39209 0.32908 0.05047 0.0
H1671 H 0.37967 0.31314 0.01451 0.0
H1672 H 0.88961 0.20585 0.42246 0.0
H1673 H 0.89848 0.19179 0.38286 0.0
H1674 H 0.93004 0.15593 0.4254 0.0
H1675 H 0.92112 0.16976 0.46511 0.0
H1676 H 0.93238 0.19074 0.36666 0.0
H1677 H 0.90592 0.12421 0.3741 0.0
H1678 H 0.89817 0.14191 0.39352 0.0
H1679 H 0.91783 0.13074 0.40184 0.0
C1680 C 0.89817 0.19475 0.42346 0.0
C1681 C 0.90473 0.18897 0.44696 0.0
C1682 C 0.90322 0.18674 0.40079 0.0
C1683 C 0.91478 0.17272 0.4012 0.0
C1684 C 0.92083 0.16651 0.42467 0.0
H1685 H 0.99225 0.14049 0.29668 0.0
H1686 H 0.97443 0.15172 0.33121 0.0
C1687 C 0.91581 0.17452 0.44736 0.0
C1688 C 0.92201 0.16581 0.37713 0.0
H1689 H 0.92886 0.12847 0.34375 0.0
C1690 C 0.93139 0.17717 0.36147 0.0
C1691 C 0.92058 0.14815 0.37026 0.0
C1692 C 0.90993 0.13557 0.38568 0.0
C1693 C 0.94005 0.17118 0.33973 0.0
C1694 C 0.93945 0.15335 0.33369 0.0
C1695 C 0.92942 0.14211 0.34863 0.0
C1696 C 0.95002 0.14607 0.31279 0.0
C1697 C 0.95001 0.18393 0.3236 0.0
C1698 C 0.94214 0.13883 0.29121 0.0
C1699 C 0.95232 0.13239 0.27127 0.0
C1700 C 0.97053 0.13295 0.27276 0.0
C1701 C 0.97829 0.13992 0.29474 0.0
C1702 C 0.96813 0.1464 0.31451 0.0
H1703 H 0.94559 0.19746 0.32687 0.0
H1704 H 0.96396 0.18319 0.32856 0.0
H1705 H 0.94863 0.18085 0.30305 0.0
H1706 H 0.92815 0.1384 0.28965 0.0
H1707 H 0.94591 0.12705 0.2547 0.0
H1708 H 0.09945 0.7477 0.54623 0.0
H1709 H 0.09049 0.72749 0.57935 0.0
H1710 H 0.09984 0.6845 0.5288 0.0
H1711 H 0.10894 0.70466 0.4953 0.0
H1712 H 0.06264 0.70267 0.57487 0.0
H1713 H 0.1265 0.67233 0.59613 0.0
H1714 H 0.12464 0.69293 0.58003 0.0
H1715 H 0.11985 0.67324 0.56331 0.0
C1716 C 0.09971 0.73395 0.54207 0.0
C1717 C 0.10494 0.72782 0.51803 0.0
C1718 C 0.09457 0.72243 0.56106 0.0
C1719 C 0.09465 0.70453 0.55656 0.0
C1720 C 0.09991 0.69828 0.53271 0.0
H1721 H 0.0403 0.63529 0.66199 0.0
H1722 H 0.05249 0.64704 0.62261 0.0
C1723 C 0.10503 0.70983 0.51358 0.0
C1724 C 0.08861 0.69263 0.57676 0.0
H1725 H 0.10254 0.66283 0.62024 0.0
C1726 C 0.07129 0.69381 0.58464 0.0
C1727 C 0.10001 0.68121 0.58948 0.0
C1728 C 0.11883 0.67983 0.58203 0.0
C1729 C 0.06511 0.68413 0.60532 0.0
C1730 C 0.07655 0.67283 0.61825 0.0
C1731 C 0.09381 0.6714 0.61009 0.0
C1732 C 0.07106 0.66359 0.64157 0.0
C1733 C 0.04659 0.68664 0.61384 0.0
C1734 C 0.07805 0.6684 0.66516 0.0
C1735 C 0.07117 0.66169 0.6877 0.0
C1736 C 0.05719 0.65001 0.687 0.0
C1737 C 0.05098 0.64435 0.66322 0.0
C1738 C 0.05788 0.65109 0.64069 0.0
H1739 H 0.04048 0.69812 0.60477 0.0
H1740 H 0.03889 0.67503 0.60862 0.0
H1741 H 0.04591 0.6882 0.63483 0.0
H1742 H 0.08827 0.678 0.6662 0.0
H1743 H 0.07633 0.66624 0.70566 0.0
H1744 H 0.62594 0.16897 0.53814 0.0
H1745 H 0.61256 0.15496 0.57506 0.0
H1746 H 0.60213 0.20508 0.60802 0.0
H1747 H 0.61602 0.21911 0.57181 0.0
H1748 H 0.61143 0.18248 0.64389 0.0
H1749 H 0.56077 0.15306 0.58255 0.0
H1750 H 0.58241 0.14654 0.57459 0.0
H1751 H 0.57602 0.1688 0.57072 0.0
C1752 C 0.62102 0.17699 0.55344 0.0
C1753 C 0.62186 0.19516 0.55188 0.0
C1754 C 0.61325 0.16896 0.57443 0.0
C1755 C 0.60589 0.17898 0.59397 0.0
C1756 C 0.60759 0.19708 0.5931 0.0
H1757 H 0.52097 0.15485 0.69309 0.0
H1758 H 0.54067 0.16426 0.6595 0.0
C1759 C 0.61555 0.20509 0.57233 0.0
C1760 C 0.59567 0.17085 0.61474 0.0
H1761 H 0.55955 0.14651 0.62629 0.0
C1762 C 0.60013 0.17454 0.64007 0.0
C1763 C 0.58075 0.16071 0.6097 0.0
C1764 C 0.57457 0.15716 0.58294 0.0
C1765 C 0.58997 0.16862 0.66049 0.0
C1766 C 0.57521 0.15827 0.65544 0.0
C1767 C 0.57093 0.15433 0.63013 0.0
C1768 C 0.56341 0.15224 0.67595 0.0
C1769 C 0.59475 0.17414 0.68713 0.0
C1770 C 0.56956 0.14214 0.69625 0.0
C1771 C 0.55834 0.13692 0.71572 0.0
C1772 C 0.54068 0.14143 0.715 0.0
C1773 C 0.53448 0.15114 0.69427 0.0
C1774 C 0.54574 0.15653 0.67502 0.0
H1775 H 0.6034 0.18566 0.68709 0.0
H1776 H 0.58303 0.17726 0.6985 0.0
H1777 H 0.60175 0.16341 0.69671 0.0
H1778 H 0.58303 0.13826 0.69703 0.0
H1779 H 0.56351 0.12929 0.73126 0.0
H1780 H 0.078 0.3669 0.79027 0.0
H1781 H 0.08959 0.35424 0.82946 0.0
H1782 H 0.03769 0.34901 0.85902 0.0
H1783 H 0.02611 0.36226 0.82051 0.0
H1784 H 0.05936 0.35808 0.89587 0.0
H1785 H 0.08756 0.30304 0.84195 0.0
H1786 H 0.096 0.32373 0.83259 0.0
H1787 H 0.07349 0.31879 0.82734 0.0
C1788 C 0.06909 0.36328 0.80529 0.0
C1789 C 0.05113 0.36542 0.80215 0.0
C1790 C 0.07572 0.35591 0.82759 0.0
C1791 C 0.06448 0.3502 0.84689 0.0
C1792 C 0.04662 0.35319 0.84434 0.0
H1793 H 0.08226 0.26859 0.95539 0.0
H1794 H 0.07377 0.28714 0.91989 0.0
C1795 C 0.04002 0.36078 0.82226 0.0
C1796 C 0.07106 0.3404 0.86924 0.0
H1797 H 0.09285 0.30365 0.88614 0.0
C1798 C 0.06673 0.3462 0.89377 0.0
C1799 C 0.08042 0.32473 0.86646 0.0
C1800 C 0.08451 0.31709 0.84069 0.0
C1801 C 0.07134 0.33671 0.91556 0.0
C1802 C 0.08102 0.32124 0.91278 0.0
C1803 C 0.08553 0.31556 0.88827 0.0
C1804 C 0.08597 0.31026 0.93485 0.0
C1805 C 0.06518 0.34302 0.9412 0.0
C1806 C 0.09575 0.31702 0.95508 0.0
C1807 C 0.10041 0.30649 0.97564 0.0
C1808 C 0.0957 0.28888 0.9761 0.0
C1809 C 0.08613 0.28208 0.95564 0.0
C1810 C 0.08127 0.29268 0.9353 0.0
H1811 H 0.05398 0.35199 0.93939 0.0
H1812 H 0.06131 0.33203 0.9536 0.0
H1813 H 0.07584 0.35017 0.9507 0.0
H1814 H 0.09995 0.33041 0.95487 0.0
H1815 H 0.10796 0.31208 0.99096 0.0
H1816 H 0.93062 0.77267 0.06756 0.0
H1817 H 0.93882 0.78647 0.10744 0.0
H1818 H 0.89784 0.82391 0.09813 0.0
H1819 H 0.88948 0.8101 0.05778 0.0
H1820 H 0.93088 0.83838 0.10942 0.0
H1821 H 0.9142 0.7859 0.17691 0.0
H1822 H 0.92691 0.77841 0.15049 0.0
H1823 H 0.90552 0.78689 0.14501 0.0
C1824 C 0.92322 0.78376 0.07399 0.0
C1825 C 0.90941 0.79031 0.05944 0.0
C1826 C 0.92786 0.79155 0.09694 0.0
C1827 C 0.91879 0.80605 0.10593 0.0
C1828 C 0.9049 0.81262 0.0916 0.0
H1829 H 0.94967 0.84725 0.25549 0.0
H1830 H 0.93138 0.83771 0.22003 0.0
C1831 C 0.90014 0.80472 0.0686 0.0
C1832 C 0.92474 0.81482 0.12944 0.0
H1833 H 0.93492 0.80698 0.19161 0.0
C1834 C 0.93148 0.83166 0.12752 0.0
C1835 C 0.92532 0.80612 0.15312 0.0
C1836 C 0.91744 0.78839 0.15663 0.0
C1837 C 0.93976 0.83959 0.14827 0.0
C1838 C 0.94148 0.83035 0.17139 0.0
C1839 C 0.93378 0.81397 0.17378 0.0
C1840 C 0.95229 0.83691 0.19264 0.0
C1841 C 0.9469 0.85766 0.14512 0.0
C1842 C 0.97012 0.83943 0.18904 0.0
C1843 C 0.98061 0.84479 0.20921 0.0
C1844 C 0.97349 0.8477 0.2335 0.0
C1845 C 0.95558 0.84519 0.23704 0.0
C1846 C 0.9451 0.83974 0.21681 0.0
H1847 H 0.94016 0.86476 0.12963 0.0
H1848 H 0.94569 0.8652 0.16303 0.0
H1849 H 0.96084 0.85685 0.14007 0.0
H1850 H 0.976 0.83696 0.17067 0.0
H1851 H 0.99433 0.84653 0.20574 0.0
H1852 H 0.38379 0.69296 0.48412 0.0
H1853 H 0.39511 0.6748 0.4497 0.0
H1854 H 0.40702 0.72049 0.40588 0.0
H1855 H 0.3959 0.73876 0.44008 0.0
H1856 H 0.38509 0.67297 0.39738 0.0
H1857 H 0.4534 0.69383 0.40921 0.0
H1858 H 0.43706 0.69755 0.4332 0.0
H1859 H 0.43838 0.71146 0.40582 0.0
C1860 C 0.38879 0.69917 0.46715 0.0
C1861 C 0.38904 0.71736 0.46499 0.0
C1862 C 0.39523 0.68875 0.44751 0.0
C1863 C 0.40214 0.69632 0.42546 0.0
C1864 C 0.40203 0.71441 0.42296 0.0
H1865 H 0.42424 0.65858 0.27584 0.0
H1866 H 0.41106 0.67011 0.31453 0.0
C1867 C 0.39558 0.72483 0.44252 0.0
C1868 C 0.40953 0.68539 0.40499 0.0
H1869 H 0.44666 0.67827 0.37131 0.0
C1870 C 0.39858 0.67399 0.39179 0.0
C1871 C 0.4272 0.68654 0.39805 0.0
C1872 C 0.43976 0.69787 0.41245 0.0
C1873 C 0.40471 0.6642 0.37111 0.0
C1874 C 0.42216 0.66607 0.36332 0.0
C1875 C 0.43325 0.67695 0.37719 0.0
C1876 C 0.42906 0.65754 0.34014 0.0
C1877 C 0.39245 0.652 0.35776 0.0
C1878 C 0.44362 0.64669 0.34165 0.0
C1879 C 0.45127 0.64014 0.31952 0.0
C1880 C 0.44457 0.64447 0.29544 0.0
C1881 C 0.4297 0.65496 0.29406 0.0
C1882 C 0.42206 0.66147 0.31619 0.0
H1883 H 0.3815 0.64818 0.37032 0.0
H1884 H 0.38694 0.65856 0.34081 0.0
H1885 H 0.39926 0.64011 0.35129 0.0
H1886 H 0.44928 0.64358 0.35996 0.0
H1887 H 0.46272 0.63212 0.32127 0.0
H1888 H 0.47821 0.155 0.19184 0.0
H1889 H 0.45968 0.16539 0.15747 0.0
H1890 H 0.41427 0.15195 0.201 0.0
H1891 H 0.43271 0.1414 0.23563 0.0
H1892 H 0.41359 0.14122 0.14843 0.0
H1893 H 0.4307 0.21061 0.15985 0.0
H1894 H 0.44909 0.19644 0.15737 0.0
H1895 H 0.4348 0.19466 0.18427 0.0
C1896 C 0.46429 0.15423 0.19421 0.0
C1897 C 0.45697 0.14743 0.21662 0.0
C1898 C 0.45372 0.16025 0.17455 0.0
C1899 C 0.43563 0.15966 0.17688 0.0
C1900 C 0.42823 0.15261 0.19894 0.0
H1901 H 0.37056 0.21621 0.06918 0.0
H1902 H 0.38149 0.20341 0.10863 0.0
C1903 C 0.4388 0.14661 0.21871 0.0
C1904 C 0.42455 0.16634 0.1561 0.0
H1905 H 0.41609 0.2028 0.12158 0.0
C1906 C 0.41397 0.15471 0.14268 0.0
C1907 C 0.42488 0.18399 0.14893 0.0
C1908 C 0.43535 0.19721 0.16348 0.0
C1909 C 0.40426 0.16016 0.12153 0.0
C1910 C 0.40535 0.17762 0.11353 0.0
C1911 C 0.41536 0.18938 0.12763 0.0
C1912 C 0.397 0.18388 0.08984 0.0
C1913 C 0.393 0.14717 0.10788 0.0
C1914 C 0.40194 0.177 0.06621 0.0
C1915 C 0.39573 0.18427 0.04364 0.0
C1916 C 0.38455 0.19865 0.04427 0.0
C1917 C 0.37913 0.20513 0.068 0.0
C1918 C 0.38538 0.19785 0.09058 0.0
H1919 H 0.38953 0.13612 0.12044 0.0
H1920 H 0.38091 0.15328 0.1008 0.0
H1921 H 0.4002 0.14192 0.09129 0.0
H1922 H 0.41116 0.16645 0.06518 0.0
H1923 H 0.40019 0.17899 0.0257 0.0
H1924 H 0.56282 0.63335 0.79812 0.0
H1925 H 0.57988 0.64137 0.8358 0.0
H1926 H 0.54327 0.68191 0.85302 0.0
H1927 H 0.52623 0.67405 0.81573 0.0
H1928 H 0.59493 0.67457 0.84507 0.0
H1929 H 0.5489 0.65619 0.92132 0.0
H1930 H 0.54725 0.64793 0.88923 0.0
H1931 H 0.53916 0.66917 0.89684 0.0
C1932 C 0.55832 0.64384 0.81012 0.0
C1933 C 0.54319 0.65308 0.80392 0.0
C1934 C 0.56808 0.64841 0.83158 0.0
C1935 C 0.5627 0.66208 0.84735 0.0
C1936 C 0.54749 0.67112 0.84137 0.0
H1937 H 0.61102 0.73564 0.94313 0.0
H1938 H 0.59909 0.71817 0.90868 0.0
C1939 C 0.53782 0.66667 0.81992 0.0
C1940 C 0.57341 0.66778 0.86919 0.0
H1941 H 0.5712 0.67646 0.9328 0.0
C1942 C 0.58989 0.67472 0.86434 0.0
C1943 C 0.56689 0.66778 0.89434 0.0
C1944 C 0.54964 0.65971 0.90085 0.0
C1945 C 0.59961 0.68256 0.88378 0.0
C1946 C 0.59255 0.68362 0.90857 0.0
C1947 C 0.57651 0.67579 0.91371 0.0
C1948 C 0.60097 0.69386 0.92899 0.0
C1949 C 0.61721 0.68992 0.87751 0.0
C1950 C 0.60581 0.68601 0.95199 0.0
C1951 C 0.61264 0.69598 0.97185 0.0
C1952 C 0.61453 0.71403 0.96914 0.0
C1953 C 0.60981 0.72179 0.94591 0.0
C1954 C 0.60307 0.7118 0.92609 0.0
H1955 H 0.62285 0.68366 0.86036 0.0
H1956 H 0.61591 0.70398 0.87353 0.0
H1957 H 0.62632 0.68828 0.89368 0.0
H1958 H 0.60415 0.67219 0.95466 0.0
H1959 H 0.61607 0.68959 0.98949 0.0
H1960 H 0.00815 0.83919 0.70916 0.0
H1961 H 0.0271 0.83158 0.67377 0.0
H1962 H 0.07179 0.84618 0.71808 0.0
H1963 H 0.05289 0.85404 0.75373 0.0
H1964 H 0.0719 0.85971 0.66847 0.0
H1965 H 0.05877 0.78916 0.66779 0.0
H1966 H 0.03937 0.80197 0.66711 0.0
H1967 H 0.05334 0.80286 0.69449 0.0
C1968 C 0.02201 0.84073 0.71154 0.0
C1969 C 0.02898 0.8472 0.7344 0.0
C1970 C 0.03284 0.83626 0.69129 0.0
C1971 C 0.05086 0.83805 0.69345 0.0
C1972 C 0.05791 0.84459 0.71611 0.0
H1973 H 0.11557 0.79465 0.5721 0.0
H1974 H 0.1054 0.80281 0.61458 0.0
C1975 C 0.04708 0.84905 0.73647 0.0
C1976 C 0.06218 0.83363 0.6716 0.0
H1977 H 0.07164 0.80098 0.63009 0.0
C1978 C 0.07205 0.84682 0.66025 0.0
C1979 C 0.06259 0.81674 0.66117 0.0
C1980 C 0.05309 0.80182 0.67341 0.0
C1981 C 0.08161 0.84375 0.63795 0.0
C1982 C 0.08107 0.82715 0.62657 0.0
C1983 C 0.07192 0.81376 0.63868 0.0
C1984 C 0.08889 0.8236 0.60131 0.0
C1985 C 0.09207 0.85837 0.62665 0.0
C1986 C 0.08313 0.83268 0.57979 0.0
C1987 C 0.08892 0.82807 0.55552 0.0
C1988 C 0.10049 0.81417 0.55226 0.0
C1989 C 0.10669 0.80544 0.57394 0.0
C1990 C 0.10087 0.81007 0.59823 0.0
H1991 H 0.09565 0.86808 0.64135 0.0
H1992 H 0.10408 0.85349 0.6175 0.0
H1993 H 0.08419 0.86506 0.61198 0.0
H1994 H 0.07361 0.84291 0.58163 0.0
H1995 H 0.08384 0.83504 0.53926 0.0
H1996 H 0.91247 0.30259 0.47284 0.0
H1997 H 0.92678 0.31646 0.4367 0.0
H1998 H 0.92843 0.26758 0.39711 0.0
H1999 H 0.91404 0.2535 0.43312 0.0
H2000 H 0.96026 0.30713 0.41237 0.0
H2001 H 0.90308 0.30189 0.34792 0.0
H2002 H 0.90104 0.2998 0.38201 0.0
H2003 H 0.91048 0.28259 0.36374 0.0
C2004 C 0.91583 0.29474 0.45647 0.0
C2005 C 0.91197 0.27693 0.45588 0.0
C2006 C 0.9241 0.30269 0.43589 0.0
C2007 C 0.92859 0.29305 0.41424 0.0
C2008 C 0.92495 0.27526 0.41359 0.0
H2009 H 0.95272 0.34958 0.27422 0.0
H2010 H 0.9541 0.32388 0.30187 0.0
C2011 C 0.91672 0.26726 0.43422 0.0
C2012 C 0.93655 0.30193 0.39214 0.0
H2013 H 0.92668 0.31816 0.33355 0.0
C2014 C 0.95306 0.30931 0.39493 0.0
C2015 C 0.92727 0.30449 0.36926 0.0
C2016 C 0.90945 0.29688 0.36539 0.0
C2017 C 0.96012 0.32001 0.37595 0.0
C2018 C 0.95024 0.32371 0.35395 0.0
C2019 C 0.93428 0.3153 0.35039 0.0
C2020 C 0.95442 0.33853 0.33701 0.0
C2021 C 0.97789 0.32765 0.37992 0.0
C2022 C 0.95488 0.35523 0.34752 0.0
C2023 C 0.95398 0.36976 0.33186 0.0
C2024 C 0.95271 0.3679 0.30538 0.0
C2025 C 0.95393 0.35131 0.29459 0.0
C2026 C 0.9546 0.33665 0.31037 0.0
H2027 H 0.98615 0.31886 0.39144 0.0
H2028 H 0.9844 0.33021 0.36146 0.0
H2029 H 0.97669 0.34006 0.39043 0.0
H2030 H 0.95436 0.35708 0.36794 0.0
H2031 H 0.95299 0.38244 0.3406 0.0
H2032 H 0.44014 0.86331 0.25339 0.0
H2033 H 0.4227 0.8528 0.28915 0.0
H2034 H 0.46906 0.84603 0.33382 0.0
H2035 H 0.4866 0.85636 0.2983 0.0
H2036 H 0.44663 0.81704 0.33351 0.0
H2037 H 0.41184 0.87814 0.35685 0.0
H2038 H 0.41084 0.87127 0.32418 0.0
H2039 H 0.43123 0.87774 0.33759 0.0
C2040 C 0.44663 0.85968 0.27086 0.0
C2041 C 0.4648 0.86071 0.27293 0.0
C2042 C 0.43663 0.85376 0.29131 0.0
C2043 C 0.44459 0.84881 0.31418 0.0
C2044 C 0.46267 0.84984 0.31633 0.0
H2045 H 0.40895 0.82836 0.46561 0.0
H2046 H 0.42046 0.84062 0.42619 0.0
C2047 C 0.47267 0.85577 0.29597 0.0
C2048 C 0.43425 0.84198 0.33572 0.0
H2049 H 0.40426 0.85325 0.38058 0.0
C2050 C 0.43729 0.82491 0.34373 0.0
C2051 C 0.42218 0.85235 0.34906 0.0
C2052 C 0.41886 0.87095 0.3417 0.0
C2053 C 0.4287 0.81795 0.36492 0.0
C2054 C 0.41658 0.82829 0.37825 0.0
C2055 C 0.41344 0.84533 0.37014 0.0
C2056 C 0.40796 0.82192 0.40163 0.0
C2057 C 0.43309 0.79978 0.37339 0.0
C2058 C 0.39667 0.80768 0.40078 0.0
C2059 C 0.39007 0.80061 0.42329 0.0
C2060 C 0.39463 0.80771 0.44704 0.0
C2061 C 0.40525 0.82251 0.44767 0.0
C2062 C 0.41182 0.82957 0.42516 0.0
H2063 H 0.44511 0.79489 0.36423 0.0
H2064 H 0.43476 0.79924 0.39437 0.0
H2065 H 0.42231 0.79095 0.3682 0.0
H2066 H 0.39333 0.80176 0.38274 0.0
H2067 H 0.38184 0.78927 0.42211 0.0
H2068 H 0.96505 0.63754 0.18103 0.0
H2069 H 0.95441 0.64714 0.13945 0.0
H2070 H 0.91222 0.67403 0.17601 0.0
H2071 H 0.92254 0.66429 0.21752 0.0
H2072 H 0.90249 0.65706 0.13076 0.0
H2073 H 0.96135 0.69782 0.11796 0.0
H2074 H 0.96522 0.67513 0.12306 0.0
H2075 H 0.95586 0.68798 0.14803 0.0
C2076 C 0.95337 0.6453 0.1802 0.0
C2077 C 0.94476 0.65033 0.20263 0.0
C2078 C 0.94736 0.65083 0.15643 0.0
C2079 C 0.93272 0.66156 0.15472 0.0
C2080 C 0.92359 0.66581 0.17694 0.0
H2081 H 0.90243 0.73975 0.05047 0.0
H2082 H 0.91199 0.72143 0.08545 0.0
C2083 C 0.92954 0.66026 0.20067 0.0
C2084 C 0.9275 0.66939 0.13015 0.0
H2085 H 0.94039 0.69892 0.08562 0.0
C2086 C 0.91081 0.66607 0.12069 0.0
C2087 C 0.93836 0.6813 0.11728 0.0
C2088 C 0.95615 0.68593 0.12712 0.0
C2089 C 0.90455 0.67462 0.09894 0.0
C2090 C 0.91536 0.68663 0.08625 0.0
C2091 C 0.93218 0.68962 0.09536 0.0
C2092 C 0.90907 0.69736 0.06479 0.0
C2093 C 0.88619 0.67131 0.09036 0.0
C2094 C 0.90426 0.68989 0.04148 0.0
C2095 C 0.89871 0.70037 0.02129 0.0
C2096 C 0.89799 0.71851 0.02408 0.0
C2097 C 0.90282 0.72586 0.04754 0.0
C2098 C 0.90832 0.71541 0.06761 0.0
H2099 H 0.87857 0.66416 0.1049 0.0
H2100 H 0.8795 0.68371 0.08608 0.0
H2101 H 0.8864 0.66346 0.07267 0.0
H2102 H 0.905 0.676 0.03879 0.0
H2103 H 0.89517 0.69428 0.00347 0.0
H2104 H 0.08057 0.17504 0.97865 0.0
H2105 H 0.07066 0.16054 0.94004 0.0
H2106 H 0.09379 0.20079 0.89434 0.0
H2107 H 0.10359 0.21556 0.93299 0.0
H2108 H 0.05985 0.19463 0.88195 0.0
H2109 H 0.09591 0.13267 0.88568 0.0
H2110 H 0.08459 0.13732 0.91474 0.0
H2111 H 0.10193 0.15128 0.90455 0.0
C2112 C 0.08379 0.1807 0.9604 0.0
C2113 C 0.09285 0.19649 0.95893 0.0
C2114 C 0.07821 0.17232 0.93831 0.0
C2115 C 0.08167 0.17946 0.91428 0.0
C2116 C 0.09107 0.195 0.91269 0.0
H2117 H 0.05256 0.1289 0.77099 0.0
H2118 H 0.06914 0.14213 0.80565 0.0
C2119 C 0.09668 0.20341 0.93481 0.0
C2120 C 0.07415 0.17149 0.89108 0.0
H2121 H 0.07114 0.13347 0.85805 0.0
C2122 C 0.06247 0.18132 0.87656 0.0
C2123 C 0.07772 0.15418 0.88388 0.0
C2124 C 0.09086 0.14329 0.89787 0.0
C2125 C 0.05377 0.17412 0.85565 0.0
C2126 C 0.05661 0.15653 0.84933 0.0
C2127 C 0.06881 0.14688 0.86317 0.0
C2128 C 0.04668 0.14787 0.8288 0.0
C2129 C 0.04156 0.1854 0.84053 0.0
C2130 C 0.02861 0.14634 0.83063 0.0
C2131 C 0.0191 0.13879 0.81092 0.0
C2132 C 0.02747 0.13252 0.78897 0.0
C2133 C 0.04566 0.13362 0.78754 0.0
C2134 C 0.05518 0.14118 0.80733 0.0
H2135 H 0.0444 0.19939 0.84329 0.0
H2136 H 0.04233 0.18238 0.8199 0.0
H2137 H 0.02808 0.18299 0.84696 0.0
H2138 H 0.02184 0.1511 0.84728 0.0
H2139 H 0.00514 0.13808 0.81281 0.0
H2140 H 0.61156 0.26493 0.55673 0.0
H2141 H 0.59946 0.28232 0.59115 0.0
H2142 H 0.60647 0.32865 0.54652 0.0
H2143 H 0.61871 0.31134 0.51174 0.0
H2144 H 0.61721 0.33101 0.5997 0.0
H2145 H 0.5506 0.30514 0.58778 0.0
H2146 H 0.56708 0.28878 0.59029 0.0
H2147 H 0.56701 0.3032 0.56343 0.0
C2148 C 0.61062 0.27882 0.55414 0.0
C2149 C 0.61602 0.2867 0.53132 0.0
C2150 C 0.60362 0.28872 0.57385 0.0
C2151 C 0.60184 0.30671 0.5712 0.0
C2152 C 0.60765 0.31475 0.54883 0.0
H2153 H 0.53714 0.36523 0.67735 0.0
H2154 H 0.55124 0.35523 0.63829 0.0
C2155 C 0.61463 0.30483 0.52899 0.0
C2156 C 0.59371 0.31696 0.59183 0.0
H2157 H 0.55626 0.32086 0.62587 0.0
C2158 C 0.60384 0.32895 0.60531 0.0
C2159 C 0.5762 0.31442 0.59882 0.0
C2160 C 0.56451 0.30231 0.5842 0.0
C2161 C 0.59707 0.33795 0.62635 0.0
C2162 C 0.57983 0.33471 0.63416 0.0
C2163 C 0.56952 0.32325 0.61998 0.0
C2164 C 0.57238 0.34237 0.65763 0.0
C2165 C 0.60845 0.3508 0.64007 0.0
C2166 C 0.57964 0.33854 0.68146 0.0
C2167 C 0.57162 0.34422 0.70381 0.0
C2168 C 0.5561 0.35374 0.70278 0.0
C2169 C 0.54909 0.35795 0.67884 0.0
C2170 C 0.55712 0.35223 0.65649 0.0
H2171 H 0.61911 0.35553 0.62766 0.0
H2172 H 0.60083 0.36209 0.64686 0.0
H2173 H 0.61439 0.3444 0.65685 0.0
H2174 H 0.59121 0.33064 0.68282 0.0
H2175 H 0.57734 0.34071 0.72191 0.0
H2176 H 0.0215 0.4383 0.22253 0.0
H2177 H 0.02265 0.46959 0.22999 0.0
H2178 H 0.97142 0.46797 0.26268 0.0
H2179 H 0.97021 0.43675 0.25574 0.0
H2180 H 0.00109 0.49557 0.21187 0.0
H2181 H 0.99945 0.49291 0.31729 0.0
H2182 H 0.00381 0.4741 0.29791 0.0
H2183 H 0.9819 0.48142 0.30254 0.0
C2184 C 0.0105 0.44457 0.2314 0.0
C2185 C 0.99581 0.43496 0.23867 0.0
C2186 C 0.01118 0.46246 0.23561 0.0
C2187 C 0.99723 0.47103 0.24724 0.0
C2188 C 0.98248 0.46154 0.25419 0.0
H2189 H 0.97402 0.58104 0.24766 0.0
H2190 H 0.97499 0.54987 0.23936 0.0
C2191 C 0.98179 0.44368 0.25007 0.0
C2192 C 0.99794 0.48996 0.25175 0.0
H2193 H 0.99498 0.52059 0.29839 0.0
C2194 C -0.00015 0.50107 0.23079 0.0
C2195 C 0.99656 0.49706 0.27649 0.0
C2196 C 0.99549 0.48576 0.29988 0.0
C2197 C 3e-05 0.51914 0.23385 0.0
C2198 C 0.99792 0.52624 0.25848 0.0
C2199 C 0.99639 0.51511 0.27948 0.0
C2200 C 0.99746 0.54519 0.26302 0.0
C2201 C 0.00273 0.53043 0.21074 0.0
C2202 C 0.0095 0.55283 0.27955 0.0
C2203 C 0.00887 0.57058 0.28457 0.0
C2204 C 0.99614 0.58108 0.27318 0.0
C2205 C 0.98406 0.57337 0.25664 0.0
C2206 C 0.98466 0.55557 0.25172 0.0
H2207 H 0.00886 0.52313 0.19489 0.0
H2208 H 0.98998 0.53524 0.20399 0.0
H2209 H 0.01097 0.5418 0.21534 0.0
H2210 H 0.01944 0.54503 0.28856 0.0
H2211 H 0.01841 0.57605 0.29738 0.0
H2212 H 0.82077 0.77446 0.44865 0.0
H2213 H 0.78933 0.77727 0.45336 0.0
H2214 H 0.78721 0.72709 0.48925 0.0
H2215 H 0.81854 0.72418 0.48494 0.0
H2216 H 0.76219 0.75553 0.43532 0.0
H2217 H 0.76339 0.75946 0.54076 0.0
H2218 H 0.78256 0.76231 0.52151 0.0
H2219 H 0.77447 0.74092 0.52806 0.0
C2220 C 0.81364 0.76401 0.45755 0.0
C2221 C 0.82224 0.74915 0.46659 0.0
C2222 C 0.79567 0.76564 0.46017 0.0
C2223 C 0.78602 0.75249 0.47198 0.0
C2224 C 0.79449 0.73751 0.4805 0.0
H2225 H 0.67551 0.73318 0.47446 0.0
H2226 H 0.70651 0.73336 0.46474 0.0
C2227 C 0.81241 0.73586 0.47792 0.0
C2228 C 0.76711 0.75443 0.47562 0.0
H2229 H 0.73582 0.75568 0.52144 0.0
C2230 C 0.75639 0.75567 0.45412 0.0
C2231 C 0.75965 0.75485 0.50019 0.0
C2232 C 0.7706 0.75448 0.52398 0.0
C2233 C 0.7383 0.75686 0.45656 0.0
C2234 C 0.7308 0.75657 0.48113 0.0
C2235 C 0.74158 0.75575 0.50261 0.0
C2236 C 0.71181 0.75711 0.48521 0.0
C2237 C 0.7274 0.75861 0.43288 0.0
C2238 C 0.70455 0.7703 0.50013 0.0
C2239 C 0.6869 0.77016 0.50593 0.0
C2240 C 0.67613 0.75675 0.497 0.0
C2241 C 0.68339 0.74373 0.48158 0.0
C2242 C 0.7011 0.74387 0.47585 0.0
H2243 H 0.73515 0.76335 0.41648 0.0
H2244 H 0.72203 0.74573 0.42776 0.0
H2245 H 0.71639 0.76762 0.43604 0.0
H2246 H 0.7126 0.78062 0.5076 0.0
H2247 H 0.68177 0.78044 0.51777 0.0
H2248 H 0.52967 0.42567 0.74071 0.0
H2249 H 0.53364 0.4569 0.7346 0.0
H2250 H 0.48582 0.46667 0.77456 0.0
H2251 H 0.48185 0.43569 0.78111 0.0
H2252 H 0.51301 0.48063 0.71016 0.0
H2253 H 0.51956 0.49817 0.81181 0.0
H2254 H 0.52101 0.47608 0.8007 0.0
H2255 H 0.50018 0.48604 0.80562 0.0
C2256 C 0.52 0.43447 0.74822 0.0
C2257 C 0.50551 0.42814 0.76158 0.0
C2258 C 0.52231 0.4523 0.74475 0.0
C2259 C 0.51023 0.46412 0.75464 0.0
C2260 C 0.49556 0.45782 0.7674 0.0
H2261 H 0.48441 0.56728 0.71125 0.0
H2262 H 0.48733 0.53623 0.71806 0.0
C2263 C 0.49326 0.44005 0.77095 0.0
C2264 C 0.51252 0.48303 0.75099 0.0
H2265 H 0.51319 0.52151 0.78307 0.0
C2266 C 0.51327 0.48956 0.7261 0.0
C2267 C 0.5132 0.49466 0.7718 0.0
C2268 C 0.51363 0.48838 0.79899 0.0
C2269 C 0.5138 0.50746 0.72144 0.0
C2270 C 0.51324 0.51911 0.74224 0.0
C2271 C 0.51338 0.51257 0.76714 0.0
C2272 C 0.51159 0.53808 0.73849 0.0
C2273 C 0.51486 0.51371 0.69428 0.0
C2274 C 0.52395 0.54953 0.74857 0.0
C2275 C 0.52225 0.56743 0.74492 0.0
C2276 C 0.5081 0.57416 0.73122 0.0
C2277 C 0.49557 0.5626 0.72168 0.0
C2278 C 0.49727 0.54479 0.72538 0.0
H2279 H 0.52062 0.50372 0.68163 0.0
H2280 H 0.5016 0.51652 0.68724 0.0
H2281 H 0.52268 0.52575 0.6928 0.0
H2282 H 0.53501 0.5446 0.75899 0.0
H2283 H 0.53211 0.57594 0.75258 0.0
H2284 H 0.81946 0.23108 0.0413 0.0
H2285 H 0.78827 0.23415 0.03567 0.0
H2286 H 0.7962 0.28192 0.99472 0.0
H2287 H 0.82758 0.27882 -0.00017 0.0
H2288 H 0.76643 0.26028 0.05168 0.0
H2289 H 0.76575 0.25399 0.94628 0.0
H2290 H 0.7845 0.24861 0.96519 0.0
H2291 H 0.77946 0.27087 0.95846 0.0
C2292 C 0.81464 0.24223 0.03099 0.0
C2293 C 0.82608 0.25466 0.0209 0.0
C2294 C 0.79678 0.24398 0.02787 0.0
C2295 C 0.78993 0.25816 0.01459 0.0
C2296 C 0.80124 0.27071 0.00466 0.0
H2297 H 0.678 0.28056 0.01443 0.0
H2298 H 0.7093 0.28285 0.02161 0.0
C2299 C 0.81917 0.26894 0.00767 0.0
C2300 C 0.77092 0.25963 0.01125 0.0
H2301 H 0.73896 0.25929 0.96638 0.0
C2302 C 0.76039 0.26017 0.03304 0.0
C2303 C 0.76313 0.25934 0.9869 0.0
C2304 C 0.77374 0.25802 0.96284 0.0
C2305 C 0.74224 0.26011 0.03116 0.0
C2306 C 0.73446 0.25982 0.00681 0.0
C2307 C 0.74499 0.25961 0.98502 0.0
C2308 C 0.71545 0.25846 0.0034 0.0
C2309 C 0.73158 0.25967 0.05523 0.0
C2310 C 0.70856 0.24408 0.99061 0.0
C2311 C 0.69078 0.2428 0.98632 0.0
C2312 C 0.67945 0.25589 0.9947 0.0
C2313 C 0.68634 0.2702 0.00787 0.0
C2314 C 0.70422 0.27151 0.01206 0.0
H2315 H 0.7395 0.25613 0.0721 0.0
H2316 H 0.72594 0.27269 0.05865 0.0
H2317 H 0.72074 0.25028 0.05348 0.0
H2318 H 0.71699 0.23385 0.98382 0.0
H2319 H 0.68597 0.23156 0.9762 0.0
H2320 H 0.97176 0.43478 0.70928 0.0
H2321 H 0.97245 0.46634 0.71131 0.0
H2322 H 0.01874 0.46419 0.75709 0.0
H2323 H 0.0181 0.43247 0.75546 0.0
H2324 H 0.99441 0.48804 0.7748 0.0
H2325 H 0.00635 0.49686 0.67153 0.0
H2326 H 0.98765 0.48384 0.67848 0.0
H2327 H 0.00884 0.47621 0.68727 0.0
C2328 C 0.98209 0.44095 0.71989 0.0
C2329 C 0.99497 0.43103 0.73205 0.0
C2330 C 0.98251 0.45903 0.72087 0.0
C2331 C 0.99586 0.46761 0.73385 0.0
C2332 C 0.00841 0.4578 0.74676 0.0
H2333 H 0.02069 0.57767 0.72171 0.0
H2334 H 0.02105 0.546 0.71895 0.0
C2335 C 0.008 0.43967 0.74584 0.0
C2336 C 0.99662 0.48682 0.73401 0.0
H2337 H 0.99897 0.5222 0.69506 0.0
C2338 C 0.99549 0.49552 0.75739 0.0
C2339 C 0.9983 0.49654 0.71129 0.0
C2340 C 0.00053 0.48791 0.68573 0.0
C2341 C 0.99553 0.51369 0.75862 0.0
C2342 C 0.99644 0.52342 0.73581 0.0
C2343 C 0.99805 0.51472 0.71248 0.0
C2344 C 0.99571 0.54263 0.73586 0.0
C2345 C 0.99476 0.52232 0.78437 0.0
C2346 C 0.9811 0.55124 0.74543 0.0
C2347 C 0.98083 0.5693 0.74703 0.0
C2348 C 0.99515 0.57917 0.73893 0.0
C2349 C 0.00946 0.57052 0.72819 0.0
C2350 C 0.00971 0.55241 0.72665 0.0
H2351 H 0.99879 0.51336 0.79983 0.0
H2352 H 0.00318 0.53398 0.78495 0.0
H2353 H 0.98124 0.52645 0.78826 0.0
H2354 H 0.96998 0.54395 0.75206 0.0
H2355 H 0.96952 0.57549 0.75518 0.0
H2356 H 0.30864 0.23355 0.46798 0.0
H2357 H 0.27744 0.23595 0.47411 0.0
H2358 H 0.28464 0.28361 0.5156 0.0
H2359 H 0.31606 0.28122 0.50991 0.0
H2360 H 0.26147 0.26166 0.53878 0.0
H2361 H 0.24508 0.26893 0.4368 0.0
H2362 H 0.25791 0.25 0.4429 0.0
H2363 H 0.26693 0.27114 0.44864 0.0
C2364 C 0.30366 0.24457 0.47845 0.0
C2365 C 0.3149 0.25726 0.4883 0.0
C2366 C 0.28577 0.24598 0.48175 0.0
C2367 C 0.27869 0.26018 0.49474 0.0
C2368 C 0.28984 0.27264 0.50525 0.0
H2369 H 0.16609 0.27846 0.49544 0.0
H2370 H 0.19737 0.28237 0.48932 0.0
C2371 C 0.3078 0.27122 0.50203 0.0
C2372 C 0.25965 0.26166 0.49789 0.0
H2373 H 0.22159 0.26151 0.4647 0.0
C2374 C 0.25276 0.26184 0.5226 0.0
C2375 C 0.24828 0.26223 0.47676 0.0
C2376 C 0.25492 0.26325 0.44979 0.0
C2377 C 0.23479 0.2617 0.52672 0.0
C2378 C 0.22344 0.26107 0.50558 0.0
C2379 C 0.23031 0.26177 0.48089 0.0
C2380 C 0.2045 0.25871 0.50876 0.0
C2381 C 0.22813 0.26214 0.55372 0.0
C2382 C 0.19816 0.24391 0.52108 0.0
C2383 C 0.1804 0.24163 0.52461 0.0
C2384 C 0.16851 0.25406 0.51568 0.0
C2385 C 0.17486 0.26866 0.50262 0.0
C2386 C 0.19273 0.27094 0.49914 0.0
H2387 H 0.23778 0.26796 0.56688 0.0
H2388 H 0.21586 0.26961 0.55509 0.0
H2389 H 0.22558 0.24869 0.56021 0.0
H2390 H 0.20699 0.23408 0.52803 0.0
H2391 H 0.17602 0.23013 0.53451 0.0
H2392 H 0.51905 0.56079 0.22025 0.0
H2393 H 0.51543 0.52986 0.22777 0.0
H2394 H 0.46724 0.53963 0.26676 0.0
H2395 H 0.47086 0.57081 0.2597 0.0
H2396 H 0.48785 0.51624 0.29199 0.0
H2397 H 0.48212 0.49792 0.19049 0.0
H2398 H 0.50139 0.51017 0.19686 0.0
H2399 H 0.48049 0.52008 0.20124 0.0
C2400 C 0.50764 0.55644 0.23043 0.0
C2401 C 0.49517 0.56832 0.2392 0.0
C2402 C 0.50555 0.5387 0.23454 0.0
C2403 C 0.49086 0.53242 0.24726 0.0
C2404 C 0.47858 0.54422 0.25665 0.0
H2405 H 0.46824 0.42096 0.24971 0.0
H2406 H 0.46584 0.45231 0.2432 0.0
C2407 C 0.4807 0.56203 0.25263 0.0
C2408 C 0.48865 0.51353 0.25121 0.0
H2409 H 0.48808 0.47483 0.21973 0.0
C2410 C 0.4877 0.50719 0.27619 0.0
C2411 C 0.48811 0.50175 0.23058 0.0
C2412 C 0.48789 0.50783 0.20328 0.0
C2413 C 0.48704 0.48932 0.28112 0.0
C2414 C 0.48769 0.47752 0.26052 0.0
C2415 C 0.48782 0.48389 0.23552 0.0
C2416 C 0.48899 0.45855 0.26455 0.0
C2417 C 0.48569 0.48328 0.30836 0.0
C2418 C 0.50298 0.45167 0.27822 0.0
C2419 C 0.50438 0.43383 0.28202 0.0
C2420 C 0.49189 0.42244 0.27198 0.0
C2421 C 0.47806 0.42935 0.25776 0.0
C2422 C 0.47666 0.44725 0.25405 0.0
H2423 H 0.47988 0.49341 0.32074 0.0
H2424 H 0.47776 0.47132 0.30988 0.0
H2425 H 0.49886 0.48044 0.31572 0.0
H2426 H 0.51292 0.4601 0.28587 0.0
H2427 H 0.51529 0.429 0.29285 0.0
H2428 H 0.17959 0.7176 0.01525 0.0
H2429 H 0.21112 0.7171 0.02013 0.0
H2430 H 0.21516 0.76404 0.97599 0.0
H2431 H 0.1838 0.76449 0.97057 0.0
H2432 H 0.23823 0.73921 0.96058 0.0
H2433 H 0.24087 0.74785 0.06543 0.0
H2434 H 0.22792 0.72983 0.05514 0.0
H2435 H 0.22138 0.75153 0.04725 0.0
C2436 C 0.18717 0.72789 0.00673 0.0
C2437 C 0.17913 0.74109 0.99254 0.0
C2438 C 0.20519 0.72761 0.00963 0.0
C2439 C 0.21545 0.74064 0.99866 0.0
C2440 C 0.20747 0.75386 0.98462 0.0
H2441 H 0.32109 0.76805 0.03194 0.0
H2442 H 0.2898 0.76659 0.02603 0.0
C2443 C 0.18951 0.75411 0.9816 0.0
C2444 C 0.23457 0.74038 0.00118 0.0
H2445 H 0.26744 0.74216 0.04452 0.0
C2446 C 0.24464 0.73983 0.97892 0.0
C2447 C 0.24287 0.74138 0.02513 0.0
C2448 C 0.23274 0.74284 0.04961 0.0
C2449 C 0.26281 0.74032 0.97995 0.0
C2450 C 0.2711 0.74101 0.00392 0.0
C2451 C 0.26103 0.7415 0.02617 0.0
C2452 C 0.2902 0.74196 0.0064 0.0
C2453 C 0.27291 0.74059 0.95536 0.0
C2454 C 0.30085 0.72859 0.99722 0.0
C2455 C 0.31883 0.72943 0.0004 0.0
C2456 C 0.32644 0.74356 0.0131 0.0
C2457 C 0.3157 0.75695 0.02212 0.0
C2458 C 0.29778 0.75614 0.01881 0.0
H2459 H 0.26466 0.74441 0.93897 0.0
H2460 H 0.28402 0.7497 0.95658 0.0
H2461 H 0.27809 0.72744 0.95152 0.0
H2462 H 0.29523 0.71737 0.98801 0.0
H2463 H 0.3267 0.71884 0.99339 0.0
H2464 H 0.47293 0.92685 0.75661 0.0
H2465 H 0.47009 0.95834 0.76075 0.0
H2466 H 0.51805 0.96524 0.71986 0.0
H2467 H 0.52089 0.93397 0.71526 0.0
H2468 H 0.49142 0.98221 0.78327 0.0
H2469 H 0.48521 0.99644 0.68046 0.0
H2470 H 0.48315 0.97481 0.69319 0.0
H2471 H 0.50424 0.984 0.68752 0.0
C2472 C 0.48289 0.93506 0.74852 0.0
C2473 C 0.49706 0.92785 0.73541 0.0
C2474 C 0.48121 0.95306 0.75085 0.0
C2475 C 0.49364 0.96413 0.74006 0.0
C2476 C 0.50804 0.95696 0.72768 0.0
H2477 H 0.5222 0.06779 0.77635 0.0
H2478 H 0.51864 0.03667 0.7711 0.0
C2479 C 0.50971 0.93903 0.72525 0.0
C2480 C 0.49192 0.9832 0.74232 0.0
H2481 H 0.49222 0.02055 0.70746 0.0
C2482 C 0.49138 0.99059 0.7667 0.0
C2483 C 0.49153 0.99412 0.72068 0.0
C2484 C 0.49087 0.98694 0.69399 0.0
C2485 C 0.49132 0.00863 0.77003 0.0
C2486 C 0.49216 0.01954 0.74841 0.0
C2487 C 0.49182 0.01217 0.72402 0.0
C2488 C 0.49433 0.03855 0.75081 0.0
C2489 C 0.49046 0.01582 0.79671 0.0
C2490 C 0.48219 0.05 0.74017 0.0
C2491 C 0.48427 0.06794 0.74292 0.0
C2492 C 0.49856 0.07468 0.75627 0.0
C2493 C 0.51092 0.06311 0.7662 0.0
C2494 C 0.50886 0.04526 0.76338 0.0
H2495 H 0.48447 0.00641 0.81009 0.0
H2496 H 0.50379 0.01855 0.80351 0.0
H2497 H 0.48292 0.02807 0.79731 0.0
H2498 H 0.47097 0.04506 0.73013 0.0
H2499 H 0.47453 0.07648 0.73498 0.0
H2500 H 0.30545 0.27931 0.9703 0.0
H2501 H 0.27426 0.27775 0.97759 0.0
H2502 H 0.28059 0.22848 0.01514 0.0
H2503 H 0.31191 0.23003 0.00833 0.0
H2504 H 0.25125 0.25307 0.96039 0.0
H2505 H 0.25142 0.25573 0.066 0.0
H2506 H 0.27023 0.26109 0.04716 0.0
H2507 H 0.2646 0.23881 0.05272 0.0
C2508 C 0.30028 0.26818 0.98031 0.0
C2509 C 0.31125 0.25481 0.9888 0.0
C2510 C 0.28241 0.2673 0.98439 0.0
C2511 C 0.27511 0.25309 0.99711 0.0
C2512 C 0.28598 0.23973 0.00569 0.0
H2513 H 0.16404 0.22873 0.99583 0.0
H2514 H 0.19543 0.22797 0.98889 0.0
C2515 C 0.30389 0.24062 0.0017 0.0
C2516 C 0.25607 0.25213 0.00073 0.0
H2517 H 0.22443 0.25043 0.04608 0.0
C2518 C 0.24537 0.25247 0.97912 0.0
C2519 C 0.24844 0.25151 0.02519 0.0
C2520 C 0.25923 0.25192 0.04913 0.0
C2521 C 0.22723 0.25225 0.98129 0.0
C2522 C 0.2196 0.25135 0.00574 0.0
C2523 C 0.23031 0.25096 0.02734 0.0
C2524 C 0.20055 0.25172 0.00948 0.0
C2525 C 0.2164 0.25349 0.95746 0.0
C2526 C 0.19305 0.26515 0.02367 0.0
C2527 C 0.17519 0.26556 0.02783 0.0
C2528 C 0.16439 0.2525 0.01792 0.0
C2529 C 0.17194 0.23905 0.0036 0.0
C2530 C 0.18987 0.23863 0.99952 0.0
H2531 H 0.22408 0.25823 0.94098 0.0
H2532 H 0.2113 0.24046 0.95261 0.0
H2533 H 0.20519 0.26231 0.96034 0.0
H2534 H 0.20104 0.27538 0.03153 0.0
H2535 H 0.16989 0.27613 0.03892 0.0
H2536 H 0.03177 0.06407 0.25834 0.0
H2537 H 0.03314 0.03297 0.26743 0.0
H2538 H 0.98465 0.02541 0.22824 0.0
H2539 H 0.98328 0.05629 0.21868 0.0
H2540 H 0.01077 0.01134 0.29348 0.0
H2541 H 0.01634 0.99093 0.19268 0.0
H2542 H 0.01915 0.01314 0.20264 0.0
H2543 H 0.99775 0.00429 0.19865 0.0
C2544 C 0.02138 0.0558 0.25167 0.0
C2545 C 0.00751 0.06269 0.23754 0.0
C2546 C 0.02219 0.03803 0.25689 0.0
C2547 C 0.00918 0.02683 0.24804 0.0
C2548 C 0.99506 0.03374 0.23467 0.0
H2549 H 0.98572 0.92238 0.29754 0.0
H2550 H 0.9864 0.95357 0.28986 0.0
C2551 C 0.99426 0.05145 0.22935 0.0
C2552 C 0.01026 0.00792 0.25282 0.0
H2553 H 0.01042 0.96866 0.22286 0.0
C2554 C 0.0108 0.00199 0.27806 0.0
C2555 C 0.01058 0.99576 0.23266 0.0
C2556 C 0.0111 0.00133 0.20513 0.0
C2557 C 0.01118 0.9842 0.28369 0.0
C2558 C 0.01067 0.97204 0.26354 0.0
C2559 C 0.0106 0.97798 0.2383 0.0
C2560 C 0.01023 0.95307 0.26816 0.0
C2561 C 0.01234 0.97863 0.31117 0.0
C2562 C 0.02309 0.94231 0.2578 0.0
C2563 C 0.02264 0.92442 0.26188 0.0
C2564 C 0.00928 0.9169 0.2764 0.0
C2565 C 0.99628 0.92771 0.28646 0.0
C2566 C 0.99671 0.94559 0.28225 0.0
H2567 H 0.01764 0.98911 0.3234 0.0
H2568 H 0.99917 0.97543 0.31822 0.0
H2569 H 0.02063 0.96696 0.31328 0.0
H2570 H 0.03358 0.9478 0.24671 0.0
H2571 H 0.03286 0.91651 0.25383 0.0
H2572 H 0.31274 0.73209 0.52416 0.0
H2573 H 0.28164 0.73523 0.51717 0.0
H2574 H 0.29031 0.78425 0.47989 0.0
H2575 H 0.32154 0.78108 0.48631 0.0
H2576 H 0.26002 0.7605 0.5348 0.0
H2577 H 0.25952 0.75922 0.42918 0.0
H2578 H 0.27822 0.75293 0.44759 0.0
H2579 H 0.27345 0.77547 0.44255 0.0
C2580 C 0.30809 0.74349 0.51427 0.0
C2581 C 0.31968 0.75631 0.50572 0.0
C2582 C 0.29028 0.74527 0.51035 0.0
C2583 C 0.28366 0.75988 0.4978 0.0
C2584 C 0.29516 0.7727 0.48918 0.0
H2585 H 0.17385 0.78921 0.50224 0.0
H2586 H 0.2053 0.78848 0.50848 0.0
C2587 C 0.31302 0.77089 0.49295 0.0
C2588 C 0.26468 0.76182 0.49444 0.0
H2589 H 0.23295 0.76583 0.44958 0.0
C2590 C 0.25408 0.76168 0.51618 0.0
C2591 C 0.25697 0.76319 0.4701 0.0
C2592 C 0.26758 0.76255 0.44599 0.0
C2593 C 0.23597 0.7628 0.51425 0.0
C2594 C 0.22828 0.76448 0.48994 0.0
C2595 C 0.23889 0.76469 0.46821 0.0
C2596 C 0.20922 0.76511 0.48644 0.0
C2597 C 0.22523 0.76163 0.53819 0.0
C2598 C 0.20104 0.75243 0.47158 0.0
C2599 C 0.18316 0.7529 0.46777 0.0
C2600 C 0.17301 0.7661 0.47874 0.0
C2601 C 0.18124 0.7788 0.49367 0.0
C2602 C 0.1992 0.77836 0.49735 0.0
H2603 H 0.23273 0.75609 0.5543 0.0
H2604 H 0.22094 0.77482 0.54377 0.0
H2605 H 0.21351 0.75354 0.53509 0.0
H2606 H 0.20851 0.74209 0.46297 0.0
H2607 H 0.1773 0.74287 0.4562 0.0
H2608 H 0.4706 0.07146 0.27475 0.0
H2609 H 0.47267 0.04032 0.26771 0.0
H2610 H 0.52092 0.0475 0.22767 0.0
H2611 H 0.51886 0.07885 0.23426 0.0
H2612 H 0.49882 0.02443 0.20361 0.0
H2613 H 0.50547 0.00808 0.30585 0.0
H2614 H 0.48659 0.02085 0.29909 0.0
H2615 H 0.50779 0.02991 0.29398 0.0
C2616 C 0.48167 0.06648 0.2644 0.0
C2617 C 0.49466 0.07768 0.25527 0.0
C2618 C 0.48287 0.04864 0.26054 0.0
C2619 C 0.49714 0.04157 0.2477 0.0
C2620 C 0.50987 0.0527 0.23785 0.0
H2621 H 0.52233 0.93139 0.24941 0.0
H2622 H 0.52288 0.96287 0.25459 0.0
C2623 C 0.50866 0.07061 0.24161 0.0
C2624 C 0.49866 0.02256 0.24449 0.0
H2625 H 0.49969 0.98455 0.27767 0.0
C2626 C 0.49914 0.0157 0.21978 0.0
C2627 C 0.49935 0.01123 0.26563 0.0
C2628 C 0.49995 0.01788 0.29263 0.0
C2629 C 0.49976 0.99774 0.21563 0.0
C2630 C 0.49956 0.98638 0.23678 0.0
C2631 C 0.49962 0.99327 0.26149 0.0
C2632 C 0.49913 0.9673 0.2337 0.0
C2633 C 0.50077 0.99112 0.18865 0.0
C2634 C 0.48541 0.95933 0.22071 0.0
C2635 C 0.48506 0.94136 0.21764 0.0
C2636 C 0.49837 0.93096 0.22775 0.0
C2637 C 0.51188 0.93897 0.24134 0.0
C2638 C 0.51224 0.95698 0.2443 0.0
H2639 H 0.50585 0.00117 0.17547 0.0
H2640 H 0.50917 0.97948 0.18736 0.0
H2641 H 0.48758 0.98751 0.18211 0.0
H2642 H 0.47491 0.96701 0.21297 0.0
H2643 H 0.47437 0.93564 0.20726 0.0
H2644 H 0.82352 0.73463 0.96384 0.0
H2645 H 0.79236 0.73686 0.97017 0.0
H2646 H 0.79948 0.78409 0.01272 0.0
H2647 H 0.83093 0.78187 0.00679 0.0
H2648 H 0.77625 0.76153 0.0354 0.0
H2649 H 0.76001 0.77033 0.93364 0.0
H2650 H 0.77299 0.75141 0.93911 0.0
H2651 H 0.78181 0.77254 0.94566 0.0
C2652 C 0.81854 0.74553 0.97456 0.0
C2653 C 0.82979 0.75816 0.98463 0.0
C2654 C 0.80067 0.74684 0.97799 0.0
C2655 C 0.79356 0.76086 0.99136 0.0
C2656 C 0.80471 0.77326 0.00209 0.0
H2657 H 0.68109 0.77863 0.991 0.0
H2658 H 0.7124 0.78249 0.98557 0.0
C2659 C 0.82267 0.77195 0.99871 0.0
C2660 C 0.77451 0.76221 0.99452 0.0
H2661 H 0.73655 0.7622 0.96112 0.0
C2662 C 0.76756 0.76189 0.01919 0.0
C2663 C 0.76319 0.76299 0.97336 0.0
C2664 C 0.76987 0.76452 0.94646 0.0
C2665 C 0.74958 0.76149 0.02321 0.0
C2666 C 0.73828 0.76108 0.00199 0.0
C2667 C 0.74522 0.76226 0.97737 0.0
C2668 C 0.71931 0.75873 0.00492 0.0
C2669 C 0.74285 0.76145 0.05018 0.0
C2670 C 0.71281 0.74388 0.01697 0.0
C2671 C 0.69499 0.74163 0.02011 0.0
C2672 C 0.68323 0.75412 0.01104 0.0
C2673 C 0.68976 0.76876 0.99826 0.0
C2674 C 0.70765 0.77102 0.99519 0.0
H2675 H 0.75242 0.76714 0.06358 0.0
H2676 H 0.73053 0.7688 0.05174 0.0
H2677 H 0.7404 0.74789 0.05621 0.0
H2678 H 0.72154 0.73398 0.02399 0.0
H2679 H 0.69047 0.73011 0.02983 0.0
H2680 H 0.0154 0.05435 0.72697 0.0
H2681 H 0.01207 0.02314 0.73238 0.0
H2682 H 0.96337 0.0312 0.77085 0.0
H2683 H 0.96669 0.06256 0.76591 0.0
H2684 H 0.9839 0.00747 0.79509 0.0
H2685 H 0.97959 0.99174 0.69248 0.0
H2686 H 0.99865 0.00397 0.7002 0.0
H2687 H 0.9776 0.01359 0.70442 0.0
C2688 C 0.00397 0.04954 0.73663 0.0
C2689 C 0.99126 0.06101 0.74587 0.0
C2690 C 0.00202 0.03166 0.7395 0.0
C2691 C 0.98727 0.02483 0.75144 0.0
C2692 C 0.97477 0.03621 0.76132 0.0
H2693 H 0.96438 0.91304 0.75048 0.0
H2694 H 0.96212 0.94447 0.74394 0.0
C2695 C 0.97672 0.05414 0.75853 0.0
C2696 C 0.9852 0.00582 0.75423 0.0
H2697 H 0.98499 0.9679 0.72065 0.0
C2698 C 0.98395 0.99883 0.77881 0.0
C2699 C 0.98493 0.99456 0.73294 0.0
C2700 C 0.98508 0.00134 0.70601 0.0
C2701 C 0.98324 0.98086 0.78273 0.0
C2702 C 0.98411 0.96958 0.76153 0.0
C2703 C 0.98455 0.97657 0.73689 0.0
C2704 C 0.98555 0.95055 0.7647 0.0
C2705 C 0.98166 0.97412 0.80959 0.0
C2706 C 0.9997 0.94358 0.77788 0.0
C2707 C 0.00103 0.92575 0.78164 0.0
C2708 C 0.98829 0.91442 0.77212 0.0
C2709 C 0.97438 0.92139 0.75814 0.0
C2710 C 0.97305 0.93933 0.75442 0.0
H2711 H 0.97589 0.98397 0.82248 0.0
H2712 H 0.97359 0.96222 0.8103 0.0
H2713 H 0.99475 0.97091 0.81692 0.0
H2714 H 0.00973 0.95197 0.78537 0.0
H2715 H 0.01204 0.92089 0.79224 0.0
H2716 H 0.68808 0.22906 0.50909 0.0
H2717 H 0.71974 0.22829 0.51205 0.0
H2718 H 0.72298 0.2749 0.46709 0.0
H2719 H 0.69149 0.27573 0.46376 0.0
H2720 H 0.74506 0.24869 0.45025 0.0
H2721 H 0.75164 0.25965 0.55433 0.0
H2722 H 0.73769 0.24199 0.54556 0.0
H2723 H 0.73173 0.26379 0.53734 0.0
C2724 C 0.69551 0.23925 0.50004 0.0
C2725 C 0.68718 0.25247 0.4862 0.0
C2726 C 0.71361 0.2388 0.5018 0.0
C2727 C 0.7237 0.25161 0.48994 0.0
C2728 C 0.71544 0.26489 0.47637 0.0
H2729 H 0.83118 0.27723 0.51345 0.0
H2730 H 0.79975 0.27692 0.50876 0.0
C2731 C 0.6974 0.26535 0.47457 0.0
C2732 C 0.74289 0.25104 0.49097 0.0
H2733 H 0.77733 0.25334 0.53157 0.0
C2734 C 0.75214 0.24968 0.46802 0.0
C2735 C 0.75206 0.2525 0.51416 0.0
C2736 C 0.74283 0.25472 0.53926 0.0
C2737 C 0.77034 0.24974 0.46764 0.0
C2738 C 0.77951 0.25095 0.49086 0.0
C2739 C 0.77026 0.25231 0.5138 0.0
C2740 C 0.79871 0.25139 0.49185 0.0
C2741 C 0.77959 0.24895 0.44237 0.0
C2742 C 0.80861 0.2372 0.48358 0.0
C2743 C 0.82667 0.23735 0.48614 0.0
C2744 C 0.83514 0.25164 0.49721 0.0
C2745 C 0.82515 0.26598 0.50489 0.0
C2746 C 0.80714 0.26583 0.50229 0.0
H2747 H 0.77083 0.2522 0.42629 0.0
H2748 H 0.7908 0.25798 0.44205 0.0
H2749 H 0.78457 0.23562 0.4393 0.0
H2750 H 0.80234 0.22582 0.47582 0.0
H2751 H 0.83392 0.22604 0.48016 0.0
loop_
_geom_bond_atom_site_label_1
_geom_bond_atom_site_label_2
_geom_bond_distance
_geom_bond_site_symmetry_2
_ccdc_geom_bond_type
Mg0 O1 2.028 . S
Mg0 O7 1.986 . S
Mg0 O9 2.114 . S
Mg0 O10 2.251 . S
Mg0 O13 2.010 1_455 S
O1 Mg0 2.028 . S
O1 C4 1.250 . S
O2 Mg3 2.028 . S
O2 C4 1.248 . S
Mg3 O2 2.028 . S
Mg3 O8 2.032 . S
Mg3 O10 2.079 . S
C4 O1 1.250 . S
C4 O2 1.248 . S
C5 O6 1.264 . S
C5 O13 1.249 . S
O6 C5 1.264 . S
O7 Mg0 1.986 . S
O7 C11 1.246 . S
O8 Mg3 2.032 . S
O8 C11 1.259 . S
O9 Mg0 2.114 . S
O9 C12 1.252 . S
O10 Mg0 2.251 . S
O10 Mg3 2.079 . S
O10 C12 1.273 . S
C11 O7 1.246 . S
C11 O8 1.259 . S
C12 O9 1.252 . S
C12 O10 1.273 . S
O13 Mg0 2.010 1_655 S
O13 C5 1.249 . S
Mg14 O15 2.028 . S
Mg14 O21 1.986 . S
Mg14 O23 2.114 . S
Mg14 O24 2.251 . S
Mg14 O27 2.010 . S
O15 Mg14 2.028 . S
O15 C18 1.250 . S
O16 Mg17 2.028 . S
O16 C18 1.248 . S
Mg17 O16 2.028 . S
Mg17 O22 2.032 . S
Mg17 O24 2.079 . S
C18 O15 1.250 . S
C18 O16 1.248 . S
C19 O20 1.264 . S
C19 O27 1.249 . S
O20 C19 1.264 . S
O21 Mg14 1.986 . S
O21 C25 1.246 . S
O22 Mg17 2.032 . S
O22 C25 1.259 . S
O23 Mg14 2.114 . S
O23 C26 1.252 . S
O24 Mg14 2.251 . S
O24 Mg17 2.079 . S
O24 C26 1.273 . S
C25 O21 1.246 . S
C25 O22 1.259 . S
C26 O23 1.252 . S
C26 O24 1.273 . S
O27 Mg14 2.010 . S
O27 C19 1.249 . S
Mg28 O29 2.028 . S
Mg28 O35 1.986 . S
Mg28 O37 2.114 . S
Mg28 O38 2.251 . S
Mg28 O41 2.010 . S
O29 Mg28 2.028 . S
O29 C32 1.250 . S
O30 Mg31 2.028 . S
O30 C32 1.248 . S
Mg31 O30 2.028 . S
Mg31 O36 2.032 . S
Mg31 O38 2.079 . S
C32 O29 1.250 . S
C32 O30 1.248 . S
C33 O34 1.264 . S
C33 O41 1.249 . S
O34 C33 1.264 . S
O35 Mg28 1.986 . S
O35 C39 1.246 . S
O36 Mg31 2.032 . S
O36 C39 1.259 . S
O37 Mg28 2.114 . S
O37 C40 1.252 . S
O38 Mg28 2.251 . S
O38 Mg31 2.079 . S
O38 C40 1.273 . S
C39 O35 1.246 . S
C39 O36 1.259 . S
C40 O37 1.252 . S
C40 O38 1.273 . S
O41 Mg28 2.010 . S
O41 C33 1.249 . S
Mg42 O43 2.028 . S
Mg42 O49 1.986 . S
Mg42 O51 2.114 1_554 S
Mg42 O52 2.251 1_554 S
Mg42 O55 2.010 . S
O43 Mg42 2.028 . S
O43 C46 1.250 . S
O44 Mg45 2.028 . S
O44 C46 1.248 . S
Mg45 O44 2.028 . S
Mg45 O50 2.032 . S
Mg45 O52 2.079 1_554 S
C46 O43 1.250 . S
C46 O44 1.248 . S
C47 O48 1.264 . S
C47 O55 1.249 . S
O48 C47 1.264 . S
O49 Mg42 1.986 . S
O49 C53 1.246 . S
O50 Mg45 2.032 . S
O50 C53 1.259 . S
O51 Mg42 2.114 1_556 S
O51 C54 1.252 . S
O52 Mg42 2.251 1_556 S
O52 Mg45 2.079 1_556 S
O52 C54 1.273 . S
C53 O49 1.246 . S
C53 O50 1.259 . S
C54 O51 1.252 . S
C54 O52 1.273 . S
O55 Mg42 2.010 . S
O55 C47 1.249 . S
Mg56 O57 2.028 . S
Mg56 O63 1.986 . S
Mg56 O65 2.114 . S
Mg56 O66 2.251 . S
Mg56 O69 2.010 1_455 S
O57 Mg56 2.028 . S
O57 C60 1.250 . S
O58 Mg59 2.028 . S
O58 C60 1.248 . S
Mg59 O58 2.028 . S
Mg59 O64 2.032 . S
Mg59 O66 2.079 . S
C60 O57 1.250 . S
C60 O58 1.248 . S
C61 O62 1.264 . S
C61 O69 1.249 . S
O62 C61 1.264 . S
O63 Mg56 1.986 . S
O63 C67 1.246 . S
O64 Mg59 2.032 . S
O64 C67 1.259 . S
O65 Mg56 2.114 . S
O65 C68 1.252 . S
O66 Mg56 2.251 . S
O66 Mg59 2.079 . S
O66 C68 1.273 . S
C67 O63 1.246 . S
C67 O64 1.259 . S
C68 O65 1.252 . S
C68 O66 1.273 . S
O69 Mg56 2.010 1_655 S
O69 C61 1.249 . S
Mg70 O71 2.028 . S
Mg70 O77 1.986 . S
Mg70 O79 2.114 . S
Mg70 O80 2.251 . S
Mg70 O83 2.010 . S
O71 Mg70 2.028 . S
O71 C74 1.250 . S
O72 Mg73 2.028 . S
O72 C74 1.248 . S
Mg73 O72 2.028 . S
Mg73 O78 2.032 . S
Mg73 O80 2.079 . S
C74 O71 1.250 . S
C74 O72 1.248 . S
C75 O76 1.264 . S
C75 O83 1.249 . S
O76 C75 1.264 . S
O77 Mg70 1.986 . S
O77 C81 1.246 . S
O78 Mg73 2.032 . S
O78 C81 1.259 . S
O79 Mg70 2.114 . S
O79 C82 1.252 . S
O80 Mg70 2.251 . S
O80 Mg73 2.079 . S
O80 C82 1.273 . S
C81 O77 1.246 . S
C81 O78 1.259 . S
C82 O79 1.252 . S
C82 O80 1.273 . S
O83 Mg70 2.010 . S
O83 C75 1.249 . S
Mg84 O85 2.028 . S
Mg84 O91 1.986 . S
Mg84 O93 2.114 . S
Mg84 O94 2.251 . S
Mg84 O97 2.010 . S
O85 Mg84 2.028 . S
O85 C88 1.250 . S
O86 Mg87 2.028 . S
O86 C88 1.248 . S
Mg87 O86 2.028 . S
Mg87 O92 2.032 . S
Mg87 O94 2.079 . S
C88 O85 1.250 . S
C88 O86 1.248 . S
C89 O90 1.264 . S
C89 O97 1.249 . S
O90 C89 1.264 . S
O91 Mg84 1.986 . S
O91 C95 1.246 . S
O92 Mg87 2.032 . S
O92 C95 1.259 . S
O93 Mg84 2.114 . S
O93 C96 1.252 . S
O94 Mg84 2.251 . S
O94 Mg87 2.079 . S
O94 C96 1.273 . S
C95 O91 1.246 . S
C95 O92 1.259 . S
C96 O93 1.252 . S
C96 O94 1.273 . S
O97 Mg84 2.010 . S
O97 C89 1.249 . S
Mg98 O99 2.028 . S
Mg98 O105 1.986 . S
Mg98 O107 2.114 1_556 S
Mg98 O108 2.251 1_556 S
Mg98 O111 2.010 . S
O99 Mg98 2.028 . S
O99 C102 1.250 . S
O100 Mg101 2.028 . S
O100 C102 1.248 . S
Mg101 O100 2.028 . S
Mg101 O106 2.032 . S
Mg101 O108 2.079 1_556 S
C102 O99 1.250 . S
C102 O100 1.248 . S
C103 O104 1.264 . S
C103 O111 1.249 . S
O104 C103 1.264 . S
O105 Mg98 1.986 . S
O105 C109 1.246 . S
O106 Mg101 2.032 . S
O106 C109 1.259 . S
O107 Mg98 2.114 1_554 S
O107 C110 1.252 . S
O108 Mg98 2.251 1_554 S
O108 Mg101 2.079 1_554 S
O108 C110 1.273 . S
C109 O105 1.246 . S
C109 O106 1.259 . S
C110 O107 1.252 . S
C110 O108 1.273 . S
O111 Mg98 2.010 . S
O111 C103 1.249 . S
Mg112 O113 2.028 . S
Mg112 O119 1.986 . S
Mg112 O121 2.114 . S
Mg112 O122 2.251 . S
Mg112 O125 2.010 1_655 S
O113 Mg112 2.028 . S
O113 C116 1.250 . S
O114 Mg115 2.028 . S
O114 C116 1.248 . S
Mg115 O114 2.028 . S
Mg115 O120 2.032 . S
Mg115 O122 2.079 . S
C116 O113 1.250 . S
C116 O114 1.248 . S
C117 O118 1.264 . S
C117 O125 1.249 . S
O118 C117 1.264 . S
O119 Mg112 1.986 . S
O119 C123 1.246 . S
O120 Mg115 2.032 . S
O120 C123 1.259 . S
O121 Mg112 2.114 . S
O121 C124 1.252 . S
O122 Mg112 2.251 . S
O122 Mg115 2.079 . S
O122 C124 1.273 . S
C123 O119 1.246 . S
C123 O120 1.259 . S
C124 O121 1.252 . S
C124 O122 1.273 . S
O125 Mg112 2.010 1_455 S
O125 C117 1.249 . S
Mg126 O127 2.028 . S
Mg126 O133 1.986 . S
Mg126 O135 2.114 . S
Mg126 O136 2.251 . S
Mg126 O139 2.010 . S
O127 Mg126 2.028 . S
O127 C130 1.250 . S
O128 Mg129 2.028 . S
O128 C130 1.248 . S
Mg129 O128 2.028 . S
Mg129 O134 2.032 . S
Mg129 O136 2.079 . S
C130 O127 1.250 . S
C130 O128 1.248 . S
C131 O132 1.264 . S
C131 O139 1.249 . S
O132 C131 1.264 . S
O133 Mg126 1.986 . S
O133 C137 1.246 . S
O134 Mg129 2.032 . S
O134 C137 1.259 . S
O135 Mg126 2.114 . S
O135 C138 1.252 . S
O136 Mg126 2.251 . S
O136 Mg129 2.079 . S
O136 C138 1.273 . S
C137 O133 1.246 . S
C137 O134 1.259 . S
C138 O135 1.252 . S
C138 O136 1.273 . S
O139 Mg126 2.010 . S
O139 C131 1.249 . S
Mg140 O141 2.028 . S
Mg140 O147 1.986 . S
Mg140 O149 2.114 . S
Mg140 O150 2.251 . S
Mg140 O153 2.010 . S
O141 Mg140 2.028 . S
O141 C144 1.250 . S
O142 Mg143 2.028 . S
O142 C144 1.248 . S
Mg143 O142 2.028 . S
Mg143 O148 2.032 . S
Mg143 O150 2.079 . S
C144 O141 1.250 . S
C144 O142 1.248 . S
C145 O146 1.264 . S
C145 O153 1.249 . S
O146 C145 1.264 . S
O147 Mg140 1.986 . S
O147 C151 1.246 . S
O148 Mg143 2.032 . S
O148 C151 1.259 . S
O149 Mg140 2.114 . S
O149 C152 1.252 . S
O150 Mg140 2.251 . S
O150 Mg143 2.079 . S
O150 C152 1.273 . S
C151 O147 1.246 . S
C151 O148 1.259 . S
C152 O149 1.252 . S
C152 O150 1.273 . S
O153 Mg140 2.010 . S
O153 C145 1.249 . S
Mg154 O155 2.028 . S
Mg154 O161 1.986 . S
Mg154 O163 2.114 1_556 S
Mg154 O164 2.251 1_556 S
Mg154 O167 2.010 . S
O155 Mg154 2.028 . S
O155 C158 1.250 . S
O156 Mg157 2.028 . S
O156 C158 1.248 . S
Mg157 O156 2.028 . S
Mg157 O162 2.032 . S
Mg157 O164 2.079 1_556 S
C158 O155 1.250 . S
C158 O156 1.248 . S
C159 O160 1.264 . S
C159 O167 1.249 . S
O160 C159 1.264 . S
O161 Mg154 1.986 . S
O161 C165 1.246 . S
O162 Mg157 2.032 . S
O162 C165 1.259 . S
O163 Mg154 2.114 1_554 S
O163 C166 1.252 . S
O164 Mg154 2.251 1_554 S
O164 Mg157 2.079 1_554 S
O164 C166 1.273 . S
C165 O161 1.246 . S
C165 O162 1.259 . S
C166 O163 1.252 . S
C166 O164 1.273 . S
O167 Mg154 2.010 . S
O167 C159 1.249 . S
Mg168 O169 2.028 . S
Mg168 O175 1.986 . S
Mg168 O177 2.114 . S
Mg168 O178 2.251 . S
Mg168 O181 2.010 1_655 S
O169 Mg168 2.028 . S
O169 C172 1.250 . S
O170 Mg171 2.028 . S
O170 C172 1.248 . S
Mg171 O170 2.028 . S
Mg171 O176 2.032 . S
Mg171 O178 2.079 . S
C172 O169 1.250 . S
C172 O170 1.248 . S
C173 O174 1.264 . S
C173 O181 1.249 . S
O174 C173 1.264 . S
O175 Mg168 1.986 . S
O175 C179 1.246 . S
O176 Mg171 2.032 . S
O176 C179 1.259 . S
O177 Mg168 2.114 . S
O177 C180 1.252 . S
O178 Mg168 2.251 . S
O178 Mg171 2.079 . S
O178 C180 1.273 . S
C179 O175 1.246 . S
C179 O176 1.259 . S
C180 O177 1.252 . S
C180 O178 1.273 . S
O181 Mg168 2.010 1_455 S
O181 C173 1.249 . S
Mg182 O183 2.028 . S
Mg182 O189 1.986 . S
Mg182 O191 2.114 . S
Mg182 O192 2.251 . S
Mg182 O195 2.010 . S
O183 Mg182 2.028 . S
O183 C186 1.250 . S
O184 Mg185 2.028 . S
O184 C186 1.248 . S
Mg185 O184 2.028 . S
Mg185 O190 2.032 . S
Mg185 O192 2.079 . S
C186 O183 1.250 . S
C186 O184 1.248 . S
C187 O188 1.264 . S
C187 O195 1.249 . S
O188 C187 1.264 . S
O189 Mg182 1.986 . S
O189 C193 1.246 . S
O190 Mg185 2.032 . S
O190 C193 1.259 . S
O191 Mg182 2.114 . S
O191 C194 1.252 . S
O192 Mg182 2.251 . S
O192 Mg185 2.079 . S
O192 C194 1.273 . S
C193 O189 1.246 . S
C193 O190 1.259 . S
C194 O191 1.252 . S
C194 O192 1.273 . S
O195 Mg182 2.010 . S
O195 C187 1.249 . S
Mg196 O197 2.028 . S
Mg196 O203 1.986 . S
Mg196 O205 2.114 . S
Mg196 O206 2.251 . S
Mg196 O209 2.010 . S
O197 Mg196 2.028 . S
O197 C200 1.250 . S
O198 Mg199 2.028 . S
O198 C200 1.248 . S
Mg199 O198 2.028 . S
Mg199 O204 2.032 . S
Mg199 O206 2.079 . S
C200 O197 1.250 . S
C200 O198 1.248 . S
C201 O202 1.264 . S
C201 O209 1.249 . S
O202 C201 1.264 . S
O203 Mg196 1.986 . S
O203 C207 1.246 . S
O204 Mg199 2.032 . S
O204 C207 1.259 . S
O205 Mg196 2.114 . S
O205 C208 1.252 . S
O206 Mg196 2.251 . S
O206 Mg199 2.079 . S
O206 C208 1.273 . S
C207 O203 1.246 . S
C207 O204 1.259 . S
C208 O205 1.252 . S
C208 O206 1.273 . S
O209 Mg196 2.010 . S
O209 C201 1.249 . S
Mg210 O211 2.028 . S
Mg210 O217 1.986 . S
Mg210 O219 2.114 1_554 S
Mg210 O220 2.251 1_554 S
Mg210 O223 2.010 . S
O211 Mg210 2.028 . S
O211 C214 1.250 . S
O212 Mg213 2.028 . S
O212 C214 1.248 . S
Mg213 O212 2.028 . S
Mg213 O218 2.032 . S
Mg213 O220 2.079 1_554 S
C214 O211 1.250 . S
C214 O212 1.248 . S
C215 O216 1.264 . S
C215 O223 1.249 . S
O216 C215 1.264 . S
O217 Mg210 1.986 . S
O217 C221 1.246 . S
O218 Mg213 2.032 . S
O218 C221 1.259 . S
O219 Mg210 2.114 1_556 S
O219 C222 1.252 . S
O220 Mg210 2.251 1_556 S
O220 Mg213 2.079 1_556 S
O220 C222 1.273 . S
C221 O217 1.246 . S
C221 O218 1.259 . S
C222 O219 1.252 . S
C222 O220 1.273 . S
O223 Mg210 2.010 . S
O223 C215 1.249 . S
Mg224 O225 2.028 . S
Mg224 O231 1.986 . S
Mg224 O233 2.114 . S
Mg224 O234 2.251 . S
Mg224 O237 2.010 . S
O225 Mg224 2.028 . S
O225 C228 1.250 . S
O226 Mg227 2.028 . S
O226 C228 1.248 . S
Mg227 O226 2.028 . S
Mg227 O232 2.032 . S
Mg227 O234 2.079 . S
C228 O225 1.250 . S
C228 O226 1.248 . S
C229 O230 1.264 . S
C229 O237 1.249 . S
O230 C229 1.264 . S
O231 Mg224 1.986 . S
O231 C235 1.246 . S
O232 Mg227 2.032 . S
O232 C235 1.259 . S
O233 Mg224 2.114 . S
O233 C236 1.252 . S
O234 Mg224 2.251 . S
O234 Mg227 2.079 . S
O234 C236 1.273 . S
C235 O231 1.246 . S
C235 O232 1.259 . S
C236 O233 1.252 . S
C236 O234 1.273 . S
O237 Mg224 2.010 . S
O237 C229 1.249 . S
Mg238 O239 2.028 . S
Mg238 O245 1.986 . S
Mg238 O247 2.114 1_554 S
Mg238 O248 2.251 1_554 S
Mg238 O251 2.010 . S
O239 Mg238 2.028 . S
O239 C242 1.250 . S
O240 Mg241 2.028 . S
O240 C242 1.248 . S
Mg241 O240 2.028 . S
Mg241 O246 2.032 . S
Mg241 O248 2.079 1_554 S
C242 O239 1.250 . S
C242 O240 1.248 . S
C243 O244 1.264 . S
C243 O251 1.249 . S
O244 C243 1.264 . S
O245 Mg238 1.986 . S
O245 C249 1.246 . S
O246 Mg241 2.032 . S
O246 C249 1.259 . S
O247 Mg238 2.114 1_556 S
O247 C250 1.252 . S
O248 Mg238 2.251 1_556 S
O248 Mg241 2.079 1_556 S
O248 C250 1.273 . S
C249 O245 1.246 . S
C249 O246 1.259 . S
C250 O247 1.252 . S
C250 O248 1.273 . S
O251 Mg238 2.010 . S
O251 C243 1.249 . S
Mg252 O253 2.028 . S
Mg252 O259 1.986 . S
Mg252 O261 2.114 . S
Mg252 O262 2.251 . S
Mg252 O265 2.010 1_655 S
O253 Mg252 2.028 . S
O253 C256 1.250 . S
O254 Mg255 2.028 . S
O254 C256 1.248 . S
Mg255 O254 2.028 . S
Mg255 O260 2.032 . S
Mg255 O262 2.079 . S
C256 O253 1.250 . S
C256 O254 1.248 . S
C257 O258 1.264 . S
C257 O265 1.249 . S
O258 C257 1.264 . S
O259 Mg252 1.986 . S
O259 C263 1.246 . S
O260 Mg255 2.032 . S
O260 C263 1.259 . S
O261 Mg252 2.114 . S
O261 C264 1.252 . S
O262 Mg252 2.251 . S
O262 Mg255 2.079 . S
O262 C264 1.273 . S
C263 O259 1.246 . S
C263 O260 1.259 . S
C264 O261 1.252 . S
C264 O262 1.273 . S
O265 Mg252 2.010 1_455 S
O265 C257 1.249 . S
Mg266 O267 2.028 . S
Mg266 O273 1.986 . S
Mg266 O275 2.114 . S
Mg266 O276 2.251 . S
Mg266 O279 2.010 . S
O267 Mg266 2.028 . S
O267 C270 1.250 . S
O268 Mg269 2.028 . S
O268 C270 1.248 . S
Mg269 O268 2.028 . S
Mg269 O274 2.032 . S
Mg269 O276 2.079 . S
C270 O267 1.250 . S
C270 O268 1.248 . S
C271 O272 1.264 . S
C271 O279 1.249 . S
O272 C271 1.264 . S
O273 Mg266 1.986 . S
O273 C277 1.246 . S
O274 Mg269 2.032 . S
O274 C277 1.259 . S
O275 Mg266 2.114 . S
O275 C278 1.252 . S
O276 Mg266 2.251 . S
O276 Mg269 2.079 . S
O276 C278 1.273 . S
C277 O273 1.246 . S
C277 O274 1.259 . S
C278 O275 1.252 . S
C278 O276 1.273 . S
O279 Mg266 2.010 . S
O279 C271 1.249 . S
Mg280 O281 2.028 . S
Mg280 O287 1.986 . S
Mg280 O289 2.114 . S
Mg280 O290 2.251 . S
Mg280 O293 2.010 . S
O281 Mg280 2.028 . S
O281 C284 1.250 . S
O282 Mg283 2.028 . S
O282 C284 1.248 . S
Mg283 O282 2.028 . S
Mg283 O288 2.032 . S
Mg283 O290 2.079 . S
C284 O281 1.250 . S
C284 O282 1.248 . S
C285 O286 1.264 . S
C285 O293 1.249 . S
O286 C285 1.264 . S
O287 Mg280 1.986 . S
O287 C291 1.246 . S
O288 Mg283 2.032 . S
O288 C291 1.259 . S
O289 Mg280 2.114 . S
O289 C292 1.252 . S
O290 Mg280 2.251 . S
O290 Mg283 2.079 . S
O290 C292 1.273 . S
C291 O287 1.246 . S
C291 O288 1.259 . S
C292 O289 1.252 . S
C292 O290 1.273 . S
O293 Mg280 2.010 . S
O293 C285 1.249 . S
Mg294 O295 2.028 . S
Mg294 O301 1.986 . S
Mg294 O303 2.114 1_556 S
Mg294 O304 2.251 1_556 S
Mg294 O307 2.010 . S
O295 Mg294 2.028 . S
O295 C298 1.250 . S
O296 Mg297 2.028 . S
O296 C298 1.248 . S
Mg297 O296 2.028 . S
Mg297 O302 2.032 . S
Mg297 O304 2.079 1_556 S
C298 O295 1.250 . S
C298 O296 1.248 . S
C299 O300 1.264 . S
C299 O307 1.249 . S
O300 C299 1.264 . S
O301 Mg294 1.986 . S
O301 C305 1.246 . S
O302 Mg297 2.032 . S
O302 C305 1.259 . S
O303 Mg294 2.114 1_554 S
O303 C306 1.252 . S
O304 Mg294 2.251 1_554 S
O304 Mg297 2.079 1_554 S
O304 C306 1.273 . S
C305 O301 1.246 . S
C305 O302 1.259 . S
C306 O303 1.252 . S
C306 O304 1.273 . S
O307 Mg294 2.010 . S
O307 C299 1.249 . S
Mg308 O309 2.028 . S
Mg308 O315 1.986 . S
Mg308 O317 2.114 . S
Mg308 O318 2.251 . S
Mg308 O321 2.010 1_655 S
O309 Mg308 2.028 . S
O309 C312 1.250 . S
O310 Mg311 2.028 . S
O310 C312 1.248 . S
Mg311 O310 2.028 . S
Mg311 O316 2.032 . S
Mg311 O318 2.079 . S
C312 O309 1.250 . S
C312 O310 1.248 . S
C313 O314 1.264 . S
C313 O321 1.249 . S
O314 C313 1.264 . S
O315 Mg308 1.986 . S
O315 C319 1.246 . S
O316 Mg311 2.032 . S
O316 C319 1.259 . S
O317 Mg308 2.114 . S
O317 C320 1.252 . S
O318 Mg308 2.251 . S
O318 Mg311 2.079 . S
O318 C320 1.273 . S
C319 O315 1.246 . S
C319 O316 1.259 . S
C320 O317 1.252 . S
C320 O318 1.273 . S
O321 Mg308 2.010 1_455 S
O321 C313 1.249 . S
Mg322 O323 2.028 . S
Mg322 O329 1.986 . S
Mg322 O331 2.114 . S
Mg322 O332 2.251 . S
Mg322 O335 2.010 . S
O323 Mg322 2.028 . S
O323 C326 1.250 . S
O324 Mg325 2.028 . S
O324 C326 1.248 . S
Mg325 O324 2.028 . S
Mg325 O330 2.032 . S
Mg325 O332 2.079 . S
C326 O323 1.250 . S
C326 O324 1.248 . S
C327 O328 1.264 . S
C327 O335 1.249 . S
O328 C327 1.264 . S
O329 Mg322 1.986 . S
O329 C333 1.246 . S
O330 Mg325 2.032 . S
O330 C333 1.259 . S
O331 Mg322 2.114 . S
O331 C334 1.252 . S
O332 Mg322 2.251 . S
O332 Mg325 2.079 . S
O332 C334 1.273 . S
C333 O329 1.246 . S
C333 O330 1.259 . S
C334 O331 1.252 . S
C334 O332 1.273 . S
O335 Mg322 2.010 . S
O335 C327 1.249 . S
Mg336 O337 2.028 . S
Mg336 O343 1.986 . S
Mg336 O345 2.114 . S
Mg336 O346 2.251 . S
Mg336 O349 2.010 . S
O337 Mg336 2.028 . S
O337 C340 1.250 . S
O338 Mg339 2.028 . S
O338 C340 1.248 . S
Mg339 O338 2.028 . S
Mg339 O344 2.032 . S
Mg339 O346 2.079 . S
C340 O337 1.250 . S
C340 O338 1.248 . S
C341 O342 1.264 . S
C341 O349 1.249 . S
O342 C341 1.264 . S
O343 Mg336 1.986 . S
O343 C347 1.246 . S
O344 Mg339 2.032 . S
O344 C347 1.259 . S
O345 Mg336 2.114 . S
O345 C348 1.252 . S
O346 Mg336 2.251 . S
O346 Mg339 2.079 . S
O346 C348 1.273 . S
C347 O343 1.246 . S
C347 O344 1.259 . S
C348 O345 1.252 . S
C348 O346 1.273 . S
O349 Mg336 2.010 . S
O349 C341 1.249 . S
Mg350 O351 2.028 . S
Mg350 O357 1.986 . S
Mg350 O359 2.114 1_556 S
Mg350 O360 2.251 1_556 S
Mg350 O363 2.010 . S
O351 Mg350 2.028 . S
O351 C354 1.250 . S
O352 Mg353 2.028 . S
O352 C354 1.248 . S
Mg353 O352 2.028 . S
Mg353 O358 2.032 . S
Mg353 O360 2.079 1_556 S
C354 O351 1.250 . S
C354 O352 1.248 . S
C355 O356 1.264 . S
C355 O363 1.249 . S
O356 C355 1.264 . S
O357 Mg350 1.986 . S
O357 C361 1.246 . S
O358 Mg353 2.032 . S
O358 C361 1.259 . S
O359 Mg350 2.114 1_554 S
O359 C362 1.252 . S
O360 Mg350 2.251 1_554 S
O360 Mg353 2.079 1_554 S
O360 C362 1.273 . S
C361 O357 1.246 . S
C361 O358 1.259 . S
C362 O359 1.252 . S
C362 O360 1.273 . S
O363 Mg350 2.010 . S
O363 C355 1.249 . S
Mg364 O365 2.028 . S
Mg364 O371 1.986 . S
Mg364 O373 2.114 . S
Mg364 O374 2.251 . S
Mg364 O377 2.010 1_455 S
O365 Mg364 2.028 . S
O365 C368 1.250 . S
O366 Mg367 2.028 . S
O366 C368 1.248 . S
Mg367 O366 2.028 . S
Mg367 O372 2.032 . S
Mg367 O374 2.079 . S
C368 O365 1.250 . S
C368 O366 1.248 . S
C369 O370 1.264 . S
C369 O377 1.249 . S
O370 C369 1.264 . S
O371 Mg364 1.986 . S
O371 C375 1.246 . S
O372 Mg367 2.032 . S
O372 C375 1.259 . S
O373 Mg364 2.114 . S
O373 C376 1.252 . S
O374 Mg364 2.251 . S
O374 Mg367 2.079 . S
O374 C376 1.273 . S
C375 O371 1.246 . S
C375 O372 1.259 . S
C376 O373 1.252 . S
C376 O374 1.273 . S
O377 Mg364 2.010 1_655 S
O377 C369 1.249 . S
Mg378 O379 2.028 . S
Mg378 O385 1.986 . S
Mg378 O387 2.114 . S
Mg378 O388 2.251 . S
Mg378 O391 2.010 . S
O379 Mg378 2.028 . S
O379 C382 1.250 . S
O380 Mg381 2.028 . S
O380 C382 1.248 . S
Mg381 O380 2.028 . S
Mg381 O386 2.032 . S
Mg381 O388 2.079 . S
C382 O379 1.250 . S
C382 O380 1.248 . S
C383 O384 1.264 . S
C383 O391 1.249 . S
O384 C383 1.264 . S
O385 Mg378 1.986 . S
O385 C389 1.246 . S
O386 Mg381 2.032 . S
O386 C389 1.259 . S
O387 Mg378 2.114 . S
O387 C390 1.252 . S
O388 Mg378 2.251 . S
O388 Mg381 2.079 . S
O388 C390 1.273 . S
C389 O385 1.246 . S
C389 O386 1.259 . S
C390 O387 1.252 . S
C390 O388 1.273 . S
O391 Mg378 2.010 . S
O391 C383 1.249 . S
Mg392 O393 2.028 . S
Mg392 O399 1.986 . S
Mg392 O401 2.114 . S
Mg392 O402 2.251 . S
Mg392 O405 2.010 . S
O393 Mg392 2.028 . S
O393 C396 1.250 . S
O394 Mg395 2.028 . S
O394 C396 1.248 . S
Mg395 O394 2.028 . S
Mg395 O400 2.032 . S
Mg395 O402 2.079 . S
C396 O393 1.250 . S
C396 O394 1.248 . S
C397 O398 1.264 . S
C397 O405 1.249 . S
O398 C397 1.264 . S
O399 Mg392 1.986 . S
O399 C403 1.246 . S
O400 Mg395 2.032 . S
O400 C403 1.259 . S
O401 Mg392 2.114 . S
O401 C404 1.252 . S
O402 Mg392 2.251 . S
O402 Mg395 2.079 . S
O402 C404 1.273 . S
C403 O399 1.246 . S
C403 O400 1.259 . S
C404 O401 1.252 . S
C404 O402 1.273 . S
O405 Mg392 2.010 . S
O405 C397 1.249 . S
Mg406 O407 2.028 . S
Mg406 O413 1.986 . S
Mg406 O415 2.114 1_554 S
Mg406 O416 2.251 1_554 S
Mg406 O419 2.010 . S
O407 Mg406 2.028 . S
O407 C410 1.250 . S
O408 Mg409 2.028 . S
O408 C410 1.248 . S
Mg409 O408 2.028 . S
Mg409 O414 2.032 . S
Mg409 O416 2.079 1_554 S
C410 O407 1.250 . S
C410 O408 1.248 . S
C411 O412 1.264 . S
C411 O419 1.249 . S
O412 C411 1.264 . S
O413 Mg406 1.986 . S
O413 C417 1.246 . S
O414 Mg409 2.032 . S
O414 C417 1.259 . S
O415 Mg406 2.114 1_556 S
O415 C418 1.252 . S
O416 Mg406 2.251 1_556 S
O416 Mg409 2.079 1_556 S
O416 C418 1.273 . S
C417 O413 1.246 . S
C417 O414 1.259 . S
C418 O415 1.252 . S
C418 O416 1.273 . S
O419 Mg406 2.010 . S
O419 C411 1.249 . S
Mg420 O421 2.028 . S
Mg420 O427 1.986 . S
Mg420 O429 2.114 . S
Mg420 O430 2.251 . S
Mg420 O433 2.010 1_455 S
O421 Mg420 2.028 . S
O421 C424 1.250 . S
O422 Mg423 2.028 . S
O422 C424 1.248 . S
Mg423 O422 2.028 . S
Mg423 O428 2.032 . S
Mg423 O430 2.079 . S
C424 O421 1.250 . S
C424 O422 1.248 . S
C425 O426 1.264 . S
C425 O433 1.249 . S
O426 C425 1.264 . S
O427 Mg420 1.986 . S
O427 C431 1.246 . S
O428 Mg423 2.032 . S
O428 C431 1.259 . S
O429 Mg420 2.114 . S
O429 C432 1.252 . S
O430 Mg420 2.251 . S
O430 Mg423 2.079 . S
O430 C432 1.273 . S
C431 O427 1.246 . S
C431 O428 1.259 . S
C432 O429 1.252 . S
C432 O430 1.273 . S
O433 Mg420 2.010 1_655 S
O433 C425 1.249 . S
Mg434 O435 2.028 . S
Mg434 O441 1.986 . S
Mg434 O443 2.114 . S
Mg434 O444 2.251 . S
Mg434 O447 2.010 . S
O435 Mg434 2.028 . S
O435 C438 1.250 . S
O436 Mg437 2.028 . S
O436 C438 1.248 . S
Mg437 O436 2.028 . S
Mg437 O442 2.032 . S
Mg437 O444 2.079 . S
C438 O435 1.250 . S
C438 O436 1.248 . S
C439 O440 1.264 . S
C439 O447 1.249 . S
O440 C439 1.264 . S
O441 Mg434 1.986 . S
O441 C445 1.246 . S
O442 Mg437 2.032 . S
O442 C445 1.259 . S
O443 Mg434 2.114 . S
O443 C446 1.252 . S
O444 Mg434 2.251 . S
O444 Mg437 2.079 . S
O444 C446 1.273 . S
C445 O441 1.246 . S
C445 O442 1.259 . S
C446 O443 1.252 . S
C446 O444 1.273 . S
O447 Mg434 2.010 . S
O447 C439 1.249 . S
H448 C456 0.929 . S
H449 C458 0.930 . S
H450 C460 0.930 . S
H451 C463 0.929 . S
H452 C466 0.930 . S
H453 C468 0.960 . S
H454 C468 0.960 . S
H455 C468 0.960 . S
C456 H448 0.929 . S
C456 C457 1.377 . S
C456 C458 1.384 . S
C457 C456 1.377 . S
C457 C463 1.390 . S
C458 H449 0.930 . S
C458 C456 1.384 . S
C458 C459 1.372 . S
C459 C458 1.372 . S
C459 C460 1.400 . S
C459 C464 1.490 . S
C460 H450 0.930 . S
C460 C459 1.400 . S
C460 C463 1.386 . S
H461 C477 0.930 . S
H462 C478 0.931 . S
C463 H451 0.929 . S
C463 C457 1.390 . S
C463 C460 1.386 . S
C464 C459 1.490 . S
C464 C466 1.395 . S
C464 C467 1.403 . S
H465 C471 0.930 . S
C466 H452 0.930 . S
C466 C464 1.395 . S
C466 C469 1.403 . S
C467 C464 1.403 . S
C467 C468 1.524 . S
C467 C471 1.400 . S
C468 H453 0.960 . S
C468 H454 0.960 . S
C468 H455 0.960 . S
C468 C467 1.524 . S
C469 C466 1.403 . S
C469 C470 1.392 . S
C469 C473 1.495 . S
C470 C469 1.392 . S
C470 C471 1.385 . S
C470 C472 1.478 . S
C471 H465 0.930 . S
C471 C467 1.400 . S
C471 C470 1.385 . S
C472 C470 1.478 . S
C472 C474 1.381 . S
C472 C478 1.383 . S
C473 C469 1.495 . S
C473 H479 0.959 . S
C473 H480 0.961 . S
C473 H481 0.960 . S
C474 C472 1.381 . S
C474 C475 1.394 . S
C474 H482 0.930 . S
C475 C474 1.394 . S
C475 C476 1.383 . S
C475 H483 0.929 . S
C476 C475 1.383 . S
C476 C477 1.377 . S
C477 H461 0.930 . S
C477 C476 1.377 . S
C477 C478 1.379 . S
C478 H462 0.931 . S
C478 C472 1.383 . S
C478 C477 1.379 . S
H479 C473 0.959 . S
H480 C473 0.961 . S
H481 C473 0.960 . S
H482 C474 0.930 . S
H483 C475 0.929 . S
H484 C492 0.929 . S
H485 C494 0.930 . S
H486 C496 0.930 . S
H487 C499 0.929 . S
H488 C502 0.930 . S
H489 C504 0.960 . S
H490 C504 0.960 . S
H491 C504 0.960 . S
C492 H484 0.929 . S
C492 C493 1.377 . S
C492 C494 1.384 . S
C493 C492 1.377 . S
C493 C499 1.390 . S
C494 H485 0.930 . S
C494 C492 1.384 . S
C494 C495 1.372 . S
C495 C494 1.372 . S
C495 C496 1.400 . S
C495 C500 1.490 . S
C496 H486 0.930 . S
C496 C495 1.400 . S
C496 C499 1.386 . S
H497 C513 0.930 . S
H498 C514 0.931 . S
C499 H487 0.929 . S
C499 C493 1.390 . S
C499 C496 1.386 . S
C500 C495 1.490 . S
C500 C502 1.395 . S
C500 C503 1.403 . S
H501 C507 0.930 . S
C502 H488 0.930 . S
C502 C500 1.395 . S
C502 C505 1.403 . S
C503 C500 1.403 . S
C503 C504 1.524 . S
C503 C507 1.400 . S
C504 H489 0.960 . S
C504 H490 0.960 . S
C504 H491 0.960 . S
C504 C503 1.524 . S
C505 C502 1.403 . S
C505 C506 1.392 . S
C505 C509 1.495 . S
C506 C505 1.392 . S
C506 C507 1.385 . S
C506 C508 1.478 . S
C507 H501 0.930 . S
C507 C503 1.400 . S
C507 C506 1.385 . S
C508 C506 1.478 . S
C508 C510 1.381 . S
C508 C514 1.383 . S
C509 C505 1.495 . S
C509 H515 0.959 . S
C509 H516 0.961 . S
C509 H517 0.960 . S
C510 C508 1.381 . S
C510 C511 1.394 . S
C510 H518 0.930 . S
C511 C510 1.394 . S
C511 C512 1.383 . S
C511 H519 0.929 . S
C512 C511 1.383 . S
C512 C513 1.377 . S
C513 H497 0.930 . S
C513 C512 1.377 . S
C513 C514 1.379 . S
C514 H498 0.931 . S
C514 C508 1.383 . S
C514 C513 1.379 . S
H515 C509 0.959 . S
H516 C509 0.961 . S
H517 C509 0.960 . S
H518 C510 0.930 . S
H519 C511 0.929 . S
H520 C528 0.929 . S
H521 C530 0.930 . S
H522 C532 0.930 . S
H523 C535 0.929 . S
H524 C538 0.930 . S
H525 C540 0.960 . S
H526 C540 0.960 . S
H527 C540 0.960 . S
C528 H520 0.929 . S
C528 C529 1.377 . S
C528 C530 1.384 . S
C529 C528 1.377 . S
C529 C535 1.390 . S
C530 H521 0.930 . S
C530 C528 1.384 . S
C530 C531 1.372 . S
C531 C530 1.372 . S
C531 C532 1.400 . S
C531 C536 1.490 . S
C532 H522 0.930 . S
C532 C531 1.400 . S
C532 C535 1.386 . S
H533 C549 0.930 . S
H534 C550 0.931 . S
C535 H523 0.929 . S
C535 C529 1.390 . S
C535 C532 1.386 . S
C536 C531 1.490 . S
C536 C538 1.395 . S
C536 C539 1.403 . S
H537 C543 0.930 . S
C538 H524 0.930 . S
C538 C536 1.395 . S
C538 C541 1.403 . S
C539 C536 1.403 . S
C539 C540 1.524 . S
C539 C543 1.400 . S
C540 H525 0.960 . S
C540 H526 0.960 . S
C540 H527 0.960 . S
C540 C539 1.524 . S
C541 C538 1.403 . S
C541 C542 1.392 . S
C541 C545 1.495 . S
C542 C541 1.392 . S
C542 C543 1.385 . S
C542 C544 1.478 . S
C543 H537 0.930 . S
C543 C539 1.400 . S
C543 C542 1.385 . S
C544 C542 1.478 . S
C544 C546 1.381 . S
C544 C550 1.383 . S
C545 C541 1.495 . S
C545 H551 0.959 . S
C545 H552 0.961 . S
C545 H553 0.960 . S
C546 C544 1.381 . S
C546 C547 1.394 . S
C546 H554 0.930 . S
C547 C546 1.394 . S
C547 C548 1.383 . S
C547 H555 0.929 . S
C548 C547 1.383 . S
C548 C549 1.377 . S
C549 H533 0.930 . S
C549 C548 1.377 . S
C549 C550 1.379 . S
C550 H534 0.931 . S
C550 C544 1.383 . S
C550 C549 1.379 . S
H551 C545 0.959 . S
H552 C545 0.961 . S
H553 C545 0.960 . S
H554 C546 0.930 . S
H555 C547 0.929 . S
H556 C564 0.929 . S
H557 C566 0.930 . S
H558 C568 0.930 . S
H559 C571 0.929 . S
H560 C574 0.930 . S
H561 C576 0.960 . S
H562 C576 0.960 . S
H563 C576 0.960 . S
C564 H556 0.929 . S
C564 C565 1.377 . S
C564 C566 1.384 . S
C565 C564 1.377 . S
C565 C571 1.390 . S
C566 H557 0.930 . S
C566 C564 1.384 . S
C566 C567 1.372 . S
C567 C566 1.372 . S
C567 C568 1.400 . S
C567 C572 1.490 . S
C568 H558 0.930 . S
C568 C567 1.400 . S
C568 C571 1.386 . S
H569 C585 0.930 . S
H570 C586 0.931 . S
C571 H559 0.929 . S
C571 C565 1.390 . S
C571 C568 1.386 . S
C572 C567 1.490 . S
C572 C574 1.395 . S
C572 C575 1.403 . S
H573 C579 0.930 . S
C574 H560 0.930 . S
C574 C572 1.395 . S
C574 C577 1.403 . S
C575 C572 1.403 . S
C575 C576 1.524 . S
C575 C579 1.400 . S
C576 H561 0.960 . S
C576 H562 0.960 . S
C576 H563 0.960 . S
C576 C575 1.524 . S
C577 C574 1.403 . S
C577 C578 1.392 . S
C577 C581 1.495 . S
C578 C577 1.392 . S
C578 C579 1.385 . S
C578 C580 1.478 . S
C579 H573 0.930 . S
C579 C575 1.400 . S
C579 C578 1.385 . S
C580 C578 1.478 . S
C580 C582 1.381 . S
C580 C586 1.383 . S
C581 C577 1.495 . S
C581 H587 0.959 . S
C581 H588 0.961 . S
C581 H589 0.960 . S
C582 C580 1.381 . S
C582 C583 1.394 . S
C582 H590 0.930 . S
C583 C582 1.394 . S
C583 C584 1.383 . S
C583 H591 0.929 . S
C584 C583 1.383 . S
C584 C585 1.377 . S
C585 H569 0.930 . S
C585 C584 1.377 . S
C585 C586 1.379 . S
C586 H570 0.931 . S
C586 C580 1.383 . S
C586 C585 1.379 . S
H587 C581 0.959 . S
H588 C581 0.961 . S
H589 C581 0.960 . S
H590 C582 0.930 . S
H591 C583 0.929 . S
H592 C600 0.929 . S
H593 C602 0.930 . S
H594 C604 0.930 . S
H595 C607 0.929 . S
H596 C610 0.930 . S
H597 C612 0.960 . S
H598 C612 0.960 . S
H599 C612 0.960 . S
C600 H592 0.929 . S
C600 C601 1.377 . S
C600 C602 1.384 . S
C601 C600 1.377 . S
C601 C607 1.390 . S
C602 H593 0.930 . S
C602 C600 1.384 . S
C602 C603 1.372 . S
C603 C602 1.372 . S
C603 C604 1.400 . S
C603 C608 1.490 . S
C604 H594 0.930 . S
C604 C603 1.400 . S
C604 C607 1.386 . S
H605 C621 0.930 . S
H606 C622 0.931 . S
C607 H595 0.929 . S
C607 C601 1.390 . S
C607 C604 1.386 . S
C608 C603 1.490 . S
C608 C610 1.395 . S
C608 C611 1.403 . S
H609 C615 0.930 . S
C610 H596 0.930 . S
C610 C608 1.395 . S
C610 C613 1.403 . S
C611 C608 1.403 . S
C611 C612 1.524 . S
C611 C615 1.400 . S
C612 H597 0.960 . S
C612 H598 0.960 . S
C612 H599 0.960 . S
C612 C611 1.524 . S
C613 C610 1.403 . S
C613 C614 1.392 . S
C613 C617 1.495 . S
C614 C613 1.392 . S
C614 C615 1.385 . S
C614 C616 1.478 . S
C615 H609 0.930 . S
C615 C611 1.400 . S
C615 C614 1.385 . S
C616 C614 1.478 . S
C616 C618 1.381 . S
C616 C622 1.383 . S
C617 C613 1.495 . S
C617 H623 0.959 . S
C617 H624 0.961 . S
C617 H625 0.960 . S
C618 C616 1.381 . S
C618 C619 1.394 . S
C618 H626 0.930 . S
C619 C618 1.394 . S
C619 C620 1.383 . S
C619 H627 0.929 . S
C620 C619 1.383 . S
C620 C621 1.377 . S
C621 H605 0.930 . S
C621 C620 1.377 . S
C621 C622 1.379 . S
C622 H606 0.931 . S
C622 C616 1.383 . S
C622 C621 1.379 . S
H623 C617 0.959 . S
H624 C617 0.961 . S
H625 C617 0.960 . S
H626 C618 0.930 . S
H627 C619 0.929 . S
H628 C636 0.929 . S
H629 C638 0.930 . S
H630 C640 0.930 . S
H631 C643 0.929 . S
H632 C646 0.930 . S
H633 C648 0.960 . S
H634 C648 0.960 . S
H635 C648 0.960 . S
C636 H628 0.929 . S
C636 C637 1.377 . S
C636 C638 1.384 . S
C637 C636 1.377 . S
C637 C643 1.390 . S
C638 H629 0.930 . S
C638 C636 1.384 . S
C638 C639 1.372 . S
C639 C638 1.372 . S
C639 C640 1.400 . S
C639 C644 1.490 . S
C640 H630 0.930 . S
C640 C639 1.400 . S
C640 C643 1.386 . S
H641 C657 0.930 . S
H642 C658 0.931 . S
C643 H631 0.929 . S
C643 C637 1.390 . S
C643 C640 1.386 . S
C644 C639 1.490 . S
C644 C646 1.395 . S
C644 C647 1.403 . S
H645 C651 0.930 . S
C646 H632 0.930 . S
C646 C644 1.395 . S
C646 C649 1.403 . S
C647 C644 1.403 . S
C647 C648 1.524 . S
C647 C651 1.400 . S
C648 H633 0.960 . S
C648 H634 0.960 . S
C648 H635 0.960 . S
C648 C647 1.524 . S
C649 C646 1.403 . S
C649 C650 1.392 . S
C649 C653 1.495 . S
C650 C649 1.392 . S
C650 C651 1.385 . S
C650 C652 1.478 . S
C651 H645 0.930 . S
C651 C647 1.400 . S
C651 C650 1.385 . S
C652 C650 1.478 . S
C652 C654 1.381 . S
C652 C658 1.383 . S
C653 C649 1.495 . S
C653 H659 0.959 . S
C653 H660 0.961 . S
C653 H661 0.960 . S
C654 C652 1.381 . S
C654 C655 1.394 . S
C654 H662 0.930 . S
C655 C654 1.394 . S
C655 C656 1.383 . S
C655 H663 0.929 . S
C656 C655 1.383 . S
C656 C657 1.377 . S
C657 H641 0.930 . S
C657 C656 1.377 . S
C657 C658 1.379 . S
C658 H642 0.931 . S
C658 C652 1.383 . S
C658 C657 1.379 . S
H659 C653 0.959 . S
H660 C653 0.961 . S
H661 C653 0.960 . S
H662 C654 0.930 . S
H663 C655 0.929 . S
H664 C672 0.929 . S
H665 C674 0.930 . S
H666 C676 0.930 . S
H667 C679 0.929 . S
H668 C682 0.930 . S
H669 C684 0.960 . S
H670 C684 0.960 . S
H671 C684 0.960 . S
C672 H664 0.929 . S
C672 C673 1.377 . S
C672 C674 1.384 . S
C673 C672 1.377 . S
C673 C679 1.390 . S
C674 H665 0.930 . S
C674 C672 1.384 . S
C674 C675 1.372 . S
C675 C674 1.372 . S
C675 C676 1.400 . S
C675 C680 1.490 . S
C676 H666 0.930 . S
C676 C675 1.400 . S
C676 C679 1.386 . S
H677 C693 0.930 . S
H678 C694 0.931 . S
C679 H667 0.929 . S
C679 C673 1.390 . S
C679 C676 1.386 . S
C680 C675 1.490 . S
C680 C682 1.395 . S
C680 C683 1.403 . S
H681 C687 0.930 . S
C682 H668 0.930 . S
C682 C680 1.395 . S
C682 C685 1.403 . S
C683 C680 1.403 . S
C683 C684 1.524 . S
C683 C687 1.400 . S
C684 H669 0.960 . S
C684 H670 0.960 . S
C684 H671 0.960 . S
C684 C683 1.524 . S
C685 C682 1.403 . S
C685 C686 1.392 . S
C685 C689 1.495 . S
C686 C685 1.392 . S
C686 C687 1.385 . S
C686 C688 1.478 . S
C687 H681 0.930 . S
C687 C683 1.400 . S
C687 C686 1.385 . S
C688 C686 1.478 . S
C688 C690 1.381 . S
C688 C694 1.383 . S
C689 C685 1.495 . S
C689 H695 0.959 . S
C689 H696 0.961 . S
C689 H697 0.960 . S
C690 C688 1.381 . S
C690 C691 1.394 . S
C690 H698 0.930 . S
C691 C690 1.394 . S
C691 C692 1.383 . S
C691 H699 0.929 . S
C692 C691 1.383 . S
C692 C693 1.377 . S
C693 H677 0.930 . S
C693 C692 1.377 . S
C693 C694 1.379 . S
C694 H678 0.931 . S
C694 C688 1.383 . S
C694 C693 1.379 . S
H695 C689 0.959 . S
H696 C689 0.961 . S
H697 C689 0.960 . S
H698 C690 0.930 . S
H699 C691 0.929 . S
H700 C708 0.929 . S
H701 C710 0.930 . S
H702 C712 0.930 . S
H703 C715 0.929 . S
H704 C718 0.930 . S
H705 C720 0.960 . S
H706 C720 0.960 . S
H707 C720 0.960 . S
C708 H700 0.929 . S
C708 C709 1.377 . S
C708 C710 1.384 . S
C709 C708 1.377 . S
C709 C715 1.390 . S
C710 H701 0.930 . S
C710 C708 1.384 . S
C710 C711 1.372 . S
C711 C710 1.372 . S
C711 C712 1.400 . S
C711 C716 1.490 . S
C712 H702 0.930 . S
C712 C711 1.400 . S
C712 C715 1.386 . S
H713 C729 0.930 . S
H714 C730 0.931 . S
C715 H703 0.929 . S
C715 C709 1.390 . S
C715 C712 1.386 . S
C716 C711 1.490 . S
C716 C718 1.395 . S
C716 C719 1.403 . S
H717 C723 0.930 . S
C718 H704 0.930 . S
C718 C716 1.395 . S
C718 C721 1.403 . S
C719 C716 1.403 . S
C719 C720 1.524 . S
C719 C723 1.400 . S
C720 H705 0.960 . S
C720 H706 0.960 . S
C720 H707 0.960 . S
C720 C719 1.524 . S
C721 C718 1.403 . S
C721 C722 1.392 . S
C721 C725 1.495 . S
C722 C721 1.392 . S
C722 C723 1.385 . S
C722 C724 1.478 . S
C723 H717 0.930 . S
C723 C719 1.400 . S
C723 C722 1.385 . S
C724 C722 1.478 . S
C724 C726 1.381 . S
C724 C730 1.383 . S
C725 C721 1.495 . S
C725 H731 0.959 . S
C725 H732 0.961 . S
C725 H733 0.960 . S
C726 C724 1.381 . S
C726 C727 1.394 . S
C726 H734 0.930 . S
C727 C726 1.394 . S
C727 C728 1.383 . S
C727 H735 0.929 . S
C728 C727 1.383 . S
C728 C729 1.377 . S
C729 H713 0.930 . S
C729 C728 1.377 . S
C729 C730 1.379 . S
C730 H714 0.931 . S
C730 C724 1.383 . S
C730 C729 1.379 . S
H731 C725 0.959 . S
H732 C725 0.961 . S
H733 C725 0.960 . S
H734 C726 0.930 . S
H735 C727 0.929 . S
H736 C744 0.929 . S
H737 C746 0.930 . S
H738 C748 0.930 . S
H739 C751 0.929 . S
H740 C754 0.930 . S
H741 C756 0.960 . S
H742 C756 0.960 . S
H743 C756 0.960 . S
C744 H736 0.929 . S
C744 C745 1.377 . S
C744 C746 1.384 . S
C745 C744 1.377 . S
C745 C751 1.390 . S
C746 H737 0.930 . S
C746 C744 1.384 . S
C746 C747 1.372 . S
C747 C746 1.372 . S
C747 C748 1.400 . S
C747 C752 1.490 . S
C748 H738 0.930 . S
C748 C747 1.400 . S
C748 C751 1.386 . S
H749 C765 0.930 . S
H750 C766 0.931 . S
C751 H739 0.929 . S
C751 C745 1.390 . S
C751 C748 1.386 . S
C752 C747 1.490 . S
C752 C754 1.395 . S
C752 C755 1.403 . S
H753 C759 0.930 . S
C754 H740 0.930 . S
C754 C752 1.395 . S
C754 C757 1.403 . S
C755 C752 1.403 . S
C755 C756 1.524 . S
C755 C759 1.400 . S
C756 H741 0.960 . S
C756 H742 0.960 . S
C756 H743 0.960 . S
C756 C755 1.524 . S
C757 C754 1.403 . S
C757 C758 1.392 . S
C757 C761 1.495 . S
C758 C757 1.392 . S
C758 C759 1.385 . S
C758 C760 1.478 . S
C759 H753 0.930 . S
C759 C755 1.400 . S
C759 C758 1.385 . S
C760 C758 1.478 . S
C760 C762 1.381 . S
C760 C766 1.383 . S
C761 C757 1.495 . S
C761 H767 0.959 . S
C761 H768 0.961 . S
C761 H769 0.960 . S
C762 C760 1.381 . S
C762 C763 1.394 . S
C762 H770 0.930 . S
C763 C762 1.394 . S
C763 C764 1.383 . S
C763 H771 0.929 . S
C764 C763 1.383 . S
C764 C765 1.377 . S
C765 H749 0.930 . S
C765 C764 1.377 . S
C765 C766 1.379 . S
C766 H750 0.931 . S
C766 C760 1.383 . S
C766 C765 1.379 . S
H767 C761 0.959 . S
H768 C761 0.961 . S
H769 C761 0.960 . S
H770 C762 0.930 . S
H771 C763 0.929 . S
H772 C780 0.929 . S
H773 C782 0.930 . S
H774 C784 0.930 . S
H775 C787 0.929 . S
H776 C790 0.930 . S
H777 C792 0.960 . S
H778 C792 0.960 . S
H779 C792 0.960 . S
C780 H772 0.929 . S
C780 C781 1.377 . S
C780 C782 1.384 . S
C781 C780 1.377 . S
C781 C787 1.390 . S
C782 H773 0.930 . S
C782 C780 1.384 . S
C782 C783 1.372 . S
C783 C782 1.372 . S
C783 C784 1.400 . S
C783 C788 1.490 . S
C784 H774 0.930 . S
C784 C783 1.400 . S
C784 C787 1.386 . S
H785 C801 0.930 . S
H786 C802 0.931 . S
C787 H775 0.929 . S
C787 C781 1.390 . S
C787 C784 1.386 . S
C788 C783 1.490 . S
C788 C790 1.395 . S
C788 C791 1.403 . S
H789 C795 0.930 . S
C790 H776 0.930 . S
C790 C788 1.395 . S
C790 C793 1.403 . S
C791 C788 1.403 . S
C791 C792 1.524 . S
C791 C795 1.400 . S
C792 H777 0.960 . S
C792 H778 0.960 . S
C792 H779 0.960 . S
C792 C791 1.524 . S
C793 C790 1.403 . S
C793 C794 1.392 . S
C793 C797 1.495 . S
C794 C793 1.392 . S
C794 C795 1.385 . S
C794 C796 1.478 . S
C795 H789 0.930 . S
C795 C791 1.400 . S
C795 C794 1.385 . S
C796 C794 1.478 . S
C796 C798 1.381 . S
C796 C802 1.383 . S
C797 C793 1.495 . S
C797 H803 0.959 . S
C797 H804 0.961 . S
C797 H805 0.960 . S
C798 C796 1.381 . S
C798 C799 1.394 . S
C798 H806 0.930 . S
C799 C798 1.394 . S
C799 C800 1.383 . S
C799 H807 0.929 . S
C800 C799 1.383 . S
C800 C801 1.377 . S
C801 H785 0.930 . S
C801 C800 1.377 . S
C801 C802 1.379 . S
C802 H786 0.931 . S
C802 C796 1.383 . S
C802 C801 1.379 . S
H803 C797 0.959 . S
H804 C797 0.961 . S
H805 C797 0.960 . S
H806 C798 0.930 . S
H807 C799 0.929 . S
H808 C816 0.929 . S
H809 C818 0.930 . S
H810 C820 0.930 . S
H811 C823 0.929 . S
H812 C826 0.930 . S
H813 C828 0.960 . S
H814 C828 0.960 . S
H815 C828 0.960 . S
C816 H808 0.929 . S
C816 C817 1.377 . S
C816 C818 1.384 . S
C817 C816 1.377 . S
C817 C823 1.390 . S
C818 H809 0.930 . S
C818 C816 1.384 . S
C818 C819 1.372 . S
C819 C818 1.372 . S
C819 C820 1.400 . S
C819 C824 1.490 . S
C820 H810 0.930 . S
C820 C819 1.400 . S
C820 C823 1.386 . S
H821 C837 0.930 . S
H822 C838 0.931 . S
C823 H811 0.929 . S
C823 C817 1.390 . S
C823 C820 1.386 . S
C824 C819 1.490 . S
C824 C826 1.395 . S
C824 C827 1.403 . S
H825 C831 0.930 . S
C826 H812 0.930 . S
C826 C824 1.395 . S
C826 C829 1.403 . S
C827 C824 1.403 . S
C827 C828 1.524 . S
C827 C831 1.400 . S
C828 H813 0.960 . S
C828 H814 0.960 . S
C828 H815 0.960 . S
C828 C827 1.524 . S
C829 C826 1.403 . S
C829 C830 1.392 . S
C829 C833 1.495 . S
C830 C829 1.392 . S
C830 C831 1.385 . S
C830 C832 1.478 . S
C831 H825 0.930 . S
C831 C827 1.400 . S
C831 C830 1.385 . S
C832 C830 1.478 . S
C832 C834 1.381 . S
C832 C838 1.383 . S
C833 C829 1.495 . S
C833 H839 0.959 . S
C833 H840 0.961 . S
C833 H841 0.960 . S
C834 C832 1.381 . S
C834 C835 1.394 . S
C834 H842 0.930 . S
C835 C834 1.394 . S
C835 C836 1.383 . S
C835 H843 0.929 . S
C836 C835 1.383 . S
C836 C837 1.377 . S
C837 H821 0.930 . S
C837 C836 1.377 . S
C837 C838 1.379 . S
C838 H822 0.931 . S
C838 C832 1.383 . S
C838 C837 1.379 . S
H839 C833 0.959 . S
H840 C833 0.961 . S
H841 C833 0.960 . S
H842 C834 0.930 . S
H843 C835 0.929 . S
H844 C852 0.929 . S
H845 C854 0.930 . S
H846 C856 0.930 . S
H847 C859 0.929 . S
H848 C862 0.930 . S
H849 C864 0.960 . S
H850 C864 0.960 . S
H851 C864 0.960 . S
C852 H844 0.929 . S
C852 C853 1.377 . S
C852 C854 1.384 . S
C853 C852 1.377 . S
C853 C859 1.390 . S
C854 H845 0.930 . S
C854 C852 1.384 . S
C854 C855 1.372 . S
C855 C854 1.372 . S
C855 C856 1.400 . S
C855 C860 1.490 . S
C856 H846 0.930 . S
C856 C855 1.400 . S
C856 C859 1.386 . S
H857 C873 0.930 . S
H858 C874 0.931 . S
C859 H847 0.929 . S
C859 C853 1.390 . S
C859 C856 1.386 . S
C860 C855 1.490 . S
C860 C862 1.395 . S
C860 C863 1.403 . S
H861 C867 0.930 . S
C862 H848 0.930 . S
C862 C860 1.395 . S
C862 C865 1.403 . S
C863 C860 1.403 . S
C863 C864 1.524 . S
C863 C867 1.400 . S
C864 H849 0.960 . S
C864 H850 0.960 . S
C864 H851 0.960 . S
C864 C863 1.524 . S
C865 C862 1.403 . S
C865 C866 1.392 . S
C865 C869 1.495 . S
C866 C865 1.392 . S
C866 C867 1.385 . S
C866 C868 1.478 . S
C867 H861 0.930 . S
C867 C863 1.400 . S
C867 C866 1.385 . S
C868 C866 1.478 . S
C868 C870 1.381 . S
C868 C874 1.383 . S
C869 C865 1.495 . S
C869 H875 0.959 . S
C869 H876 0.961 . S
C869 H877 0.960 . S
C870 C868 1.381 . S
C870 C871 1.394 . S
C870 H878 0.930 . S
C871 C870 1.394 . S
C871 C872 1.383 . S
C871 H879 0.929 . S
C872 C871 1.383 . S
C872 C873 1.377 . S
C873 H857 0.930 . S
C873 C872 1.377 . S
C873 C874 1.379 . S
C874 H858 0.931 . S
C874 C868 1.383 . S
C874 C873 1.379 . S
H875 C869 0.959 . S
H876 C869 0.961 . S
H877 C869 0.960 . S
H878 C870 0.930 . S
H879 C871 0.929 . S
H880 C888 0.929 . S
H881 C890 0.930 . S
H882 C892 0.930 . S
H883 C895 0.929 . S
H884 C898 0.930 . S
H885 C900 0.960 . S
H886 C900 0.960 . S
H887 C900 0.960 . S
C888 H880 0.929 . S
C888 C889 1.377 . S
C888 C890 1.384 . S
C889 C888 1.377 . S
C889 C895 1.390 . S
C890 H881 0.930 . S
C890 C888 1.384 . S
C890 C891 1.372 . S
C891 C890 1.372 . S
C891 C892 1.400 . S
C891 C896 1.490 . S
C892 H882 0.930 . S
C892 C891 1.400 . S
C892 C895 1.386 . S
H893 C909 0.930 . S
H894 C910 0.931 . S
C895 H883 0.929 . S
C895 C889 1.390 . S
C895 C892 1.386 . S
C896 C891 1.490 . S
C896 C898 1.395 . S
C896 C899 1.403 . S
H897 C903 0.930 . S
C898 H884 0.930 . S
C898 C896 1.395 . S
C898 C901 1.403 . S
C899 C896 1.403 . S
C899 C900 1.524 . S
C899 C903 1.400 . S
C900 H885 0.960 . S
C900 H886 0.960 . S
C900 H887 0.960 . S
C900 C899 1.524 . S
C901 C898 1.403 . S
C901 C902 1.392 . S
C901 C905 1.495 . S
C902 C901 1.392 . S
C902 C903 1.385 . S
C902 C904 1.478 . S
C903 H897 0.930 . S
C903 C899 1.400 . S
C903 C902 1.385 . S
C904 C902 1.478 . S
C904 C906 1.381 . S
C904 C910 1.383 . S
C905 C901 1.495 . S
C905 H911 0.959 . S
C905 H912 0.961 . S
C905 H913 0.960 . S
C906 C904 1.381 . S
C906 C907 1.394 . S
C906 H914 0.930 . S
C907 C906 1.394 . S
C907 C908 1.383 . S
C907 H915 0.929 . S
C908 C907 1.383 . S
C908 C909 1.377 . S
C909 H893 0.930 . S
C909 C908 1.377 . S
C909 C910 1.379 . S
C910 H894 0.931 . S
C910 C904 1.383 . S
C910 C909 1.379 . S
H911 C905 0.959 . S
H912 C905 0.961 . S
H913 C905 0.960 . S
H914 C906 0.930 . S
H915 C907 0.929 . S
H916 C924 0.929 . S
H917 C926 0.930 . S
H918 C928 0.930 . S
H919 C931 0.929 . S
H920 C934 0.930 . S
H921 C936 0.960 . S
H922 C936 0.960 . S
H923 C936 0.960 . S
C924 H916 0.929 . S
C924 C925 1.377 . S
C924 C926 1.384 . S
C925 C924 1.377 . S
C925 C931 1.390 . S
C926 H917 0.930 . S
C926 C924 1.384 . S
C926 C927 1.372 . S
C927 C926 1.372 . S
C927 C928 1.400 . S
C927 C932 1.490 . S
C928 H918 0.930 . S
C928 C927 1.400 . S
C928 C931 1.386 . S
H929 C945 0.930 . S
H930 C946 0.931 . S
C931 H919 0.929 . S
C931 C925 1.390 . S
C931 C928 1.386 . S
C932 C927 1.490 . S
C932 C934 1.395 . S
C932 C935 1.403 . S
H933 C939 0.930 . S
C934 H920 0.930 . S
C934 C932 1.395 . S
C934 C937 1.403 . S
C935 C932 1.403 . S
C935 C936 1.524 . S
C935 C939 1.400 . S
C936 H921 0.960 . S
C936 H922 0.960 . S
C936 H923 0.960 . S
C936 C935 1.524 . S
C937 C934 1.403 . S
C937 C938 1.392 . S
C937 C941 1.495 . S
C938 C937 1.392 . S
C938 C939 1.385 . S
C938 C940 1.478 . S
C939 H933 0.930 . S
C939 C935 1.400 . S
C939 C938 1.385 . S
C940 C938 1.478 . S
C940 C942 1.381 . S
C940 C946 1.383 . S
C941 C937 1.495 . S
C941 H947 0.959 . S
C941 H948 0.961 . S
C941 H949 0.960 . S
C942 C940 1.381 . S
C942 C943 1.394 . S
C942 H950 0.930 . S
C943 C942 1.394 . S
C943 C944 1.383 . S
C943 H951 0.929 . S
C944 C943 1.383 . S
C944 C945 1.377 . S
C945 H929 0.930 . S
C945 C944 1.377 . S
C945 C946 1.379 . S
C946 H930 0.931 . S
C946 C940 1.383 . S
C946 C945 1.379 . S
H947 C941 0.959 . S
H948 C941 0.961 . S
H949 C941 0.960 . S
H950 C942 0.930 . S
H951 C943 0.929 . S
H952 C960 0.929 . S
H953 C962 0.930 . S
H954 C964 0.930 . S
H955 C967 0.929 . S
H956 C970 0.930 . S
H957 C972 0.960 . S
H958 C972 0.960 . S
H959 C972 0.960 . S
C960 H952 0.929 . S
C960 C961 1.377 . S
C960 C962 1.384 . S
C961 C960 1.377 . S
C961 C967 1.390 . S
C962 H953 0.930 . S
C962 C960 1.384 . S
C962 C963 1.372 . S
C963 C962 1.372 . S
C963 C964 1.400 . S
C963 C968 1.490 . S
C964 H954 0.930 . S
C964 C963 1.400 . S
C964 C967 1.386 . S
H965 C981 0.930 . S
H966 C982 0.931 . S
C967 H955 0.929 . S
C967 C961 1.390 . S
C967 C964 1.386 . S
C968 C963 1.490 . S
C968 C970 1.395 . S
C968 C971 1.403 . S
H969 C975 0.930 . S
C970 H956 0.930 . S
C970 C968 1.395 . S
C970 C973 1.403 . S
C971 C968 1.403 . S
C971 C972 1.524 . S
C971 C975 1.400 . S
C972 H957 0.960 . S
C972 H958 0.960 . S
C972 H959 0.960 . S
C972 C971 1.524 . S
C973 C970 1.403 . S
C973 C974 1.392 . S
C973 C977 1.495 . S
C974 C973 1.392 . S
C974 C975 1.385 . S
C974 C976 1.478 . S
C975 H969 0.930 . S
C975 C971 1.400 . S
C975 C974 1.385 . S
C976 C974 1.478 . S
C976 C978 1.381 . S
C976 C982 1.383 . S
C977 C973 1.495 . S
C977 H983 0.959 . S
C977 H984 0.961 . S
C977 H985 0.960 . S
C978 C976 1.381 . S
C978 C979 1.394 . S
C978 H986 0.930 . S
C979 C978 1.394 . S
C979 C980 1.383 . S
C979 H987 0.929 . S
C980 C979 1.383 . S
C980 C981 1.377 . S
C981 H965 0.930 . S
C981 C980 1.377 . S
C981 C982 1.379 . S
C982 H966 0.931 . S
C982 C976 1.383 . S
C982 C981 1.379 . S
H983 C977 0.959 . S
H984 C977 0.961 . S
H985 C977 0.960 . S
H986 C978 0.930 . S
H987 C979 0.929 . S
H988 C996 0.929 . S
H989 C998 0.930 . S
H990 C1000 0.930 . S
H991 C1003 0.929 . S
H992 C1006 0.930 . S
H993 C1008 0.960 . S
H994 C1008 0.960 . S
H995 C1008 0.960 . S
C996 H988 0.929 . S
C996 C997 1.377 . S
C996 C998 1.384 . S
C997 C996 1.377 . S
C997 C1003 1.390 . S
C998 H989 0.930 . S
C998 C996 1.384 . S
C998 C999 1.372 . S
C999 C998 1.372 . S
C999 C1000 1.400 . S
C999 C1004 1.490 . S
C1000 H990 0.930 . S
C1000 C999 1.400 . S
C1000 C1003 1.386 . S
H1001 C1017 0.930 . S
H1002 C1018 0.931 . S
C1003 H991 0.929 . S
C1003 C997 1.390 . S
C1003 C1000 1.386 . S
C1004 C999 1.490 . S
C1004 C1006 1.395 . S
C1004 C1007 1.403 . S
H1005 C1011 0.930 . S
C1006 H992 0.930 . S
C1006 C1004 1.395 . S
C1006 C1009 1.403 . S
C1007 C1004 1.403 . S
C1007 C1008 1.524 . S
C1007 C1011 1.400 . S
C1008 H993 0.960 . S
C1008 H994 0.960 . S
C1008 H995 0.960 . S
C1008 C1007 1.524 . S
C1009 C1006 1.403 . S
C1009 C1010 1.392 . S
C1009 C1013 1.495 . S
C1010 C1009 1.392 . S
C1010 C1011 1.385 . S
C1010 C1012 1.478 . S
C1011 H1005 0.930 . S
C1011 C1007 1.400 . S
C1011 C1010 1.385 . S
C1012 C1010 1.478 . S
C1012 C1014 1.381 . S
C1012 C1018 1.383 . S
C1013 C1009 1.495 . S
C1013 H1019 0.959 . S
C1013 H1020 0.961 . S
C1013 H1021 0.960 . S
C1014 C1012 1.381 . S
C1014 C1015 1.394 . S
C1014 H1022 0.930 . S
C1015 C1014 1.394 . S
C1015 C1016 1.383 . S
C1015 H1023 0.929 . S
C1016 C1015 1.383 . S
C1016 C1017 1.377 . S
C1017 H1001 0.930 . S
C1017 C1016 1.377 . S
C1017 C1018 1.379 . S
C1018 H1002 0.931 . S
C1018 C1012 1.383 . S
C1018 C1017 1.379 . S
H1019 C1013 0.959 . S
H1020 C1013 0.961 . S
H1021 C1013 0.960 . S
H1022 C1014 0.930 . S
H1023 C1015 0.929 . S
H1024 C1032 0.929 . S
H1025 C1034 0.930 . S
H1026 C1036 0.930 . S
H1027 C1039 0.929 . S
H1028 C1042 0.930 . S
H1029 C1044 0.960 . S
H1030 C1044 0.960 . S
H1031 C1044 0.960 . S
C1032 H1024 0.929 . S
C1032 C1033 1.377 . S
C1032 C1034 1.384 . S
C1033 C1032 1.377 . S
C1033 C1039 1.390 . S
C1034 H1025 0.930 . S
C1034 C1032 1.384 . S
C1034 C1035 1.372 . S
C1035 C1034 1.372 . S
C1035 C1036 1.400 . S
C1035 C1040 1.490 . S
C1036 H1026 0.930 . S
C1036 C1035 1.400 . S
C1036 C1039 1.386 . S
H1037 C1053 0.930 . S
H1038 C1054 0.931 . S
C1039 H1027 0.929 . S
C1039 C1033 1.390 . S
C1039 C1036 1.386 . S
C1040 C1035 1.490 . S
C1040 C1042 1.395 . S
C1040 C1043 1.403 . S
H1041 C1047 0.930 . S
C1042 H1028 0.930 . S
C1042 C1040 1.395 . S
C1042 C1045 1.403 . S
C1043 C1040 1.403 . S
C1043 C1044 1.524 . S
C1043 C1047 1.400 . S
C1044 H1029 0.960 . S
C1044 H1030 0.960 . S
C1044 H1031 0.960 . S
C1044 C1043 1.524 . S
C1045 C1042 1.403 . S
C1045 C1046 1.392 . S
C1045 C1049 1.495 . S
C1046 C1045 1.392 . S
C1046 C1047 1.385 . S
C1046 C1048 1.478 . S
C1047 H1041 0.930 . S
C1047 C1043 1.400 . S
C1047 C1046 1.385 . S
C1048 C1046 1.478 . S
C1048 C1050 1.381 . S
C1048 C1054 1.383 . S
C1049 C1045 1.495 . S
C1049 H1055 0.959 . S
C1049 H1056 0.961 . S
C1049 H1057 0.960 . S
C1050 C1048 1.381 . S
C1050 C1051 1.394 . S
C1050 H1058 0.930 . S
C1051 C1050 1.394 . S
C1051 C1052 1.383 . S
C1051 H1059 0.929 . S
C1052 C1051 1.383 . S
C1052 C1053 1.377 . S
C1053 H1037 0.930 . S
C1053 C1052 1.377 . S
C1053 C1054 1.379 . S
C1054 H1038 0.931 . S
C1054 C1048 1.383 . S
C1054 C1053 1.379 . S
H1055 C1049 0.959 . S
H1056 C1049 0.961 . S
H1057 C1049 0.960 . S
H1058 C1050 0.930 . S
H1059 C1051 0.929 . S
H1060 C1068 0.929 . S
H1061 C1070 0.930 . S
H1062 C1072 0.930 . S
H1063 C1075 0.929 . S
H1064 C1078 0.930 . S
H1065 C1080 0.960 . S
H1066 C1080 0.960 . S
H1067 C1080 0.960 . S
C1068 H1060 0.929 . S
C1068 C1069 1.377 . S
C1068 C1070 1.384 . S
C1069 C1068 1.377 . S
C1069 C1075 1.390 . S
C1070 H1061 0.930 . S
C1070 C1068 1.384 . S
C1070 C1071 1.372 . S
C1071 C1070 1.372 . S
C1071 C1072 1.400 . S
C1071 C1076 1.490 . S
C1072 H1062 0.930 . S
C1072 C1071 1.400 . S
C1072 C1075 1.386 . S
H1073 C1089 0.930 . S
H1074 C1090 0.931 . S
C1075 H1063 0.929 . S
C1075 C1069 1.390 . S
C1075 C1072 1.386 . S
C1076 C1071 1.490 . S
C1076 C1078 1.395 . S
C1076 C1079 1.403 . S
H1077 C1083 0.930 . S
C1078 H1064 0.930 . S
C1078 C1076 1.395 . S
C1078 C1081 1.403 . S
C1079 C1076 1.403 . S
C1079 C1080 1.524 . S
C1079 C1083 1.400 . S
C1080 H1065 0.960 . S
C1080 H1066 0.960 . S
C1080 H1067 0.960 . S
C1080 C1079 1.524 . S
C1081 C1078 1.403 . S
C1081 C1082 1.392 . S
C1081 C1085 1.495 . S
C1082 C1081 1.392 . S
C1082 C1083 1.385 . S
C1082 C1084 1.478 . S
C1083 H1077 0.930 . S
C1083 C1079 1.400 . S
C1083 C1082 1.385 . S
C1084 C1082 1.478 . S
C1084 C1086 1.381 . S
C1084 C1090 1.383 . S
C1085 C1081 1.495 . S
C1085 H1091 0.959 . S
C1085 H1092 0.961 . S
C1085 H1093 0.960 . S
C1086 C1084 1.381 . S
C1086 C1087 1.394 . S
C1086 H1094 0.930 . S
C1087 C1086 1.394 . S
C1087 C1088 1.383 . S
C1087 H1095 0.929 . S
C1088 C1087 1.383 . S
C1088 C1089 1.377 . S
C1089 H1073 0.930 . S
C1089 C1088 1.377 . S
C1089 C1090 1.379 . S
C1090 H1074 0.931 . S
C1090 C1084 1.383 . S
C1090 C1089 1.379 . S
H1091 C1085 0.959 . S
H1092 C1085 0.961 . S
H1093 C1085 0.960 . S
H1094 C1086 0.930 . S
H1095 C1087 0.929 . S
H1096 C1104 0.929 . S
H1097 C1106 0.930 . S
H1098 C1108 0.930 . S
H1099 C1111 0.929 . S
H1100 C1114 0.930 . S
H1101 C1116 0.960 . S
H1102 C1116 0.960 . S
H1103 C1116 0.960 . S
C1104 H1096 0.929 . S
C1104 C1105 1.377 . S
C1104 C1106 1.384 . S
C1105 C1104 1.377 . S
C1105 C1111 1.390 . S
C1106 H1097 0.930 . S
C1106 C1104 1.384 . S
C1106 C1107 1.372 . S
C1107 C1106 1.372 . S
C1107 C1108 1.400 . S
C1107 C1112 1.490 . S
C1108 H1098 0.930 . S
C1108 C1107 1.400 . S
C1108 C1111 1.386 . S
H1109 C1125 0.930 . S
H1110 C1126 0.931 . S
C1111 H1099 0.929 . S
C1111 C1105 1.390 . S
C1111 C1108 1.386 . S
C1112 C1107 1.490 . S
C1112 C1114 1.395 . S
C1112 C1115 1.403 . S
H1113 C1119 0.930 . S
C1114 H1100 0.930 . S
C1114 C1112 1.395 . S
C1114 C1117 1.403 . S
C1115 C1112 1.403 . S
C1115 C1116 1.524 . S
C1115 C1119 1.400 . S
C1116 H1101 0.960 . S
C1116 H1102 0.960 . S
C1116 H1103 0.960 . S
C1116 C1115 1.524 . S
C1117 C1114 1.403 . S
C1117 C1118 1.392 . S
C1117 C1121 1.495 . S
C1118 C1117 1.392 . S
C1118 C1119 1.385 . S
C1118 C1120 1.478 . S
C1119 H1113 0.930 . S
C1119 C1115 1.400 . S
C1119 C1118 1.385 . S
C1120 C1118 1.478 . S
C1120 C1122 1.381 . S
C1120 C1126 1.383 . S
C1121 C1117 1.495 . S
C1121 H1127 0.959 . S
C1121 H1128 0.961 . S
C1121 H1129 0.960 . S
C1122 C1120 1.381 . S
C1122 C1123 1.394 . S
C1122 H1130 0.930 . S
C1123 C1122 1.394 . S
C1123 C1124 1.383 . S
C1123 H1131 0.929 . S
C1124 C1123 1.383 . S
C1124 C1125 1.377 . S
C1125 H1109 0.930 . S
C1125 C1124 1.377 . S
C1125 C1126 1.379 . S
C1126 H1110 0.931 . S
C1126 C1120 1.383 . S
C1126 C1125 1.379 . S
H1127 C1121 0.959 . S
H1128 C1121 0.961 . S
H1129 C1121 0.960 . S
H1130 C1122 0.930 . S
H1131 C1123 0.929 . S
H1132 C1140 0.929 . S
H1133 C1142 0.930 . S
H1134 C1144 0.930 . S
H1135 C1147 0.929 . S
H1136 C1150 0.930 . S
H1137 C1152 0.960 . S
H1138 C1152 0.960 . S
H1139 C1152 0.960 . S
C1140 H1132 0.929 . S
C1140 C1141 1.377 . S
C1140 C1142 1.384 . S
C1141 C1140 1.377 . S
C1141 C1147 1.390 . S
C1142 H1133 0.930 . S
C1142 C1140 1.384 . S
C1142 C1143 1.372 . S
C1143 C1142 1.372 . S
C1143 C1144 1.400 . S
C1143 C1148 1.490 . S
C1144 H1134 0.930 . S
C1144 C1143 1.400 . S
C1144 C1147 1.386 . S
H1145 C1161 0.930 . S
H1146 C1162 0.931 . S
C1147 H1135 0.929 . S
C1147 C1141 1.390 . S
C1147 C1144 1.386 . S
C1148 C1143 1.490 . S
C1148 C1150 1.395 . S
C1148 C1151 1.403 . S
H1149 C1155 0.930 . S
C1150 H1136 0.930 . S
C1150 C1148 1.395 . S
C1150 C1153 1.403 . S
C1151 C1148 1.403 . S
C1151 C1152 1.524 . S
C1151 C1155 1.400 . S
C1152 H1137 0.960 . S
C1152 H1138 0.960 . S
C1152 H1139 0.960 . S
C1152 C1151 1.524 . S
C1153 C1150 1.403 . S
C1153 C1154 1.392 . S
C1153 C1157 1.495 . S
C1154 C1153 1.392 . S
C1154 C1155 1.385 . S
C1154 C1156 1.478 . S
C1155 H1149 0.930 . S
C1155 C1151 1.400 . S
C1155 C1154 1.385 . S
C1156 C1154 1.478 . S
C1156 C1158 1.381 . S
C1156 C1162 1.383 . S
C1157 C1153 1.495 . S
C1157 H1163 0.959 . S
C1157 H1164 0.961 . S
C1157 H1165 0.960 . S
C1158 C1156 1.381 . S
C1158 C1159 1.394 . S
C1158 H1166 0.930 . S
C1159 C1158 1.394 . S
C1159 C1160 1.383 . S
C1159 H1167 0.929 . S
C1160 C1159 1.383 . S
C1160 C1161 1.377 . S
C1161 H1145 0.930 . S
C1161 C1160 1.377 . S
C1161 C1162 1.379 . S
C1162 H1146 0.931 . S
C1162 C1156 1.383 . S
C1162 C1161 1.379 . S
H1163 C1157 0.959 . S
H1164 C1157 0.961 . S
H1165 C1157 0.960 . S
H1166 C1158 0.930 . S
H1167 C1159 0.929 . S
H1168 C1176 0.929 . S
H1169 C1178 0.930 . S
H1170 C1180 0.930 . S
H1171 C1183 0.929 . S
H1172 C1186 0.930 . S
H1173 C1188 0.960 . S
H1174 C1188 0.960 . S
H1175 C1188 0.960 . S
C1176 H1168 0.929 . S
C1176 C1177 1.377 . S
C1176 C1178 1.384 . S
C1177 C1176 1.377 . S
C1177 C1183 1.390 . S
C1178 H1169 0.930 . S
C1178 C1176 1.384 . S
C1178 C1179 1.372 . S
C1179 C1178 1.372 . S
C1179 C1180 1.400 . S
C1179 C1184 1.490 . S
C1180 H1170 0.930 . S
C1180 C1179 1.400 . S
C1180 C1183 1.386 . S
H1181 C1197 0.930 . S
H1182 C1198 0.931 . S
C1183 H1171 0.929 . S
C1183 C1177 1.390 . S
C1183 C1180 1.386 . S
C1184 C1179 1.490 . S
C1184 C1186 1.395 . S
C1184 C1187 1.403 . S
H1185 C1191 0.930 . S
C1186 H1172 0.930 . S
C1186 C1184 1.395 . S
C1186 C1189 1.403 . S
C1187 C1184 1.403 . S
C1187 C1188 1.524 . S
C1187 C1191 1.400 . S
C1188 H1173 0.960 . S
C1188 H1174 0.960 . S
C1188 H1175 0.960 . S
C1188 C1187 1.524 . S
C1189 C1186 1.403 . S
C1189 C1190 1.392 . S
C1189 C1193 1.495 . S
C1190 C1189 1.392 . S
C1190 C1191 1.385 . S
C1190 C1192 1.478 . S
C1191 H1185 0.930 . S
C1191 C1187 1.400 . S
C1191 C1190 1.385 . S
C1192 C1190 1.478 . S
C1192 C1194 1.381 . S
C1192 C1198 1.383 . S
C1193 C1189 1.495 . S
C1193 H1199 0.959 . S
C1193 H1200 0.961 . S
C1193 H1201 0.960 . S
C1194 C1192 1.381 . S
C1194 C1195 1.394 . S
C1194 H1202 0.930 . S
C1195 C1194 1.394 . S
C1195 C1196 1.383 . S
C1195 H1203 0.929 . S
C1196 C1195 1.383 . S
C1196 C1197 1.377 . S
C1197 H1181 0.930 . S
C1197 C1196 1.377 . S
C1197 C1198 1.379 . S
C1198 H1182 0.931 . S
C1198 C1192 1.383 . S
C1198 C1197 1.379 . S
H1199 C1193 0.959 . S
H1200 C1193 0.961 . S
H1201 C1193 0.960 . S
H1202 C1194 0.930 . S
H1203 C1195 0.929 . S
H1204 C1212 0.929 . S
H1205 C1214 0.930 . S
H1206 C1216 0.930 . S
H1207 C1219 0.929 . S
H1208 C1222 0.930 . S
H1209 C1224 0.960 . S
H1210 C1224 0.960 . S
H1211 C1224 0.960 . S
C1212 H1204 0.929 . S
C1212 C1213 1.377 . S
C1212 C1214 1.384 . S
C1213 C1212 1.377 . S
C1213 C1219 1.390 . S
C1214 H1205 0.930 . S
C1214 C1212 1.384 . S
C1214 C1215 1.372 . S
C1215 C1214 1.372 . S
C1215 C1216 1.400 . S
C1215 C1220 1.490 . S
C1216 H1206 0.930 . S
C1216 C1215 1.400 . S
C1216 C1219 1.386 . S
H1217 C1233 0.930 . S
H1218 C1234 0.931 . S
C1219 H1207 0.929 . S
C1219 C1213 1.390 . S
C1219 C1216 1.386 . S
C1220 C1215 1.490 . S
C1220 C1222 1.395 . S
C1220 C1223 1.403 . S
H1221 C1227 0.930 . S
C1222 H1208 0.930 . S
C1222 C1220 1.395 . S
C1222 C1225 1.403 . S
C1223 C1220 1.403 . S
C1223 C1224 1.524 . S
C1223 C1227 1.400 . S
C1224 H1209 0.960 . S
C1224 H1210 0.960 . S
C1224 H1211 0.960 . S
C1224 C1223 1.524 . S
C1225 C1222 1.403 . S
C1225 C1226 1.392 . S
C1225 C1229 1.495 . S
C1226 C1225 1.392 . S
C1226 C1227 1.385 . S
C1226 C1228 1.478 . S
C1227 H1221 0.930 . S
C1227 C1223 1.400 . S
C1227 C1226 1.385 . S
C1228 C1226 1.478 . S
C1228 C1230 1.381 . S
C1228 C1234 1.383 . S
C1229 C1225 1.495 . S
C1229 H1235 0.959 . S
C1229 H1236 0.961 . S
C1229 H1237 0.960 . S
C1230 C1228 1.381 . S
C1230 C1231 1.394 . S
C1230 H1238 0.930 . S
C1231 C1230 1.394 . S
C1231 C1232 1.383 . S
C1231 H1239 0.929 . S
C1232 C1231 1.383 . S
C1232 C1233 1.377 . S
C1233 H1217 0.930 . S
C1233 C1232 1.377 . S
C1233 C1234 1.379 . S
C1234 H1218 0.931 . S
C1234 C1228 1.383 . S
C1234 C1233 1.379 . S
H1235 C1229 0.959 . S
H1236 C1229 0.961 . S
H1237 C1229 0.960 . S
H1238 C1230 0.930 . S
H1239 C1231 0.929 . S
H1240 C1248 0.929 . S
H1241 C1250 0.930 . S
H1242 C1252 0.930 . S
H1243 C1255 0.929 . S
H1244 C1258 0.930 . S
H1245 C1260 0.960 . S
H1246 C1260 0.960 . S
H1247 C1260 0.960 . S
C1248 H1240 0.929 . S
C1248 C1249 1.377 . S
C1248 C1250 1.384 . S
C1249 C1248 1.377 . S
C1249 C1255 1.390 . S
C1250 H1241 0.930 . S
C1250 C1248 1.384 . S
C1250 C1251 1.372 . S
C1251 C1250 1.372 . S
C1251 C1252 1.400 . S
C1251 C1256 1.490 . S
C1252 H1242 0.930 . S
C1252 C1251 1.400 . S
C1252 C1255 1.386 . S
H1253 C1269 0.930 . S
H1254 C1270 0.931 . S
C1255 H1243 0.929 . S
C1255 C1249 1.390 . S
C1255 C1252 1.386 . S
C1256 C1251 1.490 . S
C1256 C1258 1.395 . S
C1256 C1259 1.403 . S
H1257 C1263 0.930 . S
C1258 H1244 0.930 . S
C1258 C1256 1.395 . S
C1258 C1261 1.403 . S
C1259 C1256 1.403 . S
C1259 C1260 1.524 . S
C1259 C1263 1.400 . S
C1260 H1245 0.960 . S
C1260 H1246 0.960 . S
C1260 H1247 0.960 . S
C1260 C1259 1.524 . S
C1261 C1258 1.403 . S
C1261 C1262 1.392 . S
C1261 C1265 1.495 . S
C1262 C1261 1.392 . S
C1262 C1263 1.385 . S
C1262 C1264 1.478 . S
C1263 H1257 0.930 . S
C1263 C1259 1.400 . S
C1263 C1262 1.385 . S
C1264 C1262 1.478 . S
C1264 C1266 1.381 . S
C1264 C1270 1.383 . S
C1265 C1261 1.495 . S
C1265 H1271 0.959 . S
C1265 H1272 0.961 . S
C1265 H1273 0.960 . S
C1266 C1264 1.381 . S
C1266 C1267 1.394 . S
C1266 H1274 0.930 . S
C1267 C1266 1.394 . S
C1267 C1268 1.383 . S
C1267 H1275 0.929 . S
C1268 C1267 1.383 . S
C1268 C1269 1.377 . S
C1269 H1253 0.930 . S
C1269 C1268 1.377 . S
C1269 C1270 1.379 . S
C1270 H1254 0.931 . S
C1270 C1264 1.383 . S
C1270 C1269 1.379 . S
H1271 C1265 0.959 . S
H1272 C1265 0.961 . S
H1273 C1265 0.960 . S
H1274 C1266 0.930 . S
H1275 C1267 0.929 . S
H1276 C1284 0.929 . S
H1277 C1286 0.930 . S
H1278 C1288 0.930 . S
H1279 C1291 0.929 . S
H1280 C1294 0.930 . S
H1281 C1296 0.960 . S
H1282 C1296 0.960 . S
H1283 C1296 0.960 . S
C1284 H1276 0.929 . S
C1284 C1285 1.377 . S
C1284 C1286 1.384 . S
C1285 C1284 1.377 . S
C1285 C1291 1.390 . S
C1286 H1277 0.930 . S
C1286 C1284 1.384 . S
C1286 C1287 1.372 . S
C1287 C1286 1.372 . S
C1287 C1288 1.400 . S
C1287 C1292 1.490 . S
C1288 H1278 0.930 . S
C1288 C1287 1.400 . S
C1288 C1291 1.386 . S
H1289 C1305 0.930 . S
H1290 C1306 0.931 . S
C1291 H1279 0.929 . S
C1291 C1285 1.390 . S
C1291 C1288 1.386 . S
C1292 C1287 1.490 . S
C1292 C1294 1.395 . S
C1292 C1295 1.403 . S
H1293 C1299 0.930 . S
C1294 H1280 0.930 . S
C1294 C1292 1.395 . S
C1294 C1297 1.403 . S
C1295 C1292 1.403 . S
C1295 C1296 1.524 . S
C1295 C1299 1.400 . S
C1296 H1281 0.960 . S
C1296 H1282 0.960 . S
C1296 H1283 0.960 . S
C1296 C1295 1.524 . S
C1297 C1294 1.403 . S
C1297 C1298 1.392 . S
C1297 C1301 1.495 . S
C1298 C1297 1.392 . S
C1298 C1299 1.385 . S
C1298 C1300 1.478 . S
C1299 H1293 0.930 . S
C1299 C1295 1.400 . S
C1299 C1298 1.385 . S
C1300 C1298 1.478 . S
C1300 C1302 1.381 . S
C1300 C1306 1.383 . S
C1301 C1297 1.495 . S
C1301 H1307 0.959 . S
C1301 H1308 0.961 . S
C1301 H1309 0.960 . S
C1302 C1300 1.381 . S
C1302 C1303 1.394 . S
C1302 H1310 0.930 . S
C1303 C1302 1.394 . S
C1303 C1304 1.383 . S
C1303 H1311 0.929 . S
C1304 C1303 1.383 . S
C1304 C1305 1.377 . S
C1305 H1289 0.930 . S
C1305 C1304 1.377 . S
C1305 C1306 1.379 . S
C1306 H1290 0.931 . S
C1306 C1300 1.383 . S
C1306 C1305 1.379 . S
H1307 C1301 0.959 . S
H1308 C1301 0.961 . S
H1309 C1301 0.960 . S
H1310 C1302 0.930 . S
H1311 C1303 0.929 . S
H1312 C1320 0.929 . S
H1313 C1322 0.930 . S
H1314 C1324 0.930 . S
H1315 C1327 0.929 . S
H1316 C1330 0.930 . S
H1317 C1332 0.960 . S
H1318 C1332 0.960 . S
H1319 C1332 0.960 . S
C1320 H1312 0.929 . S
C1320 C1321 1.377 . S
C1320 C1322 1.384 . S
C1321 C1320 1.377 . S
C1321 C1327 1.390 . S
C1322 H1313 0.930 . S
C1322 C1320 1.384 . S
C1322 C1323 1.372 . S
C1323 C1322 1.372 . S
C1323 C1324 1.400 . S
C1323 C1328 1.490 . S
C1324 H1314 0.930 . S
C1324 C1323 1.400 . S
C1324 C1327 1.386 . S
H1325 C1341 0.930 . S
H1326 C1342 0.931 . S
C1327 H1315 0.929 . S
C1327 C1321 1.390 . S
C1327 C1324 1.386 . S
C1328 C1323 1.490 . S
C1328 C1330 1.395 . S
C1328 C1331 1.403 . S
H1329 C1335 0.930 . S
C1330 H1316 0.930 . S
C1330 C1328 1.395 . S
C1330 C1333 1.403 . S
C1331 C1328 1.403 . S
C1331 C1332 1.524 . S
C1331 C1335 1.400 . S
C1332 H1317 0.960 . S
C1332 H1318 0.960 . S
C1332 H1319 0.960 . S
C1332 C1331 1.524 . S
C1333 C1330 1.403 . S
C1333 C1334 1.392 . S
C1333 C1337 1.495 . S
C1334 C1333 1.392 . S
C1334 C1335 1.385 . S
C1334 C1336 1.478 . S
C1335 H1329 0.930 . S
C1335 C1331 1.400 . S
C1335 C1334 1.385 . S
C1336 C1334 1.478 . S
C1336 C1338 1.381 . S
C1336 C1342 1.383 . S
C1337 C1333 1.495 . S
C1337 H1343 0.959 . S
C1337 H1344 0.961 . S
C1337 H1345 0.960 . S
C1338 C1336 1.381 . S
C1338 C1339 1.394 . S
C1338 H1346 0.930 . S
C1339 C1338 1.394 . S
C1339 C1340 1.383 . S
C1339 H1347 0.929 . S
C1340 C1339 1.383 . S
C1340 C1341 1.377 . S
C1341 H1325 0.930 . S
C1341 C1340 1.377 . S
C1341 C1342 1.379 . S
C1342 H1326 0.931 . S
C1342 C1336 1.383 . S
C1342 C1341 1.379 . S
H1343 C1337 0.959 . S
H1344 C1337 0.961 . S
H1345 C1337 0.960 . S
H1346 C1338 0.930 . S
H1347 C1339 0.929 . S
H1348 C1356 0.929 . S
H1349 C1358 0.930 . S
H1350 C1360 0.930 . S
H1351 C1363 0.929 . S
H1352 C1366 0.930 . S
H1353 C1368 0.960 . S
H1354 C1368 0.960 . S
H1355 C1368 0.960 . S
C1356 H1348 0.929 . S
C1356 C1357 1.377 . S
C1356 C1358 1.384 . S
C1357 C1356 1.377 . S
C1357 C1363 1.390 . S
C1358 H1349 0.930 . S
C1358 C1356 1.384 . S
C1358 C1359 1.372 . S
C1359 C1358 1.372 . S
C1359 C1360 1.400 . S
C1359 C1364 1.490 . S
C1360 H1350 0.930 . S
C1360 C1359 1.400 . S
C1360 C1363 1.386 . S
H1361 C1377 0.930 . S
H1362 C1378 0.931 . S
C1363 H1351 0.929 . S
C1363 C1357 1.390 . S
C1363 C1360 1.386 . S
C1364 C1359 1.490 . S
C1364 C1366 1.395 . S
C1364 C1367 1.403 . S
H1365 C1371 0.930 . S
C1366 H1352 0.930 . S
C1366 C1364 1.395 . S
C1366 C1369 1.403 . S
C1367 C1364 1.403 . S
C1367 C1368 1.524 . S
C1367 C1371 1.400 . S
C1368 H1353 0.960 . S
C1368 H1354 0.960 . S
C1368 H1355 0.960 . S
C1368 C1367 1.524 . S
C1369 C1366 1.403 . S
C1369 C1370 1.392 . S
C1369 C1373 1.495 . S
C1370 C1369 1.392 . S
C1370 C1371 1.385 . S
C1370 C1372 1.478 . S
C1371 H1365 0.930 . S
C1371 C1367 1.400 . S
C1371 C1370 1.385 . S
C1372 C1370 1.478 . S
C1372 C1374 1.381 . S
C1372 C1378 1.383 . S
C1373 C1369 1.495 . S
C1373 H1379 0.959 . S
C1373 H1380 0.961 . S
C1373 H1381 0.960 . S
C1374 C1372 1.381 . S
C1374 C1375 1.394 . S
C1374 H1382 0.930 . S
C1375 C1374 1.394 . S
C1375 C1376 1.383 . S
C1375 H1383 0.929 . S
C1376 C1375 1.383 . S
C1376 C1377 1.377 . S
C1377 H1361 0.930 . S
C1377 C1376 1.377 . S
C1377 C1378 1.379 . S
C1378 H1362 0.931 . S
C1378 C1372 1.383 . S
C1378 C1377 1.379 . S
H1379 C1373 0.959 . S
H1380 C1373 0.961 . S
H1381 C1373 0.960 . S
H1382 C1374 0.930 . S
H1383 C1375 0.929 . S
H1384 C1392 0.929 . S
H1385 C1394 0.930 . S
H1386 C1396 0.930 . S
H1387 C1399 0.929 . S
H1388 C1402 0.930 . S
H1389 C1404 0.960 . S
H1390 C1404 0.960 . S
H1391 C1404 0.960 . S
C1392 H1384 0.929 . S
C1392 C1393 1.377 . S
C1392 C1394 1.384 . S
C1393 C1392 1.377 . S
C1393 C1399 1.390 . S
C1394 H1385 0.930 . S
C1394 C1392 1.384 . S
C1394 C1395 1.372 . S
C1395 C1394 1.372 . S
C1395 C1396 1.400 . S
C1395 C1400 1.490 . S
C1396 H1386 0.930 . S
C1396 C1395 1.400 . S
C1396 C1399 1.386 . S
H1397 C1413 0.930 . S
H1398 C1414 0.931 . S
C1399 H1387 0.929 . S
C1399 C1393 1.390 . S
C1399 C1396 1.386 . S
C1400 C1395 1.490 . S
C1400 C1402 1.395 . S
C1400 C1403 1.403 . S
H1401 C1407 0.930 . S
C1402 H1388 0.930 . S
C1402 C1400 1.395 . S
C1402 C1405 1.403 . S
C1403 C1400 1.403 . S
C1403 C1404 1.524 . S
C1403 C1407 1.400 . S
C1404 H1389 0.960 . S
C1404 H1390 0.960 . S
C1404 H1391 0.960 . S
C1404 C1403 1.524 . S
C1405 C1402 1.403 . S
C1405 C1406 1.392 . S
C1405 C1409 1.495 . S
C1406 C1405 1.392 . S
C1406 C1407 1.385 . S
C1406 C1408 1.478 . S
C1407 H1401 0.930 . S
C1407 C1403 1.400 . S
C1407 C1406 1.385 . S
C1408 C1406 1.478 . S
C1408 C1410 1.381 . S
C1408 C1414 1.383 . S
C1409 C1405 1.495 . S
C1409 H1415 0.959 . S
C1409 H1416 0.961 . S
C1409 H1417 0.960 . S
C1410 C1408 1.381 . S
C1410 C1411 1.394 . S
C1410 H1418 0.930 . S
C1411 C1410 1.394 . S
C1411 C1412 1.383 . S
C1411 H1419 0.929 . S
C1412 C1411 1.383 . S
C1412 C1413 1.377 . S
C1413 H1397 0.930 . S
C1413 C1412 1.377 . S
C1413 C1414 1.379 . S
C1414 H1398 0.931 . S
C1414 C1408 1.383 . S
C1414 C1413 1.379 . S
H1415 C1409 0.959 . S
H1416 C1409 0.961 . S
H1417 C1409 0.960 . S
H1418 C1410 0.930 . S
H1419 C1411 0.929 . S
H1420 C1428 0.929 . S
H1421 C1430 0.930 . S
H1422 C1432 0.930 . S
H1423 C1435 0.929 . S
H1424 C1438 0.930 . S
H1425 C1440 0.960 . S
H1426 C1440 0.960 . S
H1427 C1440 0.960 . S
C1428 H1420 0.929 . S
C1428 C1429 1.377 . S
C1428 C1430 1.384 . S
C1429 C1428 1.377 . S
C1429 C1435 1.390 . S
C1430 H1421 0.930 . S
C1430 C1428 1.384 . S
C1430 C1431 1.372 . S
C1431 C1430 1.372 . S
C1431 C1432 1.400 . S
C1431 C1436 1.490 . S
C1432 H1422 0.930 . S
C1432 C1431 1.400 . S
C1432 C1435 1.386 . S
H1433 C1449 0.930 . S
H1434 C1450 0.931 . S
C1435 H1423 0.929 . S
C1435 C1429 1.390 . S
C1435 C1432 1.386 . S
C1436 C1431 1.490 . S
C1436 C1438 1.395 . S
C1436 C1439 1.403 . S
H1437 C1443 0.930 . S
C1438 H1424 0.930 . S
C1438 C1436 1.395 . S
C1438 C1441 1.403 . S
C1439 C1436 1.403 . S
C1439 C1440 1.524 . S
C1439 C1443 1.400 . S
C1440 H1425 0.960 . S
C1440 H1426 0.960 . S
C1440 H1427 0.960 . S
C1440 C1439 1.524 . S
C1441 C1438 1.403 . S
C1441 C1442 1.392 . S
C1441 C1445 1.495 . S
C1442 C1441 1.392 . S
C1442 C1443 1.385 . S
C1442 C1444 1.478 . S
C1443 H1437 0.930 . S
C1443 C1439 1.400 . S
C1443 C1442 1.385 . S
C1444 C1442 1.478 . S
C1444 C1446 1.381 . S
C1444 C1450 1.383 . S
C1445 C1441 1.495 . S
C1445 H1451 0.959 . S
C1445 H1452 0.961 . S
C1445 H1453 0.960 . S
C1446 C1444 1.381 . S
C1446 C1447 1.394 . S
C1446 H1454 0.930 . S
C1447 C1446 1.394 . S
C1447 C1448 1.383 . S
C1447 H1455 0.929 . S
C1448 C1447 1.383 . S
C1448 C1449 1.377 . S
C1449 H1433 0.930 . S
C1449 C1448 1.377 . S
C1449 C1450 1.379 . S
C1450 H1434 0.931 . S
C1450 C1444 1.383 . S
C1450 C1449 1.379 . S
H1451 C1445 0.959 . S
H1452 C1445 0.961 . S
H1453 C1445 0.960 . S
H1454 C1446 0.930 . S
H1455 C1447 0.929 . S
H1456 C1464 0.929 . S
H1457 C1466 0.930 . S
H1458 C1468 0.930 . S
H1459 C1471 0.929 . S
H1460 C1474 0.930 . S
H1461 C1476 0.960 . S
H1462 C1476 0.960 . S
H1463 C1476 0.960 . S
C1464 H1456 0.929 . S
C1464 C1465 1.377 . S
C1464 C1466 1.384 . S
C1465 C1464 1.377 . S
C1465 C1471 1.390 . S
C1466 H1457 0.930 . S
C1466 C1464 1.384 . S
C1466 C1467 1.372 . S
C1467 C1466 1.372 . S
C1467 C1468 1.400 . S
C1467 C1472 1.490 . S
C1468 H1458 0.930 . S
C1468 C1467 1.400 . S
C1468 C1471 1.386 . S
H1469 C1485 0.930 . S
H1470 C1486 0.931 . S
C1471 H1459 0.929 . S
C1471 C1465 1.390 . S
C1471 C1468 1.386 . S
C1472 C1467 1.490 . S
C1472 C1474 1.395 . S
C1472 C1475 1.403 . S
H1473 C1479 0.930 . S
C1474 H1460 0.930 . S
C1474 C1472 1.395 . S
C1474 C1477 1.403 . S
C1475 C1472 1.403 . S
C1475 C1476 1.524 . S
C1475 C1479 1.400 . S
C1476 H1461 0.960 . S
C1476 H1462 0.960 . S
C1476 H1463 0.960 . S
C1476 C1475 1.524 . S
C1477 C1474 1.403 . S
C1477 C1478 1.392 . S
C1477 C1481 1.495 . S
C1478 C1477 1.392 . S
C1478 C1479 1.385 . S
C1478 C1480 1.478 . S
C1479 H1473 0.930 . S
C1479 C1475 1.400 . S
C1479 C1478 1.385 . S
C1480 C1478 1.478 . S
C1480 C1482 1.381 . S
C1480 C1486 1.383 . S
C1481 C1477 1.495 . S
C1481 H1487 0.959 . S
C1481 H1488 0.961 . S
C1481 H1489 0.960 . S
C1482 C1480 1.381 . S
C1482 C1483 1.394 . S
C1482 H1490 0.930 . S
C1483 C1482 1.394 . S
C1483 C1484 1.383 . S
C1483 H1491 0.929 . S
C1484 C1483 1.383 . S
C1484 C1485 1.377 . S
C1485 H1469 0.930 . S
C1485 C1484 1.377 . S
C1485 C1486 1.379 . S
C1486 H1470 0.931 . S
C1486 C1480 1.383 . S
C1486 C1485 1.379 . S
H1487 C1481 0.959 . S
H1488 C1481 0.961 . S
H1489 C1481 0.960 . S
H1490 C1482 0.930 . S
H1491 C1483 0.929 . S
H1492 C1500 0.929 . S
H1493 C1502 0.930 . S
H1494 C1504 0.930 . S
H1495 C1507 0.929 . S
H1496 C1510 0.930 . S
H1497 C1512 0.960 . S
H1498 C1512 0.960 . S
H1499 C1512 0.960 . S
C1500 H1492 0.929 . S
C1500 C1501 1.377 . S
C1500 C1502 1.384 . S
C1501 C1500 1.377 . S
C1501 C1507 1.390 . S
C1502 H1493 0.930 . S
C1502 C1500 1.384 . S
C1502 C1503 1.372 . S
C1503 C1502 1.372 . S
C1503 C1504 1.400 . S
C1503 C1508 1.490 . S
C1504 H1494 0.930 . S
C1504 C1503 1.400 . S
C1504 C1507 1.386 . S
H1505 C1521 0.930 . S
H1506 C1522 0.931 . S
C1507 H1495 0.929 . S
C1507 C1501 1.390 . S
C1507 C1504 1.386 . S
C1508 C1503 1.490 . S
C1508 C1510 1.395 . S
C1508 C1511 1.403 . S
H1509 C1515 0.930 . S
C1510 H1496 0.930 . S
C1510 C1508 1.395 . S
C1510 C1513 1.403 . S
C1511 C1508 1.403 . S
C1511 C1512 1.524 . S
C1511 C1515 1.400 . S
C1512 H1497 0.960 . S
C1512 H1498 0.960 . S
C1512 H1499 0.960 . S
C1512 C1511 1.524 . S
C1513 C1510 1.403 . S
C1513 C1514 1.392 . S
C1513 C1517 1.495 . S
C1514 C1513 1.392 . S
C1514 C1515 1.385 . S
C1514 C1516 1.478 . S
C1515 H1509 0.930 . S
C1515 C1511 1.400 . S
C1515 C1514 1.385 . S
C1516 C1514 1.478 . S
C1516 C1518 1.381 . S
C1516 C1522 1.383 . S
C1517 C1513 1.495 . S
C1517 H1523 0.959 . S
C1517 H1524 0.961 . S
C1517 H1525 0.960 . S
C1518 C1516 1.381 . S
C1518 C1519 1.394 . S
C1518 H1526 0.930 . S
C1519 C1518 1.394 . S
C1519 C1520 1.383 . S
C1519 H1527 0.929 . S
C1520 C1519 1.383 . S
C1520 C1521 1.377 . S
C1521 H1505 0.930 . S
C1521 C1520 1.377 . S
C1521 C1522 1.379 . S
C1522 H1506 0.931 . S
C1522 C1516 1.383 . S
C1522 C1521 1.379 . S
H1523 C1517 0.959 . S
H1524 C1517 0.961 . S
H1525 C1517 0.960 . S
H1526 C1518 0.930 . S
H1527 C1519 0.929 . S
H1528 C1536 0.929 . S
H1529 C1538 0.930 . S
H1530 C1540 0.930 . S
H1531 C1543 0.929 . S
H1532 C1546 0.930 . S
H1533 C1548 0.960 . S
H1534 C1548 0.960 . S
H1535 C1548 0.960 . S
C1536 H1528 0.929 . S
C1536 C1537 1.377 . S
C1536 C1538 1.384 . S
C1537 C1536 1.377 . S
C1537 C1543 1.390 . S
C1538 H1529 0.930 . S
C1538 C1536 1.384 . S
C1538 C1539 1.372 . S
C1539 C1538 1.372 . S
C1539 C1540 1.400 . S
C1539 C1544 1.490 . S
C1540 H1530 0.930 . S
C1540 C1539 1.400 . S
C1540 C1543 1.386 . S
H1541 C1557 0.930 . S
H1542 C1558 0.931 . S
C1543 H1531 0.929 . S
C1543 C1537 1.390 . S
C1543 C1540 1.386 . S
C1544 C1539 1.490 . S
C1544 C1546 1.395 . S
C1544 C1547 1.403 . S
H1545 C1551 0.930 . S
C1546 H1532 0.930 . S
C1546 C1544 1.395 . S
C1546 C1549 1.403 . S
C1547 C1544 1.403 . S
C1547 C1548 1.524 . S
C1547 C1551 1.400 . S
C1548 H1533 0.960 . S
C1548 H1534 0.960 . S
C1548 H1535 0.960 . S
C1548 C1547 1.524 . S
C1549 C1546 1.403 . S
C1549 C1550 1.392 . S
C1549 C1553 1.495 . S
C1550 C1549 1.392 . S
C1550 C1551 1.385 . S
C1550 C1552 1.478 . S
C1551 H1545 0.930 . S
C1551 C1547 1.400 . S
C1551 C1550 1.385 . S
C1552 C1550 1.478 . S
C1552 C1554 1.381 . S
C1552 C1558 1.383 . S
C1553 C1549 1.495 . S
C1553 H1559 0.959 . S
C1553 H1560 0.961 . S
C1553 H1561 0.960 . S
C1554 C1552 1.381 . S
C1554 C1555 1.394 . S
C1554 H1562 0.930 . S
C1555 C1554 1.394 . S
C1555 C1556 1.383 . S
C1555 H1563 0.929 . S
C1556 C1555 1.383 . S
C1556 C1557 1.377 . S
C1557 H1541 0.930 . S
C1557 C1556 1.377 . S
C1557 C1558 1.379 . S
C1558 H1542 0.931 . S
C1558 C1552 1.383 . S
C1558 C1557 1.379 . S
H1559 C1553 0.959 . S
H1560 C1553 0.961 . S
H1561 C1553 0.960 . S
H1562 C1554 0.930 . S
H1563 C1555 0.929 . S
H1564 C1572 0.929 . S
H1565 C1574 0.930 . S
H1566 C1576 0.930 . S
H1567 C1579 0.929 . S
H1568 C1582 0.930 . S
H1569 C1584 0.960 . S
H1570 C1584 0.960 . S
H1571 C1584 0.960 . S
C1572 H1564 0.929 . S
C1572 C1573 1.377 . S
C1572 C1574 1.384 . S
C1573 C1572 1.377 . S
C1573 C1579 1.390 . S
C1574 H1565 0.930 . S
C1574 C1572 1.384 . S
C1574 C1575 1.372 . S
C1575 C1574 1.372 . S
C1575 C1576 1.400 . S
C1575 C1580 1.490 . S
C1576 H1566 0.930 . S
C1576 C1575 1.400 . S
C1576 C1579 1.386 . S
H1577 C1593 0.930 . S
H1578 C1594 0.931 . S
C1579 H1567 0.929 . S
C1579 C1573 1.390 . S
C1579 C1576 1.386 . S
C1580 C1575 1.490 . S
C1580 C1582 1.395 . S
C1580 C1583 1.403 . S
H1581 C1587 0.930 . S
C1582 H1568 0.930 . S
C1582 C1580 1.395 . S
C1582 C1585 1.403 . S
C1583 C1580 1.403 . S
C1583 C1584 1.524 . S
C1583 C1587 1.400 . S
C1584 H1569 0.960 . S
C1584 H1570 0.960 . S
C1584 H1571 0.960 . S
C1584 C1583 1.524 . S
C1585 C1582 1.403 . S
C1585 C1586 1.392 . S
C1585 C1589 1.495 . S
C1586 C1585 1.392 . S
C1586 C1587 1.385 . S
C1586 C1588 1.478 . S
C1587 H1581 0.930 . S
C1587 C1583 1.400 . S
C1587 C1586 1.385 . S
C1588 C1586 1.478 . S
C1588 C1590 1.381 . S
C1588 C1594 1.383 . S
C1589 C1585 1.495 . S
C1589 H1595 0.959 . S
C1589 H1596 0.961 . S
C1589 H1597 0.960 . S
C1590 C1588 1.381 . S
C1590 C1591 1.394 . S
C1590 H1598 0.930 . S
C1591 C1590 1.394 . S
C1591 C1592 1.383 . S
C1591 H1599 0.929 . S
C1592 C1591 1.383 . S
C1592 C1593 1.377 . S
C1593 H1577 0.930 . S
C1593 C1592 1.377 . S
C1593 C1594 1.379 . S
C1594 H1578 0.931 . S
C1594 C1588 1.383 . S
C1594 C1593 1.379 . S
H1595 C1589 0.959 . S
H1596 C1589 0.961 . S
H1597 C1589 0.960 . S
H1598 C1590 0.930 . S
H1599 C1591 0.929 . S
H1600 C1608 0.929 . S
H1601 C1610 0.930 . S
H1602 C1612 0.930 . S
H1603 C1615 0.929 . S
H1604 C1618 0.930 . S
H1605 C1620 0.960 . S
H1606 C1620 0.960 . S
H1607 C1620 0.960 . S
C1608 H1600 0.929 . S
C1608 C1609 1.377 . S
C1608 C1610 1.384 . S
C1609 C1608 1.377 . S
C1609 C1615 1.390 . S
C1610 H1601 0.930 . S
C1610 C1608 1.384 . S
C1610 C1611 1.372 . S
C1611 C1610 1.372 . S
C1611 C1612 1.400 . S
C1611 C1616 1.490 . S
C1612 H1602 0.930 . S
C1612 C1611 1.400 . S
C1612 C1615 1.386 . S
H1613 C1629 0.930 . S
H1614 C1630 0.931 . S
C1615 H1603 0.929 . S
C1615 C1609 1.390 . S
C1615 C1612 1.386 . S
C1616 C1611 1.490 . S
C1616 C1618 1.395 . S
C1616 C1619 1.403 . S
H1617 C1623 0.930 . S
C1618 H1604 0.930 . S
C1618 C1616 1.395 . S
C1618 C1621 1.403 . S
C1619 C1616 1.403 . S
C1619 C1620 1.524 . S
C1619 C1623 1.400 . S
C1620 H1605 0.960 . S
C1620 H1606 0.960 . S
C1620 H1607 0.960 . S
C1620 C1619 1.524 . S
C1621 C1618 1.403 . S
C1621 C1622 1.392 . S
C1621 C1625 1.495 . S
C1622 C1621 1.392 . S
C1622 C1623 1.385 . S
C1622 C1624 1.478 . S
C1623 H1617 0.930 . S
C1623 C1619 1.400 . S
C1623 C1622 1.385 . S
C1624 C1622 1.478 . S
C1624 C1626 1.381 . S
C1624 C1630 1.383 . S
C1625 C1621 1.495 . S
C1625 H1631 0.959 . S
C1625 H1632 0.961 . S
C1625 H1633 0.960 . S
C1626 C1624 1.381 . S
C1626 C1627 1.394 . S
C1626 H1634 0.930 . S
C1627 C1626 1.394 . S
C1627 C1628 1.383 . S
C1627 H1635 0.929 . S
C1628 C1627 1.383 . S
C1628 C1629 1.377 . S
C1629 H1613 0.930 . S
C1629 C1628 1.377 . S
C1629 C1630 1.379 . S
C1630 H1614 0.931 . S
C1630 C1624 1.383 . S
C1630 C1629 1.379 . S
H1631 C1625 0.959 . S
H1632 C1625 0.961 . S
H1633 C1625 0.960 . S
H1634 C1626 0.930 . S
H1635 C1627 0.929 . S
H1636 C1644 0.929 . S
H1637 C1646 0.930 . S
H1638 C1648 0.930 . S
H1639 C1651 0.929 . S
H1640 C1654 0.930 . S
H1641 C1656 0.960 . S
H1642 C1656 0.960 . S
H1643 C1656 0.960 . S
C1644 H1636 0.929 . S
C1644 C1645 1.377 . S
C1644 C1646 1.384 . S
C1645 C1644 1.377 . S
C1645 C1651 1.390 . S
C1646 H1637 0.930 . S
C1646 C1644 1.384 . S
C1646 C1647 1.372 . S
C1647 C1646 1.372 . S
C1647 C1648 1.400 . S
C1647 C1652 1.490 . S
C1648 H1638 0.930 . S
C1648 C1647 1.400 . S
C1648 C1651 1.386 . S
H1649 C1665 0.930 . S
H1650 C1666 0.931 . S
C1651 H1639 0.929 . S
C1651 C1645 1.390 . S
C1651 C1648 1.386 . S
C1652 C1647 1.490 . S
C1652 C1654 1.395 . S
C1652 C1655 1.403 . S
H1653 C1659 0.930 . S
C1654 H1640 0.930 . S
C1654 C1652 1.395 . S
C1654 C1657 1.403 . S
C1655 C1652 1.403 . S
C1655 C1656 1.524 . S
C1655 C1659 1.400 . S
C1656 H1641 0.960 . S
C1656 H1642 0.960 . S
C1656 H1643 0.960 . S
C1656 C1655 1.524 . S
C1657 C1654 1.403 . S
C1657 C1658 1.392 . S
C1657 C1661 1.495 . S
C1658 C1657 1.392 . S
C1658 C1659 1.385 . S
C1658 C1660 1.478 . S
C1659 H1653 0.930 . S
C1659 C1655 1.400 . S
C1659 C1658 1.385 . S
C1660 C1658 1.478 . S
C1660 C1662 1.381 . S
C1660 C1666 1.383 . S
C1661 C1657 1.495 . S
C1661 H1667 0.959 . S
C1661 H1668 0.961 . S
C1661 H1669 0.960 . S
C1662 C1660 1.381 . S
C1662 C1663 1.394 . S
C1662 H1670 0.930 . S
C1663 C1662 1.394 . S
C1663 C1664 1.383 . S
C1663 H1671 0.929 . S
C1664 C1663 1.383 . S
C1664 C1665 1.377 . S
C1665 H1649 0.930 . S
C1665 C1664 1.377 . S
C1665 C1666 1.379 . S
C1666 H1650 0.931 . S
C1666 C1660 1.383 . S
C1666 C1665 1.379 . S
H1667 C1661 0.959 . S
H1668 C1661 0.961 . S
H1669 C1661 0.960 . S
H1670 C1662 0.930 . S
H1671 C1663 0.929 . S
H1672 C1680 0.929 . S
H1673 C1682 0.930 . S
H1674 C1684 0.930 . S
H1675 C1687 0.929 . S
H1676 C1690 0.930 . S
H1677 C1692 0.960 . S
H1678 C1692 0.960 . S
H1679 C1692 0.960 . S
C1680 H1672 0.929 . S
C1680 C1681 1.377 . S
C1680 C1682 1.384 . S
C1681 C1680 1.377 . S
C1681 C1687 1.390 . S
C1682 H1673 0.930 . S
C1682 C1680 1.384 . S
C1682 C1683 1.372 . S
C1683 C1682 1.372 . S
C1683 C1684 1.400 . S
C1683 C1688 1.490 . S
C1684 H1674 0.930 . S
C1684 C1683 1.400 . S
C1684 C1687 1.386 . S
H1685 C1701 0.930 . S
H1686 C1702 0.931 . S
C1687 H1675 0.929 . S
C1687 C1681 1.390 . S
C1687 C1684 1.386 . S
C1688 C1683 1.490 . S
C1688 C1690 1.395 . S
C1688 C1691 1.403 . S
H1689 C1695 0.930 . S
C1690 H1676 0.930 . S
C1690 C1688 1.395 . S
C1690 C1693 1.403 . S
C1691 C1688 1.403 . S
C1691 C1692 1.524 . S
C1691 C1695 1.400 . S
C1692 H1677 0.960 . S
C1692 H1678 0.960 . S
C1692 H1679 0.960 . S
C1692 C1691 1.524 . S
C1693 C1690 1.403 . S
C1693 C1694 1.392 . S
C1693 C1697 1.495 . S
C1694 C1693 1.392 . S
C1694 C1695 1.385 . S
C1694 C1696 1.478 . S
C1695 H1689 0.930 . S
C1695 C1691 1.400 . S
C1695 C1694 1.385 . S
C1696 C1694 1.478 . S
C1696 C1698 1.381 . S
C1696 C1702 1.383 . S
C1697 C1693 1.495 . S
C1697 H1703 0.959 . S
C1697 H1704 0.961 . S
C1697 H1705 0.960 . S
C1698 C1696 1.381 . S
C1698 C1699 1.394 . S
C1698 H1706 0.930 . S
C1699 C1698 1.394 . S
C1699 C1700 1.383 . S
C1699 H1707 0.929 . S
C1700 C1699 1.383 . S
C1700 C1701 1.377 . S
C1701 H1685 0.930 . S
C1701 C1700 1.377 . S
C1701 C1702 1.379 . S
C1702 H1686 0.931 . S
C1702 C1696 1.383 . S
C1702 C1701 1.379 . S
H1703 C1697 0.959 . S
H1704 C1697 0.961 . S
H1705 C1697 0.960 . S
H1706 C1698 0.930 . S
H1707 C1699 0.929 . S
H1708 C1716 0.929 . S
H1709 C1718 0.930 . S
H1710 C1720 0.930 . S
H1711 C1723 0.929 . S
H1712 C1726 0.930 . S
H1713 C1728 0.960 . S
H1714 C1728 0.960 . S
H1715 C1728 0.960 . S
C1716 H1708 0.929 . S
C1716 C1717 1.377 . S
C1716 C1718 1.384 . S
C1717 C1716 1.377 . S
C1717 C1723 1.390 . S
C1718 H1709 0.930 . S
C1718 C1716 1.384 . S
C1718 C1719 1.372 . S
C1719 C1718 1.372 . S
C1719 C1720 1.400 . S
C1719 C1724 1.490 . S
C1720 H1710 0.930 . S
C1720 C1719 1.400 . S
C1720 C1723 1.386 . S
H1721 C1737 0.930 . S
H1722 C1738 0.931 . S
C1723 H1711 0.929 . S
C1723 C1717 1.390 . S
C1723 C1720 1.386 . S
C1724 C1719 1.490 . S
C1724 C1726 1.395 . S
C1724 C1727 1.403 . S
H1725 C1731 0.930 . S
C1726 H1712 0.930 . S
C1726 C1724 1.395 . S
C1726 C1729 1.403 . S
C1727 C1724 1.403 . S
C1727 C1728 1.524 . S
C1727 C1731 1.400 . S
C1728 H1713 0.960 . S
C1728 H1714 0.960 . S
C1728 H1715 0.960 . S
C1728 C1727 1.524 . S
C1729 C1726 1.403 . S
C1729 C1730 1.392 . S
C1729 C1733 1.495 . S
C1730 C1729 1.392 . S
C1730 C1731 1.385 . S
C1730 C1732 1.478 . S
C1731 H1725 0.930 . S
C1731 C1727 1.400 . S
C1731 C1730 1.385 . S
C1732 C1730 1.478 . S
C1732 C1734 1.381 . S
C1732 C1738 1.383 . S
C1733 C1729 1.495 . S
C1733 H1739 0.959 . S
C1733 H1740 0.961 . S
C1733 H1741 0.960 . S
C1734 C1732 1.381 . S
C1734 C1735 1.394 . S
C1734 H1742 0.930 . S
C1735 C1734 1.394 . S
C1735 C1736 1.383 . S
C1735 H1743 0.929 . S
C1736 C1735 1.383 . S
C1736 C1737 1.377 . S
C1737 H1721 0.930 . S
C1737 C1736 1.377 . S
C1737 C1738 1.379 . S
C1738 H1722 0.931 . S
C1738 C1732 1.383 . S
C1738 C1737 1.379 . S
H1739 C1733 0.959 . S
H1740 C1733 0.961 . S
H1741 C1733 0.960 . S
H1742 C1734 0.930 . S
H1743 C1735 0.929 . S
H1744 C1752 0.929 . S
H1745 C1754 0.930 . S
H1746 C1756 0.930 . S
H1747 C1759 0.929 . S
H1748 C1762 0.930 . S
H1749 C1764 0.960 . S
H1750 C1764 0.960 . S
H1751 C1764 0.960 . S
C1752 H1744 0.929 . S
C1752 C1753 1.377 . S
C1752 C1754 1.384 . S
C1753 C1752 1.377 . S
C1753 C1759 1.390 . S
C1754 H1745 0.930 . S
C1754 C1752 1.384 . S
C1754 C1755 1.372 . S
C1755 C1754 1.372 . S
C1755 C1756 1.400 . S
C1755 C1760 1.490 . S
C1756 H1746 0.930 . S
C1756 C1755 1.400 . S
C1756 C1759 1.386 . S
H1757 C1773 0.930 . S
H1758 C1774 0.931 . S
C1759 H1747 0.929 . S
C1759 C1753 1.390 . S
C1759 C1756 1.386 . S
C1760 C1755 1.490 . S
C1760 C1762 1.395 . S
C1760 C1763 1.403 . S
H1761 C1767 0.930 . S
C1762 H1748 0.930 . S
C1762 C1760 1.395 . S
C1762 C1765 1.403 . S
C1763 C1760 1.403 . S
C1763 C1764 1.524 . S
C1763 C1767 1.400 . S
C1764 H1749 0.960 . S
C1764 H1750 0.960 . S
C1764 H1751 0.960 . S
C1764 C1763 1.524 . S
C1765 C1762 1.403 . S
C1765 C1766 1.392 . S
C1765 C1769 1.495 . S
C1766 C1765 1.392 . S
C1766 C1767 1.385 . S
C1766 C1768 1.478 . S
C1767 H1761 0.930 . S
C1767 C1763 1.400 . S
C1767 C1766 1.385 . S
C1768 C1766 1.478 . S
C1768 C1770 1.381 . S
C1768 C1774 1.383 . S
C1769 C1765 1.495 . S
C1769 H1775 0.959 . S
C1769 H1776 0.961 . S
C1769 H1777 0.960 . S
C1770 C1768 1.381 . S
C1770 C1771 1.394 . S
C1770 H1778 0.930 . S
C1771 C1770 1.394 . S
C1771 C1772 1.383 . S
C1771 H1779 0.929 . S
C1772 C1771 1.383 . S
C1772 C1773 1.377 . S
C1773 H1757 0.930 . S
C1773 C1772 1.377 . S
C1773 C1774 1.379 . S
C1774 H1758 0.931 . S
C1774 C1768 1.383 . S
C1774 C1773 1.379 . S
H1775 C1769 0.959 . S
H1776 C1769 0.961 . S
H1777 C1769 0.960 . S
H1778 C1770 0.930 . S
H1779 C1771 0.929 . S
H1780 C1788 0.929 . S
H1781 C1790 0.930 . S
H1782 C1792 0.930 . S
H1783 C1795 0.929 . S
H1784 C1798 0.930 . S
H1785 C1800 0.960 . S
H1786 C1800 0.960 . S
H1787 C1800 0.960 . S
C1788 H1780 0.929 . S
C1788 C1789 1.377 . S
C1788 C1790 1.384 . S
C1789 C1788 1.377 . S
C1789 C1795 1.390 . S
C1790 H1781 0.930 . S
C1790 C1788 1.384 . S
C1790 C1791 1.372 . S
C1791 C1790 1.372 . S
C1791 C1792 1.400 . S
C1791 C1796 1.490 . S
C1792 H1782 0.930 . S
C1792 C1791 1.400 . S
C1792 C1795 1.386 . S
H1793 C1809 0.930 . S
H1794 C1810 0.931 . S
C1795 H1783 0.929 . S
C1795 C1789 1.390 . S
C1795 C1792 1.386 . S
C1796 C1791 1.490 . S
C1796 C1798 1.395 . S
C1796 C1799 1.403 . S
H1797 C1803 0.930 . S
C1798 H1784 0.930 . S
C1798 C1796 1.395 . S
C1798 C1801 1.403 . S
C1799 C1796 1.403 . S
C1799 C1800 1.524 . S
C1799 C1803 1.400 . S
C1800 H1785 0.960 . S
C1800 H1786 0.960 . S
C1800 H1787 0.960 . S
C1800 C1799 1.524 . S
C1801 C1798 1.403 . S
C1801 C1802 1.392 . S
C1801 C1805 1.495 . S
C1802 C1801 1.392 . S
C1802 C1803 1.385 . S
C1802 C1804 1.478 . S
C1803 H1797 0.930 . S
C1803 C1799 1.400 . S
C1803 C1802 1.385 . S
C1804 C1802 1.478 . S
C1804 C1806 1.381 . S
C1804 C1810 1.383 . S
C1805 C1801 1.495 . S
C1805 H1811 0.959 . S
C1805 H1812 0.961 . S
C1805 H1813 0.960 . S
C1806 C1804 1.381 . S
C1806 C1807 1.394 . S
C1806 H1814 0.930 . S
C1807 C1806 1.394 . S
C1807 C1808 1.383 . S
C1807 H1815 0.929 . S
C1808 C1807 1.383 . S
C1808 C1809 1.377 . S
C1809 H1793 0.930 . S
C1809 C1808 1.377 . S
C1809 C1810 1.379 . S
C1810 H1794 0.931 . S
C1810 C1804 1.383 . S
C1810 C1809 1.379 . S
H1811 C1805 0.959 . S
H1812 C1805 0.961 . S
H1813 C1805 0.960 . S
H1814 C1806 0.930 . S
H1815 C1807 0.929 . S
H1816 C1824 0.929 . S
H1817 C1826 0.930 . S
H1818 C1828 0.930 . S
H1819 C1831 0.929 . S
H1820 C1834 0.930 . S
H1821 C1836 0.960 . S
H1822 C1836 0.960 . S
H1823 C1836 0.960 . S
C1824 H1816 0.929 . S
C1824 C1825 1.377 . S
C1824 C1826 1.384 . S
C1825 C1824 1.377 . S
C1825 C1831 1.390 . S
C1826 H1817 0.930 . S
C1826 C1824 1.384 . S
C1826 C1827 1.372 . S
C1827 C1826 1.372 . S
C1827 C1828 1.400 . S
C1827 C1832 1.490 . S
C1828 H1818 0.930 . S
C1828 C1827 1.400 . S
C1828 C1831 1.386 . S
H1829 C1845 0.930 . S
H1830 C1846 0.931 . S
C1831 H1819 0.929 . S
C1831 C1825 1.390 . S
C1831 C1828 1.386 . S
C1832 C1827 1.490 . S
C1832 C1834 1.395 . S
C1832 C1835 1.403 . S
H1833 C1839 0.930 . S
C1834 H1820 0.930 . S
C1834 C1832 1.395 . S
C1834 C1837 1.403 . S
C1835 C1832 1.403 . S
C1835 C1836 1.524 . S
C1835 C1839 1.400 . S
C1836 H1821 0.960 . S
C1836 H1822 0.960 . S
C1836 H1823 0.960 . S
C1836 C1835 1.524 . S
C1837 C1834 1.403 . S
C1837 C1838 1.392 . S
C1837 C1841 1.495 . S
C1838 C1837 1.392 . S
C1838 C1839 1.385 . S
C1838 C1840 1.478 . S
C1839 H1833 0.930 . S
C1839 C1835 1.400 . S
C1839 C1838 1.385 . S
C1840 C1838 1.478 . S
C1840 C1842 1.381 . S
C1840 C1846 1.383 . S
C1841 C1837 1.495 . S
C1841 H1847 0.959 . S
C1841 H1848 0.961 . S
C1841 H1849 0.960 . S
C1842 C1840 1.381 . S
C1842 C1843 1.394 . S
C1842 H1850 0.930 . S
C1843 C1842 1.394 . S
C1843 C1844 1.383 . S
C1843 H1851 0.929 . S
C1844 C1843 1.383 . S
C1844 C1845 1.377 . S
C1845 H1829 0.930 . S
C1845 C1844 1.377 . S
C1845 C1846 1.379 . S
C1846 H1830 0.931 . S
C1846 C1840 1.383 . S
C1846 C1845 1.379 . S
H1847 C1841 0.959 . S
H1848 C1841 0.961 . S
H1849 C1841 0.960 . S
H1850 C1842 0.930 . S
H1851 C1843 0.929 . S
H1852 C1860 0.929 . S
H1853 C1862 0.930 . S
H1854 C1864 0.930 . S
H1855 C1867 0.929 . S
H1856 C1870 0.930 . S
H1857 C1872 0.960 . S
H1858 C1872 0.960 . S
H1859 C1872 0.960 . S
C1860 H1852 0.929 . S
C1860 C1861 1.377 . S
C1860 C1862 1.384 . S
C1861 C1860 1.377 . S
C1861 C1867 1.390 . S
C1862 H1853 0.930 . S
C1862 C1860 1.384 . S
C1862 C1863 1.372 . S
C1863 C1862 1.372 . S
C1863 C1864 1.400 . S
C1863 C1868 1.490 . S
C1864 H1854 0.930 . S
C1864 C1863 1.400 . S
C1864 C1867 1.386 . S
H1865 C1881 0.930 . S
H1866 C1882 0.931 . S
C1867 H1855 0.929 . S
C1867 C1861 1.390 . S
C1867 C1864 1.386 . S
C1868 C1863 1.490 . S
C1868 C1870 1.395 . S
C1868 C1871 1.403 . S
H1869 C1875 0.930 . S
C1870 H1856 0.930 . S
C1870 C1868 1.395 . S
C1870 C1873 1.403 . S
C1871 C1868 1.403 . S
C1871 C1872 1.524 . S
C1871 C1875 1.400 . S
C1872 H1857 0.960 . S
C1872 H1858 0.960 . S
C1872 H1859 0.960 . S
C1872 C1871 1.524 . S
C1873 C1870 1.403 . S
C1873 C1874 1.392 . S
C1873 C1877 1.495 . S
C1874 C1873 1.392 . S
C1874 C1875 1.385 . S
C1874 C1876 1.478 . S
C1875 H1869 0.930 . S
C1875 C1871 1.400 . S
C1875 C1874 1.385 . S
C1876 C1874 1.478 . S
C1876 C1878 1.381 . S
C1876 C1882 1.383 . S
C1877 C1873 1.495 . S
C1877 H1883 0.959 . S
C1877 H1884 0.961 . S
C1877 H1885 0.960 . S
C1878 C1876 1.381 . S
C1878 C1879 1.394 . S
C1878 H1886 0.930 . S
C1879 C1878 1.394 . S
C1879 C1880 1.383 . S
C1879 H1887 0.929 . S
C1880 C1879 1.383 . S
C1880 C1881 1.377 . S
C1881 H1865 0.930 . S
C1881 C1880 1.377 . S
C1881 C1882 1.379 . S
C1882 H1866 0.931 . S
C1882 C1876 1.383 . S
C1882 C1881 1.379 . S
H1883 C1877 0.959 . S
H1884 C1877 0.961 . S
H1885 C1877 0.960 . S
H1886 C1878 0.930 . S
H1887 C1879 0.929 . S
H1888 C1896 0.929 . S
H1889 C1898 0.930 . S
H1890 C1900 0.930 . S
H1891 C1903 0.929 . S
H1892 C1906 0.930 . S
H1893 C1908 0.960 . S
H1894 C1908 0.960 . S
H1895 C1908 0.960 . S
C1896 H1888 0.929 . S
C1896 C1897 1.377 . S
C1896 C1898 1.384 . S
C1897 C1896 1.377 . S
C1897 C1903 1.390 . S
C1898 H1889 0.930 . S
C1898 C1896 1.384 . S
C1898 C1899 1.372 . S
C1899 C1898 1.372 . S
C1899 C1900 1.400 . S
C1899 C1904 1.490 . S
C1900 H1890 0.930 . S
C1900 C1899 1.400 . S
C1900 C1903 1.386 . S
H1901 C1917 0.930 . S
H1902 C1918 0.931 . S
C1903 H1891 0.929 . S
C1903 C1897 1.390 . S
C1903 C1900 1.386 . S
C1904 C1899 1.490 . S
C1904 C1906 1.395 . S
C1904 C1907 1.403 . S
H1905 C1911 0.930 . S
C1906 H1892 0.930 . S
C1906 C1904 1.395 . S
C1906 C1909 1.403 . S
C1907 C1904 1.403 . S
C1907 C1908 1.524 . S
C1907 C1911 1.400 . S
C1908 H1893 0.960 . S
C1908 H1894 0.960 . S
C1908 H1895 0.960 . S
C1908 C1907 1.524 . S
C1909 C1906 1.403 . S
C1909 C1910 1.392 . S
C1909 C1913 1.495 . S
C1910 C1909 1.392 . S
C1910 C1911 1.385 . S
C1910 C1912 1.478 . S
C1911 H1905 0.930 . S
C1911 C1907 1.400 . S
C1911 C1910 1.385 . S
C1912 C1910 1.478 . S
C1912 C1914 1.381 . S
C1912 C1918 1.383 . S
C1913 C1909 1.495 . S
C1913 H1919 0.959 . S
C1913 H1920 0.961 . S
C1913 H1921 0.960 . S
C1914 C1912 1.381 . S
C1914 C1915 1.394 . S
C1914 H1922 0.930 . S
C1915 C1914 1.394 . S
C1915 C1916 1.383 . S
C1915 H1923 0.929 . S
C1916 C1915 1.383 . S
C1916 C1917 1.377 . S
C1917 H1901 0.930 . S
C1917 C1916 1.377 . S
C1917 C1918 1.379 . S
C1918 H1902 0.931 . S
C1918 C1912 1.383 . S
C1918 C1917 1.379 . S
H1919 C1913 0.959 . S
H1920 C1913 0.961 . S
H1921 C1913 0.960 . S
H1922 C1914 0.930 . S
H1923 C1915 0.929 . S
H1924 C1932 0.929 . S
H1925 C1934 0.930 . S
H1926 C1936 0.930 . S
H1927 C1939 0.929 . S
H1928 C1942 0.930 . S
H1929 C1944 0.960 . S
H1930 C1944 0.960 . S
H1931 C1944 0.960 . S
C1932 H1924 0.929 . S
C1932 C1933 1.377 . S
C1932 C1934 1.384 . S
C1933 C1932 1.377 . S
C1933 C1939 1.390 . S
C1934 H1925 0.930 . S
C1934 C1932 1.384 . S
C1934 C1935 1.372 . S
C1935 C1934 1.372 . S
C1935 C1936 1.400 . S
C1935 C1940 1.490 . S
C1936 H1926 0.930 . S
C1936 C1935 1.400 . S
C1936 C1939 1.386 . S
H1937 C1953 0.930 . S
H1938 C1954 0.931 . S
C1939 H1927 0.929 . S
C1939 C1933 1.390 . S
C1939 C1936 1.386 . S
C1940 C1935 1.490 . S
C1940 C1942 1.395 . S
C1940 C1943 1.403 . S
H1941 C1947 0.930 . S
C1942 H1928 0.930 . S
C1942 C1940 1.395 . S
C1942 C1945 1.403 . S
C1943 C1940 1.403 . S
C1943 C1944 1.524 . S
C1943 C1947 1.400 . S
C1944 H1929 0.960 . S
C1944 H1930 0.960 . S
C1944 H1931 0.960 . S
C1944 C1943 1.524 . S
C1945 C1942 1.403 . S
C1945 C1946 1.392 . S
C1945 C1949 1.495 . S
C1946 C1945 1.392 . S
C1946 C1947 1.385 . S
C1946 C1948 1.478 . S
C1947 H1941 0.930 . S
C1947 C1943 1.400 . S
C1947 C1946 1.385 . S
C1948 C1946 1.478 . S
C1948 C1950 1.381 . S
C1948 C1954 1.383 . S
C1949 C1945 1.495 . S
C1949 H1955 0.959 . S
C1949 H1956 0.961 . S
C1949 H1957 0.960 . S
C1950 C1948 1.381 . S
C1950 C1951 1.394 . S
C1950 H1958 0.930 . S
C1951 C1950 1.394 . S
C1951 C1952 1.383 . S
C1951 H1959 0.929 . S
C1952 C1951 1.383 . S
C1952 C1953 1.377 . S
C1953 H1937 0.930 . S
C1953 C1952 1.377 . S
C1953 C1954 1.379 . S
C1954 H1938 0.931 . S
C1954 C1948 1.383 . S
C1954 C1953 1.379 . S
H1955 C1949 0.959 . S
H1956 C1949 0.961 . S
H1957 C1949 0.960 . S
H1958 C1950 0.930 . S
H1959 C1951 0.929 . S
H1960 C1968 0.929 . S
H1961 C1970 0.930 . S
H1962 C1972 0.930 . S
H1963 C1975 0.929 . S
H1964 C1978 0.930 . S
H1965 C1980 0.960 . S
H1966 C1980 0.960 . S
H1967 C1980 0.960 . S
C1968 H1960 0.929 . S
C1968 C1969 1.377 . S
C1968 C1970 1.384 . S
C1969 C1968 1.377 . S
C1969 C1975 1.390 . S
C1970 H1961 0.930 . S
C1970 C1968 1.384 . S
C1970 C1971 1.372 . S
C1971 C1970 1.372 . S
C1971 C1972 1.400 . S
C1971 C1976 1.490 . S
C1972 H1962 0.930 . S
C1972 C1971 1.400 . S
C1972 C1975 1.386 . S
H1973 C1989 0.930 . S
H1974 C1990 0.931 . S
C1975 H1963 0.929 . S
C1975 C1969 1.390 . S
C1975 C1972 1.386 . S
C1976 C1971 1.490 . S
C1976 C1978 1.395 . S
C1976 C1979 1.403 . S
H1977 C1983 0.930 . S
C1978 H1964 0.930 . S
C1978 C1976 1.395 . S
C1978 C1981 1.403 . S
C1979 C1976 1.403 . S
C1979 C1980 1.524 . S
C1979 C1983 1.400 . S
C1980 H1965 0.960 . S
C1980 H1966 0.960 . S
C1980 H1967 0.960 . S
C1980 C1979 1.524 . S
C1981 C1978 1.403 . S
C1981 C1982 1.392 . S
C1981 C1985 1.495 . S
C1982 C1981 1.392 . S
C1982 C1983 1.385 . S
C1982 C1984 1.478 . S
C1983 H1977 0.930 . S
C1983 C1979 1.400 . S
C1983 C1982 1.385 . S
C1984 C1982 1.478 . S
C1984 C1986 1.381 . S
C1984 C1990 1.383 . S
C1985 C1981 1.495 . S
C1985 H1991 0.959 . S
C1985 H1992 0.961 . S
C1985 H1993 0.960 . S
C1986 C1984 1.381 . S
C1986 C1987 1.394 . S
C1986 H1994 0.930 . S
C1987 C1986 1.394 . S
C1987 C1988 1.383 . S
C1987 H1995 0.929 . S
C1988 C1987 1.383 . S
C1988 C1989 1.377 . S
C1989 H1973 0.930 . S
C1989 C1988 1.377 . S
C1989 C1990 1.379 . S
C1990 H1974 0.931 . S
C1990 C1984 1.383 . S
C1990 C1989 1.379 . S
H1991 C1985 0.959 . S
H1992 C1985 0.961 . S
H1993 C1985 0.960 . S
H1994 C1986 0.930 . S
H1995 C1987 0.929 . S
H1996 C2004 0.929 . S
H1997 C2006 0.930 . S
H1998 C2008 0.930 . S
H1999 C2011 0.929 . S
H2000 C2014 0.930 . S
H2001 C2016 0.960 . S
H2002 C2016 0.960 . S
H2003 C2016 0.960 . S
C2004 H1996 0.929 . S
C2004 C2005 1.377 . S
C2004 C2006 1.384 . S
C2005 C2004 1.377 . S
C2005 C2011 1.390 . S
C2006 H1997 0.930 . S
C2006 C2004 1.384 . S
C2006 C2007 1.372 . S
C2007 C2006 1.372 . S
C2007 C2008 1.400 . S
C2007 C2012 1.490 . S
C2008 H1998 0.930 . S
C2008 C2007 1.400 . S
C2008 C2011 1.386 . S
H2009 C2025 0.930 . S
H2010 C2026 0.931 . S
C2011 H1999 0.929 . S
C2011 C2005 1.390 . S
C2011 C2008 1.386 . S
C2012 C2007 1.490 . S
C2012 C2014 1.395 . S
C2012 C2015 1.403 . S
H2013 C2019 0.930 . S
C2014 H2000 0.930 . S
C2014 C2012 1.395 . S
C2014 C2017 1.403 . S
C2015 C2012 1.403 . S
C2015 C2016 1.524 . S
C2015 C2019 1.400 . S
C2016 H2001 0.960 . S
C2016 H2002 0.960 . S
C2016 H2003 0.960 . S
C2016 C2015 1.524 . S
C2017 C2014 1.403 . S
C2017 C2018 1.392 . S
C2017 C2021 1.495 . S
C2018 C2017 1.392 . S
C2018 C2019 1.385 . S
C2018 C2020 1.478 . S
C2019 H2013 0.930 . S
C2019 C2015 1.400 . S
C2019 C2018 1.385 . S
C2020 C2018 1.478 . S
C2020 C2022 1.381 . S
C2020 C2026 1.383 . S
C2021 C2017 1.495 . S
C2021 H2027 0.959 . S
C2021 H2028 0.961 . S
C2021 H2029 0.960 . S
C2022 C2020 1.381 . S
C2022 C2023 1.394 . S
C2022 H2030 0.930 . S
C2023 C2022 1.394 . S
C2023 C2024 1.383 . S
C2023 H2031 0.929 . S
C2024 C2023 1.383 . S
C2024 C2025 1.377 . S
C2025 H2009 0.930 . S
C2025 C2024 1.377 . S
C2025 C2026 1.379 . S
C2026 H2010 0.931 . S
C2026 C2020 1.383 . S
C2026 C2025 1.379 . S
H2027 C2021 0.959 . S
H2028 C2021 0.961 . S
H2029 C2021 0.960 . S
H2030 C2022 0.930 . S
H2031 C2023 0.929 . S
H2032 C2040 0.929 . S
H2033 C2042 0.930 . S
H2034 C2044 0.930 . S
H2035 C2047 0.929 . S
H2036 C2050 0.930 . S
H2037 C2052 0.960 . S
H2038 C2052 0.960 . S
H2039 C2052 0.960 . S
C2040 H2032 0.929 . S
C2040 C2041 1.377 . S
C2040 C2042 1.384 . S
C2041 C2040 1.377 . S
C2041 C2047 1.390 . S
C2042 H2033 0.930 . S
C2042 C2040 1.384 . S
C2042 C2043 1.372 . S
C2043 C2042 1.372 . S
C2043 C2044 1.400 . S
C2043 C2048 1.490 . S
C2044 H2034 0.930 . S
C2044 C2043 1.400 . S
C2044 C2047 1.386 . S
H2045 C2061 0.930 . S
H2046 C2062 0.931 . S
C2047 H2035 0.929 . S
C2047 C2041 1.390 . S
C2047 C2044 1.386 . S
C2048 C2043 1.490 . S
C2048 C2050 1.395 . S
C2048 C2051 1.403 . S
H2049 C2055 0.930 . S
C2050 H2036 0.930 . S
C2050 C2048 1.395 . S
C2050 C2053 1.403 . S
C2051 C2048 1.403 . S
C2051 C2052 1.524 . S
C2051 C2055 1.400 . S
C2052 H2037 0.960 . S
C2052 H2038 0.960 . S
C2052 H2039 0.960 . S
C2052 C2051 1.524 . S
C2053 C2050 1.403 . S
C2053 C2054 1.392 . S
C2053 C2057 1.495 . S
C2054 C2053 1.392 . S
C2054 C2055 1.385 . S
C2054 C2056 1.478 . S
C2055 H2049 0.930 . S
C2055 C2051 1.400 . S
C2055 C2054 1.385 . S
C2056 C2054 1.478 . S
C2056 C2058 1.381 . S
C2056 C2062 1.383 . S
C2057 C2053 1.495 . S
C2057 H2063 0.959 . S
C2057 H2064 0.961 . S
C2057 H2065 0.960 . S
C2058 C2056 1.381 . S
C2058 C2059 1.394 . S
C2058 H2066 0.930 . S
C2059 C2058 1.394 . S
C2059 C2060 1.383 . S
C2059 H2067 0.929 . S
C2060 C2059 1.383 . S
C2060 C2061 1.377 . S
C2061 H2045 0.930 . S
C2061 C2060 1.377 . S
C2061 C2062 1.379 . S
C2062 H2046 0.931 . S
C2062 C2056 1.383 . S
C2062 C2061 1.379 . S
H2063 C2057 0.959 . S
H2064 C2057 0.961 . S
H2065 C2057 0.960 . S
H2066 C2058 0.930 . S
H2067 C2059 0.929 . S
H2068 C2076 0.929 . S
H2069 C2078 0.930 . S
H2070 C2080 0.930 . S
H2071 C2083 0.929 . S
H2072 C2086 0.930 . S
H2073 C2088 0.960 . S
H2074 C2088 0.960 . S
H2075 C2088 0.960 . S
C2076 H2068 0.929 . S
C2076 C2077 1.377 . S
C2076 C2078 1.384 . S
C2077 C2076 1.377 . S
C2077 C2083 1.390 . S
C2078 H2069 0.930 . S
C2078 C2076 1.384 . S
C2078 C2079 1.372 . S
C2079 C2078 1.372 . S
C2079 C2080 1.400 . S
C2079 C2084 1.490 . S
C2080 H2070 0.930 . S
C2080 C2079 1.400 . S
C2080 C2083 1.386 . S
H2081 C2097 0.930 . S
H2082 C2098 0.931 . S
C2083 H2071 0.929 . S
C2083 C2077 1.390 . S
C2083 C2080 1.386 . S
C2084 C2079 1.490 . S
C2084 C2086 1.395 . S
C2084 C2087 1.403 . S
H2085 C2091 0.930 . S
C2086 H2072 0.930 . S
C2086 C2084 1.395 . S
C2086 C2089 1.403 . S
C2087 C2084 1.403 . S
C2087 C2088 1.524 . S
C2087 C2091 1.400 . S
C2088 H2073 0.960 . S
C2088 H2074 0.960 . S
C2088 H2075 0.960 . S
C2088 C2087 1.524 . S
C2089 C2086 1.403 . S
C2089 C2090 1.392 . S
C2089 C2093 1.495 . S
C2090 C2089 1.392 . S
C2090 C2091 1.385 . S
C2090 C2092 1.478 . S
C2091 H2085 0.930 . S
C2091 C2087 1.400 . S
C2091 C2090 1.385 . S
C2092 C2090 1.478 . S
C2092 C2094 1.381 . S
C2092 C2098 1.383 . S
C2093 C2089 1.495 . S
C2093 H2099 0.959 . S
C2093 H2100 0.961 . S
C2093 H2101 0.960 . S
C2094 C2092 1.381 . S
C2094 C2095 1.394 . S
C2094 H2102 0.930 . S
C2095 C2094 1.394 . S
C2095 C2096 1.383 . S
C2095 H2103 0.929 . S
C2096 C2095 1.383 . S
C2096 C2097 1.377 . S
C2097 H2081 0.930 . S
C2097 C2096 1.377 . S
C2097 C2098 1.379 . S
C2098 H2082 0.931 . S
C2098 C2092 1.383 . S
C2098 C2097 1.379 . S
H2099 C2093 0.959 . S
H2100 C2093 0.961 . S
H2101 C2093 0.960 . S
H2102 C2094 0.930 . S
H2103 C2095 0.929 . S
H2104 C2112 0.929 . S
H2105 C2114 0.930 . S
H2106 C2116 0.930 . S
H2107 C2119 0.929 . S
H2108 C2122 0.930 . S
H2109 C2124 0.960 . S
H2110 C2124 0.960 . S
H2111 C2124 0.960 . S
C2112 H2104 0.929 . S
C2112 C2113 1.377 . S
C2112 C2114 1.384 . S
C2113 C2112 1.377 . S
C2113 C2119 1.390 . S
C2114 H2105 0.930 . S
C2114 C2112 1.384 . S
C2114 C2115 1.372 . S
C2115 C2114 1.372 . S
C2115 C2116 1.400 . S
C2115 C2120 1.490 . S
C2116 H2106 0.930 . S
C2116 C2115 1.400 . S
C2116 C2119 1.386 . S
H2117 C2133 0.930 . S
H2118 C2134 0.931 . S
C2119 H2107 0.929 . S
C2119 C2113 1.390 . S
C2119 C2116 1.386 . S
C2120 C2115 1.490 . S
C2120 C2122 1.395 . S
C2120 C2123 1.403 . S
H2121 C2127 0.930 . S
C2122 H2108 0.930 . S
C2122 C2120 1.395 . S
C2122 C2125 1.403 . S
C2123 C2120 1.403 . S
C2123 C2124 1.524 . S
C2123 C2127 1.400 . S
C2124 H2109 0.960 . S
C2124 H2110 0.960 . S
C2124 H2111 0.960 . S
C2124 C2123 1.524 . S
C2125 C2122 1.403 . S
C2125 C2126 1.392 . S
C2125 C2129 1.495 . S
C2126 C2125 1.392 . S
C2126 C2127 1.385 . S
C2126 C2128 1.478 . S
C2127 H2121 0.930 . S
C2127 C2123 1.400 . S
C2127 C2126 1.385 . S
C2128 C2126 1.478 . S
C2128 C2130 1.381 . S
C2128 C2134 1.383 . S
C2129 C2125 1.495 . S
C2129 H2135 0.959 . S
C2129 H2136 0.961 . S
C2129 H2137 0.960 . S
C2130 C2128 1.381 . S
C2130 C2131 1.394 . S
C2130 H2138 0.930 . S
C2131 C2130 1.394 . S
C2131 C2132 1.383 . S
C2131 H2139 0.929 . S
C2132 C2131 1.383 . S
C2132 C2133 1.377 . S
C2133 H2117 0.930 . S
C2133 C2132 1.377 . S
C2133 C2134 1.379 . S
C2134 H2118 0.931 . S
C2134 C2128 1.383 . S
C2134 C2133 1.379 . S
H2135 C2129 0.959 . S
H2136 C2129 0.961 . S
H2137 C2129 0.960 . S
H2138 C2130 0.930 . S
H2139 C2131 0.929 . S
H2140 C2148 0.929 . S
H2141 C2150 0.930 . S
H2142 C2152 0.930 . S
H2143 C2155 0.929 . S
H2144 C2158 0.930 . S
H2145 C2160 0.960 . S
H2146 C2160 0.960 . S
H2147 C2160 0.960 . S
C2148 H2140 0.929 . S
C2148 C2149 1.377 . S
C2148 C2150 1.384 . S
C2149 C2148 1.377 . S
C2149 C2155 1.390 . S
C2150 H2141 0.930 . S
C2150 C2148 1.384 . S
C2150 C2151 1.372 . S
C2151 C2150 1.372 . S
C2151 C2152 1.400 . S
C2151 C2156 1.490 . S
C2152 H2142 0.930 . S
C2152 C2151 1.400 . S
C2152 C2155 1.386 . S
H2153 C2169 0.930 . S
H2154 C2170 0.931 . S
C2155 H2143 0.929 . S
C2155 C2149 1.390 . S
C2155 C2152 1.386 . S
C2156 C2151 1.490 . S
C2156 C2158 1.395 . S
C2156 C2159 1.403 . S
H2157 C2163 0.930 . S
C2158 H2144 0.930 . S
C2158 C2156 1.395 . S
C2158 C2161 1.403 . S
C2159 C2156 1.403 . S
C2159 C2160 1.524 . S
C2159 C2163 1.400 . S
C2160 H2145 0.960 . S
C2160 H2146 0.960 . S
C2160 H2147 0.960 . S
C2160 C2159 1.524 . S
C2161 C2158 1.403 . S
C2161 C2162 1.392 . S
C2161 C2165 1.495 . S
C2162 C2161 1.392 . S
C2162 C2163 1.385 . S
C2162 C2164 1.478 . S
C2163 H2157 0.930 . S
C2163 C2159 1.400 . S
C2163 C2162 1.385 . S
C2164 C2162 1.478 . S
C2164 C2166 1.381 . S
C2164 C2170 1.383 . S
C2165 C2161 1.495 . S
C2165 H2171 0.959 . S
C2165 H2172 0.961 . S
C2165 H2173 0.960 . S
C2166 C2164 1.381 . S
C2166 C2167 1.394 . S
C2166 H2174 0.930 . S
C2167 C2166 1.394 . S
C2167 C2168 1.383 . S
C2167 H2175 0.929 . S
C2168 C2167 1.383 . S
C2168 C2169 1.377 . S
C2169 H2153 0.930 . S
C2169 C2168 1.377 . S
C2169 C2170 1.379 . S
C2170 H2154 0.931 . S
C2170 C2164 1.383 . S
C2170 C2169 1.379 . S
H2171 C2165 0.959 . S
H2172 C2165 0.961 . S
H2173 C2165 0.960 . S
H2174 C2166 0.930 . S
H2175 C2167 0.929 . S
H2176 C2184 0.929 . S
H2177 C2186 0.930 . S
H2178 C2188 0.930 . S
H2179 C2191 0.929 . S
H2180 C2194 0.930 . S
H2181 C2196 0.960 . S
H2182 C2196 0.960 1_455 S
H2183 C2196 0.960 . S
C2184 H2176 0.929 . S
C2184 C2185 1.377 . S
C2184 C2186 1.384 . S
C2185 C2184 1.377 . S
C2185 C2191 1.390 . S
C2186 H2177 0.930 . S
C2186 C2184 1.384 . S
C2186 C2187 1.372 . S
C2187 C2186 1.372 . S
C2187 C2188 1.400 . S
C2187 C2192 1.490 . S
C2188 H2178 0.930 . S
C2188 C2187 1.400 . S
C2188 C2191 1.386 . S
H2189 C2205 0.930 . S
H2190 C2206 0.931 . S
C2191 H2179 0.929 . S
C2191 C2185 1.390 . S
C2191 C2188 1.386 . S
C2192 C2187 1.490 . S
C2192 C2194 1.395 . S
C2192 C2195 1.403 . S
H2193 C2199 0.930 . S
C2194 H2180 0.930 . S
C2194 C2192 1.395 . S
C2194 C2197 1.403 . S
C2195 C2192 1.403 . S
C2195 C2196 1.524 1_455 S
C2195 C2199 1.400 . S
C2196 H2181 0.960 . S
C2196 H2182 0.960 1_655 S
C2196 H2183 0.960 . S
C2196 C2195 1.524 1_655 S
C2197 C2194 1.403 . S
C2197 C2198 1.392 . S
C2197 C2201 1.495 . S
C2198 C2197 1.392 . S
C2198 C2199 1.385 . S
C2198 C2200 1.478 . S
C2199 H2193 0.930 . S
C2199 C2195 1.400 . S
C2199 C2198 1.385 . S
C2200 C2198 1.478 . S
C2200 C2202 1.381 . S
C2200 C2206 1.383 . S
C2201 C2197 1.495 . S
C2201 H2207 0.959 . S
C2201 H2208 0.961 . S
C2201 H2209 0.960 . S
C2202 C2200 1.381 . S
C2202 C2203 1.394 . S
C2202 H2210 0.930 . S
C2203 C2202 1.394 . S
C2203 C2204 1.383 . S
C2203 H2211 0.929 . S
C2204 C2203 1.383 . S
C2204 C2205 1.377 . S
C2205 H2189 0.930 . S
C2205 C2204 1.377 . S
C2205 C2206 1.379 . S
C2206 H2190 0.931 . S
C2206 C2200 1.383 . S
C2206 C2205 1.379 . S
H2207 C2201 0.959 . S
H2208 C2201 0.961 . S
H2209 C2201 0.960 . S
H2210 C2202 0.930 . S
H2211 C2203 0.929 . S
H2212 C2220 0.929 . S
H2213 C2222 0.930 . S
H2214 C2224 0.930 . S
H2215 C2227 0.929 . S
H2216 C2230 0.930 . S
H2217 C2232 0.960 . S
H2218 C2232 0.960 . S
H2219 C2232 0.960 . S
C2220 H2212 0.929 . S
C2220 C2221 1.377 . S
C2220 C2222 1.384 . S
C2221 C2220 1.377 . S
C2221 C2227 1.390 . S
C2222 H2213 0.930 . S
C2222 C2220 1.384 . S
C2222 C2223 1.372 . S
C2223 C2222 1.372 . S
C2223 C2224 1.400 . S
C2223 C2228 1.490 . S
C2224 H2214 0.930 . S
C2224 C2223 1.400 . S
C2224 C2227 1.386 . S
H2225 C2241 0.930 . S
H2226 C2242 0.931 . S
C2227 H2215 0.929 . S
C2227 C2221 1.390 . S
C2227 C2224 1.386 . S
C2228 C2223 1.490 . S
C2228 C2230 1.395 . S
C2228 C2231 1.403 . S
H2229 C2235 0.930 . S
C2230 H2216 0.930 . S
C2230 C2228 1.395 . S
C2230 C2233 1.403 . S
C2231 C2228 1.403 . S
C2231 C2232 1.524 . S
C2231 C2235 1.400 . S
C2232 H2217 0.960 . S
C2232 H2218 0.960 . S
C2232 H2219 0.960 . S
C2232 C2231 1.524 . S
C2233 C2230 1.403 . S
C2233 C2234 1.392 . S
C2233 C2237 1.495 . S
C2234 C2233 1.392 . S
C2234 C2235 1.385 . S
C2234 C2236 1.478 . S
C2235 H2229 0.930 . S
C2235 C2231 1.400 . S
C2235 C2234 1.385 . S
C2236 C2234 1.478 . S
C2236 C2238 1.381 . S
C2236 C2242 1.383 . S
C2237 C2233 1.495 . S
C2237 H2243 0.959 . S
C2237 H2244 0.961 . S
C2237 H2245 0.960 . S
C2238 C2236 1.381 . S
C2238 C2239 1.394 . S
C2238 H2246 0.930 . S
C2239 C2238 1.394 . S
C2239 C2240 1.383 . S
C2239 H2247 0.929 . S
C2240 C2239 1.383 . S
C2240 C2241 1.377 . S
C2241 H2225 0.930 . S
C2241 C2240 1.377 . S
C2241 C2242 1.379 . S
C2242 H2226 0.931 . S
C2242 C2236 1.383 . S
C2242 C2241 1.379 . S
H2243 C2237 0.959 . S
H2244 C2237 0.961 . S
H2245 C2237 0.960 . S
H2246 C2238 0.930 . S
H2247 C2239 0.929 . S
H2248 C2256 0.929 . S
H2249 C2258 0.930 . S
H2250 C2260 0.930 . S
H2251 C2263 0.929 . S
H2252 C2266 0.930 . S
H2253 C2268 0.960 . S
H2254 C2268 0.960 . S
H2255 C2268 0.960 . S
C2256 H2248 0.929 . S
C2256 C2257 1.377 . S
C2256 C2258 1.384 . S
C2257 C2256 1.377 . S
C2257 C2263 1.390 . S
C2258 H2249 0.930 . S
C2258 C2256 1.384 . S
C2258 C2259 1.372 . S
C2259 C2258 1.372 . S
C2259 C2260 1.400 . S
C2259 C2264 1.490 . S
C2260 H2250 0.930 . S
C2260 C2259 1.400 . S
C2260 C2263 1.386 . S
H2261 C2277 0.930 . S
H2262 C2278 0.931 . S
C2263 H2251 0.929 . S
C2263 C2257 1.390 . S
C2263 C2260 1.386 . S
C2264 C2259 1.490 . S
C2264 C2266 1.395 . S
C2264 C2267 1.403 . S
H2265 C2271 0.930 . S
C2266 H2252 0.930 . S
C2266 C2264 1.395 . S
C2266 C2269 1.403 . S
C2267 C2264 1.403 . S
C2267 C2268 1.524 . S
C2267 C2271 1.400 . S
C2268 H2253 0.960 . S
C2268 H2254 0.960 . S
C2268 H2255 0.960 . S
C2268 C2267 1.524 . S
C2269 C2266 1.403 . S
C2269 C2270 1.392 . S
C2269 C2273 1.495 . S
C2270 C2269 1.392 . S
C2270 C2271 1.385 . S
C2270 C2272 1.478 . S
C2271 H2265 0.930 . S
C2271 C2267 1.400 . S
C2271 C2270 1.385 . S
C2272 C2270 1.478 . S
C2272 C2274 1.381 . S
C2272 C2278 1.383 . S
C2273 C2269 1.495 . S
C2273 H2279 0.959 . S
C2273 H2280 0.961 . S
C2273 H2281 0.960 . S
C2274 C2272 1.381 . S
C2274 C2275 1.394 . S
C2274 H2282 0.930 . S
C2275 C2274 1.394 . S
C2275 C2276 1.383 . S
C2275 H2283 0.929 . S
C2276 C2275 1.383 . S
C2276 C2277 1.377 . S
C2277 H2261 0.930 . S
C2277 C2276 1.377 . S
C2277 C2278 1.379 . S
C2278 H2262 0.931 . S
C2278 C2272 1.383 . S
C2278 C2277 1.379 . S
H2279 C2273 0.959 . S
H2280 C2273 0.961 . S
H2281 C2273 0.960 . S
H2282 C2274 0.930 . S
H2283 C2275 0.929 . S
H2284 C2292 0.945 . S
H2285 C2294 0.930 . S
H2286 C2296 0.930 . S
H2287 C2299 0.929 . S
H2288 C2302 0.930 . S
H2289 C2304 0.960 . S
H2290 C2304 0.960 . S
H2291 C2304 0.960 . S
C2292 H2284 0.945 . S
C2292 C2293 1.357 1_554 S
C2292 C2294 1.389 . S
C2293 C2292 1.357 1_556 S
C2293 C2299 1.390 . S
C2294 H2285 0.930 . S
C2294 C2292 1.389 . S
C2294 C2295 1.372 1_554 S
C2295 C2294 1.372 1_556 S
C2295 C2296 1.400 . S
C2295 C2300 1.490 . S
C2296 H2286 0.930 . S
C2296 C2295 1.400 . S
C2296 C2299 1.386 . S
H2297 C2313 0.930 1_556 S
H2298 C2314 0.931 . S
C2299 H2287 0.929 . S
C2299 C2293 1.390 . S
C2299 C2296 1.386 . S
C2300 C2295 1.490 . S
C2300 C2302 1.395 1_556 S
C2300 C2303 1.403 . S
H2301 C2307 0.930 . S
C2302 H2288 0.930 . S
C2302 C2300 1.395 1_554 S
C2302 C2305 1.403 . S
C2303 C2300 1.403 . S
C2303 C2304 1.524 . S
C2303 C2307 1.400 . S
C2304 H2289 0.960 . S
C2304 H2290 0.960 . S
C2304 H2291 0.960 . S
C2304 C2303 1.524 . S
C2305 C2302 1.403 . S
C2305 C2306 1.392 . S
C2305 C2309 1.495 . S
C2306 C2305 1.392 . S
C2306 C2307 1.385 1_554 S
C2306 C2308 1.478 . S
C2307 H2301 0.930 . S
C2307 C2303 1.400 . S
C2307 C2306 1.385 1_556 S
C2308 C2306 1.478 . S
C2308 C2310 1.381 . S
C2308 C2314 1.383 1_554 S
C2309 C2305 1.495 . S
C2309 H2315 0.959 . S
C2309 H2316 0.961 . S
C2309 H2317 0.960 . S
C2310 C2308 1.381 . S
C2310 C2311 1.394 . S
C2310 H2318 0.930 . S
C2311 C2310 1.394 . S
C2311 C2312 1.383 . S
C2311 H2319 0.929 . S
C2312 C2311 1.383 . S
C2312 C2313 1.377 . S
C2313 H2297 0.930 1_554 S
C2313 C2312 1.377 . S
C2313 C2314 1.379 1_554 S
C2314 H2298 0.931 . S
C2314 C2308 1.383 1_556 S
C2314 C2313 1.379 1_556 S
H2315 C2309 0.959 . S
H2316 C2309 0.961 . S
H2317 C2309 0.960 . S
H2318 C2310 0.930 . S
H2319 C2311 0.929 . S
H2320 C2328 0.929 . S
H2321 C2330 0.930 . S
H2322 C2332 0.930 . S
H2323 C2335 0.929 . S
H2324 C2338 0.930 . S
H2325 C2340 0.960 . S
H2326 C2340 0.960 . S
H2327 C2340 0.960 . S
C2328 H2320 0.929 . S
C2328 C2329 1.377 . S
C2328 C2330 1.384 . S
C2329 C2328 1.377 . S
C2329 C2335 1.390 . S
C2330 H2321 0.930 . S
C2330 C2328 1.384 . S
C2330 C2331 1.372 . S
C2331 C2330 1.372 . S
C2331 C2332 1.400 . S
C2331 C2336 1.490 . S
C2332 H2322 0.930 . S
C2332 C2331 1.400 . S
C2332 C2335 1.386 . S
H2333 C2349 0.930 . S
H2334 C2350 0.931 . S
C2335 H2323 0.929 . S
C2335 C2329 1.390 . S
C2335 C2332 1.386 . S
C2336 C2331 1.490 . S
C2336 C2338 1.395 . S
C2336 C2339 1.403 . S
H2337 C2343 0.930 . S
C2338 H2324 0.930 . S
C2338 C2336 1.395 . S
C2338 C2341 1.403 . S
C2339 C2336 1.403 . S
C2339 C2340 1.524 1_655 S
C2339 C2343 1.400 . S
C2340 H2325 0.960 . S
C2340 H2326 0.960 . S
C2340 H2327 0.960 . S
C2340 C2339 1.524 1_455 S
C2341 C2338 1.403 . S
C2341 C2342 1.392 . S
C2341 C2345 1.495 . S
C2342 C2341 1.392 . S
C2342 C2343 1.385 . S
C2342 C2344 1.478 . S
C2343 H2337 0.930 . S
C2343 C2339 1.400 . S
C2343 C2342 1.385 . S
C2344 C2342 1.478 . S
C2344 C2346 1.381 . S
C2344 C2350 1.383 . S
C2345 C2341 1.495 . S
C2345 H2351 0.959 . S
C2345 H2352 0.961 . S
C2345 H2353 0.960 . S
C2346 C2344 1.381 . S
C2346 C2347 1.394 . S
C2346 H2354 0.930 . S
C2347 C2346 1.394 . S
C2347 C2348 1.383 . S
C2347 H2355 0.929 . S
C2348 C2347 1.383 . S
C2348 C2349 1.377 . S
C2349 H2333 0.930 . S
C2349 C2348 1.377 . S
C2349 C2350 1.379 . S
C2350 H2334 0.931 . S
C2350 C2344 1.383 . S
C2350 C2349 1.379 . S
H2351 C2345 0.959 . S
H2352 C2345 0.961 . S
H2353 C2345 0.960 . S
H2354 C2346 0.930 . S
H2355 C2347 0.929 . S
H2356 C2364 0.929 . S
H2357 C2366 0.930 . S
H2358 C2368 0.930 . S
H2359 C2371 0.929 . S
H2360 C2374 0.930 . S
H2361 C2376 0.960 . S
H2362 C2376 0.960 . S
H2363 C2376 0.960 . S
C2364 H2356 0.929 . S
C2364 C2365 1.377 . S
C2364 C2366 1.384 . S
C2365 C2364 1.377 . S
C2365 C2371 1.390 . S
C2366 H2357 0.930 . S
C2366 C2364 1.384 . S
C2366 C2367 1.372 . S
C2367 C2366 1.372 . S
C2367 C2368 1.400 . S
C2367 C2372 1.490 . S
C2368 H2358 0.930 . S
C2368 C2367 1.400 . S
C2368 C2371 1.386 . S
H2369 C2385 0.930 . S
H2370 C2386 0.931 . S
C2371 H2359 0.929 . S
C2371 C2365 1.390 . S
C2371 C2368 1.386 . S
C2372 C2367 1.490 . S
C2372 C2374 1.395 . S
C2372 C2375 1.403 . S
H2373 C2379 0.930 . S
C2374 H2360 0.930 . S
C2374 C2372 1.395 . S
C2374 C2377 1.403 . S
C2375 C2372 1.403 . S
C2375 C2376 1.524 . S
C2375 C2379 1.400 . S
C2376 H2361 0.960 . S
C2376 H2362 0.960 . S
C2376 H2363 0.960 . S
C2376 C2375 1.524 . S
C2377 C2374 1.403 . S
C2377 C2378 1.392 . S
C2377 C2381 1.495 . S
C2378 C2377 1.392 . S
C2378 C2379 1.385 . S
C2378 C2380 1.478 . S
C2379 H2373 0.930 . S
C2379 C2375 1.400 . S
C2379 C2378 1.385 . S
C2380 C2378 1.478 . S
C2380 C2382 1.381 . S
C2380 C2386 1.383 . S
C2381 C2377 1.495 . S
C2381 H2387 0.959 . S
C2381 H2388 0.961 . S
C2381 H2389 0.960 . S
C2382 C2380 1.381 . S
C2382 C2383 1.394 . S
C2382 H2390 0.930 . S
C2383 C2382 1.394 . S
C2383 C2384 1.383 . S
C2383 H2391 0.929 . S
C2384 C2383 1.383 . S
C2384 C2385 1.377 . S
C2385 H2369 0.930 . S
C2385 C2384 1.377 . S
C2385 C2386 1.379 . S
C2386 H2370 0.931 . S
C2386 C2380 1.383 . S
C2386 C2385 1.379 . S
H2387 C2381 0.959 . S
H2388 C2381 0.961 . S
H2389 C2381 0.960 . S
H2390 C2382 0.930 . S
H2391 C2383 0.929 . S
H2392 C2400 0.929 . S
H2393 C2402 0.930 . S
H2394 C2404 0.930 . S
H2395 C2407 0.929 . S
H2396 C2410 0.930 . S
H2397 C2412 0.960 . S
H2398 C2412 0.960 . S
H2399 C2412 0.960 . S
C2400 H2392 0.929 . S
C2400 C2401 1.377 . S
C2400 C2402 1.384 . S
C2401 C2400 1.377 . S
C2401 C2407 1.390 . S
C2402 H2393 0.930 . S
C2402 C2400 1.384 . S
C2402 C2403 1.372 . S
C2403 C2402 1.372 . S
C2403 C2404 1.400 . S
C2403 C2408 1.490 . S
C2404 H2394 0.930 . S
C2404 C2403 1.400 . S
C2404 C2407 1.386 . S
H2405 C2421 0.930 . S
H2406 C2422 0.931 . S
C2407 H2395 0.929 . S
C2407 C2401 1.390 . S
C2407 C2404 1.386 . S
C2408 C2403 1.490 . S
C2408 C2410 1.395 . S
C2408 C2411 1.403 . S
H2409 C2415 0.930 . S
C2410 H2396 0.930 . S
C2410 C2408 1.395 . S
C2410 C2413 1.403 . S
C2411 C2408 1.403 . S
C2411 C2412 1.524 . S
C2411 C2415 1.400 . S
C2412 H2397 0.960 . S
C2412 H2398 0.960 . S
C2412 H2399 0.960 . S
C2412 C2411 1.524 . S
C2413 C2410 1.403 . S
C2413 C2414 1.392 . S
C2413 C2417 1.495 . S
C2414 C2413 1.392 . S
C2414 C2415 1.385 . S
C2414 C2416 1.478 . S
C2415 H2409 0.930 . S
C2415 C2411 1.400 . S
C2415 C2414 1.385 . S
C2416 C2414 1.478 . S
C2416 C2418 1.381 . S
C2416 C2422 1.383 . S
C2417 C2413 1.495 . S
C2417 H2423 0.959 . S
C2417 H2424 0.961 . S
C2417 H2425 0.960 . S
C2418 C2416 1.381 . S
C2418 C2419 1.394 . S
C2418 H2426 0.930 . S
C2419 C2418 1.394 . S
C2419 C2420 1.383 . S
C2419 H2427 0.929 . S
C2420 C2419 1.383 . S
C2420 C2421 1.377 . S
C2421 H2405 0.930 . S
C2421 C2420 1.377 . S
C2421 C2422 1.379 . S
C2422 H2406 0.931 . S
C2422 C2416 1.383 . S
C2422 C2421 1.379 . S
H2423 C2417 0.959 . S
H2424 C2417 0.961 . S
H2425 C2417 0.960 . S
H2426 C2418 0.930 . S
H2427 C2419 0.929 . S
H2428 C2436 0.929 . S
H2429 C2438 0.930 . S
H2430 C2440 0.930 . S
H2431 C2443 0.947 . S
H2432 C2446 0.930 . S
H2433 C2448 0.960 1_556 S
H2434 C2448 0.960 . S
H2435 C2448 0.960 1_556 S
C2436 H2428 0.929 . S
C2436 C2437 1.377 . S
C2436 C2438 1.384 . S
C2437 C2436 1.377 . S
C2437 C2443 1.368 1_554 S
C2438 H2429 0.930 . S
C2438 C2436 1.384 . S
C2438 C2439 1.372 . S
C2439 C2438 1.372 . S
C2439 C2440 1.400 1_554 S
C2439 C2444 1.490 . S
C2440 H2430 0.930 . S
C2440 C2439 1.400 1_556 S
C2440 C2443 1.390 . S
H2441 C2457 0.930 . S
H2442 C2458 0.931 . S
C2443 H2431 0.947 . S
C2443 C2437 1.368 1_556 S
C2443 C2440 1.390 . S
C2444 C2439 1.490 . S
C2444 C2446 1.395 . S
C2444 C2447 1.403 . S
H2445 C2451 0.930 . S
C2446 H2432 0.930 . S
C2446 C2444 1.395 . S
C2446 C2449 1.403 . S
C2447 C2444 1.403 . S
C2447 C2448 1.524 . S
C2447 C2451 1.400 1_554 S
C2448 H2433 0.960 1_554 S
C2448 H2434 0.960 . S
C2448 H2435 0.960 1_554 S
C2448 C2447 1.524 . S
C2449 C2446 1.403 . S
C2449 C2450 1.392 1_554 S
C2449 C2453 1.495 . S
C2450 C2449 1.392 1_556 S
C2450 C2451 1.385 . S
C2450 C2452 1.478 . S
C2451 H2445 0.930 . S
C2451 C2447 1.400 1_556 S
C2451 C2450 1.385 . S
C2452 C2450 1.478 . S
C2452 C2454 1.381 1_556 S
C2452 C2458 1.383 . S
C2453 C2449 1.495 . S
C2453 H2459 0.959 . S
C2453 H2460 0.961 1_554 S
C2453 H2461 0.960 . S
C2454 C2452 1.381 1_554 S
C2454 C2455 1.394 . S
C2454 H2462 0.930 . S
C2455 C2454 1.394 . S
C2455 C2456 1.383 1_554 S
C2455 H2463 0.929 . S
C2456 C2455 1.383 1_556 S
C2456 C2457 1.377 . S
C2457 H2441 0.930 . S
C2457 C2456 1.377 . S
C2457 C2458 1.379 . S
C2458 H2442 0.931 . S
C2458 C2452 1.383 . S
C2458 C2457 1.379 . S
H2459 C2453 0.959 . S
H2460 C2453 0.961 1_556 S
H2461 C2453 0.960 . S
H2462 C2454 0.930 . S
H2463 C2455 0.929 . S
H2464 C2472 0.929 . S
H2465 C2474 0.930 . S
H2466 C2476 0.930 . S
H2467 C2479 0.929 . S
H2468 C2482 0.930 . S
H2469 C2484 0.960 . S
H2470 C2484 0.960 . S
H2471 C2484 0.960 . S
C2472 H2464 0.929 . S
C2472 C2473 1.377 . S
C2472 C2474 1.384 . S
C2473 C2472 1.377 . S
C2473 C2479 1.390 . S
C2474 H2465 0.930 . S
C2474 C2472 1.384 . S
C2474 C2475 1.372 . S
C2475 C2474 1.372 . S
C2475 C2476 1.400 . S
C2475 C2480 1.490 . S
C2476 H2466 0.930 . S
C2476 C2475 1.400 . S
C2476 C2479 1.386 . S
H2477 C2493 0.930 . S
H2478 C2494 0.931 . S
C2479 H2467 0.929 . S
C2479 C2473 1.390 . S
C2479 C2476 1.386 . S
C2480 C2475 1.490 . S
C2480 C2482 1.395 . S
C2480 C2483 1.403 . S
H2481 C2487 0.930 . S
C2482 H2468 0.930 . S
C2482 C2480 1.395 . S
C2482 C2485 1.403 1_565 S
C2483 C2480 1.403 . S
C2483 C2484 1.524 . S
C2483 C2487 1.400 1_565 S
C2484 H2469 0.960 . S
C2484 H2470 0.960 . S
C2484 H2471 0.960 . S
C2484 C2483 1.524 . S
C2485 C2482 1.403 1_545 S
C2485 C2486 1.392 . S
C2485 C2489 1.495 . S
C2486 C2485 1.392 . S
C2486 C2487 1.385 . S
C2486 C2488 1.478 . S
C2487 H2481 0.930 . S
C2487 C2483 1.400 1_545 S
C2487 C2486 1.385 . S
C2488 C2486 1.478 . S
C2488 C2490 1.381 . S
C2488 C2494 1.383 . S
C2489 C2485 1.495 . S
C2489 H2495 0.959 . S
C2489 H2496 0.961 . S
C2489 H2497 0.960 . S
C2490 C2488 1.381 . S
C2490 C2491 1.394 . S
C2490 H2498 0.930 . S
C2491 C2490 1.394 . S
C2491 C2492 1.383 . S
C2491 H2499 0.929 . S
C2492 C2491 1.383 . S
C2492 C2493 1.377 . S
C2493 H2477 0.930 . S
C2493 C2492 1.377 . S
C2493 C2494 1.379 . S
C2494 H2478 0.931 . S
C2494 C2488 1.383 . S
C2494 C2493 1.379 . S
H2495 C2489 0.959 . S
H2496 C2489 0.961 . S
H2497 C2489 0.960 . S
H2498 C2490 0.930 . S
H2499 C2491 0.929 . S
H2500 C2508 0.929 . S
H2501 C2510 0.930 1_556 S
H2502 C2512 0.930 . S
H2503 C2515 0.929 . S
H2504 C2518 0.930 . S
H2505 C2520 0.960 . S
H2506 C2520 0.960 . S
H2507 C2520 0.960 . S
C2508 H2500 0.929 . S
C2508 C2509 1.377 . S
C2508 C2510 1.384 . S
C2509 C2508 1.377 . S
C2509 C2515 1.390 . S
C2510 H2501 0.930 1_554 S
C2510 C2508 1.384 . S
C2510 C2511 1.372 . S
C2511 C2510 1.372 . S
C2511 C2512 1.400 . S
C2511 C2516 1.490 . S
C2512 H2502 0.930 . S
C2512 C2511 1.400 . S
C2512 C2515 1.386 . S
H2513 C2529 0.930 . S
H2514 C2530 0.931 . S
C2515 H2503 0.929 . S
C2515 C2509 1.390 . S
C2515 C2512 1.386 . S
C2516 C2511 1.490 . S
C2516 C2518 1.395 1_554 S
C2516 C2519 1.403 . S
H2517 C2523 0.930 . S
C2518 H2504 0.930 . S
C2518 C2516 1.395 1_556 S
C2518 C2521 1.403 . S
C2519 C2516 1.403 . S
C2519 C2520 1.524 . S
C2519 C2523 1.400 . S
C2520 H2505 0.960 . S
C2520 H2506 0.960 . S
C2520 H2507 0.960 . S
C2520 C2519 1.524 . S
C2521 C2518 1.403 . S
C2521 C2522 1.392 . S
C2521 C2525 1.495 . S
C2522 C2521 1.392 . S
C2522 C2523 1.385 1_556 S
C2522 C2524 1.478 . S
C2523 H2517 0.930 . S
C2523 C2519 1.400 . S
C2523 C2522 1.385 1_554 S
C2524 C2522 1.478 . S
C2524 C2526 1.381 . S
C2524 C2530 1.383 . S
C2525 C2521 1.495 . S
C2525 H2531 0.959 . S
C2525 H2532 0.961 . S
C2525 H2533 0.960 . S
C2526 C2524 1.381 . S
C2526 C2527 1.394 . S
C2526 H2534 0.930 . S
C2527 C2526 1.394 . S
C2527 C2528 1.383 . S
C2527 H2535 0.929 . S
C2528 C2527 1.383 . S
C2528 C2529 1.377 . S
C2529 H2513 0.930 . S
C2529 C2528 1.377 . S
C2529 C2530 1.379 . S
C2530 H2514 0.931 . S
C2530 C2524 1.383 . S
C2530 C2529 1.379 . S
H2531 C2525 0.959 . S
H2532 C2525 0.961 . S
H2533 C2525 0.960 . S
H2534 C2526 0.930 . S
H2535 C2527 0.929 . S
H2536 C2544 0.898 1_455 S
H2537 C2546 0.930 1_455 S
H2538 C2548 0.930 . S
H2539 C2551 0.929 . S
H2540 C2554 0.930 . S
H2541 C2556 0.960 . S
H2542 C2556 0.960 . S
H2543 C2556 0.960 . S
C2544 H2536 0.898 1_655 S
C2544 C2545 1.377 . S
C2544 C2546 1.384 . S
C2545 C2544 1.377 . S
C2545 C2551 1.390 . S
C2546 H2537 0.930 1_655 S
C2546 C2544 1.384 . S
C2546 C2547 1.372 . S
C2547 C2546 1.372 . S
C2547 C2548 1.400 . S
C2547 C2552 1.490 . S
C2548 H2538 0.930 . S
C2548 C2547 1.400 . S
C2548 C2551 1.386 . S
H2549 C2565 0.930 . S
H2550 C2566 0.931 . S
C2551 H2539 0.929 . S
C2551 C2545 1.390 . S
C2551 C2548 1.386 . S
C2552 C2547 1.490 . S
C2552 C2554 1.395 . S
C2552 C2555 1.403 . S
H2553 C2559 0.930 . S
C2554 H2540 0.930 . S
C2554 C2552 1.395 . S
C2554 C2557 1.403 1_545 S
C2555 C2552 1.403 . S
C2555 C2556 1.524 . S
C2555 C2559 1.400 1_545 S
C2556 H2541 0.960 . S
C2556 H2542 0.960 . S
C2556 H2543 0.960 . S
C2556 C2555 1.524 . S
C2557 C2554 1.403 1_565 S
C2557 C2558 1.392 . S
C2557 C2561 1.534 . S
C2558 C2557 1.392 . S
C2558 C2559 1.385 . S
C2558 C2560 1.478 . S
C2559 H2553 0.930 . S
C2559 C2555 1.400 1_565 S
C2559 C2558 1.385 . S
C2560 C2558 1.478 . S
C2560 C2562 1.381 . S
C2560 C2566 1.383 . S
C2561 C2557 1.534 . S
C2561 H2567 0.931 1_655 S
C2561 H2568 0.999 . S
C2561 H2569 0.917 1_655 S
C2562 C2560 1.381 . S
C2562 C2563 1.394 . S
C2562 H2570 0.930 1_655 S
C2563 C2562 1.394 . S
C2563 C2564 1.383 . S
C2563 H2571 0.889 1_655 S
C2564 C2563 1.383 . S
C2564 C2565 1.377 . S
C2565 H2549 0.930 . S
C2565 C2564 1.377 . S
C2565 C2566 1.379 . S
C2566 H2550 0.931 . S
C2566 C2560 1.383 . S
C2566 C2565 1.379 . S
H2567 C2561 0.931 1_455 S
H2568 C2561 0.999 . S
H2569 C2561 0.917 1_455 S
H2570 C2562 0.930 1_455 S
H2571 C2563 0.889 1_455 S
H2572 C2580 0.929 . S
H2573 C2582 0.930 . S
H2574 C2584 0.930 . S
H2575 C2587 0.929 . S
H2576 C2590 0.930 . S
H2577 C2592 0.960 . S
H2578 C2592 0.960 . S
H2579 C2592 0.960 . S
C2580 H2572 0.929 . S
C2580 C2581 1.377 . S
C2580 C2582 1.384 . S
C2581 C2580 1.377 . S
C2581 C2587 1.390 . S
C2582 H2573 0.930 . S
C2582 C2580 1.384 . S
C2582 C2583 1.372 . S
C2583 C2582 1.372 . S
C2583 C2584 1.400 . S
C2583 C2588 1.490 . S
C2584 H2574 0.930 . S
C2584 C2583 1.400 . S
C2584 C2587 1.386 . S
H2585 C2601 0.930 . S
H2586 C2602 0.931 . S
C2587 H2575 0.929 . S
C2587 C2581 1.390 . S
C2587 C2584 1.386 . S
C2588 C2583 1.490 . S
C2588 C2590 1.395 . S
C2588 C2591 1.403 . S
H2589 C2595 0.930 . S
C2590 H2576 0.930 . S
C2590 C2588 1.395 . S
C2590 C2593 1.403 . S
C2591 C2588 1.403 . S
C2591 C2592 1.524 . S
C2591 C2595 1.400 . S
C2592 H2577 0.960 . S
C2592 H2578 0.960 . S
C2592 H2579 0.960 . S
C2592 C2591 1.524 . S
C2593 C2590 1.403 . S
C2593 C2594 1.392 . S
C2593 C2597 1.495 . S
C2594 C2593 1.392 . S
C2594 C2595 1.385 . S
C2594 C2596 1.478 . S
C2595 H2589 0.930 . S
C2595 C2591 1.400 . S
C2595 C2594 1.385 . S
C2596 C2594 1.478 . S
C2596 C2598 1.381 . S
C2596 C2602 1.383 . S
C2597 C2593 1.495 . S
C2597 H2603 0.959 . S
C2597 H2604 0.961 . S
C2597 H2605 0.960 . S
C2598 C2596 1.381 . S
C2598 C2599 1.394 . S
C2598 H2606 0.930 . S
C2599 C2598 1.394 . S
C2599 C2600 1.383 . S
C2599 H2607 0.929 . S
C2600 C2599 1.383 . S
C2600 C2601 1.377 . S
C2601 H2585 0.930 . S
C2601 C2600 1.377 . S
C2601 C2602 1.379 . S
C2602 H2586 0.931 . S
C2602 C2596 1.383 . S
C2602 C2601 1.379 . S
H2603 C2597 0.959 . S
H2604 C2597 0.961 . S
H2605 C2597 0.960 . S
H2606 C2598 0.930 . S
H2607 C2599 0.929 . S
H2608 C2616 0.929 . S
H2609 C2618 0.930 . S
H2610 C2620 0.930 . S
H2611 C2623 0.929 . S
H2612 C2626 0.930 . S
H2613 C2628 0.960 . S
H2614 C2628 0.960 . S
H2615 C2628 0.960 . S
C2616 H2608 0.929 . S
C2616 C2617 1.377 . S
C2616 C2618 1.384 . S
C2617 C2616 1.377 . S
C2617 C2623 1.390 . S
C2618 H2609 0.930 . S
C2618 C2616 1.384 . S
C2618 C2619 1.372 . S
C2619 C2618 1.372 . S
C2619 C2620 1.400 . S
C2619 C2624 1.490 . S
C2620 H2610 0.930 . S
C2620 C2619 1.400 . S
C2620 C2623 1.386 . S
H2621 C2637 0.930 . S
H2622 C2638 0.931 . S
C2623 H2611 0.929 . S
C2623 C2617 1.390 . S
C2623 C2620 1.386 . S
C2624 C2619 1.490 . S
C2624 C2626 1.395 . S
C2624 C2627 1.403 . S
H2625 C2631 0.930 . S
C2626 H2612 0.930 . S
C2626 C2624 1.395 . S
C2626 C2629 1.403 1_545 S
C2627 C2624 1.403 . S
C2627 C2628 1.524 . S
C2627 C2631 1.400 1_545 S
C2628 H2613 0.960 . S
C2628 H2614 0.960 . S
C2628 H2615 0.960 . S
C2628 C2627 1.524 . S
C2629 C2626 1.403 1_565 S
C2629 C2630 1.392 . S
C2629 C2633 1.495 . S
C2630 C2629 1.392 . S
C2630 C2631 1.385 . S
C2630 C2632 1.478 . S
C2631 H2625 0.930 . S
C2631 C2627 1.400 1_565 S
C2631 C2630 1.385 . S
C2632 C2630 1.478 . S
C2632 C2634 1.381 . S
C2632 C2638 1.383 . S
C2633 C2629 1.495 . S
C2633 H2639 0.959 . S
C2633 H2640 0.961 . S
C2633 H2641 0.960 . S
C2634 C2632 1.381 . S
C2634 C2635 1.394 . S
C2634 H2642 0.930 . S
C2635 C2634 1.394 . S
C2635 C2636 1.383 . S
C2635 H2643 0.929 . S
C2636 C2635 1.383 . S
C2636 C2637 1.377 . S
C2637 H2621 0.930 . S
C2637 C2636 1.377 . S
C2637 C2638 1.379 . S
C2638 H2622 0.931 . S
C2638 C2632 1.383 . S
C2638 C2637 1.379 . S
H2639 C2633 0.959 . S
H2640 C2633 0.961 . S
H2641 C2633 0.960 . S
H2642 C2634 0.930 . S
H2643 C2635 0.929 . S
H2644 C2652 0.929 . S
H2645 C2654 0.930 . S
H2646 C2656 0.930 . S
H2647 C2659 0.929 . S
H2648 C2662 0.930 . S
H2649 C2664 0.960 . S
H2650 C2664 0.960 . S
H2651 C2664 0.960 . S
C2652 H2644 0.929 . S
C2652 C2653 1.377 . S
C2652 C2654 1.384 . S
C2653 C2652 1.377 . S
C2653 C2659 1.390 1_554 S
C2654 H2645 0.930 . S
C2654 C2652 1.384 . S
C2654 C2655 1.372 . S
C2655 C2654 1.372 . S
C2655 C2656 1.400 1_554 S
C2655 C2660 1.490 . S
C2656 H2646 0.930 . S
C2656 C2655 1.400 1_556 S
C2656 C2659 1.386 . S
H2657 C2673 0.930 . S
H2658 C2674 0.931 . S
C2659 H2647 0.929 . S
C2659 C2653 1.390 1_556 S
C2659 C2656 1.386 . S
C2660 C2655 1.490 . S
C2660 C2662 1.395 . S
C2660 C2663 1.403 1_554 S
H2661 C2667 0.930 . S
C2662 H2648 0.930 . S
C2662 C2660 1.395 . S
C2662 C2665 1.403 . S
C2663 C2660 1.403 1_556 S
C2663 C2664 1.524 . S
C2663 C2667 1.400 . S
C2664 H2649 0.960 . S
C2664 H2650 0.960 . S
C2664 H2651 0.960 . S
C2664 C2663 1.524 . S
C2665 C2662 1.403 . S
C2665 C2666 1.392 1_554 S
C2665 C2669 1.495 . S
C2666 C2665 1.392 1_556 S
C2666 C2667 1.385 . S
C2666 C2668 1.478 . S
C2667 H2661 0.930 . S
C2667 C2663 1.400 . S
C2667 C2666 1.385 . S
C2668 C2666 1.478 . S
C2668 C2670 1.381 1_556 S
C2668 C2674 1.383 . S
C2669 C2665 1.495 . S
C2669 H2675 0.959 . S
C2669 H2676 0.961 . S
C2669 H2677 0.960 . S
C2670 C2668 1.381 1_554 S
C2670 C2671 1.394 . S
C2670 H2678 0.930 . S
C2671 C2670 1.394 . S
C2671 C2672 1.383 1_554 S
C2671 H2679 0.929 . S
C2672 C2671 1.383 1_556 S
C2672 C2673 1.377 . S
C2673 H2657 0.930 . S
C2673 C2672 1.377 . S
C2673 C2674 1.379 . S
C2674 H2658 0.931 . S
C2674 C2668 1.383 . S
C2674 C2673 1.379 . S
H2675 C2669 0.959 . S
H2676 C2669 0.961 . S
H2677 C2669 0.960 . S
H2678 C2670 0.930 . S
H2679 C2671 0.929 . S
H2680 C2688 0.929 . S
H2681 C2690 0.930 . S
H2682 C2692 0.930 . S
H2683 C2695 0.929 . S
H2684 C2698 0.930 . S
H2685 C2700 0.960 . S
H2686 C2700 0.960 . S
H2687 C2700 0.960 . S
C2688 H2680 0.929 . S
C2688 C2689 1.377 . S
C2688 C2690 1.384 . S
C2689 C2688 1.377 . S
C2689 C2695 1.390 . S
C2690 H2681 0.930 . S
C2690 C2688 1.384 . S
C2690 C2691 1.372 . S
C2691 C2690 1.372 . S
C2691 C2692 1.400 . S
C2691 C2696 1.490 . S
C2692 H2682 0.930 . S
C2692 C2691 1.400 . S
C2692 C2695 1.386 . S
H2693 C2709 0.930 . S
H2694 C2710 0.931 . S
C2695 H2683 0.929 . S
C2695 C2689 1.390 . S
C2695 C2692 1.386 . S
C2696 C2691 1.490 . S
C2696 C2698 1.395 . S
C2696 C2699 1.403 . S
H2697 C2703 0.930 . S
C2698 H2684 0.930 . S
C2698 C2696 1.395 . S
C2698 C2701 1.403 1_545 S
C2699 C2696 1.403 . S
C2699 C2700 1.524 . S
C2699 C2703 1.400 1_545 S
C2700 H2685 0.960 . S
C2700 H2686 0.960 . S
C2700 H2687 0.960 . S
C2700 C2699 1.524 . S
C2701 C2698 1.403 1_565 S
C2701 C2702 1.392 . S
C2701 C2705 1.495 . S
C2702 C2701 1.392 . S
C2702 C2703 1.385 . S
C2702 C2704 1.478 . S
C2703 H2697 0.930 . S
C2703 C2699 1.400 1_565 S
C2703 C2702 1.385 . S
C2704 C2702 1.478 . S
C2704 C2706 1.381 . S
C2704 C2710 1.383 . S
C2705 C2701 1.495 . S
C2705 H2711 0.959 . S
C2705 H2712 0.924 1_455 S
C2705 H2713 0.960 . S
C2706 C2704 1.381 . S
C2706 C2707 1.394 . S
C2706 H2714 0.930 . S
C2707 C2706 1.394 . S
C2707 C2708 1.383 . S
C2707 H2715 0.929 . S
C2708 C2707 1.383 . S
C2708 C2709 1.377 . S
C2709 H2693 0.930 . S
C2709 C2708 1.377 . S
C2709 C2710 1.379 . S
C2710 H2694 0.931 . S
C2710 C2704 1.383 . S
C2710 C2709 1.379 . S
H2711 C2705 0.959 . S
H2712 C2705 0.924 1_655 S
H2713 C2705 0.960 . S
H2714 C2706 0.930 . S
H2715 C2707 0.929 . S
H2716 C2724 0.929 . S
H2717 C2726 0.930 . S
H2718 C2728 0.930 . S
H2719 C2731 0.929 . S
H2720 C2734 0.930 . S
H2721 C2736 0.960 . S
H2722 C2736 0.960 . S
H2723 C2736 0.960 . S
C2724 H2716 0.929 . S
C2724 C2725 1.377 . S
C2724 C2726 1.384 . S
C2725 C2724 1.377 . S
C2725 C2731 1.390 . S
C2726 H2717 0.930 . S
C2726 C2724 1.384 . S
C2726 C2727 1.372 . S
C2727 C2726 1.372 . S
C2727 C2728 1.400 . S
C2727 C2732 1.490 . S
C2728 H2718 0.930 . S
C2728 C2727 1.400 . S
C2728 C2731 1.386 . S
H2729 C2745 0.930 . S
H2730 C2746 0.931 . S
C2731 H2719 0.929 . S
C2731 C2725 1.390 . S
C2731 C2728 1.386 . S
C2732 C2727 1.490 . S
C2732 C2734 1.395 . S
C2732 C2735 1.403 . S
H2733 C2739 0.930 . S
C2734 H2720 0.930 . S
C2734 C2732 1.395 . S
C2734 C2737 1.403 . S
C2735 C2732 1.403 . S
C2735 C2736 1.524 . S
C2735 C2739 1.400 . S
C2736 H2721 0.960 . S
C2736 H2722 0.960 . S
C2736 H2723 0.960 . S
C2736 C2735 1.524 . S
C2737 C2734 1.403 . S
C2737 C2738 1.392 . S
C2737 C2741 1.495 . S
C2738 C2737 1.392 . S
C2738 C2739 1.385 . S
C2738 C2740 1.478 . S
C2739 H2733 0.930 . S
C2739 C2735 1.400 . S
C2739 C2738 1.385 . S
C2740 C2738 1.478 . S
C2740 C2742 1.381 . S
C2740 C2746 1.383 . S
C2741 C2737 1.495 . S
C2741 H2747 0.959 . S
C2741 H2748 0.961 . S
C2741 H2749 0.960 . S
C2742 C2740 1.381 . S
C2742 C2743 1.394 . S
C2742 H2750 0.930 . S
C2743 C2742 1.394 . S
C2743 C2744 1.383 . S
C2743 H2751 0.929 . S
C2744 C2743 1.383 . S
C2744 C2745 1.377 . S
C2745 H2729 0.930 . S
C2745 C2744 1.377 . S
C2745 C2746 1.379 . S
C2746 H2730 0.931 . S
C2746 C2740 1.383 . S
C2746 C2745 1.379 . S
H2747 C2741 0.959 . S
H2748 C2741 0.961 . S
H2749 C2741 0.960 . S
H2750 C2742 0.930 . S
H2751 C2743 0.929 . S
C457 C12 1.525 . S
C476 C306 1.514 . S
C493 C320 1.529 . S
C512 C26 1.521 . S
C529 C40 1.529 . S
C548 C334 1.528 . S
C565 C292 1.526 . S
C584 C54 1.511 . S
C601 C68 1.525 . S
C620 C278 1.530 . S
C637 C82 1.526 . S
C656 C236 1.535 . S
C673 C250 1.528 . S
C692 C96 1.534 . S
C709 C110 1.529 . S
C728 C264 1.522 . S
C745 C124 1.524 . S
C764 C418 1.512 . S
C781 C138 1.527 . S
C800 C432 1.517 . S
C817 C446 1.527 . S
C836 C152 1.519 . S
C853 C404 1.528 . S
C872 C166 1.524 . S
C889 C180 1.527 . S
C908 C390 1.531 . S
C925 C348 1.525 . S
C944 C194 1.512 . S
C961 C208 1.524 . S
C980 C362 1.511 . S
C997 C376 1.527 . S
C1016 C222 1.520 . S
C1033 C4 0.745 . S
C1052 C131 0.721 . S
C1069 C18 0.753 . S
C1088 C369 0.815 . S
C1105 C159 0.739 . S
C1124 C32 0.727 . S
C1141 C46 0.745 . S
C1160 C341 0.705 . S
C1177 C60 0.745 . S
C1196 C215 0.702 . S
C1213 C397 0.746 . S
C1232 C74 0.738 . S
C1249 C187 0.743 . S
C1268 C88 0.744 . S
C1285 C425 0.742 . S
C1304 C102 0.742 . S
C1321 C116 0.744 . S
C1340 C19 0.809 . S
C1357 C257 0.745 . S
C1376 C130 0.773 . S
C1393 C47 0.758 . S
C1412 C144 0.761 . S
C1429 C158 0.752 . S
C1448 C229 0.686 . S
C1465 C103 0.735 . S
C1484 C172 0.766 . S
C1501 C285 0.751 . S
C1520 C186 0.770 . S
C1537 C75 0.757 . S
C1556 C200 0.723 . S
C1573 C214 0.751 . S
C1592 C313 0.679 . S
C1609 C355 0.735 . S
C1628 C228 0.722 . S
C1645 C145 0.736 . S
C1664 C242 0.723 . S
C1681 C383 0.753 . S
C1700 C256 0.751 . S
C1717 C270 0.753 . S
C1736 C117 0.815 . S
C1753 C439 0.739 . S
C1772 C284 0.735 . S
C1789 C173 0.735 . S
C1808 C298 0.727 . S
C1825 C411 0.762 . S
C1844 C312 0.771 . S
C1861 C326 0.746 . S
C1880 C201 0.741 . S
C1897 C340 0.752 . S
C1916 C243 0.692 . S
C1933 C33 0.751 . S
C1952 C354 0.770 . S
C1969 C368 0.751 . S
C1988 C271 0.680 . S
C2005 C382 0.746 . S
C2024 C5 0.816 . S
C2041 C396 0.743 . S
C2060 C327 0.786 . S
C2077 C61 0.762 . S
C2096 C410 0.732 . S
C2113 C299 0.737 . S
C2132 C424 0.740 . S
C2149 C438 0.753 . S
C2168 C89 0.699 . S
C2185 C11 1.041 . S
C2204 C67 1.033 . S
C2221 C25 1.033 . S
C2240 C81 1.063 . S
C2257 C95 1.035 . S
C2276 C39 1.031 . S
C2293 C109 1.033 . S
C2312 C53 1.063 . S
C2329 C179 1.034 . S
C2348 C123 1.012 . S
C2365 C193 1.033 . S
C2384 C137 1.023 . S
C2401 C207 1.033 . S
C2420 C151 1.025 . S
C2437 C221 1.039 . S
C2456 C165 1.054 . S
C2473 C235 1.032 . S
C2492 C291 1.055 . S
C2509 C249 1.036 . S
C2528 C305 1.055 . S
C2545 C263 1.035 . S
C2564 C319 1.030 . S
C2581 C333 1.032 . S
C2600 C277 1.063 . S
C2617 C347 1.033 . S
C2636 C403 1.026 . S
C2653 C417 1.036 . S
C2672 C361 1.042 . S
C2689 C431 1.034 . S
C2708 C375 1.028 . S
C2725 C445 1.043 . S
C2744 C389 1.054 . S
