# Generated by pormake.
# Topology svb, (7)-cn, num edge types: 1
# Building blocks:
#     Node 0, Type 0, BuildingBlock: HICVOG_clean_sbu_0, # of connection points: 7
#     Node 1, Type 0, BuildingBlock: HICVOG_clean_sbu_0, # of connection points: 7
#     Node 2, Type 0, BuildingBlock: HICVOG_clean_sbu_0, # of connection points: 7
#     Node 3, Type 0, BuildingBlock: HICVOG_clean_sbu_0, # of connection points: 7
#     Node 4, Type 0, BuildingBlock: HICVOG_clean_sbu_0, # of connection points: 7
#     Node 5, Type 0, BuildingBlock: HICVOG_clean_sbu_0, # of connection points: 7
#     Node 6, Type 0, BuildingBlock: HICVOG_clean_sbu_0, # of connection points: 7
#     Node 7, Type 0, BuildingBlock: HICVOG_clean_sbu_0, # of connection points: 7
#     Node 8, Type 0, BuildingBlock: HICVOG_clean_sbu_0, # of connection points: 7
#     Node 9, Type 0, BuildingBlock: HICVOG_clean_sbu_0, # of connection points: 7
#     Node 10, Type 0, BuildingBlock: HICVOG_clean_sbu_0, # of connection points: 7
#     Node 11, Type 0, BuildingBlock: HICVOG_clean_sbu_0, # of connection points: 7
#     Node 12, Type 0, BuildingBlock: HICVOG_clean_sbu_0, # of connection points: 7
#     Node 13, Type 0, BuildingBlock: HICVOG_clean_sbu_0, # of connection points: 7
#     Node 14, Type 0, BuildingBlock: HICVOG_clean_sbu_0, # of connection points: 7
#     Node 15, Type 0, BuildingBlock: HICVOG_clean_sbu_0, # of connection points: 7
#     Edge 16, Type (0, 0), BuildingBlock: OJICUG_clean_linker_0, # of connection points: 2
#     Edge 17, Type (0, 0), BuildingBlock: OJICUG_clean_linker_0, # of connection points: 2
#     Edge 18, Type (0, 0), BuildingBlock: OJICUG_clean_linker_0, # of connection points: 2
#     Edge 19, Type (0, 0), BuildingBlock: OJICUG_clean_linker_0, # of connection points: 2
#     Edge 20, Type (0, 0), BuildingBlock: OJICUG_clean_linker_0, # of connection points: 2
#     Edge 21, Type (0, 0), BuildingBlock: OJICUG_clean_linker_0, # of connection points: 2
#     Edge 22, Type (0, 0), BuildingBlock: OJICUG_clean_linker_0, # of connection points: 2
#     Edge 23, Type (0, 0), BuildingBlock: OJICUG_clean_linker_0, # of connection points: 2
#     Edge 24, Type (0, 0), BuildingBlock: OJICUG_clean_linker_0, # of connection points: 2
#     Edge 25, Type (0, 0), BuildingBlock: OJICUG_clean_linker_0, # of connection points: 2
#     Edge 26, Type (0, 0), BuildingBlock: OJICUG_clean_linker_0, # of connection points: 2
#     Edge 27, Type (0, 0), BuildingBlock: OJICUG_clean_linker_0, # of connection points: 2
#     Edge 28, Type (0, 0), BuildingBlock: OJICUG_clean_linker_0, # of connection points: 2
#     Edge 29, Type (0, 0), BuildingBlock: OJICUG_clean_linker_0, # of connection points: 2
#     Edge 30, Type (0, 0), BuildingBlock: OJICUG_clean_linker_0, # of connection points: 2
#     Edge 31, Type (0, 0), BuildingBlock: OJICUG_clean_linker_0, # of connection points: 2
#     Edge 32, Type (0, 0), BuildingBlock: OJICUG_clean_linker_0, # of connection points: 2
#     Edge 33, Type (0, 0), BuildingBlock: OJICUG_clean_linker_0, # of connection points: 2
#     Edge 34, Type (0, 0), BuildingBlock: OJICUG_clean_linker_0, # of connection points: 2
#     Edge 35, Type (0, 0), BuildingBlock: OJICUG_clean_linker_0, # of connection points: 2
#     Edge 36, Type (0, 0), BuildingBlock: OJICUG_clean_linker_0, # of connection points: 2
#     Edge 37, Type (0, 0), BuildingBlock: OJICUG_clean_linker_0, # of connection points: 2
#     Edge 38, Type (0, 0), BuildingBlock: OJICUG_clean_linker_0, # of connection points: 2
#     Edge 39, Type (0, 0), BuildingBlock: OJICUG_clean_linker_0, # of connection points: 2
#     Edge 40, Type (0, 0), BuildingBlock: OJICUG_clean_linker_0, # of connection points: 2
#     Edge 41, Type (0, 0), BuildingBlock: OJICUG_clean_linker_0, # of connection points: 2
#     Edge 42, Type (0, 0), BuildingBlock: OJICUG_clean_linker_0, # of connection points: 2
#     Edge 43, Type (0, 0), BuildingBlock: OJICUG_clean_linker_0, # of connection points: 2
#     Edge 44, Type (0, 0), BuildingBlock: OJICUG_clean_linker_0, # of connection points: 2
#     Edge 45, Type (0, 0), BuildingBlock: OJICUG_clean_linker_0, # of connection points: 2
#     Edge 46, Type (0, 0), BuildingBlock: OJICUG_clean_linker_0, # of connection points: 2
#     Edge 47, Type (0, 0), BuildingBlock: OJICUG_clean_linker_0, # of connection points: 2
#     Edge 48, Type (0, 0), BuildingBlock: OJICUG_clean_linker_0, # of connection points: 2
#     Edge 49, Type (0, 0), BuildingBlock: OJICUG_clean_linker_0, # of connection points: 2
#     Edge 50, Type (0, 0), BuildingBlock: OJICUG_clean_linker_0, # of connection points: 2
#     Edge 51, Type (0, 0), BuildingBlock: OJICUG_clean_linker_0, # of connection points: 2
#     Edge 52, Type (0, 0), BuildingBlock: OJICUG_clean_linker_0, # of connection points: 2
#     Edge 53, Type (0, 0), BuildingBlock: OJICUG_clean_linker_0, # of connection points: 2
#     Edge 54, Type (0, 0), BuildingBlock: OJICUG_clean_linker_0, # of connection points: 2
#     Edge 55, Type (0, 0), BuildingBlock: OJICUG_clean_linker_0, # of connection points: 2
#     Edge 56, Type (0, 0), BuildingBlock: OJICUG_clean_linker_0, # of connection points: 2
#     Edge 57, Type (0, 0), BuildingBlock: OJICUG_clean_linker_0, # of connection points: 2
#     Edge 58, Type (0, 0), BuildingBlock: OJICUG_clean_linker_0, # of connection points: 2
#     Edge 59, Type (0, 0), BuildingBlock: OJICUG_clean_linker_0, # of connection points: 2
#     Edge 60, Type (0, 0), BuildingBlock: OJICUG_clean_linker_0, # of connection points: 2
#     Edge 61, Type (0, 0), BuildingBlock: OJICUG_clean_linker_0, # of connection points: 2
#     Edge 62, Type (0, 0), BuildingBlock: OJICUG_clean_linker_0, # of connection points: 2
#     Edge 63, Type (0, 0), BuildingBlock: OJICUG_clean_linker_0, # of connection points: 2
#     Edge 64, Type (0, 0), BuildingBlock: OJICUG_clean_linker_0, # of connection points: 2
#     Edge 65, Type (0, 0), BuildingBlock: OJICUG_clean_linker_0, # of connection points: 2
#     Edge 66, Type (0, 0), BuildingBlock: OJICUG_clean_linker_0, # of connection points: 2
#     Edge 67, Type (0, 0), BuildingBlock: OJICUG_clean_linker_0, # of connection points: 2
#     Edge 68, Type (0, 0), BuildingBlock: OJICUG_clean_linker_0, # of connection points: 2
#     Edge 69, Type (0, 0), BuildingBlock: OJICUG_clean_linker_0, # of connection points: 2
#     Edge 70, Type (0, 0), BuildingBlock: OJICUG_clean_linker_0, # of connection points: 2
#     Edge 71, Type (0, 0), BuildingBlock: OJICUG_clean_linker_0, # of connection points: 2
# Relax obj value: 0.384
# Max RMSD: 0.274
# Mean RMSD: 0.255
data_MOF--net-svb--node1-HICVOG_clean_sbu_0--edge1-OJICUG_clean_linker_0
_symmetry_space_group_name_H-M    P1
_symmetry_Int_Tables_number       1
_symmetry_cell_setting            triclinic
loop_
_symmetry_equiv_pos_as_xyz
'x, y, z'
_cell_length_a     36.896815
_cell_length_b     39.604004
_cell_length_c     19.716814
_cell_angle_alpha  96.58675
_cell_angle_beta   97.724274
_cell_angle_gamma 90.201689
loop_
_atom_site_label
_atom_site_type_symbol
_atom_site_fract_x
_atom_site_fract_y
_atom_site_fract_z
_atom_type_partial_charge
Zn0 Zn 0.123 0.3459 0.30725 0.0
C1 C 0.13636 0.44706 0.32133 0.0
N2 N 0.12639 0.44505 0.38402 0.0
C3 C 0.11531 0.41255 0.38094 0.0
N4 N 0.11947 0.39513 0.31953 0.0
N5 N 0.13101 0.41692 0.28032 0.0
C6 C 0.19067 0.43418 0.14514 0.0
O7 O 0.20314 0.42095 0.20167 0.0
O8 O 0.07358 0.32431 0.29752 0.0
Zn9 Zn 0.1234 0.40729 0.17811 0.0
N10 N 0.15599 0.33304 0.38468 0.0
C11 C 0.21246 0.34736 0.45553 0.0
C12 C 0.18546 0.35435 0.40318 0.0
C13 C 0.15259 0.30441 0.41598 0.0
N14 N 0.20915 0.31908 0.48709 0.0
C15 C 0.18012 0.29705 0.46908 0.0
O16 O 0.13799 0.36007 0.14215 0.0
C17 C 0.14655 0.33125 0.16135 0.0
O18 O 0.14402 0.32478 0.2223 0.0
H19 H 0.18813 0.37648 0.37667 0.0
H20 H 0.12882 0.28794 0.39985 0.0
C21 C 0.05367 0.39617 0.08426 0.0
C22 C 0.01497 0.39596 0.07028 0.0
C23 C 1.0129 0.42654 0.18076 0.0
C24 C 0.0508 0.42652 0.19431 0.0
N25 N 0.07069 0.41143 0.14628 0.0
N26 N 0.99605 0.41135 0.11963 0.0
H27 H 0.06998 0.38336 0.04786 0.0
C28 C 0.05576 0.33029 0.24056 0.0
O29 O 0.07008 0.35146 0.20478 0.0
O30 O 0.15611 0.43533 0.12828 0.0
H31 H 0.06411 0.43762 0.24397 0.0
H32 H 0.23604 0.36417 0.47066 0.0
H33 H 0.99689 0.43826 0.21887 0.0
Zn34 Zn 0.86716 0.91021 0.41665 0.0
C35 C 0.88323 0.90194 0.21733 0.0
N36 N 0.8687 0.93279 0.21552 0.0
C37 C 0.85543 0.93854 0.27638 0.0
N38 N 0.86258 0.91246 0.31535 0.0
N39 N 0.87842 0.8892 0.27587 0.0
C40 C 0.94175 0.81481 0.331 0.0
O41 O 0.93203 0.82968 0.38863 0.0
O42 O 0.82773 0.93636 0.46417 0.0
Zn43 Zn 0.87538 0.8409 0.2744 0.0
N44 N 0.91702 0.92634 0.45767 0.0
C45 C 0.96934 0.95854 0.44241 0.0
C46 C 0.93385 0.94662 0.41975 0.0
C47 C 0.93527 0.91648 0.5173 0.0
N48 N 0.98737 0.94884 0.50121 0.0
C49 C 0.97191 0.92786 0.53987 0.0
O50 O 0.85523 0.8234 0.3533 0.0
C51 C 0.85403 0.83218 0.41696 0.0
O52 O 0.86079 0.86264 0.44436 0.0
H53 H 0.92009 0.95324 0.37144 0.0
H54 H 0.92185 0.89925 0.54514 0.0
C55 C 0.85895 0.80056 0.14124 0.0
C56 C 0.83497 0.78428 0.08545 0.0
C57 C 0.78519 0.81259 0.13013 0.0
C58 C 0.80892 0.82834 0.18573 0.0
N59 N 0.84518 0.82178 0.19069 0.0
N60 N 0.79858 0.79066 0.08183 0.0
H61 H 0.8879 0.79533 0.14678 0.0
C62 C 0.79406 0.92835 0.44529 0.0
O63 O 0.78526 0.90743 0.38867 0.0
O64 O 0.92329 0.81947 0.27398 0.0
H65 H 0.79851 0.84511 0.22563 0.0
H66 H 0.98278 0.97494 0.41282 0.0
H67 H 0.75627 0.81736 0.12624 0.0
Zn68 Zn 0.44909 0.63859 0.61554 0.0
C69 C 0.33896 0.6265 0.59163 0.0
N70 N 0.34171 0.64214 0.53559 0.0
C71 C 0.37693 0.65189 0.54329 0.0
N72 N 0.39536 0.64164 0.60123 0.0
N73 N 0.37134 0.6273 0.63428 0.0
C74 C 0.33626 0.56525 0.73762 0.0
O75 O 0.34281 0.55948 0.67353 0.0
O76 O 0.47135 0.68456 0.64092 0.0
Zn77 Zn 0.38448 0.6205 0.73287 0.0
N78 N 0.46527 0.61951 0.5288 0.0
C79 C 0.44898 0.58573 0.42103 0.0
C80 C 0.44069 0.59882 0.48556 0.0
C81 C 0.49886 0.6265 0.51095 0.0
N82 N 0.48192 0.59323 0.40261 0.0
C83 C 0.50747 0.61303 0.44572 0.0
O84 O 0.4311 0.59377 0.75256 0.0
C85 C 0.46395 0.59442 0.73921 0.0
O86 O 0.47278 0.61084 0.69166 0.0
H87 H 0.41458 0.59281 0.5008 0.0
H88 H 0.51824 0.64272 0.54637 0.0
C89 C 0.37647 0.68212 0.83546 0.0
C90 C 0.3925 0.71109 0.87774 0.0
C91 C 0.448 0.70141 0.83173 0.0
C92 C 0.43211 0.67349 0.78917 0.0
N93 N 0.39684 0.66406 0.79113 0.0
N94 N 0.42784 0.71961 0.87449 0.0
H95 H 0.34875 0.67398 0.83842 0.0
C96 C 0.4558 0.71108 0.66429 0.0
O97 O 0.42063 0.71044 0.66802 0.0
O98 O 0.34799 0.59293 0.77277 0.0
H99 H 0.44795 0.65961 0.75417 0.0
H100 H 0.4294 0.56968 0.38576 0.0
H101 H 0.47622 0.70855 0.83111 0.0
Zn102 Zn 0.62743 0.10989 0.91052 0.0
C103 C 0.60447 0.11888 0.70526 0.0
N104 N 0.60919 0.08537 0.69669 0.0
C105 C 0.62077 0.07801 0.76057 0.0
N106 N 0.62245 0.10623 0.80797 0.0
N107 N 0.61328 0.13203 0.77175 0.0
C108 C 0.54648 0.20864 0.74137 0.0
O109 O 0.55894 0.20676 0.68177 0.0
O110 O 0.67611 0.08998 0.94813 0.0
Zn111 Zn 0.61536 0.18119 0.79794 0.0
N112 N 0.58517 0.08785 0.94032 0.0
C113 C 0.55198 0.03607 0.93932 0.0
C114 C 0.58226 0.05356 0.92475 0.0
C115 C 0.55925 0.10539 0.97307 0.0
N116 N 0.52593 0.05345 0.97035 0.0
C117 C 0.52856 0.08767 0.98838 0.0
O118 O 0.63599 0.20015 0.89609 0.0
C119 C 0.63736 0.18933 0.95472 0.0
O120 O 0.63247 0.15793 0.95992 0.0
H121 H 0.60328 0.03984 0.901 0.0
H122 H 0.56212 0.13266 0.98596 0.0
C123 C 0.63266 0.23498 0.71469 0.0
C124 C 0.65093 0.24789 0.66463 0.0
C125 C 0.68569 0.19761 0.65651 0.0
C126 C 0.66717 0.18466 0.70521 0.0
N127 N 0.64079 0.20326 0.73302 0.0
N128 N 0.6772 0.22878 0.63748 0.0
H129 H 0.61233 0.24994 0.73863 0.0
C130 C 0.68952 0.09536 1.01167 0.0
O131 O 0.66915 0.10999 0.0559 0.0
O132 O 0.56512 0.19736 0.7923 0.0
H133 H 0.67361 0.15978 0.72055 0.0
H134 H 0.54925 0.0088 0.92629 0.0
H135 H 0.70667 0.18298 0.6339 0.0
Zn136 Zn 0.12623 0.61833 0.42194 0.0
C137 C 0.10675 0.62622 0.21541 0.0
N138 N 0.11513 0.59348 0.20655 0.0
C139 C 0.12686 0.58631 0.27072 0.0
N140 N 0.12502 0.61402 0.31871 0.0
N141 N 0.11352 0.63915 0.28214 0.0
C142 C 0.04348 0.7061 0.33239 0.0
O143 O 0.0538 0.69168 0.38841 0.0
O144 O 0.17491 0.6015 0.47198 0.0
Zn145 Zn 0.11374 0.68813 0.304 0.0
N146 N 0.08214 0.59543 0.44529 0.0
C147 C 0.04611 0.54426 0.42519 0.0
C148 C 0.07747 0.56234 0.41821 0.0
C149 C 0.0564 0.61102 0.48185 0.0
N150 N 0.02038 0.55978 0.45995 0.0
C151 C 0.02433 0.59264 0.48913 0.0
O152 O 0.13148 0.70884 0.40207 0.0
C153 C 0.13166 0.69845 0.46084 0.0
O154 O 0.12774 0.66704 0.467 0.0
H155 H 0.09775 0.55003 0.39057 0.0
H156 H 0.06032 0.63737 0.5034 0.0
C157 C 0.12943 0.73661 0.21008 0.0
C158 C 0.14795 0.74751 0.15817 0.0
C159 C 0.18911 0.70191 0.17069 0.0
C160 C 0.17066 0.69114 0.22173 0.0
N161 N 0.14098 0.7083 0.23992 0.0
N162 N 0.17723 0.72954 0.13994 0.0
H163 H 0.10553 0.74975 0.22488 0.0
C164 C 0.18634 0.61133 0.53542 0.0
O165 O 0.1647 0.62955 0.57218 0.0
O166 O 0.06365 0.70422 0.28503 0.0
H167 H 0.17933 0.66871 0.24559 0.0
H168 H 0.04218 0.51801 0.40297 0.0
H169 H 0.21248 0.68821 0.15505 0.0
Zn170 Zn 0.63338 0.89058 0.67689 0.0
C171 C 0.60628 0.90522 0.86958 0.0
N172 N 0.61124 0.9384 0.86544 0.0
C173 C 0.62653 0.93871 0.80743 0.0
N174 N 0.62944 0.90691 0.77474 0.0
N175 N 0.61865 0.88598 0.81645 0.0
C176 C 0.55122 0.81906 0.79939 0.0
O177 O 0.54383 0.85001 0.78497 0.0
O178 O 0.6565 0.92352 0.6215 0.0
Zn179 Zn 0.62944 0.83771 0.81549 0.0
N180 N 0.58548 0.87126 0.63098 0.0
C181 C 0.54811 0.82146 0.62659 0.0
C182 C 0.57838 0.84159 0.65548 0.0
C183 C 0.56217 0.88205 0.57807 0.0
N184 N 0.52465 0.83236 0.57552 0.0
C185 C 0.53047 0.86214 0.55053 0.0
O186 O 0.6543 0.81406 0.73554 0.0
C187 C 0.66861 0.82092 0.68324 0.0
O188 O 0.6666 0.85038 0.66342 0.0
H189 H 0.59609 0.83361 0.6978 0.0
H190 H 0.56801 0.90551 0.55802 0.0
C191 C 0.6598 0.80184 0.92735 0.0
C192 C 0.68333 0.79746 0.98791 0.0
C193 C 0.70923 0.85242 0.98648 0.0
C194 C 0.68593 0.85654 0.92645 0.0
N195 N 0.66153 0.83136 0.89849 0.0
N196 N 0.70725 0.82321 1.01578 0.0
H197 H 0.6398 0.78245 0.90397 0.0
C198 C 0.69044 0.9305 0.63994 0.0
O199 O 0.70542 0.92318 0.70069 0.0
O200 O 0.58415 0.8109 0.81616 0.0
H201 H 0.68711 0.87965 0.90238 0.0
H202 H 0.54315 0.79737 0.64472 0.0
H203 H 0.72869 0.87229 1.0098 0.0
Zn204 Zn 0.36595 0.40476 0.91597 0.0
C205 C 0.38605 0.402 0.72116 0.0
N206 N 0.3725 0.43338 0.72263 0.0
C207 C 0.35716 0.43681 0.78149 0.0
N208 N 0.36193 0.40907 0.81594 0.0
N209 N 0.37856 0.38693 0.7756 0.0
C210 C 0.43648 0.30328 0.80667 0.0
O211 O 0.42547 0.30644 0.86765 0.0
O212 O 0.32813 0.43137 0.96717 0.0
Zn213 Zn 0.37208 0.33868 0.76561 0.0
N214 N 0.4163 0.41868 0.95873 0.0
C215 C 0.46983 0.44958 0.94495 0.0
C216 C 0.43391 0.43901 0.92208 0.0
C217 C 0.43402 0.40785 1.01795 0.0
N218 N 0.48744 0.43866 1.00291 0.0
C219 C 0.47104 0.41787 0.04061 0.0
O220 O 0.3513 0.31881 0.84175 0.0
C221 C 0.35038 0.32649 0.90594 0.0
O222 O 0.35773 0.35644 0.9358 0.0
H223 H 0.42047 0.44659 0.87446 0.0
H224 H 0.42 0.39084 0.0454 0.0
C225 C 0.35504 0.29828 0.63423 0.0
C226 C 0.33556 0.28939 0.56801 0.0
C227 C 0.29264 0.33217 0.59289 0.0
C228 C 0.31216 0.34089 0.65815 0.0
N229 N 0.34301 0.32394 0.67748 0.0
N230 N 0.30481 0.30692 0.54931 0.0
H231 H 0.38013 0.2857 0.65047 0.0
C232 C 0.29377 0.42747 0.94832 0.0
O233 O 0.28234 0.40998 0.88849 0.0
O234 O 0.419 0.31725 0.7582 0.0
H235 H 0.30322 0.36139 0.69282 0.0
H236 H 0.48393 0.46585 0.91611 0.0
H237 H 0.26823 0.34571 0.5769 0.0
Zn238 Zn 0.94807 0.14803 0.11589 0.0
C239 C 0.84268 0.11972 0.05773 0.0
N240 N 0.84892 0.134 1.00143 0.0
C241 C 0.88172 0.14932 0.0204 0.0
N242 N 0.89551 0.14384 0.08506 0.0
N243 N 0.87043 0.12686 0.11053 0.0
C244 C 0.84497 0.07948 0.29361 0.0
O245 O 0.86432 0.09858 0.34471 0.0
O246 O 0.9608 0.19667 0.14026 0.0
Zn247 Zn 0.87119 0.12871 0.2109 0.0
N248 N 0.97279 0.12684 0.03972 0.0
C249 C 0.96609 0.08243 0.94633 0.0
C250 C 0.95372 0.09945 1.00422 0.0
C251 C 1.00509 0.13713 0.02073 0.0
N252 N 0.99753 0.09304 0.92644 0.0
C253 C 0.01771 0.11977 0.96192 0.0
O254 O 0.92161 0.12169 0.26213 0.0
C255 C 0.9557 0.12038 0.25754 0.0
O256 O 0.96813 0.12737 0.20342 0.0
H257 H 0.92875 0.09098 0.02057 0.0
H258 H 0.02034 0.15863 0.04998 0.0
C259 C 0.86565 0.19078 0.30818 0.0
C260 C 0.85501 0.22478 0.32392 0.0
C261 C 0.8208 0.22241 0.2124 0.0
C262 C 0.83213 0.18939 0.19647 0.0
N263 N 0.85398 0.17386 0.24437 0.0
N264 N 0.83268 0.2393 0.27511 0.0
H265 H 0.88416 0.17854 0.34474 0.0
C266 C 0.96897 0.21891 0.10331 0.0
O267 O 0.9697 0.2106 0.03707 0.0
O268 O 0.84126 0.08921 0.23361 0.0
H269 H 0.82416 0.17665 0.1453 0.0
H270 H 0.95081 0.06089 0.91731 0.0
H271 H 0.80339 0.23488 0.17459 0.0
Zn272 Zn 0.90328 0.60757 0.86143 0.0
C273 C 0.912 0.60252 0.65956 0.0
N274 N 0.90103 0.56996 0.65636 0.0
C275 C 0.89077 0.56793 0.71881 0.0
N276 N 0.89578 0.59812 0.75966 0.0
N277 N 0.90763 0.61996 0.72085 0.0
C278 C 0.97693 0.68702 0.78589 0.0
O279 O 0.966 0.67058 0.83382 0.0
O280 O 0.87157 0.57873 0.91251 0.0
Zn281 Zn 0.90584 0.66945 0.73366 0.0
N282 N 0.95655 0.606 0.89184 0.0
C283 C 0.01449 0.59469 0.85418 0.0
C284 C 0.97658 0.59328 0.84189 0.0
C285 C 0.97358 0.6202 0.95478 0.0
N286 N 0.03131 0.60869 0.91627 0.0
C287 C 1.01238 0.62163 0.96774 0.0
O288 O 0.88926 0.692 0.8223 0.0
C289 C 0.88287 0.68405 0.8803 0.0
O290 O 0.88717 0.65402 0.89608 0.0
H291 H 0.96336 0.58275 0.7918 0.0
H292 H 0.95716 0.631 0.99301 0.0
C293 C 0.87349 0.71139 0.62848 0.0
C294 C 0.84552 0.71899 0.5765 0.0
C295 C 0.81307 0.66895 0.59107 0.0
C296 C 0.84064 0.66164 0.64234 0.0
N297 N 0.87041 0.6827 0.65973 0.0
N298 N 0.81622 0.69722 0.55941 0.0
H299 H 0.89754 0.72765 0.64332 0.0
C300 C 0.83687 0.57931 0.89634 0.0
O301 O 0.82377 0.59223 0.8398 0.0
O302 O 0.95506 0.68929 0.73119 0.0
H303 H 0.8383 0.63933 0.66849 0.0
H304 H 0.03054 0.58487 0.81449 0.0
H305 H 0.7893 0.65232 0.57648 0.0
Zn306 Zn 0.15678 0.10444 0.62149 0.0
C307 C 0.14161 0.11149 0.82004 0.0
N308 N 0.15555 0.08036 0.82125 0.0
C309 C 0.16886 0.07468 0.76044 0.0
N310 N 0.16233 0.1011 0.72218 0.0
N311 N 0.14683 0.12447 0.76193 0.0
C312 C 0.08802 0.20118 0.70679 0.0
O313 O 0.09689 0.1855 0.64918 0.0
O314 O 0.19508 0.07898 0.56981 0.0
Zn315 Zn 0.15341 0.17272 0.76627 0.0
N316 N 0.1068 0.08831 0.58173 0.0
C317 C 0.05462 0.05627 0.59834 0.0
C318 C 0.09005 0.06844 0.62057 0.0
C319 C 0.08856 0.09741 0.52145 0.0
N320 N 0.03659 0.06524 0.53888 0.0
C321 C 0.05201 0.08571 0.49921 0.0
O322 O 0.17773 0.18962 0.69091 0.0
C323 C 0.17374 0.18219 0.62579 0.0
O324 O 0.16263 0.1528 0.59708 0.0
H325 H 0.10389 0.06221 0.66912 0.0
H326 H 0.10197 0.11424 0.49273 0.0
C327 C 0.17009 0.21462 0.89754 0.0
C328 C 0.1903 0.22388 0.96308 0.0
C329 C 0.23256 0.18053 0.93812 0.0
C330 C 0.21254 0.17161 0.87349 0.0
N331 N 0.18165 0.1886 0.85455 0.0
N332 N 0.22101 0.20622 0.98137 0.0
H333 H 0.14495 0.22722 0.88153 0.0
C334 C 0.22912 0.08579 0.58691 0.0
O335 O 0.2397 0.10509 0.64503 0.0
O336 O 0.10666 0.19667 0.76371 0.0
H337 H 0.22113 0.15088 0.8389 0.0
H338 H 0.04125 0.04021 0.62868 0.0
H339 H 0.25691 0.16684 0.95386 0.0
Zn340 Zn 0.58018 0.35897 0.42622 0.0
C341 C 0.68552 0.39229 0.47105 0.0
N342 N 0.68144 0.3833 0.53305 0.0
C343 C 0.64951 0.36604 0.52297 0.0
N344 N 0.63331 0.36599 0.45666 0.0
N345 N 0.65687 0.38075 0.42299 0.0
C346 C 0.67524 0.42682 0.23602 0.0
O347 O 0.65384 0.40832 0.18696 0.0
O348 O 0.56815 0.30941 0.40927 0.0
Zn349 Zn 0.65396 0.37609 0.32167 0.0
N350 N 0.5548 0.3825 0.49941 0.0
C351 C 0.55863 0.43183 0.58171 0.0
C352 C 0.57217 0.41209 0.52812 0.0
C353 C 0.52324 0.37228 0.52139 0.0
N354 N 0.52773 0.4216 0.60415 0.0
C355 C 0.5093 0.39252 0.57558 0.0
O356 O 0.60286 0.38121 0.27261 0.0
C357 C 0.56901 0.38225 0.27907 0.0
O358 O 0.55791 0.37665 0.33536 0.0
H359 H 0.59657 0.42033 0.50939 0.0
H360 H 0.50945 0.34886 0.49764 0.0
C361 C 0.66195 0.31393 0.2252 0.0
C362 C 0.67281 0.27986 0.21053 0.0
C363 C 0.70356 0.28208 0.32495 0.0
C364 C 0.6919 0.31507 0.33973 0.0
N365 N 0.67177 0.33077 0.28987 0.0
N366 N 0.69357 0.26531 0.26138 0.0
H367 H 0.6446 0.32628 0.1871 0.0
C368 C 0.57688 0.29227 0.35568 0.0
O369 O 0.59464 0.3073 0.31376 0.0
O370 O 0.68217 0.41606 0.29493 0.0
H371 H 0.69836 0.32779 0.39138 0.0
H372 H 0.5725 0.45524 0.6052 0.0
H373 H 0.71975 0.26952 0.36426 0.0
Zn374 Zn 0.41035 0.82512 0.25423 0.0
C375 C 0.39627 0.92689 0.27341 0.0
N376 N 0.409 0.92274 0.33903 0.0
C377 C 0.4183 0.89011 0.33529 0.0
N378 N 0.41094 0.87441 0.27064 0.0
N379 N 0.39802 0.89745 0.23026 0.0
C380 C 0.33812 0.90495 1.01754 0.0
O381 O 0.35587 0.88537 0.97535 0.0
O382 O 0.46014 0.80603 0.26989 0.0
Zn383 Zn 0.39844 0.8901 0.12869 0.0
N384 N 0.38298 0.80848 0.32103 0.0
C385 C 0.33197 0.81655 0.38239 0.0
C386 C 0.3526 0.82608 0.3335 0.0
C387 C 0.39352 0.78119 0.35499 0.0
N388 N 0.34247 0.78964 0.41657 0.0
C389 C 0.37267 0.77136 0.40459 0.0
O390 O 0.38839 0.84129 0.08626 0.0
C391 C 0.38266 0.8111 0.09913 0.0
O392 O 0.3877 0.80325 0.16037 0.0
H393 H 0.34469 0.84754 0.30585 0.0
H394 H 0.41803 0.76788 0.34429 0.0
C395 C 0.46637 0.89299 0.05741 0.0
C396 C 0.50445 0.89999 0.06054 0.0
C397 C 0.50494 0.92917 0.17243 0.0
C398 C 0.46784 0.92222 0.16948 0.0
N399 N 0.44881 0.90403 0.11286 0.0
N400 N 0.5223 0.91785 0.11839 0.0
H401 H 0.45146 0.8781 1.01285 0.0
C402 C 0.47748 0.79954 0.21875 0.0
O403 O 0.46479 0.8104 0.15979 0.0
O404 O 0.35272 0.9124 0.08 0.0
H405 H 0.45493 0.93063 0.2138 0.0
H406 H 0.3078 0.8304 0.39325 0.0
H407 H 0.51999 0.94326 0.21782 0.0
Zn408 Zn 0.91313 0.32611 0.7338 0.0
C409 C 0.90288 0.4284 0.76761 0.0
N410 N 0.91473 0.42122 0.83166 0.0
C411 C 0.92205 0.38822 0.82286 0.0
N412 N 0.91462 0.37516 0.75624 0.0
N413 N 0.90359 0.40047 0.7198 0.0
C414 C 0.83865 0.40744 0.50904 0.0
O415 O 0.85859 0.39035 0.46703 0.0
O416 O 0.96288 0.30892 0.75205 0.0
Zn417 Zn 0.90066 0.39626 0.61664 0.0
N418 N 0.88519 0.30674 0.79796 0.0
C419 C 0.83616 0.31441 0.86482 0.0
C420 C 0.85546 0.3244 0.81424 0.0
C421 C 0.89606 0.27872 0.8295 0.0
N422 N 0.84727 0.28702 0.89708 0.0
C423 C 0.87664 0.26856 0.88098 0.0
O424 O 0.89742 0.3477 0.56975 0.0
C425 C 0.89336 0.31631 0.57615 0.0
O426 O 0.89476 0.30594 0.63523 0.0
H427 H 0.84736 0.34661 0.78913 0.0
H428 H 0.92007 0.26524 0.81628 0.0
C429 C 0.97068 0.40361 0.55777 0.0
C430 C 1.00145 0.42288 0.54702 0.0
C431 C 0.97583 0.47241 0.59997 0.0
C432 C 0.94563 0.45347 0.61005 0.0
N433 N 0.94363 0.41943 0.5904 0.0
N434 N 1.00291 0.45675 0.56918 0.0
H435 H 0.9687 0.37653 0.54172 0.0
C436 C 0.98289 0.30714 0.70443 0.0
O437 O 0.97232 0.32156 0.6485 0.0
O438 O 0.85191 0.41458 0.57242 0.0
H439 H 0.92397 0.46591 0.63379 0.0
H440 H 0.81269 0.3285 0.87886 0.0
H441 H 0.97772 0.49946 0.61638 0.0
Zn442 Zn 0.40403 0.16714 0.22343 0.0
C443 C 0.39509 0.06545 0.20807 0.0
N444 N 0.40668 0.06903 0.14743 0.0
C445 C 0.4157 0.1019 0.15229 0.0
N446 N 0.40894 0.11832 0.21307 0.0
N447 N 0.39692 0.09562 0.25004 0.0
C448 C 0.33125 0.08236 0.38807 0.0
O449 O 0.31831 0.09323 0.32924 0.0
O450 O 0.45271 0.18844 0.22291 0.0
Zn451 Zn 0.40158 0.1062 0.35304 0.0
N452 N 0.36897 0.17752 0.14717 0.0
C453 C 0.31344 0.16054 0.07532 0.0
C454 C 0.34065 0.15487 0.12851 0.0
C455 C 0.37092 0.20614 0.1155 0.0
N456 N 0.31542 0.18887 0.04329 0.0
C457 C 0.34323 0.21215 0.06186 0.0
O458 O 0.38978 0.15446 0.3877 0.0
C459 C 0.38286 0.18377 0.36965 0.0
O460 O 0.38552 0.19021 0.30886 0.0
H461 H 0.33917 0.13261 0.15514 0.0
H462 H 0.39389 0.2236 0.13155 0.0
C463 C 0.47116 0.11623 0.44718 0.0
C464 C 0.50953 0.11331 0.46232 0.0
C465 C 0.50952 0.07694 0.35778 0.0
C466 C 0.47185 0.07965 0.34339 0.0
N467 N 0.45322 0.09944 0.38751 0.0
N468 N 0.52735 0.09372 0.41649 0.0
H469 H 0.45597 0.13222 0.48118 0.0
C470 C 0.47509 0.18406 0.27586 0.0
O471 O 0.46501 0.1649 0.32042 0.0
O472 O 0.36582 0.08232 0.40542 0.0
H473 H 0.45784 0.06659 0.29623 0.0
H474 H 0.29083 0.14264 0.0597 0.0
H475 H 0.52458 0.06162 0.32249 0.0
Zn476 Zn 0.6593 0.60094 0.12491 0.0
C477 C 0.6392 0.60417 0.32165 0.0
N478 N 0.65156 0.57236 0.31925 0.0
C479 C 0.6667 0.5684 0.26021 0.0
N480 N 0.6628 0.59646 0.22606 0.0
N481 N 0.64717 0.61913 0.26745 0.0
C482 C 0.58589 0.6955 0.22873 0.0
O483 O 0.59432 0.67924 0.17122 0.0
O484 O 0.69909 0.5761 0.07482 0.0
Zn485 Zn 0.65268 0.66796 0.27838 0.0
N486 N 0.60948 0.58463 0.08031 0.0
C487 C 0.55367 0.55954 0.10049 0.0
C488 C 0.58876 0.57214 0.12422 0.0
C489 C 0.5954 0.58575 1.01241 0.0
N490 N 0.53989 0.56043 0.03363 0.0
C491 C 0.5592 0.57323 0.98787 0.0
O492 O 0.6711 0.68684 0.19951 0.0
C493 C 0.67281 0.67996 0.13547 0.0
O494 O 0.66633 0.65004 0.10437 0.0
H495 H 0.59934 0.57163 0.17769 0.0
H496 H 0.61214 0.59602 0.97839 0.0
C497 C 0.67671 0.70551 0.41421 0.0
C498 C 0.70336 0.7174 0.47026 0.0
C499 C 0.74709 0.6823 0.4202 0.0
C500 C 0.7208 0.67093 0.36459 0.0
N501 N 0.68626 0.68289 0.36212 0.0
N502 N 0.73794 0.70545 0.47113 0.0
H503 H 0.64912 0.71496 0.41098 0.0
C504 C 0.73314 0.58294 0.09265 0.0
O505 O 0.74336 0.60225 0.1509 0.0
O506 O 0.60554 0.69171 0.28522 0.0
H507 H 0.72792 0.65304 0.32296 0.0
H508 H 0.53728 0.54929 0.13515 0.0
H509 H 0.77471 0.67303 0.42248 0.0
Zn510 Zn 0.07706 0.86561 0.92376 0.0
C511 C 0.18344 0.89361 0.97937 0.0
N512 N 0.17693 0.88036 0.03671 0.0
C513 C 0.1434 0.86629 0.01935 0.0
N514 N 0.12942 0.87161 0.95473 0.0
N515 N 0.15497 0.8872 0.92767 0.0
C516 C 0.1792 0.93354 0.74304 0.0
O517 O 0.15906 0.91461 0.69276 0.0
O518 O 0.06526 0.81636 0.91102 0.0
Zn519 Zn 0.15356 0.88467 0.8272 0.0
N520 N 0.05204 0.88867 0.99723 0.0
C521 C 0.05606 0.93633 0.08349 0.0
C522 C 0.06945 0.91785 0.0282 0.0
C523 C 0.02071 0.87759 1.0186 0.0
N524 N 0.02538 0.92519 0.10545 0.0
C525 C 1.00701 0.89645 0.07461 0.0
O526 O 0.10291 0.89169 0.7763 0.0
C527 C 0.06868 0.89159 0.77989 0.0
O528 O 0.0563 0.88355 0.83329 0.0
H529 H 0.09389 0.92658 1.01026 0.0
H530 H 1.00707 0.85439 0.99327 0.0
C531 C 0.15859 0.82283 0.73025 0.0
C532 C 0.1666 0.78811 0.71521 0.0
C533 C 0.19706 0.78813 0.82918 0.0
C534 C 0.18824 0.82195 0.84442 0.0
N535 N 0.16947 0.83895 0.79501 0.0
N536 N 0.18579 0.77201 0.76552 0.0
H537 H 0.14232 0.83625 0.69245 0.0
C538 C 0.07368 0.79908 0.85726 0.0
O539 O 0.09031 0.81418 0.81382 0.0
O540 O 0.18386 0.92364 0.80293 0.0
H541 H 0.19557 0.83414 0.89621 0.0
H542 H 0.06994 0.95939 0.1089 0.0
H543 H 0.21193 0.77447 0.86822 0.0
C544 C 0.99586 0.27656 0.10038 0.0
C545 C 0.98323 0.25206 0.138 0.0
H546 H 0.02836 0.32157 0.10423 0.0
C547 C 0.98827 0.25773 0.21049 0.0
H548 H 0.99168 0.2732 0.04455 0.0
C549 C 1.00952 0.28517 0.24468 0.0
C550 C 0.02554 0.30757 0.20689 0.0
H551 H 0.97806 0.2397 0.24107 0.0
H552 H 0.01535 0.28753 0.30039 0.0
C553 C 0.01672 0.30433 0.13471 0.0
C554 C 1.00302 0.74553 0.27005 0.0
C555 C 0.0148 0.73158 0.33139 0.0
H556 H 0.9714 0.78349 0.22231 0.0
C557 C 1.00272 0.74546 0.39301 0.0
H558 H 1.01209 0.73541 0.22186 0.0
C559 C 0.97986 0.77339 0.39348 0.0
C560 C 0.9685 0.78757 0.33221 0.0
H561 H 1.01178 0.73544 0.44119 0.0
H562 H 0.9708 0.7836 0.4416 0.0
C563 C 0.98007 0.77326 0.27045 0.0
C564 C 0.48812 0.7983 0.74877 0.0
C565 C 0.5243 0.79144 0.77531 0.0
H566 H 0.43759 0.77775 0.69186 0.0
C567 C 0.53664 0.75789 0.76816 0.0
H568 H 0.47799 0.82398 0.75351 0.0
C569 C 0.51438 0.73219 0.73079 0.0
C570 C 0.47876 0.73912 0.70193 0.0
H571 H 0.56427 0.75159 0.7882 0.0
H572 H 0.5251 0.70674 0.72498 0.0
C573 C 0.46526 0.77209 0.71285 0.0
C574 C 0.47634 0.27647 0.72468 0.0
C575 C 0.46483 0.27923 0.79024 0.0
H576 H 0.51078 0.25117 0.65697 0.0
C577 C 0.47845 0.25705 0.8375 0.0
H578 H 0.46595 0.29314 0.68695 0.0
C579 C 0.50362 0.23273 0.81988 0.0
C580 C 0.51579 0.23045 0.75493 0.0
H581 H 0.46956 0.25828 0.8879 0.0
H582 H 0.51416 0.21623 0.85783 0.0
C583 C 0.50161 0.25219 0.7071 0.0
C584 C 0.02493 0.7178 0.87105 0.0
C585 C 1.00984 0.70896 0.80197 0.0
H586 H 0.0575 0.75401 0.94297 0.0
C587 C 0.02267 0.72548 0.75027 0.0
H588 H 0.01601 0.7051 0.91194 0.0
C589 C 0.04701 0.75309 0.7681 0.0
C590 C 0.0581 0.76471 0.83779 0.0
H591 H 1.01194 0.71865 0.69651 0.0
H592 H 0.05437 0.7671 0.72771 0.0
C593 C 0.04862 0.74579 0.88891 0.0
C594 C 0.04871 0.24172 0.64403 0.0
C595 C 0.06081 0.22804 0.70553 0.0
H596 H 0.01519 0.27851 0.59581 0.0
C597 C 0.04898 0.2421 0.76723 0.0
H598 H 0.05793 0.23168 0.59595 0.0
C599 C 0.02491 0.26901 0.76728 0.0
C600 C 1.01234 0.2824 0.70567 0.0
H601 H 0.05817 0.23222 0.81552 0.0
H602 H 0.01562 0.27891 0.8154 0.0
C603 C 0.02477 0.26887 0.64416 0.0
C604 C 0.52191 0.22253 0.2436 0.0
C605 C 0.50842 0.20535 0.29373 0.0
H606 H 0.55566 0.26345 0.22433 0.0
C607 C 0.52374 0.21252 0.36309 0.0
H608 H 0.5109 0.21702 0.18965 0.0
C609 C 0.5488 0.23937 0.38298 0.0
C610 C 0.55945 0.25879 0.33358 0.0
H611 H 0.51415 0.19937 0.40275 0.0
H612 H 0.55799 0.24634 0.43737 0.0
C613 C 0.54763 0.24892 0.2634 0.0
C614 C 0.54654 0.73746 0.28761 0.0
C615 C 0.55767 0.72168 0.2265 0.0
H616 H 0.51273 0.77496 0.33319 0.0
C617 C 0.54347 0.73279 0.16331 0.0
H618 H 0.55726 0.72957 0.33712 0.0
C619 C 0.51851 0.75911 0.16115 0.0
C620 C 0.50695 0.77457 0.22208 0.0
H621 H 0.55188 0.72141 0.11541 0.0
H622 H 0.50771 0.76679 0.11151 0.0
C623 C 0.52129 0.76359 0.28539 0.0
C624 C 0.27936 0.44176 0.06957 0.0
C625 C 0.26729 0.43623 0.99833 0.0
H626 H 0.26461 0.44559 0.17173 0.0
C627 C 0.22934 0.43492 0.97612 0.0
H628 H 0.30832 0.44286 0.0887 0.0
C629 C 0.20418 0.43701 0.0239 0.0
C630 C 0.21638 0.43989 0.09511 0.0
H631 H 0.21903 0.43081 0.92167 0.0
H632 H 0.17527 0.43416 1.00487 0.0
C633 C 0.25424 0.44328 0.11729 0.0
C634 C 0.81934 0.98735 0.24242 0.0
C635 C 0.83984 0.9721 0.29579 0.0
H636 H 0.80441 0.03344 0.20006 0.0
C637 C 0.85351 0.99265 0.35667 0.0
H638 H 0.80791 0.97205 0.19519 0.0
C639 C 0.85201 0.02824 0.35913 0.0
C640 C 0.8363 0.0435 0.30108 0.0
H641 H 0.86842 0.98169 0.39951 0.0
H642 H 0.86601 0.04363 0.40403 0.0
C643 C 0.81758 0.02264 0.24493 0.0
C644 C 0.24164 0.62972 0.62222 0.0
C645 C 0.22562 0.60791 0.56406 0.0
H646 H 0.2915 0.65209 0.67929 0.0
C647 C 0.24851 0.58593 0.52912 0.0
H648 H 0.22488 0.64701 0.65063 0.0
C649 C 0.28657 0.58816 0.54734 0.0
C650 C 0.3028 0.61264 0.6003 0.0
H651 H 0.23723 0.5686 0.48467 0.0
H652 H 0.30355 0.57322 0.5149 0.0
C653 C 0.2799 0.63229 0.63975 0.0
C654 C 0.65753 0.995 0.81963 0.0
C655 C 0.63179 0.97136 0.7813 0.0
H656 H 0.67496 0.04749 0.8426 0.0
C657 C 0.60343 0.98309 0.7362 0.0
H658 H 0.67907 0.98653 0.85647 0.0
C659 C 0.59985 0.01788 0.73179 0.0
C660 C 0.62458 0.04184 0.7722 0.0
H661 H 0.58247 0.96562 0.70824 0.0
H662 H 0.57695 0.02617 0.69763 0.0
C663 C 0.65441 0.02995 0.81405 0.0
C664 C 0.82337 0.5772 1.01802 0.0
C665 C 0.81142 0.573 0.94668 0.0
H666 H 0.80809 0.58368 0.11997 0.0
C667 C 0.77372 0.56774 0.92431 0.0
H668 H 0.8521 0.58159 0.03722 0.0
C669 C 0.74846 0.56847 0.97181 0.0
C670 C 0.76015 0.57515 0.04305 0.0
H671 H 0.76351 0.56445 0.86978 0.0
H672 H 0.71958 0.56583 0.95241 0.0
C673 C 0.79804 0.57856 0.06554 0.0
C674 C 0.17126 0.98484 0.67773 0.0
C675 C 0.18762 0.96957 0.73531 0.0
H676 H 0.15432 0.0314 0.63783 0.0
C677 C 0.20682 0.99046 0.79091 0.0
H678 H 0.15682 0.96945 0.63329 0.0
C679 C 0.20506 0.02576 0.7934 0.0
C680 C 0.18412 0.04102 0.74055 0.0
H681 H 0.22042 0.97967 0.83542 0.0
H682 H 0.21693 0.04107 0.8403 0.0
C683 C 0.16975 0.02044 0.68017 0.0
C684 C 0.73948 0.42868 0.51778 0.0
C685 C 0.72148 0.40691 0.4617 0.0
H686 H 0.79043 0.44585 0.57716 0.0
C687 C 0.74248 0.39177 0.41255 0.0
H688 H 0.7241 0.44107 0.5564 0.0
C689 C 0.78094 0.39429 0.42489 0.0
C690 C 0.79893 0.4122 0.48635 0.0
H691 H 0.72973 0.37553 0.36803 0.0
H692 H 0.79648 0.37992 0.38897 0.0
C693 C 0.77766 0.43113 0.53027 0.0
C694 C 0.38978 0.98918 0.30748 0.0
C695 C 0.39027 0.96194 0.25457 0.0
H696 H 0.39489 0.04281 0.33549 0.0
C697 C 0.39007 0.96963 0.18728 0.0
H698 H 0.39104 0.98454 0.36082 0.0
C699 C 0.38827 1.00321 0.1726 0.0
C700 C 0.38959 0.0305 0.22573 0.0
H701 H 0.39425 0.95028 0.14667 0.0
H702 H 0.38837 0.00768 0.11945 0.0
C703 C 0.39071 0.02298 0.29335 0.0
C704 C 0.77696 0.94709 0.56325 0.0
C705 C 0.76621 0.9363 0.4929 0.0
H706 H 0.76134 0.95405 0.66477 0.0
C707 C 0.72887 0.92882 0.47033 0.0
H708 H 0.8054 0.95308 0.58262 0.0
C709 C 0.70344 0.92975 0.51747 0.0
C710 C 0.7148 0.93777 0.58853 0.0
H711 H 0.71952 0.9206 0.4165 0.0
H712 H 0.67539 0.92194 0.49859 0.0
C713 C 0.75162 0.9476 0.61047 0.0
C714 C 0.35673 0.49454 0.84478 0.0
C715 C 0.33772 0.46808 0.80062 0.0
H716 H 0.37038 0.54776 0.8598 0.0
C717 C 0.30908 0.47633 0.75112 0.0
H718 H 0.37874 0.48909 0.8837 0.0
C719 C 0.30474 0.50983 0.73631 0.0
C720 C 0.32825 0.53559 0.77247 0.0
H721 H 0.29405 0.45634 0.71628 0.0
H722 H 0.28615 0.51483 0.69131 0.0
C723 C 0.35192 0.5283 0.83088 0.0
C724 C 0.74661 0.10708 0.09778 0.0
C725 C 0.72966 0.09258 0.03239 0.0
H726 H 0.79648 0.12593 0.15946 0.0
C727 C 0.75202 0.07984 0.98354 0.0
H728 H 0.73025 0.11675 0.13715 0.0
C729 C 0.78988 0.0852 0.99652 0.0
C730 C 0.80647 0.10335 0.05858 0.0
H731 H 0.74013 0.06798 0.93317 0.0
H732 H 0.80593 0.07761 0.95534 0.0
C733 C 0.78476 0.11231 0.11086 0.0
C734 C 0.15804 0.54079 0.33748 0.0
C735 C 0.13453 0.55033 0.28144 0.0
H736 H 0.17692 0.49974 0.39451 0.0
C737 C 0.11854 0.52446 0.23076 0.0
H738 H 0.17284 0.55974 0.37433 0.0
C739 C 0.12292 0.49018 0.23931 0.0
C740 C 0.1425 0.48084 0.29964 0.0
H741 H 0.10119 0.53059 0.18516 0.0
H742 H 0.10865 0.47136 0.20106 0.0
C743 C 0.16118 0.50636 0.34759 0.0
C744 C 0.31833 0.08027 0.50982 0.0
C745 C 0.30584 0.07672 0.43868 0.0
H746 H 0.30394 0.08594 0.61236 0.0
C747 C 0.26805 0.07184 0.41705 0.0
H748 H 0.34719 0.08421 0.52846 0.0
C749 C 0.24324 0.0723 0.46526 0.0
C750 C 0.25555 0.07829 0.53638 0.0
H751 H 0.25746 0.06894 0.36269 0.0
H752 H 0.21426 0.06996 0.44662 0.0
C753 C 0.29348 0.08136 0.55802 0.0
C754 C 0.66415 0.47907 0.17453 0.0
C755 C 0.68304 0.46308 0.22891 0.0
H756 H 0.64529 0.52622 0.13969 0.0
C757 C 0.70463 0.48337 0.28245 0.0
H758 H 0.64751 0.46421 0.13198 0.0
C759 C 0.70349 0.5188 0.28623 0.0
C760 C 0.6808 0.53478 0.23678 0.0
H761 H 0.71995 0.47203 0.32462 0.0
H762 H 0.7174 0.53369 0.33194 0.0
C763 C 0.66303 0.51473 0.17848 0.0
C764 C 0.24102 0.89537 0.92253 0.0
C765 C 0.2208 0.907 0.97578 0.0
H766 H 0.29445 0.8854 0.89386 0.0
C767 C 0.23962 0.92464 0.03644 0.0
H768 H 0.2276 0.88229 0.87468 0.0
C769 C 0.27782 0.92685 0.04734 0.0
C770 C 0.29838 0.9112 0.99795 0.0
H771 H 0.22483 0.93427 0.07831 0.0
H772 H 0.29117 0.93846 0.09687 0.0
C773 C 0.27953 0.89719 0.93373 0.0
C774 C 0.90872 0.52448 0.79789 0.0
C775 C 0.88593 0.53409 0.74122 0.0
H776 H 0.93359 0.48377 0.84742 0.0
C777 C 0.86542 0.50872 0.69587 0.0
H778 H 0.9245 0.54321 0.83414 0.0
C779 C 0.86938 0.47421 0.70506 0.0
C780 C 0.8957 0.46444 0.75677 0.0
H781 H 0.84733 0.51553 0.65176 0.0
H782 H 0.85259 0.45541 0.67119 0.0
C783 C 0.91405 0.49014 0.80489 0.0
C784 C 0.16143 0.28074 0.99125 0.0
C785 C 0.17872 0.25151 1.0132 0.0
H786 H 0.13821 0.32889 0.02053 0.0
C787 C 0.18588 0.24909 0.08439 0.0
H788 H 0.15607 0.28384 0.93699 0.0
C789 C 0.17546 0.27486 0.13237 0.0
C790 C 0.15823 0.3041 0.11051 0.0
H791 H 0.19918 0.22696 0.10314 0.0
H792 H 0.18111 0.27192 0.1867 0.0
C793 C 0.15152 0.30678 0.03931 0.0
C794 C 0.9388 0.89381 0.06834 0.0
C795 C 0.9735 0.88686 0.10221 0.0
H796 H 0.88235 0.90373 0.07853 0.0
C797 C 0.97653 0.8794 0.17063 0.0
H798 H 0.93594 0.9006 1.01622 0.0
C799 C 0.94602 0.88103 0.20602 0.0
C800 C 0.91177 0.89035 0.17395 0.0
H801 H 1.00313 0.87497 0.1985 0.0
H802 H 0.95016 0.87837 0.26053 0.0
C803 C 0.90822 0.89577 0.10409 0.0
C804 C 0.37142 0.71352 0.54318 0.0
C805 C 0.38597 0.68329 0.51476 0.0
H806 H 0.35749 0.76493 0.53258 0.0
C807 C 0.39963 0.68282 0.4515 0.0
H808 H 0.359 0.71416 0.59011 0.0
C809 C 0.39779 0.7121 0.41671 0.0
C810 C 0.38174 0.74199 0.44447 0.0
H811 H 0.40953 0.65944 0.42701 0.0
H812 H 0.40665 0.71053 0.36632 0.0
C813 C 0.3699 0.74251 0.50932 0.0
C814 C 0.56888 0.1357 0.52851 0.0
C815 C 0.53144 0.12828 0.5279 0.0
H816 H 0.62217 0.13983 0.58775 0.0
C817 C 0.51796 0.12823 0.59126 0.0
H818 H 0.5801 0.13624 0.4806 0.0
C819 C 0.54223 0.13096 0.65289 0.0
C820 C 0.58018 0.13415 0.65224 0.0
H821 H 0.48945 0.12231 0.59288 0.0
H822 H 0.53174 0.12669 0.70004 0.0
C823 C 0.59304 0.13832 0.59002 0.0
C824 C 0.15525 0.77946 0.58467 0.0
C825 C 0.15342 0.76751 0.64861 0.0
H826 H 0.1502 0.76694 0.47472 0.0
C827 C 0.14192 0.73373 0.64951 0.0
H828 H 0.16423 0.80532 0.5824 0.0
C829 C 0.13387 0.71194 0.58852 0.0
C830 C 0.13751 0.72307 0.52456 0.0
H831 H 0.13971 0.72388 0.69788 0.0
H832 H 0.12532 0.68608 0.59189 0.0
C833 C 0.14746 0.75738 0.52312 0.0
C834 C 0.5162 0.90348 0.93965 0.0
C835 C 0.5262 0.89101 1.00305 0.0
H836 H 0.53442 0.91799 0.84824 0.0
C837 C 0.56169 0.878 1.01718 0.0
H838 H 0.48957 0.91451 0.92804 0.0
C839 C 0.58734 0.87944 0.97084 0.0
C840 C 0.57807 0.89437 0.90997 0.0
H841 H 0.57038 0.86884 0.0664 0.0
H842 H 0.61504 0.87137 0.98515 0.0
C843 C 0.54204 0.90568 0.8943 0.0
C844 C 0.32973 0.26731 0.91628 0.0
C845 C 0.34522 0.2986 0.94791 0.0
H846 H 0.317 0.21574 0.9276 0.0
C847 C 0.35888 0.3018 1.01853 0.0
H848 H 0.31892 0.26402 0.86202 0.0
C849 C 0.35832 0.27389 0.05602 0.0
C850 C 0.34372 0.24233 0.02377 0.0
H851 H 0.37113 0.32555 0.04437 0.0
H852 H 0.36925 0.27713 0.11018 0.0
C853 C 0.32871 0.23962 0.9539 0.0
C854 C 0.01964 0.11374 0.32079 0.0
C855 C 0.98128 0.1113 0.31797 0.0
H856 H 0.07231 0.10776 0.37922 0.0
C857 C 0.96713 0.10091 0.37508 0.0
H858 H 0.0316 0.12174 0.27786 0.0
C859 C 0.99029 0.09316 0.43299 0.0
C860 C 0.02863 0.09555 0.43647 0.0
H861 H 0.93792 0.09872 0.37539 0.0
H862 H 0.9778 0.0854 0.47555 0.0
C863 C 0.04306 0.10603 0.37939 0.0
C864 C 0.87481 0.76736 0.99362 0.0
C865 C 0.84789 0.75891 0.03325 0.0
H866 H 0.90627 0.75041 0.91227 0.0
C867 C 0.83228 0.72603 0.02147 0.0
H868 H 0.88705 0.79265 1.00153 0.0
C869 C 0.84388 0.70175 0.97204 0.0
C870 C 0.87039 0.71021 0.93156 0.0
H871 H 0.81141 0.71897 0.05129 0.0
H872 H 0.83176 0.6764 0.96482 0.0
C873 C 0.88556 0.74334 0.94238 0.0
C874 C 0.11655 0.11654 0.93317 0.0
C875 C 0.1137 0.12372 0.8644 0.0
H876 H 0.08811 0.11097 0.0198 0.0
C877 C 0.08036 0.13572 0.83378 0.0
H878 H 0.1417 0.10662 0.95762 0.0
C879 C 0.04985 0.1381 0.86916 0.0
C880 C 0.05198 0.12874 0.93612 0.0
H881 H 0.07666 0.13988 0.78001 0.0
H882 H 0.02374 0.14458 0.84202 0.0
C883 C 0.08598 0.11923 0.96893 0.0
C884 C 0.67297 0.30626 0.65775 0.0
C885 C 0.64444 0.28216 0.64263 0.0
H886 H 0.69596 0.35207 0.63485 0.0
C887 C 0.61343 0.28911 0.59683 0.0
H888 H 0.69711 0.30162 0.69306 0.0
C889 C 0.61273 0.31842 0.56214 0.0
C890 C 0.64319 0.34073 0.57163 0.0
H891 H 0.59079 0.27096 0.58476 0.0
H892 H 0.58901 0.32296 0.52686 0.0
C893 C 0.67215 0.33529 0.62369 0.0
C894 C 0.43879 0.88222 0.45742 0.0
C895 C 0.44553 0.87866 0.38874 0.0
H896 H 0.4611 0.87999 0.56302 0.0
C897 C 0.48114 0.87168 0.37387 0.0
H898 H 0.41177 0.88858 0.47007 0.0
C899 C 0.50961 0.86819 0.42704 0.0
C900 C 0.50278 0.87172 0.4957 0.0
H901 H 0.48724 0.87025 0.32138 0.0
H902 H 0.53675 0.86219 0.41455 0.0
C903 C 0.46707 0.87815 0.5104 0.0
C904 C 0.8717 0.23413 0.45413 0.0
C905 C 0.86846 0.24641 0.38943 0.0
H906 H 0.88168 0.24656 0.56424 0.0
C907 C 0.87536 0.28116 0.3871 0.0
H908 H 0.86629 0.20755 0.45775 0.0
C909 C 0.88423 0.30331 0.44744 0.0
C910 C 0.88601 0.29162 0.51246 0.0
H911 H 0.87351 0.29144 0.33817 0.0
H912 H 0.88919 0.32984 0.44279 0.0
C913 C 0.88025 0.25657 0.51511 0.0
C914 C 0.50681 0.11682 0.09519 0.0
C915 C 0.49932 0.104 0.02517 0.0
H916 H 0.48553 0.12606 0.19143 0.0
C917 C 0.4626 0.0988 0.99561 0.0
H918 H 0.53487 0.1201 0.11982 0.0
C919 C 0.4342 0.10344 0.03625 0.0
C920 C 0.44182 0.11294 0.10767 0.0
H921 H 0.45604 0.08838 0.94207 0.0
H922 H 0.40658 0.09612 1.01306 0.0
C923 C 0.47835 0.12088 0.1362 0.0
C924 C 0.67152 0.70554 0.02351 0.0
C925 C 0.67848 0.70888 0.09593 0.0
H926 H 0.66764 0.7307 0.93208 0.0
C927 C 0.68807 0.74122 0.13146 0.0
H928 H 0.66397 0.68106 0.99449 0.0
C929 C 0.6897 0.76956 0.09596 0.0
C930 C 0.6819 0.76653 0.02383 0.0
H931 H 0.6936 0.74492 0.1872 0.0
H932 H 0.69609 0.79412 0.12546 0.0
C933 C 0.67316 0.7341 0.98779 0.0
C934 C 0.98107 0.90612 0.65848 0.0
C935 C 0.99538 0.91718 0.6018 0.0
H936 H 0.99272 0.88964 0.75937 0.0
C937 C 0.03372 0.91945 0.60502 0.0
H938 H 0.95183 0.90438 0.65881 0.0
C939 C 0.05697 0.91125 0.66246 0.0
C940 C 0.04296 0.90049 0.71937 0.0
H941 H 0.04613 0.92759 0.5627 0.0
H942 H 0.08616 0.91351 0.66201 0.0
C943 C 1.0046 0.89793 0.71661 0.0
C944 C 0.71817 0.77207 0.5471 0.0
C945 C 0.69524 0.74318 0.52698 0.0
H946 H 0.72748 0.8197 0.6118 0.0
C947 C 0.66534 0.73889 0.5626 0.0
H948 H 0.74154 0.77592 0.52076 0.0
C949 C 0.65829 0.76318 0.61669 0.0
C950 C 0.68037 0.79275 0.63503 0.0
H951 H 0.64748 0.7167 0.54874 0.0
H952 H 0.63452 0.75957 0.64211 0.0
C953 C 0.71035 0.79696 0.59952 0.0
C954 C 0.47812 0.37597 0.67129 0.0
C955 C 0.4754 0.38424 0.60344 0.0
H956 H 0.45193 0.37534 0.76169 0.0
C957 C 0.44124 0.39375 0.57124 0.0
H958 H 0.5044 0.36973 0.6981 0.0
C959 C 0.41098 0.39696 0.60783 0.0
C960 C 0.41427 0.39038 0.67697 0.0
H961 H 0.4387 0.40136 0.51979 0.0
H962 H 0.38563 0.40654 0.58342 0.0
C963 C 0.44793 0.37898 0.7076 0.0
C964 C 0.88611 0.21186 0.02391 0.0
C965 C 0.89079 0.17972 0.98837 0.0
H966 H 0.87861 0.26507 1.01782 0.0
C967 C 0.89497 0.17744 0.91815 0.0
H968 H 0.88169 0.21426 0.07749 0.0
C969 C 0.89346 0.20677 0.88375 0.0
C970 C 0.88659 0.23866 0.91865 0.0
H971 H 0.89748 0.15282 0.88916 0.0
H972 H 0.89499 0.20411 0.82893 0.0
C973 C 0.884 0.24092 0.98952 0.0
C974 C 0.09528 0.64539 0.0997 0.0
C975 C 0.0821 0.64061 0.16128 0.0
H976 H 0.08318 0.64467 0.99065 0.0
C977 C 0.04413 0.63683 0.16083 0.0
H978 H 0.12444 0.64769 0.09837 0.0
C979 C 0.02027 0.63373 0.09847 0.0
C980 C 0.03407 0.63468 0.0355 0.0
H981 H 0.0334 0.63224 0.20756 0.0
H982 H 0.99183 0.62739 0.09953 0.0
C983 C 0.0715 0.64295 0.03772 0.0
C984 C 0.65645 0.22296 0.14476 0.0
C985 C 0.66121 0.25817 0.14388 0.0
H986 H 0.64507 0.17423 0.08741 0.0
C987 C 0.65706 0.27101 0.07963 0.0
H988 H 0.65904 0.21207 0.19311 0.0
C989 C 0.64929 0.24888 1.01795 0.0
C990 C 0.64522 0.21351 0.01925 0.0
H991 H 0.66086 0.29791 0.07684 0.0
H992 H 0.64676 0.25947 0.96931 0.0
C993 C 0.64845 0.20108 0.08373 0.0
C994 C 0.02567 0.39322 0.44256 0.0
C995 C 0.0321 0.40884 0.51092 0.0
H996 H 0.04735 0.38246 0.34692 0.0
C997 C 0.06822 0.41856 0.53899 0.0
H998 H 0.99804 0.38631 0.41887 0.0
C999 C 0.09663 0.41558 0.49822 0.0
C1000 C 0.0897 0.40296 0.42812 0.0
H1001 H 0.07401 0.43099 0.59127 0.0
H1002 H 0.12343 0.42597 0.52005 0.0
C1003 C 0.05417 0.39058 0.40139 0.0
C1004 C 0.83116 0.74644 0.46862 0.0
C1005 C 0.84715 0.74898 0.5379 0.0
H1006 H 0.82048 0.77061 0.37669 0.0
C1007 C 0.86334 0.7802 0.56884 0.0
H1008 H 0.81852 0.72284 0.44306 0.0
C1009 C 0.86408 0.80797 0.53064 0.0
C1010 C 0.84904 0.80488 0.46066 0.0
H1011 H 0.87527 0.78327 0.62248 0.0
H1012 H 0.87747 0.83146 0.55526 0.0
C1013 C 0.83228 0.77389 0.43045 0.0
C1014 C 0.54925 0.59781 0.87222 0.0
C1015 C 0.53989 0.57429 0.91583 0.0
H1016 H 0.53295 0.62205 0.78102 0.0
C1017 C 0.50824 0.55368 0.89333 0.0
H1018 H 0.57302 0.61441 0.88725 0.0
C1019 C 0.48511 0.55835 0.83291 0.0
C1020 C 0.49307 0.58337 0.7919 0.0
H1021 H 0.50014 0.53481 0.92432 0.0
H1022 H 0.45991 0.54346 0.82013 0.0
C1023 C 0.52619 0.60215 0.81083 0.0
C1024 C 0.3424 0.26545 0.44678 0.0
C1025 C 0.34818 0.26233 0.51778 0.0
H1026 H 0.34922 0.24364 0.3447 0.0
C1027 C 0.36546 0.23304 0.53957 0.0
H1028 H 0.3292 0.28765 0.42815 0.0
C1029 C 0.37655 0.20757 0.49158 0.0
C1030 C 0.37109 0.21089 0.4206 0.0
H1031 H 0.36984 0.22941 0.59364 0.0
H1032 H 0.38957 0.18531 0.51024 0.0
C1033 C 0.35402 0.24025 0.39889 0.0
C1034 C 0.5764 0.61073 0.45997 0.0
C1035 C 0.54323 0.61887 0.42173 0.0
H1036 H 0.6334 0.59961 0.45793 0.0
C1037 C 0.54362 0.6269 0.35426 0.0
H1038 H 0.57676 0.60378 0.5116 0.0
C1039 C 0.57588 0.625 0.32418 0.0
C1040 C 0.6086 0.61482 0.36056 0.0
H1041 H 0.51842 0.63282 0.32327 0.0
H1042 H 0.57442 0.62872 0.27033 0.0
C1043 C 0.60875 0.60829 0.42926 0.0
C1044 C 0.13553 0.77507 0.05011 0.0
C1045 C 0.13705 0.77763 0.12209 0.0
H1046 H 0.13569 0.80138 0.96135 0.0
C1047 C 0.13412 0.80993 0.15875 0.0
H1048 H 0.13811 0.75058 0.02059 0.0
C1049 C 0.13272 0.83928 0.12443 0.0
C1050 C 0.13313 0.83667 0.05279 0.0
H1051 H 0.13584 0.81272 0.21439 0.0
H1052 H 0.13358 0.86405 0.15433 0.0
C1053 C 0.13348 0.80418 1.01591 0.0
C1054 C 1.00767 0.38043 0.94046 0.0
C1055 C 0.9935 0.38134 1.00346 0.0
H1056 H 0.99508 0.37975 0.83079 0.0
C1057 C 0.956 0.37353 1.00149 0.0
H1058 H 0.03623 0.38629 0.93934 0.0
C1059 C 0.93248 0.36997 0.93915 0.0
C1060 C 0.946 0.37334 0.8772 0.0
H1061 H 0.94411 0.37319 0.04875 0.0
H1062 H 0.90325 0.36825 0.94028 0.0
C1063 C 0.98405 0.37629 0.87783 0.0
C1064 C 0.37651 0.72386 0.99575 0.0
C1065 C 0.37422 0.73257 0.92832 0.0
H1066 H 0.3808 0.74194 0.10324 0.0
C1067 C 0.368 0.76653 0.91697 0.0
H1068 H 0.3824 0.698 1.00597 0.0
C1069 C 0.36776 0.79185 0.97248 0.0
C1070 C 0.37397 0.78374 0.04065 0.0
H1071 H 0.36708 0.77398 0.86556 0.0
H1072 H 0.36549 0.81802 0.96194 0.0
C1073 C 0.37621 0.74921 0.05151 0.0
C1074 C 0.93006 0.60186 0.54213 0.0
C1075 C 0.93796 0.61214 0.61313 0.0
H1076 H 0.95132 0.58857 0.44689 0.0
C1077 C 0.97423 0.62205 0.64033 0.0
H1078 H 0.90266 0.59325 0.51994 0.0
C1079 C 1.00231 0.61961 0.59823 0.0
C1080 C 0.99473 0.6065 0.52837 0.0
H1081 H 0.98168 0.62809 0.69534 0.0
H1082 H 0.03033 0.62466 0.62184 0.0
C1083 C 0.95804 0.59906 0.50036 0.0
C1084 C 0.16082 0.23615 0.47687 0.0
C1085 C 0.17871 0.26675 0.50712 0.0
H1086 H 0.14583 0.18512 0.49009 0.0
C1087 C 0.19681 0.26824 0.57497 0.0
H1088 H 0.14733 0.23367 0.42426 0.0
C1089 C 0.19614 0.24044 0.61238 0.0
C1090 C 0.17772 0.21009 0.58285 0.0
H1091 H 0.21106 0.29125 0.59999 0.0
H1092 H 0.20973 0.24294 0.665 0.0
C1093 C 0.16047 0.20808 0.51429 0.0
C1094 C 0.48049 0.40041 0.16276 0.0
C1095 C 0.49408 0.40577 0.10128 0.0
H1096 H 0.49333 0.3892 0.26772 0.0
C1097 C 0.5318 0.40198 0.09886 0.0
H1098 H 0.45168 0.40337 0.16683 0.0
C1099 C 0.55541 0.39401 0.15598 0.0
C1100 C 0.54243 0.38974 0.21837 0.0
H1101 H 0.54338 0.40546 0.05241 0.0
H1102 H 0.58412 0.39145 0.15095 0.0
C1103 C 0.50446 0.39257 0.2208 0.0
loop_
_geom_bond_atom_site_label_1
_geom_bond_atom_site_label_2
_geom_bond_distance
_geom_bond_site_symmetry_2
_ccdc_geom_bond_type
Zn0 N4 2.020 . S
Zn0 O8 2.019 . S
Zn0 N10 2.119 . S
Zn0 O18 1.975 . S
C1 N2 1.334 . S
C1 N5 1.336 . S
N2 C1 1.334 . S
N2 C3 1.334 . S
C3 N2 1.334 . S
C3 N4 1.336 . S
N4 Zn0 2.020 . S
N4 C3 1.336 . S
N4 N5 1.354 . S
N5 C1 1.336 . S
N5 N4 1.354 . S
N5 Zn9 2.020 . S
C6 O7 1.244 . S
C6 O30 1.257 . S
O7 C6 1.244 . S
O8 Zn0 2.019 . S
O8 C28 1.257 . S
Zn9 N5 2.020 . S
Zn9 O16 1.975 . S
Zn9 N25 2.119 . S
Zn9 O30 2.019 . S
N10 Zn0 2.119 . S
N10 C12 1.334 . S
N10 C13 1.328 . S
C11 C12 1.391 . S
C11 N14 1.329 . S
C11 H32 0.930 . S
C12 N10 1.334 . S
C12 C11 1.391 . S
C12 H19 0.930 . S
C13 N10 1.328 . S
C13 C15 1.392 . S
C13 H20 0.930 . S
N14 C11 1.329 . S
N14 C15 1.331 . S
C15 C13 1.392 . S
C15 N14 1.331 . S
O16 Zn9 1.975 . S
O16 C17 1.252 . S
C17 O16 1.252 . S
C17 O18 1.252 . S
O18 Zn0 1.975 . S
O18 C17 1.252 . S
H19 C12 0.930 . S
H20 C13 0.930 . S
C21 C22 1.392 . S
C21 N25 1.328 1_556 S
C21 H27 0.930 . S
C22 C21 1.392 . S
C22 N26 1.331 . S
C23 C24 1.391 1_556 S
C23 N26 1.329 . S
C23 H33 0.930 1_455 S
C24 C23 1.391 1_554 S
C24 N25 1.334 . S
C24 H31 0.930 . S
N25 Zn9 2.119 . S
N25 C21 1.328 1_554 S
N25 C24 1.334 . S
N26 C22 1.331 . S
N26 C23 1.329 . S
H27 C21 0.930 . S
C28 O8 1.257 . S
C28 O29 1.244 . S
O29 C28 1.244 . S
O30 C6 1.257 . S
O30 Zn9 2.019 . S
H31 C24 0.930 . S
H32 C11 0.930 . S
H33 C23 0.930 1_655 S
Zn34 N38 2.020 . S
Zn34 O42 2.019 . S
Zn34 N44 2.119 . S
Zn34 O52 1.975 . S
C35 N36 1.334 . S
C35 N39 1.336 . S
N36 C35 1.334 . S
N36 C37 1.334 . S
C37 N36 1.334 . S
C37 N38 1.336 . S
N38 Zn34 2.020 . S
N38 C37 1.336 . S
N38 N39 1.354 . S
N39 C35 1.336 . S
N39 N38 1.354 . S
N39 Zn43 2.020 . S
C40 O41 1.244 . S
C40 O64 1.257 . S
O41 C40 1.244 . S
O42 Zn34 2.019 . S
O42 C62 1.257 . S
Zn43 N39 2.020 . S
Zn43 O50 1.975 . S
Zn43 N59 2.119 . S
Zn43 O64 2.019 . S
N44 Zn34 2.119 . S
N44 C46 1.334 . S
N44 C47 1.328 . S
C45 C46 1.391 . S
C45 N48 1.329 . S
C45 H66 0.930 . S
C46 N44 1.334 . S
C46 C45 1.391 . S
C46 H53 0.930 . S
C47 N44 1.328 . S
C47 C49 1.392 . S
C47 H54 0.930 . S
N48 C45 1.329 . S
N48 C49 1.331 . S
C49 C47 1.392 . S
C49 N48 1.331 . S
O50 Zn43 1.975 . S
O50 C51 1.252 . S
C51 O50 1.252 . S
C51 O52 1.252 . S
O52 Zn34 1.975 . S
O52 C51 1.252 . S
H53 C46 0.930 . S
H54 C47 0.930 . S
C55 C56 1.392 . S
C55 N59 1.328 . S
C55 H61 0.930 . S
C56 C55 1.392 . S
C56 N60 1.331 . S
C57 C58 1.391 . S
C57 N60 1.329 . S
C57 H67 0.930 . S
C58 C57 1.391 . S
C58 N59 1.334 . S
C58 H65 0.930 . S
N59 Zn43 2.119 . S
N59 C55 1.328 . S
N59 C58 1.334 . S
N60 C56 1.331 . S
N60 C57 1.329 . S
H61 C55 0.930 . S
C62 O42 1.257 . S
C62 O63 1.244 . S
O63 C62 1.244 . S
O64 C40 1.257 . S
O64 Zn43 2.019 . S
H65 C58 0.930 . S
H66 C45 0.930 . S
H67 C57 0.930 . S
Zn68 N72 2.020 . S
Zn68 O76 2.019 . S
Zn68 N78 2.119 . S
Zn68 O86 1.975 . S
C69 N70 1.334 . S
C69 N73 1.336 . S
N70 C69 1.334 . S
N70 C71 1.334 . S
C71 N70 1.334 . S
C71 N72 1.336 . S
N72 Zn68 2.020 . S
N72 C71 1.336 . S
N72 N73 1.354 . S
N73 C69 1.336 . S
N73 N72 1.354 . S
N73 Zn77 2.020 . S
C74 O75 1.244 . S
C74 O98 1.257 . S
O75 C74 1.244 . S
O76 Zn68 2.019 . S
O76 C96 1.257 . S
Zn77 N73 2.020 . S
Zn77 O84 1.975 . S
Zn77 N93 2.119 . S
Zn77 O98 2.019 . S
N78 Zn68 2.119 . S
N78 C80 1.334 . S
N78 C81 1.328 . S
C79 C80 1.391 . S
C79 N82 1.329 . S
C79 H100 0.930 . S
C80 N78 1.334 . S
C80 C79 1.391 . S
C80 H87 0.930 . S
C81 N78 1.328 . S
C81 C83 1.392 . S
C81 H88 0.930 . S
N82 C79 1.329 . S
N82 C83 1.331 . S
C83 C81 1.392 . S
C83 N82 1.331 . S
O84 Zn77 1.975 . S
O84 C85 1.252 . S
C85 O84 1.252 . S
C85 O86 1.252 . S
O86 Zn68 1.975 . S
O86 C85 1.252 . S
H87 C80 0.930 . S
H88 C81 0.930 . S
C89 C90 1.392 . S
C89 N93 1.328 . S
C89 H95 0.930 . S
C90 C89 1.392 . S
C90 N94 1.331 . S
C91 C92 1.391 . S
C91 N94 1.329 . S
C91 H101 0.930 . S
C92 C91 1.391 . S
C92 N93 1.334 . S
C92 H99 0.930 . S
N93 Zn77 2.119 . S
N93 C89 1.328 . S
N93 C92 1.334 . S
N94 C90 1.331 . S
N94 C91 1.329 . S
H95 C89 0.930 . S
C96 O76 1.257 . S
C96 O97 1.244 . S
O97 C96 1.244 . S
O98 C74 1.257 . S
O98 Zn77 2.019 . S
H99 C92 0.930 . S
H100 C79 0.930 . S
H101 C91 0.930 . S
Zn102 N106 2.020 . S
Zn102 O110 2.019 . S
Zn102 N112 2.119 . S
Zn102 O120 1.975 . S
C103 N104 1.334 . S
C103 N107 1.336 . S
N104 C103 1.334 . S
N104 C105 1.334 . S
C105 N104 1.334 . S
C105 N106 1.336 . S
N106 Zn102 2.020 . S
N106 C105 1.336 . S
N106 N107 1.354 . S
N107 C103 1.336 . S
N107 N106 1.354 . S
N107 Zn111 2.020 . S
C108 O109 1.244 . S
C108 O132 1.257 . S
O109 C108 1.244 . S
O110 Zn102 2.019 . S
O110 C130 1.257 . S
Zn111 N107 2.020 . S
Zn111 O118 1.975 . S
Zn111 N127 2.119 . S
Zn111 O132 2.019 . S
N112 Zn102 2.119 . S
N112 C114 1.334 . S
N112 C115 1.328 1_556 S
C113 C114 1.391 1_554 S
C113 N116 1.329 . S
C113 H134 0.930 1_554 S
C114 N112 1.334 . S
C114 C113 1.391 1_556 S
C114 H121 0.930 . S
C115 N112 1.328 1_554 S
C115 C117 1.392 . S
C115 H122 0.930 . S
N116 C113 1.329 . S
N116 C117 1.331 . S
C117 C115 1.392 . S
C117 N116 1.331 . S
O118 Zn111 1.975 . S
O118 C119 1.252 . S
C119 O118 1.252 . S
C119 O120 1.252 . S
O120 Zn102 1.975 . S
O120 C119 1.252 . S
H121 C114 0.930 . S
H122 C115 0.930 . S
C123 C124 1.392 . S
C123 N127 1.328 . S
C123 H129 0.930 . S
C124 C123 1.392 . S
C124 N128 1.331 . S
C125 C126 1.391 . S
C125 N128 1.329 . S
C125 H135 0.930 . S
C126 C125 1.391 . S
C126 N127 1.334 . S
C126 H133 0.930 . S
N127 Zn111 2.119 . S
N127 C123 1.328 . S
N127 C126 1.334 . S
N128 C124 1.331 . S
N128 C125 1.329 . S
H129 C123 0.930 . S
C130 O110 1.257 . S
C130 O131 1.244 . S
O131 C130 1.244 . S
O132 C108 1.257 . S
O132 Zn111 2.019 . S
H133 C126 0.930 . S
H134 C113 0.930 1_556 S
H135 C125 0.930 . S
Zn136 N140 2.020 . S
Zn136 O144 2.019 . S
Zn136 N146 2.119 . S
Zn136 O154 1.975 . S
C137 N138 1.334 . S
C137 N141 1.336 . S
N138 C137 1.334 . S
N138 C139 1.334 . S
C139 N138 1.334 . S
C139 N140 1.336 . S
N140 Zn136 2.020 . S
N140 C139 1.336 . S
N140 N141 1.354 . S
N141 C137 1.336 . S
N141 N140 1.354 . S
N141 Zn145 2.020 . S
C142 O143 1.244 . S
C142 O166 1.257 . S
O143 C142 1.244 . S
O144 Zn136 2.019 . S
O144 C164 1.257 . S
Zn145 N141 2.020 . S
Zn145 O152 1.975 . S
Zn145 N161 2.119 . S
Zn145 O166 2.019 . S
N146 Zn136 2.119 . S
N146 C148 1.334 . S
N146 C149 1.328 . S
C147 C148 1.391 . S
C147 N150 1.329 . S
C147 H168 0.930 . S
C148 N146 1.334 . S
C148 C147 1.391 . S
C148 H155 0.930 . S
C149 N146 1.328 . S
C149 C151 1.392 . S
C149 H156 0.930 . S
N150 C147 1.329 . S
N150 C151 1.331 . S
C151 C149 1.392 . S
C151 N150 1.331 . S
O152 Zn145 1.975 . S
O152 C153 1.252 . S
C153 O152 1.252 . S
C153 O154 1.252 . S
O154 Zn136 1.975 . S
O154 C153 1.252 . S
H155 C148 0.930 . S
H156 C149 0.930 . S
C157 C158 1.392 . S
C157 N161 1.328 . S
C157 H163 0.930 . S
C158 C157 1.392 . S
C158 N162 1.331 . S
C159 C160 1.391 . S
C159 N162 1.329 . S
C159 H169 0.930 . S
C160 C159 1.391 . S
C160 N161 1.334 . S
C160 H167 0.930 . S
N161 Zn145 2.119 . S
N161 C157 1.328 . S
N161 C160 1.334 . S
N162 C158 1.331 . S
N162 C159 1.329 . S
H163 C157 0.930 . S
C164 O144 1.257 . S
C164 O165 1.244 . S
O165 C164 1.244 . S
O166 C142 1.257 . S
O166 Zn145 2.019 . S
H167 C160 0.930 . S
H168 C147 0.930 . S
H169 C159 0.930 . S
Zn170 N174 2.020 . S
Zn170 O178 2.019 . S
Zn170 N180 2.119 . S
Zn170 O188 1.975 . S
C171 N172 1.334 . S
C171 N175 1.336 . S
N172 C171 1.334 . S
N172 C173 1.334 . S
C173 N172 1.334 . S
C173 N174 1.336 . S
N174 Zn170 2.020 . S
N174 C173 1.336 . S
N174 N175 1.354 . S
N175 C171 1.336 . S
N175 N174 1.354 . S
N175 Zn179 2.020 . S
C176 O177 1.244 . S
C176 O200 1.257 . S
O177 C176 1.244 . S
O178 Zn170 2.019 . S
O178 C198 1.257 . S
Zn179 N175 2.020 . S
Zn179 O186 1.975 . S
Zn179 N195 2.119 . S
Zn179 O200 2.019 . S
N180 Zn170 2.119 . S
N180 C182 1.334 . S
N180 C183 1.328 . S
C181 C182 1.391 . S
C181 N184 1.329 . S
C181 H202 0.930 . S
C182 N180 1.334 . S
C182 C181 1.391 . S
C182 H189 0.930 . S
C183 N180 1.328 . S
C183 C185 1.392 . S
C183 H190 0.930 . S
N184 C181 1.329 . S
N184 C185 1.331 . S
C185 C183 1.392 . S
C185 N184 1.331 . S
O186 Zn179 1.975 . S
O186 C187 1.252 . S
C187 O186 1.252 . S
C187 O188 1.252 . S
O188 Zn170 1.975 . S
O188 C187 1.252 . S
H189 C182 0.930 . S
H190 C183 0.930 . S
C191 C192 1.392 . S
C191 N195 1.328 . S
C191 H197 0.930 . S
C192 C191 1.392 . S
C192 N196 1.331 . S
C193 C194 1.391 . S
C193 N196 1.329 . S
C193 H203 0.930 . S
C194 C193 1.391 . S
C194 N195 1.334 . S
C194 H201 0.930 . S
N195 Zn179 2.119 . S
N195 C191 1.328 . S
N195 C194 1.334 . S
N196 C192 1.331 . S
N196 C193 1.329 . S
H197 C191 0.930 . S
C198 O178 1.257 . S
C198 O199 1.244 . S
O199 C198 1.244 . S
O200 C176 1.257 . S
O200 Zn179 2.019 . S
H201 C194 0.930 . S
H202 C181 0.930 . S
H203 C193 0.930 . S
Zn204 N208 2.020 . S
Zn204 O212 2.019 . S
Zn204 N214 2.119 . S
Zn204 O222 1.975 . S
C205 N206 1.334 . S
C205 N209 1.336 . S
N206 C205 1.334 . S
N206 C207 1.334 . S
C207 N206 1.334 . S
C207 N208 1.336 . S
N208 Zn204 2.020 . S
N208 C207 1.336 . S
N208 N209 1.354 . S
N209 C205 1.336 . S
N209 N208 1.354 . S
N209 Zn213 2.020 . S
C210 O211 1.244 . S
C210 O234 1.257 . S
O211 C210 1.244 . S
O212 Zn204 2.019 . S
O212 C232 1.257 . S
Zn213 N209 2.020 . S
Zn213 O220 1.975 . S
Zn213 N229 2.119 . S
Zn213 O234 2.019 . S
N214 Zn204 2.119 . S
N214 C216 1.334 . S
N214 C217 1.328 1_556 S
C215 C216 1.391 1_554 S
C215 N218 1.329 . S
C215 H236 0.930 . S
C216 N214 1.334 . S
C216 C215 1.391 1_556 S
C216 H223 0.930 . S
C217 N214 1.328 1_554 S
C217 C219 1.392 . S
C217 H224 0.930 . S
N218 C215 1.329 . S
N218 C219 1.331 . S
C219 C217 1.392 . S
C219 N218 1.331 . S
O220 Zn213 1.975 . S
O220 C221 1.252 . S
C221 O220 1.252 . S
C221 O222 1.252 . S
O222 Zn204 1.975 . S
O222 C221 1.252 . S
H223 C216 0.930 . S
H224 C217 0.930 . S
C225 C226 1.392 . S
C225 N229 1.328 . S
C225 H231 0.930 . S
C226 C225 1.392 . S
C226 N230 1.331 . S
C227 C228 1.391 . S
C227 N230 1.329 . S
C227 H237 0.930 . S
C228 C227 1.391 . S
C228 N229 1.334 . S
C228 H235 0.930 . S
N229 Zn213 2.119 . S
N229 C225 1.328 . S
N229 C228 1.334 . S
N230 C226 1.331 . S
N230 C227 1.329 . S
H231 C225 0.930 . S
C232 O212 1.257 . S
C232 O233 1.244 . S
O233 C232 1.244 . S
O234 C210 1.257 . S
O234 Zn213 2.019 . S
H235 C228 0.930 . S
H236 C215 0.930 . S
H237 C227 0.930 . S
Zn238 N242 2.020 . S
Zn238 O246 2.019 1_655 S
Zn238 N248 2.119 . S
Zn238 O256 1.975 . S
C239 N240 1.334 . S
C239 N243 1.336 . S
N240 C239 1.334 . S
N240 C241 1.334 . S
C241 N240 1.334 . S
C241 N242 1.336 . S
N242 Zn238 2.020 . S
N242 C241 1.336 . S
N242 N243 1.354 . S
N243 C239 1.336 . S
N243 N242 1.354 . S
N243 Zn247 2.020 . S
C244 O245 1.244 . S
C244 O268 1.257 . S
O245 C244 1.244 . S
O246 Zn238 2.019 1_455 S
O246 C266 1.257 1_455 S
Zn247 N243 2.020 . S
Zn247 O254 1.975 . S
Zn247 N263 2.119 . S
Zn247 O268 2.019 . S
N248 Zn238 2.119 . S
N248 C250 1.334 . S
N248 C251 1.328 1_655 S
C249 C250 1.391 . S
C249 N252 1.329 1_655 S
C249 H270 0.930 . S
C250 N248 1.334 . S
C250 C249 1.391 . S
C250 H257 0.930 . S
C251 N248 1.328 1_455 S
C251 C253 1.392 . S
C251 H258 0.930 . S
N252 C249 1.329 1_455 S
N252 C253 1.331 . S
C253 C251 1.392 . S
C253 N252 1.331 . S
O254 Zn247 1.975 . S
O254 C255 1.252 . S
C255 O254 1.252 . S
C255 O256 1.252 . S
O256 Zn238 1.975 . S
O256 C255 1.252 . S
H257 C250 0.930 . S
H258 C251 0.930 . S
C259 C260 1.392 . S
C259 N263 1.328 . S
C259 H265 0.930 . S
C260 C259 1.392 . S
C260 N264 1.331 . S
C261 C262 1.391 . S
C261 N264 1.329 . S
C261 H271 0.930 . S
C262 C261 1.391 . S
C262 N263 1.334 . S
C262 H269 0.930 . S
N263 Zn247 2.119 . S
N263 C259 1.328 . S
N263 C262 1.334 . S
N264 C260 1.331 . S
N264 C261 1.329 . S
H265 C259 0.930 . S
C266 O246 1.257 1_655 S
C266 O267 1.244 . S
O267 C266 1.244 . S
O268 C244 1.257 . S
O268 Zn247 2.019 . S
H269 C262 0.930 . S
H270 C249 0.930 . S
H271 C261 0.930 . S
Zn272 N276 2.020 . S
Zn272 O280 2.019 . S
Zn272 N282 2.119 . S
Zn272 O290 1.975 . S
C273 N274 1.334 . S
C273 N277 1.336 . S
N274 C273 1.334 . S
N274 C275 1.334 . S
C275 N274 1.334 . S
C275 N276 1.336 . S
N276 Zn272 2.020 . S
N276 C275 1.336 . S
N276 N277 1.354 . S
N277 C273 1.336 . S
N277 N276 1.354 . S
N277 Zn281 2.020 . S
C278 O279 1.244 . S
C278 O302 1.257 . S
O279 C278 1.244 . S
O280 Zn272 2.019 . S
O280 C300 1.257 . S
Zn281 N277 2.020 . S
Zn281 O288 1.975 . S
Zn281 N297 2.119 . S
Zn281 O302 2.019 . S
N282 Zn272 2.119 . S
N282 C284 1.334 . S
N282 C285 1.328 1_556 S
C283 C284 1.391 1_554 S
C283 N286 1.329 . S
C283 H304 0.930 1_655 S
C284 N282 1.334 . S
C284 C283 1.391 1_556 S
C284 H291 0.930 . S
C285 N282 1.328 1_554 S
C285 C287 1.392 . S
C285 H292 0.930 . S
N286 C283 1.329 . S
N286 C287 1.331 . S
C287 C285 1.392 . S
C287 N286 1.331 . S
O288 Zn281 1.975 . S
O288 C289 1.252 . S
C289 O288 1.252 . S
C289 O290 1.252 . S
O290 Zn272 1.975 . S
O290 C289 1.252 . S
H291 C284 0.930 . S
H292 C285 0.930 . S
C293 C294 1.392 . S
C293 N297 1.328 . S
C293 H299 0.930 . S
C294 C293 1.392 . S
C294 N298 1.331 . S
C295 C296 1.391 . S
C295 N298 1.329 . S
C295 H305 0.930 . S
C296 C295 1.391 . S
C296 N297 1.334 . S
C296 H303 0.930 . S
N297 Zn281 2.119 . S
N297 C293 1.328 . S
N297 C296 1.334 . S
N298 C294 1.331 . S
N298 C295 1.329 . S
H299 C293 0.930 . S
C300 O280 1.257 . S
C300 O301 1.244 . S
O301 C300 1.244 . S
O302 C278 1.257 . S
O302 Zn281 2.019 . S
H303 C296 0.930 . S
H304 C283 0.930 1_455 S
H305 C295 0.930 . S
Zn306 N310 2.020 . S
Zn306 O314 2.019 . S
Zn306 N316 2.119 . S
Zn306 O324 1.975 . S
C307 N308 1.334 . S
C307 N311 1.336 . S
N308 C307 1.334 . S
N308 C309 1.334 . S
C309 N308 1.334 . S
C309 N310 1.336 . S
N310 Zn306 2.020 . S
N310 C309 1.336 . S
N310 N311 1.354 . S
N311 C307 1.336 . S
N311 N310 1.354 . S
N311 Zn315 2.020 . S
C312 O313 1.244 . S
C312 O336 1.257 . S
O313 C312 1.244 . S
O314 Zn306 2.019 . S
O314 C334 1.257 . S
Zn315 N311 2.020 . S
Zn315 O322 1.975 . S
Zn315 N331 2.119 . S
Zn315 O336 2.019 . S
N316 Zn306 2.119 . S
N316 C318 1.334 . S
N316 C319 1.328 . S
C317 C318 1.391 . S
C317 N320 1.329 . S
C317 H338 0.930 . S
C318 N316 1.334 . S
C318 C317 1.391 . S
C318 H325 0.930 . S
C319 N316 1.328 . S
C319 C321 1.392 . S
C319 H326 0.930 . S
N320 C317 1.329 . S
N320 C321 1.331 . S
C321 C319 1.392 . S
C321 N320 1.331 . S
O322 Zn315 1.975 . S
O322 C323 1.252 . S
C323 O322 1.252 . S
C323 O324 1.252 . S
O324 Zn306 1.975 . S
O324 C323 1.252 . S
H325 C318 0.930 . S
H326 C319 0.930 . S
C327 C328 1.392 . S
C327 N331 1.328 . S
C327 H333 0.930 . S
C328 C327 1.392 . S
C328 N332 1.331 . S
C329 C330 1.391 . S
C329 N332 1.329 . S
C329 H339 0.930 . S
C330 C329 1.391 . S
C330 N331 1.334 . S
C330 H337 0.930 . S
N331 Zn315 2.119 . S
N331 C327 1.328 . S
N331 C330 1.334 . S
N332 C328 1.331 . S
N332 C329 1.329 . S
H333 C327 0.930 . S
C334 O314 1.257 . S
C334 O335 1.244 . S
O335 C334 1.244 . S
O336 C312 1.257 . S
O336 Zn315 2.019 . S
H337 C330 0.930 . S
H338 C317 0.930 . S
H339 C329 0.930 . S
Zn340 N344 2.020 . S
Zn340 O348 2.019 . S
Zn340 N350 2.119 . S
Zn340 O358 1.975 . S
C341 N342 1.334 . S
C341 N345 1.336 . S
N342 C341 1.334 . S
N342 C343 1.334 . S
C343 N342 1.334 . S
C343 N344 1.336 . S
N344 Zn340 2.020 . S
N344 C343 1.336 . S
N344 N345 1.354 . S
N345 C341 1.336 . S
N345 N344 1.354 . S
N345 Zn349 2.020 . S
C346 O347 1.244 . S
C346 O370 1.257 . S
O347 C346 1.244 . S
O348 Zn340 2.019 . S
O348 C368 1.257 . S
Zn349 N345 2.020 . S
Zn349 O356 1.975 . S
Zn349 N365 2.119 . S
Zn349 O370 2.019 . S
N350 Zn340 2.119 . S
N350 C352 1.334 . S
N350 C353 1.328 . S
C351 C352 1.391 . S
C351 N354 1.329 . S
C351 H372 0.930 . S
C352 N350 1.334 . S
C352 C351 1.391 . S
C352 H359 0.930 . S
C353 N350 1.328 . S
C353 C355 1.392 . S
C353 H360 0.930 . S
N354 C351 1.329 . S
N354 C355 1.331 . S
C355 C353 1.392 . S
C355 N354 1.331 . S
O356 Zn349 1.975 . S
O356 C357 1.252 . S
C357 O356 1.252 . S
C357 O358 1.252 . S
O358 Zn340 1.975 . S
O358 C357 1.252 . S
H359 C352 0.930 . S
H360 C353 0.930 . S
C361 C362 1.392 . S
C361 N365 1.328 . S
C361 H367 0.930 . S
C362 C361 1.392 . S
C362 N366 1.331 . S
C363 C364 1.391 . S
C363 N366 1.329 . S
C363 H373 0.930 . S
C364 C363 1.391 . S
C364 N365 1.334 . S
C364 H371 0.930 . S
N365 Zn349 2.119 . S
N365 C361 1.328 . S
N365 C364 1.334 . S
N366 C362 1.331 . S
N366 C363 1.329 . S
H367 C361 0.930 . S
C368 O348 1.257 . S
C368 O369 1.244 . S
O369 C368 1.244 . S
O370 C346 1.257 . S
O370 Zn349 2.019 . S
H371 C364 0.930 . S
H372 C351 0.930 . S
H373 C363 0.930 . S
Zn374 N378 2.020 . S
Zn374 O382 2.019 . S
Zn374 N384 2.119 . S
Zn374 O392 1.975 . S
C375 N376 1.334 . S
C375 N379 1.336 . S
N376 C375 1.334 . S
N376 C377 1.334 . S
C377 N376 1.334 . S
C377 N378 1.336 . S
N378 Zn374 2.020 . S
N378 C377 1.336 . S
N378 N379 1.354 . S
N379 C375 1.336 . S
N379 N378 1.354 . S
N379 Zn383 2.020 . S
C380 O381 1.244 . S
C380 O404 1.257 . S
O381 C380 1.244 . S
O382 Zn374 2.019 . S
O382 C402 1.257 . S
Zn383 N379 2.020 . S
Zn383 O390 1.975 . S
Zn383 N399 2.119 . S
Zn383 O404 2.019 . S
N384 Zn374 2.119 . S
N384 C386 1.334 . S
N384 C387 1.328 . S
C385 C386 1.391 . S
C385 N388 1.329 . S
C385 H406 0.930 . S
C386 N384 1.334 . S
C386 C385 1.391 . S
C386 H393 0.930 . S
C387 N384 1.328 . S
C387 C389 1.392 . S
C387 H394 0.930 . S
N388 C385 1.329 . S
N388 C389 1.331 . S
C389 C387 1.392 . S
C389 N388 1.331 . S
O390 Zn383 1.975 . S
O390 C391 1.252 . S
C391 O390 1.252 . S
C391 O392 1.252 . S
O392 Zn374 1.975 . S
O392 C391 1.252 . S
H393 C386 0.930 . S
H394 C387 0.930 . S
C395 C396 1.392 . S
C395 N399 1.328 1_556 S
C395 H401 0.930 . S
C396 C395 1.392 . S
C396 N400 1.331 . S
C397 C398 1.391 1_556 S
C397 N400 1.329 . S
C397 H407 0.930 1_556 S
C398 C397 1.391 1_554 S
C398 N399 1.334 . S
C398 H405 0.930 . S
N399 Zn383 2.119 . S
N399 C395 1.328 1_554 S
N399 C398 1.334 . S
N400 C396 1.331 . S
N400 C397 1.329 . S
H401 C395 0.930 . S
C402 O382 1.257 . S
C402 O403 1.244 . S
O403 C402 1.244 . S
O404 C380 1.257 . S
O404 Zn383 2.019 . S
H405 C398 0.930 . S
H406 C385 0.930 . S
H407 C397 0.930 1_554 S
Zn408 N412 2.020 . S
Zn408 O416 2.019 . S
Zn408 N418 2.119 . S
Zn408 O426 1.975 . S
C409 N410 1.334 . S
C409 N413 1.336 . S
N410 C409 1.334 . S
N410 C411 1.334 . S
C411 N410 1.334 . S
C411 N412 1.336 . S
N412 Zn408 2.020 . S
N412 C411 1.336 . S
N412 N413 1.354 . S
N413 C409 1.336 . S
N413 N412 1.354 . S
N413 Zn417 2.020 . S
C414 O415 1.244 . S
C414 O438 1.257 . S
O415 C414 1.244 . S
O416 Zn408 2.019 . S
O416 C436 1.257 . S
Zn417 N413 2.020 . S
Zn417 O424 1.975 . S
Zn417 N433 2.119 . S
Zn417 O438 2.019 . S
N418 Zn408 2.119 . S
N418 C420 1.334 . S
N418 C421 1.328 . S
C419 C420 1.391 . S
C419 N422 1.329 . S
C419 H440 0.930 . S
C420 N418 1.334 . S
C420 C419 1.391 . S
C420 H427 0.930 . S
C421 N418 1.328 . S
C421 C423 1.392 . S
C421 H428 0.930 . S
N422 C419 1.329 . S
N422 C423 1.331 . S
C423 C421 1.392 . S
C423 N422 1.331 . S
O424 Zn417 1.975 . S
O424 C425 1.252 . S
C425 O424 1.252 . S
C425 O426 1.252 . S
O426 Zn408 1.975 . S
O426 C425 1.252 . S
H427 C420 0.930 . S
H428 C421 0.930 . S
C429 C430 1.392 . S
C429 N433 1.328 . S
C429 H435 0.930 . S
C430 C429 1.392 . S
C430 N434 1.331 . S
C431 C432 1.391 . S
C431 N434 1.329 . S
C431 H441 0.930 . S
C432 C431 1.391 . S
C432 N433 1.334 . S
C432 H439 0.930 . S
N433 Zn417 2.119 . S
N433 C429 1.328 . S
N433 C432 1.334 . S
N434 C430 1.331 . S
N434 C431 1.329 . S
H435 C429 0.930 . S
C436 O416 1.257 . S
C436 O437 1.244 . S
O437 C436 1.244 . S
O438 C414 1.257 . S
O438 Zn417 2.019 . S
H439 C432 0.930 . S
H440 C419 0.930 . S
H441 C431 0.930 . S
Zn442 N446 2.020 . S
Zn442 O450 2.019 . S
Zn442 N452 2.119 . S
Zn442 O460 1.975 . S
C443 N444 1.334 . S
C443 N447 1.336 . S
N444 C443 1.334 . S
N444 C445 1.334 . S
C445 N444 1.334 . S
C445 N446 1.336 . S
N446 Zn442 2.020 . S
N446 C445 1.336 . S
N446 N447 1.354 . S
N447 C443 1.336 . S
N447 N446 1.354 . S
N447 Zn451 2.020 . S
C448 O449 1.244 . S
C448 O472 1.257 . S
O449 C448 1.244 . S
O450 Zn442 2.019 . S
O450 C470 1.257 . S
Zn451 N447 2.020 . S
Zn451 O458 1.975 . S
Zn451 N467 2.119 . S
Zn451 O472 2.019 . S
N452 Zn442 2.119 . S
N452 C454 1.334 . S
N452 C455 1.328 . S
C453 C454 1.391 . S
C453 N456 1.329 . S
C453 H474 0.930 . S
C454 N452 1.334 . S
C454 C453 1.391 . S
C454 H461 0.930 . S
C455 N452 1.328 . S
C455 C457 1.392 . S
C455 H462 0.930 . S
N456 C453 1.329 . S
N456 C457 1.331 . S
C457 C455 1.392 . S
C457 N456 1.331 . S
O458 Zn451 1.975 . S
O458 C459 1.252 . S
C459 O458 1.252 . S
C459 O460 1.252 . S
O460 Zn442 1.975 . S
O460 C459 1.252 . S
H461 C454 0.930 . S
H462 C455 0.930 . S
C463 C464 1.392 . S
C463 N467 1.328 . S
C463 H469 0.930 . S
C464 C463 1.392 . S
C464 N468 1.331 . S
C465 C466 1.391 . S
C465 N468 1.329 . S
C465 H475 0.930 . S
C466 C465 1.391 . S
C466 N467 1.334 . S
C466 H473 0.930 . S
N467 Zn451 2.119 . S
N467 C463 1.328 . S
N467 C466 1.334 . S
N468 C464 1.331 . S
N468 C465 1.329 . S
H469 C463 0.930 . S
C470 O450 1.257 . S
C470 O471 1.244 . S
O471 C470 1.244 . S
O472 C448 1.257 . S
O472 Zn451 2.019 . S
H473 C466 0.930 . S
H474 C453 0.930 . S
H475 C465 0.930 . S
Zn476 N480 2.020 . S
Zn476 O484 2.019 . S
Zn476 N486 2.119 . S
Zn476 O494 1.975 . S
C477 N478 1.334 . S
C477 N481 1.336 . S
N478 C477 1.334 . S
N478 C479 1.334 . S
C479 N478 1.334 . S
C479 N480 1.336 . S
N480 Zn476 2.020 . S
N480 C479 1.336 . S
N480 N481 1.354 . S
N481 C477 1.336 . S
N481 N480 1.354 . S
N481 Zn485 2.020 . S
C482 O483 1.244 . S
C482 O506 1.257 . S
O483 C482 1.244 . S
O484 Zn476 2.019 . S
O484 C504 1.257 . S
Zn485 N481 2.020 . S
Zn485 O492 1.975 . S
Zn485 N501 2.119 . S
Zn485 O506 2.019 . S
N486 Zn476 2.119 . S
N486 C488 1.334 . S
N486 C489 1.328 1_554 S
C487 C488 1.391 1_556 S
C487 N490 1.329 . S
C487 H508 0.930 . S
C488 N486 1.334 . S
C488 C487 1.391 1_554 S
C488 H495 0.930 . S
C489 N486 1.328 1_556 S
C489 C491 1.392 . S
C489 H496 0.930 . S
N490 C487 1.329 . S
N490 C491 1.331 . S
C491 C489 1.392 . S
C491 N490 1.331 . S
O492 Zn485 1.975 . S
O492 C493 1.252 . S
C493 O492 1.252 . S
C493 O494 1.252 . S
O494 Zn476 1.975 . S
O494 C493 1.252 . S
H495 C488 0.930 . S
H496 C489 0.930 . S
C497 C498 1.392 . S
C497 N501 1.328 . S
C497 H503 0.930 . S
C498 C497 1.392 . S
C498 N502 1.331 . S
C499 C500 1.391 . S
C499 N502 1.329 . S
C499 H509 0.930 . S
C500 C499 1.391 . S
C500 N501 1.334 . S
C500 H507 0.930 . S
N501 Zn485 2.119 . S
N501 C497 1.328 . S
N501 C500 1.334 . S
N502 C498 1.331 . S
N502 C499 1.329 . S
H503 C497 0.930 . S
C504 O484 1.257 . S
C504 O505 1.244 . S
O505 C504 1.244 . S
O506 C482 1.257 . S
O506 Zn485 2.019 . S
H507 C500 0.930 . S
H508 C487 0.930 . S
H509 C499 0.930 . S
Zn510 N514 2.020 . S
Zn510 O518 2.019 1_455 S
Zn510 N520 2.119 . S
Zn510 O528 1.975 . S
C511 N512 1.334 . S
C511 N515 1.336 . S
N512 C511 1.334 . S
N512 C513 1.334 . S
C513 N512 1.334 . S
C513 N514 1.336 . S
N514 Zn510 2.020 . S
N514 C513 1.336 . S
N514 N515 1.354 . S
N515 C511 1.336 . S
N515 N514 1.354 . S
N515 Zn519 2.020 . S
C516 O517 1.244 . S
C516 O540 1.257 . S
O517 C516 1.244 . S
O518 Zn510 2.019 1_655 S
O518 C538 1.257 1_655 S
Zn519 N515 2.020 . S
Zn519 O526 1.975 . S
Zn519 N535 2.119 . S
Zn519 O540 2.019 . S
N520 Zn510 2.119 . S
N520 C522 1.334 . S
N520 C523 1.328 1_455 S
C521 C522 1.391 . S
C521 N524 1.329 1_455 S
C521 H542 0.930 . S
C522 N520 1.334 . S
C522 C521 1.391 . S
C522 H529 0.930 . S
C523 N520 1.328 1_655 S
C523 C525 1.392 . S
C523 H530 0.930 . S
N524 C521 1.329 1_655 S
N524 C525 1.331 . S
C525 C523 1.392 . S
C525 N524 1.331 . S
O526 Zn519 1.975 . S
O526 C527 1.252 . S
C527 O526 1.252 . S
C527 O528 1.252 . S
O528 Zn510 1.975 . S
O528 C527 1.252 . S
H529 C522 0.930 . S
H530 C523 0.930 . S
C531 C532 1.392 . S
C531 N535 1.328 . S
C531 H537 0.930 . S
C532 C531 1.392 . S
C532 N536 1.331 . S
C533 C534 1.391 . S
C533 N536 1.329 . S
C533 H543 0.930 . S
C534 C533 1.391 . S
C534 N535 1.334 . S
C534 H541 0.930 . S
N535 Zn519 2.119 . S
N535 C531 1.328 . S
N535 C534 1.334 . S
N536 C532 1.331 . S
N536 C533 1.329 . S
H537 C531 0.930 . S
C538 O518 1.257 1_455 S
C538 O539 1.244 . S
O539 C538 1.244 . S
O540 C516 1.257 . S
O540 Zn519 2.019 . S
H541 C534 0.930 . S
H542 C521 0.930 . S
H543 C533 0.930 . S
C544 C545 1.387 1_655 S
C544 H548 0.950 . S
C544 C553 1.390 . S
C545 C544 1.387 1_455 S
C545 C547 1.387 . S
H546 C553 0.950 . S
C547 C545 1.387 . S
C547 C549 1.390 . S
C547 H551 0.950 . S
H548 C544 0.950 . S
C549 C547 1.390 . S
C549 C550 1.387 . S
C549 H552 0.950 . S
C550 C549 1.387 . S
C550 C553 1.387 1_455 S
H551 C547 0.950 . S
H552 C549 0.950 . S
C553 C544 1.390 . S
C553 H546 0.950 . S
C553 C550 1.387 1_655 S
C554 C555 1.387 . S
C554 H558 0.950 . S
C554 C563 1.390 . S
C555 C554 1.387 . S
C555 C557 1.387 1_655 S
H556 C563 0.950 . S
C557 C555 1.387 1_455 S
C557 C559 1.390 1_455 S
C557 H561 0.950 . S
H558 C554 0.950 . S
C559 C557 1.390 1_655 S
C559 C560 1.387 . S
C559 H562 0.950 . S
C560 C559 1.387 . S
C560 C563 1.387 . S
H561 C557 0.950 . S
H562 C559 0.950 . S
C563 C554 1.390 . S
C563 H556 0.950 . S
C563 C560 1.387 . S
C564 C565 1.387 . S
C564 H568 0.950 . S
C564 C573 1.390 . S
C565 C564 1.387 . S
C565 C567 1.387 . S
H566 C573 0.950 . S
C567 C565 1.387 . S
C567 C569 1.390 . S
C567 H571 0.950 . S
H568 C564 0.950 . S
C569 C567 1.390 . S
C569 C570 1.387 . S
C569 H572 0.950 . S
C570 C569 1.387 . S
C570 C573 1.387 . S
H571 C567 0.950 . S
H572 C569 0.950 . S
C573 C564 1.390 . S
C573 H566 0.950 . S
C573 C570 1.387 . S
C574 C575 1.387 . S
C574 H578 0.950 . S
C574 C583 1.390 . S
C575 C574 1.387 . S
C575 C577 1.387 . S
H576 C583 0.950 . S
C577 C575 1.387 . S
C577 C579 1.390 . S
C577 H581 0.950 . S
H578 C574 0.950 . S
C579 C577 1.390 . S
C579 C580 1.387 . S
C579 H582 0.950 . S
C580 C579 1.387 . S
C580 C583 1.387 . S
H581 C577 0.950 . S
H582 C579 0.950 . S
C583 C574 1.390 . S
C583 H576 0.950 . S
C583 C580 1.387 . S
C584 C585 1.387 1_455 S
C584 H588 0.950 . S
C584 C593 1.390 . S
C585 C584 1.387 1_655 S
C585 C587 1.387 . S
H586 C593 0.950 . S
C587 C585 1.387 . S
C587 C589 1.390 . S
C587 H591 0.950 . S
H588 C584 0.950 . S
C589 C587 1.390 . S
C589 C590 1.387 . S
C589 H592 0.950 . S
C590 C589 1.387 . S
C590 C593 1.387 1_655 S
H591 C587 0.950 . S
H592 C589 0.950 . S
C593 C584 1.390 . S
C593 H586 0.950 . S
C593 C590 1.387 1_455 S
C594 C595 1.387 . S
C594 H598 0.950 . S
C594 C603 1.390 . S
C595 C594 1.387 . S
C595 C597 1.387 . S
H596 C603 0.950 . S
C597 C595 1.387 . S
C597 C599 1.390 . S
C597 H601 0.950 . S
H598 C594 0.950 . S
C599 C597 1.390 . S
C599 C600 1.387 . S
C599 H602 0.950 . S
C600 C599 1.387 . S
C600 C603 1.387 . S
H601 C597 0.950 . S
H602 C599 0.950 . S
C603 C594 1.390 . S
C603 H596 0.950 . S
C603 C600 1.387 . S
C604 C605 1.387 . S
C604 H608 0.950 . S
C604 C613 1.390 . S
C605 C604 1.387 . S
C605 C607 1.387 . S
H606 C613 0.950 . S
C607 C605 1.387 . S
C607 C609 1.390 . S
C607 H611 0.950 . S
H608 C604 0.950 . S
C609 C607 1.390 . S
C609 C610 1.387 . S
C609 H612 0.950 . S
C610 C609 1.387 . S
C610 C613 1.387 . S
H611 C607 0.950 . S
H612 C609 0.950 . S
C613 C604 1.390 . S
C613 H606 0.950 . S
C613 C610 1.387 . S
C614 C615 1.387 . S
C614 H618 0.950 . S
C614 C623 1.390 . S
C615 C614 1.387 . S
C615 C617 1.387 . S
H616 C623 0.950 . S
C617 C615 1.387 . S
C617 C619 1.390 . S
C617 H621 0.950 . S
H618 C614 0.950 . S
C619 C617 1.390 . S
C619 C620 1.387 . S
C619 H622 0.950 . S
C620 C619 1.387 . S
C620 C623 1.387 . S
H621 C617 0.950 . S
H622 C619 0.950 . S
C623 C614 1.390 . S
C623 H616 0.950 . S
C623 C620 1.387 . S
C624 C625 1.387 . S
C624 H628 0.950 . S
C624 C633 1.390 1_556 S
C625 C624 1.387 . S
C625 C627 1.387 . S
H626 C633 0.950 . S
C627 C625 1.387 . S
C627 C629 1.390 1_556 S
C627 H631 0.950 . S
H628 C624 0.950 . S
C629 C627 1.390 1_554 S
C629 C630 1.387 . S
C629 H632 0.950 . S
C630 C629 1.387 . S
C630 C633 1.387 . S
H631 C627 0.950 . S
H632 C629 0.950 . S
C633 C624 1.390 1_554 S
C633 H626 0.950 . S
C633 C630 1.387 . S
C634 C635 1.387 . S
C634 H638 0.950 . S
C634 C643 1.390 . S
C635 C634 1.387 . S
C635 C637 1.387 . S
H636 C643 0.950 . S
C637 C635 1.387 . S
C637 C639 1.390 1_565 S
C637 H641 0.950 . S
H638 C634 0.950 . S
C639 C637 1.390 1_545 S
C639 C640 1.387 . S
C639 H642 0.950 . S
C640 C639 1.387 . S
C640 C643 1.387 1_545 S
H641 C637 0.950 . S
H642 C639 0.950 . S
C643 C634 1.390 . S
C643 H636 0.950 . S
C643 C640 1.387 1_565 S
C644 C645 1.387 . S
C644 H648 0.950 . S
C644 C653 1.390 . S
C645 C644 1.387 . S
C645 C647 1.387 . S
H646 C653 0.950 . S
C647 C645 1.387 . S
C647 C649 1.390 . S
C647 H651 0.950 . S
H648 C644 0.950 . S
C649 C647 1.390 . S
C649 C650 1.387 . S
C649 H652 0.950 . S
C650 C649 1.387 . S
C650 C653 1.387 . S
H651 C647 0.950 . S
H652 C649 0.950 . S
C653 C644 1.390 . S
C653 H646 0.950 . S
C653 C650 1.387 . S
C654 C655 1.387 . S
C654 H658 0.950 . S
C654 C663 1.390 1_565 S
C655 C654 1.387 . S
C655 C657 1.387 1_565 S
H656 C663 0.950 . S
C657 C655 1.387 1_545 S
C657 C659 1.390 . S
C657 H661 0.949 1_545 S
H658 C654 0.950 . S
C659 C657 1.390 . S
C659 C660 1.387 . S
C659 H662 0.950 . S
C660 C659 1.387 . S
C660 C663 1.387 . S
H661 C657 0.949 1_565 S
H662 C659 0.950 . S
C663 C654 1.390 1_545 S
C663 H656 0.950 . S
C663 C660 1.387 . S
C664 C665 1.387 . S
C664 H668 0.950 . S
C664 C673 1.390 1_556 S
C665 C664 1.387 . S
C665 C667 1.387 . S
H666 C673 0.950 . S
C667 C665 1.387 . S
C667 C669 1.390 1_556 S
C667 H671 0.950 . S
H668 C664 0.950 . S
C669 C667 1.390 1_554 S
C669 C670 1.387 . S
C669 H672 0.950 . S
C670 C669 1.387 . S
C670 C673 1.387 . S
H671 C667 0.950 . S
H672 C669 0.950 . S
C673 C664 1.390 1_554 S
C673 H666 0.950 . S
C673 C670 1.387 . S
C674 C675 1.387 1_545 S
C674 H678 0.950 1_545 S
C674 C683 1.390 . S
C675 C674 1.387 1_565 S
C675 C677 1.387 1_565 S
H676 C683 0.950 . S
C677 C675 1.387 1_545 S
C677 C679 1.390 . S
C677 H681 0.950 1_545 S
H678 C674 0.950 1_565 S
C679 C677 1.390 . S
C679 C680 1.387 . S
C679 H682 0.950 . S
C680 C679 1.387 . S
C680 C683 1.387 . S
H681 C677 0.950 1_565 S
H682 C679 0.950 . S
C683 C674 1.390 . S
C683 H676 0.950 . S
C683 C680 1.387 . S
C684 C685 1.387 . S
C684 H688 0.950 . S
C684 C693 1.390 . S
C685 C684 1.387 . S
C685 C687 1.387 . S
H686 C693 0.950 . S
C687 C685 1.387 . S
C687 C689 1.390 . S
C687 H691 0.950 . S
H688 C684 0.950 . S
C689 C687 1.390 . S
C689 C690 1.387 . S
C689 H692 0.950 . S
C690 C689 1.387 . S
C690 C693 1.387 . S
H691 C687 0.950 . S
H692 C689 0.950 . S
C693 C684 1.390 . S
C693 H686 0.950 . S
C693 C690 1.387 . S
C694 C695 1.387 . S
C694 H698 0.950 . S
C694 C703 1.390 1_565 S
C695 C694 1.387 . S
C695 C697 1.387 . S
H696 C703 0.950 . S
C697 C695 1.387 . S
C697 C699 1.390 . S
C697 H701 0.950 . S
H698 C694 0.950 . S
C699 C697 1.390 . S
C699 C700 1.387 1_565 S
C699 H702 0.943 1_565 S
C700 C699 1.387 1_545 S
C700 C703 1.387 . S
H701 C697 0.950 . S
H702 C699 0.943 1_545 S
C703 C694 1.390 1_545 S
C703 H696 0.950 . S
C703 C700 1.387 . S
C704 C705 1.387 . S
C704 H708 0.950 . S
C704 C713 1.390 . S
C705 C704 1.387 . S
C705 C707 1.387 . S
H706 C713 0.950 . S
C707 C705 1.387 . S
C707 C709 1.390 . S
C707 H711 0.950 . S
H708 C704 0.950 . S
C709 C707 1.390 . S
C709 C710 1.387 . S
C709 H712 0.950 . S
C710 C709 1.387 . S
C710 C713 1.387 . S
H711 C707 0.950 . S
H712 C709 0.950 . S
C713 C704 1.390 . S
C713 H706 0.950 . S
C713 C710 1.387 . S
C714 C715 1.387 . S
C714 H718 0.950 . S
C714 C723 1.390 . S
C715 C714 1.387 . S
C715 C717 1.387 . S
H716 C723 0.950 . S
C717 C715 1.387 . S
C717 C719 1.390 . S
C717 H721 0.950 . S
H718 C714 0.950 . S
C719 C717 1.390 . S
C719 C720 1.387 . S
C719 H722 0.950 . S
C720 C719 1.387 . S
C720 C723 1.387 . S
H721 C717 0.950 . S
H722 C719 0.950 . S
C723 C714 1.390 . S
C723 H716 0.950 . S
C723 C720 1.387 . S
C724 C725 1.387 1_554 S
C724 H728 0.950 1_554 S
C724 C733 1.390 . S
C725 C724 1.387 1_556 S
C725 C727 1.387 1_556 S
H726 C733 0.950 . S
C727 C725 1.387 1_554 S
C727 C729 1.390 . S
C727 H731 0.950 . S
H728 C724 0.950 1_556 S
C729 C727 1.390 . S
C729 C730 1.387 . S
C729 H732 0.950 . S
C730 C729 1.387 . S
C730 C733 1.387 . S
H731 C727 0.950 . S
H732 C729 0.950 . S
C733 C724 1.390 . S
C733 H726 0.950 . S
C733 C730 1.387 . S
C734 C735 1.387 . S
C734 H738 0.950 . S
C734 C743 1.390 . S
C735 C734 1.387 . S
C735 C737 1.387 . S
H736 C743 0.950 . S
C737 C735 1.387 . S
C737 C739 1.390 . S
C737 H741 0.950 . S
H738 C734 0.950 . S
C739 C737 1.390 . S
C739 C740 1.387 . S
C739 H742 0.950 . S
C740 C739 1.387 . S
C740 C743 1.387 . S
H741 C737 0.950 . S
H742 C739 0.950 . S
C743 C734 1.390 . S
C743 H736 0.950 . S
C743 C740 1.387 . S
C744 C745 1.387 . S
C744 H748 0.950 . S
C744 C753 1.390 . S
C745 C744 1.387 . S
C745 C747 1.387 . S
H746 C753 0.950 . S
C747 C745 1.387 . S
C747 C749 1.390 . S
C747 H751 0.950 . S
H748 C744 0.950 . S
C749 C747 1.390 . S
C749 C750 1.387 . S
C749 H752 0.950 . S
C750 C749 1.387 . S
C750 C753 1.387 . S
H751 C747 0.950 . S
H752 C749 0.950 . S
C753 C744 1.390 . S
C753 H746 0.950 . S
C753 C750 1.387 . S
C754 C755 1.387 . S
C754 H758 0.950 . S
C754 C763 1.390 . S
C755 C754 1.387 . S
C755 C757 1.387 . S
H756 C763 0.950 . S
C757 C755 1.387 . S
C757 C759 1.390 . S
C757 H761 0.950 . S
H758 C754 0.950 . S
C759 C757 1.390 . S
C759 C760 1.387 . S
C759 H762 0.950 . S
C760 C759 1.387 . S
C760 C763 1.387 . S
H761 C757 0.950 . S
H762 C759 0.950 . S
C763 C754 1.390 . S
C763 H756 0.950 . S
C763 C760 1.387 . S
C764 C765 1.387 . S
C764 H768 0.950 . S
C764 C773 1.390 . S
C765 C764 1.387 . S
C765 C767 1.387 . S
H766 C773 0.950 . S
C767 C765 1.387 . S
C767 C769 1.390 . S
C767 H771 0.950 . S
H768 C764 0.950 . S
C769 C767 1.390 . S
C769 C770 1.387 1_556 S
C769 H772 0.950 1_556 S
C770 C769 1.387 1_554 S
C770 C773 1.387 1_554 S
H771 C767 0.950 . S
H772 C769 0.950 1_554 S
C773 C764 1.390 . S
C773 H766 0.950 . S
C773 C770 1.387 1_556 S
C774 C775 1.387 . S
C774 H778 0.950 . S
C774 C783 1.390 . S
C775 C774 1.387 . S
C775 C777 1.387 . S
H776 C783 0.950 . S
C777 C775 1.387 . S
C777 C779 1.390 . S
C777 H781 0.950 . S
H778 C774 0.950 . S
C779 C777 1.390 . S
C779 C780 1.387 . S
C779 H782 0.950 . S
C780 C779 1.387 . S
C780 C783 1.387 . S
H781 C777 0.950 . S
H782 C779 0.950 . S
C783 C774 1.390 . S
C783 H776 0.950 . S
C783 C780 1.387 . S
C784 C785 1.387 . S
C784 H788 0.950 . S
C784 C793 1.390 . S
C785 C784 1.387 . S
C785 C787 1.387 1_556 S
H786 C793 0.950 . S
C787 C785 1.387 1_554 S
C787 C789 1.390 . S
C787 H791 0.950 . S
H788 C784 0.950 . S
C789 C787 1.390 . S
C789 C790 1.387 . S
C789 H792 0.950 . S
C790 C789 1.387 . S
C790 C793 1.387 1_554 S
H791 C787 0.950 . S
H792 C789 0.950 . S
C793 C784 1.390 . S
C793 H786 0.950 . S
C793 C790 1.387 1_556 S
C794 C795 1.387 . S
C794 H798 0.962 . S
C794 C803 1.390 . S
C795 C794 1.387 . S
C795 C797 1.387 . S
H796 C803 0.950 . S
C797 C795 1.387 . S
C797 C799 1.390 . S
C797 H801 0.950 . S
H798 C794 0.962 . S
C799 C797 1.390 . S
C799 C800 1.387 . S
C799 H802 0.950 . S
C800 C799 1.387 . S
C800 C803 1.387 . S
H801 C797 0.950 . S
H802 C799 0.950 . S
C803 C794 1.390 . S
C803 H796 0.950 . S
C803 C800 1.387 . S
C804 C805 1.387 . S
C804 H808 0.950 . S
C804 C813 1.390 . S
C805 C804 1.387 . S
C805 C807 1.387 . S
H806 C813 0.950 . S
C807 C805 1.387 . S
C807 C809 1.390 . S
C807 H811 0.950 . S
H808 C804 0.950 . S
C809 C807 1.390 . S
C809 C810 1.387 . S
C809 H812 0.950 . S
C810 C809 1.387 . S
C810 C813 1.387 . S
H811 C807 0.950 . S
H812 C809 0.950 . S
C813 C804 1.390 . S
C813 H806 0.950 . S
C813 C810 1.387 . S
C814 C815 1.387 . S
C814 H818 0.950 . S
C814 C823 1.390 . S
C815 C814 1.387 . S
C815 C817 1.387 . S
H816 C823 0.950 . S
C817 C815 1.387 . S
C817 C819 1.390 . S
C817 H821 0.950 . S
H818 C814 0.950 . S
C819 C817 1.390 . S
C819 C820 1.387 . S
C819 H822 0.950 . S
C820 C819 1.387 . S
C820 C823 1.387 . S
H821 C817 0.950 . S
H822 C819 0.950 . S
C823 C814 1.390 . S
C823 H816 0.950 . S
C823 C820 1.387 . S
C824 C825 1.387 . S
C824 H828 0.950 . S
C824 C833 1.390 . S
C825 C824 1.387 . S
C825 C827 1.387 . S
H826 C833 0.950 . S
C827 C825 1.387 . S
C827 C829 1.390 . S
C827 H831 0.950 . S
H828 C824 0.950 . S
C829 C827 1.390 . S
C829 C830 1.387 . S
C829 H832 0.950 . S
C830 C829 1.387 . S
C830 C833 1.387 . S
H831 C827 0.950 . S
H832 C829 0.950 . S
C833 C824 1.390 . S
C833 H826 0.950 . S
C833 C830 1.387 . S
C834 C835 1.387 . S
C834 H838 0.950 . S
C834 C843 1.390 . S
C835 C834 1.387 . S
C835 C837 1.387 . S
H836 C843 0.950 . S
C837 C835 1.387 . S
C837 C839 1.390 . S
C837 H841 0.950 . S
H838 C834 0.950 . S
C839 C837 1.390 . S
C839 C840 1.387 . S
C839 H842 0.950 . S
C840 C839 1.387 . S
C840 C843 1.387 . S
H841 C837 0.950 . S
H842 C839 0.950 . S
C843 C834 1.390 . S
C843 H836 0.950 . S
C843 C840 1.387 . S
C844 C845 1.387 . S
C844 H848 0.950 . S
C844 C853 1.390 1_556 S
C845 C844 1.387 . S
C845 C847 1.387 . S
H846 C853 0.950 . S
C847 C845 1.387 . S
C847 C849 1.390 1_556 S
C847 H851 0.950 . S
H848 C844 0.950 . S
C849 C847 1.390 1_554 S
C849 C850 1.387 . S
C849 H852 0.950 . S
C850 C849 1.387 . S
C850 C853 1.387 . S
H851 C847 0.950 . S
H852 C849 0.950 . S
C853 C844 1.390 1_554 S
C853 H846 0.950 . S
C853 C850 1.387 . S
C854 C855 1.387 . S
C854 H858 0.950 . S
C854 C863 1.390 . S
C855 C854 1.387 . S
C855 C857 1.387 . S
H856 C863 0.950 . S
C857 C855 1.387 . S
C857 C859 1.390 . S
C857 H861 0.950 . S
H858 C854 0.950 . S
C859 C857 1.390 . S
C859 C860 1.387 . S
C859 H862 0.950 . S
C860 C859 1.387 . S
C860 C863 1.387 . S
H861 C857 0.950 . S
H862 C859 0.950 . S
C863 C854 1.390 . S
C863 H856 0.950 . S
C863 C860 1.387 . S
C864 C865 1.377 1_556 S
C864 H868 0.950 . S
C864 C873 1.400 . S
C865 C864 1.377 1_554 S
C865 C867 1.387 . S
H866 C873 0.950 . S
C867 C865 1.387 . S
C867 C869 1.379 1_554 S
C867 H871 0.950 . S
H868 C864 0.950 . S
C869 C867 1.379 1_556 S
C869 C870 1.400 . S
C869 H872 0.950 . S
C870 C869 1.400 . S
C870 C873 1.387 . S
H871 C867 0.950 . S
H872 C869 0.950 . S
C873 C864 1.400 . S
C873 H866 0.950 . S
C873 C870 1.387 . S
C874 C875 1.387 . S
C874 H878 0.950 . S
C874 C883 1.390 . S
C875 C874 1.387 . S
C875 C877 1.387 . S
H876 C883 0.950 . S
C877 C875 1.387 . S
C877 C879 1.390 . S
C877 H881 0.950 . S
H878 C874 0.950 . S
C879 C877 1.390 . S
C879 C880 1.387 . S
C879 H882 0.950 . S
C880 C879 1.387 . S
C880 C883 1.387 . S
H881 C877 0.950 . S
H882 C879 0.950 . S
C883 C874 1.390 . S
C883 H876 0.950 . S
C883 C880 1.387 . S
C884 C885 1.387 . S
C884 H888 0.950 . S
C884 C893 1.390 . S
C885 C884 1.387 . S
C885 C887 1.387 . S
H886 C893 0.950 . S
C887 C885 1.387 . S
C887 C889 1.390 . S
C887 H891 0.950 . S
H888 C884 0.950 . S
C889 C887 1.390 . S
C889 C890 1.387 . S
C889 H892 0.950 . S
C890 C889 1.387 . S
C890 C893 1.387 . S
H891 C887 0.950 . S
H892 C889 0.950 . S
C893 C884 1.390 . S
C893 H886 0.950 . S
C893 C890 1.387 . S
C894 C895 1.387 . S
C894 H898 0.950 . S
C894 C903 1.390 . S
C895 C894 1.387 . S
C895 C897 1.387 . S
H896 C903 0.950 . S
C897 C895 1.387 . S
C897 C899 1.390 . S
C897 H901 0.950 . S
H898 C894 0.950 . S
C899 C897 1.390 . S
C899 C900 1.387 . S
C899 H902 0.950 . S
C900 C899 1.387 . S
C900 C903 1.387 . S
H901 C897 0.950 . S
H902 C899 0.950 . S
C903 C894 1.390 . S
C903 H896 0.950 . S
C903 C900 1.387 . S
C904 C905 1.387 . S
C904 H908 0.950 . S
C904 C913 1.390 . S
C905 C904 1.387 . S
C905 C907 1.387 . S
H906 C913 0.950 . S
C907 C905 1.387 . S
C907 C909 1.390 . S
C907 H911 0.950 . S
H908 C904 0.950 . S
C909 C907 1.390 . S
C909 C910 1.387 . S
C909 H912 0.950 . S
C910 C909 1.387 . S
C910 C913 1.387 . S
H911 C907 0.950 . S
H912 C909 0.950 . S
C913 C904 1.390 . S
C913 H906 0.950 . S
C913 C910 1.387 . S
C914 C915 1.387 . S
C914 H918 0.950 . S
C914 C923 1.390 . S
C915 C914 1.387 . S
C915 C917 1.387 . S
H916 C923 0.950 . S
C917 C915 1.387 . S
C917 C919 1.390 . S
C917 H921 0.950 . S
H918 C914 0.950 . S
C919 C917 1.390 . S
C919 C920 1.387 . S
C919 H922 0.950 . S
C920 C919 1.387 . S
C920 C923 1.387 . S
H921 C917 0.950 . S
H922 C919 0.950 . S
C923 C914 1.390 . S
C923 H916 0.950 . S
C923 C920 1.387 . S
C924 C925 1.387 1_556 S
C924 H928 0.950 . S
C924 C933 1.390 . S
C925 C924 1.387 1_554 S
C925 C927 1.387 . S
H926 C933 0.950 . S
C927 C925 1.387 . S
C927 C929 1.390 1_554 S
C927 H931 0.950 . S
H928 C924 0.950 . S
C929 C927 1.390 1_556 S
C929 C930 1.387 . S
C929 H932 0.950 . S
C930 C929 1.387 . S
C930 C933 1.387 . S
H931 C927 0.950 . S
H932 C929 0.950 . S
C933 C924 1.390 . S
C933 H926 0.950 . S
C933 C930 1.387 . S
C934 C935 1.387 . S
C934 H938 0.950 . S
C934 C943 1.390 . S
C935 C934 1.387 . S
C935 C937 1.387 . S
H936 C943 0.950 . S
C937 C935 1.387 . S
C937 C939 1.390 . S
C937 H941 0.950 . S
H938 C934 0.950 . S
C939 C937 1.390 . S
C939 C940 1.387 . S
C939 H942 0.950 1_655 S
C940 C939 1.387 . S
C940 C943 1.387 . S
H941 C937 0.950 . S
H942 C939 0.950 1_455 S
C943 C934 1.390 . S
C943 H936 0.950 . S
C943 C940 1.387 . S
C944 C945 1.387 . S
C944 H948 0.950 . S
C944 C953 1.390 . S
C945 C944 1.387 . S
C945 C947 1.387 . S
H946 C953 0.950 . S
C947 C945 1.387 . S
C947 C949 1.390 . S
C947 H951 0.950 . S
H948 C944 0.950 . S
C949 C947 1.390 . S
C949 C950 1.387 . S
C949 H952 0.950 . S
C950 C949 1.387 . S
C950 C953 1.387 . S
H951 C947 0.950 . S
H952 C949 0.950 . S
C953 C944 1.390 . S
C953 H946 0.950 . S
C953 C950 1.387 . S
C954 C955 1.387 . S
C954 H958 0.950 . S
C954 C963 1.390 . S
C955 C954 1.387 . S
C955 C957 1.387 . S
H956 C963 0.950 . S
C957 C955 1.387 . S
C957 C959 1.390 . S
C957 H961 0.950 . S
H958 C954 0.950 . S
C959 C957 1.390 . S
C959 C960 1.387 . S
C959 H962 0.950 . S
C960 C959 1.387 . S
C960 C963 1.387 . S
H961 C957 0.950 . S
H962 C959 0.950 . S
C963 C954 1.390 . S
C963 H956 0.950 . S
C963 C960 1.387 . S
C964 C965 1.387 . S
C964 H968 0.950 . S
C964 C973 1.390 . S
C965 C964 1.387 . S
C965 C967 1.387 . S
H966 C973 0.950 . S
C967 C965 1.387 . S
C967 C969 1.390 . S
C967 H971 0.950 . S
H968 C964 0.950 . S
C969 C967 1.390 . S
C969 C970 1.387 . S
C969 H972 0.950 . S
C970 C969 1.387 . S
C970 C973 1.387 . S
H971 C967 0.950 . S
H972 C969 0.950 . S
C973 C964 1.390 . S
C973 H966 0.950 . S
C973 C970 1.387 . S
C974 C975 1.387 . S
C974 H978 0.950 . S
C974 C983 1.390 1_455 S
C975 C974 1.387 . S
C975 C977 1.387 . S
H976 C983 0.950 . S
C977 C975 1.387 . S
C977 C979 1.390 . S
C977 H981 0.950 . S
H978 C974 0.950 . S
C979 C977 1.390 . S
C979 C980 1.387 1_455 S
C979 H982 0.950 1_455 S
C980 C979 1.387 1_655 S
C980 C983 1.387 . S
H981 C977 0.950 . S
H982 C979 0.950 1_655 S
C983 C974 1.390 1_655 S
C983 H976 0.950 . S
C983 C980 1.387 . S
C984 C985 1.387 . S
C984 H988 0.950 . S
C984 C993 1.390 . S
C985 C984 1.387 . S
C985 C987 1.387 . S
H986 C993 0.950 1_556 S
C987 C985 1.387 . S
C987 C989 1.390 . S
C987 H991 0.950 . S
H988 C984 0.950 . S
C989 C987 1.390 . S
C989 C990 1.387 1_554 S
C989 H992 0.950 1_554 S
C990 C989 1.387 1_556 S
C990 C993 1.387 1_556 S
H991 C987 0.950 . S
H992 C989 0.950 1_556 S
C993 C984 1.390 . S
C993 H986 0.950 1_554 S
C993 C990 1.387 1_554 S
C994 C995 1.387 . S
C994 H998 0.950 . S
C994 C1003 1.390 . S
C995 C994 1.387 . S
C995 C997 1.387 . S
H996 C1003 0.950 1_455 S
C997 C995 1.387 . S
C997 C999 1.390 1_655 S
C997 H1001 0.950 . S
H998 C994 0.950 . S
C999 C997 1.390 1_455 S
C999 C1000 1.387 . S
C999 H1002 0.950 . S
C1000 C999 1.387 . S
C1000 C1003 1.387 1_455 S
H1001 C997 0.950 . S
H1002 C999 0.950 . S
C1003 C994 1.390 . S
C1003 H996 0.950 1_655 S
C1003 C1000 1.387 1_655 S
C1004 C1005 1.387 . S
C1004 H1008 0.950 . S
C1004 C1013 1.390 . S
C1005 C1004 1.387 . S
C1005 C1007 1.387 . S
H1006 C1013 0.950 . S
C1007 C1005 1.387 . S
C1007 C1009 1.390 . S
C1007 H1011 0.950 . S
H1008 C1004 0.950 . S
C1009 C1007 1.390 . S
C1009 C1010 1.387 . S
C1009 H1012 0.950 . S
C1010 C1009 1.387 . S
C1010 C1013 1.387 . S
H1011 C1007 0.950 . S
H1012 C1009 0.950 . S
C1013 C1004 1.390 . S
C1013 H1006 0.950 . S
C1013 C1010 1.387 . S
C1014 C1015 1.387 . S
C1014 H1018 0.950 . S
C1014 C1023 1.390 . S
C1015 C1014 1.387 . S
C1015 C1017 1.387 . S
H1016 C1023 0.950 . S
C1017 C1015 1.387 . S
C1017 C1019 1.390 . S
C1017 H1021 0.950 . S
H1018 C1014 0.950 . S
C1019 C1017 1.390 . S
C1019 C1020 1.387 . S
C1019 H1022 0.950 . S
C1020 C1019 1.387 . S
C1020 C1023 1.387 . S
H1021 C1017 0.950 . S
H1022 C1019 0.950 . S
C1023 C1014 1.390 . S
C1023 H1016 0.950 . S
C1023 C1020 1.387 . S
C1024 C1025 1.387 . S
C1024 H1028 0.950 . S
C1024 C1033 1.390 . S
C1025 C1024 1.387 . S
C1025 C1027 1.387 . S
H1026 C1033 0.950 . S
C1027 C1025 1.387 . S
C1027 C1029 1.390 . S
C1027 H1031 0.950 . S
H1028 C1024 0.950 . S
C1029 C1027 1.390 . S
C1029 C1030 1.387 . S
C1029 H1032 0.950 . S
C1030 C1029 1.387 . S
C1030 C1033 1.387 . S
H1031 C1027 0.950 . S
H1032 C1029 0.950 . S
C1033 C1024 1.390 . S
C1033 H1026 0.950 . S
C1033 C1030 1.387 . S
C1034 C1035 1.387 . S
C1034 H1038 0.950 . S
C1034 C1043 1.390 . S
C1035 C1034 1.387 . S
C1035 C1037 1.387 . S
H1036 C1043 0.950 . S
C1037 C1035 1.387 . S
C1037 C1039 1.390 . S
C1037 H1041 0.950 . S
H1038 C1034 0.950 . S
C1039 C1037 1.390 . S
C1039 C1040 1.387 . S
C1039 H1042 0.950 . S
C1040 C1039 1.387 . S
C1040 C1043 1.387 . S
H1041 C1037 0.950 . S
H1042 C1039 0.950 . S
C1043 C1034 1.390 . S
C1043 H1036 0.950 . S
C1043 C1040 1.387 . S
C1044 C1045 1.387 . S
C1044 H1048 0.950 . S
C1044 C1053 1.390 . S
C1045 C1044 1.387 . S
C1045 C1047 1.387 . S
H1046 C1053 0.950 . S
C1047 C1045 1.387 . S
C1047 C1049 1.390 . S
C1047 H1051 0.950 . S
H1048 C1044 0.950 . S
C1049 C1047 1.390 . S
C1049 C1050 1.387 . S
C1049 H1052 0.950 . S
C1050 C1049 1.387 . S
C1050 C1053 1.387 . S
H1051 C1047 0.950 . S
H1052 C1049 0.950 . S
C1053 C1044 1.390 . S
C1053 H1046 0.950 . S
C1053 C1050 1.387 . S
C1054 C1055 1.387 1_655 S
C1054 H1058 0.950 . S
C1054 C1063 1.390 . S
C1055 C1054 1.387 1_455 S
C1055 C1057 1.387 . S
H1056 C1063 0.950 . S
C1057 C1055 1.387 . S
C1057 C1059 1.390 1_455 S
C1057 H1061 0.950 . S
H1058 C1054 0.950 . S
C1059 C1057 1.390 1_655 S
C1059 C1060 1.387 . S
C1059 H1062 0.950 . S
C1060 C1059 1.387 . S
C1060 C1063 1.387 . S
H1061 C1057 0.950 . S
H1062 C1059 0.950 . S
C1063 C1054 1.390 . S
C1063 H1056 0.950 . S
C1063 C1060 1.387 . S
C1064 C1065 1.387 1_554 S
C1064 H1068 0.950 . S
C1064 C1073 1.390 . S
C1065 C1064 1.387 1_556 S
C1065 C1067 1.387 . S
H1066 C1073 0.950 . S
C1067 C1065 1.387 . S
C1067 C1069 1.390 . S
C1067 H1071 0.950 . S
H1068 C1064 0.950 . S
C1069 C1067 1.390 . S
C1069 C1070 1.387 1_556 S
C1069 H1072 0.950 . S
C1070 C1069 1.387 1_554 S
C1070 C1073 1.387 . S
H1071 C1067 0.950 . S
H1072 C1069 0.950 . S
C1073 C1064 1.390 . S
C1073 H1066 0.950 . S
C1073 C1070 1.387 . S
C1074 C1075 1.387 . S
C1074 H1078 0.950 . S
C1074 C1083 1.390 1_655 S
C1075 C1074 1.387 . S
C1075 C1077 1.387 . S
H1076 C1083 0.950 . S
C1077 C1075 1.387 . S
C1077 C1079 1.390 1_655 S
C1077 H1081 0.950 . S
H1078 C1074 0.950 . S
C1079 C1077 1.390 1_455 S
C1079 C1080 1.387 . S
C1079 H1082 0.950 . S
C1080 C1079 1.387 . S
C1080 C1083 1.387 . S
H1081 C1077 0.950 . S
H1082 C1079 0.950 . S
C1083 C1074 1.390 1_455 S
C1083 H1076 0.950 . S
C1083 C1080 1.387 . S
C1084 C1085 1.387 . S
C1084 H1088 0.950 . S
C1084 C1093 1.390 . S
C1085 C1084 1.387 . S
C1085 C1087 1.387 . S
H1086 C1093 0.950 . S
C1087 C1085 1.387 . S
C1087 C1089 1.390 . S
C1087 H1091 0.950 . S
H1088 C1084 0.950 . S
C1089 C1087 1.390 . S
C1089 C1090 1.387 . S
C1089 H1092 0.950 . S
C1090 C1089 1.387 . S
C1090 C1093 1.387 . S
H1091 C1087 0.950 . S
H1092 C1089 0.950 . S
C1093 C1084 1.390 . S
C1093 H1086 0.950 . S
C1093 C1090 1.387 . S
C1094 C1095 1.387 . S
C1094 H1098 0.950 . S
C1094 C1103 1.390 . S
C1095 C1094 1.387 . S
C1095 C1097 1.387 . S
H1096 C1103 0.950 . S
C1097 C1095 1.387 . S
C1097 C1099 1.390 . S
C1097 H1101 0.950 . S
H1098 C1094 0.950 . S
C1099 C1097 1.390 . S
C1099 C1100 1.387 . S
C1099 H1102 0.950 . S
C1100 C1099 1.387 . S
C1100 C1103 1.387 . S
H1101 C1097 0.950 . S
H1102 C1099 0.950 . S
C1103 C1094 1.390 . S
C1103 H1096 0.950 . S
C1103 C1100 1.387 . S
C545 C266 0.863 1_455 S
C550 C28 0.832 . S
C555 C142 0.550 1_655 S
C560 C40 0.560 . S
C565 C176 0.829 . S
C570 C96 0.861 . S
C575 C210 0.560 . S
C580 C108 0.550 . S
C585 C278 0.824 . S
C590 C538 0.856 1_655 S
C595 C312 0.561 . S
C600 C436 0.549 1_455 S
C605 C470 0.832 . S
C610 C368 0.863 . S
C615 C482 0.567 . S
C620 C402 0.555 . S
C625 C232 1.774 . S
C630 C6 1.682 . S
C635 C37 1.212 . S
C640 C244 1.345 . S
C645 C164 1.933 . S
C650 C69 1.795 . S
C655 C173 1.601 . S
C660 C105 1.551 . S
C665 C300 1.684 . S
C670 C504 1.776 . S
C675 C516 1.344 . S
C680 C309 1.212 . S
C685 C341 1.795 . S
C690 C414 1.934 . S
C695 C375 1.552 . S
C700 C443 1.605 . S
C705 C62 1.774 . S
C710 C198 1.682 . S
C715 C207 1.217 . S
C720 C74 1.343 . S
C725 C130 1.933 . S
C730 C239 1.795 . S
C735 C139 1.554 . S
C740 C1 1.604 . S
C745 C448 1.681 . S
C750 C334 1.774 . S
C755 C346 1.344 . S
C760 C479 1.212 . S
C765 C511 1.792 . S
C770 C380 1.933 . S
C775 C275 1.604 . S
C780 C409 1.554 . S
C785 C328 1.716 . S
C790 C17 1.723 . S
C795 C525 1.690 1_554 S
C800 C35 1.595 . S
C805 C71 1.748 . S
C810 C389 1.838 . S
C815 C464 1.190 . S
C820 C103 1.545 . S
C825 C532 1.568 . S
C830 C153 2.165 . S
C835 C396 1.773 . S
C840 C171 2.149 . S
C845 C221 2.164 . S
C850 C457 2.180 . S
C855 C255 1.944 1_455 S
C860 C321 1.401 . S
C865 C56 1.716 . S
C870 C289 1.722 . S
C875 C307 1.594 . S
C880 C253 1.689 1_556 S
C885 C124 1.839 . S
C890 C343 1.748 . S
C895 C377 1.542 . S
C900 C185 1.188 . S
C905 C260 1.569 . S
C910 C425 2.164 . S
C915 C117 1.773 . S
C920 C445 2.149 . S
C925 C493 2.163 . S
C930 C192 2.180 . S
C935 C49 1.406 . S
C940 C527 1.945 1_655 S
C945 C498 1.715 . S
C950 C187 1.722 . S
C955 C355 1.688 . S
C960 C205 1.594 . S
C965 C241 1.749 1_556 S
C970 C423 1.838 . S
C975 C137 1.545 . S
C980 C287 1.190 . S
C985 C362 1.571 . S
C990 C119 2.165 . S
C995 C430 1.772 . S
C1000 C3 2.148 . S
C1005 C294 2.180 . S
C1010 C51 2.163 . S
C1015 C491 1.401 . S
C1020 C85 1.944 . S
C1025 C226 1.716 . S
C1030 C459 1.722 . S
C1035 C83 1.688 . S
C1040 C477 1.594 . S
C1045 C158 1.838 . S
C1050 C513 1.749 1_554 S
C1055 C22 1.188 . S
C1060 C411 1.543 . S
C1065 C90 1.570 . S
C1070 C391 2.165 . S
C1075 C273 2.149 . S
C1080 C151 1.773 . S
C1085 C15 2.180 . S
C1090 C323 2.164 . S
C1095 C219 1.405 . S
C1100 C357 1.945 . S
