# Generated by pormake.
# Topology vmc, (5)-cn, num edge types: 1
# Building blocks:
#     Node 0, Type 0, BuildingBlock: XOMCOT_clean_sbu_1, # of connection points: 5
#     Node 1, Type 0, BuildingBlock: XOMCOT_clean_sbu_1, # of connection points: 5
#     Node 2, Type 0, BuildingBlock: XOMCOT_clean_sbu_1, # of connection points: 5
#     Node 3, Type 0, BuildingBlock: XOMCOT_clean_sbu_1, # of connection points: 5
#     Node 4, Type 0, BuildingBlock: XOMCOT_clean_sbu_1, # of connection points: 5
#     Node 5, Type 0, BuildingBlock: XOMCOT_clean_sbu_1, # of connection points: 5
#     Node 6, Type 0, BuildingBlock: XOMCOT_clean_sbu_1, # of connection points: 5
#     Node 7, Type 0, BuildingBlock: XOMCOT_clean_sbu_1, # of connection points: 5
#     Edge 8, Type (0, 0), BuildingBlock: UVAHIK_clean_linker_0, # of connection points: 2
#     Edge 9, Type (0, 0), BuildingBlock: UVAHIK_clean_linker_0, # of connection points: 2
#     Edge 10, Type (0, 0), BuildingBlock: UVAHIK_clean_linker_0, # of connection points: 2
#     Edge 11, Type (0, 0), BuildingBlock: UVAHIK_clean_linker_0, # of connection points: 2
#     Edge 12, Type (0, 0), BuildingBlock: UVAHIK_clean_linker_0, # of connection points: 2
#     Edge 13, Type (0, 0), BuildingBlock: UVAHIK_clean_linker_0, # of connection points: 2
#     Edge 14, Type (0, 0), BuildingBlock: UVAHIK_clean_linker_0, # of connection points: 2
#     Edge 15, Type (0, 0), BuildingBlock: UVAHIK_clean_linker_0, # of connection points: 2
#     Edge 16, Type (0, 0), BuildingBlock: UVAHIK_clean_linker_0, # of connection points: 2
#     Edge 17, Type (0, 0), BuildingBlock: UVAHIK_clean_linker_0, # of connection points: 2
#     Edge 18, Type (0, 0), BuildingBlock: UVAHIK_clean_linker_0, # of connection points: 2
#     Edge 19, Type (0, 0), BuildingBlock: UVAHIK_clean_linker_0, # of connection points: 2
#     Edge 20, Type (0, 0), BuildingBlock: UVAHIK_clean_linker_0, # of connection points: 2
#     Edge 21, Type (0, 0), BuildingBlock: UVAHIK_clean_linker_0, # of connection points: 2
#     Edge 22, Type (0, 0), BuildingBlock: UVAHIK_clean_linker_0, # of connection points: 2
#     Edge 23, Type (0, 0), BuildingBlock: UVAHIK_clean_linker_0, # of connection points: 2
#     Edge 24, Type (0, 0), BuildingBlock: UVAHIK_clean_linker_0, # of connection points: 2
#     Edge 25, Type (0, 0), BuildingBlock: UVAHIK_clean_linker_0, # of connection points: 2
#     Edge 26, Type (0, 0), BuildingBlock: UVAHIK_clean_linker_0, # of connection points: 2
#     Edge 27, Type (0, 0), BuildingBlock: UVAHIK_clean_linker_0, # of connection points: 2
# Relax obj value: 0.403
# Max RMSD: 0.210
# Mean RMSD: 0.210
data_MOF--net-vmc--node1-XOMCOT_clean_sbu_1--edge1-UVAHIK_clean_linker_0
_symmetry_space_group_name_H-M    P1
_symmetry_Int_Tables_number       1
_symmetry_cell_setting            triclinic
loop_
_symmetry_equiv_pos_as_xyz
'x, y, z'
_cell_length_a     36.906876
_cell_length_b     61.387513
_cell_length_c     36.967902
_cell_angle_alpha  89.992303
_cell_angle_beta   99.896244
_cell_angle_gamma 90.061209
loop_
_atom_site_label
_atom_site_type_symbol
_atom_site_fract_x
_atom_site_fract_y
_atom_site_fract_z
_atom_type_partial_charge
C0 C 0.31641 0.39803 0.0543 0.0
C1 C 0.34508 0.39214 0.08143 0.0
N2 N 0.34939 0.40773 0.10751 0.0
N3 N 0.30232 0.41708 0.06347 0.0
C4 C 0.32314 0.4227 0.09584 0.0
H5 H 0.3069 0.38926 0.02907 0.0
Co6 Co 0.26588 0.43312 0.0338 0.0
C7 C 0.22018 0.44463 0.09041 0.0
O8 O 0.19101 0.43529 0.0712 0.0
N9 N 0.23106 0.44986 1.00225 0.0
C10 C 0.19457 0.47618 0.97501 0.0
C11 C 0.20701 0.46562 1.00776 0.0
C12 C 0.23306 0.45155 0.96619 0.0
N13 N 0.2114 0.46739 0.94895 0.0
O14 O 0.30021 0.45605 0.0339 0.0
H15 H 0.20096 0.47063 0.03402 0.0
H16 H 0.2513 0.44174 0.95302 0.0
O17 O 0.25035 0.44523 0.07782 0.0
C18 C 0.32059 0.45224 1.01014 0.0
O19 O 0.31429 0.43462 0.98983 0.0
N20 N 0.23355 0.409 0.03181 0.0
C21 C 0.21424 0.36513 0.02333 0.0
C22 C 0.22325 0.3743 0.05849 0.0
C23 C 0.23273 0.39633 0.06215 0.0
C24 C 0.22087 0.40081 0.99767 0.0
C25 C 0.21041 0.37906 0.99289 0.0
H26 H 0.24389 0.40239 0.08924 0.0
H27 H 0.2225 0.41022 0.97349 0.0
H28 H 0.31951 0.4377 0.11018 0.0
H29 H 0.36227 0.37789 0.08121 0.0
H30 H 0.17672 0.49028 0.97136 0.0
H31 H 0.22682 0.3642 0.08285 0.0
H32 H 0.20273 0.37278 0.96525 0.0
C33 C 0.67878 0.39661 0.46796 0.0
C34 C 0.65023 0.3907 0.44073 0.0
N35 N 0.64477 0.40681 0.41559 0.0
N36 N 0.69164 0.41625 0.45986 0.0
C37 C 0.67027 0.42212 0.42793 0.0
H38 H 0.68891 0.38746 0.49264 0.0
Co39 Co 0.72743 0.43256 0.48998 0.0
C40 C 0.75124 0.46331 0.43799 0.0
O41 O 0.74912 0.47927 0.46121 0.0
N42 N 0.76261 0.44898 0.52137 0.0
C43 C 0.81431 0.46221 0.55405 0.0
C44 C 0.79921 0.45114 0.52243 0.0
C45 C 0.7562 0.45892 0.55222 0.0
N46 N 0.78695 0.46714 0.5725 0.0
O47 O 0.69267 0.45541 0.48872 0.0
H48 H 0.81414 0.4443 0.50238 0.0
H49 H 0.72981 0.4591 0.56106 0.0
O50 O 0.74424 0.44383 0.44666 0.0
C51 C 0.67091 0.45076 0.51083 0.0
O52 O 0.6773 0.4331 0.53106 0.0
N53 N 0.75959 0.40901 0.49306 0.0
C54 C 0.77767 0.36523 0.50179 0.0
C55 C 0.77374 0.37503 0.46694 0.0
C56 C 0.76499 0.39719 0.46317 0.0
C57 C 0.76772 0.40043 0.52745 0.0
C58 C 0.77766 0.37866 0.5325 0.0
H59 H 0.75771 0.40396 0.43589 0.0
H60 H 0.7626 0.40978 0.55083 0.0
H61 H 0.67293 0.43755 0.41447 0.0
H62 H 0.63379 0.37606 0.44033 0.0
H63 H 0.84311 0.46594 0.56311 0.0
H64 H 0.77349 0.36535 0.44243 0.0
H65 H 0.78168 0.37196 0.56 0.0
C66 C 0.67788 0.59852 0.96748 0.0
C67 C 0.64911 0.60384 0.94016 0.0
N68 N 0.6455 0.58804 0.91445 0.0
N69 N 0.69285 0.5796 0.95893 0.0
C70 C 0.67234 0.57347 0.92662 0.0
H71 H 0.6868 0.60758 0.99253 0.0
Co72 Co 0.73 0.56464 0.98999 0.0
C73 C 0.7773 0.55345 0.93354 0.0
O74 O 0.80531 0.56487 0.95021 0.0
N75 N 0.76667 0.54922 0.02302 0.0
C76 C 0.81806 0.54064 0.06181 0.0
C77 C 0.80371 0.55156 0.02999 0.0
C78 C 0.7596 0.53653 0.05104 0.0
N79 N 0.79014 0.53122 0.07498 0.0
O80 O 0.69698 0.54089 0.98931 0.0
H81 H 0.81931 0.56236 0.01557 0.0
H82 H 0.73238 0.53268 0.05597 0.0
O83 O 0.74763 0.55242 0.94698 0.0
C84 C 0.67489 0.5453 1.01122 0.0
O85 O 0.68087 0.56292 0.03161 0.0
N86 N 0.75983 0.58962 0.99249 0.0
C87 C 0.77565 0.63385 1.00207 0.0
C88 C 0.77013 0.62454 0.96684 0.0
C89 C 0.76215 0.60233 0.9626 0.0
C90 C 0.76809 0.59809 0.02701 0.0
C91 C 0.77697 0.62002 0.03244 0.0
H92 H 0.75341 0.59604 0.93517 0.0
H93 H 0.76428 0.58836 0.05045 0.0
H94 H 0.67655 0.55839 0.91275 0.0
H95 H 0.63126 0.61782 0.94004 0.0
H96 H 0.84649 0.54077 0.07537 0.0
H97 H 0.76825 0.63461 0.94253 0.0
H98 H 0.78168 0.6264 0.06017 0.0
C99 C 0.31633 0.60071 0.5552 0.0
C100 C 0.34503 0.60575 0.58285 0.0
N101 N 0.34868 0.58953 0.60781 0.0
N102 N 0.30149 0.58154 0.56286 0.0
C103 C 0.32197 0.57501 0.59492 0.0
H104 H 0.30732 0.61016 0.53061 0.0
Co105 Co 0.26428 0.56666 0.53167 0.0
C106 C 0.21761 0.55383 0.58768 0.0
O107 O 0.1887 0.56433 0.57069 0.0
N108 N 0.22744 0.55128 0.49864 0.0
C109 C 0.17599 0.54278 0.45983 0.0
C110 C 0.19048 0.55402 0.49124 0.0
C111 C 0.23428 0.53803 0.47123 0.0
N112 N 0.20371 0.53277 0.44728 0.0
O113 O 0.29752 0.54321 0.53131 0.0
H114 H 0.1751 0.56526 0.50508 0.0
H115 H 0.26144 0.53367 0.46675 0.0
O116 O 0.24747 0.55391 0.57455 0.0
C117 C 0.31921 0.54803 0.50918 0.0
O118 O 0.31269 0.56581 0.48926 0.0
N119 N 0.23422 0.59135 0.53023 0.0
C120 C 0.21869 0.63563 0.52212 0.0
C121 C 0.22378 0.62589 0.55702 0.0
C122 C 0.23154 0.60361 0.56052 0.0
C123 C 0.2262 0.60023 0.496 0.0
C124 C 0.21735 0.62217 0.49129 0.0
H125 H 0.23998 0.59694 0.58773 0.0
H126 H 0.23025 0.59083 0.4723 0.0
H127 H 0.31776 0.55972 0.60816 0.0
H128 H 0.3627 0.61989 0.58376 0.0
H129 H 0.14761 0.54305 0.4461 0.0
H130 H 0.22557 0.63566 0.58165 0.0
H131 H 0.21284 0.62888 0.46379 0.0
C132 C 0.81546 0.89584 0.05509 0.0
C133 C 0.84394 0.88976 0.08229 0.0
N134 N 0.84878 0.90546 0.10819 0.0
N135 N 0.80199 0.91512 0.06403 0.0
C136 C 0.82301 0.92068 0.09634 0.0
H137 H 0.80568 0.88704 0.02995 0.0
Co138 Co 0.76612 0.93154 0.03428 0.0
C139 C 0.72044 0.94371 0.09063 0.0
O140 O 0.69087 0.93487 0.07128 0.0
N141 N 0.73183 0.94866 1.00275 0.0
C142 C 0.69568 0.9752 0.9758 0.0
C143 C 0.70802 0.96453 1.00841 0.0
C144 C 0.7339 0.95047 0.96671 0.0
N145 N 0.71236 0.96642 0.94964 0.0
O146 O 0.801 0.95419 0.03484 0.0
H147 H 0.70209 0.96957 0.03468 0.0
H148 H 0.75212 0.94068 0.95346 0.0
O149 O 0.7507 0.94369 0.0782 0.0
C150 C 0.82169 0.95036 0.01138 0.0
O151 O 0.81543 0.93283 0.99084 0.0
N152 N 0.73317 0.90775 0.03189 0.0
C153 C 0.71247 0.86412 0.02314 0.0
C154 C 0.72112 0.87328 0.05834 0.0
C155 C 0.73137 0.89519 0.06214 0.0
C156 C 0.72094 0.89962 0.99764 0.0
C157 C 0.70984 0.87798 0.9927 0.0
H158 H 0.74231 0.90118 0.08932 0.0
H159 H 0.72348 0.90894 0.97358 0.0
H160 H 0.81988 0.93581 0.11047 0.0
H161 H 0.86069 0.87531 0.08222 0.0
H162 H 0.67802 0.98939 0.97231 0.0
H163 H 0.72383 0.8632 0.08269 0.0
H164 H 0.70259 0.87168 0.96502 0.0
C165 C 0.18002 0.89617 0.46788 0.0
C166 C 0.15129 0.8899 0.44108 0.0
N167 N 0.14565 0.90563 0.41525 0.0
N168 N 0.19285 0.91561 0.45876 0.0
C169 C 0.17123 0.92105 0.42674 0.0
H170 H 0.19031 0.88744 0.49296 0.0
Co171 Co 0.22833 0.9325 0.48821 0.0
C172 C 0.27365 0.94486 0.43173 0.0
O173 O 0.30339 0.93636 0.45129 0.0
N174 N 0.26218 0.95009 0.51939 0.0
C175 C 0.29776 0.97702 0.54597 0.0
C176 C 0.28558 0.96616 0.5135 0.0
C177 C 0.26013 0.95198 0.55542 0.0
N178 N 0.28135 0.96816 0.57226 0.0
O179 O 0.19282 0.95478 0.48744 0.0
H180 H 0.29136 0.97118 0.48715 0.0
H181 H 0.24219 0.94205 0.56883 0.0
O182 O 0.24335 0.94464 0.44408 0.0
C183 C 0.17228 0.95065 0.51093 0.0
O184 O 0.17917 0.93318 0.53153 0.0
N185 N 0.26195 0.90907 0.49092 0.0
C186 C 0.28363 0.86568 0.50051 0.0
C187 C 0.27463 0.87455 0.46513 0.0
C188 C 0.26391 0.89635 0.4609 0.0
C189 C 0.27461 0.90126 0.52531 0.0
C190 C 0.28623 0.87976 0.53066 0.0
H191 H 0.25272 0.90209 0.43363 0.0
H192 H 0.27202 0.9107 0.54921 0.0
H193 H 0.17369 0.93629 0.41265 0.0
H194 H 0.13484 0.87533 0.44146 0.0
H195 H 0.31512 0.99136 0.54928 0.0
H196 H 0.27197 0.86428 0.441 0.0
H197 H 0.29376 0.8737 0.55846 0.0
C198 C 0.17821 0.10409 0.96783 0.0
C199 C 0.14963 0.11023 0.94079 0.0
N200 N 0.14466 0.09461 0.91476 0.0
N201 N 0.19161 0.08483 0.95866 0.0
C202 C 0.17046 0.07937 0.92638 0.0
H203 H 0.1881 0.11281 0.99302 0.0
Co204 Co 0.22752 0.06829 0.98812 0.0
C205 C 0.27295 0.0562 0.93165 0.0
O206 O 0.30256 0.06492 0.95116 0.0
N207 N 0.26181 0.05103 0.01933 0.0
C208 C 0.29756 0.0242 0.0459 0.0
C209 C 0.28518 0.03497 0.01339 0.0
C210 C 0.26001 0.04923 0.05543 0.0
N211 N 0.28132 0.03311 0.07226 0.0
O212 O 0.19252 0.0457 0.98758 0.0
H213 H 0.29071 0.02986 0.987 0.0
H214 H 0.2421 0.05913 0.06888 0.0
O215 O 0.24266 0.05623 0.94402 0.0
C216 C 0.17201 0.04952 1.0112 0.0
O217 O 0.17855 0.06697 0.03191 0.0
N218 N 0.26063 0.09202 0.99049 0.0
C219 C 0.28149 0.13562 0.99947 0.0
C220 C 0.27233 0.12659 0.9642 0.0
C221 C 0.26208 0.10469 0.96029 0.0
C222 C 0.27344 0.1 0.02474 0.0
C223 C 0.28469 0.12161 0.02977 0.0
H224 H 0.25084 0.09879 0.93313 0.0
H225 H 0.27132 0.09058 0.04879 0.0
H226 H 0.1735 0.06428 0.9121 0.0
H227 H 0.1329 0.12468 0.94105 0.0
H228 H 0.31488 0.00987 0.04918 0.0
H229 H 0.26923 0.13676 0.93993 0.0
H230 H 0.29247 0.12776 0.05749 0.0
C231 C 0.81415 0.10406 0.55444 0.0
C232 C 0.84279 0.11033 0.58133 0.0
N233 N 0.8483 0.09463 0.6072 0.0
N234 N 0.80123 0.08464 0.56355 0.0
C235 C 0.82272 0.07922 0.59566 0.0
H236 H 0.80396 0.11278 0.52933 0.0
Co237 Co 0.7657 0.06781 0.53406 0.0
C238 C 0.72039 0.05541 0.59061 0.0
O239 O 0.69065 0.06397 0.57113 0.0
N240 N 0.73178 0.05027 0.50282 0.0
C241 C 0.69621 0.02332 0.47628 0.0
C242 C 0.7084 0.03419 0.50875 0.0
C243 C 0.73379 0.04838 0.46678 0.0
N244 N 0.71258 0.03219 0.44996 0.0
O245 O 0.80113 0.04549 0.53479 0.0
H246 H 0.70267 0.02917 0.53511 0.0
H247 H 0.75173 0.0583 0.45335 0.0
O248 O 0.75065 0.05565 0.57819 0.0
C249 C 0.82166 0.04961 0.51128 0.0
O250 O 0.81478 0.06709 0.49071 0.0
N251 N 0.7322 0.0913 0.53139 0.0
C252 C 0.71183 0.1349 0.52187 0.0
C253 C 0.7202 0.12593 0.55723 0.0
C254 C 0.73027 0.10401 0.56142 0.0
C255 C 0.71999 0.09922 0.49699 0.0
C256 C 0.70906 0.12085 0.49167 0.0
H257 H 0.74116 0.09818 0.58871 0.0
H258 H 0.72256 0.08977 0.47309 0.0
H259 H 0.82017 0.06401 0.60978 0.0
H260 H 0.85927 0.1249 0.58099 0.0
H261 H 0.67888 0.00897 0.47301 0.0
H262 H 0.72294 0.13617 0.5814 0.0
H263 H 0.702 0.12701 0.46389 0.0
C264 C 0.24718 0.53297 0.64368 0.0
C265 C 0.21619 0.54343 0.62368 0.0
C266 C 0.24591 0.52399 0.6783 0.0
C267 C 0.19494 0.52798 0.7559 0.0
H268 H 0.24014 0.4722 0.78433 0.0
C269 C 0.17945 0.48565 0.89257 0.0
C270 C 0.21071 0.47517 0.91195 0.0
C271 C 0.17916 0.49344 0.85688 0.0
C272 C 0.2277 0.48791 0.77701 0.0
H273 H 0.15937 0.5523 0.62427 0.0
H274 H 0.15716 0.53657 0.68426 0.0
H275 H 0.24201 0.48672 0.72327 0.0
H276 H 0.2666 0.46526 0.90917 0.0
H277 H 0.26616 0.47882 0.84741 0.0
H278 H 0.18093 0.52932 0.80969 0.0
C279 C 0.1826 0.53555 0.67347 0.0
C280 C 0.22879 0.49623 0.74196 0.0
C281 C 0.18383 0.54445 0.63891 0.0
C282 C 0.2417 0.47276 0.89483 0.0
C283 C 0.24147 0.48058 0.8593 0.0
C284 C 0.19395 0.5197 0.79098 0.0
C285 C 0.21367 0.52533 0.69373 0.0
C286 C 0.21246 0.51638 0.73098 0.0
C287 C 0.21022 0.49101 0.8398 0.0
C288 C 0.2104 0.49958 0.80206 0.0
H289 H 0.27257 0.53191 0.63283 0.0
H290 H 0.27044 0.5164 0.6933 0.0
H291 H 0.18256 0.54371 0.74855 0.0
H292 H 0.15507 0.48762 0.90486 0.0
H293 H 0.15444 0.50115 0.84254 0.0
C294 C 0.76124 0.49098 0.61529 0.0
C295 C 0.78935 0.4771 0.60813 0.0
C296 C 0.7613 0.49911 0.6506 0.0
C297 C 0.82023 0.50565 0.74295 0.0
H298 H 0.7256 0.51394 0.77299 0.0
C299 C 0.80746 0.54954 0.87821 0.0
C300 C 0.77934 0.54341 0.89743 0.0
C301 C 0.80916 0.54077 0.84365 0.0
C302 C 0.75235 0.51145 0.76542 0.0
H303 H 0.83982 0.46096 0.63214 0.0
H304 H 0.83959 0.47454 0.69427 0.0
H305 H 0.72823 0.49984 0.71227 0.0
H306 H 0.73121 0.52293 0.89557 0.0
H307 H 0.73489 0.50694 0.83586 0.0
H308 H 0.84439 0.51626 0.79677 0.0
C309 C 0.81785 0.47969 0.67248 0.0
C310 C 0.75386 0.50371 0.73011 0.0
C311 C 0.81806 0.47185 0.63688 0.0
C312 C 0.75315 0.52806 0.88141 0.0
C313 C 0.75515 0.51902 0.84699 0.0
C314 C 0.81874 0.51309 0.77847 0.0
C315 C 0.78917 0.49324 0.67996 0.0
C316 C 0.7878 0.50093 0.71814 0.0
C317 C 0.78309 0.52535 0.82746 0.0
C318 C 0.78475 0.51635 0.79013 0.0
H319 H 0.739 0.49545 0.59346 0.0
H320 H 0.73932 0.50998 0.65478 0.0
H321 H 0.84691 0.50394 0.73487 0.0
H322 H 0.82791 0.56149 0.88951 0.0
H323 H 0.83059 0.54651 0.82937 0.0
C324 C 0.74841 0.45364 0.37162 0.0
C325 C 0.75946 0.46812 0.40093 0.0
C326 C 0.75397 0.45885 0.3361 0.0
C327 C 0.81023 0.49134 0.28393 0.0
H328 H 0.7253 0.49029 0.20603 0.0
C329 C 0.81404 0.52987 0.14167 0.0
C330 C 0.79106 0.52143 0.1106 0.0
C331 C 0.81207 0.5219 0.17677 0.0
C332 C 0.7496 0.49027 0.2271 0.0
H333 H 0.786 0.49909 0.41616 0.0
H334 H 0.79665 0.50789 0.35424 0.0
H335 H 0.71901 0.47869 0.2676 0.0
H336 H 0.74922 0.49743 0.09163 0.0
H337 H 0.74689 0.48267 0.15247 0.0
H338 H 0.8412 0.50235 0.2436 0.0
C339 C 0.78335 0.49263 0.35876 0.0
C340 C 0.74584 0.48372 0.26253 0.0
C341 C 0.77711 0.48763 0.39414 0.0
C342 C 0.76702 0.50432 0.1152 0.0
C343 C 0.76551 0.49604 0.1502 0.0
C344 C 0.81421 0.49751 0.24833 0.0
C345 C 0.7714 0.47843 0.32929 0.0
C346 C 0.776 0.4844 0.29138 0.0
C347 C 0.78749 0.50498 0.18167 0.0
C348 C 0.78385 0.49731 0.21939 0.0
H349 H 0.73459 0.43851 0.37592 0.0
H350 H 0.74463 0.44758 0.3139 0.0
H351 H 0.83402 0.49183 0.30563 0.0
H352 H 0.83241 0.54331 0.139 0.0
H353 H 0.82901 0.52958 0.2001 0.0
C354 C 0.18964 0.44758 0.14568 0.0
C355 C 0.21824 0.45379 0.12712 0.0
C356 C 0.18809 0.45568 0.18074 0.0
C357 C 0.21482 0.50168 0.24164 0.0
H358 H 0.20273 0.46186 0.32027 0.0
C359 C 0.17941 0.5303 0.38075 0.0
C360 C 0.20264 0.52238 0.41213 0.0
C361 C 0.18091 0.52155 0.34609 0.0
C362 C 0.20612 0.47315 0.29857 0.0
H363 H 0.26746 0.47355 0.13071 0.0
H364 H 0.26409 0.4882 0.19172 0.0
H365 H 0.20674 0.44753 0.2592 0.0
H366 H 0.24477 0.4987 0.432 0.0
H367 H 0.24674 0.48295 0.3714 0.0
H368 H 0.2136 0.52732 0.28084 0.0
C369 C 0.2431 0.4769 0.17911 0.0
C370 C 0.20824 0.46497 0.26364 0.0
C371 C 0.24507 0.46847 0.14428 0.0
C372 C 0.22663 0.5051 0.40825 0.0
C373 C 0.22765 0.49607 0.37366 0.0
C374 C 0.212 0.50988 0.27638 0.0
C375 C 0.21471 0.47047 0.19776 0.0
C376 C 0.21273 0.47915 0.23487 0.0
C377 C 0.2052 0.50444 0.34216 0.0
C378 C 0.20772 0.49569 0.30521 0.0
H379 H 0.16865 0.43621 0.13333 0.0
H380 H 0.16578 0.45057 0.1944 0.0
H381 H 0.21806 0.51297 0.2199 0.0
H382 H 0.16099 0.54377 0.38284 0.0
H383 H 0.16314 0.5282 0.32228 0.0
C384 C 0.74267 0.97224 0.89568 0.0
C385 C 0.71162 0.97437 0.91276 0.0
C386 C 0.74245 0.98043 0.86038 0.0
C387 C 0.69451 0.02003 0.79304 0.0
H388 H 0.74393 0.98834 0.72492 0.0
C389 C 0.68589 0.04611 0.6414 0.0
C390 C 0.71867 0.04546 0.62685 0.0
C391 C 0.68429 0.03708 0.67582 0.0
C392 C 0.7303 0.99749 0.74373 0.0
H393 H 0.65584 0.98658 0.90586 0.0
H394 H 0.65519 0.00069 0.84391 0.0
H395 H 0.74175 0.97303 0.78535 0.0
H396 H 0.77549 0.03471 0.63717 0.0
H397 H 0.77267 0.01897 0.69725 0.0
H398 H 0.68297 0.04445 0.75127 0.0
C399 C 0.67998 0.99298 0.85811 0.0
C400 C 0.72906 0.98872 0.77843 0.0
C401 C 0.68027 0.98485 0.89357 0.0
C402 C 0.74977 0.03545 0.64748 0.0
C403 C 0.74811 0.02632 0.68186 0.0
C404 C 0.69562 0.02875 0.75828 0.0
C405 C 0.71113 0.99092 0.84109 0.0
C406 C 0.71134 -7e-05 0.80365 0.0
C407 C 0.71537 0.02709 0.69649 0.0
C408 C 0.7137 0.01764 0.73327 0.0
H409 H 0.7676 0.96472 0.90992 0.0
H410 H 0.76721 0.97894 0.84855 0.0
H411 H 0.68114 0.02931 0.8119 0.0
H412 H 0.66139 0.05367 0.62627 0.0
H413 H 0.65854 0.03772 0.68609 0.0
C414 C 0.24391 0.03609 0.87482 0.0
C415 C 0.27482 0.04635 0.8954 0.0
C416 C 0.24569 0.02706 0.84041 0.0
C417 C 0.29775 0.03023 0.7638 0.0
H418 H 0.25296 0.9741 0.73678 0.0
C419 C 0.31331 0.98684 0.62815 0.0
C420 C 0.2821 0.97612 0.60912 0.0
C421 C 0.31365 0.99489 0.66366 0.0
C422 C 0.26528 0.9899 0.7437 0.0
H423 H 0.33189 0.0551 0.89587 0.0
H424 H 0.33494 0.03933 0.83597 0.0
H425 H 0.25074 0.9892 0.79734 0.0
H426 H 0.22639 0.96598 0.61227 0.0
H427 H 0.22685 0.98007 0.67372 0.0
H428 H 0.31189 0.03111 0.71004 0.0
C429 C 0.30925 0.03841 0.84632 0.0
C430 C 0.26402 0.99855 0.77845 0.0
C431 C 0.30754 0.04734 0.88078 0.0
C432 C 0.25122 0.9737 0.62638 0.0
C433 C 0.25148 0.98181 0.66172 0.0
C434 C 0.29889 0.02163 0.72897 0.0
C435 C 0.27835 0.02818 0.8257 0.0
C436 C 0.28013 0.01885 0.78889 0.0
C437 C 0.28267 0.99251 0.68087 0.0
C438 C 0.28252 0.00139 0.71839 0.0
H439 H 0.21824 0.03507 0.8852 0.0
H440 H 0.22127 0.01951 0.82505 0.0
H441 H 0.31003 0.04605 0.77081 0.0
H442 H 0.33761 0.9888 0.61572 0.0
H443 H 0.33833 0.00279 0.67775 0.0
C444 C 0.25128 0.02749 0.12644 0.0
C445 C 0.28214 0.02513 0.10913 0.0
C446 C 0.25158 0.01933 0.16176 0.0
C447 C 0.29906 0.97948 0.22885 0.0
H448 H 0.25098 0.01176 0.29736 0.0
C449 C 0.30806 0.95378 0.38073 0.0
C450 C 0.27539 0.95469 0.39542 0.0
C451 C 0.30967 0.96269 0.34623 0.0
C452 C 0.26423 0.00246 0.27844 0.0
H453 H 0.33762 0.0125 0.1156 0.0
H454 H 0.33842 0.99842 0.1776 0.0
H455 H 0.25311 0.02693 0.23683 0.0
H456 H 0.21874 0.96577 0.38528 0.0
H457 H 0.22158 0.98133 0.32506 0.0
H458 H 0.31028 0.95505 0.27065 0.0
C459 C 0.31373 0.00631 0.16357 0.0
C460 C 0.26545 0.01114 0.24369 0.0
C461 C 0.31335 0.01442 0.12809 0.0
C462 C 0.24438 0.96483 0.37485 0.0
C463 C 0.24606 0.97385 0.3404 0.0
C464 C 0.29798 0.97084 0.26368 0.0
C465 C 0.28278 0.00863 0.18084 0.0
C466 C 0.28267 0.9997 0.21833 0.0
C467 C 0.27869 0.97282 0.32564 0.0
C468 C 0.28037 0.98218 0.28881 0.0
H469 H 0.22644 0.03518 0.11238 0.0
H470 H 0.22697 0.02101 0.17379 0.0
H471 H 0.31204 0.97005 0.20989 0.0
H472 H 0.33248 0.9461 0.3958 0.0
H473 H 0.33534 0.96185 0.33583 0.0
C474 C 0.74257 0.02672 0.3957 0.0
C475 C 0.71179 0.0242 0.41309 0.0
C476 C 0.74228 0.01856 0.36037 0.0
C477 C 0.69512 0.97845 0.29346 0.0
H478 H 0.74256 0.01097 0.22466 0.0
C479 C 0.68603 0.95252 0.14168 0.0
C480 C 0.71862 0.95363 0.12686 0.0
C481 C 0.68439 0.96148 0.17614 0.0
C482 C 0.72949 0.0016 0.24367 0.0
H483 H 0.65644 0.01129 0.40673 0.0
H484 H 0.65568 0.99721 0.34476 0.0
H485 H 0.74046 0.02613 0.28521 0.0
H486 H 0.77506 0.96516 0.13672 0.0
H487 H 0.77216 0.98078 0.19686 0.0
H488 H 0.68405 0.95395 0.25176 0.0
C489 C 0.6803 0.00523 0.35872 0.0
C490 C 0.72829 0.01028 0.27842 0.0
C491 C 0.68066 0.01333 0.3942 0.0
C492 C 0.74948 0.96405 0.14724 0.0
C493 C 0.74777 0.97311 0.18165 0.0
C494 C 0.69618 0.96981 0.25864 0.0
C495 C 0.71117 0.0077 0.34138 0.0
C496 C 0.71129 0.99876 0.30388 0.0
C497 C 0.71524 0.97186 0.19657 0.0
C498 C 0.71355 0.98123 0.23339 0.0
H499 H 0.76734 0.03454 0.40968 0.0
H500 H 0.76683 0.02037 0.34827 0.0
H501 H 0.68231 0.96895 0.31251 0.0
H502 H 0.66172 0.94463 0.12675 0.0
H503 H 0.65879 0.96046 0.18664 0.0
C504 C 0.37109 0.46301 0.97742 0.0
C505 C 0.35358 0.46529 1.00806 0.0
C506 C 0.40531 0.4725 0.97718 0.0
C507 C 0.48722 0.48927 0.04086 0.0
H508 H 0.51582 0.51518 0.95426 0.0
C509 C 0.6237 0.5345 0.04287 0.0
C510 C 0.64182 0.53221 0.01266 0.0
C511 C 0.58951 0.52489 0.0426 0.0
C512 C 0.50835 0.50766 0.97845 0.0
H513 H 0.35705 0.48016 0.06172 0.0
H514 H 0.41713 0.49701 0.06122 0.0
H515 H 0.45214 0.50395 0.95278 0.0
H516 H 0.63931 0.5174 0.95909 0.0
H517 H 0.57914 0.50035 0.95865 0.0
H518 H 0.54339 0.49299 0.06654 0.0
C519 C 0.40445 0.48763 0.03758 0.0
C520 C 0.47188 0.50139 0.9777 0.0
C521 C 0.36998 0.4782 0.03774 0.0
C522 C 0.62593 0.5193 0.98278 0.0
C523 C 0.59143 0.50976 0.9824 0.0
C524 C 0.52367 0.49554 0.04161 0.0
C525 C 0.42278 0.48442 1.00764 0.0
C526 C 0.46095 0.49216 1.00892 0.0
C527 C 0.57261 0.51286 0.01203 0.0
C528 C 0.53457 0.50484 1.01045 0.0
H529 H 0.35892 0.45324 0.95406 0.0
H530 H 0.41882 0.46962 0.95383 0.0
H531 H 0.47977 0.48177 0.06508 0.0
H532 H 0.63542 0.54432 0.06634 0.0
H533 H 0.57559 0.52773 0.06568 0.0
C534 C 0.61848 0.46025 0.54164 0.0
C535 C 0.63751 0.4635 0.5123 0.0
C536 C 0.58433 0.46985 0.54135 0.0
C537 C 0.52197 0.51278 0.49898 0.0
H538 H 0.44661 0.47483 0.52579 0.0
C539 C 0.37102 0.53859 0.47743 0.0
C540 C 0.35232 0.53518 0.50697 0.0
C541 C 0.40502 0.5289 0.47715 0.0
C542 C 0.46744 0.48566 0.51857 0.0
H543 H 0.63667 0.48004 0.46036 0.0
H544 H 0.57644 0.49688 0.45972 0.0
H545 H 0.50884 0.46101 0.52778 0.0
H546 H 0.35361 0.51833 0.55869 0.0
H547 H 0.41354 0.50137 0.55836 0.0
H548 H 0.48059 0.53745 0.48984 0.0
C549 C 0.58817 0.48697 0.48304 0.0
C550 C 0.50304 0.47778 0.51973 0.0
C551 C 0.62258 0.47737 0.48339 0.0
C552 C 0.36742 0.5211 0.5355 0.0
C553 C 0.40166 0.51144 0.53529 0.0
C554 C 0.48637 0.52066 0.49783 0.0
C555 C 0.5684 0.48285 0.51164 0.0
C556 C 0.53067 0.49129 0.51006 0.0
C557 C 0.42113 0.51569 0.5065 0.0
C558 C 0.45876 0.50717 0.50759 0.0
H559 H 0.62958 0.44983 0.56453 0.0
H560 H 0.5701 0.46682 0.56417 0.0
H561 H 0.54282 0.52361 0.4918 0.0
H562 H 0.3598 0.54919 0.45485 0.0
H563 H 0.41901 0.53206 0.45421 0.0
C564 C 0.12371 0.02278 0.98391 0.0
C565 C 0.13892 0.03647 0.013 0.0
C566 C 0.08963 0.01283 0.98395 0.0
C567 C 0.02235 0.99871 0.04369 0.0
H568 H 0.95128 0.00311 0.95361 0.0
C569 C 0.86965 0.97732 0.0386 0.0
C570 C 0.85463 0.96354 1.00956 0.0
C571 C 0.90363 0.98739 0.03855 0.0
C572 C 0.97091 0.00166 0.97889 0.0
H573 H 0.13158 0.04961 0.06575 0.0
H574 H 0.07234 0.03237 0.06574 0.0
H575 H 0.01399 0.01609 0.95496 0.0
H576 H 0.86215 0.9504 0.95686 0.0
H577 H 0.92121 0.96787 0.95686 0.0
H578 H 0.97928 0.98428 0.06762 0.0
C579 C 0.08656 0.02923 0.04297 0.0
C580 C 0.00683 0.00895 0.9796 0.0
C581 C 0.12041 0.03922 0.04285 0.0
C582 C 0.87318 0.96085 0.97973 0.0
C583 C 0.90692 0.97097 0.9796 0.0
C584 C 0.98643 0.99142 0.04299 0.0
C585 C 0.07045 0.01631 0.0132 0.0
C586 C 0.0329 0.00755 0.012 0.0
C587 C 0.92288 0.98396 1.00934 0.0
C588 C 0.96037 0.99281 1.01057 0.0
H589 H 0.13741 0.02042 0.96053 0.0
H590 H 0.078 0.0027 0.96085 0.0
H591 H 0.04198 0.99725 0.06897 0.0
H592 H 0.85591 0.97963 0.06196 0.0
H593 H 0.91514 0.99757 0.06163 0.0
C594 C 0.87008 0.02285 0.53808 0.0
C595 C 0.85502 0.03687 0.50942 0.0
C596 C 0.90426 0.01307 0.53794 0.0
C597 C 0.98905 0.02163 0.50024 0.0
H598 H 0.0103 0.96178 0.5298 0.0
C599 C 0.12385 0.97739 0.48409 0.0
C600 C 0.1389 0.96338 0.51276 0.0
C601 C 0.08967 0.98717 0.4842 0.0
C602 C 0.00486 0.97861 0.52188 0.0
H603 H 0.86265 0.05069 0.4572 0.0
H604 H 0.92179 0.03343 0.45676 0.0
H605 H 0.94847 0.97614 0.52833 0.0
H606 H 0.13126 0.94957 0.56499 0.0
H607 H 0.07211 0.96683 0.56539 0.0
H608 H 0.04544 0.02411 0.49379 0.0
C609 C 0.90778 0.03039 0.47973 0.0
C610 C 0.96948 0.98679 0.52102 0.0
C611 C 0.87381 0.04016 0.4799 0.0
C612 C 0.12011 0.9601 0.54227 0.0
C613 C 0.08613 0.96987 0.54243 0.0
C614 C 0.02443 0.01345 0.5011 0.0
C615 C 0.92376 0.01716 0.50912 0.0
C616 C 0.96122 0.00837 0.51013 0.0
C617 C 0.07016 0.98308 0.51302 0.0
C618 C 0.03269 0.99187 0.51199 0.0
H619 H 0.85621 0.02012 0.56124 0.0
H620 H 0.91603 0.003 0.56104 0.0
H621 H 0.98361 0.03846 0.49232 0.0
H622 H 0.13773 0.98012 0.46093 0.0
H623 H 0.0779 0.99723 0.46109 0.0
C624 C 0.20321 0.3266 0.04272 0.0
C625 C 0.21576 0.34114 0.01818 0.0
C626 C 0.20957 0.30421 0.04038 0.0
C627 C 0.23575 0.26145 0.97889 0.0
H628 H 0.27253 0.2313 0.06995 0.0
C629 C 0.29361 0.17406 0.9804 0.0
C630 C 0.28068 0.15961 1.00483 0.0
C631 C 0.28775 0.19651 0.98283 0.0
C632 C 0.26208 0.23946 0.0443 0.0
H633 H 0.24478 0.34335 0.97186 0.0
H634 H 0.2552 0.30461 0.9676 0.0
H635 H 0.25435 0.26942 0.07155 0.0
H636 H 0.25155 0.15763 0.05111 0.0
H637 H 0.24202 0.19644 0.05555 0.0
H638 H 0.24345 0.23148 0.95165 0.0
C639 C 0.23997 0.31039 0.98826 0.0
C640 C 0.25147 0.26125 0.04524 0.0
C641 C 0.23376 0.33268 0.99063 0.0
C642 C 0.26287 0.16822 0.03242 0.0
C643 C 0.25716 0.19055 0.03489 0.0
C644 C 0.24637 0.23965 0.97795 0.0
C645 C 0.22855 0.29593 0.01346 0.0
C646 C 0.23817 0.27249 0.01255 0.0
C647 C 0.2689 0.20492 1.00975 0.0
C648 C 0.2596 0.22841 1.01065 0.0
H649 H 0.18909 0.33256 0.0641 0.0
H650 H 0.19999 0.2934 0.0599 0.0
H651 H 0.22527 0.2696 0.95325 0.0
H652 H 0.30761 0.168 0.959 0.0
H653 H 0.29755 0.20725 0.96336 0.0
C654 C 0.75302 0.33257 0.52995 0.0
C655 C 0.77476 0.34119 0.50557 0.0
C656 C 0.74643 0.31028 0.53127 0.0
C657 C 0.77879 0.25651 0.50598 0.0
H658 H 0.6796 0.2387 0.51431 0.0
C659 C 0.73283 0.16723 0.49002 0.0
C660 C 0.71326 0.15884 0.51642 0.0
C661 C 0.73882 0.18954 0.4875 0.0
C662 C 0.70747 0.24343 0.51231 0.0
H663 H 0.80718 0.33284 0.46391 0.0
H664 H 0.79504 0.29369 0.46575 0.0
H665 H 0.69444 0.27734 0.51226 0.0
H666 H 0.68373 0.16749 0.5602 0.0
H667 H 0.69437 0.20673 0.55587 0.0
H668 H 0.79171 0.22255 0.50585 0.0
C669 C 0.78352 0.30434 0.48419 0.0
C670 C 0.71604 0.26555 0.51117 0.0
C671 C 0.79029 0.32677 0.48295 0.0
C672 C 0.6989 0.17344 0.53961 0.0
C673 C 0.70485 0.19588 0.53699 0.0
C674 C 0.77018 0.23438 0.50698 0.0
C675 C 0.761 0.29592 0.50799 0.0
C676 C 0.75185 0.27236 0.5082 0.0
C677 C 0.72553 0.20408 0.51137 0.0
C678 C 0.73444 0.22761 0.51022 0.0
H679 H 0.73978 0.3431 0.54722 0.0
H680 H 0.72949 0.30432 0.55035 0.0
H681 H 0.80673 0.2612 0.50418 0.0
H682 H 0.745 0.1565 0.47219 0.0
H683 H 0.75442 0.19539 0.46716 0.0
C684 C 0.73204 0.83132 0.99147 0.0
C685 C 0.71321 0.84012 0.01811 0.0
C686 C 0.73738 0.80893 0.98927 0.0
C687 C 0.74365 0.75956 0.04592 0.0
H688 H 0.73996 0.73013 0.95249 0.0
C689 C 0.75318 0.6664 0.03239 0.0
C690 C 0.77355 0.65785 1.00679 0.0
C691 C 0.74731 0.68874 0.03454 0.0
C692 C 0.74159 0.7382 0.97877 0.0
H693 H 0.68422 0.83209 0.06262 0.0
H694 H 0.69339 0.79274 0.05862 0.0
H695 H 0.72299 0.76848 0.95359 0.0
H696 H 0.80453 0.66633 0.96398 0.0
H697 H 0.79403 0.70557 0.96764 0.0
H698 H 0.76209 0.72922 0.07107 0.0
C699 C 0.70436 0.80334 0.03971 0.0
C700 C 0.73171 0.76013 0.97943 0.0
C701 C 0.69897 0.82585 0.04192 0.0
C702 C 0.78855 0.67234 0.98384 0.0
C703 C 0.78247 0.69478 0.98587 0.0
C704 C 0.75343 0.73761 0.04526 0.0
C705 C 0.72414 0.79469 0.01371 0.0
C706 C 0.73271 0.77108 0.01301 0.0
C707 C 0.76139 0.70316 1.01097 0.0
C708 C 0.75255 0.7267 0.01168 0.0
H709 H 0.74433 0.84178 0.97332 0.0
H710 H 0.7533 0.80288 0.96937 0.0
H711 H 0.7454 0.76761 0.07223 0.0
H712 H 0.74025 0.65579 0.04982 0.0
H713 H 0.73043 0.69463 0.05372 0.0
C714 C 0.29723 0.82731 0.48249 0.0
C715 C 0.28308 0.84172 0.5061 0.0
C716 C 0.2918 0.80483 0.48509 0.0
C717 C 0.26413 0.76193 0.54585 0.0
H718 H 0.23318 0.7309 0.4544 0.0
C719 C 0.20657 0.67406 0.54127 0.0
C720 C 0.22145 0.65965 0.51815 0.0
C721 C 0.21291 0.69651 0.53953 0.0
C722 C 0.24199 0.73932 0.48016 0.0
H723 H 0.25218 0.84367 0.55103 0.0
H724 H 0.24314 0.80481 0.55564 0.0
H725 H 0.25021 0.76923 0.453 0.0
H726 H 0.25514 0.6577 0.47541 0.0
H727 H 0.26534 0.69651 0.47201 0.0
H728 H 0.25567 0.73199 0.57297 0.0
C729 C 0.25901 0.81073 0.5356 0.0
C730 C 0.25198 0.76124 0.47936 0.0
C731 C 0.26439 0.83309 0.53301 0.0
C732 C 0.24219 0.66826 0.49289 0.0
C733 C 0.2483 0.69058 0.49102 0.0
C734 C 0.25403 0.74002 0.54664 0.0
C735 C 0.27205 0.79635 0.51129 0.0
C736 C 0.26319 0.77279 0.51219 0.0
C737 C 0.23413 0.70494 0.51456 0.0
C738 C 0.24293 0.72848 0.5138 0.0
H739 H 0.31188 0.83343 0.4616 0.0
H740 H 0.30264 0.79411 0.46628 0.0
H741 H 0.27301 0.77031 0.57163 0.0
H742 H 0.19038 0.66799 0.56092 0.0
H743 H 0.20135 0.70726 0.55779 0.0
C744 C 0.60192 0.42809 0.36982 0.0
C745 C 0.61594 0.40792 0.38385 0.0
C746 C 0.57269 0.429 0.34018 0.0
C747 C 0.49575 0.39562 0.2919 0.0
H748 H 0.49423 0.43766 0.21338 0.0
C749 C 0.39328 0.38935 0.15595 0.0
C750 C 0.37758 0.40864 0.13981 0.0
C751 C 0.42142 0.3901 0.18647 0.0
C752 C 0.494 0.42601 0.23534 0.0
H753 H 0.61106 0.37293 0.37669 0.0
H754 H 0.56033 0.37448 0.32513 0.0
H755 H 0.54568 0.43744 0.26469 0.0
H756 H 0.37934 0.4439 0.14326 0.0
H757 H 0.42818 0.44521 0.19694 0.0
H758 H 0.44426 0.3841 0.26257 0.0
C759 C 0.57136 0.38962 0.3375 0.0
C760 C 0.52351 0.42587 0.26474 0.0
C761 C 0.60051 0.38872 0.36706 0.0
C762 C 0.39053 0.42873 0.1552 0.0
C763 C 0.41883 0.42949 0.18572 0.0
C764 C 0.4663 0.39576 0.26257 0.0
C765 C 0.5568 0.40975 0.32391 0.0
C766 C 0.52492 0.41052 0.29319 0.0
C767 C 0.43468 0.41017 0.20167 0.0
C768 C 0.46521 0.4108 0.23373 0.0
H769 H 0.61281 0.44319 0.38234 0.0
H770 H 0.56192 0.44477 0.33063 0.0
H771 H 0.49554 0.38388 0.31374 0.0
H772 H 0.38374 0.37361 0.14504 0.0
H773 H 0.43325 0.37491 0.19778 0.0
C774 C 0.39245 0.60669 0.65781 0.0
C775 C 0.37665 0.58781 0.64021 0.0
C776 C 0.42058 0.60524 0.68826 0.0
C777 C 0.49339 0.56864 0.73451 0.0
H778 H 0.49515 0.60919 0.81518 0.0
C779 C 0.60398 0.56635 0.86789 0.0
C780 C 0.61703 0.58663 0.88241 0.0
C781 C 0.57447 0.56521 0.83845 0.0
C782 C 0.49531 0.59788 0.79273 0.0
H783 H 0.37815 0.5525 0.64105 0.0
H784 H 0.42714 0.54994 0.69463 0.0
H785 H 0.44333 0.60937 0.76465 0.0
H786 H 0.61045 0.62157 0.87605 0.0
H787 H 0.55941 0.61963 0.82494 0.0
H788 H 0.54567 0.55729 0.76266 0.0
C789 C 0.41782 0.56591 0.6846 0.0
C790 C 0.46553 0.59797 0.76375 0.0
C791 C 0.38946 0.56737 0.65414 0.0
C792 C 0.60061 0.60569 0.8661 0.0
C793 C 0.57125 0.60456 0.83679 0.0
C794 C 0.52328 0.56855 0.7636 0.0
C795 C 0.43377 0.58485 0.70198 0.0
C796 C 0.46439 0.58358 0.73399 0.0
C797 C 0.55738 0.58433 0.82292 0.0
C798 C 0.52486 0.58341 0.79281 0.0
H799 H 0.38302 0.62267 0.64808 0.0
H800 H 0.43247 0.62017 0.70065 0.0
H801 H 0.49356 0.55746 0.71188 0.0
H802 H 0.61576 0.55135 0.88001 0.0
H803 H 0.56435 0.54935 0.82858 0.0
C804 C 0.10256 0.92642 0.36896 0.0
C805 C 0.11654 0.90639 0.3837 0.0
C806 C 0.07321 0.92703 0.33942 0.0
C807 C 0.99602 0.89336 0.29218 0.0
H808 H 0.99459 0.93481 0.21281 0.0
C809 C 0.89248 0.88696 0.1567 0.0
C810 C 0.87711 0.90629 0.14039 0.0
C811 C 0.9208 0.88764 0.18709 0.0
C812 C 0.99433 0.92332 0.235 0.0
H813 H 0.11134 0.87133 0.37799 0.0
H814 H 0.06042 0.87238 0.32653 0.0
H815 H 0.04618 0.93474 0.26392 0.0
H816 H 0.87966 0.94155 0.14346 0.0
H817 H 0.92876 0.94275 0.19687 0.0
H818 H 0.94433 0.88186 0.26324 0.0
C819 C 0.07159 0.88764 0.33827 0.0
C820 C 0.02393 0.92327 0.2643 0.0
C821 C 0.10086 0.88702 0.36777 0.0
C822 C 0.89057 0.92635 0.15551 0.0
C823 C 0.91903 0.92704 0.18589 0.0
C824 C 0.96648 0.89341 0.26292 0.0
C825 C 0.05716 0.90764 0.3239 0.0
C826 C 0.02528 0.90816 0.29312 0.0
C827 C 0.93458 0.90768 0.20197 0.0
C828 C 0.96537 0.90827 0.23382 0.0
H829 H 0.11359 0.94165 0.38083 0.0
H830 H 0.06253 0.94272 0.32931 0.0
H831 H 0.99577 0.8818 0.31427 0.0
H832 H 0.88255 0.87124 0.14602 0.0
H833 H 0.93237 0.87242 0.19852 0.0
C834 C 0.10081 0.11323 0.86653 0.0
C835 C 0.11622 0.09386 0.88265 0.0
C836 C 0.07244 0.11261 0.83618 0.0
C837 C -0.00105 0.077 0.78799 0.0
H838 H -0.00237 0.11864 0.7089 0.0
C839 C 0.89122 0.07389 0.65369 0.0
C840 C 0.87725 0.0939 0.63888 0.0
C841 C 0.92043 0.0733 0.68337 0.0
C842 C -0.00266 0.10705 0.73094 0.0
H843 H 0.11368 0.0586 0.87931 0.0
H844 H 0.0645 0.05753 0.82597 0.0
H845 H 0.04895 0.11857 0.76006 0.0
H846 H 0.88231 0.12896 0.64461 0.0
H847 H 0.93299 0.12796 0.69631 0.0
H848 H 0.94719 0.06557 0.75888 0.0
C849 C 0.07423 0.07321 0.83707 0.0
C850 C 0.02681 0.107 0.76027 0.0
C851 C 0.10274 0.07383 0.8674 0.0
C852 C 0.8928 0.11328 0.65488 0.0
C853 C 0.92192 0.1127 0.68452 0.0
C854 C 0.96941 0.07707 0.75862 0.0
C855 C 0.05866 0.09261 0.82115 0.0
C856 C 0.02788 0.09208 0.78929 0.0
C857 C 0.93635 0.09271 0.69895 0.0
C858 C 0.96811 0.09221 0.72986 0.0
H859 H 0.11075 0.12892 0.87732 0.0
H860 H 0.06085 0.12786 0.82488 0.0
H861 H -0.00133 0.06547 0.81011 0.0
H862 H 0.88028 0.05865 0.64177 0.0
H863 H 0.93111 0.05762 0.69352 0.0
loop_
_geom_bond_atom_site_label_1
_geom_bond_atom_site_label_2
_geom_bond_distance
_geom_bond_site_symmetry_2
_ccdc_geom_bond_type
C0 C1 1.351 . S
C0 N3 1.368 . S
C0 H5 0.931 . S
C1 C0 1.351 . S
C1 N2 1.373 . S
C1 H29 0.930 . S
N2 C1 1.373 . S
N2 C4 1.340 . S
N3 C0 1.368 . S
N3 C4 1.321 . S
N3 Co6 2.135 . S
C4 N2 1.340 . S
C4 N3 1.321 . S
C4 H28 0.930 . S
H5 C0 0.931 . S
Co6 N3 2.135 . S
Co6 N9 2.121 . S
Co6 O14 2.055 . S
Co6 O17 2.039 . S
Co6 N20 2.140 . S
C7 O8 1.227 . S
C7 O17 1.265 . S
O8 C7 1.227 . S
N9 Co6 2.121 . S
N9 C11 1.375 . S
N9 C12 1.313 1_554 S
C10 C11 1.338 1_556 S
C10 N13 1.377 . S
C10 H30 0.930 . S
C11 N9 1.375 . S
C11 C10 1.338 1_554 S
C11 H15 0.931 . S
C12 N9 1.313 1_556 S
C12 N13 1.344 . S
C12 H16 0.930 . S
N13 C10 1.377 . S
N13 C12 1.344 . S
O14 Co6 2.055 . S
O14 C18 1.253 . S
H15 C11 0.931 . S
H16 C12 0.930 . S
O17 Co6 2.039 . S
O17 C7 1.265 . S
C18 O14 1.253 . S
C18 O19 1.223 1_554 S
O19 C18 1.223 1_556 S
N20 Co6 2.140 . S
N20 C23 1.346 . S
N20 C24 1.345 . S
C21 C22 1.387 . S
C21 C25 1.391 1_554 S
C22 C21 1.387 . S
C22 C23 1.369 . S
C22 H31 0.929 . S
C23 N20 1.346 . S
C23 C22 1.369 . S
C23 H26 0.928 . S
C24 N20 1.345 . S
C24 C25 1.371 1_554 S
C24 H27 0.931 1_554 S
C25 C21 1.391 1_556 S
C25 C24 1.371 1_556 S
C25 H32 0.930 . S
H26 C23 0.928 . S
H27 C24 0.931 1_556 S
H28 C4 0.930 . S
H29 C1 0.930 . S
H30 C10 0.930 . S
H31 C22 0.929 . S
H32 C25 0.930 . S
C33 C34 1.351 . S
C33 N36 1.368 . S
C33 H38 0.931 . S
C34 C33 1.351 . S
C34 N35 1.373 . S
C34 H62 0.930 . S
N35 C34 1.373 . S
N35 C37 1.340 . S
N36 C33 1.368 . S
N36 C37 1.321 . S
N36 Co39 2.135 . S
C37 N35 1.340 . S
C37 N36 1.321 . S
C37 H61 0.930 . S
H38 C33 0.931 . S
Co39 N36 2.135 . S
Co39 N42 2.121 . S
Co39 O47 2.055 . S
Co39 O50 2.039 . S
Co39 N53 2.140 . S
C40 O41 1.227 . S
C40 O50 1.265 . S
O41 C40 1.227 . S
N42 Co39 2.121 . S
N42 C44 1.375 . S
N42 C45 1.313 . S
C43 C44 1.338 . S
C43 N46 1.377 . S
C43 H63 0.930 . S
C44 N42 1.375 . S
C44 C43 1.338 . S
C44 H48 0.931 . S
C45 N42 1.313 . S
C45 N46 1.344 . S
C45 H49 0.930 . S
N46 C43 1.377 . S
N46 C45 1.344 . S
O47 Co39 2.055 . S
O47 C51 1.253 . S
H48 C44 0.931 . S
H49 C45 0.930 . S
O50 Co39 2.039 . S
O50 C40 1.265 . S
C51 O47 1.253 . S
C51 O52 1.227 . S
O52 C51 1.227 . S
N53 Co39 2.140 . S
N53 C56 1.346 . S
N53 C57 1.345 . S
C54 C55 1.387 . S
C54 C58 1.391 . S
C55 C54 1.387 . S
C55 C56 1.369 . S
C55 H64 0.929 . S
C56 N53 1.346 . S
C56 C55 1.369 . S
C56 H59 0.928 . S
C57 N53 1.345 . S
C57 C58 1.371 . S
C57 H60 0.931 . S
C58 C54 1.391 . S
C58 C57 1.371 . S
C58 H65 0.930 . S
H59 C56 0.928 . S
H60 C57 0.931 . S
H61 C37 0.930 . S
H62 C34 0.930 . S
H63 C43 0.930 . S
H64 C55 0.929 . S
H65 C58 0.930 . S
C66 C67 1.351 . S
C66 N69 1.368 . S
C66 H71 0.931 . S
C67 C66 1.351 . S
C67 N68 1.373 . S
C67 H95 0.930 . S
N68 C67 1.373 . S
N68 C70 1.340 . S
N69 C66 1.368 . S
N69 C70 1.321 . S
N69 Co72 2.135 . S
C70 N68 1.340 . S
C70 N69 1.321 . S
C70 H94 0.930 . S
H71 C66 0.931 . S
Co72 N69 2.135 . S
Co72 N75 2.121 . S
Co72 O80 2.055 . S
Co72 O83 2.039 . S
Co72 N86 2.140 . S
C73 O74 1.227 . S
C73 O83 1.265 . S
O74 C73 1.227 . S
N75 Co72 2.121 . S
N75 C77 1.375 . S
N75 C78 1.313 1_556 S
C76 C77 1.338 1_554 S
C76 N79 1.377 . S
C76 H96 0.930 . S
C77 N75 1.375 . S
C77 C76 1.338 1_556 S
C77 H81 0.931 . S
C78 N75 1.313 1_554 S
C78 N79 1.344 . S
C78 H82 0.930 . S
N79 C76 1.377 . S
N79 C78 1.344 . S
O80 Co72 2.055 . S
O80 C84 1.253 . S
H81 C77 0.931 . S
H82 C78 0.930 . S
O83 Co72 2.039 . S
O83 C73 1.265 . S
C84 O80 1.253 . S
C84 O85 1.223 1_556 S
O85 C84 1.223 1_554 S
N86 Co72 2.140 . S
N86 C89 1.346 . S
N86 C90 1.345 . S
C87 C88 1.387 . S
C87 C91 1.391 1_556 S
C88 C87 1.387 . S
C88 C89 1.369 . S
C88 H97 0.929 . S
C89 N86 1.346 . S
C89 C88 1.369 . S
C89 H92 0.928 . S
C90 N86 1.345 . S
C90 C91 1.371 1_556 S
C90 H93 0.931 1_556 S
C91 C87 1.391 1_554 S
C91 C90 1.371 1_554 S
C91 H98 0.930 . S
H92 C89 0.928 . S
H93 C90 0.931 1_554 S
H94 C70 0.930 . S
H95 C67 0.930 . S
H96 C76 0.930 . S
H97 C88 0.929 . S
H98 C91 0.930 . S
C99 C100 1.351 . S
C99 N102 1.368 . S
C99 H104 0.931 . S
C100 C99 1.351 . S
C100 N101 1.373 . S
C100 H128 0.930 . S
N101 C100 1.373 . S
N101 C103 1.340 . S
N102 C99 1.368 . S
N102 C103 1.321 . S
N102 Co105 2.135 . S
C103 N101 1.340 . S
C103 N102 1.321 . S
C103 H127 0.930 . S
H104 C99 0.931 . S
Co105 N102 2.135 . S
Co105 N108 2.121 . S
Co105 O113 2.055 . S
Co105 O116 2.039 . S
Co105 N119 2.140 . S
C106 O107 1.227 . S
C106 O116 1.265 . S
O107 C106 1.227 . S
N108 Co105 2.121 . S
N108 C110 1.375 . S
N108 C111 1.313 . S
C109 C110 1.338 . S
C109 N112 1.377 . S
C109 H129 0.930 . S
C110 N108 1.375 . S
C110 C109 1.338 . S
C110 H114 0.931 . S
C111 N108 1.313 . S
C111 N112 1.344 . S
C111 H115 0.930 . S
N112 C109 1.377 . S
N112 C111 1.344 . S
O113 Co105 2.055 . S
O113 C117 1.253 . S
H114 C110 0.931 . S
H115 C111 0.930 . S
O116 Co105 2.039 . S
O116 C106 1.265 . S
C117 O113 1.253 . S
C117 O118 1.227 . S
O118 C117 1.227 . S
N119 Co105 2.140 . S
N119 C122 1.346 . S
N119 C123 1.345 . S
C120 C121 1.387 . S
C120 C124 1.391 . S
C121 C120 1.387 . S
C121 C122 1.369 . S
C121 H130 0.929 . S
C122 N119 1.346 . S
C122 C121 1.369 . S
C122 H125 0.928 . S
C123 N119 1.345 . S
C123 C124 1.371 . S
C123 H126 0.931 . S
C124 C120 1.391 . S
C124 C123 1.371 . S
C124 H131 0.930 . S
H125 C122 0.928 . S
H126 C123 0.931 . S
H127 C103 0.930 . S
H128 C100 0.930 . S
H129 C109 0.930 . S
H130 C121 0.929 . S
H131 C124 0.930 . S
C132 C133 1.351 . S
C132 N135 1.368 . S
C132 H137 0.931 . S
C133 C132 1.351 . S
C133 N134 1.373 . S
C133 H161 0.930 . S
N134 C133 1.373 . S
N134 C136 1.340 . S
N135 C132 1.368 . S
N135 C136 1.321 . S
N135 Co138 2.135 . S
C136 N134 1.340 . S
C136 N135 1.321 . S
C136 H160 0.930 . S
H137 C132 0.931 . S
Co138 N135 2.135 . S
Co138 N141 2.121 . S
Co138 O146 2.055 . S
Co138 O149 2.039 . S
Co138 N152 2.140 . S
C139 O140 1.227 . S
C139 O149 1.265 . S
O140 C139 1.227 . S
N141 Co138 2.121 . S
N141 C143 1.375 . S
N141 C144 1.313 1_554 S
C142 C143 1.338 1_556 S
C142 N145 1.377 . S
C142 H162 0.930 . S
C143 N141 1.375 . S
C143 C142 1.338 1_554 S
C143 H147 0.931 . S
C144 N141 1.313 1_556 S
C144 N145 1.344 . S
C144 H148 0.930 . S
N145 C142 1.377 . S
N145 C144 1.344 . S
O146 Co138 2.055 . S
O146 C150 1.253 . S
H147 C143 0.931 . S
H148 C144 0.930 . S
O149 Co138 2.039 . S
O149 C139 1.265 . S
C150 O146 1.253 . S
C150 O151 1.223 1_554 S
O151 C150 1.223 1_556 S
N152 Co138 2.140 . S
N152 C155 1.346 . S
N152 C156 1.345 . S
C153 C154 1.387 . S
C153 C157 1.391 1_554 S
C154 C153 1.387 . S
C154 C155 1.369 . S
C154 H163 0.929 . S
C155 N152 1.346 . S
C155 C154 1.369 . S
C155 H158 0.928 . S
C156 N152 1.345 . S
C156 C157 1.371 1_554 S
C156 H159 0.931 1_554 S
C157 C153 1.391 1_556 S
C157 C156 1.371 1_556 S
C157 H164 0.930 . S
H158 C155 0.928 . S
H159 C156 0.931 1_556 S
H160 C136 0.930 . S
H161 C133 0.930 . S
H162 C142 0.930 . S
H163 C154 0.929 . S
H164 C157 0.930 . S
C165 C166 1.351 . S
C165 N168 1.368 . S
C165 H170 0.931 . S
C166 C165 1.351 . S
C166 N167 1.373 . S
C166 H194 0.930 . S
N167 C166 1.373 . S
N167 C169 1.340 . S
N168 C165 1.368 . S
N168 C169 1.321 . S
N168 Co171 2.135 . S
C169 N167 1.340 . S
C169 N168 1.321 . S
C169 H193 0.930 . S
H170 C165 0.931 . S
Co171 N168 2.135 . S
Co171 N174 2.121 . S
Co171 O179 2.055 . S
Co171 O182 2.039 . S
Co171 N185 2.140 . S
C172 O173 1.227 . S
C172 O182 1.265 . S
O173 C172 1.227 . S
N174 Co171 2.121 . S
N174 C176 1.375 . S
N174 C177 1.313 . S
C175 C176 1.338 . S
C175 N178 1.377 . S
C175 H195 0.930 . S
C176 N174 1.375 . S
C176 C175 1.338 . S
C176 H180 0.931 . S
C177 N174 1.313 . S
C177 N178 1.344 . S
C177 H181 0.930 . S
N178 C175 1.377 . S
N178 C177 1.344 . S
O179 Co171 2.055 . S
O179 C183 1.253 . S
H180 C176 0.931 . S
H181 C177 0.930 . S
O182 Co171 2.039 . S
O182 C172 1.265 . S
C183 O179 1.253 . S
C183 O184 1.227 . S
O184 C183 1.227 . S
N185 Co171 2.140 . S
N185 C188 1.346 . S
N185 C189 1.345 . S
C186 C187 1.387 . S
C186 C190 1.391 . S
C187 C186 1.387 . S
C187 C188 1.369 . S
C187 H196 0.929 . S
C188 N185 1.346 . S
C188 C187 1.369 . S
C188 H191 0.928 . S
C189 N185 1.345 . S
C189 C190 1.371 . S
C189 H192 0.931 . S
C190 C186 1.391 . S
C190 C189 1.371 . S
C190 H197 0.930 . S
H191 C188 0.928 . S
H192 C189 0.931 . S
H193 C169 0.930 . S
H194 C166 0.930 . S
H195 C175 0.930 . S
H196 C187 0.929 . S
H197 C190 0.930 . S
C198 C199 1.351 . S
C198 N201 1.368 . S
C198 H203 0.931 . S
C199 C198 1.351 . S
C199 N200 1.373 . S
C199 H227 0.930 . S
N200 C199 1.373 . S
N200 C202 1.340 . S
N201 C198 1.368 . S
N201 C202 1.321 . S
N201 Co204 2.135 . S
C202 N200 1.340 . S
C202 N201 1.321 . S
C202 H226 0.930 . S
H203 C198 0.931 . S
Co204 N201 2.135 . S
Co204 N207 2.121 . S
Co204 O212 2.055 . S
Co204 O215 2.039 . S
Co204 N218 2.140 . S
C205 O206 1.227 . S
C205 O215 1.265 . S
O206 C205 1.227 . S
N207 Co204 2.121 . S
N207 C209 1.375 . S
N207 C210 1.313 1_556 S
C208 C209 1.338 1_554 S
C208 N211 1.377 . S
C208 H228 0.930 . S
C209 N207 1.375 . S
C209 C208 1.338 1_556 S
C209 H213 0.931 . S
C210 N207 1.313 1_554 S
C210 N211 1.344 . S
C210 H214 0.930 . S
N211 C208 1.377 . S
N211 C210 1.344 . S
O212 Co204 2.055 . S
O212 C216 1.253 . S
H213 C209 0.931 . S
H214 C210 0.930 . S
O215 Co204 2.039 . S
O215 C205 1.265 . S
C216 O212 1.253 . S
C216 O217 1.223 1_556 S
O217 C216 1.223 1_554 S
N218 Co204 2.140 . S
N218 C221 1.346 . S
N218 C222 1.345 . S
C219 C220 1.387 . S
C219 C223 1.391 1_556 S
C220 C219 1.387 . S
C220 C221 1.369 . S
C220 H229 0.929 . S
C221 N218 1.346 . S
C221 C220 1.369 . S
C221 H224 0.928 . S
C222 N218 1.345 . S
C222 C223 1.371 1_556 S
C222 H225 0.931 1_556 S
C223 C219 1.391 1_554 S
C223 C222 1.371 1_554 S
C223 H230 0.930 . S
H224 C221 0.928 . S
H225 C222 0.931 1_554 S
H226 C202 0.930 . S
H227 C199 0.930 . S
H228 C208 0.930 . S
H229 C220 0.929 . S
H230 C223 0.930 . S
C231 C232 1.351 . S
C231 N234 1.368 . S
C231 H236 0.931 . S
C232 C231 1.351 . S
C232 N233 1.373 . S
C232 H260 0.930 . S
N233 C232 1.373 . S
N233 C235 1.340 . S
N234 C231 1.368 . S
N234 C235 1.321 . S
N234 Co237 2.135 . S
C235 N233 1.340 . S
C235 N234 1.321 . S
C235 H259 0.930 . S
H236 C231 0.931 . S
Co237 N234 2.135 . S
Co237 N240 2.121 . S
Co237 O245 2.055 . S
Co237 O248 2.039 . S
Co237 N251 2.140 . S
C238 O239 1.227 . S
C238 O248 1.265 . S
O239 C238 1.227 . S
N240 Co237 2.121 . S
N240 C242 1.375 . S
N240 C243 1.313 . S
C241 C242 1.338 . S
C241 N244 1.377 . S
C241 H261 0.930 . S
C242 N240 1.375 . S
C242 C241 1.338 . S
C242 H246 0.931 . S
C243 N240 1.313 . S
C243 N244 1.344 . S
C243 H247 0.930 . S
N244 C241 1.377 . S
N244 C243 1.344 . S
O245 Co237 2.055 . S
O245 C249 1.253 . S
H246 C242 0.931 . S
H247 C243 0.930 . S
O248 Co237 2.039 . S
O248 C238 1.265 . S
C249 O245 1.253 . S
C249 O250 1.227 . S
O250 C249 1.227 . S
N251 Co237 2.140 . S
N251 C254 1.346 . S
N251 C255 1.345 . S
C252 C253 1.387 . S
C252 C256 1.391 . S
C253 C252 1.387 . S
C253 C254 1.369 . S
C253 H262 0.929 . S
C254 N251 1.346 . S
C254 C253 1.369 . S
C254 H257 0.928 . S
C255 N251 1.345 . S
C255 C256 1.371 . S
C255 H258 0.931 . S
C256 C252 1.391 . S
C256 C255 1.371 . S
C256 H263 0.930 . S
H257 C254 0.928 . S
H258 C255 0.931 . S
H259 C235 0.930 . S
H260 C232 0.930 . S
H261 C241 0.930 . S
H262 C253 0.929 . S
H263 C256 0.930 . S
C264 C265 1.349 . S
C264 C266 1.327 . S
C264 H289 0.950 . S
C265 C264 1.349 . S
C265 C281 1.349 . S
C266 C264 1.327 . S
C266 C285 1.429 . S
C266 H290 0.950 . S
C267 C284 1.574 . S
C267 C286 1.368 . S
C267 H291 0.949 . S
H268 C272 0.949 . S
C269 C270 1.349 . S
C269 C271 1.327 . S
C269 H292 0.950 . S
C270 C269 1.349 . S
C270 C282 1.349 . S
C271 C269 1.327 . S
C271 C287 1.429 . S
C271 H293 0.950 . S
C272 H268 0.949 . S
C272 C280 1.574 . S
C272 C288 1.368 . S
H273 C281 0.950 . S
H274 C279 0.950 . S
H275 C280 0.949 . S
H276 C282 0.950 . S
H277 C283 0.950 . S
H278 C284 0.949 . S
C279 H274 0.950 . S
C279 C281 1.327 . S
C279 C285 1.429 . S
C280 C272 1.574 . S
C280 H275 0.949 . S
C280 C286 1.368 . S
C281 C265 1.349 . S
C281 H273 0.950 . S
C281 C279 1.327 . S
C282 C270 1.349 . S
C282 H276 0.950 . S
C282 C283 1.327 . S
C283 H277 0.950 . S
C283 C282 1.327 . S
C283 C287 1.429 . S
C284 C267 1.574 . S
C284 H278 0.949 . S
C284 C288 1.368 . S
C285 C266 1.429 . S
C285 C279 1.429 . S
C285 C286 1.523 . S
C286 C267 1.368 . S
C286 C280 1.368 . S
C286 C285 1.523 . S
C287 C271 1.429 . S
C287 C283 1.429 . S
C287 C288 1.523 . S
C288 C272 1.368 . S
C288 C284 1.368 . S
C288 C287 1.523 . S
H289 C264 0.950 . S
H290 C266 0.950 . S
H291 C267 0.949 . S
H292 C269 0.950 . S
H293 C271 0.950 . S
C294 C295 1.349 . S
C294 C296 1.327 . S
C294 H319 0.950 . S
C295 C294 1.349 . S
C295 C311 1.349 . S
C296 C294 1.327 . S
C296 C315 1.429 . S
C296 H320 0.950 . S
C297 C314 1.574 . S
C297 C316 1.368 . S
C297 H321 0.949 . S
H298 C302 0.949 . S
C299 C300 1.349 . S
C299 C301 1.327 . S
C299 H322 0.950 . S
C300 C299 1.349 . S
C300 C312 1.349 . S
C301 C299 1.327 . S
C301 C317 1.429 . S
C301 H323 0.950 . S
C302 H298 0.949 . S
C302 C310 1.574 . S
C302 C318 1.368 . S
H303 C311 0.950 . S
H304 C309 0.950 . S
H305 C310 0.949 . S
H306 C312 0.950 . S
H307 C313 0.950 . S
H308 C314 0.949 . S
C309 H304 0.950 . S
C309 C311 1.327 . S
C309 C315 1.429 . S
C310 C302 1.574 . S
C310 H305 0.949 . S
C310 C316 1.368 . S
C311 C295 1.349 . S
C311 H303 0.950 . S
C311 C309 1.327 . S
C312 C300 1.349 . S
C312 H306 0.950 . S
C312 C313 1.327 . S
C313 H307 0.950 . S
C313 C312 1.327 . S
C313 C317 1.429 . S
C314 C297 1.574 . S
C314 H308 0.949 . S
C314 C318 1.368 . S
C315 C296 1.429 . S
C315 C309 1.429 . S
C315 C316 1.523 . S
C316 C297 1.368 . S
C316 C310 1.368 . S
C316 C315 1.523 . S
C317 C301 1.429 . S
C317 C313 1.429 . S
C317 C318 1.523 . S
C318 C302 1.368 . S
C318 C314 1.368 . S
C318 C317 1.523 . S
H319 C294 0.950 . S
H320 C296 0.950 . S
H321 C297 0.949 . S
H322 C299 0.950 . S
H323 C301 0.950 . S
C324 C325 1.349 . S
C324 C326 1.327 . S
C324 H349 0.950 . S
C325 C324 1.349 . S
C325 C341 1.349 . S
C326 C324 1.327 . S
C326 C345 1.429 . S
C326 H350 0.950 . S
C327 C344 1.574 . S
C327 C346 1.368 . S
C327 H351 0.949 . S
H328 C332 0.949 . S
C329 C330 1.349 . S
C329 C331 1.327 . S
C329 H352 0.950 . S
C330 C329 1.349 . S
C330 C342 1.349 . S
C331 C329 1.327 . S
C331 C347 1.429 . S
C331 H353 0.950 . S
C332 H328 0.949 . S
C332 C340 1.574 . S
C332 C348 1.368 . S
H333 C341 0.950 . S
H334 C339 0.950 . S
H335 C340 0.949 . S
H336 C342 0.950 . S
H337 C343 0.950 . S
H338 C344 0.949 . S
C339 H334 0.950 . S
C339 C341 1.327 . S
C339 C345 1.429 . S
C340 C332 1.574 . S
C340 H335 0.949 . S
C340 C346 1.368 . S
C341 C325 1.349 . S
C341 H333 0.950 . S
C341 C339 1.327 . S
C342 C330 1.349 . S
C342 H336 0.950 . S
C342 C343 1.327 . S
C343 H337 0.950 . S
C343 C342 1.327 . S
C343 C347 1.429 . S
C344 C327 1.574 . S
C344 H338 0.949 . S
C344 C348 1.368 . S
C345 C326 1.429 . S
C345 C339 1.429 . S
C345 C346 1.523 . S
C346 C327 1.368 . S
C346 C340 1.368 . S
C346 C345 1.523 . S
C347 C331 1.429 . S
C347 C343 1.429 . S
C347 C348 1.523 . S
C348 C332 1.368 . S
C348 C344 1.368 . S
C348 C347 1.523 . S
H349 C324 0.950 . S
H350 C326 0.950 . S
H351 C327 0.949 . S
H352 C329 0.950 . S
H353 C331 0.950 . S
C354 C355 1.349 . S
C354 C356 1.327 . S
C354 H379 0.950 . S
C355 C354 1.349 . S
C355 C371 1.349 . S
C356 C354 1.327 . S
C356 C375 1.429 . S
C356 H380 0.950 . S
C357 C374 1.574 . S
C357 C376 1.368 . S
C357 H381 0.949 . S
H358 C362 0.949 . S
C359 C360 1.349 . S
C359 C361 1.327 . S
C359 H382 0.950 . S
C360 C359 1.349 . S
C360 C372 1.349 . S
C361 C359 1.327 . S
C361 C377 1.429 . S
C361 H383 0.950 . S
C362 H358 0.949 . S
C362 C370 1.574 . S
C362 C378 1.368 . S
H363 C371 0.950 . S
H364 C369 0.950 . S
H365 C370 0.949 . S
H366 C372 0.950 . S
H367 C373 0.950 . S
H368 C374 0.949 . S
C369 H364 0.950 . S
C369 C371 1.327 . S
C369 C375 1.429 . S
C370 C362 1.574 . S
C370 H365 0.949 . S
C370 C376 1.368 . S
C371 C355 1.349 . S
C371 H363 0.950 . S
C371 C369 1.327 . S
C372 C360 1.349 . S
C372 H366 0.950 . S
C372 C373 1.327 . S
C373 H367 0.950 . S
C373 C372 1.327 . S
C373 C377 1.429 . S
C374 C357 1.574 . S
C374 H368 0.949 . S
C374 C378 1.368 . S
C375 C356 1.429 . S
C375 C369 1.429 . S
C375 C376 1.523 . S
C376 C357 1.368 . S
C376 C370 1.368 . S
C376 C375 1.523 . S
C377 C361 1.429 . S
C377 C373 1.429 . S
C377 C378 1.523 . S
C378 C362 1.368 . S
C378 C374 1.368 . S
C378 C377 1.523 . S
H379 C354 0.950 . S
H380 C356 0.950 . S
H381 C357 0.949 . S
H382 C359 0.950 . S
H383 C361 0.950 . S
C384 C385 1.349 . S
C384 C386 1.327 . S
C384 H409 0.950 . S
C385 C384 1.349 . S
C385 C401 1.349 . S
C386 C384 1.327 . S
C386 C405 1.429 . S
C386 H410 0.950 1_565 S
C387 C404 1.574 . S
C387 C406 1.368 . S
C387 H411 0.949 . S
H388 C392 0.949 . S
C389 C390 1.349 . S
C389 C391 1.327 . S
C389 H412 0.950 . S
C390 C389 1.349 . S
C390 C402 1.349 . S
C391 C389 1.327 . S
C391 C407 1.429 . S
C391 H413 0.950 1_545 S
C392 H388 0.949 . S
C392 C400 1.574 . S
C392 C408 1.368 . S
H393 C401 0.950 . S
H394 C399 0.950 . S
H395 C400 0.949 . S
H396 C402 0.950 . S
H397 C403 0.950 . S
H398 C404 0.949 . S
C399 H394 0.950 . S
C399 C401 1.327 . S
C399 C405 1.429 . S
C400 C392 1.574 . S
C400 H395 0.949 . S
C400 C406 1.368 1_545 S
C401 C385 1.349 . S
C401 H393 0.950 . S
C401 C399 1.327 . S
C402 C390 1.349 . S
C402 H396 0.950 . S
C402 C403 1.327 . S
C403 H397 0.950 . S
C403 C402 1.327 . S
C403 C407 1.429 . S
C404 C387 1.574 . S
C404 H398 0.949 . S
C404 C408 1.368 1_565 S
C405 C386 1.429 . S
C405 C399 1.429 . S
C405 C406 1.523 . S
C406 C387 1.368 . S
C406 C400 1.368 1_565 S
C406 C405 1.523 . S
C407 C391 1.429 . S
C407 C403 1.429 . S
C407 C408 1.523 . S
C408 C392 1.368 . S
C408 C404 1.368 1_545 S
C408 C407 1.523 . S
H409 C384 0.950 . S
H410 C386 0.950 1_545 S
H411 C387 0.949 . S
H412 C389 0.950 . S
H413 C391 0.950 1_565 S
C414 C415 1.349 . S
C414 C416 1.327 . S
C414 H439 0.950 . S
C415 C414 1.349 . S
C415 C431 1.349 . S
C416 C414 1.327 . S
C416 C435 1.429 . S
C416 H440 0.950 1_545 S
C417 C434 1.574 . S
C417 C436 1.368 . S
C417 H441 0.949 . S
H418 C422 0.949 . S
C419 C420 1.349 . S
C419 C421 1.327 . S
C419 H442 0.950 . S
C420 C419 1.349 . S
C420 C432 1.349 . S
C421 C419 1.327 . S
C421 C437 1.429 . S
C421 H443 0.950 1_565 S
C422 H418 0.949 . S
C422 C430 1.574 . S
C422 C438 1.368 . S
H423 C431 0.950 . S
H424 C429 0.950 . S
H425 C430 0.949 . S
H426 C432 0.950 . S
H427 C433 0.950 . S
H428 C434 0.949 . S
C429 H424 0.950 . S
C429 C431 1.327 . S
C429 C435 1.429 . S
C430 C422 1.574 . S
C430 H425 0.949 . S
C430 C436 1.368 1_565 S
C431 C415 1.349 . S
C431 H423 0.950 . S
C431 C429 1.327 . S
C432 C420 1.349 . S
C432 H426 0.950 . S
C432 C433 1.327 . S
C433 H427 0.950 . S
C433 C432 1.327 . S
C433 C437 1.429 . S
C434 C417 1.574 . S
C434 H428 0.949 . S
C434 C438 1.368 1_545 S
C435 C416 1.429 . S
C435 C429 1.429 . S
C435 C436 1.523 . S
C436 C417 1.368 . S
C436 C430 1.368 1_545 S
C436 C435 1.523 . S
C437 C421 1.429 . S
C437 C433 1.429 . S
C437 C438 1.523 . S
C438 C422 1.368 . S
C438 C434 1.368 1_565 S
C438 C437 1.523 . S
H439 C414 0.950 . S
H440 C416 0.950 1_565 S
H441 C417 0.949 . S
H442 C419 0.950 . S
H443 C421 0.950 1_545 S
C444 C445 1.349 . S
C444 C446 1.327 . S
C444 H469 0.950 . S
C445 C444 1.349 . S
C445 C461 1.349 . S
C446 C444 1.327 . S
C446 C465 1.429 . S
C446 H470 0.950 . S
C447 C464 1.574 . S
C447 C466 1.368 1_565 S
C447 H471 0.949 . S
H448 C452 0.949 . S
C449 C450 1.349 . S
C449 C451 1.327 . S
C449 H472 0.950 . S
C450 C449 1.349 . S
C450 C462 1.349 . S
C451 C449 1.327 . S
C451 C467 1.429 . S
C451 H473 0.950 . S
C452 H448 0.949 . S
C452 C460 1.574 . S
C452 C468 1.368 1_545 S
H453 C461 0.950 1_565 S
H454 C459 0.962 . S
H455 C460 0.949 . S
H456 C462 0.950 . S
H457 C463 0.950 1_545 S
H458 C464 0.949 . S
C459 H454 0.962 . S
C459 C461 1.322 1_565 S
C459 C465 1.421 1_565 S
C460 C452 1.574 . S
C460 H455 0.949 . S
C460 C466 1.368 . S
C461 C445 1.349 . S
C461 H453 0.950 1_545 S
C461 C459 1.322 1_545 S
C462 C450 1.349 . S
C462 H456 0.950 . S
C462 C463 1.327 . S
C463 H457 0.950 1_565 S
C463 C462 1.327 . S
C463 C467 1.429 . S
C464 C447 1.574 . S
C464 H458 0.949 . S
C464 C468 1.368 . S
C465 C446 1.429 . S
C465 C459 1.421 1_545 S
C465 C466 1.523 . S
C466 C447 1.368 1_545 S
C466 C460 1.368 . S
C466 C465 1.523 . S
C467 C451 1.429 . S
C467 C463 1.429 . S
C467 C468 1.523 . S
C468 C452 1.368 1_565 S
C468 C464 1.368 . S
C468 C467 1.523 . S
H469 C444 0.950 . S
H470 C446 0.950 . S
H471 C447 0.949 . S
H472 C449 0.950 . S
H473 C451 0.950 . S
C474 C475 1.349 . S
C474 C476 1.327 . S
C474 H499 0.950 . S
C475 C474 1.349 . S
C475 C491 1.349 . S
C476 C474 1.327 . S
C476 C495 1.429 . S
C476 H500 0.950 . S
C477 C494 1.574 . S
C477 C496 1.368 1_565 S
C477 H501 0.949 . S
H478 C482 0.949 . S
C479 C480 1.349 . S
C479 C481 1.327 . S
C479 H502 0.950 . S
C480 C479 1.349 . S
C480 C492 1.349 . S
C481 C479 1.327 . S
C481 C497 1.429 . S
C481 H503 0.950 . S
C482 H478 0.949 . S
C482 C490 1.574 . S
C482 C498 1.368 1_545 S
H483 C491 0.965 . S
H484 C489 0.905 1_565 S
H485 C490 0.949 . S
H486 C492 0.950 . S
H487 C493 0.950 1_545 S
H488 C494 0.949 . S
C489 H484 0.905 1_545 S
C489 C491 1.346 . S
C489 C495 1.455 . S
C490 C482 1.574 . S
C490 H485 0.949 . S
C490 C496 1.368 . S
C491 C475 1.349 . S
C491 H483 0.965 . S
C491 C489 1.346 . S
C492 C480 1.349 . S
C492 H486 0.950 . S
C492 C493 1.327 . S
C493 H487 0.950 1_565 S
C493 C492 1.327 . S
C493 C497 1.429 . S
C494 C477 1.574 . S
C494 H488 0.949 . S
C494 C498 1.368 . S
C495 C476 1.429 . S
C495 C489 1.455 . S
C495 C496 1.523 . S
C496 C477 1.368 1_545 S
C496 C490 1.368 . S
C496 C495 1.523 . S
C497 C481 1.429 . S
C497 C493 1.429 . S
C497 C498 1.523 . S
C498 C482 1.368 1_565 S
C498 C494 1.368 . S
C498 C497 1.523 . S
H499 C474 0.950 . S
H500 C476 0.950 . S
H501 C477 0.949 . S
H502 C479 0.950 . S
H503 C481 0.950 . S
C504 C505 1.349 1_556 S
C504 C506 1.327 . S
C504 H529 0.950 . S
C505 C504 1.349 1_554 S
C505 C521 1.349 . S
C506 C504 1.327 . S
C506 C525 1.411 1_556 S
C506 H530 0.950 . S
C507 C524 1.574 . S
C507 C526 1.376 . S
C507 H531 0.949 . S
H508 C512 0.949 . S
C509 C510 1.349 1_554 S
C509 C511 1.327 . S
C509 H532 0.950 . S
C510 C509 1.349 1_556 S
C510 C522 1.349 . S
C511 C509 1.327 . S
C511 C527 1.411 1_554 S
C511 H533 0.950 . S
C512 H508 0.949 . S
C512 C520 1.574 . S
C512 C528 1.376 . S
H513 C521 0.950 . S
H514 C519 0.950 . S
H515 C520 0.949 . S
H516 C522 0.950 . S
H517 C523 0.950 . S
H518 C524 0.949 . S
C519 H514 0.950 . S
C519 C521 1.327 . S
C519 C525 1.452 . S
C520 C512 1.574 . S
C520 H515 0.949 . S
C520 C526 1.359 1_556 S
C521 C505 1.349 . S
C521 H513 0.950 . S
C521 C519 1.327 . S
C522 C510 1.349 . S
C522 H516 0.950 . S
C522 C523 1.327 . S
C523 H517 0.950 . S
C523 C522 1.327 . S
C523 C527 1.452 . S
C524 C507 1.574 . S
C524 H518 0.949 . S
C524 C528 1.359 1_554 S
C525 C506 1.411 1_554 S
C525 C519 1.452 . S
C525 C526 1.520 . S
C526 C507 1.376 . S
C526 C520 1.359 1_554 S
C526 C525 1.520 . S
C527 C511 1.411 1_556 S
C527 C523 1.452 . S
C527 C528 1.520 . S
C528 C512 1.376 . S
C528 C524 1.359 1_556 S
C528 C527 1.520 . S
H529 C504 0.950 . S
H530 C506 0.950 . S
H531 C507 0.949 . S
H532 C509 0.950 . S
H533 C511 0.950 . S
C534 C535 1.349 . S
C534 C536 1.327 . S
C534 H559 0.950 . S
C535 C534 1.349 . S
C535 C551 1.349 . S
C536 C534 1.327 . S
C536 C555 1.429 . S
C536 H560 0.950 . S
C537 C554 1.574 . S
C537 C556 1.368 . S
C537 H561 0.949 . S
H538 C542 0.949 . S
C539 C540 1.349 . S
C539 C541 1.327 . S
C539 H562 0.950 . S
C540 C539 1.349 . S
C540 C552 1.349 . S
C541 C539 1.327 . S
C541 C557 1.429 . S
C541 H563 0.950 . S
C542 H538 0.949 . S
C542 C550 1.574 . S
C542 C558 1.368 . S
H543 C551 0.950 . S
H544 C549 0.950 . S
H545 C550 0.949 . S
H546 C552 0.950 . S
H547 C553 0.950 . S
H548 C554 0.949 . S
C549 H544 0.950 . S
C549 C551 1.327 . S
C549 C555 1.429 . S
C550 C542 1.574 . S
C550 H545 0.949 . S
C550 C556 1.368 . S
C551 C535 1.349 . S
C551 H543 0.950 . S
C551 C549 1.327 . S
C552 C540 1.349 . S
C552 H546 0.950 . S
C552 C553 1.327 . S
C553 H547 0.950 . S
C553 C552 1.327 . S
C553 C557 1.429 . S
C554 C537 1.574 . S
C554 H548 0.949 . S
C554 C558 1.368 . S
C555 C536 1.429 . S
C555 C549 1.429 . S
C555 C556 1.523 . S
C556 C537 1.368 . S
C556 C550 1.368 . S
C556 C555 1.523 . S
C557 C541 1.429 . S
C557 C553 1.429 . S
C557 C558 1.523 . S
C558 C542 1.368 . S
C558 C554 1.368 . S
C558 C557 1.523 . S
H559 C534 0.950 . S
H560 C536 0.950 . S
H561 C537 0.949 . S
H562 C539 0.950 . S
H563 C541 0.950 . S
C564 C565 1.349 . S
C564 C566 1.327 . S
C564 H589 0.950 . S
C565 C564 1.349 . S
C565 C581 1.349 1_556 S
C566 C564 1.327 . S
C566 C585 1.449 . S
C566 H590 0.950 . S
C567 C584 1.574 1_455 S
C567 C586 1.360 1_554 S
C567 H591 0.949 . S
H568 C572 0.949 . S
C569 C570 1.349 . S
C569 C571 1.327 . S
C569 H592 0.950 . S
C570 C569 1.349 . S
C570 C582 1.349 1_554 S
C571 C569 1.327 . S
C571 C587 1.449 . S
C571 H593 0.950 . S
C572 H568 0.949 . S
C572 C580 1.574 1_655 S
C572 C588 1.360 1_556 S
H573 C581 0.950 . S
H574 C579 0.950 . S
H575 C580 0.949 . S
H576 C582 0.950 . S
H577 C583 0.950 . S
H578 C584 0.949 . S
C579 H574 0.950 . S
C579 C581 1.327 . S
C579 C585 1.413 1_554 S
C580 C572 1.574 1_455 S
C580 H575 0.949 . S
C580 C586 1.375 1_565 S
C581 C565 1.349 1_554 S
C581 H573 0.950 . S
C581 C579 1.327 . S
C582 C570 1.349 1_556 S
C582 H576 0.950 . S
C582 C583 1.327 . S
C583 H577 0.950 . S
C583 C582 1.327 . S
C583 C587 1.413 1_556 S
C584 C567 1.574 1_655 S
C584 H578 0.949 . S
C584 C588 1.375 1_545 S
C585 C566 1.449 . S
C585 C579 1.413 1_556 S
C585 C586 1.520 . S
C586 C567 1.360 1_556 S
C586 C580 1.375 1_545 S
C586 C585 1.520 . S
C587 C571 1.449 . S
C587 C583 1.413 1_554 S
C587 C588 1.520 . S
C588 C572 1.360 1_554 S
C588 C584 1.375 1_565 S
C588 C587 1.520 . S
H589 C564 0.950 . S
H590 C566 0.950 . S
H591 C567 0.949 . S
H592 C569 0.950 . S
H593 C571 0.950 . S
C594 C595 1.349 . S
C594 C596 1.327 . S
C594 H619 0.950 . S
C595 C594 1.349 . S
C595 C611 1.349 . S
C596 C594 1.327 . S
C596 C615 1.429 . S
C596 H620 0.950 1_545 S
C597 C614 1.547 1_655 S
C597 C616 1.391 . S
C597 H621 0.953 . S
H598 C602 0.953 . S
C599 C600 1.349 . S
C599 C601 1.327 . S
C599 H622 0.950 . S
C600 C599 1.349 . S
C600 C612 1.349 . S
C601 C599 1.327 . S
C601 C617 1.429 . S
C601 H623 0.950 1_565 S
C602 H598 0.953 . S
C602 C610 1.547 1_455 S
C602 C618 1.391 . S
H603 C611 0.950 . S
H604 C609 0.950 . S
H605 C610 0.949 . S
H606 C612 0.950 . S
H607 C613 0.950 . S
H608 C614 0.949 . S
C609 H604 0.950 . S
C609 C611 1.327 . S
C609 C615 1.429 . S
C610 C602 1.547 1_655 S
C610 H605 0.949 . S
C610 C616 1.368 1_565 S
C611 C595 1.349 . S
C611 H603 0.950 . S
C611 C609 1.327 . S
C612 C600 1.349 . S
C612 H606 0.950 . S
C612 C613 1.327 . S
C613 H607 0.950 . S
C613 C612 1.327 . S
C613 C617 1.429 . S
C614 C597 1.547 1_455 S
C614 H608 0.949 . S
C614 C618 1.368 1_545 S
C615 C596 1.429 . S
C615 C609 1.429 . S
C615 C616 1.523 . S
C616 C597 1.391 . S
C616 C610 1.368 1_545 S
C616 C615 1.523 . S
C617 C601 1.429 . S
C617 C613 1.429 . S
C617 C618 1.523 . S
C618 C602 1.391 . S
C618 C614 1.368 1_565 S
C618 C617 1.523 . S
H619 C594 0.950 . S
H620 C596 0.950 1_565 S
H621 C597 0.953 . S
H622 C599 0.950 . S
H623 C601 0.950 1_545 S
C624 C625 1.349 . S
C624 C626 1.327 . S
C624 H649 0.950 . S
C625 C624 1.349 . S
C625 C641 1.349 1_554 S
C626 C624 1.327 . S
C626 C645 1.429 . S
C626 H650 0.950 . S
C627 C644 1.574 . S
C627 C646 1.368 1_556 S
C627 H651 0.949 . S
H628 C632 0.949 . S
C629 C630 1.349 . S
C629 C631 1.327 . S
C629 H652 0.950 . S
C630 C629 1.349 . S
C630 C642 1.349 1_556 S
C631 C629 1.327 . S
C631 C647 1.429 . S
C631 H653 0.950 . S
C632 H628 0.949 . S
C632 C640 1.574 . S
C632 C648 1.368 1_554 S
H633 C641 0.950 . S
H634 C639 0.950 . S
H635 C640 0.949 . S
H636 C642 0.950 . S
H637 C643 0.950 . S
H638 C644 0.949 . S
C639 H634 0.950 . S
C639 C641 1.327 . S
C639 C645 1.429 1_556 S
C640 C632 1.574 . S
C640 H635 0.949 . S
C640 C646 1.368 . S
C641 C625 1.349 1_556 S
C641 H633 0.950 . S
C641 C639 1.327 . S
C642 C630 1.349 1_554 S
C642 H636 0.950 . S
C642 C643 1.327 . S
C643 H637 0.950 . S
C643 C642 1.327 . S
C643 C647 1.429 1_554 S
C644 C627 1.574 . S
C644 H638 0.949 . S
C644 C648 1.368 . S
C645 C626 1.429 . S
C645 C639 1.429 1_554 S
C645 C646 1.523 . S
C646 C627 1.368 1_554 S
C646 C640 1.368 . S
C646 C645 1.523 . S
C647 C631 1.429 . S
C647 C643 1.429 1_556 S
C647 C648 1.523 . S
C648 C632 1.368 1_556 S
C648 C644 1.368 . S
C648 C647 1.523 . S
H649 C624 0.950 . S
H650 C626 0.950 . S
H651 C627 0.949 . S
H652 C629 0.950 . S
H653 C631 0.950 . S
C654 C655 1.349 . S
C654 C656 1.327 . S
C654 H679 0.950 . S
C655 C654 1.349 . S
C655 C671 1.349 . S
C656 C654 1.327 . S
C656 C675 1.429 . S
C656 H680 0.950 . S
C657 C674 1.574 . S
C657 C676 1.368 . S
C657 H681 0.949 . S
H658 C662 0.949 . S
C659 C660 1.349 . S
C659 C661 1.327 . S
C659 H682 0.950 . S
C660 C659 1.349 . S
C660 C672 1.349 . S
C661 C659 1.327 . S
C661 C677 1.429 . S
C661 H683 0.950 . S
C662 H658 0.949 . S
C662 C670 1.574 . S
C662 C678 1.368 . S
H663 C671 0.950 . S
H664 C669 0.950 . S
H665 C670 0.949 . S
H666 C672 0.950 . S
H667 C673 0.950 . S
H668 C674 0.949 . S
C669 H664 0.950 . S
C669 C671 1.327 . S
C669 C675 1.429 . S
C670 C662 1.574 . S
C670 H665 0.949 . S
C670 C676 1.368 . S
C671 C655 1.349 . S
C671 H663 0.950 . S
C671 C669 1.327 . S
C672 C660 1.349 . S
C672 H666 0.950 . S
C672 C673 1.327 . S
C673 H667 0.950 . S
C673 C672 1.327 . S
C673 C677 1.429 . S
C674 C657 1.574 . S
C674 H668 0.949 . S
C674 C678 1.368 . S
C675 C656 1.429 . S
C675 C669 1.429 . S
C675 C676 1.523 . S
C676 C657 1.368 . S
C676 C670 1.368 . S
C676 C675 1.523 . S
C677 C661 1.429 . S
C677 C673 1.429 . S
C677 C678 1.523 . S
C678 C662 1.368 . S
C678 C674 1.368 . S
C678 C677 1.523 . S
H679 C654 0.950 . S
H680 C656 0.950 . S
H681 C657 0.949 . S
H682 C659 0.950 . S
H683 C661 0.950 . S
C684 C685 1.349 1_556 S
C684 C686 1.327 . S
C684 H709 0.950 . S
C685 C684 1.349 1_554 S
C685 C701 1.349 . S
C686 C684 1.327 . S
C686 C705 1.429 1_556 S
C686 H710 0.950 . S
C687 C704 1.574 . S
C687 C706 1.368 . S
C687 H711 0.949 . S
H688 C692 0.949 . S
C689 C690 1.349 1_554 S
C689 C691 1.327 . S
C689 H712 0.950 . S
C690 C689 1.349 1_556 S
C690 C702 1.349 . S
C691 C689 1.327 . S
C691 C707 1.429 1_554 S
C691 H713 0.950 . S
C692 H688 0.949 . S
C692 C700 1.574 . S
C692 C708 1.368 . S
H693 C701 0.950 . S
H694 C699 0.950 . S
H695 C700 0.949 . S
H696 C702 0.950 . S
H697 C703 0.950 . S
H698 C704 0.949 . S
C699 H694 0.950 . S
C699 C701 1.327 . S
C699 C705 1.429 . S
C700 C692 1.574 . S
C700 H695 0.949 . S
C700 C706 1.368 1_556 S
C701 C685 1.349 . S
C701 H693 0.950 . S
C701 C699 1.327 . S
C702 C690 1.349 . S
C702 H696 0.950 . S
C702 C703 1.327 . S
C703 H697 0.950 . S
C703 C702 1.327 . S
C703 C707 1.429 . S
C704 C687 1.574 . S
C704 H698 0.949 . S
C704 C708 1.368 1_554 S
C705 C686 1.429 1_554 S
C705 C699 1.429 . S
C705 C706 1.523 . S
C706 C687 1.368 . S
C706 C700 1.368 1_554 S
C706 C705 1.523 . S
C707 C691 1.429 1_556 S
C707 C703 1.429 . S
C707 C708 1.523 . S
C708 C692 1.368 . S
C708 C704 1.368 1_556 S
C708 C707 1.523 . S
H709 C684 0.950 . S
H710 C686 0.950 . S
H711 C687 0.949 . S
H712 C689 0.950 . S
H713 C691 0.950 . S
C714 C715 1.349 . S
C714 C716 1.327 . S
C714 H739 0.950 . S
C715 C714 1.349 . S
C715 C731 1.349 . S
C716 C714 1.327 . S
C716 C735 1.429 . S
C716 H740 0.950 . S
C717 C734 1.574 . S
C717 C736 1.368 . S
C717 H741 0.949 . S
H718 C722 0.949 . S
C719 C720 1.349 . S
C719 C721 1.327 . S
C719 H742 0.950 . S
C720 C719 1.349 . S
C720 C732 1.349 . S
C721 C719 1.327 . S
C721 C737 1.429 . S
C721 H743 0.950 . S
C722 H718 0.949 . S
C722 C730 1.574 . S
C722 C738 1.368 . S
H723 C731 0.950 . S
H724 C729 0.950 . S
H725 C730 0.949 . S
H726 C732 0.950 . S
H727 C733 0.950 . S
H728 C734 0.949 . S
C729 H724 0.950 . S
C729 C731 1.327 . S
C729 C735 1.429 . S
C730 C722 1.574 . S
C730 H725 0.949 . S
C730 C736 1.368 . S
C731 C715 1.349 . S
C731 H723 0.950 . S
C731 C729 1.327 . S
C732 C720 1.349 . S
C732 H726 0.950 . S
C732 C733 1.327 . S
C733 H727 0.950 . S
C733 C732 1.327 . S
C733 C737 1.429 . S
C734 C717 1.574 . S
C734 H728 0.949 . S
C734 C738 1.368 . S
C735 C716 1.429 . S
C735 C729 1.429 . S
C735 C736 1.523 . S
C736 C717 1.368 . S
C736 C730 1.368 . S
C736 C735 1.523 . S
C737 C721 1.429 . S
C737 C733 1.429 . S
C737 C738 1.523 . S
C738 C722 1.368 . S
C738 C734 1.368 . S
C738 C737 1.523 . S
H739 C714 0.950 . S
H740 C716 0.950 . S
H741 C717 0.949 . S
H742 C719 0.950 . S
H743 C721 0.950 . S
C744 C745 1.349 . S
C744 C746 1.327 . S
C744 H769 0.950 . S
C745 C744 1.349 . S
C745 C761 1.349 . S
C746 C744 1.327 . S
C746 C765 1.429 . S
C746 H770 0.950 . S
C747 C764 1.574 . S
C747 C766 1.368 . S
C747 H771 0.949 . S
H748 C752 0.949 . S
C749 C750 1.349 . S
C749 C751 1.327 . S
C749 H772 0.950 . S
C750 C749 1.349 . S
C750 C762 1.349 . S
C751 C749 1.327 . S
C751 C767 1.429 . S
C751 H773 0.950 . S
C752 H748 0.949 . S
C752 C760 1.574 . S
C752 C768 1.368 . S
H753 C761 0.950 . S
H754 C759 0.950 . S
H755 C760 0.949 . S
H756 C762 0.950 . S
H757 C763 0.950 . S
H758 C764 0.949 . S
C759 H754 0.950 . S
C759 C761 1.327 . S
C759 C765 1.429 . S
C760 C752 1.574 . S
C760 H755 0.949 . S
C760 C766 1.368 . S
C761 C745 1.349 . S
C761 H753 0.950 . S
C761 C759 1.327 . S
C762 C750 1.349 . S
C762 H756 0.950 . S
C762 C763 1.327 . S
C763 H757 0.950 . S
C763 C762 1.327 . S
C763 C767 1.429 . S
C764 C747 1.574 . S
C764 H758 0.949 . S
C764 C768 1.368 . S
C765 C746 1.429 . S
C765 C759 1.429 . S
C765 C766 1.523 . S
C766 C747 1.368 . S
C766 C760 1.368 . S
C766 C765 1.523 . S
C767 C751 1.429 . S
C767 C763 1.429 . S
C767 C768 1.523 . S
C768 C752 1.368 . S
C768 C764 1.368 . S
C768 C767 1.523 . S
H769 C744 0.950 . S
H770 C746 0.950 . S
H771 C747 0.949 . S
H772 C749 0.950 . S
H773 C751 0.950 . S
C774 C775 1.349 . S
C774 C776 1.327 . S
C774 H799 0.950 . S
C775 C774 1.349 . S
C775 C791 1.349 . S
C776 C774 1.327 . S
C776 C795 1.429 . S
C776 H800 0.950 . S
C777 C794 1.574 . S
C777 C796 1.368 . S
C777 H801 0.949 . S
H778 C782 0.949 . S
C779 C780 1.349 . S
C779 C781 1.327 . S
C779 H802 0.950 . S
C780 C779 1.349 . S
C780 C792 1.349 . S
C781 C779 1.327 . S
C781 C797 1.429 . S
C781 H803 0.950 . S
C782 H778 0.949 . S
C782 C790 1.574 . S
C782 C798 1.368 . S
H783 C791 0.950 . S
H784 C789 0.950 . S
H785 C790 0.949 . S
H786 C792 0.950 . S
H787 C793 0.950 . S
H788 C794 0.949 . S
C789 H784 0.950 . S
C789 C791 1.327 . S
C789 C795 1.429 . S
C790 C782 1.574 . S
C790 H785 0.949 . S
C790 C796 1.368 . S
C791 C775 1.349 . S
C791 H783 0.950 . S
C791 C789 1.327 . S
C792 C780 1.349 . S
C792 H786 0.950 . S
C792 C793 1.327 . S
C793 H787 0.950 . S
C793 C792 1.327 . S
C793 C797 1.429 . S
C794 C777 1.574 . S
C794 H788 0.949 . S
C794 C798 1.368 . S
C795 C776 1.429 . S
C795 C789 1.429 . S
C795 C796 1.523 . S
C796 C777 1.368 . S
C796 C790 1.368 . S
C796 C795 1.523 . S
C797 C781 1.429 . S
C797 C793 1.429 . S
C797 C798 1.523 . S
C798 C782 1.368 . S
C798 C794 1.368 . S
C798 C797 1.523 . S
H799 C774 0.950 . S
H800 C776 0.950 . S
H801 C777 0.949 . S
H802 C779 0.950 . S
H803 C781 0.950 . S
C804 C805 1.349 . S
C804 C806 1.327 . S
C804 H829 0.950 . S
C805 C804 1.349 . S
C805 C821 1.349 . S
C806 C804 1.327 . S
C806 C825 1.429 . S
C806 H830 0.950 . S
C807 C824 1.574 1_455 S
C807 C826 1.368 . S
C807 H831 0.949 . S
H808 C812 0.949 . S
C809 C810 1.349 . S
C809 C811 1.327 . S
C809 H832 0.950 . S
C810 C809 1.349 . S
C810 C822 1.349 . S
C811 C809 1.327 . S
C811 C827 1.429 . S
C811 H833 0.950 . S
C812 H808 0.949 . S
C812 C820 1.574 1_655 S
C812 C828 1.368 . S
H813 C821 0.950 . S
H814 C819 0.950 . S
H815 C820 0.949 . S
H816 C822 0.950 . S
H817 C823 0.950 . S
H818 C824 0.949 . S
C819 H814 0.950 . S
C819 C821 1.327 . S
C819 C825 1.429 . S
C820 C812 1.574 1_455 S
C820 H815 0.949 . S
C820 C826 1.368 . S
C821 C805 1.349 . S
C821 H813 0.950 . S
C821 C819 1.327 . S
C822 C810 1.349 . S
C822 H816 0.950 . S
C822 C823 1.327 . S
C823 H817 0.950 . S
C823 C822 1.327 . S
C823 C827 1.429 . S
C824 C807 1.574 1_655 S
C824 H818 0.949 . S
C824 C828 1.368 . S
C825 C806 1.429 . S
C825 C819 1.429 . S
C825 C826 1.523 . S
C826 C807 1.368 . S
C826 C820 1.368 . S
C826 C825 1.523 . S
C827 C811 1.429 . S
C827 C823 1.429 . S
C827 C828 1.523 . S
C828 C812 1.368 . S
C828 C824 1.368 . S
C828 C827 1.523 . S
H829 C804 0.950 . S
H830 C806 0.950 . S
H831 C807 0.949 . S
H832 C809 0.950 . S
H833 C811 0.950 . S
C834 C835 1.349 . S
C834 C836 1.327 . S
C834 H859 0.950 . S
C835 C834 1.349 . S
C835 C851 1.349 . S
C836 C834 1.327 . S
C836 C855 1.429 . S
C836 H860 0.950 . S
C837 C854 1.574 1_455 S
C837 C856 1.368 . S
C837 H861 0.949 . S
H838 C842 0.949 . S
C839 C840 1.349 . S
C839 C841 1.327 . S
C839 H862 0.950 . S
C840 C839 1.349 . S
C840 C852 1.349 . S
C841 C839 1.327 . S
C841 C857 1.429 . S
C841 H863 0.950 . S
C842 H838 0.949 . S
C842 C850 1.574 1_655 S
C842 C858 1.368 . S
H843 C851 0.950 . S
H844 C849 0.950 . S
H845 C850 0.949 . S
H846 C852 0.950 . S
H847 C853 0.950 . S
H848 C854 0.949 . S
C849 H844 0.950 . S
C849 C851 1.327 . S
C849 C855 1.429 . S
C850 C842 1.574 1_455 S
C850 H845 0.949 . S
C850 C856 1.368 . S
C851 C835 1.349 . S
C851 H843 0.950 . S
C851 C849 1.327 . S
C852 C840 1.349 . S
C852 H846 0.950 . S
C852 C853 1.327 . S
C853 H847 0.950 . S
C853 C852 1.327 . S
C853 C857 1.429 . S
C854 C837 1.574 1_655 S
C854 H848 0.949 . S
C854 C858 1.368 . S
C855 C836 1.429 . S
C855 C849 1.429 . S
C855 C856 1.523 . S
C856 C837 1.368 . S
C856 C850 1.368 . S
C856 C855 1.523 . S
C857 C841 1.429 . S
C857 C853 1.429 . S
C857 C858 1.523 . S
C858 C842 1.368 . S
C858 C854 1.368 . S
C858 C857 1.523 . S
H859 C834 0.950 . S
H860 C836 0.950 . S
H861 C837 0.949 . S
H862 C839 0.950 . S
H863 C841 0.950 . S
C265 C106 1.720 . S
C270 N13 1.803 . S
C295 N46 1.803 . S
C300 C73 1.720 . S
C325 C40 1.720 . S
C330 N79 1.803 . S
C355 C7 1.720 . S
C360 N112 1.803 . S
C385 N145 1.803 . S
C390 C238 1.720 . S
C415 C205 1.720 . S
C420 N178 1.803 . S
C445 N211 1.803 . S
C450 C172 1.720 . S
C475 N244 1.803 . S
C480 C139 1.720 . S
C505 C18 0.755 . S
C510 C84 0.755 . S
C535 C51 0.755 . S
C540 C117 0.755 . S
C565 C216 0.755 . S
C570 C150 0.755 . S
C595 C249 0.755 . S
C600 C183 0.755 . S
C625 C21 1.439 . S
C630 C219 1.439 . S
C655 C54 1.439 . S
C660 C252 1.439 . S
C685 C153 1.439 . S
C690 C87 1.439 . S
C715 C186 1.439 . S
C720 C120 1.439 . S
C745 N35 0.617 . S
C750 N2 0.617 . S
C775 N101 0.617 . S
C780 N68 0.617 . S
C805 N167 0.617 . S
C810 N134 0.617 . S
C835 N200 0.617 . S
C840 N233 0.617 . S
