# Generated by pormake.
# Topology uke, (4)-cn, num edge types: 1
# Building blocks:
#     Node 0, Type 0, BuildingBlock: TATPOV_clean_sbu_0, # of connection points: 4
#     Node 1, Type 0, BuildingBlock: TATPOV_clean_sbu_0, # of connection points: 4
#     Node 2, Type 0, BuildingBlock: TATPOV_clean_sbu_0, # of connection points: 4
#     Node 3, Type 0, BuildingBlock: TATPOV_clean_sbu_0, # of connection points: 4
#     Node 4, Type 0, BuildingBlock: TATPOV_clean_sbu_0, # of connection points: 4
#     Node 5, Type 0, BuildingBlock: TATPOV_clean_sbu_0, # of connection points: 4
#     Node 6, Type 0, BuildingBlock: TATPOV_clean_sbu_0, # of connection points: 4
#     Node 7, Type 0, BuildingBlock: TATPOV_clean_sbu_0, # of connection points: 4
#     Node 8, Type 0, BuildingBlock: TATPOV_clean_sbu_0, # of connection points: 4
#     Node 9, Type 0, BuildingBlock: TATPOV_clean_sbu_0, # of connection points: 4
#     Node 10, Type 0, BuildingBlock: TATPOV_clean_sbu_0, # of connection points: 4
#     Node 11, Type 0, BuildingBlock: TATPOV_clean_sbu_0, # of connection points: 4
#     Node 12, Type 0, BuildingBlock: TATPOV_clean_sbu_0, # of connection points: 4
#     Node 13, Type 0, BuildingBlock: TATPOV_clean_sbu_0, # of connection points: 4
#     Node 14, Type 0, BuildingBlock: TATPOV_clean_sbu_0, # of connection points: 4
#     Node 15, Type 0, BuildingBlock: TATPOV_clean_sbu_0, # of connection points: 4
#     Node 16, Type 0, BuildingBlock: TATPOV_clean_sbu_0, # of connection points: 4
#     Node 17, Type 0, BuildingBlock: TATPOV_clean_sbu_0, # of connection points: 4
#     Node 18, Type 0, BuildingBlock: TATPOV_clean_sbu_0, # of connection points: 4
#     Node 19, Type 0, BuildingBlock: TATPOV_clean_sbu_0, # of connection points: 4
#     Node 20, Type 0, BuildingBlock: TATPOV_clean_sbu_0, # of connection points: 4
#     Node 21, Type 0, BuildingBlock: TATPOV_clean_sbu_0, # of connection points: 4
#     Node 22, Type 0, BuildingBlock: TATPOV_clean_sbu_0, # of connection points: 4
#     Node 23, Type 0, BuildingBlock: TATPOV_clean_sbu_0, # of connection points: 4
#     Node 24, Type 0, BuildingBlock: TATPOV_clean_sbu_0, # of connection points: 4
#     Node 25, Type 0, BuildingBlock: TATPOV_clean_sbu_0, # of connection points: 4
#     Node 26, Type 0, BuildingBlock: TATPOV_clean_sbu_0, # of connection points: 4
#     Node 27, Type 0, BuildingBlock: TATPOV_clean_sbu_0, # of connection points: 4
#     Node 28, Type 0, BuildingBlock: TATPOV_clean_sbu_0, # of connection points: 4
#     Node 29, Type 0, BuildingBlock: TATPOV_clean_sbu_0, # of connection points: 4
#     Node 30, Type 0, BuildingBlock: TATPOV_clean_sbu_0, # of connection points: 4
#     Node 31, Type 0, BuildingBlock: TATPOV_clean_sbu_0, # of connection points: 4
#     Edge 32, Type (0, 0), BuildingBlock: ZUJKAS_clean_linker_0, # of connection points: 2
#     Edge 33, Type (0, 0), BuildingBlock: ZUJKAS_clean_linker_0, # of connection points: 2
#     Edge 34, Type (0, 0), BuildingBlock: ZUJKAS_clean_linker_0, # of connection points: 2
#     Edge 35, Type (0, 0), BuildingBlock: ZUJKAS_clean_linker_0, # of connection points: 2
#     Edge 36, Type (0, 0), BuildingBlock: ZUJKAS_clean_linker_0, # of connection points: 2
#     Edge 37, Type (0, 0), BuildingBlock: ZUJKAS_clean_linker_0, # of connection points: 2
#     Edge 38, Type (0, 0), BuildingBlock: ZUJKAS_clean_linker_0, # of connection points: 2
#     Edge 39, Type (0, 0), BuildingBlock: ZUJKAS_clean_linker_0, # of connection points: 2
#     Edge 40, Type (0, 0), BuildingBlock: ZUJKAS_clean_linker_0, # of connection points: 2
#     Edge 41, Type (0, 0), BuildingBlock: ZUJKAS_clean_linker_0, # of connection points: 2
#     Edge 42, Type (0, 0), BuildingBlock: ZUJKAS_clean_linker_0, # of connection points: 2
#     Edge 43, Type (0, 0), BuildingBlock: ZUJKAS_clean_linker_0, # of connection points: 2
#     Edge 44, Type (0, 0), BuildingBlock: ZUJKAS_clean_linker_0, # of connection points: 2
#     Edge 45, Type (0, 0), BuildingBlock: ZUJKAS_clean_linker_0, # of connection points: 2
#     Edge 46, Type (0, 0), BuildingBlock: ZUJKAS_clean_linker_0, # of connection points: 2
#     Edge 47, Type (0, 0), BuildingBlock: ZUJKAS_clean_linker_0, # of connection points: 2
#     Edge 48, Type (0, 0), BuildingBlock: ZUJKAS_clean_linker_0, # of connection points: 2
#     Edge 49, Type (0, 0), BuildingBlock: ZUJKAS_clean_linker_0, # of connection points: 2
#     Edge 50, Type (0, 0), BuildingBlock: ZUJKAS_clean_linker_0, # of connection points: 2
#     Edge 51, Type (0, 0), BuildingBlock: ZUJKAS_clean_linker_0, # of connection points: 2
#     Edge 52, Type (0, 0), BuildingBlock: ZUJKAS_clean_linker_0, # of connection points: 2
#     Edge 53, Type (0, 0), BuildingBlock: ZUJKAS_clean_linker_0, # of connection points: 2
#     Edge 54, Type (0, 0), BuildingBlock: ZUJKAS_clean_linker_0, # of connection points: 2
#     Edge 55, Type (0, 0), BuildingBlock: ZUJKAS_clean_linker_0, # of connection points: 2
#     Edge 56, Type (0, 0), BuildingBlock: ZUJKAS_clean_linker_0, # of connection points: 2
#     Edge 57, Type (0, 0), BuildingBlock: ZUJKAS_clean_linker_0, # of connection points: 2
#     Edge 58, Type (0, 0), BuildingBlock: ZUJKAS_clean_linker_0, # of connection points: 2
#     Edge 59, Type (0, 0), BuildingBlock: ZUJKAS_clean_linker_0, # of connection points: 2
#     Edge 60, Type (0, 0), BuildingBlock: ZUJKAS_clean_linker_0, # of connection points: 2
#     Edge 61, Type (0, 0), BuildingBlock: ZUJKAS_clean_linker_0, # of connection points: 2
#     Edge 62, Type (0, 0), BuildingBlock: ZUJKAS_clean_linker_0, # of connection points: 2
#     Edge 63, Type (0, 0), BuildingBlock: ZUJKAS_clean_linker_0, # of connection points: 2
#     Edge 64, Type (0, 0), BuildingBlock: ZUJKAS_clean_linker_0, # of connection points: 2
#     Edge 65, Type (0, 0), BuildingBlock: ZUJKAS_clean_linker_0, # of connection points: 2
#     Edge 66, Type (0, 0), BuildingBlock: ZUJKAS_clean_linker_0, # of connection points: 2
#     Edge 67, Type (0, 0), BuildingBlock: ZUJKAS_clean_linker_0, # of connection points: 2
#     Edge 68, Type (0, 0), BuildingBlock: ZUJKAS_clean_linker_0, # of connection points: 2
#     Edge 69, Type (0, 0), BuildingBlock: ZUJKAS_clean_linker_0, # of connection points: 2
#     Edge 70, Type (0, 0), BuildingBlock: ZUJKAS_clean_linker_0, # of connection points: 2
#     Edge 71, Type (0, 0), BuildingBlock: ZUJKAS_clean_linker_0, # of connection points: 2
#     Edge 72, Type (0, 0), BuildingBlock: ZUJKAS_clean_linker_0, # of connection points: 2
#     Edge 73, Type (0, 0), BuildingBlock: ZUJKAS_clean_linker_0, # of connection points: 2
#     Edge 74, Type (0, 0), BuildingBlock: ZUJKAS_clean_linker_0, # of connection points: 2
#     Edge 75, Type (0, 0), BuildingBlock: ZUJKAS_clean_linker_0, # of connection points: 2
#     Edge 76, Type (0, 0), BuildingBlock: ZUJKAS_clean_linker_0, # of connection points: 2
#     Edge 77, Type (0, 0), BuildingBlock: ZUJKAS_clean_linker_0, # of connection points: 2
#     Edge 78, Type (0, 0), BuildingBlock: ZUJKAS_clean_linker_0, # of connection points: 2
#     Edge 79, Type (0, 0), BuildingBlock: ZUJKAS_clean_linker_0, # of connection points: 2
#     Edge 80, Type (0, 0), BuildingBlock: ZUJKAS_clean_linker_0, # of connection points: 2
#     Edge 81, Type (0, 0), BuildingBlock: ZUJKAS_clean_linker_0, # of connection points: 2
#     Edge 82, Type (0, 0), BuildingBlock: ZUJKAS_clean_linker_0, # of connection points: 2
#     Edge 83, Type (0, 0), BuildingBlock: ZUJKAS_clean_linker_0, # of connection points: 2
#     Edge 84, Type (0, 0), BuildingBlock: ZUJKAS_clean_linker_0, # of connection points: 2
#     Edge 85, Type (0, 0), BuildingBlock: ZUJKAS_clean_linker_0, # of connection points: 2
#     Edge 86, Type (0, 0), BuildingBlock: ZUJKAS_clean_linker_0, # of connection points: 2
#     Edge 87, Type (0, 0), BuildingBlock: ZUJKAS_clean_linker_0, # of connection points: 2
#     Edge 88, Type (0, 0), BuildingBlock: ZUJKAS_clean_linker_0, # of connection points: 2
#     Edge 89, Type (0, 0), BuildingBlock: ZUJKAS_clean_linker_0, # of connection points: 2
#     Edge 90, Type (0, 0), BuildingBlock: ZUJKAS_clean_linker_0, # of connection points: 2
#     Edge 91, Type (0, 0), BuildingBlock: ZUJKAS_clean_linker_0, # of connection points: 2
#     Edge 92, Type (0, 0), BuildingBlock: ZUJKAS_clean_linker_0, # of connection points: 2
#     Edge 93, Type (0, 0), BuildingBlock: ZUJKAS_clean_linker_0, # of connection points: 2
#     Edge 94, Type (0, 0), BuildingBlock: ZUJKAS_clean_linker_0, # of connection points: 2
#     Edge 95, Type (0, 0), BuildingBlock: ZUJKAS_clean_linker_0, # of connection points: 2
# Relax obj value: 0.186
# Max RMSD: 0.215
# Mean RMSD: 0.215
data_MOF--net-uke--node1-TATPOV_clean_sbu_0--edge1-ZUJKAS_clean_linker_0
_symmetry_space_group_name_H-M    P1
_symmetry_Int_Tables_number       1
_symmetry_cell_setting            triclinic
loop_
_symmetry_equiv_pos_as_xyz
'x, y, z'
_cell_length_a     35.903498
_cell_length_b     136.71623
_cell_length_c     59.9117
_cell_angle_alpha  89.954015
_cell_angle_beta   90.067794
_cell_angle_gamma 89.969723
loop_
_atom_site_label
_atom_site_type_symbol
_atom_site_fract_x
_atom_site_fract_y
_atom_site_fract_z
_atom_type_partial_charge
Zn0 Zn 0.17605 0.0441 0.27297 0.0
Zn1 Zn 0.10542 0.04206 0.28303 0.0
O2 O 0.13317 0.0298 0.29409 0.0
O3 O 0.19284 0.03321 0.29312 0.0
O4 O 0.05344 0.0404 0.29557 0.0
O5 O 0.17701 0.05818 0.2823 0.0
O6 O 0.12023 0.05572 0.29491 0.0
C7 C 0.16684 0.02731 0.29776 0.0
C8 C 0.12742 0.04009 0.23509 0.0
O9 O 0.10081 0.04141 0.24883 0.0
O10 O 0.161 0.04039 0.24155 0.0
C11 C 0.03842 0.0321 0.29893 0.0
O12 O 0.05619 0.02414 0.29283 0.0
C13 C 0.14849 0.06126 0.29247 0.0
Zn14 Zn 0.07325 0.17964 0.27375 0.0
Zn15 Zn 0.14268 0.18255 0.28059 0.0
O16 O 0.11412 0.1948 0.29146 0.0
O17 O 0.05587 0.19019 0.29432 0.0
O18 O 0.19512 0.18443 0.29261 0.0
O19 O 0.07282 0.16563 0.28279 0.0
O20 O 0.1303 0.16874 0.29323 0.0
C21 C 0.0805 0.19671 0.29678 0.0
C22 C 0.11573 0.18394 0.23354 0.0
O23 O 0.14427 0.18295 0.24609 0.0
O24 O 0.08327 0.18334 0.24169 0.0
C25 C 0.21005 0.19262 0.29727 0.0
O26 O 0.19217 0.20073 0.2924 0.0
C27 C 0.10272 0.16289 0.292 0.0
Zn28 Zn 0.17065 0.17615 0.95696 0.0
Zn29 Zn 0.10404 0.18156 0.94808 0.0
O30 O 0.13887 0.19325 0.94071 0.0
O31 O 0.19579 0.18743 0.9424 0.0
O32 O 0.05491 0.18507 0.93334 0.0
O33 O 0.1692 0.16309 0.94276 0.0
O34 O 0.11213 0.16763 0.93468 0.0
C35 C 0.17398 0.19454 0.93899 0.0
C36 C 0.12384 0.17998 -0.00376 0.0
O37 O 0.09746 0.18142 0.98229 0.0
O38 O 0.15607 0.17773 0.9893 0.0
C39 C 0.0279 0.19029 0.94016 0.0
O40 O 0.02981 0.19444 0.9599 0.0
C41 C 0.13805 0.16125 0.93392 0.0
Zn42 Zn 0.06302 0.04374 0.96519 0.0
Zn43 Zn 0.12807 0.04056 0.95012 0.0
O44 O 0.09611 0.0287 0.94055 0.0
O45 O 0.0389 0.03399 0.94498 0.0
O46 O 0.17733 0.03876 0.93434 0.0
O47 O 0.06289 0.05803 0.95842 0.0
O48 O 0.11311 0.05443 0.9391 0.0
C49 C 0.06108 0.02733 0.93879 0.0
C50 C 0.11526 0.0381 -0.0008 0.0
O51 O 0.13935 0.03956 0.98393 0.0
O52 O 0.08085 0.03884 -0.00505 0.0
C53 C 0.2016 0.03221 0.93834 0.0
O54 O 0.1953 0.02574 0.95412 0.0
C55 C 0.08806 0.06053 0.94487 0.0
Zn56 Zn 0.82794 0.92554 0.71581 0.0
Zn57 Zn 0.89699 0.92959 0.70289 0.0
O58 O 0.86705 0.94208 0.69602 0.0
O59 O 0.80898 0.93841 0.70424 0.0
O60 O 0.94691 0.93188 0.68817 0.0
O61 O 0.8234 0.91334 0.69785 0.0
O62 O 0.88206 0.91609 0.68953 0.0
C63 C 0.83288 0.94452 0.69742 0.0
C64 C 0.88319 0.92706 0.75186 0.0
O65 O 0.90629 0.92923 0.73653 0.0
O66 O 0.84968 0.92495 0.7472 0.0
C67 C 0.96212 0.94019 0.6854 0.0
O68 O 0.94581 0.94803 0.69345 0.0
C69 C 0.85317 0.91067 0.68841 0.0
Zn70 Zn 0.94829 0.79664 0.72905 0.0
Zn71 Zn 0.8508 0.7899 0.70236 0.0
O72 O 0.88002 0.77733 0.69475 0.0
O73 O 0.91723 0.78693 0.71186 0.0
O74 O 0.80457 0.79023 0.68322 0.0
O75 O 0.93649 0.80871 0.71044 0.0
O76 O 0.88102 0.80323 0.69808 0.0
C77 C 0.91129 0.77851 0.70406 0.0
C78 C 0.86641 0.78966 0.74687 0.0
O79 O 0.83707 0.78819 0.73551 0.0
O80 O 0.89505 0.79222 0.73606 0.0
C81 C 0.77843 0.78408 0.68604 0.0
O82 O 0.78133 0.77759 0.70213 0.0
C83 C 0.90642 0.80989 0.69915 0.0
Zn84 Zn 0.81557 0.79385 0.02557 0.0
Zn85 Zn 0.88504 0.79072 0.033 0.0
O86 O 0.85562 0.77832 0.04221 0.0
O87 O 0.79705 0.78276 0.04408 0.0
O88 O 0.9361 0.78864 0.04639 0.0
O89 O 0.81357 0.80747 0.0372 0.0
O90 O 0.8724 0.8046 0.04483 0.0
C91 C 0.82172 0.77624 0.04643 0.0
C92 C 0.86195 0.79014 0.98568 0.0
O93 O 0.88971 0.79052 -0.00105 0.0
O94 O 0.82905 0.79105 -0.00687 0.0
C95 C 0.95395 0.78061 0.04727 0.0
O96 O 0.94 0.77281 0.0376 0.0
C97 C 0.84429 0.81031 0.04517 0.0
Zn98 Zn 0.95346 0.92553 0.01124 0.0
Zn99 Zn 0.85268 0.93164 0.03264 0.0
O100 O 0.87941 0.94428 0.04224 0.0
O101 O 0.9205 0.9352 0.02698 0.0
O102 O 0.80393 0.93093 0.0492 0.0
O103 O 0.94006 0.91312 0.02812 0.0
O104 O 0.88288 0.91843 0.03744 0.0
C105 C 0.91188 0.94354 0.03431 0.0
C106 C 0.87391 0.93247 0.98872 0.0
O107 O 0.84348 0.93365 -0.00084 0.0
O108 O 0.90189 0.92986 0.00013 0.0
C109 C 0.78103 0.938 0.04776 0.0
O110 O 0.78928 0.94547 0.03488 0.0
C111 C 0.90834 0.91178 0.03744 0.0
Zn112 Zn 0.17316 0.54563 0.77352 0.0
Zn113 Zn 0.10252 0.54099 0.78137 0.0
O114 O 0.13352 0.52896 0.79082 0.0
O115 O 0.19217 0.53318 0.78679 0.0
O116 O 0.04997 0.5382 0.7925 0.0
O117 O 0.17188 0.55794 0.7912 0.0
O118 O 0.11247 0.5546 0.79557 0.0
C119 C 0.16805 0.52685 0.79206 0.0
C120 C 0.12662 0.5435 0.73348 0.0
O121 O 0.10046 0.54142 0.74709 0.0
O122 O 0.15872 0.54572 0.74075 0.0
C123 C 0.03995 0.53027 0.80192 0.0
O124 O 0.06373 0.52299 0.80334 0.0
C125 C 0.14015 0.56031 0.79854 0.0
Zn126 Zn 0.06976 0.67938 0.77131 0.0
Zn127 Zn 0.13818 0.68245 0.78296 0.0
O128 O 0.10703 0.69417 0.79437 0.0
O129 O 0.0486 0.68973 0.79097 0.0
O130 O 0.18903 0.68443 0.79694 0.0
O131 O 0.06892 0.66539 0.7804 0.0
O132 O 0.12532 0.66829 0.79303 0.0
C133 C 0.07247 0.69599 0.79703 0.0
C134 C 0.11927 0.68457 0.73457 0.0
O135 O 0.14522 0.68382 0.74902 0.0
O136 O 0.08561 0.68332 0.74025 0.0
C137 C 0.20195 0.69271 0.8028 0.0
O138 O 0.18246 0.70065 0.79871 0.0
C139 C 0.09787 0.66247 0.79039 0.0
Zn140 Zn 0.20477 0.67561 0.47279 0.0
Zn141 Zn 0.10338 0.68049 0.45345 0.0
O142 O 0.12787 0.69321 0.44215 0.0
O143 O 0.17016 0.68449 0.45702 0.0
O144 O 0.05351 0.67935 0.43802 0.0
O145 O 0.19197 0.66277 0.45817 0.0
O146 O 0.13374 0.66734 0.44923 0.0
C147 C 0.16066 0.69272 0.44964 0.0
C148 C 0.12674 0.68252 0.49818 0.0
O149 O 0.09673 0.68293 0.48687 0.0
O150 O 0.15643 0.67988 0.48847 0.0
C151 C 0.03262 0.68685 0.43683 0.0
O152 O 0.04339 0.69497 0.44661 0.0
C153 C 0.16007 0.66093 0.44961 0.0
Zn154 Zn 0.05673 0.54277 0.4562 0.0
Zn155 Zn 0.12582 0.53951 0.44814 0.0
O156 O 0.09524 0.52739 0.43859 0.0
O157 O 0.03715 0.5322 0.4365 0.0
O158 O 0.17627 0.5372 0.43403 0.0
O159 O 0.05601 0.55668 0.44628 0.0
O160 O 0.11391 0.55352 0.437 0.0
C161 C 0.06124 0.52554 0.43408 0.0
C162 C 0.1032 0.53841 0.49554 0.0
O163 O 0.13077 0.53907 0.48221 0.0
O164 O 0.07015 0.53927 0.48826 0.0
C165 C 0.20797 0.53681 0.44347 0.0
O166 O 0.21018 0.53758 0.46529 0.0
C167 C 0.08647 0.55943 0.43782 0.0
Zn168 Zn 0.83853 0.42278 0.22478 0.0
Zn169 Zn 0.895 0.42903 0.20227 0.0
O170 O 0.85645 0.44009 0.19715 0.0
O171 O 0.80892 0.43462 0.21661 0.0
O172 O 0.93886 0.43256 0.18266 0.0
O173 O 0.83242 0.41023 0.20895 0.0
O174 O 0.88295 0.41479 0.19111 0.0
C175 C 0.82357 0.44125 0.20479 0.0
C176 C 0.90043 0.42722 0.25278 0.0
O177 O 0.91486 0.43019 0.23459 0.0
O178 O 0.86867 0.42323 0.25287 0.0
C179 C 0.95704 0.44053 0.18353 0.0
O180 O 0.94725 0.44725 0.19806 0.0
C181 C 0.85777 0.40841 0.19497 0.0
Zn182 Zn 0.94481 0.29374 0.22738 0.0
Zn183 Zn 0.84259 0.28942 0.20332 0.0
O184 O 0.86741 0.2763 0.1947 0.0
O185 O 0.9092 0.28492 0.21068 0.0
O186 O 0.79432 0.29029 0.18616 0.0
O187 O 0.93357 0.30613 0.2097 0.0
O188 O 0.87566 0.30225 0.19755 0.0
C189 C 0.90001 0.27676 0.20255 0.0
C190 C 0.86298 0.28903 0.24671 0.0
O191 O 0.83165 0.28822 0.23709 0.0
O192 O 0.89048 0.29058 0.23405 0.0
C193 C 0.77283 0.2829 0.18623 0.0
O194 O 0.78227 0.27519 0.19806 0.0
C195 C 0.90381 0.30813 0.19867 0.0
Zn196 Zn 0.82233 0.29577 0.52423 0.0
Zn197 Zn 0.89112 0.29204 0.5327 0.0
O198 O 0.86053 0.2797 0.54117 0.0
O199 O 0.802 0.28432 0.54063 0.0
O200 O 0.94154 0.28966 0.54675 0.0
O201 O 0.82026 0.309 0.53775 0.0
O202 O 0.87892 0.30585 0.54534 0.0
C203 C 0.82611 0.27775 0.54403 0.0
C204 C 0.87012 0.29252 0.48482 0.0
O205 O 0.89714 0.29211 0.49863 0.0
O206 O 0.83715 0.29385 0.49181 0.0
C207 C 0.96406 0.28266 0.54312 0.0
O208 O 0.95581 0.27607 0.52795 0.0
C209 C 0.85095 0.31161 0.54615 0.0
Zn210 Zn 0.93019 0.4299 0.53008 0.0
Zn211 Zn 0.8589 0.43306 0.53194 0.0
O212 O 0.88482 0.44559 0.54302 0.0
O213 O 0.94353 0.44173 0.54797 0.0
O214 O 0.80494 0.43459 0.54085 0.0
O215 O 0.93001 0.41657 0.54359 0.0
O216 O 0.86995 0.41943 0.54552 0.0
C217 C 0.91775 0.44803 0.54874 0.0
C218 C 0.89256 0.43294 0.48668 0.0
O219 O 0.86233 0.4332 0.49783 0.0
O220 O 0.92344 0.43169 0.49663 0.0
C221 C 0.7879 0.44255 0.54489 0.0
O222 O 0.80491 0.45092 0.54139 0.0
C223 C 0.89769 0.41379 0.54894 0.0
Zn224 Zn 0.68551 0.04872 0.74351 0.0
Zn225 Zn 0.59438 0.04109 0.77778 0.0
O226 O 0.62952 0.02941 0.78554 0.0
O227 O 0.65984 0.03915 0.76437 0.0
O228 O 0.54892 0.04091 0.79795 0.0
O229 O 0.67228 0.06079 0.76169 0.0
O230 O 0.62096 0.05523 0.77961 0.0
C231 C 0.65832 0.03091 0.77389 0.0
C232 C 0.60464 0.04037 0.73329 0.0
O233 O 0.57659 0.03837 0.74525 0.0
O234 O 0.63278 0.04349 0.7437 0.0
C235 C 0.54212 0.03388 0.81128 0.0
O236 O 0.5656 0.02652 0.81242 0.0
C237 C 0.64506 0.06202 0.77532 0.0
Zn238 Zn 0.5679 0.18023 0.77114 0.0
Zn239 Zn 0.6347 0.18293 0.78167 0.0
O240 O 0.60368 0.19504 0.79131 0.0
O241 O 0.54605 0.18986 0.79251 0.0
O242 O 0.68557 0.18485 0.79598 0.0
O243 O 0.56665 0.16592 0.77701 0.0
O244 O 0.62113 0.16881 0.79239 0.0
C245 C 0.56937 0.19666 0.79548 0.0
C246 C 0.61482 0.18552 0.73383 0.0
O247 O 0.64141 0.18381 0.74746 0.0
O248 O 0.58135 0.18512 0.74042 0.0
C249 C 0.70019 0.19303 0.80109 0.0
O250 O 0.68264 0.20116 0.79594 0.0
C251 C 0.59444 0.16295 0.78803 0.0
Zn252 Zn 0.67547 0.17638 0.45958 0.0
Zn253 Zn 0.60817 0.18144 0.44926 0.0
O254 O 0.6403 0.19373 0.44307 0.0
O255 O 0.69783 0.18875 0.44842 0.0
O256 O 0.55876 0.18436 0.43427 0.0
O257 O 0.6785 0.16425 0.44172 0.0
O258 O 0.62002 0.16788 0.43493 0.0
C259 C 0.67518 0.1955 0.44348 0.0
C260 C 0.62464 0.17829 0.49768 0.0
O261 O 0.60022 0.18072 0.4832 0.0
O262 O 0.65724 0.17593 0.49157 0.0
C263 C 0.53314 0.19032 0.43968 0.0
O264 O 0.53686 0.19563 0.45781 0.0
C265 C 0.64768 0.16208 0.43286 0.0
Zn266 Zn 0.57002 0.04372 0.45835 0.0
Zn267 Zn 0.6387 0.04057 0.44926 0.0
O268 O 0.60827 0.02858 0.43871 0.0
O269 O 0.55019 0.03349 0.43782 0.0
O270 O 0.68994 0.03862 0.43605 0.0
O271 O 0.56937 0.05777 0.44955 0.0
O272 O 0.62618 0.05457 0.43817 0.0
C273 C 0.57407 0.02686 0.43446 0.0
C274 C 0.61673 0.0385 0.49667 0.0
O275 O 0.64401 0.03959 0.48331 0.0
O276 O 0.58354 0.03947 0.48978 0.0
C277 C 0.70524 0.03043 0.43193 0.0
O278 O 0.68799 0.02232 0.43752 0.0
C279 C 0.59891 0.06051 0.43997 0.0
Zn280 Zn 0.28869 0.92698 0.23358 0.0
Zn281 Zn 0.38429 0.93435 0.2049 0.0
O282 O 0.35193 0.94619 0.19523 0.0
O283 O 0.31752 0.93652 0.21417 0.0
O284 O 0.43091 0.934 0.1862 0.0
O285 O 0.303 0.91468 0.2165 0.0
O286 O 0.35678 0.92046 0.20213 0.0
C287 C 0.32103 0.94475 0.20482 0.0
C288 C 0.36836 0.9355 0.24879 0.0
O289 O 0.39787 0.93724 0.23789 0.0
O290 O 0.34115 0.93233 0.23753 0.0
C291 C 0.45354 0.94114 0.18582 0.0
O292 O 0.44645 0.9489 0.19804 0.0
C293 C 0.33246 0.91358 0.20463 0.0
Zn294 Zn 0.41791 0.79792 0.20496 0.0
Zn295 Zn 0.34656 0.79401 0.19945 0.0
O296 O 0.37542 0.78146 0.19168 0.0
O297 O 0.43504 0.78507 0.19232 0.0
O298 O 0.2949 0.79148 0.18733 0.0
O299 O 0.41818 0.81028 0.18694 0.0
O300 O 0.35792 0.80759 0.18555 0.0
C301 C 0.40933 0.77887 0.18951 0.0
C302 C 0.37163 0.79656 0.24614 0.0
O303 O 0.34418 0.79469 0.23333 0.0
O304 O 0.40361 0.79832 0.23802 0.0
C305 C 0.27845 0.78325 0.18684 0.0
O306 O 0.29421 0.77563 0.19636 0.0
C307 C 0.38588 0.81304 0.18136 0.0
Zn308 Zn 0.31708 0.79844 0.52145 0.0
Zn309 Zn 0.38267 0.79139 0.53252 0.0
O310 O 0.34644 0.7802 0.53998 0.0
O311 O 0.29172 0.78596 0.53002 0.0
O312 O 0.43137 0.78657 0.54525 0.0
O313 O 0.31973 0.80965 0.54256 0.0
O314 O 0.3775 0.80491 0.54815 0.0
C315 C 0.31148 0.77902 0.53743 0.0
C316 C 0.36775 0.79599 0.4841 0.0
O317 O 0.38921 0.79207 0.49851 0.0
O318 O 0.33701 0.79975 0.48996 0.0
C319 C 0.46212 0.79071 0.5407 0.0
O320 O 0.46248 0.79791 0.52616 0.0
C321 C 0.35128 0.81106 0.55134 0.0
Zn322 Zn 0.42197 0.92511 0.51682 0.0
Zn323 Zn 0.35829 0.93103 0.53312 0.0
O324 O 0.39271 0.94286 0.53844 0.0
O325 O 0.4468 0.93751 0.52628 0.0
O326 O 0.31118 0.93422 0.55004 0.0
O327 O 0.42672 0.91306 0.53502 0.0
O328 O 0.37122 0.91739 0.54683 0.0
C329 C 0.42718 0.9443 0.53452 0.0
C330 C 0.36403 0.92792 0.48344 0.0
O331 O 0.34446 0.9309 0.49982 0.0
O332 O 0.3967 0.92469 0.48661 0.0
C333 C 0.28675 0.94063 0.54532 0.0
O334 O 0.29106 0.94611 0.52748 0.0
C335 C 0.39822 0.91131 0.54668 0.0
Zn336 Zn 0.69408 0.54933 0.2526 0.0
Zn337 Zn 0.59755 0.54208 0.27951 0.0
O338 O 0.6263 0.52924 0.28496 0.0
O339 O 0.66556 0.53843 0.26805 0.0
O340 O 0.55223 0.5423 0.29951 0.0
O341 O 0.68389 0.56096 0.27303 0.0
O342 O 0.62883 0.55512 0.28487 0.0
C343 C 0.65736 0.53 0.27513 0.0
C344 C 0.61198 0.54294 0.23549 0.0
O345 O 0.58235 0.5412 0.2463 0.0
O346 O 0.64027 0.54514 0.24702 0.0
C347 C 0.52744 0.53567 0.29853 0.0
O348 O 0.53096 0.52864 0.28374 0.0
C349 C 0.6541 0.56182 0.28467 0.0
Zn350 Zn 0.54086 0.67374 0.24951 0.0
Zn351 Zn 0.63498 0.68083 0.27997 0.0
O352 O 0.60496 0.69358 0.28529 0.0
O353 O 0.57032 0.68377 0.26682 0.0
O354 O 0.6798 0.68073 0.3003 0.0
O355 O 0.5497 0.66216 0.27032 0.0
O356 O 0.60402 0.66763 0.28459 0.0
C357 C 0.57539 0.69231 0.27418 0.0
C358 C 0.62459 0.68034 0.23496 0.0
O359 O 0.65264 0.68195 0.2473 0.0
O360 O 0.59494 0.67791 0.24487 0.0
C361 C 0.70522 0.68711 0.2979 0.0
O362 O 0.70173 0.69371 0.28207 0.0
C363 C 0.57821 0.66108 0.28305 0.0
Zn364 Zn 0.67599 0.68212 0.95567 0.0
Zn365 Zn 0.60608 0.6846 0.94943 0.0
O366 O 0.63333 0.69726 0.93965 0.0
O367 O 0.69219 0.69326 0.93656 0.0
O368 O 0.55347 0.68617 0.93785 0.0
O369 O 0.67899 0.66847 0.94448 0.0
O370 O 0.61981 0.67087 0.93703 0.0
C371 C 0.66674 0.6996 0.93475 0.0
C372 C 0.63207 0.68528 -0.0036 0.0
O373 O 0.6038 0.68462 0.98358 0.0
O374 O 0.66469 0.68481 0.98836 0.0
C375 C 0.53632 0.69423 0.93526 0.0
O376 O 0.55242 0.70241 0.94157 0.0
C377 C 0.64853 0.66537 0.93666 0.0
Zn378 Zn 0.57271 0.54593 0.96274 0.0
Zn379 Zn 0.63911 0.54216 0.95068 0.0
O380 O 0.60574 0.53055 0.94059 0.0
O381 O 0.54856 0.53609 0.9431 0.0
O382 O 0.68864 0.53981 0.93549 0.0
O383 O 0.57282 0.56 0.95448 0.0
O384 O 0.6279 0.55646 0.94082 0.0
C385 C 0.57077 0.52929 0.93794 0.0
C386 C 0.62214 0.54025 -0.00093 0.0
O387 O 0.64787 0.54097 0.98451 0.0
O388 O 0.58842 0.54158 -0.00641 0.0
C389 C 0.70682 0.53183 0.93502 0.0
O390 O 0.69389 0.52418 0.94579 0.0
C391 C 0.6017 0.56261 0.94405 0.0
Zn392 Zn 0.29003 0.42796 0.7236 0.0
Zn393 Zn 0.39176 0.43334 0.70063 0.0
O394 O 0.36477 0.446 0.69065 0.0
O395 O 0.32478 0.43685 0.70663 0.0
O396 O 0.44001 0.43258 0.68345 0.0
O397 O 0.30313 0.4155 0.70677 0.0
O398 O 0.36087 0.42005 0.69605 0.0
C399 C 0.33223 0.44511 0.69838 0.0
C400 C 0.37035 0.43423 0.74388 0.0
O401 O 0.40161 0.43537 0.73435 0.0
O402 O 0.34341 0.43197 0.73129 0.0
C403 C 0.46452 0.43923 0.68561 0.0
O404 O 0.45869 0.44633 0.69994 0.0
C405 C 0.33411 0.41373 0.69687 0.0
Zn406 Zn 0.42667 0.29452 0.7075 0.0
Zn407 Zn 0.35902 0.29137 0.6982 0.0
O408 O 0.39108 0.27926 0.68987 0.0
O409 O 0.44875 0.28435 0.68771 0.0
O410 O 0.30901 0.28915 0.68341 0.0
O411 O 0.42818 0.30865 0.69941 0.0
O412 O 0.37112 0.30562 0.68824 0.0
C413 C 0.42537 0.27749 0.68596 0.0
C414 C 0.37865 0.28934 0.74546 0.0
O415 O 0.35157 0.29055 0.73196 0.0
O416 O 0.41198 0.2902 0.73875 0.0
C417 C 0.29305 0.28096 0.68036 0.0
O418 O 0.30874 0.27295 0.68807 0.0
C419 C 0.39833 0.31155 0.69041 0.0
Zn420 Zn 0.31584 0.3001 0.01771 0.0
Zn421 Zn 0.3835 0.29414 0.02856 0.0
O422 O 0.3506 0.28212 0.035 0.0
O423 O 0.29392 0.28737 0.02781 0.0
O424 O 0.43477 0.29085 0.04045 0.0
O425 O 0.3163 0.31188 0.0373 0.0
O426 O 0.3736 0.3073 0.04485 0.0
C427 C 0.31569 0.28052 0.03354 0.0
C428 C 0.36621 0.29805 0.98 0.0
O429 O 0.38954 0.29519 -0.00534 0.0
O430 O 0.33404 0.3009 0.9858 0.0
C431 C 0.44505 0.28269 0.0486 0.0
O432 O 0.42173 0.27529 0.04861 0.0
C433 C 0.3469 0.31338 0.04715 0.0
Zn434 Zn 0.40935 0.42457 0.0115 0.0
Zn435 Zn 0.34804 0.43156 0.02869 0.0
O436 O 0.38417 0.44321 0.03244 0.0
O437 O 0.43534 0.4372 0.01756 0.0
O438 O 0.30137 0.4353 0.04551 0.0
O439 O 0.41522 0.4135 0.03256 0.0
O440 O 0.3602 0.41827 0.04436 0.0
C441 C 0.41808 0.44425 0.02652 0.0
C442 C 0.35009 0.42678 0.97932 0.0
O443 O 0.33302 0.43078 -0.00443 0.0
O444 O 0.38186 0.42295 0.98222 0.0
C445 C 0.28095 0.44285 0.04336 0.0
O446 O 0.28957 0.44949 0.02838 0.0
C447 C 0.38731 0.41223 0.04502 0.0
H448 H 0.08922 0.02311 0.02375 0.0
H449 H 0.09464 0.02108 0.06419 0.0
H450 H 0.16827 0.04598 0.06711 0.0
H451 H 0.16415 0.04774 0.02633 0.0
H452 H 0.18649 0.03189 0.09806 0.0
H453 H 0.03528 0.0402 0.10137 0.0
H454 H 0.04622 0.02953 0.08527 0.0
H455 H 0.06214 0.04134 0.07611 0.0
C456 C 0.10742 0.02796 0.03301 0.0
C457 C 0.12608 0.03562 0.02214 0.0
C458 C 0.11022 0.02685 0.05607 0.0
C459 C 0.13078 0.03359 0.06869 0.0
C460 C 0.15192 0.04077 0.05766 0.0
H461 H 0.09128 0.05149 0.20471 0.0
H462 H 0.09111 0.04922 0.16403 0.0
C463 C 0.14972 0.04176 0.03442 0.0
C464 C 0.1275 0.03369 0.09334 0.0
H465 H 0.06442 0.03624 0.13557 0.0
C466 C 0.15985 0.03283 0.1063 0.0
C467 C 0.09269 0.03508 0.10401 0.0
C468 C 0.05714 0.03669 0.091 0.0
C469 C 0.15841 0.03333 0.12969 0.0
C470 C 0.12344 0.03446 0.14039 0.0
C471 C 0.09111 0.03529 0.12738 0.0
C472 C 0.12001 0.03529 0.16499 0.0
C473 C 0.19455 0.033 0.14258 0.0
C474 C 0.13473 0.02804 0.17903 0.0
C475 C 0.13545 0.02943 0.20209 0.0
C476 C 0.12022 0.03793 0.21151 0.0
C477 C 0.10288 0.04485 0.19771 0.0
C478 C 0.10296 0.04356 0.17454 0.0
H479 H 0.21873 0.03492 0.13189 0.0
H480 H 0.19394 0.03808 0.15702 0.0
H481 H 0.1991 0.02547 0.14895 0.0
H482 H 0.14676 0.02144 0.17213 0.0
H483 H 0.1488 0.024 0.21257 0.0
H484 H 0.05884 0.18368 0.01955 0.0
H485 H 0.0529 0.18658 0.06 0.0
H486 H 0.17139 0.18276 0.0678 0.0
H487 H 0.17765 0.17982 0.02807 0.0
H488 H 0.07827 0.17316 0.09562 0.0
H489 H 0.14785 0.20932 0.09919 0.0
H490 H 0.12781 0.20444 0.07385 0.0
H491 H 0.17284 0.20037 0.08316 0.0
C492 C 0.08354 0.18346 0.02993 0.0
C493 C 0.11866 0.18149 0.02054 0.0
C494 C 0.08014 0.18515 0.05296 0.0
C495 C 0.11186 0.18505 0.06673 0.0
C496 C 0.1467 0.18305 0.05739 0.0
H497 H 0.16846 0.17687 0.20456 0.0
H498 H 0.16697 0.17806 0.16352 0.0
C499 C 0.1501 0.18128 0.03462 0.0
C500 C 0.10918 0.1865 0.09113 0.0
H501 H 0.14408 0.2004 0.13367 0.0
C502 C 0.09207 0.17919 0.10395 0.0
C503 C 0.1273 0.19438 0.1019 0.0
C504 C 0.14472 0.20263 0.08884 0.0
C505 C 0.09415 0.17934 0.12734 0.0
C506 C 0.1139 0.18695 0.13802 0.0
C507 C 0.1296 0.19449 0.1253 0.0
C508 C 0.11772 0.18718 0.16254 0.0
C509 C 0.07604 0.17125 0.14059 0.0
C510 C 0.09107 0.19211 0.1753 0.0
C511 C 0.09165 0.19135 0.19851 0.0
C512 C 0.11915 0.18575 0.20935 0.0
C513 C 0.14714 0.18127 0.19659 0.0
C514 C 0.14623 0.18192 0.17325 0.0
H515 H 0.05991 0.16617 0.12984 0.0
H516 H 0.09779 0.16703 0.14959 0.0
H517 H 0.05707 0.17442 0.15331 0.0
H518 H 0.069 0.19622 0.16726 0.0
H519 H 0.06993 0.19496 0.20798 0.0
H520 H 0.93243 0.92741 0.96244 0.0
H521 H 0.93708 0.92859 0.92201 0.0
H522 H 0.82776 0.94167 0.91918 0.0
H523 H 0.82231 0.94015 0.95982 0.0
H524 H 0.8327 0.92781 0.88998 0.0
H525 H 0.95805 0.95068 0.88065 0.0
H526 H 0.96823 0.94032 0.89792 0.0
H527 H 0.93457 0.94925 0.90706 0.0
C528 C 0.90943 0.93061 0.95326 0.0
C529 C 0.87688 0.93364 0.96429 0.0
C530 C 0.91236 0.93139 0.93012 0.0
C531 C 0.88315 0.93541 0.91754 0.0
C532 C 0.85078 0.9386 0.92856 0.0
H533 H 0.90401 0.94362 0.77311 0.0
H534 H 0.90523 0.94621 0.81363 0.0
C535 C 0.84764 0.93771 0.95175 0.0
C536 C 0.88511 0.93538 0.89281 0.0
H537 H 0.94227 0.94054 0.84883 0.0
C538 C 0.85643 0.93072 0.88098 0.0
C539 C 0.91566 0.93935 0.88094 0.0
C540 C 0.9456 0.94528 0.89232 0.0
C541 C 0.85812 0.92958 0.85777 0.0
C542 C 0.89025 0.93276 0.84614 0.0
C543 C 0.91817 0.93783 0.8578 0.0
C544 C 0.89486 0.93101 0.82184 0.0
C545 C 0.82508 0.92507 0.84604 0.0
C546 C 0.89061 0.92155 0.81302 0.0
C547 C 0.889 0.92013 0.78997 0.0
C548 C 0.89338 0.92807 0.77543 0.0
C549 C 0.90104 0.93738 0.78413 0.0
C550 C 0.90155 0.93886 0.80723 0.0
H551 H 0.79903 0.92613 0.85574 0.0
H552 H 0.821 0.92825 0.82916 0.0
H553 H 0.82962 0.91707 0.84433 0.0
H554 H 0.88682 0.91533 0.82396 0.0
H555 H 0.88301 0.9129 0.78351 0.0
H556 H 0.92102 0.79545 0.95915 0.0
H557 H 0.92471 0.79407 0.91825 0.0
H558 H 0.81875 0.77922 0.9174 0.0
H559 H 0.81432 0.78088 0.95783 0.0
H560 H 0.92172 0.77831 0.88794 0.0
H561 H 0.7994 0.80275 0.87772 0.0
H562 H 0.82316 0.8013 0.90406 0.0
H563 H 0.79025 0.79224 0.8948 0.0
C564 C 0.89872 0.79184 0.95018 0.0
C565 C 0.86703 0.78846 0.96154 0.0
C566 C 0.90085 0.79105 0.92688 0.0
C567 C 0.87151 0.78677 0.91478 0.0
C568 C 0.84114 0.78281 0.92634 0.0
H569 H 0.8132 0.78188 0.77439 0.0
H570 H 0.81611 0.78022 0.81511 0.0
C571 C 0.8387 0.78375 0.94944 0.0
C572 C 0.87145 0.78684 0.89006 0.0
H573 H 0.82144 0.79488 0.84515 0.0
C574 C 0.89993 0.78196 0.87854 0.0
C575 C 0.84289 0.7916 0.87786 0.0
C576 C 0.81239 0.79735 0.88922 0.0
C577 C 0.9002 0.78154 0.85509 0.0
C578 C 0.87157 0.7863 0.84294 0.0
C579 C 0.84318 0.79118 0.8545 0.0
C580 C 0.87098 0.78665 0.81821 0.0
C581 C 0.93069 0.77585 0.84362 0.0
C582 C 0.90069 0.79088 0.80649 0.0
C583 C 0.89916 0.79178 0.78331 0.0
C584 C 0.86759 0.78863 0.7714 0.0
C585 C 0.83778 0.78442 0.78313 0.0
C586 C 0.83948 0.78344 0.80636 0.0
H587 H 0.94315 0.77029 0.8549 0.0
H588 H 0.92012 0.77212 0.82842 0.0
H589 H 0.95316 0.78096 0.83857 0.0
H590 H 0.92479 0.79367 0.81531 0.0
H591 H 0.92254 0.79509 0.77475 0.0
H592 H 0.071 0.53388 0.71088 0.0
H593 H 0.06678 0.5312 0.67042 0.0
H594 H 0.1653 0.54872 0.66069 0.0
H595 H 0.17011 0.55127 0.70084 0.0
H596 H 0.06053 0.5444 0.63553 0.0
H597 H 0.19229 0.52359 0.6282 0.0
H598 H 0.17026 0.52597 0.65472 0.0
H599 H 0.19835 0.53522 0.64156 0.0
C600 C 0.09156 0.53721 0.70008 0.0
C601 C 0.12106 0.54272 0.70907 0.0
C602 C 0.08925 0.53563 0.67701 0.0
C603 C 0.11636 0.53953 0.66265 0.0
C604 C 0.1448 0.54538 0.67153 0.0
H605 H 0.16017 0.54499 0.52201 0.0
H606 H 0.16324 0.54421 0.56295 0.0
C607 C 0.14729 0.5469 0.69449 0.0
C608 C 0.11466 0.53776 0.63827 0.0
H609 H 0.16595 0.52955 0.59409 0.0
C610 C 0.08334 0.54105 0.62646 0.0
C611 C 0.14451 0.53338 0.62653 0.0
C612 C 0.17809 0.52925 0.63842 0.0
C613 C 0.08172 0.54048 0.6031 0.0
C614 C 0.11199 0.53631 0.59127 0.0
C615 C 0.14291 0.53279 0.60315 0.0
C616 C 0.11242 0.53583 0.56654 0.0
C617 C 0.04822 0.54473 0.5913 0.0
C618 C 0.0838 0.53102 0.555 0.0
C619 C 0.08167 0.53162 0.5318 0.0
C620 C 0.10871 0.5368 0.51965 0.0
C621 C 0.13895 0.54098 0.53103 0.0
C622 C 0.14067 0.54054 0.55436 0.0
H623 H 0.03268 0.54991 0.60214 0.0
H624 H 0.05649 0.54863 0.57582 0.0
H625 H 0.02892 0.53873 0.58669 0.0
H626 H 0.06247 0.52704 0.56398 0.0
H627 H 0.05844 0.52816 0.52335 0.0
H628 H 0.07368 0.69384 0.70553 0.0
H629 H 0.0816 0.6956 0.66533 0.0
H630 H 0.19016 0.68225 0.66975 0.0
H631 H 0.18263 0.68054 0.71046 0.0
H632 H 0.17438 0.7006 0.63682 0.0
H633 H 0.08298 0.66784 0.63014 0.0
H634 H 0.06815 0.67729 0.64904 0.0
H635 H 0.10986 0.67051 0.6549 0.0
C636 C 0.09953 0.6914 0.69804 0.0
C637 C 0.12729 0.68688 0.71101 0.0
C638 C 0.10405 0.69247 0.67512 0.0
C639 C 0.13622 0.68896 0.6647 0.0
C640 C 0.16514 0.685 0.67766 0.0
H641 H 0.18777 0.68226 0.5249 0.0
H642 H 0.19079 0.68479 0.56498 0.0
C643 C 0.16079 0.68401 0.7008 0.0
C644 C 0.13701 0.68839 0.64015 0.0
H645 H 0.09665 0.67623 0.59677 0.0
C646 C 0.1577 0.69525 0.62796 0.0
C647 C 0.11497 0.68142 0.62883 0.0
C648 C 0.09285 0.67378 0.64131 0.0
C649 C 0.1562 0.69542 0.60452 0.0
C650 C 0.13374 0.6885 0.59323 0.0
C651 C 0.11345 0.68159 0.60551 0.0
C652 C 0.13206 0.6879 0.56863 0.0
C653 C 0.17794 0.70313 0.59208 0.0
C654 C 0.09778 0.68865 0.55739 0.0
C655 C 0.09576 0.68708 0.53434 0.0
C656 C 0.12801 0.68466 0.52231 0.0
C657 C 0.16232 0.6841 0.53364 0.0
C658 C 0.16427 0.68565 0.55657 0.0
H659 H 0.1852 0.70941 0.60302 0.0
H660 H 0.2043 0.69989 0.58587 0.0
H661 H 0.16199 0.70589 0.57748 0.0
H662 H 0.07254 0.69031 0.56653 0.0
H663 H 0.069 0.6876 0.52606 0.0
H664 H 0.95308 0.43406 0.45955 0.0
H665 H 0.9546 0.43606 0.41934 0.0
H666 H 0.83459 0.43748 0.41765 0.0
H667 H 0.8327 0.43526 0.45831 0.0
H668 H 0.8601 0.42496 0.3878 0.0
H669 H 0.93983 0.45911 0.37878 0.0
H670 H 0.96469 0.45081 0.39652 0.0
H671 H 0.91977 0.45536 0.40504 0.0
C672 C 0.92688 0.43484 0.45075 0.0
C673 C 0.8927 0.43441 0.46218 0.0
C674 C 0.92788 0.43614 0.42771 0.0
C675 C 0.8948 0.43714 0.4155 0.0
C676 C 0.86051 0.43683 0.42681 0.0
H677 H 0.90072 0.4452 0.27088 0.0
H678 H 0.90127 0.44858 0.31101 0.0
C679 C 0.85946 0.43552 0.45 0.0
C680 C 0.89643 0.43742 0.39079 0.0
H681 H 0.94319 0.44788 0.34727 0.0
C682 C 0.8778 0.43008 0.37891 0.0
C683 C 0.91883 0.44422 0.37908 0.0
C684 C 0.93652 0.45288 0.39053 0.0
C685 C 0.88258 0.429 0.35585 0.0
C686 C 0.908 0.43517 0.34449 0.0
C687 C 0.92484 0.44291 0.35611 0.0
C688 C 0.91632 0.4338 0.32045 0.0
C689 C 0.86003 0.42127 0.34395 0.0
C690 C 0.92745 0.4246 0.3124 0.0
C691 C 0.92648 0.42263 0.28954 0.0
C692 C 0.91602 0.42997 0.27445 0.0
C693 C 0.90954 0.43949 0.28228 0.0
C694 C 0.90951 0.4414 0.3052 0.0
H695 H 0.83414 0.41948 0.35324 0.0
H696 H 0.8522 0.42365 0.32685 0.0
H697 H 0.8767 0.41445 0.3427 0.0
H698 H 0.93411 0.41873 0.32387 0.0
H699 H 0.93113 0.41522 0.2838 0.0
H700 H 0.92782 0.28974 0.27031 0.0
H701 H 0.93573 0.2895 0.31082 0.0
H702 H 0.81681 0.28702 0.31911 0.0
H703 H 0.80857 0.28733 0.27848 0.0
H704 H 0.8513 0.30217 0.34427 0.0
H705 H 0.92412 0.26655 0.35537 0.0
H706 H 0.94363 0.27469 0.33491 0.0
H707 H 0.89826 0.26955 0.3304 0.0
C708 C 0.90332 0.2891 0.28073 0.0
C709 C 0.8675 0.28861 0.27122 0.0
C710 C 0.90796 0.28887 0.30388 0.0
C711 C 0.87691 0.28812 0.31792 0.0
C712 C 0.84114 0.28755 0.30849 0.0
H713 H 0.8181 0.28741 0.45423 0.0
H714 H 0.82505 0.28615 0.41396 0.0
C715 C 0.83646 0.28774 0.28532 0.0
C716 C 0.88142 0.28858 0.34245 0.0
H717 H 0.91629 0.27633 0.38765 0.0
C718 C 0.86563 0.29654 0.35373 0.0
C719 C 0.90053 0.28127 0.35468 0.0
C720 C 0.91743 0.27248 0.34332 0.0
C721 C 0.86781 0.29732 0.377 0.0
C722 C 0.88584 0.28987 0.38932 0.0
C723 C 0.90266 0.28204 0.37806 0.0
C724 C 0.8837 0.28969 0.41393 0.0
C725 C 0.85027 0.30602 0.38835 0.0
C726 C 0.91483 0.2918 0.4273 0.0
C727 C 0.91101 0.29252 0.45056 0.0
C728 C 0.87595 0.29118 0.46057 0.0
C729 C 0.84534 0.28868 0.44705 0.0
C730 C 0.84924 0.28791 0.42402 0.0
H731 H 0.84515 0.31213 0.37648 0.0
H732 H 0.82313 0.30381 0.39563 0.0
H733 H 0.86826 0.30871 0.40214 0.0
H734 H 0.94169 0.29317 0.4197 0.0
H735 H 0.93509 0.29439 0.46058 0.0
H736 H 0.55617 0.02995 0.70701 0.0
H737 H 0.56161 0.02688 0.66673 0.0
H738 H 0.66121 0.04449 0.66461 0.0
H739 H 0.65651 0.04736 0.70459 0.0
H740 H 0.56047 0.03992 0.63306 0.0
H741 H 0.69568 0.02053 0.6316 0.0
H742 H 0.67 0.02255 0.65708 0.0
H743 H 0.69889 0.03208 0.64563 0.0
C744 C 0.57919 0.03314 0.69789 0.0
C745 C 0.60595 0.03886 0.70892 0.0
C746 C 0.58242 0.03134 0.67497 0.0
C747 C 0.61241 0.03524 0.6628 0.0
C748 C 0.63861 0.04112 0.67377 0.0
H749 H 0.66957 0.04559 0.52547 0.0
H750 H 0.67051 0.04338 0.56625 0.0
C751 C 0.6356 0.04285 0.69661 0.0
C752 C 0.61503 0.03382 0.63834 0.0
H753 H 0.67461 0.02717 0.59654 0.0
C754 C 0.58518 0.03699 0.62509 0.0
C755 C 0.64742 0.03003 0.62797 0.0
C756 C 0.67964 0.02601 0.64134 0.0
C757 C 0.58735 0.03687 0.60174 0.0
C758 C 0.62008 0.03331 0.59136 0.0
C759 C 0.64967 0.02993 0.60457 0.0
C760 C 0.62397 0.03332 0.56677 0.0
C761 C 0.55506 0.04091 0.58844 0.0
C762 C 0.59875 0.02803 0.55363 0.0
C763 C 0.59775 0.02942 0.5306 0.0
C764 C 0.62259 0.03594 0.52027 0.0
C765 C 0.6501 0.04056 0.53314 0.0
C766 C 0.65063 0.0393 0.55635 0.0
H767 H 0.53634 0.04549 0.59886 0.0
H768 H 0.56504 0.04539 0.57418 0.0
H769 H 0.53837 0.03476 0.58169 0.0
H770 H 0.57864 0.02318 0.5613 0.0
H771 H 0.57673 0.02563 0.52091 0.0
H772 H 0.66914 0.17799 0.70671 0.0
H773 H 0.67109 0.17903 0.66585 0.0
H774 H 0.57749 0.19885 0.66667 0.0
H775 H 0.57468 0.19755 0.70727 0.0
H776 H 0.56413 0.18384 0.64022 0.0
H777 H 0.70324 0.19864 0.61977 0.0
H778 H 0.70631 0.18826 0.63798 0.0
H779 H 0.68392 0.19928 0.64754 0.0
C780 C 0.64972 0.18277 0.69815 0.0
C781 C 0.62159 0.18762 0.71004 0.0
C782 C 0.65089 0.18339 0.67482 0.0
C783 C 0.6245 0.18906 0.66317 0.0
C784 C 0.59802 0.19441 0.67526 0.0
H785 H 0.57384 0.19007 0.51888 0.0
H786 H 0.57069 0.19343 0.55911 0.0
C787 C 0.59648 0.19367 0.69844 0.0
C788 C 0.62146 0.18846 0.63849 0.0
H789 H 0.6714 0.19013 0.59024 0.0
C790 C 0.58745 0.18535 0.62925 0.0
C791 C 0.65177 0.19049 0.62419 0.0
C792 C 0.68822 0.19446 0.63286 0.0
C793 C 0.58347 0.18375 0.60624 0.0
C794 C 0.61429 0.18536 0.59209 0.0
C795 C 0.64789 0.18881 0.60119 0.0
C796 C 0.61328 0.1829 0.56802 0.0
C797 C 0.54684 0.17997 0.59739 0.0
C798 C 0.63784 0.1758 0.55979 0.0
C799 C 0.63981 0.17392 0.53697 0.0
C800 C 0.61716 0.17909 0.52186 0.0
C801 C 0.59126 0.18589 0.53017 0.0
C802 C 0.58953 0.18783 0.55311 0.0
H803 H 0.52837 0.17732 0.61097 0.0
H804 H 0.53217 0.18596 0.58848 0.0
H805 H 0.55143 0.17392 0.58536 0.0
H806 H 0.65622 0.17187 0.57102 0.0
H807 H 0.65997 0.16862 0.53108 0.0
H808 H 0.37223 0.91537 0.44892 0.0
H809 H 0.36687 0.91931 0.40925 0.0
H810 H 0.32636 0.94811 0.42586 0.0
H811 H 0.33001 0.94399 0.46574 0.0
H812 H 0.29431 0.94148 0.38781 0.0
H813 H 0.44649 0.93653 0.38283 0.0
H814 H 0.4249 0.92557 0.3929 0.0
H815 H 0.4219 0.93667 0.40906 0.0
C816 C 0.3611 0.92243 0.44406 0.0
C817 C 0.35166 0.92939 0.46027 0.0
C818 C 0.35848 0.92472 0.42145 0.0
C819 C 0.34761 0.93413 0.41465 0.0
C820 C 0.33529 0.94085 0.43076 0.0
H821 H 0.41401 0.94614 0.27631 0.0
H822 H 0.40742 0.94845 0.31674 0.0
C823 C 0.33712 0.93847 0.45349 0.0
C824 C 0.35164 0.93702 0.39091 0.0
H825 H 0.41343 0.93596 0.34783 0.0
C826 C 0.32044 0.9404 0.37908 0.0
C827 C 0.38616 0.93608 0.3797 0.0
C828 C 0.42183 0.93364 0.39187 0.0
C829 C 0.32221 0.94211 0.35597 0.0
C830 C 0.35566 0.94001 0.34435 0.0
C831 C 0.38751 0.93737 0.35653 0.0
C832 C 0.35759 0.93959 0.31959 0.0
C833 C 0.28819 0.94611 0.34431 0.0
C834 C 0.33201 0.93383 0.30774 0.0
C835 C 0.3355 0.93261 0.28474 0.0
C836 C 0.36523 0.93692 0.27313 0.0
C837 C 0.391 0.94267 0.2849 0.0
C838 C 0.38711 0.94403 0.30795 0.0
H839 H 0.2721 0.95097 0.35562 0.0
H840 H 0.29566 0.9503 0.32907 0.0
H841 H 0.26967 0.93996 0.33952 0.0
H842 H 0.30985 0.93001 0.31634 0.0
H843 H 0.31529 0.9281 0.27614 0.0
H844 H 0.39187 0.78006 0.46101 0.0
H845 H 0.39185 0.7781 0.42031 0.0
H846 H 0.36166 0.80849 0.41273 0.0
H847 H 0.3595 0.81027 0.45328 0.0
H848 H 0.31697 0.79738 0.38919 0.0
H849 H 0.46256 0.78571 0.37228 0.0
H850 H 0.43765 0.77799 0.39131 0.0
H851 H 0.44835 0.79038 0.39909 0.0
C852 C 0.38624 0.78636 0.45055 0.0
C853 C 0.37597 0.79534 0.46013 0.0
C854 C 0.38622 0.78524 0.42732 0.0
C855 C 0.37699 0.79317 0.4134 0.0
C856 C 0.36867 0.80226 0.4231 0.0
H857 H 0.41613 0.80506 0.27719 0.0
H858 H 0.41394 0.80305 0.31758 0.0
C859 C 0.36774 0.80331 0.44623 0.0
C860 C 0.3734 0.79201 0.38886 0.0
H861 H 0.42167 0.78643 0.34152 0.0
C862 C 0.33988 0.79497 0.37876 0.0
C863 C 0.4031 0.78872 0.37529 0.0
C864 C 0.44005 0.78559 0.38499 0.0
C865 C 0.33591 0.7953 0.35548 0.0
C866 C 0.36596 0.79227 0.34191 0.0
C867 C 0.39875 0.78879 0.352 0.0
C868 C 0.36561 0.7936 0.31735 0.0
C869 C 0.30033 0.79934 0.3457 0.0
C870 C 0.33875 0.78907 0.30378 0.0
C871 C 0.33952 0.79036 0.28059 0.0
C872 C 0.36761 0.79605 0.27065 0.0
C873 C 0.39417 0.80063 0.28434 0.0
C874 C 0.39308 0.79944 0.30743 0.0
H875 H 0.28349 0.8033 0.35835 0.0
H876 H 0.30634 0.80442 0.33168 0.0
H877 H 0.28322 0.79323 0.33915 0.0
H878 H 0.3177 0.78438 0.31104 0.0
H879 H 0.31902 0.78664 0.27041 0.0
H880 H 0.68148 0.5465 0.02407 0.0
H881 H 0.68745 0.54534 0.06493 0.0
H882 H 0.58709 0.52806 0.06764 0.0
H883 H 0.58072 0.52932 0.02717 0.0
H884 H 0.62537 0.55284 0.09198 0.0
H885 H 0.66045 0.51422 0.11199 0.0
H886 H 0.67156 0.51981 0.08547 0.0
H887 H 0.62482 0.51589 0.0912 0.0
C888 C 0.66137 0.54224 0.03339 0.0
C889 C 0.63049 0.53807 0.02262 0.0
C890 C 0.66474 0.54159 0.05664 0.0
C891 C 0.6378 0.53657 0.06919 0.0
C892 C 0.6084 0.53186 0.05822 0.0
H893 H 0.56123 0.53506 0.20634 0.0
H894 H 0.56795 0.53337 0.16566 0.0
C895 C 0.60468 0.53264 0.03514 0.0
C896 C 0.63688 0.5374 0.09375 0.0
H897 H 0.63754 0.52403 0.14191 0.0
C898 C 0.62857 0.54658 0.10295 0.0
C899 C 0.6404 0.52917 0.10787 0.0
C900 C 0.65008 0.51921 0.09872 0.0
C901 C 0.62292 0.54771 0.12594 0.0
C902 C 0.62617 0.53947 0.14004 0.0
C903 C 0.63485 0.5303 0.13093 0.0
C904 C 0.6219 0.54039 0.16443 0.0
C905 C 0.61265 0.55764 0.13502 0.0
C906 C 0.65 0.54489 0.17695 0.0
C907 C 0.64632 0.54583 0.20001 0.0
C908 C 0.61433 0.54234 0.21094 0.0
C909 C 0.58601 0.53789 0.19832 0.0
C910 C 0.58989 0.53687 0.17518 0.0
H911 H 0.60553 0.56291 0.12155 0.0
H912 H 0.58857 0.55702 0.14656 0.0
H913 H 0.63648 0.56063 0.14466 0.0
H914 H 0.6749 0.54762 0.16888 0.0
H915 H 0.66867 0.54927 0.20927 0.0
H916 H 0.68111 0.68761 0.2091 0.0
H917 H 0.68049 0.6901 0.16854 0.0
H918 H 0.56956 0.67809 0.16515 0.0
H919 H 0.56962 0.67578 0.20552 0.0
H920 H 0.67268 0.67635 0.1358 0.0
H921 H 0.55745 0.70323 0.13002 0.0
H922 H 0.57993 0.70021 0.15611 0.0
H923 H 0.54475 0.69229 0.1447 0.0
C924 C 0.65661 0.68552 0.19968 0.0
C925 C 0.62543 0.68151 0.21047 0.0
C926 C 0.65623 0.68698 0.17656 0.0
C927 C 0.62466 0.68448 0.16392 0.0
C928 C 0.59378 0.68033 0.17465 0.0
H929 H 0.57274 0.6801 0.02279 0.0
H930 H 0.57005 0.68062 0.06378 0.0
C931 C 0.59405 0.67892 0.19771 0.0
C932 C 0.6247 0.68566 0.13935 0.0
H933 H 0.57692 0.69585 0.09578 0.0
C934 C 0.65197 0.68069 0.12705 0.0
C935 C 0.59748 0.69129 0.12801 0.0
C936 C 0.56846 0.69713 0.14039 0.0
C937 C 0.65228 0.68098 0.10368 0.0
C938 C 0.62492 0.68654 0.0923 0.0
C939 C 0.59775 0.69157 0.10457 0.0
C940 C 0.62449 0.68721 0.06765 0.0
C941 C 0.68135 0.6751 0.09137 0.0
C942 C 0.65529 0.69107 0.05635 0.0
C943 C 0.6571 0.69066 0.03314 0.0
C944 C 0.62779 0.68653 0.02074 0.0
C945 C 0.5958 0.68326 0.03196 0.0
C946 C 0.59423 0.68356 0.05532 0.0
H947 H 0.69359 0.66929 0.10207 0.0
H948 H 0.66941 0.67164 0.07621 0.0
H949 H 0.70426 0.68003 0.08611 0.0
H950 H 0.67846 0.69417 0.06554 0.0
H951 H 0.68178 0.69344 0.02492 0.0
H952 H 0.30882 0.42942 0.76789 0.0
H953 H 0.30036 0.43026 0.80815 0.0
H954 H 0.4108 0.4423 0.81538 0.0
H955 H 0.41998 0.44112 0.77492 0.0
H956 H 0.40159 0.42822 0.8435 0.0
H957 H 0.27811 0.452 0.85024 0.0
H958 H 0.26839 0.44189 0.83213 0.0
H959 H 0.30369 0.45066 0.82452 0.0
C960 C 0.33127 0.43231 0.77801 0.0
C961 C 0.3652 0.43514 0.76826 0.0
C962 C 0.32617 0.43291 0.80105 0.0
C963 C 0.35459 0.43654 0.81483 0.0
C964 C 0.38834 0.43954 0.80508 0.0
H965 H 0.32897 0.44367 0.95918 0.0
H966 H 0.32706 0.44658 0.91879 0.0
C967 C 0.39364 0.43883 0.78199 0.0
C968 C 0.35036 0.43625 0.83949 0.0
H969 H 0.29033 0.4415 0.88207 0.0
C970 C 0.37747 0.43125 0.85193 0.0
C971 C 0.3193 0.44035 0.85065 0.0
C972 C 0.291 0.44662 0.83869 0.0
C973 C 0.37375 0.42991 0.87499 0.0
C974 C 0.34111 0.43326 0.88586 0.0
C975 C 0.31475 0.43866 0.87365 0.0
C976 C 0.33464 0.43135 0.90995 0.0
C977 C 0.40529 0.42502 0.88746 0.0
C978 C 0.337 0.42177 0.91837 0.0
C979 C 0.33897 0.42014 0.94135 0.0
C980 C 0.3369 0.42802 0.95626 0.0
C981 C 0.3302 0.43747 0.94795 0.0
C982 C 0.32934 0.43914 0.9249 0.0
H983 H 0.43214 0.42584 0.87843 0.0
H984 H 0.40864 0.42812 0.90447 0.0
H985 H 0.39946 0.41708 0.88896 0.0
H986 H 0.33971 0.41561 0.90715 0.0
H987 H 0.34412 0.4128 0.94743 0.0
H988 H 0.32622 0.29705 0.77343 0.0
H989 H 0.32546 0.29562 0.8143 0.0
H990 H 0.41569 0.2748 0.81131 0.0
H991 H 0.41757 0.27653 0.77069 0.0
H992 H 0.31939 0.28066 0.84591 0.0
H993 H 0.46154 0.29695 0.84678 0.0
H994 H 0.43346 0.29652 0.82183 0.0
H995 H 0.45695 0.28571 0.83159 0.0
C996 C 0.34533 0.29204 0.78153 0.0
C997 C 0.37243 0.28705 0.76913 0.0
C998 C 0.34494 0.29122 0.80481 0.0
C999 C 0.3713 0.28532 0.81581 0.0
C1000 C 0.39594 0.27962 0.80319 0.0
H1001 H 0.41803 0.28611 0.96032 0.0
H1002 H 0.42181 0.28189 0.92055 0.0
C1003 C 0.39685 0.28059 0.78003 0.0
C1004 C 0.37518 0.28587 0.84036 0.0
H1005 H 0.43378 0.29384 0.8815 0.0
C1006 C 0.34448 0.28346 0.85371 0.0
C1007 C 0.40817 0.28945 0.85051 0.0
C1008 C 0.44185 0.29238 0.83699 0.0
C1009 C 0.34548 0.28481 0.8769 0.0
C1010 C 0.37774 0.28885 0.88685 0.0
C1011 C 0.40908 0.2908 0.87371 0.0
C1012 C 0.37813 0.29188 0.9105 0.0
C1013 C 0.31182 0.28204 0.89056 0.0
C1014 C 0.35369 0.29922 0.91768 0.0
C1015 C 0.35156 0.30166 0.94021 0.0
C1016 C 0.3741 0.29686 0.95597 0.0
C1017 C 0.40041 0.28996 0.94855 0.0
C1018 C 0.4024 0.28749 0.9259 0.0
H1019 H 0.29422 0.27658 0.88177 0.0
H1020 H 0.32019 0.279 0.90702 0.0
H1021 H 0.29461 0.28865 0.89354 0.0
H1022 H 0.33551 0.30289 0.90589 0.0
H1023 H 0.33129 0.30707 0.94538 0.0
H1024 H 0.25249 0.94296 0.22337 0.0
H1025 H 0.21657 0.95592 0.24123 0.0
H1026 H 0.29391 0.97741 0.21632 0.0
H1027 H 0.33042 0.96444 0.19848 0.0
H1028 H 0.25655 0.96808 0.27447 0.0
H1029 H 0.18602 -0.01058 0.20751 0.0
H1030 H 0.19982 0.9768 0.20388 0.0
H1031 H 0.23412 0.98633 0.20284 0.0
C1032 C 0.26132 0.95047 0.22113 0.0
C1033 C 0.29452 0.95269 0.20976 0.0
C1034 C 0.24078 0.95785 0.23139 0.0
C1035 C 0.25279 0.96757 0.23018 0.0
C1036 C 0.28415 0.96993 0.21728 0.0
H1037 H 0.23535 0.01914 0.30515 0.0
H1038 H 0.25311 0.00268 0.29359 0.0
C1039 C 0.3049 0.96252 0.20706 0.0
C1040 C 0.23549 0.975 0.24468 0.0
H1041 H 0.18667 -0.00364 0.24381 0.0
C1042 C 0.24087 0.97421 0.26785 0.0
C1043 C 0.21508 0.98293 0.2359 0.0
C1044 C 0.20807 0.98395 0.21118 0.0
C1045 C 0.22733 0.98139 0.28247 0.0
C1046 C 0.20789 -0.01053 0.27362 0.0
C1047 C 0.20146 -0.00992 0.25052 0.0
C1048 C 0.19664 -0.00212 0.28751 0.0
C1049 C 0.23432 0.98039 0.30718 0.0
C1050 C 0.1589 0.00035 0.28934 0.0
C1051 C 0.14859 0.00974 0.29613 0.0
C1052 C 0.17603 0.01683 0.30058 0.0
C1053 C 0.21356 0.01389 0.30157 0.0
C1054 C 0.2238 0.00447 0.29496 0.0
H1055 H 0.24305 0.97285 0.31177 0.0
H1056 H 0.25679 0.98552 0.31217 0.0
H1057 H 0.20892 0.98234 0.31676 0.0
H1058 H 0.13758 -0.00469 0.28372 0.0
H1059 H 0.11939 0.0117 0.29543 0.0
H1060 H 0.97511 0.27588 0.20659 0.0
H1061 H 0.01123 0.2625 0.22295 0.0
H1062 H 0.91124 0.24509 0.22759 0.0
H1063 H 0.87561 0.25824 0.21015 0.0
H1064 H 0.0025 0.25645 0.26367 0.0
H1065 H 0.982 0.22458 0.20834 0.0
H1066 H 0.96975 0.23682 0.19979 0.0
H1067 H 0.93815 0.22967 0.21654 0.0
C1068 C 0.96124 0.26904 0.21033 0.0
C1069 C 0.92273 0.26804 0.20701 0.0
C1070 C 0.98179 0.26143 0.21981 0.0
C1071 C 0.96405 0.25276 0.22645 0.0
C1072 C 0.92583 0.25158 0.2221 0.0
H1073 H 0.01173 0.20342 0.30871 0.0
H1074 H 0.98474 0.21873 0.29544 0.0
C1075 C 0.90542 0.25912 0.21214 0.0
C1076 C 0.98442 0.24547 0.24017 0.0
H1077 H 0.00151 0.22106 0.24589 0.0
C1078 C 0.00268 0.24872 0.25961 0.0
C1079 C 0.98467 0.23539 0.2349 0.0
C1080 C 0.96791 0.23143 0.21362 0.0
C1081 C 0.02032 0.24214 0.27417 0.0
C1082 C 0.01924 0.23207 0.26927 0.0
C1083 C 0.0016 0.22881 0.24973 0.0
C1084 C 0.03696 0.22466 0.28369 0.0
C1085 C 0.03941 0.24591 0.29486 0.0
C1086 C 0.07562 0.22328 0.28289 0.0
C1087 C 0.09123 0.21452 0.29049 0.0
C1088 C 0.06814 0.207 0.29861 0.0
C1089 C 0.03019 0.209 0.30223 0.0
C1090 C 0.01465 0.21774 0.2946 0.0
H1091 H 0.03385 0.2538 0.29769 0.0
H1092 H 0.0301 0.2417 0.30971 0.0
H1093 H 0.06993 0.24485 0.2932 0.0
H1094 H 0.09323 0.22855 0.27446 0.0
H1095 H 0.12061 0.21325 0.28759 0.0
H1096 H 0.24733 0.19985 0.93806 0.0
H1097 H 0.27266 0.21472 0.95453 0.0
H1098 H 0.16209 0.22687 0.95896 0.0
H1099 H 0.13622 0.21189 0.94302 0.0
H1100 H 0.27117 0.23486 0.94845 0.0
H1101 H 0.19346 0.22383 0.02452 0.0
H1102 H 0.19814 0.21595 0.00056 0.0
H1103 H 0.1647 0.22574 0.00037 0.0
C1104 C 0.2284 0.20579 0.94185 0.0
C1105 C 0.1896 0.20455 0.93988 0.0
C1106 C 0.24298 0.21428 0.95137 0.0
C1107 C 0.21905 0.22169 0.95881 0.0
C1108 C 0.18086 0.22106 0.954 0.0
H1109 H 0.2432 0.27457 0.03207 0.0
H1110 H 0.22127 0.25909 0.01687 0.0
C1111 C 0.16617 0.21253 0.9446 0.0
C1112 C 0.23359 0.2295 0.97355 0.0
H1113 H 0.22619 0.23886 0.02625 0.0
C1114 C 0.26147 0.23573 0.96547 0.0
C1115 C 0.22126 0.23048 -0.0041 0.0
C1116 C 0.19301 0.22359 0.00598 0.0
C1117 C 0.27642 0.24317 0.97888 0.0
C1118 C 0.26355 0.24427 0.00109 0.0
C1119 C 0.23608 0.23795 0.00927 0.0
C1120 C 0.27601 0.25251 0.01525 0.0
C1121 C 0.305 0.25 0.96892 0.0
C1122 C 0.31366 0.25364 0.02101 0.0
C1123 C 0.32639 0.26252 0.02974 0.0
C1124 C 0.30152 0.27037 0.03275 0.0
C1125 C 0.26317 0.26873 0.02963 0.0
C1126 C 0.25055 0.25988 0.02088 0.0
H1127 H 0.3064 0.24935 0.95046 0.0
H1128 H 0.29865 0.25771 0.97327 0.0
H1129 H 0.33289 0.24819 0.97578 0.0
H1130 H 0.33357 0.24791 0.01734 0.0
H1131 H 0.35605 0.26349 0.03217 0.0
H1132 H 0.10032 0.01027 0.93349 0.0
H1133 H 0.07792 -0.00592 0.94431 0.0
H1134 H 0.96673 0.00565 0.95138 0.0
H1135 H 0.98835 0.02161 0.93962 0.0
H1136 H 0.05466 -0.00807 0.98544 0.0
H1137 H 0.94183 0.97908 0.9303 0.0
H1138 H 0.97295 -0.0112 0.9221 0.0
H1139 H 0.93257 -0.00864 0.93903 0.0
C1140 C 0.07076 0.00925 0.93625 0.0
C1141 C 0.0463 0.01729 0.93623 0.0
C1142 C 0.05803 -0.0 0.94261 0.0
C1143 C 0.02072 -0.00135 0.94893 0.0
C1144 C 0.99552 0.00641 0.94632 0.0
H1145 H 0.89181 0.96279 0.0367 0.0
H1146 H 0.92283 0.97639 0.0177 0.0
C1147 C 0.00807 0.01561 0.93968 0.0
C1148 C 0.00957 -0.01009 0.96201 0.0
H1149 H 0.9397 0.97325 0.96863 0.0
C1150 C 0.02994 -0.01228 0.98148 0.0
C1151 C 0.97713 0.98446 0.95703 0.0
C1152 C 0.95517 0.986 0.93584 0.0
C1153 C 0.01794 0.98049 -0.00354 0.0
C1154 C 0.98473 0.97538 -0.00811 0.0
C1155 C 0.9649 0.97734 0.97221 0.0
C1156 C 0.97016 0.96779 0.00704 0.0
C1157 C 0.04006 0.97856 0.01743 0.0
C1158 C 0.98743 0.95862 0.00805 0.0
C1159 C 0.96984 0.95085 0.01886 0.0
C1160 C 0.93465 0.95216 0.02872 0.0
C1161 C 0.91891 0.96157 0.02927 0.0
C1162 C 0.93646 0.96932 0.01834 0.0
H1163 H 0.06225 0.9841 0.02009 0.0
H1164 H 0.02138 0.97851 0.0322 0.0
H1165 H 0.05333 0.97125 0.01628 0.0
H1166 H 0.01336 0.95731 -0.00069 0.0
H1167 H 0.98267 0.94368 0.01821 0.0
H1168 H 0.67788 0.01452 0.79775 0.0
H1169 H 0.71661 0.00087 0.78461 0.0
H1170 H 0.73116 0.01558 0.72139 0.0
H1171 H 0.69543 0.02938 0.735 0.0
H1172 H 0.70405 -0.01125 0.75442 0.0
H1173 H 0.83377 0.00692 0.7288 0.0
H1174 H 0.79873 0.0132 0.74484 0.0
H1175 H 0.79562 0.01268 0.71477 0.0
C1176 C 0.69036 0.0149 0.78132 0.0
C1177 C 0.68421 0.02304 0.76754 0.0
C1178 C 0.71232 0.00711 0.77376 0.0
C1179 C 0.72764 0.00724 0.75211 0.0
C1180 C 0.72125 0.01541 0.73844 0.0
H1181 H 0.76734 0.95251 0.68314 0.0
H1182 H 0.74352 0.96866 0.69356 0.0
C1183 C 0.70044 0.02329 0.74622 0.0
C1184 C 0.74706 -0.00148 0.7429 0.0
H1185 H 0.82047 -0.0085 0.71041 0.0
C1186 C 0.72983 -0.01064 0.7451 0.0
C1187 C 0.78108 -0.0008 0.73101 0.0
C1188 C 0.80349 0.00853 0.72998 0.0
C1189 C 0.74503 0.98094 0.73535 0.0
C1190 C 0.77725 0.98178 0.72181 0.0
C1191 C 0.79512 -0.00912 0.72014 0.0
C1192 C 0.79403 0.97315 0.71054 0.0
C1193 C 0.72681 0.97122 0.74031 0.0
C1194 C 0.83161 0.97079 0.71425 0.0
C1195 C 0.84577 0.96179 0.70728 0.0
C1196 C 0.82232 0.95492 0.69695 0.0
C1197 C 0.78586 0.95766 0.69125 0.0
C1198 C 0.77208 0.96681 0.69756 0.0
H1199 H 0.7107 0.97146 0.75613 0.0
H1200 H 0.70702 0.96939 0.7267 0.0
H1201 H 0.74774 0.96527 0.74168 0.0
H1202 H 0.84933 0.9756 0.72393 0.0
H1203 H 0.87396 0.95984 0.712 0.0
H1204 H 0.00106 0.70254 0.8017 0.0
H1205 H 0.97983 0.71866 0.79012 0.0
H1206 H 0.0934 0.72885 0.78837 0.0
H1207 H 0.11516 0.7126 0.79932 0.0
H1208 H 0.98577 0.73846 0.79929 0.0
H1209 H 0.06337 0.72816 0.72235 0.0
H1210 H 0.05634 0.71974 0.74512 0.0
H1211 H 0.09107 0.72916 0.74722 0.0
C1212 C 0.02156 0.70828 0.79968 0.0
C1213 C 0.0599 0.70618 0.80051 0.0
C1214 C 0.00931 0.71751 0.79302 0.0
C1215 C 0.0352 0.72478 0.78745 0.0
C1216 C 0.07311 0.7232 0.79189 0.0
H1217 H 0.98127 0.77955 0.72115 0.0
H1218 H 0.0151 0.76642 0.74011 0.0
C1219 C 0.08546 0.71392 0.79838 0.0
C1220 C 0.02287 0.7332 0.77377 0.0
H1221 H 0.02824 0.74266 0.72099 0.0
C1222 C 0.99539 0.73946 0.78229 0.0
C1223 C 0.03493 0.73432 0.75136 0.0
C1224 C 0.06279 0.72746 0.74083 0.0
C1225 C 0.97955 0.7468 0.76895 0.0
C1226 C 0.99156 0.74787 0.74665 0.0
C1227 C 0.01936 0.74176 0.73817 0.0
C1228 C 0.97476 0.75527 0.7319 0.0
C1229 C 0.94945 0.75327 0.7785 0.0
C1230 C 0.94189 0.75315 0.72021 0.0
C1231 C 0.92253 0.76061 0.70925 0.0
C1232 C 0.93581 0.77027 0.71007 0.0
C1233 C 0.97029 0.77218 0.72035 0.0
C1234 C 0.98962 0.76472 0.73121 0.0
H1235 H 0.9441 0.75172 0.79641 0.0
H1236 H 0.95745 0.76107 0.77667 0.0
H1237 H 0.92319 0.75217 0.76902 0.0
H1238 H 0.93024 0.74584 0.72059 0.0
H1239 H 0.896 0.75894 0.70152 0.0
H1240 H 0.62579 0.71528 0.94875 0.0
H1241 H 0.65321 0.72942 0.9671 0.0
H1242 H 0.76117 0.72158 0.94124 0.0
H1243 H 0.73402 0.70733 0.92295 0.0
H1244 H 0.75469 0.72016 0.98793 0.0
H1245 H 0.70319 0.75607 0.95762 0.0
H1246 H 0.66729 0.74711 0.96173 0.0
H1247 H 0.70202 0.74517 0.94061 0.0
C1248 C 0.65498 0.71683 0.94589 0.0
C1249 C 0.67801 0.70999 0.93506 0.0
C1250 C 0.67068 0.72494 0.95651 0.0
C1251 C 0.70934 0.72641 0.95592 0.0
C1252 C 0.73132 0.72048 0.94211 0.0
H1253 H 0.86147 0.76027 0.03294 0.0
H1254 H 0.83326 0.7462 0.01474 0.0
C1255 C 0.71567 0.71237 0.93153 0.0
C1256 C 0.72732 0.73261 0.97303 0.0
H1257 H 0.73161 0.75581 -0.00649 0.0
C1258 C 0.74995 0.72798 0.98906 0.0
C1259 C 0.72051 0.74274 0.97467 0.0
C1260 C 0.69719 0.7481 0.95764 0.0
C1261 C 0.76574 0.73322 0.00682 0.0
C1262 C 0.75899 0.74336 0.00843 0.0
C1263 C 0.73633 0.74798 -0.00759 0.0
C1264 C 0.77716 0.74958 0.02546 0.0
C1265 C 0.78897 0.72784 0.02386 0.0
C1266 C 0.7554 0.75571 0.03893 0.0
C1267 C 0.77148 0.7638 0.04936 0.0
C1268 C 0.80942 0.76592 0.0461 0.0
C1269 C 0.83208 0.7589 0.03561 0.0
C1270 C 0.81593 0.75083 0.02509 0.0
H1271 H 0.78226 0.7199 0.02417 0.0
H1272 H 0.81884 0.72861 0.01948 0.0
H1273 H 0.78478 0.73089 0.04084 0.0
H1274 H 0.72545 0.75478 0.03963 0.0
H1275 H 0.75339 0.76899 0.05767 0.0
H1276 H 0.12447 0.51045 0.78985 0.0
H1277 H 0.14617 0.49426 0.77863 0.0
H1278 H 0.26004 0.50381 0.78575 0.0
H1279 H 0.2387 0.51989 0.79737 0.0
H1280 H 0.18421 0.49375 0.73952 0.0
H1281 H 0.26824 0.47562 0.8049 0.0
H1282 H 0.23591 0.48537 0.81114 0.0
H1283 H 0.28207 0.48811 0.80117 0.0
C1284 C 0.1541 0.50898 0.79008 0.0
C1285 C 0.17991 0.51652 0.79399 0.0
C1286 C 0.16646 0.49972 0.78353 0.0
C1287 C 0.20469 0.49786 0.78113 0.0
C1288 C 0.23041 0.50503 0.78769 0.0
H1289 H 0.3515 0.46442 0.69973 0.0
H1290 H 0.3158 0.47745 0.71795 0.0
C1291 C 0.21812 0.51427 0.79424 0.0
C1292 C 0.21763 0.48941 0.76781 0.0
H1293 H 0.28232 0.47114 0.76671 0.0
C1294 C 0.20509 0.48867 0.74562 0.0
C1295 C 0.24509 0.48285 0.77572 0.0
C1296 C 0.25831 0.48297 0.79962 0.0
C1297 C 0.22046 0.48181 0.73089 0.0
C1298 C 0.249 0.47559 0.73857 0.0
C1299 C 0.2607 0.47607 0.76088 0.0
C1300 C 0.26721 0.46847 0.72376 0.0
C1301 C 0.20718 0.48142 0.70702 0.0
C1302 C 0.25083 0.45931 0.72027 0.0
C1303 C 0.27106 0.45189 0.70993 0.0
C1304 C 0.30792 0.45354 0.70298 0.0
C1305 C 0.32308 0.46297 0.7048 0.0
C1306 C 0.30288 0.47039 0.71533 0.0
H1307 H 0.18567 0.48705 0.70339 0.0
H1308 H 0.23111 0.48252 0.69555 0.0
H1309 H 0.19533 0.47409 0.70348 0.0
H1310 H 0.22329 0.45775 0.72672 0.0
H1311 H 0.25872 0.44468 0.70867 0.0
H1312 H 0.23893 0.77392 0.53081 0.0
H1313 H 0.21644 0.75785 0.52018 0.0
H1314 H 0.32411 0.74541 0.53503 0.0
H1315 H 0.34741 0.76162 0.54507 0.0
H1316 H 0.30408 0.742 0.49282 0.0
H1317 H 0.18568 0.73245 0.54731 0.0
H1318 H 0.17989 0.74449 0.53603 0.0
H1319 H 0.21841 0.74196 0.55449 0.0
C1320 C 0.25759 0.76773 0.53257 0.0
C1321 C 0.2952 0.76909 0.53838 0.0
C1322 C 0.24454 0.7585 0.52659 0.0
C1323 C 0.26859 0.75041 0.52677 0.0
C1324 C 0.30513 0.75157 0.5347 0.0
H1325 H 0.23089 0.69335 0.46672 0.0
H1326 H 0.2611 0.70746 0.48393 0.0
C1327 C 0.31834 0.76084 0.54056 0.0
C1328 C 0.25729 0.74129 0.51532 0.0
H1329 H 0.18603 0.72492 0.51072 0.0
C1330 C 0.27862 0.73815 0.497 0.0
C1331 C 0.22397 0.73631 0.52068 0.0
C1332 C 0.20094 0.73893 0.54085 0.0
C1333 C 0.26669 0.73043 0.48335 0.0
C1334 C 0.23264 0.72576 0.4882 0.0
C1335 C 0.21187 0.72867 0.50687 0.0
C1336 C 0.21801 0.7177 0.47439 0.0
C1337 C 0.28981 0.72753 0.46341 0.0
C1338 C 0.18438 0.71889 0.46274 0.0
C1339 C 0.16703 0.71085 0.45283 0.0
C1340 C 0.18294 0.7015 0.45469 0.0
C1341 C 0.21794 0.70047 0.46502 0.0
C1342 C 0.23529 0.70852 0.47486 0.0
H1343 H 0.31196 0.73296 0.45972 0.0
H1344 H 0.30331 0.72037 0.46676 0.0
H1345 H 0.27191 0.72667 0.44841 0.0
H1346 H 0.17074 0.72596 0.46223 0.0
H1347 H 0.14007 0.71186 0.44502 0.0
H1348 H 0.87457 0.46367 0.53657 0.0
H1349 H 0.89948 0.47786 0.51698 0.0
H1350 H 0.0103 0.47026 0.53853 0.0
H1351 H 0.98581 0.45602 0.5582 0.0
H1352 H 0.95727 0.49437 0.52424 0.0
H1353 H -0.00183 0.46364 0.46835 0.0
H1354 H 0.96352 0.4623 0.48995 0.0
H1355 H 0.01201 0.46273 0.49715 0.0
C1356 C 0.904 0.46526 0.53817 0.0
C1357 C 0.92846 0.45847 0.54811 0.0
C1358 C 0.9182 0.47337 0.52681 0.0
C1359 C 0.95677 0.47483 0.5257 0.0
C1360 C 0.98047 0.46908 0.53888 0.0
H1361 H 0.10105 0.50914 0.44494 0.0
H1362 H 0.07348 0.49509 0.46374 0.0
C1363 C 0.96633 0.46098 0.55024 0.0
C1364 C 0.97238 0.48099 0.50779 0.0
H1365 H 0.01542 0.47955 0.45702 0.0
C1366 C 0.96992 0.49116 0.50953 0.0
C1367 C 0.98855 0.4767 0.48857 0.0
C1368 C 0.99061 0.46574 0.48567 0.0
C1369 C 0.98408 0.49723 0.49266 0.0
C1370 C 0.00026 0.49295 0.47343 0.0
C1371 C 0.00264 0.48276 0.47168 0.0
C1372 C 0.01675 0.4991 0.45577 0.0
C1373 C 0.98245 0.50819 0.49576 0.0
C1374 C 0.99408 0.50537 0.44318 0.0
C1375 C 0.00974 0.51341 0.43232 0.0
C1376 C 0.04815 0.51529 0.43425 0.0
C1377 C 0.07128 0.50802 0.44349 0.0
C1378 C 0.05556 0.49999 0.4544 0.0
H1379 H 0.97536 0.51024 0.51318 0.0
H1380 H 0.00953 0.51159 0.49133 0.0
H1381 H 0.96084 0.51128 0.48454 0.0
H1382 H 0.96405 0.50463 0.44366 0.0
H1383 H 0.99124 0.51876 0.42487 0.0
H1384 H 0.72017 0.52979 0.24971 0.0
H1385 H 0.75067 0.51553 0.23331 0.0
H1386 H 0.6756 0.4965 0.26891 0.0
H1387 H 0.64444 0.51075 0.28519 0.0
H1388 H 0.78514 0.4988 0.25223 0.0
H1389 H 0.65979 0.48922 0.20267 0.0
H1390 H 0.66532 0.50093 0.21618 0.0
H1391 H 0.65133 0.4904 0.23208 0.0
C1392 C 0.71049 0.52256 0.25436 0.0
C1393 C 0.67968 0.52139 0.26862 0.0
C1394 C 0.7279 0.51443 0.24489 0.0
C1395 C 0.71479 0.50499 0.24948 0.0
C1396 C 0.68552 0.50376 0.26476 0.0
H1397 H 0.75514 0.44591 0.22102 0.0
H1398 H 0.73053 0.46215 0.22774 0.0
C1399 C 0.66798 0.51189 0.27421 0.0
C1400 C 0.731 0.49645 0.23783 0.0
H1401 H 0.70843 0.4774 0.20368 0.0
C1402 C 0.76859 0.49415 0.24142 0.0
C1403 C 0.70936 0.49052 0.22351 0.0
C1404 C 0.6693 0.49292 0.21816 0.0
C1405 C 0.78457 0.48569 0.2322 0.0
C1406 C 0.76247 0.47952 0.21854 0.0
C1407 C 0.72535 0.48212 0.21412 0.0
C1408 C 0.77562 0.46974 0.21119 0.0
C1409 C 0.8243 0.48318 0.23819 0.0
C1410 C 0.80832 0.46854 0.1986 0.0
C1411 C 0.82294 0.45916 0.19493 0.0
C1412 C 0.80468 0.45087 0.20354 0.0
C1413 C 0.7702 0.45211 0.21431 0.0
C1414 C 0.75599 0.46143 0.21819 0.0
H1415 H 0.83473 0.48764 0.25239 0.0
H1416 H 0.82692 0.47533 0.24267 0.0
H1417 H 0.84251 0.48464 0.22362 0.0
H1418 H 0.82331 0.47484 0.19238 0.0
H1419 H 0.84939 0.45846 0.18642 0.0
H1420 H 0.86603 0.26138 0.53331 0.0
H1421 H 0.83867 0.2466 0.5174 0.0
H1422 H 0.72956 0.25613 0.53797 0.0
H1423 H 0.75655 0.27097 0.55388 0.0
H1424 H 0.78334 0.23103 0.52986 0.0
H1425 H 0.73404 0.2583 0.46736 0.0
H1426 H 0.76976 0.26105 0.48762 0.0
H1427 H 0.72179 0.26064 0.49596 0.0
C1428 C 0.83645 0.26014 0.53543 0.0
C1429 C 0.81327 0.26748 0.54424 0.0
C1430 C 0.82083 0.2517 0.52617 0.0
C1431 C 0.78206 0.2505 0.52589 0.0
C1432 C 0.75952 0.25708 0.53765 0.0
H1433 H 0.63554 0.2119 0.45416 0.0
H1434 H 0.66232 0.22645 0.47158 0.0
C1435 C 0.77505 0.26552 0.54686 0.0
C1436 C 0.76506 0.24336 0.51046 0.0
H1437 H 0.71723 0.24183 0.46121 0.0
C1438 C 0.76887 0.23336 0.51487 0.0
C1439 C 0.74646 0.24649 0.49084 0.0
C1440 C 0.7429 0.2572 0.48496 0.0
C1441 C 0.75395 0.22636 0.50028 0.0
C1442 C 0.73555 0.22949 0.48058 0.0
C1443 C 0.7316 0.23949 0.47623 0.0
C1444 C 0.71939 0.22236 0.4648 0.0
C1445 C 0.75739 0.21566 0.50623 0.0
C1446 C 0.74256 0.21574 0.45359 0.0
C1447 C 0.72738 0.20744 0.44356 0.0
C1448 C 0.68883 0.20567 0.44467 0.0
C1449 C 0.66535 0.21303 0.45311 0.0
C1450 C 0.68062 0.22131 0.46325 0.0
H1451 H 0.76508 0.21459 0.52403 0.0
H1452 H 0.73085 0.21175 0.50293 0.0
H1453 H 0.77938 0.21227 0.49579 0.0
H1454 H 0.77255 0.21657 0.4542 0.0
H1455 H 0.74612 0.20196 0.43691 0.0
H1456 H 0.38525 0.26093 0.69536 0.0
H1457 H 0.41044 0.2467 0.71489 0.0
H1458 H 0.52204 0.25686 0.70237 0.0
H1459 H 0.49736 0.27109 0.68266 0.0
H1460 H 0.47529 0.2316 0.70594 0.0
H1461 H 0.4958 0.25913 0.77339 0.0
H1462 H 0.46332 0.26097 0.75073 0.0
H1463 H 0.51237 0.26223 0.74592 0.0
C1464 C 0.41518 0.25994 0.69581 0.0
C1465 C 0.43928 0.26732 0.68801 0.0
C1466 C 0.4295 0.25183 0.70716 0.0
C1467 C 0.46797 0.25095 0.71058 0.0
C1468 C 0.4922 0.25754 0.70016 0.0
H1469 H 0.60871 0.2135 0.78784 0.0
H1470 H 0.58206 0.22811 0.77064 0.0
C1471 C 0.47797 0.26564 0.68875 0.0
C1472 C 0.48239 0.24403 0.72746 0.0
H1473 H 0.51667 0.24303 0.7807 0.0
C1474 C 0.48425 0.23407 0.72229 0.0
C1475 C 0.4938 0.24734 0.74879 0.0
C1476 C 0.49111 0.25799 0.75525 0.0
C1477 C 0.49802 0.22729 0.73786 0.0
C1478 C 0.50957 0.2306 0.75918 0.0
C1479 C 0.50758 0.24056 0.76438 0.0
C1480 C 0.52493 0.22368 0.77574 0.0
C1481 C 0.50076 0.21665 0.73134 0.0
C1482 C 0.50149 0.21683 0.786 0.0
C1483 C 0.51659 0.2085 0.79601 0.0
C1484 C 0.5553 0.20685 0.79549 0.0
C1485 C 0.57877 0.21446 0.78825 0.0
C1486 C 0.5636 0.22281 0.77828 0.0
H1487 H 0.49574 0.21552 0.71322 0.0
H1488 H 0.52869 0.21369 0.73563 0.0
H1489 H 0.47976 0.21237 0.74079 0.0
H1490 H 0.47152 0.21749 0.78445 0.0
H1491 H 0.49772 0.20286 0.80179 0.0
H1492 H 0.5029 0.02041 0.42763 0.0
H1493 H 0.47792 0.00556 0.44438 0.0
H1494 H 0.5894 -0.00482 0.45687 0.0
H1495 H 0.6148 0.01011 0.44053 0.0
H1496 H 0.48533 0.98486 0.44338 0.0
H1497 H 0.54663 0.00158 0.51961 0.0
H1498 H 0.54337 0.00803 0.49341 0.0
H1499 H 0.57932 -0.00093 0.49767 0.0
C1500 C 0.52222 0.01481 0.43308 0.0
C1501 C 0.56081 0.01663 0.43361 0.0
C1502 C 0.50783 0.00633 0.44275 0.0
C1503 C 0.53187 -0.00047 0.45272 0.0
C1504 C 0.57045 0.00054 0.44986 0.0
H1505 H 0.50011 0.94973 0.53568 0.0
H1506 H 0.52489 0.96466 0.51901 0.0
C1507 C 0.58491 0.00904 0.44026 0.0
C1508 C 0.51679 -0.00768 0.46872 0.0
H1509 H 0.51621 0.98635 0.52416 0.0
C1510 C 0.49201 0.98517 0.46102 0.0
C1511 C 0.52511 -0.00709 0.49183 0.0
C1512 C 0.54977 0.00086 0.50124 0.0
C1513 C 0.47614 0.97837 0.47575 0.0
C1514 C 0.48494 0.97887 0.49877 0.0
C1515 C 0.50945 0.98606 0.50652 0.0
C1516 C 0.47096 0.97143 0.51454 0.0
C1517 C 0.45071 0.97056 0.46653 0.0
C1518 C 0.43278 0.97071 0.51919 0.0
C1519 C 0.41851 0.9622 0.52891 0.0
C1520 C 0.44236 0.95432 0.5338 0.0
C1521 C 0.48106 0.95564 0.53184 0.0
C1522 C 0.49527 0.96416 0.52225 0.0
H1523 H 0.45162 0.97022 0.44801 0.0
H1524 H 0.45838 0.96327 0.47332 0.0
H1525 H 0.42162 0.97214 0.47164 0.0
H1526 H 0.41373 0.97636 0.51363 0.0
H1527 H 0.38858 0.96142 0.53027 0.0
H1528 H 0.56246 0.70986 0.29503 0.0
H1529 H 0.52666 0.72373 0.28014 0.0
H1530 H 0.5035 0.7072 0.22032 0.0
H1531 H 0.5364 0.69324 0.23579 0.0
H1532 H 0.53938 0.73457 0.24728 0.0
H1533 H 0.40357 0.71766 0.22928 0.0
H1534 H 0.43872 0.71144 0.24541 0.0
H1535 H 0.43922 0.71089 0.21529 0.0
C1536 C 0.54879 0.70916 0.27898 0.0
C1537 C 0.55161 0.70045 0.26672 0.0
C1538 C 0.52851 0.71707 0.27042 0.0
C1539 C 0.51154 0.71648 0.24924 0.0
C1540 C 0.51477 0.70776 0.23704 0.0
H1541 H 0.47246 0.76999 0.17383 0.0
H1542 H 0.49581 0.75393 0.18546 0.0
C1543 C 0.53392 0.69978 0.24586 0.0
C1544 C 0.49324 0.72516 0.23903 0.0
H1545 H 0.41776 0.73231 0.20833 0.0
C1546 C 0.51252 0.73409 0.23905 0.0
C1547 C 0.45789 0.72464 0.22853 0.0
C1548 C 0.43356 0.71566 0.22988 0.0
C1549 C 0.49787 0.74244 0.22862 0.0
C1550 C 0.46393 0.74171 0.21659 0.0
C1551 C 0.44428 0.73283 0.21694 0.0
C1552 C 0.44705 0.75028 0.20505 0.0
C1553 C 0.5185 0.75199 0.23136 0.0
C1554 C 0.41031 0.75305 0.20999 0.0
C1555 C 0.39627 0.76197 0.20241 0.0
C1556 C 0.41905 0.76839 0.1902 0.0
C1557 C 0.45446 0.76521 0.18341 0.0
C1558 C 0.46805 0.75612 0.1904 0.0
H1559 H 0.53665 0.75191 0.24639 0.0
H1560 H 0.53666 0.75321 0.21665 0.0
H1561 H 0.49894 0.75825 0.23284 0.0
H1562 H 0.39326 0.74863 0.22099 0.0
H1563 H 0.36887 0.76422 0.20798 0.0
H1564 H 0.49192 0.44842 0.02384 0.0
H1565 H 0.51863 0.46344 0.00901 0.0
H1566 H 0.41051 0.47718 0.01085 0.0
H1567 H 0.38333 0.46205 0.02549 0.0
H1568 H 0.44237 0.4761 0.96816 0.0
H1569 H 0.54365 0.49118 0.02897 0.0
H1570 H 0.54914 0.4783 0.02414 0.0
H1571 H 0.50721 0.48278 0.03698 0.0
C1572 C 0.47404 0.45475 0.02191 0.0
C1573 C 0.43544 0.45402 0.02552 0.0
C1574 C 0.4894 0.46336 0.01348 0.0
C1575 C 0.46651 0.4714 0.00871 0.0
C1576 C 0.42859 0.47102 0.01439 0.0
H1577 H 0.49782 0.52402 0.93388 0.0
H1578 H 0.47196 0.50873 0.94737 0.0
C1579 C 0.41316 0.4624 0.02293 0.0
C1580 C 0.48097 0.47944 -0.00535 0.0
H1581 H 0.54901 0.49673 0.99142 0.0
C1582 C 0.46548 0.48069 0.97329 0.0
C1583 C 0.5115 0.48526 0.00125 0.0
C1584 C 0.52866 0.48439 0.02416 0.0
C1585 C 0.48009 0.48752 0.95818 0.0
C1586 C 0.51058 0.49339 0.96479 0.0
C1587 C 0.52598 0.49214 0.98621 0.0
C1588 C 0.52523 0.50144 0.95074 0.0
C1589 C 0.46313 0.48824 0.93518 0.0
C1590 C 0.56371 0.5023 0.94697 0.0
C1591 C 0.57875 0.51115 0.93951 0.0
C1592 C 0.55546 0.51928 0.93593 0.0
C1593 C 0.51661 0.51794 0.93676 0.0
C1594 C 0.50166 0.50915 0.94443 0.0
H1595 H 0.45026 0.48119 0.93009 0.0
H1596 H 0.4408 0.49385 0.93534 0.0
H1597 H 0.48415 0.49035 0.9225 0.0
H1598 H 0.58237 0.4964 0.95153 0.0
H1599 H 0.60877 0.51189 0.93885 0.0
H1600 H 0.06514 0.14714 0.2764 0.0
H1601 H 0.07397 0.13007 0.28638 0.0
H1602 H 0.15613 0.13837 0.33551 0.0
H1603 H 0.14898 0.15556 0.32441 0.0
H1604 H 0.18134 0.12396 0.31439 0.0
H1605 H 0.03804 0.11368 0.3354 0.0
H1606 H 0.03727 0.11887 0.308 0.0
H1607 H 0.05124 0.12629 0.33151 0.0
C1608 C 0.08471 0.14535 0.28957 0.0
C1609 C 0.10626 0.15268 0.29972 0.0
C1610 C 0.08946 0.13557 0.29546 0.0
C1611 C 0.1149 0.13289 0.31222 0.0
C1612 C 0.13606 0.14024 0.32269 0.0
H1613 H 0.11108 0.06894 0.3282 0.0
H1614 H 0.10698 0.08623 0.33892 0.0
C1615 C 0.13199 0.15005 0.31635 0.0
C1616 C 0.12172 0.12236 0.31697 0.0
H1617 H 0.07672 0.10045 0.32006 0.0
C1618 C 0.15846 0.11885 0.31619 0.0
C1619 C 0.09223 0.11562 0.32015 0.0
C1620 C 0.0526 0.11886 0.32409 0.0
C1621 C 0.16617 0.10879 0.31659 0.0
C1622 C 0.13625 0.10203 0.31664 0.0
C1623 C 0.09978 0.10556 0.31937 0.0
C1624 C 0.14171 0.09145 0.31183 0.0
C1625 C 0.20639 0.10557 0.31671 0.0
C1626 C 0.16251 0.08858 0.2931 0.0
C1627 C 0.16575 0.07873 0.28742 0.0
C1628 C 0.14705 0.07154 0.29982 0.0
C1629 C 0.12583 0.07436 0.31841 0.0
C1630 C 0.12349 0.08423 0.32451 0.0
H1631 H 0.22385 0.11084 0.32621 0.0
H1632 H 0.20987 0.0982 0.3242 0.0
H1633 H 0.21703 0.10546 0.29933 0.0
H1634 H 0.17543 0.09397 0.28238 0.0
H1635 H 0.18169 0.07678 0.27274 0.0
H1636 H 0.0778 0.15478 0.90958 0.0
H1637 H 0.06334 0.1378 0.89958 0.0
H1638 H 0.16665 0.12839 0.92964 0.0
H1639 H 0.18203 0.1452 0.93849 0.0
H1640 H 0.15334 0.11789 0.8943 0.0
H1641 H 0.02426 0.1195 0.94558 0.0
H1642 H 0.02531 0.12753 0.92189 0.0
H1643 H 0.05705 0.12945 0.94474 0.0
C1644 C 0.09764 0.14909 0.91368 0.0
C1645 C 0.13082 0.15133 0.92509 0.0
C1646 C 0.08922 0.13938 0.90811 0.0
C1647 C 0.11342 0.13177 0.91439 0.0
C1648 C 0.14742 0.1341 0.92465 0.0
H1649 H 0.08038 0.07674 0.96995 0.0
H1650 H 0.08381 0.09374 0.95783 0.0
C1651 C 0.15614 0.14376 0.92979 0.0
C1652 C 0.10301 0.12129 0.91214 0.0
H1653 H 0.04272 0.10421 0.93255 0.0
C1654 C 0.12894 0.11488 0.90245 0.0
C1655 C 0.0711 0.11739 0.92278 0.0
C1656 C 0.04293 0.12379 0.9345 0.0
C1657 C 0.12567 0.10469 0.90479 0.0
C1658 C 0.09443 0.10079 0.91615 0.0
C1659 C 0.0668 0.1072 0.92403 0.0
C1660 C 0.09208 0.09033 0.92283 0.0
C1661 C 0.15721 0.09833 0.89661 0.0
C1662 C 0.09572 0.08268 0.90728 0.0
C1663 C 0.09523 0.07292 0.91442 0.0
C1664 C 0.08951 0.0707 0.93703 0.0
C1665 C 0.0847 0.0783 0.95241 0.0
C1666 C 0.08648 0.08801 0.94544 0.0
H1667 H 0.18278 0.10265 0.89314 0.0
H1668 H 0.16425 0.09259 0.90903 0.0
H1669 H 0.14878 0.0947 0.88084 0.0
H1670 H 0.09889 0.08423 0.88967 0.0
H1671 H 0.09848 0.06712 0.90227 0.0
H1672 H 0.91558 0.90055 0.67581 0.0
H1673 H 0.91972 0.88305 0.66792 0.0
H1674 H 0.80011 0.88069 0.67171 0.0
H1675 H 0.79572 0.89813 0.67994 0.0
H1676 H 0.83577 0.8687 0.70094 0.0
H1677 H 0.89727 0.86431 0.61683 0.0
H1678 H 0.92304 0.87262 0.63416 0.0
H1679 H 0.87613 0.87561 0.62602 0.0
C1680 C 0.89007 0.89638 0.67431 0.0
C1681 C 0.85536 0.90072 0.67878 0.0
C1682 C 0.89247 0.88637 0.66967 0.0
C1683 C 0.8602 0.88057 0.66913 0.0
C1684 C 0.82536 0.88503 0.67202 0.0
H1685 H 0.84148 0.81675 0.68064 0.0
H1686 H 0.82768 0.83363 0.66959 0.0
C1687 C 0.82293 0.89501 0.67675 0.0
C1688 C 0.86316 0.86975 0.66905 0.0
H1689 H 0.9015 0.85037 0.64138 0.0
C1690 C 0.84945 0.86467 0.68769 0.0
C1691 C 0.88125 0.86452 0.65182 0.0
C1692 C 0.89495 0.86953 0.63097 0.0
C1693 C 0.8547 0.85457 0.69001 0.0
C1694 C 0.87385 0.8494 0.67316 0.0
C1695 C 0.88672 0.85439 0.65421 0.0
C1696 C 0.8833 0.83897 0.67613 0.0
C1697 C 0.84131 0.84953 0.71096 0.0
C1698 C 0.9194 0.83639 0.68277 0.0
C1699 C 0.92737 0.8268 0.68919 0.0
C1700 C 0.89933 0.8196 0.68902 0.0
C1701 C 0.86369 0.8221 0.68104 0.0
C1702 C 0.85572 0.83173 0.67471 0.0
H1703 H 0.82979 0.85477 0.72333 0.0
H1704 H 0.81926 0.84417 0.70662 0.0
H1705 H 0.86457 0.84544 0.71886 0.0
H1706 H 0.94097 0.8419 0.68402 0.0
H1707 H 0.95518 0.82513 0.6951 0.0
H1708 H 0.84034 0.90458 0.05015 0.0
H1709 H 0.8251 0.8876 0.05943 0.0
H1710 H 0.94091 0.8797 0.05334 0.0
H1711 H 0.9565 0.89658 0.04415 0.0
H1712 H 0.84119 0.8721 0.0289 0.0
H1713 H 0.90754 0.86577 0.11131 0.0
H1714 H 0.89646 0.87785 0.10099 0.0
H1715 H 0.93719 0.87156 0.09111 0.0
C1716 C 0.86271 0.89928 0.05128 0.0
C1717 C 0.89964 0.90193 0.04631 0.0
C1718 C 0.85391 0.88959 0.05656 0.0
C1719 C 0.88194 0.88244 0.05729 0.0
C1720 C 0.91898 0.88515 0.05328 0.0
H1721 H 0.90868 0.8205 0.05257 0.0
H1722 H 0.91479 0.83813 0.05844 0.0
C1723 C 0.92778 0.8948 0.04787 0.0
C1724 C 0.87226 0.87198 0.05962 0.0
H1725 H 0.89044 0.85152 0.09049 0.0
C1726 C 0.85135 0.86761 0.04255 0.0
C1727 C 0.886 0.86617 0.07733 0.0
C1728 C 0.90779 0.87057 0.09635 0.0
C1729 C 0.84512 0.85749 0.04218 0.0
C1730 C 0.85935 0.85163 0.05973 0.0
C1731 C 0.87947 0.85604 0.07712 0.0
C1732 C 0.85543 0.84085 0.05947 0.0
C1733 C 0.82498 0.85313 0.02241 0.0
C1734 C 0.82007 0.8365 0.05907 0.0
C1735 C 0.81648 0.82646 0.05551 0.0
C1736 C 0.84824 0.82057 0.0526 0.0
C1737 C 0.88369 0.82484 0.05468 0.0
C1738 C 0.88723 0.83491 0.05803 0.0
H1739 H 0.82385 0.85826 0.00805 0.0
H1740 H 0.83868 0.84626 0.01686 0.0
H1741 H 0.79593 0.85137 0.02727 0.0
H1742 H 0.7952 0.84093 0.0607 0.0
H1743 H 0.78878 0.82336 0.05429 0.0
H1744 H 0.07427 0.5698 0.80665 0.0
H1745 H 0.06628 0.58738 0.81303 0.0
H1746 H 0.18537 0.59093 0.81678 0.0
H1747 H 0.19378 0.57343 0.81044 0.0
H1748 H 0.10464 0.60267 0.84794 0.0
H1749 H 0.13833 0.60514 0.75725 0.0
H1750 H 0.12022 0.59409 0.76971 0.0
H1751 H 0.16766 0.59758 0.77455 0.0
C1752 C 0.09873 0.57427 0.80952 0.0
C1753 C 0.13468 0.57026 0.80764 0.0
C1754 C 0.09408 0.5843 0.8132 0.0
C1755 C 0.12528 0.5904 0.81517 0.0
C1756 C 0.16103 0.5863 0.81525 0.0
H1757 H 0.15368 0.65362 0.81445 0.0
H1758 H 0.15949 0.63615 0.82333 0.0
C1759 C 0.16572 0.57631 0.81154 0.0
C1760 C 0.12095 0.60111 0.81356 0.0
H1761 H 0.12834 0.61991 0.77637 0.0
C1762 C 0.10988 0.60648 0.83236 0.0
C1763 C 0.12763 0.60597 0.79313 0.0
C1764 C 0.13895 0.60045 0.7724 0.0
C1765 C 0.10554 0.61669 0.83119 0.0
C1766 C 0.11243 0.62152 0.81077 0.0
C1767 C 0.12335 0.61614 0.79201 0.0
C1768 C 0.10707 0.63215 0.80807 0.0
C1769 C 0.09313 0.62229 0.85152 0.0
C1770 C 0.07556 0.6356 0.79676 0.0
C1771 C 0.07209 0.64551 0.79173 0.0
C1772 C 0.10034 0.65215 0.7977 0.0
C1773 C 0.1315 0.64869 0.80959 0.0
C1774 C 0.13481 0.63874 0.81475 0.0
H1775 H 0.08689 0.61739 0.86584 0.0
H1776 H 0.1153 0.6275 0.85654 0.0
H1777 H 0.06787 0.62664 0.84749 0.0
H1778 H 0.05407 0.63057 0.79133 0.0
H1779 H 0.04774 0.64791 0.78253 0.0
H1780 H 0.20853 0.64555 0.44865 0.0
H1781 H 0.19442 0.62849 0.44056 0.0
H1782 H 0.08051 0.63619 0.42593 0.0
H1783 H 0.09428 0.65337 0.43391 0.0
H1784 H 0.1393 0.61798 0.46505 0.0
H1785 H 0.11207 0.61785 0.3736 0.0
H1786 H 0.13785 0.62749 0.38728 0.0
H1787 H 0.08805 0.62703 0.38956 0.0
C1788 C 0.18057 0.64368 0.44335 0.0
C1789 C 0.15247 0.65084 0.44199 0.0
C1790 C 0.17261 0.63392 0.43874 0.0
C1791 C 0.13655 0.63112 0.43252 0.0
C1792 C 0.10867 0.63825 0.43038 0.0
H1793 H 0.03482 0.57409 0.43987 0.0
H1794 H 0.04601 0.59162 0.43575 0.0
C1795 C 0.11658 0.64805 0.43503 0.0
C1796 C 0.12758 0.62063 0.4303 0.0
H1797 H 0.10014 0.60307 0.39324 0.0
C1798 C 0.13083 0.61472 0.44935 0.0
C1799 C 0.11653 0.61643 0.40978 0.0
C1800 C 0.11362 0.62248 0.38879 0.0
C1801 C 0.12313 0.60469 0.44844 0.0
C1802 C 0.11201 0.6005 0.42797 0.0
C1803 C 0.10869 0.60637 0.40888 0.0
C1804 C 0.10381 0.58998 0.42648 0.0
C1805 C 0.1268 0.59859 0.46933 0.0
C1806 C 0.13249 0.58331 0.422 0.0
C1807 C 0.12633 0.57328 0.42441 0.0
C1808 C 0.09137 0.5698 0.43141 0.0
C1809 C 0.06211 0.57651 0.43453 0.0
C1810 C 0.06835 0.58653 0.43214 0.0
H1811 H 0.13661 0.60294 0.48385 0.0
H1812 H 0.09943 0.59529 0.47353 0.0
H1813 H 0.14669 0.5925 0.46643 0.0
H1814 H 0.16009 0.5859 0.41771 0.0
H1815 H 0.1494 0.5683 0.42181 0.0
H1816 H 0.93228 0.32471 0.2161 0.0
H1817 H 0.92362 0.34139 0.20319 0.0
H1818 H 0.86075 0.33086 0.1466 0.0
H1819 H 0.86725 0.31402 0.16059 0.0
H1820 H 0.94367 0.35101 0.16869 0.0
H1821 H 0.78869 0.35023 0.16895 0.0
H1822 H 0.81602 0.34027 0.17981 0.0
H1823 H 0.81054 0.34181 0.15014 0.0
C1824 C 0.91667 0.32593 0.20085 0.0
C1825 C 0.90028 0.31809 0.18938 0.0
C1826 C 0.9118 0.33549 0.19341 0.0
C1827 C 0.8911 0.33747 0.17402 0.0
C1828 C 0.87591 0.32959 0.16195 0.0
H1829 H 0.89803 0.40205 0.15849 0.0
H1830 H 0.90437 0.38511 0.14532 0.0
C1831 C 0.87987 0.31997 0.16982 0.0
C1832 C 0.88498 0.34786 0.16746 0.0
H1833 H 0.81725 0.36527 0.16251 0.0
C1834 C 0.91601 0.35413 0.16713 0.0
C1835 C 0.84889 0.35193 0.16514 0.0
C1836 C 0.81409 0.34575 0.16618 0.0
C1837 C 0.91194 0.36434 0.16697 0.0
C1838 C 0.87574 0.36843 0.1657 0.0
C1839 C 0.84496 0.36214 0.16361 0.0
C1840 C 0.8685 0.37893 0.17077 0.0
C1841 C 0.94627 0.37057 0.17018 0.0
C1842 C 0.8445 0.38121 0.18849 0.0
C1843 C 0.83996 0.39083 0.1955 0.0
C1844 C 0.85981 0.39847 0.18524 0.0
C1845 C 0.88275 0.3963 0.16689 0.0
C1846 C 0.8866 0.38661 0.15948 0.0
H1847 H 0.97087 0.36616 0.17526 0.0
H1848 H 0.95318 0.37429 0.15426 0.0
H1849 H 0.94147 0.37624 0.18312 0.0
H1850 H 0.83021 0.37547 0.19757 0.0
H1851 H 0.82202 0.39221 0.20968 0.0
H1852 H 0.79541 0.32411 0.55822 0.0
H1853 H 0.80107 0.34154 0.56651 0.0
H1854 H 0.92058 0.33942 0.56119 0.0
H1855 H 0.91525 0.32189 0.55338 0.0
H1856 H 0.89604 0.3522 0.59551 0.0
H1857 H 0.82635 0.35978 0.51441 0.0
H1858 H 0.79983 0.35228 0.53317 0.0
H1859 H 0.84299 0.34777 0.52197 0.0
C1860 C 0.82296 0.32731 0.55918 0.0
C1861 C 0.85488 0.32167 0.55481 0.0
C1862 C 0.82611 0.33727 0.56385 0.0
C1863 C 0.86116 0.34179 0.56391 0.0
C1864 C 0.89325 0.33606 0.56107 0.0
H1865 H 0.95026 0.39964 0.55579 0.0
H1866 H 0.93965 0.38234 0.56329 0.0
C1867 C 0.89016 0.32605 0.55661 0.0
C1868 C 0.86412 0.35257 0.56507 0.0
H1869 H 0.84141 0.37338 0.53667 0.0
C1870 C 0.88399 0.35685 0.58273 0.0
C1871 C 0.8485 0.3586 0.54827 0.0
C1872 C 0.82851 0.3544 0.52826 0.0
C1873 C 0.88854 0.36704 0.58406 0.0
C1874 C 0.87314 0.37304 0.56717 0.0
C1875 C 0.85284 0.36876 0.54972 0.0
C1876 C 0.8798 0.38371 0.56618 0.0
C1877 C 0.90971 0.3713 0.60351 0.0
C1878 C 0.84966 0.39024 0.5654 0.0
C1879 C 0.85558 0.40015 0.56093 0.0
C1880 C 0.89177 0.40368 0.55698 0.0
C1881 C 0.92203 0.39718 0.55878 0.0
C1882 C 0.91607 0.38728 0.56324 0.0
H1883 H 0.91008 0.36622 0.61799 0.0
H1884 H 0.93897 0.37264 0.59841 0.0
H1885 H 0.89744 0.37838 0.60886 0.0
H1886 H 0.82142 0.3876 0.56748 0.0
H1887 H 0.83167 0.40496 0.55969 0.0
H1888 H 0.68197 0.07865 0.76384 0.0
H1889 H 0.67128 0.09513 0.77701 0.0
H1890 H 0.58701 0.0846 0.82233 0.0
H1891 H 0.59661 0.06789 0.80844 0.0
H1892 H 0.5622 0.09986 0.80152 0.0
H1893 H 0.70195 0.10959 0.83105 0.0
H1894 H 0.70626 0.1051 0.80313 0.0
H1895 H 0.68935 0.0971 0.8249 0.0
C1896 C 0.66149 0.07974 0.77687 0.0
C1897 C 0.6402 0.0719 0.78511 0.0
C1898 C 0.65569 0.08922 0.78458 0.0
C1899 C 0.62908 0.09112 0.80114 0.0
C1900 C 0.60804 0.0833 0.80973 0.0
H1901 H 0.62784 0.1547 0.82473 0.0
H1902 H 0.63161 0.1372 0.83391 0.0
C1903 C 0.61354 0.07376 0.80177 0.0
C1904 C 0.62113 0.10143 0.80748 0.0
H1905 H 0.66514 0.12323 0.81561 0.0
C1906 C 0.58458 0.10494 0.80519 0.0
C1907 C 0.6499 0.10807 0.81304 0.0
C1908 C 0.68893 0.10472 0.81843 0.0
C1909 C 0.57671 0.11498 0.80624 0.0
C1910 C 0.60643 0.12173 0.80867 0.0
C1911 C 0.64236 0.11815 0.81309 0.0
C1912 C 0.60164 0.1324 0.80446 0.0
C1913 C 0.53664 0.11821 0.80429 0.0
C1914 C 0.58396 0.13556 0.78481 0.0
C1915 C 0.58094 0.1455 0.77994 0.0
C1916 C 0.5968 0.15252 0.79414 0.0
C1917 C 0.6153 0.14941 0.81356 0.0
C1918 C 0.6174 0.13943 0.81879 0.0
H1919 H 0.51779 0.11277 0.81218 0.0
H1920 H 0.5319 0.12543 0.81223 0.0
H1921 H 0.52884 0.11867 0.78639 0.0
H1922 H 0.57317 0.13034 0.77287 0.0
H1923 H 0.56719 0.14767 0.7646 0.0
H1924 H 0.70189 0.14871 0.4238 0.0
H1925 H 0.69321 0.13133 0.41627 0.0
H1926 H 0.57442 0.13561 0.41258 0.0
H1927 H 0.5827 0.15308 0.42024 0.0
H1928 H 0.64364 0.12122 0.44962 0.0
H1929 H 0.60476 0.11526 0.3606 0.0
H1930 H 0.63329 0.12546 0.36941 0.0
H1931 H 0.58432 0.12549 0.37514 0.0
C1932 C 0.67393 0.14603 0.4208 0.0
C1933 C 0.6429 0.15225 0.423 0.0
C1934 C 0.66909 0.1361 0.41642 0.0
C1935 C 0.63323 0.13223 0.41391 0.0
C1936 C 0.60235 0.13852 0.41426 0.0
H1937 H 0.54739 0.07511 0.44356 0.0
H1938 H 0.55555 0.09241 0.43458 0.0
C1939 C 0.60714 0.14849 0.41869 0.0
C1940 C 0.62797 0.12154 0.41492 0.0
H1941 H 0.60212 0.10149 0.3847 0.0
C1942 C 0.63476 0.11689 0.4354 0.0
C1943 C 0.61627 0.11599 0.39634 0.0
C1944 C 0.60933 0.12074 0.37402 0.0
C1945 C 0.62979 0.1068 0.43788 0.0
C1946 C 0.61784 0.10124 0.41938 0.0
C1947 C 0.61131 0.10584 0.39879 0.0
C1948 C 0.61132 0.09065 0.42166 0.0
C1949 C 0.63694 0.10211 0.46029 0.0
C1950 C 0.63991 0.08398 0.417 0.0
C1951 C 0.63551 0.07408 0.42223 0.0
C1952 C 0.60241 0.07074 0.4322 0.0
C1953 C 0.57327 0.07743 0.43594 0.0
C1954 C 0.57776 0.08731 0.43075 0.0
H1955 H 0.6488 0.10735 0.47256 0.0
H1956 H 0.61041 0.0992 0.46707 0.0
H1957 H 0.65644 0.09586 0.45842 0.0
H1958 H 0.6661 0.0865 0.41011 0.0
H1959 H 0.65841 0.06911 0.41908 0.0
H1960 H 0.28919 0.89724 0.20818 0.0
H1961 H 0.30258 0.88086 0.19456 0.0
H1962 H 0.4043 0.89123 0.16456 0.0
H1963 H 0.39145 0.90775 0.17848 0.0
H1964 H 0.31573 0.87356 0.1507 0.0
H1965 H 0.43848 0.86913 0.20687 0.0
H1966 H 0.40514 0.87888 0.21052 0.0
H1967 H 0.43851 0.87946 0.18828 0.0
C1968 C 0.31434 0.89611 0.19856 0.0
C1969 C 0.33943 0.90383 0.19462 0.0
C1970 C 0.32186 0.88672 0.19071 0.0
C1971 C 0.35458 0.88481 0.17876 0.0
C1972 C 0.37912 0.89253 0.17404 0.0
H1973 H 0.43739 0.82515 0.16225 0.0
H1974 H 0.43095 0.84271 0.15528 0.0
C1975 C 0.37166 0.90197 0.18195 0.0
C1976 C 0.36334 0.87459 0.17245 0.0
H1977 H 0.41904 0.85539 0.18687 0.0
C1978 C 0.33866 0.86959 0.15831 0.0
C1979 C 0.39338 0.86948 0.18231 0.0
C1980 C 0.42036 0.87445 0.19796 0.0
C1981 C 0.34244 0.85952 0.15436 0.0
C1982 C 0.37117 0.85427 0.16528 0.0
C1983 C 0.39699 0.85939 0.17849 0.0
C1984 C 0.37305 0.84341 0.16521 0.0
C1985 C 0.31526 0.85461 0.13876 0.0
C1986 C 0.34238 0.83788 0.17247 0.0
C1987 C 0.34582 0.82782 0.17608 0.0
C1988 C 0.38028 0.82313 0.17304 0.0
C1989 C 0.4105 0.82857 0.16479 0.0
C1990 C 0.40687 0.83861 0.16083 0.0
H1991 H 0.30543 0.85978 0.12569 0.0
H1992 H 0.32779 0.84813 0.1305 0.0
H1993 H 0.2905 0.85221 0.14838 0.0
H1994 H 0.31631 0.84141 0.17662 0.0
H1995 H 0.32213 0.82386 0.18268 0.0
H1996 H 0.45228 0.89743 0.55155 0.0
H1997 H 0.4439 0.88045 0.5629 0.0
H1998 H 0.32888 0.8863 0.57861 0.0
H1999 H 0.33679 0.90336 0.56696 0.0
H2000 H 0.41616 0.86997 0.60145 0.0
H2001 H 0.32679 0.8666 0.52589 0.0
H2002 H 0.35599 0.87709 0.5309 0.0
H2003 H 0.31264 0.87579 0.54556 0.0
C2004 C 0.42533 0.89518 0.55782 0.0
C2005 C 0.39496 0.9017 0.55791 0.0
C2006 C 0.42069 0.88547 0.56442 0.0
C2007 C 0.38565 0.8821 0.57121 0.0
C2008 C 0.35605 0.88876 0.57313 0.0
H2009 H 0.30002 0.82319 0.56994 0.0
H2010 H 0.3091 0.84026 0.58046 0.0
C2011 C 0.36064 0.8985 0.56651 0.0
C2012 C 0.37917 0.87145 0.57332 0.0
H2013 H 0.33572 0.85245 0.5473 0.0
C2014 C 0.39829 0.86612 0.5898 0.0
C2015 C 0.35637 0.86646 0.55781 0.0
C2016 C 0.33698 0.87173 0.5389 0.0
C2017 C 0.39488 0.85589 0.59125 0.0
C2018 C 0.37208 0.85093 0.5757 0.0
C2019 C 0.35282 0.85629 0.55938 0.0
C2020 C 0.36864 0.84014 0.57502 0.0
C2021 C 0.41557 0.85047 0.60934 0.0
C2022 C 0.39941 0.83429 0.5694 0.0
C2023 C 0.39432 0.82447 0.56348 0.0
C2024 C 0.35831 0.82045 0.56278 0.0
C2025 C 0.32805 0.82612 0.5701 0.0
C2026 C 0.33319 0.83587 0.57618 0.0
H2027 H 0.42377 0.85541 0.62321 0.0
H2028 H 0.39838 0.84442 0.61617 0.0
H2029 H 0.4413 0.84724 0.6022 0.0
H2030 H 0.42692 0.83747 0.56803 0.0
H2031 H 0.41813 0.82028 0.55782 0.0
H2032 H 0.52483 0.64749 0.29229 0.0
H2033 H 0.53456 0.63055 0.30374 0.0
H2034 H 0.65257 0.6359 0.30956 0.0
H2035 H 0.64293 0.65295 0.29865 0.0
H2036 H 0.57448 0.61871 0.27754 0.0
H2037 H 0.63527 0.61806 0.3625 0.0
H2038 H 0.61166 0.62867 0.35131 0.0
H2039 H 0.65937 0.62622 0.34401 0.0
C2040 C 0.55275 0.64514 0.29659 0.0
C2041 C 0.58318 0.65153 0.29431 0.0
C2042 C 0.55824 0.63545 0.30319 0.0
C2043 C 0.59426 0.63194 0.30757 0.0
C2044 C 0.62443 0.63847 0.30671 0.0
H2045 H 0.70192 0.57722 0.29001 0.0
H2046 H 0.68565 0.59396 0.30036 0.0
C2047 C 0.61889 0.64822 0.30033 0.0
C2048 C 0.60079 0.62125 0.30936 0.0
H2049 H 0.64359 0.60349 0.34036 0.0
C2050 C 0.58896 0.61537 0.29151 0.0
C2051 C 0.62002 0.61691 0.32746 0.0
C2052 C 0.63201 0.62278 0.34751 0.0
C2053 C 0.59683 0.60534 0.29089 0.0
C2054 C 0.61676 0.60104 0.30871 0.0
C2055 C 0.62813 0.60684 0.3268 0.0
C2056 C 0.62807 0.59065 0.30765 0.0
C2057 C 0.58508 0.59948 0.27073 0.0
C2058 C 0.60136 0.5832 0.30924 0.0
C2059 C 0.6105 0.57361 0.3033 0.0
C2060 C 0.64647 0.57135 0.29553 0.0
C2061 C 0.67386 0.57872 0.29569 0.0
C2062 C 0.66471 0.58829 0.30171 0.0
H2063 H 0.57414 0.60418 0.25708 0.0
H2064 H 0.60896 0.59518 0.26421 0.0
H2065 H 0.56293 0.59424 0.27561 0.0
H2066 H 0.57292 0.58492 0.31383 0.0
H2067 H 0.58877 0.56811 0.30351 0.0
H2068 H 0.58608 0.65547 0.92307 0.0
H2069 H 0.57979 0.63775 0.91819 0.0
H2070 H 0.6974 0.63413 0.93005 0.0
H2071 H 0.70416 0.65177 0.93488 0.0
H2072 H 0.6275 0.62254 0.88942 0.0
H2073 H 0.63275 0.61987 0.98224 0.0
H2074 H 0.61967 0.63102 0.96805 0.0
H2075 H 0.6675 0.62725 0.96862 0.0
C2076 C 0.61076 0.65094 0.92413 0.0
C2077 C 0.64553 0.65502 0.92965 0.0
C2078 C 0.60711 0.64083 0.92129 0.0
C2079 C 0.63811 0.6347 0.92393 0.0
C2080 C 0.6732 0.63879 0.92801 0.0
H2081 H 0.66034 0.57119 0.92209 0.0
H2082 H 0.66919 0.58869 0.91467 0.0
C2083 C 0.67693 0.64887 0.93079 0.0
C2084 C 0.63317 0.624 0.92502 0.0
H2085 H 0.62821 0.60514 0.96218 0.0
C2086 C 0.62774 0.6187 0.90526 0.0
C2087 C 0.63332 0.6191 0.94579 0.0
C2088 C 0.63841 0.62456 0.96747 0.0
C2089 C 0.62254 0.60851 0.90579 0.0
C2090 C 0.62281 0.60362 0.92657 0.0
C2091 C 0.6282 0.60895 0.94628 0.0
C2092 C 0.61606 0.59301 0.9285 0.0
C2093 C 0.61606 0.60304 0.88431 0.0
C2094 C 0.58317 0.58971 0.93852 0.0
C2095 C 0.57799 0.57977 0.94273 0.0
C2096 C 0.60584 0.57295 0.9372 0.0
C2097 C 0.63837 0.57625 0.92652 0.0
C2098 C 0.64344 0.58623 0.92221 0.0
H2099 H 0.61204 0.60805 0.8699 0.0
H2100 H 0.6404 0.59827 0.88085 0.0
H2101 H 0.5912 0.59825 0.88586 0.0
H2102 H 0.56184 0.59486 0.94356 0.0
H2103 H 0.55258 0.5775 0.95096 0.0
H2104 H 0.39896 0.40576 0.6806 0.0
H2105 H 0.41109 0.38843 0.67291 0.0
H2106 H 0.29637 0.3816 0.68699 0.0
H2107 H 0.28373 0.3988 0.69455 0.0
H2108 H 0.36386 0.37225 0.71446 0.0
H2109 H 0.36331 0.36813 0.62189 0.0
H2110 H 0.3841 0.37882 0.63447 0.0
H2111 H 0.33468 0.37717 0.63569 0.0
C2112 C 0.37609 0.40062 0.68156 0.0
C2113 C 0.34046 0.40368 0.68845 0.0
C2114 C 0.3831 0.39073 0.67714 0.0
C2115 C 0.35458 0.3838 0.67942 0.0
C2116 C 0.31864 0.38688 0.68509 0.0
H2117 H 0.33683 0.32079 0.6731 0.0
H2118 H 0.32769 0.33845 0.6684 0.0
C2119 C 0.31156 0.39673 0.68945 0.0
C2120 C 0.36293 0.37324 0.67862 0.0
H2121 H 0.37496 0.35391 0.64331 0.0
C2122 C 0.36648 0.36823 0.69893 0.0
C2123 C 0.36598 0.36809 0.65831 0.0
C2124 C 0.36178 0.37326 0.63624 0.0
C2125 C 0.37302 0.35813 0.69948 0.0
C2126 C 0.37629 0.35295 0.67917 0.0
C2127 C 0.37258 0.35795 0.65881 0.0
C2128 C 0.38333 0.3423 0.67907 0.0
C2129 C 0.37588 0.35303 0.72177 0.0
C2130 C 0.41795 0.33867 0.686 0.0
C2131 C 0.42331 0.32862 0.68867 0.0
C2132 C 0.39404 0.32202 0.68451 0.0
C2133 C 0.35989 0.32567 0.6765 0.0
C2134 C 0.35462 0.33575 0.67377 0.0
H2135 H 0.36634 0.35776 0.73572 0.0
H2136 H 0.35911 0.34621 0.72176 0.0
H2137 H 0.40534 0.35099 0.72492 0.0
H2138 H 0.44046 0.34364 0.69006 0.0
H2139 H 0.45002 0.32608 0.69477 0.0
H2140 H 0.32495 0.40221 0.05766 0.0
H2141 H 0.32283 0.38534 0.07119 0.0
H2142 H 0.44275 0.38497 0.07605 0.0
H2143 H 0.44503 0.40169 0.06181 0.0
H2144 H 0.41795 0.3713 0.04869 0.0
H2145 H 0.33658 0.36907 0.12674 0.0
H2146 H 0.31241 0.37586 0.10559 0.0
H2147 H 0.35576 0.38044 0.11653 0.0
C2148 C 0.35074 0.39864 0.06234 0.0
C2149 C 0.38517 0.40319 0.0584 0.0
C2150 C 0.34951 0.389 0.07023 0.0
C2151 C 0.38266 0.38388 0.07472 0.0
C2152 C 0.41685 0.38877 0.07269 0.0
H2153 H 0.41096 0.32015 0.0669 0.0
H2154 H 0.42301 0.33686 0.07971 0.0
C2155 C 0.41811 0.39831 0.06449 0.0
C2156 C 0.38213 0.37308 0.07723 0.0
H2157 H 0.33958 0.35423 0.10457 0.0
C2158 C 0.40156 0.36756 0.06128 0.0
C2159 C 0.3605 0.36821 0.09352 0.0
C2160 C 0.34044 0.37372 0.11169 0.0
C2161 C 0.39831 0.35737 0.06033 0.0
C2162 C 0.3755 0.35251 0.07607 0.0
C2163 C 0.35721 0.35797 0.09262 0.0
C2164 C 0.36687 0.34198 0.07359 0.0
C2165 C 0.41741 0.35195 0.04157 0.0
C2166 C 0.33083 0.3392 0.06723 0.0
C2167 C 0.3238 0.32967 0.06004 0.0
C2168 C 0.35276 0.32275 0.05903 0.0
C2169 C 0.38815 0.32533 0.06722 0.0
C2170 C 0.39511 0.33488 0.07452 0.0
H2171 H 0.42852 0.357 0.02864 0.0
H2172 H 0.44107 0.34767 0.04841 0.0
H2173 H 0.39786 0.34677 0.03341 0.0
H2174 H 0.30863 0.34456 0.06646 0.0
H2175 H 0.2961 0.32791 0.0541 0.0
H2176 H 0.99407 0.04708 0.31349 0.0
H2177 H 0.93735 0.04591 0.3359 0.0
H2178 H 0.94515 0.01444 0.33479 0.0
H2179 H 0.00207 0.01553 0.31249 0.0
H2180 H 0.86927 0.03607 0.32604 0.0
H2181 H 0.93818 0.02116 0.40199 0.0
H2182 H 0.96392 0.02687 0.37963 0.0
H2183 H 0.94692 0.0146 0.37654 0.0
C2184 C 0.9837 0.0399 0.31794 0.0
C2185 C 0.00275 0.0314 0.31128 0.0
C2186 C 0.95129 0.03925 0.33075 0.0
C2187 C 0.93743 0.0301 0.3373 0.0
C2188 C 0.9558 0.02158 0.33026 0.0
H2189 H 0.74537 0.01426 0.41931 0.0
H2190 H 0.80159 0.01383 0.39615 0.0
C2191 C 0.98819 0.02222 0.31738 0.0
C2192 C 0.90363 0.0295 0.35141 0.0
H2193 H 0.87263 0.02265 0.40301 0.0
C2194 C 0.86996 0.03314 0.34287 0.0
C2195 C 0.90465 0.02563 0.37332 0.0
C2196 C 0.94036 0.0219 0.38357 0.0
C2197 C 0.83721 0.03299 0.35563 0.0
C2198 C 0.83837 0.02929 0.37768 0.0
C2199 C 0.87188 0.0255 0.38612 0.0
C2200 C 0.80523 0.02954 0.39241 0.0
C2201 C 0.80155 0.03671 0.34532 0.0
C2202 C 0.78928 0.03852 0.39844 0.0
C2203 C 0.7573 0.0388 0.41168 0.0
C2204 C 0.74066 0.03009 0.41924 0.0
C2205 C 0.75737 0.0211 0.41371 0.0
C2206 C 0.78948 0.02084 0.40047 0.0
H2207 H 0.80308 0.03682 0.3268 0.0
H2208 H 0.77746 0.03214 0.35042 0.0
H2209 H 0.7964 0.0443 0.35108 0.0
H2210 H 0.80146 0.04533 0.39277 0.0
H2211 H 0.74534 0.04586 0.41571 0.0
H2212 H 0.24873 0.17723 0.31522 0.0
H2213 H 0.30345 0.17788 0.33949 0.0
H2214 H 0.30551 0.20931 0.33375 0.0
H2215 H 0.25067 0.20875 0.30938 0.0
H2216 H 0.37686 0.19988 0.32915 0.0
H2217 H 0.30089 0.18788 0.40504 0.0
H2218 H 0.29481 0.18008 0.38118 0.0
H2219 H 0.2774 0.1924 0.38043 0.0
C2220 C 0.2609 0.18429 0.31896 0.0
C2221 C 0.24513 0.19295 0.31041 0.0
C2222 C 0.29205 0.18465 0.33297 0.0
C2223 C 0.30812 0.19365 0.33873 0.0
C2224 C 0.29332 0.20229 0.32964 0.0
H2225 H 0.47111 0.20176 0.44634 0.0
H2226 H 0.4165 0.20332 0.42192 0.0
C2227 C 0.262 0.20195 0.3157 0.0
C2228 C 0.3403 0.19403 0.35428 0.0
H2229 H 0.36699 0.18838 0.40752 0.0
C2230 C 0.37469 0.19742 0.34632 0.0
C2231 C 0.33724 0.19097 0.37677 0.0
C2232 C 0.30055 0.18771 0.3865 0.0
C2233 C 0.40644 0.19751 0.36007 0.0
C2234 C 0.40375 0.19404 0.38227 0.0
C2235 C 0.36907 0.19096 0.39045 0.0
C2236 C 0.4369 0.19321 0.397 0.0
C2237 C 0.44261 0.20134 0.35072 0.0
C2238 C 0.46616 0.1869 0.39127 0.0
C2239 C 0.49724 0.18597 0.40516 0.0
C2240 C 0.49973 0.19131 0.42519 0.0
C2241 C 0.47018 0.19757 0.43102 0.0
C2242 C 0.43895 0.19847 0.4171 0.0
H2243 H 0.43791 0.2061 0.33594 0.0
H2244 H 0.45824 0.20555 0.36351 0.0
H2245 H 0.46017 0.19508 0.34541 0.0
H2246 H 0.46482 0.18262 0.37608 0.0
H2247 H 0.51933 0.18104 0.40016 0.0
H2248 H 0.73932 0.20917 0.8149 0.0
H2249 H 0.7953 0.20958 0.83827 0.0
H2250 H 0.79651 0.17807 0.84051 0.0
H2251 H 0.74048 0.17756 0.81732 0.0
H2252 H 0.80427 0.18695 0.88257 0.0
H2253 H 0.90306 0.20263 0.82085 0.0
H2254 H 0.86078 0.20947 0.82473 0.0
H2255 H 0.85883 0.19742 0.81285 0.0
C2256 C 0.75164 0.20231 0.8202 0.0
C2257 C 0.73538 0.19333 0.81417 0.0
C2258 C 0.78375 0.20257 0.83349 0.0
C2259 C 0.80029 0.19385 0.84097 0.0
C2260 C 0.78426 0.18488 0.83488 0.0
H2261 H 0.01603 0.18269 0.89858 0.0
H2262 H 0.96042 0.18411 0.87535 0.0
C2263 C 0.75226 0.18461 0.82156 0.0
C2264 C 0.83357 0.19404 0.85573 0.0
H2265 H 0.92531 0.20062 0.85777 0.0
C2266 C 0.83073 0.18996 0.87718 0.0
C2267 C 0.86812 0.1979 0.8486 0.0
C2268 C 0.87318 0.20204 0.82544 0.0
C2269 C 0.8615 0.18962 0.89169 0.0
C2270 C 0.89596 0.19358 0.88466 0.0
C2271 C 0.89879 0.19767 0.86321 0.0
C2272 C 0.92992 0.19305 0.89883 0.0
C2273 C 0.85713 0.18477 0.91417 0.0
C2274 C 0.93152 0.19773 0.91969 0.0
C2275 C 0.96338 0.19691 0.93312 0.0
C2276 C 0.9943 0.19144 0.92588 0.0
C2277 C 0.99275 0.18693 0.90478 0.0
C2278 C 0.96097 0.18775 0.89141 0.0
H2279 H 0.8316 0.18019 0.91498 0.0
H2280 H 0.88161 0.1801 0.91805 0.0
H2281 H 0.85504 0.19048 0.92726 0.0
H2282 H 0.90812 0.202 0.92559 0.0
H2283 H 0.96369 0.20053 0.9492 0.0
H2284 H 0.22276 0.0446 0.90484 0.0
H2285 H 0.28094 0.04449 0.88376 0.0
H2286 H 0.31879 0.01952 0.92149 0.0
H2287 H 0.26039 0.0195 0.94261 0.0
H2288 H 0.35398 0.04634 0.90072 0.0
H2289 H 0.3343 0.01108 0.85613 0.0
H2290 H 0.29643 0.01743 0.86964 0.0
H2291 H 0.32918 0.01051 0.88594 0.0
C2292 C 0.24333 0.03904 0.90863 0.0
C2293 C 0.23682 0.03203 0.9254 0.0
C2294 C 0.2766 0.039 0.89656 0.0
C2295 C 0.30399 0.03193 0.90087 0.0
C2296 C 0.29772 0.02493 0.91762 0.0
H2297 H 0.52175 0.02056 0.84308 0.0
H2298 H 0.46476 0.02033 0.86535 0.0
C2299 C 0.2644 0.02497 0.92975 0.0
C2300 C 0.33946 0.03209 0.8882 0.0
H2301 H 0.39244 0.01895 0.85163 0.0
C2302 C 0.36241 0.04036 0.88994 0.0
C2303 C 0.35038 0.02427 0.87422 0.0
C2304 C 0.32622 0.01534 0.87115 0.0
C2305 C 0.39625 0.04099 0.8783 0.0
C2306 C 0.40703 0.03321 0.86412 0.0
C2307 C 0.38414 0.02491 0.86248 0.0
C2308 C 0.4419 0.03353 0.85081 0.0
C2309 C 0.42048 0.04988 0.88167 0.0
C2310 C 0.4479 0.04098 0.83507 0.0
C2311 C 0.4806 0.04117 0.82239 0.0
C2312 C 0.50776 0.03384 0.82501 0.0
C2313 C 0.50149 0.02634 0.84065 0.0
C2314 C 0.46888 0.02618 0.85339 0.0
H2315 H 0.41372 0.05372 0.8975 0.0
H2316 H 0.45045 0.04788 0.88188 0.0
H2317 H 0.41576 0.05509 0.86774 0.0
H2318 H 0.42709 0.0466 0.8324 0.0
H2319 H 0.48438 0.047 0.81037 0.0
H2320 H 0.27122 0.93076 0.58384 0.0
H2321 H 0.21587 0.93211 0.60722 0.0
H2322 H 0.17158 0.95429 0.56342 0.0
H2323 H 0.22694 0.95295 0.53967 0.0
H2324 H 0.18646 0.94865 0.62968 0.0
H2325 H 0.08795 0.93354 0.5668 0.0
H2326 H 0.13782 0.93233 0.56414 0.0
H2327 H 0.11559 0.94377 0.55783 0.0
C2328 C 0.24978 0.93594 0.57911 0.0
C2329 C 0.25346 0.94171 0.55977 0.0
C2330 C 0.21818 0.93671 0.59256 0.0
C2331 C 0.18947 0.94322 0.58693 0.0
C2332 C 0.1932 0.94912 0.56787 0.0
H2333 H 0.00193 0.95677 0.67566 0.0
H2334 H 0.05714 0.95815 0.65188 0.0
C2335 C 0.22492 0.94837 0.55437 0.0
C2336 C 0.15559 0.94368 0.60104 0.0
H2337 H 0.0626 0.93844 0.6013 0.0
C2338 C 0.1593 0.94648 0.62347 0.0
C2339 C 0.12032 0.94075 0.5929 0.0
C2340 C 0.11499 0.93735 0.56916 0.0
C2341 C 0.1287 0.94636 0.63806 0.0
C2342 C 0.09344 0.94344 0.62992 0.0
C2343 C 0.08966 0.94072 0.60744 0.0
C2344 C 0.06047 0.94267 0.6447 0.0
C2345 C 0.13453 0.94906 0.66223 0.0
C2346 C 0.04386 0.93353 0.64836 0.0
C2347 C 0.01235 0.93271 0.6619 0.0
C2348 C -0.00338 0.94104 0.67194 0.0
C2349 C 0.01342 0.9502 0.66828 0.0
C2350 C 0.04504 0.95101 0.65475 0.0
H2351 H 0.16453 0.94922 0.66679 0.0
H2352 H 0.12272 0.95644 0.6653 0.0
H2353 H 0.12 0.94381 0.67337 0.0
H2354 H 0.05531 0.92701 0.64072 0.0
H2355 H 0.00011 0.92555 0.66428 0.0
H2356 H 0.76752 0.79509 0.64842 0.0
H2357 H 0.71375 0.79485 0.62328 0.0
H2358 H 0.66174 0.77277 0.66409 0.0
H2359 H 0.71536 0.77294 0.68937 0.0
H2360 H 0.68313 0.7779 0.59951 0.0
H2361 H 0.58295 0.79517 0.65835 0.0
H2362 H 0.63278 0.796 0.66203 0.0
H2363 H 0.60881 0.78488 0.66889 0.0
C2364 C 0.74461 0.7902 0.65212 0.0
C2365 C 0.74568 0.78406 0.67097 0.0
C2366 C 0.71399 0.79005 0.63769 0.0
C2367 C 0.68374 0.78385 0.64195 0.0
C2368 C 0.68469 0.77769 0.66068 0.0
H2369 H 0.46868 0.778 0.57583 0.0
H2370 H 0.52335 0.77527 0.59942 0.0
C2371 C 0.71539 0.77778 0.67506 0.0
C2372 C 0.65122 0.78383 0.62673 0.0
H2373 H 0.55924 0.78998 0.62363 0.0
C2374 C 0.656 0.78053 0.60475 0.0
C2375 C 0.61591 0.78722 0.6337 0.0
C2376 C 0.60962 0.79109 0.65697 0.0
C2377 C 0.62625 0.78051 0.5895 0.0
C2378 C 0.59109 0.78407 0.59635 0.0
C2379 C 0.58623 0.78724 0.61844 0.0
C2380 C 0.55924 0.78496 0.5807 0.0
C2381 C 0.63257 0.77659 0.56628 0.0
C2382 C 0.5614 0.79126 0.56224 0.0
C2383 C 0.53019 0.79286 0.54874 0.0
C2384 C 0.49617 0.78822 0.55351 0.0
C2385 C 0.49444 0.78168 0.57165 0.0
C2386 C 0.52563 0.78012 0.58518 0.0
H2387 H 0.65731 0.77172 0.56559 0.0
H2388 H 0.60787 0.77248 0.56026 0.0
H2389 H 0.63746 0.7828 0.5547 0.0
H2390 H 0.58688 0.7952 0.55871 0.0
H2391 H 0.53249 0.79794 0.53493 0.0
H2392 H 0.23276 0.76719 0.18414 0.0
H2393 H 0.17773 0.76512 0.16024 0.0
H2394 H 0.19124 0.79451 0.1355 0.0
H2395 H 0.24584 0.7967 0.15931 0.0
H2396 H 0.10981 0.77799 0.15852 0.0
H2397 H 0.1887 0.77586 0.07891 0.0
H2398 H 0.2098 0.77342 0.10576 0.0
H2399 H 0.20128 0.7858 0.09708 0.0
C2400 C 0.2239 0.77323 0.1737 0.0
C2401 C 0.24378 0.7821 0.17361 0.0
C2402 C 0.19252 0.77203 0.16006 0.0
C2403 C 0.18085 0.77962 0.14592 0.0
C2404 C 0.20016 0.78853 0.1461 0.0
H2405 H 0.98342 0.79458 0.07463 0.0
H2406 H 0.03827 0.79327 0.09857 0.0
C2407 C 0.23124 0.78977 0.15983 0.0
C2408 C 0.14829 0.77835 0.13102 0.0
H2409 H 0.12302 0.77793 0.07604 0.0
C2410 C 0.11265 0.77787 0.1405 0.0
C2411 C 0.15222 0.7781 0.10754 0.0
C2412 C 0.19005 0.77824 0.09662 0.0
C2413 C 0.08065 0.77757 0.12701 0.0
C2414 C 0.08452 0.77778 0.10353 0.0
C2415 C 0.12021 0.77783 0.09406 0.0
C2416 C 0.05173 0.77849 0.08862 0.0
C2417 C 0.04285 0.77716 0.13793 0.0
C2418 C 0.04166 0.77067 0.07473 0.0
C2419 C 0.01012 0.77137 0.06102 0.0
C2420 C 0.9885 0.77996 0.06079 0.0
C2421 C -0.00063 0.78786 0.07436 0.0
C2422 C 0.03061 0.78711 0.08817 0.0
H2423 H 0.04474 0.77491 0.15571 0.0
H2424 H 0.02984 0.78452 0.13722 0.0
H2425 H 0.0243 0.77198 0.12895 0.0
H2426 H 0.05785 0.76398 0.07477 0.0
H2427 H 0.00257 0.76517 0.05073 0.0
H2428 H 0.72606 0.95185 0.04804 0.0
H2429 H 0.67036 0.95229 0.07149 0.0
H2430 H 0.70176 0.92477 0.10128 0.0
H2431 H 0.75771 0.92428 0.07802 0.0
H2432 H 0.61146 0.93851 0.07479 0.0
H2433 H 0.68659 0.94325 0.15518 0.0
H2434 H 0.70852 0.94526 0.12846 0.0
H2435 H 0.70171 0.93303 0.13867 0.0
C2436 C 0.72115 0.94588 0.05955 0.0
C2437 C 0.74647 0.93806 0.06125 0.0
C2438 C 0.68928 0.94614 0.07292 0.0
C2439 C 0.68227 0.93864 0.08833 0.0
C2440 C 0.70704 0.93072 0.08976 0.0
H2441 H 0.47553 0.92636 0.158 0.0
H2442 H 0.53079 0.92584 0.13422 0.0
C2443 C 0.73889 0.93043 0.07637 0.0
C2444 C 0.64893 0.9391 0.10283 0.0
H2445 H 0.62143 0.94061 0.15727 0.0
C2446 C 0.61358 0.93898 0.09282 0.0
C2447 C 0.65188 0.93984 0.12631 0.0
C2448 C 0.68918 0.94044 0.13786 0.0
C2449 C 0.58101 0.93942 0.10572 0.0
C2450 C 0.58395 0.93989 0.12925 0.0
C2451 C 0.6193 0.94016 0.13923 0.0
C2452 C 0.55062 0.94017 0.14379 0.0
C2453 C 0.54373 0.93954 0.09407 0.0
C2454 C 0.54394 0.94832 0.15745 0.0
C2455 C 0.51244 0.94863 0.17115 0.0
C2456 C 0.48718 0.94077 0.17153 0.0
C2457 C 0.49429 0.93256 0.15803 0.0
C2458 C 0.52576 0.93227 0.14433 0.0
H2459 H 0.54641 0.94154 0.07616 0.0
H2460 H 0.5311 0.93215 0.09504 0.0
H2461 H 0.52444 0.94479 0.10222 0.0
H2462 H 0.56293 0.95447 0.15736 0.0
H2463 H 0.50788 0.95505 0.18137 0.0
H2464 H 0.01174 0.51479 0.82544 0.0
H2465 H 0.95378 0.51418 0.84679 0.0
H2466 H 0.92783 0.54363 0.82619 0.0
H2467 H 0.98553 0.54429 0.80461 0.0
H2468 H 0.93438 0.52643 0.88211 0.0
H2469 H 0.83065 0.529 0.81369 0.0
H2470 H 0.87886 0.5259 0.80883 0.0
H2471 H 0.86537 0.53844 0.813 0.0
C2472 C 0.9935 0.5211 0.82518 0.0
C2473 C 0.00331 0.52959 0.81326 0.0
C2474 C 0.96041 0.52074 0.83746 0.0
C2475 C 0.9363 0.52881 0.83791 0.0
C2476 C 0.94567 0.53724 0.82575 0.0
H2477 H 0.73777 0.54592 0.90848 0.0
H2478 H 0.79375 0.54469 0.88553 0.0
C2479 C 0.97878 0.53762 0.81348 0.0
C2480 C 0.90241 0.52863 0.85209 0.0
H2481 H 0.80785 0.53128 0.85065 0.0
C2482 C 0.90666 0.5274 0.87523 0.0
C2483 C 0.86631 0.5299 0.84307 0.0
C2484 C 0.85985 0.53079 0.81827 0.0
C2485 C 0.87587 0.5277 0.88967 0.0
C2486 C 0.83983 0.52913 0.88068 0.0
C2487 C 0.83553 0.53022 0.85751 0.0
C2488 C 0.80628 0.52979 0.89505 0.0
C2489 C 0.88228 0.52681 0.91449 0.0
C2490 C 0.79463 0.52179 0.90799 0.0
C2491 C 0.76253 0.52245 0.92117 0.0
C2492 C 0.74146 0.53113 0.92161 0.0
C2493 C 0.75334 0.53913 0.90862 0.0
C2494 C 0.78531 0.53844 0.89543 0.0
H2495 H 0.91197 0.52797 0.919 0.0
H2496 H 0.86496 0.53217 0.92376 0.0
H2497 H 0.8742 0.51936 0.92003 0.0
H2498 H 0.8101 0.51499 0.90767 0.0
H2499 H 0.75412 0.51615 0.93088 0.0
H2500 H 0.23493 0.70901 0.82055 0.0
H2501 H 0.29194 0.70982 0.84293 0.0
H2502 H 0.30556 0.67861 0.83667 0.0
H2503 H 0.24889 0.67773 0.81414 0.0
H2504 H 0.3067 0.7002 0.88367 0.0
H2505 H 0.40767 0.68933 0.81818 0.0
H2506 H 0.36091 0.69331 0.81177 0.0
H2507 H 0.36927 0.68103 0.82132 0.0
C2508 C 0.25022 0.70233 0.82374 0.0
C2509 C 0.2374 0.69331 0.81545 0.0
C2510 C 0.28274 0.70281 0.83659 0.0
C2511 C 0.3032 0.6943 0.84124 0.0
C2512 C 0.29056 0.68529 0.83294 0.0
H2513 H 0.49833 0.67877 0.91744 0.0
H2514 H 0.44082 0.67918 0.89564 0.0
C2515 C 0.25805 0.6848 0.82013 0.0
C2516 C 0.33713 0.69476 0.85533 0.0
H2517 H 0.43022 0.68965 0.85551 0.0
C2518 C 0.33379 0.69797 0.8775 0.0
C2519 C 0.3724 0.69185 0.84721 0.0
C2520 C 0.37799 0.68877 0.82326 0.0
C2521 C 0.36463 0.69808 0.89196 0.0
C2522 C 0.39978 0.69503 0.88391 0.0
C2523 C 0.40318 0.69194 0.86167 0.0
C2524 C 0.4334 0.69484 0.89831 0.0
C2525 C 0.35918 0.70118 0.9159 0.0
C2526 C 0.44824 0.70351 0.90713 0.0
C2527 C 0.48121 0.70331 0.91963 0.0
C2528 C 0.49998 0.69443 0.92346 0.0
C2529 C 0.48462 0.68574 0.91487 0.0
C2530 C 0.45177 0.68596 0.90235 0.0
H2531 H 0.32932 0.70114 0.92074 0.0
H2532 H 0.37482 0.6963 0.92741 0.0
H2533 H 0.36993 0.70873 0.91809 0.0
H2534 H 0.43482 0.71047 0.90391 0.0
H2535 H 0.49233 0.71014 0.92592 0.0
H2536 H 0.00345 0.67153 0.41302 0.0
H2537 H 0.94726 0.67155 0.38982 0.0
H2538 H 0.92714 0.70171 0.40701 0.0
H2539 H 0.98294 0.70175 0.43042 0.0
H2540 H 0.86342 0.68999 0.40939 0.0
H2541 H 0.9374 0.68509 0.32882 0.0
H2542 H 0.94825 0.67602 0.34955 0.0
H2543 H 0.9611 0.68856 0.3542 0.0
C2544 C 0.98703 0.67816 0.41192 0.0
C2545 C -0.0022 0.68665 0.42352 0.0
C2546 C 0.95506 0.67817 0.39855 0.0
C2547 C 0.9334 0.68667 0.39642 0.0
C2548 C 0.9436 0.69508 0.40834 0.0
H2549 H 0.76532 0.69938 0.29627 0.0
H2550 H 0.82 0.69938 0.32065 0.0
C2551 C 0.97553 0.69509 0.42171 0.0
C2552 C 0.89997 0.68681 0.38187 0.0
H2553 H 0.87146 0.68415 0.32781 0.0
C2554 C 0.86514 0.68872 0.39155 0.0
C2555 C 0.90241 0.6853 0.35855 0.0
C2556 C 0.93931 0.68371 0.34707 0.0
C2557 C 0.83255 0.689 0.37858 0.0
C2558 C 0.83486 0.68719 0.35538 0.0
C2559 C 0.86976 0.68544 0.34564 0.0
C2560 C 0.80143 0.6872 0.34084 0.0
C2561 C 0.79601 0.6914 0.38973 0.0
C2562 C 0.77305 0.68028 0.34399 0.0
C2563 C 0.74175 0.68025 0.33007 0.0
C2564 C 0.73834 0.68712 0.31269 0.0
C2565 C 0.76699 0.694 0.30952 0.0
C2566 C 0.79829 0.69401 0.32342 0.0
H2567 H 0.80022 0.69491 0.40626 0.0
H2568 H 0.77898 0.69634 0.37911 0.0
H2569 H 0.78005 0.68455 0.39234 0.0
H2570 H 0.77526 0.67485 0.3571 0.0
H2571 H 0.72029 0.67483 0.33292 0.0
H2572 H 0.51458 0.54835 0.33306 0.0
H2573 H 0.46258 0.5482 0.35941 0.0
H2574 H 0.41586 0.52316 0.32579 0.0
H2575 H 0.46804 0.52314 0.29962 0.0
H2576 H 0.38805 0.55026 0.35139 0.0
H2577 H 0.41584 0.51423 0.39055 0.0
H2578 H 0.44964 0.52041 0.3733 0.0
H2579 H 0.41207 0.51368 0.3607 0.0
C2580 C 0.49332 0.54278 0.3313 0.0
C2581 C 0.49559 0.53572 0.31428 0.0
C2582 C 0.46363 0.54271 0.3464 0.0
C2583 C 0.43568 0.53556 0.34484 0.0
C2584 C 0.43758 0.52859 0.32768 0.0
H2585 H 0.21284 0.53704 0.39796 0.0
H2586 H 0.26902 0.53678 0.37507 0.0
C2587 C 0.46732 0.52864 0.31261 0.0
C2588 C 0.40387 0.53562 0.36067 0.0
H2589 H 0.35701 0.52157 0.39859 0.0
C2590 C 0.38141 0.54401 0.3618 0.0
C2591 C 0.39551 0.5275 0.37448 0.0
C2592 C 0.41973 0.51848 0.37491 0.0
C2593 C 0.35023 0.54441 0.37589 0.0
C2594 C 0.34098 0.53614 0.38898 0.0
C2595 C 0.36399 0.52785 0.38836 0.0
C2596 C 0.30703 0.53593 0.40303 0.0
C2597 C 0.32749 0.55368 0.37674 0.0
C2598 C 0.30975 0.53527 0.42635 0.0
C2599 C 0.27759 0.53542 0.43957 0.0
C2600 C 0.24215 0.53614 0.42964 0.0
C2601 C 0.23963 0.53652 0.40621 0.0
C2602 C 0.27173 0.53642 0.39306 0.0
H2603 H 0.34322 0.56005 0.37013 0.0
H2604 H 0.30207 0.55275 0.3664 0.0
H2605 H 0.31863 0.55532 0.3941 0.0
H2606 H 0.33678 0.53482 0.43434 0.0
H2607 H 0.28053 0.53507 0.45755 0.0
H2608 H 0.98412 0.42809 0.15173 0.0
H2609 H 0.03854 0.43036 0.12788 0.0
H2610 H 0.05763 0.45873 0.15712 0.0
H2611 H 0.00333 0.45648 0.18133 0.0
H2612 H 0.05421 0.44499 0.09636 0.0
H2613 H 0.15795 0.44468 0.16538 0.0
H2614 H 0.11044 0.44071 0.16917 0.0
H2615 H 0.12117 0.45353 0.16795 0.0
C2616 C -0.00017 0.43483 0.15314 0.0
C2617 C 0.98946 0.44208 0.16858 0.0
C2618 C 0.0309 0.43612 0.13943 0.0
C2619 C 0.0524 0.44466 0.1409 0.0
C2620 C 0.04179 0.45201 0.15597 0.0
H2621 H 0.22902 0.45765 0.04297 0.0
H2622 H 0.17345 0.45915 0.06652 0.0
C2623 C 0.01064 0.45073 0.16973 0.0
C2624 C 0.08608 0.44574 0.12676 0.0
H2625 H 0.18103 0.44702 0.12896 0.0
C2626 C 0.08194 0.44551 0.10346 0.0
C2627 C 0.12222 0.44634 0.13609 0.0
C2628 C 0.12846 0.44625 0.16101 0.0
C2629 C 0.11302 0.44571 0.08922 0.0
C2630 C 0.14916 0.44627 0.09856 0.0
C2631 C 0.15326 0.44666 0.12185 0.0
C2632 C 0.18319 0.44567 0.08457 0.0
C2633 C 0.107 0.44493 0.06435 0.0
C2634 C 0.2075 0.43772 0.08724 0.0
C2635 C 0.23921 0.43686 0.07393 0.0
C2636 C 0.24748 0.44397 0.05767 0.0
C2637 C 0.22338 0.45202 0.05524 0.0
C2638 C 0.19153 0.45287 0.06861 0.0
H2639 H 0.07819 0.4426 0.06018 0.0
H2640 H 0.11192 0.45218 0.05655 0.0
H2641 H 0.12688 0.43964 0.05687 0.0
H2642 H 0.20164 0.43209 0.09948 0.0
H2643 H 0.25715 0.43058 0.07635 0.0
H2644 H 0.74556 0.29743 0.15922 0.0
H2645 H 0.69029 0.29682 0.13528 0.0
H2646 H 0.66834 0.26734 0.15725 0.0
H2647 H 0.72309 0.26792 0.18145 0.0
H2648 H 0.67562 0.28387 0.10034 0.0
H2649 H 0.56816 0.28082 0.16656 0.0
H2650 H 0.61549 0.28446 0.1724 0.0
H2651 H 0.60431 0.27177 0.16827 0.0
C2652 C 0.7288 0.29085 0.15911 0.0
C2653 C 0.73868 0.28274 0.17232 0.0
C2654 C 0.69729 0.29051 0.14538 0.0
C2655 C 0.67498 0.28208 0.1447 0.0
C2656 C 0.68475 0.27399 0.15785 0.0
H2657 H 0.47346 0.26695 0.0713 0.0
H2658 H 0.5311 0.26628 0.09315 0.0
C2659 C 0.71619 0.27432 0.1716 0.0
C2660 C 0.64212 0.28167 0.12972 0.0
H2661 H 0.54771 0.2787 0.12925 0.0
C2662 C 0.64762 0.28277 0.10665 0.0
C2663 C 0.60567 0.28018 0.138 0.0
C2664 C 0.59787 0.27933 0.16267 0.0
C2665 C 0.61765 0.28235 0.09161 0.0
C2666 C 0.5812 0.28093 0.09991 0.0
C2667 C 0.57573 0.27974 0.12294 0.0
C2668 C 0.54807 0.28105 0.08514 0.0
C2669 C 0.62528 0.28329 0.06694 0.0
C2670 C 0.53867 0.28955 0.07329 0.0
C2671 C 0.50581 0.28997 0.06082 0.0
C2672 C 0.48155 0.28189 0.06005 0.0
C2673 C 0.4915 0.27329 0.07151 0.0
C2674 C 0.52439 0.2729 0.08403 0.0
H2675 H 0.65485 0.28166 0.06293 0.0
H2676 H 0.60716 0.2783 0.05714 0.0
H2677 H 0.61935 0.2909 0.06157 0.0
H2678 H 0.55621 0.29598 0.07424 0.0
H2679 H 0.49899 0.29671 0.05225 0.0
H2680 H 0.98412 0.29369 0.57915 0.0
H2681 H 0.04023 0.29224 0.60198 0.0
H2682 H 0.0782 0.26831 0.56111 0.0
H2683 H 0.0219 0.26968 0.53804 0.0
H2684 H 0.06626 0.27499 0.62605 0.0
H2685 H 0.16613 0.28852 0.56209 0.0
H2686 H 0.1166 0.29068 0.56011 0.0
H2687 H 0.13525 0.27883 0.55371 0.0
C2688 C 0.0044 0.28813 0.5749 0.0
C2689 C -0.00145 0.28182 0.55667 0.0
C2690 C 0.0364 0.2873 0.58805 0.0
C2691 C 0.06342 0.28022 0.58315 0.0
C2692 C 0.05779 0.27389 0.56502 0.0
H2693 H 0.2506 0.26479 0.67079 0.0
H2694 H 0.19461 0.26402 0.64741 0.0
C2695 C 0.02558 0.27467 0.5519 0.0
C2696 C 0.09738 0.27952 0.59716 0.0
H2697 H 0.19112 0.28373 0.59681 0.0
C2698 C 0.09363 0.27684 0.61966 0.0
C2699 C 0.13291 0.28203 0.58877 0.0
C2700 C 0.13821 0.28525 0.5649 0.0
C2701 C 0.12453 0.27664 0.63408 0.0
C2702 C 0.16008 0.27914 0.62569 0.0
C2703 C 0.16384 0.28177 0.60315 0.0
C2704 C 0.19348 0.27953 0.64026 0.0
C2705 C 0.11877 0.27404 0.65831 0.0
C2706 C 0.21155 0.28849 0.64384 0.0
C2707 C 0.24346 0.28896 0.65716 0.0
C2708 C 0.25819 0.28045 0.66707 0.0
C2709 C 0.23994 0.27148 0.6635 0.0
C2710 C 0.20787 0.27103 0.6502 0.0
H2711 H 0.08887 0.27419 0.66304 0.0
H2712 H 0.12954 0.26655 0.6614 0.0
H2713 H 0.13431 0.27915 0.66929 0.0
H2714 H 0.20091 0.29513 0.63629 0.0
H2715 H 0.2568 0.29599 0.65948 0.0
H2716 H 0.48069 0.42705 0.65067 0.0
H2717 H 0.53489 0.42768 0.62594 0.0
H2718 H 0.5782 0.4522 0.66296 0.0
H2719 H 0.52413 0.45165 0.68778 0.0
H2720 H 0.55901 0.44478 0.59953 0.0
H2721 H 0.66504 0.43164 0.66039 0.0
H2722 H 0.61575 0.42957 0.66417 0.0
H2723 H 0.63529 0.44141 0.66968 0.0
C2724 C 0.50184 0.43254 0.65367 0.0
C2725 C 0.4981 0.43929 0.67124 0.0
C2726 C 0.53271 0.43291 0.63947 0.0
C2727 C 0.56056 0.43995 0.64272 0.0
C2728 C 0.55713 0.44665 0.66032 0.0
H2729 H 0.74278 0.458 0.55613 0.0
H2730 H 0.68579 0.45749 0.57863 0.0
C2731 C 0.52617 0.44633 0.67445 0.0
C2732 C 0.59293 0.44039 0.62746 0.0
H2733 H 0.68704 0.43696 0.62524 0.0
C2734 C 0.58703 0.44307 0.60511 0.0
C2735 C 0.62933 0.43811 0.63482 0.0
C2736 C 0.63694 0.43495 0.65852 0.0
C2737 C 0.61677 0.44362 0.58993 0.0
C2738 C 0.65319 0.44143 0.59736 0.0
C2739 C 0.65903 0.43867 0.61966 0.0
C2740 C 0.68566 0.44174 0.58218 0.0
C2741 C 0.60913 0.44639 0.56599 0.0
C2742 C 0.70414 0.43305 0.57659 0.0
C2743 C 0.73648 0.4333 0.56367 0.0
C2744 C 0.75128 0.44228 0.55631 0.0
C2745 C 0.73213 0.45097 0.56149 0.0
C2746 C 0.69955 0.45069 0.57431 0.0
H2747 H 0.57887 0.44636 0.56209 0.0
H2748 H 0.62011 0.45385 0.56279 0.0
H2749 H 0.62358 0.44128 0.55449 0.0
H2750 H 0.69383 0.42608 0.58255 0.0
H2751 H 0.75048 0.42647 0.56005 0.0
loop_
_geom_bond_atom_site_label_1
_geom_bond_atom_site_label_2
_geom_bond_distance
_geom_bond_site_symmetry_2
_ccdc_geom_bond_type
Zn0 O3 2.031 . S
Zn0 O5 2.049 . S
Zn0 O10 2.067 . S
Zn1 O2 1.962 . S
Zn1 O4 1.986 . S
Zn1 O6 1.996 . S
Zn1 O9 1.943 . S
O2 Zn1 1.962 . S
O2 C7 1.254 . S
O3 Zn0 2.031 . S
O3 C7 1.269 . S
O4 Zn1 1.986 . S
O4 C11 1.262 . S
O5 Zn0 2.049 . S
O5 C13 1.260 . S
O6 Zn1 1.996 . S
O6 C13 1.257 . S
C7 O2 1.254 . S
C7 O3 1.269 . S
C8 O9 1.249 . S
C8 O10 1.270 . S
O9 Zn1 1.943 . S
O9 C8 1.249 . S
O10 Zn0 2.067 . S
O10 C8 1.270 . S
C11 O4 1.262 . S
C11 O12 1.232 . S
O12 C11 1.232 . S
C13 O5 1.260 . S
C13 O6 1.257 . S
Zn14 O17 2.031 . S
Zn14 O19 2.049 . S
Zn14 O24 2.067 . S
Zn15 O16 1.962 . S
Zn15 O18 1.986 . S
Zn15 O20 1.996 . S
Zn15 O23 1.943 . S
O16 Zn15 1.962 . S
O16 C21 1.254 . S
O17 Zn14 2.031 . S
O17 C21 1.269 . S
O18 Zn15 1.986 . S
O18 C25 1.262 . S
O19 Zn14 2.049 . S
O19 C27 1.260 . S
O20 Zn15 1.996 . S
O20 C27 1.257 . S
C21 O16 1.254 . S
C21 O17 1.269 . S
C22 O23 1.249 . S
C22 O24 1.270 . S
O23 Zn15 1.943 . S
O23 C22 1.249 . S
O24 Zn14 2.067 . S
O24 C22 1.270 . S
C25 O18 1.262 . S
C25 O26 1.232 . S
O26 C25 1.232 . S
C27 O19 1.260 . S
C27 O20 1.257 . S
Zn28 O31 2.031 1_554 S
Zn28 O33 2.049 1_554 S
Zn28 O38 2.067 . S
Zn29 O30 1.962 . S
Zn29 O32 1.986 . S
Zn29 O34 1.996 . S
Zn29 O37 1.943 1_556 S
O30 Zn29 1.962 . S
O30 C35 1.254 . S
O31 Zn28 2.031 1_556 S
O31 C35 1.269 . S
O32 Zn29 1.986 . S
O32 C39 1.262 . S
O33 Zn28 2.049 1_556 S
O33 C41 1.260 . S
O34 Zn29 1.996 . S
O34 C41 1.257 . S
C35 O30 1.254 . S
C35 O31 1.269 . S
C36 O37 1.249 . S
C36 O38 1.270 . S
O37 Zn29 1.943 1_554 S
O37 C36 1.249 . S
O38 Zn28 2.067 . S
O38 C36 1.270 . S
C39 O32 1.262 . S
C39 O40 1.232 . S
O40 C39 1.232 . S
C41 O33 1.260 . S
C41 O34 1.257 . S
Zn42 O45 2.031 1_554 S
Zn42 O47 2.049 1_554 S
Zn42 O52 2.067 . S
Zn43 O44 1.962 . S
Zn43 O46 1.986 . S
Zn43 O48 1.996 . S
Zn43 O51 1.943 1_556 S
O44 Zn43 1.962 . S
O44 C49 1.254 . S
O45 Zn42 2.031 1_556 S
O45 C49 1.269 . S
O46 Zn43 1.986 . S
O46 C53 1.262 . S
O47 Zn42 2.049 1_556 S
O47 C55 1.260 . S
O48 Zn43 1.996 . S
O48 C55 1.257 . S
C49 O44 1.254 . S
C49 O45 1.269 . S
C50 O51 1.249 . S
C50 O52 1.270 . S
O51 Zn43 1.943 1_554 S
O51 C50 1.249 . S
O52 Zn42 2.067 . S
O52 C50 1.270 . S
C53 O46 1.262 . S
C53 O54 1.232 . S
O54 C53 1.232 . S
C55 O47 1.260 . S
C55 O48 1.257 . S
Zn56 O59 2.031 . S
Zn56 O61 2.049 . S
Zn56 O66 2.067 . S
Zn57 O58 1.962 . S
Zn57 O60 1.986 . S
Zn57 O62 1.996 . S
Zn57 O65 1.943 . S
O58 Zn57 1.962 . S
O58 C63 1.254 . S
O59 Zn56 2.031 . S
O59 C63 1.269 . S
O60 Zn57 1.986 . S
O60 C67 1.262 . S
O61 Zn56 2.049 . S
O61 C69 1.260 . S
O62 Zn57 1.996 . S
O62 C69 1.257 . S
C63 O58 1.254 . S
C63 O59 1.269 . S
C64 O65 1.249 . S
C64 O66 1.270 . S
O65 Zn57 1.943 . S
O65 C64 1.249 . S
O66 Zn56 2.067 . S
O66 C64 1.270 . S
C67 O60 1.262 . S
C67 O68 1.232 . S
O68 C67 1.232 . S
C69 O61 1.260 . S
C69 O62 1.257 . S
Zn70 O73 2.031 . S
Zn70 O75 2.049 . S
Zn70 O80 2.067 . S
Zn71 O72 1.962 . S
Zn71 O74 1.986 . S
Zn71 O76 1.996 . S
Zn71 O79 1.943 . S
O72 Zn71 1.962 . S
O72 C77 1.254 . S
O73 Zn70 2.031 . S
O73 C77 1.269 . S
O74 Zn71 1.986 . S
O74 C81 1.262 . S
O75 Zn70 2.049 . S
O75 C83 1.260 . S
O76 Zn71 1.996 . S
O76 C83 1.257 . S
C77 O72 1.254 . S
C77 O73 1.269 . S
C78 O79 1.249 . S
C78 O80 1.270 . S
O79 Zn71 1.943 . S
O79 C78 1.249 . S
O80 Zn70 2.067 . S
O80 C78 1.270 . S
C81 O74 1.262 . S
C81 O82 1.232 . S
O82 C81 1.232 . S
C83 O75 1.260 . S
C83 O76 1.257 . S
Zn84 O87 2.031 1_556 S
Zn84 O89 2.049 1_556 S
Zn84 O94 2.067 . S
Zn85 O86 1.962 . S
Zn85 O88 1.986 . S
Zn85 O90 1.996 . S
Zn85 O93 1.943 1_554 S
O86 Zn85 1.962 . S
O86 C91 1.254 . S
O87 Zn84 2.031 1_554 S
O87 C91 1.269 . S
O88 Zn85 1.986 . S
O88 C95 1.262 . S
O89 Zn84 2.049 1_554 S
O89 C97 1.260 . S
O90 Zn85 1.996 . S
O90 C97 1.257 . S
C91 O86 1.254 . S
C91 O87 1.269 . S
C92 O93 1.249 . S
C92 O94 1.270 . S
O93 Zn85 1.943 1_556 S
O93 C92 1.249 . S
O94 Zn84 2.067 . S
O94 C92 1.270 . S
C95 O88 1.262 . S
C95 O96 1.232 . S
O96 C95 1.232 . S
C97 O89 1.260 . S
C97 O90 1.257 . S
Zn98 O101 2.031 1_556 S
Zn98 O103 2.049 1_556 S
Zn98 O108 2.067 . S
Zn99 O100 1.962 . S
Zn99 O102 1.986 . S
Zn99 O104 1.996 . S
Zn99 O107 1.943 1_554 S
O100 Zn99 1.962 . S
O100 C105 1.254 . S
O101 Zn98 2.031 1_554 S
O101 C105 1.269 . S
O102 Zn99 1.986 . S
O102 C109 1.262 . S
O103 Zn98 2.049 1_554 S
O103 C111 1.260 . S
O104 Zn99 1.996 . S
O104 C111 1.257 . S
C105 O100 1.254 . S
C105 O101 1.269 . S
C106 O107 1.249 . S
C106 O108 1.270 . S
O107 Zn99 1.943 1_556 S
O107 C106 1.249 . S
O108 Zn98 2.067 . S
O108 C106 1.270 . S
C109 O102 1.262 . S
C109 O110 1.232 . S
O110 C109 1.232 . S
C111 O103 1.260 . S
C111 O104 1.257 . S
Zn112 O115 2.031 . S
Zn112 O117 2.049 . S
Zn112 O122 2.067 . S
Zn113 O114 1.962 . S
Zn113 O116 1.986 . S
Zn113 O118 1.996 . S
Zn113 O121 1.943 . S
O114 Zn113 1.962 . S
O114 C119 1.254 . S
O115 Zn112 2.031 . S
O115 C119 1.269 . S
O116 Zn113 1.986 . S
O116 C123 1.262 . S
O117 Zn112 2.049 . S
O117 C125 1.260 . S
O118 Zn113 1.996 . S
O118 C125 1.257 . S
C119 O114 1.254 . S
C119 O115 1.269 . S
C120 O121 1.249 . S
C120 O122 1.270 . S
O121 Zn113 1.943 . S
O121 C120 1.249 . S
O122 Zn112 2.067 . S
O122 C120 1.270 . S
C123 O116 1.262 . S
C123 O124 1.232 . S
O124 C123 1.232 . S
C125 O117 1.260 . S
C125 O118 1.257 . S
Zn126 O129 2.031 . S
Zn126 O131 2.049 . S
Zn126 O136 2.067 . S
Zn127 O128 1.962 . S
Zn127 O130 1.986 . S
Zn127 O132 1.996 . S
Zn127 O135 1.943 . S
O128 Zn127 1.962 . S
O128 C133 1.254 . S
O129 Zn126 2.031 . S
O129 C133 1.269 . S
O130 Zn127 1.986 . S
O130 C137 1.262 . S
O131 Zn126 2.049 . S
O131 C139 1.260 . S
O132 Zn127 1.996 . S
O132 C139 1.257 . S
C133 O128 1.254 . S
C133 O129 1.269 . S
C134 O135 1.249 . S
C134 O136 1.270 . S
O135 Zn127 1.943 . S
O135 C134 1.249 . S
O136 Zn126 2.067 . S
O136 C134 1.270 . S
C137 O130 1.262 . S
C137 O138 1.232 . S
O138 C137 1.232 . S
C139 O131 1.260 . S
C139 O132 1.257 . S
Zn140 O143 2.031 . S
Zn140 O145 2.049 . S
Zn140 O150 2.067 . S
Zn141 O142 1.962 . S
Zn141 O144 1.986 . S
Zn141 O146 1.996 . S
Zn141 O149 1.943 . S
O142 Zn141 1.962 . S
O142 C147 1.254 . S
O143 Zn140 2.031 . S
O143 C147 1.269 . S
O144 Zn141 1.986 . S
O144 C151 1.262 . S
O145 Zn140 2.049 . S
O145 C153 1.260 . S
O146 Zn141 1.996 . S
O146 C153 1.257 . S
C147 O142 1.254 . S
C147 O143 1.269 . S
C148 O149 1.249 . S
C148 O150 1.270 . S
O149 Zn141 1.943 . S
O149 C148 1.249 . S
O150 Zn140 2.067 . S
O150 C148 1.270 . S
C151 O144 1.262 . S
C151 O152 1.232 . S
O152 C151 1.232 . S
C153 O145 1.260 . S
C153 O146 1.257 . S
Zn154 O157 2.031 . S
Zn154 O159 2.049 . S
Zn154 O164 2.067 . S
Zn155 O156 1.962 . S
Zn155 O158 1.986 . S
Zn155 O160 1.996 . S
Zn155 O163 1.943 . S
O156 Zn155 1.962 . S
O156 C161 1.254 . S
O157 Zn154 2.031 . S
O157 C161 1.269 . S
O158 Zn155 1.986 . S
O158 C165 1.262 . S
O159 Zn154 2.049 . S
O159 C167 1.260 . S
O160 Zn155 1.996 . S
O160 C167 1.257 . S
C161 O156 1.254 . S
C161 O157 1.269 . S
C162 O163 1.249 . S
C162 O164 1.270 . S
O163 Zn155 1.943 . S
O163 C162 1.249 . S
O164 Zn154 2.067 . S
O164 C162 1.270 . S
C165 O158 1.262 . S
C165 O166 1.232 . S
O166 C165 1.232 . S
C167 O159 1.260 . S
C167 O160 1.257 . S
Zn168 O171 2.031 . S
Zn168 O173 2.049 . S
Zn168 O178 2.067 . S
Zn169 O170 1.962 . S
Zn169 O172 1.986 . S
Zn169 O174 1.996 . S
Zn169 O177 1.943 . S
O170 Zn169 1.962 . S
O170 C175 1.254 . S
O171 Zn168 2.031 . S
O171 C175 1.269 . S
O172 Zn169 1.986 . S
O172 C179 1.262 . S
O173 Zn168 2.049 . S
O173 C181 1.260 . S
O174 Zn169 1.996 . S
O174 C181 1.257 . S
C175 O170 1.254 . S
C175 O171 1.269 . S
C176 O177 1.249 . S
C176 O178 1.270 . S
O177 Zn169 1.943 . S
O177 C176 1.249 . S
O178 Zn168 2.067 . S
O178 C176 1.270 . S
C179 O172 1.262 . S
C179 O180 1.232 . S
O180 C179 1.232 . S
C181 O173 1.260 . S
C181 O174 1.257 . S
Zn182 O185 2.031 . S
Zn182 O187 2.049 . S
Zn182 O192 2.067 . S
Zn183 O184 1.962 . S
Zn183 O186 1.986 . S
Zn183 O188 1.996 . S
Zn183 O191 1.943 . S
O184 Zn183 1.962 . S
O184 C189 1.254 . S
O185 Zn182 2.031 . S
O185 C189 1.269 . S
O186 Zn183 1.986 . S
O186 C193 1.262 . S
O187 Zn182 2.049 . S
O187 C195 1.260 . S
O188 Zn183 1.996 . S
O188 C195 1.257 . S
C189 O184 1.254 . S
C189 O185 1.269 . S
C190 O191 1.249 . S
C190 O192 1.270 . S
O191 Zn183 1.943 . S
O191 C190 1.249 . S
O192 Zn182 2.067 . S
O192 C190 1.270 . S
C193 O186 1.262 . S
C193 O194 1.232 . S
O194 C193 1.232 . S
C195 O187 1.260 . S
C195 O188 1.257 . S
Zn196 O199 2.031 . S
Zn196 O201 2.049 . S
Zn196 O206 2.067 . S
Zn197 O198 1.962 . S
Zn197 O200 1.986 . S
Zn197 O202 1.996 . S
Zn197 O205 1.943 . S
O198 Zn197 1.962 . S
O198 C203 1.254 . S
O199 Zn196 2.031 . S
O199 C203 1.269 . S
O200 Zn197 1.986 . S
O200 C207 1.262 . S
O201 Zn196 2.049 . S
O201 C209 1.260 . S
O202 Zn197 1.996 . S
O202 C209 1.257 . S
C203 O198 1.254 . S
C203 O199 1.269 . S
C204 O205 1.249 . S
C204 O206 1.270 . S
O205 Zn197 1.943 . S
O205 C204 1.249 . S
O206 Zn196 2.067 . S
O206 C204 1.270 . S
C207 O200 1.262 . S
C207 O208 1.232 . S
O208 C207 1.232 . S
C209 O201 1.260 . S
C209 O202 1.257 . S
Zn210 O213 2.031 . S
Zn210 O215 2.049 . S
Zn210 O220 2.067 . S
Zn211 O212 1.962 . S
Zn211 O214 1.986 . S
Zn211 O216 1.996 . S
Zn211 O219 1.943 . S
O212 Zn211 1.962 . S
O212 C217 1.254 . S
O213 Zn210 2.031 . S
O213 C217 1.269 . S
O214 Zn211 1.986 . S
O214 C221 1.262 . S
O215 Zn210 2.049 . S
O215 C223 1.260 . S
O216 Zn211 1.996 . S
O216 C223 1.257 . S
C217 O212 1.254 . S
C217 O213 1.269 . S
C218 O219 1.249 . S
C218 O220 1.270 . S
O219 Zn211 1.943 . S
O219 C218 1.249 . S
O220 Zn210 2.067 . S
O220 C218 1.270 . S
C221 O214 1.262 . S
C221 O222 1.232 . S
O222 C221 1.232 . S
C223 O215 1.260 . S
C223 O216 1.257 . S
Zn224 O227 2.031 . S
Zn224 O229 2.049 . S
Zn224 O234 2.067 . S
Zn225 O226 1.962 . S
Zn225 O228 1.986 . S
Zn225 O230 1.996 . S
Zn225 O233 1.943 . S
O226 Zn225 1.962 . S
O226 C231 1.254 . S
O227 Zn224 2.031 . S
O227 C231 1.269 . S
O228 Zn225 1.986 . S
O228 C235 1.262 . S
O229 Zn224 2.049 . S
O229 C237 1.260 . S
O230 Zn225 1.996 . S
O230 C237 1.257 . S
C231 O226 1.254 . S
C231 O227 1.269 . S
C232 O233 1.249 . S
C232 O234 1.270 . S
O233 Zn225 1.943 . S
O233 C232 1.249 . S
O234 Zn224 2.067 . S
O234 C232 1.270 . S
C235 O228 1.262 . S
C235 O236 1.232 . S
O236 C235 1.232 . S
C237 O229 1.260 . S
C237 O230 1.257 . S
Zn238 O241 2.031 . S
Zn238 O243 2.049 . S
Zn238 O248 2.067 . S
Zn239 O240 1.962 . S
Zn239 O242 1.986 . S
Zn239 O244 1.996 . S
Zn239 O247 1.943 . S
O240 Zn239 1.962 . S
O240 C245 1.254 . S
O241 Zn238 2.031 . S
O241 C245 1.269 . S
O242 Zn239 1.986 . S
O242 C249 1.262 . S
O243 Zn238 2.049 . S
O243 C251 1.260 . S
O244 Zn239 1.996 . S
O244 C251 1.257 . S
C245 O240 1.254 . S
C245 O241 1.269 . S
C246 O247 1.249 . S
C246 O248 1.270 . S
O247 Zn239 1.943 . S
O247 C246 1.249 . S
O248 Zn238 2.067 . S
O248 C246 1.270 . S
C249 O242 1.262 . S
C249 O250 1.232 . S
O250 C249 1.232 . S
C251 O243 1.260 . S
C251 O244 1.257 . S
Zn252 O255 2.031 . S
Zn252 O257 2.049 . S
Zn252 O262 2.067 . S
Zn253 O254 1.962 . S
Zn253 O256 1.986 . S
Zn253 O258 1.996 . S
Zn253 O261 1.943 . S
O254 Zn253 1.962 . S
O254 C259 1.254 . S
O255 Zn252 2.031 . S
O255 C259 1.269 . S
O256 Zn253 1.986 . S
O256 C263 1.262 . S
O257 Zn252 2.049 . S
O257 C265 1.260 . S
O258 Zn253 1.996 . S
O258 C265 1.257 . S
C259 O254 1.254 . S
C259 O255 1.269 . S
C260 O261 1.249 . S
C260 O262 1.270 . S
O261 Zn253 1.943 . S
O261 C260 1.249 . S
O262 Zn252 2.067 . S
O262 C260 1.270 . S
C263 O256 1.262 . S
C263 O264 1.232 . S
O264 C263 1.232 . S
C265 O257 1.260 . S
C265 O258 1.257 . S
Zn266 O269 2.031 . S
Zn266 O271 2.049 . S
Zn266 O276 2.067 . S
Zn267 O268 1.962 . S
Zn267 O270 1.986 . S
Zn267 O272 1.996 . S
Zn267 O275 1.943 . S
O268 Zn267 1.962 . S
O268 C273 1.254 . S
O269 Zn266 2.031 . S
O269 C273 1.269 . S
O270 Zn267 1.986 . S
O270 C277 1.262 . S
O271 Zn266 2.049 . S
O271 C279 1.260 . S
O272 Zn267 1.996 . S
O272 C279 1.257 . S
C273 O268 1.254 . S
C273 O269 1.269 . S
C274 O275 1.249 . S
C274 O276 1.270 . S
O275 Zn267 1.943 . S
O275 C274 1.249 . S
O276 Zn266 2.067 . S
O276 C274 1.270 . S
C277 O270 1.262 . S
C277 O278 1.232 . S
O278 C277 1.232 . S
C279 O271 1.260 . S
C279 O272 1.257 . S
Zn280 O283 2.031 . S
Zn280 O285 2.049 . S
Zn280 O290 2.067 . S
Zn281 O282 1.962 . S
Zn281 O284 1.986 . S
Zn281 O286 1.996 . S
Zn281 O289 1.943 . S
O282 Zn281 1.962 . S
O282 C287 1.254 . S
O283 Zn280 2.031 . S
O283 C287 1.269 . S
O284 Zn281 1.986 . S
O284 C291 1.262 . S
O285 Zn280 2.049 . S
O285 C293 1.260 . S
O286 Zn281 1.996 . S
O286 C293 1.257 . S
C287 O282 1.254 . S
C287 O283 1.269 . S
C288 O289 1.249 . S
C288 O290 1.270 . S
O289 Zn281 1.943 . S
O289 C288 1.249 . S
O290 Zn280 2.067 . S
O290 C288 1.270 . S
C291 O284 1.262 . S
C291 O292 1.232 . S
O292 C291 1.232 . S
C293 O285 1.260 . S
C293 O286 1.257 . S
Zn294 O297 2.031 . S
Zn294 O299 2.049 . S
Zn294 O304 2.067 . S
Zn295 O296 1.962 . S
Zn295 O298 1.986 . S
Zn295 O300 1.996 . S
Zn295 O303 1.943 . S
O296 Zn295 1.962 . S
O296 C301 1.254 . S
O297 Zn294 2.031 . S
O297 C301 1.269 . S
O298 Zn295 1.986 . S
O298 C305 1.262 . S
O299 Zn294 2.049 . S
O299 C307 1.260 . S
O300 Zn295 1.996 . S
O300 C307 1.257 . S
C301 O296 1.254 . S
C301 O297 1.269 . S
C302 O303 1.249 . S
C302 O304 1.270 . S
O303 Zn295 1.943 . S
O303 C302 1.249 . S
O304 Zn294 2.067 . S
O304 C302 1.270 . S
C305 O298 1.262 . S
C305 O306 1.232 . S
O306 C305 1.232 . S
C307 O299 1.260 . S
C307 O300 1.257 . S
Zn308 O311 2.031 . S
Zn308 O313 2.049 . S
Zn308 O318 2.067 . S
Zn309 O310 1.962 . S
Zn309 O312 1.986 . S
Zn309 O314 1.996 . S
Zn309 O317 1.943 . S
O310 Zn309 1.962 . S
O310 C315 1.254 . S
O311 Zn308 2.031 . S
O311 C315 1.269 . S
O312 Zn309 1.986 . S
O312 C319 1.262 . S
O313 Zn308 2.049 . S
O313 C321 1.260 . S
O314 Zn309 1.996 . S
O314 C321 1.257 . S
C315 O310 1.254 . S
C315 O311 1.269 . S
C316 O317 1.249 . S
C316 O318 1.270 . S
O317 Zn309 1.943 . S
O317 C316 1.249 . S
O318 Zn308 2.067 . S
O318 C316 1.270 . S
C319 O312 1.262 . S
C319 O320 1.232 . S
O320 C319 1.232 . S
C321 O313 1.260 . S
C321 O314 1.257 . S
Zn322 O325 2.031 . S
Zn322 O327 2.049 . S
Zn322 O332 2.067 . S
Zn323 O324 1.962 . S
Zn323 O326 1.986 . S
Zn323 O328 1.996 . S
Zn323 O331 1.943 . S
O324 Zn323 1.962 . S
O324 C329 1.254 . S
O325 Zn322 2.031 . S
O325 C329 1.269 . S
O326 Zn323 1.986 . S
O326 C333 1.262 . S
O327 Zn322 2.049 . S
O327 C335 1.260 . S
O328 Zn323 1.996 . S
O328 C335 1.257 . S
C329 O324 1.254 . S
C329 O325 1.269 . S
C330 O331 1.249 . S
C330 O332 1.270 . S
O331 Zn323 1.943 . S
O331 C330 1.249 . S
O332 Zn322 2.067 . S
O332 C330 1.270 . S
C333 O326 1.262 . S
C333 O334 1.232 . S
O334 C333 1.232 . S
C335 O327 1.260 . S
C335 O328 1.257 . S
Zn336 O339 2.031 . S
Zn336 O341 2.049 . S
Zn336 O346 2.067 . S
Zn337 O338 1.962 . S
Zn337 O340 1.986 . S
Zn337 O342 1.996 . S
Zn337 O345 1.943 . S
O338 Zn337 1.962 . S
O338 C343 1.254 . S
O339 Zn336 2.031 . S
O339 C343 1.269 . S
O340 Zn337 1.986 . S
O340 C347 1.262 . S
O341 Zn336 2.049 . S
O341 C349 1.260 . S
O342 Zn337 1.996 . S
O342 C349 1.257 . S
C343 O338 1.254 . S
C343 O339 1.269 . S
C344 O345 1.249 . S
C344 O346 1.270 . S
O345 Zn337 1.943 . S
O345 C344 1.249 . S
O346 Zn336 2.067 . S
O346 C344 1.270 . S
C347 O340 1.262 . S
C347 O348 1.232 . S
O348 C347 1.232 . S
C349 O341 1.260 . S
C349 O342 1.257 . S
Zn350 O353 2.031 . S
Zn350 O355 2.049 . S
Zn350 O360 2.067 . S
Zn351 O352 1.962 . S
Zn351 O354 1.986 . S
Zn351 O356 1.996 . S
Zn351 O359 1.943 . S
O352 Zn351 1.962 . S
O352 C357 1.254 . S
O353 Zn350 2.031 . S
O353 C357 1.269 . S
O354 Zn351 1.986 . S
O354 C361 1.262 . S
O355 Zn350 2.049 . S
O355 C363 1.260 . S
O356 Zn351 1.996 . S
O356 C363 1.257 . S
C357 O352 1.254 . S
C357 O353 1.269 . S
C358 O359 1.249 . S
C358 O360 1.270 . S
O359 Zn351 1.943 . S
O359 C358 1.249 . S
O360 Zn350 2.067 . S
O360 C358 1.270 . S
C361 O354 1.262 . S
C361 O362 1.232 . S
O362 C361 1.232 . S
C363 O355 1.260 . S
C363 O356 1.257 . S
Zn364 O367 2.031 1_554 S
Zn364 O369 2.049 1_554 S
Zn364 O374 2.067 . S
Zn365 O366 1.962 . S
Zn365 O368 1.986 . S
Zn365 O370 1.996 . S
Zn365 O373 1.943 1_556 S
O366 Zn365 1.962 . S
O366 C371 1.254 . S
O367 Zn364 2.031 1_556 S
O367 C371 1.269 . S
O368 Zn365 1.986 . S
O368 C375 1.262 . S
O369 Zn364 2.049 1_556 S
O369 C377 1.260 . S
O370 Zn365 1.996 . S
O370 C377 1.257 . S
C371 O366 1.254 . S
C371 O367 1.269 . S
C372 O373 1.249 . S
C372 O374 1.270 . S
O373 Zn365 1.943 1_554 S
O373 C372 1.249 . S
O374 Zn364 2.067 . S
O374 C372 1.270 . S
C375 O368 1.262 . S
C375 O376 1.232 . S
O376 C375 1.232 . S
C377 O369 1.260 . S
C377 O370 1.257 . S
Zn378 O381 2.031 1_554 S
Zn378 O383 2.049 1_554 S
Zn378 O388 2.067 . S
Zn379 O380 1.962 . S
Zn379 O382 1.986 . S
Zn379 O384 1.996 . S
Zn379 O387 1.943 1_556 S
O380 Zn379 1.962 . S
O380 C385 1.254 . S
O381 Zn378 2.031 1_556 S
O381 C385 1.269 . S
O382 Zn379 1.986 . S
O382 C389 1.262 . S
O383 Zn378 2.049 1_556 S
O383 C391 1.260 . S
O384 Zn379 1.996 . S
O384 C391 1.257 . S
C385 O380 1.254 . S
C385 O381 1.269 . S
C386 O387 1.249 . S
C386 O388 1.270 . S
O387 Zn379 1.943 1_554 S
O387 C386 1.249 . S
O388 Zn378 2.067 . S
O388 C386 1.270 . S
C389 O382 1.262 . S
C389 O390 1.232 . S
O390 C389 1.232 . S
C391 O383 1.260 . S
C391 O384 1.257 . S
Zn392 O395 2.031 . S
Zn392 O397 2.049 . S
Zn392 O402 2.067 . S
Zn393 O394 1.962 . S
Zn393 O396 1.986 . S
Zn393 O398 1.996 . S
Zn393 O401 1.943 . S
O394 Zn393 1.962 . S
O394 C399 1.254 . S
O395 Zn392 2.031 . S
O395 C399 1.269 . S
O396 Zn393 1.986 . S
O396 C403 1.262 . S
O397 Zn392 2.049 . S
O397 C405 1.260 . S
O398 Zn393 1.996 . S
O398 C405 1.257 . S
C399 O394 1.254 . S
C399 O395 1.269 . S
C400 O401 1.249 . S
C400 O402 1.270 . S
O401 Zn393 1.943 . S
O401 C400 1.249 . S
O402 Zn392 2.067 . S
O402 C400 1.270 . S
C403 O396 1.262 . S
C403 O404 1.232 . S
O404 C403 1.232 . S
C405 O397 1.260 . S
C405 O398 1.257 . S
Zn406 O409 2.031 . S
Zn406 O411 2.049 . S
Zn406 O416 2.067 . S
Zn407 O408 1.962 . S
Zn407 O410 1.986 . S
Zn407 O412 1.996 . S
Zn407 O415 1.943 . S
O408 Zn407 1.962 . S
O408 C413 1.254 . S
O409 Zn406 2.031 . S
O409 C413 1.269 . S
O410 Zn407 1.986 . S
O410 C417 1.262 . S
O411 Zn406 2.049 . S
O411 C419 1.260 . S
O412 Zn407 1.996 . S
O412 C419 1.257 . S
C413 O408 1.254 . S
C413 O409 1.269 . S
C414 O415 1.249 . S
C414 O416 1.270 . S
O415 Zn407 1.943 . S
O415 C414 1.249 . S
O416 Zn406 2.067 . S
O416 C414 1.270 . S
C417 O410 1.262 . S
C417 O418 1.232 . S
O418 C417 1.232 . S
C419 O411 1.260 . S
C419 O412 1.257 . S
Zn420 O423 2.031 1_556 S
Zn420 O425 2.049 1_556 S
Zn420 O430 2.067 . S
Zn421 O422 1.962 . S
Zn421 O424 1.986 . S
Zn421 O426 1.996 . S
Zn421 O429 1.943 1_554 S
O422 Zn421 1.962 . S
O422 C427 1.254 . S
O423 Zn420 2.031 1_554 S
O423 C427 1.269 . S
O424 Zn421 1.986 . S
O424 C431 1.262 . S
O425 Zn420 2.049 1_554 S
O425 C433 1.260 . S
O426 Zn421 1.996 . S
O426 C433 1.257 . S
C427 O422 1.254 . S
C427 O423 1.269 . S
C428 O429 1.249 . S
C428 O430 1.270 . S
O429 Zn421 1.943 1_556 S
O429 C428 1.249 . S
O430 Zn420 2.067 . S
O430 C428 1.270 . S
C431 O424 1.262 . S
C431 O432 1.232 . S
O432 C431 1.232 . S
C433 O425 1.260 . S
C433 O426 1.257 . S
Zn434 O437 2.031 1_556 S
Zn434 O439 2.049 1_556 S
Zn434 O444 2.067 . S
Zn435 O436 1.962 . S
Zn435 O438 1.986 . S
Zn435 O440 1.996 . S
Zn435 O443 1.943 1_554 S
O436 Zn435 1.962 . S
O436 C441 1.254 . S
O437 Zn434 2.031 1_554 S
O437 C441 1.269 . S
O438 Zn435 1.986 . S
O438 C445 1.262 . S
O439 Zn434 2.049 1_554 S
O439 C447 1.260 . S
O440 Zn435 1.996 . S
O440 C447 1.257 . S
C441 O436 1.254 . S
C441 O437 1.269 . S
C442 O443 1.249 . S
C442 O444 1.270 . S
O443 Zn435 1.943 1_556 S
O443 C442 1.249 . S
O444 Zn434 2.067 . S
O444 C442 1.270 . S
C445 O438 1.262 . S
C445 O446 1.232 . S
O446 C445 1.232 . S
C447 O439 1.260 . S
C447 O440 1.257 . S
H448 C456 0.929 . S
H449 C458 0.930 . S
H450 C460 0.930 . S
H451 C463 0.929 . S
H452 C466 0.930 . S
H453 C468 0.960 . S
H454 C468 0.960 . S
H455 C468 0.960 . S
C456 H448 0.929 . S
C456 C457 1.377 . S
C456 C458 1.384 . S
C457 C456 1.377 . S
C457 C463 1.390 . S
C458 H449 0.930 . S
C458 C456 1.384 . S
C458 C459 1.372 . S
C459 C458 1.372 . S
C459 C460 1.400 . S
C459 C464 1.490 . S
C460 H450 0.930 . S
C460 C459 1.400 . S
C460 C463 1.386 . S
H461 C477 0.930 . S
H462 C478 0.931 . S
C463 H451 0.929 . S
C463 C457 1.390 . S
C463 C460 1.386 . S
C464 C459 1.490 . S
C464 C466 1.395 . S
C464 C467 1.403 . S
H465 C471 0.930 . S
C466 H452 0.930 . S
C466 C464 1.395 . S
C466 C469 1.403 . S
C467 C464 1.403 . S
C467 C468 1.524 . S
C467 C471 1.400 . S
C468 H453 0.960 . S
C468 H454 0.960 . S
C468 H455 0.960 . S
C468 C467 1.524 . S
C469 C466 1.403 . S
C469 C470 1.392 . S
C469 C473 1.495 . S
C470 C469 1.392 . S
C470 C471 1.385 . S
C470 C472 1.478 . S
C471 H465 0.930 . S
C471 C467 1.400 . S
C471 C470 1.385 . S
C472 C470 1.478 . S
C472 C474 1.381 . S
C472 C478 1.383 . S
C473 C469 1.495 . S
C473 H479 0.959 . S
C473 H480 0.961 . S
C473 H481 0.960 . S
C474 C472 1.381 . S
C474 C475 1.394 . S
C474 H482 0.930 . S
C475 C474 1.394 . S
C475 C476 1.383 . S
C475 H483 0.929 . S
C476 C475 1.383 . S
C476 C477 1.377 . S
C477 H461 0.930 . S
C477 C476 1.377 . S
C477 C478 1.379 . S
C478 H462 0.931 . S
C478 C472 1.383 . S
C478 C477 1.379 . S
H479 C473 0.959 . S
H480 C473 0.961 . S
H481 C473 0.960 . S
H482 C474 0.930 . S
H483 C475 0.929 . S
H484 C492 0.929 . S
H485 C494 0.930 . S
H486 C496 0.930 . S
H487 C499 0.929 . S
H488 C502 0.930 . S
H489 C504 0.960 . S
H490 C504 0.960 . S
H491 C504 0.960 . S
C492 H484 0.929 . S
C492 C493 1.377 . S
C492 C494 1.384 . S
C493 C492 1.377 . S
C493 C499 1.390 . S
C494 H485 0.930 . S
C494 C492 1.384 . S
C494 C495 1.372 . S
C495 C494 1.372 . S
C495 C496 1.400 . S
C495 C500 1.490 . S
C496 H486 0.930 . S
C496 C495 1.400 . S
C496 C499 1.386 . S
H497 C513 0.930 . S
H498 C514 0.931 . S
C499 H487 0.929 . S
C499 C493 1.390 . S
C499 C496 1.386 . S
C500 C495 1.490 . S
C500 C502 1.395 . S
C500 C503 1.403 . S
H501 C507 0.930 . S
C502 H488 0.930 . S
C502 C500 1.395 . S
C502 C505 1.403 . S
C503 C500 1.403 . S
C503 C504 1.524 . S
C503 C507 1.400 . S
C504 H489 0.960 . S
C504 H490 0.960 . S
C504 H491 0.960 . S
C504 C503 1.524 . S
C505 C502 1.403 . S
C505 C506 1.392 . S
C505 C509 1.495 . S
C506 C505 1.392 . S
C506 C507 1.385 . S
C506 C508 1.478 . S
C507 H501 0.930 . S
C507 C503 1.400 . S
C507 C506 1.385 . S
C508 C506 1.478 . S
C508 C510 1.381 . S
C508 C514 1.383 . S
C509 C505 1.495 . S
C509 H515 0.959 . S
C509 H516 0.961 . S
C509 H517 0.960 . S
C510 C508 1.381 . S
C510 C511 1.394 . S
C510 H518 0.930 . S
C511 C510 1.394 . S
C511 C512 1.383 . S
C511 H519 0.929 . S
C512 C511 1.383 . S
C512 C513 1.377 . S
C513 H497 0.930 . S
C513 C512 1.377 . S
C513 C514 1.379 . S
C514 H498 0.931 . S
C514 C508 1.383 . S
C514 C513 1.379 . S
H515 C509 0.959 . S
H516 C509 0.961 . S
H517 C509 0.960 . S
H518 C510 0.930 . S
H519 C511 0.929 . S
H520 C528 0.929 . S
H521 C530 0.930 . S
H522 C532 0.930 . S
H523 C535 0.929 . S
H524 C538 0.930 . S
H525 C540 0.960 . S
H526 C540 0.960 . S
H527 C540 0.960 . S
C528 H520 0.929 . S
C528 C529 1.377 . S
C528 C530 1.384 . S
C529 C528 1.377 . S
C529 C535 1.390 . S
C530 H521 0.930 . S
C530 C528 1.384 . S
C530 C531 1.372 . S
C531 C530 1.372 . S
C531 C532 1.400 . S
C531 C536 1.490 . S
C532 H522 0.930 . S
C532 C531 1.400 . S
C532 C535 1.386 . S
H533 C549 0.930 . S
H534 C550 0.931 . S
C535 H523 0.929 . S
C535 C529 1.390 . S
C535 C532 1.386 . S
C536 C531 1.490 . S
C536 C538 1.395 . S
C536 C539 1.403 . S
H537 C543 0.930 . S
C538 H524 0.930 . S
C538 C536 1.395 . S
C538 C541 1.403 . S
C539 C536 1.403 . S
C539 C540 1.524 . S
C539 C543 1.400 . S
C540 H525 0.960 . S
C540 H526 0.960 . S
C540 H527 0.960 . S
C540 C539 1.524 . S
C541 C538 1.403 . S
C541 C542 1.392 . S
C541 C545 1.495 . S
C542 C541 1.392 . S
C542 C543 1.385 . S
C542 C544 1.478 . S
C543 H537 0.930 . S
C543 C539 1.400 . S
C543 C542 1.385 . S
C544 C542 1.478 . S
C544 C546 1.381 . S
C544 C550 1.383 . S
C545 C541 1.495 . S
C545 H551 0.959 . S
C545 H552 0.961 . S
C545 H553 0.960 . S
C546 C544 1.381 . S
C546 C547 1.394 . S
C546 H554 0.930 . S
C547 C546 1.394 . S
C547 C548 1.383 . S
C547 H555 0.929 . S
C548 C547 1.383 . S
C548 C549 1.377 . S
C549 H533 0.930 . S
C549 C548 1.377 . S
C549 C550 1.379 . S
C550 H534 0.931 . S
C550 C544 1.383 . S
C550 C549 1.379 . S
H551 C545 0.959 . S
H552 C545 0.961 . S
H553 C545 0.960 . S
H554 C546 0.930 . S
H555 C547 0.929 . S
H556 C564 0.929 . S
H557 C566 0.930 . S
H558 C568 0.930 . S
H559 C571 0.929 . S
H560 C574 0.930 . S
H561 C576 0.960 . S
H562 C576 0.960 . S
H563 C576 0.960 . S
C564 H556 0.929 . S
C564 C565 1.377 . S
C564 C566 1.384 . S
C565 C564 1.377 . S
C565 C571 1.390 . S
C566 H557 0.930 . S
C566 C564 1.384 . S
C566 C567 1.372 . S
C567 C566 1.372 . S
C567 C568 1.400 . S
C567 C572 1.490 . S
C568 H558 0.930 . S
C568 C567 1.400 . S
C568 C571 1.386 . S
H569 C585 0.930 . S
H570 C586 0.931 . S
C571 H559 0.929 . S
C571 C565 1.390 . S
C571 C568 1.386 . S
C572 C567 1.490 . S
C572 C574 1.395 . S
C572 C575 1.403 . S
H573 C579 0.930 . S
C574 H560 0.930 . S
C574 C572 1.395 . S
C574 C577 1.403 . S
C575 C572 1.403 . S
C575 C576 1.524 . S
C575 C579 1.400 . S
C576 H561 0.960 . S
C576 H562 0.960 . S
C576 H563 0.960 . S
C576 C575 1.524 . S
C577 C574 1.403 . S
C577 C578 1.392 . S
C577 C581 1.495 . S
C578 C577 1.392 . S
C578 C579 1.385 . S
C578 C580 1.478 . S
C579 H573 0.930 . S
C579 C575 1.400 . S
C579 C578 1.385 . S
C580 C578 1.478 . S
C580 C582 1.381 . S
C580 C586 1.383 . S
C581 C577 1.495 . S
C581 H587 0.959 . S
C581 H588 0.961 . S
C581 H589 0.960 . S
C582 C580 1.381 . S
C582 C583 1.394 . S
C582 H590 0.930 . S
C583 C582 1.394 . S
C583 C584 1.383 . S
C583 H591 0.929 . S
C584 C583 1.383 . S
C584 C585 1.377 . S
C585 H569 0.930 . S
C585 C584 1.377 . S
C585 C586 1.379 . S
C586 H570 0.931 . S
C586 C580 1.383 . S
C586 C585 1.379 . S
H587 C581 0.959 . S
H588 C581 0.961 . S
H589 C581 0.960 . S
H590 C582 0.930 . S
H591 C583 0.929 . S
H592 C600 0.929 . S
H593 C602 0.930 . S
H594 C604 0.930 . S
H595 C607 0.929 . S
H596 C610 0.930 . S
H597 C612 0.960 . S
H598 C612 0.960 . S
H599 C612 0.960 . S
C600 H592 0.929 . S
C600 C601 1.377 . S
C600 C602 1.384 . S
C601 C600 1.377 . S
C601 C607 1.390 . S
C602 H593 0.930 . S
C602 C600 1.384 . S
C602 C603 1.372 . S
C603 C602 1.372 . S
C603 C604 1.400 . S
C603 C608 1.490 . S
C604 H594 0.930 . S
C604 C603 1.400 . S
C604 C607 1.386 . S
H605 C621 0.930 . S
H606 C622 0.931 . S
C607 H595 0.929 . S
C607 C601 1.390 . S
C607 C604 1.386 . S
C608 C603 1.490 . S
C608 C610 1.395 . S
C608 C611 1.403 . S
H609 C615 0.930 . S
C610 H596 0.930 . S
C610 C608 1.395 . S
C610 C613 1.403 . S
C611 C608 1.403 . S
C611 C612 1.524 . S
C611 C615 1.400 . S
C612 H597 0.960 . S
C612 H598 0.960 . S
C612 H599 0.960 . S
C612 C611 1.524 . S
C613 C610 1.403 . S
C613 C614 1.392 . S
C613 C617 1.495 . S
C614 C613 1.392 . S
C614 C615 1.385 . S
C614 C616 1.478 . S
C615 H609 0.930 . S
C615 C611 1.400 . S
C615 C614 1.385 . S
C616 C614 1.478 . S
C616 C618 1.381 . S
C616 C622 1.383 . S
C617 C613 1.495 . S
C617 H623 0.959 . S
C617 H624 0.961 . S
C617 H625 0.960 . S
C618 C616 1.381 . S
C618 C619 1.394 . S
C618 H626 0.930 . S
C619 C618 1.394 . S
C619 C620 1.383 . S
C619 H627 0.929 . S
C620 C619 1.383 . S
C620 C621 1.377 . S
C621 H605 0.930 . S
C621 C620 1.377 . S
C621 C622 1.379 . S
C622 H606 0.931 . S
C622 C616 1.383 . S
C622 C621 1.379 . S
H623 C617 0.959 . S
H624 C617 0.961 . S
H625 C617 0.960 . S
H626 C618 0.930 . S
H627 C619 0.929 . S
H628 C636 0.929 . S
H629 C638 0.930 . S
H630 C640 0.930 . S
H631 C643 0.929 . S
H632 C646 0.930 . S
H633 C648 0.960 . S
H634 C648 0.960 . S
H635 C648 0.960 . S
C636 H628 0.929 . S
C636 C637 1.377 . S
C636 C638 1.384 . S
C637 C636 1.377 . S
C637 C643 1.390 . S
C638 H629 0.930 . S
C638 C636 1.384 . S
C638 C639 1.372 . S
C639 C638 1.372 . S
C639 C640 1.400 . S
C639 C644 1.490 . S
C640 H630 0.930 . S
C640 C639 1.400 . S
C640 C643 1.386 . S
H641 C657 0.930 . S
H642 C658 0.931 . S
C643 H631 0.929 . S
C643 C637 1.390 . S
C643 C640 1.386 . S
C644 C639 1.490 . S
C644 C646 1.395 . S
C644 C647 1.403 . S
H645 C651 0.930 . S
C646 H632 0.930 . S
C646 C644 1.395 . S
C646 C649 1.403 . S
C647 C644 1.403 . S
C647 C648 1.524 . S
C647 C651 1.400 . S
C648 H633 0.960 . S
C648 H634 0.960 . S
C648 H635 0.960 . S
C648 C647 1.524 . S
C649 C646 1.403 . S
C649 C650 1.392 . S
C649 C653 1.495 . S
C650 C649 1.392 . S
C650 C651 1.385 . S
C650 C652 1.478 . S
C651 H645 0.930 . S
C651 C647 1.400 . S
C651 C650 1.385 . S
C652 C650 1.478 . S
C652 C654 1.381 . S
C652 C658 1.383 . S
C653 C649 1.495 . S
C653 H659 0.959 . S
C653 H660 0.961 . S
C653 H661 0.960 . S
C654 C652 1.381 . S
C654 C655 1.394 . S
C654 H662 0.930 . S
C655 C654 1.394 . S
C655 C656 1.383 . S
C655 H663 0.929 . S
C656 C655 1.383 . S
C656 C657 1.377 . S
C657 H641 0.930 . S
C657 C656 1.377 . S
C657 C658 1.379 . S
C658 H642 0.931 . S
C658 C652 1.383 . S
C658 C657 1.379 . S
H659 C653 0.959 . S
H660 C653 0.961 . S
H661 C653 0.960 . S
H662 C654 0.930 . S
H663 C655 0.929 . S
H664 C672 0.929 . S
H665 C674 0.930 . S
H666 C676 0.930 . S
H667 C679 0.929 . S
H668 C682 0.930 . S
H669 C684 0.960 . S
H670 C684 0.960 . S
H671 C684 0.960 . S
C672 H664 0.929 . S
C672 C673 1.377 . S
C672 C674 1.384 . S
C673 C672 1.377 . S
C673 C679 1.390 . S
C674 H665 0.930 . S
C674 C672 1.384 . S
C674 C675 1.372 . S
C675 C674 1.372 . S
C675 C676 1.400 . S
C675 C680 1.490 . S
C676 H666 0.930 . S
C676 C675 1.400 . S
C676 C679 1.386 . S
H677 C693 0.930 . S
H678 C694 0.931 . S
C679 H667 0.929 . S
C679 C673 1.390 . S
C679 C676 1.386 . S
C680 C675 1.490 . S
C680 C682 1.395 . S
C680 C683 1.403 . S
H681 C687 0.930 . S
C682 H668 0.930 . S
C682 C680 1.395 . S
C682 C685 1.403 . S
C683 C680 1.403 . S
C683 C684 1.524 . S
C683 C687 1.400 . S
C684 H669 0.960 . S
C684 H670 0.960 . S
C684 H671 0.960 . S
C684 C683 1.524 . S
C685 C682 1.403 . S
C685 C686 1.392 . S
C685 C689 1.495 . S
C686 C685 1.392 . S
C686 C687 1.385 . S
C686 C688 1.478 . S
C687 H681 0.930 . S
C687 C683 1.400 . S
C687 C686 1.385 . S
C688 C686 1.478 . S
C688 C690 1.381 . S
C688 C694 1.383 . S
C689 C685 1.495 . S
C689 H695 0.959 . S
C689 H696 0.961 . S
C689 H697 0.960 . S
C690 C688 1.381 . S
C690 C691 1.394 . S
C690 H698 0.930 . S
C691 C690 1.394 . S
C691 C692 1.383 . S
C691 H699 0.929 . S
C692 C691 1.383 . S
C692 C693 1.377 . S
C693 H677 0.930 . S
C693 C692 1.377 . S
C693 C694 1.379 . S
C694 H678 0.931 . S
C694 C688 1.383 . S
C694 C693 1.379 . S
H695 C689 0.959 . S
H696 C689 0.961 . S
H697 C689 0.960 . S
H698 C690 0.930 . S
H699 C691 0.929 . S
H700 C708 0.929 . S
H701 C710 0.930 . S
H702 C712 0.930 . S
H703 C715 0.929 . S
H704 C718 0.930 . S
H705 C720 0.960 . S
H706 C720 0.960 . S
H707 C720 0.960 . S
C708 H700 0.929 . S
C708 C709 1.377 . S
C708 C710 1.384 . S
C709 C708 1.377 . S
C709 C715 1.390 . S
C710 H701 0.930 . S
C710 C708 1.384 . S
C710 C711 1.372 . S
C711 C710 1.372 . S
C711 C712 1.400 . S
C711 C716 1.490 . S
C712 H702 0.930 . S
C712 C711 1.400 . S
C712 C715 1.386 . S
H713 C729 0.930 . S
H714 C730 0.931 . S
C715 H703 0.929 . S
C715 C709 1.390 . S
C715 C712 1.386 . S
C716 C711 1.490 . S
C716 C718 1.395 . S
C716 C719 1.403 . S
H717 C723 0.930 . S
C718 H704 0.930 . S
C718 C716 1.395 . S
C718 C721 1.403 . S
C719 C716 1.403 . S
C719 C720 1.524 . S
C719 C723 1.400 . S
C720 H705 0.960 . S
C720 H706 0.960 . S
C720 H707 0.960 . S
C720 C719 1.524 . S
C721 C718 1.403 . S
C721 C722 1.392 . S
C721 C725 1.495 . S
C722 C721 1.392 . S
C722 C723 1.385 . S
C722 C724 1.478 . S
C723 H717 0.930 . S
C723 C719 1.400 . S
C723 C722 1.385 . S
C724 C722 1.478 . S
C724 C726 1.381 . S
C724 C730 1.383 . S
C725 C721 1.495 . S
C725 H731 0.959 . S
C725 H732 0.961 . S
C725 H733 0.960 . S
C726 C724 1.381 . S
C726 C727 1.394 . S
C726 H734 0.930 . S
C727 C726 1.394 . S
C727 C728 1.383 . S
C727 H735 0.929 . S
C728 C727 1.383 . S
C728 C729 1.377 . S
C729 H713 0.930 . S
C729 C728 1.377 . S
C729 C730 1.379 . S
C730 H714 0.931 . S
C730 C724 1.383 . S
C730 C729 1.379 . S
H731 C725 0.959 . S
H732 C725 0.961 . S
H733 C725 0.960 . S
H734 C726 0.930 . S
H735 C727 0.929 . S
H736 C744 0.929 . S
H737 C746 0.930 . S
H738 C748 0.930 . S
H739 C751 0.929 . S
H740 C754 0.930 . S
H741 C756 0.960 . S
H742 C756 0.960 . S
H743 C756 0.960 . S
C744 H736 0.929 . S
C744 C745 1.377 . S
C744 C746 1.384 . S
C745 C744 1.377 . S
C745 C751 1.390 . S
C746 H737 0.930 . S
C746 C744 1.384 . S
C746 C747 1.372 . S
C747 C746 1.372 . S
C747 C748 1.400 . S
C747 C752 1.490 . S
C748 H738 0.930 . S
C748 C747 1.400 . S
C748 C751 1.386 . S
H749 C765 0.930 . S
H750 C766 0.931 . S
C751 H739 0.929 . S
C751 C745 1.390 . S
C751 C748 1.386 . S
C752 C747 1.490 . S
C752 C754 1.395 . S
C752 C755 1.403 . S
H753 C759 0.930 . S
C754 H740 0.930 . S
C754 C752 1.395 . S
C754 C757 1.403 . S
C755 C752 1.403 . S
C755 C756 1.524 . S
C755 C759 1.400 . S
C756 H741 0.960 . S
C756 H742 0.960 . S
C756 H743 0.960 . S
C756 C755 1.524 . S
C757 C754 1.403 . S
C757 C758 1.392 . S
C757 C761 1.495 . S
C758 C757 1.392 . S
C758 C759 1.385 . S
C758 C760 1.478 . S
C759 H753 0.930 . S
C759 C755 1.400 . S
C759 C758 1.385 . S
C760 C758 1.478 . S
C760 C762 1.381 . S
C760 C766 1.383 . S
C761 C757 1.495 . S
C761 H767 0.959 . S
C761 H768 0.961 . S
C761 H769 0.960 . S
C762 C760 1.381 . S
C762 C763 1.394 . S
C762 H770 0.930 . S
C763 C762 1.394 . S
C763 C764 1.383 . S
C763 H771 0.929 . S
C764 C763 1.383 . S
C764 C765 1.377 . S
C765 H749 0.930 . S
C765 C764 1.377 . S
C765 C766 1.379 . S
C766 H750 0.931 . S
C766 C760 1.383 . S
C766 C765 1.379 . S
H767 C761 0.959 . S
H768 C761 0.961 . S
H769 C761 0.960 . S
H770 C762 0.930 . S
H771 C763 0.929 . S
H772 C780 0.929 . S
H773 C782 0.930 . S
H774 C784 0.930 . S
H775 C787 0.929 . S
H776 C790 0.930 . S
H777 C792 0.960 . S
H778 C792 0.960 . S
H779 C792 0.960 . S
C780 H772 0.929 . S
C780 C781 1.377 . S
C780 C782 1.384 . S
C781 C780 1.377 . S
C781 C787 1.390 . S
C782 H773 0.930 . S
C782 C780 1.384 . S
C782 C783 1.372 . S
C783 C782 1.372 . S
C783 C784 1.400 . S
C783 C788 1.490 . S
C784 H774 0.930 . S
C784 C783 1.400 . S
C784 C787 1.386 . S
H785 C801 0.930 . S
H786 C802 0.931 . S
C787 H775 0.929 . S
C787 C781 1.390 . S
C787 C784 1.386 . S
C788 C783 1.490 . S
C788 C790 1.395 . S
C788 C791 1.403 . S
H789 C795 0.930 . S
C790 H776 0.930 . S
C790 C788 1.395 . S
C790 C793 1.403 . S
C791 C788 1.403 . S
C791 C792 1.524 . S
C791 C795 1.400 . S
C792 H777 0.960 . S
C792 H778 0.960 . S
C792 H779 0.960 . S
C792 C791 1.524 . S
C793 C790 1.403 . S
C793 C794 1.392 . S
C793 C797 1.495 . S
C794 C793 1.392 . S
C794 C795 1.385 . S
C794 C796 1.478 . S
C795 H789 0.930 . S
C795 C791 1.400 . S
C795 C794 1.385 . S
C796 C794 1.478 . S
C796 C798 1.381 . S
C796 C802 1.383 . S
C797 C793 1.495 . S
C797 H803 0.959 . S
C797 H804 0.961 . S
C797 H805 0.960 . S
C798 C796 1.381 . S
C798 C799 1.394 . S
C798 H806 0.930 . S
C799 C798 1.394 . S
C799 C800 1.383 . S
C799 H807 0.929 . S
C800 C799 1.383 . S
C800 C801 1.377 . S
C801 H785 0.930 . S
C801 C800 1.377 . S
C801 C802 1.379 . S
C802 H786 0.931 . S
C802 C796 1.383 . S
C802 C801 1.379 . S
H803 C797 0.959 . S
H804 C797 0.961 . S
H805 C797 0.960 . S
H806 C798 0.930 . S
H807 C799 0.929 . S
H808 C816 0.929 . S
H809 C818 0.930 . S
H810 C820 0.930 . S
H811 C823 0.929 . S
H812 C826 0.930 . S
H813 C828 0.960 . S
H814 C828 0.960 . S
H815 C828 0.960 . S
C816 H808 0.929 . S
C816 C817 1.377 . S
C816 C818 1.384 . S
C817 C816 1.377 . S
C817 C823 1.390 . S
C818 H809 0.930 . S
C818 C816 1.384 . S
C818 C819 1.372 . S
C819 C818 1.372 . S
C819 C820 1.400 . S
C819 C824 1.490 . S
C820 H810 0.930 . S
C820 C819 1.400 . S
C820 C823 1.386 . S
H821 C837 0.930 . S
H822 C838 0.931 . S
C823 H811 0.929 . S
C823 C817 1.390 . S
C823 C820 1.386 . S
C824 C819 1.490 . S
C824 C826 1.395 . S
C824 C827 1.403 . S
H825 C831 0.930 . S
C826 H812 0.930 . S
C826 C824 1.395 . S
C826 C829 1.403 . S
C827 C824 1.403 . S
C827 C828 1.524 . S
C827 C831 1.400 . S
C828 H813 0.960 . S
C828 H814 0.960 . S
C828 H815 0.960 . S
C828 C827 1.524 . S
C829 C826 1.403 . S
C829 C830 1.392 . S
C829 C833 1.495 . S
C830 C829 1.392 . S
C830 C831 1.385 . S
C830 C832 1.478 . S
C831 H825 0.930 . S
C831 C827 1.400 . S
C831 C830 1.385 . S
C832 C830 1.478 . S
C832 C834 1.381 . S
C832 C838 1.383 . S
C833 C829 1.495 . S
C833 H839 0.959 . S
C833 H840 0.961 . S
C833 H841 0.960 . S
C834 C832 1.381 . S
C834 C835 1.394 . S
C834 H842 0.930 . S
C835 C834 1.394 . S
C835 C836 1.383 . S
C835 H843 0.929 . S
C836 C835 1.383 . S
C836 C837 1.377 . S
C837 H821 0.930 . S
C837 C836 1.377 . S
C837 C838 1.379 . S
C838 H822 0.931 . S
C838 C832 1.383 . S
C838 C837 1.379 . S
H839 C833 0.959 . S
H840 C833 0.961 . S
H841 C833 0.960 . S
H842 C834 0.930 . S
H843 C835 0.929 . S
H844 C852 0.929 . S
H845 C854 0.930 . S
H846 C856 0.930 . S
H847 C859 0.929 . S
H848 C862 0.930 . S
H849 C864 0.960 . S
H850 C864 0.960 . S
H851 C864 0.960 . S
C852 H844 0.929 . S
C852 C853 1.377 . S
C852 C854 1.384 . S
C853 C852 1.377 . S
C853 C859 1.390 . S
C854 H845 0.930 . S
C854 C852 1.384 . S
C854 C855 1.372 . S
C855 C854 1.372 . S
C855 C856 1.400 . S
C855 C860 1.490 . S
C856 H846 0.930 . S
C856 C855 1.400 . S
C856 C859 1.386 . S
H857 C873 0.930 . S
H858 C874 0.931 . S
C859 H847 0.929 . S
C859 C853 1.390 . S
C859 C856 1.386 . S
C860 C855 1.490 . S
C860 C862 1.395 . S
C860 C863 1.403 . S
H861 C867 0.930 . S
C862 H848 0.930 . S
C862 C860 1.395 . S
C862 C865 1.403 . S
C863 C860 1.403 . S
C863 C864 1.524 . S
C863 C867 1.400 . S
C864 H849 0.960 . S
C864 H850 0.960 . S
C864 H851 0.960 . S
C864 C863 1.524 . S
C865 C862 1.403 . S
C865 C866 1.392 . S
C865 C869 1.495 . S
C866 C865 1.392 . S
C866 C867 1.385 . S
C866 C868 1.478 . S
C867 H861 0.930 . S
C867 C863 1.400 . S
C867 C866 1.385 . S
C868 C866 1.478 . S
C868 C870 1.381 . S
C868 C874 1.383 . S
C869 C865 1.495 . S
C869 H875 0.959 . S
C869 H876 0.961 . S
C869 H877 0.960 . S
C870 C868 1.381 . S
C870 C871 1.394 . S
C870 H878 0.930 . S
C871 C870 1.394 . S
C871 C872 1.383 . S
C871 H879 0.929 . S
C872 C871 1.383 . S
C872 C873 1.377 . S
C873 H857 0.930 . S
C873 C872 1.377 . S
C873 C874 1.379 . S
C874 H858 0.931 . S
C874 C868 1.383 . S
C874 C873 1.379 . S
H875 C869 0.959 . S
H876 C869 0.961 . S
H877 C869 0.960 . S
H878 C870 0.930 . S
H879 C871 0.929 . S
H880 C888 0.929 . S
H881 C890 0.930 . S
H882 C892 0.930 . S
H883 C895 0.929 . S
H884 C898 0.930 . S
H885 C900 0.960 . S
H886 C900 0.960 . S
H887 C900 0.960 . S
C888 H880 0.929 . S
C888 C889 1.377 . S
C888 C890 1.384 . S
C889 C888 1.377 . S
C889 C895 1.390 . S
C890 H881 0.930 . S
C890 C888 1.384 . S
C890 C891 1.372 . S
C891 C890 1.372 . S
C891 C892 1.400 . S
C891 C896 1.490 . S
C892 H882 0.930 . S
C892 C891 1.400 . S
C892 C895 1.386 . S
H893 C909 0.930 . S
H894 C910 0.931 . S
C895 H883 0.929 . S
C895 C889 1.390 . S
C895 C892 1.386 . S
C896 C891 1.490 . S
C896 C898 1.395 . S
C896 C899 1.403 . S
H897 C903 0.930 . S
C898 H884 0.930 . S
C898 C896 1.395 . S
C898 C901 1.403 . S
C899 C896 1.403 . S
C899 C900 1.524 . S
C899 C903 1.400 . S
C900 H885 0.960 . S
C900 H886 0.960 . S
C900 H887 0.960 . S
C900 C899 1.524 . S
C901 C898 1.403 . S
C901 C902 1.392 . S
C901 C905 1.495 . S
C902 C901 1.392 . S
C902 C903 1.385 . S
C902 C904 1.478 . S
C903 H897 0.930 . S
C903 C899 1.400 . S
C903 C902 1.385 . S
C904 C902 1.478 . S
C904 C906 1.381 . S
C904 C910 1.383 . S
C905 C901 1.495 . S
C905 H911 0.959 . S
C905 H912 0.961 . S
C905 H913 0.960 . S
C906 C904 1.381 . S
C906 C907 1.394 . S
C906 H914 0.930 . S
C907 C906 1.394 . S
C907 C908 1.383 . S
C907 H915 0.929 . S
C908 C907 1.383 . S
C908 C909 1.377 . S
C909 H893 0.930 . S
C909 C908 1.377 . S
C909 C910 1.379 . S
C910 H894 0.931 . S
C910 C904 1.383 . S
C910 C909 1.379 . S
H911 C905 0.959 . S
H912 C905 0.961 . S
H913 C905 0.960 . S
H914 C906 0.930 . S
H915 C907 0.929 . S
H916 C924 0.929 . S
H917 C926 0.930 . S
H918 C928 0.930 . S
H919 C931 0.929 . S
H920 C934 0.930 . S
H921 C936 0.960 . S
H922 C936 0.960 . S
H923 C936 0.960 . S
C924 H916 0.929 . S
C924 C925 1.377 . S
C924 C926 1.384 . S
C925 C924 1.377 . S
C925 C931 1.390 . S
C926 H917 0.930 . S
C926 C924 1.384 . S
C926 C927 1.372 . S
C927 C926 1.372 . S
C927 C928 1.400 . S
C927 C932 1.490 . S
C928 H918 0.930 . S
C928 C927 1.400 . S
C928 C931 1.386 . S
H929 C945 0.930 . S
H930 C946 0.931 . S
C931 H919 0.929 . S
C931 C925 1.390 . S
C931 C928 1.386 . S
C932 C927 1.490 . S
C932 C934 1.395 . S
C932 C935 1.403 . S
H933 C939 0.930 . S
C934 H920 0.930 . S
C934 C932 1.395 . S
C934 C937 1.403 . S
C935 C932 1.403 . S
C935 C936 1.524 . S
C935 C939 1.400 . S
C936 H921 0.960 . S
C936 H922 0.960 . S
C936 H923 0.960 . S
C936 C935 1.524 . S
C937 C934 1.403 . S
C937 C938 1.392 . S
C937 C941 1.495 . S
C938 C937 1.392 . S
C938 C939 1.385 . S
C938 C940 1.478 . S
C939 H933 0.930 . S
C939 C935 1.400 . S
C939 C938 1.385 . S
C940 C938 1.478 . S
C940 C942 1.381 . S
C940 C946 1.383 . S
C941 C937 1.495 . S
C941 H947 0.959 . S
C941 H948 0.961 . S
C941 H949 0.960 . S
C942 C940 1.381 . S
C942 C943 1.394 . S
C942 H950 0.930 . S
C943 C942 1.394 . S
C943 C944 1.383 . S
C943 H951 0.929 . S
C944 C943 1.383 . S
C944 C945 1.377 . S
C945 H929 0.930 . S
C945 C944 1.377 . S
C945 C946 1.379 . S
C946 H930 0.931 . S
C946 C940 1.383 . S
C946 C945 1.379 . S
H947 C941 0.959 . S
H948 C941 0.961 . S
H949 C941 0.960 . S
H950 C942 0.930 . S
H951 C943 0.929 . S
H952 C960 0.929 . S
H953 C962 0.930 . S
H954 C964 0.930 . S
H955 C967 0.929 . S
H956 C970 0.930 . S
H957 C972 0.960 . S
H958 C972 0.960 . S
H959 C972 0.960 . S
C960 H952 0.929 . S
C960 C961 1.377 . S
C960 C962 1.384 . S
C961 C960 1.377 . S
C961 C967 1.390 . S
C962 H953 0.930 . S
C962 C960 1.384 . S
C962 C963 1.372 . S
C963 C962 1.372 . S
C963 C964 1.400 . S
C963 C968 1.490 . S
C964 H954 0.930 . S
C964 C963 1.400 . S
C964 C967 1.386 . S
H965 C981 0.930 . S
H966 C982 0.931 . S
C967 H955 0.929 . S
C967 C961 1.390 . S
C967 C964 1.386 . S
C968 C963 1.490 . S
C968 C970 1.395 . S
C968 C971 1.403 . S
H969 C975 0.930 . S
C970 H956 0.930 . S
C970 C968 1.395 . S
C970 C973 1.403 . S
C971 C968 1.403 . S
C971 C972 1.524 . S
C971 C975 1.400 . S
C972 H957 0.960 . S
C972 H958 0.960 . S
C972 H959 0.960 . S
C972 C971 1.524 . S
C973 C970 1.403 . S
C973 C974 1.392 . S
C973 C977 1.495 . S
C974 C973 1.392 . S
C974 C975 1.385 . S
C974 C976 1.478 . S
C975 H969 0.930 . S
C975 C971 1.400 . S
C975 C974 1.385 . S
C976 C974 1.478 . S
C976 C978 1.381 . S
C976 C982 1.383 . S
C977 C973 1.495 . S
C977 H983 0.959 . S
C977 H984 0.961 . S
C977 H985 0.960 . S
C978 C976 1.381 . S
C978 C979 1.394 . S
C978 H986 0.930 . S
C979 C978 1.394 . S
C979 C980 1.383 . S
C979 H987 0.929 . S
C980 C979 1.383 . S
C980 C981 1.377 . S
C981 H965 0.930 . S
C981 C980 1.377 . S
C981 C982 1.379 . S
C982 H966 0.931 . S
C982 C976 1.383 . S
C982 C981 1.379 . S
H983 C977 0.959 . S
H984 C977 0.961 . S
H985 C977 0.960 . S
H986 C978 0.930 . S
H987 C979 0.929 . S
H988 C996 0.929 . S
H989 C998 0.930 . S
H990 C1000 0.930 . S
H991 C1003 0.929 . S
H992 C1006 0.930 . S
H993 C1008 0.960 . S
H994 C1008 0.960 . S
H995 C1008 0.960 . S
C996 H988 0.929 . S
C996 C997 1.377 . S
C996 C998 1.384 . S
C997 C996 1.377 . S
C997 C1003 1.390 . S
C998 H989 0.930 . S
C998 C996 1.384 . S
C998 C999 1.372 . S
C999 C998 1.372 . S
C999 C1000 1.400 . S
C999 C1004 1.490 . S
C1000 H990 0.930 . S
C1000 C999 1.400 . S
C1000 C1003 1.386 . S
H1001 C1017 0.930 . S
H1002 C1018 0.931 . S
C1003 H991 0.929 . S
C1003 C997 1.390 . S
C1003 C1000 1.386 . S
C1004 C999 1.490 . S
C1004 C1006 1.395 . S
C1004 C1007 1.403 . S
H1005 C1011 0.930 . S
C1006 H992 0.930 . S
C1006 C1004 1.395 . S
C1006 C1009 1.403 . S
C1007 C1004 1.403 . S
C1007 C1008 1.524 . S
C1007 C1011 1.400 . S
C1008 H993 0.960 . S
C1008 H994 0.960 . S
C1008 H995 0.960 . S
C1008 C1007 1.524 . S
C1009 C1006 1.403 . S
C1009 C1010 1.392 . S
C1009 C1013 1.495 . S
C1010 C1009 1.392 . S
C1010 C1011 1.385 . S
C1010 C1012 1.478 . S
C1011 H1005 0.930 . S
C1011 C1007 1.400 . S
C1011 C1010 1.385 . S
C1012 C1010 1.478 . S
C1012 C1014 1.381 . S
C1012 C1018 1.383 . S
C1013 C1009 1.495 . S
C1013 H1019 0.959 . S
C1013 H1020 0.961 . S
C1013 H1021 0.960 . S
C1014 C1012 1.381 . S
C1014 C1015 1.394 . S
C1014 H1022 0.930 . S
C1015 C1014 1.394 . S
C1015 C1016 1.383 . S
C1015 H1023 0.929 . S
C1016 C1015 1.383 . S
C1016 C1017 1.377 . S
C1017 H1001 0.930 . S
C1017 C1016 1.377 . S
C1017 C1018 1.379 . S
C1018 H1002 0.931 . S
C1018 C1012 1.383 . S
C1018 C1017 1.379 . S
H1019 C1013 0.959 . S
H1020 C1013 0.961 . S
H1021 C1013 0.960 . S
H1022 C1014 0.930 . S
H1023 C1015 0.929 . S
H1024 C1032 0.929 . S
H1025 C1034 0.930 . S
H1026 C1036 0.930 . S
H1027 C1039 0.929 . S
H1028 C1042 0.930 . S
H1029 C1044 0.960 1_545 S
H1030 C1044 0.960 . S
H1031 C1044 0.960 . S
C1032 H1024 0.929 . S
C1032 C1033 1.377 . S
C1032 C1034 1.384 . S
C1033 C1032 1.377 . S
C1033 C1039 1.390 . S
C1034 H1025 0.930 . S
C1034 C1032 1.384 . S
C1034 C1035 1.372 . S
C1035 C1034 1.372 . S
C1035 C1036 1.400 . S
C1035 C1040 1.490 . S
C1036 H1026 0.930 . S
C1036 C1035 1.400 . S
C1036 C1039 1.386 . S
H1037 C1053 0.930 . S
H1038 C1054 0.931 . S
C1039 H1027 0.929 . S
C1039 C1033 1.390 . S
C1039 C1036 1.386 . S
C1040 C1035 1.490 . S
C1040 C1042 1.395 . S
C1040 C1043 1.403 . S
H1041 C1047 0.930 . S
C1042 H1028 0.930 . S
C1042 C1040 1.395 . S
C1042 C1045 1.346 1_565 S
C1043 C1040 1.403 . S
C1043 C1044 1.524 . S
C1043 C1047 1.400 1_565 S
C1044 H1029 0.960 1_565 S
C1044 H1030 0.960 . S
C1044 H1031 0.960 . S
C1044 C1043 1.524 . S
C1045 C1042 1.346 1_545 S
C1045 C1046 1.444 . S
C1045 C1049 1.504 . S
C1046 C1045 1.444 . S
C1046 C1047 1.385 . S
C1046 C1048 1.478 . S
C1047 H1041 0.930 . S
C1047 C1043 1.400 1_545 S
C1047 C1046 1.385 . S
C1048 C1046 1.478 . S
C1048 C1050 1.381 . S
C1048 C1054 1.383 . S
C1049 C1045 1.504 . S
C1049 H1055 0.959 1_545 S
C1049 H1056 0.961 . S
C1049 H1057 0.960 . S
C1050 C1048 1.381 . S
C1050 C1051 1.394 . S
C1050 H1058 0.930 . S
C1051 C1050 1.394 . S
C1051 C1052 1.383 . S
C1051 H1059 0.929 . S
C1052 C1051 1.383 . S
C1052 C1053 1.377 . S
C1053 H1037 0.930 . S
C1053 C1052 1.377 . S
C1053 C1054 1.379 . S
C1054 H1038 0.931 . S
C1054 C1048 1.383 . S
C1054 C1053 1.379 . S
H1055 C1049 0.959 1_565 S
H1056 C1049 0.961 . S
H1057 C1049 0.960 . S
H1058 C1050 0.930 . S
H1059 C1051 0.929 . S
H1060 C1068 0.929 . S
H1061 C1070 0.930 . S
H1062 C1072 0.930 . S
H1063 C1075 0.929 . S
H1064 C1078 0.930 . S
H1065 C1080 0.960 . S
H1066 C1080 0.960 . S
H1067 C1080 0.960 . S
C1068 H1060 0.929 . S
C1068 C1069 1.377 . S
C1068 C1070 1.384 . S
C1069 C1068 1.377 . S
C1069 C1075 1.390 . S
C1070 H1061 0.930 . S
C1070 C1068 1.384 . S
C1070 C1071 1.372 . S
C1071 C1070 1.372 . S
C1071 C1072 1.400 . S
C1071 C1076 1.490 . S
C1072 H1062 0.930 . S
C1072 C1071 1.400 . S
C1072 C1075 1.386 . S
H1073 C1089 0.930 . S
H1074 C1090 0.931 . S
C1075 H1063 0.929 . S
C1075 C1069 1.390 . S
C1075 C1072 1.386 . S
C1076 C1071 1.490 . S
C1076 C1078 1.395 1_655 S
C1076 C1079 1.403 . S
H1077 C1083 0.930 . S
C1078 H1064 0.930 . S
C1078 C1076 1.395 1_455 S
C1078 C1081 1.403 . S
C1079 C1076 1.403 . S
C1079 C1080 1.524 . S
C1079 C1083 1.400 . S
C1080 H1065 0.960 . S
C1080 H1066 0.960 . S
C1080 H1067 0.960 . S
C1080 C1079 1.524 . S
C1081 C1078 1.403 . S
C1081 C1082 1.392 . S
C1081 C1085 1.495 . S
C1082 C1081 1.392 . S
C1082 C1083 1.385 1_455 S
C1082 C1084 1.478 . S
C1083 H1077 0.930 . S
C1083 C1079 1.400 . S
C1083 C1082 1.385 1_655 S
C1084 C1082 1.478 . S
C1084 C1086 1.381 . S
C1084 C1090 1.383 . S
C1085 C1081 1.495 . S
C1085 H1091 0.959 . S
C1085 H1092 0.961 . S
C1085 H1093 0.960 . S
C1086 C1084 1.381 . S
C1086 C1087 1.394 . S
C1086 H1094 0.930 . S
C1087 C1086 1.394 . S
C1087 C1088 1.383 . S
C1087 H1095 0.929 . S
C1088 C1087 1.383 . S
C1088 C1089 1.377 . S
C1089 H1073 0.930 . S
C1089 C1088 1.377 . S
C1089 C1090 1.379 . S
C1090 H1074 0.931 . S
C1090 C1084 1.383 . S
C1090 C1089 1.379 . S
H1091 C1085 0.959 . S
H1092 C1085 0.961 . S
H1093 C1085 0.960 . S
H1094 C1086 0.930 . S
H1095 C1087 0.929 . S
H1096 C1104 0.915 1_554 S
H1097 C1106 0.902 1_554 S
H1098 C1108 0.930 . S
H1099 C1111 0.929 . S
H1100 C1114 0.930 . S
H1101 C1116 0.960 . S
H1102 C1116 0.960 . S
H1103 C1116 0.960 1_556 S
C1104 H1096 0.915 1_556 S
C1104 C1105 1.377 . S
C1104 C1106 1.394 . S
C1105 C1104 1.377 . S
C1105 C1111 1.390 . S
C1106 H1097 0.902 1_556 S
C1106 C1104 1.394 . S
C1106 C1107 1.390 . S
C1107 C1106 1.390 . S
C1107 C1108 1.400 . S
C1107 C1112 1.490 . S
C1108 H1098 0.930 . S
C1108 C1107 1.400 . S
C1108 C1111 1.386 . S
H1109 C1125 0.930 1_556 S
H1110 C1126 0.931 . S
C1111 H1099 0.929 . S
C1111 C1105 1.390 . S
C1111 C1108 1.386 . S
C1112 C1107 1.490 . S
C1112 C1114 1.395 . S
C1112 C1115 1.403 1_556 S
H1113 C1119 0.930 . S
C1114 H1100 0.930 . S
C1114 C1112 1.395 . S
C1114 C1117 1.403 . S
C1115 C1112 1.403 1_554 S
C1115 C1116 1.524 . S
C1115 C1119 1.400 . S
C1116 H1101 0.960 . S
C1116 H1102 0.960 . S
C1116 H1103 0.960 1_554 S
C1116 C1115 1.524 . S
C1117 C1114 1.403 . S
C1117 C1118 1.392 1_556 S
C1117 C1121 1.495 . S
C1118 C1117 1.392 1_554 S
C1118 C1119 1.385 . S
C1118 C1120 1.478 . S
C1119 H1113 0.930 . S
C1119 C1115 1.400 . S
C1119 C1118 1.385 . S
C1120 C1118 1.478 . S
C1120 C1122 1.381 . S
C1120 C1126 1.383 1_554 S
C1121 C1117 1.495 . S
C1121 H1127 0.959 . S
C1121 H1128 0.961 . S
C1121 H1129 0.960 1_556 S
C1122 C1120 1.381 . S
C1122 C1123 1.394 . S
C1122 H1130 0.930 . S
C1123 C1122 1.394 . S
C1123 C1124 1.383 . S
C1123 H1131 0.929 . S
C1124 C1123 1.383 . S
C1124 C1125 1.377 . S
C1125 H1109 0.930 1_554 S
C1125 C1124 1.377 . S
C1125 C1126 1.379 1_554 S
C1126 H1110 0.931 . S
C1126 C1120 1.383 1_556 S
C1126 C1125 1.379 1_556 S
H1127 C1121 0.959 . S
H1128 C1121 0.961 . S
H1129 C1121 0.960 1_554 S
H1130 C1122 0.930 . S
H1131 C1123 0.929 . S
H1132 C1140 0.929 . S
H1133 C1142 0.930 . S
H1134 C1144 0.930 . S
H1135 C1147 0.929 1_554 S
H1136 C1150 0.930 . S
H1137 C1152 0.960 1_554 S
H1138 C1152 0.960 . S
H1139 C1152 0.960 1_554 S
C1140 H1132 0.929 . S
C1140 C1141 1.377 . S
C1140 C1142 1.384 . S
C1141 C1140 1.377 . S
C1141 C1147 1.390 . S
C1142 H1133 0.930 . S
C1142 C1140 1.384 . S
C1142 C1143 1.372 . S
C1143 C1142 1.372 . S
C1143 C1144 1.400 1_556 S
C1143 C1148 1.490 . S
C1144 H1134 0.930 . S
C1144 C1143 1.400 1_554 S
C1144 C1147 1.386 1_554 S
H1145 C1161 0.930 . S
H1146 C1162 0.931 . S
C1147 H1135 0.929 1_556 S
C1147 C1141 1.390 . S
C1147 C1144 1.386 1_556 S
C1148 C1143 1.490 . S
C1148 C1150 1.395 1_545 S
C1148 C1151 1.403 1_455 S
H1149 C1155 0.929 . S
C1150 H1136 0.930 . S
C1150 C1148 1.395 1_565 S
C1150 C1153 1.403 . S
C1151 C1148 1.403 1_655 S
C1151 C1152 1.524 . S
C1151 C1155 1.370 1_546 S
C1152 H1137 0.960 1_556 S
C1152 H1138 0.960 . S
C1152 H1139 0.960 1_556 S
C1152 C1151 1.524 . S
C1153 C1150 1.403 . S
C1153 C1154 1.392 1_456 S
C1153 C1157 1.495 . S
C1154 C1153 1.392 1_654 S
C1154 C1155 1.417 . S
C1154 C1156 1.478 . S
C1155 H1149 0.929 . S
C1155 C1151 1.370 1_564 S
C1155 C1154 1.417 . S
C1156 C1154 1.478 . S
C1156 C1158 1.381 1_554 S
C1156 C1162 1.383 . S
C1157 C1153 1.495 . S
C1157 H1163 0.959 . S
C1157 H1164 0.961 1_556 S
C1157 H1165 0.960 . S
C1158 C1156 1.381 1_556 S
C1158 C1159 1.394 1_556 S
C1158 H1166 0.930 . S
C1159 C1158 1.394 1_554 S
C1159 C1160 1.383 . S
C1159 H1167 0.929 1_554 S
C1160 C1159 1.383 . S
C1160 C1161 1.377 . S
C1161 H1145 0.930 . S
C1161 C1160 1.377 . S
C1161 C1162 1.379 . S
C1162 H1146 0.931 . S
C1162 C1156 1.383 . S
C1162 C1161 1.379 . S
H1163 C1157 0.959 . S
H1164 C1157 0.961 1_554 S
H1165 C1157 0.960 . S
H1166 C1158 0.930 . S
H1167 C1159 0.929 1_556 S
H1168 C1176 0.929 . S
H1169 C1178 0.930 . S
H1170 C1180 0.930 . S
H1171 C1183 0.929 . S
H1172 C1186 0.930 . S
H1173 C1188 0.960 . S
H1174 C1188 0.960 . S
H1175 C1188 0.960 . S
C1176 H1168 0.929 . S
C1176 C1177 1.377 . S
C1176 C1178 1.384 . S
C1177 C1176 1.377 . S
C1177 C1183 1.390 . S
C1178 H1169 0.930 . S
C1178 C1176 1.384 . S
C1178 C1179 1.372 . S
C1179 C1178 1.372 . S
C1179 C1180 1.400 . S
C1179 C1184 1.490 . S
C1180 H1170 0.930 . S
C1180 C1179 1.400 . S
C1180 C1183 1.386 . S
H1181 C1197 0.930 . S
H1182 C1198 0.931 . S
C1183 H1171 0.929 . S
C1183 C1177 1.390 . S
C1183 C1180 1.386 . S
C1184 C1179 1.490 . S
C1184 C1186 1.395 1_545 S
C1184 C1187 1.403 . S
H1185 C1191 0.930 . S
C1186 H1172 0.930 . S
C1186 C1184 1.395 1_565 S
C1186 C1189 1.403 . S
C1187 C1184 1.403 . S
C1187 C1188 1.524 . S
C1187 C1191 1.368 1_545 S
C1188 H1173 0.960 . S
C1188 H1174 0.960 . S
C1188 H1175 0.960 . S
C1188 C1187 1.524 . S
C1189 C1186 1.403 . S
C1189 C1190 1.392 . S
C1189 C1193 1.495 . S
C1190 C1189 1.392 . S
C1190 C1191 1.419 . S
C1190 C1192 1.478 . S
C1191 H1185 0.930 . S
C1191 C1187 1.368 1_565 S
C1191 C1190 1.419 . S
C1192 C1190 1.478 . S
C1192 C1194 1.381 . S
C1192 C1198 1.383 . S
C1193 C1189 1.495 . S
C1193 H1199 0.959 . S
C1193 H1200 0.961 . S
C1193 H1201 0.960 . S
C1194 C1192 1.381 . S
C1194 C1195 1.394 . S
C1194 H1202 0.930 . S
C1195 C1194 1.394 . S
C1195 C1196 1.383 . S
C1195 H1203 0.929 . S
C1196 C1195 1.383 . S
C1196 C1197 1.377 . S
C1197 H1181 0.930 . S
C1197 C1196 1.377 . S
C1197 C1198 1.379 . S
C1198 H1182 0.931 . S
C1198 C1192 1.383 . S
C1198 C1197 1.379 . S
H1199 C1193 0.959 . S
H1200 C1193 0.961 . S
H1201 C1193 0.960 . S
H1202 C1194 0.930 . S
H1203 C1195 0.929 . S
H1204 C1212 0.929 . S
H1205 C1214 0.930 . S
H1206 C1216 0.930 . S
H1207 C1219 0.929 . S
H1208 C1222 0.930 . S
H1209 C1224 0.960 . S
H1210 C1224 0.960 . S
H1211 C1224 0.960 . S
C1212 H1204 0.929 . S
C1212 C1213 1.377 . S
C1212 C1214 1.384 . S
C1213 C1212 1.377 . S
C1213 C1219 1.390 . S
C1214 H1205 0.930 . S
C1214 C1212 1.384 . S
C1214 C1215 1.372 . S
C1215 C1214 1.372 . S
C1215 C1216 1.400 . S
C1215 C1220 1.490 . S
C1216 H1206 0.930 . S
C1216 C1215 1.400 . S
C1216 C1219 1.386 . S
H1217 C1233 0.930 . S
H1218 C1234 0.931 . S
C1219 H1207 0.929 . S
C1219 C1213 1.390 . S
C1219 C1216 1.386 . S
C1220 C1215 1.490 . S
C1220 C1222 1.395 1_455 S
C1220 C1223 1.403 . S
H1221 C1227 0.930 . S
C1222 H1208 0.930 . S
C1222 C1220 1.395 1_655 S
C1222 C1225 1.403 . S
C1223 C1220 1.403 . S
C1223 C1224 1.524 . S
C1223 C1227 1.400 . S
C1224 H1209 0.960 . S
C1224 H1210 0.960 . S
C1224 H1211 0.960 . S
C1224 C1223 1.524 . S
C1225 C1222 1.403 . S
C1225 C1226 1.392 . S
C1225 C1229 1.495 . S
C1226 C1225 1.392 . S
C1226 C1227 1.385 1_655 S
C1226 C1228 1.478 . S
C1227 H1221 0.930 . S
C1227 C1223 1.400 . S
C1227 C1226 1.385 1_455 S
C1228 C1226 1.478 . S
C1228 C1230 1.381 . S
C1228 C1234 1.383 . S
C1229 C1225 1.495 . S
C1229 H1235 0.959 . S
C1229 H1236 0.961 . S
C1229 H1237 0.960 . S
C1230 C1228 1.381 . S
C1230 C1231 1.394 . S
C1230 H1238 0.930 . S
C1231 C1230 1.394 . S
C1231 C1232 1.383 . S
C1231 H1239 0.929 . S
C1232 C1231 1.383 . S
C1232 C1233 1.377 . S
C1233 H1217 0.930 . S
C1233 C1232 1.377 . S
C1233 C1234 1.379 . S
C1234 H1218 0.931 . S
C1234 C1228 1.383 . S
C1234 C1233 1.379 . S
H1235 C1229 0.959 . S
H1236 C1229 0.961 . S
H1237 C1229 0.960 . S
H1238 C1230 0.930 . S
H1239 C1231 0.929 . S
H1240 C1248 0.929 1_554 S
H1241 C1250 0.930 . S
H1242 C1252 0.930 . S
H1243 C1255 0.929 . S
H1244 C1258 0.930 . S
H1245 C1260 0.960 . S
H1246 C1260 0.960 . S
H1247 C1260 0.960 . S
C1248 H1240 0.929 1_556 S
C1248 C1249 1.377 . S
C1248 C1250 1.384 1_556 S
C1249 C1248 1.377 . S
C1249 C1255 1.390 . S
C1250 H1241 0.930 . S
C1250 C1248 1.384 1_554 S
C1250 C1251 1.372 1_554 S
C1251 C1250 1.372 1_556 S
C1251 C1252 1.400 . S
C1251 C1256 1.490 . S
C1252 H1242 0.930 . S
C1252 C1251 1.400 . S
C1252 C1255 1.386 . S
H1253 C1269 0.930 1_556 S
H1254 C1270 0.931 . S
C1255 H1243 0.929 . S
C1255 C1249 1.390 . S
C1255 C1252 1.386 . S
C1256 C1251 1.490 . S
C1256 C1258 1.395 1_556 S
C1256 C1259 1.403 . S
H1257 C1263 0.930 . S
C1258 H1244 0.930 . S
C1258 C1256 1.395 1_554 S
C1258 C1261 1.403 . S
C1259 C1256 1.403 . S
C1259 C1260 1.524 . S
C1259 C1263 1.400 . S
C1260 H1245 0.960 . S
C1260 H1246 0.960 . S
C1260 H1247 0.960 . S
C1260 C1259 1.524 . S
C1261 C1258 1.403 . S
C1261 C1262 1.392 . S
C1261 C1265 1.495 . S
C1262 C1261 1.392 . S
C1262 C1263 1.385 1_554 S
C1262 C1264 1.478 . S
C1263 H1257 0.930 . S
C1263 C1259 1.400 . S
C1263 C1262 1.385 1_556 S
C1264 C1262 1.478 . S
C1264 C1266 1.381 . S
C1264 C1270 1.383 1_554 S
C1265 C1261 1.495 . S
C1265 H1271 0.959 . S
C1265 H1272 0.961 . S
C1265 H1273 0.960 . S
C1266 C1264 1.381 . S
C1266 C1267 1.394 . S
C1266 H1274 0.930 . S
C1267 C1266 1.394 . S
C1267 C1268 1.383 . S
C1267 H1275 0.929 . S
C1268 C1267 1.383 . S
C1268 C1269 1.377 . S
C1269 H1253 0.930 1_554 S
C1269 C1268 1.377 . S
C1269 C1270 1.379 1_554 S
C1270 H1254 0.931 . S
C1270 C1264 1.383 1_556 S
C1270 C1269 1.379 1_556 S
H1271 C1265 0.959 . S
H1272 C1265 0.961 . S
H1273 C1265 0.960 . S
H1274 C1266 0.930 . S
H1275 C1267 0.929 . S
H1276 C1284 0.929 . S
H1277 C1286 0.930 . S
H1278 C1288 0.930 . S
H1279 C1291 0.929 . S
H1280 C1294 0.930 . S
H1281 C1296 0.960 . S
H1282 C1296 0.960 . S
H1283 C1296 0.960 . S
C1284 H1276 0.929 . S
C1284 C1285 1.377 . S
C1284 C1286 1.384 . S
C1285 C1284 1.377 . S
C1285 C1291 1.390 . S
C1286 H1277 0.930 . S
C1286 C1284 1.384 . S
C1286 C1287 1.372 . S
C1287 C1286 1.372 . S
C1287 C1288 1.400 . S
C1287 C1292 1.490 . S
C1288 H1278 0.930 . S
C1288 C1287 1.400 . S
C1288 C1291 1.386 . S
H1289 C1305 0.930 . S
H1290 C1306 0.931 . S
C1291 H1279 0.929 . S
C1291 C1285 1.390 . S
C1291 C1288 1.386 . S
C1292 C1287 1.490 . S
C1292 C1294 1.395 . S
C1292 C1295 1.403 . S
H1293 C1299 0.930 . S
C1294 H1280 0.930 . S
C1294 C1292 1.395 . S
C1294 C1297 1.403 . S
C1295 C1292 1.403 . S
C1295 C1296 1.524 . S
C1295 C1299 1.400 . S
C1296 H1281 0.960 . S
C1296 H1282 0.960 . S
C1296 H1283 0.960 . S
C1296 C1295 1.524 . S
C1297 C1294 1.403 . S
C1297 C1298 1.392 . S
C1297 C1301 1.495 . S
C1298 C1297 1.392 . S
C1298 C1299 1.385 . S
C1298 C1300 1.478 . S
C1299 H1293 0.930 . S
C1299 C1295 1.400 . S
C1299 C1298 1.385 . S
C1300 C1298 1.478 . S
C1300 C1302 1.381 . S
C1300 C1306 1.383 . S
C1301 C1297 1.495 . S
C1301 H1307 0.959 . S
C1301 H1308 0.961 . S
C1301 H1309 0.960 . S
C1302 C1300 1.381 . S
C1302 C1303 1.394 . S
C1302 H1310 0.930 . S
C1303 C1302 1.394 . S
C1303 C1304 1.383 . S
C1303 H1311 0.929 . S
C1304 C1303 1.383 . S
C1304 C1305 1.377 . S
C1305 H1289 0.930 . S
C1305 C1304 1.377 . S
C1305 C1306 1.379 . S
C1306 H1290 0.931 . S
C1306 C1300 1.383 . S
C1306 C1305 1.379 . S
H1307 C1301 0.959 . S
H1308 C1301 0.961 . S
H1309 C1301 0.960 . S
H1310 C1302 0.930 . S
H1311 C1303 0.929 . S
H1312 C1320 0.929 . S
H1313 C1322 0.930 . S
H1314 C1324 0.930 . S
H1315 C1327 0.929 . S
H1316 C1330 0.930 . S
H1317 C1332 0.960 . S
H1318 C1332 0.960 . S
H1319 C1332 0.960 . S
C1320 H1312 0.929 . S
C1320 C1321 1.377 . S
C1320 C1322 1.384 . S
C1321 C1320 1.377 . S
C1321 C1327 1.390 . S
C1322 H1313 0.930 . S
C1322 C1320 1.384 . S
C1322 C1323 1.372 . S
C1323 C1322 1.372 . S
C1323 C1324 1.400 . S
C1323 C1328 1.490 . S
C1324 H1314 0.930 . S
C1324 C1323 1.400 . S
C1324 C1327 1.386 . S
H1325 C1341 0.930 . S
H1326 C1342 0.931 . S
C1327 H1315 0.929 . S
C1327 C1321 1.390 . S
C1327 C1324 1.386 . S
C1328 C1323 1.490 . S
C1328 C1330 1.395 . S
C1328 C1331 1.403 . S
H1329 C1335 0.930 . S
C1330 H1316 0.930 . S
C1330 C1328 1.395 . S
C1330 C1333 1.403 . S
C1331 C1328 1.403 . S
C1331 C1332 1.524 . S
C1331 C1335 1.400 . S
C1332 H1317 0.960 . S
C1332 H1318 0.960 . S
C1332 H1319 0.960 . S
C1332 C1331 1.524 . S
C1333 C1330 1.403 . S
C1333 C1334 1.392 . S
C1333 C1337 1.495 . S
C1334 C1333 1.392 . S
C1334 C1335 1.385 . S
C1334 C1336 1.478 . S
C1335 H1329 0.930 . S
C1335 C1331 1.400 . S
C1335 C1334 1.385 . S
C1336 C1334 1.478 . S
C1336 C1338 1.381 . S
C1336 C1342 1.383 . S
C1337 C1333 1.495 . S
C1337 H1343 0.959 . S
C1337 H1344 0.961 . S
C1337 H1345 0.960 . S
C1338 C1336 1.381 . S
C1338 C1339 1.394 . S
C1338 H1346 0.930 . S
C1339 C1338 1.394 . S
C1339 C1340 1.383 . S
C1339 H1347 0.929 . S
C1340 C1339 1.383 . S
C1340 C1341 1.377 . S
C1341 H1325 0.930 . S
C1341 C1340 1.377 . S
C1341 C1342 1.379 . S
C1342 H1326 0.931 . S
C1342 C1336 1.383 . S
C1342 C1341 1.379 . S
H1343 C1337 0.959 . S
H1344 C1337 0.961 . S
H1345 C1337 0.960 . S
H1346 C1338 0.930 . S
H1347 C1339 0.929 . S
H1348 C1356 0.929 . S
H1349 C1358 0.930 . S
H1350 C1360 0.930 . S
H1351 C1363 0.929 . S
H1352 C1366 0.930 . S
H1353 C1368 0.960 . S
H1354 C1368 0.960 . S
H1355 C1368 0.960 . S
C1356 H1348 0.929 . S
C1356 C1357 1.377 . S
C1356 C1358 1.384 . S
C1357 C1356 1.377 . S
C1357 C1363 1.390 . S
C1358 H1349 0.930 . S
C1358 C1356 1.384 . S
C1358 C1359 1.372 . S
C1359 C1358 1.372 . S
C1359 C1360 1.400 . S
C1359 C1364 1.490 . S
C1360 H1350 0.930 . S
C1360 C1359 1.400 . S
C1360 C1363 1.386 . S
H1361 C1377 0.930 . S
H1362 C1378 0.931 . S
C1363 H1351 0.929 . S
C1363 C1357 1.390 . S
C1363 C1360 1.386 . S
C1364 C1359 1.490 . S
C1364 C1366 1.395 . S
C1364 C1367 1.403 1_655 S
H1365 C1371 0.930 . S
C1366 H1352 0.930 . S
C1366 C1364 1.395 . S
C1366 C1369 1.403 . S
C1367 C1364 1.403 1_455 S
C1367 C1368 1.524 . S
C1367 C1371 1.400 . S
C1368 H1353 0.960 . S
C1368 H1354 0.960 . S
C1368 H1355 0.960 . S
C1368 C1367 1.524 . S
C1369 C1366 1.403 . S
C1369 C1370 1.392 1_655 S
C1369 C1373 1.495 . S
C1370 C1369 1.392 1_455 S
C1370 C1371 1.385 . S
C1370 C1372 1.478 . S
C1371 H1365 0.930 . S
C1371 C1367 1.400 . S
C1371 C1370 1.385 . S
C1372 C1370 1.478 . S
C1372 C1374 1.381 . S
C1372 C1378 1.383 . S
C1373 C1369 1.495 . S
C1373 H1379 0.959 . S
C1373 H1380 0.961 . S
C1373 H1381 0.960 . S
C1374 C1372 1.381 . S
C1374 C1375 1.394 . S
C1374 H1382 0.930 . S
C1375 C1374 1.394 . S
C1375 C1376 1.383 . S
C1375 H1383 0.929 . S
C1376 C1375 1.383 . S
C1376 C1377 1.377 . S
C1377 H1361 0.930 . S
C1377 C1376 1.377 . S
C1377 C1378 1.379 . S
C1378 H1362 0.931 . S
C1378 C1372 1.383 . S
C1378 C1377 1.379 . S
H1379 C1373 0.959 . S
H1380 C1373 0.961 . S
H1381 C1373 0.960 . S
H1382 C1374 0.930 . S
H1383 C1375 0.929 . S
H1384 C1392 0.929 . S
H1385 C1394 0.930 . S
H1386 C1396 0.930 . S
H1387 C1399 0.929 . S
H1388 C1402 0.930 . S
H1389 C1404 0.960 . S
H1390 C1404 0.960 . S
H1391 C1404 0.960 . S
C1392 H1384 0.929 . S
C1392 C1393 1.377 . S
C1392 C1394 1.384 . S
C1393 C1392 1.377 . S
C1393 C1399 1.390 . S
C1394 H1385 0.930 . S
C1394 C1392 1.384 . S
C1394 C1395 1.372 . S
C1395 C1394 1.372 . S
C1395 C1396 1.400 . S
C1395 C1400 1.490 . S
C1396 H1386 0.930 . S
C1396 C1395 1.400 . S
C1396 C1399 1.386 . S
H1397 C1413 0.930 . S
H1398 C1414 0.931 . S
C1399 H1387 0.929 . S
C1399 C1393 1.390 . S
C1399 C1396 1.386 . S
C1400 C1395 1.490 . S
C1400 C1402 1.395 . S
C1400 C1403 1.403 . S
H1401 C1407 0.930 . S
C1402 H1388 0.930 . S
C1402 C1400 1.395 . S
C1402 C1405 1.403 . S
C1403 C1400 1.403 . S
C1403 C1404 1.524 . S
C1403 C1407 1.400 . S
C1404 H1389 0.960 . S
C1404 H1390 0.960 . S
C1404 H1391 0.960 . S
C1404 C1403 1.524 . S
C1405 C1402 1.403 . S
C1405 C1406 1.392 . S
C1405 C1409 1.495 . S
C1406 C1405 1.392 . S
C1406 C1407 1.385 . S
C1406 C1408 1.478 . S
C1407 H1401 0.930 . S
C1407 C1403 1.400 . S
C1407 C1406 1.385 . S
C1408 C1406 1.478 . S
C1408 C1410 1.381 . S
C1408 C1414 1.383 . S
C1409 C1405 1.495 . S
C1409 H1415 0.959 . S
C1409 H1416 0.961 . S
C1409 H1417 0.960 . S
C1410 C1408 1.381 . S
C1410 C1411 1.394 . S
C1410 H1418 0.930 . S
C1411 C1410 1.394 . S
C1411 C1412 1.383 . S
C1411 H1419 0.929 . S
C1412 C1411 1.383 . S
C1412 C1413 1.377 . S
C1413 H1397 0.930 . S
C1413 C1412 1.377 . S
C1413 C1414 1.379 . S
C1414 H1398 0.931 . S
C1414 C1408 1.383 . S
C1414 C1413 1.379 . S
H1415 C1409 0.959 . S
H1416 C1409 0.961 . S
H1417 C1409 0.960 . S
H1418 C1410 0.930 . S
H1419 C1411 0.929 . S
H1420 C1428 0.929 . S
H1421 C1430 0.930 . S
H1422 C1432 0.930 . S
H1423 C1435 0.929 . S
H1424 C1438 0.930 . S
H1425 C1440 0.960 . S
H1426 C1440 0.960 . S
H1427 C1440 0.960 . S
C1428 H1420 0.929 . S
C1428 C1429 1.377 . S
C1428 C1430 1.384 . S
C1429 C1428 1.377 . S
C1429 C1435 1.390 . S
C1430 H1421 0.930 . S
C1430 C1428 1.384 . S
C1430 C1431 1.372 . S
C1431 C1430 1.372 . S
C1431 C1432 1.400 . S
C1431 C1436 1.490 . S
C1432 H1422 0.930 . S
C1432 C1431 1.400 . S
C1432 C1435 1.386 . S
H1433 C1449 0.930 . S
H1434 C1450 0.931 . S
C1435 H1423 0.929 . S
C1435 C1429 1.390 . S
C1435 C1432 1.386 . S
C1436 C1431 1.490 . S
C1436 C1438 1.395 . S
C1436 C1439 1.403 . S
H1437 C1443 0.930 . S
C1438 H1424 0.930 . S
C1438 C1436 1.395 . S
C1438 C1441 1.403 . S
C1439 C1436 1.403 . S
C1439 C1440 1.524 . S
C1439 C1443 1.400 . S
C1440 H1425 0.960 . S
C1440 H1426 0.960 . S
C1440 H1427 0.960 . S
C1440 C1439 1.524 . S
C1441 C1438 1.403 . S
C1441 C1442 1.392 . S
C1441 C1445 1.495 . S
C1442 C1441 1.392 . S
C1442 C1443 1.385 . S
C1442 C1444 1.478 . S
C1443 H1437 0.930 . S
C1443 C1439 1.400 . S
C1443 C1442 1.385 . S
C1444 C1442 1.478 . S
C1444 C1446 1.381 . S
C1444 C1450 1.383 . S
C1445 C1441 1.495 . S
C1445 H1451 0.959 . S
C1445 H1452 0.961 . S
C1445 H1453 0.960 . S
C1446 C1444 1.381 . S
C1446 C1447 1.394 . S
C1446 H1454 0.930 . S
C1447 C1446 1.394 . S
C1447 C1448 1.383 . S
C1447 H1455 0.929 . S
C1448 C1447 1.383 . S
C1448 C1449 1.377 . S
C1449 H1433 0.930 . S
C1449 C1448 1.377 . S
C1449 C1450 1.379 . S
C1450 H1434 0.931 . S
C1450 C1444 1.383 . S
C1450 C1449 1.379 . S
H1451 C1445 0.959 . S
H1452 C1445 0.961 . S
H1453 C1445 0.960 . S
H1454 C1446 0.930 . S
H1455 C1447 0.929 . S
H1456 C1464 0.929 . S
H1457 C1466 0.930 . S
H1458 C1468 0.930 . S
H1459 C1471 0.929 . S
H1460 C1474 0.930 . S
H1461 C1476 0.960 . S
H1462 C1476 0.960 . S
H1463 C1476 0.960 . S
C1464 H1456 0.929 . S
C1464 C1465 1.377 . S
C1464 C1466 1.384 . S
C1465 C1464 1.377 . S
C1465 C1471 1.390 . S
C1466 H1457 0.930 . S
C1466 C1464 1.384 . S
C1466 C1467 1.372 . S
C1467 C1466 1.372 . S
C1467 C1468 1.400 . S
C1467 C1472 1.490 . S
C1468 H1458 0.930 . S
C1468 C1467 1.400 . S
C1468 C1471 1.386 . S
H1469 C1485 0.930 . S
H1470 C1486 0.931 . S
C1471 H1459 0.929 . S
C1471 C1465 1.390 . S
C1471 C1468 1.386 . S
C1472 C1467 1.490 . S
C1472 C1474 1.395 . S
C1472 C1475 1.403 . S
H1473 C1479 0.930 . S
C1474 H1460 0.930 . S
C1474 C1472 1.395 . S
C1474 C1477 1.403 . S
C1475 C1472 1.403 . S
C1475 C1476 1.524 . S
C1475 C1479 1.400 . S
C1476 H1461 0.960 . S
C1476 H1462 0.960 . S
C1476 H1463 0.960 . S
C1476 C1475 1.524 . S
C1477 C1474 1.403 . S
C1477 C1478 1.392 . S
C1477 C1481 1.495 . S
C1478 C1477 1.392 . S
C1478 C1479 1.385 . S
C1478 C1480 1.478 . S
C1479 H1473 0.930 . S
C1479 C1475 1.400 . S
C1479 C1478 1.385 . S
C1480 C1478 1.478 . S
C1480 C1482 1.381 . S
C1480 C1486 1.383 . S
C1481 C1477 1.495 . S
C1481 H1487 0.959 . S
C1481 H1488 0.961 . S
C1481 H1489 0.960 . S
C1482 C1480 1.381 . S
C1482 C1483 1.394 . S
C1482 H1490 0.930 . S
C1483 C1482 1.394 . S
C1483 C1484 1.383 . S
C1483 H1491 0.929 . S
C1484 C1483 1.383 . S
C1484 C1485 1.377 . S
C1485 H1469 0.930 . S
C1485 C1484 1.377 . S
C1485 C1486 1.379 . S
C1486 H1470 0.931 . S
C1486 C1480 1.383 . S
C1486 C1485 1.379 . S
H1487 C1481 0.959 . S
H1488 C1481 0.961 . S
H1489 C1481 0.960 . S
H1490 C1482 0.930 . S
H1491 C1483 0.929 . S
H1492 C1500 0.929 . S
H1493 C1502 0.930 . S
H1494 C1504 0.930 . S
H1495 C1507 0.929 . S
H1496 C1510 0.930 . S
H1497 C1512 0.960 . S
H1498 C1512 0.960 . S
H1499 C1512 0.960 . S
C1500 H1492 0.929 . S
C1500 C1501 1.377 . S
C1500 C1502 1.384 . S
C1501 C1500 1.377 . S
C1501 C1507 1.390 . S
C1502 H1493 0.930 . S
C1502 C1500 1.384 . S
C1502 C1503 1.372 . S
C1503 C1502 1.372 . S
C1503 C1504 1.400 . S
C1503 C1508 1.490 . S
C1504 H1494 0.930 . S
C1504 C1503 1.400 . S
C1504 C1507 1.386 . S
H1505 C1521 0.930 . S
H1506 C1522 0.931 . S
C1507 H1495 0.929 . S
C1507 C1501 1.390 . S
C1507 C1504 1.386 . S
C1508 C1503 1.490 . S
C1508 C1510 1.395 . S
C1508 C1511 1.403 . S
H1509 C1515 0.930 . S
C1510 H1496 0.930 . S
C1510 C1508 1.395 . S
C1510 C1513 1.403 1_545 S
C1511 C1508 1.403 . S
C1511 C1512 1.524 . S
C1511 C1515 1.400 1_545 S
C1512 H1497 0.960 . S
C1512 H1498 0.960 . S
C1512 H1499 0.960 . S
C1512 C1511 1.524 . S
C1513 C1510 1.403 1_565 S
C1513 C1514 1.392 . S
C1513 C1517 1.495 . S
C1514 C1513 1.392 . S
C1514 C1515 1.385 . S
C1514 C1516 1.478 . S
C1515 H1509 0.930 . S
C1515 C1511 1.400 1_565 S
C1515 C1514 1.385 . S
C1516 C1514 1.478 . S
C1516 C1518 1.381 . S
C1516 C1522 1.383 . S
C1517 C1513 1.495 . S
C1517 H1523 0.959 . S
C1517 H1524 0.961 . S
C1517 H1525 0.960 . S
C1518 C1516 1.381 . S
C1518 C1519 1.394 . S
C1518 H1526 0.930 . S
C1519 C1518 1.394 . S
C1519 C1520 1.383 . S
C1519 H1527 0.929 . S
C1520 C1519 1.383 . S
C1520 C1521 1.377 . S
C1521 H1505 0.930 . S
C1521 C1520 1.377 . S
C1521 C1522 1.379 . S
C1522 H1506 0.931 . S
C1522 C1516 1.383 . S
C1522 C1521 1.379 . S
H1523 C1517 0.959 . S
H1524 C1517 0.961 . S
H1525 C1517 0.960 . S
H1526 C1518 0.930 . S
H1527 C1519 0.929 . S
H1528 C1536 0.929 . S
H1529 C1538 0.930 . S
H1530 C1540 0.930 . S
H1531 C1543 0.929 . S
H1532 C1546 0.930 . S
H1533 C1548 0.960 . S
H1534 C1548 0.960 . S
H1535 C1548 0.960 . S
C1536 H1528 0.929 . S
C1536 C1537 1.377 . S
C1536 C1538 1.384 . S
C1537 C1536 1.377 . S
C1537 C1543 1.390 . S
C1538 H1529 0.930 . S
C1538 C1536 1.384 . S
C1538 C1539 1.372 . S
C1539 C1538 1.372 . S
C1539 C1540 1.400 . S
C1539 C1544 1.490 . S
C1540 H1530 0.930 . S
C1540 C1539 1.400 . S
C1540 C1543 1.386 . S
H1541 C1557 0.930 . S
H1542 C1558 0.931 . S
C1543 H1531 0.929 . S
C1543 C1537 1.390 . S
C1543 C1540 1.386 . S
C1544 C1539 1.490 . S
C1544 C1546 1.395 . S
C1544 C1547 1.403 . S
H1545 C1551 0.930 . S
C1546 H1532 0.930 . S
C1546 C1544 1.395 . S
C1546 C1549 1.403 . S
C1547 C1544 1.403 . S
C1547 C1548 1.524 . S
C1547 C1551 1.400 . S
C1548 H1533 0.960 . S
C1548 H1534 0.960 . S
C1548 H1535 0.960 . S
C1548 C1547 1.524 . S
C1549 C1546 1.403 . S
C1549 C1550 1.392 . S
C1549 C1553 1.495 . S
C1550 C1549 1.392 . S
C1550 C1551 1.385 . S
C1550 C1552 1.478 . S
C1551 H1545 0.930 . S
C1551 C1547 1.400 . S
C1551 C1550 1.385 . S
C1552 C1550 1.478 . S
C1552 C1554 1.381 . S
C1552 C1558 1.383 . S
C1553 C1549 1.495 . S
C1553 H1559 0.959 . S
C1553 H1560 0.961 . S
C1553 H1561 0.960 . S
C1554 C1552 1.381 . S
C1554 C1555 1.394 . S
C1554 H1562 0.930 . S
C1555 C1554 1.394 . S
C1555 C1556 1.383 . S
C1555 H1563 0.929 . S
C1556 C1555 1.383 . S
C1556 C1557 1.377 . S
C1557 H1541 0.930 . S
C1557 C1556 1.377 . S
C1557 C1558 1.379 . S
C1558 H1542 0.931 . S
C1558 C1552 1.383 . S
C1558 C1557 1.379 . S
H1559 C1553 0.959 . S
H1560 C1553 0.961 . S
H1561 C1553 0.960 . S
H1562 C1554 0.930 . S
H1563 C1555 0.929 . S
H1564 C1572 0.929 1_556 S
H1565 C1574 0.930 . S
H1566 C1576 0.930 . S
H1567 C1579 0.929 . S
H1568 C1582 0.930 . S
H1569 C1584 0.960 . S
H1570 C1584 0.960 . S
H1571 C1584 0.960 . S
C1572 H1564 0.929 1_554 S
C1572 C1573 1.377 . S
C1572 C1574 1.384 1_554 S
C1573 C1572 1.377 . S
C1573 C1579 1.390 . S
C1574 H1565 0.930 . S
C1574 C1572 1.384 1_556 S
C1574 C1575 1.372 1_556 S
C1575 C1574 1.372 1_554 S
C1575 C1576 1.400 . S
C1575 C1580 1.490 . S
C1576 H1566 0.930 . S
C1576 C1575 1.400 . S
C1576 C1579 1.386 . S
H1577 C1593 0.930 1_554 S
H1578 C1594 0.931 . S
C1579 H1567 0.929 . S
C1579 C1573 1.390 . S
C1579 C1576 1.386 . S
C1580 C1575 1.490 . S
C1580 C1582 1.395 1_554 S
C1580 C1583 1.403 . S
H1581 C1587 0.930 . S
C1582 H1568 0.930 . S
C1582 C1580 1.395 1_556 S
C1582 C1585 1.403 . S
C1583 C1580 1.403 . S
C1583 C1584 1.524 . S
C1583 C1587 1.400 . S
C1584 H1569 0.960 . S
C1584 H1570 0.960 . S
C1584 H1571 0.960 . S
C1584 C1583 1.524 . S
C1585 C1582 1.403 . S
C1585 C1586 1.392 . S
C1585 C1589 1.495 . S
C1586 C1585 1.392 . S
C1586 C1587 1.385 1_556 S
C1586 C1588 1.478 . S
C1587 H1581 0.930 . S
C1587 C1583 1.400 . S
C1587 C1586 1.385 1_554 S
C1588 C1586 1.478 . S
C1588 C1590 1.381 . S
C1588 C1594 1.383 1_556 S
C1589 C1585 1.495 . S
C1589 H1595 0.959 . S
C1589 H1596 0.961 . S
C1589 H1597 0.960 . S
C1590 C1588 1.381 . S
C1590 C1591 1.394 . S
C1590 H1598 0.930 . S
C1591 C1590 1.394 . S
C1591 C1592 1.383 . S
C1591 H1599 0.929 . S
C1592 C1591 1.383 . S
C1592 C1593 1.377 . S
C1593 H1577 0.930 1_556 S
C1593 C1592 1.377 . S
C1593 C1594 1.379 1_556 S
C1594 H1578 0.931 . S
C1594 C1588 1.383 1_554 S
C1594 C1593 1.379 1_554 S
H1595 C1589 0.959 . S
H1596 C1589 0.961 . S
H1597 C1589 0.960 . S
H1598 C1590 0.930 . S
H1599 C1591 0.929 . S
H1600 C1608 0.929 . S
H1601 C1610 0.930 . S
H1602 C1612 0.930 . S
H1603 C1615 0.929 . S
H1604 C1618 0.930 . S
H1605 C1620 0.960 . S
H1606 C1620 0.960 . S
H1607 C1620 0.960 . S
C1608 H1600 0.929 . S
C1608 C1609 1.377 . S
C1608 C1610 1.384 . S
C1609 C1608 1.377 . S
C1609 C1615 1.390 . S
C1610 H1601 0.930 . S
C1610 C1608 1.384 . S
C1610 C1611 1.372 . S
C1611 C1610 1.372 . S
C1611 C1612 1.400 . S
C1611 C1616 1.490 . S
C1612 H1602 0.930 . S
C1612 C1611 1.400 . S
C1612 C1615 1.386 . S
H1613 C1629 0.930 . S
H1614 C1630 0.931 . S
C1615 H1603 0.929 . S
C1615 C1609 1.390 . S
C1615 C1612 1.386 . S
C1616 C1611 1.490 . S
C1616 C1618 1.395 . S
C1616 C1619 1.403 . S
H1617 C1623 0.930 . S
C1618 H1604 0.930 . S
C1618 C1616 1.395 . S
C1618 C1621 1.403 . S
C1619 C1616 1.403 . S
C1619 C1620 1.524 . S
C1619 C1623 1.400 . S
C1620 H1605 0.960 . S
C1620 H1606 0.960 . S
C1620 H1607 0.960 . S
C1620 C1619 1.524 . S
C1621 C1618 1.403 . S
C1621 C1622 1.392 . S
C1621 C1625 1.495 . S
C1622 C1621 1.392 . S
C1622 C1623 1.385 . S
C1622 C1624 1.478 . S
C1623 H1617 0.930 . S
C1623 C1619 1.400 . S
C1623 C1622 1.385 . S
C1624 C1622 1.478 . S
C1624 C1626 1.381 . S
C1624 C1630 1.383 . S
C1625 C1621 1.495 . S
C1625 H1631 0.959 . S
C1625 H1632 0.961 . S
C1625 H1633 0.960 . S
C1626 C1624 1.381 . S
C1626 C1627 1.394 . S
C1626 H1634 0.930 . S
C1627 C1626 1.394 . S
C1627 C1628 1.383 . S
C1627 H1635 0.929 . S
C1628 C1627 1.383 . S
C1628 C1629 1.377 . S
C1629 H1613 0.930 . S
C1629 C1628 1.377 . S
C1629 C1630 1.379 . S
C1630 H1614 0.931 . S
C1630 C1624 1.383 . S
C1630 C1629 1.379 . S
H1631 C1625 0.959 . S
H1632 C1625 0.961 . S
H1633 C1625 0.960 . S
H1634 C1626 0.930 . S
H1635 C1627 0.929 . S
H1636 C1644 0.929 . S
H1637 C1646 0.930 . S
H1638 C1648 0.930 1_554 S
H1639 C1651 0.929 1_554 S
H1640 C1654 0.930 . S
H1641 C1656 0.960 . S
H1642 C1656 0.960 . S
H1643 C1656 0.960 . S
C1644 H1636 0.929 . S
C1644 C1645 1.377 . S
C1644 C1646 1.384 . S
C1645 C1644 1.377 . S
C1645 C1651 1.390 . S
C1646 H1637 0.930 . S
C1646 C1644 1.384 . S
C1646 C1647 1.372 . S
C1647 C1646 1.372 . S
C1647 C1648 1.400 . S
C1647 C1652 1.490 . S
C1648 H1638 0.930 1_556 S
C1648 C1647 1.400 . S
C1648 C1651 1.386 . S
H1649 C1665 0.930 . S
H1650 C1666 0.931 . S
C1651 H1639 0.929 1_556 S
C1651 C1645 1.390 . S
C1651 C1648 1.386 . S
C1652 C1647 1.490 . S
C1652 C1654 1.395 . S
C1652 C1655 1.403 . S
H1653 C1659 0.930 . S
C1654 H1640 0.930 . S
C1654 C1652 1.395 . S
C1654 C1657 1.403 . S
C1655 C1652 1.403 . S
C1655 C1656 1.524 1_556 S
C1655 C1659 1.400 . S
C1656 H1641 0.960 . S
C1656 H1642 0.960 . S
C1656 H1643 0.960 . S
C1656 C1655 1.524 1_554 S
C1657 C1654 1.403 . S
C1657 C1658 1.392 . S
C1657 C1661 1.495 . S
C1658 C1657 1.392 . S
C1658 C1659 1.385 . S
C1658 C1660 1.478 . S
C1659 H1653 0.930 . S
C1659 C1655 1.400 . S
C1659 C1658 1.385 . S
C1660 C1658 1.478 . S
C1660 C1662 1.381 . S
C1660 C1666 1.383 . S
C1661 C1657 1.495 . S
C1661 H1667 0.959 . S
C1661 H1668 0.961 . S
C1661 H1669 0.960 . S
C1662 C1660 1.381 . S
C1662 C1663 1.394 . S
C1662 H1670 0.930 . S
C1663 C1662 1.394 . S
C1663 C1664 1.383 . S
C1663 H1671 0.929 . S
C1664 C1663 1.383 . S
C1664 C1665 1.377 . S
C1665 H1649 0.930 . S
C1665 C1664 1.377 . S
C1665 C1666 1.379 . S
C1666 H1650 0.931 . S
C1666 C1660 1.383 . S
C1666 C1665 1.379 . S
H1667 C1661 0.959 . S
H1668 C1661 0.961 . S
H1669 C1661 0.960 . S
H1670 C1662 0.930 . S
H1671 C1663 0.929 . S
H1672 C1680 0.929 . S
H1673 C1682 0.930 . S
H1674 C1684 0.930 . S
H1675 C1687 0.929 . S
H1676 C1690 0.930 . S
H1677 C1692 0.960 . S
H1678 C1692 0.960 . S
H1679 C1692 0.960 . S
C1680 H1672 0.929 . S
C1680 C1681 1.377 . S
C1680 C1682 1.384 . S
C1681 C1680 1.377 . S
C1681 C1687 1.390 . S
C1682 H1673 0.930 . S
C1682 C1680 1.384 . S
C1682 C1683 1.372 . S
C1683 C1682 1.372 . S
C1683 C1684 1.400 . S
C1683 C1688 1.490 . S
C1684 H1674 0.930 . S
C1684 C1683 1.400 . S
C1684 C1687 1.386 . S
H1685 C1701 0.930 . S
H1686 C1702 0.931 . S
C1687 H1675 0.929 . S
C1687 C1681 1.390 . S
C1687 C1684 1.386 . S
C1688 C1683 1.490 . S
C1688 C1690 1.395 . S
C1688 C1691 1.403 . S
H1689 C1695 0.930 . S
C1690 H1676 0.930 . S
C1690 C1688 1.395 . S
C1690 C1693 1.403 . S
C1691 C1688 1.403 . S
C1691 C1692 1.524 . S
C1691 C1695 1.400 . S
C1692 H1677 0.960 . S
C1692 H1678 0.960 . S
C1692 H1679 0.960 . S
C1692 C1691 1.524 . S
C1693 C1690 1.403 . S
C1693 C1694 1.392 . S
C1693 C1697 1.495 . S
C1694 C1693 1.392 . S
C1694 C1695 1.385 . S
C1694 C1696 1.478 . S
C1695 H1689 0.930 . S
C1695 C1691 1.400 . S
C1695 C1694 1.385 . S
C1696 C1694 1.478 . S
C1696 C1698 1.381 . S
C1696 C1702 1.383 . S
C1697 C1693 1.495 . S
C1697 H1703 0.959 . S
C1697 H1704 0.961 . S
C1697 H1705 0.960 . S
C1698 C1696 1.381 . S
C1698 C1699 1.394 . S
C1698 H1706 0.930 . S
C1699 C1698 1.394 . S
C1699 C1700 1.383 . S
C1699 H1707 0.929 . S
C1700 C1699 1.383 . S
C1700 C1701 1.377 . S
C1701 H1685 0.930 . S
C1701 C1700 1.377 . S
C1701 C1702 1.379 . S
C1702 H1686 0.931 . S
C1702 C1696 1.383 . S
C1702 C1701 1.379 . S
H1703 C1697 0.959 . S
H1704 C1697 0.961 . S
H1705 C1697 0.960 . S
H1706 C1698 0.930 . S
H1707 C1699 0.929 . S
H1708 C1716 0.929 . S
H1709 C1718 0.930 . S
H1710 C1720 0.930 . S
H1711 C1723 0.929 . S
H1712 C1726 0.930 . S
H1713 C1728 0.960 . S
H1714 C1728 0.960 . S
H1715 C1728 0.960 . S
C1716 H1708 0.929 . S
C1716 C1717 1.377 . S
C1716 C1718 1.384 . S
C1717 C1716 1.377 . S
C1717 C1723 1.390 . S
C1718 H1709 0.930 . S
C1718 C1716 1.384 . S
C1718 C1719 1.372 . S
C1719 C1718 1.372 . S
C1719 C1720 1.400 . S
C1719 C1724 1.490 . S
C1720 H1710 0.930 . S
C1720 C1719 1.400 . S
C1720 C1723 1.386 . S
H1721 C1737 0.930 . S
H1722 C1738 0.931 . S
C1723 H1711 0.929 . S
C1723 C1717 1.390 . S
C1723 C1720 1.386 . S
C1724 C1719 1.490 . S
C1724 C1726 1.395 . S
C1724 C1727 1.403 . S
H1725 C1731 0.930 . S
C1726 H1712 0.930 . S
C1726 C1724 1.395 . S
C1726 C1729 1.403 . S
C1727 C1724 1.403 . S
C1727 C1728 1.524 . S
C1727 C1731 1.400 . S
C1728 H1713 0.960 . S
C1728 H1714 0.960 . S
C1728 H1715 0.960 . S
C1728 C1727 1.524 . S
C1729 C1726 1.403 . S
C1729 C1730 1.392 . S
C1729 C1733 1.495 1_554 S
C1730 C1729 1.392 . S
C1730 C1731 1.385 . S
C1730 C1732 1.478 . S
C1731 H1725 0.930 . S
C1731 C1727 1.400 . S
C1731 C1730 1.385 . S
C1732 C1730 1.478 . S
C1732 C1734 1.381 . S
C1732 C1738 1.383 . S
C1733 C1729 1.495 1_556 S
C1733 H1739 0.959 . S
C1733 H1740 0.961 . S
C1733 H1741 0.960 1_556 S
C1734 C1732 1.381 . S
C1734 C1735 1.394 . S
C1734 H1742 0.930 . S
C1735 C1734 1.394 . S
C1735 C1736 1.383 . S
C1735 H1743 0.929 . S
C1736 C1735 1.383 . S
C1736 C1737 1.377 . S
C1737 H1721 0.930 . S
C1737 C1736 1.377 . S
C1737 C1738 1.379 . S
C1738 H1722 0.931 . S
C1738 C1732 1.383 . S
C1738 C1737 1.379 . S
H1739 C1733 0.959 . S
H1740 C1733 0.961 . S
H1741 C1733 0.960 1_554 S
H1742 C1734 0.930 . S
H1743 C1735 0.929 . S
H1744 C1752 0.929 . S
H1745 C1754 0.930 . S
H1746 C1756 0.930 . S
H1747 C1759 0.929 . S
H1748 C1762 0.930 . S
H1749 C1764 0.960 . S
H1750 C1764 0.960 . S
H1751 C1764 0.960 . S
C1752 H1744 0.929 . S
C1752 C1753 1.377 . S
C1752 C1754 1.384 . S
C1753 C1752 1.377 . S
C1753 C1759 1.390 . S
C1754 H1745 0.930 . S
C1754 C1752 1.384 . S
C1754 C1755 1.372 . S
C1755 C1754 1.372 . S
C1755 C1756 1.400 . S
C1755 C1760 1.490 . S
C1756 H1746 0.930 . S
C1756 C1755 1.400 . S
C1756 C1759 1.386 . S
H1757 C1773 0.930 . S
H1758 C1774 0.931 . S
C1759 H1747 0.929 . S
C1759 C1753 1.390 . S
C1759 C1756 1.386 . S
C1760 C1755 1.490 . S
C1760 C1762 1.395 . S
C1760 C1763 1.403 . S
H1761 C1767 0.930 . S
C1762 H1748 0.930 . S
C1762 C1760 1.395 . S
C1762 C1765 1.403 . S
C1763 C1760 1.403 . S
C1763 C1764 1.524 . S
C1763 C1767 1.400 . S
C1764 H1749 0.960 . S
C1764 H1750 0.960 . S
C1764 H1751 0.960 . S
C1764 C1763 1.524 . S
C1765 C1762 1.403 . S
C1765 C1766 1.392 . S
C1765 C1769 1.495 . S
C1766 C1765 1.392 . S
C1766 C1767 1.385 . S
C1766 C1768 1.478 . S
C1767 H1761 0.930 . S
C1767 C1763 1.400 . S
C1767 C1766 1.385 . S
C1768 C1766 1.478 . S
C1768 C1770 1.381 . S
C1768 C1774 1.383 . S
C1769 C1765 1.495 . S
C1769 H1775 0.959 . S
C1769 H1776 0.961 . S
C1769 H1777 0.960 . S
C1770 C1768 1.381 . S
C1770 C1771 1.394 . S
C1770 H1778 0.930 . S
C1771 C1770 1.394 . S
C1771 C1772 1.383 . S
C1771 H1779 0.929 . S
C1772 C1771 1.383 . S
C1772 C1773 1.377 . S
C1773 H1757 0.930 . S
C1773 C1772 1.377 . S
C1773 C1774 1.379 . S
C1774 H1758 0.931 . S
C1774 C1768 1.383 . S
C1774 C1773 1.379 . S
H1775 C1769 0.959 . S
H1776 C1769 0.961 . S
H1777 C1769 0.960 . S
H1778 C1770 0.930 . S
H1779 C1771 0.929 . S
H1780 C1788 0.929 . S
H1781 C1790 0.930 . S
H1782 C1792 0.930 . S
H1783 C1795 0.929 . S
H1784 C1798 0.930 . S
H1785 C1800 0.960 . S
H1786 C1800 0.960 . S
H1787 C1800 0.960 . S
C1788 H1780 0.929 . S
C1788 C1789 1.377 . S
C1788 C1790 1.384 . S
C1789 C1788 1.377 . S
C1789 C1795 1.390 . S
C1790 H1781 0.930 . S
C1790 C1788 1.384 . S
C1790 C1791 1.372 . S
C1791 C1790 1.372 . S
C1791 C1792 1.400 . S
C1791 C1796 1.490 . S
C1792 H1782 0.930 . S
C1792 C1791 1.400 . S
C1792 C1795 1.386 . S
H1793 C1809 0.930 . S
H1794 C1810 0.931 . S
C1795 H1783 0.929 . S
C1795 C1789 1.390 . S
C1795 C1792 1.386 . S
C1796 C1791 1.490 . S
C1796 C1798 1.395 . S
C1796 C1799 1.403 . S
H1797 C1803 0.930 . S
C1798 H1784 0.930 . S
C1798 C1796 1.395 . S
C1798 C1801 1.403 . S
C1799 C1796 1.403 . S
C1799 C1800 1.524 . S
C1799 C1803 1.400 . S
C1800 H1785 0.960 . S
C1800 H1786 0.960 . S
C1800 H1787 0.960 . S
C1800 C1799 1.524 . S
C1801 C1798 1.403 . S
C1801 C1802 1.392 . S
C1801 C1805 1.495 . S
C1802 C1801 1.392 . S
C1802 C1803 1.385 . S
C1802 C1804 1.478 . S
C1803 H1797 0.930 . S
C1803 C1799 1.400 . S
C1803 C1802 1.385 . S
C1804 C1802 1.478 . S
C1804 C1806 1.381 . S
C1804 C1810 1.383 . S
C1805 C1801 1.495 . S
C1805 H1811 0.959 . S
C1805 H1812 0.961 . S
C1805 H1813 0.960 . S
C1806 C1804 1.381 . S
C1806 C1807 1.394 . S
C1806 H1814 0.930 . S
C1807 C1806 1.394 . S
C1807 C1808 1.383 . S
C1807 H1815 0.929 . S
C1808 C1807 1.383 . S
C1808 C1809 1.377 . S
C1809 H1793 0.930 . S
C1809 C1808 1.377 . S
C1809 C1810 1.379 . S
C1810 H1794 0.931 . S
C1810 C1804 1.383 . S
C1810 C1809 1.379 . S
H1811 C1805 0.959 . S
H1812 C1805 0.961 . S
H1813 C1805 0.960 . S
H1814 C1806 0.930 . S
H1815 C1807 0.929 . S
H1816 C1824 0.929 . S
H1817 C1826 0.930 . S
H1818 C1828 0.930 . S
H1819 C1831 0.929 . S
H1820 C1834 0.930 . S
H1821 C1836 0.960 . S
H1822 C1836 0.960 . S
H1823 C1836 0.960 . S
C1824 H1816 0.929 . S
C1824 C1825 1.377 . S
C1824 C1826 1.384 . S
C1825 C1824 1.377 . S
C1825 C1831 1.390 . S
C1826 H1817 0.930 . S
C1826 C1824 1.384 . S
C1826 C1827 1.372 . S
C1827 C1826 1.372 . S
C1827 C1828 1.400 . S
C1827 C1832 1.490 . S
C1828 H1818 0.930 . S
C1828 C1827 1.400 . S
C1828 C1831 1.386 . S
H1829 C1845 0.930 . S
H1830 C1846 0.931 . S
C1831 H1819 0.929 . S
C1831 C1825 1.390 . S
C1831 C1828 1.386 . S
C1832 C1827 1.490 . S
C1832 C1834 1.395 . S
C1832 C1835 1.403 . S
H1833 C1839 0.930 . S
C1834 H1820 0.930 . S
C1834 C1832 1.395 . S
C1834 C1837 1.403 . S
C1835 C1832 1.403 . S
C1835 C1836 1.524 . S
C1835 C1839 1.400 . S
C1836 H1821 0.960 . S
C1836 H1822 0.960 . S
C1836 H1823 0.960 . S
C1836 C1835 1.524 . S
C1837 C1834 1.403 . S
C1837 C1838 1.392 . S
C1837 C1841 1.495 . S
C1838 C1837 1.392 . S
C1838 C1839 1.385 . S
C1838 C1840 1.478 . S
C1839 H1833 0.930 . S
C1839 C1835 1.400 . S
C1839 C1838 1.385 . S
C1840 C1838 1.478 . S
C1840 C1842 1.381 . S
C1840 C1846 1.383 . S
C1841 C1837 1.495 . S
C1841 H1847 0.959 . S
C1841 H1848 0.961 . S
C1841 H1849 0.960 . S
C1842 C1840 1.381 . S
C1842 C1843 1.394 . S
C1842 H1850 0.930 . S
C1843 C1842 1.394 . S
C1843 C1844 1.383 . S
C1843 H1851 0.929 . S
C1844 C1843 1.383 . S
C1844 C1845 1.377 . S
C1845 H1829 0.930 . S
C1845 C1844 1.377 . S
C1845 C1846 1.379 . S
C1846 H1830 0.931 . S
C1846 C1840 1.383 . S
C1846 C1845 1.379 . S
H1847 C1841 0.959 . S
H1848 C1841 0.961 . S
H1849 C1841 0.960 . S
H1850 C1842 0.930 . S
H1851 C1843 0.929 . S
H1852 C1860 0.929 . S
H1853 C1862 0.930 . S
H1854 C1864 0.930 . S
H1855 C1867 0.929 . S
H1856 C1870 0.930 . S
H1857 C1872 0.960 . S
H1858 C1872 0.960 . S
H1859 C1872 0.960 . S
C1860 H1852 0.929 . S
C1860 C1861 1.377 . S
C1860 C1862 1.384 . S
C1861 C1860 1.377 . S
C1861 C1867 1.390 . S
C1862 H1853 0.930 . S
C1862 C1860 1.384 . S
C1862 C1863 1.372 . S
C1863 C1862 1.372 . S
C1863 C1864 1.400 . S
C1863 C1868 1.490 . S
C1864 H1854 0.930 . S
C1864 C1863 1.400 . S
C1864 C1867 1.386 . S
H1865 C1881 0.930 . S
H1866 C1882 0.931 . S
C1867 H1855 0.929 . S
C1867 C1861 1.390 . S
C1867 C1864 1.386 . S
C1868 C1863 1.490 . S
C1868 C1870 1.395 . S
C1868 C1871 1.403 . S
H1869 C1875 0.930 . S
C1870 H1856 0.930 . S
C1870 C1868 1.395 . S
C1870 C1873 1.403 . S
C1871 C1868 1.403 . S
C1871 C1872 1.524 . S
C1871 C1875 1.400 . S
C1872 H1857 0.960 . S
C1872 H1858 0.960 . S
C1872 H1859 0.960 . S
C1872 C1871 1.524 . S
C1873 C1870 1.403 . S
C1873 C1874 1.392 . S
C1873 C1877 1.495 . S
C1874 C1873 1.392 . S
C1874 C1875 1.385 . S
C1874 C1876 1.478 . S
C1875 H1869 0.930 . S
C1875 C1871 1.400 . S
C1875 C1874 1.385 . S
C1876 C1874 1.478 . S
C1876 C1878 1.381 . S
C1876 C1882 1.383 . S
C1877 C1873 1.495 . S
C1877 H1883 0.959 . S
C1877 H1884 0.961 . S
C1877 H1885 0.960 . S
C1878 C1876 1.381 . S
C1878 C1879 1.394 . S
C1878 H1886 0.930 . S
C1879 C1878 1.394 . S
C1879 C1880 1.383 . S
C1879 H1887 0.929 . S
C1880 C1879 1.383 . S
C1880 C1881 1.377 . S
C1881 H1865 0.930 . S
C1881 C1880 1.377 . S
C1881 C1882 1.379 . S
C1882 H1866 0.931 . S
C1882 C1876 1.383 . S
C1882 C1881 1.379 . S
H1883 C1877 0.959 . S
H1884 C1877 0.961 . S
H1885 C1877 0.960 . S
H1886 C1878 0.930 . S
H1887 C1879 0.929 . S
H1888 C1896 0.929 . S
H1889 C1898 0.930 . S
H1890 C1900 0.930 . S
H1891 C1903 0.929 . S
H1892 C1906 0.930 . S
H1893 C1908 0.960 . S
H1894 C1908 0.960 . S
H1895 C1908 0.960 . S
C1896 H1888 0.929 . S
C1896 C1897 1.377 . S
C1896 C1898 1.384 . S
C1897 C1896 1.377 . S
C1897 C1903 1.390 . S
C1898 H1889 0.930 . S
C1898 C1896 1.384 . S
C1898 C1899 1.372 . S
C1899 C1898 1.372 . S
C1899 C1900 1.400 . S
C1899 C1904 1.490 . S
C1900 H1890 0.930 . S
C1900 C1899 1.400 . S
C1900 C1903 1.386 . S
H1901 C1917 0.930 . S
H1902 C1918 0.931 . S
C1903 H1891 0.929 . S
C1903 C1897 1.390 . S
C1903 C1900 1.386 . S
C1904 C1899 1.490 . S
C1904 C1906 1.395 . S
C1904 C1907 1.403 . S
H1905 C1911 0.930 . S
C1906 H1892 0.930 . S
C1906 C1904 1.395 . S
C1906 C1909 1.403 . S
C1907 C1904 1.403 . S
C1907 C1908 1.524 . S
C1907 C1911 1.400 . S
C1908 H1893 0.960 . S
C1908 H1894 0.960 . S
C1908 H1895 0.960 . S
C1908 C1907 1.524 . S
C1909 C1906 1.403 . S
C1909 C1910 1.392 . S
C1909 C1913 1.495 . S
C1910 C1909 1.392 . S
C1910 C1911 1.385 . S
C1910 C1912 1.478 . S
C1911 H1905 0.930 . S
C1911 C1907 1.400 . S
C1911 C1910 1.385 . S
C1912 C1910 1.478 . S
C1912 C1914 1.381 . S
C1912 C1918 1.383 . S
C1913 C1909 1.495 . S
C1913 H1919 0.959 . S
C1913 H1920 0.961 . S
C1913 H1921 0.960 . S
C1914 C1912 1.381 . S
C1914 C1915 1.394 . S
C1914 H1922 0.930 . S
C1915 C1914 1.394 . S
C1915 C1916 1.383 . S
C1915 H1923 0.929 . S
C1916 C1915 1.383 . S
C1916 C1917 1.377 . S
C1917 H1901 0.930 . S
C1917 C1916 1.377 . S
C1917 C1918 1.379 . S
C1918 H1902 0.931 . S
C1918 C1912 1.383 . S
C1918 C1917 1.379 . S
H1919 C1913 0.959 . S
H1920 C1913 0.961 . S
H1921 C1913 0.960 . S
H1922 C1914 0.930 . S
H1923 C1915 0.929 . S
H1924 C1932 0.929 . S
H1925 C1934 0.930 . S
H1926 C1936 0.930 . S
H1927 C1939 0.929 . S
H1928 C1942 0.930 . S
H1929 C1944 0.960 . S
H1930 C1944 0.960 . S
H1931 C1944 0.960 . S
C1932 H1924 0.929 . S
C1932 C1933 1.377 . S
C1932 C1934 1.384 . S
C1933 C1932 1.377 . S
C1933 C1939 1.390 . S
C1934 H1925 0.930 . S
C1934 C1932 1.384 . S
C1934 C1935 1.372 . S
C1935 C1934 1.372 . S
C1935 C1936 1.400 . S
C1935 C1940 1.490 . S
C1936 H1926 0.930 . S
C1936 C1935 1.400 . S
C1936 C1939 1.386 . S
H1937 C1953 0.930 . S
H1938 C1954 0.931 . S
C1939 H1927 0.929 . S
C1939 C1933 1.390 . S
C1939 C1936 1.386 . S
C1940 C1935 1.490 . S
C1940 C1942 1.395 . S
C1940 C1943 1.403 . S
H1941 C1947 0.930 . S
C1942 H1928 0.930 . S
C1942 C1940 1.395 . S
C1942 C1945 1.403 . S
C1943 C1940 1.403 . S
C1943 C1944 1.524 . S
C1943 C1947 1.400 . S
C1944 H1929 0.960 . S
C1944 H1930 0.960 . S
C1944 H1931 0.960 . S
C1944 C1943 1.524 . S
C1945 C1942 1.403 . S
C1945 C1946 1.392 . S
C1945 C1949 1.495 . S
C1946 C1945 1.392 . S
C1946 C1947 1.385 . S
C1946 C1948 1.478 . S
C1947 H1941 0.930 . S
C1947 C1943 1.400 . S
C1947 C1946 1.385 . S
C1948 C1946 1.478 . S
C1948 C1950 1.381 . S
C1948 C1954 1.383 . S
C1949 C1945 1.495 . S
C1949 H1955 0.959 . S
C1949 H1956 0.961 . S
C1949 H1957 0.960 . S
C1950 C1948 1.381 . S
C1950 C1951 1.394 . S
C1950 H1958 0.930 . S
C1951 C1950 1.394 . S
C1951 C1952 1.383 . S
C1951 H1959 0.929 . S
C1952 C1951 1.383 . S
C1952 C1953 1.377 . S
C1953 H1937 0.930 . S
C1953 C1952 1.377 . S
C1953 C1954 1.379 . S
C1954 H1938 0.931 . S
C1954 C1948 1.383 . S
C1954 C1953 1.379 . S
H1955 C1949 0.959 . S
H1956 C1949 0.961 . S
H1957 C1949 0.960 . S
H1958 C1950 0.930 . S
H1959 C1951 0.929 . S
H1960 C1968 0.929 . S
H1961 C1970 0.930 . S
H1962 C1972 0.930 . S
H1963 C1975 0.929 . S
H1964 C1978 0.930 . S
H1965 C1980 0.960 . S
H1966 C1980 0.960 . S
H1967 C1980 0.960 . S
C1968 H1960 0.929 . S
C1968 C1969 1.377 . S
C1968 C1970 1.384 . S
C1969 C1968 1.377 . S
C1969 C1975 1.390 . S
C1970 H1961 0.930 . S
C1970 C1968 1.384 . S
C1970 C1971 1.372 . S
C1971 C1970 1.372 . S
C1971 C1972 1.400 . S
C1971 C1976 1.490 . S
C1972 H1962 0.930 . S
C1972 C1971 1.400 . S
C1972 C1975 1.386 . S
H1973 C1989 0.930 . S
H1974 C1990 0.931 . S
C1975 H1963 0.929 . S
C1975 C1969 1.390 . S
C1975 C1972 1.386 . S
C1976 C1971 1.490 . S
C1976 C1978 1.395 . S
C1976 C1979 1.403 . S
H1977 C1983 0.930 . S
C1978 H1964 0.930 . S
C1978 C1976 1.395 . S
C1978 C1981 1.403 . S
C1979 C1976 1.403 . S
C1979 C1980 1.524 . S
C1979 C1983 1.400 . S
C1980 H1965 0.960 . S
C1980 H1966 0.960 . S
C1980 H1967 0.960 . S
C1980 C1979 1.524 . S
C1981 C1978 1.403 . S
C1981 C1982 1.392 . S
C1981 C1985 1.495 . S
C1982 C1981 1.392 . S
C1982 C1983 1.385 . S
C1982 C1984 1.478 . S
C1983 H1977 0.930 . S
C1983 C1979 1.400 . S
C1983 C1982 1.385 . S
C1984 C1982 1.478 . S
C1984 C1986 1.381 . S
C1984 C1990 1.383 . S
C1985 C1981 1.495 . S
C1985 H1991 0.959 . S
C1985 H1992 0.961 . S
C1985 H1993 0.960 . S
C1986 C1984 1.381 . S
C1986 C1987 1.394 . S
C1986 H1994 0.930 . S
C1987 C1986 1.394 . S
C1987 C1988 1.383 . S
C1987 H1995 0.929 . S
C1988 C1987 1.383 . S
C1988 C1989 1.377 . S
C1989 H1973 0.930 . S
C1989 C1988 1.377 . S
C1989 C1990 1.379 . S
C1990 H1974 0.931 . S
C1990 C1984 1.383 . S
C1990 C1989 1.379 . S
H1991 C1985 0.959 . S
H1992 C1985 0.961 . S
H1993 C1985 0.960 . S
H1994 C1986 0.930 . S
H1995 C1987 0.929 . S
H1996 C2004 0.929 . S
H1997 C2006 0.930 . S
H1998 C2008 0.930 . S
H1999 C2011 0.929 . S
H2000 C2014 0.930 . S
H2001 C2016 0.960 . S
H2002 C2016 0.960 . S
H2003 C2016 0.960 . S
C2004 H1996 0.929 . S
C2004 C2005 1.377 . S
C2004 C2006 1.384 . S
C2005 C2004 1.377 . S
C2005 C2011 1.390 . S
C2006 H1997 0.930 . S
C2006 C2004 1.384 . S
C2006 C2007 1.372 . S
C2007 C2006 1.372 . S
C2007 C2008 1.400 . S
C2007 C2012 1.490 . S
C2008 H1998 0.930 . S
C2008 C2007 1.400 . S
C2008 C2011 1.386 . S
H2009 C2025 0.930 . S
H2010 C2026 0.931 . S
C2011 H1999 0.929 . S
C2011 C2005 1.390 . S
C2011 C2008 1.386 . S
C2012 C2007 1.490 . S
C2012 C2014 1.395 . S
C2012 C2015 1.403 . S
H2013 C2019 0.930 . S
C2014 H2000 0.930 . S
C2014 C2012 1.395 . S
C2014 C2017 1.403 . S
C2015 C2012 1.403 . S
C2015 C2016 1.524 . S
C2015 C2019 1.400 . S
C2016 H2001 0.960 . S
C2016 H2002 0.960 . S
C2016 H2003 0.960 . S
C2016 C2015 1.524 . S
C2017 C2014 1.403 . S
C2017 C2018 1.392 . S
C2017 C2021 1.495 . S
C2018 C2017 1.392 . S
C2018 C2019 1.385 . S
C2018 C2020 1.478 . S
C2019 H2013 0.930 . S
C2019 C2015 1.400 . S
C2019 C2018 1.385 . S
C2020 C2018 1.478 . S
C2020 C2022 1.381 . S
C2020 C2026 1.383 . S
C2021 C2017 1.495 . S
C2021 H2027 0.959 . S
C2021 H2028 0.961 . S
C2021 H2029 0.960 . S
C2022 C2020 1.381 . S
C2022 C2023 1.394 . S
C2022 H2030 0.930 . S
C2023 C2022 1.394 . S
C2023 C2024 1.383 . S
C2023 H2031 0.929 . S
C2024 C2023 1.383 . S
C2024 C2025 1.377 . S
C2025 H2009 0.930 . S
C2025 C2024 1.377 . S
C2025 C2026 1.379 . S
C2026 H2010 0.931 . S
C2026 C2020 1.383 . S
C2026 C2025 1.379 . S
H2027 C2021 0.959 . S
H2028 C2021 0.961 . S
H2029 C2021 0.960 . S
H2030 C2022 0.930 . S
H2031 C2023 0.929 . S
H2032 C2040 0.929 . S
H2033 C2042 0.930 . S
H2034 C2044 0.930 . S
H2035 C2047 0.929 . S
H2036 C2050 0.930 . S
H2037 C2052 0.960 . S
H2038 C2052 0.960 . S
H2039 C2052 0.960 . S
C2040 H2032 0.929 . S
C2040 C2041 1.377 . S
C2040 C2042 1.384 . S
C2041 C2040 1.377 . S
C2041 C2047 1.390 . S
C2042 H2033 0.930 . S
C2042 C2040 1.384 . S
C2042 C2043 1.372 . S
C2043 C2042 1.372 . S
C2043 C2044 1.400 . S
C2043 C2048 1.490 . S
C2044 H2034 0.930 . S
C2044 C2043 1.400 . S
C2044 C2047 1.386 . S
H2045 C2061 0.930 . S
H2046 C2062 0.931 . S
C2047 H2035 0.929 . S
C2047 C2041 1.390 . S
C2047 C2044 1.386 . S
C2048 C2043 1.490 . S
C2048 C2050 1.395 . S
C2048 C2051 1.403 . S
H2049 C2055 0.930 . S
C2050 H2036 0.930 . S
C2050 C2048 1.395 . S
C2050 C2053 1.403 . S
C2051 C2048 1.403 . S
C2051 C2052 1.524 . S
C2051 C2055 1.400 . S
C2052 H2037 0.960 . S
C2052 H2038 0.960 . S
C2052 H2039 0.960 . S
C2052 C2051 1.524 . S
C2053 C2050 1.403 . S
C2053 C2054 1.392 . S
C2053 C2057 1.495 . S
C2054 C2053 1.392 . S
C2054 C2055 1.385 . S
C2054 C2056 1.478 . S
C2055 H2049 0.930 . S
C2055 C2051 1.400 . S
C2055 C2054 1.385 . S
C2056 C2054 1.478 . S
C2056 C2058 1.381 . S
C2056 C2062 1.383 . S
C2057 C2053 1.495 . S
C2057 H2063 0.959 . S
C2057 H2064 0.961 . S
C2057 H2065 0.960 . S
C2058 C2056 1.381 . S
C2058 C2059 1.394 . S
C2058 H2066 0.930 . S
C2059 C2058 1.394 . S
C2059 C2060 1.383 . S
C2059 H2067 0.929 . S
C2060 C2059 1.383 . S
C2060 C2061 1.377 . S
C2061 H2045 0.930 . S
C2061 C2060 1.377 . S
C2061 C2062 1.379 . S
C2062 H2046 0.931 . S
C2062 C2056 1.383 . S
C2062 C2061 1.379 . S
H2063 C2057 0.959 . S
H2064 C2057 0.961 . S
H2065 C2057 0.960 . S
H2066 C2058 0.930 . S
H2067 C2059 0.929 . S
H2068 C2076 0.929 . S
H2069 C2078 0.930 . S
H2070 C2080 0.930 . S
H2071 C2083 0.929 . S
H2072 C2086 0.930 . S
H2073 C2088 0.960 . S
H2074 C2088 0.960 . S
H2075 C2088 0.960 . S
C2076 H2068 0.929 . S
C2076 C2077 1.377 . S
C2076 C2078 1.384 . S
C2077 C2076 1.377 . S
C2077 C2083 1.390 . S
C2078 H2069 0.930 . S
C2078 C2076 1.384 . S
C2078 C2079 1.372 . S
C2079 C2078 1.372 . S
C2079 C2080 1.400 . S
C2079 C2084 1.490 . S
C2080 H2070 0.930 . S
C2080 C2079 1.400 . S
C2080 C2083 1.386 . S
H2081 C2097 0.930 . S
H2082 C2098 0.931 . S
C2083 H2071 0.929 . S
C2083 C2077 1.390 . S
C2083 C2080 1.386 . S
C2084 C2079 1.490 . S
C2084 C2086 1.395 . S
C2084 C2087 1.403 . S
H2085 C2091 0.930 1_554 S
C2086 H2072 0.930 . S
C2086 C2084 1.395 . S
C2086 C2089 1.403 . S
C2087 C2084 1.403 . S
C2087 C2088 1.524 1_556 S
C2087 C2091 1.400 . S
C2088 H2073 0.960 . S
C2088 H2074 0.960 . S
C2088 H2075 0.960 . S
C2088 C2087 1.524 1_554 S
C2089 C2086 1.403 . S
C2089 C2090 1.392 . S
C2089 C2093 1.495 . S
C2090 C2089 1.392 . S
C2090 C2091 1.385 . S
C2090 C2092 1.478 . S
C2091 H2085 0.930 1_556 S
C2091 C2087 1.400 . S
C2091 C2090 1.385 . S
C2092 C2090 1.478 . S
C2092 C2094 1.381 . S
C2092 C2098 1.383 . S
C2093 C2089 1.495 . S
C2093 H2099 0.959 . S
C2093 H2100 0.961 . S
C2093 H2101 0.960 . S
C2094 C2092 1.381 . S
C2094 C2095 1.394 . S
C2094 H2102 0.930 . S
C2095 C2094 1.394 . S
C2095 C2096 1.383 . S
C2095 H2103 0.929 . S
C2096 C2095 1.383 . S
C2096 C2097 1.377 . S
C2097 H2081 0.930 . S
C2097 C2096 1.377 . S
C2097 C2098 1.379 . S
C2098 H2082 0.931 . S
C2098 C2092 1.383 . S
C2098 C2097 1.379 . S
H2099 C2093 0.959 . S
H2100 C2093 0.961 . S
H2101 C2093 0.960 . S
H2102 C2094 0.930 . S
H2103 C2095 0.929 . S
H2104 C2112 0.929 . S
H2105 C2114 0.930 . S
H2106 C2116 0.930 . S
H2107 C2119 0.929 . S
H2108 C2122 0.930 . S
H2109 C2124 0.960 . S
H2110 C2124 0.960 . S
H2111 C2124 0.960 . S
C2112 H2104 0.929 . S
C2112 C2113 1.377 . S
C2112 C2114 1.384 . S
C2113 C2112 1.377 . S
C2113 C2119 1.390 . S
C2114 H2105 0.930 . S
C2114 C2112 1.384 . S
C2114 C2115 1.372 . S
C2115 C2114 1.372 . S
C2115 C2116 1.400 . S
C2115 C2120 1.490 . S
C2116 H2106 0.930 . S
C2116 C2115 1.400 . S
C2116 C2119 1.386 . S
H2117 C2133 0.930 . S
H2118 C2134 0.931 . S
C2119 H2107 0.929 . S
C2119 C2113 1.390 . S
C2119 C2116 1.386 . S
C2120 C2115 1.490 . S
C2120 C2122 1.395 . S
C2120 C2123 1.403 . S
H2121 C2127 0.930 . S
C2122 H2108 0.930 . S
C2122 C2120 1.395 . S
C2122 C2125 1.403 . S
C2123 C2120 1.403 . S
C2123 C2124 1.524 . S
C2123 C2127 1.400 . S
C2124 H2109 0.960 . S
C2124 H2110 0.960 . S
C2124 H2111 0.960 . S
C2124 C2123 1.524 . S
C2125 C2122 1.403 . S
C2125 C2126 1.392 . S
C2125 C2129 1.495 . S
C2126 C2125 1.392 . S
C2126 C2127 1.385 . S
C2126 C2128 1.478 . S
C2127 H2121 0.930 . S
C2127 C2123 1.400 . S
C2127 C2126 1.385 . S
C2128 C2126 1.478 . S
C2128 C2130 1.381 . S
C2128 C2134 1.383 . S
C2129 C2125 1.495 . S
C2129 H2135 0.959 . S
C2129 H2136 0.961 . S
C2129 H2137 0.960 . S
C2130 C2128 1.381 . S
C2130 C2131 1.394 . S
C2130 H2138 0.930 . S
C2131 C2130 1.394 . S
C2131 C2132 1.383 . S
C2131 H2139 0.929 . S
C2132 C2131 1.383 . S
C2132 C2133 1.377 . S
C2133 H2117 0.930 . S
C2133 C2132 1.377 . S
C2133 C2134 1.379 . S
C2134 H2118 0.931 . S
C2134 C2128 1.383 . S
C2134 C2133 1.379 . S
H2135 C2129 0.959 . S
H2136 C2129 0.961 . S
H2137 C2129 0.960 . S
H2138 C2130 0.930 . S
H2139 C2131 0.929 . S
H2140 C2148 0.929 1_556 S
H2141 C2150 0.930 1_556 S
H2142 C2152 0.930 . S
H2143 C2155 0.929 . S
H2144 C2158 0.930 1_556 S
H2145 C2160 0.960 . S
H2146 C2160 0.960 . S
H2147 C2160 0.960 . S
C2148 H2140 0.929 1_554 S
C2148 C2149 1.377 . S
C2148 C2150 1.384 . S
C2149 C2148 1.377 . S
C2149 C2155 1.390 . S
C2150 H2141 0.930 1_554 S
C2150 C2148 1.384 . S
C2150 C2151 1.372 . S
C2151 C2150 1.372 . S
C2151 C2152 1.400 . S
C2151 C2156 1.490 . S
C2152 H2142 0.930 . S
C2152 C2151 1.400 . S
C2152 C2155 1.386 . S
H2153 C2169 0.930 . S
H2154 C2170 0.931 . S
C2155 H2143 0.929 . S
C2155 C2149 1.390 . S
C2155 C2152 1.386 . S
C2156 C2151 1.490 . S
C2156 C2158 1.395 . S
C2156 C2159 1.403 . S
H2157 C2163 0.930 . S
C2158 H2144 0.930 1_554 S
C2158 C2156 1.395 . S
C2158 C2161 1.403 . S
C2159 C2156 1.403 . S
C2159 C2160 1.524 . S
C2159 C2163 1.400 . S
C2160 H2145 0.960 . S
C2160 H2146 0.960 . S
C2160 H2147 0.960 . S
C2160 C2159 1.524 . S
C2161 C2158 1.403 . S
C2161 C2162 1.392 . S
C2161 C2165 1.495 1_554 S
C2162 C2161 1.392 . S
C2162 C2163 1.385 . S
C2162 C2164 1.478 . S
C2163 H2157 0.930 . S
C2163 C2159 1.400 . S
C2163 C2162 1.385 . S
C2164 C2162 1.478 . S
C2164 C2166 1.381 . S
C2164 C2170 1.383 . S
C2165 C2161 1.495 1_556 S
C2165 H2171 0.959 . S
C2165 H2172 0.961 . S
C2165 H2173 0.960 . S
C2166 C2164 1.381 . S
C2166 C2167 1.394 . S
C2166 H2174 0.930 1_554 S
C2167 C2166 1.394 . S
C2167 C2168 1.383 . S
C2167 H2175 0.929 1_554 S
C2168 C2167 1.383 . S
C2168 C2169 1.377 . S
C2169 H2153 0.930 . S
C2169 C2168 1.377 . S
C2169 C2170 1.379 . S
C2170 H2154 0.931 . S
C2170 C2164 1.383 . S
C2170 C2169 1.379 . S
H2171 C2165 0.959 . S
H2172 C2165 0.961 . S
H2173 C2165 0.960 . S
H2174 C2166 0.930 1_556 S
H2175 C2167 0.929 1_556 S
H2176 C2184 0.929 . S
H2177 C2186 0.930 . S
H2178 C2188 0.930 . S
H2179 C2191 0.929 . S
H2180 C2194 0.930 . S
H2181 C2196 0.960 . S
H2182 C2196 0.960 . S
H2183 C2196 0.960 . S
C2184 H2176 0.929 . S
C2184 C2185 1.377 . S
C2184 C2186 1.384 . S
C2185 C2184 1.377 . S
C2185 C2191 1.390 . S
C2186 H2177 0.930 . S
C2186 C2184 1.384 . S
C2186 C2187 1.372 . S
C2187 C2186 1.372 . S
C2187 C2188 1.400 . S
C2187 C2192 1.490 . S
C2188 H2178 0.930 . S
C2188 C2187 1.400 . S
C2188 C2191 1.386 . S
H2189 C2205 0.930 . S
H2190 C2206 0.931 . S
C2191 H2179 0.929 . S
C2191 C2185 1.390 . S
C2191 C2188 1.386 . S
C2192 C2187 1.490 . S
C2192 C2194 1.395 . S
C2192 C2195 1.403 . S
H2193 C2199 0.930 . S
C2194 H2180 0.930 . S
C2194 C2192 1.395 . S
C2194 C2197 1.403 . S
C2195 C2192 1.403 . S
C2195 C2196 1.524 . S
C2195 C2199 1.400 . S
C2196 H2181 0.960 . S
C2196 H2182 0.960 . S
C2196 H2183 0.960 . S
C2196 C2195 1.524 . S
C2197 C2194 1.403 . S
C2197 C2198 1.392 . S
C2197 C2201 1.495 . S
C2198 C2197 1.392 . S
C2198 C2199 1.385 . S
C2198 C2200 1.478 . S
C2199 H2193 0.930 . S
C2199 C2195 1.400 . S
C2199 C2198 1.385 . S
C2200 C2198 1.478 . S
C2200 C2202 1.381 . S
C2200 C2206 1.383 . S
C2201 C2197 1.495 . S
C2201 H2207 0.959 . S
C2201 H2208 0.961 . S
C2201 H2209 0.960 . S
C2202 C2200 1.381 . S
C2202 C2203 1.394 . S
C2202 H2210 0.930 . S
C2203 C2202 1.394 . S
C2203 C2204 1.383 . S
C2203 H2211 0.929 . S
C2204 C2203 1.383 . S
C2204 C2205 1.377 . S
C2205 H2189 0.930 . S
C2205 C2204 1.377 . S
C2205 C2206 1.379 . S
C2206 H2190 0.931 . S
C2206 C2200 1.383 . S
C2206 C2205 1.379 . S
H2207 C2201 0.959 . S
H2208 C2201 0.961 . S
H2209 C2201 0.960 . S
H2210 C2202 0.930 . S
H2211 C2203 0.929 . S
H2212 C2220 0.929 . S
H2213 C2222 0.930 . S
H2214 C2224 0.930 . S
H2215 C2227 0.929 . S
H2216 C2230 0.930 . S
H2217 C2232 0.960 . S
H2218 C2232 0.960 . S
H2219 C2232 0.960 . S
C2220 H2212 0.929 . S
C2220 C2221 1.377 . S
C2220 C2222 1.384 . S
C2221 C2220 1.377 . S
C2221 C2227 1.390 . S
C2222 H2213 0.930 . S
C2222 C2220 1.384 . S
C2222 C2223 1.372 . S
C2223 C2222 1.372 . S
C2223 C2224 1.400 . S
C2223 C2228 1.490 . S
C2224 H2214 0.930 . S
C2224 C2223 1.400 . S
C2224 C2227 1.386 . S
H2225 C2241 0.930 . S
H2226 C2242 0.931 . S
C2227 H2215 0.929 . S
C2227 C2221 1.390 . S
C2227 C2224 1.386 . S
C2228 C2223 1.490 . S
C2228 C2230 1.395 . S
C2228 C2231 1.403 . S
H2229 C2235 0.930 . S
C2230 H2216 0.930 . S
C2230 C2228 1.395 . S
C2230 C2233 1.403 . S
C2231 C2228 1.403 . S
C2231 C2232 1.524 . S
C2231 C2235 1.400 . S
C2232 H2217 0.960 . S
C2232 H2218 0.960 . S
C2232 H2219 0.960 . S
C2232 C2231 1.524 . S
C2233 C2230 1.403 . S
C2233 C2234 1.392 . S
C2233 C2237 1.495 . S
C2234 C2233 1.392 . S
C2234 C2235 1.385 . S
C2234 C2236 1.478 . S
C2235 H2229 0.930 . S
C2235 C2231 1.400 . S
C2235 C2234 1.385 . S
C2236 C2234 1.478 . S
C2236 C2238 1.381 . S
C2236 C2242 1.383 . S
C2237 C2233 1.495 . S
C2237 H2243 0.959 . S
C2237 H2244 0.961 . S
C2237 H2245 0.960 . S
C2238 C2236 1.381 . S
C2238 C2239 1.394 . S
C2238 H2246 0.930 . S
C2239 C2238 1.394 . S
C2239 C2240 1.383 . S
C2239 H2247 0.929 . S
C2240 C2239 1.383 . S
C2240 C2241 1.377 . S
C2241 H2225 0.930 . S
C2241 C2240 1.377 . S
C2241 C2242 1.379 . S
C2242 H2226 0.931 . S
C2242 C2236 1.383 . S
C2242 C2241 1.379 . S
H2243 C2237 0.959 . S
H2244 C2237 0.961 . S
H2245 C2237 0.960 . S
H2246 C2238 0.930 . S
H2247 C2239 0.929 . S
H2248 C2256 0.929 . S
H2249 C2258 0.930 . S
H2250 C2260 0.930 . S
H2251 C2263 0.929 . S
H2252 C2266 0.930 . S
H2253 C2268 0.960 . S
H2254 C2268 0.960 . S
H2255 C2268 0.960 . S
C2256 H2248 0.929 . S
C2256 C2257 1.377 . S
C2256 C2258 1.384 . S
C2257 C2256 1.377 . S
C2257 C2263 1.390 . S
C2258 H2249 0.930 . S
C2258 C2256 1.384 . S
C2258 C2259 1.372 . S
C2259 C2258 1.372 . S
C2259 C2260 1.400 . S
C2259 C2264 1.490 . S
C2260 H2250 0.930 . S
C2260 C2259 1.400 . S
C2260 C2263 1.386 . S
H2261 C2277 0.930 1_455 S
H2262 C2278 0.931 . S
C2263 H2251 0.929 . S
C2263 C2257 1.390 . S
C2263 C2260 1.386 . S
C2264 C2259 1.490 . S
C2264 C2266 1.395 . S
C2264 C2267 1.403 . S
H2265 C2271 0.930 . S
C2266 H2252 0.930 . S
C2266 C2264 1.395 . S
C2266 C2269 1.403 . S
C2267 C2264 1.403 . S
C2267 C2268 1.524 . S
C2267 C2271 1.400 . S
C2268 H2253 0.960 . S
C2268 H2254 0.960 . S
C2268 H2255 0.960 . S
C2268 C2267 1.524 . S
C2269 C2266 1.403 . S
C2269 C2270 1.392 . S
C2269 C2273 1.495 . S
C2270 C2269 1.392 . S
C2270 C2271 1.385 . S
C2270 C2272 1.478 . S
C2271 H2265 0.930 . S
C2271 C2267 1.400 . S
C2271 C2270 1.385 . S
C2272 C2270 1.478 . S
C2272 C2274 1.381 . S
C2272 C2278 1.383 . S
C2273 C2269 1.495 . S
C2273 H2279 0.959 . S
C2273 H2280 0.961 . S
C2273 H2281 0.960 . S
C2274 C2272 1.381 . S
C2274 C2275 1.394 . S
C2274 H2282 0.930 . S
C2275 C2274 1.394 . S
C2275 C2276 1.383 . S
C2275 H2283 0.929 . S
C2276 C2275 1.383 . S
C2276 C2277 1.377 . S
C2277 H2261 0.930 1_655 S
C2277 C2276 1.377 . S
C2277 C2278 1.379 . S
C2278 H2262 0.931 . S
C2278 C2272 1.383 . S
C2278 C2277 1.379 . S
H2279 C2273 0.959 . S
H2280 C2273 0.961 . S
H2281 C2273 0.960 . S
H2282 C2274 0.930 . S
H2283 C2275 0.929 . S
H2284 C2292 0.929 . S
H2285 C2294 0.930 . S
H2286 C2296 0.930 . S
H2287 C2299 0.929 . S
H2288 C2302 0.930 . S
H2289 C2304 0.960 . S
H2290 C2304 0.960 . S
H2291 C2304 0.960 . S
C2292 H2284 0.929 . S
C2292 C2293 1.377 . S
C2292 C2294 1.384 . S
C2293 C2292 1.377 . S
C2293 C2299 1.390 . S
C2294 H2285 0.930 . S
C2294 C2292 1.384 . S
C2294 C2295 1.372 . S
C2295 C2294 1.372 . S
C2295 C2296 1.400 . S
C2295 C2300 1.490 . S
C2296 H2286 0.930 . S
C2296 C2295 1.400 . S
C2296 C2299 1.386 . S
H2297 C2313 0.930 . S
H2298 C2314 0.931 . S
C2299 H2287 0.929 . S
C2299 C2293 1.390 . S
C2299 C2296 1.386 . S
C2300 C2295 1.490 . S
C2300 C2302 1.395 . S
C2300 C2303 1.403 . S
H2301 C2307 0.930 . S
C2302 H2288 0.930 . S
C2302 C2300 1.395 . S
C2302 C2305 1.403 . S
C2303 C2300 1.403 . S
C2303 C2304 1.524 . S
C2303 C2307 1.400 . S
C2304 H2289 0.960 . S
C2304 H2290 0.960 . S
C2304 H2291 0.960 . S
C2304 C2303 1.524 . S
C2305 C2302 1.403 . S
C2305 C2306 1.392 . S
C2305 C2309 1.495 . S
C2306 C2305 1.392 . S
C2306 C2307 1.385 . S
C2306 C2308 1.478 . S
C2307 H2301 0.930 . S
C2307 C2303 1.400 . S
C2307 C2306 1.385 . S
C2308 C2306 1.478 . S
C2308 C2310 1.381 . S
C2308 C2314 1.383 . S
C2309 C2305 1.495 . S
C2309 H2315 0.959 . S
C2309 H2316 0.961 . S
C2309 H2317 0.960 . S
C2310 C2308 1.381 . S
C2310 C2311 1.394 . S
C2310 H2318 0.930 . S
C2311 C2310 1.394 . S
C2311 C2312 1.383 . S
C2311 H2319 0.929 . S
C2312 C2311 1.383 . S
C2312 C2313 1.377 . S
C2313 H2297 0.930 . S
C2313 C2312 1.377 . S
C2313 C2314 1.379 . S
C2314 H2298 0.931 . S
C2314 C2308 1.383 . S
C2314 C2313 1.379 . S
H2315 C2309 0.959 . S
H2316 C2309 0.961 . S
H2317 C2309 0.960 . S
H2318 C2310 0.930 . S
H2319 C2311 0.929 . S
H2320 C2328 0.929 . S
H2321 C2330 0.930 . S
H2322 C2332 0.930 . S
H2323 C2335 0.929 . S
H2324 C2338 0.930 . S
H2325 C2340 0.960 . S
H2326 C2340 0.960 . S
H2327 C2340 0.960 . S
C2328 H2320 0.929 . S
C2328 C2329 1.377 . S
C2328 C2330 1.384 . S
C2329 C2328 1.377 . S
C2329 C2335 1.390 . S
C2330 H2321 0.930 . S
C2330 C2328 1.384 . S
C2330 C2331 1.372 . S
C2331 C2330 1.372 . S
C2331 C2332 1.400 . S
C2331 C2336 1.490 . S
C2332 H2322 0.930 . S
C2332 C2331 1.400 . S
C2332 C2335 1.386 . S
H2333 C2349 0.930 1_655 S
H2334 C2350 0.931 . S
C2335 H2323 0.929 . S
C2335 C2329 1.390 . S
C2335 C2332 1.386 . S
C2336 C2331 1.490 . S
C2336 C2338 1.395 . S
C2336 C2339 1.403 . S
H2337 C2343 0.930 . S
C2338 H2324 0.930 . S
C2338 C2336 1.395 . S
C2338 C2341 1.403 . S
C2339 C2336 1.403 . S
C2339 C2340 1.524 . S
C2339 C2343 1.400 . S
C2340 H2325 0.960 . S
C2340 H2326 0.960 . S
C2340 H2327 0.960 . S
C2340 C2339 1.524 . S
C2341 C2338 1.403 . S
C2341 C2342 1.392 . S
C2341 C2345 1.495 . S
C2342 C2341 1.392 . S
C2342 C2343 1.385 . S
C2342 C2344 1.478 . S
C2343 H2337 0.930 . S
C2343 C2339 1.400 . S
C2343 C2342 1.385 . S
C2344 C2342 1.478 . S
C2344 C2346 1.381 . S
C2344 C2350 1.383 . S
C2345 C2341 1.495 . S
C2345 H2351 0.959 . S
C2345 H2352 0.961 . S
C2345 H2353 0.960 . S
C2346 C2344 1.381 . S
C2346 C2347 1.394 . S
C2346 H2354 0.930 . S
C2347 C2346 1.394 . S
C2347 C2348 1.383 . S
C2347 H2355 0.929 . S
C2348 C2347 1.383 . S
C2348 C2349 1.377 . S
C2349 H2333 0.930 1_455 S
C2349 C2348 1.377 . S
C2349 C2350 1.379 . S
C2350 H2334 0.931 . S
C2350 C2344 1.383 . S
C2350 C2349 1.379 . S
H2351 C2345 0.959 . S
H2352 C2345 0.961 . S
H2353 C2345 0.960 . S
H2354 C2346 0.930 . S
H2355 C2347 0.929 . S
H2356 C2364 0.929 . S
H2357 C2366 0.930 . S
H2358 C2368 0.930 . S
H2359 C2371 0.929 . S
H2360 C2374 0.930 . S
H2361 C2376 0.960 . S
H2362 C2376 0.960 . S
H2363 C2376 0.960 . S
C2364 H2356 0.929 . S
C2364 C2365 1.377 . S
C2364 C2366 1.384 . S
C2365 C2364 1.377 . S
C2365 C2371 1.390 . S
C2366 H2357 0.930 . S
C2366 C2364 1.384 . S
C2366 C2367 1.372 . S
C2367 C2366 1.372 . S
C2367 C2368 1.400 . S
C2367 C2372 1.490 . S
C2368 H2358 0.930 . S
C2368 C2367 1.400 . S
C2368 C2371 1.386 . S
H2369 C2385 0.930 . S
H2370 C2386 0.931 . S
C2371 H2359 0.929 . S
C2371 C2365 1.390 . S
C2371 C2368 1.386 . S
C2372 C2367 1.490 . S
C2372 C2374 1.395 . S
C2372 C2375 1.403 . S
H2373 C2379 0.930 . S
C2374 H2360 0.930 . S
C2374 C2372 1.395 . S
C2374 C2377 1.403 . S
C2375 C2372 1.403 . S
C2375 C2376 1.524 . S
C2375 C2379 1.400 . S
C2376 H2361 0.960 . S
C2376 H2362 0.960 . S
C2376 H2363 0.960 . S
C2376 C2375 1.524 . S
C2377 C2374 1.403 . S
C2377 C2378 1.392 . S
C2377 C2381 1.495 . S
C2378 C2377 1.392 . S
C2378 C2379 1.385 . S
C2378 C2380 1.478 . S
C2379 H2373 0.930 . S
C2379 C2375 1.400 . S
C2379 C2378 1.385 . S
C2380 C2378 1.478 . S
C2380 C2382 1.381 . S
C2380 C2386 1.383 . S
C2381 C2377 1.495 . S
C2381 H2387 0.959 . S
C2381 H2388 0.961 . S
C2381 H2389 0.960 . S
C2382 C2380 1.381 . S
C2382 C2383 1.394 . S
C2382 H2390 0.930 . S
C2383 C2382 1.394 . S
C2383 C2384 1.383 . S
C2383 H2391 0.929 . S
C2384 C2383 1.383 . S
C2384 C2385 1.377 . S
C2385 H2369 0.930 . S
C2385 C2384 1.377 . S
C2385 C2386 1.379 . S
C2386 H2370 0.931 . S
C2386 C2380 1.383 . S
C2386 C2385 1.379 . S
H2387 C2381 0.959 . S
H2388 C2381 0.961 . S
H2389 C2381 0.960 . S
H2390 C2382 0.930 . S
H2391 C2383 0.929 . S
H2392 C2400 0.929 . S
H2393 C2402 0.930 . S
H2394 C2404 0.930 . S
H2395 C2407 0.929 . S
H2396 C2410 0.930 . S
H2397 C2412 0.960 . S
H2398 C2412 0.960 . S
H2399 C2412 0.960 . S
C2400 H2392 0.929 . S
C2400 C2401 1.377 . S
C2400 C2402 1.384 . S
C2401 C2400 1.377 . S
C2401 C2407 1.390 . S
C2402 H2393 0.930 . S
C2402 C2400 1.384 . S
C2402 C2403 1.372 . S
C2403 C2402 1.372 . S
C2403 C2404 1.400 . S
C2403 C2408 1.490 . S
C2404 H2394 0.930 . S
C2404 C2403 1.400 . S
C2404 C2407 1.386 . S
H2405 C2421 0.930 . S
H2406 C2422 0.931 . S
C2407 H2395 0.929 . S
C2407 C2401 1.390 . S
C2407 C2404 1.386 . S
C2408 C2403 1.490 . S
C2408 C2410 1.395 . S
C2408 C2411 1.403 . S
H2409 C2415 0.930 . S
C2410 H2396 0.930 . S
C2410 C2408 1.395 . S
C2410 C2413 1.403 . S
C2411 C2408 1.403 . S
C2411 C2412 1.524 . S
C2411 C2415 1.400 . S
C2412 H2397 0.960 . S
C2412 H2398 0.960 . S
C2412 H2399 0.960 . S
C2412 C2411 1.524 . S
C2413 C2410 1.403 . S
C2413 C2414 1.392 . S
C2413 C2417 1.495 . S
C2414 C2413 1.392 . S
C2414 C2415 1.385 . S
C2414 C2416 1.478 . S
C2415 H2409 0.930 . S
C2415 C2411 1.400 . S
C2415 C2414 1.385 . S
C2416 C2414 1.478 . S
C2416 C2418 1.381 . S
C2416 C2422 1.383 . S
C2417 C2413 1.495 . S
C2417 H2423 0.959 . S
C2417 H2424 0.961 . S
C2417 H2425 0.960 . S
C2418 C2416 1.381 . S
C2418 C2419 1.394 . S
C2418 H2426 0.930 . S
C2419 C2418 1.394 . S
C2419 C2420 1.383 . S
C2419 H2427 0.935 . S
C2420 C2419 1.383 . S
C2420 C2421 1.377 . S
C2421 H2405 0.930 . S
C2421 C2420 1.377 . S
C2421 C2422 1.379 . S
C2422 H2406 0.931 . S
C2422 C2416 1.383 . S
C2422 C2421 1.379 . S
H2423 C2417 0.959 . S
H2424 C2417 0.961 . S
H2425 C2417 0.960 . S
H2426 C2418 0.930 . S
H2427 C2419 0.935 . S
H2428 C2436 0.929 . S
H2429 C2438 0.930 . S
H2430 C2440 0.930 . S
H2431 C2443 0.929 . S
H2432 C2446 0.930 . S
H2433 C2448 0.960 . S
H2434 C2448 0.960 . S
H2435 C2448 0.960 . S
C2436 H2428 0.929 . S
C2436 C2437 1.377 . S
C2436 C2438 1.384 . S
C2437 C2436 1.377 . S
C2437 C2443 1.390 . S
C2438 H2429 0.930 . S
C2438 C2436 1.384 . S
C2438 C2439 1.372 . S
C2439 C2438 1.372 . S
C2439 C2440 1.400 . S
C2439 C2444 1.490 . S
C2440 H2430 0.930 . S
C2440 C2439 1.400 . S
C2440 C2443 1.386 . S
H2441 C2457 0.930 . S
H2442 C2458 0.931 . S
C2443 H2431 0.929 . S
C2443 C2437 1.390 . S
C2443 C2440 1.386 . S
C2444 C2439 1.490 . S
C2444 C2446 1.395 . S
C2444 C2447 1.403 . S
H2445 C2451 0.930 . S
C2446 H2432 0.930 . S
C2446 C2444 1.395 . S
C2446 C2449 1.403 . S
C2447 C2444 1.403 . S
C2447 C2448 1.524 . S
C2447 C2451 1.400 . S
C2448 H2433 0.960 . S
C2448 H2434 0.960 . S
C2448 H2435 0.960 . S
C2448 C2447 1.524 . S
C2449 C2446 1.403 . S
C2449 C2450 1.392 . S
C2449 C2453 1.495 . S
C2450 C2449 1.392 . S
C2450 C2451 1.385 . S
C2450 C2452 1.478 . S
C2451 H2445 0.930 . S
C2451 C2447 1.400 . S
C2451 C2450 1.385 . S
C2452 C2450 1.478 . S
C2452 C2454 1.381 . S
C2452 C2458 1.383 . S
C2453 C2449 1.495 . S
C2453 H2459 0.959 . S
C2453 H2460 0.961 . S
C2453 H2461 0.960 . S
C2454 C2452 1.381 . S
C2454 C2455 1.394 . S
C2454 H2462 0.930 . S
C2455 C2454 1.394 . S
C2455 C2456 1.383 . S
C2455 H2463 0.929 . S
C2456 C2455 1.383 . S
C2456 C2457 1.377 . S
C2457 H2441 0.930 . S
C2457 C2456 1.377 . S
C2457 C2458 1.379 . S
C2458 H2442 0.931 . S
C2458 C2452 1.383 . S
C2458 C2457 1.379 . S
H2459 C2453 0.959 . S
H2460 C2453 0.961 . S
H2461 C2453 0.960 . S
H2462 C2454 0.930 . S
H2463 C2455 0.929 . S
H2464 C2472 0.929 1_455 S
H2465 C2474 0.930 . S
H2466 C2476 0.930 . S
H2467 C2479 0.929 . S
H2468 C2482 0.930 . S
H2469 C2484 0.960 . S
H2470 C2484 0.960 . S
H2471 C2484 0.960 . S
C2472 H2464 0.929 1_655 S
C2472 C2473 1.377 . S
C2472 C2474 1.384 . S
C2473 C2472 1.377 . S
C2473 C2479 1.390 . S
C2474 H2465 0.930 . S
C2474 C2472 1.384 . S
C2474 C2475 1.372 . S
C2475 C2474 1.372 . S
C2475 C2476 1.400 . S
C2475 C2480 1.490 . S
C2476 H2466 0.930 . S
C2476 C2475 1.400 . S
C2476 C2479 1.386 . S
H2477 C2493 0.930 . S
H2478 C2494 0.931 . S
C2479 H2467 0.929 . S
C2479 C2473 1.390 . S
C2479 C2476 1.386 . S
C2480 C2475 1.490 . S
C2480 C2482 1.395 . S
C2480 C2483 1.403 . S
H2481 C2487 0.930 . S
C2482 H2468 0.930 . S
C2482 C2480 1.395 . S
C2482 C2485 1.403 . S
C2483 C2480 1.403 . S
C2483 C2484 1.524 . S
C2483 C2487 1.400 . S
C2484 H2469 0.960 . S
C2484 H2470 0.960 . S
C2484 H2471 0.960 . S
C2484 C2483 1.524 . S
C2485 C2482 1.403 . S
C2485 C2486 1.392 . S
C2485 C2489 1.495 . S
C2486 C2485 1.392 . S
C2486 C2487 1.385 . S
C2486 C2488 1.478 . S
C2487 H2481 0.930 . S
C2487 C2483 1.400 . S
C2487 C2486 1.385 . S
C2488 C2486 1.478 . S
C2488 C2490 1.381 . S
C2488 C2494 1.383 . S
C2489 C2485 1.495 . S
C2489 H2495 0.959 . S
C2489 H2496 0.961 . S
C2489 H2497 0.960 . S
C2490 C2488 1.381 . S
C2490 C2491 1.394 . S
C2490 H2498 0.930 . S
C2491 C2490 1.394 . S
C2491 C2492 1.383 . S
C2491 H2499 0.929 . S
C2492 C2491 1.383 . S
C2492 C2493 1.377 . S
C2493 H2477 0.930 . S
C2493 C2492 1.377 . S
C2493 C2494 1.379 . S
C2494 H2478 0.931 . S
C2494 C2488 1.383 . S
C2494 C2493 1.379 . S
H2495 C2489 0.959 . S
H2496 C2489 0.961 . S
H2497 C2489 0.960 . S
H2498 C2490 0.930 . S
H2499 C2491 0.929 . S
H2500 C2508 0.929 . S
H2501 C2510 0.930 . S
H2502 C2512 0.930 . S
H2503 C2515 0.929 . S
H2504 C2518 0.930 . S
H2505 C2520 0.960 . S
H2506 C2520 0.960 . S
H2507 C2520 0.960 . S
C2508 H2500 0.929 . S
C2508 C2509 1.377 . S
C2508 C2510 1.384 . S
C2509 C2508 1.377 . S
C2509 C2515 1.390 . S
C2510 H2501 0.930 . S
C2510 C2508 1.384 . S
C2510 C2511 1.372 . S
C2511 C2510 1.372 . S
C2511 C2512 1.400 . S
C2511 C2516 1.490 . S
C2512 H2502 0.930 . S
C2512 C2511 1.400 . S
C2512 C2515 1.386 . S
H2513 C2529 0.930 . S
H2514 C2530 0.931 . S
C2515 H2503 0.929 . S
C2515 C2509 1.390 . S
C2515 C2512 1.386 . S
C2516 C2511 1.490 . S
C2516 C2518 1.395 . S
C2516 C2519 1.403 . S
H2517 C2523 0.930 . S
C2518 H2504 0.930 . S
C2518 C2516 1.395 . S
C2518 C2521 1.403 . S
C2519 C2516 1.403 . S
C2519 C2520 1.524 . S
C2519 C2523 1.400 . S
C2520 H2505 0.960 . S
C2520 H2506 0.960 . S
C2520 H2507 0.960 . S
C2520 C2519 1.524 . S
C2521 C2518 1.403 . S
C2521 C2522 1.392 . S
C2521 C2525 1.495 . S
C2522 C2521 1.392 . S
C2522 C2523 1.385 . S
C2522 C2524 1.478 . S
C2523 H2517 0.930 . S
C2523 C2519 1.400 . S
C2523 C2522 1.385 . S
C2524 C2522 1.478 . S
C2524 C2526 1.381 . S
C2524 C2530 1.383 . S
C2525 C2521 1.495 . S
C2525 H2531 0.959 . S
C2525 H2532 0.961 . S
C2525 H2533 0.960 . S
C2526 C2524 1.381 . S
C2526 C2527 1.394 . S
C2526 H2534 0.930 . S
C2527 C2526 1.394 . S
C2527 C2528 1.383 . S
C2527 H2535 0.929 . S
C2528 C2527 1.383 . S
C2528 C2529 1.377 . S
C2529 H2513 0.930 . S
C2529 C2528 1.377 . S
C2529 C2530 1.379 . S
C2530 H2514 0.931 . S
C2530 C2524 1.383 . S
C2530 C2529 1.379 . S
H2531 C2525 0.959 . S
H2532 C2525 0.961 . S
H2533 C2525 0.960 . S
H2534 C2526 0.930 . S
H2535 C2527 0.929 . S
H2536 C2544 0.929 . S
H2537 C2546 0.930 . S
H2538 C2548 0.930 . S
H2539 C2551 0.929 1_455 S
H2540 C2554 0.930 . S
H2541 C2556 0.960 . S
H2542 C2556 0.960 . S
H2543 C2556 0.960 . S
C2544 H2536 0.929 . S
C2544 C2545 1.377 . S
C2544 C2546 1.384 . S
C2545 C2544 1.377 . S
C2545 C2551 1.390 . S
C2546 H2537 0.930 . S
C2546 C2544 1.384 . S
C2546 C2547 1.372 . S
C2547 C2546 1.372 . S
C2547 C2548 1.400 . S
C2547 C2552 1.490 . S
C2548 H2538 0.930 . S
C2548 C2547 1.400 . S
C2548 C2551 1.386 . S
H2549 C2565 0.930 . S
H2550 C2566 0.931 . S
C2551 H2539 0.929 1_655 S
C2551 C2545 1.390 . S
C2551 C2548 1.386 . S
C2552 C2547 1.490 . S
C2552 C2554 1.395 . S
C2552 C2555 1.403 . S
H2553 C2559 0.930 . S
C2554 H2540 0.930 . S
C2554 C2552 1.395 . S
C2554 C2557 1.403 . S
C2555 C2552 1.403 . S
C2555 C2556 1.524 . S
C2555 C2559 1.400 . S
C2556 H2541 0.960 . S
C2556 H2542 0.960 . S
C2556 H2543 0.960 . S
C2556 C2555 1.524 . S
C2557 C2554 1.403 . S
C2557 C2558 1.392 . S
C2557 C2561 1.495 . S
C2558 C2557 1.392 . S
C2558 C2559 1.385 . S
C2558 C2560 1.478 . S
C2559 H2553 0.930 . S
C2559 C2555 1.400 . S
C2559 C2558 1.385 . S
C2560 C2558 1.478 . S
C2560 C2562 1.381 . S
C2560 C2566 1.383 . S
C2561 C2557 1.495 . S
C2561 H2567 0.959 . S
C2561 H2568 0.961 . S
C2561 H2569 0.960 . S
C2562 C2560 1.381 . S
C2562 C2563 1.394 . S
C2562 H2570 0.930 . S
C2563 C2562 1.394 . S
C2563 C2564 1.383 . S
C2563 H2571 0.929 . S
C2564 C2563 1.383 . S
C2564 C2565 1.377 . S
C2565 H2549 0.930 . S
C2565 C2564 1.377 . S
C2565 C2566 1.379 . S
C2566 H2550 0.931 . S
C2566 C2560 1.383 . S
C2566 C2565 1.379 . S
H2567 C2561 0.959 . S
H2568 C2561 0.961 . S
H2569 C2561 0.960 . S
H2570 C2562 0.930 . S
H2571 C2563 0.929 . S
H2572 C2580 0.929 . S
H2573 C2582 0.930 . S
H2574 C2584 0.930 . S
H2575 C2587 0.929 . S
H2576 C2590 0.930 . S
H2577 C2592 0.960 . S
H2578 C2592 0.960 . S
H2579 C2592 0.960 . S
C2580 H2572 0.929 . S
C2580 C2581 1.377 . S
C2580 C2582 1.384 . S
C2581 C2580 1.377 . S
C2581 C2587 1.390 . S
C2582 H2573 0.930 . S
C2582 C2580 1.384 . S
C2582 C2583 1.372 . S
C2583 C2582 1.372 . S
C2583 C2584 1.400 . S
C2583 C2588 1.490 . S
C2584 H2574 0.930 . S
C2584 C2583 1.400 . S
C2584 C2587 1.386 . S
H2585 C2601 0.930 . S
H2586 C2602 0.931 . S
C2587 H2575 0.929 . S
C2587 C2581 1.390 . S
C2587 C2584 1.386 . S
C2588 C2583 1.490 . S
C2588 C2590 1.395 . S
C2588 C2591 1.403 . S
H2589 C2595 0.930 . S
C2590 H2576 0.930 . S
C2590 C2588 1.395 . S
C2590 C2593 1.403 . S
C2591 C2588 1.403 . S
C2591 C2592 1.524 . S
C2591 C2595 1.400 . S
C2592 H2577 0.960 . S
C2592 H2578 0.960 . S
C2592 H2579 0.960 . S
C2592 C2591 1.524 . S
C2593 C2590 1.403 . S
C2593 C2594 1.392 . S
C2593 C2597 1.495 . S
C2594 C2593 1.392 . S
C2594 C2595 1.385 . S
C2594 C2596 1.478 . S
C2595 H2589 0.930 . S
C2595 C2591 1.400 . S
C2595 C2594 1.385 . S
C2596 C2594 1.478 . S
C2596 C2598 1.381 . S
C2596 C2602 1.383 . S
C2597 C2593 1.495 . S
C2597 H2603 0.959 . S
C2597 H2604 0.961 . S
C2597 H2605 0.960 . S
C2598 C2596 1.381 . S
C2598 C2599 1.394 . S
C2598 H2606 0.930 . S
C2599 C2598 1.394 . S
C2599 C2600 1.383 . S
C2599 H2607 0.929 . S
C2600 C2599 1.383 . S
C2600 C2601 1.377 . S
C2601 H2585 0.930 . S
C2601 C2600 1.377 . S
C2601 C2602 1.379 . S
C2602 H2586 0.931 . S
C2602 C2596 1.383 . S
C2602 C2601 1.379 . S
H2603 C2597 0.959 . S
H2604 C2597 0.961 . S
H2605 C2597 0.960 . S
H2606 C2598 0.930 . S
H2607 C2599 0.929 . S
H2608 C2616 0.929 1_655 S
H2609 C2618 0.930 . S
H2610 C2620 0.930 . S
H2611 C2623 0.929 . S
H2612 C2626 0.930 . S
H2613 C2628 0.960 . S
H2614 C2628 0.960 . S
H2615 C2628 0.960 . S
C2616 H2608 0.929 1_455 S
C2616 C2617 1.377 . S
C2616 C2618 1.384 . S
C2617 C2616 1.377 . S
C2617 C2623 1.390 . S
C2618 H2609 0.930 . S
C2618 C2616 1.384 . S
C2618 C2619 1.372 . S
C2619 C2618 1.372 . S
C2619 C2620 1.400 . S
C2619 C2624 1.490 . S
C2620 H2610 0.930 . S
C2620 C2619 1.400 . S
C2620 C2623 1.386 . S
H2621 C2637 0.930 . S
H2622 C2638 0.931 . S
C2623 H2611 0.929 . S
C2623 C2617 1.390 . S
C2623 C2620 1.386 . S
C2624 C2619 1.490 . S
C2624 C2626 1.395 . S
C2624 C2627 1.403 . S
H2625 C2631 0.930 . S
C2626 H2612 0.930 . S
C2626 C2624 1.395 . S
C2626 C2629 1.403 . S
C2627 C2624 1.403 . S
C2627 C2628 1.524 . S
C2627 C2631 1.400 . S
C2628 H2613 0.960 . S
C2628 H2614 0.960 . S
C2628 H2615 0.960 . S
C2628 C2627 1.524 . S
C2629 C2626 1.403 . S
C2629 C2630 1.392 . S
C2629 C2633 1.495 . S
C2630 C2629 1.392 . S
C2630 C2631 1.385 . S
C2630 C2632 1.478 . S
C2631 H2625 0.930 . S
C2631 C2627 1.400 . S
C2631 C2630 1.385 . S
C2632 C2630 1.478 . S
C2632 C2634 1.381 . S
C2632 C2638 1.383 . S
C2633 C2629 1.495 . S
C2633 H2639 0.959 . S
C2633 H2640 0.961 . S
C2633 H2641 0.960 . S
C2634 C2632 1.381 . S
C2634 C2635 1.394 . S
C2634 H2642 0.930 . S
C2635 C2634 1.394 . S
C2635 C2636 1.383 . S
C2635 H2643 0.929 . S
C2636 C2635 1.383 . S
C2636 C2637 1.377 . S
C2637 H2621 0.930 . S
C2637 C2636 1.377 . S
C2637 C2638 1.379 . S
C2638 H2622 0.931 . S
C2638 C2632 1.383 . S
C2638 C2637 1.379 . S
H2639 C2633 0.959 . S
H2640 C2633 0.961 . S
H2641 C2633 0.960 . S
H2642 C2634 0.930 . S
H2643 C2635 0.929 . S
H2644 C2652 0.929 . S
H2645 C2654 0.930 . S
H2646 C2656 0.930 . S
H2647 C2659 0.929 . S
H2648 C2662 0.930 . S
H2649 C2664 0.960 . S
H2650 C2664 0.960 . S
H2651 C2664 0.960 . S
C2652 H2644 0.929 . S
C2652 C2653 1.377 . S
C2652 C2654 1.384 . S
C2653 C2652 1.377 . S
C2653 C2659 1.390 . S
C2654 H2645 0.930 . S
C2654 C2652 1.384 . S
C2654 C2655 1.372 . S
C2655 C2654 1.372 . S
C2655 C2656 1.400 . S
C2655 C2660 1.490 . S
C2656 H2646 0.930 . S
C2656 C2655 1.400 . S
C2656 C2659 1.386 . S
H2657 C2673 0.930 . S
H2658 C2674 0.931 . S
C2659 H2647 0.929 . S
C2659 C2653 1.390 . S
C2659 C2656 1.386 . S
C2660 C2655 1.490 . S
C2660 C2662 1.395 . S
C2660 C2663 1.403 . S
H2661 C2667 0.930 . S
C2662 H2648 0.930 . S
C2662 C2660 1.395 . S
C2662 C2665 1.403 . S
C2663 C2660 1.403 . S
C2663 C2664 1.524 . S
C2663 C2667 1.400 . S
C2664 H2649 0.960 . S
C2664 H2650 0.960 . S
C2664 H2651 0.960 . S
C2664 C2663 1.524 . S
C2665 C2662 1.403 . S
C2665 C2666 1.392 . S
C2665 C2669 1.495 . S
C2666 C2665 1.392 . S
C2666 C2667 1.385 . S
C2666 C2668 1.478 . S
C2667 H2661 0.930 . S
C2667 C2663 1.400 . S
C2667 C2666 1.385 . S
C2668 C2666 1.478 . S
C2668 C2670 1.381 . S
C2668 C2674 1.383 . S
C2669 C2665 1.495 . S
C2669 H2675 0.959 . S
C2669 H2676 0.961 . S
C2669 H2677 0.960 . S
C2670 C2668 1.381 . S
C2670 C2671 1.394 . S
C2670 H2678 0.930 . S
C2671 C2670 1.394 . S
C2671 C2672 1.383 . S
C2671 H2679 0.929 . S
C2672 C2671 1.383 . S
C2672 C2673 1.377 . S
C2673 H2657 0.930 . S
C2673 C2672 1.377 . S
C2673 C2674 1.379 . S
C2674 H2658 0.931 . S
C2674 C2668 1.383 . S
C2674 C2673 1.379 . S
H2675 C2669 0.959 . S
H2676 C2669 0.961 . S
H2677 C2669 0.960 . S
H2678 C2670 0.930 . S
H2679 C2671 0.929 . S
H2680 C2688 0.929 1_655 S
H2681 C2690 0.930 . S
H2682 C2692 0.930 . S
H2683 C2695 0.929 . S
H2684 C2698 0.930 . S
H2685 C2700 0.960 . S
H2686 C2700 0.960 . S
H2687 C2700 0.960 . S
C2688 H2680 0.929 1_455 S
C2688 C2689 1.377 . S
C2688 C2690 1.384 . S
C2689 C2688 1.377 . S
C2689 C2695 1.390 . S
C2690 H2681 0.930 . S
C2690 C2688 1.384 . S
C2690 C2691 1.372 . S
C2691 C2690 1.372 . S
C2691 C2692 1.400 . S
C2691 C2696 1.490 . S
C2692 H2682 0.930 . S
C2692 C2691 1.400 . S
C2692 C2695 1.386 . S
H2693 C2709 0.930 . S
H2694 C2710 0.931 . S
C2695 H2683 0.929 . S
C2695 C2689 1.390 . S
C2695 C2692 1.386 . S
C2696 C2691 1.490 . S
C2696 C2698 1.395 . S
C2696 C2699 1.403 . S
H2697 C2703 0.930 . S
C2698 H2684 0.930 . S
C2698 C2696 1.395 . S
C2698 C2701 1.403 . S
C2699 C2696 1.403 . S
C2699 C2700 1.524 . S
C2699 C2703 1.400 . S
C2700 H2685 0.960 . S
C2700 H2686 0.960 . S
C2700 H2687 0.960 . S
C2700 C2699 1.524 . S
C2701 C2698 1.403 . S
C2701 C2702 1.392 . S
C2701 C2705 1.495 . S
C2702 C2701 1.392 . S
C2702 C2703 1.385 . S
C2702 C2704 1.478 . S
C2703 H2697 0.930 . S
C2703 C2699 1.400 . S
C2703 C2702 1.385 . S
C2704 C2702 1.478 . S
C2704 C2706 1.381 . S
C2704 C2710 1.383 . S
C2705 C2701 1.495 . S
C2705 H2711 0.959 . S
C2705 H2712 0.961 . S
C2705 H2713 0.960 . S
C2706 C2704 1.381 . S
C2706 C2707 1.394 . S
C2706 H2714 0.930 . S
C2707 C2706 1.394 . S
C2707 C2708 1.383 . S
C2707 H2715 0.929 . S
C2708 C2707 1.383 . S
C2708 C2709 1.377 . S
C2709 H2693 0.930 . S
C2709 C2708 1.377 . S
C2709 C2710 1.379 . S
C2710 H2694 0.931 . S
C2710 C2704 1.383 . S
C2710 C2709 1.379 . S
H2711 C2705 0.959 . S
H2712 C2705 0.961 . S
H2713 C2705 0.960 . S
H2714 C2706 0.930 . S
H2715 C2707 0.929 . S
H2716 C2724 0.929 . S
H2717 C2726 0.930 . S
H2718 C2728 0.930 . S
H2719 C2731 0.929 . S
H2720 C2734 0.930 . S
H2721 C2736 0.960 . S
H2722 C2736 0.960 . S
H2723 C2736 0.960 . S
C2724 H2716 0.929 . S
C2724 C2725 1.377 . S
C2724 C2726 1.384 . S
C2725 C2724 1.377 . S
C2725 C2731 1.390 . S
C2726 H2717 0.930 . S
C2726 C2724 1.384 . S
C2726 C2727 1.372 . S
C2727 C2726 1.372 . S
C2727 C2728 1.400 . S
C2727 C2732 1.490 . S
C2728 H2718 0.930 . S
C2728 C2727 1.400 . S
C2728 C2731 1.386 . S
H2729 C2745 0.930 . S
H2730 C2746 0.931 . S
C2731 H2719 0.929 . S
C2731 C2725 1.390 . S
C2731 C2728 1.386 . S
C2732 C2727 1.490 . S
C2732 C2734 1.395 . S
C2732 C2735 1.403 . S
H2733 C2739 0.930 . S
C2734 H2720 0.930 . S
C2734 C2732 1.395 . S
C2734 C2737 1.403 . S
C2735 C2732 1.403 . S
C2735 C2736 1.524 . S
C2735 C2739 1.400 . S
C2736 H2721 0.960 . S
C2736 H2722 0.960 . S
C2736 H2723 0.960 . S
C2736 C2735 1.524 . S
C2737 C2734 1.403 . S
C2737 C2738 1.392 . S
C2737 C2741 1.495 . S
C2738 C2737 1.392 . S
C2738 C2739 1.385 . S
C2738 C2740 1.478 . S
C2739 H2733 0.930 . S
C2739 C2735 1.400 . S
C2739 C2738 1.385 . S
C2740 C2738 1.478 . S
C2740 C2742 1.381 . S
C2740 C2746 1.383 . S
C2741 C2737 1.495 . S
C2741 H2747 0.959 . S
C2741 H2748 0.961 . S
C2741 H2749 0.960 . S
C2742 C2740 1.381 . S
C2742 C2743 1.394 . S
C2742 H2750 0.930 . S
C2743 C2742 1.394 . S
C2743 C2744 1.383 . S
C2743 H2751 0.929 . S
C2744 C2743 1.383 . S
C2744 C2745 1.377 . S
C2745 H2729 0.930 . S
C2745 C2744 1.377 . S
C2745 C2746 1.379 . S
C2746 H2730 0.931 . S
C2746 C2740 1.383 . S
C2746 C2745 1.379 . S
H2747 C2741 0.959 . S
H2748 C2741 0.961 . S
H2749 C2741 0.960 . S
H2750 C2742 0.930 . S
H2751 C2743 0.929 . S
C457 C50 0.685 . S
C476 C8 0.622 . S
C493 C36 0.698 . S
C512 C22 0.611 . S
C529 C106 0.674 . S
C548 C64 0.631 . S
C565 C92 0.669 . S
C584 C78 0.623 . S
C601 C120 0.680 . S
C620 C162 0.642 . S
C637 C134 0.676 . S
C656 C148 0.660 . S
C673 C218 0.680 . S
C692 C176 0.655 . S
C709 C190 0.673 . S
C728 C204 0.624 . S
C745 C232 0.689 . S
C764 C274 0.610 . S
C781 C246 0.681 . S
C800 C260 0.745 . S
C817 C330 0.672 . S
C836 C288 0.645 . S
C853 C316 0.685 . S
C872 C302 0.679 . S
C889 C386 0.694 . S
C908 C344 0.693 . S
C925 C358 0.689 . S
C944 C372 0.611 . S
C961 C400 0.673 . S
C980 C442 0.625 . S
C997 C414 0.678 . S
C1016 C428 0.674 . S
C1033 C287 1.026 . S
C1052 C7 1.054 . S
C1069 C189 1.030 . S
C1088 C21 1.029 . S
C1105 C35 1.017 . S
C1124 C427 1.015 . S
C1141 C49 1.029 . S
C1160 C105 1.017 . S
C1177 C231 1.026 . S
C1196 C63 1.001 . S
C1213 C133 1.017 . S
C1232 C77 1.023 . S
C1249 C371 1.020 . S
C1268 C91 1.037 . S
C1285 C119 1.028 . S
C1304 C399 1.053 . S
C1321 C315 1.020 . S
C1340 C147 1.037 . S
C1357 C217 1.017 . S
C1376 C161 1.018 . S
C1393 C343 1.018 . S
C1412 C175 1.031 . S
C1429 C203 1.017 . S
C1448 C259 1.014 . S
C1465 C413 1.017 . S
C1484 C245 0.993 . S
C1501 C273 1.020 . S
C1520 C329 0.989 . S
C1537 C357 1.025 . S
C1556 C301 0.999 . S
C1573 C441 1.019 . S
C1592 C385 1.032 . S
C1609 C27 1.223 . S
C1628 C13 1.198 . S
C1645 C41 1.235 . S
C1664 C55 1.262 . S
C1681 C69 1.236 . S
C1700 C83 1.211 . S
C1717 C111 1.237 . S
C1736 C97 1.194 . S
C1753 C125 1.228 . S
C1772 C139 1.239 . S
C1789 C153 1.231 . S
C1808 C167 1.211 . S
C1825 C195 1.230 . S
C1844 C181 1.240 . S
C1861 C209 1.227 . S
C1880 C223 1.231 . S
C1897 C237 1.224 . S
C1916 C251 1.195 . S
C1933 C265 1.230 . S
C1952 C279 1.204 . S
C1969 C293 1.228 . S
C1988 C307 1.250 . S
C2005 C335 1.223 . S
C2024 C321 1.260 . S
C2041 C363 1.231 . S
C2060 C349 1.212 . S
C2077 C377 1.231 . S
C2096 C391 1.249 . S
C2113 C405 1.237 . S
C2132 C419 1.200 . S
C2149 C447 1.234 . S
C2168 C433 1.224 . S
C2185 C11 1.407 1_655 S
C2204 C277 1.393 . S
C2221 C25 1.408 . S
C2240 C263 1.394 . S
C2257 C249 1.408 . S
C2276 C39 1.417 1_655 S
C2293 C53 1.406 . S
C2312 C235 1.402 . S
C2329 C333 1.409 . S
C2348 C67 1.418 1_455 S
C2365 C81 1.408 . S
C2384 C319 1.416 . S
C2401 C305 1.407 . S
C2420 C95 1.392 1_455 S
C2437 C109 1.408 . S
C2456 C291 1.393 . S
C2473 C123 1.410 1_655 S
C2492 C389 1.419 . S
C2509 C137 1.410 . S
C2528 C375 1.419 . S
C2545 C151 1.408 1_655 S
C2564 C361 1.394 . S
C2581 C347 1.406 . S
C2600 C165 1.403 . S
C2617 C179 1.410 1_455 S
C2636 C445 1.419 . S
C2653 C193 1.410 . S
C2672 C431 1.419 . S
C2689 C207 1.409 1_455 S
C2708 C417 1.417 . S
C2725 C403 1.409 . S
C2744 C221 1.418 . S
