# Generated by pormake.
# Topology mon, (4)-cn, num edge types: 1
# Building blocks:
#     Node 0, Type 0, BuildingBlock: QUQFOY_clean_sbu_1, # of connection points: 4
#     Node 1, Type 0, BuildingBlock: QUQFOY_clean_sbu_1, # of connection points: 4
#     Node 2, Type 0, BuildingBlock: QUQFOY_clean_sbu_1, # of connection points: 4
#     Node 3, Type 0, BuildingBlock: QUQFOY_clean_sbu_1, # of connection points: 4
#     Node 4, Type 0, BuildingBlock: QUQFOY_clean_sbu_1, # of connection points: 4
#     Node 5, Type 0, BuildingBlock: QUQFOY_clean_sbu_1, # of connection points: 4
#     Node 6, Type 0, BuildingBlock: QUQFOY_clean_sbu_1, # of connection points: 4
#     Node 7, Type 0, BuildingBlock: QUQFOY_clean_sbu_1, # of connection points: 4
#     Node 8, Type 0, BuildingBlock: QUQFOY_clean_sbu_1, # of connection points: 4
#     Node 9, Type 0, BuildingBlock: QUQFOY_clean_sbu_1, # of connection points: 4
#     Node 10, Type 0, BuildingBlock: QUQFOY_clean_sbu_1, # of connection points: 4
#     Node 11, Type 0, BuildingBlock: QUQFOY_clean_sbu_1, # of connection points: 4
#     Node 12, Type 0, BuildingBlock: QUQFOY_clean_sbu_1, # of connection points: 4
#     Node 13, Type 0, BuildingBlock: QUQFOY_clean_sbu_1, # of connection points: 4
#     Node 14, Type 0, BuildingBlock: QUQFOY_clean_sbu_1, # of connection points: 4
#     Node 15, Type 0, BuildingBlock: QUQFOY_clean_sbu_1, # of connection points: 4
#     Edge 16, Type (0, 0), BuildingBlock: XIVTED_clean_linker_0, # of connection points: 2
#     Edge 17, Type (0, 0), BuildingBlock: XIVTED_clean_linker_0, # of connection points: 2
#     Edge 18, Type (0, 0), BuildingBlock: XIVTED_clean_linker_0, # of connection points: 2
#     Edge 19, Type (0, 0), BuildingBlock: XIVTED_clean_linker_0, # of connection points: 2
#     Edge 20, Type (0, 0), BuildingBlock: XIVTED_clean_linker_0, # of connection points: 2
#     Edge 21, Type (0, 0), BuildingBlock: XIVTED_clean_linker_0, # of connection points: 2
#     Edge 22, Type (0, 0), BuildingBlock: XIVTED_clean_linker_0, # of connection points: 2
#     Edge 23, Type (0, 0), BuildingBlock: XIVTED_clean_linker_0, # of connection points: 2
#     Edge 24, Type (0, 0), BuildingBlock: XIVTED_clean_linker_0, # of connection points: 2
#     Edge 25, Type (0, 0), BuildingBlock: XIVTED_clean_linker_0, # of connection points: 2
#     Edge 26, Type (0, 0), BuildingBlock: XIVTED_clean_linker_0, # of connection points: 2
#     Edge 27, Type (0, 0), BuildingBlock: XIVTED_clean_linker_0, # of connection points: 2
#     Edge 28, Type (0, 0), BuildingBlock: XIVTED_clean_linker_0, # of connection points: 2
#     Edge 29, Type (0, 0), BuildingBlock: XIVTED_clean_linker_0, # of connection points: 2
#     Edge 30, Type (0, 0), BuildingBlock: XIVTED_clean_linker_0, # of connection points: 2
#     Edge 31, Type (0, 0), BuildingBlock: XIVTED_clean_linker_0, # of connection points: 2
#     Edge 32, Type (0, 0), BuildingBlock: XIVTED_clean_linker_0, # of connection points: 2
#     Edge 33, Type (0, 0), BuildingBlock: XIVTED_clean_linker_0, # of connection points: 2
#     Edge 34, Type (0, 0), BuildingBlock: XIVTED_clean_linker_0, # of connection points: 2
#     Edge 35, Type (0, 0), BuildingBlock: XIVTED_clean_linker_0, # of connection points: 2
#     Edge 36, Type (0, 0), BuildingBlock: XIVTED_clean_linker_0, # of connection points: 2
#     Edge 37, Type (0, 0), BuildingBlock: XIVTED_clean_linker_0, # of connection points: 2
#     Edge 38, Type (0, 0), BuildingBlock: XIVTED_clean_linker_0, # of connection points: 2
#     Edge 39, Type (0, 0), BuildingBlock: XIVTED_clean_linker_0, # of connection points: 2
#     Edge 40, Type (0, 0), BuildingBlock: XIVTED_clean_linker_0, # of connection points: 2
#     Edge 41, Type (0, 0), BuildingBlock: XIVTED_clean_linker_0, # of connection points: 2
#     Edge 42, Type (0, 0), BuildingBlock: XIVTED_clean_linker_0, # of connection points: 2
#     Edge 43, Type (0, 0), BuildingBlock: XIVTED_clean_linker_0, # of connection points: 2
#     Edge 44, Type (0, 0), BuildingBlock: XIVTED_clean_linker_0, # of connection points: 2
#     Edge 45, Type (0, 0), BuildingBlock: XIVTED_clean_linker_0, # of connection points: 2
#     Edge 46, Type (0, 0), BuildingBlock: XIVTED_clean_linker_0, # of connection points: 2
#     Edge 47, Type (0, 0), BuildingBlock: XIVTED_clean_linker_0, # of connection points: 2
# Relax obj value: 0.202
# Max RMSD: 0.220
# Mean RMSD: 0.219
data_MOF--net-mon--node1-QUQFOY_clean_sbu_1--edge1-XIVTED_clean_linker_0
_symmetry_space_group_name_H-M    P1
_symmetry_Int_Tables_number       1
_symmetry_cell_setting            triclinic
loop_
_symmetry_equiv_pos_as_xyz
'x, y, z'
_cell_length_a     36.469784
_cell_length_b     36.476684
_cell_length_c     84.822016
_cell_angle_alpha  89.964094
_cell_angle_beta   90.050947
_cell_angle_gamma 89.969671
loop_
_atom_site_label
_atom_site_type_symbol
_atom_site_fract_x
_atom_site_fract_y
_atom_site_fract_z
_atom_type_partial_charge
O0 O 0.01975 0.04195 0.55274 0.0
Cd1 Cd 0.01773 0.05387 0.57644 0.0
Cd2 Cd 0.07245 0.00277 0.57906 0.0
O3 O 0.06958 0.00814 0.55498 0.0
O4 O 0.99756 0.10408 0.57905 0.0
O5 O 0.05449 0.08874 0.58553 0.0
C6 C 0.0293 0.1136 0.58441 0.0
C7 C 0.13106 0.98877 0.58864 0.0
C8 C 0.04511 0.02307 0.54649 0.0
C9 C 0.99847 0.98626 0.5939 0.0
O10 O 0.03031 0.97502 0.59016 0.0
O11 O 0.9882 0.01845 0.59027 0.0
O12 O 0.11284 0.96626 0.58003 0.0
O13 O 0.11611 0.01986 0.59199 0.0
O14 O 0.26078 0.71484 0.80578 0.0
Cd15 Cd 0.25071 0.71283 0.82962 0.0
Cd16 Cd 0.30166 0.76751 0.83132 0.0
O17 O 0.29312 0.76571 0.80738 0.0
O18 O 0.20099 0.69199 0.83277 0.0
O19 O 0.21586 0.74914 0.83902 0.0
C20 C 0.19129 0.72366 0.83814 0.0
C21 C 0.31603 0.82586 0.84095 0.0
C22 C 0.27798 0.74088 0.79917 0.0
C23 C 0.31993 0.69348 0.84578 0.0
O24 O 0.33096 0.72512 0.84163 0.0
O25 O 0.28722 0.68351 0.84298 0.0
O26 O 0.33778 0.80821 0.83179 0.0
O27 O 0.28552 0.81043 0.84486 0.0
O28 O 0.58959 0.95213 0.05503 0.0
Cd29 Cd 0.59259 0.94064 0.07874 0.0
Cd30 Cd 0.53871 0.99251 0.0812 0.0
O31 O 0.539 0.98482 0.05719 0.0
O32 O 0.61293 0.89043 0.08119 0.0
O33 O 0.55636 0.90573 0.08818 0.0
C34 C 0.58146 0.88086 0.08681 0.0
C35 C 0.48134 0.00773 0.09171 0.0
C36 C 0.56345 0.96986 0.04872 0.0
C37 C 0.61393 0.00885 0.09506 0.0
O38 O 0.58233 0.02055 0.09116 0.0
O39 O 0.62319 0.976 0.09213 0.0
O40 O 0.49873 0.02945 0.08243 0.0
O41 O 0.49641 0.97675 0.09519 0.0
O42 O 0.35947 0.28941 0.30766 0.0
Cd43 Cd 0.36944 0.29222 0.3315 0.0
Cd44 Cd 0.31942 0.23641 0.33342 0.0
O45 O 0.32821 0.2379 0.3095 0.0
O46 O 0.41896 0.31356 0.33466 0.0
O47 O 0.40451 0.25646 0.34119 0.0
C48 C 0.42888 0.28213 0.34023 0.0
C49 C 0.30449 0.17811 0.34301 0.0
C50 C 0.34283 0.26283 0.30118 0.0
C51 C 0.2999 0.31064 0.34747 0.0
O52 O 0.28961 0.27865 0.34351 0.0
O53 O 0.33237 0.3213 0.34463 0.0
O54 O 0.28308 0.1959 0.33373 0.0
O55 O 0.33499 0.19335 0.34707 0.0
O56 O 0.02162 0.95592 0.42354 0.0
Cd57 Cd 0.0244 0.9465 0.39952 0.0
Cd58 Cd 0.07913 0.99423 0.40129 0.0
O59 O 0.07801 0.97716 0.42427 0.0
O60 O 0.00353 0.8972 0.39532 0.0
O61 O 0.06217 0.91112 0.39177 0.0
C62 C 0.03625 0.88692 0.39154 0.0
C63 C 0.13709 0.00877 0.39137 0.0
C64 C 0.04952 0.96605 0.43137 0.0
C65 C 0.0086 0.01822 0.38608 0.0
O66 O 0.03708 0.02808 0.39359 0.0
O67 O 0.00029 0.98454 0.38497 0.0
O68 O 0.12165 0.02815 0.40214 0.0
O69 O 0.11969 0.98048 0.38612 0.0
O70 O 0.35287 0.71679 0.67768 0.0
Cd71 Cd 0.36366 0.71405 0.65392 0.0
Cd72 Cd 0.31287 0.76886 0.6518 0.0
O73 O 0.32145 0.76823 0.67576 0.0
O74 O 0.41336 0.69272 0.65125 0.0
O75 O 0.39914 0.74977 0.64452 0.0
C76 C 0.42351 0.72413 0.64576 0.0
C77 C 0.29826 0.82658 0.64146 0.0
C78 C 0.33602 0.74329 0.68412 0.0
C79 C 0.29454 0.69419 0.63795 0.0
O80 O 0.28353 0.72592 0.64199 0.0
O81 O 0.32735 0.68436 0.64064 0.0
O82 O 0.27667 0.80953 0.65091 0.0
O83 O 0.32879 0.81097 0.63772 0.0
O84 O 0.59199 0.04785 0.92735 0.0
Cd85 Cd 0.59413 0.05804 0.90351 0.0
Cd86 Cd 0.53966 0.00702 0.90171 0.0
O87 O 0.54108 0.01559 0.92565 0.0
O88 O 0.61457 0.10794 0.90041 0.0
O89 O 0.55762 0.09258 0.894 0.0
C90 C 0.58287 0.11738 0.89496 0.0
C91 C 0.4815 0.99236 0.89191 0.0
C92 C 0.56587 0.03066 0.9339 0.0
C93 C 0.61398 0.98895 0.88749 0.0
O94 O 0.58234 0.97784 0.8916 0.0
O95 O 0.62379 0.02172 0.89024 0.0
O96 O 0.49913 0.97072 0.90116 0.0
O97 O 0.49684 0.02291 0.888 0.0
O98 O 0.26224 0.28343 0.18021 0.0
Cd99 Cd 0.24997 0.28548 0.15655 0.0
Cd100 Cd 0.30084 0.23096 0.15421 0.0
O101 O 0.2936 0.23198 0.17824 0.0
O102 O 0.19945 0.30513 0.15414 0.0
O103 O 0.21522 0.24835 0.14767 0.0
C104 C 0.19007 0.2732 0.14895 0.0
C105 C 0.31553 0.17327 0.14388 0.0
C106 C 0.27953 0.25713 0.18662 0.0
C107 C 0.31797 0.30551 0.13987 0.0
O108 O 0.32929 0.27395 0.144 0.0
O109 O 0.28523 0.31527 0.14275 0.0
O110 O 0.33742 0.19064 0.15309 0.0
O111 O 0.28462 0.1885 0.1404 0.0
O112 O 0.84933 0.20946 0.18036 0.0
Cd113 Cd 0.86261 0.20663 0.15682 0.0
Cd114 Cd 0.81306 0.26252 0.15337 0.0
O115 O 0.81774 0.26055 0.17751 0.0
O116 O 0.9132 0.18702 0.15471 0.0
O117 O 0.89745 0.24369 0.14798 0.0
C118 C 0.9226 0.21887 0.14941 0.0
C119 C 0.79914 0.32091 0.14351 0.0
C120 C 0.83123 0.23579 0.18629 0.0
C121 C 0.79567 0.18819 0.13886 0.0
O122 O 0.78506 0.22037 0.14237 0.0
O123 O 0.82749 0.17726 0.14276 0.0
O124 O 0.77659 0.30291 0.15217 0.0
O125 O 0.83025 0.30588 0.14025 0.0
O126 O 0.76143 0.78407 0.67835 0.0
Cd127 Cd 0.75071 0.78591 0.65456 0.0
Cd128 Cd 0.80172 0.73083 0.65289 0.0
O129 O 0.79339 0.73289 0.67684 0.0
O130 O 0.70104 0.80715 0.65162 0.0
O131 O 0.71529 0.74985 0.64536 0.0
C132 C 0.69093 0.77555 0.64633 0.0
C133 C 0.81681 0.67257 0.64329 0.0
C134 C 0.77861 0.75802 0.685 0.0
C135 C 0.81974 0.80485 0.63829 0.0
O136 O 0.83072 0.77325 0.64253 0.0
O137 O 0.78705 0.81496 0.64104 0.0
O138 O 0.8383 0.69045 0.65249 0.0
O139 O 0.78611 0.68764 0.63937 0.0
O140 O 0.76286 0.21338 0.30936 0.0
Cd141 Cd 0.75475 0.21674 0.33347 0.0
Cd142 Cd 0.80303 0.27064 0.33106 0.0
O143 O 0.78562 0.26912 0.30813 0.0
O144 O 0.70571 0.1959 0.33825 0.0
O145 O 0.71973 0.2546 0.34149 0.0
C146 C 0.69561 0.22863 0.34209 0.0
C147 C 0.81723 0.32853 0.34109 0.0
C148 C 0.77352 0.2407 0.30129 0.0
C149 C 0.82707 0.20043 0.34637 0.0
O150 O 0.83696 0.22865 0.33868 0.0
O151 O 0.79334 0.19253 0.34774 0.0
O152 O 0.83662 0.31343 0.33024 0.0
O153 O 0.78907 0.31088 0.34632 0.0
O154 O 0.85466 0.78514 0.8064 0.0
Cd155 Cd 0.86504 0.78774 0.8302 0.0
Cd156 Cd 0.81522 0.73215 0.83222 0.0
O157 O 0.82401 0.73328 0.80829 0.0
O158 O 0.9147 0.80882 0.83325 0.0
O159 O 0.90009 0.75168 0.83967 0.0
C160 C 0.92458 0.77724 0.83868 0.0
C161 C 0.801 0.67394 0.84209 0.0
C162 C 0.83827 0.75838 0.79995 0.0
C163 C 0.79568 0.80637 0.84621 0.0
O164 O 0.78523 0.77446 0.84218 0.0
O165 O 0.82825 0.81682 0.84346 0.0
O166 O 0.77935 0.69123 0.83273 0.0
O167 O 0.83132 0.68963 0.84606 0.0
O168 O 0.52221 0.54204 0.05665 0.0
Cd169 Cd 0.52047 0.55319 0.0804 0.0
Cd170 Cd 0.57531 0.50193 0.08231 0.0
O171 O 0.57321 0.50983 0.05833 0.0
O172 O 0.49996 0.60324 0.0831 0.0
O173 O 0.55709 0.5883 0.08941 0.0
C174 C 0.53178 0.61303 0.08828 0.0
C175 C 0.63362 0.48681 0.09191 0.0
C176 C 0.54818 0.52463 0.05009 0.0
C177 C 0.50113 0.48464 0.09698 0.0
O178 O 0.53272 0.47345 0.09283 0.0
O179 O 0.49114 0.5173 0.09406 0.0
O180 O 0.61552 0.46516 0.08286 0.0
O181 O 0.61872 0.51765 0.0957 0.0
O182 O 0.0947 0.45232 0.55662 0.0
Cd183 Cd 0.09635 0.44047 0.58031 0.0
Cd184 Cd 0.04114 0.49103 0.5823 0.0
O185 O 0.04279 0.483 0.55832 0.0
O186 O 0.11707 0.39044 0.58283 0.0
O187 O 0.05978 0.40494 0.58903 0.0
C188 C 0.08521 0.38035 0.58785 0.0
C189 C 0.98301 0.50615 0.59205 0.0
C190 C 0.06824 0.46907 0.55007 0.0
C191 C 0.11527 0.50895 0.59689 0.0
O192 O 0.08373 0.51999 0.59258 0.0
O193 O 0.12533 0.47623 0.59417 0.0
O194 O 0.00082 0.52766 0.58284 0.0
O195 O 0.99809 0.47541 0.59591 0.0
O196 O 0.52342 0.45293 0.92808 0.0
Cd197 Cd 0.52138 0.44348 0.9042 0.0
Cd198 Cd 0.57652 0.49384 0.90273 0.0
O199 O 0.57489 0.48436 0.92662 0.0
O200 O 0.50085 0.39374 0.90076 0.0
O201 O 0.55794 0.40917 0.89463 0.0
C202 C 0.53261 0.3844 0.89537 0.0
C203 C 0.63488 0.50828 0.89312 0.0
C204 C 0.54983 0.46943 0.93476 0.0
C205 C 0.50252 0.51316 0.88842 0.0
O206 O 0.53426 0.52377 0.89265 0.0
O207 O 0.49225 0.48046 0.89102 0.0
O208 O 0.6174 0.52977 0.90247 0.0
O209 O 0.61929 0.47799 0.88904 0.0
O210 O 0.0931 0.5498 0.42914 0.0
Cd211 Cd 0.09617 0.56017 0.40534 0.0
Cd212 Cd 0.042 0.50863 0.40302 0.0
O213 O 0.04284 0.51665 0.427 0.0
O214 O 0.11664 0.61011 0.40241 0.0
O215 O 0.06008 0.59464 0.39545 0.0
C216 C 0.08528 0.61945 0.39658 0.0
C217 C 0.98415 0.49321 0.39308 0.0
C218 C 0.06707 0.53201 0.43546 0.0
C219 C 0.11695 0.49143 0.3892 0.0
O220 O 0.08515 0.48012 0.39295 0.0
O221 O 0.12659 0.5241 0.39226 0.0
O222 O 0.00208 0.47168 0.40227 0.0
O223 O 0.99903 0.52407 0.3893 0.0
H224 H 0.98017 0.16993 0.58671 0.0
H225 H 0.13445 0.32396 0.58961 0.0
H226 H 0.09561 0.14567 0.59093 0.0
H227 H 0.01875 0.34749 0.59314 0.0
H228 H 0.12091 0.25861 0.59173 0.0
H229 H 0.99363 0.23482 0.59062 0.0
C230 C 0.00835 0.17821 0.58859 0.0
C231 C 0.03686 0.15236 0.58835 0.0
C232 C 0.09849 0.27805 0.59222 0.0
C233 C 0.0525 0.22676 0.59272 0.0
C234 C 0.10619 0.3154 0.591 0.0
C235 C 0.07764 0.34122 0.59105 0.0
C236 C 0.06192 0.26633 0.59333 0.0
C237 C 0.0416 0.32854 0.59298 0.0
C238 C 0.01601 0.2153 0.59085 0.0
C239 C 0.0728 0.16467 0.59097 0.0
N240 N 0.03473 0.29196 0.59385 0.0
N241 N 0.07965 0.20105 0.59287 0.0
H242 H 0.98029 0.827 0.84108 0.0
H243 H 0.13561 0.674 0.84092 0.0
H244 H 0.9575 0.71125 0.84499 0.0
H245 H 0.15857 0.78978 0.84436 0.0
H246 H 0.07049 0.68698 0.84445 0.0
H247 H 0.04553 0.81409 0.84433 0.0
C248 C 0.98897 0.79887 0.84279 0.0
C249 C 0.96344 0.7701 0.8426 0.0
C250 C 0.08977 0.70954 0.84462 0.0
C251 C 0.03821 0.75509 0.84618 0.0
C252 C 0.12699 0.70215 0.84258 0.0
C253 C 0.15253 0.7309 0.84218 0.0
C254 C 0.07788 0.74599 0.84609 0.0
C255 C 0.13981 0.7668 0.84451 0.0
C256 C 0.02626 0.79153 0.84467 0.0
C257 C 0.97625 0.73425 0.84498 0.0
N258 N 0.10331 0.77337 0.84617 0.0
N259 N 0.0128 0.72771 0.84648 0.0
H260 H 0.59816 0.64533 0.09442 0.0
H261 H 0.51549 0.84888 0.09397 0.0
H262 H 0.48274 0.66958 0.09002 0.0
H263 H 0.63051 0.82429 0.08829 0.0
H264 H 0.50327 0.78339 0.09746 0.0
H265 H 0.61055 0.71097 0.09715 0.0
C266 C 0.57538 0.66439 0.09423 0.0
C267 C 0.5394 0.65199 0.09182 0.0
C268 C 0.53122 0.7924 0.09559 0.0
C269 C 0.55338 0.72706 0.0949 0.0
C270 C 0.53822 0.82978 0.09364 0.0
C271 C 0.57402 0.84203 0.09067 0.0
C272 C 0.56024 0.76713 0.09464 0.0
C273 C 0.60243 0.81604 0.0904 0.0
C274 C 0.58248 0.70186 0.09573 0.0
C275 C 0.51094 0.67794 0.0917 0.0
N276 N 0.59491 0.77982 0.09226 0.0
N277 N 0.51856 0.71424 0.0931 0.0
H278 H 0.64014 0.17933 0.34656 0.0
H279 H 0.48446 0.33212 0.34225 0.0
H280 H 0.66256 0.2955 0.34609 0.0
H281 H 0.46177 0.21665 0.34758 0.0
H282 H 0.54957 0.31964 0.34613 0.0
H283 H 0.5749 0.19264 0.34947 0.0
C284 C 0.63139 0.20766 0.34725 0.0
C285 C 0.65682 0.23637 0.34591 0.0
C286 C 0.53036 0.29704 0.34662 0.0
C287 C 0.58204 0.2518 0.3491 0.0
C288 C 0.49313 0.30415 0.34439 0.0
C289 C 0.46766 0.27531 0.34442 0.0
C290 C 0.54233 0.26078 0.34874 0.0
C291 C 0.48047 0.23968 0.34737 0.0
C292 C 0.59409 0.21524 0.34891 0.0
C293 C 0.64391 0.27252 0.34699 0.0
N294 N 0.51697 0.23336 0.34923 0.0
N295 N 0.60737 0.27921 0.34833 0.0
H296 H 0.10313 0.85414 0.38722 0.0
H297 H 0.01977 0.65107 0.38826 0.0
H298 H 0.98717 0.83066 0.38855 0.0
H299 H 0.1345 0.67574 0.39491 0.0
H300 H 0.00796 0.7163 0.38368 0.0
H301 H 0.11557 0.78841 0.38525 0.0
C302 C 0.08027 0.83522 0.38689 0.0
C303 C 0.04408 0.84789 0.38823 0.0
C304 C 0.03576 0.70735 0.386 0.0
C305 C 0.05811 0.77265 0.38606 0.0
C306 C 0.04253 0.67012 0.38858 0.0
C307 C 0.07811 0.658 0.39214 0.0
C308 C 0.0648 0.73258 0.38694 0.0
C309 C 0.10657 0.6839 0.39237 0.0
C310 C 0.08738 0.79768 0.38582 0.0
C311 C 0.01552 0.8221 0.38769 0.0
N312 N 0.09926 0.71997 0.38991 0.0
N313 N 0.02316 0.7857 0.38678 0.0
H314 H 0.47897 0.67398 0.64372 0.0
H315 H 0.63551 0.82566 0.64382 0.0
H316 H 0.45698 0.78985 0.63951 0.0
H317 H 0.65757 0.70969 0.64025 0.0
H318 H 0.57022 0.81322 0.64045 0.0
H319 H 0.54434 0.68635 0.64065 0.0
C320 C 0.48786 0.70202 0.64199 0.0
C321 C 0.4625 0.73098 0.64202 0.0
C322 C 0.58934 0.7905 0.64023 0.0
C323 C 0.53743 0.74538 0.63865 0.0
C324 C 0.62665 0.79757 0.64217 0.0
C325 C 0.65201 0.76862 0.64247 0.0
C326 C 0.57717 0.75415 0.63875 0.0
C327 C 0.63898 0.73283 0.64017 0.0
C328 C 0.52522 0.70906 0.64022 0.0
C329 C 0.47559 0.76671 0.63962 0.0
N330 N 0.6024 0.72657 0.63859 0.0
N331 N 0.5122 0.77296 0.63822 0.0
H332 H 0.59887 0.35272 0.88845 0.0
H333 H 0.51667 0.14919 0.88797 0.0
H334 H 0.48361 0.32802 0.89296 0.0
H335 H 0.63187 0.17383 0.89292 0.0
H336 H 0.50422 0.21467 0.88456 0.0
H337 H 0.61133 0.28733 0.88484 0.0
C338 C 0.57614 0.33362 0.88848 0.0
C339 C 0.5402 0.34578 0.8912 0.0
C340 C 0.53226 0.20567 0.88624 0.0
C341 C 0.55426 0.271 0.88713 0.0
C342 C 0.53939 0.1683 0.88813 0.0
C343 C 0.5753 0.15609 0.89092 0.0
C344 C 0.56126 0.23095 0.88707 0.0
C345 C 0.6037 0.18207 0.89097 0.0
C346 C 0.58328 0.29629 0.88647 0.0
C347 C 0.51179 0.31982 0.89107 0.0
N348 N 0.59604 0.21828 0.8892 0.0
N349 N 0.51946 0.28364 0.88919 0.0
H350 H 0.15881 0.20637 0.14277 0.0
H351 H 0.95379 0.28553 0.14283 0.0
H352 H 0.13258 0.32124 0.14754 0.0
H353 H 0.98013 0.17083 0.14828 0.0
H354 H 0.01918 0.29893 0.13982 0.0
H355 H 0.09336 0.19289 0.14003 0.0
C356 C 0.13935 0.2288 0.14305 0.0
C357 C 0.15115 0.26495 0.14553 0.0
C358 C 0.01059 0.2708 0.14155 0.0
C359 C 0.07629 0.24972 0.14245 0.0
C360 C 0.97326 0.26312 0.14322 0.0
C361 C 0.9615 0.22705 0.14596 0.0
C362 C 0.03631 0.24218 0.14255 0.0
C363 C 0.98797 0.19909 0.14633 0.0
C364 C 0.10199 0.22107 0.14155 0.0
C365 C 0.12469 0.29292 0.14578 0.0
N366 N 0.02413 0.20726 0.14473 0.0
N367 N 0.08851 0.2847 0.14435 0.0
H368 H 0.10726 0.96694 0.45165 0.0
H369 H 0.98911 0.03327 0.52525 0.0
H370 H 0.98909 0.97287 0.45035 0.0
H371 H 0.10112 0.99567 0.52884 0.0
H372 H 0.98901 0.01598 0.49731 0.0
H373 H 0.10578 0.9805 0.47976 0.0
C374 C 0.08094 0.97069 0.45734 0.0
C375 C 0.04824 0.96884 0.44868 0.0
C376 C 0.01354 0.01155 0.50426 0.0
C377 C 0.04638 0.98509 0.4808 0.0
C378 C 0.01375 0.02172 0.52014 0.0
C379 C 0.04519 0.01593 0.52937 0.0
C380 C 0.04512 0.99591 0.49759 0.0
C381 C 0.07624 0.00057 0.52218 0.0
C382 C 0.08012 0.9785 0.47339 0.0
C383 C 0.01491 0.97387 0.45665 0.0
N384 N 0.07543 0.99118 0.50673 0.0
N385 N 0.01482 0.98221 0.47227 0.0
H386 H 0.27267 0.6833 0.77859 0.0
H387 H 0.31881 0.80216 0.70246 0.0
H388 H 0.29615 0.79919 0.78068 0.0
H389 H 0.33906 0.68566 0.70476 0.0
H390 H 0.30306 0.80171 0.73044 0.0
H391 H 0.28814 0.68378 0.75046 0.0
C392 C 0.28061 0.70889 0.77309 0.0
C393 C 0.28322 0.74125 0.78195 0.0
C394 C 0.31119 0.77631 0.72484 0.0
C395 C 0.301 0.74191 0.74997 0.0
C396 C 0.32021 0.77654 0.70889 0.0
C397 C 0.33032 0.7439 0.70131 0.0
C398 C 0.31165 0.74311 0.73319 0.0
C399 C 0.33167 0.71147 0.7102 0.0
C400 C 0.28976 0.70906 0.75711 0.0
C401 C 0.29394 0.77361 0.77428 0.0
N402 N 0.32207 0.71181 0.72568 0.0
N403 N 0.30238 0.77313 0.75872 0.0
H404 H 0.5047 0.98871 0.03056 0.0
H405 H 0.62354 0.03518 0.95451 0.0
H406 H 0.62081 0.96644 0.02799 0.0
H407 H 0.5074 0.01285 0.95235 0.0
H408 H 0.62301 0.01913 0.98259 0.0
H409 H 0.50514 0.00529 0.00264 0.0
C410 C 0.53023 0.98704 0.02408 0.0
C411 C 0.56276 0.97611 0.03156 0.0
C412 C 0.59768 0.01791 0.97593 0.0
C413 C 0.56355 0.99573 -0.00023 0.0
C414 C 0.59788 0.02739 0.95999 0.0
C415 C 0.56547 0.02525 0.95112 0.0
C416 C 0.56476 0.00682 0.98304 0.0
C417 C 0.53303 0.01469 0.95875 0.0
C418 C 0.53045 0.99654 0.00817 0.0
C419 C 0.59508 0.97446 0.02262 0.0
N420 N 0.53348 0.00593 0.9743 0.0
N421 N 0.59475 0.98454 0.00719 0.0
H422 H 0.2986 0.19891 0.20505 0.0
H423 H 0.34651 0.32014 0.28035 0.0
H424 H 0.27718 0.31523 0.20701 0.0
H425 H 0.32577 0.20377 0.28296 0.0
H426 H 0.33007 0.31886 0.25231 0.0
H427 H 0.31609 0.20021 0.23285 0.0
C428 C 0.29731 0.22468 0.21137 0.0
C429 C 0.28634 0.25701 0.20375 0.0
C430 C 0.32929 0.29364 0.25905 0.0
C431 C 0.30699 0.25877 0.23541 0.0
C432 C 0.339 0.29427 0.27497 0.0
C433 C 0.33739 0.26202 0.28396 0.0
C434 C 0.31848 0.26045 0.25209 0.0
C435 C 0.32719 0.2293 0.27646 0.0
C436 C 0.30734 0.22539 0.22721 0.0
C437 C 0.2852 0.28964 0.21249 0.0
N438 N 0.31816 0.22934 0.26095 0.0
N439 N 0.29575 0.28977 0.22786 0.0
H440 H 0.80594 0.29371 0.20337 0.0
H441 H 0.77639 0.17929 0.28268 0.0
H442 H 0.83727 0.18 0.2079 0.0
H443 H 0.77724 0.29754 0.28059 0.0
H444 H 0.78982 0.17737 0.25434 0.0
H445 H 0.78789 0.29404 0.231 0.0
C446 C 0.80923 0.26883 0.21021 0.0
C447 C 0.82326 0.2368 0.20333 0.0
C448 C 0.78679 0.20367 0.26011 0.0
C449 C 0.80214 0.23689 0.23496 0.0
C450 C 0.77877 0.20479 0.27621 0.0
C451 C 0.77589 0.23863 0.28397 0.0
C452 C 0.79148 0.23661 0.25177 0.0
C453 C 0.7795 0.27086 0.27508 0.0
C454 C 0.79884 0.26903 0.22598 0.0
C455 C 0.82684 0.20537 0.21277 0.0
N456 N 0.78719 0.26905 0.25947 0.0
N457 N 0.81615 0.20613 0.22812 0.0
H458 H 0.77332 0.81602 0.70537 0.0
H459 H 0.82261 0.69898 0.7817 0.0
H460 H 0.79789 0.70029 0.70366 0.0
H461 H 0.84013 0.81587 0.77919 0.0
H462 H 0.80674 0.69878 0.75373 0.0
H463 H 0.78953 0.81631 0.73343 0.0
C464 C 0.78167 0.79062 0.71094 0.0
C465 C 0.78433 0.75808 0.7022 0.0
C466 C 0.81432 0.72442 0.75928 0.0
C467 C 0.80299 0.75831 0.73411 0.0
C468 C 0.82341 0.72456 0.77522 0.0
C469 C 0.83274 0.7575 0.78274 0.0
C470 C 0.81394 0.75754 0.75086 0.0
C471 C 0.83334 0.78986 0.7738 0.0
C472 C 0.79124 0.79089 0.72687 0.0
C473 C 0.7956 0.726 0.70995 0.0
N474 N 0.82367 0.78914 0.75832 0.0
N475 N 0.80445 0.72691 0.72548 0.0
H476 H 0.60884 0.48442 0.95336 0.0
H477 H 0.4905 0.53046 0.02952 0.0
H478 H 0.49196 0.46633 0.95526 0.0
H479 H 0.60605 0.50505 0.03161 0.0
H480 H 0.49066 0.5151 0.00139 0.0
H481 H 0.6085 0.49877 0.98147 0.0
C482 C 0.58314 0.48319 0.95973 0.0
C483 C 0.55037 0.47414 0.952 0.0
C484 C 0.51593 0.51298 0.00804 0.0
C485 C 0.54971 0.4912 0.98404 0.0
C486 C 0.51595 0.52206 0.02403 0.0
C487 C 0.54831 0.51898 0.03289 0.0
C488 C 0.54861 0.50133 0.00088 0.0
C489 C 0.58046 0.50767 0.02522 0.0
C490 C 0.58298 0.49139 0.97576 0.0
C491 C 0.51785 0.47293 0.96082 0.0
N492 N 0.57982 0.49935 0.00964 0.0
N493 N 0.51826 0.48176 0.97638 0.0
H494 H 0.12641 0.46624 0.52971 0.0
H495 H 0.00816 0.51349 0.4535 0.0
H496 H 0.00994 0.48708 0.53149 0.0
H497 H 0.12422 0.53577 0.45635 0.0
H498 H 0.00836 0.49684 0.48139 0.0
H499 H 0.12624 0.48332 0.50175 0.0
C500 C 0.10076 0.47395 0.52417 0.0
C501 C 0.06814 0.47531 0.5329 0.0
C502 C 0.03372 0.50564 0.47594 0.0
C503 C 0.06783 0.49495 0.50111 0.0
C504 C 0.03363 0.51518 0.46005 0.0
C505 C 0.06623 0.52608 0.45264 0.0
C506 C 0.06675 0.50638 0.48441 0.0
C507 C 0.09845 0.52777 0.46166 0.0
C508 C 0.10076 0.48403 0.50829 0.0
C509 C 0.03572 0.4858 0.5252 0.0
N510 N 0.098 0.51763 0.47708 0.0
N511 N 0.03637 0.49515 0.50972 0.0
H512 H 0.25595 0.87887 0.65508 0.0
H513 H 0.18155 0.94458 0.57489 0.0
H514 H 0.31261 0.85311 0.6119 0.0
H515 H 0.16089 0.00621 0.61731 0.0
H516 H 0.23377 0.91513 0.58774 0.0
H517 H 0.2253 0.92979 0.64179 0.0
C518 C 0.26249 0.8845 0.64286 0.0
C519 C 0.28641 0.8616 0.63448 0.0
C520 C 0.21844 0.93574 0.59414 0.0
C521 C 0.25084 0.91917 0.61911 0.0
C522 C 0.18857 0.95244 0.58683 0.0
C523 C 0.16674 0.97744 0.59516 0.0
C524 C 0.22582 0.94328 0.61005 0.0
C525 C 0.17704 0.98693 0.61054 0.0
C526 C 0.24509 0.91363 0.63529 0.0
C527 C 0.2942 0.87013 0.61873 0.0
N528 N 0.20537 0.96911 0.61766 0.0
N529 N 0.27571 0.89773 0.61141 0.0
H530 H 0.35842 0.87708 0.82667 0.0
H531 H 0.4302 0.95001 0.90615 0.0
H532 H 0.30091 0.85482 0.87001 0.0
H533 H 0.45287 0.00705 0.86271 0.0
H534 H 0.37832 0.91961 0.89352 0.0
H535 H 0.38854 0.9292 0.83923 0.0
C536 C 0.3516 0.88372 0.83877 0.0
C537 C 0.32761 0.86145 0.84742 0.0
C538 C 0.39401 0.93942 0.88683 0.0
C539 C 0.36255 0.92043 0.86197 0.0
C540 C 0.4237 0.95667 0.89402 0.0
C541 C 0.44602 0.9806 0.88536 0.0
C542 C 0.3873 0.94535 0.87073 0.0
C543 C 0.43635 0.98859 0.86974 0.0
C544 C 0.36868 0.91354 0.84592 0.0
C545 C 0.31941 0.8713 0.86299 0.0
N546 N 0.40819 0.97025 0.86278 0.0
N547 N 0.3376 0.89959 0.86992 0.0
H548 H 0.45383 0.99114 0.12089 0.0
H549 H 0.2991 0.14602 0.11464 0.0
H550 H 0.43021 0.05246 0.0786 0.0
H551 H 0.35977 0.12182 0.15705 0.0
H552 H 0.33041 0.09484 0.10143 0.0
H553 H 0.40252 0.02233 0.13407 0.0
C554 C 0.43721 0.01037 0.11427 0.0
C555 C 0.44646 0.01977 0.09876 0.0
C556 C 0.33612 0.10028 0.11374 0.0
C557 C 0.38802 0.05504 0.11359 0.0
C558 C 0.31819 0.12927 0.12128 0.0
C559 C 0.32739 0.13833 0.13684 0.0
C560 C 0.36283 0.08006 0.12196 0.0
C561 C 0.35239 0.11596 0.14494 0.0
C562 C 0.40813 0.02822 0.12179 0.0
C563 C 0.42421 0.04493 0.09067 0.0
N564 N 0.36952 0.08802 0.13737 0.0
N565 N 0.39618 0.06196 0.09822 0.0
H566 H 0.16381 0.99625 0.36169 0.0
H567 H 0.31999 0.14812 0.3719 0.0
H568 H 0.18992 0.04942 0.40569 0.0
H569 H 0.26118 0.12777 0.32865 0.0
H570 H 0.28854 0.09552 0.38395 0.0
H571 H 0.21579 0.02793 0.34934 0.0
C572 C 0.18106 0.0138 0.36883 0.0
C573 C 0.17228 0.02086 0.38462 0.0
C574 C 0.28326 0.10213 0.37171 0.0
C575 C 0.23148 0.05681 0.37069 0.0
C576 C 0.30127 0.13196 0.36483 0.0
C577 C 0.29259 0.1425 0.34938 0.0
C578 C 0.25695 0.08266 0.36295 0.0
C579 C 0.2681 0.12079 0.3407 0.0
C580 C 0.21056 0.03194 0.36179 0.0
C581 C 0.19546 0.04382 0.39339 0.0
N582 N 0.25083 0.09209 0.34765 0.0
N583 N 0.22379 0.06132 0.38627 0.0
H584 H 0.97176 0.01691 0.35805 0.0
H585 H 0.82641 0.16456 0.37461 0.0
H586 H 0.98841 0.08238 0.39978 0.0
H587 H 0.89046 0.17901 0.33234 0.0
H588 H 0.87284 0.121 0.38442 0.0
H589 H 0.92841 0.06348 0.34818 0.0
C590 C 0.96627 0.04108 0.36508 0.0
C591 C 0.98367 0.04616 0.37966 0.0
C592 C 0.87654 0.13393 0.37303 0.0
C593 C 0.93385 0.09816 0.36878 0.0
C594 C 0.85024 0.15853 0.36744 0.0
C595 C 0.85496 0.17538 0.35274 0.0
C596 C 0.90679 0.12531 0.36355 0.0
C597 C 0.88618 0.16675 0.34382 0.0
C598 C 0.94178 0.06746 0.35946 0.0
C599 C 0.97572 0.07781 0.3884 0.0
N600 N 0.91077 0.14178 0.34926 0.0
N601 N 0.95085 0.10248 0.38294 0.0
H602 H 0.68489 0.99462 0.10394 0.0
H603 H 0.72562 0.20219 0.12896 0.0
H604 H 0.60449 0.08151 0.10206 0.0
H605 H 0.80624 0.11562 0.13161 0.0
H606 H 0.68143 0.15845 0.11845 0.0
H607 H 0.72988 0.03839 0.11396 0.0
C608 C 0.6766 0.02283 0.10571 0.0
C609 C 0.64081 0.03438 0.10214 0.0
C610 C 0.70882 0.14902 0.12128 0.0
C611 C 0.69232 0.08469 0.11349 0.0
C612 C 0.73415 0.17403 0.12724 0.0
C613 C 0.76972 0.16257 0.13123 0.0
C614 C 0.71902 0.11219 0.1193 0.0
C615 C 0.77914 0.1257 0.12871 0.0
C616 C 0.70237 0.04784 0.11139 0.0
C617 C 0.63172 0.07132 0.10465 0.0
N618 N 0.75388 0.10179 0.12296 0.0
N619 N 0.65732 0.09514 0.11014 0.0
H620 H 0.72367 0.79386 0.8537 0.0
H621 H 0.68515 0.00184 0.87879 0.0
H622 H 0.80668 0.87826 0.85428 0.0
H623 H 0.60326 0.91642 0.88044 0.0
H624 H 0.72959 0.95723 0.86909 0.0
H625 H 0.67903 0.83841 0.86331 0.0
C626 C 0.7326 0.82169 0.85594 0.0
C627 C 0.76902 0.83231 0.85315 0.0
C628 C 0.70188 0.94826 0.87153 0.0
C629 C 0.7179 0.88357 0.86403 0.0
C630 C 0.67641 0.97377 0.87702 0.0
C631 C 0.64039 0.96287 0.88047 0.0
C632 C 0.69131 0.91156 0.86947 0.0
C633 C 0.63072 0.92608 0.87796 0.0
C634 C 0.70704 0.84715 0.86138 0.0
C635 C 0.77894 0.86879 0.85626 0.0
N636 N 0.65605 0.90174 0.87265 0.0
N637 N 0.7535 0.89312 0.86148 0.0
H638 H 0.89185 0.79299 0.63089 0.0
H639 H 0.92689 0.99905 0.60211 0.0
H640 H 0.80754 0.87614 0.62945 0.0
H641 H 0.01041 0.91506 0.60277 0.0
H642 H 0.88308 0.95485 0.61271 0.0
H643 H 0.93568 0.83749 0.62065 0.0
C644 C 0.88247 0.82054 0.62834 0.0
C645 C 0.84592 0.83082 0.63105 0.0
C646 C 0.91102 0.94614 0.61058 0.0
C647 C 0.89613 0.88205 0.61943 0.0
C648 C 0.93612 0.9714 0.60459 0.0
C649 C 0.9724 0.96075 0.6015 0.0
C650 C 0.92226 0.90993 0.61351 0.0
C651 C 0.98274 0.92452 0.60493 0.0
C652 C 0.90758 0.84599 0.62253 0.0
C653 C 0.83541 0.86696 0.62753 0.0
N654 N 0.95776 0.90041 0.6107 0.0
N655 N 0.86043 0.89128 0.62195 0.0
H656 H 0.75705 0.37268 0.15753 0.0
H657 H 0.68384 0.44271 0.07788 0.0
H658 H 0.81435 0.34899 0.1143 0.0
H659 H 0.66337 0.50261 0.12078 0.0
H660 H 0.73577 0.41233 0.09055 0.0
H661 H 0.72686 0.42445 0.14466 0.0
C662 C 0.76385 0.37898 0.14539 0.0
C663 C 0.78782 0.35643 0.13687 0.0
C664 C 0.72055 0.43276 0.0971 0.0
C665 C 0.75274 0.41492 0.12196 0.0
C666 C 0.69082 0.44999 0.0899 0.0
C667 C 0.66911 0.47477 0.0984 0.0
C668 C 0.7279 0.43957 0.11307 0.0
C669 C 0.67941 0.48351 0.11387 0.0
C670 C 0.74671 0.40858 0.13807 0.0
C671 C 0.79592 0.36575 0.12123 0.0
N672 N 0.70758 0.4652 0.12087 0.0
N673 N 0.77764 0.3938 0.11412 0.0
H674 H 0.85768 0.38191 0.32705 0.0
H675 H 0.93386 0.44937 0.40714 0.0
H676 H 0.80503 0.35418 0.37097 0.0
H677 H 0.95475 0.50866 0.36409 0.0
H678 H 0.88198 0.41902 0.39451 0.0
H679 H 0.88847 0.433 0.34008 0.0
C680 C 0.85207 0.38708 0.33939 0.0
C681 C 0.82929 0.36353 0.34803 0.0
C682 C 0.8973 0.43926 0.3879 0.0
C683 C 0.86495 0.42143 0.36308 0.0
C684 C 0.92699 0.45649 0.39508 0.0
C685 C 0.94879 0.4811 0.38653 0.0
C686 C 0.89003 0.44592 0.3719 0.0
C687 C 0.93864 0.48968 0.37103 0.0
C688 C 0.86955 0.41633 0.34681 0.0
C689 C 0.82261 0.3716 0.36392 0.0
N690 N 0.91045 0.4714 0.36405 0.0
N691 N 0.84109 0.39941 0.37106 0.0
H692 H 0.93205 0.54924 0.57791 0.0
H693 H 0.86017 0.62186 0.65746 0.0
H694 H 0.95445 0.49156 0.62124 0.0
H695 H 0.80197 0.64362 0.61419 0.0
H696 H 0.89085 0.57014 0.64481 0.0
H697 H 0.88041 0.57994 0.5906 0.0
C698 C 0.92554 0.54251 0.59004 0.0
C699 C 0.94769 0.51825 0.59864 0.0
C700 C 0.87073 0.58561 0.63817 0.0
C701 C 0.88927 0.55385 0.61333 0.0
C702 C 0.85332 0.6152 0.64536 0.0
C703 C 0.82892 0.63719 0.63676 0.0
C704 C 0.86448 0.57868 0.62212 0.0
C705 C 0.82075 0.62734 0.62118 0.0
C706 C 0.896 0.55993 0.59726 0.0
C707 C 0.93804 0.51023 0.61425 0.0
N708 N 0.83922 0.59928 0.61421 0.0
N709 N 0.91002 0.52872 0.62125 0.0
H710 H 0.7593 0.62209 0.82784 0.0
H711 H 0.68606 0.55077 0.90742 0.0
H712 H 0.81547 0.64584 0.87139 0.0
H713 H 0.66389 0.49326 0.86406 0.0
H714 H 0.73813 0.58097 0.89487 0.0
H715 H 0.72904 0.57022 0.84052 0.0
C716 C 0.76581 0.61583 0.84002 0.0
C717 C 0.78944 0.63845 0.84869 0.0
C718 C 0.7225 0.5611 0.88818 0.0
C719 C 0.75432 0.57975 0.86337 0.0
C720 C 0.6927 0.54397 0.89532 0.0
C721 C 0.67046 0.51996 0.88666 0.0
C722 C 0.72942 0.55498 0.87213 0.0
C723 C 0.68033 0.51178 0.87109 0.0
C724 C 0.74863 0.58615 0.84724 0.0
C725 C 0.79724 0.62908 0.86435 0.0
N726 N 0.70861 0.53001 0.86417 0.0
N727 N 0.77897 0.60092 0.87134 0.0
H728 H 0.51472 0.58533 0.88108 0.0
H729 H 0.30727 0.62233 0.85458 0.0
H730 H 0.43094 0.50172 0.87993 0.0
H731 H 0.39227 0.70467 0.85314 0.0
H732 H 0.35188 0.57827 0.86465 0.0
H733 H 0.47017 0.62965 0.87113 0.0
C734 C 0.48703 0.5762 0.87865 0.0
C735 C 0.47657 0.5397 0.88137 0.0
C736 C 0.36076 0.606 0.86217 0.0
C737 C 0.42533 0.59045 0.87009 0.0
C738 C 0.33525 0.63125 0.85647 0.0
C739 C 0.34602 0.66728 0.85297 0.0
C740 C 0.39735 0.61682 0.86441 0.0
C741 C 0.38271 0.6772 0.85565 0.0
C742 C 0.46157 0.60158 0.87301 0.0
C743 C 0.44027 0.52953 0.87801 0.0
N744 N 0.40706 0.65207 0.86117 0.0
N745 N 0.41595 0.55479 0.8726 0.0
H746 H 0.18663 0.4968 0.60569 0.0
H747 H 0.2223 0.70551 0.63048 0.0
H748 H 0.1036 0.5812 0.6041 0.0
H749 H 0.30663 0.62232 0.63007 0.0
H750 H 0.1783 0.66018 0.62104 0.0
H751 H 0.23054 0.54198 0.61541 0.0
C752 C 0.17752 0.52475 0.60749 0.0
C753 C 0.14135 0.53521 0.60403 0.0
C754 C 0.20645 0.65186 0.62297 0.0
C755 C 0.19162 0.58716 0.61503 0.0
C756 C 0.23166 0.67777 0.62832 0.0
C757 C 0.26826 0.66773 0.6311 0.0
C758 C 0.21785 0.61557 0.62041 0.0
C759 C 0.27872 0.63135 0.62809 0.0
C760 C 0.20268 0.55058 0.61298 0.0
C761 C 0.13118 0.57187 0.60658 0.0
N762 N 0.25361 0.60657 0.62296 0.0
N763 N 0.15622 0.59652 0.61188 0.0
H764 H 0.18837 0.50481 0.38098 0.0
H765 H 0.22806 0.29763 0.35504 0.0
H766 H 0.10669 0.41912 0.38166 0.0
H767 H 0.31052 0.38257 0.35562 0.0
H768 H 0.18323 0.34176 0.3648 0.0
H769 H 0.2332 0.46068 0.3712 0.0
C770 C 0.17976 0.47678 0.37898 0.0
C771 C 0.14368 0.46567 0.38218 0.0
C772 C 0.21115 0.35073 0.36284 0.0
C773 C 0.19502 0.4149 0.37108 0.0
C774 C 0.23683 0.3255 0.35731 0.0
C775 C 0.27315 0.33639 0.35448 0.0
C776 C 0.22179 0.38718 0.36555 0.0
C777 C 0.28286 0.37291 0.35763 0.0
C778 C 0.20545 0.45155 0.37345 0.0
C779 C 0.13418 0.42894 0.37938 0.0
N780 N 0.2573 0.397 0.36295 0.0
N781 N 0.15972 0.40488 0.37403 0.0
H782 H 0.51304 0.41292 0.10508 0.0
H783 H 0.30532 0.377 0.13136 0.0
H784 H 0.42943 0.49683 0.10521 0.0
H785 H 0.39004 0.29424 0.13227 0.0
H786 H 0.35003 0.4211 0.12135 0.0
H787 H 0.46825 0.36918 0.11516 0.0
C788 C 0.48532 0.42225 0.10732 0.0
C789 C 0.475 0.45864 0.10426 0.0
C790 C 0.35879 0.39326 0.12371 0.0
C791 C 0.42342 0.4085 0.11568 0.0
C792 C 0.33324 0.368 0.12936 0.0
C793 C 0.34392 0.33183 0.13269 0.0
C794 C 0.39531 0.38229 0.12136 0.0
C795 C 0.38052 0.32181 0.12989 0.0
C796 C 0.45971 0.39719 0.11303 0.0
C797 C 0.43865 0.46908 0.10739 0.0
N798 N 0.40488 0.34692 0.12443 0.0
N799 N 0.41415 0.44409 0.11288 0.0
loop_
_geom_bond_atom_site_label_1
_geom_bond_atom_site_label_2
_geom_bond_distance
_geom_bond_site_symmetry_2
_ccdc_geom_bond_type
O0 Cd1 2.223 . S
O0 C8 1.315 1_655 S
Cd1 O0 2.223 . S
Cd1 O4 2.297 1_655 S
Cd1 O5 2.439 1_655 S
Cd1 O11 2.240 1_655 S
Cd2 O3 2.240 1_565 S
Cd2 O10 2.223 . S
Cd2 O12 2.297 . S
Cd2 O13 2.439 1_565 S
O3 Cd2 2.240 1_545 S
O3 C8 1.279 . S
O4 Cd1 2.297 1_455 S
O4 C6 1.247 . S
O5 Cd1 2.439 1_455 S
O5 C6 1.208 . S
C6 O4 1.247 . S
C6 O5 1.208 . S
C7 O12 1.247 . S
C7 O13 1.208 1_565 S
C8 O0 1.315 1_455 S
C8 O3 1.279 . S
C9 O10 1.315 1_655 S
C9 O11 1.279 1_665 S
O10 Cd2 2.223 . S
O10 C9 1.315 1_455 S
O11 Cd1 2.240 1_455 S
O11 C9 1.279 1_445 S
O12 Cd2 2.297 . S
O12 C7 1.247 . S
O13 Cd2 2.439 1_545 S
O13 C7 1.208 1_545 S
O14 Cd15 2.223 . S
O14 C22 1.315 . S
Cd15 O14 2.223 . S
Cd15 O18 2.297 . S
Cd15 O19 2.439 . S
Cd15 O25 2.240 . S
Cd16 O17 2.240 . S
Cd16 O24 2.223 . S
Cd16 O26 2.297 . S
Cd16 O27 2.439 . S
O17 Cd16 2.240 . S
O17 C22 1.279 . S
O18 Cd15 2.297 . S
O18 C20 1.247 . S
O19 Cd15 2.439 . S
O19 C20 1.208 . S
C20 O18 1.247 . S
C20 O19 1.208 . S
C21 O26 1.247 . S
C21 O27 1.208 . S
C22 O14 1.315 . S
C22 O17 1.279 . S
C23 O24 1.315 . S
C23 O25 1.279 . S
O24 Cd16 2.223 . S
O24 C23 1.315 . S
O25 Cd15 2.240 . S
O25 C23 1.279 . S
O26 Cd16 2.297 . S
O26 C21 1.247 . S
O27 Cd16 2.439 . S
O27 C21 1.208 . S
O28 Cd29 2.223 . S
O28 C36 1.315 . S
Cd29 O28 2.223 . S
Cd29 O32 2.297 . S
Cd29 O33 2.439 . S
Cd29 O39 2.240 . S
Cd30 O31 2.240 1_545 S
Cd30 O38 2.223 . S
Cd30 O40 2.297 . S
Cd30 O41 2.439 1_545 S
O31 Cd30 2.240 1_565 S
O31 C36 1.279 . S
O32 Cd29 2.297 . S
O32 C34 1.247 . S
O33 Cd29 2.439 . S
O33 C34 1.208 . S
C34 O32 1.247 . S
C34 O33 1.208 . S
C35 O40 1.247 . S
C35 O41 1.208 1_545 S
C36 O28 1.315 . S
C36 O31 1.279 . S
C37 O38 1.315 . S
C37 O39 1.279 1_545 S
O38 Cd30 2.223 . S
O38 C37 1.315 . S
O39 Cd29 2.240 . S
O39 C37 1.279 1_565 S
O40 Cd30 2.297 . S
O40 C35 1.247 . S
O41 Cd30 2.439 1_565 S
O41 C35 1.208 1_565 S
O42 Cd43 2.223 . S
O42 C50 1.315 . S
Cd43 O42 2.223 . S
Cd43 O46 2.297 . S
Cd43 O47 2.439 . S
Cd43 O53 2.240 . S
Cd44 O45 2.240 . S
Cd44 O52 2.223 . S
Cd44 O54 2.297 . S
Cd44 O55 2.439 . S
O45 Cd44 2.240 . S
O45 C50 1.279 . S
O46 Cd43 2.297 . S
O46 C48 1.247 . S
O47 Cd43 2.439 . S
O47 C48 1.208 . S
C48 O46 1.247 . S
C48 O47 1.208 . S
C49 O54 1.247 . S
C49 O55 1.208 . S
C50 O42 1.315 . S
C50 O45 1.279 . S
C51 O52 1.315 . S
C51 O53 1.279 . S
O52 Cd44 2.223 . S
O52 C51 1.315 . S
O53 Cd43 2.240 . S
O53 C51 1.279 . S
O54 Cd44 2.297 . S
O54 C49 1.247 . S
O55 Cd44 2.439 . S
O55 C49 1.208 . S
O56 Cd57 2.223 . S
O56 C64 1.315 1_655 S
Cd57 O56 2.223 . S
Cd57 O60 2.297 1_655 S
Cd57 O61 2.439 1_655 S
Cd57 O67 2.240 1_655 S
Cd58 O59 2.240 1_545 S
Cd58 O66 2.223 . S
Cd58 O68 2.297 . S
Cd58 O69 2.439 1_545 S
O59 Cd58 2.240 1_565 S
O59 C64 1.279 . S
O60 Cd57 2.297 1_455 S
O60 C62 1.247 . S
O61 Cd57 2.439 1_455 S
O61 C62 1.208 . S
C62 O60 1.247 . S
C62 O61 1.208 . S
C63 O68 1.247 . S
C63 O69 1.208 1_545 S
C64 O56 1.315 1_455 S
C64 O59 1.279 . S
C65 O66 1.315 1_655 S
C65 O67 1.279 1_645 S
O66 Cd58 2.223 . S
O66 C65 1.315 1_455 S
O67 Cd57 2.240 1_455 S
O67 C65 1.279 1_465 S
O68 Cd58 2.297 . S
O68 C63 1.247 . S
O69 Cd58 2.439 1_565 S
O69 C63 1.208 1_565 S
O70 Cd71 2.223 . S
O70 C78 1.315 . S
Cd71 O70 2.223 . S
Cd71 O74 2.297 . S
Cd71 O75 2.439 . S
Cd71 O81 2.240 . S
Cd72 O73 2.240 . S
Cd72 O80 2.223 . S
Cd72 O82 2.297 . S
Cd72 O83 2.439 . S
O73 Cd72 2.240 . S
O73 C78 1.279 . S
O74 Cd71 2.297 . S
O74 C76 1.247 . S
O75 Cd71 2.439 . S
O75 C76 1.208 . S
C76 O74 1.247 . S
C76 O75 1.208 . S
C77 O82 1.247 . S
C77 O83 1.208 . S
C78 O70 1.315 . S
C78 O73 1.279 . S
C79 O80 1.315 . S
C79 O81 1.279 . S
O80 Cd72 2.223 . S
O80 C79 1.315 . S
O81 Cd71 2.240 . S
O81 C79 1.279 . S
O82 Cd72 2.297 . S
O82 C77 1.247 . S
O83 Cd72 2.439 . S
O83 C77 1.208 . S
O84 Cd85 2.223 . S
O84 C92 1.315 . S
Cd85 O84 2.223 . S
Cd85 O88 2.297 . S
Cd85 O89 2.439 . S
Cd85 O95 2.240 . S
Cd86 O87 2.240 1_565 S
Cd86 O94 2.223 . S
Cd86 O96 2.297 . S
Cd86 O97 2.439 1_565 S
O87 Cd86 2.240 1_545 S
O87 C92 1.279 . S
O88 Cd85 2.297 . S
O88 C90 1.247 . S
O89 Cd85 2.439 . S
O89 C90 1.208 . S
C90 O88 1.247 . S
C90 O89 1.208 . S
C91 O96 1.247 . S
C91 O97 1.208 1_565 S
C92 O84 1.315 . S
C92 O87 1.279 . S
C93 O94 1.315 . S
C93 O95 1.279 1_565 S
O94 Cd86 2.223 . S
O94 C93 1.315 . S
O95 Cd85 2.240 . S
O95 C93 1.279 1_545 S
O96 Cd86 2.297 . S
O96 C91 1.247 . S
O97 Cd86 2.439 1_545 S
O97 C91 1.208 1_545 S
O98 Cd99 2.223 . S
O98 C106 1.315 . S
Cd99 O98 2.223 . S
Cd99 O102 2.297 . S
Cd99 O103 2.439 . S
Cd99 O109 2.240 . S
Cd100 O101 2.240 . S
Cd100 O108 2.223 . S
Cd100 O110 2.297 . S
Cd100 O111 2.439 . S
O101 Cd100 2.240 . S
O101 C106 1.279 . S
O102 Cd99 2.297 . S
O102 C104 1.247 . S
O103 Cd99 2.439 . S
O103 C104 1.208 . S
C104 O102 1.247 . S
C104 O103 1.208 . S
C105 O110 1.247 . S
C105 O111 1.208 . S
C106 O98 1.315 . S
C106 O101 1.279 . S
C107 O108 1.315 . S
C107 O109 1.279 . S
O108 Cd100 2.223 . S
O108 C107 1.315 . S
O109 Cd99 2.240 . S
O109 C107 1.279 . S
O110 Cd100 2.297 . S
O110 C105 1.247 . S
O111 Cd100 2.439 . S
O111 C105 1.208 . S
O112 Cd113 2.223 . S
O112 C120 1.315 . S
Cd113 O112 2.223 . S
Cd113 O116 2.297 . S
Cd113 O117 2.439 . S
Cd113 O123 2.240 . S
Cd114 O115 2.240 . S
Cd114 O122 2.223 . S
Cd114 O124 2.297 . S
Cd114 O125 2.439 . S
O115 Cd114 2.240 . S
O115 C120 1.279 . S
O116 Cd113 2.297 . S
O116 C118 1.247 . S
O117 Cd113 2.439 . S
O117 C118 1.208 . S
C118 O116 1.247 . S
C118 O117 1.208 . S
C119 O124 1.247 . S
C119 O125 1.208 . S
C120 O112 1.315 . S
C120 O115 1.279 . S
C121 O122 1.315 . S
C121 O123 1.279 . S
O122 Cd114 2.223 . S
O122 C121 1.315 . S
O123 Cd113 2.240 . S
O123 C121 1.279 . S
O124 Cd114 2.297 . S
O124 C119 1.247 . S
O125 Cd114 2.439 . S
O125 C119 1.208 . S
O126 Cd127 2.223 . S
O126 C134 1.315 . S
Cd127 O126 2.223 . S
Cd127 O130 2.297 . S
Cd127 O131 2.439 . S
Cd127 O137 2.240 . S
Cd128 O129 2.240 . S
Cd128 O136 2.223 . S
Cd128 O138 2.297 . S
Cd128 O139 2.439 . S
O129 Cd128 2.240 . S
O129 C134 1.279 . S
O130 Cd127 2.297 . S
O130 C132 1.247 . S
O131 Cd127 2.439 . S
O131 C132 1.208 . S
C132 O130 1.247 . S
C132 O131 1.208 . S
C133 O138 1.247 . S
C133 O139 1.208 . S
C134 O126 1.315 . S
C134 O129 1.279 . S
C135 O136 1.315 . S
C135 O137 1.279 . S
O136 Cd128 2.223 . S
O136 C135 1.315 . S
O137 Cd127 2.240 . S
O137 C135 1.279 . S
O138 Cd128 2.297 . S
O138 C133 1.247 . S
O139 Cd128 2.439 . S
O139 C133 1.208 . S
O140 Cd141 2.223 . S
O140 C148 1.315 . S
Cd141 O140 2.223 . S
Cd141 O144 2.297 . S
Cd141 O145 2.439 . S
Cd141 O151 2.240 . S
Cd142 O143 2.240 . S
Cd142 O150 2.223 . S
Cd142 O152 2.297 . S
Cd142 O153 2.439 . S
O143 Cd142 2.240 . S
O143 C148 1.279 . S
O144 Cd141 2.297 . S
O144 C146 1.247 . S
O145 Cd141 2.439 . S
O145 C146 1.208 . S
C146 O144 1.247 . S
C146 O145 1.208 . S
C147 O152 1.247 . S
C147 O153 1.208 . S
C148 O140 1.315 . S
C148 O143 1.279 . S
C149 O150 1.315 . S
C149 O151 1.279 . S
O150 Cd142 2.223 . S
O150 C149 1.315 . S
O151 Cd141 2.240 . S
O151 C149 1.279 . S
O152 Cd142 2.297 . S
O152 C147 1.247 . S
O153 Cd142 2.439 . S
O153 C147 1.208 . S
O154 Cd155 2.223 . S
O154 C162 1.315 . S
Cd155 O154 2.223 . S
Cd155 O158 2.297 . S
Cd155 O159 2.439 . S
Cd155 O165 2.240 . S
Cd156 O157 2.240 . S
Cd156 O164 2.223 . S
Cd156 O166 2.297 . S
Cd156 O167 2.439 . S
O157 Cd156 2.240 . S
O157 C162 1.279 . S
O158 Cd155 2.297 . S
O158 C160 1.247 . S
O159 Cd155 2.439 . S
O159 C160 1.208 . S
C160 O158 1.247 . S
C160 O159 1.208 . S
C161 O166 1.247 . S
C161 O167 1.208 . S
C162 O154 1.315 . S
C162 O157 1.279 . S
C163 O164 1.315 . S
C163 O165 1.279 . S
O164 Cd156 2.223 . S
O164 C163 1.315 . S
O165 Cd155 2.240 . S
O165 C163 1.279 . S
O166 Cd156 2.297 . S
O166 C161 1.247 . S
O167 Cd156 2.439 . S
O167 C161 1.208 . S
O168 Cd169 2.223 . S
O168 C176 1.315 . S
Cd169 O168 2.223 . S
Cd169 O172 2.297 . S
Cd169 O173 2.439 . S
Cd169 O179 2.240 . S
Cd170 O171 2.240 . S
Cd170 O178 2.223 . S
Cd170 O180 2.297 . S
Cd170 O181 2.439 . S
O171 Cd170 2.240 . S
O171 C176 1.279 . S
O172 Cd169 2.297 . S
O172 C174 1.247 . S
O173 Cd169 2.439 . S
O173 C174 1.208 . S
C174 O172 1.247 . S
C174 O173 1.208 . S
C175 O180 1.247 . S
C175 O181 1.208 . S
C176 O168 1.315 . S
C176 O171 1.279 . S
C177 O178 1.315 . S
C177 O179 1.279 . S
O178 Cd170 2.223 . S
O178 C177 1.315 . S
O179 Cd169 2.240 . S
O179 C177 1.279 . S
O180 Cd170 2.297 . S
O180 C175 1.247 . S
O181 Cd170 2.439 . S
O181 C175 1.208 . S
O182 Cd183 2.223 . S
O182 C190 1.315 . S
Cd183 O182 2.223 . S
Cd183 O186 2.297 . S
Cd183 O187 2.439 . S
Cd183 O193 2.240 . S
Cd184 O185 2.240 . S
Cd184 O192 2.223 . S
Cd184 O194 2.297 . S
Cd184 O195 2.439 . S
O185 Cd184 2.240 . S
O185 C190 1.279 . S
O186 Cd183 2.297 . S
O186 C188 1.247 . S
O187 Cd183 2.439 . S
O187 C188 1.208 . S
C188 O186 1.247 . S
C188 O187 1.208 . S
C189 O194 1.247 . S
C189 O195 1.208 . S
C190 O182 1.315 . S
C190 O185 1.279 . S
C191 O192 1.315 . S
C191 O193 1.279 . S
O192 Cd184 2.223 . S
O192 C191 1.315 . S
O193 Cd183 2.240 . S
O193 C191 1.279 . S
O194 Cd184 2.297 . S
O194 C189 1.247 . S
O195 Cd184 2.439 . S
O195 C189 1.208 . S
O196 Cd197 2.223 . S
O196 C204 1.315 . S
Cd197 O196 2.223 . S
Cd197 O200 2.297 . S
Cd197 O201 2.439 . S
Cd197 O207 2.240 . S
Cd198 O199 2.240 . S
Cd198 O206 2.223 . S
Cd198 O208 2.297 . S
Cd198 O209 2.439 . S
O199 Cd198 2.240 . S
O199 C204 1.279 . S
O200 Cd197 2.297 . S
O200 C202 1.247 . S
O201 Cd197 2.439 . S
O201 C202 1.208 . S
C202 O200 1.247 . S
C202 O201 1.208 . S
C203 O208 1.247 . S
C203 O209 1.208 . S
C204 O196 1.315 . S
C204 O199 1.279 . S
C205 O206 1.315 . S
C205 O207 1.279 . S
O206 Cd198 2.223 . S
O206 C205 1.315 . S
O207 Cd197 2.240 . S
O207 C205 1.279 . S
O208 Cd198 2.297 . S
O208 C203 1.247 . S
O209 Cd198 2.439 . S
O209 C203 1.208 . S
O210 Cd211 2.223 . S
O210 C218 1.315 . S
Cd211 O210 2.223 . S
Cd211 O214 2.297 . S
Cd211 O215 2.439 . S
Cd211 O221 2.240 . S
Cd212 O213 2.240 . S
Cd212 O220 2.223 . S
Cd212 O222 2.297 . S
Cd212 O223 2.439 . S
O213 Cd212 2.240 . S
O213 C218 1.279 . S
O214 Cd211 2.297 . S
O214 C216 1.247 . S
O215 Cd211 2.439 . S
O215 C216 1.208 . S
C216 O214 1.247 . S
C216 O215 1.208 . S
C217 O222 1.247 . S
C217 O223 1.208 . S
C218 O210 1.315 . S
C218 O213 1.279 . S
C219 O220 1.315 . S
C219 O221 1.279 . S
O220 Cd212 2.223 . S
O220 C219 1.315 . S
O221 Cd211 2.240 . S
O221 C219 1.279 . S
O222 Cd212 2.297 . S
O222 C217 1.247 . S
O223 Cd212 2.439 . S
O223 C217 1.208 . S
H224 C230 0.930 . S
H225 C234 0.930 . S
H226 C239 0.929 . S
H227 C237 0.929 . S
H228 C232 0.929 . S
H229 C238 0.929 . S
C230 H224 0.930 . S
C230 C231 1.367 . S
C230 C238 1.378 . S
C231 C230 1.367 . S
C231 C239 1.433 . S
C232 H228 0.929 . S
C232 C234 1.378 . S
C232 C236 1.350 . S
C233 C236 1.463 . S
C233 C238 1.350 . S
C233 N241 1.427 . S
C234 H225 0.930 . S
C234 C232 1.378 . S
C234 C235 1.367 . S
C235 C234 1.367 . S
C235 C237 1.433 . S
C236 C232 1.350 . S
C236 C233 1.463 . S
C236 N240 1.427 . S
C237 H227 0.929 . S
C237 C235 1.433 . S
C237 N240 1.384 . S
C238 H229 0.929 . S
C238 C230 1.378 . S
C238 C233 1.350 . S
C239 H226 0.929 . S
C239 C231 1.433 . S
C239 N241 1.384 . S
N240 C236 1.427 . S
N240 C237 1.384 . S
N241 C233 1.427 . S
N241 C239 1.384 . S
H242 C248 0.930 . S
H243 C252 0.930 . S
H244 C257 0.929 . S
H245 C255 0.929 . S
H246 C250 0.929 . S
H247 C256 0.929 . S
C248 H242 0.930 . S
C248 C249 1.367 . S
C248 C256 1.378 1_655 S
C249 C248 1.367 . S
C249 C257 1.433 . S
C250 H246 0.929 . S
C250 C252 1.378 . S
C250 C254 1.350 . S
C251 C254 1.463 . S
C251 C256 1.350 . S
C251 N259 1.427 . S
C252 H243 0.930 . S
C252 C250 1.378 . S
C252 C253 1.367 . S
C253 C252 1.367 . S
C253 C255 1.433 . S
C254 C250 1.350 . S
C254 C251 1.463 . S
C254 N258 1.427 . S
C255 H245 0.929 . S
C255 C253 1.433 . S
C255 N258 1.384 . S
C256 H247 0.929 . S
C256 C248 1.378 1_455 S
C256 C251 1.350 . S
C257 H244 0.929 . S
C257 C249 1.433 . S
C257 N259 1.384 1_655 S
N258 C254 1.427 . S
N258 C255 1.384 . S
N259 C251 1.427 . S
N259 C257 1.384 1_455 S
H260 C266 0.930 . S
H261 C270 0.930 . S
H262 C275 0.929 . S
H263 C273 0.929 . S
H264 C268 0.929 . S
H265 C274 0.929 . S
C266 H260 0.930 . S
C266 C267 1.367 . S
C266 C274 1.378 . S
C267 C266 1.367 . S
C267 C275 1.433 . S
C268 H264 0.929 . S
C268 C270 1.378 . S
C268 C272 1.350 . S
C269 C272 1.463 . S
C269 C274 1.350 . S
C269 N277 1.427 . S
C270 H261 0.930 . S
C270 C268 1.378 . S
C270 C271 1.367 . S
C271 C270 1.367 . S
C271 C273 1.433 . S
C272 C268 1.350 . S
C272 C269 1.463 . S
C272 N276 1.427 . S
C273 H263 0.929 . S
C273 C271 1.433 . S
C273 N276 1.384 . S
C274 H265 0.929 . S
C274 C266 1.378 . S
C274 C269 1.350 . S
C275 H262 0.929 . S
C275 C267 1.433 . S
C275 N277 1.384 . S
N276 C272 1.427 . S
N276 C273 1.384 . S
N277 C269 1.427 . S
N277 C275 1.384 . S
H278 C284 0.930 . S
H279 C288 0.930 . S
H280 C293 0.929 . S
H281 C291 0.929 . S
H282 C286 0.929 . S
H283 C292 0.929 . S
C284 H278 0.930 . S
C284 C285 1.367 . S
C284 C292 1.378 . S
C285 C284 1.367 . S
C285 C293 1.433 . S
C286 H282 0.929 . S
C286 C288 1.378 . S
C286 C290 1.350 . S
C287 C290 1.463 . S
C287 C292 1.350 . S
C287 N295 1.427 . S
C288 H279 0.930 . S
C288 C286 1.378 . S
C288 C289 1.367 . S
C289 C288 1.367 . S
C289 C291 1.433 . S
C290 C286 1.350 . S
C290 C287 1.463 . S
C290 N294 1.427 . S
C291 H281 0.929 . S
C291 C289 1.433 . S
C291 N294 1.384 . S
C292 H283 0.929 . S
C292 C284 1.378 . S
C292 C287 1.350 . S
C293 H280 0.929 . S
C293 C285 1.433 . S
C293 N295 1.384 . S
N294 C290 1.427 . S
N294 C291 1.384 . S
N295 C287 1.427 . S
N295 C293 1.384 . S
H296 C302 0.930 . S
H297 C306 0.930 . S
H298 C311 0.929 . S
H299 C309 0.929 . S
H300 C304 0.929 . S
H301 C310 0.929 . S
C302 H296 0.930 . S
C302 C303 1.367 . S
C302 C310 1.378 . S
C303 C302 1.367 . S
C303 C311 1.433 . S
C304 H300 0.929 . S
C304 C306 1.378 . S
C304 C308 1.350 . S
C305 C308 1.463 . S
C305 C310 1.350 . S
C305 N313 1.427 . S
C306 H297 0.930 . S
C306 C304 1.378 . S
C306 C307 1.367 . S
C307 C306 1.367 . S
C307 C309 1.433 . S
C308 C304 1.350 . S
C308 C305 1.463 . S
C308 N312 1.427 . S
C309 H299 0.929 . S
C309 C307 1.433 . S
C309 N312 1.384 . S
C310 H301 0.929 . S
C310 C302 1.378 . S
C310 C305 1.350 . S
C311 H298 0.929 . S
C311 C303 1.433 . S
C311 N313 1.384 . S
N312 C308 1.427 . S
N312 C309 1.384 . S
N313 C305 1.427 . S
N313 C311 1.384 . S
H314 C320 0.930 . S
H315 C324 0.930 . S
H316 C329 0.929 . S
H317 C327 0.929 . S
H318 C322 0.929 . S
H319 C328 0.929 . S
C320 H314 0.930 . S
C320 C321 1.367 . S
C320 C328 1.378 . S
C321 C320 1.367 . S
C321 C329 1.433 . S
C322 H318 0.929 . S
C322 C324 1.378 . S
C322 C326 1.350 . S
C323 C326 1.463 . S
C323 C328 1.350 . S
C323 N331 1.427 . S
C324 H315 0.930 . S
C324 C322 1.378 . S
C324 C325 1.367 . S
C325 C324 1.367 . S
C325 C327 1.433 . S
C326 C322 1.350 . S
C326 C323 1.463 . S
C326 N330 1.427 . S
C327 H317 0.929 . S
C327 C325 1.433 . S
C327 N330 1.384 . S
C328 H319 0.929 . S
C328 C320 1.378 . S
C328 C323 1.350 . S
C329 H316 0.929 . S
C329 C321 1.433 . S
C329 N331 1.384 . S
N330 C326 1.427 . S
N330 C327 1.384 . S
N331 C323 1.427 . S
N331 C329 1.384 . S
H332 C338 0.930 . S
H333 C342 0.930 . S
H334 C347 0.929 . S
H335 C345 0.929 . S
H336 C340 0.929 . S
H337 C346 0.929 . S
C338 H332 0.930 . S
C338 C339 1.367 . S
C338 C346 1.378 . S
C339 C338 1.367 . S
C339 C347 1.433 . S
C340 H336 0.929 . S
C340 C342 1.378 . S
C340 C344 1.350 . S
C341 C344 1.463 . S
C341 C346 1.350 . S
C341 N349 1.427 . S
C342 H333 0.930 . S
C342 C340 1.378 . S
C342 C343 1.367 . S
C343 C342 1.367 . S
C343 C345 1.433 . S
C344 C340 1.350 . S
C344 C341 1.463 . S
C344 N348 1.427 . S
C345 H335 0.929 . S
C345 C343 1.433 . S
C345 N348 1.384 . S
C346 H337 0.929 . S
C346 C338 1.378 . S
C346 C341 1.350 . S
C347 H334 0.929 . S
C347 C339 1.433 . S
C347 N349 1.384 . S
N348 C344 1.427 . S
N348 C345 1.384 . S
N349 C341 1.427 . S
N349 C347 1.384 . S
H350 C356 0.930 . S
H351 C360 0.930 . S
H352 C365 0.929 . S
H353 C363 0.929 . S
H354 C358 0.929 . S
H355 C364 0.929 . S
C356 H350 0.930 . S
C356 C357 1.367 . S
C356 C364 1.378 . S
C357 C356 1.367 . S
C357 C365 1.433 . S
C358 H354 0.929 . S
C358 C360 1.378 1_455 S
C358 C362 1.350 . S
C359 C362 1.463 . S
C359 C364 1.350 . S
C359 N367 1.427 . S
C360 H351 0.930 . S
C360 C358 1.378 1_655 S
C360 C361 1.367 . S
C361 C360 1.367 . S
C361 C363 1.433 . S
C362 C358 1.350 . S
C362 C359 1.463 . S
C362 N366 1.427 . S
C363 H353 0.929 . S
C363 C361 1.433 . S
C363 N366 1.384 1_655 S
C364 H355 0.929 . S
C364 C356 1.378 . S
C364 C359 1.350 . S
C365 H352 0.929 . S
C365 C357 1.433 . S
C365 N367 1.384 . S
N366 C362 1.427 . S
N366 C363 1.384 1_455 S
N367 C359 1.427 . S
N367 C365 1.384 . S
H368 C374 0.930 . S
H369 C378 0.930 . S
H370 C383 0.929 . S
H371 C381 0.929 . S
H372 C376 0.929 . S
H373 C382 0.929 . S
C374 H368 0.930 . S
C374 C375 1.367 . S
C374 C382 1.378 . S
C375 C374 1.367 . S
C375 C383 1.433 1_465 S
C376 H372 0.929 . S
C376 C378 1.378 . S
C376 C380 1.350 1_655 S
C377 C380 1.463 1_565 S
C377 C382 1.350 . S
C377 N385 1.427 1_465 S
C378 H369 0.930 . S
C378 C376 1.378 . S
C378 C379 1.367 1_655 S
C379 C378 1.367 1_455 S
C379 C381 1.433 1_545 S
C380 C376 1.350 1_455 S
C380 C377 1.463 1_545 S
C380 N384 1.427 1_545 S
C381 H371 0.929 . S
C381 C379 1.433 1_565 S
C381 N384 1.384 . S
C382 H373 0.929 . S
C382 C374 1.378 . S
C382 C377 1.350 . S
C383 H370 0.929 . S
C383 C375 1.433 1_645 S
C383 N385 1.384 . S
N384 C380 1.427 1_565 S
N384 C381 1.384 . S
N385 C377 1.427 1_645 S
N385 C383 1.384 . S
H386 C392 0.930 . S
H387 C396 0.930 . S
H388 C401 0.929 . S
H389 C399 0.929 . S
H390 C394 0.929 . S
H391 C400 0.929 . S
C392 H386 0.930 . S
C392 C393 1.367 . S
C392 C400 1.378 . S
C393 C392 1.367 . S
C393 C401 1.433 . S
C394 H390 0.929 . S
C394 C396 1.378 . S
C394 C398 1.350 . S
C395 C398 1.463 . S
C395 C400 1.350 . S
C395 N403 1.427 . S
C396 H387 0.930 . S
C396 C394 1.378 . S
C396 C397 1.367 . S
C397 C396 1.367 . S
C397 C399 1.433 . S
C398 C394 1.350 . S
C398 C395 1.463 . S
C398 N402 1.427 . S
C399 H389 0.929 . S
C399 C397 1.433 . S
C399 N402 1.384 . S
C400 H391 0.929 . S
C400 C392 1.378 . S
C400 C395 1.350 . S
C401 H388 0.929 . S
C401 C393 1.433 . S
C401 N403 1.384 . S
N402 C398 1.427 . S
N402 C399 1.384 . S
N403 C395 1.427 . S
N403 C401 1.384 . S
H404 C410 0.930 . S
H405 C414 0.930 . S
H406 C419 0.929 . S
H407 C417 0.929 . S
H408 C412 0.929 . S
H409 C418 0.929 . S
C410 H404 0.930 . S
C410 C411 1.367 1_545 S
C410 C418 1.378 . S
C411 C410 1.367 1_565 S
C411 C419 1.433 . S
C412 H408 0.929 . S
C412 C414 1.378 . S
C412 C416 1.350 1_565 S
C413 C416 1.463 1_564 S
C413 C418 1.350 1_565 S
C413 N421 1.427 . S
C414 H405 0.930 . S
C414 C412 1.378 . S
C414 C415 1.367 1_565 S
C415 C414 1.367 1_545 S
C415 C417 1.433 . S
C416 C412 1.350 1_545 S
C416 C413 1.463 1_546 S
C416 N420 1.427 . S
C417 H407 0.929 . S
C417 C415 1.433 . S
C417 N420 1.384 . S
C418 H409 0.929 . S
C418 C410 1.378 . S
C418 C413 1.350 1_545 S
C419 H406 0.929 . S
C419 C411 1.433 . S
C419 N421 1.384 . S
N420 C416 1.427 . S
N420 C417 1.384 . S
N421 C413 1.427 . S
N421 C419 1.384 . S
H422 C428 0.930 . S
H423 C432 0.930 . S
H424 C437 0.929 . S
H425 C435 0.929 . S
H426 C430 0.929 . S
H427 C436 0.929 . S
C428 H422 0.930 . S
C428 C429 1.367 . S
C428 C436 1.378 . S
C429 C428 1.367 . S
C429 C437 1.433 . S
C430 H426 0.929 . S
C430 C432 1.378 . S
C430 C434 1.350 . S
C431 C434 1.463 . S
C431 C436 1.350 . S
C431 N439 1.427 . S
C432 H423 0.930 . S
C432 C430 1.378 . S
C432 C433 1.367 . S
C433 C432 1.367 . S
C433 C435 1.433 . S
C434 C430 1.350 . S
C434 C431 1.463 . S
C434 N438 1.427 . S
C435 H425 0.929 . S
C435 C433 1.433 . S
C435 N438 1.384 . S
C436 H427 0.929 . S
C436 C428 1.378 . S
C436 C431 1.350 . S
C437 H424 0.929 . S
C437 C429 1.433 . S
C437 N439 1.384 . S
N438 C434 1.427 . S
N438 C435 1.384 . S
N439 C431 1.427 . S
N439 C437 1.384 . S
H440 C446 0.930 . S
H441 C450 0.930 . S
H442 C455 0.929 . S
H443 C453 0.929 . S
H444 C448 0.929 . S
H445 C454 0.929 . S
C446 H440 0.930 . S
C446 C447 1.367 . S
C446 C454 1.378 . S
C447 C446 1.367 . S
C447 C455 1.433 . S
C448 H444 0.929 . S
C448 C450 1.378 . S
C448 C452 1.350 . S
C449 C452 1.463 . S
C449 C454 1.350 . S
C449 N457 1.427 . S
C450 H441 0.930 . S
C450 C448 1.378 . S
C450 C451 1.367 . S
C451 C450 1.367 . S
C451 C453 1.433 . S
C452 C448 1.350 . S
C452 C449 1.463 . S
C452 N456 1.427 . S
C453 H443 0.929 . S
C453 C451 1.433 . S
C453 N456 1.384 . S
C454 H445 0.929 . S
C454 C446 1.378 . S
C454 C449 1.350 . S
C455 H442 0.929 . S
C455 C447 1.433 . S
C455 N457 1.384 . S
N456 C452 1.427 . S
N456 C453 1.384 . S
N457 C449 1.427 . S
N457 C455 1.384 . S
H458 C464 0.930 . S
H459 C468 0.930 . S
H460 C473 0.929 . S
H461 C471 0.929 . S
H462 C466 0.929 . S
H463 C472 0.929 . S
C464 H458 0.930 . S
C464 C465 1.367 . S
C464 C472 1.378 . S
C465 C464 1.367 . S
C465 C473 1.433 . S
C466 H462 0.929 . S
C466 C468 1.378 . S
C466 C470 1.350 . S
C467 C470 1.463 . S
C467 C472 1.350 . S
C467 N475 1.427 . S
C468 H459 0.930 . S
C468 C466 1.378 . S
C468 C469 1.367 . S
C469 C468 1.367 . S
C469 C471 1.433 . S
C470 C466 1.350 . S
C470 C467 1.463 . S
C470 N474 1.427 . S
C471 H461 0.929 . S
C471 C469 1.433 . S
C471 N474 1.384 . S
C472 H463 0.929 . S
C472 C464 1.378 . S
C472 C467 1.350 . S
C473 H460 0.929 . S
C473 C465 1.433 . S
C473 N475 1.384 . S
N474 C470 1.427 . S
N474 C471 1.384 . S
N475 C467 1.427 . S
N475 C473 1.384 . S
H476 C482 0.930 . S
H477 C486 0.930 . S
H478 C491 0.929 . S
H479 C489 0.929 . S
H480 C484 0.929 . S
H481 C490 0.929 . S
C482 H476 0.930 . S
C482 C483 1.367 . S
C482 C490 1.378 . S
C483 C482 1.367 . S
C483 C491 1.433 . S
C484 H480 0.929 . S
C484 C486 1.378 . S
C484 C488 1.350 . S
C485 C488 1.463 1_556 S
C485 C490 1.350 . S
C485 N493 1.427 . S
C486 H477 0.930 . S
C486 C484 1.378 . S
C486 C487 1.367 . S
C487 C486 1.367 . S
C487 C489 1.433 . S
C488 C484 1.350 . S
C488 C485 1.463 1_554 S
C488 N492 1.427 . S
C489 H479 0.929 . S
C489 C487 1.433 . S
C489 N492 1.384 . S
C490 H481 0.929 . S
C490 C482 1.378 . S
C490 C485 1.350 . S
C491 H478 0.929 . S
C491 C483 1.433 . S
C491 N493 1.384 . S
N492 C488 1.427 . S
N492 C489 1.384 . S
N493 C485 1.427 . S
N493 C491 1.384 . S
H494 C500 0.930 . S
H495 C504 0.930 . S
H496 C509 0.929 . S
H497 C507 0.929 . S
H498 C502 0.929 . S
H499 C508 0.929 . S
C500 H494 0.930 . S
C500 C501 1.367 . S
C500 C508 1.378 . S
C501 C500 1.367 . S
C501 C509 1.433 . S
C502 H498 0.929 . S
C502 C504 1.378 . S
C502 C506 1.350 . S
C503 C506 1.463 . S
C503 C508 1.350 . S
C503 N511 1.427 . S
C504 H495 0.930 . S
C504 C502 1.378 . S
C504 C505 1.367 . S
C505 C504 1.367 . S
C505 C507 1.433 . S
C506 C502 1.350 . S
C506 C503 1.463 . S
C506 N510 1.427 . S
C507 H497 0.929 . S
C507 C505 1.433 . S
C507 N510 1.384 . S
C508 H499 0.929 . S
C508 C500 1.378 . S
C508 C503 1.350 . S
C509 H496 0.929 . S
C509 C501 1.433 . S
C509 N511 1.384 . S
N510 C506 1.427 . S
N510 C507 1.384 . S
N511 C503 1.427 . S
N511 C509 1.384 . S
H512 C518 0.930 . S
H513 C522 0.930 . S
H514 C527 0.929 . S
H515 C525 0.929 . S
H516 C520 0.929 . S
H517 C526 0.929 . S
C518 H512 0.930 . S
C518 C519 1.367 . S
C518 C526 1.378 . S
C519 C518 1.367 . S
C519 C527 1.433 . S
C520 H516 0.929 . S
C520 C522 1.378 . S
C520 C524 1.350 . S
C521 C524 1.463 . S
C521 C526 1.350 . S
C521 N529 1.427 . S
C522 H513 0.930 . S
C522 C520 1.378 . S
C522 C523 1.367 . S
C523 C522 1.367 . S
C523 C525 1.433 . S
C524 C520 1.350 . S
C524 C521 1.463 . S
C524 N528 1.427 . S
C525 H515 0.929 . S
C525 C523 1.433 . S
C525 N528 1.384 . S
C526 H517 0.929 . S
C526 C518 1.378 . S
C526 C521 1.350 . S
C527 H514 0.929 . S
C527 C519 1.433 . S
C527 N529 1.384 . S
N528 C524 1.427 . S
N528 C525 1.384 . S
N529 C521 1.427 . S
N529 C527 1.384 . S
H530 C536 0.930 . S
H531 C540 0.930 . S
H532 C545 0.929 . S
H533 C543 0.929 . S
H534 C538 0.929 . S
H535 C544 0.929 . S
C536 H530 0.930 . S
C536 C537 1.367 . S
C536 C544 1.378 . S
C537 C536 1.367 . S
C537 C545 1.433 . S
C538 H534 0.929 . S
C538 C540 1.378 . S
C538 C542 1.350 . S
C539 C542 1.463 . S
C539 C544 1.350 . S
C539 N547 1.427 . S
C540 H531 0.930 . S
C540 C538 1.378 . S
C540 C541 1.367 . S
C541 C540 1.367 . S
C541 C543 1.433 . S
C542 C538 1.350 . S
C542 C539 1.463 . S
C542 N546 1.427 . S
C543 H533 0.929 . S
C543 C541 1.433 . S
C543 N546 1.384 . S
C544 H535 0.929 . S
C544 C536 1.378 . S
C544 C539 1.350 . S
C545 H532 0.929 . S
C545 C537 1.433 . S
C545 N547 1.384 . S
N546 C542 1.427 . S
N546 C543 1.384 . S
N547 C539 1.427 . S
N547 C545 1.384 . S
H548 C554 0.930 . S
H549 C558 0.930 . S
H550 C563 0.929 . S
H551 C561 0.929 . S
H552 C556 0.929 . S
H553 C562 0.929 . S
C554 H548 0.930 . S
C554 C555 1.367 . S
C554 C562 1.378 . S
C555 C554 1.367 . S
C555 C563 1.433 . S
C556 H552 0.929 . S
C556 C558 1.378 . S
C556 C560 1.350 . S
C557 C560 1.463 . S
C557 C562 1.350 . S
C557 N565 1.427 . S
C558 H549 0.930 . S
C558 C556 1.378 . S
C558 C559 1.367 . S
C559 C558 1.367 . S
C559 C561 1.433 . S
C560 C556 1.350 . S
C560 C557 1.463 . S
C560 N564 1.427 . S
C561 H551 0.929 . S
C561 C559 1.433 . S
C561 N564 1.384 . S
C562 H553 0.929 . S
C562 C554 1.378 . S
C562 C557 1.350 . S
C563 H550 0.929 . S
C563 C555 1.433 . S
C563 N565 1.384 . S
N564 C560 1.427 . S
N564 C561 1.384 . S
N565 C557 1.427 . S
N565 C563 1.384 . S
H566 C572 0.930 . S
H567 C576 0.930 . S
H568 C581 0.929 . S
H569 C579 0.929 . S
H570 C574 0.929 . S
H571 C580 0.929 . S
C572 H566 0.930 . S
C572 C573 1.367 . S
C572 C580 1.378 . S
C573 C572 1.367 . S
C573 C581 1.433 . S
C574 H570 0.929 . S
C574 C576 1.378 . S
C574 C578 1.350 . S
C575 C578 1.463 . S
C575 C580 1.350 . S
C575 N583 1.427 . S
C576 H567 0.930 . S
C576 C574 1.378 . S
C576 C577 1.367 . S
C577 C576 1.367 . S
C577 C579 1.433 . S
C578 C574 1.350 . S
C578 C575 1.463 . S
C578 N582 1.427 . S
C579 H569 0.929 . S
C579 C577 1.433 . S
C579 N582 1.384 . S
C580 H571 0.929 . S
C580 C572 1.378 . S
C580 C575 1.350 . S
C581 H568 0.929 . S
C581 C573 1.433 . S
C581 N583 1.384 . S
N582 C578 1.427 . S
N582 C579 1.384 . S
N583 C575 1.427 . S
N583 C581 1.384 . S
H584 C590 0.930 . S
H585 C594 0.930 . S
H586 C599 0.929 . S
H587 C597 0.929 . S
H588 C592 0.929 . S
H589 C598 0.929 . S
C590 H584 0.930 . S
C590 C591 1.367 . S
C590 C598 1.378 . S
C591 C590 1.367 . S
C591 C599 1.433 . S
C592 H588 0.929 . S
C592 C594 1.378 . S
C592 C596 1.350 . S
C593 C596 1.463 . S
C593 C598 1.350 . S
C593 N601 1.427 . S
C594 H585 0.930 . S
C594 C592 1.378 . S
C594 C595 1.367 . S
C595 C594 1.367 . S
C595 C597 1.433 . S
C596 C592 1.350 . S
C596 C593 1.463 . S
C596 N600 1.427 . S
C597 H587 0.929 . S
C597 C595 1.433 . S
C597 N600 1.384 . S
C598 H589 0.929 . S
C598 C590 1.378 . S
C598 C593 1.350 . S
C599 H586 0.929 . S
C599 C591 1.433 . S
C599 N601 1.384 . S
N600 C596 1.427 . S
N600 C597 1.384 . S
N601 C593 1.427 . S
N601 C599 1.384 . S
H602 C608 0.948 . S
H603 C612 0.930 . S
H604 C617 0.929 . S
H605 C615 0.929 . S
H606 C610 0.929 . S
H607 C616 0.929 . S
C608 H602 0.948 . S
C608 C609 1.367 . S
C608 C616 1.378 . S
C609 C608 1.367 . S
C609 C617 1.433 . S
C610 H606 0.929 . S
C610 C612 1.378 . S
C610 C614 1.350 . S
C611 C614 1.463 . S
C611 C616 1.350 . S
C611 N619 1.427 . S
C612 H603 0.930 . S
C612 C610 1.378 . S
C612 C613 1.367 . S
C613 C612 1.367 . S
C613 C615 1.433 . S
C614 C610 1.350 . S
C614 C611 1.463 . S
C614 N618 1.427 . S
C615 H605 0.929 . S
C615 C613 1.433 . S
C615 N618 1.384 . S
C616 H607 0.929 . S
C616 C608 1.378 . S
C616 C611 1.350 . S
C617 H604 0.929 . S
C617 C609 1.433 . S
C617 N619 1.384 . S
N618 C614 1.427 . S
N618 C615 1.384 . S
N619 C611 1.427 . S
N619 C617 1.384 . S
H620 C626 0.930 . S
H621 C630 0.930 . S
H622 C635 0.929 . S
H623 C633 0.929 . S
H624 C628 0.929 . S
H625 C634 0.929 . S
C626 H620 0.930 . S
C626 C627 1.367 . S
C626 C634 1.378 . S
C627 C626 1.367 . S
C627 C635 1.433 . S
C628 H624 0.929 . S
C628 C630 1.378 . S
C628 C632 1.350 . S
C629 C632 1.463 . S
C629 C634 1.350 . S
C629 N637 1.427 . S
C630 H621 0.930 . S
C630 C628 1.378 . S
C630 C631 1.367 . S
C631 C630 1.367 . S
C631 C633 1.433 . S
C632 C628 1.350 . S
C632 C629 1.463 . S
C632 N636 1.427 . S
C633 H623 0.929 . S
C633 C631 1.433 . S
C633 N636 1.384 . S
C634 H625 0.929 . S
C634 C626 1.378 . S
C634 C629 1.350 . S
C635 H622 0.929 . S
C635 C627 1.433 . S
C635 N637 1.384 . S
N636 C632 1.427 . S
N636 C633 1.384 . S
N637 C629 1.427 . S
N637 C635 1.384 . S
H638 C644 0.930 . S
H639 C648 0.930 . S
H640 C653 0.929 . S
H641 C651 0.929 . S
H642 C646 0.929 . S
H643 C652 0.929 . S
C644 H638 0.930 . S
C644 C645 1.367 . S
C644 C652 1.378 . S
C645 C644 1.367 . S
C645 C653 1.433 . S
C646 H642 0.929 . S
C646 C648 1.378 . S
C646 C650 1.350 . S
C647 C650 1.463 . S
C647 C652 1.350 . S
C647 N655 1.427 . S
C648 H639 0.930 . S
C648 C646 1.378 . S
C648 C649 1.367 . S
C649 C648 1.367 . S
C649 C651 1.433 . S
C650 C646 1.350 . S
C650 C647 1.463 . S
C650 N654 1.427 . S
C651 H641 0.929 . S
C651 C649 1.433 . S
C651 N654 1.384 . S
C652 H643 0.929 . S
C652 C644 1.378 . S
C652 C647 1.350 . S
C653 H640 0.929 . S
C653 C645 1.433 . S
C653 N655 1.384 . S
N654 C650 1.427 . S
N654 C651 1.384 . S
N655 C647 1.427 . S
N655 C653 1.384 . S
H656 C662 0.930 . S
H657 C666 0.930 . S
H658 C671 0.929 . S
H659 C669 0.929 . S
H660 C664 0.929 . S
H661 C670 0.929 . S
C662 H656 0.930 . S
C662 C663 1.367 . S
C662 C670 1.378 . S
C663 C662 1.367 . S
C663 C671 1.433 . S
C664 H660 0.929 . S
C664 C666 1.378 . S
C664 C668 1.350 . S
C665 C668 1.463 . S
C665 C670 1.350 . S
C665 N673 1.427 . S
C666 H657 0.930 . S
C666 C664 1.378 . S
C666 C667 1.367 . S
C667 C666 1.367 . S
C667 C669 1.433 . S
C668 C664 1.350 . S
C668 C665 1.463 . S
C668 N672 1.427 . S
C669 H659 0.929 . S
C669 C667 1.433 . S
C669 N672 1.384 . S
C670 H661 0.929 . S
C670 C662 1.378 . S
C670 C665 1.350 . S
C671 H658 0.929 . S
C671 C663 1.433 . S
C671 N673 1.384 . S
N672 C668 1.427 . S
N672 C669 1.384 . S
N673 C665 1.427 . S
N673 C671 1.384 . S
H674 C680 0.930 . S
H675 C684 0.930 . S
H676 C689 0.929 . S
H677 C687 0.929 . S
H678 C682 0.929 . S
H679 C688 0.929 . S
C680 H674 0.930 . S
C680 C681 1.367 . S
C680 C688 1.378 . S
C681 C680 1.367 . S
C681 C689 1.433 . S
C682 H678 0.929 . S
C682 C684 1.378 . S
C682 C686 1.350 . S
C683 C686 1.463 . S
C683 C688 1.350 . S
C683 N691 1.427 . S
C684 H675 0.930 . S
C684 C682 1.378 . S
C684 C685 1.367 . S
C685 C684 1.367 . S
C685 C687 1.433 . S
C686 C682 1.350 . S
C686 C683 1.463 . S
C686 N690 1.427 . S
C687 H677 0.929 . S
C687 C685 1.433 . S
C687 N690 1.384 . S
C688 H679 0.929 . S
C688 C680 1.378 . S
C688 C683 1.350 . S
C689 H676 0.929 . S
C689 C681 1.433 . S
C689 N691 1.384 . S
N690 C686 1.427 . S
N690 C687 1.384 . S
N691 C683 1.427 . S
N691 C689 1.384 . S
H692 C698 0.930 . S
H693 C702 0.930 . S
H694 C707 0.929 . S
H695 C705 0.929 . S
H696 C700 0.929 . S
H697 C706 0.929 . S
C698 H692 0.930 . S
C698 C699 1.367 . S
C698 C706 1.378 . S
C699 C698 1.367 . S
C699 C707 1.433 . S
C700 H696 0.929 . S
C700 C702 1.378 . S
C700 C704 1.350 . S
C701 C704 1.463 . S
C701 C706 1.350 . S
C701 N709 1.427 . S
C702 H693 0.930 . S
C702 C700 1.378 . S
C702 C703 1.367 . S
C703 C702 1.367 . S
C703 C705 1.433 . S
C704 C700 1.350 . S
C704 C701 1.463 . S
C704 N708 1.427 . S
C705 H695 0.929 . S
C705 C703 1.433 . S
C705 N708 1.384 . S
C706 H697 0.929 . S
C706 C698 1.378 . S
C706 C701 1.350 . S
C707 H694 0.929 . S
C707 C699 1.433 . S
C707 N709 1.384 . S
N708 C704 1.427 . S
N708 C705 1.384 . S
N709 C701 1.427 . S
N709 C707 1.384 . S
H710 C716 0.930 . S
H711 C720 0.930 . S
H712 C725 0.929 . S
H713 C723 0.929 . S
H714 C718 0.929 . S
H715 C724 0.929 . S
C716 H710 0.930 . S
C716 C717 1.367 . S
C716 C724 1.378 . S
C717 C716 1.367 . S
C717 C725 1.433 . S
C718 H714 0.929 . S
C718 C720 1.378 . S
C718 C722 1.350 . S
C719 C722 1.463 . S
C719 C724 1.350 . S
C719 N727 1.427 . S
C720 H711 0.930 . S
C720 C718 1.378 . S
C720 C721 1.367 . S
C721 C720 1.367 . S
C721 C723 1.433 . S
C722 C718 1.350 . S
C722 C719 1.463 . S
C722 N726 1.427 . S
C723 H713 0.929 . S
C723 C721 1.433 . S
C723 N726 1.384 . S
C724 H715 0.929 . S
C724 C716 1.378 . S
C724 C719 1.350 . S
C725 H712 0.929 . S
C725 C717 1.433 . S
C725 N727 1.384 . S
N726 C722 1.427 . S
N726 C723 1.384 . S
N727 C719 1.427 . S
N727 C725 1.384 . S
H728 C734 0.930 . S
H729 C738 0.930 . S
H730 C743 0.929 . S
H731 C741 0.929 . S
H732 C736 0.929 . S
H733 C742 0.929 . S
C734 H728 0.930 . S
C734 C735 1.367 . S
C734 C742 1.378 . S
C735 C734 1.367 . S
C735 C743 1.433 . S
C736 H732 0.929 . S
C736 C738 1.378 . S
C736 C740 1.350 . S
C737 C740 1.463 . S
C737 C742 1.350 . S
C737 N745 1.427 . S
C738 H729 0.930 . S
C738 C736 1.378 . S
C738 C739 1.367 . S
C739 C738 1.367 . S
C739 C741 1.433 . S
C740 C736 1.350 . S
C740 C737 1.463 . S
C740 N744 1.427 . S
C741 H731 0.929 . S
C741 C739 1.433 . S
C741 N744 1.384 . S
C742 H733 0.929 . S
C742 C734 1.378 . S
C742 C737 1.350 . S
C743 H730 0.929 . S
C743 C735 1.433 . S
C743 N745 1.384 . S
N744 C740 1.427 . S
N744 C741 1.384 . S
N745 C737 1.427 . S
N745 C743 1.384 . S
H746 C752 0.930 . S
H747 C756 0.930 . S
H748 C761 0.929 . S
H749 C759 0.929 . S
H750 C754 0.929 . S
H751 C760 0.929 . S
C752 H746 0.930 . S
C752 C753 1.367 . S
C752 C760 1.378 . S
C753 C752 1.367 . S
C753 C761 1.433 . S
C754 H750 0.929 . S
C754 C756 1.378 . S
C754 C758 1.350 . S
C755 C758 1.463 . S
C755 C760 1.350 . S
C755 N763 1.427 . S
C756 H747 0.930 . S
C756 C754 1.378 . S
C756 C757 1.367 . S
C757 C756 1.367 . S
C757 C759 1.433 . S
C758 C754 1.350 . S
C758 C755 1.463 . S
C758 N762 1.427 . S
C759 H749 0.929 . S
C759 C757 1.433 . S
C759 N762 1.384 . S
C760 H751 0.929 . S
C760 C752 1.378 . S
C760 C755 1.350 . S
C761 H748 0.929 . S
C761 C753 1.433 . S
C761 N763 1.384 . S
N762 C758 1.427 . S
N762 C759 1.384 . S
N763 C755 1.427 . S
N763 C761 1.384 . S
H764 C770 0.930 . S
H765 C774 0.930 . S
H766 C779 0.929 . S
H767 C777 0.929 . S
H768 C772 0.929 . S
H769 C778 0.929 . S
C770 H764 0.930 . S
C770 C771 1.367 . S
C770 C778 1.378 . S
C771 C770 1.367 . S
C771 C779 1.433 . S
C772 H768 0.929 . S
C772 C774 1.378 . S
C772 C776 1.350 . S
C773 C776 1.463 . S
C773 C778 1.350 . S
C773 N781 1.427 . S
C774 H765 0.930 . S
C774 C772 1.378 . S
C774 C775 1.367 . S
C775 C774 1.367 . S
C775 C777 1.433 . S
C776 C772 1.350 . S
C776 C773 1.463 . S
C776 N780 1.427 . S
C777 H767 0.929 . S
C777 C775 1.433 . S
C777 N780 1.384 . S
C778 H769 0.929 . S
C778 C770 1.378 . S
C778 C773 1.350 . S
C779 H766 0.929 . S
C779 C771 1.433 . S
C779 N781 1.384 . S
N780 C776 1.427 . S
N780 C777 1.384 . S
N781 C773 1.427 . S
N781 C779 1.384 . S
H782 C788 0.930 . S
H783 C792 0.930 . S
H784 C797 0.929 . S
H785 C795 0.929 . S
H786 C790 0.929 . S
H787 C796 0.929 . S
C788 H782 0.930 . S
C788 C789 1.367 . S
C788 C796 1.378 . S
C789 C788 1.367 . S
C789 C797 1.433 . S
C790 H786 0.929 . S
C790 C792 1.378 . S
C790 C794 1.350 . S
C791 C794 1.463 . S
C791 C796 1.350 . S
C791 N799 1.427 . S
C792 H783 0.930 . S
C792 C790 1.378 . S
C792 C793 1.367 . S
C793 C792 1.367 . S
C793 C795 1.433 . S
C794 C790 1.350 . S
C794 C791 1.463 . S
C794 N798 1.427 . S
C795 H785 0.929 . S
C795 C793 1.433 . S
C795 N798 1.384 . S
C796 H787 0.929 . S
C796 C788 1.378 . S
C796 C791 1.350 . S
C797 H784 0.929 . S
C797 C789 1.433 . S
C797 N799 1.384 . S
N798 C794 1.427 . S
N798 C795 1.384 . S
N799 C791 1.427 . S
N799 C797 1.384 . S
C231 C6 1.386 . S
C235 C188 1.386 . S
C249 C160 1.383 . S
C253 C20 1.383 . S
C267 C174 1.394 . S
C271 C34 1.394 . S
C285 C146 1.383 . S
C289 C48 1.383 . S
C303 C62 1.390 . S
C307 C216 1.390 . S
C321 C76 1.384 . S
C325 C132 1.384 . S
C339 C202 1.392 . S
C343 C90 1.392 . S
C357 C104 1.394 . S
C361 C118 1.394 . S
C375 C64 1.758 . S
C379 C8 1.760 . S
C393 C22 1.761 . S
C397 C78 1.759 . S
C411 C36 1.761 . S
C415 C92 1.763 . S
C429 C106 1.761 . S
C433 C50 1.763 . S
C447 C120 1.760 . S
C451 C148 1.762 . S
C465 C134 1.760 . S
C469 C162 1.758 . S
C483 C204 1.759 . S
C487 C176 1.759 . S
C501 C190 1.763 . S
C505 C218 1.762 . S
C519 C77 1.419 . S
C523 C7 1.413 . S
C537 C21 1.417 . S
C541 C91 1.412 . S
C555 C35 1.429 . S
C559 C105 1.434 . S
C573 C63 1.427 . S
C577 C49 1.434 . S
C591 C65 1.320 . S
C595 C149 1.323 . S
C609 C37 1.329 . S
C613 C121 1.318 . S
C627 C163 1.321 . S
C631 C93 1.335 . S
C645 C135 1.331 . S
C649 C9 1.331 . S
C663 C119 1.421 . S
C667 C175 1.414 . S
C681 C147 1.414 . S
C685 C217 1.413 1_655 S
C699 C189 1.413 1_655 S
C703 C133 1.414 . S
C717 C161 1.415 . S
C721 C203 1.413 . S
C735 C205 1.324 . S
C739 C23 1.335 . S
C753 C191 1.326 . S
C757 C79 1.319 . S
C771 C219 1.332 . S
C775 C51 1.319 . S
C789 C177 1.319 . S
C793 C107 1.333 . S
