# Generated by pormake.
# Topology sra, (4)-cn, num edge types: 1
# Building blocks:
#     Node 0, Type 0, BuildingBlock: GALJAG_clean_sbu_0, # of connection points: 4
#     Node 1, Type 0, BuildingBlock: GALJAG_clean_sbu_0, # of connection points: 4
#     Node 2, Type 0, BuildingBlock: GALJAG_clean_sbu_0, # of connection points: 4
#     Node 3, Type 0, BuildingBlock: GALJAG_clean_sbu_0, # of connection points: 4
#     Node 4, Type 0, BuildingBlock: GALJAG_clean_sbu_0, # of connection points: 4
#     Node 5, Type 0, BuildingBlock: GALJAG_clean_sbu_0, # of connection points: 4
#     Node 6, Type 0, BuildingBlock: GALJAG_clean_sbu_0, # of connection points: 4
#     Node 7, Type 0, BuildingBlock: GALJAG_clean_sbu_0, # of connection points: 4
#     Edge 8, Type (0, 0), BuildingBlock: FUNLAD_clean_linker_0, # of connection points: 2
#     Edge 9, Type (0, 0), BuildingBlock: FUNLAD_clean_linker_0, # of connection points: 2
#     Edge 10, Type (0, 0), BuildingBlock: FUNLAD_clean_linker_0, # of connection points: 2
#     Edge 11, Type (0, 0), BuildingBlock: FUNLAD_clean_linker_0, # of connection points: 2
#     Edge 12, Type (0, 0), BuildingBlock: FUNLAD_clean_linker_0, # of connection points: 2
#     Edge 13, Type (0, 0), BuildingBlock: FUNLAD_clean_linker_0, # of connection points: 2
#     Edge 14, Type (0, 0), BuildingBlock: FUNLAD_clean_linker_0, # of connection points: 2
#     Edge 15, Type (0, 0), BuildingBlock: FUNLAD_clean_linker_0, # of connection points: 2
#     Edge 16, Type (0, 0), BuildingBlock: FUNLAD_clean_linker_0, # of connection points: 2
#     Edge 17, Type (0, 0), BuildingBlock: FUNLAD_clean_linker_0, # of connection points: 2
#     Edge 18, Type (0, 0), BuildingBlock: FUNLAD_clean_linker_0, # of connection points: 2
#     Edge 19, Type (0, 0), BuildingBlock: FUNLAD_clean_linker_0, # of connection points: 2
#     Edge 20, Type (0, 0), BuildingBlock: FUNLAD_clean_linker_0, # of connection points: 2
#     Edge 21, Type (0, 0), BuildingBlock: FUNLAD_clean_linker_0, # of connection points: 2
#     Edge 22, Type (0, 0), BuildingBlock: FUNLAD_clean_linker_0, # of connection points: 2
#     Edge 23, Type (0, 0), BuildingBlock: FUNLAD_clean_linker_0, # of connection points: 2
# Relax obj value: 0.075
# Max RMSD: 0.110
# Mean RMSD: 0.110
data_MOF--net-sra--node1-GALJAG_clean_sbu_0--edge1-FUNLAD_clean_linker_0
_symmetry_space_group_name_H-M    P1
_symmetry_Int_Tables_number       1
_symmetry_cell_setting            triclinic
loop_
_symmetry_equiv_pos_as_xyz
'x, y, z'
_cell_length_a     32.979946
_cell_length_b     62.892075
_cell_length_c     33.712742
_cell_angle_alpha  89.910604
_cell_angle_beta   89.951603
_cell_angle_gamma 89.986905
loop_
_atom_site_label
_atom_site_type_symbol
_atom_site_fract_x
_atom_site_fract_y
_atom_site_fract_z
_atom_type_partial_charge
In0 In 0.05332 0.09978 0.14601 0.0
O1 O 0.0559 0.08318 0.08624 0.0
O2 O 0.05037 0.06419 0.13858 0.0
C3 C 0.05356 0.14152 0.12963 0.0
C4 C 0.97682 0.09662 0.17318 0.0
C5 C 0.12874 0.09577 0.17544 0.0
O6 O 0.05254 0.12769 0.10243 0.0
O7 O 0.05486 0.13417 0.16447 0.0
O8 O 0.09787 0.09564 0.19787 0.0
O9 O 0.12117 0.09794 0.139 0.0
C10 C 0.0531 0.06476 0.10122 0.0
O11 O 0.00703 0.09357 0.19573 0.0
O12 O 0.98561 0.10121 0.13778 0.0
In13 In 0.02511 0.37797 0.14424 0.0
O14 O 0.02255 0.39107 0.08124 0.0
O15 O 0.03006 0.41283 0.12918 0.0
C16 C 0.01943 0.33565 0.13555 0.0
C17 C 0.10191 0.38066 0.17052 0.0
C18 C 0.9525 0.38577 0.17744 0.0
O19 O 0.02244 0.34794 0.10598 0.0
O20 O 0.01934 0.34477 0.16884 0.0
O21 O 0.98519 0.38747 0.19682 0.0
O22 O 0.95677 0.38035 0.14165 0.0
C23 C 0.02704 0.41016 0.0922 0.0
O24 O 0.07195 0.38433 0.19298 0.0
O25 O 0.09285 0.37556 0.13549 0.0
In26 In 0.02984 0.87991 0.82473 0.0
O27 O 0.98585 0.88641 0.77349 0.0
O28 O 0.96523 0.89144 0.83255 0.0
C29 C 0.10177 0.8747 0.7878 0.0
C30 C 0.04849 0.91199 0.87383 0.0
C31 C 0.0131 0.83965 0.84548 0.0
O32 O 0.07475 0.88693 0.77412 0.0
O33 O 0.09206 0.86505 0.81914 0.0
O34 O 0.02715 0.85295 0.86997 0.0
O35 O 0.00705 0.84683 0.81098 0.0
C36 C 0.95701 0.89187 0.79604 0.0
O37 O 0.0365 0.89414 0.88649 0.0
O38 O 0.05108 0.91351 0.83662 0.0
In39 In 0.03792 0.60283 0.82818 0.0
O40 O 0.04131 0.59005 0.89138 0.0
O41 O 0.03671 0.56797 0.84357 0.0
C42 C 0.03579 0.64532 0.83578 0.0
C43 C 0.11226 0.59756 0.79705 0.0
C44 C 0.9624 0.59688 0.80055 0.0
O45 O 0.03469 0.63314 0.86565 0.0
O46 O 0.03838 0.636 0.80279 0.0
O47 O 0.99321 0.59461 0.77853 0.0
O48 O 0.97 0.60214 0.83583 0.0
C49 C 0.03902 0.57083 0.88056 0.0
O50 O 0.08043 0.59477 0.77676 0.0
O51 O 0.1063 0.6029 0.83265 0.0
In52 In 0.53851 0.60837 0.63955 0.0
O53 O 0.49882 0.60352 0.69451 0.0
O54 O 0.46995 0.60918 0.639 0.0
C55 C 0.61515 0.60367 0.66491 0.0
C56 C 0.53485 0.57323 0.59497 0.0
C57 C 0.54101 0.65007 0.62254 0.0
O58 O 0.58522 0.6025 0.68835 0.0
O59 O 0.60616 0.60719 0.62913 0.0
O60 O 0.53609 0.63625 0.59574 0.0
O61 O 0.54411 0.64275 0.65725 0.0
C62 C 0.46593 0.6056 0.67562 0.0
O63 O 0.53346 0.59163 0.57979 0.0
O64 O 0.5378 0.57277 0.63227 0.0
In65 In 0.53609 0.88353 0.65457 0.0
O66 O 0.57256 0.88778 0.71207 0.0
O67 O 0.59625 0.9009 0.65885 0.0
C68 C 0.46111 0.8816 0.68639 0.0
C69 C 0.52662 0.91197 0.59582 0.0
C70 C 0.55512 0.84305 0.63621 0.0
O71 O 0.48741 0.89472 0.69842 0.0
O72 O 0.47319 0.86922 0.65947 0.0
O73 O 0.53845 0.85541 0.6116 0.0
O74 O 0.5621 0.85115 0.66969 0.0
C75 C 0.60129 0.89762 0.69537 0.0
O76 O 0.55217 0.89706 0.59382 0.0
O77 O 0.50581 0.91241 0.62718 0.0
In78 In 0.52751 0.38018 0.33372 0.0
O79 O 0.48108 0.38325 0.28361 0.0
O80 O 0.46002 0.37543 0.34156 0.0
C81 C 0.59967 0.38814 0.29957 0.0
C82 C 0.52154 0.41526 0.37828 0.0
C83 C 0.53823 0.33901 0.35234 0.0
O84 O 0.56747 0.3865 0.27942 0.0
O85 O 0.59516 0.38583 0.33648 0.0
O86 O 0.53377 0.35306 0.37876 0.0
O87 O 0.53715 0.34583 0.31715 0.0
C88 C 0.45115 0.37914 0.30584 0.0
O89 O 0.52737 0.39709 0.39339 0.0
O90 O 0.5188 0.41557 0.34095 0.0
In91 In 0.55479 0.10406 0.33728 0.0
O92 O 0.59738 0.09602 0.28544 0.0
O93 O 0.62144 0.09697 0.34406 0.0
C94 C 0.47863 0.1046 0.30856 0.0
C95 C 0.54768 0.07089 0.38653 0.0
C96 C 0.56648 0.14575 0.34969 0.0
O97 O 0.5084 0.09856 0.28764 0.0
O98 O 0.48768 0.11054 0.34317 0.0
O99 O 0.55738 0.13323 0.37772 0.0
O100 O 0.56931 0.13719 0.31599 0.0
C101 C 0.62815 0.09406 0.30765 0.0
O102 O 0.55763 0.08916 0.39882 0.0
O103 O 0.54102 0.06957 0.34975 0.0
C104 C 0.02463 0.30196 0.09605 0.0
C105 C 0.017 0.31232 0.13218 0.0
C106 C 0.02451 0.27971 0.09412 0.0
C107 C 0.01653 0.26754 0.12838 0.0
C108 C 0.00752 0.27806 0.16398 0.0
C109 C 0.008 0.30015 0.16596 0.0
C110 C 0.01804 0.24398 0.12925 0.0
C111 C 0.03787 0.23182 0.10271 0.0
C112 C 0.04324 0.20867 0.10934 0.0
C113 C 0.04375 0.19462 0.07703 0.0
C114 C 0.04766 0.17269 0.08329 0.0
C115 C 0.05168 0.16458 0.12197 0.0
H116 H 0.05029 0.21096 0.1733 0.0
C117 C 0.05275 0.17876 0.15405 0.0
C118 C 0.04877 0.20053 0.14783 0.0
H119 H 0.05638 0.17303 0.18417 0.0
H120 H 0.03138 0.31101 0.0695 0.0
H121 H 0.03062 0.27224 0.06588 0.0
H122 H 0.00103 0.26912 0.19076 0.0
H123 H 0.00166 0.3077 0.19416 0.0
H124 H 0.00407 0.23632 0.15476 0.0
H125 H 0.0511 0.23873 0.0762 0.0
H126 H 0.04022 0.20057 0.04705 0.0
H127 H 0.04701 0.1621 0.05799 0.0
C128 C 0.98855 0.80351 0.8277 0.0
C129 C 0.00769 0.81696 0.85505 0.0
C130 C 0.98799 0.78159 0.83384 0.0
C131 C 0.00721 0.77264 0.86718 0.0
C132 C 0.0239 0.7862 0.89587 0.0
C133 C 0.02424 0.80822 0.88983 0.0
C134 C 0.01169 0.74927 0.87165 0.0
C135 C 0.01624 0.73657 0.83981 0.0
C136 C 0.02271 0.7132 0.84114 0.0
C137 C 0.03276 0.70297 0.80549 0.0
C138 C 0.0377 0.681 0.80412 0.0
C139 C 0.03276 0.66866 0.83847 0.0
H140 H 0.0099 0.70795 0.90383 0.0
C141 C 0.02335 0.67876 0.87444 0.0
C142 C 0.01818 0.70085 0.87581 0.0
H143 H 0.01914 0.66956 0.90132 0.0
H144 H 0.97487 0.80986 0.80099 0.0
H145 H 0.97315 0.77169 0.81199 0.0
H146 H 0.0383 0.77971 0.9221 0.0
H147 H 0.03895 0.81828 0.91155 0.0
H148 H 0.01437 0.74292 0.90144 0.0
H149 H 0.01679 0.74381 0.81053 0.0
H150 H 0.03647 0.71199 0.77831 0.0
H151 H 0.04502 0.67368 0.77594 0.0
C152 C 0.55419 0.68692 0.64548 0.0
C153 C 0.54388 0.67307 0.6145 0.0
C154 C 0.55728 0.70869 0.63876 0.0
C155 C 0.55026 0.71718 0.60077 0.0
C156 C 0.53923 0.70341 0.56984 0.0
C157 C 0.53645 0.68146 0.57653 0.0
C158 C 0.55174 0.74046 0.59395 0.0
C159 C 0.5776 0.75301 0.61413 0.0
C160 C 0.57461 0.77652 0.61604 0.0
C161 C 0.592 0.78675 0.64885 0.0
C162 C 0.58649 0.80847 0.65476 0.0
C163 C 0.56388 0.82055 0.62764 0.0
H164 H 0.54058 0.78164 0.56156 0.0
C165 C 0.54824 0.81065 0.5936 0.0
C166 C 0.55348 0.78879 0.58783 0.0
H167 H 0.531 0.81967 0.57203 0.0
H168 H 0.55979 0.68096 0.67515 0.0
H169 H 0.56424 0.71887 0.6637 0.0
H170 H 0.53302 0.70964 0.54049 0.0
H171 H 0.52821 0.67113 0.55218 0.0
H172 H 0.52974 0.74721 0.57363 0.0
H173 H 0.59999 0.74558 0.63333 0.0
H174 H 0.60869 0.77775 0.6709 0.0
H175 H 0.59925 0.81572 0.68107 0.0
C176 C 0.55273 0.30213 0.33017 0.0
C177 C 0.54419 0.31626 0.36124 0.0
C178 C 0.55779 0.28053 0.33763 0.0
C179 C 0.55465 0.2725 0.37648 0.0
C180 C 0.54563 0.28655 0.40758 0.0
C181 C 0.54079 0.30833 0.40011 0.0
C182 C 0.55805 0.24934 0.38428 0.0
C183 C 0.58225 0.2368 0.3622 0.0
C184 C 0.58046 0.21324 0.36204 0.0
C185 C 0.59377 0.20272 0.32777 0.0
C186 C 0.58969 0.18078 0.3242 0.0
C187 C 0.57276 0.16876 0.35514 0.0
H188 H 0.55504 0.20863 0.42101 0.0
C189 C 0.561 0.17905 0.39028 0.0
C190 C 0.56468 0.20116 0.39371 0.0
H191 H 0.54815 0.17009 0.41471 0.0
H192 H 0.55518 0.30773 0.29985 0.0
H193 H 0.56308 0.2701 0.31264 0.0
H194 H 0.54242 0.28068 0.43765 0.0
H195 H 0.53395 0.31888 0.42457 0.0
H196 H 0.53873 0.2426 0.40713 0.0
H197 H 0.60203 0.24416 0.34032 0.0
H198 H 0.60626 0.21159 0.30302 0.0
H199 H 0.59942 0.17326 0.29691 0.0
C200 C 0.42624 0.09712 0.2564 0.0
C201 C 0.43612 0.10418 0.29466 0.0
C202 C 0.38572 0.0963 0.24408 0.0
C203 C 0.35419 0.10241 0.27001 0.0
C204 C 0.36437 0.10973 0.30802 0.0
C205 C 0.40476 0.11056 0.32025 0.0
C206 C 0.31054 0.10207 0.2586 0.0
C207 C 0.29561 0.09112 0.22757 0.0
C208 C 0.25224 0.09185 0.21571 0.0
C209 C 0.2426 0.0892 0.17554 0.0
C210 C 0.20245 0.09036 0.16274 0.0
C211 C 0.17084 0.0938 0.18997 0.0
H212 H 0.22674 0.09632 0.27463 0.0
C213 C 0.18017 0.09578 0.23043 0.0
C214 C 0.22056 0.09487 0.24323 0.0
H215 H 0.15637 0.0983 0.25208 0.0
H216 H 0.44981 0.09223 0.23595 0.0
H217 H 0.37962 0.09118 0.21409 0.0
H218 H 0.34093 0.11472 0.32854 0.0
H219 H 0.41135 0.11612 0.34995 0.0
H220 H 0.28989 0.11138 0.27672 0.0
H221 H 0.31579 0.08193 0.20885 0.0
H222 H 0.26631 0.08664 0.15379 0.0
H223 H 0.1962 0.0886 0.13138 0.0
C224 C 0.67381 0.3951 0.30613 0.0
C225 C 0.63993 0.39185 0.28167 0.0
C226 C 0.71241 0.39757 0.28974 0.0
C227 C 0.71807 0.39656 0.24839 0.0
C228 C 0.68391 0.39402 0.22393 0.0
C229 C 0.64522 0.39165 0.24037 0.0
C230 C 0.75886 0.39786 0.2296 0.0
C231 C 0.79374 0.39355 0.24892 0.0
C232 C 0.83414 0.39295 0.22933 0.0
C233 C 0.86912 0.39516 0.25274 0.0
C234 C 0.90773 0.39332 0.23586 0.0
C235 C 0.91205 0.38902 0.19524 0.0
H236 H 0.81263 0.38632 0.16957 0.0
C237 C 0.87713 0.38697 0.17173 0.0
C238 C 0.83861 0.38884 0.18854 0.0
H239 H 0.87949 0.38349 0.14035 0.0
H240 H 0.67058 0.39565 0.33809 0.0
H241 H 0.73744 0.40033 0.30975 0.0
H242 H 0.68726 0.3934 0.19197 0.0
H243 H 0.6196 0.38927 0.22077 0.0
H244 H 0.75971 0.40171 0.19823 0.0
H245 H 0.79317 0.38982 0.28032 0.0
H246 H 0.86659 0.39814 0.2843 0.0
H247 H 0.93411 0.3949 0.25475 0.0
C248 C 0.15909 0.8887 0.7465 0.0
C249 C 0.14265 0.8726 0.77051 0.0
C250 C 0.19951 0.88753 0.73392 0.0
C251 C 0.22386 0.87008 0.74477 0.0
C252 C 0.20673 0.85358 0.76721 0.0
C253 C 0.16671 0.85494 0.78039 0.0
C254 C 0.26704 0.86842 0.73295 0.0
C255 C 0.29172 0.88541 0.7302 0.0
C256 C 0.33548 0.8836 0.72024 0.0
C257 C 0.36255 0.8992 0.73386 0.0
C258 C 0.40375 0.89823 0.72407 0.0
C259 C 0.41852 0.88175 0.69996 0.0
H260 H 0.33042 0.85501 0.68437 0.0
C261 C 0.3915 0.86611 0.68644 0.0
C262 C 0.35044 0.86701 0.69639 0.0
H263 H 0.40192 0.85333 0.66748 0.0
H264 H 0.14114 0.90248 0.73849 0.0
H265 H 0.2116 0.90024 0.71573 0.0
H266 H 0.22472 0.83987 0.77555 0.0
H267 H 0.1547 0.84224 0.7987 0.0
H268 H 0.27949 0.85253 0.72959 0.0
H269 H 0.28009 0.90108 0.73764 0.0
H270 H 0.35177 0.91222 0.75205 0.0
H271 H 0.42382 0.91062 0.73461 0.0
C272 C 0.66705 0.59854 0.71823 0.0
C273 C 0.6576 0.60136 0.678 0.0
C274 C 0.70745 0.59688 0.73041 0.0
C275 C 0.73921 0.59783 0.70242 0.0
C276 C 0.72953 0.60066 0.66225 0.0
C277 C 0.68922 0.60235 0.65012 0.0
C278 C 0.78273 0.59706 0.71385 0.0
C279 C 0.79622 0.58929 0.74864 0.0
C280 C 0.83939 0.59031 0.76079 0.0
C281 C 0.84835 0.59198 0.80129 0.0
C282 C 0.88837 0.59395 0.81405 0.0
C283 C 0.92041 0.59394 0.78657 0.0
H284 H 0.86582 0.58779 0.70184 0.0
C285 C 0.91172 0.59152 0.74608 0.0
C286 C 0.87152 0.58974 0.73323 0.0
H287 H 0.93589 0.59127 0.72431 0.0
H288 H 0.64327 0.59791 0.74039 0.0
H289 H 0.71337 0.59541 0.76182 0.0
H290 H 0.75328 0.60163 0.64008 0.0
H291 H 0.68288 0.60456 0.61886 0.0
H292 H 0.80435 0.6035 0.6927 0.0
H293 H 0.77497 0.58293 0.77016 0.0
H294 H 0.82422 0.59226 0.82313 0.0
H295 H 0.89415 0.59561 0.84552 0.0
C296 C 0.67008 0.9141 0.69494 0.0
C297 C 0.63998 0.90263 0.7153 0.0
C298 C 0.70891 0.91623 0.71093 0.0
C299 C 0.7186 0.9067 0.7475 0.0
C300 C 0.68774 0.89642 0.76898 0.0
C301 C 0.64879 0.89435 0.75301 0.0
C302 C 0.76063 0.90655 0.76353 0.0
C303 C 0.79388 0.90775 0.74023 0.0
C304 C 0.83606 0.90503 0.75511 0.0
C305 C 0.86654 0.89901 0.72819 0.0
C306 C 0.90614 0.89516 0.74119 0.0
C307 C 0.91609 0.89736 0.78143 0.0
H308 H 0.82449 0.91343 0.8167 0.0
C309 C 0.88605 0.90414 0.80817 0.0
C310 C 0.84652 0.90805 0.79518 0.0
H311 H 0.89295 0.90625 0.83932 0.0
H312 H 0.66399 0.92094 0.66604 0.0
H313 H 0.73127 0.92509 0.69422 0.0
H314 H 0.69418 0.8892 0.7975 0.0
H315 H 0.62615 0.88549 0.76945 0.0
H316 H 0.76396 0.90334 0.79499 0.0
H317 H 0.79021 0.90902 0.70832 0.0
H318 H 0.85951 0.89678 0.69708 0.0
H319 H 0.92871 0.89006 0.71987 0.0
C320 C 0.39047 0.60514 0.6711 0.0
C321 C 0.42565 0.60386 0.69445 0.0
C322 C 0.35216 0.6036 0.68847 0.0
C323 C 0.3482 0.60065 0.72967 0.0
C324 C 0.38339 0.5996 0.75304 0.0
C325 C 0.4218 0.60104 0.73559 0.0
C326 C 0.30793 0.59977 0.74935 0.0
C327 C 0.27402 0.59296 0.73095 0.0
C328 C 0.23288 0.59324 0.74919 0.0
C329 C 0.19891 0.59122 0.72429 0.0
C330 C 0.15961 0.59226 0.73977 0.0
C331 C 0.1535 0.59533 0.78055 0.0
H332 H 0.25152 0.59647 0.81094 0.0
C333 C 0.18733 0.59675 0.80566 0.0
C334 C 0.22657 0.59559 0.79027 0.0
H335 H 0.18353 0.59883 0.83734 0.0
H336 H 0.39247 0.60747 0.63932 0.0
H337 H 0.32586 0.60527 0.66957 0.0
H338 H 0.38118 0.59758 0.78489 0.0
H339 H 0.4484 0.60009 0.75433 0.0
H340 H 0.30678 0.60504 0.77991 0.0
H341 H 0.27604 0.58739 0.70054 0.0
H342 H 0.20275 0.5892 0.6926 0.0
H343 H 0.13407 0.59102 0.71972 0.0
C344 C 0.67848 0.09057 0.25209 0.0
C345 C 0.66946 0.08968 0.29276 0.0
C346 C 0.71848 0.08807 0.23889 0.0
C347 C 0.75015 0.08462 0.26623 0.0
C348 C 0.74067 0.08281 0.30664 0.0
C349 C 0.70087 0.08546 0.31981 0.0
C350 C 0.7934 0.08303 0.25407 0.0
C351 C 0.80846 0.09294 0.22184 0.0
C352 C 0.85211 0.09287 0.21053 0.0
C353 C 0.86228 0.09809 0.17131 0.0
C354 C 0.90273 0.0991 0.15936 0.0
C355 C 0.93417 0.09509 0.18647 0.0
H356 H 0.87729 0.08537 0.26863 0.0
C357 C 0.92426 0.0899 0.22581 0.0
C358 C 0.88361 0.08883 0.23782 0.0
H359 H 0.94788 0.08686 0.2474 0.0
H360 H 0.6548 0.09361 0.23057 0.0
H361 H 0.72436 0.08883 0.20735 0.0
H362 H 0.76432 0.07993 0.32829 0.0
H363 H 0.69483 0.0845 0.35136 0.0
H364 H 0.81355 0.07427 0.27358 0.0
H365 H 0.78807 0.1018 0.20268 0.0
H366 H 0.83879 0.10143 0.14971 0.0
H367 H 0.90932 0.10318 0.1288 0.0
C368 C 0.15425 0.38539 0.2237 0.0
C369 C 0.14449 0.3823 0.1836 0.0
C370 C 0.19481 0.38661 0.23564 0.0
C371 C 0.22629 0.38479 0.20756 0.0
C372 C 0.21635 0.38218 0.16745 0.0
C373 C 0.17593 0.38077 0.1556 0.0
C374 C 0.26974 0.38592 0.21876 0.0
C375 C 0.28378 0.37911 0.25405 0.0
C376 C 0.3273 0.37934 0.26585 0.0
C377 C 0.33679 0.37561 0.30584 0.0
C378 C 0.377 0.37548 0.31867 0.0
C379 C 0.40879 0.37903 0.29174 0.0
H380 H 0.35386 0.38506 0.20746 0.0
C381 C 0.39961 0.38258 0.25165 0.0
C382 C 0.35931 0.38266 0.23873 0.0
H383 H 0.42357 0.38522 0.2302 0.0
H384 H 0.13058 0.3868 0.24585 0.0
H385 H 0.20131 0.38929 0.26668 0.0
H386 H 0.23998 0.38093 0.14521 0.0
H387 H 0.16935 0.37855 0.12441 0.0
H388 H 0.29046 0.39181 0.19635 0.0
H389 H 0.26239 0.37286 0.27564 0.0
H390 H 0.31296 0.37287 0.32741 0.0
H391 H 0.38311 0.37266 0.3498 0.0
C392 C 0.05942 0.04626 0.036 0.0
C393 C 0.05314 0.04527 0.07712 0.0
C394 C 0.05952 0.02769 0.01335 0.0
C395 C 0.05342 0.00778 0.03156 0.0
C396 C 0.04662 0.00688 0.07257 0.0
C397 C 0.04675 0.02542 0.09522 0.0
C398 C 0.052 0.98778 0.00852 0.0
C399 C 0.07216 0.98503 0.9742 0.0
C400 C 0.06838 0.96558 0.94971 0.0
C401 C 0.07516 0.9672 0.90875 0.0
C402 C 0.06943 0.94964 0.88417 0.0
C403 C 0.05714 0.93006 0.9002 0.0
H404 H 0.05376 0.94359 -0.00242 0.0
C405 C 0.052 0.92814 0.94136 0.0
C406 C 0.05771 0.94571 0.96597 0.0
H407 H 0.04306 0.91313 0.95454 0.0
H408 H 0.0641 0.06139 0.02127 0.0
H409 H 0.06346 0.0291 0.98159 0.0
H410 H 0.04139 0.99177 0.0872 0.0
H411 H 0.04162 0.02419 0.12688 0.0
H412 H 0.03347 0.97503 0.0205 0.0
H413 H 0.09071 -0.00216 0.96244 0.0
H414 H 0.08385 0.98225 0.89554 0.0
H415 H 0.07394 0.95154 0.85253 0.0
C416 C 0.03258 0.53211 0.89462 0.0
C417 C 0.03791 0.55291 0.90873 0.0
C418 C 0.03035 0.51504 0.92094 0.0
C419 C 0.03387 0.5184 0.96205 0.0
C420 C 0.03893 0.53924 0.97612 0.0
C421 C 0.04105 0.55636 0.94972 0.0
C422 C 0.03099 0.50073 -0.00885 0.0
C423 C 0.03878 0.48027 0.98202 0.0
C424 C 0.03539 0.4626 0.01101 0.0
C425 C 0.02915 0.44187 -0.00317 0.0
C426 C 0.02607 0.42476 0.02314 0.0
C427 C 0.0295 0.42809 0.06415 0.0
H428 H 0.0456 0.48139 0.06426 0.0
C429 C 0.03618 0.44877 0.07836 0.0
C430 C 0.0393 0.46584 0.05211 0.0
H431 H 0.03945 0.45177 0.10984 0.0
H432 H 0.02955 0.52901 0.86315 0.0
H433 H 0.02492 0.49941 0.90879 0.0
H434 H 0.04135 0.5423 0.00766 0.0
H435 H 0.04495 0.57226 0.96141 0.0
H436 H 0.02229 0.50496 0.02116 0.0
H437 H 0.04748 0.47601 0.95203 0.0
H438 H 0.02641 0.43891 0.96529 0.0
H439 H 0.02115 0.40896 0.01138 0.0
C440 C 0.52255 0.43402 0.44354 0.0
C441 C 0.51869 0.4348 0.40212 0.0
C442 C 0.52079 0.45268 0.46587 0.0
C443 C 0.51543 0.4725 0.44705 0.0
C444 C 0.51054 0.47314 0.40576 0.0
C445 C 0.51233 0.4545 0.38346 0.0
C446 C 0.51432 0.49278 0.46937 0.0
C447 C 0.53294 0.49544 0.5045 0.0
C448 C 0.53252 0.51575 0.52669 0.0
C449 C 0.53774 0.51508 0.56793 0.0
C450 C 0.53812 0.53378 0.59005 0.0
C451 C 0.53377 0.55359 0.57127 0.0
H452 H 0.5257 0.53686 0.47588 0.0
C453 C 0.529 0.55438 0.52994 0.0
C454 C 0.52844 0.53563 0.50777 0.0
H455 H 0.52597 0.56947 0.51471 0.0
H456 H 0.52699 0.419 0.45871 0.0
H457 H 0.52316 0.45139 0.49778 0.0
H458 H 0.50595 0.48815 0.39059 0.0
H459 H 0.50898 0.45556 0.35155 0.0
H460 H 0.49847 0.50602 0.45569 0.0
H461 H 0.54887 0.48223 0.51815 0.0
H462 H 0.5413 0.5 0.58316 0.0
H463 H 0.54206 0.53268 0.62189 0.0
C464 C 0.55635 0.93345 0.54095 0.0
C465 C 0.5231 0.92854 0.56527 0.0
C466 C 0.55439 0.95066 0.51483 0.0
C467 C 0.51885 0.96291 0.51219 0.0
C468 C 0.48495 0.9573 0.53498 0.0
C469 C 0.48724 0.94043 0.56183 0.0
C470 C 0.51683 0.9818 0.48629 0.0
C471 C 0.54744 -0.00413 0.48459 0.0
C472 C 0.54557 0.01528 0.45994 0.0
C473 C 0.56487 0.03384 0.47316 0.0
C474 C 0.56451 0.05223 0.44986 0.0
C475 C 0.54566 0.05213 0.41256 0.0
H476 H 0.51187 0.00107 0.41146 0.0
C477 C 0.52644 0.03353 0.39929 0.0
C478 C 0.52622 0.01529 0.42283 0.0
H479 H 0.51185 0.03302 0.37053 0.0
H480 H 0.58431 0.92448 0.54311 0.0
H481 H 0.58067 0.95446 0.49689 0.0
H482 H 0.45718 0.96646 0.53306 0.0
H483 H 0.46114 0.93682 0.58017 0.0
H484 H 0.48853 0.98503 0.47093 0.0
H485 H 0.57383 -0.00633 0.50348 0.0
H486 H 0.58019 0.03411 0.50158 0.0
H487 H 0.57982 0.06633 0.46059 0.0
loop_
_geom_bond_atom_site_label_1
_geom_bond_atom_site_label_2
_geom_bond_distance
_geom_bond_site_symmetry_2
_ccdc_geom_bond_type
In0 O1 2.294 . S
In0 O2 2.326 . S
In0 O6 2.266 . S
In0 O7 2.326 . S
In0 O8 2.266 . S
In0 O9 2.326 . S
In0 O11 2.294 1_455 S
In0 O12 2.326 1_455 S
O1 In0 2.294 . S
O1 C10 1.240 . S
O2 In0 2.326 . S
O2 C10 1.252 . S
C3 O6 1.252 . S
C3 O7 1.260 . S
C4 O11 1.240 . S
C4 O12 1.252 . S
C5 O8 1.252 . S
C5 O9 1.260 . S
O6 In0 2.266 . S
O6 C3 1.252 . S
O7 In0 2.326 . S
O7 C3 1.260 . S
O8 In0 2.266 . S
O8 C5 1.252 . S
O9 In0 2.326 . S
O9 C5 1.260 . S
C10 O1 1.240 . S
C10 O2 1.252 . S
O11 In0 2.294 1_655 S
O11 C4 1.240 . S
O12 In0 2.326 1_655 S
O12 C4 1.252 . S
In13 O14 2.294 . S
In13 O15 2.326 . S
In13 O19 2.266 . S
In13 O20 2.326 . S
In13 O21 2.266 . S
In13 O22 2.326 1_455 S
In13 O24 2.294 . S
In13 O25 2.326 . S
O14 In13 2.294 . S
O14 C23 1.240 . S
O15 In13 2.326 . S
O15 C23 1.252 . S
C16 O19 1.252 . S
C16 O20 1.260 . S
C17 O24 1.240 . S
C17 O25 1.252 . S
C18 O21 1.252 1_655 S
C18 O22 1.260 . S
O19 In13 2.266 . S
O19 C16 1.252 . S
O20 In13 2.326 . S
O20 C16 1.260 . S
O21 In13 2.266 . S
O21 C18 1.252 1_455 S
O22 In13 2.326 1_655 S
O22 C18 1.260 . S
C23 O14 1.240 . S
C23 O15 1.252 . S
O24 In13 2.294 . S
O24 C17 1.240 . S
O25 In13 2.326 . S
O25 C17 1.252 . S
In26 O27 2.294 1_455 S
In26 O28 2.326 1_455 S
In26 O32 2.266 . S
In26 O33 2.326 . S
In26 O34 2.266 . S
In26 O35 2.326 . S
In26 O37 2.294 . S
In26 O38 2.326 . S
O27 In26 2.294 1_655 S
O27 C36 1.240 . S
O28 In26 2.326 1_655 S
O28 C36 1.252 . S
C29 O32 1.252 . S
C29 O33 1.260 . S
C30 O37 1.240 . S
C30 O38 1.252 . S
C31 O34 1.252 . S
C31 O35 1.260 . S
O32 In26 2.266 . S
O32 C29 1.252 . S
O33 In26 2.326 . S
O33 C29 1.260 . S
O34 In26 2.266 . S
O34 C31 1.252 . S
O35 In26 2.326 . S
O35 C31 1.260 . S
C36 O27 1.240 . S
C36 O28 1.252 . S
O37 In26 2.294 . S
O37 C30 1.240 . S
O38 In26 2.326 . S
O38 C30 1.252 . S
In39 O40 2.294 . S
In39 O41 2.326 . S
In39 O45 2.266 . S
In39 O46 2.326 . S
In39 O47 2.266 . S
In39 O48 2.326 1_455 S
In39 O50 2.294 . S
In39 O51 2.326 . S
O40 In39 2.294 . S
O40 C49 1.240 . S
O41 In39 2.326 . S
O41 C49 1.252 . S
C42 O45 1.252 . S
C42 O46 1.260 . S
C43 O50 1.240 . S
C43 O51 1.252 . S
C44 O47 1.252 1_655 S
C44 O48 1.260 . S
O45 In39 2.266 . S
O45 C42 1.252 . S
O46 In39 2.326 . S
O46 C42 1.260 . S
O47 In39 2.266 . S
O47 C44 1.252 1_455 S
O48 In39 2.326 1_655 S
O48 C44 1.260 . S
C49 O40 1.240 . S
C49 O41 1.252 . S
O50 In39 2.294 . S
O50 C43 1.240 . S
O51 In39 2.326 . S
O51 C43 1.252 . S
In52 O53 2.294 . S
In52 O54 2.326 . S
In52 O58 2.266 . S
In52 O59 2.326 . S
In52 O60 2.266 . S
In52 O61 2.326 . S
In52 O63 2.294 . S
In52 O64 2.326 . S
O53 In52 2.294 . S
O53 C62 1.240 . S
O54 In52 2.326 . S
O54 C62 1.252 . S
C55 O58 1.252 . S
C55 O59 1.260 . S
C56 O63 1.240 . S
C56 O64 1.252 . S
C57 O60 1.252 . S
C57 O61 1.260 . S
O58 In52 2.266 . S
O58 C55 1.252 . S
O59 In52 2.326 . S
O59 C55 1.260 . S
O60 In52 2.266 . S
O60 C57 1.252 . S
O61 In52 2.326 . S
O61 C57 1.260 . S
C62 O53 1.240 . S
C62 O54 1.252 . S
O63 In52 2.294 . S
O63 C56 1.240 . S
O64 In52 2.326 . S
O64 C56 1.252 . S
In65 O66 2.294 . S
In65 O67 2.326 . S
In65 O71 2.266 . S
In65 O72 2.326 . S
In65 O73 2.266 . S
In65 O74 2.326 . S
In65 O76 2.294 . S
In65 O77 2.326 . S
O66 In65 2.294 . S
O66 C75 1.240 . S
O67 In65 2.326 . S
O67 C75 1.252 . S
C68 O71 1.252 . S
C68 O72 1.260 . S
C69 O76 1.240 . S
C69 O77 1.252 . S
C70 O73 1.252 . S
C70 O74 1.260 . S
O71 In65 2.266 . S
O71 C68 1.252 . S
O72 In65 2.326 . S
O72 C68 1.260 . S
O73 In65 2.266 . S
O73 C70 1.252 . S
O74 In65 2.326 . S
O74 C70 1.260 . S
C75 O66 1.240 . S
C75 O67 1.252 . S
O76 In65 2.294 . S
O76 C69 1.240 . S
O77 In65 2.326 . S
O77 C69 1.252 . S
In78 O79 2.294 . S
In78 O80 2.326 . S
In78 O84 2.266 . S
In78 O85 2.326 . S
In78 O86 2.266 . S
In78 O87 2.326 . S
In78 O89 2.294 . S
In78 O90 2.326 . S
O79 In78 2.294 . S
O79 C88 1.240 . S
O80 In78 2.326 . S
O80 C88 1.252 . S
C81 O84 1.252 . S
C81 O85 1.260 . S
C82 O89 1.240 . S
C82 O90 1.252 . S
C83 O86 1.252 . S
C83 O87 1.260 . S
O84 In78 2.266 . S
O84 C81 1.252 . S
O85 In78 2.326 . S
O85 C81 1.260 . S
O86 In78 2.266 . S
O86 C83 1.252 . S
O87 In78 2.326 . S
O87 C83 1.260 . S
C88 O79 1.240 . S
C88 O80 1.252 . S
O89 In78 2.294 . S
O89 C82 1.240 . S
O90 In78 2.326 . S
O90 C82 1.252 . S
In91 O92 2.294 . S
In91 O93 2.326 . S
In91 O97 2.266 . S
In91 O98 2.326 . S
In91 O99 2.266 . S
In91 O100 2.326 . S
In91 O102 2.294 . S
In91 O103 2.326 . S
O92 In91 2.294 . S
O92 C101 1.240 . S
O93 In91 2.326 . S
O93 C101 1.252 . S
C94 O97 1.252 . S
C94 O98 1.260 . S
C95 O102 1.240 . S
C95 O103 1.252 . S
C96 O99 1.252 . S
C96 O100 1.260 . S
O97 In91 2.266 . S
O97 C94 1.252 . S
O98 In91 2.326 . S
O98 C94 1.260 . S
O99 In91 2.266 . S
O99 C96 1.252 . S
O100 In91 2.326 . S
O100 C96 1.260 . S
C101 O92 1.240 . S
C101 O93 1.252 . S
O102 In91 2.294 . S
O102 C95 1.240 . S
O103 In91 2.326 . S
O103 C95 1.252 . S
C104 C105 1.386 . S
C104 C106 1.383 . S
C104 H120 0.951 . S
C105 C104 1.386 . S
C105 C109 1.383 . S
C106 C104 1.383 . S
C106 C107 1.402 . S
C106 H121 0.951 . S
C107 C106 1.402 . S
C107 C108 1.375 . S
C107 C110 1.481 . S
C108 C107 1.375 . S
C108 C109 1.367 . S
C108 H122 0.956 . S
C109 C105 1.383 . S
C109 C108 1.367 . S
C109 H123 0.961 . S
C110 C107 1.481 . S
C110 C111 1.297 . S
C110 H124 0.950 . S
C111 C110 1.297 . S
C111 C112 1.479 . S
C111 H125 0.950 . S
C112 C111 1.479 . S
C112 C113 1.375 . S
C112 C118 1.404 . S
C113 C112 1.375 . S
C113 C114 1.369 . S
C113 H126 0.950 . S
C114 C113 1.369 . S
C114 C115 1.392 . S
C114 H127 0.951 . S
C115 C114 1.392 . S
C115 C117 1.384 . S
H116 C118 0.949 . S
C117 C115 1.384 . S
C117 C118 1.385 . S
C117 H119 0.950 . S
C118 C112 1.404 . S
C118 H116 0.949 . S
C118 C117 1.385 . S
H119 C117 0.950 . S
H120 C104 0.951 . S
H121 C106 0.951 . S
H122 C108 0.956 . S
H123 C109 0.961 . S
H124 C110 0.950 . S
H125 C111 0.950 . S
H126 C113 0.950 . S
H127 C114 0.951 . S
C128 C129 1.386 . S
C128 C130 1.383 . S
C128 H144 0.951 . S
C129 C128 1.386 . S
C129 C133 1.383 . S
C130 C128 1.383 . S
C130 C131 1.402 . S
C130 H145 0.951 . S
C131 C130 1.402 . S
C131 C132 1.375 . S
C131 C134 1.481 . S
C132 C131 1.375 . S
C132 C133 1.367 . S
C132 H146 0.951 1_455 S
C133 C129 1.383 . S
C133 C132 1.367 . S
C133 H147 0.950 1_455 S
C134 C131 1.481 . S
C134 C135 1.297 . S
C134 H148 0.950 . S
C135 C134 1.297 . S
C135 C136 1.479 . S
C135 H149 0.950 . S
C136 C135 1.479 . S
C136 C137 1.375 . S
C136 C142 1.404 . S
C137 C136 1.375 . S
C137 C138 1.369 . S
C137 H150 0.950 . S
C138 C137 1.369 . S
C138 C139 1.392 . S
C138 H151 0.951 . S
C139 C138 1.392 . S
C139 C141 1.384 . S
H140 C142 0.949 1_655 S
C141 C139 1.384 . S
C141 C142 1.385 . S
C141 H143 0.950 1_455 S
C142 C136 1.404 . S
C142 H140 0.949 1_455 S
C142 C141 1.385 . S
H143 C141 0.950 1_655 S
H144 C128 0.951 . S
H145 C130 0.951 . S
H146 C132 0.951 1_655 S
H147 C133 0.950 1_655 S
H148 C134 0.950 . S
H149 C135 0.950 . S
H150 C137 0.950 . S
H151 C138 0.951 . S
C152 C153 1.386 . S
C152 C154 1.383 . S
C152 H168 0.951 . S
C153 C152 1.386 . S
C153 C157 1.383 . S
C154 C152 1.383 . S
C154 C155 1.402 . S
C154 H169 0.951 . S
C155 C154 1.402 . S
C155 C156 1.375 . S
C155 C158 1.481 . S
C156 C155 1.375 . S
C156 C157 1.367 . S
C156 H170 0.951 . S
C157 C153 1.383 . S
C157 C156 1.367 . S
C157 H171 0.950 . S
C158 C155 1.481 . S
C158 C159 1.297 . S
C158 H172 0.950 . S
C159 C158 1.297 . S
C159 C160 1.479 . S
C159 H173 0.950 . S
C160 C159 1.479 . S
C160 C161 1.375 . S
C160 C166 1.404 . S
C161 C160 1.375 . S
C161 C162 1.369 . S
C161 H174 0.950 . S
C162 C161 1.369 . S
C162 C163 1.392 . S
C162 H175 0.951 . S
C163 C162 1.392 . S
C163 C165 1.384 . S
H164 C166 0.949 . S
C165 C163 1.384 . S
C165 C166 1.385 . S
C165 H167 0.950 . S
C166 C160 1.404 . S
C166 H164 0.949 . S
C166 C165 1.385 . S
H167 C165 0.950 . S
H168 C152 0.951 . S
H169 C154 0.951 . S
H170 C156 0.951 . S
H171 C157 0.950 . S
H172 C158 0.950 . S
H173 C159 0.950 . S
H174 C161 0.950 . S
H175 C162 0.951 . S
C176 C177 1.386 . S
C176 C178 1.383 . S
C176 H192 0.951 . S
C177 C176 1.386 . S
C177 C181 1.383 . S
C178 C176 1.383 . S
C178 C179 1.402 . S
C178 H193 0.951 . S
C179 C178 1.402 . S
C179 C180 1.375 . S
C179 C182 1.481 . S
C180 C179 1.375 . S
C180 C181 1.367 . S
C180 H194 0.951 . S
C181 C177 1.383 . S
C181 C180 1.367 . S
C181 H195 0.950 . S
C182 C179 1.481 . S
C182 C183 1.297 . S
C182 H196 0.950 . S
C183 C182 1.297 . S
C183 C184 1.479 . S
C183 H197 0.950 . S
C184 C183 1.479 . S
C184 C185 1.375 . S
C184 C190 1.404 . S
C185 C184 1.375 . S
C185 C186 1.369 . S
C185 H198 0.950 . S
C186 C185 1.369 . S
C186 C187 1.392 . S
C186 H199 0.951 . S
C187 C186 1.392 . S
C187 C189 1.384 . S
H188 C190 0.949 . S
C189 C187 1.384 . S
C189 C190 1.385 . S
C189 H191 0.950 . S
C190 C184 1.404 . S
C190 H188 0.949 . S
C190 C189 1.385 . S
H191 C189 0.950 . S
H192 C176 0.951 . S
H193 C178 0.951 . S
H194 C180 0.951 . S
H195 C181 0.950 . S
H196 C182 0.950 . S
H197 C183 0.950 . S
H198 C185 0.950 . S
H199 C186 0.951 . S
C200 C201 1.386 . S
C200 C202 1.383 . S
C200 H216 0.951 . S
C201 C200 1.386 . S
C201 C205 1.383 . S
C202 C200 1.383 . S
C202 C203 1.402 . S
C202 H217 0.951 . S
C203 C202 1.402 . S
C203 C204 1.375 . S
C203 C206 1.481 . S
C204 C203 1.375 . S
C204 C205 1.367 . S
C204 H218 0.951 . S
C205 C201 1.383 . S
C205 C204 1.367 . S
C205 H219 0.950 . S
C206 C203 1.481 . S
C206 C207 1.297 . S
C206 H220 0.950 . S
C207 C206 1.297 . S
C207 C208 1.479 . S
C207 H221 0.950 . S
C208 C207 1.479 . S
C208 C209 1.375 . S
C208 C214 1.404 . S
C209 C208 1.375 . S
C209 C210 1.369 . S
C209 H222 0.950 . S
C210 C209 1.369 . S
C210 C211 1.392 . S
C210 H223 0.951 . S
C211 C210 1.392 . S
C211 C213 1.384 . S
H212 C214 0.949 . S
C213 C211 1.384 . S
C213 C214 1.385 . S
C213 H215 0.950 . S
C214 C208 1.404 . S
C214 H212 0.949 . S
C214 C213 1.385 . S
H215 C213 0.950 . S
H216 C200 0.951 . S
H217 C202 0.951 . S
H218 C204 0.951 . S
H219 C205 0.950 . S
H220 C206 0.950 . S
H221 C207 0.950 . S
H222 C209 0.950 . S
H223 C210 0.951 . S
C224 C225 1.386 . S
C224 C226 1.383 . S
C224 H240 0.951 . S
C225 C224 1.386 . S
C225 C229 1.383 . S
C226 C224 1.383 . S
C226 C227 1.402 . S
C226 H241 0.951 . S
C227 C226 1.402 . S
C227 C228 1.375 . S
C227 C230 1.481 . S
C228 C227 1.375 . S
C228 C229 1.367 . S
C228 H242 0.951 . S
C229 C225 1.383 . S
C229 C228 1.367 . S
C229 H243 0.950 . S
C230 C227 1.481 . S
C230 C231 1.297 . S
C230 H244 0.950 . S
C231 C230 1.297 . S
C231 C232 1.479 . S
C231 H245 0.950 . S
C232 C231 1.479 . S
C232 C233 1.375 . S
C232 C238 1.404 . S
C233 C232 1.375 . S
C233 C234 1.369 . S
C233 H246 0.950 . S
C234 C233 1.369 . S
C234 C235 1.392 . S
C234 H247 0.951 . S
C235 C234 1.392 . S
C235 C237 1.384 . S
H236 C238 0.949 . S
C237 C235 1.384 . S
C237 C238 1.385 . S
C237 H239 0.950 . S
C238 C232 1.404 . S
C238 H236 0.949 . S
C238 C237 1.385 . S
H239 C237 0.950 . S
H240 C224 0.951 . S
H241 C226 0.951 . S
H242 C228 0.951 . S
H243 C229 0.950 . S
H244 C230 0.950 . S
H245 C231 0.950 . S
H246 C233 0.950 . S
H247 C234 0.951 . S
C248 C249 1.386 . S
C248 C250 1.383 . S
C248 H264 0.951 . S
C249 C248 1.386 . S
C249 C253 1.383 . S
C250 C248 1.383 . S
C250 C251 1.402 . S
C250 H265 0.951 . S
C251 C250 1.402 . S
C251 C252 1.375 . S
C251 C254 1.481 . S
C252 C251 1.375 . S
C252 C253 1.367 . S
C252 H266 0.951 . S
C253 C249 1.383 . S
C253 C252 1.367 . S
C253 H267 0.950 . S
C254 C251 1.481 . S
C254 C255 1.297 . S
C254 H268 0.950 . S
C255 C254 1.297 . S
C255 C256 1.479 . S
C255 H269 0.950 . S
C256 C255 1.479 . S
C256 C257 1.375 . S
C256 C262 1.404 . S
C257 C256 1.375 . S
C257 C258 1.369 . S
C257 H270 0.950 . S
C258 C257 1.369 . S
C258 C259 1.392 . S
C258 H271 0.951 . S
C259 C258 1.392 . S
C259 C261 1.384 . S
H260 C262 0.949 . S
C261 C259 1.384 . S
C261 C262 1.385 . S
C261 H263 0.950 . S
C262 C256 1.404 . S
C262 H260 0.949 . S
C262 C261 1.385 . S
H263 C261 0.950 . S
H264 C248 0.951 . S
H265 C250 0.951 . S
H266 C252 0.951 . S
H267 C253 0.950 . S
H268 C254 0.950 . S
H269 C255 0.950 . S
H270 C257 0.950 . S
H271 C258 0.951 . S
C272 C273 1.386 . S
C272 C274 1.383 . S
C272 H288 0.951 . S
C273 C272 1.386 . S
C273 C277 1.383 . S
C274 C272 1.383 . S
C274 C275 1.402 . S
C274 H289 0.951 . S
C275 C274 1.402 . S
C275 C276 1.375 . S
C275 C278 1.481 . S
C276 C275 1.375 . S
C276 C277 1.367 . S
C276 H290 0.951 . S
C277 C273 1.383 . S
C277 C276 1.367 . S
C277 H291 0.950 . S
C278 C275 1.481 . S
C278 C279 1.297 . S
C278 H292 0.950 . S
C279 C278 1.297 . S
C279 C280 1.479 . S
C279 H293 0.950 . S
C280 C279 1.479 . S
C280 C281 1.375 . S
C280 C286 1.404 . S
C281 C280 1.375 . S
C281 C282 1.369 . S
C281 H294 0.950 . S
C282 C281 1.369 . S
C282 C283 1.392 . S
C282 H295 0.951 . S
C283 C282 1.392 . S
C283 C285 1.384 . S
H284 C286 0.949 . S
C285 C283 1.384 . S
C285 C286 1.385 . S
C285 H287 0.950 . S
C286 C280 1.404 . S
C286 H284 0.949 . S
C286 C285 1.385 . S
H287 C285 0.950 . S
H288 C272 0.951 . S
H289 C274 0.951 . S
H290 C276 0.951 . S
H291 C277 0.950 . S
H292 C278 0.950 . S
H293 C279 0.950 . S
H294 C281 0.950 . S
H295 C282 0.951 . S
C296 C297 1.386 . S
C296 C298 1.383 . S
C296 H312 0.951 . S
C297 C296 1.386 . S
C297 C301 1.383 . S
C298 C296 1.383 . S
C298 C299 1.402 . S
C298 H313 0.951 . S
C299 C298 1.402 . S
C299 C300 1.375 . S
C299 C302 1.481 . S
C300 C299 1.375 . S
C300 C301 1.367 . S
C300 H314 0.951 . S
C301 C297 1.383 . S
C301 C300 1.367 . S
C301 H315 0.950 . S
C302 C299 1.481 . S
C302 C303 1.297 . S
C302 H316 0.950 . S
C303 C302 1.297 . S
C303 C304 1.479 . S
C303 H317 0.950 . S
C304 C303 1.479 . S
C304 C305 1.375 . S
C304 C310 1.404 . S
C305 C304 1.375 . S
C305 C306 1.369 . S
C305 H318 0.950 . S
C306 C305 1.369 . S
C306 C307 1.392 . S
C306 H319 0.951 . S
C307 C306 1.392 . S
C307 C309 1.384 . S
H308 C310 0.949 . S
C309 C307 1.384 . S
C309 C310 1.385 . S
C309 H311 0.950 . S
C310 C304 1.404 . S
C310 H308 0.949 . S
C310 C309 1.385 . S
H311 C309 0.950 . S
H312 C296 0.951 . S
H313 C298 0.951 . S
H314 C300 0.951 . S
H315 C301 0.950 . S
H316 C302 0.950 . S
H317 C303 0.950 . S
H318 C305 0.950 . S
H319 C306 0.951 . S
C320 C321 1.386 . S
C320 C322 1.383 . S
C320 H336 0.951 . S
C321 C320 1.386 . S
C321 C325 1.383 . S
C322 C320 1.383 . S
C322 C323 1.402 . S
C322 H337 0.951 . S
C323 C322 1.402 . S
C323 C324 1.375 . S
C323 C326 1.481 . S
C324 C323 1.375 . S
C324 C325 1.367 . S
C324 H338 0.951 . S
C325 C321 1.383 . S
C325 C324 1.367 . S
C325 H339 0.950 . S
C326 C323 1.481 . S
C326 C327 1.297 . S
C326 H340 0.950 . S
C327 C326 1.297 . S
C327 C328 1.479 . S
C327 H341 0.950 . S
C328 C327 1.479 . S
C328 C329 1.375 . S
C328 C334 1.404 . S
C329 C328 1.375 . S
C329 C330 1.369 . S
C329 H342 0.950 . S
C330 C329 1.369 . S
C330 C331 1.392 . S
C330 H343 0.951 . S
C331 C330 1.392 . S
C331 C333 1.384 . S
H332 C334 0.949 . S
C333 C331 1.384 . S
C333 C334 1.385 . S
C333 H335 0.950 . S
C334 C328 1.404 . S
C334 H332 0.949 . S
C334 C333 1.385 . S
H335 C333 0.950 . S
H336 C320 0.951 . S
H337 C322 0.951 . S
H338 C324 0.951 . S
H339 C325 0.950 . S
H340 C326 0.950 . S
H341 C327 0.950 . S
H342 C329 0.950 . S
H343 C330 0.951 . S
C344 C345 1.386 . S
C344 C346 1.383 . S
C344 H360 0.951 . S
C345 C344 1.386 . S
C345 C349 1.383 . S
C346 C344 1.383 . S
C346 C347 1.402 . S
C346 H361 0.951 . S
C347 C346 1.402 . S
C347 C348 1.375 . S
C347 C350 1.481 . S
C348 C347 1.375 . S
C348 C349 1.367 . S
C348 H362 0.951 . S
C349 C345 1.383 . S
C349 C348 1.367 . S
C349 H363 0.950 . S
C350 C347 1.481 . S
C350 C351 1.297 . S
C350 H364 0.950 . S
C351 C350 1.297 . S
C351 C352 1.479 . S
C351 H365 0.950 . S
C352 C351 1.479 . S
C352 C353 1.375 . S
C352 C358 1.404 . S
C353 C352 1.375 . S
C353 C354 1.369 . S
C353 H366 0.950 . S
C354 C353 1.369 . S
C354 C355 1.392 . S
C354 H367 0.951 . S
C355 C354 1.392 . S
C355 C357 1.384 . S
H356 C358 0.949 . S
C357 C355 1.384 . S
C357 C358 1.385 . S
C357 H359 0.950 . S
C358 C352 1.404 . S
C358 H356 0.949 . S
C358 C357 1.385 . S
H359 C357 0.950 . S
H360 C344 0.951 . S
H361 C346 0.951 . S
H362 C348 0.951 . S
H363 C349 0.950 . S
H364 C350 0.950 . S
H365 C351 0.950 . S
H366 C353 0.950 . S
H367 C354 0.951 . S
C368 C369 1.386 . S
C368 C370 1.383 . S
C368 H384 0.951 . S
C369 C368 1.386 . S
C369 C373 1.383 . S
C370 C368 1.383 . S
C370 C371 1.402 . S
C370 H385 0.951 . S
C371 C370 1.402 . S
C371 C372 1.375 . S
C371 C374 1.481 . S
C372 C371 1.375 . S
C372 C373 1.367 . S
C372 H386 0.951 . S
C373 C369 1.383 . S
C373 C372 1.367 . S
C373 H387 0.950 . S
C374 C371 1.481 . S
C374 C375 1.297 . S
C374 H388 0.950 . S
C375 C374 1.297 . S
C375 C376 1.479 . S
C375 H389 0.950 . S
C376 C375 1.479 . S
C376 C377 1.375 . S
C376 C382 1.404 . S
C377 C376 1.375 . S
C377 C378 1.369 . S
C377 H390 0.950 . S
C378 C377 1.369 . S
C378 C379 1.392 . S
C378 H391 0.951 . S
C379 C378 1.392 . S
C379 C381 1.384 . S
H380 C382 0.949 . S
C381 C379 1.384 . S
C381 C382 1.385 . S
C381 H383 0.950 . S
C382 C376 1.404 . S
C382 H380 0.949 . S
C382 C381 1.385 . S
H383 C381 0.950 . S
H384 C368 0.951 . S
H385 C370 0.951 . S
H386 C372 0.951 . S
H387 C373 0.950 . S
H388 C374 0.950 . S
H389 C375 0.950 . S
H390 C377 0.950 . S
H391 C378 0.951 . S
C392 C393 1.386 . S
C392 C394 1.383 . S
C392 H408 0.951 . S
C393 C392 1.386 . S
C393 C397 1.383 1_455 S
C394 C392 1.383 . S
C394 C395 1.402 . S
C394 H409 0.951 . S
C395 C394 1.402 . S
C395 C396 1.375 1_455 S
C395 C398 1.481 1_545 S
C396 C395 1.375 1_655 S
C396 C397 1.367 . S
C396 H410 0.951 . S
C397 C393 1.383 1_655 S
C397 C396 1.367 . S
C397 H411 0.950 . S
C398 C395 1.481 1_565 S
C398 C399 1.280 1_554 S
C398 H412 0.950 1_455 S
C399 C398 1.280 1_556 S
C399 C400 1.495 . S
C399 H413 0.977 . S
C400 C399 1.495 . S
C400 C401 1.375 . S
C400 C406 1.404 . S
C401 C400 1.375 . S
C401 C402 1.369 . S
C401 H414 0.950 . S
C402 C401 1.369 . S
C402 C403 1.392 . S
C402 H415 0.951 . S
C403 C402 1.392 . S
C403 C405 1.384 1_455 S
H404 C406 0.949 1_654 S
C405 C403 1.384 1_655 S
C405 C406 1.385 1_655 S
C405 H407 0.950 . S
C406 C400 1.404 . S
C406 H404 0.949 1_456 S
C406 C405 1.385 1_455 S
H407 C405 0.950 . S
H408 C392 0.951 . S
H409 C394 0.951 . S
H410 C396 0.951 . S
H411 C397 0.950 . S
H412 C398 0.950 1_655 S
H413 C399 0.977 . S
H414 C401 0.950 . S
H415 C402 0.951 . S
C416 C417 1.386 . S
C416 C418 1.383 . S
C416 H432 0.951 . S
C417 C416 1.386 . S
C417 C421 1.383 . S
C418 C416 1.383 . S
C418 C419 1.402 . S
C418 H433 0.951 . S
C419 C418 1.402 . S
C419 C420 1.375 . S
C419 C422 1.481 . S
C420 C419 1.375 . S
C420 C421 1.367 . S
C420 H434 0.951 . S
C421 C417 1.383 . S
C421 C420 1.367 . S
C421 H435 0.950 . S
C422 C419 1.481 . S
C422 C423 1.297 . S
C422 H436 0.950 . S
C423 C422 1.297 . S
C423 C424 1.479 1_556 S
C423 H437 0.950 . S
C424 C423 1.479 1_554 S
C424 C425 1.375 . S
C424 C430 1.404 . S
C425 C424 1.375 . S
C425 C426 1.369 . S
C425 H438 0.950 1_455 S
C426 C425 1.369 . S
C426 C427 1.392 . S
C426 H439 0.951 1_455 S
C427 C426 1.392 . S
C427 C429 1.384 . S
H428 C430 0.949 . S
C429 C427 1.384 . S
C429 C430 1.385 . S
C429 H431 0.950 . S
C430 C424 1.404 . S
C430 H428 0.949 . S
C430 C429 1.385 . S
H431 C429 0.950 . S
H432 C416 0.951 . S
H433 C418 0.951 . S
H434 C420 0.951 . S
H435 C421 0.950 . S
H436 C422 0.950 . S
H437 C423 0.950 . S
H438 C425 0.950 1_655 S
H439 C426 0.951 1_655 S
C440 C441 1.386 . S
C440 C442 1.383 . S
C440 H456 0.951 . S
C441 C440 1.386 . S
C441 C445 1.383 . S
C442 C440 1.383 . S
C442 C443 1.402 . S
C442 H457 0.951 . S
C443 C442 1.402 . S
C443 C444 1.375 . S
C443 C446 1.481 . S
C444 C443 1.375 . S
C444 C445 1.367 . S
C444 H458 0.951 . S
C445 C441 1.383 . S
C445 C444 1.367 . S
C445 H459 0.950 . S
C446 C443 1.481 . S
C446 C447 1.297 . S
C446 H460 0.950 . S
C447 C446 1.297 . S
C447 C448 1.479 . S
C447 H461 0.950 . S
C448 C447 1.479 . S
C448 C449 1.375 . S
C448 C454 1.404 . S
C449 C448 1.375 . S
C449 C450 1.369 . S
C449 H462 0.950 . S
C450 C449 1.369 . S
C450 C451 1.392 . S
C450 H463 0.951 . S
C451 C450 1.392 . S
C451 C453 1.384 . S
H452 C454 0.949 . S
C453 C451 1.384 . S
C453 C454 1.385 . S
C453 H455 0.950 . S
C454 C448 1.404 . S
C454 H452 0.949 . S
C454 C453 1.385 . S
H455 C453 0.950 . S
H456 C440 0.951 . S
H457 C442 0.951 . S
H458 C444 0.951 . S
H459 C445 0.950 . S
H460 C446 0.950 . S
H461 C447 0.950 . S
H462 C449 0.950 . S
H463 C450 0.951 . S
C464 C465 1.386 . S
C464 C466 1.383 . S
C464 H480 0.951 . S
C465 C464 1.386 . S
C465 C469 1.383 . S
C466 C464 1.383 . S
C466 C467 1.402 . S
C466 H481 0.951 . S
C467 C466 1.402 . S
C467 C468 1.375 . S
C467 C470 1.481 . S
C468 C467 1.375 . S
C468 C469 1.367 . S
C468 H482 0.951 . S
C469 C465 1.383 . S
C469 C468 1.367 . S
C469 H483 0.950 . S
C470 C467 1.481 . S
C470 C471 1.300 . S
C470 H484 0.950 . S
C471 C470 1.300 . S
C471 C472 1.474 1_565 S
C471 H485 0.953 . S
C472 C471 1.474 1_545 S
C472 C473 1.375 . S
C472 C478 1.404 . S
C473 C472 1.375 . S
C473 C474 1.369 . S
C473 H486 0.950 . S
C474 C473 1.369 . S
C474 C475 1.392 . S
C474 H487 0.951 . S
C475 C474 1.392 . S
C475 C477 1.384 . S
H476 C478 0.949 . S
C477 C475 1.384 . S
C477 C478 1.385 . S
C477 H479 0.950 . S
C478 C472 1.404 . S
C478 H476 0.949 . S
C478 C477 1.385 . S
H479 C477 0.950 . S
H480 C464 0.951 . S
H481 C466 0.951 . S
H482 C468 0.951 . S
H483 C469 0.950 . S
H484 C470 0.950 . S
H485 C471 0.953 . S
H486 C473 0.950 . S
H487 C474 0.951 . S
C105 C16 1.437 . S
C115 C3 1.439 . S
C129 C31 1.448 . S
C139 C42 1.441 . S
C153 C57 1.451 . S
C163 C70 1.435 . S
C177 C83 1.453 . S
C187 C96 1.425 . S
C201 C94 1.702 . S
C211 C5 1.679 . S
C225 C81 1.692 . S
C235 C18 1.701 . S
C249 C29 1.691 . S
C259 C68 1.702 . S
C273 C55 1.693 . S
C283 C44 1.693 . S
C297 C75 1.128 . S
C307 C36 1.128 . S
C321 C62 1.140 . S
C331 C43 1.140 . S
C345 C101 1.119 . S
C355 C4 1.110 . S
C369 C17 1.118 . S
C379 C88 1.108 . S
C393 C10 1.394 . S
C403 C30 1.389 . S
C417 C49 1.396 . S
C427 C23 1.393 . S
C441 C82 1.394 . S
C451 C56 1.389 . S
C465 C69 1.395 . S
C475 C95 1.384 . S
