# Generated by pormake.
# Topology wjd, (6)-cn, num edge types: 1
# Building blocks:
#     Node 0, Type 0, BuildingBlock: KUMJIN_clean_sbu_1, # of connection points: 6
#     Node 1, Type 0, BuildingBlock: KUMJIN_clean_sbu_1, # of connection points: 6
#     Node 2, Type 0, BuildingBlock: KUMJIN_clean_sbu_1, # of connection points: 6
#     Node 3, Type 0, BuildingBlock: KUMJIN_clean_sbu_1, # of connection points: 6
#     Node 4, Type 0, BuildingBlock: KUMJIN_clean_sbu_1, # of connection points: 6
#     Node 5, Type 0, BuildingBlock: KUMJIN_clean_sbu_1, # of connection points: 6
#     Node 6, Type 0, BuildingBlock: KUMJIN_clean_sbu_1, # of connection points: 6
#     Node 7, Type 0, BuildingBlock: KUMJIN_clean_sbu_1, # of connection points: 6
#     Node 8, Type 0, BuildingBlock: KUMJIN_clean_sbu_1, # of connection points: 6
#     Node 9, Type 0, BuildingBlock: KUMJIN_clean_sbu_1, # of connection points: 6
#     Node 10, Type 0, BuildingBlock: KUMJIN_clean_sbu_1, # of connection points: 6
#     Node 11, Type 0, BuildingBlock: KUMJIN_clean_sbu_1, # of connection points: 6
#     Edge 12, Type (0, 0), BuildingBlock: CIFDUS_clean_linker_0, # of connection points: 2
#     Edge 13, Type (0, 0), BuildingBlock: CIFDUS_clean_linker_0, # of connection points: 2
#     Edge 14, Type (0, 0), BuildingBlock: CIFDUS_clean_linker_0, # of connection points: 2
#     Edge 15, Type (0, 0), BuildingBlock: CIFDUS_clean_linker_0, # of connection points: 2
#     Edge 16, Type (0, 0), BuildingBlock: CIFDUS_clean_linker_0, # of connection points: 2
#     Edge 17, Type (0, 0), BuildingBlock: CIFDUS_clean_linker_0, # of connection points: 2
#     Edge 18, Type (0, 0), BuildingBlock: CIFDUS_clean_linker_0, # of connection points: 2
#     Edge 19, Type (0, 0), BuildingBlock: CIFDUS_clean_linker_0, # of connection points: 2
#     Edge 20, Type (0, 0), BuildingBlock: CIFDUS_clean_linker_0, # of connection points: 2
#     Edge 21, Type (0, 0), BuildingBlock: CIFDUS_clean_linker_0, # of connection points: 2
#     Edge 22, Type (0, 0), BuildingBlock: CIFDUS_clean_linker_0, # of connection points: 2
#     Edge 23, Type (0, 0), BuildingBlock: CIFDUS_clean_linker_0, # of connection points: 2
#     Edge 24, Type (0, 0), BuildingBlock: CIFDUS_clean_linker_0, # of connection points: 2
#     Edge 25, Type (0, 0), BuildingBlock: CIFDUS_clean_linker_0, # of connection points: 2
#     Edge 26, Type (0, 0), BuildingBlock: CIFDUS_clean_linker_0, # of connection points: 2
#     Edge 27, Type (0, 0), BuildingBlock: CIFDUS_clean_linker_0, # of connection points: 2
#     Edge 28, Type (0, 0), BuildingBlock: CIFDUS_clean_linker_0, # of connection points: 2
#     Edge 29, Type (0, 0), BuildingBlock: CIFDUS_clean_linker_0, # of connection points: 2
#     Edge 30, Type (0, 0), BuildingBlock: CIFDUS_clean_linker_0, # of connection points: 2
#     Edge 31, Type (0, 0), BuildingBlock: CIFDUS_clean_linker_0, # of connection points: 2
#     Edge 32, Type (0, 0), BuildingBlock: CIFDUS_clean_linker_0, # of connection points: 2
#     Edge 33, Type (0, 0), BuildingBlock: CIFDUS_clean_linker_0, # of connection points: 2
#     Edge 34, Type (0, 0), BuildingBlock: CIFDUS_clean_linker_0, # of connection points: 2
#     Edge 35, Type (0, 0), BuildingBlock: CIFDUS_clean_linker_0, # of connection points: 2
#     Edge 36, Type (0, 0), BuildingBlock: CIFDUS_clean_linker_0, # of connection points: 2
#     Edge 37, Type (0, 0), BuildingBlock: CIFDUS_clean_linker_0, # of connection points: 2
#     Edge 38, Type (0, 0), BuildingBlock: CIFDUS_clean_linker_0, # of connection points: 2
#     Edge 39, Type (0, 0), BuildingBlock: CIFDUS_clean_linker_0, # of connection points: 2
#     Edge 40, Type (0, 0), BuildingBlock: CIFDUS_clean_linker_0, # of connection points: 2
#     Edge 41, Type (0, 0), BuildingBlock: CIFDUS_clean_linker_0, # of connection points: 2
#     Edge 42, Type (0, 0), BuildingBlock: CIFDUS_clean_linker_0, # of connection points: 2
#     Edge 43, Type (0, 0), BuildingBlock: CIFDUS_clean_linker_0, # of connection points: 2
#     Edge 44, Type (0, 0), BuildingBlock: CIFDUS_clean_linker_0, # of connection points: 2
#     Edge 45, Type (0, 0), BuildingBlock: CIFDUS_clean_linker_0, # of connection points: 2
#     Edge 46, Type (0, 0), BuildingBlock: CIFDUS_clean_linker_0, # of connection points: 2
#     Edge 47, Type (0, 0), BuildingBlock: CIFDUS_clean_linker_0, # of connection points: 2
# Relax obj value: 0.073
# Max RMSD: 0.191
# Mean RMSD: 0.191
data_MOF--net-wjd--node1-KUMJIN_clean_sbu_1--edge1-CIFDUS_clean_linker_0
_symmetry_space_group_name_H-M    P1
_symmetry_Int_Tables_number       1
_symmetry_cell_setting            triclinic
loop_
_symmetry_equiv_pos_as_xyz
'x, y, z'
_cell_length_a     35.408461
_cell_length_b     35.416666
_cell_length_c     47.173417
_cell_angle_alpha  89.900762
_cell_angle_beta   90.089142
_cell_angle_gamma 119.98254
loop_
_atom_site_label
_atom_site_type_symbol
_atom_site_fract_x
_atom_site_fract_y
_atom_site_fract_z
_atom_type_partial_charge
Eu0 Eu 0.30973 0.0564 0.13772 0.0
C1 C 0.31193 0.22032 0.08288 0.0
N2 N 0.33433 0.1999 0.07524 0.0
C3 C 0.31838 0.20391 0.02626 0.0
C4 C 0.29116 0.23262 0.06228 0.0
C5 C 0.33852 0.19234 0.04736 0.0
C6 C 0.29446 0.22396 0.03373 0.0
C7 C 0.28563 0.24898 0.12 0.0
C8 C 0.30919 0.22849 0.11149 0.0
C9 C 0.26507 0.2613 0.09948 0.0
C10 C 0.26779 0.25312 0.07073 0.0
Eu11 Eu 0.36841 0.18391 0.11282 0.0
N12 N 0.32814 0.21491 0.13107 0.0
C13 C 0.28304 0.25603 0.14895 0.0
C14 C 0.32739 0.22345 0.15914 0.0
C15 C 0.30426 0.24347 0.16857 0.0
H16 H 0.35814 0.17832 0.04109 0.0
H17 H 0.30321 0.24961 0.19095 0.0
H18 H 0.27319 0.03548 0.20434 0.0
H19 H 0.4056 1.0007 0.07865 0.0
H20 H 0.34514 0.2155 0.17422 0.0
H21 H 0.2651 0.2715 0.15633 0.0
H22 H 0.36119 0.03597 0.08512 0.0
H23 H 0.32167 0.19774 1.00419 0.0
H24 H 0.24671 0.27693 0.10565 0.0
H25 H 0.2516 0.26271 0.05518 0.0
H26 H 0.27599 0.99384 0.24569 0.0
H27 H 0.27899 0.23295 0.0173 0.0
H28 H 0.42016 0.96606 0.1196 0.0
N29 N 0.31485 0.02215 0.17915 0.0
C30 C 0.33884 1.00203 0.17733 0.0
C31 C 0.29423 0.99634 0.22671 0.0
C32 C 0.34236 0.97901 0.20065 0.0
C33 C 0.29286 0.01999 0.20337 0.0
C34 C 0.3194 0.97608 0.22546 0.0
N35 N 0.3525 0.02335 0.12921 0.0
C36 C 0.36754 0.02118 0.10299 0.0
C37 C 0.38306 0.98172 0.149 0.0
C38 C 0.3585 1.00291 0.15172 0.0
C39 C 0.4009 0.98178 0.12252 0.0
C40 C 0.39271 1.00123 0.09934 0.0
H41 H 0.32076 0.95817 0.24371 0.0
H42 H 0.37105 0.94126 0.21603 0.0
H43 H 0.40709 0.94403 0.17089 0.0
O44 O 0.26651 1.00794 0.10714 0.0
O45 O 0.38502 0.09241 0.13597 0.0
O46 O 0.40739 0.15066 0.10467 0.0
O47 O 0.24667 1.00106 0.15079 0.0
O48 O 0.30336 0.08241 0.09526 0.0
O49 O 0.36631 0.13688 0.07834 0.0
O50 O 0.42192 0.24165 0.13306 0.0
O51 O 0.29367 0.14431 0.1164 0.0
O52 O 0.27762 0.09433 0.15233 0.0
O53 O 0.4124 0.24155 0.08799 0.0
O54 O 0.37999 0.17065 0.15923 0.0
O55 O 0.32094 0.10392 0.17312 0.0
C56 C 0.41463 0.12341 0.11952 0.0
C57 C 0.19215 0.98312 0.11604 0.0
C58 C 0.11269 0.94012 0.11126 0.0
C59 C 0.11309 0.97624 0.0985 0.0
C60 C 0.19135 0.01858 0.10326 0.0
C61 C 0.15213 0.01517 0.09468 0.0
C62 C 0.15252 0.94388 0.12031 0.0
C63 C 0.33307 0.09698 0.07557 0.0
C64 C 0.23438 0.98776 0.12495 0.0
C65 C 0.36767 0.95876 0.19825 0.0
C66 C 0.38817 0.96032 0.17253 0.0
C67 C 0.26806 0.11936 0.13691 0.0
C68 C 0.48401 0.28694 0.10519 0.0
C69 C 0.55504 0.35366 0.10869 0.0
C70 C 0.57475 0.33084 0.0977 0.0
C71 C 0.50446 0.26503 0.09411 0.0
C72 C 0.5094 0.33154 0.11227 0.0
C73 C 0.54956 0.28692 0.09032 0.0
C74 C 0.35462 0.14264 0.17888 0.0
C75 C 0.43637 0.26344 0.10949 0.0
H76 H 0.083 0.9745 0.09176 0.0
H77 H 0.22109 0.04906 0.09977 0.0
H78 H 0.152 0.04284 0.08498 0.0
H79 H 0.15273 0.91634 0.1302 0.0
H80 H 0.60979 0.34709 0.0949 0.0
H81 H 0.48544 0.23099 0.08843 0.0
H82 H 0.49388 0.34866 0.12103 0.0
H83 H 0.56509 0.2697 0.08182 0.0
Eu84 Eu 0.82943 0.65726 0.40004 0.0
C85 C 0.70294 0.70001 0.32 0.0
N86 N 0.74623 0.71366 0.31857 0.0
C87 C 0.74558 0.72305 0.26836 0.0
C88 C 0.67887 0.69573 0.29515 0.0
C89 C 0.76757 0.72425 0.2932 0.0
C90 C 0.70091 0.70809 0.26921 0.0
C91 C 0.63687 0.67283 0.34802 0.0
C92 C 0.6824 0.69001 0.34634 0.0
C93 C 0.61288 0.66824 0.32327 0.0
C94 C 0.63387 0.68003 0.29695 0.0
Eu95 Eu 0.78267 0.72904 0.36237 0.0
N96 N 0.70641 0.69504 0.3701 0.0
C97 C 0.61654 0.65976 0.37446 0.0
C98 C 0.6863 0.68045 0.39564 0.0
C99 C 0.6413 0.66297 0.39829 0.0
H100 H 0.80221 0.73621 0.29225 0.0
H101 H 0.62569 0.65154 0.41868 0.0
H102 H 0.82721 0.67917 0.47003 0.0
H103 H 0.96872 0.68118 0.33716 0.0
H104 H 0.70421 0.68041 0.41381 0.0
H105 H 0.58164 0.6461 0.37658 0.0
H106 H 0.89067 0.65218 0.34816 0.0
H107 H 0.76321 0.73375 0.24856 0.0
H108 H 0.57798 0.65538 0.32423 0.0
H109 H 0.61493 0.67651 0.27806 0.0
H110 H 0.8782 0.72494 0.50719 0.0
H111 H 0.6838 0.7064 0.24976 0.0
H112 H 0.0252 0.72841 0.37182 0.0
N113 N 0.87594 0.69714 0.43849 0.0
C114 C 0.91955 0.7154 0.43375 0.0
C115 C 0.89029 0.72339 0.48642 0.0
C116 C 0.95026 0.74045 0.45482 0.0
C117 C 0.8612 0.69852 0.46496 0.0
C118 C 0.93504 0.7452 0.48116 0.0
N119 N 0.90329 0.68378 0.38813 0.0
C120 C 0.91521 0.67295 0.36329 0.0
C121 C 0.97843 0.72499 0.40273 0.0
C122 C 0.9336 0.70767 0.40811 0.0
C123 C 0.99107 0.71565 0.37677 0.0
C124 C 0.95929 0.68913 0.35709 0.0
H125 H 0.95754 0.7641 0.49792 0.0
H126 H 0.01904 0.77857 0.4651 0.0
H127 H 0.04369 0.7652 0.41941 0.0
O128 O 0.81855 0.59212 0.38723 0.0
O129 O 0.87516 0.72122 0.379 0.0
O130 O 0.84333 0.76093 0.39044 0.0
O131 O 0.83292 0.61375 0.43121 0.0
O132 O 0.81519 0.64732 0.35166 0.0
O133 O 0.82809 0.71539 0.33708 0.0
O134 O 0.77157 0.78436 0.36828 0.0
O135 O 0.74017 0.65427 0.35978 0.0
O136 O 0.75777 0.63422 0.40171 0.0
O137 O 0.81353 0.7854 0.33463 0.0
O138 O 0.79381 0.73868 0.40932 0.0
O139 O 0.78706 0.67569 0.42924 0.0
C140 C 0.8784 0.75794 0.38683 0.0
C141 C 0.82364 0.54243 0.42182 0.0
C142 C 0.84469 0.48641 0.41674 0.0
C143 C 0.82888 0.47157 0.4442 0.0
C144 C 0.80787 0.52649 0.44911 0.0
C145 C 0.81023 0.49117 0.46008 0.0
C146 C 0.84131 0.52161 0.40531 0.0
C147 C 0.82462 0.67738 0.33173 0.0
C148 C 0.82644 0.58387 0.4128 0.0
C149 C 0.99503 0.75892 0.44925 0.0
C150 C 1.00908 0.75115 0.42329 0.0
C151 C 0.73261 0.62463 0.37942 0.0
C152 C 0.835 0.85191 0.35735 0.0
C153 C 0.86081 0.92844 0.36786 0.0
C154 C 0.90275 0.93488 0.37282 0.0
C155 C 0.87765 0.8597 0.36156 0.0
C156 C 0.82678 0.88673 0.36013 0.0
C157 C 0.91113 0.90081 0.36936 0.0
C158 C 0.78268 0.71107 0.43045 0.0
C159 C 0.80015 0.80795 0.34893 0.0
H160 H 0.83053 0.4443 0.45327 0.0
H161 H 0.79434 0.54191 0.46223 0.0
H162 H 0.79808 0.47931 0.48118 0.0
H163 H 0.85405 0.53383 0.38433 0.0
H164 H 0.92953 0.96685 0.37828 0.0
H165 H 0.88537 0.83416 0.35822 0.0
H166 H 0.7944 0.88157 0.35605 0.0
H167 H 0.94392 0.90658 0.37211 0.0
Eu168 Eu 0.95991 0.24298 0.13049 0.0
C169 C 0.81565 0.10482 0.06388 0.0
N170 N 0.83409 0.14848 0.05947 0.0
C171 C 0.84655 0.13873 0.01065 0.0
C172 C 0.81389 0.0767 0.0421 0.0
C173 C 0.84683 0.16512 0.03276 0.0
C174 C 0.83083 0.09447 0.01547 0.0
C175 C 0.77242 0.04228 0.09414 0.0
C176 C 0.79523 0.08767 0.08953 0.0
C177 C 0.77277 0.01443 0.07313 0.0
C178 C 0.79357 0.03162 0.04718 0.0
Eu179 Eu 0.83582 0.19077 0.09927 0.0
N180 N 0.79587 0.11544 0.10956 0.0
C181 C 0.74889 0.02623 0.11938 0.0
C182 C 0.77106 0.10001 0.1335 0.0
C183 C 0.74759 0.0552 0.13892 0.0
H184 H 0.85676 0.19866 0.02813 0.0
H185 H 0.72875 0.04305 0.1582 0.0
H186 H 0.95115 0.28352 0.19247 0.0
H187 H 0.08386 0.3255 0.04885 0.0
H188 H 0.77042 0.12261 0.14861 0.0
H189 H 0.73082 0.99154 0.12368 0.0
H190 H 0.02965 0.26257 0.07709 0.0
H191 H 0.85776 0.15244 0.98975 0.0
H192 H 0.756 0.97947 0.07642 0.0
H193 H 0.79242 1.00963 0.03083 0.0
H194 H 0.97442 0.35553 0.21423 0.0
H195 H 0.83004 0.07398 0.99818 0.0
H196 H 0.10301 0.40043 0.06258 0.0
N197 N 0.984 0.31041 0.15367 0.0
C198 C 1.01214 0.34692 0.13926 0.0
C199 C 0.98518 0.3536 0.19309 0.0
C200 C 0.02669 0.38862 0.15081 0.0
C201 C 0.97206 0.31297 0.1808 0.0
C202 C 1.01217 0.39164 0.17788 0.0
N203 N 1.01534 0.30133 0.10426 0.0
C204 C 0.03664 0.2951 0.08235 0.0
C205 C 0.05959 0.37918 0.09878 0.0
C206 C 0.02802 0.3422 0.11356 0.0
C207 C 0.07859 0.37291 0.07456 0.0
C208 C 0.06782 0.33066 0.06671 0.0
H209 H 0.0225 0.42308 0.1875 0.0
H210 H 0.06739 0.45811 0.1437 0.0
H211 H 0.09642 0.44984 0.09816 0.0
O212 O 0.02221 0.24405 0.13544 0.0
O213 O 0.92391 0.28222 0.13328 0.0
O214 O 0.88121 0.263 0.09339 0.0
O215 O 0.97451 0.2182 0.16879 0.0
O216 O 0.94569 0.2197 0.08485 0.0
O217 O 0.89353 0.2357 0.07003 0.0
O218 O 0.7813 0.19767 0.11557 0.0
O219 O 0.85816 0.15121 0.12495 0.0
O220 O 0.92715 0.1765 0.10901 0.0
O221 O 0.7835 0.18464 0.07149 0.0
O222 O 0.84394 0.21128 0.1463 0.0
O223 O 0.90533 0.20891 0.16222 0.0
C224 C 0.9017 0.29029 0.11409 0.0
C225 C 1.01411 0.18172 0.15983 0.0
C226 C 0.05709 0.14541 0.15375 0.0
C227 C 0.02034 0.10563 0.16142 0.0
C228 C 0.978 0.1414 0.16759 0.0
C229 C 0.98115 0.10373 0.16822 0.0
C230 C 0.05365 0.18344 0.15276 0.0
C231 C 0.93046 0.2356 0.06574 0.0
C232 C 1.01036 0.22162 0.15883 0.0
C233 C 0.05613 0.42571 0.13536 0.0
C234 C 0.07258 0.421 0.10938 0.0
C235 C 0.89023 0.14439 0.11854 0.0
C236 C 0.71397 0.14896 0.0934 0.0
C237 C 0.63712 0.11756 0.10699 0.0
C238 C 0.62956 0.07633 0.09868 0.0
C239 C 0.70465 0.10744 0.08415 0.0
C240 C 0.67962 0.15406 0.10444 0.0
C241 C 0.66303 0.07144 0.08716 0.0
C242 C 0.86918 0.21001 0.16669 0.0
C243 C 0.75958 0.18603 0.0919 0.0
H244 H 0.02185 0.07582 0.16192 0.0
H245 H 0.94709 0.13878 0.17309 0.0
H246 H 0.95303 0.07287 0.17399 0.0
H247 H 0.08177 0.21432 0.14691 0.0
H248 H 0.59724 0.048 0.10032 0.0
H249 H 0.72956 0.10264 0.07451 0.0
H250 H 0.68587 0.18598 0.11102 0.0
H251 H 0.65661 0.03964 0.08024 0.0
Eu252 Eu 0.38758 0.19691 0.41283 0.0
C253 C 0.36323 0.0437 0.32869 0.0
N254 N 0.33922 0.06383 0.33031 0.0
C255 C 0.33931 0.06942 0.27974 0.0
C256 C 0.37743 0.03682 0.30232 0.0
C257 C 0.32509 0.07448 0.30635 0.0
C258 C 0.36664 0.05165 0.27779 0.0
C259 C 0.39518 1.00548 0.35242 0.0
C260 C 0.37266 0.02889 0.35346 0.0
C261 C 0.40977 0.9989 0.3262 0.0
C262 C 0.40127 0.0149 0.30123 0.0
Eu263 Eu 0.32289 0.07755 0.37623 0.0
N264 N 0.35972 0.0374 0.3786 0.0
C265 C 0.40236 0.98941 0.37779 0.0
C266 C 0.36594 0.02124 0.40334 0.0
C267 C 0.38739 0.99709 0.40333 0.0
H268 H 0.30311 0.08725 0.30788 0.0
H269 H 0.39263 0.98467 0.42303 0.0
H270 H 0.36318 0.18737 0.48169 0.0
H271 H 0.34923 0.28046 0.32886 0.0
H272 H 0.35468 0.02713 0.42312 0.0
H273 H 0.4194 0.97113 0.37789 0.0
H274 H 0.38818 0.24679 0.35037 0.0
H275 H 0.32911 0.07909 0.26077 0.0
H276 H 0.42753 0.98137 0.325 0.0
H277 H 0.41248 1.00936 0.28113 0.0
H278 H 0.31848 0.20325 0.51456 0.0
H279 H 0.37826 0.04843 0.25723 0.0
H280 H 0.29813 0.29283 0.35761 0.0
N281 N 0.34763 0.21307 0.44569 0.0
C282 C 0.32614 0.23297 0.43537 0.0
C283 C 0.32043 0.21182 0.49236 0.0
C284 C 0.30075 0.24315 0.45342 0.0
C285 C 0.34554 0.20275 0.47373 0.0
C286 C 0.29781 0.23196 0.48215 0.0
N287 N 0.35414 0.23259 0.3897 0.0
C288 C 0.36344 0.24836 0.36263 0.0
C289 C 0.30814 0.26446 0.39554 0.0
C290 C 0.32937 0.24287 0.40662 0.0
C291 C 0.31401 0.2764 0.36694 0.0
C292 C 0.3425 0.26911 0.35058 0.0
H293 H 0.27814 0.23861 0.4966 0.0
H294 H 0.25878 0.27131 0.4557 0.0
H295 H 0.26555 0.29032 0.40512 0.0
O296 O 0.44946 0.25335 0.39977 0.0
O297 O 0.31509 0.15178 0.42011 0.0
O298 O 0.29503 0.12329 0.3762 0.0
O299 O 0.43091 0.24626 0.44357 0.0
O300 O 0.40046 0.18859 0.3658 0.0
O301 O 0.3323 0.13662 0.3524 0.0
O302 O 0.26515 0.02815 0.39866 0.0
O303 O 0.39818 0.10915 0.37925 0.0
O304 O 0.41887 0.15595 0.41754 0.0
O305 O 0.26849 0.02476 0.35318 0.0
O306 O 0.3237 0.07684 0.42426 0.0
O307 O 0.37671 0.14248 0.44473 0.0
C308 C 0.28598 0.13632 0.39991 0.0
C309 C 0.46932 0.31836 0.42452 0.0
C310 C 0.52037 0.3956 0.414 0.0
C311 C 0.48715 0.405 0.42031 0.0
C312 C 0.43728 0.32919 0.43114 0.0
C313 C 0.44609 0.37209 0.42892 0.0
C314 C 0.51118 0.3519 0.41619 0.0
C315 C 0.37162 0.16731 0.34572 0.0
C316 C 0.45825 0.272 0.42448 0.0
C317 C 0.27877 0.26361 0.44224 0.0
C318 C 0.28248 0.27426 0.41339 0.0
C319 C 0.42785 0.13615 0.39753 0.0
C320 C 0.19964 1.00329 0.37323 0.0
C321 C 0.12055 0.95766 0.37772 0.0
C322 C 0.11622 0.99413 0.37142 0.0
C323 C 0.19421 0.03869 0.36586 0.0
C324 C 0.1626 0.96253 0.37882 0.0
C325 C 0.15285 0.03429 0.36539 0.0
C326 C 0.34687 0.10008 0.44615 0.0
C327 C 0.24388 1.00927 0.37553 0.0
H328 H 0.49323 0.43814 0.41924 0.0
H329 H 0.40529 0.30453 0.43797 0.0
H330 H 0.42096 0.37989 0.434 0.0
H331 H 0.5362 0.34393 0.41104 0.0
H332 H 0.08431 0.99121 0.37015 0.0
H333 H 0.22185 0.0697 0.36021 0.0
H334 H 0.16643 0.93478 0.38395 0.0
H335 H 0.14914 0.06196 0.35991 0.0
Eu336 Eu 0.77517 0.70995 0.13117 0.0
C337 C 0.92118 0.69694 0.07336 0.0
N338 N 0.8792 0.67564 0.06408 0.0
C339 C 0.9027 0.69919 0.01651 0.0
C340 C 0.95565 0.72205 0.05448 0.0
C341 C 0.86957 0.67497 0.03603 0.0
C342 C 0.94586 0.72325 0.02582 0.0
C343 C 0.97287 0.71635 0.11203 0.0
C344 C 0.92953 0.69418 0.10194 0.0
C345 C 1.00713 0.74245 0.09345 0.0
C346 C 0.99856 0.74522 0.06476 0.0
Eu347 Eu 0.82519 0.63753 0.09843 0.0
N348 N 0.89559 0.66916 0.11965 0.0
C349 C 0.98066 0.71104 0.14043 0.0
C350 C 0.90369 0.66069 0.14656 0.0
C351 C 0.94602 0.68236 0.15757 0.0
H352 H 0.83626 0.65607 0.02879 0.0
H353 H 0.952 0.67631 0.17916 0.0
H354 H 0.78433 0.70056 0.20254 0.0
H355 H 0.62935 0.68031 0.07404 0.0
H356 H 0.87812 0.6364 0.15957 0.0
H357 H 1.01344 0.72761 0.149 0.0
H358 H 0.70868 0.71454 0.08327 0.0
H359 H 0.89494 0.69937 0.99432 0.0
H360 H 0.0405 0.76013 0.10098 0.0
H361 H 0.02541 0.76512 0.05064 0.0
H362 H 0.73826 0.65148 0.24083 0.0
H363 H 0.97137 0.7422 0.01066 0.0
H364 H 0.57654 0.63058 0.10973 0.0
N365 N 0.7329 0.67628 0.17244 0.0
C366 C 0.68893 0.65389 0.16886 0.0
C367 C 0.72394 0.65181 0.22063 0.0
C368 C 0.66073 0.62842 0.19087 0.0
C369 C 0.75022 0.67849 0.1986 0.0
C370 C 0.67899 0.62639 0.21672 0.0
N371 N 0.70029 0.68339 0.12306 0.0
C372 C 0.68568 0.6927 0.09877 0.0
C373 C 0.62664 0.63803 0.13934 0.0
C374 C 0.67203 0.65837 0.14354 0.0
C375 C 0.6112 0.64554 0.11381 0.0
C376 C 0.6409 0.67356 0.0936 0.0
H377 H 0.65863 0.60669 0.23408 0.0
H378 H 0.59325 0.58654 0.20312 0.0
H379 H 0.56334 0.59517 0.15794 0.0
O380 O 0.79129 0.77218 0.11148 0.0
O381 O 0.72893 0.64257 0.11238 0.0
O382 O 0.76417 0.60617 0.1254 0.0
O383 O 0.77773 0.76342 0.15614 0.0
O384 O 0.77963 0.71007 0.08306 0.0
O385 O 0.7818 0.64854 0.06651 0.0
O386 O 0.85367 0.59555 0.09494 0.0
O387 O 0.85313 0.70929 0.08824 0.0
O388 O 0.84731 0.73229 0.1317 0.0
O389 O 0.7922 0.57581 0.07472 0.0
O390 O 0.81034 0.62998 0.14617 0.0
O391 O 0.82063 0.69741 0.15928 0.0
C392 C 0.7282 0.60612 0.11886 0.0
C393 C 0.83281 0.83322 0.14029 0.0
C394 C 0.87678 0.91249 0.1341 0.0
C395 C 0.91317 0.91115 0.14471 0.0
C396 C 0.86954 0.83314 0.15148 0.0
C397 C 0.90942 0.8718 0.15353 0.0
C398 C 0.8364 0.87324 0.13194 0.0
C399 C 0.77334 0.68105 0.06328 0.0
C400 C 0.79225 0.79124 0.13522 0.0
C401 C 0.6154 0.60653 0.18653 0.0
C402 C 0.59836 0.61148 0.16082 0.0
C403 C 0.86869 0.73913 0.10797 0.0
C404 C 0.80443 0.52088 0.09515 0.0
C405 C 0.81547 0.45952 0.10699 0.0
C406 C 0.78088 0.44465 0.12643 0.0
C407 C 0.77011 0.50517 0.11472 0.0
C408 C 0.82688 0.49767 0.09114 0.0
C409 C 0.7583 0.4672 0.1301 0.0
C410 C 0.81758 0.65966 0.16563 0.0
C411 C 0.82061 0.56424 0.08196 0.0
H412 H 0.94445 0.94079 0.14661 0.0
H413 H 0.86756 0.80305 0.15835 0.0
H414 H 0.93762 0.87124 0.16192 0.0
H415 H 0.8083 0.87374 0.12325 0.0
H416 H 0.77099 0.41523 0.13864 0.0
H417 H 0.7532 0.52292 0.11858 0.0
H418 H 0.85405 0.51007 0.07648 0.0
H419 H 0.73192 0.45547 0.14526 0.0
Eu420 Eu 0.84398 0.21285 0.39737 0.0
C421 C 1.00189 0.31353 0.30571 0.0
N422 N 0.97849 0.27162 0.31459 0.0
C423 C 0.97099 0.24653 0.26661 0.0
C424 C 1.00976 0.32377 0.27665 0.0
C425 C 0.96465 0.23809 0.29571 0.0
C426 C 0.99327 0.28959 0.25702 0.0
C427 C 0.0489 0.38956 0.31772 0.0
C428 C 0.02123 0.34587 0.32592 0.0
C429 C 0.05495 0.40037 0.28877 0.0
C430 C 0.0355 0.36751 0.26826 0.0
Eu431 Eu 0.96742 0.25974 0.36397 0.0
N432 N 1.01579 0.33407 0.35361 0.0
C433 C 0.0711 0.42069 0.33884 0.0
C434 C 0.03954 0.36368 0.37414 0.0
C435 C 0.06685 0.40756 0.36716 0.0
H436 H 0.9482 0.20472 0.30313 0.0
H437 H 0.08476 0.43114 0.38359 0.0
H438 H 0.85468 0.18563 0.46332 0.0
H439 H 0.75518 0.10741 0.3072 0.0
H440 H 0.03638 0.35345 0.39601 0.0
H441 H 0.09265 0.45461 0.33343 0.0
H442 H 0.79349 0.17621 0.33331 0.0
H443 H 0.9591 0.21986 0.25164 0.0
H444 H 0.07584 0.4338 0.28203 0.0
H445 H 0.04184 0.37611 0.24604 0.0
H446 H 0.83427 0.1191 0.49149 0.0
H447 H 0.99911 0.29603 0.23456 0.0
H448 H 0.73812 0.03823 0.33068 0.0
N449 N 0.82633 0.1509 0.4253 0.0
C450 C 0.80295 0.11144 0.41262 0.0
C451 C 0.82544 0.1165 0.4693 0.0
C452 C 0.79074 0.07266 0.42781 0.0
C453 C 0.8371 0.15406 0.45334 0.0
C454 C 0.8023 0.07561 0.45646 0.0
N455 N 0.80462 0.14804 0.37009 0.0
C456 C 0.78935 0.14707 0.34333 0.0
C457 C 0.76836 0.06936 0.37036 0.0
C458 C 0.79225 0.10998 0.38416 0.0
C459 C 0.75632 0.06871 0.34205 0.0
C460 C 0.76618 0.1077 0.32866 0.0
H461 H 0.7935 0.04656 0.46884 0.0
H462 H 0.75857 1.00224 0.42516 0.0
H463 H 0.73884 0.99931 0.37489 0.0
O464 O 0.77956 0.20479 0.39017 0.0
O465 O 0.88893 0.18498 0.40412 0.0
O466 O 0.91511 0.1893 0.36003 0.0
O467 O 0.80671 0.22047 0.4321 0.0
O468 O 0.85537 0.23955 0.35195 0.0
O469 O 0.90487 0.22 0.33958 0.0
O470 O 0.99317 0.22663 0.39003 0.0
O471 O 0.95227 0.31213 0.38018 0.0
O472 O 0.87657 0.28224 0.38139 0.0
O473 O 0.02716 0.2595 0.35191 0.0
O474 O 0.96479 0.27133 0.4111 0.0
O475 O 0.89656 0.25342 0.43064 0.0
C476 C 0.89845 0.16703 0.38323 0.0
C477 C 0.7292 0.17375 0.42701 0.0
C478 C 0.6494 0.1338 0.42249 0.0
C479 C 0.64764 0.10192 0.44109 0.0
C480 C 0.72627 0.14178 0.44594 0.0
C481 C 0.68577 0.10612 0.45285 0.0
C482 C 0.69047 0.16986 0.41563 0.0
C483 C 0.87957 0.23543 0.3325 0.0
C484 C 0.77205 0.20863 0.41656 0.0
C485 C 0.76788 0.03235 0.41392 0.0
C486 C 0.75676 0.0307 0.38527 0.0
C487 C 0.91667 0.31551 0.38087 0.0
C488 C 0.06833 0.24951 0.38792 0.0
C489 C 0.12834 0.2356 0.39733 0.0
C490 C 0.14472 0.26914 0.41763 0.0
C491 C 0.08564 0.28326 0.40791 0.0
C492 C 0.0901 0.22611 0.38238 0.0
C493 C 0.12365 0.29295 0.42269 0.0
C494 C 0.93952 0.26926 0.43244 0.0
C495 C 0.02653 0.23672 0.37374 0.0
H496 H 0.61661 0.07408 0.44698 0.0
H497 H 0.75519 0.14391 0.45515 0.0
H498 H 0.68393 0.08148 0.4673 0.0
H499 H 0.69238 0.19423 0.40085 0.0
H500 H 0.17421 0.2773 0.42932 0.0
H501 H 0.06955 0.30177 0.41221 0.0
H502 H 0.07673 0.1999 0.36698 0.0
H503 H 0.13673 0.31889 0.43823 0.0
Eu504 Eu 0.19774 0.37652 0.60011 0.0
C505 C 0.03862 0.32402 0.69291 0.0
N506 N 0.06132 0.30453 0.68443 0.0
C507 C 0.06484 0.2838 0.73231 0.0
C508 C 0.02854 0.32466 0.72175 0.0
C509 C 0.07353 0.28353 0.7034 0.0
C510 C 0.04252 0.30474 0.74156 0.0
C511 C 0.99808 0.36012 0.6803 0.0
C512 C 0.0236 0.34148 0.6725 0.0
C513 C 0.9889 0.36194 0.70907 0.0
C514 C 1.00399 0.34413 0.72973 0.0
Eu515 Eu 0.07725 0.30817 0.63571 0.0
N516 N 0.03255 0.33871 0.64487 0.0
C517 C 0.98167 0.37542 0.65889 0.0
C518 C 1.01514 0.35183 0.62382 0.0
C519 C 0.98992 0.37087 0.63051 0.0
H520 H 0.09038 0.26692 0.6962 0.0
H521 H 0.97685 0.38199 0.6138 0.0
H522 H 0.19764 0.36793 0.52955 0.0
H523 H 0.26919 0.32 0.68181 0.0
H524 H 0.0216 0.34856 0.60187 0.0
H525 H 0.96195 0.39 0.66402 0.0
H526 H 0.23456 0.36015 0.66389 0.0
H527 H 0.07522 0.26776 0.74741 0.0
H528 H 0.96942 0.37622 0.71551 0.0
H529 H 0.99563 0.34471 0.75173 0.0
H530 H 0.22197 0.3342 0.49349 0.0
H531 H 0.03543 0.3045 0.7639 0.0
H532 H 0.29238 0.28177 0.64848 0.0
N533 N 0.21841 0.34473 0.56433 0.0
C534 C 0.23995 0.324 0.5731 0.0
C535 C 0.22689 0.33079 0.5158 0.0
C536 C 0.25523 0.30506 0.55318 0.0
C537 C 0.21259 0.34932 0.53624 0.0
C538 C 0.24813 0.30841 0.5243 0.0
N539 N 0.23194 0.34031 0.62104 0.0
C540 C 0.24143 0.34137 0.64919 0.0
C541 C 0.26886 0.29989 0.61143 0.0
C542 C 0.24672 0.32155 0.60208 0.0
C543 C 0.27579 0.29834 0.64049 0.0
C544 C 0.26245 0.31959 0.65939 0.0
H545 H 0.2594 0.29436 0.50838 0.0
H546 H 0.28896 0.26867 0.5476 0.0
H547 H 0.30055 0.26384 0.59848 0.0
O548 O 0.26715 0.41956 0.60755 0.0
O549 O 0.15366 0.30327 0.59317 0.0
O550 O 0.12579 0.28449 0.63735 0.0
O551 O 0.23645 0.43382 0.57307 0.0
O552 O 0.1901 0.39251 0.64625 0.0
O553 O 0.13878 0.32433 0.65897 0.0
O554 O 0.04619 0.25368 0.60621 0.0
O555 O 0.10263 0.38177 0.63303 0.0
O556 O 0.16321 0.41517 0.60294 0.0
O557 O 0.0182 0.24796 0.64789 0.0
O558 O 0.07669 0.32524 0.58947 0.0
O559 O 0.14474 0.36146 0.56676 0.0
C560 C 0.13977 0.27514 0.61416 0.0
C561 C 0.29466 0.49317 0.5977 0.0
C562 C 0.36323 0.55978 0.60846 0.0
C563 C 0.33968 0.57582 0.62313 0.0
C564 C 0.27181 0.50996 0.61236 0.0
C565 C 0.29423 0.55119 0.6248 0.0
C566 C 0.3404 0.51844 0.59552 0.0
C567 C 0.16573 0.36471 0.66593 0.0
C568 C 0.27191 0.44747 0.58804 0.0
C569 C 0.27715 0.28353 0.56258 0.0
C570 C 0.28376 0.28079 0.59159 0.0
C571 C 0.13215 0.41528 0.61813 0.0
C572 C 0.97059 0.20562 0.61088 0.0
C573 C 0.90751 0.13659 0.59655 0.0
C574 C 0.88958 0.15984 0.58358 0.0
C575 C 0.95185 0.22825 0.59827 0.0
C576 C 0.94808 0.15978 0.61034 0.0
C577 C 0.91151 0.20537 0.58466 0.0
C578 C 0.10142 0.34219 0.56683 0.0
C579 C 1.01441 0.22923 0.62344 0.0
H580 H 0.35645 0.60766 0.63303 0.0
H581 H 0.23678 0.49078 0.61478 0.0
H582 H 0.27636 0.56386 0.63612 0.0
H583 H 0.3583 0.50539 0.5846 0.0
H584 H 0.85833 0.14272 0.5729 0.0
H585 H 0.96859 0.26349 0.59873 0.0
H586 H 0.96257 0.14222 0.62003 0.0
H587 H 0.89727 0.22298 0.57481 0.0
Eu588 Eu 0.2645 0.95523 0.88034 0.0
C589 C 0.10358 0.79574 0.93351 0.0
N590 N 0.14427 0.81372 0.94471 0.0
C591 C 0.11598 0.81085 0.99126 0.0
C592 C 0.06726 0.78524 0.95094 0.0
C593 C 0.15088 0.82027 0.97319 0.0
C594 C 0.07402 0.79353 0.98006 0.0
C595 C 0.05607 0.76768 0.89258 0.0
C596 C 0.09828 0.7875 0.90459 0.0
C597 C 0.01996 0.75815 0.90973 0.0
C598 C 0.02553 0.76683 0.93884 0.0
Eu599 Eu 0.20175 0.82904 0.91323 0.0
N600 N 0.13384 0.79664 0.88852 0.0
C601 C 0.05114 0.75658 0.86386 0.0
C602 C 0.12805 0.78092 0.86147 0.0
C603 C 0.08716 0.76229 0.84843 0.0
H604 H 0.18325 0.83307 0.9819 0.0
H605 H 0.08324 0.75117 0.8267 0.0
H606 H 0.24958 0.93676 0.80965 0.0
H607 H 0.41352 0.06983 0.93515 0.0
H608 H 0.15423 0.78079 0.85004 0.0
H609 H 0.01937 0.74153 0.85382 0.0
H610 H 0.33387 0.02359 0.92834 0.0
H611 H 0.12141 0.81677 0.0138 0.0
H612 H 0.98747 0.74343 0.90075 0.0
H613 H 0.99731 0.75894 0.95184 0.0
H614 H 0.29368 0.94024 0.76802 0.0
H615 H 0.04707 0.7863 0.99411 0.0
H616 H 0.46387 0.07729 0.89635 0.0
N617 N 0.30355 0.96438 0.83772 0.0
C618 C 0.34777 0.98782 0.83978 0.0
C619 C 0.30925 0.95316 0.78822 0.0
C620 C 0.37451 0.99334 0.81621 0.0
C621 C 0.28422 0.95006 0.81198 0.0
C622 C 0.35459 0.97427 0.79044 0.0
N623 N 0.33961 1.00274 0.88731 0.0
C624 C 0.35575 0.0256 0.91179 0.0
C625 C 0.41189 0.03502 0.86774 0.0
C626 C 0.36631 1.00834 0.86517 0.0
C627 C 0.42902 0.05659 0.89347 0.0
C628 C 0.40074 0.05232 0.91547 0.0
H629 H 0.37389 0.97738 0.77186 0.0
H630 H 0.4411 0.02289 0.80107 0.0
H631 H 0.47385 0.05938 0.84625 0.0
O632 O 0.25182 1.00441 0.89892 0.0
O633 O 0.31056 0.92919 0.89255 0.0
O634 O 0.27081 0.85378 0.89988 0.0
O635 O 0.26395 1.00584 0.85402 0.0
O636 O 0.26439 0.95164 0.92807 0.0
O637 O 0.24512 0.88199 0.94609 0.0
O638 O 0.17903 0.75927 0.9066 0.0
O639 O 0.18101 0.87808 0.92468 0.0
O640 O 0.19106 0.90945 0.88174 0.0
O641 O 0.21338 0.79119 0.94552 0.0
O642 O 0.22238 0.83876 0.8662 0.0
O643 O 0.21402 0.89716 0.85625 0.0
C644 C 0.30755 0.89061 0.89621 0.0
C645 C 0.21204 0.02498 0.86874 0.0
C646 C 0.17409 0.06676 0.86891 0.0
C647 C 0.13551 0.02903 0.86077 0.0
C648 C 0.17349 0.98825 0.85946 0.0
C649 C 0.13538 0.99015 0.85589 0.0
C650 C 0.21242 0.0645 0.87302 0.0
C651 C 0.26172 0.92508 0.9486 0.0
C652 C 0.25121 0.02149 0.87452 0.0
C653 C 0.42007 0.01855 0.81891 0.0
C654 C 0.43872 0.03943 0.84461 0.0
C655 C 0.16991 0.89772 0.90582 0.0
C656 C 0.18896 0.71336 0.9413 0.0
C657 C 0.17377 0.63839 0.93351 0.0
C658 C 0.17406 0.63299 0.96298 0.0
C659 C 0.18958 0.70691 0.97063 0.0
C660 C 0.18134 0.67887 0.92261 0.0
C661 C 0.18211 0.66703 0.98132 0.0
C662 C 0.2187 0.86467 0.84769 0.0
C663 C 0.19356 0.75513 0.931 0.0
H664 H 0.10574 0.02999 0.85733 0.0
H665 H 0.1728 0.95808 0.85486 0.0
H666 H 0.10573 0.96148 0.84904 0.0
H667 H 0.24224 0.09324 0.87966 0.0
H668 H 0.16863 0.60241 0.97182 0.0
H669 H 0.19497 0.73251 0.98542 0.0
H670 H 0.18093 0.68327 0.8999 0.0
H671 H 0.18239 0.66242 1.004 0.0
Eu672 Eu 0.65479 0.82998 0.59835 0.0
C673 C 0.68264 0.71521 0.69297 0.0
N674 N 0.70815 0.75872 0.68841 0.0
C675 C 0.71133 0.77235 0.73819 0.0
C676 C 0.67009 0.69855 0.72064 0.0
C677 C 0.72373 0.78724 0.71048 0.0
C678 C 0.68395 0.72788 0.74331 0.0
C679 C 0.64233 0.6419 0.67386 0.0
C680 C 0.6685 0.68726 0.66986 0.0
C681 C 0.63033 0.62511 0.70145 0.0
C682 C 0.64395 0.65339 0.72477 0.0
Eu683 Eu 0.72169 0.78162 0.64088 0.0
N684 N 0.67893 0.70467 0.64336 0.0
C685 C 0.62851 0.61483 0.64998 0.0
C686 C 0.66589 0.67845 0.62001 0.0
C687 C 0.64044 0.63321 0.62295 0.0
H688 H 0.745 0.82166 0.70661 0.0
H689 H 0.62952 0.61259 0.60435 0.0
H690 H 0.66973 0.82798 0.52873 0.0
H691 H 0.70053 0.96967 0.66885 0.0
H692 H 0.67329 0.6926 0.59917 0.0
H693 H 0.60836 0.5798 0.65216 0.0
H694 H 0.66451 0.89245 0.65614 0.0
H695 H 0.72285 0.79524 0.7556 0.0
H696 H 0.61016 0.59035 0.70496 0.0
H697 H 0.63415 0.64002 0.74591 0.0
H698 H 0.70467 0.87993 0.48916 0.0
H699 H 0.67424 0.71652 0.76485 0.0
H700 H 0.73892 0.02604 0.6322 0.0
N701 N 0.68751 0.87731 0.55964 0.0
C702 C 0.70578 0.92065 0.56496 0.0
C703 C 0.70553 0.89184 0.5104 0.0
C704 C 0.72527 0.95151 0.54296 0.0
C705 C 0.68645 0.8625 0.53285 0.0
C706 C 0.72517 0.93657 0.51548 0.0
N707 N 0.68707 0.90371 0.61349 0.0
C708 C 0.68347 0.91608 0.64028 0.0
C709 C 0.72502 0.97915 0.59871 0.0
C710 C 0.7057 0.93424 0.59261 0.0
C711 C 0.72419 0.99189 0.62663 0.0
C712 C 0.70286 0.96018 0.64741 0.0
H713 H 0.73987 0.95926 0.49804 0.0
H714 H 0.75952 0.02029 0.53243 0.0
H715 H 0.75943 0.0445 0.58121 0.0
O716 O 0.59588 0.83326 0.61022 0.0
O717 O 0.72905 0.86603 0.59544 0.0
O718 O 0.75086 0.85543 0.63917 0.0
O719 O 0.60724 0.82289 0.56624 0.0
O720 O 0.64292 0.8167 0.64669 0.0
O721 O 0.71095 0.83247 0.66129 0.0
O722 O 0.76887 0.76695 0.62174 0.0
O723 O 0.64645 0.74081 0.64047 0.0
O724 O 0.62583 0.75732 0.59813 0.0
O725 O 0.78259 0.79714 0.66287 0.0
O726 O 0.72995 0.79059 0.59345 0.0
O727 O 0.66811 0.78279 0.57149 0.0
C728 C 0.75658 0.88008 0.61677 0.0
C729 C 0.54183 0.82764 0.57479 0.0
C730 C 0.48292 0.84448 0.58176 0.0
C731 C 0.46998 0.83238 0.55351 0.0
C732 C 0.52754 0.81548 0.54673 0.0
C733 C 0.49189 0.81771 0.53628 0.0
C734 C 0.51877 0.84153 0.59255 0.0
C735 C 0.67172 0.82499 0.66709 0.0
C736 C 0.58265 0.82882 0.58402 0.0
C737 C 0.74433 0.99613 0.54904 0.0
C738 C 0.7443 1.00991 0.57684 0.0
C739 C 0.61701 0.73283 0.62065 0.0
C740 C 0.84123 0.82105 0.63046 0.0
C741 C 0.92023 0.85341 0.62455 0.0
C742 C 0.9204 0.88633 0.60768 0.0
C743 C 0.84259 0.85367 0.61285 0.0
C744 C 0.8803 0.82096 0.63638 0.0
C745 C 0.88187 0.88633 0.60188 0.0
C746 C 0.70165 0.77562 0.57268 0.0
C747 C 0.79842 0.78673 0.64124 0.0
H748 H 0.44235 0.83378 0.54482 0.0
H749 H 0.54433 0.80471 0.53257 0.0
H750 H 0.48139 0.80834 0.5146 0.0
H751 H 0.52936 0.85125 0.61421 0.0
H752 H 0.95051 0.9123 0.59891 0.0
H753 H 0.81304 0.85351 0.60717 0.0
H754 H 0.87943 0.79533 0.64944 0.0
H755 H 0.88237 0.91152 0.58858 0.0
Eu756 Eu 0.06353 0.29873 0.86837 0.0
C757 C 0.21391 0.3038 0.93313 0.0
N758 N 0.19361 0.32707 0.93853 0.0
C759 C 0.18519 0.30495 0.98738 0.0
C760 C 0.21896 0.27872 0.95452 0.0
C761 C 0.18175 0.32998 0.96566 0.0
C762 C 0.20313 0.27855 0.98168 0.0
C763 C 0.25711 0.28701 0.90105 0.0
C764 C 0.23261 0.30758 0.90671 0.0
C765 C 0.26043 0.26042 0.92185 0.0
C766 C 0.24124 0.25613 0.94849 0.0
Eu767 Eu 0.18831 0.36715 0.89958 0.0
N768 N 0.22822 0.33286 0.8868 0.0
C769 C 0.27811 0.29439 0.8748 0.0
C770 C 0.24993 0.34161 0.8616 0.0
C771 C 0.27485 0.32216 0.8551 0.0
H772 H 0.17031 0.35216 0.97101 0.0
H773 H 0.29147 0.32855 0.83493 0.0
H774 H 0.07847 0.35181 0.80712 0.0
H775 H 0.94028 0.26024 0.95014 0.0
H776 H 0.24749 0.36327 0.84649 0.0
H777 H 0.29731 0.27924 0.86968 0.0
H778 H 0.99703 0.25301 0.9244 0.0
H779 H 0.17473 0.30668 0.00865 0.0
H780 H 0.27852 0.24377 0.91775 0.0
H781 H 0.24504 0.23641 0.96458 0.0
H782 H 0.05477 0.39944 0.78404 0.0
H783 H 0.20638 0.25973 0.99868 0.0
H784 H 0.9171 0.31151 0.93282 0.0
N785 N 0.04106 0.34253 0.84428 0.0
C786 C 1.01047 0.34874 0.85737 0.0
C787 C 0.04214 0.38548 0.80469 0.0
C788 C 0.9956 0.37516 0.84494 0.0
C789 C 0.05558 0.3587 0.81774 0.0
C790 C 1.01229 0.39407 0.81845 0.0
N791 N 1.0077 0.30165 0.8939 0.0
C792 C 0.98793 0.2763 0.91707 0.0
C793 C 0.96084 0.33269 0.89679 0.0
C794 C 0.99355 0.32795 0.88303 0.0
C795 C 0.94234 0.30882 0.92162 0.0
C796 C 0.95539 0.2799 0.93149 0.0
H797 H 1.00177 0.41468 0.80822 0.0
H798 H 0.95263 0.40178 0.85005 0.0
H799 H 0.92207 0.36447 0.89539 0.0
O800 O 0.99992 0.2394 0.86295 0.0
O801 O 0.0979 0.37387 0.86814 0.0
O802 O 0.14669 0.39807 0.90563 0.0
O803 O 0.04894 0.25815 0.83063 0.0
O804 O 0.07649 0.28883 0.91384 0.0
O805 O 0.13214 0.35403 0.93063 0.0
O806 O 0.24502 0.42691 0.88315 0.0
O807 O 0.16261 0.30231 0.87657 0.0
O808 O 0.09276 0.2639 0.89246 0.0
O809 O 0.23974 0.41333 0.92772 0.0
O810 O 0.1788 0.38066 0.85307 0.0
O811 O 0.11879 0.31594 0.83791 0.0
C812 C 0.1226 0.40378 0.8869 0.0
C813 C 1.00543 0.18263 0.84062 0.0
C814 C 0.95799 0.10366 0.8448 0.0
C815 C 0.99488 0.09868 0.84481 0.0
C816 C 0.04181 0.1766 0.84012 0.0
C817 C 0.03649 0.13493 0.84228 0.0
C818 C 0.9633 0.14576 0.84267 0.0
C819 C 0.0933 0.31864 0.93366 0.0
C820 C 1.01168 0.22726 0.84021 0.0
C821 C 0.96424 0.38131 0.85913 0.0
C822 C 0.94689 0.36011 0.88498 0.0
C823 C 0.12913 0.26546 0.88491 0.0
C824 C 0.31097 0.44762 0.90831 0.0
C825 C 0.38976 0.49783 0.90182 0.0
C826 C 0.3975 0.46472 0.91162 0.0
C827 C 0.32035 0.41592 0.91845 0.0
C828 C 0.3459 0.48869 0.89997 0.0
C829 C 0.36311 0.42422 0.91972 0.0
C830 C 0.15471 0.35301 0.83293 0.0
C831 C 0.26496 0.438 0.90749 0.0
H832 H 0.99139 0.06656 0.84645 0.0
H833 H 0.07452 0.20413 0.83825 0.0
H834 H 0.06476 0.13075 0.84206 0.0
H835 H 0.93492 0.14982 0.84296 0.0
H836 H 0.43036 0.47046 0.91408 0.0
H837 H 0.29471 0.38488 0.92599 0.0
H838 H 0.33889 0.51342 0.89235 0.0
H839 H 0.36971 0.3994 0.92768 0.0
Eu840 Eu 0.20971 0.83864 0.61468 0.0
C841 C 0.30085 1.00348 0.70636 0.0
N842 N 0.26046 0.97812 0.69542 0.0
C843 C 0.22829 0.97847 0.74008 0.0
C844 C 0.30667 0.01698 0.73493 0.0
C845 C 0.22426 0.96663 0.7115 0.0
C846 C 0.26969 1.00381 0.75186 0.0
C847 C 0.37853 0.04803 0.69834 0.0
C848 C 0.33612 0.01915 0.68827 0.0
C849 C 0.38488 0.05956 0.72715 0.0
C850 C 0.34895 0.04442 0.74535 0.0
Eu851 Eu 0.25506 0.96203 0.64648 0.0
N852 N 0.32849 1.00916 0.66034 0.0
C853 C 0.41294 0.0662 0.67888 0.0
C854 C 0.36141 0.02953 0.64104 0.0
C855 C 0.40421 0.05735 0.65003 0.0
H856 H 0.19215 0.94846 0.70216 0.0
H857 H 0.43031 0.07247 0.63468 0.0
H858 H 0.18058 0.83874 0.54761 0.0
H859 H 0.10562 0.74918 0.70569 0.0
H860 H 0.35467 0.02388 0.61862 0.0
H861 H 0.446 0.08843 0.68577 0.0
H862 H 0.17365 0.78473 0.67854 0.0
H863 H 0.19948 0.9687 0.75285 0.0
H864 H 0.41722 0.0815 0.73532 0.0
H865 H 0.35412 0.05489 0.76728 0.0
H866 H 0.11335 0.8173 0.5199 0.0
H867 H 0.27275 0.01372 0.77385 0.0
H868 H 0.03669 0.7358 0.68356 0.0
N869 N 0.14717 0.81734 0.58679 0.0
C870 C 0.10814 0.79628 0.60032 0.0
C871 C 0.11146 0.8115 0.54253 0.0
C872 C 0.06901 0.78356 0.58544 0.0
C873 C 0.14942 0.8238 0.55821 0.0
C874 C 0.07111 0.79175 0.55625 0.0
N875 N 0.14562 0.79845 0.64264 0.0
C876 C 0.14474 0.78223 0.66911 0.0
C877 C 0.06712 0.76495 0.6435 0.0
C878 C 0.10739 0.78734 0.62911 0.0
C879 C 0.06691 0.75293 0.67176 0.0
C880 C 0.10577 0.76065 0.68438 0.0
H881 H 0.04177 0.78252 0.54409 0.0
H882 H 0.99886 0.75384 0.5891 0.0
H883 H 0.99716 0.73741 0.6399 0.0
O884 O 0.18158 0.76871 0.60837 0.0
O885 O 0.18279 0.88367 0.60502 0.0
O886 O 0.1841 0.91008 0.64866 0.0
O887 O 0.24383 0.81208 0.58987 0.0
O888 O 0.23234 0.85033 0.66111 0.0
O889 O 0.21437 0.90176 0.67348 0.0
O890 O 0.2222 0.98494 0.61764 0.0
O891 O 0.30573 0.94442 0.63022 0.0
O892 O 0.27432 0.87057 0.63797 0.0
O893 O 0.25736 0.02428 0.65349 0.0
O894 O 0.27235 0.96032 0.6004 0.0
O895 O 0.24462 0.89078 0.57988 0.0
C896 C 0.16325 0.89312 0.62505 0.0
C897 C 0.23074 0.74334 0.60799 0.0
C898 C 0.21873 0.66992 0.6173 0.0
C899 C 0.25122 0.68744 0.63828 0.0
C900 C 0.26302 0.75985 0.62907 0.0
C901 C 0.27343 0.73213 0.6439 0.0
C902 C 0.20893 0.69824 0.60192 0.0
C903 C 0.22617 0.87338 0.68061 0.0
C904 C 0.21522 0.77156 0.59559 0.0
C905 C 0.02919 0.76318 0.60007 0.0
C906 C 0.02825 0.75399 0.62903 0.0
C907 C 0.30825 0.90847 0.63174 0.0
C908 C 0.25096 0.06086 0.61343 0.0
C909 C 0.24166 0.12023 0.59465 0.0
C910 C 0.28025 0.13487 0.57891 0.0
C911 C 0.28957 0.07638 0.59784 0.0
C912 C 0.22723 0.083 0.61196 0.0
C913 C 0.30403 0.11316 0.58063 0.0
C914 C 0.26586 0.93427 0.57861 0.0
C915 C 0.23479 0.02139 0.63102 0.0
H916 H 0.25968 0.66651 0.65017 0.0
H917 H 0.27926 0.79399 0.63462 0.0
H918 H 0.29833 0.74524 0.66017 0.0
H919 H 0.18332 0.68499 0.58607 0.0
H920 H 0.29253 0.16366 0.56569 0.0
H921 H 0.30847 0.06008 0.59908 0.0
H922 H 0.19734 0.07096 0.62402 0.0
H923 H 0.33392 0.12511 0.56868 0.0
Eu924 Eu 0.73097 0.77453 0.86925 0.0
C925 C 0.71301 0.91725 0.92191 0.0
N926 N 0.69723 0.87562 0.93132 0.0
C927 C 0.72813 0.90176 0.97721 0.0
C928 C 0.73818 0.95295 0.9399 0.0
C929 C 0.7037 0.86732 0.95858 0.0
C930 C 0.74557 0.94473 0.96782 0.0
C931 C 0.72315 0.96701 0.8833 0.0
C932 C 0.70536 0.92416 0.89382 0.0
C933 C 0.74821 1.00257 0.90123 0.0
C934 C 0.75557 0.99557 0.92944 0.0
Eu935 Eu 0.6538 0.82053 0.89886 0.0
N936 N 0.68177 0.88914 0.87659 0.0
C937 C 0.71542 0.97293 0.85497 0.0
C938 C 0.6726 0.89478 0.84935 0.0
C939 C 0.68981 0.93667 0.83801 0.0
H940 H 0.68961 0.8342 0.96609 0.0
H941 H 0.68289 0.94097 0.81627 0.0
H942 H 0.77281 0.80826 0.805 0.0
H943 H 0.67635 0.61682 0.92059 0.0
H944 H 0.65128 0.86724 0.83642 0.0
H945 H 0.72866 1.00534 0.84609 0.0
H946 H 0.69857 0.69476 0.91827 0.0
H947 H 0.73338 0.89517 0.99883 0.0
H948 H 0.76215 0.03568 0.89346 0.0
H949 H 0.77508 0.02338 0.94295 0.0
H950 H 0.78935 0.77839 0.7623 0.0
H951 H 0.76466 0.97132 0.98228 0.0
H952 H 0.67661 0.57814 0.87704 0.0
N953 N 0.74041 0.74718 0.8261 0.0
C954 C 0.72783 0.70416 0.82545 0.0
C955 C 0.77129 0.75703 0.7797 0.0
C956 C 0.73469 0.68539 0.80107 0.0
C957 C 0.76168 0.77377 0.80372 0.0
C958 C 0.75672 0.71245 0.77804 0.0
N959 N 0.70882 0.69967 0.87386 0.0
C960 C 0.69826 0.67812 0.89922 0.0
C961 C 0.69957 0.63525 0.85031 0.0
C962 C 0.71114 0.6796 0.84995 0.0
C963 C 0.68586 0.61225 0.8759 0.0
C964 C 0.68575 0.63397 0.90054 0.0
H965 H 0.76342 0.69946 0.75914 0.0
H966 H 0.7259 0.62571 0.78229 0.0
H967 H 0.69458 0.58163 0.82532 0.0
O968 O 0.78499 0.80635 0.89924 0.0
O969 O 0.65992 0.72 0.87503 0.0
O970 O 0.61616 0.74861 0.88967 0.0
O971 O 0.79559 0.78459 0.85883 0.0
O972 O 0.72496 0.78715 0.91568 0.0
O973 O 0.65784 0.77281 0.93019 0.0
O974 O 0.59836 0.8292 0.88823 0.0
O975 O 0.72833 0.85607 0.89847 0.0
O976 O 0.74723 0.8421 0.8557 0.0
O977 O 0.60864 0.81774 0.93165 0.0
O978 O 0.6412 0.79708 0.85267 0.0
O979 O 0.70584 0.80289 0.83568 0.0
C980 C 0.62178 0.71611 0.88172 0.0
C981 C 0.84125 0.78869 0.89656 0.0
C982 C 0.91472 0.80132 0.90495 0.0
C983 C 0.89738 0.7655 0.92356 0.0
C984 C 0.82435 0.75242 0.91466 0.0
C985 C 0.85241 0.74101 0.92814 0.0
C986 C 0.88637 0.81265 0.89142 0.0
C987 C 0.69165 0.76679 0.93278 0.0
C988 C 0.81268 0.80248 0.88302 0.0
C989 C 0.7214 0.64081 0.80096 0.0
C990 C 0.70363 0.61573 0.82548 0.0
C991 C 0.75191 0.8701 0.87535 0.0
C992 C 0.57971 0.86496 0.92296 0.0
C993 C 0.53902 0.90426 0.9186 0.0
C994 C 0.56945 0.9365 0.93689 0.0
C995 C 0.6089 0.89737 0.94157 0.0
C996 C 0.54451 0.8684 0.91167 0.0
C997 C 0.60392 0.93295 0.94827 0.0
C998 C 0.66656 0.79781 0.83186 0.0
C999 C 0.58672 0.82858 0.91443 0.0
H1000 H 0.91858 0.75604 0.93413 0.0
H1001 H 0.78963 0.73316 0.91848 0.0
H1002 H 0.83927 0.71317 0.94225 0.0
H1003 H 0.89949 0.84047 0.87722 0.0
H1004 H 0.56596 0.96404 0.94307 0.0
H1005 H 0.63565 0.89535 0.95102 0.0
H1006 H 0.52177 0.84347 0.89734 0.0
H1007 H 0.62675 0.95778 0.96258 0.0
H1008 H 0.09707 0.11072 0.18447 0.0
H1009 H 0.10999 0.18225 0.10764 0.0
H1010 H 0.17547 0.17906 0.09494 0.0
H1011 H 0.22747 0.15361 0.10512 0.0
H1012 H 0.21638 0.08591 0.18358 0.0
H1013 H 0.15087 0.08851 0.19566 0.0
C1014 C 0.11431 0.12569 0.16496 0.0
C1015 C 0.09864 0.14652 0.14696 0.0
C1016 C 0.15197 0.12399 0.15795 0.0
C1017 C 0.12159 0.16628 0.12194 0.0
C1018 C 0.15885 0.16423 0.1146 0.0
C1019 C 0.21138 0.1403 0.12515 0.0
C1020 C 0.22758 0.12039 0.14362 0.0
C1021 C 0.17423 0.14296 0.1324 0.0
C1022 C 0.20498 0.10166 0.16895 0.0
C1023 C 0.16753 0.10328 0.17599 0.0
H1024 H 0.05014 0.93629 0.41124 0.0
H1025 H 0.10135 0.88238 0.35066 0.0
H1026 H 0.03097 0.81479 0.34904 0.0
H1027 H 0.95305 0.77474 0.36072 0.0
H1028 H 0.90184 0.82673 0.42262 0.0
H1029 H 0.97402 0.89176 0.4277 0.0
C1030 C 0.04595 0.90944 0.39802 0.0
C1031 C 0.08068 0.91438 0.38088 0.0
C1032 C 1.00535 0.8708 0.39709 0.0
C1033 C 0.07515 0.87925 0.3641 0.0
C1034 C 0.03482 0.84081 0.36296 0.0
C1035 C 0.95787 0.79997 0.3757 0.0
C1036 C 0.92222 0.79622 0.39111 0.0
C1037 C 0.99941 0.83679 0.37871 0.0
C1038 C 0.92878 0.82923 0.41028 0.0
C1039 C 0.97004 0.86622 0.41329 0.0
H1040 H 0.93031 0.10369 0.09318 0.0
H1041 H 0.83818 0.08717 0.15847 0.0
H1042 H 0.82253 0.01301 0.167 0.0
H1043 H 0.83536 0.95233 0.15662 0.0
H1044 H 0.93129 0.96945 0.09425 0.0
H1045 H 0.94502 0.04316 0.08382 0.0
C1046 C 0.90706 0.08386 0.10936 0.0
C1047 C 0.88479 0.10077 0.12474 0.0
C1048 C 0.89859 0.04099 0.11455 0.0
C1049 C 0.85498 0.07471 0.14579 0.0
C1050 C 0.84609 0.03222 0.15081 0.0
C1051 C 0.85875 0.97205 0.14046 0.0
C1052 C 0.88175 0.95533 0.1259 0.0
C1053 C 0.86741 0.01482 0.13523 0.0
C1054 C 0.91285 0.98156 0.10551 0.0
C1055 C 0.92086 0.02376 0.09966 0.0
H1056 H 0.24678 0.15825 0.35795 0.0
H1057 H 0.2415 0.13156 0.4475 0.0
H1058 H 0.1894 0.15676 0.45436 0.0
H1059 H 0.15213 0.19449 0.43596 0.0
H1060 H 0.15697 0.222 0.34664 0.0
H1061 H 0.20236 0.18868 0.33858 0.0
C1062 C 0.23326 0.1569 0.37879 0.0
C1063 C 0.24822 0.14341 0.40225 0.0
C1064 C 0.2038 0.17236 0.38269 0.0
C1065 C 0.23065 0.14204 0.42916 0.0
C1066 C 0.20096 0.15661 0.43312 0.0
C1067 C 0.1627 0.19265 0.41469 0.0
C1068 C 0.15157 0.21098 0.39196 0.0
C1069 C 0.1885 0.17326 0.41024 0.0
C1070 C 0.1651 0.20805 0.36446 0.0
C1071 C 0.19113 0.18909 0.35987 0.0
H1072 H 0.05046 0.89741 0.07147 0.0
H1073 H 0.07945 0.89166 0.15959 0.0
H1074 H 1.00571 0.82964 0.16683 0.0
H1075 H 0.93179 0.77882 0.14824 0.0
H1076 H 0.9048 0.78345 0.05955 0.0
H1077 H 0.97866 0.8445 0.05241 0.0
C1078 C 0.04065 0.88241 0.09224 0.0
C1079 C 0.0702 0.89924 0.11502 0.0
C1080 C 0.99835 0.84703 0.09619 0.0
C1081 C 0.05735 0.87913 0.14171 0.0
C1082 C 1.01509 0.84396 0.14589 0.0
C1083 C 0.94209 0.79363 0.12747 0.0
C1084 C 0.91283 0.77727 0.10451 0.0
C1085 C 0.98507 0.82808 0.12338 0.0
C1086 C 0.92672 0.79588 0.07755 0.0
C1087 C 0.96896 0.83062 0.07344 0.0
H1088 H 0.87795 0.98408 0.41149 0.0
H1089 H 0.83244 0.95945 0.32508 0.0
H1090 H 0.84008 0.03204 0.32208 0.0
H1091 H 0.8673 0.10517 0.34259 0.0
H1092 H 0.90946 0.12848 0.42974 0.0
H1093 H 0.89621 0.05389 0.43394 0.0
C1094 C 0.86884 0.9944 0.39226 0.0
C1095 C 0.85492 0.96686 0.36848 0.0
C1096 C 0.87384 0.0362 0.39063 0.0
C1097 C 0.84294 0.98017 0.34366 0.0
C1098 C 0.84787 0.0218 0.34184 0.0
C1099 C 0.87372 0.09378 0.3624 0.0
C1100 C 0.89013 0.12214 0.38567 0.0
C1101 C 0.86477 0.05059 0.36486 0.0
C1102 C 0.89726 0.10707 0.41152 0.0
C1103 C 0.88951 0.0645 0.41394 0.0
H1104 H 0.20865 0.14471 0.63855 0.0
H1105 H 0.22061 0.15083 0.54746 0.0
H1106 H 0.18586 0.19551 0.54514 0.0
H1107 H 0.157 0.23749 0.56928 0.0
H1108 H 0.14832 0.23392 0.66056 0.0
H1109 H 0.17588 0.18314 0.66244 0.0
C1110 C 0.20301 0.15525 0.61817 0.0
C1111 C 0.21733 0.14449 0.59324 0.0
C1112 C 0.18364 0.18159 0.61701 0.0
C1113 C 0.21026 0.15893 0.56701 0.0
C1114 C 0.19018 0.18432 0.56564 0.0
C1115 C 0.16076 0.22524 0.58955 0.0
C1116 C 0.15114 0.24002 0.61473 0.0
C1117 C 0.17753 0.19662 0.59055 0.0
C1118 C 0.15557 0.22331 0.64082 0.0
C1119 C 0.17161 0.19439 0.64195 0.0
H1120 H 0.10916 0.87885 0.86434 0.0
H1121 H 0.13185 0.90309 0.95401 0.0
H1122 H 0.05483 0.87896 0.96148 0.0
H1123 H 0.97958 0.84159 0.94347 0.0
H1124 H 0.95604 0.81617 0.85405 0.0
H1125 H 0.03463 0.84991 0.84544 0.0
C1126 C 0.09743 0.88015 0.88534 0.0
C1127 C 0.12598 0.89248 0.90864 0.0
C1128 C 0.05278 0.86519 0.88958 0.0
C1129 C 0.11033 0.89356 0.9358 0.0
C1130 C 0.06628 0.87958 0.9401 0.0
C1131 C 0.99184 0.84412 0.92208 0.0
C1132 C 0.9623 0.82617 0.89945 0.0
C1133 C 0.03694 0.86371 0.91733 0.0
C1134 C 0.97835 0.82981 0.87177 0.0
C1135 C 0.02321 0.84904 0.86687 0.0
H1136 H 0.79437 0.93477 0.57199 0.0
H1137 H 0.79609 0.93005 0.66332 0.0
H1138 H 0.84582 1.00871 0.66507 0.0
H1139 H 0.88395 0.08 0.64079 0.0
H1140 H 0.87775 0.08512 0.54972 0.0
H1141 H 0.835 1.00546 0.54764 0.0
C1142 C 0.80579 0.95098 0.59226 0.0
C1143 C 0.79099 0.92667 0.61748 0.0
C1144 C 0.83349 0.99644 0.59314 0.0
C1145 C 0.80684 0.94796 0.64357 0.0
C1146 C 0.83508 0.99304 0.64461 0.0
C1147 C 0.8735 0.06351 0.62052 0.0
C1148 C 0.88383 0.08824 0.59545 0.0
C1149 C 0.84783 0.01777 0.61957 0.0
C1150 C 0.86991 0.06667 0.56929 0.0
C1151 C 0.84558 0.02118 0.56811 0.0
H1152 H 0.18498 0.24894 0.8554 0.0
H1153 H 0.07933 0.19117 0.91546 0.0
H1154 H 0.0847 0.12491 0.91663 0.0
H1155 H 0.11919 0.08311 0.90001 0.0
H1156 H 0.22854 0.14359 0.84283 0.0
H1157 H 0.2233 0.20992 0.84196 0.0
C1158 C 0.16388 0.22232 0.86929 0.0
C1159 C 0.13236 0.22533 0.88567 0.0
C1160 C 0.16813 0.185 0.87055 0.0
C1161 C 0.10402 0.18977 0.9027 0.0
C1162 C 0.10723 0.15197 0.9035 0.0
C1163 C 0.14213 0.11107 0.88764 0.0
C1164 C 0.17419 0.10856 0.87147 0.0
C1165 C 0.13916 0.14922 0.88749 0.0
C1166 C 0.20389 0.14497 0.85563 0.0
C1167 C 0.20067 0.18272 0.85496 0.0
H1168 H 0.09957 0.8714 0.66447 0.0
H1169 H 0.12754 0.89882 0.57546 0.0
H1170 H 0.0537 0.88546 0.56721 0.0
H1171 H 0.98196 0.86768 0.58532 0.0
H1172 H 0.95292 0.84051 0.67426 0.0
H1173 H 0.02585 0.85059 0.68241 0.0
C1174 C 0.08947 0.87481 0.64335 0.0
C1175 C 0.11895 0.8864 0.62061 0.0
C1176 C 0.04666 0.8665 0.63871 0.0
C1177 C 0.1054 0.89001 0.59326 0.0
C1178 C 0.06318 0.88227 0.58854 0.0
C1179 C 0.99156 0.86403 0.60654 0.0
C1180 C 0.96218 0.85395 0.62923 0.0
C1181 C 0.03363 0.87066 0.6111 0.0
C1182 C 0.97479 0.84817 0.65642 0.0
C1183 C 1.01665 0.85436 0.66112 0.0
H1184 H 0.91933 0.05535 0.89147 0.0
H1185 H 0.90067 0.06291 0.8019 0.0
H1186 H 0.83456 0.99081 0.80317 0.0
H1187 H 0.7849 0.92333 0.82947 0.0
H1188 H 0.80261 0.91751 0.91948 0.0
H1189 H 0.86586 0.99103 0.91853 0.0
C1190 C 0.90015 0.04142 0.87242 0.0
C1191 C 0.91439 0.06418 0.84666 0.0
C1192 C 0.86239 1.00004 0.87337 0.0
C1193 C 0.88981 0.04595 0.82198 0.0
C1194 C 0.85232 1.00466 0.82268 0.0
C1195 C 0.80282 0.93827 0.84878 0.0
C1196 C 0.78968 0.91489 0.8744 0.0
C1197 C 0.83883 0.98096 0.84815 0.0
C1198 C 0.81237 0.93481 0.89946 0.0
C1199 C 0.84851 0.97686 0.89894 0.0
H1200 H 0.31951 0.17073 0.30544 0.0
H1201 H 0.44651 0.18496 0.31737 0.0
H1202 H 0.45565 0.18448 0.26571 0.0
H1203 H 0.42238 0.16929 0.21717 0.0
H1204 H 0.29189 0.14748 0.20752 0.0
H1205 H 0.28911 0.16155 0.25781 0.0
C1206 C 0.34964 0.17478 0.29667 0.0
C1207 C 0.38215 0.17756 0.31515 0.0
C1208 C 0.35373 0.17258 0.26715 0.0
C1209 C 0.42108 0.18294 0.30357 0.0
C1210 C 0.42605 0.18217 0.27401 0.0
C1211 C 0.39389 0.16871 0.22608 0.0
C1212 C 0.35746 0.1577 0.2086 0.0
C1213 C 0.39192 0.17544 0.25555 0.0
C1214 C 0.32031 0.156 0.22052 0.0
C1215 C 0.31869 0.16406 0.24929 0.0
H1216 H 0.78284 0.60797 0.29472 0.0
H1217 H 0.89386 0.73737 0.30276 0.0
H1218 H 0.90466 0.74186 0.25169 0.0
H1219 H 0.87588 0.71406 0.20428 0.0
H1220 H 0.76697 0.58408 0.19478 0.0
H1221 H 0.76257 0.57428 0.24645 0.0
C1222 C 0.81031 0.63635 0.28533 0.0
C1223 C 0.83726 0.67245 0.30255 0.0
C1224 C 0.81633 0.63894 0.25553 0.0
C1225 C 0.87246 0.70926 0.28998 0.0
C1226 C 0.87856 0.71202 0.2607 0.0
C1227 C 0.85188 0.68323 0.21355 0.0
C1228 C 0.82139 0.65012 0.19586 0.0
C1229 C 0.84963 0.67789 0.24318 0.0
C1230 C 0.79083 0.61006 0.20802 0.0
C1231 C 0.7881 0.60459 0.2376 0.0
H1232 H 0.86873 0.27033 0.20232 0.0
H1233 H 0.84236 0.13786 0.19798 0.0
H1234 H 0.83978 0.13284 0.24966 0.0
H1235 H 0.85478 0.16912 0.29579 0.0
H1236 H 0.88193 0.30167 0.30141 0.0
H1237 H 0.87484 0.30413 0.24964 0.0
C1238 C 0.86072 0.23994 0.21279 0.0
C1239 C 0.85489 0.20416 0.19649 0.0
C1240 C 0.86052 0.23776 0.2427 0.0
C1241 C 0.84605 0.1654 0.21018 0.0
C1242 C 0.84511 0.16272 0.23971 0.0
C1243 C 0.8581 0.19818 0.28568 0.0
C1244 C 0.86879 0.23516 0.30219 0.0
C1245 C 0.85375 0.19911 0.25614 0.0
C1246 C 0.87335 0.27275 0.28901 0.0
C1247 C 0.86948 0.27416 0.25945 0.0
H1248 H 0.18042 0.31981 0.70638 0.0
H1249 H 0.16826 0.43364 0.69368 0.0
H1250 H 0.16937 0.4442 0.74527 0.0
H1251 H 0.16542 0.41543 0.79423 0.0
H1252 H 0.17692 0.30084 0.80552 0.0
H1253 H 0.18546 0.29662 0.75448 0.0
C1254 C 0.17902 0.3475 0.71495 0.0
C1255 C 0.1742 0.3759 0.6964 0.0
C1256 C 0.17965 0.35318 0.74446 0.0
C1257 C 0.17228 0.41157 0.70764 0.0
C1258 C 0.17265 0.4174 0.73712 0.0
C1259 C 0.17141 0.39061 0.78548 0.0
C1260 C 0.1712 0.35881 0.80357 0.0
C1261 C 0.17534 0.3878 0.75581 0.0
C1262 C 0.1776 0.32594 0.79198 0.0
C1263 C 0.1821 0.3233 0.76279 0.0
H1264 H 0.2619 0.84364 0.80794 0.0
H1265 H 0.14926 0.85831 0.82011 0.0
H1266 H 0.14002 0.85986 0.76908 0.0
H1267 H 0.16964 0.86746 0.72125 0.0
H1268 H 0.28218 0.85339 0.70765 0.0
H1269 H 0.28586 0.84116 0.7586 0.0
C1270 C 0.23439 0.84535 0.79932 0.0
C1271 C 0.20644 0.85105 0.81778 0.0
C1272 C 0.22991 0.8475 0.76963 0.0
C1273 C 0.1713 0.85404 0.80632 0.0
C1274 C 0.16622 0.85539 0.77711 0.0
C1275 C 0.19484 0.86151 0.72947 0.0
C1276 C 0.22616 0.86227 0.71092 0.0
C1277 C 0.19643 0.85413 0.75862 0.0
C1278 C 0.25792 0.85332 0.72165 0.0
C1279 C 0.25996 0.84625 0.75076 0.0
H1280 H 0.60957 0.76678 0.70347 0.0
H1281 H 0.71889 0.89743 0.69785 0.0
H1282 H 0.72397 0.90244 0.74937 0.0
H1283 H 0.70615 0.86513 0.79541 0.0
H1284 H 0.59817 0.73417 0.80223 0.0
H1285 H 0.58362 0.73349 0.75119 0.0
C1286 C 0.63301 0.79698 0.71364 0.0
C1287 C 0.66355 0.83189 0.6969 0.0
C1288 C 0.63665 0.79914 0.74356 0.0
C1289 C 0.69475 0.87038 0.71031 0.0
C1290 C 0.69801 0.87309 0.7398 0.0
C1291 C 0.67879 0.8369 0.78576 0.0
C1292 C 0.65341 0.79966 0.80232 0.0
C1293 C 0.67056 0.83699 0.75657 0.0
C1294 C 0.61805 0.76319 0.78977 0.0
C1295 C 0.60976 0.76285 0.76061 0.0
H1296 H 0.33954 0.98968 0.96921 0.0
H1297 H 0.20377 0.91011 0.99056 0.0
H1298 H 0.21342 0.95742 0.03087 0.0
H1299 H 0.2585 0.02533 0.05707 0.0
H1300 H 0.39461 0.10605 0.03638 0.0
H1301 H 0.38615 0.05645 0.99745 0.0
C1302 C 0.31229 0.9824 0.98298 0.0
C1303 C 0.2711 0.94569 0.97713 0.0
C1304 C 0.31782 1.011 0.00555 0.0
C1305 C 0.2361 0.93684 0.99516 0.0
C1306 C 0.24144 0.96461 0.01785 0.0
C1307 C 0.28672 0.03171 0.04459 0.0
C1308 C 0.32743 0.0692 0.05019 0.0
C1309 C 0.28187 1.00232 0.02285 0.0
C1310 C 0.36289 0.07771 0.03263 0.0
C1311 C 0.35815 0.04899 0.01056 0.0
H1312 H 0.77343 0.68634 0.48805 0.0
H1313 H 0.74377 0.76025 0.42803 0.0
H1314 H 0.71072 0.78092 0.46492 0.0
H1315 H 0.69375 0.78295 0.51499 0.0
H1316 H 0.7376 0.72329 0.57649 0.0
H1317 H 0.76093 0.69281 0.539 0.0
C1318 C 0.76016 0.70711 0.48291 0.0
C1319 C 0.76164 0.72125 0.45479 0.0
C1320 C 0.74312 0.72168 0.50487 0.0
C1321 C 0.74363 0.74838 0.44922 0.0
C1322 C 0.72438 0.76046 0.47042 0.0
C1323 C 0.70774 0.76284 0.52027 0.0
C1324 C 0.71225 0.75456 0.54883 0.0
C1325 C 0.7244 0.74791 0.49846 0.0
C1326 C 0.73213 0.72941 0.55488 0.0
C1327 C 0.7461 0.71213 0.5333 0.0
H1328 H 0.04797 0.35018 0.96276 0.0
H1329 H 0.08758 0.25335 0.96577 0.0
H1330 H 0.03849 0.21734 0.00559 0.0
H1331 H 0.98117 0.21054 0.03785 0.0
H1332 H 0.93977 0.30601 0.03544 0.0
H1333 H 0.99086 0.34416 0.99646 0.0
C1334 C 0.04681 0.32208 0.97285 0.0
C1335 C 0.07239 0.30519 0.96191 0.0
C1336 C 1.01688 0.3003 0.99515 0.0
C1337 C 0.06918 0.26764 0.97435 0.0
C1338 C 0.04051 0.24658 0.99679 0.0
C1339 C 0.9832 0.23962 0.0287 0.0
C1340 C 0.95684 0.25551 0.03967 0.0
C1341 C 1.01349 0.26198 0.00693 0.0
C1342 C 0.95952 0.29295 0.02735 0.0
C1343 C 0.98923 0.31513 0.00533 0.0
H1344 H 0.29275 0.01258 0.45492 0.0
H1345 H 0.38367 0.13029 0.49903 0.0
H1346 H 0.36953 0.08841 0.54303 0.0
H1347 H 0.32912 0.01901 0.56929 0.0
H1348 H 0.2387 0.90184 0.52478 0.0
H1349 H 0.25617 0.9429 0.48036 0.0
C1350 C 0.30986 0.02948 0.47401 0.0
C1351 C 0.3393 0.07509 0.47335 0.0
C1352 C 0.3018 1.00512 0.4992 0.0
C1353 C 0.36078 0.0956 0.49864 0.0
C1354 C 0.35268 0.07154 0.52387 0.0
C1355 C 0.31315 1.00227 0.54992 0.0
C1356 C 0.28192 0.95716 0.55072 0.0
C1357 C 0.32294 0.02637 0.52445 0.0
C1358 C 0.2627 0.9362 0.52508 0.0
C1359 C 0.27247 0.95988 0.49963 0.0
H1360 H 0.69345 0.66321 0.04332 0.0
H1361 H 0.82947 0.72551 0.02113 0.0
H1362 H 0.81616 0.75843 0.97962 0.0
H1363 H 0.76745 0.77348 0.95147 0.0
H1364 H 0.63111 0.71352 0.97288 0.0
H1365 H 0.64312 0.67705 0.01347 0.0
C1366 C 0.71987 0.68325 0.02898 0.0
C1367 C 0.76229 0.6909 0.03489 0.0
C1368 C 0.71207 0.70333 0.00544 0.0
C1369 C 0.79636 0.71758 0.01645 0.0
C1370 C 0.78883 0.73704 0.99294 0.0
C1371 C 0.74001 0.75218 0.96471 0.0
C1372 C 0.69825 0.74635 0.95884 0.0
C1373 C 0.74705 0.73076 0.98752 0.0
C1374 C 0.66361 0.71902 0.97685 0.0
C1375 C 0.67045 0.69781 0.99994 0.0
H1376 H 1.01296 0.30374 0.55824 0.0
H1377 H 0.13529 0.36883 0.51308 0.0
H1378 H 0.09586 0.35428 0.46827 0.0
H1379 H 0.02706 0.32013 0.44175 0.0
H1380 H 0.90448 0.255 0.48644 0.0
H1381 H 0.9438 0.27349 0.53167 0.0
C1382 C 0.0313 0.31518 0.53874 0.0
C1383 C 0.07754 0.33707 0.53942 0.0
C1384 C 1.00827 0.30672 0.51288 0.0
C1385 C 0.10006 0.35159 0.51357 0.0
C1386 C 0.0774 0.3433 0.48781 0.0
C1387 C 1.00865 0.30991 0.46127 0.0
C1388 C 0.96252 0.28541 0.46033 0.0
C1389 C 0.03155 0.32036 0.48719 0.0
C1390 C 0.93975 0.27357 0.4862 0.0
C1391 C 0.96234 0.28402 0.51215 0.0
H1392 H 0.599 0.1561 0.0789 0.0
H1393 H 0.58823 0.08389 0.1548 0.0
H1394 H 0.51794 0.07853 0.16586 0.0
H1395 H 0.45752 0.09184 0.1525 0.0
H1396 H 0.46767 0.15929 0.07404 0.0
H1397 H 0.53941 0.16891 0.06554 0.0
C1398 C 0.58169 0.14019 0.09821 0.0
C1399 C 0.59913 0.12138 0.11637 0.0
C1400 C 0.54066 0.13586 0.10382 0.0
C1401 C 0.57574 0.09943 0.14083 0.0
C1402 C 0.53537 0.09599 0.14699 0.0
C1403 C 0.47545 0.10857 0.13357 0.0
C1404 C 0.4573 0.1257 0.11436 0.0
C1405 C 0.51705 0.11349 0.12838 0.0
C1406 C 0.48102 0.14685 0.08974 0.0
C1407 C 0.52219 0.15224 0.08467 0.0
H1408 H 0.71441 0.55207 0.40964 0.0
H1409 H 0.65802 0.60001 0.34824 0.0
H1410 H 0.58806 0.53239 0.35232 0.0
H1411 H 0.54147 0.4614 0.37586 0.0
H1412 H 0.59881 0.41266 0.43592 0.0
H1413 H 0.66997 0.47828 0.42935 0.0
C1414 C 0.68689 0.54773 0.39701 0.0
C1415 C 0.69132 0.58178 0.37919 0.0
C1416 C 0.6469 0.50839 0.39915 0.0
C1417 C 0.65552 0.57493 0.3625 0.0
C1418 C 0.61543 0.53612 0.36481 0.0
C1419 C 0.56967 0.46499 0.3873 0.0
C1420 C 0.56468 0.43223 0.40656 0.0
C1421 C 0.61052 0.50294 0.38346 0.0
C1422 C 0.60169 0.43712 0.42089 0.0
C1423 C 0.64234 0.47485 0.41731 0.0
H1424 H 0.88467 0.33265 0.07244 0.0
H1425 H 0.90195 0.33217 0.16291 0.0
H1426 H 0.87989 0.38713 0.16857 0.0
H1427 H 0.84902 0.43028 0.14807 0.0
H1428 H 0.83304 0.43154 0.05751 0.0
H1429 H 0.86153 0.38169 0.05155 0.0
C1430 C 0.88407 0.34495 0.09338 0.0
C1431 C 0.89464 0.32804 0.11726 0.0
C1432 C 0.87126 0.3765 0.09644 0.0
C1433 C 0.89427 0.34474 0.14418 0.0
C1434 C 0.88129 0.37595 0.14743 0.0
C1435 C 0.85222 0.41994 0.12701 0.0
C1436 C 0.8385 0.43427 0.10325 0.0
C1437 C 0.86871 0.39129 0.12378 0.0
C1438 C 0.84344 0.42112 0.0761 0.0
C1439 C 0.85948 0.39239 0.07271 0.0
H1440 H 0.45772 0.08001 0.38331 0.0
H1441 H 0.50046 0.21056 0.41218 0.0
H1442 H 0.57384 0.22308 0.41953 0.0
H1443 H 0.62441 0.19485 0.42263 0.0
H1444 H 0.58126 0.06256 0.39742 0.0
H1445 H 0.50997 0.05262 0.38393 0.0
C1446 C 0.48312 0.11113 0.39092 0.0
C1447 C 0.47318 0.14387 0.39757 0.0
C1448 C 0.52533 0.11771 0.39609 0.0
C1449 C 0.50689 0.18444 0.40725 0.0
C1450 C 0.54901 0.19171 0.4115 0.0
C1451 C 0.59966 0.16412 0.4137 0.0
C1452 C 0.60811 0.12952 0.41112 0.0
C1453 C 0.55838 0.15825 0.40675 0.0
C1454 C 0.57544 0.08965 0.39984 0.0
C1455 C 0.53466 0.08394 0.39211 0.0
H1456 H 0.56145 0.42769 0.08543 0.0
H1457 H 0.61286 0.38238 0.15177 0.0
H1458 H 0.66743 0.45749 0.16337 0.0
H1459 H 0.706 0.53502 0.15108 0.0
H1460 H 0.65804 0.58179 0.08355 0.0
H1461 H 0.59653 0.5077 0.07617 0.0
C1462 C 0.58421 0.43453 0.1027 0.0
C1463 C 0.58326 0.39965 0.11777 0.0
C1464 C 0.61654 0.47801 0.10871 0.0
C1465 C 0.61309 0.40874 0.13993 0.0
C1466 C 0.64443 0.45163 0.14644 0.0
C1467 C 0.68191 0.52901 0.13483 0.0
C1468 C 0.68713 0.56353 0.11739 0.0
C1469 C 0.64735 0.48637 0.13041 0.0
C1470 C 0.65498 0.55562 0.09705 0.0
C1471 C 0.61997 0.51319 0.09273 0.0
H1472 H 0.91521 0.47857 0.43039 0.0
H1473 H 0.8139 0.44061 0.36778 0.0
H1474 H 0.8319 0.38754 0.34809 0.0
H1475 H 0.86856 0.3443 0.35377 0.0
H1476 H 0.97074 0.38256 0.41578 0.0
H1477 H 0.96122 0.44383 0.43025 0.0
C1478 C 0.89801 0.45951 0.4119 0.0
C1479 C 0.86312 0.4633 0.40057 0.0
C1480 C 0.90849 0.42891 0.40081 0.0
C1481 C 0.841 0.43847 0.37669 0.0
C1482 C 0.85107 0.40787 0.36562 0.0
C1483 C 0.88958 0.36686 0.36991 0.0
C1484 C 0.92007 0.35878 0.38389 0.0
C1485 C 0.88359 0.40168 0.37821 0.0
C1486 C 0.94727 0.38826 0.40462 0.0
C1487 C 0.94144 0.42299 0.41309 0.0
H1488 H 0.17253 0.60301 0.65424 0.0
H1489 H 0.21545 0.63017 0.56738 0.0
H1490 H 0.18817 0.55248 0.55907 0.0
H1491 H 0.15876 0.47815 0.57783 0.0
H1492 H 0.11309 0.44979 0.66415 0.0
H1493 H 0.13376 0.52632 0.67124 0.0
C1494 C 0.17521 0.59168 0.63339 0.0
C1495 C 0.19622 0.62226 0.61145 0.0
C1496 C 0.15898 0.54682 0.62873 0.0
C1497 C 0.19929 0.60726 0.58451 0.0
C1498 C 0.18387 0.56288 0.57982 0.0
C1499 C 0.15249 0.48854 0.59804 0.0
C1500 C 0.13477 0.45836 0.62053 0.0
C1501 C 0.16454 0.53254 0.60193 0.0
C1502 C 0.12652 0.47224 0.64649 0.0
C1503 C 0.13875 0.51613 0.65061 0.0
H1504 H 0.39454 0.95426 0.8894 0.0
H1505 H 0.31165 0.81674 0.90617 0.0
H1506 H 0.37481 0.80832 0.91187 0.0
H1507 H 0.45384 0.83998 0.91587 0.0
H1508 H 0.53814 0.97672 0.89856 0.0
H1509 H 0.47472 0.98497 0.88885 0.0
C1510 C 0.3902 0.92245 0.89394 0.0
C1511 C 0.34779 0.88661 0.8975 0.0
C1512 C 0.4272 0.9174 0.8972 0.0
C1513 C 0.34341 0.84545 0.90342 0.0
C1514 C 0.37974 0.84032 0.90672 0.0
C1515 C 0.45845 0.87141 0.90942 0.0
C1516 C 0.5008 0.90769 0.90834 0.0
C1517 C 0.42181 0.8761 0.90413 0.0
C1518 C 0.50591 0.94829 0.90009 0.0
C1519 C 0.4696 0.95307 0.89452 0.0
H1520 H 0.56038 0.68842 0.57821 0.0
H1521 H 0.57286 0.69274 0.66927 0.0
H1522 H 0.49535 0.63803 0.67371 0.0
H1523 H 0.42249 0.59345 0.65149 0.0
H1524 H 0.41172 0.58701 0.5604 0.0
H1525 H 0.49009 0.63803 0.5561 0.0
C1526 C 0.54625 0.67709 0.59905 0.0
C1527 C 0.57217 0.69513 0.62341 0.0
C1528 C 0.50188 0.6455 0.60138 0.0
C1529 C 0.55359 0.6795 0.65021 0.0
C1530 C 0.50921 0.6484 0.65274 0.0
C1531 C 0.43755 0.60298 0.63075 0.0
C1532 C 0.41143 0.58688 0.60625 0.0
C1533 C 0.4828 0.63191 0.62848 0.0
C1534 C 0.43122 0.59897 0.57949 0.0
C1535 C 0.47595 0.62824 0.57705 0.0
H1536 H 0.09965 0.56035 0.92662 0.0
H1537 H 0.23421 0.6329 0.90102 0.0
H1538 H 0.22919 0.56645 0.88137 0.0
H1539 H 0.18906 0.4858 0.87769 0.0
H1540 H 0.0543 0.41363 0.90284 0.0
H1541 H 0.05628 0.48143 0.91595 0.0
C1542 C 0.12739 0.56174 0.91589 0.0
C1543 C 0.16721 0.60147 0.91511 0.0
C1544 C 0.12423 0.52327 0.90482 0.0
C1545 C 0.20313 0.60285 0.90152 0.0
C1546 C 0.20034 0.56474 0.89056 0.0
C1547 C 0.15988 0.48521 0.8853 0.0
C1548 C 0.12137 0.44486 0.88898 0.0
C1549 C 0.16148 0.5245 0.89298 0.0
C1550 C 0.0839 0.44428 0.89919 0.0
C1551 C 0.08525 0.48309 0.90701 0.0
H1552 H 0.33989 0.85816 0.65324 0.0
H1553 H 0.36905 0.96064 0.59284 0.0
H1554 H 0.42936 0.95314 0.57399 0.0
H1555 H 0.46791 0.91123 0.57082 0.0
H1556 H 0.43901 0.80878 0.63108 0.0
H1557 H 0.38454 0.82223 0.65381 0.0
C1558 C 0.35965 0.879 0.63605 0.0
C1559 C 0.34943 0.90936 0.62408 0.0
C1560 C 0.39415 0.87425 0.62519 0.0
C1561 C 0.37614 0.93703 0.60242 0.0
C1562 C 0.41046 0.93251 0.5915 0.0
C1563 C 0.45035 0.89257 0.58936 0.0
C1564 C 0.45743 0.85899 0.59926 0.0
C1565 C 0.41895 0.90039 0.60216 0.0
C1566 C 0.43448 0.83502 0.62325 0.0
C1567 C 0.40306 0.84249 0.63607 0.0
H1568 H 0.53957 0.6952 0.89782 0.0
H1569 H 0.61252 0.63736 0.86445 0.0
H1570 H 0.54661 0.56552 0.86565 0.0
H1571 H 0.4687 0.51885 0.87761 0.0
H1572 H 0.39755 0.57749 0.91279 0.0
H1573 H 0.46208 0.64942 0.90832 0.0
C1574 C 0.5414 0.66709 0.89066 0.0
C1575 C 0.58159 0.67207 0.88133 0.0
C1576 C 0.50338 0.62589 0.89142 0.0
C1577 C 0.58254 0.63482 0.87207 0.0
C1578 C 0.54467 0.59363 0.87265 0.0
C1579 C 0.46718 0.54727 0.88443 0.0
C1580 C 0.42788 0.54224 0.89574 0.0
C1581 C 0.50499 0.58872 0.88257 0.0
C1582 C 0.42673 0.57991 0.9037 0.0
C1583 C 0.46393 0.6212 0.90145 0.0
loop_
_geom_bond_atom_site_label_1
_geom_bond_atom_site_label_2
_geom_bond_distance
_geom_bond_site_symmetry_2
_ccdc_geom_bond_type
Eu0 N29 2.600 . S
Eu0 N35 2.562 . S
Eu0 O44 2.462 . S
Eu0 O45 2.373 . S
Eu0 O47 2.432 . S
Eu0 O48 2.291 . S
Eu0 O52 2.335 . S
Eu0 O55 2.372 . S
Eu0 C64 2.787 . S
C1 N2 1.365 . S
C1 C4 1.405 . S
C1 C8 1.448 . S
N2 C1 1.365 . S
N2 C5 1.319 . S
N2 Eu11 2.600 . S
C3 C5 1.397 1_556 S
C3 C6 1.366 1_556 S
C3 H23 0.931 . S
C4 C1 1.405 . S
C4 C6 1.407 . S
C4 C10 1.439 . S
C5 N2 1.319 . S
C5 C3 1.397 1_554 S
C5 H16 0.930 . S
C6 C3 1.366 1_554 S
C6 C4 1.407 . S
C6 H27 0.926 1_554 S
C7 C8 1.430 . S
C7 C9 1.387 . S
C7 C13 1.404 . S
C8 C1 1.448 . S
C8 C7 1.430 . S
C8 N12 1.351 . S
C9 C7 1.387 . S
C9 C10 1.374 . S
C9 H24 0.931 . S
C10 C4 1.439 . S
C10 C9 1.374 . S
C10 H25 0.931 . S
Eu11 N2 2.600 . S
Eu11 N12 2.562 . S
Eu11 O46 2.335 . S
Eu11 O49 2.372 . S
Eu11 O50 2.462 . S
Eu11 O51 2.373 . S
Eu11 O53 2.432 . S
Eu11 O54 2.291 . S
Eu11 C75 2.787 . S
N12 C8 1.351 . S
N12 Eu11 2.562 . S
N12 C14 1.325 . S
C13 C7 1.404 . S
C13 C15 1.366 . S
C13 H21 0.930 . S
C14 N12 1.325 . S
C14 C15 1.416 . S
C14 H20 0.929 . S
C15 C13 1.366 . S
C15 C14 1.416 . S
C15 H17 0.930 . S
H16 C5 0.930 . S
H17 C15 0.930 . S
H18 C33 0.930 . S
H19 C40 0.930 . S
H20 C14 0.929 . S
H21 C13 0.930 . S
H22 C36 0.929 . S
H23 C3 0.931 . S
H24 C9 0.931 . S
H25 C10 0.931 . S
H26 C31 0.931 . S
H27 C6 0.926 1_556 S
H28 C39 0.930 . S
N29 Eu0 2.600 . S
N29 C30 1.365 . S
N29 C33 1.319 . S
C30 N29 1.365 . S
C30 C32 1.405 . S
C30 C38 1.448 . S
C31 H26 0.931 . S
C31 C33 1.397 . S
C31 C34 1.367 . S
C32 C30 1.405 . S
C32 C34 1.403 . S
C32 C65 1.439 1_545 S
C33 H18 0.930 . S
C33 N29 1.319 . S
C33 C31 1.397 . S
C34 C31 1.367 . S
C34 C32 1.403 . S
C34 H41 0.929 . S
N35 Eu0 2.562 . S
N35 C36 1.325 . S
N35 C38 1.351 . S
C36 H22 0.929 . S
C36 N35 1.325 . S
C36 C40 1.416 1_545 S
C37 C38 1.430 1_565 S
C37 C39 1.404 . S
C37 C66 1.387 . S
C38 C30 1.448 . S
C38 N35 1.351 . S
C38 C37 1.430 1_545 S
C39 H28 0.930 . S
C39 C37 1.404 . S
C39 C40 1.366 . S
C40 H19 0.930 . S
C40 C36 1.416 1_565 S
C40 C39 1.366 . S
H41 C34 0.929 . S
H42 C65 0.931 . S
H43 C66 0.931 . S
O44 Eu0 2.462 . S
O44 C64 1.252 . S
O45 Eu0 2.373 . S
O45 C56 1.249 . S
O46 Eu11 2.335 . S
O46 C56 1.264 . S
O47 Eu0 2.432 . S
O47 C64 1.268 . S
O48 Eu0 2.291 . S
O48 C63 1.255 . S
O49 Eu11 2.372 . S
O49 C63 1.257 . S
O50 Eu11 2.462 . S
O50 C75 1.252 . S
O51 Eu11 2.373 . S
O51 C67 1.249 . S
O52 Eu0 2.335 . S
O52 C67 1.264 . S
O53 Eu11 2.432 . S
O53 C75 1.268 . S
O54 Eu11 2.291 . S
O54 C74 1.255 . S
O55 Eu0 2.372 . S
O55 C74 1.257 . S
C56 O45 1.249 . S
C56 O46 1.264 . S
C57 C60 1.382 . S
C57 C62 1.390 . S
C57 C64 1.506 1_565 S
C58 C59 1.398 . S
C58 C62 1.392 . S
C59 C58 1.398 . S
C59 C61 1.372 . S
C59 H76 0.931 . S
C60 C57 1.382 . S
C60 C61 1.390 . S
C60 H77 0.931 . S
C61 C59 1.372 . S
C61 C60 1.390 . S
C61 H78 0.929 . S
C62 C57 1.390 . S
C62 C58 1.392 . S
C62 H79 0.930 . S
C63 O48 1.255 . S
C63 O49 1.257 . S
C64 Eu0 2.787 . S
C64 O44 1.252 . S
C64 O47 1.268 . S
C64 C57 1.506 1_545 S
C65 C32 1.439 1_565 S
C65 H42 0.931 . S
C65 C66 1.374 . S
C66 C37 1.387 . S
C66 H43 0.931 . S
C66 C65 1.374 . S
C67 O51 1.249 . S
C67 O52 1.264 . S
C68 C71 1.382 . S
C68 C72 1.390 . S
C68 C75 1.506 . S
C69 C70 1.398 . S
C69 C72 1.392 . S
C70 C69 1.398 . S
C70 C73 1.372 . S
C70 H80 0.931 . S
C71 C68 1.382 . S
C71 C73 1.390 . S
C71 H81 0.931 . S
C72 C68 1.390 . S
C72 C69 1.392 . S
C72 H82 0.930 . S
C73 C70 1.372 . S
C73 C71 1.390 . S
C73 H83 0.929 . S
C74 O54 1.255 . S
C74 O55 1.257 . S
C75 Eu11 2.787 . S
C75 O50 1.252 . S
C75 O53 1.268 . S
C75 C68 1.506 . S
H76 C59 0.931 . S
H77 C60 0.931 . S
H78 C61 0.929 . S
H79 C62 0.930 . S
H80 C70 0.931 . S
H81 C71 0.931 . S
H82 C72 0.930 . S
H83 C73 0.929 . S
Eu84 N113 2.600 . S
Eu84 N119 2.562 . S
Eu84 O128 2.462 . S
Eu84 O129 2.373 . S
Eu84 O131 2.432 . S
Eu84 O132 2.291 . S
Eu84 O136 2.335 . S
Eu84 O139 2.372 . S
Eu84 C148 2.787 . S
C85 N86 1.365 . S
C85 C88 1.405 . S
C85 C92 1.448 . S
N86 C85 1.365 . S
N86 C89 1.319 . S
N86 Eu95 2.600 . S
C87 C89 1.397 . S
C87 C90 1.367 . S
C87 H107 0.931 . S
C88 C85 1.405 . S
C88 C90 1.403 . S
C88 C94 1.439 . S
C89 N86 1.319 . S
C89 C87 1.397 . S
C89 H100 0.930 . S
C90 C87 1.367 . S
C90 C88 1.403 . S
C90 H111 0.929 . S
C91 C92 1.430 . S
C91 C93 1.387 . S
C91 C97 1.404 . S
C92 C85 1.448 . S
C92 C91 1.430 . S
C92 N96 1.351 . S
C93 C91 1.387 . S
C93 C94 1.374 . S
C93 H108 0.931 . S
C94 C88 1.439 . S
C94 C93 1.374 . S
C94 H109 0.931 . S
Eu95 N86 2.600 . S
Eu95 N96 2.562 . S
Eu95 O130 2.335 . S
Eu95 O133 2.372 . S
Eu95 O134 2.462 . S
Eu95 O135 2.373 . S
Eu95 O137 2.432 . S
Eu95 O138 2.291 . S
Eu95 C159 2.787 . S
N96 C92 1.351 . S
N96 Eu95 2.562 . S
N96 C98 1.325 . S
C97 C91 1.404 . S
C97 C99 1.366 . S
C97 H105 0.930 . S
C98 N96 1.325 . S
C98 C99 1.416 . S
C98 H104 0.929 . S
C99 C97 1.366 . S
C99 C98 1.416 . S
C99 H101 0.930 . S
H100 C89 0.930 . S
H101 C99 0.930 . S
H102 C117 0.930 . S
H103 C124 0.930 . S
H104 C98 0.929 . S
H105 C97 0.930 . S
H106 C120 0.929 . S
H107 C87 0.931 . S
H108 C93 0.931 . S
H109 C94 0.931 . S
H110 C115 0.931 . S
H111 C90 0.929 . S
H112 C123 0.930 . S
N113 Eu84 2.600 . S
N113 C114 1.365 . S
N113 C117 1.319 . S
C114 N113 1.365 . S
C114 C116 1.405 . S
C114 C122 1.448 . S
C115 H110 0.931 . S
C115 C117 1.397 . S
C115 C118 1.367 . S
C116 C114 1.405 . S
C116 C118 1.403 . S
C116 C149 1.439 1_655 S
C117 H102 0.930 . S
C117 N113 1.319 . S
C117 C115 1.397 . S
C118 C115 1.367 . S
C118 C116 1.403 . S
C118 H125 0.929 . S
N119 Eu84 2.562 . S
N119 C120 1.325 . S
N119 C122 1.351 . S
C120 H106 0.929 . S
C120 N119 1.325 . S
C120 C124 1.416 . S
C121 C122 1.430 1_455 S
C121 C123 1.404 . S
C121 C150 1.387 . S
C122 C114 1.448 . S
C122 N119 1.351 . S
C122 C121 1.430 1_655 S
C123 H112 0.930 . S
C123 C121 1.404 . S
C123 C124 1.366 1_455 S
C124 H103 0.930 . S
C124 C120 1.416 . S
C124 C123 1.366 1_655 S
H125 C118 0.929 . S
H126 C149 0.931 . S
H127 C150 0.931 . S
O128 Eu84 2.462 . S
O128 C148 1.252 . S
O129 Eu84 2.373 . S
O129 C140 1.249 . S
O130 Eu95 2.335 . S
O130 C140 1.264 . S
O131 Eu84 2.432 . S
O131 C148 1.268 . S
O132 Eu84 2.291 . S
O132 C147 1.255 . S
O133 Eu95 2.372 . S
O133 C147 1.257 . S
O134 Eu95 2.462 . S
O134 C159 1.252 . S
O135 Eu95 2.373 . S
O135 C151 1.249 . S
O136 Eu84 2.335 . S
O136 C151 1.264 . S
O137 Eu95 2.432 . S
O137 C159 1.268 . S
O138 Eu95 2.291 . S
O138 C158 1.255 . S
O139 Eu84 2.372 . S
O139 C158 1.257 . S
C140 O129 1.249 . S
C140 O130 1.264 . S
C141 C144 1.382 . S
C141 C146 1.390 . S
C141 C148 1.506 . S
C142 C143 1.398 . S
C142 C146 1.392 . S
C143 C142 1.398 . S
C143 C145 1.372 . S
C143 H160 0.931 . S
C144 C141 1.382 . S
C144 C145 1.390 . S
C144 H161 0.931 . S
C145 C143 1.372 . S
C145 C144 1.390 . S
C145 H162 0.929 . S
C146 C141 1.390 . S
C146 C142 1.392 . S
C146 H163 0.930 . S
C147 O132 1.255 . S
C147 O133 1.257 . S
C148 Eu84 2.787 . S
C148 O128 1.252 . S
C148 O131 1.268 . S
C148 C141 1.506 . S
C149 C116 1.439 1_455 S
C149 H126 0.931 . S
C149 C150 1.374 . S
C150 C121 1.387 . S
C150 H127 0.931 . S
C150 C149 1.374 . S
C151 O135 1.249 . S
C151 O136 1.264 . S
C152 C155 1.382 . S
C152 C156 1.390 . S
C152 C159 1.506 . S
C153 C154 1.398 . S
C153 C156 1.392 . S
C154 C153 1.398 . S
C154 C157 1.372 . S
C154 H164 0.931 . S
C155 C152 1.382 . S
C155 C157 1.390 . S
C155 H165 0.931 . S
C156 C152 1.390 . S
C156 C153 1.392 . S
C156 H166 0.930 . S
C157 C154 1.372 . S
C157 C155 1.390 . S
C157 H167 0.929 . S
C158 O138 1.255 . S
C158 O139 1.257 . S
C159 Eu95 2.787 . S
C159 O134 1.252 . S
C159 O137 1.268 . S
C159 C152 1.506 . S
H160 C143 0.931 . S
H161 C144 0.931 . S
H162 C145 0.929 . S
H163 C146 0.930 . S
H164 C154 0.931 . S
H165 C155 0.931 . S
H166 C156 0.930 . S
H167 C157 0.929 . S
Eu168 N197 2.600 . S
Eu168 N203 2.562 . S
Eu168 O212 2.462 . S
Eu168 O213 2.373 . S
Eu168 O215 2.432 . S
Eu168 O216 2.291 . S
Eu168 O220 2.335 . S
Eu168 O223 2.372 . S
Eu168 C232 2.787 . S
C169 N170 1.365 . S
C169 C172 1.405 . S
C169 C176 1.448 . S
N170 C169 1.365 . S
N170 C173 1.319 . S
N170 Eu179 2.600 . S
C171 C173 1.397 1_556 S
C171 C174 1.366 1_556 S
C171 H191 0.931 . S
C172 C169 1.405 . S
C172 C174 1.407 . S
C172 C178 1.439 1_545 S
C173 N170 1.319 . S
C173 C171 1.397 1_554 S
C173 H184 0.930 . S
C174 C171 1.366 1_554 S
C174 C172 1.407 . S
C174 H195 0.926 1_554 S
C175 C176 1.430 1_565 S
C175 C177 1.387 . S
C175 C181 1.404 . S
C176 C169 1.448 . S
C176 C175 1.430 1_545 S
C176 N180 1.351 . S
C177 C175 1.387 . S
C177 C178 1.374 . S
C177 H192 0.931 . S
C178 C172 1.439 1_565 S
C178 C177 1.374 . S
C178 H193 0.931 . S
Eu179 N170 2.600 . S
Eu179 N180 2.562 . S
Eu179 O214 2.335 . S
Eu179 O217 2.372 . S
Eu179 O218 2.462 . S
Eu179 O219 2.373 . S
Eu179 O221 2.432 . S
Eu179 O222 2.291 . S
Eu179 C243 2.787 . S
N180 C176 1.351 . S
N180 Eu179 2.562 . S
N180 C182 1.325 . S
C181 C175 1.404 . S
C181 C183 1.366 1_565 S
C181 H189 0.930 . S
C182 N180 1.325 . S
C182 C183 1.416 . S
C182 H188 0.929 . S
C183 C181 1.366 1_545 S
C183 C182 1.416 . S
C183 H185 0.930 . S
H184 C173 0.930 . S
H185 C183 0.930 . S
H186 C201 0.930 . S
H187 C208 0.930 . S
H188 C182 0.929 . S
H189 C181 0.930 . S
H190 C204 0.929 . S
H191 C171 0.931 . S
H192 C177 0.931 . S
H193 C178 0.931 . S
H194 C199 0.931 . S
H195 C174 0.926 1_556 S
H196 C207 0.930 . S
N197 Eu168 2.600 . S
N197 C198 1.365 . S
N197 C201 1.319 . S
C198 N197 1.365 . S
C198 C200 1.405 . S
C198 C206 1.448 . S
C199 H194 0.931 . S
C199 C201 1.397 . S
C199 C202 1.367 . S
C200 C198 1.405 . S
C200 C202 1.403 . S
C200 C233 1.439 1_655 S
C201 H186 0.930 . S
C201 N197 1.319 . S
C201 C199 1.397 . S
C202 C199 1.367 . S
C202 C200 1.403 . S
C202 H209 0.929 . S
N203 Eu168 2.562 . S
N203 C204 1.325 . S
N203 C206 1.351 . S
C204 H190 0.929 . S
C204 N203 1.325 . S
C204 C208 1.416 1_655 S
C205 C206 1.430 1_455 S
C205 C207 1.404 . S
C205 C234 1.387 . S
C206 C198 1.448 . S
C206 N203 1.351 . S
C206 C205 1.430 1_655 S
C207 H196 0.930 . S
C207 C205 1.404 . S
C207 C208 1.366 . S
C208 H187 0.930 . S
C208 C204 1.416 1_455 S
C208 C207 1.366 . S
H209 C202 0.929 . S
H210 C233 0.931 . S
H211 C234 0.931 . S
O212 Eu168 2.462 . S
O212 C232 1.252 . S
O213 Eu168 2.373 . S
O213 C224 1.249 . S
O214 Eu179 2.335 . S
O214 C224 1.264 . S
O215 Eu168 2.432 . S
O215 C232 1.268 . S
O216 Eu168 2.291 . S
O216 C231 1.255 . S
O217 Eu179 2.372 . S
O217 C231 1.257 . S
O218 Eu179 2.462 . S
O218 C243 1.252 . S
O219 Eu179 2.373 . S
O219 C235 1.249 . S
O220 Eu168 2.335 . S
O220 C235 1.264 . S
O221 Eu179 2.432 . S
O221 C243 1.268 . S
O222 Eu179 2.291 . S
O222 C242 1.255 . S
O223 Eu168 2.372 . S
O223 C242 1.257 . S
C224 O213 1.249 . S
C224 O214 1.264 . S
C225 C228 1.382 . S
C225 C230 1.390 . S
C225 C232 1.506 1_455 S
C226 C227 1.398 . S
C226 C230 1.392 . S
C227 C226 1.398 . S
C227 C229 1.372 . S
C227 H244 0.931 . S
C228 C225 1.382 . S
C228 C229 1.390 . S
C228 H245 0.931 . S
C229 C227 1.372 . S
C229 C228 1.390 . S
C229 H246 0.929 . S
C230 C225 1.390 . S
C230 C226 1.392 . S
C230 H247 0.930 . S
C231 O216 1.255 . S
C231 O217 1.257 . S
C232 Eu168 2.787 . S
C232 O212 1.252 . S
C232 O215 1.268 . S
C232 C225 1.506 1_655 S
C233 C200 1.439 1_455 S
C233 H210 0.931 . S
C233 C234 1.374 . S
C234 C205 1.387 . S
C234 H211 0.931 . S
C234 C233 1.374 . S
C235 O219 1.249 . S
C235 O220 1.264 . S
C236 C239 1.382 . S
C236 C240 1.390 . S
C236 C243 1.506 . S
C237 C238 1.398 . S
C237 C240 1.392 . S
C238 C237 1.398 . S
C238 C241 1.372 . S
C238 H248 0.931 . S
C239 C236 1.382 . S
C239 C241 1.390 . S
C239 H249 0.931 . S
C240 C236 1.390 . S
C240 C237 1.392 . S
C240 H250 0.930 . S
C241 C238 1.372 . S
C241 C239 1.390 . S
C241 H251 0.929 . S
C242 O222 1.255 . S
C242 O223 1.257 . S
C243 Eu179 2.787 . S
C243 O218 1.252 . S
C243 O221 1.268 . S
C243 C236 1.506 . S
H244 C227 0.931 . S
H245 C228 0.931 . S
H246 C229 0.929 . S
H247 C230 0.930 . S
H248 C238 0.931 . S
H249 C239 0.931 . S
H250 C240 0.930 . S
H251 C241 0.929 . S
Eu252 N281 2.600 . S
Eu252 N287 2.562 . S
Eu252 O296 2.462 . S
Eu252 O297 2.373 . S
Eu252 O299 2.432 . S
Eu252 O300 2.291 . S
Eu252 O304 2.335 . S
Eu252 O307 2.372 . S
Eu252 C316 2.787 . S
C253 N254 1.365 . S
C253 C256 1.405 . S
C253 C260 1.448 . S
N254 C253 1.365 . S
N254 C257 1.319 . S
N254 Eu263 2.600 . S
C255 C257 1.397 . S
C255 C258 1.367 . S
C255 H275 0.931 . S
C256 C253 1.405 . S
C256 C258 1.403 . S
C256 C262 1.439 1_545 S
C257 N254 1.319 . S
C257 C255 1.397 . S
C257 H268 0.930 . S
C258 C255 1.367 . S
C258 C256 1.403 . S
C258 H279 0.929 . S
C259 C260 1.430 1_565 S
C259 C261 1.387 . S
C259 C265 1.404 . S
C260 C253 1.448 . S
C260 C259 1.430 1_545 S
C260 N264 1.351 . S
C261 C259 1.387 . S
C261 C262 1.374 . S
C261 H276 0.931 . S
C262 C256 1.439 1_565 S
C262 C261 1.374 . S
C262 H277 0.931 . S
Eu263 N254 2.600 . S
Eu263 N264 2.562 . S
Eu263 O298 2.335 . S
Eu263 O301 2.372 . S
Eu263 O302 2.462 . S
Eu263 O303 2.373 . S
Eu263 O305 2.432 . S
Eu263 O306 2.291 . S
Eu263 C327 2.787 . S
N264 C260 1.351 . S
N264 Eu263 2.562 . S
N264 C266 1.325 . S
C265 C259 1.404 . S
C265 C267 1.366 . S
C265 H273 0.930 . S
C266 N264 1.325 . S
C266 C267 1.416 1_545 S
C266 H272 0.929 . S
C267 C265 1.366 . S
C267 C266 1.416 1_565 S
C267 H269 0.930 . S
H268 C257 0.930 . S
H269 C267 0.930 . S
H270 C285 0.930 . S
H271 C292 0.930 . S
H272 C266 0.929 . S
H273 C265 0.930 . S
H274 C288 0.929 . S
H275 C255 0.931 . S
H276 C261 0.931 . S
H277 C262 0.931 . S
H278 C283 0.931 . S
H279 C258 0.929 . S
H280 C291 0.930 . S
N281 Eu252 2.600 . S
N281 C282 1.365 . S
N281 C285 1.319 . S
C282 N281 1.365 . S
C282 C284 1.405 . S
C282 C290 1.448 . S
C283 H278 0.931 . S
C283 C285 1.397 . S
C283 C286 1.367 . S
C284 C282 1.405 . S
C284 C286 1.403 . S
C284 C317 1.439 . S
C285 H270 0.930 . S
C285 N281 1.319 . S
C285 C283 1.397 . S
C286 C283 1.367 . S
C286 C284 1.403 . S
C286 H293 0.929 . S
N287 Eu252 2.562 . S
N287 C288 1.325 . S
N287 C290 1.351 . S
C288 H274 0.929 . S
C288 N287 1.325 . S
C288 C292 1.416 . S
C289 C290 1.430 . S
C289 C291 1.404 . S
C289 C318 1.387 . S
C290 C282 1.448 . S
C290 N287 1.351 . S
C290 C289 1.430 . S
C291 H280 0.930 . S
C291 C289 1.404 . S
C291 C292 1.366 . S
C292 H271 0.930 . S
C292 C288 1.416 . S
C292 C291 1.366 . S
H293 C286 0.929 . S
H294 C317 0.931 . S
H295 C318 0.931 . S
O296 Eu252 2.462 . S
O296 C316 1.252 . S
O297 Eu252 2.373 . S
O297 C308 1.249 . S
O298 Eu263 2.335 . S
O298 C308 1.264 . S
O299 Eu252 2.432 . S
O299 C316 1.268 . S
O300 Eu252 2.291 . S
O300 C315 1.255 . S
O301 Eu263 2.372 . S
O301 C315 1.257 . S
O302 Eu263 2.462 . S
O302 C327 1.252 . S
O303 Eu263 2.373 . S
O303 C319 1.249 . S
O304 Eu252 2.335 . S
O304 C319 1.264 . S
O305 Eu263 2.432 . S
O305 C327 1.268 . S
O306 Eu263 2.291 . S
O306 C326 1.255 . S
O307 Eu252 2.372 . S
O307 C326 1.257 . S
C308 O297 1.249 . S
C308 O298 1.264 . S
C309 C312 1.382 . S
C309 C314 1.390 . S
C309 C316 1.506 . S
C310 C311 1.398 . S
C310 C314 1.392 . S
C311 C310 1.398 . S
C311 C313 1.372 . S
C311 H328 0.931 . S
C312 C309 1.382 . S
C312 C313 1.390 . S
C312 H329 0.931 . S
C313 C311 1.372 . S
C313 C312 1.390 . S
C313 H330 0.929 . S
C314 C309 1.390 . S
C314 C310 1.392 . S
C314 H331 0.930 . S
C315 O300 1.255 . S
C315 O301 1.257 . S
C316 Eu252 2.787 . S
C316 O296 1.252 . S
C316 O299 1.268 . S
C316 C309 1.506 . S
C317 C284 1.439 . S
C317 H294 0.931 . S
C317 C318 1.374 . S
C318 C289 1.387 . S
C318 H295 0.931 . S
C318 C317 1.374 . S
C319 O303 1.249 . S
C319 O304 1.264 . S
C320 C323 1.382 . S
C320 C324 1.390 . S
C320 C327 1.506 1_565 S
C321 C322 1.398 . S
C321 C324 1.392 . S
C322 C321 1.398 . S
C322 C325 1.372 . S
C322 H332 0.931 . S
C323 C320 1.382 . S
C323 C325 1.390 . S
C323 H333 0.931 . S
C324 C320 1.390 . S
C324 C321 1.392 . S
C324 H334 0.930 . S
C325 C322 1.372 . S
C325 C323 1.390 . S
C325 H335 0.929 . S
C326 O306 1.255 . S
C326 O307 1.257 . S
C327 Eu263 2.787 . S
C327 O302 1.252 . S
C327 O305 1.268 . S
C327 C320 1.506 1_545 S
H328 C311 0.931 . S
H329 C312 0.931 . S
H330 C313 0.929 . S
H331 C314 0.930 . S
H332 C322 0.931 . S
H333 C323 0.931 . S
H334 C324 0.930 . S
H335 C325 0.929 . S
Eu336 N365 2.600 . S
Eu336 N371 2.562 . S
Eu336 O380 2.462 . S
Eu336 O381 2.373 . S
Eu336 O383 2.432 . S
Eu336 O384 2.291 . S
Eu336 O388 2.335 . S
Eu336 O391 2.372 . S
Eu336 C400 2.787 . S
C337 N338 1.365 . S
C337 C340 1.405 . S
C337 C344 1.448 . S
N338 C337 1.365 . S
N338 C341 1.319 . S
N338 Eu347 2.600 . S
C339 C341 1.397 1_556 S
C339 C342 1.366 1_556 S
C339 H359 0.931 . S
C340 C337 1.405 . S
C340 C342 1.407 . S
C340 C346 1.439 1_655 S
C341 N338 1.319 . S
C341 C339 1.397 1_554 S
C341 H352 0.930 . S
C342 C339 1.366 1_554 S
C342 C340 1.407 . S
C342 H363 0.926 1_554 S
C343 C344 1.430 1_455 S
C343 C345 1.387 . S
C343 C349 1.404 . S
C344 C337 1.448 . S
C344 C343 1.430 1_655 S
C344 N348 1.351 . S
C345 C343 1.387 . S
C345 C346 1.374 . S
C345 H360 0.931 . S
C346 C340 1.439 1_455 S
C346 C345 1.374 . S
C346 H361 0.931 . S
Eu347 N338 2.600 . S
Eu347 N348 2.562 . S
Eu347 O382 2.335 . S
Eu347 O385 2.372 . S
Eu347 O386 2.462 . S
Eu347 O387 2.373 . S
Eu347 O389 2.432 . S
Eu347 O390 2.291 . S
Eu347 C411 2.787 . S
N348 C344 1.351 . S
N348 Eu347 2.562 . S
N348 C350 1.325 . S
C349 C343 1.404 . S
C349 C351 1.366 1_455 S
C349 H357 0.930 . S
C350 N348 1.325 . S
C350 C351 1.416 . S
C350 H356 0.929 . S
C351 C349 1.366 1_655 S
C351 C350 1.416 . S
C351 H353 0.930 . S
H352 C341 0.930 . S
H353 C351 0.930 . S
H354 C369 0.930 . S
H355 C376 0.930 . S
H356 C350 0.929 . S
H357 C349 0.930 . S
H358 C372 0.929 . S
H359 C339 0.931 . S
H360 C345 0.931 . S
H361 C346 0.931 . S
H362 C367 0.931 . S
H363 C342 0.926 1_556 S
H364 C375 0.930 . S
N365 Eu336 2.600 . S
N365 C366 1.365 . S
N365 C369 1.319 . S
C366 N365 1.365 . S
C366 C368 1.405 . S
C366 C374 1.448 . S
C367 H362 0.931 . S
C367 C369 1.397 . S
C367 C370 1.367 . S
C368 C366 1.405 . S
C368 C370 1.403 . S
C368 C401 1.439 . S
C369 H354 0.930 . S
C369 N365 1.319 . S
C369 C367 1.397 . S
C370 C367 1.367 . S
C370 C368 1.403 . S
C370 H377 0.929 . S
N371 Eu336 2.562 . S
N371 C372 1.325 . S
N371 C374 1.351 . S
C372 H358 0.929 . S
C372 N371 1.325 . S
C372 C376 1.416 . S
C373 C374 1.430 . S
C373 C375 1.404 . S
C373 C402 1.387 . S
C374 C366 1.448 . S
C374 N371 1.351 . S
C374 C373 1.430 . S
C375 H364 0.930 . S
C375 C373 1.404 . S
C375 C376 1.366 . S
C376 H355 0.930 . S
C376 C372 1.416 . S
C376 C375 1.366 . S
H377 C370 0.929 . S
H378 C401 0.931 . S
H379 C402 0.931 . S
O380 Eu336 2.462 . S
O380 C400 1.252 . S
O381 Eu336 2.373 . S
O381 C392 1.249 . S
O382 Eu347 2.335 . S
O382 C392 1.264 . S
O383 Eu336 2.432 . S
O383 C400 1.268 . S
O384 Eu336 2.291 . S
O384 C399 1.255 . S
O385 Eu347 2.372 . S
O385 C399 1.257 . S
O386 Eu347 2.462 . S
O386 C411 1.252 . S
O387 Eu347 2.373 . S
O387 C403 1.249 . S
O388 Eu336 2.335 . S
O388 C403 1.264 . S
O389 Eu347 2.432 . S
O389 C411 1.268 . S
O390 Eu347 2.291 . S
O390 C410 1.255 . S
O391 Eu336 2.372 . S
O391 C410 1.257 . S
C392 O381 1.249 . S
C392 O382 1.264 . S
C393 C396 1.382 . S
C393 C398 1.390 . S
C393 C400 1.506 . S
C394 C395 1.398 . S
C394 C398 1.392 . S
C395 C394 1.398 . S
C395 C397 1.372 . S
C395 H412 0.931 . S
C396 C393 1.382 . S
C396 C397 1.390 . S
C396 H413 0.931 . S
C397 C395 1.372 . S
C397 C396 1.390 . S
C397 H414 0.929 . S
C398 C393 1.390 . S
C398 C394 1.392 . S
C398 H415 0.930 . S
C399 O384 1.255 . S
C399 O385 1.257 . S
C400 Eu336 2.787 . S
C400 O380 1.252 . S
C400 O383 1.268 . S
C400 C393 1.506 . S
C401 C368 1.439 . S
C401 H378 0.931 . S
C401 C402 1.374 . S
C402 C373 1.387 . S
C402 H379 0.931 . S
C402 C401 1.374 . S
C403 O387 1.249 . S
C403 O388 1.264 . S
C404 C407 1.382 . S
C404 C408 1.390 . S
C404 C411 1.506 . S
C405 C406 1.398 . S
C405 C408 1.392 . S
C406 C405 1.398 . S
C406 C409 1.372 . S
C406 H416 0.931 . S
C407 C404 1.382 . S
C407 C409 1.390 . S
C407 H417 0.931 . S
C408 C404 1.390 . S
C408 C405 1.392 . S
C408 H418 0.930 . S
C409 C406 1.372 . S
C409 C407 1.390 . S
C409 H419 0.929 . S
C410 O390 1.255 . S
C410 O391 1.257 . S
C411 Eu347 2.787 . S
C411 O386 1.252 . S
C411 O389 1.268 . S
C411 C404 1.506 . S
H412 C395 0.931 . S
H413 C396 0.931 . S
H414 C397 0.929 . S
H415 C398 0.930 . S
H416 C406 0.931 . S
H417 C407 0.931 . S
H418 C408 0.930 . S
H419 C409 0.929 . S
Eu420 N449 2.600 . S
Eu420 N455 2.562 . S
Eu420 O464 2.462 . S
Eu420 O465 2.373 . S
Eu420 O467 2.432 . S
Eu420 O468 2.291 . S
Eu420 O472 2.335 . S
Eu420 O475 2.372 . S
Eu420 C484 2.787 . S
C421 N422 1.365 . S
C421 C424 1.405 . S
C421 C428 1.448 . S
N422 C421 1.365 . S
N422 C425 1.319 . S
N422 Eu431 2.600 . S
C423 C425 1.397 . S
C423 C426 1.367 . S
C423 H443 0.931 . S
C424 C421 1.405 . S
C424 C426 1.403 . S
C424 C430 1.439 1_655 S
C425 N422 1.319 . S
C425 C423 1.397 . S
C425 H436 0.930 . S
C426 C423 1.367 . S
C426 C424 1.403 . S
C426 H447 0.929 . S
C427 C428 1.430 1_455 S
C427 C429 1.387 . S
C427 C433 1.404 . S
C428 C421 1.448 . S
C428 C427 1.430 1_655 S
C428 N432 1.351 . S
C429 C427 1.387 . S
C429 C430 1.374 . S
C429 H444 0.931 . S
C430 C424 1.439 1_455 S
C430 C429 1.374 . S
C430 H445 0.931 . S
Eu431 N422 2.600 . S
Eu431 N432 2.562 . S
Eu431 O466 2.335 . S
Eu431 O469 2.372 . S
Eu431 O470 2.462 . S
Eu431 O471 2.373 . S
Eu431 O473 2.432 . S
Eu431 O474 2.291 . S
Eu431 C495 2.787 . S
N432 C428 1.351 . S
N432 Eu431 2.562 . S
N432 C434 1.325 . S
C433 C427 1.404 . S
C433 C435 1.366 . S
C433 H441 0.930 . S
C434 N432 1.325 . S
C434 C435 1.416 1_655 S
C434 H440 0.929 . S
C435 C433 1.366 . S
C435 C434 1.416 1_455 S
C435 H437 0.930 . S
H436 C425 0.930 . S
H437 C435 0.930 . S
H438 C453 0.930 . S
H439 C460 0.930 . S
H440 C434 0.929 . S
H441 C433 0.930 . S
H442 C456 0.929 . S
H443 C423 0.931 . S
H444 C429 0.931 . S
H445 C430 0.931 . S
H446 C451 0.931 . S
H447 C426 0.929 . S
H448 C459 0.930 . S
N449 Eu420 2.600 . S
N449 C450 1.365 . S
N449 C453 1.319 . S
C450 N449 1.365 . S
C450 C452 1.405 . S
C450 C458 1.448 . S
C451 H446 0.931 . S
C451 C453 1.397 . S
C451 C454 1.367 . S
C452 C450 1.405 . S
C452 C454 1.403 . S
C452 C485 1.439 1_545 S
C453 H438 0.930 . S
C453 N449 1.319 . S
C453 C451 1.397 . S
C454 C451 1.367 . S
C454 C452 1.403 . S
C454 H461 0.929 . S
N455 Eu420 2.562 . S
N455 C456 1.325 . S
N455 C458 1.351 . S
C456 H442 0.929 . S
C456 N455 1.325 . S
C456 C460 1.416 . S
C457 C458 1.430 1_565 S
C457 C459 1.404 . S
C457 C486 1.387 . S
C458 C450 1.448 . S
C458 N455 1.351 . S
C458 C457 1.430 1_545 S
C459 H448 0.930 . S
C459 C457 1.404 . S
C459 C460 1.366 1_565 S
C460 H439 0.930 . S
C460 C456 1.416 . S
C460 C459 1.366 1_545 S
H461 C454 0.929 . S
H462 C485 0.931 . S
H463 C486 0.931 . S
O464 Eu420 2.462 . S
O464 C484 1.252 . S
O465 Eu420 2.373 . S
O465 C476 1.249 . S
O466 Eu431 2.335 . S
O466 C476 1.264 . S
O467 Eu420 2.432 . S
O467 C484 1.268 . S
O468 Eu420 2.291 . S
O468 C483 1.255 . S
O469 Eu431 2.372 . S
O469 C483 1.257 . S
O470 Eu431 2.462 . S
O470 C495 1.252 . S
O471 Eu431 2.373 . S
O471 C487 1.249 . S
O472 Eu420 2.335 . S
O472 C487 1.264 . S
O473 Eu431 2.432 . S
O473 C495 1.268 . S
O474 Eu431 2.291 . S
O474 C494 1.255 . S
O475 Eu420 2.372 . S
O475 C494 1.257 . S
C476 O465 1.249 . S
C476 O466 1.264 . S
C477 C480 1.382 . S
C477 C482 1.390 . S
C477 C484 1.506 . S
C478 C479 1.398 . S
C478 C482 1.392 . S
C479 C478 1.398 . S
C479 C481 1.372 . S
C479 H496 0.931 . S
C480 C477 1.382 . S
C480 C481 1.390 . S
C480 H497 0.931 . S
C481 C479 1.372 . S
C481 C480 1.390 . S
C481 H498 0.929 . S
C482 C477 1.390 . S
C482 C478 1.392 . S
C482 H499 0.930 . S
C483 O468 1.255 . S
C483 O469 1.257 . S
C484 Eu420 2.787 . S
C484 O464 1.252 . S
C484 O467 1.268 . S
C484 C477 1.506 . S
C485 C452 1.439 1_565 S
C485 H462 0.931 . S
C485 C486 1.374 . S
C486 C457 1.387 . S
C486 H463 0.931 . S
C486 C485 1.374 . S
C487 O471 1.249 . S
C487 O472 1.264 . S
C488 C491 1.382 . S
C488 C492 1.390 . S
C488 C495 1.506 1_455 S
C489 C490 1.398 . S
C489 C492 1.392 . S
C490 C489 1.398 . S
C490 C493 1.372 . S
C490 H500 0.931 . S
C491 C488 1.382 . S
C491 C493 1.390 . S
C491 H501 0.931 . S
C492 C488 1.390 . S
C492 C489 1.392 . S
C492 H502 0.930 . S
C493 C490 1.372 . S
C493 C491 1.390 . S
C493 H503 0.929 . S
C494 O474 1.255 . S
C494 O475 1.257 . S
C495 Eu431 2.787 . S
C495 O470 1.252 . S
C495 O473 1.268 . S
C495 C488 1.506 1_655 S
H496 C479 0.931 . S
H497 C480 0.931 . S
H498 C481 0.929 . S
H499 C482 0.930 . S
H500 C490 0.931 . S
H501 C491 0.931 . S
H502 C492 0.930 . S
H503 C493 0.929 . S
Eu504 N533 2.600 . S
Eu504 N539 2.562 . S
Eu504 O548 2.462 . S
Eu504 O549 2.373 . S
Eu504 O551 2.432 . S
Eu504 O552 2.291 . S
Eu504 O556 2.335 . S
Eu504 O559 2.372 . S
Eu504 C568 2.787 . S
C505 N506 1.365 . S
C505 C508 1.405 . S
C505 C512 1.448 . S
N506 C505 1.365 . S
N506 C509 1.319 . S
N506 Eu515 2.600 . S
C507 C509 1.397 . S
C507 C510 1.367 . S
C507 H527 0.931 . S
C508 C505 1.405 . S
C508 C510 1.403 . S
C508 C514 1.439 1_455 S
C509 N506 1.319 . S
C509 C507 1.397 . S
C509 H520 0.930 . S
C510 C507 1.367 . S
C510 C508 1.403 . S
C510 H531 0.929 . S
C511 C512 1.430 1_655 S
C511 C513 1.387 . S
C511 C517 1.404 . S
C512 C505 1.448 . S
C512 C511 1.430 1_455 S
C512 N516 1.351 . S
C513 C511 1.387 . S
C513 C514 1.374 . S
C513 H528 0.931 . S
C514 C508 1.439 1_655 S
C514 C513 1.374 . S
C514 H529 0.931 . S
Eu515 N506 2.600 . S
Eu515 N516 2.562 . S
Eu515 O550 2.335 . S
Eu515 O553 2.372 . S
Eu515 O554 2.462 . S
Eu515 O555 2.373 . S
Eu515 O557 2.432 . S
Eu515 O558 2.291 . S
Eu515 C579 2.787 . S
N516 C512 1.351 . S
N516 Eu515 2.562 . S
N516 C518 1.325 . S
C517 C511 1.404 . S
C517 C519 1.366 . S
C517 H525 0.930 . S
C518 N516 1.325 . S
C518 C519 1.416 1_455 S
C518 H524 0.929 . S
C519 C517 1.366 . S
C519 C518 1.416 1_655 S
C519 H521 0.930 . S
H520 C509 0.930 . S
H521 C519 0.930 . S
H522 C537 0.930 . S
H523 C544 0.930 . S
H524 C518 0.929 . S
H525 C517 0.930 . S
H526 C540 0.929 . S
H527 C507 0.931 . S
H528 C513 0.931 . S
H529 C514 0.931 . S
H530 C535 0.931 . S
H531 C510 0.929 . S
H532 C543 0.930 . S
N533 Eu504 2.600 . S
N533 C534 1.365 . S
N533 C537 1.319 . S
C534 N533 1.365 . S
C534 C536 1.405 . S
C534 C542 1.448 . S
C535 H530 0.931 . S
C535 C537 1.397 . S
C535 C538 1.367 . S
C536 C534 1.405 . S
C536 C538 1.403 . S
C536 C569 1.439 . S
C537 H522 0.930 . S
C537 N533 1.319 . S
C537 C535 1.397 . S
C538 C535 1.367 . S
C538 C536 1.403 . S
C538 H545 0.929 . S
N539 Eu504 2.562 . S
N539 C540 1.325 . S
N539 C542 1.351 . S
C540 H526 0.929 . S
C540 N539 1.325 . S
C540 C544 1.416 . S
C541 C542 1.430 . S
C541 C543 1.404 . S
C541 C570 1.387 . S
C542 C534 1.448 . S
C542 N539 1.351 . S
C542 C541 1.430 . S
C543 H532 0.930 . S
C543 C541 1.404 . S
C543 C544 1.366 . S
C544 H523 0.930 . S
C544 C540 1.416 . S
C544 C543 1.366 . S
H545 C538 0.929 . S
H546 C569 0.931 . S
H547 C570 0.931 . S
O548 Eu504 2.462 . S
O548 C568 1.252 . S
O549 Eu504 2.373 . S
O549 C560 1.249 . S
O550 Eu515 2.335 . S
O550 C560 1.264 . S
O551 Eu504 2.432 . S
O551 C568 1.268 . S
O552 Eu504 2.291 . S
O552 C567 1.255 . S
O553 Eu515 2.372 . S
O553 C567 1.257 . S
O554 Eu515 2.462 . S
O554 C579 1.252 . S
O555 Eu515 2.373 . S
O555 C571 1.249 . S
O556 Eu504 2.335 . S
O556 C571 1.264 . S
O557 Eu515 2.432 . S
O557 C579 1.268 . S
O558 Eu515 2.291 . S
O558 C578 1.255 . S
O559 Eu504 2.372 . S
O559 C578 1.257 . S
C560 O549 1.249 . S
C560 O550 1.264 . S
C561 C564 1.382 . S
C561 C566 1.390 . S
C561 C568 1.506 . S
C562 C563 1.398 . S
C562 C566 1.392 . S
C563 C562 1.398 . S
C563 C565 1.372 . S
C563 H580 0.931 . S
C564 C561 1.382 . S
C564 C565 1.390 . S
C564 H581 0.931 . S
C565 C563 1.372 . S
C565 C564 1.390 . S
C565 H582 0.929 . S
C566 C561 1.390 . S
C566 C562 1.392 . S
C566 H583 0.930 . S
C567 O552 1.255 . S
C567 O553 1.257 . S
C568 Eu504 2.787 . S
C568 O548 1.252 . S
C568 O551 1.268 . S
C568 C561 1.506 . S
C569 C536 1.439 . S
C569 H546 0.931 . S
C569 C570 1.374 . S
C570 C541 1.387 . S
C570 H547 0.931 . S
C570 C569 1.374 . S
C571 O555 1.249 . S
C571 O556 1.264 . S
C572 C575 1.382 . S
C572 C576 1.390 . S
C572 C579 1.506 1_655 S
C573 C574 1.398 . S
C573 C576 1.392 . S
C574 C573 1.398 . S
C574 C577 1.372 . S
C574 H584 0.931 . S
C575 C572 1.382 . S
C575 C577 1.390 . S
C575 H585 0.931 . S
C576 C572 1.390 . S
C576 C573 1.392 . S
C576 H586 0.930 . S
C577 C574 1.372 . S
C577 C575 1.390 . S
C577 H587 0.929 . S
C578 O558 1.255 . S
C578 O559 1.257 . S
C579 Eu515 2.787 . S
C579 O554 1.252 . S
C579 O557 1.268 . S
C579 C572 1.506 1_455 S
H580 C563 0.931 . S
H581 C564 0.931 . S
H582 C565 0.929 . S
H583 C566 0.930 . S
H584 C574 0.931 . S
H585 C575 0.931 . S
H586 C576 0.930 . S
H587 C577 0.929 . S
Eu588 N617 2.600 . S
Eu588 N623 2.562 . S
Eu588 O632 2.462 . S
Eu588 O633 2.373 . S
Eu588 O635 2.432 . S
Eu588 O636 2.291 . S
Eu588 O640 2.335 . S
Eu588 O643 2.372 . S
Eu588 C652 2.787 . S
C589 N590 1.365 . S
C589 C592 1.405 . S
C589 C596 1.448 . S
N590 C589 1.365 . S
N590 C593 1.319 . S
N590 Eu599 2.600 . S
C591 C593 1.397 1_554 S
C591 C594 1.366 1_554 S
C591 H611 0.931 . S
C592 C589 1.405 . S
C592 C594 1.407 . S
C592 C598 1.439 1_455 S
C593 N590 1.319 . S
C593 C591 1.397 1_556 S
C593 H604 0.930 . S
C594 C591 1.366 1_556 S
C594 C592 1.407 . S
C594 H615 0.926 1_556 S
C595 C596 1.430 1_655 S
C595 C597 1.387 . S
C595 C601 1.404 . S
C596 C589 1.448 . S
C596 C595 1.430 1_455 S
C596 N600 1.351 . S
C597 C595 1.387 . S
C597 C598 1.374 . S
C597 H612 0.931 . S
C598 C592 1.439 1_655 S
C598 C597 1.374 . S
C598 H613 0.931 . S
Eu599 N590 2.600 . S
Eu599 N600 2.562 . S
Eu599 O634 2.335 . S
Eu599 O637 2.372 . S
Eu599 O638 2.462 . S
Eu599 O639 2.373 . S
Eu599 O641 2.432 . S
Eu599 O642 2.291 . S
Eu599 C663 2.787 . S
N600 C596 1.351 . S
N600 Eu599 2.562 . S
N600 C602 1.325 . S
C601 C595 1.404 . S
C601 C603 1.366 1_655 S
C601 H609 0.930 . S
C602 N600 1.325 . S
C602 C603 1.416 . S
C602 H608 0.929 . S
C603 C601 1.366 1_455 S
C603 C602 1.416 . S
C603 H605 0.930 . S
H604 C593 0.930 . S
H605 C603 0.930 . S
H606 C621 0.930 . S
H607 C628 0.930 . S
H608 C602 0.929 . S
H609 C601 0.930 . S
H610 C624 0.929 . S
H611 C591 0.931 . S
H612 C597 0.931 . S
H613 C598 0.931 . S
H614 C619 0.931 . S
H615 C594 0.926 1_554 S
H616 C627 0.930 . S
N617 Eu588 2.600 . S
N617 C618 1.365 . S
N617 C621 1.319 . S
C618 N617 1.365 . S
C618 C620 1.405 . S
C618 C626 1.448 . S
C619 H614 0.931 . S
C619 C621 1.397 . S
C619 C622 1.367 . S
C620 C618 1.405 . S
C620 C622 1.403 . S
C620 C653 1.439 1_565 S
C621 H606 0.930 . S
C621 N617 1.319 . S
C621 C619 1.397 . S
C622 C619 1.367 . S
C622 C620 1.403 . S
C622 H629 0.929 . S
N623 Eu588 2.562 . S
N623 C624 1.325 . S
N623 C626 1.351 . S
C624 H610 0.929 . S
C624 N623 1.325 . S
C624 C628 1.416 1_565 S
C625 C626 1.430 1_545 S
C625 C627 1.404 . S
C625 C654 1.387 . S
C626 C618 1.448 . S
C626 N623 1.351 . S
C626 C625 1.430 1_565 S
C627 H616 0.930 . S
C627 C625 1.404 . S
C627 C628 1.366 . S
C628 H607 0.930 . S
C628 C624 1.416 1_545 S
C628 C627 1.366 . S
H629 C622 0.929 . S
H630 C653 0.931 . S
H631 C654 0.931 . S
O632 Eu588 2.462 . S
O632 C652 1.252 . S
O633 Eu588 2.373 . S
O633 C644 1.249 . S
O634 Eu599 2.335 . S
O634 C644 1.264 . S
O635 Eu588 2.432 . S
O635 C652 1.268 . S
O636 Eu588 2.291 . S
O636 C651 1.255 . S
O637 Eu599 2.372 . S
O637 C651 1.257 . S
O638 Eu599 2.462 . S
O638 C663 1.252 . S
O639 Eu599 2.373 . S
O639 C655 1.249 . S
O640 Eu588 2.335 . S
O640 C655 1.264 . S
O641 Eu599 2.432 . S
O641 C663 1.268 . S
O642 Eu599 2.291 . S
O642 C662 1.255 . S
O643 Eu588 2.372 . S
O643 C662 1.257 . S
C644 O633 1.249 . S
C644 O634 1.264 . S
C645 C648 1.382 . S
C645 C650 1.390 . S
C645 C652 1.506 1_545 S
C646 C647 1.398 . S
C646 C650 1.392 . S
C647 C646 1.398 . S
C647 C649 1.372 . S
C647 H664 0.931 . S
C648 C645 1.382 . S
C648 C649 1.390 . S
C648 H665 0.931 . S
C649 C647 1.372 . S
C649 C648 1.390 . S
C649 H666 0.929 . S
C650 C645 1.390 . S
C650 C646 1.392 . S
C650 H667 0.930 . S
C651 O636 1.255 . S
C651 O637 1.257 . S
C652 Eu588 2.787 . S
C652 O632 1.252 . S
C652 O635 1.268 . S
C652 C645 1.506 1_565 S
C653 C620 1.439 1_545 S
C653 H630 0.931 . S
C653 C654 1.374 . S
C654 C625 1.387 . S
C654 H631 0.931 . S
C654 C653 1.374 . S
C655 O639 1.249 . S
C655 O640 1.264 . S
C656 C659 1.382 . S
C656 C660 1.390 . S
C656 C663 1.506 . S
C657 C658 1.398 . S
C657 C660 1.392 . S
C658 C657 1.398 . S
C658 C661 1.372 . S
C658 H668 0.931 . S
C659 C656 1.382 . S
C659 C661 1.390 . S
C659 H669 0.931 . S
C660 C656 1.390 . S
C660 C657 1.392 . S
C660 H670 0.930 . S
C661 C658 1.372 . S
C661 C659 1.390 . S
C661 H671 0.929 . S
C662 O642 1.255 . S
C662 O643 1.257 . S
C663 Eu599 2.787 . S
C663 O638 1.252 . S
C663 O641 1.268 . S
C663 C656 1.506 . S
H664 C647 0.931 . S
H665 C648 0.931 . S
H666 C649 0.929 . S
H667 C650 0.930 . S
H668 C658 0.931 . S
H669 C659 0.931 . S
H670 C660 0.930 . S
H671 C661 0.929 . S
Eu672 N701 2.600 . S
Eu672 N707 2.562 . S
Eu672 O716 2.462 . S
Eu672 O717 2.373 . S
Eu672 O719 2.432 . S
Eu672 O720 2.291 . S
Eu672 O724 2.335 . S
Eu672 O727 2.372 . S
Eu672 C736 2.787 . S
C673 N674 1.365 . S
C673 C676 1.405 . S
C673 C680 1.448 . S
N674 C673 1.365 . S
N674 C677 1.319 . S
N674 Eu683 2.600 . S
C675 C677 1.397 . S
C675 C678 1.367 . S
C675 H695 0.931 . S
C676 C673 1.405 . S
C676 C678 1.403 . S
C676 C682 1.439 . S
C677 N674 1.319 . S
C677 C675 1.397 . S
C677 H688 0.930 . S
C678 C675 1.367 . S
C678 C676 1.403 . S
C678 H699 0.929 . S
C679 C680 1.430 . S
C679 C681 1.387 . S
C679 C685 1.404 . S
C680 C673 1.448 . S
C680 C679 1.430 . S
C680 N684 1.351 . S
C681 C679 1.387 . S
C681 C682 1.374 . S
C681 H696 0.931 . S
C682 C676 1.439 . S
C682 C681 1.374 . S
C682 H697 0.931 . S
Eu683 N674 2.600 . S
Eu683 N684 2.562 . S
Eu683 O718 2.335 . S
Eu683 O721 2.372 . S
Eu683 O722 2.462 . S
Eu683 O723 2.373 . S
Eu683 O725 2.432 . S
Eu683 O726 2.291 . S
Eu683 C747 2.787 . S
N684 C680 1.351 . S
N684 Eu683 2.562 . S
N684 C686 1.325 . S
C685 C679 1.404 . S
C685 C687 1.366 . S
C685 H693 0.930 . S
C686 N684 1.325 . S
C686 C687 1.416 . S
C686 H692 0.929 . S
C687 C685 1.366 . S
C687 C686 1.416 . S
C687 H689 0.930 . S
H688 C677 0.930 . S
H689 C687 0.930 . S
H690 C705 0.930 . S
H691 C712 0.930 . S
H692 C686 0.929 . S
H693 C685 0.930 . S
H694 C708 0.929 . S
H695 C675 0.931 . S
H696 C681 0.931 . S
H697 C682 0.931 . S
H698 C703 0.931 . S
H699 C678 0.929 . S
H700 C711 0.930 . S
N701 Eu672 2.600 . S
N701 C702 1.365 . S
N701 C705 1.319 . S
C702 N701 1.365 . S
C702 C704 1.405 . S
C702 C710 1.448 . S
C703 H698 0.931 . S
C703 C705 1.397 . S
C703 C706 1.367 . S
C704 C702 1.405 . S
C704 C706 1.403 . S
C704 C737 1.439 1_565 S
C705 H690 0.930 . S
C705 N701 1.319 . S
C705 C703 1.397 . S
C706 C703 1.367 . S
C706 C704 1.403 . S
C706 H713 0.929 . S
N707 Eu672 2.562 . S
N707 C708 1.325 . S
N707 C710 1.351 . S
C708 H694 0.929 . S
C708 N707 1.325 . S
C708 C712 1.416 . S
C709 C710 1.430 1_545 S
C709 C711 1.404 . S
C709 C738 1.387 . S
C710 C702 1.448 . S
C710 N707 1.351 . S
C710 C709 1.430 1_565 S
C711 H700 0.930 . S
C711 C709 1.404 . S
C711 C712 1.366 1_545 S
C712 H691 0.930 . S
C712 C708 1.416 . S
C712 C711 1.366 1_565 S
H713 C706 0.929 . S
H714 C737 0.931 . S
H715 C738 0.931 . S
O716 Eu672 2.462 . S
O716 C736 1.252 . S
O717 Eu672 2.373 . S
O717 C728 1.249 . S
O718 Eu683 2.335 . S
O718 C728 1.264 . S
O719 Eu672 2.432 . S
O719 C736 1.268 . S
O720 Eu672 2.291 . S
O720 C735 1.255 . S
O721 Eu683 2.372 . S
O721 C735 1.257 . S
O722 Eu683 2.462 . S
O722 C747 1.252 . S
O723 Eu683 2.373 . S
O723 C739 1.249 . S
O724 Eu672 2.335 . S
O724 C739 1.264 . S
O725 Eu683 2.432 . S
O725 C747 1.268 . S
O726 Eu683 2.291 . S
O726 C746 1.255 . S
O727 Eu672 2.372 . S
O727 C746 1.257 . S
C728 O717 1.249 . S
C728 O718 1.264 . S
C729 C732 1.382 . S
C729 C734 1.390 . S
C729 C736 1.506 . S
C730 C731 1.398 . S
C730 C734 1.392 . S
C731 C730 1.398 . S
C731 C733 1.372 . S
C731 H748 0.931 . S
C732 C729 1.382 . S
C732 C733 1.390 . S
C732 H749 0.931 . S
C733 C731 1.372 . S
C733 C732 1.390 . S
C733 H750 0.929 . S
C734 C729 1.390 . S
C734 C730 1.392 . S
C734 H751 0.930 . S
C735 O720 1.255 . S
C735 O721 1.257 . S
C736 Eu672 2.787 . S
C736 O716 1.252 . S
C736 O719 1.268 . S
C736 C729 1.506 . S
C737 C704 1.439 1_545 S
C737 H714 0.931 . S
C737 C738 1.374 . S
C738 C709 1.387 . S
C738 H715 0.931 . S
C738 C737 1.374 . S
C739 O723 1.249 . S
C739 O724 1.264 . S
C740 C743 1.382 . S
C740 C744 1.390 . S
C740 C747 1.506 . S
C741 C742 1.398 . S
C741 C744 1.392 . S
C742 C741 1.398 . S
C742 C745 1.372 . S
C742 H752 0.931 . S
C743 C740 1.382 . S
C743 C745 1.390 . S
C743 H753 0.931 . S
C744 C740 1.390 . S
C744 C741 1.392 . S
C744 H754 0.930 . S
C745 C742 1.372 . S
C745 C743 1.390 . S
C745 H755 0.929 . S
C746 O726 1.255 . S
C746 O727 1.257 . S
C747 Eu683 2.787 . S
C747 O722 1.252 . S
C747 O725 1.268 . S
C747 C740 1.506 . S
H748 C731 0.931 . S
H749 C732 0.931 . S
H750 C733 0.929 . S
H751 C734 0.930 . S
H752 C742 0.931 . S
H753 C743 0.931 . S
H754 C744 0.930 . S
H755 C745 0.929 . S
Eu756 N785 2.600 . S
Eu756 N791 2.562 . S
Eu756 O800 2.462 . S
Eu756 O801 2.373 . S
Eu756 O803 2.432 . S
Eu756 O804 2.291 . S
Eu756 O808 2.335 . S
Eu756 O811 2.372 . S
Eu756 C820 2.787 . S
C757 N758 1.365 . S
C757 C760 1.405 . S
C757 C764 1.448 . S
N758 C757 1.365 . S
N758 C761 1.319 . S
N758 Eu767 2.600 . S
C759 C761 1.397 1_554 S
C759 C762 1.366 1_554 S
C759 H779 0.931 . S
C760 C757 1.405 . S
C760 C762 1.407 . S
C760 C766 1.439 . S
C761 N758 1.319 . S
C761 C759 1.397 1_556 S
C761 H772 0.930 . S
C762 C759 1.366 1_556 S
C762 C760 1.407 . S
C762 H783 0.926 1_556 S
C763 C764 1.430 . S
C763 C765 1.387 . S
C763 C769 1.404 . S
C764 C757 1.448 . S
C764 C763 1.430 . S
C764 N768 1.351 . S
C765 C763 1.387 . S
C765 C766 1.374 . S
C765 H780 0.931 . S
C766 C760 1.439 . S
C766 C765 1.374 . S
C766 H781 0.931 . S
Eu767 N758 2.600 . S
Eu767 N768 2.562 . S
Eu767 O802 2.335 . S
Eu767 O805 2.372 . S
Eu767 O806 2.462 . S
Eu767 O807 2.373 . S
Eu767 O809 2.432 . S
Eu767 O810 2.291 . S
Eu767 C831 2.787 . S
N768 C764 1.351 . S
N768 Eu767 2.562 . S
N768 C770 1.325 . S
C769 C763 1.404 . S
C769 C771 1.366 . S
C769 H777 0.930 . S
C770 N768 1.325 . S
C770 C771 1.416 . S
C770 H776 0.929 . S
C771 C769 1.366 . S
C771 C770 1.416 . S
C771 H773 0.930 . S
H772 C761 0.930 . S
H773 C771 0.930 . S
H774 C789 0.930 . S
H775 C796 0.930 . S
H776 C770 0.929 . S
H777 C769 0.930 . S
H778 C792 0.929 . S
H779 C759 0.931 . S
H780 C765 0.931 . S
H781 C766 0.931 . S
H782 C787 0.931 . S
H783 C762 0.926 1_554 S
H784 C795 0.930 . S
N785 Eu756 2.600 . S
N785 C786 1.365 . S
N785 C789 1.319 . S
C786 N785 1.365 . S
C786 C788 1.405 . S
C786 C794 1.448 . S
C787 H782 0.931 . S
C787 C789 1.397 . S
C787 C790 1.367 . S
C788 C786 1.405 . S
C788 C790 1.403 . S
C788 C821 1.439 1_455 S
C789 H774 0.930 . S
C789 N785 1.319 . S
C789 C787 1.397 . S
C790 C787 1.367 . S
C790 C788 1.403 . S
C790 H797 0.929 . S
N791 Eu756 2.562 . S
N791 C792 1.325 . S
N791 C794 1.351 . S
C792 H778 0.929 . S
C792 N791 1.325 . S
C792 C796 1.416 1_455 S
C793 C794 1.430 1_655 S
C793 C795 1.404 . S
C793 C822 1.387 . S
C794 C786 1.448 . S
C794 N791 1.351 . S
C794 C793 1.430 1_455 S
C795 H784 0.930 . S
C795 C793 1.404 . S
C795 C796 1.366 . S
C796 H775 0.930 . S
C796 C792 1.416 1_655 S
C796 C795 1.366 . S
H797 C790 0.929 . S
H798 C821 0.931 . S
H799 C822 0.931 . S
O800 Eu756 2.462 . S
O800 C820 1.252 . S
O801 Eu756 2.373 . S
O801 C812 1.249 . S
O802 Eu767 2.335 . S
O802 C812 1.264 . S
O803 Eu756 2.432 . S
O803 C820 1.268 . S
O804 Eu756 2.291 . S
O804 C819 1.255 . S
O805 Eu767 2.372 . S
O805 C819 1.257 . S
O806 Eu767 2.462 . S
O806 C831 1.252 . S
O807 Eu767 2.373 . S
O807 C823 1.249 . S
O808 Eu756 2.335 . S
O808 C823 1.264 . S
O809 Eu767 2.432 . S
O809 C831 1.268 . S
O810 Eu767 2.291 . S
O810 C830 1.255 . S
O811 Eu756 2.372 . S
O811 C830 1.257 . S
C812 O801 1.249 . S
C812 O802 1.264 . S
C813 C816 1.382 . S
C813 C818 1.390 . S
C813 C820 1.506 1_655 S
C814 C815 1.398 . S
C814 C818 1.392 . S
C815 C814 1.398 . S
C815 C817 1.372 . S
C815 H832 0.931 . S
C816 C813 1.382 . S
C816 C817 1.390 . S
C816 H833 0.931 . S
C817 C815 1.372 . S
C817 C816 1.390 . S
C817 H834 0.929 . S
C818 C813 1.390 . S
C818 C814 1.392 . S
C818 H835 0.930 . S
C819 O804 1.255 . S
C819 O805 1.257 . S
C820 Eu756 2.787 . S
C820 O800 1.252 . S
C820 O803 1.268 . S
C820 C813 1.506 1_455 S
C821 C788 1.439 1_655 S
C821 H798 0.931 . S
C821 C822 1.374 . S
C822 C793 1.387 . S
C822 H799 0.931 . S
C822 C821 1.374 . S
C823 O807 1.249 . S
C823 O808 1.264 . S
C824 C827 1.382 . S
C824 C828 1.390 . S
C824 C831 1.506 . S
C825 C826 1.398 . S
C825 C828 1.392 . S
C826 C825 1.398 . S
C826 C829 1.372 . S
C826 H836 0.931 . S
C827 C824 1.382 . S
C827 C829 1.390 . S
C827 H837 0.931 . S
C828 C824 1.390 . S
C828 C825 1.392 . S
C828 H838 0.930 . S
C829 C826 1.372 . S
C829 C827 1.390 . S
C829 H839 0.929 . S
C830 O810 1.255 . S
C830 O811 1.257 . S
C831 Eu767 2.787 . S
C831 O806 1.252 . S
C831 O809 1.268 . S
C831 C824 1.506 . S
H832 C815 0.931 . S
H833 C816 0.931 . S
H834 C817 0.929 . S
H835 C818 0.930 . S
H836 C826 0.931 . S
H837 C827 0.931 . S
H838 C828 0.930 . S
H839 C829 0.929 . S
Eu840 N869 2.600 . S
Eu840 N875 2.562 . S
Eu840 O884 2.462 . S
Eu840 O885 2.373 . S
Eu840 O887 2.432 . S
Eu840 O888 2.291 . S
Eu840 O892 2.335 . S
Eu840 O895 2.372 . S
Eu840 C904 2.787 . S
C841 N842 1.365 . S
C841 C844 1.405 . S
C841 C848 1.448 . S
N842 C841 1.365 . S
N842 C845 1.319 . S
N842 Eu851 2.600 . S
C843 C845 1.397 . S
C843 C846 1.367 . S
C843 H863 0.931 . S
C844 C841 1.405 . S
C844 C846 1.403 . S
C844 C850 1.439 1_565 S
C845 N842 1.319 . S
C845 C843 1.397 . S
C845 H856 0.930 . S
C846 C843 1.367 . S
C846 C844 1.403 . S
C846 H867 0.929 . S
C847 C848 1.430 1_545 S
C847 C849 1.387 . S
C847 C853 1.404 . S
C848 C841 1.448 . S
C848 C847 1.430 1_565 S
C848 N852 1.351 . S
C849 C847 1.387 . S
C849 C850 1.374 . S
C849 H864 0.931 . S
C850 C844 1.439 1_545 S
C850 C849 1.374 . S
C850 H865 0.931 . S
Eu851 N842 2.600 . S
Eu851 N852 2.562 . S
Eu851 O886 2.335 . S
Eu851 O889 2.372 . S
Eu851 O890 2.462 . S
Eu851 O891 2.373 . S
Eu851 O893 2.432 . S
Eu851 O894 2.291 . S
Eu851 C915 2.787 . S
N852 C848 1.351 . S
N852 Eu851 2.562 . S
N852 C854 1.325 . S
C853 C847 1.404 . S
C853 C855 1.366 . S
C853 H861 0.930 . S
C854 N852 1.325 . S
C854 C855 1.416 1_565 S
C854 H860 0.929 . S
C855 C853 1.366 . S
C855 C854 1.416 1_545 S
C855 H857 0.930 . S
H856 C845 0.930 . S
H857 C855 0.930 . S
H858 C873 0.930 . S
H859 C880 0.930 . S
H860 C854 0.929 . S
H861 C853 0.930 . S
H862 C876 0.929 . S
H863 C843 0.931 . S
H864 C849 0.931 . S
H865 C850 0.931 . S
H866 C871 0.931 . S
H867 C846 0.929 . S
H868 C879 0.930 . S
N869 Eu840 2.600 . S
N869 C870 1.365 . S
N869 C873 1.319 . S
C870 N869 1.365 . S
C870 C872 1.405 . S
C870 C878 1.448 . S
C871 H866 0.931 . S
C871 C873 1.397 . S
C871 C874 1.367 . S
C872 C870 1.405 . S
C872 C874 1.403 . S
C872 C905 1.439 1_455 S
C873 H858 0.930 . S
C873 N869 1.319 . S
C873 C871 1.397 . S
C874 C871 1.367 . S
C874 C872 1.403 . S
C874 H881 0.929 . S
N875 Eu840 2.562 . S
N875 C876 1.325 . S
N875 C878 1.351 . S
C876 H862 0.929 . S
C876 N875 1.325 . S
C876 C880 1.416 . S
C877 C878 1.430 1_655 S
C877 C879 1.404 . S
C877 C906 1.387 . S
C878 C870 1.448 . S
C878 N875 1.351 . S
C878 C877 1.430 1_455 S
C879 H868 0.930 . S
C879 C877 1.404 . S
C879 C880 1.366 1_655 S
C880 H859 0.930 . S
C880 C876 1.416 . S
C880 C879 1.366 1_455 S
H881 C874 0.929 . S
H882 C905 0.931 . S
H883 C906 0.931 . S
O884 Eu840 2.462 . S
O884 C904 1.252 . S
O885 Eu840 2.373 . S
O885 C896 1.249 . S
O886 Eu851 2.335 . S
O886 C896 1.264 . S
O887 Eu840 2.432 . S
O887 C904 1.268 . S
O888 Eu840 2.291 . S
O888 C903 1.255 . S
O889 Eu851 2.372 . S
O889 C903 1.257 . S
O890 Eu851 2.462 . S
O890 C915 1.252 . S
O891 Eu851 2.373 . S
O891 C907 1.249 . S
O892 Eu840 2.335 . S
O892 C907 1.264 . S
O893 Eu851 2.432 . S
O893 C915 1.268 . S
O894 Eu851 2.291 . S
O894 C914 1.255 . S
O895 Eu840 2.372 . S
O895 C914 1.257 . S
C896 O885 1.249 . S
C896 O886 1.264 . S
C897 C900 1.382 . S
C897 C902 1.390 . S
C897 C904 1.506 . S
C898 C899 1.398 . S
C898 C902 1.392 . S
C899 C898 1.398 . S
C899 C901 1.372 . S
C899 H916 0.931 . S
C900 C897 1.382 . S
C900 C901 1.390 . S
C900 H917 0.931 . S
C901 C899 1.372 . S
C901 C900 1.390 . S
C901 H918 0.929 . S
C902 C897 1.390 . S
C902 C898 1.392 . S
C902 H919 0.930 . S
C903 O888 1.255 . S
C903 O889 1.257 . S
C904 Eu840 2.787 . S
C904 O884 1.252 . S
C904 O887 1.268 . S
C904 C897 1.506 . S
C905 C872 1.439 1_655 S
C905 H882 0.931 . S
C905 C906 1.374 . S
C906 C877 1.387 . S
C906 H883 0.931 . S
C906 C905 1.374 . S
C907 O891 1.249 . S
C907 O892 1.264 . S
C908 C911 1.382 . S
C908 C912 1.390 . S
C908 C915 1.506 1_545 S
C909 C910 1.398 . S
C909 C912 1.392 . S
C910 C909 1.398 . S
C910 C913 1.372 . S
C910 H920 0.931 . S
C911 C908 1.382 . S
C911 C913 1.390 . S
C911 H921 0.931 . S
C912 C908 1.390 . S
C912 C909 1.392 . S
C912 H922 0.930 . S
C913 C910 1.372 . S
C913 C911 1.390 . S
C913 H923 0.929 . S
C914 O894 1.255 . S
C914 O895 1.257 . S
C915 Eu851 2.787 . S
C915 O890 1.252 . S
C915 O893 1.268 . S
C915 C908 1.506 1_565 S
H916 C899 0.931 . S
H917 C900 0.931 . S
H918 C901 0.929 . S
H919 C902 0.930 . S
H920 C910 0.931 . S
H921 C911 0.931 . S
H922 C912 0.930 . S
H923 C913 0.929 . S
Eu924 N953 2.600 . S
Eu924 N959 2.562 . S
Eu924 O968 2.462 . S
Eu924 O969 2.373 . S
Eu924 O971 2.432 . S
Eu924 O972 2.291 . S
Eu924 O976 2.335 . S
Eu924 O979 2.372 . S
Eu924 C988 2.787 . S
C925 N926 1.365 . S
C925 C928 1.405 . S
C925 C932 1.448 . S
N926 C925 1.365 . S
N926 C929 1.319 . S
N926 Eu935 2.600 . S
C927 C929 1.397 1_554 S
C927 C930 1.366 1_554 S
C927 H947 0.931 . S
C928 C925 1.405 . S
C928 C930 1.407 . S
C928 C934 1.439 1_565 S
C929 N926 1.319 . S
C929 C927 1.397 1_556 S
C929 H940 0.930 . S
C930 C927 1.366 1_556 S
C930 C928 1.407 . S
C930 H951 0.926 1_556 S
C931 C932 1.430 1_545 S
C931 C933 1.387 . S
C931 C937 1.404 . S
C932 C925 1.448 . S
C932 C931 1.430 1_565 S
C932 N936 1.351 . S
C933 C931 1.387 . S
C933 C934 1.374 . S
C933 H948 0.931 . S
C934 C928 1.439 1_545 S
C934 C933 1.374 . S
C934 H949 0.931 . S
Eu935 N926 2.600 . S
Eu935 N936 2.562 . S
Eu935 O970 2.335 . S
Eu935 O973 2.372 . S
Eu935 O974 2.462 . S
Eu935 O975 2.373 . S
Eu935 O977 2.432 . S
Eu935 O978 2.291 . S
Eu935 C999 2.787 . S
N936 C932 1.351 . S
N936 Eu935 2.562 . S
N936 C938 1.325 . S
C937 C931 1.404 . S
C937 C939 1.366 1_545 S
C937 H945 0.930 . S
C938 N936 1.325 . S
C938 C939 1.416 . S
C938 H944 0.929 . S
C939 C937 1.366 1_565 S
C939 C938 1.416 . S
C939 H941 0.930 . S
H940 C929 0.930 . S
H941 C939 0.930 . S
H942 C957 0.930 . S
H943 C964 0.930 . S
H944 C938 0.929 . S
H945 C937 0.930 . S
H946 C960 0.929 . S
H947 C927 0.931 . S
H948 C933 0.931 . S
H949 C934 0.931 . S
H950 C955 0.931 . S
H951 C930 0.926 1_554 S
H952 C963 0.930 . S
N953 Eu924 2.600 . S
N953 C954 1.365 . S
N953 C957 1.319 . S
C954 N953 1.365 . S
C954 C956 1.405 . S
C954 C962 1.448 . S
C955 H950 0.931 . S
C955 C957 1.397 . S
C955 C958 1.367 . S
C956 C954 1.405 . S
C956 C958 1.403 . S
C956 C989 1.439 . S
C957 H942 0.930 . S
C957 N953 1.319 . S
C957 C955 1.397 . S
C958 C955 1.367 . S
C958 C956 1.403 . S
C958 H965 0.929 . S
N959 Eu924 2.562 . S
N959 C960 1.325 . S
N959 C962 1.351 . S
C960 H946 0.929 . S
C960 N959 1.325 . S
C960 C964 1.416 . S
C961 C962 1.430 . S
C961 C963 1.404 . S
C961 C990 1.387 . S
C962 C954 1.448 . S
C962 N959 1.351 . S
C962 C961 1.430 . S
C963 H952 0.930 . S
C963 C961 1.404 . S
C963 C964 1.366 . S
C964 H943 0.930 . S
C964 C960 1.416 . S
C964 C963 1.366 . S
H965 C958 0.929 . S
H966 C989 0.931 . S
H967 C990 0.931 . S
O968 Eu924 2.462 . S
O968 C988 1.252 . S
O969 Eu924 2.373 . S
O969 C980 1.249 . S
O970 Eu935 2.335 . S
O970 C980 1.264 . S
O971 Eu924 2.432 . S
O971 C988 1.268 . S
O972 Eu924 2.291 . S
O972 C987 1.255 . S
O973 Eu935 2.372 . S
O973 C987 1.257 . S
O974 Eu935 2.462 . S
O974 C999 1.252 . S
O975 Eu935 2.373 . S
O975 C991 1.249 . S
O976 Eu924 2.335 . S
O976 C991 1.264 . S
O977 Eu935 2.432 . S
O977 C999 1.268 . S
O978 Eu935 2.291 . S
O978 C998 1.255 . S
O979 Eu924 2.372 . S
O979 C998 1.257 . S
C980 O969 1.249 . S
C980 O970 1.264 . S
C981 C984 1.382 . S
C981 C986 1.390 . S
C981 C988 1.506 . S
C982 C983 1.398 . S
C982 C986 1.392 . S
C983 C982 1.398 . S
C983 C985 1.372 . S
C983 H1000 0.931 . S
C984 C981 1.382 . S
C984 C985 1.390 . S
C984 H1001 0.931 . S
C985 C983 1.372 . S
C985 C984 1.390 . S
C985 H1002 0.929 . S
C986 C981 1.390 . S
C986 C982 1.392 . S
C986 H1003 0.930 . S
C987 O972 1.255 . S
C987 O973 1.257 . S
C988 Eu924 2.787 . S
C988 O968 1.252 . S
C988 O971 1.268 . S
C988 C981 1.506 . S
C989 C956 1.439 . S
C989 H966 0.931 . S
C989 C990 1.374 . S
C990 C961 1.387 . S
C990 H967 0.931 . S
C990 C989 1.374 . S
C991 O975 1.249 . S
C991 O976 1.264 . S
C992 C995 1.382 . S
C992 C996 1.390 . S
C992 C999 1.506 . S
C993 C994 1.398 . S
C993 C996 1.392 . S
C994 C993 1.398 . S
C994 C997 1.372 . S
C994 H1004 0.931 . S
C995 C992 1.382 . S
C995 C997 1.390 . S
C995 H1005 0.931 . S
C996 C992 1.390 . S
C996 C993 1.392 . S
C996 H1006 0.930 . S
C997 C994 1.372 . S
C997 C995 1.390 . S
C997 H1007 0.929 . S
C998 O978 1.255 . S
C998 O979 1.257 . S
C999 Eu935 2.787 . S
C999 O974 1.252 . S
C999 O977 1.268 . S
C999 C992 1.506 . S
H1000 C983 0.931 . S
H1001 C984 0.931 . S
H1002 C985 0.929 . S
H1003 C986 0.930 . S
H1004 C994 0.931 . S
H1005 C995 0.931 . S
H1006 C996 0.930 . S
H1007 C997 0.929 . S
H1008 C1014 0.930 . S
H1009 C1017 0.930 . S
H1010 C1018 0.930 . S
H1011 C1019 0.930 . S
H1012 C1022 0.930 . S
H1013 C1023 0.930 . S
C1014 H1008 0.930 . S
C1014 C1015 1.355 . S
C1014 C1016 1.415 . S
C1015 C1014 1.355 . S
C1015 C1017 1.419 . S
C1016 C1014 1.415 . S
C1016 C1021 1.425 . S
C1016 C1023 1.409 . S
C1017 H1009 0.930 . S
C1017 C1015 1.419 . S
C1017 C1018 1.362 . S
C1018 H1010 0.930 . S
C1018 C1017 1.362 . S
C1018 C1021 1.409 . S
C1019 H1011 0.930 . S
C1019 C1020 1.355 . S
C1019 C1021 1.415 . S
C1020 C1019 1.355 . S
C1020 C1022 1.419 . S
C1021 C1016 1.425 . S
C1021 C1018 1.409 . S
C1021 C1019 1.415 . S
C1022 H1012 0.930 . S
C1022 C1020 1.419 . S
C1022 C1023 1.362 . S
C1023 H1013 0.930 . S
C1023 C1016 1.409 . S
C1023 C1022 1.362 . S
H1024 C1030 0.930 . S
H1025 C1033 0.930 . S
H1026 C1034 0.930 . S
H1027 C1035 0.930 . S
H1028 C1038 0.930 . S
H1029 C1039 0.930 . S
C1030 H1024 0.930 . S
C1030 C1031 1.355 . S
C1030 C1032 1.415 . S
C1031 C1030 1.355 . S
C1031 C1033 1.419 . S
C1032 C1030 1.415 . S
C1032 C1037 1.425 . S
C1032 C1039 1.409 1_455 S
C1033 H1025 0.930 . S
C1033 C1031 1.419 . S
C1033 C1034 1.362 . S
C1034 H1026 0.930 . S
C1034 C1033 1.362 . S
C1034 C1037 1.409 . S
C1035 H1027 0.930 . S
C1035 C1036 1.355 . S
C1035 C1037 1.415 1_655 S
C1036 C1035 1.355 . S
C1036 C1038 1.419 . S
C1037 C1032 1.425 . S
C1037 C1034 1.409 . S
C1037 C1035 1.415 1_455 S
C1038 H1028 0.930 . S
C1038 C1036 1.419 . S
C1038 C1039 1.362 . S
C1039 H1029 0.930 . S
C1039 C1032 1.409 1_655 S
C1039 C1038 1.362 . S
H1040 C1046 0.930 . S
H1041 C1049 0.930 . S
H1042 C1050 0.930 . S
H1043 C1051 0.930 . S
H1044 C1054 0.930 . S
H1045 C1055 0.930 1_545 S
C1046 H1040 0.930 . S
C1046 C1047 1.355 . S
C1046 C1048 1.415 . S
C1047 C1046 1.355 . S
C1047 C1049 1.419 . S
C1048 C1046 1.415 . S
C1048 C1053 1.425 1_545 S
C1048 C1055 1.409 1_545 S
C1049 H1041 0.930 . S
C1049 C1047 1.419 . S
C1049 C1050 1.362 1_545 S
C1050 H1042 0.930 . S
C1050 C1049 1.362 1_565 S
C1050 C1053 1.409 . S
C1051 H1043 0.930 . S
C1051 C1052 1.355 . S
C1051 C1053 1.415 . S
C1052 C1051 1.355 . S
C1052 C1054 1.419 . S
C1053 C1048 1.425 1_565 S
C1053 C1050 1.409 . S
C1053 C1051 1.415 . S
C1054 H1044 0.930 . S
C1054 C1052 1.419 . S
C1054 C1055 1.362 . S
C1055 H1045 0.930 1_565 S
C1055 C1048 1.409 1_565 S
C1055 C1054 1.362 . S
H1056 C1062 0.930 . S
H1057 C1065 0.930 . S
H1058 C1066 0.930 . S
H1059 C1067 0.930 . S
H1060 C1070 0.930 . S
H1061 C1071 0.930 . S
C1062 H1056 0.930 . S
C1062 C1063 1.355 . S
C1062 C1064 1.415 . S
C1063 C1062 1.355 . S
C1063 C1065 1.419 . S
C1064 C1062 1.415 . S
C1064 C1069 1.425 . S
C1064 C1071 1.409 . S
C1065 H1057 0.930 . S
C1065 C1063 1.419 . S
C1065 C1066 1.362 . S
C1066 H1058 0.930 . S
C1066 C1065 1.362 . S
C1066 C1069 1.409 . S
C1067 H1059 0.930 . S
C1067 C1068 1.355 . S
C1067 C1069 1.415 . S
C1068 C1067 1.355 . S
C1068 C1070 1.419 . S
C1069 C1064 1.425 . S
C1069 C1066 1.409 . S
C1069 C1067 1.415 . S
C1070 H1060 0.930 . S
C1070 C1068 1.419 . S
C1070 C1071 1.362 . S
C1071 H1061 0.930 . S
C1071 C1064 1.409 . S
C1071 C1070 1.362 . S
H1072 C1078 0.930 . S
H1073 C1081 0.930 . S
H1074 C1082 0.930 . S
H1075 C1083 0.930 . S
H1076 C1086 0.930 . S
H1077 C1087 0.930 . S
C1078 H1072 0.930 . S
C1078 C1079 1.355 . S
C1078 C1080 1.415 . S
C1079 C1078 1.355 . S
C1079 C1081 1.419 . S
C1080 C1078 1.415 . S
C1080 C1085 1.425 . S
C1080 C1087 1.409 1_455 S
C1081 H1073 0.930 . S
C1081 C1079 1.419 . S
C1081 C1082 1.362 . S
C1082 H1074 0.930 . S
C1082 C1081 1.362 . S
C1082 C1085 1.409 . S
C1083 H1075 0.930 . S
C1083 C1084 1.355 . S
C1083 C1085 1.415 1_655 S
C1084 C1083 1.355 . S
C1084 C1086 1.419 . S
C1085 C1080 1.425 . S
C1085 C1082 1.409 . S
C1085 C1083 1.415 1_455 S
C1086 H1076 0.930 . S
C1086 C1084 1.419 . S
C1086 C1087 1.362 . S
C1087 H1077 0.930 . S
C1087 C1080 1.409 1_655 S
C1087 C1086 1.362 . S
H1088 C1094 0.930 . S
H1089 C1097 0.930 . S
H1090 C1098 0.930 . S
H1091 C1099 0.930 . S
H1092 C1102 0.930 . S
H1093 C1103 0.930 . S
C1094 H1088 0.930 . S
C1094 C1095 1.355 . S
C1094 C1096 1.415 . S
C1095 C1094 1.355 . S
C1095 C1097 1.419 . S
C1096 C1094 1.415 . S
C1096 C1101 1.425 . S
C1096 C1103 1.409 1_565 S
C1097 H1089 0.930 . S
C1097 C1095 1.419 . S
C1097 C1098 1.362 . S
C1098 H1090 0.930 . S
C1098 C1097 1.362 . S
C1098 C1101 1.409 . S
C1099 H1091 0.930 . S
C1099 C1100 1.355 . S
C1099 C1101 1.415 1_545 S
C1100 C1099 1.355 . S
C1100 C1102 1.419 . S
C1101 C1096 1.425 . S
C1101 C1098 1.409 . S
C1101 C1099 1.415 1_565 S
C1102 H1092 0.930 . S
C1102 C1100 1.419 . S
C1102 C1103 1.362 . S
C1103 H1093 0.930 . S
C1103 C1096 1.409 1_545 S
C1103 C1102 1.362 . S
H1104 C1110 0.930 . S
H1105 C1113 0.930 . S
H1106 C1114 0.930 . S
H1107 C1115 0.930 . S
H1108 C1118 0.930 . S
H1109 C1119 0.930 . S
C1110 H1104 0.930 . S
C1110 C1111 1.355 . S
C1110 C1112 1.415 . S
C1111 C1110 1.355 . S
C1111 C1113 1.419 . S
C1112 C1110 1.415 . S
C1112 C1117 1.425 . S
C1112 C1119 1.409 . S
C1113 H1105 0.930 . S
C1113 C1111 1.419 . S
C1113 C1114 1.362 . S
C1114 H1106 0.930 . S
C1114 C1113 1.362 . S
C1114 C1117 1.409 . S
C1115 H1107 0.930 . S
C1115 C1116 1.355 . S
C1115 C1117 1.415 . S
C1116 C1115 1.355 . S
C1116 C1118 1.419 . S
C1117 C1112 1.425 . S
C1117 C1114 1.409 . S
C1117 C1115 1.415 . S
C1118 H1108 0.930 . S
C1118 C1116 1.419 . S
C1118 C1119 1.362 . S
C1119 H1109 0.930 . S
C1119 C1112 1.409 . S
C1119 C1118 1.362 . S
H1120 C1126 0.930 . S
H1121 C1129 0.930 . S
H1122 C1130 0.930 . S
H1123 C1131 0.930 . S
H1124 C1134 0.930 . S
H1125 C1135 0.930 . S
C1126 H1120 0.930 . S
C1126 C1127 1.355 . S
C1126 C1128 1.403 1_455 S
C1127 C1126 1.355 . S
C1127 C1129 1.419 . S
C1128 C1126 1.403 1_655 S
C1128 C1133 1.428 . S
C1128 C1135 1.418 . S
C1129 H1121 0.930 . S
C1129 C1127 1.419 . S
C1129 C1130 1.362 . S
C1130 H1122 0.930 . S
C1130 C1129 1.362 . S
C1130 C1133 1.409 1_455 S
C1131 H1123 0.930 . S
C1131 C1132 1.355 . S
C1131 C1133 1.415 . S
C1132 C1131 1.355 . S
C1132 C1134 1.419 . S
C1133 C1128 1.428 . S
C1133 C1130 1.409 1_655 S
C1133 C1131 1.415 . S
C1134 H1124 0.930 . S
C1134 C1132 1.419 . S
C1134 C1135 1.362 . S
C1135 H1125 0.930 . S
C1135 C1128 1.418 . S
C1135 C1134 1.362 . S
H1136 C1142 0.930 . S
H1137 C1145 0.930 . S
H1138 C1146 0.930 . S
H1139 C1147 0.930 . S
H1140 C1150 0.930 . S
H1141 C1151 0.930 . S
C1142 H1136 0.930 . S
C1142 C1143 1.355 . S
C1142 C1144 1.402 1_565 S
C1143 C1142 1.355 . S
C1143 C1145 1.419 . S
C1144 C1142 1.402 1_545 S
C1144 C1149 1.427 . S
C1144 C1151 1.420 . S
C1145 H1137 0.930 . S
C1145 C1143 1.419 . S
C1145 C1146 1.362 . S
C1146 H1138 0.930 . S
C1146 C1145 1.362 . S
C1146 C1149 1.409 1_565 S
C1147 H1139 0.930 . S
C1147 C1148 1.355 . S
C1147 C1149 1.415 . S
C1148 C1147 1.355 . S
C1148 C1150 1.419 . S
C1149 C1144 1.427 . S
C1149 C1146 1.409 1_545 S
C1149 C1147 1.415 . S
C1150 H1140 0.930 . S
C1150 C1148 1.419 . S
C1150 C1151 1.362 . S
C1151 H1141 0.930 . S
C1151 C1144 1.420 . S
C1151 C1150 1.362 . S
H1152 C1158 0.930 . S
H1153 C1161 0.930 . S
H1154 C1162 0.930 . S
H1155 C1163 0.930 . S
H1156 C1166 0.930 . S
H1157 C1167 0.930 . S
C1158 H1152 0.930 . S
C1158 C1159 1.355 . S
C1158 C1160 1.415 . S
C1159 C1158 1.355 . S
C1159 C1161 1.419 . S
C1160 C1158 1.415 . S
C1160 C1165 1.425 . S
C1160 C1167 1.409 . S
C1161 H1153 0.930 . S
C1161 C1159 1.419 . S
C1161 C1162 1.362 . S
C1162 H1154 0.930 . S
C1162 C1161 1.362 . S
C1162 C1165 1.409 . S
C1163 H1155 0.930 . S
C1163 C1164 1.355 . S
C1163 C1165 1.415 . S
C1164 C1163 1.355 . S
C1164 C1166 1.419 . S
C1165 C1160 1.425 . S
C1165 C1162 1.409 . S
C1165 C1163 1.415 . S
C1166 H1156 0.930 . S
C1166 C1164 1.419 . S
C1166 C1167 1.362 . S
C1167 H1157 0.930 . S
C1167 C1160 1.409 . S
C1167 C1166 1.362 . S
H1168 C1174 0.930 . S
H1169 C1177 0.930 . S
H1170 C1178 0.930 . S
H1171 C1179 0.930 . S
H1172 C1182 0.930 . S
H1173 C1183 0.930 . S
C1174 H1168 0.930 . S
C1174 C1175 1.355 . S
C1174 C1176 1.415 1_455 S
C1175 C1174 1.355 . S
C1175 C1177 1.419 . S
C1176 C1174 1.415 1_655 S
C1176 C1181 1.425 . S
C1176 C1183 1.409 . S
C1177 H1169 0.930 . S
C1177 C1175 1.419 . S
C1177 C1178 1.362 . S
C1178 H1170 0.930 . S
C1178 C1177 1.362 . S
C1178 C1181 1.409 1_455 S
C1179 H1171 0.930 . S
C1179 C1180 1.355 . S
C1179 C1181 1.415 . S
C1180 C1179 1.355 . S
C1180 C1182 1.419 . S
C1181 C1176 1.425 . S
C1181 C1178 1.409 1_655 S
C1181 C1179 1.415 . S
C1182 H1172 0.930 . S
C1182 C1180 1.419 . S
C1182 C1183 1.362 . S
C1183 H1173 0.930 . S
C1183 C1176 1.409 . S
C1183 C1182 1.362 . S
H1184 C1190 0.930 . S
H1185 C1193 0.930 . S
H1186 C1194 0.930 . S
H1187 C1195 0.930 . S
H1188 C1198 0.930 . S
H1189 C1199 0.930 . S
C1190 H1184 0.930 . S
C1190 C1191 1.355 . S
C1190 C1192 1.415 . S
C1191 C1190 1.355 . S
C1191 C1193 1.419 . S
C1192 C1190 1.415 . S
C1192 C1197 1.425 . S
C1192 C1199 1.409 1_545 S
C1193 H1185 0.930 . S
C1193 C1191 1.419 . S
C1193 C1194 1.362 . S
C1194 H1186 0.930 . S
C1194 C1193 1.362 . S
C1194 C1197 1.409 . S
C1195 H1187 0.930 . S
C1195 C1196 1.355 . S
C1195 C1197 1.415 1_565 S
C1196 C1195 1.355 . S
C1196 C1198 1.419 . S
C1197 C1192 1.425 . S
C1197 C1194 1.409 . S
C1197 C1195 1.415 1_545 S
C1198 H1188 0.930 . S
C1198 C1196 1.419 . S
C1198 C1199 1.362 . S
C1199 H1189 0.930 . S
C1199 C1192 1.409 1_565 S
C1199 C1198 1.362 . S
H1200 C1206 0.930 . S
H1201 C1209 0.930 . S
H1202 C1210 0.930 . S
H1203 C1211 0.930 . S
H1204 C1214 0.930 . S
H1205 C1215 0.930 . S
C1206 H1200 0.930 . S
C1206 C1207 1.355 . S
C1206 C1208 1.415 . S
C1207 C1206 1.355 . S
C1207 C1209 1.419 . S
C1208 C1206 1.415 . S
C1208 C1213 1.425 . S
C1208 C1215 1.409 . S
C1209 H1201 0.930 . S
C1209 C1207 1.419 . S
C1209 C1210 1.362 . S
C1210 H1202 0.930 . S
C1210 C1209 1.362 . S
C1210 C1213 1.409 . S
C1211 H1203 0.930 . S
C1211 C1212 1.355 . S
C1211 C1213 1.415 . S
C1212 C1211 1.355 . S
C1212 C1214 1.419 . S
C1213 C1208 1.425 . S
C1213 C1210 1.409 . S
C1213 C1211 1.415 . S
C1214 H1204 0.930 . S
C1214 C1212 1.419 . S
C1214 C1215 1.362 . S
C1215 H1205 0.930 . S
C1215 C1208 1.409 . S
C1215 C1214 1.362 . S
H1216 C1222 0.930 . S
H1217 C1225 0.930 . S
H1218 C1226 0.930 . S
H1219 C1227 0.930 . S
H1220 C1230 0.930 . S
H1221 C1231 0.930 . S
C1222 H1216 0.930 . S
C1222 C1223 1.355 . S
C1222 C1224 1.415 . S
C1223 C1222 1.355 . S
C1223 C1225 1.419 . S
C1224 C1222 1.415 . S
C1224 C1229 1.425 . S
C1224 C1231 1.409 . S
C1225 H1217 0.930 . S
C1225 C1223 1.419 . S
C1225 C1226 1.362 . S
C1226 H1218 0.930 . S
C1226 C1225 1.362 . S
C1226 C1229 1.409 . S
C1227 H1219 0.930 . S
C1227 C1228 1.355 . S
C1227 C1229 1.415 . S
C1228 C1227 1.355 . S
C1228 C1230 1.419 . S
C1229 C1224 1.425 . S
C1229 C1226 1.409 . S
C1229 C1227 1.415 . S
C1230 H1220 0.930 . S
C1230 C1228 1.419 . S
C1230 C1231 1.362 . S
C1231 H1221 0.930 . S
C1231 C1224 1.409 . S
C1231 C1230 1.362 . S
H1232 C1238 0.930 . S
H1233 C1241 0.930 . S
H1234 C1242 0.930 . S
H1235 C1243 0.930 . S
H1236 C1246 0.930 . S
H1237 C1247 0.930 . S
C1238 H1232 0.930 . S
C1238 C1239 1.355 . S
C1238 C1240 1.415 . S
C1239 C1238 1.355 . S
C1239 C1241 1.419 . S
C1240 C1238 1.415 . S
C1240 C1245 1.425 . S
C1240 C1247 1.409 . S
C1241 H1233 0.930 . S
C1241 C1239 1.419 . S
C1241 C1242 1.362 . S
C1242 H1234 0.930 . S
C1242 C1241 1.362 . S
C1242 C1245 1.409 . S
C1243 H1235 0.930 . S
C1243 C1244 1.355 . S
C1243 C1245 1.415 . S
C1244 C1243 1.355 . S
C1244 C1246 1.419 . S
C1245 C1240 1.425 . S
C1245 C1242 1.409 . S
C1245 C1243 1.415 . S
C1246 H1236 0.930 . S
C1246 C1244 1.419 . S
C1246 C1247 1.362 . S
C1247 H1237 0.930 . S
C1247 C1240 1.409 . S
C1247 C1246 1.362 . S
H1248 C1254 0.930 . S
H1249 C1257 0.930 . S
H1250 C1258 0.930 . S
H1251 C1259 0.930 . S
H1252 C1262 0.930 . S
H1253 C1263 0.930 . S
C1254 H1248 0.930 . S
C1254 C1255 1.355 . S
C1254 C1256 1.415 . S
C1255 C1254 1.355 . S
C1255 C1257 1.419 . S
C1256 C1254 1.415 . S
C1256 C1261 1.425 . S
C1256 C1263 1.409 . S
C1257 H1249 0.930 . S
C1257 C1255 1.419 . S
C1257 C1258 1.362 . S
C1258 H1250 0.930 . S
C1258 C1257 1.362 . S
C1258 C1261 1.409 . S
C1259 H1251 0.930 . S
C1259 C1260 1.355 . S
C1259 C1261 1.415 . S
C1260 C1259 1.355 . S
C1260 C1262 1.419 . S
C1261 C1256 1.425 . S
C1261 C1258 1.409 . S
C1261 C1259 1.415 . S
C1262 H1252 0.930 . S
C1262 C1260 1.419 . S
C1262 C1263 1.362 . S
C1263 H1253 0.930 . S
C1263 C1256 1.409 . S
C1263 C1262 1.362 . S
H1264 C1270 0.930 . S
H1265 C1273 0.930 . S
H1266 C1274 0.930 . S
H1267 C1275 0.930 . S
H1268 C1278 0.930 . S
H1269 C1279 0.930 . S
C1270 H1264 0.930 . S
C1270 C1271 1.355 . S
C1270 C1272 1.415 . S
C1271 C1270 1.355 . S
C1271 C1273 1.419 . S
C1272 C1270 1.415 . S
C1272 C1277 1.425 . S
C1272 C1279 1.409 . S
C1273 H1265 0.930 . S
C1273 C1271 1.419 . S
C1273 C1274 1.362 . S
C1274 H1266 0.930 . S
C1274 C1273 1.362 . S
C1274 C1277 1.409 . S
C1275 H1267 0.930 . S
C1275 C1276 1.355 . S
C1275 C1277 1.415 . S
C1276 C1275 1.355 . S
C1276 C1278 1.419 . S
C1277 C1272 1.425 . S
C1277 C1274 1.409 . S
C1277 C1275 1.415 . S
C1278 H1268 0.930 . S
C1278 C1276 1.419 . S
C1278 C1279 1.362 . S
C1279 H1269 0.930 . S
C1279 C1272 1.409 . S
C1279 C1278 1.362 . S
H1280 C1286 0.930 . S
H1281 C1289 0.930 . S
H1282 C1290 0.930 . S
H1283 C1291 0.930 . S
H1284 C1294 0.930 . S
H1285 C1295 0.930 . S
C1286 H1280 0.930 . S
C1286 C1287 1.355 . S
C1286 C1288 1.415 . S
C1287 C1286 1.355 . S
C1287 C1289 1.419 . S
C1288 C1286 1.415 . S
C1288 C1293 1.425 . S
C1288 C1295 1.409 . S
C1289 H1281 0.930 . S
C1289 C1287 1.419 . S
C1289 C1290 1.362 . S
C1290 H1282 0.930 . S
C1290 C1289 1.362 . S
C1290 C1293 1.409 . S
C1291 H1283 0.930 . S
C1291 C1292 1.355 . S
C1291 C1293 1.415 . S
C1292 C1291 1.355 . S
C1292 C1294 1.419 . S
C1293 C1288 1.425 . S
C1293 C1290 1.409 . S
C1293 C1291 1.415 . S
C1294 H1284 0.930 . S
C1294 C1292 1.419 . S
C1294 C1295 1.362 . S
C1295 H1285 0.930 . S
C1295 C1288 1.409 . S
C1295 C1294 1.362 . S
H1296 C1302 0.930 . S
H1297 C1305 0.930 . S
H1298 C1306 0.921 1_554 S
H1299 C1307 0.930 . S
H1300 C1310 0.930 . S
H1301 C1311 0.921 1_556 S
C1302 H1296 0.930 . S
C1302 C1303 1.355 . S
C1302 C1304 1.415 . S
C1303 C1302 1.355 . S
C1303 C1305 1.419 . S
C1304 C1302 1.415 . S
C1304 C1309 1.425 1_566 S
C1304 C1311 1.404 1_566 S
C1305 H1297 0.930 . S
C1305 C1303 1.419 . S
C1305 C1306 1.377 . S
C1306 H1298 0.921 1_556 S
C1306 C1305 1.377 . S
C1306 C1309 1.404 1_566 S
C1307 H1299 0.930 . S
C1307 C1308 1.355 . S
C1307 C1309 1.415 . S
C1308 C1307 1.355 . S
C1308 C1310 1.419 . S
C1309 C1304 1.425 1_544 S
C1309 C1306 1.404 1_544 S
C1309 C1307 1.415 . S
C1310 H1300 0.930 . S
C1310 C1308 1.419 . S
C1310 C1311 1.377 . S
C1311 H1301 0.921 1_554 S
C1311 C1304 1.404 1_544 S
C1311 C1310 1.377 . S
H1312 C1318 0.930 . S
H1313 C1321 0.930 . S
H1314 C1322 0.930 . S
H1315 C1323 0.930 . S
H1316 C1326 0.930 . S
H1317 C1327 0.930 . S
C1318 H1312 0.930 . S
C1318 C1319 1.355 . S
C1318 C1320 1.415 . S
C1319 C1318 1.355 . S
C1319 C1321 1.419 . S
C1320 C1318 1.415 . S
C1320 C1325 1.425 . S
C1320 C1327 1.409 . S
C1321 H1313 0.930 . S
C1321 C1319 1.419 . S
C1321 C1322 1.362 . S
C1322 H1314 0.930 . S
C1322 C1321 1.362 . S
C1322 C1325 1.409 . S
C1323 H1315 0.930 . S
C1323 C1324 1.355 . S
C1323 C1325 1.415 . S
C1324 C1323 1.355 . S
C1324 C1326 1.419 . S
C1325 C1320 1.425 . S
C1325 C1322 1.409 . S
C1325 C1323 1.415 . S
C1326 H1316 0.930 . S
C1326 C1324 1.419 . S
C1326 C1327 1.362 . S
C1327 H1317 0.930 . S
C1327 C1320 1.409 . S
C1327 C1326 1.362 . S
H1328 C1334 0.930 . S
H1329 C1337 0.930 . S
H1330 C1338 0.930 1_655 S
H1331 C1339 0.930 . S
H1332 C1342 0.930 . S
H1333 C1343 0.930 1_455 S
C1334 H1328 0.930 . S
C1334 C1335 1.355 . S
C1334 C1336 1.415 1_556 S
C1335 C1334 1.355 . S
C1335 C1337 1.419 . S
C1336 C1334 1.415 1_554 S
C1336 C1341 1.425 1_454 S
C1336 C1343 1.409 1_455 S
C1337 H1329 0.930 . S
C1337 C1335 1.419 . S
C1337 C1338 1.362 . S
C1338 H1330 0.930 1_455 S
C1338 C1337 1.362 . S
C1338 C1341 1.409 1_455 S
C1339 H1331 0.930 . S
C1339 C1340 1.355 . S
C1339 C1341 1.415 1_554 S
C1340 C1339 1.355 . S
C1340 C1342 1.419 . S
C1341 C1336 1.425 1_656 S
C1341 C1338 1.409 1_655 S
C1341 C1339 1.415 1_556 S
C1342 H1332 0.930 . S
C1342 C1340 1.419 . S
C1342 C1343 1.362 . S
C1343 H1333 0.930 1_655 S
C1343 C1336 1.409 1_655 S
C1343 C1342 1.362 . S
H1344 C1350 0.930 . S
H1345 C1353 0.930 . S
H1346 C1354 0.930 . S
H1347 C1355 0.930 . S
H1348 C1358 0.930 . S
H1349 C1359 0.930 . S
C1350 H1344 0.930 . S
C1350 C1351 1.355 . S
C1350 C1352 1.415 1_545 S
C1351 C1350 1.355 . S
C1351 C1353 1.419 . S
C1352 C1350 1.415 1_565 S
C1352 C1357 1.425 1_565 S
C1352 C1359 1.409 . S
C1353 H1345 0.930 . S
C1353 C1351 1.419 . S
C1353 C1354 1.362 . S
C1354 H1346 0.930 . S
C1354 C1353 1.362 . S
C1354 C1357 1.409 . S
C1355 H1347 0.930 . S
C1355 C1356 1.355 . S
C1355 C1357 1.415 1_565 S
C1356 C1355 1.355 . S
C1356 C1358 1.419 . S
C1357 C1352 1.425 1_545 S
C1357 C1354 1.409 . S
C1357 C1355 1.415 1_545 S
C1358 H1348 0.930 . S
C1358 C1356 1.419 . S
C1358 C1359 1.362 . S
C1359 H1349 0.930 . S
C1359 C1352 1.409 . S
C1359 C1358 1.362 . S
H1360 C1366 0.930 . S
H1361 C1369 0.930 . S
H1362 C1370 0.930 . S
H1363 C1371 0.930 . S
H1364 C1374 0.930 . S
H1365 C1375 0.930 . S
C1366 H1360 0.930 . S
C1366 C1367 1.355 . S
C1366 C1368 1.415 1_554 S
C1367 C1366 1.355 . S
C1367 C1369 1.419 . S
C1368 C1366 1.415 1_556 S
C1368 C1373 1.425 1_556 S
C1368 C1375 1.409 . S
C1369 H1361 0.930 . S
C1369 C1367 1.419 . S
C1369 C1370 1.362 . S
C1370 H1362 0.930 . S
C1370 C1369 1.362 . S
C1370 C1373 1.409 . S
C1371 H1363 0.930 . S
C1371 C1372 1.355 . S
C1371 C1373 1.415 1_556 S
C1372 C1371 1.355 . S
C1372 C1374 1.419 . S
C1373 C1368 1.425 1_554 S
C1373 C1370 1.409 . S
C1373 C1371 1.415 1_554 S
C1374 H1364 0.930 . S
C1374 C1372 1.419 . S
C1374 C1375 1.362 . S
C1375 H1365 0.930 . S
C1375 C1368 1.409 . S
C1375 C1374 1.362 . S
H1376 C1382 0.930 . S
H1377 C1385 0.930 . S
H1378 C1386 0.930 1_655 S
H1379 C1387 0.930 . S
H1380 C1390 0.930 . S
H1381 C1391 0.930 1_455 S
C1382 H1376 0.930 . S
C1382 C1383 1.355 . S
C1382 C1384 1.415 . S
C1383 C1382 1.355 . S
C1383 C1385 1.419 . S
C1384 C1382 1.415 . S
C1384 C1389 1.425 1_455 S
C1384 C1391 1.409 1_455 S
C1385 H1377 0.930 . S
C1385 C1383 1.419 . S
C1385 C1386 1.362 . S
C1386 H1378 0.930 1_455 S
C1386 C1385 1.362 . S
C1386 C1389 1.409 1_455 S
C1387 H1379 0.930 . S
C1387 C1388 1.355 . S
C1387 C1389 1.415 . S
C1388 C1387 1.355 . S
C1388 C1390 1.419 . S
C1389 C1384 1.425 1_655 S
C1389 C1386 1.409 1_655 S
C1389 C1387 1.415 . S
C1390 H1380 0.930 . S
C1390 C1388 1.419 . S
C1390 C1391 1.362 . S
C1391 H1381 0.930 1_655 S
C1391 C1384 1.409 1_655 S
C1391 C1390 1.362 . S
H1392 C1398 0.930 . S
H1393 C1401 0.930 . S
H1394 C1402 0.930 . S
H1395 C1403 0.930 . S
H1396 C1406 0.930 . S
H1397 C1407 0.930 . S
C1398 H1392 0.930 . S
C1398 C1399 1.355 . S
C1398 C1400 1.415 . S
C1399 C1398 1.355 . S
C1399 C1401 1.419 . S
C1400 C1398 1.415 . S
C1400 C1405 1.425 . S
C1400 C1407 1.409 . S
C1401 H1393 0.930 . S
C1401 C1399 1.419 . S
C1401 C1402 1.362 . S
C1402 H1394 0.930 . S
C1402 C1401 1.362 . S
C1402 C1405 1.409 . S
C1403 H1395 0.930 . S
C1403 C1404 1.355 . S
C1403 C1405 1.415 . S
C1404 C1403 1.355 . S
C1404 C1406 1.419 . S
C1405 C1400 1.425 . S
C1405 C1402 1.409 . S
C1405 C1403 1.415 . S
C1406 H1396 0.930 . S
C1406 C1404 1.419 . S
C1406 C1407 1.362 . S
C1407 H1397 0.930 . S
C1407 C1400 1.409 . S
C1407 C1406 1.362 . S
H1408 C1414 0.930 . S
H1409 C1417 0.930 . S
H1410 C1418 0.930 . S
H1411 C1419 0.930 . S
H1412 C1422 0.930 . S
H1413 C1423 0.930 . S
C1414 H1408 0.930 . S
C1414 C1415 1.355 . S
C1414 C1416 1.415 . S
C1415 C1414 1.355 . S
C1415 C1417 1.419 . S
C1416 C1414 1.415 . S
C1416 C1421 1.425 . S
C1416 C1423 1.409 . S
C1417 H1409 0.930 . S
C1417 C1415 1.419 . S
C1417 C1418 1.362 . S
C1418 H1410 0.930 . S
C1418 C1417 1.362 . S
C1418 C1421 1.409 . S
C1419 H1411 0.930 . S
C1419 C1420 1.355 . S
C1419 C1421 1.415 . S
C1420 C1419 1.355 . S
C1420 C1422 1.419 . S
C1421 C1416 1.425 . S
C1421 C1418 1.409 . S
C1421 C1419 1.415 . S
C1422 H1412 0.930 . S
C1422 C1420 1.419 . S
C1422 C1423 1.362 . S
C1423 H1413 0.930 . S
C1423 C1416 1.409 . S
C1423 C1422 1.362 . S
H1424 C1430 0.930 . S
H1425 C1433 0.930 . S
H1426 C1434 0.930 . S
H1427 C1435 0.930 . S
H1428 C1438 0.930 . S
H1429 C1439 0.930 . S
C1430 H1424 0.930 . S
C1430 C1431 1.355 . S
C1430 C1432 1.415 . S
C1431 C1430 1.355 . S
C1431 C1433 1.419 . S
C1432 C1430 1.415 . S
C1432 C1437 1.425 . S
C1432 C1439 1.409 . S
C1433 H1425 0.930 . S
C1433 C1431 1.419 . S
C1433 C1434 1.362 . S
C1434 H1426 0.930 . S
C1434 C1433 1.362 . S
C1434 C1437 1.409 . S
C1435 H1427 0.930 . S
C1435 C1436 1.355 . S
C1435 C1437 1.415 . S
C1436 C1435 1.355 . S
C1436 C1438 1.419 . S
C1437 C1432 1.425 . S
C1437 C1434 1.409 . S
C1437 C1435 1.415 . S
C1438 H1428 0.930 . S
C1438 C1436 1.419 . S
C1438 C1439 1.362 . S
C1439 H1429 0.930 . S
C1439 C1432 1.409 . S
C1439 C1438 1.362 . S
H1440 C1446 0.930 . S
H1441 C1449 0.930 . S
H1442 C1450 0.930 . S
H1443 C1451 0.930 . S
H1444 C1454 0.930 . S
H1445 C1455 0.930 . S
C1446 H1440 0.930 . S
C1446 C1447 1.355 . S
C1446 C1448 1.415 . S
C1447 C1446 1.355 . S
C1447 C1449 1.419 . S
C1448 C1446 1.415 . S
C1448 C1453 1.425 . S
C1448 C1455 1.409 . S
C1449 H1441 0.930 . S
C1449 C1447 1.419 . S
C1449 C1450 1.362 . S
C1450 H1442 0.930 . S
C1450 C1449 1.362 . S
C1450 C1453 1.409 . S
C1451 H1443 0.930 . S
C1451 C1452 1.355 . S
C1451 C1453 1.415 . S
C1452 C1451 1.355 . S
C1452 C1454 1.419 . S
C1453 C1448 1.425 . S
C1453 C1450 1.409 . S
C1453 C1451 1.415 . S
C1454 H1444 0.930 . S
C1454 C1452 1.419 . S
C1454 C1455 1.362 . S
C1455 H1445 0.930 . S
C1455 C1448 1.409 . S
C1455 C1454 1.362 . S
H1456 C1462 0.930 . S
H1457 C1465 0.930 . S
H1458 C1466 0.930 . S
H1459 C1467 0.930 . S
H1460 C1470 0.930 . S
H1461 C1471 0.930 . S
C1462 H1456 0.930 . S
C1462 C1463 1.355 . S
C1462 C1464 1.415 . S
C1463 C1462 1.355 . S
C1463 C1465 1.419 . S
C1464 C1462 1.415 . S
C1464 C1469 1.425 . S
C1464 C1471 1.409 . S
C1465 H1457 0.930 . S
C1465 C1463 1.419 . S
C1465 C1466 1.362 . S
C1466 H1458 0.930 . S
C1466 C1465 1.362 . S
C1466 C1469 1.409 . S
C1467 H1459 0.930 . S
C1467 C1468 1.355 . S
C1467 C1469 1.415 . S
C1468 C1467 1.355 . S
C1468 C1470 1.419 . S
C1469 C1464 1.425 . S
C1469 C1466 1.409 . S
C1469 C1467 1.415 . S
C1470 H1460 0.930 . S
C1470 C1468 1.419 . S
C1470 C1471 1.362 . S
C1471 H1461 0.930 . S
C1471 C1464 1.409 . S
C1471 C1470 1.362 . S
H1472 C1478 0.930 . S
H1473 C1481 0.930 . S
H1474 C1482 0.930 . S
H1475 C1483 0.930 . S
H1476 C1486 0.930 . S
H1477 C1487 0.930 . S
C1478 H1472 0.930 . S
C1478 C1479 1.355 . S
C1478 C1480 1.415 . S
C1479 C1478 1.355 . S
C1479 C1481 1.419 . S
C1480 C1478 1.415 . S
C1480 C1485 1.425 . S
C1480 C1487 1.409 . S
C1481 H1473 0.930 . S
C1481 C1479 1.419 . S
C1481 C1482 1.362 . S
C1482 H1474 0.930 . S
C1482 C1481 1.362 . S
C1482 C1485 1.409 . S
C1483 H1475 0.930 . S
C1483 C1484 1.355 . S
C1483 C1485 1.415 . S
C1484 C1483 1.355 . S
C1484 C1486 1.419 . S
C1485 C1480 1.425 . S
C1485 C1482 1.409 . S
C1485 C1483 1.415 . S
C1486 H1476 0.930 . S
C1486 C1484 1.419 . S
C1486 C1487 1.362 . S
C1487 H1477 0.930 . S
C1487 C1480 1.409 . S
C1487 C1486 1.362 . S
H1488 C1494 0.930 . S
H1489 C1497 0.930 . S
H1490 C1498 0.930 . S
H1491 C1499 0.930 . S
H1492 C1502 0.930 . S
H1493 C1503 0.930 . S
C1494 H1488 0.930 . S
C1494 C1495 1.355 . S
C1494 C1496 1.415 . S
C1495 C1494 1.355 . S
C1495 C1497 1.419 . S
C1496 C1494 1.415 . S
C1496 C1501 1.425 . S
C1496 C1503 1.409 . S
C1497 H1489 0.930 . S
C1497 C1495 1.419 . S
C1497 C1498 1.362 . S
C1498 H1490 0.930 . S
C1498 C1497 1.362 . S
C1498 C1501 1.409 . S
C1499 H1491 0.930 . S
C1499 C1500 1.355 . S
C1499 C1501 1.415 . S
C1500 C1499 1.355 . S
C1500 C1502 1.419 . S
C1501 C1496 1.425 . S
C1501 C1498 1.409 . S
C1501 C1499 1.415 . S
C1502 H1492 0.930 . S
C1502 C1500 1.419 . S
C1502 C1503 1.362 . S
C1503 H1493 0.930 . S
C1503 C1496 1.409 . S
C1503 C1502 1.362 . S
H1504 C1510 0.930 . S
H1505 C1513 0.930 . S
H1506 C1514 0.930 . S
H1507 C1515 0.930 . S
H1508 C1518 0.930 . S
H1509 C1519 0.930 . S
C1510 H1504 0.930 . S
C1510 C1511 1.355 . S
C1510 C1512 1.415 . S
C1511 C1510 1.355 . S
C1511 C1513 1.419 . S
C1512 C1510 1.415 . S
C1512 C1517 1.425 . S
C1512 C1519 1.409 . S
C1513 H1505 0.930 . S
C1513 C1511 1.419 . S
C1513 C1514 1.362 . S
C1514 H1506 0.930 . S
C1514 C1513 1.362 . S
C1514 C1517 1.409 . S
C1515 H1507 0.930 . S
C1515 C1516 1.355 . S
C1515 C1517 1.415 . S
C1516 C1515 1.355 . S
C1516 C1518 1.419 . S
C1517 C1512 1.425 . S
C1517 C1514 1.409 . S
C1517 C1515 1.415 . S
C1518 H1508 0.930 . S
C1518 C1516 1.419 . S
C1518 C1519 1.362 . S
C1519 H1509 0.930 . S
C1519 C1512 1.409 . S
C1519 C1518 1.362 . S
H1520 C1526 0.930 . S
H1521 C1529 0.930 . S
H1522 C1530 0.930 . S
H1523 C1531 0.930 . S
H1524 C1534 0.930 . S
H1525 C1535 0.930 . S
C1526 H1520 0.930 . S
C1526 C1527 1.355 . S
C1526 C1528 1.415 . S
C1527 C1526 1.355 . S
C1527 C1529 1.419 . S
C1528 C1526 1.415 . S
C1528 C1533 1.425 . S
C1528 C1535 1.409 . S
C1529 H1521 0.930 . S
C1529 C1527 1.419 . S
C1529 C1530 1.362 . S
C1530 H1522 0.930 . S
C1530 C1529 1.362 . S
C1530 C1533 1.409 . S
C1531 H1523 0.930 . S
C1531 C1532 1.355 . S
C1531 C1533 1.415 . S
C1532 C1531 1.355 . S
C1532 C1534 1.419 . S
C1533 C1528 1.425 . S
C1533 C1530 1.409 . S
C1533 C1531 1.415 . S
C1534 H1524 0.930 . S
C1534 C1532 1.419 . S
C1534 C1535 1.362 . S
C1535 H1525 0.930 . S
C1535 C1528 1.409 . S
C1535 C1534 1.362 . S
H1536 C1542 0.930 . S
H1537 C1545 0.930 . S
H1538 C1546 0.930 . S
H1539 C1547 0.930 . S
H1540 C1550 0.930 . S
H1541 C1551 0.930 . S
C1542 H1536 0.930 . S
C1542 C1543 1.355 . S
C1542 C1544 1.415 . S
C1543 C1542 1.355 . S
C1543 C1545 1.419 . S
C1544 C1542 1.415 . S
C1544 C1549 1.425 . S
C1544 C1551 1.409 . S
C1545 H1537 0.930 . S
C1545 C1543 1.419 . S
C1545 C1546 1.362 . S
C1546 H1538 0.930 . S
C1546 C1545 1.362 . S
C1546 C1549 1.409 . S
C1547 H1539 0.930 . S
C1547 C1548 1.355 . S
C1547 C1549 1.415 . S
C1548 C1547 1.355 . S
C1548 C1550 1.419 . S
C1549 C1544 1.425 . S
C1549 C1546 1.409 . S
C1549 C1547 1.415 . S
C1550 H1540 0.930 . S
C1550 C1548 1.419 . S
C1550 C1551 1.362 . S
C1551 H1541 0.930 . S
C1551 C1544 1.409 . S
C1551 C1550 1.362 . S
H1552 C1558 0.930 . S
H1553 C1561 0.930 . S
H1554 C1562 0.930 . S
H1555 C1563 0.930 . S
H1556 C1566 0.930 . S
H1557 C1567 0.930 . S
C1558 H1552 0.930 . S
C1558 C1559 1.355 . S
C1558 C1560 1.415 . S
C1559 C1558 1.355 . S
C1559 C1561 1.419 . S
C1560 C1558 1.415 . S
C1560 C1565 1.425 . S
C1560 C1567 1.409 . S
C1561 H1553 0.930 . S
C1561 C1559 1.419 . S
C1561 C1562 1.362 . S
C1562 H1554 0.930 . S
C1562 C1561 1.362 . S
C1562 C1565 1.409 . S
C1563 H1555 0.930 . S
C1563 C1564 1.355 . S
C1563 C1565 1.415 . S
C1564 C1563 1.355 . S
C1564 C1566 1.419 . S
C1565 C1560 1.425 . S
C1565 C1562 1.409 . S
C1565 C1563 1.415 . S
C1566 H1556 0.930 . S
C1566 C1564 1.419 . S
C1566 C1567 1.362 . S
C1567 H1557 0.930 . S
C1567 C1560 1.409 . S
C1567 C1566 1.362 . S
H1568 C1574 0.930 . S
H1569 C1577 0.930 . S
H1570 C1578 0.930 . S
H1571 C1579 0.930 . S
H1572 C1582 0.930 . S
H1573 C1583 0.930 . S
C1574 H1568 0.930 . S
C1574 C1575 1.355 . S
C1574 C1576 1.415 . S
C1575 C1574 1.355 . S
C1575 C1577 1.419 . S
C1576 C1574 1.415 . S
C1576 C1581 1.425 . S
C1576 C1583 1.409 . S
C1577 H1569 0.930 . S
C1577 C1575 1.419 . S
C1577 C1578 1.362 . S
C1578 H1570 0.930 . S
C1578 C1577 1.362 . S
C1578 C1581 1.409 . S
C1579 H1571 0.930 . S
C1579 C1580 1.355 . S
C1579 C1581 1.415 . S
C1580 C1579 1.355 . S
C1580 C1582 1.419 . S
C1581 C1576 1.425 . S
C1581 C1578 1.409 . S
C1581 C1579 1.415 . S
C1582 H1572 0.930 . S
C1582 C1580 1.419 . S
C1582 C1583 1.362 . S
C1583 H1573 0.930 . S
C1583 C1576 1.409 . S
C1583 C1582 1.362 . S
C1015 C226 1.179 . S
C1020 C67 1.291 . S
C1031 C321 1.109 . S
C1036 C140 1.280 . S
C1047 C235 1.268 . S
C1052 C394 1.085 . S
C1063 C308 1.265 . S
C1068 C489 1.069 . S
C1079 C58 1.084 . S
C1084 C403 1.273 . S
C1095 C153 1.179 . S
C1100 C476 1.296 . S
C1111 C909 1.172 . S
C1116 C560 1.295 . S
C1127 C655 1.265 . S
C1132 C982 1.058 . S
C1143 C728 1.301 . S
C1148 C573 1.202 . S
C1159 C823 1.275 . S
C1164 C646 1.093 . S
C1175 C896 1.263 . S
C1180 C741 1.054 . S
C1191 C814 1.058 . S
C1196 C991 1.265 . S
C1207 C315 1.935 . S
C1212 C74 1.880 . S
C1223 C147 1.874 . S
C1228 C410 1.941 . S
C1239 C242 1.896 . S
C1244 C483 1.919 . S
C1255 C567 1.894 . S
C1260 C830 1.921 . S
C1271 C662 1.892 . S
C1276 C903 1.923 . S
C1287 C735 1.938 . S
C1292 C998 1.877 . S
C1303 C651 2.193 . S
C1308 C63 2.172 . S
C1319 C158 2.156 . S
C1324 C746 2.158 . S
C1335 C819 2.185 . S
C1340 C231 2.160 . S
C1351 C326 2.191 . S
C1356 C914 2.191 . S
C1367 C399 2.183 . S
C1372 C987 2.159 . S
C1383 C578 2.156 . S
C1388 C494 2.180 . S
C1399 C237 1.324 . S
C1404 C56 1.429 . S
C1415 C151 1.414 . S
C1420 C310 1.208 . S
C1431 C224 1.399 . S
C1436 C405 1.240 . S
C1447 C319 1.424 . S
C1452 C478 1.317 . S
C1463 C69 1.227 . S
C1468 C392 1.422 . S
C1479 C142 1.271 . S
C1484 C487 1.433 . S
C1495 C898 1.199 . S
C1500 C571 1.396 . S
C1511 C644 1.399 . S
C1516 C993 1.238 . S
C1527 C739 1.411 . S
C1532 C562 1.284 . S
C1543 C657 1.255 . S
C1548 C812 1.430 . S
C1559 C907 1.437 . S
C1564 C730 1.295 . S
C1575 C980 1.431 . S
C1580 C825 1.258 . S
