# Generated by pormake.
# Topology uoo, (4)-cn, num edge types: 1
# Building blocks:
#     Node 0, Type 0, BuildingBlock: QUQFOY_clean_sbu_3, # of connection points: 4
#     Node 1, Type 0, BuildingBlock: QUQFOY_clean_sbu_3, # of connection points: 4
#     Node 2, Type 0, BuildingBlock: QUQFOY_clean_sbu_3, # of connection points: 4
#     Node 3, Type 0, BuildingBlock: QUQFOY_clean_sbu_3, # of connection points: 4
#     Node 4, Type 0, BuildingBlock: QUQFOY_clean_sbu_3, # of connection points: 4
#     Node 5, Type 0, BuildingBlock: QUQFOY_clean_sbu_3, # of connection points: 4
#     Edge 6, Type (0, 0), BuildingBlock: XUDNAN_clean_linker_2, # of connection points: 2
#     Edge 7, Type (0, 0), BuildingBlock: XUDNAN_clean_linker_2, # of connection points: 2
#     Edge 8, Type (0, 0), BuildingBlock: XUDNAN_clean_linker_2, # of connection points: 2
#     Edge 9, Type (0, 0), BuildingBlock: XUDNAN_clean_linker_2, # of connection points: 2
#     Edge 10, Type (0, 0), BuildingBlock: XUDNAN_clean_linker_2, # of connection points: 2
#     Edge 11, Type (0, 0), BuildingBlock: XUDNAN_clean_linker_2, # of connection points: 2
#     Edge 12, Type (0, 0), BuildingBlock: XUDNAN_clean_linker_2, # of connection points: 2
#     Edge 13, Type (0, 0), BuildingBlock: XUDNAN_clean_linker_2, # of connection points: 2
#     Edge 14, Type (0, 0), BuildingBlock: XUDNAN_clean_linker_2, # of connection points: 2
#     Edge 15, Type (0, 0), BuildingBlock: XUDNAN_clean_linker_2, # of connection points: 2
#     Edge 16, Type (0, 0), BuildingBlock: XUDNAN_clean_linker_2, # of connection points: 2
#     Edge 17, Type (0, 0), BuildingBlock: XUDNAN_clean_linker_2, # of connection points: 2
# Relax obj value: 0.206
# Max RMSD: 0.152
# Mean RMSD: 0.152
data_MOF--net-uoo--node1-QUQFOY_clean_sbu_3--edge1-XUDNAN_clean_linker_2
_symmetry_space_group_name_H-M    P1
_symmetry_Int_Tables_number       1
_symmetry_cell_setting            triclinic
loop_
_symmetry_equiv_pos_as_xyz
'x, y, z'
_cell_length_a     24.532199
_cell_length_b     24.053791
_cell_length_c     43.175371
_cell_angle_alpha  90.36639
_cell_angle_beta   89.669055
_cell_angle_gamma 119.84843
loop_
_atom_site_label
_atom_site_type_symbol
_atom_site_fract_x
_atom_site_fract_y
_atom_site_fract_z
_atom_type_partial_charge
C0 C 0.25825 0.36124 -0.00388 0.0
O1 O 0.24848 0.40507 -0.01368 0.0
Cd2 Cd 0.15156 0.38229 0.96475 0.0
O3 O 0.2133 0.30348 -0.00127 0.0
Cd4 Cd 0.09524 0.2433 -0.00448 0.0
C5 C 0.11597 0.24571 0.91895 0.0
O6 O 0.07916 0.33213 0.00486 0.0
O7 O 0.00565 0.2575 -0.02203 0.0
O8 O 0.08862 0.22865 0.0506 0.0
C9 C 0.02589 0.31011 -0.00746 0.0
O10 O 0.13167 0.30433 0.92334 0.0
C11 C 0.05141 0.16872 0.05111 0.0
O12 O 0.1017 0.20755 0.9419 0.0
O13 O 0.03601 0.13989 0.02504 0.0
C14 C 0.70293 0.07736 0.34214 0.0
O15 O 0.7227 0.11235 0.36625 0.0
Cd16 Cd 0.82903 0.18214 0.38003 0.0
O17 O 0.74087 0.07157 0.32377 0.0
Cd18 Cd 0.85721 0.11263 0.32332 0.0
C19 C 0.86889 0.06985 0.39801 0.0
O20 O 0.87169 0.21787 0.33014 0.0
O21 O 0.95876 0.21719 0.32927 0.0
O22 O 0.85084 0.10847 0.26711 0.0
C23 C 0.93075 0.24956 0.32936 0.0
O24 O 0.86503 0.11832 0.40671 0.0
C25 C 0.88348 0.0817 0.26241 0.0
O26 O 0.8618 0.05257 0.36961 0.0
O27 O 0.90184 0.06511 0.28629 0.0
C28 C 0.62065 0.91605 0.65072 0.0
O29 O 0.58414 0.86816 0.63421 0.0
Cd30 Cd 0.59229 0.77682 0.62474 0.0
O31 O 0.66841 0.91937 0.66433 0.0
Cd32 Cd 0.71061 0.84248 0.66861 0.0
C33 C 0.73858 0.85152 0.59058 0.0
O34 O 0.60672 0.75686 0.67696 0.0
O35 O 0.67021 0.72315 0.66575 0.0
O36 O 0.74074 0.87439 0.72312 0.0
C37 C 0.61644 0.71038 0.67564 0.0
O38 O 0.67964 0.81397 0.58789 0.0
C39 C 0.79113 0.87178 0.72173 0.0
O40 O 0.76271 0.87183 0.61724 0.0
O41 O 0.80617 0.86024 0.69526 0.0
C42 C 0.71336 0.57971 -0.01859 0.0
O43 O 0.74251 0.56032 0.96414 0.0
Cd44 Cd 0.85113 0.61279 0.95638 0.0
O45 O 0.74301 0.63397 -0.00474 0.0
Cd46 Cd 0.85954 0.71729 -0.0035 0.0
C47 C 0.87481 0.75065 0.92109 0.0
O48 O 0.88969 0.63895 0.00825 0.0
O49 O 0.95428 0.71223 0.97777 0.0
O50 O 0.84953 0.74054 0.05128 0.0
C51 C 0.94136 0.6634 -0.00603 0.0
O52 O 0.88004 0.70062 0.92011 0.0
C53 C 0.89598 0.79716 0.05138 0.0
O54 O 0.85936 0.76735 0.94627 0.0
O55 O 0.92245 0.81879 0.0254 0.0
C56 C 0.251 0.90695 0.34043 0.0
O57 O 0.23712 0.86975 0.36352 0.0
Cd58 Cd 0.13872 0.77926 0.37331 0.0
O59 O 0.20855 0.90296 0.32192 0.0
Cd60 Cd 0.08951 0.83801 0.31928 0.0
C61 C 0.06317 0.86007 0.39598 0.0
O62 O 0.1127 0.75356 0.32052 0.0
O63 O 0.01388 0.71741 0.31776 0.0
O64 O 0.11286 0.88943 0.26783 0.0
C65 C 0.05888 0.70572 0.31743 0.0
O66 O 0.08308 0.82179 0.40245 0.0
C67 C 0.05644 0.87256 0.26103 0.0
O68 O 0.06347 0.87723 0.368 0.0
O69 O 0.01543 0.84167 0.28166 0.0
C70 C 0.35338 0.09995 0.62514 0.0
O71 O 0.3587 0.13729 0.60319 0.0
Cd72 Cd 0.31596 0.20527 0.59874 0.0
O73 O 0.31329 0.08747 0.64699 0.0
Cd74 Cd 0.23269 0.12365 0.65512 0.0
C75 C 0.16689 0.09384 0.5824 0.0
O76 O 0.31999 0.23008 0.65154 0.0
O77 O 0.23248 0.22864 0.65628 0.0
O78 O 0.22856 0.10544 0.71214 0.0
C79 C 0.2919 0.26088 0.65644 0.0
O80 O 0.21407 0.14713 0.5749 0.0
C81 C 0.17263 0.09491 0.71501 0.0
O82 O 0.16414 0.06931 0.60891 0.0
O83 O 0.14313 0.08847 0.68999 0.0
H84 H 0.15568 0.04897 0.77611 0.0
H85 H 0.14983 0.19174 0.71744 0.0
H86 H 0.12948 0.24059 0.76287 0.0
H87 H 0.026 0.03555 0.82891 0.0
H88 H 0.06043 0.02301 0.863 0.0
H89 H 0.07148 -0.00433 0.82575 0.0
H90 H 0.19215 0.06104 0.83318 0.0
H91 H 0.18146 0.0887 0.87034 0.0
H92 H 0.22926 0.14583 0.84117 0.0
H93 H 0.11953 0.28033 0.81307 0.0
H94 H 0.11332 0.30702 0.86721 0.0
H95 H 0.11805 0.13694 0.89665 0.0
C96 C 0.14888 0.08973 0.773 0.0
C97 C 0.15353 0.11625 0.7432 0.0
C98 C 0.14514 0.16998 0.73993 0.0
C99 C 0.13382 0.19828 0.76562 0.0
C100 C 0.12943 0.1715 0.79459 0.0
C101 C 0.13541 0.11782 0.79863 0.0
C102 C 0.12789 0.09955 0.83282 0.0
C103 C 0.06791 0.0346 0.83792 0.0
C104 C 0.18619 0.09878 0.84509 0.0
C105 C 0.12114 0.15392 0.84723 0.0
C106 C 0.1214 0.19401 0.8244 0.0
C107 C 0.11834 0.2489 0.83121 0.0
C108 C 0.1151 0.26377 0.86221 0.0
C109 C 0.11505 0.22418 0.88643 0.0
C110 C 0.11733 0.16785 0.87874 0.0
H111 H 0.90386 0.16285 0.2152 0.0
H112 H 0.91348 -0.00698 0.23853 0.0
H113 H 0.95205 -0.00883 0.18527 0.0
H114 H 0.85755 0.12645 0.1354 0.0
H115 H 0.90732 0.20812 0.12311 0.0
H116 H 0.87566 0.19167 0.16184 0.0
H117 H -0.0118 0.25717 0.1843 0.0
H118 H 0.02015 0.27397 0.14568 0.0
H119 H 0.04703 0.23679 0.17312 0.0
H120 H -0.0121 0.00917 0.1274 0.0
H121 H 0.03053 0.05261 0.07493 0.0
H122 H 0.00559 0.21558 0.09407 0.0
C123 C 0.91294 0.12449 0.20899 0.0
C124 C 0.9044 0.07725 0.23069 0.0
C125 C 0.91901 0.02922 0.22203 0.0
C126 C 0.94071 0.02775 0.19185 0.0
C127 C 0.94861 0.07541 0.17094 0.0
C128 C 0.93603 0.12342 0.17952 0.0
C129 C 0.95318 0.17247 0.15422 0.0
C130 C 0.89495 0.17477 0.14298 0.0
C131 C 0.00523 0.239 0.16498 0.0
C132 C -0.02297 0.14466 0.12977 0.0
C133 C 0.97323 0.08811 0.13934 0.0
C134 C -0.0084 0.05366 0.11983 0.0
C135 C 0.01542 0.0784 0.09011 0.0
C136 C 0.02184 0.13767 0.08075 0.0
C137 C 0.00187 0.1705 0.10083 0.0
H138 H 0.77879 0.95074 0.41474 0.0
H139 H 0.96473 0.10356 0.43854 0.0
H140 H 0.95856 0.05046 0.48835 0.0
H141 H 0.71589 0.94643 0.48397 0.0
H142 H 0.66238 0.86129 0.48594 0.0
H143 H 0.68758 0.89951 0.44895 0.0
H144 H 0.72839 0.82232 0.43373 0.0
H145 H 0.70243 0.78298 0.47067 0.0
H146 H 0.78304 0.81483 0.4587 0.0
H147 H 0.92516 -0.00773 0.53891 0.0
H148 H 0.86551 0.93774 0.58614 0.0
H149 H 0.6992 0.82496 0.53028 0.0
C150 C 0.81959 0.97064 0.42968 0.0
C151 C 0.8732 0.02973 0.42244 0.0
C152 C 0.92422 0.05711 0.44333 0.0
C153 C 0.9211 0.02724 0.47165 0.0
C154 C 0.86643 0.9702 0.47883 0.0
C155 C 0.81659 0.94195 0.45831 0.0
C156 C 0.75916 0.88748 0.47357 0.0
C157 C 0.70301 0.89946 0.47308 0.0
C158 C 0.74228 0.82307 0.45825 0.0
C159 C 0.7834 0.89148 0.50619 0.0
C160 C 0.84582 0.93836 0.50862 0.0
C161 C 0.87657 0.95465 0.53714 0.0
C162 C 0.84223 0.92345 0.56391 0.0
C163 C 0.77756 0.87686 0.56206 0.0
C164 C 0.74867 0.85971 0.53259 0.0
H165 H 0.8131 0.8131 0.90077 0.0
H166 H 0.95639 0.76596 0.87494 0.0
H167 H 0.96274 0.81 0.82284 0.0
H168 H 0.73034 0.76314 0.83359 0.0
H169 H 0.70963 0.82511 0.8308 0.0
H170 H 0.72566 0.80348 0.86801 0.0
H171 H 0.81137 0.92146 0.87799 0.0
H172 H 0.7954 0.94362 0.84072 0.0
H173 H 0.87409 0.96206 0.85028 0.0
H174 H 0.94334 0.84369 0.77188 0.0
H175 H 0.89648 0.8606 0.72509 0.0
H176 H 0.76298 0.88347 0.78242 0.0
C177 C 0.84741 0.8144 0.88446 0.0
C178 C 0.88484 0.78689 0.89199 0.0
C179 C 0.92762 0.78723 0.86971 0.0
C180 C 0.9318 0.81245 0.84008 0.0
C181 C 0.89284 0.83726 0.83293 0.0
C182 C 0.85157 0.83876 0.85447 0.0
C183 C 0.80962 0.86075 0.83958 0.0
C184 C 0.7397 0.81008 0.8432 0.0
C185 C 0.82345 0.92585 0.85294 0.0
C186 C 0.83103 0.86732 0.80606 0.0
C187 C 0.88041 0.85545 0.80296 0.0
C188 C 0.90546 0.85426 0.77407 0.0
C189 C 0.87844 0.8639 0.74757 0.0
C190 C 0.82624 0.87375 0.75002 0.0
C191 C 0.80342 0.87705 0.77978 0.0
H192 H 0.94081 0.80936 0.23329 0.0
H193 H 0.13345 0.95866 0.21752 0.0
H194 H 0.10754 0.96768 0.16321 0.0
H195 H 0.92411 0.72959 0.16504 0.0
H196 H 0.84315 0.70675 0.15829 0.0
H197 H 0.87314 0.721 0.19713 0.0
H198 H 0.8382 0.80569 0.20522 0.0
H199 H 0.80765 0.79114 0.16632 0.0
H200 H 0.86427 0.87126 0.1784 0.0
H201 H 0.06419 0.95123 0.10913 0.0
H202 H 0.0094 0.90657 0.05964 0.0
H203 H 0.84615 0.76441 0.10999 0.0
C204 C -0.02297 0.84538 0.21867 0.0
C205 C 0.03902 0.88384 0.22976 0.0
C206 C 0.08556 0.92901 0.20961 0.0
C207 C 0.07118 0.93467 0.17874 0.0
C208 C 0.01002 0.89472 0.16826 0.0
C209 C 0.96362 0.85098 0.18767 0.0
C210 C 0.9038 0.80837 0.16986 0.0
C211 C 0.88501 0.73725 0.17275 0.0
C212 C 0.85032 0.81982 0.18059 0.0
C213 C 0.92467 0.83282 0.13719 0.0
C214 C -0.01446 0.88377 0.13687 0.0
C215 C 0.01627 0.91184 0.10918 0.0
C216 C -0.01537 0.88623 0.08113 0.0
C217 C 0.92336 0.83203 0.08086 0.0
C218 C 0.89265 0.80627 0.10938 0.0
H219 H 0.11118 0.96578 0.5695 0.0
H220 H 0.12457 0.14268 0.53814 0.0
H221 H 0.07436 0.09083 0.48885 0.0
H222 H 0.16107 0.9338 0.50474 0.0
H223 H 0.11178 0.84783 0.50433 0.0
H224 H 0.12916 0.89063 0.54036 0.0
H225 H 0.0103 0.84186 0.55181 0.0
H226 H -0.00778 0.79805 0.51575 0.0
H227 H 0.96049 0.85002 0.52382 0.0
H228 H 0.04533 0.02883 0.4394 0.0
H229 H 0.04508 0.96447 0.39449 0.0
H230 H 0.0517 0.82771 0.45716 0.0
C231 C 0.09988 -0.00782 0.55298 0.0
C232 C 0.12055 0.05776 0.55783 0.0
C233 C 0.1081 0.09203 0.53504 0.0
C234 C 0.07931 0.06283 0.50698 0.0
C235 C 0.06257 -0.00102 0.50203 0.0
C236 C 0.07178 0.96374 0.52459 0.0
C237 C 0.06064 0.90023 0.51161 0.0
C238 C 0.11914 0.89278 0.51548 0.0
C239 C 0.00243 0.84422 0.52664 0.0
C240 C 0.04857 0.90743 0.47787 0.0
C241 C 0.0477 0.96365 0.47294 0.0
C242 C 0.04439 -0.0161 0.44309 0.0
C243 C 0.04428 0.947 0.41764 0.0
C244 C 0.04839 0.89094 0.42219 0.0
C245 C 0.04795 0.86996 0.45281 0.0
H246 H 0.35544 0.47453 0.01696 0.0
H247 H 0.30863 0.2849 -0.01552 0.0
H248 H 0.42154 0.31897 -0.01822 0.0
H249 H 0.4806 0.56276 0.97078 0.0
H250 H 0.52997 0.62226 -0.00117 0.0
H251 H 0.44599 0.58104 0.00345 0.0
H252 H 0.45558 0.54342 0.05816 0.0
H253 H 0.53995 0.58572 0.05406 0.0
H254 H 0.49868 0.50151 0.06321 0.0
H255 H 0.53606 0.37758 0.97371 0.0
H256 H 0.6483 0.45318 0.96678 0.0
H257 H 0.62423 0.60574 0.007 0.0
C258 C 0.36913 0.43973 0.01026 0.0
C259 C 0.3237 0.37706 0.00101 0.0
C260 C 0.34283 0.33275 -0.00791 0.0
C261 C 0.40678 0.3518 -0.00964 0.0
C262 C 0.45055 0.41468 -0.00152 0.0
C263 C 0.43275 0.45758 0.00908 0.0
C264 C 0.48952 0.52321 0.01488 0.0
C265 C 0.48629 0.57535 -0.00417 0.0
C266 C 0.49634 0.53942 0.04965 0.0
C267 C 0.54171 0.51172 0.00361 0.0
C268 C 0.51793 0.44848 -0.00532 0.0
C269 C 0.55554 0.42678 -0.01867 0.0
C270 C 0.61933 0.47052 0.97726 0.0
C271 C 0.64536 0.53561 -0.01354 0.0
C272 C 0.60592 0.55627 7e-05 0.0
H273 H 0.87676 0.32463 0.33161 0.0
H274 H 0.05799 0.33412 0.32589 0.0
H275 H 0.11019 0.45252 0.32251 0.0
H276 H 0.90904 0.44738 0.27753 0.0
H277 H 0.866 0.47848 0.29836 0.0
H278 H 0.84335 0.39515 0.30175 0.0
H279 H 0.85432 0.40705 0.36143 0.0
H280 H 0.87654 0.49033 0.35826 0.0
H281 H 0.92722 0.46793 0.37802 0.0
H282 H 0.14144 0.56851 0.31814 0.0
H283 H 0.15135 0.67513 0.31452 0.0
H284 H 0.94877 0.58947 0.3227 0.0
C285 C 0.92754 0.35148 0.32987 0.0
C286 C 0.96351 0.32027 0.32902 0.0
C287 C 0.02969 0.35717 0.32665 0.0
C288 C 0.05959 0.42427 0.32468 0.0
C289 C 0.02247 0.4533 0.32517 0.0
C290 C 0.95793 0.41811 0.32786 0.0
C291 C 0.92862 0.46065 0.32737 0.0
C292 C 0.88414 0.44444 0.29959 0.0
C293 C 0.89469 0.45622 0.3581 0.0
C294 C -0.01316 0.52559 0.32365 0.0
C295 C 0.04041 0.52016 0.32253 0.0
C296 C 0.09989 0.57333 0.3191 0.0
C297 C 0.10488 0.63369 0.31702 0.0
C298 C 0.05073 0.64062 0.31834 0.0
C299 C -0.0091 0.58567 0.32153 0.0
H300 H 0.36686 0.02251 0.66867 0.0
H301 H 0.44981 0.13202 0.58471 0.0
H302 H 0.53783 0.11212 0.58907 0.0
H303 H 0.51475 0.06863 0.70893 0.0
H304 H 0.48802 -0.01011 0.72457 0.0
H305 H 0.43248 0.01664 0.71721 0.0
H306 H 0.36684 0.91753 0.68216 0.0
H307 H 0.42111 0.88977 0.69025 0.0
H308 H 0.40506 0.90048 0.65071 0.0
H309 H 0.61653 0.08103 0.60097 0.0
H310 H 0.66874 0.01885 0.6135 0.0
H311 H 0.53502 0.92394 0.68764 0.0
C312 C 0.40349 0.04216 0.65123 0.0
C313 C 0.40137 0.07961 0.62663 0.0
C314 C 0.45007 0.10367 0.60403 0.0
C315 C 0.50099 0.09328 0.6064 0.0
C316 C 0.50278 0.05816 0.63133 0.0
C317 C 0.45473 0.03139 0.65292 0.0
C318 C 0.46586 -0.00988 0.67557 0.0
C319 C 0.47586 0.018 0.70853 0.0
C320 C 0.41151 0.92034 0.67459 0.0
C321 C 0.52634 -0.0036 0.66255 0.0
C322 C 0.54786 0.03784 0.63769 0.0
C323 C 0.60085 0.04913 0.62067 0.0
C324 C 0.63076 0.01437 0.62816 0.0
C325 C 0.60697 0.96857 0.65209 0.0
C326 C 0.55541 0.96082 0.67009 0.0
H327 H 0.41005 0.33954 0.63584 0.0
H328 H 0.25626 0.3389 0.68628 0.0
H329 H 0.32462 0.45465 0.69799 0.0
H330 H 0.53231 0.44119 0.68549 0.0
H331 H 0.58857 0.48263 0.65506 0.0
H332 H 0.52674 0.40123 0.64919 0.0
H333 H 0.49005 0.43477 0.60011 0.0
H334 H 0.55254 0.5161 0.60545 0.0
H335 H 0.47237 0.49897 0.60263 0.0
H336 H 0.41156 0.5681 0.70612 0.0
H337 H 0.50733 0.67443 0.70626 0.0
H338 H 0.60399 0.59937 0.65042 0.0
C339 C 0.39047 0.3639 0.64909 0.0
C340 C 0.3281 0.33075 0.66027 0.0
C341 C 0.30386 0.36398 0.67734 0.0
C342 C 0.34243 0.42934 0.68424 0.0
C343 C 0.40444 0.46017 0.67354 0.0
C344 C 0.42792 0.42874 0.65591 0.0
C345 C 0.49596 0.47248 0.64707 0.0
C346 C 0.53837 0.4479 0.65999 0.0
C347 C 0.50313 0.4811 0.61172 0.0
C348 C 0.50784 0.53346 0.66309 0.0
C349 C 0.4544 0.52534 0.67817 0.0
C350 C 0.45352 0.57507 0.6943 0.0
C351 C 0.50817 0.63512 0.69431 0.0
C352 C 0.56292 0.64484 0.67839 0.0
C353 C 0.56304 0.59304 0.66306 0.0
H354 H -0.02408 0.60256 0.0354 0.0
H355 H 0.96172 0.62793 0.9371 0.0
H356 H -0.02473 0.53446 0.92588 0.0
H357 H 0.09834 0.55397 0.02652 0.0
H358 H 0.06696 0.49969 0.05879 0.0
H359 H 0.06046 0.57104 0.05811 0.0
H360 H 0.94001 0.50057 0.06553 0.0
H361 H 0.94575 0.42883 0.06501 0.0
H362 H 0.895 0.43778 0.03794 0.0
H363 H -0.02463 0.42907 0.92636 0.0
H364 H -0.0101 0.33615 0.9373 0.0
H365 H 0.01332 0.3863 0.03479 0.0
C366 C -0.02193 0.58973 0.0115 0.0
C367 C 0.96841 0.62232 -0.01293 0.0
C368 C 0.97031 0.604 0.95605 0.0
C369 C -0.02295 0.55052 0.94952 0.0
C370 C -0.01651 0.51734 0.97428 0.0
C371 C -0.01335 0.5378 0.00457 0.0
C372 C -0.0045 0.49482 0.02692 0.0
C373 C 0.0591 0.53209 0.04356 0.0
C374 C 0.94079 0.46367 0.05021 0.0
C375 C -0.00521 0.4458 0.00459 0.0
C376 C -0.01321 0.45891 0.97437 0.0
C377 C -0.01743 0.41885 0.94987 0.0
C378 C -0.01012 0.36576 0.95631 0.0
C379 C 0.00213 0.35426 -0.01314 0.0
C380 C 0.00343 0.39404 0.01128 0.0
H381 H 0.60667 0.04288 0.38265 0.0
H382 H 0.6479 0.04889 0.28453 0.0
H383 H 0.53702 0.01605 0.27252 0.0
H384 H 0.45223 0.90316 0.37886 0.0
H385 H 0.42168 0.93261 0.40887 0.0
H386 H 0.50366 0.95593 0.40855 0.0
H387 H 0.53232 0.07535 0.409 0.0
H388 H 0.45034 0.05231 0.40837 0.0
H389 H 0.50269 0.10469 0.37888 0.0
H390 H 0.4205 -0.01466 0.27202 0.0
H391 H 0.30729 0.9429 0.28319 0.0
H392 H 0.34647 0.95841 0.38162 0.0
C393 C 0.59233 0.03682 0.35861 0.0
C394 C 0.63567 0.04851 0.3345 0.0
C395 C 0.6151 0.03956 0.30335 0.0
C396 C 0.5525 0.0217 0.29633 0.0
C397 C 0.51139 0.0126 0.32078 0.0
C398 C 0.53044 0.01867 0.35128 0.0
C399 C 0.4773 0.00387 0.37352 0.0
C400 C 0.46286 0.94542 0.39362 0.0
C401 C 0.49155 0.06257 0.39362 0.0
C402 C 0.42509 -0.01126 0.35086 0.0
C403 C 0.44541 -0.00541 0.32051 0.0
C404 C 0.40422 0.98077 0.29572 0.0
C405 C 0.34019 0.95747 0.30224 0.0
C406 C 0.31838 0.94776 0.33326 0.0
C407 C 0.36193 0.96583 0.35769 0.0
loop_
_geom_bond_atom_site_label_1
_geom_bond_atom_site_label_2
_geom_bond_distance
_geom_bond_site_symmetry_2
_ccdc_geom_bond_type
C0 O1 1.306 1_554 S
C0 O3 1.160 . S
O1 C0 1.306 1_556 S
O1 Cd2 2.228 . S
Cd2 O1 2.228 . S
Cd2 O6 2.273 1_556 S
Cd2 O10 2.277 . S
O3 C0 1.160 . S
O3 Cd4 2.203 . S
Cd4 O3 2.203 . S
Cd4 O6 2.411 . S
Cd4 O7 2.333 . S
Cd4 O8 2.352 . S
Cd4 O12 2.277 1_554 S
Cd4 O13 2.356 . S
C5 O10 1.209 . S
C5 O12 1.226 . S
O6 Cd2 2.273 1_554 S
O6 Cd4 2.411 . S
O6 C9 1.323 . S
O7 Cd4 2.333 . S
O7 C9 1.219 . S
O8 Cd4 2.352 . S
O8 C11 1.258 . S
C9 O6 1.323 . S
C9 O7 1.219 . S
O10 Cd2 2.277 . S
O10 C5 1.209 . S
C11 O8 1.258 . S
C11 O13 1.282 . S
O12 Cd4 2.277 1_556 S
O12 C5 1.226 . S
O13 Cd4 2.356 . S
O13 C11 1.282 . S
C14 O15 1.306 . S
C14 O17 1.160 . S
O15 C14 1.306 . S
O15 Cd16 2.228 . S
Cd16 O15 2.228 . S
Cd16 O20 2.273 . S
Cd16 O24 2.277 . S
O17 C14 1.160 . S
O17 Cd18 2.203 . S
Cd18 O17 2.203 . S
Cd18 O20 2.411 . S
Cd18 O21 2.333 . S
Cd18 O22 2.352 . S
Cd18 O26 2.277 . S
Cd18 O27 2.356 . S
C19 O24 1.209 . S
C19 O26 1.226 . S
O20 Cd16 2.273 . S
O20 Cd18 2.411 . S
O20 C23 1.320 . S
O21 Cd18 2.333 . S
O21 C23 1.214 . S
O22 Cd18 2.352 . S
O22 C25 1.258 . S
C23 O20 1.320 . S
C23 O21 1.214 . S
O24 Cd16 2.277 . S
O24 C19 1.209 . S
C25 O22 1.258 . S
C25 O27 1.282 . S
O26 Cd18 2.277 . S
O26 C19 1.226 . S
O27 Cd18 2.356 . S
O27 C25 1.282 . S
C28 O29 1.306 . S
C28 O31 1.160 . S
O29 C28 1.306 . S
O29 Cd30 2.228 . S
Cd30 O29 2.228 . S
Cd30 O34 2.273 . S
Cd30 O38 2.277 . S
O31 C28 1.160 . S
O31 Cd32 2.203 . S
Cd32 O31 2.203 . S
Cd32 O34 2.411 . S
Cd32 O35 2.333 . S
Cd32 O36 2.352 . S
Cd32 O40 2.277 . S
Cd32 O41 2.356 . S
C33 O38 1.209 . S
C33 O40 1.226 . S
O34 Cd30 2.273 . S
O34 Cd32 2.411 . S
O34 C37 1.320 . S
O35 Cd32 2.333 . S
O35 C37 1.214 . S
O36 Cd32 2.352 . S
O36 C39 1.258 . S
C37 O34 1.320 . S
C37 O35 1.214 . S
O38 Cd30 2.277 . S
O38 C33 1.209 . S
C39 O36 1.258 . S
C39 O41 1.282 . S
O40 Cd32 2.277 . S
O40 C33 1.226 . S
O41 Cd32 2.356 . S
O41 C39 1.282 . S
C42 O43 1.306 1_554 S
C42 O45 1.160 . S
O43 C42 1.306 1_556 S
O43 Cd44 2.228 . S
Cd44 O43 2.228 . S
Cd44 O48 2.273 1_556 S
Cd44 O52 2.277 . S
O45 C42 1.160 . S
O45 Cd46 2.203 . S
Cd46 O45 2.203 . S
Cd46 O48 2.411 . S
Cd46 O49 2.333 . S
Cd46 O50 2.352 . S
Cd46 O54 2.277 1_554 S
Cd46 O55 2.356 . S
C47 O52 1.209 . S
C47 O54 1.226 . S
O48 Cd44 2.273 1_554 S
O48 Cd46 2.411 . S
O48 C51 1.323 . S
O49 Cd46 2.333 . S
O49 C51 1.219 . S
O50 Cd46 2.352 . S
O50 C53 1.258 . S
C51 O48 1.323 . S
C51 O49 1.219 . S
O52 Cd44 2.277 . S
O52 C47 1.209 . S
C53 O50 1.258 . S
C53 O55 1.282 . S
O54 Cd46 2.277 1_556 S
O54 C47 1.226 . S
O55 Cd46 2.356 . S
O55 C53 1.282 . S
C56 O57 1.306 . S
C56 O59 1.160 . S
O57 C56 1.306 . S
O57 Cd58 2.228 . S
Cd58 O57 2.228 . S
Cd58 O62 2.273 . S
Cd58 O66 2.277 . S
O59 C56 1.160 . S
O59 Cd60 2.203 . S
Cd60 O59 2.203 . S
Cd60 O62 2.411 . S
Cd60 O63 2.333 . S
Cd60 O64 2.352 . S
Cd60 O68 2.277 . S
Cd60 O69 2.356 . S
C61 O66 1.209 . S
C61 O68 1.226 . S
O62 Cd58 2.273 . S
O62 Cd60 2.411 . S
O62 C65 1.320 . S
O63 Cd60 2.333 . S
O63 C65 1.214 . S
O64 Cd60 2.352 . S
O64 C67 1.258 . S
C65 O62 1.320 . S
C65 O63 1.214 . S
O66 Cd58 2.277 . S
O66 C61 1.209 . S
C67 O64 1.258 . S
C67 O69 1.282 . S
O68 Cd60 2.277 . S
O68 C61 1.226 . S
O69 Cd60 2.356 . S
O69 C67 1.282 . S
C70 O71 1.306 . S
C70 O73 1.160 . S
O71 C70 1.306 . S
O71 Cd72 2.228 . S
Cd72 O71 2.228 . S
Cd72 O76 2.273 . S
Cd72 O80 2.277 . S
O73 C70 1.160 . S
O73 Cd74 2.203 . S
Cd74 O73 2.203 . S
Cd74 O76 2.411 . S
Cd74 O77 2.333 . S
Cd74 O78 2.352 . S
Cd74 O82 2.277 . S
Cd74 O83 2.356 . S
C75 O80 1.209 . S
C75 O82 1.226 . S
O76 Cd72 2.273 . S
O76 Cd74 2.411 . S
O76 C79 1.320 . S
O77 Cd74 2.333 . S
O77 C79 1.214 . S
O78 Cd74 2.352 . S
O78 C81 1.258 . S
C79 O76 1.320 . S
C79 O77 1.214 . S
O80 Cd72 2.277 . S
O80 C75 1.209 . S
C81 O78 1.258 . S
C81 O83 1.282 . S
O82 Cd74 2.277 . S
O82 C75 1.226 . S
O83 Cd74 2.356 . S
O83 C81 1.282 . S
H84 C96 0.930 . S
H85 C98 0.930 . S
H86 C99 0.930 . S
H87 C103 0.959 . S
H88 C103 0.959 . S
H89 C103 0.961 . S
H90 C104 0.960 . S
H91 C104 0.961 . S
H92 C104 0.959 . S
H93 C107 0.929 . S
H94 C108 0.931 . S
H95 C110 0.930 . S
C96 H84 0.930 . S
C96 C97 1.399 . S
C96 C101 1.399 . S
C97 C96 1.399 . S
C97 C98 1.376 . S
C98 H85 0.930 . S
C98 C97 1.376 . S
C98 C99 1.388 . S
C99 H86 0.930 . S
C99 C98 1.388 . S
C99 C100 1.390 . S
C100 C99 1.390 . S
C100 C101 1.394 . S
C100 C106 1.465 . S
C101 C96 1.399 . S
C101 C100 1.394 . S
C101 C102 1.516 . S
C102 C101 1.516 . S
C102 C103 1.502 . S
C102 C104 1.561 . S
C102 C105 1.526 . S
C103 H87 0.959 . S
C103 H88 0.959 . S
C103 H89 0.961 . S
C103 C102 1.502 . S
C104 H90 0.960 . S
C104 H91 0.961 . S
C104 H92 0.959 . S
C104 C102 1.561 . S
C105 C102 1.526 . S
C105 C106 1.396 . S
C105 C110 1.390 . S
C106 C100 1.465 . S
C106 C105 1.396 . S
C106 C107 1.399 . S
C107 H93 0.929 . S
C107 C106 1.399 . S
C107 C108 1.385 . S
C108 H94 0.931 . S
C108 C107 1.385 . S
C108 C109 1.389 . S
C109 C108 1.389 . S
C109 C110 1.387 . S
C110 H95 0.930 . S
C110 C105 1.390 . S
C110 C109 1.387 . S
H111 C123 0.930 . S
H112 C125 0.930 . S
H113 C126 0.930 . S
H114 C130 0.959 . S
H115 C130 0.959 . S
H116 C130 0.961 . S
H117 C131 0.960 . S
H118 C131 0.961 . S
H119 C131 0.959 . S
H120 C134 0.929 . S
H121 C135 0.931 . S
H122 C137 0.930 . S
C123 H111 0.930 . S
C123 C124 1.399 . S
C123 C128 1.399 . S
C124 C123 1.399 . S
C124 C125 1.376 . S
C125 H112 0.930 . S
C125 C124 1.376 . S
C125 C126 1.388 . S
C126 H113 0.930 . S
C126 C125 1.388 . S
C126 C127 1.390 . S
C127 C126 1.390 . S
C127 C128 1.394 . S
C127 C133 1.465 1_655 S
C128 C123 1.399 . S
C128 C127 1.394 . S
C128 C129 1.516 1_655 S
C129 C128 1.516 1_455 S
C129 C130 1.502 1_455 S
C129 C131 1.561 . S
C129 C132 1.526 . S
C130 H114 0.959 . S
C130 H115 0.959 . S
C130 H116 0.961 . S
C130 C129 1.502 1_655 S
C131 H117 0.960 . S
C131 H118 0.961 . S
C131 H119 0.959 . S
C131 C129 1.561 . S
C132 C129 1.526 . S
C132 C133 1.396 . S
C132 C137 1.390 . S
C133 C127 1.465 1_455 S
C133 C132 1.396 . S
C133 C134 1.399 . S
C134 H120 0.929 . S
C134 C133 1.399 . S
C134 C135 1.385 . S
C135 H121 0.931 . S
C135 C134 1.385 . S
C135 C136 1.389 . S
C136 C135 1.389 . S
C136 C137 1.387 . S
C137 H122 0.930 . S
C137 C132 1.390 . S
C137 C136 1.387 . S
H138 C150 0.930 1_565 S
H139 C152 0.930 . S
H140 C153 0.930 . S
H141 C157 0.959 . S
H142 C157 0.959 . S
H143 C157 0.961 . S
H144 C158 0.960 . S
H145 C158 0.961 . S
H146 C158 0.959 . S
H147 C161 0.929 . S
H148 C162 0.931 . S
H149 C164 0.930 . S
C150 H138 0.930 1_545 S
C150 C151 1.399 . S
C150 C155 1.399 1_545 S
C151 C150 1.399 . S
C151 C152 1.376 . S
C152 H139 0.930 . S
C152 C151 1.376 . S
C152 C153 1.388 . S
C153 H140 0.930 . S
C153 C152 1.388 . S
C153 C154 1.390 . S
C154 C153 1.390 . S
C154 C155 1.394 1_545 S
C154 C160 1.465 . S
C155 C150 1.399 1_565 S
C155 C154 1.394 1_565 S
C155 C156 1.516 . S
C156 C155 1.516 . S
C156 C157 1.502 . S
C156 C158 1.561 . S
C156 C159 1.526 . S
C157 H141 0.959 . S
C157 H142 0.959 . S
C157 H143 0.961 . S
C157 C156 1.502 . S
C158 H144 0.960 . S
C158 H145 0.961 . S
C158 H146 0.959 . S
C158 C156 1.561 . S
C159 C156 1.526 . S
C159 C160 1.396 1_565 S
C159 C164 1.390 . S
C160 C154 1.465 . S
C160 C159 1.396 1_545 S
C160 C161 1.399 . S
C161 H147 0.929 . S
C161 C160 1.399 . S
C161 C162 1.385 1_545 S
C162 H148 0.931 . S
C162 C161 1.385 1_565 S
C162 C163 1.389 . S
C163 C162 1.389 . S
C163 C164 1.387 . S
C164 H149 0.930 . S
C164 C159 1.390 . S
C164 C163 1.387 . S
H165 C177 0.930 . S
H166 C179 0.930 . S
H167 C180 0.930 . S
H168 C184 0.959 . S
H169 C184 0.959 . S
H170 C184 0.961 . S
H171 C185 0.960 . S
H172 C185 0.961 . S
H173 C185 0.959 . S
H174 C188 0.929 . S
H175 C189 0.931 . S
H176 C191 0.930 . S
C177 H165 0.930 . S
C177 C178 1.399 . S
C177 C182 1.399 . S
C178 C177 1.399 . S
C178 C179 1.376 . S
C179 H166 0.930 . S
C179 C178 1.376 . S
C179 C180 1.388 . S
C180 H167 0.930 . S
C180 C179 1.388 . S
C180 C181 1.390 . S
C181 C180 1.390 . S
C181 C182 1.394 . S
C181 C187 1.465 . S
C182 C177 1.399 . S
C182 C181 1.394 . S
C182 C183 1.516 . S
C183 C182 1.516 . S
C183 C184 1.502 . S
C183 C185 1.561 . S
C183 C186 1.526 . S
C184 H168 0.959 . S
C184 H169 0.959 . S
C184 H170 0.961 . S
C184 C183 1.502 . S
C185 H171 0.960 . S
C185 H172 0.961 . S
C185 H173 0.959 . S
C185 C183 1.561 . S
C186 C183 1.526 . S
C186 C187 1.396 . S
C186 C191 1.390 . S
C187 C181 1.465 . S
C187 C186 1.396 . S
C187 C188 1.399 . S
C188 H174 0.929 . S
C188 C187 1.399 . S
C188 C189 1.385 . S
C189 H175 0.931 . S
C189 C188 1.385 . S
C189 C190 1.389 . S
C190 C189 1.389 . S
C190 C191 1.387 . S
C191 H176 0.930 . S
C191 C186 1.390 . S
C191 C190 1.387 . S
H192 C204 0.930 1_655 S
H193 C206 0.930 . S
H194 C207 0.930 . S
H195 C211 0.959 . S
H196 C211 0.959 . S
H197 C211 0.961 . S
H198 C212 0.960 . S
H199 C212 0.961 . S
H200 C212 0.959 1_455 S
H201 C215 0.929 . S
H202 C216 0.931 1_455 S
H203 C218 0.930 . S
C204 H192 0.930 1_455 S
C204 C205 1.399 . S
C204 C209 1.399 . S
C205 C204 1.399 . S
C205 C206 1.376 . S
C206 H193 0.930 . S
C206 C205 1.376 . S
C206 C207 1.388 . S
C207 H194 0.930 . S
C207 C206 1.388 . S
C207 C208 1.390 . S
C208 C207 1.390 . S
C208 C209 1.394 . S
C208 C214 1.465 . S
C209 C204 1.399 . S
C209 C208 1.394 . S
C209 C210 1.516 1_455 S
C210 C209 1.516 1_655 S
C210 C211 1.502 . S
C210 C212 1.561 . S
C210 C213 1.526 . S
C211 H195 0.959 . S
C211 H196 0.959 . S
C211 H197 0.961 . S
C211 C210 1.502 . S
C212 H198 0.960 . S
C212 H199 0.961 . S
C212 H200 0.959 1_655 S
C212 C210 1.561 . S
C213 C210 1.526 . S
C213 C214 1.396 1_655 S
C213 C218 1.390 . S
C214 C208 1.465 . S
C214 C213 1.396 1_455 S
C214 C215 1.399 . S
C215 H201 0.929 . S
C215 C214 1.399 . S
C215 C216 1.385 1_455 S
C216 H202 0.931 1_655 S
C216 C215 1.385 1_655 S
C216 C217 1.389 . S
C217 C216 1.389 . S
C217 C218 1.387 . S
C218 H203 0.930 . S
C218 C213 1.390 . S
C218 C217 1.387 . S
H219 C231 0.930 1_565 S
H220 C233 0.930 . S
H221 C234 0.930 . S
H222 C238 0.959 . S
H223 C238 0.959 . S
H224 C238 0.961 . S
H225 C239 0.960 . S
H226 C239 0.961 . S
H227 C239 0.959 . S
H228 C242 0.929 . S
H229 C243 0.931 1_545 S
H230 C245 0.930 . S
C231 H219 0.930 1_545 S
C231 C232 1.399 . S
C231 C236 1.399 1_545 S
C232 C231 1.399 . S
C232 C233 1.376 . S
C233 H220 0.930 . S
C233 C232 1.376 . S
C233 C234 1.388 . S
C234 H221 0.930 . S
C234 C233 1.388 . S
C234 C235 1.390 . S
C235 C234 1.390 . S
C235 C236 1.394 1_545 S
C235 C241 1.465 . S
C236 C231 1.399 1_565 S
C236 C235 1.394 1_565 S
C236 C237 1.516 . S
C237 C236 1.516 . S
C237 C238 1.502 . S
C237 C239 1.561 . S
C237 C240 1.526 . S
C238 H222 0.959 . S
C238 H223 0.959 . S
C238 H224 0.961 . S
C238 C237 1.502 . S
C239 H225 0.960 . S
C239 H226 0.961 . S
C239 H227 0.959 . S
C239 C237 1.561 . S
C240 C237 1.526 . S
C240 C241 1.396 1_565 S
C240 C245 1.390 . S
C241 C235 1.465 . S
C241 C240 1.396 1_545 S
C241 C242 1.399 . S
C242 H228 0.929 . S
C242 C241 1.399 . S
C242 C243 1.385 1_545 S
C243 H229 0.931 1_565 S
C243 C242 1.385 1_565 S
C243 C244 1.389 . S
C244 C243 1.389 . S
C244 C245 1.387 . S
C245 H230 0.930 . S
C245 C240 1.390 . S
C245 C244 1.387 . S
H246 C258 0.930 . S
H247 C260 0.930 . S
H248 C261 0.930 . S
H249 C265 0.959 . S
H250 C265 0.959 . S
H251 C265 0.961 . S
H252 C266 0.960 . S
H253 C266 0.961 . S
H254 C266 0.959 . S
H255 C269 0.929 . S
H256 C270 0.931 . S
H257 C272 0.930 . S
C258 H246 0.930 . S
C258 C259 1.399 . S
C258 C263 1.399 . S
C259 C258 1.399 . S
C259 C260 1.376 1_554 S
C260 H247 0.930 . S
C260 C259 1.376 1_556 S
C260 C261 1.388 . S
C261 H248 0.930 . S
C261 C260 1.388 . S
C261 C262 1.390 1_556 S
C262 C261 1.390 1_554 S
C262 C263 1.394 . S
C262 C268 1.465 . S
C263 C258 1.399 . S
C263 C262 1.394 . S
C263 C264 1.516 . S
C264 C263 1.516 . S
C264 C265 1.502 . S
C264 C266 1.561 . S
C264 C267 1.526 . S
C265 H249 0.959 . S
C265 H250 0.959 . S
C265 H251 0.961 . S
C265 C264 1.502 . S
C266 H252 0.960 . S
C266 H253 0.961 . S
C266 H254 0.959 . S
C266 C264 1.561 . S
C267 C264 1.526 . S
C267 C268 1.396 . S
C267 C272 1.390 . S
C268 C262 1.465 . S
C268 C267 1.396 . S
C268 C269 1.399 1_554 S
C269 H255 0.929 . S
C269 C268 1.399 1_556 S
C269 C270 1.385 . S
C270 H256 0.931 . S
C270 C269 1.385 . S
C270 C271 1.389 1_556 S
C271 C270 1.389 1_554 S
C271 C272 1.387 . S
C272 H257 0.930 . S
C272 C267 1.390 . S
C272 C271 1.387 . S
H273 C285 0.930 . S
H274 C287 0.930 . S
H275 C288 0.930 . S
H276 C292 0.959 . S
H277 C292 0.959 . S
H278 C292 0.961 . S
H279 C293 0.960 . S
H280 C293 0.961 . S
H281 C293 0.959 . S
H282 C296 0.929 . S
H283 C297 0.931 . S
H284 C299 0.930 . S
C285 H273 0.930 . S
C285 C286 1.399 . S
C285 C290 1.399 . S
C286 C285 1.399 . S
C286 C287 1.376 1_655 S
C287 H274 0.930 . S
C287 C286 1.376 1_455 S
C287 C288 1.388 . S
C288 H275 0.930 . S
C288 C287 1.388 . S
C288 C289 1.390 . S
C289 C288 1.390 . S
C289 C290 1.394 1_455 S
C289 C295 1.465 . S
C290 C285 1.399 . S
C290 C289 1.394 1_655 S
C290 C291 1.516 . S
C291 C290 1.516 . S
C291 C292 1.502 . S
C291 C293 1.561 . S
C291 C294 1.526 . S
C292 H276 0.959 . S
C292 H277 0.959 . S
C292 H278 0.961 . S
C292 C291 1.502 . S
C293 H279 0.960 . S
C293 H280 0.961 . S
C293 H281 0.959 . S
C293 C291 1.561 . S
C294 C291 1.526 . S
C294 C295 1.396 1_655 S
C294 C299 1.390 . S
C295 C289 1.465 . S
C295 C294 1.396 1_455 S
C295 C296 1.399 . S
C296 H282 0.929 . S
C296 C295 1.399 . S
C296 C297 1.385 . S
C297 H283 0.931 . S
C297 C296 1.385 . S
C297 C298 1.389 . S
C298 C297 1.389 . S
C298 C299 1.387 1_455 S
C299 H284 0.930 . S
C299 C294 1.390 . S
C299 C298 1.387 1_655 S
H300 C312 0.930 . S
H301 C314 0.930 . S
H302 C315 0.930 1_565 S
H303 C319 0.959 . S
H304 C319 0.959 . S
H305 C319 0.961 . S
H306 C320 0.960 . S
H307 C320 0.961 . S
H308 C320 0.959 . S
H309 C323 0.929 . S
H310 C324 0.931 . S
H311 C326 0.930 . S
C312 H300 0.930 . S
C312 C313 1.399 . S
C312 C317 1.399 . S
C313 C312 1.399 . S
C313 C314 1.376 . S
C314 H301 0.930 . S
C314 C313 1.376 . S
C314 C315 1.388 . S
C315 H302 0.930 1_545 S
C315 C314 1.388 . S
C315 C316 1.390 1_545 S
C316 C315 1.390 1_565 S
C316 C317 1.394 1_565 S
C316 C322 1.465 . S
C317 C312 1.399 . S
C317 C316 1.394 1_545 S
C317 C318 1.527 . S
C318 C317 1.527 . S
C318 C319 1.513 . S
C318 C320 1.549 1_545 S
C318 C321 1.515 1_545 S
C319 H303 0.959 . S
C319 H304 0.959 . S
C319 H305 0.961 . S
C319 C318 1.513 . S
C320 H306 0.960 . S
C320 H307 0.961 . S
C320 H308 0.959 . S
C320 C318 1.549 1_565 S
C321 C318 1.515 1_565 S
C321 C322 1.396 . S
C321 C326 1.390 . S
C322 C316 1.465 . S
C322 C321 1.396 . S
C322 C323 1.399 . S
C323 H309 0.929 . S
C323 C322 1.399 . S
C323 C324 1.385 . S
C324 H310 0.931 . S
C324 C323 1.385 . S
C324 C325 1.389 . S
C325 C324 1.389 . S
C325 C326 1.387 . S
C326 H311 0.930 . S
C326 C321 1.390 . S
C326 C325 1.387 . S
H327 C339 0.930 . S
H328 C341 0.930 . S
H329 C342 0.930 . S
H330 C346 0.959 . S
H331 C346 0.959 . S
H332 C346 0.961 . S
H333 C347 0.960 . S
H334 C347 0.961 . S
H335 C347 0.959 . S
H336 C350 0.929 . S
H337 C351 0.931 . S
H338 C353 0.930 . S
C339 H327 0.930 . S
C339 C340 1.399 . S
C339 C344 1.399 . S
C340 C339 1.399 . S
C340 C341 1.376 . S
C341 H328 0.930 . S
C341 C340 1.376 . S
C341 C342 1.388 . S
C342 H329 0.930 . S
C342 C341 1.388 . S
C342 C343 1.390 . S
C343 C342 1.390 . S
C343 C344 1.394 . S
C343 C349 1.465 . S
C344 C339 1.399 . S
C344 C343 1.394 . S
C344 C345 1.516 . S
C345 C344 1.516 . S
C345 C346 1.502 . S
C345 C347 1.561 . S
C345 C348 1.526 . S
C346 H330 0.959 . S
C346 H331 0.959 . S
C346 H332 0.961 . S
C346 C345 1.502 . S
C347 H333 0.960 . S
C347 H334 0.961 . S
C347 H335 0.959 . S
C347 C345 1.561 . S
C348 C345 1.526 . S
C348 C349 1.396 . S
C348 C353 1.390 . S
C349 C343 1.465 . S
C349 C348 1.396 . S
C349 C350 1.399 . S
C350 H336 0.929 . S
C350 C349 1.399 . S
C350 C351 1.385 . S
C351 H337 0.931 . S
C351 C350 1.385 . S
C351 C352 1.389 . S
C352 C351 1.389 . S
C352 C353 1.387 . S
C353 H338 0.930 . S
C353 C348 1.390 . S
C353 C352 1.387 . S
H354 C366 0.929 1_455 S
H355 C368 0.930 . S
H356 C369 0.930 . S
H357 C373 0.983 . S
H358 C373 0.959 . S
H359 C373 0.961 . S
H360 C374 0.960 . S
H361 C374 0.961 . S
H362 C374 0.959 1_655 S
H363 C377 0.929 . S
H364 C378 0.931 . S
H365 C380 0.930 . S
C366 H354 0.929 1_655 S
C366 C367 1.401 1_554 S
C366 C371 1.398 1_655 S
C367 C366 1.401 1_556 S
C367 C368 1.376 . S
C368 H355 0.930 . S
C368 C367 1.376 . S
C368 C369 1.388 . S
C369 H356 0.930 . S
C369 C368 1.388 . S
C369 C370 1.390 . S
C370 C369 1.390 . S
C370 C371 1.394 1_656 S
C370 C376 1.465 . S
C371 C366 1.398 1_455 S
C371 C370 1.394 1_454 S
C371 C372 1.516 . S
C372 C371 1.516 . S
C372 C373 1.502 . S
C372 C374 1.561 . S
C372 C375 1.526 . S
C373 H357 0.983 . S
C373 H358 0.959 . S
C373 H359 0.961 . S
C373 C372 1.502 . S
C374 H360 0.960 . S
C374 H361 0.961 . S
C374 H362 0.959 1_455 S
C374 C372 1.561 . S
C375 C372 1.526 . S
C375 C376 1.396 1_454 S
C375 C380 1.390 . S
C376 C370 1.465 . S
C376 C375 1.396 1_656 S
C376 C377 1.399 . S
C377 H363 0.929 . S
C377 C376 1.399 . S
C377 C378 1.385 . S
C378 H364 0.931 . S
C378 C377 1.385 . S
C378 C379 1.389 1_655 S
C379 C378 1.389 1_455 S
C379 C380 1.387 1_556 S
C380 H365 0.930 . S
C380 C375 1.390 . S
C380 C379 1.387 1_554 S
H381 C393 0.930 . S
H382 C395 0.930 . S
H383 C396 0.930 . S
H384 C400 0.959 . S
H385 C400 0.959 . S
H386 C400 0.961 . S
H387 C401 0.960 . S
H388 C401 0.961 . S
H389 C401 0.959 . S
H390 C404 0.929 . S
H391 C405 0.931 . S
H392 C407 0.930 . S
C393 H381 0.930 . S
C393 C394 1.399 . S
C393 C398 1.399 . S
C394 C393 1.399 . S
C394 C395 1.376 . S
C395 H382 0.930 . S
C395 C394 1.376 . S
C395 C396 1.388 . S
C396 H383 0.930 . S
C396 C395 1.388 . S
C396 C397 1.390 . S
C397 C396 1.390 . S
C397 C398 1.394 . S
C397 C403 1.465 . S
C398 C393 1.399 . S
C398 C397 1.394 . S
C398 C399 1.516 1_545 S
C399 C398 1.516 1_565 S
C399 C400 1.502 . S
C399 C401 1.561 1_565 S
C399 C402 1.526 . S
C400 H384 0.959 . S
C400 H385 0.959 . S
C400 H386 0.961 . S
C400 C399 1.502 . S
C401 H387 0.960 . S
C401 H388 0.961 . S
C401 H389 0.959 . S
C401 C399 1.561 1_545 S
C402 C399 1.526 . S
C402 C403 1.396 1_565 S
C402 C407 1.390 . S
C403 C397 1.465 . S
C403 C402 1.396 1_545 S
C403 C404 1.399 . S
C404 H390 0.929 . S
C404 C403 1.399 . S
C404 C405 1.385 1_545 S
C405 H391 0.931 . S
C405 C404 1.385 1_565 S
C405 C406 1.389 . S
C406 C405 1.389 . S
C406 C407 1.387 . S
C407 H392 0.930 . S
C407 C402 1.390 . S
C407 C406 1.387 . S
C97 C81 1.247 . S
C109 C5 1.240 . S
C124 C25 1.296 . S
C136 C11 1.304 . S
C151 C19 1.273 . S
C163 C33 1.265 . S
C178 C47 1.256 . S
C190 C39 1.246 . S
C205 C67 1.288 . S
C217 C53 1.265 . S
C232 C75 1.271 . S
C244 C61 1.261 . S
C259 C0 1.435 . S
C271 C42 1.382 . S
C286 C23 1.443 . S
C298 C65 1.407 . S
C313 C70 1.378 . S
C325 C28 1.350 . S
C340 C79 1.384 . S
C352 C37 1.360 . S
C367 C51 1.409 1_556 S
C379 C9 1.439 1_556 S
C394 C14 1.370 . S
C406 C56 1.412 . S
