# Generated by pormake.
# Topology qtz-a, (4)-cn, num edge types: 1
# Building blocks:
#     Node 0, Type 0, BuildingBlock: NAHDIM_clean_sbu_0, # of connection points: 4
#     Node 1, Type 0, BuildingBlock: NAHDIM_clean_sbu_0, # of connection points: 4
#     Node 2, Type 0, BuildingBlock: NAHDIM_clean_sbu_0, # of connection points: 4
#     Node 3, Type 0, BuildingBlock: NAHDIM_clean_sbu_0, # of connection points: 4
#     Node 4, Type 0, BuildingBlock: NAHDIM_clean_sbu_0, # of connection points: 4
#     Node 5, Type 0, BuildingBlock: NAHDIM_clean_sbu_0, # of connection points: 4
#     Node 6, Type 0, BuildingBlock: NAHDIM_clean_sbu_0, # of connection points: 4
#     Node 7, Type 0, BuildingBlock: NAHDIM_clean_sbu_0, # of connection points: 4
#     Node 8, Type 0, BuildingBlock: NAHDIM_clean_sbu_0, # of connection points: 4
#     Node 9, Type 0, BuildingBlock: NAHDIM_clean_sbu_0, # of connection points: 4
#     Node 10, Type 0, BuildingBlock: NAHDIM_clean_sbu_0, # of connection points: 4
#     Node 11, Type 0, BuildingBlock: NAHDIM_clean_sbu_0, # of connection points: 4
#     Edge 12, Type (0, 0), BuildingBlock: KIFKEQ_clean_linker_1, # of connection points: 2
#     Edge 13, Type (0, 0), BuildingBlock: KIFKEQ_clean_linker_1, # of connection points: 2
#     Edge 14, Type (0, 0), BuildingBlock: KIFKEQ_clean_linker_1, # of connection points: 2
#     Edge 15, Type (0, 0), BuildingBlock: KIFKEQ_clean_linker_1, # of connection points: 2
#     Edge 16, Type (0, 0), BuildingBlock: KIFKEQ_clean_linker_1, # of connection points: 2
#     Edge 17, Type (0, 0), BuildingBlock: KIFKEQ_clean_linker_1, # of connection points: 2
#     Edge 18, Type (0, 0), BuildingBlock: KIFKEQ_clean_linker_1, # of connection points: 2
#     Edge 19, Type (0, 0), BuildingBlock: KIFKEQ_clean_linker_1, # of connection points: 2
#     Edge 20, Type (0, 0), BuildingBlock: KIFKEQ_clean_linker_1, # of connection points: 2
#     Edge 21, Type (0, 0), BuildingBlock: KIFKEQ_clean_linker_1, # of connection points: 2
#     Edge 22, Type (0, 0), BuildingBlock: KIFKEQ_clean_linker_1, # of connection points: 2
#     Edge 23, Type (0, 0), BuildingBlock: KIFKEQ_clean_linker_1, # of connection points: 2
#     Edge 24, Type (0, 0), BuildingBlock: KIFKEQ_clean_linker_1, # of connection points: 2
#     Edge 25, Type (0, 0), BuildingBlock: KIFKEQ_clean_linker_1, # of connection points: 2
#     Edge 26, Type (0, 0), BuildingBlock: KIFKEQ_clean_linker_1, # of connection points: 2
#     Edge 27, Type (0, 0), BuildingBlock: KIFKEQ_clean_linker_1, # of connection points: 2
#     Edge 28, Type (0, 0), BuildingBlock: KIFKEQ_clean_linker_1, # of connection points: 2
#     Edge 29, Type (0, 0), BuildingBlock: KIFKEQ_clean_linker_1, # of connection points: 2
#     Edge 30, Type (0, 0), BuildingBlock: KIFKEQ_clean_linker_1, # of connection points: 2
#     Edge 31, Type (0, 0), BuildingBlock: KIFKEQ_clean_linker_1, # of connection points: 2
#     Edge 32, Type (0, 0), BuildingBlock: KIFKEQ_clean_linker_1, # of connection points: 2
#     Edge 33, Type (0, 0), BuildingBlock: KIFKEQ_clean_linker_1, # of connection points: 2
#     Edge 34, Type (0, 0), BuildingBlock: KIFKEQ_clean_linker_1, # of connection points: 2
#     Edge 35, Type (0, 0), BuildingBlock: KIFKEQ_clean_linker_1, # of connection points: 2
# Relax obj value: 0.793
# Max RMSD: 0.439
# Mean RMSD: 0.311
data_MOF--net-qtz-a--node1-NAHDIM_clean_sbu_0--edge1-KIFKEQ_clean_linker_1
_symmetry_space_group_name_H-M    P1
_symmetry_Int_Tables_number       1
_symmetry_cell_setting            triclinic
loop_
_symmetry_equiv_pos_as_xyz
'x, y, z'
_cell_length_a     50.581358
_cell_length_b     39.32412
_cell_length_c     42.272178
_cell_angle_alpha  89.986208
_cell_angle_beta   102.79817
_cell_angle_gamma 112.90363
loop_
_atom_site_label
_atom_site_type_symbol
_atom_site_fract_x
_atom_site_fract_y
_atom_site_fract_z
_atom_type_partial_charge
C0 C 0.44932 0.08903 0.12771 0.0
O1 O 0.44187 0.07049 0.09906 0.0
O2 O 0.53283 0.07684 0.1549 0.0
Zn3 Zn 0.5077 0.09754 0.12383 0.0
O4 O 0.53388 0.14467 0.10813 0.0
C5 C 0.49615 0.03608 0.07708 0.0
O6 O 0.51546 0.02923 0.09958 0.0
O7 O 0.47644 0.10365 0.14289 0.0
C8 C 0.55471 0.14116 0.09809 0.0
O9 O 0.55803 0.1097 0.10077 0.0
C10 C 0.55901 0.09619 0.17109 0.0
O11 O 0.56837 0.13251 0.17358 0.0
O12 O 0.48868 0.06235 0.0829 0.0
C13 C 0.25961 0.53821 0.45787 0.0
O14 O 0.26352 0.55212 0.43019 0.0
O15 O 0.3501 0.54162 0.49612 0.0
Zn16 Zn 0.31335 0.52707 0.45976 0.0
O17 O 0.32102 0.55522 0.42045 0.0
C18 C 0.28366 0.45676 0.41985 0.0
O19 O 0.26907 0.47402 0.40182 0.0
O20 O 0.2789 0.52819 0.47486 0.0
C21 C 0.34631 0.57944 0.41965 0.0
O22 O 0.36767 0.58939 0.44636 0.0
C23 C 0.34905 0.52326 0.52091 0.0
O24 O 0.32331 0.49875 0.52365 0.0
O25 O 0.30305 0.47392 0.4456 0.0
C26 C 0.93618 0.38582 0.83724 0.0
O27 O 0.95324 0.42142 0.84176 0.0
O28 O 0.01596 0.41499 0.84324 0.0
Zn29 Zn 0.98094 0.38406 0.80732 0.0
O30 O 0.9757 0.42027 0.77536 0.0
C31 C 0.00814 0.33923 0.7803 0.0
O32 O 0.03377 0.36182 0.79849 0.0
O33 O 0.94411 0.36374 0.82373 0.0
C34 C 0.96524 0.41162 0.74489 0.0
O35 O 0.95679 0.37716 0.73299 0.0
C36 C 0.03808 0.43769 0.83403 0.0
O37 O 0.03841 0.43517 0.80314 0.0
O38 O 0.98475 0.34295 0.78254 0.0
C39 C 0.664 0.85036 0.10475 0.0
O40 O 0.67328 0.88121 0.12372 0.0
O41 O 0.65637 0.93221 0.08875 0.0
Zn42 Zn 0.65925 0.89827 0.05505 0.0
O43 O 0.62123 0.88194 0.02056 0.0
C44 C 0.7118 0.95741 0.0446 0.0
O45 O 0.71698 0.96707 0.07585 0.0
O46 O 0.66042 0.85199 0.07416 0.0
C47 C 0.61789 0.86369 0.99411 0.0
O48 O 0.6396 0.85527 0.98963 0.0
C49 C 0.65484 0.9628 0.08128 0.0
O50 O 0.65605 0.97241 0.05168 0.0
O51 O 0.6913 0.92625 0.03248 0.0
C52 C 0.62491 0.46968 0.56619 0.0
O53 O 0.6104 0.43369 0.55923 0.0
O54 O 0.54492 0.48576 0.57692 0.0
Zn55 Zn 0.56652 0.47111 0.54833 0.0
O56 O 0.54682 0.41672 0.53161 0.0
C57 C 0.53384 0.48581 0.49125 0.0
O58 O 0.51251 0.46188 0.50273 0.0
O59 O 0.61058 0.49003 0.56601 0.0
C60 C 0.55282 0.40795 0.50589 0.0
O61 O 0.57416 0.43286 0.49512 0.0
C62 C 0.52091 0.46235 0.58204 0.0
O63 O 0.5131 0.42703 0.57349 0.0
O64 O 0.56038 0.49606 0.50769 0.0
C65 C 0.16328 0.76277 0.78653 0.0
O66 O 0.15515 0.78821 0.79608 0.0
O67 O 0.10166 0.69823 0.83493 0.0
Zn68 Zn 0.10429 0.71214 0.78946 0.0
O69 O 0.08003 0.66489 0.75994 0.0
C70 C 0.05906 0.73841 0.76909 0.0
O71 O 0.04482 0.70947 0.7833 0.0
O72 O 0.14547 0.72894 0.783 0.0
C73 C 0.08167 0.63431 0.76729 0.0
O74 O 0.09974 0.63358 0.79464 0.0
C75 C 0.12339 0.69467 0.85428 0.0
O76 O 0.14971 0.7105 0.84833 0.0
O77 O 0.08668 0.74823 0.77255 0.0
C78 C 0.82634 0.59717 0.52444 0.0
O79 O 0.82877 0.60699 0.49516 0.0
O80 O 0.89034 0.59266 0.49407 0.0
Zn81 Zn 0.88962 0.61141 0.53824 0.0
O82 O 0.90852 0.58397 0.56924 0.0
C83 C 0.94159 0.6775 0.55614 0.0
O84 O 0.95257 0.6565 0.54417 0.0
O85 O 0.84883 0.59757 0.54524 0.0
C86 C 0.91503 0.59121 0.59996 0.0
O87 O 0.90918 0.61748 0.61216 0.0
C88 C 0.87077 0.5607 0.48229 0.0
O89 O 0.84822 0.54587 0.49561 0.0
O90 O 0.91376 0.66546 0.55224 0.0
C91 C 0.37018 0.83961 0.75942 0.0
O92 O 0.38401 0.81744 0.76679 0.0
O93 O 0.4524 0.93895 0.7585 0.0
Zn94 Zn 0.4287 0.89866 0.78282 0.0
O95 O 0.44836 0.8633 0.79654 0.0
C96 C 0.45797 0.93874 0.84434 0.0
O97 O 0.4805 0.93798 0.83417 0.0
O98 O 0.38514 0.8744 0.76179 0.0
C99 C 0.44287 0.84659 0.8216 0.0
O100 O 0.42073 0.84715 0.83271 0.0
C101 C 0.47621 0.93952 0.7528 0.0
O102 O 0.48268 0.91042 0.75809 0.0
O103 O 0.43228 0.92446 0.82545 0.0
C104 C 0.32321 0.17525 0.22333 0.0
O105 O 0.31229 0.19624 0.20547 0.0
O106 O 0.34953 0.27232 0.23722 0.0
Zn107 Zn 0.34598 0.23722 0.27225 0.0
O108 O 0.38604 0.25272 0.30348 0.0
C109 C 0.33216 0.27699 0.31326 0.0
O110 O 0.35873 0.29823 0.31016 0.0
O111 O 0.33488 0.18542 0.25345 0.0
C112 C 0.38845 0.23871 0.33054 0.0
O113 O 0.36502 0.21224 0.33657 0.0
C114 C 0.36544 0.27594 0.21698 0.0
O115 O 0.38034 0.25492 0.21768 0.0
O116 O 0.31893 0.24505 0.29748 0.0
C117 C 0.05512 0.43169 0.49665 0.0
O118 O 0.03222 0.43175 0.47477 0.0
O119 O 0.97914 0.3916 0.49647 0.0
Zn120 Zn 0.01213 0.39357 0.53426 0.0
O121 O 0.01411 0.42983 0.56956 0.0
C122 C 0.9846 0.318 0.55461 0.0
O123 O 0.95948 0.31596 0.53585 0.0
O124 O 0.05128 0.41607 0.52255 0.0
C125 C 0.00717 0.42105 0.59647 0.0
O126 O -0.00241 0.38612 0.60251 0.0
C127 C 0.9551 0.38925 0.50274 0.0
O128 O 0.95131 0.38249 0.53222 0.0
O129 O 0.00827 0.34572 0.55426 0.0
C130 C 0.73873 0.27487 0.89265 0.0
O131 O 0.73834 0.2724 0.92355 0.0
O132 O 0.64821 0.18766 0.84882 0.0
Zn133 Zn 0.68353 0.2143 0.88603 0.0
O134 O 0.67129 0.23368 0.92206 0.0
C135 C 0.68265 0.14315 0.90399 0.0
O136 O 0.65449 0.13214 0.88947 0.0
O137 O 0.71628 0.25373 0.87117 0.0
C138 C 0.64564 0.23346 0.91896 0.0
O139 O 0.62696 0.22357 0.89022 0.0
C140 C 0.65004 0.17141 0.82389 0.0
O141 O 0.6762 0.17467 0.82087 0.0
O142 O 0.69955 0.1772 0.90534 0.0
C143 C 0.50759 0.63155 0.16421 0.0
O144 O 0.4865 0.60779 0.14113 0.0
O145 O 0.45665 0.54138 0.17775 0.0
Zn146 Zn 0.47345 0.5882 0.20813 0.0
O147 O 0.44237 0.60363 0.21886 0.0
C148 C 0.48328 0.54302 0.25926 0.0
O149 O 0.46301 0.51614 0.23801 0.0
O150 O 0.50569 0.629 0.19364 0.0
C151 C 0.42004 0.57805 0.22543 0.0
O152 O 0.41631 0.54341 0.22006 0.0
C153 C 0.43206 0.52703 0.15684 0.0
O154 O 0.41523 0.54573 0.15009 0.0
O155 O 0.49213 0.5761 0.25137 0.0
H156 H 0.6085 0.15073 0.08963 0.0
H157 H 0.54092 0.19404 0.06424 0.0
H158 H 0.63326 0.18627 0.05011 0.0
H159 H 0.56608 0.23037 0.02451 0.0
H160 H 0.58911 0.21926 0.92289 0.0
H161 H 0.57038 0.20959 0.97185 0.0
H162 H 0.65958 0.24511 0.03104 0.0
H163 H 0.67832 0.25395 0.98195 0.0
C164 C 0.59937 0.16869 0.07614 0.0
C165 C 0.57259 0.16924 0.07967 0.0
C166 C 0.61371 0.18938 0.05362 0.0
C167 C 0.60154 0.211 0.03391 0.0
C168 C 0.57583 0.21367 0.03911 0.0
C169 C 0.56155 0.1931 0.06198 0.0
C170 C 0.60483 0.22593 0.94635 0.0
C171 C 0.63515 0.23649 0.94847 0.0
C172 C 0.59407 0.22062 0.97451 0.0
C173 C 0.61345 0.22593 0.00535 0.0
C174 C 0.64403 0.24003 0.00759 0.0
C175 C 0.65477 0.24518 0.97944 0.0
H176 H 0.36877 0.53074 0.23869 0.0
H177 H 0.43247 0.64439 0.259 0.0
H178 H 0.34718 0.53958 0.28221 0.0
H179 H 0.41036 0.65355 0.30243 0.0
H180 H 0.39972 0.62336 0.4081 0.0
H181 H 0.41282 0.63059 0.35583 0.0
H182 H 0.3213 0.56827 0.30663 0.0
H183 H 0.30825 0.56022 0.35913 0.0
C184 C 0.37763 0.55799 0.25184 0.0
C185 C 0.40265 0.58665 0.24575 0.0
C186 C 0.36509 0.56316 0.27674 0.0
C187 C 0.37729 0.59716 0.29619 0.0
C188 C 0.40076 0.62684 0.28825 0.0
C189 C 0.41328 0.62167 0.26319 0.0
C190 C 0.38225 0.61187 0.38613 0.0
C191 C 0.35304 0.59057 0.38787 0.0
C192 C 0.38974 0.61626 0.35604 0.0
C193 C 0.36817 0.59957 0.32699 0.0
C194 C 0.33854 0.58089 0.32859 0.0
C195 C 0.33105 0.57641 0.3587 0.0
H196 H 0.92208 0.59041 0.66587 0.0
H197 H 0.93609 0.54121 0.58304 0.0
H198 H 0.93788 0.54913 0.70063 0.0
H199 H 0.95296 0.50078 0.61809 0.0
H200 H 0.93817 0.40136 0.68 0.0
H201 H 0.93025 0.44752 0.64522 0.0
H202 H 0.97789 0.53259 0.72576 0.0
H203 H 0.9852 0.48623 0.76076 0.0
C204 C 0.92896 0.57116 0.65517 0.0
C205 C 0.9274 0.56871 0.62162 0.0
C206 C 0.93824 0.54764 0.67516 0.0
C207 C 0.94639 0.52132 0.6621 0.0
C208 C 0.94616 0.52011 0.62879 0.0
C209 C 0.93663 0.54342 0.60874 0.0
C210 C 0.94701 0.42992 0.69027 0.0
C211 C 0.9619 0.44 0.72326 0.0
C212 C 0.9427 0.4565 0.67024 0.0
C213 C 0.95326 0.49379 0.68273 0.0
C214 C 0.96894 0.50401 0.71551 0.0
C215 C 0.9732 0.47743 0.73555 0.0
H216 H 0.56822 0.87434 0.99685 0.0
H217 H 0.60526 0.8301 0.93269 0.0
H218 H 0.52415 0.8613 0.95333 0.0
H219 H 0.56077 0.81657 0.8891 0.0
H220 H 0.43975 0.81426 0.87853 0.0
H221 H 0.48067 0.81099 0.91962 0.0
H222 H 0.53862 0.854 0.85481 0.0
H223 H 0.49764 0.85679 0.81349 0.0
C224 C 0.56683 0.86144 0.97356 0.0
C225 C 0.59034 0.85347 0.9682 0.0
C226 C 0.54143 0.85365 0.94866 0.0
C227 C 0.53891 0.83775 0.91777 0.0
C228 C 0.56215 0.82903 0.91258 0.0
C229 C 0.58758 0.8367 0.93758 0.0
C230 C 0.46103 0.82216 0.8727 0.0
C231 C 0.46551 0.83628 0.84289 0.0
C232 C 0.48453 0.82054 0.89636 0.0
C233 C 0.51299 0.83291 0.89071 0.0
C234 C 0.51694 0.84417 0.85991 0.0
C235 C 0.49342 0.84581 0.83621 0.0
H236 H 0.5614 0.37897 0.45237 0.0
H237 H 0.49768 0.36049 0.51061 0.0
H238 H 0.52429 0.33095 0.41101 0.0
H239 H 0.46038 0.31314 0.46889 0.0
H240 H 0.43937 0.29689 0.32731 0.0
H241 H 0.48154 0.33078 0.37199 0.0
H242 H 0.4422 0.25338 0.43772 0.0
H243 H 0.39951 0.21978 0.39296 0.0
C244 C 0.53961 0.3642 0.45662 0.0
C245 C 0.53237 0.37385 0.48458 0.0
C246 C 0.51829 0.33684 0.4328 0.0
C247 C 0.48921 0.31865 0.43634 0.0
C248 C 0.48259 0.32641 0.46544 0.0
C249 C 0.50399 0.35367 0.48936 0.0
C250 C 0.43987 0.2867 0.35115 0.0
C251 C 0.41591 0.25584 0.35661 0.0
C252 C 0.4642 0.30602 0.3768 0.0
C253 C 0.46522 0.29491 0.40853 0.0
C254 C 0.44191 0.26295 0.41367 0.0
C255 C 0.41752 0.24359 0.38797 0.0
H256 H 0.01988 0.49432 0.5895 0.0
H257 H 0.00534 0.41399 0.66044 0.0
H258 H 0.03287 0.54366 0.63196 0.0
H259 H 0.01827 0.46345 0.70301 0.0
H260 H 0.08495 0.56675 0.77246 0.0
H261 H 0.06199 0.51351 0.73183 0.0
H262 H 0.01673 0.57143 0.66985 0.0
H263 H 0.04052 0.62526 0.71014 0.0
C264 C 0.01912 0.48714 0.61412 0.0
C265 C 0.01195 0.45032 0.62166 0.0
C266 C 0.02632 0.51542 0.63847 0.0
C267 C 0.0267 0.50759 0.67099 0.0
C268 C 0.01849 0.47052 0.6783 0.0
C269 C 0.01097 0.44214 0.65385 0.0
C270 C 0.06994 0.56807 0.75027 0.0
C271 C 0.06505 0.60053 0.74424 0.0
C272 C 0.05655 0.53736 0.72703 0.0
C273 C 0.03782 0.53835 0.69731 0.0
C274 C 0.03164 0.5701 0.69211 0.0
C275 C 0.04516 0.60089 0.71528 0.0
H276 H 0.45811 0.04558 0.02433 0.0
H277 H 0.5131 0.9847 0.05432 0.0
H278 H 0.44757 0.02082 0.96799 0.0
H279 H 0.50214 0.95954 0.99803 0.0
H280 H 0.50919 0.96539 0.89185 0.0
H281 H 0.51596 0.986 0.94845 0.0
H282 H 0.42296 0.96344 0.93062 0.0
H283 H 0.41618 0.94323 0.8737 0.0
C284 C 0.46758 0.02647 0.01899 0.0
C285 C 0.48664 0.01734 0.04376 0.0
C286 C 0.46145 0.0122 0.98672 0.0
C287 C 0.47429 0.98857 0.97857 0.0
C288 C 0.49236 0.97823 0.00353 0.0
C289 C 0.49844 0.99242 0.0358 0.0
C290 C 0.49019 0.96496 0.89991 0.0
C291 C 0.46216 0.95276 0.87827 0.0
C292 C 0.49402 0.97644 0.93244 0.0
C293 C 0.46994 0.97604 0.94403 0.0
C294 C 0.44196 0.96425 0.92232 0.0
C295 C 0.43809 0.95264 0.88975 0.0
H296 H 0.27356 0.26435 0.30532 0.0
H297 H 0.36052 0.32334 0.36789 0.0
H298 H 0.25384 0.29889 0.33526 0.0
H299 H 0.34125 0.35745 0.39742 0.0
H300 H 0.30441 0.41011 0.45446 0.0
H301 H 0.30878 0.35562 0.43288 0.0
H302 H 0.262 0.36602 0.33713 0.0
H303 H 0.25696 0.42006 0.35888 0.0
C304 C 0.28821 0.28391 0.32598 0.0
C305 C 0.31855 0.29155 0.33421 0.0
C306 C 0.27702 0.30378 0.34294 0.0
C307 C 0.29599 0.33092 0.36866 0.0
C308 C 0.32591 0.33645 0.37807 0.0
C309 C 0.33705 0.31712 0.36096 0.0
C310 C 0.29445 0.40027 0.42896 0.0
C311 C 0.28095 0.41986 0.40819 0.0
C312 C 0.29693 0.36904 0.41662 0.0
C313 C 0.28622 0.35696 0.38321 0.0
C314 C 0.27037 0.37454 0.36302 0.0
C315 C 0.26769 0.4057 0.37544 0.0
H316 H 0.02964 0.30212 0.59047 0.0
H317 H 0.94008 0.28922 0.58564 0.0
H318 H 0.03557 0.289 0.64736 0.0
H319 H 0.94637 0.27864 0.64257 0.0
H320 H 0.96146 0.27838 0.74646 0.0
H321 H 0.95472 0.25359 0.69105 0.0
H322 H 0.04437 0.32845 0.6923 0.0
H323 H 0.0514 0.35107 0.74797 0.0
C324 C 0.01093 0.29536 0.60134 0.0
C325 C 0.98461 0.29742 0.58385 0.0
C326 C 0.01441 0.28831 0.6341 0.0
C327 C 0.99192 0.28418 0.65019 0.0
C328 C 0.96435 0.28168 0.63139 0.0
C329 C 0.96067 0.28786 0.59847 0.0
C330 C 0.98 0.28843 0.73516 0.0
C331 C 0.00678 0.31711 0.75128 0.0
C332 C 0.97609 0.2745 0.70326 0.0
C333 C -0.00138 0.28971 0.68653 0.0
C334 C 0.0264 0.31569 0.70407 0.0
C335 C 0.03049 0.32897 0.73619 0.0
H336 H 0.7389 0.03264 0.05951 0.0
H337 H 0.70444 0.94779 0.97871 0.0
H338 H 0.73845 0.07901 0.02156 0.0
H339 H 0.70453 0.99441 0.94073 0.0
H340 H 0.65375 0.06812 0.90047 0.0
H341 H 0.66991 0.02486 0.93155 0.0
H342 H 0.75343 0.11438 0.97584 0.0
H343 H 0.73704 0.15805 0.94479 0.0
C344 C 0.73232 0.02405 0.03363 0.0
C345 C 0.72101 0.98635 0.02218 0.0
C346 C 0.73209 0.05073 0.01181 0.0
C347 C 0.72072 0.0402 0.97817 0.0
C348 C 0.71271 0.0032 0.96658 0.0
C349 C 0.71287 0.97653 0.98836 0.0
C350 C 0.67571 0.07859 0.9165 0.0
C351 C 0.69396 0.11658 0.92041 0.0
C352 C 0.68513 0.05369 0.9341 0.0
C353 C 0.71302 0.06615 0.95615 0.0
C354 C 0.73177 0.10398 0.95918 0.0
C355 C 0.72239 0.12894 0.94136 0.0
H356 H 0.46579 0.47634 0.28468 0.0
H357 H 0.52307 0.59235 0.31023 0.0
H358 H 0.479 0.46423 0.3412 0.0
H359 H 0.53598 0.58015 0.36698 0.0
H360 H 0.57283 0.53215 0.45878 0.0
H361 H 0.56202 0.54663 0.40241 0.0
H362 H 0.46921 0.47983 0.39278 0.0
H363 H 0.47993 0.46499 0.44882 0.0
C364 C 0.48132 0.49924 0.30231 0.0
C365 C 0.49328 0.53534 0.293 0.0
C366 C 0.48871 0.49232 0.33473 0.0
C367 C 0.50826 0.52133 0.35853 0.0
C368 C 0.52095 0.55725 0.34911 0.0
C369 C 0.51349 0.56421 0.31664 0.0
C370 C 0.5501 0.5208 0.44469 0.0
C371 C 0.52725 0.49729 0.45819 0.0
C372 C 0.54393 0.52916 0.41247 0.0
C373 C 0.51483 0.51405 0.39315 0.0
C374 C 0.49193 0.49133 0.40693 0.0
C375 C 0.49806 0.48307 0.43912 0.0
H376 H 0.08099 0.7869 0.72547 0.0
H377 H -0.00074 0.71701 0.74943 0.0
H378 H 0.05347 0.79017 0.6712 0.0
H379 H 0.97197 0.71982 0.69527 0.0
H380 H 0.00182 0.706 0.57586 0.0
H381 H 0.03128 0.73863 0.62861 0.0
H382 H 0.95483 0.74945 0.64919 0.0
H383 H 0.92509 0.71618 0.59638 0.0
C384 C 0.05708 0.77324 0.7196 0.0
C385 C 0.04237 0.75072 0.74143 0.0
C386 C 0.04135 0.77502 0.68841 0.0
C387 C 0.01064 0.75451 0.6786 0.0
C388 C 0.99561 0.73599 0.70192 0.0
C389 C 0.01133 0.73416 0.73305 0.0
C390 C 0.99147 0.71642 0.5911 0.0
C391 C 0.96093 0.70749 0.5823 0.0
C392 C 0.00846 0.73542 0.62139 0.0
C393 C 0.99523 0.74592 0.64346 0.0
C394 C 0.9655 0.74104 0.63298 0.0
C395 C 0.9485 0.72208 0.60261 0.0
H396 H 0.65698 0.0328 0.07577 0.0
H397 H 0.6398 0.9446 0.13928 0.0
H398 H 0.64106 0.06721 0.10982 0.0
H399 H 0.62396 0.97933 0.17359 0.0
H400 H 0.54794 0.02281 0.17393 0.0
H401 H 0.57876 0.99266 0.16149 0.0
H402 H 0.6495 0.09971 0.16387 0.0
H403 H 0.61854 0.13 0.17609 0.0
C404 C 0.6503 0.02105 0.09734 0.0
C405 C 0.64921 0.98574 0.10454 0.0
C406 C 0.64148 0.04097 0.1171 0.0
C407 C 0.6312 0.02595 0.1444 0.0
C408 C 0.63162 0.9915 0.15261 0.0
C409 C 0.64071 0.97166 0.13296 0.0
C410 C 0.57046 0.03991 0.17303 0.0
C411 C 0.58058 0.07876 0.17534 0.0
C412 C 0.58819 0.02261 0.16597 0.0
C413 C 0.61633 0.04387 0.16101 0.0
C414 C 0.62769 0.08267 0.16701 0.0
C415 C 0.61001 0.1 0.17431 0.0
H416 H 0.52712 0.53403 0.59336 0.0
H417 H 0.46399 0.42037 0.5845 0.0
H418 H 0.48735 0.5553 0.58976 0.0
H419 H 0.42432 0.4415 0.58007 0.0
H420 H 0.40581 0.56306 0.5164 0.0
H421 H 0.44949 0.55282 0.5428 0.0
H422 H 0.39891 0.4739 0.60039 0.0
H423 H 0.35484 0.48349 0.57325 0.0
C424 C 0.50489 0.51359 0.59143 0.0
C425 C 0.49865 0.47544 0.58853 0.0
C426 C 0.48206 0.5258 0.58915 0.0
C427 C 0.45254 0.50014 0.58393 0.0
C428 C 0.44676 0.46214 0.5842 0.0
C429 C 0.46957 0.44994 0.58657 0.0
C430 C 0.4041 0.54417 0.53523 0.0
C431 C 0.37668 0.52353 0.54221 0.0
C432 C 0.42928 0.53845 0.5506 0.0
C433 C 0.42765 0.5121 0.57344 0.0
C434 C 0.40078 0.49385 0.58245 0.0
C435 C 0.37555 0.4995 0.56699 0.0
H436 H 0.16137 0.66333 0.8832 0.0
H437 H 0.07071 0.65138 0.86798 0.0
H438 H 0.14664 0.59871 0.89467 0.0
H439 H 0.05608 0.58692 0.87913 0.0
H440 H 0.03025 0.46887 0.88731 0.0
H441 H 0.05697 0.53355 0.9102 0.0
H442 H 0.11834 0.54899 0.84944 0.0
H443 H 0.09183 0.48478 0.82679 0.0
C444 C 0.13851 0.64745 0.88357 0.0
C445 C 0.11702 0.66213 0.87352 0.0
C446 C 0.13008 0.61033 0.89004 0.0
C447 C 0.10011 0.58745 0.88688 0.0
C448 C 0.07936 0.6037 0.88167 0.0
C449 C 0.08775 0.64074 0.87509 0.0
C450 C 0.05014 0.48572 0.87983 0.0
C451 C 0.05871 0.47201 0.85485 0.0
C452 C 0.06535 0.5228 0.89285 0.0
C453 C 0.08954 0.54652 0.88138 0.0
C454 C 0.09995 0.53149 0.85906 0.0
C455 C 0.08462 0.49467 0.84585 0.0
H456 H 0.83373 0.49268 0.45071 0.0
H457 H 0.92456 0.5718 0.47073 0.0
H458 H 0.84893 0.44368 0.43787 0.0
H459 H 0.9398 0.52287 0.45873 0.0
H460 H 0.89937 0.38008 0.50433 0.0
H461 H 0.87401 0.41867 0.48113 0.0
H462 H 0.94162 0.47107 0.42886 0.0
H463 H 0.9673 0.43238 0.45255 0.0
C464 C 0.8568 0.4999 0.45123 0.0
C465 C 0.87808 0.53582 0.46281 0.0
C466 C 0.86552 0.47177 0.44398 0.0
C467 C 0.89566 0.47908 0.44836 0.0
C468 C 0.91638 0.51612 0.45523 0.0
C469 C 0.90764 0.54431 0.46227 0.0
C470 C 0.90832 0.39892 0.48702 0.0
C471 C 0.93564 0.4038 0.48089 0.0
C472 C 0.89363 0.42095 0.47343 0.0
C473 C 0.90606 0.4485 0.45352 0.0
C474 C 0.93172 0.45049 0.44449 0.0
C475 C 0.94634 0.42817 0.45796 0.0
H476 H 0.47186 0.00649 0.74489 0.0
H477 H 0.53348 0.95388 0.75245 0.0
H478 H 0.51266 0.06718 0.75161 0.0
H479 H 0.57418 0.01428 0.76019 0.0
H480 H 0.59297 0.15343 0.82733 0.0
H481 H 0.54955 0.10014 0.79948 0.0
H482 H 0.60156 0.07303 0.74316 0.0
H483 H 0.64546 0.12607 0.77191 0.0
C484 C 0.49401 0.00781 0.7473 0.0
C485 C 0.49946 0.97534 0.74878 0.0
C486 C 0.51744 0.04264 0.75137 0.0
C487 C 0.5468 0.04571 0.75716 0.0
C488 C 0.5519 0.01311 0.75566 0.0
C489 C 0.52848 0.97832 0.7514 0.0
C490 C 0.59511 0.13658 0.80856 0.0
C491 C 0.62283 0.14365 0.80228 0.0
C492 C 0.57006 0.10607 0.79232 0.0
C493 C 0.57205 0.08195 0.76925 0.0
C494 C 0.59936 0.09065 0.76121 0.0
C495 C 0.62449 0.12117 0.77758 0.0
H496 H 0.33888 0.32487 0.21124 0.0
H497 H 0.40122 0.29602 0.17408 0.0
H498 H 0.35144 0.38083 0.18344 0.0
H499 H 0.4133 0.35192 0.14531 0.0
H500 H 0.46199 0.48204 0.16271 0.0
H501 H 0.44135 0.41565 0.16591 0.0
H502 H 0.35313 0.41298 0.1351 0.0
H503 H 0.37397 0.48007 0.13285 0.0
C504 C 0.35481 0.33003 0.1965 0.0
C505 C 0.36952 0.30637 0.19546 0.0
C506 C 0.36179 0.36203 0.18017 0.0
C507 C 0.3836 0.37113 0.16229 0.0
C508 C 0.39673 0.34601 0.15928 0.0
C509 C 0.38977 0.31395 0.17572 0.0
C510 C 0.43818 0.46719 0.15568 0.0
C511 C 0.41962 0.48646 0.14835 0.0
C512 C 0.42628 0.42892 0.1573 0.0
C513 C 0.39553 0.40902 0.15149 0.0
C514 C 0.37694 0.42768 0.14047 0.0
C515 C 0.38888 0.4661 0.1389 0.0
H516 H 0.31762 0.16118 0.15826 0.0
H517 H 0.34735 0.12867 0.25277 0.0
H518 H 0.34415 0.13179 0.13475 0.0
H519 H 0.37355 0.09886 0.22906 0.0
H520 H 0.45636 0.12079 0.18808 0.0
H521 H 0.41917 0.13069 0.21023 0.0
H522 H 0.35303 0.0764 0.12167 0.0
H523 H 0.39038 0.06674 0.09924 0.0
C524 C 0.32893 0.14665 0.17382 0.0
C525 C 0.33096 0.14804 0.20754 0.0
C526 C 0.34415 0.12976 0.1603 0.0
C527 C 0.36153 0.11385 0.18026 0.0
C528 C 0.36091 0.11174 0.21327 0.0
C529 C 0.34572 0.1286 0.22678 0.0
C530 C 0.43386 0.11069 0.1734 0.0
C531 C 0.42639 0.09327 0.14181 0.0
C532 C 0.41245 0.116 0.18623 0.0
C533 C 0.38311 0.10412 0.16774 0.0
C534 C 0.37547 0.08596 0.13641 0.0
C535 C 0.39688 0.08044 0.12362 0.0
H536 H 0.1069 0.45344 0.54296 0.0
H537 H 0.07162 0.45382 0.44014 0.0
H538 H 0.15682 0.4848 0.53584 0.0
H539 H 0.12172 0.48364 0.43258 0.0
H540 H 0.21482 0.55989 0.43103 0.0
H541 H 0.16577 0.53826 0.44204 0.0
H542 H 0.19054 0.47112 0.51413 0.0
H543 H 0.23957 0.49396 0.50426 0.0
C544 C 0.10984 0.45996 0.51874 0.0
C545 C 0.08536 0.45086 0.49204 0.0
C546 C 0.1385 0.47786 0.51462 0.0
C547 C 0.14342 0.48654 0.48358 0.0
C548 C 0.11883 0.4779 0.45693 0.0
C549 C 0.09009 0.46047 0.46117 0.0
C550 C 0.20984 0.54096 0.44958 0.0
C551 C 0.23105 0.5286 0.46671 0.0
C552 C 0.18166 0.52829 0.4557 0.0
C553 C 0.17403 0.50269 0.47882 0.0
C554 C 0.19564 0.49126 0.49655 0.0
C555 C 0.22383 0.50426 0.49075 0.0
H556 H 0.74988 0.27626 0.8322 0.0
H557 H 0.79054 0.32363 0.93206 0.0
H558 H 0.79752 0.30599 0.81845 0.0
H559 H 0.83824 0.35325 0.91817 0.0
H560 H 0.91456 0.42367 0.87161 0.0
H561 H 0.8659 0.40085 0.88393 0.0
H562 H 0.84378 0.29397 0.83415 0.0
H563 H 0.89217 0.31657 0.82179 0.0
C564 C 0.76886 0.29344 0.85112 0.0
C565 C 0.76649 0.29729 0.88331 0.0
C566 C 0.79617 0.31025 0.84326 0.0
C567 C 0.8216 0.3315 0.86734 0.0
C568 C 0.81896 0.33708 0.89912 0.0
C569 C 0.79167 0.32002 0.90706 0.0
C570 C 0.89931 0.39529 0.86335 0.0
C571 C 0.90722 0.37191 0.84575 0.0
C572 C 0.87152 0.38226 0.87046 0.0
C573 C 0.85102 0.34577 0.85976 0.0
C574 C 0.85898 0.32242 0.84225 0.0
C575 C 0.8868 0.33528 0.83543 0.0
H576 H 0.51455 0.65496 0.10457 0.0
H577 H 0.5603 0.67275 0.20627 0.0
H578 H 0.55729 0.70419 0.09231 0.0
H579 H 0.60353 0.72084 0.19391 0.0
H580 H 0.65267 0.83828 0.16484 0.0
H581 H 0.61767 0.78223 0.18001 0.0
H582 H 0.60707 0.72415 0.0882 0.0
H583 H 0.64135 0.78097 0.07243 0.0
C584 C 0.53389 0.66908 0.12423 0.0
C585 C 0.53391 0.66032 0.15641 0.0
C586 C 0.55857 0.69707 0.11719 0.0
C587 C 0.58397 0.71659 0.14213 0.0
C588 C 0.58423 0.70689 0.17418 0.0
C589 C 0.55943 0.67926 0.18126 0.0
C590 C 0.64345 0.81337 0.14816 0.0
C591 C 0.6494 0.8143 0.11717 0.0
C592 C 0.62334 0.78105 0.15692 0.0
C593 C 0.60901 0.74876 0.13505 0.0
C594 C 0.61705 0.74881 0.10525 0.0
C595 C 0.63696 0.78128 0.09635 0.0
H596 H 0.77231 0.5637 0.48212 0.0
H597 H 0.81476 0.59426 0.58454 0.0
H598 H 0.72456 0.53198 0.49578 0.0
H599 H 0.76682 0.56324 0.598 0.0
H600 H 0.66434 0.53964 0.59134 0.0
H601 H 0.71424 0.57191 0.58297 0.0
H602 H 0.70599 0.47252 0.53097 0.0
H603 H 0.65652 0.43991 0.53989 0.0
C604 C 0.77136 0.56411 0.50746 0.0
C605 C 0.79718 0.58136 0.53228 0.0
C606 C 0.74415 0.54576 0.51526 0.0
C607 C 0.74225 0.54506 0.54792 0.0
C608 C 0.76785 0.56343 0.57267 0.0
C609 C 0.79517 0.5811 0.56494 0.0
C610 C 0.67346 0.52449 0.57874 0.0
C611 C 0.65656 0.48728 0.56626 0.0
C612 C 0.7019 0.54295 0.57393 0.0
C613 C 0.71358 0.5247 0.556 0.0
C614 C 0.69721 0.48718 0.5446 0.0
C615 C 0.66906 0.46849 0.54999 0.0
H616 H 0.18352 0.7182 0.7585 0.0
H617 H 0.20912 0.83099 0.79768 0.0
H618 H 0.23157 0.73531 0.74608 0.0
H619 H 0.25753 0.84785 0.78626 0.0
H620 H 0.33429 0.8767 0.74079 0.0
H621 H 0.28288 0.85707 0.7434 0.0
H622 H 0.28199 0.75171 0.77367 0.0
H623 H 0.33299 0.77085 0.77001 0.0
C624 C 0.19947 0.74663 0.76461 0.0
C625 C 0.19254 0.77324 0.77917 0.0
C626 C 0.22706 0.75641 0.75756 0.0
C627 C 0.24845 0.79296 0.76511 0.0
C628 C 0.24142 0.81959 0.77954 0.0
C629 C 0.21374 0.80987 0.78637 0.0
C630 C 0.32293 0.84907 0.74739 0.0
C631 C 0.33781 0.82545 0.75544 0.0
C632 C 0.29354 0.83795 0.7492 0.0
C633 C 0.27842 0.80306 0.7593 0.0
C634 C 0.29284 0.77868 0.7656 0.0
C635 C 0.32217 0.7897 0.76355 0.0
loop_
_geom_bond_atom_site_label_1
_geom_bond_atom_site_label_2
_geom_bond_distance
_geom_bond_site_symmetry_2
_ccdc_geom_bond_type
C0 O1 1.160 . S
C0 O7 1.185 . S
O1 C0 1.160 . S
O2 Zn3 1.899 . S
O2 C10 1.284 . S
Zn3 O2 1.899 . S
Zn3 O4 2.032 . S
Zn3 O7 2.086 . S
Zn3 O12 1.977 . S
O4 Zn3 2.032 . S
O4 C8 1.278 . S
C5 O6 1.203 . S
C5 O12 1.267 . S
O6 C5 1.203 . S
O7 C0 1.185 . S
O7 Zn3 2.086 . S
C8 O4 1.278 . S
C8 O9 1.211 . S
O9 C8 1.211 . S
C10 O2 1.284 . S
C10 O11 1.273 . S
O11 C10 1.273 . S
O12 Zn3 1.977 . S
O12 C5 1.267 . S
C13 O14 1.160 . S
C13 O20 1.185 . S
O14 C13 1.160 . S
O15 Zn16 1.899 . S
O15 C23 1.284 . S
Zn16 O15 1.899 . S
Zn16 O17 2.032 . S
Zn16 O20 2.086 . S
Zn16 O25 1.977 . S
O17 Zn16 2.032 . S
O17 C21 1.278 . S
C18 O19 1.203 . S
C18 O25 1.267 . S
O19 C18 1.203 . S
O20 C13 1.185 . S
O20 Zn16 2.086 . S
C21 O17 1.278 . S
C21 O22 1.211 . S
O22 C21 1.211 . S
C23 O15 1.284 . S
C23 O24 1.273 . S
O24 C23 1.273 . S
O25 Zn16 1.977 . S
O25 C18 1.267 . S
C26 O27 1.160 . S
C26 O33 1.185 . S
O27 C26 1.160 . S
O28 Zn29 1.899 . S
O28 C36 1.284 . S
Zn29 O28 1.899 . S
Zn29 O30 2.032 . S
Zn29 O33 2.086 . S
Zn29 O38 1.977 . S
O30 Zn29 2.032 . S
O30 C34 1.278 . S
C31 O32 1.203 . S
C31 O38 1.267 . S
O32 C31 1.203 . S
O33 C26 1.185 . S
O33 Zn29 2.086 . S
C34 O30 1.278 . S
C34 O35 1.211 . S
O35 C34 1.211 . S
C36 O28 1.284 . S
C36 O37 1.273 . S
O37 C36 1.273 . S
O38 Zn29 1.977 . S
O38 C31 1.267 . S
C39 O40 1.160 . S
C39 O46 1.185 . S
O40 C39 1.160 . S
O41 Zn42 1.899 . S
O41 C49 1.284 . S
Zn42 O41 1.899 . S
Zn42 O43 2.032 . S
Zn42 O46 2.086 . S
Zn42 O51 1.977 . S
O43 Zn42 2.032 . S
O43 C47 1.278 . S
C44 O45 1.203 . S
C44 O51 1.267 . S
O45 C44 1.203 . S
O46 C39 1.185 . S
O46 Zn42 2.086 . S
C47 O43 1.278 . S
C47 O48 1.211 1_554 S
O48 C47 1.211 1_556 S
C49 O41 1.284 . S
C49 O50 1.273 . S
O50 C49 1.273 . S
O51 Zn42 1.977 . S
O51 C44 1.267 . S
C52 O53 1.160 . S
C52 O59 1.185 . S
O53 C52 1.160 . S
O54 Zn55 1.899 . S
O54 C62 1.284 . S
Zn55 O54 1.899 . S
Zn55 O56 2.032 . S
Zn55 O59 2.086 . S
Zn55 O64 1.977 . S
O56 Zn55 2.032 . S
O56 C60 1.278 . S
C57 O58 1.203 . S
C57 O64 1.267 . S
O58 C57 1.203 . S
O59 C52 1.185 . S
O59 Zn55 2.086 . S
C60 O56 1.278 . S
C60 O61 1.211 . S
O61 C60 1.211 . S
C62 O54 1.284 . S
C62 O63 1.273 . S
O63 C62 1.273 . S
O64 Zn55 1.977 . S
O64 C57 1.267 . S
C65 O66 1.160 . S
C65 O72 1.185 . S
O66 C65 1.160 . S
O67 Zn68 1.899 . S
O67 C75 1.284 . S
Zn68 O67 1.899 . S
Zn68 O69 2.032 . S
Zn68 O72 2.086 . S
Zn68 O77 1.977 . S
O69 Zn68 2.032 . S
O69 C73 1.278 . S
C70 O71 1.203 . S
C70 O77 1.267 . S
O71 C70 1.203 . S
O72 C65 1.185 . S
O72 Zn68 2.086 . S
C73 O69 1.278 . S
C73 O74 1.211 . S
O74 C73 1.211 . S
C75 O67 1.284 . S
C75 O76 1.273 . S
O76 C75 1.273 . S
O77 Zn68 1.977 . S
O77 C70 1.267 . S
C78 O79 1.160 . S
C78 O85 1.185 . S
O79 C78 1.160 . S
O80 Zn81 1.899 . S
O80 C88 1.284 . S
Zn81 O80 1.899 . S
Zn81 O82 2.032 . S
Zn81 O85 2.086 . S
Zn81 O90 1.977 . S
O82 Zn81 2.032 . S
O82 C86 1.278 . S
C83 O84 1.203 . S
C83 O90 1.267 . S
O84 C83 1.203 . S
O85 C78 1.185 . S
O85 Zn81 2.086 . S
C86 O82 1.278 . S
C86 O87 1.211 . S
O87 C86 1.211 . S
C88 O80 1.284 . S
C88 O89 1.273 . S
O89 C88 1.273 . S
O90 Zn81 1.977 . S
O90 C83 1.267 . S
C91 O92 1.160 . S
C91 O98 1.185 . S
O92 C91 1.160 . S
O93 Zn94 1.899 . S
O93 C101 1.284 . S
Zn94 O93 1.899 . S
Zn94 O95 2.032 . S
Zn94 O98 2.086 . S
Zn94 O103 1.977 . S
O95 Zn94 2.032 . S
O95 C99 1.278 . S
C96 O97 1.203 . S
C96 O103 1.267 . S
O97 C96 1.203 . S
O98 C91 1.185 . S
O98 Zn94 2.086 . S
C99 O95 1.278 . S
C99 O100 1.211 . S
O100 C99 1.211 . S
C101 O93 1.284 . S
C101 O102 1.273 . S
O102 C101 1.273 . S
O103 Zn94 1.977 . S
O103 C96 1.267 . S
C104 O105 1.160 . S
C104 O111 1.185 . S
O105 C104 1.160 . S
O106 Zn107 1.899 . S
O106 C114 1.284 . S
Zn107 O106 1.899 . S
Zn107 O108 2.032 . S
Zn107 O111 2.086 . S
Zn107 O116 1.977 . S
O108 Zn107 2.032 . S
O108 C112 1.278 . S
C109 O110 1.203 . S
C109 O116 1.267 . S
O110 C109 1.203 . S
O111 C104 1.185 . S
O111 Zn107 2.086 . S
C112 O108 1.278 . S
C112 O113 1.211 . S
O113 C112 1.211 . S
C114 O106 1.284 . S
C114 O115 1.273 . S
O115 C114 1.273 . S
O116 Zn107 1.977 . S
O116 C109 1.267 . S
C117 O118 1.160 . S
C117 O124 1.185 . S
O118 C117 1.160 . S
O119 Zn120 1.899 . S
O119 C127 1.284 . S
Zn120 O119 1.899 . S
Zn120 O121 2.032 . S
Zn120 O124 2.086 . S
Zn120 O129 1.977 . S
O121 Zn120 2.032 . S
O121 C125 1.278 . S
C122 O123 1.203 . S
C122 O129 1.267 . S
O123 C122 1.203 . S
O124 C117 1.185 . S
O124 Zn120 2.086 . S
C125 O121 1.278 . S
C125 O126 1.211 . S
O126 C125 1.211 . S
C127 O119 1.284 . S
C127 O128 1.273 . S
O128 C127 1.273 . S
O129 Zn120 1.977 . S
O129 C122 1.267 . S
C130 O131 1.160 . S
C130 O137 1.185 . S
O131 C130 1.160 . S
O132 Zn133 1.899 . S
O132 C140 1.284 . S
Zn133 O132 1.899 . S
Zn133 O134 2.032 . S
Zn133 O137 2.086 . S
Zn133 O142 1.977 . S
O134 Zn133 2.032 . S
O134 C138 1.278 . S
C135 O136 1.203 . S
C135 O142 1.267 . S
O136 C135 1.203 . S
O137 C130 1.185 . S
O137 Zn133 2.086 . S
C138 O134 1.278 . S
C138 O139 1.211 . S
O139 C138 1.211 . S
C140 O132 1.284 . S
C140 O141 1.273 . S
O141 C140 1.273 . S
O142 Zn133 1.977 . S
O142 C135 1.267 . S
C143 O144 1.160 . S
C143 O150 1.185 . S
O144 C143 1.160 . S
O145 Zn146 1.899 . S
O145 C153 1.284 . S
Zn146 O145 1.899 . S
Zn146 O147 2.032 . S
Zn146 O150 2.086 . S
Zn146 O155 1.977 . S
O147 Zn146 2.032 . S
O147 C151 1.278 . S
C148 O149 1.203 . S
C148 O155 1.267 . S
O149 C148 1.203 . S
O150 C143 1.185 . S
O150 Zn146 2.086 . S
C151 O147 1.278 . S
C151 O152 1.211 . S
O152 C151 1.211 . S
C153 O145 1.284 . S
C153 O154 1.273 . S
O154 C153 1.273 . S
O155 Zn146 1.977 . S
O155 C148 1.267 . S
H156 C164 0.950 . S
H157 C169 0.950 . S
H158 C166 0.950 . S
H159 C168 0.950 . S
H160 C170 0.950 . S
H161 C172 0.950 . S
H162 C174 0.950 . S
H163 C175 0.950 . S
C164 H156 0.950 . S
C164 C165 1.386 . S
C164 C166 1.391 . S
C165 C164 1.386 . S
C165 C169 1.393 . S
C166 H158 0.950 . S
C166 C164 1.391 . S
C166 C167 1.400 . S
C167 C166 1.400 . S
C167 C168 1.398 . S
C167 C173 1.491 1_554 S
C168 H159 0.950 . S
C168 C167 1.398 . S
C168 C169 1.391 . S
C169 H157 0.950 . S
C169 C165 1.393 . S
C169 C168 1.391 . S
C170 H160 0.950 . S
C170 C171 1.386 . S
C170 C172 1.391 . S
C171 C170 1.386 . S
C171 C175 1.393 . S
C172 H161 0.950 . S
C172 C170 1.391 . S
C172 C173 1.400 . S
C173 C167 1.491 1_556 S
C173 C172 1.400 . S
C173 C174 1.398 . S
C174 H162 0.950 . S
C174 C173 1.398 . S
C174 C175 1.391 . S
C175 H163 0.950 . S
C175 C171 1.393 . S
C175 C174 1.391 . S
H176 C184 0.950 . S
H177 C189 0.950 . S
H178 C186 0.950 . S
H179 C188 0.950 . S
H180 C190 0.950 . S
H181 C192 0.950 . S
H182 C194 0.950 . S
H183 C195 0.950 . S
C184 H176 0.950 . S
C184 C185 1.386 . S
C184 C186 1.391 . S
C185 C184 1.386 . S
C185 C189 1.393 . S
C186 H178 0.950 . S
C186 C184 1.391 . S
C186 C187 1.400 . S
C187 C186 1.400 . S
C187 C188 1.398 . S
C187 C193 1.491 . S
C188 H179 0.950 . S
C188 C187 1.398 . S
C188 C189 1.391 . S
C189 H177 0.950 . S
C189 C185 1.393 . S
C189 C188 1.391 . S
C190 H180 0.950 . S
C190 C191 1.386 . S
C190 C192 1.391 . S
C191 C190 1.386 . S
C191 C195 1.393 . S
C192 H181 0.950 . S
C192 C190 1.391 . S
C192 C193 1.400 . S
C193 C187 1.491 . S
C193 C192 1.400 . S
C193 C194 1.398 . S
C194 H182 0.950 . S
C194 C193 1.398 . S
C194 C195 1.391 . S
C195 H183 0.950 . S
C195 C191 1.393 . S
C195 C194 1.391 . S
H196 C204 0.950 . S
H197 C209 0.950 . S
H198 C206 0.950 . S
H199 C208 0.950 . S
H200 C210 0.950 . S
H201 C212 0.950 . S
H202 C214 0.950 . S
H203 C215 0.950 . S
C204 H196 0.950 . S
C204 C205 1.386 . S
C204 C206 1.391 . S
C205 C204 1.386 . S
C205 C209 1.393 . S
C206 H198 0.950 . S
C206 C204 1.391 . S
C206 C207 1.400 . S
C207 C206 1.400 . S
C207 C208 1.398 . S
C207 C213 1.491 . S
C208 H199 0.950 . S
C208 C207 1.398 . S
C208 C209 1.391 . S
C209 H197 0.950 . S
C209 C205 1.393 . S
C209 C208 1.391 . S
C210 H200 0.950 . S
C210 C211 1.386 . S
C210 C212 1.391 . S
C211 C210 1.386 . S
C211 C215 1.393 . S
C212 H201 0.950 . S
C212 C210 1.391 . S
C212 C213 1.400 . S
C213 C207 1.491 . S
C213 C212 1.400 . S
C213 C214 1.398 . S
C214 H202 0.950 . S
C214 C213 1.398 . S
C214 C215 1.391 . S
C215 H203 0.950 . S
C215 C211 1.393 . S
C215 C214 1.391 . S
H216 C224 0.950 1_554 S
H217 C229 0.950 . S
H218 C226 0.950 . S
H219 C228 0.950 . S
H220 C230 0.950 . S
H221 C232 0.950 . S
H222 C234 0.950 . S
H223 C235 0.950 . S
C224 H216 0.950 1_556 S
C224 C225 1.386 1_556 S
C224 C226 1.391 . S
C225 C224 1.386 1_554 S
C225 C229 1.393 1_554 S
C226 H218 0.950 . S
C226 C224 1.391 . S
C226 C227 1.400 . S
C227 C226 1.400 . S
C227 C228 1.398 . S
C227 C233 1.491 . S
C228 H219 0.950 . S
C228 C227 1.398 . S
C228 C229 1.391 . S
C229 H217 0.950 . S
C229 C225 1.393 1_556 S
C229 C228 1.391 . S
C230 H220 0.950 . S
C230 C231 1.386 . S
C230 C232 1.391 . S
C231 C230 1.386 . S
C231 C235 1.393 . S
C232 H221 0.950 . S
C232 C230 1.391 . S
C232 C233 1.400 . S
C233 C227 1.491 . S
C233 C232 1.400 . S
C233 C234 1.398 . S
C234 H222 0.950 . S
C234 C233 1.398 . S
C234 C235 1.391 . S
C235 H223 0.950 . S
C235 C231 1.393 . S
C235 C234 1.391 . S
H236 C244 0.950 . S
H237 C249 0.950 . S
H238 C246 0.950 . S
H239 C248 0.950 . S
H240 C250 0.950 . S
H241 C252 0.950 . S
H242 C254 0.950 . S
H243 C255 0.950 . S
C244 H236 0.950 . S
C244 C245 1.386 . S
C244 C246 1.391 . S
C245 C244 1.386 . S
C245 C249 1.393 . S
C246 H238 0.950 . S
C246 C244 1.391 . S
C246 C247 1.400 . S
C247 C246 1.400 . S
C247 C248 1.398 . S
C247 C253 1.491 . S
C248 H239 0.950 . S
C248 C247 1.398 . S
C248 C249 1.391 . S
C249 H237 0.950 . S
C249 C245 1.393 . S
C249 C248 1.391 . S
C250 H240 0.950 . S
C250 C251 1.386 . S
C250 C252 1.391 . S
C251 C250 1.386 . S
C251 C255 1.393 . S
C252 H241 0.950 . S
C252 C250 1.391 . S
C252 C253 1.400 . S
C253 C247 1.491 . S
C253 C252 1.400 . S
C253 C254 1.398 . S
C254 H242 0.950 . S
C254 C253 1.398 . S
C254 C255 1.391 . S
C255 H243 0.950 . S
C255 C251 1.393 . S
C255 C254 1.391 . S
H256 C264 0.950 . S
H257 C269 0.950 . S
H258 C266 0.950 . S
H259 C268 0.950 . S
H260 C270 0.950 . S
H261 C272 0.950 . S
H262 C274 0.950 . S
H263 C275 0.950 . S
C264 H256 0.950 . S
C264 C265 1.386 . S
C264 C266 1.391 . S
C265 C264 1.386 . S
C265 C269 1.393 . S
C266 H258 0.950 . S
C266 C264 1.391 . S
C266 C267 1.400 . S
C267 C266 1.400 . S
C267 C268 1.398 . S
C267 C273 1.491 . S
C268 H259 0.950 . S
C268 C267 1.398 . S
C268 C269 1.391 . S
C269 H257 0.950 . S
C269 C265 1.393 . S
C269 C268 1.391 . S
C270 H260 0.950 . S
C270 C271 1.386 . S
C270 C272 1.391 . S
C271 C270 1.386 . S
C271 C275 1.393 . S
C272 H261 0.950 . S
C272 C270 1.391 . S
C272 C273 1.400 . S
C273 C267 1.491 . S
C273 C272 1.400 . S
C273 C274 1.398 . S
C274 H262 0.950 . S
C274 C273 1.398 . S
C274 C275 1.391 . S
C275 H263 0.950 . S
C275 C271 1.393 . S
C275 C274 1.391 . S
H276 C284 0.950 . S
H277 C289 0.950 . S
H278 C286 0.950 . S
H279 C288 0.950 . S
H280 C290 0.950 . S
H281 C292 0.950 . S
H282 C294 0.950 . S
H283 C295 0.950 1_545 S
C284 H276 0.950 . S
C284 C285 1.386 . S
C284 C286 1.391 1_554 S
C285 C284 1.386 . S
C285 C289 1.393 . S
C286 H278 0.950 . S
C286 C284 1.391 1_556 S
C286 C287 1.400 . S
C287 C286 1.400 . S
C287 C288 1.398 1_556 S
C287 C293 1.491 . S
C288 H279 0.950 . S
C288 C287 1.398 1_554 S
C288 C289 1.391 . S
C289 H277 0.950 . S
C289 C285 1.393 . S
C289 C288 1.391 . S
C290 H280 0.950 . S
C290 C291 1.386 . S
C290 C292 1.391 . S
C291 C290 1.386 . S
C291 C295 1.393 . S
C292 H281 0.950 . S
C292 C290 1.391 . S
C292 C293 1.400 1_565 S
C293 C287 1.491 . S
C293 C292 1.400 1_545 S
C293 C294 1.398 . S
C294 H282 0.950 . S
C294 C293 1.398 . S
C294 C295 1.391 1_545 S
C295 H283 0.950 1_565 S
C295 C291 1.393 . S
C295 C294 1.391 1_565 S
H296 C304 0.950 . S
H297 C309 0.950 . S
H298 C306 0.950 . S
H299 C308 0.950 . S
H300 C310 0.950 . S
H301 C312 0.950 . S
H302 C314 0.950 . S
H303 C315 0.950 . S
C304 H296 0.950 . S
C304 C305 1.386 . S
C304 C306 1.391 . S
C305 C304 1.386 . S
C305 C309 1.393 . S
C306 H298 0.950 . S
C306 C304 1.391 . S
C306 C307 1.400 . S
C307 C306 1.400 . S
C307 C308 1.398 . S
C307 C313 1.491 . S
C308 H299 0.950 . S
C308 C307 1.398 . S
C308 C309 1.391 . S
C309 H297 0.950 . S
C309 C305 1.393 . S
C309 C308 1.391 . S
C310 H300 0.950 . S
C310 C311 1.386 . S
C310 C312 1.391 . S
C311 C310 1.386 . S
C311 C315 1.393 . S
C312 H301 0.950 . S
C312 C310 1.391 . S
C312 C313 1.400 . S
C313 C307 1.491 . S
C313 C312 1.400 . S
C313 C314 1.398 . S
C314 H302 0.950 . S
C314 C313 1.398 . S
C314 C315 1.391 . S
C315 H303 0.950 . S
C315 C311 1.393 . S
C315 C314 1.391 . S
H316 C324 0.950 . S
H317 C329 0.950 1_655 S
H318 C326 0.950 . S
H319 C328 0.950 . S
H320 C330 0.950 . S
H321 C332 0.950 . S
H322 C334 0.950 . S
H323 C335 0.950 1_455 S
C324 H316 0.950 . S
C324 C325 1.386 . S
C324 C326 1.391 . S
C325 C324 1.386 . S
C325 C329 1.393 . S
C326 H318 0.950 . S
C326 C324 1.391 . S
C326 C327 1.400 . S
C327 C326 1.400 . S
C327 C328 1.398 1_455 S
C327 C333 1.491 1_455 S
C328 H319 0.950 . S
C328 C327 1.398 1_655 S
C328 C329 1.391 1_655 S
C329 H317 0.950 1_455 S
C329 C325 1.393 . S
C329 C328 1.391 1_455 S
C330 H320 0.950 . S
C330 C331 1.386 . S
C330 C332 1.391 . S
C331 C330 1.386 . S
C331 C335 1.393 . S
C332 H321 0.950 . S
C332 C330 1.391 . S
C332 C333 1.400 . S
C333 C327 1.491 1_655 S
C333 C332 1.400 . S
C333 C334 1.398 1_655 S
C334 H322 0.950 . S
C334 C333 1.398 1_455 S
C334 C335 1.391 1_455 S
C335 H323 0.950 1_655 S
C335 C331 1.393 . S
C335 C334 1.391 1_655 S
H336 C344 0.950 . S
H337 C349 0.950 . S
H338 C346 0.956 . S
H339 C348 0.950 . S
H340 C350 0.950 . S
H341 C352 0.950 . S
H342 C354 0.950 . S
H343 C355 0.950 . S
C344 H336 0.950 . S
C344 C345 1.386 . S
C344 C346 1.382 1_565 S
C345 C344 1.386 . S
C345 C349 1.393 . S
C346 H338 0.956 . S
C346 C344 1.382 1_545 S
C346 C347 1.403 1_544 S
C347 C346 1.403 1_566 S
C347 C348 1.398 . S
C347 C353 1.491 1_565 S
C348 H339 0.950 . S
C348 C347 1.398 . S
C348 C349 1.391 1_556 S
C349 H337 0.950 . S
C349 C345 1.393 . S
C349 C348 1.391 1_554 S
C350 H340 0.950 . S
C350 C351 1.386 . S
C350 C352 1.391 . S
C351 C350 1.386 . S
C351 C355 1.393 . S
C352 H341 0.950 . S
C352 C350 1.391 . S
C352 C353 1.400 . S
C353 C347 1.491 1_545 S
C353 C352 1.400 . S
C353 C354 1.398 . S
C354 H342 0.950 . S
C354 C353 1.398 . S
C354 C355 1.391 . S
C355 H343 0.950 . S
C355 C351 1.393 . S
C355 C354 1.391 . S
H356 C364 0.950 . S
H357 C369 0.950 . S
H358 C366 0.950 . S
H359 C368 0.950 . S
H360 C370 0.950 . S
H361 C372 0.950 . S
H362 C374 0.950 . S
H363 C375 0.950 . S
C364 H356 0.950 . S
C364 C365 1.386 . S
C364 C366 1.391 . S
C365 C364 1.386 . S
C365 C369 1.393 . S
C366 H358 0.950 . S
C366 C364 1.391 . S
C366 C367 1.400 . S
C367 C366 1.400 . S
C367 C368 1.398 . S
C367 C373 1.491 . S
C368 H359 0.950 . S
C368 C367 1.398 . S
C368 C369 1.391 . S
C369 H357 0.950 . S
C369 C365 1.393 . S
C369 C368 1.391 . S
C370 H360 0.950 . S
C370 C371 1.386 . S
C370 C372 1.391 . S
C371 C370 1.386 . S
C371 C375 1.393 . S
C372 H361 0.950 . S
C372 C370 1.391 . S
C372 C373 1.400 . S
C373 C367 1.491 . S
C373 C372 1.400 . S
C373 C374 1.398 . S
C374 H362 0.950 . S
C374 C373 1.398 . S
C374 C375 1.391 . S
C375 H363 0.950 . S
C375 C371 1.393 . S
C375 C374 1.391 . S
H376 C384 0.950 . S
H377 C389 0.950 . S
H378 C386 0.950 . S
H379 C388 0.950 . S
H380 C390 0.950 . S
H381 C392 0.950 . S
H382 C394 0.950 . S
H383 C395 0.950 . S
C384 H376 0.950 . S
C384 C385 1.386 . S
C384 C386 1.391 . S
C385 C384 1.386 . S
C385 C389 1.393 . S
C386 H378 0.950 . S
C386 C384 1.391 . S
C386 C387 1.400 . S
C387 C386 1.400 . S
C387 C388 1.398 . S
C387 C393 1.491 1_455 S
C388 H379 0.950 . S
C388 C387 1.398 . S
C388 C389 1.391 . S
C389 H377 0.950 . S
C389 C385 1.393 . S
C389 C388 1.391 . S
C390 H380 0.950 . S
C390 C391 1.386 . S
C390 C392 1.391 . S
C391 C390 1.386 . S
C391 C395 1.393 . S
C392 H381 0.950 . S
C392 C390 1.391 . S
C392 C393 1.400 . S
C393 C387 1.491 1_655 S
C393 C392 1.400 . S
C393 C394 1.398 . S
C394 H382 0.950 . S
C394 C393 1.398 . S
C394 C395 1.391 . S
C395 H383 0.950 . S
C395 C391 1.393 . S
C395 C394 1.391 . S
H396 C404 0.950 . S
H397 C409 0.950 . S
H398 C406 0.950 1_545 S
H399 C408 0.950 . S
H400 C410 0.950 . S
H401 C412 0.950 . S
H402 C414 0.950 . S
H403 C415 0.950 . S
C404 H396 0.950 . S
C404 C405 1.386 . S
C404 C406 1.391 . S
C405 C404 1.386 . S
C405 C409 1.393 . S
C406 H398 0.950 1_565 S
C406 C404 1.391 . S
C406 C407 1.400 1_565 S
C407 C406 1.400 1_545 S
C407 C408 1.398 1_545 S
C407 C413 1.491 . S
C408 H399 0.950 . S
C408 C407 1.398 1_565 S
C408 C409 1.391 . S
C409 H397 0.950 . S
C409 C405 1.393 . S
C409 C408 1.391 . S
C410 H400 0.950 . S
C410 C411 1.386 . S
C410 C412 1.391 . S
C411 C410 1.386 . S
C411 C415 1.393 . S
C412 H401 0.950 . S
C412 C410 1.391 . S
C412 C413 1.400 . S
C413 C407 1.491 . S
C413 C412 1.400 . S
C413 C414 1.398 . S
C414 H402 0.950 . S
C414 C413 1.398 . S
C414 C415 1.391 . S
C415 H403 0.950 . S
C415 C411 1.393 . S
C415 C414 1.391 . S
H416 C424 0.950 . S
H417 C429 0.950 . S
H418 C426 0.950 . S
H419 C428 0.950 . S
H420 C430 0.950 . S
H421 C432 0.950 . S
H422 C434 0.950 . S
H423 C435 0.950 . S
C424 H416 0.950 . S
C424 C425 1.386 . S
C424 C426 1.391 . S
C425 C424 1.386 . S
C425 C429 1.393 . S
C426 H418 0.950 . S
C426 C424 1.391 . S
C426 C427 1.400 . S
C427 C426 1.400 . S
C427 C428 1.398 . S
C427 C433 1.491 . S
C428 H419 0.950 . S
C428 C427 1.398 . S
C428 C429 1.391 . S
C429 H417 0.950 . S
C429 C425 1.393 . S
C429 C428 1.391 . S
C430 H420 0.950 . S
C430 C431 1.386 . S
C430 C432 1.391 . S
C431 C430 1.386 . S
C431 C435 1.393 . S
C432 H421 0.950 . S
C432 C430 1.391 . S
C432 C433 1.400 . S
C433 C427 1.491 . S
C433 C432 1.400 . S
C433 C434 1.398 . S
C434 H422 0.950 . S
C434 C433 1.398 . S
C434 C435 1.391 . S
C435 H423 0.950 . S
C435 C431 1.393 . S
C435 C434 1.391 . S
H436 C444 0.950 . S
H437 C449 0.950 . S
H438 C446 0.950 . S
H439 C448 0.950 . S
H440 C450 0.950 . S
H441 C452 0.950 . S
H442 C454 0.950 . S
H443 C455 0.950 . S
C444 H436 0.950 . S
C444 C445 1.386 . S
C444 C446 1.391 . S
C445 C444 1.386 . S
C445 C449 1.393 . S
C446 H438 0.950 . S
C446 C444 1.391 . S
C446 C447 1.400 . S
C447 C446 1.400 . S
C447 C448 1.398 . S
C447 C453 1.491 . S
C448 H439 0.950 . S
C448 C447 1.398 . S
C448 C449 1.391 . S
C449 H437 0.950 . S
C449 C445 1.393 . S
C449 C448 1.391 . S
C450 H440 0.950 . S
C450 C451 1.386 1_655 S
C450 C452 1.391 1_655 S
C451 C450 1.386 1_455 S
C451 C455 1.393 . S
C452 H441 0.950 . S
C452 C450 1.391 1_455 S
C452 C453 1.400 . S
C453 C447 1.491 . S
C453 C452 1.400 . S
C453 C454 1.398 . S
C454 H442 0.950 . S
C454 C453 1.398 . S
C454 C455 1.391 . S
C455 H443 0.950 . S
C455 C451 1.393 . S
C455 C454 1.391 . S
H456 C464 0.950 . S
H457 C469 0.950 . S
H458 C466 0.950 . S
H459 C468 0.950 . S
H460 C470 0.950 . S
H461 C472 0.950 . S
H462 C474 0.950 . S
H463 C475 0.950 . S
C464 H456 0.950 . S
C464 C465 1.386 . S
C464 C466 1.391 . S
C465 C464 1.386 . S
C465 C469 1.393 . S
C466 H458 0.950 . S
C466 C464 1.391 . S
C466 C467 1.400 . S
C467 C466 1.400 . S
C467 C468 1.398 . S
C467 C473 1.491 . S
C468 H459 0.950 . S
C468 C467 1.398 . S
C468 C469 1.391 . S
C469 H457 0.950 . S
C469 C465 1.393 . S
C469 C468 1.391 . S
C470 H460 0.950 . S
C470 C471 1.386 1_455 S
C470 C472 1.391 1_455 S
C471 C470 1.386 1_655 S
C471 C475 1.393 . S
C472 H461 0.950 . S
C472 C470 1.391 1_655 S
C472 C473 1.400 . S
C473 C467 1.491 . S
C473 C472 1.400 . S
C473 C474 1.398 . S
C474 H462 0.950 . S
C474 C473 1.398 . S
C474 C475 1.391 . S
C475 H463 0.950 . S
C475 C471 1.393 . S
C475 C474 1.391 . S
H476 C484 0.950 . S
H477 C489 0.950 . S
H478 C486 0.950 . S
H479 C488 0.954 1_545 S
H480 C490 0.950 . S
H481 C492 0.950 . S
H482 C494 0.950 . S
H483 C495 0.950 . S
C484 H476 0.950 . S
C484 C485 1.386 . S
C484 C486 1.391 1_565 S
C485 C484 1.386 . S
C485 C489 1.393 . S
C486 H478 0.950 . S
C486 C484 1.391 1_545 S
C486 C487 1.400 . S
C487 C486 1.400 . S
C487 C488 1.398 1_545 S
C487 C493 1.491 . S
C488 H479 0.954 1_565 S
C488 C487 1.398 1_565 S
C488 C489 1.391 . S
C489 H477 0.950 . S
C489 C485 1.393 . S
C489 C488 1.391 . S
C490 H480 0.950 . S
C490 C491 1.386 . S
C490 C492 1.391 . S
C491 C490 1.386 . S
C491 C495 1.393 . S
C492 H481 0.950 . S
C492 C490 1.391 . S
C492 C493 1.400 . S
C493 C487 1.491 . S
C493 C492 1.400 . S
C493 C494 1.398 . S
C494 H482 0.950 . S
C494 C493 1.398 . S
C494 C495 1.391 . S
C495 H483 0.950 . S
C495 C491 1.393 . S
C495 C494 1.391 . S
H496 C504 0.950 . S
H497 C509 0.950 . S
H498 C506 0.950 . S
H499 C508 0.950 . S
H500 C510 0.950 . S
H501 C512 0.950 . S
H502 C514 0.950 . S
H503 C515 0.950 . S
C504 H496 0.950 . S
C504 C505 1.386 . S
C504 C506 1.391 . S
C505 C504 1.386 . S
C505 C509 1.393 . S
C506 H498 0.950 . S
C506 C504 1.391 . S
C506 C507 1.400 . S
C507 C506 1.400 . S
C507 C508 1.398 . S
C507 C513 1.491 . S
C508 H499 0.950 . S
C508 C507 1.398 . S
C508 C509 1.391 . S
C509 H497 0.950 . S
C509 C505 1.393 . S
C509 C508 1.391 . S
C510 H500 0.950 . S
C510 C511 1.386 . S
C510 C512 1.391 . S
C511 C510 1.386 . S
C511 C515 1.393 . S
C512 H501 0.950 . S
C512 C510 1.391 . S
C512 C513 1.400 . S
C513 C507 1.491 . S
C513 C512 1.400 . S
C513 C514 1.398 . S
C514 H502 0.950 . S
C514 C513 1.398 . S
C514 C515 1.391 . S
C515 H503 0.950 . S
C515 C511 1.393 . S
C515 C514 1.391 . S
H516 C524 0.950 . S
H517 C529 0.950 . S
H518 C526 0.950 . S
H519 C528 0.950 . S
H520 C530 0.950 . S
H521 C532 0.950 . S
H522 C534 0.950 . S
H523 C535 0.950 . S
C524 H516 0.950 . S
C524 C525 1.386 . S
C524 C526 1.391 . S
C525 C524 1.386 . S
C525 C529 1.393 . S
C526 H518 0.950 . S
C526 C524 1.391 . S
C526 C527 1.400 . S
C527 C526 1.400 . S
C527 C528 1.398 . S
C527 C533 1.491 . S
C528 H519 0.950 . S
C528 C527 1.398 . S
C528 C529 1.391 . S
C529 H517 0.950 . S
C529 C525 1.393 . S
C529 C528 1.391 . S
C530 H520 0.950 . S
C530 C531 1.386 . S
C530 C532 1.391 . S
C531 C530 1.386 . S
C531 C535 1.393 . S
C532 H521 0.950 . S
C532 C530 1.391 . S
C532 C533 1.400 . S
C533 C527 1.491 . S
C533 C532 1.400 . S
C533 C534 1.398 . S
C534 H522 0.950 . S
C534 C533 1.398 . S
C534 C535 1.391 . S
C535 H523 0.950 . S
C535 C531 1.393 . S
C535 C534 1.391 . S
H536 C544 0.950 . S
H537 C549 0.950 . S
H538 C546 0.950 . S
H539 C548 0.950 . S
H540 C550 0.950 . S
H541 C552 0.950 . S
H542 C554 0.950 . S
H543 C555 0.950 . S
C544 H536 0.950 . S
C544 C545 1.386 . S
C544 C546 1.391 . S
C545 C544 1.386 . S
C545 C549 1.393 . S
C546 H538 0.950 . S
C546 C544 1.391 . S
C546 C547 1.400 . S
C547 C546 1.400 . S
C547 C548 1.398 . S
C547 C553 1.491 . S
C548 H539 0.950 . S
C548 C547 1.398 . S
C548 C549 1.391 . S
C549 H537 0.950 . S
C549 C545 1.393 . S
C549 C548 1.391 . S
C550 H540 0.950 . S
C550 C551 1.386 . S
C550 C552 1.391 . S
C551 C550 1.386 . S
C551 C555 1.393 . S
C552 H541 0.950 . S
C552 C550 1.391 . S
C552 C553 1.400 . S
C553 C547 1.491 . S
C553 C552 1.400 . S
C553 C554 1.398 . S
C554 H542 0.950 . S
C554 C553 1.398 . S
C554 C555 1.391 . S
C555 H543 0.950 . S
C555 C551 1.393 . S
C555 C554 1.391 . S
H556 C564 0.950 . S
H557 C569 0.950 . S
H558 C566 0.950 . S
H559 C568 0.950 . S
H560 C570 0.950 . S
H561 C572 0.950 . S
H562 C574 0.950 . S
H563 C575 0.950 . S
C564 H556 0.950 . S
C564 C565 1.386 . S
C564 C566 1.391 . S
C565 C564 1.386 . S
C565 C569 1.393 . S
C566 H558 0.950 . S
C566 C564 1.391 . S
C566 C567 1.400 . S
C567 C566 1.400 . S
C567 C568 1.398 . S
C567 C573 1.491 . S
C568 H559 0.950 . S
C568 C567 1.398 . S
C568 C569 1.391 . S
C569 H557 0.950 . S
C569 C565 1.393 . S
C569 C568 1.391 . S
C570 H560 0.950 . S
C570 C571 1.386 . S
C570 C572 1.391 . S
C571 C570 1.386 . S
C571 C575 1.393 . S
C572 H561 0.950 . S
C572 C570 1.391 . S
C572 C573 1.400 . S
C573 C567 1.491 . S
C573 C572 1.400 . S
C573 C574 1.398 . S
C574 H562 0.950 . S
C574 C573 1.398 . S
C574 C575 1.391 . S
C575 H563 0.950 . S
C575 C571 1.393 . S
C575 C574 1.391 . S
H576 C584 0.950 . S
H577 C589 0.950 . S
H578 C586 0.950 . S
H579 C588 0.950 . S
H580 C590 0.950 . S
H581 C592 0.950 . S
H582 C594 0.950 . S
H583 C595 0.950 . S
C584 H576 0.950 . S
C584 C585 1.386 . S
C584 C586 1.391 . S
C585 C584 1.386 . S
C585 C589 1.393 . S
C586 H578 0.950 . S
C586 C584 1.391 . S
C586 C587 1.400 . S
C587 C586 1.400 . S
C587 C588 1.398 . S
C587 C593 1.491 . S
C588 H579 0.950 . S
C588 C587 1.398 . S
C588 C589 1.391 . S
C589 H577 0.950 . S
C589 C585 1.393 . S
C589 C588 1.391 . S
C590 H580 0.950 . S
C590 C591 1.386 . S
C590 C592 1.391 . S
C591 C590 1.386 . S
C591 C595 1.393 . S
C592 H581 0.950 . S
C592 C590 1.391 . S
C592 C593 1.400 . S
C593 C587 1.491 . S
C593 C592 1.400 . S
C593 C594 1.398 . S
C594 H582 0.950 . S
C594 C593 1.398 . S
C594 C595 1.391 . S
C595 H583 0.950 . S
C595 C591 1.393 . S
C595 C594 1.391 . S
H596 C604 0.950 . S
H597 C609 0.950 . S
H598 C606 0.950 . S
H599 C608 0.950 . S
H600 C610 0.950 . S
H601 C612 0.950 . S
H602 C614 0.950 . S
H603 C615 0.950 . S
C604 H596 0.950 . S
C604 C605 1.386 . S
C604 C606 1.391 . S
C605 C604 1.386 . S
C605 C609 1.393 . S
C606 H598 0.950 . S
C606 C604 1.391 . S
C606 C607 1.400 . S
C607 C606 1.400 . S
C607 C608 1.398 . S
C607 C613 1.491 . S
C608 H599 0.950 . S
C608 C607 1.398 . S
C608 C609 1.391 . S
C609 H597 0.950 . S
C609 C605 1.393 . S
C609 C608 1.391 . S
C610 H600 0.950 . S
C610 C611 1.386 . S
C610 C612 1.391 . S
C611 C610 1.386 . S
C611 C615 1.393 . S
C612 H601 0.950 . S
C612 C610 1.391 . S
C612 C613 1.400 . S
C613 C607 1.491 . S
C613 C612 1.400 . S
C613 C614 1.398 . S
C614 H602 0.950 . S
C614 C613 1.398 . S
C614 C615 1.391 . S
C615 H603 0.950 . S
C615 C611 1.393 . S
C615 C614 1.391 . S
H616 C624 0.950 . S
H617 C629 0.950 . S
H618 C626 0.950 . S
H619 C628 0.950 . S
H620 C630 0.950 . S
H621 C632 0.950 . S
H622 C634 0.950 . S
H623 C635 0.950 . S
C624 H616 0.950 . S
C624 C625 1.386 . S
C624 C626 1.391 . S
C625 C624 1.386 . S
C625 C629 1.393 . S
C626 H618 0.950 . S
C626 C624 1.391 . S
C626 C627 1.400 . S
C627 C626 1.400 . S
C627 C628 1.398 . S
C627 C633 1.491 . S
C628 H619 0.950 . S
C628 C627 1.398 . S
C628 C629 1.391 . S
C629 H617 0.950 . S
C629 C625 1.393 . S
C629 C628 1.391 . S
C630 H620 0.950 . S
C630 C631 1.386 . S
C630 C632 1.391 . S
C631 C630 1.386 . S
C631 C635 1.393 . S
C632 H621 0.950 . S
C632 C630 1.391 . S
C632 C633 1.400 . S
C633 C627 1.491 . S
C633 C632 1.400 . S
C633 C634 1.398 . S
C634 H622 0.950 . S
C634 C633 1.398 . S
C634 C635 1.391 . S
C635 H623 0.950 . S
C635 C631 1.393 . S
C635 C634 1.391 . S
C165 C8 0.779 . S
C171 C138 0.759 . S
C185 C151 0.780 . S
C191 C21 0.751 . S
C205 C86 0.608 . S
C211 C34 0.569 . S
C225 C47 0.437 . S
C231 C99 0.759 . S
C245 C60 0.800 . S
C251 C112 0.507 . S
C265 C125 0.579 . S
C271 C73 0.603 . S
C285 C5 0.658 . S
C291 C96 0.707 . S
C305 C109 1.124 . S
C311 C18 1.594 . S
C325 C122 0.715 . S
C331 C31 0.766 . S
C345 C44 1.110 . S
C351 C135 1.602 . S
C365 C148 0.695 . S
C371 C57 0.650 . S
C385 C70 0.736 . S
C391 C83 0.766 . S
C405 C49 0.463 . S
C411 C10 0.597 . S
C425 C62 0.598 . S
C431 C23 0.608 . S
C445 C75 0.757 . S
C451 C36 0.732 1_455 S
C465 C88 0.757 . S
C471 C127 0.733 1_655 S
C485 C101 0.601 . S
C491 C140 0.604 . S
C505 C114 0.442 . S
C511 C153 0.620 . S
C525 C104 1.624 . S
C531 C0 1.788 . S
C545 C117 1.495 . S
C551 C13 1.512 . S
C565 C130 1.499 . S
C571 C26 1.483 . S
C585 C143 1.789 . S
C591 C39 1.626 . S
C605 C78 1.519 . S
C611 C52 1.535 . S
C625 C65 1.520 . S
C631 C91 1.535 . S
