# Generated by pormake.
# Topology bcg, (8)-cn, num edge types: 1
# Building blocks:
#     Node 0, Type 0, BuildingBlock: HISSIN_clean_sbu_1, # of connection points: 8
#     Node 1, Type 0, BuildingBlock: HISSIN_clean_sbu_1, # of connection points: 8
#     Node 2, Type 0, BuildingBlock: HISSIN_clean_sbu_1, # of connection points: 8
#     Node 3, Type 0, BuildingBlock: HISSIN_clean_sbu_1, # of connection points: 8
#     Edge 4, Type (0, 0), BuildingBlock: TEMPAE_clean_linker_10, # of connection points: 2
#     Edge 5, Type (0, 0), BuildingBlock: TEMPAE_clean_linker_10, # of connection points: 2
#     Edge 6, Type (0, 0), BuildingBlock: TEMPAE_clean_linker_10, # of connection points: 2
#     Edge 7, Type (0, 0), BuildingBlock: TEMPAE_clean_linker_10, # of connection points: 2
#     Edge 8, Type (0, 0), BuildingBlock: TEMPAE_clean_linker_10, # of connection points: 2
#     Edge 9, Type (0, 0), BuildingBlock: TEMPAE_clean_linker_10, # of connection points: 2
#     Edge 10, Type (0, 0), BuildingBlock: TEMPAE_clean_linker_10, # of connection points: 2
#     Edge 11, Type (0, 0), BuildingBlock: TEMPAE_clean_linker_10, # of connection points: 2
#     Edge 12, Type (0, 0), BuildingBlock: TEMPAE_clean_linker_10, # of connection points: 2
#     Edge 13, Type (0, 0), BuildingBlock: TEMPAE_clean_linker_10, # of connection points: 2
#     Edge 14, Type (0, 0), BuildingBlock: TEMPAE_clean_linker_10, # of connection points: 2
#     Edge 15, Type (0, 0), BuildingBlock: TEMPAE_clean_linker_10, # of connection points: 2
#     Edge 16, Type (0, 0), BuildingBlock: TEMPAE_clean_linker_10, # of connection points: 2
#     Edge 17, Type (0, 0), BuildingBlock: TEMPAE_clean_linker_10, # of connection points: 2
#     Edge 18, Type (0, 0), BuildingBlock: TEMPAE_clean_linker_10, # of connection points: 2
#     Edge 19, Type (0, 0), BuildingBlock: TEMPAE_clean_linker_10, # of connection points: 2
# Relax obj value: 0.167
# Max RMSD: 0.234
# Mean RMSD: 0.234
data_MOF--net-bcg--node1-HISSIN_clean_sbu_1--edge1-TEMPAE_clean_linker_10
_symmetry_space_group_name_H-M    P1
_symmetry_Int_Tables_number       1
_symmetry_cell_setting            triclinic
loop_
_symmetry_equiv_pos_as_xyz
'x, y, z'
_cell_length_a     22.266071
_cell_length_b     18.131147
_cell_length_c     34.128288
_cell_angle_alpha  79.471542
_cell_angle_beta   89.998822
_cell_angle_gamma 89.847788
loop_
_atom_site_label
_atom_site_type_symbol
_atom_site_fract_x
_atom_site_fract_y
_atom_site_fract_z
_atom_type_partial_charge
Eu0 Eu 0.35144 0.1433 0.03294 0.0
C1 C 0.31919 0.315 -0.00113 0.0
O2 O 0.40746 0.1416 0.08833 0.0
C3 C 0.073 0.31143 0.06003 0.0
C4 C 0.96006 0.3014 0.09576 0.0
C5 C 0.02407 0.28497 0.04076 0.0
C6 C 0.96753 0.27846 0.05906 0.0
C7 C 0.06548 0.33188 0.0974 0.0
C8 C 1.00877 0.32711 0.11534 0.0
Eu9 Eu 0.18855 0.2874 0.98015 0.0
O10 O 0.26407 0.0796 0.03639 0.0
O11 O 0.13202 0.30144 0.92435 0.0
O12 O 0.27644 0.34906 0.97585 0.0
O13 O 0.23687 0.17602 0.98902 0.0
C14 C 0.14253 0.2584 0.89799 0.0
O15 O 0.18461 0.20681 0.90565 0.0
O16 O 0.15283 0.24442 0.03884 0.0
C17 C 0.13336 0.31055 0.0436 0.0
C18 C 0.38223 0.11956 0.12338 0.0
O19 O 0.32633 0.09618 0.12451 0.0
O20 O 0.14711 0.36497 0.01391 0.0
O21 O 0.30429 0.25569 0.02529 0.0
C22 C 0.40893 0.12018 0.97015 0.0
O23 O 0.38392 0.18447 0.97309 0.0
C24 C 0.46794 0.12431 0.95099 0.0
C25 C 0.57894 0.1335 0.91256 0.0
C26 C 0.52073 0.13002 0.97274 0.0
C27 C 0.57649 0.13377 0.9534 0.0
C28 C 0.47096 0.12423 0.90983 0.0
C29 C 0.52671 0.12862 0.89044 0.0
C30 C 0.22125 0.11428 0.0135 0.0
O31 O 0.40091 0.06769 0.00186 0.0
H32 H 0.91632 0.29645 0.10999 0.0
H33 H 0.0307 0.26658 0.01259 0.0
H34 H 0.1038 0.34992 0.11283 0.0
H35 H 0.62211 0.14011 0.89758 0.0
H36 H 0.51845 0.13139 0.00433 0.0
H37 H 0.43008 0.12072 0.893 0.0
Eu38 Eu 0.82794 0.66422 0.01811 0.0
C39 C 0.83647 0.84025 0.99379 0.0
O40 O 0.87133 0.63763 0.07815 0.0
C41 C 0.58536 0.79027 0.0463 0.0
C42 C 0.47744 0.76079 0.08849 0.0
C43 C 0.53524 0.76239 0.02807 0.0
C44 C 0.48063 0.7472 0.04927 0.0
C45 C 0.58062 0.80233 0.08572 0.0
C46 C 0.52684 0.78743 0.10706 0.0
Eu47 Eu 0.71175 0.78246 0.96814 0.0
O48 O 0.7388 0.60413 0.02489 0.0
O49 O 0.667 0.81707 0.90868 0.0
O50 O 0.80099 0.84267 0.9628 0.0
O51 O 0.70694 0.66104 0.96346 0.0
C52 C 0.68425 0.78578 0.87875 0.0
O53 O 0.72921 0.73789 0.88405 0.0
O54 O 0.68731 0.76312 0.0312 0.0
C55 C 0.64249 0.81132 0.02486 0.0
C56 C 0.84758 0.66763 0.10676 0.0
O57 O 0.79738 0.70606 0.09967 0.0
O58 O 0.63902 0.84724 0.98779 0.0
O59 O 0.83322 0.78534 0.02445 0.0
C60 C 0.89898 0.63114 0.96335 0.0
O61 O 0.85708 0.68337 0.95586 0.0
C62 C 0.95797 0.64562 0.94301 0.0
C63 C 0.06828 0.65827 0.90256 0.0
C64 C 1.01208 0.65245 0.96392 0.0
C65 C 0.06767 0.65789 0.94362 0.0
C66 C 0.96023 0.64566 0.90175 0.0
C67 C 1.01531 0.65127 0.88135 0.0
C68 C 0.70003 0.60963 -0.00452 0.0
O69 O 0.89874 0.59444 0.00038 0.0
H70 H 0.43516 0.75356 0.10445 0.0
H71 H 0.53875 0.75302 -0.0023 0.0
H72 H 0.61882 0.82401 0.09971 0.0
H73 H 0.11087 0.66474 0.88689 0.0
H74 H 1.01119 0.65127 -0.00423 0.0
H75 H 0.91913 0.63879 0.88577 0.0
Eu76 Eu 0.35038 0.85455 0.46081 0.0
C77 C 0.31624 0.68275 0.49145 0.0
O78 O 0.40633 0.86381 0.40484 0.0
C79 C 0.07132 0.69219 0.43206 0.0
C80 C 0.95845 0.69568 0.39646 0.0
C81 C 0.02197 0.72126 0.44986 0.0
C82 C 0.96524 0.72438 0.43169 0.0
C83 C 0.06448 0.66731 0.39582 0.0
C84 C 1.00792 0.66913 0.37789 0.0
Eu85 Eu 0.1872 0.70976 0.5133 0.0
O86 O 0.26237 0.91721 0.45945 0.0
O87 O 0.1316 0.69172 0.56954 0.0
O88 O 0.27492 0.64758 0.51516 0.0
O89 O 0.2358 0.82048 0.50703 0.0
C90 C 0.14378 0.73185 0.59696 0.0
O91 O 0.18703 0.78171 0.59009 0.0
O92 O 0.14905 0.75876 0.4561 0.0
C93 C 0.13141 0.69358 0.44888 0.0
C94 C 0.38113 0.88947 0.37012 0.0
O95 O 0.32512 0.91268 0.36959 0.0
O96 O 0.14678 0.63652 0.47675 0.0
O97 O 0.30037 0.74471 0.46731 0.0
C98 C 0.4069 0.8725 0.52487 0.0
O99 O 0.3912 0.80678 0.51739 0.0
C100 C 0.46642 0.87656 0.54243 0.0
C101 C 0.57898 0.88019 0.5779 0.0
C102 C 0.51852 0.87002 0.52021 0.0
C103 C 0.57489 0.87246 0.53807 0.0
C104 C 0.47083 0.88363 0.58269 0.0
C105 C 0.52737 0.88527 0.6007 0.0
C106 C 0.22019 0.88288 0.483 0.0
O107 O 0.39058 0.92889 0.49685 0.0
H108 H 0.91476 0.69671 0.38234 0.0
H109 H 0.02844 0.74377 0.47685 0.0
H110 H 0.10319 0.64796 0.38121 0.0
H111 H 0.62298 0.87818 0.59172 0.0
H112 H 0.51522 0.86254 0.48948 0.0
H113 H 0.4304 0.887 0.59999 0.0
Eu114 Eu 0.83285 0.34497 0.47543 0.0
C115 C 0.84025 0.16853 0.5029 0.0
O116 O 0.87703 0.3651 0.41563 0.0
C117 C 0.58941 0.22181 0.44569 0.0
C118 C 0.48258 0.25618 0.40254 0.0
C119 C 0.53905 0.24929 0.46392 0.0
C120 C 0.4852 0.26701 0.44221 0.0
C121 C 0.58516 0.21134 0.40596 0.0
C122 C 0.53181 0.22833 0.3842 0.0
Eu123 Eu 0.71384 0.22913 0.52483 0.0
O124 O 0.74409 0.40636 0.46662 0.0
O125 O 0.66539 0.20036 0.58327 0.0
O126 O 0.80249 0.16692 0.53266 0.0
O127 O 0.71101 0.35135 0.52793 0.0
C128 C 0.68135 0.23338 0.61282 0.0
O129 O 0.72746 0.27922 0.60801 0.0
O130 O 0.69113 0.24765 0.46148 0.0
C131 C 0.64624 0.19981 0.46745 0.0
C132 C 0.85251 0.33321 0.38803 0.0
O133 O 0.80126 0.29776 0.39582 0.0
O134 O 0.64213 0.16406 0.50452 0.0
O135 O 0.83869 0.22248 0.47166 0.0
C136 C 0.90364 0.38132 0.52933 0.0
O137 O 0.86134 0.33004 0.53768 0.0
C138 C 0.96274 0.36603 0.54952 0.0
C139 C 0.07307 0.34911 0.58995 0.0
C140 C 1.01694 0.36219 0.5282 0.0
C141 C 0.07258 0.3548 0.54845 0.0
C142 C 0.96497 0.36151 0.59114 0.0
C143 C 0.02007 0.35365 0.6116 0.0
C144 C 0.70441 0.40161 0.49542 0.0
O145 O 0.9034 0.41605 0.4919 0.0
H146 H 0.44065 0.26613 0.38625 0.0
H147 H 0.54167 0.25647 0.49469 0.0
H148 H 0.62332 0.1892 0.39205 0.0
H149 H 0.11559 0.34034 0.60563 0.0
H150 H 1.01605 0.36702 0.49609 0.0
H151 H 0.92379 0.36641 0.60744 0.0
C152 C 0.64187 0.20519 0.99198 0.0
C153 C 0.63323 0.14259 0.97412 0.0
C154 C 0.69936 0.22336 0.00387 0.0
C155 C 0.74857 0.17619 -0.0011 0.0
C156 C 0.73947 0.11129 0.98218 0.0
C157 C 0.68182 0.09544 0.96982 0.0
C158 C 0.70691 0.29361 0.02124 0.0
C159 C 0.79069 0.06056 0.97531 0.0
C160 C 0.90075 0.26778 0.00144 0.0
C161 C 0.9162 0.24458 0.04156 0.0
C162 C 0.84746 0.2427 0.98637 0.0
C163 C 0.80909 0.19412 0.01226 0.0
C164 C 0.82645 0.16706 0.05208 0.0
C165 C 0.88001 0.19234 0.06619 0.0
C166 C 0.83047 0.27144 0.9435 0.0
C167 C 0.78738 0.1135 0.08011 0.0
H168 H 0.60429 0.24205 0.99473 0.0
H169 H 0.67498 0.04745 0.95545 0.0
H170 H 0.75194 0.31915 0.0154 0.0
H171 H 0.67303 0.33648 0.00876 0.0
H172 H 0.70059 0.27931 0.054 0.0
H173 H 0.77466 1.00305 0.97408 0.0
H174 H 0.81233 0.0835 0.94638 0.0
H175 H 0.82533 0.05719 -0.00116 0.0
H176 H 0.9289 0.30788 0.98235 0.0
H177 H 0.89299 0.17253 0.09695 0.0
H178 H 0.79039 0.30831 0.9424 0.0
H179 H 0.81834 0.22395 0.92867 0.0
H180 H 0.86739 0.30375 0.92648 0.0
H181 H 0.74387 0.14095 0.08444 0.0
H182 H 0.80876 0.09513 0.10971 0.0
H183 H 0.77752 0.06313 0.06701 0.0
C184 C 0.14064 0.72189 0.98262 0.0
C185 C 0.12664 0.66157 0.96386 0.0
C186 C 0.19985 0.73292 0.99508 0.0
C187 C 0.24592 0.68146 0.98938 0.0
C188 C 0.23142 0.61923 0.97147 0.0
C189 C 0.17217 0.61023 0.95888 0.0
C190 C 0.21262 0.80002 0.01419 0.0
C191 C 0.27888 0.5633 0.96449 0.0
C192 C 0.40761 0.75175 0.99192 0.0
C193 C 0.42488 0.7214 0.03112 0.0
C194 C 0.35033 0.73708 0.9774 0.0
C195 C 0.30896 0.69182 0.00278 0.0
C196 C 0.32723 0.65827 0.04163 0.0
C197 C 0.38496 0.67244 0.055 0.0
C198 C 0.33292 0.77309 0.93554 0.0
C199 C 0.28485 0.6099 0.06981 0.0
H200 H 0.10588 0.76225 0.98598 0.0
H201 H 0.16157 0.56382 0.94407 0.0
H202 H 0.25833 0.82272 0.00712 0.0
H203 H 0.17976 0.84582 0.00438 0.0
H204 H 0.2092 0.78289 0.04703 0.0
H205 H 0.26033 0.51802 0.95013 0.0
H206 H 0.31499 0.59241 0.94525 0.0
H207 H 0.30003 0.53729 0.99314 0.0
H208 H 0.43764 0.7898 0.97316 0.0
H209 H 0.39823 0.6467 0.08495 0.0
H210 H 0.2969 0.81509 0.93665 0.0
H211 H 0.31473 0.7303 0.91931 0.0
H212 H 0.37146 0.80156 0.91847 0.0
H213 H 0.24468 0.64322 0.075 0.0
H214 H 0.30606 0.58745 0.09904 0.0
H215 H 0.26906 0.56205 0.05647 0.0
C216 C 0.67558 0.91572 0.51342 0.0
C217 C 0.63071 0.861 0.51717 0.0
C218 C 0.73325 0.90064 0.50063 0.0
C219 C 0.74605 0.8291 0.49175 0.0
C220 C 0.7007 0.77365 0.49555 0.0
C221 C 0.64306 0.79069 0.50777 0.0
C222 C 0.78072 0.96048 0.49739 0.0
C223 C 0.71336 0.69602 0.48741 0.0
C224 C 0.87184 0.80198 0.42189 0.0
C225 C 0.91309 0.75977 0.44802 0.0
C226 C 0.81795 0.82696 0.4359 0.0
C227 C 0.80626 0.81237 0.47725 0.0
C228 C 0.85002 0.77593 0.50418 0.0
C229 C 0.9026 0.7487 0.48916 0.0
C230 C 0.77215 0.86509 0.40622 0.0
C231 C 0.84 0.76223 0.54866 0.0
H232 H 0.6658 0.96957 0.5216 0.0
H233 H 0.60843 0.74806 0.51186 0.0
H234 H 0.82 0.93937 0.51621 0.0
H235 H 0.79666 0.97436 0.46617 0.0
H236 H 0.7639 0.01259 0.50648 0.0
H237 H 0.72076 0.69917 0.455 0.0
H238 H 0.75482 0.67248 0.50288 0.0
H239 H 0.67605 0.65665 0.49741 0.0
H240 H 0.88078 0.81359 0.39014 0.0
H241 H 0.93433 0.71655 0.50958 0.0
H242 H 0.75729 0.91889 0.41415 0.0
H243 H 0.7319 0.82885 0.40701 0.0
H244 H 0.78988 0.87646 0.37528 0.0
H245 H 0.82294 0.81377 0.55814 0.0
H246 H 0.88182 0.74398 0.56547 0.0
H247 H 0.80558 0.71796 0.55684 0.0
C248 C 0.17893 0.39855 0.5371 0.0
C249 C 0.13151 0.35377 0.52766 0.0
C250 C 0.23768 0.39025 0.52343 0.0
C251 C 0.2497 0.33585 0.49951 0.0
C252 C 0.20138 0.29308 0.48816 0.0
C253 C 0.14295 0.30246 0.50246 0.0
C254 C 0.28728 0.43805 0.5357 0.0
C255 C 0.21063 0.23502 0.46218 0.0
C256 C 0.39337 0.34865 0.43804 0.0
C257 C 0.4294 0.29227 0.46029 0.0
C258 C 0.33544 0.36425 0.45072 0.0
C259 C 0.31283 0.32328 0.48697 0.0
C260 C 0.34993 0.26867 0.51054 0.0
C261 C 0.40779 0.25387 0.49697 0.0
C262 C 0.29742 0.42234 0.42446 0.0
C263 C 0.32736 0.22341 0.54922 0.0
H264 H 0.17024 0.43891 0.55629 0.0
H265 H 0.10677 0.26729 0.49526 0.0
H266 H 0.32144 0.40166 0.55345 0.0
H267 H 0.31036 0.46937 0.50897 0.0
H268 H 0.27033 0.47893 0.5537 0.0
H269 H 0.17328 0.23787 0.44041 0.0
H270 H 0.25354 0.24167 0.44545 0.0
H271 H 0.20982 0.17833 0.48115 0.0
H272 H 0.40983 0.37894 0.40976 0.0
H273 H 0.43488 0.20968 0.51413 0.0
H274 H 0.25367 0.39766 0.41818 0.0
H275 H 0.31962 0.44486 0.39563 0.0
H276 H 0.28787 0.46964 0.44007 0.0
H277 H 0.31089 0.26132 0.56901 0.0
H278 H 0.36263 0.1861 0.56521 0.0
H279 H 0.28887 0.18839 0.54308 0.0
C280 C 0.64066 0.49689 0.02714 0.0
C281 C 0.64458 0.56436 -0.00034 0.0
C282 C 0.58761 0.45425 0.03062 0.0
C283 C 0.53769 0.48025 0.00623 0.0
C284 C 0.54042 0.55033 0.98012 0.0
C285 C 0.59406 0.59098 0.97674 0.0
C286 C 0.58501 0.3812 0.06001 0.0
C287 C 0.48648 0.58266 0.95597 0.0
C288 C 0.42253 0.34954 0.97443 0.0
C289 C 0.37659 0.35267 0.00193 0.0
C290 C 0.47681 0.38726 0.97716 0.0
C291 C 0.48328 0.43314 0.00639 0.0
C292 C 0.43607 0.43773 0.03365 0.0
C293 C 0.38373 0.39582 0.03163 0.0
C294 C 0.52644 0.37964 0.94799 0.0
C295 C 0.43996 0.48746 0.06455 0.0
H296 H 0.67926 0.47685 0.04541 0.0
H297 H 0.59609 0.64439 0.95641 0.0
H298 H 0.54862 0.38341 0.0819 0.0
H299 H 0.57431 0.33448 0.04422 0.0
H300 H 0.6278 0.36852 0.07661 0.0
H301 H 0.49443 0.64081 0.93986 0.0
H302 H 0.47503 0.54706 0.93385 0.0
H303 H 0.44691 0.5831 0.97574 0.0
H304 H 0.41606 0.31812 0.95067 0.0
H305 H 0.34739 0.39879 0.05247 0.0
H306 H 0.57069 0.37312 0.96322 0.0
H307 H 0.52826 0.43119 0.92483 0.0
H308 H 0.51925 0.33086 0.933 0.0
H309 H 0.39476 0.50033 0.07536 0.0
H310 H 0.4631 0.541 0.05268 0.0
H311 H 0.46592 0.45832 0.09056 0.0
C312 C 0.64568 0.5164 0.46537 0.0
C313 C 0.64819 0.44554 0.48994 0.0
C314 C 0.5922 0.55863 0.46179 0.0
C315 C 0.54028 0.52827 0.48267 0.0
C316 C 0.54175 0.45465 0.50524 0.0
C317 C 0.59596 0.41484 0.50925 0.0
C318 C 0.59153 0.63629 0.43661 0.0
C319 C 0.48609 0.4179 0.52528 0.0
C320 C 0.41704 0.64304 0.51915 0.0
C321 C 0.37529 0.64869 0.48823 0.0
C322 C 0.47303 0.60902 0.51608 0.0
C323 C 0.48501 0.57413 0.48292 0.0
C324 C 0.44188 0.57809 0.45207 0.0
C325 C 0.38821 0.61754 0.4546 0.0
C326 C 0.51866 0.60919 0.54881 0.0
C327 C 0.45119 0.53998 0.4167 0.0
H328 H 0.68586 0.53967 0.44998 0.0
H329 H 0.59724 0.35901 0.52728 0.0
H330 H 0.55688 0.64005 0.41307 0.0
H331 H 0.57958 0.67813 0.45536 0.0
H332 H 0.63543 0.65156 0.42199 0.0
H333 H 0.49249 0.35675 0.53598 0.0
H334 H 0.47433 0.44397 0.55124 0.0
H335 H 0.44736 0.42635 0.50444 0.0
H336 H 0.40621 0.66575 0.54555 0.0
H337 H 0.35508 0.62121 0.431 0.0
H338 H 0.56469 0.61795 0.53637 0.0
H339 H 0.51796 0.55421 0.56934 0.0
H340 H 0.50884 0.65363 0.56644 0.0
H341 H 0.47449 0.57895 0.39273 0.0
H342 H 0.4076 0.52544 0.40434 0.0
H343 H 0.47862 0.48817 0.42437 0.0
C344 C 0.14838 0.00971 0.03396 0.0
C345 C 0.15961 0.08321 0.01416 0.0
C346 C 0.0924 0.97578 0.03082 0.0
C347 C 0.04637 0.01662 0.00766 0.0
C348 C 0.05643 0.09192 0.98919 0.0
C349 C 0.11311 0.12395 0.99236 0.0
C350 C 0.0832 0.89532 0.05115 0.0
C351 C 1.00772 0.13804 0.96541 0.0
C352 C 0.92883 0.90322 0.96419 0.0
C353 C 0.88474 0.89512 0.99379 0.0
C354 C 0.98155 0.94359 0.96806 0.0
C355 C 0.98871 0.97922 0.00147 0.0
C356 C 0.94234 0.97478 0.03016 0.0
C357 C 0.89175 0.93054 0.02666 0.0
C358 C 0.03109 0.94411 0.93779 0.0
C359 C 0.94699 0.01437 0.06529 0.0
H360 H 0.18404 0.97756 0.05077 0.0
H361 H 0.12107 0.18072 0.97737 0.0
H362 H 0.04484 0.8914 0.07211 0.0
H363 H 0.07198 0.8604 0.02864 0.0
H364 H 0.12351 0.87133 0.06803 0.0
H365 H 0.02092 0.19764 0.9558 0.0
H366 H 0.99716 0.11443 0.93844 0.0
H367 H 0.96593 0.13563 0.98331 0.0
H368 H 0.92387 0.87382 0.93941 0.0
H369 H 0.85759 0.92344 0.0497 0.0
H370 H 0.07135 0.91529 0.9526 0.0
H371 H 0.04431 1.00253 0.92514 0.0
H372 H 1.01773 0.91556 0.91298 0.0
H373 H 0.97854 0.98351 0.0876 0.0
H374 H 0.90285 0.01771 0.08004 0.0
H375 H 0.96484 0.07196 0.05587 0.0
C376 C 0.89382 0.07453 0.47146 0.0
C377 C 0.88701 0.11095 0.50398 0.0
C378 C 0.94291 0.027 0.46906 0.0
C379 C 0.9889 0.02134 0.49808 0.0
C380 C 0.98199 0.05784 0.53121 0.0
C381 C 0.93017 0.10087 0.53425 0.0
C382 C 0.94677 0.98558 0.43457 0.0
C383 C 0.03097 0.05557 0.56199 0.0
C384 C 0.11277 0.87485 0.50579 0.0
C385 C 0.15894 0.91512 0.48355 0.0
C386 C 0.05646 0.90765 0.50981 0.0
C387 C 0.04649 0.98333 0.49182 0.0
C388 C 0.09234 0.02381 0.46843 0.0
C389 C 0.14787 0.98911 0.46445 0.0
C390 C 1.00836 0.86184 0.53418 0.0
C391 C 0.0838 0.1049 0.44896 0.0
H392 H 0.86083 0.08379 0.44768 0.0
H393 H 0.92547 0.13093 0.55879 0.0
H394 H 0.98082 0.01262 0.41292 0.0
H395 H 0.96115 0.92662 0.44509 0.0
H396 H 0.90309 0.98548 0.41883 0.0
H397 H 1.01735 0.0837 0.58693 0.0
H398 H 0.04363 0.99674 0.57436 0.0
H399 H 0.07162 0.08394 0.54769 0.0
H400 H 0.12066 0.81775 0.52038 0.0
H401 H 0.18337 0.02103 0.44748 0.0
H402 H 0.96423 0.87064 0.51892 0.0
H403 H 1.0038 0.88014 0.56331 0.0
H404 H 1.01911 0.80095 0.53996 0.0
H405 H 0.04105 0.11268 0.43205 0.0
H406 H 0.12104 0.12551 0.42824 0.0
H407 H 0.08142 0.14006 0.47235 0.0
C408 C 0.54009 0.14228 0.33466 0.0
C409 C 0.52478 0.21268 0.34316 0.0
C410 C 0.52435 0.1225 0.29804 0.0
C411 C 0.49333 0.1748 0.26898 0.0
C412 C 0.48072 0.24742 0.27673 0.0
C413 C 0.49654 0.26539 0.31367 0.0
C414 C 0.53946 0.04493 0.29106 0.0
C415 C 0.44754 0.30496 0.24685 0.0
C416 C 0.47278 0.15377 0.16055 0.0
C417 C 0.41367 0.12689 0.16094 0.0
C418 C 0.50061 0.16636 0.19582 0.0
C419 C 0.46848 0.15217 0.23226 0.0
C420 C 0.40973 0.12221 0.233 0.0
C421 C 0.38312 0.11012 0.19745 0.0
C422 C 0.56384 0.19647 0.19395 0.0
C423 C 0.37385 0.10581 0.27115 0.0
H424 H 0.56167 0.10124 0.35743 0.0
H425 H 0.48512 0.32018 0.32002 0.0
H426 H 0.49934 0.01815 0.28056 0.0
H427 H 0.57437 0.04941 0.26763 0.0
H428 H 0.55682 0.00799 0.31832 0.0
H429 H 0.44487 0.36039 0.25626 0.0
H430 H 0.46993 0.31234 0.21736 0.0
H431 H 0.40118 0.28511 0.24299 0.0
H432 H 0.49698 0.1663 0.13258 0.0
H433 H 0.33755 0.08909 0.19821 0.0
H434 H 0.59263 0.15952 0.2158 0.0
H435 H 0.56403 0.2529 0.20219 0.0
H436 H 0.58391 0.20079 0.16382 0.0
H437 H 0.40043 0.07064 0.29506 0.0
H438 H 0.33102 0.07655 0.26742 0.0
H439 H 0.3633 0.15916 0.28129 0.0
C440 C 0.53641 0.87259 0.15703 0.0
C441 C 0.51985 0.80301 0.14813 0.0
C442 C 0.52147 0.89199 0.19389 0.0
C443 C 0.48999 0.84013 0.22279 0.0
C444 C 0.476 0.76828 0.21459 0.0
C445 C 0.49104 0.75069 0.17743 0.0
C446 C 0.53808 0.96866 0.20136 0.0
C447 C 0.44239 0.71115 0.24431 0.0
C448 C 0.47139 0.85739 0.33188 0.0
C449 C 0.41246 0.8851 0.33209 0.0
C450 C 0.4987 0.84616 0.29618 0.0
C451 C 0.4662 0.86247 0.2599 0.0
C452 C 0.40783 0.89375 0.25976 0.0
C453 C 0.3818 0.9047 0.29573 0.0
C454 C 0.56156 0.8146 0.29745 0.0
C455 C 0.37151 0.91216 0.22184 0.0
H456 H 0.55851 0.91329 0.13442 0.0
H457 H 0.47873 0.69647 0.17079 0.0
H458 H 0.49878 0.99607 0.2126 0.0
H459 H 0.5737 0.96253 0.2244 0.0
H460 H 0.55515 0.00581 0.17413 0.0
H461 H 0.43845 0.65626 0.23445 0.0
H462 H 0.46532 0.70221 0.27366 0.0
H463 H 0.39652 0.73235 0.24866 0.0
H464 H 0.49572 0.84274 0.35973 0.0
H465 H 0.33643 0.92658 0.2954 0.0
H466 H 0.59028 0.85075 0.2753 0.0
H467 H 0.56071 0.75811 0.28929 0.0
H468 H 0.58239 0.80986 0.32739 0.0
H469 H 0.39843 0.94622 0.1978 0.0
H470 H 0.3296 0.94324 0.22594 0.0
H471 H 0.35922 0.85944 0.21167 0.0
C472 C 0.58158 0.92626 0.65672 0.0
C473 C 0.53455 0.88532 0.64389 0.0
C474 C 0.60058 0.91226 0.69639 0.0
C475 C 0.56979 0.85851 0.72456 0.0
C476 C 0.51883 0.82163 0.7125 0.0
C477 C 0.50196 0.83518 0.67212 0.0
C478 C 0.65697 0.95092 0.70641 0.0
C479 C 0.48552 0.7629 0.74141 0.0
C480 C 0.66929 0.76484 0.80918 0.0
C481 C 0.6528 0.8025 0.83996 0.0
C482 C 0.64082 0.78054 0.77198 0.0
C483 C 0.59487 0.83549 0.76529 0.0
C484 C 0.57701 0.87257 0.79648 0.0
C485 C 0.60621 0.85562 0.83352 0.0
C486 C 0.66125 0.7399 0.73942 0.0
C487 C 0.52872 0.93207 0.7902 0.0
H488 H 0.60639 0.96604 0.63509 0.0
H489 H 0.46597 0.80271 0.66232 0.0
H490 H 0.66375 0.94737 0.73881 0.0
H491 H 0.69628 0.92444 0.69446 0.0
H492 H 0.6564 0.01081 0.6916 0.0
H493 H 0.44238 0.74716 0.72883 0.0
H494 H 0.51388 0.71182 0.74885 0.0
H495 H 0.4762 0.78294 0.76962 0.0
H496 H 0.70497 0.72339 0.81397 0.0
H497 H 0.59313 0.88491 0.85718 0.0
H498 H 0.68369 0.78009 0.71551 0.0
H499 H 0.62209 0.7163 0.72588 0.0
H500 H 0.69321 0.69365 0.75055 0.0
H501 H 0.54414 0.98013 0.76765 0.0
H502 H 0.51747 0.95257 0.81807 0.0
H503 H 0.48733 0.91021 0.77838 0.0
C504 C 0.57932 0.09351 0.83236 0.0
C505 C 0.5324 0.13253 0.84687 0.0
C506 C 0.59645 0.11016 0.79239 0.0
C507 C 0.56412 0.16504 0.76567 0.0
C508 C 0.51344 0.20029 0.77943 0.0
C509 C 0.49823 0.18381 0.82008 0.0
C510 C 0.65263 0.07318 0.7804 0.0
C511 C 0.4782 0.25931 0.75183 0.0
C512 C 0.66452 0.25704 0.68173 0.0
C513 C 0.64768 0.2201 0.65079 0.0
C514 C 0.63481 0.24305 0.7185 0.0
C515 C 0.58737 0.19034 0.72465 0.0
C516 C 0.56798 0.15585 0.69282 0.0
C517 C 0.59868 0.17082 0.65632 0.0
C518 C 0.65575 0.28277 0.75126 0.0
C519 C 0.5166 0.10087 0.697 0.0
H520 H 0.60535 0.05296 0.85291 0.0
H521 H 0.46219 0.21452 0.83127 0.0
H522 H 0.65565 0.07528 0.74788 0.0
H523 H 0.69239 0.10242 0.78977 0.0
H524 H 0.65528 0.01384 0.79592 0.0
H525 H 0.43772 0.27786 0.76647 0.0
H526 H 0.5072 0.30881 0.74166 0.0
H527 H 0.46398 0.23749 0.72496 0.0
H528 H 0.70173 0.29611 0.67753 0.0
H529 H 0.58476 0.14269 0.6324 0.0
H530 H 0.67984 0.24244 0.77435 0.0
H531 H 0.61681 0.30487 0.76586 0.0
H532 H 0.68658 0.32997 0.73998 0.0
H533 H 0.48821 0.10224 0.72353 0.0
H534 H 0.53489 0.04348 0.69909 0.0
H535 H 0.48774 0.11205 0.66999 0.0
C536 C 0.03096 0.69492 0.30549 0.0
C537 C 1.00015 0.65235 0.3376 0.0
C538 C 1.01336 0.69377 0.26615 0.0
C539 C 0.9644 0.64826 0.25913 0.0
C540 C 0.93602 0.6014 0.29154 0.0
C541 C 0.95433 0.60392 0.33046 0.0
C542 C 0.04369 0.74594 0.23246 0.0
C543 C 0.88504 0.55041 0.28518 0.0
C544 C 0.85957 0.70858 0.17203 0.0
C545 C 0.87891 0.66367 0.14513 0.0
C546 C 0.88879 0.70616 0.20853 0.0
C547 C 0.93777 0.65641 0.21873 0.0
C548 C 0.95858 0.61244 0.19124 0.0
C549 C 0.92895 0.61677 0.15462 0.0
C550 C 0.86658 0.75607 0.23646 0.0
C551 C 1.0099 0.55789 0.20113 0.0
H552 H 0.06583 0.73323 0.31122 0.0
H553 H 0.93091 0.57077 0.35549 0.0
H554 H 0.05559 0.71583 0.20802 0.0
H555 H 1.01218 0.79178 0.21998 0.0
H556 H 0.08503 0.77133 0.24243 0.0
H557 H 0.86838 0.51653 0.31351 0.0
H558 H 0.84706 0.58344 0.26987 0.0
H559 H 0.90087 0.51209 0.26564 0.0
H560 H 0.82158 0.74602 0.16455 0.0
H561 H 0.94417 0.58203 0.13386 0.0
H562 H 0.9045 0.7881 0.24613 0.0
H563 H 0.84715 0.72122 0.26358 0.0
H564 H 0.83173 0.79643 0.22249 0.0
H565 H 0.04677 0.58197 0.2166 0.0
H566 H 0.02821 0.53948 0.17419 0.0
H567 H 0.99303 0.50791 0.22156 0.0
C568 C 0.93647 0.3732 0.34036 0.0
C569 C 0.88394 0.33157 0.3502 0.0
C570 C 0.96584 0.37293 0.30404 0.0
C571 C 0.94151 0.33026 0.27692 0.0
C572 C 0.89125 0.2835 0.28826 0.0
C573 C 0.86246 0.28577 0.32443 0.0
C574 C 0.02259 0.41856 0.29587 0.0
C575 C 0.8666 0.23256 0.26172 0.0
C576 C 0.95061 0.38305 0.16453 0.0
C577 C 0.99994 0.3406 0.15626 0.0
C578 C 0.93156 0.38134 0.20366 0.0
C579 C 0.96447 0.33832 0.23558 0.0
C580 C 1.01604 0.29773 0.22736 0.0
C581 C 0.03353 0.29999 0.18766 0.0
C582 C 0.87373 0.42205 0.20932 0.0
C583 C 0.04991 0.24733 0.2602 0.0
H584 H 0.95438 0.40707 0.36072 0.0
H585 H 0.82293 0.25153 0.33241 0.0
H586 H 0.05564 0.39895 0.31991 0.0
H587 H 0.0439 0.4153 0.26694 0.0
H588 H 1.01299 0.47814 0.29693 0.0
H589 H 0.83754 0.18794 0.2785 0.0
H590 H 0.8392 0.26601 0.23766 0.0
H591 H 0.90355 0.20564 0.24755 0.0
H592 H 0.9245 0.41417 0.14009 0.0
H593 H 0.07095 0.26586 0.18108 0.0
H594 H 0.85814 0.41462 0.24055 0.0
H595 H 0.8376 0.40231 0.19134 0.0
H596 H 0.87923 0.48278 0.19765 0.0
H597 H 0.07121 0.28137 0.28022 0.0
H598 H 0.08555 0.21432 0.24844 0.0
H599 H 1.01841 0.20785 0.27847 0.0
C600 C 0.12402 0.22508 0.83118 0.0
C601 C 0.11116 0.27112 0.85897 0.0
C602 C 0.10002 0.24053 0.79255 0.0
C603 C 0.06176 0.30338 0.78135 0.0
C604 C 0.04609 0.34796 0.80988 0.0
C605 C 0.07112 0.3314 0.84835 0.0
C606 C 0.11824 0.19173 0.76307 0.0
C607 C 1.00594 0.41582 0.79914 0.0
C608 C 0.07157 0.3862 0.67136 0.0
C609 C 0.02389 0.35045 0.65552 0.0
C610 C 0.08277 0.37389 0.71242 0.0
C611 C 0.04422 0.32649 0.7387 0.0
C612 C 0.99298 0.29532 0.7233 0.0
C613 C 0.98365 0.30712 0.6818 0.0
C614 C 0.13881 0.40702 0.72702 0.0
C615 C 0.94994 0.24615 0.75048 0.0
H616 H 0.15451 0.17803 0.83916 0.0
H617 H 0.06076 0.36723 0.86965 0.0
H618 H 0.07793 0.17192 0.749 0.0
H619 H 0.14554 0.22503 0.73896 0.0
H620 H 0.14494 0.1421 0.77719 0.0
H621 H 0.98865 0.43543 0.82602 0.0
H622 H 0.03194 0.46216 0.78126 0.0
H623 H 0.96736 0.40372 0.78075 0.0
H624 H 0.1019 0.4217 0.65143 0.0
H625 H 0.94655 0.27948 0.66993 0.0
H626 H 0.17472 0.36374 0.73142 0.0
H627 H 0.13117 0.42466 0.75603 0.0
H628 H 0.15524 0.45595 0.70522 0.0
H629 H 0.97193 0.19175 0.76253 0.0
H630 H 0.90825 0.23487 0.73471 0.0
H631 H 0.93769 0.27275 0.7762 0.0
C632 C 0.12489 0.76472 0.66376 0.0
C633 C 0.11209 0.71904 0.63583 0.0
C634 C 0.09988 0.75007 0.70207 0.0
C635 C 0.06066 0.68833 0.71284 0.0
C636 C 0.04537 0.64382 0.68424 0.0
C637 C 0.07141 0.65961 0.64604 0.0
C638 C 0.11775 0.79877 0.73164 0.0
C639 C 1.00435 0.57697 0.69452 0.0
C640 C 0.06639 0.61079 0.82348 0.0
C641 C 1.01917 0.64976 0.8379 0.0
C642 C 0.07832 0.61957 0.78261 0.0
C643 C 0.04112 0.6669 0.75517 0.0
C644 C 0.99003 0.70089 0.76923 0.0
C645 C 0.97985 0.6924 0.81054 0.0
C646 C 0.13392 0.58313 0.76936 0.0
C647 C 0.94834 0.75001 0.74081 0.0
H648 H 0.15587 0.81112 0.65608 0.0
H649 H 0.06121 0.624 0.62464 0.0
H650 H 0.07721 0.82066 0.74461 0.0
H651 H 0.1433 0.76478 0.75653 0.0
H652 H 0.14601 0.84704 0.71792 0.0
H653 H 0.98631 0.55905 0.6674 0.0
H654 H 0.03001 0.52935 0.71172 0.0
H655 H 0.96627 0.58924 0.71332 0.0
H656 H 0.09598 0.57587 0.84436 0.0
H657 H 0.94305 0.72239 0.82137 0.0
H658 H 0.17075 0.62492 0.76462 0.0
H659 H 0.12633 0.56383 0.7408 0.0
H660 H 0.14897 0.5347 0.7921 0.0
H661 H 0.97125 0.80345 0.7284 0.0
H662 H 0.90631 0.76325 0.75568 0.0
H663 H 0.93662 0.72227 0.71542 0.0
loop_
_geom_bond_atom_site_label_1
_geom_bond_atom_site_label_2
_geom_bond_distance
_geom_bond_site_symmetry_2
_ccdc_geom_bond_type
Eu0 O2 2.323 . S
Eu0 O10 2.328 . S
Eu0 O21 2.316 . S
Eu0 C22 2.837 1_554 S
Eu0 O23 2.488 1_554 S
Eu0 O31 2.461 . S
C1 O12 1.251 1_554 S
C1 O21 1.237 . S
O2 Eu0 2.323 . S
O2 C18 1.279 . S
C3 C5 1.383 . S
C3 C7 1.388 . S
C3 C17 1.491 . S
C4 C6 1.403 . S
C4 C8 1.385 1_655 S
C4 H32 0.931 . S
C5 C3 1.383 . S
C5 C6 1.393 1_455 S
C5 H33 0.930 1_455 S
C6 C4 1.403 . S
C6 C5 1.393 1_655 S
C7 C3 1.388 . S
C7 C8 1.394 . S
C7 H34 0.930 . S
C8 C4 1.385 1_455 S
C8 C7 1.394 . S
Eu9 O11 2.323 . S
Eu9 O12 2.328 . S
Eu9 O13 2.316 . S
Eu9 O16 2.488 1_556 S
Eu9 C17 2.837 1_556 S
Eu9 O20 2.461 . S
O10 Eu0 2.328 . S
O10 C30 1.251 1_554 S
O11 Eu9 2.323 . S
O11 C14 1.279 . S
O12 C1 1.251 1_556 S
O12 Eu9 2.328 . S
O13 Eu9 2.316 . S
O13 C30 1.237 . S
C14 O11 1.279 . S
C14 O15 1.244 . S
O15 C14 1.244 . S
O16 Eu9 2.488 1_554 S
O16 C17 1.271 . S
C17 C3 1.491 . S
C17 Eu9 2.837 1_554 S
C17 O16 1.271 . S
C17 O20 1.261 1_554 S
C18 O2 1.279 . S
C18 O19 1.244 . S
O19 C18 1.244 . S
O20 Eu9 2.461 . S
O20 C17 1.261 1_556 S
O21 Eu0 2.316 . S
O21 C1 1.237 . S
C22 Eu0 2.837 1_556 S
C22 O23 1.271 . S
C22 C24 1.491 . S
C22 O31 1.261 1_556 S
O23 Eu0 2.488 1_556 S
O23 C22 1.271 . S
C24 C22 1.491 . S
C24 C26 1.383 . S
C24 C28 1.388 . S
C25 C27 1.403 . S
C25 C29 1.385 . S
C25 H35 0.931 . S
C26 C24 1.383 . S
C26 C27 1.393 . S
C26 H36 0.930 . S
C27 C25 1.403 . S
C27 C26 1.393 . S
C28 C24 1.388 . S
C28 C29 1.394 . S
C28 H37 0.930 . S
C29 C25 1.385 . S
C29 C28 1.394 . S
C30 O10 1.251 1_556 S
C30 O13 1.237 . S
O31 Eu0 2.461 . S
O31 C22 1.261 1_554 S
H32 C4 0.931 . S
H33 C5 0.930 1_655 S
H34 C7 0.930 . S
H35 C25 0.931 . S
H36 C26 0.930 . S
H37 C28 0.930 . S
Eu38 O40 2.323 . S
Eu38 O48 2.328 . S
Eu38 O59 2.316 . S
Eu38 C60 2.837 1_554 S
Eu38 O61 2.488 1_554 S
Eu38 O69 2.461 . S
C39 O50 1.251 1_554 S
C39 O59 1.237 . S
O40 Eu38 2.323 . S
O40 C56 1.279 . S
C41 C43 1.383 . S
C41 C45 1.388 . S
C41 C55 1.491 . S
C42 C44 1.403 . S
C42 C46 1.385 . S
C42 H70 0.931 . S
C43 C41 1.383 . S
C43 C44 1.393 . S
C43 H71 0.930 . S
C44 C42 1.403 . S
C44 C43 1.393 . S
C45 C41 1.388 . S
C45 C46 1.394 . S
C45 H72 0.930 . S
C46 C42 1.385 . S
C46 C45 1.394 . S
Eu47 O49 2.323 . S
Eu47 O50 2.328 . S
Eu47 O51 2.316 . S
Eu47 O54 2.488 1_556 S
Eu47 C55 2.837 1_556 S
Eu47 O58 2.461 . S
O48 Eu38 2.328 . S
O48 C68 1.251 1_554 S
O49 Eu47 2.323 . S
O49 C52 1.279 . S
O50 C39 1.251 1_556 S
O50 Eu47 2.328 . S
O51 Eu47 2.316 . S
O51 C68 1.237 . S
C52 O49 1.279 . S
C52 O53 1.244 . S
O53 C52 1.244 . S
O54 Eu47 2.488 1_554 S
O54 C55 1.271 . S
C55 C41 1.491 . S
C55 Eu47 2.837 1_554 S
C55 O54 1.271 . S
C55 O58 1.261 1_554 S
C56 O40 1.279 . S
C56 O57 1.244 . S
O57 C56 1.244 . S
O58 Eu47 2.461 . S
O58 C55 1.261 1_556 S
O59 Eu38 2.316 . S
O59 C39 1.237 . S
C60 Eu38 2.837 1_556 S
C60 O61 1.271 . S
C60 C62 1.491 . S
C60 O69 1.261 1_556 S
O61 Eu38 2.488 1_556 S
O61 C60 1.271 . S
C62 C60 1.491 . S
C62 C64 1.383 . S
C62 C66 1.388 . S
C63 C65 1.403 . S
C63 C67 1.385 1_455 S
C63 H73 0.931 . S
C64 C62 1.383 . S
C64 C65 1.393 1_655 S
C64 H74 0.930 1_655 S
C65 C63 1.403 . S
C65 C64 1.393 1_455 S
C66 C62 1.388 . S
C66 C67 1.394 . S
C66 H75 0.930 . S
C67 C63 1.385 1_655 S
C67 C66 1.394 . S
C68 O48 1.251 1_556 S
C68 O51 1.237 . S
O69 Eu38 2.461 . S
O69 C60 1.261 1_554 S
H70 C42 0.931 . S
H71 C43 0.930 . S
H72 C45 0.930 . S
H73 C63 0.931 . S
H74 C64 0.930 1_455 S
H75 C66 0.930 . S
Eu76 O78 2.323 . S
Eu76 O86 2.328 . S
Eu76 O97 2.316 . S
Eu76 C98 2.837 . S
Eu76 O99 2.488 . S
Eu76 O107 2.461 . S
C77 O88 1.251 . S
C77 O97 1.237 . S
O78 Eu76 2.323 . S
O78 C94 1.279 . S
C79 C81 1.383 . S
C79 C83 1.388 . S
C79 C93 1.491 . S
C80 C82 1.403 . S
C80 C84 1.385 1_655 S
C80 H108 0.931 . S
C81 C79 1.383 . S
C81 C82 1.393 1_455 S
C81 H109 0.930 1_455 S
C82 C80 1.403 . S
C82 C81 1.393 1_655 S
C83 C79 1.388 . S
C83 C84 1.394 . S
C83 H110 0.930 . S
C84 C80 1.385 1_455 S
C84 C83 1.394 . S
Eu85 O87 2.323 . S
Eu85 O88 2.328 . S
Eu85 O89 2.316 . S
Eu85 O92 2.488 . S
Eu85 C93 2.837 . S
Eu85 O96 2.461 . S
O86 Eu76 2.328 . S
O86 C106 1.251 . S
O87 Eu85 2.323 . S
O87 C90 1.279 . S
O88 C77 1.251 . S
O88 Eu85 2.328 . S
O89 Eu85 2.316 . S
O89 C106 1.237 . S
C90 O87 1.279 . S
C90 O91 1.244 . S
O91 C90 1.244 . S
O92 Eu85 2.488 . S
O92 C93 1.271 . S
C93 C79 1.491 . S
C93 Eu85 2.837 . S
C93 O92 1.271 . S
C93 O96 1.261 . S
C94 O78 1.279 . S
C94 O95 1.244 . S
O95 C94 1.244 . S
O96 Eu85 2.461 . S
O96 C93 1.261 . S
O97 Eu76 2.316 . S
O97 C77 1.237 . S
C98 Eu76 2.837 . S
C98 O99 1.271 . S
C98 C100 1.491 . S
C98 O107 1.261 . S
O99 Eu76 2.488 . S
O99 C98 1.271 . S
C100 C98 1.491 . S
C100 C102 1.383 . S
C100 C104 1.388 . S
C101 C103 1.403 . S
C101 C105 1.385 . S
C101 H111 0.931 . S
C102 C100 1.383 . S
C102 C103 1.393 . S
C102 H112 0.930 . S
C103 C101 1.403 . S
C103 C102 1.393 . S
C104 C100 1.388 . S
C104 C105 1.394 . S
C104 H113 0.930 . S
C105 C101 1.385 . S
C105 C104 1.394 . S
C106 O86 1.251 . S
C106 O89 1.237 . S
O107 Eu76 2.461 . S
O107 C98 1.261 . S
H108 C80 0.931 . S
H109 C81 0.930 1_655 S
H110 C83 0.930 . S
H111 C101 0.931 . S
H112 C102 0.930 . S
H113 C104 0.930 . S
Eu114 O116 2.323 . S
Eu114 O124 2.328 . S
Eu114 O135 2.316 . S
Eu114 C136 2.837 . S
Eu114 O137 2.488 . S
Eu114 O145 2.461 . S
C115 O126 1.251 . S
C115 O135 1.237 . S
O116 Eu114 2.323 . S
O116 C132 1.279 . S
C117 C119 1.383 . S
C117 C121 1.388 . S
C117 C131 1.491 . S
C118 C120 1.403 . S
C118 C122 1.385 . S
C118 H146 0.931 . S
C119 C117 1.383 . S
C119 C120 1.393 . S
C119 H147 0.930 . S
C120 C118 1.403 . S
C120 C119 1.393 . S
C121 C117 1.388 . S
C121 C122 1.394 . S
C121 H148 0.930 . S
C122 C118 1.385 . S
C122 C121 1.394 . S
Eu123 O125 2.323 . S
Eu123 O126 2.328 . S
Eu123 O127 2.316 . S
Eu123 O130 2.488 . S
Eu123 C131 2.837 . S
Eu123 O134 2.461 . S
O124 Eu114 2.328 . S
O124 C144 1.251 . S
O125 Eu123 2.323 . S
O125 C128 1.279 . S
O126 C115 1.251 . S
O126 Eu123 2.328 . S
O127 Eu123 2.316 . S
O127 C144 1.237 . S
C128 O125 1.279 . S
C128 O129 1.244 . S
O129 C128 1.244 . S
O130 Eu123 2.488 . S
O130 C131 1.271 . S
C131 C117 1.491 . S
C131 Eu123 2.837 . S
C131 O130 1.271 . S
C131 O134 1.261 . S
C132 O116 1.279 . S
C132 O133 1.244 . S
O133 C132 1.244 . S
O134 Eu123 2.461 . S
O134 C131 1.261 . S
O135 Eu114 2.316 . S
O135 C115 1.237 . S
C136 Eu114 2.837 . S
C136 O137 1.271 . S
C136 C138 1.491 . S
C136 O145 1.261 . S
O137 Eu114 2.488 . S
O137 C136 1.271 . S
C138 C136 1.491 . S
C138 C140 1.383 . S
C138 C142 1.388 . S
C139 C141 1.403 . S
C139 C143 1.385 1_455 S
C139 H149 0.931 . S
C140 C138 1.383 . S
C140 C141 1.393 1_655 S
C140 H150 0.930 1_655 S
C141 C139 1.403 . S
C141 C140 1.393 1_455 S
C142 C138 1.388 . S
C142 C143 1.394 . S
C142 H151 0.930 . S
C143 C139 1.385 1_655 S
C143 C142 1.394 . S
C144 O124 1.251 . S
C144 O127 1.237 . S
O145 Eu114 2.461 . S
O145 C136 1.261 . S
H146 C118 0.931 . S
H147 C119 0.930 . S
H148 C121 0.930 . S
H149 C139 0.931 . S
H150 C140 0.930 1_455 S
H151 C142 0.930 . S
C152 C153 1.391 . S
C152 C154 1.394 1_556 S
C152 H168 0.931 1_556 S
C153 C152 1.391 . S
C153 C157 1.376 . S
C154 C152 1.394 1_554 S
C154 C155 1.369 1_554 S
C154 C158 1.531 . S
C155 C154 1.369 1_556 S
C155 C156 1.410 . S
C155 C163 1.503 1_556 S
C156 C155 1.410 . S
C156 C157 1.392 . S
C156 C159 1.511 . S
C157 C153 1.376 . S
C157 C156 1.392 . S
C157 H169 0.929 . S
C158 C154 1.531 . S
C158 H170 0.960 . S
C158 H171 0.962 . S
C158 H172 0.960 . S
C159 C156 1.511 . S
C159 H173 0.961 . S
C159 H174 0.961 . S
C159 H175 0.961 . S
C160 C161 1.370 . S
C160 C162 1.363 . S
C160 H176 0.931 . S
C161 C160 1.370 . S
C161 C165 1.408 . S
C162 C160 1.363 . S
C162 C163 1.370 . S
C162 C166 1.524 1_554 S
C163 C155 1.503 1_554 S
C163 C162 1.370 . S
C163 C164 1.403 . S
C164 C163 1.403 . S
C164 C165 1.404 . S
C164 C167 1.539 . S
C165 C161 1.408 . S
C165 C164 1.404 . S
C165 H177 0.930 . S
C166 C162 1.524 1_556 S
C166 H178 0.956 . S
C166 H179 0.961 . S
C166 H180 0.961 . S
C167 C164 1.539 . S
C167 H181 0.958 . S
C167 H182 0.961 . S
C167 H183 0.960 . S
H168 C152 0.931 1_554 S
H169 C157 0.929 . S
H170 C158 0.960 . S
H171 C158 0.962 . S
H172 C158 0.960 . S
H173 C159 0.961 . S
H174 C159 0.961 . S
H175 C159 0.961 . S
H176 C160 0.931 . S
H177 C165 0.930 . S
H178 C166 0.956 . S
H179 C166 0.961 . S
H180 C166 0.961 . S
H181 C167 0.958 . S
H182 C167 0.961 . S
H183 C167 0.960 . S
C184 C185 1.391 . S
C184 C186 1.394 1_556 S
C184 H200 0.931 1_556 S
C185 C184 1.391 . S
C185 C189 1.376 . S
C186 C184 1.394 1_554 S
C186 C187 1.369 1_554 S
C186 C190 1.531 . S
C187 C186 1.369 1_556 S
C187 C188 1.410 . S
C187 C195 1.503 1_556 S
C188 C187 1.410 . S
C188 C189 1.392 . S
C188 C191 1.511 . S
C189 C185 1.376 . S
C189 C188 1.392 . S
C189 H201 0.929 . S
C190 C186 1.531 . S
C190 H202 0.960 . S
C190 H203 0.962 . S
C190 H204 0.960 . S
C191 C188 1.511 . S
C191 H205 0.961 . S
C191 H206 0.961 . S
C191 H207 0.961 . S
C192 C193 1.370 . S
C192 C194 1.363 . S
C192 H208 0.931 . S
C193 C192 1.370 . S
C193 C197 1.408 . S
C194 C192 1.363 . S
C194 C195 1.370 . S
C194 C198 1.524 1_554 S
C195 C187 1.503 1_554 S
C195 C194 1.370 . S
C195 C196 1.403 . S
C196 C195 1.403 . S
C196 C197 1.404 . S
C196 C199 1.539 . S
C197 C193 1.408 . S
C197 C196 1.404 . S
C197 H209 0.930 . S
C198 C194 1.524 1_556 S
C198 H210 0.956 . S
C198 H211 0.961 . S
C198 H212 0.961 . S
C199 C196 1.539 . S
C199 H213 0.958 . S
C199 H214 0.961 . S
C199 H215 0.960 . S
H200 C184 0.931 1_554 S
H201 C189 0.929 . S
H202 C190 0.960 . S
H203 C190 0.962 . S
H204 C190 0.960 . S
H205 C191 0.961 . S
H206 C191 0.961 . S
H207 C191 0.961 . S
H208 C192 0.931 . S
H209 C197 0.930 . S
H210 C198 0.956 . S
H211 C198 0.961 . S
H212 C198 0.961 . S
H213 C199 0.958 . S
H214 C199 0.961 . S
H215 C199 0.960 . S
C216 C217 1.391 . S
C216 C218 1.394 . S
C216 H232 0.931 . S
C217 C216 1.391 . S
C217 C221 1.376 . S
C218 C216 1.394 . S
C218 C219 1.369 . S
C218 C222 1.531 . S
C219 C218 1.369 . S
C219 C220 1.410 . S
C219 C227 1.503 . S
C220 C219 1.410 . S
C220 C221 1.392 . S
C220 C223 1.511 . S
C221 C217 1.376 . S
C221 C220 1.392 . S
C221 H233 0.929 . S
C222 C218 1.531 . S
C222 H234 0.960 . S
C222 H235 0.962 . S
C222 H236 0.960 . S
C223 C220 1.511 . S
C223 H237 0.961 . S
C223 H238 0.961 . S
C223 H239 0.961 . S
C224 C225 1.370 . S
C224 C226 1.363 . S
C224 H240 0.931 . S
C225 C224 1.370 . S
C225 C229 1.408 . S
C226 C224 1.363 . S
C226 C227 1.370 . S
C226 C230 1.524 . S
C227 C219 1.503 . S
C227 C226 1.370 . S
C227 C228 1.403 . S
C228 C227 1.403 . S
C228 C229 1.404 . S
C228 C231 1.539 . S
C229 C225 1.408 . S
C229 C228 1.404 . S
C229 H241 0.930 . S
C230 C226 1.524 . S
C230 H242 0.956 . S
C230 H243 0.961 . S
C230 H244 0.961 . S
C231 C228 1.539 . S
C231 H245 0.958 . S
C231 H246 0.961 . S
C231 H247 0.960 . S
H232 C216 0.931 . S
H233 C221 0.929 . S
H234 C222 0.960 . S
H235 C222 0.962 . S
H236 C222 0.960 . S
H237 C223 0.961 . S
H238 C223 0.961 . S
H239 C223 0.961 . S
H240 C224 0.931 . S
H241 C229 0.930 . S
H242 C230 0.956 . S
H243 C230 0.961 . S
H244 C230 0.961 . S
H245 C231 0.958 . S
H246 C231 0.961 . S
H247 C231 0.960 . S
C248 C249 1.391 . S
C248 C250 1.394 . S
C248 H264 0.931 . S
C249 C248 1.391 . S
C249 C253 1.376 . S
C250 C248 1.394 . S
C250 C251 1.369 . S
C250 C254 1.531 . S
C251 C250 1.369 . S
C251 C252 1.410 . S
C251 C259 1.503 . S
C252 C251 1.410 . S
C252 C253 1.392 . S
C252 C255 1.511 . S
C253 C249 1.376 . S
C253 C252 1.392 . S
C253 H265 0.929 . S
C254 C250 1.531 . S
C254 H266 0.960 . S
C254 H267 0.962 . S
C254 H268 0.960 . S
C255 C252 1.511 . S
C255 H269 0.961 . S
C255 H270 0.961 . S
C255 H271 0.961 . S
C256 C257 1.370 . S
C256 C258 1.363 . S
C256 H272 0.931 . S
C257 C256 1.370 . S
C257 C261 1.408 . S
C258 C256 1.363 . S
C258 C259 1.370 . S
C258 C262 1.524 . S
C259 C251 1.503 . S
C259 C258 1.370 . S
C259 C260 1.403 . S
C260 C259 1.403 . S
C260 C261 1.404 . S
C260 C263 1.539 . S
C261 C257 1.408 . S
C261 C260 1.404 . S
C261 H273 0.930 . S
C262 C258 1.524 . S
C262 H274 0.956 . S
C262 H275 0.961 . S
C262 H276 0.961 . S
C263 C260 1.539 . S
C263 H277 0.958 . S
C263 H278 0.961 . S
C263 H279 0.960 . S
H264 C248 0.931 . S
H265 C253 0.929 . S
H266 C254 0.960 . S
H267 C254 0.962 . S
H268 C254 0.960 . S
H269 C255 0.961 . S
H270 C255 0.961 . S
H271 C255 0.961 . S
H272 C256 0.931 . S
H273 C261 0.930 . S
H274 C262 0.956 . S
H275 C262 0.961 . S
H276 C262 0.961 . S
H277 C263 0.958 . S
H278 C263 0.961 . S
H279 C263 0.960 . S
C280 C281 1.389 1_554 S
C280 C282 1.394 . S
C280 H296 0.931 . S
C281 C280 1.389 1_556 S
C281 C285 1.378 . S
C282 C280 1.394 . S
C282 C283 1.369 . S
C282 C286 1.531 . S
C283 C282 1.369 . S
C283 C284 1.410 1_554 S
C283 C291 1.503 . S
C284 C283 1.410 1_556 S
C284 C285 1.392 . S
C284 C287 1.511 . S
C285 C281 1.378 . S
C285 C284 1.392 . S
C285 H297 0.929 . S
C286 C282 1.531 . S
C286 H298 0.960 . S
C286 H299 0.962 . S
C286 H300 0.960 . S
C287 C284 1.511 . S
C287 H301 0.961 . S
C287 H302 0.961 . S
C287 H303 0.961 . S
C288 C289 1.370 1_556 S
C288 C290 1.363 . S
C288 H304 0.931 . S
C289 C288 1.370 1_554 S
C289 C293 1.408 . S
C290 C288 1.363 . S
C290 C291 1.370 1_556 S
C290 C294 1.524 . S
C291 C283 1.503 . S
C291 C290 1.370 1_554 S
C291 C292 1.403 . S
C292 C291 1.403 . S
C292 C293 1.404 . S
C292 C295 1.539 . S
C293 C289 1.408 . S
C293 C292 1.404 . S
C293 H305 0.930 . S
C294 C290 1.524 . S
C294 H306 0.956 . S
C294 H307 0.961 . S
C294 H308 0.961 . S
C295 C292 1.539 . S
C295 H309 0.958 . S
C295 H310 0.961 . S
C295 H311 0.960 . S
H296 C280 0.931 . S
H297 C285 0.929 . S
H298 C286 0.960 . S
H299 C286 0.962 . S
H300 C286 0.960 . S
H301 C287 0.961 . S
H302 C287 0.961 . S
H303 C287 0.961 . S
H304 C288 0.931 . S
H305 C293 0.930 . S
H306 C294 0.956 . S
H307 C294 0.961 . S
H308 C294 0.961 . S
H309 C295 0.958 . S
H310 C295 0.961 . S
H311 C295 0.960 . S
C312 C313 1.391 . S
C312 C314 1.394 . S
C312 H328 0.931 . S
C313 C312 1.391 . S
C313 C317 1.376 . S
C314 C312 1.394 . S
C314 C315 1.369 . S
C314 C318 1.531 . S
C315 C314 1.369 . S
C315 C316 1.410 . S
C315 C323 1.503 . S
C316 C315 1.410 . S
C316 C317 1.392 . S
C316 C319 1.511 . S
C317 C313 1.376 . S
C317 C316 1.392 . S
C317 H329 0.929 . S
C318 C314 1.531 . S
C318 H330 0.960 . S
C318 H331 0.962 . S
C318 H332 0.960 . S
C319 C316 1.511 . S
C319 H333 0.961 . S
C319 H334 0.961 . S
C319 H335 0.961 . S
C320 C321 1.370 . S
C320 C322 1.363 . S
C320 H336 0.931 . S
C321 C320 1.370 . S
C321 C325 1.408 . S
C322 C320 1.363 . S
C322 C323 1.370 . S
C322 C326 1.524 . S
C323 C315 1.503 . S
C323 C322 1.370 . S
C323 C324 1.403 . S
C324 C323 1.403 . S
C324 C325 1.404 . S
C324 C327 1.539 . S
C325 C321 1.408 . S
C325 C324 1.404 . S
C325 H337 0.930 . S
C326 C322 1.524 . S
C326 H338 0.956 . S
C326 H339 0.961 . S
C326 H340 0.961 . S
C327 C324 1.539 . S
C327 H341 0.958 . S
C327 H342 0.961 . S
C327 H343 0.960 . S
H328 C312 0.931 . S
H329 C317 0.929 . S
H330 C318 0.960 . S
H331 C318 0.962 . S
H332 C318 0.960 . S
H333 C319 0.961 . S
H334 C319 0.961 . S
H335 C319 0.961 . S
H336 C320 0.931 . S
H337 C325 0.930 . S
H338 C326 0.956 . S
H339 C326 0.961 . S
H340 C326 0.961 . S
H341 C327 0.958 . S
H342 C327 0.961 . S
H343 C327 0.960 . S
C344 C345 1.391 . S
C344 C346 1.394 1_545 S
C344 H360 0.931 1_545 S
C345 C344 1.391 . S
C345 C349 1.376 1_554 S
C346 C344 1.394 1_565 S
C346 C347 1.369 1_565 S
C346 C350 1.531 . S
C347 C346 1.369 1_545 S
C347 C348 1.410 1_554 S
C347 C355 1.503 1_445 S
C348 C347 1.410 1_556 S
C348 C349 1.392 . S
C348 C351 1.511 1_455 S
C349 C345 1.376 1_556 S
C349 C348 1.392 . S
C349 H361 0.929 . S
C350 C346 1.531 . S
C350 H362 0.960 . S
C350 H363 0.962 . S
C350 H364 0.960 . S
C351 C348 1.511 1_655 S
C351 H365 0.961 . S
C351 H366 0.961 . S
C351 H367 0.961 1_556 S
C352 C353 1.370 1_556 S
C352 C354 1.363 . S
C352 H368 0.931 . S
C353 C352 1.370 1_554 S
C353 C357 1.408 . S
C354 C352 1.363 . S
C354 C355 1.370 1_556 S
C354 C358 1.524 . S
C355 C347 1.503 1_665 S
C355 C354 1.370 1_554 S
C355 C356 1.403 . S
C356 C355 1.403 . S
C356 C357 1.404 . S
C356 C359 1.539 1_565 S
C357 C353 1.408 . S
C357 C356 1.404 . S
C357 H369 0.930 . S
C358 C354 1.524 . S
C358 H370 0.956 1_655 S
C358 H371 0.961 1_665 S
C358 H372 0.961 . S
C359 C356 1.539 1_545 S
C359 H373 0.958 1_545 S
C359 H374 0.961 . S
C359 H375 0.960 . S
H360 C344 0.931 1_565 S
H361 C349 0.929 . S
H362 C350 0.960 . S
H363 C350 0.962 . S
H364 C350 0.960 . S
H365 C351 0.961 . S
H366 C351 0.961 . S
H367 C351 0.961 1_554 S
H368 C352 0.931 . S
H369 C357 0.930 . S
H370 C358 0.956 1_455 S
H371 C358 0.961 1_445 S
H372 C358 0.961 . S
H373 C359 0.958 1_565 S
H374 C359 0.961 . S
H375 C359 0.960 . S
C376 C377 1.391 . S
C376 C378 1.394 . S
C376 H392 0.931 . S
C377 C376 1.391 . S
C377 C381 1.376 . S
C378 C376 1.394 . S
C378 C379 1.369 . S
C378 C382 1.531 . S
C379 C378 1.369 . S
C379 C380 1.410 . S
C379 C387 1.503 1_645 S
C380 C379 1.410 . S
C380 C381 1.392 . S
C380 C383 1.511 . S
C381 C377 1.376 . S
C381 C380 1.392 . S
C381 H393 0.929 . S
C382 C378 1.531 . S
C382 H394 0.960 1_655 S
C382 H395 0.962 1_545 S
C382 H396 0.960 . S
C383 C380 1.511 . S
C383 H397 0.961 . S
C383 H398 0.961 1_655 S
C383 H399 0.961 1_655 S
C384 C385 1.370 . S
C384 C386 1.363 . S
C384 H400 0.931 . S
C385 C384 1.370 . S
C385 C389 1.408 . S
C386 C384 1.363 . S
C386 C387 1.370 . S
C386 C390 1.524 1_455 S
C387 C379 1.503 1_465 S
C387 C386 1.370 . S
C387 C388 1.403 1_565 S
C388 C387 1.403 1_545 S
C388 C389 1.404 1_545 S
C388 C391 1.539 . S
C389 C385 1.408 . S
C389 C388 1.404 1_565 S
C389 H401 0.930 1_565 S
C390 C386 1.524 1_655 S
C390 H402 0.956 . S
C390 H403 0.961 . S
C390 H404 0.961 . S
C391 C388 1.539 . S
C391 H405 0.958 . S
C391 H406 0.961 . S
C391 H407 0.960 . S
H392 C376 0.931 . S
H393 C381 0.929 . S
H394 C382 0.960 1_455 S
H395 C382 0.962 1_565 S
H396 C382 0.960 . S
H397 C383 0.961 . S
H398 C383 0.961 1_455 S
H399 C383 0.961 1_455 S
H400 C384 0.931 . S
H401 C389 0.930 1_545 S
H402 C390 0.956 . S
H403 C390 0.961 . S
H404 C390 0.961 . S
H405 C391 0.958 . S
H406 C391 0.961 . S
H407 C391 0.960 . S
C408 C409 1.391 . S
C408 C410 1.394 . S
C408 H424 0.931 . S
C409 C408 1.391 . S
C409 C413 1.376 . S
C410 C408 1.394 . S
C410 C411 1.369 . S
C410 C414 1.531 . S
C411 C410 1.369 . S
C411 C412 1.410 . S
C411 C419 1.503 . S
C412 C411 1.410 . S
C412 C413 1.392 . S
C412 C415 1.511 . S
C413 C409 1.376 . S
C413 C412 1.392 . S
C413 H425 0.929 . S
C414 C410 1.531 . S
C414 H426 0.960 . S
C414 H427 0.962 . S
C414 H428 0.960 . S
C415 C412 1.511 . S
C415 H429 0.961 . S
C415 H430 0.961 . S
C415 H431 0.961 . S
C416 C417 1.370 . S
C416 C418 1.363 . S
C416 H432 0.931 . S
C417 C416 1.370 . S
C417 C421 1.408 . S
C418 C416 1.363 . S
C418 C419 1.370 . S
C418 C422 1.524 . S
C419 C411 1.503 . S
C419 C418 1.370 . S
C419 C420 1.403 . S
C420 C419 1.403 . S
C420 C421 1.404 . S
C420 C423 1.539 . S
C421 C417 1.408 . S
C421 C420 1.404 . S
C421 H433 0.930 . S
C422 C418 1.524 . S
C422 H434 0.956 . S
C422 H435 0.961 . S
C422 H436 0.961 . S
C423 C420 1.539 . S
C423 H437 0.958 . S
C423 H438 0.961 . S
C423 H439 0.960 . S
H424 C408 0.931 . S
H425 C413 0.929 . S
H426 C414 0.960 . S
H427 C414 0.962 . S
H428 C414 0.960 . S
H429 C415 0.961 . S
H430 C415 0.961 . S
H431 C415 0.961 . S
H432 C416 0.931 . S
H433 C421 0.930 . S
H434 C422 0.956 . S
H435 C422 0.961 . S
H436 C422 0.961 . S
H437 C423 0.958 . S
H438 C423 0.961 . S
H439 C423 0.960 . S
C440 C441 1.391 . S
C440 C442 1.394 . S
C440 H456 0.931 . S
C441 C440 1.391 . S
C441 C445 1.376 . S
C442 C440 1.394 . S
C442 C443 1.369 . S
C442 C446 1.531 . S
C443 C442 1.369 . S
C443 C444 1.410 . S
C443 C451 1.503 . S
C444 C443 1.410 . S
C444 C445 1.392 . S
C444 C447 1.511 . S
C445 C441 1.376 . S
C445 C444 1.392 . S
C445 H457 0.929 . S
C446 C442 1.531 . S
C446 H458 0.960 . S
C446 H459 0.962 . S
C446 H460 0.960 . S
C447 C444 1.511 . S
C447 H461 0.961 . S
C447 H462 0.961 . S
C447 H463 0.961 . S
C448 C449 1.370 . S
C448 C450 1.363 . S
C448 H464 0.931 . S
C449 C448 1.370 . S
C449 C453 1.408 . S
C450 C448 1.363 . S
C450 C451 1.370 . S
C450 C454 1.524 . S
C451 C443 1.503 . S
C451 C450 1.370 . S
C451 C452 1.403 . S
C452 C451 1.403 . S
C452 C453 1.404 . S
C452 C455 1.539 . S
C453 C449 1.408 . S
C453 C452 1.404 . S
C453 H465 0.930 . S
C454 C450 1.524 . S
C454 H466 0.956 . S
C454 H467 0.961 . S
C454 H468 0.961 . S
C455 C452 1.539 . S
C455 H469 0.958 . S
C455 H470 0.961 . S
C455 H471 0.960 . S
H456 C440 0.931 . S
H457 C445 0.929 . S
H458 C446 0.960 . S
H459 C446 0.962 . S
H460 C446 0.960 . S
H461 C447 0.961 . S
H462 C447 0.961 . S
H463 C447 0.961 . S
H464 C448 0.931 . S
H465 C453 0.930 . S
H466 C454 0.956 . S
H467 C454 0.961 . S
H468 C454 0.961 . S
H469 C455 0.958 . S
H470 C455 0.961 . S
H471 C455 0.960 . S
C472 C473 1.391 . S
C472 C474 1.394 . S
C472 H488 0.931 . S
C473 C472 1.391 . S
C473 C477 1.376 . S
C474 C472 1.394 . S
C474 C475 1.369 . S
C474 C478 1.531 . S
C475 C474 1.369 . S
C475 C476 1.410 . S
C475 C483 1.503 . S
C476 C475 1.410 . S
C476 C477 1.392 . S
C476 C479 1.511 . S
C477 C473 1.376 . S
C477 C476 1.392 . S
C477 H489 0.929 . S
C478 C474 1.531 . S
C478 H490 0.960 . S
C478 H491 0.962 . S
C478 H492 0.960 . S
C479 C476 1.511 . S
C479 H493 0.961 . S
C479 H494 0.961 . S
C479 H495 0.961 . S
C480 C481 1.370 . S
C480 C482 1.363 . S
C480 H496 0.931 . S
C481 C480 1.370 . S
C481 C485 1.408 . S
C482 C480 1.363 . S
C482 C483 1.370 . S
C482 C486 1.524 . S
C483 C475 1.503 . S
C483 C482 1.370 . S
C483 C484 1.403 . S
C484 C483 1.403 . S
C484 C485 1.404 . S
C484 C487 1.539 . S
C485 C481 1.408 . S
C485 C484 1.404 . S
C485 H497 0.930 . S
C486 C482 1.524 . S
C486 H498 0.956 . S
C486 H499 0.961 . S
C486 H500 0.961 . S
C487 C484 1.539 . S
C487 H501 0.958 . S
C487 H502 0.961 . S
C487 H503 0.960 . S
H488 C472 0.931 . S
H489 C477 0.929 . S
H490 C478 0.960 . S
H491 C478 0.962 . S
H492 C478 0.960 . S
H493 C479 0.961 . S
H494 C479 0.961 . S
H495 C479 0.961 . S
H496 C480 0.931 . S
H497 C485 0.930 . S
H498 C486 0.956 . S
H499 C486 0.961 . S
H500 C486 0.961 . S
H501 C487 0.958 . S
H502 C487 0.961 . S
H503 C487 0.960 . S
C504 C505 1.391 . S
C504 C506 1.394 . S
C504 H520 0.931 . S
C505 C504 1.391 . S
C505 C509 1.376 . S
C506 C504 1.394 . S
C506 C507 1.369 . S
C506 C510 1.531 . S
C507 C506 1.369 . S
C507 C508 1.410 . S
C507 C515 1.503 . S
C508 C507 1.410 . S
C508 C509 1.392 . S
C508 C511 1.511 . S
C509 C505 1.376 . S
C509 C508 1.392 . S
C509 H521 0.929 . S
C510 C506 1.531 . S
C510 H522 0.960 . S
C510 H523 0.962 . S
C510 H524 0.960 . S
C511 C508 1.511 . S
C511 H525 0.961 . S
C511 H526 0.961 . S
C511 H527 0.961 . S
C512 C513 1.370 . S
C512 C514 1.363 . S
C512 H528 0.931 . S
C513 C512 1.370 . S
C513 C517 1.408 . S
C514 C512 1.363 . S
C514 C515 1.370 . S
C514 C518 1.524 . S
C515 C507 1.503 . S
C515 C514 1.370 . S
C515 C516 1.403 . S
C516 C515 1.403 . S
C516 C517 1.404 . S
C516 C519 1.539 . S
C517 C513 1.408 . S
C517 C516 1.404 . S
C517 H529 0.930 . S
C518 C514 1.524 . S
C518 H530 0.956 . S
C518 H531 0.961 . S
C518 H532 0.961 . S
C519 C516 1.539 . S
C519 H533 0.958 . S
C519 H534 0.961 . S
C519 H535 0.960 . S
H520 C504 0.931 . S
H521 C509 0.929 . S
H522 C510 0.960 . S
H523 C510 0.962 . S
H524 C510 0.960 . S
H525 C511 0.961 . S
H526 C511 0.961 . S
H527 C511 0.961 . S
H528 C512 0.931 . S
H529 C517 0.930 . S
H530 C518 0.956 . S
H531 C518 0.961 . S
H532 C518 0.961 . S
H533 C519 0.958 . S
H534 C519 0.961 . S
H535 C519 0.960 . S
C536 C537 1.391 . S
C536 C538 1.394 . S
C536 H552 0.931 . S
C537 C536 1.391 . S
C537 C541 1.376 . S
C538 C536 1.394 . S
C538 C539 1.369 1_455 S
C538 C542 1.531 . S
C539 C538 1.369 1_655 S
C539 C540 1.410 . S
C539 C547 1.503 . S
C540 C539 1.410 . S
C540 C541 1.392 1_655 S
C540 C543 1.511 . S
C541 C537 1.376 . S
C541 C540 1.392 1_455 S
C541 H553 0.929 . S
C542 C538 1.531 . S
C542 H554 0.960 . S
C542 H555 0.962 1_455 S
C542 H556 0.960 . S
C543 C540 1.511 . S
C543 H557 0.961 . S
C543 H558 0.961 . S
C543 H559 0.961 1_655 S
C544 C545 1.370 . S
C544 C546 1.363 . S
C544 H560 0.931 . S
C545 C544 1.370 . S
C545 C549 1.408 . S
C546 C544 1.363 . S
C546 C547 1.370 . S
C546 C550 1.524 . S
C547 C539 1.503 . S
C547 C546 1.370 . S
C547 C548 1.403 . S
C548 C547 1.403 . S
C548 C549 1.404 . S
C548 C551 1.539 1_655 S
C549 C545 1.408 . S
C549 C548 1.404 . S
C549 H561 0.930 . S
C550 C546 1.524 . S
C550 H562 0.956 . S
C550 H563 0.961 . S
C550 H564 0.961 . S
C551 C548 1.539 1_455 S
C551 H565 0.958 . S
C551 H566 0.961 . S
C551 H567 0.960 . S
H552 C536 0.931 . S
H553 C541 0.929 . S
H554 C542 0.960 . S
H555 C542 0.962 1_655 S
H556 C542 0.960 . S
H557 C543 0.961 . S
H558 C543 0.961 . S
H559 C543 0.961 1_455 S
H560 C544 0.931 . S
H561 C549 0.930 . S
H562 C550 0.956 . S
H563 C550 0.961 . S
H564 C550 0.961 . S
H565 C551 0.958 . S
H566 C551 0.961 . S
H567 C551 0.960 . S
C568 C569 1.391 . S
C568 C570 1.394 . S
C568 H584 0.931 . S
C569 C568 1.391 . S
C569 C573 1.376 . S
C570 C568 1.394 . S
C570 C571 1.369 . S
C570 C574 1.531 1_655 S
C571 C570 1.369 . S
C571 C572 1.410 . S
C571 C579 1.503 . S
C572 C571 1.410 . S
C572 C573 1.392 . S
C572 C575 1.511 . S
C573 C569 1.376 . S
C573 C572 1.392 . S
C573 H585 0.929 . S
C574 C570 1.531 1_455 S
C574 H586 0.960 . S
C574 H587 0.962 1_455 S
C574 H588 0.960 . S
C575 C572 1.511 . S
C575 H589 0.961 . S
C575 H590 0.961 . S
C575 H591 0.961 . S
C576 C577 1.370 1_655 S
C576 C578 1.363 . S
C576 H592 0.931 . S
C577 C576 1.370 1_455 S
C577 C581 1.408 . S
C578 C576 1.363 . S
C578 C579 1.370 . S
C578 C582 1.524 . S
C579 C571 1.503 . S
C579 C578 1.370 . S
C579 C580 1.403 1_655 S
C580 C579 1.403 1_455 S
C580 C581 1.404 . S
C580 C583 1.539 . S
C581 C577 1.408 . S
C581 C580 1.404 . S
C581 H593 0.930 . S
C582 C578 1.524 . S
C582 H594 0.956 . S
C582 H595 0.961 . S
C582 H596 0.961 . S
C583 C580 1.539 . S
C583 H597 0.958 . S
C583 H598 0.961 . S
C583 H599 0.960 . S
H584 C568 0.931 . S
H585 C573 0.929 . S
H586 C574 0.960 . S
H587 C574 0.962 1_655 S
H588 C574 0.960 . S
H589 C575 0.961 . S
H590 C575 0.961 . S
H591 C575 0.961 . S
H592 C576 0.931 . S
H593 C581 0.930 . S
H594 C582 0.956 . S
H595 C582 0.961 . S
H596 C582 0.961 . S
H597 C583 0.958 . S
H598 C583 0.961 . S
H599 C583 0.960 . S
C600 C601 1.391 . S
C600 C602 1.394 . S
C600 H616 0.931 . S
C601 C600 1.391 . S
C601 C605 1.376 . S
C602 C600 1.394 . S
C602 C603 1.369 . S
C602 C606 1.531 . S
C603 C602 1.369 . S
C603 C604 1.410 . S
C603 C611 1.503 . S
C604 C603 1.410 . S
C604 C605 1.392 . S
C604 C607 1.511 1_455 S
C605 C601 1.376 . S
C605 C604 1.392 . S
C605 H617 0.929 . S
C606 C602 1.531 . S
C606 H618 0.960 . S
C606 H619 0.962 . S
C606 H620 0.960 . S
C607 C604 1.511 1_655 S
C607 H621 0.963 . S
C607 H622 0.961 . S
C607 H623 0.961 . S
C608 C609 1.370 1_455 S
C608 C610 1.363 . S
C608 H624 0.931 . S
C609 C608 1.370 1_655 S
C609 C613 1.408 . S
C610 C608 1.363 . S
C610 C611 1.370 . S
C610 C614 1.524 . S
C611 C603 1.503 . S
C611 C610 1.370 . S
C611 C612 1.403 1_455 S
C612 C611 1.403 1_655 S
C612 C613 1.404 . S
C612 C615 1.539 . S
C613 C609 1.408 . S
C613 C612 1.404 . S
C613 H625 0.930 . S
C614 C610 1.524 . S
C614 H626 0.956 . S
C614 H627 0.961 . S
C614 H628 0.961 . S
C615 C612 1.539 . S
C615 H629 0.958 . S
C615 H630 0.961 . S
C615 H631 0.960 . S
H616 C600 0.931 . S
H617 C605 0.929 . S
H618 C606 0.960 . S
H619 C606 0.962 . S
H620 C606 0.960 . S
H621 C607 0.963 . S
H622 C607 0.961 . S
H623 C607 0.961 . S
H624 C608 0.931 . S
H625 C613 0.930 . S
H626 C614 0.956 . S
H627 C614 0.961 . S
H628 C614 0.961 . S
H629 C615 0.958 . S
H630 C615 0.961 . S
H631 C615 0.960 . S
C632 C633 1.391 . S
C632 C634 1.394 . S
C632 H648 0.931 . S
C633 C632 1.391 . S
C633 C637 1.376 . S
C634 C632 1.394 . S
C634 C635 1.369 . S
C634 C638 1.531 . S
C635 C634 1.369 . S
C635 C636 1.410 . S
C635 C643 1.503 . S
C636 C635 1.410 . S
C636 C637 1.392 . S
C636 C639 1.511 1_455 S
C637 C633 1.376 . S
C637 C636 1.392 . S
C637 H649 0.929 . S
C638 C634 1.531 . S
C638 H650 0.960 . S
C638 H651 0.962 . S
C638 H652 0.960 . S
C639 C636 1.511 1_655 S
C639 H653 0.961 . S
C639 H654 0.961 . S
C639 H655 0.961 . S
C640 C641 1.370 1_455 S
C640 C642 1.363 . S
C640 H656 0.931 . S
C641 C640 1.370 1_655 S
C641 C645 1.408 . S
C642 C640 1.363 . S
C642 C643 1.370 . S
C642 C646 1.524 . S
C643 C635 1.503 . S
C643 C642 1.370 . S
C643 C644 1.403 1_455 S
C644 C643 1.403 1_655 S
C644 C645 1.404 . S
C644 C647 1.539 . S
C645 C641 1.408 . S
C645 C644 1.404 . S
C645 H657 0.930 . S
C646 C642 1.524 . S
C646 H658 0.956 . S
C646 H659 0.961 . S
C646 H660 0.961 . S
C647 C644 1.539 . S
C647 H661 0.958 . S
C647 H662 0.961 . S
C647 H663 0.960 . S
H648 C632 0.931 . S
H649 C637 0.929 . S
H650 C638 0.960 . S
H651 C638 0.962 . S
H652 C638 0.960 . S
H653 C639 0.961 . S
H654 C639 0.961 . S
H655 C639 0.961 . S
H656 C640 0.931 . S
H657 C645 0.930 . S
H658 C646 0.956 . S
H659 C646 0.961 . S
H660 C646 0.961 . S
H661 C647 0.958 . S
H662 C647 0.961 . S
H663 C647 0.960 . S
C153 C27 2.030 . S
C161 C6 2.038 . S
C185 C65 2.031 . S
C193 C44 2.037 . S
C217 C103 2.034 . S
C225 C82 2.038 . S
C249 C141 2.030 . S
C257 C120 2.039 . S
C281 C68 1.636 . S
C289 C1 1.655 . S
C313 C144 1.638 . S
C321 C77 1.655 . S
C345 C30 1.640 1_554 S
C353 C39 1.655 . S
C377 C115 1.638 . S
C385 C106 1.655 . S
C409 C122 1.131 . S
C417 C18 1.199 . S
C441 C46 1.169 . S
C449 C94 1.198 . S
C473 C105 1.180 . S
C481 C52 1.208 . S
C505 C29 1.194 . S
C513 C128 1.212 . S
C537 C84 1.230 . S
C545 C56 1.221 . S
C569 C132 1.254 . S
C577 C8 1.193 . S
C601 C14 1.254 . S
C609 C143 1.204 . S
C633 C90 1.254 . S
C641 C67 1.197 . S
