# Generated by pormake.
# Topology hcp, (12)-cn, num edge types: 1
# Building blocks:
#     Node 0, Type 0, BuildingBlock: UKIBUN_clean_sbu_0, # of connection points: 12
#     Node 1, Type 0, BuildingBlock: UKIBUN_clean_sbu_0, # of connection points: 12
#     Edge 2, Type (0, 0), BuildingBlock: KIFKEQ_clean_linker_1, # of connection points: 2
#     Edge 3, Type (0, 0), BuildingBlock: KIFKEQ_clean_linker_1, # of connection points: 2
#     Edge 4, Type (0, 0), BuildingBlock: KIFKEQ_clean_linker_1, # of connection points: 2
#     Edge 5, Type (0, 0), BuildingBlock: KIFKEQ_clean_linker_1, # of connection points: 2
#     Edge 6, Type (0, 0), BuildingBlock: KIFKEQ_clean_linker_1, # of connection points: 2
#     Edge 7, Type (0, 0), BuildingBlock: KIFKEQ_clean_linker_1, # of connection points: 2
#     Edge 8, Type (0, 0), BuildingBlock: KIFKEQ_clean_linker_1, # of connection points: 2
#     Edge 9, Type (0, 0), BuildingBlock: KIFKEQ_clean_linker_1, # of connection points: 2
#     Edge 10, Type (0, 0), BuildingBlock: KIFKEQ_clean_linker_1, # of connection points: 2
#     Edge 11, Type (0, 0), BuildingBlock: KIFKEQ_clean_linker_1, # of connection points: 2
#     Edge 12, Type (0, 0), BuildingBlock: KIFKEQ_clean_linker_1, # of connection points: 2
#     Edge 13, Type (0, 0), BuildingBlock: KIFKEQ_clean_linker_1, # of connection points: 2
# Relax obj value: 0.181
# Max RMSD: 0.266
# Mean RMSD: 0.266
data_MOF--net-hcp--node1-UKIBUN_clean_sbu_0--edge1-KIFKEQ_clean_linker_1
_symmetry_space_group_name_H-M    P1
_symmetry_Int_Tables_number       1
_symmetry_cell_setting            triclinic
loop_
_symmetry_equiv_pos_as_xyz
'x, y, z'
_cell_length_a     18.389099
_cell_length_b     18.499932
_cell_length_c     29.523959
_cell_angle_alpha  90.002616
_cell_angle_beta   90.000793
_cell_angle_gamma 120.11526
loop_
_atom_site_label
_atom_site_type_symbol
_atom_site_fract_x
_atom_site_fract_y
_atom_site_fract_z
_atom_type_partial_charge
C0 C 0.91496 0.52797 0.27179 0.0
C1 C 0.86087 0.27148 0.26774 0.0
O2 O 0.73009 0.43433 0.29407 0.0
O3 O 0.65107 0.32326 0.20318 0.0
O4 O 0.61682 0.39931 0.25047 0.0
O5 O 0.76261 0.35656 0.24963 0.0
Hf6 Hf 0.7343 0.44233 0.2246 0.0
O7 O 0.65179 0.3211 0.33844 0.0
Hf8 Hf 0.7718 0.35793 0.31876 0.0
O9 O 0.53775 0.2867 0.29389 0.0
Hf10 Hf 0.61475 0.40373 0.31971 0.0
O11 O 0.68597 0.24368 0.29303 0.0
Hf12 Hf 0.53125 0.28586 0.22425 0.0
Hf13 Hf 0.68735 0.24009 0.22339 0.0
O14 O 0.5735 0.21111 0.24976 0.0
Hf15 Hf 0.56808 0.20199 0.31902 0.0
C16 C 0.53326 0.15854 0.15148 0.0
C17 C 0.76055 0.47139 0.39641 0.0
C18 C 0.44448 0.37741 0.27294 0.0
C19 C 0.70745 0.58385 0.2732 0.0
O20 O 0.73791 0.56244 0.23958 0.0
O21 O 0.81173 0.43467 0.16847 0.0
C22 C 0.81504 0.37191 0.15124 0.0
O23 O 0.5698 0.08449 0.30541 0.0
O24 O 0.41335 0.16549 0.23612 0.0
O25 O 0.53964 0.37215 0.16869 0.0
O26 O 0.50383 0.21437 0.38078 0.0
O27 O 0.75888 0.28233 0.38071 0.0
O28 O 0.89385 0.47313 0.30376 0.0
O29 O 0.80814 0.24312 0.23451 0.0
O30 O 0.60051 0.16262 0.16799 0.0
C31 C 0.49837 0.2772 0.39609 0.0
O32 O 0.49985 0.41111 0.30483 0.0
O33 O 0.69095 0.46487 0.38194 0.0
C34 C 0.60262 0.06323 0.27295 0.0
O35 O 0.6216 0.17594 0.37875 0.0
O36 O 0.67914 0.47188 0.16658 0.0
O37 O 0.86591 0.52753 0.2407 0.0
O38 O 0.43617 0.11542 0.30264 0.0
O39 O 0.64588 0.10987 0.23975 0.0
O40 O 0.53186 0.34984 0.37793 0.0
C41 C 0.39097 0.11134 0.26847 0.0
O42 O 0.66425 0.53582 0.30595 0.0
O43 O 0.80091 0.43984 0.3773 0.0
O44 O 0.76967 0.29556 0.16435 0.0
O45 O 0.44432 0.329 0.24172 0.0
O46 O 0.50184 0.20325 0.16514 0.0
O47 O 0.85565 0.30958 0.30286 0.0
C48 C 0.69509 0.21515 0.39666 0.0
C49 C 0.60283 0.43977 0.15254 0.0
C50 C 0.47373 0.701 0.89605 0.0
C51 C 0.27693 0.76296 0.89672 0.0
O52 O 0.43425 0.69153 0.7939 0.0
O53 O 0.24192 0.54391 0.79404 0.0
O54 O 0.35521 0.57896 0.75045 0.0
O55 O 0.32022 0.65711 0.83843 0.0
Hf56 Hf 0.35725 0.57447 0.81968 0.0
O57 O 0.39855 0.76718 0.74978 0.0
Hf58 Hf 0.40393 0.77623 0.81905 0.0
O59 O 0.32098 0.65505 0.70317 0.0
Hf60 Hf 0.44079 0.69242 0.72426 0.0
O61 O 0.28606 0.73458 0.79304 0.0
Hf62 Hf 0.23775 0.53597 0.72457 0.0
Hf63 Hf 0.20022 0.62032 0.81874 0.0
O64 O 0.20944 0.62174 0.74961 0.0
Hf65 Hf 0.2847 0.73822 0.7234 0.0
C66 C 0.05705 0.45034 0.77171 0.0
C67 C 0.58102 0.86698 0.76848 0.0
C68 C 0.36927 0.53849 0.65256 0.0
C69 C 0.52755 0.60085 0.77293 0.0
O70 O 0.47213 0.56708 0.80479 0.0
O71 O 0.28106 0.51337 0.88193 0.0
C72 C 0.21144 0.50684 0.89638 0.0
O73 O 0.1639 0.73517 0.73452 0.0
O74 O 0.16038 0.54369 0.66841 0.0
O75 O 0.23405 0.41583 0.73953 0.0
O76 O 0.37158 0.81571 0.66802 0.0
O77 O 0.40205 0.89369 0.80553 0.0
O78 O 0.46827 0.76385 0.88077 0.0
O79 O 0.21312 0.69584 0.88072 0.0
O80 O 0.07816 0.50516 0.8037 0.0
C81 C 0.43879 0.81973 0.65149 0.0
O82 O 0.43245 0.60611 0.66872 0.0
O83 O 0.55867 0.81282 0.73614 0.0
C84 C 0.11118 0.70681 0.76774 0.0
O85 O 0.32612 0.86842 0.73982 0.0
O86 O 0.3077 0.44236 0.8059 0.0
O87 O 0.44019 0.62835 0.87789 0.0
O88 O 0.20242 0.6828 0.66434 0.0
O89 O 0.1164 0.66871 0.80286 0.0
O90 O 0.47018 0.77499 0.66514 0.0
C91 C 0.15707 0.60645 0.65121 0.0
O92 O 0.52775 0.64933 0.74174 0.0
O93 O 0.53582 0.86289 0.80265 0.0
O94 O 0.17107 0.53836 0.87726 0.0
O95 O 0.29295 0.5064 0.66657 0.0
O96 O 0.10611 0.45079 0.74063 0.0
O97 O 0.35044 0.80216 0.87883 0.0
C98 C 0.36926 0.91499 0.77307 0.0
C99 C 0.26448 0.39437 0.77314 0.0
H100 H 0.25695 0.89653 0.91079 0.0
H101 H 0.29324 0.71259 0.98011 0.0
H102 H 0.31274 -0.01049 0.97594 0.0
H103 H 0.34789 0.80438 0.04626 0.0
H104 H 0.56483 0.03973 0.11494 0.0
H105 H 0.48104 0.93251 0.05912 0.0
H106 H 0.30522 0.02248 0.05365 0.0
H107 H 0.3894 0.13048 0.10829 0.0
C108 C 0.27353 0.87465 0.94087 0.0
C109 C 0.27101 0.79766 0.94048 0.0
C110 C 0.30598 0.92802 0.97827 0.0
C111 C 0.33692 0.90543 1.01609 0.0
C112 C 0.32662 0.82471 1.01731 0.0
C113 C 0.2938 0.77135 0.97984 0.0
C114 C 0.50866 0.0371 0.10165 0.0
C115 C 0.48491 0.09485 0.11596 0.0
C116 C 0.45982 0.97473 0.07004 0.0
C117 C 0.38587 0.96835 0.05195 0.0
C118 C 0.36201 0.0258 0.06644 0.0
C119 C 0.4107 0.08803 0.09791 0.0
H120 H 0.52002 0.56301 0.61812 0.0
H121 H 0.25083 0.40189 0.60622 0.0
H122 H 0.54033 0.47812 0.5614 0.0
H123 H 0.27141 0.31718 0.55092 0.0
H124 H 0.55801 0.28182 0.48044 0.0
H125 H 0.5242 0.33893 0.54677 0.0
H126 H 0.31737 0.33136 0.47321 0.0
H127 H 0.35175 0.27455 0.40754 0.0
C128 C 0.46527 0.5099 0.60349 0.0
C129 C 0.38385 0.49034 0.61665 0.0
C130 C 0.47688 0.46046 0.57141 0.0
C131 C 0.4074 0.39045 0.55165 0.0
C132 C 0.32631 0.37088 0.56503 0.0
C133 C 0.3147 0.4199 0.59694 0.0
C134 C 0.50267 0.28815 0.47953 0.0
C135 C 0.45627 0.2719 0.43931 0.0
C136 C 0.48443 0.32277 0.51708 0.0
C137 C 0.41895 0.34121 0.51513 0.0
C138 C 0.3679 0.31762 0.47618 0.0
C139 C 0.38672 0.28384 0.43864 0.0
H140 H 0.94181 0.52267 0.11813 0.0
H141 H 0.83462 0.2555 0.10418 0.0
H142 H 0.04897 0.54473 0.062 0.0
H143 H 0.94207 0.2778 0.04953 0.0
H144 H 0.26573 0.56546 0.98111 0.0
H145 H 0.17338 0.53001 0.04728 0.0
H146 H 0.97488 0.32525 0.97246 0.0
H147 H 0.06721 0.36115 0.90707 0.0
C148 C 0.94077 0.46872 0.10316 0.0
C149 C 0.87853 0.38735 0.1155 0.0
C150 C 0.00301 0.48134 0.07145 0.0
C151 C 0.00441 0.41295 0.05132 0.0
C152 C 0.94259 0.33189 0.06395 0.0
C153 C 0.88067 0.31926 0.09543 0.0
C154 C 0.20379 0.51036 0.97987 0.0
C155 C 0.17399 0.46491 0.93943 0.0
C156 C 0.15024 0.49112 1.01733 0.0
C157 C 0.06615 0.42563 1.01498 0.0
C158 C 0.03924 0.37569 0.97575 0.0
C159 C 0.09246 0.39544 0.93835 0.0
H160 H 0.58236 0.84742 0.60812 0.0
H161 H 0.40748 0.93881 0.61509 0.0
H162 H 0.66654 0.95534 0.55345 0.0
H163 H 0.49125 0.04595 0.55922 0.0
H164 H 0.67911 0.26561 0.48008 0.0
H165 H 0.62448 0.17386 0.54624 0.0
H166 H 0.65892 0.98838 0.4758 0.0
H167 H 0.71472 0.08133 0.41065 0.0
C168 C 0.56119 0.89 0.59781 0.0
C169 C 0.48713 0.88338 0.61595 0.0
C170 C 0.60987 0.95218 0.56632 0.0
C171 C 0.58616 0.00978 0.5519 0.0
C172 C 0.51237 0.0036 0.57009 0.0
C173 C 0.46352 0.94128 0.60171 0.0
C174 C 0.6784 0.20678 0.47978 0.0
C175 C 0.701 0.18036 0.44039 0.0
C176 C 0.64559 0.15344 0.51726 0.0
C177 C 0.63509 0.07264 0.51602 0.0
C178 C 0.66583 0.04993 0.47815 0.0
C179 C 0.69829 0.10328 0.44075 0.0
H180 H 0.72134 0.57596 0.10598 0.0
H181 H 0.45211 0.41554 0.11824 0.0
H182 H 0.70084 0.66067 0.05065 0.0
H183 H 0.43187 0.50042 0.06149 0.0
H184 H 0.62014 0.70324 0.90736 0.0
H185 H 0.65456 0.64642 0.97301 0.0
H186 H 0.44837 0.63973 0.0468 0.0
H187 H 0.41449 0.69681 0.98048 0.0
C188 C 0.65747 0.55811 0.09677 0.0
C189 C 0.58828 0.48787 0.11659 0.0
C190 C 0.64591 0.60713 0.06485 0.0
C191 C 0.56483 0.58776 0.05156 0.0
C192 C 0.49532 0.51794 0.07142 0.0
C193 C 0.50688 0.46849 0.10352 0.0
C194 C 0.58533 0.69413 0.9385 0.0
C195 C 0.51592 0.70631 0.93924 0.0
C196 C 0.60417 0.66035 0.97603 0.0
C197 C 0.5533 0.63701 1.01504 0.0
C198 C 0.48799 0.65569 1.01706 0.0
C199 C 0.46972 0.6903 0.97951 0.0
H200 H 0.90473 0.61707 0.40706 0.0
H201 H 0.70631 0.41282 0.48116 0.0
H202 H -0.00287 0.65306 0.47243 0.0
H203 H 0.79872 0.44837 0.54732 0.0
H204 H 0.13752 0.72288 0.60413 0.0
H205 H 0.03005 0.70058 0.54949 0.0
H206 H 0.92312 0.43364 0.56198 0.0
H207 H 0.0303 0.45571 0.6181 0.0
C208 C 0.87952 0.58282 0.43835 0.0
C209 C 0.79799 0.51334 0.43946 0.0
C210 C 0.93277 0.60263 0.47574 0.0
C211 C 0.9059 0.55273 0.51499 0.0
C212 C 0.82183 0.48723 0.51736 0.0
C213 C 0.76824 0.46793 0.47991 0.0
C214 C 0.09146 0.65911 0.59539 0.0
C215 C 0.09359 0.59103 0.61546 0.0
C216 C 0.02953 0.64649 0.56391 0.0
C217 C 0.96769 0.56543 0.5513 0.0
C218 C 0.9691 0.49703 0.57142 0.0
C219 C 0.03135 0.50966 0.60312 0.0
H220 H 0.6522 0.01033 0.34474 0.0
H221 H 0.56263 0.94569 0.20775 0.0
H222 H 0.69602 0.90687 0.34421 0.0
H223 H 0.59806 0.83509 0.20794 0.0
H224 H 0.73117 0.68933 0.2016 0.0
H225 H 0.70626 0.80729 0.20288 0.0
H226 H 0.66095 0.77325 0.34739 0.0
H227 H 0.69436 0.66378 0.34657 0.0
C228 C 0.63837 0.97079 0.31531 0.0
C229 C 0.60329 0.98476 0.27668 0.0
C230 C 0.66372 0.91137 0.31467 0.0
C231 C 0.6515 0.86222 0.27579 0.0
C232 C 0.61113 0.87308 0.23802 0.0
C233 C 0.58866 0.93483 0.23821 0.0
C234 C 0.71916 0.70969 0.23373 0.0
C235 C 0.71367 0.66655 0.27381 0.0
C236 C 0.70281 0.77601 0.23444 0.0
C237 C 0.67924 0.79909 0.27511 0.0
C238 C 0.67947 0.7589 0.31539 0.0
C239 C 0.69802 0.69492 0.31484 0.0
H240 H 0.0008 0.63186 0.70037 0.0
H241 H 0.03863 0.76454 0.82616 0.0
H242 H 0.85159 0.58506 0.70316 0.0
H243 H 0.89027 0.72396 0.82761 0.0
H244 H 0.61421 0.58735 0.84498 0.0
H245 H 0.75706 0.60982 0.84178 0.0
H246 H 0.75112 0.62142 0.6954 0.0
H247 H 0.60817 0.59274 0.69883 0.0
C248 C 0.97739 0.65429 0.72745 0.0
C249 C 0.03059 0.70302 0.76255 0.0
C250 C 0.89173 0.62689 0.72942 0.0
C251 C 0.8582 0.64969 0.766 0.0
C252 C 0.91313 0.7029 0.79969 0.0
C253 C -0.0016 0.72819 0.79835 0.0
C254 C 0.64271 0.59129 0.81227 0.0
C255 C 0.6011 0.58968 0.77222 0.0
C256 C 0.72508 0.60603 0.81032 0.0
C257 C 0.76686 0.62019 0.76834 0.0
C258 C 0.72171 0.6109 0.72836 0.0
C259 C 0.63954 0.59482 0.73031 0.0
H260 H 0.3537 0.00354 0.19977 0.0
H261 H 0.26203 0.03666 0.32797 0.0
H262 H 0.25168 0.85502 0.20175 0.0
H263 H 0.15445 0.88903 0.32871 0.0
H264 H 0.01631 0.61375 0.34375 0.0
H265 H 0.13559 0.75656 0.34097 0.0
H266 H 0.1152 0.75376 0.19477 0.0
H267 H 0.00234 0.61085 0.1977 0.0
C268 C 0.30858 0.97927 0.22728 0.0
C269 C 0.31393 0.03102 0.26323 0.0
C270 C 0.25046 0.89394 0.22876 0.0
C271 C 0.19507 0.85918 0.26576 0.0
C272 C 0.1976 0.91271 0.3004 0.0
C273 C 0.25748 -0.00237 0.29949 0.0
C274 C 0.04005 0.64295 0.31112 0.0
C275 C -0.0004 0.60201 0.27103 0.0
C276 C 0.10704 0.72538 0.30943 0.0
C277 C 0.1336 0.76804 0.26768 0.0
C278 C 0.09727 0.72377 0.22757 0.0
C279 C 0.03192 0.64153 0.22925 0.0
H280 H 0.27668 0.314 0.84654 0.0
H281 H 0.24143 0.28928 0.70146 0.0
H282 H 0.30992 0.20437 0.84745 0.0
H283 H 0.26628 0.17126 0.70279 0.0
H284 H 0.41015 0.03308 0.70811 0.0
H285 H 0.37462 0.14363 0.70824 0.0
H286 H 0.27462 0.07059 0.84405 0.0
H287 H 0.31843 0.9671 0.84467 0.0
C288 C 0.27332 0.283 0.8148 0.0
C289 C 0.25814 0.31162 0.77372 0.0
C290 C 0.29179 0.21895 0.8154 0.0
C291 C 0.29244 0.17901 0.7751 0.0
C292 C 0.26936 0.20236 0.73437 0.0
C293 C 0.25305 0.2687 0.73362 0.0
C294 C 0.38363 0.04365 0.73847 0.0
C295 C 0.36846 -0.00662 0.77685 0.0
C296 C 0.36112 0.10537 0.73824 0.0
C297 C 0.32018 0.11587 0.77585 0.0
C298 C 0.30737 0.06636 0.81464 0.0
C299 C 0.33273 0.00694 0.81533 0.0
H300 H 0.35778 0.39081 0.345 0.0
H301 H 0.36389 0.38562 0.19885 0.0
H302 H 0.21494 0.36837 0.3418 0.0
H303 H 0.22095 0.35696 0.19542 0.0
H304 H 0.97128 0.34652 0.2004 0.0
H305 H 0.12048 0.39332 0.2032 0.0
H306 H 0.08174 0.25425 0.32758 0.0
H307 H 0.93338 0.21367 0.32612 0.0
C308 C 0.3293 0.38692 0.31229 0.0
C309 C 0.37093 0.38858 0.27224 0.0
C310 C 0.24693 0.37219 0.31034 0.0
C311 C 0.20518 0.35809 0.26836 0.0
C312 C 0.25034 0.36743 0.22837 0.0
C313 C 0.33251 0.3835 0.23032 0.0
C314 C -0.00533 0.32406 0.22747 0.0
C315 C 0.94145 0.27527 0.26255 0.0
C316 C 0.08033 0.35145 0.22944 0.0
C317 C 0.11384 0.3286 0.266 0.0
C318 C 0.05889 0.27534 0.29968 0.0
C319 C 0.97363 0.25006 0.29832 0.0
H320 H 0.96977 0.36734 0.69761 0.0
H321 H 0.95556 0.3647 0.84366 0.0
H322 H 0.85689 0.22445 0.6947 0.0
H323 H 0.83624 0.2219 0.84089 0.0
H324 H 0.70985 0.9418 0.82802 0.0
H325 H 0.81741 0.08943 0.82873 0.0
H326 H 0.72038 0.12321 0.70164 0.0
H327 H 0.61836 0.97468 0.69971 0.0
C328 C 0.94014 0.33672 0.72916 0.0
C329 C 0.9724 0.37631 0.77094 0.0
C330 C 0.87477 0.25449 0.72749 0.0
C331 C 0.83836 0.2103 0.76761 0.0
C332 C 0.86486 0.25303 0.80935 0.0
C333 C 0.93187 0.33545 0.81103 0.0
C334 C 0.71443 0.98078 0.79952 0.0
C335 C 0.65804 0.94732 0.76324 0.0
C336 C 0.7743 0.06569 0.8004 0.0
C337 C 0.77689 0.11916 0.76571 0.0
C338 C 0.72155 0.08434 0.7287 0.0
C339 C 0.66344 -0.001 0.72723 0.0
loop_
_geom_bond_atom_site_label_1
_geom_bond_atom_site_label_2
_geom_bond_distance
_geom_bond_site_symmetry_2
_ccdc_geom_bond_type
C0 O28 1.281 . S
C0 O37 1.281 . S
C1 O29 1.281 . S
C1 O47 1.281 . S
O2 Hf6 2.202 . S
O2 Hf8 2.202 . S
O2 Hf10 2.202 . S
O3 Hf6 2.202 . S
O3 Hf12 2.202 . S
O3 Hf13 2.202 . S
O4 Hf6 2.072 . S
O4 Hf10 2.072 . S
O4 Hf12 2.072 . S
O5 Hf6 2.072 . S
O5 Hf8 2.072 . S
O5 Hf13 2.072 . S
Hf6 O2 2.202 . S
Hf6 O3 2.202 . S
Hf6 O4 2.072 . S
Hf6 O5 2.072 . S
Hf6 O20 2.209 . S
Hf6 O21 2.209 . S
Hf6 O36 2.209 . S
Hf6 O37 2.209 . S
O7 Hf8 2.072 . S
O7 Hf10 2.072 . S
O7 Hf15 2.072 . S
Hf8 O2 2.202 . S
Hf8 O5 2.072 . S
Hf8 O7 2.072 . S
Hf8 O11 2.202 . S
Hf8 O27 2.209 . S
Hf8 O28 2.209 . S
Hf8 O43 2.209 . S
Hf8 O47 2.209 . S
O9 Hf10 2.202 . S
O9 Hf12 2.202 . S
O9 Hf15 2.202 . S
Hf10 O2 2.202 . S
Hf10 O4 2.072 . S
Hf10 O7 2.072 . S
Hf10 O9 2.202 . S
Hf10 O32 2.209 . S
Hf10 O33 2.209 . S
Hf10 O40 2.209 . S
Hf10 O42 2.209 . S
O11 Hf8 2.202 . S
O11 Hf13 2.202 . S
O11 Hf15 2.202 . S
Hf12 O3 2.202 . S
Hf12 O4 2.072 . S
Hf12 O9 2.202 . S
Hf12 O14 2.072 . S
Hf12 O24 2.209 . S
Hf12 O25 2.209 . S
Hf12 O45 2.209 . S
Hf12 O46 2.209 . S
Hf13 O3 2.202 . S
Hf13 O5 2.072 . S
Hf13 O11 2.202 . S
Hf13 O14 2.072 . S
Hf13 O29 2.209 . S
Hf13 O30 2.209 . S
Hf13 O39 2.209 . S
Hf13 O44 2.209 . S
O14 Hf12 2.072 . S
O14 Hf13 2.072 . S
O14 Hf15 2.072 . S
Hf15 O7 2.072 . S
Hf15 O9 2.202 . S
Hf15 O11 2.202 . S
Hf15 O14 2.072 . S
Hf15 O23 2.209 . S
Hf15 O26 2.209 . S
Hf15 O35 2.209 . S
Hf15 O38 2.209 . S
C16 O30 1.281 . S
C16 O46 1.281 . S
C17 O33 1.281 . S
C17 O43 1.281 . S
C18 O32 1.281 . S
C18 O45 1.281 . S
C19 O20 1.281 . S
C19 O42 1.281 . S
O20 Hf6 2.209 . S
O20 C19 1.281 . S
O21 Hf6 2.209 . S
O21 C22 1.281 . S
C22 O21 1.281 . S
C22 O44 1.281 . S
O23 Hf15 2.209 . S
O23 C34 1.281 . S
O24 Hf12 2.209 . S
O24 C41 1.281 . S
O25 Hf12 2.209 . S
O25 C49 1.281 . S
O26 Hf15 2.209 . S
O26 C31 1.281 . S
O27 Hf8 2.209 . S
O27 C48 1.281 . S
O28 C0 1.281 . S
O28 Hf8 2.209 . S
O29 C1 1.281 . S
O29 Hf13 2.209 . S
O30 Hf13 2.209 . S
O30 C16 1.281 . S
C31 O26 1.281 . S
C31 O40 1.281 . S
O32 Hf10 2.209 . S
O32 C18 1.281 . S
O33 Hf10 2.209 . S
O33 C17 1.281 . S
C34 O23 1.281 . S
C34 O39 1.281 . S
O35 Hf15 2.209 . S
O35 C48 1.281 . S
O36 Hf6 2.209 . S
O36 C49 1.281 . S
O37 C0 1.281 . S
O37 Hf6 2.209 . S
O38 Hf15 2.209 . S
O38 C41 1.281 . S
O39 Hf13 2.209 . S
O39 C34 1.281 . S
O40 Hf10 2.209 . S
O40 C31 1.281 . S
C41 O24 1.281 . S
C41 O38 1.281 . S
O42 Hf10 2.209 . S
O42 C19 1.281 . S
O43 Hf8 2.209 . S
O43 C17 1.281 . S
O44 Hf13 2.209 . S
O44 C22 1.281 . S
O45 Hf12 2.209 . S
O45 C18 1.281 . S
O46 Hf12 2.209 . S
O46 C16 1.281 . S
O47 C1 1.281 . S
O47 Hf8 2.209 . S
C48 O27 1.281 . S
C48 O35 1.281 . S
C49 O25 1.281 . S
C49 O36 1.281 . S
C50 O78 1.281 . S
C50 O87 1.281 . S
C51 O79 1.281 . S
C51 O97 1.281 . S
O52 Hf56 2.202 . S
O52 Hf58 2.202 . S
O52 Hf60 2.202 . S
O53 Hf56 2.202 . S
O53 Hf62 2.202 . S
O53 Hf63 2.202 . S
O54 Hf56 2.072 . S
O54 Hf60 2.072 . S
O54 Hf62 2.072 . S
O55 Hf56 2.072 . S
O55 Hf58 2.072 . S
O55 Hf63 2.072 . S
Hf56 O52 2.202 . S
Hf56 O53 2.202 . S
Hf56 O54 2.072 . S
Hf56 O55 2.072 . S
Hf56 O70 2.209 . S
Hf56 O71 2.209 . S
Hf56 O86 2.209 . S
Hf56 O87 2.209 . S
O57 Hf58 2.072 . S
O57 Hf60 2.072 . S
O57 Hf65 2.072 . S
Hf58 O52 2.202 . S
Hf58 O55 2.072 . S
Hf58 O57 2.072 . S
Hf58 O61 2.202 . S
Hf58 O77 2.209 . S
Hf58 O78 2.209 . S
Hf58 O93 2.209 . S
Hf58 O97 2.209 . S
O59 Hf60 2.202 . S
O59 Hf62 2.202 . S
O59 Hf65 2.202 . S
Hf60 O52 2.202 . S
Hf60 O54 2.072 . S
Hf60 O57 2.072 . S
Hf60 O59 2.202 . S
Hf60 O82 2.209 . S
Hf60 O83 2.209 . S
Hf60 O90 2.209 . S
Hf60 O92 2.209 . S
O61 Hf58 2.202 . S
O61 Hf63 2.202 . S
O61 Hf65 2.202 . S
Hf62 O53 2.202 . S
Hf62 O54 2.072 . S
Hf62 O59 2.202 . S
Hf62 O64 2.072 . S
Hf62 O74 2.209 . S
Hf62 O75 2.209 . S
Hf62 O95 2.209 . S
Hf62 O96 2.209 . S
Hf63 O53 2.202 . S
Hf63 O55 2.072 . S
Hf63 O61 2.202 . S
Hf63 O64 2.072 . S
Hf63 O79 2.209 . S
Hf63 O80 2.209 . S
Hf63 O89 2.209 . S
Hf63 O94 2.209 . S
O64 Hf62 2.072 . S
O64 Hf63 2.072 . S
O64 Hf65 2.072 . S
Hf65 O57 2.072 . S
Hf65 O59 2.202 . S
Hf65 O61 2.202 . S
Hf65 O64 2.072 . S
Hf65 O73 2.209 . S
Hf65 O76 2.209 . S
Hf65 O85 2.209 . S
Hf65 O88 2.209 . S
C66 O80 1.281 . S
C66 O96 1.281 . S
C67 O83 1.281 . S
C67 O93 1.281 . S
C68 O82 1.281 . S
C68 O95 1.281 . S
C69 O70 1.281 . S
C69 O92 1.281 . S
O70 Hf56 2.209 . S
O70 C69 1.281 . S
O71 Hf56 2.209 . S
O71 C72 1.281 . S
C72 O71 1.281 . S
C72 O94 1.281 . S
O73 Hf65 2.209 . S
O73 C84 1.281 . S
O74 Hf62 2.209 . S
O74 C91 1.281 . S
O75 Hf62 2.209 . S
O75 C99 1.281 . S
O76 Hf65 2.209 . S
O76 C81 1.281 . S
O77 Hf58 2.209 . S
O77 C98 1.281 . S
O78 C50 1.281 . S
O78 Hf58 2.209 . S
O79 C51 1.281 . S
O79 Hf63 2.209 . S
O80 Hf63 2.209 . S
O80 C66 1.281 . S
C81 O76 1.281 . S
C81 O90 1.281 . S
O82 Hf60 2.209 . S
O82 C68 1.281 . S
O83 Hf60 2.209 . S
O83 C67 1.281 . S
C84 O73 1.281 . S
C84 O89 1.281 . S
O85 Hf65 2.209 . S
O85 C98 1.281 . S
O86 Hf56 2.209 . S
O86 C99 1.281 . S
O87 C50 1.281 . S
O87 Hf56 2.209 . S
O88 Hf65 2.209 . S
O88 C91 1.281 . S
O89 Hf63 2.209 . S
O89 C84 1.281 . S
O90 Hf60 2.209 . S
O90 C81 1.281 . S
C91 O74 1.281 . S
C91 O88 1.281 . S
O92 Hf60 2.209 . S
O92 C69 1.281 . S
O93 Hf58 2.209 . S
O93 C67 1.281 . S
O94 Hf63 2.209 . S
O94 C72 1.281 . S
O95 Hf62 2.209 . S
O95 C68 1.281 . S
O96 Hf62 2.209 . S
O96 C66 1.281 . S
O97 C51 1.281 . S
O97 Hf58 2.209 . S
C98 O77 1.281 . S
C98 O85 1.281 . S
C99 O75 1.281 . S
C99 O86 1.281 . S
H100 C108 0.950 . S
H101 C113 0.950 . S
H102 C110 0.950 . S
H103 C112 0.950 . S
H104 C114 0.950 . S
H105 C116 0.950 . S
H106 C118 0.950 . S
H107 C119 0.950 . S
C108 H100 0.950 . S
C108 C109 1.386 . S
C108 C110 1.391 . S
C109 C108 1.386 . S
C109 C113 1.393 . S
C110 H102 0.950 . S
C110 C108 1.391 . S
C110 C111 1.400 . S
C111 C110 1.400 . S
C111 C112 1.398 . S
C111 C117 1.491 1_556 S
C112 H103 0.950 . S
C112 C111 1.398 . S
C112 C113 1.391 . S
C113 H101 0.950 . S
C113 C109 1.393 . S
C113 C112 1.391 . S
C114 H104 0.950 . S
C114 C115 1.386 . S
C114 C116 1.391 1_545 S
C115 C114 1.386 . S
C115 C119 1.393 . S
C116 H105 0.950 . S
C116 C114 1.391 1_565 S
C116 C117 1.400 . S
C117 C111 1.491 1_554 S
C117 C116 1.400 . S
C117 C118 1.398 1_565 S
C118 H106 0.950 . S
C118 C117 1.398 1_545 S
C118 C119 1.391 . S
C119 H107 0.950 . S
C119 C115 1.393 . S
C119 C118 1.391 . S
H120 C128 0.950 . S
H121 C133 0.950 . S
H122 C130 0.950 . S
H123 C132 0.950 . S
H124 C134 0.950 . S
H125 C136 0.950 . S
H126 C138 0.950 . S
H127 C139 0.950 . S
C128 H120 0.950 . S
C128 C129 1.386 . S
C128 C130 1.391 . S
C129 C128 1.386 . S
C129 C133 1.393 . S
C130 H122 0.950 . S
C130 C128 1.391 . S
C130 C131 1.400 . S
C131 C130 1.400 . S
C131 C132 1.398 . S
C131 C137 1.491 . S
C132 H123 0.950 . S
C132 C131 1.398 . S
C132 C133 1.391 . S
C133 H121 0.950 . S
C133 C129 1.393 . S
C133 C132 1.391 . S
C134 H124 0.950 . S
C134 C135 1.386 . S
C134 C136 1.391 . S
C135 C134 1.386 . S
C135 C139 1.393 . S
C136 H125 0.950 . S
C136 C134 1.391 . S
C136 C137 1.400 . S
C137 C131 1.491 . S
C137 C136 1.400 . S
C137 C138 1.398 . S
C138 H126 0.950 . S
C138 C137 1.398 . S
C138 C139 1.391 . S
C139 H127 0.950 . S
C139 C135 1.393 . S
C139 C138 1.391 . S
H140 C148 0.950 . S
H141 C153 0.950 . S
H142 C150 0.950 1_556 S
H143 C152 0.950 . S
H144 C154 0.950 . S
H145 C156 0.950 1_554 S
H146 C158 0.950 . S
H147 C159 0.950 . S
C148 H140 0.950 . S
C148 C149 1.386 . S
C148 C150 1.391 . S
C149 C148 1.386 . S
C149 C153 1.393 . S
C150 H142 0.950 1_554 S
C150 C148 1.391 . S
C150 C151 1.400 1_655 S
C151 C150 1.400 1_455 S
C151 C152 1.398 . S
C151 C157 1.491 1_554 S
C152 H143 0.950 . S
C152 C151 1.398 . S
C152 C153 1.391 1_455 S
C153 H141 0.950 . S
C153 C149 1.393 . S
C153 C152 1.391 1_655 S
C154 H144 0.950 . S
C154 C155 1.386 . S
C154 C156 1.391 . S
C155 C154 1.386 . S
C155 C159 1.393 . S
C156 H145 0.950 1_556 S
C156 C154 1.391 . S
C156 C157 1.400 . S
C157 C151 1.491 1_556 S
C157 C156 1.400 . S
C157 C158 1.398 . S
C158 H146 0.950 . S
C158 C157 1.398 . S
C158 C159 1.391 . S
C159 H147 0.950 . S
C159 C155 1.393 . S
C159 C158 1.391 . S
H160 C168 0.950 . S
H161 C173 0.950 . S
H162 C170 0.950 . S
H163 C172 0.950 . S
H164 C174 0.950 . S
H165 C176 0.950 . S
H166 C178 0.950 . S
H167 C179 0.950 . S
C168 H160 0.950 . S
C168 C169 1.386 . S
C168 C170 1.391 . S
C169 C168 1.386 . S
C169 C173 1.393 . S
C170 H162 0.950 . S
C170 C168 1.391 . S
C170 C171 1.400 1_565 S
C171 C170 1.400 1_545 S
C171 C172 1.398 . S
C171 C177 1.491 . S
C172 H163 0.950 . S
C172 C171 1.398 . S
C172 C173 1.391 1_545 S
C173 H161 0.950 . S
C173 C169 1.393 . S
C173 C172 1.391 1_565 S
C174 H164 0.950 . S
C174 C175 1.386 . S
C174 C176 1.391 . S
C175 C174 1.386 . S
C175 C179 1.393 . S
C176 H165 0.950 . S
C176 C174 1.391 . S
C176 C177 1.400 . S
C177 C171 1.491 . S
C177 C176 1.400 . S
C177 C178 1.398 . S
C178 H166 0.950 . S
C178 C177 1.398 . S
C178 C179 1.391 . S
C179 H167 0.950 . S
C179 C175 1.393 . S
C179 C178 1.391 . S
H180 C188 0.950 . S
H181 C193 0.950 . S
H182 C190 0.950 . S
H183 C192 0.950 1_556 S
H184 C194 0.950 . S
H185 C196 0.950 . S
H186 C198 0.950 1_554 S
H187 C199 0.950 . S
C188 H180 0.950 . S
C188 C189 1.386 . S
C188 C190 1.391 . S
C189 C188 1.386 . S
C189 C193 1.393 . S
C190 H182 0.950 . S
C190 C188 1.391 . S
C190 C191 1.400 . S
C191 C190 1.400 . S
C191 C192 1.398 . S
C191 C197 1.491 1_554 S
C192 H183 0.950 1_554 S
C192 C191 1.398 . S
C192 C193 1.391 . S
C193 H181 0.950 . S
C193 C189 1.393 . S
C193 C192 1.391 . S
C194 H184 0.950 . S
C194 C195 1.386 . S
C194 C196 1.391 . S
C195 C194 1.386 . S
C195 C199 1.393 . S
C196 H185 0.950 . S
C196 C194 1.391 . S
C196 C197 1.400 . S
C197 C191 1.491 1_556 S
C197 C196 1.400 . S
C197 C198 1.398 . S
C198 H186 0.950 1_556 S
C198 C197 1.398 . S
C198 C199 1.391 . S
C199 H187 0.950 . S
C199 C195 1.393 . S
C199 C198 1.391 . S
H200 C208 0.950 . S
H201 C213 0.950 . S
H202 C210 0.950 . S
H203 C212 0.950 . S
H204 C214 0.950 . S
H205 C216 0.950 . S
H206 C218 0.950 . S
H207 C219 0.950 . S
C208 H200 0.950 . S
C208 C209 1.386 . S
C208 C210 1.391 . S
C209 C208 1.386 . S
C209 C213 1.393 . S
C210 H202 0.950 . S
C210 C208 1.391 . S
C210 C211 1.400 . S
C211 C210 1.400 . S
C211 C212 1.398 . S
C211 C217 1.491 . S
C212 H203 0.950 . S
C212 C211 1.398 . S
C212 C213 1.391 . S
C213 H201 0.950 . S
C213 C209 1.393 . S
C213 C212 1.391 . S
C214 H204 0.950 . S
C214 C215 1.386 . S
C214 C216 1.391 1_455 S
C215 C214 1.386 . S
C215 C219 1.393 . S
C216 H205 0.950 . S
C216 C214 1.391 1_655 S
C216 C217 1.400 . S
C217 C211 1.491 . S
C217 C216 1.400 . S
C217 C218 1.398 1_655 S
C218 H206 0.950 . S
C218 C217 1.398 1_455 S
C218 C219 1.391 . S
C219 H207 0.950 . S
C219 C215 1.393 . S
C219 C218 1.391 . S
H220 C228 0.950 . S
H221 C233 0.950 . S
H222 C230 0.950 . S
H223 C232 0.950 . S
H224 C234 0.950 . S
H225 C236 0.950 . S
H226 C238 0.950 . S
H227 C239 0.950 . S
C228 H220 0.950 . S
C228 C229 1.386 1_565 S
C228 C230 1.391 . S
C229 C228 1.386 1_545 S
C229 C233 1.393 . S
C230 H222 0.950 . S
C230 C228 1.391 . S
C230 C231 1.400 . S
C231 C230 1.400 . S
C231 C232 1.398 . S
C231 C237 1.491 . S
C232 H223 0.950 . S
C232 C231 1.398 . S
C232 C233 1.391 1_565 S
C233 H221 0.950 . S
C233 C229 1.393 . S
C233 C232 1.391 1_545 S
C234 H224 0.950 . S
C234 C235 1.386 . S
C234 C236 1.391 . S
C235 C234 1.386 . S
C235 C239 1.393 . S
C236 H225 0.950 . S
C236 C234 1.391 . S
C236 C237 1.400 . S
C237 C231 1.491 . S
C237 C236 1.400 . S
C237 C238 1.398 . S
C238 H226 0.950 . S
C238 C237 1.398 . S
C238 C239 1.391 . S
C239 H227 0.950 . S
C239 C235 1.393 . S
C239 C238 1.391 . S
H240 C248 0.950 . S
H241 C253 0.950 . S
H242 C250 0.950 . S
H243 C252 0.950 . S
H244 C254 0.950 . S
H245 C256 0.950 . S
H246 C258 0.950 . S
H247 C259 0.950 . S
C248 H240 0.950 . S
C248 C249 1.386 1_655 S
C248 C250 1.391 . S
C249 C248 1.386 1_455 S
C249 C253 1.393 . S
C250 H242 0.950 . S
C250 C248 1.391 . S
C250 C251 1.400 . S
C251 C250 1.400 . S
C251 C252 1.398 . S
C251 C257 1.491 . S
C252 H243 0.950 . S
C252 C251 1.398 . S
C252 C253 1.391 1_655 S
C253 H241 0.950 . S
C253 C249 1.393 . S
C253 C252 1.391 1_455 S
C254 H244 0.950 . S
C254 C255 1.386 . S
C254 C256 1.391 . S
C255 C254 1.386 . S
C255 C259 1.393 . S
C256 H245 0.950 . S
C256 C254 1.391 . S
C256 C257 1.400 . S
C257 C251 1.491 . S
C257 C256 1.400 . S
C257 C258 1.398 . S
C258 H246 0.950 . S
C258 C257 1.398 . S
C258 C259 1.391 . S
C259 H247 0.950 . S
C259 C255 1.393 . S
C259 C258 1.391 . S
H260 C268 0.950 . S
H261 C273 0.950 . S
H262 C270 0.950 . S
H263 C272 0.950 . S
H264 C274 0.950 . S
H265 C276 0.950 . S
H266 C278 0.950 . S
H267 C279 0.950 . S
C268 H260 0.950 . S
C268 C269 1.386 1_565 S
C268 C270 1.391 . S
C269 C268 1.386 1_545 S
C269 C273 1.393 . S
C270 H262 0.950 . S
C270 C268 1.391 . S
C270 C271 1.400 . S
C271 C270 1.400 . S
C271 C272 1.398 . S
C271 C277 1.491 . S
C272 H263 0.950 . S
C272 C271 1.398 . S
C272 C273 1.391 1_565 S
C273 H261 0.950 . S
C273 C269 1.393 . S
C273 C272 1.391 1_545 S
C274 H264 0.950 . S
C274 C275 1.386 . S
C274 C276 1.391 1_655 S
C275 C274 1.386 . S
C275 C279 1.393 1_655 S
C276 H265 0.950 . S
C276 C274 1.391 1_455 S
C276 C277 1.400 . S
C277 C271 1.491 . S
C277 C276 1.400 . S
C277 C278 1.398 . S
C278 H266 0.950 . S
C278 C277 1.398 . S
C278 C279 1.391 . S
C279 H267 0.950 . S
C279 C275 1.393 1_455 S
C279 C278 1.391 . S
H280 C288 0.950 . S
H281 C293 0.950 . S
H282 C290 0.950 . S
H283 C292 0.950 . S
H284 C294 0.950 1_565 S
H285 C296 0.950 . S
H286 C298 0.950 . S
H287 C299 0.950 . S
C288 H280 0.950 . S
C288 C289 1.386 . S
C288 C290 1.391 . S
C289 C288 1.386 . S
C289 C293 1.393 . S
C290 H282 0.950 . S
C290 C288 1.391 . S
C290 C291 1.400 . S
C291 C290 1.400 . S
C291 C292 1.398 . S
C291 C297 1.491 . S
C292 H283 0.950 . S
C292 C291 1.398 . S
C292 C293 1.391 . S
C293 H281 0.950 . S
C293 C289 1.393 . S
C293 C292 1.391 . S
C294 H284 0.950 1_545 S
C294 C295 1.386 1_545 S
C294 C296 1.391 . S
C295 C294 1.386 1_565 S
C295 C299 1.393 1_565 S
C296 H285 0.950 . S
C296 C294 1.391 . S
C296 C297 1.400 . S
C297 C291 1.491 . S
C297 C296 1.400 . S
C297 C298 1.398 . S
C298 H286 0.950 . S
C298 C297 1.398 . S
C298 C299 1.391 . S
C299 H287 0.950 . S
C299 C295 1.393 1_545 S
C299 C298 1.391 . S
H300 C308 0.950 . S
H301 C313 0.950 . S
H302 C310 0.950 . S
H303 C312 0.950 . S
H304 C314 0.950 . S
H305 C316 0.950 . S
H306 C318 0.950 . S
H307 C319 0.950 . S
C308 H300 0.950 . S
C308 C309 1.386 . S
C308 C310 1.391 . S
C309 C308 1.386 . S
C309 C313 1.393 . S
C310 H302 0.950 . S
C310 C308 1.391 . S
C310 C311 1.400 . S
C311 C310 1.400 . S
C311 C312 1.398 . S
C311 C317 1.491 . S
C312 H303 0.950 . S
C312 C311 1.398 . S
C312 C313 1.391 . S
C313 H301 0.950 . S
C313 C309 1.393 . S
C313 C312 1.391 . S
C314 H304 0.950 . S
C314 C315 1.386 1_455 S
C314 C316 1.391 . S
C315 C314 1.386 1_655 S
C315 C319 1.393 . S
C316 H305 0.950 . S
C316 C314 1.391 . S
C316 C317 1.400 . S
C317 C311 1.491 . S
C317 C316 1.400 . S
C317 C318 1.398 . S
C318 H306 0.950 . S
C318 C317 1.398 . S
C318 C319 1.391 1_455 S
C319 H307 0.950 . S
C319 C315 1.393 . S
C319 C318 1.391 1_655 S
H320 C328 0.950 . S
H321 C333 0.950 . S
H322 C330 0.950 . S
H323 C332 0.950 . S
H324 C334 0.950 . S
H325 C336 0.950 . S
H326 C338 0.950 . S
H327 C339 0.950 . S
C328 H320 0.950 . S
C328 C329 1.386 1_655 S
C328 C330 1.391 . S
C329 C328 1.386 1_455 S
C329 C333 1.393 . S
C330 H322 0.950 . S
C330 C328 1.391 . S
C330 C331 1.400 . S
C331 C330 1.400 . S
C331 C332 1.398 . S
C331 C337 1.491 . S
C332 H323 0.950 . S
C332 C331 1.398 . S
C332 C333 1.391 1_655 S
C333 H321 0.950 . S
C333 C329 1.393 . S
C333 C332 1.391 1_455 S
C334 H324 0.950 . S
C334 C335 1.386 . S
C334 C336 1.391 1_565 S
C335 C334 1.386 . S
C335 C339 1.393 1_565 S
C336 H325 0.950 . S
C336 C334 1.391 1_545 S
C336 C337 1.400 . S
C337 C331 1.491 . S
C337 C336 1.400 . S
C337 C338 1.398 . S
C338 H326 0.950 . S
C338 C337 1.398 . S
C338 C339 1.391 . S
C339 H327 0.950 . S
C339 C335 1.393 1_545 S
C339 C338 1.391 . S
C109 C51 1.717 . S
C115 C16 1.816 . S
C129 C68 1.817 . S
C135 C31 1.716 . S
C149 C22 1.817 . S
C155 C72 1.712 . S
C169 C81 1.815 . S
C175 C48 1.716 . S
C189 C49 1.812 . S
C195 C50 1.698 . S
C209 C17 1.712 . S
C215 C91 1.817 . S
C229 C34 1.143 . S
C235 C19 1.146 . S
C249 C84 1.145 . S
C255 C69 1.142 . S
C269 C41 1.142 . S
C275 C0 1.136 . S
C289 C99 1.149 . S
C295 C98 1.146 . S
C309 C18 1.144 . S
C315 C1 1.149 . S
C329 C66 1.130 . S
C335 C67 1.138 . S
