# Generated by pormake.
# Topology vby, (6)-cn, num edge types: 1
# Building blocks:
#     Node 0, Type 0, BuildingBlock: HISSIN_clean_sbu_0, # of connection points: 6
#     Node 1, Type 0, BuildingBlock: HISSIN_clean_sbu_0, # of connection points: 6
#     Node 2, Type 0, BuildingBlock: HISSIN_clean_sbu_0, # of connection points: 6
#     Node 3, Type 0, BuildingBlock: HISSIN_clean_sbu_0, # of connection points: 6
#     Node 4, Type 0, BuildingBlock: HISSIN_clean_sbu_0, # of connection points: 6
#     Node 5, Type 0, BuildingBlock: HISSIN_clean_sbu_0, # of connection points: 6
#     Node 6, Type 0, BuildingBlock: HISSIN_clean_sbu_0, # of connection points: 6
#     Node 7, Type 0, BuildingBlock: HISSIN_clean_sbu_0, # of connection points: 6
#     Edge 8, Type (0, 0), BuildingBlock: CIFDUS_clean_linker_0, # of connection points: 2
#     Edge 9, Type (0, 0), BuildingBlock: CIFDUS_clean_linker_0, # of connection points: 2
#     Edge 10, Type (0, 0), BuildingBlock: CIFDUS_clean_linker_0, # of connection points: 2
#     Edge 11, Type (0, 0), BuildingBlock: CIFDUS_clean_linker_0, # of connection points: 2
#     Edge 12, Type (0, 0), BuildingBlock: CIFDUS_clean_linker_0, # of connection points: 2
#     Edge 13, Type (0, 0), BuildingBlock: CIFDUS_clean_linker_0, # of connection points: 2
#     Edge 14, Type (0, 0), BuildingBlock: CIFDUS_clean_linker_0, # of connection points: 2
#     Edge 15, Type (0, 0), BuildingBlock: CIFDUS_clean_linker_0, # of connection points: 2
#     Edge 16, Type (0, 0), BuildingBlock: CIFDUS_clean_linker_0, # of connection points: 2
#     Edge 17, Type (0, 0), BuildingBlock: CIFDUS_clean_linker_0, # of connection points: 2
#     Edge 18, Type (0, 0), BuildingBlock: CIFDUS_clean_linker_0, # of connection points: 2
#     Edge 19, Type (0, 0), BuildingBlock: CIFDUS_clean_linker_0, # of connection points: 2
#     Edge 20, Type (0, 0), BuildingBlock: CIFDUS_clean_linker_0, # of connection points: 2
#     Edge 21, Type (0, 0), BuildingBlock: CIFDUS_clean_linker_0, # of connection points: 2
#     Edge 22, Type (0, 0), BuildingBlock: CIFDUS_clean_linker_0, # of connection points: 2
#     Edge 23, Type (0, 0), BuildingBlock: CIFDUS_clean_linker_0, # of connection points: 2
#     Edge 24, Type (0, 0), BuildingBlock: CIFDUS_clean_linker_0, # of connection points: 2
#     Edge 25, Type (0, 0), BuildingBlock: CIFDUS_clean_linker_0, # of connection points: 2
#     Edge 26, Type (0, 0), BuildingBlock: CIFDUS_clean_linker_0, # of connection points: 2
#     Edge 27, Type (0, 0), BuildingBlock: CIFDUS_clean_linker_0, # of connection points: 2
#     Edge 28, Type (0, 0), BuildingBlock: CIFDUS_clean_linker_0, # of connection points: 2
#     Edge 29, Type (0, 0), BuildingBlock: CIFDUS_clean_linker_0, # of connection points: 2
#     Edge 30, Type (0, 0), BuildingBlock: CIFDUS_clean_linker_0, # of connection points: 2
#     Edge 31, Type (0, 0), BuildingBlock: CIFDUS_clean_linker_0, # of connection points: 2
# Relax obj value: 0.200
# Max RMSD: 0.221
# Mean RMSD: 0.221
data_MOF--net-vby--node1-HISSIN_clean_sbu_0--edge1-CIFDUS_clean_linker_0
_symmetry_space_group_name_H-M    P1
_symmetry_Int_Tables_number       1
_symmetry_cell_setting            triclinic
loop_
_symmetry_equiv_pos_as_xyz
'x, y, z'
_cell_length_a     13.548229
_cell_length_b     97.967317
_cell_length_c     26.427973
_cell_angle_alpha  89.636021
_cell_angle_beta   91.878977
_cell_angle_gamma 89.816418
loop_
_atom_site_label
_atom_site_type_symbol
_atom_site_fract_x
_atom_site_fract_y
_atom_site_fract_z
_atom_type_partial_charge
Eu0 Eu 0.08258 0.36393 0.00648 0.0
Eu1 Eu 0.10719 0.3978 0.02088 0.0
C2 C 0.07564 0.38453 0.91174 0.0
C3 C 0.11162 0.32392 -0.00493 0.0
C4 C 0.1652 0.32042 0.95233 0.0
C5 C 0.13434 0.30078 0.02746 0.0
C6 C 0.20261 0.30713 0.94718 0.0
C7 C 0.09745 0.314 0.03262 0.0
C8 C 0.18627 0.2971 0.98441 0.0
C9 C 0.0631 0.33736 0.00056 0.0
O10 O 0.9425 0.39421 0.02477 0.0
O11 O 0.92742 0.37208 -0.00488 0.0
C12 C 0.88854 0.38373 0.00939 0.0
O13 O 1.03205 0.36988 0.08322 0.0
O14 O 0.16939 0.41718 -0.00315 0.0
O15 O 0.08785 0.41622 0.06626 0.0
O16 O 0.13893 0.38745 0.09578 0.0
C17 C 0.08025 0.37814 0.11374 0.0
O18 O 0.24497 0.3672 0.02447 0.0
O19 O 0.25763 0.38981 0.00185 0.0
O20 O 0.05005 0.39455 0.94136 0.0
O21 O 0.08057 0.34389 0.04272 0.0
O22 O 0.05391 0.34555 0.96149 0.0
O23 O 0.11295 0.37303 0.93002 0.0
C24 C 0.10306 0.43807 0.02676 0.0
C25 C 0.13023 0.4479 0.06284 0.0
C26 C 1.0294 0.45603 0.97366 0.0
C27 C 0.10874 0.46168 0.05426 0.0
C28 C 0.05154 0.44218 0.98222 0.0
C29 C 0.0593 0.46596 0.00929 0.0
C30 C 0.13678 0.42391 0.03539 0.0
C31 C 0.2982 0.37793 0.01306 0.0
H32 H 0.17682 0.32786 0.92262 0.0
H33 H 0.122 0.29341 0.0573 0.0
H34 H 0.24204 0.30461 0.91348 0.0
H35 H 0.05608 0.31642 0.06584 0.0
H36 H 0.17017 0.44493 0.09741 0.0
H37 H 0.99144 0.45902 0.9386 0.0
H38 H 0.13118 0.46902 0.08286 0.0
H39 H 1.03025 0.43475 0.95374 0.0
Eu40 Eu 0.95411 0.61574 0.0027 0.0
Eu41 Eu 0.9779 0.65012 -0.0015 0.0
C42 C 0.97722 0.6318 0.89716 0.0
C43 C 0.97526 0.5755 0.00374 0.0
C44 C 0.94206 0.56736 0.96301 0.0
C45 C 0.06719 0.55593 0.03811 0.0
C46 C 0.97022 0.55362 0.96016 0.0
C47 C 1.03922 0.56965 0.0409 0.0
C48 C 1.03171 0.54765 -0.00181 0.0
C49 C 0.9321 0.58925 0.01115 0.0
O50 O 0.81566 0.64627 0.00894 0.0
O51 O 0.80083 0.62374 0.98513 0.0
C52 C 0.76175 0.63558 -0.00358 0.0
O53 O 0.92349 0.6244 0.07899 0.0
O54 O 1.01571 0.66945 0.9617 0.0
O55 O 0.96682 0.66938 0.03892 0.0
O56 O 1.02837 0.64246 0.07565 0.0
C57 C 0.98152 0.63325 0.1017 0.0
O58 O 0.1188 0.61936 0.01019 0.0
O59 O 0.13249 0.64227 0.98925 0.0
O60 O 0.94861 0.64329 0.91786 0.0
O61 O 0.97101 0.59695 0.04663 0.0
O62 O 0.90159 0.5963 0.9715 0.0
O63 O 0.99902 0.62078 0.9239 0.0
C64 C 0.94182 0.69015 0.99191 0.0
C65 C 0.8993 0.697 0.03252 0.0
C66 C 0.90879 0.71025 0.93891 0.0
C67 C 0.86284 0.71032 0.02655 0.0
C68 C 0.94547 0.69692 0.94491 0.0
C69 C 0.86833 0.71722 0.97988 0.0
C70 C 0.99307 0.67684 0.00062 0.0
C71 C 0.17182 0.63021 -0.00061 0.0
H72 H 0.89163 0.57149 0.93412 0.0
H73 H 0.11338 0.55167 0.06853 0.0
H74 H 0.94248 0.54761 0.92854 0.0
H75 H 0.06486 0.57552 0.07332 0.0
H76 H 0.89648 0.6922 0.06947 0.0
H77 H 0.91535 0.71528 0.90257 0.0
H78 H 0.83103 0.71528 0.05875 0.0
H79 H 0.97936 0.69207 0.91307 0.0
Eu80 Eu 0.09223 0.62233 0.49962 0.0
Eu81 Eu 0.10892 0.65673 0.50256 0.0
C82 C 0.08947 0.63903 0.6035 0.0
C83 C 0.0681 0.58122 0.50294 0.0
C84 C 0.12933 0.57278 0.53365 0.0
C85 C 0.97806 0.56103 0.4745 0.0
C86 C 0.11668 0.55861 0.53394 0.0
C87 C 0.99098 0.57522 0.4741 0.0
C88 C 1.04246 0.55249 0.50338 0.0
C89 C 0.09658 0.59567 0.49511 0.0
O90 O 0.26357 0.64952 0.48846 0.0
O91 O 0.25171 0.62733 0.51648 0.0
C92 C 0.30418 0.63783 0.50235 0.0
O93 O 0.12438 0.62976 0.42091 0.0
O94 O 0.08592 0.67619 0.54117 0.0
O95 O 0.14315 0.67593 0.46535 0.0
O96 O 0.05302 0.65092 0.42503 0.0
C97 C 0.08486 0.6406 0.39886 0.0
O98 O 0.93324 0.62923 0.49224 0.0
O99 O 0.94733 0.65229 0.51006 0.0
O100 O 0.13958 0.64875 0.58156 0.0
O101 O 0.04844 0.60335 0.46204 0.0
O102 O 0.13897 0.60259 0.5318 0.0
O103 O 0.04933 0.62896 0.57742 0.0
C104 C 0.17794 0.69575 0.5151 0.0
C105 C 0.26368 0.69878 0.48872 0.0
C106 C 0.18524 0.71833 0.55292 0.0
C107 C 0.30836 0.7116 0.49353 0.0
C108 C 0.14052 0.70554 0.54801 0.0
C109 C 0.26817 0.72166 0.52471 0.0
C110 C 0.11869 0.68342 0.50364 0.0
C111 C 0.8942 0.64131 0.50085 0.0
H112 H 0.19055 0.57706 0.55558 0.0
H113 H 0.91898 0.55672 0.45116 0.0
H114 H 0.16854 0.55242 0.55619 0.0
H115 H 0.94297 0.58142 0.44969 0.0
H116 H 0.29404 0.69149 0.46277 0.0
H117 H 0.15337 0.72573 0.57796 0.0
H118 H 0.37163 0.71382 0.47093 0.0
H119 H 0.07414 0.70349 0.56852 0.0
Eu120 Eu 0.97788 0.36686 0.50426 0.0
Eu121 Eu 0.99301 0.40098 0.51795 0.0
C122 C 1.0053 0.38084 0.61138 0.0
C123 C 0.9154 0.32722 0.49293 0.0
C124 C 0.90935 0.31854 0.5352 0.0
C125 C 0.84233 0.30924 0.44053 0.0
C126 C 0.87189 0.30534 0.53022 0.0
C127 C 0.88045 0.3225 0.44552 0.0
C128 C 0.83918 0.30039 0.48272 0.0
C129 C 0.97121 0.34016 0.49845 0.0
O130 O 0.15246 0.39387 0.52289 0.0
O131 O 0.13812 0.37165 0.49388 0.0
C132 C 0.19157 0.38224 0.50811 0.0
O133 O 0.9521 0.37655 0.42734 0.0
O134 O 1.04104 0.41919 0.55986 0.0
O135 O 0.93862 0.42113 0.495 0.0
O136 O 1.03876 0.3965 0.43899 0.0
C137 C 1.0013 0.38698 0.40936 0.0
O138 O 0.8234 0.37362 0.52173 0.0
O139 O 0.83517 0.39602 0.4965 0.0
O140 O 0.95747 0.39148 0.5928 0.0
O141 O 0.98292 0.34811 0.45928 0.0
O142 O 0.96344 0.34695 0.5404 0.0
O143 O 1.04178 0.37169 0.58135 0.0
C144 C 1.01776 0.4418 0.52316 0.0
C145 C 0.95825 0.45038 0.49201 0.0
C146 C 0.10962 0.46182 0.55192 0.0
C147 C 0.97262 0.46451 0.49166 0.0
C148 C 0.09489 0.44766 0.55243 0.0
C149 C 0.0469 0.47049 0.52258 0.0
C150 C 0.98719 0.42744 0.53126 0.0
C151 C 0.78246 0.38541 0.50929 0.0
H152 H 0.93764 0.32176 0.57204 0.0
H153 H 0.81682 0.30586 0.40344 0.0
H154 H 0.87284 0.29881 0.56346 0.0
H155 H 0.88513 0.32887 0.41206 0.0
H156 H 0.8969 0.44624 0.46976 0.0
H157 H 0.16868 0.46602 0.57558 0.0
H158 H 0.92189 0.47079 0.46909 0.0
H159 H 0.14144 0.44138 0.57728 0.0
Eu160 Eu 0.62516 0.86429 0.9757 0.0
Eu161 Eu 0.64902 0.8984 0.98095 0.0
C162 C 0.6254 0.88287 0.87721 0.0
C163 C 0.65872 0.82424 0.97766 0.0
C164 C 0.69999 0.81726 0.93703 0.0
C165 C 0.69078 0.80417 0.03096 0.0
C166 C 0.73547 0.80389 0.94314 0.0
C167 C 0.65517 0.81755 0.02483 0.0
C168 C 0.73014 0.79707 0.98999 0.0
C169 C 0.60922 0.83765 0.9687 0.0
O170 O 0.48441 0.89508 0.97056 0.0
O171 O 0.4707 0.87196 0.98747 0.0
C172 C 0.43121 0.88411 0.97933 0.0
O173 O 0.6645 0.86988 0.05663 0.0
O174 O 0.63325 0.91803 0.94207 0.0
O175 O 0.70216 0.9171 0.01746 0.0
O176 O 0.5984 0.89148 0.0571 0.0
C177 C 0.62752 0.8803 0.08098 0.0
O178 O 0.78707 0.86834 0.96501 0.0
O179 O 0.80178 0.89001 -0.0023 0.0
O180 O 0.68361 0.89108 0.90307 0.0
O181 O 0.58076 0.84465 0.00757 0.0
O182 O 0.64166 0.84549 0.93277 0.0
O183 O 0.5759 0.87337 0.90046 0.0
C184 C 0.63634 0.93887 0.98927 0.0
C185 C 0.6547 0.94517 0.0363 0.0
C186 C 0.57615 0.96067 0.95529 0.0
C187 C 0.63519 0.95911 0.04252 0.0
C188 C 0.59539 0.94675 0.94911 0.0
C189 C 0.5978 0.9671 0.00174 0.0
C190 C 0.67375 0.92491 0.9794 0.0
C191 C 0.84112 0.8786 0.98178 0.0
H192 H 0.70266 0.82201 0.89999 0.0
H193 H 0.68436 0.79922 0.06745 0.0
H194 H 0.76651 0.79884 0.91093 0.0
H195 H 0.62235 0.82251 0.05675 0.0
H196 H 0.68783 0.93948 0.06779 0.0
H197 H 0.54594 0.96646 0.92332 0.0
H198 H 0.65356 0.96374 0.0787 0.0
H199 H 0.58162 0.94228 0.91217 0.0
Eu200 Eu 0.4871 0.11746 0.00896 0.0
Eu201 Eu 0.47002 0.15165 0.0128 0.0
C202 C 0.48603 0.13567 0.90841 0.0
C203 C 0.52981 0.07705 0.00091 0.0
C204 C 0.51359 0.07071 0.95379 0.0
C205 C 0.59297 0.05546 0.03521 0.0
C206 C 0.53525 0.05683 0.94773 0.0
C207 C 0.57151 0.06932 0.04123 0.0
C208 C 0.57282 0.04895 0.98875 0.0
C209 C 0.48799 0.09074 0.01099 0.0
O210 O 0.31517 0.14411 0.02455 0.0
O211 O 0.32789 0.1226 0.99091 0.0
C212 C 0.27483 0.13279 0.00734 0.0
O213 O 0.44439 0.12398 0.08679 0.0
O214 O 0.49577 0.17177 0.97928 0.0
O215 O 0.43142 0.17016 0.05322 0.0
O216 O 0.52799 0.14406 0.0886 0.0
C217 C 0.4905 0.1336 0.11226 0.0
O218 O 0.64571 0.12425 0.01936 0.0
O219 O 0.63123 0.1474 0.00252 0.0
O220 O 0.43618 0.14498 0.93264 0.0
O221 O 0.52768 0.09824 0.04688 0.0
O222 O 0.4492 0.09798 0.97368 0.0
O223 O 0.52932 0.12538 0.93252 0.0
C224 C 0.39975 0.19089 0.00643 0.0
C225 C 0.33366 0.1958 0.04203 0.0
C226 C 0.37527 0.21197 0.95787 0.0
C227 C 0.2899 0.20869 0.03596 0.0
C228 C 0.41915 0.19906 0.96398 0.0
C229 C 0.31137 0.21705 -0.00575 0.0
C230 C 0.45887 0.17835 0.01714 0.0
C231 C 0.6847 0.13635 0.01121 0.0
H232 H 0.48003 0.07629 0.92214 0.0
H233 H 0.62333 0.04975 0.06737 0.0
H234 H 0.51803 0.05214 0.91152 0.0
H235 H 0.58361 0.07384 0.07822 0.0
H236 H 0.31838 0.18991 0.0757 0.0
H237 H 0.39258 0.21804 0.92498 0.0
H238 H 0.2423 0.21231 0.06517 0.0
H239 H 0.4708 0.19568 0.93621 0.0
Eu240 Eu 0.62679 0.11964 0.51105 0.0
Eu241 Eu 0.60184 0.15371 0.51564 0.0
C242 C 0.60702 0.13521 0.61439 0.0
C243 C 0.61732 0.07925 0.50092 0.0
C244 C 0.53052 0.07421 0.52187 0.0
C245 C 0.65327 0.05645 0.47008 0.0
C246 C 0.50629 0.06035 0.51765 0.0
C247 C 0.67733 0.07028 0.47425 0.0
C248 C 0.56858 0.05123 0.49265 0.0
C249 C 0.65419 0.09316 0.51194 0.0
O250 O 0.76491 0.14975 0.52974 0.0
O251 O 0.77805 0.12809 0.49723 0.0
C252 C 0.8182 0.13949 0.51363 0.0
O253 O 0.57285 0.1267 0.43369 0.0
O254 O 0.61548 0.17247 0.55906 0.0
O255 O 0.55629 0.17331 0.48176 0.0
O256 O 0.64025 0.14814 0.4361 0.0
C257 C 0.6026 0.13781 0.41061 0.0
O258 O 0.46283 0.12292 0.51923 0.0
O259 O 0.44695 0.14597 0.501 0.0
O260 O 0.55642 0.14468 0.58973 0.0
O261 O 0.67913 0.10103 0.47445 0.0
O262 O 0.61534 0.09992 0.54878 0.0
O263 O 0.66404 0.12685 0.5901 0.0
C264 C 0.6278 0.19394 0.51585 0.0
C265 C 0.61335 0.2015 0.4707 0.0
C266 C 0.70078 0.2141 0.5554 0.0
C267 C 0.641 0.21528 0.46823 0.0
C268 C 0.67364 0.20036 0.55781 0.0
C269 C 0.68245 0.22183 0.51106 0.0
C270 C 0.58236 0.18027 0.52199 0.0
C271 C 0.40849 0.13388 0.50954 0.0
H272 H 0.48313 0.08085 0.54301 0.0
H273 H 0.70197 0.0498 0.44979 0.0
H274 H 0.44082 0.05668 0.53576 0.0
H275 H 0.74503 0.07389 0.45809 0.0
H276 H 0.57693 0.19694 0.43788 0.0
H277 H 0.73392 0.21878 0.58885 0.0
H278 H 0.62541 0.22096 0.4336 0.0
H279 H 0.68502 0.19493 0.59336 0.0
Eu280 Eu 0.51069 0.86689 0.47536 0.0
Eu281 Eu 0.48693 0.90091 0.47826 0.0
C282 C 0.50446 0.88297 0.57909 0.0
C283 C 0.47809 0.8274 0.48763 0.0
C284 C 0.52593 0.81823 0.52136 0.0
C285 C 0.34767 0.81068 0.47343 0.0
C286 C 0.48571 0.80536 0.53071 0.0
C287 C 0.38778 0.82358 0.46423 0.0
C288 C 0.39687 0.80132 0.50622 0.0
C289 C 0.52809 0.84028 0.47424 0.0
O290 O 0.6509 0.89771 0.47134 0.0
O291 O 0.66602 0.87463 0.48909 0.0
C292 C 0.70483 0.88671 0.48075 0.0
O293 O 0.55722 0.87511 0.40045 0.0
O294 O 0.43345 0.9195 0.51454 0.0
O295 O 0.49894 0.92064 0.44066 0.0
O296 O 0.45541 0.89367 0.39839 0.0
C297 C 0.51028 0.88478 0.37507 0.0
O298 O 0.34846 0.87086 0.45872 0.0
O299 O 0.33472 0.89257 0.49047 0.0
O300 O 0.53856 0.89386 0.55629 0.0
O301 O 0.49072 0.8475 0.43651 0.0
O302 O 0.56211 0.84786 0.5113 0.0
O303 O 0.46478 0.87292 0.55304 0.0
C304 C 0.49558 0.9413 0.48861 0.0
C305 C 0.58244 0.94641 0.46793 0.0
C306 C 0.45896 0.96404 0.51985 0.0
C307 C 0.60638 0.96027 0.47249 0.0
C308 C 0.43518 0.95021 0.51533 0.0
C309 C 0.54375 0.96932 0.49757 0.0
C310 C 0.45914 0.92739 0.47726 0.0
C311 C 0.29479 0.88116 0.47408 0.0
H312 H 0.59584 0.8209 0.53972 0.0
H313 H 0.27971 0.80789 0.45347 0.0
H314 H 0.52479 0.79853 0.55682 0.0
H315 H 0.34924 0.83039 0.43782 0.0
H316 H 0.63013 0.93982 0.44676 0.0
H317 H 0.40999 0.97065 0.54018 0.0
H318 H 0.67192 0.96399 0.45458 0.0
H319 H 0.36741 0.94655 0.53128 0.0
H320 H 0.43349 0.39848 0.01188 0.0
H321 H 0.40962 0.35454 0.01263 0.0
H322 H 0.58923 0.3525 0.0102 0.0
H323 H 0.75332 0.36316 0.00818 0.0
H324 H 0.77727 0.40708 0.0107 0.0
H325 H 0.59752 0.40912 0.01141 0.0
C326 C 0.46737 0.38844 0.01139 0.0
C327 C 0.40764 0.37668 0.01227 0.0
C328 C 0.57091 0.38733 0.01054 0.0
C329 C 0.45339 0.36377 0.01212 0.0
C330 C 0.55626 0.36259 0.0106 0.0
C331 C 0.71932 0.37319 0.00861 0.0
C332 C 0.77908 0.38495 0.00912 0.0
C333 C 0.61578 0.37429 0.00979 0.0
C334 C 0.73342 0.39785 0.01036 0.0
C335 C 0.63048 0.39903 0.01072 0.0
H336 H 0.30772 0.65065 -0.00236 0.0
H337 H 0.28222 0.60672 -0.00032 0.0
H338 H 0.46169 0.60454 -0.00226 0.0
H339 H 0.62605 0.61507 -0.00416 0.0
H340 H 0.65128 0.659 -0.00355 0.0
H341 H 0.47175 0.66116 -0.00315 0.0
C342 C 0.34116 0.64057 -0.00247 0.0
C343 C 0.28107 0.62887 -0.00133 0.0
C344 C 0.44455 0.63938 -0.00314 0.0
C345 C 0.32629 0.61592 -0.00105 0.0
C346 C 0.42907 0.61466 -0.00227 0.0
C347 C 0.5924 0.62513 -0.00419 0.0
C348 C 0.65243 0.63685 -0.00407 0.0
C349 C 0.48895 0.62631 -0.00332 0.0
C350 C 0.60721 0.64979 -0.00355 0.0
C351 C 0.50439 0.65105 -0.00337 0.0
H352 H 0.75559 0.6212 0.50539 0.0
H353 H 0.7875 0.66495 0.49448 0.0
H354 H 0.60876 0.66775 0.49326 0.0
H355 H 0.4427 0.65787 0.49568 0.0
H356 H 0.41072 0.61417 0.50904 0.0
H357 H 0.58945 0.61133 0.50889 0.0
C358 C 0.72349 0.63134 0.5026 0.0
C359 C 0.78521 0.64282 0.50002 0.0
C360 C 0.62028 0.63293 0.50242 0.0
C361 C 0.74208 0.65591 0.49679 0.0
C362 C 0.63964 0.65754 0.49597 0.0
C363 C 0.47476 0.64772 0.49845 0.0
C364 C 0.41308 0.63627 0.50234 0.0
C365 C 0.57795 0.64613 0.49884 0.0
C366 C 0.45619 0.6232 0.50623 0.0
C367 C 0.55859 0.62154 0.50604 0.0
H368 H 0.64271 0.36537 0.50885 0.0
H369 H 0.6771 0.40916 0.51007 0.0
H370 H 0.49843 0.41211 0.51059 0.0
H371 H 0.33139 0.40232 0.51048 0.0
H372 H 0.29718 0.35854 0.50611 0.0
H373 H 0.47578 0.3556 0.50698 0.0
C374 C 0.61114 0.37556 0.50935 0.0
C375 C 0.67351 0.387 0.50949 0.0
C376 C 0.5079 0.37722 0.509 0.0
C377 C 0.63107 0.40014 0.50972 0.0
C378 C 0.52869 0.40186 0.51013 0.0
C379 C 0.36301 0.39214 0.50982 0.0
C380 C 0.3006 0.3807 0.50827 0.0
C381 C 0.46626 0.39048 0.50974 0.0
C382 C 0.34311 0.36757 0.50703 0.0
C383 C 0.4455 0.36585 0.50767 0.0
H384 H 0.977 0.89906 0.98792 0.0
H385 H 0.9513 0.8553 0.97517 0.0
H386 H 0.1308 0.85317 0.97387 0.0
H387 H 0.29503 0.86369 0.97566 0.0
H388 H 0.32109 0.90751 0.98541 0.0
H389 H 0.14164 0.90963 0.98841 0.0
C390 C 1.0106 0.88905 0.98512 0.0
C391 C 0.95044 0.87735 0.98185 0.0
C392 C 0.11406 0.8879 0.98365 0.0
C393 C 0.99551 0.86448 0.97764 0.0
C394 C 0.0983 0.86325 0.97694 0.0
C395 C 0.26169 0.87372 0.97856 0.0
C396 C 0.32193 0.88542 0.98042 0.0
C397 C 0.1583 0.87488 0.97979 0.0
C398 C 0.27688 0.89833 0.98372 0.0
C399 C 0.17411 0.89955 0.98558 0.0
H400 H 0.13588 0.15267 0.01849 0.0
H401 H 0.16864 0.10934 -0.00504 0.0
H402 H 0.98994 0.10653 -0.00494 0.0
H403 H 0.82352 0.11633 0.00172 0.0
H404 H 0.79094 0.15977 0.02244 0.0
H405 H 0.96967 0.16252 0.02357 0.0
C406 C 0.104 0.14261 0.01345 0.0
C407 C 0.1659 0.13126 0.0068 0.0
C408 C 1.00084 0.14105 0.01305 0.0
C409 C 0.123 0.1183 -4e-05 0.0
C410 C 1.02062 0.11666 0.00013 0.0
C411 C 0.85553 0.12639 0.00666 0.0
C412 C 0.79365 0.1378 0.01206 0.0
C413 C 0.95873 0.12795 0.00666 0.0
C414 C 0.83656 0.15079 0.01795 0.0
C415 C 0.93896 0.15239 0.01871 0.0
H416 H 0.27279 0.15432 0.51686 0.0
H417 H 0.29792 0.11062 0.50118 0.0
H418 H 0.11821 0.10856 0.5004 0.0
H419 H 0.95389 0.11912 0.50447 0.0
H420 H 0.92889 0.16273 0.52327 0.0
H421 H 0.1085 0.16483 0.52259 0.0
C422 C 0.23908 0.14434 0.51304 0.0
C423 C 0.29913 0.13265 0.50884 0.0
C424 C 0.13558 0.1432 0.5133 0.0
C425 C 0.25383 0.11979 0.50456 0.0
C426 C 0.15092 0.11861 0.50404 0.0
C427 C 0.98754 0.12911 0.50829 0.0
C428 C 0.92755 0.14076 0.51373 0.0
C429 C 0.09106 0.13023 0.50843 0.0
C430 C 0.97292 0.15358 0.51914 0.0
C431 C 0.07577 0.1548 0.51865 0.0
H432 H 0.84021 0.86627 0.47184 0.0
H433 H 0.81559 0.9099 0.49016 0.0
H434 H 0.99516 0.91197 0.49003 0.0
H435 H 0.15916 0.90146 0.48442 0.0
H436 H 0.18403 0.85794 0.46317 0.0
H437 H 1.00448 0.8558 0.46459 0.0
C438 C 0.87404 0.87624 0.47606 0.0
C439 C 0.81417 0.88791 0.48125 0.0
C440 C 0.9775 0.87739 0.47524 0.0
C441 C 0.85955 0.90074 0.48603 0.0
C442 C 0.96239 0.90194 0.486 0.0
C443 C 0.12552 0.89149 0.48016 0.0
C444 C 0.18545 0.87987 0.47384 0.0
C445 C 1.02208 0.89034 0.48056 0.0
C446 C 0.14005 0.86707 0.46794 0.0
C447 C 1.03723 0.86583 0.46889 0.0
H448 H 0.90875 0.52654 0.97217 0.0
H449 H 0.20749 0.53515 0.02403 0.0
H450 H 0.24243 0.51076 0.03086 0.0
H451 H 0.18705 0.48698 0.02491 0.0
H452 H 0.88945 0.47821 0.97226 0.0
H453 H 0.85615 0.50265 0.96157 0.0
C454 C 0.98207 0.52311 0.98412 0.0
C455 C 0.05508 0.53275 -0.00208 0.0
C456 C 1.00194 0.50902 0.98781 0.0
C457 C 0.14925 0.52803 0.01399 0.0
C458 C 0.16952 0.51405 0.0177 0.0
C459 C 0.11476 0.49042 0.01122 0.0
C460 C 1.04055 0.48077 -0.00013 0.0
C461 C 0.09608 0.50447 0.0054 0.0
C462 C 0.94799 0.4854 0.98111 0.0
C463 C 0.92877 0.49938 0.97525 0.0
H464 H 1.02095 0.48971 0.44737 0.0
H465 H 0.0868 0.4856 0.6077 0.0
H466 H 0.09042 0.51036 0.61601 0.0
H467 H 0.07044 0.53328 0.57846 0.0
H468 H 1.00384 0.53737 0.4182 0.0
H469 H 1.00116 0.51261 0.40982 0.0
C470 C 1.03555 0.4942 0.48424 0.0
C471 C 0.054 0.48568 0.52674 0.0
C472 C 1.03589 0.50851 0.48902 0.0
C473 C 0.0742 0.4918 0.57403 0.0
C474 C 0.07526 0.50601 0.57898 0.0
C475 C 0.05589 0.52878 0.5416 0.0
C476 C 1.03682 0.53729 0.49914 0.0
C477 C 0.05578 0.51447 0.5368 0.0
C478 C 1.01686 0.53117 0.45184 0.0
C479 C 1.0163 0.51697 0.44685 0.0
H480 H 0.64592 0.98694 0.9341 0.0
H481 H 0.52347 0.98117 0.08137 0.0
H482 H 0.50734 1.00588 0.09074 0.0
H483 H 0.52575 0.02911 0.05666 0.0
H484 H 0.64836 0.03487 0.90941 0.0
H485 H 0.6648 0.01017 0.90013 0.0
C486 C 0.61463 0.99106 0.96803 0.0
C487 C 0.58566 0.98216 0.0069 0.0
C488 C 0.60545 1.00529 0.97315 0.0
C489 C 0.54715 0.98775 0.05103 0.0
C490 C 0.53755 1.00189 0.05634 0.0
C491 C 0.55727 0.02499 0.02277 0.0
C492 C 0.58605 0.03389 0.98385 0.0
C493 C 0.56665 0.01076 0.0177 0.0
C494 C 0.62481 0.0283 0.93979 0.0
C495 C 0.63457 0.01416 0.93452 0.0
H496 H 0.69956 0.03021 0.50634 0.0
H497 H 0.38987 0.0386 0.4774 0.0
H498 H 0.35496 0.01414 0.4774 0.0
H499 H 0.41256 0.99035 0.48428 0.0
H500 H 0.72226 0.98197 0.51325 0.0
H501 H 0.75709 1.00642 0.51341 0.0
C502 C 0.62451 0.0267 0.49945 0.0
C503 C 0.54753 0.03629 0.49172 0.0
C504 C 0.60495 0.01261 0.49935 0.0
C505 C 0.45048 0.0315 0.48391 0.0
C506 C 0.43049 0.0175 0.48368 0.0
C507 C 0.48759 0.99386 0.49123 0.0
C508 C 0.56462 0.98427 0.49885 0.0
C509 C 0.50711 1.00796 0.49142 0.0
C510 C 0.66162 0.98906 0.50678 0.0
C511 C 0.68157 1.00307 0.50711 0.0
H512 H 0.08695 0.27366 0.00411 0.0
H513 H 0.36582 0.28835 0.95183 0.0
H514 H 0.42737 0.26488 0.94765 0.0
H515 H 0.4052 0.24028 0.96387 0.0
H516 H 0.12535 0.22576 0.01594 0.0
H517 H 0.06189 0.24909 0.01611 0.0
C518 C 0.16138 0.27174 0.99196 0.0
C519 C 0.22195 0.28279 0.97877 0.0
C520 C 0.19646 0.25825 0.99002 0.0
C521 C 0.31741 0.28006 0.96199 0.0
C522 C 0.35285 0.26664 0.95988 0.0
C523 C 0.32976 0.24217 0.97445 0.0
C524 C 0.27053 0.23121 0.99023 0.0
C525 C 0.2934 0.25565 0.97436 0.0
C526 C 0.17332 0.23396 0.00445 0.0
C527 C 0.1367 0.24731 0.00434 0.0
H528 H 0.70194 0.77614 0.92309 0.0
H529 H 0.8325 0.78523 0.07014 0.0
H530 H 0.88452 0.76145 0.08034 0.0
H531 H 0.89553 0.7381 0.04706 0.0
H532 H 0.76537 0.72904 0.89992 0.0
H533 H 0.71282 0.7528 0.88985 0.0
C534 C 0.74271 0.77298 0.95718 0.0
C535 C 0.76321 0.78255 -0.00425 0.0
C536 C 0.77293 0.75926 0.96275 0.0
C537 C 0.81457 0.77812 0.04003 0.0
C538 C 0.84487 0.76451 0.04581 0.0
C539 C 0.85472 0.74127 0.01299 0.0
C540 C 0.83453 0.73171 0.97433 0.0
C541 C 0.82438 0.75498 0.00746 0.0
C542 C 0.78305 0.73614 0.93009 0.0
C543 C 0.75249 0.74974 0.92438 0.0
H544 H 0.16543 0.74562 0.52479 0.0
H545 H 0.46238 0.72952 0.52511 0.0
H546 H 0.52806 0.75267 0.52031 0.0
H547 H 0.50087 0.77742 0.5129 0.0
H548 H 0.20403 0.79351 0.51514 0.0
H549 H 0.13883 0.77041 0.52218 0.0
C550 C 0.24466 0.74715 0.52474 0.0
C551 C 0.30875 0.73579 0.52529 0.0
C552 C 0.28198 0.7605 0.52207 0.0
C553 C 0.41115 0.73803 0.52411 0.0
C554 C 0.44884 0.75128 0.52157 0.0
C555 C 0.422 0.77592 0.51577 0.0
C556 C 0.35759 0.78725 0.51332 0.0
C557 C 0.3849 0.76259 0.52008 0.0
C558 C 0.25539 0.78502 0.51615 0.0
C559 C 0.21799 0.77179 0.52047 0.0
H560 H 0.73353 0.2851 0.54862 0.0
H561 H 0.87461 0.28272 0.40484 0.0
H562 H 0.83488 0.25847 0.39951 0.0
H563 H 0.76855 0.23748 0.43826 0.0
H564 H 0.6347 0.23998 0.58385 0.0
H565 H 0.66559 0.26447 0.58639 0.0
C566 C 0.75628 0.2793 0.51618 0.0
C567 C 0.80755 0.28583 0.47736 0.0
C568 C 0.73559 0.26526 0.51395 0.0
C569 C 0.83401 0.27811 0.43509 0.0
C570 C 0.81217 0.26416 0.43221 0.0
C571 C 0.74565 0.24341 0.47034 0.0
C572 C 0.70039 0.23684 0.51107 0.0
C573 C 0.76414 0.25757 0.47175 0.0
C574 C 0.67143 0.2447 0.55245 0.0
C575 C 0.68845 0.25874 0.5538 0.0
H576 H 0.12809 0.39716 0.18475 0.0
H577 H 0.98889 0.35788 0.16521 0.0
H578 H 0.94967 0.35734 0.25459 0.0
H579 H 0.95409 0.36802 0.33803 0.0
H580 H 0.09205 0.40741 0.35767 0.0
H581 H 0.13167 0.40793 0.26836 0.0
C582 C 0.08984 0.38844 0.20013 0.0
C583 C 0.06176 0.37757 0.16842 0.0
C584 C 0.06646 0.38825 0.25145 0.0
C585 C 1.01132 0.36639 0.18881 0.0
C586 C 0.98866 0.36608 0.2399 0.0
C587 C 0.99227 0.37677 0.3228 0.0
C588 C 1.01982 0.38765 0.35458 0.0
C589 C 1.01542 0.37698 0.27149 0.0
C590 C 0.06977 0.39887 0.33413 0.0
C591 C 0.09279 0.39918 0.28304 0.0
H592 H 1.03716 0.65363 0.16547 0.0
H593 H 0.96251 0.61086 0.16204 0.0
H594 H 0.99398 0.60912 0.25344 0.0
H595 H 1.04108 0.61984 0.33475 0.0
H596 H 0.1023 0.66298 0.33898 0.0
H597 H 0.07858 0.6645 0.24697 0.0
C598 C 1.02793 0.64394 0.1848 0.0
C599 C 0.99779 0.6324 0.15714 0.0
C600 C 1.04414 0.64307 0.23747 0.0
C601 C 0.98507 0.61992 0.18263 0.0
C602 C 1.00347 0.6189 0.23483 0.0
C603 C 0.04995 0.62952 0.31532 0.0
C604 C 0.07415 0.64125 0.34326 0.0
C605 C 1.03299 0.6304 0.26266 0.0
C606 C 0.08369 0.65382 0.31803 0.0
C607 C 0.07012 0.65469 0.26552 0.0
H608 H 1.02998 0.65237 0.83426 0.0
H609 H 0.95274 0.6097 0.83653 0.0
H610 H 0.97997 0.60814 0.7458 0.0
H611 H 1.02837 0.6188 0.66608 0.0
H612 H 0.11498 0.66116 0.66469 0.0
H613 H 0.08242 0.6629 0.7547 0.0
C614 C 1.01823 0.64278 0.81469 0.0
C615 C 0.98866 0.6312 0.84185 0.0
C616 C 1.03668 0.64186 0.76278 0.0
C617 C 0.97546 0.61876 0.81634 0.0
C618 C 0.99112 0.61785 0.76451 0.0
C619 C 1.04022 0.62841 0.68546 0.0
C620 C 0.07405 0.63982 0.65862 0.0
C621 C 1.02237 0.62931 0.7374 0.0
C622 C 0.08962 0.65217 0.68445 0.0
C623 C 0.07053 0.65321 0.73593 0.0
H624 H 0.97009 0.39962 0.68396 0.0
H625 H 0.08006 0.3587 0.6627 0.0
H626 H 0.11304 0.35633 0.75354 0.0
H627 H 0.1109 0.36583 0.83889 0.0
H628 H 1.00211 0.40682 0.86029 0.0
H629 H 0.96901 0.40919 0.76946 0.0
C630 C 1.00085 0.39017 0.69921 0.0
C631 C 1.02236 0.37936 0.66659 0.0
C632 C 1.02036 0.38889 0.75148 0.0
C633 C 0.06288 0.3672 0.68694 0.0
C634 C 0.08186 0.36583 0.73891 0.0
C635 C 0.08027 0.3753 0.82376 0.0
C636 C 0.0591 0.38611 0.85645 0.0
C637 C 0.06113 0.37661 0.7715 0.0
C638 C 1.01923 0.39831 0.83607 0.0
C639 C 1.00004 0.39969 0.78408 0.0
H640 H 0.52814 0.89774 0.14107 0.0
H641 H 0.69982 0.8605 0.1457 0.0
H642 H 0.67775 0.85859 0.23676 0.0
H643 H 0.6098 0.86743 0.31491 0.0
H644 H 0.43619 0.90449 0.31029 0.0
H645 H 0.45877 0.90647 0.21924 0.0
C646 C 0.5612 0.88923 0.16196 0.0
C647 C 0.61596 0.87931 0.13647 0.0
C648 C 0.54754 0.88812 0.21429 0.0
C649 C 0.65739 0.86829 0.16423 0.0
C650 C 0.64477 0.86718 0.21635 0.0
C651 C 0.57667 0.87594 0.29408 0.0
C652 C 0.52135 0.88579 0.31955 0.0
C653 C 0.58987 0.87702 0.24173 0.0
C654 C 0.47893 0.89673 0.29175 0.0
C655 C 0.49199 0.89789 0.23965 0.0
H656 H 0.58309 0.15137 0.17661 0.0
H657 H 0.42457 0.11319 0.17341 0.0
H658 H 0.44673 0.11103 0.26509 0.0
H659 H 0.51097 0.11993 0.34619 0.0
H660 H 0.66861 0.15819 0.34935 0.0
H661 H 0.64706 0.16029 0.25767 0.0
C662 C 0.55315 0.14258 0.1959 0.0
C663 C 0.50213 0.13248 0.16805 0.0
C664 C 0.56623 0.14137 0.24867 0.0
C665 C 0.46402 0.12115 0.19381 0.0
C666 C 0.47677 0.11988 0.24629 0.0
C667 C 0.54099 0.12871 0.32688 0.0
C668 C 0.59149 0.13886 0.35476 0.0
C669 C 0.52788 0.12992 0.2741 0.0
C670 C 0.62939 0.1502 0.32898 0.0
C671 C 0.61706 0.15143 0.27647 0.0
H672 H 0.60094 0.12048 0.8473 0.0
H673 H 0.39404 0.15414 0.84475 0.0
H674 H 0.41425 0.15702 0.75398 0.0
H675 H 0.49111 0.15015 0.67546 0.0
H676 H 0.69877 0.1166 0.67777 0.0
H677 H 0.67793 0.11359 0.76857 0.0
C678 C 0.55983 0.12841 0.82691 0.0
C679 C 0.49589 0.13705 0.85294 0.0
C680 C 0.57227 0.1301 0.77468 0.0
C681 C 0.44376 0.14732 0.82582 0.0
C682 C 0.45533 0.149 0.77384 0.0
C683 C 0.5321 0.14219 0.69576 0.0
C684 C 0.59655 0.13363 0.66973 0.0
C685 C 0.51963 0.14049 0.74794 0.0
C686 C 0.6488 0.12336 0.69677 0.0
C687 C 0.6368 0.12161 0.74873 0.0
H688 H 0.61376 0.89862 0.64479 0.0
H689 H 0.41632 0.86411 0.63885 0.0
H690 H 0.43653 0.86102 0.73017 0.0
H691 H 0.51185 0.86783 0.81167 0.0
H692 H 0.71126 0.90212 0.8178 0.0
H693 H 0.68885 0.9055 0.72662 0.0
C694 C 0.57463 0.89048 0.6635 0.0
C695 C 0.51358 0.88163 0.63491 0.0
C696 C 0.58736 0.88864 0.71611 0.0
C697 C 0.46401 0.87107 0.65981 0.0
C698 C 0.47553 0.86927 0.71211 0.0
C699 C 0.5506 0.87604 0.79311 0.0
C700 C 0.6133 0.88467 0.82165 0.0
C701 C 0.53747 0.87794 0.7406 0.0
C702 C 0.66273 0.89527 0.79685 0.0
C703 C 0.64983 0.89724 0.74464 0.0
loop_
_geom_bond_atom_site_label_1
_geom_bond_atom_site_label_2
_geom_bond_distance
_geom_bond_site_symmetry_2
_ccdc_geom_bond_type
Eu0 C9 2.828 . S
Eu0 O11 2.392 1_455 S
Eu0 O13 2.418 . S
Eu0 O18 2.373 . S
Eu0 O21 2.488 . S
Eu0 O22 2.471 1_554 S
Eu0 O23 2.349 1_554 S
Eu1 O10 2.373 1_455 S
Eu1 O14 2.488 . S
Eu1 O15 2.471 1_556 S
Eu1 O16 2.349 1_556 S
Eu1 O19 2.392 . S
Eu1 O20 2.418 . S
Eu1 C30 2.828 1_556 S
C2 O20 1.244 . S
C2 O23 1.265 . S
C3 C4 1.389 . S
C3 C7 1.365 1_556 S
C3 C9 1.504 1_556 S
C4 C3 1.389 . S
C4 C6 1.369 . S
C4 H32 0.930 . S
C5 C7 1.383 . S
C5 C8 1.382 1_554 S
C5 H33 0.930 . S
C6 C4 1.369 . S
C6 C8 1.392 . S
C6 H34 0.930 . S
C7 C3 1.365 1_554 S
C7 C5 1.383 . S
C7 H35 0.931 . S
C8 C5 1.382 1_556 S
C8 C6 1.392 . S
C9 Eu0 2.828 . S
C9 C3 1.504 1_554 S
C9 O21 1.249 . S
C9 O22 1.244 1_554 S
O10 Eu1 2.373 1_655 S
O10 C12 1.258 1_556 S
O11 Eu0 2.392 1_655 S
O11 C12 1.242 . S
C12 O10 1.258 1_554 S
C12 O11 1.242 . S
O13 Eu0 2.418 . S
O13 C17 1.244 . S
O14 Eu1 2.488 . S
O14 C30 1.249 1_556 S
O15 Eu1 2.471 1_554 S
O15 C30 1.244 . S
O16 Eu1 2.349 1_554 S
O16 C17 1.265 . S
C17 O13 1.244 . S
C17 O16 1.265 . S
O18 Eu0 2.373 . S
O18 C31 1.258 . S
O19 Eu1 2.392 . S
O19 C31 1.242 1_556 S
O20 Eu1 2.418 . S
O20 C2 1.244 . S
O21 Eu0 2.488 . S
O21 C9 1.249 . S
O22 Eu0 2.471 1_556 S
O22 C9 1.244 1_556 S
O23 Eu0 2.349 1_556 S
O23 C2 1.265 . S
C24 C25 1.379 . S
C24 C28 1.373 1_554 S
C24 C30 1.505 1_655 S
C25 C24 1.379 . S
C25 C27 1.369 . S
C25 H36 0.930 . S
C26 C28 1.383 . S
C26 C29 1.382 1_556 S
C26 H37 0.930 . S
C27 C25 1.369 . S
C27 C29 1.392 . S
C27 H38 0.930 . S
C28 C24 1.373 1_556 S
C28 C26 1.383 . S
C28 H39 0.931 . S
C29 C26 1.382 1_554 S
C29 C27 1.392 . S
C30 Eu1 2.828 1_554 S
C30 O14 1.249 1_554 S
C30 O15 1.244 . S
C30 C24 1.505 1_455 S
C31 O18 1.258 . S
C31 O19 1.242 1_554 S
H32 C4 0.930 . S
H33 C5 0.930 . S
H34 C6 0.930 . S
H35 C7 0.931 . S
H36 C25 0.930 . S
H37 C26 0.930 . S
H38 C27 0.930 . S
H39 C28 0.931 . S
Eu40 C49 2.828 . S
Eu40 O51 2.392 . S
Eu40 O53 2.418 . S
Eu40 O58 2.373 1_655 S
Eu40 O61 2.488 . S
Eu40 O62 2.471 1_554 S
Eu40 O63 2.349 1_554 S
Eu41 O50 2.373 . S
Eu41 O54 2.488 . S
Eu41 O55 2.471 1_556 S
Eu41 O56 2.349 1_556 S
Eu41 O59 2.392 1_655 S
Eu41 O60 2.418 . S
Eu41 C70 2.828 1_556 S
C42 O60 1.244 . S
C42 O63 1.265 . S
C43 C44 1.379 . S
C43 C47 1.373 1_556 S
C43 C49 1.505 1_456 S
C44 C43 1.379 . S
C44 C46 1.369 . S
C44 H72 0.930 . S
C45 C47 1.383 . S
C45 C48 1.382 1_554 S
C45 H73 0.930 . S
C46 C44 1.369 . S
C46 C48 1.392 . S
C46 H74 0.930 . S
C47 C43 1.373 1_554 S
C47 C45 1.383 . S
C47 H75 0.931 . S
C48 C45 1.382 1_556 S
C48 C46 1.392 . S
C49 Eu40 2.828 . S
C49 C43 1.505 1_654 S
C49 O61 1.249 . S
C49 O62 1.244 1_554 S
O50 Eu41 2.373 . S
O50 C52 1.258 1_556 S
O51 Eu40 2.392 . S
O51 C52 1.242 . S
C52 O50 1.258 1_554 S
C52 O51 1.242 . S
O53 Eu40 2.418 . S
O53 C57 1.244 . S
O54 Eu41 2.488 . S
O54 C70 1.249 1_556 S
O55 Eu41 2.471 1_554 S
O55 C70 1.244 . S
O56 Eu41 2.349 1_554 S
O56 C57 1.265 . S
C57 O53 1.244 . S
C57 O56 1.265 . S
O58 Eu40 2.373 1_455 S
O58 C71 1.258 . S
O59 Eu41 2.392 1_455 S
O59 C71 1.242 1_556 S
O60 Eu41 2.418 . S
O60 C42 1.244 . S
O61 Eu40 2.488 . S
O61 C49 1.249 . S
O62 Eu40 2.471 1_556 S
O62 C49 1.244 1_556 S
O63 Eu40 2.349 1_556 S
O63 C42 1.265 . S
C64 C65 1.379 . S
C64 C68 1.373 1_554 S
C64 C70 1.505 . S
C65 C64 1.379 . S
C65 C67 1.369 . S
C65 H76 0.930 . S
C66 C68 1.383 . S
C66 C69 1.382 1_556 S
C66 H77 0.930 . S
C67 C65 1.369 . S
C67 C69 1.392 . S
C67 H78 0.930 . S
C68 C64 1.373 1_556 S
C68 C66 1.383 . S
C68 H79 0.931 . S
C69 C66 1.382 1_554 S
C69 C67 1.392 . S
C70 Eu41 2.828 1_554 S
C70 O54 1.249 1_554 S
C70 O55 1.244 . S
C70 C64 1.505 . S
C71 O58 1.258 . S
C71 O59 1.242 1_554 S
H72 C44 0.930 . S
H73 C45 0.930 . S
H74 C46 0.930 . S
H75 C47 0.931 . S
H76 C65 0.930 . S
H77 C66 0.930 . S
H78 C67 0.930 . S
H79 C68 0.931 . S
Eu80 C89 2.828 . S
Eu80 O91 2.392 . S
Eu80 O93 2.418 . S
Eu80 O98 2.373 1_455 S
Eu80 O101 2.488 . S
Eu80 O102 2.471 . S
Eu80 O103 2.349 . S
Eu81 O90 2.373 . S
Eu81 O94 2.488 . S
Eu81 O95 2.471 . S
Eu81 O96 2.349 . S
Eu81 O99 2.392 1_455 S
Eu81 O100 2.418 . S
Eu81 C110 2.828 . S
C82 O100 1.244 . S
C82 O103 1.265 . S
C83 C84 1.379 . S
C83 C87 1.373 . S
C83 C89 1.505 1_655 S
C84 C83 1.379 . S
C84 C86 1.369 . S
C84 H112 0.930 . S
C85 C87 1.383 . S
C85 C88 1.382 . S
C85 H113 0.930 . S
C86 C84 1.369 . S
C86 C88 1.392 . S
C86 H114 0.930 . S
C87 C83 1.373 . S
C87 C85 1.383 . S
C87 H115 0.931 . S
C88 C85 1.382 . S
C88 C86 1.392 . S
C89 Eu80 2.828 . S
C89 C83 1.505 1_455 S
C89 O101 1.249 . S
C89 O102 1.244 . S
O90 Eu81 2.373 . S
O90 C92 1.258 . S
O91 Eu80 2.392 . S
O91 C92 1.242 . S
C92 O90 1.258 . S
C92 O91 1.242 . S
O93 Eu80 2.418 . S
O93 C97 1.244 . S
O94 Eu81 2.488 . S
O94 C110 1.249 . S
O95 Eu81 2.471 . S
O95 C110 1.244 . S
O96 Eu81 2.349 . S
O96 C97 1.265 . S
C97 O93 1.244 . S
C97 O96 1.265 . S
O98 Eu80 2.373 1_655 S
O98 C111 1.258 . S
O99 Eu81 2.392 1_655 S
O99 C111 1.242 . S
O100 Eu81 2.418 . S
O100 C82 1.244 . S
O101 Eu80 2.488 . S
O101 C89 1.249 . S
O102 Eu80 2.471 . S
O102 C89 1.244 . S
O103 Eu80 2.349 . S
O103 C82 1.265 . S
C104 C105 1.379 . S
C104 C108 1.373 . S
C104 C110 1.505 . S
C105 C104 1.379 . S
C105 C107 1.369 . S
C105 H116 0.930 . S
C106 C108 1.383 . S
C106 C109 1.382 . S
C106 H117 0.930 . S
C107 C105 1.369 . S
C107 C109 1.392 . S
C107 H118 0.930 . S
C108 C104 1.373 . S
C108 C106 1.383 . S
C108 H119 0.931 . S
C109 C106 1.382 . S
C109 C107 1.392 . S
C110 Eu81 2.828 . S
C110 O94 1.249 . S
C110 O95 1.244 . S
C110 C104 1.505 . S
C111 O98 1.258 . S
C111 O99 1.242 . S
H112 C84 0.930 . S
H113 C85 0.930 . S
H114 C86 0.930 . S
H115 C87 0.931 . S
H116 C105 0.930 . S
H117 C106 0.930 . S
H118 C107 0.930 . S
H119 C108 0.931 . S
Eu120 C129 2.828 . S
Eu120 O131 2.392 1_655 S
Eu120 O133 2.418 . S
Eu120 O138 2.373 . S
Eu120 O141 2.488 . S
Eu120 O142 2.471 . S
Eu120 O143 2.349 . S
Eu121 O130 2.373 1_655 S
Eu121 O134 2.488 . S
Eu121 O135 2.471 . S
Eu121 O136 2.349 . S
Eu121 O139 2.392 . S
Eu121 O140 2.418 . S
Eu121 C150 2.828 . S
C122 O140 1.244 . S
C122 O143 1.265 . S
C123 C124 1.379 . S
C123 C127 1.373 . S
C123 C129 1.505 . S
C124 C123 1.379 . S
C124 C126 1.369 . S
C124 H152 0.930 . S
C125 C127 1.383 . S
C125 C128 1.382 . S
C125 H153 0.930 . S
C126 C124 1.369 . S
C126 C128 1.392 . S
C126 H154 0.930 . S
C127 C123 1.373 . S
C127 C125 1.383 . S
C127 H155 0.931 . S
C128 C125 1.382 . S
C128 C126 1.392 . S
C129 Eu120 2.828 . S
C129 C123 1.505 . S
C129 O141 1.249 . S
C129 O142 1.244 . S
O130 Eu121 2.373 1_455 S
O130 C132 1.258 . S
O131 Eu120 2.392 1_455 S
O131 C132 1.242 . S
C132 O130 1.258 . S
C132 O131 1.242 . S
O133 Eu120 2.418 . S
O133 C137 1.244 . S
O134 Eu121 2.488 . S
O134 C150 1.249 . S
O135 Eu121 2.471 . S
O135 C150 1.244 . S
O136 Eu121 2.349 . S
O136 C137 1.265 . S
C137 O133 1.244 . S
C137 O136 1.265 . S
O138 Eu120 2.373 . S
O138 C151 1.258 . S
O139 Eu121 2.392 . S
O139 C151 1.242 . S
O140 Eu121 2.418 . S
O140 C122 1.244 . S
O141 Eu120 2.488 . S
O141 C129 1.249 . S
O142 Eu120 2.471 . S
O142 C129 1.244 . S
O143 Eu120 2.349 . S
O143 C122 1.265 . S
C144 C145 1.379 . S
C144 C148 1.373 . S
C144 C150 1.505 1_455 S
C145 C144 1.379 . S
C145 C147 1.369 . S
C145 H156 0.930 . S
C146 C148 1.383 . S
C146 C149 1.382 . S
C146 H157 0.930 . S
C147 C145 1.369 . S
C147 C149 1.392 . S
C147 H158 0.930 . S
C148 C144 1.373 . S
C148 C146 1.383 . S
C148 H159 0.931 . S
C149 C146 1.382 . S
C149 C147 1.392 . S
C150 Eu121 2.828 . S
C150 O134 1.249 . S
C150 O135 1.244 . S
C150 C144 1.505 1_655 S
C151 O138 1.258 . S
C151 O139 1.242 . S
H152 C124 0.930 . S
H153 C125 0.930 . S
H154 C126 0.930 . S
H155 C127 0.931 . S
H156 C145 0.930 . S
H157 C146 0.930 . S
H158 C147 0.930 . S
H159 C148 0.931 . S
Eu160 C169 2.828 . S
Eu160 O171 2.392 . S
Eu160 O173 2.418 . S
Eu160 O178 2.373 . S
Eu160 O181 2.488 . S
Eu160 O182 2.471 1_554 S
Eu160 O183 2.349 1_554 S
Eu161 O170 2.373 . S
Eu161 O174 2.488 . S
Eu161 O175 2.471 1_556 S
Eu161 O176 2.349 1_556 S
Eu161 O179 2.392 . S
Eu161 O180 2.418 . S
Eu161 C190 2.828 1_556 S
C162 O180 1.244 . S
C162 O183 1.265 . S
C163 C164 1.393 . S
C163 C167 1.362 1_556 S
C163 C169 1.503 1_556 S
C164 C163 1.393 . S
C164 C166 1.369 . S
C164 H192 0.930 . S
C165 C167 1.383 . S
C165 C168 1.382 1_554 S
C165 H193 0.930 . S
C166 C164 1.369 . S
C166 C168 1.392 . S
C166 H194 0.930 . S
C167 C163 1.362 1_554 S
C167 C165 1.383 . S
C167 H195 0.931 . S
C168 C165 1.382 1_556 S
C168 C166 1.392 . S
C169 Eu160 2.828 . S
C169 C163 1.503 1_554 S
C169 O181 1.249 . S
C169 O182 1.244 1_554 S
O170 Eu161 2.373 . S
O170 C172 1.258 1_556 S
O171 Eu160 2.392 . S
O171 C172 1.242 . S
C172 O170 1.258 1_554 S
C172 O171 1.242 . S
O173 Eu160 2.418 . S
O173 C177 1.244 . S
O174 Eu161 2.488 . S
O174 C190 1.249 1_556 S
O175 Eu161 2.471 1_554 S
O175 C190 1.244 . S
O176 Eu161 2.349 1_554 S
O176 C177 1.265 . S
C177 O173 1.244 . S
C177 O176 1.265 . S
O178 Eu160 2.373 . S
O178 C191 1.258 . S
O179 Eu161 2.392 . S
O179 C191 1.242 1_556 S
O180 Eu161 2.418 . S
O180 C162 1.244 . S
O181 Eu160 2.488 . S
O181 C169 1.249 . S
O182 Eu160 2.471 1_556 S
O182 C169 1.244 1_556 S
O183 Eu160 2.349 1_556 S
O183 C162 1.265 . S
C184 C185 1.379 . S
C184 C188 1.373 1_554 S
C184 C190 1.505 . S
C185 C184 1.379 . S
C185 C187 1.369 . S
C185 H196 0.930 . S
C186 C188 1.383 . S
C186 C189 1.382 1_556 S
C186 H197 0.930 . S
C187 C185 1.369 . S
C187 C189 1.392 . S
C187 H198 0.930 . S
C188 C184 1.373 1_556 S
C188 C186 1.383 . S
C188 H199 0.931 . S
C189 C186 1.382 1_554 S
C189 C187 1.392 . S
C190 Eu161 2.828 1_554 S
C190 O174 1.249 1_554 S
C190 O175 1.244 . S
C190 C184 1.505 . S
C191 O178 1.258 . S
C191 O179 1.242 1_554 S
H192 C164 0.930 . S
H193 C165 0.930 . S
H194 C166 0.930 . S
H195 C167 0.931 . S
H196 C185 0.930 . S
H197 C186 0.930 . S
H198 C187 0.930 . S
H199 C188 0.931 . S
Eu200 C209 2.828 . S
Eu200 O211 2.392 . S
Eu200 O213 2.418 . S
Eu200 O218 2.373 . S
Eu200 O221 2.488 . S
Eu200 O222 2.471 1_554 S
Eu200 O223 2.349 1_554 S
Eu201 O210 2.373 . S
Eu201 O214 2.488 . S
Eu201 O215 2.471 1_556 S
Eu201 O216 2.349 1_556 S
Eu201 O219 2.392 . S
Eu201 O220 2.418 . S
Eu201 C230 2.828 1_556 S
C202 O220 1.244 . S
C202 O223 1.265 . S
C203 C204 1.379 . S
C203 C207 1.373 1_556 S
C203 C209 1.505 1_556 S
C204 C203 1.379 . S
C204 C206 1.369 . S
C204 H232 0.930 . S
C205 C207 1.383 . S
C205 C208 1.382 1_554 S
C205 H233 0.930 . S
C206 C204 1.369 . S
C206 C208 1.392 . S
C206 H234 0.930 . S
C207 C203 1.373 1_554 S
C207 C205 1.383 . S
C207 H235 0.931 . S
C208 C205 1.382 1_556 S
C208 C206 1.392 . S
C209 Eu200 2.828 . S
C209 C203 1.505 1_554 S
C209 O221 1.249 . S
C209 O222 1.244 1_554 S
O210 Eu201 2.373 . S
O210 C212 1.258 1_556 S
O211 Eu200 2.392 . S
O211 C212 1.242 . S
C212 O210 1.258 1_554 S
C212 O211 1.242 . S
O213 Eu200 2.418 . S
O213 C217 1.244 . S
O214 Eu201 2.488 . S
O214 C230 1.249 1_556 S
O215 Eu201 2.471 1_554 S
O215 C230 1.244 . S
O216 Eu201 2.349 1_554 S
O216 C217 1.265 . S
C217 O213 1.244 . S
C217 O216 1.265 . S
O218 Eu200 2.373 . S
O218 C231 1.258 . S
O219 Eu201 2.392 . S
O219 C231 1.242 1_556 S
O220 Eu201 2.418 . S
O220 C202 1.244 . S
O221 Eu200 2.488 . S
O221 C209 1.249 . S
O222 Eu200 2.471 1_556 S
O222 C209 1.244 1_556 S
O223 Eu200 2.349 1_556 S
O223 C202 1.265 . S
C224 C225 1.379 . S
C224 C228 1.373 1_554 S
C224 C230 1.505 . S
C225 C224 1.379 . S
C225 C227 1.369 . S
C225 H236 0.930 . S
C226 C228 1.383 . S
C226 C229 1.382 1_556 S
C226 H237 0.930 . S
C227 C225 1.369 . S
C227 C229 1.392 . S
C227 H238 0.930 . S
C228 C224 1.373 1_556 S
C228 C226 1.383 . S
C228 H239 0.931 . S
C229 C226 1.382 1_554 S
C229 C227 1.392 . S
C230 Eu201 2.828 1_554 S
C230 O214 1.249 1_554 S
C230 O215 1.244 . S
C230 C224 1.505 . S
C231 O218 1.258 . S
C231 O219 1.242 1_554 S
H232 C204 0.930 . S
H233 C205 0.930 . S
H234 C206 0.930 . S
H235 C207 0.931 . S
H236 C225 0.930 . S
H237 C226 0.930 . S
H238 C227 0.930 . S
H239 C228 0.931 . S
Eu240 C249 2.828 . S
Eu240 O251 2.392 . S
Eu240 O253 2.418 . S
Eu240 O258 2.373 . S
Eu240 O261 2.488 . S
Eu240 O262 2.471 . S
Eu240 O263 2.349 . S
Eu241 O250 2.373 . S
Eu241 O254 2.488 . S
Eu241 O255 2.471 . S
Eu241 O256 2.349 . S
Eu241 O259 2.392 . S
Eu241 O260 2.418 . S
Eu241 C270 2.828 . S
C242 O260 1.244 . S
C242 O263 1.265 . S
C243 C244 1.379 . S
C243 C247 1.373 . S
C243 C249 1.505 . S
C244 C243 1.379 . S
C244 C246 1.369 . S
C244 H272 0.930 . S
C245 C247 1.383 . S
C245 C248 1.382 . S
C245 H273 0.930 . S
C246 C244 1.369 . S
C246 C248 1.392 . S
C246 H274 0.930 . S
C247 C243 1.373 . S
C247 C245 1.383 . S
C247 H275 0.931 . S
C248 C245 1.382 . S
C248 C246 1.392 . S
C249 Eu240 2.828 . S
C249 C243 1.505 . S
C249 O261 1.249 . S
C249 O262 1.244 . S
O250 Eu241 2.373 . S
O250 C252 1.258 . S
O251 Eu240 2.392 . S
O251 C252 1.242 . S
C252 O250 1.258 . S
C252 O251 1.242 . S
O253 Eu240 2.418 . S
O253 C257 1.244 . S
O254 Eu241 2.488 . S
O254 C270 1.249 . S
O255 Eu241 2.471 . S
O255 C270 1.244 . S
O256 Eu241 2.349 . S
O256 C257 1.265 . S
C257 O253 1.244 . S
C257 O256 1.265 . S
O258 Eu240 2.373 . S
O258 C271 1.258 . S
O259 Eu241 2.392 . S
O259 C271 1.242 . S
O260 Eu241 2.418 . S
O260 C242 1.244 . S
O261 Eu240 2.488 . S
O261 C249 1.249 . S
O262 Eu240 2.471 . S
O262 C249 1.244 . S
O263 Eu240 2.349 . S
O263 C242 1.265 . S
C264 C265 1.379 . S
C264 C268 1.373 . S
C264 C270 1.505 . S
C265 C264 1.379 . S
C265 C267 1.369 . S
C265 H276 0.930 . S
C266 C268 1.383 . S
C266 C269 1.382 . S
C266 H277 0.930 . S
C267 C265 1.369 . S
C267 C269 1.392 . S
C267 H278 0.930 . S
C268 C264 1.373 . S
C268 C266 1.383 . S
C268 H279 0.931 . S
C269 C266 1.382 . S
C269 C267 1.392 . S
C270 Eu241 2.828 . S
C270 O254 1.249 . S
C270 O255 1.244 . S
C270 C264 1.505 . S
C271 O258 1.258 . S
C271 O259 1.242 . S
H272 C244 0.930 . S
H273 C245 0.930 . S
H274 C246 0.930 . S
H275 C247 0.931 . S
H276 C265 0.930 . S
H277 C266 0.930 . S
H278 C267 0.930 . S
H279 C268 0.931 . S
Eu280 C289 2.828 . S
Eu280 O291 2.392 . S
Eu280 O293 2.418 . S
Eu280 O298 2.373 . S
Eu280 O301 2.488 . S
Eu280 O302 2.471 . S
Eu280 O303 2.349 . S
Eu281 O290 2.373 . S
Eu281 O294 2.488 . S
Eu281 O295 2.471 . S
Eu281 O296 2.349 . S
Eu281 O299 2.392 . S
Eu281 O300 2.418 . S
Eu281 C310 2.828 . S
C282 O300 1.244 . S
C282 O303 1.265 . S
C283 C284 1.379 . S
C283 C287 1.373 . S
C283 C289 1.505 . S
C284 C283 1.379 . S
C284 C286 1.369 . S
C284 H312 0.930 . S
C285 C287 1.383 . S
C285 C288 1.382 . S
C285 H313 0.930 . S
C286 C284 1.369 . S
C286 C288 1.392 . S
C286 H314 0.930 . S
C287 C283 1.373 . S
C287 C285 1.383 . S
C287 H315 0.931 . S
C288 C285 1.382 . S
C288 C286 1.392 . S
C289 Eu280 2.828 . S
C289 C283 1.505 . S
C289 O301 1.249 . S
C289 O302 1.244 . S
O290 Eu281 2.373 . S
O290 C292 1.258 . S
O291 Eu280 2.392 . S
O291 C292 1.242 . S
C292 O290 1.258 . S
C292 O291 1.242 . S
O293 Eu280 2.418 . S
O293 C297 1.244 . S
O294 Eu281 2.488 . S
O294 C310 1.249 . S
O295 Eu281 2.471 . S
O295 C310 1.244 . S
O296 Eu281 2.349 . S
O296 C297 1.265 . S
C297 O293 1.244 . S
C297 O296 1.265 . S
O298 Eu280 2.373 . S
O298 C311 1.258 . S
O299 Eu281 2.392 . S
O299 C311 1.242 . S
O300 Eu281 2.418 . S
O300 C282 1.244 . S
O301 Eu280 2.488 . S
O301 C289 1.249 . S
O302 Eu280 2.471 . S
O302 C289 1.244 . S
O303 Eu280 2.349 . S
O303 C282 1.265 . S
C304 C305 1.379 . S
C304 C308 1.373 . S
C304 C310 1.505 . S
C305 C304 1.379 . S
C305 C307 1.369 . S
C305 H316 0.930 . S
C306 C308 1.383 . S
C306 C309 1.382 . S
C306 H317 0.930 . S
C307 C305 1.369 . S
C307 C309 1.392 . S
C307 H318 0.930 . S
C308 C304 1.373 . S
C308 C306 1.383 . S
C308 H319 0.931 . S
C309 C306 1.382 . S
C309 C307 1.392 . S
C310 Eu281 2.828 . S
C310 O294 1.249 . S
C310 O295 1.244 . S
C310 C304 1.505 . S
C311 O298 1.258 . S
C311 O299 1.242 . S
H312 C284 0.930 . S
H313 C285 0.930 . S
H314 C286 0.930 . S
H315 C287 0.931 . S
H316 C305 0.930 . S
H317 C306 0.930 . S
H318 C307 0.930 . S
H319 C308 0.931 . S
H320 C326 0.930 . S
H321 C329 0.930 . S
H322 C330 0.930 . S
H323 C331 0.930 . S
H324 C334 0.930 . S
H325 C335 0.930 . S
C326 H320 0.930 . S
C326 C327 1.355 1_556 S
C326 C328 1.415 . S
C327 C326 1.355 1_554 S
C327 C329 1.419 . S
C328 C326 1.415 . S
C328 C333 1.420 1_556 S
C328 C335 1.414 . S
C329 H321 0.930 . S
C329 C327 1.419 . S
C329 C330 1.362 . S
C330 H322 0.930 . S
C330 C329 1.362 . S
C330 C333 1.409 . S
C331 H323 0.930 . S
C331 C332 1.355 . S
C331 C333 1.415 . S
C332 C331 1.355 . S
C332 C334 1.419 1_554 S
C333 C328 1.420 1_554 S
C333 C330 1.409 . S
C333 C331 1.415 . S
C334 H324 0.930 . S
C334 C332 1.419 1_556 S
C334 C335 1.362 . S
C335 H325 0.930 . S
C335 C328 1.414 . S
C335 C334 1.362 . S
H336 C342 0.930 . S
H337 C345 0.930 . S
H338 C346 0.930 . S
H339 C347 0.930 . S
H340 C350 0.930 . S
H341 C351 0.930 . S
C342 H336 0.930 . S
C342 C343 1.355 1_556 S
C342 C344 1.415 . S
C343 C342 1.355 1_554 S
C343 C345 1.419 . S
C344 C342 1.415 . S
C344 C349 1.425 1_556 S
C344 C351 1.409 . S
C345 H337 0.930 . S
C345 C343 1.419 . S
C345 C346 1.362 . S
C346 H338 0.930 . S
C346 C345 1.362 . S
C346 C349 1.409 . S
C347 H339 0.930 . S
C347 C348 1.359 . S
C347 C349 1.415 . S
C348 C347 1.359 . S
C348 C350 1.414 1_554 S
C349 C344 1.425 1_554 S
C349 C346 1.409 . S
C349 C347 1.415 . S
C350 H340 0.930 . S
C350 C348 1.414 1_556 S
C350 C351 1.362 . S
C351 H341 0.930 . S
C351 C344 1.409 . S
C351 C350 1.362 . S
H352 C358 0.930 . S
H353 C361 0.930 . S
H354 C362 0.930 . S
H355 C363 0.930 . S
H356 C366 0.930 . S
H357 C367 0.930 . S
C358 H352 0.930 . S
C358 C359 1.355 . S
C358 C360 1.415 . S
C359 C358 1.355 . S
C359 C361 1.419 . S
C360 C358 1.415 . S
C360 C365 1.425 . S
C360 C367 1.409 . S
C361 H353 0.930 . S
C361 C359 1.419 . S
C361 C362 1.362 . S
C362 H354 0.930 . S
C362 C361 1.362 . S
C362 C365 1.409 . S
C363 H355 0.930 . S
C363 C364 1.355 . S
C363 C365 1.415 . S
C364 C363 1.355 . S
C364 C366 1.419 . S
C365 C360 1.425 . S
C365 C362 1.409 . S
C365 C363 1.415 . S
C366 H356 0.930 . S
C366 C364 1.419 . S
C366 C367 1.362 . S
C367 H357 0.930 . S
C367 C360 1.409 . S
C367 C366 1.362 . S
H368 C374 0.930 . S
H369 C377 0.930 . S
H370 C378 0.930 . S
H371 C379 0.930 . S
H372 C382 0.930 . S
H373 C383 0.930 . S
C374 H368 0.930 . S
C374 C375 1.355 . S
C374 C376 1.415 . S
C375 C374 1.355 . S
C375 C377 1.419 . S
C376 C374 1.415 . S
C376 C381 1.425 . S
C376 C383 1.409 . S
C377 H369 0.930 . S
C377 C375 1.419 . S
C377 C378 1.362 . S
C378 H370 0.930 . S
C378 C377 1.362 . S
C378 C381 1.409 . S
C379 H371 0.930 . S
C379 C380 1.355 . S
C379 C381 1.415 . S
C380 C379 1.355 . S
C380 C382 1.419 . S
C381 C376 1.425 . S
C381 C378 1.409 . S
C381 C379 1.415 . S
C382 H372 0.930 . S
C382 C380 1.419 . S
C382 C383 1.362 . S
C383 H373 0.930 . S
C383 C376 1.409 . S
C383 C382 1.362 . S
H384 C390 0.928 1_556 S
H385 C393 0.930 . S
H386 C394 0.930 . S
H387 C395 0.930 . S
H388 C398 0.930 . S
H389 C399 0.930 . S
C390 H384 0.928 1_554 S
C390 C391 1.356 . S
C390 C392 1.415 1_655 S
C391 C390 1.356 . S
C391 C393 1.419 . S
C392 C390 1.415 1_455 S
C392 C397 1.425 . S
C392 C399 1.409 1_554 S
C393 H385 0.930 . S
C393 C391 1.419 . S
C393 C394 1.362 1_655 S
C394 H386 0.930 . S
C394 C393 1.362 1_455 S
C394 C397 1.409 . S
C395 H387 0.930 . S
C395 C396 1.355 . S
C395 C397 1.415 . S
C396 C395 1.355 . S
C396 C398 1.419 1_554 S
C397 C392 1.425 . S
C397 C394 1.409 . S
C397 C395 1.415 . S
C398 H388 0.930 . S
C398 C396 1.419 1_556 S
C398 C399 1.362 . S
C399 H389 0.930 . S
C399 C392 1.409 1_556 S
C399 C398 1.362 . S
H400 C406 0.930 . S
H401 C409 0.930 . S
H402 C410 0.930 1_655 S
H403 C411 0.930 . S
H404 C414 0.930 . S
H405 C415 0.930 . S
C406 H400 0.930 . S
C406 C407 1.355 1_556 S
C406 C408 1.415 1_455 S
C407 C406 1.355 1_554 S
C407 C409 1.419 . S
C408 C406 1.415 1_655 S
C408 C413 1.425 1_556 S
C408 C415 1.409 . S
C409 H401 0.930 . S
C409 C407 1.419 . S
C409 C410 1.362 . S
C410 H402 0.930 1_455 S
C410 C409 1.362 . S
C410 C413 1.409 1_455 S
C411 H403 0.930 . S
C411 C412 1.355 . S
C411 C413 1.415 . S
C412 C411 1.355 . S
C412 C414 1.419 1_554 S
C413 C408 1.425 1_554 S
C413 C410 1.409 1_655 S
C413 C411 1.415 . S
C414 H404 0.930 . S
C414 C412 1.419 1_556 S
C414 C415 1.362 . S
C415 H405 0.930 . S
C415 C408 1.409 . S
C415 C414 1.362 . S
H416 C422 0.930 . S
H417 C425 0.930 . S
H418 C426 0.930 . S
H419 C427 0.930 . S
H420 C430 0.930 . S
H421 C431 0.930 . S
C422 H416 0.930 . S
C422 C423 1.355 . S
C422 C424 1.415 . S
C423 C422 1.355 . S
C423 C425 1.419 . S
C424 C422 1.415 . S
C424 C429 1.425 . S
C424 C431 1.409 . S
C425 H417 0.930 . S
C425 C423 1.419 . S
C425 C426 1.362 . S
C426 H418 0.930 . S
C426 C425 1.362 . S
C426 C429 1.409 . S
C427 H419 0.930 . S
C427 C428 1.355 . S
C427 C429 1.415 1_655 S
C428 C427 1.355 . S
C428 C430 1.419 . S
C429 C424 1.425 . S
C429 C426 1.409 . S
C429 C427 1.415 1_455 S
C430 H420 0.930 . S
C430 C428 1.419 . S
C430 C431 1.362 1_655 S
C431 H421 0.930 . S
C431 C424 1.409 . S
C431 C430 1.362 1_455 S
H432 C438 0.930 . S
H433 C441 0.930 . S
H434 C442 0.930 . S
H435 C443 0.930 . S
H436 C446 0.930 . S
H437 C447 0.930 . S
C438 H432 0.930 . S
C438 C439 1.355 . S
C438 C440 1.415 . S
C439 C438 1.355 . S
C439 C441 1.419 . S
C440 C438 1.415 . S
C440 C445 1.425 . S
C440 C447 1.409 . S
C441 H433 0.930 . S
C441 C439 1.419 . S
C441 C442 1.362 . S
C442 H434 0.930 . S
C442 C441 1.362 . S
C442 C445 1.409 . S
C443 H435 0.930 . S
C443 C444 1.355 . S
C443 C445 1.415 1_455 S
C444 C443 1.355 . S
C444 C446 1.419 . S
C445 C440 1.425 . S
C445 C442 1.409 . S
C445 C443 1.415 1_655 S
C446 H436 0.930 . S
C446 C444 1.419 . S
C446 C447 1.362 1_455 S
C447 H437 0.930 . S
C447 C440 1.409 . S
C447 C446 1.362 1_655 S
H448 C454 0.930 . S
H449 C457 0.930 . S
H450 C458 0.930 . S
H451 C459 0.930 . S
H452 C462 0.930 . S
H453 C463 0.930 . S
C454 H448 0.930 . S
C454 C455 1.355 . S
C454 C456 1.415 1_455 S
C455 C454 1.355 . S
C455 C457 1.419 1_556 S
C456 C454 1.415 1_655 S
C456 C461 1.425 1_656 S
C456 C463 1.409 . S
C457 H449 0.930 . S
C457 C455 1.419 1_554 S
C457 C458 1.362 . S
C458 H450 0.930 . S
C458 C457 1.362 . S
C458 C461 1.409 . S
C459 H451 0.930 . S
C459 C460 1.355 . S
C459 C461 1.415 1_655 S
C460 C459 1.355 . S
C460 C462 1.419 1_554 S
C461 C456 1.425 1_454 S
C461 C458 1.409 . S
C461 C459 1.415 1_455 S
C462 H452 0.930 . S
C462 C460 1.419 1_556 S
C462 C463 1.362 . S
C463 H453 0.930 . S
C463 C456 1.409 . S
C463 C462 1.362 . S
H464 C470 0.930 . S
H465 C473 0.930 . S
H466 C474 0.930 . S
H467 C475 0.930 . S
H468 C478 0.930 . S
H469 C479 0.930 . S
C470 H464 0.930 . S
C470 C471 1.355 . S
C470 C472 1.415 . S
C471 C470 1.355 . S
C471 C473 1.419 . S
C472 C470 1.415 . S
C472 C477 1.425 1_455 S
C472 C479 1.409 . S
C473 H465 0.930 . S
C473 C471 1.419 . S
C473 C474 1.362 1_455 S
C474 H466 0.930 . S
C474 C473 1.362 1_655 S
C474 C477 1.409 . S
C475 H467 0.930 . S
C475 C476 1.355 . S
C475 C477 1.415 . S
C476 C475 1.355 . S
C476 C478 1.419 . S
C477 C472 1.425 1_655 S
C477 C474 1.409 . S
C477 C475 1.415 . S
C478 H468 0.930 . S
C478 C476 1.419 . S
C478 C479 1.362 1_655 S
C479 H469 0.930 . S
C479 C472 1.409 . S
C479 C478 1.362 1_455 S
H480 C486 0.930 1_556 S
H481 C489 0.930 . S
H482 C490 0.930 . S
H483 C491 0.930 . S
H484 C494 0.930 . S
H485 C495 0.930 . S
C486 H480 0.930 1_554 S
C486 C487 1.355 . S
C486 C488 1.415 1_554 S
C487 C486 1.355 . S
C487 C489 1.419 . S
C488 C486 1.415 1_556 S
C488 C493 1.425 1_566 S
C488 C495 1.409 . S
C489 H481 0.930 . S
C489 C487 1.419 . S
C489 C490 1.362 1_565 S
C490 H482 0.930 . S
C490 C489 1.362 1_545 S
C490 C493 1.409 . S
C491 H483 0.930 . S
C491 C492 1.355 1_554 S
C491 C493 1.415 . S
C492 C491 1.355 1_556 S
C492 C494 1.419 . S
C493 C488 1.425 1_544 S
C493 C490 1.409 . S
C493 C491 1.415 . S
C494 H484 0.930 . S
C494 C492 1.419 . S
C494 C495 1.362 1_545 S
C495 H485 0.930 . S
C495 C488 1.409 . S
C495 C494 1.362 1_565 S
H496 C502 0.930 . S
H497 C505 0.930 . S
H498 C506 0.930 . S
H499 C507 0.930 . S
H500 C510 0.930 . S
H501 C511 0.930 . S
C502 H496 0.930 . S
C502 C503 1.355 . S
C502 C504 1.415 . S
C503 C502 1.355 . S
C503 C505 1.419 . S
C504 C502 1.415 . S
C504 C509 1.425 1_545 S
C504 C511 1.409 . S
C505 H497 0.930 . S
C505 C503 1.419 . S
C505 C506 1.362 1_545 S
C506 H498 0.930 . S
C506 C505 1.362 1_565 S
C506 C509 1.409 . S
C507 H499 0.930 . S
C507 C508 1.355 . S
C507 C509 1.415 . S
C508 C507 1.355 . S
C508 C510 1.419 . S
C509 C504 1.425 1_565 S
C509 C506 1.409 . S
C509 C507 1.415 . S
C510 H500 0.930 . S
C510 C508 1.419 . S
C510 C511 1.362 1_565 S
C511 H501 0.930 . S
C511 C504 1.409 . S
C511 C510 1.362 1_545 S
H512 C518 0.930 . S
H513 C521 0.930 . S
H514 C522 0.930 . S
H515 C523 0.930 . S
H516 C526 0.930 . S
H517 C527 0.930 . S
C518 H512 0.930 . S
C518 C519 1.355 1_554 S
C518 C520 1.415 . S
C519 C518 1.355 1_556 S
C519 C521 1.419 . S
C520 C518 1.415 . S
C520 C525 1.425 1_554 S
C520 C527 1.409 . S
C521 H513 0.930 . S
C521 C519 1.419 . S
C521 C522 1.362 . S
C522 H514 0.930 . S
C522 C521 1.362 . S
C522 C525 1.409 . S
C523 H515 0.930 . S
C523 C524 1.355 1_556 S
C523 C525 1.415 . S
C524 C523 1.355 1_554 S
C524 C526 1.419 . S
C525 C520 1.425 1_556 S
C525 C522 1.409 . S
C525 C523 1.415 . S
C526 H516 0.930 . S
C526 C524 1.419 . S
C526 C527 1.362 . S
C527 H517 0.930 . S
C527 C520 1.409 . S
C527 C526 1.362 . S
H528 C534 0.930 . S
H529 C537 0.930 . S
H530 C538 0.930 . S
H531 C539 0.930 . S
H532 C542 0.930 . S
H533 C543 0.930 . S
C534 H528 0.930 . S
C534 C535 1.355 . S
C534 C536 1.415 . S
C535 C534 1.355 . S
C535 C537 1.419 1_556 S
C536 C534 1.415 . S
C536 C541 1.425 1_556 S
C536 C543 1.409 . S
C537 H529 0.930 . S
C537 C535 1.419 1_554 S
C537 C538 1.362 . S
C538 H530 0.930 . S
C538 C537 1.362 . S
C538 C541 1.409 . S
C539 H531 0.930 . S
C539 C540 1.355 . S
C539 C541 1.415 . S
C540 C539 1.355 . S
C540 C542 1.419 1_554 S
C541 C536 1.425 1_554 S
C541 C538 1.409 . S
C541 C539 1.415 . S
C542 H532 0.930 . S
C542 C540 1.419 1_556 S
C542 C543 1.362 . S
C543 H533 0.930 . S
C543 C536 1.409 . S
C543 C542 1.362 . S
H544 C550 0.930 . S
H545 C553 0.930 . S
H546 C554 0.930 . S
H547 C555 0.930 . S
H548 C558 0.930 . S
H549 C559 0.930 . S
C550 H544 0.930 . S
C550 C551 1.355 . S
C550 C552 1.415 . S
C551 C550 1.355 . S
C551 C553 1.419 . S
C552 C550 1.415 . S
C552 C557 1.425 . S
C552 C559 1.409 . S
C553 H545 0.930 . S
C553 C551 1.419 . S
C553 C554 1.362 . S
C554 H546 0.930 . S
C554 C553 1.362 . S
C554 C557 1.409 . S
C555 H547 0.930 . S
C555 C556 1.355 . S
C555 C557 1.415 . S
C556 C555 1.355 . S
C556 C558 1.419 . S
C557 C552 1.425 . S
C557 C554 1.409 . S
C557 C555 1.415 . S
C558 H548 0.930 . S
C558 C556 1.419 . S
C558 C559 1.362 . S
C559 H549 0.930 . S
C559 C552 1.409 . S
C559 C558 1.362 . S
H560 C566 0.930 . S
H561 C569 0.930 . S
H562 C570 0.930 . S
H563 C571 0.930 . S
H564 C574 0.930 . S
H565 C575 0.930 . S
C566 H560 0.930 . S
C566 C567 1.355 . S
C566 C568 1.415 . S
C567 C566 1.355 . S
C567 C569 1.419 . S
C568 C566 1.415 . S
C568 C573 1.425 . S
C568 C575 1.409 . S
C569 H561 0.930 . S
C569 C567 1.419 . S
C569 C570 1.362 . S
C570 H562 0.930 . S
C570 C569 1.362 . S
C570 C573 1.409 . S
C571 H563 0.930 . S
C571 C572 1.355 . S
C571 C573 1.415 . S
C572 C571 1.355 . S
C572 C574 1.419 . S
C573 C568 1.425 . S
C573 C570 1.409 . S
C573 C571 1.415 . S
C574 H564 0.930 . S
C574 C572 1.419 . S
C574 C575 1.362 . S
C575 H565 0.930 . S
C575 C568 1.409 . S
C575 C574 1.362 . S
H576 C582 0.930 . S
H577 C585 0.930 . S
H578 C586 0.930 . S
H579 C587 0.930 . S
H580 C590 0.930 . S
H581 C591 0.930 . S
C582 H576 0.930 . S
C582 C583 1.355 . S
C582 C584 1.415 . S
C583 C582 1.355 . S
C583 C585 1.419 1_455 S
C584 C582 1.415 . S
C584 C589 1.425 1_455 S
C584 C591 1.409 . S
C585 H577 0.930 . S
C585 C583 1.419 1_655 S
C585 C586 1.362 . S
C586 H578 0.930 . S
C586 C585 1.362 . S
C586 C589 1.409 . S
C587 H579 0.930 . S
C587 C588 1.355 . S
C587 C589 1.415 . S
C588 C587 1.355 . S
C588 C590 1.419 1_655 S
C589 C584 1.425 1_655 S
C589 C586 1.409 . S
C589 C587 1.415 . S
C590 H580 0.930 . S
C590 C588 1.419 1_455 S
C590 C591 1.362 . S
C591 H581 0.930 . S
C591 C584 1.409 . S
C591 C590 1.362 . S
H592 C598 0.930 . S
H593 C601 0.930 . S
H594 C602 0.930 1_455 S
H595 C603 0.930 . S
H596 C606 0.930 . S
H597 C607 0.930 1_655 S
C598 H592 0.930 . S
C598 C599 1.355 . S
C598 C600 1.415 . S
C599 C598 1.355 . S
C599 C601 1.419 . S
C600 C598 1.415 . S
C600 C605 1.425 1_655 S
C600 C607 1.409 1_655 S
C601 H593 0.930 . S
C601 C599 1.419 . S
C601 C602 1.362 . S
C602 H594 0.930 1_655 S
C602 C601 1.362 . S
C602 C605 1.409 1_655 S
C603 H595 0.930 . S
C603 C604 1.355 . S
C603 C605 1.415 . S
C604 C603 1.355 . S
C604 C606 1.419 . S
C605 C600 1.425 1_455 S
C605 C602 1.409 1_455 S
C605 C603 1.415 . S
C606 H596 0.930 . S
C606 C604 1.419 . S
C606 C607 1.362 . S
C607 H597 0.930 1_455 S
C607 C600 1.409 1_455 S
C607 C606 1.362 . S
H608 C614 0.930 . S
H609 C617 0.930 . S
H610 C618 0.930 . S
H611 C619 0.930 . S
H612 C622 0.930 . S
H613 C623 0.930 . S
C614 H608 0.930 . S
C614 C615 1.355 . S
C614 C616 1.415 . S
C615 C614 1.355 . S
C615 C617 1.419 1_655 S
C616 C614 1.415 . S
C616 C621 1.425 1_655 S
C616 C623 1.409 . S
C617 H609 0.930 . S
C617 C615 1.419 1_455 S
C617 C618 1.362 . S
C618 H610 0.930 . S
C618 C617 1.362 . S
C618 C621 1.409 . S
C619 H611 0.930 . S
C619 C620 1.355 . S
C619 C621 1.415 . S
C620 C619 1.355 . S
C620 C622 1.419 1_455 S
C621 C616 1.425 1_455 S
C621 C618 1.409 . S
C621 C619 1.415 . S
C622 H612 0.930 . S
C622 C620 1.419 1_655 S
C622 C623 1.362 . S
C623 H613 0.930 . S
C623 C616 1.409 . S
C623 C622 1.362 . S
H624 C630 0.930 . S
H625 C633 0.930 . S
H626 C634 0.930 . S
H627 C635 0.930 . S
H628 C638 0.930 . S
H629 C639 0.930 . S
C630 H624 0.930 . S
C630 C631 1.355 . S
C630 C632 1.415 . S
C631 C630 1.355 . S
C631 C633 1.419 1_655 S
C632 C630 1.415 . S
C632 C637 1.425 1_655 S
C632 C639 1.409 . S
C633 H625 0.930 . S
C633 C631 1.419 1_455 S
C633 C634 1.362 . S
C634 H626 0.930 . S
C634 C633 1.362 . S
C634 C637 1.409 . S
C635 H627 0.930 . S
C635 C636 1.355 . S
C635 C637 1.415 . S
C636 C635 1.355 . S
C636 C638 1.419 1_455 S
C637 C632 1.425 1_455 S
C637 C634 1.409 . S
C637 C635 1.415 . S
C638 H628 0.930 . S
C638 C636 1.419 1_655 S
C638 C639 1.362 . S
C639 H629 0.930 . S
C639 C632 1.409 . S
C639 C638 1.362 . S
H640 C646 0.930 . S
H641 C649 0.930 . S
H642 C650 0.930 . S
H643 C651 0.930 . S
H644 C654 0.930 . S
H645 C655 0.930 . S
C646 H640 0.930 . S
C646 C647 1.355 . S
C646 C648 1.415 . S
C647 C646 1.355 . S
C647 C649 1.419 . S
C648 C646 1.415 . S
C648 C653 1.425 . S
C648 C655 1.409 . S
C649 H641 0.930 . S
C649 C647 1.419 . S
C649 C650 1.362 . S
C650 H642 0.930 . S
C650 C649 1.362 . S
C650 C653 1.409 . S
C651 H643 0.930 . S
C651 C652 1.355 . S
C651 C653 1.415 . S
C652 C651 1.355 . S
C652 C654 1.419 . S
C653 C648 1.425 . S
C653 C650 1.409 . S
C653 C651 1.415 . S
C654 H644 0.930 . S
C654 C652 1.419 . S
C654 C655 1.362 . S
C655 H645 0.930 . S
C655 C648 1.409 . S
C655 C654 1.362 . S
H656 C662 0.930 . S
H657 C665 0.930 . S
H658 C666 0.930 . S
H659 C667 0.930 . S
H660 C670 0.930 . S
H661 C671 0.930 . S
C662 H656 0.930 . S
C662 C663 1.355 . S
C662 C664 1.415 . S
C663 C662 1.355 . S
C663 C665 1.419 . S
C664 C662 1.415 . S
C664 C669 1.425 . S
C664 C671 1.409 . S
C665 H657 0.930 . S
C665 C663 1.419 . S
C665 C666 1.362 . S
C666 H658 0.930 . S
C666 C665 1.362 . S
C666 C669 1.409 . S
C667 H659 0.930 . S
C667 C668 1.355 . S
C667 C669 1.415 . S
C668 C667 1.355 . S
C668 C670 1.419 . S
C669 C664 1.425 . S
C669 C666 1.409 . S
C669 C667 1.415 . S
C670 H660 0.930 . S
C670 C668 1.419 . S
C670 C671 1.362 . S
C671 H661 0.930 . S
C671 C664 1.409 . S
C671 C670 1.362 . S
H672 C678 0.930 . S
H673 C681 0.930 . S
H674 C682 0.930 . S
H675 C683 0.930 . S
H676 C686 0.930 . S
H677 C687 0.930 . S
C678 H672 0.930 . S
C678 C679 1.355 . S
C678 C680 1.415 . S
C679 C678 1.355 . S
C679 C681 1.419 . S
C680 C678 1.415 . S
C680 C685 1.425 . S
C680 C687 1.409 . S
C681 H673 0.930 . S
C681 C679 1.419 . S
C681 C682 1.362 . S
C682 H674 0.930 . S
C682 C681 1.362 . S
C682 C685 1.409 . S
C683 H675 0.930 . S
C683 C684 1.355 . S
C683 C685 1.415 . S
C684 C683 1.355 . S
C684 C686 1.419 . S
C685 C680 1.425 . S
C685 C682 1.409 . S
C685 C683 1.415 . S
C686 H676 0.930 . S
C686 C684 1.419 . S
C686 C687 1.362 . S
C687 H677 0.930 . S
C687 C680 1.409 . S
C687 C686 1.362 . S
H688 C694 0.930 . S
H689 C697 0.930 . S
H690 C698 0.930 . S
H691 C699 0.930 . S
H692 C702 0.930 . S
H693 C703 0.930 . S
C694 H688 0.930 . S
C694 C695 1.355 . S
C694 C696 1.415 . S
C695 C694 1.355 . S
C695 C697 1.419 . S
C696 C694 1.415 . S
C696 C701 1.425 . S
C696 C703 1.409 . S
C697 H689 0.930 . S
C697 C695 1.419 . S
C697 C698 1.362 . S
C698 H690 0.930 . S
C698 C697 1.362 . S
C698 C701 1.409 . S
C699 H691 0.930 . S
C699 C700 1.355 . S
C699 C701 1.415 . S
C700 C699 1.355 . S
C700 C702 1.419 . S
C701 C696 1.425 . S
C701 C698 1.409 . S
C701 C699 1.415 . S
C702 H692 0.930 . S
C702 C700 1.419 . S
C702 C703 1.362 . S
C703 H693 0.930 . S
C703 C696 1.409 . S
C703 C702 1.362 . S
C327 C31 2.291 . S
C332 C12 2.291 . S
C343 C71 2.289 . S
C348 C52 2.289 . S
C359 C111 2.252 . S
C364 C92 2.252 . S
C375 C151 2.253 . S
C380 C132 2.253 . S
C391 C191 2.290 . S
C396 C172 2.290 . S
C407 C212 2.263 . S
C412 C231 2.263 . S
C423 C271 2.284 . S
C428 C252 2.284 . S
C439 C292 2.284 . S
C444 C311 2.284 . S
C455 C48 2.630 . S
C460 C29 2.630 . S
C471 C149 2.617 . S
C476 C88 2.617 . S
C487 C189 2.668 . S
C492 C208 2.668 . S
C503 C248 2.668 . S
C508 C309 2.667 . S
C519 C8 1.910 . S
C524 C229 1.910 . S
C535 C168 1.845 . S
C540 C69 1.845 . S
C551 C109 1.906 . S
C556 C288 1.906 . S
C567 C128 1.833 . S
C572 C269 1.833 . S
C583 C17 1.549 . S
C588 C137 1.560 . S
C599 C57 1.474 . S
C604 C97 1.534 . S
C615 C42 1.574 . S
C620 C82 1.541 . S
C631 C122 1.519 . S
C636 C2 1.482 . S
C647 C177 1.603 . S
C652 C297 1.595 . S
C663 C217 1.481 . S
C668 C257 1.520 . S
C679 C202 1.549 . S
C684 C242 1.609 . S
C695 C282 1.529 . S
C700 C162 1.500 . S
