# Generated by pormake.
# Topology fcs, (5)-cn, num edge types: 1
# Building blocks:
#     Node 0, Type 0, BuildingBlock: XOMCOT_clean_sbu_1, # of connection points: 5
#     Node 1, Type 0, BuildingBlock: XOMCOT_clean_sbu_1, # of connection points: 5
#     Node 2, Type 0, BuildingBlock: XOMCOT_clean_sbu_1, # of connection points: 5
#     Node 3, Type 0, BuildingBlock: XOMCOT_clean_sbu_1, # of connection points: 5
#     Node 4, Type 0, BuildingBlock: XOMCOT_clean_sbu_1, # of connection points: 5
#     Node 5, Type 0, BuildingBlock: XOMCOT_clean_sbu_1, # of connection points: 5
#     Node 6, Type 0, BuildingBlock: XOMCOT_clean_sbu_1, # of connection points: 5
#     Node 7, Type 0, BuildingBlock: XOMCOT_clean_sbu_1, # of connection points: 5
#     Node 8, Type 0, BuildingBlock: XOMCOT_clean_sbu_1, # of connection points: 5
#     Node 9, Type 0, BuildingBlock: XOMCOT_clean_sbu_1, # of connection points: 5
#     Node 10, Type 0, BuildingBlock: XOMCOT_clean_sbu_1, # of connection points: 5
#     Node 11, Type 0, BuildingBlock: XOMCOT_clean_sbu_1, # of connection points: 5
#     Node 12, Type 0, BuildingBlock: XOMCOT_clean_sbu_1, # of connection points: 5
#     Node 13, Type 0, BuildingBlock: XOMCOT_clean_sbu_1, # of connection points: 5
#     Node 14, Type 0, BuildingBlock: XOMCOT_clean_sbu_1, # of connection points: 5
#     Node 15, Type 0, BuildingBlock: XOMCOT_clean_sbu_1, # of connection points: 5
#     Node 16, Type 0, BuildingBlock: XOMCOT_clean_sbu_1, # of connection points: 5
#     Node 17, Type 0, BuildingBlock: XOMCOT_clean_sbu_1, # of connection points: 5
#     Node 18, Type 0, BuildingBlock: XOMCOT_clean_sbu_1, # of connection points: 5
#     Node 19, Type 0, BuildingBlock: XOMCOT_clean_sbu_1, # of connection points: 5
#     Node 20, Type 0, BuildingBlock: XOMCOT_clean_sbu_1, # of connection points: 5
#     Node 21, Type 0, BuildingBlock: XOMCOT_clean_sbu_1, # of connection points: 5
#     Node 22, Type 0, BuildingBlock: XOMCOT_clean_sbu_1, # of connection points: 5
#     Node 23, Type 0, BuildingBlock: XOMCOT_clean_sbu_1, # of connection points: 5
#     Node 24, Type 0, BuildingBlock: XOMCOT_clean_sbu_1, # of connection points: 5
#     Node 25, Type 0, BuildingBlock: XOMCOT_clean_sbu_1, # of connection points: 5
#     Node 26, Type 0, BuildingBlock: XOMCOT_clean_sbu_1, # of connection points: 5
#     Node 27, Type 0, BuildingBlock: XOMCOT_clean_sbu_1, # of connection points: 5
#     Node 28, Type 0, BuildingBlock: XOMCOT_clean_sbu_1, # of connection points: 5
#     Node 29, Type 0, BuildingBlock: XOMCOT_clean_sbu_1, # of connection points: 5
#     Node 30, Type 0, BuildingBlock: XOMCOT_clean_sbu_1, # of connection points: 5
#     Node 31, Type 0, BuildingBlock: XOMCOT_clean_sbu_1, # of connection points: 5
#     Node 32, Type 0, BuildingBlock: XOMCOT_clean_sbu_1, # of connection points: 5
#     Node 33, Type 0, BuildingBlock: XOMCOT_clean_sbu_1, # of connection points: 5
#     Node 34, Type 0, BuildingBlock: XOMCOT_clean_sbu_1, # of connection points: 5
#     Node 35, Type 0, BuildingBlock: XOMCOT_clean_sbu_1, # of connection points: 5
#     Node 36, Type 0, BuildingBlock: XOMCOT_clean_sbu_1, # of connection points: 5
#     Node 37, Type 0, BuildingBlock: XOMCOT_clean_sbu_1, # of connection points: 5
#     Node 38, Type 0, BuildingBlock: XOMCOT_clean_sbu_1, # of connection points: 5
#     Node 39, Type 0, BuildingBlock: XOMCOT_clean_sbu_1, # of connection points: 5
#     Node 40, Type 0, BuildingBlock: XOMCOT_clean_sbu_1, # of connection points: 5
#     Node 41, Type 0, BuildingBlock: XOMCOT_clean_sbu_1, # of connection points: 5
#     Node 42, Type 0, BuildingBlock: XOMCOT_clean_sbu_1, # of connection points: 5
#     Node 43, Type 0, BuildingBlock: XOMCOT_clean_sbu_1, # of connection points: 5
#     Node 44, Type 0, BuildingBlock: XOMCOT_clean_sbu_1, # of connection points: 5
#     Node 45, Type 0, BuildingBlock: XOMCOT_clean_sbu_1, # of connection points: 5
#     Node 46, Type 0, BuildingBlock: XOMCOT_clean_sbu_1, # of connection points: 5
#     Node 47, Type 0, BuildingBlock: XOMCOT_clean_sbu_1, # of connection points: 5
#     Edge 48, Type (0, 0), BuildingBlock: XIVTED_clean_linker_0, # of connection points: 2
#     Edge 49, Type (0, 0), BuildingBlock: XIVTED_clean_linker_0, # of connection points: 2
#     Edge 50, Type (0, 0), BuildingBlock: XIVTED_clean_linker_0, # of connection points: 2
#     Edge 51, Type (0, 0), BuildingBlock: XIVTED_clean_linker_0, # of connection points: 2
#     Edge 52, Type (0, 0), BuildingBlock: XIVTED_clean_linker_0, # of connection points: 2
#     Edge 53, Type (0, 0), BuildingBlock: XIVTED_clean_linker_0, # of connection points: 2
#     Edge 54, Type (0, 0), BuildingBlock: XIVTED_clean_linker_0, # of connection points: 2
#     Edge 55, Type (0, 0), BuildingBlock: XIVTED_clean_linker_0, # of connection points: 2
#     Edge 56, Type (0, 0), BuildingBlock: XIVTED_clean_linker_0, # of connection points: 2
#     Edge 57, Type (0, 0), BuildingBlock: XIVTED_clean_linker_0, # of connection points: 2
#     Edge 58, Type (0, 0), BuildingBlock: XIVTED_clean_linker_0, # of connection points: 2
#     Edge 59, Type (0, 0), BuildingBlock: XIVTED_clean_linker_0, # of connection points: 2
#     Edge 60, Type (0, 0), BuildingBlock: XIVTED_clean_linker_0, # of connection points: 2
#     Edge 61, Type (0, 0), BuildingBlock: XIVTED_clean_linker_0, # of connection points: 2
#     Edge 62, Type (0, 0), BuildingBlock: XIVTED_clean_linker_0, # of connection points: 2
#     Edge 63, Type (0, 0), BuildingBlock: XIVTED_clean_linker_0, # of connection points: 2
#     Edge 64, Type (0, 0), BuildingBlock: XIVTED_clean_linker_0, # of connection points: 2
#     Edge 65, Type (0, 0), BuildingBlock: XIVTED_clean_linker_0, # of connection points: 2
#     Edge 66, Type (0, 0), BuildingBlock: XIVTED_clean_linker_0, # of connection points: 2
#     Edge 67, Type (0, 0), BuildingBlock: XIVTED_clean_linker_0, # of connection points: 2
#     Edge 68, Type (0, 0), BuildingBlock: XIVTED_clean_linker_0, # of connection points: 2
#     Edge 69, Type (0, 0), BuildingBlock: XIVTED_clean_linker_0, # of connection points: 2
#     Edge 70, Type (0, 0), BuildingBlock: XIVTED_clean_linker_0, # of connection points: 2
#     Edge 71, Type (0, 0), BuildingBlock: XIVTED_clean_linker_0, # of connection points: 2
#     Edge 72, Type (0, 0), BuildingBlock: XIVTED_clean_linker_0, # of connection points: 2
#     Edge 73, Type (0, 0), BuildingBlock: XIVTED_clean_linker_0, # of connection points: 2
#     Edge 74, Type (0, 0), BuildingBlock: XIVTED_clean_linker_0, # of connection points: 2
#     Edge 75, Type (0, 0), BuildingBlock: XIVTED_clean_linker_0, # of connection points: 2
#     Edge 76, Type (0, 0), BuildingBlock: XIVTED_clean_linker_0, # of connection points: 2
#     Edge 77, Type (0, 0), BuildingBlock: XIVTED_clean_linker_0, # of connection points: 2
#     Edge 78, Type (0, 0), BuildingBlock: XIVTED_clean_linker_0, # of connection points: 2
#     Edge 79, Type (0, 0), BuildingBlock: XIVTED_clean_linker_0, # of connection points: 2
#     Edge 80, Type (0, 0), BuildingBlock: XIVTED_clean_linker_0, # of connection points: 2
#     Edge 81, Type (0, 0), BuildingBlock: XIVTED_clean_linker_0, # of connection points: 2
#     Edge 82, Type (0, 0), BuildingBlock: XIVTED_clean_linker_0, # of connection points: 2
#     Edge 83, Type (0, 0), BuildingBlock: XIVTED_clean_linker_0, # of connection points: 2
#     Edge 84, Type (0, 0), BuildingBlock: XIVTED_clean_linker_0, # of connection points: 2
#     Edge 85, Type (0, 0), BuildingBlock: XIVTED_clean_linker_0, # of connection points: 2
#     Edge 86, Type (0, 0), BuildingBlock: XIVTED_clean_linker_0, # of connection points: 2
#     Edge 87, Type (0, 0), BuildingBlock: XIVTED_clean_linker_0, # of connection points: 2
#     Edge 88, Type (0, 0), BuildingBlock: XIVTED_clean_linker_0, # of connection points: 2
#     Edge 89, Type (0, 0), BuildingBlock: XIVTED_clean_linker_0, # of connection points: 2
#     Edge 90, Type (0, 0), BuildingBlock: XIVTED_clean_linker_0, # of connection points: 2
#     Edge 91, Type (0, 0), BuildingBlock: XIVTED_clean_linker_0, # of connection points: 2
#     Edge 92, Type (0, 0), BuildingBlock: XIVTED_clean_linker_0, # of connection points: 2
#     Edge 93, Type (0, 0), BuildingBlock: XIVTED_clean_linker_0, # of connection points: 2
#     Edge 94, Type (0, 0), BuildingBlock: XIVTED_clean_linker_0, # of connection points: 2
#     Edge 95, Type (0, 0), BuildingBlock: XIVTED_clean_linker_0, # of connection points: 2
#     Edge 96, Type (0, 0), BuildingBlock: XIVTED_clean_linker_0, # of connection points: 2
#     Edge 97, Type (0, 0), BuildingBlock: XIVTED_clean_linker_0, # of connection points: 2
#     Edge 98, Type (0, 0), BuildingBlock: XIVTED_clean_linker_0, # of connection points: 2
#     Edge 99, Type (0, 0), BuildingBlock: XIVTED_clean_linker_0, # of connection points: 2
#     Edge 100, Type (0, 0), BuildingBlock: XIVTED_clean_linker_0, # of connection points: 2
#     Edge 101, Type (0, 0), BuildingBlock: XIVTED_clean_linker_0, # of connection points: 2
#     Edge 102, Type (0, 0), BuildingBlock: XIVTED_clean_linker_0, # of connection points: 2
#     Edge 103, Type (0, 0), BuildingBlock: XIVTED_clean_linker_0, # of connection points: 2
#     Edge 104, Type (0, 0), BuildingBlock: XIVTED_clean_linker_0, # of connection points: 2
#     Edge 105, Type (0, 0), BuildingBlock: XIVTED_clean_linker_0, # of connection points: 2
#     Edge 106, Type (0, 0), BuildingBlock: XIVTED_clean_linker_0, # of connection points: 2
#     Edge 107, Type (0, 0), BuildingBlock: XIVTED_clean_linker_0, # of connection points: 2
#     Edge 108, Type (0, 0), BuildingBlock: XIVTED_clean_linker_0, # of connection points: 2
#     Edge 109, Type (0, 0), BuildingBlock: XIVTED_clean_linker_0, # of connection points: 2
#     Edge 110, Type (0, 0), BuildingBlock: XIVTED_clean_linker_0, # of connection points: 2
#     Edge 111, Type (0, 0), BuildingBlock: XIVTED_clean_linker_0, # of connection points: 2
#     Edge 112, Type (0, 0), BuildingBlock: XIVTED_clean_linker_0, # of connection points: 2
#     Edge 113, Type (0, 0), BuildingBlock: XIVTED_clean_linker_0, # of connection points: 2
#     Edge 114, Type (0, 0), BuildingBlock: XIVTED_clean_linker_0, # of connection points: 2
#     Edge 115, Type (0, 0), BuildingBlock: XIVTED_clean_linker_0, # of connection points: 2
#     Edge 116, Type (0, 0), BuildingBlock: XIVTED_clean_linker_0, # of connection points: 2
#     Edge 117, Type (0, 0), BuildingBlock: XIVTED_clean_linker_0, # of connection points: 2
#     Edge 118, Type (0, 0), BuildingBlock: XIVTED_clean_linker_0, # of connection points: 2
#     Edge 119, Type (0, 0), BuildingBlock: XIVTED_clean_linker_0, # of connection points: 2
#     Edge 120, Type (0, 0), BuildingBlock: XIVTED_clean_linker_0, # of connection points: 2
#     Edge 121, Type (0, 0), BuildingBlock: XIVTED_clean_linker_0, # of connection points: 2
#     Edge 122, Type (0, 0), BuildingBlock: XIVTED_clean_linker_0, # of connection points: 2
#     Edge 123, Type (0, 0), BuildingBlock: XIVTED_clean_linker_0, # of connection points: 2
#     Edge 124, Type (0, 0), BuildingBlock: XIVTED_clean_linker_0, # of connection points: 2
#     Edge 125, Type (0, 0), BuildingBlock: XIVTED_clean_linker_0, # of connection points: 2
#     Edge 126, Type (0, 0), BuildingBlock: XIVTED_clean_linker_0, # of connection points: 2
#     Edge 127, Type (0, 0), BuildingBlock: XIVTED_clean_linker_0, # of connection points: 2
#     Edge 128, Type (0, 0), BuildingBlock: XIVTED_clean_linker_0, # of connection points: 2
#     Edge 129, Type (0, 0), BuildingBlock: XIVTED_clean_linker_0, # of connection points: 2
#     Edge 130, Type (0, 0), BuildingBlock: XIVTED_clean_linker_0, # of connection points: 2
#     Edge 131, Type (0, 0), BuildingBlock: XIVTED_clean_linker_0, # of connection points: 2
#     Edge 132, Type (0, 0), BuildingBlock: XIVTED_clean_linker_0, # of connection points: 2
#     Edge 133, Type (0, 0), BuildingBlock: XIVTED_clean_linker_0, # of connection points: 2
#     Edge 134, Type (0, 0), BuildingBlock: XIVTED_clean_linker_0, # of connection points: 2
#     Edge 135, Type (0, 0), BuildingBlock: XIVTED_clean_linker_0, # of connection points: 2
#     Edge 136, Type (0, 0), BuildingBlock: XIVTED_clean_linker_0, # of connection points: 2
#     Edge 137, Type (0, 0), BuildingBlock: XIVTED_clean_linker_0, # of connection points: 2
#     Edge 138, Type (0, 0), BuildingBlock: XIVTED_clean_linker_0, # of connection points: 2
#     Edge 139, Type (0, 0), BuildingBlock: XIVTED_clean_linker_0, # of connection points: 2
#     Edge 140, Type (0, 0), BuildingBlock: XIVTED_clean_linker_0, # of connection points: 2
#     Edge 141, Type (0, 0), BuildingBlock: XIVTED_clean_linker_0, # of connection points: 2
#     Edge 142, Type (0, 0), BuildingBlock: XIVTED_clean_linker_0, # of connection points: 2
#     Edge 143, Type (0, 0), BuildingBlock: XIVTED_clean_linker_0, # of connection points: 2
#     Edge 144, Type (0, 0), BuildingBlock: XIVTED_clean_linker_0, # of connection points: 2
#     Edge 145, Type (0, 0), BuildingBlock: XIVTED_clean_linker_0, # of connection points: 2
#     Edge 146, Type (0, 0), BuildingBlock: XIVTED_clean_linker_0, # of connection points: 2
#     Edge 147, Type (0, 0), BuildingBlock: XIVTED_clean_linker_0, # of connection points: 2
#     Edge 148, Type (0, 0), BuildingBlock: XIVTED_clean_linker_0, # of connection points: 2
#     Edge 149, Type (0, 0), BuildingBlock: XIVTED_clean_linker_0, # of connection points: 2
#     Edge 150, Type (0, 0), BuildingBlock: XIVTED_clean_linker_0, # of connection points: 2
#     Edge 151, Type (0, 0), BuildingBlock: XIVTED_clean_linker_0, # of connection points: 2
#     Edge 152, Type (0, 0), BuildingBlock: XIVTED_clean_linker_0, # of connection points: 2
#     Edge 153, Type (0, 0), BuildingBlock: XIVTED_clean_linker_0, # of connection points: 2
#     Edge 154, Type (0, 0), BuildingBlock: XIVTED_clean_linker_0, # of connection points: 2
#     Edge 155, Type (0, 0), BuildingBlock: XIVTED_clean_linker_0, # of connection points: 2
#     Edge 156, Type (0, 0), BuildingBlock: XIVTED_clean_linker_0, # of connection points: 2
#     Edge 157, Type (0, 0), BuildingBlock: XIVTED_clean_linker_0, # of connection points: 2
#     Edge 158, Type (0, 0), BuildingBlock: XIVTED_clean_linker_0, # of connection points: 2
#     Edge 159, Type (0, 0), BuildingBlock: XIVTED_clean_linker_0, # of connection points: 2
#     Edge 160, Type (0, 0), BuildingBlock: XIVTED_clean_linker_0, # of connection points: 2
#     Edge 161, Type (0, 0), BuildingBlock: XIVTED_clean_linker_0, # of connection points: 2
#     Edge 162, Type (0, 0), BuildingBlock: XIVTED_clean_linker_0, # of connection points: 2
#     Edge 163, Type (0, 0), BuildingBlock: XIVTED_clean_linker_0, # of connection points: 2
#     Edge 164, Type (0, 0), BuildingBlock: XIVTED_clean_linker_0, # of connection points: 2
#     Edge 165, Type (0, 0), BuildingBlock: XIVTED_clean_linker_0, # of connection points: 2
#     Edge 166, Type (0, 0), BuildingBlock: XIVTED_clean_linker_0, # of connection points: 2
#     Edge 167, Type (0, 0), BuildingBlock: XIVTED_clean_linker_0, # of connection points: 2
# Relax obj value: 0.337
# Max RMSD: 0.241
# Mean RMSD: 0.241
data_MOF--net-fcs--node1-XOMCOT_clean_sbu_1--edge1-XIVTED_clean_linker_0
_symmetry_space_group_name_H-M    P1
_symmetry_Int_Tables_number       1
_symmetry_cell_setting            triclinic
loop_
_symmetry_equiv_pos_as_xyz
'x, y, z'
_cell_length_a     57.707214
_cell_length_b     57.693408
_cell_length_c     57.707845
_cell_angle_alpha  90.009925
_cell_angle_beta   90.012015
_cell_angle_gamma 89.986959
loop_
_atom_site_label
_atom_site_type_symbol
_atom_site_fract_x
_atom_site_fract_y
_atom_site_fract_z
_atom_type_partial_charge
C0 C 0.05946 0.14983 0.24491 0.0
C1 C 0.07787 0.14111 0.23259 0.0
N2 N 0.07631 0.11782 0.23252 0.0
N3 N 0.04628 0.13217 0.25266 0.0
C4 C 0.05722 0.11283 0.24511 0.0
H5 H 0.05506 0.16796 0.24667 0.0
Co6 Co 0.01655 0.13632 0.26509 0.0
C7 C 0.9941 0.09069 0.25475 0.0
O8 O 0.97655 0.10132 0.245 0.0
N9 N 0.98619 0.14132 0.27797 0.0
C10 C 0.94859 0.14967 0.28257 0.0
C11 C 0.96556 0.14372 0.26697 0.0
C12 C 0.98093 0.14595 0.30043 0.0
N13 N 0.95831 0.15117 0.30366 0.0
O14 O 0.02942 0.13297 0.29575 0.0
H15 H 0.9628 0.14208 0.24854 0.0
H16 H 0.99355 0.14655 0.3142 0.0
O17 O 0.01083 0.10257 0.26318 0.0
C18 C 0.03807 0.1525 0.30158 0.0
O19 O 0.03536 0.17013 0.28742 0.0
N20 N 0.00594 0.14232 0.23488 0.0
C21 C 0.01052 0.16308 0.19131 0.0
C22 C 0.01436 0.13913 0.19428 0.0
C23 C 0.01162 0.129 0.21615 0.0
C24 C 1.00021 0.16504 0.23194 0.0
C25 C 1.0014 0.17546 0.21021 0.0
H26 H 0.01705 0.11124 0.21845 0.0
H27 H 0.99666 0.17576 0.24691 0.0
H28 H 0.05031 0.09554 0.24697 0.0
H29 H 0.09081 0.15121 0.22353 0.0
H30 H 0.93058 0.153 0.27855 0.0
H31 H 0.02152 0.12854 0.18058 0.0
H32 H 0.99701 0.19363 0.2089 0.0
C33 C 0.39458 0.69576 0.01158 0.0
C34 C 0.38519 0.67797 0.02435 0.0
N35 N 0.36208 0.68104 0.02526 0.0
N36 N 0.37751 0.71002 0.00446 0.0
C37 C 0.35784 0.70044 0.01289 0.0
H38 H 0.41286 0.69885 0.00888 0.0
Co39 Co 0.38294 0.73914 0.99145 0.0
C40 C 0.33739 0.7631 0.99264 0.0
O41 O 0.34794 0.7826 0.99774 0.0
N42 N 0.38946 0.76894 0.97797 0.0
C43 C 0.40386 0.80435 0.97154 0.0
C44 C 0.39702 0.78869 0.98819 0.0
C45 C 0.39127 0.77364 0.95501 0.0
N46 N 0.4006 0.79468 0.95059 0.0
O47 O 0.38346 0.72506 0.96126 0.0
H48 H 0.39841 0.79156 0.00661 0.0
H49 H 0.38658 0.76155 0.94154 0.0
O50 O 0.34936 0.74472 0.98941 0.0
C51 C 0.40458 0.72007 0.95691 0.0
O52 O 0.42026 0.72567 0.97246 0.0
N53 N 0.3852 0.75081 0.0216 0.0
C54 C 0.39859 0.74372 0.0674 0.0
C55 C 0.375 0.74499 0.06147 0.0
C56 C 0.36859 0.74862 0.03834 0.0
C57 C 0.40803 0.75196 0.02752 0.0
C58 C 0.41509 0.74883 0.05035 0.0
H59 H 0.3506 0.74647 0.03376 0.0
H60 H 0.42104 0.75248 0.01403 0.0
H61 H 0.34096 0.70841 0.01162 0.0
H62 H 0.39473 0.66427 0.0329 0.0
H63 H 0.412 0.82094 0.97475 0.0
H64 H 0.36172 0.7411 0.07414 0.0
H65 H 0.43347 0.74763 0.05395 0.0
C66 C 0.94442 0.35677 0.24297 0.0
C67 C 0.92629 0.36599 0.2306 0.0
N68 N 0.9282 0.38926 0.23099 0.0
N69 N 0.95779 0.3741 0.25119 0.0
C70 C 0.94725 0.39372 0.24384 0.0
H71 H 0.94846 0.33854 0.24458 0.0
Co72 Co 0.98714 0.36951 0.26434 0.0
C73 C 0.01059 0.41446 0.25337 0.0
O74 O 0.02807 0.40347 0.2439 0.0
N75 N 0.01705 0.36415 0.27797 0.0
C76 C 0.05435 0.35528 0.2837 0.0
C77 C 0.03789 0.36123 0.26755 0.0
C78 C 0.02164 0.35979 0.30062 0.0
N79 N 0.04407 0.35428 0.30457 0.0
O80 O 0.97373 0.37381 0.29457 0.0
H81 H 0.04108 0.36245 0.24914 0.0
H82 H 0.00863 0.35957 0.31402 0.0
O83 O 0.99366 0.40295 0.26186 0.0
C84 C 0.9646 0.35445 0.30022 0.0
O85 O 0.96729 0.33675 0.28613 0.0
N86 N 0.9982 0.36252 0.23457 0.0
C87 C 0.98975 0.3396 0.19299 0.0
C88 C 0.98827 0.36389 0.19419 0.0
C89 C 0.99278 0.37515 0.21525 0.0
C90 C 0.00248 0.33936 0.23283 0.0
C91 C 0.99895 0.32768 0.21205 0.0
H92 H 0.98847 0.3933 0.21672 0.0
H93 H 0.00575 0.32931 0.2483 0.0
H94 H 0.95432 0.41088 0.24623 0.0
H95 H 0.91322 0.35626 0.2213 0.0
H96 H 0.0724 0.35157 0.2802 0.0
H97 H 0.98115 0.37382 0.17994 0.0
H98 H 1.00092 0.309 0.21174 0.0
C99 C 0.61388 0.81651 0.99816 0.0
C100 C 0.62459 0.83626 0.00616 0.0
N101 N 0.64743 0.83191 0.00799 0.0
N102 N 0.62994 0.79987 0.99471 0.0
C103 C 0.65023 0.80981 1.00093 0.0
H104 H 0.59546 0.81424 0.99566 0.0
Co105 Co 0.62352 0.76951 0.9852 0.0
C106 C 0.66652 0.74444 0.99976 0.0
O107 O 0.65431 0.72834 0.01015 0.0
N108 N 0.61649 0.73852 0.97515 0.0
C109 C 0.60497 0.70152 0.9736 0.0
C110 C 0.61102 0.71958 0.98793 0.0
C111 C 0.61371 0.73113 0.953 0.0
N112 N 0.60661 0.70885 0.95157 0.0
O113 O 0.62938 0.7789 0.95382 0.0
H114 H 0.61086 0.71879 0.00663 0.0
H115 H 0.6159 0.74206 0.93799 0.0
O116 O 0.65624 0.76116 0.98951 0.0
C117 C 0.61032 0.78769 0.94681 0.0
O118 O 0.59209 0.78617 0.96035 0.0
N119 N 0.61508 0.76276 0.01576 0.0
C120 C 0.59235 0.77349 0.05696 0.0
C121 C 0.61668 0.77369 0.05589 0.0
C122 C 0.62781 0.76832 0.03495 0.0
C123 C 0.59162 0.76059 0.0172 0.0
C124 C 0.57998 0.76535 0.03773 0.0
H125 H 0.64622 0.77141 0.03354 0.0
H126 H 0.58161 0.75742 1.00167 0.0
H127 H 0.66674 0.80104 1.00071 0.0
H128 H 0.61613 0.85227 0.01108 0.0
H129 H 0.59952 0.68442 0.97905 0.0
H130 H 0.62685 0.78019 0.07027 0.0
H131 H 0.56121 0.76473 0.03787 0.0
C132 C 0.06502 0.86035 0.25927 0.0
C133 C 0.08218 0.86993 0.27269 0.0
N134 N 0.07894 0.89303 0.27331 0.0
N135 N 0.05099 0.87729 0.25137 0.0
C136 C 0.0601 0.89708 0.26006 0.0
H137 H 0.06202 0.84201 0.25685 0.0
Co138 Co 0.02223 0.87145 0.23768 0.0
C139 C 0.99677 0.91645 0.24283 0.0
O140 O 0.97772 0.90553 0.2487 0.0
N141 N 0.99289 0.86447 0.22367 0.0
C142 C 0.95678 0.8518 0.21757 0.0
C143 C 0.97247 0.85911 0.23395 0.0
C144 C 0.9888 0.86033 0.2009 0.0
N145 N 0.96717 0.85233 0.19673 0.0
O146 O 0.03624 0.87456 0.20759 0.0
H147 H 0.96911 0.85973 0.25235 0.0
H148 H 1.00157 0.86255 0.18746 0.0
O149 O 0.01506 0.90484 0.23816 0.0
C150 C 0.04589 0.85546 0.20196 0.0
O151 O 0.04399 0.83777 0.21616 0.0
N152 N 0.0106 0.86609 0.26746 0.0
C153 C 0.01612 0.84896 0.31224 0.0
C154 C 0.01513 0.87297 0.30819 0.0
C155 C 0.01237 0.88125 0.28555 0.0
C156 C 0.00917 0.84285 0.27142 0.0
C157 C 0.01159 0.83392 0.29371 0.0
H158 H 0.0147 0.89955 0.28249 0.0
H159 H 0.0089 0.83101 0.25688 0.0
H160 H 0.05203 0.91388 0.25847 0.0
H161 H 0.09545 0.86051 0.28204 0.0
H162 H 0.93948 0.84542 0.22099 0.0
H163 H 0.01852 0.88518 0.32204 0.0
H164 H 0.01257 0.8153 0.29587 0.0
C165 C 0.10805 0.69101 0.00565 0.0
C166 C 0.11757 0.67108 0.99676 0.0
N167 N 0.14015 0.67505 0.99245 0.0
N168 N 0.12458 0.70745 0.00722 0.0
C169 C 0.14398 0.6972 0.99894 0.0
H170 H 0.09003 0.69355 0.01002 0.0
Co171 Co 0.11886 0.73785 0.01657 0.0
C172 C 0.16373 0.76256 0.01096 0.0
O173 O 0.15248 0.78103 0.00393 0.0
N174 N 0.11211 0.76893 0.02645 0.0
C175 C 0.099 0.80534 0.02855 0.0
C176 C 0.10418 0.78719 0.01399 0.0
C177 C 0.11186 0.77687 0.04859 0.0
N178 N 0.10366 0.79876 0.05041 0.0
O179 O 0.1199 0.7276 0.04826 0.0
H180 H 0.10204 0.78761 0.99542 0.0
H181 H 0.11662 0.76649 0.0634 0.0
O182 O 0.15242 0.74434 0.01663 0.0
C183 C 0.09927 0.72217 0.05413 0.0
O184 O 0.08242 0.72648 0.03941 0.0
N185 N 0.11523 0.74557 0.98532 0.0
C186 C 0.1009 0.73702 0.94 0.0
C187 C 0.12459 0.73839 0.94544 0.0
C188 C 0.13147 0.74269 0.96832 0.0
C189 C 0.09224 0.74581 0.97996 0.0
C190 C 0.0847 0.74203 0.95737 0.0
H191 H 0.14959 0.74101 0.97255 0.0
H192 H 0.07957 0.74683 0.99373 0.0
H193 H 0.16049 0.70585 0.99723 0.0
H194 H 0.10839 0.65516 0.99298 0.0
H195 H 0.09201 0.82196 0.0234 0.0
H196 H 0.13762 0.73439 0.93253 0.0
H197 H 0.06627 0.74062 0.95413 0.0
C198 C 0.93907 0.64458 0.25743 0.0
C199 C 0.92112 0.63492 0.26971 0.0
N200 N 0.92471 0.6119 0.27103 0.0
N201 N 0.95394 0.62777 0.25092 0.0
C202 C 0.94458 0.60798 0.25933 0.0
H203 H 0.94188 0.66291 0.2548 0.0
Co204 Co 0.9834 0.63388 0.23894 0.0
C205 C 0.00867 0.58872 0.24327 0.0
O206 O 0.02768 0.59944 0.2496 0.0
N207 N 0.01346 0.64115 0.22667 0.0
C208 C 0.05007 0.65324 0.22281 0.0
C209 C 0.0332 0.64652 0.23821 0.0
C210 C 0.01913 0.64483 0.20415 0.0
N211 N 0.04116 0.65233 0.20131 0.0
O212 O 0.97092 0.6317 0.20816 0.0
H213 H 0.03545 0.64583 0.25678 0.0
H214 H 0.00708 0.64302 0.18998 0.0
O215 O 0.99043 0.60047 0.23873 0.0
C216 C 0.96219 0.65115 0.20228 0.0
O217 O 0.96426 0.66873 0.21662 0.0
N218 N 0.99351 0.63819 0.2694 0.0
C219 C 0.9865 0.65335 0.31467 0.0
C220 C 0.9879 0.62955 0.30966 0.0
C221 C 0.99142 0.62226 0.28679 0.0
C222 C 0.99442 0.66126 0.27435 0.0
C223 C 0.99126 0.66922 0.29691 0.0
H224 H 0.98952 0.60407 0.28292 0.0
H225 H 0.99499 0.67368 0.26032 0.0
H226 H 0.95305 0.59131 0.25866 0.0
H227 H 0.90701 0.64425 0.27781 0.0
H228 H 0.06747 0.65864 0.22725 0.0
H229 H 0.98431 0.61674 0.32289 0.0
H230 H 0.98996 0.68772 0.29982 0.0
C231 C 0.89898 0.80885 0.99791 0.0
C232 C 0.89032 0.82733 0.98561 0.0
N233 N 0.86744 0.82398 0.9825 0.0
N234 N 0.88166 0.79388 0.00255 0.0
C235 C 0.86259 0.80371 0.99311 0.0
H236 H 0.91702 0.80584 0.00195 0.0
Co237 Co 0.88654 0.76398 0.01376 0.0
C238 C 0.84036 0.74092 0.01324 0.0
O239 O 0.85023 0.72105 0.00826 0.0
N240 N 0.8925 0.73339 0.02534 0.0
C241 C 0.90465 0.69681 0.02922 0.0
C242 C 0.89972 0.71427 0.01377 0.0
C243 C 0.89287 0.72667 0.04786 0.0
N244 N 0.90053 0.70471 0.05075 0.0
O245 O 0.88747 0.77625 0.0447 0.0
H246 H 0.90161 0.7128 0.99523 0.0
H247 H 0.8886 0.73799 0.06214 0.0
O248 O 0.85285 0.75906 0.01588 0.0
C249 C 0.90856 0.78034 0.04991 0.0
O250 O 0.92462 0.77461 0.03479 0.0
N251 N 0.8882 0.75401 0.98301 0.0
C252 C 0.90014 0.7607 0.93676 0.0
C253 C 0.87675 0.75931 0.94341 0.0
C254 C 0.87108 0.75586 0.96675 0.0
C255 C 0.91088 0.75341 0.9765 0.0
C256 C 0.91722 0.75631 0.95344 0.0
H257 H 0.85317 0.75752 0.97182 0.0
H258 H 0.92424 0.75306 0.98965 0.0
H259 H 0.84586 0.79537 0.99227 0.0
H260 H 0.90025 0.8417 0.97877 0.0
H261 H 0.91115 0.67977 0.02488 0.0
H262 H 0.86306 0.76274 0.93103 0.0
H263 H 0.93547 0.75768 0.94925 0.0
C264 C 0.25276 0.06752 0.14136 0.0
C265 C 0.24448 0.08713 0.13064 0.0
N266 N 0.24153 0.08236 0.108 0.0
N267 N 0.25532 0.05053 0.12552 0.0
C268 C 0.24813 0.06008 0.10535 0.0
H269 H 0.25641 0.06572 0.15964 0.0
Co270 Co 0.26597 0.02069 0.13224 0.0
C271 C 0.26186 0.99496 0.08772 0.0
O272 O 0.25523 0.97632 0.09895 0.0
N273 N 0.27731 0.9902 0.13986 0.0
C274 C 0.28139 0.9547 0.15494 0.0
C275 C 0.26581 0.97133 0.1478 0.0
C276 C 0.29991 0.984 0.14179 0.0
N277 N 0.30293 0.96288 0.1515 0.0
O278 O 0.29709 0.03248 0.13144 0.0
H279 H 0.24722 0.9697 0.14913 0.0
H280 H 0.31416 0.99502 0.13683 0.0
O281 O 0.26678 0.01339 0.099 0.0
C282 C 0.30178 0.03829 0.15227 0.0
O283 O 0.28644 0.03343 0.1684 0.0
N284 N 0.23511 0.01155 0.13577 0.0
C285 C 0.18958 0.01864 0.15033 0.0
C286 C 0.19499 0.01758 0.12659 0.0
C287 C 0.21799 0.01401 0.1196 0.0
C288 C 0.22983 0.01096 0.15877 0.0
C289 C 0.20717 0.01401 0.1664 0.0
H290 H 0.22218 0.01592 0.10148 0.0
H291 H 0.24365 0.01034 0.17141 0.0
H292 H 0.24758 0.05098 0.08902 0.0
H293 H 0.24044 0.10347 0.13894 0.0
H294 H 0.27711 0.93847 0.16331 0.0
H295 H 0.18193 0.02126 0.11362 0.0
H296 H 0.20401 0.01519 0.18487 0.0
C297 C 0.30772 0.50047 0.10544 0.0
C298 C 0.32755 0.50931 0.11523 0.0
N299 N 0.32325 0.51377 0.13773 0.0
N300 N 0.29103 0.49907 0.12172 0.0
C301 C 0.30101 0.50744 0.14122 0.0
H302 H 0.30549 0.49586 0.08743 0.0
Co303 Co 0.26074 0.48939 0.11584 0.0
C304 C 0.2365 0.49173 0.16141 0.0
O305 O 0.21723 0.49781 0.15095 0.0
N306 N 0.22978 0.47918 0.10893 0.0
C307 C 0.19357 0.47688 0.09529 0.0
C308 C 0.21141 0.49158 0.10115 0.0
C309 C 0.22217 0.45692 0.10799 0.0
N310 N 0.20043 0.45501 0.09943 0.0
O311 O 0.2716 0.45793 0.11542 0.0
H312 H 0.21077 0.51019 0.09944 0.0
H313 H 0.23271 0.44212 0.11248 0.0
O314 O 0.25472 0.48778 0.14941 0.0
C315 C 0.27639 0.45272 0.09446 0.0
O316 O 0.27119 0.46782 0.07821 0.0
N317 N 0.25237 0.52061 0.11366 0.0
C318 C 0.26023 0.56668 0.10145 0.0
C319 C 0.25851 0.5602 0.12486 0.0
C320 C 0.25453 0.53695 0.13067 0.0
C321 C 0.2524 0.52695 0.09092 0.0
C322 C 0.25587 0.54991 0.08444 0.0
H323 H 0.25585 0.53197 0.14863 0.0
H324 H 0.25188 0.51371 0.07766 0.0
H325 H 0.29215 0.50921 0.1576 0.0
H326 H 0.34367 0.51283 0.10632 0.0
H327 H 0.17698 0.48196 0.08817 0.0
H328 H 0.26195 0.57262 0.13851 0.0
H329 H 0.25753 0.55394 0.06618 0.0
C330 C 0.75564 0.44721 0.14837 0.0
C331 C 0.76742 0.42857 0.13933 0.0
N332 N 0.76992 0.43192 0.11638 0.0
N333 N 0.75073 0.4623 0.13123 0.0
C334 C 0.75946 0.45236 0.11186 0.0
H335 H 0.75211 0.45023 0.16652 0.0
Co336 Co 0.73989 0.49229 0.13655 0.0
C337 C 0.74328 0.51632 0.09117 0.0
O338 O 0.74968 0.53528 0.10197 0.0
N339 N 0.72857 0.52303 0.1429 0.0
C340 C 0.72494 0.55945 0.15562 0.0
C341 C 0.74026 0.54194 0.15046 0.0
C342 C 0.70609 0.52997 0.14332 0.0
N343 N 0.70334 0.55183 0.15135 0.0
O344 O 0.70876 0.48052 0.1366 0.0
H345 H 0.75881 0.54321 0.15241 0.0
H346 H 0.69174 0.51887 0.13879 0.0
O347 O 0.73871 0.49806 0.1029 0.0
C348 C 0.70349 0.47641 0.15769 0.0
O349 O 0.71882 0.48156 0.17374 0.0
N350 N 0.77081 0.50166 0.13927 0.0
C351 C 0.81639 0.49337 0.15286 0.0
C352 C 0.81058 0.49478 0.12925 0.0
C353 C 0.78757 0.49898 0.12274 0.0
C354 C 0.7766 0.50229 0.16215 0.0
C355 C 0.79933 0.49858 0.16931 0.0
H356 H 0.78305 0.49715 0.10471 0.0
H357 H 0.76306 0.50321 0.17507 0.0
H358 H 0.75985 0.4607 0.09511 0.0
H359 H 0.77429 0.41406 0.14904 0.0
H360 H 0.72945 0.57635 0.16238 0.0
H361 H 0.82326 0.49075 0.11601 0.0
H362 H 0.80284 0.49724 0.1877 0.0
C363 C 0.69573 0.99247 0.11098 0.0
C364 C 0.67764 0.98067 0.12101 0.0
N365 N 0.67816 0.98479 0.14395 0.0
N366 N 0.70784 0.00361 0.12762 0.0
C367 C 0.69636 0.99901 0.14751 0.0
H368 H 0.70079 0.99161 0.09295 0.0
Co369 Co 0.73696 0.01719 0.12288 0.0
C370 C 0.75662 1.00078 0.16895 0.0
O371 O 0.77016 0.98519 0.15942 0.0
N372 N 0.76598 0.03133 0.1176 0.0
C373 C 0.80331 0.04097 0.11553 0.0
C374 C 0.7875 0.02583 0.12499 0.0
C375 C 0.76932 0.0497 0.10343 0.0
N376 N 0.79182 0.05601 0.1019 0.0
O377 O 0.72348 0.04738 0.12818 0.0
H378 H 0.79186 0.01139 0.13591 0.0
H379 H 0.75542 0.05828 0.0943 0.0
O380 O 0.74397 0.01399 0.15636 0.0
C381 C 0.71152 0.05314 0.11045 0.0
O382 O 0.71074 0.03877 0.09279 0.0
N383 N 0.74881 0.98762 0.11475 0.0
C384 C 0.74598 0.94674 0.08902 0.0
C385 C 0.73999 0.94693 0.11257 0.0
C386 C 0.74144 0.96758 0.12513 0.0
C387 C 0.75732 0.98693 0.09269 0.0
C388 C 0.75633 0.96661 0.07962 0.0
H389 H 0.73361 0.96803 0.14213 0.0
H390 H 0.7622 0.00278 0.08399 0.0
H391 H 0.70214 0.00445 0.1645 0.0
H392 H 0.66561 0.9692 0.11231 0.0
H393 H 0.82188 0.04047 0.11803 0.0
H394 H 0.73166 0.93211 0.12053 0.0
H395 H 0.76147 0.96714 0.06158 0.0
C396 C 0.25746 0.93846 0.36741 0.0
C397 C 0.24905 0.91902 0.37835 0.0
N398 N 0.24398 0.9247 0.40039 0.0
N399 N 0.258 0.95625 0.38257 0.0
C400 C 0.24947 0.94732 0.40249 0.0
H401 H 0.2625 0.93956 0.34942 0.0
Co402 Co 0.26773 0.98637 0.37574 0.0
C403 C 0.26361 0.01179 0.42067 0.0
O404 O 0.25724 0.03082 0.40998 0.0
N405 N 0.27793 0.01711 0.36807 0.0
C406 C 0.27988 0.05353 0.35494 0.0
C407 C 0.26533 0.03576 0.36132 0.0
C408 C 0.30016 0.02442 0.36585 0.0
N409 N 0.30187 0.0463 0.35763 0.0
O410 O 0.29917 0.97566 0.37693 0.0
H411 H 0.24665 0.03668 0.36083 0.0
H412 H 0.31504 0.01362 0.36923 0.0
O413 O 0.2683 0.99361 0.40892 0.0
C414 C 0.30471 0.96915 0.35654 0.0
O415 O 0.29003 0.97316 0.33958 0.0
N416 N 0.23668 0.99458 0.37217 0.0
C417 C 0.1908 0.98908 0.3582 0.0
C418 C 0.19645 0.99061 0.38185 0.0
C419 C 0.21963 0.99332 0.38854 0.0
C420 C 0.23127 0.99458 0.3492 0.0
C421 C 0.20845 0.99226 0.34184 0.0
H422 H 0.22386 0.99203 0.4067 0.0
H423 H 0.24503 0.99448 0.33649 0.0
H424 H 0.24708 0.95714 0.41823 0.0
H425 H 0.24629 0.90219 0.37053 0.0
H426 H 0.27459 0.07033 0.34851 0.0
H427 H 0.18334 0.98806 0.39503 0.0
H428 H 0.20508 0.99066 0.32344 0.0
C429 C 0.20028 0.49977 0.8981 0.0
C430 C 0.18063 0.51047 0.88988 0.0
N431 N 0.18294 0.51341 0.86683 0.0
N432 N 0.215 0.49602 0.88037 0.0
C433 C 0.20379 0.50423 0.86146 0.0
H434 H 0.20422 0.49622 0.91608 0.0
Co435 Co 0.24582 0.48689 0.88423 0.0
C436 C 0.26731 0.50006 0.83936 0.0
O437 O 0.28452 0.50999 0.85041 0.0
N438 N 0.27756 0.47722 0.88868 0.0
C439 C 0.31488 0.47571 0.89922 0.0
C440 C 0.29636 0.49002 0.89461 0.0
C441 C 0.28566 0.45513 0.88924 0.0
N442 N 0.30805 0.4537 0.89595 0.0
O443 O 0.23624 0.45528 0.88041 0.0
H444 H 0.29681 0.50868 0.89604 0.0
H445 H 0.27519 0.44002 0.88583 0.0
O446 O 0.25115 0.4902 0.85085 0.0
C447 C 0.23231 0.44754 0.90077 0.0
O448 O 0.23656 0.46121 0.91849 0.0
N449 N 0.25296 0.51786 0.891 0.0
C450 C 0.24169 0.5594 0.91291 0.0
C451 C 0.24076 0.55761 0.88864 0.0
C452 C 0.24652 0.53655 0.87793 0.0
C453 C 0.25602 0.52013 0.9143 0.0
C454 C 0.25108 0.54088 0.9255 0.0
H455 H 0.24282 0.53458 0.8597 0.0
H456 H 0.25997 0.50501 0.92466 0.0
H457 H 0.21142 0.50521 0.84438 0.0
H458 H 0.16614 0.5164 0.90021 0.0
H459 H 0.33191 0.4811 0.90495 0.0
H460 H 0.23336 0.5714 0.87828 0.0
H461 H 0.25243 0.5416 0.94421 0.0
C462 C 0.74773 0.55667 0.35888 0.0
C463 C 0.75821 0.57606 0.36795 0.0
N464 N 0.76143 0.57263 0.39082 0.0
N465 N 0.74439 0.54106 0.37591 0.0
C466 C 0.75268 0.5514 0.39525 0.0
H467 H 0.74402 0.55361 0.34077 0.0
Co468 Co 0.73552 0.51051 0.37065 0.0
C469 C 0.74207 0.48703 0.41592 0.0
O470 O 0.74979 0.46864 0.40497 0.0
N471 N 0.72616 0.47914 0.36453 0.0
C472 C 0.7243 0.44279 0.35123 0.0
C473 C 0.73873 0.46109 0.3563 0.0
C474 C 0.70416 0.47085 0.36478 0.0
N475 N 0.70246 0.44905 0.35638 0.0
O476 O 0.70368 0.52037 0.37101 0.0
H477 H 0.75723 0.461 0.35364 0.0
H478 H 0.68929 0.481 0.36989 0.0
O479 O 0.73531 0.50464 0.40425 0.0
C480 C 0.69791 0.52379 0.34992 0.0
O481 O 0.7132 0.51896 0.33373 0.0
N482 N 0.76699 0.50317 0.36741 0.0
C483 C 0.81232 0.51219 0.35324 0.0
C484 C 0.80676 0.5109 0.37691 0.0
C485 C 0.78389 0.50648 0.38369 0.0
C486 C 0.7725 0.50281 0.34446 0.0
C487 C 0.79507 0.50687 0.337 0.0
H488 H 0.77961 0.50841 0.40177 0.0
H489 H 0.75882 0.50148 0.33171 0.0
H490 H 0.75397 0.54294 0.41192 0.0
H491 H 0.76379 0.59115 0.35831 0.0
H492 H 0.72949 0.42637 0.34379 0.0
H493 H 0.81955 0.51506 0.39 0.0
H494 H 0.79835 0.50818 0.31857 0.0
C495 C 0.81889 0.99935 0.89064 0.0
C496 C 0.83669 0.98673 0.88111 0.0
N497 N 0.83214 0.98364 0.85843 0.0
N498 N 0.80315 0.00426 0.87408 0.0
C499 C 0.81189 0.99466 0.85455 0.0
H500 H 0.81675 0.00316 0.90885 0.0
Co501 Co 0.77341 0.01525 0.88052 0.0
C502 C 0.7478 0.01024 0.83573 0.0
O503 O 0.72914 0.00353 0.84681 0.0
N504 N 0.74298 0.02649 0.88806 0.0
C505 C 0.70652 0.02911 0.90091 0.0
C506 C 0.72383 0.01427 0.89403 0.0
C507 C 0.73647 0.04884 0.89142 0.0
N508 N 0.71454 0.05093 0.89946 0.0
O509 O 0.78501 0.04654 0.87868 0.0
H510 H 0.72228 0.99562 0.89369 0.0
H511 H 0.74787 0.06344 0.88904 0.0
O512 O 0.76611 0.01536 0.84714 0.0
C513 C 0.79228 0.05238 0.89875 0.0
O514 O 0.7892 0.03771 0.9159 0.0
N515 N 0.7643 0.98441 0.88475 0.0
C516 C 0.77099 0.939 0.89975 0.0
C517 C 0.76963 0.9441 0.87598 0.0
C518 C 0.76618 0.96702 0.86877 0.0
C519 C 0.76382 0.97943 0.90783 0.0
C520 C 0.76674 0.95681 0.9157 0.0
H521 H 0.76772 0.97089 0.85055 0.0
H522 H 0.76342 0.99344 0.92028 0.0
H523 H 0.80265 0.99381 0.83829 0.0
H524 H 0.85129 0.97946 0.89038 0.0
H525 H 0.68948 0.02407 0.90688 0.0
H526 H 0.77296 0.93082 0.86314 0.0
H527 H 0.76809 0.95379 0.93418 0.0
C528 C 0.14178 0.24483 0.05519 0.0
C529 C 0.13135 0.23373 0.07349 0.0
N530 N 0.10847 0.23809 0.0725 0.0
N531 N 0.12545 0.25576 0.04248 0.0
C532 C 0.10532 0.25174 0.0538 0.0
H533 H 0.15987 0.24361 0.05044 0.0
Co534 Co 0.13095 0.26836 0.01306 0.0
C535 C 0.08508 0.25225 0.99272 0.0
O536 O 0.09476 0.2363 0.97974 0.0
N537 N 0.13705 0.28152 0.98364 0.0
C538 C 0.14027 0.28959 0.94599 0.0
C539 C 0.13056 0.27495 0.96212 0.0
C540 C 0.15101 0.3 0.97997 0.0
N541 N 0.15321 0.30536 0.95727 0.0
O542 O 0.12599 0.29905 0.02564 0.0
H543 H 0.12024 0.26003 0.95798 0.0
H544 H 0.15956 0.30935 0.99373 0.0
O545 O 0.0975 0.26554 0.00547 0.0
C546 C 0.14378 0.30476 0.03753 0.0
O547 O 0.16129 0.29021 0.0384 0.0
N548 N 0.1387 0.23826 0.00229 0.0
C549 C 0.16303 0.1966 0.00638 0.0
C550 C 0.13941 0.1977 0.01195 0.0
C551 C 0.12757 0.21872 0.00993 0.0
C552 C 0.16091 0.23674 0.99433 0.0
C553 C 0.17331 0.21601 0.99598 0.0
H554 H 0.11045 0.21986 0.0174 0.0
H555 H 0.17016 0.25222 0.98931 0.0
H556 H 0.08848 0.25712 0.04756 0.0
H557 H 0.13972 0.22249 0.08597 0.0
H558 H 0.13852 0.28823 0.92737 0.0
H559 H 0.1308 0.18329 0.02035 0.0
H560 H 0.19146 0.21587 0.9912 0.0
C561 C 0.14502 0.7568 0.44754 0.0
C562 C 0.13703 0.76774 0.42798 0.0
N563 N 0.11369 0.76694 0.42809 0.0
N564 N 0.12685 0.74911 0.46005 0.0
C565 C 0.10797 0.7551 0.44746 0.0
H566 H 0.16288 0.75605 0.45316 0.0
Co567 Co 0.12947 0.73813 0.49057 0.0
C568 C 0.08237 0.75554 0.5057 0.0
O569 O 0.09131 0.77178 0.51889 0.0
N570 N 0.13272 0.72638 0.52124 0.0
C571 C 0.12868 0.7155 0.55813 0.0
C572 C 0.11986 0.7291 0.54063 0.0
C573 C 0.1494 0.71117 0.52771 0.0
N574 N 0.14729 0.70408 0.54994 0.0
O575 O 0.12593 0.70682 0.47927 0.0
H576 H 0.10465 0.73968 0.5423 0.0
H577 H 0.16257 0.70484 0.51609 0.0
O578 O 0.0955 0.74131 0.49479 0.0
C579 C 0.14607 0.70056 0.4725 0.0
O580 O 0.16308 0.71562 0.47406 0.0
N581 N 0.13627 0.76877 0.50042 0.0
C582 C 0.16084 0.81039 0.4973 0.0
C583 C 0.13802 0.80888 0.48912 0.0
C584 C 0.1261 0.78789 0.49068 0.0
C585 C 0.1575 0.77076 0.51067 0.0
C586 C 0.16998 0.79146 0.50951 0.0
H587 H 0.10976 0.78649 0.4817 0.0
H588 H 0.16617 0.7556 0.51738 0.0
H589 H 0.09034 0.7528 0.45336 0.0
H590 H 0.14757 0.77663 0.41527 0.0
H591 H 0.12164 0.71397 0.57543 0.0
H592 H 0.13031 0.8229 0.47931 0.0
H593 H 0.18748 0.79193 0.51628 0.0
C594 C 0.00497 0.60367 0.81337 0.0
C595 C 0.01647 0.61299 0.83205 0.0
N596 N 0.01954 0.63579 0.82813 0.0
N597 N 1.00084 0.6205 0.7977 0.0
C598 C 0.00969 0.63995 0.80733 0.0
H599 H 1.0012 0.58551 0.81073 0.0
Co600 Co 0.99086 0.61474 0.76752 0.0
C601 C 0.99735 0.6594 0.74261 0.0
O602 O 0.00453 0.64801 0.72429 0.0
N603 N 0.98039 0.60804 0.73657 0.0
C604 C 0.97773 0.59488 0.70022 0.0
C605 C 0.99255 0.59994 0.71818 0.0
C606 C 0.95816 0.60805 0.72886 0.0
N607 N 0.95601 0.59982 0.70702 0.0
O608 O 0.95934 0.61647 0.7782 0.0
H609 H 0.01109 0.59761 0.71755 0.0
H610 H 0.94351 0.61306 0.73936 0.0
O611 O 0.99133 0.64822 0.76078 0.0
C612 C 0.95331 0.5958 0.78326 0.0
O613 O 0.96814 0.57903 0.77903 0.0
N614 N 0.022 0.61032 0.75941 0.0
C615 C 0.06676 0.59466 0.76878 0.0
C616 C 0.06202 0.61851 0.76733 0.0
C617 C 0.03943 0.62606 0.76253 0.0
C618 C 0.02674 0.58718 0.75917 0.0
C619 C 0.04905 0.57899 0.76336 0.0
H620 H 0.03568 0.64431 0.7641 0.0
H621 H 0.01264 0.57489 0.75796 0.0
H622 H 0.01073 0.65644 0.79854 0.0
H623 H 0.02286 0.60354 0.84695 0.0
H624 H 0.98262 0.58782 0.68355 0.0
H625 H 0.07522 0.63116 0.77159 0.0
H626 H 0.05176 0.56046 0.76475 0.0
C627 C 0.85127 0.74484 0.44278 0.0
C628 C 0.86069 0.73296 0.42442 0.0
N629 N 0.8839 0.73287 0.42688 0.0
N630 N 0.86843 0.75223 0.45681 0.0
C631 C 0.88818 0.74494 0.44646 0.0
H632 H 0.833 0.74653 0.44652 0.0
Co633 Co 0.86323 0.76364 0.48664 0.0
C634 C 0.90904 0.75702 0.50932 0.0
O635 O 0.89925 0.74691 0.52719 0.0
N636 N 0.85732 0.77545 0.51714 0.0
C637 C 0.84742 0.77943 0.5544 0.0
C638 C 0.85267 0.76391 0.53705 0.0
C639 C 0.85502 0.79805 0.52323 0.0
N640 N 0.84885 0.80096 0.54563 0.0
O641 O 0.86444 0.79456 0.4745 0.0
H642 H 0.85282 0.74531 0.53909 0.0
H643 H 0.85701 0.81234 0.51134 0.0
O644 O 0.89659 0.76434 0.49254 0.0
C645 C 0.84437 0.80004 0.46703 0.0
O646 O 0.82736 0.78518 0.46994 0.0
N647 N 0.85962 0.73282 0.49639 0.0
C648 C 0.84419 0.68776 0.48837 0.0
C649 C 0.86798 0.69285 0.48846 0.0
C650 C 0.87538 0.71559 0.49234 0.0
C651 C 0.83668 0.72766 0.49865 0.0
C652 C 0.8286 0.70518 0.49497 0.0
H653 H 0.89332 0.71956 0.48901 0.0
H654 H 0.82425 0.74157 0.50062 0.0
H655 H 0.90522 0.74661 0.45408 0.0
H656 H 0.85112 0.7242 0.41087 0.0
H657 H 0.84277 0.77514 0.57205 0.0
H658 H 0.88059 0.67988 0.48345 0.0
H659 H 0.81008 0.7022 0.49474 0.0
C660 C 0.49152 0.39908 0.31112 0.0
C661 C 0.47874 0.38973 0.32888 0.0
N662 N 0.47963 0.36646 0.3271 0.0
N663 N 0.5005 0.38184 0.29815 0.0
C664 C 0.49321 0.36212 0.30854 0.0
H665 H 0.49291 0.41731 0.30701 0.0
Co666 Co 0.51443 0.38682 0.26926 0.0
C667 C 0.50402 0.34191 0.24514 0.0
O668 O 0.49487 0.3528 0.22742 0.0
N669 N 0.52883 0.39273 0.23991 0.0
C670 C 0.53558 0.40221 0.20295 0.0
C671 C 0.51917 0.39499 0.21863 0.0
C672 C 0.55124 0.39889 0.23642 0.0
N673 N 0.55578 0.40485 0.21422 0.0
O674 O 0.54432 0.38188 0.28328 0.0
H675 H 0.501 0.39293 0.21468 0.0
H676 H 0.56404 0.39968 0.25001 0.0
O677 O 0.51209 0.35349 0.26222 0.0
C678 C 0.55049 0.39986 0.29459 0.0
O679 O 0.53697 0.41818 0.29411 0.0
N680 N 0.48489 0.39386 0.2574 0.0
C681 C 0.44132 0.41489 0.2604 0.0
C682 C 0.44392 0.39084 0.26377 0.0
C683 C 0.4658 0.3806 0.26189 0.0
C684 C 0.48242 0.4167 0.25196 0.0
C685 C 0.46073 0.42732 0.25249 0.0
H686 H 0.46768 0.36274 0.26713 0.0
H687 H 0.49763 0.42732 0.24927 0.0
H688 H 0.49612 0.34498 0.30162 0.0
H689 H 0.46881 0.39935 0.34155 0.0
H690 H 0.53247 0.4065 0.18496 0.0
H691 H 0.42984 0.38021 0.27006 0.0
H692 H 0.45974 0.44563 0.24858 0.0
C693 C 0.36039 0.73939 0.55982 0.0
C694 C 0.37027 0.74779 0.57979 0.0
N695 N 0.39231 0.75378 0.57508 0.0
N696 N 0.3762 0.73977 0.54262 0.0
C697 C 0.39547 0.74882 0.55245 0.0
H698 H 0.34262 0.73384 0.55789 0.0
Co699 Co 0.37005 0.73105 0.51213 0.0
C700 C 0.41479 0.73781 0.48688 0.0
O701 O 0.40365 0.74383 0.468 0.0
N702 N 0.36281 0.7218 0.48095 0.0
C703 C 0.34841 0.72077 0.44498 0.0
C704 C 0.35473 0.73484 0.46316 0.0
C705 C 0.36153 0.69982 0.47265 0.0
N706 N 0.35253 0.69866 0.45104 0.0
O707 O 0.37261 0.69916 0.52153 0.0
H708 H 0.35303 0.75348 0.46323 0.0
H709 H 0.366 0.68464 0.48262 0.0
O710 O 0.40338 0.73229 0.50506 0.0
C711 C 0.35242 0.6924 0.52745 0.0
O712 O 0.33483 0.70631 0.52341 0.0
N713 N 0.36518 0.76239 0.50532 0.0
C714 C 0.35013 0.80746 0.51434 0.0
C715 C 0.37386 0.80255 0.51187 0.0
C716 C 0.3811 0.7798 0.5074 0.0
C717 C 0.34208 0.76719 0.50612 0.0
C718 C 0.33416 0.78962 0.51025 0.0
H719 H 0.39939 0.77604 0.50811 0.0
H720 H 0.32972 0.7531 0.50557 0.0
H721 H 0.41143 0.75201 0.54323 0.0
H722 H 0.36169 0.74997 0.59633 0.0
H723 H 0.34091 0.72642 0.42874 0.0
H724 H 0.38677 0.81582 0.51499 0.0
H725 H 0.31573 0.79241 0.51245 0.0
C726 C 0.00898 0.39636 0.69726 0.0
C727 C 0.02124 0.38727 0.67897 0.0
N728 N 0.02032 0.36398 0.68035 0.0
N729 N 1.00034 0.37892 0.71019 0.0
C730 C 0.00731 0.35938 0.69925 0.0
H731 H 0.00766 0.41453 0.70164 0.0
Co732 Co 0.98671 0.38316 0.73938 0.0
C733 C 0.99691 0.33798 0.7624 0.0
O734 O 0.00575 0.34896 0.78023 0.0
N735 N 0.9725 0.38818 0.76917 0.0
C736 C 0.96603 0.39797 0.80614 0.0
C737 C 0.98246 0.3913 0.79022 0.0
C738 C 0.94981 0.39289 0.77317 0.0
N739 N 0.94545 0.39923 0.79531 0.0
O740 O 0.95665 0.37983 0.72518 0.0
H741 H 1.00079 0.3901 0.79383 0.0
H742 H 0.93659 0.39235 0.76001 0.0
O743 O 0.98875 0.34955 0.74534 0.0
C744 C 0.95199 0.40002 0.71733 0.0
O745 O 0.96671 0.41685 0.72175 0.0
N746 N 0.01636 0.38954 0.75115 0.0
C747 C 0.05814 0.41238 0.74361 0.0
C748 C 0.05685 0.38813 0.74164 0.0
C749 C 0.03567 0.37691 0.7457 0.0
C750 C 0.01819 0.41261 0.75588 0.0
C751 C 0.03906 0.42423 0.75284 0.0
H752 H 0.03414 0.35886 0.74097 0.0
H753 H 0.00274 0.42273 0.75908 0.0
H754 H 0.00441 0.34212 0.70587 0.0
H755 H 0.03073 0.39709 0.66612 0.0
H756 H 0.96931 0.40288 0.82394 0.0
H757 H 0.07113 0.3783 0.73446 0.0
H758 H 0.03943 0.44287 0.75509 0.0
C759 C 0.01382 0.11074 0.68933 0.0
C760 C 0.00611 0.12104 0.66926 0.0
N761 N 0.99849 0.14248 0.6745 0.0
N762 N 0.01129 0.12568 0.7071 0.0
C763 C 1.00182 0.14484 0.69751 0.0
H764 H 0.02043 0.09328 0.69091 0.0
Co765 Co 0.01821 0.11923 0.73793 0.0
C766 C 0.01393 0.16423 0.76291 0.0
O767 O 0.00698 0.15326 0.78158 0.0
N768 N 0.0256 0.11196 0.76948 0.0
C769 C 0.02567 0.09711 0.80523 0.0
C770 C 0.01227 0.10226 0.78619 0.0
C771 C 0.04692 0.11298 0.7793 0.0
N772 N 0.04757 0.10367 0.80078 0.0
O773 O 0.05062 0.11892 0.72992 0.0
H774 H 0.994 0.09857 0.78482 0.0
H775 H 0.06212 0.11933 0.77042 0.0
O776 O 0.01904 0.15271 0.74466 0.0
C777 C 0.05647 0.09777 0.72698 0.0
O778 O 0.04087 0.0817 0.73113 0.0
N779 N 0.98643 0.11672 0.74356 0.0
C780 C 0.94039 0.10426 0.73593 0.0
C781 C 0.94661 0.12768 0.73845 0.0
C782 C 0.96986 0.13362 0.74233 0.0
C783 C 0.98044 0.09395 0.742 0.0
C784 C 0.95753 0.08732 0.7387 0.0
H785 H 0.97457 0.1517 0.74218 0.0
H786 H 0.99386 0.08087 0.74187 0.0
H787 H 0.99721 0.1602 0.70718 0.0
H788 H 0.00554 0.11312 0.65226 0.0
H789 H 0.01978 0.08861 0.82088 0.0
H790 H 0.93389 0.14128 0.73605 0.0
H791 H 0.95368 0.0691 0.73627 0.0
C792 C 0.56217 0.6476 0.74528 0.0
C793 C 0.58055 0.6383 0.73336 0.0
N794 N 0.57914 0.61503 0.73465 0.0
N795 N 0.54914 0.63033 0.7541 0.0
C796 C 0.56011 0.61065 0.74756 0.0
H797 H 0.55783 0.66581 0.74631 0.0
Co798 Co 0.52 0.63507 0.76766 0.0
C799 C 0.4961 0.59029 0.75706 0.0
O800 O 0.4786 0.60132 0.74767 0.0
N801 N 0.49033 0.64062 0.78177 0.0
C802 C 0.45327 0.65006 0.78813 0.0
C803 C 0.46928 0.64348 0.77176 0.0
C804 C 0.48631 0.6456 0.8044 0.0
N805 N 0.46405 0.65158 0.80872 0.0
O806 O 0.5338 0.63058 0.79767 0.0
H807 H 0.4657 0.6421 0.75344 0.0
H808 H 0.49954 0.6454 0.81757 0.0
O809 O 0.51324 0.60171 0.76523 0.0
C810 C 0.5437 0.64957 0.80325 0.0
O811 O 0.54162 0.66739 0.78922 0.0
N812 N 0.5085 0.64216 0.73805 0.0
C813 C 0.51478 0.66504 0.69602 0.0
C814 C 0.51706 0.64081 0.69735 0.0
C815 C 0.51364 0.62958 0.71863 0.0
C816 C 0.5037 0.66522 0.73636 0.0
C817 C 0.50603 0.67684 0.71538 0.0
H818 H 0.51844 0.61154 0.72006 0.0
H819 H 0.50073 0.67529 0.75189 0.0
H820 H 0.55347 0.59346 0.75074 0.0
H821 H 0.59352 0.64794 0.72385 0.0
H822 H 0.43539 0.65458 0.78478 0.0
H823 H 0.52389 0.63097 0.68291 0.0
H824 H 0.50342 0.69542 0.71505 0.0
C825 C 0.89994 0.19697 0.50821 0.0
C826 C 0.89086 0.17817 0.51965 0.0
N827 N 0.86757 0.17964 0.51887 0.0
N828 N 0.8825 0.21032 0.50023 0.0
C829 C 0.86294 0.19909 0.50669 0.0
H830 H 0.91811 0.20142 0.50712 0.0
Co831 Co 0.88676 0.24019 0.48818 0.0
C832 C 0.84124 0.26117 0.50166 0.0
O833 O 0.85145 0.27695 0.51445 0.0
N834 N 0.89146 0.2706 0.47564 0.0
C835 C 0.89797 0.30855 0.47111 0.0
C836 C 0.89241 0.29133 0.48665 0.0
C837 C 0.8964 0.276 0.45331 0.0
N838 N 0.90046 0.29884 0.4501 0.0
O839 O 0.88289 0.22767 0.45753 0.0
H840 H 0.89007 0.29395 0.50502 0.0
H841 H 0.89786 0.26341 0.43957 0.0
O842 O 0.85331 0.24624 0.49058 0.0
C843 C 0.90257 0.21913 0.45209 0.0
O844 O 0.92 0.22229 0.46641 0.0
N845 N 0.89357 0.25035 0.51843 0.0
C846 C 0.91687 0.24315 0.56013 0.0
C847 C 0.89281 0.23975 0.55868 0.0
C848 C 0.88141 0.2435 0.5376 0.0
C849 C 0.9164 0.25613 0.52033 0.0
C850 C 0.92823 0.25319 0.54115 0.0
H851 H 0.86367 0.23776 0.53603 0.0
H852 H 0.92623 0.2604 0.50497 0.0
H853 H 0.84567 0.20592 0.50418 0.0
H854 H 0.90067 0.16495 0.52864 0.0
H855 H 0.90021 0.32675 0.47505 0.0
H856 H 0.88333 0.2318 0.57279 0.0
H857 H 0.9467 0.25651 0.5416 0.0
C858 C 0.4473 0.84819 0.74791 0.0
C859 C 0.42789 0.85688 0.73713 0.0
N860 N 0.42941 0.88019 0.73696 0.0
N861 N 0.46104 0.86591 0.75445 0.0
C862 C 0.44946 0.88521 0.74791 0.0
H863 H 0.45187 0.83007 0.74942 0.0
Co864 Co 0.49166 0.86248 0.76441 0.0
C865 C 0.51079 0.90867 0.75103 0.0
O866 O 0.52676 0.899 0.73804 0.0
N867 N 0.52303 0.85867 0.7748 0.0
C868 C 0.56122 0.85205 0.77663 0.0
C869 C 0.54282 0.85691 0.76225 0.0
C870 C 0.53026 0.85522 0.79689 0.0
N871 N 0.55323 0.85101 0.79845 0.0
O872 O 0.48096 0.86541 0.79586 0.0
H873 H 0.54401 0.85838 0.74363 0.0
H874 H 0.51892 0.8549 0.81174 0.0
O875 O 0.49644 0.89607 0.76223 0.0
C876 C 0.47506 0.84497 0.80198 0.0
O877 O 0.47914 0.82793 0.78741 0.0
N878 N 0.49995 0.8565 0.73346 0.0
C879 C 0.49168 0.83436 0.69132 0.0
C880 C 0.48813 0.85834 0.69357 0.0
C881 C 0.49238 0.86915 0.71489 0.0
C882 C 0.50557 0.83371 0.73079 0.0
C883 C 0.50213 0.82246 0.70974 0.0
H884 H 0.48668 0.88684 0.71711 0.0
H885 H 0.51038 0.8235 0.74575 0.0
H886 H 0.45645 0.90254 0.74923 0.0
H887 H 0.41428 0.84678 0.72911 0.0
H888 H 0.57902 0.84928 0.77142 0.0
H889 H 0.47981 0.86817 0.67992 0.0
H890 H 0.50551 0.80403 0.70867 0.0
C891 C 0.10692 0.31065 0.50695 0.0
C892 C 0.1162 0.32906 0.51885 0.0
N893 N 0.13925 0.32584 0.52051 0.0
N894 N 0.12399 0.29581 0.50107 0.0
C895 C 0.14357 0.30568 0.50943 0.0
H896 H 0.08867 0.30758 0.50407 0.0
Co897 Co 0.11833 0.26607 0.48955 0.0
C898 C 0.16366 0.24146 0.49374 0.0
O899 O 0.15294 0.22233 0.49971 0.0
N900 N 0.11152 0.23567 0.47765 0.0
C901 C 0.09914 0.19911 0.47408 0.0
C902 C 0.10526 0.21632 0.48939 0.0
C903 C 0.10915 0.22938 0.45509 0.0
N904 N 0.10142 0.20739 0.45243 0.0
O905 O 0.11967 0.27828 0.45863 0.0
H906 H 0.10493 0.21453 0.50801 0.0
H907 H 0.11207 0.24096 0.4407 0.0
O908 O 0.15187 0.25967 0.48919 0.0
C909 C 0.09939 0.28525 0.45321 0.0
O910 O 0.08243 0.28149 0.46793 0.0
N911 N 0.11456 0.2563 0.52021 0.0
C912 C 0.09995 0.26389 0.56559 0.0
C913 C 0.12368 0.26239 0.5603 0.0
C914 C 0.13069 0.25863 0.53738 0.0
C915 C 0.09155 0.25557 0.52545 0.0
C916 C 0.08387 0.25902 0.54805 0.0
H917 H 0.14883 0.2605 0.5333 0.0
H918 H 0.07896 0.25486 0.51157 0.0
H919 H 0.16038 0.29746 0.50911 0.0
H920 H 0.10662 0.34331 0.5264 0.0
H921 H 0.0932 0.18192 0.47865 0.0
H922 H 0.13667 0.26604 0.57335 0.0
H923 H 0.06541 0.2604 0.55114 0.0
C924 C 0.56153 0.35869 0.76037 0.0
C925 C 0.57951 0.36813 0.77282 0.0
N926 N 0.57728 0.39137 0.77249 0.0
N927 N 0.54795 0.37587 0.75218 0.0
C928 C 0.5582 0.3956 0.75961 0.0
H929 H 0.55774 0.34041 0.75867 0.0
Co930 Co 0.51872 0.37102 0.73883 0.0
C931 C 0.49515 0.41599 0.75093 0.0
O932 O 0.47788 0.40536 0.76116 0.0
N933 N 0.48904 0.36541 0.72505 0.0
C934 C 0.45165 0.35709 0.7193 0.0
C935 C 0.46803 0.36357 0.73534 0.0
C936 C 0.48472 0.35972 0.70266 0.0
N937 N 0.46218 0.35458 0.69867 0.0
O938 O 0.53201 0.37661 0.70875 0.0
H939 H 0.46469 0.36564 0.75363 0.0
H940 H 0.49798 0.35829 0.68957 0.0
O941 O 0.51164 0.40421 0.74196 0.0
C942 C 0.54283 0.35843 0.70228 0.0
O943 O 0.54179 0.33992 0.7155 0.0
N944 N 0.50766 0.36313 0.76841 0.0
C945 C 0.51475 0.33951 0.80991 0.0
C946 C 0.51664 0.36379 0.80904 0.0
C947 C 0.51283 0.37538 0.78803 0.0
C948 C 0.50308 0.34 0.7697 0.0
C949 C 0.50594 0.32797 0.79041 0.0
H950 H 0.51735 0.39351 0.78694 0.0
H951 H 0.49994 0.33023 0.75401 0.0
H952 H 0.55089 0.41265 0.75728 0.0
H953 H 0.5927 0.35855 0.7821 0.0
H954 H 0.43348 0.35404 0.72276 0.0
H955 H 0.52349 0.37345 0.8236 0.0
H956 H 0.50364 0.30934 0.79041 0.0
C957 C 0.60756 0.19669 0.51484 0.0
C958 C 0.61516 0.17629 0.50513 0.0
N959 N 0.63816 0.17802 0.50146 0.0
N960 N 0.62563 0.21127 0.51721 0.0
C961 C 0.64413 0.19926 0.50923 0.0
H962 H 0.58976 0.20115 0.51864 0.0
Co963 Co 0.62256 0.24249 0.52491 0.0
C964 C 0.66776 0.26167 0.50935 0.0
O965 O 0.65722 0.27732 0.49664 0.0
N966 N 0.61902 0.27467 0.53314 0.0
C967 C 0.60977 0.31238 0.53317 0.0
C968 C 0.6142 0.29325 0.51958 0.0
C969 C 0.61824 0.28353 0.55491 0.0
N970 N 0.61227 0.30613 0.55545 0.0
O971 O 0.62675 0.23418 0.55684 0.0
H972 H 0.61319 0.29306 0.50089 0.0
H973 H 0.62088 0.27351 0.57046 0.0
O974 O 0.65595 0.24714 0.52116 0.0
C975 C 0.60664 0.2308 0.5654 0.0
O976 O 0.58848 0.23491 0.55226 0.0
N977 N 0.6154 0.24839 0.4937 0.0
C978 C 0.59281 0.23871 0.45203 0.0
C979 C 0.61692 0.23599 0.45394 0.0
C980 C 0.62794 0.24083 0.47505 0.0
C981 C 0.59229 0.25271 0.49149 0.0
C982 C 0.58079 0.24856 0.4707 0.0
H983 H 0.64589 0.23593 0.477 0.0
H984 H 0.58225 0.25742 0.5066 0.0
H985 H 0.66129 0.20654 0.50734 0.0
H986 H 0.60442 0.16169 0.50028 0.0
H987 H 0.60458 0.32937 0.52716 0.0
H988 H 0.62682 0.22806 0.44011 0.0
H989 H 0.56223 0.25121 0.46995 0.0
C990 C 0.44629 0.14544 0.75307 0.0
C991 C 0.42633 0.13787 0.76365 0.0
N992 N 0.42573 0.11455 0.7624 0.0
N993 N 0.45831 0.12701 0.74525 0.0
C994 C 0.44506 0.10844 0.75072 0.0
H995 H 0.45245 0.16313 0.75259 0.0
Co996 Co 0.48896 0.12868 0.73471 0.0
C997 C 0.50543 0.08207 0.74968 0.0
O998 O 0.52178 0.09187 0.76215 0.0
N999 N 0.51968 0.13105 0.72309 0.0
C1000 C 0.55187 0.12423 0.70282 0.0
C1001 C 0.53411 0.11434 0.71521 0.0
C1002 C 0.52901 0.15089 0.7147 0.0
N1003 N 0.54854 0.1473 0.70222 0.0
O1004 O 0.47795 0.12652 0.70326 0.0
H1005 H 0.53099 0.09595 0.71597 0.0
H1006 H 0.52066 0.16756 0.71637 0.0
O1007 O 0.49187 0.09458 0.7373 0.0
C1008 C 0.47333 0.14734 0.69731 0.0
O1009 O 0.47669 0.1638 0.7127 0.0
N1010 N 0.4986 0.13381 0.76589 0.0
C1011 C 0.49468 0.15438 0.80976 0.0
C1012 C 0.48664 0.13174 0.80578 0.0
C1013 C 0.48892 0.12174 0.78387 0.0
C1014 C 0.50864 0.15481 0.7701 0.0
C1015 C 0.50733 0.16515 0.79196 0.0
H1016 H 0.48039 0.10538 0.78089 0.0
H1017 H 0.51557 0.16494 0.75608 0.0
H1018 H 0.45045 0.09067 0.74817 0.0
H1019 H 0.41383 0.14865 0.77256 0.0
H1020 H 0.56483 0.11483 0.69304 0.0
H1021 H 0.47659 0.1225 0.81862 0.0
H1022 H 0.5146 0.18229 0.79422 0.0
C1023 C 0.39203 0.31347 0.5015 0.0
C1024 C 0.38193 0.33301 0.49238 0.0
N1025 N 0.35918 0.32878 0.48942 0.0
N1026 N 0.37573 0.29703 0.5046 0.0
C1027 C 0.35586 0.30685 0.49689 0.0
H1028 H 0.41027 0.31124 0.5051 0.0
Co1029 Co 0.38214 0.26717 0.51542 0.0
C1030 C 0.33739 0.2418 0.51144 0.0
O1031 O 0.34859 0.22314 0.50488 0.0
N1032 N 0.38961 0.23665 0.52676 0.0
C1033 C 0.40386 0.20073 0.53029 0.0
C1034 C 0.39662 0.21755 0.51499 0.0
C1035 C 0.3924 0.23046 0.54928 0.0
N1036 N 0.40151 0.20904 0.55191 0.0
O1037 O 0.3815 0.27901 0.54659 0.0
H1038 H 0.39717 0.21588 0.49637 0.0
H1039 H 0.3885 0.24166 0.56374 0.0
O1040 O 0.34871 0.26024 0.51631 0.0
C1041 C 0.40216 0.28518 0.5516 0.0
O1042 O 0.41862 0.28079 0.53647 0.0
N1043 N 0.38546 0.25788 0.48459 0.0
C1044 C 0.39962 0.26455 0.43891 0.0
C1045 C 0.37593 0.26343 0.4445 0.0
C1046 C 0.36915 0.26014 0.46758 0.0
C1047 C 0.40841 0.25717 0.47913 0.0
C1048 C 0.41586 0.26006 0.4564 0.0
H1049 H 0.35106 0.26213 0.47187 0.0
H1050 H 0.42115 0.25662 0.49288 0.0
H1051 H 0.33932 0.29812 0.49644 0.0
H1052 H 0.39075 0.34887 0.48764 0.0
H1053 H 0.41156 0.18423 0.52574 0.0
H1054 H 0.36284 0.26694 0.43152 0.0
H1055 H 0.43429 0.26126 0.45309 0.0
C1056 C 0.7457 0.56194 0.64575 0.0
C1057 C 0.73262 0.57957 0.63652 0.0
N1058 N 0.73357 0.578 0.61326 0.0
N1059 N 0.75493 0.54925 0.62842 0.0
C1060 C 0.74746 0.5597 0.6088 0.0
H1061 H 0.74698 0.55764 0.66394 0.0
Co1062 Co 0.76825 0.52 0.63277 0.0
C1063 C 0.78039 0.50598 0.58501 0.0
O1064 O 0.80136 0.50029 0.59182 0.0
N1065 N 0.78126 0.49057 0.63763 0.0
C1066 C 0.78837 0.45262 0.63738 0.0
C1067 C 0.7733 0.4698 0.63033 0.0
C1068 C 0.801 0.48555 0.64917 0.0
N1069 N 0.80588 0.46264 0.64912 0.0
O1070 O 0.79878 0.5333 0.62929 0.0
H1071 H 0.75773 0.46735 0.62017 0.0
H1072 H 0.8117 0.49843 0.65752 0.0
O1073 O 0.76584 0.51378 0.59969 0.0
C1074 C 0.80458 0.54375 0.64791 0.0
O1075 O 0.7902 0.5432 0.66554 0.0
N1076 N 0.73862 0.50841 0.63829 0.0
C1077 C 0.69378 0.51431 0.6548 0.0
C1078 C 0.69808 0.51305 0.63085 0.0
C1079 C 0.72076 0.51012 0.62286 0.0
C1080 C 0.73439 0.50626 0.66139 0.0
C1081 C 0.71201 0.50916 0.67007 0.0
H1082 H 0.72408 0.51213 0.60456 0.0
H1083 H 0.7488 0.50545 0.67335 0.0
H1084 H 0.75057 0.55302 0.5916 0.0
H1085 H 0.72241 0.59196 0.64623 0.0
H1086 H 0.78694 0.43431 0.63353 0.0
H1087 H 0.68442 0.51647 0.61843 0.0
H1088 H 0.70964 0.51005 0.68866 0.0
C1089 C 0.81209 0.0104 0.60535 0.0
C1090 C 0.82957 0.02356 0.61471 0.0
N1091 N 0.82629 0.02474 0.63777 0.0
N1092 N 0.79781 0.00321 0.6224 0.0
C1093 C 0.80709 0.01208 0.64203 0.0
H1094 H 0.80908 0.00769 0.58707 0.0
Co1095 Co 0.76866 0.99035 0.61662 0.0
C1096 C 0.7436 0.99472 0.66184 0.0
O1097 O 0.72437 1.00034 0.65109 0.0
N1098 N 0.7389 0.97721 0.60962 0.0
C1099 C 0.70272 0.97218 0.59662 0.0
C1100 C 0.71884 0.98809 0.60406 0.0
C1101 C 0.73415 0.95455 0.60549 0.0
N1102 N 0.7125 0.95105 0.59725 0.0
O1103 O 0.78198 0.95985 0.61898 0.0
H1104 H 0.71603 0.0066 0.60463 0.0
H1105 H 0.74649 0.94071 0.60779 0.0
O1106 O 0.76187 0.99038 0.65008 0.0
C1107 C 0.79074 0.95413 0.5995 0.0
O1108 O 0.7884 0.96849 0.58198 0.0
N1109 N 0.75771 0.02052 0.61204 0.0
C1110 C 0.76466 0.06563 0.59636 0.0
C1111 C 0.76313 0.06091 0.62021 0.0
C1112 C 0.75965 0.03813 0.62776 0.0
C1113 C 0.7567 0.02521 0.58892 0.0
C1114 C 0.75987 0.04768 0.5807 0.0
H1115 H 0.76158 0.03451 0.64599 0.0
H1116 H 0.75622 0.01103 0.57666 0.0
H1117 H 0.79892 0.01107 0.65883 0.0
H1118 H 0.8431 0.03236 0.60516 0.0
H1119 H 0.68561 0.97608 0.59 0.0
H1120 H 0.76667 0.07431 0.63287 0.0
H1121 H 0.76122 0.05036 0.56217 0.0
C1122 C 0.26185 0.93818 0.64892 0.0
C1123 C 0.27381 0.92005 0.63918 0.0
N1124 N 0.27449 0.9233 0.61608 0.0
N1125 N 0.25498 0.95287 0.63211 0.0
C1126 C 0.26276 0.94319 0.6122 0.0
H1127 H 0.25955 0.94118 0.66727 0.0
Co1128 Co 0.2429 0.98225 0.63852 0.0
C1129 C 0.24695 0.00819 0.59422 0.0
O1130 O 0.25351 0.02666 0.60572 0.0
N1131 N 0.23038 0.01226 0.64613 0.0
C1132 C 0.22587 0.04825 0.65992 0.0
C1133 C 0.2416 0.03183 0.65274 0.0
C1134 C 0.20771 0.01768 0.64929 0.0
N1135 N 0.20451 0.03919 0.65802 0.0
O1136 O 0.21224 0.96937 0.63718 0.0
H1137 H 0.26016 0.03417 0.65293 0.0
H1138 H 0.19358 0.00593 0.64586 0.0
O1139 O 0.24217 0.98953 0.6052 0.0
C1140 C 0.20735 0.96245 0.65761 0.0
O1141 O 0.22248 0.96649 0.67416 0.0
N1142 N 0.27334 0.99259 0.64233 0.0
C1143 C 0.31852 0.98459 0.65718 0.0
C1144 C 0.31338 0.98592 0.63342 0.0
C1145 C 0.29056 0.99 0.62628 0.0
C1146 C 0.27851 0.99353 0.66536 0.0
C1147 C 0.30104 0.98996 0.67315 0.0
H1148 H 0.28649 0.98795 0.60815 0.0
H1149 H 0.26461 0.99436 0.67791 0.0
H1150 H 0.2615 0.95135 0.59541 0.0
H1151 H 0.28204 0.90597 0.64845 0.0
H1152 H 0.22998 0.06505 0.66718 0.0
H1153 H 0.32641 0.98177 0.62056 0.0
H1154 H 0.30407 0.9887 0.69163 0.0
C1155 C 0.18799 0.50837 0.61085 0.0
C1156 C 0.16807 0.49943 0.62039 0.0
N1157 N 0.1721 0.49509 0.64297 0.0
N1158 N 0.20443 0.50992 0.62737 0.0
C1159 C 0.19421 0.50164 0.64677 0.0
H1160 H 0.19054 0.5127 0.59282 0.0
Co1161 Co 0.23492 0.51899 0.62197 0.0
C1162 C 0.2515 0.53131 0.66846 0.0
O1163 O 0.25873 0.55126 0.66023 0.0
N1164 N 0.26609 0.52812 0.61601 0.0
C1165 C 0.30454 0.52879 0.61083 0.0
C1166 C 0.28578 0.51543 0.61751 0.0
C1167 C 0.27355 0.54913 0.60872 0.0
N1168 N 0.29664 0.55004 0.60554 0.0
O1169 O 0.22531 0.55085 0.62492 0.0
H1170 H 0.28659 0.49756 0.62308 0.0
H1171 H 0.26248 0.56381 0.60558 0.0
O1172 O 0.2418 0.51677 0.65493 0.0
C1173 C 0.219 0.55859 0.60519 0.0
O1174 O 0.22136 0.54508 0.587 0.0
N1175 N 0.24237 0.48798 0.6169 0.0
C1176 C 0.23523 0.44276 0.60168 0.0
C1177 C 0.23651 0.44778 0.6255 0.0
C1178 C 0.2401 0.47063 0.63282 0.0
C1179 C 0.24349 0.4831 0.59386 0.0
C1180 C 0.24011 0.46055 0.58585 0.0
H1181 H 0.23876 0.47454 0.65107 0.0
H1182 H 0.24468 0.49716 0.58151 0.0
H1183 H 0.20284 0.49999 0.6633 0.0
H1184 H 0.15216 0.49558 0.61123 0.0
H1185 H 0.32251 0.52344 0.61029 0.0
H1186 H 0.23308 0.43451 0.63832 0.0
H1187 H 0.23905 0.45764 0.56734 0.0
C1188 C 0.74345 0.44717 0.86009 0.0
C1189 C 0.73103 0.42906 0.86931 0.0
N1190 N 0.72997 0.43196 0.89244 0.0
N1191 N 0.75019 0.46146 0.87729 0.0
C1192 C 0.7419 0.45159 0.89686 0.0
H1193 H 0.74622 0.45042 0.84185 0.0
Co1194 Co 0.76276 0.49074 0.87204 0.0
C1195 C 0.76025 0.51485 0.91741 0.0
O1196 O 0.75469 0.5341 0.90665 0.0
N1197 N 0.77586 0.52073 0.8657 0.0
C1198 C 0.78197 0.55627 0.85148 0.0
C1199 C 0.76546 0.54033 0.858 0.0
C1200 C 0.79877 0.52578 0.86427 0.0
N1201 N 0.80299 0.54691 0.85506 0.0
O1202 O 0.79316 0.47712 0.87218 0.0
H1203 H 0.74701 0.54291 0.85632 0.0
H1204 H 0.81237 0.5139 0.86911 0.0
O1205 O 0.76413 0.49647 0.90564 0.0
C1206 C 0.79804 0.47214 0.85119 0.0
O1207 O 0.78284 0.47763 0.83512 0.0
N1208 N 0.73246 0.50189 0.86919 0.0
C1209 C 0.68696 0.49426 0.85506 0.0
C1210 C 0.69251 0.49553 0.87874 0.0
C1211 C 0.71549 0.4994 0.88552 0.0
C1212 C 0.7269 0.503 0.84627 0.0
C1213 C 0.70422 0.49959 0.83884 0.0
H1214 H 0.71981 0.49722 0.90357 0.0
H1215 H 0.74058 0.50373 0.83349 0.0
H1216 H 0.74299 0.45945 0.91381 0.0
H1217 H 0.72283 0.41522 0.85966 0.0
H1218 H 0.77865 0.57283 0.84331 0.0
H1219 H 0.67967 0.49147 0.89181 0.0
H1220 H 0.70091 0.4984 0.8204 0.0
C1221 C 0.68677 0.00872 0.39797 0.0
C1222 C 0.66911 0.02119 0.38801 0.0
N1223 N 0.67228 0.02117 0.36489 0.0
N1224 N 0.70105 1.00086 0.38123 0.0
C1225 C 0.69154 0.00842 0.36119 0.0
H1226 H 0.68998 0.00705 0.41635 0.0
Co1227 Co 0.73045 0.98879 0.38725 0.0
C1228 C 0.7548 1.00029 0.34273 0.0
O1229 O 0.77131 0.01156 0.35357 0.0
N1230 N 0.7604 0.97638 0.39394 0.0
C1231 C 0.7977 0.97171 0.40333 0.0
C1232 C 0.78081 0.98747 0.39732 0.0
C1233 C 0.7656 0.95385 0.39803 0.0
N1234 N 0.78806 0.95051 0.40374 0.0
O1235 O 0.71834 0.95807 0.38247 0.0
H1236 H 0.78342 0.00596 0.39605 0.0
H1237 H 0.75306 0.94 0.39769 0.0
O1238 O 0.73839 0.99085 0.35423 0.0
C1239 C 0.70761 0.95137 0.4006 0.0
O1240 O 0.70754 0.96501 0.41882 0.0
N1241 N 0.74015 0.01912 0.3942 0.0
C1242 C 0.7325 0.06251 0.41404 0.0
C1243 C 0.73214 0.05971 0.38988 0.0
C1244 C 0.7359 0.0378 0.38026 0.0
C1245 C 0.74282 0.02205 0.4175 0.0
C1246 C 0.73932 0.04367 0.42777 0.0
H1247 H 0.73235 0.03554 0.36204 0.0
H1248 H 0.74496 0.00702 0.42851 0.0
H1249 H 0.69962 0.00651 0.34439 0.0
H1250 H 0.65565 0.03052 0.39717 0.0
H1251 H 0.81563 0.97562 0.40721 0.0
H1252 H 0.72694 0.07384 0.37866 0.0
H1253 H 0.73944 0.04491 0.4465 0.0
C1254 C 0.24913 0.0663 0.86049 0.0
C1255 C 0.25848 0.08572 0.87061 0.0
N1256 N 0.26106 0.08153 0.89341 0.0
N1257 N 0.2455 0.05002 0.87686 0.0
C1258 C 0.25314 0.05979 0.89676 0.0
H1259 H 0.24583 0.06398 0.84221 0.0
Co1260 Co 0.23435 0.02033 0.87047 0.0
C1261 C 0.24243 0.9938 0.91428 0.0
O1262 O 0.24853 0.97531 0.90254 0.0
N1263 N 0.22265 0.99006 0.86299 0.0
C1264 C 0.2187 0.95426 0.84864 0.0
C1265 C 0.2342 0.97108 0.8554 0.0
C1266 C 0.20006 0.98389 0.86091 0.0
N1267 N 0.19712 0.96246 0.85187 0.0
O1268 O 0.20339 0.03167 0.8749 0.0
H1269 H 0.25281 0.96946 0.85418 0.0
H1270 H 0.1858 0.99508 0.86544 0.0
O1271 O 0.23656 0.01224 0.90348 0.0
C1272 C 0.19635 0.04044 0.85587 0.0
O1273 O 0.20967 0.03863 0.8375 0.0
N1274 N 0.26479 0.01155 0.86391 0.0
C1275 C 0.30902 0.01923 0.8461 0.0
C1276 C 0.30546 0.01746 0.87014 0.0
C1277 C 0.28309 0.01372 0.87877 0.0
C1278 C 0.26827 0.01141 0.84056 0.0
C1279 C 0.29027 0.01488 0.83128 0.0
H1280 H 0.28031 0.01527 0.89719 0.0
H1281 H 0.25349 0.01093 0.82904 0.0
H1282 H 0.25327 0.05114 0.91333 0.0
H1283 H 0.26369 0.10142 0.86177 0.0
H1284 H 0.22309 0.93778 0.84086 0.0
H1285 H 0.31947 0.02076 0.88219 0.0
H1286 H 0.292 0.01655 0.81267 0.0
C1287 C 0.30182 0.49078 0.3913 0.0
C1288 C 0.32024 0.47992 0.38082 0.0
N1289 N 0.31981 0.48526 0.35814 0.0
N1290 N 0.28956 0.50249 0.37517 0.0
C1291 C 0.30128 0.49917 0.35516 0.0
H1292 H 0.29678 0.48903 0.40927 0.0
Co1293 Co 0.26028 0.51548 0.38052 0.0
C1294 C 0.23655 0.50349 0.33564 0.0
O1295 O 0.21986 0.49279 0.34671 0.0
N1296 N 0.23054 0.52899 0.3867 0.0
C1297 C 0.19326 0.53449 0.39577 0.0
C1298 C 0.20945 0.51878 0.3881 0.0
C1299 C 0.22646 0.55098 0.39399 0.0
N1300 N 0.20403 0.55476 0.39965 0.0
O1301 O 0.27344 0.54588 0.37591 0.0
H1302 H 0.20601 0.50059 0.38543 0.0
H1303 H 0.23979 0.56396 0.39586 0.0
O1304 O 0.25306 0.51293 0.34706 0.0
C1305 C 0.28487 0.55124 0.39411 0.0
O1306 O 0.28476 0.53667 0.41161 0.0
N1307 N 0.24935 0.48555 0.38767 0.0
C1308 C 0.25661 0.44357 0.41042 0.0
C1309 C 0.25887 0.44502 0.38621 0.0
C1310 C 0.25503 0.46627 0.37506 0.0
C1311 C 0.24437 0.48363 0.41067 0.0
C1312 C 0.24737 0.46268 0.42227 0.0
H1313 H 0.26009 0.4679 0.35711 0.0
H1314 H 0.24091 0.49903 0.42078 0.0
H1315 H 0.29561 0.50551 0.33849 0.0
H1316 H 0.33254 0.46835 0.38901 0.0
H1317 H 0.17528 0.5308 0.39965 0.0
H1318 H 0.26613 0.43079 0.37637 0.0
H1319 H 0.2449 0.46222 0.44087 0.0
C1320 C 0.64229 0.75946 0.56047 0.0
C1321 C 0.63262 0.75103 0.58053 0.0
N1322 N 0.61074 0.74437 0.57587 0.0
N1323 N 0.62655 0.75837 0.54326 0.0
C1324 C 0.60749 0.74898 0.55317 0.0
H1325 H 0.65989 0.76555 0.55847 0.0
Co1326 Co 0.63253 0.76667 0.51267 0.0
C1327 C 0.58784 0.76111 0.48765 0.0
O1328 O 0.59923 0.75446 0.46911 0.0
N1329 N 0.63943 0.77557 0.48135 0.0
C1330 C 0.65434 0.77748 0.44565 0.0
C1331 C 0.64926 0.76314 0.46401 0.0
C1332 C 0.63823 0.79734 0.47254 0.0
N1333 N 0.64759 0.7991 0.45114 0.0
O1334 O 0.6318 0.79874 0.52193 0.0
H1335 H 0.65311 0.74485 0.46452 0.0
H1336 H 0.63176 0.81206 0.48211 0.0
O1337 O 0.59902 0.76661 0.50601 0.0
C1338 C 0.65283 0.80485 0.5252 0.0
O1339 O 0.6692 0.78973 0.52044 0.0
N1340 N 0.63611 0.73521 0.50589 0.0
C1341 C 0.65033 0.68977 0.5142 0.0
C1342 C 0.62667 0.69515 0.51199 0.0
C1343 C 0.61984 0.71811 0.50784 0.0
C1344 C 0.6591 0.72998 0.50679 0.0
C1345 C 0.6666 0.70739 0.51046 0.0
H1346 H 0.60163 0.72223 0.5086 0.0
H1347 H 0.67172 0.74383 0.50648 0.0
H1348 H 0.59161 0.74533 0.54395 0.0
H1349 H 0.64125 0.74932 0.5971 0.0
H1350 H 0.66292 0.77242 0.42976 0.0
H1351 H 0.61355 0.68207 0.51501 0.0
H1352 H 0.68498 0.70427 0.51259 0.0
C1353 C 0.64785 0.24332 0.93912 0.0
C1354 C 0.63768 0.25185 0.91934 0.0
N1355 N 0.61583 0.25822 0.92449 0.0
N1356 N 0.63244 0.244 0.95665 0.0
C1357 C 0.61311 0.25337 0.94721 0.0
H1358 H 0.66556 0.23744 0.94065 0.0
Co1359 Co 0.63888 0.2352 0.98712 0.0
C1360 C 0.59371 0.23782 0.01223 0.0
O1361 O 0.60438 0.24293 0.03165 0.0
N1362 N 0.6463 0.22595 0.01818 0.0
C1363 C 0.66044 0.22471 0.05422 0.0
C1364 C 0.65498 0.23882 0.03581 0.0
C1365 C 0.64636 0.20405 0.02678 0.0
N1366 N 0.65516 0.20276 0.04847 0.0
O1367 O 0.63858 0.20339 0.97733 0.0
H1368 H 0.65754 0.25733 0.03557 0.0
H1369 H 0.64098 0.18902 0.017 0.0
O1370 O 0.60549 0.23427 0.9938 0.0
C1371 C 0.6593 0.19766 0.97217 0.0
O1372 O 0.67598 0.21255 0.97655 0.0
N1373 N 0.64162 0.26658 0.9945 0.0
C1374 C 0.65371 0.31286 0.98782 0.0
C1375 C 0.63038 0.30643 0.9905 0.0
C1376 C 0.62462 0.28306 0.99384 0.0
C1377 C 0.66435 0.27276 0.99319 0.0
C1378 C 0.67081 0.29579 0.99028 0.0
H1379 H 0.60657 0.27825 0.99356 0.0
H1380 H 0.67751 0.25941 0.99265 0.0
H1381 H 0.59742 0.25684 0.95678 0.0
H1382 H 0.64594 0.2538 0.90262 0.0
H1383 H 0.66801 0.23021 0.07048 0.0
H1384 H 0.61666 0.31908 0.9885 0.0
H1385 H 0.68897 0.29979 0.98778 0.0
C1386 C 0.49723 0.11202 0.3166 0.0
C1387 C 0.5063 0.12123 0.33656 0.0
N1388 N 0.51117 0.14371 0.33269 0.0
N1389 N 0.49604 0.12866 0.30024 0.0
C1390 C 0.50489 0.14779 0.31052 0.0
H1391 H 0.49227 0.09415 0.31406 0.0
Co1392 Co 0.48566 0.12314 0.27016 0.0
C1393 C 0.48937 0.16808 0.24531 0.0
O1394 O 0.49474 0.15703 0.22616 0.0
N1395 N 0.47475 0.11646 0.2395 0.0
C1396 C 0.47079 0.10159 0.20397 0.0
C1397 C 0.48625 0.10737 0.22116 0.0
C1398 C 0.45235 0.11656 0.23245 0.0
N1399 N 0.44933 0.10706 0.21123 0.0
O1400 O 0.45436 0.12436 0.28144 0.0
H1401 H 0.50467 0.1043 0.22026 0.0
H1402 H 0.43825 0.12285 0.24299 0.0
O1403 O 0.48541 0.15662 0.26386 0.0
C1404 C 0.44802 0.10391 0.28697 0.0
O1405 O 0.46208 0.08659 0.28233 0.0
N1406 N 0.5165 0.11954 0.26131 0.0
C1407 C 0.56241 0.10557 0.26647 0.0
C1408 C 0.55677 0.12922 0.26487 0.0
C1409 C 0.53357 0.13591 0.2624 0.0
C1410 C 0.52189 0.09657 0.26145 0.0
C1411 C 0.54472 0.08919 0.26356 0.0
H1412 H 0.52938 0.15407 0.26386 0.0
H1413 H 0.50811 0.08387 0.26185 0.0
H1414 H 0.50692 0.16432 0.30196 0.0
H1415 H 0.50966 0.11194 0.35251 0.0
H1416 H 0.47501 0.09274 0.18799 0.0
H1417 H 0.56991 0.1424 0.26729 0.0
H1418 H 0.54807 0.0708 0.26529 0.0
C1419 C 0.36451 0.24343 0.94249 0.0
C1420 C 0.37461 0.23149 0.92453 0.0
N1421 N 0.39758 0.23538 0.92525 0.0
N1422 N 0.38111 0.25447 0.95473 0.0
C1423 C 0.40109 0.24957 0.94349 0.0
H1424 H 0.3464 0.24286 0.94729 0.0
Co1425 Co 0.37592 0.26848 0.98361 0.0
C1426 C 0.42014 0.25448 0.00765 0.0
O1427 O 0.40873 0.24337 0.02383 0.0
N1428 N 0.37 0.28301 0.01282 0.0
C1429 C 0.36174 0.28996 0.04999 0.0
C1430 C 0.36932 0.2737 0.03434 0.0
C1431 C 0.36234 0.30499 0.01608 0.0
N1432 N 0.35721 0.3097 0.03848 0.0
O1433 O 0.38205 0.29833 0.96984 0.0
H1434 H 0.37233 0.25574 0.03851 0.0
H1435 H 0.35929 0.31703 0.00212 0.0
O1436 O 0.40909 0.26475 0.99138 0.0
C1437 C 0.36446 0.30423 0.95774 0.0
O1438 O 0.34644 0.29032 0.95737 0.0
N1439 N 0.36729 0.23925 0.99531 0.0
C1440 C 0.3424 0.19811 0.99093 0.0
C1441 C 0.36652 0.19834 0.98759 0.0
C1442 C 0.37876 0.21917 0.99 0.0
C1443 C 0.34442 0.23865 1.00116 0.0
C1444 C 0.33182 0.21814 0.99972 0.0
H1445 H 0.39659 0.21971 0.98432 0.0
H1446 H 0.33514 0.25463 0.00431 0.0
H1447 H 0.41803 0.25488 0.9494 0.0
H1448 H 0.3659 0.22009 0.91243 0.0
H1449 H 0.35906 0.28707 0.06832 0.0
H1450 H 0.37544 0.18336 0.98063 0.0
H1451 H 0.31335 0.21866 0.00305 0.0
C1452 C 0.99511 0.89142 0.8082 0.0
C1453 C 0.98222 0.88224 0.82601 0.0
N1454 N 0.98098 0.85912 0.82299 0.0
N1455 N 0.002 0.87421 0.79399 0.0
C1456 C 0.9933 0.85469 0.80361 0.0
H1457 H 0.99806 0.90965 0.80507 0.0
Co1458 Co 0.01511 0.87919 0.76486 0.0
C1459 C 0.01337 0.83337 0.74139 0.0
O1460 O 0.00804 0.84375 0.72186 0.0
N1461 N 0.02867 0.88517 0.73506 0.0
C1462 C 0.03526 0.89829 0.69922 0.0
C1463 C 0.01854 0.89241 0.71515 0.0
C1464 C 0.05164 0.88626 0.73024 0.0
N1465 N 0.05617 0.89473 0.70886 0.0
O1466 O 0.04533 0.87952 0.77903 0.0
H1467 H 1.00014 0.89402 0.71224 0.0
H1468 H 0.065 0.8815 0.74241 0.0
O1469 O 0.01684 0.8455 0.75962 0.0
C1470 C 0.04967 0.90059 0.78422 0.0
O1471 O 0.03434 0.91639 0.77834 0.0
N1472 N 0.985 0.88168 0.75311 0.0
C1473 C 0.93919 0.89579 0.7586 0.0
C1474 C 0.94487 0.87211 0.75824 0.0
C1475 C 0.96801 0.86533 0.75536 0.0
C1476 C 0.9794 0.90456 0.75139 0.0
C1477 C 0.95658 0.91196 0.75362 0.0
H1478 H 0.97233 0.84734 0.75803 0.0
H1479 H 0.99306 0.91739 0.75089 0.0
H1480 H 0.99432 0.83778 0.79565 0.0
H1481 H 0.97381 0.89193 0.83968 0.0
H1482 H 0.03212 0.90581 0.68233 0.0
H1483 H 0.93192 0.85911 0.76221 0.0
H1484 H 0.95313 0.93041 0.75422 0.0
C1485 C 0.85643 0.24694 0.06093 0.0
C1486 C 0.86624 0.25535 0.08098 0.0
N1487 N 0.8883 0.26146 0.07636 0.0
N1488 N 0.87227 0.24761 0.04381 0.0
C1489 C 0.89154 0.25648 0.05375 0.0
H1490 H 0.83872 0.24119 0.0588 0.0
Co1491 Co 0.86648 0.23959 0.01319 0.0
C1492 C 0.91144 0.24707 0.98966 0.0
O1493 O 0.90078 0.2571 0.97221 0.0
N1494 N 0.86017 0.23082 0.98182 0.0
C1495 C 0.84232 0.22557 0.94792 0.0
C1496 C 0.84697 0.24113 0.96543 0.0
C1497 C 0.86414 0.20938 0.97308 0.0
N1498 N 0.85272 0.20531 0.95301 0.0
O1499 O 0.86744 0.20756 0.02212 0.0
H1500 H 0.8397 0.25831 0.9665 0.0
H1501 H 0.87417 0.1964 0.98209 0.0
O1502 O 0.89972 0.23937 0.00678 0.0
C1503 C 0.84689 0.19965 0.02412 0.0
O1504 O 0.82945 0.2134 0.01904 0.0
N1505 N 0.86285 0.27128 0.0067 0.0
C1506 C 0.84848 0.31648 0.01647 0.0
C1507 C 0.87215 0.31114 0.01451 0.0
C1508 C 0.87903 0.28835 0.0097 0.0
C1509 C 0.83984 0.27652 0.00754 0.0
C1510 C 0.83228 0.29902 0.01187 0.0
H1511 H 0.89721 0.28427 0.011 0.0
H1512 H 0.82721 0.26267 0.0069 0.0
H1513 H 0.9076 0.25952 0.0446 0.0
H1514 H 0.85758 0.25747 0.09749 0.0
H1515 H 0.83054 0.22848 0.93362 0.0
H1516 H 0.88521 0.32407 0.01831 0.0
H1517 H 0.81387 0.30212 0.01387 0.0
C1518 C 0.50052 0.89984 0.19621 0.0
C1519 C 0.50968 0.89197 0.17567 0.0
N1520 N 0.51131 0.86872 0.17684 0.0
N1521 N 0.49619 0.88164 0.2102 0.0
C1522 C 0.50289 0.86287 0.19785 0.0
H1523 H 0.49805 0.91779 0.20098 0.0
Co1524 Co 0.48602 0.88444 0.24079 0.0
C1525 C 0.49586 0.8381 0.26102 0.0
O1526 O 0.50604 0.84825 0.27862 0.0
N1527 N 0.47519 0.88804 0.27224 0.0
C1528 C 0.47254 0.89613 0.31012 0.0
C1529 C 0.48735 0.89111 0.29214 0.0
C1530 C 0.45288 0.89094 0.27908 0.0
N1531 N 0.45081 0.89616 0.30181 0.0
O1532 O 0.45458 0.88294 0.22955 0.0
H1533 H 0.50598 0.89037 0.29375 0.0
H1534 H 0.43824 0.89039 0.2675 0.0
O1535 O 0.48728 0.85042 0.24468 0.0
C1536 C 0.44888 0.90386 0.22503 0.0
O1537 O 0.46363 0.92031 0.23063 0.0
N1538 N 0.51697 0.88898 0.24962 0.0
C1539 C 0.56083 0.90861 0.24321 0.0
C1540 C 0.5569 0.8849 0.23873 0.0
C1541 C 0.5349 0.87533 0.24238 0.0
C1542 C 0.52092 0.91144 0.25575 0.0
C1543 C 0.54286 0.92122 0.25375 0.0
H1544 H 0.53173 0.85783 0.23653 0.0
H1545 H 0.50651 0.92248 0.26044 0.0
H1546 H 0.50233 0.84532 0.20431 0.0
H1547 H 0.51565 0.9026 0.16142 0.0
H1548 H 0.4775 0.89998 0.32779 0.0
H1549 H 0.56986 0.87418 0.23047 0.0
H1550 H 0.54496 0.93917 0.25868 0.0
C1551 C 0.49256 0.60692 0.19148 0.0
C1552 C 0.48008 0.61663 0.17366 0.0
N1553 N 0.48073 0.63985 0.17604 0.0
N1554 N 0.50111 0.6239 0.20508 0.0
C1555 C 0.49386 0.6438 0.19501 0.0
H1556 H 0.49393 0.58861 0.19519 0.0
Co1557 Co 0.51427 0.61865 0.23432 0.0
C1558 C 0.50343 0.66379 0.25797 0.0
O1559 O 0.49311 0.65305 0.27512 0.0
N1560 N 0.52785 0.61254 0.26407 0.0
C1561 C 0.53325 0.60304 0.30126 0.0
C1562 C 0.51754 0.61074 0.28508 0.0
C1563 C 0.54994 0.60566 0.26823 0.0
N1564 N 0.55365 0.59965 0.29057 0.0
O1565 O 0.54462 0.62288 0.22099 0.0
H1566 H 0.49931 0.61327 0.28846 0.0
H1567 H 0.5631 0.60434 0.25503 0.0
O1568 O 0.51224 0.65207 0.24135 0.0
C1569 C 0.55034 0.60409 0.21075 0.0
O1570 O 0.53618 0.58632 0.21215 0.0
N1571 N 0.4844 0.61185 0.24537 0.0
C1572 C 0.44227 0.58948 0.23799 0.0
C1573 C 0.44384 0.61373 0.23618 0.0
C1574 C 0.46516 0.62469 0.24014 0.0
C1575 C 0.48239 0.58875 0.2499 0.0
C1576 C 0.46136 0.57736 0.2469 0.0
H1577 H 0.4668 0.64279 0.23568 0.0
H1578 H 0.49776 0.57851 0.25306 0.0
H1579 H 0.49641 0.66076 0.20244 0.0
H1580 H 0.47049 0.60725 0.16056 0.0
H1581 H 0.5295 0.59885 0.31915 0.0
H1582 H 0.4296 0.62381 0.22927 0.0
H1583 H 0.4608 0.55872 0.2491 0.0
H1584 H 0.10424 0.19259 0.08192 0.0
H1585 H 0.02473 0.20882 0.18778 0.0
H1586 H 0.0728 0.25913 0.09427 0.0
H1587 H 0.01772 0.14651 0.14647 0.0
H1588 H 0.04396 0.22742 0.15565 0.0
H1589 H 0.0754 0.17456 0.10757 0.0
C1590 C 0.09114 0.20331 0.09004 0.0
C1591 C 0.09085 0.22731 0.08631 0.0
C1592 C 0.03785 0.20978 0.15357 0.0
C1593 C 0.05822 0.20704 0.11562 0.0
C1594 C 0.02653 0.199 0.17194 0.0
C1595 C 0.01935 0.17567 0.17031 0.0
C1596 C 0.04286 0.19712 0.13354 0.0
C1597 C 0.02335 0.16417 0.14913 0.0
C1598 C 0.07465 0.19305 0.10442 0.0
C1599 C 0.07348 0.24056 0.09688 0.0
N1600 N 0.03528 0.17484 0.13178 0.0
N1601 N 0.05807 0.23031 0.11148 0.0
H1602 H 0.49106 0.68528 0.16905 0.0
H1603 H 0.38053 0.70503 0.08775 0.0
H1604 H 0.43965 0.63308 0.15412 0.0
H1605 H 0.43507 0.75558 0.0958 0.0
H1606 H 0.39869 0.68126 0.11754 0.0
H1607 H 0.46819 0.71342 0.14695 0.0
C1608 C 0.47494 0.67976 0.16121 0.0
C1609 C 0.46745 0.65668 0.16318 0.0
C1610 C 0.40652 0.69773 0.11309 0.0
C1611 C 0.44113 0.68879 0.13797 0.0
C1612 C 0.39595 0.71151 0.09628 0.0
C1613 C 0.40632 0.73235 0.08918 0.0
C1614 C 0.4277 0.70472 0.12285 0.0
C1615 C 0.42662 0.73953 0.10057 0.0
C1616 C 0.4619 0.69582 0.14859 0.0
C1617 C 0.44641 0.6505 0.15263 0.0
N1618 N 0.4368 0.72561 0.11665 0.0
N1619 N 0.43406 0.66641 0.14046 0.0
H1620 H 0.96291 0.30116 0.19821 0.0
H1621 H 0.92275 0.29195 0.06595 0.0
H1622 H 0.9875 0.34855 0.14577 0.0
H1623 H 0.89106 0.25508 0.1227 0.0
H1624 H 0.94962 0.31022 0.09341 0.0
H1625 H 0.94012 0.28123 0.16919 0.0
C1626 C 0.96395 0.30714 0.18045 0.0
C1627 C 0.97753 0.32645 0.17444 0.0
C1628 C 0.93681 0.29809 0.0998 0.0
C1629 C 0.95053 0.30387 0.14096 0.0
C1630 C 0.92157 0.28755 0.08414 0.0
C1631 C 0.90461 0.27197 0.09208 0.0
C1632 C 0.93518 0.29283 0.1235 0.0
C1633 C 0.90365 0.26716 0.11586 0.0
C1634 C 0.9506 0.29586 0.16389 0.0
C1635 C 0.97733 0.33376 0.1512 0.0
N1636 N 0.91872 0.2775 0.13067 0.0
N1637 N 0.96401 0.32246 0.13527 0.0
H1638 H 0.59947 0.77103 0.10435 0.0
H1639 H 0.51025 0.87378 0.13038 0.0
H1640 H 0.557 0.80421 0.05249 0.0
H1641 H 0.53647 0.82962 0.18465 0.0
H1642 H 0.52962 0.84945 0.10173 0.0
H1643 H 0.57887 0.79326 0.13446 0.0
C1644 C 0.58575 0.78282 0.09934 0.0
C1645 C 0.57973 0.78551 0.07592 0.0
C1646 C 0.53108 0.84494 0.11989 0.0
C1647 C 0.55643 0.81107 0.11 0.0
C1648 C 0.5201 0.85891 0.13623 0.0
C1649 C 0.52175 0.85369 0.15987 0.0
C1650 C 0.54412 0.82571 0.1272 0.0
C1651 C 0.53458 0.83408 0.16654 0.0
C1652 C 0.57398 0.79542 0.11647 0.0
C1653 C 0.5619 0.80113 0.07033 0.0
N1654 N 0.54544 0.82085 0.15028 0.0
N1655 N 0.55102 0.81333 0.08718 0.0
H1656 H 0.00303 0.81025 0.33704 0.0
H1657 H 0.12251 0.80774 0.40659 0.0
H1658 H 0.05349 0.86546 0.33607 0.0
H1659 H 0.06941 0.75601 0.41612 0.0
H1660 H 0.09644 0.82949 0.38161 0.0
H1661 H 0.02548 0.79097 0.36754 0.0
C1662 C 0.01857 0.81853 0.34354 0.0
C1663 C 0.02636 0.83952 0.33393 0.0
C1664 C 0.09038 0.81342 0.38916 0.0
C1665 C 0.05229 0.8174 0.36855 0.0
C1666 C 0.1054 0.80082 0.40325 0.0
C1667 C 0.09827 0.77981 0.41321 0.0
C1668 C 0.068 0.80495 0.38474 0.0
C1669 C 0.07561 0.7721 0.40876 0.0
C1670 C 0.0314 0.8075 0.36091 0.0
C1671 C 0.04658 0.84949 0.34309 0.0
N1672 N 0.06132 0.78457 0.39469 0.0
N1673 N 0.05895 0.83822 0.35964 0.0
H1674 H 0.05779 0.62577 0.85338 0.0
H1675 H 0.06477 0.75029 0.91189 0.0
H1676 H 0.01296 0.68207 0.83326 0.0
H1677 H 0.11778 0.69807 0.91922 0.0
H1678 H 0.04654 0.72685 0.88153 0.0
H1679 H 0.08052 0.65267 0.8768 0.0
C1680 C 0.05266 0.6438 0.85402 0.0
C1681 C 0.03326 0.65165 0.84165 0.0
C1682 C 0.06241 0.72074 0.88947 0.0
C1683 C 0.05936 0.68269 0.86826 0.0
C1684 C 0.07284 0.73414 0.90675 0.0
C1685 C 0.09279 0.7261 0.91815 0.0
C1686 C 0.07181 0.69899 0.88382 0.0
C1687 C 0.10256 0.70507 0.91078 0.0
C1688 C 0.06579 0.65923 0.86719 0.0
C1689 C 0.02777 0.67534 0.8426 0.0
N1690 N 0.09178 0.6921 0.89435 0.0
N1691 N 0.0406 0.69 0.8559 0.0
H1692 H 0.8764 0.69176 0.40551 0.0
H1693 H 0.99878 0.69092 0.34148 0.0
H1694 H 0.92891 0.7434 0.4181 0.0
H1695 H 0.94861 0.63566 0.33672 0.0
H1696 H 0.97526 0.709 0.37186 0.0
H1697 H 0.90388 0.66995 0.382 0.0
C1698 C 0.89371 0.69859 0.40319 0.0
C1699 C 0.90027 0.71963 0.41345 0.0
C1700 C 0.96963 0.6927 0.36446 0.0
C1701 C 0.93206 0.69456 0.3867 0.0
C1702 C 0.98307 0.68236 0.34715 0.0
C1703 C 0.97565 0.66177 0.33647 0.0
C1704 C 0.94849 0.68252 0.37094 0.0
C1705 C 0.9552 0.65137 0.34458 0.0
C1706 C 0.9095 0.686 0.38995 0.0
C1707 C 0.92316 0.72729 0.41042 0.0
N1708 N 0.94222 0.66201 0.36108 0.0
N1709 N 0.93819 0.71488 0.39711 0.0
H1710 H 0.98928 0.81327 0.82945 0.0
H1711 H 0.8818 0.79891 0.91577 0.0
H1712 H 0.94097 0.86785 0.84609 0.0
H1713 H 0.93516 0.74716 0.90744 0.0
H1714 H 0.89915 0.82129 0.88439 0.0
H1715 H 0.96617 0.78633 0.85275 0.0
C1716 C 0.97374 0.81954 0.83789 0.0
C1717 C 0.96725 0.84292 0.83612 0.0
C1718 C 0.90686 0.80485 0.88914 0.0
C1719 C 0.94068 0.81223 0.8627 0.0
C1720 C 0.89676 0.79188 0.90686 0.0
C1721 C 0.9071 0.77114 0.91431 0.0
C1722 C 0.92749 0.7971 0.87879 0.0
C1723 C 0.92677 0.76317 0.90239 0.0
C1724 C 0.96058 0.80418 0.8512 0.0
C1725 C 0.94695 0.85013 0.84743 0.0
N1726 N 0.93649 0.77629 0.8854 0.0
N1727 N 0.93446 0.83488 0.86029 0.0
H1728 H 0.16259 0.00483 0.18714 0.0
H1729 H 0.09735 0.12653 0.19143 0.0
H1730 H 0.16687 0.05652 0.1333 0.0
H1731 H 0.08594 0.07266 0.24196 0.0
H1732 H 0.12095 0.09985 0.16879 0.0
H1733 H 0.13193 0.0275 0.2058 0.0
C1734 C 0.15674 0.0207 0.17899 0.0
C1735 C 0.16743 0.02883 0.15868 0.0
C1736 C 0.11324 0.09376 0.18477 0.0
C1737 C 0.13264 0.05505 0.18013 0.0
C1738 C 0.09994 0.10911 0.19786 0.0
C1739 C 0.08995 0.10194 0.21885 0.0
C1740 C 0.11682 0.07104 0.19273 0.0
C1741 C 0.09338 0.07891 0.22593 0.0
C1742 C 0.13929 0.03367 0.18969 0.0
C1743 C 0.15906 0.04944 0.1488 0.0
N1744 N 0.10672 0.06433 0.21301 0.0
N1745 N 0.14243 0.06198 0.1598 0.0
H1746 H 0.37002 0.65876 0.06584 0.0
H1747 H 0.24725 0.59571 0.06594 0.0
H1748 H 0.31663 0.67356 0.01569 0.0
H1749 H 0.29807 0.58799 0.12024 0.0
H1750 H 0.27047 0.62707 0.04929 0.0
H1751 H 0.34258 0.63504 0.08756 0.0
C1752 C 0.35252 0.65693 0.05935 0.0
C1753 C 0.3457 0.66782 0.0387 0.0
C1754 C 0.27633 0.61881 0.06509 0.0
C1755 C 0.31401 0.64083 0.06364 0.0
C1756 C 0.26304 0.60095 0.07463 0.0
C1757 C 0.27078 0.58911 0.09444 0.0
C1758 C 0.29765 0.62469 0.07528 0.0
C1759 C 0.29131 0.59671 0.10507 0.0
C1760 C 0.33676 0.64356 0.07188 0.0
C1761 C 0.3226 0.66539 0.03147 0.0
N1762 N 0.30419 0.61375 0.09516 0.0
N1763 N 0.30764 0.65194 0.04378 0.0
H1764 H 0.84486 0.50573 0.18907 0.0
H1765 H 0.90622 0.38182 0.19011 0.0
H1766 H 0.83679 0.45454 0.13514 0.0
H1767 H 0.91972 0.43439 0.24152 0.0
H1768 H 0.88284 0.4095 0.16843 0.0
H1769 H 0.87509 0.48169 0.20669 0.0
C1770 C 0.8498 0.48968 0.18067 0.0
C1771 C 0.83822 0.48213 0.16063 0.0
C1772 C 0.89097 0.41507 0.1844 0.0
C1773 C 0.87248 0.45435 0.1809 0.0
C1774 C 0.90415 0.39916 0.19693 0.0
C1775 C 0.91468 0.40568 0.21787 0.0
C1776 C 0.88809 0.43771 0.19288 0.0
C1777 C 0.91189 0.42863 0.22548 0.0
C1778 C 0.86699 0.47592 0.19078 0.0
C1779 C 0.84538 0.46122 0.15043 0.0
N1780 N 0.89869 0.44377 0.2131 0.0
N1781 N 0.86179 0.44794 0.16085 0.0
H1782 H 0.68475 0.82027 0.03418 0.0
H1783 H 0.72541 0.95205 0.04682 0.0
H1784 H 0.64976 0.87838 0.00286 0.0
H1785 H 0.7447 0.89937 0.09635 0.0
H1786 H 0.70451 0.92302 0.02457 0.0
H1787 H 0.71286 0.84713 0.05157 0.0
C1788 C 0.68318 0.83865 0.03075 0.0
C1789 C 0.66486 0.8472 0.01718 0.0
C1790 C 0.71356 0.91772 0.04014 0.0
C1791 C 0.69688 0.87784 0.03682 0.0
C1792 C 0.72581 0.93425 0.05275 0.0
C1793 C 0.73693 0.92819 0.07355 0.0
C1794 C 0.71233 0.89486 0.04828 0.0
C1795 C 0.73624 0.90486 0.08053 0.0
C1796 C 0.69911 0.85393 0.04075 0.0
C1797 C 0.66345 0.87116 0.01344 0.0
N1798 N 0.724 0.88903 0.06799 0.0
N1799 N 0.67924 0.88563 0.02318 0.0
H1800 H 0.166 0.95338 0.37692 0.0
H1801 H 0.08663 0.93854 0.26431 0.0
H1802 H 0.16441 0.003 0.32098 0.0
H1803 H 0.09858 0.88514 0.31521 0.0
H1804 H 0.10896 0.96569 0.28827 0.0
H1805 H 0.13437 0.93226 0.35854 0.0
C1806 C 0.15855 0.96026 0.36112 0.0
C1807 C 0.16806 0.97989 0.35036 0.0
C1808 C 0.10656 0.94806 0.29424 0.0
C1809 C 0.13225 0.95532 0.32882 0.0
C1810 C 0.09382 0.9326 0.28059 0.0
C1811 C 0.09115 0.90946 0.28758 0.0
C1812 C 0.11647 0.94034 0.31511 0.0
C1813 C 0.10075 0.90264 0.30886 0.0
C1814 C 0.14067 0.94799 0.35045 0.0
C1815 C 0.15785 0.98773 0.32968 0.0
N1816 N 0.11305 0.91797 0.32179 0.0
N1817 N 0.14071 0.97524 0.31941 0.0
H1818 H 0.24031 0.60655 0.90364 0.0
H1819 H 0.14085 0.62861 0.9976 0.0
H1820 H 0.21329 0.55456 0.95013 0.0
H1821 H 0.17615 0.68501 0.96362 0.0
H1822 H 0.16691 0.60131 0.97872 0.0
H1823 H 0.21668 0.63588 0.92379 0.0
C1824 C 0.22963 0.60135 0.91816 0.0
C1825 C 0.22908 0.57811 0.9254 0.0
C1826 C 0.16912 0.61966 0.97541 0.0
C1827 C 0.20194 0.61133 0.94824 0.0
C1828 C 0.15413 0.63523 0.98611 0.0
C1829 C 0.1563 0.65907 0.98212 0.0
C1830 C 0.18638 0.62788 0.96033 0.0
C1831 C 0.17404 0.66674 0.9673 0.0
C1832 C 0.21622 0.61806 0.92966 0.0
C1833 C 0.2148 0.5723 0.94424 0.0
N1834 N 0.18833 0.65116 0.95676 0.0
N1835 N 0.20181 0.58872 0.95487 0.0
H1836 H 0.91855 0.56606 0.26238 0.0
H1837 H 0.83376 0.55046 0.37103 0.0
H1838 H 0.90163 0.62019 0.31106 0.0
H1839 H 0.84008 0.49963 0.3165 0.0
H1840 H 0.86462 0.57299 0.35309 0.0
H1841 H 0.89518 0.53885 0.28526 0.0
C1842 C 0.91003 0.57216 0.27794 0.0
C1843 C 0.9117 0.59549 0.28462 0.0
C1844 C 0.85951 0.55674 0.3452 0.0
C1845 C 0.88516 0.56455 0.31092 0.0
C1846 C 0.84207 0.54367 0.35563 0.0
C1847 C 0.83422 0.52312 0.34522 0.0
C1848 C 0.8692 0.5493 0.32414 0.0
C1849 C 0.84541 0.51551 0.32496 0.0
C1850 C 0.89668 0.55667 0.29096 0.0
C1851 C 0.90035 0.60251 0.30495 0.0
N1852 N 0.86217 0.52872 0.31495 0.0
N1853 N 0.88753 0.58714 0.31731 0.0
H1854 H 0.8783 0.84756 0.94343 0.0
H1855 H 0.75664 0.91189 0.9362 0.0
H1856 H 0.82143 0.83114 0.98898 0.0
H1857 H 0.80909 0.91649 0.88314 0.0
H1858 H 0.77871 0.88063 0.95464 0.0
H1859 H 0.8524 0.87178 0.92035 0.0
C1860 C 0.86035 0.84916 0.94862 0.0
C1861 C 0.85206 0.83764 0.96835 0.0
C1862 C 0.78516 0.88818 0.93872 0.0
C1863 C 0.82217 0.86521 0.94189 0.0
C1864 C 0.77255 0.90597 0.92818 0.0
C1865 C 0.78105 0.91684 0.90813 0.0
C1866 C 0.8066 0.88144 0.92934 0.0
C1867 C 0.80174 0.90848 0.89843 0.0
C1868 C 0.84549 0.8628 0.93531 0.0
C1869 C 0.82849 0.83981 0.97393 0.0
N1870 N 0.81396 0.89154 0.90931 0.0
N1871 N 0.81441 0.85357 0.96093 0.0
H1872 H 0.24897 0.12841 0.10491 0.0
H1873 H 0.15384 0.14958 0.00788 0.0
H1874 H 0.21401 0.07157 0.07135 0.0
H1875 H 0.20505 0.20043 0.02764 0.0
H1876 H 0.1752 0.12029 0.03021 0.0
H1877 H 0.23236 0.15498 0.07649 0.0
C1878 C 0.23779 0.12156 0.09149 0.0
C1879 C 0.23274 0.09783 0.09053 0.0
C1880 C 0.18193 0.13778 0.02925 0.0
C1881 C 0.21354 0.12811 0.05789 0.0
C1882 C 0.16975 0.1545 0.01654 0.0
C1883 C 0.17763 0.17754 0.01583 0.0
C1884 C 0.20187 0.14428 0.04163 0.0
C1885 C 0.19841 0.18289 0.02735 0.0
C1886 C 0.22843 0.13668 0.07516 0.0
C1887 C 0.21839 0.08976 0.07259 0.0
N1888 N 0.20958 0.1665 0.03998 0.0
N1889 N 0.20904 0.10493 0.0571 0.0
H1890 H 0.21327 0.93655 0.434 0.0
H1891 H 0.20514 0.80657 0.48127 0.0
H1892 H 0.25207 0.87899 0.40636 0.0
H1893 H 0.15131 0.85715 0.49329 0.0
H1894 H 0.22766 0.83588 0.46103 0.0
H1895 H 0.19514 0.91023 0.46214 0.0
C1896 C 0.21815 0.91843 0.43405 0.0
C1897 C 0.23405 0.90984 0.41776 0.0
C1898 C 0.21106 0.84067 0.46836 0.0
C1899 C 0.21359 0.87981 0.44982 0.0
C1900 C 0.19827 0.82401 0.48023 0.0
C1901 C 0.17621 0.82935 0.48902 0.0
C1902 C 0.20181 0.86293 0.46518 0.0
C1903 C 0.16811 0.85221 0.48659 0.0
C1904 C 0.20774 0.90344 0.45 0.0
C1905 C 0.23965 0.88621 0.4184 0.0
N1906 N 0.18084 0.86814 0.47473 0.0
N1907 N 0.22944 0.87203 0.43415 0.0
H1908 H 0.15608 0.55021 0.87837 0.0
H1909 H 0.0943 0.55822 0.75518 0.0
H1910 H 0.17591 0.50698 0.82072 0.0
H1911 H 0.08739 0.61034 0.80834 0.0
H1912 H 0.12482 0.53954 0.7781 0.0
H1913 H 0.13075 0.57227 0.85269 0.0
C1914 C 0.15498 0.54525 0.86032 0.0
C1915 C 0.16794 0.52654 0.85174 0.0
C1916 C 0.1169 0.55528 0.78456 0.0
C1917 C 0.13907 0.55195 0.82206 0.0
C1918 C 0.09953 0.56597 0.77146 0.0
C1919 C 0.08831 0.58589 0.77983 0.0
C1920 C 0.12284 0.56437 0.80635 0.0
C1921 C 0.09575 0.59519 0.80105 0.0
C1922 C 0.14068 0.55802 0.84558 0.0
C1923 C 0.16622 0.52127 0.82803 0.0
N1924 N 0.1123 0.58419 0.8137 0.0
N1925 N 0.1519 0.53378 0.81405 0.0
H1926 H 0.75474 0.57796 0.43707 0.0
H1927 H 0.85998 0.66759 0.44864 0.0
H1928 H 0.79819 0.5998 0.38036 0.0
H1929 H 0.80754 0.65997 0.50144 0.0
H1930 H 0.84142 0.63703 0.42629 0.0
H1931 H 0.7772 0.60296 0.46326 0.0
C1932 C 0.76904 0.58796 0.43018 0.0
C1933 C 0.77443 0.58708 0.40647 0.0
C1934 C 0.8341 0.64181 0.44289 0.0
C1935 C 0.80025 0.61539 0.43622 0.0
C1936 C 0.84489 0.65908 0.45587 0.0
C1937 C 0.83534 0.66637 0.47704 0.0
C1938 C 0.81354 0.63169 0.45103 0.0
C1939 C 0.81539 0.65501 0.48514 0.0
C1940 C 0.78179 0.60222 0.44508 0.0
C1941 C 0.79312 0.60035 0.39839 0.0
N1942 N 0.80504 0.63832 0.47205 0.0
N1943 N 0.80534 0.61393 0.41322 0.0
H1944 H 0.32975 0.44009 0.35196 0.0
H1945 H 0.43751 0.46009 0.27616 0.0
H1946 H 0.34235 0.50816 0.32414 0.0
H1947 H 0.3961 0.39852 0.26474 0.0
H1948 H 0.40482 0.47795 0.29531 0.0
H1949 H 0.35617 0.42365 0.32287 0.0
C1950 C 0.33809 0.45149 0.33961 0.0
C1951 C 0.33419 0.47545 0.3404 0.0
C1952 C 0.40286 0.46066 0.28825 0.0
C1953 C 0.36438 0.45697 0.30749 0.0
C1954 C 0.42155 0.45032 0.27699 0.0
C1955 C 0.42005 0.42736 0.26871 0.0
C1956 C 0.38264 0.44786 0.29204 0.0
C1957 C 0.39866 0.41587 0.27134 0.0
C1958 C 0.35291 0.44214 0.32296 0.0
C1959 C 0.34508 0.4896 0.32397 0.0
N1960 N 0.381 0.42603 0.28323 0.0
N1961 N 0.36011 0.4802 0.3084 0.0
H1962 H 0.312 0.83386 0.50289 0.0
H1963 H 0.31513 0.90107 0.62334 0.0
H1964 H 0.36919 0.83063 0.55097 0.0
H1965 H 0.26362 0.91495 0.57104 0.0
H1966 H 0.33592 0.87652 0.59595 0.0
H1967 H 0.29502 0.86524 0.52595 0.0
C1968 C 0.32119 0.84003 0.51805 0.0
C1969 C 0.34202 0.8295 0.52503 0.0
C1970 C 0.32015 0.885 0.59033 0.0
C1971 C 0.32254 0.86518 0.55166 0.0
C1972 C 0.30816 0.89886 0.60607 0.0
C1973 C 0.28742 0.90975 0.59955 0.0
C1974 C 0.31126 0.88171 0.56791 0.0
C1975 C 0.27951 0.90678 0.57674 0.0
C1976 C 0.31149 0.85793 0.53121 0.0
C1977 C 0.35324 0.83831 0.54475 0.0
N1978 N 0.29129 0.8928 0.56179 0.0
N1979 N 0.34321 0.85538 0.55751 0.0
H1980 H 0.12561 0.49977 0.64409 0.0
H1981 H 0.10548 0.40396 0.74212 0.0
H1982 H 0.18265 0.46597 0.67853 0.0
H1983 H 0.0528 0.45061 0.71663 0.0
H1984 H 0.13439 0.42504 0.71883 0.0
H1985 H 0.09876 0.48039 0.67028 0.0
C1986 C 0.13245 0.48823 0.6572 0.0
C1987 C 0.15634 0.48444 0.65912 0.0
C1988 C 0.11652 0.43076 0.71866 0.0
C1989 C 0.12571 0.46206 0.68929 0.0
C1990 C 0.10004 0.41874 0.7319 0.0
C1991 C 0.07671 0.4257 0.73166 0.0
C1992 C 0.10946 0.44958 0.70486 0.0
C1993 C 0.07061 0.44489 0.71794 0.0
C1994 C 0.11715 0.47724 0.67226 0.0
C1995 C 0.16434 0.46951 0.67663 0.0
N1996 N 0.0868 0.456 0.70509 0.0
N1997 N 0.14903 0.45869 0.69097 0.0
H1998 H 0.91237 0.06863 0.75024 0.0
H1999 H 0.84677 0.06611 0.62922 0.0
H2000 H 0.91711 0.12317 0.69936 0.0
H2001 H 0.83414 0.01616 0.68332 0.0
H2002 H 0.86987 0.08903 0.6562 0.0
H2003 H 0.88043 0.05145 0.72825 0.0
C2004 C 0.9063 0.07728 0.73472 0.0
C2005 C 0.91752 0.09725 0.72652 0.0
C2006 C 0.86194 0.07315 0.66228 0.0
C2007 C 0.88133 0.07747 0.70102 0.0
C2008 C 0.84894 0.05993 0.64679 0.0
C2009 C 0.83891 0.03897 0.65394 0.0
C2010 C 0.86519 0.06527 0.68509 0.0
C2011 C 0.8417 0.03215 0.67712 0.0
C2012 C 0.88812 0.06743 0.72213 0.0
C2013 C 0.90891 0.10783 0.70639 0.0
N2014 N 0.85484 0.04512 0.6918 0.0
N2015 N 0.8916 0.09759 0.69412 0.0
H2016 H 0.53969 0.70501 0.69956 0.0
H2017 H 0.57715 0.71257 0.56638 0.0
H2018 H 0.51602 0.65526 0.64887 0.0
H2019 H 0.60756 0.75236 0.62185 0.0
H2020 H 0.55113 0.69404 0.5946 0.0
H2021 H 0.56047 0.72542 0.66951 0.0
C2022 C 0.53838 0.69857 0.68198 0.0
C2023 C 0.52568 0.67844 0.6768 0.0
C2024 C 0.56347 0.70688 0.60052 0.0
C2025 C 0.55052 0.70161 0.64207 0.0
C2026 C 0.5782 0.71755 0.58444 0.0
C2027 C 0.59462 0.73395 0.59184 0.0
C2028 C 0.56506 0.71289 0.62406 0.0
C2029 C 0.59543 0.73959 0.61545 0.0
C2030 C 0.55062 0.71016 0.6648 0.0
C2031 C 0.52557 0.67066 0.6537 0.0
N2032 N 0.58089 0.72911 0.63064 0.0
N2033 N 0.53787 0.68224 0.63715 0.0
H2034 H 0.907 0.24026 0.60703 0.0
H2035 H 0.0081 0.14805 0.62903 0.0
H2036 H 0.95764 0.21965 0.55592 0.0
H2037 H 0.96537 0.17459 0.68429 0.0
H2038 H 0.98958 0.17498 0.60227 0.0
H2039 H 0.92804 0.21734 0.63612 0.0
C2040 C 0.92265 0.23121 0.60198 0.0
C2041 C 0.9306 0.23211 0.57898 0.0
C2042 C 0.98428 0.17506 0.62027 0.0
C2043 C 0.95457 0.20574 0.61204 0.0
C2044 C 0.99478 0.15955 0.6355 0.0
C2045 C 0.98821 0.159 0.65887 0.0
C2046 C 0.96685 0.19005 0.62833 0.0
C2047 C 0.97107 0.17458 0.66643 0.0
C2048 C 0.93466 0.21817 0.61858 0.0
C2049 C 0.95102 0.22 0.57346 0.0
N2050 N 0.96083 0.18937 0.65116 0.0
N2051 N 0.96212 0.20727 0.58977 0.0
H2052 H 0.39588 0.74545 0.62091 0.0
H2053 H 0.48865 0.8453 0.64465 0.0
H2054 H 0.42594 0.78538 0.56539 0.0
H2055 H 0.46816 0.7936 0.69471 0.0
H2056 H 0.46605 0.82457 0.61501 0.0
H2057 H 0.4223 0.76398 0.64813 0.0
C2058 C 0.40808 0.75816 0.61448 0.0
C2059 C 0.40867 0.76396 0.59092 0.0
C2060 C 0.46685 0.81767 0.63244 0.0
C2061 C 0.43911 0.78536 0.62199 0.0
C2062 C 0.47968 0.8295 0.64935 0.0
C2063 C 0.48054 0.82111 0.67219 0.0
C2064 C 0.45455 0.79754 0.63857 0.0
C2065 C 0.46853 0.80054 0.67729 0.0
C2066 C 0.42329 0.76866 0.62998 0.0
C2067 C 0.42507 0.78032 0.58343 0.0
N2068 N 0.45598 0.78964 0.66072 0.0
N2069 N 0.43955 0.79064 0.59897 0.0
H2070 H 0.00878 0.31927 0.67091 0.0
H2071 H 0.11838 0.30142 0.58782 0.0
H2072 H 0.06121 0.37103 0.65825 0.0
H2073 H 0.06231 0.25213 0.59256 0.0
H2074 H 0.10064 0.32403 0.61869 0.0
H2075 H 0.03055 0.29199 0.64663 0.0
C2076 C 0.02489 0.32486 0.66312 0.0
C2077 C 0.033 0.34758 0.66637 0.0
C2078 C 0.09234 0.30811 0.61324 0.0
C2079 C 0.05804 0.31648 0.63871 0.0
C2080 C 0.10266 0.29496 0.59578 0.0
C2081 C 0.09182 0.27481 0.58749 0.0
C2082 C 0.07093 0.30117 0.6225 0.0
C2083 C 0.07114 0.26769 0.59823 0.0
C2084 C 0.03729 0.30931 0.64925 0.0
C2085 C 0.05399 0.3539 0.65583 0.0
N2086 N 0.06124 0.28097 0.61501 0.0
N2087 N 0.06572 0.33848 0.64247 0.0
H2088 H 0.61167 0.25015 0.87863 0.0
H2089 H 0.51625 0.34843 0.85718 0.0
H2090 H 0.58212 0.28965 0.93475 0.0
H2091 H 0.54047 0.30015 0.80535 0.0
H2092 H 0.53927 0.32753 0.88637 0.0
H2093 H 0.58488 0.26872 0.85186 0.0
C2094 C 0.59952 0.26279 0.8853 0.0
C2095 C 0.59923 0.26845 0.9089 0.0
C2096 C 0.5392 0.3214 0.86864 0.0
C2097 C 0.56827 0.28991 0.8783 0.0
C2098 C 0.52611 0.33334 0.85197 0.0
C2099 C 0.52613 0.32596 0.82875 0.0
C2100 C 0.5526 0.30217 0.86192 0.0
C2101 C 0.53932 0.30627 0.82304 0.0
C2102 C 0.58409 0.27333 0.87004 0.0
C2103 C 0.58281 0.2847 0.91668 0.0
N2104 N 0.55203 0.29524 0.83941 0.0
N2105 N 0.56808 0.29504 0.90137 0.0
H2106 H 0.60314 0.23767 0.40513 0.0
H2107 H 0.5039 0.1449 0.37876 0.0
H2108 H 0.55291 0.21376 0.45514 0.0
H2109 H 0.54174 0.17855 0.32387 0.0
H2110 H 0.52288 0.17 0.40687 0.0
H2111 H 0.58213 0.21623 0.37479 0.0
C2112 C 0.58762 0.22815 0.40969 0.0
C2113 C 0.57967 0.22776 0.43271 0.0
C2114 C 0.52701 0.17208 0.38869 0.0
C2115 C 0.55579 0.20313 0.39827 0.0
C2116 C 0.51624 0.15764 0.37266 0.0
C2117 C 0.52135 0.15959 0.34902 0.0
C2118 C 0.54332 0.18852 0.38114 0.0
C2119 C 0.53725 0.17663 0.34198 0.0
C2120 C 0.57562 0.216 0.39238 0.0
C2121 C 0.55948 0.21508 0.43763 0.0
N2122 N 0.54788 0.19034 0.35802 0.0
N2123 N 0.5484 0.20324 0.42065 0.0
H2124 H 0.39986 0.18976 0.9157 0.0
H2125 H 0.48615 0.20139 0.81332 0.0
H2126 H 0.43464 0.25475 0.90406 0.0
H2127 H 0.48393 0.13832 0.85381 0.0
H2128 H 0.46655 0.2216 0.84459 0.0
H2129 H 0.42843 0.17036 0.89088 0.0
C2130 C 0.4136 0.19987 0.90788 0.0
C2131 C 0.41491 0.22383 0.91163 0.0
C2132 C 0.47072 0.20341 0.84672 0.0
C2133 C 0.44739 0.20195 0.88321 0.0
C2134 C 0.48217 0.19175 0.82889 0.0
C2135 C 0.48665 0.16778 0.83051 0.0
C2136 C 0.46309 0.19102 0.86613 0.0
C2137 C 0.48032 0.15652 0.85122 0.0
C2138 C 0.42996 0.18882 0.89395 0.0
C2139 C 0.43314 0.23623 0.90144 0.0
N2140 N 0.46844 0.16811 0.86796 0.0
N2141 N 0.44849 0.22521 0.8873 0.0
H2142 H 0.43675 0.25156 0.41185 0.0
H2143 H 0.43752 0.37335 0.34671 0.0
H2144 H 0.38158 0.30189 0.4161 0.0
H2145 H 0.49065 0.3217 0.33684 0.0
H2146 H 0.41538 0.34574 0.36965 0.0
H2147 H 0.45485 0.27472 0.38124 0.0
C2148 C 0.42819 0.26722 0.40601 0.0
C2149 C 0.40769 0.27486 0.41672 0.0
C2150 C 0.43183 0.34033 0.36242 0.0
C2151 C 0.42845 0.30159 0.38194 0.0
C2152 C 0.44461 0.35621 0.34949 0.0
C2153 C 0.46618 0.34996 0.34017 0.0
C2154 C 0.44068 0.31799 0.36629 0.0
C2155 C 0.47415 0.32724 0.34378 0.0
C2156 C 0.43856 0.28046 0.38858 0.0
C2157 C 0.39726 0.29517 0.4083 0.0
N2158 N 0.46151 0.31213 0.35677 0.0
N2159 N 0.40792 0.30797 0.39169 0.0
H2160 H 0.58923 0.57071 0.74725 0.0
H2161 H 0.67069 0.55141 0.63663 0.0
H2162 H 0.6009 0.62137 0.69355 0.0
H2163 H 0.66853 0.5035 0.69408 0.0
H2164 H 0.64013 0.57398 0.65473 0.0
H2165 H 0.61392 0.54327 0.72601 0.0
C2166 C 0.59689 0.57601 0.73097 0.0
C2167 C 0.59326 0.59848 0.72232 0.0
C2168 C 0.64609 0.55838 0.6633 0.0
C2169 C 0.62131 0.56722 0.69792 0.0
C2170 C 0.66339 0.54522 0.65278 0.0
C2171 C 0.67228 0.5254 0.66379 0.0
C2172 C 0.63756 0.55186 0.68513 0.0
C2173 C 0.6624 0.51876 0.68505 0.0
C2174 C 0.611 0.56038 0.71889 0.0
C2175 C 0.60362 0.60446 0.70115 0.0
N2176 N 0.6457 0.53206 0.69513 0.0
N2177 N 0.61716 0.58897 0.68974 0.0
H2178 H 0.87478 0.15745 0.5596 0.0
H2179 H 0.75303 0.09199 0.55822 0.0
H2180 H 0.82298 0.16984 0.50716 0.0
H2181 H 0.80244 0.08775 0.61423 0.0
H2182 H 0.77675 0.12233 0.54029 0.0
H2183 H 0.84739 0.13309 0.58047 0.0
C2184 C 0.85766 0.15491 0.55237 0.0
C2185 C 0.85128 0.16544 0.53141 0.0
C2186 C 0.78216 0.11503 0.55671 0.0
C2187 C 0.81955 0.13768 0.55547 0.0
C2188 C 0.76861 0.09774 0.56697 0.0
C2189 C 0.77573 0.08726 0.58777 0.0
C2190 C 0.8031 0.1217 0.56719 0.0
C2191 C 0.79604 0.09548 0.59837 0.0
C2192 C 0.84191 0.14116 0.56445 0.0
C2193 C 0.8286 0.16202 0.52324 0.0
N2194 N 0.80911 0.11196 0.58783 0.0
N2195 N 0.8136 0.14825 0.53518 0.0
H2196 H 0.34639 0.99671 0.69392 0.0
H2197 H 0.40515 0.87159 0.69762 0.0
H2198 H 0.33836 0.94516 0.64033 0.0
H2199 H 0.42127 0.92548 0.74687 0.0
H2200 H 0.38154 0.89904 0.67586 0.0
H2201 H 0.37572 0.9722 0.71241 0.0
C2202 C 0.35117 0.98047 0.68579 0.0
C2203 C 0.3399 0.97299 0.66555 0.0
C2204 C 0.39028 0.90493 0.69139 0.0
C2205 C 0.37305 0.94466 0.68683 0.0
C2206 C 0.40355 0.88916 0.70399 0.0
C2207 C 0.415 0.89617 0.72427 0.0
C2208 C 0.38822 0.92792 0.69915 0.0
C2209 C 0.41276 0.91936 0.73132 0.0
C2210 C 0.36783 0.96645 0.69639 0.0
C2211 C 0.34677 0.9518 0.65573 0.0
N2212 N 0.39951 0.93438 0.71888 0.0
N2213 N 0.36265 0.93827 0.66663 0.0
H2214 H 0.19843 0.41913 0.61981 0.0
H2215 H 0.18478 0.33349 0.51143 0.0
H2216 H 0.24785 0.41649 0.56373 0.0
H2217 H 0.13044 0.34917 0.56024 0.0
H2218 H 0.21124 0.35843 0.53366 0.0
H2219 H 0.17706 0.38743 0.60196 0.0
C2220 C 0.20517 0.41152 0.60404 0.0
C2221 C 0.22498 0.42063 0.59324 0.0
C2222 C 0.19354 0.3563 0.53952 0.0
C2223 C 0.20008 0.38458 0.57229 0.0
C2224 C 0.17849 0.34207 0.52689 0.0
C2225 C 0.15531 0.33959 0.5338 0.0
C2226 C 0.18538 0.36785 0.55936 0.0
C2227 C 0.14801 0.35103 0.55398 0.0
C2228 C 0.19275 0.39356 0.59368 0.0
C2229 C 0.23252 0.41022 0.57252 0.0
N2230 N 0.16296 0.36467 0.56599 0.0
N2231 N 0.21995 0.39289 0.56261 0.0
H2232 H 0.66647 0.45546 0.87272 0.0
H2233 H 0.5846 0.43679 0.76235 0.0
H2234 H 0.65903 0.50613 0.8182 0.0
H2235 H 0.59972 0.38409 0.81319 0.0
H2236 H 0.60725 0.46457 0.78514 0.0
H2237 H 0.63668 0.43187 0.85434 0.0
C2238 C 0.65809 0.462 0.85724 0.0
C2239 C 0.66533 0.48284 0.84698 0.0
C2240 C 0.60554 0.44693 0.79132 0.0
C2241 C 0.63163 0.45541 0.82535 0.0
C2242 C 0.5926 0.43108 0.77833 0.0
C2243 C 0.59049 0.40798 0.7857 0.0
C2244 C 0.61633 0.43967 0.81191 0.0
C2245 C 0.60128 0.40154 0.80654 0.0
C2246 C 0.64128 0.44831 0.84655 0.0
C2247 C 0.65414 0.49008 0.82659 0.0
N2248 N 0.61374 0.41726 0.81885 0.0
N2249 N 0.63802 0.47627 0.81631 0.0
H2250 H 0.62487 0.15042 0.46593 0.0
H2251 H 0.74693 0.08717 0.4524 0.0
H2252 H 0.68426 0.17004 0.50683 0.0
H2253 H 0.69226 0.08378 0.40145 0.0
H2254 H 0.72473 0.11681 0.47342 0.0
H2255 H 0.64939 0.12443 0.44339 0.0
C2256 C 0.64306 0.14909 0.47031 0.0
C2257 C 0.6525 0.16226 0.48843 0.0
C2258 C 0.71781 0.1098 0.45745 0.0
C2259 C 0.68085 0.13265 0.46244 0.0
C2260 C 0.73046 0.09292 0.44545 0.0
C2261 C 0.72153 0.08307 0.42505 0.0
C2262 C 0.69592 0.11655 0.44918 0.0
C2263 C 0.70007 0.09113 0.41686 0.0
C2264 C 0.65713 0.13442 0.45726 0.0
C2265 C 0.67633 0.16021 0.49297 0.0
N2266 N 0.68794 0.10717 0.42906 0.0
N2267 N 0.68969 0.14555 0.48016 0.0
H2268 H 0.3336 0.05585 0.86334 0.0
H2269 H 0.41308 0.07075 0.75054 0.0
H2270 H 0.33283 0.0073 0.80641 0.0
H2271 H 0.40369 0.12319 0.80299 0.0
H2272 H 0.38761 0.04481 0.77264 0.0
H2273 H 0.36409 0.07757 0.84391 0.0
C2274 C 0.34024 0.04938 0.84702 0.0
C2275 C 0.33055 0.02968 0.8365 0.0
C2276 C 0.39115 0.06201 0.77927 0.0
C2277 C 0.36513 0.05503 0.81373 0.0
C2278 C 0.40567 0.07679 0.76668 0.0
C2279 C 0.4103 0.09927 0.77477 0.0
C2280 C 0.3814 0.0697 0.80023 0.0
C2281 C 0.40023 0.10623 0.79581 0.0
C2282 C 0.35747 0.06202 0.83575 0.0
C2283 C 0.33961 0.02252 0.81504 0.0
N2284 N 0.38631 0.09152 0.80777 0.0
N2285 N 0.35626 0.03529 0.80427 0.0
H2286 H 0.35787 0.37517 0.49456 0.0
H2287 H 0.25817 0.39636 0.40117 0.0
H2288 H 0.32228 0.31814 0.46199 0.0
H2289 H 0.28275 0.44801 0.44943 0.0
H2290 H 0.28154 0.36709 0.42167 0.0
H2291 H 0.33075 0.40204 0.47651 0.0
C2292 C 0.34428 0.36833 0.48357 0.0
C2293 C 0.34236 0.34445 0.4797 0.0
C2294 C 0.28146 0.3848 0.42789 0.0
C2295 C 0.31111 0.37513 0.4588 0.0
C2296 C 0.26818 0.4015 0.41619 0.0
C2297 C 0.26822 0.42468 0.42369 0.0
C2298 C 0.29513 0.39148 0.44693 0.0
C2299 C 0.28163 0.43034 0.44323 0.0
C2300 C 0.32869 0.38365 0.47335 0.0
C2301 C 0.32423 0.33646 0.46552 0.0
N2302 N 0.29458 0.41397 0.45398 0.0
N2303 N 0.30939 0.3518 0.45536 0.0
H2304 H 0.74439 0.58761 0.56848 0.0
H2305 H 0.63164 0.66634 0.55086 0.0
H2306 H 0.6913 0.59745 0.62017 0.0
H2307 H 0.68776 0.66313 0.50156 0.0
H2308 H 0.64999 0.63543 0.57313 0.0
H2309 H 0.72121 0.61032 0.54108 0.0
C2310 C 0.72783 0.59445 0.57403 0.0
C2311 C 0.71997 0.59096 0.59678 0.0
C2312 C 0.65813 0.64122 0.55725 0.0
C2313 C 0.6933 0.61684 0.56553 0.0
C2314 C 0.64748 0.65868 0.54433 0.0
C2315 C 0.65827 0.66749 0.52439 0.0
C2316 C 0.67978 0.63252 0.55024 0.0
C2317 C 0.67902 0.65708 0.51702 0.0
C2318 C 0.71461 0.60742 0.5584 0.0
C2319 C 0.69835 0.60021 0.60303 0.0
N2320 N 0.68925 0.64036 0.53009 0.0
N2321 N 0.68584 0.61277 0.58754 0.0
H2322 H 0.63311 0.33685 0.95261 0.0
H2323 H 0.73983 0.42413 0.93773 0.0
H2324 H 0.69008 0.34072 1.0009 0.0
H2325 H 0.6898 0.40906 0.88431 0.0
H2326 H 0.71797 0.39939 0.96452 0.0
H2327 H 0.6493 0.36971 0.93149 0.0
C2328 C 0.64867 0.34503 0.95919 0.0
C2329 C 0.66035 0.3359 0.97847 0.0
C2330 C 0.71172 0.40162 0.94697 0.0
C2331 C 0.67934 0.37318 0.95397 0.0
C2332 C 0.72416 0.41575 0.93172 0.0
C2333 C 0.71682 0.41831 0.90867 0.0
C2334 C 0.69169 0.39019 0.93915 0.0
C2335 C 0.69639 0.40709 0.90174 0.0
C2336 C 0.65808 0.36362 0.94692 0.0
C2337 C 0.68068 0.34703 0.98594 0.0
N2338 N 0.6846 0.39347 0.91688 0.0
N2339 N 0.68968 0.36492 0.97352 0.0
H2340 H 0.66474 0.01126 0.31956 0.0
H2341 H 0.58718 0.12467 0.30197 0.0
H2342 H 0.65268 0.06322 0.37191 0.0
H2343 H 0.58869 0.06808 0.25306 0.0
H2344 H 0.61834 0.10623 0.32365 0.0
H2345 H 0.64309 0.03504 0.29169 0.0
C2346 C 0.65763 0.02771 0.32512 0.0
C2347 C 0.6601 0.03508 0.34816 0.0
C2348 C 0.61215 0.09801 0.30796 0.0
C2349 C 0.63562 0.06241 0.31647 0.0
C2350 C 0.59454 0.10871 0.29535 0.0
C2351 C 0.5851 0.09778 0.27577 0.0
C2352 C 0.62034 0.07615 0.30104 0.0
C2353 C 0.5952 0.07691 0.26828 0.0
C2354 C 0.64531 0.04126 0.30925 0.0
C2355 C 0.65065 0.05658 0.3545 0.0
N2356 N 0.61204 0.06658 0.28112 0.0
N2357 N 0.63877 0.06942 0.33878 0.0
H2358 H 0.28798 0.07027 0.93043 0.0
H2359 H 0.30191 0.20306 0.96714 0.0
H2360 H 0.25683 0.12802 0.89471 0.0
H2361 H 0.35006 0.15059 0.99029 0.0
H2362 H 0.2803 0.17371 0.94642 0.0
H2363 H 0.3064 0.09762 0.95755 0.0
C2364 C 0.28484 0.08867 0.92848 0.0
C2365 C 0.27098 0.09698 0.91027 0.0
C2366 C 0.29545 0.1685 0.95619 0.0
C2367 C 0.29177 0.12813 0.94107 0.0
C2368 C 0.30771 0.18525 0.96839 0.0
C2369 C 0.32784 0.17935 0.98077 0.0
C2370 C 0.30329 0.14551 0.95609 0.0
C2371 C 0.33473 0.15597 0.98092 0.0
C2372 C 0.29544 0.10421 0.94382 0.0
C2373 C 0.26761 0.12094 0.90832 0.0
N2374 N 0.32251 0.13986 0.96866 0.0
N2375 N 0.27789 0.13563 0.92352 0.0
H2376 H 0.91097 0.93123 0.74378 0.0
H2377 H 0.85481 0.94389 0.86885 0.0
H2378 H 0.91829 0.88026 0.79799 0.0
H2379 H 0.83672 0.98877 0.81192 0.0
H2380 H 0.8763 0.91916 0.84215 0.0
H2381 H 0.88115 0.9508 0.76682 0.0
C2382 C 0.90587 0.92384 0.76026 0.0
C2383 C 0.91718 0.90413 0.76899 0.0
C2384 C 0.86755 0.93433 0.8354 0.0
C2385 C 0.88351 0.92667 0.79566 0.0
C2386 C 0.85549 0.9486 0.85071 0.0
C2387 C 0.84433 0.96864 0.84263 0.0
C2388 C 0.86872 0.94022 0.8118 0.0
C2389 C 0.8452 0.97354 0.81883 0.0
C2390 C 0.88893 0.93505 0.77345 0.0
C2391 C 0.9099 0.89526 0.79044 0.0
N2392 N 0.85744 0.95957 0.80427 0.0
N2393 N 0.89382 0.90681 0.80318 0.0
H2394 H 0.812 0.34427 0.00354 0.0
H2395 H 0.80863 0.40723 0.12616 0.0
H2396 H 0.8661 0.338 0.05475 0.0
H2397 H 0.76221 0.42526 0.07045 0.0
H2398 H 0.83051 0.38269 0.09955 0.0
H2399 H 0.7945 0.37542 0.02651 0.0
C2400 C 0.82043 0.34977 0.01939 0.0
C2401 C 0.84051 0.33847 0.02726 0.0
C2402 C 0.81563 0.39209 0.09305 0.0
C2403 C 0.82038 0.37377 0.05383 0.0
C2404 C 0.80298 0.40592 0.10832 0.0
C2405 C 0.78336 0.41802 0.10057 0.0
C2406 C 0.80849 0.39007 0.06986 0.0
C2407 C 0.7772 0.41617 0.07711 0.0
C2408 C 0.81043 0.36751 0.03251 0.0
C2409 C 0.85076 0.34633 0.04788 0.0
N2410 N 0.78956 0.40224 0.06262 0.0
N2411 N 0.8404 0.36324 0.0606 0.0
H2412 H 0.5649 0.95467 0.23035 0.0
H2413 H 0.66771 0.93931 0.14644 0.0
H2414 H 0.60473 0.89107 0.2331 0.0
H2415 H 0.65752 0.00474 0.1809 0.0
H2416 H 0.64246 0.92062 0.17519 0.0
H2417 H 0.59665 0.97319 0.21049 0.0
C2418 C 0.58037 0.94452 0.22748 0.0
C2419 C 0.5817 0.92091 0.23373 0.0
C2420 C 0.64599 0.939 0.1766 0.0
C2421 C 0.61797 0.94232 0.20946 0.0
C2422 C 0.66012 0.94966 0.16013 0.0
C2423 C 0.66435 0.97357 0.1613 0.0
C2424 C 0.63557 0.95251 0.19391 0.0
C2425 C 0.65451 0.98628 0.17949 0.0
C2426 C 0.59851 0.95527 0.21579 0.0
C2427 C 0.60234 0.90901 0.22829 0.0
N2428 N 0.64017 0.97567 0.19489 0.0
N2429 N 0.61944 0.91971 0.21605 0.0
H2430 H 0.31315 0.54238 0.17389 0.0
H2431 H 0.44619 0.55053 0.21165 0.0
H2432 H 0.36961 0.50785 0.13922 0.0
H2433 H 0.39515 0.59929 0.23656 0.0
H2434 H 0.41641 0.531 0.18953 0.0
H2435 H 0.34113 0.56004 0.20082 0.0
C2436 C 0.33139 0.53838 0.17208 0.0
C2437 C 0.33913 0.5237 0.15424 0.0
C2438 C 0.41158 0.54585 0.19995 0.0
C2439 C 0.37104 0.54371 0.18486 0.0
C2440 C 0.42859 0.5569 0.21293 0.0
C2441 C 0.42321 0.5765 0.22635 0.0
C2442 C 0.38884 0.55438 0.2001 0.0
C2443 C 0.40011 0.58428 0.22647 0.0
C2444 C 0.34731 0.54855 0.18733 0.0
C2445 C 0.36294 0.51927 0.1525 0.0
N2446 N 0.38373 0.5732 0.21349 0.0
N2447 N 0.37799 0.52918 0.1676 0.0
H2448 H 0.95835 0.06119 0.24596 0.0
H2449 H 0.03449 0.94587 0.23956 0.0
H2450 H 0.03138 0.06132 0.26206 0.0
H2451 H 0.96022 0.946 0.24845 0.0
H2452 H 0.03449 0.98823 0.24357 0.0
H2453 H 0.95948 0.0191 0.24284 0.0
C2454 C 0.97467 0.05238 0.24887 0.0
C2455 C 0.99483 0.06493 0.25421 0.0
C2456 C 0.01824 0.97891 0.24468 0.0
C2457 C 0.99627 0.01644 0.25038 0.0
C2458 C 0.0182 0.95472 0.24235 0.0
C2459 C 0.99733 0.94221 0.24387 0.0
C2460 C 0.99723 0.99074 0.24813 0.0
C2461 C 0.97675 0.95478 0.24726 0.0
C2462 C 0.97528 0.02828 0.24711 0.0
C2463 C 0.01543 0.05243 0.25788 0.0
N2464 N 0.97723 0.97825 0.24919 0.0
N2465 N 0.01567 0.02887 0.25572 0.0
H2466 H 0.30869 0.72473 0.99099 0.0
H2467 H 0.19245 0.79941 0.00391 0.0
H2468 H 0.30721 0.79927 0.99732 0.0
H2469 H 0.19382 0.72534 0.01431 0.0
H2470 H 0.23432 0.79909 0.99876 0.0
H2471 H 0.2665 0.72399 0.99629 0.0
C2472 C 0.29957 0.74094 0.99341 0.0
C2473 C 0.31166 0.76209 0.99388 0.0
C2474 C 0.22553 0.78287 0.00222 0.0
C2475 C 0.26332 0.76135 0.99981 0.0
C2476 C 0.20154 0.78303 0.00519 0.0
C2477 C 0.18946 0.76235 0.00948 0.0
C2478 C 0.23774 0.76185 0.00333 0.0
C2479 C 0.20234 0.7417 0.01099 0.0
C2480 C 0.27547 0.74048 0.99651 0.0
C2481 C 0.29876 0.78252 0.99692 0.0
N2482 N 0.22576 0.74195 0.00778 0.0
N2483 N 0.2754 0.78163 0.99974 0.0
H2484 H 0.97084 0.55951 0.2399 0.0
H2485 H 0.0463 0.44363 0.24304 0.0
H2486 H 0.04525 0.55899 0.2475 0.0
H2487 H 0.9739 0.44415 0.26179 0.0
H2488 H 0.04541 0.48577 0.24004 0.0
H2489 H 0.97077 0.5171 0.24308 0.0
C2490 C 0.98715 0.55056 0.24221 0.0
C2491 C 0.00807 0.56296 0.24366 0.0
C2492 C 0.02971 0.47669 0.24484 0.0
C2493 C 0.0081 0.5144 0.24696 0.0
C2494 C 0.03017 0.45257 0.24653 0.0
C2495 C 0.01011 0.44021 0.25259 0.0
C2496 C 0.00895 0.4887 0.24892 0.0
C2497 C 0.98976 0.45288 0.25699 0.0
C2498 C 0.98707 0.52634 0.24408 0.0
C2499 C 0.02868 0.55028 0.24643 0.0
N2500 N 0.98965 0.47643 0.2549 0.0
N2501 N 0.02817 0.52678 0.2479 0.0
H2502 H 0.8127 0.77995 0.01129 0.0
H2503 H 0.6937 0.70952 0.01666 0.0
H2504 H 0.80929 0.7053 0.01471 0.0
H2505 H 0.69809 0.77813 0.98716 0.0
H2506 H 0.73577 0.70919 0.02106 0.0
H2507 H 0.77035 0.78121 0.00782 0.0
C2508 C 0.80311 0.76385 0.01142 0.0
C2509 C 0.81467 0.74247 0.01307 0.0
C2510 C 0.72752 0.72432 0.01363 0.0
C2511 C 0.7662 0.74384 0.00939 0.0
C2512 C 0.70346 0.72455 0.01112 0.0
C2513 C 0.69221 0.74394 1.00162 0.0
C2514 C 0.74055 0.74373 0.00689 0.0
C2515 C 0.70592 0.76287 0.9947 0.0
C2516 C 0.77894 0.76459 0.00936 0.0
C2517 C 0.80121 0.72218 0.01331 0.0
N2518 N 0.72935 0.76235 0.99761 0.0
N2519 N 0.77775 0.72337 0.01154 0.0
H2520 H 0.25218 0.95703 0.94261 0.0
H2521 H 0.26641 0.03214 0.05798 0.0
H2522 H 0.23794 0.03045 0.94472 0.0
H2523 H 0.25479 0.95824 0.05855 0.0
H2524 H 0.26121 0.03212 0.01585 0.0
H2525 H 0.25784 0.9574 0.98455 0.0
C2526 C 0.25024 0.97326 0.95184 0.0
C2527 C 0.24473 0.99379 0.93996 0.0
C2528 C 0.2598 0.01593 0.02525 0.0
C2529 C 0.25151 0.99433 0.98813 0.0
C2530 C 0.26281 0.01591 0.04932 0.0
C2531 C 0.26076 0.9952 0.06198 0.0
C2532 C 0.25513 0.99504 0.01365 0.0
C2533 C 0.25638 0.97466 0.04963 0.0
C2534 C 0.25348 0.97343 0.97583 0.0
C2535 C 0.24239 0.01425 0.953 0.0
N2536 N 0.25376 0.9751 0.02621 0.0
N2537 N 0.24595 0.01404 0.97634 0.0
H2538 H 0.20086 0.49188 0.30697 0.0
H2539 H 0.27487 0.49046 0.19009 0.0
H2540 H 0.27251 0.51321 0.30537 0.0
H2541 H 0.2002 0.49424 0.19165 0.0
H2542 H 0.27542 0.4942 0.23247 0.0
H2543 H 0.20132 0.48844 0.26489 0.0
C2544 C 0.21674 0.49588 0.2978 0.0
C2545 C 0.23672 0.50278 0.30987 0.0
C2546 C 0.25895 0.49422 0.22346 0.0
C2547 C 0.2374 0.49858 0.26139 0.0
C2548 C 0.2586 0.492 0.19927 0.0
C2549 C 0.23745 0.49222 0.18717 0.0
C2550 C 0.23799 0.49624 0.23569 0.0
C2551 C 0.21693 0.49411 0.20013 0.0
C2552 C 0.21696 0.49393 0.2737 0.0
C2553 C 0.25672 0.50779 0.29688 0.0
N2554 N 0.21772 0.49597 0.2236 0.0
N2555 N 0.25661 0.50542 0.27335 0.0
H2556 H 0.76273 0.47685 0.94655 0.0
H2557 H 0.74827 0.55291 0.06173 0.0
H2558 H 0.75465 0.55123 0.94713 0.0
H2559 H 0.74105 0.47845 0.06178 0.0
H2560 H 0.75293 0.55208 0.01984 0.0
H2561 H 0.75766 0.47653 0.98879 0.0
C2562 C 0.75997 0.4931 0.95549 0.0
C2563 C 0.75898 0.51409 0.94314 0.0
C2564 C 0.75027 0.53588 0.02894 0.0
C2565 C 0.75327 0.51383 0.9915 0.0
C2566 C 0.74758 0.53634 0.05295 0.0
C2567 C 0.74435 0.51571 0.06544 0.0
C2568 C 0.74993 0.51461 0.01711 0.0
C2569 C 0.74356 0.49479 0.05294 0.0
C2570 C 0.757 0.49288 0.97961 0.0
C2571 C 0.75547 0.5346 0.95578 0.0
N2572 N 0.74648 0.49475 0.02947 0.0
N2573 N 0.75278 0.53394 0.97916 0.0
H2574 H 0.75844 0.96389 0.19806 0.0
H2575 H 0.77148 0.03397 0.314 0.0
H2576 H 0.74983 0.03813 0.19786 0.0
H2577 H 0.73564 0.96837 0.31318 0.0
H2578 H 0.76979 0.03494 0.27152 0.0
H2579 H 0.75609 0.96407 0.24044 0.0
C2580 C 0.7561 0.98025 0.20697 0.0
C2581 C 0.75443 1.00106 0.19449 0.0
C2582 C 0.76224 0.02041 0.28069 0.0
C2583 C 0.75213 1.00137 0.24293 0.0
C2584 C 0.76335 0.01972 0.30487 0.0
C2585 C 0.75381 1.00096 0.3171 0.0
C2586 C 0.7521 1.00191 0.26862 0.0
C2587 C 0.74323 0.98312 0.3044 0.0
C2588 C 0.75462 0.98029 0.23111 0.0
C2589 C 0.75116 0.02173 0.20688 0.0
N2590 N 0.74295 0.98386 0.28081 0.0
N2591 N 0.75048 0.02143 0.2305 0.0
H2592 H 0.269 0.97383 0.44925 0.0
H2593 H 0.25182 0.04591 0.56616 0.0
H2594 H 0.25518 0.04736 0.45085 0.0
H2595 H 0.24448 0.9715 0.5635 0.0
H2596 H 0.25629 0.04658 0.52418 0.0
H2597 H 0.26383 0.97246 0.49137 0.0
C2598 C 0.26491 0.98969 0.45839 0.0
C2599 C 0.26231 0.01072 0.44636 0.0
C2600 C 0.25364 0.03009 0.53274 0.0
C2601 C 0.25662 0.00927 0.49464 0.0
C2602 C 0.25108 0.02967 0.55677 0.0
C2603 C 0.24791 0.00859 0.5685 0.0
C2604 C 0.2533 0.00925 0.5202 0.0
C2605 C 0.24701 0.98814 0.55527 0.0
C2606 C 0.26191 0.98886 0.48245 0.0
C2607 C 0.25726 0.03073 0.45928 0.0
N2608 N 0.24988 0.98896 0.53184 0.0
N2609 N 0.25463 0.02951 0.48265 0.0
H2610 H 0.23554 0.48039 0.80957 0.0
H2611 H 0.27681 0.55524 0.70062 0.0
H2612 H 0.29452 0.52639 0.8109 0.0
H2613 H 0.23297 0.49506 0.69341 0.0
H2614 H 0.28106 0.54667 0.74183 0.0
H2615 H 0.23198 0.48708 0.7677 0.0
C2616 C 0.2478 0.49178 0.80108 0.0
C2617 C 0.26538 0.50282 0.81383 0.0
C2618 C 0.27054 0.53529 0.73123 0.0
C2619 C 0.26121 0.51074 0.76601 0.0
C2620 C 0.26805 0.54022 0.70767 0.0
C2621 C 0.25445 0.5259 0.69346 0.0
C2622 C 0.25916 0.51604 0.74085 0.0
C2623 C 0.24359 0.50662 0.70367 0.0
C2624 C 0.24576 0.49557 0.77718 0.0
C2625 C 0.28072 0.51745 0.80187 0.0
N2626 N 0.24606 0.50233 0.72675 0.0
N2627 N 0.27819 0.52108 0.77874 0.0
H2628 H 0.76635 0.45755 0.44388 0.0
H2629 H 0.74217 0.52376 0.56266 0.0
H2630 H 0.72626 0.52071 0.44607 0.0
H2631 H 0.80278 0.48149 0.55104 0.0
H2632 H 0.73163 0.51908 0.52177 0.0
H2633 H 0.77492 0.462 0.48502 0.0
C2634 C 0.75911 0.47226 0.45303 0.0
C2635 C 0.74554 0.4888 0.44139 0.0
C2636 C 0.74724 0.51089 0.52822 0.0
C2637 C 0.75537 0.49393 0.48875 0.0
C2638 C 0.75328 0.51351 0.55157 0.0
C2639 C 0.77352 0.50313 0.56034 0.0
C2640 C 0.76124 0.49738 0.51362 0.0
C2641 C 0.78712 0.48993 0.54508 0.0
C2642 C 0.76417 0.47485 0.47653 0.0
C2643 C 0.7368 0.50754 0.45429 0.0
N2644 N 0.78066 0.48732 0.52255 0.0
N2645 N 0.74181 0.50957 0.47731 0.0
H2646 H 0.7851 0.01397 0.80586 0.0
H2647 H 0.70743 1.00118 0.69166 0.0
H2648 H 0.71096 0.00413 0.80671 0.0
H2649 H 0.7816 0.99145 0.69089 0.0
H2650 H 0.70886 0.00562 0.73362 0.0
H2651 H 0.78464 0.00954 0.76355 0.0
C2652 C 0.76873 0.01096 0.79722 0.0
C2653 C 0.74805 0.00926 0.80998 0.0
C2654 C 0.72485 0.00249 0.72431 0.0
C2655 C 0.74741 0.00436 0.76154 0.0
C2656 C 0.72406 0.99994 0.70028 0.0
C2657 C 0.74445 0.99606 0.68757 0.0
C2658 C 0.74621 1.00139 0.73592 0.0
C2659 C 0.76545 0.99457 0.69987 0.0
C2660 C 0.7685 0.00836 0.77306 0.0
C2661 C 0.72736 0.00547 0.79771 0.0
N2662 N 0.76581 0.99738 0.72334 0.0
N2663 N 0.72758 0.00319 0.77427 0.0
H2664 H 0.94034 0.21695 0.0122 0.0
H2665 H 0.05603 0.28996 0.9962 0.0
H2666 H 0.9407 0.27928 0.97094 0.0
H2667 H 0.05612 0.2153 0.99289 0.0
H2668 H 0.01323 0.28928 0.99633 0.0
H2669 H 0.98285 0.21891 0.01457 0.0
C2670 C 0.94936 0.23104 0.00369 0.0
C2671 C 0.93705 0.24781 0.9911 0.0
C2672 C 0.02274 0.27311 0.99569 0.0
C2673 C 0.98538 0.25051 0.99435 0.0
C2674 C 0.04704 0.27348 0.99573 0.0
C2675 C 0.05951 0.25267 0.99432 0.0
C2676 C 0.01102 0.25176 0.99499 0.0
C2677 C 0.0471 0.23174 0.99372 0.0
C2678 C 0.97354 0.23214 0.00505 0.0
C2679 C 0.94958 0.26581 0.98051 0.0
N2680 N 0.02356 0.2318 0.99422 0.0
N2681 N 0.97307 0.2668 0.98252 0.0
H2682 H 0.93669 0.78727 0.48537 0.0
H2683 H 0.0543 0.71718 0.50268 0.0
H2684 H 0.93937 0.72571 0.52771 0.0
H2685 H 0.05273 0.79189 0.50324 0.0
H2686 H 0.01154 0.7169 0.502 0.0
H2687 H 0.9792 0.78619 0.48214 0.0
C2688 C 0.94622 0.77353 0.49392 0.0
C2689 C 0.93458 0.75674 0.50708 0.0
C2690 C 0.02067 0.7333 0.50209 0.0
C2691 C 0.98285 0.75504 0.50288 0.0
C2692 C 0.04495 0.73346 0.50235 0.0
C2693 C 0.05692 0.75458 0.50321 0.0
C2694 C 0.00848 0.7544 0.502 0.0
C2695 C 0.04408 0.77524 0.50283 0.0
C2696 C 0.97038 0.77293 0.49206 0.0
C2697 C 0.94772 0.7392 0.51769 0.0
N2698 N 0.02055 0.77466 0.50213 0.0
N2699 N 0.97116 0.7387 0.51524 0.0
H2700 H 0.01481 0.80491 0.77995 0.0
H2701 H 0.00534 0.68797 0.7058 0.0
H2702 H 0.00956 0.80294 0.70536 0.0
H2703 H 0.99284 0.6897 0.77952 0.0
H2704 H 0.00995 0.72993 0.70599 0.0
H2705 H 0.01024 0.76262 0.78083 0.0
C2706 C 0.01278 0.79565 0.76376 0.0
C2707 C 0.01241 0.80763 0.74254 0.0
C2708 C 0.00615 0.72119 0.72215 0.0
C2709 C 0.00732 0.75918 0.74346 0.0
C2710 C 0.00351 0.69715 0.72207 0.0
C2711 C 0.99876 0.68515 0.7427 0.0
C2712 C 0.00427 0.73353 0.74305 0.0
C2713 C 0.99654 0.69815 0.76321 0.0
C2714 C 0.0101 0.7715 0.7643 0.0
C2715 C 0.00985 0.79457 0.72215 0.0
N2716 N 0.99944 0.72162 0.76289 0.0
N2717 N 0.00745 0.77116 0.72313 0.0
H2718 H 0.49146 0.19729 0.20822 0.0
H2719 H 0.51325 0.31253 0.28184 0.0
H2720 H 0.48995 0.1976 0.283 0.0
H2721 H 0.4922 0.31249 0.21005 0.0
H2722 H 0.5089 0.27022 0.28255 0.0
H2723 H 0.4955 0.23934 0.20853 0.0
C2724 C 0.49193 0.20618 0.22475 0.0
C2725 C 0.49044 0.19379 0.24562 0.0
C2726 C 0.50522 0.27954 0.26669 0.0
C2727 C 0.49533 0.24216 0.24608 0.0
C2728 C 0.50775 0.3037 0.26624 0.0
C2729 C 0.50291 0.31619 0.2459 0.0
C2730 C 0.49816 0.26778 0.24656 0.0
C2731 C 0.49602 0.30369 0.22617 0.0
C2732 C 0.49423 0.23024 0.2249 0.0
C2733 C 0.49109 0.20638 0.26648 0.0
N2734 N 0.49393 0.28026 0.22699 0.0
N2735 N 0.49365 0.22987 0.2662 0.0
H2736 H 0.44409 0.73412 0.5246 0.0
H2737 H 0.55916 0.75567 0.45047 0.0
H2738 H 0.4442 0.74723 0.45096 0.0
H2739 H 0.55782 0.76204 0.52497 0.0
H2740 H 0.51735 0.7497 0.4506 0.0
H2741 H 0.48603 0.74093 0.52535 0.0
C2742 C 0.45286 0.73838 0.50859 0.0
C2743 C 0.44045 0.74026 0.4877 0.0
C2744 C 0.52614 0.75248 0.46694 0.0
C2745 C 0.48854 0.74788 0.48845 0.0
C2746 C 0.55008 0.7559 0.4669 0.0
C2747 C 0.56214 0.75929 0.48776 0.0
C2748 C 0.51401 0.75215 0.48803 0.0
C2749 C 0.54931 0.75946 0.50847 0.0
C2750 C 0.47682 0.74233 0.50906 0.0
C2751 C 0.45291 0.74566 0.46749 0.0
N2752 N 0.52596 0.75576 0.5081 0.0
N2753 N 0.47618 0.74922 0.46838 0.0
H2754 H 0.98954 0.30844 0.72532 0.0
H2755 H 0.01033 0.19354 0.7998 0.0
H2756 H 0.00795 0.30871 0.79782 0.0
H2757 H 0.01494 0.19372 0.72516 0.0
H2758 H 0.00582 0.23555 0.79924 0.0
H2759 H 0.99473 0.26618 0.72475 0.0
C2760 C 0.9946 0.29969 0.74111 0.0
C2761 C 0.99846 0.31226 0.76162 0.0
C2762 C 0.00789 0.22644 0.78296 0.0
C2763 C 0.0042 0.26391 0.7611 0.0
C2764 C 0.01047 0.2024 0.78326 0.0
C2765 C 0.01295 0.18997 0.76249 0.0
C2766 C 0.00747 0.23831 0.76173 0.0
C2767 C 0.01305 0.20253 0.7416 0.0
C2768 C 0.99764 0.27557 0.74074 0.0
C2769 C 0.00488 0.29986 0.78157 0.0
N2770 N 0.01016 0.22599 0.74173 0.0
N2771 N 0.00747 0.27647 0.78081 0.0
H2772 H 0.53191 0.44485 0.74064 0.0
H2773 H 0.45922 0.56147 0.75059 0.0
H2774 H 0.46011 0.44599 0.76156 0.0
H2775 H 0.53293 0.56031 0.76322 0.0
H2776 H 0.45928 0.51917 0.74891 0.0
H2777 H 0.53272 0.4873 0.74303 0.0
C2778 C 0.51634 0.45394 0.74574 0.0
C2779 C 0.49596 0.44173 0.75114 0.0
C2780 C 0.47544 0.52818 0.75207 0.0
C2781 C 0.49671 0.4903 0.75342 0.0
C2782 C 0.47546 0.55235 0.75298 0.0
C2783 C 0.49613 0.56455 0.75696 0.0
C2784 C 0.49632 0.516 0.75473 0.0
C2785 C 0.5166 0.55169 0.76005 0.0
C2786 C 0.51685 0.47817 0.74714 0.0
C2787 C 0.47625 0.45458 0.75739 0.0
N2788 N 0.51623 0.52811 0.75865 0.0
N2789 N 0.47707 0.47811 0.75822 0.0
H2790 H 0.69743 0.247 0.54339 0.0
H2791 H 0.81179 0.24731 0.46694 0.0
H2792 H 0.6961 0.27175 0.47289 0.0
H2793 H 0.81268 0.27067 0.53792 0.0
H2794 H 0.7691 0.24597 0.46853 0.0
H2795 H 0.74002 0.2453 0.54141 0.0
C2796 C 0.70609 0.25191 0.52748 0.0
C2797 C 0.69331 0.25976 0.50836 0.0
C2798 C 0.77876 0.25128 0.48372 0.0
C2799 C 0.74167 0.25728 0.50582 0.0
C2800 C 0.80301 0.25199 0.48285 0.0
C2801 C 0.81569 0.25934 0.50225 0.0
C2802 C 0.76729 0.25725 0.50435 0.0
C2803 C 0.80351 0.26519 0.5225 0.0
C2804 C 0.7303 0.251 0.5264 0.0
C2805 C 0.70536 0.26589 0.48812 0.0
N2806 N 0.78 0.26385 0.52309 0.0
N2807 N 0.72888 0.26437 0.4873 0.0
H2808 H 0.52094 0.93809 0.71552 0.0
H2809 H 0.51225 0.05357 0.78648 0.0
H2810 H 0.49405 0.93717 0.78524 0.0
H2811 H 0.49375 0.0527 0.7141 0.0
H2812 H 0.511 0.01107 0.78693 0.0
H2813 H 0.51668 0.98038 0.71487 0.0
C2814 C 0.51421 0.94682 0.73072 0.0
C2815 C 0.50798 0.93416 0.75054 0.0
C2816 C 0.50704 0.0202 0.77102 0.0
C2817 C 0.50335 0.98245 0.74994 0.0
C2818 C 0.50785 0.04438 0.7707 0.0
C2819 C 0.50314 0.05658 0.75019 0.0
C2820 C 0.50218 0.00811 0.75051 0.0
C2821 C 0.4974 0.0439 0.73026 0.0
C2822 C 0.51162 0.97088 0.73024 0.0
C2823 C 0.49908 0.9463 0.76965 0.0
N2824 N 0.49747 0.02028 0.7308 0.0
N2825 N 0.49736 0.96985 0.76902 0.0
H2826 H 0.30857 0.20483 0.50523 0.0
H2827 H 0.19267 0.27948 0.49042 0.0
H2828 H 0.30732 0.27903 0.51469 0.0
H2829 H 0.19352 0.20534 0.50045 0.0
H2830 H 0.23486 0.28012 0.49573 0.0
H2831 H 0.26663 0.20513 0.50043 0.0
C2832 C 0.2995 0.22123 0.50637 0.0
C2833 C 0.31164 0.24196 0.51025 0.0
C2834 C 0.22575 0.26375 0.49678 0.0
C2835 C 0.26331 0.24243 0.50448 0.0
C2836 C 0.20165 0.26334 0.49369 0.0
C2837 C 0.18939 0.24234 0.49518 0.0
C2838 C 0.23773 0.24296 0.50106 0.0
C2839 C 0.20211 0.22197 0.49925 0.0
C2840 C 0.27548 0.22137 0.50361 0.0
C2841 C 0.29878 0.26264 0.51161 0.0
N2842 N 0.22549 0.2228 0.502 0.0
N2843 N 0.27534 0.26238 0.50856 0.0
H2844 H 0.56359 0.24038 0.04863 0.0
H2845 H 0.45082 0.26526 0.97243 0.0
H2846 H 0.56505 0.23836 0.97388 0.0
H2847 H 0.44824 0.24099 0.04313 0.0
H2848 H 0.49311 0.26046 0.97295 0.0
H2849 H 0.52159 0.24509 0.04723 0.0
C2850 C 0.55511 0.24088 0.03189 0.0
C2851 C 0.568 0.23909 0.01134 0.0
C2852 C 0.4832 0.25619 0.9883 0.0
C2853 C 0.51974 0.24482 0.00963 0.0
C2854 C 0.45907 0.25901 0.98806 0.0
C2855 C 0.44586 0.25334 0.0077 0.0
C2856 C 0.49421 0.24807 0.00846 0.0
C2857 C 0.45762 0.24543 0.02751 0.0
C2858 C 0.53109 0.24358 0.03112 0.0
C2859 C 0.55592 0.2398 0.99017 0.0
N2860 N 0.48104 0.24312 0.0274 0.0
N2861 N 0.5325 0.2428 0.98985 0.0
H2862 H 0.51315 0.69331 0.22142 0.0
H2863 H 0.5009 0.80816 0.297 0.0
H2864 H 0.49303 0.6932 0.29345 0.0
H2865 H 0.49094 0.80934 0.22291 0.0
H2866 H 0.50303 0.766 0.2957 0.0
H2867 H 0.51022 0.73582 0.22126 0.0
C2868 C 0.50815 0.70214 0.23718 0.0
C2869 C 0.50315 0.68956 0.25744 0.0
C2870 C 0.5003 0.77543 0.27971 0.0
C2871 C 0.50013 0.73815 0.25742 0.0
C2872 C 0.49912 0.79955 0.28041 0.0
C2873 C 0.49575 0.81238 0.26002 0.0
C2874 C 0.4985 0.76386 0.25839 0.0
C2875 C 0.49349 0.80017 0.23905 0.0
C2876 C 0.50641 0.72639 0.23704 0.0
C2877 C 0.49693 0.70206 0.27739 0.0
N2878 N 0.49512 0.77657 0.23873 0.0
N2879 N 0.49572 0.72557 0.27689 0.0
H2880 H 0.07216 0.18352 0.30914 0.0
H2881 H 0.07068 0.17182 0.44675 0.0
H2882 H 0.0322 0.13098 0.34412 0.0
H2883 H 0.11667 0.21703 0.40886 0.0
H2884 H 0.05769 0.15502 0.41007 0.0
H2885 H 0.08986 0.19425 0.3458 0.0
C2886 C 0.06725 0.17408 0.32461 0.0
C2887 C 0.05059 0.15641 0.32361 0.0
C2888 C 0.07076 0.16848 0.40983 0.0
C2889 C 0.07067 0.1689 0.36602 0.0
C2890 C 0.0783 0.17807 0.43081 0.0
C2891 C 0.09473 0.19611 0.43103 0.0
C2892 C 0.07963 0.17701 0.38885 0.0
C2893 C 0.10369 0.20355 0.40967 0.0
C2894 C 0.0774 0.18022 0.34559 0.0
C2895 C 0.04504 0.14465 0.34416 0.0
N2896 N 0.09593 0.19409 0.38954 0.0
N2897 N 0.05486 0.15131 0.36464 0.0
H2898 H 0.44882 0.7116 0.9437 0.0
H2899 H 0.41851 0.65353 0.8216 0.0
H2900 H 0.37832 0.70451 0.91966 0.0
H2901 H 0.48755 0.67027 0.84517 0.0
H2902 H 0.40287 0.67015 0.85742 0.0
H2903 H 0.46253 0.69446 0.90801 0.0
C2904 C 0.43612 0.70641 0.93089 0.0
C2905 C 0.41231 0.70952 0.93479 0.0
C2906 C 0.42143 0.67009 0.85468 0.0
C2907 C 0.42813 0.68964 0.89338 0.0
C2908 C 0.43042 0.66066 0.8342 0.0
C2909 C 0.45449 0.66036 0.83018 0.0
C2910 C 0.4366 0.67926 0.87134 0.0
C2911 C 0.46898 0.66964 0.8474 0.0
C2912 C 0.44404 0.6966 0.91038 0.0
C2913 C 0.39682 0.70243 0.91738 0.0
N2914 N 0.45981 0.67866 0.86709 0.0
N2915 N 0.40501 0.69276 0.89739 0.0
H2916 H 0.93003 0.32393 0.30718 0.0
H2917 H 0.92709 0.33756 0.44504 0.0
H2918 H 0.97022 0.37584 0.34289 0.0
H2919 H 0.8896 0.28574 0.40634 0.0
H2920 H 0.94034 0.35466 0.40841 0.0
H2921 H 0.91212 0.31297 0.3436 0.0
C2922 C 0.93494 0.33319 0.32277 0.0
C2923 C 0.95176 0.3507 0.32205 0.0
C2924 C 0.92909 0.33964 0.40798 0.0
C2925 C 0.93146 0.33793 0.36421 0.0
C2926 C 0.92144 0.32992 0.42888 0.0
C2927 C 0.90735 0.31002 0.4288 0.0
C2928 C 0.92252 0.32945 0.38688 0.0
C2929 C 0.90076 0.30077 0.40732 0.0
C2930 C 0.9247 0.32689 0.34363 0.0
C2931 C 0.95727 0.36228 0.34273 0.0
N2932 N 0.90844 0.31049 0.38732 0.0
N2933 N 0.94732 0.35548 0.3631 0.0
H2934 H 0.59015 0.82181 0.80202 0.0
H2935 H 0.58588 0.82667 0.94034 0.0
H2936 H 0.5451 0.86595 0.84209 0.0
H2937 H 0.6287 0.77771 0.9036 0.0
H2938 H 0.57576 0.84503 0.90385 0.0
H2939 H 0.60885 0.80893 0.83805 0.0
C2940 C 0.58442 0.82903 0.81836 0.0
C2941 C 0.56586 0.84481 0.8191 0.0
C2942 C 0.58755 0.83042 0.90359 0.0
C2943 C 0.58709 0.83015 0.86026 0.0
C2944 C 0.59338 0.81996 0.92447 0.0
C2945 C 0.60797 0.80057 0.92489 0.0
C2946 C 0.59603 0.82124 0.88274 0.0
C2947 C 0.61741 0.7927 0.90392 0.0
C2948 C 0.59502 0.8216 0.8389 0.0
C2949 C 0.55903 0.85347 0.84073 0.0
N2950 N 0.61098 0.80287 0.88354 0.0
N2951 N 0.56954 0.84596 0.86037 0.0
H2952 H 0.08157 0.82636 0.19384 0.0
H2953 H 0.07165 0.83307 0.05656 0.0
H2954 H 0.03753 0.87601 0.1595 0.0
H2955 H 0.12326 0.79288 0.09287 0.0
H2956 H 0.06038 0.85095 0.09327 0.0
H2957 H 0.09844 0.81589 0.15666 0.0
C2958 C 0.07563 0.83526 0.1784 0.0
C2959 C 0.05805 0.85199 0.17971 0.0
C2960 C 0.07433 0.83839 0.09314 0.0
C2961 C 0.07707 0.83977 0.13679 0.0
C2962 C 0.08088 0.8282 0.07213 0.0
C2963 C 0.09832 0.81115 0.07154 0.0
C2964 C 0.0852 0.83145 0.11377 0.0
C2965 C 0.10941 0.8055 0.09244 0.0
C2966 C 0.08528 0.82927 0.15714 0.0
C2967 C 0.05111 0.86307 0.15921 0.0
N2968 N 0.10254 0.81545 0.11264 0.0
N2969 N 0.06042 0.85651 0.13848 0.0
H2970 H 0.02907 0.64058 0.15724 0.0
H2971 H 0.12389 0.72121 0.09538 0.0
H2972 H 0.07825 0.68141 0.1962 0.0
H2973 H 0.06164 0.69571 0.06272 0.0
H2974 H 0.11175 0.70219 0.13175 0.0
H2975 H 0.04533 0.65595 0.12153 0.0
C2976 C 0.04325 0.65279 0.15839 0.0
C2977 C 0.05197 0.65989 0.17997 0.0
C2978 C 0.10088 0.70075 0.11653 0.0
C2979 C 0.07103 0.67743 0.1388 0.0
C2980 C 0.10783 0.7115 0.09582 0.0
C2981 C 0.09366 0.71019 0.0761 0.0
C2982 C 0.07987 0.68836 0.11723 0.0
C2983 C 0.07299 0.69744 0.07756 0.0
C2984 C 0.05263 0.6615 0.13791 0.0
C2985 C 0.07091 0.67532 0.18009 0.0
N2986 N 0.06678 0.68706 0.09768 0.0
N2987 N 0.07971 0.68367 0.15984 0.0
H2988 H 0.88211 0.71359 0.0932 0.0
H2989 H 0.96778 0.62751 0.16099 0.0
H2990 H 0.93169 0.66987 0.05815 0.0
H2991 H 0.92976 0.68356 0.19267 0.0
H2992 H 0.95008 0.63761 0.12342 0.0
H2993 H 0.8947 0.69744 0.13012 0.0
C2994 C 0.89561 0.70058 0.0932 0.0
C2995 C 0.90605 0.69341 0.07243 0.0
C2996 C 0.94551 0.64751 0.13869 0.0
C2997 C 0.92048 0.67458 0.11486 0.0
C2998 C 0.9555 0.64169 0.16009 0.0
C2999 C 0.95035 0.65485 0.17987 0.0
C3000 C 0.9301 0.66639 0.13729 0.0
C3001 C 0.93443 0.67312 0.17779 0.0
C3002 C 0.90274 0.69127 0.11433 0.0
C3003 C 0.92307 0.67595 0.07362 0.0
N3004 N 0.92495 0.67835 0.15694 0.0
N3005 N 0.92988 0.66728 0.09448 0.0
H3006 H 0.88118 0.79632 0.08605 0.0
H3007 H 0.99194 0.83647 0.15986 0.0
H3008 H 0.95242 0.78898 0.06441 0.0
H3009 H 0.92188 0.84672 0.18411 0.0
H3010 H 0.97686 0.81962 0.12451 0.0
H3011 H 0.89477 0.81481 0.12208 0.0
C3012 C 0.8996 0.79854 0.08886 0.0
C3013 C 0.91565 0.79109 0.07215 0.0
C3014 C 0.96469 0.8256 0.13748 0.0
C3015 C 0.93126 0.81219 0.11309 0.0
C3016 C 0.97335 0.83549 0.15773 0.0
C3017 C 0.95822 0.84322 0.17514 0.0
C3018 C 0.94065 0.82324 0.13442 0.0
C3019 C 0.93424 0.84084 0.17131 0.0
C3020 C 0.90734 0.80911 0.10937 0.0
C3021 C 0.93933 0.79442 0.07669 0.0
N3022 N 0.92618 0.83103 0.15139 0.0
N3023 N 0.94634 0.80468 0.09661 0.0
H3024 H 0.4413 0.09542 0.16594 0.0
H3025 H 0.31077 0.0583 0.19362 0.0
H3026 H 0.40739 0.10221 0.23235 0.0
H3027 H 0.34191 0.04597 0.12672 0.0
H3028 H 0.34589 0.07712 0.20636 0.0
H3029 H 0.40517 0.07996 0.14976 0.0
C3030 C 0.42635 0.09384 0.17713 0.0
C3031 C 0.42764 0.10016 0.20067 0.0
C3032 C 0.34522 0.07038 0.18886 0.0
C3033 C 0.3862 0.0826 0.18213 0.0
C3034 C 0.32507 0.05951 0.18152 0.0
C3035 C 0.32339 0.05032 0.15907 0.0
C3036 C 0.36419 0.07212 0.17377 0.0
C3037 C 0.3425 0.05276 0.1442 0.0
C3038 C 0.40571 0.08505 0.16782 0.0
C3039 C 0.40748 0.09796 0.21412 0.0
N3040 N 0.36224 0.06335 0.15187 0.0
N3041 N 0.38778 0.08931 0.20469 0.0
H3042 H 0.2854 0.41369 0.12097 0.0
H3043 H 0.35765 0.35275 0.01915 0.0
H3044 H 0.29553 0.4427 0.05277 0.0
H3045 H 0.33324 0.31504 0.07904 0.0
H3046 H 0.33854 0.38736 0.03379 0.0
H3047 H 0.30627 0.37859 0.10836 0.0
C3048 C 0.29198 0.4127 0.10343 0.0
C3049 C 0.28861 0.43111 0.08789 0.0
C3050 C 0.33737 0.3715 0.04376 0.0
C3051 C 0.31259 0.39137 0.0735 0.0
C3052 C 0.34824 0.35162 0.03532 0.0
C3053 C 0.34696 0.33068 0.04766 0.0
C3054 C 0.32517 0.37065 0.06481 0.0
C3055 C 0.3349 0.33068 0.0689 0.0
C3056 C 0.30385 0.39271 0.09624 0.0
C3057 C 0.29754 0.42893 0.06535 0.0
N3058 N 0.32444 0.35032 0.07676 0.0
N3059 N 0.30911 0.40954 0.0589 0.0
H3060 H 0.57039 0.40548 0.16924 0.0
H3061 H 0.68658 0.47391 0.20138 0.0
H3062 H 0.58969 0.42717 0.2382 0.0
H3063 H 0.66879 0.45681 0.13076 0.0
H3064 H 0.65071 0.45659 0.21443 0.0
H3065 H 0.60576 0.42363 0.15423 0.0
C3066 C 0.58198 0.41403 0.18124 0.0
C3067 C 0.57696 0.41466 0.2051 0.0
C3068 C 0.65449 0.45657 0.19605 0.0
C3069 C 0.61752 0.43537 0.18799 0.0
C3070 C 0.67508 0.46651 0.18852 0.0
C3071 C 0.68082 0.46674 0.16489 0.0
C3072 C 0.63929 0.44658 0.17992 0.0
C3073 C 0.66503 0.457 0.14913 0.0
C3074 C 0.6022 0.42434 0.17264 0.0
C3075 C 0.59283 0.4258 0.21979 0.0
N3076 N 0.64497 0.44719 0.15695 0.0
N3077 N 0.61227 0.43568 0.211 0.0
H3078 H 0.72498 0.09589 0.12741 0.0
H3079 H 0.63323 0.1612 0.04582 0.0
H3080 H 0.67219 0.06198 0.08685 0.0
H3081 H 0.68886 0.19663 0.08104 0.0
H3082 H 0.64424 0.1254 0.06539 0.0
H3083 H 0.70877 0.13369 0.11577 0.0
C3084 C 0.70967 0.09641 0.11656 0.0
C3085 C 0.69995 0.07586 0.10796 0.0
C3086 C 0.65398 0.14103 0.069 0.0
C3087 C 0.68157 0.11873 0.09439 0.0
C3088 C 0.64774 0.16149 0.0577 0.0
C3089 C 0.66025 0.18198 0.06153 0.0
C3090 C 0.67302 0.14087 0.08423 0.0
C3091 C 0.67863 0.18132 0.07757 0.0
C3092 C 0.70055 0.11794 0.10974 0.0
C3093 C 0.68032 0.07745 0.0937 0.0
N3094 N 0.68459 0.16108 0.08815 0.0
N3095 N 0.67192 0.09843 0.08726 0.0
H3096 H 0.31162 0.93974 0.32088 0.0
H3097 H 0.44719 0.92517 0.33901 0.0
H3098 H 0.34632 0.96859 0.38049 0.0
H3099 H 0.40656 0.88409 0.29151 0.0
H3100 H 0.41132 0.94079 0.35546 0.0
H3101 H 0.34685 0.91936 0.31043 0.0
C3102 C 0.32673 0.94178 0.33182 0.0
C3103 C 0.32611 0.95605 0.35148 0.0
C3104 C 0.41031 0.92817 0.34161 0.0
C3105 C 0.36684 0.93265 0.3395 0.0
C3106 C 0.43078 0.91913 0.33225 0.0
C3107 C 0.42996 0.90348 0.31356 0.0
C3108 C 0.38889 0.9216 0.33213 0.0
C3109 C 0.40813 0.89649 0.30547 0.0
C3110 C 0.34687 0.92999 0.3259 0.0
C3111 C 0.34614 0.95775 0.36517 0.0
N3112 N 0.38855 0.90575 0.31463 0.0
N3113 N 0.36587 0.94638 0.35876 0.0
H3114 H 0.20471 0.41936 0.87354 0.0
H3115 H 0.19126 0.32602 0.97575 0.0
H3116 H 0.2408 0.42189 0.93894 0.0
H3117 H 0.14669 0.32685 0.91569 0.0
H3118 H 0.21301 0.35829 0.95957 0.0
H3119 H 0.187 0.38232 0.88548 0.0
C3120 C 0.20921 0.41192 0.89018 0.0
C3121 C 0.22403 0.42376 0.90539 0.0
C3122 C 0.19851 0.35141 0.94984 0.0
C3123 C 0.20394 0.38177 0.91914 0.0
C3124 C 0.18595 0.33302 0.95919 0.0
C3125 C 0.16686 0.32382 0.94726 0.0
C3126 C 0.19201 0.36086 0.92835 0.0
C3127 C 0.16128 0.33332 0.9255 0.0
C3128 C 0.19901 0.39093 0.89706 0.0
C3129 C 0.22921 0.4135 0.9268 0.0
N3130 N 0.17369 0.35143 0.91681 0.0
N3131 N 0.21913 0.39323 0.93305 0.0
H3132 H 0.56759 0.59936 0.33575 0.0
H3133 H 0.67878 0.52146 0.30721 0.0
H3134 H 0.58642 0.57472 0.26768 0.0
H3135 H 0.66492 0.54704 0.37611 0.0
H3136 H 0.64337 0.53942 0.29361 0.0
H3137 H 0.60165 0.57951 0.35177 0.0
C3138 C 0.57883 0.58981 0.32416 0.0
C3139 C 0.5741 0.58886 0.30026 0.0
C3140 C 0.6479 0.54114 0.31174 0.0
C3141 C 0.61306 0.5661 0.31851 0.0
C3142 C 0.6682 0.53082 0.31958 0.0
C3143 C 0.67497 0.53289 0.34284 0.0
C3144 C 0.63407 0.55386 0.32716 0.0
C3145 C 0.66033 0.54502 0.35803 0.0
C3146 C 0.59828 0.57852 0.33334 0.0
C3147 C 0.58943 0.57636 0.2861 0.0
N3148 N 0.64058 0.55524 0.34989 0.0
N3149 N 0.60809 0.56551 0.29544 0.0
H3150 H 0.85803 0.16273 0.97296 0.0
H3151 H 0.79356 0.09243 0.872 0.0
H3152 H 0.83528 0.196 0.90983 0.0
H3153 H 0.81668 0.06378 0.93709 0.0
H3154 H 0.8109 0.12994 0.88317 0.0
H3155 H 0.84584 0.12585 0.95754 0.0
C3156 C 0.85086 0.16242 0.95566 0.0
C3157 C 0.84777 0.18287 0.94279 0.0
C3158 C 0.81223 0.11534 0.89487 0.0
C3159 C 0.83293 0.13997 0.92504 0.0
C3160 C 0.8024 0.09396 0.88848 0.0
C3161 C 0.8035 0.07498 0.9037 0.0
C3162 C 0.82331 0.11756 0.91651 0.0
C3163 C 0.81513 0.07792 0.92486 0.0
C3164 C 0.84361 0.14114 0.94689 0.0
C3165 C 0.83779 0.18086 0.92057 0.0
N3166 N 0.82445 0.0987 0.9306 0.0
N3167 N 0.83058 0.15984 0.91247 0.0
H3168 H 0.20551 0.41255 0.11909 0.0
H3169 H 0.12529 0.34751 0.02577 0.0
H3170 H 0.1678 0.4489 0.06573 0.0
H3171 H 0.16874 0.31339 0.07609 0.0
H3172 H 0.1359 0.38515 0.04309 0.0
H3173 H 0.18779 0.37638 0.10636 0.0
C3174 C 0.19347 0.41296 0.10472 0.0
C3175 C 0.1884 0.43385 0.09336 0.0
C3176 C 0.14284 0.36936 0.05048 0.0
C3177 C 0.1678 0.39228 0.07861 0.0
C3178 C 0.13664 0.34792 0.04071 0.0
C3179 C 0.14628 0.32736 0.04943 0.0
C3180 C 0.15861 0.37007 0.06913 0.0
C3181 C 0.16109 0.32884 0.06866 0.0
C3182 C 0.18323 0.39227 0.09748 0.0
C3183 C 0.1722 0.43329 0.0751 0.0
N3184 N 0.16687 0.34974 0.07773 0.0
N3185 N 0.16265 0.41283 0.06816 0.0
H3186 H 0.18629 0.67828 0.47987 0.0
H3187 H 0.15913 0.56941 0.3983 0.0
H3188 H 0.11949 0.66893 0.44769 0.0
H3189 H 0.22633 0.58654 0.42625 0.0
H3190 H 0.1428 0.60342 0.41808 0.0
H3191 H 0.1993 0.64201 0.46314 0.0
C3192 C 0.17425 0.66843 0.46934 0.0
C3193 C 0.15184 0.67676 0.46495 0.0
C3194 C 0.1611 0.59968 0.41983 0.0
C3195 C 0.16685 0.635 0.44529 0.0
C3196 C 0.17045 0.58027 0.40859 0.0
C3197 C 0.19421 0.57512 0.41047 0.0
C3198 C 0.1756 0.61394 0.4332 0.0
C3199 C 0.20805 0.58992 0.42389 0.0
C3200 C 0.18174 0.64768 0.45971 0.0
C3201 C 0.1369 0.66308 0.45149 0.0
N3202 N 0.19855 0.60853 0.43471 0.0
N3203 N 0.14477 0.6429 0.44187 0.0
H3204 H 0.93718 0.55281 0.79285 0.0
H3205 H 0.81545 0.59182 0.84657 0.0
H3206 H 0.91765 0.6249 0.79764 0.0
H3207 H 0.84078 0.52148 0.84308 0.0
H3208 H 0.8519 0.60516 0.82901 0.0
H3209 H 0.90114 0.54199 0.8111 0.0
C3210 C 0.92527 0.56648 0.79772 0.0
C3211 C 0.93058 0.58987 0.7937 0.0
C3212 C 0.84944 0.58685 0.83228 0.0
C3213 C 0.88872 0.5774 0.81496 0.0
C3214 C 0.82864 0.5792 0.84228 0.0
C3215 C 0.82495 0.55546 0.8465 0.0
C3216 C 0.86659 0.57061 0.82637 0.0
C3217 C 0.84278 0.53995 0.84067 0.0
C3218 C 0.90456 0.56022 0.80825 0.0
C3219 C 0.91425 0.60666 0.80041 0.0
N3220 N 0.86264 0.5478 0.83089 0.0
N3221 N 0.89399 0.6001 0.81076 0.0
H3222 H 0.86861 0.84136 0.46955 0.0
H3223 H 0.77524 0.90732 0.3904 0.0
H3224 H 0.80858 0.80951 0.43836 0.0
H3225 H 0.82557 0.94398 0.43183 0.0
H3226 H 0.79135 0.87077 0.40384 0.0
H3227 H 0.85712 0.87864 0.45202 0.0
C3228 C 0.85321 0.84217 0.45885 0.0
C3229 C 0.83943 0.8224 0.45553 0.0
C3230 C 0.79897 0.88679 0.40999 0.0
C3231 C 0.82631 0.86463 0.43548 0.0
C3232 C 0.78966 0.90772 0.40237 0.0
C3233 C 0.79879 0.92884 0.41024 0.0
C3234 C 0.81761 0.88679 0.42565 0.0
C3235 C 0.81798 0.92815 0.42528 0.0
C3236 C 0.84662 0.8634 0.44895 0.0
C3237 C 0.8196 0.82435 0.44161 0.0
N3238 N 0.82666 0.90746 0.43264 0.0
N3239 N 0.81366 0.84502 0.43217 0.0
H3240 H 0.69604 0.41659 0.32258 0.0
H3241 H 0.55894 0.42482 0.3332 0.0
H3242 H 0.66033 0.45361 0.37687 0.0
H3243 H 0.59248 0.37914 0.28451 0.0
H3244 H 0.59622 0.4327 0.35121 0.0
H3245 H 0.6591 0.39987 0.31027 0.0
C3246 C 0.68055 0.42094 0.33219 0.0
C3247 C 0.68135 0.43684 0.35067 0.0
C3248 C 0.59554 0.42073 0.33677 0.0
C3249 C 0.63888 0.41792 0.33639 0.0
C3250 C 0.57422 0.41622 0.32647 0.0
C3251 C 0.57268 0.40142 0.30726 0.0
C3252 C 0.61572 0.41072 0.32759 0.0
C3253 C 0.59296 0.39061 0.29935 0.0
C3254 C 0.6594 0.41144 0.32505 0.0
C3255 C 0.66057 0.44189 0.36225 0.0
N3256 N 0.61378 0.39576 0.30934 0.0
N3257 N 0.64024 0.43266 0.35479 0.0
H3258 H 0.37762 0.65133 0.5279 0.0
H3259 H 0.28889 0.59416 0.61823 0.0
H3260 H 0.31762 0.68472 0.55748 0.0
H3261 H 0.33326 0.55178 0.57568 0.0
H3262 H 0.30611 0.62874 0.60138 0.0
H3263 H 0.36763 0.61569 0.54962 0.0
C3264 C 0.36253 0.65121 0.53905 0.0
C3265 C 0.34828 0.67088 0.54072 0.0
C3266 C 0.31226 0.61193 0.59572 0.0
C3267 C 0.33707 0.63074 0.56566 0.0
C3268 C 0.30242 0.59219 0.60537 0.0
C3269 C 0.30938 0.57014 0.59803 0.0
C3270 C 0.32918 0.60977 0.57836 0.0
C3271 C 0.32739 0.56854 0.58171 0.0
C3272 C 0.35682 0.63094 0.55134 0.0
C3273 C 0.32893 0.66989 0.55537 0.0
N3274 N 0.33652 0.58816 0.57212 0.0
N3275 N 0.32397 0.65026 0.5672 0.0
H3276 H 0.94614 0.43583 0.68805 0.0
H3277 H 0.81038 0.41862 0.66581 0.0
H3278 H 0.90909 0.37792 0.71742 0.0
H3279 H 0.84864 0.48147 0.65271 0.0
H3280 H 0.84608 0.40066 0.68089 0.0
H3281 H 0.91061 0.44943 0.67036 0.0
C3282 C 0.93046 0.42585 0.69069 0.0
C3283 C 0.93056 0.40582 0.70446 0.0
C3284 C 0.84655 0.41837 0.67472 0.0
C3285 C 0.88934 0.42159 0.68423 0.0
C3286 C 0.82626 0.4286 0.66605 0.0
C3287 C 0.82648 0.45166 0.65813 0.0
C3288 C 0.86722 0.43124 0.67513 0.0
C3289 C 0.84748 0.46383 0.65895 0.0
C3290 C 0.91008 0.4337 0.68059 0.0
C3291 C 0.90974 0.39345 0.70692 0.0
N3292 N 0.86691 0.45348 0.66721 0.0
N3293 N 0.88982 0.40166 0.69704 0.0
H3294 H 0.19328 0.08486 0.66297 0.0
H3295 H 0.07394 0.05425 0.72648 0.0
H3296 H 0.1672 0.0157 0.67437 0.0
H3297 H 0.09166 0.1245 0.70786 0.0
H3298 H 0.10993 0.04087 0.70965 0.0
H3299 H 0.1579 0.10057 0.68075 0.0
C3300 C 0.18013 0.07299 0.66912 0.0
C3301 C 0.18325 0.04889 0.66703 0.0
C3302 C 0.1061 0.05924 0.70918 0.0
C3303 C 0.14286 0.06674 0.68747 0.0
C3304 C 0.08547 0.06696 0.7189 0.0
C3305 C 0.07961 0.09057 0.71846 0.0
C3306 C 0.12127 0.07514 0.69881 0.0
C3307 C 0.09549 0.10615 0.70856 0.0
C3308 C 0.15994 0.08198 0.67921 0.0
C3309 C 0.16553 0.03435 0.67517 0.0
N3310 N 0.11561 0.09814 0.699 0.0
N3311 N 0.14626 0.0435 0.68506 0.0
H3312 H 0.58119 0.67656 0.80948 0.0
H3313 H 0.57543 0.67355 0.94755 0.0
H3314 H 0.53529 0.63075 0.84653 0.0
H3315 H 0.62301 0.71553 0.90802 0.0
H3316 H 0.56282 0.65479 0.91162 0.0
H3317 H 0.59918 0.68774 0.84589 0.0
C3318 C 0.5751 0.66862 0.82537 0.0
C3319 C 0.55667 0.65282 0.82505 0.0
C3320 C 0.57616 0.66796 0.91086 0.0
C3321 C 0.57692 0.66593 0.86711 0.0
C3322 C 0.58346 0.67864 0.93139 0.0
C3323 C 0.60019 0.69637 0.93084 0.0
C3324 C 0.58566 0.67504 0.88961 0.0
C3325 C 0.60977 0.70234 0.90931 0.0
C3326 C 0.58536 0.67505 0.84621 0.0
C3327 C 0.54954 0.64294 0.84609 0.0
N3328 N 0.60229 0.69181 0.88963 0.0
N3329 N 0.55948 0.64993 0.86639 0.0
H3330 H 0.93453 0.18572 0.44578 0.0
H3331 H 0.92026 0.17887 0.30834 0.0
H3332 H 0.88085 0.22286 0.40937 0.0
H3333 H 0.97126 0.14087 0.34769 0.0
H3334 H 0.90346 0.19306 0.34461 0.0
H3335 H 0.94577 0.16701 0.40985 0.0
C3336 C 0.92497 0.18983 0.43014 0.0
C3337 C 0.90685 0.20602 0.43051 0.0
C3338 C 0.91822 0.1815 0.34528 0.0
C3339 C 0.91989 0.18472 0.38893 0.0
C3340 C 0.9278 0.17327 0.32456 0.0
C3341 C 0.94738 0.15872 0.32489 0.0
C3342 C 0.92826 0.17512 0.36649 0.0
C3343 C 0.95649 0.15234 0.3465 0.0
C3344 C 0.93142 0.1791 0.40957 0.0
C3345 C 0.8949 0.21044 0.40979 0.0
N3346 N 0.94693 0.16064 0.36634 0.0
N3347 N 0.90183 0.20003 0.3897 0.0
H3348 H 0.46157 0.87465 0.83755 0.0
H3349 H 0.4121 0.7688 0.91291 0.0
H3350 H 0.46319 0.80247 0.81784 0.0
H3351 H 0.41025 0.83934 0.93793 0.0
H3352 H 0.42935 0.78223 0.87723 0.0
H3353 H 0.44214 0.86347 0.87401 0.0
C3354 C 0.45794 0.85654 0.84087 0.0
C3355 C 0.46404 0.83951 0.82457 0.0
C3356 C 0.42512 0.79491 0.89041 0.0
C3357 C 0.44182 0.82667 0.86591 0.0
C3358 C 0.41494 0.78722 0.91086 0.0
C3359 C 0.40946 0.80292 0.92862 0.0
C3360 C 0.4301 0.81856 0.88742 0.0
C3361 C 0.41431 0.82656 0.92484 0.0
C3362 C 0.44682 0.85018 0.86161 0.0
C3363 C 0.45886 0.8163 0.82975 0.0
N3364 N 0.4244 0.83367 0.90467 0.0
N3365 N 0.44811 0.81066 0.84982 0.0
H3366 H 0.12448 0.28592 0.41228 0.0
H3367 H 0.02907 0.3642 0.34808 0.0
H3368 H 0.06215 0.31221 0.44416 0.0
H3369 H 0.08242 0.32723 0.31087 0.0
H3370 H 0.04455 0.34916 0.3843 0.0
H3371 H 0.11288 0.30475 0.3757 0.0
C3372 C 0.10852 0.29578 0.41164 0.0
C3373 C 0.09417 0.29736 0.43121 0.0
C3374 C 0.05295 0.34436 0.36822 0.0
C3375 C 0.08091 0.31891 0.38975 0.0
C3376 C 0.04401 0.35289 0.34745 0.0
C3377 C 0.05421 0.3468 0.32623 0.0
C3378 C 0.07231 0.32959 0.36794 0.0
C3379 C 0.07399 0.33251 0.32674 0.0
C3380 C 0.10186 0.30643 0.3908 0.0
C3381 C 0.07364 0.31029 0.42945 0.0
N3382 N 0.08231 0.32427 0.34723 0.0
N3383 N 0.06766 0.3205 0.40917 0.0
H3384 H 0.53421 0.37966 0.66016 0.0
H3385 H 0.63179 0.30274 0.59788 0.0
H3386 H 0.58161 0.33356 0.69496 0.0
H3387 H 0.5789 0.33926 0.55979 0.0
H3388 H 0.61778 0.32043 0.63359 0.0
H3389 H 0.55426 0.37141 0.62328 0.0
C3390 C 0.54909 0.36822 0.66009 0.0
C3391 C 0.55619 0.3571 0.68051 0.0
C3392 C 0.60931 0.3248 0.61743 0.0
C3393 C 0.57904 0.34761 0.63876 0.0
C3394 C 0.61732 0.31465 0.59703 0.0
C3395 C 0.60631 0.31926 0.57588 0.0
C3396 C 0.58995 0.33959 0.61682 0.0
C3397 C 0.5879 0.33524 0.57573 0.0
C3398 C 0.56042 0.3634 0.63909 0.0
C3399 C 0.57542 0.34227 0.67954 0.0
N3400 N 0.58007 0.3446 0.59595 0.0
N3401 N 0.58605 0.3379 0.65907 0.0
H3402 H 0.63402 0.20263 0.59273 0.0
H3403 H 0.53176 0.18812 0.68513 0.0
H3404 H 0.5701 0.24135 0.59268 0.0
H3405 H 0.59201 0.1437 0.684 0.0
H3406 H 0.5495 0.21228 0.65572 0.0
H3407 H 0.62278 0.1853 0.63013 0.0
C3408 C 0.61791 0.20783 0.60083 0.0
C3409 C 0.60282 0.22318 0.58953 0.0
C3410 C 0.55899 0.19737 0.66202 0.0
C3411 C 0.58984 0.20352 0.63195 0.0
C3412 C 0.54889 0.18356 0.67908 0.0
C3413 C 0.56018 0.1635 0.68701 0.0
C3414 C 0.58055 0.19113 0.65256 0.0
C3415 C 0.58237 0.15864 0.67808 0.0
C3416 C 0.61142 0.19786 0.62205 0.0
C3417 C 0.58208 0.22929 0.60064 0.0
N3418 N 0.5917 0.17218 0.66115 0.0
N3419 N 0.57616 0.21935 0.62108 0.0
H3420 H 0.45355 0.11983 0.66286 0.0
H3421 H 0.41693 0.23218 0.5898 0.0
H3422 H 0.472 0.19045 0.67928 0.0
H3423 H 0.4081 0.16324 0.56211 0.0
H3424 H 0.43452 0.21579 0.62417 0.0
H3425 H 0.43542 0.13382 0.62662 0.0
C3426 C 0.45398 0.13815 0.65879 0.0
C3427 C 0.46409 0.154 0.67427 0.0
C3428 C 0.42873 0.20412 0.61066 0.0
C3429 C 0.44333 0.17005 0.6333 0.0
C3430 C 0.41836 0.21352 0.59103 0.0
C3431 C 0.4108 0.19911 0.57297 0.0
C3432 C 0.43168 0.18001 0.61253 0.0
C3433 C 0.41379 0.17501 0.57554 0.0
C3434 C 0.44357 0.14612 0.63821 0.0
C3435 C 0.46415 0.17755 0.66815 0.0
N3436 N 0.42398 0.16618 0.59498 0.0
N3437 N 0.45387 0.18478 0.64835 0.0
H3438 H 0.4783 0.36125 0.65491 0.0
H3439 H 0.37784 0.28746 0.593 0.0
H3440 H 0.42255 0.32922 0.69317 0.0
H3441 H 0.44108 0.30984 0.55999 0.0
H3442 H 0.39107 0.30591 0.62925 0.0
H3443 H 0.46208 0.34575 0.61922 0.0
C3444 C 0.4627 0.35091 0.65589 0.0
C3445 C 0.45199 0.34642 0.67726 0.0
C3446 C 0.40194 0.30679 0.61398 0.0
C3447 C 0.43301 0.3287 0.63612 0.0
C3448 C 0.39436 0.29636 0.59333 0.0
C3449 C 0.40844 0.29698 0.57351 0.0
C3450 C 0.42358 0.31808 0.6146 0.0
C3451 C 0.42972 0.30869 0.57488 0.0
C3452 C 0.45333 0.34212 0.63542 0.0
C3453 C 0.4314 0.3333 0.67718 0.0
N3454 N 0.43659 0.31871 0.59498 0.0
N3455 N 0.42264 0.32482 0.65696 0.0
H3456 H 0.84687 0.53299 0.62808 0.0
H3457 H 0.91417 0.62072 0.71261 0.0
H3458 H 0.8139 0.58012 0.67579 0.0
H3459 H 0.94893 0.56745 0.67325 0.0
H3460 H 0.87767 0.60967 0.69444 0.0
H3461 H 0.88482 0.54914 0.63934 0.0
C3462 C 0.8476 0.54702 0.64053 0.0
C3463 C 0.8273 0.55516 0.65113 0.0
C3464 C 0.8933 0.60046 0.68964 0.0
C3465 C 0.87034 0.57353 0.66416 0.0
C3466 C 0.91418 0.60672 0.70013 0.0
C3467 C 0.93471 0.59485 0.69474 0.0
C3468 C 0.89277 0.58211 0.67361 0.0
C3469 C 0.93362 0.57717 0.67794 0.0
C3470 C 0.86921 0.55611 0.64709 0.0
C3471 C 0.82917 0.57319 0.66735 0.0
N3472 N 0.91299 0.57121 0.66813 0.0
N3473 N 0.85023 0.58165 0.67342 0.0
H3474 H 0.82362 0.9451 0.5675 0.0
H3475 H 0.81959 0.80771 0.58217 0.0
H3476 H 0.78434 0.91216 0.62186 0.0
H3477 H 0.86494 0.84388 0.53501 0.0
H3478 H 0.80779 0.84504 0.59868 0.0
H3479 H 0.84015 0.9078 0.5571 0.0
C3480 C 0.81859 0.92995 0.57739 0.0
C3481 C 0.80248 0.9317 0.59549 0.0
C3482 C 0.82047 0.84475 0.58485 0.0
C3483 C 0.82122 0.88857 0.58343 0.0
C3484 C 0.8273 0.82342 0.57546 0.0
C3485 C 0.84312 0.82259 0.55693 0.0
C3486 C 0.82949 0.86539 0.57564 0.0
C3487 C 0.85234 0.8436 0.54887 0.0
C3488 C 0.82808 0.9086 0.57145 0.0
C3489 C 0.79677 0.91153 0.60783 0.0
N3490 N 0.84529 0.86405 0.55815 0.0
N3491 N 0.80593 0.89068 0.60138 0.0
H3492 H 0.1956 0.94422 0.6992 0.0
H3493 H 0.06793 0.90359 0.66378 0.0
H3494 H 0.16871 0.95414 0.63008 0.0
H3495 H 0.09558 0.90346 0.73336 0.0
H3496 H 0.10491 0.91916 0.64978 0.0
H3497 H 0.15954 0.92615 0.71044 0.0
C3498 C 0.18207 0.94261 0.68628 0.0
C3499 C 0.18522 0.95089 0.66364 0.0
C3500 C 0.10281 0.91555 0.66808 0.0
C3501 C 0.14338 0.92996 0.6766 0.0
C3502 C 0.08168 0.90669 0.67613 0.0
C3503 C 0.07841 0.90209 0.69988 0.0
C3504 C 0.12084 0.91977 0.68385 0.0
C3505 C 0.0971 0.90626 0.71492 0.0
C3506 C 0.16137 0.93222 0.69278 0.0
C3507 C 0.167 0.94806 0.64774 0.0
N3508 N 0.11734 0.91487 0.70666 0.0
N3509 N 0.14675 0.93787 0.65455 0.0
H3510 H 0.19042 0.68855 0.53855 0.0
H3511 H 0.19169 0.58647 0.63276 0.0
H3512 H 0.13511 0.67859 0.58798 0.0
H3513 H 0.23041 0.58577 0.56888 0.0
H3514 H 0.17631 0.62501 0.6223 0.0
H3515 H 0.2107 0.65559 0.55533 0.0
C3516 C 0.18247 0.67954 0.55292 0.0
C3517 C 0.16067 0.68625 0.56145 0.0
C3518 C 0.18841 0.61647 0.61078 0.0
C3519 C 0.1842 0.6485 0.5811 0.0
C3520 C 0.19726 0.59463 0.6168 0.0
C3521 C 0.2121 0.58294 0.60152 0.0
C3522 C 0.19487 0.62667 0.58958 0.0
C3523 C 0.21875 0.59411 0.58099 0.0
C3524 C 0.19418 0.66074 0.5626 0.0
C3525 C 0.15177 0.67415 0.5807 0.0
N3526 N 0.21006 0.61527 0.57561 0.0
N3527 N 0.16347 0.65575 0.58974 0.0
H3528 H 0.9318 0.40175 0.84058 0.0
H3529 H 0.81321 0.46542 0.8073 0.0
H3530 H 0.91018 0.419 0.77105 0.0
H3531 H 0.83361 0.45454 0.87846 0.0
H3532 H 0.84876 0.44734 0.79453 0.0
H3533 H 0.89624 0.41973 0.85546 0.0
C3534 C 0.91965 0.40924 0.82842 0.0
C3535 C 0.9241 0.40867 0.80444 0.0
C3536 C 0.84562 0.44883 0.81297 0.0
C3537 C 0.88335 0.4292 0.8214 0.0
C3538 C 0.8252 0.45921 0.82035 0.0
C3539 C 0.8203 0.46148 0.84406 0.0
C3540 C 0.86154 0.44046 0.82932 0.0
C3541 C 0.83669 0.45314 0.86001 0.0
C3542 C 0.89933 0.41946 0.83696 0.0
C3543 C 0.90753 0.41851 0.78957 0.0
N3544 N 0.85662 0.44291 0.85235 0.0
N3545 N 0.88804 0.42832 0.7983 0.0
H3546 H 0.71876 0.91001 0.37912 0.0
H3547 H 0.62463 0.8401 0.45387 0.0
H3548 H 0.67 0.94115 0.42642 0.0
H3549 H 0.68255 0.80682 0.42023 0.0
H3550 H 0.63671 0.87699 0.43718 0.0
H3551 H 0.70143 0.8718 0.38738 0.0
C3552 C 0.70416 0.90885 0.39086 0.0
C3553 C 0.69588 0.92867 0.40226 0.0
C3554 C 0.64669 0.86158 0.43328 0.0
C3555 C 0.67608 0.88537 0.41172 0.0
C3556 C 0.63983 0.84049 0.44289 0.0
C3557 C 0.65276 0.8203 0.43882 0.0
C3558 C 0.6667 0.86264 0.41944 0.0
C3559 C 0.672 0.82186 0.42389 0.0
C3560 C 0.69439 0.88709 0.39568 0.0
C3561 C 0.67707 0.92625 0.41746 0.0
N3562 N 0.67853 0.8427 0.41494 0.0
N3563 N 0.6679 0.90506 0.42179 0.0
H3564 H 0.15457 0.03137 0.87737 0.0
H3565 H 0.08882 0.12627 0.79993 0.0
H3566 H 0.18772 0.07749 0.82885 0.0
H3567 H 0.05349 0.06875 0.83212 0.0
H3568 H 0.12486 0.11365 0.81802 0.0
H3569 H 0.11704 0.04982 0.86829 0.0
C3570 C 0.15398 0.04564 0.86518 0.0
C3571 C 0.17412 0.05285 0.85366 0.0
C3572 C 0.10917 0.10389 0.82131 0.0
C3573 C 0.1317 0.07394 0.84334 0.0
C3574 C 0.08857 0.11106 0.81089 0.0
C3575 C 0.0681 0.09835 0.8141 0.0
C3576 C 0.10942 0.08382 0.83509 0.0
C3577 C 0.06879 0.07911 0.82909 0.0
C3578 C 0.13263 0.05605 0.85991 0.0
C3579 C 0.17251 0.07126 0.8379 0.0
N3580 N 0.08917 0.07227 0.83882 0.0
N3581 N 0.15171 0.08109 0.83316 0.0
H3582 H 0.2753 0.59427 0.37511 0.0
H3583 H 0.37157 0.65576 0.45464 0.0
H3584 H 0.32319 0.5584 0.41988 0.0
H3585 H 0.31803 0.69393 0.41901 0.0
H3586 H 0.35749 0.62018 0.43675 0.0
H3587 H 0.2942 0.6312 0.38555 0.0
C3588 C 0.29004 0.59414 0.38674 0.0
C3589 C 0.29761 0.57333 0.39679 0.0
C3590 C 0.34887 0.63635 0.43269 0.0
C3591 C 0.31915 0.6152 0.40884 0.0
C3592 C 0.35688 0.65671 0.44301 0.0
C3593 C 0.34584 0.67792 0.43863 0.0
C3594 C 0.32956 0.63704 0.41785 0.0
C3595 C 0.32717 0.67804 0.4229 0.0
C3596 C 0.30071 0.61517 0.39282 0.0
C3597 C 0.31663 0.57408 0.41192 0.0
N3598 N 0.31948 0.6579 0.41326 0.0
N3599 N 0.32662 0.5946 0.41754 0.0
H3600 H 0.7367 0.91476 0.57956 0.0
H3601 H 0.62532 0.83928 0.54465 0.0
H3602 H 0.66704 0.93887 0.59233 0.0
H3603 H 0.69615 0.82261 0.52732 0.0
H3604 H 0.63904 0.87556 0.56271 0.0
H3605 H 0.7211 0.88005 0.56185 0.0
C3606 C 0.71808 0.91269 0.57894 0.0
C3607 C 0.70321 0.92984 0.58766 0.0
C3608 C 0.65147 0.86392 0.55483 0.0
C3609 C 0.68501 0.88991 0.5667 0.0
C3610 C 0.64364 0.8433 0.54447 0.0
C3611 C 0.6596 0.8278 0.53458 0.0
C3612 C 0.67536 0.86889 0.55527 0.0
C3613 C 0.68316 0.83384 0.53487 0.0
C3614 C 0.70912 0.89285 0.56853 0.0
C3615 C 0.67916 0.9262 0.58572 0.0
N3616 N 0.69026 0.85374 0.54508 0.0
N3617 N 0.67078 0.90662 0.57546 0.0
H3618 H 0.69672 0.19 0.94515 0.0
H3619 H 0.67834 0.05476 0.92982 0.0
H3620 H 0.63508 0.15622 0.97061 0.0
H3621 H 0.72484 0.09542 0.88756 0.0
H3622 H 0.66224 0.09059 0.9457 0.0
H3623 H 0.70775 0.15456 0.92537 0.0
C3624 C 0.68546 0.17505 0.94661 0.0
C3625 C 0.66501 0.17601 0.9597 0.0
C3626 C 0.67583 0.0916 0.93279 0.0
C3627 C 0.67767 0.13508 0.93697 0.0
C3628 C 0.68503 0.07112 0.9236 0.0
C3629 C 0.70331 0.07189 0.90745 0.0
C3630 C 0.68508 0.11301 0.92597 0.0
C3631 C 0.71125 0.09377 0.90033 0.0
C3632 C 0.69173 0.15481 0.93514 0.0
C3633 C 0.651 0.15616 0.96068 0.0
N3634 N 0.70226 0.11336 0.90979 0.0
N3635 N 0.65772 0.13633 0.94965 0.0
H3636 H 0.40658 0.12803 0.28607 0.0
H3637 H 0.34569 0.03851 0.37311 0.0
H3638 H 0.44014 0.06857 0.31652 0.0
H3639 H 0.30628 0.08136 0.32609 0.0
H3640 H 0.38125 0.05538 0.35794 0.0
H3641 H 0.37028 0.1168 0.30578 0.0
C3642 C 0.40635 0.11282 0.29707 0.0
C3643 C 0.42627 0.09908 0.29955 0.0
C3644 C 0.36479 0.06118 0.35102 0.0
C3645 C 0.38527 0.08638 0.32217 0.0
C3646 C 0.34443 0.05146 0.35962 0.0
C3647 C 0.32283 0.05813 0.35063 0.0
C3648 C 0.36372 0.07785 0.33331 0.0
C3649 C 0.32244 0.07561 0.33359 0.0
C3650 C 0.3857 0.10637 0.3082 0.0
C3651 C 0.42511 0.0795 0.3139 0.0
N3652 N 0.34259 0.08474 0.32535 0.0
N3653 N 0.40503 0.07377 0.32464 0.0
H3654 H 0.38323 0.34677 0.96945 0.0
H3655 H 0.30321 0.41146 0.87603 0.0
H3656 H 0.34078 0.31256 0.91837 0.0
H3657 H 0.34173 0.44807 0.92859 0.0
H3658 H 0.32149 0.3754 0.88831 0.0
H3659 H 0.37323 0.38435 0.9517 0.0
C3660 C 0.37229 0.34715 0.95421 0.0
C3661 C 0.36269 0.32661 0.94542 0.0
C3662 C 0.32614 0.39132 0.89709 0.0
C3663 C 0.35102 0.36924 0.92525 0.0
C3664 C 0.3156 0.41192 0.89011 0.0
C3665 C 0.32071 0.4328 0.90143 0.0
C3666 C 0.34185 0.39141 0.91574 0.0
C3667 C 0.33731 0.4324 0.9193 0.0
C3668 C 0.36642 0.36856 0.94419 0.0
C3669 C 0.34837 0.32802 0.92582 0.0
N3670 N 0.34709 0.412 0.92609 0.0
N3671 N 0.34288 0.34889 0.91654 0.0
H3672 H 0.18855 0.91669 0.84278 0.0
H3673 H 0.05899 0.94332 0.80116 0.0
H3674 H 0.15618 0.98421 0.8428 0.0
H3675 H 0.08959 0.8754 0.79406 0.0
H3676 H 0.09427 0.95718 0.81898 0.0
H3677 H 0.15259 0.90011 0.82731 0.0
C3678 C 0.17398 0.92806 0.83964 0.0
C3679 C 0.17562 0.95199 0.84421 0.0
C3680 C 0.09343 0.93922 0.81361 0.0
C3681 C 0.13432 0.933 0.82665 0.0
C3682 C 0.07318 0.93122 0.80335 0.0
C3683 C 0.07128 0.90813 0.79593 0.0
C3684 C 0.11226 0.92414 0.81658 0.0
C3685 C 0.09031 0.89334 0.79951 0.0
C3686 C 0.15342 0.91852 0.83086 0.0
C3687 C 0.15593 0.9657 0.84001 0.0
N3688 N 0.11011 0.90163 0.80952 0.0
N3689 N 0.13628 0.95602 0.83146 0.0
H3690 H 0.77314 0.07647 0.06374 0.0
H3691 H 0.87411 0.17112 0.05113 0.0
H3692 H 0.83278 0.07855 0.10888 0.0
H3693 H 0.80819 0.17437 0.01604 0.0
H3694 H 0.8624 0.13391 0.06843 0.0
H3695 H 0.78867 0.10934 0.04241 0.0
C3696 C 0.78946 0.08384 0.06928 0.0
C3697 C 0.80146 0.07479 0.08841 0.0
C3698 C 0.85063 0.14272 0.05677 0.0
C3699 C 0.81962 0.11249 0.06368 0.0
C3700 C 0.85737 0.16383 0.0468 0.0
C3701 C 0.84199 0.17591 0.03236 0.0
C3702 C 0.8285 0.13364 0.05199 0.0
C3703 C 0.82046 0.16579 0.02735 0.0
C3704 C 0.79842 0.10258 0.05694 0.0
C3705 C 0.82291 0.08483 0.09424 0.0
N3706 N 0.81434 0.14535 0.0372 0.0
N3707 N 0.83124 0.10322 0.08202 0.0
H3708 H 0.34224 0.98632 0.1626 0.0
H3709 H 0.41239 0.87599 0.21006 0.0
H3710 H 0.3128 0.91752 0.1613 0.0
H3711 H 0.43462 0.9473 0.21465 0.0
H3712 H 0.37646 0.88926 0.19088 0.0
H3713 H 0.37722 0.9707 0.17949 0.0
C3714 C 0.34316 0.96782 0.1655 0.0
C3715 C 0.32438 0.95327 0.16027 0.0
C3716 C 0.38929 0.90189 0.19616 0.0
C3717 C 0.36478 0.9351 0.18048 0.0
C3718 C 0.40974 0.89434 0.20711 0.0
C3719 C 0.4266 0.91052 0.214 0.0
C3720 C 0.38588 0.92571 0.19205 0.0
C3721 C 0.42226 0.93408 0.20971 0.0
C3722 C 0.36321 0.95888 0.17547 0.0
C3723 C 0.32673 0.92945 0.16517 0.0
N3724 N 0.40249 0.94087 0.19906 0.0
N3725 N 0.34654 0.92109 0.17503 0.0
H3726 H 0.69634 0.58714 0.18218 0.0
H3727 H 0.55915 0.57411 0.17595 0.0
H3728 H 0.6605 0.54289 0.13361 0.0
H3729 H 0.59233 0.6262 0.21804 0.0
H3730 H 0.59639 0.5644 0.15889 0.0
H3731 H 0.65915 0.60359 0.19395 0.0
C3732 C 0.68077 0.58103 0.17372 0.0
C3733 C 0.68172 0.56329 0.15698 0.0
C3734 C 0.59564 0.57814 0.17165 0.0
C3735 C 0.6389 0.58198 0.17074 0.0
C3736 C 0.57433 0.5837 0.18145 0.0
C3737 C 0.57266 0.60091 0.19854 0.0
C3738 C 0.61572 0.58961 0.17918 0.0
C3739 C 0.59288 0.61286 0.20485 0.0
C3740 C 0.65948 0.59042 0.18058 0.0
C3741 C 0.66077 0.55609 0.14691 0.0
N3742 N 0.61369 0.60677 0.19537 0.0
N3743 N 0.6403 0.5653 0.15407 0.0
loop_
_geom_bond_atom_site_label_1
_geom_bond_atom_site_label_2
_geom_bond_distance
_geom_bond_site_symmetry_2
_ccdc_geom_bond_type
C0 C1 1.351 . S
C0 N3 1.368 . S
C0 H5 0.931 . S
C1 C0 1.351 . S
C1 N2 1.373 . S
C1 H29 0.930 . S
N2 C1 1.373 . S
N2 C4 1.340 . S
N3 C0 1.368 . S
N3 C4 1.321 . S
N3 Co6 2.135 . S
C4 N2 1.340 . S
C4 N3 1.321 . S
C4 H28 0.930 . S
H5 C0 0.931 . S
Co6 N3 2.135 . S
Co6 N9 2.121 . S
Co6 O14 2.055 . S
Co6 O17 2.039 . S
Co6 N20 2.140 . S
C7 O8 1.227 . S
C7 O17 1.265 . S
O8 C7 1.227 . S
N9 Co6 2.121 . S
N9 C11 1.375 1_455 S
N9 C12 1.313 1_455 S
C10 C11 1.338 . S
C10 N13 1.377 . S
C10 H30 0.930 . S
C11 N9 1.375 1_655 S
C11 C10 1.338 . S
C11 H15 0.931 . S
C12 N9 1.313 1_655 S
C12 N13 1.344 . S
C12 H16 0.930 1_655 S
N13 C10 1.377 . S
N13 C12 1.344 . S
O14 Co6 2.055 . S
O14 C18 1.253 . S
H15 C11 0.931 . S
H16 C12 0.930 1_455 S
O17 Co6 2.039 . S
O17 C7 1.265 . S
C18 O14 1.253 . S
C18 O19 1.227 . S
O19 C18 1.227 . S
N20 Co6 2.140 . S
N20 C23 1.346 . S
N20 C24 1.345 . S
C21 C22 1.387 . S
C21 C25 1.391 . S
C22 C21 1.387 . S
C22 C23 1.369 . S
C22 H31 0.929 . S
C23 N20 1.346 . S
C23 C22 1.369 . S
C23 H26 0.928 . S
C24 N20 1.345 . S
C24 C25 1.371 . S
C24 H27 0.931 . S
C25 C21 1.391 . S
C25 C24 1.371 . S
C25 H32 0.930 . S
H26 C23 0.928 . S
H27 C24 0.931 . S
H28 C4 0.930 . S
H29 C1 0.930 . S
H30 C10 0.930 . S
H31 C22 0.929 . S
H32 C25 0.930 . S
C33 C34 1.351 . S
C33 N36 1.368 . S
C33 H38 0.931 . S
C34 C33 1.351 . S
C34 N35 1.366 1_556 S
C34 H62 0.930 . S
N35 C34 1.366 1_554 S
N35 C37 1.333 1_554 S
N36 C33 1.368 . S
N36 C37 1.321 . S
N36 Co39 2.135 . S
C37 N35 1.333 1_556 S
C37 N36 1.321 . S
C37 H61 0.930 . S
H38 C33 0.931 . S
Co39 N36 2.135 . S
Co39 N42 2.121 . S
Co39 O47 2.055 . S
Co39 O50 2.039 . S
Co39 N53 2.137 1_556 S
C40 O41 1.227 1_556 S
C40 O50 1.265 . S
O41 C40 1.227 1_554 S
N42 Co39 2.121 . S
N42 C44 1.375 . S
N42 C45 1.313 . S
C43 C44 1.338 . S
C43 N46 1.377 . S
C43 H63 0.930 . S
C44 N42 1.375 . S
C44 C43 1.338 . S
C44 H48 0.931 . S
C45 N42 1.313 . S
C45 N46 1.344 . S
C45 H49 0.930 . S
N46 C43 1.377 . S
N46 C45 1.344 . S
O47 Co39 2.055 . S
O47 C51 1.253 . S
H48 C44 0.931 . S
H49 C45 0.930 . S
O50 Co39 2.039 . S
O50 C40 1.265 . S
C51 O47 1.253 . S
C51 O52 1.227 . S
O52 C51 1.227 . S
N53 Co39 2.137 1_554 S
N53 C56 1.349 . S
N53 C57 1.344 1_554 S
C54 C55 1.387 . S
C54 C58 1.391 . S
C55 C54 1.387 . S
C55 C56 1.369 . S
C55 H64 0.929 . S
C56 N53 1.349 . S
C56 C55 1.369 . S
C56 H59 0.928 . S
C57 N53 1.344 1_556 S
C57 C58 1.333 1_556 S
C57 H60 0.973 . S
C58 C54 1.391 . S
C58 C57 1.333 1_554 S
C58 H65 0.930 . S
H59 C56 0.928 . S
H60 C57 0.973 . S
H61 C37 0.930 . S
H62 C34 0.930 . S
H63 C43 0.930 . S
H64 C55 0.929 . S
H65 C58 0.930 . S
C66 C67 1.351 . S
C66 N69 1.368 . S
C66 H71 0.931 . S
C67 C66 1.351 . S
C67 N68 1.373 . S
C67 H95 0.930 . S
N68 C67 1.373 . S
N68 C70 1.340 . S
N69 C66 1.368 . S
N69 C70 1.321 . S
N69 Co72 2.135 . S
C70 N68 1.340 . S
C70 N69 1.321 . S
C70 H94 0.930 . S
H71 C66 0.931 . S
Co72 N69 2.135 . S
Co72 N75 2.121 . S
Co72 O80 2.055 . S
Co72 O83 2.039 . S
Co72 N86 2.140 . S
C73 O74 1.227 . S
C73 O83 1.265 . S
O74 C73 1.227 . S
N75 Co72 2.121 . S
N75 C77 1.375 1_655 S
N75 C78 1.313 1_655 S
C76 C77 1.338 . S
C76 N79 1.377 . S
C76 H96 0.930 . S
C77 N75 1.375 1_455 S
C77 C76 1.338 . S
C77 H81 0.931 . S
C78 N75 1.313 1_455 S
C78 N79 1.344 . S
C78 H82 0.930 1_455 S
N79 C76 1.377 . S
N79 C78 1.344 . S
O80 Co72 2.055 . S
O80 C84 1.253 . S
H81 C77 0.931 . S
H82 C78 0.930 1_655 S
O83 Co72 2.039 . S
O83 C73 1.265 . S
C84 O80 1.253 . S
C84 O85 1.227 . S
O85 C84 1.227 . S
N86 Co72 2.140 . S
N86 C89 1.346 . S
N86 C90 1.345 . S
C87 C88 1.387 . S
C87 C91 1.391 . S
C88 C87 1.387 . S
C88 C89 1.369 . S
C88 H97 0.929 . S
C89 N86 1.346 . S
C89 C88 1.369 . S
C89 H92 0.928 . S
C90 N86 1.345 . S
C90 C91 1.371 . S
C90 H93 0.931 . S
C91 C87 1.391 . S
C91 C90 1.371 . S
C91 H98 0.930 . S
H92 C89 0.928 . S
H93 C90 0.931 . S
H94 C70 0.930 . S
H95 C67 0.930 . S
H96 C76 0.930 . S
H97 C88 0.929 . S
H98 C91 0.930 . S
C99 C100 1.351 . S
C99 N102 1.368 . S
C99 H104 0.931 . S
C100 C99 1.351 . S
C100 N101 1.366 1_556 S
C100 H128 0.930 . S
N101 C100 1.366 1_554 S
N101 C103 1.333 1_554 S
N102 C99 1.368 . S
N102 C103 1.321 . S
N102 Co105 2.135 . S
C103 N101 1.333 1_556 S
C103 N102 1.321 . S
C103 H127 0.930 . S
H104 C99 0.931 . S
Co105 N102 2.135 . S
Co105 N108 2.121 . S
Co105 O113 2.055 . S
Co105 O116 2.039 . S
Co105 N119 2.137 1_556 S
C106 O107 1.227 1_556 S
C106 O116 1.265 . S
O107 C106 1.227 1_554 S
N108 Co105 2.121 . S
N108 C110 1.375 . S
N108 C111 1.313 . S
C109 C110 1.338 . S
C109 N112 1.377 . S
C109 H129 0.930 . S
C110 N108 1.375 . S
C110 C109 1.338 . S
C110 H114 0.931 . S
C111 N108 1.313 . S
C111 N112 1.344 . S
C111 H115 0.930 . S
N112 C109 1.377 . S
N112 C111 1.344 . S
O113 Co105 2.055 . S
O113 C117 1.253 . S
H114 C110 0.931 . S
H115 C111 0.930 . S
O116 Co105 2.039 . S
O116 C106 1.265 . S
C117 O113 1.253 . S
C117 O118 1.227 . S
O118 C117 1.227 . S
N119 Co105 2.137 1_554 S
N119 C122 1.349 . S
N119 C123 1.344 1_554 S
C120 C121 1.387 . S
C120 C124 1.391 . S
C121 C120 1.387 . S
C121 C122 1.369 . S
C121 H130 0.929 . S
C122 N119 1.349 . S
C122 C121 1.369 . S
C122 H125 0.928 . S
C123 N119 1.344 1_556 S
C123 C124 1.333 1_556 S
C123 H126 0.973 . S
C124 C120 1.391 . S
C124 C123 1.333 1_554 S
C124 H131 0.930 . S
H125 C122 0.928 . S
H126 C123 0.973 . S
H127 C103 0.930 . S
H128 C100 0.930 . S
H129 C109 0.930 . S
H130 C121 0.929 . S
H131 C124 0.930 . S
C132 C133 1.351 . S
C132 N135 1.368 . S
C132 H137 0.931 . S
C133 C132 1.351 . S
C133 N134 1.373 . S
C133 H161 0.930 . S
N134 C133 1.373 . S
N134 C136 1.340 . S
N135 C132 1.368 . S
N135 C136 1.321 . S
N135 Co138 2.135 . S
C136 N134 1.340 . S
C136 N135 1.321 . S
C136 H160 0.930 . S
H137 C132 0.931 . S
Co138 N135 2.135 . S
Co138 N141 2.121 . S
Co138 O146 2.055 . S
Co138 O149 2.039 . S
Co138 N152 2.140 . S
C139 O140 1.227 . S
C139 O149 1.265 . S
O140 C139 1.227 . S
N141 Co138 2.121 . S
N141 C143 1.375 1_455 S
N141 C144 1.313 1_455 S
C142 C143 1.338 . S
C142 N145 1.377 . S
C142 H162 0.930 . S
C143 N141 1.375 1_655 S
C143 C142 1.338 . S
C143 H147 0.931 . S
C144 N141 1.313 1_655 S
C144 N145 1.344 . S
C144 H148 0.930 1_655 S
N145 C142 1.377 . S
N145 C144 1.344 . S
O146 Co138 2.055 . S
O146 C150 1.253 . S
H147 C143 0.931 . S
H148 C144 0.930 1_455 S
O149 Co138 2.039 . S
O149 C139 1.265 . S
C150 O146 1.253 . S
C150 O151 1.227 . S
O151 C150 1.227 . S
N152 Co138 2.140 . S
N152 C155 1.346 . S
N152 C156 1.345 . S
C153 C154 1.387 . S
C153 C157 1.391 . S
C154 C153 1.387 . S
C154 C155 1.369 . S
C154 H163 0.929 . S
C155 N152 1.346 . S
C155 C154 1.369 . S
C155 H158 0.928 . S
C156 N152 1.345 . S
C156 C157 1.371 . S
C156 H159 0.931 . S
C157 C153 1.391 . S
C157 C156 1.371 . S
C157 H164 0.930 . S
H158 C155 0.928 . S
H159 C156 0.931 . S
H160 C136 0.930 . S
H161 C133 0.930 . S
H162 C142 0.930 . S
H163 C154 0.929 . S
H164 C157 0.930 . S
C165 C166 1.351 . S
C165 N168 1.368 . S
C165 H170 0.931 . S
C166 C165 1.351 . S
C166 N167 1.373 . S
C166 H194 0.930 . S
N167 C166 1.373 . S
N167 C169 1.340 . S
N168 C165 1.368 . S
N168 C169 1.321 . S
N168 Co171 2.135 . S
C169 N167 1.340 . S
C169 N168 1.321 . S
C169 H193 0.930 . S
H170 C165 0.931 . S
Co171 N168 2.135 . S
Co171 N174 2.121 . S
Co171 O179 2.055 . S
Co171 O182 2.039 . S
Co171 N185 2.155 . S
C172 O173 1.227 1_554 S
C172 O182 1.265 . S
O173 C172 1.227 1_556 S
N174 Co171 2.121 . S
N174 C176 1.375 . S
N174 C177 1.313 . S
C175 C176 1.338 . S
C175 N178 1.377 . S
C175 H195 0.930 . S
C176 N174 1.375 . S
C176 C175 1.338 . S
C176 H180 0.931 . S
C177 N174 1.313 . S
C177 N178 1.344 . S
C177 H181 0.930 . S
N178 C175 1.377 . S
N178 C177 1.344 . S
O179 Co171 2.055 . S
O179 C183 1.253 . S
H180 C176 0.931 . S
H181 C177 0.930 . S
O182 Co171 2.039 . S
O182 C172 1.265 . S
C183 O179 1.253 . S
C183 O184 1.227 . S
O184 C183 1.227 . S
N185 Co171 2.155 . S
N185 C188 1.330 1_554 S
N185 C189 1.346 . S
C186 C187 1.387 . S
C186 C190 1.391 . S
C187 C186 1.387 . S
C187 C188 1.369 . S
C187 H196 0.929 . S
C188 N185 1.330 1_556 S
C188 C187 1.369 . S
C188 H191 0.928 . S
C189 N185 1.346 . S
C189 C190 1.371 1_554 S
C189 H192 0.931 . S
C190 C186 1.391 . S
C190 C189 1.371 1_556 S
C190 H197 0.930 . S
H191 C188 0.928 . S
H192 C189 0.931 . S
H193 C169 0.930 . S
H194 C166 0.930 . S
H195 C175 0.930 . S
H196 C187 0.929 . S
H197 C190 0.930 . S
C198 C199 1.351 . S
C198 N201 1.368 . S
C198 H203 0.931 . S
C199 C198 1.351 . S
C199 N200 1.373 . S
C199 H227 0.930 . S
N200 C199 1.373 . S
N200 C202 1.340 . S
N201 C198 1.368 . S
N201 C202 1.321 . S
N201 Co204 2.135 . S
C202 N200 1.340 . S
C202 N201 1.321 . S
C202 H226 0.930 . S
H203 C198 0.931 . S
Co204 N201 2.135 . S
Co204 N207 2.121 . S
Co204 O212 2.055 . S
Co204 O215 2.039 . S
Co204 N218 2.140 . S
C205 O206 1.227 . S
C205 O215 1.265 . S
O206 C205 1.227 . S
N207 Co204 2.121 . S
N207 C209 1.375 1_655 S
N207 C210 1.313 1_655 S
C208 C209 1.338 . S
C208 N211 1.377 . S
C208 H228 0.930 . S
C209 N207 1.375 1_455 S
C209 C208 1.338 . S
C209 H213 0.931 . S
C210 N207 1.313 1_455 S
C210 N211 1.344 . S
C210 H214 0.930 1_455 S
N211 C208 1.377 . S
N211 C210 1.344 . S
O212 Co204 2.055 . S
O212 C216 1.253 . S
H213 C209 0.931 . S
H214 C210 0.930 1_655 S
O215 Co204 2.039 . S
O215 C205 1.265 . S
C216 O212 1.253 . S
C216 O217 1.227 . S
O217 C216 1.227 . S
N218 Co204 2.140 . S
N218 C221 1.346 . S
N218 C222 1.345 . S
C219 C220 1.387 . S
C219 C223 1.391 . S
C220 C219 1.387 . S
C220 C221 1.369 . S
C220 H229 0.929 . S
C221 N218 1.346 . S
C221 C220 1.369 . S
C221 H224 0.928 . S
C222 N218 1.345 . S
C222 C223 1.371 . S
C222 H225 0.931 . S
C223 C219 1.391 . S
C223 C222 1.371 . S
C223 H230 0.930 . S
H224 C221 0.928 . S
H225 C222 0.931 . S
H226 C202 0.930 . S
H227 C199 0.930 . S
H228 C208 0.930 . S
H229 C220 0.929 . S
H230 C223 0.930 . S
C231 C232 1.351 . S
C231 N234 1.368 . S
C231 H236 0.931 . S
C232 C231 1.351 . S
C232 N233 1.373 . S
C232 H260 0.930 . S
N233 C232 1.373 . S
N233 C235 1.340 . S
N234 C231 1.368 . S
N234 C235 1.321 . S
N234 Co237 2.135 . S
C235 N233 1.340 . S
C235 N234 1.321 . S
C235 H259 0.930 . S
H236 C231 0.931 . S
Co237 N234 2.135 . S
Co237 N240 2.121 . S
Co237 O245 2.055 . S
Co237 O248 2.039 . S
Co237 N251 2.155 . S
C238 O239 1.227 1_554 S
C238 O248 1.265 . S
O239 C238 1.227 1_556 S
N240 Co237 2.121 . S
N240 C242 1.375 . S
N240 C243 1.313 . S
C241 C242 1.338 . S
C241 N244 1.377 . S
C241 H261 0.930 . S
C242 N240 1.375 . S
C242 C241 1.338 . S
C242 H246 0.931 . S
C243 N240 1.313 . S
C243 N244 1.344 . S
C243 H247 0.930 . S
N244 C241 1.377 . S
N244 C243 1.344 . S
O245 Co237 2.055 . S
O245 C249 1.253 . S
H246 C242 0.931 . S
H247 C243 0.930 . S
O248 Co237 2.039 . S
O248 C238 1.265 . S
C249 O245 1.253 . S
C249 O250 1.227 . S
O250 C249 1.227 . S
N251 Co237 2.155 . S
N251 C254 1.330 1_554 S
N251 C255 1.346 . S
C252 C253 1.387 . S
C252 C256 1.391 . S
C253 C252 1.387 . S
C253 C254 1.369 . S
C253 H262 0.929 . S
C254 N251 1.330 1_556 S
C254 C253 1.369 . S
C254 H257 0.928 . S
C255 N251 1.346 . S
C255 C256 1.371 1_554 S
C255 H258 0.931 . S
C256 C252 1.391 . S
C256 C255 1.371 1_556 S
C256 H263 0.930 . S
H257 C254 0.928 . S
H258 C255 0.931 . S
H259 C235 0.930 . S
H260 C232 0.930 . S
H261 C241 0.930 . S
H262 C253 0.929 . S
H263 C256 0.930 . S
C264 C265 1.351 . S
C264 N267 1.368 . S
C264 H269 0.931 . S
C265 C264 1.351 . S
C265 N266 1.373 . S
C265 H293 0.930 . S
N266 C265 1.373 . S
N266 C268 1.340 . S
N267 C264 1.368 . S
N267 C268 1.321 . S
N267 Co270 2.135 . S
C268 N266 1.340 . S
C268 N267 1.321 . S
C268 H292 0.930 . S
H269 C264 0.931 . S
Co270 N267 2.135 . S
Co270 N273 2.121 . S
Co270 O278 2.055 . S
Co270 O281 2.039 . S
Co270 N284 2.140 . S
C271 O272 1.227 . S
C271 O281 1.265 . S
O272 C271 1.227 . S
N273 Co270 2.121 . S
N273 C275 1.375 1_545 S
N273 C276 1.313 1_545 S
C274 C275 1.338 . S
C274 N277 1.377 . S
C274 H294 0.930 . S
C275 N273 1.375 1_565 S
C275 C274 1.338 . S
C275 H279 0.931 . S
C276 N273 1.313 1_565 S
C276 N277 1.344 . S
C276 H280 0.930 1_565 S
N277 C274 1.377 . S
N277 C276 1.344 . S
O278 Co270 2.055 . S
O278 C282 1.253 . S
H279 C275 0.931 . S
H280 C276 0.930 1_545 S
O281 Co270 2.039 . S
O281 C271 1.265 . S
C282 O278 1.253 . S
C282 O283 1.227 . S
O283 C282 1.227 . S
N284 Co270 2.140 . S
N284 C287 1.346 . S
N284 C288 1.345 . S
C285 C286 1.387 . S
C285 C289 1.391 . S
C286 C285 1.387 . S
C286 C287 1.369 . S
C286 H295 0.929 . S
C287 N284 1.346 . S
C287 C286 1.369 . S
C287 H290 0.928 . S
C288 N284 1.345 . S
C288 C289 1.371 . S
C288 H291 0.931 . S
C289 C285 1.391 . S
C289 C288 1.371 . S
C289 H296 0.930 . S
H290 C287 0.928 . S
H291 C288 0.931 . S
H292 C268 0.930 . S
H293 C265 0.930 . S
H294 C274 0.930 . S
H295 C286 0.929 . S
H296 C289 0.930 . S
C297 C298 1.351 . S
C297 N300 1.368 . S
C297 H302 0.931 . S
C298 C297 1.351 . S
C298 N299 1.373 . S
C298 H326 0.930 . S
N299 C298 1.373 . S
N299 C301 1.340 . S
N300 C297 1.368 . S
N300 C301 1.321 . S
N300 Co303 2.135 . S
C301 N299 1.340 . S
C301 N300 1.321 . S
C301 H325 0.930 . S
H302 C297 0.931 . S
Co303 N300 2.135 . S
Co303 N306 2.121 . S
Co303 O311 2.055 . S
Co303 O314 2.039 . S
Co303 N317 2.140 . S
C304 O305 1.227 . S
C304 O314 1.265 . S
O305 C304 1.227 . S
N306 Co303 2.121 . S
N306 C308 1.375 . S
N306 C309 1.313 . S
C307 C308 1.338 . S
C307 N310 1.377 . S
C307 H327 0.930 . S
C308 N306 1.375 . S
C308 C307 1.338 . S
C308 H312 0.931 . S
C309 N306 1.313 . S
C309 N310 1.344 . S
C309 H313 0.930 . S
N310 C307 1.377 . S
N310 C309 1.344 . S
O311 Co303 2.055 . S
O311 C315 1.253 . S
H312 C308 0.931 . S
H313 C309 0.930 . S
O314 Co303 2.039 . S
O314 C304 1.265 . S
C315 O311 1.253 . S
C315 O316 1.227 . S
O316 C315 1.227 . S
N317 Co303 2.140 . S
N317 C320 1.346 . S
N317 C321 1.345 . S
C318 C319 1.387 . S
C318 C322 1.391 . S
C319 C318 1.387 . S
C319 C320 1.369 . S
C319 H328 0.929 . S
C320 N317 1.346 . S
C320 C319 1.369 . S
C320 H323 0.928 . S
C321 N317 1.345 . S
C321 C322 1.371 . S
C321 H324 0.931 . S
C322 C318 1.391 . S
C322 C321 1.371 . S
C322 H329 0.930 . S
H323 C320 0.928 . S
H324 C321 0.931 . S
H325 C301 0.930 . S
H326 C298 0.930 . S
H327 C307 0.930 . S
H328 C319 0.929 . S
H329 C322 0.930 . S
C330 C331 1.351 . S
C330 N333 1.368 . S
C330 H335 0.931 . S
C331 C330 1.351 . S
C331 N332 1.373 . S
C331 H359 0.930 . S
N332 C331 1.373 . S
N332 C334 1.340 . S
N333 C330 1.368 . S
N333 C334 1.321 . S
N333 Co336 2.135 . S
C334 N332 1.340 . S
C334 N333 1.321 . S
C334 H358 0.930 . S
H335 C330 0.931 . S
Co336 N333 2.135 . S
Co336 N339 2.121 . S
Co336 O344 2.055 . S
Co336 O347 2.039 . S
Co336 N350 2.140 . S
C337 O338 1.227 . S
C337 O347 1.265 . S
O338 C337 1.227 . S
N339 Co336 2.121 . S
N339 C341 1.375 . S
N339 C342 1.313 . S
C340 C341 1.338 . S
C340 N343 1.377 . S
C340 H360 0.930 . S
C341 N339 1.375 . S
C341 C340 1.338 . S
C341 H345 0.931 . S
C342 N339 1.313 . S
C342 N343 1.344 . S
C342 H346 0.930 . S
N343 C340 1.377 . S
N343 C342 1.344 . S
O344 Co336 2.055 . S
O344 C348 1.253 . S
H345 C341 0.931 . S
H346 C342 0.930 . S
O347 Co336 2.039 . S
O347 C337 1.265 . S
C348 O344 1.253 . S
C348 O349 1.227 . S
O349 C348 1.227 . S
N350 Co336 2.140 . S
N350 C353 1.346 . S
N350 C354 1.345 . S
C351 C352 1.387 . S
C351 C355 1.391 . S
C352 C351 1.387 . S
C352 C353 1.369 . S
C352 H361 0.929 . S
C353 N350 1.346 . S
C353 C352 1.369 . S
C353 H356 0.928 . S
C354 N350 1.345 . S
C354 C355 1.371 . S
C354 H357 0.931 . S
C355 C351 1.391 . S
C355 C354 1.371 . S
C355 H362 0.930 . S
H356 C353 0.928 . S
H357 C354 0.931 . S
H358 C334 0.930 . S
H359 C331 0.930 . S
H360 C340 0.930 . S
H361 C352 0.929 . S
H362 C355 0.930 . S
C363 C364 1.351 . S
C363 N366 1.368 . S
C363 H368 0.931 . S
C364 C363 1.351 . S
C364 N365 1.373 . S
C364 H392 0.930 . S
N365 C364 1.373 . S
N365 C367 1.340 . S
N366 C363 1.368 . S
N366 C367 1.321 . S
N366 Co369 2.135 . S
C367 N365 1.340 . S
C367 N366 1.321 . S
C367 H391 0.930 . S
H368 C363 0.931 . S
Co369 N366 2.135 . S
Co369 N372 2.121 . S
Co369 O377 2.055 . S
Co369 O380 2.039 . S
Co369 N383 2.155 . S
C370 O371 1.227 1_545 S
C370 O380 1.265 . S
O371 C370 1.227 1_565 S
N372 Co369 2.121 . S
N372 C374 1.375 . S
N372 C375 1.313 . S
C373 C374 1.338 . S
C373 N376 1.377 . S
C373 H393 0.930 . S
C374 N372 1.375 . S
C374 C373 1.338 . S
C374 H378 0.931 . S
C375 N372 1.313 . S
C375 N376 1.344 . S
C375 H379 0.930 . S
N376 C373 1.377 . S
N376 C375 1.344 . S
O377 Co369 2.055 . S
O377 C381 1.253 . S
H378 C374 0.931 . S
H379 C375 0.930 . S
O380 Co369 2.039 . S
O380 C370 1.265 . S
C381 O377 1.253 . S
C381 O382 1.227 . S
O382 C381 1.227 . S
N383 Co369 2.155 . S
N383 C386 1.330 1_545 S
N383 C387 1.346 . S
C384 C385 1.387 . S
C384 C388 1.391 . S
C385 C384 1.387 . S
C385 C386 1.369 . S
C385 H394 0.929 . S
C386 N383 1.330 1_565 S
C386 C385 1.369 . S
C386 H389 0.928 . S
C387 N383 1.346 . S
C387 C388 1.371 1_545 S
C387 H390 0.931 . S
C388 C384 1.391 . S
C388 C387 1.371 1_565 S
C388 H395 0.930 . S
H389 C386 0.928 . S
H390 C387 0.931 . S
H391 C367 0.930 . S
H392 C364 0.930 . S
H393 C373 0.930 . S
H394 C385 0.929 . S
H395 C388 0.930 . S
C396 C397 1.351 . S
C396 N399 1.368 . S
C396 H401 0.931 . S
C397 C396 1.351 . S
C397 N398 1.373 . S
C397 H425 0.930 . S
N398 C397 1.373 . S
N398 C400 1.340 . S
N399 C396 1.368 . S
N399 C400 1.321 . S
N399 Co402 2.135 . S
C400 N398 1.340 . S
C400 N399 1.321 . S
C400 H424 0.930 . S
H401 C396 0.931 . S
Co402 N399 2.135 . S
Co402 N405 2.121 . S
Co402 O410 2.055 . S
Co402 O413 2.039 . S
Co402 N416 2.140 . S
C403 O404 1.227 . S
C403 O413 1.265 . S
O404 C403 1.227 . S
N405 Co402 2.121 . S
N405 C407 1.375 1_565 S
N405 C408 1.313 1_565 S
C406 C407 1.338 . S
C406 N409 1.377 . S
C406 H426 0.930 . S
C407 N405 1.375 1_545 S
C407 C406 1.338 . S
C407 H411 0.931 . S
C408 N405 1.313 1_545 S
C408 N409 1.344 . S
C408 H412 0.930 1_545 S
N409 C406 1.377 . S
N409 C408 1.344 . S
O410 Co402 2.055 . S
O410 C414 1.253 . S
H411 C407 0.931 . S
H412 C408 0.930 1_565 S
O413 Co402 2.039 . S
O413 C403 1.265 . S
C414 O410 1.253 . S
C414 O415 1.227 . S
O415 C414 1.227 . S
N416 Co402 2.140 . S
N416 C419 1.346 . S
N416 C420 1.345 . S
C417 C418 1.387 . S
C417 C421 1.391 . S
C418 C417 1.387 . S
C418 C419 1.369 . S
C418 H427 0.929 . S
C419 N416 1.346 . S
C419 C418 1.369 . S
C419 H422 0.928 . S
C420 N416 1.345 . S
C420 C421 1.371 . S
C420 H423 0.931 . S
C421 C417 1.391 . S
C421 C420 1.371 . S
C421 H428 0.930 . S
H422 C419 0.928 . S
H423 C420 0.931 . S
H424 C400 0.930 . S
H425 C397 0.930 . S
H426 C406 0.930 . S
H427 C418 0.929 . S
H428 C421 0.930 . S
C429 C430 1.351 . S
C429 N432 1.368 . S
C429 H434 0.931 . S
C430 C429 1.351 . S
C430 N431 1.373 . S
C430 H458 0.930 . S
N431 C430 1.373 . S
N431 C433 1.340 . S
N432 C429 1.368 . S
N432 C433 1.321 . S
N432 Co435 2.135 . S
C433 N431 1.340 . S
C433 N432 1.321 . S
C433 H457 0.930 . S
H434 C429 0.931 . S
Co435 N432 2.135 . S
Co435 N438 2.121 . S
Co435 O443 2.055 . S
Co435 O446 2.039 . S
Co435 N449 2.140 . S
C436 O437 1.227 . S
C436 O446 1.265 . S
O437 C436 1.227 . S
N438 Co435 2.121 . S
N438 C440 1.375 . S
N438 C441 1.313 . S
C439 C440 1.338 . S
C439 N442 1.377 . S
C439 H459 0.930 . S
C440 N438 1.375 . S
C440 C439 1.338 . S
C440 H444 0.931 . S
C441 N438 1.313 . S
C441 N442 1.344 . S
C441 H445 0.930 . S
N442 C439 1.377 . S
N442 C441 1.344 . S
O443 Co435 2.055 . S
O443 C447 1.253 . S
H444 C440 0.931 . S
H445 C441 0.930 . S
O446 Co435 2.039 . S
O446 C436 1.265 . S
C447 O443 1.253 . S
C447 O448 1.227 . S
O448 C447 1.227 . S
N449 Co435 2.140 . S
N449 C452 1.346 . S
N449 C453 1.345 . S
C450 C451 1.387 . S
C450 C454 1.391 . S
C451 C450 1.387 . S
C451 C452 1.369 . S
C451 H460 0.929 . S
C452 N449 1.346 . S
C452 C451 1.369 . S
C452 H455 0.928 . S
C453 N449 1.345 . S
C453 C454 1.371 . S
C453 H456 0.931 . S
C454 C450 1.391 . S
C454 C453 1.371 . S
C454 H461 0.930 . S
H455 C452 0.928 . S
H456 C453 0.931 . S
H457 C433 0.930 . S
H458 C430 0.930 . S
H459 C439 0.930 . S
H460 C451 0.929 . S
H461 C454 0.930 . S
C462 C463 1.351 . S
C462 N465 1.368 . S
C462 H467 0.931 . S
C463 C462 1.351 . S
C463 N464 1.373 . S
C463 H491 0.930 . S
N464 C463 1.373 . S
N464 C466 1.340 . S
N465 C462 1.368 . S
N465 C466 1.321 . S
N465 Co468 2.135 . S
C466 N464 1.340 . S
C466 N465 1.321 . S
C466 H490 0.930 . S
H467 C462 0.931 . S
Co468 N465 2.135 . S
Co468 N471 2.121 . S
Co468 O476 2.055 . S
Co468 O479 2.039 . S
Co468 N482 2.140 . S
C469 O470 1.227 . S
C469 O479 1.265 . S
O470 C469 1.227 . S
N471 Co468 2.121 . S
N471 C473 1.375 . S
N471 C474 1.313 . S
C472 C473 1.338 . S
C472 N475 1.377 . S
C472 H492 0.930 . S
C473 N471 1.375 . S
C473 C472 1.338 . S
C473 H477 0.931 . S
C474 N471 1.313 . S
C474 N475 1.344 . S
C474 H478 0.930 . S
N475 C472 1.377 . S
N475 C474 1.344 . S
O476 Co468 2.055 . S
O476 C480 1.253 . S
H477 C473 0.931 . S
H478 C474 0.930 . S
O479 Co468 2.039 . S
O479 C469 1.265 . S
C480 O476 1.253 . S
C480 O481 1.227 . S
O481 C480 1.227 . S
N482 Co468 2.140 . S
N482 C485 1.346 . S
N482 C486 1.345 . S
C483 C484 1.387 . S
C483 C487 1.391 . S
C484 C483 1.387 . S
C484 C485 1.369 . S
C484 H493 0.929 . S
C485 N482 1.346 . S
C485 C484 1.369 . S
C485 H488 0.928 . S
C486 N482 1.345 . S
C486 C487 1.371 . S
C486 H489 0.931 . S
C487 C483 1.391 . S
C487 C486 1.371 . S
C487 H494 0.930 . S
H488 C485 0.928 . S
H489 C486 0.931 . S
H490 C466 0.930 . S
H491 C463 0.930 . S
H492 C472 0.930 . S
H493 C484 0.929 . S
H494 C487 0.930 . S
C495 C496 1.351 . S
C495 N498 1.368 . S
C495 H500 0.931 . S
C496 C495 1.351 . S
C496 N497 1.373 . S
C496 H524 0.930 . S
N497 C496 1.373 . S
N497 C499 1.340 . S
N498 C495 1.368 . S
N498 C499 1.321 . S
N498 Co501 2.135 . S
C499 N497 1.340 . S
C499 N498 1.321 . S
C499 H523 0.930 . S
H500 C495 0.931 . S
Co501 N498 2.135 . S
Co501 N504 2.121 . S
Co501 O509 2.055 . S
Co501 O512 2.039 . S
Co501 N515 2.155 . S
C502 O503 1.227 1_545 S
C502 O512 1.265 . S
O503 C502 1.227 1_565 S
N504 Co501 2.121 . S
N504 C506 1.375 . S
N504 C507 1.313 . S
C505 C506 1.338 . S
C505 N508 1.377 . S
C505 H525 0.930 . S
C506 N504 1.375 . S
C506 C505 1.338 . S
C506 H510 0.931 . S
C507 N504 1.313 . S
C507 N508 1.344 . S
C507 H511 0.930 . S
N508 C505 1.377 . S
N508 C507 1.344 . S
O509 Co501 2.055 . S
O509 C513 1.253 . S
H510 C506 0.931 . S
H511 C507 0.930 . S
O512 Co501 2.039 . S
O512 C502 1.265 . S
C513 O509 1.253 . S
C513 O514 1.227 . S
O514 C513 1.227 . S
N515 Co501 2.155 . S
N515 C518 1.330 1_545 S
N515 C519 1.346 . S
C516 C517 1.387 . S
C516 C520 1.391 . S
C517 C516 1.387 . S
C517 C518 1.369 . S
C517 H526 0.929 . S
C518 N515 1.330 1_565 S
C518 C517 1.369 . S
C518 H521 0.928 . S
C519 N515 1.346 . S
C519 C520 1.371 1_545 S
C519 H522 0.931 . S
C520 C516 1.391 . S
C520 C519 1.371 1_565 S
C520 H527 0.930 . S
H521 C518 0.928 . S
H522 C519 0.931 . S
H523 C499 0.930 . S
H524 C496 0.930 . S
H525 C505 0.930 . S
H526 C517 0.929 . S
H527 C520 0.930 . S
C528 C529 1.351 . S
C528 N531 1.368 . S
C528 H533 0.931 . S
C529 C528 1.351 . S
C529 N530 1.373 . S
C529 H557 0.930 . S
N530 C529 1.373 . S
N530 C532 1.340 . S
N531 C528 1.368 . S
N531 C532 1.321 . S
N531 Co534 2.135 . S
C532 N530 1.340 . S
C532 N531 1.321 . S
C532 H556 0.930 . S
H533 C528 0.931 . S
Co534 N531 2.135 . S
Co534 N537 2.121 . S
Co534 O542 2.055 . S
Co534 O545 2.039 . S
Co534 N548 2.140 . S
C535 O536 1.227 . S
C535 O545 1.265 . S
O536 C535 1.227 . S
N537 Co534 2.121 . S
N537 C539 1.375 1_554 S
N537 C540 1.313 1_554 S
C538 C539 1.338 . S
C538 N541 1.377 . S
C538 H558 0.930 . S
C539 N537 1.375 1_556 S
C539 C538 1.338 . S
C539 H543 0.931 . S
C540 N537 1.313 1_556 S
C540 N541 1.344 . S
C540 H544 0.930 1_556 S
N541 C538 1.377 . S
N541 C540 1.344 . S
O542 Co534 2.055 . S
O542 C546 1.253 . S
H543 C539 0.931 . S
H544 C540 0.930 1_554 S
O545 Co534 2.039 . S
O545 C535 1.265 . S
C546 O542 1.253 . S
C546 O547 1.227 . S
O547 C546 1.227 . S
N548 Co534 2.140 . S
N548 C551 1.346 . S
N548 C552 1.345 . S
C549 C550 1.387 . S
C549 C553 1.391 . S
C550 C549 1.387 . S
C550 C551 1.369 . S
C550 H559 0.929 . S
C551 N548 1.346 . S
C551 C550 1.369 . S
C551 H554 0.928 . S
C552 N548 1.345 . S
C552 C553 1.371 . S
C552 H555 0.931 . S
C553 C549 1.391 . S
C553 C552 1.371 . S
C553 H560 0.930 . S
H554 C551 0.928 . S
H555 C552 0.931 . S
H556 C532 0.930 . S
H557 C529 0.930 . S
H558 C538 0.930 . S
H559 C550 0.929 . S
H560 C553 0.930 . S
C561 C562 1.351 . S
C561 N564 1.368 . S
C561 H566 0.931 . S
C562 C561 1.351 . S
C562 N563 1.373 . S
C562 H590 0.930 . S
N563 C562 1.373 . S
N563 C565 1.340 . S
N564 C561 1.368 . S
N564 C565 1.321 . S
N564 Co567 2.135 . S
C565 N563 1.340 . S
C565 N564 1.321 . S
C565 H589 0.930 . S
H566 C561 0.931 . S
Co567 N564 2.135 . S
Co567 N570 2.121 . S
Co567 O575 2.055 . S
Co567 O578 2.039 . S
Co567 N581 2.140 . S
C568 O569 1.227 . S
C568 O578 1.265 . S
O569 C568 1.227 . S
N570 Co567 2.121 . S
N570 C572 1.375 . S
N570 C573 1.313 . S
C571 C572 1.338 . S
C571 N574 1.377 . S
C571 H591 0.930 . S
C572 N570 1.375 . S
C572 C571 1.338 . S
C572 H576 0.931 . S
C573 N570 1.313 . S
C573 N574 1.344 . S
C573 H577 0.930 . S
N574 C571 1.377 . S
N574 C573 1.344 . S
O575 Co567 2.055 . S
O575 C579 1.253 . S
H576 C572 0.931 . S
H577 C573 0.930 . S
O578 Co567 2.039 . S
O578 C568 1.265 . S
C579 O575 1.253 . S
C579 O580 1.227 . S
O580 C579 1.227 . S
N581 Co567 2.140 . S
N581 C584 1.346 . S
N581 C585 1.345 . S
C582 C583 1.387 . S
C582 C586 1.391 . S
C583 C582 1.387 . S
C583 C584 1.369 . S
C583 H592 0.929 . S
C584 N581 1.346 . S
C584 C583 1.369 . S
C584 H587 0.928 . S
C585 N581 1.345 . S
C585 C586 1.371 . S
C585 H588 0.931 . S
C586 C582 1.391 . S
C586 C585 1.371 . S
C586 H593 0.930 . S
H587 C584 0.928 . S
H588 C585 0.931 . S
H589 C565 0.930 . S
H590 C562 0.930 . S
H591 C571 0.930 . S
H592 C583 0.929 . S
H593 C586 0.930 . S
C594 C595 1.351 . S
C594 N597 1.368 . S
C594 H599 0.931 . S
C595 C594 1.351 . S
C595 N596 1.366 1_655 S
C595 H623 0.930 . S
N596 C595 1.366 1_455 S
N596 C598 1.333 1_455 S
N597 C594 1.368 . S
N597 C598 1.321 . S
N597 Co600 2.135 . S
C598 N596 1.333 1_655 S
C598 N597 1.321 . S
C598 H622 0.930 . S
H599 C594 0.931 . S
Co600 N597 2.135 . S
Co600 N603 2.121 . S
Co600 O608 2.055 . S
Co600 O611 2.039 . S
Co600 N614 2.137 1_655 S
C601 O602 1.227 1_655 S
C601 O611 1.265 . S
O602 C601 1.227 1_455 S
N603 Co600 2.121 . S
N603 C605 1.375 . S
N603 C606 1.313 . S
C604 C605 1.338 . S
C604 N607 1.377 . S
C604 H624 0.930 . S
C605 N603 1.375 . S
C605 C604 1.338 . S
C605 H609 0.931 . S
C606 N603 1.313 . S
C606 N607 1.344 . S
C606 H610 0.930 . S
N607 C604 1.377 . S
N607 C606 1.344 . S
O608 Co600 2.055 . S
O608 C612 1.253 . S
H609 C605 0.931 . S
H610 C606 0.930 . S
O611 Co600 2.039 . S
O611 C601 1.265 . S
C612 O608 1.253 . S
C612 O613 1.227 . S
O613 C612 1.227 . S
N614 Co600 2.137 1_455 S
N614 C617 1.349 . S
N614 C618 1.344 1_455 S
C615 C616 1.387 . S
C615 C619 1.391 . S
C616 C615 1.387 . S
C616 C617 1.369 . S
C616 H625 0.929 . S
C617 N614 1.349 . S
C617 C616 1.369 . S
C617 H620 0.928 . S
C618 N614 1.344 1_655 S
C618 C619 1.333 1_655 S
C618 H621 0.973 . S
C619 C615 1.391 . S
C619 C618 1.333 1_455 S
C619 H626 0.930 . S
H620 C617 0.928 . S
H621 C618 0.973 . S
H622 C598 0.930 . S
H623 C595 0.930 . S
H624 C604 0.930 . S
H625 C616 0.929 . S
H626 C619 0.930 . S
C627 C628 1.351 . S
C627 N630 1.368 . S
C627 H632 0.931 . S
C628 C627 1.351 . S
C628 N629 1.373 . S
C628 H656 0.930 . S
N629 C628 1.373 . S
N629 C631 1.340 . S
N630 C627 1.368 . S
N630 C631 1.321 . S
N630 Co633 2.135 . S
C631 N629 1.340 . S
C631 N630 1.321 . S
C631 H655 0.930 . S
H632 C627 0.931 . S
Co633 N630 2.135 . S
Co633 N636 2.121 . S
Co633 O641 2.055 . S
Co633 O644 2.039 . S
Co633 N647 2.140 . S
C634 O635 1.227 . S
C634 O644 1.265 . S
O635 C634 1.227 . S
N636 Co633 2.121 . S
N636 C638 1.375 . S
N636 C639 1.313 . S
C637 C638 1.338 . S
C637 N640 1.377 . S
C637 H657 0.930 . S
C638 N636 1.375 . S
C638 C637 1.338 . S
C638 H642 0.931 . S
C639 N636 1.313 . S
C639 N640 1.344 . S
C639 H643 0.930 . S
N640 C637 1.377 . S
N640 C639 1.344 . S
O641 Co633 2.055 . S
O641 C645 1.253 . S
H642 C638 0.931 . S
H643 C639 0.930 . S
O644 Co633 2.039 . S
O644 C634 1.265 . S
C645 O641 1.253 . S
C645 O646 1.227 . S
O646 C645 1.227 . S
N647 Co633 2.140 . S
N647 C650 1.346 . S
N647 C651 1.345 . S
C648 C649 1.387 . S
C648 C652 1.391 . S
C649 C648 1.387 . S
C649 C650 1.369 . S
C649 H658 0.929 . S
C650 N647 1.346 . S
C650 C649 1.369 . S
C650 H653 0.928 . S
C651 N647 1.345 . S
C651 C652 1.371 . S
C651 H654 0.931 . S
C652 C648 1.391 . S
C652 C651 1.371 . S
C652 H659 0.930 . S
H653 C650 0.928 . S
H654 C651 0.931 . S
H655 C631 0.930 . S
H656 C628 0.930 . S
H657 C637 0.930 . S
H658 C649 0.929 . S
H659 C652 0.930 . S
C660 C661 1.351 . S
C660 N663 1.368 . S
C660 H665 0.931 . S
C661 C660 1.351 . S
C661 N662 1.373 . S
C661 H689 0.930 . S
N662 C661 1.373 . S
N662 C664 1.340 . S
N663 C660 1.368 . S
N663 C664 1.321 . S
N663 Co666 2.135 . S
C664 N662 1.340 . S
C664 N663 1.321 . S
C664 H688 0.930 . S
H665 C660 0.931 . S
Co666 N663 2.135 . S
Co666 N669 2.121 . S
Co666 O674 2.055 . S
Co666 O677 2.039 . S
Co666 N680 2.140 . S
C667 O668 1.227 . S
C667 O677 1.265 . S
O668 C667 1.227 . S
N669 Co666 2.121 . S
N669 C671 1.375 . S
N669 C672 1.313 . S
C670 C671 1.338 . S
C670 N673 1.377 . S
C670 H690 0.930 . S
C671 N669 1.375 . S
C671 C670 1.338 . S
C671 H675 0.931 . S
C672 N669 1.313 . S
C672 N673 1.344 . S
C672 H676 0.930 . S
N673 C670 1.377 . S
N673 C672 1.344 . S
O674 Co666 2.055 . S
O674 C678 1.253 . S
H675 C671 0.931 . S
H676 C672 0.930 . S
O677 Co666 2.039 . S
O677 C667 1.265 . S
C678 O674 1.253 . S
C678 O679 1.227 . S
O679 C678 1.227 . S
N680 Co666 2.140 . S
N680 C683 1.346 . S
N680 C684 1.345 . S
C681 C682 1.387 . S
C681 C685 1.391 . S
C682 C681 1.387 . S
C682 C683 1.369 . S
C682 H691 0.929 . S
C683 N680 1.346 . S
C683 C682 1.369 . S
C683 H686 0.928 . S
C684 N680 1.345 . S
C684 C685 1.371 . S
C684 H687 0.931 . S
C685 C681 1.391 . S
C685 C684 1.371 . S
C685 H692 0.930 . S
H686 C683 0.928 . S
H687 C684 0.931 . S
H688 C664 0.930 . S
H689 C661 0.930 . S
H690 C670 0.930 . S
H691 C682 0.929 . S
H692 C685 0.930 . S
C693 C694 1.351 . S
C693 N696 1.368 . S
C693 H698 0.931 . S
C694 C693 1.351 . S
C694 N695 1.373 . S
C694 H722 0.930 . S
N695 C694 1.373 . S
N695 C697 1.340 . S
N696 C693 1.368 . S
N696 C697 1.321 . S
N696 Co699 2.135 . S
C697 N695 1.340 . S
C697 N696 1.321 . S
C697 H721 0.930 . S
H698 C693 0.931 . S
Co699 N696 2.135 . S
Co699 N702 2.121 . S
Co699 O707 2.055 . S
Co699 O710 2.039 . S
Co699 N713 2.140 . S
C700 O701 1.227 . S
C700 O710 1.265 . S
O701 C700 1.227 . S
N702 Co699 2.121 . S
N702 C704 1.375 . S
N702 C705 1.313 . S
C703 C704 1.338 . S
C703 N706 1.377 . S
C703 H723 0.930 . S
C704 N702 1.375 . S
C704 C703 1.338 . S
C704 H708 0.931 . S
C705 N702 1.313 . S
C705 N706 1.344 . S
C705 H709 0.930 . S
N706 C703 1.377 . S
N706 C705 1.344 . S
O707 Co699 2.055 . S
O707 C711 1.253 . S
H708 C704 0.931 . S
H709 C705 0.930 . S
O710 Co699 2.039 . S
O710 C700 1.265 . S
C711 O707 1.253 . S
C711 O712 1.227 . S
O712 C711 1.227 . S
N713 Co699 2.140 . S
N713 C716 1.346 . S
N713 C717 1.345 . S
C714 C715 1.387 . S
C714 C718 1.391 . S
C715 C714 1.387 . S
C715 C716 1.369 . S
C715 H724 0.929 . S
C716 N713 1.346 . S
C716 C715 1.369 . S
C716 H719 0.928 . S
C717 N713 1.345 . S
C717 C718 1.371 . S
C717 H720 0.931 . S
C718 C714 1.391 . S
C718 C717 1.371 . S
C718 H725 0.930 . S
H719 C716 0.928 . S
H720 C717 0.931 . S
H721 C697 0.930 . S
H722 C694 0.930 . S
H723 C703 0.930 . S
H724 C715 0.929 . S
H725 C718 0.930 . S
C726 C727 1.351 . S
C726 N729 1.368 . S
C726 H731 0.931 . S
C727 C726 1.351 . S
C727 N728 1.366 1_655 S
C727 H755 0.930 . S
N728 C727 1.366 1_455 S
N728 C730 1.333 1_455 S
N729 C726 1.368 . S
N729 C730 1.321 . S
N729 Co732 2.135 . S
C730 N728 1.333 1_655 S
C730 N729 1.321 . S
C730 H754 0.930 . S
H731 C726 0.931 . S
Co732 N729 2.135 . S
Co732 N735 2.121 . S
Co732 O740 2.055 . S
Co732 O743 2.039 . S
Co732 N746 2.137 1_655 S
C733 O734 1.227 1_655 S
C733 O743 1.265 . S
O734 C733 1.227 1_455 S
N735 Co732 2.121 . S
N735 C737 1.375 . S
N735 C738 1.313 . S
C736 C737 1.338 . S
C736 N739 1.377 . S
C736 H756 0.930 . S
C737 N735 1.375 . S
C737 C736 1.338 . S
C737 H741 0.931 . S
C738 N735 1.313 . S
C738 N739 1.344 . S
C738 H742 0.930 . S
N739 C736 1.377 . S
N739 C738 1.344 . S
O740 Co732 2.055 . S
O740 C744 1.253 . S
H741 C737 0.931 . S
H742 C738 0.930 . S
O743 Co732 2.039 . S
O743 C733 1.265 . S
C744 O740 1.253 . S
C744 O745 1.227 . S
O745 C744 1.227 . S
N746 Co732 2.137 1_455 S
N746 C749 1.349 . S
N746 C750 1.344 1_455 S
C747 C748 1.387 . S
C747 C751 1.391 . S
C748 C747 1.387 . S
C748 C749 1.369 . S
C748 H757 0.929 . S
C749 N746 1.349 . S
C749 C748 1.369 . S
C749 H752 0.928 . S
C750 N746 1.344 1_655 S
C750 C751 1.333 1_655 S
C750 H753 0.973 . S
C751 C747 1.391 . S
C751 C750 1.333 1_455 S
C751 H758 0.930 . S
H752 C749 0.928 . S
H753 C750 0.973 . S
H754 C730 0.930 . S
H755 C727 0.930 . S
H756 C736 0.930 . S
H757 C748 0.929 . S
H758 C751 0.930 . S
C759 C760 1.351 . S
C759 N762 1.368 . S
C759 H764 0.931 . S
C760 C759 1.351 . S
C760 N761 1.373 . S
C760 H788 0.930 . S
N761 C760 1.373 . S
N761 C763 1.340 . S
N762 C759 1.368 . S
N762 C763 1.321 . S
N762 Co765 2.135 . S
C763 N761 1.340 . S
C763 N762 1.321 . S
C763 H787 0.930 . S
H764 C759 0.931 . S
Co765 N762 2.135 . S
Co765 N768 2.121 . S
Co765 O773 2.055 . S
Co765 O776 2.039 . S
Co765 N779 2.155 . S
C766 O767 1.227 1_455 S
C766 O776 1.265 . S
O767 C766 1.227 1_655 S
N768 Co765 2.121 . S
N768 C770 1.375 . S
N768 C771 1.313 . S
C769 C770 1.338 . S
C769 N772 1.377 . S
C769 H789 0.930 . S
C770 N768 1.375 . S
C770 C769 1.338 . S
C770 H774 0.931 . S
C771 N768 1.313 . S
C771 N772 1.344 . S
C771 H775 0.930 . S
N772 C769 1.377 . S
N772 C771 1.344 . S
O773 Co765 2.055 . S
O773 C777 1.253 . S
H774 C770 0.931 . S
H775 C771 0.930 . S
O776 Co765 2.039 . S
O776 C766 1.265 . S
C777 O773 1.253 . S
C777 O778 1.227 . S
O778 C777 1.227 . S
N779 Co765 2.155 . S
N779 C782 1.330 1_455 S
N779 C783 1.346 . S
C780 C781 1.387 . S
C780 C784 1.391 . S
C781 C780 1.387 . S
C781 C782 1.369 . S
C781 H790 0.929 . S
C782 N779 1.330 1_655 S
C782 C781 1.369 . S
C782 H785 0.928 . S
C783 N779 1.346 . S
C783 C784 1.371 1_455 S
C783 H786 0.931 . S
C784 C780 1.391 . S
C784 C783 1.371 1_655 S
C784 H791 0.930 . S
H785 C782 0.928 . S
H786 C783 0.931 . S
H787 C763 0.930 . S
H788 C760 0.930 . S
H789 C769 0.930 . S
H790 C781 0.929 . S
H791 C784 0.930 . S
C792 C793 1.351 . S
C792 N795 1.368 . S
C792 H797 0.931 . S
C793 C792 1.351 . S
C793 N794 1.373 . S
C793 H821 0.930 . S
N794 C793 1.373 . S
N794 C796 1.340 . S
N795 C792 1.368 . S
N795 C796 1.321 . S
N795 Co798 2.135 . S
C796 N794 1.340 . S
C796 N795 1.321 . S
C796 H820 0.930 . S
H797 C792 0.931 . S
Co798 N795 2.135 . S
Co798 N801 2.121 . S
Co798 O806 2.055 . S
Co798 O809 2.039 . S
Co798 N812 2.140 . S
C799 O800 1.227 . S
C799 O809 1.265 . S
O800 C799 1.227 . S
N801 Co798 2.121 . S
N801 C803 1.375 . S
N801 C804 1.313 . S
C802 C803 1.338 . S
C802 N805 1.377 . S
C802 H822 0.930 . S
C803 N801 1.375 . S
C803 C802 1.338 . S
C803 H807 0.931 . S
C804 N801 1.313 . S
C804 N805 1.344 . S
C804 H808 0.930 . S
N805 C802 1.377 . S
N805 C804 1.344 . S
O806 Co798 2.055 . S
O806 C810 1.253 . S
H807 C803 0.931 . S
H808 C804 0.930 . S
O809 Co798 2.039 . S
O809 C799 1.265 . S
C810 O806 1.253 . S
C810 O811 1.227 . S
O811 C810 1.227 . S
N812 Co798 2.140 . S
N812 C815 1.346 . S
N812 C816 1.345 . S
C813 C814 1.387 . S
C813 C817 1.391 . S
C814 C813 1.387 . S
C814 C815 1.369 . S
C814 H823 0.929 . S
C815 N812 1.346 . S
C815 C814 1.369 . S
C815 H818 0.928 . S
C816 N812 1.345 . S
C816 C817 1.371 . S
C816 H819 0.931 . S
C817 C813 1.391 . S
C817 C816 1.371 . S
C817 H824 0.930 . S
H818 C815 0.928 . S
H819 C816 0.931 . S
H820 C796 0.930 . S
H821 C793 0.930 . S
H822 C802 0.930 . S
H823 C814 0.929 . S
H824 C817 0.930 . S
C825 C826 1.351 . S
C825 N828 1.368 . S
C825 H830 0.931 . S
C826 C825 1.351 . S
C826 N827 1.373 . S
C826 H854 0.930 . S
N827 C826 1.373 . S
N827 C829 1.340 . S
N828 C825 1.368 . S
N828 C829 1.321 . S
N828 Co831 2.135 . S
C829 N827 1.340 . S
C829 N828 1.321 . S
C829 H853 0.930 . S
H830 C825 0.931 . S
Co831 N828 2.135 . S
Co831 N834 2.121 . S
Co831 O839 2.055 . S
Co831 O842 2.039 . S
Co831 N845 2.140 . S
C832 O833 1.227 . S
C832 O842 1.265 . S
O833 C832 1.227 . S
N834 Co831 2.121 . S
N834 C836 1.375 . S
N834 C837 1.313 . S
C835 C836 1.338 . S
C835 N838 1.377 . S
C835 H855 0.930 . S
C836 N834 1.375 . S
C836 C835 1.338 . S
C836 H840 0.931 . S
C837 N834 1.313 . S
C837 N838 1.344 . S
C837 H841 0.930 . S
N838 C835 1.377 . S
N838 C837 1.344 . S
O839 Co831 2.055 . S
O839 C843 1.253 . S
H840 C836 0.931 . S
H841 C837 0.930 . S
O842 Co831 2.039 . S
O842 C832 1.265 . S
C843 O839 1.253 . S
C843 O844 1.227 . S
O844 C843 1.227 . S
N845 Co831 2.140 . S
N845 C848 1.346 . S
N845 C849 1.345 . S
C846 C847 1.387 . S
C846 C850 1.391 . S
C847 C846 1.387 . S
C847 C848 1.369 . S
C847 H856 0.929 . S
C848 N845 1.346 . S
C848 C847 1.369 . S
C848 H851 0.928 . S
C849 N845 1.345 . S
C849 C850 1.371 . S
C849 H852 0.931 . S
C850 C846 1.391 . S
C850 C849 1.371 . S
C850 H857 0.930 . S
H851 C848 0.928 . S
H852 C849 0.931 . S
H853 C829 0.930 . S
H854 C826 0.930 . S
H855 C835 0.930 . S
H856 C847 0.929 . S
H857 C850 0.930 . S
C858 C859 1.351 . S
C858 N861 1.368 . S
C858 H863 0.931 . S
C859 C858 1.351 . S
C859 N860 1.373 . S
C859 H887 0.930 . S
N860 C859 1.373 . S
N860 C862 1.340 . S
N861 C858 1.368 . S
N861 C862 1.321 . S
N861 Co864 2.135 . S
C862 N860 1.340 . S
C862 N861 1.321 . S
C862 H886 0.930 . S
H863 C858 0.931 . S
Co864 N861 2.135 . S
Co864 N867 2.121 . S
Co864 O872 2.055 . S
Co864 O875 2.039 . S
Co864 N878 2.140 . S
C865 O866 1.227 . S
C865 O875 1.265 . S
O866 C865 1.227 . S
N867 Co864 2.121 . S
N867 C869 1.375 . S
N867 C870 1.313 . S
C868 C869 1.338 . S
C868 N871 1.377 . S
C868 H888 0.930 . S
C869 N867 1.375 . S
C869 C868 1.338 . S
C869 H873 0.931 . S
C870 N867 1.313 . S
C870 N871 1.344 . S
C870 H874 0.930 . S
N871 C868 1.377 . S
N871 C870 1.344 . S
O872 Co864 2.055 . S
O872 C876 1.253 . S
H873 C869 0.931 . S
H874 C870 0.930 . S
O875 Co864 2.039 . S
O875 C865 1.265 . S
C876 O872 1.253 . S
C876 O877 1.227 . S
O877 C876 1.227 . S
N878 Co864 2.140 . S
N878 C881 1.346 . S
N878 C882 1.345 . S
C879 C880 1.387 . S
C879 C883 1.391 . S
C880 C879 1.387 . S
C880 C881 1.369 . S
C880 H889 0.929 . S
C881 N878 1.346 . S
C881 C880 1.369 . S
C881 H884 0.928 . S
C882 N878 1.345 . S
C882 C883 1.371 . S
C882 H885 0.931 . S
C883 C879 1.391 . S
C883 C882 1.371 . S
C883 H890 0.930 . S
H884 C881 0.928 . S
H885 C882 0.931 . S
H886 C862 0.930 . S
H887 C859 0.930 . S
H888 C868 0.930 . S
H889 C880 0.929 . S
H890 C883 0.930 . S
C891 C892 1.351 . S
C891 N894 1.368 . S
C891 H896 0.931 . S
C892 C891 1.351 . S
C892 N893 1.373 . S
C892 H920 0.930 . S
N893 C892 1.373 . S
N893 C895 1.340 . S
N894 C891 1.368 . S
N894 C895 1.321 . S
N894 Co897 2.135 . S
C895 N893 1.340 . S
C895 N894 1.321 . S
C895 H919 0.930 . S
H896 C891 0.931 . S
Co897 N894 2.135 . S
Co897 N900 2.121 . S
Co897 O905 2.055 . S
Co897 O908 2.039 . S
Co897 N911 2.140 . S
C898 O899 1.227 . S
C898 O908 1.265 . S
O899 C898 1.227 . S
N900 Co897 2.121 . S
N900 C902 1.375 . S
N900 C903 1.313 . S
C901 C902 1.338 . S
C901 N904 1.377 . S
C901 H921 0.930 . S
C902 N900 1.375 . S
C902 C901 1.338 . S
C902 H906 0.931 . S
C903 N900 1.313 . S
C903 N904 1.344 . S
C903 H907 0.930 . S
N904 C901 1.377 . S
N904 C903 1.344 . S
O905 Co897 2.055 . S
O905 C909 1.253 . S
H906 C902 0.931 . S
H907 C903 0.930 . S
O908 Co897 2.039 . S
O908 C898 1.265 . S
C909 O905 1.253 . S
C909 O910 1.227 . S
O910 C909 1.227 . S
N911 Co897 2.140 . S
N911 C914 1.346 . S
N911 C915 1.345 . S
C912 C913 1.387 . S
C912 C916 1.391 . S
C913 C912 1.387 . S
C913 C914 1.369 . S
C913 H922 0.929 . S
C914 N911 1.346 . S
C914 C913 1.369 . S
C914 H917 0.928 . S
C915 N911 1.345 . S
C915 C916 1.371 . S
C915 H918 0.931 . S
C916 C912 1.391 . S
C916 C915 1.371 . S
C916 H923 0.930 . S
H917 C914 0.928 . S
H918 C915 0.931 . S
H919 C895 0.930 . S
H920 C892 0.930 . S
H921 C901 0.930 . S
H922 C913 0.929 . S
H923 C916 0.930 . S
C924 C925 1.351 . S
C924 N927 1.368 . S
C924 H929 0.931 . S
C925 C924 1.351 . S
C925 N926 1.373 . S
C925 H953 0.930 . S
N926 C925 1.373 . S
N926 C928 1.340 . S
N927 C924 1.368 . S
N927 C928 1.321 . S
N927 Co930 2.135 . S
C928 N926 1.340 . S
C928 N927 1.321 . S
C928 H952 0.930 . S
H929 C924 0.931 . S
Co930 N927 2.135 . S
Co930 N933 2.121 . S
Co930 O938 2.055 . S
Co930 O941 2.039 . S
Co930 N944 2.140 . S
C931 O932 1.227 . S
C931 O941 1.265 . S
O932 C931 1.227 . S
N933 Co930 2.121 . S
N933 C935 1.375 . S
N933 C936 1.313 . S
C934 C935 1.338 . S
C934 N937 1.377 . S
C934 H954 0.930 . S
C935 N933 1.375 . S
C935 C934 1.338 . S
C935 H939 0.931 . S
C936 N933 1.313 . S
C936 N937 1.344 . S
C936 H940 0.930 . S
N937 C934 1.377 . S
N937 C936 1.344 . S
O938 Co930 2.055 . S
O938 C942 1.253 . S
H939 C935 0.931 . S
H940 C936 0.930 . S
O941 Co930 2.039 . S
O941 C931 1.265 . S
C942 O938 1.253 . S
C942 O943 1.227 . S
O943 C942 1.227 . S
N944 Co930 2.140 . S
N944 C947 1.346 . S
N944 C948 1.345 . S
C945 C946 1.387 . S
C945 C949 1.391 . S
C946 C945 1.387 . S
C946 C947 1.369 . S
C946 H955 0.929 . S
C947 N944 1.346 . S
C947 C946 1.369 . S
C947 H950 0.928 . S
C948 N944 1.345 . S
C948 C949 1.371 . S
C948 H951 0.931 . S
C949 C945 1.391 . S
C949 C948 1.371 . S
C949 H956 0.930 . S
H950 C947 0.928 . S
H951 C948 0.931 . S
H952 C928 0.930 . S
H953 C925 0.930 . S
H954 C934 0.930 . S
H955 C946 0.929 . S
H956 C949 0.930 . S
C957 C958 1.351 . S
C957 N960 1.368 . S
C957 H962 0.931 . S
C958 C957 1.351 . S
C958 N959 1.373 . S
C958 H986 0.930 . S
N959 C958 1.373 . S
N959 C961 1.340 . S
N960 C957 1.368 . S
N960 C961 1.321 . S
N960 Co963 2.135 . S
C961 N959 1.340 . S
C961 N960 1.321 . S
C961 H985 0.930 . S
H962 C957 0.931 . S
Co963 N960 2.135 . S
Co963 N966 2.121 . S
Co963 O971 2.055 . S
Co963 O974 2.039 . S
Co963 N977 2.140 . S
C964 O965 1.227 . S
C964 O974 1.265 . S
O965 C964 1.227 . S
N966 Co963 2.121 . S
N966 C968 1.375 . S
N966 C969 1.313 . S
C967 C968 1.338 . S
C967 N970 1.377 . S
C967 H987 0.930 . S
C968 N966 1.375 . S
C968 C967 1.338 . S
C968 H972 0.931 . S
C969 N966 1.313 . S
C969 N970 1.344 . S
C969 H973 0.930 . S
N970 C967 1.377 . S
N970 C969 1.344 . S
O971 Co963 2.055 . S
O971 C975 1.253 . S
H972 C968 0.931 . S
H973 C969 0.930 . S
O974 Co963 2.039 . S
O974 C964 1.265 . S
C975 O971 1.253 . S
C975 O976 1.227 . S
O976 C975 1.227 . S
N977 Co963 2.140 . S
N977 C980 1.346 . S
N977 C981 1.345 . S
C978 C979 1.387 . S
C978 C982 1.391 . S
C979 C978 1.387 . S
C979 C980 1.369 . S
C979 H988 0.929 . S
C980 N977 1.346 . S
C980 C979 1.369 . S
C980 H983 0.928 . S
C981 N977 1.345 . S
C981 C982 1.371 . S
C981 H984 0.931 . S
C982 C978 1.391 . S
C982 C981 1.371 . S
C982 H989 0.930 . S
H983 C980 0.928 . S
H984 C981 0.931 . S
H985 C961 0.930 . S
H986 C958 0.930 . S
H987 C967 0.930 . S
H988 C979 0.929 . S
H989 C982 0.930 . S
C990 C991 1.351 . S
C990 N993 1.368 . S
C990 H995 0.931 . S
C991 C990 1.351 . S
C991 N992 1.373 . S
C991 H1019 0.930 . S
N992 C991 1.373 . S
N992 C994 1.340 . S
N993 C990 1.368 . S
N993 C994 1.321 . S
N993 Co996 2.135 . S
C994 N992 1.340 . S
C994 N993 1.321 . S
C994 H1018 0.930 . S
H995 C990 0.931 . S
Co996 N993 2.135 . S
Co996 N999 2.121 . S
Co996 O1004 2.055 . S
Co996 O1007 2.039 . S
Co996 N1010 2.140 . S
C997 O998 1.227 . S
C997 O1007 1.265 . S
O998 C997 1.227 . S
N999 Co996 2.121 . S
N999 C1001 1.375 . S
N999 C1002 1.313 . S
C1000 C1001 1.338 . S
C1000 N1003 1.377 . S
C1000 H1020 0.930 . S
C1001 N999 1.375 . S
C1001 C1000 1.338 . S
C1001 H1005 0.931 . S
C1002 N999 1.313 . S
C1002 N1003 1.344 . S
C1002 H1006 0.930 . S
N1003 C1000 1.377 . S
N1003 C1002 1.344 . S
O1004 Co996 2.055 . S
O1004 C1008 1.253 . S
H1005 C1001 0.931 . S
H1006 C1002 0.930 . S
O1007 Co996 2.039 . S
O1007 C997 1.265 . S
C1008 O1004 1.253 . S
C1008 O1009 1.227 . S
O1009 C1008 1.227 . S
N1010 Co996 2.140 . S
N1010 C1013 1.346 . S
N1010 C1014 1.345 . S
C1011 C1012 1.387 . S
C1011 C1015 1.391 . S
C1012 C1011 1.387 . S
C1012 C1013 1.369 . S
C1012 H1021 0.929 . S
C1013 N1010 1.346 . S
C1013 C1012 1.369 . S
C1013 H1016 0.928 . S
C1014 N1010 1.345 . S
C1014 C1015 1.371 . S
C1014 H1017 0.931 . S
C1015 C1011 1.391 . S
C1015 C1014 1.371 . S
C1015 H1022 0.930 . S
H1016 C1013 0.928 . S
H1017 C1014 0.931 . S
H1018 C994 0.930 . S
H1019 C991 0.930 . S
H1020 C1000 0.930 . S
H1021 C1012 0.929 . S
H1022 C1015 0.930 . S
C1023 C1024 1.351 . S
C1023 N1026 1.368 . S
C1023 H1028 0.931 . S
C1024 C1023 1.351 . S
C1024 N1025 1.373 . S
C1024 H1052 0.930 . S
N1025 C1024 1.373 . S
N1025 C1027 1.340 . S
N1026 C1023 1.368 . S
N1026 C1027 1.321 . S
N1026 Co1029 2.135 . S
C1027 N1025 1.340 . S
C1027 N1026 1.321 . S
C1027 H1051 0.930 . S
H1028 C1023 0.931 . S
Co1029 N1026 2.135 . S
Co1029 N1032 2.121 . S
Co1029 O1037 2.055 . S
Co1029 O1040 2.039 . S
Co1029 N1043 2.140 . S
C1030 O1031 1.227 . S
C1030 O1040 1.265 . S
O1031 C1030 1.227 . S
N1032 Co1029 2.121 . S
N1032 C1034 1.375 . S
N1032 C1035 1.313 . S
C1033 C1034 1.338 . S
C1033 N1036 1.377 . S
C1033 H1053 0.930 . S
C1034 N1032 1.375 . S
C1034 C1033 1.338 . S
C1034 H1038 0.931 . S
C1035 N1032 1.313 . S
C1035 N1036 1.344 . S
C1035 H1039 0.930 . S
N1036 C1033 1.377 . S
N1036 C1035 1.344 . S
O1037 Co1029 2.055 . S
O1037 C1041 1.253 . S
H1038 C1034 0.931 . S
H1039 C1035 0.930 . S
O1040 Co1029 2.039 . S
O1040 C1030 1.265 . S
C1041 O1037 1.253 . S
C1041 O1042 1.227 . S
O1042 C1041 1.227 . S
N1043 Co1029 2.140 . S
N1043 C1046 1.346 . S
N1043 C1047 1.345 . S
C1044 C1045 1.387 . S
C1044 C1048 1.391 . S
C1045 C1044 1.387 . S
C1045 C1046 1.369 . S
C1045 H1054 0.929 . S
C1046 N1043 1.346 . S
C1046 C1045 1.369 . S
C1046 H1049 0.928 . S
C1047 N1043 1.345 . S
C1047 C1048 1.371 . S
C1047 H1050 0.931 . S
C1048 C1044 1.391 . S
C1048 C1047 1.371 . S
C1048 H1055 0.930 . S
H1049 C1046 0.928 . S
H1050 C1047 0.931 . S
H1051 C1027 0.930 . S
H1052 C1024 0.930 . S
H1053 C1033 0.930 . S
H1054 C1045 0.929 . S
H1055 C1048 0.930 . S
C1056 C1057 1.351 . S
C1056 N1059 1.368 . S
C1056 H1061 0.931 . S
C1057 C1056 1.351 . S
C1057 N1058 1.373 . S
C1057 H1085 0.930 . S
N1058 C1057 1.373 . S
N1058 C1060 1.340 . S
N1059 C1056 1.368 . S
N1059 C1060 1.321 . S
N1059 Co1062 2.135 . S
C1060 N1058 1.340 . S
C1060 N1059 1.321 . S
C1060 H1084 0.930 . S
H1061 C1056 0.931 . S
Co1062 N1059 2.135 . S
Co1062 N1065 2.121 . S
Co1062 O1070 2.055 . S
Co1062 O1073 2.039 . S
Co1062 N1076 2.140 . S
C1063 O1064 1.227 . S
C1063 O1073 1.265 . S
O1064 C1063 1.227 . S
N1065 Co1062 2.121 . S
N1065 C1067 1.375 . S
N1065 C1068 1.313 . S
C1066 C1067 1.338 . S
C1066 N1069 1.377 . S
C1066 H1086 0.930 . S
C1067 N1065 1.375 . S
C1067 C1066 1.338 . S
C1067 H1071 0.931 . S
C1068 N1065 1.313 . S
C1068 N1069 1.344 . S
C1068 H1072 0.930 . S
N1069 C1066 1.377 . S
N1069 C1068 1.344 . S
O1070 Co1062 2.055 . S
O1070 C1074 1.253 . S
H1071 C1067 0.931 . S
H1072 C1068 0.930 . S
O1073 Co1062 2.039 . S
O1073 C1063 1.265 . S
C1074 O1070 1.253 . S
C1074 O1075 1.227 . S
O1075 C1074 1.227 . S
N1076 Co1062 2.140 . S
N1076 C1079 1.346 . S
N1076 C1080 1.345 . S
C1077 C1078 1.387 . S
C1077 C1081 1.391 . S
C1078 C1077 1.387 . S
C1078 C1079 1.369 . S
C1078 H1087 0.929 . S
C1079 N1076 1.346 . S
C1079 C1078 1.369 . S
C1079 H1082 0.928 . S
C1080 N1076 1.345 . S
C1080 C1081 1.371 . S
C1080 H1083 0.931 . S
C1081 C1077 1.391 . S
C1081 C1080 1.371 . S
C1081 H1088 0.930 . S
H1082 C1079 0.928 . S
H1083 C1080 0.931 . S
H1084 C1060 0.930 . S
H1085 C1057 0.930 . S
H1086 C1066 0.930 . S
H1087 C1078 0.929 . S
H1088 C1081 0.930 . S
C1089 C1090 1.351 . S
C1089 N1092 1.368 . S
C1089 H1094 0.931 . S
C1090 C1089 1.351 . S
C1090 N1091 1.366 1_565 S
C1090 H1118 0.930 . S
N1091 C1090 1.366 1_545 S
N1091 C1093 1.333 1_545 S
N1092 C1089 1.368 . S
N1092 C1093 1.321 . S
N1092 Co1095 2.135 . S
C1093 N1091 1.333 1_565 S
C1093 N1092 1.321 . S
C1093 H1117 0.930 . S
H1094 C1089 0.931 . S
Co1095 N1092 2.135 . S
Co1095 N1098 2.121 . S
Co1095 O1103 2.055 . S
Co1095 O1106 2.039 . S
Co1095 N1109 2.137 1_565 S
C1096 O1097 1.227 1_565 S
C1096 O1106 1.265 . S
O1097 C1096 1.227 1_545 S
N1098 Co1095 2.121 . S
N1098 C1100 1.375 . S
N1098 C1101 1.313 . S
C1099 C1100 1.338 . S
C1099 N1102 1.377 . S
C1099 H1119 0.930 . S
C1100 N1098 1.375 . S
C1100 C1099 1.338 . S
C1100 H1104 0.931 . S
C1101 N1098 1.313 . S
C1101 N1102 1.344 . S
C1101 H1105 0.930 . S
N1102 C1099 1.377 . S
N1102 C1101 1.344 . S
O1103 Co1095 2.055 . S
O1103 C1107 1.253 . S
H1104 C1100 0.931 . S
H1105 C1101 0.930 . S
O1106 Co1095 2.039 . S
O1106 C1096 1.265 . S
C1107 O1103 1.253 . S
C1107 O1108 1.227 . S
O1108 C1107 1.227 . S
N1109 Co1095 2.137 1_545 S
N1109 C1112 1.349 . S
N1109 C1113 1.344 1_545 S
C1110 C1111 1.387 . S
C1110 C1114 1.391 . S
C1111 C1110 1.387 . S
C1111 C1112 1.369 . S
C1111 H1120 0.929 . S
C1112 N1109 1.349 . S
C1112 C1111 1.369 . S
C1112 H1115 0.928 . S
C1113 N1109 1.344 1_565 S
C1113 C1114 1.333 1_565 S
C1113 H1116 0.973 . S
C1114 C1110 1.391 . S
C1114 C1113 1.333 1_545 S
C1114 H1121 0.930 . S
H1115 C1112 0.928 . S
H1116 C1113 0.973 . S
H1117 C1093 0.930 . S
H1118 C1090 0.930 . S
H1119 C1099 0.930 . S
H1120 C1111 0.929 . S
H1121 C1114 0.930 . S
C1122 C1123 1.351 . S
C1122 N1125 1.368 . S
C1122 H1127 0.931 . S
C1123 C1122 1.351 . S
C1123 N1124 1.373 . S
C1123 H1151 0.930 . S
N1124 C1123 1.373 . S
N1124 C1126 1.340 . S
N1125 C1122 1.368 . S
N1125 C1126 1.321 . S
N1125 Co1128 2.135 . S
C1126 N1124 1.340 . S
C1126 N1125 1.321 . S
C1126 H1150 0.930 . S
H1127 C1122 0.931 . S
Co1128 N1125 2.135 . S
Co1128 N1131 2.121 . S
Co1128 O1136 2.055 . S
Co1128 O1139 2.039 . S
Co1128 N1142 2.140 . S
C1129 O1130 1.227 . S
C1129 O1139 1.265 . S
O1130 C1129 1.227 . S
N1131 Co1128 2.121 . S
N1131 C1133 1.375 1_565 S
N1131 C1134 1.313 1_565 S
C1132 C1133 1.338 . S
C1132 N1135 1.377 . S
C1132 H1152 0.930 . S
C1133 N1131 1.375 1_545 S
C1133 C1132 1.338 . S
C1133 H1137 0.931 . S
C1134 N1131 1.313 1_545 S
C1134 N1135 1.344 . S
C1134 H1138 0.930 1_545 S
N1135 C1132 1.377 . S
N1135 C1134 1.344 . S
O1136 Co1128 2.055 . S
O1136 C1140 1.253 . S
H1137 C1133 0.931 . S
H1138 C1134 0.930 1_565 S
O1139 Co1128 2.039 . S
O1139 C1129 1.265 . S
C1140 O1136 1.253 . S
C1140 O1141 1.227 . S
O1141 C1140 1.227 . S
N1142 Co1128 2.140 . S
N1142 C1145 1.346 . S
N1142 C1146 1.345 . S
C1143 C1144 1.387 . S
C1143 C1147 1.391 . S
C1144 C1143 1.387 . S
C1144 C1145 1.369 . S
C1144 H1153 0.929 . S
C1145 N1142 1.346 . S
C1145 C1144 1.369 . S
C1145 H1148 0.928 . S
C1146 N1142 1.345 . S
C1146 C1147 1.371 . S
C1146 H1149 0.931 . S
C1147 C1143 1.391 . S
C1147 C1146 1.371 . S
C1147 H1154 0.930 . S
H1148 C1145 0.928 . S
H1149 C1146 0.931 . S
H1150 C1126 0.930 . S
H1151 C1123 0.930 . S
H1152 C1132 0.930 . S
H1153 C1144 0.929 . S
H1154 C1147 0.930 . S
C1155 C1156 1.351 . S
C1155 N1158 1.368 . S
C1155 H1160 0.931 . S
C1156 C1155 1.351 . S
C1156 N1157 1.373 . S
C1156 H1184 0.930 . S
N1157 C1156 1.373 . S
N1157 C1159 1.340 . S
N1158 C1155 1.368 . S
N1158 C1159 1.321 . S
N1158 Co1161 2.135 . S
C1159 N1157 1.340 . S
C1159 N1158 1.321 . S
C1159 H1183 0.930 . S
H1160 C1155 0.931 . S
Co1161 N1158 2.135 . S
Co1161 N1164 2.121 . S
Co1161 O1169 2.055 . S
Co1161 O1172 2.039 . S
Co1161 N1175 2.140 . S
C1162 O1163 1.227 . S
C1162 O1172 1.265 . S
O1163 C1162 1.227 . S
N1164 Co1161 2.121 . S
N1164 C1166 1.375 . S
N1164 C1167 1.313 . S
C1165 C1166 1.338 . S
C1165 N1168 1.377 . S
C1165 H1185 0.930 . S
C1166 N1164 1.375 . S
C1166 C1165 1.338 . S
C1166 H1170 0.931 . S
C1167 N1164 1.313 . S
C1167 N1168 1.344 . S
C1167 H1171 0.930 . S
N1168 C1165 1.377 . S
N1168 C1167 1.344 . S
O1169 Co1161 2.055 . S
O1169 C1173 1.253 . S
H1170 C1166 0.931 . S
H1171 C1167 0.930 . S
O1172 Co1161 2.039 . S
O1172 C1162 1.265 . S
C1173 O1169 1.253 . S
C1173 O1174 1.227 . S
O1174 C1173 1.227 . S
N1175 Co1161 2.140 . S
N1175 C1178 1.346 . S
N1175 C1179 1.345 . S
C1176 C1177 1.387 . S
C1176 C1180 1.391 . S
C1177 C1176 1.387 . S
C1177 C1178 1.369 . S
C1177 H1186 0.929 . S
C1178 N1175 1.346 . S
C1178 C1177 1.369 . S
C1178 H1181 0.928 . S
C1179 N1175 1.345 . S
C1179 C1180 1.371 . S
C1179 H1182 0.931 . S
C1180 C1176 1.391 . S
C1180 C1179 1.371 . S
C1180 H1187 0.930 . S
H1181 C1178 0.928 . S
H1182 C1179 0.931 . S
H1183 C1159 0.930 . S
H1184 C1156 0.930 . S
H1185 C1165 0.930 . S
H1186 C1177 0.929 . S
H1187 C1180 0.930 . S
C1188 C1189 1.351 . S
C1188 N1191 1.368 . S
C1188 H1193 0.931 . S
C1189 C1188 1.351 . S
C1189 N1190 1.373 . S
C1189 H1217 0.930 . S
N1190 C1189 1.373 . S
N1190 C1192 1.340 . S
N1191 C1188 1.368 . S
N1191 C1192 1.321 . S
N1191 Co1194 2.135 . S
C1192 N1190 1.340 . S
C1192 N1191 1.321 . S
C1192 H1216 0.930 . S
H1193 C1188 0.931 . S
Co1194 N1191 2.135 . S
Co1194 N1197 2.121 . S
Co1194 O1202 2.055 . S
Co1194 O1205 2.039 . S
Co1194 N1208 2.140 . S
C1195 O1196 1.227 . S
C1195 O1205 1.265 . S
O1196 C1195 1.227 . S
N1197 Co1194 2.121 . S
N1197 C1199 1.375 . S
N1197 C1200 1.313 . S
C1198 C1199 1.338 . S
C1198 N1201 1.377 . S
C1198 H1218 0.930 . S
C1199 N1197 1.375 . S
C1199 C1198 1.338 . S
C1199 H1203 0.931 . S
C1200 N1197 1.313 . S
C1200 N1201 1.344 . S
C1200 H1204 0.930 . S
N1201 C1198 1.377 . S
N1201 C1200 1.344 . S
O1202 Co1194 2.055 . S
O1202 C1206 1.253 . S
H1203 C1199 0.931 . S
H1204 C1200 0.930 . S
O1205 Co1194 2.039 . S
O1205 C1195 1.265 . S
C1206 O1202 1.253 . S
C1206 O1207 1.227 . S
O1207 C1206 1.227 . S
N1208 Co1194 2.140 . S
N1208 C1211 1.346 . S
N1208 C1212 1.345 . S
C1209 C1210 1.387 . S
C1209 C1213 1.391 . S
C1210 C1209 1.387 . S
C1210 C1211 1.369 . S
C1210 H1219 0.929 . S
C1211 N1208 1.346 . S
C1211 C1210 1.369 . S
C1211 H1214 0.928 . S
C1212 N1208 1.345 . S
C1212 C1213 1.371 . S
C1212 H1215 0.931 . S
C1213 C1209 1.391 . S
C1213 C1212 1.371 . S
C1213 H1220 0.930 . S
H1214 C1211 0.928 . S
H1215 C1212 0.931 . S
H1216 C1192 0.930 . S
H1217 C1189 0.930 . S
H1218 C1198 0.930 . S
H1219 C1210 0.929 . S
H1220 C1213 0.930 . S
C1221 C1222 1.351 . S
C1221 N1224 1.368 . S
C1221 H1226 0.931 . S
C1222 C1221 1.351 . S
C1222 N1223 1.366 1_565 S
C1222 H1250 0.930 . S
N1223 C1222 1.366 1_545 S
N1223 C1225 1.333 1_545 S
N1224 C1221 1.368 . S
N1224 C1225 1.321 . S
N1224 Co1227 2.135 . S
C1225 N1223 1.333 1_565 S
C1225 N1224 1.321 . S
C1225 H1249 0.930 . S
H1226 C1221 0.931 . S
Co1227 N1224 2.135 . S
Co1227 N1230 2.121 . S
Co1227 O1235 2.055 . S
Co1227 O1238 2.039 . S
Co1227 N1241 2.137 1_565 S
C1228 O1229 1.227 1_565 S
C1228 O1238 1.265 . S
O1229 C1228 1.227 1_545 S
N1230 Co1227 2.121 . S
N1230 C1232 1.375 . S
N1230 C1233 1.313 . S
C1231 C1232 1.338 . S
C1231 N1234 1.377 . S
C1231 H1251 0.930 . S
C1232 N1230 1.375 . S
C1232 C1231 1.338 . S
C1232 H1236 0.931 . S
C1233 N1230 1.313 . S
C1233 N1234 1.344 . S
C1233 H1237 0.930 . S
N1234 C1231 1.377 . S
N1234 C1233 1.344 . S
O1235 Co1227 2.055 . S
O1235 C1239 1.253 . S
H1236 C1232 0.931 . S
H1237 C1233 0.930 . S
O1238 Co1227 2.039 . S
O1238 C1228 1.265 . S
C1239 O1235 1.253 . S
C1239 O1240 1.227 . S
O1240 C1239 1.227 . S
N1241 Co1227 2.137 1_545 S
N1241 C1244 1.349 . S
N1241 C1245 1.344 1_545 S
C1242 C1243 1.387 . S
C1242 C1246 1.391 . S
C1243 C1242 1.387 . S
C1243 C1244 1.369 . S
C1243 H1252 0.929 . S
C1244 N1241 1.349 . S
C1244 C1243 1.369 . S
C1244 H1247 0.928 . S
C1245 N1241 1.344 1_565 S
C1245 C1246 1.333 1_565 S
C1245 H1248 0.973 . S
C1246 C1242 1.391 . S
C1246 C1245 1.333 1_545 S
C1246 H1253 0.930 . S
H1247 C1244 0.928 . S
H1248 C1245 0.973 . S
H1249 C1225 0.930 . S
H1250 C1222 0.930 . S
H1251 C1231 0.930 . S
H1252 C1243 0.929 . S
H1253 C1246 0.930 . S
C1254 C1255 1.351 . S
C1254 N1257 1.368 . S
C1254 H1259 0.931 . S
C1255 C1254 1.351 . S
C1255 N1256 1.373 . S
C1255 H1283 0.930 . S
N1256 C1255 1.373 . S
N1256 C1258 1.340 . S
N1257 C1254 1.368 . S
N1257 C1258 1.321 . S
N1257 Co1260 2.135 . S
C1258 N1256 1.340 . S
C1258 N1257 1.321 . S
C1258 H1282 0.930 . S
H1259 C1254 0.931 . S
Co1260 N1257 2.135 . S
Co1260 N1263 2.121 . S
Co1260 O1268 2.055 . S
Co1260 O1271 2.039 . S
Co1260 N1274 2.140 . S
C1261 O1262 1.227 . S
C1261 O1271 1.265 . S
O1262 C1261 1.227 . S
N1263 Co1260 2.121 . S
N1263 C1265 1.375 1_545 S
N1263 C1266 1.313 1_545 S
C1264 C1265 1.338 . S
C1264 N1267 1.377 . S
C1264 H1284 0.930 . S
C1265 N1263 1.375 1_565 S
C1265 C1264 1.338 . S
C1265 H1269 0.931 . S
C1266 N1263 1.313 1_565 S
C1266 N1267 1.344 . S
C1266 H1270 0.930 1_565 S
N1267 C1264 1.377 . S
N1267 C1266 1.344 . S
O1268 Co1260 2.055 . S
O1268 C1272 1.253 . S
H1269 C1265 0.931 . S
H1270 C1266 0.930 1_545 S
O1271 Co1260 2.039 . S
O1271 C1261 1.265 . S
C1272 O1268 1.253 . S
C1272 O1273 1.227 . S
O1273 C1272 1.227 . S
N1274 Co1260 2.140 . S
N1274 C1277 1.346 . S
N1274 C1278 1.345 . S
C1275 C1276 1.387 . S
C1275 C1279 1.391 . S
C1276 C1275 1.387 . S
C1276 C1277 1.369 . S
C1276 H1285 0.929 . S
C1277 N1274 1.346 . S
C1277 C1276 1.369 . S
C1277 H1280 0.928 . S
C1278 N1274 1.345 . S
C1278 C1279 1.371 . S
C1278 H1281 0.931 . S
C1279 C1275 1.391 . S
C1279 C1278 1.371 . S
C1279 H1286 0.930 . S
H1280 C1277 0.928 . S
H1281 C1278 0.931 . S
H1282 C1258 0.930 . S
H1283 C1255 0.930 . S
H1284 C1264 0.930 . S
H1285 C1276 0.929 . S
H1286 C1279 0.930 . S
C1287 C1288 1.351 . S
C1287 N1290 1.368 . S
C1287 H1292 0.931 . S
C1288 C1287 1.351 . S
C1288 N1289 1.373 . S
C1288 H1316 0.930 . S
N1289 C1288 1.373 . S
N1289 C1291 1.340 . S
N1290 C1287 1.368 . S
N1290 C1291 1.321 . S
N1290 Co1293 2.135 . S
C1291 N1289 1.340 . S
C1291 N1290 1.321 . S
C1291 H1315 0.930 . S
H1292 C1287 0.931 . S
Co1293 N1290 2.135 . S
Co1293 N1296 2.121 . S
Co1293 O1301 2.055 . S
Co1293 O1304 2.039 . S
Co1293 N1307 2.140 . S
C1294 O1295 1.227 . S
C1294 O1304 1.265 . S
O1295 C1294 1.227 . S
N1296 Co1293 2.121 . S
N1296 C1298 1.375 . S
N1296 C1299 1.313 . S
C1297 C1298 1.338 . S
C1297 N1300 1.377 . S
C1297 H1317 0.930 . S
C1298 N1296 1.375 . S
C1298 C1297 1.338 . S
C1298 H1302 0.931 . S
C1299 N1296 1.313 . S
C1299 N1300 1.344 . S
C1299 H1303 0.930 . S
N1300 C1297 1.377 . S
N1300 C1299 1.344 . S
O1301 Co1293 2.055 . S
O1301 C1305 1.253 . S
H1302 C1298 0.931 . S
H1303 C1299 0.930 . S
O1304 Co1293 2.039 . S
O1304 C1294 1.265 . S
C1305 O1301 1.253 . S
C1305 O1306 1.227 . S
O1306 C1305 1.227 . S
N1307 Co1293 2.140 . S
N1307 C1310 1.346 . S
N1307 C1311 1.345 . S
C1308 C1309 1.387 . S
C1308 C1312 1.391 . S
C1309 C1308 1.387 . S
C1309 C1310 1.369 . S
C1309 H1318 0.929 . S
C1310 N1307 1.346 . S
C1310 C1309 1.369 . S
C1310 H1313 0.928 . S
C1311 N1307 1.345 . S
C1311 C1312 1.371 . S
C1311 H1314 0.931 . S
C1312 C1308 1.391 . S
C1312 C1311 1.371 . S
C1312 H1319 0.930 . S
H1313 C1310 0.928 . S
H1314 C1311 0.931 . S
H1315 C1291 0.930 . S
H1316 C1288 0.930 . S
H1317 C1297 0.930 . S
H1318 C1309 0.929 . S
H1319 C1312 0.930 . S
C1320 C1321 1.351 . S
C1320 N1323 1.368 . S
C1320 H1325 0.931 . S
C1321 C1320 1.351 . S
C1321 N1322 1.373 . S
C1321 H1349 0.930 . S
N1322 C1321 1.373 . S
N1322 C1324 1.340 . S
N1323 C1320 1.368 . S
N1323 C1324 1.321 . S
N1323 Co1326 2.135 . S
C1324 N1322 1.340 . S
C1324 N1323 1.321 . S
C1324 H1348 0.930 . S
H1325 C1320 0.931 . S
Co1326 N1323 2.135 . S
Co1326 N1329 2.121 . S
Co1326 O1334 2.055 . S
Co1326 O1337 2.039 . S
Co1326 N1340 2.140 . S
C1327 O1328 1.227 . S
C1327 O1337 1.265 . S
O1328 C1327 1.227 . S
N1329 Co1326 2.121 . S
N1329 C1331 1.375 . S
N1329 C1332 1.313 . S
C1330 C1331 1.338 . S
C1330 N1333 1.377 . S
C1330 H1350 0.930 . S
C1331 N1329 1.375 . S
C1331 C1330 1.338 . S
C1331 H1335 0.931 . S
C1332 N1329 1.313 . S
C1332 N1333 1.344 . S
C1332 H1336 0.930 . S
N1333 C1330 1.377 . S
N1333 C1332 1.344 . S
O1334 Co1326 2.055 . S
O1334 C1338 1.253 . S
H1335 C1331 0.931 . S
H1336 C1332 0.930 . S
O1337 Co1326 2.039 . S
O1337 C1327 1.265 . S
C1338 O1334 1.253 . S
C1338 O1339 1.227 . S
O1339 C1338 1.227 . S
N1340 Co1326 2.140 . S
N1340 C1343 1.346 . S
N1340 C1344 1.345 . S
C1341 C1342 1.387 . S
C1341 C1345 1.391 . S
C1342 C1341 1.387 . S
C1342 C1343 1.369 . S
C1342 H1351 0.929 . S
C1343 N1340 1.346 . S
C1343 C1342 1.369 . S
C1343 H1346 0.928 . S
C1344 N1340 1.345 . S
C1344 C1345 1.371 . S
C1344 H1347 0.931 . S
C1345 C1341 1.391 . S
C1345 C1344 1.371 . S
C1345 H1352 0.930 . S
H1346 C1343 0.928 . S
H1347 C1344 0.931 . S
H1348 C1324 0.930 . S
H1349 C1321 0.930 . S
H1350 C1330 0.930 . S
H1351 C1342 0.929 . S
H1352 C1345 0.930 . S
C1353 C1354 1.351 . S
C1353 N1356 1.368 . S
C1353 H1358 0.931 . S
C1354 C1353 1.351 . S
C1354 N1355 1.373 . S
C1354 H1382 0.930 . S
N1355 C1354 1.373 . S
N1355 C1357 1.340 . S
N1356 C1353 1.368 . S
N1356 C1357 1.321 . S
N1356 Co1359 2.135 . S
C1357 N1355 1.340 . S
C1357 N1356 1.321 . S
C1357 H1381 0.930 . S
H1358 C1353 0.931 . S
Co1359 N1356 2.135 . S
Co1359 N1362 2.121 . S
Co1359 O1367 2.055 . S
Co1359 O1370 2.039 . S
Co1359 N1373 2.140 . S
C1360 O1361 1.227 . S
C1360 O1370 1.265 . S
O1361 C1360 1.227 . S
N1362 Co1359 2.121 . S
N1362 C1364 1.375 1_556 S
N1362 C1365 1.313 1_556 S
C1363 C1364 1.338 . S
C1363 N1366 1.377 . S
C1363 H1383 0.930 . S
C1364 N1362 1.375 1_554 S
C1364 C1363 1.338 . S
C1364 H1368 0.931 . S
C1365 N1362 1.313 1_554 S
C1365 N1366 1.344 . S
C1365 H1369 0.930 1_554 S
N1366 C1363 1.377 . S
N1366 C1365 1.344 . S
O1367 Co1359 2.055 . S
O1367 C1371 1.253 . S
H1368 C1364 0.931 . S
H1369 C1365 0.930 1_556 S
O1370 Co1359 2.039 . S
O1370 C1360 1.265 . S
C1371 O1367 1.253 . S
C1371 O1372 1.227 . S
O1372 C1371 1.227 . S
N1373 Co1359 2.140 . S
N1373 C1376 1.346 . S
N1373 C1377 1.345 . S
C1374 C1375 1.387 . S
C1374 C1378 1.391 . S
C1375 C1374 1.387 . S
C1375 C1376 1.369 . S
C1375 H1384 0.929 . S
C1376 N1373 1.346 . S
C1376 C1375 1.369 . S
C1376 H1379 0.928 . S
C1377 N1373 1.345 . S
C1377 C1378 1.371 . S
C1377 H1380 0.931 . S
C1378 C1374 1.391 . S
C1378 C1377 1.371 . S
C1378 H1385 0.930 . S
H1379 C1376 0.928 . S
H1380 C1377 0.931 . S
H1381 C1357 0.930 . S
H1382 C1354 0.930 . S
H1383 C1363 0.930 . S
H1384 C1375 0.929 . S
H1385 C1378 0.930 . S
C1386 C1387 1.351 . S
C1386 N1389 1.368 . S
C1386 H1391 0.931 . S
C1387 C1386 1.351 . S
C1387 N1388 1.373 . S
C1387 H1415 0.930 . S
N1388 C1387 1.373 . S
N1388 C1390 1.340 . S
N1389 C1386 1.368 . S
N1389 C1390 1.321 . S
N1389 Co1392 2.135 . S
C1390 N1388 1.340 . S
C1390 N1389 1.321 . S
C1390 H1414 0.930 . S
H1391 C1386 0.931 . S
Co1392 N1389 2.135 . S
Co1392 N1395 2.121 . S
Co1392 O1400 2.055 . S
Co1392 O1403 2.039 . S
Co1392 N1406 2.140 . S
C1393 O1394 1.227 . S
C1393 O1403 1.265 . S
O1394 C1393 1.227 . S
N1395 Co1392 2.121 . S
N1395 C1397 1.375 . S
N1395 C1398 1.313 . S
C1396 C1397 1.338 . S
C1396 N1399 1.377 . S
C1396 H1416 0.930 . S
C1397 N1395 1.375 . S
C1397 C1396 1.338 . S
C1397 H1401 0.931 . S
C1398 N1395 1.313 . S
C1398 N1399 1.344 . S
C1398 H1402 0.930 . S
N1399 C1396 1.377 . S
N1399 C1398 1.344 . S
O1400 Co1392 2.055 . S
O1400 C1404 1.253 . S
H1401 C1397 0.931 . S
H1402 C1398 0.930 . S
O1403 Co1392 2.039 . S
O1403 C1393 1.265 . S
C1404 O1400 1.253 . S
C1404 O1405 1.227 . S
O1405 C1404 1.227 . S
N1406 Co1392 2.140 . S
N1406 C1409 1.346 . S
N1406 C1410 1.345 . S
C1407 C1408 1.387 . S
C1407 C1411 1.391 . S
C1408 C1407 1.387 . S
C1408 C1409 1.369 . S
C1408 H1417 0.929 . S
C1409 N1406 1.346 . S
C1409 C1408 1.369 . S
C1409 H1412 0.928 . S
C1410 N1406 1.345 . S
C1410 C1411 1.371 . S
C1410 H1413 0.931 . S
C1411 C1407 1.391 . S
C1411 C1410 1.371 . S
C1411 H1418 0.930 . S
H1412 C1409 0.928 . S
H1413 C1410 0.931 . S
H1414 C1390 0.930 . S
H1415 C1387 0.930 . S
H1416 C1396 0.930 . S
H1417 C1408 0.929 . S
H1418 C1411 0.930 . S
C1419 C1420 1.351 . S
C1419 N1422 1.368 . S
C1419 H1424 0.931 . S
C1420 C1419 1.351 . S
C1420 N1421 1.373 . S
C1420 H1448 0.930 . S
N1421 C1420 1.373 . S
N1421 C1423 1.340 . S
N1422 C1419 1.368 . S
N1422 C1423 1.321 . S
N1422 Co1425 2.135 . S
C1423 N1421 1.340 . S
C1423 N1422 1.321 . S
C1423 H1447 0.930 . S
H1424 C1419 0.931 . S
Co1425 N1422 2.135 . S
Co1425 N1428 2.121 . S
Co1425 O1433 2.055 . S
Co1425 O1436 2.039 . S
Co1425 N1439 2.140 . S
C1426 O1427 1.227 . S
C1426 O1436 1.265 . S
O1427 C1426 1.227 . S
N1428 Co1425 2.121 . S
N1428 C1430 1.375 1_556 S
N1428 C1431 1.313 1_556 S
C1429 C1430 1.338 . S
C1429 N1432 1.377 . S
C1429 H1449 0.930 . S
C1430 N1428 1.375 1_554 S
C1430 C1429 1.338 . S
C1430 H1434 0.931 . S
C1431 N1428 1.313 1_554 S
C1431 N1432 1.344 . S
C1431 H1435 0.930 1_554 S
N1432 C1429 1.377 . S
N1432 C1431 1.344 . S
O1433 Co1425 2.055 . S
O1433 C1437 1.253 . S
H1434 C1430 0.931 . S
H1435 C1431 0.930 1_556 S
O1436 Co1425 2.039 . S
O1436 C1426 1.265 . S
C1437 O1433 1.253 . S
C1437 O1438 1.227 . S
O1438 C1437 1.227 . S
N1439 Co1425 2.140 . S
N1439 C1442 1.346 . S
N1439 C1443 1.345 . S
C1440 C1441 1.387 . S
C1440 C1444 1.391 . S
C1441 C1440 1.387 . S
C1441 C1442 1.369 . S
C1441 H1450 0.929 . S
C1442 N1439 1.346 . S
C1442 C1441 1.369 . S
C1442 H1445 0.928 . S
C1443 N1439 1.345 . S
C1443 C1444 1.371 . S
C1443 H1446 0.931 . S
C1444 C1440 1.391 . S
C1444 C1443 1.371 . S
C1444 H1451 0.930 . S
H1445 C1442 0.928 . S
H1446 C1443 0.931 . S
H1447 C1423 0.930 . S
H1448 C1420 0.930 . S
H1449 C1429 0.930 . S
H1450 C1441 0.929 . S
H1451 C1444 0.930 . S
C1452 C1453 1.351 . S
C1452 N1455 1.368 . S
C1452 H1457 0.931 . S
C1453 C1452 1.351 . S
C1453 N1454 1.373 . S
C1453 H1481 0.930 . S
N1454 C1453 1.373 . S
N1454 C1456 1.340 . S
N1455 C1452 1.368 . S
N1455 C1456 1.321 . S
N1455 Co1458 2.135 . S
C1456 N1454 1.340 . S
C1456 N1455 1.321 . S
C1456 H1480 0.930 . S
H1457 C1452 0.931 . S
Co1458 N1455 2.135 . S
Co1458 N1461 2.121 . S
Co1458 O1466 2.055 . S
Co1458 O1469 2.039 . S
Co1458 N1472 2.155 . S
C1459 O1460 1.227 1_455 S
C1459 O1469 1.265 . S
O1460 C1459 1.227 1_655 S
N1461 Co1458 2.121 . S
N1461 C1463 1.375 . S
N1461 C1464 1.313 . S
C1462 C1463 1.338 . S
C1462 N1465 1.377 . S
C1462 H1482 0.930 . S
C1463 N1461 1.375 . S
C1463 C1462 1.338 . S
C1463 H1467 0.931 . S
C1464 N1461 1.313 . S
C1464 N1465 1.344 . S
C1464 H1468 0.930 . S
N1465 C1462 1.377 . S
N1465 C1464 1.344 . S
O1466 Co1458 2.055 . S
O1466 C1470 1.253 . S
H1467 C1463 0.931 . S
H1468 C1464 0.930 . S
O1469 Co1458 2.039 . S
O1469 C1459 1.265 . S
C1470 O1466 1.253 . S
C1470 O1471 1.227 . S
O1471 C1470 1.227 . S
N1472 Co1458 2.155 . S
N1472 C1475 1.330 1_455 S
N1472 C1476 1.346 . S
C1473 C1474 1.387 . S
C1473 C1477 1.391 . S
C1474 C1473 1.387 . S
C1474 C1475 1.369 . S
C1474 H1483 0.929 . S
C1475 N1472 1.330 1_655 S
C1475 C1474 1.369 . S
C1475 H1478 0.928 . S
C1476 N1472 1.346 . S
C1476 C1477 1.371 1_455 S
C1476 H1479 0.931 . S
C1477 C1473 1.391 . S
C1477 C1476 1.371 1_655 S
C1477 H1484 0.930 . S
H1478 C1475 0.928 . S
H1479 C1476 0.931 . S
H1480 C1456 0.930 . S
H1481 C1453 0.930 . S
H1482 C1462 0.930 . S
H1483 C1474 0.929 . S
H1484 C1477 0.930 . S
C1485 C1486 1.351 . S
C1485 N1488 1.368 . S
C1485 H1490 0.931 . S
C1486 C1485 1.351 . S
C1486 N1487 1.373 . S
C1486 H1514 0.930 . S
N1487 C1486 1.373 . S
N1487 C1489 1.340 . S
N1488 C1485 1.368 . S
N1488 C1489 1.321 . S
N1488 Co1491 2.135 . S
C1489 N1487 1.340 . S
C1489 N1488 1.321 . S
C1489 H1513 0.930 . S
H1490 C1485 0.931 . S
Co1491 N1488 2.135 . S
Co1491 N1494 2.121 . S
Co1491 O1499 2.055 . S
Co1491 O1502 2.039 . S
Co1491 N1505 2.140 . S
C1492 O1493 1.227 . S
C1492 O1502 1.265 . S
O1493 C1492 1.227 . S
N1494 Co1491 2.121 . S
N1494 C1496 1.375 1_554 S
N1494 C1497 1.313 1_554 S
C1495 C1496 1.338 . S
C1495 N1498 1.377 . S
C1495 H1515 0.930 . S
C1496 N1494 1.375 1_556 S
C1496 C1495 1.338 . S
C1496 H1500 0.931 . S
C1497 N1494 1.313 1_556 S
C1497 N1498 1.344 . S
C1497 H1501 0.930 1_556 S
N1498 C1495 1.377 . S
N1498 C1497 1.344 . S
O1499 Co1491 2.055 . S
O1499 C1503 1.253 . S
H1500 C1496 0.931 . S
H1501 C1497 0.930 1_554 S
O1502 Co1491 2.039 . S
O1502 C1492 1.265 . S
C1503 O1499 1.253 . S
C1503 O1504 1.227 . S
O1504 C1503 1.227 . S
N1505 Co1491 2.140 . S
N1505 C1508 1.346 . S
N1505 C1509 1.345 . S
C1506 C1507 1.387 . S
C1506 C1510 1.391 . S
C1507 C1506 1.387 . S
C1507 C1508 1.369 . S
C1507 H1516 0.929 . S
C1508 N1505 1.346 . S
C1508 C1507 1.369 . S
C1508 H1511 0.928 . S
C1509 N1505 1.345 . S
C1509 C1510 1.371 . S
C1509 H1512 0.931 . S
C1510 C1506 1.391 . S
C1510 C1509 1.371 . S
C1510 H1517 0.930 . S
H1511 C1508 0.928 . S
H1512 C1509 0.931 . S
H1513 C1489 0.930 . S
H1514 C1486 0.930 . S
H1515 C1495 0.930 . S
H1516 C1507 0.929 . S
H1517 C1510 0.930 . S
C1518 C1519 1.351 . S
C1518 N1521 1.368 . S
C1518 H1523 0.931 . S
C1519 C1518 1.351 . S
C1519 N1520 1.373 . S
C1519 H1547 0.930 . S
N1520 C1519 1.373 . S
N1520 C1522 1.340 . S
N1521 C1518 1.368 . S
N1521 C1522 1.321 . S
N1521 Co1524 2.135 . S
C1522 N1520 1.340 . S
C1522 N1521 1.321 . S
C1522 H1546 0.930 . S
H1523 C1518 0.931 . S
Co1524 N1521 2.135 . S
Co1524 N1527 2.121 . S
Co1524 O1532 2.055 . S
Co1524 O1535 2.039 . S
Co1524 N1538 2.140 . S
C1525 O1526 1.227 . S
C1525 O1535 1.265 . S
O1526 C1525 1.227 . S
N1527 Co1524 2.121 . S
N1527 C1529 1.375 . S
N1527 C1530 1.313 . S
C1528 C1529 1.338 . S
C1528 N1531 1.377 . S
C1528 H1548 0.930 . S
C1529 N1527 1.375 . S
C1529 C1528 1.338 . S
C1529 H1533 0.931 . S
C1530 N1527 1.313 . S
C1530 N1531 1.344 . S
C1530 H1534 0.930 . S
N1531 C1528 1.377 . S
N1531 C1530 1.344 . S
O1532 Co1524 2.055 . S
O1532 C1536 1.253 . S
H1533 C1529 0.931 . S
H1534 C1530 0.930 . S
O1535 Co1524 2.039 . S
O1535 C1525 1.265 . S
C1536 O1532 1.253 . S
C1536 O1537 1.227 . S
O1537 C1536 1.227 . S
N1538 Co1524 2.140 . S
N1538 C1541 1.346 . S
N1538 C1542 1.345 . S
C1539 C1540 1.387 . S
C1539 C1543 1.391 . S
C1540 C1539 1.387 . S
C1540 C1541 1.369 . S
C1540 H1549 0.929 . S
C1541 N1538 1.346 . S
C1541 C1540 1.369 . S
C1541 H1544 0.928 . S
C1542 N1538 1.345 . S
C1542 C1543 1.371 . S
C1542 H1545 0.931 . S
C1543 C1539 1.391 . S
C1543 C1542 1.371 . S
C1543 H1550 0.930 . S
H1544 C1541 0.928 . S
H1545 C1542 0.931 . S
H1546 C1522 0.930 . S
H1547 C1519 0.930 . S
H1548 C1528 0.930 . S
H1549 C1540 0.929 . S
H1550 C1543 0.930 . S
C1551 C1552 1.351 . S
C1551 N1554 1.368 . S
C1551 H1556 0.931 . S
C1552 C1551 1.351 . S
C1552 N1553 1.373 . S
C1552 H1580 0.930 . S
N1553 C1552 1.373 . S
N1553 C1555 1.340 . S
N1554 C1551 1.368 . S
N1554 C1555 1.321 . S
N1554 Co1557 2.135 . S
C1555 N1553 1.340 . S
C1555 N1554 1.321 . S
C1555 H1579 0.930 . S
H1556 C1551 0.931 . S
Co1557 N1554 2.135 . S
Co1557 N1560 2.121 . S
Co1557 O1565 2.055 . S
Co1557 O1568 2.039 . S
Co1557 N1571 2.140 . S
C1558 O1559 1.227 . S
C1558 O1568 1.265 . S
O1559 C1558 1.227 . S
N1560 Co1557 2.121 . S
N1560 C1562 1.375 . S
N1560 C1563 1.313 . S
C1561 C1562 1.338 . S
C1561 N1564 1.377 . S
C1561 H1581 0.930 . S
C1562 N1560 1.375 . S
C1562 C1561 1.338 . S
C1562 H1566 0.931 . S
C1563 N1560 1.313 . S
C1563 N1564 1.344 . S
C1563 H1567 0.930 . S
N1564 C1561 1.377 . S
N1564 C1563 1.344 . S
O1565 Co1557 2.055 . S
O1565 C1569 1.253 . S
H1566 C1562 0.931 . S
H1567 C1563 0.930 . S
O1568 Co1557 2.039 . S
O1568 C1558 1.265 . S
C1569 O1565 1.253 . S
C1569 O1570 1.227 . S
O1570 C1569 1.227 . S
N1571 Co1557 2.140 . S
N1571 C1574 1.346 . S
N1571 C1575 1.345 . S
C1572 C1573 1.387 . S
C1572 C1576 1.391 . S
C1573 C1572 1.387 . S
C1573 C1574 1.369 . S
C1573 H1582 0.929 . S
C1574 N1571 1.346 . S
C1574 C1573 1.369 . S
C1574 H1577 0.928 . S
C1575 N1571 1.345 . S
C1575 C1576 1.371 . S
C1575 H1578 0.931 . S
C1576 C1572 1.391 . S
C1576 C1575 1.371 . S
C1576 H1583 0.930 . S
H1577 C1574 0.928 . S
H1578 C1575 0.931 . S
H1579 C1555 0.930 . S
H1580 C1552 0.930 . S
H1581 C1561 0.930 . S
H1582 C1573 0.929 . S
H1583 C1576 0.930 . S
H1584 C1590 0.930 . S
H1585 C1594 0.930 . S
H1586 C1599 0.929 . S
H1587 C1597 0.929 . S
H1588 C1592 0.929 . S
H1589 C1598 0.929 . S
C1590 H1584 0.930 . S
C1590 C1591 1.367 . S
C1590 C1598 1.378 . S
C1591 C1590 1.367 . S
C1591 C1599 1.433 . S
C1592 H1588 0.929 . S
C1592 C1594 1.378 . S
C1592 C1596 1.350 . S
C1593 C1596 1.463 . S
C1593 C1598 1.350 . S
C1593 N1601 1.427 . S
C1594 H1585 0.930 . S
C1594 C1592 1.378 . S
C1594 C1595 1.367 . S
C1595 C1594 1.367 . S
C1595 C1597 1.433 . S
C1596 C1592 1.350 . S
C1596 C1593 1.463 . S
C1596 N1600 1.427 . S
C1597 H1587 0.929 . S
C1597 C1595 1.433 . S
C1597 N1600 1.384 . S
C1598 H1589 0.929 . S
C1598 C1590 1.378 . S
C1598 C1593 1.350 . S
C1599 H1586 0.929 . S
C1599 C1591 1.433 . S
C1599 N1601 1.384 . S
N1600 C1596 1.427 . S
N1600 C1597 1.384 . S
N1601 C1593 1.427 . S
N1601 C1599 1.384 . S
H1602 C1608 0.930 . S
H1603 C1612 0.930 . S
H1604 C1617 0.929 . S
H1605 C1615 0.929 . S
H1606 C1610 0.929 . S
H1607 C1616 0.929 . S
C1608 H1602 0.930 . S
C1608 C1609 1.367 . S
C1608 C1616 1.378 . S
C1609 C1608 1.367 . S
C1609 C1617 1.433 . S
C1610 H1606 0.929 . S
C1610 C1612 1.378 . S
C1610 C1614 1.350 . S
C1611 C1614 1.463 . S
C1611 C1616 1.350 . S
C1611 N1619 1.427 . S
C1612 H1603 0.930 . S
C1612 C1610 1.378 . S
C1612 C1613 1.367 . S
C1613 C1612 1.367 . S
C1613 C1615 1.433 . S
C1614 C1610 1.350 . S
C1614 C1611 1.463 . S
C1614 N1618 1.427 . S
C1615 H1605 0.929 . S
C1615 C1613 1.433 . S
C1615 N1618 1.384 . S
C1616 H1607 0.929 . S
C1616 C1608 1.378 . S
C1616 C1611 1.350 . S
C1617 H1604 0.929 . S
C1617 C1609 1.433 . S
C1617 N1619 1.384 . S
N1618 C1614 1.427 . S
N1618 C1615 1.384 . S
N1619 C1611 1.427 . S
N1619 C1617 1.384 . S
H1620 C1626 0.930 . S
H1621 C1630 0.930 . S
H1622 C1635 0.929 . S
H1623 C1633 0.929 . S
H1624 C1628 0.929 . S
H1625 C1634 0.929 . S
C1626 H1620 0.930 . S
C1626 C1627 1.367 . S
C1626 C1634 1.378 . S
C1627 C1626 1.367 . S
C1627 C1635 1.433 . S
C1628 H1624 0.929 . S
C1628 C1630 1.378 . S
C1628 C1632 1.350 . S
C1629 C1632 1.463 . S
C1629 C1634 1.350 . S
C1629 N1637 1.427 . S
C1630 H1621 0.930 . S
C1630 C1628 1.378 . S
C1630 C1631 1.367 . S
C1631 C1630 1.367 . S
C1631 C1633 1.433 . S
C1632 C1628 1.350 . S
C1632 C1629 1.463 . S
C1632 N1636 1.427 . S
C1633 H1623 0.929 . S
C1633 C1631 1.433 . S
C1633 N1636 1.384 . S
C1634 H1625 0.929 . S
C1634 C1626 1.378 . S
C1634 C1629 1.350 . S
C1635 H1622 0.929 . S
C1635 C1627 1.433 . S
C1635 N1637 1.384 . S
N1636 C1632 1.427 . S
N1636 C1633 1.384 . S
N1637 C1629 1.427 . S
N1637 C1635 1.384 . S
H1638 C1644 0.930 . S
H1639 C1648 0.930 . S
H1640 C1653 0.929 . S
H1641 C1651 0.929 . S
H1642 C1646 0.929 . S
H1643 C1652 0.929 . S
C1644 H1638 0.930 . S
C1644 C1645 1.367 . S
C1644 C1652 1.378 . S
C1645 C1644 1.367 . S
C1645 C1653 1.433 . S
C1646 H1642 0.929 . S
C1646 C1648 1.378 . S
C1646 C1650 1.350 . S
C1647 C1650 1.463 . S
C1647 C1652 1.350 . S
C1647 N1655 1.427 . S
C1648 H1639 0.930 . S
C1648 C1646 1.378 . S
C1648 C1649 1.367 . S
C1649 C1648 1.367 . S
C1649 C1651 1.433 . S
C1650 C1646 1.350 . S
C1650 C1647 1.463 . S
C1650 N1654 1.427 . S
C1651 H1641 0.929 . S
C1651 C1649 1.433 . S
C1651 N1654 1.384 . S
C1652 H1643 0.929 . S
C1652 C1644 1.378 . S
C1652 C1647 1.350 . S
C1653 H1640 0.929 . S
C1653 C1645 1.433 . S
C1653 N1655 1.384 . S
N1654 C1650 1.427 . S
N1654 C1651 1.384 . S
N1655 C1647 1.427 . S
N1655 C1653 1.384 . S
H1656 C1662 0.930 . S
H1657 C1666 0.930 . S
H1658 C1671 0.929 . S
H1659 C1669 0.929 . S
H1660 C1664 0.929 . S
H1661 C1670 0.929 . S
C1662 H1656 0.930 . S
C1662 C1663 1.367 . S
C1662 C1670 1.378 . S
C1663 C1662 1.367 . S
C1663 C1671 1.433 . S
C1664 H1660 0.929 . S
C1664 C1666 1.378 . S
C1664 C1668 1.350 . S
C1665 C1668 1.463 . S
C1665 C1670 1.350 . S
C1665 N1673 1.427 . S
C1666 H1657 0.930 . S
C1666 C1664 1.378 . S
C1666 C1667 1.367 . S
C1667 C1666 1.367 . S
C1667 C1669 1.433 . S
C1668 C1664 1.350 . S
C1668 C1665 1.463 . S
C1668 N1672 1.427 . S
C1669 H1659 0.929 . S
C1669 C1667 1.433 . S
C1669 N1672 1.384 . S
C1670 H1661 0.929 . S
C1670 C1662 1.378 . S
C1670 C1665 1.350 . S
C1671 H1658 0.929 . S
C1671 C1663 1.433 . S
C1671 N1673 1.384 . S
N1672 C1668 1.427 . S
N1672 C1669 1.384 . S
N1673 C1665 1.427 . S
N1673 C1671 1.384 . S
H1674 C1680 0.930 . S
H1675 C1684 0.930 . S
H1676 C1689 0.929 1_655 S
H1677 C1687 0.929 . S
H1678 C1682 0.929 . S
H1679 C1688 0.929 . S
C1680 H1674 0.930 . S
C1680 C1681 1.367 . S
C1680 C1688 1.378 . S
C1681 C1680 1.367 . S
C1681 C1689 1.433 . S
C1682 H1678 0.929 . S
C1682 C1684 1.378 . S
C1682 C1686 1.350 . S
C1683 C1686 1.463 . S
C1683 C1688 1.350 . S
C1683 N1691 1.427 . S
C1684 H1675 0.930 . S
C1684 C1682 1.378 . S
C1684 C1685 1.367 . S
C1685 C1684 1.367 . S
C1685 C1687 1.433 . S
C1686 C1682 1.350 . S
C1686 C1683 1.463 . S
C1686 N1690 1.427 . S
C1687 H1677 0.929 . S
C1687 C1685 1.433 . S
C1687 N1690 1.384 . S
C1688 H1679 0.929 . S
C1688 C1680 1.378 . S
C1688 C1683 1.350 . S
C1689 H1676 0.929 1_455 S
C1689 C1681 1.433 . S
C1689 N1691 1.384 . S
N1690 C1686 1.427 . S
N1690 C1687 1.384 . S
N1691 C1683 1.427 . S
N1691 C1689 1.384 . S
H1692 C1698 0.930 . S
H1693 C1702 0.896 1_455 S
H1694 C1707 0.929 . S
H1695 C1705 0.929 . S
H1696 C1700 0.929 . S
H1697 C1706 0.929 . S
C1698 H1692 0.930 . S
C1698 C1699 1.367 . S
C1698 C1706 1.378 . S
C1699 C1698 1.367 . S
C1699 C1707 1.433 . S
C1700 H1696 0.929 . S
C1700 C1702 1.378 . S
C1700 C1704 1.350 . S
C1701 C1704 1.463 . S
C1701 C1706 1.350 . S
C1701 N1709 1.427 . S
C1702 H1693 0.896 1_655 S
C1702 C1700 1.378 . S
C1702 C1703 1.367 . S
C1703 C1702 1.367 . S
C1703 C1705 1.433 . S
C1704 C1700 1.350 . S
C1704 C1701 1.463 . S
C1704 N1708 1.427 . S
C1705 H1695 0.929 . S
C1705 C1703 1.433 . S
C1705 N1708 1.384 . S
C1706 H1697 0.929 . S
C1706 C1698 1.378 . S
C1706 C1701 1.350 . S
C1707 H1694 0.929 . S
C1707 C1699 1.433 . S
C1707 N1709 1.384 . S
N1708 C1704 1.427 . S
N1708 C1705 1.384 . S
N1709 C1701 1.427 . S
N1709 C1707 1.384 . S
H1710 C1716 0.930 1_455 S
H1711 C1720 0.930 . S
H1712 C1725 0.929 . S
H1713 C1723 0.929 . S
H1714 C1718 0.929 . S
H1715 C1724 0.929 . S
C1716 H1710 0.930 1_655 S
C1716 C1717 1.367 . S
C1716 C1724 1.378 . S
C1717 C1716 1.367 . S
C1717 C1725 1.433 . S
C1718 H1714 0.929 . S
C1718 C1720 1.378 . S
C1718 C1722 1.350 . S
C1719 C1722 1.463 . S
C1719 C1724 1.350 . S
C1719 N1727 1.427 . S
C1720 H1711 0.930 . S
C1720 C1718 1.378 . S
C1720 C1721 1.367 . S
C1721 C1720 1.367 . S
C1721 C1723 1.433 . S
C1722 C1718 1.350 . S
C1722 C1719 1.463 . S
C1722 N1726 1.427 . S
C1723 H1713 0.929 . S
C1723 C1721 1.433 . S
C1723 N1726 1.384 . S
C1724 H1715 0.929 . S
C1724 C1716 1.378 . S
C1724 C1719 1.350 . S
C1725 H1712 0.929 . S
C1725 C1717 1.433 . S
C1725 N1727 1.384 . S
N1726 C1722 1.427 . S
N1726 C1723 1.384 . S
N1727 C1719 1.427 . S
N1727 C1725 1.384 . S
H1728 C1734 0.930 1_565 S
H1729 C1738 0.930 . S
H1730 C1743 0.929 . S
H1731 C1741 0.929 . S
H1732 C1736 0.929 . S
H1733 C1742 0.929 . S
C1734 H1728 0.930 1_545 S
C1734 C1735 1.367 . S
C1734 C1742 1.378 . S
C1735 C1734 1.367 . S
C1735 C1743 1.433 . S
C1736 H1732 0.929 . S
C1736 C1738 1.378 . S
C1736 C1740 1.350 . S
C1737 C1740 1.463 . S
C1737 C1742 1.350 . S
C1737 N1745 1.427 . S
C1738 H1729 0.930 . S
C1738 C1736 1.378 . S
C1738 C1739 1.367 . S
C1739 C1738 1.367 . S
C1739 C1741 1.433 . S
C1740 C1736 1.350 . S
C1740 C1737 1.463 . S
C1740 N1744 1.427 . S
C1741 H1731 0.929 . S
C1741 C1739 1.433 . S
C1741 N1744 1.384 . S
C1742 H1733 0.929 . S
C1742 C1734 1.378 . S
C1742 C1737 1.350 . S
C1743 H1730 0.929 . S
C1743 C1735 1.433 . S
C1743 N1745 1.384 . S
N1744 C1740 1.427 . S
N1744 C1741 1.384 . S
N1745 C1737 1.427 . S
N1745 C1743 1.384 . S
H1746 C1752 0.930 . S
H1747 C1756 0.930 . S
H1748 C1761 0.929 1_556 S
H1749 C1759 0.929 . S
H1750 C1754 0.929 . S
H1751 C1760 0.929 . S
C1752 H1746 0.930 . S
C1752 C1753 1.367 . S
C1752 C1760 1.378 . S
C1753 C1752 1.367 . S
C1753 C1761 1.433 . S
C1754 H1750 0.929 . S
C1754 C1756 1.378 . S
C1754 C1758 1.350 . S
C1755 C1758 1.463 . S
C1755 C1760 1.350 . S
C1755 N1763 1.427 . S
C1756 H1747 0.930 . S
C1756 C1754 1.378 . S
C1756 C1757 1.367 . S
C1757 C1756 1.367 . S
C1757 C1759 1.433 . S
C1758 C1754 1.350 . S
C1758 C1755 1.463 . S
C1758 N1762 1.427 . S
C1759 H1749 0.929 . S
C1759 C1757 1.433 . S
C1759 N1762 1.384 . S
C1760 H1751 0.929 . S
C1760 C1752 1.378 . S
C1760 C1755 1.350 . S
C1761 H1748 0.929 1_554 S
C1761 C1753 1.433 . S
C1761 N1763 1.384 . S
N1762 C1758 1.427 . S
N1762 C1759 1.384 . S
N1763 C1755 1.427 . S
N1763 C1761 1.384 . S
H1764 C1770 0.930 . S
H1765 C1774 0.930 . S
H1766 C1779 0.929 . S
H1767 C1777 0.929 . S
H1768 C1772 0.929 . S
H1769 C1778 0.929 . S
C1770 H1764 0.930 . S
C1770 C1771 1.367 . S
C1770 C1778 1.378 . S
C1771 C1770 1.367 . S
C1771 C1779 1.433 . S
C1772 H1768 0.929 . S
C1772 C1774 1.378 . S
C1772 C1776 1.350 . S
C1773 C1776 1.463 . S
C1773 C1778 1.350 . S
C1773 N1781 1.427 . S
C1774 H1765 0.930 . S
C1774 C1772 1.378 . S
C1774 C1775 1.367 . S
C1775 C1774 1.367 . S
C1775 C1777 1.433 . S
C1776 C1772 1.350 . S
C1776 C1773 1.463 . S
C1776 N1780 1.427 . S
C1777 H1767 0.929 . S
C1777 C1775 1.433 . S
C1777 N1780 1.384 . S
C1778 H1769 0.929 . S
C1778 C1770 1.378 . S
C1778 C1773 1.350 . S
C1779 H1766 0.929 . S
C1779 C1771 1.433 . S
C1779 N1781 1.384 . S
N1780 C1776 1.427 . S
N1780 C1777 1.384 . S
N1781 C1773 1.427 . S
N1781 C1779 1.384 . S
H1782 C1788 0.930 . S
H1783 C1792 0.930 . S
H1784 C1797 0.929 1_556 S
H1785 C1795 0.929 . S
H1786 C1790 0.929 . S
H1787 C1796 0.929 . S
C1788 H1782 0.930 . S
C1788 C1789 1.367 . S
C1788 C1796 1.378 . S
C1789 C1788 1.367 . S
C1789 C1797 1.433 . S
C1790 H1786 0.929 . S
C1790 C1792 1.378 . S
C1790 C1794 1.350 . S
C1791 C1794 1.463 . S
C1791 C1796 1.350 . S
C1791 N1799 1.427 . S
C1792 H1783 0.930 . S
C1792 C1790 1.378 . S
C1792 C1793 1.367 . S
C1793 C1792 1.367 . S
C1793 C1795 1.433 . S
C1794 C1790 1.350 . S
C1794 C1791 1.463 . S
C1794 N1798 1.427 . S
C1795 H1785 0.929 . S
C1795 C1793 1.433 . S
C1795 N1798 1.384 . S
C1796 H1787 0.929 . S
C1796 C1788 1.378 . S
C1796 C1791 1.350 . S
C1797 H1784 0.929 1_554 S
C1797 C1789 1.433 . S
C1797 N1799 1.384 . S
N1798 C1794 1.427 . S
N1798 C1795 1.384 . S
N1799 C1791 1.427 . S
N1799 C1797 1.384 . S
H1800 C1806 0.930 . S
H1801 C1810 0.930 . S
H1802 C1815 0.929 . S
H1803 C1813 0.929 . S
H1804 C1808 0.929 . S
H1805 C1814 0.929 . S
C1806 H1800 0.930 . S
C1806 C1807 1.367 . S
C1806 C1814 1.378 . S
C1807 C1806 1.367 . S
C1807 C1815 1.433 . S
C1808 H1804 0.929 . S
C1808 C1810 1.378 . S
C1808 C1812 1.350 . S
C1809 C1812 1.463 . S
C1809 C1814 1.350 . S
C1809 N1817 1.427 . S
C1810 H1801 0.930 . S
C1810 C1808 1.378 . S
C1810 C1811 1.367 . S
C1811 C1810 1.367 . S
C1811 C1813 1.433 . S
C1812 C1808 1.350 . S
C1812 C1809 1.463 . S
C1812 N1816 1.427 . S
C1813 H1803 0.929 . S
C1813 C1811 1.433 . S
C1813 N1816 1.384 . S
C1814 H1805 0.929 . S
C1814 C1806 1.378 . S
C1814 C1809 1.350 . S
C1815 H1802 0.929 . S
C1815 C1807 1.433 . S
C1815 N1817 1.384 . S
N1816 C1812 1.427 . S
N1816 C1813 1.384 . S
N1817 C1809 1.427 . S
N1817 C1815 1.384 . S
H1818 C1824 0.930 . S
H1819 C1828 0.930 . S
H1820 C1833 0.929 . S
H1821 C1831 0.929 . S
H1822 C1826 0.929 . S
H1823 C1832 0.929 . S
C1824 H1818 0.930 . S
C1824 C1825 1.367 . S
C1824 C1832 1.378 . S
C1825 C1824 1.367 . S
C1825 C1833 1.433 . S
C1826 H1822 0.929 . S
C1826 C1828 1.378 . S
C1826 C1830 1.350 . S
C1827 C1830 1.463 . S
C1827 C1832 1.350 . S
C1827 N1835 1.427 . S
C1828 H1819 0.930 . S
C1828 C1826 1.378 . S
C1828 C1829 1.367 . S
C1829 C1828 1.367 . S
C1829 C1831 1.433 . S
C1830 C1826 1.350 . S
C1830 C1827 1.463 . S
C1830 N1834 1.427 . S
C1831 H1821 0.929 . S
C1831 C1829 1.433 . S
C1831 N1834 1.384 . S
C1832 H1823 0.929 . S
C1832 C1824 1.378 . S
C1832 C1827 1.350 . S
C1833 H1820 0.929 . S
C1833 C1825 1.433 . S
C1833 N1835 1.384 . S
N1834 C1830 1.427 . S
N1834 C1831 1.384 . S
N1835 C1827 1.427 . S
N1835 C1833 1.384 . S
H1836 C1842 0.930 . S
H1837 C1846 0.930 . S
H1838 C1851 0.929 . S
H1839 C1849 0.929 . S
H1840 C1844 0.929 . S
H1841 C1850 0.929 . S
C1842 H1836 0.930 . S
C1842 C1843 1.367 . S
C1842 C1850 1.378 . S
C1843 C1842 1.367 . S
C1843 C1851 1.433 . S
C1844 H1840 0.929 . S
C1844 C1846 1.378 . S
C1844 C1848 1.350 . S
C1845 C1848 1.463 . S
C1845 C1850 1.350 . S
C1845 N1853 1.427 . S
C1846 H1837 0.930 . S
C1846 C1844 1.378 . S
C1846 C1847 1.367 . S
C1847 C1846 1.367 . S
C1847 C1849 1.433 . S
C1848 C1844 1.350 . S
C1848 C1845 1.463 . S
C1848 N1852 1.427 . S
C1849 H1839 0.929 . S
C1849 C1847 1.433 . S
C1849 N1852 1.384 . S
C1850 H1841 0.929 . S
C1850 C1842 1.378 . S
C1850 C1845 1.350 . S
C1851 H1838 0.929 . S
C1851 C1843 1.433 . S
C1851 N1853 1.384 . S
N1852 C1848 1.427 . S
N1852 C1849 1.384 . S
N1853 C1845 1.427 . S
N1853 C1851 1.384 . S
H1854 C1860 0.930 . S
H1855 C1864 0.930 . S
H1856 C1869 0.929 1_554 S
H1857 C1867 0.929 . S
H1858 C1862 0.929 . S
H1859 C1868 0.929 . S
C1860 H1854 0.930 . S
C1860 C1861 1.367 . S
C1860 C1868 1.378 . S
C1861 C1860 1.367 . S
C1861 C1869 1.433 . S
C1862 H1858 0.929 . S
C1862 C1864 1.378 . S
C1862 C1866 1.350 . S
C1863 C1866 1.463 . S
C1863 C1868 1.350 . S
C1863 N1871 1.427 . S
C1864 H1855 0.930 . S
C1864 C1862 1.378 . S
C1864 C1865 1.367 . S
C1865 C1864 1.367 . S
C1865 C1867 1.433 . S
C1866 C1862 1.350 . S
C1866 C1863 1.463 . S
C1866 N1870 1.427 . S
C1867 H1857 0.929 . S
C1867 C1865 1.433 . S
C1867 N1870 1.384 . S
C1868 H1859 0.929 . S
C1868 C1860 1.378 . S
C1868 C1863 1.350 . S
C1869 H1856 0.929 1_556 S
C1869 C1861 1.433 . S
C1869 N1871 1.384 . S
N1870 C1866 1.427 . S
N1870 C1867 1.384 . S
N1871 C1863 1.427 . S
N1871 C1869 1.384 . S
H1872 C1878 0.930 . S
H1873 C1882 0.930 . S
H1874 C1887 0.929 . S
H1875 C1885 0.929 . S
H1876 C1880 0.929 . S
H1877 C1886 0.929 . S
C1878 H1872 0.930 . S
C1878 C1879 1.367 . S
C1878 C1886 1.378 . S
C1879 C1878 1.367 . S
C1879 C1887 1.433 . S
C1880 H1876 0.929 . S
C1880 C1882 1.378 . S
C1880 C1884 1.350 . S
C1881 C1884 1.463 . S
C1881 C1886 1.350 . S
C1881 N1889 1.427 . S
C1882 H1873 0.930 . S
C1882 C1880 1.378 . S
C1882 C1883 1.367 . S
C1883 C1882 1.367 . S
C1883 C1885 1.433 . S
C1884 C1880 1.350 . S
C1884 C1881 1.463 . S
C1884 N1888 1.427 . S
C1885 H1875 0.929 . S
C1885 C1883 1.433 . S
C1885 N1888 1.384 . S
C1886 H1877 0.929 . S
C1886 C1878 1.378 . S
C1886 C1881 1.350 . S
C1887 H1874 0.929 . S
C1887 C1879 1.433 . S
C1887 N1889 1.384 . S
N1888 C1884 1.427 . S
N1888 C1885 1.384 . S
N1889 C1881 1.427 . S
N1889 C1887 1.384 . S
H1890 C1896 0.930 . S
H1891 C1900 0.930 . S
H1892 C1905 0.929 . S
H1893 C1903 0.929 . S
H1894 C1898 0.929 . S
H1895 C1904 0.929 . S
C1896 H1890 0.930 . S
C1896 C1897 1.367 . S
C1896 C1904 1.378 . S
C1897 C1896 1.367 . S
C1897 C1905 1.433 . S
C1898 H1894 0.929 . S
C1898 C1900 1.378 . S
C1898 C1902 1.350 . S
C1899 C1902 1.463 . S
C1899 C1904 1.350 . S
C1899 N1907 1.427 . S
C1900 H1891 0.930 . S
C1900 C1898 1.378 . S
C1900 C1901 1.367 . S
C1901 C1900 1.367 . S
C1901 C1903 1.433 . S
C1902 C1898 1.350 . S
C1902 C1899 1.463 . S
C1902 N1906 1.427 . S
C1903 H1893 0.929 . S
C1903 C1901 1.433 . S
C1903 N1906 1.384 . S
C1904 H1895 0.929 . S
C1904 C1896 1.378 . S
C1904 C1899 1.350 . S
C1905 H1892 0.929 . S
C1905 C1897 1.433 . S
C1905 N1907 1.384 . S
N1906 C1902 1.427 . S
N1906 C1903 1.384 . S
N1907 C1899 1.427 . S
N1907 C1905 1.384 . S
H1908 C1914 0.930 . S
H1909 C1918 0.930 . S
H1910 C1923 0.929 . S
H1911 C1921 0.929 . S
H1912 C1916 0.929 . S
H1913 C1922 0.929 . S
C1914 H1908 0.930 . S
C1914 C1915 1.367 . S
C1914 C1922 1.378 . S
C1915 C1914 1.367 . S
C1915 C1923 1.433 . S
C1916 H1912 0.929 . S
C1916 C1918 1.378 . S
C1916 C1920 1.350 . S
C1917 C1920 1.463 . S
C1917 C1922 1.350 . S
C1917 N1925 1.427 . S
C1918 H1909 0.930 . S
C1918 C1916 1.378 . S
C1918 C1919 1.367 . S
C1919 C1918 1.367 . S
C1919 C1921 1.433 . S
C1920 C1916 1.350 . S
C1920 C1917 1.463 . S
C1920 N1924 1.427 . S
C1921 H1911 0.929 . S
C1921 C1919 1.433 . S
C1921 N1924 1.384 . S
C1922 H1913 0.929 . S
C1922 C1914 1.378 . S
C1922 C1917 1.350 . S
C1923 H1910 0.929 . S
C1923 C1915 1.433 . S
C1923 N1925 1.384 . S
N1924 C1920 1.427 . S
N1924 C1921 1.384 . S
N1925 C1917 1.427 . S
N1925 C1923 1.384 . S
H1926 C1932 0.930 . S
H1927 C1936 0.930 . S
H1928 C1941 0.929 . S
H1929 C1939 0.929 . S
H1930 C1934 0.929 . S
H1931 C1940 0.929 . S
C1932 H1926 0.930 . S
C1932 C1933 1.367 . S
C1932 C1940 1.378 . S
C1933 C1932 1.367 . S
C1933 C1941 1.433 . S
C1934 H1930 0.929 . S
C1934 C1936 1.378 . S
C1934 C1938 1.350 . S
C1935 C1938 1.463 . S
C1935 C1940 1.350 . S
C1935 N1943 1.427 . S
C1936 H1927 0.930 . S
C1936 C1934 1.378 . S
C1936 C1937 1.367 . S
C1937 C1936 1.367 . S
C1937 C1939 1.433 . S
C1938 C1934 1.350 . S
C1938 C1935 1.463 . S
C1938 N1942 1.427 . S
C1939 H1929 0.929 . S
C1939 C1937 1.433 . S
C1939 N1942 1.384 . S
C1940 H1931 0.929 . S
C1940 C1932 1.378 . S
C1940 C1935 1.350 . S
C1941 H1928 0.929 . S
C1941 C1933 1.433 . S
C1941 N1943 1.384 . S
N1942 C1938 1.427 . S
N1942 C1939 1.384 . S
N1943 C1935 1.427 . S
N1943 C1941 1.384 . S
H1944 C1950 0.930 . S
H1945 C1954 0.930 . S
H1946 C1959 0.929 . S
H1947 C1957 0.929 . S
H1948 C1952 0.929 . S
H1949 C1958 0.929 . S
C1950 H1944 0.930 . S
C1950 C1951 1.367 . S
C1950 C1958 1.378 . S
C1951 C1950 1.367 . S
C1951 C1959 1.433 . S
C1952 H1948 0.929 . S
C1952 C1954 1.378 . S
C1952 C1956 1.350 . S
C1953 C1956 1.463 . S
C1953 C1958 1.350 . S
C1953 N1961 1.427 . S
C1954 H1945 0.930 . S
C1954 C1952 1.378 . S
C1954 C1955 1.367 . S
C1955 C1954 1.367 . S
C1955 C1957 1.433 . S
C1956 C1952 1.350 . S
C1956 C1953 1.463 . S
C1956 N1960 1.427 . S
C1957 H1947 0.929 . S
C1957 C1955 1.433 . S
C1957 N1960 1.384 . S
C1958 H1949 0.929 . S
C1958 C1950 1.378 . S
C1958 C1953 1.350 . S
C1959 H1946 0.929 . S
C1959 C1951 1.433 . S
C1959 N1961 1.384 . S
N1960 C1956 1.427 . S
N1960 C1957 1.384 . S
N1961 C1953 1.427 . S
N1961 C1959 1.384 . S
H1962 C1968 0.930 . S
H1963 C1972 0.930 . S
H1964 C1977 0.929 . S
H1965 C1975 0.929 . S
H1966 C1970 0.929 . S
H1967 C1976 0.929 . S
C1968 H1962 0.930 . S
C1968 C1969 1.367 . S
C1968 C1976 1.378 . S
C1969 C1968 1.367 . S
C1969 C1977 1.433 . S
C1970 H1966 0.929 . S
C1970 C1972 1.378 . S
C1970 C1974 1.350 . S
C1971 C1974 1.463 . S
C1971 C1976 1.350 . S
C1971 N1979 1.427 . S
C1972 H1963 0.930 . S
C1972 C1970 1.378 . S
C1972 C1973 1.367 . S
C1973 C1972 1.367 . S
C1973 C1975 1.433 . S
C1974 C1970 1.350 . S
C1974 C1971 1.463 . S
C1974 N1978 1.427 . S
C1975 H1965 0.929 . S
C1975 C1973 1.433 . S
C1975 N1978 1.384 . S
C1976 H1967 0.929 . S
C1976 C1968 1.378 . S
C1976 C1971 1.350 . S
C1977 H1964 0.929 . S
C1977 C1969 1.433 . S
C1977 N1979 1.384 . S
N1978 C1974 1.427 . S
N1978 C1975 1.384 . S
N1979 C1971 1.427 . S
N1979 C1977 1.384 . S
H1980 C1986 0.930 . S
H1981 C1990 0.930 . S
H1982 C1995 0.929 . S
H1983 C1993 0.929 . S
H1984 C1988 0.929 . S
H1985 C1994 0.929 . S
C1986 H1980 0.930 . S
C1986 C1987 1.367 . S
C1986 C1994 1.378 . S
C1987 C1986 1.367 . S
C1987 C1995 1.433 . S
C1988 H1984 0.929 . S
C1988 C1990 1.378 . S
C1988 C1992 1.350 . S
C1989 C1992 1.463 . S
C1989 C1994 1.350 . S
C1989 N1997 1.427 . S
C1990 H1981 0.930 . S
C1990 C1988 1.378 . S
C1990 C1991 1.367 . S
C1991 C1990 1.367 . S
C1991 C1993 1.433 . S
C1992 C1988 1.350 . S
C1992 C1989 1.463 . S
C1992 N1996 1.427 . S
C1993 H1983 0.929 . S
C1993 C1991 1.433 . S
C1993 N1996 1.384 . S
C1994 H1985 0.929 . S
C1994 C1986 1.378 . S
C1994 C1989 1.350 . S
C1995 H1982 0.929 . S
C1995 C1987 1.433 . S
C1995 N1997 1.384 . S
N1996 C1992 1.427 . S
N1996 C1993 1.384 . S
N1997 C1989 1.427 . S
N1997 C1995 1.384 . S
H1998 C2004 0.930 . S
H1999 C2008 0.930 . S
H2000 C2013 0.929 . S
H2001 C2011 0.929 1_565 S
H2002 C2006 0.929 . S
H2003 C2012 0.929 . S
C2004 H1998 0.930 . S
C2004 C2005 1.367 . S
C2004 C2012 1.378 . S
C2005 C2004 1.367 . S
C2005 C2013 1.433 . S
C2006 H2002 0.929 . S
C2006 C2008 1.378 . S
C2006 C2010 1.350 . S
C2007 C2010 1.463 . S
C2007 C2012 1.350 . S
C2007 N2015 1.427 . S
C2008 H1999 0.930 . S
C2008 C2006 1.378 . S
C2008 C2009 1.367 . S
C2009 C2008 1.367 . S
C2009 C2011 1.433 . S
C2010 C2006 1.350 . S
C2010 C2007 1.463 . S
C2010 N2014 1.427 . S
C2011 H2001 0.929 1_545 S
C2011 C2009 1.433 . S
C2011 N2014 1.384 . S
C2012 H2003 0.929 . S
C2012 C2004 1.378 . S
C2012 C2007 1.350 . S
C2013 H2000 0.929 . S
C2013 C2005 1.433 . S
C2013 N2015 1.384 . S
N2014 C2010 1.427 . S
N2014 C2011 1.384 . S
N2015 C2007 1.427 . S
N2015 C2013 1.384 . S
H2016 C2022 0.930 . S
H2017 C2026 0.930 . S
H2018 C2031 0.929 . S
H2019 C2029 0.929 . S
H2020 C2024 0.929 . S
H2021 C2030 0.929 . S
C2022 H2016 0.930 . S
C2022 C2023 1.367 . S
C2022 C2030 1.378 . S
C2023 C2022 1.367 . S
C2023 C2031 1.433 . S
C2024 H2020 0.929 . S
C2024 C2026 1.378 . S
C2024 C2028 1.350 . S
C2025 C2028 1.463 . S
C2025 C2030 1.350 . S
C2025 N2033 1.427 . S
C2026 H2017 0.930 . S
C2026 C2024 1.378 . S
C2026 C2027 1.367 . S
C2027 C2026 1.367 . S
C2027 C2029 1.433 . S
C2028 C2024 1.350 . S
C2028 C2025 1.463 . S
C2028 N2032 1.427 . S
C2029 H2019 0.929 . S
C2029 C2027 1.433 . S
C2029 N2032 1.384 . S
C2030 H2021 0.929 . S
C2030 C2022 1.378 . S
C2030 C2025 1.350 . S
C2031 H2018 0.929 . S
C2031 C2023 1.433 . S
C2031 N2033 1.384 . S
N2032 C2028 1.427 . S
N2032 C2029 1.384 . S
N2033 C2025 1.427 . S
N2033 C2031 1.384 . S
H2034 C2040 0.930 . S
H2035 C2044 0.930 1_455 S
H2036 C2049 0.929 . S
H2037 C2047 0.929 . S
H2038 C2042 0.929 . S
H2039 C2048 0.929 . S
C2040 H2034 0.930 . S
C2040 C2041 1.367 . S
C2040 C2048 1.378 . S
C2041 C2040 1.367 . S
C2041 C2049 1.433 . S
C2042 H2038 0.929 . S
C2042 C2044 1.378 . S
C2042 C2046 1.350 . S
C2043 C2046 1.463 . S
C2043 C2048 1.350 . S
C2043 N2051 1.427 . S
C2044 H2035 0.930 1_655 S
C2044 C2042 1.378 . S
C2044 C2045 1.367 . S
C2045 C2044 1.367 . S
C2045 C2047 1.433 . S
C2046 C2042 1.350 . S
C2046 C2043 1.463 . S
C2046 N2050 1.427 . S
C2047 H2037 0.929 . S
C2047 C2045 1.433 . S
C2047 N2050 1.384 . S
C2048 H2039 0.929 . S
C2048 C2040 1.378 . S
C2048 C2043 1.350 . S
C2049 H2036 0.929 . S
C2049 C2041 1.433 . S
C2049 N2051 1.384 . S
N2050 C2046 1.427 . S
N2050 C2047 1.384 . S
N2051 C2043 1.427 . S
N2051 C2049 1.384 . S
H2052 C2058 0.930 . S
H2053 C2062 0.930 . S
H2054 C2067 0.929 . S
H2055 C2065 0.929 . S
H2056 C2060 0.929 . S
H2057 C2066 0.929 . S
C2058 H2052 0.930 . S
C2058 C2059 1.367 . S
C2058 C2066 1.378 . S
C2059 C2058 1.367 . S
C2059 C2067 1.433 . S
C2060 H2056 0.929 . S
C2060 C2062 1.378 . S
C2060 C2064 1.350 . S
C2061 C2064 1.463 . S
C2061 C2066 1.350 . S
C2061 N2069 1.427 . S
C2062 H2053 0.930 . S
C2062 C2060 1.378 . S
C2062 C2063 1.367 . S
C2063 C2062 1.367 . S
C2063 C2065 1.433 . S
C2064 C2060 1.350 . S
C2064 C2061 1.463 . S
C2064 N2068 1.427 . S
C2065 H2055 0.929 . S
C2065 C2063 1.433 . S
C2065 N2068 1.384 . S
C2066 H2057 0.929 . S
C2066 C2058 1.378 . S
C2066 C2061 1.350 . S
C2067 H2054 0.929 . S
C2067 C2059 1.433 . S
C2067 N2069 1.384 . S
N2068 C2064 1.427 . S
N2068 C2065 1.384 . S
N2069 C2061 1.427 . S
N2069 C2067 1.384 . S
H2070 C2076 0.930 . S
H2071 C2080 0.930 . S
H2072 C2085 0.929 . S
H2073 C2083 0.929 . S
H2074 C2078 0.929 . S
H2075 C2084 0.929 . S
C2076 H2070 0.930 . S
C2076 C2077 1.367 . S
C2076 C2084 1.378 . S
C2077 C2076 1.367 . S
C2077 C2085 1.433 . S
C2078 H2074 0.929 . S
C2078 C2080 1.378 . S
C2078 C2082 1.350 . S
C2079 C2082 1.463 . S
C2079 C2084 1.350 . S
C2079 N2087 1.427 . S
C2080 H2071 0.930 . S
C2080 C2078 1.378 . S
C2080 C2081 1.367 . S
C2081 C2080 1.367 . S
C2081 C2083 1.433 . S
C2082 C2078 1.350 . S
C2082 C2079 1.463 . S
C2082 N2086 1.427 . S
C2083 H2073 0.929 . S
C2083 C2081 1.433 . S
C2083 N2086 1.384 . S
C2084 H2075 0.929 . S
C2084 C2076 1.378 . S
C2084 C2079 1.350 . S
C2085 H2072 0.929 . S
C2085 C2077 1.433 . S
C2085 N2087 1.384 . S
N2086 C2082 1.427 . S
N2086 C2083 1.384 . S
N2087 C2079 1.427 . S
N2087 C2085 1.384 . S
H2088 C2094 0.930 . S
H2089 C2098 0.930 . S
H2090 C2103 0.929 . S
H2091 C2101 0.929 . S
H2092 C2096 0.929 . S
H2093 C2102 0.929 . S
C2094 H2088 0.930 . S
C2094 C2095 1.367 . S
C2094 C2102 1.378 . S
C2095 C2094 1.367 . S
C2095 C2103 1.433 . S
C2096 H2092 0.929 . S
C2096 C2098 1.378 . S
C2096 C2100 1.350 . S
C2097 C2100 1.463 . S
C2097 C2102 1.350 . S
C2097 N2105 1.427 . S
C2098 H2089 0.930 . S
C2098 C2096 1.378 . S
C2098 C2099 1.367 . S
C2099 C2098 1.367 . S
C2099 C2101 1.433 . S
C2100 C2096 1.350 . S
C2100 C2097 1.463 . S
C2100 N2104 1.427 . S
C2101 H2091 0.929 . S
C2101 C2099 1.433 . S
C2101 N2104 1.384 . S
C2102 H2093 0.929 . S
C2102 C2094 1.378 . S
C2102 C2097 1.350 . S
C2103 H2090 0.929 . S
C2103 C2095 1.433 . S
C2103 N2105 1.384 . S
N2104 C2100 1.427 . S
N2104 C2101 1.384 . S
N2105 C2097 1.427 . S
N2105 C2103 1.384 . S
H2106 C2112 0.930 . S
H2107 C2116 0.930 . S
H2108 C2121 0.929 . S
H2109 C2119 0.929 . S
H2110 C2114 0.929 . S
H2111 C2120 0.929 . S
C2112 H2106 0.930 . S
C2112 C2113 1.367 . S
C2112 C2120 1.378 . S
C2113 C2112 1.367 . S
C2113 C2121 1.433 . S
C2114 H2110 0.929 . S
C2114 C2116 1.378 . S
C2114 C2118 1.350 . S
C2115 C2118 1.463 . S
C2115 C2120 1.350 . S
C2115 N2123 1.427 . S
C2116 H2107 0.930 . S
C2116 C2114 1.378 . S
C2116 C2117 1.367 . S
C2117 C2116 1.367 . S
C2117 C2119 1.433 . S
C2118 C2114 1.350 . S
C2118 C2115 1.463 . S
C2118 N2122 1.427 . S
C2119 H2109 0.929 . S
C2119 C2117 1.433 . S
C2119 N2122 1.384 . S
C2120 H2111 0.929 . S
C2120 C2112 1.378 . S
C2120 C2115 1.350 . S
C2121 H2108 0.929 . S
C2121 C2113 1.433 . S
C2121 N2123 1.384 . S
N2122 C2118 1.427 . S
N2122 C2119 1.384 . S
N2123 C2115 1.427 . S
N2123 C2121 1.384 . S
H2124 C2130 0.930 . S
H2125 C2134 0.930 . S
H2126 C2139 0.929 . S
H2127 C2137 0.929 . S
H2128 C2132 0.929 . S
H2129 C2138 0.929 . S
C2130 H2124 0.930 . S
C2130 C2131 1.367 . S
C2130 C2138 1.378 . S
C2131 C2130 1.367 . S
C2131 C2139 1.433 . S
C2132 H2128 0.929 . S
C2132 C2134 1.378 . S
C2132 C2136 1.350 . S
C2133 C2136 1.463 . S
C2133 C2138 1.350 . S
C2133 N2141 1.427 . S
C2134 H2125 0.930 . S
C2134 C2132 1.378 . S
C2134 C2135 1.367 . S
C2135 C2134 1.367 . S
C2135 C2137 1.433 . S
C2136 C2132 1.350 . S
C2136 C2133 1.463 . S
C2136 N2140 1.427 . S
C2137 H2127 0.929 . S
C2137 C2135 1.433 . S
C2137 N2140 1.384 . S
C2138 H2129 0.929 . S
C2138 C2130 1.378 . S
C2138 C2133 1.350 . S
C2139 H2126 0.929 . S
C2139 C2131 1.433 . S
C2139 N2141 1.384 . S
N2140 C2136 1.427 . S
N2140 C2137 1.384 . S
N2141 C2133 1.427 . S
N2141 C2139 1.384 . S
H2142 C2148 0.930 . S
H2143 C2152 0.930 . S
H2144 C2157 0.929 . S
H2145 C2155 0.929 . S
H2146 C2150 0.929 . S
H2147 C2156 0.929 . S
C2148 H2142 0.930 . S
C2148 C2149 1.367 . S
C2148 C2156 1.378 . S
C2149 C2148 1.367 . S
C2149 C2157 1.433 . S
C2150 H2146 0.929 . S
C2150 C2152 1.378 . S
C2150 C2154 1.350 . S
C2151 C2154 1.463 . S
C2151 C2156 1.350 . S
C2151 N2159 1.427 . S
C2152 H2143 0.930 . S
C2152 C2150 1.378 . S
C2152 C2153 1.367 . S
C2153 C2152 1.367 . S
C2153 C2155 1.433 . S
C2154 C2150 1.350 . S
C2154 C2151 1.463 . S
C2154 N2158 1.427 . S
C2155 H2145 0.929 . S
C2155 C2153 1.433 . S
C2155 N2158 1.384 . S
C2156 H2147 0.929 . S
C2156 C2148 1.378 . S
C2156 C2151 1.350 . S
C2157 H2144 0.929 . S
C2157 C2149 1.433 . S
C2157 N2159 1.384 . S
N2158 C2154 1.427 . S
N2158 C2155 1.384 . S
N2159 C2151 1.427 . S
N2159 C2157 1.384 . S
H2160 C2166 0.930 . S
H2161 C2170 0.930 . S
H2162 C2175 0.929 . S
H2163 C2173 0.929 . S
H2164 C2168 0.929 . S
H2165 C2174 0.929 . S
C2166 H2160 0.930 . S
C2166 C2167 1.367 . S
C2166 C2174 1.378 . S
C2167 C2166 1.367 . S
C2167 C2175 1.433 . S
C2168 H2164 0.929 . S
C2168 C2170 1.378 . S
C2168 C2172 1.350 . S
C2169 C2172 1.463 . S
C2169 C2174 1.350 . S
C2169 N2177 1.427 . S
C2170 H2161 0.930 . S
C2170 C2168 1.378 . S
C2170 C2171 1.367 . S
C2171 C2170 1.367 . S
C2171 C2173 1.433 . S
C2172 C2168 1.350 . S
C2172 C2169 1.463 . S
C2172 N2176 1.427 . S
C2173 H2163 0.929 . S
C2173 C2171 1.433 . S
C2173 N2176 1.384 . S
C2174 H2165 0.929 . S
C2174 C2166 1.378 . S
C2174 C2169 1.350 . S
C2175 H2162 0.929 . S
C2175 C2167 1.433 . S
C2175 N2177 1.384 . S
N2176 C2172 1.427 . S
N2176 C2173 1.384 . S
N2177 C2169 1.427 . S
N2177 C2175 1.384 . S
H2178 C2184 0.930 . S
H2179 C2188 0.930 . S
H2180 C2193 0.929 . S
H2181 C2191 0.929 . S
H2182 C2186 0.929 . S
H2183 C2192 0.929 . S
C2184 H2178 0.930 . S
C2184 C2185 1.367 . S
C2184 C2192 1.378 . S
C2185 C2184 1.367 . S
C2185 C2193 1.433 . S
C2186 H2182 0.929 . S
C2186 C2188 1.378 . S
C2186 C2190 1.350 . S
C2187 C2190 1.463 . S
C2187 C2192 1.350 . S
C2187 N2195 1.427 . S
C2188 H2179 0.930 . S
C2188 C2186 1.378 . S
C2188 C2189 1.367 . S
C2189 C2188 1.367 . S
C2189 C2191 1.433 . S
C2190 C2186 1.350 . S
C2190 C2187 1.463 . S
C2190 N2194 1.427 . S
C2191 H2181 0.929 . S
C2191 C2189 1.433 . S
C2191 N2194 1.384 . S
C2192 H2183 0.929 . S
C2192 C2184 1.378 . S
C2192 C2187 1.350 . S
C2193 H2180 0.929 . S
C2193 C2185 1.433 . S
C2193 N2195 1.384 . S
N2194 C2190 1.427 . S
N2194 C2191 1.384 . S
N2195 C2187 1.427 . S
N2195 C2193 1.384 . S
H2196 C2202 0.930 1_545 S
H2197 C2206 0.930 . S
H2198 C2211 0.929 . S
H2199 C2209 0.929 . S
H2200 C2204 0.929 . S
H2201 C2210 0.929 . S
C2202 H2196 0.930 1_565 S
C2202 C2203 1.367 . S
C2202 C2210 1.378 . S
C2203 C2202 1.367 . S
C2203 C2211 1.433 . S
C2204 H2200 0.929 . S
C2204 C2206 1.378 . S
C2204 C2208 1.350 . S
C2205 C2208 1.463 . S
C2205 C2210 1.350 . S
C2205 N2213 1.427 . S
C2206 H2197 0.930 . S
C2206 C2204 1.378 . S
C2206 C2207 1.367 . S
C2207 C2206 1.367 . S
C2207 C2209 1.433 . S
C2208 C2204 1.350 . S
C2208 C2205 1.463 . S
C2208 N2212 1.427 . S
C2209 H2199 0.929 . S
C2209 C2207 1.433 . S
C2209 N2212 1.384 . S
C2210 H2201 0.929 . S
C2210 C2202 1.378 . S
C2210 C2205 1.350 . S
C2211 H2198 0.929 . S
C2211 C2203 1.433 . S
C2211 N2213 1.384 . S
N2212 C2208 1.427 . S
N2212 C2209 1.384 . S
N2213 C2205 1.427 . S
N2213 C2211 1.384 . S
H2214 C2220 0.930 . S
H2215 C2224 0.930 . S
H2216 C2229 0.929 . S
H2217 C2227 0.929 . S
H2218 C2222 0.929 . S
H2219 C2228 0.929 . S
C2220 H2214 0.930 . S
C2220 C2221 1.367 . S
C2220 C2228 1.378 . S
C2221 C2220 1.367 . S
C2221 C2229 1.433 . S
C2222 H2218 0.929 . S
C2222 C2224 1.378 . S
C2222 C2226 1.350 . S
C2223 C2226 1.463 . S
C2223 C2228 1.350 . S
C2223 N2231 1.427 . S
C2224 H2215 0.930 . S
C2224 C2222 1.378 . S
C2224 C2225 1.367 . S
C2225 C2224 1.367 . S
C2225 C2227 1.433 . S
C2226 C2222 1.350 . S
C2226 C2223 1.463 . S
C2226 N2230 1.427 . S
C2227 H2217 0.929 . S
C2227 C2225 1.433 . S
C2227 N2230 1.384 . S
C2228 H2219 0.929 . S
C2228 C2220 1.378 . S
C2228 C2223 1.350 . S
C2229 H2216 0.929 . S
C2229 C2221 1.433 . S
C2229 N2231 1.384 . S
N2230 C2226 1.427 . S
N2230 C2227 1.384 . S
N2231 C2223 1.427 . S
N2231 C2229 1.384 . S
H2232 C2238 0.930 . S
H2233 C2242 0.930 . S
H2234 C2247 0.929 . S
H2235 C2245 0.929 . S
H2236 C2240 0.929 . S
H2237 C2246 0.929 . S
C2238 H2232 0.930 . S
C2238 C2239 1.367 . S
C2238 C2246 1.378 . S
C2239 C2238 1.367 . S
C2239 C2247 1.433 . S
C2240 H2236 0.929 . S
C2240 C2242 1.378 . S
C2240 C2244 1.350 . S
C2241 C2244 1.463 . S
C2241 C2246 1.350 . S
C2241 N2249 1.427 . S
C2242 H2233 0.930 . S
C2242 C2240 1.378 . S
C2242 C2243 1.367 . S
C2243 C2242 1.367 . S
C2243 C2245 1.433 . S
C2244 C2240 1.350 . S
C2244 C2241 1.463 . S
C2244 N2248 1.427 . S
C2245 H2235 0.929 . S
C2245 C2243 1.433 . S
C2245 N2248 1.384 . S
C2246 H2237 0.929 . S
C2246 C2238 1.378 . S
C2246 C2241 1.350 . S
C2247 H2234 0.929 . S
C2247 C2239 1.433 . S
C2247 N2249 1.384 . S
N2248 C2244 1.427 . S
N2248 C2245 1.384 . S
N2249 C2241 1.427 . S
N2249 C2247 1.384 . S
H2250 C2256 0.930 . S
H2251 C2260 0.930 . S
H2252 C2265 0.929 . S
H2253 C2263 0.929 . S
H2254 C2258 0.929 . S
H2255 C2264 0.929 . S
C2256 H2250 0.930 . S
C2256 C2257 1.367 . S
C2256 C2264 1.378 . S
C2257 C2256 1.367 . S
C2257 C2265 1.433 . S
C2258 H2254 0.929 . S
C2258 C2260 1.378 . S
C2258 C2262 1.350 . S
C2259 C2262 1.463 . S
C2259 C2264 1.350 . S
C2259 N2267 1.427 . S
C2260 H2251 0.930 . S
C2260 C2258 1.378 . S
C2260 C2261 1.367 . S
C2261 C2260 1.367 . S
C2261 C2263 1.433 . S
C2262 C2258 1.350 . S
C2262 C2259 1.463 . S
C2262 N2266 1.427 . S
C2263 H2253 0.929 . S
C2263 C2261 1.433 . S
C2263 N2266 1.384 . S
C2264 H2255 0.929 . S
C2264 C2256 1.378 . S
C2264 C2259 1.350 . S
C2265 H2252 0.929 . S
C2265 C2257 1.433 . S
C2265 N2267 1.384 . S
N2266 C2262 1.427 . S
N2266 C2263 1.384 . S
N2267 C2259 1.427 . S
N2267 C2265 1.384 . S
H2268 C2274 0.930 . S
H2269 C2278 0.930 . S
H2270 C2283 0.929 . S
H2271 C2281 0.929 . S
H2272 C2276 0.929 . S
H2273 C2282 0.929 . S
C2274 H2268 0.930 . S
C2274 C2275 1.367 . S
C2274 C2282 1.378 . S
C2275 C2274 1.367 . S
C2275 C2283 1.433 . S
C2276 H2272 0.929 . S
C2276 C2278 1.378 . S
C2276 C2280 1.350 . S
C2277 C2280 1.463 . S
C2277 C2282 1.350 . S
C2277 N2285 1.427 . S
C2278 H2269 0.930 . S
C2278 C2276 1.378 . S
C2278 C2279 1.367 . S
C2279 C2278 1.367 . S
C2279 C2281 1.433 . S
C2280 C2276 1.350 . S
C2280 C2277 1.463 . S
C2280 N2284 1.427 . S
C2281 H2271 0.929 . S
C2281 C2279 1.433 . S
C2281 N2284 1.384 . S
C2282 H2273 0.929 . S
C2282 C2274 1.378 . S
C2282 C2277 1.350 . S
C2283 H2270 0.929 . S
C2283 C2275 1.433 . S
C2283 N2285 1.384 . S
N2284 C2280 1.427 . S
N2284 C2281 1.384 . S
N2285 C2277 1.427 . S
N2285 C2283 1.384 . S
H2286 C2292 0.930 . S
H2287 C2296 0.930 . S
H2288 C2301 0.929 . S
H2289 C2299 0.929 . S
H2290 C2294 0.929 . S
H2291 C2300 0.929 . S
C2292 H2286 0.930 . S
C2292 C2293 1.367 . S
C2292 C2300 1.378 . S
C2293 C2292 1.367 . S
C2293 C2301 1.433 . S
C2294 H2290 0.929 . S
C2294 C2296 1.378 . S
C2294 C2298 1.350 . S
C2295 C2298 1.463 . S
C2295 C2300 1.350 . S
C2295 N2303 1.427 . S
C2296 H2287 0.930 . S
C2296 C2294 1.378 . S
C2296 C2297 1.367 . S
C2297 C2296 1.367 . S
C2297 C2299 1.433 . S
C2298 C2294 1.350 . S
C2298 C2295 1.463 . S
C2298 N2302 1.427 . S
C2299 H2289 0.929 . S
C2299 C2297 1.433 . S
C2299 N2302 1.384 . S
C2300 H2291 0.929 . S
C2300 C2292 1.378 . S
C2300 C2295 1.350 . S
C2301 H2288 0.929 . S
C2301 C2293 1.433 . S
C2301 N2303 1.384 . S
N2302 C2298 1.427 . S
N2302 C2299 1.384 . S
N2303 C2295 1.427 . S
N2303 C2301 1.384 . S
H2304 C2310 0.930 . S
H2305 C2314 0.930 . S
H2306 C2319 0.929 . S
H2307 C2317 0.929 . S
H2308 C2312 0.929 . S
H2309 C2318 0.929 . S
C2310 H2304 0.930 . S
C2310 C2311 1.367 . S
C2310 C2318 1.378 . S
C2311 C2310 1.367 . S
C2311 C2319 1.433 . S
C2312 H2308 0.929 . S
C2312 C2314 1.378 . S
C2312 C2316 1.350 . S
C2313 C2316 1.463 . S
C2313 C2318 1.350 . S
C2313 N2321 1.427 . S
C2314 H2305 0.930 . S
C2314 C2312 1.378 . S
C2314 C2315 1.367 . S
C2315 C2314 1.367 . S
C2315 C2317 1.433 . S
C2316 C2312 1.350 . S
C2316 C2313 1.463 . S
C2316 N2320 1.427 . S
C2317 H2307 0.929 . S
C2317 C2315 1.433 . S
C2317 N2320 1.384 . S
C2318 H2309 0.929 . S
C2318 C2310 1.378 . S
C2318 C2313 1.350 . S
C2319 H2306 0.929 . S
C2319 C2311 1.433 . S
C2319 N2321 1.384 . S
N2320 C2316 1.427 . S
N2320 C2317 1.384 . S
N2321 C2313 1.427 . S
N2321 C2319 1.384 . S
H2322 C2328 0.930 . S
H2323 C2332 0.930 . S
H2324 C2337 0.929 . S
H2325 C2335 0.929 . S
H2326 C2330 0.929 . S
H2327 C2336 0.929 . S
C2328 H2322 0.930 . S
C2328 C2329 1.367 . S
C2328 C2336 1.378 . S
C2329 C2328 1.367 . S
C2329 C2337 1.433 . S
C2330 H2326 0.929 . S
C2330 C2332 1.378 . S
C2330 C2334 1.350 . S
C2331 C2334 1.463 . S
C2331 C2336 1.350 . S
C2331 N2339 1.427 . S
C2332 H2323 0.930 . S
C2332 C2330 1.378 . S
C2332 C2333 1.367 . S
C2333 C2332 1.367 . S
C2333 C2335 1.433 . S
C2334 C2330 1.350 . S
C2334 C2331 1.463 . S
C2334 N2338 1.427 . S
C2335 H2325 0.929 . S
C2335 C2333 1.433 . S
C2335 N2338 1.384 . S
C2336 H2327 0.929 . S
C2336 C2328 1.378 . S
C2336 C2331 1.350 . S
C2337 H2324 0.929 . S
C2337 C2329 1.433 . S
C2337 N2339 1.384 . S
N2338 C2334 1.427 . S
N2338 C2335 1.384 . S
N2339 C2331 1.427 . S
N2339 C2337 1.384 . S
H2340 C2346 0.930 1_565 S
H2341 C2350 0.930 . S
H2342 C2355 0.929 . S
H2343 C2353 0.929 . S
H2344 C2348 0.929 . S
H2345 C2354 0.929 . S
C2346 H2340 0.930 1_545 S
C2346 C2347 1.367 . S
C2346 C2354 1.378 . S
C2347 C2346 1.367 . S
C2347 C2355 1.433 . S
C2348 H2344 0.929 . S
C2348 C2350 1.378 . S
C2348 C2352 1.350 . S
C2349 C2352 1.463 . S
C2349 C2354 1.350 . S
C2349 N2357 1.427 . S
C2350 H2341 0.930 . S
C2350 C2348 1.378 . S
C2350 C2351 1.367 . S
C2351 C2350 1.367 . S
C2351 C2353 1.433 . S
C2352 C2348 1.350 . S
C2352 C2349 1.463 . S
C2352 N2356 1.427 . S
C2353 H2343 0.929 . S
C2353 C2351 1.433 . S
C2353 N2356 1.384 . S
C2354 H2345 0.929 . S
C2354 C2346 1.378 . S
C2354 C2349 1.350 . S
C2355 H2342 0.929 . S
C2355 C2347 1.433 . S
C2355 N2357 1.384 . S
N2356 C2352 1.427 . S
N2356 C2353 1.384 . S
N2357 C2349 1.427 . S
N2357 C2355 1.384 . S
H2358 C2364 0.930 . S
H2359 C2368 0.930 . S
H2360 C2373 0.929 . S
H2361 C2371 0.929 . S
H2362 C2366 0.929 . S
H2363 C2372 0.929 . S
C2364 H2358 0.930 . S
C2364 C2365 1.367 . S
C2364 C2372 1.378 . S
C2365 C2364 1.367 . S
C2365 C2373 1.433 . S
C2366 H2362 0.929 . S
C2366 C2368 1.378 . S
C2366 C2370 1.350 . S
C2367 C2370 1.463 . S
C2367 C2372 1.350 . S
C2367 N2375 1.427 . S
C2368 H2359 0.930 . S
C2368 C2366 1.378 . S
C2368 C2369 1.367 . S
C2369 C2368 1.367 . S
C2369 C2371 1.433 . S
C2370 C2366 1.350 . S
C2370 C2367 1.463 . S
C2370 N2374 1.427 . S
C2371 H2361 0.929 . S
C2371 C2369 1.433 . S
C2371 N2374 1.384 . S
C2372 H2363 0.929 . S
C2372 C2364 1.378 . S
C2372 C2367 1.350 . S
C2373 H2360 0.929 . S
C2373 C2365 1.433 . S
C2373 N2375 1.384 . S
N2374 C2370 1.427 . S
N2374 C2371 1.384 . S
N2375 C2367 1.427 . S
N2375 C2373 1.384 . S
H2376 C2382 0.930 . S
H2377 C2386 0.930 . S
H2378 C2391 0.929 . S
H2379 C2389 0.904 1_545 S
H2380 C2384 0.929 . S
H2381 C2390 0.929 . S
C2382 H2376 0.930 . S
C2382 C2383 1.367 . S
C2382 C2390 1.378 . S
C2383 C2382 1.367 . S
C2383 C2391 1.433 . S
C2384 H2380 0.929 . S
C2384 C2386 1.378 . S
C2384 C2388 1.350 . S
C2385 C2388 1.463 . S
C2385 C2390 1.350 . S
C2385 N2393 1.427 . S
C2386 H2377 0.930 . S
C2386 C2384 1.378 . S
C2386 C2387 1.367 . S
C2387 C2386 1.367 . S
C2387 C2389 1.433 . S
C2388 C2384 1.350 . S
C2388 C2385 1.463 . S
C2388 N2392 1.427 . S
C2389 H2379 0.904 1_565 S
C2389 C2387 1.433 . S
C2389 N2392 1.384 . S
C2390 H2381 0.929 . S
C2390 C2382 1.378 . S
C2390 C2385 1.350 . S
C2391 H2378 0.929 . S
C2391 C2383 1.433 . S
C2391 N2393 1.384 . S
N2392 C2388 1.427 . S
N2392 C2389 1.384 . S
N2393 C2385 1.427 . S
N2393 C2391 1.384 . S
H2394 C2400 0.930 . S
H2395 C2404 0.930 . S
H2396 C2409 0.929 . S
H2397 C2407 0.929 . S
H2398 C2402 0.929 . S
H2399 C2408 0.929 . S
C2400 H2394 0.930 . S
C2400 C2401 1.367 . S
C2400 C2408 1.378 . S
C2401 C2400 1.367 . S
C2401 C2409 1.433 . S
C2402 H2398 0.929 . S
C2402 C2404 1.378 . S
C2402 C2406 1.350 . S
C2403 C2406 1.463 . S
C2403 C2408 1.350 . S
C2403 N2411 1.427 . S
C2404 H2395 0.930 . S
C2404 C2402 1.378 . S
C2404 C2405 1.367 . S
C2405 C2404 1.367 . S
C2405 C2407 1.433 . S
C2406 C2402 1.350 . S
C2406 C2403 1.463 . S
C2406 N2410 1.427 . S
C2407 H2397 0.929 . S
C2407 C2405 1.433 . S
C2407 N2410 1.384 . S
C2408 H2399 0.929 . S
C2408 C2400 1.378 . S
C2408 C2403 1.350 . S
C2409 H2396 0.929 . S
C2409 C2401 1.433 . S
C2409 N2411 1.384 . S
N2410 C2406 1.427 . S
N2410 C2407 1.384 . S
N2411 C2403 1.427 . S
N2411 C2409 1.384 . S
H2412 C2418 0.930 . S
H2413 C2422 0.930 . S
H2414 C2427 0.929 . S
H2415 C2425 0.929 1_545 S
H2416 C2420 0.929 . S
H2417 C2426 0.929 . S
C2418 H2412 0.930 . S
C2418 C2419 1.367 . S
C2418 C2426 1.378 . S
C2419 C2418 1.367 . S
C2419 C2427 1.433 . S
C2420 H2416 0.929 . S
C2420 C2422 1.378 . S
C2420 C2424 1.350 . S
C2421 C2424 1.463 . S
C2421 C2426 1.350 . S
C2421 N2429 1.427 . S
C2422 H2413 0.930 . S
C2422 C2420 1.378 . S
C2422 C2423 1.367 . S
C2423 C2422 1.367 . S
C2423 C2425 1.433 . S
C2424 C2420 1.350 . S
C2424 C2421 1.463 . S
C2424 N2428 1.427 . S
C2425 H2415 0.929 1_565 S
C2425 C2423 1.433 . S
C2425 N2428 1.384 . S
C2426 H2417 0.929 . S
C2426 C2418 1.378 . S
C2426 C2421 1.350 . S
C2427 H2414 0.929 . S
C2427 C2419 1.433 . S
C2427 N2429 1.384 . S
N2428 C2424 1.427 . S
N2428 C2425 1.384 . S
N2429 C2421 1.427 . S
N2429 C2427 1.384 . S
H2430 C2436 0.930 . S
H2431 C2440 0.930 . S
H2432 C2445 0.929 . S
H2433 C2443 0.929 . S
H2434 C2438 0.929 . S
H2435 C2444 0.929 . S
C2436 H2430 0.930 . S
C2436 C2437 1.367 . S
C2436 C2444 1.378 . S
C2437 C2436 1.367 . S
C2437 C2445 1.433 . S
C2438 H2434 0.929 . S
C2438 C2440 1.378 . S
C2438 C2442 1.350 . S
C2439 C2442 1.463 . S
C2439 C2444 1.350 . S
C2439 N2447 1.427 . S
C2440 H2431 0.930 . S
C2440 C2438 1.378 . S
C2440 C2441 1.367 . S
C2441 C2440 1.367 . S
C2441 C2443 1.433 . S
C2442 C2438 1.350 . S
C2442 C2439 1.463 . S
C2442 N2446 1.427 . S
C2443 H2433 0.929 . S
C2443 C2441 1.433 . S
C2443 N2446 1.384 . S
C2444 H2435 0.929 . S
C2444 C2436 1.378 . S
C2444 C2439 1.350 . S
C2445 H2432 0.929 . S
C2445 C2437 1.433 . S
C2445 N2447 1.384 . S
N2446 C2442 1.427 . S
N2446 C2443 1.384 . S
N2447 C2439 1.427 . S
N2447 C2445 1.384 . S
H2448 C2454 0.930 . S
H2449 C2458 0.930 . S
H2450 C2463 0.929 . S
H2451 C2461 0.929 . S
H2452 C2456 0.929 . S
H2453 C2462 0.929 . S
C2454 H2448 0.930 . S
C2454 C2455 1.367 . S
C2454 C2462 1.378 . S
C2455 C2454 1.367 . S
C2455 C2463 1.433 . S
C2456 H2452 0.929 . S
C2456 C2458 1.378 . S
C2456 C2460 1.350 . S
C2457 C2460 1.463 1_545 S
C2457 C2462 1.350 . S
C2457 N2465 1.427 . S
C2458 H2449 0.930 . S
C2458 C2456 1.378 . S
C2458 C2459 1.367 . S
C2459 C2458 1.367 . S
C2459 C2461 1.433 . S
C2460 C2456 1.350 . S
C2460 C2457 1.463 1_565 S
C2460 N2464 1.427 . S
C2461 H2451 0.929 . S
C2461 C2459 1.433 . S
C2461 N2464 1.384 . S
C2462 H2453 0.929 . S
C2462 C2454 1.378 . S
C2462 C2457 1.350 . S
C2463 H2450 0.929 . S
C2463 C2455 1.433 . S
C2463 N2465 1.384 . S
N2464 C2460 1.427 . S
N2464 C2461 1.384 . S
N2465 C2457 1.427 . S
N2465 C2463 1.384 . S
H2466 C2472 0.930 . S
H2467 C2476 0.930 . S
H2468 C2481 0.929 . S
H2469 C2479 0.929 . S
H2470 C2474 0.918 1_556 S
H2471 C2480 0.929 1_554 S
C2472 H2466 0.930 . S
C2472 C2473 1.367 . S
C2472 C2480 1.378 . S
C2473 C2472 1.367 . S
C2473 C2481 1.433 . S
C2474 H2470 0.918 1_554 S
C2474 C2476 1.378 . S
C2474 C2478 1.350 . S
C2475 C2478 1.463 1_556 S
C2475 C2480 1.350 . S
C2475 N2483 1.427 . S
C2476 H2467 0.930 . S
C2476 C2474 1.378 . S
C2476 C2477 1.367 . S
C2477 C2476 1.367 . S
C2477 C2479 1.433 . S
C2478 C2474 1.350 . S
C2478 C2475 1.463 1_554 S
C2478 N2482 1.427 . S
C2479 H2469 0.929 . S
C2479 C2477 1.433 . S
C2479 N2482 1.384 . S
C2480 H2471 0.929 1_556 S
C2480 C2472 1.378 . S
C2480 C2475 1.350 . S
C2481 H2468 0.929 . S
C2481 C2473 1.433 . S
C2481 N2483 1.384 . S
N2482 C2478 1.427 . S
N2482 C2479 1.384 . S
N2483 C2475 1.427 . S
N2483 C2481 1.384 . S
H2484 C2490 0.930 . S
H2485 C2494 0.930 . S
H2486 C2499 0.929 . S
H2487 C2497 0.929 . S
H2488 C2492 0.929 . S
H2489 C2498 0.929 . S
C2490 H2484 0.930 . S
C2490 C2491 1.367 . S
C2490 C2498 1.378 . S
C2491 C2490 1.367 . S
C2491 C2499 1.433 1_655 S
C2492 H2488 0.929 . S
C2492 C2494 1.378 . S
C2492 C2496 1.350 1_455 S
C2493 C2496 1.463 . S
C2493 C2498 1.350 . S
C2493 N2501 1.427 1_655 S
C2494 H2485 0.930 . S
C2494 C2492 1.378 . S
C2494 C2495 1.367 1_455 S
C2495 C2494 1.367 1_655 S
C2495 C2497 1.433 . S
C2496 C2492 1.350 1_655 S
C2496 C2493 1.463 . S
C2496 N2500 1.427 . S
C2497 H2487 0.929 . S
C2497 C2495 1.433 . S
C2497 N2500 1.384 . S
C2498 H2489 0.929 . S
C2498 C2490 1.378 . S
C2498 C2493 1.350 . S
C2499 H2486 0.929 . S
C2499 C2491 1.433 1_455 S
C2499 N2501 1.384 . S
N2500 C2496 1.427 . S
N2500 C2497 1.384 . S
N2501 C2493 1.427 1_455 S
N2501 C2499 1.384 . S
H2502 C2508 0.930 . S
H2503 C2512 0.930 . S
H2504 C2517 0.929 . S
H2505 C2515 0.929 . S
H2506 C2510 0.929 . S
H2507 C2516 0.929 . S
C2508 H2502 0.930 . S
C2508 C2509 1.367 1_556 S
C2508 C2516 1.378 . S
C2509 C2508 1.367 1_554 S
C2509 C2517 1.433 . S
C2510 H2506 0.929 . S
C2510 C2512 1.378 . S
C2510 C2514 1.350 1_554 S
C2511 C2514 1.463 1_554 S
C2511 C2516 1.350 1_554 S
C2511 N2519 1.427 . S
C2512 H2503 0.930 . S
C2512 C2510 1.378 . S
C2512 C2513 1.367 1_554 S
C2513 C2512 1.367 1_556 S
C2513 C2515 1.433 . S
C2514 C2510 1.350 1_556 S
C2514 C2511 1.463 1_556 S
C2514 N2518 1.427 . S
C2515 H2505 0.929 . S
C2515 C2513 1.433 . S
C2515 N2518 1.384 . S
C2516 H2507 0.929 . S
C2516 C2508 1.378 . S
C2516 C2511 1.350 1_556 S
C2517 H2504 0.929 . S
C2517 C2509 1.433 . S
C2517 N2519 1.384 . S
N2518 C2514 1.427 . S
N2518 C2515 1.384 . S
N2519 C2511 1.427 . S
N2519 C2517 1.384 . S
H2520 C2526 0.930 . S
H2521 C2530 0.930 . S
H2522 C2535 0.929 . S
H2523 C2533 0.929 . S
H2524 C2528 0.929 . S
H2525 C2534 0.929 . S
C2526 H2520 0.930 . S
C2526 C2527 1.367 . S
C2526 C2534 1.378 . S
C2527 C2526 1.367 . S
C2527 C2535 1.433 . S
C2528 H2524 0.929 . S
C2528 C2530 1.378 . S
C2528 C2532 1.350 . S
C2529 C2532 1.463 1_556 S
C2529 C2534 1.350 . S
C2529 N2537 1.427 . S
C2530 H2521 0.930 . S
C2530 C2528 1.378 . S
C2530 C2531 1.367 . S
C2531 C2530 1.367 . S
C2531 C2533 1.433 . S
C2532 C2528 1.350 . S
C2532 C2529 1.463 1_554 S
C2532 N2536 1.427 . S
C2533 H2523 0.929 . S
C2533 C2531 1.433 . S
C2533 N2536 1.384 . S
C2534 H2525 0.929 . S
C2534 C2526 1.378 . S
C2534 C2529 1.350 . S
C2535 H2522 0.929 . S
C2535 C2527 1.433 . S
C2535 N2537 1.384 . S
N2536 C2532 1.427 . S
N2536 C2533 1.384 . S
N2537 C2529 1.427 . S
N2537 C2535 1.384 . S
H2538 C2544 0.930 . S
H2539 C2548 0.930 . S
H2540 C2553 0.929 . S
H2541 C2551 0.929 . S
H2542 C2546 0.929 . S
H2543 C2552 0.929 . S
C2544 H2538 0.930 . S
C2544 C2545 1.367 . S
C2544 C2552 1.378 . S
C2545 C2544 1.367 . S
C2545 C2553 1.433 . S
C2546 H2542 0.929 . S
C2546 C2548 1.378 . S
C2546 C2550 1.350 . S
C2547 C2550 1.463 . S
C2547 C2552 1.350 . S
C2547 N2555 1.427 . S
C2548 H2539 0.930 . S
C2548 C2546 1.378 . S
C2548 C2549 1.367 . S
C2549 C2548 1.367 . S
C2549 C2551 1.433 . S
C2550 C2546 1.350 . S
C2550 C2547 1.463 . S
C2550 N2554 1.427 . S
C2551 H2541 0.929 . S
C2551 C2549 1.433 . S
C2551 N2554 1.384 . S
C2552 H2543 0.929 . S
C2552 C2544 1.378 . S
C2552 C2547 1.350 . S
C2553 H2540 0.929 . S
C2553 C2545 1.433 . S
C2553 N2555 1.384 . S
N2554 C2550 1.427 . S
N2554 C2551 1.384 . S
N2555 C2547 1.427 . S
N2555 C2553 1.384 . S
H2556 C2562 0.930 . S
H2557 C2566 0.930 . S
H2558 C2571 0.929 . S
H2559 C2569 0.929 . S
H2560 C2564 0.929 . S
H2561 C2570 0.929 . S
C2562 H2556 0.930 . S
C2562 C2563 1.367 . S
C2562 C2570 1.378 . S
C2563 C2562 1.367 . S
C2563 C2571 1.433 . S
C2564 H2560 0.929 . S
C2564 C2566 1.378 . S
C2564 C2568 1.350 . S
C2565 C2568 1.463 1_556 S
C2565 C2570 1.350 . S
C2565 N2573 1.427 . S
C2566 H2557 0.930 . S
C2566 C2564 1.378 . S
C2566 C2567 1.367 . S
C2567 C2566 1.367 . S
C2567 C2569 1.433 . S
C2568 C2564 1.350 . S
C2568 C2565 1.463 1_554 S
C2568 N2572 1.427 . S
C2569 H2559 0.929 . S
C2569 C2567 1.433 . S
C2569 N2572 1.384 . S
C2570 H2561 0.929 . S
C2570 C2562 1.378 . S
C2570 C2565 1.350 . S
C2571 H2558 0.929 . S
C2571 C2563 1.433 . S
C2571 N2573 1.384 . S
N2572 C2568 1.427 . S
N2572 C2569 1.384 . S
N2573 C2565 1.427 . S
N2573 C2571 1.384 . S
H2574 C2580 0.930 . S
H2575 C2584 0.930 . S
H2576 C2589 0.929 . S
H2577 C2587 0.929 . S
H2578 C2582 0.929 . S
H2579 C2588 0.929 . S
C2580 H2574 0.930 . S
C2580 C2581 1.367 1_565 S
C2580 C2588 1.378 . S
C2581 C2580 1.367 1_545 S
C2581 C2589 1.433 . S
C2582 H2578 0.929 . S
C2582 C2584 1.378 . S
C2582 C2586 1.350 1_545 S
C2583 C2586 1.463 1_545 S
C2583 C2588 1.350 1_545 S
C2583 N2591 1.427 . S
C2584 H2575 0.930 . S
C2584 C2582 1.378 . S
C2584 C2585 1.367 1_545 S
C2585 C2584 1.367 1_565 S
C2585 C2587 1.433 . S
C2586 C2582 1.350 1_565 S
C2586 C2583 1.463 1_565 S
C2586 N2590 1.427 . S
C2587 H2577 0.929 . S
C2587 C2585 1.433 . S
C2587 N2590 1.384 . S
C2588 H2579 0.929 . S
C2588 C2580 1.378 . S
C2588 C2583 1.350 1_565 S
C2589 H2576 0.929 . S
C2589 C2581 1.433 . S
C2589 N2591 1.384 . S
N2590 C2586 1.427 . S
N2590 C2587 1.384 . S
N2591 C2583 1.427 . S
N2591 C2589 1.384 . S
H2592 C2598 0.930 . S
H2593 C2602 0.930 1_545 S
H2594 C2607 0.929 1_545 S
H2595 C2605 0.929 . S
H2596 C2600 0.929 1_545 S
H2597 C2606 0.929 . S
C2598 H2592 0.930 . S
C2598 C2599 1.367 . S
C2598 C2606 1.378 . S
C2599 C2598 1.367 . S
C2599 C2607 1.433 . S
C2600 H2596 0.929 1_565 S
C2600 C2602 1.378 . S
C2600 C2604 1.350 . S
C2601 C2604 1.463 . S
C2601 C2606 1.350 . S
C2601 N2609 1.427 . S
C2602 H2593 0.930 1_565 S
C2602 C2600 1.378 . S
C2602 C2603 1.367 . S
C2603 C2602 1.367 . S
C2603 C2605 1.433 . S
C2604 C2600 1.350 . S
C2604 C2601 1.463 . S
C2604 N2608 1.427 . S
C2605 H2595 0.929 . S
C2605 C2603 1.433 . S
C2605 N2608 1.384 . S
C2606 H2597 0.929 . S
C2606 C2598 1.378 . S
C2606 C2601 1.350 . S
C2607 H2594 0.929 1_565 S
C2607 C2599 1.433 . S
C2607 N2609 1.384 . S
N2608 C2604 1.427 . S
N2608 C2605 1.384 . S
N2609 C2601 1.427 . S
N2609 C2607 1.384 . S
H2610 C2616 0.930 . S
H2611 C2620 0.930 . S
H2612 C2625 0.929 . S
H2613 C2623 0.929 . S
H2614 C2618 0.929 . S
H2615 C2624 0.929 . S
C2616 H2610 0.930 . S
C2616 C2617 1.367 . S
C2616 C2624 1.378 . S
C2617 C2616 1.367 . S
C2617 C2625 1.433 . S
C2618 H2614 0.929 . S
C2618 C2620 1.378 . S
C2618 C2622 1.350 . S
C2619 C2622 1.463 . S
C2619 C2624 1.350 . S
C2619 N2627 1.427 . S
C2620 H2611 0.930 . S
C2620 C2618 1.378 . S
C2620 C2621 1.367 . S
C2621 C2620 1.367 . S
C2621 C2623 1.433 . S
C2622 C2618 1.350 . S
C2622 C2619 1.463 . S
C2622 N2626 1.427 . S
C2623 H2613 0.929 . S
C2623 C2621 1.433 . S
C2623 N2626 1.384 . S
C2624 H2615 0.929 . S
C2624 C2616 1.378 . S
C2624 C2619 1.350 . S
C2625 H2612 0.929 . S
C2625 C2617 1.433 . S
C2625 N2627 1.384 . S
N2626 C2622 1.427 . S
N2626 C2623 1.384 . S
N2627 C2619 1.427 . S
N2627 C2625 1.384 . S
H2628 C2634 0.930 . S
H2629 C2638 0.930 . S
H2630 C2643 0.929 . S
H2631 C2641 0.929 . S
H2632 C2636 0.929 . S
H2633 C2642 0.929 . S
C2634 H2628 0.930 . S
C2634 C2635 1.367 . S
C2634 C2642 1.378 . S
C2635 C2634 1.367 . S
C2635 C2643 1.433 . S
C2636 H2632 0.929 . S
C2636 C2638 1.378 . S
C2636 C2640 1.350 . S
C2637 C2640 1.463 . S
C2637 C2642 1.350 . S
C2637 N2645 1.427 . S
C2638 H2629 0.930 . S
C2638 C2636 1.378 . S
C2638 C2639 1.367 . S
C2639 C2638 1.367 . S
C2639 C2641 1.433 . S
C2640 C2636 1.350 . S
C2640 C2637 1.463 . S
C2640 N2644 1.427 . S
C2641 H2631 0.929 . S
C2641 C2639 1.433 . S
C2641 N2644 1.384 . S
C2642 H2633 0.929 . S
C2642 C2634 1.378 . S
C2642 C2637 1.350 . S
C2643 H2630 0.929 . S
C2643 C2635 1.433 . S
C2643 N2645 1.384 . S
N2644 C2640 1.427 . S
N2644 C2641 1.384 . S
N2645 C2637 1.427 . S
N2645 C2643 1.384 . S
H2646 C2652 0.930 . S
H2647 C2656 0.930 . S
H2648 C2661 0.929 . S
H2649 C2659 0.929 . S
H2650 C2654 0.929 . S
H2651 C2660 0.929 . S
C2652 H2646 0.930 . S
C2652 C2653 1.367 . S
C2652 C2660 1.378 . S
C2653 C2652 1.367 . S
C2653 C2661 1.433 1_545 S
C2654 H2650 0.929 . S
C2654 C2656 1.378 . S
C2654 C2658 1.350 . S
C2655 C2658 1.463 1_545 S
C2655 C2660 1.350 . S
C2655 N2663 1.427 1_545 S
C2656 H2647 0.930 . S
C2656 C2654 1.378 . S
C2656 C2657 1.367 . S
C2657 C2656 1.367 . S
C2657 C2659 1.433 1_565 S
C2658 C2654 1.350 . S
C2658 C2655 1.463 1_565 S
C2658 N2662 1.427 1_565 S
C2659 H2649 0.929 . S
C2659 C2657 1.433 1_545 S
C2659 N2662 1.384 . S
C2660 H2651 0.929 . S
C2660 C2652 1.378 . S
C2660 C2655 1.350 . S
C2661 H2648 0.929 . S
C2661 C2653 1.433 1_565 S
C2661 N2663 1.384 . S
N2662 C2658 1.427 1_545 S
N2662 C2659 1.384 . S
N2663 C2655 1.427 1_565 S
N2663 C2661 1.384 . S
H2664 C2670 0.930 . S
H2665 C2674 0.930 1_556 S
H2666 C2679 0.929 1_556 S
H2667 C2677 0.929 . S
H2668 C2672 0.929 1_556 S
H2669 C2678 0.929 . S
C2670 H2664 0.930 . S
C2670 C2671 1.367 . S
C2670 C2678 1.378 . S
C2671 C2670 1.367 . S
C2671 C2679 1.433 . S
C2672 H2668 0.929 1_554 S
C2672 C2674 1.378 . S
C2672 C2676 1.350 . S
C2673 C2676 1.463 1_655 S
C2673 C2678 1.350 . S
C2673 N2681 1.427 . S
C2674 H2665 0.930 1_554 S
C2674 C2672 1.378 . S
C2674 C2675 1.367 . S
C2675 C2674 1.367 . S
C2675 C2677 1.433 . S
C2676 C2672 1.350 . S
C2676 C2673 1.463 1_455 S
C2676 N2680 1.427 . S
C2677 H2667 0.929 . S
C2677 C2675 1.433 . S
C2677 N2680 1.384 . S
C2678 H2669 0.929 . S
C2678 C2670 1.378 . S
C2678 C2673 1.350 . S
C2679 H2666 0.929 1_554 S
C2679 C2671 1.433 . S
C2679 N2681 1.384 . S
N2680 C2676 1.427 . S
N2680 C2677 1.384 . S
N2681 C2673 1.427 . S
N2681 C2679 1.384 . S
H2682 C2688 0.930 . S
H2683 C2692 0.930 . S
H2684 C2697 0.929 . S
H2685 C2695 0.929 . S
H2686 C2690 0.929 . S
H2687 C2696 0.929 . S
C2688 H2682 0.930 . S
C2688 C2689 1.367 . S
C2688 C2696 1.378 . S
C2689 C2688 1.367 . S
C2689 C2697 1.433 . S
C2690 H2686 0.929 . S
C2690 C2692 1.378 . S
C2690 C2694 1.350 . S
C2691 C2694 1.463 1_655 S
C2691 C2696 1.350 . S
C2691 N2699 1.427 . S
C2692 H2683 0.930 . S
C2692 C2690 1.378 . S
C2692 C2693 1.367 . S
C2693 C2692 1.367 . S
C2693 C2695 1.433 . S
C2694 C2690 1.350 . S
C2694 C2691 1.463 1_455 S
C2694 N2698 1.427 . S
C2695 H2685 0.929 . S
C2695 C2693 1.433 . S
C2695 N2698 1.384 . S
C2696 H2687 0.929 . S
C2696 C2688 1.378 . S
C2696 C2691 1.350 . S
C2697 H2684 0.929 . S
C2697 C2689 1.433 . S
C2697 N2699 1.384 . S
N2698 C2694 1.427 . S
N2698 C2695 1.384 . S
N2699 C2691 1.427 . S
N2699 C2697 1.384 . S
H2700 C2706 0.930 . S
H2701 C2710 0.930 . S
H2702 C2715 0.929 . S
H2703 C2713 0.929 . S
H2704 C2708 0.945 . S
H2705 C2714 0.931 . S
C2706 H2700 0.930 . S
C2706 C2707 1.367 . S
C2706 C2714 1.376 1_455 S
C2707 C2706 1.367 . S
C2707 C2715 1.433 . S
C2708 H2704 0.945 . S
C2708 C2710 1.368 1_455 S
C2708 C2712 1.344 1_455 S
C2709 C2712 1.463 1_455 S
C2709 C2714 1.349 1_455 S
C2709 N2717 1.427 . S
C2710 H2701 0.930 . S
C2710 C2708 1.368 1_655 S
C2710 C2711 1.367 . S
C2711 C2710 1.367 . S
C2711 C2713 1.433 . S
C2712 C2708 1.344 1_655 S
C2712 C2709 1.463 1_655 S
C2712 N2716 1.427 . S
C2713 H2703 0.929 . S
C2713 C2711 1.433 . S
C2713 N2716 1.384 . S
C2714 H2705 0.931 . S
C2714 C2706 1.376 1_655 S
C2714 C2709 1.349 1_655 S
C2715 H2702 0.929 . S
C2715 C2707 1.433 . S
C2715 N2717 1.384 . S
N2716 C2712 1.427 . S
N2716 C2713 1.384 . S
N2717 C2709 1.427 . S
N2717 C2715 1.384 . S
H2718 C2724 0.930 . S
H2719 C2728 0.930 . S
H2720 C2733 0.929 . S
H2721 C2731 0.929 . S
H2722 C2726 0.929 . S
H2723 C2732 0.929 . S
C2724 H2718 0.930 . S
C2724 C2725 1.367 . S
C2724 C2732 1.378 . S
C2725 C2724 1.367 . S
C2725 C2733 1.433 . S
C2726 H2722 0.929 . S
C2726 C2728 1.378 . S
C2726 C2730 1.350 . S
C2727 C2730 1.463 . S
C2727 C2732 1.350 . S
C2727 N2735 1.427 . S
C2728 H2719 0.930 . S
C2728 C2726 1.378 . S
C2728 C2729 1.367 . S
C2729 C2728 1.367 . S
C2729 C2731 1.433 . S
C2730 C2726 1.350 . S
C2730 C2727 1.463 . S
C2730 N2734 1.427 . S
C2731 H2721 0.929 . S
C2731 C2729 1.433 . S
C2731 N2734 1.384 . S
C2732 H2723 0.929 . S
C2732 C2724 1.378 . S
C2732 C2727 1.350 . S
C2733 H2720 0.929 . S
C2733 C2725 1.433 . S
C2733 N2735 1.384 . S
N2734 C2730 1.427 . S
N2734 C2731 1.384 . S
N2735 C2727 1.427 . S
N2735 C2733 1.384 . S
H2736 C2742 0.930 . S
H2737 C2746 0.930 . S
H2738 C2751 0.929 . S
H2739 C2749 0.929 . S
H2740 C2744 0.929 . S
H2741 C2750 0.929 . S
C2742 H2736 0.930 . S
C2742 C2743 1.367 . S
C2742 C2750 1.378 . S
C2743 C2742 1.367 . S
C2743 C2751 1.433 . S
C2744 H2740 0.929 . S
C2744 C2746 1.378 . S
C2744 C2748 1.350 . S
C2745 C2748 1.463 . S
C2745 C2750 1.350 . S
C2745 N2753 1.427 . S
C2746 H2737 0.930 . S
C2746 C2744 1.378 . S
C2746 C2747 1.367 . S
C2747 C2746 1.367 . S
C2747 C2749 1.433 . S
C2748 C2744 1.350 . S
C2748 C2745 1.463 . S
C2748 N2752 1.427 . S
C2749 H2739 0.929 . S
C2749 C2747 1.433 . S
C2749 N2752 1.384 . S
C2750 H2741 0.929 . S
C2750 C2742 1.378 . S
C2750 C2745 1.350 . S
C2751 H2738 0.929 . S
C2751 C2743 1.433 . S
C2751 N2753 1.384 . S
N2752 C2748 1.427 . S
N2752 C2749 1.384 . S
N2753 C2745 1.427 . S
N2753 C2751 1.384 . S
H2754 C2760 0.934 . S
H2755 C2764 0.926 1_655 S
H2756 C2769 0.929 . S
H2757 C2767 0.929 . S
H2758 C2762 0.929 . S
H2759 C2768 0.929 . S
C2760 H2754 0.934 . S
C2760 C2761 1.361 1_455 S
C2760 C2768 1.380 . S
C2761 C2760 1.361 1_655 S
C2761 C2769 1.433 . S
C2762 H2758 0.929 . S
C2762 C2764 1.375 1_655 S
C2762 C2766 1.350 1_655 S
C2763 C2766 1.463 1_655 S
C2763 C2768 1.350 1_655 S
C2763 N2771 1.427 . S
C2764 H2755 0.926 1_455 S
C2764 C2762 1.375 1_455 S
C2764 C2765 1.375 . S
C2765 C2764 1.375 . S
C2765 C2767 1.433 . S
C2766 C2762 1.350 1_455 S
C2766 C2763 1.463 1_455 S
C2766 N2770 1.427 . S
C2767 H2757 0.929 . S
C2767 C2765 1.433 . S
C2767 N2770 1.384 . S
C2768 H2759 0.929 . S
C2768 C2760 1.380 . S
C2768 C2763 1.350 1_455 S
C2769 H2756 0.929 . S
C2769 C2761 1.433 . S
C2769 N2771 1.384 . S
N2770 C2766 1.427 . S
N2770 C2767 1.384 . S
N2771 C2763 1.427 . S
N2771 C2769 1.384 . S
H2772 C2778 0.930 . S
H2773 C2782 0.930 . S
H2774 C2787 0.929 . S
H2775 C2785 0.929 . S
H2776 C2780 0.929 . S
H2777 C2786 0.929 . S
C2778 H2772 0.930 . S
C2778 C2779 1.367 . S
C2778 C2786 1.378 . S
C2779 C2778 1.367 . S
C2779 C2787 1.433 . S
C2780 H2776 0.929 . S
C2780 C2782 1.378 . S
C2780 C2784 1.350 . S
C2781 C2784 1.463 . S
C2781 C2786 1.350 . S
C2781 N2789 1.427 . S
C2782 H2773 0.930 . S
C2782 C2780 1.378 . S
C2782 C2783 1.367 . S
C2783 C2782 1.367 . S
C2783 C2785 1.433 . S
C2784 C2780 1.350 . S
C2784 C2781 1.463 . S
C2784 N2788 1.427 . S
C2785 H2775 0.929 . S
C2785 C2783 1.433 . S
C2785 N2788 1.384 . S
C2786 H2777 0.929 . S
C2786 C2778 1.378 . S
C2786 C2781 1.350 . S
C2787 H2774 0.929 . S
C2787 C2779 1.433 . S
C2787 N2789 1.384 . S
N2788 C2784 1.427 . S
N2788 C2785 1.384 . S
N2789 C2781 1.427 . S
N2789 C2787 1.384 . S
H2790 C2796 0.930 . S
H2791 C2800 0.930 . S
H2792 C2805 0.929 . S
H2793 C2803 0.929 . S
H2794 C2798 0.929 . S
H2795 C2804 0.929 . S
C2796 H2790 0.930 . S
C2796 C2797 1.367 . S
C2796 C2804 1.378 . S
C2797 C2796 1.367 . S
C2797 C2805 1.433 . S
C2798 H2794 0.929 . S
C2798 C2800 1.378 . S
C2798 C2802 1.350 . S
C2799 C2802 1.463 . S
C2799 C2804 1.350 . S
C2799 N2807 1.427 . S
C2800 H2791 0.930 . S
C2800 C2798 1.378 . S
C2800 C2801 1.367 . S
C2801 C2800 1.367 . S
C2801 C2803 1.433 . S
C2802 C2798 1.350 . S
C2802 C2799 1.463 . S
C2802 N2806 1.427 . S
C2803 H2793 0.929 . S
C2803 C2801 1.433 . S
C2803 N2806 1.384 . S
C2804 H2795 0.929 . S
C2804 C2796 1.378 . S
C2804 C2799 1.350 . S
C2805 H2792 0.929 . S
C2805 C2797 1.433 . S
C2805 N2807 1.384 . S
N2806 C2802 1.427 . S
N2806 C2803 1.384 . S
N2807 C2799 1.427 . S
N2807 C2805 1.384 . S
H2808 C2814 0.930 . S
H2809 C2818 0.930 . S
H2810 C2823 0.929 . S
H2811 C2821 0.929 . S
H2812 C2816 0.929 . S
H2813 C2822 0.929 . S
C2814 H2808 0.930 . S
C2814 C2815 1.367 . S
C2814 C2822 1.378 . S
C2815 C2814 1.367 . S
C2815 C2823 1.433 . S
C2816 H2812 0.929 . S
C2816 C2818 1.378 . S
C2816 C2820 1.350 . S
C2817 C2820 1.463 1_565 S
C2817 C2822 1.350 . S
C2817 N2825 1.427 . S
C2818 H2809 0.930 . S
C2818 C2816 1.378 . S
C2818 C2819 1.367 . S
C2819 C2818 1.367 . S
C2819 C2821 1.433 . S
C2820 C2816 1.350 . S
C2820 C2817 1.463 1_545 S
C2820 N2824 1.427 . S
C2821 H2811 0.929 . S
C2821 C2819 1.433 . S
C2821 N2824 1.384 . S
C2822 H2813 0.929 . S
C2822 C2814 1.378 . S
C2822 C2817 1.350 . S
C2823 H2810 0.929 . S
C2823 C2815 1.433 . S
C2823 N2825 1.384 . S
N2824 C2820 1.427 . S
N2824 C2821 1.384 . S
N2825 C2817 1.427 . S
N2825 C2823 1.384 . S
H2826 C2832 0.930 . S
H2827 C2836 0.930 . S
H2828 C2841 0.929 . S
H2829 C2839 0.929 . S
H2830 C2834 0.929 . S
H2831 C2840 0.929 . S
C2832 H2826 0.930 . S
C2832 C2833 1.367 . S
C2832 C2840 1.378 . S
C2833 C2832 1.367 . S
C2833 C2841 1.433 . S
C2834 H2830 0.929 . S
C2834 C2836 1.378 . S
C2834 C2838 1.350 . S
C2835 C2838 1.463 . S
C2835 C2840 1.350 . S
C2835 N2843 1.427 . S
C2836 H2827 0.930 . S
C2836 C2834 1.378 . S
C2836 C2837 1.367 . S
C2837 C2836 1.367 . S
C2837 C2839 1.433 . S
C2838 C2834 1.350 . S
C2838 C2835 1.463 . S
C2838 N2842 1.427 . S
C2839 H2829 0.929 . S
C2839 C2837 1.433 . S
C2839 N2842 1.384 . S
C2840 H2831 0.929 . S
C2840 C2832 1.378 . S
C2840 C2835 1.350 . S
C2841 H2828 0.929 . S
C2841 C2833 1.433 . S
C2841 N2843 1.384 . S
N2842 C2838 1.427 . S
N2842 C2839 1.384 . S
N2843 C2835 1.427 . S
N2843 C2841 1.384 . S
H2844 C2850 0.930 . S
H2845 C2854 0.930 . S
H2846 C2859 0.929 . S
H2847 C2857 0.929 . S
H2848 C2852 0.929 . S
H2849 C2858 0.929 . S
C2850 H2844 0.930 . S
C2850 C2851 1.367 1_554 S
C2850 C2858 1.378 . S
C2851 C2850 1.367 1_556 S
C2851 C2859 1.433 . S
C2852 H2848 0.929 . S
C2852 C2854 1.378 . S
C2852 C2856 1.350 . S
C2853 C2856 1.463 . S
C2853 C2858 1.350 1_556 S
C2853 N2861 1.427 . S
C2854 H2845 0.930 . S
C2854 C2852 1.378 . S
C2854 C2855 1.367 . S
C2855 C2854 1.367 . S
C2855 C2857 1.433 1_556 S
C2856 C2852 1.350 . S
C2856 C2853 1.463 . S
C2856 N2860 1.427 1_556 S
C2857 H2847 0.929 . S
C2857 C2855 1.433 1_554 S
C2857 N2860 1.384 . S
C2858 H2849 0.929 . S
C2858 C2850 1.378 . S
C2858 C2853 1.350 1_554 S
C2859 H2846 0.929 . S
C2859 C2851 1.433 . S
C2859 N2861 1.384 . S
N2860 C2856 1.427 1_554 S
N2860 C2857 1.384 . S
N2861 C2853 1.427 . S
N2861 C2859 1.384 . S
H2862 C2868 0.930 . S
H2863 C2872 0.930 . S
H2864 C2877 0.929 . S
H2865 C2875 0.929 . S
H2866 C2870 0.929 . S
H2867 C2876 0.929 . S
C2868 H2862 0.930 . S
C2868 C2869 1.367 . S
C2868 C2876 1.378 . S
C2869 C2868 1.367 . S
C2869 C2877 1.433 . S
C2870 H2866 0.929 . S
C2870 C2872 1.378 . S
C2870 C2874 1.350 . S
C2871 C2874 1.463 . S
C2871 C2876 1.350 . S
C2871 N2879 1.427 . S
C2872 H2863 0.930 . S
C2872 C2870 1.378 . S
C2872 C2873 1.367 . S
C2873 C2872 1.367 . S
C2873 C2875 1.433 . S
C2874 C2870 1.350 . S
C2874 C2871 1.463 . S
C2874 N2878 1.427 . S
C2875 H2865 0.929 . S
C2875 C2873 1.433 . S
C2875 N2878 1.384 . S
C2876 H2867 0.929 . S
C2876 C2868 1.378 . S
C2876 C2871 1.350 . S
C2877 H2864 0.929 . S
C2877 C2869 1.433 . S
C2877 N2879 1.384 . S
N2878 C2874 1.427 . S
N2878 C2875 1.384 . S
N2879 C2871 1.427 . S
N2879 C2877 1.384 . S
H2880 C2886 0.930 . S
H2881 C2890 0.930 . S
H2882 C2895 0.929 . S
H2883 C2893 0.929 . S
H2884 C2888 0.929 . S
H2885 C2894 0.929 . S
C2886 H2880 0.930 . S
C2886 C2887 1.367 . S
C2886 C2894 1.378 . S
C2887 C2886 1.367 . S
C2887 C2895 1.433 . S
C2888 H2884 0.929 . S
C2888 C2890 1.378 . S
C2888 C2892 1.350 . S
C2889 C2892 1.463 . S
C2889 C2894 1.350 . S
C2889 N2897 1.427 . S
C2890 H2881 0.930 . S
C2890 C2888 1.378 . S
C2890 C2891 1.367 . S
C2891 C2890 1.367 . S
C2891 C2893 1.433 . S
C2892 C2888 1.350 . S
C2892 C2889 1.463 . S
C2892 N2896 1.427 . S
C2893 H2883 0.929 . S
C2893 C2891 1.433 . S
C2893 N2896 1.384 . S
C2894 H2885 0.929 . S
C2894 C2886 1.378 . S
C2894 C2889 1.350 . S
C2895 H2882 0.929 . S
C2895 C2887 1.433 . S
C2895 N2897 1.384 . S
N2896 C2892 1.427 . S
N2896 C2893 1.384 . S
N2897 C2889 1.427 . S
N2897 C2895 1.384 . S
H2898 C2904 0.930 . S
H2899 C2908 0.930 . S
H2900 C2913 0.929 . S
H2901 C2911 0.929 . S
H2902 C2906 0.929 . S
H2903 C2912 0.929 . S
C2904 H2898 0.930 . S
C2904 C2905 1.367 . S
C2904 C2912 1.378 . S
C2905 C2904 1.367 . S
C2905 C2913 1.433 . S
C2906 H2902 0.929 . S
C2906 C2908 1.378 . S
C2906 C2910 1.350 . S
C2907 C2910 1.463 . S
C2907 C2912 1.350 . S
C2907 N2915 1.427 . S
C2908 H2899 0.930 . S
C2908 C2906 1.378 . S
C2908 C2909 1.367 . S
C2909 C2908 1.367 . S
C2909 C2911 1.433 . S
C2910 C2906 1.350 . S
C2910 C2907 1.463 . S
C2910 N2914 1.427 . S
C2911 H2901 0.929 . S
C2911 C2909 1.433 . S
C2911 N2914 1.384 . S
C2912 H2903 0.929 . S
C2912 C2904 1.378 . S
C2912 C2907 1.350 . S
C2913 H2900 0.929 . S
C2913 C2905 1.433 . S
C2913 N2915 1.384 . S
N2914 C2910 1.427 . S
N2914 C2911 1.384 . S
N2915 C2907 1.427 . S
N2915 C2913 1.384 . S
H2916 C2922 0.930 . S
H2917 C2926 0.930 . S
H2918 C2931 0.929 . S
H2919 C2929 0.929 . S
H2920 C2924 0.929 . S
H2921 C2930 0.929 . S
C2922 H2916 0.930 . S
C2922 C2923 1.367 . S
C2922 C2930 1.378 . S
C2923 C2922 1.367 . S
C2923 C2931 1.433 . S
C2924 H2920 0.929 . S
C2924 C2926 1.378 . S
C2924 C2928 1.350 . S
C2925 C2928 1.463 . S
C2925 C2930 1.350 . S
C2925 N2933 1.427 . S
C2926 H2917 0.930 . S
C2926 C2924 1.378 . S
C2926 C2927 1.367 . S
C2927 C2926 1.367 . S
C2927 C2929 1.433 . S
C2928 C2924 1.350 . S
C2928 C2925 1.463 . S
C2928 N2932 1.427 . S
C2929 H2919 0.929 . S
C2929 C2927 1.433 . S
C2929 N2932 1.384 . S
C2930 H2921 0.929 . S
C2930 C2922 1.378 . S
C2930 C2925 1.350 . S
C2931 H2918 0.929 . S
C2931 C2923 1.433 . S
C2931 N2933 1.384 . S
N2932 C2928 1.427 . S
N2932 C2929 1.384 . S
N2933 C2925 1.427 . S
N2933 C2931 1.384 . S
H2934 C2940 0.930 . S
H2935 C2944 0.930 . S
H2936 C2949 0.929 . S
H2937 C2947 0.929 . S
H2938 C2942 0.929 . S
H2939 C2948 0.929 . S
C2940 H2934 0.930 . S
C2940 C2941 1.367 . S
C2940 C2948 1.378 . S
C2941 C2940 1.367 . S
C2941 C2949 1.433 . S
C2942 H2938 0.929 . S
C2942 C2944 1.378 . S
C2942 C2946 1.350 . S
C2943 C2946 1.463 . S
C2943 C2948 1.350 . S
C2943 N2951 1.427 . S
C2944 H2935 0.930 . S
C2944 C2942 1.378 . S
C2944 C2945 1.367 . S
C2945 C2944 1.367 . S
C2945 C2947 1.433 . S
C2946 C2942 1.350 . S
C2946 C2943 1.463 . S
C2946 N2950 1.427 . S
C2947 H2937 0.929 . S
C2947 C2945 1.433 . S
C2947 N2950 1.384 . S
C2948 H2939 0.929 . S
C2948 C2940 1.378 . S
C2948 C2943 1.350 . S
C2949 H2936 0.929 . S
C2949 C2941 1.433 . S
C2949 N2951 1.384 . S
N2950 C2946 1.427 . S
N2950 C2947 1.384 . S
N2951 C2943 1.427 . S
N2951 C2949 1.384 . S
H2952 C2958 0.930 . S
H2953 C2962 0.930 . S
H2954 C2967 0.929 . S
H2955 C2965 0.929 . S
H2956 C2960 0.929 . S
H2957 C2966 0.929 . S
C2958 H2952 0.930 . S
C2958 C2959 1.367 . S
C2958 C2966 1.378 . S
C2959 C2958 1.367 . S
C2959 C2967 1.433 . S
C2960 H2956 0.929 . S
C2960 C2962 1.378 . S
C2960 C2964 1.350 . S
C2961 C2964 1.463 . S
C2961 C2966 1.350 . S
C2961 N2969 1.427 . S
C2962 H2953 0.930 . S
C2962 C2960 1.378 . S
C2962 C2963 1.367 . S
C2963 C2962 1.367 . S
C2963 C2965 1.433 . S
C2964 C2960 1.350 . S
C2964 C2961 1.463 . S
C2964 N2968 1.427 . S
C2965 H2955 0.929 . S
C2965 C2963 1.433 . S
C2965 N2968 1.384 . S
C2966 H2957 0.929 . S
C2966 C2958 1.378 . S
C2966 C2961 1.350 . S
C2967 H2954 0.929 . S
C2967 C2959 1.433 . S
C2967 N2969 1.384 . S
N2968 C2964 1.427 . S
N2968 C2965 1.384 . S
N2969 C2961 1.427 . S
N2969 C2967 1.384 . S
H2970 C2976 0.930 . S
H2971 C2980 0.930 . S
H2972 C2985 0.929 . S
H2973 C2983 0.929 . S
H2974 C2978 0.929 . S
H2975 C2984 0.929 . S
C2976 H2970 0.930 . S
C2976 C2977 1.367 . S
C2976 C2984 1.378 . S
C2977 C2976 1.367 . S
C2977 C2985 1.433 . S
C2978 H2974 0.929 . S
C2978 C2980 1.378 . S
C2978 C2982 1.350 . S
C2979 C2982 1.463 . S
C2979 C2984 1.350 . S
C2979 N2987 1.427 . S
C2980 H2971 0.930 . S
C2980 C2978 1.378 . S
C2980 C2981 1.367 . S
C2981 C2980 1.367 . S
C2981 C2983 1.433 . S
C2982 C2978 1.350 . S
C2982 C2979 1.463 . S
C2982 N2986 1.427 . S
C2983 H2973 0.929 . S
C2983 C2981 1.433 . S
C2983 N2986 1.384 . S
C2984 H2975 0.929 . S
C2984 C2976 1.378 . S
C2984 C2979 1.350 . S
C2985 H2972 0.929 . S
C2985 C2977 1.433 . S
C2985 N2987 1.384 . S
N2986 C2982 1.427 . S
N2986 C2983 1.384 . S
N2987 C2979 1.427 . S
N2987 C2985 1.384 . S
H2988 C2994 0.930 . S
H2989 C2998 0.930 . S
H2990 C3003 0.929 . S
H2991 C3001 0.929 . S
H2992 C2996 0.929 . S
H2993 C3002 0.929 . S
C2994 H2988 0.930 . S
C2994 C2995 1.367 . S
C2994 C3002 1.378 . S
C2995 C2994 1.367 . S
C2995 C3003 1.433 . S
C2996 H2992 0.929 . S
C2996 C2998 1.378 . S
C2996 C3000 1.350 . S
C2997 C3000 1.463 . S
C2997 C3002 1.350 . S
C2997 N3005 1.427 . S
C2998 H2989 0.930 . S
C2998 C2996 1.378 . S
C2998 C2999 1.367 . S
C2999 C2998 1.367 . S
C2999 C3001 1.433 . S
C3000 C2996 1.350 . S
C3000 C2997 1.463 . S
C3000 N3004 1.427 . S
C3001 H2991 0.929 . S
C3001 C2999 1.433 . S
C3001 N3004 1.384 . S
C3002 H2993 0.929 . S
C3002 C2994 1.378 . S
C3002 C2997 1.350 . S
C3003 H2990 0.929 . S
C3003 C2995 1.433 . S
C3003 N3005 1.384 . S
N3004 C3000 1.427 . S
N3004 C3001 1.384 . S
N3005 C2997 1.427 . S
N3005 C3003 1.384 . S
H3006 C3012 0.930 . S
H3007 C3016 0.930 . S
H3008 C3021 0.929 . S
H3009 C3019 0.929 . S
H3010 C3014 0.929 . S
H3011 C3020 0.929 . S
C3012 H3006 0.930 . S
C3012 C3013 1.367 . S
C3012 C3020 1.378 . S
C3013 C3012 1.367 . S
C3013 C3021 1.433 . S
C3014 H3010 0.929 . S
C3014 C3016 1.378 . S
C3014 C3018 1.350 . S
C3015 C3018 1.463 . S
C3015 C3020 1.350 . S
C3015 N3023 1.427 . S
C3016 H3007 0.930 . S
C3016 C3014 1.378 . S
C3016 C3017 1.367 . S
C3017 C3016 1.367 . S
C3017 C3019 1.433 . S
C3018 C3014 1.350 . S
C3018 C3015 1.463 . S
C3018 N3022 1.427 . S
C3019 H3009 0.929 . S
C3019 C3017 1.433 . S
C3019 N3022 1.384 . S
C3020 H3011 0.929 . S
C3020 C3012 1.378 . S
C3020 C3015 1.350 . S
C3021 H3008 0.929 . S
C3021 C3013 1.433 . S
C3021 N3023 1.384 . S
N3022 C3018 1.427 . S
N3022 C3019 1.384 . S
N3023 C3015 1.427 . S
N3023 C3021 1.384 . S
H3024 C3030 0.930 . S
H3025 C3034 0.930 . S
H3026 C3039 0.929 . S
H3027 C3037 0.929 . S
H3028 C3032 0.929 . S
H3029 C3038 0.929 . S
C3030 H3024 0.930 . S
C3030 C3031 1.367 . S
C3030 C3038 1.378 . S
C3031 C3030 1.367 . S
C3031 C3039 1.433 . S
C3032 H3028 0.929 . S
C3032 C3034 1.378 . S
C3032 C3036 1.350 . S
C3033 C3036 1.463 . S
C3033 C3038 1.350 . S
C3033 N3041 1.427 . S
C3034 H3025 0.930 . S
C3034 C3032 1.378 . S
C3034 C3035 1.367 . S
C3035 C3034 1.367 . S
C3035 C3037 1.433 . S
C3036 C3032 1.350 . S
C3036 C3033 1.463 . S
C3036 N3040 1.427 . S
C3037 H3027 0.929 . S
C3037 C3035 1.433 . S
C3037 N3040 1.384 . S
C3038 H3029 0.929 . S
C3038 C3030 1.378 . S
C3038 C3033 1.350 . S
C3039 H3026 0.929 . S
C3039 C3031 1.433 . S
C3039 N3041 1.384 . S
N3040 C3036 1.427 . S
N3040 C3037 1.384 . S
N3041 C3033 1.427 . S
N3041 C3039 1.384 . S
H3042 C3048 0.930 . S
H3043 C3052 0.930 . S
H3044 C3057 0.929 . S
H3045 C3055 0.929 . S
H3046 C3050 0.929 . S
H3047 C3056 0.929 . S
C3048 H3042 0.930 . S
C3048 C3049 1.367 . S
C3048 C3056 1.378 . S
C3049 C3048 1.367 . S
C3049 C3057 1.433 . S
C3050 H3046 0.929 . S
C3050 C3052 1.378 . S
C3050 C3054 1.350 . S
C3051 C3054 1.463 . S
C3051 C3056 1.350 . S
C3051 N3059 1.427 . S
C3052 H3043 0.930 . S
C3052 C3050 1.378 . S
C3052 C3053 1.367 . S
C3053 C3052 1.367 . S
C3053 C3055 1.433 . S
C3054 C3050 1.350 . S
C3054 C3051 1.463 . S
C3054 N3058 1.427 . S
C3055 H3045 0.929 . S
C3055 C3053 1.433 . S
C3055 N3058 1.384 . S
C3056 H3047 0.929 . S
C3056 C3048 1.378 . S
C3056 C3051 1.350 . S
C3057 H3044 0.929 . S
C3057 C3049 1.433 . S
C3057 N3059 1.384 . S
N3058 C3054 1.427 . S
N3058 C3055 1.384 . S
N3059 C3051 1.427 . S
N3059 C3057 1.384 . S
H3060 C3066 0.930 . S
H3061 C3070 0.930 . S
H3062 C3075 0.929 . S
H3063 C3073 0.929 . S
H3064 C3068 0.929 . S
H3065 C3074 0.929 . S
C3066 H3060 0.930 . S
C3066 C3067 1.367 . S
C3066 C3074 1.378 . S
C3067 C3066 1.367 . S
C3067 C3075 1.433 . S
C3068 H3064 0.929 . S
C3068 C3070 1.378 . S
C3068 C3072 1.350 . S
C3069 C3072 1.463 . S
C3069 C3074 1.350 . S
C3069 N3077 1.427 . S
C3070 H3061 0.930 . S
C3070 C3068 1.378 . S
C3070 C3071 1.367 . S
C3071 C3070 1.367 . S
C3071 C3073 1.433 . S
C3072 C3068 1.350 . S
C3072 C3069 1.463 . S
C3072 N3076 1.427 . S
C3073 H3063 0.929 . S
C3073 C3071 1.433 . S
C3073 N3076 1.384 . S
C3074 H3065 0.929 . S
C3074 C3066 1.378 . S
C3074 C3069 1.350 . S
C3075 H3062 0.929 . S
C3075 C3067 1.433 . S
C3075 N3077 1.384 . S
N3076 C3072 1.427 . S
N3076 C3073 1.384 . S
N3077 C3069 1.427 . S
N3077 C3075 1.384 . S
H3078 C3084 0.930 . S
H3079 C3088 0.930 . S
H3080 C3093 0.929 . S
H3081 C3091 0.929 . S
H3082 C3086 0.929 . S
H3083 C3092 0.929 . S
C3084 H3078 0.930 . S
C3084 C3085 1.367 . S
C3084 C3092 1.378 . S
C3085 C3084 1.367 . S
C3085 C3093 1.433 . S
C3086 H3082 0.929 . S
C3086 C3088 1.378 . S
C3086 C3090 1.350 . S
C3087 C3090 1.463 . S
C3087 C3092 1.350 . S
C3087 N3095 1.427 . S
C3088 H3079 0.930 . S
C3088 C3086 1.378 . S
C3088 C3089 1.367 . S
C3089 C3088 1.367 . S
C3089 C3091 1.433 . S
C3090 C3086 1.350 . S
C3090 C3087 1.463 . S
C3090 N3094 1.427 . S
C3091 H3081 0.929 . S
C3091 C3089 1.433 . S
C3091 N3094 1.384 . S
C3092 H3083 0.929 . S
C3092 C3084 1.378 . S
C3092 C3087 1.350 . S
C3093 H3080 0.929 . S
C3093 C3085 1.433 . S
C3093 N3095 1.384 . S
N3094 C3090 1.427 . S
N3094 C3091 1.384 . S
N3095 C3087 1.427 . S
N3095 C3093 1.384 . S
H3096 C3102 0.930 . S
H3097 C3106 0.930 . S
H3098 C3111 0.929 . S
H3099 C3109 0.929 . S
H3100 C3104 0.929 . S
H3101 C3110 0.929 . S
C3102 H3096 0.930 . S
C3102 C3103 1.367 . S
C3102 C3110 1.378 . S
C3103 C3102 1.367 . S
C3103 C3111 1.433 . S
C3104 H3100 0.929 . S
C3104 C3106 1.378 . S
C3104 C3108 1.350 . S
C3105 C3108 1.463 . S
C3105 C3110 1.350 . S
C3105 N3113 1.427 . S
C3106 H3097 0.930 . S
C3106 C3104 1.378 . S
C3106 C3107 1.367 . S
C3107 C3106 1.367 . S
C3107 C3109 1.433 . S
C3108 C3104 1.350 . S
C3108 C3105 1.463 . S
C3108 N3112 1.427 . S
C3109 H3099 0.929 . S
C3109 C3107 1.433 . S
C3109 N3112 1.384 . S
C3110 H3101 0.929 . S
C3110 C3102 1.378 . S
C3110 C3105 1.350 . S
C3111 H3098 0.929 . S
C3111 C3103 1.433 . S
C3111 N3113 1.384 . S
N3112 C3108 1.427 . S
N3112 C3109 1.384 . S
N3113 C3105 1.427 . S
N3113 C3111 1.384 . S
H3114 C3120 0.930 . S
H3115 C3124 0.930 . S
H3116 C3129 0.929 . S
H3117 C3127 0.929 . S
H3118 C3122 0.929 . S
H3119 C3128 0.929 . S
C3120 H3114 0.930 . S
C3120 C3121 1.367 . S
C3120 C3128 1.378 . S
C3121 C3120 1.367 . S
C3121 C3129 1.433 . S
C3122 H3118 0.929 . S
C3122 C3124 1.378 . S
C3122 C3126 1.350 . S
C3123 C3126 1.463 . S
C3123 C3128 1.350 . S
C3123 N3131 1.427 . S
C3124 H3115 0.930 . S
C3124 C3122 1.378 . S
C3124 C3125 1.367 . S
C3125 C3124 1.367 . S
C3125 C3127 1.433 . S
C3126 C3122 1.350 . S
C3126 C3123 1.463 . S
C3126 N3130 1.427 . S
C3127 H3117 0.929 . S
C3127 C3125 1.433 . S
C3127 N3130 1.384 . S
C3128 H3119 0.929 . S
C3128 C3120 1.378 . S
C3128 C3123 1.350 . S
C3129 H3116 0.929 . S
C3129 C3121 1.433 . S
C3129 N3131 1.384 . S
N3130 C3126 1.427 . S
N3130 C3127 1.384 . S
N3131 C3123 1.427 . S
N3131 C3129 1.384 . S
H3132 C3138 0.930 . S
H3133 C3142 0.930 . S
H3134 C3147 0.929 . S
H3135 C3145 0.929 . S
H3136 C3140 0.929 . S
H3137 C3146 0.929 . S
C3138 H3132 0.930 . S
C3138 C3139 1.367 . S
C3138 C3146 1.378 . S
C3139 C3138 1.367 . S
C3139 C3147 1.433 . S
C3140 H3136 0.929 . S
C3140 C3142 1.378 . S
C3140 C3144 1.350 . S
C3141 C3144 1.463 . S
C3141 C3146 1.350 . S
C3141 N3149 1.427 . S
C3142 H3133 0.930 . S
C3142 C3140 1.378 . S
C3142 C3143 1.367 . S
C3143 C3142 1.367 . S
C3143 C3145 1.433 . S
C3144 C3140 1.350 . S
C3144 C3141 1.463 . S
C3144 N3148 1.427 . S
C3145 H3135 0.929 . S
C3145 C3143 1.433 . S
C3145 N3148 1.384 . S
C3146 H3137 0.929 . S
C3146 C3138 1.378 . S
C3146 C3141 1.350 . S
C3147 H3134 0.929 . S
C3147 C3139 1.433 . S
C3147 N3149 1.384 . S
N3148 C3144 1.427 . S
N3148 C3145 1.384 . S
N3149 C3141 1.427 . S
N3149 C3147 1.384 . S
H3150 C3156 0.930 . S
H3151 C3160 0.930 . S
H3152 C3165 0.929 . S
H3153 C3163 0.929 . S
H3154 C3158 0.929 . S
H3155 C3164 0.929 . S
C3156 H3150 0.930 . S
C3156 C3157 1.367 . S
C3156 C3164 1.378 . S
C3157 C3156 1.367 . S
C3157 C3165 1.433 . S
C3158 H3154 0.929 . S
C3158 C3160 1.378 . S
C3158 C3162 1.350 . S
C3159 C3162 1.463 . S
C3159 C3164 1.350 . S
C3159 N3167 1.427 . S
C3160 H3151 0.930 . S
C3160 C3158 1.378 . S
C3160 C3161 1.367 . S
C3161 C3160 1.367 . S
C3161 C3163 1.433 . S
C3162 C3158 1.350 . S
C3162 C3159 1.463 . S
C3162 N3166 1.427 . S
C3163 H3153 0.929 . S
C3163 C3161 1.433 . S
C3163 N3166 1.384 . S
C3164 H3155 0.929 . S
C3164 C3156 1.378 . S
C3164 C3159 1.350 . S
C3165 H3152 0.929 . S
C3165 C3157 1.433 . S
C3165 N3167 1.384 . S
N3166 C3162 1.427 . S
N3166 C3163 1.384 . S
N3167 C3159 1.427 . S
N3167 C3165 1.384 . S
H3168 C3174 0.930 . S
H3169 C3178 0.930 . S
H3170 C3183 0.929 . S
H3171 C3181 0.929 . S
H3172 C3176 0.929 . S
H3173 C3182 0.929 . S
C3174 H3168 0.930 . S
C3174 C3175 1.367 . S
C3174 C3182 1.378 . S
C3175 C3174 1.367 . S
C3175 C3183 1.433 . S
C3176 H3172 0.929 . S
C3176 C3178 1.378 . S
C3176 C3180 1.350 . S
C3177 C3180 1.463 . S
C3177 C3182 1.350 . S
C3177 N3185 1.427 . S
C3178 H3169 0.930 . S
C3178 C3176 1.378 . S
C3178 C3179 1.367 . S
C3179 C3178 1.367 . S
C3179 C3181 1.433 . S
C3180 C3176 1.350 . S
C3180 C3177 1.463 . S
C3180 N3184 1.427 . S
C3181 H3171 0.929 . S
C3181 C3179 1.433 . S
C3181 N3184 1.384 . S
C3182 H3173 0.929 . S
C3182 C3174 1.378 . S
C3182 C3177 1.350 . S
C3183 H3170 0.929 . S
C3183 C3175 1.433 . S
C3183 N3185 1.384 . S
N3184 C3180 1.427 . S
N3184 C3181 1.384 . S
N3185 C3177 1.427 . S
N3185 C3183 1.384 . S
H3186 C3192 0.930 . S
H3187 C3196 0.930 . S
H3188 C3201 0.929 . S
H3189 C3199 0.929 . S
H3190 C3194 0.929 . S
H3191 C3200 0.929 . S
C3192 H3186 0.930 . S
C3192 C3193 1.367 . S
C3192 C3200 1.378 . S
C3193 C3192 1.367 . S
C3193 C3201 1.433 . S
C3194 H3190 0.929 . S
C3194 C3196 1.378 . S
C3194 C3198 1.350 . S
C3195 C3198 1.463 . S
C3195 C3200 1.350 . S
C3195 N3203 1.427 . S
C3196 H3187 0.930 . S
C3196 C3194 1.378 . S
C3196 C3197 1.367 . S
C3197 C3196 1.367 . S
C3197 C3199 1.433 . S
C3198 C3194 1.350 . S
C3198 C3195 1.463 . S
C3198 N3202 1.427 . S
C3199 H3189 0.929 . S
C3199 C3197 1.433 . S
C3199 N3202 1.384 . S
C3200 H3191 0.929 . S
C3200 C3192 1.378 . S
C3200 C3195 1.350 . S
C3201 H3188 0.929 . S
C3201 C3193 1.433 . S
C3201 N3203 1.384 . S
N3202 C3198 1.427 . S
N3202 C3199 1.384 . S
N3203 C3195 1.427 . S
N3203 C3201 1.384 . S
H3204 C3210 0.930 . S
H3205 C3214 0.930 . S
H3206 C3219 0.929 . S
H3207 C3217 0.929 . S
H3208 C3212 0.929 . S
H3209 C3218 0.929 . S
C3210 H3204 0.930 . S
C3210 C3211 1.367 . S
C3210 C3218 1.378 . S
C3211 C3210 1.367 . S
C3211 C3219 1.433 . S
C3212 H3208 0.929 . S
C3212 C3214 1.378 . S
C3212 C3216 1.350 . S
C3213 C3216 1.463 . S
C3213 C3218 1.350 . S
C3213 N3221 1.427 . S
C3214 H3205 0.930 . S
C3214 C3212 1.378 . S
C3214 C3215 1.367 . S
C3215 C3214 1.367 . S
C3215 C3217 1.433 . S
C3216 C3212 1.350 . S
C3216 C3213 1.463 . S
C3216 N3220 1.427 . S
C3217 H3207 0.929 . S
C3217 C3215 1.433 . S
C3217 N3220 1.384 . S
C3218 H3209 0.929 . S
C3218 C3210 1.378 . S
C3218 C3213 1.350 . S
C3219 H3206 0.929 . S
C3219 C3211 1.433 . S
C3219 N3221 1.384 . S
N3220 C3216 1.427 . S
N3220 C3217 1.384 . S
N3221 C3213 1.427 . S
N3221 C3219 1.384 . S
H3222 C3228 0.930 . S
H3223 C3232 0.930 . S
H3224 C3237 0.929 . S
H3225 C3235 0.929 . S
H3226 C3230 0.929 . S
H3227 C3236 0.929 . S
C3228 H3222 0.930 . S
C3228 C3229 1.367 . S
C3228 C3236 1.378 . S
C3229 C3228 1.367 . S
C3229 C3237 1.433 . S
C3230 H3226 0.929 . S
C3230 C3232 1.378 . S
C3230 C3234 1.350 . S
C3231 C3234 1.463 . S
C3231 C3236 1.350 . S
C3231 N3239 1.427 . S
C3232 H3223 0.930 . S
C3232 C3230 1.378 . S
C3232 C3233 1.367 . S
C3233 C3232 1.367 . S
C3233 C3235 1.433 . S
C3234 C3230 1.350 . S
C3234 C3231 1.463 . S
C3234 N3238 1.427 . S
C3235 H3225 0.929 . S
C3235 C3233 1.433 . S
C3235 N3238 1.384 . S
C3236 H3227 0.929 . S
C3236 C3228 1.378 . S
C3236 C3231 1.350 . S
C3237 H3224 0.929 . S
C3237 C3229 1.433 . S
C3237 N3239 1.384 . S
N3238 C3234 1.427 . S
N3238 C3235 1.384 . S
N3239 C3231 1.427 . S
N3239 C3237 1.384 . S
H3240 C3246 0.930 . S
H3241 C3250 0.930 . S
H3242 C3255 0.929 . S
H3243 C3253 0.929 . S
H3244 C3248 0.929 . S
H3245 C3254 0.929 . S
C3246 H3240 0.930 . S
C3246 C3247 1.367 . S
C3246 C3254 1.378 . S
C3247 C3246 1.367 . S
C3247 C3255 1.433 . S
C3248 H3244 0.929 . S
C3248 C3250 1.378 . S
C3248 C3252 1.350 . S
C3249 C3252 1.463 . S
C3249 C3254 1.350 . S
C3249 N3257 1.427 . S
C3250 H3241 0.930 . S
C3250 C3248 1.378 . S
C3250 C3251 1.367 . S
C3251 C3250 1.367 . S
C3251 C3253 1.433 . S
C3252 C3248 1.350 . S
C3252 C3249 1.463 . S
C3252 N3256 1.427 . S
C3253 H3243 0.929 . S
C3253 C3251 1.433 . S
C3253 N3256 1.384 . S
C3254 H3245 0.929 . S
C3254 C3246 1.378 . S
C3254 C3249 1.350 . S
C3255 H3242 0.929 . S
C3255 C3247 1.433 . S
C3255 N3257 1.384 . S
N3256 C3252 1.427 . S
N3256 C3253 1.384 . S
N3257 C3249 1.427 . S
N3257 C3255 1.384 . S
H3258 C3264 0.930 . S
H3259 C3268 0.930 . S
H3260 C3273 0.929 . S
H3261 C3271 0.929 . S
H3262 C3266 0.929 . S
H3263 C3272 0.929 . S
C3264 H3258 0.930 . S
C3264 C3265 1.367 . S
C3264 C3272 1.378 . S
C3265 C3264 1.367 . S
C3265 C3273 1.433 . S
C3266 H3262 0.929 . S
C3266 C3268 1.378 . S
C3266 C3270 1.350 . S
C3267 C3270 1.463 . S
C3267 C3272 1.350 . S
C3267 N3275 1.427 . S
C3268 H3259 0.930 . S
C3268 C3266 1.378 . S
C3268 C3269 1.367 . S
C3269 C3268 1.367 . S
C3269 C3271 1.433 . S
C3270 C3266 1.350 . S
C3270 C3267 1.463 . S
C3270 N3274 1.427 . S
C3271 H3261 0.929 . S
C3271 C3269 1.433 . S
C3271 N3274 1.384 . S
C3272 H3263 0.929 . S
C3272 C3264 1.378 . S
C3272 C3267 1.350 . S
C3273 H3260 0.929 . S
C3273 C3265 1.433 . S
C3273 N3275 1.384 . S
N3274 C3270 1.427 . S
N3274 C3271 1.384 . S
N3275 C3267 1.427 . S
N3275 C3273 1.384 . S
H3276 C3282 0.930 . S
H3277 C3286 0.930 . S
H3278 C3291 0.929 . S
H3279 C3289 0.929 . S
H3280 C3284 0.929 . S
H3281 C3290 0.929 . S
C3282 H3276 0.930 . S
C3282 C3283 1.367 . S
C3282 C3290 1.378 . S
C3283 C3282 1.367 . S
C3283 C3291 1.433 . S
C3284 H3280 0.929 . S
C3284 C3286 1.378 . S
C3284 C3288 1.350 . S
C3285 C3288 1.463 . S
C3285 C3290 1.350 . S
C3285 N3293 1.427 . S
C3286 H3277 0.930 . S
C3286 C3284 1.378 . S
C3286 C3287 1.367 . S
C3287 C3286 1.367 . S
C3287 C3289 1.433 . S
C3288 C3284 1.350 . S
C3288 C3285 1.463 . S
C3288 N3292 1.427 . S
C3289 H3279 0.929 . S
C3289 C3287 1.433 . S
C3289 N3292 1.384 . S
C3290 H3281 0.929 . S
C3290 C3282 1.378 . S
C3290 C3285 1.350 . S
C3291 H3278 0.929 . S
C3291 C3283 1.433 . S
C3291 N3293 1.384 . S
N3292 C3288 1.427 . S
N3292 C3289 1.384 . S
N3293 C3285 1.427 . S
N3293 C3291 1.384 . S
H3294 C3300 0.930 . S
H3295 C3304 0.930 . S
H3296 C3309 0.929 . S
H3297 C3307 0.929 . S
H3298 C3302 0.929 . S
H3299 C3308 0.929 . S
C3300 H3294 0.930 . S
C3300 C3301 1.367 . S
C3300 C3308 1.378 . S
C3301 C3300 1.367 . S
C3301 C3309 1.433 . S
C3302 H3298 0.929 . S
C3302 C3304 1.378 . S
C3302 C3306 1.350 . S
C3303 C3306 1.463 . S
C3303 C3308 1.350 . S
C3303 N3311 1.427 . S
C3304 H3295 0.930 . S
C3304 C3302 1.378 . S
C3304 C3305 1.367 . S
C3305 C3304 1.367 . S
C3305 C3307 1.433 . S
C3306 C3302 1.350 . S
C3306 C3303 1.463 . S
C3306 N3310 1.427 . S
C3307 H3297 0.929 . S
C3307 C3305 1.433 . S
C3307 N3310 1.384 . S
C3308 H3299 0.929 . S
C3308 C3300 1.378 . S
C3308 C3303 1.350 . S
C3309 H3296 0.929 . S
C3309 C3301 1.433 . S
C3309 N3311 1.384 . S
N3310 C3306 1.427 . S
N3310 C3307 1.384 . S
N3311 C3303 1.427 . S
N3311 C3309 1.384 . S
H3312 C3318 0.930 . S
H3313 C3322 0.930 . S
H3314 C3327 0.929 . S
H3315 C3325 0.929 . S
H3316 C3320 0.929 . S
H3317 C3326 0.929 . S
C3318 H3312 0.930 . S
C3318 C3319 1.367 . S
C3318 C3326 1.378 . S
C3319 C3318 1.367 . S
C3319 C3327 1.433 . S
C3320 H3316 0.929 . S
C3320 C3322 1.378 . S
C3320 C3324 1.350 . S
C3321 C3324 1.463 . S
C3321 C3326 1.350 . S
C3321 N3329 1.427 . S
C3322 H3313 0.930 . S
C3322 C3320 1.378 . S
C3322 C3323 1.367 . S
C3323 C3322 1.367 . S
C3323 C3325 1.433 . S
C3324 C3320 1.350 . S
C3324 C3321 1.463 . S
C3324 N3328 1.427 . S
C3325 H3315 0.929 . S
C3325 C3323 1.433 . S
C3325 N3328 1.384 . S
C3326 H3317 0.929 . S
C3326 C3318 1.378 . S
C3326 C3321 1.350 . S
C3327 H3314 0.929 . S
C3327 C3319 1.433 . S
C3327 N3329 1.384 . S
N3328 C3324 1.427 . S
N3328 C3325 1.384 . S
N3329 C3321 1.427 . S
N3329 C3327 1.384 . S
H3330 C3336 0.930 . S
H3331 C3340 0.930 . S
H3332 C3345 0.929 . S
H3333 C3343 0.929 . S
H3334 C3338 0.929 . S
H3335 C3344 0.929 . S
C3336 H3330 0.930 . S
C3336 C3337 1.367 . S
C3336 C3344 1.378 . S
C3337 C3336 1.367 . S
C3337 C3345 1.433 . S
C3338 H3334 0.929 . S
C3338 C3340 1.378 . S
C3338 C3342 1.350 . S
C3339 C3342 1.463 . S
C3339 C3344 1.350 . S
C3339 N3347 1.427 . S
C3340 H3331 0.930 . S
C3340 C3338 1.378 . S
C3340 C3341 1.367 . S
C3341 C3340 1.367 . S
C3341 C3343 1.433 . S
C3342 C3338 1.350 . S
C3342 C3339 1.463 . S
C3342 N3346 1.427 . S
C3343 H3333 0.929 . S
C3343 C3341 1.433 . S
C3343 N3346 1.384 . S
C3344 H3335 0.929 . S
C3344 C3336 1.378 . S
C3344 C3339 1.350 . S
C3345 H3332 0.929 . S
C3345 C3337 1.433 . S
C3345 N3347 1.384 . S
N3346 C3342 1.427 . S
N3346 C3343 1.384 . S
N3347 C3339 1.427 . S
N3347 C3345 1.384 . S
H3348 C3354 0.930 . S
H3349 C3358 0.930 . S
H3350 C3363 0.929 . S
H3351 C3361 0.929 . S
H3352 C3356 0.929 . S
H3353 C3362 0.929 . S
C3354 H3348 0.930 . S
C3354 C3355 1.367 . S
C3354 C3362 1.378 . S
C3355 C3354 1.367 . S
C3355 C3363 1.433 . S
C3356 H3352 0.929 . S
C3356 C3358 1.378 . S
C3356 C3360 1.350 . S
C3357 C3360 1.463 . S
C3357 C3362 1.350 . S
C3357 N3365 1.427 . S
C3358 H3349 0.930 . S
C3358 C3356 1.378 . S
C3358 C3359 1.367 . S
C3359 C3358 1.367 . S
C3359 C3361 1.433 . S
C3360 C3356 1.350 . S
C3360 C3357 1.463 . S
C3360 N3364 1.427 . S
C3361 H3351 0.929 . S
C3361 C3359 1.433 . S
C3361 N3364 1.384 . S
C3362 H3353 0.929 . S
C3362 C3354 1.378 . S
C3362 C3357 1.350 . S
C3363 H3350 0.929 . S
C3363 C3355 1.433 . S
C3363 N3365 1.384 . S
N3364 C3360 1.427 . S
N3364 C3361 1.384 . S
N3365 C3357 1.427 . S
N3365 C3363 1.384 . S
H3366 C3372 0.930 . S
H3367 C3376 0.930 . S
H3368 C3381 0.929 . S
H3369 C3379 0.929 . S
H3370 C3374 0.929 . S
H3371 C3380 0.929 . S
C3372 H3366 0.930 . S
C3372 C3373 1.367 . S
C3372 C3380 1.378 . S
C3373 C3372 1.367 . S
C3373 C3381 1.433 . S
C3374 H3370 0.929 . S
C3374 C3376 1.378 . S
C3374 C3378 1.350 . S
C3375 C3378 1.463 . S
C3375 C3380 1.350 . S
C3375 N3383 1.427 . S
C3376 H3367 0.930 . S
C3376 C3374 1.378 . S
C3376 C3377 1.367 . S
C3377 C3376 1.367 . S
C3377 C3379 1.433 . S
C3378 C3374 1.350 . S
C3378 C3375 1.463 . S
C3378 N3382 1.427 . S
C3379 H3369 0.929 . S
C3379 C3377 1.433 . S
C3379 N3382 1.384 . S
C3380 H3371 0.929 . S
C3380 C3372 1.378 . S
C3380 C3375 1.350 . S
C3381 H3368 0.929 . S
C3381 C3373 1.433 . S
C3381 N3383 1.384 . S
N3382 C3378 1.427 . S
N3382 C3379 1.384 . S
N3383 C3375 1.427 . S
N3383 C3381 1.384 . S
H3384 C3390 0.930 . S
H3385 C3394 0.930 . S
H3386 C3399 0.929 . S
H3387 C3397 0.929 . S
H3388 C3392 0.929 . S
H3389 C3398 0.929 . S
C3390 H3384 0.930 . S
C3390 C3391 1.367 . S
C3390 C3398 1.378 . S
C3391 C3390 1.367 . S
C3391 C3399 1.433 . S
C3392 H3388 0.929 . S
C3392 C3394 1.378 . S
C3392 C3396 1.350 . S
C3393 C3396 1.463 . S
C3393 C3398 1.350 . S
C3393 N3401 1.427 . S
C3394 H3385 0.930 . S
C3394 C3392 1.378 . S
C3394 C3395 1.367 . S
C3395 C3394 1.367 . S
C3395 C3397 1.433 . S
C3396 C3392 1.350 . S
C3396 C3393 1.463 . S
C3396 N3400 1.427 . S
C3397 H3387 0.929 . S
C3397 C3395 1.433 . S
C3397 N3400 1.384 . S
C3398 H3389 0.929 . S
C3398 C3390 1.378 . S
C3398 C3393 1.350 . S
C3399 H3386 0.929 . S
C3399 C3391 1.433 . S
C3399 N3401 1.384 . S
N3400 C3396 1.427 . S
N3400 C3397 1.384 . S
N3401 C3393 1.427 . S
N3401 C3399 1.384 . S
H3402 C3408 0.930 . S
H3403 C3412 0.930 . S
H3404 C3417 0.929 . S
H3405 C3415 0.929 . S
H3406 C3410 0.929 . S
H3407 C3416 0.929 . S
C3408 H3402 0.930 . S
C3408 C3409 1.367 . S
C3408 C3416 1.378 . S
C3409 C3408 1.367 . S
C3409 C3417 1.433 . S
C3410 H3406 0.929 . S
C3410 C3412 1.378 . S
C3410 C3414 1.350 . S
C3411 C3414 1.463 . S
C3411 C3416 1.350 . S
C3411 N3419 1.427 . S
C3412 H3403 0.930 . S
C3412 C3410 1.378 . S
C3412 C3413 1.367 . S
C3413 C3412 1.367 . S
C3413 C3415 1.433 . S
C3414 C3410 1.350 . S
C3414 C3411 1.463 . S
C3414 N3418 1.427 . S
C3415 H3405 0.929 . S
C3415 C3413 1.433 . S
C3415 N3418 1.384 . S
C3416 H3407 0.929 . S
C3416 C3408 1.378 . S
C3416 C3411 1.350 . S
C3417 H3404 0.929 . S
C3417 C3409 1.433 . S
C3417 N3419 1.384 . S
N3418 C3414 1.427 . S
N3418 C3415 1.384 . S
N3419 C3411 1.427 . S
N3419 C3417 1.384 . S
H3420 C3426 0.930 . S
H3421 C3430 0.930 . S
H3422 C3435 0.929 . S
H3423 C3433 0.929 . S
H3424 C3428 0.929 . S
H3425 C3434 0.929 . S
C3426 H3420 0.930 . S
C3426 C3427 1.367 . S
C3426 C3434 1.378 . S
C3427 C3426 1.367 . S
C3427 C3435 1.433 . S
C3428 H3424 0.929 . S
C3428 C3430 1.378 . S
C3428 C3432 1.350 . S
C3429 C3432 1.463 . S
C3429 C3434 1.350 . S
C3429 N3437 1.427 . S
C3430 H3421 0.930 . S
C3430 C3428 1.378 . S
C3430 C3431 1.367 . S
C3431 C3430 1.367 . S
C3431 C3433 1.433 . S
C3432 C3428 1.350 . S
C3432 C3429 1.463 . S
C3432 N3436 1.427 . S
C3433 H3423 0.929 . S
C3433 C3431 1.433 . S
C3433 N3436 1.384 . S
C3434 H3425 0.929 . S
C3434 C3426 1.378 . S
C3434 C3429 1.350 . S
C3435 H3422 0.929 . S
C3435 C3427 1.433 . S
C3435 N3437 1.384 . S
N3436 C3432 1.427 . S
N3436 C3433 1.384 . S
N3437 C3429 1.427 . S
N3437 C3435 1.384 . S
H3438 C3444 0.930 . S
H3439 C3448 0.930 . S
H3440 C3453 0.929 . S
H3441 C3451 0.929 . S
H3442 C3446 0.929 . S
H3443 C3452 0.929 . S
C3444 H3438 0.930 . S
C3444 C3445 1.367 . S
C3444 C3452 1.378 . S
C3445 C3444 1.367 . S
C3445 C3453 1.433 . S
C3446 H3442 0.929 . S
C3446 C3448 1.378 . S
C3446 C3450 1.350 . S
C3447 C3450 1.463 . S
C3447 C3452 1.350 . S
C3447 N3455 1.427 . S
C3448 H3439 0.930 . S
C3448 C3446 1.378 . S
C3448 C3449 1.367 . S
C3449 C3448 1.367 . S
C3449 C3451 1.433 . S
C3450 C3446 1.350 . S
C3450 C3447 1.463 . S
C3450 N3454 1.427 . S
C3451 H3441 0.929 . S
C3451 C3449 1.433 . S
C3451 N3454 1.384 . S
C3452 H3443 0.929 . S
C3452 C3444 1.378 . S
C3452 C3447 1.350 . S
C3453 H3440 0.929 . S
C3453 C3445 1.433 . S
C3453 N3455 1.384 . S
N3454 C3450 1.427 . S
N3454 C3451 1.384 . S
N3455 C3447 1.427 . S
N3455 C3453 1.384 . S
H3456 C3462 0.930 . S
H3457 C3466 0.930 . S
H3458 C3471 0.929 . S
H3459 C3469 0.929 . S
H3460 C3464 0.929 . S
H3461 C3470 0.929 . S
C3462 H3456 0.930 . S
C3462 C3463 1.367 . S
C3462 C3470 1.378 . S
C3463 C3462 1.367 . S
C3463 C3471 1.433 . S
C3464 H3460 0.929 . S
C3464 C3466 1.378 . S
C3464 C3468 1.350 . S
C3465 C3468 1.463 . S
C3465 C3470 1.350 . S
C3465 N3473 1.427 . S
C3466 H3457 0.930 . S
C3466 C3464 1.378 . S
C3466 C3467 1.367 . S
C3467 C3466 1.367 . S
C3467 C3469 1.433 . S
C3468 C3464 1.350 . S
C3468 C3465 1.463 . S
C3468 N3472 1.427 . S
C3469 H3459 0.929 . S
C3469 C3467 1.433 . S
C3469 N3472 1.384 . S
C3470 H3461 0.929 . S
C3470 C3462 1.378 . S
C3470 C3465 1.350 . S
C3471 H3458 0.929 . S
C3471 C3463 1.433 . S
C3471 N3473 1.384 . S
N3472 C3468 1.427 . S
N3472 C3469 1.384 . S
N3473 C3465 1.427 . S
N3473 C3471 1.384 . S
H3474 C3480 0.930 . S
H3475 C3484 0.930 . S
H3476 C3489 0.929 . S
H3477 C3487 0.929 . S
H3478 C3482 0.929 . S
H3479 C3488 0.929 . S
C3480 H3474 0.930 . S
C3480 C3481 1.367 . S
C3480 C3488 1.378 . S
C3481 C3480 1.367 . S
C3481 C3489 1.433 . S
C3482 H3478 0.929 . S
C3482 C3484 1.378 . S
C3482 C3486 1.350 . S
C3483 C3486 1.463 . S
C3483 C3488 1.350 . S
C3483 N3491 1.427 . S
C3484 H3475 0.930 . S
C3484 C3482 1.378 . S
C3484 C3485 1.367 . S
C3485 C3484 1.367 . S
C3485 C3487 1.433 . S
C3486 C3482 1.350 . S
C3486 C3483 1.463 . S
C3486 N3490 1.427 . S
C3487 H3477 0.929 . S
C3487 C3485 1.433 . S
C3487 N3490 1.384 . S
C3488 H3479 0.929 . S
C3488 C3480 1.378 . S
C3488 C3483 1.350 . S
C3489 H3476 0.929 . S
C3489 C3481 1.433 . S
C3489 N3491 1.384 . S
N3490 C3486 1.427 . S
N3490 C3487 1.384 . S
N3491 C3483 1.427 . S
N3491 C3489 1.384 . S
H3492 C3498 0.930 . S
H3493 C3502 0.930 . S
H3494 C3507 0.929 . S
H3495 C3505 0.929 . S
H3496 C3500 0.929 . S
H3497 C3506 0.929 . S
C3498 H3492 0.930 . S
C3498 C3499 1.367 . S
C3498 C3506 1.378 . S
C3499 C3498 1.367 . S
C3499 C3507 1.433 . S
C3500 H3496 0.929 . S
C3500 C3502 1.378 . S
C3500 C3504 1.350 . S
C3501 C3504 1.463 . S
C3501 C3506 1.350 . S
C3501 N3509 1.427 . S
C3502 H3493 0.930 . S
C3502 C3500 1.378 . S
C3502 C3503 1.367 . S
C3503 C3502 1.367 . S
C3503 C3505 1.433 . S
C3504 C3500 1.350 . S
C3504 C3501 1.463 . S
C3504 N3508 1.427 . S
C3505 H3495 0.929 . S
C3505 C3503 1.433 . S
C3505 N3508 1.384 . S
C3506 H3497 0.929 . S
C3506 C3498 1.378 . S
C3506 C3501 1.350 . S
C3507 H3494 0.929 . S
C3507 C3499 1.433 . S
C3507 N3509 1.384 . S
N3508 C3504 1.427 . S
N3508 C3505 1.384 . S
N3509 C3501 1.427 . S
N3509 C3507 1.384 . S
H3510 C3516 0.930 . S
H3511 C3520 0.930 . S
H3512 C3525 0.929 . S
H3513 C3523 0.929 . S
H3514 C3518 0.929 . S
H3515 C3524 0.929 . S
C3516 H3510 0.930 . S
C3516 C3517 1.367 . S
C3516 C3524 1.378 . S
C3517 C3516 1.367 . S
C3517 C3525 1.433 . S
C3518 H3514 0.929 . S
C3518 C3520 1.378 . S
C3518 C3522 1.350 . S
C3519 C3522 1.463 . S
C3519 C3524 1.350 . S
C3519 N3527 1.427 . S
C3520 H3511 0.930 . S
C3520 C3518 1.378 . S
C3520 C3521 1.367 . S
C3521 C3520 1.367 . S
C3521 C3523 1.433 . S
C3522 C3518 1.350 . S
C3522 C3519 1.463 . S
C3522 N3526 1.427 . S
C3523 H3513 0.929 . S
C3523 C3521 1.433 . S
C3523 N3526 1.384 . S
C3524 H3515 0.929 . S
C3524 C3516 1.378 . S
C3524 C3519 1.350 . S
C3525 H3512 0.929 . S
C3525 C3517 1.433 . S
C3525 N3527 1.384 . S
N3526 C3522 1.427 . S
N3526 C3523 1.384 . S
N3527 C3519 1.427 . S
N3527 C3525 1.384 . S
H3528 C3534 0.930 . S
H3529 C3538 0.930 . S
H3530 C3543 0.929 . S
H3531 C3541 0.929 . S
H3532 C3536 0.929 . S
H3533 C3542 0.929 . S
C3534 H3528 0.930 . S
C3534 C3535 1.367 . S
C3534 C3542 1.378 . S
C3535 C3534 1.367 . S
C3535 C3543 1.433 . S
C3536 H3532 0.929 . S
C3536 C3538 1.378 . S
C3536 C3540 1.350 . S
C3537 C3540 1.463 . S
C3537 C3542 1.350 . S
C3537 N3545 1.427 . S
C3538 H3529 0.930 . S
C3538 C3536 1.378 . S
C3538 C3539 1.367 . S
C3539 C3538 1.367 . S
C3539 C3541 1.433 . S
C3540 C3536 1.350 . S
C3540 C3537 1.463 . S
C3540 N3544 1.427 . S
C3541 H3531 0.929 . S
C3541 C3539 1.433 . S
C3541 N3544 1.384 . S
C3542 H3533 0.929 . S
C3542 C3534 1.378 . S
C3542 C3537 1.350 . S
C3543 H3530 0.929 . S
C3543 C3535 1.433 . S
C3543 N3545 1.384 . S
N3544 C3540 1.427 . S
N3544 C3541 1.384 . S
N3545 C3537 1.427 . S
N3545 C3543 1.384 . S
H3546 C3552 0.930 . S
H3547 C3556 0.930 . S
H3548 C3561 0.929 . S
H3549 C3559 0.929 . S
H3550 C3554 0.929 . S
H3551 C3560 0.929 . S
C3552 H3546 0.930 . S
C3552 C3553 1.367 . S
C3552 C3560 1.378 . S
C3553 C3552 1.367 . S
C3553 C3561 1.433 . S
C3554 H3550 0.929 . S
C3554 C3556 1.378 . S
C3554 C3558 1.350 . S
C3555 C3558 1.463 . S
C3555 C3560 1.350 . S
C3555 N3563 1.427 . S
C3556 H3547 0.930 . S
C3556 C3554 1.378 . S
C3556 C3557 1.367 . S
C3557 C3556 1.367 . S
C3557 C3559 1.433 . S
C3558 C3554 1.350 . S
C3558 C3555 1.463 . S
C3558 N3562 1.427 . S
C3559 H3549 0.929 . S
C3559 C3557 1.433 . S
C3559 N3562 1.384 . S
C3560 H3551 0.929 . S
C3560 C3552 1.378 . S
C3560 C3555 1.350 . S
C3561 H3548 0.929 . S
C3561 C3553 1.433 . S
C3561 N3563 1.384 . S
N3562 C3558 1.427 . S
N3562 C3559 1.384 . S
N3563 C3555 1.427 . S
N3563 C3561 1.384 . S
H3564 C3570 0.930 . S
H3565 C3574 0.930 . S
H3566 C3579 0.929 . S
H3567 C3577 0.929 . S
H3568 C3572 0.929 . S
H3569 C3578 0.929 . S
C3570 H3564 0.930 . S
C3570 C3571 1.367 . S
C3570 C3578 1.378 . S
C3571 C3570 1.367 . S
C3571 C3579 1.433 . S
C3572 H3568 0.929 . S
C3572 C3574 1.378 . S
C3572 C3576 1.350 . S
C3573 C3576 1.463 . S
C3573 C3578 1.350 . S
C3573 N3581 1.427 . S
C3574 H3565 0.930 . S
C3574 C3572 1.378 . S
C3574 C3575 1.367 . S
C3575 C3574 1.367 . S
C3575 C3577 1.433 . S
C3576 C3572 1.350 . S
C3576 C3573 1.463 . S
C3576 N3580 1.427 . S
C3577 H3567 0.929 . S
C3577 C3575 1.433 . S
C3577 N3580 1.384 . S
C3578 H3569 0.929 . S
C3578 C3570 1.378 . S
C3578 C3573 1.350 . S
C3579 H3566 0.929 . S
C3579 C3571 1.433 . S
C3579 N3581 1.384 . S
N3580 C3576 1.427 . S
N3580 C3577 1.384 . S
N3581 C3573 1.427 . S
N3581 C3579 1.384 . S
H3582 C3588 0.930 . S
H3583 C3592 0.930 . S
H3584 C3597 0.929 . S
H3585 C3595 0.929 . S
H3586 C3590 0.929 . S
H3587 C3596 0.929 . S
C3588 H3582 0.930 . S
C3588 C3589 1.367 . S
C3588 C3596 1.378 . S
C3589 C3588 1.367 . S
C3589 C3597 1.433 . S
C3590 H3586 0.929 . S
C3590 C3592 1.378 . S
C3590 C3594 1.350 . S
C3591 C3594 1.463 . S
C3591 C3596 1.350 . S
C3591 N3599 1.427 . S
C3592 H3583 0.930 . S
C3592 C3590 1.378 . S
C3592 C3593 1.367 . S
C3593 C3592 1.367 . S
C3593 C3595 1.433 . S
C3594 C3590 1.350 . S
C3594 C3591 1.463 . S
C3594 N3598 1.427 . S
C3595 H3585 0.929 . S
C3595 C3593 1.433 . S
C3595 N3598 1.384 . S
C3596 H3587 0.929 . S
C3596 C3588 1.378 . S
C3596 C3591 1.350 . S
C3597 H3584 0.929 . S
C3597 C3589 1.433 . S
C3597 N3599 1.384 . S
N3598 C3594 1.427 . S
N3598 C3595 1.384 . S
N3599 C3591 1.427 . S
N3599 C3597 1.384 . S
H3600 C3606 0.930 . S
H3601 C3610 0.930 . S
H3602 C3615 0.929 . S
H3603 C3613 0.929 . S
H3604 C3608 0.929 . S
H3605 C3614 0.929 . S
C3606 H3600 0.930 . S
C3606 C3607 1.367 . S
C3606 C3614 1.378 . S
C3607 C3606 1.367 . S
C3607 C3615 1.433 . S
C3608 H3604 0.929 . S
C3608 C3610 1.378 . S
C3608 C3612 1.350 . S
C3609 C3612 1.463 . S
C3609 C3614 1.350 . S
C3609 N3617 1.427 . S
C3610 H3601 0.930 . S
C3610 C3608 1.378 . S
C3610 C3611 1.367 . S
C3611 C3610 1.367 . S
C3611 C3613 1.433 . S
C3612 C3608 1.350 . S
C3612 C3609 1.463 . S
C3612 N3616 1.427 . S
C3613 H3603 0.929 . S
C3613 C3611 1.433 . S
C3613 N3616 1.384 . S
C3614 H3605 0.929 . S
C3614 C3606 1.378 . S
C3614 C3609 1.350 . S
C3615 H3602 0.929 . S
C3615 C3607 1.433 . S
C3615 N3617 1.384 . S
N3616 C3612 1.427 . S
N3616 C3613 1.384 . S
N3617 C3609 1.427 . S
N3617 C3615 1.384 . S
H3618 C3624 0.930 . S
H3619 C3628 0.930 . S
H3620 C3633 0.929 . S
H3621 C3631 0.929 . S
H3622 C3626 0.929 . S
H3623 C3632 0.929 . S
C3624 H3618 0.930 . S
C3624 C3625 1.367 . S
C3624 C3632 1.378 . S
C3625 C3624 1.367 . S
C3625 C3633 1.433 . S
C3626 H3622 0.929 . S
C3626 C3628 1.378 . S
C3626 C3630 1.350 . S
C3627 C3630 1.463 . S
C3627 C3632 1.350 . S
C3627 N3635 1.427 . S
C3628 H3619 0.930 . S
C3628 C3626 1.378 . S
C3628 C3629 1.367 . S
C3629 C3628 1.367 . S
C3629 C3631 1.433 . S
C3630 C3626 1.350 . S
C3630 C3627 1.463 . S
C3630 N3634 1.427 . S
C3631 H3621 0.929 . S
C3631 C3629 1.433 . S
C3631 N3634 1.384 . S
C3632 H3623 0.929 . S
C3632 C3624 1.378 . S
C3632 C3627 1.350 . S
C3633 H3620 0.929 . S
C3633 C3625 1.433 . S
C3633 N3635 1.384 . S
N3634 C3630 1.427 . S
N3634 C3631 1.384 . S
N3635 C3627 1.427 . S
N3635 C3633 1.384 . S
H3636 C3642 0.930 . S
H3637 C3646 0.930 . S
H3638 C3651 0.929 . S
H3639 C3649 0.929 . S
H3640 C3644 0.929 . S
H3641 C3650 0.929 . S
C3642 H3636 0.930 . S
C3642 C3643 1.367 . S
C3642 C3650 1.378 . S
C3643 C3642 1.367 . S
C3643 C3651 1.433 . S
C3644 H3640 0.929 . S
C3644 C3646 1.378 . S
C3644 C3648 1.350 . S
C3645 C3648 1.463 . S
C3645 C3650 1.350 . S
C3645 N3653 1.427 . S
C3646 H3637 0.930 . S
C3646 C3644 1.378 . S
C3646 C3647 1.367 . S
C3647 C3646 1.367 . S
C3647 C3649 1.433 . S
C3648 C3644 1.350 . S
C3648 C3645 1.463 . S
C3648 N3652 1.427 . S
C3649 H3639 0.929 . S
C3649 C3647 1.433 . S
C3649 N3652 1.384 . S
C3650 H3641 0.929 . S
C3650 C3642 1.378 . S
C3650 C3645 1.350 . S
C3651 H3638 0.929 . S
C3651 C3643 1.433 . S
C3651 N3653 1.384 . S
N3652 C3648 1.427 . S
N3652 C3649 1.384 . S
N3653 C3645 1.427 . S
N3653 C3651 1.384 . S
H3654 C3660 0.930 . S
H3655 C3664 0.930 . S
H3656 C3669 0.929 . S
H3657 C3667 0.929 . S
H3658 C3662 0.929 . S
H3659 C3668 0.929 . S
C3660 H3654 0.930 . S
C3660 C3661 1.367 . S
C3660 C3668 1.378 . S
C3661 C3660 1.367 . S
C3661 C3669 1.433 . S
C3662 H3658 0.929 . S
C3662 C3664 1.378 . S
C3662 C3666 1.350 . S
C3663 C3666 1.463 . S
C3663 C3668 1.350 . S
C3663 N3671 1.427 . S
C3664 H3655 0.930 . S
C3664 C3662 1.378 . S
C3664 C3665 1.367 . S
C3665 C3664 1.367 . S
C3665 C3667 1.433 . S
C3666 C3662 1.350 . S
C3666 C3663 1.463 . S
C3666 N3670 1.427 . S
C3667 H3657 0.929 . S
C3667 C3665 1.433 . S
C3667 N3670 1.384 . S
C3668 H3659 0.929 . S
C3668 C3660 1.378 . S
C3668 C3663 1.350 . S
C3669 H3656 0.929 . S
C3669 C3661 1.433 . S
C3669 N3671 1.384 . S
N3670 C3666 1.427 . S
N3670 C3667 1.384 . S
N3671 C3663 1.427 . S
N3671 C3669 1.384 . S
H3672 C3678 0.930 . S
H3673 C3682 0.930 . S
H3674 C3687 0.929 . S
H3675 C3685 0.929 . S
H3676 C3680 0.929 . S
H3677 C3686 0.929 . S
C3678 H3672 0.930 . S
C3678 C3679 1.367 . S
C3678 C3686 1.378 . S
C3679 C3678 1.367 . S
C3679 C3687 1.433 . S
C3680 H3676 0.929 . S
C3680 C3682 1.378 . S
C3680 C3684 1.350 . S
C3681 C3684 1.463 . S
C3681 C3686 1.350 . S
C3681 N3689 1.427 . S
C3682 H3673 0.930 . S
C3682 C3680 1.378 . S
C3682 C3683 1.367 . S
C3683 C3682 1.367 . S
C3683 C3685 1.433 . S
C3684 C3680 1.350 . S
C3684 C3681 1.463 . S
C3684 N3688 1.427 . S
C3685 H3675 0.929 . S
C3685 C3683 1.433 . S
C3685 N3688 1.384 . S
C3686 H3677 0.929 . S
C3686 C3678 1.378 . S
C3686 C3681 1.350 . S
C3687 H3674 0.929 . S
C3687 C3679 1.433 . S
C3687 N3689 1.384 . S
N3688 C3684 1.427 . S
N3688 C3685 1.384 . S
N3689 C3681 1.427 . S
N3689 C3687 1.384 . S
H3690 C3696 0.930 . S
H3691 C3700 0.930 . S
H3692 C3705 0.929 . S
H3693 C3703 0.929 . S
H3694 C3698 0.929 . S
H3695 C3704 0.929 . S
C3696 H3690 0.930 . S
C3696 C3697 1.367 . S
C3696 C3704 1.378 . S
C3697 C3696 1.367 . S
C3697 C3705 1.433 . S
C3698 H3694 0.929 . S
C3698 C3700 1.378 . S
C3698 C3702 1.350 . S
C3699 C3702 1.463 . S
C3699 C3704 1.350 . S
C3699 N3707 1.427 . S
C3700 H3691 0.930 . S
C3700 C3698 1.378 . S
C3700 C3701 1.367 . S
C3701 C3700 1.367 . S
C3701 C3703 1.433 . S
C3702 C3698 1.350 . S
C3702 C3699 1.463 . S
C3702 N3706 1.427 . S
C3703 H3693 0.929 . S
C3703 C3701 1.433 . S
C3703 N3706 1.384 . S
C3704 H3695 0.929 . S
C3704 C3696 1.378 . S
C3704 C3699 1.350 . S
C3705 H3692 0.929 . S
C3705 C3697 1.433 . S
C3705 N3707 1.384 . S
N3706 C3702 1.427 . S
N3706 C3703 1.384 . S
N3707 C3699 1.427 . S
N3707 C3705 1.384 . S
H3708 C3714 0.930 . S
H3709 C3718 0.930 . S
H3710 C3723 0.929 . S
H3711 C3721 0.929 . S
H3712 C3716 0.929 . S
H3713 C3722 0.929 . S
C3714 H3708 0.930 . S
C3714 C3715 1.367 . S
C3714 C3722 1.378 . S
C3715 C3714 1.367 . S
C3715 C3723 1.433 . S
C3716 H3712 0.929 . S
C3716 C3718 1.378 . S
C3716 C3720 1.350 . S
C3717 C3720 1.463 . S
C3717 C3722 1.350 . S
C3717 N3725 1.427 . S
C3718 H3709 0.930 . S
C3718 C3716 1.378 . S
C3718 C3719 1.367 . S
C3719 C3718 1.367 . S
C3719 C3721 1.433 . S
C3720 C3716 1.350 . S
C3720 C3717 1.463 . S
C3720 N3724 1.427 . S
C3721 H3711 0.929 . S
C3721 C3719 1.433 . S
C3721 N3724 1.384 . S
C3722 H3713 0.929 . S
C3722 C3714 1.378 . S
C3722 C3717 1.350 . S
C3723 H3710 0.929 . S
C3723 C3715 1.433 . S
C3723 N3725 1.384 . S
N3724 C3720 1.427 . S
N3724 C3721 1.384 . S
N3725 C3717 1.427 . S
N3725 C3723 1.384 . S
H3726 C3732 0.930 . S
H3727 C3736 0.930 . S
H3728 C3741 0.929 . S
H3729 C3739 0.929 . S
H3730 C3734 0.929 . S
H3731 C3740 0.929 . S
C3732 H3726 0.930 . S
C3732 C3733 1.367 . S
C3732 C3740 1.378 . S
C3733 C3732 1.367 . S
C3733 C3741 1.433 . S
C3734 H3730 0.929 . S
C3734 C3736 1.378 . S
C3734 C3738 1.350 . S
C3735 C3738 1.463 . S
C3735 C3740 1.350 . S
C3735 N3743 1.427 . S
C3736 H3727 0.930 . S
C3736 C3734 1.378 . S
C3736 C3737 1.367 . S
C3737 C3736 1.367 . S
C3737 C3739 1.433 . S
C3738 C3734 1.350 . S
C3738 C3735 1.463 . S
C3738 N3742 1.427 . S
C3739 H3729 0.929 . S
C3739 C3737 1.433 . S
C3739 N3742 1.384 . S
C3740 H3731 0.929 . S
C3740 C3732 1.378 . S
C3740 C3735 1.350 . S
C3741 H3728 0.929 . S
C3741 C3733 1.433 . S
C3741 N3743 1.384 . S
N3742 C3738 1.427 . S
N3742 C3739 1.384 . S
N3743 C3735 1.427 . S
N3743 C3741 1.384 . S
C1591 N530 1.191 . S
C1595 C21 1.135 . S
C1609 N1553 1.192 . S
C1613 C54 1.122 . S
C1627 C87 1.129 . S
C1631 N1487 1.192 . S
C1645 C120 1.145 . S
C1649 N1520 1.186 . S
C1663 C153 1.140 . S
C1667 N563 1.190 . S
C1681 N596 1.202 . S
C1685 C186 1.144 . S
C1699 N629 1.188 . S
C1703 C219 1.142 . S
C1717 N1454 1.192 1_655 S
C1721 C252 1.123 . S
C1735 C285 1.144 . S
C1739 N2 1.188 . S
C1753 N35 1.204 . S
C1757 C318 1.140 . S
C1771 C351 1.142 . S
C1775 N68 1.189 . S
C1789 N101 1.206 . S
C1793 C384 1.135 . S
C1807 C417 1.127 . S
C1811 N134 1.189 . S
C1825 C450 1.143 . S
C1829 N167 1.187 1_556 S
C1843 N200 1.190 . S
C1847 C483 1.125 . S
C1861 N233 1.189 1_556 S
C1865 C516 1.143 . S
C1879 N266 1.186 . S
C1883 C549 1.140 . S
C1897 N398 1.192 . S
C1901 C582 1.127 . S
C1915 N431 1.190 . S
C1919 C615 1.139 . S
C1933 N464 1.191 . S
C1937 C648 1.124 . S
C1951 N1289 1.190 . S
C1955 C681 1.138 . S
C1969 C714 1.145 . S
C1973 N1124 1.187 . S
C1987 N1157 1.188 . S
C1991 C747 1.131 . S
C2005 C780 1.143 . S
C2009 N1091 1.203 . S
C2023 C813 1.128 . S
C2027 N1322 1.192 . S
C2041 C846 1.133 . S
C2045 N761 1.188 1_655 S
C2059 N695 1.186 . S
C2063 C879 1.143 . S
C2077 N728 1.206 . S
C2081 C912 1.122 . S
C2095 N1355 1.187 . S
C2099 C945 1.134 . S
C2113 C978 1.140 . S
C2117 N1388 1.186 . S
C2131 N1421 1.191 . S
C2135 C1011 1.136 . S
C2149 C1044 1.144 . S
C2153 N662 1.188 . S
C2167 N794 1.189 . S
C2171 C1077 1.126 . S
C2185 N827 1.189 . S
C2189 C1110 1.142 . S
C2203 C1143 1.145 . S
C2207 N860 1.186 . S
C2221 C1176 1.126 . S
C2225 N893 1.190 . S
C2239 C1209 1.122 . S
C2243 N926 1.192 . S
C2257 N959 1.189 . S
C2261 C1242 1.142 . S
C2275 C1275 1.128 . S
C2279 N992 1.189 . S
C2293 N1025 1.187 . S
C2297 C1308 1.136 . S
C2311 N1058 1.192 . S
C2315 C1341 1.122 . S
C2329 C1374 1.126 . S
C2333 N1190 1.190 . S
C2347 N1223 1.203 . S
C2351 C1407 1.127 . S
C2365 N1256 1.191 . S
C2369 C1440 1.136 . S
C2383 C1473 1.144 . S
C2387 N497 1.188 1_565 S
C2401 C1506 1.139 . S
C2405 N332 1.190 . S
C2419 C1539 1.138 . S
C2423 N365 1.191 1_565 S
C2437 N299 1.192 . S
C2441 C1572 1.131 . S
C2455 C7 0.671 . S
C2459 C139 0.661 . S
C2473 C40 0.661 . S
C2477 C172 0.684 . S
C2491 C205 0.662 . S
C2495 C73 0.684 . S
C2509 C238 0.660 . S
C2513 C106 0.674 . S
C2527 C1261 0.688 . S
C2531 C271 0.677 . S
C2545 C1294 0.675 . S
C2549 C304 0.659 . S
C2563 C1195 0.671 . S
C2567 C337 0.689 . S
C2581 C370 0.666 . S
C2585 C1228 0.663 . S
C2599 C403 0.671 . S
C2603 C1129 0.689 . S
C2617 C436 0.677 . S
C2621 C1162 0.688 . S
C2635 C469 0.675 . S
C2639 C1063 0.659 . S
C2653 C502 0.673 . S
C2657 C1096 0.689 . S
C2671 C1492 0.673 . S
C2675 C535 0.689 . S
C2689 C634 0.671 . S
C2693 C568 0.689 . S
C2707 C1459 0.660 . S
C2711 C601 0.682 . S
C2725 C1393 0.682 . S
C2729 C667 0.660 . S
C2743 C700 0.669 . S
C2747 C1327 0.689 . S
C2761 C733 0.659 . S
C2765 C766 0.678 . S
C2779 C931 0.660 . S
C2783 C799 0.681 . S
C2797 C964 0.673 . S
C2801 C832 0.689 . S
C2815 C865 0.668 . S
C2819 C997 0.662 . S
C2833 C1030 0.689 . S
C2837 C898 0.676 . S
C2851 C1360 0.682 . S
C2855 C1426 0.660 . S
C2869 C1558 0.661 . S
C2873 C1525 0.683 . S
C2887 C18 1.352 . S
C2891 N904 1.347 . S
C2905 C51 1.352 . S
C2909 N805 1.346 . S
C2923 C84 1.353 . S
C2927 N838 1.350 . S
C2941 N871 1.350 . S
C2945 C117 1.354 . S
C2959 C150 1.352 . S
C2963 N178 1.348 . S
C2977 N211 1.343 . S
C2981 C183 1.356 . S
C2995 N244 1.342 . S
C2999 C216 1.354 . S
C3013 C249 1.357 . S
C3017 N145 1.349 . S
C3031 N1399 1.347 . S
C3035 C282 1.352 . S
C3049 C315 1.355 . S
C3053 N1432 1.343 . S
C3067 N673 1.344 . S
C3071 C348 1.352 . S
C3085 C381 1.355 . S
C3089 N1366 1.343 . S
C3103 C414 1.353 . S
C3107 N1531 1.350 . S
C3121 C447 1.357 . S
C3125 N541 1.347 . S
C3139 N1564 1.343 . S
C3143 C480 1.352 . S
C3157 N1498 1.348 . S
C3161 C513 1.357 . S
C3175 N310 1.346 . S
C3179 C546 1.357 . S
C3193 C579 1.352 . S
C3197 N1300 1.345 . S
C3211 C612 1.352 . S
C3215 N1201 1.344 . S
C3229 C645 1.355 . S
C3233 N1234 1.342 . S
C3247 N475 1.350 . S
C3251 C678 1.353 . S
C3265 C711 1.353 . S
C3269 N1168 1.342 . S
C3283 C744 1.354 . S
C3287 N1069 1.350 . S
C3301 N1135 1.343 . S
C3305 C777 1.352 . S
C3319 C810 1.353 . S
C3323 N112 1.349 . S
C3337 C843 1.354 . S
C3341 N13 1.350 . S
C3355 C876 1.357 . S
C3359 N46 1.349 . S
C3373 C909 1.353 . S
C3377 N79 1.342 . S
C3391 C942 1.356 . S
C3395 N970 1.345 . S
C3409 C975 1.356 . S
C3413 N1003 1.349 . S
C3427 C1008 1.357 . S
C3431 N1036 1.349 . S
C3445 N937 1.342 . S
C3449 C1041 1.353 . S
C3463 C1074 1.356 . S
C3467 N607 1.343 . S
C3481 C1107 1.353 . S
C3485 N640 1.349 . S
C3499 C1140 1.352 . S
C3503 N1465 1.346 . S
C3517 N574 1.350 . S
C3521 C1173 1.356 . S
C3535 N739 1.344 . S
C3539 C1206 1.352 . S
C3553 C1239 1.353 . S
C3557 N1333 1.342 . S
C3571 C1272 1.353 . S
C3575 N772 1.342 . S
C3589 C1305 1.356 . S
C3593 N706 1.343 . S
C3607 N1102 1.346 . S
C3611 C1338 1.357 . S
C3625 C1371 1.353 . S
C3629 N508 1.349 . S
C3643 C1404 1.355 . S
C3647 N409 1.343 . S
C3661 C1437 1.355 . S
C3665 N442 1.343 . S
C3679 N1267 1.343 . S
C3683 C1470 1.352 . S
C3697 N376 1.350 . S
C3701 C1503 1.356 . S
C3715 N277 1.347 . S
C3719 C1536 1.357 . S
C3733 N343 1.345 . S
C3737 C1569 1.352 . S
