# Generated by pormake.
# Topology wlm, (5)-cn, num edge types: 1
# Building blocks:
#     Node 0, Type 0, BuildingBlock: XOMCOT_clean_sbu_0, # of connection points: 5
#     Node 1, Type 0, BuildingBlock: XOMCOT_clean_sbu_0, # of connection points: 5
#     Node 2, Type 0, BuildingBlock: XOMCOT_clean_sbu_0, # of connection points: 5
#     Node 3, Type 0, BuildingBlock: XOMCOT_clean_sbu_0, # of connection points: 5
#     Node 4, Type 0, BuildingBlock: XOMCOT_clean_sbu_0, # of connection points: 5
#     Node 5, Type 0, BuildingBlock: XOMCOT_clean_sbu_0, # of connection points: 5
#     Node 6, Type 0, BuildingBlock: XOMCOT_clean_sbu_0, # of connection points: 5
#     Node 7, Type 0, BuildingBlock: XOMCOT_clean_sbu_0, # of connection points: 5
#     Node 8, Type 0, BuildingBlock: XOMCOT_clean_sbu_0, # of connection points: 5
#     Node 9, Type 0, BuildingBlock: XOMCOT_clean_sbu_0, # of connection points: 5
#     Node 10, Type 0, BuildingBlock: XOMCOT_clean_sbu_0, # of connection points: 5
#     Node 11, Type 0, BuildingBlock: XOMCOT_clean_sbu_0, # of connection points: 5
#     Node 12, Type 0, BuildingBlock: XOMCOT_clean_sbu_0, # of connection points: 5
#     Node 13, Type 0, BuildingBlock: XOMCOT_clean_sbu_0, # of connection points: 5
#     Node 14, Type 0, BuildingBlock: XOMCOT_clean_sbu_0, # of connection points: 5
#     Node 15, Type 0, BuildingBlock: XOMCOT_clean_sbu_0, # of connection points: 5
#     Node 16, Type 0, BuildingBlock: XOMCOT_clean_sbu_0, # of connection points: 5
#     Node 17, Type 0, BuildingBlock: XOMCOT_clean_sbu_0, # of connection points: 5
#     Node 18, Type 0, BuildingBlock: XOMCOT_clean_sbu_0, # of connection points: 5
#     Node 19, Type 0, BuildingBlock: XOMCOT_clean_sbu_0, # of connection points: 5
#     Node 20, Type 0, BuildingBlock: XOMCOT_clean_sbu_0, # of connection points: 5
#     Node 21, Type 0, BuildingBlock: XOMCOT_clean_sbu_0, # of connection points: 5
#     Node 22, Type 0, BuildingBlock: XOMCOT_clean_sbu_0, # of connection points: 5
#     Node 23, Type 0, BuildingBlock: XOMCOT_clean_sbu_0, # of connection points: 5
#     Node 24, Type 0, BuildingBlock: XOMCOT_clean_sbu_0, # of connection points: 5
#     Node 25, Type 0, BuildingBlock: XOMCOT_clean_sbu_0, # of connection points: 5
#     Node 26, Type 0, BuildingBlock: XOMCOT_clean_sbu_0, # of connection points: 5
#     Node 27, Type 0, BuildingBlock: XOMCOT_clean_sbu_0, # of connection points: 5
#     Node 28, Type 0, BuildingBlock: XOMCOT_clean_sbu_0, # of connection points: 5
#     Node 29, Type 0, BuildingBlock: XOMCOT_clean_sbu_0, # of connection points: 5
#     Node 30, Type 0, BuildingBlock: XOMCOT_clean_sbu_0, # of connection points: 5
#     Node 31, Type 0, BuildingBlock: XOMCOT_clean_sbu_0, # of connection points: 5
#     Node 32, Type 0, BuildingBlock: XOMCOT_clean_sbu_0, # of connection points: 5
#     Node 33, Type 0, BuildingBlock: XOMCOT_clean_sbu_0, # of connection points: 5
#     Node 34, Type 0, BuildingBlock: XOMCOT_clean_sbu_0, # of connection points: 5
#     Node 35, Type 0, BuildingBlock: XOMCOT_clean_sbu_0, # of connection points: 5
#     Edge 36, Type (0, 0), BuildingBlock: OJICUG_clean_linker_0, # of connection points: 2
#     Edge 37, Type (0, 0), BuildingBlock: OJICUG_clean_linker_0, # of connection points: 2
#     Edge 38, Type (0, 0), BuildingBlock: OJICUG_clean_linker_0, # of connection points: 2
#     Edge 39, Type (0, 0), BuildingBlock: OJICUG_clean_linker_0, # of connection points: 2
#     Edge 40, Type (0, 0), BuildingBlock: OJICUG_clean_linker_0, # of connection points: 2
#     Edge 41, Type (0, 0), BuildingBlock: OJICUG_clean_linker_0, # of connection points: 2
#     Edge 42, Type (0, 0), BuildingBlock: OJICUG_clean_linker_0, # of connection points: 2
#     Edge 43, Type (0, 0), BuildingBlock: OJICUG_clean_linker_0, # of connection points: 2
#     Edge 44, Type (0, 0), BuildingBlock: OJICUG_clean_linker_0, # of connection points: 2
#     Edge 45, Type (0, 0), BuildingBlock: OJICUG_clean_linker_0, # of connection points: 2
#     Edge 46, Type (0, 0), BuildingBlock: OJICUG_clean_linker_0, # of connection points: 2
#     Edge 47, Type (0, 0), BuildingBlock: OJICUG_clean_linker_0, # of connection points: 2
#     Edge 48, Type (0, 0), BuildingBlock: OJICUG_clean_linker_0, # of connection points: 2
#     Edge 49, Type (0, 0), BuildingBlock: OJICUG_clean_linker_0, # of connection points: 2
#     Edge 50, Type (0, 0), BuildingBlock: OJICUG_clean_linker_0, # of connection points: 2
#     Edge 51, Type (0, 0), BuildingBlock: OJICUG_clean_linker_0, # of connection points: 2
#     Edge 52, Type (0, 0), BuildingBlock: OJICUG_clean_linker_0, # of connection points: 2
#     Edge 53, Type (0, 0), BuildingBlock: OJICUG_clean_linker_0, # of connection points: 2
#     Edge 54, Type (0, 0), BuildingBlock: OJICUG_clean_linker_0, # of connection points: 2
#     Edge 55, Type (0, 0), BuildingBlock: OJICUG_clean_linker_0, # of connection points: 2
#     Edge 56, Type (0, 0), BuildingBlock: OJICUG_clean_linker_0, # of connection points: 2
#     Edge 57, Type (0, 0), BuildingBlock: OJICUG_clean_linker_0, # of connection points: 2
#     Edge 58, Type (0, 0), BuildingBlock: OJICUG_clean_linker_0, # of connection points: 2
#     Edge 59, Type (0, 0), BuildingBlock: OJICUG_clean_linker_0, # of connection points: 2
#     Edge 60, Type (0, 0), BuildingBlock: OJICUG_clean_linker_0, # of connection points: 2
#     Edge 61, Type (0, 0), BuildingBlock: OJICUG_clean_linker_0, # of connection points: 2
#     Edge 62, Type (0, 0), BuildingBlock: OJICUG_clean_linker_0, # of connection points: 2
#     Edge 63, Type (0, 0), BuildingBlock: OJICUG_clean_linker_0, # of connection points: 2
#     Edge 64, Type (0, 0), BuildingBlock: OJICUG_clean_linker_0, # of connection points: 2
#     Edge 65, Type (0, 0), BuildingBlock: OJICUG_clean_linker_0, # of connection points: 2
#     Edge 66, Type (0, 0), BuildingBlock: OJICUG_clean_linker_0, # of connection points: 2
#     Edge 67, Type (0, 0), BuildingBlock: OJICUG_clean_linker_0, # of connection points: 2
#     Edge 68, Type (0, 0), BuildingBlock: OJICUG_clean_linker_0, # of connection points: 2
#     Edge 69, Type (0, 0), BuildingBlock: OJICUG_clean_linker_0, # of connection points: 2
#     Edge 70, Type (0, 0), BuildingBlock: OJICUG_clean_linker_0, # of connection points: 2
#     Edge 71, Type (0, 0), BuildingBlock: OJICUG_clean_linker_0, # of connection points: 2
#     Edge 72, Type (0, 0), BuildingBlock: OJICUG_clean_linker_0, # of connection points: 2
#     Edge 73, Type (0, 0), BuildingBlock: OJICUG_clean_linker_0, # of connection points: 2
#     Edge 74, Type (0, 0), BuildingBlock: OJICUG_clean_linker_0, # of connection points: 2
#     Edge 75, Type (0, 0), BuildingBlock: OJICUG_clean_linker_0, # of connection points: 2
#     Edge 76, Type (0, 0), BuildingBlock: OJICUG_clean_linker_0, # of connection points: 2
#     Edge 77, Type (0, 0), BuildingBlock: OJICUG_clean_linker_0, # of connection points: 2
#     Edge 78, Type (0, 0), BuildingBlock: OJICUG_clean_linker_0, # of connection points: 2
#     Edge 79, Type (0, 0), BuildingBlock: OJICUG_clean_linker_0, # of connection points: 2
#     Edge 80, Type (0, 0), BuildingBlock: OJICUG_clean_linker_0, # of connection points: 2
#     Edge 81, Type (0, 0), BuildingBlock: OJICUG_clean_linker_0, # of connection points: 2
#     Edge 82, Type (0, 0), BuildingBlock: OJICUG_clean_linker_0, # of connection points: 2
#     Edge 83, Type (0, 0), BuildingBlock: OJICUG_clean_linker_0, # of connection points: 2
#     Edge 84, Type (0, 0), BuildingBlock: OJICUG_clean_linker_0, # of connection points: 2
#     Edge 85, Type (0, 0), BuildingBlock: OJICUG_clean_linker_0, # of connection points: 2
#     Edge 86, Type (0, 0), BuildingBlock: OJICUG_clean_linker_0, # of connection points: 2
#     Edge 87, Type (0, 0), BuildingBlock: OJICUG_clean_linker_0, # of connection points: 2
#     Edge 88, Type (0, 0), BuildingBlock: OJICUG_clean_linker_0, # of connection points: 2
#     Edge 89, Type (0, 0), BuildingBlock: OJICUG_clean_linker_0, # of connection points: 2
#     Edge 90, Type (0, 0), BuildingBlock: OJICUG_clean_linker_0, # of connection points: 2
#     Edge 91, Type (0, 0), BuildingBlock: OJICUG_clean_linker_0, # of connection points: 2
#     Edge 92, Type (0, 0), BuildingBlock: OJICUG_clean_linker_0, # of connection points: 2
#     Edge 93, Type (0, 0), BuildingBlock: OJICUG_clean_linker_0, # of connection points: 2
#     Edge 94, Type (0, 0), BuildingBlock: OJICUG_clean_linker_0, # of connection points: 2
#     Edge 95, Type (0, 0), BuildingBlock: OJICUG_clean_linker_0, # of connection points: 2
#     Edge 96, Type (0, 0), BuildingBlock: OJICUG_clean_linker_0, # of connection points: 2
#     Edge 97, Type (0, 0), BuildingBlock: OJICUG_clean_linker_0, # of connection points: 2
#     Edge 98, Type (0, 0), BuildingBlock: OJICUG_clean_linker_0, # of connection points: 2
#     Edge 99, Type (0, 0), BuildingBlock: OJICUG_clean_linker_0, # of connection points: 2
#     Edge 100, Type (0, 0), BuildingBlock: OJICUG_clean_linker_0, # of connection points: 2
#     Edge 101, Type (0, 0), BuildingBlock: OJICUG_clean_linker_0, # of connection points: 2
#     Edge 102, Type (0, 0), BuildingBlock: OJICUG_clean_linker_0, # of connection points: 2
#     Edge 103, Type (0, 0), BuildingBlock: OJICUG_clean_linker_0, # of connection points: 2
#     Edge 104, Type (0, 0), BuildingBlock: OJICUG_clean_linker_0, # of connection points: 2
#     Edge 105, Type (0, 0), BuildingBlock: OJICUG_clean_linker_0, # of connection points: 2
#     Edge 106, Type (0, 0), BuildingBlock: OJICUG_clean_linker_0, # of connection points: 2
#     Edge 107, Type (0, 0), BuildingBlock: OJICUG_clean_linker_0, # of connection points: 2
#     Edge 108, Type (0, 0), BuildingBlock: OJICUG_clean_linker_0, # of connection points: 2
#     Edge 109, Type (0, 0), BuildingBlock: OJICUG_clean_linker_0, # of connection points: 2
#     Edge 110, Type (0, 0), BuildingBlock: OJICUG_clean_linker_0, # of connection points: 2
#     Edge 111, Type (0, 0), BuildingBlock: OJICUG_clean_linker_0, # of connection points: 2
#     Edge 112, Type (0, 0), BuildingBlock: OJICUG_clean_linker_0, # of connection points: 2
#     Edge 113, Type (0, 0), BuildingBlock: OJICUG_clean_linker_0, # of connection points: 2
#     Edge 114, Type (0, 0), BuildingBlock: OJICUG_clean_linker_0, # of connection points: 2
#     Edge 115, Type (0, 0), BuildingBlock: OJICUG_clean_linker_0, # of connection points: 2
#     Edge 116, Type (0, 0), BuildingBlock: OJICUG_clean_linker_0, # of connection points: 2
#     Edge 117, Type (0, 0), BuildingBlock: OJICUG_clean_linker_0, # of connection points: 2
#     Edge 118, Type (0, 0), BuildingBlock: OJICUG_clean_linker_0, # of connection points: 2
#     Edge 119, Type (0, 0), BuildingBlock: OJICUG_clean_linker_0, # of connection points: 2
#     Edge 120, Type (0, 0), BuildingBlock: OJICUG_clean_linker_0, # of connection points: 2
#     Edge 121, Type (0, 0), BuildingBlock: OJICUG_clean_linker_0, # of connection points: 2
#     Edge 122, Type (0, 0), BuildingBlock: OJICUG_clean_linker_0, # of connection points: 2
#     Edge 123, Type (0, 0), BuildingBlock: OJICUG_clean_linker_0, # of connection points: 2
#     Edge 124, Type (0, 0), BuildingBlock: OJICUG_clean_linker_0, # of connection points: 2
#     Edge 125, Type (0, 0), BuildingBlock: OJICUG_clean_linker_0, # of connection points: 2
# Relax obj value: 0.123
# Max RMSD: 0.149
# Mean RMSD: 0.149
data_MOF--net-wlm--node1-XOMCOT_clean_sbu_0--edge1-OJICUG_clean_linker_0
_symmetry_space_group_name_H-M    P1
_symmetry_Int_Tables_number       1
_symmetry_cell_setting            triclinic
loop_
_symmetry_equiv_pos_as_xyz
'x, y, z'
_cell_length_a     98.779816
_cell_length_b     98.83105
_cell_length_c     13.661001
_cell_angle_alpha  89.956511
_cell_angle_beta   90.002132
_cell_angle_gamma 119.99705
loop_
_atom_site_label
_atom_site_type_symbol
_atom_site_fract_x
_atom_site_fract_y
_atom_site_fract_z
_atom_type_partial_charge
Co0 Co 0.11826 0.39196 0.22265 0.0
C1 C 0.11807 0.39222 1.0058 0.0
C2 C 0.0993 0.37083 0.06361 0.0
C3 C 0.09859 0.37011 0.96282 0.0
N4 N 0.11157 0.38465 0.09031 0.0
N5 N 0.11039 0.38357 0.9265 0.0
H6 H 0.12834 0.40374 1.00265 0.0
H7 H 0.09136 0.36192 0.11383 0.0
C8 C 0.11704 0.36384 0.31677 0.0
O9 O 0.13135 0.37264 0.34959 0.0
N10 N 0.12456 0.39935 0.35702 0.0
C11 C 0.13428 0.41418 0.38615 0.0
C12 C 0.13432 0.41487 0.48657 0.0
C13 C 0.11822 0.39143 0.44132 0.0
N14 N 0.12421 0.40055 0.52179 0.0
C15 C 0.15192 0.40946 0.19849 0.0
C16 C 0.15482 0.38456 0.13358 0.0
C17 C 0.16843 0.39882 0.15243 0.0
C18 C 0.16682 0.41152 0.18226 0.0
C19 C 0.14019 0.38304 0.15092 0.0
N20 N 0.13889 0.39508 0.1899 0.0
H21 H 0.15094 0.41951 0.21661 0.0
H22 H 0.12987 0.37198 0.13525 0.0
H23 H 0.14026 0.42418 0.33871 0.0
H24 H 0.10884 0.37943 0.44365 0.0
O25 O 0.12108 0.41222 0.18639 0.0
O26 O 0.0992 0.3922 0.24408 0.0
O27 O 0.11043 0.36974 0.26575 0.0
C28 C 0.10648 0.40648 0.21171 0.0
H29 H 0.08989 0.36052 0.91968 0.0
H30 H 0.1411 0.4253 0.52974 0.0
H31 H 0.15541 0.37447 0.10866 0.0
H32 H 0.17697 0.42297 0.19279 0.0
Co33 Co 0.6031 0.72421 0.21086 0.0
C34 C 0.60283 0.72394 0.99383 0.0
C35 C 0.62441 0.72701 0.05157 0.0
C36 C 0.62508 0.72687 0.95087 0.0
N37 N 0.61051 0.72527 0.07829 0.0
N38 N 0.6115 0.72491 0.91456 0.0
H39 H 0.59119 0.72239 0.99072 0.0
H40 H 0.63337 0.72812 0.10175 0.0
C41 C 0.63065 0.75065 0.3112 0.0
O42 O 0.62121 0.75459 0.35396 0.0
N43 N 0.59558 0.72254 0.34552 0.0
C44 C 0.58079 0.71768 0.37477 0.0
C45 C 0.58002 0.71671 0.47514 0.0
C46 C 0.60332 0.72348 0.42949 0.0
N47 N 0.59423 0.72044 0.51001 0.0
C48 C 0.58572 0.74072 0.19158 0.0
C49 C 0.61112 0.76868 0.13353 0.0
C50 C 0.59712 0.76834 0.15626 0.0
C51 C 0.58409 0.75395 0.18151 0.0
C52 C 0.61222 0.75526 0.14506 0.0
N53 N 0.59997 0.74181 0.18131 0.0
H54 H 0.5755 0.7297 0.20743 0.0
H55 H 0.62314 0.75585 0.12705 0.0
H56 H 0.57085 0.71409 0.32738 0.0
H57 H 0.61524 0.72582 0.43148 0.0
O58 O 0.5829 0.70683 0.17363 0.0
O59 O 0.60299 0.70489 0.22929 0.0
O60 O 0.62535 0.73891 0.25358 0.0
C61 C 0.58868 0.69795 0.19718 0.0
H62 H 0.6347 0.72777 0.90783 0.0
H63 H 0.56965 0.71332 0.51858 0.0
H64 H 0.62127 0.77932 0.1085 0.0
H65 H 0.57286 0.75296 0.19624 0.0
Co66 Co 0.26897 0.87606 0.21185 0.0
C67 C 0.2693 0.87612 0.99499 0.0
C68 C 0.267 0.89507 0.05265 0.0
C69 C 0.26721 0.89591 0.95197 0.0
N70 N 0.26824 0.88263 0.07938 0.0
N71 N 0.26869 0.884 0.91542 0.0
H72 H 0.27072 0.86596 0.9925 0.0
H73 H 0.26605 0.90301 0.10281 0.0
C74 C 0.24261 0.87741 0.31116 0.0
O75 O 0.23837 0.8639 0.35299 0.0
N76 N 0.27031 0.86996 0.34643 0.0
C77 C 0.27481 0.85974 0.37572 0.0
C78 C 0.27546 0.85968 0.47621 0.0
C79 C 0.26935 0.87671 0.43054 0.0
N80 N 0.27191 0.87028 0.51089 0.0
C81 C 0.25211 0.84217 0.19052 0.0
C82 C 0.22442 0.84015 0.13127 0.0
C83 C 0.2245 0.82634 0.15324 0.0
C84 C 0.23876 0.82743 0.1791 0.0
C85 C 0.23796 0.85454 0.144 0.0
N86 N 0.25126 0.85548 0.18085 0.0
H87 H 0.26304 0.84279 0.20691 0.0
H88 H 0.23757 0.865 0.12642 0.0
H89 H 0.27843 0.85342 0.32835 0.0
H90 H 0.26696 0.88625 0.43307 0.0
O91 O 0.28634 0.87312 0.17544 0.0
O92 O 0.28832 0.89511 0.23182 0.0
O93 O 0.25443 0.8838 0.25408 0.0
C94 C 0.29525 0.88774 0.19973 0.0
H95 H 0.26619 0.90459 0.90936 0.0
H96 H 0.27894 0.85281 0.52016 0.0
H97 H 0.2139 0.83988 0.10589 0.0
H98 H 0.23954 0.81706 0.19325 0.0
Co99 Co 0.39002 0.11806 0.82548 0.0
C100 C 0.39032 0.11797 0.0425 0.0
C101 C 0.36898 0.09912 0.98479 0.0
C102 C 0.36833 0.09828 0.08552 0.0
N103 N 0.38272 0.11151 0.95805 0.0
N104 N 0.38176 0.11011 0.12182 0.0
H105 H 0.40181 0.12827 0.04556 0.0
H106 H 0.36011 0.09113 0.93462 0.0
C107 C 0.36225 0.11639 0.72483 0.0
O108 O 0.37151 0.12983 0.68212 0.0
N109 N 0.39747 0.12414 0.69088 0.0
C110 C 0.41213 0.13448 0.66155 0.0
C111 C 0.41292 0.1343 0.56117 0.0
C112 C 0.38985 0.11713 0.60698 0.0
N113 N 0.39887 0.12343 0.52639 0.0
C114 C 0.40682 0.15196 0.8471 0.0
C115 C 0.38093 0.15371 0.90465 0.0
C116 C 0.39479 0.16759 0.8834 0.0
C117 C 0.40807 0.16664 0.85841 0.0
C118 C 0.38023 0.13939 0.8921 0.0
N119 N 0.39271 0.13858 0.85605 0.0
H120 H 0.41721 0.15145 0.83155 0.0
H121 H 0.36941 0.12888 0.90935 0.0
H122 H 0.422 0.14113 0.70888 0.0
H123 H 0.37809 0.10727 0.60513 0.0
O124 O 0.41038 0.12116 0.8622 0.0
O125 O 0.39046 0.09908 0.80601 0.0
O126 O 0.36772 0.11016 0.78293 0.0
C127 C 0.40476 0.10654 0.83817 0.0
H128 H 0.35884 0.0894 0.12857 0.0
H129 H 0.42319 0.14156 0.51765 0.0
H130 H 0.3706 0.15387 0.92944 0.0
H131 H 0.4192 0.17708 0.84496 0.0
Co132 Co 0.87514 0.27085 0.8145 0.0
C133 C 0.87485 0.27081 0.03156 0.0
C134 C 0.89255 0.26646 0.97406 0.0
C135 C 0.89329 0.26649 0.07472 0.0
N136 N 0.88093 0.26907 0.9472 0.0
N137 N 0.8822 0.26927 0.11084 0.0
H138 H 0.86525 0.27313 0.03464 0.0
H139 H 0.90015 0.26491 0.92406 0.0
C140 C 0.87546 0.24393 0.71399 0.0
O141 O 0.86224 0.24026 0.66989 0.0
N142 N 0.86986 0.27321 0.67964 0.0
C143 C 0.86088 0.27922 0.65048 0.0
C144 C 0.8611 0.28019 0.55018 0.0
C145 C 0.87621 0.27161 0.59558 0.0
N146 N 0.87069 0.27532 0.51519 0.0
C147 C 0.84142 0.25593 0.8286 0.0
C148 C 0.83666 0.2271 0.88707 0.0
C149 C 0.8237 0.22861 0.86301 0.0
C150 C 0.82617 0.24336 0.83631 0.0
C151 C 0.8517 0.23992 0.87652 0.0
N152 N 0.85396 0.25384 0.84095 0.0
H153 H 0.84305 0.2673 0.81316 0.0
H154 H 0.86156 0.2385 0.89479 0.0
H155 H 0.85518 0.28355 0.69794 0.0
H156 H 0.88515 0.26835 0.59332 0.0
O157 O 0.87308 0.2886 0.85293 0.0
O158 O 0.89485 0.28978 0.79894 0.0
O159 O 0.88198 0.25564 0.77162 0.0
C160 C 0.88784 0.2971 0.83081 0.0
H161 H 0.90165 0.26501 0.11788 0.0
H162 H 0.85476 0.28435 0.50686 0.0
H163 H 0.83522 0.21597 0.91015 0.0
H164 H 0.81639 0.24513 0.82135 0.0
Co165 Co 0.72199 0.60175 0.82089 0.0
C166 C 0.72141 0.60148 0.03773 0.0
C167 C 0.72399 0.62285 0.97991 0.0
C168 C 0.72398 0.62356 0.08073 0.0
N169 N 0.7225 0.60906 0.95321 0.0
N170 N 0.72234 0.61011 0.11703 0.0
H171 H 0.72022 0.58999 0.04089 0.0
H172 H 0.72498 0.63177 0.92969 0.0
C173 C 0.74898 0.62972 0.72769 0.0
O174 O 0.75437 0.62075 0.69618 0.0
N175 N 0.72091 0.59433 0.68655 0.0
C176 C 0.71541 0.57943 0.65759 0.0
C177 C 0.71472 0.57871 0.55718 0.0
C178 C 0.72263 0.60227 0.60213 0.0
N179 N 0.71927 0.59309 0.52174 0.0
C180 C 0.73928 0.5851 0.83879 0.0
C181 C 0.76616 0.61029 0.91159 0.0
C182 C 0.76653 0.59677 0.88544 0.0
C183 C 0.75265 0.58382 0.85234 0.0
C184 C 0.75261 0.61106 0.89647 0.0
N185 N 0.73972 0.59897 0.8537 0.0
H186 H 0.72867 0.57493 0.81617 0.0
H187 H 0.75271 0.62171 0.91582 0.0
H188 H 0.71115 0.56942 0.70531 0.0
H189 H 0.72547 0.61434 0.59967 0.0
O190 O 0.70468 0.58145 0.85763 0.0
O191 O 0.7026 0.60132 0.79934 0.0
O192 O 0.73635 0.62397 0.77743 0.0
C193 C 0.69572 0.58706 0.83221 0.0
H194 H 0.72485 0.63314 0.12391 0.0
H195 H 0.71079 0.56821 0.51422 0.0
H196 H 0.77636 0.62035 0.94178 0.0
H197 H 0.75221 0.57295 0.83405 0.0
Co198 Co 0.8749 0.60209 0.81569 0.0
C199 C 0.87521 0.60183 0.03249 0.0
C200 C 0.89437 0.62289 0.97431 0.0
C201 C 0.89514 0.62361 0.07502 0.0
N202 N 0.88183 0.60928 0.94791 0.0
N203 N 0.88308 0.61035 0.11196 0.0
H204 H 0.86488 0.59037 0.0351 0.0
H205 H 0.90237 0.63173 0.92391 0.0
C206 C 0.87572 0.63018 0.72522 0.0
O207 O 0.86133 0.62124 0.69407 0.0
N208 N 0.86844 0.59482 0.68133 0.0
C209 C 0.859 0.57994 0.65164 0.0
C210 C 0.85878 0.57939 0.55107 0.0
C211 C 0.87455 0.6029 0.59721 0.0
N212 N 0.86855 0.59384 0.51671 0.0
C213 C 0.84097 0.58533 0.83473 0.0
C214 C 0.83926 0.61038 0.9098 0.0
C215 C 0.82537 0.59687 0.88354 0.0
C216 C 0.82631 0.58399 0.84928 0.0
C217 C 0.85359 0.61122 0.89372 0.0
N218 N 0.85439 0.59921 0.84984 0.0
H219 H 0.84142 0.57521 0.81112 0.0
H220 H 0.86414 0.62186 0.91323 0.0
H221 H 0.85342 0.56985 0.69883 0.0
H222 H 0.88356 0.61506 0.59461 0.0
O223 O 0.87199 0.58177 0.85109 0.0
O224 O 0.89386 0.60174 0.79272 0.0
O225 O 0.88269 0.62437 0.77355 0.0
C226 C 0.88656 0.58746 0.82516 0.0
H227 H 0.90384 0.63332 0.1173 0.0
H228 H 0.85256 0.56898 0.50678 0.0
H229 H 0.8391 0.62039 0.94079 0.0
H230 H 0.81588 0.57312 0.83085 0.0
Co231 Co 0.38788 0.26993 0.82507 0.0
C232 C 0.38814 0.27025 0.04209 0.0
C233 C 0.36663 0.26734 0.9843 0.0
C234 C 0.36597 0.2675 0.08502 0.0
N235 N 0.38049 0.26897 0.95761 0.0
N236 N 0.3795 0.26937 0.12138 0.0
H237 H 0.39974 0.2717 0.04521 0.0
H238 H 0.35769 0.2663 0.9341 0.0
C239 C 0.36038 0.24366 0.72393 0.0
O240 O 0.36984 0.23969 0.68165 0.0
N241 N 0.39539 0.27149 0.69046 0.0
C242 C 0.41009 0.27597 0.66109 0.0
C243 C 0.41086 0.27694 0.56069 0.0
C244 C 0.38772 0.27078 0.60656 0.0
N245 N 0.39675 0.27358 0.52595 0.0
C246 C 0.40525 0.25345 0.84736 0.0
C247 C 0.37972 0.22544 0.90343 0.0
C248 C 0.39381 0.22583 0.88309 0.0
C249 C 0.40689 0.24025 0.8588 0.0
C250 C 0.37861 0.23884 0.89074 0.0
N251 N 0.39094 0.25232 0.85537 0.0
H252 H 0.41549 0.26451 0.83255 0.0
H253 H 0.36763 0.23823 0.90747 0.0
H254 H 0.41998 0.27927 0.70835 0.0
H255 H 0.3759 0.26872 0.60468 0.0
O256 O 0.40809 0.28729 0.862 0.0
O257 O 0.38804 0.28926 0.80595 0.0
O258 O 0.36565 0.25531 0.78217 0.0
C259 C 0.40235 0.29618 0.83799 0.0
H260 H 0.35638 0.26668 0.12803 0.0
H261 H 0.42115 0.28005 0.5171 0.0
H262 H 0.36951 0.21479 0.92774 0.0
H263 H 0.41819 0.24127 0.84605 0.0
Co264 Co 0.7222 0.11934 0.80523 0.0
C265 C 0.72188 0.11934 0.025 0.0
C266 C 0.72661 0.10206 0.96682 0.0
C267 C 0.72607 0.10084 0.06726 0.0
N268 N 0.72459 0.11409 0.93986 0.0
N269 N 0.72315 0.11177 0.10395 0.0
H270 H 0.71789 0.12766 0.02971 0.0
H271 H 0.7279 0.0943 0.91691 0.0
C272 C 0.7502 0.11547 0.7936 0.0
O273 O 0.75591 0.12507 0.86839 0.0
N274 N 0.71925 0.12397 0.67189 0.0
C275 C 0.71605 0.13515 0.64422 0.0
C276 C 0.71548 0.13537 0.54367 0.0
C277 C 0.72049 0.11744 0.58804 0.0
N278 N 0.71833 0.12428 0.50818 0.0
C279 C 0.73953 0.15064 0.88806 0.0
C280 C 0.76385 0.16158 0.75516 0.0
C281 C 0.76484 0.17116 0.83329 0.0
C282 C 0.75238 0.16568 0.89949 0.0
C283 C 0.75101 0.14654 0.74797 0.0
N284 N 0.73943 0.14086 0.81714 0.0
H285 H 0.7296 0.14709 0.9349 0.0
H286 H 0.7505 0.13935 0.68701 0.0
H287 H 0.71448 0.14278 0.69385 0.0
H288 H 0.72333 0.1082 0.58554 0.0
O289 O 0.70479 0.12193 0.84558 0.0
O290 O 0.70309 0.09967 0.79756 0.0
O291 O 0.73688 0.11203 0.75803 0.0
C292 C 0.69607 0.10702 0.82838 0.0
H293 H 0.72756 0.09242 0.10963 0.0
H294 H 0.71312 0.14311 0.5002 0.0
H295 H 0.77312 0.16553 0.70128 0.0
H296 H 0.75247 0.17306 0.95841 0.0
Co297 Co 0.60122 0.87612 0.228 0.0
C298 C 0.60101 0.87636 1.01114 0.0
C299 C 0.62252 0.89497 0.06871 0.0
C300 C 0.62318 0.89574 0.96787 0.0
N301 N 0.60867 0.88275 0.09559 0.0
N302 N 0.60963 0.88406 0.93168 0.0
H303 H 0.58943 0.86619 1.00816 0.0
H304 H 0.63148 0.90283 0.11883 0.0
C305 C 0.6284 0.87673 0.32793 0.0
O306 O 0.61866 0.86266 0.36126 0.0
N307 N 0.59363 0.86997 0.36244 0.0
C308 C 0.57881 0.86013 0.39161 0.0
C309 C 0.57806 0.86023 0.4921 0.0
C310 C 0.60141 0.87662 0.44661 0.0
N311 N 0.59231 0.87058 0.52715 0.0
C312 C 0.58438 0.84216 0.20835 0.0
C313 C 0.6099 0.84049 0.14163 0.0
C314 C 0.5962 0.82659 0.16497 0.0
C315 C 0.58309 0.8275 0.19487 0.0
C316 C 0.61067 0.85479 0.15639 0.0
N317 N 0.59839 0.85557 0.19637 0.0
H318 H 0.5741 0.84262 0.22816 0.0
H319 H 0.62143 0.86533 0.1386 0.0
H320 H 0.56887 0.85393 0.34403 0.0
H321 H 0.61333 0.88617 0.44877 0.0
O322 O 0.58098 0.87318 0.1902 0.0
O323 O 0.60088 0.89515 0.24787 0.0
O324 O 0.6234 0.88378 0.27294 0.0
C325 C 0.58664 0.88778 0.21472 0.0
H326 H 0.63278 0.90445 0.92465 0.0
H327 H 0.56766 0.85334 0.53546 0.0
H328 H 0.6201 0.84036 0.11373 0.0
H329 H 0.57208 0.81704 0.2105 0.0
Co330 Co 0.11589 0.72341 0.21825 0.0
C331 C 0.11578 0.72301 1.0014 0.0
C332 C 0.09676 0.7252 0.05919 0.0
C333 C 0.09591 0.72498 0.9585 0.0
N334 N 0.10925 0.72403 0.08583 0.0
N335 N 0.10786 0.72358 0.92188 0.0
H336 H 0.126 0.72168 0.99885 0.0
H337 H 0.08879 0.72611 0.10941 0.0
C338 C 0.1146 0.74982 0.31696 0.0
O339 O 0.12811 0.754 0.35879 0.0
N340 N 0.12206 0.72218 0.35279 0.0
C341 C 0.13237 0.7178 0.38213 0.0
C342 C 0.13243 0.71716 0.48262 0.0
C343 C 0.11526 0.72309 0.4369 0.0
N344 N 0.12174 0.7206 0.51727 0.0
C345 C 0.14976 0.74016 0.19501 0.0
C346 C 0.15182 0.76784 0.13543 0.0
C347 C 0.16564 0.7677 0.15635 0.0
C348 C 0.16451 0.75344 0.18244 0.0
C349 C 0.13742 0.75437 0.14933 0.0
N350 N 0.13647 0.74107 0.18631 0.0
H351 H 0.14911 0.72922 0.21134 0.0
H352 H 0.12696 0.75479 0.13229 0.0
H353 H 0.13875 0.71424 0.33484 0.0
H354 H 0.10567 0.7254 0.43938 0.0
O355 O 0.1188 0.70603 0.18244 0.0
O356 O 0.09683 0.70408 0.23915 0.0
O357 O 0.10819 0.738 0.26002 0.0
C358 C 0.10419 0.69713 0.20728 0.0
H359 H 0.0872 0.72595 0.91593 0.0
H360 H 0.13936 0.71376 0.52659 0.0
H361 H 0.15211 0.77835 0.10983 0.0
H362 H 0.17488 0.75261 0.19578 0.0
Co363 Co 0.27026 0.39171 0.21815 0.0
C364 C 0.27078 0.39198 1.00132 0.0
C365 C 0.26786 0.37047 0.05919 0.0
C366 C 0.26784 0.36975 0.95838 0.0
N367 N 0.2696 0.38437 0.08585 0.0
N368 N 0.2697 0.38328 0.92203 0.0
H369 H 0.27217 0.40355 0.99816 0.0
H370 H 0.26674 0.36151 0.10943 0.0
C371 C 0.24299 0.36397 0.31187 0.0
O372 O 0.23788 0.37312 0.34441 0.0
N373 N 0.2714 0.39914 0.3525 0.0
C374 C 0.27676 0.41401 0.38163 0.0
C375 C 0.27742 0.4147 0.48205 0.0
C376 C 0.26972 0.39118 0.43681 0.0
N377 N 0.27299 0.40033 0.51729 0.0
C378 C 0.2543 0.40947 0.19476 0.0
C379 C 0.22648 0.38472 0.12857 0.0
C380 C 0.22715 0.39894 0.14899 0.0
C381 C 0.24148 0.41158 0.17925 0.0
C382 C 0.23958 0.38315 0.1451 0.0
N383 N 0.25292 0.39509 0.18493 0.0
H384 H 0.26533 0.41946 0.21359 0.0
H385 H 0.23879 0.37209 0.12865 0.0
H386 H 0.28094 0.42403 0.33418 0.0
H387 H 0.26691 0.37913 0.43911 0.0
O388 O 0.28788 0.41186 0.1821 0.0
O389 O 0.28944 0.39169 0.24 0.0
O390 O 0.25553 0.36954 0.26124 0.0
C391 C 0.2966 0.40599 0.20776 0.0
H392 H 0.26682 0.3601 0.91526 0.0
H393 H 0.28124 0.42516 0.52519 0.0
H394 H 0.21579 0.37467 0.10335 0.0
H395 H 0.24279 0.42301 0.19094 0.0
Co396 Co 0.78265 0.72375 0.55241 0.0
C397 C 0.78236 0.724 0.33564 0.0
C398 C 0.76337 0.70281 0.39378 0.0
C399 C 0.76261 0.70209 0.29307 0.0
N400 N 0.7758 0.7165 0.4202 0.0
N401 N 0.77456 0.71543 0.25615 0.0
H402 H 0.7926 0.73552 0.33309 0.0
H403 H 0.75543 0.69392 0.44414 0.0
C404 C 0.78188 0.69572 0.64324 0.0
O405 O 0.79628 0.70468 0.67418 0.0
N406 N 0.78901 0.7311 0.68679 0.0
C407 C 0.79826 0.74602 0.71636 0.0
C408 C 0.79845 0.74659 0.81691 0.0
C409 C 0.78299 0.723 0.77097 0.0
N410 N 0.78887 0.7321 0.85139 0.0
C411 C 0.81659 0.74053 0.53536 0.0
C412 C 0.81844 0.71561 0.45938 0.0
C413 C 0.83229 0.72909 0.48661 0.0
C414 C 0.83128 0.74191 0.52141 0.0
C415 C 0.80408 0.71472 0.47494 0.0
N416 N 0.8032 0.72667 0.51912 0.0
H417 H 0.8161 0.7506 0.5595 0.0
H418 H 0.79356 0.70409 0.4549 0.0
H419 H 0.80373 0.7561 0.66902 0.0
H420 H 0.77412 0.7108 0.7737 0.0
O421 O 0.78557 0.74404 0.51635 0.0
O422 O 0.76365 0.7241 0.57448 0.0
O423 O 0.77488 0.70151 0.59503 0.0
C424 C 0.771 0.73838 0.54189 0.0
H425 H 0.75398 0.69233 0.25082 0.0
H426 H 0.80454 0.75704 0.86109 0.0
H427 H 0.81865 0.70565 0.42801 0.0
H428 H 0.84168 0.75275 0.54075 0.0
Co429 Co 0.26852 0.05689 0.5508 0.0
C430 C 0.26823 0.05651 0.33377 0.0
C431 C 0.28968 0.05926 0.39162 0.0
C432 C 0.29035 0.05908 0.29091 0.0
N433 N 0.27587 0.05775 0.41827 0.0
N434 N 0.27685 0.05732 0.25451 0.0
H435 H 0.25667 0.05515 0.33063 0.0
H436 H 0.2986 0.06026 0.44186 0.0
C437 C 0.29614 0.08317 0.65142 0.0
O438 O 0.28678 0.08719 0.6944 0.0
N439 N 0.26106 0.05543 0.6854 0.0
C440 C 0.24638 0.05105 0.71479 0.0
C441 C 0.24561 0.05008 0.81517 0.0
C442 C 0.26871 0.05609 0.76928 0.0
N443 N 0.25969 0.05333 0.8499 0.0
C444 C 0.25117 0.07337 0.52752 0.0
C445 C 0.27673 0.10135 0.47133 0.0
C446 C 0.26263 0.10098 0.49121 0.0
C447 C 0.24953 0.08657 0.51561 0.0
C448 C 0.27782 0.08795 0.4846 0.0
N449 N 0.26547 0.07449 0.51997 0.0
H450 H 0.24091 0.06232 0.54227 0.0
H451 H 0.28879 0.08855 0.46808 0.0
H452 H 0.2365 0.0478 0.66756 0.0
H453 H 0.2805 0.05807 0.7711 0.0
O454 O 0.24828 0.03946 0.51436 0.0
O455 O 0.26839 0.0376 0.57055 0.0
O456 O 0.29078 0.07151 0.59316 0.0
C457 C 0.25407 0.03061 0.5386 0.0
H458 H 0.2999 0.05983 0.24795 0.0
H459 H 0.23533 0.04703 0.85875 0.0
H460 H 0.28694 0.11198 0.44685 0.0
H461 H 0.23823 0.08556 0.52801 0.0
Co462 Co 0.9352 0.20984 0.54498 0.0
C463 C 0.93556 0.20991 0.32809 0.0
C464 C 0.9331 0.22876 0.38586 0.0
C465 C 0.93327 0.22959 0.2852 0.0
N466 N 0.93446 0.21639 0.4125 0.0
N467 N 0.93486 0.21776 0.24858 0.0
H468 H 0.93707 0.1998 0.32556 0.0
H469 H 0.93208 0.23666 0.43606 0.0
C470 C 0.90851 0.21082 0.64272 0.0
O471 O 0.90438 0.19734 0.68478 0.0
N472 N 0.93656 0.20378 0.67962 0.0
C473 C 0.94142 0.19385 0.70899 0.0
C474 C 0.94203 0.19378 0.80947 0.0
C475 C 0.93535 0.21039 0.7637 0.0
N476 N 0.93811 0.20411 0.84406 0.0
C477 C 0.91857 0.17594 0.52525 0.0
C478 C 0.89084 0.17359 0.46396 0.0
C479 C 0.89099 0.15988 0.48781 0.0
C480 C 0.90529 0.16113 0.51466 0.0
C481 C 0.90431 0.18806 0.47607 0.0
N482 N 0.91764 0.18917 0.51389 0.0
H483 H 0.92952 0.17666 0.5426 0.0
H484 H 0.90385 0.19845 0.45751 0.0
H485 H 0.94532 0.18776 0.66168 0.0
H486 H 0.93267 0.21973 0.76624 0.0
O487 O 0.95271 0.20711 0.50905 0.0
O488 O 0.95447 0.22901 0.5652 0.0
O489 O 0.92043 0.21735 0.58653 0.0
C490 C 0.96152 0.22173 0.53355 0.0
H491 H 0.93215 0.23822 0.24266 0.0
H492 H 0.94577 0.18713 0.85348 0.0
H493 H 0.8803 0.1732 0.43777 0.0
H494 H 0.90614 0.15084 0.53037 0.0
Co495 Co 0.05812 0.45157 0.16018 0.0
C496 C 0.0584 0.4515 0.37719 0.0
C497 C 0.03701 0.43272 0.31948 0.0
C498 C 0.03636 0.43187 0.4202 0.0
N499 N 0.05078 0.44507 0.29274 0.0
N500 N 0.04982 0.44366 0.45651 0.0
H501 H 0.06993 0.46175 0.38025 0.0
H502 H 0.02813 0.42476 0.26931 0.0
C503 C 0.03043 0.45003 0.05924 0.0
O504 O 0.03973 0.46346 1.01654 0.0
N505 N 0.06559 0.4576 0.02557 0.0
C506 C 0.08027 0.46789 0.99624 0.0
C507 C 0.08106 0.4677 0.89585 0.0
C508 C 0.05796 0.45061 0.94167 0.0
N509 N 0.06698 0.45687 0.86108 0.0
C510 C 0.07505 0.48548 0.18144 0.0
C511 C 0.04923 0.48738 0.23857 0.0
C512 C 0.06312 0.50122 0.21715 0.0
C513 C 0.07636 0.5002 0.1924 0.0
C514 C 0.04845 0.47303 0.22637 0.0
N515 N 0.0609 0.47214 0.19049 0.0
H516 H 0.08541 0.48491 0.16602 0.0
H517 H 0.03761 0.46255 0.2437 0.0
H518 H 0.09015 0.47451 0.04357 0.0
H519 H 0.04618 0.44079 0.93983 0.0
O520 O 0.07843 0.45458 0.19705 0.0
O521 O 0.05845 0.43254 0.14094 0.0
O522 O 0.03584 0.44377 0.11747 0.0
C523 C 0.07275 0.43995 0.17312 0.0
H524 H 0.02684 0.42303 0.46324 0.0
H525 H 0.09134 0.47492 0.85233 0.0
H526 H 0.03892 0.4876 0.26318 0.0
H527 H 0.08752 0.5106 0.17884 0.0
Co528 Co 0.54276 0.60451 0.14347 0.0
C529 C 0.54301 0.60498 0.36032 0.0
C530 C 0.56147 0.60183 0.30268 0.0
C531 C 0.56224 0.60194 0.40351 0.0
N532 N 0.54935 0.60363 0.27586 0.0
N533 N 0.55065 0.60395 0.43974 0.0
H534 H 0.5329 0.60651 0.36334 0.0
H535 H 0.56928 0.60064 0.25254 0.0
C536 C 0.54298 0.57771 0.04412 0.0
O537 O 0.52896 0.57356 1.0106 0.0
N538 N 0.53667 0.60603 1.00904 0.0
C539 C 0.527 0.61122 0.97993 0.0
C540 C 0.52711 0.61207 0.87944 0.0
C541 C 0.54323 0.60477 0.92483 0.0
N542 N 0.53729 0.60795 0.84432 0.0
C543 C 0.50874 0.58764 0.16266 0.0
C544 C 0.50678 0.56036 0.23013 0.0
C545 C 0.49295 0.56026 0.20608 0.0
C546 C 0.49401 0.57433 0.17583 0.0
C547 C 0.52116 0.57383 0.21568 0.0
N548 N 0.52209 0.58694 0.17533 0.0
H549 H 0.50931 0.59841 0.14241 0.0
H550 H 0.53164 0.57352 0.23385 0.0
H551 H 0.52093 0.61512 0.02755 0.0
H552 H 0.55266 0.60221 0.92262 0.0
O553 O 0.5401 0.62198 0.18098 0.0
O554 O 0.56195 0.62375 0.12325 0.0
O555 O 0.55015 0.58977 0.09881 0.0
C556 C 0.55473 0.63079 0.15622 0.0
H557 H 0.57088 0.60093 0.44671 0.0
H558 H 0.52034 0.61574 0.83613 0.0
H559 H 0.50653 0.54999 0.25829 0.0
H560 H 0.4836 0.57496 0.15964 0.0
Co561 Co 0.38878 0.93608 0.15269 0.0
C562 C 0.38819 0.9358 0.36949 0.0
C563 C 0.39001 0.95683 0.31129 0.0
C564 C 0.38996 0.95754 0.412 0.0
N565 N 0.38899 0.94324 0.2849 0.0
N566 N 0.38881 0.94431 0.44895 0.0
H567 H 0.38711 0.92437 0.3721 0.0
H568 H 0.39082 0.96565 0.26088 0.0
C569 C 0.41601 0.96424 0.06251 0.0
O570 O 0.42152 0.95536 0.03139 0.0
N571 N 0.388 0.92882 1.01832 0.0
C572 C 0.3826 0.91395 0.98861 0.0
C573 C 0.38227 0.91341 0.88805 0.0
C574 C 0.38997 0.9369 0.93421 0.0
N575 N 0.38694 0.92785 0.8537 0.0
C576 C 0.40603 0.91941 0.17177 0.0
C577 C 0.43276 0.9445 0.24689 0.0
C578 C 0.43318 0.93102 0.22059 0.0
C579 C 0.41936 0.91811 0.18631 0.0
C580 C 0.41924 0.94529 0.23085 0.0
N581 N 0.40644 0.93326 0.18692 0.0
H582 H 0.39547 0.90927 0.14813 0.0
H583 H 0.4193 0.95591 0.2504 0.0
H584 H 0.3781 0.90386 0.03579 0.0
H585 H 0.39309 0.94905 0.93161 0.0
O586 O 0.37139 0.91572 0.18794 0.0
O587 O 0.36943 0.93565 0.12958 0.0
O588 O 0.40322 0.95837 0.11068 0.0
C589 C 0.36248 0.92136 0.16191 0.0
H590 H 0.39094 0.96724 0.45426 0.0
H591 H 0.3781 0.903 0.84375 0.0
H592 H 0.44291 0.95452 0.27789 0.0
H593 H 0.41897 0.90726 0.16784 0.0
Co594 Co 0.54151 0.93602 0.15805 0.0
C595 C 0.54175 0.93577 0.37488 0.0
C596 C 0.56063 0.9571 0.31707 0.0
C597 C 0.56136 0.9578 0.41789 0.0
N598 N 0.54828 0.94334 0.29037 0.0
N599 N 0.5495 0.94438 0.45418 0.0
H600 H 0.53142 0.9243 0.37801 0.0
H601 H 0.56861 0.96598 0.26685 0.0
C602 C 0.54259 0.96403 0.06466 0.0
O603 O 0.52823 0.95509 0.033 0.0
N604 N 0.5352 0.92859 0.02371 0.0
C605 C 0.52578 0.91369 0.99478 0.0
C606 C 0.52574 0.91297 0.89437 0.0
C607 C 0.54143 0.93653 0.93928 0.0
N608 N 0.53559 0.92735 0.8589 0.0
C609 C 0.50757 0.91939 0.17567 0.0
C610 C 0.50588 0.94459 0.24811 0.0
C611 C 0.49198 0.93106 0.22212 0.0
C612 C 0.49291 0.9181 0.18915 0.0
C613 C 0.5202 0.94536 0.23307 0.0
N614 N 0.521 0.93326 0.19049 0.0
H615 H 0.508 0.90921 0.15321 0.0
H616 H 0.53075 0.95601 0.2524 0.0
H617 H 0.52003 0.90368 0.04252 0.0
H618 H 0.55065 0.94859 0.93682 0.0
O619 O 0.53848 0.9157 0.19504 0.0
O620 O 0.56046 0.93557 0.13699 0.0
O621 O 0.54944 0.95825 0.11447 0.0
C622 C 0.55307 0.92132 0.17004 0.0
H623 H 0.57012 0.96735 0.46106 0.0
H624 H 0.51916 0.90247 0.85145 0.0
H625 H 0.50573 0.95465 0.2782 0.0
H626 H 0.48248 0.90723 0.17097 0.0
Co627 Co 0.05642 0.60367 0.15699 0.0
C628 C 0.0567 0.60402 0.37402 0.0
C629 C 0.03522 0.60117 0.3162 0.0
C630 C 0.03456 0.60136 0.41691 0.0
N631 N 0.04905 0.60275 0.28953 0.0
N632 N 0.04808 0.60318 0.45329 0.0
H633 H 0.06829 0.60542 0.37713 0.0
H634 H 0.02629 0.60015 0.26598 0.0
C635 C 0.02887 0.57739 0.05596 0.0
O636 O 0.03827 0.57341 1.01308 0.0
N637 N 0.06392 0.6052 0.0224 0.0
C638 C 0.07861 0.60963 0.99304 0.0
C639 C 0.07938 0.61061 0.89266 0.0
C640 C 0.05627 0.60453 0.93852 0.0
N641 N 0.06529 0.60731 0.8579 0.0
C642 C 0.07381 0.58719 0.17974 0.0
C643 C 0.04825 0.55919 0.23557 0.0
C644 C 0.06234 0.55957 0.21542 0.0
C645 C 0.07544 0.57399 0.19127 0.0
C646 C 0.04716 0.5726 0.22277 0.0
N647 N 0.0595 0.58607 0.18752 0.0
H648 H 0.08406 0.59825 0.16505 0.0
H649 H 0.03618 0.57199 0.23942 0.0
H650 H 0.08849 0.61289 0.04031 0.0
H651 H 0.04446 0.6025 0.93668 0.0
O652 O 0.07665 0.62111 0.19371 0.0
O653 O 0.05652 0.62294 0.13758 0.0
O654 O 0.03419 0.58903 0.11436 0.0
C655 C 0.07083 0.62994 0.16967 0.0
H656 H 0.02499 0.60058 0.45988 0.0
H657 H 0.08967 0.61369 0.84909 0.0
H658 H 0.03803 0.54855 0.25982 0.0
H659 H 0.08673 0.575 0.17871 0.0
Co660 Co 0.39021 0.45117 0.16002 0.0
C661 C 0.38991 0.45116 0.37706 0.0
C662 C 0.39289 0.43261 0.31942 0.0
C663 C 0.39277 0.43181 0.42013 0.0
N664 N 0.3912 0.4448 0.29264 0.0
N665 N 0.39087 0.44345 0.45637 0.0
H666 H 0.38842 0.46128 0.38013 0.0
H667 H 0.39395 0.42473 0.2693 0.0
C668 C 0.41665 0.44995 0.06012 0.0
O669 O 0.42068 0.46334 1.01719 0.0
N670 N 0.38862 0.45706 0.02533 0.0
C671 C 0.38376 0.46699 0.99605 0.0
C672 C 0.38282 0.46682 0.89569 0.0
C673 C 0.38958 0.45028 0.94137 0.0
N674 N 0.38656 0.45635 0.86085 0.0
C675 C 0.40682 0.48508 0.17903 0.0
C676 C 0.43474 0.48755 0.23723 0.0
C677 C 0.43446 0.50124 0.21421 0.0
C678 C 0.42008 0.49991 0.18888 0.0
C679 C 0.42127 0.47306 0.2259 0.0
N680 N 0.40783 0.47188 0.18961 0.0
H681 H 0.39581 0.4843 0.16306 0.0
H682 H 0.42182 0.4627 0.24407 0.0
H683 H 0.38015 0.47332 0.04344 0.0
H684 H 0.39191 0.4407 0.93938 0.0
O685 O 0.37278 0.45398 0.19692 0.0
O686 O 0.37089 0.43199 0.14138 0.0
O687 O 0.40488 0.44358 0.11762 0.0
C688 C 0.36391 0.43933 0.17322 0.0
H689 H 0.39365 0.42309 0.46325 0.0
H690 H 0.37943 0.47379 0.85224 0.0
H691 H 0.44535 0.488 0.26235 0.0
H692 H 0.41914 0.51017 0.17392 0.0
Co693 Co 0.2668 0.20891 0.54623 0.0
C694 C 0.26653 0.209 0.32937 0.0
C695 C 0.2878 0.22793 0.38704 0.0
C696 C 0.28843 0.22877 0.28634 0.0
N697 N 0.27411 0.2155 0.41377 0.0
N698 N 0.27503 0.21687 0.24979 0.0
H699 H 0.25495 0.19884 0.3269 0.0
H700 H 0.2967 0.23587 0.4372 0.0
C701 C 0.29446 0.21015 0.64544 0.0
O702 O 0.28514 0.19662 0.687 0.0
N703 N 0.25936 0.20279 0.68078 0.0
C704 C 0.24463 0.19262 0.71005 0.0
C705 C 0.24391 0.19255 0.81054 0.0
C706 C 0.26708 0.20953 0.7649 0.0
N707 N 0.25808 0.20312 0.84524 0.0
C708 C 0.24981 0.17498 0.52535 0.0
C709 C 0.27552 0.17309 0.4653 0.0
C710 C 0.2617 0.15925 0.48797 0.0
C711 C 0.2485 0.16027 0.51414 0.0
C712 C 0.27629 0.18744 0.47775 0.0
N713 N 0.26392 0.18833 0.51501 0.0
H714 H 0.23949 0.17554 0.54221 0.0
H715 H 0.2871 0.19792 0.45984 0.0
H716 H 0.23468 0.18632 0.66264 0.0
H717 H 0.27903 0.21905 0.76744 0.0
O718 O 0.24651 0.20605 0.50989 0.0
O719 O 0.26658 0.22798 0.56647 0.0
O720 O 0.28907 0.21659 0.58847 0.0
C721 C 0.25228 0.22067 0.53434 0.0
H722 H 0.29813 0.23744 0.24373 0.0
H723 H 0.23356 0.18572 0.85448 0.0
H724 H 0.28579 0.17287 0.43975 0.0
H725 H 0.2374 0.14985 0.52878 0.0
Co726 Co 0.78281 0.05666 0.56377 0.0
C727 C 0.78256 0.05619 0.34707 0.0
C728 C 0.76364 0.05855 0.40481 0.0
C729 C 0.76282 0.05835 0.30405 0.0
N730 N 0.77606 0.05727 0.43151 0.0
N731 N 0.77472 0.05685 0.26743 0.0
H732 H 0.79273 0.05478 0.34465 0.0
H733 H 0.75572 0.05954 0.45502 0.0
C734 C 0.78239 0.08349 0.66114 0.0
O735 O 0.79649 0.08786 0.69425 0.0
N736 N 0.78908 0.05542 0.69816 0.0
C737 C 0.79893 0.05045 0.7275 0.0
C738 C 0.79902 0.04987 0.82808 0.0
C739 C 0.78257 0.05676 0.78238 0.0
N740 N 0.78877 0.05391 0.86277 0.0
C741 C 0.81677 0.07364 0.54292 0.0
C742 C 0.81854 0.10077 0.474 0.0
C743 C 0.83243 0.10094 0.49757 0.0
C744 C 0.83146 0.08695 0.5286 0.0
C745 C 0.80421 0.08729 0.48969 0.0
N746 N 0.80339 0.07428 0.53074 0.0
H747 H 0.81627 0.06292 0.56361 0.0
H748 H 0.79368 0.08753 0.47174 0.0
H749 H 0.80492 0.04644 0.68007 0.0
H750 H 0.77326 0.05949 0.78502 0.0
O751 O 0.78565 0.03928 0.52704 0.0
O752 O 0.76375 0.03732 0.58521 0.0
O753 O 0.77525 0.0713 0.60757 0.0
C754 C 0.77107 0.03038 0.55237 0.0
H755 H 0.75417 0.05942 0.26146 0.0
H756 H 0.80559 0.04603 0.87209 0.0
H757 H 0.81872 0.11107 0.44524 0.0
H758 H 0.8419 0.08637 0.5445 0.0
Co759 Co 0.93577 0.72449 0.55321 0.0
C760 C 0.93634 0.72476 0.33644 0.0
C761 C 0.93431 0.70364 0.39458 0.0
C762 C 0.93436 0.70293 0.29387 0.0
N763 N 0.93546 0.71728 0.421 0.0
N764 N 0.93565 0.71622 0.25694 0.0
H765 H 0.93754 0.73624 0.33392 0.0
H766 H 0.93342 0.69478 0.44494 0.0
C767 C 0.90857 0.69631 0.64369 0.0
O768 O 0.90302 0.70517 0.67466 0.0
N769 N 0.93666 0.7318 0.68756 0.0
C770 C 0.94226 0.74671 0.71711 0.0
C771 C 0.94264 0.74728 0.81766 0.0
C772 C 0.93462 0.72371 0.77174 0.0
N773 N 0.9378 0.73281 0.85215 0.0
C774 C 0.91839 0.74105 0.53601 0.0
C775 C 0.89175 0.71601 0.4596 0.0
C776 C 0.89124 0.72942 0.48692 0.0
C777 C 0.90501 0.7423 0.52193 0.0
C778 C 0.9053 0.71526 0.4753 0.0
N779 N 0.91806 0.72727 0.51965 0.0
H780 H 0.9289 0.75117 0.56038 0.0
H781 H 0.90528 0.70468 0.45523 0.0
H782 H 0.94684 0.75679 0.66975 0.0
H783 H 0.93134 0.71153 0.77446 0.0
O784 O 0.95312 0.74484 0.51736 0.0
O785 O 0.95515 0.72494 0.57562 0.0
O786 O 0.92138 0.7022 0.59562 0.0
C787 C 0.96206 0.73921 0.54305 0.0
H788 H 0.9333 0.69319 0.25164 0.0
H789 H 0.94697 0.75773 0.86181 0.0
H790 H 0.88164 0.70601 0.42809 0.0
H791 H 0.90534 0.75308 0.54135 0.0
Co792 Co 0.4501 0.0584 0.88867 0.0
C793 C 0.44977 0.05869 0.67183 0.0
C794 C 0.43087 0.03738 0.72968 0.0
C795 C 0.43015 0.03667 0.62886 0.0
N796 N 0.44324 0.05114 0.75637 0.0
N797 N 0.44202 0.05009 0.59254 0.0
H798 H 0.46012 0.07015 0.66867 0.0
H799 H 0.42291 0.02849 0.77993 0.0
C800 C 0.44906 0.03037 0.98143 0.0
O801 O 0.46342 0.03932 1.01304 0.0
N802 N 0.45651 0.06578 0.02299 0.0
C803 C 0.466 0.08067 0.05197 0.0
C804 C 0.46604 0.08138 0.15238 0.0
C805 C 0.45025 0.05785 0.1074 0.0
N806 N 0.45612 0.06702 0.18781 0.0
C807 C 0.48404 0.075 0.86981 0.0
C808 C 0.4856 0.04974 0.79704 0.0
C809 C 0.49953 0.06325 0.82268 0.0
C810 C 0.49867 0.07624 0.85577 0.0
C811 C 0.47131 0.04902 0.81256 0.0
N812 N 0.47058 0.06114 0.85535 0.0
H813 H 0.48366 0.0852 0.8924 0.0
H814 H 0.46073 0.03838 0.79344 0.0
H815 H 0.47179 0.09067 1.00428 0.0
H816 H 0.44097 0.04581 0.10982 0.0
O817 O 0.4531 0.07874 0.85237 0.0
O818 O 0.43117 0.05885 0.91073 0.0
O819 O 0.44219 0.03615 0.93181 0.0
C820 C 0.43852 0.07311 0.878 0.0
H821 H 0.42139 0.02712 0.5857 0.0
H822 H 0.47265 0.09187 0.19534 0.0
H823 H 0.48569 0.03965 0.76688 0.0
H824 H 0.50914 0.08711 0.87364 0.0
Co825 Co 0.93685 0.39049 0.88289 0.0
C826 C 0.93657 0.39016 0.66587 0.0
C827 C 0.95804 0.39295 0.72369 0.0
C828 C 0.95869 0.39276 0.62297 0.0
N829 N 0.94422 0.39141 0.75036 0.0
N830 N 0.94519 0.39097 0.58659 0.0
H831 H 0.925 0.38878 0.66275 0.0
H832 H 0.96696 0.39395 0.77391 0.0
C833 C 0.9644 0.4167 0.98404 0.0
O834 O 0.955 0.4207 0.02674 0.0
N835 N 0.92935 0.38897 1.01749 0.0
C836 C 0.91467 0.38458 0.04687 0.0
C837 C 0.91389 0.3836 0.14725 0.0
C838 C 0.93699 0.3896 0.10137 0.0
N839 N 0.92797 0.38684 0.18199 0.0
C840 C 0.91956 0.40705 0.86018 0.0
C841 C 0.94515 0.43503 0.80438 0.0
C842 C 0.93106 0.43467 0.82439 0.0
C843 C 0.91795 0.42027 0.84856 0.0
C844 C 0.94621 0.42161 0.81725 0.0
N845 N 0.93385 0.40814 0.85249 0.0
H846 H 0.90929 0.396 0.87481 0.0
H847 H 0.95718 0.42219 0.80065 0.0
H848 H 0.90479 0.38136 0.99961 0.0
H849 H 0.94878 0.39159 0.1032 0.0
O850 O 0.91661 0.37317 0.84602 0.0
O851 O 0.93663 0.37114 0.9021 0.0
O852 O 0.95909 0.40507 0.92566 0.0
C853 C 0.92232 0.36424 0.87002 0.0
H854 H 0.96825 0.3935 0.58 0.0
H855 H 0.90362 0.38055 0.19083 0.0
H856 H 0.95538 0.44566 0.78013 0.0
H857 H 0.90666 0.41927 0.86104 0.0
Co858 Co 0.60248 0.54105 0.90038 0.0
C859 C 0.60277 0.54104 0.68054 0.0
C860 C 0.59864 0.5587 0.73895 0.0
C861 C 0.59916 0.55992 0.63851 0.0
N862 N 0.6003 0.54646 0.76577 0.0
N863 N 0.6017 0.54874 0.60168 0.0
H864 H 0.60643 0.53247 0.67564 0.0
H865 H 0.59757 0.56658 0.78901 0.0
C866 C 0.57471 0.54534 0.91053 0.0
O867 O 0.56904 0.53586 0.83511 0.0
N868 N 0.6052 0.53626 0.03374 0.0
C869 C 0.60814 0.52491 0.06148 0.0
C870 C 0.60866 0.52466 0.16205 0.0
C871 C 0.60407 0.54287 0.11754 0.0
N872 N 0.60605 0.53591 0.19744 0.0
C873 C 0.58524 0.50978 0.8176 0.0
C874 C 0.56055 0.49897 0.94764 0.0
C875 C 0.55975 0.48933 0.87033 0.0
C876 C 0.57239 0.49474 0.80558 0.0
C877 C 0.57341 0.51399 0.95541 0.0
N878 N 0.58516 0.51961 0.88748 0.0
H879 H 0.59532 0.51326 0.7723 0.0
H880 H 0.5738 0.52119 1.016 0.0
H881 H 0.60958 0.51719 1.01188 0.0
H882 H 0.60146 0.55227 0.11996 0.0
O883 O 0.61983 0.53833 0.8607 0.0
O884 O 0.62166 0.56063 0.90911 0.0
O885 O 0.5879 0.54851 0.94706 0.0
C886 C 0.62863 0.55322 0.87847 0.0
H887 H 0.5979 0.56849 0.59623 0.0
H888 H 0.61083 0.51679 0.2056 0.0
H889 H 0.55115 0.49504 1.00054 0.0
H890 H 0.57246 0.48732 0.74751 0.0
Co891 Co 0.7242 0.78499 0.48397 0.0
C892 C 0.72445 0.78528 0.70103 0.0
C893 C 0.70246 0.76747 0.64361 0.0
C894 C 0.70176 0.76672 0.74427 0.0
N895 N 0.71664 0.77917 0.61669 0.0
N896 N 0.7156 0.77788 0.78034 0.0
H897 H 0.73634 0.79494 0.70405 0.0
H898 H 0.69334 0.75983 0.59364 0.0
C899 C 0.69682 0.78434 0.383 0.0
O900 O 0.70627 0.79758 0.33882 0.0
N901 N 0.73186 0.79029 0.34911 0.0
C902 C 0.74684 0.79937 0.31998 0.0
C903 C 0.74759 0.79914 0.21968 0.0
C904 C 0.72393 0.78388 0.26507 0.0
N905 N 0.73315 0.78945 0.18468 0.0
C906 C 0.74267 0.81873 0.49734 0.0
C907 C 0.71838 0.82312 0.55627 0.0
C908 C 0.73277 0.83619 0.53216 0.0
C909 C 0.74515 0.83391 0.50512 0.0
C910 C 0.71635 0.80816 0.54563 0.0
N911 N 0.72812 0.80608 0.50997 0.0
H912 H 0.7525 0.81725 0.48169 0.0
H913 H 0.70514 0.79822 0.564 0.0
H914 H 0.75685 0.80514 0.36748 0.0
H915 H 0.71177 0.77487 0.26282 0.0
O916 O 0.74413 0.78728 0.52274 0.0
O917 O 0.72367 0.7654 0.46894 0.0
O918 O 0.7021 0.77792 0.44085 0.0
C919 C 0.73799 0.77252 0.50099 0.0
H920 H 0.69196 0.7583 0.78745 0.0
H921 H 0.75809 0.80555 0.17638 0.0
H922 H 0.70861 0.82441 0.57957 0.0
H923 H 0.75664 0.84377 0.49006 0.0
Co924 Co 0.2088 0.93715 0.48853 0.0
C925 C 0.20889 0.93754 0.70555 0.0
C926 C 0.22758 0.93478 0.64775 0.0
C927 C 0.22841 0.93494 0.74848 0.0
N928 N 0.2153 0.93631 0.62106 0.0
N929 N 0.21668 0.9367 0.78483 0.0
H930 H 0.19869 0.93889 0.70867 0.0
H931 H 0.2355 0.93378 0.59754 0.0
C932 C 0.2101 0.91088 0.38799 0.0
O933 O 0.19666 0.90683 0.34572 0.0
N934 N 0.20277 0.9386 0.35393 0.0
C935 C 0.19253 0.94305 0.32457 0.0
C936 C 0.19271 0.94401 0.22418 0.0
C937 C 0.20972 0.93789 0.27001 0.0
N938 N 0.20349 0.94068 0.18941 0.0
C939 C 0.17491 0.92047 0.5109 0.0
C940 C 0.17271 0.89264 0.56847 0.0
C941 C 0.15893 0.89286 0.54777 0.0
C942 C 0.16012 0.90719 0.5227 0.0
C943 C 0.18714 0.90611 0.55536 0.0
N944 N 0.18816 0.91949 0.51934 0.0
H945 H 0.17561 0.93146 0.49544 0.0
H946 H 0.19757 0.90562 0.57227 0.0
H947 H 0.18595 0.94637 0.37186 0.0
H948 H 0.21951 0.93587 0.26813 0.0
O949 O 0.20592 0.95453 0.52512 0.0
O950 O 0.22791 0.95647 0.46882 0.0
O951 O 0.21646 0.92257 0.44595 0.0
C952 C 0.22056 0.96342 0.50086 0.0
H953 H 0.23721 0.93417 0.79149 0.0
H954 H 0.18552 0.94711 0.18062 0.0
H955 H 0.17237 0.88207 0.59334 0.0
H956 H 0.14978 0.90808 0.50962 0.0
Co957 Co 0.05518 0.26995 0.49074 0.0
C958 C 0.05454 0.26968 0.70753 0.0
C959 C 0.05687 0.29094 0.64955 0.0
C960 C 0.05683 0.29165 0.75038 0.0
N961 N 0.05554 0.27721 0.62297 0.0
N962 N 0.05535 0.27827 0.78679 0.0
H963 H 0.0535 0.25825 0.71072 0.0
H964 H 0.05776 0.2998 0.59922 0.0
C965 C 0.08248 0.29776 0.3988 0.0
O966 O 0.08764 0.28859 0.36741 0.0
N967 N 0.05425 0.26258 0.35646 0.0
C968 C 0.04876 0.24768 0.32745 0.0
C969 C 0.04809 0.24697 0.22706 0.0
C970 C 0.05598 0.27053 0.27205 0.0
N971 N 0.05263 0.26135 0.1916 0.0
C972 C 0.07231 0.25312 0.50991 0.0
C973 C 0.09918 0.27825 0.58331 0.0
C974 C 0.09954 0.26474 0.55684 0.0
C975 C 0.08566 0.25181 0.5236 0.0
C976 C 0.08565 0.27905 0.56812 0.0
N977 N 0.07278 0.26701 0.52481 0.0
H978 H 0.0617 0.24297 0.48709 0.0
H979 H 0.08577 0.2897 0.58758 0.0
H980 H 0.04444 0.23766 0.3751 0.0
H981 H 0.05882 0.28259 0.26974 0.0
O982 O 0.0377 0.24968 0.52653 0.0
O983 O 0.03588 0.26967 0.46794 0.0
O984 O 0.06979 0.29218 0.44791 0.0
C985 C 0.02886 0.25539 0.50038 0.0
H986 H 0.05757 0.30118 0.79346 0.0
H987 H 0.04414 0.23646 0.1842 0.0
H988 H 0.10939 0.28829 0.61364 0.0
H989 H 0.08521 0.24094 0.50518 0.0
Co990 Co 0.20776 0.26963 0.48564 0.0
C991 C 0.20808 0.26932 0.7025 0.0
C992 C 0.22704 0.29058 0.64464 0.0
C993 C 0.22776 0.2913 0.74545 0.0
N994 N 0.21464 0.27686 0.61796 0.0
N995 N 0.21584 0.27792 0.78177 0.0
H996 H 0.19768 0.2579 0.70568 0.0
H997 H 0.23503 0.29945 0.5944 0.0
C998 C 0.20909 0.29785 0.39331 0.0
O999 O 0.1947 0.28906 0.36174 0.0
N1000 N 0.20132 0.26228 0.3513 0.0
C1001 C 0.19177 0.24741 0.32229 0.0
C1002 C 0.19172 0.2467 0.22189 0.0
C1003 C 0.20759 0.27021 0.2669 0.0
N1004 N 0.20169 0.26105 0.18649 0.0
C1005 C 0.17386 0.25311 0.50501 0.0
C1006 C 0.17233 0.27839 0.57771 0.0
C1007 C 0.15837 0.26484 0.5528 0.0
C1008 C 0.15924 0.25185 0.51962 0.0
C1009 C 0.18662 0.27914 0.56159 0.0
N1010 N 0.18732 0.26699 0.51891 0.0
H1011 H 0.17424 0.24291 0.4826 0.0
H1012 H 0.19721 0.28978 0.58041 0.0
H1013 H 0.18595 0.2374 0.36993 0.0
H1014 H 0.21691 0.28224 0.26448 0.0
O1015 O 0.20459 0.24922 0.52185 0.0
O1016 O 0.22661 0.26902 0.46363 0.0
O1017 O 0.21583 0.29191 0.44265 0.0
C1018 C 0.21915 0.25475 0.49621 0.0
H1019 H 0.23654 0.30083 0.78861 0.0
H1020 H 0.18507 0.23622 0.17892 0.0
H1021 H 0.17225 0.28848 0.60794 0.0
H1022 H 0.14876 0.24096 0.50223 0.0
Co1023 Co 0.72412 0.93729 0.47896 0.0
C1024 C 0.72437 0.93763 0.69903 0.0
C1025 C 0.70231 0.93263 0.6399 0.0
C1026 C 0.70154 0.93321 0.7402 0.0
N1027 N 0.71643 0.93477 0.61357 0.0
N1028 N 0.71543 0.93633 0.77752 0.0
H1029 H 0.73662 0.94137 0.70421 0.0
H1030 H 0.69331 0.93138 0.5896 0.0
C1031 C 0.69229 0.90925 0.46613 0.0
O1032 O 0.69615 0.90348 0.54083 0.0
N1033 N 0.73168 0.94037 0.34555 0.0
C1034 C 0.74599 0.94349 0.31688 0.0
C1035 C 0.74672 0.94436 0.21628 0.0
C1036 C 0.72388 0.93944 0.26237 0.0
N1037 N 0.7328 0.94179 0.18189 0.0
C1038 C 0.73807 0.9199 0.56131 0.0
C1039 C 0.72492 0.8958 0.42698 0.0
C1040 C 0.7335 0.89474 0.50507 0.0
C1041 C 0.74035 0.90709 0.57203 0.0
C1042 C 0.72264 0.9086 0.42045 0.0
N1043 N 0.72844 0.92007 0.49021 0.0
H1044 H 0.74434 0.92974 0.60881 0.0
H1045 H 0.71598 0.90916 0.35948 0.0
H1046 H 0.75516 0.94472 0.36576 0.0
H1047 H 0.71194 0.93707 0.26094 0.0
O1048 O 0.7441 0.95463 0.51966 0.0
O1049 O 0.72354 0.9564 0.47204 0.0
O1050 O 0.70215 0.92263 0.43129 0.0
C1051 C 0.73792 0.96338 0.50291 0.0
H1052 H 0.69173 0.9321 0.78199 0.0
H1053 H 0.7566 0.94629 0.17194 0.0
H1054 H 0.7197 0.88663 0.37258 0.0
H1055 H 0.74761 0.90695 0.631 0.0
Co1056 Co 0.05554 0.78455 0.49114 0.0
C1057 C 0.05522 0.7845 0.70801 0.0
C1058 C 0.05749 0.76553 0.65036 0.0
C1059 C 0.05727 0.76469 0.75104 0.0
N1060 N 0.05627 0.77799 0.62363 0.0
N1061 N 0.05581 0.77661 0.78758 0.0
H1062 H 0.05382 0.79467 0.71049 0.0
H1063 H 0.05842 0.75758 0.60021 0.0
C1064 C 0.08187 0.78312 0.39171 0.0
O1065 O 0.08609 0.79661 0.34949 0.0
N1066 N 0.0542 0.79065 0.35656 0.0
C1067 C 0.04976 0.80091 0.32729 0.0
C1068 C 0.04911 0.80097 0.2268 0.0
C1069 C 0.05513 0.78387 0.27246 0.0
N1070 N 0.05259 0.79033 0.19211 0.0
C1071 C 0.0724 0.81843 0.51276 0.0
C1072 C 0.10012 0.82046 0.57128 0.0
C1073 C 0.10002 0.83427 0.54962 0.0
C1074 C 0.08574 0.83317 0.52415 0.0
C1075 C 0.08658 0.80607 0.55862 0.0
N1076 N 0.07326 0.80513 0.52209 0.0
H1077 H 0.06146 0.81781 0.4967 0.0
H1078 H 0.08698 0.79561 0.57606 0.0
H1079 H 0.04619 0.80727 0.37465 0.0
H1080 H 0.05748 0.77431 0.26992 0.0
O1081 O 0.03818 0.7875 0.52755 0.0
O1082 O 0.03619 0.7655 0.47123 0.0
O1083 O 0.07007 0.77679 0.44901 0.0
C1084 C 0.02926 0.77287 0.50334 0.0
H1085 H 0.05826 0.756 0.79367 0.0
H1086 H 0.04567 0.80787 0.18286 0.0
H1087 H 0.11065 0.82073 0.59639 0.0
H1088 H 0.08496 0.84355 0.51031 0.0
Co1089 Co 0.93511 0.54259 0.87938 0.0
C1090 C 0.93484 0.54264 0.66237 0.0
C1091 C 0.95622 0.56143 0.72005 0.0
C1092 C 0.95687 0.56227 0.61933 0.0
N1093 N 0.94246 0.54908 0.74681 0.0
N1094 N 0.94341 0.55048 0.58304 0.0
H1095 H 0.92332 0.53239 0.65932 0.0
H1096 H 0.9651 0.5694 0.77021 0.0
C1097 C 0.96282 0.54421 0.98056 0.0
O1098 O 0.95353 0.53077 0.0232 0.0
N1099 N 0.92763 0.53658 1.01399 0.0
C1100 C 0.91295 0.52628 0.0433 0.0
C1101 C 0.91216 0.52647 0.14369 0.0
C1102 C 0.93525 0.54357 0.09789 0.0
N1103 N 0.92623 0.5373 0.17848 0.0
C1104 C 0.91827 0.50868 0.85846 0.0
C1105 C 0.94412 0.50685 0.80128 0.0
C1106 C 0.93025 0.49299 0.82268 0.0
C1107 C 0.91698 0.49398 0.84748 0.0
C1108 C 0.94486 0.52119 0.81347 0.0
N1109 N 0.93239 0.52204 0.84933 0.0
H1110 H 0.90789 0.50923 0.87391 0.0
H1111 H 0.95569 0.53168 0.79613 0.0
H1112 H 0.90308 0.51965 0.99595 0.0
H1113 H 0.94703 0.5534 0.09975 0.0
O1114 O 0.91478 0.5395 0.84224 0.0
O1115 O 0.9347 0.56159 0.89826 0.0
O1116 O 0.9574 0.55046 0.92229 0.0
C1117 C 0.92041 0.55413 0.86592 0.0
H1118 H 0.96638 0.57113 0.57628 0.0
H1119 H 0.90187 0.51924 0.1872 0.0
H1120 H 0.95444 0.50665 0.77665 0.0
H1121 H 0.90585 0.48356 0.86106 0.0
Co1122 Co 0.44964 0.38965 0.88915 0.0
C1123 C 0.44983 0.38962 0.67216 0.0
C1124 C 0.43194 0.39365 0.72999 0.0
C1125 C 0.43114 0.39356 0.62941 0.0
N1126 N 0.4437 0.39125 0.75659 0.0
N1127 N 0.44236 0.39098 0.59273 0.0
H1128 H 0.45936 0.3872 0.66954 0.0
H1129 H 0.42438 0.39523 0.78016 0.0
C1130 C 0.44966 0.41684 0.98784 0.0
O1131 O 0.46297 0.42056 0.03079 0.0
N1132 N 0.45506 0.38746 0.02398 0.0
C1133 C 0.46402 0.38141 0.05326 0.0
C1134 C 0.46406 0.38077 0.15369 0.0
C1135 C 0.44892 0.38933 0.10816 0.0
N1136 N 0.45463 0.38585 0.18836 0.0
C1137 C 0.48335 0.4045 0.87454 0.0
C1138 C 0.48811 0.43323 0.81376 0.0
C1139 C 0.50106 0.43177 0.83883 0.0
C1140 C 0.49859 0.41707 0.86656 0.0
C1141 C 0.47307 0.42042 0.82458 0.0
N1142 N 0.4708 0.40657 0.86142 0.0
H1143 H 0.48172 0.39317 0.89106 0.0
H1144 H 0.46321 0.42181 0.80585 0.0
H1145 H 0.46946 0.37679 1.00587 0.0
H1146 H 0.44026 0.39296 0.11102 0.0
O1147 O 0.4516 0.37181 0.85144 0.0
O1148 O 0.42992 0.37076 0.90606 0.0
O1149 O 0.44293 0.40498 0.93151 0.0
C1150 C 0.43686 0.36337 0.87434 0.0
H1151 H 0.42293 0.39537 0.58699 0.0
H1152 H 0.47004 0.37626 0.19764 0.0
H1153 H 0.48954 0.44433 0.78989 0.0
H1154 H 0.50837 0.41533 0.88236 0.0
Co1155 Co 0.60273 0.05805 0.8877 0.0
C1156 C 0.60326 0.0583 0.67089 0.0
C1157 C 0.60099 0.03706 0.72878 0.0
C1158 C 0.60102 0.03636 0.62796 0.0
N1159 N 0.60228 0.05077 0.75543 0.0
N1160 N 0.60247 0.04973 0.59161 0.0
H1161 H 0.60429 0.06973 0.66773 0.0
H1162 H 0.60014 0.02821 0.77905 0.0
C1163 C 0.57578 0.03006 0.98087 0.0
O1164 O 0.5704 0.03904 1.0125 0.0
N1165 N 0.60375 0.06545 0.02202 0.0
C1166 C 0.6091 0.08033 0.05101 0.0
C1167 C 0.60977 0.08105 0.15142 0.0
C1168 C 0.60211 0.05753 0.10642 0.0
N1169 N 0.60537 0.06669 0.18685 0.0
C1170 C 0.58547 0.0747 0.86863 0.0
C1171 C 0.55853 0.04946 0.79687 0.0
C1172 C 0.55821 0.06303 0.82214 0.0
C1173 C 0.57212 0.076 0.85472 0.0
C1174 C 0.57207 0.04867 0.81226 0.0
N1175 N 0.58498 0.06079 0.85464 0.0
H1176 H 0.5961 0.08489 0.89065 0.0
H1177 H 0.57195 0.038 0.79331 0.0
H1178 H 0.61329 0.09034 1.00335 0.0
H1179 H 0.59938 0.0455 0.1088 0.0
O1180 O 0.62 0.07838 0.85107 0.0
O1181 O 0.62217 0.05858 0.90941 0.0
O1182 O 0.58841 0.03581 0.93108 0.0
C1183 C 0.62901 0.07283 0.87655 0.0
H1184 H 0.60032 0.02684 0.58483 0.0
H1185 H 0.61361 0.09153 0.19435 0.0
H1186 H 0.54831 0.03938 0.76704 0.0
H1187 H 0.5726 0.08692 0.87227 0.0
C1188 C 0.08182 0.40732 0.19901 0.0
C1189 C 0.09822 0.4154 0.20201 0.0
H1190 H 0.06103 0.40876 0.18654 0.0
C1191 C 0.10635 0.4318 0.19597 0.0
H1192 H 0.07522 0.39468 0.20313 0.0
C1193 C 0.09815 0.43995 0.18804 0.0
C1194 C 0.08173 0.43177 0.18385 0.0
H1195 H 0.11901 0.4383 0.19843 0.0
H1196 H 0.10462 0.45258 0.18383 0.0
C1197 C 0.07368 0.41539 0.18913 0.0
C1198 C 0.55502 0.65628 0.17299 0.0
C1199 C 0.5631 0.64795 0.16697 0.0
H1200 H 0.55684 0.67882 0.18558 0.0
C1201 C 0.57949 0.65619 0.17087 0.0
H1202 H 0.54237 0.6502 0.16988 0.0
C1203 C 0.58769 0.67239 0.18142 0.0
C1204 C 0.5797 0.68079 0.18643 0.0
H1205 H 0.58604 0.6501 0.16682 0.0
H1206 H 0.60034 0.67837 0.1846 0.0
C1207 C 0.56328 0.67262 0.18156 0.0
C1208 C 0.33706 0.896 0.17734 0.0
C1209 C 0.34529 0.91239 0.1713 0.0
H1210 H 0.31455 0.87518 0.18934 0.0
C1211 C 0.33694 0.92044 0.17426 0.0
H1212 H 0.34323 0.88952 0.17495 0.0
C1213 C 0.32073 0.91234 0.18406 0.0
C1214 C 0.31242 0.89596 0.18929 0.0
H1215 H 0.34295 0.93308 0.1702 0.0
H1216 H 0.31468 0.91894 0.1866 0.0
C1217 C 0.32069 0.88781 0.18516 0.0
C1218 C 0.41389 0.07396 0.86461 0.0
C1219 C 0.43029 0.08205 0.86785 0.0
H1220 H 0.39309 0.07537 0.85173 0.0
C1221 C 0.43842 0.09845 0.86162 0.0
H1222 H 0.40729 0.06133 0.86881 0.0
C1223 C 0.4302 0.10659 0.85339 0.0
C1224 C 0.41377 0.09839 0.84904 0.0
H1225 H 0.45107 0.10496 0.86424 0.0
H1226 H 0.43666 0.11922 0.8491 0.0
C1227 C 0.40575 0.08202 0.85443 0.0
C1228 C 0.88849 0.32273 0.84589 0.0
C1229 C 0.89642 0.31425 0.84157 0.0
H1230 H 0.89052 0.34537 0.85664 0.0
C1231 C 0.9128 0.32233 0.84669 0.0
H1232 H 0.87585 0.31678 0.84171 0.0
C1233 C 0.92112 0.33855 0.85672 0.0
C1234 C 0.91326 0.34708 0.85998 0.0
H1235 H 0.91923 0.31611 0.84386 0.0
H1236 H 0.93376 0.34442 0.86081 0.0
C1237 C 0.89686 0.33906 0.85398 0.0
C1238 C 0.65389 0.57785 0.85464 0.0
C1239 C 0.64574 0.56153 0.86438 0.0
H1240 H 0.67598 0.5986 0.83579 0.0
C1241 C 0.65412 0.55348 0.86242 0.0
H1242 H 0.64774 0.58436 0.85548 0.0
C1243 C 0.67045 0.56172 0.85265 0.0
C1244 C 0.67854 0.57807 0.84264 0.0
H1245 H 0.6481 0.54089 0.87014 0.0
H1246 H 0.6767 0.55532 0.85228 0.0
C1247 C 0.67007 0.586 0.84303 0.0
C1248 C 0.89497 0.55405 0.85031 0.0
C1249 C 0.91139 0.56227 0.85451 0.0
H1250 H 0.87408 0.55564 0.8394 0.0
C1251 C 0.91941 0.57863 0.84849 0.0
H1252 H 0.88852 0.54142 0.85507 0.0
C1253 C 0.91124 0.58667 0.83795 0.0
C1254 C 0.89484 0.57856 0.83502 0.0
H1255 H 0.93206 0.58529 0.85104 0.0
H1256 H 0.91783 0.5993 0.83337 0.0
C1257 C 0.88673 0.56216 0.84175 0.0
C1258 C 0.42781 0.32138 0.85296 0.0
C1259 C 0.4114 0.31335 0.84765 0.0
H1260 H 0.44883 0.34368 0.86391 0.0
C1261 C 0.40354 0.32189 0.85099 0.0
H1262 H 0.43415 0.31508 0.85021 0.0
C1263 C 0.41187 0.33811 0.86032 0.0
C1264 C 0.42826 0.3462 0.86461 0.0
H1265 H 0.3909 0.31601 0.84742 0.0
H1266 H 0.40545 0.34434 0.86317 0.0
C1267 C 0.43619 0.33772 0.86033 0.0
C1268 C 0.65474 0.07406 0.8658 0.0
C1269 C 0.64618 0.08191 0.86602 0.0
H1270 H 0.67715 0.07586 0.85289 0.0
C1271 C 0.65418 0.09824 0.85543 0.0
H1272 H 0.64891 0.06148 0.87349 0.0
C1273 C 0.6705 0.10656 0.84514 0.0
C1274 C 0.67897 0.09861 0.84323 0.0
H1275 H 0.64786 0.10458 0.85566 0.0
H1276 H 0.67643 0.11914 0.83691 0.0
C1277 C 0.67092 0.0823 0.85366 0.0
C1278 C 0.57767 0.92045 0.18624 0.0
C1279 C 0.56128 0.91238 0.18147 0.0
H1280 H 0.59841 0.91899 0.2016 0.0
C1281 C 0.55312 0.89599 0.18763 0.0
H1282 H 0.58429 0.93309 0.18217 0.0
C1283 C 0.56129 0.88782 0.19719 0.0
C1284 C 0.5777 0.89599 0.203 0.0
H1285 H 0.54047 0.88949 0.18388 0.0
H1286 H 0.5548 0.87519 0.20127 0.0
C1287 C 0.58577 0.91237 0.1978 0.0
C1288 C 0.07156 0.65536 0.18465 0.0
C1289 C 0.07969 0.64711 0.18002 0.0
H1290 H 0.07294 0.67754 0.19796 0.0
C1291 C 0.09611 0.65542 0.18457 0.0
H1292 H 0.05891 0.64927 0.18175 0.0
C1293 C 0.10423 0.67177 0.19227 0.0
C1294 C 0.096 0.67995 0.19772 0.0
H1295 H 0.10265 0.64932 0.18085 0.0
H1296 H 0.11688 0.67797 0.19506 0.0
C1297 C 0.07961 0.67157 0.1943 0.0
C1298 C 0.33833 0.41474 0.18796 0.0
C1299 C 0.34672 0.43112 0.18303 0.0
H1300 H 0.316 0.39406 0.20074 0.0
C1301 C 0.33851 0.43933 0.18648 0.0
H1302 H 0.34433 0.40809 0.18585 0.0
C1303 C 0.32214 0.43122 0.19336 0.0
C1304 C 0.31381 0.41482 0.19908 0.0
H1305 H 0.34471 0.45197 0.18247 0.0
H1306 H 0.31603 0.43777 0.19528 0.0
C1307 C 0.32209 0.4067 0.19682 0.0
C1308 C 0.73845 0.7477 0.51904 0.0
C1309 C 0.74667 0.76406 0.5126 0.0
H1310 H 0.73971 0.72684 0.53455 0.0
C1311 C 0.7631 0.77206 0.51635 0.0
H1312 H 0.72579 0.74122 0.51673 0.0
C1313 C 0.77113 0.76377 0.52495 0.0
C1314 C 0.76283 0.74739 0.53209 0.0
H1315 H 0.76971 0.78469 0.51118 0.0
H1316 H 0.78379 0.77015 0.52695 0.0
C1317 C 0.74643 0.73947 0.52961 0.0
C1318 C 0.24517 0.98893 0.51494 0.0
C1319 C 0.22878 0.98059 0.51092 0.0
H1320 H 0.26591 0.01119 0.52785 0.0
C1321 C 0.2206 0.98882 0.51591 0.0
H1322 H 0.2518 0.98292 0.51166 0.0
C1323 C 0.22875 0.00517 0.5236 0.0
C1324 C 0.24517 0.01344 0.52858 0.0
H1325 H 0.20795 0.98265 0.51265 0.0
H1326 H 0.22224 0.0113 0.52686 0.0
C1327 C 0.25326 0.00514 0.52457 0.0
C1328 C 0.98701 0.22185 0.52089 0.0
C1329 C 0.97873 0.23 0.52445 0.0
H1330 H 0.00956 0.22356 0.51224 0.0
C1331 C 0.98705 0.24638 0.52007 0.0
H1332 H 0.98086 0.20921 0.52449 0.0
C1333 C 0.00329 0.25449 0.51151 0.0
C1334 C 0.01164 0.24644 0.50902 0.0
H1335 H 0.981 0.25298 0.52227 0.0
H1336 H 0.00932 0.26713 0.50795 0.0
C1337 C 0.00339 0.23004 0.51434 0.0
C1338 C 0.25161 0.24537 0.5189 0.0
C1339 C 0.24343 0.22899 0.52391 0.0
H1340 H 0.25034 0.26622 0.50519 0.0
C1341 C 0.22701 0.22095 0.51965 0.0
H1342 H 0.26427 0.25189 0.52155 0.0
C1343 C 0.21894 0.22925 0.51185 0.0
C1344 C 0.22723 0.24565 0.50598 0.0
H1345 H 0.22043 0.20831 0.52366 0.0
H1346 H 0.20629 0.22286 0.50927 0.0
C1347 C 0.24362 0.25358 0.50914 0.0
C1348 C 0.73844 0.98857 0.52868 0.0
C1349 C 0.74665 0.98046 0.51815 0.0
H1350 H 0.73975 0.01062 0.54893 0.0
C1351 C 0.76308 0.98885 0.5204 0.0
H1352 H 0.72578 0.9824 0.52765 0.0
C1353 C 0.77114 0.00515 0.53106 0.0
C1354 C 0.76286 0.01322 0.54169 0.0
H1355 H 0.76968 0.98287 0.51212 0.0
H1356 H 0.7838 0.01141 0.53149 0.0
C1357 C 0.74645 0.00473 0.5412 0.0
C1358 C 0.98746 0.76459 0.52689 0.0
C1359 C 0.97924 0.74819 0.53303 0.0
H1360 H 0.00995 0.78542 0.5144 0.0
C1361 C 0.9876 0.74016 0.52962 0.0
H1362 H 0.98128 0.77106 0.52961 0.0
C1363 C 0.0038 0.74827 0.51935 0.0
C1364 C 0.01209 0.76464 0.51408 0.0
H1365 H 0.98159 0.72752 0.53373 0.0
H1366 H 0.00985 0.74167 0.51652 0.0
C1367 C 0.00382 0.77278 0.51859 0.0
C1368 C 0.0836 0.32317 0.36779 0.0
C1369 C 0.0914 0.31465 0.37787 0.0
H1370 H 0.08565 0.34542 0.3388 0.0
C1371 C 0.10775 0.32243 0.3687 0.0
H1372 H 0.071 0.31743 0.37433 0.0
C1373 C 0.11618 0.33853 0.3508 0.0
C1374 C 0.10834 0.34699 0.33905 0.0
H1375 H 0.11404 0.31612 0.37682 0.0
H1376 H 0.12879 0.34431 0.34436 0.0
C1377 C 0.09197 0.33915 0.34721 0.0
C1378 C 0.6581 0.76512 0.25081 0.0
C1379 C 0.64754 0.75983 0.32948 0.0
H1380 H 0.68219 0.77767 0.20662 0.0
C1381 C 0.65325 0.76308 0.42566 0.0
H1382 H 0.65389 0.76274 0.17605 0.0
C1383 C 0.66935 0.77108 0.44304 0.0
C1384 C 0.67992 0.77647 0.36439 0.0
H1385 H 0.64526 0.75904 0.48723 0.0
H1386 H 0.67357 0.77312 0.51783 0.0
C1387 C 0.67421 0.77367 0.26816 0.0
C1388 C 0.22459 0.89777 0.44589 0.0
C1389 C 0.21799 0.90189 0.36856 0.0
H1390 H 0.23722 0.88622 0.48793 0.0
C1391 C 0.21926 0.89764 0.27247 0.0
H1392 H 0.22369 0.90094 0.52056 0.0
C1393 C 0.22742 0.88974 0.25366 0.0
C1394 C 0.23384 0.88547 0.33112 0.0
H1395 H 0.21431 0.9008 0.21184 0.0
H1396 H 0.2286 0.88684 0.17884 0.0
C1397 C 0.23223 0.88935 0.42743 0.0
C1398 C 0.31866 0.09516 0.76662 0.0
C1399 C 0.31302 0.09213 0.67026 0.0
H1400 H 0.33893 0.1049 0.85931 0.0
C1401 C 0.32363 0.09739 0.59186 0.0
H1402 H 0.31064 0.09112 0.82797 0.0
C1403 C 0.33972 0.10575 0.60966 0.0
C1404 C 0.34536 0.10837 0.70602 0.0
H1405 H 0.31946 0.09516 0.51697 0.0
H1406 H 0.34775 0.1098 0.54831 0.0
C1407 C 0.33476 0.10296 0.78442 0.0
C1408 C 0.89357 0.2233 0.58239 0.0
C1409 C 0.89943 0.21863 0.66106 0.0
H1410 H 0.88077 0.23458 0.53818 0.0
C1411 C 0.89696 0.22187 0.75717 0.0
H1412 H 0.8954 0.22088 0.5077 0.0
C1413 C 0.88912 0.23014 0.77433 0.0
C1414 C 0.88315 0.23472 0.69574 0.0
H1415 H 0.90149 0.21842 0.81866 0.0
H1416 H 0.88766 0.2329 0.84895 0.0
C1417 C 0.8852 0.23104 0.59974 0.0
C1418 C 0.75723 0.67068 0.6753 0.0
C1419 C 0.77356 0.67886 0.66512 0.0
H1420 H 0.73669 0.64873 0.70486 0.0
C1421 C 0.7818 0.67076 0.67512 0.0
H1422 H 0.75062 0.67668 0.66821 0.0
C1423 C 0.77378 0.65468 0.69377 0.0
C1424 C 0.75747 0.64657 0.70535 0.0
H1425 H 0.79439 0.6768 0.66703 0.0
H1426 H 0.78036 0.64865 0.70076 0.0
C1427 C 0.74928 0.65473 0.69655 0.0
C1428 C 0.87576 0.65513 0.69318 0.0
C1429 C 0.88403 0.64707 0.70394 0.0
H1430 H 0.87715 0.67722 0.66767 0.0
C1431 C 0.90039 0.65532 0.69515 0.0
H1432 H 0.86315 0.64904 0.70017 0.0
C1433 C 0.90833 0.67131 0.6746 0.0
C1434 C 0.9001 0.67942 0.66511 0.0
H1435 H 0.90703 0.64937 0.70285 0.0
H1436 H 0.92094 0.67737 0.66743 0.0
C1437 C 0.88376 0.67123 0.67522 0.0
C1438 C 0.3167 0.22211 0.76225 0.0
C1439 C 0.31127 0.21819 0.66585 0.0
H1440 H 0.33676 0.23375 0.85584 0.0
C1441 C 0.32201 0.22242 0.58871 0.0
H1442 H 0.30853 0.21901 0.82249 0.0
C1443 C 0.33806 0.23034 0.60794 0.0
C1444 C 0.34352 0.23464 0.7041 0.0
H1445 H 0.31798 0.21949 0.51382 0.0
H1446 H 0.34621 0.23348 0.54755 0.0
C1447 C 0.33275 0.23055 0.78111 0.0
C1448 C 0.75197 0.09604 0.68404 0.0
C1449 C 0.75877 0.10789 0.75498 0.0
H1450 H 0.75408 0.07901 0.59873 0.0
C1451 C 0.77365 0.11206 0.79156 0.0
H1452 H 0.74053 0.09256 0.65421 0.0
C1453 C 0.78142 0.10433 0.75957 0.0
C1454 C 0.77447 0.09221 0.69057 0.0
H1455 H 0.77925 0.12118 0.84597 0.0
H1456 H 0.79278 0.10771 0.79039 0.0
C1457 C 0.75973 0.08825 0.65236 0.0
C1458 C 0.66543 0.8858 0.46347 0.0
C1459 C 0.6762 0.90062 0.42642 0.0
H1460 H 0.64198 0.86663 0.46127 0.0
C1461 C 0.67128 0.90728 0.35366 0.0
H1462 H 0.66884 0.8803 0.51931 0.0
C1463 C 0.65581 0.89944 0.32049 0.0
C1464 C 0.64497 0.88475 0.35903 0.0
H1465 H 0.67929 0.91868 0.32337 0.0
H1466 H 0.65232 0.90498 0.26537 0.0
C1467 C 0.65001 0.87794 0.43004 0.0
C1468 C 0.10108 0.76381 0.25787 0.0
C1469 C 0.10667 0.75876 0.33603 0.0
H1470 H 0.08918 0.77606 0.21483 0.0
C1471 C 0.10432 0.76199 0.43249 0.0
H1472 H 0.1028 0.7614 0.18294 0.0
C1473 C 0.09609 0.76984 0.45066 0.0
C1474 C 0.09068 0.77507 0.37248 0.0
H1475 H 0.10847 0.75807 0.49365 0.0
H1476 H 0.09408 0.77196 0.52563 0.0
C1477 C 0.09338 0.7722 0.27598 0.0
C1478 C 0.24218 0.33867 0.34151 0.0
C1479 C 0.23424 0.34709 0.33334 0.0
H1480 H 0.24041 0.3165 0.36866 0.0
C1481 C 0.21792 0.3392 0.34458 0.0
H1482 H 0.25477 0.3445 0.3334 0.0
C1483 C 0.20966 0.32309 0.36232 0.0
C1484 C 0.21765 0.31473 0.37183 0.0
H1485 H 0.21153 0.34542 0.33805 0.0
H1486 H 0.19707 0.31722 0.37023 0.0
C1487 C 0.23398 0.32268 0.36192 0.0
C1488 C 0.98683 0.42874 0.09982 0.0
C1489 C 0.98126 0.42569 1.0033 0.0
H1490 H 0.00703 0.43853 0.19307 0.0
C1491 C 0.99192 0.43099 0.92519 0.0
H1492 H 0.97876 0.42469 0.16094 0.0
C1493 C 0.00799 0.43939 0.94342 0.0
C1494 C 0.01357 0.44201 0.03995 0.0
H1495 H 0.9878 0.42875 0.85019 0.0
H1496 H 0.01606 0.44345 0.88231 0.0
C1497 C 0.00291 0.43658 0.11806 0.0
C1498 C 0.57298 0.56462 0.0217 0.0
C1499 C 0.56626 0.55303 0.94908 0.0
H1500 H 0.57093 0.58152 0.10871 0.0
C1501 C 0.55157 0.54925 0.91092 0.0
H1502 H 0.58428 0.5678 0.05276 0.0
C1503 C 0.54391 0.55708 0.94317 0.0
C1504 C 0.55078 0.56891 1.01405 0.0
H1505 H 0.54603 0.54036 0.85512 0.0
H1506 H 0.5327 0.554 0.91115 0.0
C1507 C 0.56534 0.57251 0.05366 0.0
C1508 C 0.44089 0.98929 0.0317 0.0
C1509 C 0.42454 0.98114 0.04146 0.0
H1510 H 0.46155 0.01145 1.00709 0.0
C1511 C 0.41636 0.9893 0.03193 0.0
H1512 H 0.44746 0.98326 0.0393 0.0
C1513 C 0.42435 0.00529 1.01154 0.0
C1514 C 0.44071 0.01349 1.00298 0.0
H1515 H 0.40375 0.98327 0.03888 0.0
H1516 H 0.41775 0.01128 1.0037 0.0
C1517 C 0.44893 0.00539 1.01392 0.0
C1518 C 0.54281 0.98904 0.03181 0.0
C1519 C 0.55098 0.98089 0.04256 0.0
H1520 H 0.54435 0.01119 1.00591 0.0
C1521 C 0.56733 0.98902 0.03319 0.0
H1522 H 0.5302 0.98303 0.03926 0.0
C1523 C 0.57535 0.00499 1.01211 0.0
C1524 C 0.56722 0.0132 1.00274 0.0
H1525 H 0.5739 0.98299 0.04087 0.0
H1526 H 0.58796 0.01096 1.00449 0.0
C1527 C 0.55089 0.00512 1.01339 0.0
C1528 C 0.98526 0.5548 0.09641 0.0
C1529 C 0.97969 0.55222 0.99988 0.0
H1530 H 0.00545 0.56534 0.18972 0.0
C1531 C 0.99036 0.55766 0.9218 0.0
H1532 H 0.97719 0.55072 0.15751 0.0
C1533 C 0.00644 0.56545 0.94009 0.0
C1534 C 0.012 0.56843 0.03662 0.0
H1535 H 0.98624 0.55575 0.84679 0.0
H1536 H 0.01451 0.5695 0.87899 0.0
C1537 C 0.00134 0.56314 0.1147 0.0
C1538 C 0.43784 0.43241 0.92867 0.0
C1539 C 0.44202 0.42604 1.00691 0.0
H1540 H 0.42686 0.44552 0.885 0.0
C1541 C 0.43816 0.42787 0.10288 0.0
H1542 H 0.44068 0.43103 0.85407 0.0
C1543 C 0.4298 0.43561 0.12017 0.0
C1544 C 0.42571 0.4421 0.04199 0.0
H1545 H 0.44119 0.42289 0.16398 0.0
H1546 H 0.42661 0.43662 0.19457 0.0
C1547 C 0.43 0.44067 0.94628 0.0
C1548 C 0.18746 0.39257 0.07 0.0
C1549 C 0.18411 0.40021 0.1449 0.0
H1550 H 0.20379 0.38647 1.01094 0.0
C1551 C 0.19553 0.4084 0.21666 0.0
H1552 H 0.17904 0.38639 1.01258 0.0
C1553 C 0.2097 0.40844 0.21579 0.0
C1554 C 0.21282 0.4003 0.14309 0.0
H1555 H 0.19327 0.41424 0.27614 0.0
H1556 H 0.21792 0.4143 0.27468 0.0
C1557 C 0.20165 0.39262 0.06908 0.0
C1558 C 0.60923 0.79676 0.19557 0.0
C1559 C 0.59652 0.78309 0.1576 0.0
H1560 H 0.61894 0.82094 0.22886 0.0
C1561 C 0.58341 0.78371 0.12322 0.0
H1562 H 0.61934 0.79663 0.22521 0.0
C1563 C 0.58316 0.79778 0.12556 0.0
C1564 C 0.59604 0.81148 0.16219 0.0
H1565 H 0.57345 0.77341 0.09314 0.0
H1566 H 0.57303 0.798 0.09728 0.0
C1567 C 0.609 0.81073 0.19777 0.0
C1568 C 0.20876 0.79741 0.11678 0.0
C1569 C 0.20961 0.81113 0.15323 0.0
H1570 H 0.19415 0.77291 0.08759 0.0
C1571 C 0.19602 0.8103 0.19169 0.0
H1572 H 0.21901 0.79767 0.08631 0.0
C1573 C 0.1819 0.79623 0.19246 0.0
C1574 C 0.18091 0.78254 0.15477 0.0
H1575 H 0.19633 0.82053 0.22279 0.0
H1576 H 0.17176 0.79605 0.22415 0.0
C1577 C 0.19453 0.78323 0.11753 0.0
C1578 C 0.40767 0.19645 0.92142 0.0
C1579 C 0.39497 0.18273 0.88359 0.0
H1580 H 0.41722 0.22085 0.95256 0.0
C1581 C 0.3822 0.18346 0.84433 0.0
H1582 H 0.41765 0.19626 0.95252 0.0
C1583 C 0.38196 0.19744 0.84432 0.0
C1584 C 0.39447 0.21112 0.88358 0.0
H1585 H 0.37241 0.17323 0.8122 0.0
H1586 H 0.37199 0.19754 0.81211 0.0
C1587 C 0.40742 0.21053 0.92144 0.0
C1588 C 0.78774 0.19034 0.93228 0.0
C1589 C 0.77899 0.18666 0.84549 0.0
H1590 H 0.80896 0.20655 1.00568 0.0
C1591 C 0.78449 0.19736 0.76752 0.0
H1592 H 0.78376 0.1822 0.99305 0.0
C1593 C 0.79871 0.21133 0.77527 0.0
C1594 C 0.80783 0.21471 0.86036 0.0
H1595 H 0.77792 0.19475 0.69992 0.0
H1596 H 0.8029 0.2192 0.71313 0.0
C1597 C 0.80215 0.20418 0.93928 0.0
C1598 C 0.80951 0.60989 0.85677 0.0
C1599 C 0.81021 0.59666 0.88717 0.0
H1600 H 0.7953 0.62017 0.83104 0.0
C1601 C 0.79635 0.58334 0.91785 0.0
H1602 H 0.81986 0.62022 0.83031 0.0
C1603 C 0.78214 0.58332 0.91833 0.0
C1604 C 0.78152 0.59662 0.8881 0.0
H1605 H 0.7965 0.573 0.94232 0.0
H1606 H 0.77169 0.57296 0.94319 0.0
C1607 C 0.79539 0.60987 0.8572 0.0
C1608 C 0.87562 0.74285 0.45442 0.0
C1609 C 0.87623 0.72951 0.48359 0.0
H1610 H 0.86124 0.75316 0.43069 0.0
C1611 C 0.86232 0.71615 0.51279 0.0
H1612 H 0.8861 0.7533 0.43087 0.0
C1613 C 0.84817 0.71607 0.51269 0.0
C1614 C 0.84748 0.72935 0.48339 0.0
H1615 H 0.8624 0.7058 0.53808 0.0
H1616 H 0.83779 0.70566 0.53793 0.0
C1617 C 0.86138 0.74277 0.45431 0.0
C1618 C 0.24876 0.13034 0.45157 0.0
C1619 C 0.26151 0.14411 0.48844 0.0
H1620 H 0.23916 0.10589 0.42181 0.0
C1621 C 0.27432 0.14343 0.5275 0.0
H1622 H 0.23875 0.1305 0.4207 0.0
C1623 C 0.27454 0.12945 0.52832 0.0
C1624 C 0.26198 0.1157 0.48997 0.0
H1625 H 0.28415 0.15371 0.55889 0.0
H1626 H 0.28453 0.12938 0.56043 0.0
C1627 C 0.249 0.11625 0.45226 0.0
C1628 C 0.86247 0.14381 0.52559 0.0
C1629 C 0.87615 0.1446 0.48897 0.0
H1630 H 0.83822 0.12952 0.55822 0.0
C1631 C 0.87545 0.13078 0.45597 0.0
H1632 H 0.86265 0.15412 0.55414 0.0
C1633 C 0.8613 0.11653 0.45851 0.0
C1634 C 0.84761 0.11586 0.49398 0.0
H1635 H 0.88576 0.131 0.42694 0.0
H1636 H 0.86104 0.10611 0.4314 0.0
C1637 C 0.84843 0.12966 0.528 0.0
C1638 C 0.07589 0.54422 0.25423 0.0
C1639 C 0.06297 0.54484 0.21607 0.0
H1640 H 0.08604 0.52989 0.28593 0.0
C1641 C 0.05045 0.53116 0.17681 0.0
H1642 H 0.0857 0.55454 0.28534 0.0
C1643 C 0.05064 0.51716 0.17722 0.0
C1644 C 0.06336 0.5164 0.21684 0.0
H1645 H 0.04051 0.53129 0.14437 0.0
H1646 H 0.04083 0.50694 0.14513 0.0
C1647 C 0.07608 0.53011 0.25458 0.0
C1648 C 0.46294 0.51745 0.17528 0.0
C1649 C 0.44926 0.51656 0.21277 0.0
H1650 H 0.48718 0.53184 0.14259 0.0
C1651 C 0.44993 0.53033 0.2467 0.0
H1652 H 0.46278 0.5072 0.14596 0.0
C1653 C 0.46406 0.54461 0.24449 0.0
C1654 C 0.47776 0.54535 0.20847 0.0
H1655 H 0.43963 0.53004 0.27638 0.0
H1656 H 0.46431 0.55498 0.27246 0.0
C1657 C 0.47696 0.53162 0.17324 0.0
C1658 C 0.47618 0.94411 0.19407 0.0
C1659 C 0.47683 0.93088 0.22492 0.0
H1660 H 0.46201 0.95441 0.16731 0.0
C1661 C 0.46293 0.91757 0.25526 0.0
H1662 H 0.48656 0.95443 0.16784 0.0
C1663 C 0.44872 0.91756 0.25488 0.0
C1664 C 0.44815 0.93086 0.2242 0.0
H1665 H 0.46304 0.90722 0.28012 0.0
H1666 H 0.43824 0.9072 0.2794 0.0
C1667 C 0.46206 0.9441 0.19374 0.0
C1668 C 0.52936 0.05008 0.85049 0.0
C1669 C 0.54326 0.06325 0.81904 0.0
H1670 H 0.50491 0.03988 0.87759 0.0
C1671 C 0.5427 0.07654 0.7879 0.0
H1672 H 0.5294 0.03979 0.87731 0.0
C1673 C 0.52853 0.0766 0.7881 0.0
C1674 C 0.51465 0.06337 0.81941 0.0
H1675 H 0.55317 0.08684 0.76257 0.0
H1676 H 0.52843 0.08694 0.76293 0.0
C1677 C 0.51528 0.05014 0.85067 0.0
C1678 C 0.94297 0.46309 0.8628 0.0
C1679 C 0.93044 0.4494 0.82359 0.0
H1680 H 0.95256 0.48731 0.89451 0.0
C1681 C 0.91753 0.45002 0.78541 0.0
H1682 H 0.95291 0.46296 0.89524 0.0
C1683 C 0.91732 0.46411 0.78508 0.0
C1684 C 0.93003 0.47783 0.82285 0.0
H1685 H 0.90771 0.4397 0.75431 0.0
H1686 H 0.90736 0.46433 0.75376 0.0
C1687 C 0.94277 0.47708 0.86242 0.0
C1688 C 0.52268 0.4562 0.7629 0.0
C1689 C 0.51691 0.4457 0.84195 0.0
H1690 H 0.5411 0.47819 0.70948 0.0
C1691 C 0.52589 0.44914 0.92766 0.0
H1692 H 0.51596 0.45377 0.69603 0.0
C1693 C 0.54007 0.46315 0.93586 0.0
C1694 C 0.54566 0.47381 0.85775 0.0
H1695 H 0.52163 0.4413 0.98992 0.0
H1696 H 0.54654 0.46581 1.00391 0.0
C1697 C 0.53704 0.47007 0.77038 0.0
C1698 C 0.73 0.87182 0.603 0.0
C1699 C 0.73499 0.88066 0.51645 0.0
H1700 H 0.72525 0.85061 0.67563 0.0
C1701 C 0.74024 0.87531 0.43806 0.0
H1702 H 0.72579 0.87567 0.66411 0.0
C1703 C 0.74017 0.86117 0.44517 0.0
C1704 C 0.73454 0.85197 0.53005 0.0
H1705 H 0.74415 0.88196 0.37064 0.0
H1706 H 0.74391 0.85711 0.38273 0.0
C1707 C 0.72961 0.85749 0.60937 0.0
C1708 C 0.11578 0.86318 0.58674 0.0
C1709 C 0.11491 0.84949 0.54964 0.0
H1710 H 0.13043 0.88765 0.61683 0.0
C1711 C 0.12848 0.85034 0.51068 0.0
H1712 H 0.10554 0.8629 0.61758 0.0
C1713 C 0.14261 0.8644 0.51018 0.0
C1714 C 0.14363 0.87806 0.54868 0.0
H1715 H 0.12815 0.84013 0.47907 0.0
H1716 H 0.15274 0.86459 0.47818 0.0
C1717 C 0.13002 0.87734 0.58629 0.0
C1718 C 0.14249 0.27785 0.52653 0.0
C1719 C 0.14322 0.26464 0.55706 0.0
H1720 H 0.12825 0.28811 0.5013 0.0
C1721 C 0.12939 0.25135 0.58849 0.0
H1722 H 0.15281 0.28815 0.49952 0.0
C1723 C 0.11518 0.25132 0.58944 0.0
C1724 C 0.11453 0.26459 0.55907 0.0
H1725 H 0.12957 0.24103 0.61314 0.0
H1726 H 0.10475 0.24098 0.61476 0.0
C1727 C 0.12837 0.27782 0.52755 0.0
C1728 C 0.12096 0.40352 0.79524 0.0
C1729 C 0.11383 0.38782 0.82447 0.0
H1730 H 0.1294 0.41986 0.67741 0.0
C1731 C 0.10995 0.37631 0.75218 0.0
H1732 H 0.12385 0.41265 0.84867 0.0
C1733 C 0.11326 0.38043 0.65324 0.0
C1734 C 0.12043 0.39618 0.62377 0.0
H1735 H 0.10461 0.36411 0.77225 0.0
H1736 H 0.11041 0.37126 0.60027 0.0
C1737 C 0.12415 0.40764 0.69642 0.0
C1738 C 0.58724 0.71363 0.68508 0.0
C1739 C 0.59866 0.72119 0.61188 0.0
H1740 H 0.58234 0.70883 0.83793 0.0
C1741 C 0.61442 0.72992 0.64067 0.0
H1742 H 0.57501 0.70658 0.6664 0.0
C1743 C 0.61861 0.73112 0.73959 0.0
C1744 C 0.60716 0.7237 0.81254 0.0
H1745 H 0.62355 0.7361 0.58714 0.0
H1746 H 0.63083 0.73812 0.75905 0.0
C1747 C 0.59143 0.71493 0.78396 0.0
C1748 C 0.26652 0.86567 0.78393 0.0
C1749 C 0.26951 0.88057 0.81315 0.0
H1750 H 0.26476 0.85072 0.66562 0.0
C1751 C 0.27325 0.89203 0.74029 0.0
H1752 H 0.26333 0.85643 0.83694 0.0
C1753 C 0.27396 0.88867 0.6414 0.0
C1754 C 0.27108 0.87382 0.61265 0.0
H1755 H 0.27586 0.9037 0.75934 0.0
H1756 H 0.27705 0.89782 0.58774 0.0
C1757 C 0.26733 0.86237 0.68523 0.0
C1758 C 0.3787 0.11207 0.39575 0.0
C1759 C 0.39449 0.11962 0.42455 0.0
H1760 H 0.36231 0.10336 0.27741 0.0
C1761 C 0.40598 0.12385 0.35135 0.0
H1762 H 0.36952 0.10883 0.44926 0.0
C1763 C 0.40183 0.12082 0.25249 0.0
C1764 C 0.38607 0.11336 0.22387 0.0
H1765 H 0.41824 0.12942 0.37004 0.0
H1766 H 0.41098 0.12411 0.19855 0.0
C1767 C 0.37455 0.10896 0.29684 0.0
C1768 C 0.87096 0.28229 0.34007 0.0
C1769 C 0.87404 0.27413 0.41332 0.0
H1770 H 0.87115 0.28716 0.18711 0.0
C1771 C 0.87992 0.26438 0.38461 0.0
H1772 H 0.86669 0.29012 0.3587 0.0
C1773 C 0.88257 0.26278 0.2857 0.0
C1774 C 0.87932 0.27082 0.21275 0.0
H1775 H 0.88221 0.25771 0.43819 0.0
H1776 H 0.8869 0.25503 0.26621 0.0
C1777 C 0.8735 0.28059 0.2412 0.0
C1778 C 0.72848 0.61322 0.39019 0.0
C1779 C 0.71986 0.59747 0.41972 0.0
H1780 H 0.73613 0.62955 0.2712 0.0
C1781 C 0.71205 0.58602 0.34706 0.0
H1782 H 0.73485 0.62239 0.44307 0.0
C1783 C 0.71296 0.59015 0.24826 0.0
C1784 C 0.72156 0.60586 0.21904 0.0
H1785 H 0.70506 0.5738 0.36597 0.0
H1786 H 0.70668 0.58104 0.19484 0.0
C1787 C 0.72925 0.61735 0.29129 0.0
C1788 C 0.887 0.61045 0.38707 0.0
C1789 C 0.8722 0.59827 0.4151 0.0
H1790 H 0.90222 0.62357 0.26982 0.0
C1791 C 0.861 0.59024 0.34184 0.0
H1792 H 0.89595 0.61675 0.44139 0.0
C1793 C 0.86451 0.59422 0.24306 0.0
C1794 C 0.87939 0.60629 0.21442 0.0
H1795 H 0.84941 0.58096 0.36102 0.0
H1796 H 0.85545 0.58788 0.18955 0.0
C1797 C 0.89057 0.61436 0.28812 0.0
C1798 C 0.37655 0.26439 0.39539 0.0
C1799 C 0.39233 0.27292 0.42412 0.0
H1800 H 0.36013 0.25639 0.27706 0.0
C1801 C 0.40377 0.28034 0.35088 0.0
H1802 H 0.3674 0.25831 0.44898 0.0
C1803 C 0.39959 0.27911 0.25201 0.0
C1804 C 0.38384 0.27053 0.22344 0.0
H1805 H 0.41602 0.28724 0.36957 0.0
H1806 H 0.4087 0.2851 0.19803 0.0
C1807 C 0.37237 0.26325 0.29646 0.0
C1808 C 0.71774 0.10312 0.27755 0.0
C1809 C 0.72163 0.11475 0.20589 0.0
H1810 H 0.71348 0.09695 0.42939 0.0
C1811 C 0.7244 0.12953 0.23589 0.0
H1812 H 0.71535 0.09155 0.25732 0.0
C1813 C 0.72331 0.1326 0.33456 0.0
C1814 C 0.71943 0.121 0.40627 0.0
H1815 H 0.72773 0.13887 0.18338 0.0
H1816 H 0.72582 0.14421 0.35467 0.0
C1817 C 0.71667 0.10621 0.37648 0.0
C1818 C 0.58954 0.87364 0.80104 0.0
C1819 C 0.60529 0.88075 0.82967 0.0
H1820 H 0.5731 0.86527 0.68362 0.0
C1821 C 0.61673 0.8847 0.75676 0.0
H1822 H 0.58045 0.87068 0.85492 0.0
C1823 C 0.61253 0.88149 0.6579 0.0
C1824 C 0.59675 0.87434 0.62905 0.0
H1825 H 0.62896 0.89001 0.77624 0.0
H1826 H 0.62166 0.88437 0.60449 0.0
C1827 C 0.58534 0.87054 0.70224 0.0
C1828 C 0.12963 0.7252 0.69158 0.0
C1829 C 0.11816 0.72138 0.61904 0.0
H1830 H 0.13554 0.72921 0.84329 0.0
C1831 C 0.10325 0.71835 0.64786 0.0
H1832 H 0.14133 0.72789 0.67193 0.0
C1833 C 0.09986 0.719 0.74678 0.0
C1834 C 0.11134 0.72282 0.81959 0.0
H1835 H 0.0941 0.7152 0.59422 0.0
H1836 H 0.08815 0.71628 0.76589 0.0
C1837 C 0.12629 0.72595 0.79031 0.0
C1838 C 0.2628 0.37606 0.7477 0.0
C1839 C 0.27054 0.38754 0.81999 0.0
H1840 H 0.25724 0.37105 0.59582 0.0
C1841 C 0.27925 0.40324 0.79075 0.0
H1842 H 0.25584 0.36387 0.76777 0.0
C1843 C 0.28021 0.40737 0.69193 0.0
C1844 C 0.27236 0.39593 0.61928 0.0
H1845 H 0.28557 0.41234 0.84416 0.0
H1846 H 0.28728 0.41958 0.67295 0.0
C1847 C 0.26365 0.3802 0.64877 0.0
C1848 C 0.79638 0.7359 0.02633 0.0
C1849 C 0.78528 0.72766 0.95303 0.0
H1850 H 0.80194 0.7384 0.17859 0.0
C1851 C 0.77062 0.71523 0.98102 0.0
H1852 H 0.80788 0.74539 1.00722 0.0
C1853 C 0.7671 0.71127 0.07994 0.0
C1854 C 0.7782 0.71954 0.15369 0.0
H1855 H 0.76172 0.70875 0.92669 0.0
H1856 H 0.75555 0.70184 0.09814 0.0
C1857 C 0.79293 0.73188 0.12509 0.0
C1858 C 0.25262 0.04658 0.02493 0.0
C1859 C 0.26409 0.05393 0.95173 0.0
H1860 H 0.24764 0.04184 0.17775 0.0
C1861 C 0.27987 0.0623 0.98052 0.0
H1862 H 0.24036 0.03979 1.00622 0.0
C1863 C 0.28403 0.06339 0.07945 0.0
C1864 C 0.27253 0.0562 0.15244 0.0
H1865 H 0.28904 0.06831 0.92697 0.0
H1866 H 0.29627 0.07014 0.09887 0.0
C1867 C 0.25678 0.04776 0.12381 0.0
C1868 C 0.93992 0.22241 0.97448 0.0
C1869 C 0.93723 0.20762 0.94577 0.0
H1870 H 0.94169 0.23738 0.09239 0.0
C1871 C 0.93366 0.19621 1.01836 0.0
H1872 H 0.94287 0.23152 0.92075 0.0
C1873 C 0.93285 0.1995 0.11708 0.0
C1874 C 0.93566 0.21433 0.14628 0.0
H1875 H 0.93124 0.18461 0.99872 0.0
H1876 H 0.9298 0.19029 0.17011 0.0
C1877 C 0.93922 0.22574 0.07338 0.0
C1878 C 0.07407 0.45727 0.68599 0.0
C1879 C 0.0626 0.45308 0.75924 0.0
H1880 H 0.07904 0.45754 0.53316 0.0
C1881 C 0.04681 0.44559 0.73049 0.0
H1882 H 0.08633 0.46279 0.70464 0.0
C1883 C 0.04264 0.44251 0.63158 0.0
C1884 C 0.05414 0.44688 0.55856 0.0
H1885 H 0.03763 0.44237 0.78403 0.0
H1886 H 0.0304 0.43696 0.6122 0.0
C1887 C 0.0699 0.45427 0.58713 0.0
C1888 C 0.54799 0.59844 0.7135 0.0
C1889 C 0.54101 0.60722 0.7424 0.0
H1890 H 0.55634 0.59037 0.59512 0.0
C1891 C 0.53736 0.61496 0.66922 0.0
H1892 H 0.55075 0.59209 0.76689 0.0
C1893 C 0.54043 0.61381 0.57041 0.0
C1894 C 0.54736 0.60502 0.54176 0.0
H1895 H 0.53223 0.62205 0.68786 0.0
H1896 H 0.53758 0.62004 0.51654 0.0
C1897 C 0.55116 0.5974 0.61464 0.0
C1898 C 0.39131 0.92822 0.58004 0.0
C1899 C 0.38847 0.94027 0.55141 0.0
H1900 H 0.39321 0.915 0.69799 0.0
C1901 C 0.38534 0.94832 0.62513 0.0
H1902 H 0.39405 0.9219 0.52653 0.0
C1903 C 0.38504 0.94443 0.72408 0.0
C1904 C 0.3877 0.93228 0.75209 0.0
H1905 H 0.38288 0.95752 0.60684 0.0
H1906 H 0.38237 0.95071 0.77841 0.0
C1907 C 0.39087 0.92426 0.67882 0.0
C1908 C 0.5466 0.94749 0.72743 0.0
C1909 C 0.53936 0.93173 0.75685 0.0
H1910 H 0.55535 0.96383 0.60855 0.0
C1911 C 0.53559 0.92027 0.68407 0.0
H1912 H 0.54949 0.95666 0.78038 0.0
C1913 C 0.53881 0.92441 0.58528 0.0
C1914 C 0.54603 0.94012 0.55618 0.0
H1915 H 0.53028 0.90804 0.70285 0.0
H1916 H 0.53587 0.91528 0.53177 0.0
C1917 C 0.54994 0.95162 0.62854 0.0
C1918 C 0.06817 0.61281 0.58392 0.0
C1919 C 0.05241 0.60433 0.55536 0.0
H1920 H 0.0846 0.62084 0.70145 0.0
C1921 C 0.04093 0.59714 0.62842 0.0
H1922 H 0.0773 0.61873 0.52993 0.0
C1923 C 0.0451 0.59827 0.72734 0.0
C1924 C 0.06088 0.60668 0.75606 0.0
H1925 H 0.02869 0.59037 0.60906 0.0
H1926 H 0.03594 0.59227 0.78092 0.0
C1927 C 0.07234 0.61402 0.6828 0.0
C1928 C 0.38093 0.45357 0.58706 0.0
C1929 C 0.38972 0.44663 0.55837 0.0
H1930 H 0.3726 0.46163 0.70472 0.0
C1931 C 0.39719 0.44264 0.63118 0.0
H1932 H 0.3748 0.45653 0.53318 0.0
C1933 C 0.39603 0.44565 0.73011 0.0
C1934 C 0.38729 0.45266 0.75901 0.0
H1935 H 0.4042 0.43744 0.61159 0.0
H1936 H 0.40227 0.44276 0.78355 0.0
C1937 C 0.37967 0.45648 0.68593 0.0
C1938 C 0.25884 0.19855 0.11834 0.0
C1939 C 0.27077 0.21343 0.14751 0.0
H1940 H 0.24561 0.18359 1.00007 0.0
C1941 C 0.27852 0.22487 0.0746 0.0
H1942 H 0.25276 0.18932 0.17138 0.0
C1943 C 0.27446 0.22152 0.97571 0.0
C1944 C 0.26245 0.20667 0.947 0.0
H1945 H 0.28761 0.23654 0.0936 0.0
H1946 H 0.28054 0.23065 0.92201 0.0
C1947 C 0.25472 0.19524 0.01964 0.0
C1948 C 0.79647 0.05812 0.03752 0.0
C1949 C 0.78517 0.05471 0.96452 0.0
H1950 H 0.80224 0.06179 0.1895 0.0
C1951 C 0.77037 0.05209 0.99288 0.0
H1952 H 0.80808 0.06046 1.01823 0.0
C1953 C 0.76694 0.05272 0.09176 0.0
C1954 C 0.77825 0.05612 0.16509 0.0
H1955 H 0.76133 0.04925 0.9389 0.0
H1956 H 0.7553 0.05031 0.11038 0.0
C1957 C 0.79309 0.05886 0.13623 0.0
C1958 C 0.93415 0.73662 0.02717 0.0
C1959 C 0.937 0.72838 0.9538 0.0
H1960 H 0.93116 0.73914 0.17947 0.0
C1961 C 0.93926 0.71597 0.98173 0.0
H1962 H 0.93211 0.74609 1.00812 0.0
C1963 C 0.93888 0.71204 0.08065 0.0
C1964 C 0.93606 0.72031 0.15448 0.0
H1965 H 0.94168 0.7095 0.92736 0.0
H1966 H 0.94102 0.70263 0.09877 0.0
C1967 C 0.93363 0.73262 0.12593 0.0
C1968 C 0.45276 0.07002 0.46125 0.0
C1969 C 0.44552 0.05431 0.49052 0.0
H1970 H 0.46135 0.08636 0.34352 0.0
C1971 C 0.44164 0.0428 0.41832 0.0
H1972 H 0.45567 0.07916 0.51463 0.0
C1973 C 0.44503 0.04691 0.31941 0.0
C1974 C 0.45229 0.06266 0.28984 0.0
H1975 H 0.43622 0.03059 0.43844 0.0
H1976 H 0.44217 0.03772 0.26657 0.0
C1977 C 0.45602 0.07414 0.36246 0.0
C1978 C 0.95234 0.39698 0.41145 0.0
C1979 C 0.94085 0.38981 0.48453 0.0
H1980 H 0.95732 0.40183 0.25892 0.0
C1981 C 0.92509 0.38136 0.45599 0.0
H1982 H 0.96458 0.40373 0.43078 0.0
C1983 C 0.92092 0.38015 0.35711 0.0
C1984 C 0.93238 0.38746 0.28383 0.0
H1985 H 0.91596 0.37546 0.51 0.0
H1986 H 0.90866 0.37336 0.33847 0.0
C1987 C 0.94816 0.39585 0.31253 0.0
C1988 C 0.6009 0.52762 0.37104 0.0
C1989 C 0.60503 0.53927 0.29932 0.0
H1990 H 0.5964 0.5214 0.52223 0.0
C1991 C 0.60814 0.55417 0.32906 0.0
H1992 H 0.59813 0.51593 0.35093 0.0
C1993 C 0.60718 0.55734 0.42799 0.0
C1994 C 0.60306 0.54567 0.49969 0.0
H1995 H 0.61153 0.56346 0.27611 0.0
H1996 H 0.60986 0.56899 0.4482 0.0
C1997 C 0.59993 0.53077 0.4697 0.0
C1998 C 0.71297 0.78005 0.05412 0.0
C1999 C 0.72863 0.78608 0.08281 0.0
H2000 H 0.6966 0.77293 0.93579 0.0
C2001 C 0.73989 0.7893 1.00952 0.0
H2002 H 0.70398 0.77764 0.1077 0.0
C2003 C 0.73566 0.78675 0.91065 0.0
C2004 C 0.72003 0.78077 0.88224 0.0
H2005 H 0.75202 0.7937 0.02811 0.0
H2006 H 0.7446 0.78921 0.85654 0.0
C2007 C 0.70872 0.77738 0.95523 0.0
C2008 C 0.21768 0.93053 0.95984 0.0
C2009 C 0.21346 0.9378 0.88689 0.0
H2010 H 0.21769 0.92554 0.11229 0.0
C2011 C 0.20622 0.94631 0.91554 0.0
H2012 H 0.22312 0.92374 0.94037 0.0
C2013 C 0.20322 0.94747 1.01441 0.0
C2014 C 0.20727 0.94006 0.08758 0.0
H2015 H 0.20307 0.95228 0.86162 0.0
H2016 H 0.19782 0.95432 0.03315 0.0
C2017 C 0.2146 0.93161 0.05877 0.0
C2018 C 0.06144 0.28148 0.06008 0.0
C2019 C 0.05315 0.26571 0.08954 0.0
H2020 H 0.06874 0.29781 0.94119 0.0
C2021 C 0.04557 0.25422 1.01675 0.0
H2022 H 0.06762 0.29069 0.11297 0.0
C2023 C 0.04638 0.25833 0.918 0.0
C2024 C 0.05465 0.27405 0.88884 0.0
H2025 H 0.03883 0.24197 0.03545 0.0
H2026 H 0.04029 0.24917 0.86455 0.0
C2027 C 0.06212 0.28558 0.96118 0.0
C2028 C 0.21623 0.28524 0.95592 0.0
C2029 C 0.21233 0.27371 0.88379 0.0
H2030 H 0.21571 0.29034 0.10764 0.0
C2031 C 0.20505 0.258 0.91312 0.0
H2032 H 0.22169 0.29745 0.93573 0.0
C2033 C 0.20178 0.25391 1.01191 0.0
C2034 C 0.20553 0.26539 0.08446 0.0
H2035 H 0.20212 0.24885 0.85978 0.0
H2036 H 0.19642 0.24168 0.03091 0.0
C2037 C 0.21282 0.28114 0.05484 0.0
C2038 C 0.70838 0.93069 0.9529 0.0
C2039 C 0.7198 0.93818 0.87979 0.0
H2040 H 0.7035 0.9258 0.10556 0.0
C2041 C 0.73552 0.94726 0.90843 0.0
H2042 H 0.69618 0.92343 0.93364 0.0
C2043 C 0.73972 0.94863 1.00729 0.0
C2044 C 0.72833 0.94094 0.08028 0.0
H2045 H 0.74461 0.95344 0.85467 0.0
H2046 H 0.75192 0.9558 0.02644 0.0
C2047 C 0.71258 0.93205 0.05179 0.0
C2048 C 0.05803 0.79495 0.9191 0.0
C2049 C 0.05498 0.78004 0.88985 0.0
H2050 H 0.05983 0.80992 0.03744 0.0
C2051 C 0.05119 0.76856 0.96266 0.0
H2052 H 0.06126 0.8042 0.86612 0.0
C2053 C 0.05048 0.77191 0.06155 0.0
C2054 C 0.05342 0.78679 0.09035 0.0
H2055 H 0.04853 0.75688 0.94357 0.0
H2056 H 0.04735 0.76276 0.11518 0.0
C2057 C 0.05722 0.79825 1.0178 0.0
C2058 C 0.91915 0.53688 0.3536 0.0
C2059 C 0.93062 0.54109 0.28032 0.0
H2060 H 0.91418 0.53659 0.50647 0.0
C2061 C 0.94641 0.54857 0.30904 0.0
H2062 H 0.90689 0.53135 0.33498 0.0
C2063 C 0.95058 0.55165 0.40794 0.0
C2064 C 0.93908 0.54726 0.481 0.0
H2065 H 0.95558 0.5518 0.25547 0.0
H2066 H 0.96283 0.55721 0.42729 0.0
C2067 C 0.92332 0.53987 0.45247 0.0
C2068 C 0.43417 0.38689 0.41802 0.0
C2069 C 0.44545 0.38971 0.49046 0.0
H2070 H 0.42817 0.38338 0.26576 0.0
C2071 C 0.45982 0.3913 0.46084 0.0
H2072 H 0.42287 0.38536 0.43735 0.0
C2073 C 0.46276 0.39002 0.36214 0.0
C2074 C 0.45148 0.38719 0.29005 0.0
H2075 H 0.46893 0.39375 0.51353 0.0
H2076 H 0.47402 0.39149 0.34208 0.0
C2077 C 0.43717 0.38573 0.31914 0.0
C2078 C 0.59649 0.04656 0.31828 0.0
C2079 C 0.60482 0.06233 0.28889 0.0
H2080 H 0.58909 0.03022 0.43713 0.0
C2081 C 0.6124 0.07381 0.36171 0.0
H2082 H 0.5903 0.03736 0.26532 0.0
C2083 C 0.61153 0.06969 0.46049 0.0
C2084 C 0.60321 0.05396 0.48958 0.0
H2085 H 0.61917 0.08605 0.34299 0.0
H2086 H 0.61763 0.07884 0.514 0.0
C2087 C 0.59575 0.04244 0.41718 0.0
loop_
_geom_bond_atom_site_label_1
_geom_bond_atom_site_label_2
_geom_bond_distance
_geom_bond_site_symmetry_2
_ccdc_geom_bond_type
Co0 N4 2.148 . S
Co0 N10 2.128 . S
Co0 N20 2.194 . S
Co0 O25 2.351 . S
Co0 O26 2.155 . S
Co0 O27 2.096 . S
C1 N4 1.301 . S
C1 N5 1.328 1_554 S
C1 H6 0.930 . S
C2 C3 1.333 1_554 S
C2 N4 1.317 . S
C2 H7 0.930 . S
C3 C2 1.333 1_556 S
C3 N5 1.350 . S
C3 H29 0.931 . S
N4 Co0 2.148 . S
N4 C1 1.301 . S
N4 C2 1.317 . S
N5 C1 1.328 1_556 S
N5 C3 1.350 . S
H6 C1 0.930 . S
H7 C2 0.930 . S
C8 O9 1.224 . S
C8 O27 1.247 . S
O9 C8 1.224 . S
N10 Co0 2.128 . S
N10 C11 1.355 . S
N10 C13 1.311 . S
C11 N10 1.355 . S
C11 C12 1.363 . S
C11 H23 0.929 . S
C12 C11 1.363 . S
C12 N14 1.375 . S
C12 H30 0.931 . S
C13 N10 1.311 . S
C13 N14 1.347 . S
C13 H24 0.929 . S
N14 C12 1.375 . S
N14 C13 1.347 . S
C15 C18 1.365 . S
C15 N20 1.328 . S
C15 H21 0.929 . S
C16 C17 1.362 . S
C16 C19 1.378 . S
C16 H31 0.929 . S
C17 C16 1.362 . S
C17 C18 1.366 . S
C18 C15 1.365 . S
C18 C17 1.366 . S
C18 H32 0.930 . S
C19 C16 1.378 . S
C19 N20 1.315 . S
C19 H22 0.930 . S
N20 Co0 2.194 . S
N20 C15 1.328 . S
N20 C19 1.315 . S
H21 C15 0.929 . S
H22 C19 0.930 . S
H23 C11 0.929 . S
H24 C13 0.929 . S
O25 Co0 2.351 . S
O25 C28 1.244 . S
O26 Co0 2.155 . S
O26 C28 1.240 . S
O27 Co0 2.096 . S
O27 C8 1.247 . S
C28 O25 1.244 . S
C28 O26 1.240 . S
H29 C3 0.931 . S
H30 C12 0.931 . S
H31 C16 0.929 . S
H32 C18 0.930 . S
Co33 N37 2.148 . S
Co33 N43 2.128 . S
Co33 N53 2.194 . S
Co33 O58 2.351 . S
Co33 O59 2.155 . S
Co33 O60 2.096 . S
C34 N37 1.301 . S
C34 N38 1.328 1_554 S
C34 H39 0.930 . S
C35 C36 1.333 1_554 S
C35 N37 1.317 . S
C35 H40 0.930 . S
C36 C35 1.333 1_556 S
C36 N38 1.350 . S
C36 H62 0.931 . S
N37 Co33 2.148 . S
N37 C34 1.301 . S
N37 C35 1.317 . S
N38 C34 1.328 1_556 S
N38 C36 1.350 . S
H39 C34 0.930 . S
H40 C35 0.930 . S
C41 O42 1.224 . S
C41 O60 1.247 . S
O42 C41 1.224 . S
N43 Co33 2.128 . S
N43 C44 1.355 . S
N43 C46 1.311 . S
C44 N43 1.355 . S
C44 C45 1.363 . S
C44 H56 0.929 . S
C45 C44 1.363 . S
C45 N47 1.375 . S
C45 H63 0.931 . S
C46 N43 1.311 . S
C46 N47 1.347 . S
C46 H57 0.929 . S
N47 C45 1.375 . S
N47 C46 1.347 . S
C48 C51 1.365 . S
C48 N53 1.328 . S
C48 H54 0.929 . S
C49 C50 1.362 . S
C49 C52 1.378 . S
C49 H64 0.929 . S
C50 C49 1.362 . S
C50 C51 1.366 . S
C51 C48 1.365 . S
C51 C50 1.366 . S
C51 H65 0.930 . S
C52 C49 1.378 . S
C52 N53 1.315 . S
C52 H55 0.930 . S
N53 Co33 2.194 . S
N53 C48 1.328 . S
N53 C52 1.315 . S
H54 C48 0.929 . S
H55 C52 0.930 . S
H56 C44 0.929 . S
H57 C46 0.929 . S
O58 Co33 2.351 . S
O58 C61 1.244 . S
O59 Co33 2.155 . S
O59 C61 1.240 . S
O60 Co33 2.096 . S
O60 C41 1.247 . S
C61 O58 1.244 . S
C61 O59 1.240 . S
H62 C36 0.931 . S
H63 C45 0.931 . S
H64 C49 0.929 . S
H65 C51 0.930 . S
Co66 N70 2.148 . S
Co66 N76 2.128 . S
Co66 N86 2.194 . S
Co66 O91 2.351 . S
Co66 O92 2.155 . S
Co66 O93 2.096 . S
C67 N70 1.301 . S
C67 N71 1.328 1_554 S
C67 H72 0.930 . S
C68 C69 1.333 1_554 S
C68 N70 1.317 . S
C68 H73 0.930 . S
C69 C68 1.333 1_556 S
C69 N71 1.350 . S
C69 H95 0.931 . S
N70 Co66 2.148 . S
N70 C67 1.301 . S
N70 C68 1.317 . S
N71 C67 1.328 1_556 S
N71 C69 1.350 . S
H72 C67 0.930 . S
H73 C68 0.930 . S
C74 O75 1.224 . S
C74 O93 1.247 . S
O75 C74 1.224 . S
N76 Co66 2.128 . S
N76 C77 1.355 . S
N76 C79 1.311 . S
C77 N76 1.355 . S
C77 C78 1.363 . S
C77 H89 0.929 . S
C78 C77 1.363 . S
C78 N80 1.375 . S
C78 H96 0.931 . S
C79 N76 1.311 . S
C79 N80 1.347 . S
C79 H90 0.929 . S
N80 C78 1.375 . S
N80 C79 1.347 . S
C81 C84 1.365 . S
C81 N86 1.328 . S
C81 H87 0.929 . S
C82 C83 1.362 . S
C82 C85 1.378 . S
C82 H97 0.929 . S
C83 C82 1.362 . S
C83 C84 1.366 . S
C84 C81 1.365 . S
C84 C83 1.366 . S
C84 H98 0.930 . S
C85 C82 1.378 . S
C85 N86 1.315 . S
C85 H88 0.930 . S
N86 Co66 2.194 . S
N86 C81 1.328 . S
N86 C85 1.315 . S
H87 C81 0.929 . S
H88 C85 0.930 . S
H89 C77 0.929 . S
H90 C79 0.929 . S
O91 Co66 2.351 . S
O91 C94 1.244 . S
O92 Co66 2.155 . S
O92 C94 1.240 . S
O93 Co66 2.096 . S
O93 C74 1.247 . S
C94 O91 1.244 . S
C94 O92 1.240 . S
H95 C69 0.931 . S
H96 C78 0.931 . S
H97 C82 0.929 . S
H98 C84 0.930 . S
Co99 N103 2.148 . S
Co99 N109 2.128 . S
Co99 N119 2.194 . S
Co99 O124 2.351 . S
Co99 O125 2.155 . S
Co99 O126 2.096 . S
C100 N103 1.301 . S
C100 N104 1.328 1_556 S
C100 H105 0.930 . S
C101 C102 1.333 1_556 S
C101 N103 1.317 . S
C101 H106 0.930 . S
C102 C101 1.333 1_554 S
C102 N104 1.350 . S
C102 H128 0.931 . S
N103 Co99 2.148 . S
N103 C100 1.301 . S
N103 C101 1.317 . S
N104 C100 1.328 1_554 S
N104 C102 1.350 . S
H105 C100 0.930 . S
H106 C101 0.930 . S
C107 O108 1.224 . S
C107 O126 1.247 . S
O108 C107 1.224 . S
N109 Co99 2.128 . S
N109 C110 1.355 . S
N109 C112 1.311 . S
C110 N109 1.355 . S
C110 C111 1.363 . S
C110 H122 0.929 . S
C111 C110 1.363 . S
C111 N113 1.375 . S
C111 H129 0.931 . S
C112 N109 1.311 . S
C112 N113 1.347 . S
C112 H123 0.929 . S
N113 C111 1.375 . S
N113 C112 1.347 . S
C114 C117 1.365 . S
C114 N119 1.328 . S
C114 H120 0.929 . S
C115 C116 1.362 . S
C115 C118 1.378 . S
C115 H130 0.929 . S
C116 C115 1.362 . S
C116 C117 1.366 . S
C117 C114 1.365 . S
C117 C116 1.366 . S
C117 H131 0.930 . S
C118 C115 1.378 . S
C118 N119 1.315 . S
C118 H121 0.930 . S
N119 Co99 2.194 . S
N119 C114 1.328 . S
N119 C118 1.315 . S
H120 C114 0.929 . S
H121 C118 0.930 . S
H122 C110 0.929 . S
H123 C112 0.929 . S
O124 Co99 2.351 . S
O124 C127 1.244 . S
O125 Co99 2.155 . S
O125 C127 1.240 . S
O126 Co99 2.096 . S
O126 C107 1.247 . S
C127 O124 1.244 . S
C127 O125 1.240 . S
H128 C102 0.931 . S
H129 C111 0.931 . S
H130 C115 0.929 . S
H131 C117 0.930 . S
Co132 N136 2.148 . S
Co132 N142 2.128 . S
Co132 N152 2.194 . S
Co132 O157 2.351 . S
Co132 O158 2.155 . S
Co132 O159 2.096 . S
C133 N136 1.301 . S
C133 N137 1.328 1_556 S
C133 H138 0.930 . S
C134 C135 1.333 1_556 S
C134 N136 1.317 . S
C134 H139 0.930 . S
C135 C134 1.333 1_554 S
C135 N137 1.350 . S
C135 H161 0.931 . S
N136 Co132 2.148 . S
N136 C133 1.301 . S
N136 C134 1.317 . S
N137 C133 1.328 1_554 S
N137 C135 1.350 . S
H138 C133 0.930 . S
H139 C134 0.930 . S
C140 O141 1.224 . S
C140 O159 1.247 . S
O141 C140 1.224 . S
N142 Co132 2.128 . S
N142 C143 1.355 . S
N142 C145 1.311 . S
C143 N142 1.355 . S
C143 C144 1.363 . S
C143 H155 0.929 . S
C144 C143 1.363 . S
C144 N146 1.375 . S
C144 H162 0.931 . S
C145 N142 1.311 . S
C145 N146 1.347 . S
C145 H156 0.929 . S
N146 C144 1.375 . S
N146 C145 1.347 . S
C147 C150 1.365 . S
C147 N152 1.328 . S
C147 H153 0.929 . S
C148 C149 1.362 . S
C148 C151 1.378 . S
C148 H163 0.929 . S
C149 C148 1.362 . S
C149 C150 1.366 . S
C150 C147 1.365 . S
C150 C149 1.366 . S
C150 H164 0.930 . S
C151 C148 1.378 . S
C151 N152 1.315 . S
C151 H154 0.930 . S
N152 Co132 2.194 . S
N152 C147 1.328 . S
N152 C151 1.315 . S
H153 C147 0.929 . S
H154 C151 0.930 . S
H155 C143 0.929 . S
H156 C145 0.929 . S
O157 Co132 2.351 . S
O157 C160 1.244 . S
O158 Co132 2.155 . S
O158 C160 1.240 . S
O159 Co132 2.096 . S
O159 C140 1.247 . S
C160 O157 1.244 . S
C160 O158 1.240 . S
H161 C135 0.931 . S
H162 C144 0.931 . S
H163 C148 0.929 . S
H164 C150 0.930 . S
Co165 N169 2.148 . S
Co165 N175 2.128 . S
Co165 N185 2.194 . S
Co165 O190 2.351 . S
Co165 O191 2.155 . S
Co165 O192 2.096 . S
C166 N169 1.301 . S
C166 N170 1.328 1_556 S
C166 H171 0.930 . S
C167 C168 1.333 1_556 S
C167 N169 1.317 . S
C167 H172 0.930 . S
C168 C167 1.333 1_554 S
C168 N170 1.350 . S
C168 H194 0.931 . S
N169 Co165 2.148 . S
N169 C166 1.301 . S
N169 C167 1.317 . S
N170 C166 1.328 1_554 S
N170 C168 1.350 . S
H171 C166 0.930 . S
H172 C167 0.930 . S
C173 O174 1.224 . S
C173 O192 1.247 . S
O174 C173 1.224 . S
N175 Co165 2.128 . S
N175 C176 1.355 . S
N175 C178 1.311 . S
C176 N175 1.355 . S
C176 C177 1.363 . S
C176 H188 0.929 . S
C177 C176 1.363 . S
C177 N179 1.375 . S
C177 H195 0.931 . S
C178 N175 1.311 . S
C178 N179 1.347 . S
C178 H189 0.929 . S
N179 C177 1.375 . S
N179 C178 1.347 . S
C180 C183 1.365 . S
C180 N185 1.328 . S
C180 H186 0.929 . S
C181 C182 1.362 . S
C181 C184 1.378 . S
C181 H196 0.929 . S
C182 C181 1.362 . S
C182 C183 1.366 . S
C183 C180 1.365 . S
C183 C182 1.366 . S
C183 H197 0.930 . S
C184 C181 1.378 . S
C184 N185 1.315 . S
C184 H187 0.930 . S
N185 Co165 2.194 . S
N185 C180 1.328 . S
N185 C184 1.315 . S
H186 C180 0.929 . S
H187 C184 0.930 . S
H188 C176 0.929 . S
H189 C178 0.929 . S
O190 Co165 2.351 . S
O190 C193 1.244 . S
O191 Co165 2.155 . S
O191 C193 1.240 . S
O192 Co165 2.096 . S
O192 C173 1.247 . S
C193 O190 1.244 . S
C193 O191 1.240 . S
H194 C168 0.931 . S
H195 C177 0.931 . S
H196 C181 0.929 . S
H197 C183 0.930 . S
Co198 N202 2.148 . S
Co198 N208 2.128 . S
Co198 N218 2.194 . S
Co198 O223 2.351 . S
Co198 O224 2.155 . S
Co198 O225 2.096 . S
C199 N202 1.301 . S
C199 N203 1.328 1_556 S
C199 H204 0.930 . S
C200 C201 1.333 1_556 S
C200 N202 1.317 . S
C200 H205 0.930 . S
C201 C200 1.333 1_554 S
C201 N203 1.350 . S
C201 H227 0.931 . S
N202 Co198 2.148 . S
N202 C199 1.301 . S
N202 C200 1.317 . S
N203 C199 1.328 1_554 S
N203 C201 1.350 . S
H204 C199 0.930 . S
H205 C200 0.930 . S
C206 O207 1.224 . S
C206 O225 1.247 . S
O207 C206 1.224 . S
N208 Co198 2.128 . S
N208 C209 1.355 . S
N208 C211 1.311 . S
C209 N208 1.355 . S
C209 C210 1.363 . S
C209 H221 0.929 . S
C210 C209 1.363 . S
C210 N212 1.375 . S
C210 H228 0.931 . S
C211 N208 1.311 . S
C211 N212 1.347 . S
C211 H222 0.929 . S
N212 C210 1.375 . S
N212 C211 1.347 . S
C213 C216 1.365 . S
C213 N218 1.328 . S
C213 H219 0.929 . S
C214 C215 1.362 . S
C214 C217 1.378 . S
C214 H229 0.929 . S
C215 C214 1.362 . S
C215 C216 1.366 . S
C216 C213 1.365 . S
C216 C215 1.366 . S
C216 H230 0.930 . S
C217 C214 1.378 . S
C217 N218 1.315 . S
C217 H220 0.930 . S
N218 Co198 2.194 . S
N218 C213 1.328 . S
N218 C217 1.315 . S
H219 C213 0.929 . S
H220 C217 0.930 . S
H221 C209 0.929 . S
H222 C211 0.929 . S
O223 Co198 2.351 . S
O223 C226 1.244 . S
O224 Co198 2.155 . S
O224 C226 1.240 . S
O225 Co198 2.096 . S
O225 C206 1.247 . S
C226 O223 1.244 . S
C226 O224 1.240 . S
H227 C201 0.931 . S
H228 C210 0.931 . S
H229 C214 0.929 . S
H230 C216 0.930 . S
Co231 N235 2.148 . S
Co231 N241 2.128 . S
Co231 N251 2.194 . S
Co231 O256 2.351 . S
Co231 O257 2.155 . S
Co231 O258 2.096 . S
C232 N235 1.301 . S
C232 N236 1.328 1_556 S
C232 H237 0.930 . S
C233 C234 1.333 1_556 S
C233 N235 1.317 . S
C233 H238 0.930 . S
C234 C233 1.333 1_554 S
C234 N236 1.350 . S
C234 H260 0.931 . S
N235 Co231 2.148 . S
N235 C232 1.301 . S
N235 C233 1.317 . S
N236 C232 1.328 1_554 S
N236 C234 1.350 . S
H237 C232 0.930 . S
H238 C233 0.930 . S
C239 O240 1.224 . S
C239 O258 1.247 . S
O240 C239 1.224 . S
N241 Co231 2.128 . S
N241 C242 1.355 . S
N241 C244 1.311 . S
C242 N241 1.355 . S
C242 C243 1.363 . S
C242 H254 0.929 . S
C243 C242 1.363 . S
C243 N245 1.375 . S
C243 H261 0.931 . S
C244 N241 1.311 . S
C244 N245 1.347 . S
C244 H255 0.929 . S
N245 C243 1.375 . S
N245 C244 1.347 . S
C246 C249 1.365 . S
C246 N251 1.328 . S
C246 H252 0.929 . S
C247 C248 1.362 . S
C247 C250 1.378 . S
C247 H262 0.929 . S
C248 C247 1.362 . S
C248 C249 1.366 . S
C249 C246 1.365 . S
C249 C248 1.366 . S
C249 H263 0.930 . S
C250 C247 1.378 . S
C250 N251 1.315 . S
C250 H253 0.930 . S
N251 Co231 2.194 . S
N251 C246 1.328 . S
N251 C250 1.315 . S
H252 C246 0.929 . S
H253 C250 0.930 . S
H254 C242 0.929 . S
H255 C244 0.929 . S
O256 Co231 2.351 . S
O256 C259 1.244 . S
O257 Co231 2.155 . S
O257 C259 1.240 . S
O258 Co231 2.096 . S
O258 C239 1.247 . S
C259 O256 1.244 . S
C259 O257 1.240 . S
H260 C234 0.931 . S
H261 C243 0.931 . S
H262 C247 0.929 . S
H263 C249 0.930 . S
Co264 N268 2.148 . S
Co264 N274 2.128 . S
Co264 N284 2.194 . S
Co264 O289 2.351 . S
Co264 O290 2.155 . S
Co264 O291 2.096 . S
C265 N268 1.301 . S
C265 N269 1.328 1_556 S
C265 H270 0.930 . S
C266 C267 1.333 1_556 S
C266 N268 1.317 . S
C266 H271 0.930 . S
C267 C266 1.333 1_554 S
C267 N269 1.350 . S
C267 H293 0.931 . S
N268 Co264 2.148 . S
N268 C265 1.301 . S
N268 C266 1.317 . S
N269 C265 1.328 1_554 S
N269 C267 1.350 . S
H270 C265 0.930 . S
H271 C266 0.930 . S
C272 O273 1.224 . S
C272 O291 1.247 . S
O273 C272 1.224 . S
N274 Co264 2.128 . S
N274 C275 1.355 . S
N274 C277 1.311 . S
C275 N274 1.355 . S
C275 C276 1.363 . S
C275 H287 0.929 . S
C276 C275 1.363 . S
C276 N278 1.375 . S
C276 H294 0.931 . S
C277 N274 1.311 . S
C277 N278 1.347 . S
C277 H288 0.929 . S
N278 C276 1.375 . S
N278 C277 1.347 . S
C279 C282 1.365 . S
C279 N284 1.328 . S
C279 H285 0.929 . S
C280 C281 1.362 . S
C280 C283 1.378 . S
C280 H295 0.929 . S
C281 C280 1.362 . S
C281 C282 1.366 . S
C282 C279 1.365 . S
C282 C281 1.366 . S
C282 H296 0.930 . S
C283 C280 1.378 . S
C283 N284 1.315 . S
C283 H286 0.930 . S
N284 Co264 2.194 . S
N284 C279 1.328 . S
N284 C283 1.315 . S
H285 C279 0.929 . S
H286 C283 0.930 . S
H287 C275 0.929 . S
H288 C277 0.929 . S
O289 Co264 2.351 . S
O289 C292 1.244 . S
O290 Co264 2.155 . S
O290 C292 1.240 . S
O291 Co264 2.096 . S
O291 C272 1.247 . S
C292 O289 1.244 . S
C292 O290 1.240 . S
H293 C267 0.931 . S
H294 C276 0.931 . S
H295 C280 0.929 . S
H296 C282 0.930 . S
Co297 N301 2.148 . S
Co297 N307 2.128 . S
Co297 N317 2.194 . S
Co297 O322 2.351 . S
Co297 O323 2.155 . S
Co297 O324 2.096 . S
C298 N301 1.301 . S
C298 N302 1.328 1_554 S
C298 H303 0.930 . S
C299 C300 1.333 1_554 S
C299 N301 1.317 . S
C299 H304 0.930 . S
C300 C299 1.333 1_556 S
C300 N302 1.350 . S
C300 H326 0.931 . S
N301 Co297 2.148 . S
N301 C298 1.301 . S
N301 C299 1.317 . S
N302 C298 1.328 1_556 S
N302 C300 1.350 . S
H303 C298 0.930 . S
H304 C299 0.930 . S
C305 O306 1.224 . S
C305 O324 1.247 . S
O306 C305 1.224 . S
N307 Co297 2.128 . S
N307 C308 1.355 . S
N307 C310 1.311 . S
C308 N307 1.355 . S
C308 C309 1.363 . S
C308 H320 0.929 . S
C309 C308 1.363 . S
C309 N311 1.375 . S
C309 H327 0.931 . S
C310 N307 1.311 . S
C310 N311 1.347 . S
C310 H321 0.929 . S
N311 C309 1.375 . S
N311 C310 1.347 . S
C312 C315 1.365 . S
C312 N317 1.328 . S
C312 H318 0.929 . S
C313 C314 1.362 . S
C313 C316 1.378 . S
C313 H328 0.929 . S
C314 C313 1.362 . S
C314 C315 1.366 . S
C315 C312 1.365 . S
C315 C314 1.366 . S
C315 H329 0.930 . S
C316 C313 1.378 . S
C316 N317 1.315 . S
C316 H319 0.930 . S
N317 Co297 2.194 . S
N317 C312 1.328 . S
N317 C316 1.315 . S
H318 C312 0.929 . S
H319 C316 0.930 . S
H320 C308 0.929 . S
H321 C310 0.929 . S
O322 Co297 2.351 . S
O322 C325 1.244 . S
O323 Co297 2.155 . S
O323 C325 1.240 . S
O324 Co297 2.096 . S
O324 C305 1.247 . S
C325 O322 1.244 . S
C325 O323 1.240 . S
H326 C300 0.931 . S
H327 C309 0.931 . S
H328 C313 0.929 . S
H329 C315 0.930 . S
Co330 N334 2.148 . S
Co330 N340 2.128 . S
Co330 N350 2.194 . S
Co330 O355 2.351 . S
Co330 O356 2.155 . S
Co330 O357 2.096 . S
C331 N334 1.301 . S
C331 N335 1.328 1_554 S
C331 H336 0.930 . S
C332 C333 1.333 1_554 S
C332 N334 1.317 . S
C332 H337 0.930 . S
C333 C332 1.333 1_556 S
C333 N335 1.350 . S
C333 H359 0.931 . S
N334 Co330 2.148 . S
N334 C331 1.301 . S
N334 C332 1.317 . S
N335 C331 1.328 1_556 S
N335 C333 1.350 . S
H336 C331 0.930 . S
H337 C332 0.930 . S
C338 O339 1.224 . S
C338 O357 1.247 . S
O339 C338 1.224 . S
N340 Co330 2.128 . S
N340 C341 1.355 . S
N340 C343 1.311 . S
C341 N340 1.355 . S
C341 C342 1.363 . S
C341 H353 0.929 . S
C342 C341 1.363 . S
C342 N344 1.375 . S
C342 H360 0.931 . S
C343 N340 1.311 . S
C343 N344 1.347 . S
C343 H354 0.929 . S
N344 C342 1.375 . S
N344 C343 1.347 . S
C345 C348 1.365 . S
C345 N350 1.328 . S
C345 H351 0.929 . S
C346 C347 1.362 . S
C346 C349 1.378 . S
C346 H361 0.929 . S
C347 C346 1.362 . S
C347 C348 1.366 . S
C348 C345 1.365 . S
C348 C347 1.366 . S
C348 H362 0.930 . S
C349 C346 1.378 . S
C349 N350 1.315 . S
C349 H352 0.930 . S
N350 Co330 2.194 . S
N350 C345 1.328 . S
N350 C349 1.315 . S
H351 C345 0.929 . S
H352 C349 0.930 . S
H353 C341 0.929 . S
H354 C343 0.929 . S
O355 Co330 2.351 . S
O355 C358 1.244 . S
O356 Co330 2.155 . S
O356 C358 1.240 . S
O357 Co330 2.096 . S
O357 C338 1.247 . S
C358 O355 1.244 . S
C358 O356 1.240 . S
H359 C333 0.931 . S
H360 C342 0.931 . S
H361 C346 0.929 . S
H362 C348 0.930 . S
Co363 N367 2.148 . S
Co363 N373 2.128 . S
Co363 N383 2.194 . S
Co363 O388 2.351 . S
Co363 O389 2.155 . S
Co363 O390 2.096 . S
C364 N367 1.301 . S
C364 N368 1.328 1_554 S
C364 H369 0.930 . S
C365 C366 1.333 1_554 S
C365 N367 1.317 . S
C365 H370 0.930 . S
C366 C365 1.333 1_556 S
C366 N368 1.350 . S
C366 H392 0.931 . S
N367 Co363 2.148 . S
N367 C364 1.301 . S
N367 C365 1.317 . S
N368 C364 1.328 1_556 S
N368 C366 1.350 . S
H369 C364 0.930 . S
H370 C365 0.930 . S
C371 O372 1.224 . S
C371 O390 1.247 . S
O372 C371 1.224 . S
N373 Co363 2.128 . S
N373 C374 1.355 . S
N373 C376 1.311 . S
C374 N373 1.355 . S
C374 C375 1.363 . S
C374 H386 0.929 . S
C375 C374 1.363 . S
C375 N377 1.375 . S
C375 H393 0.931 . S
C376 N373 1.311 . S
C376 N377 1.347 . S
C376 H387 0.929 . S
N377 C375 1.375 . S
N377 C376 1.347 . S
C378 C381 1.365 . S
C378 N383 1.328 . S
C378 H384 0.929 . S
C379 C380 1.362 . S
C379 C382 1.378 . S
C379 H394 0.929 . S
C380 C379 1.362 . S
C380 C381 1.366 . S
C381 C378 1.365 . S
C381 C380 1.366 . S
C381 H395 0.930 . S
C382 C379 1.378 . S
C382 N383 1.315 . S
C382 H385 0.930 . S
N383 Co363 2.194 . S
N383 C378 1.328 . S
N383 C382 1.315 . S
H384 C378 0.929 . S
H385 C382 0.930 . S
H386 C374 0.929 . S
H387 C376 0.929 . S
O388 Co363 2.351 . S
O388 C391 1.244 . S
O389 Co363 2.155 . S
O389 C391 1.240 . S
O390 Co363 2.096 . S
O390 C371 1.247 . S
C391 O388 1.244 . S
C391 O389 1.240 . S
H392 C366 0.931 . S
H393 C375 0.931 . S
H394 C379 0.929 . S
H395 C381 0.930 . S
Co396 N400 2.148 . S
Co396 N406 2.128 . S
Co396 N416 2.194 . S
Co396 O421 2.351 . S
Co396 O422 2.155 . S
Co396 O423 2.096 . S
C397 N400 1.301 . S
C397 N401 1.328 . S
C397 H402 0.930 . S
C398 C399 1.333 . S
C398 N400 1.317 . S
C398 H403 0.930 . S
C399 C398 1.333 . S
C399 N401 1.350 . S
C399 H425 0.931 . S
N400 Co396 2.148 . S
N400 C397 1.301 . S
N400 C398 1.317 . S
N401 C397 1.328 . S
N401 C399 1.350 . S
H402 C397 0.930 . S
H403 C398 0.930 . S
C404 O405 1.224 . S
C404 O423 1.247 . S
O405 C404 1.224 . S
N406 Co396 2.128 . S
N406 C407 1.355 . S
N406 C409 1.311 . S
C407 N406 1.355 . S
C407 C408 1.363 . S
C407 H419 0.929 . S
C408 C407 1.363 . S
C408 N410 1.375 . S
C408 H426 0.931 . S
C409 N406 1.311 . S
C409 N410 1.347 . S
C409 H420 0.929 . S
N410 C408 1.375 . S
N410 C409 1.347 . S
C411 C414 1.365 . S
C411 N416 1.328 . S
C411 H417 0.929 . S
C412 C413 1.362 . S
C412 C415 1.378 . S
C412 H427 0.929 . S
C413 C412 1.362 . S
C413 C414 1.366 . S
C414 C411 1.365 . S
C414 C413 1.366 . S
C414 H428 0.930 . S
C415 C412 1.378 . S
C415 N416 1.315 . S
C415 H418 0.930 . S
N416 Co396 2.194 . S
N416 C411 1.328 . S
N416 C415 1.315 . S
H417 C411 0.929 . S
H418 C415 0.930 . S
H419 C407 0.929 . S
H420 C409 0.929 . S
O421 Co396 2.351 . S
O421 C424 1.244 . S
O422 Co396 2.155 . S
O422 C424 1.240 . S
O423 Co396 2.096 . S
O423 C404 1.247 . S
C424 O421 1.244 . S
C424 O422 1.240 . S
H425 C399 0.931 . S
H426 C408 0.931 . S
H427 C412 0.929 . S
H428 C414 0.930 . S
Co429 N433 2.148 . S
Co429 N439 2.128 . S
Co429 N449 2.194 . S
Co429 O454 2.351 . S
Co429 O455 2.155 . S
Co429 O456 2.096 . S
C430 N433 1.301 . S
C430 N434 1.328 . S
C430 H435 0.930 . S
C431 C432 1.333 . S
C431 N433 1.317 . S
C431 H436 0.930 . S
C432 C431 1.333 . S
C432 N434 1.350 . S
C432 H458 0.931 . S
N433 Co429 2.148 . S
N433 C430 1.301 . S
N433 C431 1.317 . S
N434 C430 1.328 . S
N434 C432 1.350 . S
H435 C430 0.930 . S
H436 C431 0.930 . S
C437 O438 1.224 . S
C437 O456 1.247 . S
O438 C437 1.224 . S
N439 Co429 2.128 . S
N439 C440 1.355 . S
N439 C442 1.311 . S
C440 N439 1.355 . S
C440 C441 1.363 . S
C440 H452 0.929 . S
C441 C440 1.363 . S
C441 N443 1.375 . S
C441 H459 0.931 . S
C442 N439 1.311 . S
C442 N443 1.347 . S
C442 H453 0.929 . S
N443 C441 1.375 . S
N443 C442 1.347 . S
C444 C447 1.365 . S
C444 N449 1.328 . S
C444 H450 0.929 . S
C445 C446 1.362 . S
C445 C448 1.378 . S
C445 H460 0.929 . S
C446 C445 1.362 . S
C446 C447 1.366 . S
C447 C444 1.365 . S
C447 C446 1.366 . S
C447 H461 0.930 . S
C448 C445 1.378 . S
C448 N449 1.315 . S
C448 H451 0.930 . S
N449 Co429 2.194 . S
N449 C444 1.328 . S
N449 C448 1.315 . S
H450 C444 0.929 . S
H451 C448 0.930 . S
H452 C440 0.929 . S
H453 C442 0.929 . S
O454 Co429 2.351 . S
O454 C457 1.244 . S
O455 Co429 2.155 . S
O455 C457 1.240 . S
O456 Co429 2.096 . S
O456 C437 1.247 . S
C457 O454 1.244 . S
C457 O455 1.240 . S
H458 C432 0.931 . S
H459 C441 0.931 . S
H460 C445 0.929 . S
H461 C447 0.930 . S
Co462 N466 2.148 . S
Co462 N472 2.128 . S
Co462 N482 2.194 . S
Co462 O487 2.351 . S
Co462 O488 2.155 . S
Co462 O489 2.096 . S
C463 N466 1.301 . S
C463 N467 1.328 . S
C463 H468 0.930 . S
C464 C465 1.333 . S
C464 N466 1.317 . S
C464 H469 0.930 . S
C465 C464 1.333 . S
C465 N467 1.350 . S
C465 H491 0.931 . S
N466 Co462 2.148 . S
N466 C463 1.301 . S
N466 C464 1.317 . S
N467 C463 1.328 . S
N467 C465 1.350 . S
H468 C463 0.930 . S
H469 C464 0.930 . S
C470 O471 1.224 . S
C470 O489 1.247 . S
O471 C470 1.224 . S
N472 Co462 2.128 . S
N472 C473 1.355 . S
N472 C475 1.311 . S
C473 N472 1.355 . S
C473 C474 1.363 . S
C473 H485 0.929 . S
C474 C473 1.363 . S
C474 N476 1.375 . S
C474 H492 0.931 . S
C475 N472 1.311 . S
C475 N476 1.347 . S
C475 H486 0.929 . S
N476 C474 1.375 . S
N476 C475 1.347 . S
C477 C480 1.365 . S
C477 N482 1.328 . S
C477 H483 0.929 . S
C478 C479 1.362 . S
C478 C481 1.378 . S
C478 H493 0.929 . S
C479 C478 1.362 . S
C479 C480 1.366 . S
C480 C477 1.365 . S
C480 C479 1.366 . S
C480 H494 0.930 . S
C481 C478 1.378 . S
C481 N482 1.315 . S
C481 H484 0.930 . S
N482 Co462 2.194 . S
N482 C477 1.328 . S
N482 C481 1.315 . S
H483 C477 0.929 . S
H484 C481 0.930 . S
H485 C473 0.929 . S
H486 C475 0.929 . S
O487 Co462 2.351 . S
O487 C490 1.244 . S
O488 Co462 2.155 . S
O488 C490 1.240 . S
O489 Co462 2.096 . S
O489 C470 1.247 . S
C490 O487 1.244 . S
C490 O488 1.240 . S
H491 C465 0.931 . S
H492 C474 0.931 . S
H493 C478 0.929 . S
H494 C480 0.930 . S
Co495 N499 2.148 . S
Co495 N505 2.128 1_554 S
Co495 N515 2.194 . S
Co495 O520 2.351 . S
Co495 O521 2.155 . S
Co495 O522 2.096 . S
C496 N499 1.301 . S
C496 N500 1.328 . S
C496 H501 0.930 . S
C497 C498 1.333 . S
C497 N499 1.317 . S
C497 H502 0.930 . S
C498 C497 1.333 . S
C498 N500 1.350 . S
C498 H524 0.931 . S
N499 Co495 2.148 . S
N499 C496 1.301 . S
N499 C497 1.317 . S
N500 C496 1.328 . S
N500 C498 1.350 . S
H501 C496 0.930 . S
H502 C497 0.930 . S
C503 O504 1.224 . S
C503 O522 1.247 . S
O504 C503 1.224 . S
N505 Co495 2.128 1_556 S
N505 C506 1.355 . S
N505 C508 1.311 . S
C506 N505 1.355 . S
C506 C507 1.363 . S
C506 H518 0.929 . S
C507 C506 1.363 . S
C507 N509 1.375 . S
C507 H525 0.931 . S
C508 N505 1.311 . S
C508 N509 1.347 . S
C508 H519 0.929 . S
N509 C507 1.375 . S
N509 C508 1.347 . S
C510 C513 1.365 . S
C510 N515 1.328 . S
C510 H516 0.929 . S
C511 C512 1.362 . S
C511 C514 1.378 . S
C511 H526 0.929 . S
C512 C511 1.362 . S
C512 C513 1.366 . S
C513 C510 1.365 . S
C513 C512 1.366 . S
C513 H527 0.930 . S
C514 C511 1.378 . S
C514 N515 1.315 . S
C514 H517 0.930 . S
N515 Co495 2.194 . S
N515 C510 1.328 . S
N515 C514 1.315 . S
H516 C510 0.929 . S
H517 C514 0.930 . S
H518 C506 0.929 . S
H519 C508 0.929 . S
O520 Co495 2.351 . S
O520 C523 1.244 . S
O521 Co495 2.155 . S
O521 C523 1.240 . S
O522 Co495 2.096 . S
O522 C503 1.247 . S
C523 O520 1.244 . S
C523 O521 1.240 . S
H524 C498 0.931 . S
H525 C507 0.931 . S
H526 C511 0.929 . S
H527 C513 0.930 . S
Co528 N532 2.148 . S
Co528 N538 2.128 1_554 S
Co528 N548 2.194 . S
Co528 O553 2.351 . S
Co528 O554 2.155 . S
Co528 O555 2.096 . S
C529 N532 1.301 . S
C529 N533 1.328 . S
C529 H534 0.930 . S
C530 C531 1.333 . S
C530 N532 1.317 . S
C530 H535 0.930 . S
C531 C530 1.333 . S
C531 N533 1.350 . S
C531 H557 0.931 . S
N532 Co528 2.148 . S
N532 C529 1.301 . S
N532 C530 1.317 . S
N533 C529 1.328 . S
N533 C531 1.350 . S
H534 C529 0.930 . S
H535 C530 0.930 . S
C536 O537 1.224 . S
C536 O555 1.247 . S
O537 C536 1.224 . S
N538 Co528 2.128 1_556 S
N538 C539 1.355 . S
N538 C541 1.311 . S
C539 N538 1.355 . S
C539 C540 1.363 . S
C539 H551 0.929 . S
C540 C539 1.363 . S
C540 N542 1.375 . S
C540 H558 0.931 . S
C541 N538 1.311 . S
C541 N542 1.347 . S
C541 H552 0.929 . S
N542 C540 1.375 . S
N542 C541 1.347 . S
C543 C546 1.365 . S
C543 N548 1.328 . S
C543 H549 0.929 . S
C544 C545 1.362 . S
C544 C547 1.378 . S
C544 H559 0.929 . S
C545 C544 1.362 . S
C545 C546 1.366 . S
C546 C543 1.365 . S
C546 C545 1.366 . S
C546 H560 0.930 . S
C547 C544 1.378 . S
C547 N548 1.315 . S
C547 H550 0.930 . S
N548 Co528 2.194 . S
N548 C543 1.328 . S
N548 C547 1.315 . S
H549 C543 0.929 . S
H550 C547 0.930 . S
H551 C539 0.929 . S
H552 C541 0.929 . S
O553 Co528 2.351 . S
O553 C556 1.244 . S
O554 Co528 2.155 . S
O554 C556 1.240 . S
O555 Co528 2.096 . S
O555 C536 1.247 . S
C556 O553 1.244 . S
C556 O554 1.240 . S
H557 C531 0.931 . S
H558 C540 0.931 . S
H559 C544 0.929 . S
H560 C546 0.930 . S
Co561 N565 2.148 . S
Co561 N571 2.128 1_554 S
Co561 N581 2.194 . S
Co561 O586 2.351 . S
Co561 O587 2.155 . S
Co561 O588 2.096 . S
C562 N565 1.301 . S
C562 N566 1.328 . S
C562 H567 0.930 . S
C563 C564 1.333 . S
C563 N565 1.317 . S
C563 H568 0.930 . S
C564 C563 1.333 . S
C564 N566 1.350 . S
C564 H590 0.931 . S
N565 Co561 2.148 . S
N565 C562 1.301 . S
N565 C563 1.317 . S
N566 C562 1.328 . S
N566 C564 1.350 . S
H567 C562 0.930 . S
H568 C563 0.930 . S
C569 O570 1.224 . S
C569 O588 1.247 . S
O570 C569 1.224 . S
N571 Co561 2.128 1_556 S
N571 C572 1.355 . S
N571 C574 1.311 . S
C572 N571 1.355 . S
C572 C573 1.363 . S
C572 H584 0.929 . S
C573 C572 1.363 . S
C573 N575 1.375 . S
C573 H591 0.931 . S
C574 N571 1.311 . S
C574 N575 1.347 . S
C574 H585 0.929 . S
N575 C573 1.375 . S
N575 C574 1.347 . S
C576 C579 1.365 . S
C576 N581 1.328 . S
C576 H582 0.929 . S
C577 C578 1.362 . S
C577 C580 1.378 . S
C577 H592 0.929 . S
C578 C577 1.362 . S
C578 C579 1.366 . S
C579 C576 1.365 . S
C579 C578 1.366 . S
C579 H593 0.930 . S
C580 C577 1.378 . S
C580 N581 1.315 . S
C580 H583 0.930 . S
N581 Co561 2.194 . S
N581 C576 1.328 . S
N581 C580 1.315 . S
H582 C576 0.929 . S
H583 C580 0.930 . S
H584 C572 0.929 . S
H585 C574 0.929 . S
O586 Co561 2.351 . S
O586 C589 1.244 . S
O587 Co561 2.155 . S
O587 C589 1.240 . S
O588 Co561 2.096 . S
O588 C569 1.247 . S
C589 O586 1.244 . S
C589 O587 1.240 . S
H590 C564 0.931 . S
H591 C573 0.931 . S
H592 C577 0.929 . S
H593 C579 0.930 . S
Co594 N598 2.148 . S
Co594 N604 2.128 1_554 S
Co594 N614 2.194 . S
Co594 O619 2.351 . S
Co594 O620 2.155 . S
Co594 O621 2.096 . S
C595 N598 1.301 . S
C595 N599 1.328 . S
C595 H600 0.930 . S
C596 C597 1.333 . S
C596 N598 1.317 . S
C596 H601 0.930 . S
C597 C596 1.333 . S
C597 N599 1.350 . S
C597 H623 0.931 . S
N598 Co594 2.148 . S
N598 C595 1.301 . S
N598 C596 1.317 . S
N599 C595 1.328 . S
N599 C597 1.350 . S
H600 C595 0.930 . S
H601 C596 0.930 . S
C602 O603 1.224 . S
C602 O621 1.247 . S
O603 C602 1.224 . S
N604 Co594 2.128 1_556 S
N604 C605 1.355 . S
N604 C607 1.311 . S
C605 N604 1.355 . S
C605 C606 1.363 . S
C605 H617 0.929 . S
C606 C605 1.363 . S
C606 N608 1.375 . S
C606 H624 0.931 . S
C607 N604 1.311 . S
C607 N608 1.347 . S
C607 H618 0.929 . S
N608 C606 1.375 . S
N608 C607 1.347 . S
C609 C612 1.365 . S
C609 N614 1.328 . S
C609 H615 0.929 . S
C610 C611 1.362 . S
C610 C613 1.378 . S
C610 H625 0.929 . S
C611 C610 1.362 . S
C611 C612 1.366 . S
C612 C609 1.365 . S
C612 C611 1.366 . S
C612 H626 0.930 . S
C613 C610 1.378 . S
C613 N614 1.315 . S
C613 H616 0.930 . S
N614 Co594 2.194 . S
N614 C609 1.328 . S
N614 C613 1.315 . S
H615 C609 0.929 . S
H616 C613 0.930 . S
H617 C605 0.929 . S
H618 C607 0.929 . S
O619 Co594 2.351 . S
O619 C622 1.244 . S
O620 Co594 2.155 . S
O620 C622 1.240 . S
O621 Co594 2.096 . S
O621 C602 1.247 . S
C622 O619 1.244 . S
C622 O620 1.240 . S
H623 C597 0.931 . S
H624 C606 0.931 . S
H625 C610 0.929 . S
H626 C612 0.930 . S
Co627 N631 2.148 . S
Co627 N637 2.128 1_554 S
Co627 N647 2.194 . S
Co627 O652 2.351 . S
Co627 O653 2.155 . S
Co627 O654 2.096 . S
C628 N631 1.301 . S
C628 N632 1.328 . S
C628 H633 0.930 . S
C629 C630 1.333 . S
C629 N631 1.317 . S
C629 H634 0.930 . S
C630 C629 1.333 . S
C630 N632 1.350 . S
C630 H656 0.931 . S
N631 Co627 2.148 . S
N631 C628 1.301 . S
N631 C629 1.317 . S
N632 C628 1.328 . S
N632 C630 1.350 . S
H633 C628 0.930 . S
H634 C629 0.930 . S
C635 O636 1.224 . S
C635 O654 1.247 . S
O636 C635 1.224 . S
N637 Co627 2.128 1_556 S
N637 C638 1.355 . S
N637 C640 1.311 . S
C638 N637 1.355 . S
C638 C639 1.363 . S
C638 H650 0.929 . S
C639 C638 1.363 . S
C639 N641 1.375 . S
C639 H657 0.931 . S
C640 N637 1.311 . S
C640 N641 1.347 . S
C640 H651 0.929 . S
N641 C639 1.375 . S
N641 C640 1.347 . S
C642 C645 1.365 . S
C642 N647 1.328 . S
C642 H648 0.929 . S
C643 C644 1.362 . S
C643 C646 1.378 . S
C643 H658 0.929 . S
C644 C643 1.362 . S
C644 C645 1.366 . S
C645 C642 1.365 . S
C645 C644 1.366 . S
C645 H659 0.930 . S
C646 C643 1.378 . S
C646 N647 1.315 . S
C646 H649 0.930 . S
N647 Co627 2.194 . S
N647 C642 1.328 . S
N647 C646 1.315 . S
H648 C642 0.929 . S
H649 C646 0.930 . S
H650 C638 0.929 . S
H651 C640 0.929 . S
O652 Co627 2.351 . S
O652 C655 1.244 . S
O653 Co627 2.155 . S
O653 C655 1.240 . S
O654 Co627 2.096 . S
O654 C635 1.247 . S
C655 O652 1.244 . S
C655 O653 1.240 . S
H656 C630 0.931 . S
H657 C639 0.931 . S
H658 C643 0.929 . S
H659 C645 0.930 . S
Co660 N664 2.148 . S
Co660 N670 2.128 1_554 S
Co660 N680 2.194 . S
Co660 O685 2.351 . S
Co660 O686 2.155 . S
Co660 O687 2.096 . S
C661 N664 1.301 . S
C661 N665 1.328 . S
C661 H666 0.930 . S
C662 C663 1.333 . S
C662 N664 1.317 . S
C662 H667 0.930 . S
C663 C662 1.333 . S
C663 N665 1.350 . S
C663 H689 0.931 . S
N664 Co660 2.148 . S
N664 C661 1.301 . S
N664 C662 1.317 . S
N665 C661 1.328 . S
N665 C663 1.350 . S
H666 C661 0.930 . S
H667 C662 0.930 . S
C668 O669 1.224 . S
C668 O687 1.247 . S
O669 C668 1.224 . S
N670 Co660 2.128 1_556 S
N670 C671 1.355 . S
N670 C673 1.311 . S
C671 N670 1.355 . S
C671 C672 1.363 . S
C671 H683 0.929 . S
C672 C671 1.363 . S
C672 N674 1.375 . S
C672 H690 0.931 . S
C673 N670 1.311 . S
C673 N674 1.347 . S
C673 H684 0.929 . S
N674 C672 1.375 . S
N674 C673 1.347 . S
C675 C678 1.365 . S
C675 N680 1.328 . S
C675 H681 0.929 . S
C676 C677 1.362 . S
C676 C679 1.378 . S
C676 H691 0.929 . S
C677 C676 1.362 . S
C677 C678 1.366 . S
C678 C675 1.365 . S
C678 C677 1.366 . S
C678 H692 0.930 . S
C679 C676 1.378 . S
C679 N680 1.315 . S
C679 H682 0.930 . S
N680 Co660 2.194 . S
N680 C675 1.328 . S
N680 C679 1.315 . S
H681 C675 0.929 . S
H682 C679 0.930 . S
H683 C671 0.929 . S
H684 C673 0.929 . S
O685 Co660 2.351 . S
O685 C688 1.244 . S
O686 Co660 2.155 . S
O686 C688 1.240 . S
O687 Co660 2.096 . S
O687 C668 1.247 . S
C688 O685 1.244 . S
C688 O686 1.240 . S
H689 C663 0.931 . S
H690 C672 0.931 . S
H691 C676 0.929 . S
H692 C678 0.930 . S
Co693 N697 2.148 . S
Co693 N703 2.128 . S
Co693 N713 2.194 . S
Co693 O718 2.351 . S
Co693 O719 2.155 . S
Co693 O720 2.096 . S
C694 N697 1.301 . S
C694 N698 1.328 . S
C694 H699 0.930 . S
C695 C696 1.333 . S
C695 N697 1.317 . S
C695 H700 0.930 . S
C696 C695 1.333 . S
C696 N698 1.350 . S
C696 H722 0.931 . S
N697 Co693 2.148 . S
N697 C694 1.301 . S
N697 C695 1.317 . S
N698 C694 1.328 . S
N698 C696 1.350 . S
H699 C694 0.930 . S
H700 C695 0.930 . S
C701 O702 1.224 . S
C701 O720 1.247 . S
O702 C701 1.224 . S
N703 Co693 2.128 . S
N703 C704 1.355 . S
N703 C706 1.311 . S
C704 N703 1.355 . S
C704 C705 1.363 . S
C704 H716 0.929 . S
C705 C704 1.363 . S
C705 N707 1.375 . S
C705 H723 0.931 . S
C706 N703 1.311 . S
C706 N707 1.347 . S
C706 H717 0.929 . S
N707 C705 1.375 . S
N707 C706 1.347 . S
C708 C711 1.365 . S
C708 N713 1.328 . S
C708 H714 0.929 . S
C709 C710 1.362 . S
C709 C712 1.378 . S
C709 H724 0.929 . S
C710 C709 1.362 . S
C710 C711 1.366 . S
C711 C708 1.365 . S
C711 C710 1.366 . S
C711 H725 0.930 . S
C712 C709 1.378 . S
C712 N713 1.315 . S
C712 H715 0.930 . S
N713 Co693 2.194 . S
N713 C708 1.328 . S
N713 C712 1.315 . S
H714 C708 0.929 . S
H715 C712 0.930 . S
H716 C704 0.929 . S
H717 C706 0.929 . S
O718 Co693 2.351 . S
O718 C721 1.244 . S
O719 Co693 2.155 . S
O719 C721 1.240 . S
O720 Co693 2.096 . S
O720 C701 1.247 . S
C721 O718 1.244 . S
C721 O719 1.240 . S
H722 C696 0.931 . S
H723 C705 0.931 . S
H724 C709 0.929 . S
H725 C711 0.930 . S
Co726 N730 2.148 . S
Co726 N736 2.128 . S
Co726 N746 2.194 . S
Co726 O751 2.351 . S
Co726 O752 2.155 . S
Co726 O753 2.096 . S
C727 N730 1.301 . S
C727 N731 1.328 . S
C727 H732 0.930 . S
C728 C729 1.333 . S
C728 N730 1.317 . S
C728 H733 0.930 . S
C729 C728 1.333 . S
C729 N731 1.350 . S
C729 H755 0.931 . S
N730 Co726 2.148 . S
N730 C727 1.301 . S
N730 C728 1.317 . S
N731 C727 1.328 . S
N731 C729 1.350 . S
H732 C727 0.930 . S
H733 C728 0.930 . S
C734 O735 1.224 . S
C734 O753 1.247 . S
O735 C734 1.224 . S
N736 Co726 2.128 . S
N736 C737 1.355 . S
N736 C739 1.311 . S
C737 N736 1.355 . S
C737 C738 1.363 . S
C737 H749 0.929 . S
C738 C737 1.363 . S
C738 N740 1.375 . S
C738 H756 0.931 . S
C739 N736 1.311 . S
C739 N740 1.347 . S
C739 H750 0.929 . S
N740 C738 1.375 . S
N740 C739 1.347 . S
C741 C744 1.365 . S
C741 N746 1.328 . S
C741 H747 0.929 . S
C742 C743 1.362 . S
C742 C745 1.378 . S
C742 H757 0.929 . S
C743 C742 1.362 . S
C743 C744 1.366 . S
C744 C741 1.365 . S
C744 C743 1.366 . S
C744 H758 0.930 . S
C745 C742 1.378 . S
C745 N746 1.315 . S
C745 H748 0.930 . S
N746 Co726 2.194 . S
N746 C741 1.328 . S
N746 C745 1.315 . S
H747 C741 0.929 . S
H748 C745 0.930 . S
H749 C737 0.929 . S
H750 C739 0.929 . S
O751 Co726 2.351 . S
O751 C754 1.244 . S
O752 Co726 2.155 . S
O752 C754 1.240 . S
O753 Co726 2.096 . S
O753 C734 1.247 . S
C754 O751 1.244 . S
C754 O752 1.240 . S
H755 C729 0.931 . S
H756 C738 0.931 . S
H757 C742 0.929 . S
H758 C744 0.930 . S
Co759 N763 2.148 . S
Co759 N769 2.128 . S
Co759 N779 2.194 . S
Co759 O784 2.351 . S
Co759 O785 2.155 . S
Co759 O786 2.096 . S
C760 N763 1.301 . S
C760 N764 1.328 . S
C760 H765 0.930 . S
C761 C762 1.333 . S
C761 N763 1.317 . S
C761 H766 0.930 . S
C762 C761 1.333 . S
C762 N764 1.350 . S
C762 H788 0.931 . S
N763 Co759 2.148 . S
N763 C760 1.301 . S
N763 C761 1.317 . S
N764 C760 1.328 . S
N764 C762 1.350 . S
H765 C760 0.930 . S
H766 C761 0.930 . S
C767 O768 1.224 . S
C767 O786 1.247 . S
O768 C767 1.224 . S
N769 Co759 2.128 . S
N769 C770 1.355 . S
N769 C772 1.311 . S
C770 N769 1.355 . S
C770 C771 1.363 . S
C770 H782 0.929 . S
C771 C770 1.363 . S
C771 N773 1.375 . S
C771 H789 0.931 . S
C772 N769 1.311 . S
C772 N773 1.347 . S
C772 H783 0.929 . S
N773 C771 1.375 . S
N773 C772 1.347 . S
C774 C777 1.365 . S
C774 N779 1.328 . S
C774 H780 0.929 . S
C775 C776 1.362 . S
C775 C778 1.378 . S
C775 H790 0.929 . S
C776 C775 1.362 . S
C776 C777 1.366 . S
C777 C774 1.365 . S
C777 C776 1.366 . S
C777 H791 0.930 . S
C778 C775 1.378 . S
C778 N779 1.315 . S
C778 H781 0.930 . S
N779 Co759 2.194 . S
N779 C774 1.328 . S
N779 C778 1.315 . S
H780 C774 0.929 . S
H781 C778 0.930 . S
H782 C770 0.929 . S
H783 C772 0.929 . S
O784 Co759 2.351 . S
O784 C787 1.244 . S
O785 Co759 2.155 . S
O785 C787 1.240 . S
O786 Co759 2.096 . S
O786 C767 1.247 . S
C787 O784 1.244 . S
C787 O785 1.240 . S
H788 C762 0.931 . S
H789 C771 0.931 . S
H790 C775 0.929 . S
H791 C777 0.930 . S
Co792 N796 2.148 . S
Co792 N802 2.128 1_556 S
Co792 N812 2.194 . S
Co792 O817 2.351 . S
Co792 O818 2.155 . S
Co792 O819 2.096 . S
C793 N796 1.301 . S
C793 N797 1.328 . S
C793 H798 0.930 . S
C794 C795 1.333 . S
C794 N796 1.317 . S
C794 H799 0.930 . S
C795 C794 1.333 . S
C795 N797 1.350 . S
C795 H821 0.931 . S
N796 Co792 2.148 . S
N796 C793 1.301 . S
N796 C794 1.317 . S
N797 C793 1.328 . S
N797 C795 1.350 . S
H798 C793 0.930 . S
H799 C794 0.930 . S
C800 O801 1.224 . S
C800 O819 1.247 . S
O801 C800 1.224 . S
N802 Co792 2.128 1_554 S
N802 C803 1.355 . S
N802 C805 1.311 . S
C803 N802 1.355 . S
C803 C804 1.363 . S
C803 H815 0.929 . S
C804 C803 1.363 . S
C804 N806 1.375 . S
C804 H822 0.931 . S
C805 N802 1.311 . S
C805 N806 1.347 . S
C805 H816 0.929 . S
N806 C804 1.375 . S
N806 C805 1.347 . S
C807 C810 1.365 . S
C807 N812 1.328 . S
C807 H813 0.929 . S
C808 C809 1.362 . S
C808 C811 1.378 . S
C808 H823 0.929 . S
C809 C808 1.362 . S
C809 C810 1.366 . S
C810 C807 1.365 . S
C810 C809 1.366 . S
C810 H824 0.930 . S
C811 C808 1.378 . S
C811 N812 1.315 . S
C811 H814 0.930 . S
N812 Co792 2.194 . S
N812 C807 1.328 . S
N812 C811 1.315 . S
H813 C807 0.929 . S
H814 C811 0.930 . S
H815 C803 0.929 . S
H816 C805 0.929 . S
O817 Co792 2.351 . S
O817 C820 1.244 . S
O818 Co792 2.155 . S
O818 C820 1.240 . S
O819 Co792 2.096 . S
O819 C800 1.247 . S
C820 O817 1.244 . S
C820 O818 1.240 . S
H821 C795 0.931 . S
H822 C804 0.931 . S
H823 C808 0.929 . S
H824 C810 0.930 . S
Co825 N829 2.148 . S
Co825 N835 2.128 1_556 S
Co825 N845 2.194 . S
Co825 O850 2.351 . S
Co825 O851 2.155 . S
Co825 O852 2.096 . S
C826 N829 1.301 . S
C826 N830 1.328 . S
C826 H831 0.930 . S
C827 C828 1.333 . S
C827 N829 1.317 . S
C827 H832 0.930 . S
C828 C827 1.333 . S
C828 N830 1.350 . S
C828 H854 0.931 . S
N829 Co825 2.148 . S
N829 C826 1.301 . S
N829 C827 1.317 . S
N830 C826 1.328 . S
N830 C828 1.350 . S
H831 C826 0.930 . S
H832 C827 0.930 . S
C833 O834 1.224 . S
C833 O852 1.247 . S
O834 C833 1.224 . S
N835 Co825 2.128 1_554 S
N835 C836 1.355 . S
N835 C838 1.311 . S
C836 N835 1.355 . S
C836 C837 1.363 . S
C836 H848 0.929 . S
C837 C836 1.363 . S
C837 N839 1.375 . S
C837 H855 0.931 . S
C838 N835 1.311 . S
C838 N839 1.347 . S
C838 H849 0.929 . S
N839 C837 1.375 . S
N839 C838 1.347 . S
C840 C843 1.365 . S
C840 N845 1.328 . S
C840 H846 0.929 . S
C841 C842 1.362 . S
C841 C844 1.378 . S
C841 H856 0.929 . S
C842 C841 1.362 . S
C842 C843 1.366 . S
C843 C840 1.365 . S
C843 C842 1.366 . S
C843 H857 0.930 . S
C844 C841 1.378 . S
C844 N845 1.315 . S
C844 H847 0.930 . S
N845 Co825 2.194 . S
N845 C840 1.328 . S
N845 C844 1.315 . S
H846 C840 0.929 . S
H847 C844 0.930 . S
H848 C836 0.929 . S
H849 C838 0.929 . S
O850 Co825 2.351 . S
O850 C853 1.244 . S
O851 Co825 2.155 . S
O851 C853 1.240 . S
O852 Co825 2.096 . S
O852 C833 1.247 . S
C853 O850 1.244 . S
C853 O851 1.240 . S
H854 C828 0.931 . S
H855 C837 0.931 . S
H856 C841 0.929 . S
H857 C843 0.930 . S
Co858 N862 2.148 . S
Co858 N868 2.128 1_556 S
Co858 N878 2.194 . S
Co858 O883 2.351 . S
Co858 O884 2.155 . S
Co858 O885 2.096 . S
C859 N862 1.301 . S
C859 N863 1.328 . S
C859 H864 0.930 . S
C860 C861 1.333 . S
C860 N862 1.317 . S
C860 H865 0.930 . S
C861 C860 1.333 . S
C861 N863 1.350 . S
C861 H887 0.931 . S
N862 Co858 2.148 . S
N862 C859 1.301 . S
N862 C860 1.317 . S
N863 C859 1.328 . S
N863 C861 1.350 . S
H864 C859 0.930 . S
H865 C860 0.930 . S
C866 O867 1.224 . S
C866 O885 1.247 . S
O867 C866 1.224 . S
N868 Co858 2.128 1_554 S
N868 C869 1.355 . S
N868 C871 1.311 . S
C869 N868 1.355 . S
C869 C870 1.363 . S
C869 H881 0.929 . S
C870 C869 1.363 . S
C870 N872 1.375 . S
C870 H888 0.931 . S
C871 N868 1.311 . S
C871 N872 1.347 . S
C871 H882 0.929 . S
N872 C870 1.375 . S
N872 C871 1.347 . S
C873 C876 1.365 . S
C873 N878 1.328 . S
C873 H879 0.929 . S
C874 C875 1.362 . S
C874 C877 1.378 . S
C874 H889 0.929 . S
C875 C874 1.362 . S
C875 C876 1.366 . S
C876 C873 1.365 . S
C876 C875 1.366 . S
C876 H890 0.930 . S
C877 C874 1.378 . S
C877 N878 1.315 . S
C877 H880 0.930 . S
N878 Co858 2.194 . S
N878 C873 1.328 . S
N878 C877 1.315 . S
H879 C873 0.929 . S
H880 C877 0.930 . S
H881 C869 0.929 . S
H882 C871 0.929 . S
O883 Co858 2.351 . S
O883 C886 1.244 . S
O884 Co858 2.155 . S
O884 C886 1.240 . S
O885 Co858 2.096 . S
O885 C866 1.247 . S
C886 O883 1.244 . S
C886 O884 1.240 . S
H887 C861 0.931 . S
H888 C870 0.931 . S
H889 C874 0.929 . S
H890 C876 0.930 . S
Co891 N895 2.148 . S
Co891 N901 2.128 . S
Co891 N911 2.194 . S
Co891 O916 2.351 . S
Co891 O917 2.155 . S
Co891 O918 2.096 . S
C892 N895 1.301 . S
C892 N896 1.328 . S
C892 H897 0.930 . S
C893 C894 1.333 . S
C893 N895 1.317 . S
C893 H898 0.930 . S
C894 C893 1.333 . S
C894 N896 1.350 . S
C894 H920 0.931 . S
N895 Co891 2.148 . S
N895 C892 1.301 . S
N895 C893 1.317 . S
N896 C892 1.328 . S
N896 C894 1.350 . S
H897 C892 0.930 . S
H898 C893 0.930 . S
C899 O900 1.224 . S
C899 O918 1.247 . S
O900 C899 1.224 . S
N901 Co891 2.128 . S
N901 C902 1.355 . S
N901 C904 1.311 . S
C902 N901 1.355 . S
C902 C903 1.363 . S
C902 H914 0.929 . S
C903 C902 1.363 . S
C903 N905 1.375 . S
C903 H921 0.931 . S
C904 N901 1.311 . S
C904 N905 1.347 . S
C904 H915 0.929 . S
N905 C903 1.375 . S
N905 C904 1.347 . S
C906 C909 1.365 . S
C906 N911 1.328 . S
C906 H912 0.929 . S
C907 C908 1.362 . S
C907 C910 1.378 . S
C907 H922 0.929 . S
C908 C907 1.362 . S
C908 C909 1.366 . S
C909 C906 1.365 . S
C909 C908 1.366 . S
C909 H923 0.930 . S
C910 C907 1.378 . S
C910 N911 1.315 . S
C910 H913 0.930 . S
N911 Co891 2.194 . S
N911 C906 1.328 . S
N911 C910 1.315 . S
H912 C906 0.929 . S
H913 C910 0.930 . S
H914 C902 0.929 . S
H915 C904 0.929 . S
O916 Co891 2.351 . S
O916 C919 1.244 . S
O917 Co891 2.155 . S
O917 C919 1.240 . S
O918 Co891 2.096 . S
O918 C899 1.247 . S
C919 O916 1.244 . S
C919 O917 1.240 . S
H920 C894 0.931 . S
H921 C903 0.931 . S
H922 C907 0.929 . S
H923 C909 0.930 . S
Co924 N928 2.148 . S
Co924 N934 2.128 . S
Co924 N944 2.194 . S
Co924 O949 2.351 . S
Co924 O950 2.155 . S
Co924 O951 2.096 . S
C925 N928 1.301 . S
C925 N929 1.328 . S
C925 H930 0.930 . S
C926 C927 1.333 . S
C926 N928 1.317 . S
C926 H931 0.930 . S
C927 C926 1.333 . S
C927 N929 1.350 . S
C927 H953 0.931 . S
N928 Co924 2.148 . S
N928 C925 1.301 . S
N928 C926 1.317 . S
N929 C925 1.328 . S
N929 C927 1.350 . S
H930 C925 0.930 . S
H931 C926 0.930 . S
C932 O933 1.224 . S
C932 O951 1.247 . S
O933 C932 1.224 . S
N934 Co924 2.128 . S
N934 C935 1.355 . S
N934 C937 1.311 . S
C935 N934 1.355 . S
C935 C936 1.363 . S
C935 H947 0.929 . S
C936 C935 1.363 . S
C936 N938 1.375 . S
C936 H954 0.931 . S
C937 N934 1.311 . S
C937 N938 1.347 . S
C937 H948 0.929 . S
N938 C936 1.375 . S
N938 C937 1.347 . S
C939 C942 1.365 . S
C939 N944 1.328 . S
C939 H945 0.929 . S
C940 C941 1.362 . S
C940 C943 1.378 . S
C940 H955 0.929 . S
C941 C940 1.362 . S
C941 C942 1.366 . S
C942 C939 1.365 . S
C942 C941 1.366 . S
C942 H956 0.930 . S
C943 C940 1.378 . S
C943 N944 1.315 . S
C943 H946 0.930 . S
N944 Co924 2.194 . S
N944 C939 1.328 . S
N944 C943 1.315 . S
H945 C939 0.929 . S
H946 C943 0.930 . S
H947 C935 0.929 . S
H948 C937 0.929 . S
O949 Co924 2.351 . S
O949 C952 1.244 . S
O950 Co924 2.155 . S
O950 C952 1.240 . S
O951 Co924 2.096 . S
O951 C932 1.247 . S
C952 O949 1.244 . S
C952 O950 1.240 . S
H953 C927 0.931 . S
H954 C936 0.931 . S
H955 C940 0.929 . S
H956 C942 0.930 . S
Co957 N961 2.148 . S
Co957 N967 2.128 . S
Co957 N977 2.194 . S
Co957 O982 2.351 . S
Co957 O983 2.155 . S
Co957 O984 2.096 . S
C958 N961 1.301 . S
C958 N962 1.328 . S
C958 H963 0.930 . S
C959 C960 1.333 . S
C959 N961 1.317 . S
C959 H964 0.930 . S
C960 C959 1.333 . S
C960 N962 1.350 . S
C960 H986 0.931 . S
N961 Co957 2.148 . S
N961 C958 1.301 . S
N961 C959 1.317 . S
N962 C958 1.328 . S
N962 C960 1.350 . S
H963 C958 0.930 . S
H964 C959 0.930 . S
C965 O966 1.224 . S
C965 O984 1.247 . S
O966 C965 1.224 . S
N967 Co957 2.128 . S
N967 C968 1.355 . S
N967 C970 1.311 . S
C968 N967 1.355 . S
C968 C969 1.363 . S
C968 H980 0.929 . S
C969 C968 1.363 . S
C969 N971 1.375 . S
C969 H987 0.931 . S
C970 N967 1.311 . S
C970 N971 1.347 . S
C970 H981 0.929 . S
N971 C969 1.375 . S
N971 C970 1.347 . S
C972 C975 1.365 . S
C972 N977 1.328 . S
C972 H978 0.929 . S
C973 C974 1.362 . S
C973 C976 1.378 . S
C973 H988 0.929 . S
C974 C973 1.362 . S
C974 C975 1.366 . S
C975 C972 1.365 . S
C975 C974 1.366 . S
C975 H989 0.930 . S
C976 C973 1.378 . S
C976 N977 1.315 . S
C976 H979 0.930 . S
N977 Co957 2.194 . S
N977 C972 1.328 . S
N977 C976 1.315 . S
H978 C972 0.929 . S
H979 C976 0.930 . S
H980 C968 0.929 . S
H981 C970 0.929 . S
O982 Co957 2.351 . S
O982 C985 1.244 . S
O983 Co957 2.155 . S
O983 C985 1.240 . S
O984 Co957 2.096 . S
O984 C965 1.247 . S
C985 O982 1.244 . S
C985 O983 1.240 . S
H986 C960 0.931 . S
H987 C969 0.931 . S
H988 C973 0.929 . S
H989 C975 0.930 . S
Co990 N994 2.148 . S
Co990 N1000 2.128 . S
Co990 N1010 2.194 . S
Co990 O1015 2.351 . S
Co990 O1016 2.155 . S
Co990 O1017 2.096 . S
C991 N994 1.301 . S
C991 N995 1.328 . S
C991 H996 0.930 . S
C992 C993 1.333 . S
C992 N994 1.317 . S
C992 H997 0.930 . S
C993 C992 1.333 . S
C993 N995 1.350 . S
C993 H1019 0.931 . S
N994 Co990 2.148 . S
N994 C991 1.301 . S
N994 C992 1.317 . S
N995 C991 1.328 . S
N995 C993 1.350 . S
H996 C991 0.930 . S
H997 C992 0.930 . S
C998 O999 1.224 . S
C998 O1017 1.247 . S
O999 C998 1.224 . S
N1000 Co990 2.128 . S
N1000 C1001 1.355 . S
N1000 C1003 1.311 . S
C1001 N1000 1.355 . S
C1001 C1002 1.363 . S
C1001 H1013 0.929 . S
C1002 C1001 1.363 . S
C1002 N1004 1.375 . S
C1002 H1020 0.931 . S
C1003 N1000 1.311 . S
C1003 N1004 1.347 . S
C1003 H1014 0.929 . S
N1004 C1002 1.375 . S
N1004 C1003 1.347 . S
C1005 C1008 1.365 . S
C1005 N1010 1.328 . S
C1005 H1011 0.929 . S
C1006 C1007 1.362 . S
C1006 C1009 1.378 . S
C1006 H1021 0.929 . S
C1007 C1006 1.362 . S
C1007 C1008 1.366 . S
C1008 C1005 1.365 . S
C1008 C1007 1.366 . S
C1008 H1022 0.930 . S
C1009 C1006 1.378 . S
C1009 N1010 1.315 . S
C1009 H1012 0.930 . S
N1010 Co990 2.194 . S
N1010 C1005 1.328 . S
N1010 C1009 1.315 . S
H1011 C1005 0.929 . S
H1012 C1009 0.930 . S
H1013 C1001 0.929 . S
H1014 C1003 0.929 . S
O1015 Co990 2.351 . S
O1015 C1018 1.244 . S
O1016 Co990 2.155 . S
O1016 C1018 1.240 . S
O1017 Co990 2.096 . S
O1017 C998 1.247 . S
C1018 O1015 1.244 . S
C1018 O1016 1.240 . S
H1019 C993 0.931 . S
H1020 C1002 0.931 . S
H1021 C1006 0.929 . S
H1022 C1008 0.930 . S
Co1023 N1027 2.148 . S
Co1023 N1033 2.128 . S
Co1023 N1043 2.194 . S
Co1023 O1048 2.351 . S
Co1023 O1049 2.155 . S
Co1023 O1050 2.096 . S
C1024 N1027 1.301 . S
C1024 N1028 1.328 . S
C1024 H1029 0.930 . S
C1025 C1026 1.333 . S
C1025 N1027 1.317 . S
C1025 H1030 0.930 . S
C1026 C1025 1.333 . S
C1026 N1028 1.350 . S
C1026 H1052 0.931 . S
N1027 Co1023 2.148 . S
N1027 C1024 1.301 . S
N1027 C1025 1.317 . S
N1028 C1024 1.328 . S
N1028 C1026 1.350 . S
H1029 C1024 0.930 . S
H1030 C1025 0.930 . S
C1031 O1032 1.224 . S
C1031 O1050 1.247 . S
O1032 C1031 1.224 . S
N1033 Co1023 2.128 . S
N1033 C1034 1.355 . S
N1033 C1036 1.311 . S
C1034 N1033 1.355 . S
C1034 C1035 1.363 . S
C1034 H1046 0.929 . S
C1035 C1034 1.363 . S
C1035 N1037 1.375 . S
C1035 H1053 0.931 . S
C1036 N1033 1.311 . S
C1036 N1037 1.347 . S
C1036 H1047 0.929 . S
N1037 C1035 1.375 . S
N1037 C1036 1.347 . S
C1038 C1041 1.365 . S
C1038 N1043 1.328 . S
C1038 H1044 0.929 . S
C1039 C1040 1.362 . S
C1039 C1042 1.378 . S
C1039 H1054 0.929 . S
C1040 C1039 1.362 . S
C1040 C1041 1.366 . S
C1041 C1038 1.365 . S
C1041 C1040 1.366 . S
C1041 H1055 0.930 . S
C1042 C1039 1.378 . S
C1042 N1043 1.315 . S
C1042 H1045 0.930 . S
N1043 Co1023 2.194 . S
N1043 C1038 1.328 . S
N1043 C1042 1.315 . S
H1044 C1038 0.929 . S
H1045 C1042 0.930 . S
H1046 C1034 0.929 . S
H1047 C1036 0.929 . S
O1048 Co1023 2.351 . S
O1048 C1051 1.244 . S
O1049 Co1023 2.155 . S
O1049 C1051 1.240 . S
O1050 Co1023 2.096 . S
O1050 C1031 1.247 . S
C1051 O1048 1.244 . S
C1051 O1049 1.240 . S
H1052 C1026 0.931 . S
H1053 C1035 0.931 . S
H1054 C1039 0.929 . S
H1055 C1041 0.930 . S
Co1056 N1060 2.148 . S
Co1056 N1066 2.128 . S
Co1056 N1076 2.194 . S
Co1056 O1081 2.351 . S
Co1056 O1082 2.155 . S
Co1056 O1083 2.096 . S
C1057 N1060 1.301 . S
C1057 N1061 1.328 . S
C1057 H1062 0.930 . S
C1058 C1059 1.333 . S
C1058 N1060 1.317 . S
C1058 H1063 0.930 . S
C1059 C1058 1.333 . S
C1059 N1061 1.350 . S
C1059 H1085 0.931 . S
N1060 Co1056 2.148 . S
N1060 C1057 1.301 . S
N1060 C1058 1.317 . S
N1061 C1057 1.328 . S
N1061 C1059 1.350 . S
H1062 C1057 0.930 . S
H1063 C1058 0.930 . S
C1064 O1065 1.224 . S
C1064 O1083 1.247 . S
O1065 C1064 1.224 . S
N1066 Co1056 2.128 . S
N1066 C1067 1.355 . S
N1066 C1069 1.311 . S
C1067 N1066 1.355 . S
C1067 C1068 1.363 . S
C1067 H1079 0.929 . S
C1068 C1067 1.363 . S
C1068 N1070 1.375 . S
C1068 H1086 0.931 . S
C1069 N1066 1.311 . S
C1069 N1070 1.347 . S
C1069 H1080 0.929 . S
N1070 C1068 1.375 . S
N1070 C1069 1.347 . S
C1071 C1074 1.365 . S
C1071 N1076 1.328 . S
C1071 H1077 0.929 . S
C1072 C1073 1.362 . S
C1072 C1075 1.378 . S
C1072 H1087 0.929 . S
C1073 C1072 1.362 . S
C1073 C1074 1.366 . S
C1074 C1071 1.365 . S
C1074 C1073 1.366 . S
C1074 H1088 0.930 . S
C1075 C1072 1.378 . S
C1075 N1076 1.315 . S
C1075 H1078 0.930 . S
N1076 Co1056 2.194 . S
N1076 C1071 1.328 . S
N1076 C1075 1.315 . S
H1077 C1071 0.929 . S
H1078 C1075 0.930 . S
H1079 C1067 0.929 . S
H1080 C1069 0.929 . S
O1081 Co1056 2.351 . S
O1081 C1084 1.244 . S
O1082 Co1056 2.155 . S
O1082 C1084 1.240 . S
O1083 Co1056 2.096 . S
O1083 C1064 1.247 . S
C1084 O1081 1.244 . S
C1084 O1082 1.240 . S
H1085 C1059 0.931 . S
H1086 C1068 0.931 . S
H1087 C1072 0.929 . S
H1088 C1074 0.930 . S
Co1089 N1093 2.148 . S
Co1089 N1099 2.128 1_556 S
Co1089 N1109 2.194 . S
Co1089 O1114 2.351 . S
Co1089 O1115 2.155 . S
Co1089 O1116 2.096 . S
C1090 N1093 1.301 . S
C1090 N1094 1.328 . S
C1090 H1095 0.930 . S
C1091 C1092 1.333 . S
C1091 N1093 1.317 . S
C1091 H1096 0.930 . S
C1092 C1091 1.333 . S
C1092 N1094 1.350 . S
C1092 H1118 0.931 . S
N1093 Co1089 2.148 . S
N1093 C1090 1.301 . S
N1093 C1091 1.317 . S
N1094 C1090 1.328 . S
N1094 C1092 1.350 . S
H1095 C1090 0.930 . S
H1096 C1091 0.930 . S
C1097 O1098 1.224 . S
C1097 O1116 1.247 . S
O1098 C1097 1.224 . S
N1099 Co1089 2.128 1_554 S
N1099 C1100 1.355 . S
N1099 C1102 1.311 . S
C1100 N1099 1.355 . S
C1100 C1101 1.363 . S
C1100 H1112 0.929 . S
C1101 C1100 1.363 . S
C1101 N1103 1.375 . S
C1101 H1119 0.931 . S
C1102 N1099 1.311 . S
C1102 N1103 1.347 . S
C1102 H1113 0.929 . S
N1103 C1101 1.375 . S
N1103 C1102 1.347 . S
C1104 C1107 1.365 . S
C1104 N1109 1.328 . S
C1104 H1110 0.929 . S
C1105 C1106 1.362 . S
C1105 C1108 1.378 . S
C1105 H1120 0.929 . S
C1106 C1105 1.362 . S
C1106 C1107 1.366 . S
C1107 C1104 1.365 . S
C1107 C1106 1.366 . S
C1107 H1121 0.930 . S
C1108 C1105 1.378 . S
C1108 N1109 1.315 . S
C1108 H1111 0.930 . S
N1109 Co1089 2.194 . S
N1109 C1104 1.328 . S
N1109 C1108 1.315 . S
H1110 C1104 0.929 . S
H1111 C1108 0.930 . S
H1112 C1100 0.929 . S
H1113 C1102 0.929 . S
O1114 Co1089 2.351 . S
O1114 C1117 1.244 . S
O1115 Co1089 2.155 . S
O1115 C1117 1.240 . S
O1116 Co1089 2.096 . S
O1116 C1097 1.247 . S
C1117 O1114 1.244 . S
C1117 O1115 1.240 . S
H1118 C1092 0.931 . S
H1119 C1101 0.931 . S
H1120 C1105 0.929 . S
H1121 C1107 0.930 . S
Co1122 N1126 2.148 . S
Co1122 N1132 2.128 1_556 S
Co1122 N1142 2.194 . S
Co1122 O1147 2.351 . S
Co1122 O1148 2.155 . S
Co1122 O1149 2.096 . S
C1123 N1126 1.301 . S
C1123 N1127 1.328 . S
C1123 H1128 0.930 . S
C1124 C1125 1.333 . S
C1124 N1126 1.317 . S
C1124 H1129 0.930 . S
C1125 C1124 1.333 . S
C1125 N1127 1.350 . S
C1125 H1151 0.931 . S
N1126 Co1122 2.148 . S
N1126 C1123 1.301 . S
N1126 C1124 1.317 . S
N1127 C1123 1.328 . S
N1127 C1125 1.350 . S
H1128 C1123 0.930 . S
H1129 C1124 0.930 . S
C1130 O1131 1.224 . S
C1130 O1149 1.247 . S
O1131 C1130 1.224 . S
N1132 Co1122 2.128 1_554 S
N1132 C1133 1.355 . S
N1132 C1135 1.311 . S
C1133 N1132 1.355 . S
C1133 C1134 1.363 . S
C1133 H1145 0.929 . S
C1134 C1133 1.363 . S
C1134 N1136 1.375 . S
C1134 H1152 0.931 . S
C1135 N1132 1.311 . S
C1135 N1136 1.347 . S
C1135 H1146 0.929 . S
N1136 C1134 1.375 . S
N1136 C1135 1.347 . S
C1137 C1140 1.365 . S
C1137 N1142 1.328 . S
C1137 H1143 0.929 . S
C1138 C1139 1.362 . S
C1138 C1141 1.378 . S
C1138 H1153 0.929 . S
C1139 C1138 1.362 . S
C1139 C1140 1.366 . S
C1140 C1137 1.365 . S
C1140 C1139 1.366 . S
C1140 H1154 0.930 . S
C1141 C1138 1.378 . S
C1141 N1142 1.315 . S
C1141 H1144 0.930 . S
N1142 Co1122 2.194 . S
N1142 C1137 1.328 . S
N1142 C1141 1.315 . S
H1143 C1137 0.929 . S
H1144 C1141 0.930 . S
H1145 C1133 0.929 . S
H1146 C1135 0.929 . S
O1147 Co1122 2.351 . S
O1147 C1150 1.244 . S
O1148 Co1122 2.155 . S
O1148 C1150 1.240 . S
O1149 Co1122 2.096 . S
O1149 C1130 1.247 . S
C1150 O1147 1.244 . S
C1150 O1148 1.240 . S
H1151 C1125 0.931 . S
H1152 C1134 0.931 . S
H1153 C1138 0.929 . S
H1154 C1140 0.930 . S
Co1155 N1159 2.148 . S
Co1155 N1165 2.128 1_556 S
Co1155 N1175 2.194 . S
Co1155 O1180 2.351 . S
Co1155 O1181 2.155 . S
Co1155 O1182 2.096 . S
C1156 N1159 1.301 . S
C1156 N1160 1.328 . S
C1156 H1161 0.930 . S
C1157 C1158 1.333 . S
C1157 N1159 1.317 . S
C1157 H1162 0.930 . S
C1158 C1157 1.333 . S
C1158 N1160 1.350 . S
C1158 H1184 0.931 . S
N1159 Co1155 2.148 . S
N1159 C1156 1.301 . S
N1159 C1157 1.317 . S
N1160 C1156 1.328 . S
N1160 C1158 1.350 . S
H1161 C1156 0.930 . S
H1162 C1157 0.930 . S
C1163 O1164 1.224 . S
C1163 O1182 1.247 . S
O1164 C1163 1.224 . S
N1165 Co1155 2.128 1_554 S
N1165 C1166 1.355 . S
N1165 C1168 1.311 . S
C1166 N1165 1.355 . S
C1166 C1167 1.363 . S
C1166 H1178 0.929 . S
C1167 C1166 1.363 . S
C1167 N1169 1.375 . S
C1167 H1185 0.931 . S
C1168 N1165 1.311 . S
C1168 N1169 1.347 . S
C1168 H1179 0.929 . S
N1169 C1167 1.375 . S
N1169 C1168 1.347 . S
C1170 C1173 1.365 . S
C1170 N1175 1.328 . S
C1170 H1176 0.929 . S
C1171 C1172 1.362 . S
C1171 C1174 1.378 . S
C1171 H1186 0.929 . S
C1172 C1171 1.362 . S
C1172 C1173 1.366 . S
C1173 C1170 1.365 . S
C1173 C1172 1.366 . S
C1173 H1187 0.930 . S
C1174 C1171 1.378 . S
C1174 N1175 1.315 . S
C1174 H1177 0.930 . S
N1175 Co1155 2.194 . S
N1175 C1170 1.328 . S
N1175 C1174 1.315 . S
H1176 C1170 0.929 . S
H1177 C1174 0.930 . S
H1178 C1166 0.929 . S
H1179 C1168 0.929 . S
O1180 Co1155 2.351 . S
O1180 C1183 1.244 . S
O1181 Co1155 2.155 . S
O1181 C1183 1.240 . S
O1182 Co1155 2.096 . S
O1182 C1163 1.247 . S
C1183 O1180 1.244 . S
C1183 O1181 1.240 . S
H1184 C1158 0.931 . S
H1185 C1167 0.931 . S
H1186 C1171 0.929 . S
H1187 C1173 0.930 . S
C1188 C1189 1.387 . S
C1188 H1192 0.950 . S
C1188 C1197 1.390 . S
C1189 C1188 1.387 . S
C1189 C1191 1.387 . S
H1190 C1197 0.950 . S
C1191 C1189 1.387 . S
C1191 C1193 1.390 . S
C1191 H1195 0.950 . S
H1192 C1188 0.950 . S
C1193 C1191 1.390 . S
C1193 C1194 1.387 . S
C1193 H1196 0.950 . S
C1194 C1193 1.387 . S
C1194 C1197 1.387 . S
H1195 C1191 0.950 . S
H1196 C1193 0.950 . S
C1197 C1188 1.390 . S
C1197 H1190 0.950 . S
C1197 C1194 1.387 . S
C1198 C1199 1.387 . S
C1198 H1202 0.950 . S
C1198 C1207 1.390 . S
C1199 C1198 1.387 . S
C1199 C1201 1.387 . S
H1200 C1207 0.950 . S
C1201 C1199 1.387 . S
C1201 C1203 1.390 . S
C1201 H1205 0.950 . S
H1202 C1198 0.950 . S
C1203 C1201 1.390 . S
C1203 C1204 1.387 . S
C1203 H1206 0.950 . S
C1204 C1203 1.387 . S
C1204 C1207 1.387 . S
H1205 C1201 0.950 . S
H1206 C1203 0.950 . S
C1207 C1198 1.390 . S
C1207 H1200 0.950 . S
C1207 C1204 1.387 . S
C1208 C1209 1.387 . S
C1208 H1212 0.950 . S
C1208 C1217 1.390 . S
C1209 C1208 1.387 . S
C1209 C1211 1.387 . S
H1210 C1217 0.950 . S
C1211 C1209 1.387 . S
C1211 C1213 1.390 . S
C1211 H1215 0.950 . S
H1212 C1208 0.950 . S
C1213 C1211 1.390 . S
C1213 C1214 1.387 . S
C1213 H1216 0.950 . S
C1214 C1213 1.387 . S
C1214 C1217 1.387 . S
H1215 C1211 0.950 . S
H1216 C1213 0.950 . S
C1217 C1208 1.390 . S
C1217 H1210 0.950 . S
C1217 C1214 1.387 . S
C1218 C1219 1.387 . S
C1218 H1222 0.950 . S
C1218 C1227 1.390 . S
C1219 C1218 1.387 . S
C1219 C1221 1.387 . S
H1220 C1227 0.950 . S
C1221 C1219 1.387 . S
C1221 C1223 1.390 . S
C1221 H1225 0.950 . S
H1222 C1218 0.950 . S
C1223 C1221 1.390 . S
C1223 C1224 1.387 . S
C1223 H1226 0.950 . S
C1224 C1223 1.387 . S
C1224 C1227 1.387 . S
H1225 C1221 0.950 . S
H1226 C1223 0.950 . S
C1227 C1218 1.390 . S
C1227 H1220 0.950 . S
C1227 C1224 1.387 . S
C1228 C1229 1.387 . S
C1228 H1232 0.950 . S
C1228 C1237 1.390 . S
C1229 C1228 1.387 . S
C1229 C1231 1.387 . S
H1230 C1237 0.950 . S
C1231 C1229 1.387 . S
C1231 C1233 1.390 . S
C1231 H1235 0.950 . S
H1232 C1228 0.950 . S
C1233 C1231 1.390 . S
C1233 C1234 1.387 . S
C1233 H1236 0.950 . S
C1234 C1233 1.387 . S
C1234 C1237 1.387 . S
H1235 C1231 0.950 . S
H1236 C1233 0.950 . S
C1237 C1228 1.390 . S
C1237 H1230 0.950 . S
C1237 C1234 1.387 . S
C1238 C1239 1.387 . S
C1238 H1242 0.950 . S
C1238 C1247 1.390 . S
C1239 C1238 1.387 . S
C1239 C1241 1.387 . S
H1240 C1247 0.950 . S
C1241 C1239 1.387 . S
C1241 C1243 1.390 . S
C1241 H1245 0.950 . S
H1242 C1238 0.950 . S
C1243 C1241 1.390 . S
C1243 C1244 1.387 . S
C1243 H1246 0.950 . S
C1244 C1243 1.387 . S
C1244 C1247 1.387 . S
H1245 C1241 0.950 . S
H1246 C1243 0.950 . S
C1247 C1238 1.390 . S
C1247 H1240 0.950 . S
C1247 C1244 1.387 . S
C1248 C1249 1.387 . S
C1248 H1252 0.950 . S
C1248 C1257 1.390 . S
C1249 C1248 1.387 . S
C1249 C1251 1.387 . S
H1250 C1257 0.950 . S
C1251 C1249 1.387 . S
C1251 C1253 1.390 . S
C1251 H1255 0.950 . S
H1252 C1248 0.950 . S
C1253 C1251 1.390 . S
C1253 C1254 1.387 . S
C1253 H1256 0.950 . S
C1254 C1253 1.387 . S
C1254 C1257 1.387 . S
H1255 C1251 0.950 . S
H1256 C1253 0.950 . S
C1257 C1248 1.390 . S
C1257 H1250 0.950 . S
C1257 C1254 1.387 . S
C1258 C1259 1.387 . S
C1258 H1262 0.950 . S
C1258 C1267 1.390 . S
C1259 C1258 1.387 . S
C1259 C1261 1.387 . S
H1260 C1267 0.950 . S
C1261 C1259 1.387 . S
C1261 C1263 1.390 . S
C1261 H1265 0.950 . S
H1262 C1258 0.950 . S
C1263 C1261 1.390 . S
C1263 C1264 1.387 . S
C1263 H1266 0.950 . S
C1264 C1263 1.387 . S
C1264 C1267 1.387 . S
H1265 C1261 0.950 . S
H1266 C1263 0.950 . S
C1267 C1258 1.390 . S
C1267 H1260 0.950 . S
C1267 C1264 1.387 . S
C1268 C1269 1.387 . S
C1268 H1272 0.950 . S
C1268 C1277 1.390 . S
C1269 C1268 1.387 . S
C1269 C1271 1.387 . S
H1270 C1277 0.950 . S
C1271 C1269 1.387 . S
C1271 C1273 1.390 . S
C1271 H1275 0.950 . S
H1272 C1268 0.950 . S
C1273 C1271 1.390 . S
C1273 C1274 1.387 . S
C1273 H1276 0.950 . S
C1274 C1273 1.387 . S
C1274 C1277 1.387 . S
H1275 C1271 0.950 . S
H1276 C1273 0.950 . S
C1277 C1268 1.390 . S
C1277 H1270 0.950 . S
C1277 C1274 1.387 . S
C1278 C1279 1.387 . S
C1278 H1282 0.950 . S
C1278 C1287 1.390 . S
C1279 C1278 1.387 . S
C1279 C1281 1.387 . S
H1280 C1287 0.950 . S
C1281 C1279 1.387 . S
C1281 C1283 1.390 . S
C1281 H1285 0.950 . S
H1282 C1278 0.950 . S
C1283 C1281 1.390 . S
C1283 C1284 1.387 . S
C1283 H1286 0.950 . S
C1284 C1283 1.387 . S
C1284 C1287 1.387 . S
H1285 C1281 0.950 . S
H1286 C1283 0.950 . S
C1287 C1278 1.390 . S
C1287 H1280 0.950 . S
C1287 C1284 1.387 . S
C1288 C1289 1.387 . S
C1288 H1292 0.950 . S
C1288 C1297 1.390 . S
C1289 C1288 1.387 . S
C1289 C1291 1.387 . S
H1290 C1297 0.950 . S
C1291 C1289 1.387 . S
C1291 C1293 1.390 . S
C1291 H1295 0.950 . S
H1292 C1288 0.950 . S
C1293 C1291 1.390 . S
C1293 C1294 1.387 . S
C1293 H1296 0.950 . S
C1294 C1293 1.387 . S
C1294 C1297 1.387 . S
H1295 C1291 0.950 . S
H1296 C1293 0.950 . S
C1297 C1288 1.390 . S
C1297 H1290 0.950 . S
C1297 C1294 1.387 . S
C1298 C1299 1.387 . S
C1298 H1302 0.950 . S
C1298 C1307 1.390 . S
C1299 C1298 1.387 . S
C1299 C1301 1.387 . S
H1300 C1307 0.950 . S
C1301 C1299 1.387 . S
C1301 C1303 1.390 . S
C1301 H1305 0.950 . S
H1302 C1298 0.950 . S
C1303 C1301 1.390 . S
C1303 C1304 1.387 . S
C1303 H1306 0.950 . S
C1304 C1303 1.387 . S
C1304 C1307 1.387 . S
H1305 C1301 0.950 . S
H1306 C1303 0.950 . S
C1307 C1298 1.390 . S
C1307 H1300 0.950 . S
C1307 C1304 1.387 . S
C1308 C1309 1.387 . S
C1308 H1312 0.950 . S
C1308 C1317 1.390 . S
C1309 C1308 1.387 . S
C1309 C1311 1.387 . S
H1310 C1317 0.950 . S
C1311 C1309 1.387 . S
C1311 C1313 1.390 . S
C1311 H1315 0.950 . S
H1312 C1308 0.950 . S
C1313 C1311 1.390 . S
C1313 C1314 1.387 . S
C1313 H1316 0.950 . S
C1314 C1313 1.387 . S
C1314 C1317 1.387 . S
H1315 C1311 0.950 . S
H1316 C1313 0.950 . S
C1317 C1308 1.390 . S
C1317 H1310 0.950 . S
C1317 C1314 1.387 . S
C1318 C1319 1.387 . S
C1318 H1322 0.950 . S
C1318 C1327 1.390 1_565 S
C1319 C1318 1.387 . S
C1319 C1321 1.387 . S
H1320 C1327 0.950 . S
C1321 C1319 1.387 . S
C1321 C1323 1.390 1_565 S
C1321 H1325 0.950 . S
H1322 C1318 0.950 . S
C1323 C1321 1.390 1_545 S
C1323 C1324 1.387 . S
C1323 H1326 0.950 . S
C1324 C1323 1.387 . S
C1324 C1327 1.387 . S
H1325 C1321 0.950 . S
H1326 C1323 0.950 . S
C1327 C1318 1.390 1_545 S
C1327 H1320 0.950 . S
C1327 C1324 1.387 . S
C1328 C1329 1.387 . S
C1328 H1332 0.950 . S
C1328 C1337 1.390 1_655 S
C1329 C1328 1.387 . S
C1329 C1331 1.387 . S
H1330 C1337 0.950 . S
C1331 C1329 1.387 . S
C1331 C1333 1.390 1_655 S
C1331 H1335 0.950 . S
H1332 C1328 0.950 . S
C1333 C1331 1.390 1_455 S
C1333 C1334 1.387 . S
C1333 H1336 0.950 . S
C1334 C1333 1.387 . S
C1334 C1337 1.387 . S
H1335 C1331 0.950 . S
H1336 C1333 0.950 . S
C1337 C1328 1.390 1_455 S
C1337 H1330 0.950 . S
C1337 C1334 1.387 . S
C1338 C1339 1.387 . S
C1338 H1342 0.950 . S
C1338 C1347 1.390 . S
C1339 C1338 1.387 . S
C1339 C1341 1.387 . S
H1340 C1347 0.950 . S
C1341 C1339 1.387 . S
C1341 C1343 1.390 . S
C1341 H1345 0.950 . S
H1342 C1338 0.950 . S
C1343 C1341 1.390 . S
C1343 C1344 1.387 . S
C1343 H1346 0.950 . S
C1344 C1343 1.387 . S
C1344 C1347 1.387 . S
H1345 C1341 0.950 . S
H1346 C1343 0.950 . S
C1347 C1338 1.390 . S
C1347 H1340 0.950 . S
C1347 C1344 1.387 . S
C1348 C1349 1.387 . S
C1348 H1352 0.950 . S
C1348 C1357 1.390 1_565 S
C1349 C1348 1.387 . S
C1349 C1351 1.387 . S
H1350 C1357 0.950 . S
C1351 C1349 1.387 . S
C1351 C1353 1.390 1_565 S
C1351 H1355 0.950 . S
H1352 C1348 0.950 . S
C1353 C1351 1.390 1_545 S
C1353 C1354 1.387 . S
C1353 H1356 0.950 . S
C1354 C1353 1.387 . S
C1354 C1357 1.387 . S
H1355 C1351 0.950 . S
H1356 C1353 0.950 . S
C1357 C1348 1.390 1_545 S
C1357 H1350 0.950 . S
C1357 C1354 1.387 . S
C1358 C1359 1.387 . S
C1358 H1362 0.950 . S
C1358 C1367 1.390 1_655 S
C1359 C1358 1.387 . S
C1359 C1361 1.387 . S
H1360 C1367 0.950 . S
C1361 C1359 1.387 . S
C1361 C1363 1.390 1_655 S
C1361 H1365 0.950 . S
H1362 C1358 0.950 . S
C1363 C1361 1.390 1_455 S
C1363 C1364 1.387 . S
C1363 H1366 0.950 . S
C1364 C1363 1.387 . S
C1364 C1367 1.387 . S
H1365 C1361 0.950 . S
H1366 C1363 0.950 . S
C1367 C1358 1.390 1_455 S
C1367 H1360 0.950 . S
C1367 C1364 1.387 . S
C1368 C1369 1.387 . S
C1368 H1372 0.950 . S
C1368 C1377 1.390 . S
C1369 C1368 1.387 . S
C1369 C1371 1.387 . S
H1370 C1377 0.950 . S
C1371 C1369 1.387 . S
C1371 C1373 1.390 . S
C1371 H1375 0.950 . S
H1372 C1368 0.950 . S
C1373 C1371 1.390 . S
C1373 C1374 1.387 . S
C1373 H1376 0.950 . S
C1374 C1373 1.387 . S
C1374 C1377 1.387 . S
H1375 C1371 0.950 . S
H1376 C1373 0.950 . S
C1377 C1368 1.390 . S
C1377 H1370 0.950 . S
C1377 C1374 1.387 . S
C1378 C1379 1.387 . S
C1378 H1382 0.950 . S
C1378 C1387 1.390 . S
C1379 C1378 1.387 . S
C1379 C1381 1.387 . S
H1380 C1387 0.950 . S
C1381 C1379 1.387 . S
C1381 C1383 1.390 . S
C1381 H1385 0.950 . S
H1382 C1378 0.950 . S
C1383 C1381 1.390 . S
C1383 C1384 1.387 . S
C1383 H1386 0.950 . S
C1384 C1383 1.387 . S
C1384 C1387 1.387 . S
H1385 C1381 0.950 . S
H1386 C1383 0.950 . S
C1387 C1378 1.390 . S
C1387 H1380 0.950 . S
C1387 C1384 1.387 . S
C1388 C1389 1.387 . S
C1388 H1392 0.950 . S
C1388 C1397 1.390 . S
C1389 C1388 1.387 . S
C1389 C1391 1.387 . S
H1390 C1397 0.950 . S
C1391 C1389 1.387 . S
C1391 C1393 1.390 . S
C1391 H1395 0.950 . S
H1392 C1388 0.950 . S
C1393 C1391 1.390 . S
C1393 C1394 1.387 . S
C1393 H1396 0.950 . S
C1394 C1393 1.387 . S
C1394 C1397 1.387 . S
H1395 C1391 0.950 . S
H1396 C1393 0.950 . S
C1397 C1388 1.390 . S
C1397 H1390 0.950 . S
C1397 C1394 1.387 . S
C1398 C1399 1.387 . S
C1398 H1402 0.950 . S
C1398 C1407 1.390 . S
C1399 C1398 1.387 . S
C1399 C1401 1.387 . S
H1400 C1407 0.950 . S
C1401 C1399 1.387 . S
C1401 C1403 1.390 . S
C1401 H1405 0.950 . S
H1402 C1398 0.950 . S
C1403 C1401 1.390 . S
C1403 C1404 1.387 . S
C1403 H1406 0.950 . S
C1404 C1403 1.387 . S
C1404 C1407 1.387 . S
H1405 C1401 0.950 . S
H1406 C1403 0.950 . S
C1407 C1398 1.390 . S
C1407 H1400 0.950 . S
C1407 C1404 1.387 . S
C1408 C1409 1.387 . S
C1408 H1412 0.950 . S
C1408 C1417 1.390 . S
C1409 C1408 1.387 . S
C1409 C1411 1.387 . S
H1410 C1417 0.950 . S
C1411 C1409 1.387 . S
C1411 C1413 1.390 . S
C1411 H1415 0.950 . S
H1412 C1408 0.950 . S
C1413 C1411 1.390 . S
C1413 C1414 1.387 . S
C1413 H1416 0.950 . S
C1414 C1413 1.387 . S
C1414 C1417 1.387 . S
H1415 C1411 0.950 . S
H1416 C1413 0.950 . S
C1417 C1408 1.390 . S
C1417 H1410 0.950 . S
C1417 C1414 1.387 . S
C1418 C1419 1.387 . S
C1418 H1422 0.950 . S
C1418 C1427 1.390 . S
C1419 C1418 1.387 . S
C1419 C1421 1.387 . S
H1420 C1427 0.950 . S
C1421 C1419 1.387 . S
C1421 C1423 1.390 . S
C1421 H1425 0.950 . S
H1422 C1418 0.950 . S
C1423 C1421 1.390 . S
C1423 C1424 1.387 . S
C1423 H1426 0.950 . S
C1424 C1423 1.387 . S
C1424 C1427 1.387 . S
H1425 C1421 0.950 . S
H1426 C1423 0.950 . S
C1427 C1418 1.390 . S
C1427 H1420 0.950 . S
C1427 C1424 1.387 . S
C1428 C1429 1.387 . S
C1428 H1432 0.950 . S
C1428 C1437 1.390 . S
C1429 C1428 1.387 . S
C1429 C1431 1.387 . S
H1430 C1437 0.950 . S
C1431 C1429 1.387 . S
C1431 C1433 1.390 . S
C1431 H1435 0.950 . S
H1432 C1428 0.950 . S
C1433 C1431 1.390 . S
C1433 C1434 1.387 . S
C1433 H1436 0.950 . S
C1434 C1433 1.387 . S
C1434 C1437 1.387 . S
H1435 C1431 0.950 . S
H1436 C1433 0.950 . S
C1437 C1428 1.390 . S
C1437 H1430 0.950 . S
C1437 C1434 1.387 . S
C1438 C1439 1.387 . S
C1438 H1442 0.950 . S
C1438 C1447 1.390 . S
C1439 C1438 1.387 . S
C1439 C1441 1.387 . S
H1440 C1447 0.950 . S
C1441 C1439 1.387 . S
C1441 C1443 1.390 . S
C1441 H1445 0.950 . S
H1442 C1438 0.950 . S
C1443 C1441 1.390 . S
C1443 C1444 1.387 . S
C1443 H1446 0.950 . S
C1444 C1443 1.387 . S
C1444 C1447 1.387 . S
H1445 C1441 0.950 . S
H1446 C1443 0.950 . S
C1447 C1438 1.390 . S
C1447 H1440 0.950 . S
C1447 C1444 1.387 . S
C1448 C1449 1.387 . S
C1448 H1452 0.950 . S
C1448 C1457 1.390 . S
C1449 C1448 1.387 . S
C1449 C1451 1.387 . S
H1450 C1457 0.950 . S
C1451 C1449 1.387 . S
C1451 C1453 1.390 . S
C1451 H1455 0.950 . S
H1452 C1448 0.950 . S
C1453 C1451 1.390 . S
C1453 C1454 1.387 . S
C1453 H1456 0.950 . S
C1454 C1453 1.387 . S
C1454 C1457 1.387 . S
H1455 C1451 0.950 . S
H1456 C1453 0.950 . S
C1457 C1448 1.390 . S
C1457 H1450 0.950 . S
C1457 C1454 1.387 . S
C1458 C1459 1.387 . S
C1458 H1462 0.950 . S
C1458 C1467 1.390 . S
C1459 C1458 1.387 . S
C1459 C1461 1.387 . S
H1460 C1467 0.950 . S
C1461 C1459 1.387 . S
C1461 C1463 1.390 . S
C1461 H1465 0.950 . S
H1462 C1458 0.950 . S
C1463 C1461 1.390 . S
C1463 C1464 1.387 . S
C1463 H1466 0.950 . S
C1464 C1463 1.387 . S
C1464 C1467 1.387 . S
H1465 C1461 0.950 . S
H1466 C1463 0.950 . S
C1467 C1458 1.390 . S
C1467 H1460 0.950 . S
C1467 C1464 1.387 . S
C1468 C1469 1.387 . S
C1468 H1472 0.950 . S
C1468 C1477 1.390 . S
C1469 C1468 1.387 . S
C1469 C1471 1.387 . S
H1470 C1477 0.950 . S
C1471 C1469 1.387 . S
C1471 C1473 1.390 . S
C1471 H1475 0.950 . S
H1472 C1468 0.950 . S
C1473 C1471 1.390 . S
C1473 C1474 1.387 . S
C1473 H1476 0.950 . S
C1474 C1473 1.387 . S
C1474 C1477 1.387 . S
H1475 C1471 0.950 . S
H1476 C1473 0.950 . S
C1477 C1468 1.390 . S
C1477 H1470 0.950 . S
C1477 C1474 1.387 . S
C1478 C1479 1.387 . S
C1478 H1482 0.950 . S
C1478 C1487 1.390 . S
C1479 C1478 1.387 . S
C1479 C1481 1.387 . S
H1480 C1487 0.950 . S
C1481 C1479 1.387 . S
C1481 C1483 1.390 . S
C1481 H1485 0.950 . S
H1482 C1478 0.950 . S
C1483 C1481 1.390 . S
C1483 C1484 1.387 . S
C1483 H1486 0.950 . S
C1484 C1483 1.387 . S
C1484 C1487 1.387 . S
H1485 C1481 0.950 . S
H1486 C1483 0.950 . S
C1487 C1478 1.390 . S
C1487 H1480 0.950 . S
C1487 C1484 1.387 . S
C1488 C1489 1.387 1_554 S
C1488 H1492 0.950 . S
C1488 C1497 1.390 1_655 S
C1489 C1488 1.387 1_556 S
C1489 C1491 1.387 . S
H1490 C1497 0.950 . S
C1491 C1489 1.387 . S
C1491 C1493 1.390 1_655 S
C1491 H1495 0.950 . S
H1492 C1488 0.950 . S
C1493 C1491 1.390 1_455 S
C1493 C1494 1.387 1_556 S
C1493 H1496 0.950 . S
C1494 C1493 1.387 1_554 S
C1494 C1497 1.387 . S
H1495 C1491 0.950 . S
H1496 C1493 0.950 . S
C1497 C1488 1.390 1_455 S
C1497 H1490 0.950 . S
C1497 C1494 1.387 . S
C1498 C1499 1.387 1_554 S
C1498 H1502 0.950 . S
C1498 C1507 1.390 . S
C1499 C1498 1.387 1_556 S
C1499 C1501 1.387 . S
H1500 C1507 0.950 . S
C1501 C1499 1.387 . S
C1501 C1503 1.390 . S
C1501 H1505 0.950 . S
H1502 C1498 0.950 . S
C1503 C1501 1.390 . S
C1503 C1504 1.387 1_556 S
C1503 H1506 0.950 . S
C1504 C1503 1.387 1_554 S
C1504 C1507 1.387 . S
H1505 C1501 0.950 . S
H1506 C1503 0.950 . S
C1507 C1498 1.390 . S
C1507 H1500 0.950 . S
C1507 C1504 1.387 . S
C1508 C1509 1.387 . S
C1508 H1512 0.950 . S
C1508 C1517 1.390 1_564 S
C1509 C1508 1.387 . S
C1509 C1511 1.387 . S
H1510 C1517 0.950 . S
C1511 C1509 1.387 . S
C1511 C1513 1.390 1_564 S
C1511 H1515 0.950 . S
H1512 C1508 0.950 . S
C1513 C1511 1.390 1_546 S
C1513 C1514 1.387 . S
C1513 H1516 0.950 . S
C1514 C1513 1.387 . S
C1514 C1517 1.387 . S
H1515 C1511 0.950 . S
H1516 C1513 0.950 . S
C1517 C1508 1.390 1_546 S
C1517 H1510 0.950 . S
C1517 C1514 1.387 . S
C1518 C1519 1.387 . S
C1518 H1522 0.950 . S
C1518 C1527 1.390 1_564 S
C1519 C1518 1.387 . S
C1519 C1521 1.387 . S
H1520 C1527 0.950 . S
C1521 C1519 1.387 . S
C1521 C1523 1.390 1_564 S
C1521 H1525 0.950 . S
H1522 C1518 0.950 . S
C1523 C1521 1.390 1_546 S
C1523 C1524 1.387 . S
C1523 H1526 0.950 . S
C1524 C1523 1.387 . S
C1524 C1527 1.387 . S
H1525 C1521 0.950 . S
H1526 C1523 0.950 . S
C1527 C1518 1.390 1_546 S
C1527 H1520 0.950 . S
C1527 C1524 1.387 . S
C1528 C1529 1.387 1_554 S
C1528 H1532 0.950 . S
C1528 C1537 1.390 1_655 S
C1529 C1528 1.387 1_556 S
C1529 C1531 1.387 . S
H1530 C1537 0.950 . S
C1531 C1529 1.387 . S
C1531 C1533 1.390 1_655 S
C1531 H1535 0.950 . S
H1532 C1528 0.950 . S
C1533 C1531 1.390 1_455 S
C1533 C1534 1.387 1_556 S
C1533 H1536 0.950 . S
C1534 C1533 1.387 1_554 S
C1534 C1537 1.387 . S
H1535 C1531 0.950 . S
H1536 C1533 0.950 . S
C1537 C1528 1.390 1_455 S
C1537 H1530 0.950 . S
C1537 C1534 1.387 . S
C1538 C1539 1.387 . S
C1538 H1542 0.950 . S
C1538 C1547 1.390 . S
C1539 C1538 1.387 . S
C1539 C1541 1.387 1_556 S
H1540 C1547 0.950 . S
C1541 C1539 1.387 1_554 S
C1541 C1543 1.390 . S
C1541 H1545 0.950 . S
H1542 C1538 0.950 . S
C1543 C1541 1.390 . S
C1543 C1544 1.387 . S
C1543 H1546 0.950 . S
C1544 C1543 1.387 . S
C1544 C1547 1.387 1_554 S
H1545 C1541 0.950 . S
H1546 C1543 0.950 . S
C1547 C1538 1.390 . S
C1547 H1540 0.950 . S
C1547 C1544 1.387 1_556 S
C1548 C1549 1.387 . S
C1548 H1552 0.950 . S
C1548 C1557 1.390 . S
C1549 C1548 1.387 . S
C1549 C1551 1.387 . S
H1550 C1557 0.950 . S
C1551 C1549 1.387 . S
C1551 C1553 1.390 . S
C1551 H1555 0.950 . S
H1552 C1548 0.950 . S
C1553 C1551 1.390 . S
C1553 C1554 1.387 . S
C1553 H1556 0.950 . S
C1554 C1553 1.387 . S
C1554 C1557 1.387 . S
H1555 C1551 0.950 . S
H1556 C1553 0.950 . S
C1557 C1548 1.390 . S
C1557 H1550 0.950 . S
C1557 C1554 1.387 . S
C1558 C1559 1.387 . S
C1558 H1562 0.950 . S
C1558 C1567 1.390 . S
C1559 C1558 1.387 . S
C1559 C1561 1.387 . S
H1560 C1567 0.950 . S
C1561 C1559 1.387 . S
C1561 C1563 1.390 . S
C1561 H1565 0.950 . S
H1562 C1558 0.950 . S
C1563 C1561 1.390 . S
C1563 C1564 1.387 . S
C1563 H1566 0.950 . S
C1564 C1563 1.387 . S
C1564 C1567 1.387 . S
H1565 C1561 0.950 . S
H1566 C1563 0.950 . S
C1567 C1558 1.390 . S
C1567 H1560 0.950 . S
C1567 C1564 1.387 . S
C1568 C1569 1.387 . S
C1568 H1572 0.950 . S
C1568 C1577 1.390 . S
C1569 C1568 1.387 . S
C1569 C1571 1.387 . S
H1570 C1577 0.950 . S
C1571 C1569 1.387 . S
C1571 C1573 1.390 . S
C1571 H1575 0.950 . S
H1572 C1568 0.950 . S
C1573 C1571 1.390 . S
C1573 C1574 1.387 . S
C1573 H1576 0.950 . S
C1574 C1573 1.387 . S
C1574 C1577 1.387 . S
H1575 C1571 0.950 . S
H1576 C1573 0.950 . S
C1577 C1568 1.390 . S
C1577 H1570 0.950 . S
C1577 C1574 1.387 . S
C1578 C1579 1.387 . S
C1578 H1582 0.950 . S
C1578 C1587 1.390 . S
C1579 C1578 1.387 . S
C1579 C1581 1.387 . S
H1580 C1587 0.950 . S
C1581 C1579 1.387 . S
C1581 C1583 1.390 . S
C1581 H1585 0.950 . S
H1582 C1578 0.950 . S
C1583 C1581 1.390 . S
C1583 C1584 1.387 . S
C1583 H1586 0.950 . S
C1584 C1583 1.387 . S
C1584 C1587 1.387 . S
H1585 C1581 0.950 . S
H1586 C1583 0.950 . S
C1587 C1578 1.390 . S
C1587 H1580 0.950 . S
C1587 C1584 1.387 . S
C1588 C1589 1.387 . S
C1588 H1592 0.950 . S
C1588 C1597 1.390 . S
C1589 C1588 1.387 . S
C1589 C1591 1.387 . S
H1590 C1597 0.950 . S
C1591 C1589 1.387 . S
C1591 C1593 1.390 . S
C1591 H1595 0.950 . S
H1592 C1588 0.950 . S
C1593 C1591 1.390 . S
C1593 C1594 1.387 . S
C1593 H1596 0.950 . S
C1594 C1593 1.387 . S
C1594 C1597 1.387 . S
H1595 C1591 0.950 . S
H1596 C1593 0.950 . S
C1597 C1588 1.390 . S
C1597 H1590 0.950 . S
C1597 C1594 1.387 . S
C1598 C1599 1.387 . S
C1598 H1602 0.950 . S
C1598 C1607 1.390 . S
C1599 C1598 1.387 . S
C1599 C1601 1.387 . S
H1600 C1607 0.950 . S
C1601 C1599 1.387 . S
C1601 C1603 1.390 . S
C1601 H1605 0.950 . S
H1602 C1598 0.950 . S
C1603 C1601 1.390 . S
C1603 C1604 1.387 . S
C1603 H1606 0.950 . S
C1604 C1603 1.387 . S
C1604 C1607 1.387 . S
H1605 C1601 0.950 . S
H1606 C1603 0.950 . S
C1607 C1598 1.390 . S
C1607 H1600 0.950 . S
C1607 C1604 1.387 . S
C1608 C1609 1.387 . S
C1608 H1612 0.950 . S
C1608 C1617 1.390 . S
C1609 C1608 1.387 . S
C1609 C1611 1.387 . S
H1610 C1617 0.950 . S
C1611 C1609 1.387 . S
C1611 C1613 1.390 . S
C1611 H1615 0.950 . S
H1612 C1608 0.950 . S
C1613 C1611 1.390 . S
C1613 C1614 1.387 . S
C1613 H1616 0.950 . S
C1614 C1613 1.387 . S
C1614 C1617 1.387 . S
H1615 C1611 0.950 . S
H1616 C1613 0.950 . S
C1617 C1608 1.390 . S
C1617 H1610 0.950 . S
C1617 C1614 1.387 . S
C1618 C1619 1.387 . S
C1618 H1622 0.950 . S
C1618 C1627 1.390 . S
C1619 C1618 1.387 . S
C1619 C1621 1.387 . S
H1620 C1627 0.950 . S
C1621 C1619 1.387 . S
C1621 C1623 1.390 . S
C1621 H1625 0.950 . S
H1622 C1618 0.950 . S
C1623 C1621 1.390 . S
C1623 C1624 1.387 . S
C1623 H1626 0.950 . S
C1624 C1623 1.387 . S
C1624 C1627 1.387 . S
H1625 C1621 0.950 . S
H1626 C1623 0.950 . S
C1627 C1618 1.390 . S
C1627 H1620 0.950 . S
C1627 C1624 1.387 . S
C1628 C1629 1.387 . S
C1628 H1632 0.950 . S
C1628 C1637 1.390 . S
C1629 C1628 1.387 . S
C1629 C1631 1.387 . S
H1630 C1637 0.950 . S
C1631 C1629 1.387 . S
C1631 C1633 1.390 . S
C1631 H1635 0.950 . S
H1632 C1628 0.950 . S
C1633 C1631 1.390 . S
C1633 C1634 1.387 . S
C1633 H1636 0.950 . S
C1634 C1633 1.387 . S
C1634 C1637 1.387 . S
H1635 C1631 0.950 . S
H1636 C1633 0.950 . S
C1637 C1628 1.390 . S
C1637 H1630 0.950 . S
C1637 C1634 1.387 . S
C1638 C1639 1.387 . S
C1638 H1642 0.950 . S
C1638 C1647 1.390 . S
C1639 C1638 1.387 . S
C1639 C1641 1.387 . S
H1640 C1647 0.950 . S
C1641 C1639 1.387 . S
C1641 C1643 1.390 . S
C1641 H1645 0.950 1_554 S
H1642 C1638 0.950 . S
C1643 C1641 1.390 . S
C1643 C1644 1.387 . S
C1643 H1646 0.950 1_554 S
C1644 C1643 1.387 . S
C1644 C1647 1.387 . S
H1645 C1641 0.950 1_556 S
H1646 C1643 0.950 1_556 S
C1647 C1638 1.390 . S
C1647 H1640 0.950 . S
C1647 C1644 1.387 . S
C1648 C1649 1.387 . S
C1648 H1652 0.950 1_554 S
C1648 C1657 1.390 . S
C1649 C1648 1.387 . S
C1649 C1651 1.387 . S
H1650 C1657 0.950 1_556 S
C1651 C1649 1.387 . S
C1651 C1653 1.390 . S
C1651 H1655 0.950 . S
H1652 C1648 0.950 1_556 S
C1653 C1651 1.390 . S
C1653 C1654 1.387 . S
C1653 H1656 0.950 . S
C1654 C1653 1.387 . S
C1654 C1657 1.387 . S
H1655 C1651 0.950 . S
H1656 C1653 0.950 . S
C1657 C1648 1.390 . S
C1657 H1650 0.950 1_554 S
C1657 C1654 1.387 . S
C1658 C1659 1.387 . S
C1658 H1662 0.950 1_554 S
C1658 C1667 1.390 . S
C1659 C1658 1.387 . S
C1659 C1661 1.387 . S
H1660 C1667 0.950 1_556 S
C1661 C1659 1.387 . S
C1661 C1663 1.390 . S
C1661 H1665 0.950 . S
H1662 C1658 0.950 1_556 S
C1663 C1661 1.390 . S
C1663 C1664 1.387 . S
C1663 H1666 0.950 . S
C1664 C1663 1.387 . S
C1664 C1667 1.387 . S
H1665 C1661 0.950 . S
H1666 C1663 0.950 . S
C1667 C1658 1.390 . S
C1667 H1660 0.950 1_554 S
C1667 C1664 1.387 . S
C1668 C1669 1.387 . S
C1668 H1672 0.950 1_556 S
C1668 C1677 1.390 . S
C1669 C1668 1.387 . S
C1669 C1671 1.387 . S
H1670 C1677 0.950 1_554 S
C1671 C1669 1.387 . S
C1671 C1673 1.390 . S
C1671 H1675 0.950 . S
H1672 C1668 0.950 1_554 S
C1673 C1671 1.390 . S
C1673 C1674 1.387 . S
C1673 H1676 0.950 . S
C1674 C1673 1.387 . S
C1674 C1677 1.387 . S
H1675 C1671 0.950 . S
H1676 C1673 0.950 . S
C1677 C1668 1.390 . S
C1677 H1670 0.950 1_556 S
C1677 C1674 1.387 . S
C1678 C1679 1.387 . S
C1678 H1682 0.950 1_556 S
C1678 C1687 1.390 . S
C1679 C1678 1.387 . S
C1679 C1681 1.387 . S
H1680 C1687 0.950 1_554 S
C1681 C1679 1.387 . S
C1681 C1683 1.390 . S
C1681 H1685 0.950 . S
H1682 C1678 0.950 1_554 S
C1683 C1681 1.390 . S
C1683 C1684 1.387 . S
C1683 H1686 0.950 . S
C1684 C1683 1.387 . S
C1684 C1687 1.387 . S
H1685 C1681 0.950 . S
H1686 C1683 0.950 . S
C1687 C1678 1.390 . S
C1687 H1680 0.950 1_556 S
C1687 C1684 1.387 . S
C1688 C1689 1.387 . S
C1688 H1692 0.950 . S
C1688 C1697 1.390 . S
C1689 C1688 1.387 . S
C1689 C1691 1.387 . S
H1690 C1697 0.950 . S
C1691 C1689 1.387 . S
C1691 C1693 1.390 . S
C1691 H1695 0.950 1_556 S
H1692 C1688 0.950 . S
C1693 C1691 1.390 . S
C1693 C1694 1.387 . S
C1693 H1696 0.950 1_556 S
C1694 C1693 1.387 . S
C1694 C1697 1.387 . S
H1695 C1691 0.950 1_554 S
H1696 C1693 0.950 1_554 S
C1697 C1688 1.390 . S
C1697 H1690 0.950 . S
C1697 C1694 1.387 . S
C1698 C1699 1.387 . S
C1698 H1702 0.950 . S
C1698 C1707 1.390 . S
C1699 C1698 1.387 . S
C1699 C1701 1.387 . S
H1700 C1707 0.950 . S
C1701 C1699 1.387 . S
C1701 C1703 1.390 . S
C1701 H1705 0.950 . S
H1702 C1698 0.950 . S
C1703 C1701 1.390 . S
C1703 C1704 1.387 . S
C1703 H1706 0.950 . S
C1704 C1703 1.387 . S
C1704 C1707 1.387 . S
H1705 C1701 0.950 . S
H1706 C1703 0.950 . S
C1707 C1698 1.390 . S
C1707 H1700 0.950 . S
C1707 C1704 1.387 . S
C1708 C1709 1.387 . S
C1708 H1712 0.950 . S
C1708 C1717 1.390 . S
C1709 C1708 1.387 . S
C1709 C1711 1.387 . S
H1710 C1717 0.950 . S
C1711 C1709 1.387 . S
C1711 C1713 1.390 . S
C1711 H1715 0.950 . S
H1712 C1708 0.950 . S
C1713 C1711 1.390 . S
C1713 C1714 1.387 . S
C1713 H1716 0.950 . S
C1714 C1713 1.387 . S
C1714 C1717 1.387 . S
H1715 C1711 0.950 . S
H1716 C1713 0.950 . S
C1717 C1708 1.390 . S
C1717 H1710 0.950 . S
C1717 C1714 1.387 . S
C1718 C1719 1.387 . S
C1718 H1722 0.950 . S
C1718 C1727 1.390 . S
C1719 C1718 1.387 . S
C1719 C1721 1.387 . S
H1720 C1727 0.950 . S
C1721 C1719 1.387 . S
C1721 C1723 1.390 . S
C1721 H1725 0.950 . S
H1722 C1718 0.950 . S
C1723 C1721 1.390 . S
C1723 C1724 1.387 . S
C1723 H1726 0.950 . S
C1724 C1723 1.387 . S
C1724 C1727 1.387 . S
H1725 C1721 0.950 . S
H1726 C1723 0.950 . S
C1727 C1718 1.390 . S
C1727 H1720 0.950 . S
C1727 C1724 1.387 . S
C1728 C1729 1.387 . S
C1728 H1732 0.950 . S
C1728 C1737 1.390 . S
C1729 C1728 1.387 . S
C1729 C1731 1.387 . S
H1730 C1737 0.950 . S
C1731 C1729 1.387 . S
C1731 C1733 1.390 . S
C1731 H1735 0.950 . S
H1732 C1728 0.950 . S
C1733 C1731 1.390 . S
C1733 C1734 1.387 . S
C1733 H1736 0.950 . S
C1734 C1733 1.387 . S
C1734 C1737 1.387 . S
H1735 C1731 0.950 . S
H1736 C1733 0.950 . S
C1737 C1728 1.390 . S
C1737 H1730 0.950 . S
C1737 C1734 1.387 . S
C1738 C1739 1.387 . S
C1738 H1742 0.950 . S
C1738 C1747 1.390 . S
C1739 C1738 1.387 . S
C1739 C1741 1.387 . S
H1740 C1747 0.950 . S
C1741 C1739 1.387 . S
C1741 C1743 1.390 . S
C1741 H1745 0.950 . S
H1742 C1738 0.950 . S
C1743 C1741 1.390 . S
C1743 C1744 1.387 . S
C1743 H1746 0.950 . S
C1744 C1743 1.387 . S
C1744 C1747 1.387 . S
H1745 C1741 0.950 . S
H1746 C1743 0.950 . S
C1747 C1738 1.390 . S
C1747 H1740 0.950 . S
C1747 C1744 1.387 . S
C1748 C1749 1.387 . S
C1748 H1752 0.950 . S
C1748 C1757 1.390 . S
C1749 C1748 1.387 . S
C1749 C1751 1.387 . S
H1750 C1757 0.950 . S
C1751 C1749 1.387 . S
C1751 C1753 1.390 . S
C1751 H1755 0.950 . S
H1752 C1748 0.950 . S
C1753 C1751 1.390 . S
C1753 C1754 1.387 . S
C1753 H1756 0.950 . S
C1754 C1753 1.387 . S
C1754 C1757 1.387 . S
H1755 C1751 0.950 . S
H1756 C1753 0.950 . S
C1757 C1748 1.390 . S
C1757 H1750 0.950 . S
C1757 C1754 1.387 . S
C1758 C1759 1.387 . S
C1758 H1762 0.950 . S
C1758 C1767 1.390 . S
C1759 C1758 1.387 . S
C1759 C1761 1.387 . S
H1760 C1767 0.950 . S
C1761 C1759 1.387 . S
C1761 C1763 1.390 . S
C1761 H1765 0.950 . S
H1762 C1758 0.950 . S
C1763 C1761 1.390 . S
C1763 C1764 1.387 . S
C1763 H1766 0.950 . S
C1764 C1763 1.387 . S
C1764 C1767 1.387 . S
H1765 C1761 0.950 . S
H1766 C1763 0.950 . S
C1767 C1758 1.390 . S
C1767 H1760 0.950 . S
C1767 C1764 1.387 . S
C1768 C1769 1.387 . S
C1768 H1772 0.950 . S
C1768 C1777 1.390 . S
C1769 C1768 1.387 . S
C1769 C1771 1.387 . S
H1770 C1777 0.950 . S
C1771 C1769 1.387 . S
C1771 C1773 1.390 . S
C1771 H1775 0.950 . S
H1772 C1768 0.950 . S
C1773 C1771 1.390 . S
C1773 C1774 1.387 . S
C1773 H1776 0.950 . S
C1774 C1773 1.387 . S
C1774 C1777 1.387 . S
H1775 C1771 0.950 . S
H1776 C1773 0.950 . S
C1777 C1768 1.390 . S
C1777 H1770 0.950 . S
C1777 C1774 1.387 . S
C1778 C1779 1.387 . S
C1778 H1782 0.950 . S
C1778 C1787 1.390 . S
C1779 C1778 1.387 . S
C1779 C1781 1.387 . S
H1780 C1787 0.950 . S
C1781 C1779 1.387 . S
C1781 C1783 1.390 . S
C1781 H1785 0.950 . S
H1782 C1778 0.950 . S
C1783 C1781 1.390 . S
C1783 C1784 1.387 . S
C1783 H1786 0.950 . S
C1784 C1783 1.387 . S
C1784 C1787 1.387 . S
H1785 C1781 0.950 . S
H1786 C1783 0.950 . S
C1787 C1778 1.390 . S
C1787 H1780 0.950 . S
C1787 C1784 1.387 . S
C1788 C1789 1.387 . S
C1788 H1792 0.950 . S
C1788 C1797 1.390 . S
C1789 C1788 1.387 . S
C1789 C1791 1.387 . S
H1790 C1797 0.950 . S
C1791 C1789 1.387 . S
C1791 C1793 1.390 . S
C1791 H1795 0.950 . S
H1792 C1788 0.950 . S
C1793 C1791 1.390 . S
C1793 C1794 1.387 . S
C1793 H1796 0.950 . S
C1794 C1793 1.387 . S
C1794 C1797 1.387 . S
H1795 C1791 0.950 . S
H1796 C1793 0.950 . S
C1797 C1788 1.390 . S
C1797 H1790 0.950 . S
C1797 C1794 1.387 . S
C1798 C1799 1.387 . S
C1798 H1802 0.950 . S
C1798 C1807 1.390 . S
C1799 C1798 1.387 . S
C1799 C1801 1.387 . S
H1800 C1807 0.950 . S
C1801 C1799 1.387 . S
C1801 C1803 1.390 . S
C1801 H1805 0.950 . S
H1802 C1798 0.950 . S
C1803 C1801 1.390 . S
C1803 C1804 1.387 . S
C1803 H1806 0.950 . S
C1804 C1803 1.387 . S
C1804 C1807 1.387 . S
H1805 C1801 0.950 . S
H1806 C1803 0.950 . S
C1807 C1798 1.390 . S
C1807 H1800 0.950 . S
C1807 C1804 1.387 . S
C1808 C1809 1.387 . S
C1808 H1812 0.950 . S
C1808 C1817 1.390 . S
C1809 C1808 1.387 . S
C1809 C1811 1.387 . S
H1810 C1817 0.950 . S
C1811 C1809 1.387 . S
C1811 C1813 1.390 . S
C1811 H1815 0.950 . S
H1812 C1808 0.950 . S
C1813 C1811 1.390 . S
C1813 C1814 1.387 . S
C1813 H1816 0.950 . S
C1814 C1813 1.387 . S
C1814 C1817 1.387 . S
H1815 C1811 0.950 . S
H1816 C1813 0.950 . S
C1817 C1808 1.390 . S
C1817 H1810 0.950 . S
C1817 C1814 1.387 . S
C1818 C1819 1.387 . S
C1818 H1822 0.950 . S
C1818 C1827 1.390 . S
C1819 C1818 1.387 . S
C1819 C1821 1.387 . S
H1820 C1827 0.950 . S
C1821 C1819 1.387 . S
C1821 C1823 1.390 . S
C1821 H1825 0.950 . S
H1822 C1818 0.950 . S
C1823 C1821 1.390 . S
C1823 C1824 1.387 . S
C1823 H1826 0.950 . S
C1824 C1823 1.387 . S
C1824 C1827 1.387 . S
H1825 C1821 0.950 . S
H1826 C1823 0.950 . S
C1827 C1818 1.390 . S
C1827 H1820 0.950 . S
C1827 C1824 1.387 . S
C1828 C1829 1.387 . S
C1828 H1832 0.950 . S
C1828 C1837 1.390 . S
C1829 C1828 1.387 . S
C1829 C1831 1.387 . S
H1830 C1837 0.950 . S
C1831 C1829 1.387 . S
C1831 C1833 1.390 . S
C1831 H1835 0.950 . S
H1832 C1828 0.950 . S
C1833 C1831 1.390 . S
C1833 C1834 1.387 . S
C1833 H1836 0.950 . S
C1834 C1833 1.387 . S
C1834 C1837 1.387 . S
H1835 C1831 0.950 . S
H1836 C1833 0.950 . S
C1837 C1828 1.390 . S
C1837 H1830 0.950 . S
C1837 C1834 1.387 . S
C1838 C1839 1.387 . S
C1838 H1842 0.950 . S
C1838 C1847 1.390 . S
C1839 C1838 1.387 . S
C1839 C1841 1.387 . S
H1840 C1847 0.950 . S
C1841 C1839 1.387 . S
C1841 C1843 1.390 . S
C1841 H1845 0.950 . S
H1842 C1838 0.950 . S
C1843 C1841 1.390 . S
C1843 C1844 1.387 . S
C1843 H1846 0.950 . S
C1844 C1843 1.387 . S
C1844 C1847 1.387 . S
H1845 C1841 0.950 . S
H1846 C1843 0.950 . S
C1847 C1838 1.390 . S
C1847 H1840 0.950 . S
C1847 C1844 1.387 . S
C1848 C1849 1.387 1_554 S
C1848 H1852 0.950 1_554 S
C1848 C1857 1.390 . S
C1849 C1848 1.387 1_556 S
C1849 C1851 1.387 1_556 S
H1850 C1857 0.950 . S
C1851 C1849 1.387 1_554 S
C1851 C1853 1.390 . S
C1851 H1855 0.950 1_554 S
H1852 C1848 0.950 1_556 S
C1853 C1851 1.390 . S
C1853 C1854 1.387 . S
C1853 H1856 0.950 . S
C1854 C1853 1.387 . S
C1854 C1857 1.387 . S
H1855 C1851 0.950 1_556 S
H1856 C1853 0.950 . S
C1857 C1848 1.390 . S
C1857 H1850 0.950 . S
C1857 C1854 1.387 . S
C1858 C1859 1.387 1_554 S
C1858 H1862 0.950 1_554 S
C1858 C1867 1.390 . S
C1859 C1858 1.387 1_556 S
C1859 C1861 1.387 1_556 S
H1860 C1867 0.950 . S
C1861 C1859 1.387 1_554 S
C1861 C1863 1.390 . S
C1861 H1865 0.950 1_554 S
H1862 C1858 0.950 1_556 S
C1863 C1861 1.390 . S
C1863 C1864 1.387 . S
C1863 H1866 0.950 . S
C1864 C1863 1.387 . S
C1864 C1867 1.387 . S
H1865 C1861 0.950 1_556 S
H1866 C1863 0.950 . S
C1867 C1858 1.390 . S
C1867 H1860 0.950 . S
C1867 C1864 1.387 . S
C1868 C1869 1.387 1_554 S
C1868 H1872 0.950 1_554 S
C1868 C1877 1.390 . S
C1869 C1868 1.387 1_556 S
C1869 C1871 1.387 1_556 S
H1870 C1877 0.950 . S
C1871 C1869 1.387 1_554 S
C1871 C1873 1.390 . S
C1871 H1875 0.950 1_554 S
H1872 C1868 0.950 1_556 S
C1873 C1871 1.390 . S
C1873 C1874 1.387 . S
C1873 H1876 0.950 . S
C1874 C1873 1.387 . S
C1874 C1877 1.387 . S
H1875 C1871 0.950 1_556 S
H1876 C1873 0.950 . S
C1877 C1868 1.390 . S
C1877 H1870 0.950 . S
C1877 C1874 1.387 . S
C1878 C1879 1.387 . S
C1878 H1882 0.950 . S
C1878 C1887 1.390 . S
C1879 C1878 1.387 . S
C1879 C1881 1.387 . S
H1880 C1887 0.950 . S
C1881 C1879 1.387 . S
C1881 C1883 1.390 . S
C1881 H1885 0.950 . S
H1882 C1878 0.950 . S
C1883 C1881 1.390 . S
C1883 C1884 1.387 . S
C1883 H1886 0.950 . S
C1884 C1883 1.387 . S
C1884 C1887 1.387 . S
H1885 C1881 0.950 . S
H1886 C1883 0.950 . S
C1887 C1878 1.390 . S
C1887 H1880 0.950 . S
C1887 C1884 1.387 . S
C1888 C1889 1.387 . S
C1888 H1892 0.950 . S
C1888 C1897 1.390 . S
C1889 C1888 1.387 . S
C1889 C1891 1.387 . S
H1890 C1897 0.950 . S
C1891 C1889 1.387 . S
C1891 C1893 1.390 . S
C1891 H1895 0.950 . S
H1892 C1888 0.950 . S
C1893 C1891 1.390 . S
C1893 C1894 1.387 . S
C1893 H1896 0.950 . S
C1894 C1893 1.387 . S
C1894 C1897 1.387 . S
H1895 C1891 0.950 . S
H1896 C1893 0.950 . S
C1897 C1888 1.390 . S
C1897 H1890 0.950 . S
C1897 C1894 1.387 . S
C1898 C1899 1.387 . S
C1898 H1902 0.950 . S
C1898 C1907 1.390 . S
C1899 C1898 1.387 . S
C1899 C1901 1.387 . S
H1900 C1907 0.950 . S
C1901 C1899 1.387 . S
C1901 C1903 1.390 . S
C1901 H1905 0.950 . S
H1902 C1898 0.950 . S
C1903 C1901 1.390 . S
C1903 C1904 1.387 . S
C1903 H1906 0.950 . S
C1904 C1903 1.387 . S
C1904 C1907 1.387 . S
H1905 C1901 0.950 . S
H1906 C1903 0.950 . S
C1907 C1898 1.390 . S
C1907 H1900 0.950 . S
C1907 C1904 1.387 . S
C1908 C1909 1.387 . S
C1908 H1912 0.950 . S
C1908 C1917 1.390 . S
C1909 C1908 1.387 . S
C1909 C1911 1.387 . S
H1910 C1917 0.950 . S
C1911 C1909 1.387 . S
C1911 C1913 1.390 . S
C1911 H1915 0.950 . S
H1912 C1908 0.950 . S
C1913 C1911 1.390 . S
C1913 C1914 1.387 . S
C1913 H1916 0.950 . S
C1914 C1913 1.387 . S
C1914 C1917 1.387 . S
H1915 C1911 0.950 . S
H1916 C1913 0.950 . S
C1917 C1908 1.390 . S
C1917 H1910 0.950 . S
C1917 C1914 1.387 . S
C1918 C1919 1.387 . S
C1918 H1922 0.950 . S
C1918 C1927 1.390 . S
C1919 C1918 1.387 . S
C1919 C1921 1.387 . S
H1920 C1927 0.950 . S
C1921 C1919 1.387 . S
C1921 C1923 1.390 . S
C1921 H1925 0.950 . S
H1922 C1918 0.950 . S
C1923 C1921 1.390 . S
C1923 C1924 1.387 . S
C1923 H1926 0.950 . S
C1924 C1923 1.387 . S
C1924 C1927 1.387 . S
H1925 C1921 0.950 . S
H1926 C1923 0.950 . S
C1927 C1918 1.390 . S
C1927 H1920 0.950 . S
C1927 C1924 1.387 . S
C1928 C1929 1.387 . S
C1928 H1932 0.950 . S
C1928 C1937 1.390 . S
C1929 C1928 1.387 . S
C1929 C1931 1.387 . S
H1930 C1937 0.950 . S
C1931 C1929 1.387 . S
C1931 C1933 1.390 . S
C1931 H1935 0.950 . S
H1932 C1928 0.950 . S
C1933 C1931 1.390 . S
C1933 C1934 1.387 . S
C1933 H1936 0.950 . S
C1934 C1933 1.387 . S
C1934 C1937 1.387 . S
H1935 C1931 0.950 . S
H1936 C1933 0.950 . S
C1937 C1928 1.390 . S
C1937 H1930 0.950 . S
C1937 C1934 1.387 . S
C1938 C1939 1.387 . S
C1938 H1942 0.950 . S
C1938 C1947 1.390 . S
C1939 C1938 1.387 . S
C1939 C1941 1.387 . S
H1940 C1947 0.950 1_556 S
C1941 C1939 1.387 . S
C1941 C1943 1.390 . S
C1941 H1945 0.950 . S
H1942 C1938 0.950 . S
C1943 C1941 1.390 . S
C1943 C1944 1.387 1_554 S
C1943 H1946 0.950 1_554 S
C1944 C1943 1.387 1_556 S
C1944 C1947 1.387 1_556 S
H1945 C1941 0.950 . S
H1946 C1943 0.950 1_556 S
C1947 C1938 1.390 . S
C1947 H1940 0.950 1_554 S
C1947 C1944 1.387 1_554 S
C1948 C1949 1.387 1_554 S
C1948 H1952 0.950 1_554 S
C1948 C1957 1.390 . S
C1949 C1948 1.387 1_556 S
C1949 C1951 1.387 1_556 S
H1950 C1957 0.950 . S
C1951 C1949 1.387 1_554 S
C1951 C1953 1.390 . S
C1951 H1955 0.950 1_554 S
H1952 C1948 0.950 1_556 S
C1953 C1951 1.390 . S
C1953 C1954 1.387 . S
C1953 H1956 0.950 . S
C1954 C1953 1.387 . S
C1954 C1957 1.387 . S
H1955 C1951 0.950 1_556 S
H1956 C1953 0.950 . S
C1957 C1948 1.390 . S
C1957 H1950 0.950 . S
C1957 C1954 1.387 . S
C1958 C1959 1.387 1_554 S
C1958 H1962 0.950 1_554 S
C1958 C1967 1.390 . S
C1959 C1958 1.387 1_556 S
C1959 C1961 1.387 1_556 S
H1960 C1967 0.950 . S
C1961 C1959 1.387 1_554 S
C1961 C1963 1.390 . S
C1961 H1965 0.950 1_554 S
H1962 C1958 0.950 1_556 S
C1963 C1961 1.390 . S
C1963 C1964 1.387 . S
C1963 H1966 0.950 . S
C1964 C1963 1.387 . S
C1964 C1967 1.387 . S
H1965 C1961 0.950 1_556 S
H1966 C1963 0.950 . S
C1967 C1958 1.390 . S
C1967 H1960 0.950 . S
C1967 C1964 1.387 . S
C1968 C1969 1.387 . S
C1968 H1972 0.950 . S
C1968 C1977 1.390 . S
C1969 C1968 1.387 . S
C1969 C1971 1.387 . S
H1970 C1977 0.950 . S
C1971 C1969 1.387 . S
C1971 C1973 1.390 . S
C1971 H1975 0.950 . S
H1972 C1968 0.950 . S
C1973 C1971 1.390 . S
C1973 C1974 1.387 . S
C1973 H1976 0.950 . S
C1974 C1973 1.387 . S
C1974 C1977 1.387 . S
H1975 C1971 0.950 . S
H1976 C1973 0.950 . S
C1977 C1968 1.390 . S
C1977 H1970 0.950 . S
C1977 C1974 1.387 . S
C1978 C1979 1.387 . S
C1978 H1982 0.950 . S
C1978 C1987 1.390 . S
C1979 C1978 1.387 . S
C1979 C1981 1.387 . S
H1980 C1987 0.950 . S
C1981 C1979 1.387 . S
C1981 C1983 1.390 . S
C1981 H1985 0.950 . S
H1982 C1978 0.950 . S
C1983 C1981 1.390 . S
C1983 C1984 1.387 . S
C1983 H1986 0.950 . S
C1984 C1983 1.387 . S
C1984 C1987 1.387 . S
H1985 C1981 0.950 . S
H1986 C1983 0.950 . S
C1987 C1978 1.390 . S
C1987 H1980 0.950 . S
C1987 C1984 1.387 . S
C1988 C1989 1.387 . S
C1988 H1992 0.950 . S
C1988 C1997 1.390 . S
C1989 C1988 1.387 . S
C1989 C1991 1.387 . S
H1990 C1997 0.950 . S
C1991 C1989 1.387 . S
C1991 C1993 1.390 . S
C1991 H1995 0.950 . S
H1992 C1988 0.950 . S
C1993 C1991 1.390 . S
C1993 C1994 1.387 . S
C1993 H1996 0.950 . S
C1994 C1993 1.387 . S
C1994 C1997 1.387 . S
H1995 C1991 0.950 . S
H1996 C1993 0.950 . S
C1997 C1988 1.390 . S
C1997 H1990 0.950 . S
C1997 C1994 1.387 . S
C1998 C1999 1.387 1_556 S
C1998 H2002 0.950 1_556 S
C1998 C2007 1.390 . S
C1999 C1998 1.387 1_554 S
C1999 C2001 1.387 1_554 S
H2000 C2007 0.950 . S
C2001 C1999 1.387 1_556 S
C2001 C2003 1.390 . S
C2001 H2005 0.950 1_556 S
H2002 C1998 0.950 1_554 S
C2003 C2001 1.390 . S
C2003 C2004 1.387 . S
C2003 H2006 0.950 . S
C2004 C2003 1.387 . S
C2004 C2007 1.387 . S
H2005 C2001 0.950 1_554 S
H2006 C2003 0.950 . S
C2007 C1998 1.390 . S
C2007 H2000 0.950 . S
C2007 C2004 1.387 . S
C2008 C2009 1.387 . S
C2008 H2012 0.950 . S
C2008 C2017 1.390 . S
C2009 C2008 1.387 . S
C2009 C2011 1.387 . S
H2010 C2017 0.950 1_554 S
C2011 C2009 1.387 . S
C2011 C2013 1.390 . S
C2011 H2015 0.950 . S
H2012 C2008 0.950 . S
C2013 C2011 1.390 . S
C2013 C2014 1.387 1_556 S
C2013 H2016 0.950 1_556 S
C2014 C2013 1.387 1_554 S
C2014 C2017 1.387 1_554 S
H2015 C2011 0.950 . S
H2016 C2013 0.950 1_554 S
C2017 C2008 1.390 . S
C2017 H2010 0.950 1_556 S
C2017 C2014 1.387 1_556 S
C2018 C2019 1.387 1_556 S
C2018 H2022 0.950 1_556 S
C2018 C2027 1.390 . S
C2019 C2018 1.387 1_554 S
C2019 C2021 1.387 1_554 S
H2020 C2027 0.950 . S
C2021 C2019 1.387 1_556 S
C2021 C2023 1.390 . S
C2021 H2025 0.950 1_556 S
H2022 C2018 0.950 1_554 S
C2023 C2021 1.390 . S
C2023 C2024 1.387 . S
C2023 H2026 0.950 . S
C2024 C2023 1.387 . S
C2024 C2027 1.387 . S
H2025 C2021 0.950 1_554 S
H2026 C2023 0.950 . S
C2027 C2018 1.390 . S
C2027 H2020 0.950 . S
C2027 C2024 1.387 . S
C2028 C2029 1.387 . S
C2028 H2032 0.950 . S
C2028 C2037 1.390 . S
C2029 C2028 1.387 . S
C2029 C2031 1.387 . S
H2030 C2037 0.950 1_554 S
C2031 C2029 1.387 . S
C2031 C2033 1.390 . S
C2031 H2035 0.950 . S
H2032 C2028 0.950 . S
C2033 C2031 1.390 . S
C2033 C2034 1.387 1_556 S
C2033 H2036 0.950 1_556 S
C2034 C2033 1.387 1_554 S
C2034 C2037 1.387 1_554 S
H2035 C2031 0.950 . S
H2036 C2033 0.950 1_554 S
C2037 C2028 1.390 . S
C2037 H2030 0.950 1_556 S
C2037 C2034 1.387 1_556 S
C2038 C2039 1.387 . S
C2038 H2042 0.950 . S
C2038 C2047 1.390 . S
C2039 C2038 1.387 . S
C2039 C2041 1.387 . S
H2040 C2047 0.950 1_554 S
C2041 C2039 1.387 . S
C2041 C2043 1.390 . S
C2041 H2045 0.950 . S
H2042 C2038 0.950 . S
C2043 C2041 1.390 . S
C2043 C2044 1.387 1_556 S
C2043 H2046 0.950 1_556 S
C2044 C2043 1.387 1_554 S
C2044 C2047 1.387 1_554 S
H2045 C2041 0.950 . S
H2046 C2043 0.950 1_554 S
C2047 C2038 1.390 . S
C2047 H2040 0.950 1_556 S
C2047 C2044 1.387 1_556 S
C2048 C2049 1.387 . S
C2048 H2052 0.950 . S
C2048 C2057 1.390 . S
C2049 C2048 1.387 . S
C2049 C2051 1.387 . S
H2050 C2057 0.950 1_554 S
C2051 C2049 1.387 . S
C2051 C2053 1.390 . S
C2051 H2055 0.950 . S
H2052 C2048 0.950 . S
C2053 C2051 1.390 . S
C2053 C2054 1.387 1_556 S
C2053 H2056 0.950 1_556 S
C2054 C2053 1.387 1_554 S
C2054 C2057 1.387 1_554 S
H2055 C2051 0.950 . S
H2056 C2053 0.950 1_554 S
C2057 C2048 1.390 . S
C2057 H2050 0.950 1_556 S
C2057 C2054 1.387 1_556 S
C2058 C2059 1.387 . S
C2058 H2062 0.950 . S
C2058 C2067 1.390 . S
C2059 C2058 1.387 . S
C2059 C2061 1.387 . S
H2060 C2067 0.950 . S
C2061 C2059 1.387 . S
C2061 C2063 1.390 . S
C2061 H2065 0.950 . S
H2062 C2058 0.950 . S
C2063 C2061 1.390 . S
C2063 C2064 1.387 . S
C2063 H2066 0.950 . S
C2064 C2063 1.387 . S
C2064 C2067 1.387 . S
H2065 C2061 0.950 . S
H2066 C2063 0.950 . S
C2067 C2058 1.390 . S
C2067 H2060 0.950 . S
C2067 C2064 1.387 . S
C2068 C2069 1.387 . S
C2068 H2072 0.950 . S
C2068 C2077 1.390 . S
C2069 C2068 1.387 . S
C2069 C2071 1.387 . S
H2070 C2077 0.950 . S
C2071 C2069 1.387 . S
C2071 C2073 1.390 . S
C2071 H2075 0.950 . S
H2072 C2068 0.950 . S
C2073 C2071 1.390 . S
C2073 C2074 1.387 . S
C2073 H2076 0.950 . S
C2074 C2073 1.387 . S
C2074 C2077 1.387 . S
H2075 C2071 0.950 . S
H2076 C2073 0.950 . S
C2077 C2068 1.390 . S
C2077 H2070 0.950 . S
C2077 C2074 1.387 . S
C2078 C2079 1.387 . S
C2078 H2082 0.950 . S
C2078 C2087 1.390 . S
C2079 C2078 1.387 . S
C2079 C2081 1.387 . S
H2080 C2087 0.950 . S
C2081 C2079 1.387 . S
C2081 C2083 1.390 . S
C2081 H2085 0.950 . S
H2082 C2078 0.950 . S
C2083 C2081 1.390 . S
C2083 C2084 1.387 . S
C2083 H2086 0.950 . S
C2084 C2083 1.387 . S
C2084 C2087 1.387 . S
H2085 C2081 0.950 . S
H2086 C2083 0.950 . S
C2087 C2078 1.390 . S
C2087 H2080 0.950 . S
C2087 C2084 1.387 . S
C1189 C28 1.054 . S
C1194 C523 1.053 . S
C1199 C556 1.053 . S
C1204 C61 1.053 . S
C1209 C589 1.053 . S
C1214 C94 1.054 . S
C1219 C820 1.054 . S
C1224 C127 1.053 . S
C1229 C160 1.053 . S
C1234 C853 1.053 . S
C1239 C886 1.052 . S
C1244 C193 1.054 . S
C1249 C1117 1.053 . S
C1254 C226 1.055 . S
C1259 C259 1.053 . S
C1264 C1150 1.053 . S
C1269 C1183 1.054 . S
C1274 C292 1.052 . S
C1279 C622 1.053 . S
C1284 C325 1.055 . S
C1289 C655 1.053 . S
C1294 C358 1.053 . S
C1299 C688 1.054 . S
C1304 C391 1.052 . S
C1309 C919 1.054 . S
C1314 C424 1.055 . S
C1319 C952 1.053 . S
C1324 C457 1.053 . S
C1329 C490 1.052 . S
C1334 C985 1.054 . S
C1339 C721 1.053 . S
C1344 C1018 1.055 . S
C1349 C1051 1.053 . S
C1354 C754 1.054 . S
C1359 C787 1.054 . S
C1364 C1084 1.052 . S
C1369 C965 1.567 . S
C1374 C8 1.567 . S
C1379 C41 1.568 . S
C1384 C899 1.566 . S
C1389 C932 1.567 . S
C1394 C74 1.566 . S
C1399 C437 1.566 . S
C1404 C107 1.568 . S
C1409 C470 1.567 . S
C1414 C140 1.566 . S
C1419 C404 1.567 . S
C1424 C173 1.567 . S
C1429 C206 1.567 . S
C1434 C767 1.567 . S
C1439 C701 1.568 . S
C1444 C239 1.566 . S
C1449 C272 1.567 . S
C1454 C734 1.566 . S
C1459 C1031 1.567 . S
C1464 C305 1.567 . S
C1469 C338 1.566 . S
C1474 C1064 1.567 . S
C1479 C371 1.567 . S
C1484 C998 1.567 . S
C1489 C833 1.566 . S
C1494 C503 1.567 . S
C1499 C866 1.566 . S
C1504 C536 1.567 . S
C1509 C569 1.567 . S
C1514 C800 1.567 . S
C1519 C602 1.567 . S
C1524 C1163 1.567 . S
C1529 C1097 1.567 . S
C1534 C635 1.566 . S
C1539 C1130 1.566 . S
C1544 C668 1.567 . S
C1549 C17 1.509 . S
C1554 C380 1.511 . S
C1559 C50 1.511 . S
C1564 C314 1.509 . S
C1569 C83 1.509 . S
C1574 C347 1.511 . S
C1579 C116 1.509 . S
C1584 C248 1.511 . S
C1589 C281 1.511 . S
C1594 C149 1.509 . S
C1599 C215 1.509 . S
C1604 C182 1.511 . S
C1609 C776 1.511 . S
C1614 C413 1.509 . S
C1619 C710 1.511 . S
C1624 C446 1.509 . S
C1629 C479 1.511 . S
C1634 C743 1.509 . S
C1639 C644 1.511 . S
C1644 C512 1.509 . S
C1649 C677 1.509 . S
C1654 C545 1.511 . S
C1659 C611 1.509 . S
C1664 C578 1.511 . S
C1669 C1172 1.509 . S
C1674 C809 1.511 . S
C1679 C842 1.511 . S
C1684 C1106 1.509 . S
C1689 C1139 1.511 . S
C1694 C875 1.509 . S
C1699 C1040 1.511 . S
C1704 C908 1.509 . S
C1709 C1073 1.511 . S
C1714 C941 1.509 . S
C1719 C1007 1.509 . S
C1724 C974 1.511 . S
C1729 N5 1.476 . S
C1734 N14 1.471 . S
C1739 N47 1.471 . S
C1744 N38 1.476 . S
C1749 N71 1.478 . S
C1754 N80 1.473 . S
C1759 N113 1.472 . S
C1764 N104 1.477 . S
C1769 N146 1.471 . S
C1774 N137 1.476 . S
C1779 N179 1.472 . S
C1784 N170 1.477 . S
C1789 N212 1.473 . S
C1794 N203 1.478 . S
C1799 N245 1.471 . S
C1804 N236 1.476 . S
C1809 N269 1.478 . S
C1814 N278 1.473 . S
C1819 N302 1.476 . S
C1824 N311 1.471 . S
C1829 N344 1.471 . S
C1834 N335 1.476 . S
C1839 N368 1.477 . S
C1844 N377 1.472 . S
C1849 N410 1.473 . S
C1854 N401 1.478 . S
C1859 N443 1.472 . S
C1864 N434 1.477 . S
C1869 N476 1.471 . S
C1874 N467 1.476 . S
C1879 N509 1.472 . S
C1884 N500 1.478 . S
C1889 N542 1.473 . S
C1894 N533 1.478 . S
C1899 N566 1.478 . S
C1904 N575 1.472 . S
C1909 N608 1.473 . S
C1914 N599 1.478 . S
C1919 N632 1.478 . S
C1924 N641 1.473 . S
C1929 N665 1.477 . S
C1934 N674 1.472 . S
C1939 N698 1.476 . S
C1944 N707 1.471 . S
C1949 N740 1.471 . S
C1954 N731 1.476 . S
C1959 N773 1.471 . S
C1964 N764 1.477 . S
C1969 N797 1.477 . S
C1974 N806 1.471 . S
C1979 N830 1.478 . S
C1984 N839 1.473 . S
C1989 N872 1.473 . S
C1994 N863 1.478 . S
C1999 N905 1.472 . S
C2004 N896 1.477 . S
C2009 N929 1.478 . S
C2014 N938 1.473 . S
C2019 N971 1.473 . S
C2024 N962 1.478 . S
C2029 N995 1.476 . S
C2034 N1004 1.471 . S
C2039 N1028 1.476 . S
C2044 N1037 1.471 . S
C2049 N1061 1.476 . S
C2054 N1070 1.471 . S
C2059 N1103 1.472 . S
C2064 N1094 1.477 . S
C2069 N1127 1.478 . S
C2074 N1136 1.473 . S
C2079 N1169 1.473 . S
C2084 N1160 1.478 . S
