# Generated by pormake.
# Topology sra, (4)-cn, num edge types: 1
# Building blocks:
#     Node 0, Type 0, BuildingBlock: AZAVOO_clean_sbu_0, # of connection points: 4
#     Node 1, Type 0, BuildingBlock: AZAVOO_clean_sbu_0, # of connection points: 4
#     Node 2, Type 0, BuildingBlock: AZAVOO_clean_sbu_0, # of connection points: 4
#     Node 3, Type 0, BuildingBlock: AZAVOO_clean_sbu_0, # of connection points: 4
#     Node 4, Type 0, BuildingBlock: AZAVOO_clean_sbu_0, # of connection points: 4
#     Node 5, Type 0, BuildingBlock: AZAVOO_clean_sbu_0, # of connection points: 4
#     Node 6, Type 0, BuildingBlock: AZAVOO_clean_sbu_0, # of connection points: 4
#     Node 7, Type 0, BuildingBlock: AZAVOO_clean_sbu_0, # of connection points: 4
#     Edge 8, Type (0, 0), BuildingBlock: FUNLAD_clean_linker_0, # of connection points: 2
#     Edge 9, Type (0, 0), BuildingBlock: FUNLAD_clean_linker_0, # of connection points: 2
#     Edge 10, Type (0, 0), BuildingBlock: FUNLAD_clean_linker_0, # of connection points: 2
#     Edge 11, Type (0, 0), BuildingBlock: FUNLAD_clean_linker_0, # of connection points: 2
#     Edge 12, Type (0, 0), BuildingBlock: FUNLAD_clean_linker_0, # of connection points: 2
#     Edge 13, Type (0, 0), BuildingBlock: FUNLAD_clean_linker_0, # of connection points: 2
#     Edge 14, Type (0, 0), BuildingBlock: FUNLAD_clean_linker_0, # of connection points: 2
#     Edge 15, Type (0, 0), BuildingBlock: FUNLAD_clean_linker_0, # of connection points: 2
#     Edge 16, Type (0, 0), BuildingBlock: FUNLAD_clean_linker_0, # of connection points: 2
#     Edge 17, Type (0, 0), BuildingBlock: FUNLAD_clean_linker_0, # of connection points: 2
#     Edge 18, Type (0, 0), BuildingBlock: FUNLAD_clean_linker_0, # of connection points: 2
#     Edge 19, Type (0, 0), BuildingBlock: FUNLAD_clean_linker_0, # of connection points: 2
#     Edge 20, Type (0, 0), BuildingBlock: FUNLAD_clean_linker_0, # of connection points: 2
#     Edge 21, Type (0, 0), BuildingBlock: FUNLAD_clean_linker_0, # of connection points: 2
#     Edge 22, Type (0, 0), BuildingBlock: FUNLAD_clean_linker_0, # of connection points: 2
#     Edge 23, Type (0, 0), BuildingBlock: FUNLAD_clean_linker_0, # of connection points: 2
# Relax obj value: 0.077
# Max RMSD: 0.074
# Mean RMSD: 0.074
data_MOF--net-sra--node1-AZAVOO_clean_sbu_0--edge1-FUNLAD_clean_linker_0
_symmetry_space_group_name_H-M    P1
_symmetry_Int_Tables_number       1
_symmetry_cell_setting            triclinic
loop_
_symmetry_equiv_pos_as_xyz
'x, y, z'
_cell_length_a     31.28587
_cell_length_b     45.528029
_cell_length_c     51.201891
_cell_angle_alpha  89.765882
_cell_angle_beta   90.071625
_cell_angle_gamma 90.063303
loop_
_atom_site_label
_atom_site_type_symbol
_atom_site_fract_x
_atom_site_fract_y
_atom_site_fract_z
_atom_type_partial_charge
Mg0 Mg 0.01265 0.05185 0.16901 0.0
O1 O 0.013 0.10203 0.16392 0.0
O2 O 0.07502 0.11459 0.14536 0.0
Mg3 Mg 0.11368 0.0729 0.13822 0.0
C4 C 0.03868 0.1214 0.15489 0.0
C5 C 0.93431 0.03706 0.19994 0.0
O6 O 0.96537 0.02133 0.21014 0.0
O7 O -0.00125 0.04621 0.12547 0.0
O8 O 0.06269 0.05763 0.10886 0.0
O9 O 0.0446 0.05641 0.20758 0.0
O10 O 0.07942 0.0514 0.17039 0.0
C11 C 0.02395 0.04922 0.10602 0.0
C12 C 0.08062 0.05576 0.19523 0.0
O13 O 0.94233 0.05284 0.18001 0.0
Mg14 Mg 0.00705 0.45917 0.15786 0.0
O15 O 0.00032 0.40907 0.15623 0.0
O16 O 0.93578 0.39768 0.1406 0.0
Mg17 Mg 0.90171 0.44085 0.13136 0.0
C18 C 0.97226 0.39014 0.14956 0.0
C19 C 0.09181 0.4667 0.18622 0.0
O20 O 0.06564 0.48351 0.19953 0.0
O21 O 0.01751 0.4608 0.11387 0.0
O22 O 0.95162 0.45059 0.09959 0.0
O23 O 0.97782 0.4591 0.19742 0.0
O24 O 0.94096 0.46348 0.16076 0.0
C25 C 0.99079 0.45702 0.0953 0.0
C26 C 0.94114 0.46079 0.18581 0.0
O27 O 0.0778 0.45365 0.16608 0.0
Mg28 Mg -0.00633 0.96098 0.82005 0.0
O29 O 0.01178 0.91229 0.82388 0.0
O30 O 0.0801 0.90914 0.83654 0.0
Mg31 Mg 0.10533 0.95589 0.84138 0.0
C32 C 0.04473 0.89722 0.83004 0.0
C33 C 0.89861 0.96936 0.80872 0.0
O34 O 0.91386 0.99626 0.80805 0.0
O35 O 0.98858 0.9648 0.86468 0.0
O36 O 0.05796 0.96157 0.875 0.0
O37 O 0.01809 0.9603 0.77919 0.0
O38 O 0.05743 0.97205 0.81355 0.0
C39 C 0.01877 0.96428 0.88154 0.0
C40 C 0.05505 0.96692 0.78891 0.0
O41 O 0.9236 0.94851 0.81501 0.0
Mg42 Mg 0.00953 0.56552 0.81483 0.0
O43 O 0.01493 0.61324 0.8284 0.0
O44 O 0.95379 0.62427 0.84878 0.0
Mg45 Mg 0.90782 0.58527 0.84506 0.0
C46 C -0.00869 0.63111 0.84101 0.0
C47 C 0.09466 0.53881 0.79906 0.0
O48 O 0.06762 0.51706 0.79561 0.0
O49 O 0.01589 0.54867 0.85671 0.0
O50 O 0.94984 0.55688 0.87169 0.0
O51 O 0.98437 0.58052 0.77631 0.0
O52 O 0.94406 0.5709 0.81074 0.0
C53 C 0.98726 0.54608 0.8743 0.0
C54 C 0.94695 0.58036 0.78706 0.0
O55 O 0.08088 0.56285 0.80827 0.0
Mg56 Mg 0.52834 0.54303 0.66991 0.0
O57 O 0.5266 0.59232 0.65919 0.0
O58 O 0.58815 0.6031 0.63918 0.0
Mg59 Mg 0.627 0.56118 0.6352 0.0
C60 C 0.55189 0.61073 0.64829 0.0
C61 C 0.43822 0.51986 0.68286 0.0
O62 O 0.45814 0.49524 0.67746 0.0
O63 O 0.51374 0.5304 0.62804 0.0
O64 O 0.57509 0.54221 0.60818 0.0
O65 O 0.56033 0.55444 0.70696 0.0
O66 O 0.59474 0.54432 0.67032 0.0
C67 C 0.53692 0.53221 0.60763 0.0
C68 C 0.59596 0.55333 0.69416 0.0
O69 O 0.45818 0.54402 0.68047 0.0
Mg70 Mg 0.47775 0.93976 0.66653 0.0
O71 O 0.47114 0.89018 0.65904 0.0
O72 O 0.4109 0.88252 0.63657 0.0
Mg73 Mg 0.38119 0.92717 0.62758 0.0
C74 C 0.44433 0.87295 0.64809 0.0
C75 C 0.55342 0.91625 0.70065 0.0
O76 O 0.52198 0.90053 0.7104 0.0
O77 O 0.50038 0.94717 0.62466 0.0
O78 O 0.43988 0.93876 0.60248 0.0
O79 O 0.43706 0.93496 0.70199 0.0
O80 O 0.41202 0.94516 0.66257 0.0
C81 C 0.4796 0.94531 0.60324 0.0
C82 C 0.40461 0.93928 0.68674 0.0
O83 O 0.54582 0.93353 0.68162 0.0
Mg84 Mg 0.5211 0.45177 0.32176 0.0
O85 O 0.53116 0.4019 0.32589 0.0
O86 O 0.59567 0.39446 0.34346 0.0
Mg87 Mg 0.62603 0.43914 0.35121 0.0
C88 C 0.56056 0.38473 0.33414 0.0
C89 C 0.44017 0.42963 0.29338 0.0
O90 O 0.47022 0.41681 0.27963 0.0
O91 O 0.50868 0.45547 0.36515 0.0
O92 O 0.57393 0.44851 0.38197 0.0
O93 O 0.55138 0.45118 0.28278 0.0
O94 O 0.58686 0.45818 0.31964 0.0
C95 C 0.53401 0.45369 0.38462 0.0
C96 C 0.58757 0.45466 0.29466 0.0
O97 O 0.45073 0.44488 0.31309 0.0
Mg98 Mg 0.50037 0.05143 0.33092 0.0
O99 O 0.49482 0.10178 0.33408 0.0
O100 O 0.43073 0.11165 0.35116 0.0
Mg101 Mg 0.39654 0.06846 0.35969 0.0
C102 C 0.46658 0.12004 0.34185 0.0
C103 C 0.5911 0.03074 0.31991 0.0
O104 O 0.57052 0.00613 0.3247 0.0
O105 O 0.51231 0.04766 0.37457 0.0
O106 O 0.4476 0.05745 0.39083 0.0
O107 O 0.47072 0.05313 0.29173 0.0
O108 O 0.43408 0.04791 0.32837 0.0
C109 C 0.48697 0.0507 0.39387 0.0
C110 C 0.43408 0.0515 0.30336 0.0
O111 O 0.57119 0.05491 0.32209 0.0
C112 C 0.95292 0.33696 0.1442 0.0
C113 C 0.98262 0.35846 0.15192 0.0
C114 C 0.96314 0.30712 0.14572 0.0
C115 C 0.00331 0.29807 0.1552 0.0
C116 C 0.0329 0.31955 0.16293 0.0
C117 C 0.02269 0.34938 0.16142 0.0
C118 C 0.01645 0.2667 0.156 0.0
C119 C 0.98873 0.24401 0.15628 0.0
C120 C 0.00254 0.21276 0.15614 0.0
C121 C 0.97481 0.19114 0.16597 0.0
C122 C 0.98647 0.16149 0.16572 0.0
C123 C 0.0261 0.15279 0.15537 0.0
H124 H 0.06364 0.21981 0.13684 0.0
C125 C 0.05362 0.17444 0.14523 0.0
C126 C 0.04196 0.20402 0.14549 0.0
H127 H 0.08421 0.16857 0.13684 0.0
H128 H 0.92185 0.34315 0.13661 0.0
H129 H 0.93984 0.29141 0.1388 0.0
H130 H 0.0642 0.31326 0.1701 0.0
H131 H 0.04643 0.36528 0.1675 0.0
H132 H 0.0505 0.26233 0.15722 0.0
H133 H 0.95466 0.24822 0.1576 0.0
H134 H 0.94404 0.19721 0.17402 0.0
H135 H 0.96438 0.14543 0.17359 0.0
C136 C 0.06842 0.84772 0.8458 0.0
C137 C 0.04186 0.86484 0.82964 0.0
C138 C 0.06533 0.81709 0.84565 0.0
C139 C 0.03612 0.80303 0.82898 0.0
C140 C 0.01029 0.82008 0.81243 0.0
C141 C 0.01265 0.85072 0.81302 0.0
C142 C 0.03253 0.77063 0.82806 0.0
C143 C 0.03489 0.75368 0.84959 0.0
C144 C 0.02711 0.72165 0.84849 0.0
C145 C 0.00115 0.70833 0.86745 0.0
C146 C 0.99024 0.67864 0.86542 0.0
C147 C 0.00623 0.66159 0.84481 0.0
H148 H 0.06502 0.71412 0.81375 0.0
C149 C 0.03421 0.67459 0.82667 0.0
C150 C 0.04423 0.70444 0.82834 0.0
H151 H 0.04698 0.66201 0.81056 0.0
H152 H 0.09126 0.85802 0.85879 0.0
H153 H 0.08622 0.80444 0.85826 0.0
H154 H 0.98776 0.80968 0.7993 0.0
H155 H -0.00795 0.86335 0.8002 0.0
H156 H 0.02421 0.76068 0.80946 0.0
H157 H 0.03842 0.76381 0.86867 0.0
H158 H 0.98791 0.72118 0.88325 0.0
H159 H 0.96883 0.66912 0.87976 0.0
C160 C 0.50109 0.65224 0.65756 0.0
C161 C 0.54006 0.64226 0.6472 0.0
C162 C 0.4914 0.68225 0.65773 0.0
C163 C 0.5205 0.7029 0.64745 0.0
C164 C 0.55919 0.69286 0.637 0.0
C165 C 0.5688 0.66296 0.63674 0.0
C166 C 0.51279 0.73508 0.64827 0.0
C167 C 0.47366 0.74727 0.64953 0.0
C168 C 0.46688 0.77957 0.64962 0.0
C169 C 0.42871 0.79092 0.63935 0.0
C170 C 0.42146 0.82119 0.63878 0.0
C171 C 0.45205 0.84083 0.64882 0.0
H172 H 0.52644 0.79116 0.66896 0.0
C173 C 0.48991 0.82941 0.65965 0.0
C174 C 0.49723 0.79913 0.66008 0.0
H175 H 0.51397 0.84384 0.6678 0.0
H176 H 0.47835 0.63695 0.66595 0.0
H177 H 0.46169 0.68914 0.66658 0.0
H178 H 0.58227 0.70825 0.62907 0.0
H179 H 0.59919 0.65617 0.62865 0.0
H180 H 0.54058 0.74926 0.64641 0.0
H181 H 0.44548 0.73336 0.64884 0.0
H182 H 0.40463 0.77634 0.63141 0.0
H183 H 0.39178 0.82915 0.63047 0.0
C184 C 0.51556 0.34071 0.32315 0.0
C185 C 0.5538 0.35251 0.33308 0.0
C186 C 0.50909 0.31031 0.32262 0.0
C187 C 0.54067 0.29103 0.33219 0.0
C188 C 0.57919 0.30281 0.34152 0.0
C189 C 0.58565 0.33316 0.34208 0.0
C190 C 0.53494 0.25859 0.33253 0.0
C191 C 0.49633 0.24549 0.33353 0.0
C192 C 0.4902 0.21316 0.3355 0.0
C193 C 0.45149 0.20252 0.34559 0.0
C194 C 0.44405 0.17238 0.3478 0.0
C195 C 0.47509 0.15203 0.33975 0.0
H196 H 0.551 0.20007 0.31854 0.0
C197 C 0.51377 0.16262 0.32936 0.0
C198 C 0.52123 0.19285 0.32717 0.0
H199 H 0.53822 0.14759 0.32272 0.0
H200 H 0.49054 0.35492 0.31576 0.0
H201 H 0.47953 0.30211 0.31442 0.0
H202 H 0.60422 0.2885 0.34877 0.0
H203 H 0.61564 0.3414 0.34972 0.0
H204 H 0.56365 0.2453 0.33383 0.0
H205 H 0.4678 0.25898 0.33466 0.0
H206 H 0.42689 0.2176 0.35199 0.0
H207 H 0.41377 0.16511 0.35579 0.0
C208 C 0.35406 0.0528 0.30096 0.0
C209 C 0.39389 0.05457 0.28841 0.0
C210 C 0.31619 0.05469 0.28655 0.0
C211 C 0.31745 0.05839 0.25925 0.0
C212 C 0.35726 0.06012 0.24677 0.0
C213 C 0.39508 0.05842 0.26118 0.0
C214 C 0.27816 0.05861 0.243 0.0
C215 C 0.23988 0.06772 0.25185 0.0
C216 C 0.19966 0.06613 0.23636 0.0
C217 C 0.16053 0.06811 0.24963 0.0
C218 C 0.12187 0.06527 0.23621 0.0
C219 C 0.12146 0.06047 0.20913 0.0
H220 H 0.22827 0.06168 0.19775 0.0
C221 C 0.16049 0.05934 0.19567 0.0
C222 C 0.19916 0.06235 0.20905 0.0
H223 H 0.16133 0.05576 0.1748 0.0
H224 H 0.35202 0.04939 0.32185 0.0
H225 H 0.28616 0.05228 0.29679 0.0
H226 H 0.35913 0.06268 0.22575 0.0
H227 H 0.42524 0.05974 0.25088 0.0
H228 H 0.2815 0.05076 0.22316 0.0
H229 H 0.23737 0.07587 0.27169 0.0
H230 H 0.15982 0.07129 0.27059 0.0
H231 H 0.09232 0.06638 0.24717 0.0
C232 C 0.66737 0.45846 0.29282 0.0
C233 C 0.62815 0.45405 0.28003 0.0
C234 C 0.70551 0.45914 0.27866 0.0
C235 C 0.70507 0.45538 0.2514 0.0
C236 C 0.66587 0.451 0.23868 0.0
C237 C 0.62782 0.45016 0.25283 0.0
C238 C 0.74436 0.45751 0.23537 0.0
C239 C 0.7836 0.45076 0.24445 0.0
C240 C 0.82342 0.45318 0.22868 0.0
C241 C 0.86297 0.45071 0.24154 0.0
C242 C 0.90127 0.45311 0.22767 0.0
C243 C 0.90082 0.45799 0.20058 0.0
H244 H 0.79388 0.45909 0.19034 0.0
C245 C 0.86139 0.46031 0.18766 0.0
C246 C 0.82316 0.45771 0.20144 0.0
H247 H 0.85987 0.46424 0.16682 0.0
H248 H 0.66864 0.46199 0.3137 0.0
H249 H 0.73494 0.46352 0.28907 0.0
H250 H 0.66463 0.44828 0.21767 0.0
H251 H 0.59811 0.44685 0.24236 0.0
H252 H 0.73994 0.46456 0.21533 0.0
H253 H 0.78703 0.44319 0.26448 0.0
H254 H 0.86431 0.44709 0.26245 0.0
H255 H 0.93118 0.45119 0.23821 0.0
C256 C 0.09894 0.94497 0.75325 0.0
C257 C 0.09409 0.966 0.773 0.0
C258 C 0.13736 0.94309 0.73941 0.0
C259 C 0.17085 0.96279 0.74469 0.0
C260 C 0.16538 0.98439 0.7638 0.0
C261 C 0.1276 0.98564 0.77821 0.0
C262 C 0.21177 0.9613 0.73047 0.0
C263 C 0.23325 0.93597 0.72771 0.0
C264 C 0.27651 0.93543 0.71616 0.0
C265 C 0.30909 0.91942 0.72853 0.0
C266 C 0.35093 0.92054 0.71897 0.0
C267 C 0.3604 0.93695 0.69643 0.0
H268 H 0.26102 0.96357 0.68325 0.0
C269 C 0.32734 0.9519 0.68342 0.0
C270 C 0.28582 0.9514 0.69335 0.0
H271 H 0.33378 0.96467 0.66596 0.0
H272 H 0.07352 0.92952 0.74902 0.0
H273 H 0.14082 0.92646 0.7245 0.0
H274 H 0.19082 -0.00016 0.76805 0.0
H275 H 0.12446 0.00207 0.79333 0.0
H276 H 0.2266 0.98188 0.72453 0.0
H277 H 0.22071 0.91588 0.73635 0.0
H278 H 0.30245 0.90685 0.74608 0.0
H279 H 0.37581 0.90861 0.72922 0.0
C280 C 0.67494 0.56167 0.69244 0.0
C281 C 0.63607 0.56402 0.70595 0.0
C282 C 0.71301 0.57112 0.70391 0.0
C283 C 0.71289 0.58315 0.72918 0.0
C284 C 0.67399 0.58567 0.74257 0.0
C285 C 0.63591 0.57635 0.73105 0.0
C286 C 0.75295 0.59026 0.74323 0.0
C287 C 0.78995 0.5971 0.73119 0.0
C288 C 0.83135 0.5981 0.74533 0.0
C289 C 0.86891 0.59116 0.73171 0.0
C290 C 0.90734 0.58701 0.74516 0.0
C291 C 0.90869 0.58965 0.77245 0.0
H292 H 0.80618 0.61046 0.78335 0.0
C293 C 0.87203 0.59899 0.78576 0.0
C294 C 0.83381 0.6035 0.77233 0.0
H295 H 0.8725 0.60229 0.80664 0.0
H296 H 0.67624 0.55187 0.67324 0.0
H297 H 0.74248 0.56781 0.69331 0.0
H298 H 0.67312 0.59451 0.76218 0.0
H299 H 0.60647 0.57847 0.74198 0.0
H300 H 0.75194 0.58808 0.76432 0.0
H301 H 0.79078 0.59922 0.71007 0.0
H302 H 0.86806 0.58736 0.71084 0.0
H303 H 0.93532 0.58011 0.73437 0.0
C304 C 0.62786 0.93599 0.70528 0.0
C305 C 0.59594 0.91626 0.71345 0.0
C306 C 0.66652 0.93796 0.71885 0.0
C307 C 0.67411 0.92028 0.74099 0.0
C308 C 0.64308 0.89959 0.7484 0.0
C309 C 0.60426 0.89771 0.73489 0.0
C310 C 0.71407 0.9229 0.75659 0.0
C311 C 0.73515 0.94858 0.75912 0.0
C312 C 0.77542 0.9526 0.77425 0.0
C313 C 0.78862 0.98137 0.77991 0.0
C314 C 0.82781 0.98668 0.79208 0.0
C315 C 0.85496 0.9633 0.79884 0.0
H316 H 0.79363 0.90657 0.77738 0.0
C317 C 0.84129 0.93439 0.79401 0.0
C318 C 0.80202 0.92906 0.78173 0.0
H319 H 0.8616 0.91589 0.79883 0.0
H320 H 0.62272 0.95037 0.68867 0.0
H321 H 0.69035 0.95337 0.71193 0.0
H322 H 0.64837 0.8854 0.76513 0.0
H323 H 0.58049 0.8821 0.74159 0.0
H324 H 0.72463 0.90363 0.76731 0.0
H325 H 0.7217 0.96814 0.7501 0.0
H326 H 0.76891 -5e-05 0.77441 0.0
H327 H 0.83727 0.00922 0.79555 0.0
C328 C 0.37647 0.5452 0.70397 0.0
C329 C 0.39482 0.51932 0.6942 0.0
C330 C 0.33701 0.54439 0.71662 0.0
C331 C 0.31505 0.51763 0.71978 0.0
C332 C 0.33252 0.492 0.70908 0.0
C333 C 0.3722 0.49276 0.69658 0.0
C334 C 0.27349 0.51592 0.73358 0.0
C335 C 0.26311 0.53404 0.75333 0.0
C336 C 0.22092 0.53374 0.76658 0.0
C337 C 0.20735 0.55928 0.77938 0.0
C338 C 0.16682 0.56068 0.79069 0.0
C339 C 0.1391 0.53643 0.78959 0.0
H340 H 0.20378 0.48845 0.7579 0.0
C341 C 0.15343 0.51037 0.77791 0.0
C342 C 0.19396 0.50896 0.76659 0.0
H343 H 0.13304 0.49115 0.77705 0.0
H344 H 0.39289 0.56607 0.70225 0.0
H345 H 0.32373 0.56479 0.72371 0.0
H346 H 0.31589 0.47121 0.71092 0.0
H347 H 0.38534 0.47247 0.6891 0.0
H348 H 0.25137 0.49901 0.72728 0.0
H349 H 0.28585 0.55065 0.75955 0.0
H350 H 0.22769 0.57855 0.77998 0.0
H351 H 0.15687 0.58104 0.79971 0.0
C352 C 0.6549 0.05582 0.3003 0.0
C353 C 0.63506 0.03001 0.30936 0.0
C354 C 0.69489 0.05463 0.28819 0.0
C355 C 0.71578 0.02753 0.28485 0.0
C356 C 0.69668 0.00197 0.29487 0.0
C357 C 0.65668 0.00314 0.30687 0.0
C358 C 0.75765 0.02501 0.27143 0.0
C359 C 0.77162 0.04436 0.25334 0.0
C360 C 0.81321 0.0414 0.23955 0.0
C361 C 0.81933 0.05639 0.21579 0.0
C362 C 0.85836 0.05466 0.20255 0.0
C363 C 0.89212 0.03795 0.21291 0.0
H364 H 0.84461 0.01373 0.26856 0.0
C365 C 0.886 0.02296 0.23665 0.0
C366 C 0.8472 0.02481 0.24992 0.0
H367 H 0.91153 0.01018 0.24537 0.0
H368 H 0.63924 0.07692 0.30213 0.0
H369 H 0.70926 0.07497 0.28161 0.0
H370 H 0.71233 0.98087 0.2929 0.0
H371 H 0.64242 0.98287 0.31379 0.0
H372 H 0.7762 0.00541 0.27557 0.0
H373 H 0.75111 0.06244 0.24745 0.0
H374 H 0.79386 0.06953 0.20744 0.0
H375 H 0.86216 0.06661 0.18437 0.0
C376 C 0.14933 0.47388 0.21944 0.0
C377 C 0.13555 0.46114 0.19595 0.0
C378 C 0.18952 0.46726 0.2297 0.0
C379 C 0.2168 0.4476 0.21672 0.0
C380 C 0.20366 0.43566 0.1928 0.0
C381 C 0.1633 0.44219 0.18256 0.0
C382 C 0.25959 0.43995 0.22723 0.0
C383 C 0.26851 0.43985 0.25299 0.0
C384 C 0.3119 0.43461 0.26377 0.0
C385 C 0.32215 0.44656 0.28821 0.0
C386 C 0.36348 0.44411 0.29829 0.0
C387 C 0.39536 0.42937 0.2842 0.0
H388 H 0.33619 0.40803 0.23185 0.0
C389 C 0.38456 0.41602 0.26038 0.0
C390 C 0.34323 0.41856 0.25026 0.0
H391 H 0.40828 0.40418 0.2492 0.0
H392 H 0.12892 0.48881 0.23012 0.0
H393 H 0.19918 0.47787 0.24764 0.0
H394 H 0.22435 0.42081 0.18222 0.0
H395 H 0.1537 0.43213 0.16434 0.0
H396 H 0.28414 0.43434 0.21316 0.0
H397 H 0.24354 0.44524 0.26688 0.0
H398 H 0.29846 0.45869 0.2992 0.0
H399 H 0.37065 0.45444 0.31681 0.0
C400 C 0.0374 0.04465 0.05815 0.0
C401 C 0.00926 0.04138 0.07936 0.0
C402 C 0.02603 0.03478 0.0334 0.0
C403 C 0.98624 0.0213 0.02913 0.0
C404 C 0.95694 0.01954 0.04981 0.0
C405 C 0.96845 0.02931 0.07483 0.0
C406 C 0.97614 0.00843 0.00325 0.0
C407 C 0.00622 0.99322 0.99027 0.0
C408 C 0.00275 0.98228 0.96306 0.0
C409 C 0.03488 0.96326 0.95431 0.0
C410 C 0.03831 0.9562 0.928 0.0
C411 C 0.00953 0.96786 0.90965 0.0
H412 H 0.94712 0.00753 0.95091 0.0
C413 C 0.97541 0.98526 0.91846 0.0
C414 C 0.97214 0.99261 0.945 0.0
H415 H 0.95285 0.99461 0.90468 0.0
H416 H 0.06881 0.05426 0.06069 0.0
H417 H 0.04878 0.03734 0.01762 0.0
H418 H 0.92585 0.00958 0.04686 0.0
H419 H 0.94586 0.02671 0.09067 0.0
H420 H 0.94416 0.011 -0.00463 0.0
H421 H 0.03646 0.98904 0.00014 0.0
H422 H 0.05876 0.95483 0.96773 0.0
H423 H 0.06463 0.9424 0.92186 0.0
C424 C 0.03623 0.52767 0.90975 0.0
C425 C -0.00413 0.52803 0.89766 0.0
C426 C 0.04277 0.51102 0.93251 0.0
C427 C 0.0093 0.49397 0.94292 0.0
C428 C 0.96969 0.49352 0.93016 0.0
C429 C 0.96282 0.51069 0.90801 0.0
C430 C 0.01331 0.47715 0.96755 0.0
C431 C 0.03255 0.48813 0.98892 0.0
C432 C 0.02454 0.47635 0.01562 0.0
C433 C 0.05287 0.48336 0.03598 0.0
C434 C 0.04308 0.47595 0.06188 0.0
C435 C 0.00438 0.46173 0.06791 0.0
H436 H 0.9629 0.45614 0.00698 0.0
C437 C 0.97678 0.45387 0.04745 0.0
C438 C 0.98655 0.46117 0.02171 0.0
H439 H 0.9467 0.44289 0.05134 0.0
H440 H 0.06225 0.54075 0.90198 0.0
H441 H 0.07383 0.51141 0.94186 0.0
H442 H 0.94347 0.4805 0.93781 0.0
H443 H 0.93158 0.51024 0.89886 0.0
H444 H -0.00539 0.45713 0.96899 0.0
H445 H 0.05157 0.50804 0.98725 0.0
H446 H 0.08209 0.49532 0.03192 0.0
H447 H 0.065 0.4824 0.07721 0.0
C448 C 0.5384 0.44886 0.43314 0.0
C449 C 0.51758 0.46016 0.41098 0.0
C450 C 0.52658 0.45804 0.45808 0.0
C451 C 0.49411 0.47907 0.46128 0.0
C452 C 0.47228 0.48955 0.4392 0.0
C453 C 0.48345 0.47985 0.41426 0.0
C454 C 0.48726 0.49342 0.4868 0.0
C455 C 0.49276 0.47934 0.50967 0.0
C456 C 0.4983 0.49536 0.53453 0.0
C457 C 0.48441 0.48264 0.55804 0.0
C458 C 0.49475 0.49562 0.58195 0.0
C459 C 0.5204 0.52096 0.58265 0.0
H460 H 0.53425 0.53151 0.51751 0.0
C461 C 0.53341 0.53405 0.55912 0.0
C462 C 0.52216 0.52154 0.53527 0.0
H463 H 0.55324 0.55358 0.55918 0.0
H464 H 0.56476 0.43362 0.43115 0.0
H465 H 0.54473 0.45003 0.47465 0.0
H466 H 0.44749 0.506 0.44119 0.0
H467 H 0.467 0.48905 0.3975 0.0
H468 H 0.4802 0.5168 0.48671 0.0
H469 H 0.49593 0.45557 0.51007 0.0
H470 H 0.46644 0.46228 0.55791 0.0
H471 H 0.48464 0.485 0.59989 0.0
C472 C 0.48914 0.93808 0.55546 0.0
C473 C 0.50071 0.95291 0.57839 0.0
C474 C 0.5035 0.94804 0.5312 0.0
C475 C 0.52851 0.97353 0.52936 0.0
C476 C 0.54209 0.9875 0.55239 0.0
C477 C 0.52863 0.97703 0.57679 0.0
C478 C 0.53638 0.98634 0.50317 0.0
C479 C 0.53118 0.01523 0.49849 0.0
C480 C 0.5248 0.02687 0.4717 0.0
C481 C 0.49319 0.04822 0.46757 0.0
C482 C 0.48179 0.05665 0.44226 0.0
C483 C 0.50261 0.04444 0.42058 0.0
H484 H 0.57225 -0.00043 0.45277 0.0
C485 C 0.53634 0.02457 0.42476 0.0
C486 C 0.54713 0.01566 0.45011 0.0
H487 H 0.55307 0.01489 0.40841 0.0
H488 H 0.46785 0.9193 0.55624 0.0
H489 H 0.49284 0.93684 0.51372 0.0
H490 H 0.56199 0.00696 0.55148 0.0
H491 H 0.53793 0.98884 0.59422 0.0
H492 H 0.53863 0.97125 0.48682 0.0
H493 H 0.52408 0.02981 0.51469 0.0
H494 H 0.47573 0.0573 0.48392 0.0
H495 H 0.456 0.07225 0.43965 0.0
loop_
_geom_bond_atom_site_label_1
_geom_bond_atom_site_label_2
_geom_bond_distance
_geom_bond_site_symmetry_2
_ccdc_geom_bond_type
Mg0 O1 2.028 . S
Mg0 O7 1.986 . S
Mg0 O9 2.114 . S
Mg0 O10 2.251 . S
Mg0 O13 2.010 1_455 S
O1 Mg0 2.028 . S
O1 C4 1.250 . S
O2 Mg3 2.028 . S
O2 C4 1.248 . S
Mg3 O2 2.028 . S
Mg3 O8 2.032 . S
Mg3 O10 2.079 . S
C4 O1 1.250 . S
C4 O2 1.248 . S
C5 O6 1.264 . S
C5 O13 1.249 . S
O6 C5 1.264 . S
O7 Mg0 1.986 . S
O7 C11 1.246 . S
O8 Mg3 2.032 . S
O8 C11 1.259 . S
O9 Mg0 2.114 . S
O9 C12 1.252 . S
O10 Mg0 2.251 . S
O10 Mg3 2.079 . S
O10 C12 1.273 . S
C11 O7 1.246 . S
C11 O8 1.259 . S
C12 O9 1.252 . S
C12 O10 1.273 . S
O13 Mg0 2.010 1_655 S
O13 C5 1.249 . S
Mg14 O15 2.028 . S
Mg14 O21 1.986 . S
Mg14 O23 2.114 1_455 S
Mg14 O24 2.251 1_455 S
Mg14 O27 2.010 . S
O15 Mg14 2.028 . S
O15 C18 1.250 . S
O16 Mg17 2.028 . S
O16 C18 1.248 1_655 S
Mg17 O16 2.028 . S
Mg17 O22 2.032 . S
Mg17 O24 2.079 . S
C18 O15 1.250 . S
C18 O16 1.248 1_455 S
C19 O20 1.264 . S
C19 O27 1.249 . S
O20 C19 1.264 . S
O21 Mg14 1.986 . S
O21 C25 1.260 . S
O22 Mg17 2.032 . S
O22 C25 1.239 1_655 S
O23 Mg14 2.114 1_655 S
O23 C26 1.252 . S
O24 Mg14 2.251 1_655 S
O24 Mg17 2.079 . S
O24 C26 1.273 . S
C25 O21 1.260 . S
C25 O22 1.239 1_455 S
C26 O23 1.252 . S
C26 O24 1.273 . S
O27 Mg14 2.010 . S
O27 C19 1.249 . S
Mg28 O29 2.028 . S
Mg28 O35 1.986 . S
Mg28 O37 2.114 . S
Mg28 O38 2.251 . S
Mg28 O41 2.010 1_455 S
O29 Mg28 2.028 . S
O29 C32 1.250 . S
O30 Mg31 2.028 . S
O30 C32 1.248 . S
Mg31 O30 2.028 . S
Mg31 O36 2.032 . S
Mg31 O38 2.079 . S
C32 O29 1.250 . S
C32 O30 1.248 . S
C33 O34 1.264 . S
C33 O41 1.249 . S
O34 C33 1.264 . S
O35 Mg28 1.986 . S
O35 C39 1.246 . S
O36 Mg31 2.032 . S
O36 C39 1.259 . S
O37 Mg28 2.114 . S
O37 C40 1.252 . S
O38 Mg28 2.251 . S
O38 Mg31 2.079 . S
O38 C40 1.273 . S
C39 O35 1.246 . S
C39 O36 1.259 . S
C40 O37 1.252 . S
C40 O38 1.273 . S
O41 Mg28 2.010 1_655 S
O41 C33 1.249 . S
Mg42 O43 2.028 . S
Mg42 O49 1.986 . S
Mg42 O51 2.114 1_455 S
Mg42 O52 2.251 1_455 S
Mg42 O55 2.010 . S
O43 Mg42 2.028 . S
O43 C46 1.250 . S
O44 Mg45 2.028 . S
O44 C46 1.248 1_655 S
Mg45 O44 2.028 . S
Mg45 O50 2.032 . S
Mg45 O52 2.079 . S
C46 O43 1.250 . S
C46 O44 1.248 1_455 S
C47 O48 1.264 . S
C47 O55 1.249 . S
O48 C47 1.264 . S
O49 Mg42 1.986 . S
O49 C53 1.260 . S
O50 Mg45 2.032 . S
O50 C53 1.239 1_655 S
O51 Mg42 2.114 1_655 S
O51 C54 1.252 . S
O52 Mg42 2.251 1_655 S
O52 Mg45 2.079 . S
O52 C54 1.273 . S
C53 O49 1.260 . S
C53 O50 1.239 1_455 S
C54 O51 1.252 . S
C54 O52 1.273 . S
O55 Mg42 2.010 . S
O55 C47 1.249 . S
Mg56 O57 2.028 . S
Mg56 O63 1.986 . S
Mg56 O65 2.114 . S
Mg56 O66 2.251 . S
Mg56 O69 2.010 . S
O57 Mg56 2.028 . S
O57 C60 1.250 . S
O58 Mg59 2.028 . S
O58 C60 1.248 . S
Mg59 O58 2.028 . S
Mg59 O64 2.032 . S
Mg59 O66 2.079 . S
C60 O57 1.250 . S
C60 O58 1.248 . S
C61 O62 1.264 . S
C61 O69 1.249 . S
O62 C61 1.264 . S
O63 Mg56 1.986 . S
O63 C67 1.246 . S
O64 Mg59 2.032 . S
O64 C67 1.259 . S
O65 Mg56 2.114 . S
O65 C68 1.252 . S
O66 Mg56 2.251 . S
O66 Mg59 2.079 . S
O66 C68 1.273 . S
C67 O63 1.246 . S
C67 O64 1.259 . S
C68 O65 1.252 . S
C68 O66 1.273 . S
O69 Mg56 2.010 . S
O69 C61 1.249 . S
Mg70 O71 2.028 . S
Mg70 O77 1.986 . S
Mg70 O79 2.114 . S
Mg70 O80 2.251 . S
Mg70 O83 2.010 . S
O71 Mg70 2.028 . S
O71 C74 1.250 . S
O72 Mg73 2.028 . S
O72 C74 1.248 . S
Mg73 O72 2.028 . S
Mg73 O78 2.032 . S
Mg73 O80 2.079 . S
C74 O71 1.250 . S
C74 O72 1.248 . S
C75 O76 1.264 . S
C75 O83 1.249 . S
O76 C75 1.264 . S
O77 Mg70 1.986 . S
O77 C81 1.246 . S
O78 Mg73 2.032 . S
O78 C81 1.259 . S
O79 Mg70 2.114 . S
O79 C82 1.252 . S
O80 Mg70 2.251 . S
O80 Mg73 2.079 . S
O80 C82 1.273 . S
C81 O77 1.246 . S
C81 O78 1.259 . S
C82 O79 1.252 . S
C82 O80 1.273 . S
O83 Mg70 2.010 . S
O83 C75 1.249 . S
Mg84 O85 2.028 . S
Mg84 O91 1.986 . S
Mg84 O93 2.114 . S
Mg84 O94 2.251 . S
Mg84 O97 2.010 . S
O85 Mg84 2.028 . S
O85 C88 1.250 . S
O86 Mg87 2.028 . S
O86 C88 1.248 . S
Mg87 O86 2.028 . S
Mg87 O92 2.032 . S
Mg87 O94 2.079 . S
C88 O85 1.250 . S
C88 O86 1.248 . S
C89 O90 1.264 . S
C89 O97 1.249 . S
O90 C89 1.264 . S
O91 Mg84 1.986 . S
O91 C95 1.246 . S
O92 Mg87 2.032 . S
O92 C95 1.259 . S
O93 Mg84 2.114 . S
O93 C96 1.252 . S
O94 Mg84 2.251 . S
O94 Mg87 2.079 . S
O94 C96 1.273 . S
C95 O91 1.246 . S
C95 O92 1.259 . S
C96 O93 1.252 . S
C96 O94 1.273 . S
O97 Mg84 2.010 . S
O97 C89 1.249 . S
Mg98 O99 2.028 . S
Mg98 O105 1.986 . S
Mg98 O107 2.114 . S
Mg98 O108 2.251 . S
Mg98 O111 2.010 . S
O99 Mg98 2.028 . S
O99 C102 1.250 . S
O100 Mg101 2.028 . S
O100 C102 1.248 . S
Mg101 O100 2.028 . S
Mg101 O106 2.032 . S
Mg101 O108 2.079 . S
C102 O99 1.250 . S
C102 O100 1.248 . S
C103 O104 1.264 . S
C103 O111 1.249 . S
O104 C103 1.264 . S
O105 Mg98 1.986 . S
O105 C109 1.246 . S
O106 Mg101 2.032 . S
O106 C109 1.259 . S
O107 Mg98 2.114 . S
O107 C110 1.252 . S
O108 Mg98 2.251 . S
O108 Mg101 2.079 . S
O108 C110 1.273 . S
C109 O105 1.246 . S
C109 O106 1.259 . S
C110 O107 1.252 . S
C110 O108 1.273 . S
O111 Mg98 2.010 . S
O111 C103 1.249 . S
C112 C113 1.386 1_655 S
C112 C114 1.383 . S
C112 H128 0.951 . S
C113 C112 1.386 1_455 S
C113 C117 1.383 . S
C114 C112 1.383 . S
C114 C115 1.402 1_655 S
C114 H129 0.951 . S
C115 C114 1.402 1_455 S
C115 C116 1.375 . S
C115 C118 1.481 . S
C116 C115 1.375 . S
C116 C117 1.367 . S
C116 H130 0.951 . S
C117 C113 1.383 . S
C117 C116 1.367 . S
C117 H131 0.950 . S
C118 C115 1.481 . S
C118 C119 1.297 1_455 S
C118 H132 0.950 . S
C119 C118 1.297 1_655 S
C119 C120 1.479 1_655 S
C119 H133 0.950 . S
C120 C119 1.479 1_455 S
C120 C121 1.375 1_455 S
C120 C126 1.404 . S
C121 C120 1.375 1_655 S
C121 C122 1.369 . S
C121 H134 0.950 . S
C122 C121 1.369 . S
C122 C123 1.392 1_655 S
C122 H135 0.951 . S
C123 C122 1.392 1_455 S
C123 C125 1.384 . S
H124 C126 0.949 . S
C125 C123 1.384 . S
C125 C126 1.385 . S
C125 H127 0.950 . S
C126 C120 1.404 . S
C126 H124 0.949 . S
C126 C125 1.385 . S
H127 C125 0.950 . S
H128 C112 0.951 . S
H129 C114 0.951 . S
H130 C116 0.951 . S
H131 C117 0.950 . S
H132 C118 0.950 . S
H133 C119 0.950 . S
H134 C121 0.950 . S
H135 C122 0.951 . S
C136 C137 1.386 . S
C136 C138 1.383 . S
C136 H152 0.951 . S
C137 C136 1.386 . S
C137 C141 1.383 . S
C138 C136 1.383 . S
C138 C139 1.402 . S
C138 H153 0.951 1_455 S
C139 C138 1.402 . S
C139 C140 1.375 . S
C139 C142 1.481 . S
C140 C139 1.375 . S
C140 C141 1.367 . S
C140 H154 0.951 . S
C141 C137 1.383 . S
C141 C140 1.367 . S
C141 H155 0.950 . S
C142 C139 1.481 . S
C142 C143 1.297 1_455 S
C142 H156 0.950 . S
C143 C142 1.297 1_655 S
C143 C144 1.479 . S
C143 H157 0.950 . S
C144 C143 1.479 . S
C144 C145 1.375 . S
C144 C150 1.404 1_655 S
C145 C144 1.375 . S
C145 C146 1.369 . S
C145 H158 0.950 . S
C146 C145 1.369 . S
C146 C147 1.392 1_655 S
C146 H159 0.951 . S
C147 C146 1.392 1_455 S
C147 C149 1.384 . S
H148 C150 0.949 . S
C149 C147 1.384 . S
C149 C150 1.385 . S
C149 H151 0.950 . S
C150 C144 1.404 1_455 S
C150 H148 0.949 . S
C150 C149 1.385 . S
H151 C149 0.950 . S
H152 C136 0.951 . S
H153 C138 0.951 1_655 S
H154 C140 0.951 . S
H155 C141 0.950 . S
H156 C142 0.950 . S
H157 C143 0.950 . S
H158 C145 0.950 . S
H159 C146 0.951 . S
C160 C161 1.386 . S
C160 C162 1.383 . S
C160 H176 0.951 . S
C161 C160 1.386 . S
C161 C165 1.383 . S
C162 C160 1.383 . S
C162 C163 1.402 . S
C162 H177 0.951 . S
C163 C162 1.402 . S
C163 C164 1.375 . S
C163 C166 1.481 . S
C164 C163 1.375 . S
C164 C165 1.367 . S
C164 H178 0.951 . S
C165 C161 1.383 . S
C165 C164 1.367 . S
C165 H179 0.950 . S
C166 C163 1.481 . S
C166 C167 1.297 . S
C166 H180 0.950 . S
C167 C166 1.297 . S
C167 C168 1.479 . S
C167 H181 0.950 . S
C168 C167 1.479 . S
C168 C169 1.375 . S
C168 C174 1.404 . S
C169 C168 1.375 . S
C169 C170 1.369 . S
C169 H182 0.950 . S
C170 C169 1.369 . S
C170 C171 1.392 . S
C170 H183 0.951 . S
C171 C170 1.392 . S
C171 C173 1.384 . S
H172 C174 0.949 . S
C173 C171 1.384 . S
C173 C174 1.385 . S
C173 H175 0.950 . S
C174 C168 1.404 . S
C174 H172 0.949 . S
C174 C173 1.385 . S
H175 C173 0.950 . S
H176 C160 0.951 . S
H177 C162 0.951 . S
H178 C164 0.951 . S
H179 C165 0.950 . S
H180 C166 0.950 . S
H181 C167 0.950 . S
H182 C169 0.950 . S
H183 C170 0.951 . S
C184 C185 1.386 . S
C184 C186 1.383 . S
C184 H200 0.951 . S
C185 C184 1.386 . S
C185 C189 1.383 . S
C186 C184 1.383 . S
C186 C187 1.402 . S
C186 H201 0.951 . S
C187 C186 1.402 . S
C187 C188 1.375 . S
C187 C190 1.481 . S
C188 C187 1.375 . S
C188 C189 1.367 . S
C188 H202 0.951 . S
C189 C185 1.383 . S
C189 C188 1.367 . S
C189 H203 0.950 . S
C190 C187 1.481 . S
C190 C191 1.297 . S
C190 H204 0.950 . S
C191 C190 1.297 . S
C191 C192 1.479 . S
C191 H205 0.950 . S
C192 C191 1.479 . S
C192 C193 1.375 . S
C192 C198 1.404 . S
C193 C192 1.375 . S
C193 C194 1.369 . S
C193 H206 0.950 . S
C194 C193 1.369 . S
C194 C195 1.392 . S
C194 H207 0.951 . S
C195 C194 1.392 . S
C195 C197 1.384 . S
H196 C198 0.949 . S
C197 C195 1.384 . S
C197 C198 1.385 . S
C197 H199 0.950 . S
C198 C192 1.404 . S
C198 H196 0.949 . S
C198 C197 1.385 . S
H199 C197 0.950 . S
H200 C184 0.951 . S
H201 C186 0.951 . S
H202 C188 0.951 . S
H203 C189 0.950 . S
H204 C190 0.950 . S
H205 C191 0.950 . S
H206 C193 0.950 . S
H207 C194 0.951 . S
C208 C209 1.386 . S
C208 C210 1.383 . S
C208 H224 0.951 . S
C209 C208 1.386 . S
C209 C213 1.383 . S
C210 C208 1.383 . S
C210 C211 1.402 . S
C210 H225 0.951 . S
C211 C210 1.402 . S
C211 C212 1.375 . S
C211 C214 1.481 . S
C212 C211 1.375 . S
C212 C213 1.367 . S
C212 H226 0.951 . S
C213 C209 1.383 . S
C213 C212 1.367 . S
C213 H227 0.950 . S
C214 C211 1.481 . S
C214 C215 1.297 . S
C214 H228 0.950 . S
C215 C214 1.297 . S
C215 C216 1.479 . S
C215 H229 0.950 . S
C216 C215 1.479 . S
C216 C217 1.375 . S
C216 C222 1.404 . S
C217 C216 1.375 . S
C217 C218 1.369 . S
C217 H230 0.950 . S
C218 C217 1.369 . S
C218 C219 1.392 . S
C218 H231 0.951 . S
C219 C218 1.392 . S
C219 C221 1.384 . S
H220 C222 0.949 . S
C221 C219 1.384 . S
C221 C222 1.385 . S
C221 H223 0.950 . S
C222 C216 1.404 . S
C222 H220 0.949 . S
C222 C221 1.385 . S
H223 C221 0.950 . S
H224 C208 0.951 . S
H225 C210 0.951 . S
H226 C212 0.951 . S
H227 C213 0.950 . S
H228 C214 0.950 . S
H229 C215 0.950 . S
H230 C217 0.950 . S
H231 C218 0.951 . S
C232 C233 1.386 . S
C232 C234 1.383 . S
C232 H248 0.951 . S
C233 C232 1.386 . S
C233 C237 1.383 . S
C234 C232 1.383 . S
C234 C235 1.402 . S
C234 H249 0.951 . S
C235 C234 1.402 . S
C235 C236 1.375 . S
C235 C238 1.481 . S
C236 C235 1.375 . S
C236 C237 1.367 . S
C236 H250 0.951 . S
C237 C233 1.383 . S
C237 C236 1.367 . S
C237 H251 0.950 . S
C238 C235 1.481 . S
C238 C239 1.297 . S
C238 H252 0.950 . S
C239 C238 1.297 . S
C239 C240 1.479 . S
C239 H253 0.950 . S
C240 C239 1.479 . S
C240 C241 1.375 . S
C240 C246 1.404 . S
C241 C240 1.375 . S
C241 C242 1.369 . S
C241 H254 0.950 . S
C242 C241 1.369 . S
C242 C243 1.392 . S
C242 H255 0.951 . S
C243 C242 1.392 . S
C243 C245 1.384 . S
H244 C246 0.949 . S
C245 C243 1.384 . S
C245 C246 1.385 . S
C245 H247 0.950 . S
C246 C240 1.404 . S
C246 H244 0.949 . S
C246 C245 1.385 . S
H247 C245 0.950 . S
H248 C232 0.951 . S
H249 C234 0.951 . S
H250 C236 0.951 . S
H251 C237 0.950 . S
H252 C238 0.950 . S
H253 C239 0.950 . S
H254 C241 0.950 . S
H255 C242 0.951 . S
C256 C257 1.386 . S
C256 C258 1.383 . S
C256 H272 0.951 . S
C257 C256 1.386 . S
C257 C261 1.383 . S
C258 C256 1.383 . S
C258 C259 1.402 . S
C258 H273 0.951 . S
C259 C258 1.402 . S
C259 C260 1.375 . S
C259 C262 1.481 . S
C260 C259 1.375 . S
C260 C261 1.367 . S
C260 H274 0.927 1_565 S
C261 C257 1.383 . S
C261 C260 1.367 . S
C261 H275 0.950 . S
C262 C259 1.481 . S
C262 C263 1.297 . S
C262 H276 0.950 . S
C263 C262 1.297 . S
C263 C264 1.479 . S
C263 H277 0.950 . S
C264 C263 1.479 . S
C264 C265 1.375 . S
C264 C270 1.404 . S
C265 C264 1.375 . S
C265 C266 1.369 . S
C265 H278 0.950 . S
C266 C265 1.369 . S
C266 C267 1.392 . S
C266 H279 0.951 . S
C267 C266 1.392 . S
C267 C269 1.384 . S
H268 C270 0.949 . S
C269 C267 1.384 . S
C269 C270 1.385 . S
C269 H271 0.950 . S
C270 C264 1.404 . S
C270 H268 0.949 . S
C270 C269 1.385 . S
H271 C269 0.950 . S
H272 C256 0.951 . S
H273 C258 0.951 . S
H274 C260 0.927 1_545 S
H275 C261 0.950 . S
H276 C262 0.950 . S
H277 C263 0.950 . S
H278 C265 0.950 . S
H279 C266 0.951 . S
C280 C281 1.386 . S
C280 C282 1.383 . S
C280 H296 0.951 . S
C281 C280 1.386 . S
C281 C285 1.383 . S
C282 C280 1.383 . S
C282 C283 1.402 . S
C282 H297 0.951 . S
C283 C282 1.402 . S
C283 C284 1.375 . S
C283 C286 1.481 . S
C284 C283 1.375 . S
C284 C285 1.367 . S
C284 H298 0.951 . S
C285 C281 1.383 . S
C285 C284 1.367 . S
C285 H299 0.950 . S
C286 C283 1.481 . S
C286 C287 1.297 . S
C286 H300 0.950 . S
C287 C286 1.297 . S
C287 C288 1.479 . S
C287 H301 0.950 . S
C288 C287 1.479 . S
C288 C289 1.375 . S
C288 C294 1.404 . S
C289 C288 1.375 . S
C289 C290 1.369 . S
C289 H302 0.950 . S
C290 C289 1.369 . S
C290 C291 1.392 . S
C290 H303 0.951 . S
C291 C290 1.392 . S
C291 C293 1.384 . S
H292 C294 0.949 . S
C293 C291 1.384 . S
C293 C294 1.385 . S
C293 H295 0.950 . S
C294 C288 1.404 . S
C294 H292 0.949 . S
C294 C293 1.385 . S
H295 C293 0.950 . S
H296 C280 0.951 . S
H297 C282 0.951 . S
H298 C284 0.951 . S
H299 C285 0.950 . S
H300 C286 0.950 . S
H301 C287 0.950 . S
H302 C289 0.950 . S
H303 C290 0.951 . S
C304 C305 1.386 . S
C304 C306 1.383 . S
C304 H320 0.951 . S
C305 C304 1.386 . S
C305 C309 1.383 . S
C306 C304 1.383 . S
C306 C307 1.402 . S
C306 H321 0.951 . S
C307 C306 1.402 . S
C307 C308 1.375 . S
C307 C310 1.481 . S
C308 C307 1.375 . S
C308 C309 1.367 . S
C308 H322 0.951 . S
C309 C305 1.383 . S
C309 C308 1.367 . S
C309 H323 0.950 . S
C310 C307 1.481 . S
C310 C311 1.297 . S
C310 H324 0.950 . S
C311 C310 1.297 . S
C311 C312 1.479 . S
C311 H325 0.950 . S
C312 C311 1.479 . S
C312 C313 1.375 . S
C312 C318 1.404 . S
C313 C312 1.375 . S
C313 C314 1.369 . S
C313 H326 0.950 . S
C314 C313 1.369 . S
C314 C315 1.392 . S
C314 H327 0.951 . S
C315 C314 1.392 . S
C315 C317 1.384 . S
H316 C318 0.949 . S
C317 C315 1.384 . S
C317 C318 1.385 . S
C317 H319 0.950 . S
C318 C312 1.404 . S
C318 H316 0.949 . S
C318 C317 1.385 . S
H319 C317 0.950 . S
H320 C304 0.951 . S
H321 C306 0.951 . S
H322 C308 0.951 . S
H323 C309 0.950 . S
H324 C310 0.950 . S
H325 C311 0.950 . S
H326 C313 0.950 . S
H327 C314 0.951 . S
C328 C329 1.386 . S
C328 C330 1.383 . S
C328 H344 0.951 . S
C329 C328 1.386 . S
C329 C333 1.383 . S
C330 C328 1.383 . S
C330 C331 1.402 . S
C330 H345 0.951 . S
C331 C330 1.402 . S
C331 C332 1.375 . S
C331 C334 1.481 . S
C332 C331 1.375 . S
C332 C333 1.367 . S
C332 H346 0.951 . S
C333 C329 1.383 . S
C333 C332 1.367 . S
C333 H347 0.950 . S
C334 C331 1.481 . S
C334 C335 1.297 . S
C334 H348 0.950 . S
C335 C334 1.297 . S
C335 C336 1.479 . S
C335 H349 0.950 . S
C336 C335 1.479 . S
C336 C337 1.375 . S
C336 C342 1.404 . S
C337 C336 1.375 . S
C337 C338 1.369 . S
C337 H350 0.950 . S
C338 C337 1.369 . S
C338 C339 1.392 . S
C338 H351 0.951 . S
C339 C338 1.392 . S
C339 C341 1.384 . S
H340 C342 0.949 . S
C341 C339 1.384 . S
C341 C342 1.385 . S
C341 H343 0.950 . S
C342 C336 1.404 . S
C342 H340 0.949 . S
C342 C341 1.385 . S
H343 C341 0.950 . S
H344 C328 0.951 . S
H345 C330 0.951 . S
H346 C332 0.951 . S
H347 C333 0.950 . S
H348 C334 0.950 . S
H349 C335 0.950 . S
H350 C337 0.950 . S
H351 C338 0.951 . S
C352 C353 1.386 . S
C352 C354 1.383 . S
C352 H368 0.951 . S
C353 C352 1.386 . S
C353 C357 1.383 . S
C354 C352 1.383 . S
C354 C355 1.402 . S
C354 H369 0.951 . S
C355 C354 1.402 . S
C355 C356 1.375 . S
C355 C358 1.481 . S
C356 C355 1.375 . S
C356 C357 1.367 . S
C356 H370 0.951 1_545 S
C357 C353 1.383 . S
C357 C356 1.367 . S
C357 H371 0.950 . S
C358 C355 1.481 . S
C358 C359 1.297 . S
C358 H372 0.950 . S
C359 C358 1.297 . S
C359 C360 1.479 . S
C359 H373 0.950 . S
C360 C359 1.479 . S
C360 C361 1.375 . S
C360 C366 1.404 . S
C361 C360 1.375 . S
C361 C362 1.369 . S
C361 H374 0.950 . S
C362 C361 1.369 . S
C362 C363 1.392 . S
C362 H375 0.951 . S
C363 C362 1.392 . S
C363 C365 1.384 . S
H364 C366 0.949 . S
C365 C363 1.384 . S
C365 C366 1.385 . S
C365 H367 0.950 . S
C366 C360 1.404 . S
C366 H364 0.949 . S
C366 C365 1.385 . S
H367 C365 0.950 . S
H368 C352 0.951 . S
H369 C354 0.951 . S
H370 C356 0.951 1_565 S
H371 C357 0.950 . S
H372 C358 0.950 . S
H373 C359 0.950 . S
H374 C361 0.950 . S
H375 C362 0.951 . S
C376 C377 1.386 . S
C376 C378 1.383 . S
C376 H392 0.951 . S
C377 C376 1.386 . S
C377 C381 1.383 . S
C378 C376 1.383 . S
C378 C379 1.402 . S
C378 H393 0.951 . S
C379 C378 1.402 . S
C379 C380 1.375 . S
C379 C382 1.481 . S
C380 C379 1.375 . S
C380 C381 1.367 . S
C380 H394 0.951 . S
C381 C377 1.383 . S
C381 C380 1.367 . S
C381 H395 0.950 . S
C382 C379 1.481 . S
C382 C383 1.297 . S
C382 H396 0.950 . S
C383 C382 1.297 . S
C383 C384 1.479 . S
C383 H397 0.950 . S
C384 C383 1.479 . S
C384 C385 1.375 . S
C384 C390 1.404 . S
C385 C384 1.375 . S
C385 C386 1.369 . S
C385 H398 0.950 . S
C386 C385 1.369 . S
C386 C387 1.392 . S
C386 H399 0.951 . S
C387 C386 1.392 . S
C387 C389 1.384 . S
H388 C390 0.949 . S
C389 C387 1.384 . S
C389 C390 1.385 . S
C389 H391 0.950 . S
C390 C384 1.404 . S
C390 H388 0.949 . S
C390 C389 1.385 . S
H391 C389 0.950 . S
H392 C376 0.951 . S
H393 C378 0.951 . S
H394 C380 0.951 . S
H395 C381 0.950 . S
H396 C382 0.950 . S
H397 C383 0.950 . S
H398 C385 0.950 . S
H399 C386 0.951 . S
C400 C401 1.386 . S
C400 C402 1.383 . S
C400 H416 0.951 . S
C401 C400 1.386 . S
C401 C405 1.393 . S
C402 C400 1.383 . S
C402 C403 1.402 . S
C402 H417 0.951 . S
C403 C402 1.402 . S
C403 C404 1.378 1_545 S
C403 C406 1.481 1_545 S
C404 C403 1.378 1_565 S
C404 C405 1.367 1_565 S
C404 H418 0.948 1_455 S
C405 C401 1.393 . S
C405 C404 1.367 1_545 S
C405 H419 0.940 1_445 S
C406 C403 1.481 1_565 S
C406 C407 1.297 1_554 S
C406 H420 0.950 . S
C407 C406 1.297 1_556 S
C407 C408 1.479 . S
C407 H421 0.950 1_565 S
C408 C407 1.479 . S
C408 C409 1.375 . S
C408 C414 1.404 . S
C409 C408 1.375 . S
C409 C410 1.369 . S
C409 H422 0.950 1_565 S
C410 C409 1.369 . S
C410 C411 1.392 . S
C410 H423 0.951 1_565 S
C411 C410 1.392 . S
C411 C413 1.384 . S
H412 C414 0.949 . S
C413 C411 1.384 . S
C413 C414 1.385 . S
C413 H415 0.950 1_455 S
C414 C408 1.404 . S
C414 H412 0.949 . S
C414 C413 1.385 . S
H415 C413 0.950 1_655 S
H416 C400 0.951 . S
H417 C402 0.951 . S
H418 C404 0.948 1_655 S
H419 C405 0.940 1_665 S
H420 C406 0.950 . S
H421 C407 0.950 1_545 S
H422 C409 0.950 1_545 S
H423 C410 0.951 1_545 S
C424 C425 1.386 . S
C424 C426 1.383 . S
C424 H440 0.951 . S
C425 C424 1.386 . S
C425 C429 1.383 1_455 S
C426 C424 1.383 . S
C426 C427 1.402 1_455 S
C426 H441 0.951 . S
C427 C426 1.402 1_655 S
C427 C428 1.375 . S
C427 C430 1.481 . S
C428 C427 1.375 . S
C428 C429 1.367 . S
C428 H442 0.951 . S
C429 C425 1.383 1_655 S
C429 C428 1.367 . S
C429 H443 0.950 . S
C430 C427 1.481 . S
C430 C431 1.297 1_556 S
C430 H444 0.950 . S
C431 C430 1.297 1_554 S
C431 C432 1.479 . S
C431 H445 0.950 . S
C432 C431 1.479 . S
C432 C433 1.375 1_655 S
C432 C438 1.404 . S
C433 C432 1.375 1_455 S
C433 C434 1.369 . S
C433 H446 0.950 . S
C434 C433 1.369 . S
C434 C435 1.392 . S
C434 H447 0.951 . S
C435 C434 1.392 . S
C435 C437 1.384 1_455 S
H436 C438 0.949 . S
C437 C435 1.384 1_655 S
C437 C438 1.385 . S
C437 H439 0.950 . S
C438 C432 1.404 . S
C438 H436 0.949 . S
C438 C437 1.385 . S
H439 C437 0.950 . S
H440 C424 0.951 . S
H441 C426 0.951 . S
H442 C428 0.951 . S
H443 C429 0.950 . S
H444 C430 0.950 . S
H445 C431 0.950 . S
H446 C433 0.950 . S
H447 C434 0.951 . S
C448 C449 1.386 . S
C448 C450 1.383 . S
C448 H464 0.951 . S
C449 C448 1.386 . S
C449 C453 1.383 . S
C450 C448 1.383 . S
C450 C451 1.402 . S
C450 H465 0.951 . S
C451 C450 1.402 . S
C451 C452 1.375 . S
C451 C454 1.481 . S
C452 C451 1.375 . S
C452 C453 1.367 . S
C452 H466 0.951 . S
C453 C449 1.383 . S
C453 C452 1.367 . S
C453 H467 0.950 . S
C454 C451 1.481 . S
C454 C455 1.297 . S
C454 H468 0.950 . S
C455 C454 1.297 . S
C455 C456 1.479 . S
C455 H469 0.950 . S
C456 C455 1.479 . S
C456 C457 1.375 . S
C456 C462 1.404 . S
C457 C456 1.375 . S
C457 C458 1.369 . S
C457 H470 0.950 . S
C458 C457 1.369 . S
C458 C459 1.392 . S
C458 H471 0.951 . S
C459 C458 1.392 . S
C459 C461 1.384 . S
H460 C462 0.949 . S
C461 C459 1.384 . S
C461 C462 1.385 . S
C461 H463 0.950 . S
C462 C456 1.404 . S
C462 H460 0.949 . S
C462 C461 1.385 . S
H463 C461 0.950 . S
H464 C448 0.951 . S
H465 C450 0.951 . S
H466 C452 0.951 . S
H467 C453 0.950 . S
H468 C454 0.950 . S
H469 C455 0.950 . S
H470 C457 0.950 . S
H471 C458 0.951 . S
C472 C473 1.386 . S
C472 C474 1.383 . S
C472 H488 0.951 . S
C473 C472 1.386 . S
C473 C477 1.383 . S
C474 C472 1.383 . S
C474 C475 1.402 . S
C474 H489 0.951 1_565 S
C475 C474 1.402 . S
C475 C476 1.375 . S
C475 C478 1.476 1_565 S
C476 C475 1.375 . S
C476 C477 1.367 . S
C476 H490 0.951 . S
C477 C473 1.383 . S
C477 C476 1.367 . S
C477 H491 0.950 . S
C478 C475 1.476 1_545 S
C478 C479 1.306 . S
C478 H492 0.945 1_545 S
C479 C478 1.306 . S
C479 C480 1.479 . S
C479 H493 0.950 . S
C480 C479 1.479 . S
C480 C481 1.375 . S
C480 C486 1.404 . S
C481 C480 1.375 . S
C481 C482 1.369 . S
C481 H494 0.950 . S
C482 C481 1.369 . S
C482 C483 1.392 . S
C482 H495 0.951 . S
C483 C482 1.392 . S
C483 C485 1.384 . S
H484 C486 0.949 . S
C485 C483 1.384 . S
C485 C486 1.385 . S
C485 H487 0.950 . S
C486 C480 1.404 . S
C486 H484 0.949 . S
C486 C485 1.385 . S
H487 C485 0.950 . S
H488 C472 0.951 . S
H489 C474 0.951 1_545 S
H490 C476 0.951 . S
H491 C477 0.950 . S
H492 C478 0.945 1_565 S
H493 C479 0.950 . S
H494 C481 0.950 . S
H495 C482 0.951 . S
C113 C18 1.464 . S
C123 C4 1.471 . S
C137 C32 1.477 . S
C147 C46 1.424 . S
C161 C60 1.459 . S
C171 C74 1.450 . S
C185 C88 1.461 . S
C195 C102 1.447 . S
C209 C110 1.456 . S
C219 C12 1.437 . S
C233 C96 1.455 . S
C243 C26 1.454 . S
C257 C40 1.471 . S
C267 C82 1.459 . S
C281 C68 1.452 . S
C291 C54 1.445 . S
C305 C75 1.203 . S
C315 C33 1.133 . S
C329 C61 1.159 . S
C339 C47 1.156 . S
C353 C103 1.177 . S
C363 C5 1.212 . S
C377 C19 1.266 . S
C387 C89 1.280 . S
C401 C11 1.327 . S
C411 C39 1.259 . S
C425 C53 1.309 . S
C435 C25 1.285 . S
C449 C95 1.304 . S
C459 C67 1.287 . S
C473 C81 1.329 . S
C483 C109 1.279 . S
