# Generated by pormake.
# Topology wje, (4)-cn, num edge types: 1
# Building blocks:
#     Node 0, Type 0, BuildingBlock: QUQFOY_clean_sbu_3, # of connection points: 4
#     Node 1, Type 0, BuildingBlock: QUQFOY_clean_sbu_3, # of connection points: 4
#     Node 2, Type 0, BuildingBlock: QUQFOY_clean_sbu_3, # of connection points: 4
#     Node 3, Type 0, BuildingBlock: QUQFOY_clean_sbu_3, # of connection points: 4
#     Node 4, Type 0, BuildingBlock: QUQFOY_clean_sbu_3, # of connection points: 4
#     Node 5, Type 0, BuildingBlock: QUQFOY_clean_sbu_3, # of connection points: 4
#     Node 6, Type 0, BuildingBlock: QUQFOY_clean_sbu_3, # of connection points: 4
#     Node 7, Type 0, BuildingBlock: QUQFOY_clean_sbu_3, # of connection points: 4
#     Node 8, Type 0, BuildingBlock: QUQFOY_clean_sbu_3, # of connection points: 4
#     Node 9, Type 0, BuildingBlock: QUQFOY_clean_sbu_3, # of connection points: 4
#     Node 10, Type 0, BuildingBlock: QUQFOY_clean_sbu_3, # of connection points: 4
#     Node 11, Type 0, BuildingBlock: QUQFOY_clean_sbu_3, # of connection points: 4
#     Edge 12, Type (0, 0), BuildingBlock: ZUJKAS_clean_linker_0, # of connection points: 2
#     Edge 13, Type (0, 0), BuildingBlock: ZUJKAS_clean_linker_0, # of connection points: 2
#     Edge 14, Type (0, 0), BuildingBlock: ZUJKAS_clean_linker_0, # of connection points: 2
#     Edge 15, Type (0, 0), BuildingBlock: ZUJKAS_clean_linker_0, # of connection points: 2
#     Edge 16, Type (0, 0), BuildingBlock: ZUJKAS_clean_linker_0, # of connection points: 2
#     Edge 17, Type (0, 0), BuildingBlock: ZUJKAS_clean_linker_0, # of connection points: 2
#     Edge 18, Type (0, 0), BuildingBlock: ZUJKAS_clean_linker_0, # of connection points: 2
#     Edge 19, Type (0, 0), BuildingBlock: ZUJKAS_clean_linker_0, # of connection points: 2
#     Edge 20, Type (0, 0), BuildingBlock: ZUJKAS_clean_linker_0, # of connection points: 2
#     Edge 21, Type (0, 0), BuildingBlock: ZUJKAS_clean_linker_0, # of connection points: 2
#     Edge 22, Type (0, 0), BuildingBlock: ZUJKAS_clean_linker_0, # of connection points: 2
#     Edge 23, Type (0, 0), BuildingBlock: ZUJKAS_clean_linker_0, # of connection points: 2
#     Edge 24, Type (0, 0), BuildingBlock: ZUJKAS_clean_linker_0, # of connection points: 2
#     Edge 25, Type (0, 0), BuildingBlock: ZUJKAS_clean_linker_0, # of connection points: 2
#     Edge 26, Type (0, 0), BuildingBlock: ZUJKAS_clean_linker_0, # of connection points: 2
#     Edge 27, Type (0, 0), BuildingBlock: ZUJKAS_clean_linker_0, # of connection points: 2
#     Edge 28, Type (0, 0), BuildingBlock: ZUJKAS_clean_linker_0, # of connection points: 2
#     Edge 29, Type (0, 0), BuildingBlock: ZUJKAS_clean_linker_0, # of connection points: 2
#     Edge 30, Type (0, 0), BuildingBlock: ZUJKAS_clean_linker_0, # of connection points: 2
#     Edge 31, Type (0, 0), BuildingBlock: ZUJKAS_clean_linker_0, # of connection points: 2
#     Edge 32, Type (0, 0), BuildingBlock: ZUJKAS_clean_linker_0, # of connection points: 2
#     Edge 33, Type (0, 0), BuildingBlock: ZUJKAS_clean_linker_0, # of connection points: 2
#     Edge 34, Type (0, 0), BuildingBlock: ZUJKAS_clean_linker_0, # of connection points: 2
#     Edge 35, Type (0, 0), BuildingBlock: ZUJKAS_clean_linker_0, # of connection points: 2
# Relax obj value: 0.150
# Max RMSD: 0.092
# Mean RMSD: 0.092
data_MOF--net-wje--node1-QUQFOY_clean_sbu_3--edge1-ZUJKAS_clean_linker_0
_symmetry_space_group_name_H-M    P1
_symmetry_Int_Tables_number       1
_symmetry_cell_setting            triclinic
loop_
_symmetry_equiv_pos_as_xyz
'x, y, z'
_cell_length_a     54.026637
_cell_length_b     54.069577
_cell_length_c     50.480311
_cell_angle_alpha  89.878249
_cell_angle_beta   89.988495
_cell_angle_gamma 119.88495
loop_
_atom_site_label
_atom_site_type_symbol
_atom_site_fract_x
_atom_site_fract_y
_atom_site_fract_z
_atom_type_partial_charge
C0 C 0.25878 0.94671 0.28735 0.0
O1 O 0.27483 0.93617 0.28344 0.0
Cd2 Cd 0.32458 0.96342 0.29248 0.0
O3 O 0.26921 0.97326 0.29165 0.0
Cd4 Cd 0.31603 0.01777 0.28949 0.0
C5 C 0.3217 -0.00281 0.35067 0.0
O6 O 0.34266 0.00231 0.26279 0.0
O7 O 0.36834 0.03917 0.28691 0.0
O8 O 0.29495 0.02775 0.25236 0.0
C9 C 0.36729 0.02193 0.26932 0.0
O10 O 0.32628 0.97928 0.33833 0.0
C11 C 0.30254 0.05332 0.25834 0.0
O12 O 0.31607 0.01429 0.33805 0.0
O13 O 0.31595 0.06272 0.28011 0.0
C14 C 0.29708 0.26473 0.6155 0.0
O15 O 0.32386 0.27997 0.61224 0.0
Cd16 Cd 0.3482 0.32942 0.62287 0.0
O17 O 0.28166 0.27601 0.61991 0.0
Cd18 Cd 0.28571 0.32375 0.61881 0.0
C19 C 0.31035 0.32655 0.68043 0.0
O20 O 0.32913 0.34973 0.59378 0.0
O21 O 0.31676 0.37588 0.61586 0.0
O22 O 0.25522 0.30499 0.58101 0.0
C23 C 0.33418 0.3745 0.59989 0.0
O24 O 0.33253 0.32967 0.66843 0.0
C25 C 0.23745 0.31269 0.5877 0.0
O26 O 0.28866 0.32332 0.66743 0.0
O27 O 0.24135 0.32504 0.61004 0.0
C28 C 0.00937 0.30249 0.95152 0.0
O29 O 0.02005 0.32892 0.94682 0.0
Cd30 Cd -0.00674 0.35177 0.95653 0.0
O31 O -0.01711 0.28685 0.95661 0.0
Cd32 Cd 0.93859 0.28995 0.95478 0.0
C33 C 0.96038 0.31623 0.01553 0.0
O34 O 0.9539 0.33162 0.92728 0.0
O35 O 0.91756 0.32119 0.95213 0.0
O36 O 0.92697 0.2579 0.91823 0.0
C37 C 0.93439 0.33682 0.93398 0.0
O38 O -0.02127 0.3382 0.00283 0.0
C39 C 0.90158 0.24037 0.92519 0.0
O40 O 0.94223 0.29391 0.00321 0.0
O41 O 0.89308 0.24516 0.94714 0.0
C42 C 0.69811 0.02491 0.2835 0.0
O43 O 0.68304 0.0366 0.27978 0.0
Cd44 Cd 0.633 0.0111 0.28801 0.0
O45 O 0.68647 -0.00192 0.28703 0.0
Cd46 Cd 0.6386 0.95504 0.28425 0.0
C47 C 0.63401 0.97558 0.34573 0.0
O48 O 0.61308 0.97247 0.25821 0.0
O49 O 0.5867 0.93579 0.28248 0.0
O50 O 0.65755 0.94306 0.24667 0.0
C51 C 0.58823 0.95353 0.26514 0.0
O52 O 0.63031 -0.00576 0.33366 0.0
C53 C 0.64881 0.91732 0.2531 0.0
O54 O 0.63876 0.95805 0.33285 0.0
O55 O 0.63593 0.90887 0.27526 0.0
C56 C 0.6612 0.70797 0.6298 0.0
O57 O 0.63416 0.69289 0.63042 0.0
Cd58 Cd 0.60887 0.6424 0.6351 0.0
O59 O 0.67672 0.69636 0.6288 0.0
Cd60 Cd 0.67149 0.64832 0.62419 0.0
C61 C 0.649 0.63899 0.68782 0.0
O62 O 0.62692 0.62626 0.60088 0.0
O63 O 0.63881 0.59681 0.61699 0.0
O64 O 0.70136 0.66886 0.58594 0.0
C65 C 0.6212 0.60069 0.60351 0.0
O66 O 0.62606 0.63637 0.67803 0.0
C67 C 0.71836 0.65961 0.59066 0.0
O68 O 0.67032 0.6445 0.67299 0.0
O69 O 0.71443 0.64567 0.61211 0.0
C70 C 0.93895 0.66867 0.95734 0.0
O71 O 0.92552 0.64224 0.95196 0.0
Cd72 Cd 0.94794 0.61445 0.95876 0.0
O73 O 0.96583 0.68171 0.96106 0.0
Cd74 Cd 0.00661 0.67327 0.95571 0.0
C75 C -0.0147 0.6475 0.01686 0.0
O76 O -0.01379 0.63104 0.92844 0.0
O77 O 0.02279 0.63829 0.95152 0.0
O78 O 0.01879 0.70503 0.91879 0.0
C79 C 0.00421 0.6234 0.93426 0.0
O80 O 0.96511 0.62674 0.00442 0.0
C81 C 0.04487 0.72108 0.92458 0.0
O82 O 0.00459 0.66904 0.0043 0.0
O83 O 0.05363 0.71565 0.9461 0.0
C84 C 0.01224 0.70039 0.3646 0.0
O85 O 0.02309 0.6848 0.36962 0.0
Cd86 Cd -0.00324 0.63502 0.36119 0.0
O87 O -0.01433 0.68939 0.35982 0.0
Cd88 Cd 0.94133 0.64228 0.36221 0.0
C89 C 0.96389 0.63688 0.30184 0.0
O90 O 0.95716 0.61678 0.39008 0.0
O91 O 0.92047 0.59014 0.36611 0.0
O92 O 0.92933 0.66337 0.39805 0.0
C93 C 0.9379 0.59188 0.38387 0.0
O94 O -0.01777 0.63347 0.31483 0.0
C95 C 0.90402 0.65553 0.39076 0.0
O96 O 0.94555 0.64115 0.31385 0.0
O97 O 0.89575 0.64185 0.36902 0.0
C98 C 0.29666 0.0194 0.69483 0.0
O99 O 0.32331 0.03017 0.69848 0.0
Cd100 Cd 0.34597 0.00264 0.69171 0.0
O101 O 0.28061 -0.00741 0.69196 0.0
Cd102 Cd 0.28374 0.94851 0.69612 0.0
C103 C 0.30941 0.96685 0.63444 0.0
O104 O 0.32584 0.9653 0.72314 0.0
O105 O 0.31545 0.92804 0.6999 0.0
O106 O 0.25175 0.93732 0.73293 0.0
C107 C 0.33119 0.94568 0.71742 0.0
O108 O 0.33203 -0.0148 0.64623 0.0
C109 C 0.23452 0.9117 0.72649 0.0
O110 O 0.28693 0.95028 0.64756 0.0
O111 O 0.23937 0.90299 0.70472 0.0
C112 C 0.25608 0.30177 0.02929 0.0
O113 O 0.27202 0.32807 0.0343 0.0
Cd114 Cd 0.32154 0.35042 0.02427 0.0
O115 O 0.26675 0.28594 0.02422 0.0
Cd116 Cd 0.31353 0.28778 0.02618 0.0
C117 C 0.31718 0.31394 0.9654 0.0
O118 O 0.34105 0.3298 0.05262 0.0
O119 O 0.36582 0.31813 0.02752 0.0
O120 O 0.29321 0.25651 0.06339 0.0
C121 C 0.36543 0.33461 0.04518 0.0
O122 O 0.32116 0.33599 0.97812 0.0
C123 C 0.30037 0.23839 0.05656 0.0
O124 O 0.31317 0.29157 0.9777 0.0
O125 O 0.31321 0.2425 0.03441 0.0
C126 C 0.94159 0.26505 0.36562 0.0
O127 O 0.92928 0.27917 0.37114 0.0
Cd128 Cd 0.95225 0.32837 0.35983 0.0
O129 O 0.96789 0.2776 0.35929 0.0
Cd130 Cd 0.00991 0.32644 0.36048 0.0
C131 C -0.01484 0.32733 0.30017 0.0
O132 O -0.00756 0.35101 0.3878 0.0
O133 O 0.02768 0.37815 0.36228 0.0
O134 O 0.02284 0.30768 0.39739 0.0
C135 C 0.01048 0.37603 0.38047 0.0
O136 O 0.96595 0.32917 0.31329 0.0
C137 C 0.04852 0.31651 0.39066 0.0
O138 O 0.00507 0.32558 0.31208 0.0
O139 O 0.05674 0.32979 0.36865 0.0
C140 C 0.6583 0.94747 0.68992 0.0
O141 O 0.63125 0.93541 0.69023 0.0
Cd142 Cd 0.60667 0.96133 0.6846 0.0
O143 O 0.67352 0.97455 0.68947 0.0
Cd144 Cd 0.66765 0.01701 0.69226 0.0
C145 C 0.64442 0.00094 0.62945 0.0
O146 O 0.62423 -0.00318 0.71788 0.0
O147 O 0.63418 0.03534 0.69676 0.0
O148 O 0.69815 0.02753 0.72997 0.0
C149 C 0.61824 0.01625 0.71326 0.0
O150 O 0.62152 0.98171 0.64027 0.0
C151 C 0.71494 0.05361 0.7247 0.0
O152 O 0.66632 0.01699 0.64343 0.0
O153 O 0.71059 0.06312 0.70312 0.0
C154 C 0.70306 0.67104 0.04195 0.0
O155 O 0.68988 0.64462 0.04744 0.0
Cd156 Cd 0.64201 0.61603 0.03229 0.0
O157 O 0.68966 0.6834 0.03385 0.0
Cd158 Cd 0.63996 0.67401 0.03114 0.0
C159 C 0.6462 0.65031 0.97184 0.0
O160 O 0.61409 0.63053 0.05648 0.0
O161 O 0.58894 0.63916 0.02868 0.0
O162 O 0.65359 0.70385 0.06922 0.0
C163 C 0.5898 0.62315 0.04666 0.0
O164 O 0.64468 0.62966 0.98542 0.0
C165 C 0.64571 0.72101 0.06099 0.0
O166 O 0.64538 0.671 0.98315 0.0
O167 O 0.63502 0.71676 0.03779 0.0
H168 H 0.27288 0.0367 0.21221 0.0
H169 H 0.26998 0.06681 0.17786 0.0
H170 H 0.31809 0.14097 0.22683 0.0
H171 H 0.3217 0.11086 0.26136 0.0
H172 H 0.24815 0.10245 0.17646 0.0
H173 H 0.3652 0.16215 0.15886 0.0
H174 H 0.34805 0.13024 0.17887 0.0
H175 H 0.35496 0.16383 0.19236 0.0
C176 C 0.2827 0.0594 0.21586 0.0
C177 C 0.2978 0.07146 0.23943 0.0
C178 C 0.28099 0.07657 0.19616 0.0
C179 C 0.29431 0.10616 0.19955 0.0
C180 C 0.30822 0.11821 0.22359 0.0
H181 H 0.27172 0.22489 0.10337 0.0
H182 H 0.26876 0.19078 0.13649 0.0
C183 C 0.31004 0.10098 0.24337 0.0
C184 C 0.2941 0.12419 0.1775 0.0
H185 H 0.33757 0.17772 0.1352 0.0
C186 C 0.2677 0.11891 0.16742 0.0
C187 C 0.31962 0.14516 0.16533 0.0
C188 C 0.34858 0.15057 0.17419 0.0
C189 C 0.26611 0.13441 0.1458 0.0
C190 C 0.29164 0.15616 0.13433 0.0
C191 C 0.31803 0.16109 0.14409 0.0
C192 C 0.29153 0.17505 0.11308 0.0
C193 C 0.23711 0.12706 0.13525 0.0
C194 C 0.30556 0.17775 0.08888 0.0
C195 C 0.30751 0.19752 0.06983 0.0
C196 C 0.29565 0.21502 0.07484 0.0
C197 C 0.28101 0.21168 0.09882 0.0
C198 C 0.27912 0.19202 0.11777 0.0
H199 H 0.22075 0.10479 0.1403 0.0
H200 H 0.23039 0.14146 0.14432 0.0
H201 H 0.23759 0.12973 0.1134 0.0
H202 H 0.31543 0.16492 0.08496 0.0
H203 H 0.31904 0.19971 0.05162 0.0
H204 H 0.19889 0.33146 0.59312 0.0
H205 H 0.16467 0.32906 0.55979 0.0
H206 H 0.19167 0.28459 0.50674 0.0
H207 H 0.22523 0.28633 0.53984 0.0
H208 H 0.17769 0.35261 0.5097 0.0
H209 H 0.10558 0.23575 0.50324 0.0
H210 H 0.13042 0.25225 0.53017 0.0
H211 H 0.14245 0.24607 0.49892 0.0
C212 C 0.19712 0.32072 0.57454 0.0
C213 C 0.21469 0.30903 0.56915 0.0
C214 C 0.17768 0.31947 0.55549 0.0
C215 C 0.17542 0.30635 0.53092 0.0
C216 C 0.1926 0.29426 0.52575 0.0
H217 H 0.10634 0.33739 0.38562 0.0
H218 H 0.13819 0.33439 0.41861 0.0
C219 C 0.21191 0.29544 0.5447 0.0
C220 C 0.15644 0.30672 0.50995 0.0
H221 H 0.10215 0.26374 0.46835 0.0
C222 C 0.16103 0.3332 0.50075 0.0
C223 C 0.13469 0.28134 0.49841 0.0
C224 C 0.12777 0.25224 0.50835 0.0
C225 C 0.14462 0.33501 0.4801 0.0
C226 C 0.12348 0.30965 0.46798 0.0
C227 C 0.1187 0.28317 0.47738 0.0
C228 C 0.10454 0.30999 0.44694 0.0
C229 C 0.14961 0.364 0.47188 0.0
C230 C 0.07506 0.29627 0.45147 0.0
C231 C 0.05693 0.29765 0.43267 0.0
C232 C 0.06788 0.31281 0.40886 0.0
C233 C 0.09732 0.32567 0.40382 0.0
C234 C 0.11553 0.32418 0.42272 0.0
H235 H 0.16173 0.38047 0.48711 0.0
H236 H 0.16216 0.37059 0.45323 0.0
H237 H 0.12905 0.36342 0.46824 0.0
H238 H 0.06611 0.28508 0.46994 0.0
H239 H 0.03434 0.28737 0.43716 0.0
H240 H 0.72725 0.03734 0.77153 0.0
H241 H 0.75944 0.06764 0.80606 0.0
H242 H 0.78515 0.14173 0.75667 0.0
H243 H 0.7522 0.11142 0.72197 0.0
H244 H 0.81649 0.10313 0.80757 0.0
H245 H 0.75942 0.16332 0.82422 0.0
H246 H 0.74474 0.13143 0.80434 0.0
H247 H 0.77145 0.16502 0.79076 0.0
C248 C 0.73983 0.06006 0.76785 0.0
C249 C 0.73698 0.07203 0.74407 0.0
C250 C 0.75825 0.07735 0.78766 0.0
C251 C 0.77425 0.10697 0.78417 0.0
C252 C 0.77245 0.11895 0.76 0.0
H253 H 0.91608 0.22594 0.87858 0.0
H254 H 0.88452 0.19158 0.84605 0.0
C255 C 0.75384 0.10161 0.74012 0.0
C256 C 0.79242 0.12506 0.80612 0.0
H257 H 0.80285 0.17923 0.84757 0.0
C258 C 0.81349 0.11975 0.81635 0.0
C259 C 0.788 0.14626 0.81796 0.0
C260 C 0.7645 0.15173 0.80898 0.0
C261 C 0.83067 0.13545 0.83774 0.0
C262 C 0.82708 0.15747 0.84883 0.0
C263 C 0.80563 0.16241 0.83897 0.0
C264 C 0.84628 0.17663 0.86972 0.0
C265 C 0.85225 0.12804 0.84847 0.0
C266 C 0.83523 0.17989 0.89384 0.0
C267 C 0.85329 0.19983 0.91255 0.0
C268 C 0.88262 0.21692 0.90727 0.0
C269 C 0.89361 0.21304 0.88335 0.0
C270 C 0.87562 0.19325 0.86474 0.0
H271 H 0.84613 0.10561 0.84389 0.0
H272 H 0.87328 0.14209 0.83907 0.0
H273 H 0.85467 0.13111 0.87025 0.0
H274 H 0.81258 0.16735 0.89798 0.0
H275 H 0.84418 0.20244 0.93072 0.0
H276 H 0.62669 0.75908 0.05231 0.0
H277 H 0.62944 0.79544 0.08326 0.0
H278 H 0.6725 0.77046 0.14014 0.0
H279 H 0.67027 0.73475 0.10957 0.0
H280 H 0.60637 0.78639 0.13447 0.0
H281 H 0.72373 0.85679 0.13713 0.0
H282 H 0.70595 0.83041 0.11161 0.0
H283 H 0.71292 0.82011 0.14344 0.0
C284 C 0.63704 0.76164 0.07129 0.0
C285 C 0.64834 0.74412 0.07844 0.0
C286 C 0.63853 0.78232 0.08894 0.0
C287 C 0.65156 0.78588 0.11381 0.0
C288 C 0.66292 0.7685 0.12084 0.0
H289 H 0.62736 0.85951 0.25767 0.0
H290 H 0.62837 0.82747 0.22385 0.0
C291 C 0.66145 0.74795 0.10334 0.0
C292 C 0.65222 0.8067 0.13319 0.0
H293 H 0.69734 0.86241 0.1724 0.0
C294 C 0.62623 0.80322 0.1426 0.0
C295 C 0.67819 0.82871 0.1436 0.0
C296 C 0.70678 0.83445 0.13324 0.0
C297 C 0.62551 0.82074 0.16271 0.0
C298 C 0.65146 0.84187 0.174 0.0
C299 C 0.67745 0.84584 0.16405 0.0
C300 C 0.6522 0.86103 0.19529 0.0
C301 C 0.597 0.81668 0.17145 0.0
C302 C 0.66632 0.89054 0.19086 0.0
C303 C 0.66608 0.90881 0.21016 0.0
C304 C 0.65172 0.89796 0.23434 0.0
C305 C 0.63851 0.86848 0.23921 0.0
C306 C 0.63884 0.85015 0.21982 0.0
H307 H 0.5801 0.80481 0.15648 0.0
H308 H 0.59048 0.80424 0.19017 0.0
H309 H 0.5983 0.83754 0.17513 0.0
H310 H 0.67695 0.89939 0.17215 0.0
H311 H 0.67656 0.93142 0.20579 0.0
H312 H 0.84674 0.63637 0.38449 0.0
H313 H 0.81482 0.64084 0.41633 0.0
H314 H 0.88619 0.68926 0.4684 0.0
H315 H 0.91806 0.68546 0.43675 0.0
H316 H 0.80447 0.62025 0.46699 0.0
H317 H 0.84776 0.73698 0.46865 0.0
H318 H 0.8566 0.71956 0.44288 0.0
H319 H 0.87494 0.72773 0.47419 0.0
C320 C 0.85566 0.64844 0.40249 0.0
C321 C 0.88491 0.66057 0.40808 0.0
C322 C 0.83742 0.65091 0.42068 0.0
C323 C 0.84821 0.6657 0.44458 0.0
C324 C 0.87749 0.67833 0.44985 0.0
H325 H 0.75599 0.63943 0.59263 0.0
H326 H 0.78821 0.64165 0.55727 0.0
C327 C 0.89566 0.67594 0.43175 0.0
C328 C 0.82879 0.66612 0.46509 0.0
H329 H 0.81829 0.7106 0.50552 0.0
C330 C 0.80727 0.64 0.47523 0.0
C331 C 0.83237 0.6919 0.47569 0.0
C332 C 0.85398 0.72061 0.4646 0.0
C333 C 0.78969 0.63894 0.49618 0.0
C334 C 0.79422 0.66472 0.50766 0.0
C335 C 0.81522 0.69085 0.49703 0.0
C336 C 0.77651 0.66504 0.52994 0.0
C337 C 0.76619 0.61023 0.50555 0.0
C338 C 0.76033 0.67858 0.52675 0.0
C339 C 0.74229 0.67767 0.54696 0.0
C340 C 0.74006 0.66319 0.57082 0.0
C341 C 0.75715 0.65061 0.57444 0.0
C342 C 0.77535 0.65164 0.55417 0.0
H343 H 0.76082 0.59341 0.49041 0.0
H344 H 0.77332 0.60395 0.52369 0.0
H345 H 0.74655 0.61102 0.51043 0.0
H346 H 0.76106 0.68921 0.5083 0.0
H347 H 0.7295 0.68769 0.54354 0.0
H348 H 0.19647 0.85443 0.72117 0.0
H349 H 0.16177 0.8227 0.75424 0.0
H350 H 0.18697 0.89422 0.80664 0.0
H351 H 0.22096 0.92595 0.77374 0.0
H352 H 0.17385 0.8123 0.80433 0.0
H353 H 0.10097 0.8565 0.80955 0.0
H354 H 0.12636 0.86512 0.78297 0.0
H355 H 0.13764 0.8832 0.81429 0.0
C356 C 0.19418 0.86343 0.73953 0.0
C357 C 0.21139 0.8927 0.7448 0.0
C358 C 0.17447 0.84529 0.75843 0.0
C359 C 0.17156 0.85617 0.78277 0.0
C360 C 0.18836 0.88544 0.78779 0.0
H361 H 0.10281 0.75746 0.92863 0.0
H362 H 0.13436 0.79155 0.89504 0.0
C363 C 0.20793 0.90354 0.76897 0.0
C364 C 0.15239 0.83684 0.80368 0.0
H365 H 0.09768 0.8256 0.84494 0.0
C366 C 0.15704 0.81505 0.81309 0.0
C367 C 0.13041 0.8404 0.81498 0.0
C368 C 0.12333 0.86239 0.80475 0.0
C369 C 0.14052 0.79691 0.83377 0.0
C370 C 0.11923 0.80114 0.84572 0.0
C371 C 0.11434 0.8227 0.83605 0.0
C372 C 0.10044 0.7822 0.86705 0.0
C373 C 0.14561 0.77301 0.84218 0.0
C374 C 0.0709 0.76664 0.86292 0.0
C375 C 0.05292 0.74758 0.8821 0.0
C376 C 0.06408 0.74361 0.90588 0.0
C377 C 0.09361 0.75996 0.91046 0.0
C378 C 0.11166 0.77923 0.89121 0.0
H379 H 0.15755 0.7684 0.82689 0.0
H380 H 0.15843 0.77921 0.86065 0.0
H381 H 0.12512 0.75317 0.84619 0.0
H382 H 0.06177 0.76871 0.84451 0.0
H383 H 0.03026 0.73542 0.87793 0.0
H384 H 0.37401 -0.0038 0.22593 0.0
H385 H 0.41269 -0.01389 0.2174 0.0
H386 H 0.45519 0.03122 0.28868 0.0
H387 H 0.41728 0.04251 0.2966 0.0
H388 H 0.49283 0.04044 0.25076 0.0
H389 H 0.41616 0.92424 0.25808 0.0
H390 H 0.4082 0.94154 0.2318 0.0
H391 H 0.40627 0.9507 0.2657 0.0
C392 C 0.3919 0.00437 0.2395 0.0
C393 C 0.39257 0.01985 0.26207 0.0
C394 C 0.41381 -0.00162 0.23474 0.0
C395 C 0.43631 0.00711 0.25286 0.0
C396 C 0.43787 0.02406 0.27455 0.0
H397 H 0.53822 0.93252 0.29252 0.0
H398 H 0.50095 0.94498 0.28608 0.0
C399 C 0.41624 0.03054 0.27905 0.0
C400 C 0.45746 -0.00255 0.25017 0.0
H401 H 0.46396 0.93782 0.24842 0.0
C402 C 0.48656 0.01802 0.25012 0.0
C403 C 0.44915 0.96812 0.24975 0.0
C404 C 0.41828 0.94486 0.25159 0.0
C405 C 0.50765 0.01012 0.25023 0.0
C406 C 0.49934 0.98081 0.24933 0.0
C407 C 0.47024 0.96026 0.2488 0.0
C408 C 0.52041 0.97096 0.25121 0.0
C409 C 0.53851 0.03325 0.2526 0.0
C410 C 0.54309 0.98047 0.23313 0.0
C411 C 0.56466 0.97378 0.23705 0.0
C412 C 0.56347 0.95687 0.25872 0.0
C413 C 0.53969 0.94561 0.27565 0.0
C414 C 0.51841 0.95275 0.27201 0.0
H415 H 0.54059 0.05354 0.26001 0.0
H416 H 0.55037 0.02669 0.2662 0.0
H417 H 0.54877 0.03753 0.2328 0.0
H418 H 0.54456 -0.00624 0.21645 0.0
H419 H 0.58264 0.98243 0.22353 0.0
H420 H 0.57854 0.60393 0.57791 0.0
H421 H 0.52931 0.5657 0.57175 0.0
H422 H 0.55011 0.50555 0.60685 0.0
H423 H 0.59946 0.54377 0.61338 0.0
H424 H 0.5039 0.51107 0.54602 0.0
H425 H 0.48701 0.50396 0.65505 0.0
H426 H 0.51752 0.53344 0.63941 0.0
H427 H 0.51646 0.49996 0.64406 0.0
C428 C 0.57276 0.5825 0.58403 0.0
C429 C 0.59274 0.5769 0.59649 0.0
C430 C 0.54466 0.56071 0.58042 0.0
C431 C 0.5361 0.53302 0.58925 0.0
C432 C 0.55633 0.52697 0.60029 0.0
H433 H 0.37739 0.37628 0.57059 0.0
H434 H 0.42558 0.41663 0.56509 0.0
C435 C 0.58448 0.54877 0.60392 0.0
C436 C 0.50561 0.51103 0.58864 0.0
H437 H 0.44909 0.46988 0.62892 0.0
C438 C 0.49183 0.50203 0.56409 0.0
C439 C 0.48992 0.49984 0.61231 0.0
C440 C 0.50334 0.50992 0.63924 0.0
C441 C 0.46274 0.48147 0.5626 0.0
C442 C 0.44733 0.46956 0.58629 0.0
C443 C 0.46102 0.47904 0.6108 0.0
C444 C 0.41723 0.44643 0.58635 0.0
C445 C 0.44872 0.47289 0.53579 0.0
C446 C 0.39654 0.44986 0.60007 0.0
C447 C 0.369 0.42675 0.60346 0.0
C448 C 0.36184 0.39982 0.59333 0.0
C449 C 0.38227 0.39678 0.57862 0.0
C450 C 0.40978 0.41987 0.57528 0.0
H451 H 0.46086 0.48944 0.52055 0.0
H452 H 0.44793 0.45285 0.5295 0.0
H453 H 0.42651 0.469 0.53648 0.0
H454 H 0.40198 0.47021 0.60886 0.0
H455 H 0.3537 0.42975 0.61483 0.0
H456 H 0.02616 0.59252 0.95662 0.0
H457 H 0.01325 0.54345 0.94656 0.0
H458 H 0.95947 0.54193 0.88263 0.0
H459 H 0.97142 0.59075 0.89338 0.0
H460 H 0.93144 0.497 0.91221 0.0
H461 H 0.03613 0.50724 0.89056 0.0
H462 H 0.03718 0.52279 0.92212 0.0
H463 H 0.03128 0.53788 0.89251 0.0
C464 C 0.01203 0.58193 0.94009 0.0
C465 C -0.00025 0.5954 0.9258 0.0
C466 C 0.0048 0.55392 0.93422 0.0
C467 C -0.01426 0.53912 0.91354 0.0
C468 C 0.97429 0.55296 0.8986 0.0
H469 H 0.95948 0.3678 0.88961 0.0
H470 H 0.96791 0.41551 0.87885 0.0
C471 C -0.01883 0.58084 0.90473 0.0
C472 C 0.97574 0.50846 0.90931 0.0
H473 H -0.00072 0.46067 0.90582 0.0
C474 C 0.94626 0.48907 0.91027 0.0
C475 C -0.00507 0.49805 0.90615 0.0
C476 C 0.0266 0.51767 0.90247 0.0
C477 C 0.93559 0.45953 0.90979 0.0
C478 C 0.95499 0.44915 0.90927 0.0
C479 C -0.01565 0.46855 0.90666 0.0
C480 C 0.94575 0.41859 0.91332 0.0
C481 C 0.90368 0.43988 0.91005 0.0
C482 C 0.92987 0.40414 0.93592 0.0
C483 C 0.92454 0.37667 0.9418 0.0
C484 C 0.93568 0.36352 0.92556 0.0
C485 C 0.95073 0.37755 0.9025 0.0
C486 C 0.95558 0.40479 0.89636 0.0
H487 H 0.89257 0.45001 0.90019 0.0
H488 H 0.8975 0.41936 0.9 0.0
H489 H 0.89608 0.43537 0.93087 0.0
H490 H 0.92278 0.4146 0.94976 0.0
H491 H 0.91314 0.36646 0.95985 0.0
H492 H 0.91566 0.54043 0.35898 0.0
H493 H 0.92723 0.50294 0.36772 0.0
H494 H -0.02262 0.54959 0.43547 0.0
H495 H 0.96682 0.58776 0.42612 0.0
H496 H 0.0072 0.5356 0.40507 0.0
H497 H 0.90203 0.43938 0.4196 0.0
H498 H 0.90267 0.45644 0.38895 0.0
H499 H 0.90656 0.47479 0.41981 0.0
C500 C 0.92859 0.54237 0.3761 0.0
C501 C 0.94045 0.56702 0.39182 0.0
C502 C 0.93506 0.52082 0.38119 0.0
C503 C 0.9529 0.52325 0.40246 0.0
C504 C 0.96355 0.54724 0.41898 0.0
H505 H -0.01766 0.37955 0.42365 0.0
H506 H 0.97143 0.41726 0.43398 0.0
C507 C 0.95746 0.56898 0.41365 0.0
C508 C 0.96297 0.50245 0.40558 0.0
H509 H 0.94025 0.43127 0.40539 0.0
C510 C -0.00746 0.51278 0.40565 0.0
C511 C 0.94394 0.47271 0.40683 0.0
C512 C 0.91206 0.46024 0.4091 0.0
C513 C 0.00355 0.49416 0.40555 0.0
C514 C -0.01553 0.46443 0.40446 0.0
C515 C 0.95493 0.45409 0.40582 0.0
C516 C -0.00558 0.44368 0.40034 0.0
C517 C 0.0355 0.50663 0.40649 0.0
C518 C 0.01144 0.44625 0.3783 0.0
C519 C 0.01811 0.42498 0.37263 0.0
C520 C 0.00726 0.40044 0.38855 0.0
C521 C -0.00908 0.39824 0.41101 0.0
C522 C -0.01536 0.41973 0.41691 0.0
H523 H 0.04598 0.52745 0.41695 0.0
H524 H 0.04143 0.49205 0.41657 0.0
H525 H 0.04403 0.51047 0.38597 0.0
H526 H 0.01857 0.46411 0.36479 0.0
H527 H 0.03051 0.42708 0.35504 0.0
H528 H 0.58777 0.03836 0.69032 0.0
H529 H 0.53902 0.02655 0.70099 0.0
H530 H 0.53817 0.97527 0.76704 0.0
H531 H 0.5865 -0.01406 0.75559 0.0
H532 H 0.49311 0.94618 0.73903 0.0
H533 H 0.50306 0.05151 0.75513 0.0
H534 H 0.51788 0.05098 0.72355 0.0
H535 H 0.53385 0.04686 0.75341 0.0
C536 C 0.57739 0.02507 0.70744 0.0
C537 C 0.5908 0.01298 0.7221 0.0
C538 C 0.54957 0.01847 0.71367 0.0
C539 C 0.53502 0.00034 0.73509 0.0
C540 C 0.54897 -0.01067 0.75046 0.0
H541 H 0.36335 0.97362 0.76029 0.0
H542 H 0.41172 0.98352 0.77034 0.0
C543 C 0.57656 -0.00453 0.74394 0.0
C544 C 0.50437 -0.00952 0.73958 0.0
H545 H 0.45621 0.01368 0.74164 0.0
C546 C 0.48509 0.96098 0.74014 0.0
C547 C 0.49382 0.00966 0.74164 0.0
C548 C 0.51334 0.04149 0.74371 0.0
C549 C 0.45553 0.95017 0.74115 0.0
C550 C 0.44495 0.96938 0.74058 0.0
C551 C 0.46425 -0.00113 0.74162 0.0
C552 C 0.41421 0.95966 0.73704 0.0
C553 C 0.43606 0.91828 0.74263 0.0
C554 C 0.39924 0.94239 0.71536 0.0
C555 C 0.37142 0.93624 0.70992 0.0
C556 C 0.35838 0.94792 0.72565 0.0
C557 C 0.37298 0.96441 0.74782 0.0
C558 C 0.4006 0.97012 0.75354 0.0
H559 H 0.44662 0.90791 0.75307 0.0
H560 H 0.41579 0.91257 0.75303 0.0
H561 H 0.43103 0.90946 0.72227 0.0
H562 H 0.40952 0.93477 0.70186 0.0
H563 H 0.36078 0.92374 0.69253 0.0
H564 H 0.37311 0.36911 0.0872 0.0
H565 H 0.41258 0.41764 0.09419 0.0
H566 H 0.45416 0.41081 0.02385 0.0
H567 H 0.41539 0.36188 0.01742 0.0
H568 H 0.49222 0.43991 0.0616 0.0
H569 H 0.41777 0.48204 0.05021 0.0
H570 H 0.40898 0.45763 0.07738 0.0
H571 H 0.40712 0.44526 0.04397 0.0
C572 C 0.39093 0.37784 0.0735 0.0
C573 C 0.39108 0.36192 0.0516 0.0
C574 C 0.41332 0.40561 0.07739 0.0
C575 C 0.43583 0.41811 0.05908 0.0
C576 C 0.43685 0.40163 0.0381 0.0
H577 H 0.54158 0.5938 0.01697 0.0
H578 H 0.50418 0.54412 0.02261 0.0
C579 C 0.41471 0.37368 0.03445 0.0
C580 C 0.45754 0.44875 0.06081 0.0
H581 H 0.46573 0.51555 0.05991 0.0
C582 C 0.48647 0.45649 0.06134 0.0
C583 C 0.44992 0.4703 0.06002 0.0
C584 C 0.41929 0.46347 0.0576 0.0
C585 C 0.50807 0.4852 0.06072 0.0
C586 C 0.50043 0.50674 0.06049 0.0
C587 C 0.47149 0.49899 0.06037 0.0
C588 C 0.52207 0.5374 0.05848 0.0
C589 C 0.53876 0.49205 0.05915 0.0
C590 C 0.54401 0.55037 0.07724 0.0
C591 C 0.56563 0.57863 0.07383 0.0
C592 C 0.56529 0.59455 0.05193 0.0
C593 C 0.54241 0.58205 0.03404 0.0
C594 C 0.52105 0.55366 0.03723 0.0
H595 H 0.54048 0.47342 0.0524 0.0
H596 H 0.55126 0.51013 0.0454 0.0
H597 H 0.54856 0.49812 0.0791 0.0
H598 H 0.54472 0.53848 0.09423 0.0
H599 H 0.58288 0.58787 0.08809 0.0
H600 H 0.00566 0.73538 0.33007 0.0
H601 H 0.04295 0.78277 0.31577 0.0
H602 H 0.0989 0.7824 0.37655 0.0
H603 H 0.06223 0.73446 0.39005 0.0
H604 H 0.07846 0.83667 0.33526 0.0
H605 H 0.13908 0.78246 0.3088 0.0
H606 H 0.10232 0.76314 0.3193 0.0
H607 H 0.13054 0.77927 0.34341 0.0
C608 C 0.02567 0.74575 0.3408 0.0
C609 C 0.03141 0.73117 0.36078 0.0
C610 C 0.04692 0.77279 0.33262 0.0
C611 C 0.07389 0.78561 0.34461 0.0
C612 C 0.07844 0.77242 0.36658 0.0
H613 H 0.22295 0.94921 0.32342 0.0
H614 H 0.17445 0.91153 0.33361 0.0
C615 C 0.0575 0.74515 0.37433 0.0
C616 C 0.09824 0.81068 0.33217 0.0
H617 H 0.16437 0.83293 0.30671 0.0
C618 C 0.09723 0.83593 0.3288 0.0
C619 C 0.12221 0.80926 0.3229 0.0
C620 C 0.12352 0.78199 0.32349 0.0
C621 C 0.12019 0.86026 0.31733 0.0
C622 C 0.14499 0.85937 0.30981 0.0
C623 C 0.14546 0.83377 0.31249 0.0
C624 C 0.17153 0.88476 0.30047 0.0
C625 C 0.11743 0.88641 0.31316 0.0
C626 C 0.18609 0.88248 0.27836 0.0
C627 C 0.21421 0.90344 0.27322 0.0
C628 C 0.22789 0.92742 0.28962 0.0
C629 C 0.21263 0.93096 0.31035 0.0
C630 C 0.18479 0.90954 0.31603 0.0
H631 H 0.09477 0.88051 0.31015 0.0
H632 H 0.12518 0.90002 0.33108 0.0
H633 H 0.13008 0.89908 0.29583 0.0
H634 H 0.17629 0.8636 0.26602 0.0
H635 H 0.22562 0.90041 0.25705 0.0
H636 H 0.30717 0.23068 0.58315 0.0
H637 H 0.29367 0.18091 0.5913 0.0
H638 H 0.24807 0.18061 0.66173 0.0
H639 H 0.25967 0.2295 0.65233 0.0
H640 H 0.31402 0.16838 0.62985 0.0
H641 H 0.19747 0.10104 0.64038 0.0
H642 H 0.2136 0.13617 0.62574 0.0
H643 H 0.20978 0.13169 0.66122 0.0
C644 C 0.29332 0.21949 0.59975 0.0
C645 C 0.28445 0.23369 0.61718 0.0
C646 C 0.28562 0.19112 0.60444 0.0
C647 C 0.26977 0.17685 0.62713 0.0
C648 C 0.25957 0.19067 0.6437 0.0
H649 H 0.31489 0.07148 0.71684 0.0
H650 H 0.30334 0.10755 0.70177 0.0
C651 C 0.26645 0.21875 0.63847 0.0
C652 C 0.26868 0.15015 0.63602 0.0
H653 H 0.2261 0.08517 0.66485 0.0
C654 C 0.29458 0.15002 0.63696 0.0
C655 C 0.24341 0.12599 0.64524 0.0
C656 C 0.2145 0.12364 0.64279 0.0
C657 C 0.29617 0.12699 0.64758 0.0
C658 C 0.27142 0.10394 0.65883 0.0
C659 C 0.2452 0.10331 0.65692 0.0
C660 C 0.27283 0.08039 0.67228 0.0
C661 C 0.32445 0.12765 0.64651 0.0
C662 C 0.25764 0.05256 0.66225 0.0
C663 C 0.26365 0.0317 0.67136 0.0
C664 C 0.28519 0.03864 0.6903 0.0
C665 C 0.2985 0.06578 0.70195 0.0
C666 C 0.292 0.08637 0.69328 0.0
H667 H 0.33833 0.14192 0.63045 0.0
H668 H 0.33586 0.13596 0.66554 0.0
H669 H 0.32142 0.10601 0.64324 0.0
H670 H 0.24258 0.0475 0.64618 0.0
H671 H 0.25309 0.01089 0.66209 0.0
H672 H 0.22046 0.26007 -0.00456 0.0
H673 H 0.17315 0.25044 0.98137 0.0
H674 H 0.17471 0.30809 0.04118 0.0
H675 H 0.22262 0.31889 0.05441 0.0
H676 H 0.11975 0.23281 0.0011 0.0
H677 H 0.17365 0.34712 0.97322 0.0
H678 H 0.19311 0.32984 0.98388 0.0
H679 H 0.17701 0.34215 0.00788 0.0
C680 C 0.2104 0.27015 0.006 0.0
C681 C 0.22532 0.29065 0.02563 0.0
C682 C 0.18339 0.26463 -0.00205 0.0
C683 C 0.1709 0.27924 0.00971 0.0
C684 C 0.18444 0.29727 0.03133 0.0
H685 H 0.00678 0.26457 0.9882 0.0
H686 H 0.04455 0.25392 -0.00112 0.0
C687 C 0.21169 0.30332 0.03896 0.0
C688 C 0.14568 0.27845 -0.00257 0.0
H689 H 0.12315 0.32193 0.97138 0.0
C690 C 0.12043 0.25221 -0.0056 0.0
C691 C 0.14699 0.30369 0.98786 0.0
C692 C 0.17423 0.33222 0.98808 0.0
C693 C 0.09602 0.25071 0.98292 0.0
C694 C 0.09681 0.27625 0.97503 0.0
C695 C 0.12239 0.3023 0.97744 0.0
C696 C 0.07137 0.27724 0.96549 0.0
C697 C 0.06989 0.22181 0.97908 0.0
C698 C 0.07363 0.29369 0.94304 0.0
C699 C 0.05258 0.30072 0.93758 0.0
C700 C 0.02856 0.29071 0.95401 0.0
C701 C 0.02504 0.27226 0.97509 0.0
C702 C 0.04653 0.26596 0.98107 0.0
H703 H 0.07584 0.20504 0.97644 0.0
H704 H 0.05622 0.21622 -0.003 0.0
H705 H 0.05725 0.22156 0.96165 0.0
H706 H 0.09254 0.30257 0.93068 0.0
H707 H 0.05562 0.31489 0.92114 0.0
H708 H 0.89942 0.2287 0.39874 0.0
H709 H 0.86407 0.17893 0.38971 0.0
H710 H 0.90773 0.18302 0.31671 0.0
H711 H 0.94414 0.23193 0.32682 0.0
H712 H 0.8303 0.16831 0.352 0.0
H713 H 0.88022 0.10246 0.3343 0.0
H714 H 0.89918 0.13677 0.35035 0.0
H715 H 0.89792 0.13426 0.31468 0.0
C716 C 0.90198 0.21846 0.38134 0.0
C717 C 0.92424 0.23395 0.36338 0.0
C718 C 0.88185 0.19009 0.37617 0.0
C719 C 0.88314 0.1771 0.3525 0.0
C720 C 0.90654 0.19212 0.33543 0.0
H721 H 0.73287 0.07741 0.26233 0.0
H722 H 0.78085 0.11198 0.27747 0.0
C723 C 0.92723 0.22021 0.34108 0.0
C724 C 0.85757 0.15076 0.34324 0.0
H725 H 0.83529 0.08766 0.31093 0.0
C726 C 0.83145 0.15047 0.34357 0.0
C727 C 0.85879 0.12729 0.33227 0.0
C728 C 0.88553 0.12511 0.33317 0.0
C729 C 0.80686 0.12806 0.33246 0.0
C730 C 0.80863 0.10583 0.31952 0.0
C731 C 0.83429 0.10523 0.32018 0.0
C732 C 0.78365 0.08315 0.30554 0.0
C733 C 0.7792 0.12852 0.33469 0.0
C734 C 0.77055 0.05495 0.31476 0.0
C735 C 0.7434 0.03497 0.30568 0.0
C736 C 0.72902 0.04319 0.28758 0.0
C737 C 0.74336 0.0707 0.27658 0.0
C738 C 0.77068 0.09043 0.28525 0.0
H739 H 0.77966 0.14197 0.35151 0.0
H740 H 0.77579 0.13766 0.31627 0.0
H741 H 0.76075 0.10669 0.33746 0.0
H742 H 0.78037 0.04893 0.3303 0.0
H743 H 0.7328 0.01385 0.31444 0.0
H744 H 0.7167 0.7465 0.64261 0.0
H745 H 0.7365 0.79743 0.65222 0.0
H746 H 0.65576 0.79056 0.63197 0.0
H747 H 0.63589 0.74007 0.62236 0.0
H748 H 0.70813 0.8422 0.61284 0.0
H749 H 0.70624 0.81889 0.72082 0.0
H750 H 0.72437 0.8077 0.69797 0.0
H751 H 0.68616 0.79059 0.69752 0.0
C752 C 0.70337 0.75601 0.63974 0.0
C753 C 0.67462 0.73924 0.63205 0.0
C754 C 0.71471 0.78503 0.64529 0.0
C755 C 0.69748 0.79752 0.64296 0.0
C756 C 0.66937 0.7812 0.63383 0.0
H757 H 0.63341 0.89011 0.69736 0.0
H758 H 0.65415 0.85998 0.68859 0.0
C759 C 0.658 0.75232 0.62849 0.0
C760 C 0.707 0.8267 0.65233 0.0
H761 H 0.70568 0.86048 0.70878 0.0
C762 C 0.70876 0.84686 0.6338 0.0
C763 C 0.70777 0.83245 0.6797 0.0
C764 C 0.70602 0.81137 0.70031 0.0
C765 C 0.70827 0.87137 0.64195 0.0
C766 C 0.70611 0.87565 0.66928 0.0
C767 C 0.70736 0.857 0.68786 0.0
C768 C 0.69593 0.89495 0.67829 0.0
C769 C 0.70708 0.89095 0.62126 0.0
C770 C 0.7129 0.92465 0.6761 0.0
C771 C 0.70105 0.94203 0.68111 0.0
C772 C 0.67207 0.92982 0.6882 0.0
C773 C 0.65569 0.90016 0.6917 0.0
C774 C 0.66755 0.88292 0.68684 0.0
H775 H 0.70792 0.88392 0.60077 0.0
H776 H 0.68713 0.8919 0.62356 0.0
H777 H 0.72534 0.91285 0.62397 0.0
H778 H 0.73491 0.93425 0.66967 0.0
H779 H 0.71424 0.96485 0.67835 0.0
H780 H 0.73892 0.66739 0.07754 0.0
H781 H 0.78981 0.6845 0.0711 0.0
H782 H 0.78732 0.72338 -0.00297 0.0
H783 H 0.7373 0.70833 0.00462 0.0
H784 H 0.80351 0.66256 0.03527 0.0
H785 H 0.86666 0.77765 0.01555 0.0
H786 H 0.83178 0.76188 0.03073 0.0
H787 H 0.83551 0.76323 -0.00489 0.0
C788 C 0.74969 0.68065 0.06051 0.0
C789 C 0.73437 0.68642 0.04145 0.0
C790 C 0.77873 0.69047 0.05682 0.0
C791 C 0.79257 0.70526 0.03353 0.0
C792 C 0.7776 0.71277 0.01549 0.0
H793 H 0.88651 0.65512 0.93858 0.0
H794 H 0.85468 0.67064 0.95701 0.0
C795 C 0.74882 0.70384 0.01968 0.0
C796 C 0.8197 0.70689 0.02527 0.0
H797 H 0.88157 0.74768 0.99086 0.0
C798 C 0.82087 0.68153 0.02628 0.0
C799 C 0.84263 0.73153 0.01358 0.0
C800 C 0.84415 0.76013 0.01399 0.0
C801 C 0.8432 0.67958 0.01455 0.0
C802 C 0.86447 0.70328 0.00049 0.0
C803 C 0.86464 0.72929 0.00096 0.0
C804 C 0.88582 0.70043 0.98465 0.0
C805 C 0.84336 0.65178 0.01669 0.0
C806 C 0.91437 0.7137 -0.00719 0.0
C807 C 0.93275 0.70517 0.98201 0.0
C808 C 0.92255 0.68306 0.96322 0.0
C809 C 0.89476 0.6719 0.95329 0.0
C810 C 0.87661 0.68076 0.96377 0.0
H811 H 0.83075 0.63901 0.03403 0.0
H812 H 0.83361 0.63893 -0.0014 0.0
H813 H 0.86546 0.65554 0.01849 0.0
H814 H 0.9218 0.72899 0.00887 0.0
H815 H 0.95413 0.71417 0.98997 0.0
H816 H 0.29998 0.02114 0.38493 0.0
H817 H 0.29593 0.01584 0.43325 0.0
H818 H 0.33865 0.96648 0.43103 0.0
H819 H 0.34219 0.97108 0.38296 0.0
H820 H 0.29079 0.94089 0.46103 0.0
H821 H 0.35669 0.05473 0.48953 0.0
H822 H 0.32773 0.04746 0.46755 0.0
H823 H 0.35646 0.04237 0.45631 0.0
C824 C 0.30882 0.00947 0.39479 0.0
C825 C 0.32141 -0.00345 0.38006 0.0
C826 C 0.30655 0.00651 0.42242 0.0
C827 C 0.31719 -0.00906 0.43581 0.0
C828 C 0.33022 0.97852 0.42115 0.0
H829 H 0.35524 -0.00855 0.60116 0.0
H830 H 0.35515 -0.00448 0.55306 0.0
C831 C 0.33229 0.98126 0.39363 0.0
C832 C 0.3141 -0.01338 0.46497 0.0
H833 H 0.33274 0.02173 0.52412 0.0
C834 C 0.29992 0.95856 0.47485 0.0
C835 C 0.32622 0.00969 0.48296 0.0
C836 C 0.34286 0.04026 0.47363 0.0
C837 C 0.2978 0.95292 0.50218 0.0
C838 C 0.30964 0.97599 0.52018 0.0
C839 C 0.32354 0.00405 0.51031 0.0
C840 C 0.30915 0.97167 0.5493 0.0
C841 C 0.28377 0.92233 0.51146 0.0
C842 C 0.28329 0.95654 0.56326 0.0
C843 C 0.28327 0.95387 0.59088 0.0
C844 C 0.30911 0.96667 0.60505 0.0
C845 C 0.33493 0.98138 0.59091 0.0
C846 C 0.33493 0.98382 0.56338 0.0
H847 H 0.28249 0.90775 0.49536 0.0
H848 H 0.29556 0.91997 0.52839 0.0
H849 H 0.26169 0.91546 0.51812 0.0
H850 H 0.26311 0.94743 0.55289 0.0
H851 H 0.26301 0.94267 0.60119 0.0
H852 H 0.3171 0.35511 0.93421 0.0
H853 H 0.31376 0.35591 0.88621 0.0
H854 H 0.3117 0.27526 0.88152 0.0
H855 H 0.31429 0.27387 0.92998 0.0
H856 H 0.34961 0.3574 0.84929 0.0
H857 H 0.24406 0.26016 0.83582 0.0
H858 H 0.25705 0.2762 0.86784 0.0
H859 H 0.26927 0.25381 0.85336 0.0
C860 C 0.31589 0.33743 0.92309 0.0
C861 C 0.31592 0.31436 0.93604 0.0
C862 C 0.31393 0.33794 0.89556 0.0
C863 C 0.31203 0.31547 0.88023 0.0
C864 C 0.31244 0.29253 0.89298 0.0
H865 H 0.35086 0.32741 0.71324 0.0
H866 H 0.35026 0.3248 0.76136 0.0
C867 C 0.31417 0.29187 0.92066 0.0
C868 C 0.31067 0.31686 0.85089 0.0
H869 H 0.27087 0.2817 0.79667 0.0
C870 C 0.33232 0.34087 0.83782 0.0
C871 C 0.28786 0.29555 0.83594 0.0
C872 C 0.26308 0.27011 0.84894 0.0
C873 C 0.33206 0.34397 0.81024 0.0
C874 C 0.30991 0.32211 0.79517 0.0
C875 C 0.28795 0.29833 0.80823 0.0
C876 C 0.3097 0.32326 0.76578 0.0
C877 C 0.35532 0.3709 0.79759 0.0
C878 C 0.28662 0.3224 0.75212 0.0
C879 C 0.28673 0.32364 0.72437 0.0
C880 C 0.30991 0.32567 0.70984 0.0
C881 C 0.33278 0.32619 0.7237 0.0
C882 C 0.33257 0.32482 0.7513 0.0
H883 H 0.3651 0.38872 0.81202 0.0
H884 H 0.37241 0.36697 0.79023 0.0
H885 H 0.347 0.37763 0.78058 0.0
H886 H 0.26865 0.32102 0.76294 0.0
H887 H 0.26872 0.32303 0.71434 0.0
H888 H 0.94198 0.32406 0.26968 0.0
H889 H 0.93737 0.32056 0.2217 0.0
H890 H 0.019 0.32474 0.21567 0.0
H891 H 0.02354 0.32755 0.26407 0.0
H892 H 0.9699 0.35764 0.18427 0.0
H893 H 0.96905 0.25542 0.17073 0.0
H894 H 0.96522 0.26784 0.2028 0.0
H895 H -6e-05 0.28206 0.18791 0.0
C896 C 0.95902 0.32419 0.25826 0.0
C897 C -0.01685 0.32603 0.27082 0.0
C898 C 0.9563 0.32216 0.23076 0.0
C899 C -0.0224 0.32195 0.21506 0.0
C900 C 0.00196 0.32418 0.22741 0.0
H901 H -0.00101 0.35887 0.04721 0.0
H902 H 0.00224 0.35948 0.0953 0.0
C903 C 0.00463 0.32602 0.25507 0.0
C904 C 0.97443 0.32028 0.18577 0.0
H905 H 0.9715 0.28112 0.13159 0.0
C906 C 0.97019 0.34086 0.17278 0.0
C907 C 0.97431 0.2981 0.17081 0.0
C908 C -0.02291 0.27442 0.18376 0.0
C909 C 0.96622 0.34012 0.14527 0.0
C910 C 0.96719 0.3186 0.13017 0.0
C911 C 0.97097 0.29773 0.14316 0.0
C912 C 0.96499 0.31784 0.10083 0.0
C913 C 0.96053 0.36217 0.13271 0.0
C914 C 0.94335 0.29386 0.0878 0.0
C915 C 0.94151 0.29329 0.06009 0.0
C916 C 0.96138 0.31669 0.04494 0.0
C917 C -0.01689 0.34056 0.05816 0.0
C918 C -0.01503 0.34103 0.08574 0.0
H919 H 0.95197 0.37133 0.14734 0.0
H920 H -0.01917 0.37988 0.1248 0.0
H921 H 0.94513 0.35292 0.11609 0.0
H922 H 0.92779 0.27564 0.09909 0.0
H923 H 0.92462 0.27452 0.05057 0.0
H924 H 0.65464 0.95006 0.37945 0.0
H925 H 0.65923 0.95495 0.42776 0.0
H926 H 0.6192 0.00684 0.42658 0.0
H927 H 0.61511 0.00262 0.37853 0.0
H928 H 0.66748 0.03078 0.45628 0.0
H929 H 0.59817 0.91701 0.48423 0.0
H930 H 0.62679 0.92362 0.46201 0.0
H931 H 0.59878 0.93003 0.45117 0.0
C932 C 0.64649 0.96219 0.38954 0.0
C933 C 0.63449 0.97591 0.37511 0.0
C934 C 0.64909 0.96494 0.41716 0.0
C935 C 0.63937 0.98111 0.43083 0.0
C936 C 0.62693 -0.00566 0.41647 0.0
H937 H 0.59963 0.97965 0.59522 0.0
H938 H 0.60088 0.97689 0.54711 0.0
C939 C 0.62453 -0.00819 0.38897 0.0
C940 C 0.64266 -0.01495 0.45999 0.0
H941 H 0.62246 0.94934 0.51894 0.0
C942 C 0.65771 0.01297 0.47001 0.0
C943 C 0.62974 0.96182 0.47785 0.0
C944 C 0.61224 0.93144 0.46836 0.0
C945 C 0.65981 0.01833 0.49738 0.0
C946 C 0.64701 -0.00492 0.51524 0.0
C947 C 0.63237 0.96715 0.50522 0.0
C948 C 0.64697 -0.00091 0.54435 0.0
C949 C 0.67481 0.04883 0.50686 0.0
C950 C 0.67252 0.01302 0.55886 0.0
C951 C 0.67189 0.01495 0.58652 0.0
C952 C 0.64567 0.00259 0.60012 0.0
C953 C 0.6202 -0.0107 0.58541 0.0
C954 C 0.62086 -0.01239 0.55787 0.0
H955 H 0.67725 0.06392 0.49075 0.0
H956 H 0.66299 0.0516 0.52351 0.0
H957 H 0.69645 0.05461 0.514 0.0
H958 H 0.69293 0.02162 0.5489 0.0
H959 H 0.69186 0.02506 0.5973 0.0
H960 H 0.6586 0.61519 0.94316 0.0
H961 H 0.66344 0.61376 0.8953 0.0
H962 H 0.6453 0.6825 0.8862 0.0
H963 H 0.64116 0.68462 0.9344 0.0
H964 H 0.62432 0.6015 0.85826 0.0
H965 H 0.71511 0.71012 0.8399 0.0
H966 H 0.7053 0.695 0.87273 0.0
H967 H 0.68615 0.71036 0.85708 0.0
C968 C 0.65579 0.63018 0.93106 0.0
C969 C 0.64947 0.65005 0.94267 0.0
C970 C 0.65862 0.62933 0.90365 0.0
C971 C 0.65514 0.64826 0.88712 0.0
C972 C 0.64879 0.66814 0.89858 0.0
H973 H 0.60656 0.6251 0.72396 0.0
H974 H 0.60996 0.62623 0.77197 0.0
C975 C 0.64621 0.66919 0.92613 0.0
C976 C 0.65663 0.64596 0.85789 0.0
H977 H 0.68887 0.68392 0.8018 0.0
C978 C 0.63863 0.61949 0.84597 0.0
C979 C 0.67566 0.66925 0.84184 0.0
C980 C 0.69686 0.6977 0.85355 0.0
C981 C 0.63847 0.6159 0.81844 0.0
C982 C 0.65632 0.63959 0.80227 0.0
C983 C 0.67503 0.66583 0.8142 0.0
C984 C 0.65452 0.63798 0.77293 0.0
C985 C 0.6192 0.58671 0.80697 0.0
C986 C 0.67864 0.64469 0.75735 0.0
C987 C 0.67685 0.64425 0.72962 0.0
C988 C 0.65095 0.63734 0.71705 0.0
C989 C 0.62686 0.6304 0.73284 0.0
C990 C 0.62868 0.63087 0.7604 0.0
H991 H 0.61433 0.56962 0.82176 0.0
H992 H 0.59869 0.5851 0.80098 0.0
H993 H 0.62897 0.58281 0.78926 0.0
H994 H 0.69886 0.65041 0.76665 0.0
H995 H 0.69585 0.64987 0.71808 0.0
H996 H 0.92763 0.64125 0.26621 0.0
H997 H 0.93126 0.64289 0.21772 0.0
H998 H 0.00738 0.63619 0.22269 0.0
H999 H 0.00365 0.63389 0.27077 0.0
H1000 H 0.97431 0.68134 0.18513 0.0
H1001 H 0.95935 0.57313 0.17109 0.0
H1002 H 0.95175 0.58457 0.20209 0.0
H1003 H -0.01213 0.59447 0.19349 0.0
C1004 C 0.94499 0.63987 0.25696 0.0
C1005 C 0.96518 0.63717 0.27244 0.0
C1006 C 0.94709 0.64091 0.22926 0.0
C1007 C 0.96934 0.63919 0.21656 0.0
C1008 C -0.01035 0.63684 0.23199 0.0
H1009 H 0.02459 0.68653 0.05172 0.0
H1010 H 0.02179 0.68543 0.10027 0.0
C1011 C -0.0125 0.63565 0.25956 0.0
C1012 C 0.97177 0.64036 0.18723 0.0
H1013 H 0.97605 0.60415 0.13372 0.0
C1014 C 0.97455 0.66441 0.17384 0.0
C1015 C 0.97182 0.61814 0.1725 0.0
C1016 C 0.96725 0.591 0.18548 0.0
C1017 C -0.02228 0.667 0.14616 0.0
C1018 C -0.02126 0.6452 0.13155 0.0
C1019 C 0.97567 0.62104 0.14495 0.0
C1020 C -0.01876 0.64607 0.1022 0.0
C1021 C -0.02075 0.69271 0.13278 0.0
C1022 C 0.95994 0.62389 0.0872 0.0
C1023 C 0.96169 0.62424 0.05963 0.0
C1024 C -0.01519 0.64684 0.04628 0.0
C1025 C 0.00644 0.66888 0.06134 0.0
C1026 C 0.00474 0.66841 0.08908 0.0
H1027 H 0.97092 0.70351 0.14574 0.0
H1028 H 0.00184 0.70828 0.12805 0.0
H1029 H 0.96694 0.68664 0.114 0.0
H1030 H 0.94167 0.60639 0.09685 0.0
H1031 H 0.94459 0.60687 0.04879 0.0
loop_
_geom_bond_atom_site_label_1
_geom_bond_atom_site_label_2
_geom_bond_distance
_geom_bond_site_symmetry_2
_ccdc_geom_bond_type
C0 O1 1.306 . S
C0 O3 1.160 . S
O1 C0 1.306 . S
O1 Cd2 2.228 . S
Cd2 O1 2.228 . S
Cd2 O6 2.273 . S
Cd2 O10 2.277 . S
O3 C0 1.160 . S
O3 Cd4 2.203 1_565 S
Cd4 O3 2.203 1_545 S
Cd4 O6 2.411 1_545 S
Cd4 O7 2.333 . S
Cd4 O8 2.352 . S
Cd4 O12 2.277 . S
Cd4 O13 2.356 . S
C5 O10 1.209 1_545 S
C5 O12 1.226 . S
O6 Cd2 2.273 . S
O6 Cd4 2.411 1_565 S
O6 C9 1.320 1_565 S
O7 Cd4 2.333 . S
O7 C9 1.214 . S
O8 Cd4 2.352 . S
O8 C11 1.258 . S
C9 O6 1.320 1_545 S
C9 O7 1.214 . S
O10 Cd2 2.277 . S
O10 C5 1.209 1_565 S
C11 O8 1.258 . S
C11 O13 1.282 . S
O12 Cd4 2.277 . S
O12 C5 1.226 . S
O13 Cd4 2.356 . S
O13 C11 1.282 . S
C14 O15 1.306 . S
C14 O17 1.160 . S
O15 C14 1.306 . S
O15 Cd16 2.228 . S
Cd16 O15 2.228 . S
Cd16 O20 2.273 . S
Cd16 O24 2.277 . S
O17 C14 1.160 . S
O17 Cd18 2.203 . S
Cd18 O17 2.203 . S
Cd18 O20 2.411 . S
Cd18 O21 2.333 . S
Cd18 O22 2.352 . S
Cd18 O26 2.277 . S
Cd18 O27 2.356 . S
C19 O24 1.209 . S
C19 O26 1.226 . S
O20 Cd16 2.273 . S
O20 Cd18 2.411 . S
O20 C23 1.320 . S
O21 Cd18 2.333 . S
O21 C23 1.214 . S
O22 Cd18 2.352 . S
O22 C25 1.258 . S
C23 O20 1.320 . S
C23 O21 1.214 . S
O24 Cd16 2.277 . S
O24 C19 1.209 . S
C25 O22 1.258 . S
C25 O27 1.282 . S
O26 Cd18 2.277 . S
O26 C19 1.226 . S
O27 Cd18 2.356 . S
O27 C25 1.282 . S
C28 O29 1.306 . S
C28 O31 1.160 . S
O29 C28 1.306 . S
O29 Cd30 2.228 1_556 S
Cd30 O29 2.228 1_554 S
Cd30 O34 2.273 1_554 S
Cd30 O38 2.277 . S
O31 C28 1.160 . S
O31 Cd32 2.203 1_455 S
Cd32 O31 2.203 1_655 S
Cd32 O34 2.411 1_655 S
Cd32 O35 2.333 . S
Cd32 O36 2.352 . S
Cd32 O40 2.277 1_556 S
Cd32 O41 2.356 . S
C33 O38 1.209 1_655 S
C33 O40 1.226 . S
O34 Cd30 2.273 1_556 S
O34 Cd32 2.411 1_455 S
O34 C37 1.320 1_455 S
O35 Cd32 2.333 . S
O35 C37 1.214 . S
O36 Cd32 2.352 . S
O36 C39 1.258 . S
C37 O34 1.320 1_655 S
C37 O35 1.214 . S
O38 Cd30 2.277 . S
O38 C33 1.209 1_455 S
C39 O36 1.258 . S
C39 O41 1.282 . S
O40 Cd32 2.277 1_554 S
O40 C33 1.226 . S
O41 Cd32 2.356 . S
O41 C39 1.282 . S
C42 O43 1.306 . S
C42 O45 1.160 . S
O43 C42 1.306 . S
O43 Cd44 2.228 . S
Cd44 O43 2.228 . S
Cd44 O48 2.273 . S
Cd44 O52 2.277 . S
O45 C42 1.160 . S
O45 Cd46 2.203 1_545 S
Cd46 O45 2.203 1_565 S
Cd46 O48 2.411 1_565 S
Cd46 O49 2.333 . S
Cd46 O50 2.352 . S
Cd46 O54 2.277 . S
Cd46 O55 2.356 . S
C47 O52 1.209 1_565 S
C47 O54 1.226 . S
O48 Cd44 2.273 . S
O48 Cd46 2.411 1_545 S
O48 C51 1.320 1_545 S
O49 Cd46 2.333 . S
O49 C51 1.214 . S
O50 Cd46 2.352 . S
O50 C53 1.258 . S
C51 O48 1.320 1_565 S
C51 O49 1.214 . S
O52 Cd44 2.277 . S
O52 C47 1.209 1_545 S
C53 O50 1.258 . S
C53 O55 1.282 . S
O54 Cd46 2.277 . S
O54 C47 1.226 . S
O55 Cd46 2.356 . S
O55 C53 1.282 . S
C56 O57 1.306 . S
C56 O59 1.160 . S
O57 C56 1.306 . S
O57 Cd58 2.228 . S
Cd58 O57 2.228 . S
Cd58 O62 2.273 . S
Cd58 O66 2.277 . S
O59 C56 1.160 . S
O59 Cd60 2.203 . S
Cd60 O59 2.203 . S
Cd60 O62 2.411 . S
Cd60 O63 2.333 . S
Cd60 O64 2.352 . S
Cd60 O68 2.277 . S
Cd60 O69 2.356 . S
C61 O66 1.209 . S
C61 O68 1.226 . S
O62 Cd58 2.273 . S
O62 Cd60 2.411 . S
O62 C65 1.320 . S
O63 Cd60 2.333 . S
O63 C65 1.214 . S
O64 Cd60 2.352 . S
O64 C67 1.258 . S
C65 O62 1.320 . S
C65 O63 1.214 . S
O66 Cd58 2.277 . S
O66 C61 1.209 . S
C67 O64 1.258 . S
C67 O69 1.282 . S
O68 Cd60 2.277 . S
O68 C61 1.226 . S
O69 Cd60 2.356 . S
O69 C67 1.282 . S
C70 O71 1.306 . S
C70 O73 1.160 . S
O71 C70 1.306 . S
O71 Cd72 2.228 1_556 S
Cd72 O71 2.228 1_554 S
Cd72 O76 2.273 1_554 S
Cd72 O80 2.277 . S
O73 C70 1.160 . S
O73 Cd74 2.203 1_655 S
Cd74 O73 2.203 1_455 S
Cd74 O76 2.411 1_455 S
Cd74 O77 2.333 . S
Cd74 O78 2.352 . S
Cd74 O82 2.277 1_556 S
Cd74 O83 2.356 . S
C75 O80 1.209 1_455 S
C75 O82 1.226 . S
O76 Cd72 2.273 1_556 S
O76 Cd74 2.411 1_655 S
O76 C79 1.320 1_655 S
O77 Cd74 2.333 . S
O77 C79 1.214 . S
O78 Cd74 2.352 . S
O78 C81 1.258 . S
C79 O76 1.320 1_455 S
C79 O77 1.214 . S
O80 Cd72 2.277 . S
O80 C75 1.209 1_655 S
C81 O78 1.258 . S
C81 O83 1.282 . S
O82 Cd74 2.277 1_554 S
O82 C75 1.226 . S
O83 Cd74 2.356 . S
O83 C81 1.282 . S
C84 O85 1.306 . S
C84 O87 1.160 . S
O85 C84 1.306 . S
O85 Cd86 2.228 . S
Cd86 O85 2.228 . S
Cd86 O90 2.273 . S
Cd86 O94 2.277 . S
O87 C84 1.160 . S
O87 Cd88 2.203 1_455 S
Cd88 O87 2.203 1_655 S
Cd88 O90 2.411 1_655 S
Cd88 O91 2.333 . S
Cd88 O92 2.352 . S
Cd88 O96 2.277 . S
Cd88 O97 2.356 . S
C89 O94 1.209 1_655 S
C89 O96 1.226 . S
O90 Cd86 2.273 . S
O90 Cd88 2.411 1_455 S
O90 C93 1.320 1_455 S
O91 Cd88 2.333 . S
O91 C93 1.214 . S
O92 Cd88 2.352 . S
O92 C95 1.258 . S
C93 O90 1.320 1_655 S
C93 O91 1.214 . S
O94 Cd86 2.277 . S
O94 C89 1.209 1_455 S
C95 O92 1.258 . S
C95 O97 1.282 . S
O96 Cd88 2.277 . S
O96 C89 1.226 . S
O97 Cd88 2.356 . S
O97 C95 1.282 . S
C98 O99 1.306 . S
C98 O101 1.160 . S
O99 C98 1.306 . S
O99 Cd100 2.228 . S
Cd100 O99 2.228 . S
Cd100 O104 2.273 . S
Cd100 O108 2.277 . S
O101 C98 1.160 . S
O101 Cd102 2.203 1_545 S
Cd102 O101 2.203 1_565 S
Cd102 O104 2.411 1_565 S
Cd102 O105 2.333 . S
Cd102 O106 2.352 . S
Cd102 O110 2.277 . S
Cd102 O111 2.356 . S
C103 O108 1.209 1_565 S
C103 O110 1.226 . S
O104 Cd100 2.273 . S
O104 Cd102 2.411 1_545 S
O104 C107 1.320 1_545 S
O105 Cd102 2.333 . S
O105 C107 1.214 . S
O106 Cd102 2.352 . S
O106 C109 1.258 . S
C107 O104 1.320 1_565 S
C107 O105 1.214 . S
O108 Cd100 2.277 . S
O108 C103 1.209 1_545 S
C109 O106 1.258 . S
C109 O111 1.282 . S
O110 Cd102 2.277 . S
O110 C103 1.226 . S
O111 Cd102 2.356 . S
O111 C109 1.282 . S
C112 O113 1.306 . S
C112 O115 1.160 . S
O113 C112 1.306 . S
O113 Cd114 2.228 1_554 S
Cd114 O113 2.228 1_556 S
Cd114 O118 2.273 1_556 S
Cd114 O122 2.277 . S
O115 C112 1.160 . S
O115 Cd116 2.203 . S
Cd116 O115 2.203 . S
Cd116 O118 2.411 . S
Cd116 O119 2.333 . S
Cd116 O120 2.352 . S
Cd116 O124 2.277 1_554 S
Cd116 O125 2.356 . S
C117 O122 1.209 . S
C117 O124 1.226 . S
O118 Cd114 2.273 1_554 S
O118 Cd116 2.411 . S
O118 C121 1.320 . S
O119 Cd116 2.333 . S
O119 C121 1.214 . S
O120 Cd116 2.352 . S
O120 C123 1.258 . S
C121 O118 1.320 . S
C121 O119 1.214 . S
O122 Cd114 2.277 . S
O122 C117 1.209 . S
C123 O120 1.258 . S
C123 O125 1.282 . S
O124 Cd116 2.277 1_556 S
O124 C117 1.226 . S
O125 Cd116 2.356 . S
O125 C123 1.282 . S
C126 O127 1.306 . S
C126 O129 1.160 . S
O127 C126 1.306 . S
O127 Cd128 2.228 . S
Cd128 O127 2.228 . S
Cd128 O132 2.273 . S
Cd128 O136 2.277 . S
O129 C126 1.160 . S
O129 Cd130 2.203 1_655 S
Cd130 O129 2.203 1_455 S
Cd130 O132 2.411 1_455 S
Cd130 O133 2.333 . S
Cd130 O134 2.352 . S
Cd130 O138 2.277 . S
Cd130 O139 2.356 . S
C131 O136 1.209 1_455 S
C131 O138 1.226 . S
O132 Cd128 2.273 . S
O132 Cd130 2.411 1_655 S
O132 C135 1.320 1_655 S
O133 Cd130 2.333 . S
O133 C135 1.214 . S
O134 Cd130 2.352 . S
O134 C137 1.258 . S
C135 O132 1.320 1_455 S
C135 O133 1.214 . S
O136 Cd128 2.277 . S
O136 C131 1.209 1_655 S
C137 O134 1.258 . S
C137 O139 1.282 . S
O138 Cd130 2.277 . S
O138 C131 1.226 . S
O139 Cd130 2.356 . S
O139 C137 1.282 . S
C140 O141 1.306 . S
C140 O143 1.160 . S
O141 C140 1.306 . S
O141 Cd142 2.228 . S
Cd142 O141 2.228 . S
Cd142 O146 2.273 . S
Cd142 O150 2.277 . S
O143 C140 1.160 . S
O143 Cd144 2.203 1_565 S
Cd144 O143 2.203 1_545 S
Cd144 O146 2.411 1_545 S
Cd144 O147 2.333 . S
Cd144 O148 2.352 . S
Cd144 O152 2.277 . S
Cd144 O153 2.356 . S
C145 O150 1.209 1_545 S
C145 O152 1.226 . S
O146 Cd142 2.273 . S
O146 Cd144 2.411 1_565 S
O146 C149 1.320 1_565 S
O147 Cd144 2.333 . S
O147 C149 1.214 . S
O148 Cd144 2.352 . S
O148 C151 1.258 . S
C149 O146 1.320 1_545 S
C149 O147 1.214 . S
O150 Cd142 2.277 . S
O150 C145 1.209 1_565 S
C151 O148 1.258 . S
C151 O153 1.282 . S
O152 Cd144 2.277 . S
O152 C145 1.226 . S
O153 Cd144 2.356 . S
O153 C151 1.282 . S
C154 O155 1.306 . S
C154 O157 1.160 . S
O155 C154 1.306 . S
O155 Cd156 2.228 1_554 S
Cd156 O155 2.228 1_556 S
Cd156 O160 2.273 1_556 S
Cd156 O164 2.277 . S
O157 C154 1.160 . S
O157 Cd158 2.203 . S
Cd158 O157 2.203 . S
Cd158 O160 2.411 . S
Cd158 O161 2.333 . S
Cd158 O162 2.352 . S
Cd158 O166 2.277 1_554 S
Cd158 O167 2.356 . S
C159 O164 1.209 . S
C159 O166 1.226 . S
O160 Cd156 2.273 1_554 S
O160 Cd158 2.411 . S
O160 C163 1.320 . S
O161 Cd158 2.333 . S
O161 C163 1.214 . S
O162 Cd158 2.352 . S
O162 C165 1.258 . S
C163 O160 1.320 . S
C163 O161 1.214 . S
O164 Cd156 2.277 . S
O164 C159 1.209 . S
C165 O162 1.258 . S
C165 O167 1.282 . S
O166 Cd158 2.277 1_556 S
O166 C159 1.226 . S
O167 Cd158 2.356 . S
O167 C165 1.282 . S
H168 C176 0.929 . S
H169 C178 0.930 . S
H170 C180 0.930 . S
H171 C183 0.929 . S
H172 C186 0.930 . S
H173 C188 0.960 . S
H174 C188 0.960 . S
H175 C188 0.960 . S
C176 H168 0.929 . S
C176 C177 1.377 . S
C176 C178 1.384 . S
C177 C176 1.377 . S
C177 C183 1.390 . S
C178 H169 0.930 . S
C178 C176 1.384 . S
C178 C179 1.372 . S
C179 C178 1.372 . S
C179 C180 1.400 . S
C179 C184 1.490 . S
C180 H170 0.930 . S
C180 C179 1.400 . S
C180 C183 1.386 . S
H181 C197 0.930 . S
H182 C198 0.931 . S
C183 H171 0.929 . S
C183 C177 1.390 . S
C183 C180 1.386 . S
C184 C179 1.490 . S
C184 C186 1.395 . S
C184 C187 1.403 . S
H185 C191 0.930 . S
C186 H172 0.930 . S
C186 C184 1.395 . S
C186 C189 1.403 . S
C187 C184 1.403 . S
C187 C188 1.524 . S
C187 C191 1.400 . S
C188 H173 0.960 . S
C188 H174 0.960 . S
C188 H175 0.960 . S
C188 C187 1.524 . S
C189 C186 1.403 . S
C189 C190 1.392 . S
C189 C193 1.495 . S
C190 C189 1.392 . S
C190 C191 1.385 . S
C190 C192 1.478 . S
C191 H185 0.930 . S
C191 C187 1.400 . S
C191 C190 1.385 . S
C192 C190 1.478 . S
C192 C194 1.381 . S
C192 C198 1.383 . S
C193 C189 1.495 . S
C193 H199 0.959 . S
C193 H200 0.961 . S
C193 H201 0.960 . S
C194 C192 1.381 . S
C194 C195 1.394 . S
C194 H202 0.930 . S
C195 C194 1.394 . S
C195 C196 1.383 . S
C195 H203 0.929 . S
C196 C195 1.383 . S
C196 C197 1.377 . S
C197 H181 0.930 . S
C197 C196 1.377 . S
C197 C198 1.379 . S
C198 H182 0.931 . S
C198 C192 1.383 . S
C198 C197 1.379 . S
H199 C193 0.959 . S
H200 C193 0.961 . S
H201 C193 0.960 . S
H202 C194 0.930 . S
H203 C195 0.929 . S
H204 C212 0.929 . S
H205 C214 0.930 . S
H206 C216 0.930 . S
H207 C219 0.929 . S
H208 C222 0.930 . S
H209 C224 0.960 . S
H210 C224 0.960 . S
H211 C224 0.960 . S
C212 H204 0.929 . S
C212 C213 1.377 . S
C212 C214 1.384 . S
C213 C212 1.377 . S
C213 C219 1.390 . S
C214 H205 0.930 . S
C214 C212 1.384 . S
C214 C215 1.372 . S
C215 C214 1.372 . S
C215 C216 1.400 . S
C215 C220 1.490 . S
C216 H206 0.930 . S
C216 C215 1.400 . S
C216 C219 1.386 . S
H217 C233 0.930 . S
H218 C234 0.931 . S
C219 H207 0.929 . S
C219 C213 1.390 . S
C219 C216 1.386 . S
C220 C215 1.490 . S
C220 C222 1.395 . S
C220 C223 1.403 . S
H221 C227 0.930 . S
C222 H208 0.930 . S
C222 C220 1.395 . S
C222 C225 1.403 . S
C223 C220 1.403 . S
C223 C224 1.524 . S
C223 C227 1.400 . S
C224 H209 0.960 . S
C224 H210 0.960 . S
C224 H211 0.960 . S
C224 C223 1.524 . S
C225 C222 1.403 . S
C225 C226 1.392 . S
C225 C229 1.495 . S
C226 C225 1.392 . S
C226 C227 1.385 . S
C226 C228 1.478 . S
C227 H221 0.930 . S
C227 C223 1.400 . S
C227 C226 1.385 . S
C228 C226 1.478 . S
C228 C230 1.381 . S
C228 C234 1.383 . S
C229 C225 1.495 . S
C229 H235 0.959 . S
C229 H236 0.961 . S
C229 H237 0.960 . S
C230 C228 1.381 . S
C230 C231 1.394 . S
C230 H238 0.930 . S
C231 C230 1.394 . S
C231 C232 1.383 . S
C231 H239 0.929 . S
C232 C231 1.383 . S
C232 C233 1.377 . S
C233 H217 0.930 . S
C233 C232 1.377 . S
C233 C234 1.379 . S
C234 H218 0.931 . S
C234 C228 1.383 . S
C234 C233 1.379 . S
H235 C229 0.959 . S
H236 C229 0.961 . S
H237 C229 0.960 . S
H238 C230 0.930 . S
H239 C231 0.929 . S
H240 C248 0.929 . S
H241 C250 0.930 . S
H242 C252 0.930 . S
H243 C255 0.929 . S
H244 C258 0.930 . S
H245 C260 0.960 . S
H246 C260 0.960 . S
H247 C260 0.960 . S
C248 H240 0.929 . S
C248 C249 1.377 . S
C248 C250 1.384 . S
C249 C248 1.377 . S
C249 C255 1.390 . S
C250 H241 0.930 . S
C250 C248 1.384 . S
C250 C251 1.372 . S
C251 C250 1.372 . S
C251 C252 1.400 . S
C251 C256 1.490 . S
C252 H242 0.930 . S
C252 C251 1.400 . S
C252 C255 1.386 . S
H253 C269 0.930 . S
H254 C270 0.931 . S
C255 H243 0.929 . S
C255 C249 1.390 . S
C255 C252 1.386 . S
C256 C251 1.490 . S
C256 C258 1.395 . S
C256 C259 1.403 . S
H257 C263 0.930 . S
C258 H244 0.930 . S
C258 C256 1.395 . S
C258 C261 1.403 . S
C259 C256 1.403 . S
C259 C260 1.524 . S
C259 C263 1.400 . S
C260 H245 0.960 . S
C260 H246 0.960 . S
C260 H247 0.960 . S
C260 C259 1.524 . S
C261 C258 1.403 . S
C261 C262 1.392 . S
C261 C265 1.495 . S
C262 C261 1.392 . S
C262 C263 1.385 . S
C262 C264 1.478 . S
C263 H257 0.930 . S
C263 C259 1.400 . S
C263 C262 1.385 . S
C264 C262 1.478 . S
C264 C266 1.381 . S
C264 C270 1.383 . S
C265 C261 1.495 . S
C265 H271 0.959 . S
C265 H272 0.961 . S
C265 H273 0.960 . S
C266 C264 1.381 . S
C266 C267 1.394 . S
C266 H274 0.930 . S
C267 C266 1.394 . S
C267 C268 1.383 . S
C267 H275 0.929 . S
C268 C267 1.383 . S
C268 C269 1.377 . S
C269 H253 0.930 . S
C269 C268 1.377 . S
C269 C270 1.379 . S
C270 H254 0.931 . S
C270 C264 1.383 . S
C270 C269 1.379 . S
H271 C265 0.959 . S
H272 C265 0.961 . S
H273 C265 0.960 . S
H274 C266 0.930 . S
H275 C267 0.929 . S
H276 C284 0.929 . S
H277 C286 0.930 . S
H278 C288 0.930 . S
H279 C291 0.929 . S
H280 C294 0.930 . S
H281 C296 0.960 . S
H282 C296 0.960 . S
H283 C296 0.960 . S
C284 H276 0.929 . S
C284 C285 1.377 . S
C284 C286 1.384 . S
C285 C284 1.377 . S
C285 C291 1.390 . S
C286 H277 0.930 . S
C286 C284 1.384 . S
C286 C287 1.372 . S
C287 C286 1.372 . S
C287 C288 1.400 . S
C287 C292 1.490 . S
C288 H278 0.930 . S
C288 C287 1.400 . S
C288 C291 1.386 . S
H289 C305 0.930 . S
H290 C306 0.931 . S
C291 H279 0.929 . S
C291 C285 1.390 . S
C291 C288 1.386 . S
C292 C287 1.490 . S
C292 C294 1.395 . S
C292 C295 1.403 . S
H293 C299 0.930 . S
C294 H280 0.930 . S
C294 C292 1.395 . S
C294 C297 1.403 . S
C295 C292 1.403 . S
C295 C296 1.524 . S
C295 C299 1.400 . S
C296 H281 0.960 . S
C296 H282 0.960 . S
C296 H283 0.960 . S
C296 C295 1.524 . S
C297 C294 1.403 . S
C297 C298 1.392 . S
C297 C301 1.495 . S
C298 C297 1.392 . S
C298 C299 1.385 . S
C298 C300 1.478 . S
C299 H293 0.930 . S
C299 C295 1.400 . S
C299 C298 1.385 . S
C300 C298 1.478 . S
C300 C302 1.381 . S
C300 C306 1.383 . S
C301 C297 1.495 . S
C301 H307 0.959 . S
C301 H308 0.961 . S
C301 H309 0.960 . S
C302 C300 1.381 . S
C302 C303 1.394 . S
C302 H310 0.930 . S
C303 C302 1.394 . S
C303 C304 1.383 . S
C303 H311 0.929 . S
C304 C303 1.383 . S
C304 C305 1.377 . S
C305 H289 0.930 . S
C305 C304 1.377 . S
C305 C306 1.379 . S
C306 H290 0.931 . S
C306 C300 1.383 . S
C306 C305 1.379 . S
H307 C301 0.959 . S
H308 C301 0.961 . S
H309 C301 0.960 . S
H310 C302 0.930 . S
H311 C303 0.929 . S
H312 C320 0.929 . S
H313 C322 0.930 . S
H314 C324 0.930 . S
H315 C327 0.929 . S
H316 C330 0.930 . S
H317 C332 0.960 . S
H318 C332 0.960 . S
H319 C332 0.960 . S
C320 H312 0.929 . S
C320 C321 1.377 . S
C320 C322 1.384 . S
C321 C320 1.377 . S
C321 C327 1.390 . S
C322 H313 0.930 . S
C322 C320 1.384 . S
C322 C323 1.372 . S
C323 C322 1.372 . S
C323 C324 1.400 . S
C323 C328 1.490 . S
C324 H314 0.930 . S
C324 C323 1.400 . S
C324 C327 1.386 . S
H325 C341 0.930 . S
H326 C342 0.931 . S
C327 H315 0.929 . S
C327 C321 1.390 . S
C327 C324 1.386 . S
C328 C323 1.490 . S
C328 C330 1.395 . S
C328 C331 1.403 . S
H329 C335 0.930 . S
C330 H316 0.930 . S
C330 C328 1.395 . S
C330 C333 1.403 . S
C331 C328 1.403 . S
C331 C332 1.524 . S
C331 C335 1.400 . S
C332 H317 0.960 . S
C332 H318 0.960 . S
C332 H319 0.960 . S
C332 C331 1.524 . S
C333 C330 1.403 . S
C333 C334 1.392 . S
C333 C337 1.495 . S
C334 C333 1.392 . S
C334 C335 1.385 . S
C334 C336 1.478 . S
C335 H329 0.930 . S
C335 C331 1.400 . S
C335 C334 1.385 . S
C336 C334 1.478 . S
C336 C338 1.381 . S
C336 C342 1.383 . S
C337 C333 1.495 . S
C337 H343 0.959 . S
C337 H344 0.961 . S
C337 H345 0.960 . S
C338 C336 1.381 . S
C338 C339 1.394 . S
C338 H346 0.930 . S
C339 C338 1.394 . S
C339 C340 1.383 . S
C339 H347 0.929 . S
C340 C339 1.383 . S
C340 C341 1.377 . S
C341 H325 0.930 . S
C341 C340 1.377 . S
C341 C342 1.379 . S
C342 H326 0.931 . S
C342 C336 1.383 . S
C342 C341 1.379 . S
H343 C337 0.959 . S
H344 C337 0.961 . S
H345 C337 0.960 . S
H346 C338 0.930 . S
H347 C339 0.929 . S
H348 C356 0.929 . S
H349 C358 0.930 . S
H350 C360 0.930 . S
H351 C363 0.929 . S
H352 C366 0.930 . S
H353 C368 0.960 . S
H354 C368 0.960 . S
H355 C368 0.960 . S
C356 H348 0.929 . S
C356 C357 1.377 . S
C356 C358 1.384 . S
C357 C356 1.377 . S
C357 C363 1.390 . S
C358 H349 0.930 . S
C358 C356 1.384 . S
C358 C359 1.372 . S
C359 C358 1.372 . S
C359 C360 1.400 . S
C359 C364 1.490 . S
C360 H350 0.930 . S
C360 C359 1.400 . S
C360 C363 1.386 . S
H361 C377 0.930 . S
H362 C378 0.931 . S
C363 H351 0.929 . S
C363 C357 1.390 . S
C363 C360 1.386 . S
C364 C359 1.490 . S
C364 C366 1.395 . S
C364 C367 1.403 . S
H365 C371 0.930 . S
C366 H352 0.930 . S
C366 C364 1.395 . S
C366 C369 1.403 . S
C367 C364 1.403 . S
C367 C368 1.524 . S
C367 C371 1.400 . S
C368 H353 0.960 . S
C368 H354 0.960 . S
C368 H355 0.960 . S
C368 C367 1.524 . S
C369 C366 1.403 . S
C369 C370 1.392 . S
C369 C373 1.495 . S
C370 C369 1.392 . S
C370 C371 1.385 . S
C370 C372 1.478 . S
C371 H365 0.930 . S
C371 C367 1.400 . S
C371 C370 1.385 . S
C372 C370 1.478 . S
C372 C374 1.381 . S
C372 C378 1.383 . S
C373 C369 1.495 . S
C373 H379 0.959 . S
C373 H380 0.961 . S
C373 H381 0.960 . S
C374 C372 1.381 . S
C374 C375 1.394 . S
C374 H382 0.930 . S
C375 C374 1.394 . S
C375 C376 1.383 . S
C375 H383 0.929 . S
C376 C375 1.383 . S
C376 C377 1.377 . S
C377 H361 0.930 . S
C377 C376 1.377 . S
C377 C378 1.379 . S
C378 H362 0.931 . S
C378 C372 1.383 . S
C378 C377 1.379 . S
H379 C373 0.959 . S
H380 C373 0.961 . S
H381 C373 0.960 . S
H382 C374 0.930 . S
H383 C375 0.929 . S
H384 C392 0.929 1_565 S
H385 C394 0.934 . S
H386 C396 0.930 . S
H387 C399 0.929 . S
H388 C402 0.930 . S
H389 C404 0.960 . S
H390 C404 0.960 . S
H391 C404 0.960 . S
C392 H384 0.929 1_545 S
C392 C393 1.377 . S
C392 C394 1.379 1_545 S
C393 C392 1.377 . S
C393 C399 1.390 . S
C394 H385 0.934 . S
C394 C392 1.379 1_565 S
C394 C395 1.372 1_565 S
C395 C394 1.372 1_545 S
C395 C396 1.400 . S
C395 C400 1.490 . S
C396 H386 0.930 . S
C396 C395 1.400 . S
C396 C399 1.386 . S
H397 C413 0.930 1_545 S
H398 C414 0.931 . S
C399 H387 0.929 . S
C399 C393 1.390 . S
C399 C396 1.386 . S
C400 C395 1.490 . S
C400 C402 1.395 . S
C400 C403 1.403 1_545 S
H401 C407 0.930 . S
C402 H388 0.930 . S
C402 C400 1.395 . S
C402 C405 1.403 . S
C403 C400 1.403 1_565 S
C403 C404 1.524 . S
C403 C407 1.400 . S
C404 H389 0.960 . S
C404 H390 0.960 . S
C404 H391 0.960 . S
C404 C403 1.524 . S
C405 C402 1.403 . S
C405 C406 1.392 1_545 S
C405 C409 1.495 . S
C406 C405 1.392 1_565 S
C406 C407 1.385 . S
C406 C408 1.478 . S
C407 H401 0.930 . S
C407 C403 1.400 . S
C407 C406 1.385 . S
C408 C406 1.478 . S
C408 C410 1.381 . S
C408 C414 1.383 1_565 S
C409 C405 1.495 . S
C409 H415 0.959 . S
C409 H416 0.961 . S
C409 H417 0.960 . S
C410 C408 1.381 . S
C410 C411 1.394 . S
C410 H418 0.930 . S
C411 C410 1.394 . S
C411 C412 1.383 . S
C411 H419 0.929 . S
C412 C411 1.383 . S
C412 C413 1.374 . S
C413 H397 0.930 1_565 S
C413 C412 1.374 . S
C413 C414 1.382 1_565 S
C414 H398 0.931 . S
C414 C408 1.383 1_545 S
C414 C413 1.382 1_545 S
H415 C409 0.959 . S
H416 C409 0.961 . S
H417 C409 0.960 . S
H418 C410 0.930 . S
H419 C411 0.929 . S
H420 C428 0.929 . S
H421 C430 0.930 . S
H422 C432 0.930 . S
H423 C435 0.929 . S
H424 C438 0.930 . S
H425 C440 0.960 . S
H426 C440 0.960 . S
H427 C440 0.960 . S
C428 H420 0.929 . S
C428 C429 1.377 . S
C428 C430 1.384 . S
C429 C428 1.377 . S
C429 C435 1.390 . S
C430 H421 0.930 . S
C430 C428 1.384 . S
C430 C431 1.372 . S
C431 C430 1.372 . S
C431 C432 1.400 . S
C431 C436 1.490 . S
C432 H422 0.930 . S
C432 C431 1.400 . S
C432 C435 1.386 . S
H433 C449 0.930 . S
H434 C450 0.931 . S
C435 H423 0.929 . S
C435 C429 1.390 . S
C435 C432 1.386 . S
C436 C431 1.490 . S
C436 C438 1.395 . S
C436 C439 1.403 . S
H437 C443 0.930 . S
C438 H424 0.930 . S
C438 C436 1.395 . S
C438 C441 1.403 . S
C439 C436 1.403 . S
C439 C440 1.524 . S
C439 C443 1.400 . S
C440 H425 0.960 . S
C440 H426 0.960 . S
C440 H427 0.960 . S
C440 C439 1.524 . S
C441 C438 1.403 . S
C441 C442 1.392 . S
C441 C445 1.495 . S
C442 C441 1.392 . S
C442 C443 1.385 . S
C442 C444 1.478 . S
C443 H437 0.930 . S
C443 C439 1.400 . S
C443 C442 1.385 . S
C444 C442 1.478 . S
C444 C446 1.381 . S
C444 C450 1.383 . S
C445 C441 1.495 . S
C445 H451 0.959 . S
C445 H452 0.961 . S
C445 H453 0.960 . S
C446 C444 1.381 . S
C446 C447 1.394 . S
C446 H454 0.930 . S
C447 C446 1.394 . S
C447 C448 1.383 . S
C447 H455 0.929 . S
C448 C447 1.383 . S
C448 C449 1.377 . S
C449 H433 0.930 . S
C449 C448 1.377 . S
C449 C450 1.379 . S
C450 H434 0.931 . S
C450 C444 1.383 . S
C450 C449 1.379 . S
H451 C445 0.959 . S
H452 C445 0.961 . S
H453 C445 0.960 . S
H454 C446 0.930 . S
H455 C447 0.929 . S
H456 C464 0.929 1_554 S
H457 C466 0.930 1_654 S
H458 C468 0.930 . S
H459 C471 0.929 . S
H460 C474 0.930 . S
H461 C476 0.960 . S
H462 C476 0.960 . S
H463 C476 0.960 . S
C464 H456 0.929 1_556 S
C464 C465 1.377 . S
C464 C466 1.384 . S
C465 C464 1.377 . S
C465 C471 1.390 . S
C466 H457 0.930 1_456 S
C466 C464 1.384 . S
C466 C467 1.372 . S
C467 C466 1.372 . S
C467 C468 1.400 . S
C467 C472 1.490 . S
C468 H458 0.930 . S
C468 C467 1.400 . S
C468 C471 1.386 . S
H469 C485 0.930 . S
H470 C486 0.931 . S
C471 H459 0.929 . S
C471 C465 1.390 . S
C471 C468 1.386 . S
C472 C467 1.490 . S
C472 C474 1.395 1_455 S
C472 C475 1.403 . S
H473 C479 0.930 . S
C474 H460 0.930 . S
C474 C472 1.395 1_655 S
C474 C477 1.403 . S
C475 C472 1.403 . S
C475 C476 1.524 . S
C475 C479 1.400 . S
C476 H461 0.960 . S
C476 H462 0.960 . S
C476 H463 0.960 . S
C476 C475 1.524 . S
C477 C474 1.403 . S
C477 C478 1.392 . S
C477 C481 1.495 . S
C478 C477 1.392 . S
C478 C479 1.385 1_655 S
C478 C480 1.478 . S
C479 H473 0.930 . S
C479 C475 1.400 . S
C479 C478 1.385 1_455 S
C480 C478 1.478 . S
C480 C482 1.381 . S
C480 C486 1.383 . S
C481 C477 1.495 . S
C481 H487 0.959 . S
C481 H488 0.961 . S
C481 H489 0.960 1_556 S
C482 C480 1.381 . S
C482 C483 1.394 . S
C482 H490 0.930 1_556 S
C483 C482 1.394 . S
C483 C484 1.383 . S
C483 H491 0.929 1_556 S
C484 C483 1.383 . S
C484 C485 1.377 . S
C485 H469 0.930 . S
C485 C484 1.377 . S
C485 C486 1.379 . S
C486 H470 0.931 . S
C486 C480 1.383 . S
C486 C485 1.379 . S
H487 C481 0.959 . S
H488 C481 0.961 . S
H489 C481 0.960 1_554 S
H490 C482 0.930 1_554 S
H491 C483 0.929 1_554 S
H492 C500 0.929 . S
H493 C502 0.930 1_455 S
H494 C504 0.930 . S
H495 C507 0.929 . S
H496 C510 0.930 . S
H497 C512 0.960 . S
H498 C512 0.960 . S
H499 C512 0.960 . S
C500 H492 0.929 . S
C500 C501 1.377 . S
C500 C502 1.384 . S
C501 C500 1.377 . S
C501 C507 1.390 . S
C502 H493 0.930 1_655 S
C502 C500 1.384 . S
C502 C503 1.372 . S
C503 C502 1.372 . S
C503 C504 1.400 . S
C503 C508 1.490 . S
C504 H494 0.930 . S
C504 C503 1.400 . S
C504 C507 1.386 . S
H505 C521 0.930 . S
H506 C522 0.931 . S
C507 H495 0.929 . S
C507 C501 1.390 . S
C507 C504 1.386 . S
C508 C503 1.490 . S
C508 C510 1.395 1_655 S
C508 C511 1.403 . S
H509 C515 0.930 . S
C510 H496 0.930 . S
C510 C508 1.395 1_455 S
C510 C513 1.403 . S
C511 C508 1.403 . S
C511 C512 1.524 . S
C511 C515 1.400 . S
C512 H497 0.960 . S
C512 H498 0.960 . S
C512 H499 0.960 . S
C512 C511 1.524 . S
C513 C510 1.403 . S
C513 C514 1.392 . S
C513 C517 1.495 . S
C514 C513 1.392 . S
C514 C515 1.385 1_455 S
C514 C516 1.478 . S
C515 H509 0.930 . S
C515 C511 1.400 . S
C515 C514 1.385 1_655 S
C516 C514 1.478 . S
C516 C518 1.381 . S
C516 C522 1.383 . S
C517 C513 1.495 . S
C517 H523 0.959 . S
C517 H524 0.961 . S
C517 H525 0.960 . S
C518 C516 1.381 . S
C518 C519 1.394 . S
C518 H526 0.930 . S
C519 C518 1.394 . S
C519 C520 1.383 . S
C519 H527 0.929 . S
C520 C519 1.383 . S
C520 C521 1.377 . S
C521 H505 0.930 . S
C521 C520 1.377 . S
C521 C522 1.379 . S
C522 H506 0.931 . S
C522 C516 1.383 . S
C522 C521 1.379 . S
H523 C517 0.959 . S
H524 C517 0.961 . S
H525 C517 0.960 . S
H526 C518 0.930 . S
H527 C519 0.929 . S
H528 C536 0.923 1_565 S
H529 C538 0.930 . S
H530 C540 0.930 . S
H531 C543 0.929 . S
H532 C546 0.930 . S
H533 C548 0.960 . S
H534 C548 0.960 . S
H535 C548 0.960 . S
C536 H528 0.923 1_545 S
C536 C537 1.380 . S
C536 C538 1.387 1_545 S
C537 C536 1.380 . S
C537 C543 1.390 . S
C538 H529 0.930 . S
C538 C536 1.387 1_565 S
C538 C539 1.372 1_565 S
C539 C538 1.372 1_545 S
C539 C540 1.400 . S
C539 C544 1.490 . S
C540 H530 0.930 . S
C540 C539 1.400 . S
C540 C543 1.386 . S
H541 C557 0.930 1_545 S
H542 C558 0.931 1_545 S
C543 H531 0.929 . S
C543 C537 1.390 . S
C543 C540 1.386 . S
C544 C539 1.490 . S
C544 C546 1.395 1_545 S
C544 C547 1.403 . S
H545 C551 0.930 . S
C546 H532 0.930 . S
C546 C544 1.395 1_565 S
C546 C549 1.403 . S
C547 C544 1.403 . S
C547 C548 1.524 . S
C547 C551 1.400 . S
C548 H533 0.960 . S
C548 H534 0.960 . S
C548 H535 0.960 . S
C548 C547 1.524 . S
C549 C546 1.403 . S
C549 C550 1.392 . S
C549 C553 1.495 . S
C550 C549 1.392 . S
C550 C551 1.385 1_565 S
C550 C552 1.478 . S
C551 H545 0.930 . S
C551 C547 1.400 . S
C551 C550 1.385 1_545 S
C552 C550 1.478 . S
C552 C554 1.381 . S
C552 C558 1.383 . S
C553 C549 1.495 . S
C553 H559 0.959 . S
C553 H560 0.961 . S
C553 H561 0.960 . S
C554 C552 1.381 . S
C554 C555 1.394 . S
C554 H562 0.930 . S
C555 C554 1.394 . S
C555 C556 1.383 . S
C555 H563 0.929 . S
C556 C555 1.383 . S
C556 C557 1.377 . S
C557 H541 0.930 1_565 S
C557 C556 1.377 . S
C557 C558 1.379 . S
C558 H542 0.931 1_565 S
C558 C552 1.383 . S
C558 C557 1.379 . S
H559 C553 0.959 . S
H560 C553 0.961 . S
H561 C553 0.960 . S
H562 C554 0.930 . S
H563 C555 0.929 . S
H564 C572 0.929 . S
H565 C574 0.930 . S
H566 C576 0.930 1_556 S
H567 C579 0.929 1_556 S
H568 C582 0.930 . S
H569 C584 0.960 . S
H570 C584 0.960 . S
H571 C584 0.965 . S
C572 H564 0.929 . S
C572 C573 1.377 . S
C572 C574 1.384 . S
C573 C572 1.377 . S
C573 C579 1.390 . S
C574 H565 0.930 . S
C574 C572 1.384 . S
C574 C575 1.372 . S
C575 C574 1.372 . S
C575 C576 1.400 . S
C575 C580 1.490 . S
C576 H566 0.930 1_554 S
C576 C575 1.400 . S
C576 C579 1.386 . S
H577 C593 0.930 1_556 S
H578 C594 0.931 1_556 S
C579 H567 0.929 1_554 S
C579 C573 1.390 . S
C579 C576 1.386 . S
C580 C575 1.490 . S
C580 C582 1.395 . S
C580 C583 1.403 . S
H581 C587 0.930 . S
C582 H568 0.930 . S
C582 C580 1.395 . S
C582 C585 1.403 . S
C583 C580 1.403 . S
C583 C584 1.524 . S
C583 C587 1.400 . S
C584 H569 0.960 . S
C584 H570 0.960 . S
C584 H571 0.965 . S
C584 C583 1.524 . S
C585 C582 1.403 . S
C585 C586 1.392 . S
C585 C589 1.495 . S
C586 C585 1.392 . S
C586 C587 1.385 . S
C586 C588 1.478 . S
C587 H581 0.930 . S
C587 C583 1.400 . S
C587 C586 1.385 . S
C588 C586 1.478 . S
C588 C590 1.381 . S
C588 C594 1.383 . S
C589 C585 1.495 . S
C589 H595 0.959 . S
C589 H596 0.961 . S
C589 H597 0.960 . S
C590 C588 1.381 . S
C590 C591 1.394 . S
C590 H598 0.930 . S
C591 C590 1.394 . S
C591 C592 1.383 . S
C591 H599 0.929 . S
C592 C591 1.383 . S
C592 C593 1.377 . S
C593 H577 0.930 1_554 S
C593 C592 1.377 . S
C593 C594 1.379 . S
C594 H578 0.931 1_554 S
C594 C588 1.383 . S
C594 C593 1.379 . S
H595 C589 0.959 . S
H596 C589 0.961 . S
H597 C589 0.960 . S
H598 C590 0.930 . S
H599 C591 0.929 . S
H600 C608 0.929 . S
H601 C610 0.930 . S
H602 C612 0.930 . S
H603 C615 0.929 . S
H604 C618 0.930 . S
H605 C620 0.960 . S
H606 C620 0.960 . S
H607 C620 0.960 . S
C608 H600 0.929 . S
C608 C609 1.377 . S
C608 C610 1.384 . S
C609 C608 1.377 . S
C609 C615 1.390 . S
C610 H601 0.930 . S
C610 C608 1.384 . S
C610 C611 1.372 . S
C611 C610 1.372 . S
C611 C612 1.400 . S
C611 C616 1.490 . S
C612 H602 0.930 . S
C612 C611 1.400 . S
C612 C615 1.386 . S
H613 C629 0.930 . S
H614 C630 0.931 . S
C615 H603 0.929 . S
C615 C609 1.390 . S
C615 C612 1.386 . S
C616 C611 1.490 . S
C616 C618 1.395 . S
C616 C619 1.403 . S
H617 C623 0.930 . S
C618 H604 0.930 . S
C618 C616 1.395 . S
C618 C621 1.403 . S
C619 C616 1.403 . S
C619 C620 1.524 . S
C619 C623 1.400 . S
C620 H605 0.960 . S
C620 H606 0.960 . S
C620 H607 0.960 . S
C620 C619 1.524 . S
C621 C618 1.403 . S
C621 C622 1.392 . S
C621 C625 1.495 . S
C622 C621 1.392 . S
C622 C623 1.385 . S
C622 C624 1.478 . S
C623 H617 0.930 . S
C623 C619 1.400 . S
C623 C622 1.385 . S
C624 C622 1.478 . S
C624 C626 1.381 . S
C624 C630 1.383 . S
C625 C621 1.495 . S
C625 H631 0.959 . S
C625 H632 0.961 . S
C625 H633 0.960 . S
C626 C624 1.381 . S
C626 C627 1.394 . S
C626 H634 0.930 . S
C627 C626 1.394 . S
C627 C628 1.383 . S
C627 H635 0.929 . S
C628 C627 1.383 . S
C628 C629 1.377 . S
C629 H613 0.930 . S
C629 C628 1.377 . S
C629 C630 1.379 . S
C630 H614 0.931 . S
C630 C624 1.383 . S
C630 C629 1.379 . S
H631 C625 0.959 . S
H632 C625 0.961 . S
H633 C625 0.960 . S
H634 C626 0.930 . S
H635 C627 0.929 . S
H636 C644 0.929 . S
H637 C646 0.930 . S
H638 C648 0.930 . S
H639 C651 0.929 . S
H640 C654 0.930 . S
H641 C656 0.960 . S
H642 C656 0.960 . S
H643 C656 0.960 . S
C644 H636 0.929 . S
C644 C645 1.377 . S
C644 C646 1.384 . S
C645 C644 1.377 . S
C645 C651 1.390 . S
C646 H637 0.930 . S
C646 C644 1.384 . S
C646 C647 1.372 . S
C647 C646 1.372 . S
C647 C648 1.400 . S
C647 C652 1.490 . S
C648 H638 0.930 . S
C648 C647 1.400 . S
C648 C651 1.386 . S
H649 C665 0.930 . S
H650 C666 0.931 . S
C651 H639 0.929 . S
C651 C645 1.390 . S
C651 C648 1.386 . S
C652 C647 1.490 . S
C652 C654 1.395 . S
C652 C655 1.403 . S
H653 C659 0.930 . S
C654 H640 0.930 . S
C654 C652 1.395 . S
C654 C657 1.403 . S
C655 C652 1.403 . S
C655 C656 1.524 . S
C655 C659 1.400 . S
C656 H641 0.960 . S
C656 H642 0.960 . S
C656 H643 0.960 . S
C656 C655 1.524 . S
C657 C654 1.403 . S
C657 C658 1.392 . S
C657 C661 1.495 . S
C658 C657 1.392 . S
C658 C659 1.385 . S
C658 C660 1.478 . S
C659 H653 0.930 . S
C659 C655 1.400 . S
C659 C658 1.385 . S
C660 C658 1.478 . S
C660 C662 1.381 . S
C660 C666 1.383 . S
C661 C657 1.495 . S
C661 H667 0.959 . S
C661 H668 0.961 . S
C661 H669 0.960 . S
C662 C660 1.381 . S
C662 C663 1.394 . S
C662 H670 0.930 . S
C663 C662 1.394 . S
C663 C664 1.383 . S
C663 H671 0.929 . S
C664 C663 1.383 . S
C664 C665 1.377 . S
C665 H649 0.930 . S
C665 C664 1.377 . S
C665 C666 1.379 . S
C666 H650 0.931 . S
C666 C660 1.383 . S
C666 C665 1.379 . S
H667 C661 0.959 . S
H668 C661 0.961 . S
H669 C661 0.960 . S
H670 C662 0.930 . S
H671 C663 0.929 . S
H672 C680 0.929 1_556 S
H673 C682 0.930 . S
H674 C684 0.930 . S
H675 C687 0.929 . S
H676 C690 0.930 . S
H677 C692 0.960 . S
H678 C692 0.960 . S
H679 C692 0.960 . S
C680 H672 0.929 1_554 S
C680 C681 1.377 . S
C680 C682 1.384 1_554 S
C681 C680 1.377 . S
C681 C687 1.390 . S
C682 H673 0.930 . S
C682 C680 1.384 1_556 S
C682 C683 1.372 1_556 S
C683 C682 1.372 1_554 S
C683 C684 1.400 . S
C683 C688 1.490 . S
C684 H674 0.930 . S
C684 C683 1.400 . S
C684 C687 1.386 . S
H685 C701 0.930 1_554 S
H686 C702 0.931 . S
C687 H675 0.929 . S
C687 C681 1.390 . S
C687 C684 1.386 . S
C688 C683 1.490 . S
C688 C690 1.395 1_554 S
C688 C691 1.403 . S
H689 C695 0.930 . S
C690 H676 0.930 . S
C690 C688 1.395 1_556 S
C690 C693 1.403 . S
C691 C688 1.403 . S
C691 C692 1.524 . S
C691 C695 1.400 . S
C692 H677 0.960 . S
C692 H678 0.960 . S
C692 H679 0.960 . S
C692 C691 1.524 . S
C693 C690 1.403 . S
C693 C694 1.392 . S
C693 C697 1.495 . S
C694 C693 1.392 . S
C694 C695 1.385 1_556 S
C694 C696 1.478 . S
C695 H689 0.930 . S
C695 C691 1.400 . S
C695 C694 1.385 1_554 S
C696 C694 1.478 . S
C696 C698 1.381 . S
C696 C702 1.383 1_556 S
C697 C693 1.495 . S
C697 H703 0.959 . S
C697 H704 0.961 . S
C697 H705 0.960 . S
C698 C696 1.381 . S
C698 C699 1.394 . S
C698 H706 0.930 . S
C699 C698 1.394 . S
C699 C700 1.383 . S
C699 H707 0.929 . S
C700 C699 1.383 . S
C700 C701 1.377 . S
C701 H685 0.930 1_556 S
C701 C700 1.377 . S
C701 C702 1.379 1_556 S
C702 H686 0.931 . S
C702 C696 1.383 1_554 S
C702 C701 1.379 1_554 S
H703 C697 0.959 . S
H704 C697 0.961 . S
H705 C697 0.960 . S
H706 C698 0.930 . S
H707 C699 0.929 . S
H708 C716 0.929 . S
H709 C718 0.930 . S
H710 C720 0.930 . S
H711 C723 0.929 . S
H712 C726 0.930 . S
H713 C728 0.960 . S
H714 C728 0.960 . S
H715 C728 0.960 . S
C716 H708 0.929 . S
C716 C717 1.377 . S
C716 C718 1.384 . S
C717 C716 1.377 . S
C717 C723 1.390 . S
C718 H709 0.930 . S
C718 C716 1.384 . S
C718 C719 1.372 . S
C719 C718 1.372 . S
C719 C720 1.400 . S
C719 C724 1.490 . S
C720 H710 0.930 . S
C720 C719 1.400 . S
C720 C723 1.386 . S
H721 C737 0.930 . S
H722 C738 0.931 . S
C723 H711 0.929 . S
C723 C717 1.390 . S
C723 C720 1.386 . S
C724 C719 1.490 . S
C724 C726 1.395 . S
C724 C727 1.403 . S
H725 C731 0.930 . S
C726 H712 0.930 . S
C726 C724 1.395 . S
C726 C729 1.403 . S
C727 C724 1.403 . S
C727 C728 1.524 . S
C727 C731 1.400 . S
C728 H713 0.960 . S
C728 H714 0.960 . S
C728 H715 0.960 . S
C728 C727 1.524 . S
C729 C726 1.403 . S
C729 C730 1.392 . S
C729 C733 1.495 . S
C730 C729 1.392 . S
C730 C731 1.385 . S
C730 C732 1.478 . S
C731 H725 0.930 . S
C731 C727 1.400 . S
C731 C730 1.385 . S
C732 C730 1.478 . S
C732 C734 1.381 . S
C732 C738 1.383 . S
C733 C729 1.495 . S
C733 H739 0.959 . S
C733 H740 0.961 . S
C733 H741 0.960 . S
C734 C732 1.381 . S
C734 C735 1.394 . S
C734 H742 0.930 . S
C735 C734 1.394 . S
C735 C736 1.383 . S
C735 H743 0.929 . S
C736 C735 1.383 . S
C736 C737 1.377 . S
C737 H721 0.930 . S
C737 C736 1.377 . S
C737 C738 1.379 . S
C738 H722 0.931 . S
C738 C732 1.383 . S
C738 C737 1.379 . S
H739 C733 0.959 . S
H740 C733 0.961 . S
H741 C733 0.960 . S
H742 C734 0.930 . S
H743 C735 0.929 . S
H744 C752 0.929 . S
H745 C754 0.930 . S
H746 C756 0.930 . S
H747 C759 0.929 . S
H748 C762 0.930 . S
H749 C764 0.960 . S
H750 C764 0.960 . S
H751 C764 0.960 . S
C752 H744 0.929 . S
C752 C753 1.377 . S
C752 C754 1.384 . S
C753 C752 1.377 . S
C753 C759 1.390 . S
C754 H745 0.930 . S
C754 C752 1.384 . S
C754 C755 1.372 . S
C755 C754 1.372 . S
C755 C756 1.400 . S
C755 C760 1.490 . S
C756 H746 0.930 . S
C756 C755 1.400 . S
C756 C759 1.386 . S
H757 C773 0.930 . S
H758 C774 0.931 . S
C759 H747 0.929 . S
C759 C753 1.390 . S
C759 C756 1.386 . S
C760 C755 1.490 . S
C760 C762 1.395 . S
C760 C763 1.403 . S
H761 C767 0.930 . S
C762 H748 0.930 . S
C762 C760 1.395 . S
C762 C765 1.403 . S
C763 C760 1.403 . S
C763 C764 1.524 . S
C763 C767 1.400 . S
C764 H749 0.960 . S
C764 H750 0.960 . S
C764 H751 0.960 . S
C764 C763 1.524 . S
C765 C762 1.403 . S
C765 C766 1.392 . S
C765 C769 1.495 . S
C766 C765 1.392 . S
C766 C767 1.385 . S
C766 C768 1.478 . S
C767 H761 0.930 . S
C767 C763 1.400 . S
C767 C766 1.385 . S
C768 C766 1.478 . S
C768 C770 1.381 . S
C768 C774 1.383 . S
C769 C765 1.495 . S
C769 H775 0.959 . S
C769 H776 0.961 . S
C769 H777 0.960 . S
C770 C768 1.381 . S
C770 C771 1.394 . S
C770 H778 0.930 . S
C771 C770 1.394 . S
C771 C772 1.383 . S
C771 H779 0.929 . S
C772 C771 1.383 . S
C772 C773 1.377 . S
C773 H757 0.930 . S
C773 C772 1.377 . S
C773 C774 1.379 . S
C774 H758 0.931 . S
C774 C768 1.383 . S
C774 C773 1.379 . S
H775 C769 0.959 . S
H776 C769 0.961 . S
H777 C769 0.960 . S
H778 C770 0.930 . S
H779 C771 0.929 . S
H780 C788 0.929 . S
H781 C790 0.930 . S
H782 C792 0.930 . S
H783 C795 0.913 1_556 S
H784 C798 0.930 . S
H785 C800 0.960 . S
H786 C800 0.960 . S
H787 C800 0.960 . S
C788 H780 0.929 . S
C788 C789 1.377 . S
C788 C790 1.384 . S
C789 C788 1.377 . S
C789 C795 1.411 . S
C790 H781 0.930 . S
C790 C788 1.384 . S
C790 C791 1.372 . S
C791 C790 1.372 . S
C791 C792 1.400 1_554 S
C791 C796 1.490 . S
C792 H782 0.930 . S
C792 C791 1.400 1_556 S
C792 C795 1.381 1_556 S
H793 C809 0.930 . S
H794 C810 0.931 . S
C795 H783 0.913 1_554 S
C795 C789 1.411 . S
C795 C792 1.381 1_554 S
C796 C791 1.490 . S
C796 C798 1.395 . S
C796 C799 1.403 1_554 S
H797 C803 0.930 . S
C798 H784 0.930 . S
C798 C796 1.395 . S
C798 C801 1.403 . S
C799 C796 1.403 1_556 S
C799 C800 1.524 . S
C799 C803 1.400 . S
C800 H785 0.960 . S
C800 H786 0.960 . S
C800 H787 0.960 . S
C800 C799 1.524 . S
C801 C798 1.403 . S
C801 C802 1.392 1_554 S
C801 C805 1.495 . S
C802 C801 1.392 1_556 S
C802 C803 1.385 . S
C802 C804 1.478 . S
C803 H797 0.930 . S
C803 C799 1.400 . S
C803 C802 1.385 . S
C804 C802 1.478 . S
C804 C806 1.381 1_556 S
C804 C810 1.383 . S
C805 C801 1.495 . S
C805 H811 0.959 . S
C805 H812 0.961 . S
C805 H813 0.960 . S
C806 C804 1.381 1_554 S
C806 C807 1.394 . S
C806 H814 0.930 . S
C807 C806 1.394 . S
C807 C808 1.383 1_554 S
C807 H815 0.929 . S
C808 C807 1.383 1_556 S
C808 C809 1.377 . S
C809 H793 0.930 . S
C809 C808 1.377 . S
C809 C810 1.379 . S
C810 H794 0.931 . S
C810 C804 1.383 . S
C810 C809 1.379 . S
H811 C805 0.959 . S
H812 C805 0.961 . S
H813 C805 0.960 . S
H814 C806 0.930 . S
H815 C807 0.929 . S
H816 C824 0.929 . S
H817 C826 0.930 . S
H818 C828 0.930 1_565 S
H819 C831 0.929 . S
H820 C834 0.930 . S
H821 C836 0.960 . S
H822 C836 0.960 . S
H823 C836 0.960 . S
C824 H816 0.929 . S
C824 C825 1.377 . S
C824 C826 1.384 . S
C825 C824 1.377 . S
C825 C831 1.390 . S
C826 H817 0.930 . S
C826 C824 1.384 . S
C826 C827 1.372 . S
C827 C826 1.372 . S
C827 C828 1.400 . S
C827 C832 1.490 . S
C828 H818 0.930 1_545 S
C828 C827 1.400 . S
C828 C831 1.386 . S
H829 C845 0.930 . S
H830 C846 0.931 . S
C831 H819 0.929 . S
C831 C825 1.390 . S
C831 C828 1.386 . S
C832 C827 1.490 . S
C832 C834 1.395 1_545 S
C832 C835 1.403 . S
H833 C839 0.930 . S
C834 H820 0.930 . S
C834 C832 1.395 1_565 S
C834 C837 1.403 . S
C835 C832 1.403 . S
C835 C836 1.524 . S
C835 C839 1.400 . S
C836 H821 0.960 . S
C836 H822 0.960 . S
C836 H823 0.960 . S
C836 C835 1.524 . S
C837 C834 1.403 . S
C837 C838 1.392 . S
C837 C841 1.495 . S
C838 C837 1.392 . S
C838 C839 1.385 1_565 S
C838 C840 1.478 . S
C839 H833 0.930 . S
C839 C835 1.400 . S
C839 C838 1.385 1_545 S
C840 C838 1.478 . S
C840 C842 1.381 . S
C840 C846 1.383 . S
C841 C837 1.495 . S
C841 H847 0.959 . S
C841 H848 0.961 . S
C841 H849 0.960 . S
C842 C840 1.381 . S
C842 C843 1.394 . S
C842 H850 0.930 1_565 S
C843 C842 1.394 . S
C843 C844 1.383 . S
C843 H851 0.903 1_565 S
C844 C843 1.383 . S
C844 C845 1.377 . S
C845 H829 0.930 . S
C845 C844 1.377 . S
C845 C846 1.379 . S
C846 H830 0.931 . S
C846 C840 1.383 . S
C846 C845 1.379 . S
H847 C841 0.959 . S
H848 C841 0.961 . S
H849 C841 0.960 . S
H850 C842 0.930 1_545 S
H851 C843 0.903 1_545 S
H852 C860 0.929 . S
H853 C862 0.930 . S
H854 C864 0.930 . S
H855 C867 0.929 . S
H856 C870 0.930 . S
H857 C872 0.960 . S
H858 C872 0.960 . S
H859 C872 0.960 . S
C860 H852 0.929 . S
C860 C861 1.377 . S
C860 C862 1.384 . S
C861 C860 1.377 . S
C861 C867 1.390 . S
C862 H853 0.930 . S
C862 C860 1.384 . S
C862 C863 1.372 . S
C863 C862 1.372 . S
C863 C864 1.400 . S
C863 C868 1.490 . S
C864 H854 0.930 . S
C864 C863 1.400 . S
C864 C867 1.386 . S
H865 C881 0.930 . S
H866 C882 0.931 . S
C867 H855 0.929 . S
C867 C861 1.390 . S
C867 C864 1.386 . S
C868 C863 1.490 . S
C868 C870 1.395 . S
C868 C871 1.403 . S
H869 C875 0.930 . S
C870 H856 0.930 . S
C870 C868 1.395 . S
C870 C873 1.403 . S
C871 C868 1.403 . S
C871 C872 1.524 . S
C871 C875 1.400 . S
C872 H857 0.960 . S
C872 H858 0.960 . S
C872 H859 0.960 . S
C872 C871 1.524 . S
C873 C870 1.403 . S
C873 C874 1.392 . S
C873 C877 1.495 . S
C874 C873 1.392 . S
C874 C875 1.385 . S
C874 C876 1.478 . S
C875 H869 0.930 . S
C875 C871 1.400 . S
C875 C874 1.385 . S
C876 C874 1.478 . S
C876 C878 1.381 . S
C876 C882 1.383 . S
C877 C873 1.495 . S
C877 H883 0.959 . S
C877 H884 0.961 . S
C877 H885 0.960 . S
C878 C876 1.381 . S
C878 C879 1.394 . S
C878 H886 0.930 . S
C879 C878 1.394 . S
C879 C880 1.383 . S
C879 H887 0.929 . S
C880 C879 1.383 . S
C880 C881 1.377 . S
C881 H865 0.930 . S
C881 C880 1.377 . S
C881 C882 1.379 . S
C882 H866 0.931 . S
C882 C876 1.383 . S
C882 C881 1.379 . S
H883 C877 0.959 . S
H884 C877 0.961 . S
H885 C877 0.960 . S
H886 C878 0.930 . S
H887 C879 0.929 . S
H888 C896 0.929 . S
H889 C898 0.930 . S
H890 C900 0.930 . S
H891 C903 0.929 . S
H892 C906 0.930 . S
H893 C908 0.960 . S
H894 C908 0.960 . S
H895 C908 0.960 . S
C896 H888 0.929 . S
C896 C897 1.377 1_655 S
C896 C898 1.384 . S
C897 C896 1.377 1_455 S
C897 C903 1.390 . S
C898 H889 0.930 . S
C898 C896 1.384 . S
C898 C899 1.372 1_655 S
C899 C898 1.372 1_455 S
C899 C900 1.400 . S
C899 C904 1.490 . S
C900 H890 0.930 . S
C900 C899 1.400 . S
C900 C903 1.386 . S
H901 C917 0.930 . S
H902 C918 0.931 . S
C903 H891 0.929 . S
C903 C897 1.390 . S
C903 C900 1.386 . S
C904 C899 1.490 . S
C904 C906 1.395 1_455 S
C904 C907 1.403 . S
H905 C911 0.930 . S
C906 H892 0.930 . S
C906 C904 1.395 1_655 S
C906 C909 1.403 . S
C907 C904 1.403 . S
C907 C908 1.524 . S
C907 C911 1.400 . S
C908 H893 0.960 . S
C908 H894 0.960 . S
C908 H895 0.960 . S
C908 C907 1.524 . S
C909 C906 1.403 . S
C909 C910 1.392 . S
C909 C913 1.495 . S
C910 C909 1.392 . S
C910 C911 1.385 1_655 S
C910 C912 1.478 . S
C911 H905 0.930 . S
C911 C907 1.400 . S
C911 C910 1.385 1_455 S
C912 C910 1.478 . S
C912 C914 1.381 . S
C912 C918 1.383 1_655 S
C913 C909 1.495 . S
C913 H919 0.959 . S
C913 H920 0.961 . S
C913 H921 0.960 . S
C914 C912 1.381 . S
C914 C915 1.394 . S
C914 H922 0.930 . S
C915 C914 1.394 . S
C915 C916 1.383 . S
C915 H923 0.929 . S
C916 C915 1.383 . S
C916 C917 1.377 1_655 S
C917 H901 0.930 . S
C917 C916 1.377 1_455 S
C917 C918 1.379 . S
C918 H902 0.931 . S
C918 C912 1.383 1_455 S
C918 C917 1.379 . S
H919 C913 0.959 . S
H920 C913 0.961 . S
H921 C913 0.960 . S
H922 C914 0.930 . S
H923 C915 0.929 . S
H924 C932 0.929 . S
H925 C934 0.930 . S
H926 C936 0.930 . S
H927 C939 0.929 . S
H928 C942 0.930 . S
H929 C944 0.960 . S
H930 C944 0.960 . S
H931 C944 0.960 . S
C932 H924 0.929 . S
C932 C933 1.377 . S
C932 C934 1.384 . S
C933 C932 1.377 . S
C933 C939 1.390 . S
C934 H925 0.930 . S
C934 C932 1.384 . S
C934 C935 1.372 . S
C935 C934 1.372 . S
C935 C936 1.400 . S
C935 C940 1.490 . S
C936 H926 0.930 . S
C936 C935 1.400 . S
C936 C939 1.386 . S
H937 C953 0.930 . S
H938 C954 0.931 . S
C939 H927 0.929 . S
C939 C933 1.390 . S
C939 C936 1.386 . S
C940 C935 1.490 . S
C940 C942 1.395 1_565 S
C940 C943 1.403 . S
H941 C947 0.930 . S
C942 H928 0.930 . S
C942 C940 1.395 1_545 S
C942 C945 1.403 . S
C943 C940 1.403 . S
C943 C944 1.524 . S
C943 C947 1.400 . S
C944 H929 0.960 . S
C944 H930 0.960 . S
C944 H931 0.960 . S
C944 C943 1.524 . S
C945 C942 1.403 . S
C945 C946 1.392 . S
C945 C949 1.495 . S
C946 C945 1.392 . S
C946 C947 1.385 1_545 S
C946 C948 1.478 . S
C947 H941 0.930 . S
C947 C943 1.400 . S
C947 C946 1.385 1_565 S
C948 C946 1.478 . S
C948 C950 1.381 . S
C948 C954 1.383 . S
C949 C945 1.495 . S
C949 H955 0.959 . S
C949 H956 0.961 . S
C949 H957 0.960 . S
C950 C948 1.381 . S
C950 C951 1.394 . S
C950 H958 0.930 . S
C951 C950 1.394 . S
C951 C952 1.383 . S
C951 H959 0.929 . S
C952 C951 1.383 . S
C952 C953 1.377 . S
C953 H937 0.930 . S
C953 C952 1.377 . S
C953 C954 1.379 . S
C954 H938 0.931 . S
C954 C948 1.383 . S
C954 C953 1.379 . S
H955 C949 0.959 . S
H956 C949 0.961 . S
H957 C949 0.960 . S
H958 C950 0.930 . S
H959 C951 0.929 . S
H960 C968 0.929 . S
H961 C970 0.930 . S
H962 C972 0.930 . S
H963 C975 0.929 . S
H964 C978 0.930 . S
H965 C980 0.960 . S
H966 C980 0.960 . S
H967 C980 0.960 . S
C968 H960 0.929 . S
C968 C969 1.377 . S
C968 C970 1.384 . S
C969 C968 1.377 . S
C969 C975 1.390 . S
C970 H961 0.930 . S
C970 C968 1.384 . S
C970 C971 1.372 . S
C971 C970 1.372 . S
C971 C972 1.400 . S
C971 C976 1.490 . S
C972 H962 0.930 . S
C972 C971 1.400 . S
C972 C975 1.386 . S
H973 C989 0.930 . S
H974 C990 0.931 . S
C975 H963 0.929 . S
C975 C969 1.390 . S
C975 C972 1.386 . S
C976 C971 1.490 . S
C976 C978 1.395 . S
C976 C979 1.403 . S
H977 C983 0.930 . S
C978 H964 0.930 . S
C978 C976 1.395 . S
C978 C981 1.403 . S
C979 C976 1.403 . S
C979 C980 1.524 . S
C979 C983 1.400 . S
C980 H965 0.960 . S
C980 H966 0.960 . S
C980 H967 0.960 . S
C980 C979 1.524 . S
C981 C978 1.403 . S
C981 C982 1.392 . S
C981 C985 1.495 . S
C982 C981 1.392 . S
C982 C983 1.385 . S
C982 C984 1.478 . S
C983 H977 0.930 . S
C983 C979 1.400 . S
C983 C982 1.385 . S
C984 C982 1.478 . S
C984 C986 1.381 . S
C984 C990 1.383 . S
C985 C981 1.495 . S
C985 H991 0.959 . S
C985 H992 0.961 . S
C985 H993 0.960 . S
C986 C984 1.381 . S
C986 C987 1.394 . S
C986 H994 0.930 . S
C987 C986 1.394 . S
C987 C988 1.383 . S
C987 H995 0.929 . S
C988 C987 1.383 . S
C988 C989 1.377 . S
C989 H973 0.930 . S
C989 C988 1.377 . S
C989 C990 1.379 . S
C990 H974 0.931 . S
C990 C984 1.383 . S
C990 C989 1.379 . S
H991 C985 0.959 . S
H992 C985 0.961 . S
H993 C985 0.960 . S
H994 C986 0.930 . S
H995 C987 0.929 . S
H996 C1004 0.929 . S
H997 C1006 0.930 . S
H998 C1008 0.930 . S
H999 C1011 0.929 1_455 S
H1000 C1014 0.930 . S
H1001 C1016 0.960 . S
H1002 C1016 0.960 . S
H1003 C1016 0.960 . S
C1004 H996 0.929 . S
C1004 C1005 1.377 . S
C1004 C1006 1.384 . S
C1005 C1004 1.377 . S
C1005 C1011 1.390 . S
C1006 H997 0.930 . S
C1006 C1004 1.384 . S
C1006 C1007 1.372 . S
C1007 C1006 1.372 . S
C1007 C1008 1.400 1_655 S
C1007 C1012 1.490 . S
C1008 H998 0.930 . S
C1008 C1007 1.400 1_455 S
C1008 C1011 1.386 1_455 S
H1009 C1025 0.930 . S
H1010 C1026 0.931 . S
C1011 H999 0.929 1_655 S
C1011 C1005 1.390 . S
C1011 C1008 1.386 1_655 S
C1012 C1007 1.490 . S
C1012 C1014 1.395 1_655 S
C1012 C1015 1.403 . S
H1013 C1019 0.930 . S
C1014 H1000 0.930 . S
C1014 C1012 1.395 1_455 S
C1014 C1017 1.403 . S
C1015 C1012 1.403 . S
C1015 C1016 1.524 . S
C1015 C1019 1.400 . S
C1016 H1001 0.960 . S
C1016 H1002 0.960 . S
C1016 H1003 0.960 . S
C1016 C1015 1.524 . S
C1017 C1014 1.403 . S
C1017 C1018 1.392 . S
C1017 C1021 1.495 . S
C1018 C1017 1.392 . S
C1018 C1019 1.385 1_455 S
C1018 C1020 1.478 . S
C1019 H1013 0.930 . S
C1019 C1015 1.400 . S
C1019 C1018 1.385 1_655 S
C1020 C1018 1.478 . S
C1020 C1022 1.381 1_455 S
C1020 C1026 1.383 . S
C1021 C1017 1.495 . S
C1021 H1027 0.959 . S
C1021 H1028 0.961 . S
C1021 H1029 0.960 . S
C1022 C1020 1.381 1_655 S
C1022 C1023 1.396 . S
C1022 H1030 0.930 . S
C1023 C1022 1.396 . S
C1023 C1024 1.375 1_655 S
C1023 H1031 0.937 . S
C1024 C1023 1.375 1_455 S
C1024 C1025 1.377 . S
C1025 H1009 0.930 . S
C1025 C1024 1.377 . S
C1025 C1026 1.379 . S
C1026 H1010 0.931 . S
C1026 C1020 1.383 . S
C1026 C1025 1.379 . S
H1027 C1021 0.959 . S
H1028 C1021 0.961 . S
H1029 C1021 0.960 . S
H1030 C1022 0.930 . S
H1031 C1023 0.937 . S
C177 C11 1.879 . S
C196 C123 1.873 . S
C213 C25 1.880 . S
C232 C137 1.881 . S
C249 C151 1.880 . S
C268 C39 1.875 . S
C285 C165 1.880 . S
C304 C53 1.881 . S
C321 C95 1.880 . S
C340 C67 1.881 . S
C357 C109 1.878 . S
C376 C81 1.871 . S
C393 C9 1.592 . S
C412 C51 1.591 . S
C429 C65 1.591 . S
C448 C23 1.594 . S
C465 C79 1.592 . S
C484 C37 1.590 . S
C501 C93 1.592 . S
C520 C135 1.591 . S
C537 C149 1.591 . S
C556 C107 1.592 . S
C573 C121 1.592 . S
C592 C163 1.588 . S
C609 C84 0.670 . S
C628 C0 0.711 . S
C645 C14 0.691 . S
C664 C98 0.633 . S
C681 C112 0.673 . S
C700 C28 0.733 . S
C717 C126 0.692 . S
C736 C42 0.641 . S
C753 C56 0.670 . S
C772 C140 0.699 . S
C789 C154 0.691 . S
C808 C70 0.632 . S
C825 C5 0.902 . S
C844 C103 0.914 . S
C861 C117 0.895 . S
C880 C19 0.903 . S
C897 C131 0.897 . S
C916 C33 0.911 . S
C933 C47 0.902 . S
C952 C145 0.918 . S
C969 C159 0.898 . S
C988 C61 0.914 . S
C1005 C89 0.902 . S
C1024 C75 0.909 . S
