# Generated by pormake.
# Topology yfz, (5)-cn, num edge types: 1
# Building blocks:
#     Node 0, Type 0, BuildingBlock: BEQFEK_clean_sbu_0, # of connection points: 5
#     Node 1, Type 0, BuildingBlock: BEQFEK_clean_sbu_0, # of connection points: 5
#     Node 2, Type 0, BuildingBlock: BEQFEK_clean_sbu_0, # of connection points: 5
#     Node 3, Type 0, BuildingBlock: BEQFEK_clean_sbu_0, # of connection points: 5
#     Node 4, Type 0, BuildingBlock: BEQFEK_clean_sbu_0, # of connection points: 5
#     Node 5, Type 0, BuildingBlock: BEQFEK_clean_sbu_0, # of connection points: 5
#     Node 6, Type 0, BuildingBlock: BEQFEK_clean_sbu_0, # of connection points: 5
#     Node 7, Type 0, BuildingBlock: BEQFEK_clean_sbu_0, # of connection points: 5
#     Edge 8, Type (0, 0), BuildingBlock: MIFKUJ_clean_linker_0, # of connection points: 2
#     Edge 9, Type (0, 0), BuildingBlock: MIFKUJ_clean_linker_0, # of connection points: 2
#     Edge 10, Type (0, 0), BuildingBlock: MIFKUJ_clean_linker_0, # of connection points: 2
#     Edge 11, Type (0, 0), BuildingBlock: MIFKUJ_clean_linker_0, # of connection points: 2
#     Edge 12, Type (0, 0), BuildingBlock: MIFKUJ_clean_linker_0, # of connection points: 2
#     Edge 13, Type (0, 0), BuildingBlock: MIFKUJ_clean_linker_0, # of connection points: 2
#     Edge 14, Type (0, 0), BuildingBlock: MIFKUJ_clean_linker_0, # of connection points: 2
#     Edge 15, Type (0, 0), BuildingBlock: MIFKUJ_clean_linker_0, # of connection points: 2
#     Edge 16, Type (0, 0), BuildingBlock: MIFKUJ_clean_linker_0, # of connection points: 2
#     Edge 17, Type (0, 0), BuildingBlock: MIFKUJ_clean_linker_0, # of connection points: 2
#     Edge 18, Type (0, 0), BuildingBlock: MIFKUJ_clean_linker_0, # of connection points: 2
#     Edge 19, Type (0, 0), BuildingBlock: MIFKUJ_clean_linker_0, # of connection points: 2
#     Edge 20, Type (0, 0), BuildingBlock: MIFKUJ_clean_linker_0, # of connection points: 2
#     Edge 21, Type (0, 0), BuildingBlock: MIFKUJ_clean_linker_0, # of connection points: 2
#     Edge 22, Type (0, 0), BuildingBlock: MIFKUJ_clean_linker_0, # of connection points: 2
#     Edge 23, Type (0, 0), BuildingBlock: MIFKUJ_clean_linker_0, # of connection points: 2
#     Edge 24, Type (0, 0), BuildingBlock: MIFKUJ_clean_linker_0, # of connection points: 2
#     Edge 25, Type (0, 0), BuildingBlock: MIFKUJ_clean_linker_0, # of connection points: 2
#     Edge 26, Type (0, 0), BuildingBlock: MIFKUJ_clean_linker_0, # of connection points: 2
#     Edge 27, Type (0, 0), BuildingBlock: MIFKUJ_clean_linker_0, # of connection points: 2
# Relax obj value: 0.180
# Max RMSD: 0.171
# Mean RMSD: 0.171
data_MOF--net-yfz--node1-BEQFEK_clean_sbu_0--edge1-MIFKUJ_clean_linker_0
_symmetry_space_group_name_H-M    P1
_symmetry_Int_Tables_number       1
_symmetry_cell_setting            triclinic
loop_
_symmetry_equiv_pos_as_xyz
'x, y, z'
_cell_length_a     66.45495
_cell_length_b     66.452507
_cell_length_c     23.0108
_cell_angle_alpha  90.016615
_cell_angle_beta   89.997625
_cell_angle_gamma 90.000509
loop_
_atom_site_label
_atom_site_type_symbol
_atom_site_fract_x
_atom_site_fract_y
_atom_site_fract_z
_atom_type_partial_charge
Co0 Co 0.60176 0.10198 0.26543 0.0
Co1 Co 0.60976 0.11537 0.39383 0.0
C2 C 0.64339 0.10343 0.31597 0.0
O3 O 0.6311 0.10053 0.27464 0.0
O4 O 0.63731 0.10905 0.36578 0.0
C5 C 0.60798 0.07715 0.16784 0.0
O6 O 0.62249 0.07019 0.20092 0.0
C7 C 0.61879 0.10746 0.51516 0.0
C8 C 0.60838 0.13516 0.5589 0.0
C9 C 0.61658 0.11633 0.56909 0.0
N10 N 0.61205 0.12035 0.47472 0.0
N11 N 0.60611 0.13702 0.50097 0.0
C12 C 0.62748 0.08719 0.50198 0.0
H13 H 0.62436 0.08283 0.4563 0.0
H14 H 0.62138 0.07566 0.53203 0.0
H15 H 0.64401 0.08776 0.50862 0.0
C16 C 0.57493 0.07302 0.32422 0.0
N17 N 0.58859 0.08797 0.32545 0.0
N18 N 0.59119 0.09403 0.37944 0.0
C19 C 0.57873 0.08343 0.41413 0.0
C20 C 0.56836 0.0696 0.38048 0.0
C21 C 0.56858 0.06227 0.27012 0.0
H22 H 0.56121 0.0731 0.24024 0.0
H23 H 0.58208 0.05624 0.2478 0.0
H24 H 0.55815 0.04966 0.27954 0.0
O25 O 0.5935 0.13067 0.26532 0.0
O26 O 0.59997 0.14016 0.35607 0.0
H27 H 0.57679 0.1042 0.48572 0.0
H28 H 0.55922 0.08361 0.48915 0.0
C29 C 0.57478 0.08795 0.47684 0.0
H30 H 0.58528 0.07912 0.50409 0.0
H31 H 0.59999 0.14942 0.47952 0.0
O32 O 0.59596 0.0903 0.18798 0.0
C33 C 0.59384 0.14411 0.30487 0.0
Co34 Co 0.39404 0.60401 0.78383 0.0
Co35 Co 0.38465 0.61386 0.91361 0.0
C36 C 0.39969 0.64546 0.8332 0.0
O37 O 0.40038 0.63282 0.79177 0.0
O38 O 0.39383 0.64029 0.88369 0.0
C39 C 0.41922 0.60263 0.68386 0.0
O40 O 0.43164 0.61298 0.71672 0.0
C41 C 0.39167 0.62498 0.03571 0.0
C42 C 0.36848 0.60657 0.07941 0.0
C43 C 0.38458 0.61929 0.09004 0.0
N44 N 0.38061 0.61552 0.99511 0.0
N45 N 0.36651 0.6049 0.0215 0.0
C46 C 0.40832 0.63943 0.0221 0.0
H47 H 0.42158 0.63107 0.00557 0.0
H48 H 0.41267 0.64835 0.06085 0.0
H49 H 0.40341 0.64991 0.98746 0.0
C50 C 0.41998 0.57315 0.83856 0.0
N51 N 0.4071 0.58875 0.84156 0.0
N52 N 0.40335 0.59291 0.89645 0.0
C53 C 0.41375 0.57998 0.93021 0.0
C54 C 0.4246 0.56709 0.89457 0.0
C55 C 0.42685 0.56358 0.78314 0.0
H56 H 0.41413 0.56264 0.75208 0.0
H57 H 0.43881 0.57302 0.76346 0.0
H58 H 0.43295 0.54827 0.79085 0.0
O59 O 0.36463 0.59991 0.78772 0.0
O60 O 0.35811 0.6072 0.87988 0.0
H61 H 0.39838 0.57772 0.01167 0.0
H62 H 0.42412 0.56902 0.01415 0.0
C63 C 0.41384 0.5804 0.99529 0.0
H64 H 0.41885 0.59538 0.01032 0.0
H65 H 0.35607 0.59583 -2e-05 0.0
O66 O 0.40272 0.59642 0.70521 0.0
C67 C 0.35226 0.60181 0.82957 0.0
Co68 Co 0.89528 0.39323 0.27139 0.0
Co69 Co 0.88789 0.38327 0.40242 0.0
C70 C 0.85421 0.39586 0.3256 0.0
O71 O 0.86612 0.39713 0.28254 0.0
O72 O 0.86057 0.39081 0.37566 0.0
C73 C 0.89228 0.41849 0.17284 0.0
O74 O 0.88048 0.42879 0.20771 0.0
C75 C 0.878 0.3914 0.52365 0.0
C76 C 0.89456 0.3673 0.5694 0.0
C77 C 0.88279 0.38421 0.57848 0.0
N78 N 0.88692 0.37952 0.48409 0.0
N79 N 0.89652 0.36495 0.51159 0.0
C80 C 0.86465 0.40875 0.50822 0.0
H81 H 0.85061 0.40278 0.48866 0.0
H82 H 0.87201 0.41827 0.47479 0.0
H83 H 0.86054 0.41792 0.54666 0.0
C84 C 0.92535 0.42086 0.32312 0.0
N85 N 0.91032 0.40737 0.3278 0.0
N86 N 0.90733 0.40318 0.38305 0.0
C87 C 0.92052 0.41379 0.41534 0.0
C88 C 0.93232 0.42532 0.37839 0.0
C89 C 0.93374 0.4282 0.26663 0.0
H90 H 0.93549 0.41538 0.23616 0.0
H91 H 0.92304 0.43906 0.24705 0.0
H92 H 0.94851 0.43571 0.27264 0.0
O93 O 0.9016 0.36417 0.27488 0.0
O94 O 0.89598 0.35725 0.36794 0.0
H95 H 0.92369 0.39733 0.49485 0.0
H96 H 0.93396 0.42247 0.498 0.0
C97 C 0.92162 0.4131 0.48035 0.0
H98 H 0.90736 0.41886 0.49871 0.0
H99 H 0.90492 0.35377 0.49095 0.0
O100 O 0.90115 0.40291 0.19214 0.0
C101 C 0.90115 0.35176 0.31706 0.0
Co102 Co 0.10239 0.89613 0.75749 0.0
Co103 Co 0.11525 0.88968 0.88622 0.0
C104 C 0.1062 0.85492 0.81266 0.0
O105 O 0.10365 0.86689 0.77029 0.0
O106 O 0.10998 0.8614 0.86351 0.0
C107 C 0.07751 0.88676 0.66103 0.0
O108 O 0.07202 0.87154 0.69381 0.0
C109 C 0.11287 0.88156 0.01108 0.0
C110 C 0.1344 0.90404 0.04502 0.0
C111 C 0.12038 0.88979 0.06203 0.0
N112 N 0.1218 0.89087 0.96614 0.0
N113 N 0.13501 0.90391 0.98667 0.0
C114 C 0.09586 0.86695 0.0048 0.0
H115 H 0.08904 0.86808 0.96091 0.0
H116 H 0.0842 0.8697 0.0384 0.0
H117 H 0.10172 0.85145 0.01076 0.0
C118 C 0.07216 0.92232 0.81264 0.0
N119 N 0.0875 0.90915 0.81572 0.0
N120 N 0.09286 0.90675 0.87031 0.0
C121 C 0.08109 0.91852 0.90389 0.0
C122 C 0.06764 0.92873 0.86839 0.0
C123 C 0.06313 0.92962 0.75694 0.0
H124 H 0.07529 0.93356 0.72592 0.0
H125 H 0.05411 0.91732 0.73733 0.0
H126 H 0.05334 0.94293 0.76388 0.0
O127 O 0.13008 0.90667 0.75455 0.0
O128 O 0.13947 0.89947 0.8447 0.0
H129 H 0.09788 0.92436 0.98153 0.0
H130 H 0.07148 0.93056 0.98736 0.0
C131 C 0.08246 0.91979 0.96875 0.0
H132 H 0.07926 0.90482 0.98752 0.0
H133 H 0.14364 0.9135 0.96081 0.0
O134 O 0.08981 0.89972 0.68085 0.0
C135 C 0.14345 0.90614 0.79412 0.0
Co136 Co 0.60123 0.39506 0.23671 0.0
Co137 Co 0.61264 0.38425 0.1084 0.0
C138 C 0.6439 0.39619 0.19465 0.0
O139 O 0.63064 0.39788 0.23405 0.0
O140 O 0.63913 0.39127 0.14301 0.0
C141 C 0.60265 0.42003 0.33576 0.0
O142 O 0.6155 0.4299 0.30302 0.0
C143 C 0.62441 0.39265 0.98776 0.0
C144 C 0.61257 0.36578 0.94263 0.0
C145 C 0.62193 0.38412 0.93313 0.0
N146 N 0.61644 0.38009 0.02738 0.0
N147 N 0.60969 0.36392 0.00021 0.0
C148 C 0.6348 0.41198 0.00263 0.0
H149 H 0.64248 0.41065 0.04518 0.0
H150 H 0.62361 0.42427 0.00625 0.0
H151 H 0.64592 0.41605 0.96861 0.0
C152 C 0.57415 0.42355 0.17597 0.0
N153 N 0.58874 0.4095 0.17575 0.0
N154 N 0.59291 0.40449 0.12167 0.0
C155 C 0.58064 0.41482 0.0858 0.0
C156 C 0.56864 0.42743 0.11893 0.0
C157 C 0.56587 0.43302 0.22992 0.0
H158 H 0.55964 0.42114 0.25864 0.0
H159 H 0.57824 0.44059 0.25367 0.0
H160 H 0.55406 0.44431 0.22021 0.0
O161 O 0.59417 0.3661 0.23195 0.0
O162 O 0.60286 0.35864 0.14121 0.0
H163 H 0.58053 0.39454 0.0129 0.0
H164 H 0.56292 0.415 0.00698 0.0
C165 C 0.57819 0.41072 0.02213 0.0
H166 H 0.58925 0.41969 0.99721 0.0
H167 H 0.60255 0.3519 0.02079 0.0
O168 O 0.59336 0.40504 0.31436 0.0
C169 C 0.59579 0.35351 0.19044 0.0
Co170 Co 0.09964 0.60344 0.73456 0.0
Co171 Co 0.11401 0.61078 0.60654 0.0
C172 C 0.09934 0.64453 0.68052 0.0
O173 O 0.09641 0.63254 0.72268 0.0
O174 O 0.10601 0.63824 0.63193 0.0
C175 C 0.0742 0.60796 0.8334 0.0
O176 O 0.06592 0.62207 0.80137 0.0
C177 C 0.10854 0.61873 0.48269 0.0
C178 C 0.13513 0.60364 0.4449 0.0
C179 C 0.11747 0.61353 0.43016 0.0
N180 N 0.12023 0.61187 0.52602 0.0
N181 N 0.13631 0.60327 0.50322 0.0
C182 C 0.08828 0.62801 0.49227 0.0
H183 H 0.08288 0.62494 0.53704 0.0
H184 H 0.07724 0.6222 0.46022 0.0
H185 H 0.08948 0.64455 0.48657 0.0
C186 C 0.07249 0.57478 0.67529 0.0
N187 N 0.08706 0.58885 0.67448 0.0
N188 N 0.09335 0.59145 0.62071 0.0
C189 C 0.08317 0.57873 0.58574 0.0
C190 C 0.06948 0.56807 0.61899 0.0
C191 C 0.06149 0.56835 0.72888 0.0
H192 H 0.07242 0.56231 0.76089 0.0
H193 H 0.05412 0.58165 0.74877 0.0
H194 H 0.04991 0.5568 0.71929 0.0
O195 O 0.12873 0.5971 0.73803 0.0
O196 O 0.13883 0.60275 0.64751 0.0
H197 H 0.10403 0.57639 0.51469 0.0
H198 H 0.08257 0.56 0.50894 0.0
C199 C 0.08767 0.57517 0.5228 0.0
H200 H 0.07958 0.58644 0.49615 0.0
H201 H 0.14759 0.59626 0.52743 0.0
O202 O 0.08817 0.59721 0.81185 0.0
C203 C 0.14256 0.59764 0.69973 0.0
Co204 Co 0.8945 0.10071 0.22575 0.0
Co205 Co 0.88716 0.11497 0.09776 0.0
C206 C 0.85313 0.1026 0.17416 0.0
O207 O 0.86517 0.09902 0.21581 0.0
O208 O 0.85949 0.10883 0.12515 0.0
C209 C 0.88972 0.07543 0.3249 0.0
O210 O 0.87542 0.0673 0.29322 0.0
C211 C 0.87846 0.10959 0.97414 0.0
C212 C 0.89438 0.13558 0.9358 0.0
C213 C 0.88384 0.11826 0.92137 0.0
N214 N 0.88589 0.12106 0.0172 0.0
N215 N 0.89497 0.13681 0.99406 0.0
C216 C 0.86834 0.08976 0.98425 0.0
H217 H 0.87109 0.08444 0.02928 0.0
H218 H 0.87376 0.07835 0.95272 0.0
H219 H 0.85188 0.0916 0.97817 0.0
C220 C 0.92061 0.07126 0.16595 0.0
N221 N 0.90776 0.08691 0.16535 0.0
N222 N 0.90525 0.09313 0.11146 0.0
C223 C 0.91687 0.0818 0.07621 0.0
C224 C 0.92657 0.06743 0.10943 0.0
C225 C 0.92661 0.06004 0.21955 0.0
H226 H 0.93287 0.07075 0.25184 0.0
H227 H 0.91307 0.05298 0.23899 0.0
H228 H 0.93786 0.04815 0.21004 0.0
O229 O 0.90272 0.12937 0.22778 0.0
O230 O 0.89698 0.13938 0.13731 0.0
H231 H 0.9354 0.07988 -0.0007 0.0
H232 H 0.9089 0.07777 0.98693 0.0
C233 C 0.92046 0.08569 0.01294 0.0
H234 H 0.91985 0.10202 0.00372 0.0
H235 H 0.90246 0.14785 0.01799 0.0
O236 O 0.90058 0.08924 0.30301 0.0
C237 C 0.90273 0.14303 0.18898 0.0
Co238 Co 0.39241 0.8955 0.72079 0.0
Co239 Co 0.38421 0.88407 0.59099 0.0
C240 C 0.39566 0.85289 0.67571 0.0
O241 O 0.39564 0.86605 0.71577 0.0
O242 O 0.39205 0.8576 0.62316 0.0
C243 C 0.41762 0.89385 0.81886 0.0
O244 O 0.42818 0.88241 0.78365 0.0
C245 C 0.3914 0.8714 0.47027 0.0
C246 C 0.36794 0.88867 0.42394 0.0
C247 C 0.384 0.87573 0.41527 0.0
N248 N 0.38042 0.88166 0.5094 0.0
N249 N 0.36624 0.89169 0.4815 0.0
C250 C 0.40798 0.85717 0.48624 0.0
H251 H 0.4016 0.8448 0.51282 0.0
H252 H 0.41927 0.86499 0.51364 0.0
H253 H 0.41531 0.85054 0.44743 0.0
C254 C 0.42053 0.92404 0.66477 0.0
N255 N 0.40725 0.90877 0.66236 0.0
N256 N 0.40385 0.90407 0.60763 0.0
C257 C 0.41489 0.91627 0.57337 0.0
C258 C 0.42577 0.9293 0.60849 0.0
C259 C 0.42676 0.93435 0.7197 0.0
H260 H 0.41361 0.93595 0.74903 0.0
H261 H 0.4382 0.925 0.7421 0.0
H262 H 0.43328 0.94942 0.71088 0.0
O263 O 0.36365 0.90239 0.71394 0.0
O264 O 0.35787 0.89259 0.6232 0.0
H265 H 0.39981 0.91832 0.49136 0.0
H266 H 0.42584 0.9262 0.48895 0.0
C267 C 0.41514 0.91533 0.50832 0.0
H268 H 0.41973 0.90009 0.49439 0.0
H269 H 0.35576 0.90107 0.50167 0.0
O270 O 0.40188 0.90245 0.79961 0.0
C271 C 0.35173 0.89989 0.67123 0.0
H272 H 0.46457 0.93519 0.64097 0.0
H273 H 0.48789 0.96078 0.60391 0.0
H274 H 0.44053 0.98537 0.49697 0.0
H275 H 0.4172 0.9599 0.5344 0.0
H276 H 0.47519 0.97821 0.43586 0.0
H277 H 0.45586 0.01058 0.61361 0.0
H278 H 0.45036 0.01296 0.71934 0.0
H279 H 0.51324 0.00246 0.7496 0.0
H280 H 0.51908 -0.00031 0.64402 0.0
H281 H 0.52971 0.06493 0.34345 0.0
H282 H 0.50436 0.04182 0.38296 0.0
H283 H 0.54827 0.01858 0.50393 0.0
H284 H 0.57342 0.04191 0.46511 0.0
H285 H 0.51414 0.02593 0.55769 0.0
H286 H 0.53364 0.99239 0.38176 0.0
H287 H 0.53954 0.9888 0.27648 0.0
H288 H 0.47699 0.00013 0.24306 0.0
H289 H 0.47078 0.00415 0.34812 0.0
C290 C 0.45917 0.94627 0.61016 0.0
C291 C 0.43929 0.94558 0.58984 0.0
C292 C 0.47242 0.96083 0.58908 0.0
C293 C 0.46588 0.97493 0.54776 0.0
C294 C 0.44585 0.97454 0.52863 0.0
C295 C 0.4326 0.96004 0.54987 0.0
C296 C 0.48018 0.98948 0.52243 0.0
C297 C 0.48349 0.9889 0.46226 0.0
C298 C 0.49132 0.00297 0.55734 0.0
C299 C 0.48787 0.00475 0.62088 0.0
C300 C 0.46849 0.00861 0.64281 0.0
C301 C 0.46532 0.01006 0.70272 0.0
C302 C 0.48143 0.00781 0.74117 0.0
C303 C 0.50077 0.00417 0.71976 0.0
C304 C 0.50402 0.00268 0.65988 0.0
C305 C 0.53391 0.05466 0.37793 0.0
C306 C 0.55342 0.05493 0.40111 0.0
C307 C 0.51949 0.04152 0.40049 0.0
C308 C 0.52451 0.02836 0.44603 0.0
C309 C 0.54408 0.02862 0.46887 0.0
C310 C 0.55842 0.04185 0.44665 0.0
C311 C 0.50929 0.01461 0.47098 0.0
C312 C 0.50579 0.01533 0.53113 0.0
C313 C 0.49807 0.00114 0.43606 0.0
C314 C 0.5018 0.99882 0.37281 0.0
C315 C 0.52118 0.99432 0.35194 0.0
C316 C 0.52457 0.99218 0.2923 0.0
C317 C 0.50866 0.99431 0.25309 0.0
C318 C 0.48931 0.99854 0.27346 0.0
C319 C 0.48585 0.00076 0.33305 0.0
H320 H 0.51131 0.99262 0.20694 0.0
H321 H 0.47895 0.00894 0.78754 0.0
H322 H 0.57378 0.45643 0.03809 0.0
H323 H 0.5483 0.47927 0.9986 0.0
H324 H 0.5035 0.45254 0.11031 0.0
H325 H 0.52901 0.42941 0.14928 0.0
H326 H 0.49025 0.45775 0.99674 0.0
H327 H 0.52204 0.49677 0.14596 0.0
H328 H 0.55068 0.51168 0.19872 0.0
H329 H 0.56766 0.5447 0.04601 0.0
H330 H 0.53928 0.52973 0.99203 0.0
H331 H 0.41674 0.53533 0.96542 0.0
H332 H 0.44078 0.51025 0.0013 0.0
H333 H 0.4877 0.53764 0.89845 0.0
H334 H 0.46373 0.563 0.86368 0.0
H335 H 0.49945 0.53174 0.00912 0.0
H336 H 0.46774 0.49279 0.85959 0.0
H337 H 0.43928 0.47775 0.80635 0.0
H338 H 0.42217 0.44462 0.95872 0.0
H339 H 0.45038 0.4597 0.01317 0.0
C340 C 0.55849 0.45552 0.0542 0.0
C341 C 0.55329 0.44148 0.09713 0.0
C342 C 0.544 0.46854 0.03181 0.0
C343 C 0.52411 0.4677 0.05208 0.0
C344 C 0.51881 0.45345 0.09441 0.0
C345 C 0.53336 0.44044 0.11696 0.0
C346 C 0.50892 0.48179 0.02894 0.0
C347 C 0.49206 0.47393 0.00011 0.0
C348 C 0.51162 0.50285 0.03235 0.0
C349 C 0.52864 0.51198 0.0648 0.0
C350 C 0.53197 0.50708 0.12348 0.0
C351 C 0.54815 0.51557 0.15363 0.0
C352 C 0.56101 0.52909 0.1257 0.0
C353 C 0.55769 0.5342 0.06758 0.0
C354 C 0.54156 0.52573 0.03719 0.0
C355 C 0.43219 0.53586 0.95047 0.0
C356 C 0.43856 0.55105 0.91238 0.0
C357 C 0.44584 0.52151 0.97056 0.0
C358 C 0.46598 0.52207 0.9523 0.0
C359 C 0.47222 0.53699 0.91305 0.0
C360 C 0.45856 0.55135 0.89303 0.0
C361 C 0.4808 0.50774 0.97643 0.0
C362 C 0.49759 0.51556 0.00566 0.0
C363 C 0.47802 0.48666 0.9733 0.0
C364 C 0.46106 0.47754 0.94063 0.0
C365 C 0.45781 0.48243 0.88191 0.0
C366 C 0.44174 0.47387 0.85148 0.0
C367 C 0.42889 0.46028 0.87918 0.0
C368 C 0.43212 0.45518 0.93734 0.0
C369 C 0.44816 0.46371 0.96799 0.0
H370 H 0.41646 0.45366 0.85554 0.0
H371 H 0.57352 0.53565 0.14912 0.0
H372 H 0.93578 0.46503 0.35265 0.0
H373 H 0.96118 0.48859 0.38969 0.0
H374 H 0.99101 0.43973 0.47826 0.0
H375 H 0.96575 0.41617 0.4407 0.0
H376 H 0.98225 0.47179 0.55021 0.0
H377 H 0.01271 0.46051 0.36388 0.0
H378 H 0.01391 0.45888 0.2569 0.0
H379 H -0.00038 0.52179 0.24658 0.0
H380 H 0.99798 0.52373 0.35354 0.0
H381 H 0.06633 0.52866 0.64968 0.0
H382 H 0.04403 0.50334 0.60627 0.0
H383 H 0.01778 0.54912 0.49666 0.0
H384 H 0.04056 0.57416 0.5387 0.0
H385 H 0.02562 0.5175 0.43476 0.0
H386 H 0.9931 0.52912 0.61791 0.0
H387 H 0.99063 0.53159 0.7246 0.0
H388 H 0.00697 0.46933 0.74073 0.0
H389 H 0.00985 0.46656 0.63411 0.0
C390 C 0.948 0.45936 0.37915 0.0
C391 C 0.94881 0.43898 0.39469 0.0
C392 C 0.96246 0.47275 0.40022 0.0
C393 C 0.97789 0.46585 0.43681 0.0
C394 C 0.97913 0.44532 0.45035 0.0
C395 C 0.96476 0.43194 0.42902 0.0
C396 C 0.99191 0.48024 0.46425 0.0
C397 C 0.992 0.48159 0.52509 0.0
C398 C 0.00409 0.49336 0.43117 0.0
C399 C 0.00503 0.49221 0.36678 0.0
C400 C 0.00962 0.47395 0.33882 0.0
C401 C 0.01042 0.47298 0.27817 0.0
C402 C 0.00679 0.49021 0.24496 0.0
C403 C 0.00239 0.50845 0.27236 0.0
C404 C 0.00154 0.50949 0.333 0.0
C405 C 0.05556 0.53323 0.61688 0.0
C406 C 0.05489 0.55322 0.59759 0.0
C407 C 0.04286 0.51884 0.59214 0.0
C408 C 0.0291 0.52439 0.54856 0.0
C409 C 0.0283 0.54449 0.53007 0.0
C410 C 0.04117 0.55878 0.55422 0.0
C411 C 0.0159 0.50919 0.5209 0.0
C412 C 0.01594 0.50768 0.46 0.0
C413 C 0.00363 0.49607 0.5539 0.0
C414 C 0.0019 0.4977 0.61804 0.0
C415 C 0.99633 0.516 0.64422 0.0
C416 C 0.99483 0.51745 0.70468 0.0
C417 C 0.99869 0.50064 0.73943 0.0
C418 C 0.00402 0.48234 0.71376 0.0
C419 C 0.00558 0.48082 0.65332 0.0
H420 H 0.99751 0.50179 0.78622 0.0
H421 H 0.00744 0.48943 0.19801 0.0
H422 H 0.96615 0.06222 0.13447 0.0
H423 H 0.98924 0.03782 0.08953 0.0
H424 H 0.93999 0.013 0.99058 0.0
H425 H 0.91702 0.03764 0.03457 0.0
H426 H 0.96763 0.98379 0.04575 0.0
H427 H 0.96599 0.04177 0.92207 0.0
H428 H 0.96802 0.07799 0.89997 0.0
H429 H 0.0293 0.07921 0.95917 0.0
H430 H 0.0275 0.04301 0.9826 0.0
H431 H 0.0274 0.92785 0.84796 0.0
H432 H 0.00201 0.95159 0.88433 0.0
H433 H 0.04889 0.98675 0.96538 0.0
H434 H 0.07422 0.96329 0.92792 0.0
H435 H 0.02083 0.01054 0.91543 0.0
H436 H 0.0222 0.95325 0.04356 0.0
H437 H 0.02027 0.91717 0.06801 0.0
H438 H 0.95978 0.91476 0.00272 0.0
H439 H 0.96147 0.95078 0.97706 0.0
C440 C 0.96032 0.05131 0.1038 0.0
C441 C 0.93998 0.05155 0.08787 0.0
C442 C 0.97342 0.03751 0.07812 0.0
C443 C 0.96622 0.02374 0.03682 0.0
C444 C 0.94572 0.0235 0.02256 0.0
C445 C 0.9327 0.03751 0.04749 0.0
C446 C 0.9803 0.01027 0.00629 0.0
C447 C 0.97911 0.98954 0.01661 0.0
C448 C 0.99535 0.01798 0.96907 0.0
C449 C 0.99654 0.03972 0.95466 0.0
C450 C 0.97984 0.0498 0.93092 0.0
C451 C 0.98096 0.07032 0.91805 0.0
C452 C 0.99876 0.08091 0.9283 0.0
C453 C 0.0155 0.07098 0.95132 0.0
C454 C 0.01445 0.05046 0.96437 0.0
C455 C 0.03218 0.94081 0.87294 0.0
C456 C 0.05257 0.94374 0.88607 0.0
C457 C 0.01775 0.95426 0.89387 0.0
C458 C 0.02359 0.97072 0.92829 0.0
C459 C 0.04409 0.97409 0.93912 0.0
C460 C 0.05849 0.96069 0.91811 0.0
C461 C 0.00836 0.98397 0.95525 0.0
C462 C 0.00931 0.00472 0.94429 0.0
C463 C 0.99313 0.97627 0.99207 0.0
C464 C 0.99204 0.95465 0.00781 0.0
C465 C 0.00854 0.94499 0.034 0.0
C466 C 0.00748 0.92456 0.04814 0.0
C467 C 0.98993 0.91367 0.03678 0.0
C468 C 0.97338 0.92321 0.0114 0.0
C469 C 0.97437 0.94363 0.99707 0.0
H470 H 0.98913 0.89785 0.04777 0.0
H471 H -0.00039 0.0968 0.91828 0.0
H472 H 0.59019 0.17594 0.37934 0.0
H473 H 0.58415 0.21108 0.35449 0.0
H474 H 0.57833 0.19496 0.17366 0.0
H475 H 0.58455 0.15969 0.19797 0.0
H476 H 0.60525 0.22487 0.19051 0.0
H477 H 0.53768 0.21106 0.24872 0.0
H478 H 0.5108 0.19847 0.31295 0.0
H479 H 0.5288 0.24018 0.44568 0.0
H480 H 0.55599 0.25283 0.38257 0.0
H481 H 0.58823 0.32505 0.1079 0.0
H482 H 0.58169 0.2893 0.12292 0.0
H483 H 0.58442 0.29803 0.30859 0.0
H484 H 0.59034 0.334 0.29394 0.0
H485 H 0.55597 0.27123 0.28178 0.0
H486 H 0.6256 0.28172 0.23111 0.0
H487 H 0.65356 0.2941 0.17036 0.0
H488 H 0.63271 0.25812 0.02749 0.0
H489 H 0.60445 0.24573 0.08722 0.0
C490 C 0.58737 0.17978 0.33432 0.0
C491 C 0.58802 0.16501 0.29055 0.0
C492 C 0.58377 0.19988 0.32028 0.0
C493 C 0.58067 0.20559 0.26229 0.0
C494 C 0.58065 0.19082 0.2187 0.0
C495 C 0.58419 0.17068 0.23271 0.0
C496 C 0.57945 0.22716 0.24681 0.0
C497 C 0.59418 0.23494 0.20942 0.0
C498 C 0.56538 0.24033 0.27294 0.0
C499 C 0.54899 0.2328 0.311 0.0
C500 C 0.53602 0.21745 0.29177 0.0
C501 C 0.5207 0.21032 0.32796 0.0
C502 C 0.51812 0.21849 0.3834 0.0
C503 C 0.53082 0.23385 0.40273 0.0
C504 C 0.54618 0.24103 0.36672 0.0
C505 C 0.58725 0.31941 0.15197 0.0
C506 C 0.59007 0.33228 0.19977 0.0
C507 C 0.58352 0.29897 0.16046 0.0
C508 C 0.58299 0.29094 0.21683 0.0
C509 C 0.58484 0.30391 0.2647 0.0
C510 C 0.58829 0.32444 0.25626 0.0
C511 C 0.58185 0.2689 0.22585 0.0
C512 C 0.5668 0.26108 0.26217 0.0
C513 C 0.59576 0.25564 0.19924 0.0
C514 C 0.6128 0.26298 0.1634 0.0
C515 C 0.6269 0.27656 0.18661 0.0
C516 C 0.64281 0.28356 0.15238 0.0
C517 C 0.64487 0.27695 0.09504 0.0
C518 C 0.63107 0.26326 0.07187 0.0
C519 C 0.61511 0.25624 0.10589 0.0
H520 H 0.6572 0.28239 0.06861 0.0
H521 H 0.50625 0.21295 0.41135 0.0
H522 H 0.17499 0.59251 0.62826 0.0
H523 H 0.21017 0.58863 0.6565 0.0
H524 H 0.19307 0.58936 0.83731 0.0
H525 H 0.15776 0.59328 0.80956 0.0
H526 H 0.22294 0.61643 0.81163 0.0
H527 H 0.20966 0.54665 0.77901 0.0
H528 H 0.19756 0.51703 0.72479 0.0
H529 H 0.24 0.52915 0.58852 0.0
H530 H 0.25217 0.55903 0.64153 0.0
H531 H 0.32218 0.60013 0.9105 0.0
H532 H 0.28626 0.59532 0.89334 0.0
H533 H 0.29729 0.59046 0.70909 0.0
H534 H 0.33332 0.59483 0.72588 0.0
H535 H 0.26987 0.56338 0.74332 0.0
H536 H 0.28076 0.63439 0.7689 0.0
H537 H 0.29268 0.66486 0.81949 0.0
H538 H 0.25445 0.65131 0.96476 0.0
H539 H 0.2425 0.6206 0.91531 0.0
C540 C 0.17865 0.59161 0.67405 0.0
C541 C 0.16357 0.59332 0.71668 0.0
C542 C 0.19876 0.58928 0.69008 0.0
C543 C 0.20417 0.58861 0.74896 0.0
C544 C 0.18914 0.5898 0.79163 0.0
C545 C 0.16899 0.592 0.77565 0.0
C546 C 0.22564 0.5883 0.76575 0.0
C547 C 0.23315 0.60462 0.79776 0.0
C548 C 0.23897 0.57318 0.74608 0.0
C549 C 0.23171 0.55519 0.71407 0.0
C550 C 0.2163 0.5431 0.73725 0.0
C551 C 0.20945 0.52624 0.70678 0.0
C552 C 0.21797 0.52123 0.65318 0.0
C553 C 0.2334 0.53305 0.63002 0.0
C554 C 0.24029 0.54994 0.6603 0.0
C555 C 0.317 0.59795 0.86631 0.0
C556 C 0.33061 0.59805 0.81947 0.0
C557 C 0.29646 0.59523 0.8566 0.0
C558 C 0.28909 0.59282 0.79988 0.0
C559 C 0.30267 0.59231 0.75322 0.0
C560 C 0.32325 0.5949 0.76289 0.0
C561 C 0.26717 0.59158 0.78889 0.0
C562 C 0.25961 0.57505 0.75781 0.0
C563 C 0.25377 0.6066 0.80892 0.0
C564 C 0.26091 0.62508 0.8387 0.0
C565 C 0.27502 0.63782 0.81184 0.0
C566 C 0.28176 0.65515 0.84026 0.0
C567 C 0.27438 0.65998 0.89538 0.0
C568 C 0.26019 0.64753 0.92212 0.0
C569 C 0.25342 0.63016 0.8939 0.0
H570 H 0.27961 0.67341 0.91731 0.0
H571 H 0.21265 0.50817 0.62966 0.0
H572 H 0.90464 0.17581 0.11754 0.0
H573 H 0.91052 0.21069 0.14512 0.0
H574 H 0.91966 0.19255 0.32318 0.0
H575 H 0.91348 0.15749 0.29616 0.0
H576 H 0.89284 0.22238 0.31501 0.0
H577 H 0.9589 0.21021 0.24165 0.0
H578 H 0.98428 0.19864 0.17101 0.0
H579 H 0.96246 0.24128 0.04581 0.0
H580 H 0.93675 0.25292 0.1154 0.0
H581 H 0.91016 0.32308 0.39792 0.0
H582 H 0.91645 0.28734 0.38121 0.0
H583 H 0.90936 0.29631 0.1966 0.0
H584 H 0.90369 0.3322 0.21279 0.0
H585 H 0.93887 0.27037 0.217 0.0
H586 H 0.87035 0.27893 0.28316 0.0
H587 H 0.84391 0.29028 0.35088 0.0
H588 H 0.8695 0.25399 0.48643 0.0
H589 H 0.89626 0.24262 0.41964 0.0
C590 C 0.90816 0.17914 0.16249 0.0
C591 C 0.90844 0.16385 0.20474 0.0
C592 C 0.91166 0.19911 0.17809 0.0
C593 C 0.91569 0.20419 0.23612 0.0
C594 C 0.91662 0.18892 0.27812 0.0
C595 C 0.9131 0.1689 0.26257 0.0
C596 C 0.91706 0.2256 0.25346 0.0
C597 C 0.90324 0.2328 0.29456 0.0
C598 C 0.93026 0.23924 0.2256 0.0
C599 C 0.9458 0.23235 0.18369 0.0
C600 C 0.95941 0.21703 0.19892 0.0
C601 C 0.97388 0.21047 0.15908 0.0
C602 C 0.97496 0.21919 0.10393 0.0
C603 C 0.9616 0.23453 0.08855 0.0
C604 C 0.9471 0.24114 0.12822 0.0
C605 C 0.91007 0.31747 0.35371 0.0
C606 C 0.9062 0.33042 0.30669 0.0
C607 C 0.91365 0.29704 0.34426 0.0
C608 C 0.913 0.2891 0.28776 0.0
C609 C 0.90989 0.30212 0.24058 0.0
C610 C 0.90658 0.32261 0.24992 0.0
C611 C 0.91447 0.26712 0.27788 0.0
C612 C 0.92875 0.25986 0.23813 0.0
C613 C 0.90157 0.25338 0.30658 0.0
C614 C 0.88542 0.26011 0.34662 0.0
C615 C 0.87041 0.27348 0.32752 0.0
C616 C 0.85536 0.2799 0.36571 0.0
C617 C 0.85506 0.27291 0.42297 0.0
C618 C 0.86978 0.25942 0.4421 0.0
C619 C 0.88488 0.25298 0.40409 0.0
H620 H 0.8434 0.2779 0.45248 0.0
H621 H 0.98617 0.21409 0.07314 0.0
H622 H 0.32173 0.89491 0.59129 0.0
H623 H 0.28592 0.90179 0.60363 0.0
H624 H 0.29704 0.92353 0.77732 0.0
H625 H 0.33297 0.9168 0.76543 0.0
H626 H 0.26176 0.88404 0.68303 0.0
H627 H 0.26128 0.95952 0.80934 0.0
H628 H 0.2812 0.99078 0.81531 0.0
H629 H 0.30148 0.98226 0.63986 0.0
H630 H 0.28147 0.95111 0.63253 0.0
H631 H 0.17697 0.89901 0.85912 0.0
H632 H 0.21195 0.9038 0.83021 0.0
H633 H 0.19269 0.93082 0.66933 0.0
H634 H 0.15742 0.92574 0.69721 0.0
H635 H 0.23059 0.94857 0.74419 0.0
H636 H 0.20226 0.89122 0.63838 0.0
H637 H 0.18196 0.86017 0.63424 0.0
H638 H 0.21969 0.8331 0.76401 0.0
H639 H 0.24 0.86415 0.76954 0.0
C640 C 0.31663 0.90133 0.63199 0.0
C641 C 0.33022 0.90517 0.67757 0.0
C642 C 0.29616 0.90526 0.63888 0.0
C643 C 0.28888 0.91327 0.69119 0.0
C644 C 0.30242 0.91759 0.73629 0.0
C645 C 0.32292 0.91361 0.72954 0.0
C646 C 0.26697 0.91552 0.70028 0.0
C647 C 0.25497 0.89823 0.69565 0.0
C648 C 0.2581 0.93402 0.71693 0.0
C649 C 0.27 0.95288 0.7206 0.0
C650 C 0.26991 0.96436 0.77194 0.0
C651 C 0.28124 0.98205 0.77558 0.0
C652 C 0.29264 0.98847 0.72805 0.0
C653 C 0.2927 0.97723 0.67671 0.0
C654 C 0.2814 0.95954 0.67283 0.0
C655 C 0.18008 0.90631 0.818 0.0
C656 C 0.1644 0.91178 0.7801 0.0
C657 C 0.20008 0.90908 0.80173 0.0
C658 C 0.20475 0.91761 0.74777 0.0
C659 C 0.18925 0.92429 0.7113 0.0
C660 C 0.16916 0.92125 0.72716 0.0
C661 C 0.22571 0.91712 0.72711 0.0
C662 C 0.23748 0.93457 0.73035 0.0
C663 C 0.23444 0.89884 0.70876 0.0
C664 C 0.22251 0.88004 0.70474 0.0
C665 C 0.20611 0.8787 0.66636 0.0
C666 C 0.19463 0.8611 0.6637 0.0
C667 C 0.1995 0.84469 0.69895 0.0
C668 C 0.21592 0.84583 0.73678 0.0
C669 C 0.22743 0.86342 0.73966 0.0
H670 H 0.19059 0.83107 0.69686 0.0
H671 H 0.3014 0.00216 0.73097 0.0
H672 H 0.40805 0.82219 0.60488 0.0
H673 H 0.41357 0.78701 0.63189 0.0
H674 H 0.39651 0.8006 0.8087 0.0
H675 H 0.39195 0.83582 0.78263 0.0
H676 H 0.42602 0.77588 0.81115 0.0
H677 H 0.36348 0.77828 0.7056 0.0
H678 H 0.34143 0.78592 0.62223 0.0
H679 H 0.37723 0.74773 0.5128 0.0
H680 H 0.39964 0.74005 0.59539 0.0
H681 H 0.39389 0.67824 0.90362 0.0
H682 H 0.39812 0.71366 0.87758 0.0
H683 H 0.42084 0.69623 0.70927 0.0
H684 H 0.41638 0.66088 0.73444 0.0
H685 H 0.39095 0.72252 0.69964 0.0
H686 H 0.45124 0.71744 0.81382 0.0
H687 H 0.47151 0.70989 0.90087 0.0
H688 H 0.43769 0.75318 -0.00083 0.0
H689 H 0.41699 0.76076 0.91301 0.0
C690 C 0.40555 0.81765 0.64949 0.0
C691 C 0.39941 0.8317 0.69149 0.0
C692 C 0.40864 0.79754 0.66488 0.0
C693 C 0.40507 0.79106 0.72212 0.0
C694 C 0.39935 0.8052 0.76428 0.0
C695 C 0.39667 0.82534 0.74922 0.0
C696 C 0.40675 0.7695 0.73811 0.0
C697 C 0.41821 0.76421 0.78708 0.0
C698 C 0.39685 0.75423 0.70612 0.0
C699 C 0.38335 0.75877 0.65649 0.0
C700 C 0.36672 0.77162 0.66365 0.0
C701 C 0.35415 0.77594 0.61656 0.0
C702 C 0.35797 0.76737 0.56221 0.0
C703 C 0.37432 0.75439 0.55489 0.0
C704 C 0.38695 0.75004 0.60183 0.0
C705 C 0.40009 0.68194 0.86143 0.0
C706 C 0.4046 0.66674 0.82091 0.0
C707 C 0.40259 0.70219 0.8467 0.0
C708 C 0.40985 0.70756 0.79153 0.0
C709 C 0.41517 0.6924 0.75202 0.0
C710 C 0.41259 0.6722 0.76653 0.0
C711 C 0.41012 0.72889 0.77289 0.0
C712 C 0.39894 0.73414 0.72343 0.0
C713 C 0.41999 0.74411 0.80506 0.0
C714 C 0.43242 0.73951 0.85701 0.0
C715 C 0.44799 0.72521 0.85413 0.0
C716 C 0.45958 0.72095 0.90331 0.0
C717 C 0.45585 0.731 0.95556 0.0
C718 C 0.44054 0.74537 0.95871 0.0
C719 C 0.42888 0.74966 0.90969 0.0
H720 H 0.46485 0.72769 0.99357 0.0
H721 H 0.34822 0.77073 0.52581 0.0
H722 H 0.82414 0.3972 0.4072 0.0
H723 H 0.78803 0.40093 0.3899 0.0
H724 H 0.79901 0.40573 0.20559 0.0
H725 H 0.83506 0.40263 0.22252 0.0
H726 H 0.77068 0.43129 0.23645 0.0
H727 H 0.78429 0.36101 0.26951 0.0
H728 H 0.79713 0.33173 0.32394 0.0
H729 H 0.75744 0.34554 0.46573 0.0
H730 H 0.74456 0.37507 0.41241 0.0
H731 H 0.67643 0.39847 0.12167 0.0
H732 H 0.71186 0.40207 0.14904 0.0
H733 H 0.69506 0.40441 0.32996 0.0
H734 H 0.65971 0.40091 0.30331 0.0
H735 H 0.72555 0.37705 0.30697 0.0
H736 H 0.70997 0.44607 0.26727 0.0
H737 H 0.69699 0.47443 0.20926 0.0
H738 H 0.74025 0.46185 0.07548 0.0
H739 H 0.7533 0.43322 0.13234 0.0
C740 C 0.81889 0.39923 0.36305 0.0
C741 C 0.83248 0.39943 0.31622 0.0
C742 C 0.79824 0.40129 0.35321 0.0
C743 C 0.79081 0.40327 0.29634 0.0
C744 C 0.8044 0.40419 0.24981 0.0
C745 C 0.82502 0.40232 0.25961 0.0
C746 C 0.76887 0.40355 0.28473 0.0
C747 C 0.76084 0.41935 0.25148 0.0
C748 C 0.75596 0.38816 0.30523 0.0
C749 C 0.76364 0.37038 0.33727 0.0
C750 C 0.77842 0.35789 0.31248 0.0
C751 C 0.78568 0.34124 0.3431 0.0
C752 C 0.77815 0.33681 0.39833 0.0
C753 C 0.76329 0.349 0.42299 0.0
C754 C 0.756 0.3657 0.39259 0.0
C755 C 0.68027 0.39988 0.16724 0.0
C756 C 0.66525 0.39934 0.21026 0.0
C757 C 0.70048 0.40202 0.18277 0.0
C758 C 0.706 0.40359 0.24149 0.0
C759 C 0.69107 0.40324 0.28444 0.0
C760 C 0.67087 0.40127 0.269 0.0
C761 C 0.72745 0.40465 0.25828 0.0
C762 C 0.73537 0.38908 0.29242 0.0
C763 C 0.74026 0.42012 0.23808 0.0
C764 C 0.73249 0.43738 0.20386 0.0
C765 C 0.7166 0.44924 0.22526 0.0
C766 C 0.70925 0.46539 0.19263 0.0
C767 C 0.71775 0.46991 0.13866 0.0
C768 C 0.73366 0.45832 0.11727 0.0
C769 C 0.74106 0.44214 0.14971 0.0
H770 H 0.71205 0.48242 0.11346 0.0
H771 H 0.78379 0.32391 0.42196 0.0
H772 H 0.11231 0.83613 0.70964 0.0
H773 H 0.10945 0.8004 0.68824 0.0
H774 H 0.0938 0.78865 0.86712 0.0
H775 H 0.09757 0.82458 0.88953 0.0
H776 H 0.11859 0.76096 0.82889 0.0
H777 H 0.05768 0.79024 0.75528 0.0
H778 H 0.03804 0.8149 0.69876 0.0
H779 H 0.06601 0.79442 0.54129 0.0
H780 H 0.08604 0.76981 0.59696 0.0
H781 H 0.08433 0.66271 0.7776 0.0
H782 H 0.08306 0.69859 0.79882 0.0
H783 H 0.10627 0.71177 0.628 0.0
H784 H 0.10749 0.67573 0.6059 0.0
H785 H 0.0761 0.73848 0.66368 0.0
H786 H 0.13796 0.71069 0.73754 0.0
H787 H 0.15844 0.68664 0.79373 0.0
H788 H 0.1286 0.70473 0.95081 0.0
H789 H 0.10772 0.7287 0.89537 0.0
C790 C 0.10826 0.82596 0.74452 0.0
C791 C 0.10496 0.83313 0.80118 0.0
C792 C 0.10652 0.80554 0.73211 0.0
C793 C 0.10087 0.79192 0.77568 0.0
C794 C 0.09802 0.79894 0.83272 0.0
C795 C 0.10015 0.81942 0.84549 0.0
C796 C 0.09816 0.77034 0.76142 0.0
C797 C 0.109 0.75604 0.79348 0.0
C798 C 0.086 0.76394 0.71423 0.0
C799 C 0.07346 0.77826 0.68038 0.0
C800 C 0.05969 0.79103 0.70862 0.0
C801 C 0.04849 0.805 0.67673 0.0
C802 C 0.05081 0.80625 0.61649 0.0
C803 C 0.06424 0.79344 0.58796 0.0
C804 C 0.07549 0.77945 0.61965 0.0
C805 C 0.08896 0.67318 0.74412 0.0
C806 C 0.09628 0.66632 0.69025 0.0
C807 C 0.08824 0.6937 0.75645 0.0
C808 C 0.09489 0.70775 0.71534 0.0
C809 C 0.10115 0.7011 0.66035 0.0
C810 C 0.10188 0.68051 0.64789 0.0
C811 C 0.0965 0.72924 0.73126 0.0
C812 C 0.0855 0.74347 0.69943 0.0
C813 C 0.10846 0.7356 0.77871 0.0
C814 C 0.12114 0.72134 0.81222 0.0
C815 C 0.13566 0.70943 0.784 0.0
C816 C 0.14736 0.69583 0.81572 0.0
C817 C 0.14479 0.69412 0.87578 0.0
C818 C 0.13055 0.70605 0.90427 0.0
C819 C 0.1188 0.71966 0.87273 0.0
H820 H 0.15385 0.68358 0.90026 0.0
H821 H 0.04218 0.81713 0.5919 0.0
H822 H 0.83488 0.08248 0.26293 0.0
H823 H 0.79896 0.08081 0.2846 0.0
H824 H 0.78608 0.11618 0.13195 0.0
H825 H 0.82209 0.11782 0.10946 0.0
H826 H 0.76742 0.13032 0.2351 0.0
H827 H 0.77516 0.06917 0.12611 0.0
H828 H 0.79054 0.03649 0.10168 0.0
H829 H 0.77496 0.01367 0.27035 0.0
H830 H 0.75973 0.04634 0.29611 0.0
H831 H 0.6608 0.08702 0.21976 0.0
H832 H 0.69648 0.08509 0.19651 0.0
H833 H 0.71108 0.11208 0.3617 0.0
H834 H 0.67519 0.11411 0.38564 0.0
H835 H 0.72869 0.06663 0.24922 0.0
H836 H 0.75049 0.14498 0.33492 0.0
H837 H 0.7347 0.17788 0.35498 0.0
H838 H 0.69039 0.1666 0.22309 0.0
H839 H 0.70608 0.13379 0.20173 0.0
C840 C 0.82442 0.08977 0.23362 0.0
C841 C 0.83132 0.10032 0.18448 0.0
C842 C 0.80391 0.08876 0.24605 0.0
C843 C 0.78996 0.09837 0.20984 0.0
C844 C 0.7967 0.1087 0.16038 0.0
C845 C 0.81723 0.10953 0.14747 0.0
C846 C 0.76836 0.09812 0.22483 0.0
C847 C 0.75893 0.11641 0.23818 0.0
C848 C 0.75738 0.07995 0.22863 0.0
C849 C 0.76648 0.06027 0.21323 0.0
C850 C 0.77517 0.05725 0.15818 0.0
C851 C 0.78383 0.03871 0.14405 0.0
C852 C 0.78378 0.02303 0.18449 0.0
C853 C 0.77501 0.02584 0.2391 0.0
C854 C 0.76635 0.04436 0.25346 0.0
C855 C 0.67154 0.09241 0.25152 0.0
C856 C 0.66513 0.10086 0.30446 0.0
C857 C 0.69195 0.09121 0.23817 0.0
C858 C 0.70635 0.09859 0.27715 0.0
C859 C 0.70012 0.10647 0.33086 0.0
C860 C 0.67964 0.10757 0.34449 0.0
C861 C 0.72778 0.09883 0.26003 0.0
C862 C 0.7372 0.08053 0.24641 0.0
C863 C 0.73872 0.11702 0.25545 0.0
C864 C 0.72934 0.13685 0.26722 0.0
C865 C 0.73742 0.14957 0.31008 0.0
C866 C 0.72848 0.16819 0.32169 0.0
C867 C 0.71151 0.1743 0.29047 0.0
C868 C 0.70349 0.16183 0.2474 0.0
C869 C 0.71239 0.1432 0.23557 0.0
H870 H 0.7046 0.18871 0.29956 0.0
H871 H 0.79048 0.00869 0.17347 0.0
H872 H 0.59522 0.08436 0.60753 0.0
H873 H 0.59428 0.07092 0.70676 0.0
H874 H 0.63982 0.11352 0.75856 0.0
H875 H 0.64041 0.12738 0.6594 0.0
H876 H 0.63938 0.06462 0.7982 0.0
H877 H 0.60453 0.13158 0.79621 0.0
H878 H 0.57939 0.15426 0.75214 0.0
H879 H 0.53381 0.109 0.77275 0.0
H880 H 0.55881 0.08597 0.81617 0.0
H881 H 0.641 0.07647 0.10007 0.0
H882 H 0.64223 0.07649 0.99456 0.0
H883 H 0.57768 0.06863 0.98822 0.0
H884 H 0.57639 0.07059 0.09459 0.0
H885 H 0.58529 0.09487 0.91854 0.0
H886 H 0.61557 0.03095 0.94121 0.0
H887 H 0.63848 0.00506 0.98013 0.0
H888 H 0.6894 0.03795 0.91558 0.0
H889 H 0.66684 0.06418 0.87694 0.0
C890 C 0.60538 0.09047 0.63981 0.0
C891 C 0.61809 0.10666 0.62621 0.0
C892 C 0.6048 0.08283 0.69624 0.0
C893 C 0.6171 0.09117 0.73939 0.0
C894 C 0.63041 0.10682 0.72534 0.0
C895 C 0.6307 0.11473 0.66911 0.0
C896 C 0.61443 0.08514 0.80043 0.0
C897 C 0.6277 0.07121 0.82508 0.0
C898 C 0.59855 0.09307 0.83392 0.0
C899 C 0.58354 0.10703 0.80874 0.0
C900 C 0.58919 0.12643 0.79085 0.0
C901 C 0.57497 0.13935 0.7661 0.0
C902 C 0.55503 0.13305 0.75949 0.0
C903 C 0.54926 0.11384 0.7778 0.0
C904 C 0.56344 0.10086 0.80248 0.0
C905 C 0.62714 0.07434 0.07605 0.0
C906 C 0.6086 0.07347 0.10503 0.0
C907 C 0.62784 0.07414 0.01555 0.0
C908 C 0.6101 0.07216 0.9828 0.0
C909 C 0.59161 0.07022 0.01222 0.0
C910 C 0.59084 0.07123 0.07287 0.0
C911 C 0.61068 0.07448 0.91849 0.0
C912 C 0.59692 0.08779 0.89252 0.0
C913 C 0.62581 0.06543 0.88356 0.0
C914 C 0.63948 0.04961 0.90642 0.0
C915 C 0.63166 0.03273 0.93559 0.0
C916 C 0.64459 0.01798 0.95757 0.0
C917 C 0.66538 0.01987 0.9504 0.0
C918 C 0.67329 0.0365 0.92109 0.0
C919 C 0.66043 0.0513 0.89903 0.0
H920 H 0.67536 0.00845 0.96748 0.0
H921 H 0.54404 0.14307 0.74032 0.0
H922 H 0.4525 0.61431 0.62183 0.0
H923 H 0.45563 0.61602 0.51584 0.0
H924 H 0.39656 0.58969 0.49802 0.0
H925 H 0.39368 0.58722 0.60289 0.0
H926 H 0.41911 0.57642 0.41539 0.0
H927 H 0.40556 0.64243 0.5003 0.0
H928 H 0.41352 0.67148 0.56308 0.0
H929 H 0.46904 0.68047 0.47116 0.0
H930 H 0.46149 0.6513 0.40829 0.0
H931 H 0.36523 0.62274 0.19289 0.0
H932 H 0.38001 0.62046 0.28999 0.0
H933 H 0.43944 0.61898 0.21521 0.0
H934 H 0.4248 0.62031 0.11775 0.0
H935 H 0.42625 0.64554 0.33612 0.0
H936 H 0.43498 0.57987 0.24145 0.0
H937 H 0.42234 0.55258 0.17854 0.0
H938 H 0.37148 0.54458 0.29134 0.0
H939 H 0.38366 0.57208 0.3543 0.0
C940 C 0.44038 0.60852 0.59518 0.0
C941 C 0.42272 0.6009 0.62071 0.0
C942 C 0.44215 0.60959 0.53468 0.0
C943 C 0.42616 0.60338 0.49903 0.0
C944 C 0.4091 0.59462 0.52455 0.0
C945 C 0.40744 0.5933 0.58471 0.0
C946 C 0.42607 0.60734 0.43566 0.0
C947 C 0.42096 0.5915 0.3981 0.0
C948 C 0.42866 0.62699 0.41271 0.0
C949 C 0.43309 0.64458 0.45015 0.0
C950 C 0.41952 0.65055 0.49374 0.0
C951 C 0.42394 0.66703 0.5293 0.0
C952 C 0.4418 0.67777 0.52123 0.0
C953 C 0.45524 0.6721 0.47745 0.0
C954 C 0.45089 0.6556 0.44185 0.0
C955 C 0.38146 0.62241 0.19716 0.0
C956 C 0.39384 0.6221 0.14775 0.0
C957 C 0.38986 0.62117 0.25251 0.0
C958 C 0.41075 0.61964 0.25931 0.0
C959 C 0.42328 0.62042 0.21047 0.0
C960 C 0.41487 0.62142 0.15487 0.0
C961 C 0.41891 0.61472 0.31702 0.0
C962 C 0.42531 0.63037 0.35331 0.0
C963 C 0.41721 0.59499 0.33915 0.0
C964 C 0.41016 0.57811 0.30227 0.0
C965 C 0.42103 0.57238 0.25256 0.0
C966 C 0.41396 0.55687 0.21694 0.0
C967 C 0.3961 0.54687 0.23088 0.0
C968 C 0.38531 0.55233 0.28058 0.0
C969 C 0.3923 0.56787 0.31626 0.0
H970 H 0.39064 0.53488 0.20324 0.0
H971 H 0.44521 0.69053 0.5488 0.0
H972 H 0.91631 0.40135 0.0904 0.0
H973 H 0.91369 0.40515 0.98532 0.0
H974 H 0.86715 0.44975 0.0078 0.0
H975 H 0.86955 0.44591 0.11332 0.0
H976 H 0.85529 0.42071 0.93587 0.0
H977 H 0.91182 0.4635 0.94978 0.0
H978 H 0.94545 0.47484 0.98092 0.0
H979 H 0.97253 0.42478 0.89253 0.0
H980 H 0.93904 0.41295 0.86157 0.0
H981 H 0.88983 0.42333 0.6074 0.0
H982 H 0.88876 0.43823 0.70477 0.0
H983 H 0.86962 0.38121 0.77546 0.0
H984 H 0.8704 0.36639 0.67804 0.0
H985 H 0.91161 0.42698 0.79555 0.0
H986 H 0.83979 0.3889 0.89153 0.0
H987 H 0.80569 0.37952 0.85904 0.0
H988 H 0.80813 0.42464 0.72571 0.0
H989 H 0.8421 0.43451 0.75791 0.0
C990 C 0.90578 0.41226 0.07311 0.0
C991 C 0.893 0.42319 0.11014 0.0
C992 C 0.90438 0.41451 0.01298 0.0
C993 C 0.89026 0.42779 0.98877 0.0
C994 C 0.87815 0.43943 0.02568 0.0
C995 C 0.87959 0.43725 0.08594 0.0
C996 C 0.88675 0.42768 0.92523 0.0
C997 C 0.86754 0.42233 0.90507 0.0
C998 C 0.90263 0.43027 0.88502 0.0
C999 C 0.92287 0.43729 0.90355 0.0
C1000 C 0.92493 0.45482 0.93732 0.0
C1001 C 0.94398 0.46135 0.95489 0.0
C1002 C 0.96111 0.45053 0.93876 0.0
C1003 C 0.95924 0.43316 0.90497 0.0
C1004 C 0.94022 0.42655 0.88731 0.0
C1005 C 0.88471 0.41421 0.64349 0.0
C1006 C 0.87967 0.39387 0.63531 0.0
C1007 C 0.88433 0.42266 0.69907 0.0
C1008 C 0.87887 0.4109 0.74714 0.0
C1009 C 0.8735 0.39066 0.73877 0.0
C1010 C 0.874 0.38219 0.6833 0.0
C1011 C 0.88042 0.41906 0.8068 0.0
C1012 C 0.89926 0.42584 0.8262 0.0
C1013 C 0.86413 0.41808 0.8462 0.0
C1014 C 0.84357 0.41237 0.82699 0.0
C1015 C 0.83301 0.39691 0.85551 0.0
C1016 C 0.81371 0.39149 0.83708 0.0
C1017 C 0.80477 0.40145 0.79027 0.0
C1018 C 0.81509 0.41689 0.76186 0.0
C1019 C 0.83439 0.42239 0.78013 0.0
H1020 H 0.78983 0.39722 0.77605 0.0
H1021 H 0.97585 0.45561 0.9524 0.0
H1022 H 0.11244 0.91988 0.13714 0.0
H1023 H 0.09993 0.91725 0.23638 0.0
H1024 H 0.09781 0.85257 0.22054 0.0
H1025 H 0.11009 0.85519 0.11999 0.0
H1026 H 0.06502 0.86771 0.28084 0.0
H1027 H 0.13668 0.8733 0.28814 0.0
H1028 H 0.1699 0.88768 0.26455 0.0
H1029 H 0.15242 0.94399 0.34088 0.0
H1030 H 0.11898 0.93005 0.36419 0.0
H1031 H 0.06891 0.85435 0.59272 0.0
H1032 H 0.07036 0.85331 0.48665 0.0
H1033 H 0.07751 0.91787 0.48227 0.0
H1034 H 0.0768 0.91888 0.58831 0.0
H1035 H 0.10789 0.89959 0.43144 0.0
H1036 H 0.03547 0.89311 0.42433 0.0
H1037 H 0.00291 0.87757 0.44934 0.0
H1038 H 0.02251 0.82149 0.37592 0.0
H1039 H 0.0553 0.83663 0.3511 0.0
C1040 C 0.1093 0.90509 0.15477 0.0
C1041 C 0.11234 0.88771 0.1213 0.0
C1042 C 0.10209 0.90361 0.21132 0.0
C1043 C 0.09823 0.88471 0.23595 0.0
C1044 C 0.1007 0.86729 0.20214 0.0
C1045 C 0.10773 0.86879 0.14498 0.0
C1046 C 0.09278 0.88337 0.29806 0.0
C1047 C 0.07445 0.87445 0.31405 0.0
C1048 C 0.10509 0.89227 0.34106 0.0
C1049 C 0.12527 0.90066 0.32751 0.0
C1050 C 0.13987 0.88879 0.29955 0.0
C1051 C 0.15875 0.89686 0.28627 0.0
C1052 C 0.16325 0.91675 0.3011 0.0
C1053 C 0.1489 0.9286 0.32938 0.0
C1054 C 0.13 0.92061 0.34269 0.0
C1055 C 0.07016 0.86838 0.56901 0.0
C1056 C 0.07306 0.88668 0.59847 0.0
C1057 C 0.07093 0.86777 0.50836 0.0
C1058 C 0.07418 0.88551 0.47662 0.0
C1059 C 0.07516 0.90399 0.50604 0.0
C1060 C 0.07474 0.90457 0.56652 0.0
C1061 C 0.07969 0.88465 0.4144 0.0
C1062 C 0.0983 0.89294 0.39843 0.0
C1063 C 0.06769 0.87501 0.37192 0.0
C1064 C 0.04791 0.86597 0.38631 0.0
C1065 C 0.03289 0.87743 0.41388 0.0
C1066 C 0.01438 0.8687 0.42795 0.0
C1067 C 0.01066 0.84854 0.41435 0.0
C1068 C 0.02542 0.8371 0.38647 0.0
C1069 C 0.04396 0.84575 0.37231 0.0
H1070 H 0.99633 0.84181 0.42532 0.0
H1071 H 0.17788 0.92297 0.29078 0.0
H1072 H 0.62436 0.44759 0.39792 0.0
H1073 H 0.62813 0.44899 0.50352 0.0
H1074 H 0.58358 0.40224 0.52218 0.0
H1075 H 0.57952 0.40088 0.41688 0.0
H1076 H 0.58134 0.42959 0.61065 0.0
H1077 H 0.63231 0.39016 0.5108 0.0
H1078 H 0.65957 0.38555 0.43923 0.0
H1079 H 0.69441 0.43137 0.52403 0.0
H1080 H 0.66718 0.43649 0.59553 0.0
H1081 H 0.63362 0.36507 0.83469 0.0
H1082 H 0.63242 0.37818 0.73551 0.0
H1083 H 0.6151 0.43647 0.80117 0.0
H1084 H 0.61571 0.42331 0.90025 0.0
H1085 H 0.6497 0.40843 0.67275 0.0
H1086 H 0.57759 0.45384 0.71126 0.0
H1087 H 0.54949 0.45564 0.78131 0.0
H1088 H 0.55578 0.39254 0.81723 0.0
H1089 H 0.58369 0.39033 0.74684 0.0
C1090 C 0.615 0.43795 0.42453 0.0
C1091 C 0.6019 0.42386 0.399 0.0
C1092 C 0.61721 0.43876 0.48485 0.0
C1093 C 0.60641 0.42546 0.52047 0.0
C1094 C 0.59211 0.41259 0.49539 0.0
C1095 C 0.58987 0.41177 0.43514 0.0
C1096 C 0.61158 0.42312 0.58266 0.0
C1097 C 0.59635 0.42527 0.62437 0.0
C1098 C 0.63112 0.4172 0.60038 0.0
C1099 C 0.64763 0.41386 0.55808 0.0
C1100 C 0.64574 0.39933 0.51395 0.0
C1101 C 0.66118 0.39663 0.47341 0.0
C1102 C 0.67869 0.4082 0.47699 0.0
C1103 C 0.68082 0.42245 0.52124 0.0
C1104 C 0.66539 0.42527 0.56177 0.0
C1105 C 0.63 0.3808 0.82801 0.0
C1106 C 0.62498 0.3932 0.87524 0.0
C1107 C 0.62941 0.38829 0.77142 0.0
C1108 C 0.62354 0.40825 0.76104 0.0
C1109 C 0.61962 0.42101 0.80833 0.0
C1110 C 0.62022 0.41351 0.86504 0.0
C1111 C 0.61944 0.41482 0.70072 0.0
C1112 C 0.63485 0.41335 0.6593 0.0
C1113 C 0.59997 0.42098 0.6831 0.0
C1114 C 0.58286 0.422 0.72436 0.0
C1115 C 0.5729 0.44035 0.73397 0.0
C1116 C 0.55702 0.44144 0.77373 0.0
C1117 C 0.55091 0.42424 0.80387 0.0
C1118 C 0.56057 0.40588 0.79403 0.0
C1119 C 0.57643 0.4047 0.75423 0.0
H1120 H 0.53865 0.42513 0.83474 0.0
H1121 H 0.69063 0.40608 0.44559 0.0
H1122 H 0.08589 0.57886 0.90998 0.0
H1123 H 0.08475 0.58065 0.01586 0.0
H1124 H 0.05262 0.63694 0.00568 0.0
H1125 H 0.05369 0.63528 0.89954 0.0
H1126 H 0.08674 0.63986 0.06984 0.0
H1127 H 0.02974 0.59711 0.06436 0.0
H1128 H 0.00898 0.56797 0.03618 0.0
H1129 H 0.05175 0.52792 0.11478 0.0
H1130 H 0.07297 0.55679 0.14259 0.0
H1131 H 0.09458 0.64351 0.38033 0.0
H1132 H 0.07965 0.64347 0.28296 0.0
H1133 H 0.10663 0.58562 0.2486 0.0
H1134 H 0.12098 0.58527 0.34608 0.0
H1135 H 0.06806 0.58675 0.21129 0.0
H1136 H 0.12761 0.6287 0.19827 0.0
H1137 H 0.14924 0.65745 0.22463 0.0
H1138 H 0.10193 0.6985 0.17883 0.0
H1139 H 0.07992 0.66994 0.1529 0.0
C1140 C 0.07817 0.59139 0.93022 0.0
C1141 C 0.07007 0.60703 0.89643 0.0
C1142 C 0.07742 0.59234 0.99077 0.0
C1143 C 0.06859 0.60894 0.01859 0.0
C1144 C 0.05948 0.62401 0.98498 0.0
C1145 C 0.06007 0.62299 0.92435 0.0
C1146 C 0.07125 0.61167 0.08198 0.0
C1147 C 0.08218 0.6285 0.10105 0.0
C1148 C 0.06565 0.59665 0.12236 0.0
C1149 C 0.05303 0.57916 0.10526 0.0
C1150 C 0.03484 0.58209 0.07518 0.0
C1151 C 0.02296 0.56561 0.05935 0.0
C1152 C 0.02906 0.54611 0.0736 0.0
C1153 C 0.04705 0.54304 0.10375 0.0
C1154 C 0.059 0.55947 0.11961 0.0
C1155 C 0.09704 0.63065 0.35237 0.0
C1156 C 0.10875 0.61428 0.37109 0.0
C1157 C 0.08865 0.63073 0.2966 0.0
C1158 C 0.09201 0.61452 0.25863 0.0
C1159 C 0.10371 0.59821 0.27734 0.0
C1160 C 0.11208 0.59813 0.33286 0.0
C1161 C 0.08403 0.61461 0.19854 0.0
C1162 C 0.07216 0.59831 0.18019 0.0
C1163 C 0.08885 0.63005 0.15864 0.0
C1164 C 0.10204 0.64719 0.17444 0.0
C1165 C 0.12176 0.64385 0.19436 0.0
C1166 C 0.1341 0.66011 0.2091 0.0
C1167 C 0.12694 0.67978 0.20362 0.0
C1168 C 0.10743 0.68324 0.18321 0.0
C1169 C 0.09502 0.66703 0.16848 0.0
H1170 H 0.13652 0.69235 0.21501 0.0
H1171 H 0.01983 0.53337 0.06138 0.0
H1172 H 0.86373 0.05308 0.39083 0.0
H1173 H 0.86204 0.05197 0.49698 0.0
H1174 H 0.91612 0.08769 0.50753 0.0
H1175 H 0.91804 0.08874 0.40171 0.0
H1176 H 0.91396 0.05918 0.59492 0.0
H1177 H 0.87117 0.11038 0.5063 0.0
H1178 H 0.84395 0.12149 0.44086 0.0
H1179 H 0.80197 0.0837 0.53148 0.0
H1180 H 0.82904 0.07215 0.59697 0.0
H1181 H 0.91173 0.12188 0.83635 0.0
H1182 H 0.91143 0.10701 0.73977 0.0
H1183 H 0.85391 0.0796 0.77567 0.0
H1184 H 0.8537 0.09525 0.87213 0.0
H1185 H 0.8545 0.09616 0.67014 0.0
H1186 H 0.89672 0.05101 0.77321 0.0
H1187 H 0.92431 0.04055 0.8382 0.0
H1188 H 0.96754 0.06668 0.72194 0.0
H1189 H 0.94023 0.07763 0.65673 0.0
C1190 C 0.87554 0.06029 0.41572 0.0
C1191 C 0.89084 0.0713 0.38791 0.0
C1192 C 0.87452 0.05966 0.47635 0.0
C1193 C 0.88876 0.07004 0.50996 0.0
C1194 C 0.90494 0.07963 0.48233 0.0
C1195 C 0.90596 0.08031 0.42181 0.0
C1196 C 0.8857 0.07305 0.57307 0.0
C1197 C 0.90097 0.06722 0.61159 0.0
C1198 C 0.86846 0.08306 0.59478 0.0
C1199 C 0.85215 0.09023 0.55602 0.0
C1200 C 0.85616 0.10435 0.51201 0.0
C1201 C 0.84076 0.11073 0.47494 0.0
C1202 C 0.82125 0.10326 0.48188 0.0
C1203 C 0.81709 0.08944 0.52607 0.0
C1204 C 0.83245 0.08297 0.56317 0.0
C1205 C 0.89895 0.11275 0.82378 0.0
C1206 C 0.88292 0.10942 0.86241 0.0
C1207 C 0.89892 0.10405 0.76874 0.0
C1208 C 0.88292 0.09172 0.75112 0.0
C1209 C 0.86658 0.08877 0.78887 0.0
C1210 C 0.86657 0.09757 0.84415 0.0
C1211 C 0.88307 0.08282 0.69207 0.0
C1212 C 0.86725 0.0876 0.65414 0.0
C1213 C 0.89983 0.07184 0.67102 0.0
C1214 C 0.91637 0.06521 0.71008 0.0
C1215 C 0.9121 0.05465 0.76165 0.0
C1216 C 0.92769 0.04862 0.79853 0.0
C1217 C 0.94766 0.05293 0.78415 0.0
C1218 C 0.95207 0.06332 0.73296 0.0
C1219 C 0.93653 0.06942 0.69597 0.0
H1220 H 0.95972 0.04817 0.81255 0.0
H1221 H 0.80936 0.10821 0.45312 0.0
H1222 H 0.42348 0.87841 0.38325 0.0
H1223 H 0.43681 0.87772 0.28405 0.0
H1224 H 0.37744 0.86459 0.21835 0.0
H1225 H 0.36416 0.86487 0.31751 0.0
H1226 H 0.40714 0.84497 0.15574 0.0
H1227 H 0.39265 0.91214 0.2316 0.0
H1228 H 0.39703 0.93981 0.30195 0.0
H1229 H 0.46012 0.94237 0.26223 0.0
H1230 H 0.45615 0.91445 0.19229 0.0
H1231 H 0.39923 0.91618 0.90313 0.0
H1232 H 0.40141 0.91115 0.00799 0.0
H1233 H 0.44722 0.86601 0.98267 0.0
H1234 H 0.44506 0.87084 0.87747 0.0
H1235 H 0.43056 0.91253 0.09308 0.0
H1236 H 0.43474 0.82681 0.07724 0.0
H1237 H 0.42874 0.79971 0.00583 0.0
H1238 H 0.3832 0.83549 0.92314 0.0
H1239 H 0.38868 0.86262 0.99464 0.0
C1240 C 0.41347 0.8745 0.34787 0.0
C1241 C 0.39285 0.87135 0.35792 0.0
C1242 C 0.42106 0.87433 0.29121 0.0
C1243 C 0.40808 0.87123 0.24391 0.0
C1244 C 0.38773 0.8669 0.25427 0.0
C1245 C 0.38015 0.86712 0.3108 0.0
C1246 C 0.41487 0.87495 0.18359 0.0
C1247 C 0.41258 0.85963 0.14214 0.0
C1248 C 0.42184 0.89413 0.16587 0.0
C1249 C 0.42415 0.91107 0.2073 0.0
C1250 C 0.40748 0.91851 0.23819 0.0
C1251 C 0.40989 0.93424 0.27796 0.0
C1252 C 0.42886 0.9428 0.28671 0.0
C1253 C 0.44545 0.93568 0.25553 0.0
C1254 C 0.44313 0.91991 0.21584 0.0
C1255 C 0.41007 0.90547 0.91984 0.0
C1256 C 0.42174 0.89369 0.88196 0.0
C1257 C 0.41136 0.90267 0.97982 0.0
C1258 C 0.42425 0.888 0.00291 0.0
C1259 C 0.43701 0.87725 0.96555 0.0
C1260 C 0.43578 0.88008 0.90547 0.0
C1261 C 0.42261 0.88263 0.06514 0.0
C1262 C 0.42576 0.89767 0.10691 0.0
C1263 C 0.41624 0.86326 0.08303 0.0
C1264 C 0.41232 0.84683 0.04083 0.0
C1265 C 0.42339 0.82884 0.04397 0.0
C1266 C 0.42008 0.81348 0.00349 0.0
C1267 C 0.40566 0.81591 0.95983 0.0
C1268 C 0.39441 0.83365 0.95685 0.0
C1269 C 0.39761 0.84902 0.99734 0.0
H1270 H 0.40318 0.80404 0.92842 0.0
H1271 H 0.4307 0.95497 0.31752 0.0
loop_
_geom_bond_atom_site_label_1
_geom_bond_atom_site_label_2
_geom_bond_distance
_geom_bond_site_symmetry_2
_ccdc_geom_bond_type
Co0 O3 1.970 . S
Co0 N17 1.989 . S
Co0 O25 1.967 . S
Co0 O32 1.920 . S
Co1 O4 1.966 . S
Co1 N10 2.022 . S
Co1 N18 1.993 . S
Co1 O26 1.941 . S
C2 O3 1.258 . S
C2 O4 1.263 . S
O3 Co0 1.970 . S
O3 C2 1.258 . S
O4 Co1 1.966 . S
O4 C2 1.263 . S
C5 O6 1.235 . S
C5 O32 1.289 . S
O6 C5 1.235 . S
C7 C9 1.400 . S
C7 N10 1.351 . S
C7 C12 1.501 . S
C8 C9 1.387 . S
C8 N11 1.341 . S
C9 C7 1.400 . S
C9 C8 1.387 . S
N10 Co1 2.022 . S
N10 C7 1.351 . S
N10 N11 1.365 . S
N11 C8 1.341 . S
N11 N10 1.365 . S
N11 H31 0.862 . S
C12 C7 1.501 . S
C12 H13 0.961 . S
C12 H14 0.961 . S
C12 H15 0.960 . S
H13 C12 0.961 . S
H14 C12 0.961 . S
H15 C12 0.960 . S
C16 N17 1.342 . S
C16 C20 1.401 . S
C16 C21 1.499 . S
N17 Co0 1.989 . S
N17 C16 1.342 . S
N17 N18 1.388 . S
N18 Co1 1.993 . S
N18 N17 1.388 . S
N18 C19 1.346 . S
C19 N18 1.346 . S
C19 C20 1.396 . S
C19 C29 1.510 . S
C20 C16 1.401 . S
C20 C19 1.396 . S
C21 C16 1.499 . S
C21 H22 0.959 . S
C21 H23 0.960 . S
C21 H24 0.961 . S
H22 C21 0.959 . S
H23 C21 0.960 . S
H24 C21 0.961 . S
O25 Co0 1.967 . S
O25 C33 1.258 . S
O26 Co1 1.941 . S
O26 C33 1.266 . S
H27 C29 0.959 . S
H28 C29 0.961 . S
C29 C19 1.510 . S
C29 H27 0.959 . S
C29 H28 0.961 . S
C29 H30 0.960 . S
H30 C29 0.960 . S
H31 N11 0.862 . S
O32 Co0 1.920 . S
O32 C5 1.289 . S
C33 O25 1.258 . S
C33 O26 1.266 . S
Co34 O37 1.970 . S
Co34 N51 1.989 . S
Co34 O59 1.967 . S
Co34 O66 1.920 . S
Co35 O38 1.966 . S
Co35 N44 2.022 1_556 S
Co35 N52 1.993 . S
Co35 O60 1.941 . S
C36 O37 1.258 . S
C36 O38 1.263 . S
O37 Co34 1.970 . S
O37 C36 1.258 . S
O38 Co35 1.966 . S
O38 C36 1.263 . S
C39 O40 1.235 . S
C39 O66 1.289 . S
O40 C39 1.235 . S
C41 C43 1.400 . S
C41 N44 1.351 . S
C41 C46 1.501 . S
C42 C43 1.387 . S
C42 N45 1.341 . S
C43 C41 1.400 . S
C43 C42 1.387 . S
N44 Co35 2.022 1_554 S
N44 C41 1.351 . S
N44 N45 1.365 . S
N45 C42 1.341 . S
N45 N44 1.365 . S
N45 H65 0.862 . S
C46 C41 1.501 . S
C46 H47 0.961 1_554 S
C46 H48 0.961 . S
C46 H49 0.960 . S
H47 C46 0.961 1_556 S
H48 C46 0.961 . S
H49 C46 0.960 . S
C50 N51 1.342 . S
C50 C54 1.401 . S
C50 C55 1.499 . S
N51 Co34 1.989 . S
N51 C50 1.342 . S
N51 N52 1.388 . S
N52 Co35 1.993 . S
N52 N51 1.388 . S
N52 C53 1.346 . S
C53 N52 1.346 . S
C53 C54 1.396 . S
C53 C63 1.510 . S
C54 C50 1.401 . S
C54 C53 1.396 . S
C55 C50 1.499 . S
C55 H56 0.959 . S
C55 H57 0.960 . S
C55 H58 0.961 . S
H56 C55 0.959 . S
H57 C55 0.960 . S
H58 C55 0.961 . S
O59 Co34 1.967 . S
O59 C67 1.258 . S
O60 Co35 1.941 . S
O60 C67 1.266 . S
H61 C63 0.964 . S
H62 C63 0.961 . S
C63 C53 1.510 . S
C63 H61 0.964 . S
C63 H62 0.961 . S
C63 H64 0.960 1_556 S
H64 C63 0.960 1_554 S
H65 N45 0.862 . S
O66 Co34 1.920 . S
O66 C39 1.289 . S
C67 O59 1.258 . S
C67 O60 1.266 . S
Co68 O71 1.970 . S
Co68 N85 1.989 . S
Co68 O93 1.967 . S
Co68 O100 1.920 . S
Co69 O72 1.966 . S
Co69 N78 2.022 . S
Co69 N86 1.993 . S
Co69 O94 1.941 . S
C70 O71 1.258 . S
C70 O72 1.263 . S
O71 Co68 1.970 . S
O71 C70 1.258 . S
O72 Co69 1.966 . S
O72 C70 1.263 . S
C73 O74 1.235 . S
C73 O100 1.289 . S
O74 C73 1.235 . S
C75 C77 1.400 . S
C75 N78 1.351 . S
C75 C80 1.501 . S
C76 C77 1.387 . S
C76 N79 1.341 . S
C77 C75 1.400 . S
C77 C76 1.387 . S
N78 Co69 2.022 . S
N78 C75 1.351 . S
N78 N79 1.365 . S
N79 C76 1.341 . S
N79 N78 1.365 . S
N79 H99 0.862 . S
C80 C75 1.501 . S
C80 H81 0.961 . S
C80 H82 0.961 . S
C80 H83 0.960 . S
H81 C80 0.961 . S
H82 C80 0.961 . S
H83 C80 0.960 . S
C84 N85 1.342 . S
C84 C88 1.401 . S
C84 C89 1.499 . S
N85 Co68 1.989 . S
N85 C84 1.342 . S
N85 N86 1.388 . S
N86 Co69 1.993 . S
N86 N85 1.388 . S
N86 C87 1.346 . S
C87 N86 1.346 . S
C87 C88 1.396 . S
C87 C97 1.510 . S
C88 C84 1.401 . S
C88 C87 1.396 . S
C89 C84 1.499 . S
C89 H90 0.959 . S
C89 H91 0.960 . S
C89 H92 0.961 . S
H90 C89 0.959 . S
H91 C89 0.960 . S
H92 C89 0.961 . S
O93 Co68 1.967 . S
O93 C101 1.258 . S
O94 Co69 1.941 . S
O94 C101 1.266 . S
H95 C97 0.959 . S
H96 C97 0.961 . S
C97 C87 1.510 . S
C97 H95 0.959 . S
C97 H96 0.961 . S
C97 H98 0.960 . S
H98 C97 0.960 . S
H99 N79 0.862 . S
O100 Co68 1.920 . S
O100 C73 1.289 . S
C101 O93 1.258 . S
C101 O94 1.266 . S
Co102 O105 1.970 . S
Co102 N119 1.989 . S
Co102 O127 1.967 . S
Co102 O134 1.920 . S
Co103 O106 1.966 . S
Co103 N112 2.022 1_556 S
Co103 N120 1.993 . S
Co103 O128 1.941 . S
C104 O105 1.258 . S
C104 O106 1.263 . S
O105 Co102 1.970 . S
O105 C104 1.258 . S
O106 Co103 1.966 . S
O106 C104 1.263 . S
C107 O108 1.235 . S
C107 O134 1.289 . S
O108 C107 1.235 . S
C109 C111 1.400 . S
C109 N112 1.351 . S
C109 C114 1.501 . S
C110 C111 1.387 . S
C110 N113 1.341 . S
C111 C109 1.400 . S
C111 C110 1.387 . S
N112 Co103 2.022 1_554 S
N112 C109 1.351 . S
N112 N113 1.365 . S
N113 C110 1.341 . S
N113 N112 1.365 . S
N113 H133 0.862 . S
C114 C109 1.501 . S
C114 H115 0.961 1_554 S
C114 H116 0.961 . S
C114 H117 0.960 . S
H115 C114 0.961 1_556 S
H116 C114 0.961 . S
H117 C114 0.960 . S
C118 N119 1.342 . S
C118 C122 1.401 . S
C118 C123 1.499 . S
N119 Co102 1.989 . S
N119 C118 1.342 . S
N119 N120 1.388 . S
N120 Co103 1.993 . S
N120 N119 1.388 . S
N120 C121 1.346 . S
C121 N120 1.346 . S
C121 C122 1.396 . S
C121 C131 1.510 . S
C122 C118 1.401 . S
C122 C121 1.396 . S
C123 C118 1.499 . S
C123 H124 0.959 . S
C123 H125 0.960 . S
C123 H126 0.961 . S
H124 C123 0.959 . S
H125 C123 0.960 . S
H126 C123 0.961 . S
O127 Co102 1.967 . S
O127 C135 1.258 . S
O128 Co103 1.941 . S
O128 C135 1.266 . S
H129 C131 0.964 . S
H130 C131 0.961 . S
C131 C121 1.510 . S
C131 H129 0.964 . S
C131 H130 0.961 . S
C131 H132 0.960 1_556 S
H132 C131 0.960 1_554 S
H133 N113 0.862 . S
O134 Co102 1.920 . S
O134 C107 1.289 . S
C135 O127 1.258 . S
C135 O128 1.266 . S
Co136 O139 1.970 . S
Co136 N153 1.989 . S
Co136 O161 1.967 . S
Co136 O168 1.920 . S
Co137 O140 1.966 . S
Co137 N146 2.022 1_554 S
Co137 N154 1.993 . S
Co137 O162 1.941 . S
C138 O139 1.258 . S
C138 O140 1.263 . S
O139 Co136 1.970 . S
O139 C138 1.258 . S
O140 Co137 1.966 . S
O140 C138 1.263 . S
C141 O142 1.235 . S
C141 O168 1.289 . S
O142 C141 1.235 . S
C143 C145 1.400 . S
C143 N146 1.351 . S
C143 C148 1.501 . S
C144 C145 1.387 . S
C144 N147 1.341 . S
C145 C143 1.400 . S
C145 C144 1.387 . S
N146 Co137 2.022 1_556 S
N146 C143 1.351 . S
N146 N147 1.365 . S
N147 C144 1.341 . S
N147 N146 1.365 . S
N147 H167 0.862 . S
C148 C143 1.501 . S
C148 H149 0.961 1_556 S
C148 H150 0.961 . S
C148 H151 0.960 . S
H149 C148 0.961 1_554 S
H150 C148 0.961 . S
H151 C148 0.960 . S
C152 N153 1.342 . S
C152 C156 1.401 . S
C152 C157 1.499 . S
N153 Co136 1.989 . S
N153 C152 1.342 . S
N153 N154 1.388 . S
N154 Co137 1.993 . S
N154 N153 1.388 . S
N154 C155 1.346 . S
C155 N154 1.346 . S
C155 C156 1.396 . S
C155 C165 1.510 . S
C156 C152 1.401 . S
C156 C155 1.396 . S
C157 C152 1.499 . S
C157 H158 0.959 . S
C157 H159 0.960 . S
C157 H160 0.961 . S
H158 C157 0.959 . S
H159 C157 0.960 . S
H160 C157 0.961 . S
O161 Co136 1.967 . S
O161 C169 1.258 . S
O162 Co137 1.941 . S
O162 C169 1.266 . S
H163 C165 0.964 . S
H164 C165 0.961 . S
C165 C155 1.510 . S
C165 H163 0.964 . S
C165 H164 0.961 . S
C165 H166 0.960 1_554 S
H166 C165 0.960 1_556 S
H167 N147 0.862 . S
O168 Co136 1.920 . S
O168 C141 1.289 . S
C169 O161 1.258 . S
C169 O162 1.266 . S
Co170 O173 1.970 . S
Co170 N187 1.989 . S
Co170 O195 1.967 . S
Co170 O202 1.920 . S
Co171 O174 1.966 . S
Co171 N180 2.022 . S
Co171 N188 1.993 . S
Co171 O196 1.941 . S
C172 O173 1.258 . S
C172 O174 1.263 . S
O173 Co170 1.970 . S
O173 C172 1.258 . S
O174 Co171 1.966 . S
O174 C172 1.263 . S
C175 O176 1.235 . S
C175 O202 1.289 . S
O176 C175 1.235 . S
C177 C179 1.400 . S
C177 N180 1.351 . S
C177 C182 1.501 . S
C178 C179 1.387 . S
C178 N181 1.341 . S
C179 C177 1.400 . S
C179 C178 1.387 . S
N180 Co171 2.022 . S
N180 C177 1.351 . S
N180 N181 1.365 . S
N181 C178 1.341 . S
N181 N180 1.365 . S
N181 H201 0.862 . S
C182 C177 1.501 . S
C182 H183 0.961 . S
C182 H184 0.961 . S
C182 H185 0.960 . S
H183 C182 0.961 . S
H184 C182 0.961 . S
H185 C182 0.960 . S
C186 N187 1.342 . S
C186 C190 1.401 . S
C186 C191 1.499 . S
N187 Co170 1.989 . S
N187 C186 1.342 . S
N187 N188 1.388 . S
N188 Co171 1.993 . S
N188 N187 1.388 . S
N188 C189 1.346 . S
C189 N188 1.346 . S
C189 C190 1.396 . S
C189 C199 1.510 . S
C190 C186 1.401 . S
C190 C189 1.396 . S
C191 C186 1.499 . S
C191 H192 0.959 . S
C191 H193 0.960 . S
C191 H194 0.961 . S
H192 C191 0.959 . S
H193 C191 0.960 . S
H194 C191 0.961 . S
O195 Co170 1.967 . S
O195 C203 1.258 . S
O196 Co171 1.941 . S
O196 C203 1.266 . S
H197 C199 0.959 . S
H198 C199 0.961 . S
C199 C189 1.510 . S
C199 H197 0.959 . S
C199 H198 0.961 . S
C199 H200 0.960 . S
H200 C199 0.960 . S
H201 N181 0.862 . S
O202 Co170 1.920 . S
O202 C175 1.289 . S
C203 O195 1.258 . S
C203 O196 1.266 . S
Co204 O207 1.970 . S
Co204 N221 1.989 . S
Co204 O229 1.967 . S
Co204 O236 1.920 . S
Co205 O208 1.966 . S
Co205 N214 2.022 1_554 S
Co205 N222 1.993 . S
Co205 O230 1.941 . S
C206 O207 1.258 . S
C206 O208 1.263 . S
O207 Co204 1.970 . S
O207 C206 1.258 . S
O208 Co205 1.966 . S
O208 C206 1.263 . S
C209 O210 1.235 . S
C209 O236 1.289 . S
O210 C209 1.235 . S
C211 C213 1.400 . S
C211 N214 1.351 . S
C211 C216 1.501 . S
C212 C213 1.387 . S
C212 N215 1.341 . S
C213 C211 1.400 . S
C213 C212 1.387 . S
N214 Co205 2.022 1_556 S
N214 C211 1.351 . S
N214 N215 1.365 . S
N215 C212 1.341 . S
N215 N214 1.365 . S
N215 H235 0.862 . S
C216 C211 1.501 . S
C216 H217 0.961 1_556 S
C216 H218 0.961 . S
C216 H219 0.960 . S
H217 C216 0.961 1_554 S
H218 C216 0.961 . S
H219 C216 0.960 . S
C220 N221 1.342 . S
C220 C224 1.401 . S
C220 C225 1.499 . S
N221 Co204 1.989 . S
N221 C220 1.342 . S
N221 N222 1.388 . S
N222 Co205 1.993 . S
N222 N221 1.388 . S
N222 C223 1.346 . S
C223 N222 1.346 . S
C223 C224 1.396 . S
C223 C233 1.510 . S
C224 C220 1.401 . S
C224 C223 1.396 . S
C225 C220 1.499 . S
C225 H226 0.959 . S
C225 H227 0.960 . S
C225 H228 0.961 . S
H226 C225 0.959 . S
H227 C225 0.960 . S
H228 C225 0.961 . S
O229 Co204 1.967 . S
O229 C237 1.258 . S
O230 Co205 1.941 . S
O230 C237 1.266 . S
H231 C233 0.964 . S
H232 C233 0.961 . S
C233 C223 1.510 . S
C233 H231 0.964 . S
C233 H232 0.961 . S
C233 H234 0.960 1_554 S
H234 C233 0.960 1_556 S
H235 N215 0.862 . S
O236 Co204 1.920 . S
O236 C209 1.289 . S
C237 O229 1.258 . S
C237 O230 1.266 . S
Co238 O241 1.970 . S
Co238 N255 1.989 . S
Co238 O263 1.967 . S
Co238 O270 1.920 . S
Co239 O242 1.966 . S
Co239 N248 2.022 . S
Co239 N256 1.993 . S
Co239 O264 1.941 . S
C240 O241 1.258 . S
C240 O242 1.263 . S
O241 Co238 1.970 . S
O241 C240 1.258 . S
O242 Co239 1.966 . S
O242 C240 1.263 . S
C243 O244 1.235 . S
C243 O270 1.289 . S
O244 C243 1.235 . S
C245 C247 1.400 . S
C245 N248 1.351 . S
C245 C250 1.501 . S
C246 C247 1.387 . S
C246 N249 1.341 . S
C247 C245 1.400 . S
C247 C246 1.387 . S
N248 Co239 2.022 . S
N248 C245 1.351 . S
N248 N249 1.365 . S
N249 C246 1.341 . S
N249 N248 1.365 . S
N249 H269 0.862 . S
C250 C245 1.501 . S
C250 H251 0.961 . S
C250 H252 0.961 . S
C250 H253 0.960 . S
H251 C250 0.961 . S
H252 C250 0.961 . S
H253 C250 0.960 . S
C254 N255 1.342 . S
C254 C258 1.401 . S
C254 C259 1.499 . S
N255 Co238 1.989 . S
N255 C254 1.342 . S
N255 N256 1.388 . S
N256 Co239 1.993 . S
N256 N255 1.388 . S
N256 C257 1.346 . S
C257 N256 1.346 . S
C257 C258 1.396 . S
C257 C267 1.510 . S
C258 C254 1.401 . S
C258 C257 1.396 . S
C259 C254 1.499 . S
C259 H260 0.959 . S
C259 H261 0.960 . S
C259 H262 0.961 . S
H260 C259 0.959 . S
H261 C259 0.960 . S
H262 C259 0.961 . S
O263 Co238 1.967 . S
O263 C271 1.258 . S
O264 Co239 1.941 . S
O264 C271 1.266 . S
H265 C267 0.959 . S
H266 C267 0.961 . S
C267 C257 1.510 . S
C267 H265 0.959 . S
C267 H266 0.961 . S
C267 H268 0.960 . S
H268 C267 0.960 . S
H269 N249 0.862 . S
O270 Co238 1.920 . S
O270 C243 1.289 . S
C271 O263 1.258 . S
C271 O264 1.266 . S
H272 C290 0.951 . S
H273 C292 0.951 . S
H274 C294 0.950 . S
H275 C295 0.950 . S
H276 C297 0.950 1_565 S
H277 C300 0.950 . S
H278 C301 0.950 . S
H279 C303 0.950 . S
H280 C304 0.950 . S
H281 C305 0.951 . S
H282 C307 0.951 . S
H283 C309 0.950 . S
H284 C310 0.950 . S
H285 C312 0.950 . S
H286 C315 0.950 . S
H287 C316 0.950 . S
H288 C318 0.950 . S
H289 C319 0.950 . S
C290 H272 0.951 . S
C290 C291 1.366 . S
C290 C292 1.388 . S
C291 C290 1.366 . S
C291 C295 1.385 . S
C292 H273 0.951 . S
C292 C290 1.388 . S
C292 C293 1.366 . S
C293 C292 1.366 . S
C293 C294 1.414 . S
C293 C296 1.499 . S
C294 H274 0.950 . S
C294 C293 1.414 . S
C294 C295 1.374 . S
C295 H275 0.950 . S
C295 C291 1.385 . S
C295 C294 1.374 . S
C296 C293 1.499 . S
C296 C297 1.373 1_565 S
C296 C298 1.389 1_565 S
C297 H276 0.950 1_545 S
C297 C296 1.373 1_545 S
C297 C313 1.377 . S
C298 C296 1.389 1_545 S
C298 C299 1.524 . S
C298 C312 1.377 . S
C299 C298 1.524 . S
C299 C300 1.397 . S
C299 C304 1.363 1_545 S
C300 H277 0.950 . S
C300 C299 1.397 . S
C300 C301 1.334 . S
C301 H278 0.950 . S
C301 C300 1.334 . S
C301 C302 1.285 1_545 S
C302 C301 1.285 1_565 S
C302 C303 1.526 . S
C302 H321 0.914 . S
C303 H279 0.950 . S
C303 C302 1.526 . S
C303 C304 1.415 . S
C304 H280 0.950 . S
C304 C299 1.363 1_565 S
C304 C303 1.415 . S
C305 H281 0.951 . S
C305 C306 1.366 . S
C305 C307 1.388 . S
C306 C305 1.366 . S
C306 C310 1.385 . S
C307 H282 0.951 . S
C307 C305 1.388 . S
C307 C308 1.366 . S
C308 C307 1.366 . S
C308 C309 1.414 . S
C308 C311 1.499 . S
C309 H283 0.950 . S
C309 C308 1.414 . S
C309 C310 1.374 . S
C310 H284 0.950 . S
C310 C306 1.385 . S
C310 C309 1.374 . S
C311 C308 1.499 . S
C311 C312 1.373 . S
C311 C313 1.389 . S
C312 H285 0.950 . S
C312 C298 1.377 . S
C312 C311 1.373 . S
C313 C297 1.377 . S
C313 C311 1.389 . S
C313 C314 1.524 . S
C314 C313 1.524 . S
C314 C315 1.397 . S
C314 C319 1.363 . S
C315 H286 0.950 . S
C315 C314 1.397 . S
C315 C316 1.334 . S
C316 H287 0.950 . S
C316 C315 1.334 . S
C316 C317 1.287 . S
C317 C316 1.287 . S
C317 C318 1.524 . S
C317 H320 0.999 . S
C318 H288 0.950 . S
C318 C317 1.524 . S
C318 C319 1.415 . S
C319 H289 0.950 . S
C319 C314 1.363 . S
C319 C318 1.415 . S
H320 C317 0.999 . S
H321 C302 0.914 . S
H322 C340 0.951 . S
H323 C342 0.951 . S
H324 C344 0.950 . S
H325 C345 0.950 . S
H326 C347 0.950 . S
H327 C350 0.950 . S
H328 C351 0.950 . S
H329 C353 0.950 . S
H330 C354 0.950 1_556 S
H331 C355 0.951 . S
H332 C357 0.951 . S
H333 C359 0.950 . S
H334 C360 0.950 . S
H335 C362 0.950 . S
H336 C365 0.950 . S
H337 C366 0.950 . S
H338 C368 0.950 . S
H339 C369 0.950 1_554 S
C340 H322 0.951 . S
C340 C341 1.366 . S
C340 C342 1.388 . S
C341 C340 1.366 . S
C341 C345 1.385 . S
C342 H323 0.951 . S
C342 C340 1.388 . S
C342 C343 1.366 . S
C343 C342 1.366 . S
C343 C344 1.414 . S
C343 C346 1.499 . S
C344 H324 0.950 . S
C344 C343 1.414 . S
C344 C345 1.374 . S
C345 H325 0.950 . S
C345 C341 1.385 . S
C345 C344 1.374 . S
C346 C343 1.499 . S
C346 C347 1.370 1_554 S
C346 C348 1.389 . S
C347 H326 0.950 . S
C347 C346 1.370 1_556 S
C347 C363 1.380 . S
C348 C346 1.389 . S
C348 C349 1.524 . S
C348 C362 1.380 . S
C349 C348 1.524 . S
C349 C350 1.397 . S
C349 C354 1.363 . S
C350 H327 0.950 . S
C350 C349 1.397 . S
C350 C351 1.334 . S
C351 H328 0.950 . S
C351 C350 1.334 . S
C351 C352 1.287 . S
C352 C351 1.287 . S
C352 C353 1.524 . S
C352 H371 0.913 . S
C353 H329 0.950 . S
C353 C352 1.524 . S
C353 C354 1.415 . S
C354 H330 0.950 1_554 S
C354 C349 1.363 . S
C354 C353 1.415 . S
C355 H331 0.951 . S
C355 C356 1.366 . S
C355 C357 1.388 . S
C356 C355 1.366 . S
C356 C360 1.385 . S
C357 H332 0.951 . S
C357 C355 1.388 . S
C357 C358 1.366 . S
C358 C357 1.366 . S
C358 C359 1.414 . S
C358 C361 1.499 . S
C359 H333 0.950 . S
C359 C358 1.414 . S
C359 C360 1.374 . S
C360 H334 0.950 . S
C360 C356 1.385 . S
C360 C359 1.374 . S
C361 C358 1.499 . S
C361 C362 1.370 1_556 S
C361 C363 1.389 . S
C362 H335 0.950 . S
C362 C348 1.380 . S
C362 C361 1.370 1_554 S
C363 C347 1.380 . S
C363 C361 1.389 . S
C363 C364 1.524 . S
C364 C363 1.524 . S
C364 C365 1.397 . S
C364 C369 1.363 . S
C365 H336 0.950 . S
C365 C364 1.397 . S
C365 C366 1.334 . S
C366 H337 0.950 . S
C366 C365 1.334 . S
C366 C367 1.287 . S
C367 C366 1.287 . S
C367 C368 1.524 . S
C367 H370 0.999 . S
C368 H338 0.950 . S
C368 C367 1.524 . S
C368 C369 1.415 . S
C369 H339 0.950 1_556 S
C369 C364 1.363 . S
C369 C368 1.415 . S
H370 C367 0.999 . S
H371 C352 0.913 . S
H372 C390 0.951 . S
H373 C392 0.951 . S
H374 C394 0.950 . S
H375 C395 0.950 . S
H376 C397 0.950 . S
H377 C400 0.976 . S
H378 C401 0.950 . S
H379 C403 0.950 . S
H380 C404 0.950 . S
H381 C405 0.951 . S
H382 C407 0.951 . S
H383 C409 0.950 . S
H384 C410 0.950 . S
H385 C412 0.950 . S
H386 C415 0.950 . S
H387 C416 0.950 . S
H388 C418 0.950 . S
H389 C419 0.950 . S
C390 H372 0.951 . S
C390 C391 1.366 . S
C390 C392 1.388 . S
C391 C390 1.366 . S
C391 C395 1.385 . S
C392 H373 0.951 . S
C392 C390 1.388 . S
C392 C393 1.366 . S
C393 C392 1.366 . S
C393 C394 1.414 . S
C393 C396 1.499 . S
C394 H374 0.950 . S
C394 C393 1.414 . S
C394 C395 1.374 . S
C395 H375 0.950 . S
C395 C391 1.385 . S
C395 C394 1.374 . S
C396 C393 1.499 . S
C396 C397 1.373 1_655 S
C396 C398 1.389 1_655 S
C397 H376 0.950 . S
C397 C396 1.373 1_455 S
C397 C413 1.377 . S
C398 C396 1.389 1_455 S
C398 C399 1.524 1_455 S
C398 C412 1.377 . S
C399 C398 1.524 1_655 S
C399 C400 1.385 1_655 S
C399 C404 1.363 . S
C400 H377 0.976 . S
C400 C399 1.385 1_455 S
C400 C401 1.323 1_455 S
C401 H378 0.950 . S
C401 C400 1.323 1_655 S
C401 C402 1.287 . S
C402 C401 1.287 . S
C402 C403 1.524 . S
C402 H421 0.913 . S
C403 H379 0.950 . S
C403 C402 1.524 . S
C403 C404 1.415 . S
C404 H380 0.950 . S
C404 C399 1.363 . S
C404 C403 1.415 . S
C405 H381 0.951 . S
C405 C406 1.366 . S
C405 C407 1.388 . S
C406 C405 1.366 . S
C406 C410 1.385 . S
C407 H382 0.951 . S
C407 C405 1.388 . S
C407 C408 1.366 . S
C408 C407 1.366 . S
C408 C409 1.414 . S
C408 C411 1.499 . S
C409 H383 0.950 . S
C409 C408 1.414 . S
C409 C410 1.374 . S
C410 H384 0.950 . S
C410 C406 1.385 . S
C410 C409 1.374 . S
C411 C408 1.499 . S
C411 C412 1.373 . S
C411 C413 1.389 . S
C412 H385 0.950 . S
C412 C398 1.377 . S
C412 C411 1.373 . S
C413 C397 1.377 . S
C413 C411 1.389 . S
C413 C414 1.524 . S
C414 C413 1.524 . S
C414 C415 1.397 . S
C414 C419 1.363 . S
C415 H386 0.950 . S
C415 C414 1.397 . S
C415 C416 1.334 . S
C416 H387 0.950 . S
C416 C415 1.334 . S
C416 C417 1.287 . S
C417 C416 1.287 . S
C417 C418 1.524 . S
C417 H420 0.999 . S
C418 H388 0.950 . S
C418 C417 1.524 . S
C418 C419 1.415 . S
C419 H389 0.950 . S
C419 C414 1.363 . S
C419 C418 1.415 . S
H420 C417 0.999 . S
H421 C402 0.913 . S
H422 C440 0.951 . S
H423 C442 0.951 1_455 S
H424 C444 0.950 . S
H425 C445 0.950 . S
H426 C447 0.946 1_565 S
H427 C450 0.950 1_655 S
H428 C451 0.950 . S
H429 C453 0.950 . S
H430 C454 0.950 . S
H431 C455 0.951 . S
H432 C457 0.951 . S
H433 C459 0.950 . S
H434 C460 0.950 . S
H435 C462 0.950 . S
H436 C465 0.950 . S
H437 C466 0.950 . S
H438 C468 0.950 . S
H439 C469 0.950 . S
C440 H422 0.951 . S
C440 C441 1.366 . S
C440 C442 1.388 . S
C441 C440 1.366 . S
C441 C445 1.385 . S
C442 H423 0.951 1_655 S
C442 C440 1.388 . S
C442 C443 1.366 . S
C443 C442 1.366 . S
C443 C444 1.414 . S
C443 C446 1.499 . S
C444 H424 0.950 . S
C444 C443 1.414 . S
C444 C445 1.374 . S
C445 H425 0.950 . S
C445 C441 1.385 . S
C445 C444 1.374 . S
C446 C443 1.499 . S
C446 C447 1.373 . S
C446 C448 1.389 1_655 S
C447 H426 0.946 1_545 S
C447 C446 1.373 . S
C447 C463 1.377 1_644 S
C448 C446 1.389 1_455 S
C448 C449 1.524 1_554 S
C448 C462 1.377 1_554 S
C449 C448 1.524 1_556 S
C449 C450 1.397 . S
C449 C454 1.363 1_556 S
C450 H427 0.950 1_455 S
C450 C449 1.397 . S
C450 C451 1.334 . S
C451 H428 0.950 . S
C451 C450 1.334 . S
C451 C452 1.287 . S
C452 C451 1.287 . S
C452 C453 1.524 1_556 S
C452 H471 0.913 . S
C453 H429 0.950 . S
C453 C452 1.524 1_554 S
C453 C454 1.415 . S
C454 H430 0.950 . S
C454 C449 1.363 1_554 S
C454 C453 1.415 . S
C455 H431 0.951 . S
C455 C456 1.366 . S
C455 C457 1.388 . S
C456 C455 1.366 . S
C456 C460 1.385 . S
C457 H432 0.951 . S
C457 C455 1.388 . S
C457 C458 1.366 . S
C458 C457 1.366 . S
C458 C459 1.414 . S
C458 C461 1.499 . S
C459 H433 0.950 . S
C459 C458 1.414 . S
C459 C460 1.374 . S
C460 H434 0.950 . S
C460 C456 1.385 . S
C460 C459 1.374 . S
C461 C458 1.499 . S
C461 C462 1.373 1_565 S
C461 C463 1.389 . S
C462 H435 0.950 . S
C462 C448 1.377 1_556 S
C462 C461 1.373 1_545 S
C463 C447 1.377 1_466 S
C463 C461 1.389 . S
C463 C464 1.524 1_456 S
C464 C463 1.524 1_654 S
C464 C465 1.397 1_655 S
C464 C469 1.363 1_554 S
C465 H436 0.950 . S
C465 C464 1.397 1_455 S
C465 C466 1.334 . S
C466 H437 0.950 . S
C466 C465 1.334 . S
C466 C467 1.287 1_455 S
C467 C466 1.287 1_655 S
C467 C468 1.524 1_554 S
C467 H470 0.999 . S
C468 H438 0.950 . S
C468 C467 1.524 1_556 S
C468 C469 1.415 . S
C469 H439 0.950 . S
C469 C464 1.363 1_556 S
C469 C468 1.415 . S
H470 C467 0.999 . S
H471 C452 0.913 . S
H472 C490 0.951 . S
H473 C492 0.951 . S
H474 C494 0.950 . S
H475 C495 0.950 . S
H476 C497 0.950 . S
H477 C500 0.950 . S
H478 C501 0.950 . S
H479 C503 0.950 . S
H480 C504 0.950 . S
H481 C505 0.951 . S
H482 C507 0.951 . S
H483 C509 0.950 . S
H484 C510 0.950 . S
H485 C512 0.950 . S
H486 C515 0.950 . S
H487 C516 0.950 . S
H488 C518 0.950 . S
H489 C519 0.950 . S
C490 H472 0.951 . S
C490 C491 1.366 . S
C490 C492 1.388 . S
C491 C490 1.366 . S
C491 C495 1.385 . S
C492 H473 0.951 . S
C492 C490 1.388 . S
C492 C493 1.366 . S
C493 C492 1.366 . S
C493 C494 1.414 . S
C493 C496 1.499 . S
C494 H474 0.950 . S
C494 C493 1.414 . S
C494 C495 1.374 . S
C495 H475 0.950 . S
C495 C491 1.385 . S
C495 C494 1.374 . S
C496 C493 1.499 . S
C496 C497 1.373 . S
C496 C498 1.389 . S
C497 H476 0.950 . S
C497 C496 1.373 . S
C497 C513 1.377 . S
C498 C496 1.389 . S
C498 C499 1.524 . S
C498 C512 1.377 . S
C499 C498 1.524 . S
C499 C500 1.397 . S
C499 C504 1.363 . S
C500 H477 0.950 . S
C500 C499 1.397 . S
C500 C501 1.334 . S
C501 H478 0.950 . S
C501 C500 1.334 . S
C501 C502 1.287 . S
C502 C501 1.287 . S
C502 C503 1.524 . S
C502 H521 0.913 . S
C503 H479 0.950 . S
C503 C502 1.524 . S
C503 C504 1.415 . S
C504 H480 0.950 . S
C504 C499 1.363 . S
C504 C503 1.415 . S
C505 H481 0.951 . S
C505 C506 1.366 . S
C505 C507 1.388 . S
C506 C505 1.366 . S
C506 C510 1.385 . S
C507 H482 0.951 . S
C507 C505 1.388 . S
C507 C508 1.366 . S
C508 C507 1.366 . S
C508 C509 1.414 . S
C508 C511 1.499 . S
C509 H483 0.950 . S
C509 C508 1.414 . S
C509 C510 1.374 . S
C510 H484 0.950 . S
C510 C506 1.385 . S
C510 C509 1.374 . S
C511 C508 1.499 . S
C511 C512 1.373 . S
C511 C513 1.389 . S
C512 H485 0.950 . S
C512 C498 1.377 . S
C512 C511 1.373 . S
C513 C497 1.377 . S
C513 C511 1.389 . S
C513 C514 1.524 . S
C514 C513 1.524 . S
C514 C515 1.397 . S
C514 C519 1.363 . S
C515 H486 0.950 . S
C515 C514 1.397 . S
C515 C516 1.334 . S
C516 H487 0.950 . S
C516 C515 1.334 . S
C516 C517 1.287 . S
C517 C516 1.287 . S
C517 C518 1.524 . S
C517 H520 0.999 . S
C518 H488 0.950 . S
C518 C517 1.524 . S
C518 C519 1.415 . S
C519 H489 0.950 . S
C519 C514 1.363 . S
C519 C518 1.415 . S
H520 C517 0.999 . S
H521 C502 0.913 . S
H522 C540 0.951 . S
H523 C542 0.951 . S
H524 C544 0.950 . S
H525 C545 0.950 . S
H526 C547 0.950 . S
H527 C550 0.950 . S
H528 C551 0.950 . S
H529 C553 0.950 . S
H530 C554 0.950 . S
H531 C555 0.951 . S
H532 C557 0.951 . S
H533 C559 0.950 . S
H534 C560 0.950 . S
H535 C562 0.950 . S
H536 C565 0.950 . S
H537 C566 0.950 . S
H538 C568 0.950 . S
H539 C569 0.950 . S
C540 H522 0.951 . S
C540 C541 1.366 . S
C540 C542 1.388 . S
C541 C540 1.366 . S
C541 C545 1.385 . S
C542 H523 0.951 . S
C542 C540 1.388 . S
C542 C543 1.366 . S
C543 C542 1.366 . S
C543 C544 1.414 . S
C543 C546 1.499 . S
C544 H524 0.950 . S
C544 C543 1.414 . S
C544 C545 1.374 . S
C545 H525 0.950 . S
C545 C541 1.385 . S
C545 C544 1.374 . S
C546 C543 1.499 . S
C546 C547 1.373 . S
C546 C548 1.389 . S
C547 H526 0.950 . S
C547 C546 1.373 . S
C547 C563 1.377 . S
C548 C546 1.389 . S
C548 C549 1.524 . S
C548 C562 1.377 . S
C549 C548 1.524 . S
C549 C550 1.397 . S
C549 C554 1.363 . S
C550 H527 0.950 . S
C550 C549 1.397 . S
C550 C551 1.334 . S
C551 H528 0.950 . S
C551 C550 1.334 . S
C551 C552 1.287 . S
C552 C551 1.287 . S
C552 C553 1.524 . S
C552 H571 0.913 . S
C553 H529 0.950 . S
C553 C552 1.524 . S
C553 C554 1.415 . S
C554 H530 0.950 . S
C554 C549 1.363 . S
C554 C553 1.415 . S
C555 H531 0.951 . S
C555 C556 1.366 . S
C555 C557 1.388 . S
C556 C555 1.366 . S
C556 C560 1.385 . S
C557 H532 0.951 . S
C557 C555 1.388 . S
C557 C558 1.366 . S
C558 C557 1.366 . S
C558 C559 1.414 . S
C558 C561 1.499 . S
C559 H533 0.950 . S
C559 C558 1.414 . S
C559 C560 1.374 . S
C560 H534 0.950 . S
C560 C556 1.385 . S
C560 C559 1.374 . S
C561 C558 1.499 . S
C561 C562 1.373 . S
C561 C563 1.389 . S
C562 H535 0.950 . S
C562 C548 1.377 . S
C562 C561 1.373 . S
C563 C547 1.377 . S
C563 C561 1.389 . S
C563 C564 1.524 . S
C564 C563 1.524 . S
C564 C565 1.397 . S
C564 C569 1.363 . S
C565 H536 0.950 . S
C565 C564 1.397 . S
C565 C566 1.334 . S
C566 H537 0.950 . S
C566 C565 1.334 . S
C566 C567 1.287 . S
C567 C566 1.287 . S
C567 C568 1.524 . S
C567 H570 0.999 . S
C568 H538 0.950 . S
C568 C567 1.524 . S
C568 C569 1.415 . S
C569 H539 0.950 . S
C569 C564 1.363 . S
C569 C568 1.415 . S
H570 C567 0.999 . S
H571 C552 0.913 . S
H572 C590 0.951 . S
H573 C592 0.951 . S
H574 C594 0.950 . S
H575 C595 0.950 . S
H576 C597 0.950 . S
H577 C600 0.950 . S
H578 C601 0.950 . S
H579 C603 0.950 . S
H580 C604 0.950 . S
H581 C605 0.951 . S
H582 C607 0.951 . S
H583 C609 0.950 . S
H584 C610 0.950 . S
H585 C612 0.950 . S
H586 C615 0.950 . S
H587 C616 0.950 . S
H588 C618 0.950 . S
H589 C619 0.950 . S
C590 H572 0.951 . S
C590 C591 1.366 . S
C590 C592 1.388 . S
C591 C590 1.366 . S
C591 C595 1.385 . S
C592 H573 0.951 . S
C592 C590 1.388 . S
C592 C593 1.366 . S
C593 C592 1.366 . S
C593 C594 1.414 . S
C593 C596 1.499 . S
C594 H574 0.950 . S
C594 C593 1.414 . S
C594 C595 1.374 . S
C595 H575 0.950 . S
C595 C591 1.385 . S
C595 C594 1.374 . S
C596 C593 1.499 . S
C596 C597 1.373 . S
C596 C598 1.389 . S
C597 H576 0.950 . S
C597 C596 1.373 . S
C597 C613 1.377 . S
C598 C596 1.389 . S
C598 C599 1.524 . S
C598 C612 1.377 . S
C599 C598 1.524 . S
C599 C600 1.397 . S
C599 C604 1.363 . S
C600 H577 0.950 . S
C600 C599 1.397 . S
C600 C601 1.334 . S
C601 H578 0.950 . S
C601 C600 1.334 . S
C601 C602 1.287 . S
C602 C601 1.287 . S
C602 C603 1.524 . S
C602 H621 0.913 1_554 S
C603 H579 0.950 . S
C603 C602 1.524 . S
C603 C604 1.415 . S
C604 H580 0.950 . S
C604 C599 1.363 . S
C604 C603 1.415 . S
C605 H581 0.951 . S
C605 C606 1.366 . S
C605 C607 1.388 . S
C606 C605 1.366 . S
C606 C610 1.385 . S
C607 H582 0.951 . S
C607 C605 1.388 . S
C607 C608 1.366 . S
C608 C607 1.366 . S
C608 C609 1.414 . S
C608 C611 1.499 . S
C609 H583 0.950 . S
C609 C608 1.414 . S
C609 C610 1.374 . S
C610 H584 0.950 . S
C610 C606 1.385 . S
C610 C609 1.374 . S
C611 C608 1.499 . S
C611 C612 1.373 . S
C611 C613 1.389 . S
C612 H585 0.950 . S
C612 C598 1.377 . S
C612 C611 1.373 . S
C613 C597 1.377 . S
C613 C611 1.389 . S
C613 C614 1.524 . S
C614 C613 1.524 . S
C614 C615 1.397 . S
C614 C619 1.363 . S
C615 H586 0.950 . S
C615 C614 1.397 . S
C615 C616 1.334 . S
C616 H587 0.950 . S
C616 C615 1.334 . S
C616 C617 1.287 . S
C617 C616 1.287 . S
C617 C618 1.524 . S
C617 H620 0.999 . S
C618 H588 0.950 . S
C618 C617 1.524 . S
C618 C619 1.415 . S
C619 H589 0.950 . S
C619 C614 1.363 . S
C619 C618 1.415 . S
H620 C617 0.999 . S
H621 C602 0.913 1_556 S
H622 C640 0.951 . S
H623 C642 0.951 . S
H624 C644 0.950 . S
H625 C645 0.950 . S
H626 C647 0.950 . S
H627 C650 0.950 . S
H628 C651 0.950 . S
H629 C653 0.950 . S
H630 C654 0.950 . S
H631 C655 0.951 . S
H632 C657 0.951 . S
H633 C659 0.950 . S
H634 C660 0.950 . S
H635 C662 0.950 . S
H636 C665 0.950 . S
H637 C666 0.950 . S
H638 C668 0.950 . S
H639 C669 0.950 . S
C640 H622 0.951 . S
C640 C641 1.366 . S
C640 C642 1.388 . S
C641 C640 1.366 . S
C641 C645 1.385 . S
C642 H623 0.951 . S
C642 C640 1.388 . S
C642 C643 1.366 . S
C643 C642 1.366 . S
C643 C644 1.414 . S
C643 C646 1.499 . S
C644 H624 0.950 . S
C644 C643 1.414 . S
C644 C645 1.374 . S
C645 H625 0.950 . S
C645 C641 1.385 . S
C645 C644 1.374 . S
C646 C643 1.499 . S
C646 C647 1.373 . S
C646 C648 1.389 . S
C647 H626 0.950 . S
C647 C646 1.373 . S
C647 C663 1.377 . S
C648 C646 1.389 . S
C648 C649 1.524 . S
C648 C662 1.377 . S
C649 C648 1.524 . S
C649 C650 1.397 . S
C649 C654 1.363 . S
C650 H627 0.950 . S
C650 C649 1.397 . S
C650 C651 1.334 . S
C651 H628 0.950 . S
C651 C650 1.334 . S
C651 C652 1.287 . S
C652 C651 1.287 . S
C652 C653 1.524 . S
C652 H671 0.913 . S
C653 H629 0.950 . S
C653 C652 1.524 . S
C653 C654 1.415 . S
C654 H630 0.950 . S
C654 C649 1.363 . S
C654 C653 1.415 . S
C655 H631 0.951 . S
C655 C656 1.366 . S
C655 C657 1.388 . S
C656 C655 1.366 . S
C656 C660 1.385 . S
C657 H632 0.951 . S
C657 C655 1.388 . S
C657 C658 1.366 . S
C658 C657 1.366 . S
C658 C659 1.414 . S
C658 C661 1.499 . S
C659 H633 0.950 . S
C659 C658 1.414 . S
C659 C660 1.374 . S
C660 H634 0.950 . S
C660 C656 1.385 . S
C660 C659 1.374 . S
C661 C658 1.499 . S
C661 C662 1.373 . S
C661 C663 1.389 . S
C662 H635 0.950 . S
C662 C648 1.377 . S
C662 C661 1.373 . S
C663 C647 1.377 . S
C663 C661 1.389 . S
C663 C664 1.524 . S
C664 C663 1.524 . S
C664 C665 1.397 . S
C664 C669 1.363 . S
C665 H636 0.950 . S
C665 C664 1.397 . S
C665 C666 1.334 . S
C666 H637 0.950 . S
C666 C665 1.334 . S
C666 C667 1.287 . S
C667 C666 1.287 . S
C667 C668 1.524 . S
C667 H670 0.999 . S
C668 H638 0.950 . S
C668 C667 1.524 . S
C668 C669 1.415 . S
C669 H639 0.950 . S
C669 C664 1.363 . S
C669 C668 1.415 . S
H670 C667 0.999 . S
H671 C652 0.913 . S
H672 C690 0.951 . S
H673 C692 0.951 . S
H674 C694 0.950 . S
H675 C695 0.950 . S
H676 C697 0.950 . S
H677 C700 0.950 . S
H678 C701 0.950 . S
H679 C703 0.950 . S
H680 C704 0.950 . S
H681 C705 0.951 . S
H682 C707 0.951 . S
H683 C709 0.950 . S
H684 C710 0.950 . S
H685 C712 0.950 . S
H686 C715 0.950 . S
H687 C716 0.950 . S
H688 C718 0.950 . S
H689 C719 0.950 . S
C690 H672 0.951 . S
C690 C691 1.366 . S
C690 C692 1.388 . S
C691 C690 1.366 . S
C691 C695 1.385 . S
C692 H673 0.951 . S
C692 C690 1.388 . S
C692 C693 1.366 . S
C693 C692 1.366 . S
C693 C694 1.414 . S
C693 C696 1.499 . S
C694 H674 0.950 . S
C694 C693 1.414 . S
C694 C695 1.374 . S
C695 H675 0.950 . S
C695 C691 1.385 . S
C695 C694 1.374 . S
C696 C693 1.499 . S
C696 C697 1.373 . S
C696 C698 1.389 . S
C697 H676 0.950 . S
C697 C696 1.373 . S
C697 C713 1.377 . S
C698 C696 1.389 . S
C698 C699 1.524 . S
C698 C712 1.377 . S
C699 C698 1.524 . S
C699 C700 1.397 . S
C699 C704 1.363 . S
C700 H677 0.950 . S
C700 C699 1.397 . S
C700 C701 1.334 . S
C701 H678 0.950 . S
C701 C700 1.334 . S
C701 C702 1.287 . S
C702 C701 1.287 . S
C702 C703 1.524 . S
C702 H721 0.913 . S
C703 H679 0.950 . S
C703 C702 1.524 . S
C703 C704 1.415 . S
C704 H680 0.950 . S
C704 C699 1.363 . S
C704 C703 1.415 . S
C705 H681 0.951 . S
C705 C706 1.366 . S
C705 C707 1.388 . S
C706 C705 1.366 . S
C706 C710 1.385 . S
C707 H682 0.951 . S
C707 C705 1.388 . S
C707 C708 1.366 . S
C708 C707 1.366 . S
C708 C709 1.414 . S
C708 C711 1.499 . S
C709 H683 0.950 . S
C709 C708 1.414 . S
C709 C710 1.374 . S
C710 H684 0.950 . S
C710 C706 1.385 . S
C710 C709 1.374 . S
C711 C708 1.499 . S
C711 C712 1.373 . S
C711 C713 1.389 . S
C712 H685 0.950 . S
C712 C698 1.377 . S
C712 C711 1.373 . S
C713 C697 1.377 . S
C713 C711 1.389 . S
C713 C714 1.524 . S
C714 C713 1.524 . S
C714 C715 1.397 . S
C714 C719 1.363 . S
C715 H686 0.950 . S
C715 C714 1.397 . S
C715 C716 1.334 . S
C716 H687 0.950 . S
C716 C715 1.334 . S
C716 C717 1.287 . S
C717 C716 1.287 . S
C717 C718 1.524 . S
C717 H720 0.999 1_556 S
C718 H688 0.950 . S
C718 C717 1.524 . S
C718 C719 1.415 . S
C719 H689 0.950 . S
C719 C714 1.363 . S
C719 C718 1.415 . S
H720 C717 0.999 1_554 S
H721 C702 0.913 . S
H722 C740 0.951 . S
H723 C742 0.951 . S
H724 C744 0.950 . S
H725 C745 0.950 . S
H726 C747 0.950 . S
H727 C750 0.950 . S
H728 C751 0.950 . S
H729 C753 0.950 . S
H730 C754 0.950 . S
H731 C755 0.951 . S
H732 C757 0.951 . S
H733 C759 0.950 . S
H734 C760 0.950 . S
H735 C762 0.950 . S
H736 C765 0.950 . S
H737 C766 0.950 . S
H738 C768 0.950 . S
H739 C769 0.950 . S
C740 H722 0.951 . S
C740 C741 1.366 . S
C740 C742 1.388 . S
C741 C740 1.366 . S
C741 C745 1.385 . S
C742 H723 0.951 . S
C742 C740 1.388 . S
C742 C743 1.366 . S
C743 C742 1.366 . S
C743 C744 1.414 . S
C743 C746 1.499 . S
C744 H724 0.950 . S
C744 C743 1.414 . S
C744 C745 1.374 . S
C745 H725 0.950 . S
C745 C741 1.385 . S
C745 C744 1.374 . S
C746 C743 1.499 . S
C746 C747 1.373 . S
C746 C748 1.389 . S
C747 H726 0.950 . S
C747 C746 1.373 . S
C747 C763 1.377 . S
C748 C746 1.389 . S
C748 C749 1.524 . S
C748 C762 1.377 . S
C749 C748 1.524 . S
C749 C750 1.397 . S
C749 C754 1.363 . S
C750 H727 0.950 . S
C750 C749 1.397 . S
C750 C751 1.334 . S
C751 H728 0.950 . S
C751 C750 1.334 . S
C751 C752 1.287 . S
C752 C751 1.287 . S
C752 C753 1.524 . S
C752 H771 0.913 . S
C753 H729 0.950 . S
C753 C752 1.524 . S
C753 C754 1.415 . S
C754 H730 0.950 . S
C754 C749 1.363 . S
C754 C753 1.415 . S
C755 H731 0.951 . S
C755 C756 1.366 . S
C755 C757 1.388 . S
C756 C755 1.366 . S
C756 C760 1.385 . S
C757 H732 0.951 . S
C757 C755 1.388 . S
C757 C758 1.366 . S
C758 C757 1.366 . S
C758 C759 1.414 . S
C758 C761 1.499 . S
C759 H733 0.950 . S
C759 C758 1.414 . S
C759 C760 1.374 . S
C760 H734 0.950 . S
C760 C756 1.385 . S
C760 C759 1.374 . S
C761 C758 1.499 . S
C761 C762 1.373 . S
C761 C763 1.389 . S
C762 H735 0.950 . S
C762 C748 1.377 . S
C762 C761 1.373 . S
C763 C747 1.377 . S
C763 C761 1.389 . S
C763 C764 1.524 . S
C764 C763 1.524 . S
C764 C765 1.397 . S
C764 C769 1.363 . S
C765 H736 0.950 . S
C765 C764 1.397 . S
C765 C766 1.334 . S
C766 H737 0.950 . S
C766 C765 1.334 . S
C766 C767 1.287 . S
C767 C766 1.287 . S
C767 C768 1.524 . S
C767 H770 0.999 . S
C768 H738 0.950 . S
C768 C767 1.524 . S
C768 C769 1.415 . S
C769 H739 0.950 . S
C769 C764 1.363 . S
C769 C768 1.415 . S
H770 C767 0.999 . S
H771 C752 0.913 . S
H772 C790 0.951 . S
H773 C792 0.951 . S
H774 C794 0.950 . S
H775 C795 0.950 . S
H776 C797 0.950 . S
H777 C800 0.950 . S
H778 C801 0.950 . S
H779 C803 0.950 . S
H780 C804 0.950 . S
H781 C805 0.951 . S
H782 C807 0.951 . S
H783 C809 0.950 . S
H784 C810 0.950 . S
H785 C812 0.950 . S
H786 C815 0.950 . S
H787 C816 0.950 . S
H788 C818 0.950 . S
H789 C819 0.950 . S
C790 H772 0.951 . S
C790 C791 1.366 . S
C790 C792 1.388 . S
C791 C790 1.366 . S
C791 C795 1.385 . S
C792 H773 0.951 . S
C792 C790 1.388 . S
C792 C793 1.366 . S
C793 C792 1.366 . S
C793 C794 1.414 . S
C793 C796 1.499 . S
C794 H774 0.950 . S
C794 C793 1.414 . S
C794 C795 1.374 . S
C795 H775 0.950 . S
C795 C791 1.385 . S
C795 C794 1.374 . S
C796 C793 1.499 . S
C796 C797 1.373 . S
C796 C798 1.389 . S
C797 H776 0.950 . S
C797 C796 1.373 . S
C797 C813 1.377 . S
C798 C796 1.389 . S
C798 C799 1.524 . S
C798 C812 1.377 . S
C799 C798 1.524 . S
C799 C800 1.397 . S
C799 C804 1.363 . S
C800 H777 0.950 . S
C800 C799 1.397 . S
C800 C801 1.334 . S
C801 H778 0.950 . S
C801 C800 1.334 . S
C801 C802 1.287 . S
C802 C801 1.287 . S
C802 C803 1.524 . S
C802 H821 0.913 . S
C803 H779 0.950 . S
C803 C802 1.524 . S
C803 C804 1.415 . S
C804 H780 0.950 . S
C804 C799 1.363 . S
C804 C803 1.415 . S
C805 H781 0.951 . S
C805 C806 1.366 . S
C805 C807 1.388 . S
C806 C805 1.366 . S
C806 C810 1.385 . S
C807 H782 0.951 . S
C807 C805 1.388 . S
C807 C808 1.366 . S
C808 C807 1.366 . S
C808 C809 1.414 . S
C808 C811 1.499 . S
C809 H783 0.950 . S
C809 C808 1.414 . S
C809 C810 1.374 . S
C810 H784 0.950 . S
C810 C806 1.385 . S
C810 C809 1.374 . S
C811 C808 1.499 . S
C811 C812 1.373 . S
C811 C813 1.389 . S
C812 H785 0.950 . S
C812 C798 1.377 . S
C812 C811 1.373 . S
C813 C797 1.377 . S
C813 C811 1.389 . S
C813 C814 1.524 . S
C814 C813 1.524 . S
C814 C815 1.397 . S
C814 C819 1.363 . S
C815 H786 0.950 . S
C815 C814 1.397 . S
C815 C816 1.334 . S
C816 H787 0.950 . S
C816 C815 1.334 . S
C816 C817 1.287 . S
C817 C816 1.287 . S
C817 C818 1.524 . S
C817 H820 0.999 . S
C818 H788 0.950 . S
C818 C817 1.524 . S
C818 C819 1.415 . S
C819 H789 0.950 . S
C819 C814 1.363 . S
C819 C818 1.415 . S
H820 C817 0.999 . S
H821 C802 0.913 . S
H822 C840 0.951 . S
H823 C842 0.951 . S
H824 C844 0.950 . S
H825 C845 0.950 . S
H826 C847 0.950 . S
H827 C850 0.950 . S
H828 C851 0.950 . S
H829 C853 0.950 . S
H830 C854 0.950 . S
H831 C855 0.951 . S
H832 C857 0.951 . S
H833 C859 0.950 . S
H834 C860 0.950 . S
H835 C862 0.950 . S
H836 C865 0.950 . S
H837 C866 0.950 . S
H838 C868 0.950 . S
H839 C869 0.950 . S
C840 H822 0.951 . S
C840 C841 1.366 . S
C840 C842 1.388 . S
C841 C840 1.366 . S
C841 C845 1.385 . S
C842 H823 0.951 . S
C842 C840 1.388 . S
C842 C843 1.366 . S
C843 C842 1.366 . S
C843 C844 1.414 . S
C843 C846 1.499 . S
C844 H824 0.950 . S
C844 C843 1.414 . S
C844 C845 1.374 . S
C845 H825 0.950 . S
C845 C841 1.385 . S
C845 C844 1.374 . S
C846 C843 1.499 . S
C846 C847 1.373 . S
C846 C848 1.389 . S
C847 H826 0.950 . S
C847 C846 1.373 . S
C847 C863 1.377 . S
C848 C846 1.389 . S
C848 C849 1.524 . S
C848 C862 1.377 . S
C849 C848 1.524 . S
C849 C850 1.397 . S
C849 C854 1.363 . S
C850 H827 0.950 . S
C850 C849 1.397 . S
C850 C851 1.334 . S
C851 H828 0.950 . S
C851 C850 1.334 . S
C851 C852 1.287 . S
C852 C851 1.287 . S
C852 C853 1.524 . S
C852 H871 0.913 . S
C853 H829 0.950 . S
C853 C852 1.524 . S
C853 C854 1.415 . S
C854 H830 0.950 . S
C854 C849 1.363 . S
C854 C853 1.415 . S
C855 H831 0.951 . S
C855 C856 1.366 . S
C855 C857 1.388 . S
C856 C855 1.366 . S
C856 C860 1.385 . S
C857 H832 0.951 . S
C857 C855 1.388 . S
C857 C858 1.366 . S
C858 C857 1.366 . S
C858 C859 1.414 . S
C858 C861 1.499 . S
C859 H833 0.950 . S
C859 C858 1.414 . S
C859 C860 1.374 . S
C860 H834 0.950 . S
C860 C856 1.385 . S
C860 C859 1.374 . S
C861 C858 1.499 . S
C861 C862 1.373 . S
C861 C863 1.389 . S
C862 H835 0.950 . S
C862 C848 1.377 . S
C862 C861 1.373 . S
C863 C847 1.377 . S
C863 C861 1.389 . S
C863 C864 1.524 . S
C864 C863 1.524 . S
C864 C865 1.397 . S
C864 C869 1.363 . S
C865 H836 0.950 . S
C865 C864 1.397 . S
C865 C866 1.334 . S
C866 H837 0.950 . S
C866 C865 1.334 . S
C866 C867 1.287 . S
C867 C866 1.287 . S
C867 C868 1.524 . S
C867 H870 0.999 . S
C868 H838 0.950 . S
C868 C867 1.524 . S
C868 C869 1.415 . S
C869 H839 0.950 . S
C869 C864 1.363 . S
C869 C868 1.415 . S
H870 C867 0.999 . S
H871 C852 0.913 . S
H872 C890 0.951 . S
H873 C892 0.951 . S
H874 C894 0.950 . S
H875 C895 0.950 . S
H876 C897 0.950 . S
H877 C900 0.950 . S
H878 C901 0.950 . S
H879 C903 0.950 . S
H880 C904 0.950 . S
H881 C905 0.951 . S
H882 C907 0.951 . S
H883 C909 0.950 . S
H884 C910 0.950 . S
H885 C912 0.950 . S
H886 C915 0.950 . S
H887 C916 0.950 . S
H888 C918 0.950 . S
H889 C919 0.950 . S
C890 H872 0.951 . S
C890 C891 1.366 . S
C890 C892 1.388 . S
C891 C890 1.366 . S
C891 C895 1.385 . S
C892 H873 0.951 . S
C892 C890 1.388 . S
C892 C893 1.366 . S
C893 C892 1.366 . S
C893 C894 1.414 . S
C893 C896 1.499 . S
C894 H874 0.950 . S
C894 C893 1.414 . S
C894 C895 1.374 . S
C895 H875 0.950 . S
C895 C891 1.385 . S
C895 C894 1.374 . S
C896 C893 1.499 . S
C896 C897 1.373 . S
C896 C898 1.389 . S
C897 H876 0.950 . S
C897 C896 1.373 . S
C897 C913 1.377 . S
C898 C896 1.389 . S
C898 C899 1.524 . S
C898 C912 1.377 . S
C899 C898 1.524 . S
C899 C900 1.397 . S
C899 C904 1.363 . S
C900 H877 0.950 . S
C900 C899 1.397 . S
C900 C901 1.334 . S
C901 H878 0.950 . S
C901 C900 1.334 . S
C901 C902 1.287 . S
C902 C901 1.287 . S
C902 C903 1.524 . S
C902 H921 0.913 . S
C903 H879 0.950 . S
C903 C902 1.524 . S
C903 C904 1.415 . S
C904 H880 0.950 . S
C904 C899 1.363 . S
C904 C903 1.415 . S
C905 H881 0.951 . S
C905 C906 1.366 . S
C905 C907 1.388 . S
C906 C905 1.366 . S
C906 C910 1.385 . S
C907 H882 0.951 . S
C907 C905 1.388 . S
C907 C908 1.366 . S
C908 C907 1.366 . S
C908 C909 1.414 . S
C908 C911 1.499 1_554 S
C909 H883 0.950 . S
C909 C908 1.414 . S
C909 C910 1.374 . S
C910 H884 0.950 . S
C910 C906 1.385 . S
C910 C909 1.374 . S
C911 C908 1.499 1_556 S
C911 C912 1.373 . S
C911 C913 1.389 . S
C912 H885 0.950 . S
C912 C898 1.377 . S
C912 C911 1.373 . S
C913 C897 1.377 . S
C913 C911 1.389 . S
C913 C914 1.524 . S
C914 C913 1.524 . S
C914 C915 1.397 . S
C914 C919 1.363 . S
C915 H886 0.950 . S
C915 C914 1.397 . S
C915 C916 1.334 1_556 S
C916 H887 0.950 . S
C916 C915 1.334 1_554 S
C916 C917 1.287 1_554 S
C917 C916 1.287 1_556 S
C917 C918 1.524 . S
C917 H920 0.999 1_556 S
C918 H888 0.950 . S
C918 C917 1.524 . S
C918 C919 1.415 . S
C919 H889 0.950 . S
C919 C914 1.363 . S
C919 C918 1.415 . S
H920 C917 0.999 1_554 S
H921 C902 0.913 . S
H922 C940 0.951 . S
H923 C942 0.951 . S
H924 C944 0.950 . S
H925 C945 0.950 . S
H926 C947 0.950 . S
H927 C950 0.950 . S
H928 C951 0.950 . S
H929 C953 0.950 . S
H930 C954 0.950 . S
H931 C955 0.951 . S
H932 C957 0.951 . S
H933 C959 0.950 . S
H934 C960 0.950 . S
H935 C962 0.950 . S
H936 C965 0.950 . S
H937 C966 0.950 . S
H938 C968 0.950 . S
H939 C969 0.950 . S
C940 H922 0.951 . S
C940 C941 1.366 . S
C940 C942 1.388 . S
C941 C940 1.366 . S
C941 C945 1.385 . S
C942 H923 0.951 . S
C942 C940 1.388 . S
C942 C943 1.366 . S
C943 C942 1.366 . S
C943 C944 1.414 . S
C943 C946 1.499 . S
C944 H924 0.950 . S
C944 C943 1.414 . S
C944 C945 1.374 . S
C945 H925 0.950 . S
C945 C941 1.385 . S
C945 C944 1.374 . S
C946 C943 1.499 . S
C946 C947 1.373 . S
C946 C948 1.389 . S
C947 H926 0.950 . S
C947 C946 1.373 . S
C947 C963 1.377 . S
C948 C946 1.389 . S
C948 C949 1.524 . S
C948 C962 1.377 . S
C949 C948 1.524 . S
C949 C950 1.397 . S
C949 C954 1.363 . S
C950 H927 0.950 . S
C950 C949 1.397 . S
C950 C951 1.334 . S
C951 H928 0.950 . S
C951 C950 1.334 . S
C951 C952 1.287 . S
C952 C951 1.287 . S
C952 C953 1.524 . S
C952 H971 0.913 . S
C953 H929 0.950 . S
C953 C952 1.524 . S
C953 C954 1.415 . S
C954 H930 0.950 . S
C954 C949 1.363 . S
C954 C953 1.415 . S
C955 H931 0.951 . S
C955 C956 1.366 . S
C955 C957 1.388 . S
C956 C955 1.366 . S
C956 C960 1.385 . S
C957 H932 0.951 . S
C957 C955 1.388 . S
C957 C958 1.366 . S
C958 C957 1.366 . S
C958 C959 1.414 . S
C958 C961 1.499 . S
C959 H933 0.950 . S
C959 C958 1.414 . S
C959 C960 1.374 . S
C960 H934 0.950 . S
C960 C956 1.385 . S
C960 C959 1.374 . S
C961 C958 1.499 . S
C961 C962 1.373 . S
C961 C963 1.389 . S
C962 H935 0.950 . S
C962 C948 1.377 . S
C962 C961 1.373 . S
C963 C947 1.377 . S
C963 C961 1.389 . S
C963 C964 1.524 . S
C964 C963 1.524 . S
C964 C965 1.397 . S
C964 C969 1.363 . S
C965 H936 0.950 . S
C965 C964 1.397 . S
C965 C966 1.334 . S
C966 H937 0.950 . S
C966 C965 1.334 . S
C966 C967 1.287 . S
C967 C966 1.287 . S
C967 C968 1.524 . S
C967 H970 0.999 . S
C968 H938 0.950 . S
C968 C967 1.524 . S
C968 C969 1.415 . S
C969 H939 0.950 . S
C969 C964 1.363 . S
C969 C968 1.415 . S
H970 C967 0.999 . S
H971 C952 0.913 . S
H972 C990 0.951 . S
H973 C992 0.951 . S
H974 C994 0.950 . S
H975 C995 0.950 . S
H976 C997 0.950 . S
H977 C1000 0.950 . S
H978 C1001 0.950 . S
H979 C1003 0.950 . S
H980 C1004 0.950 . S
H981 C1005 0.951 . S
H982 C1007 0.951 . S
H983 C1009 0.950 . S
H984 C1010 0.950 . S
H985 C1012 0.950 . S
H986 C1015 0.950 . S
H987 C1016 0.950 . S
H988 C1018 0.950 . S
H989 C1019 0.950 . S
C990 H972 0.951 . S
C990 C991 1.366 . S
C990 C992 1.388 . S
C991 C990 1.366 . S
C991 C995 1.385 . S
C992 H973 0.951 . S
C992 C990 1.388 . S
C992 C993 1.366 . S
C993 C992 1.366 . S
C993 C994 1.414 . S
C993 C996 1.499 1_554 S
C994 H974 0.950 . S
C994 C993 1.414 . S
C994 C995 1.374 . S
C995 H975 0.950 . S
C995 C991 1.385 . S
C995 C994 1.374 . S
C996 C993 1.499 1_556 S
C996 C997 1.373 . S
C996 C998 1.389 . S
C997 H976 0.950 . S
C997 C996 1.373 . S
C997 C1013 1.377 . S
C998 C996 1.389 . S
C998 C999 1.524 . S
C998 C1012 1.377 . S
C999 C998 1.524 . S
C999 C1000 1.397 . S
C999 C1004 1.363 . S
C1000 H977 0.950 . S
C1000 C999 1.397 . S
C1000 C1001 1.334 . S
C1001 H978 0.950 . S
C1001 C1000 1.334 . S
C1001 C1002 1.287 . S
C1002 C1001 1.287 . S
C1002 C1003 1.524 . S
C1002 H1021 0.913 . S
C1003 H979 0.950 . S
C1003 C1002 1.524 . S
C1003 C1004 1.415 . S
C1004 H980 0.950 . S
C1004 C999 1.363 . S
C1004 C1003 1.415 . S
C1005 H981 0.951 . S
C1005 C1006 1.366 . S
C1005 C1007 1.388 . S
C1006 C1005 1.366 . S
C1006 C1010 1.385 . S
C1007 H982 0.951 . S
C1007 C1005 1.388 . S
C1007 C1008 1.366 . S
C1008 C1007 1.366 . S
C1008 C1009 1.414 . S
C1008 C1011 1.499 . S
C1009 H983 0.950 . S
C1009 C1008 1.414 . S
C1009 C1010 1.374 . S
C1010 H984 0.950 . S
C1010 C1006 1.385 . S
C1010 C1009 1.374 . S
C1011 C1008 1.499 . S
C1011 C1012 1.373 . S
C1011 C1013 1.389 . S
C1012 H985 0.950 . S
C1012 C998 1.377 . S
C1012 C1011 1.373 . S
C1013 C997 1.377 . S
C1013 C1011 1.389 . S
C1013 C1014 1.524 . S
C1014 C1013 1.524 . S
C1014 C1015 1.397 . S
C1014 C1019 1.363 . S
C1015 H986 0.950 . S
C1015 C1014 1.397 . S
C1015 C1016 1.334 . S
C1016 H987 0.950 . S
C1016 C1015 1.334 . S
C1016 C1017 1.287 . S
C1017 C1016 1.287 . S
C1017 C1018 1.524 . S
C1017 H1020 0.999 . S
C1018 H988 0.950 . S
C1018 C1017 1.524 . S
C1018 C1019 1.415 . S
C1019 H989 0.950 . S
C1019 C1014 1.363 . S
C1019 C1018 1.415 . S
H1020 C1017 0.999 . S
H1021 C1002 0.913 . S
H1022 C1040 0.951 . S
H1023 C1042 0.951 . S
H1024 C1044 0.950 . S
H1025 C1045 0.950 . S
H1026 C1047 0.950 . S
H1027 C1050 0.950 . S
H1028 C1051 0.950 . S
H1029 C1053 0.950 . S
H1030 C1054 0.950 . S
H1031 C1055 0.951 . S
H1032 C1057 0.951 . S
H1033 C1059 0.950 . S
H1034 C1060 0.950 . S
H1035 C1062 0.950 . S
H1036 C1065 0.950 . S
H1037 C1066 0.950 . S
H1038 C1068 0.950 . S
H1039 C1069 0.950 . S
C1040 H1022 0.951 . S
C1040 C1041 1.366 . S
C1040 C1042 1.388 . S
C1041 C1040 1.366 . S
C1041 C1045 1.385 . S
C1042 H1023 0.951 . S
C1042 C1040 1.388 . S
C1042 C1043 1.366 . S
C1043 C1042 1.366 . S
C1043 C1044 1.414 . S
C1043 C1046 1.499 . S
C1044 H1024 0.950 . S
C1044 C1043 1.414 . S
C1044 C1045 1.374 . S
C1045 H1025 0.950 . S
C1045 C1041 1.385 . S
C1045 C1044 1.374 . S
C1046 C1043 1.499 . S
C1046 C1047 1.373 . S
C1046 C1048 1.389 . S
C1047 H1026 0.950 . S
C1047 C1046 1.373 . S
C1047 C1063 1.377 . S
C1048 C1046 1.389 . S
C1048 C1049 1.524 . S
C1048 C1062 1.377 . S
C1049 C1048 1.524 . S
C1049 C1050 1.397 . S
C1049 C1054 1.363 . S
C1050 H1027 0.950 . S
C1050 C1049 1.397 . S
C1050 C1051 1.334 . S
C1051 H1028 0.950 . S
C1051 C1050 1.334 . S
C1051 C1052 1.287 . S
C1052 C1051 1.287 . S
C1052 C1053 1.524 . S
C1052 H1071 0.913 . S
C1053 H1029 0.950 . S
C1053 C1052 1.524 . S
C1053 C1054 1.415 . S
C1054 H1030 0.950 . S
C1054 C1049 1.363 . S
C1054 C1053 1.415 . S
C1055 H1031 0.951 . S
C1055 C1056 1.366 . S
C1055 C1057 1.388 . S
C1056 C1055 1.366 . S
C1056 C1060 1.385 . S
C1057 H1032 0.951 . S
C1057 C1055 1.388 . S
C1057 C1058 1.366 . S
C1058 C1057 1.366 . S
C1058 C1059 1.414 . S
C1058 C1061 1.499 . S
C1059 H1033 0.950 . S
C1059 C1058 1.414 . S
C1059 C1060 1.374 . S
C1060 H1034 0.950 . S
C1060 C1056 1.385 . S
C1060 C1059 1.374 . S
C1061 C1058 1.499 . S
C1061 C1062 1.373 . S
C1061 C1063 1.389 . S
C1062 H1035 0.950 . S
C1062 C1048 1.377 . S
C1062 C1061 1.373 . S
C1063 C1047 1.377 . S
C1063 C1061 1.389 . S
C1063 C1064 1.524 . S
C1064 C1063 1.524 . S
C1064 C1065 1.397 . S
C1064 C1069 1.363 . S
C1065 H1036 0.950 . S
C1065 C1064 1.397 . S
C1065 C1066 1.334 . S
C1066 H1037 0.950 . S
C1066 C1065 1.334 . S
C1066 C1067 1.287 . S
C1067 C1066 1.287 . S
C1067 C1068 1.524 . S
C1067 H1070 0.999 . S
C1068 H1038 0.950 . S
C1068 C1067 1.524 . S
C1068 C1069 1.415 . S
C1069 H1039 0.950 . S
C1069 C1064 1.363 . S
C1069 C1068 1.415 . S
H1070 C1067 0.999 . S
H1071 C1052 0.913 . S
H1072 C1090 0.951 . S
H1073 C1092 0.951 . S
H1074 C1094 0.950 . S
H1075 C1095 0.950 . S
H1076 C1097 0.950 . S
H1077 C1100 0.950 . S
H1078 C1101 0.950 . S
H1079 C1103 0.950 . S
H1080 C1104 0.950 . S
H1081 C1105 0.951 . S
H1082 C1107 0.951 . S
H1083 C1109 0.950 . S
H1084 C1110 0.950 . S
H1085 C1112 0.950 . S
H1086 C1115 0.950 . S
H1087 C1116 0.950 . S
H1088 C1118 0.950 . S
H1089 C1119 0.950 . S
C1090 H1072 0.951 . S
C1090 C1091 1.366 . S
C1090 C1092 1.388 . S
C1091 C1090 1.366 . S
C1091 C1095 1.385 . S
C1092 H1073 0.951 . S
C1092 C1090 1.388 . S
C1092 C1093 1.366 . S
C1093 C1092 1.366 . S
C1093 C1094 1.414 . S
C1093 C1096 1.499 . S
C1094 H1074 0.950 . S
C1094 C1093 1.414 . S
C1094 C1095 1.374 . S
C1095 H1075 0.950 . S
C1095 C1091 1.385 . S
C1095 C1094 1.374 . S
C1096 C1093 1.499 . S
C1096 C1097 1.373 . S
C1096 C1098 1.389 . S
C1097 H1076 0.950 . S
C1097 C1096 1.373 . S
C1097 C1113 1.377 . S
C1098 C1096 1.389 . S
C1098 C1099 1.524 . S
C1098 C1112 1.377 . S
C1099 C1098 1.524 . S
C1099 C1100 1.397 . S
C1099 C1104 1.363 . S
C1100 H1077 0.950 . S
C1100 C1099 1.397 . S
C1100 C1101 1.334 . S
C1101 H1078 0.950 . S
C1101 C1100 1.334 . S
C1101 C1102 1.287 . S
C1102 C1101 1.287 . S
C1102 C1103 1.524 . S
C1102 H1121 0.913 . S
C1103 H1079 0.950 . S
C1103 C1102 1.524 . S
C1103 C1104 1.415 . S
C1104 H1080 0.950 . S
C1104 C1099 1.363 . S
C1104 C1103 1.415 . S
C1105 H1081 0.951 . S
C1105 C1106 1.366 . S
C1105 C1107 1.388 . S
C1106 C1105 1.366 . S
C1106 C1110 1.385 . S
C1107 H1082 0.951 . S
C1107 C1105 1.388 . S
C1107 C1108 1.366 . S
C1108 C1107 1.366 . S
C1108 C1109 1.414 . S
C1108 C1111 1.499 . S
C1109 H1083 0.950 . S
C1109 C1108 1.414 . S
C1109 C1110 1.374 . S
C1110 H1084 0.950 . S
C1110 C1106 1.385 . S
C1110 C1109 1.374 . S
C1111 C1108 1.499 . S
C1111 C1112 1.373 . S
C1111 C1113 1.389 . S
C1112 H1085 0.950 . S
C1112 C1098 1.377 . S
C1112 C1111 1.373 . S
C1113 C1097 1.377 . S
C1113 C1111 1.389 . S
C1113 C1114 1.524 . S
C1114 C1113 1.524 . S
C1114 C1115 1.397 . S
C1114 C1119 1.363 . S
C1115 H1086 0.950 . S
C1115 C1114 1.397 . S
C1115 C1116 1.334 . S
C1116 H1087 0.950 . S
C1116 C1115 1.334 . S
C1116 C1117 1.287 . S
C1117 C1116 1.287 . S
C1117 C1118 1.524 . S
C1117 H1120 0.999 . S
C1118 H1088 0.950 . S
C1118 C1117 1.524 . S
C1118 C1119 1.415 . S
C1119 H1089 0.950 . S
C1119 C1114 1.363 . S
C1119 C1118 1.415 . S
H1120 C1117 0.999 . S
H1121 C1102 0.913 . S
H1122 C1140 0.951 . S
H1123 C1142 0.951 . S
H1124 C1144 0.950 . S
H1125 C1145 0.950 . S
H1126 C1147 0.950 . S
H1127 C1150 0.950 . S
H1128 C1151 0.950 1_556 S
H1129 C1153 0.950 . S
H1130 C1154 0.950 . S
H1131 C1155 0.951 . S
H1132 C1157 0.951 . S
H1133 C1159 0.950 . S
H1134 C1160 0.950 . S
H1135 C1162 0.950 . S
H1136 C1165 0.950 . S
H1137 C1166 0.950 . S
H1138 C1168 0.950 . S
H1139 C1169 0.950 . S
C1140 H1122 0.951 . S
C1140 C1141 1.366 . S
C1140 C1142 1.388 . S
C1141 C1140 1.366 . S
C1141 C1145 1.385 . S
C1142 H1123 0.951 . S
C1142 C1140 1.388 . S
C1142 C1143 1.366 . S
C1143 C1142 1.366 . S
C1143 C1144 1.414 . S
C1143 C1146 1.499 1_556 S
C1144 H1124 0.950 . S
C1144 C1143 1.414 . S
C1144 C1145 1.374 . S
C1145 H1125 0.950 . S
C1145 C1141 1.385 . S
C1145 C1144 1.374 . S
C1146 C1143 1.499 1_554 S
C1146 C1147 1.373 . S
C1146 C1148 1.389 . S
C1147 H1126 0.950 . S
C1147 C1146 1.373 . S
C1147 C1163 1.377 . S
C1148 C1146 1.389 . S
C1148 C1149 1.524 . S
C1148 C1162 1.377 . S
C1149 C1148 1.524 . S
C1149 C1150 1.397 . S
C1149 C1154 1.363 . S
C1150 H1127 0.950 . S
C1150 C1149 1.397 . S
C1150 C1151 1.334 . S
C1151 H1128 0.950 1_554 S
C1151 C1150 1.334 . S
C1151 C1152 1.287 . S
C1152 C1151 1.287 . S
C1152 C1153 1.524 . S
C1152 H1171 0.913 . S
C1153 H1129 0.950 . S
C1153 C1152 1.524 . S
C1153 C1154 1.415 . S
C1154 H1130 0.950 . S
C1154 C1149 1.363 . S
C1154 C1153 1.415 . S
C1155 H1131 0.951 . S
C1155 C1156 1.366 . S
C1155 C1157 1.388 . S
C1156 C1155 1.366 . S
C1156 C1160 1.385 . S
C1157 H1132 0.951 . S
C1157 C1155 1.388 . S
C1157 C1158 1.366 . S
C1158 C1157 1.366 . S
C1158 C1159 1.414 . S
C1158 C1161 1.499 . S
C1159 H1133 0.950 . S
C1159 C1158 1.414 . S
C1159 C1160 1.374 . S
C1160 H1134 0.950 . S
C1160 C1156 1.385 . S
C1160 C1159 1.374 . S
C1161 C1158 1.499 . S
C1161 C1162 1.373 . S
C1161 C1163 1.389 . S
C1162 H1135 0.950 . S
C1162 C1148 1.377 . S
C1162 C1161 1.373 . S
C1163 C1147 1.377 . S
C1163 C1161 1.389 . S
C1163 C1164 1.524 . S
C1164 C1163 1.524 . S
C1164 C1165 1.397 . S
C1164 C1169 1.363 . S
C1165 H1136 0.950 . S
C1165 C1164 1.397 . S
C1165 C1166 1.334 . S
C1166 H1137 0.950 . S
C1166 C1165 1.334 . S
C1166 C1167 1.287 . S
C1167 C1166 1.287 . S
C1167 C1168 1.524 . S
C1167 H1170 0.999 . S
C1168 H1138 0.950 . S
C1168 C1167 1.524 . S
C1168 C1169 1.415 . S
C1169 H1139 0.950 . S
C1169 C1164 1.363 . S
C1169 C1168 1.415 . S
H1170 C1167 0.999 . S
H1171 C1152 0.913 . S
H1172 C1190 0.951 . S
H1173 C1192 0.951 . S
H1174 C1194 0.950 . S
H1175 C1195 0.950 . S
H1176 C1197 0.950 . S
H1177 C1200 0.950 . S
H1178 C1201 0.950 . S
H1179 C1203 0.950 . S
H1180 C1204 0.950 . S
H1181 C1205 0.951 . S
H1182 C1207 0.951 . S
H1183 C1209 0.950 . S
H1184 C1210 0.950 . S
H1185 C1212 0.950 . S
H1186 C1215 0.950 . S
H1187 C1216 0.950 . S
H1188 C1218 0.950 . S
H1189 C1219 0.950 . S
C1190 H1172 0.951 . S
C1190 C1191 1.366 . S
C1190 C1192 1.388 . S
C1191 C1190 1.366 . S
C1191 C1195 1.385 . S
C1192 H1173 0.951 . S
C1192 C1190 1.388 . S
C1192 C1193 1.366 . S
C1193 C1192 1.366 . S
C1193 C1194 1.414 . S
C1193 C1196 1.499 . S
C1194 H1174 0.950 . S
C1194 C1193 1.414 . S
C1194 C1195 1.374 . S
C1195 H1175 0.950 . S
C1195 C1191 1.385 . S
C1195 C1194 1.374 . S
C1196 C1193 1.499 . S
C1196 C1197 1.373 . S
C1196 C1198 1.389 . S
C1197 H1176 0.950 . S
C1197 C1196 1.373 . S
C1197 C1213 1.377 . S
C1198 C1196 1.389 . S
C1198 C1199 1.524 . S
C1198 C1212 1.377 . S
C1199 C1198 1.524 . S
C1199 C1200 1.397 . S
C1199 C1204 1.363 . S
C1200 H1177 0.950 . S
C1200 C1199 1.397 . S
C1200 C1201 1.334 . S
C1201 H1178 0.950 . S
C1201 C1200 1.334 . S
C1201 C1202 1.287 . S
C1202 C1201 1.287 . S
C1202 C1203 1.524 . S
C1202 H1221 0.913 . S
C1203 H1179 0.950 . S
C1203 C1202 1.524 . S
C1203 C1204 1.415 . S
C1204 H1180 0.950 . S
C1204 C1199 1.363 . S
C1204 C1203 1.415 . S
C1205 H1181 0.951 . S
C1205 C1206 1.366 . S
C1205 C1207 1.388 . S
C1206 C1205 1.366 . S
C1206 C1210 1.385 . S
C1207 H1182 0.951 . S
C1207 C1205 1.388 . S
C1207 C1208 1.366 . S
C1208 C1207 1.366 . S
C1208 C1209 1.414 . S
C1208 C1211 1.499 . S
C1209 H1183 0.950 . S
C1209 C1208 1.414 . S
C1209 C1210 1.374 . S
C1210 H1184 0.950 . S
C1210 C1206 1.385 . S
C1210 C1209 1.374 . S
C1211 C1208 1.499 . S
C1211 C1212 1.373 . S
C1211 C1213 1.389 . S
C1212 H1185 0.950 . S
C1212 C1198 1.377 . S
C1212 C1211 1.373 . S
C1213 C1197 1.377 . S
C1213 C1211 1.389 . S
C1213 C1214 1.524 . S
C1214 C1213 1.524 . S
C1214 C1215 1.397 . S
C1214 C1219 1.363 . S
C1215 H1186 0.950 . S
C1215 C1214 1.397 . S
C1215 C1216 1.334 . S
C1216 H1187 0.950 . S
C1216 C1215 1.334 . S
C1216 C1217 1.287 . S
C1217 C1216 1.287 . S
C1217 C1218 1.524 . S
C1217 H1220 0.999 . S
C1218 H1188 0.950 . S
C1218 C1217 1.524 . S
C1218 C1219 1.415 . S
C1219 H1189 0.950 . S
C1219 C1214 1.363 . S
C1219 C1218 1.415 . S
H1220 C1217 0.999 . S
H1221 C1202 0.913 . S
H1222 C1240 0.951 . S
H1223 C1242 0.951 . S
H1224 C1244 0.950 . S
H1225 C1245 0.950 . S
H1226 C1247 0.950 . S
H1227 C1250 0.950 . S
H1228 C1251 0.950 . S
H1229 C1253 0.950 . S
H1230 C1254 0.950 . S
H1231 C1255 0.951 . S
H1232 C1257 0.951 . S
H1233 C1259 0.950 . S
H1234 C1260 0.950 . S
H1235 C1262 0.950 . S
H1236 C1265 0.950 . S
H1237 C1266 0.950 . S
H1238 C1268 0.950 . S
H1239 C1269 0.950 . S
C1240 H1222 0.951 . S
C1240 C1241 1.366 . S
C1240 C1242 1.388 . S
C1241 C1240 1.366 . S
C1241 C1245 1.385 . S
C1242 H1223 0.951 . S
C1242 C1240 1.388 . S
C1242 C1243 1.366 . S
C1243 C1242 1.366 . S
C1243 C1244 1.414 . S
C1243 C1246 1.499 . S
C1244 H1224 0.950 . S
C1244 C1243 1.414 . S
C1244 C1245 1.374 . S
C1245 H1225 0.950 . S
C1245 C1241 1.385 . S
C1245 C1244 1.374 . S
C1246 C1243 1.499 . S
C1246 C1247 1.373 . S
C1246 C1248 1.389 . S
C1247 H1226 0.950 . S
C1247 C1246 1.373 . S
C1247 C1263 1.377 . S
C1248 C1246 1.389 . S
C1248 C1249 1.524 . S
C1248 C1262 1.377 . S
C1249 C1248 1.524 . S
C1249 C1250 1.397 . S
C1249 C1254 1.363 . S
C1250 H1227 0.950 . S
C1250 C1249 1.397 . S
C1250 C1251 1.334 . S
C1251 H1228 0.950 . S
C1251 C1250 1.334 . S
C1251 C1252 1.287 . S
C1252 C1251 1.287 . S
C1252 C1253 1.524 . S
C1252 H1271 0.913 . S
C1253 H1229 0.950 . S
C1253 C1252 1.524 . S
C1253 C1254 1.415 . S
C1254 H1230 0.950 . S
C1254 C1249 1.363 . S
C1254 C1253 1.415 . S
C1255 H1231 0.951 . S
C1255 C1256 1.366 . S
C1255 C1257 1.388 . S
C1256 C1255 1.366 . S
C1256 C1260 1.385 . S
C1257 H1232 0.951 . S
C1257 C1255 1.388 . S
C1257 C1258 1.366 . S
C1258 C1257 1.366 . S
C1258 C1259 1.414 . S
C1258 C1261 1.499 1_556 S
C1259 H1233 0.950 . S
C1259 C1258 1.414 . S
C1259 C1260 1.374 . S
C1260 H1234 0.950 . S
C1260 C1256 1.385 . S
C1260 C1259 1.374 . S
C1261 C1258 1.499 1_554 S
C1261 C1262 1.373 . S
C1261 C1263 1.389 . S
C1262 H1235 0.950 . S
C1262 C1248 1.377 . S
C1262 C1261 1.373 . S
C1263 C1247 1.377 . S
C1263 C1261 1.389 . S
C1263 C1264 1.524 . S
C1264 C1263 1.524 . S
C1264 C1265 1.397 . S
C1264 C1269 1.363 . S
C1265 H1236 0.950 . S
C1265 C1264 1.397 . S
C1265 C1266 1.334 1_554 S
C1266 H1237 0.950 . S
C1266 C1265 1.334 1_556 S
C1266 C1267 1.287 . S
C1267 C1266 1.287 . S
C1267 C1268 1.524 1_556 S
C1267 H1270 0.999 . S
C1268 H1238 0.950 . S
C1268 C1267 1.524 1_554 S
C1268 C1269 1.415 . S
C1269 H1239 0.950 . S
C1269 C1264 1.363 . S
C1269 C1268 1.415 . S
H1270 C1267 0.999 . S
H1271 C1252 0.913 . S
C291 C258 1.494 . S
C306 C20 1.494 . S
C341 C156 1.494 . S
C356 C54 1.493 . S
C391 C88 1.494 . S
C406 C190 1.494 . S
C441 C224 1.494 . S
C456 C122 1.494 . S
C491 C33 1.108 . S
C506 C169 1.109 . S
C541 C203 1.108 . S
C556 C67 1.109 . S
C591 C237 1.108 . S
C606 C101 1.109 . S
C641 C271 1.109 . S
C656 C135 1.109 . S
C691 C240 1.720 . S
C706 C36 1.720 . S
C741 C70 1.721 . S
C756 C138 1.721 . S
C791 C104 1.721 . S
C806 C172 1.721 . S
C841 C206 1.720 . S
C856 C2 1.720 . S
C891 C9 0.996 . S
C906 C5 1.039 . S
C941 C39 1.038 . S
C956 C43 0.996 . S
C991 C73 1.038 . S
C1006 C77 0.994 . S
C1041 C111 0.996 . S
C1056 C107 1.039 . S
C1091 C141 1.039 . S
C1106 C145 0.996 . S
C1141 C175 1.038 . S
C1156 C179 0.995 . S
C1191 C209 1.039 . S
C1206 C213 0.994 . S
C1241 C247 0.995 . S
C1256 C243 1.039 . S
