# Generated by pormake.
# Topology wjo, (5)-cn, num edge types: 1
# Building blocks:
#     Node 0, Type 0, BuildingBlock: BEQFEK_clean_sbu_0, # of connection points: 5
#     Node 1, Type 0, BuildingBlock: BEQFEK_clean_sbu_0, # of connection points: 5
#     Node 2, Type 0, BuildingBlock: BEQFEK_clean_sbu_0, # of connection points: 5
#     Node 3, Type 0, BuildingBlock: BEQFEK_clean_sbu_0, # of connection points: 5
#     Node 4, Type 0, BuildingBlock: BEQFEK_clean_sbu_0, # of connection points: 5
#     Node 5, Type 0, BuildingBlock: BEQFEK_clean_sbu_0, # of connection points: 5
#     Node 6, Type 0, BuildingBlock: BEQFEK_clean_sbu_0, # of connection points: 5
#     Node 7, Type 0, BuildingBlock: BEQFEK_clean_sbu_0, # of connection points: 5
#     Node 8, Type 0, BuildingBlock: BEQFEK_clean_sbu_0, # of connection points: 5
#     Node 9, Type 0, BuildingBlock: BEQFEK_clean_sbu_0, # of connection points: 5
#     Node 10, Type 0, BuildingBlock: BEQFEK_clean_sbu_0, # of connection points: 5
#     Node 11, Type 0, BuildingBlock: BEQFEK_clean_sbu_0, # of connection points: 5
#     Edge 12, Type (0, 0), BuildingBlock: EZIPEK_clean_linker_0, # of connection points: 2
#     Edge 13, Type (0, 0), BuildingBlock: EZIPEK_clean_linker_0, # of connection points: 2
#     Edge 14, Type (0, 0), BuildingBlock: EZIPEK_clean_linker_0, # of connection points: 2
#     Edge 15, Type (0, 0), BuildingBlock: EZIPEK_clean_linker_0, # of connection points: 2
#     Edge 16, Type (0, 0), BuildingBlock: EZIPEK_clean_linker_0, # of connection points: 2
#     Edge 17, Type (0, 0), BuildingBlock: EZIPEK_clean_linker_0, # of connection points: 2
#     Edge 18, Type (0, 0), BuildingBlock: EZIPEK_clean_linker_0, # of connection points: 2
#     Edge 19, Type (0, 0), BuildingBlock: EZIPEK_clean_linker_0, # of connection points: 2
#     Edge 20, Type (0, 0), BuildingBlock: EZIPEK_clean_linker_0, # of connection points: 2
#     Edge 21, Type (0, 0), BuildingBlock: EZIPEK_clean_linker_0, # of connection points: 2
#     Edge 22, Type (0, 0), BuildingBlock: EZIPEK_clean_linker_0, # of connection points: 2
#     Edge 23, Type (0, 0), BuildingBlock: EZIPEK_clean_linker_0, # of connection points: 2
#     Edge 24, Type (0, 0), BuildingBlock: EZIPEK_clean_linker_0, # of connection points: 2
#     Edge 25, Type (0, 0), BuildingBlock: EZIPEK_clean_linker_0, # of connection points: 2
#     Edge 26, Type (0, 0), BuildingBlock: EZIPEK_clean_linker_0, # of connection points: 2
#     Edge 27, Type (0, 0), BuildingBlock: EZIPEK_clean_linker_0, # of connection points: 2
#     Edge 28, Type (0, 0), BuildingBlock: EZIPEK_clean_linker_0, # of connection points: 2
#     Edge 29, Type (0, 0), BuildingBlock: EZIPEK_clean_linker_0, # of connection points: 2
#     Edge 30, Type (0, 0), BuildingBlock: EZIPEK_clean_linker_0, # of connection points: 2
#     Edge 31, Type (0, 0), BuildingBlock: EZIPEK_clean_linker_0, # of connection points: 2
#     Edge 32, Type (0, 0), BuildingBlock: EZIPEK_clean_linker_0, # of connection points: 2
#     Edge 33, Type (0, 0), BuildingBlock: EZIPEK_clean_linker_0, # of connection points: 2
#     Edge 34, Type (0, 0), BuildingBlock: EZIPEK_clean_linker_0, # of connection points: 2
#     Edge 35, Type (0, 0), BuildingBlock: EZIPEK_clean_linker_0, # of connection points: 2
#     Edge 36, Type (0, 0), BuildingBlock: EZIPEK_clean_linker_0, # of connection points: 2
#     Edge 37, Type (0, 0), BuildingBlock: EZIPEK_clean_linker_0, # of connection points: 2
#     Edge 38, Type (0, 0), BuildingBlock: EZIPEK_clean_linker_0, # of connection points: 2
#     Edge 39, Type (0, 0), BuildingBlock: EZIPEK_clean_linker_0, # of connection points: 2
#     Edge 40, Type (0, 0), BuildingBlock: EZIPEK_clean_linker_0, # of connection points: 2
#     Edge 41, Type (0, 0), BuildingBlock: EZIPEK_clean_linker_0, # of connection points: 2
# Relax obj value: 0.837
# Max RMSD: 0.259
# Mean RMSD: 0.248
data_MOF--net-wjo--node1-BEQFEK_clean_sbu_0--edge1-EZIPEK_clean_linker_0
_symmetry_space_group_name_H-M    P1
_symmetry_Int_Tables_number       1
_symmetry_cell_setting            triclinic
loop_
_symmetry_equiv_pos_as_xyz
'x, y, z'
_cell_length_a     34.921238
_cell_length_b     34.789128
_cell_length_c     21.649355
_cell_angle_alpha  90.081398
_cell_angle_beta   89.880398
_cell_angle_gamma 120.074
loop_
_atom_site_label
_atom_site_type_symbol
_atom_site_fract_x
_atom_site_fract_y
_atom_site_fract_z
_atom_type_partial_charge
Co0 Co 0.31981 0.36864 0.91274 0.0
Co1 Co 0.31467 0.43491 0.0068 0.0
C2 C 0.32592 0.36146 0.0513 0.0
O3 O 0.32515 0.34745 -0.00341 0.0
O4 O 0.32247 0.39545 0.06218 0.0
C5 C 0.29168 0.28125 0.85815 0.0
O6 O 0.25694 0.26723 0.89424 0.0
C7 C 0.32275 0.48913 0.11158 0.0
C8 C 0.27835 0.51522 0.08944 0.0
C9 C 0.3034 0.51193 0.13654 0.0
N10 N 0.30758 0.47689 0.054 0.0
N11 N 0.28299 0.49462 0.03964 0.0
C12 C 0.35482 0.47852 0.14218 0.0
H13 H 0.37942 0.48051 0.10787 0.0
H14 H 0.33707 0.44416 0.16052 0.0
H15 H 0.37204 0.50174 0.18098 0.0
C16 C 0.22543 0.34904 0.88909 0.0
N17 N 0.26683 0.37428 0.91246 0.0
N18 N 0.26484 0.39919 0.95698 0.0
C19 C 0.22238 0.38792 0.96669 0.0
C20 C 0.19602 0.3567 0.92341 0.0
C21 C 0.21338 0.31676 0.83706 0.0
H22 H 0.24338 0.32213 0.81194 0.0
H23 H 0.19487 0.28233 0.8551 0.0
H24 H 0.19102 0.32078 0.80468 0.0
O25 O 0.37764 0.42617 0.89827 0.0
O26 O 0.37003 0.47076 0.96382 0.0
H27 H 0.19894 0.42603 0.01474 0.0
H28 H 0.17407 0.36982 0.03999 0.0
C29 C 0.20569 0.39869 0.02437 0.0
H30 H 0.22989 0.40802 0.06242 0.0
H31 H 0.26771 0.49088 -0.00299 0.0
O32 O 0.31927 0.32279 0.85517 0.0
C33 C 0.39259 0.46404 0.92408 0.0
Co34 Co 0.95648 0.3136 0.07614 0.0
Co35 Co 0.88342 0.30676 0.16875 0.0
C36 C 0.97009 0.32333 0.21451 0.0
O37 O 0.98504 0.3251 0.16005 0.0
O38 O 0.93063 0.31465 0.22426 0.0
C39 C 0.03249 0.30985 0.02823 0.0
O40 O 0.04136 0.31008 0.08718 0.0
C41 C 0.82455 0.28964 0.27359 0.0
C42 C 0.77695 0.30789 0.23582 0.0
C43 C 0.78848 0.29395 0.2888 0.0
N44 N 0.83413 0.30035 0.21394 0.0
N45 N 0.80555 0.31115 0.19148 0.0
C46 C 0.85047 0.2771 0.31567 0.0
H47 H 0.87993 0.30781 0.33254 0.0
H48 H 0.86209 0.25714 0.29021 0.0
H49 H 0.83031 0.25805 0.35611 0.0
C50 C 0.88526 0.21687 0.06173 0.0
N51 N 0.89929 0.25919 0.07981 0.0
N52 N 0.86843 0.2589 0.11523 0.0
C53 C 0.83376 0.21739 0.11923 0.0
C54 C 0.84322 0.18895 0.08659 0.0
C55 C 0.91418 0.20268 0.02999 0.0
H56 H 0.92807 0.22256 0.9873 0.0
H57 H 0.94232 0.2095 0.06066 0.0
H58 H 0.8955 0.16677 0.01836 0.0
O59 O 0.95234 0.36882 0.05479 0.0
O60 O 0.90426 0.3619 0.12677 0.0
H61 H 0.78103 0.2256 0.15491 0.0
H62 H 0.76907 0.16888 0.15458 0.0
C63 C 0.79536 0.20386 0.16214 0.0
H64 H 0.80698 0.20755 0.21054 0.0
H65 H 0.80621 0.32171 0.14621 0.0
O66 O 0.99684 0.30889 0.01256 0.0
C67 C 0.93056 0.38381 0.08364 0.0
Co68 Co 0.64637 0.94664 0.23906 0.0
Co69 Co 0.58247 0.87438 0.33454 0.0
C70 C 0.65381 0.96013 0.37856 0.0
O71 O 0.66594 0.97472 0.32365 0.0
O72 O 0.62226 0.92117 0.38937 0.0
C73 C 0.71304 0.02882 0.18708 0.0
O74 O 0.70205 0.04424 0.23518 0.0
C75 C 0.52886 0.82855 0.43956 0.0
C76 C 0.50161 0.75766 0.41717 0.0
C77 C 0.50596 0.78638 0.46462 0.0
N78 N 0.5402 0.82529 0.38153 0.0
N79 N 0.52169 0.78275 0.36704 0.0
C80 C 0.54107 0.8716 0.47102 0.0
H81 H 0.53954 0.89488 0.43745 0.0
H82 H 0.5754 0.88714 0.48872 0.0
H83 H 0.51852 0.86615 0.51045 0.0
C84 C 0.67111 0.87623 0.21929 0.0
N85 N 0.64298 0.88925 0.24112 0.0
N86 N 0.6173 0.86039 0.28318 0.0
C87 C 0.62958 0.82972 0.2915 0.0
C88 C 0.66336 0.83798 0.25069 0.0
C89 C 0.70858 0.90326 0.17613 0.0
H90 H 0.69591 0.91231 0.13494 0.0
H91 H 0.73278 0.93456 0.19942 0.0
H92 H 0.72539 0.8848 0.16164 0.0
O93 O 0.58758 0.94377 0.21995 0.0
O94 O 0.54826 0.89561 0.29297 0.0
H95 H 0.58907 0.76646 0.33425 0.0
H96 H 0.64466 0.79485 0.36174 0.0
C97 C 0.61702 0.79964 0.34664 0.0
H98 H 0.60768 0.8136 0.38602 0.0
H99 H 0.52465 0.77092 0.32407 0.0
O100 O 0.69319 0.98704 0.1779 0.0
C101 C 0.55155 0.92191 0.2504 0.0
Co102 Co 0.70821 0.64453 0.40687 0.0
Co103 Co 0.71676 0.58168 0.50401 0.0
C104 C 0.69889 0.65163 0.54569 0.0
O105 O 0.69689 0.66345 0.49046 0.0
O106 O 0.70768 0.62111 0.55726 0.0
C107 C 0.71054 0.72303 0.35705 0.0
O108 O 0.70791 0.73099 0.41573 0.0
C109 C 0.70699 0.52769 0.60952 0.0
C110 C 0.7512 0.50092 0.59006 0.0
C111 C 0.72538 0.50455 0.63588 0.0
N112 N 0.72346 0.53998 0.55248 0.0
N113 N 0.74785 0.52172 0.53962 0.0
C114 C 0.67432 0.53827 0.63833 0.0
H115 H 0.64998 0.53522 0.60303 0.0
H116 H 0.6916 0.57292 0.65566 0.0
H117 H 0.65682 0.5156 0.67753 0.0
C118 C 0.80414 0.67116 0.38967 0.0
N119 N 0.76295 0.64283 0.4113 0.0
N120 N 0.76603 0.61729 0.45363 0.0
C121 C 0.80892 0.62982 0.46222 0.0
C122 C 0.83453 0.66358 0.42127 0.0
C123 C 0.81472 0.7086 0.34635 0.0
H124 H 0.79281 0.69583 0.30535 0.0
H125 H 0.8081 0.73307 0.36975 0.0
H126 H 0.8499 0.72529 0.33158 0.0
O127 O 0.6536 0.58467 0.38735 0.0
O128 O 0.66223 0.5459 0.4612 0.0
H129 H 0.83166 0.58935 0.50454 0.0
H130 H 0.85864 0.64492 0.5327 0.0
C131 C 0.82629 0.61716 0.51725 0.0
H132 H 0.80293 0.60753 0.55653 0.0
H133 H 0.76357 0.52487 0.49738 0.0
O134 O 0.71296 0.68884 0.34216 0.0
C135 C 0.6396 0.54865 0.41783 0.0
Co136 Co 0.07077 0.70611 0.57705 0.0
Co137 Co 0.14134 0.70594 0.66795 0.0
C138 C 0.05747 0.69967 0.71394 0.0
O139 O 0.04416 0.70192 0.66001 0.0
O140 O 0.09403 0.70087 0.72303 0.0
C141 C 0.99358 0.70343 0.52509 0.0
O142 O 0.97787 0.68831 0.58041 0.0
C143 C 0.19807 0.72245 0.77476 0.0
C144 C 0.24347 0.69981 0.74143 0.0
C145 C 0.23259 0.71636 0.79246 0.0
N146 N 0.1887 0.71018 0.71552 0.0
N147 N 0.21594 0.69674 0.69572 0.0
C148 C 0.1736 0.73849 0.81409 0.0
H149 H 0.14316 0.70936 0.83228 0.0
H150 H 0.16366 0.75875 0.78613 0.0
H151 H 0.19412 0.75833 0.85375 0.0
C152 C 0.1464 0.79919 0.56098 0.0
N153 N 0.13019 0.75645 0.57855 0.0
N154 N 0.15983 0.75446 0.61385 0.0
C155 C 0.19603 0.79503 0.61795 0.0
C156 C 0.18866 0.82512 0.58591 0.0
C157 C 0.11902 0.81585 0.53091 0.0
H158 H 0.10581 0.79806 0.48657 0.0
H159 H 0.09035 0.80837 0.56103 0.0
H160 H 0.13867 0.85216 0.52228 0.0
O161 O 0.06687 0.64602 0.56221 0.0
O162 O 0.11823 0.6499 0.62617 0.0
H163 H 0.24558 0.78248 0.65501 0.0
H164 H 0.26197 0.84049 0.65181 0.0
C165 C 0.2339 0.80657 0.66082 0.0
H166 H 0.22273 0.80505 0.70917 0.0
H167 H 0.21513 0.68463 0.65133 0.0
O168 O 0.03346 0.71439 0.5125 0.0
C169 C 0.08809 0.62883 0.5869 0.0
Co170 Co 0.37975 0.06847 0.74268 0.0
Co171 Co 0.44467 0.13962 0.83796 0.0
C172 C 0.3718 0.05333 0.88065 0.0
O173 O 0.35953 0.03916 0.82572 0.0
O174 O 0.40385 0.09195 0.89179 0.0
C175 C 0.31984 0.98737 0.68416 0.0
O176 O 0.33755 0.97291 0.72475 0.0
C177 C 0.49703 0.18262 0.94509 0.0
C178 C 0.52894 0.25411 0.92353 0.0
C179 C 0.52178 0.22439 0.97082 0.0
N180 N 0.4873 0.1872 0.88677 0.0
N181 N 0.5086 0.22994 0.87284 0.0
C182 C 0.4821 0.13882 0.97602 0.0
H183 H 0.48263 0.11495 0.94242 0.0
H184 H 0.44768 0.12487 0.99297 0.0
H185 H 0.50367 0.14273 0.01595 0.0
C186 C 0.35329 0.13763 0.72986 0.0
N187 N 0.38319 0.12578 0.74717 0.0
N188 N 0.41055 0.15522 0.78737 0.0
C189 C 0.3984 0.18585 0.79776 0.0
C190 C 0.36193 0.17607 0.76157 0.0
C191 C 0.31262 0.10832 0.69332 0.0
H192 H 0.29148 0.07746 0.71982 0.0
H193 H 0.29353 0.12523 0.68311 0.0
H194 H 0.32214 0.09875 0.64947 0.0
O195 O 0.43812 0.07091 0.7221 0.0
O196 O 0.47846 0.11854 0.79498 0.0
H197 H 0.44558 0.24846 0.83639 0.0
H198 H 0.39115 0.22861 0.86491 0.0
C199 C 0.41496 0.21804 0.85075 0.0
H200 H 0.42187 0.20305 0.89123 0.0
H201 H 0.5078 0.24267 0.82959 0.0
O202 O 0.33316 0.02874 0.68167 0.0
C203 C 0.47444 0.09231 0.75183 0.0
Co204 Co 0.64977 0.70626 0.90785 0.0
Co205 Co 0.57588 0.7115 0.83028 0.0
C206 C 0.65025 0.7031 0.7716 0.0
O207 O 0.6696 0.70489 0.82224 0.0
O208 O 0.61428 0.70397 0.76997 0.0
C209 C 0.73643 0.72593 0.95441 0.0
O210 O 0.75149 0.75446 0.90854 0.0
C211 C 0.5318 0.72661 0.72681 0.0
C212 C 0.47742 0.73147 0.77152 0.0
C213 C 0.49736 0.7344 0.71508 0.0
N214 N 0.53291 0.72002 0.78755 0.0
N215 N 0.49946 0.72156 0.81388 0.0
C216 C 0.56386 0.72637 0.68088 0.0
H217 H 0.56273 0.69397 0.68321 0.0
H218 H 0.59788 0.75303 0.69257 0.0
H219 H 0.55595 0.73103 0.63289 0.0
C220 C 0.673 0.80175 0.93176 0.0
N221 N 0.6439 0.75922 0.915 0.0
N222 N 0.61185 0.75954 0.88319 0.0
C223 C 0.61953 0.80143 0.87891 0.0
C224 C 0.65891 0.82992 0.90811 0.0
C225 C 0.71695 0.8166 0.96082 0.0
H226 H 0.71493 0.7906 0.99237 0.0
H227 H 0.74171 0.82317 0.92417 0.0
H228 H 0.72803 0.84795 0.98684 0.0
O229 O 0.59244 0.64639 0.91812 0.0
O230 O 0.54122 0.65588 0.87202 0.0
H231 H 0.56006 0.79887 0.84909 0.0
H232 H 0.6085 0.85178 0.83657 0.0
C233 C 0.59536 0.81541 0.83572 0.0
H234 H 0.59833 0.80545 0.78812 0.0
H235 H 0.49276 0.71761 0.86117 0.0
O236 O 0.69492 0.70463 0.96508 0.0
C237 C 0.55233 0.63172 0.90158 0.0
Co238 Co 0.94902 0.64173 0.07484 0.0
Co239 Co 0.86984 0.57319 0.99273 0.0
C240 C 0.95281 0.64402 0.9361 0.0
O241 O 0.97173 0.6575 0.98834 0.0
O242 O 0.91263 0.6133 0.93167 0.0
C243 C 0.01861 0.72874 0.11472 0.0
O244 O 1.0062 0.7424 0.06625 0.0
C245 C 0.80747 0.52686 0.89343 0.0
C246 C 0.75021 0.47222 0.94159 0.0
C247 C 0.7651 0.49169 0.88431 0.0
N248 N 0.81729 0.52888 0.95347 0.0
N249 N 0.78351 0.49526 0.98186 0.0
C250 C 0.83786 0.55885 0.84575 0.0
H251 H 0.86975 0.55923 0.84675 0.0
H252 H 0.84426 0.59274 0.8567 0.0
H253 H 0.82416 0.54956 0.79844 0.0
C254 C 0.88091 0.67112 0.09392 0.0
N255 N 0.89207 0.63992 0.07977 0.0
N256 N 0.85856 0.60762 0.04962 0.0
C257 C 0.82546 0.61672 0.04517 0.0
C258 C 0.83883 0.658 0.07072 0.0
C259 C 0.91232 0.71629 0.11838 0.0
H260 H 0.93579 0.71461 0.15103 0.0
H261 H 0.93082 0.73853 0.07933 0.0
H262 H 0.89392 0.7304 0.14218 0.0
O263 O 0.94653 0.58292 0.09403 0.0
O264 O 0.89459 0.54005 0.02765 0.0
H265 H 0.76793 0.55647 0.01762 0.0
H266 H 0.7628 0.60479 0.00778 0.0
C267 C 0.78604 0.59188 0.00415 0.0
H268 H 0.79729 0.59491 0.95557 0.0
H269 H 0.7825 0.48914 0.02918 0.0
O270 O 0.9968 0.6878 0.12947 0.0
C271 C 0.92389 0.54571 0.06646 0.0
Co272 Co 0.31347 0.94385 0.24123 0.0
Co273 Co 0.30537 0.86555 0.15841 0.0
C274 C 0.31855 0.95038 0.10381 0.0
O275 O 0.32077 0.9686 0.15592 0.0
O276 O 0.31188 0.91105 0.0994 0.0
C277 C 0.32627 0.02634 0.29209 0.0
O278 O 0.34908 0.04227 0.24093 0.0
C279 C 0.28259 0.8039 0.05621 0.0
C280 C 0.30345 0.75725 0.09015 0.0
C281 C 0.28631 0.76766 0.0395 0.0
N282 N 0.29679 0.81478 0.11447 0.0
N283 N 0.30905 0.78671 0.13475 0.0
C284 C 0.26733 0.82878 0.01641 0.0
H285 H 0.29664 0.85772 -0.00445 0.0
H286 H 0.24924 0.84122 0.0446 0.0
H287 H 0.24567 0.8074 0.97859 0.0
C288 C 0.21733 0.87641 0.25212 0.0
N289 N 0.25967 0.88669 0.24191 0.0
N290 N 0.25912 0.85279 0.21401 0.0
C291 C 0.21712 0.81922 0.20936 0.0
C292 C 0.18883 0.8334 0.23069 0.0
C293 C 0.2046 0.91024 0.26874 0.0
H294 H 0.21921 0.93779 0.23469 0.0
H295 H 0.1681 0.89547 0.26989 0.0
H296 H 0.21851 0.92445 0.31471 0.0
O297 O 0.37032 0.94209 0.26061 0.0
O298 O 0.36164 0.88837 0.19706 0.0
H299 H 0.16923 0.7515 0.18605 0.0
H300 H 0.20383 0.78447 0.12333 0.0
C301 C 0.20335 0.77753 0.17334 0.0
H302 H 0.22631 0.76494 0.18258 0.0
H303 H 0.32242 0.78845 0.17844 0.0
O304 O 0.30743 0.98474 0.30231 0.0
C305 C 0.38482 0.91849 0.23551 0.0
Co306 Co 0.38038 0.31044 0.41347 0.0
Co307 Co 0.44882 0.29914 0.33049 0.0
C308 C 0.3792 0.31245 0.27427 0.0
O309 O 0.36511 0.31728 0.32651 0.0
O310 O 0.41012 0.3034 0.26971 0.0
C311 C 0.29358 0.2946 0.45173 0.0
O312 O 0.28033 0.26963 0.40197 0.0
C313 C 0.49647 0.28525 0.23062 0.0
C314 C 0.54623 0.27506 0.27927 0.0
C315 C 0.52964 0.27517 0.22132 0.0
N316 N 0.4927 0.29007 0.29128 0.0
N317 N 0.52362 0.28556 0.3201 0.0
C318 C 0.46759 0.28857 0.18234 0.0
H319 H 0.46804 0.32046 0.18789 0.0
H320 H 0.43308 0.26097 0.1884 0.0
H321 H 0.47904 0.28734 0.13493 0.0
C322 C 0.35146 0.21309 0.4348 0.0
N323 N 0.3821 0.25513 0.41816 0.0
N324 N 0.413 0.253 0.38565 0.0
C325 C 0.40311 0.21045 0.38069 0.0
C326 C 0.36351 0.18341 0.41051 0.0
C327 C 0.30812 0.20054 0.46441 0.0
H328 H 0.31233 0.22649 0.49783 0.0
H329 H 0.28419 0.19743 0.42842 0.0
H330 H 0.29458 0.16805 0.48827 0.0
O331 O 0.43926 0.36668 0.43246 0.0
O332 O 0.48214 0.35659 0.36715 0.0
H333 H 0.46012 0.20827 0.34994 0.0
H334 H 0.40943 0.15825 0.33413 0.0
C335 C 0.42528 0.19493 0.33594 0.0
H336 H 0.42425 0.20729 0.28918 0.0
H337 H 0.5279 0.28757 0.36792 0.0
O338 O 0.33402 0.31233 0.46796 0.0
C339 C 0.47656 0.38061 0.40567 0.0
Co340 Co 0.07744 0.37397 0.57164 0.0
Co341 Co 0.15677 0.45016 0.49855 0.0
C342 C 0.07342 0.37399 0.43792 0.0
O343 O 0.05574 0.35321 0.48771 0.0
O344 O 0.11001 0.41072 0.43764 0.0
C345 C 0.99498 0.30812 0.62157 0.0
O346 O 0.98079 0.3183 0.57152 0.0
C347 C 0.21795 0.49116 0.39594 0.0
C348 C 0.27422 0.55031 0.43846 0.0
C349 C 0.25964 0.5268 0.38373 0.0
N350 N 0.20827 0.49297 0.45536 0.0
N351 N 0.24153 0.52899 0.48027 0.0
C352 C 0.18781 0.45537 0.35208 0.0
H353 H 0.17995 0.42248 0.37065 0.0
H354 H 0.20222 0.4598 0.30522 0.0
H355 H 0.15648 0.45598 0.34791 0.0
C356 C 0.14572 0.34761 0.58327 0.0
N357 N 0.13523 0.3799 0.57631 0.0
N358 N 0.16947 0.415 0.55215 0.0
C359 C 0.20351 0.40727 0.54739 0.0
C360 C 0.18931 0.36365 0.56401 0.0
C361 C 0.11181 0.29995 0.59382 0.0
H362 H 0.08639 0.28867 0.55692 0.0
H363 H 0.12698 0.27852 0.59426 0.0
H364 H 0.0949 0.29678 0.63853 0.0
O365 O 0.07317 0.4305 0.58149 0.0
O366 O 0.13509 0.48425 0.54023 0.0
H367 H 0.2708 0.42694 0.52244 0.0
H368 H 0.23878 0.43481 0.46395 0.0
C369 C 0.24569 0.43701 0.51407 0.0
H370 H 0.25915 0.47168 0.52986 0.0
H371 H 0.24257 0.53818 0.52641 0.0
O372 O 0.03634 0.32784 0.63229 0.0
C373 C 0.09839 0.47133 0.56693 0.0
Co374 Co 0.7126 0.0715 0.7399 0.0
Co375 Co 0.71909 0.14738 0.65312 0.0
C376 C 0.70815 0.06335 0.60145 0.0
O377 O 0.70607 0.04635 0.65448 0.0
O378 O 0.71371 0.10209 0.59501 0.0
C379 C 0.69551 0.98887 0.79329 0.0
O380 O 0.66826 0.97331 0.74619 0.0
C381 C 0.73904 0.20841 0.55073 0.0
C382 C 0.71835 0.25473 0.58701 0.0
C383 C 0.7347 0.24445 0.53521 0.0
N384 N 0.726 0.19754 0.60944 0.0
N385 N 0.7138 0.22539 0.63109 0.0
C386 C 0.75375 0.18366 0.50948 0.0
H387 H 0.72413 0.15426 0.49013 0.0
H388 H 0.77295 0.17188 0.5362 0.0
H389 H 0.77418 0.20487 0.47061 0.0
C390 C 0.80754 0.14251 0.75706 0.0
N391 N 0.76538 0.12956 0.74075 0.0
N392 N 0.7657 0.16171 0.70829 0.0
C393 C 0.8072 0.19634 0.705 0.0
C394 C 0.83553 0.18516 0.73402 0.0
C395 C 0.82144 0.11174 0.78353 0.0
H396 H 0.80458 0.0989 0.82854 0.0
H397 H 0.81079 0.08286 0.7522 0.0
H398 H 0.85784 0.12876 0.79015 0.0
O399 O 0.65531 0.07216 0.75927 0.0
O400 O 0.66288 0.12376 0.69265 0.0
H401 H 0.79826 0.24927 0.67143 0.0
H402 H 0.85518 0.26281 0.67497 0.0
C403 C 0.82096 0.23606 0.66452 0.0
H404 H 0.81961 0.22624 0.61551 0.0
H405 H 0.70132 0.22366 0.67549 0.0
O406 O 0.71897 0.03076 0.80055 0.0
C407 C 0.64024 0.09466 0.73261 0.0
C408 C 0.29104 0.4966 0.30971 0.0
C409 C 0.28554 0.53253 0.32707 0.0
C410 C 0.3062 0.5623 0.22249 0.0
C411 C 0.30018 0.52061 0.20277 0.0
N412 N 0.2719 0.44305 0.22905 0.0
N413 N 0.28779 0.60081 0.30023 0.0
C414 C 0.28916 0.48633 0.2467 0.0
C415 C 0.29377 0.5663 0.28379 0.0
N416 N 0.29502 0.47074 0.35352 0.0
N417 N 0.32391 0.59777 0.18324 0.0
H418 H 0.27998 0.60515 0.34527 0.0
H419 H 0.28844 0.62365 0.26856 0.0
H420 H 0.33431 0.59605 0.13863 0.0
H421 H 0.33215 0.62971 0.197 0.0
H422 H 0.30075 0.44485 0.3424 0.0
H423 H 0.29798 0.47915 0.40024 0.0
H424 H 0.2606 0.41709 0.26084 0.0
H425 H 0.2632 0.43242 0.18359 0.0
C426 C 0.72744 0.24904 0.36339 0.0
C427 C 0.76845 0.28772 0.35054 0.0
C428 C 0.78234 0.30421 0.46063 0.0
C429 C 0.74219 0.26463 0.47347 0.0
N430 N 0.6708 0.20659 0.43965 0.0
N431 N 0.82851 0.35846 0.3837 0.0
C432 C 0.71267 0.2396 0.42546 0.0
C433 C 0.79369 0.31757 0.3983 0.0
N434 N 0.70413 0.21997 0.317 0.0
N435 N 0.81069 0.32744 0.50764 0.0
H436 H 0.83729 0.36904 0.33812 0.0
H437 H 0.84601 0.38324 0.4162 0.0
H438 H 0.80277 0.31922 0.55404 0.0
H439 H 0.84288 0.35338 0.50065 0.0
H440 H 0.67686 0.18859 0.32464 0.0
H441 H 0.71358 0.22606 0.27072 0.0
H442 H 0.64633 0.18952 0.40672 0.0
H443 H 0.65932 0.19917 0.48508 0.0
C444 C 0.45828 0.74157 0.5545 0.0
C445 C 0.49974 0.77521 0.53118 0.0
C446 C 0.52841 0.79247 0.63577 0.0
C447 C 0.49152 0.75306 0.65706 0.0
N448 N 0.42058 0.68844 0.63704 0.0
N449 N 0.57853 0.82162 0.55041 0.0
C450 C 0.45576 0.72724 0.61676 0.0
C451 C 0.53608 0.79817 0.57195 0.0
N452 N 0.42162 0.72377 0.51775 0.0
N453 N 0.55733 0.82308 0.67662 0.0
H454 H 0.58675 0.82185 0.50406 0.0
H455 H 0.60587 0.83586 0.57974 0.0
H456 H 0.55121 0.81982 0.72406 0.0
H457 H 0.5839 0.85351 0.6626 0.0
H458 H 0.38993 0.70178 0.53407 0.0
H459 H 0.4224 0.7341 0.47232 0.0
H460 H 0.3959 0.66577 0.60779 0.0
H461 H 0.41743 0.67804 0.68287 0.0
C462 C 0.71957 0.45438 0.72385 0.0
C463 C 0.72725 0.49631 0.70257 0.0
C464 C 0.73503 0.52168 0.80885 0.0
C465 C 0.73875 0.4851 0.82813 0.0
N466 N 0.7342 0.41527 0.80498 0.0
N467 N 0.75668 0.57442 0.72664 0.0
C468 C 0.73019 0.4505 0.78615 0.0
C469 C 0.7382 0.53125 0.74547 0.0
N470 N 0.7021 0.41861 0.68508 0.0
N471 N 0.73218 0.54911 0.85136 0.0
H472 H 0.76621 0.58441 0.68114 0.0
H473 H 0.76808 0.60087 0.75764 0.0
H474 H 0.7295 0.54199 0.89852 0.0
H475 H 0.72755 0.57547 0.83895 0.0
H476 H 0.69272 0.38657 0.69973 0.0
H477 H 0.6932 0.42034 0.63964 0.0
H478 H 0.73332 0.39155 0.77468 0.0
H479 H 0.74041 0.41113 0.8509 0.0
C480 C 0.22617 0.69447 0.90292 0.0
C481 C 0.25189 0.72356 0.85472 0.0
C482 C 0.30757 0.77236 0.92917 0.0
C483 C 0.27804 0.74769 0.97749 0.0
N484 N 0.20908 0.68577 0.01235 0.0
N485 N 0.3164 0.79079 0.82027 0.0
C486 C 0.23758 0.70835 0.96509 0.0
C487 C 0.29289 0.76232 0.86716 0.0
N488 N 0.19092 0.65371 0.88893 0.0
N489 N 0.34948 0.80548 0.94294 0.0
H490 H 0.30706 0.78412 0.77402 0.0
H491 H 0.34368 0.82223 0.82736 0.0
H492 H 0.36099 0.81341 0.98824 0.0
H493 H 0.37396 0.8222 0.90982 0.0
H494 H 0.17311 0.62935 0.92182 0.0
H495 H 0.18194 0.64273 0.84355 0.0
H496 H 0.17675 0.66007 0.00569 0.0
H497 H 0.217 0.69436 0.05866 0.0
C498 C 0.49057 0.21323 0.07751 0.0
C499 C 0.52769 0.23495 0.03759 0.0
C500 C 0.57219 0.28035 0.12466 0.0
C501 C 0.5354 0.25568 0.16396 0.0
N502 N 0.467 0.18766 0.18141 0.0
N503 N 0.6067 0.28286 0.0261 0.0
C504 C 0.49752 0.21773 0.14149 0.0
C505 C 0.56965 0.26654 0.06206 0.0
N506 N 0.44834 0.1923 0.05508 0.0
N507 N 0.60847 0.31765 0.14628 0.0
H508 H 0.60587 0.2728 0.98047 0.0
H509 H 0.6385 0.30322 0.04321 0.0
H510 H 0.61151 0.32738 0.19247 0.0
H511 H 0.63428 0.33975 0.11791 0.0
H512 H 0.42063 0.17912 0.08386 0.0
H513 H 0.44101 0.19329 0.00867 0.0
H514 H 0.43952 0.15823 0.1665 0.0
H515 H 0.47244 0.19012 0.22899 0.0
C516 C 0.31915 0.25731 0.76542 0.0
C517 C 0.3016 0.24883 0.82656 0.0
C518 C 0.30575 0.18035 0.82789 0.0
C519 C 0.33172 0.19406 0.77352 0.0
N520 N 0.3632 0.24512 0.68894 0.0
N521 N 0.28721 0.20568 0.92068 0.0
C522 C 0.33804 0.23223 0.74139 0.0
C523 C 0.29634 0.21072 0.85878 0.0
N524 N 0.31713 0.28874 0.7301 0.0
N525 N 0.29235 0.13926 0.85195 0.0
H526 H 0.28512 0.22924 0.94788 0.0
H527 H 0.28744 0.18074 0.94698 0.0
H528 H 0.29979 0.11678 0.83098 0.0
H529 H 0.27019 0.12602 0.88874 0.0
H530 H 0.3274 0.295 0.68424 0.0
H531 H 0.30125 0.30576 0.74484 0.0
H532 H 0.37375 0.27545 0.66708 0.0
H533 H 0.37515 0.22588 0.6688 0.0
C534 C 0.12494 0.35524 0.90723 0.0
C535 C 0.14663 0.33209 0.92588 0.0
C536 C 0.08166 0.28224 0.98814 0.0
C537 C 0.06541 0.31214 0.98184 0.0
N538 N 0.0713 0.37748 0.93313 0.0
N539 N 0.14537 0.272 0.98256 0.0
C540 C 0.08616 0.34807 0.93929 0.0
C541 C 0.12431 0.29424 0.96447 0.0
N542 N 0.14263 0.38517 0.86009 0.0
N543 N 0.05626 0.24252 0.01726 0.0
H544 H 0.17617 0.27941 0.96514 0.0
H545 H 0.13341 0.24786 0.01699 0.0
H546 H 0.02467 0.23287 0.03408 0.0
H547 H 0.06447 0.2176 0.01909 0.0
H548 H 0.1269 0.40086 0.84033 0.0
H549 H 0.17119 0.3907 0.83683 0.0
H550 H 0.08833 0.40715 0.90869 0.0
H551 H 0.04321 0.37381 0.95535 0.0
C552 C 0.82736 0.12388 0.15349 0.0
C553 C 0.81955 0.13996 0.09745 0.0
C554 C 0.74576 0.07361 0.08969 0.0
C555 C 0.7518 0.06031 0.14914 0.0
N556 N 0.80177 0.06348 0.22769 0.0
N557 N 0.7784 0.12536 0.00355 0.0
C558 C 0.79399 0.08239 0.17753 0.0
C559 C 0.78111 0.11274 0.06232 0.0
N560 N 0.8654 0.14986 0.18572 0.0
N561 N 0.70556 0.05031 0.06136 0.0
H562 H 0.80429 0.15392 0.98358 0.0
H563 H 0.75273 0.10618 0.9732 0.0
H564 H 0.67977 0.02099 0.07972 0.0
H565 H 0.69717 0.06036 0.02084 0.0
H566 H 0.87086 0.14317 0.23066 0.0
H567 H 0.89124 0.17936 0.16795 0.0
H568 H 0.83272 0.07575 0.248 0.0
H569 H 0.77776 0.03289 0.24557 0.0
C570 C 0.67693 0.73941 0.26352 0.0
C571 C 0.71003 0.75429 0.31017 0.0
C572 C 0.72568 0.83086 0.29614 0.0
C573 C 0.68995 0.81528 0.25401 0.0
N574 N 0.64305 0.75984 0.1812 0.0
N575 N 0.77619 0.81521 0.35303 0.0
C576 C 0.66995 0.77123 0.23166 0.0
C577 C 0.73804 0.80055 0.32009 0.0
N578 N 0.64975 0.69504 0.25307 0.0
N579 N 0.74532 0.8736 0.31711 0.0
H580 H 0.78608 0.7935 0.37013 0.0
H581 H 0.79989 0.84866 0.35786 0.0
H582 H 0.73772 0.89682 0.29942 0.0
H583 H 0.76749 0.88538 0.35387 0.0
H584 H 0.62173 0.6823 0.22524 0.0
H585 H 0.65355 0.67048 0.27469 0.0
H586 H 0.62998 0.72926 0.15896 0.0
H587 H 0.6377 0.78309 0.15813 0.0
C588 C 0.94681 0.67754 0.42845 0.0
C589 C 0.9639 0.7073 0.47924 0.0
C590 C 0.90393 0.72428 0.46928 0.0
C591 C 0.88382 0.69025 0.42429 0.0
N592 N 0.89196 0.64619 0.34612 0.0
N593 N 0.9683 0.76964 0.53343 0.0
C594 C 0.90777 0.67129 0.39836 0.0
C595 C 0.9457 0.73453 0.49433 0.0
N596 N 0.9659 0.65303 0.41207 0.0
N597 N 0.88128 0.74391 0.49156 0.0
H598 H 0.99909 0.77761 0.55165 0.0
H599 H 0.95879 0.79296 0.54327 0.0
H600 H 0.85133 0.73784 0.47255 0.0
H601 H 0.89119 0.76488 0.52977 0.0
H602 H 0.95227 0.62716 0.38021 0.0
H603 H 0.99501 0.65763 0.43215 0.0
H604 H 0.90891 0.63355 0.32165 0.0
H605 H 0.8633 0.6416 0.32433 0.0
C606 C 0.23932 0.93145 0.67887 0.0
C607 C 0.28075 0.95446 0.64842 0.0
C608 C 0.25114 0.90147 0.56227 0.0
C609 C 0.21344 0.87386 0.59862 0.0
N610 N 0.16895 0.863 0.68921 0.0
N611 N 0.3257 0.9656 0.55858 0.0
C612 C 0.20621 0.88956 0.6556 0.0
C613 C 0.28624 0.94121 0.58859 0.0
N614 N 0.23202 0.94978 0.73026 0.0
N615 N 0.25335 0.88887 0.5032 0.0
H616 H 0.35101 0.99559 0.57608 0.0
H617 H 0.33393 0.95598 0.51746 0.0
H618 H 0.22764 0.85995 0.48375 0.0
H619 H 0.27844 0.90827 0.47212 0.0
H620 H 0.20146 0.93681 0.75214 0.0
H621 H 0.25591 0.98047 0.74795 0.0
H622 H 0.16412 0.86946 0.73464 0.0
H623 H 0.14314 0.83321 0.67218 0.0
C624 C 0.82831 0.699 0.98411 0.0
C625 C 0.82197 0.68733 0.04751 0.0
C626 C 0.76646 0.71107 0.05322 0.0
C627 C 0.76696 0.71435 0.98755 0.0
N628 N 0.7924 0.70067 0.89013 0.0
N629 N 0.78444 0.68123 0.14324 0.0
C630 C 0.79672 0.70605 0.95282 0.0
C631 C 0.7911 0.69347 0.08253 0.0
N632 N 0.86368 0.70167 0.95312 0.0
N633 N 0.74343 0.7257 0.08759 0.0
H634 H 0.80355 0.67034 0.16617 0.0
H635 H 0.75891 0.67995 0.16976 0.0
H636 H 0.72602 0.73969 0.06784 0.0
H637 H 0.74488 0.72774 0.13561 0.0
H638 H 0.87192 0.71371 0.90812 0.0
H639 H 0.88734 0.69632 0.97453 0.0
H640 H 0.81042 0.69007 0.86385 0.0
H641 H 0.76716 0.7011 0.86514 0.0
C642 C 0.06342 0.76207 0.21255 0.0
C643 C 0.06094 0.75972 0.14683 0.0
C644 C 0.13857 0.81902 0.14121 0.0
C645 C 0.14316 0.81538 0.20559 0.0
N646 N 0.11061 0.78269 0.30342 0.0
N647 N 0.10036 0.77967 0.04917 0.0
C648 C 0.10564 0.78691 0.2417 0.0
C649 C 0.09949 0.78691 0.11115 0.0
N650 N 0.02554 0.74168 0.24701 0.0
N651 N 0.17216 0.8525 0.10837 0.0
H652 H 0.07415 0.75384 0.02544 0.0
H653 H 0.12912 0.79576 0.02268 0.0
H654 H 0.20144 0.87658 0.12893 0.0
H655 H 0.169 0.85895 0.06223 0.0
H656 H 0.02494 0.74542 0.29468 0.0
H657 H 0.99414 0.72428 0.22732 0.0
H658 H 0.08573 0.7587 0.33118 0.0
H659 H 0.14066 0.80205 0.32616 0.0
C660 C 0.33913 0.06666 0.39458 0.0
C661 C 0.32057 0.05714 0.33426 0.0
C662 C 0.3125 0.12322 0.33781 0.0
C663 C 0.33516 0.13522 0.39525 0.0
N664 N 0.35703 0.11289 0.48688 0.0
N665 N 0.27545 0.06662 0.25906 0.0
C666 C 0.34352 0.10456 0.4268 0.0
C667 C 0.30235 0.08221 0.30964 0.0
N668 N 0.35524 0.04145 0.41915 0.0
N669 N 0.30393 0.15265 0.30788 0.0
H670 H 0.26721 0.03635 0.23825 0.0
H671 H 0.25796 0.08121 0.24169 0.0
H672 H 0.30958 0.18229 0.32789 0.0
H673 H 0.29315 0.14872 0.2623 0.0
H674 H 0.37343 0.04935 0.45987 0.0
H675 H 0.35195 0.01324 0.3973 0.0
H676 H 0.36092 0.09074 0.51477 0.0
H677 H 0.36039 0.14071 0.51025 0.0
C678 C 0.25522 0.30311 0.54648 0.0
C679 C 0.26358 0.30821 0.48176 0.0
C680 C 0.21085 0.33491 0.47186 0.0
C681 C 0.20868 0.33738 0.53709 0.0
N682 N 0.23008 0.32533 0.63749 0.0
N683 N 0.25549 0.33799 0.38478 0.0
C684 C 0.23095 0.32153 0.57479 0.0
C685 C 0.24273 0.32616 0.44479 0.0
N686 N 0.26906 0.2794 0.58057 0.0
N687 N 0.18258 0.34134 0.4356 0.0
H688 H 0.28081 0.33515 0.36367 0.0
H689 H 0.24449 0.35543 0.35804 0.0
H690 H 0.15866 0.34763 0.454 0.0
H691 H 0.17996 0.33597 0.38803 0.0
H692 H 0.25897 0.26973 0.62598 0.0
H693 H 0.28708 0.26577 0.56167 0.0
H694 H 0.24974 0.31912 0.66729 0.0
H695 H 0.21128 0.33706 0.65941 0.0
C696 C 0.93769 0.22836 0.63429 0.0
C697 C 0.96259 0.27105 0.66114 0.0
C698 C 0.91344 0.24541 0.75161 0.0
C699 C 0.88353 0.2069 0.71833 0.0
N700 N 0.86734 0.15975 0.62896 0.0
N701 N 0.97686 0.32026 0.74742 0.0
C702 C 0.89624 0.1972 0.66061 0.0
C703 C 0.95194 0.27929 0.72126 0.0
N704 N 0.95392 0.21784 0.5835 0.0
N705 N 0.90404 0.24972 0.8116 0.0
H706 H 1.00556 0.34536 0.72685 0.0
H707 H 0.96826 0.33012 0.78804 0.0
H708 H 0.87587 0.22497 0.83384 0.0
H709 H 0.92563 0.27533 0.84059 0.0
H710 H 0.93941 0.18606 0.56463 0.0
H711 H 0.98451 0.24009 0.56391 0.0
H712 H 0.87191 0.1538 0.58316 0.0
H713 H 0.83751 0.13528 0.64773 0.0
C714 C 0.68362 0.94756 0.89426 0.0
C715 C 0.701 0.95707 0.83325 0.0
C716 C 0.70745 0.89003 0.83335 0.0
C717 C 0.68592 0.8781 0.89176 0.0
N718 N 0.66561 0.90022 0.98533 0.0
N719 N 0.74294 0.94641 0.75385 0.0
C720 C 0.67854 0.9089 0.92498 0.0
C721 C 0.71757 0.93127 0.80603 0.0
N722 N 0.66962 0.97394 0.92111 0.0
N723 N 0.71518 0.86045 0.80202 0.0
H724 H 0.751 0.97674 0.73347 0.0
H725 H 0.75938 0.93135 0.73431 0.0
H726 H 0.70993 0.83083 0.82151 0.0
H727 H 0.72497 0.86424 0.75594 0.0
H728 H 0.65247 0.96661 0.96276 0.0
H729 H 0.67398 1.0029 0.90031 0.0
H730 H 0.6623 0.92228 0.01429 0.0
H731 H 0.66191 0.87199 0.00777 0.0
C732 C 0.30503 0.31389 0.14621 0.0
C733 C 0.33778 0.34249 0.1035 0.0
C734 C 0.39604 0.35507 0.17616 0.0
C735 C 0.36386 0.32321 0.21677 0.0
N736 N 0.28819 0.2664 0.23608 0.0
N737 N 0.41417 0.38134 0.07114 0.0
C738 C 0.31833 0.30088 0.20072 0.0
C739 C 0.3832 0.35994 0.11622 0.0
N740 N 0.26147 0.29976 0.13502 0.0
N741 N 0.43835 0.3828 0.19607 0.0
H742 H 0.4059 0.38517 0.02621 0.0
H743 H 0.44747 0.39112 0.07664 0.0
H744 H 0.44871 0.3825 0.24113 0.0
H745 H 0.46178 0.40945 0.17004 0.0
H746 H 0.23653 0.28303 0.16758 0.0
H747 H 0.25066 0.30703 0.09407 0.0
H748 H 0.25521 0.24623 0.22346 0.0
H749 H 0.29698 0.2555 0.27558 0.0
C750 C 0.02211 0.3144 0.28627 0.0
C751 C 1.00024 0.3377 0.26821 0.0
C752 C 0.02186 0.37962 0.36481 0.0
C753 C 0.0472 0.35964 0.38051 0.0
N754 N 0.07559 0.31127 0.35465 0.0
N755 N 0.98955 0.4006 0.28247 0.0
C756 C 0.04874 0.32806 0.3406 0.0
C757 C 1.00322 0.37278 0.30518 0.0
N758 N 0.01577 0.27812 0.25337 0.0
N759 N 0.01402 0.40375 0.40772 0.0
H760 H 0.97737 0.39792 0.23774 0.0
H761 H 0.99492 0.42923 0.30543 0.0
H762 H 0.02559 0.40796 0.45301 0.0
H763 H 0.99216 0.41544 0.40038 0.0
H764 H 0.02703 0.25698 0.26779 0.0
H765 H 0.99644 0.2672 0.21355 0.0
H766 H 0.08207 0.29196 0.32431 0.0
H767 H 0.09342 0.31886 0.39574 0.0
C768 C 0.64109 1.00024 0.46312 0.0
C769 C 0.67092 0.99052 0.43182 0.0
C770 C 0.72681 0.02963 0.51187 0.0
C771 C 0.69517 0.03517 0.54591 0.0
N772 N 0.62014 0.01964 0.55971 0.0
N773 N 0.74047 0.9918 0.4275 0.0
C774 C 0.65167 0.01865 0.52318 0.0
C775 C 0.71351 1.00425 0.45628 0.0
N776 N 0.60316 0.99304 0.43445 0.0
N777 N 0.76958 0.04935 0.53209 0.0
H778 H 0.73201 0.97426 0.38591 0.0
H779 H 0.76993 0.99659 0.44638 0.0
H780 H 0.77979 0.06686 0.57364 0.0
H781 H 0.79535 0.05061 0.50623 0.0
H782 H 0.58227 1.00359 0.45239 0.0
H783 H 0.59471 0.98038 0.38969 0.0
H784 H 0.5867 1.00368 0.54825 0.0
H785 H 0.62658 0.03294 0.60423 0.0
C786 C 0.70854 0.71297 0.61821 0.0
C787 C 0.68425 0.66805 0.59852 0.0
C788 C 0.64373 0.64672 0.69601 0.0
C789 C 0.66502 0.69184 0.71401 0.0
N790 N 0.71303 0.76913 0.68962 0.0
N791 N 0.61973 0.59545 0.61041 0.0
C792 C 0.69601 0.72549 0.67418 0.0
C793 C 0.64899 0.63595 0.63493 0.0
N794 N 0.7444 0.74304 0.585 0.0
N795 N 0.61969 0.61395 0.73788 0.0
H796 H 0.62159 0.58704 0.56462 0.0
H797 H 0.59115 0.57224 0.63335 0.0
H798 H 0.61679 0.62057 0.78413 0.0
H799 H 0.60684 0.58031 0.72834 0.0
H800 H 0.76619 0.77512 0.6004 0.0
H801 H 0.75396 0.73497 0.54354 0.0
H802 H 0.73226 0.79526 0.65973 0.0
H803 H 0.70548 0.77903 0.73123 0.0
C804 C 0.03311 0.7198 0.81211 0.0
C805 C 0.02691 0.68776 0.76674 0.0
C806 C 0.97696 0.62813 0.83543 0.0
C807 C 0.97914 0.65997 0.87852 0.0
N808 N 1.00301 0.73651 0.90268 0.0
N809 N 0.98418 0.61258 0.72881 0.0
C810 C 1.00554 0.70607 0.86555 0.0
C811 C 0.99574 0.64234 0.77619 0.0
N812 N 0.06551 0.76305 0.80439 0.0
N813 N 0.95981 0.58466 0.85231 0.0
H814 H 0.99703 0.62168 0.68431 0.0
H815 H 0.95849 0.57977 0.73226 0.0
H816 H 0.94873 0.57305 0.8969 0.0
H817 H 0.96147 0.56121 0.82415 0.0
H818 H 0.07488 0.78695 0.83897 0.0
H819 H 0.08481 0.77436 0.76444 0.0
H820 H 0.01854 0.77026 0.89235 0.0
H821 H 0.98201 0.7275 0.94087 0.0
C822 C 0.37036 0.98541 0.01593 0.0
C823 C 0.3311 0.9772 0.04686 0.0
C824 C 0.31639 0.01741 0.96609 0.0
C825 C 0.3539 0.02261 0.93332 0.0
N826 N 0.41178 1.00473 0.92017 0.0
N827 N 0.26339 0.9797 0.04876 0.0
C828 C 0.3793 1.00432 0.95611 0.0
C829 C 0.30308 0.99165 0.02128 0.0
N830 N 0.40023 0.97711 0.04506 0.0
N831 N 0.29437 0.03806 0.94524 0.0
H832 H 0.25311 0.96145 0.08968 0.0
H833 H 0.23941 0.98524 0.02905 0.0
H834 H 0.30238 0.05565 0.90373 0.0
H835 H 0.26987 0.03982 0.97045 0.0
H836 H 0.43157 0.98686 0.02749 0.0
H837 H 0.39562 0.96439 0.08979 0.0
H838 H 0.4283 0.98776 0.93159 0.0
H839 H 0.41945 0.0186 0.876 0.0
C840 C 0.49535 0.5609 0.85193 0.0
C841 C 0.51808 0.58382 0.90667 0.0
C842 C 0.46632 0.51928 0.96784 0.0
C843 C 0.43898 0.50062 0.9148 0.0
N844 N 0.42655 0.50457 0.80619 0.0
N845 N 0.52435 0.58543 0.01753 0.0
C846 C 0.45362 0.52117 0.85649 0.0
C847 C 0.50388 0.56284 0.96485 0.0
N848 N 0.51383 0.57719 0.79539 0.0
N849 N 0.45628 0.49506 0.0211 0.0
H850 H 0.55213 0.61716 0.01714 0.0
H851 H 0.5121 0.574 0.0617 0.0
H852 H 0.42912 0.46307 0.02472 0.0
H853 H 0.47697 0.50481 0.0595 0.0
H854 H 0.50141 0.55973 0.7543 0.0
H855 H 0.544 0.60646 0.79 0.0
H856 H 0.43296 0.52133 0.76424 0.0
H857 H 0.39601 0.47532 0.80743 0.0
C858 C 0.8918 0.42573 0.06593 0.0
C859 C 0.93274 0.4266 0.06842 0.0
C860 C 0.97095 0.50836 0.0705 0.0
C861 C 0.92943 0.50644 0.07758 0.0
N862 N 0.85135 0.46135 0.09947 0.0
N863 N 1.01192 0.46943 0.08284 0.0
C864 C 0.8902 0.46443 0.08076 0.0
C865 C 0.97267 0.46814 0.07324 0.0
N866 N 0.85424 0.38768 0.04902 0.0
N867 N 1.00836 0.5479 0.05858 0.0
H868 H 0.01469 0.44098 0.0842 0.0
H869 H 0.0411 0.49858 0.09364 0.0
H870 H 1.00872 0.57796 0.05592 0.0
H871 H 0.03835 0.55022 0.0465 0.0
H872 H 0.82407 0.38631 0.0418 0.0
H873 H 0.85461 0.35901 0.03566 0.0
H874 H 0.82258 0.43106 0.10726 0.0
H875 H 0.84937 0.48893 0.11407 0.0
C876 C 0.47 0.88396 0.24012 0.0
C877 C 0.51083 0.92456 0.23848 0.0
C878 C 0.46924 0.96464 0.23859 0.0
C879 C 0.42917 0.92386 0.2488 0.0
N880 N 0.39475 0.8466 0.27735 0.0
N881 N 0.54929 1.00459 0.24791 0.0
C882 C 0.43081 0.8842 0.25557 0.0
C883 C 0.5106 0.96537 0.2409 0.0
N884 N 0.4685 0.84498 0.22566 0.0
N885 N 0.46806 1.0022 0.22413 0.0
H886 H 0.5801 1.00672 0.24975 0.0
H887 H 0.55035 0.03458 0.25666 0.0
H888 H 0.43883 1.00331 0.22229 0.0
H889 H 0.49589 0.0314 0.20956 0.0
H890 H 0.43892 0.8149 0.22141 0.0
H891 H 0.49638 0.84377 0.21096 0.0
H892 H 0.39544 0.81769 0.28769 0.0
H893 H 0.36592 0.84612 0.29155 0.0
C894 C 0.51495 0.46526 0.40721 0.0
C895 C 0.51595 0.42528 0.41694 0.0
C896 C 0.59654 0.46686 0.40663 0.0
C897 C 0.59648 0.50757 0.40564 0.0
N898 N 0.55478 0.54557 0.41654 0.0
N899 N 0.55925 0.39118 0.44311 0.0
C900 C 0.55544 0.50693 0.409 0.0
C901 C 0.55734 0.42723 0.4222 0.0
N902 N 0.47603 0.46369 0.39364 0.0
N903 N 0.63415 0.46599 0.39176 0.0
H904 H 0.53117 0.36209 0.45768 0.0
H905 H 0.58897 0.3921 0.45251 0.0
H906 H 0.66311 0.49431 0.37744 0.0
H907 H 0.63492 0.43657 0.38691 0.0
H908 H 0.47444 0.49147 0.37945 0.0
H909 H 0.44575 0.43421 0.39188 0.0
H910 H 0.52592 0.54633 0.42617 0.0
H911 H 0.58335 0.57666 0.4179 0.0
C912 C 0.08447 0.56828 0.51878 0.0
C913 C 0.07605 0.58181 0.57635 0.0
C914 C 0.07244 0.51665 0.62708 0.0
C915 C 0.08286 0.50418 0.57001 0.0
N916 N 0.08529 0.50998 0.45861 0.0
N917 N 0.04914 0.56282 0.68073 0.0
C918 C 0.08423 0.52731 0.51487 0.0
C919 C 0.06548 0.55365 0.62888 0.0
N920 N 0.09568 0.59586 0.46885 0.0
N921 N 0.07217 0.49525 0.68011 0.0
H922 H 0.04413 0.5899 0.68325 0.0
H923 H 0.03686 0.54165 0.71865 0.0
H924 H 0.07677 0.46787 0.68048 0.0
H925 H 0.07015 0.50622 0.72411 0.0
H926 H 0.10804 0.59071 0.42778 0.0
H927 H 0.09498 0.62546 0.46959 0.0
H928 H 0.08161 0.52259 0.41686 0.0
H929 H 0.08584 0.48047 0.45373 0.0
C930 C 0.55598 0.04892 0.73811 0.0
C931 C 0.59621 0.08976 0.74667 0.0
C932 C 0.5556 0.12983 0.73822 0.0
C933 C 0.51473 0.0893 0.73819 0.0
N934 N 0.47602 0.0094 0.74926 0.0
N935 N 0.63141 0.16753 0.77278 0.0
C936 C 0.51475 0.04842 0.74111 0.0
C937 C 0.59492 0.12966 0.75262 0.0
N938 N 0.55689 0.01104 0.72469 0.0
N939 N 0.55694 0.16867 0.72344 0.0
H940 H 0.66039 0.1681 0.78624 0.0
H941 H 0.63106 0.1967 0.78258 0.0
H942 H 0.52883 0.16975 0.7098 0.0
H943 H 0.58646 0.19866 0.71795 0.0
H944 H 0.52887 0.98162 0.71126 0.0
H945 H 0.58608 0.00983 0.72267 0.0
H946 H 0.47484 0.97943 0.75849 0.0
H947 H 0.4453 1.00747 0.75134 0.0
loop_
_geom_bond_atom_site_label_1
_geom_bond_atom_site_label_2
_geom_bond_distance
_geom_bond_site_symmetry_2
_ccdc_geom_bond_type
Co0 O3 1.970 1_556 S
Co0 N17 1.989 . S
Co0 O25 1.967 . S
Co0 O32 1.920 . S
Co1 O4 1.966 . S
Co1 N10 2.022 . S
Co1 N18 1.993 1_554 S
Co1 O26 1.941 1_554 S
C2 O3 1.258 . S
C2 O4 1.263 . S
O3 Co0 1.970 1_554 S
O3 C2 1.258 . S
O4 Co1 1.966 . S
O4 C2 1.263 . S
C5 O6 1.235 . S
C5 O32 1.289 . S
O6 C5 1.235 . S
C7 C9 1.400 . S
C7 N10 1.351 . S
C7 C12 1.501 . S
C8 C9 1.387 . S
C8 N11 1.341 . S
C9 C7 1.400 . S
C9 C8 1.387 . S
N10 Co1 2.022 . S
N10 C7 1.351 . S
N10 N11 1.365 . S
N11 C8 1.341 . S
N11 N10 1.365 . S
N11 H31 0.862 . S
C12 C7 1.501 . S
C12 H13 0.961 . S
C12 H14 0.961 . S
C12 H15 0.960 . S
H13 C12 0.961 . S
H14 C12 0.961 . S
H15 C12 0.960 . S
C16 N17 1.342 . S
C16 C20 1.401 . S
C16 C21 1.499 . S
N17 Co0 1.989 . S
N17 C16 1.342 . S
N17 N18 1.388 . S
N18 Co1 1.993 1_556 S
N18 N17 1.388 . S
N18 C19 1.346 . S
C19 N18 1.346 . S
C19 C20 1.396 . S
C19 C29 1.510 1_556 S
C20 C16 1.401 . S
C20 C19 1.396 . S
C21 C16 1.499 . S
C21 H22 0.959 . S
C21 H23 0.960 . S
C21 H24 0.961 . S
H22 C21 0.959 . S
H23 C21 0.960 . S
H24 C21 0.961 . S
O25 Co0 1.967 . S
O25 C33 1.258 . S
O26 Co1 1.941 1_556 S
O26 C33 1.266 . S
H27 C29 0.959 . S
H28 C29 0.961 . S
C29 C19 1.510 1_554 S
C29 H27 0.959 . S
C29 H28 0.961 . S
C29 H30 0.960 . S
H30 C29 0.960 . S
H31 N11 0.862 . S
O32 Co0 1.920 . S
O32 C5 1.289 . S
C33 O25 1.258 . S
C33 O26 1.266 . S
Co34 O37 1.970 . S
Co34 N51 1.989 . S
Co34 O59 1.967 . S
Co34 O66 1.920 1_554 S
Co35 O38 1.966 . S
Co35 N44 2.022 . S
Co35 N52 1.993 . S
Co35 O60 1.941 . S
C36 O37 1.258 . S
C36 O38 1.263 . S
O37 Co34 1.970 . S
O37 C36 1.258 . S
O38 Co35 1.966 . S
O38 C36 1.263 . S
C39 O40 1.235 1_556 S
C39 O66 1.289 . S
O40 C39 1.235 1_554 S
C41 C43 1.400 . S
C41 N44 1.351 . S
C41 C46 1.501 . S
C42 C43 1.387 . S
C42 N45 1.341 . S
C43 C41 1.400 . S
C43 C42 1.387 . S
N44 Co35 2.022 . S
N44 C41 1.351 . S
N44 N45 1.365 . S
N45 C42 1.341 . S
N45 N44 1.365 . S
N45 H65 0.862 . S
C46 C41 1.501 . S
C46 H47 0.961 . S
C46 H48 0.961 . S
C46 H49 0.960 . S
H47 C46 0.961 . S
H48 C46 0.961 . S
H49 C46 0.960 . S
C50 N51 1.342 . S
C50 C54 1.401 . S
C50 C55 1.499 1_554 S
N51 Co34 1.989 . S
N51 C50 1.342 . S
N51 N52 1.388 . S
N52 Co35 1.993 . S
N52 N51 1.388 . S
N52 C53 1.346 . S
C53 N52 1.346 . S
C53 C54 1.396 . S
C53 C63 1.510 . S
C54 C50 1.401 . S
C54 C53 1.396 . S
C55 C50 1.499 1_556 S
C55 H56 0.959 . S
C55 H57 0.960 . S
C55 H58 0.961 . S
H56 C55 0.959 . S
H57 C55 0.960 . S
H58 C55 0.961 . S
O59 Co34 1.967 . S
O59 C67 1.258 . S
O60 Co35 1.941 . S
O60 C67 1.266 . S
H61 C63 0.959 . S
H62 C63 0.961 . S
C63 C53 1.510 . S
C63 H61 0.959 . S
C63 H62 0.961 . S
C63 H64 0.960 . S
H64 C63 0.960 . S
H65 N45 0.862 . S
O66 Co34 1.920 1_556 S
O66 C39 1.289 . S
C67 O59 1.258 . S
C67 O60 1.266 . S
Co68 O71 1.970 . S
Co68 N85 1.989 . S
Co68 O93 1.967 . S
Co68 O100 1.920 . S
Co69 O72 1.966 . S
Co69 N78 2.022 . S
Co69 N86 1.993 . S
Co69 O94 1.941 . S
C70 O71 1.258 . S
C70 O72 1.263 . S
O71 Co68 1.970 . S
O71 C70 1.258 . S
O72 Co69 1.966 . S
O72 C70 1.263 . S
C73 O74 1.235 . S
C73 O100 1.289 . S
O74 C73 1.235 . S
C75 C77 1.400 . S
C75 N78 1.351 . S
C75 C80 1.501 . S
C76 C77 1.387 . S
C76 N79 1.341 . S
C77 C75 1.400 . S
C77 C76 1.387 . S
N78 Co69 2.022 . S
N78 C75 1.351 . S
N78 N79 1.365 . S
N79 C76 1.341 . S
N79 N78 1.365 . S
N79 H99 0.862 . S
C80 C75 1.501 . S
C80 H81 0.961 . S
C80 H82 0.961 . S
C80 H83 0.960 . S
H81 C80 0.961 . S
H82 C80 0.961 . S
H83 C80 0.960 . S
C84 N85 1.342 . S
C84 C88 1.401 . S
C84 C89 1.499 . S
N85 Co68 1.989 . S
N85 C84 1.342 . S
N85 N86 1.388 . S
N86 Co69 1.993 . S
N86 N85 1.388 . S
N86 C87 1.346 . S
C87 N86 1.346 . S
C87 C88 1.396 . S
C87 C97 1.510 . S
C88 C84 1.401 . S
C88 C87 1.396 . S
C89 C84 1.499 . S
C89 H90 0.959 . S
C89 H91 0.960 . S
C89 H92 0.961 . S
H90 C89 0.959 . S
H91 C89 0.960 . S
H92 C89 0.961 . S
O93 Co68 1.967 . S
O93 C101 1.258 . S
O94 Co69 1.941 . S
O94 C101 1.266 . S
H95 C97 0.959 . S
H96 C97 0.961 . S
C97 C87 1.510 . S
C97 H95 0.959 . S
C97 H96 0.961 . S
C97 H98 0.960 . S
H98 C97 0.960 . S
H99 N79 0.862 . S
O100 Co68 1.920 . S
O100 C73 1.289 . S
C101 O93 1.258 . S
C101 O94 1.266 . S
Co102 O105 1.970 . S
Co102 N119 1.989 . S
Co102 O127 1.967 . S
Co102 O134 1.920 . S
Co103 O106 1.966 . S
Co103 N112 2.022 . S
Co103 N120 1.993 . S
Co103 O128 1.941 . S
C104 O105 1.258 . S
C104 O106 1.263 . S
O105 Co102 1.970 . S
O105 C104 1.258 . S
O106 Co103 1.966 . S
O106 C104 1.263 . S
C107 O108 1.235 . S
C107 O134 1.289 . S
O108 C107 1.235 . S
C109 C111 1.400 . S
C109 N112 1.351 . S
C109 C114 1.501 . S
C110 C111 1.387 . S
C110 N113 1.341 . S
C111 C109 1.400 . S
C111 C110 1.387 . S
N112 Co103 2.022 . S
N112 C109 1.351 . S
N112 N113 1.365 . S
N113 C110 1.341 . S
N113 N112 1.365 . S
N113 H133 0.862 . S
C114 C109 1.501 . S
C114 H115 0.961 . S
C114 H116 0.961 . S
C114 H117 0.960 . S
H115 C114 0.961 . S
H116 C114 0.961 . S
H117 C114 0.960 . S
C118 N119 1.342 . S
C118 C122 1.401 . S
C118 C123 1.499 . S
N119 Co102 1.989 . S
N119 C118 1.342 . S
N119 N120 1.388 . S
N120 Co103 1.993 . S
N120 N119 1.388 . S
N120 C121 1.346 . S
C121 N120 1.346 . S
C121 C122 1.396 . S
C121 C131 1.510 . S
C122 C118 1.401 . S
C122 C121 1.396 . S
C123 C118 1.499 . S
C123 H124 0.959 . S
C123 H125 0.960 . S
C123 H126 0.961 . S
H124 C123 0.959 . S
H125 C123 0.960 . S
H126 C123 0.961 . S
O127 Co102 1.967 . S
O127 C135 1.258 . S
O128 Co103 1.941 . S
O128 C135 1.266 . S
H129 C131 0.959 . S
H130 C131 0.961 . S
C131 C121 1.510 . S
C131 H129 0.959 . S
C131 H130 0.961 . S
C131 H132 0.960 . S
H132 C131 0.960 . S
H133 N113 0.862 . S
O134 Co102 1.920 . S
O134 C107 1.289 . S
C135 O127 1.258 . S
C135 O128 1.266 . S
Co136 O139 1.970 . S
Co136 N153 1.989 . S
Co136 O161 1.967 . S
Co136 O168 1.920 . S
Co137 O140 1.966 . S
Co137 N146 2.022 . S
Co137 N154 1.993 . S
Co137 O162 1.941 . S
C138 O139 1.258 . S
C138 O140 1.263 . S
O139 Co136 1.970 . S
O139 C138 1.258 . S
O140 Co137 1.966 . S
O140 C138 1.263 . S
C141 O142 1.235 . S
C141 O168 1.289 . S
O142 C141 1.235 . S
C143 C145 1.400 . S
C143 N146 1.351 . S
C143 C148 1.501 . S
C144 C145 1.387 . S
C144 N147 1.341 . S
C145 C143 1.400 . S
C145 C144 1.387 . S
N146 Co137 2.022 . S
N146 C143 1.351 . S
N146 N147 1.365 . S
N147 C144 1.341 . S
N147 N146 1.365 . S
N147 H167 0.862 . S
C148 C143 1.501 . S
C148 H149 0.961 . S
C148 H150 0.961 . S
C148 H151 0.960 . S
H149 C148 0.961 . S
H150 C148 0.961 . S
H151 C148 0.960 . S
C152 N153 1.342 . S
C152 C156 1.401 . S
C152 C157 1.499 . S
N153 Co136 1.989 . S
N153 C152 1.342 . S
N153 N154 1.388 . S
N154 Co137 1.993 . S
N154 N153 1.388 . S
N154 C155 1.346 . S
C155 N154 1.346 . S
C155 C156 1.396 . S
C155 C165 1.510 . S
C156 C152 1.401 . S
C156 C155 1.396 . S
C157 C152 1.499 . S
C157 H158 0.959 . S
C157 H159 0.960 . S
C157 H160 0.961 . S
H158 C157 0.959 . S
H159 C157 0.960 . S
H160 C157 0.961 . S
O161 Co136 1.967 . S
O161 C169 1.258 . S
O162 Co137 1.941 . S
O162 C169 1.266 . S
H163 C165 0.959 . S
H164 C165 0.961 . S
C165 C155 1.510 . S
C165 H163 0.959 . S
C165 H164 0.961 . S
C165 H166 0.960 . S
H166 C165 0.960 . S
H167 N147 0.862 . S
O168 Co136 1.920 . S
O168 C141 1.289 . S
C169 O161 1.258 . S
C169 O162 1.266 . S
Co170 O173 1.970 . S
Co170 N187 1.989 . S
Co170 O195 1.967 . S
Co170 O202 1.920 . S
Co171 O174 1.966 . S
Co171 N180 2.022 . S
Co171 N188 1.993 . S
Co171 O196 1.941 . S
C172 O173 1.258 . S
C172 O174 1.263 . S
O173 Co170 1.970 . S
O173 C172 1.258 . S
O174 Co171 1.966 . S
O174 C172 1.263 . S
C175 O176 1.235 . S
C175 O202 1.289 . S
O176 C175 1.235 . S
C177 C179 1.400 1_556 S
C177 N180 1.351 . S
C177 C182 1.501 1_556 S
C178 C179 1.387 1_556 S
C178 N181 1.341 . S
C179 C177 1.400 1_554 S
C179 C178 1.387 1_554 S
N180 Co171 2.022 . S
N180 C177 1.351 . S
N180 N181 1.365 . S
N181 C178 1.341 . S
N181 N180 1.365 . S
N181 H201 0.862 . S
C182 C177 1.501 1_554 S
C182 H183 0.961 1_554 S
C182 H184 0.961 . S
C182 H185 0.960 . S
H183 C182 0.961 1_556 S
H184 C182 0.961 . S
H185 C182 0.960 . S
C186 N187 1.342 . S
C186 C190 1.401 . S
C186 C191 1.499 . S
N187 Co170 1.989 . S
N187 C186 1.342 . S
N187 N188 1.388 . S
N188 Co171 1.993 . S
N188 N187 1.388 . S
N188 C189 1.346 . S
C189 N188 1.346 . S
C189 C190 1.396 . S
C189 C199 1.510 . S
C190 C186 1.401 . S
C190 C189 1.396 . S
C191 C186 1.499 . S
C191 H192 0.959 . S
C191 H193 0.960 . S
C191 H194 0.961 . S
H192 C191 0.959 . S
H193 C191 0.960 . S
H194 C191 0.961 . S
O195 Co170 1.967 . S
O195 C203 1.258 . S
O196 Co171 1.941 . S
O196 C203 1.266 . S
H197 C199 0.959 . S
H198 C199 0.961 . S
C199 C189 1.510 . S
C199 H197 0.959 . S
C199 H198 0.961 . S
C199 H200 0.960 . S
H200 C199 0.960 . S
H201 N181 0.862 . S
O202 Co170 1.920 . S
O202 C175 1.289 . S
C203 O195 1.258 . S
C203 O196 1.266 . S
Co204 O207 1.970 . S
Co204 N221 1.989 . S
Co204 O229 1.967 . S
Co204 O236 1.920 1_556 S
Co205 O208 1.966 . S
Co205 N214 2.022 . S
Co205 N222 1.993 . S
Co205 O230 1.941 . S
C206 O207 1.258 . S
C206 O208 1.263 . S
O207 Co204 1.970 . S
O207 C206 1.258 . S
O208 Co205 1.966 . S
O208 C206 1.263 . S
C209 O210 1.235 1_554 S
C209 O236 1.289 . S
O210 C209 1.235 1_556 S
C211 C213 1.400 . S
C211 N214 1.351 . S
C211 C216 1.501 . S
C212 C213 1.387 . S
C212 N215 1.341 . S
C213 C211 1.400 . S
C213 C212 1.387 . S
N214 Co205 2.022 . S
N214 C211 1.351 . S
N214 N215 1.365 . S
N215 C212 1.341 . S
N215 N214 1.365 . S
N215 H235 0.862 . S
C216 C211 1.501 . S
C216 H217 0.961 . S
C216 H218 0.961 . S
C216 H219 0.960 . S
H217 C216 0.961 . S
H218 C216 0.961 . S
H219 C216 0.960 . S
C220 N221 1.342 . S
C220 C224 1.401 . S
C220 C225 1.499 1_556 S
N221 Co204 1.989 . S
N221 C220 1.342 . S
N221 N222 1.388 . S
N222 Co205 1.993 . S
N222 N221 1.388 . S
N222 C223 1.346 . S
C223 N222 1.346 . S
C223 C224 1.396 . S
C223 C233 1.510 . S
C224 C220 1.401 . S
C224 C223 1.396 . S
C225 C220 1.499 1_554 S
C225 H226 0.959 . S
C225 H227 0.960 . S
C225 H228 0.961 . S
H226 C225 0.959 . S
H227 C225 0.960 . S
H228 C225 0.961 . S
O229 Co204 1.967 . S
O229 C237 1.258 . S
O230 Co205 1.941 . S
O230 C237 1.266 . S
H231 C233 0.959 . S
H232 C233 0.961 . S
C233 C223 1.510 . S
C233 H231 0.959 . S
C233 H232 0.961 . S
C233 H234 0.960 . S
H234 C233 0.960 . S
H235 N215 0.862 . S
O236 Co204 1.920 1_554 S
O236 C209 1.289 . S
C237 O229 1.258 . S
C237 O230 1.266 . S
Co238 O241 1.970 1_554 S
Co238 N255 1.989 . S
Co238 O263 1.967 . S
Co238 O270 1.920 . S
Co239 O242 1.966 . S
Co239 N248 2.022 . S
Co239 N256 1.993 1_556 S
Co239 O264 1.941 1_556 S
C240 O241 1.258 . S
C240 O242 1.263 . S
O241 Co238 1.970 1_556 S
O241 C240 1.258 . S
O242 Co239 1.966 . S
O242 C240 1.263 . S
C243 O244 1.235 . S
C243 O270 1.289 . S
O244 C243 1.235 . S
C245 C247 1.400 . S
C245 N248 1.351 . S
C245 C250 1.501 . S
C246 C247 1.387 . S
C246 N249 1.341 . S
C247 C245 1.400 . S
C247 C246 1.387 . S
N248 Co239 2.022 . S
N248 C245 1.351 . S
N248 N249 1.365 . S
N249 C246 1.341 . S
N249 N248 1.365 . S
N249 H269 0.862 . S
C250 C245 1.501 . S
C250 H251 0.961 . S
C250 H252 0.961 . S
C250 H253 0.960 . S
H251 C250 0.961 . S
H252 C250 0.961 . S
H253 C250 0.960 . S
C254 N255 1.342 . S
C254 C258 1.401 . S
C254 C259 1.499 . S
N255 Co238 1.989 . S
N255 C254 1.342 . S
N255 N256 1.388 . S
N256 Co239 1.993 1_554 S
N256 N255 1.388 . S
N256 C257 1.346 . S
C257 N256 1.346 . S
C257 C258 1.396 . S
C257 C267 1.510 1_554 S
C258 C254 1.401 . S
C258 C257 1.396 . S
C259 C254 1.499 . S
C259 H260 0.959 . S
C259 H261 0.960 . S
C259 H262 0.961 . S
H260 C259 0.959 . S
H261 C259 0.960 . S
H262 C259 0.961 . S
O263 Co238 1.967 . S
O263 C271 1.258 . S
O264 Co239 1.941 1_554 S
O264 C271 1.266 . S
H265 C267 0.959 . S
H266 C267 0.961 . S
C267 C257 1.510 1_556 S
C267 H265 0.959 . S
C267 H266 0.961 . S
C267 H268 0.960 . S
H268 C267 0.960 . S
H269 N249 0.862 . S
O270 Co238 1.920 . S
O270 C243 1.289 . S
C271 O263 1.258 . S
C271 O264 1.266 . S
Co272 O275 1.970 . S
Co272 N289 1.989 . S
Co272 O297 1.967 . S
Co272 O304 1.920 . S
Co273 O276 1.966 . S
Co273 N282 2.022 . S
Co273 N290 1.993 . S
Co273 O298 1.941 . S
C274 O275 1.258 . S
C274 O276 1.263 . S
O275 Co272 1.970 . S
O275 C274 1.258 . S
O276 Co273 1.966 . S
O276 C274 1.263 . S
C277 O278 1.235 . S
C277 O304 1.289 . S
O278 C277 1.235 . S
C279 C281 1.400 1_554 S
C279 N282 1.351 . S
C279 C284 1.501 1_554 S
C280 C281 1.387 1_554 S
C280 N283 1.341 . S
C281 C279 1.400 1_556 S
C281 C280 1.387 1_556 S
N282 Co273 2.022 . S
N282 C279 1.351 . S
N282 N283 1.365 . S
N283 C280 1.341 . S
N283 N282 1.365 . S
N283 H303 0.862 . S
C284 C279 1.501 1_556 S
C284 H285 0.961 1_556 S
C284 H286 0.961 . S
C284 H287 0.960 . S
H285 C284 0.961 1_554 S
H286 C284 0.961 . S
H287 C284 0.960 . S
C288 N289 1.342 . S
C288 C292 1.401 . S
C288 C293 1.499 . S
N289 Co272 1.989 . S
N289 C288 1.342 . S
N289 N290 1.388 . S
N290 Co273 1.993 . S
N290 N289 1.388 . S
N290 C291 1.346 . S
C291 N290 1.346 . S
C291 C292 1.396 . S
C291 C301 1.510 . S
C292 C288 1.401 . S
C292 C291 1.396 . S
C293 C288 1.499 . S
C293 H294 0.959 . S
C293 H295 0.960 . S
C293 H296 0.961 . S
H294 C293 0.959 . S
H295 C293 0.960 . S
H296 C293 0.961 . S
O297 Co272 1.967 . S
O297 C305 1.258 . S
O298 Co273 1.941 . S
O298 C305 1.266 . S
H299 C301 0.959 . S
H300 C301 0.961 . S
C301 C291 1.510 . S
C301 H299 0.959 . S
C301 H300 0.961 . S
C301 H302 0.960 . S
H302 C301 0.960 . S
H303 N283 0.862 . S
O304 Co272 1.920 . S
O304 C277 1.289 . S
C305 O297 1.258 . S
C305 O298 1.266 . S
Co306 O309 1.970 . S
Co306 N323 1.989 . S
Co306 O331 1.967 . S
Co306 O338 1.920 . S
Co307 O310 1.966 . S
Co307 N316 2.022 . S
Co307 N324 1.993 . S
Co307 O332 1.941 . S
C308 O309 1.258 . S
C308 O310 1.263 . S
O309 Co306 1.970 . S
O309 C308 1.258 . S
O310 Co307 1.966 . S
O310 C308 1.263 . S
C311 O312 1.235 . S
C311 O338 1.289 . S
O312 C311 1.235 . S
C313 C315 1.400 . S
C313 N316 1.351 . S
C313 C318 1.501 . S
C314 C315 1.387 . S
C314 N317 1.341 . S
C315 C313 1.400 . S
C315 C314 1.387 . S
N316 Co307 2.022 . S
N316 C313 1.351 . S
N316 N317 1.365 . S
N317 C314 1.341 . S
N317 N316 1.365 . S
N317 H337 0.862 . S
C318 C313 1.501 . S
C318 H319 0.961 . S
C318 H320 0.961 . S
C318 H321 0.960 . S
H319 C318 0.961 . S
H320 C318 0.961 . S
H321 C318 0.960 . S
C322 N323 1.342 . S
C322 C326 1.401 . S
C322 C327 1.499 . S
N323 Co306 1.989 . S
N323 C322 1.342 . S
N323 N324 1.388 . S
N324 Co307 1.993 . S
N324 N323 1.388 . S
N324 C325 1.346 . S
C325 N324 1.346 . S
C325 C326 1.396 . S
C325 C335 1.510 . S
C326 C322 1.401 . S
C326 C325 1.396 . S
C327 C322 1.499 . S
C327 H328 0.959 . S
C327 H329 0.960 . S
C327 H330 0.961 . S
H328 C327 0.959 . S
H329 C327 0.960 . S
H330 C327 0.961 . S
O331 Co306 1.967 . S
O331 C339 1.258 . S
O332 Co307 1.941 . S
O332 C339 1.266 . S
H333 C335 0.959 . S
H334 C335 0.961 . S
C335 C325 1.510 . S
C335 H333 0.959 . S
C335 H334 0.961 . S
C335 H336 0.960 . S
H336 C335 0.960 . S
H337 N317 0.862 . S
O338 Co306 1.920 . S
O338 C311 1.289 . S
C339 O331 1.258 . S
C339 O332 1.266 . S
Co340 O343 1.970 . S
Co340 N357 1.989 . S
Co340 O365 1.967 . S
Co340 O372 1.920 . S
Co341 O344 1.966 . S
Co341 N350 2.022 . S
Co341 N358 1.993 . S
Co341 O366 1.941 . S
C342 O343 1.258 . S
C342 O344 1.263 . S
O343 Co340 1.970 . S
O343 C342 1.258 . S
O344 Co341 1.966 . S
O344 C342 1.263 . S
C345 O346 1.235 . S
C345 O372 1.289 . S
O346 C345 1.235 . S
C347 C349 1.400 . S
C347 N350 1.351 . S
C347 C352 1.501 . S
C348 C349 1.387 . S
C348 N351 1.341 . S
C349 C347 1.400 . S
C349 C348 1.387 . S
N350 Co341 2.022 . S
N350 C347 1.351 . S
N350 N351 1.365 . S
N351 C348 1.341 . S
N351 N350 1.365 . S
N351 H371 0.862 . S
C352 C347 1.501 . S
C352 H353 0.961 . S
C352 H354 0.961 . S
C352 H355 0.960 . S
H353 C352 0.961 . S
H354 C352 0.961 . S
H355 C352 0.960 . S
C356 N357 1.342 . S
C356 C360 1.401 . S
C356 C361 1.499 . S
N357 Co340 1.989 . S
N357 C356 1.342 . S
N357 N358 1.388 . S
N358 Co341 1.993 . S
N358 N357 1.388 . S
N358 C359 1.346 . S
C359 N358 1.346 . S
C359 C360 1.396 . S
C359 C369 1.510 . S
C360 C356 1.401 . S
C360 C359 1.396 . S
C361 C356 1.499 . S
C361 H362 0.959 . S
C361 H363 0.960 . S
C361 H364 0.961 . S
H362 C361 0.959 . S
H363 C361 0.960 . S
H364 C361 0.961 . S
O365 Co340 1.967 . S
O365 C373 1.258 . S
O366 Co341 1.941 . S
O366 C373 1.266 . S
H367 C369 0.959 . S
H368 C369 0.961 . S
C369 C359 1.510 . S
C369 H367 0.959 . S
C369 H368 0.961 . S
C369 H370 0.960 . S
H370 C369 0.960 . S
H371 N351 0.862 . S
O372 Co340 1.920 . S
O372 C345 1.289 . S
C373 O365 1.258 . S
C373 O366 1.266 . S
Co374 O377 1.970 . S
Co374 N391 1.989 . S
Co374 O399 1.967 . S
Co374 O406 1.920 . S
Co375 O378 1.966 . S
Co375 N384 2.022 . S
Co375 N392 1.993 . S
Co375 O400 1.941 . S
C376 O377 1.258 . S
C376 O378 1.263 . S
O377 Co374 1.970 . S
O377 C376 1.258 . S
O378 Co375 1.966 . S
O378 C376 1.263 . S
C379 O380 1.235 . S
C379 O406 1.289 . S
O380 C379 1.235 . S
C381 C383 1.400 . S
C381 N384 1.351 . S
C381 C386 1.501 . S
C382 C383 1.387 . S
C382 N385 1.341 . S
C383 C381 1.400 . S
C383 C382 1.387 . S
N384 Co375 2.022 . S
N384 C381 1.351 . S
N384 N385 1.365 . S
N385 C382 1.341 . S
N385 N384 1.365 . S
N385 H405 0.862 . S
C386 C381 1.501 . S
C386 H387 0.961 . S
C386 H388 0.961 . S
C386 H389 0.960 . S
H387 C386 0.961 . S
H388 C386 0.961 . S
H389 C386 0.960 . S
C390 N391 1.342 . S
C390 C394 1.401 . S
C390 C395 1.499 . S
N391 Co374 1.989 . S
N391 C390 1.342 . S
N391 N392 1.388 . S
N392 Co375 1.993 . S
N392 N391 1.388 . S
N392 C393 1.346 . S
C393 N392 1.346 . S
C393 C394 1.396 . S
C393 C403 1.510 . S
C394 C390 1.401 . S
C394 C393 1.396 . S
C395 C390 1.499 . S
C395 H396 0.959 . S
C395 H397 0.960 . S
C395 H398 0.961 . S
H396 C395 0.959 . S
H397 C395 0.960 . S
H398 C395 0.961 . S
O399 Co374 1.967 . S
O399 C407 1.258 . S
O400 Co375 1.941 . S
O400 C407 1.266 . S
H401 C403 0.959 . S
H402 C403 0.961 . S
C403 C393 1.510 . S
C403 H401 0.959 . S
C403 H402 0.961 . S
C403 H404 0.960 . S
H404 C403 0.960 . S
H405 N385 0.862 . S
O406 Co374 1.920 . S
O406 C379 1.289 . S
C407 O399 1.258 . S
C407 O400 1.266 . S
C408 C409 1.363 . S
C408 C414 1.379 . S
C408 N416 1.356 . S
C409 C408 1.363 . S
C409 C415 1.363 . S
C410 C411 1.363 . S
C410 C415 1.379 . S
C410 N417 1.356 . S
C411 C410 1.363 . S
C411 C414 1.363 . S
N412 C414 1.356 . S
N412 H424 0.984 . S
N412 H425 0.985 . S
N413 C415 1.356 . S
N413 H418 0.984 . S
N413 H419 0.985 . S
C414 C408 1.379 . S
C414 C411 1.363 . S
C414 N412 1.356 . S
C415 C409 1.363 . S
C415 C410 1.379 . S
C415 N413 1.356 . S
N416 C408 1.356 . S
N416 H422 0.984 . S
N416 H423 0.984 . S
N417 C410 1.356 . S
N417 H420 0.984 . S
N417 H421 0.985 . S
H418 N413 0.984 . S
H419 N413 0.985 . S
H420 N417 0.984 . S
H421 N417 0.985 . S
H422 N416 0.984 . S
H423 N416 0.984 . S
H424 N412 0.984 . S
H425 N412 0.985 . S
C426 C427 1.363 . S
C426 C432 1.379 . S
C426 N434 1.356 . S
C427 C426 1.363 . S
C427 C433 1.363 . S
C428 C429 1.363 . S
C428 C433 1.379 . S
C428 N435 1.356 . S
C429 C428 1.363 . S
C429 C432 1.363 . S
N430 C432 1.356 . S
N430 H442 0.984 . S
N430 H443 0.985 . S
N431 C433 1.356 . S
N431 H436 0.984 . S
N431 H437 0.985 . S
C432 C426 1.379 . S
C432 C429 1.363 . S
C432 N430 1.356 . S
C433 C427 1.363 . S
C433 C428 1.379 . S
C433 N431 1.356 . S
N434 C426 1.356 . S
N434 H440 0.984 . S
N434 H441 0.984 . S
N435 C428 1.356 . S
N435 H438 0.984 . S
N435 H439 0.985 . S
H436 N431 0.984 . S
H437 N431 0.985 . S
H438 N435 0.984 . S
H439 N435 0.985 . S
H440 N434 0.984 . S
H441 N434 0.984 . S
H442 N430 0.984 . S
H443 N430 0.985 . S
C444 C445 1.363 . S
C444 C450 1.379 . S
C444 N452 1.356 . S
C445 C444 1.363 . S
C445 C451 1.363 . S
C446 C447 1.363 . S
C446 C451 1.379 . S
C446 N453 1.356 . S
C447 C446 1.363 . S
C447 C450 1.363 . S
N448 C450 1.356 . S
N448 H460 0.984 . S
N448 H461 0.985 . S
N449 C451 1.356 . S
N449 H454 0.984 . S
N449 H455 0.985 . S
C450 C444 1.379 . S
C450 C447 1.363 . S
C450 N448 1.356 . S
C451 C445 1.363 . S
C451 C446 1.379 . S
C451 N449 1.356 . S
N452 C444 1.356 . S
N452 H458 0.984 . S
N452 H459 0.984 . S
N453 C446 1.356 . S
N453 H456 0.984 . S
N453 H457 0.985 . S
H454 N449 0.984 . S
H455 N449 0.985 . S
H456 N453 0.984 . S
H457 N453 0.985 . S
H458 N452 0.984 . S
H459 N452 0.984 . S
H460 N448 0.984 . S
H461 N448 0.985 . S
C462 C463 1.363 . S
C462 C468 1.379 . S
C462 N470 1.356 . S
C463 C462 1.363 . S
C463 C469 1.363 . S
C464 C465 1.363 . S
C464 C469 1.379 . S
C464 N471 1.356 . S
C465 C464 1.363 . S
C465 C468 1.363 . S
N466 C468 1.356 . S
N466 H478 0.984 . S
N466 H479 0.985 . S
N467 C469 1.356 . S
N467 H472 0.984 . S
N467 H473 0.985 . S
C468 C462 1.379 . S
C468 C465 1.363 . S
C468 N466 1.356 . S
C469 C463 1.363 . S
C469 C464 1.379 . S
C469 N467 1.356 . S
N470 C462 1.356 . S
N470 H476 0.984 . S
N470 H477 0.984 . S
N471 C464 1.356 . S
N471 H474 0.984 . S
N471 H475 0.985 . S
H472 N467 0.984 . S
H473 N467 0.985 . S
H474 N471 0.984 . S
H475 N471 0.985 . S
H476 N470 0.984 . S
H477 N470 0.984 . S
H478 N466 0.984 . S
H479 N466 0.985 . S
C480 C481 1.363 . S
C480 C486 1.379 . S
C480 N488 1.356 . S
C481 C480 1.363 . S
C481 C487 1.363 . S
C482 C483 1.363 . S
C482 C487 1.379 . S
C482 N489 1.356 . S
C483 C482 1.363 . S
C483 C486 1.363 . S
N484 C486 1.356 . S
N484 H496 0.984 . S
N484 H497 0.985 1_556 S
N485 C487 1.356 . S
N485 H490 0.984 . S
N485 H491 0.985 . S
C486 C480 1.379 . S
C486 C483 1.363 . S
C486 N484 1.356 . S
C487 C481 1.363 . S
C487 C482 1.379 . S
C487 N485 1.356 . S
N488 C480 1.356 . S
N488 H494 0.984 . S
N488 H495 0.984 . S
N489 C482 1.356 . S
N489 H492 0.984 1_556 S
N489 H493 0.985 . S
H490 N485 0.984 . S
H491 N485 0.985 . S
H492 N489 0.984 1_554 S
H493 N489 0.985 . S
H494 N488 0.984 . S
H495 N488 0.984 . S
H496 N484 0.984 . S
H497 N484 0.985 1_554 S
C498 C499 1.363 . S
C498 C504 1.379 . S
C498 N506 1.356 . S
C499 C498 1.363 . S
C499 C505 1.363 . S
C500 C501 1.363 . S
C500 C505 1.379 . S
C500 N507 1.356 . S
C501 C500 1.363 . S
C501 C504 1.363 . S
N502 C504 1.356 . S
N502 H514 0.984 . S
N502 H515 0.985 . S
N503 C505 1.356 . S
N503 H508 0.984 1_554 S
N503 H509 0.985 . S
C504 C498 1.379 . S
C504 C501 1.363 . S
C504 N502 1.356 . S
C505 C499 1.363 . S
C505 C500 1.379 . S
C505 N503 1.356 . S
N506 C498 1.356 . S
N506 H512 0.984 . S
N506 H513 0.984 1_554 S
N507 C500 1.356 . S
N507 H510 0.984 . S
N507 H511 0.985 . S
H508 N503 0.984 1_556 S
H509 N503 0.985 . S
H510 N507 0.984 . S
H511 N507 0.985 . S
H512 N506 0.984 . S
H513 N506 0.984 1_556 S
H514 N502 0.984 . S
H515 N502 0.985 . S
C516 C517 1.363 . S
C516 C522 1.379 . S
C516 N524 1.356 . S
C517 C516 1.363 . S
C517 C523 1.363 . S
C518 C519 1.363 . S
C518 C523 1.379 . S
C518 N525 1.356 . S
C519 C518 1.363 . S
C519 C522 1.363 . S
N520 C522 1.356 . S
N520 H532 0.984 . S
N520 H533 0.985 . S
N521 C523 1.356 . S
N521 H526 0.984 . S
N521 H527 0.985 . S
C522 C516 1.379 . S
C522 C519 1.363 . S
C522 N520 1.356 . S
C523 C517 1.363 . S
C523 C518 1.379 . S
C523 N521 1.356 . S
N524 C516 1.356 . S
N524 H530 0.984 . S
N524 H531 0.984 . S
N525 C518 1.356 . S
N525 H528 0.984 . S
N525 H529 0.985 . S
H526 N521 0.984 . S
H527 N521 0.985 . S
H528 N525 0.984 . S
H529 N525 0.985 . S
H530 N524 0.984 . S
H531 N524 0.984 . S
H532 N520 0.984 . S
H533 N520 0.985 . S
C534 C535 1.363 . S
C534 C540 1.379 . S
C534 N542 1.356 . S
C535 C534 1.363 . S
C535 C541 1.363 . S
C536 C537 1.363 . S
C536 C541 1.379 . S
C536 N543 1.356 . S
C537 C536 1.363 . S
C537 C540 1.363 . S
N538 C540 1.356 1_554 S
N538 H550 0.984 . S
N538 H551 0.985 . S
N539 C541 1.356 . S
N539 H544 0.984 . S
N539 H545 0.985 . S
C540 C534 1.379 . S
C540 C537 1.363 . S
C540 N538 1.356 1_556 S
C541 C535 1.363 . S
C541 C536 1.379 . S
C541 N539 1.356 . S
N542 C534 1.356 . S
N542 H548 0.984 . S
N542 H549 0.984 . S
N543 C536 1.356 . S
N543 H546 0.984 1_455 S
N543 H547 0.985 . S
H544 N539 0.984 . S
H545 N539 0.985 . S
H546 N543 0.984 1_655 S
H547 N543 0.985 . S
H548 N542 0.984 . S
H549 N542 0.984 . S
H550 N538 0.984 . S
H551 N538 0.985 . S
C552 C553 1.363 . S
C552 C558 1.379 . S
C552 N560 1.356 . S
C553 C552 1.363 . S
C553 C559 1.363 . S
C554 C555 1.363 . S
C554 C559 1.379 . S
C554 N561 1.356 . S
C555 C554 1.363 . S
C555 C558 1.363 . S
N556 C558 1.356 . S
N556 H568 0.984 . S
N556 H569 0.985 . S
N557 C559 1.362 . S
N557 H562 0.984 1_554 S
N557 H563 0.979 1_554 S
C558 C552 1.379 . S
C558 C555 1.363 . S
C558 N556 1.356 . S
C559 C553 1.363 . S
C559 C554 1.379 . S
C559 N557 1.362 . S
N560 C552 1.356 . S
N560 H566 0.984 . S
N560 H567 0.984 . S
N561 C554 1.356 . S
N561 H564 0.984 . S
N561 H565 0.985 . S
H562 N557 0.984 1_556 S
H563 N557 0.979 1_556 S
H564 N561 0.984 . S
H565 N561 0.985 . S
H566 N560 0.984 . S
H567 N560 0.984 . S
H568 N556 0.984 . S
H569 N556 0.985 . S
C570 C571 1.363 . S
C570 C576 1.379 . S
C570 N578 1.356 . S
C571 C570 1.363 . S
C571 C577 1.363 . S
C572 C573 1.363 . S
C572 C577 1.379 . S
C572 N579 1.356 . S
C573 C572 1.363 . S
C573 C576 1.363 . S
N574 C576 1.356 . S
N574 H586 0.984 . S
N574 H587 0.985 . S
N575 C577 1.356 . S
N575 H580 0.984 . S
N575 H581 0.985 . S
C576 C570 1.379 . S
C576 C573 1.363 . S
C576 N574 1.356 . S
C577 C571 1.363 . S
C577 C572 1.379 . S
C577 N575 1.356 . S
N578 C570 1.356 . S
N578 H584 0.984 . S
N578 H585 0.984 . S
N579 C572 1.356 . S
N579 H582 0.984 . S
N579 H583 0.985 . S
H580 N575 0.984 . S
H581 N575 0.985 . S
H582 N579 0.984 . S
H583 N579 0.985 . S
H584 N578 0.984 . S
H585 N578 0.984 . S
H586 N574 0.984 . S
H587 N574 0.985 . S
C588 C589 1.363 . S
C588 C594 1.379 . S
C588 N596 1.356 . S
C589 C588 1.363 . S
C589 C595 1.363 . S
C590 C591 1.363 . S
C590 C595 1.379 . S
C590 N597 1.356 . S
C591 C590 1.363 . S
C591 C594 1.363 . S
N592 C594 1.356 . S
N592 H604 0.984 . S
N592 H605 0.985 . S
N593 C595 1.356 . S
N593 H598 0.984 1_655 S
N593 H599 0.985 . S
C594 C588 1.379 . S
C594 C591 1.363 . S
C594 N592 1.356 . S
C595 C589 1.363 . S
C595 C590 1.379 . S
C595 N593 1.356 . S
N596 C588 1.356 . S
N596 H602 0.984 . S
N596 H603 0.984 . S
N597 C590 1.356 . S
N597 H600 0.984 . S
N597 H601 0.985 . S
H598 N593 0.984 1_455 S
H599 N593 0.985 . S
H600 N597 0.984 . S
H601 N597 0.985 . S
H602 N596 0.984 . S
H603 N596 0.984 . S
H604 N592 0.984 . S
H605 N592 0.985 . S
C606 C607 1.363 . S
C606 C612 1.379 . S
C606 N614 1.357 1_565 S
C607 C606 1.363 . S
C607 C613 1.363 . S
C608 C609 1.363 . S
C608 C613 1.379 . S
C608 N615 1.356 . S
C609 C608 1.363 . S
C609 C612 1.363 . S
N610 C612 1.356 . S
N610 H622 0.984 . S
N610 H623 0.985 . S
N611 C613 1.356 . S
N611 H616 0.984 . S
N611 H617 0.985 . S
C612 C606 1.379 . S
C612 C609 1.363 . S
C612 N610 1.356 . S
C613 C607 1.363 . S
C613 C608 1.379 . S
C613 N611 1.356 . S
N614 C606 1.357 1_545 S
N614 H620 0.984 . S
N614 H621 0.984 . S
N615 C608 1.356 . S
N615 H618 0.984 . S
N615 H619 0.985 . S
H616 N611 0.984 . S
H617 N611 0.985 . S
H618 N615 0.984 . S
H619 N615 0.985 . S
H620 N614 0.984 . S
H621 N614 0.984 . S
H622 N610 0.984 . S
H623 N610 0.985 . S
C624 C625 1.363 . S
C624 C630 1.379 1_554 S
C624 N632 1.356 1_554 S
C625 C624 1.363 . S
C625 C631 1.363 . S
C626 C627 1.363 . S
C626 C631 1.379 . S
C626 N633 1.356 . S
C627 C626 1.363 . S
C627 C630 1.363 1_554 S
N628 C630 1.356 . S
N628 H640 0.984 . S
N628 H641 0.985 . S
N629 C631 1.356 . S
N629 H634 0.984 . S
N629 H635 0.985 . S
C630 C624 1.379 1_556 S
C630 C627 1.363 1_556 S
C630 N628 1.356 . S
C631 C625 1.363 . S
C631 C626 1.379 . S
C631 N629 1.356 . S
N632 C624 1.356 1_556 S
N632 H638 0.984 . S
N632 H639 0.984 . S
N633 C626 1.356 . S
N633 H636 0.984 . S
N633 H637 0.985 . S
H634 N629 0.984 . S
H635 N629 0.985 . S
H636 N633 0.984 . S
H637 N633 0.985 . S
H638 N632 0.984 . S
H639 N632 0.984 . S
H640 N628 0.984 . S
H641 N628 0.985 . S
C642 C643 1.363 . S
C642 C648 1.379 . S
C642 N650 1.356 . S
C643 C642 1.363 . S
C643 C649 1.363 . S
C644 C645 1.363 . S
C644 C649 1.379 . S
C644 N651 1.356 . S
C645 C644 1.363 . S
C645 C648 1.363 . S
N646 C648 1.356 . S
N646 H658 0.984 . S
N646 H659 0.985 . S
N647 C649 1.356 . S
N647 H652 0.984 . S
N647 H653 0.985 . S
C648 C642 1.379 . S
C648 C645 1.363 . S
C648 N646 1.356 . S
C649 C643 1.363 . S
C649 C644 1.379 . S
C649 N647 1.356 . S
N650 C642 1.356 . S
N650 H656 0.984 1_455 S
N650 H657 0.984 1_455 S
N651 C644 1.356 . S
N651 H654 0.984 . S
N651 H655 0.985 . S
H652 N647 0.984 . S
H653 N647 0.985 . S
H654 N651 0.984 . S
H655 N651 0.985 . S
H656 N650 0.984 1_655 S
H657 N650 0.984 1_655 S
H658 N646 0.984 . S
H659 N646 0.985 . S
C660 C661 1.363 . S
C660 C666 1.379 . S
C660 N668 1.356 . S
C661 C660 1.363 . S
C661 C667 1.363 . S
C662 C663 1.363 . S
C662 C667 1.379 . S
C662 N669 1.356 . S
C663 C662 1.363 . S
C663 C666 1.363 . S
N664 C666 1.356 . S
N664 H676 0.984 . S
N664 H677 0.985 . S
N665 C667 1.357 1_565 S
N665 H670 0.984 . S
N665 H671 0.985 . S
C666 C660 1.379 . S
C666 C663 1.363 . S
C666 N664 1.356 . S
C667 C661 1.363 . S
C667 C662 1.379 . S
C667 N665 1.357 1_545 S
N668 C660 1.356 . S
N668 H674 0.984 . S
N668 H675 0.984 . S
N669 C662 1.356 . S
N669 H672 0.984 . S
N669 H673 0.985 . S
H670 N665 0.984 . S
H671 N665 0.985 . S
H672 N669 0.984 . S
H673 N669 0.985 . S
H674 N668 0.984 . S
H675 N668 0.984 . S
H676 N664 0.984 . S
H677 N664 0.985 . S
C678 C679 1.363 . S
C678 C684 1.379 . S
C678 N686 1.356 . S
C679 C678 1.363 . S
C679 C685 1.363 . S
C680 C681 1.363 . S
C680 C685 1.379 . S
C680 N687 1.356 . S
C681 C680 1.363 . S
C681 C684 1.363 . S
N682 C684 1.356 . S
N682 H694 0.984 . S
N682 H695 0.985 . S
N683 C685 1.356 . S
N683 H688 0.984 . S
N683 H689 0.985 . S
C684 C678 1.379 . S
C684 C681 1.363 . S
C684 N682 1.356 . S
C685 C679 1.363 . S
C685 C680 1.379 . S
C685 N683 1.356 . S
N686 C678 1.356 . S
N686 H692 0.984 . S
N686 H693 0.984 . S
N687 C680 1.356 . S
N687 H690 0.984 . S
N687 H691 0.985 . S
H688 N683 0.984 . S
H689 N683 0.985 . S
H690 N687 0.984 . S
H691 N687 0.985 . S
H692 N686 0.984 . S
H693 N686 0.984 . S
H694 N682 0.984 . S
H695 N682 0.985 . S
C696 C697 1.363 . S
C696 C702 1.379 . S
C696 N704 1.356 . S
C697 C696 1.363 . S
C697 C703 1.363 . S
C698 C699 1.363 . S
C698 C703 1.379 . S
C698 N705 1.356 . S
C699 C698 1.363 . S
C699 C702 1.363 . S
N700 C702 1.356 . S
N700 H712 0.984 . S
N700 H713 0.985 . S
N701 C703 1.356 . S
N701 H706 0.984 . S
N701 H707 0.985 . S
C702 C696 1.379 . S
C702 C699 1.363 . S
C702 N700 1.356 . S
C703 C697 1.363 . S
C703 C698 1.379 . S
C703 N701 1.356 . S
N704 C696 1.356 . S
N704 H710 0.984 . S
N704 H711 0.985 . S
N705 C698 1.356 . S
N705 H708 0.984 . S
N705 H709 0.985 . S
H706 N701 0.984 . S
H707 N701 0.985 . S
H708 N705 0.984 . S
H709 N705 0.985 . S
H710 N704 0.984 . S
H711 N704 0.985 . S
H712 N700 0.984 . S
H713 N700 0.985 . S
C714 C715 1.363 . S
C714 C720 1.379 . S
C714 N722 1.356 . S
C715 C714 1.363 . S
C715 C721 1.363 . S
C716 C717 1.363 . S
C716 C721 1.379 . S
C716 N723 1.356 . S
C717 C716 1.363 . S
C717 C720 1.363 . S
N718 C720 1.356 . S
N718 H730 0.984 . S
N718 H731 0.985 . S
N719 C721 1.356 . S
N719 H724 0.984 1_565 S
N719 H725 0.985 . S
C720 C714 1.379 . S
C720 C717 1.363 . S
C720 N718 1.356 . S
C721 C715 1.363 . S
C721 C716 1.379 . S
C721 N719 1.356 . S
N722 C714 1.356 . S
N722 H728 0.984 . S
N722 H729 0.984 . S
N723 C716 1.356 . S
N723 H726 0.984 . S
N723 H727 0.985 1_556 S
H724 N719 0.984 1_545 S
H725 N719 0.985 . S
H726 N723 0.984 . S
H727 N723 0.985 1_554 S
H728 N722 0.984 . S
H729 N722 0.984 . S
H730 N718 0.984 . S
H731 N718 0.985 . S
C732 C733 1.363 . S
C732 C738 1.379 . S
C732 N740 1.356 . S
C733 C732 1.363 . S
C733 C739 1.363 . S
C734 C735 1.363 . S
C734 C739 1.379 . S
C734 N741 1.356 . S
C735 C734 1.363 . S
C735 C738 1.363 . S
N736 C738 1.356 . S
N736 H748 0.984 . S
N736 H749 0.985 . S
N737 C739 1.356 . S
N737 H742 0.984 . S
N737 H743 0.985 . S
C738 C732 1.379 . S
C738 C735 1.363 . S
C738 N736 1.356 . S
C739 C733 1.363 . S
C739 C734 1.379 . S
C739 N737 1.356 . S
N740 C732 1.356 . S
N740 H746 0.984 . S
N740 H747 0.984 . S
N741 C734 1.356 . S
N741 H744 0.984 . S
N741 H745 0.985 . S
H742 N737 0.984 . S
H743 N737 0.985 . S
H744 N741 0.984 . S
H745 N741 0.985 . S
H746 N740 0.984 . S
H747 N740 0.984 . S
H748 N736 0.984 . S
H749 N736 0.985 . S
C750 C751 1.363 . S
C750 C756 1.379 . S
C750 N758 1.356 . S
C751 C750 1.363 . S
C751 C757 1.363 1_655 S
C752 C753 1.363 . S
C752 C757 1.379 . S
C752 N759 1.356 . S
C753 C752 1.363 . S
C753 C756 1.363 1_455 S
N754 C756 1.356 . S
N754 H766 0.984 . S
N754 H767 0.985 . S
N755 C757 1.356 . S
N755 H760 0.984 . S
N755 H761 0.985 . S
C756 C750 1.379 . S
C756 C753 1.363 1_655 S
C756 N754 1.356 . S
C757 C751 1.363 1_455 S
C757 C752 1.379 . S
C757 N755 1.356 . S
N758 C750 1.356 . S
N758 H764 0.984 . S
N758 H765 0.984 . S
N759 C752 1.356 . S
N759 H762 0.984 . S
N759 H763 0.985 . S
H760 N755 0.984 . S
H761 N755 0.985 . S
H762 N759 0.984 . S
H763 N759 0.985 . S
H764 N758 0.984 . S
H765 N758 0.984 . S
H766 N754 0.984 . S
H767 N754 0.985 . S
C768 C769 1.363 . S
C768 C774 1.379 . S
C768 N776 1.356 . S
C769 C768 1.363 . S
C769 C775 1.363 1_565 S
C770 C771 1.363 . S
C770 C775 1.379 . S
C770 N777 1.356 . S
C771 C770 1.363 . S
C771 C774 1.363 1_545 S
N772 C774 1.356 . S
N772 H784 0.984 . S
N772 H785 0.985 . S
N773 C775 1.356 . S
N773 H778 0.984 . S
N773 H779 0.985 . S
C774 C768 1.379 . S
C774 C771 1.363 1_565 S
C774 N772 1.356 . S
C775 C769 1.363 1_545 S
C775 C770 1.379 . S
C775 N773 1.356 . S
N776 C768 1.356 . S
N776 H782 0.984 . S
N776 H783 0.984 . S
N777 C770 1.356 . S
N777 H780 0.984 . S
N777 H781 0.985 . S
H778 N773 0.984 . S
H779 N773 0.985 . S
H780 N777 0.984 . S
H781 N777 0.985 . S
H782 N776 0.984 . S
H783 N776 0.984 . S
H784 N772 0.984 . S
H785 N772 0.985 . S
C786 C787 1.363 . S
C786 C792 1.379 . S
C786 N794 1.356 . S
C787 C786 1.363 . S
C787 C793 1.363 . S
C788 C789 1.363 . S
C788 C793 1.379 . S
C788 N795 1.356 . S
C789 C788 1.363 . S
C789 C792 1.363 . S
N790 C792 1.356 . S
N790 H802 0.984 . S
N790 H803 0.985 . S
N791 C793 1.356 . S
N791 H796 0.984 . S
N791 H797 0.985 . S
C792 C786 1.379 . S
C792 C789 1.363 . S
C792 N790 1.356 . S
C793 C787 1.363 . S
C793 C788 1.379 . S
C793 N791 1.356 . S
N794 C786 1.356 . S
N794 H800 0.984 . S
N794 H801 0.984 . S
N795 C788 1.356 . S
N795 H798 0.984 . S
N795 H799 0.985 . S
H796 N791 0.984 . S
H797 N791 0.985 . S
H798 N795 0.984 . S
H799 N795 0.985 . S
H800 N794 0.984 . S
H801 N794 0.984 . S
H802 N790 0.984 . S
H803 N790 0.985 . S
C804 C805 1.363 . S
C804 C810 1.379 . S
C804 N812 1.356 . S
C805 C804 1.363 . S
C805 C811 1.363 1_455 S
C806 C807 1.363 . S
C806 C811 1.379 . S
C806 N813 1.356 . S
C807 C806 1.363 . S
C807 C810 1.363 1_655 S
N808 C810 1.356 . S
N808 H820 0.984 . S
N808 H821 0.985 . S
N809 C811 1.356 . S
N809 H814 0.984 . S
N809 H815 0.985 . S
C810 C804 1.379 . S
C810 C807 1.363 1_455 S
C810 N808 1.356 . S
C811 C805 1.363 1_655 S
C811 C806 1.379 . S
C811 N809 1.356 . S
N812 C804 1.356 . S
N812 H818 0.984 . S
N812 H819 0.984 . S
N813 C806 1.356 . S
N813 H816 0.984 . S
N813 H817 0.985 . S
H814 N809 0.984 . S
H815 N809 0.985 . S
H816 N813 0.984 . S
H817 N813 0.985 . S
H818 N812 0.984 . S
H819 N812 0.984 . S
H820 N808 0.984 . S
H821 N808 0.985 . S
C822 C823 1.363 . S
C822 C828 1.379 1_554 S
C822 N830 1.356 . S
C823 C822 1.363 . S
C823 C829 1.363 1_565 S
C824 C825 1.363 . S
C824 C829 1.379 1_556 S
C824 N831 1.356 . S
C825 C824 1.363 . S
C825 C828 1.363 1_545 S
N826 C828 1.356 . S
N826 H838 0.984 . S
N826 H839 0.985 . S
N827 C829 1.356 . S
N827 H832 0.984 . S
N827 H833 0.985 . S
C828 C822 1.379 1_556 S
C828 C825 1.363 1_565 S
C828 N826 1.356 . S
C829 C823 1.363 1_545 S
C829 C824 1.379 1_554 S
C829 N827 1.356 . S
N830 C822 1.356 . S
N830 H836 0.984 . S
N830 H837 0.984 . S
N831 C824 1.356 . S
N831 H834 0.984 . S
N831 H835 0.985 . S
H832 N827 0.984 . S
H833 N827 0.985 . S
H834 N831 0.984 . S
H835 N831 0.985 . S
H836 N830 0.984 . S
H837 N830 0.984 . S
H838 N826 0.984 . S
H839 N826 0.985 . S
C840 C841 1.363 . S
C840 C846 1.379 . S
C840 N848 1.356 . S
C841 C840 1.363 . S
C841 C847 1.363 . S
C842 C843 1.363 . S
C842 C847 1.379 . S
C842 N849 1.356 1_556 S
C843 C842 1.363 . S
C843 C846 1.363 . S
N844 C846 1.356 . S
N844 H856 0.984 . S
N844 H857 0.985 . S
N845 C847 1.356 1_554 S
N845 H850 0.984 . S
N845 H851 0.985 . S
C846 C840 1.379 . S
C846 C843 1.363 . S
C846 N844 1.356 . S
C847 C841 1.363 . S
C847 C842 1.379 . S
C847 N845 1.356 1_556 S
N848 C840 1.356 . S
N848 H854 0.984 . S
N848 H855 0.984 . S
N849 C842 1.356 1_554 S
N849 H852 0.985 . S
N849 H853 0.985 . S
H850 N845 0.984 . S
H851 N845 0.985 . S
H852 N849 0.985 . S
H853 N849 0.985 . S
H854 N848 0.984 . S
H855 N848 0.984 . S
H856 N844 0.984 . S
H857 N844 0.985 . S
C858 C859 1.363 . S
C858 C864 1.379 . S
C858 N866 1.356 . S
C859 C858 1.363 . S
C859 C865 1.363 . S
C860 C861 1.363 . S
C860 C865 1.379 . S
C860 N867 1.356 1_554 S
C861 C860 1.363 . S
C861 C864 1.363 . S
N862 C864 1.356 . S
N862 H874 0.984 . S
N862 H875 0.985 . S
N863 C865 1.356 1_556 S
N863 H868 0.984 . S
N863 H869 0.985 . S
C864 C858 1.379 . S
C864 C861 1.363 . S
C864 N862 1.356 . S
C865 C859 1.363 . S
C865 C860 1.379 . S
C865 N863 1.356 1_554 S
N866 C858 1.356 . S
N866 H872 0.984 . S
N866 H873 0.984 . S
N867 C860 1.356 1_556 S
N867 H870 0.984 1_556 S
N867 H871 0.985 . S
H868 N863 0.984 . S
H869 N863 0.985 . S
H870 N867 0.984 1_554 S
H871 N867 0.985 . S
H872 N866 0.984 . S
H873 N866 0.984 . S
H874 N862 0.984 . S
H875 N862 0.985 . S
C876 C877 1.363 . S
C876 C882 1.379 . S
C876 N884 1.356 . S
C877 C876 1.363 . S
C877 C883 1.363 . S
C878 C879 1.363 . S
C878 C883 1.379 . S
C878 N885 1.356 . S
C879 C878 1.363 . S
C879 C882 1.363 . S
N880 C882 1.356 . S
N880 H892 0.984 . S
N880 H893 0.985 . S
N881 C883 1.356 . S
N881 H886 0.984 . S
N881 H887 0.985 . S
C882 C876 1.379 . S
C882 C879 1.363 . S
C882 N880 1.356 . S
C883 C877 1.363 . S
C883 C878 1.379 . S
C883 N881 1.356 . S
N884 C876 1.356 . S
N884 H890 0.984 . S
N884 H891 0.984 . S
N885 C878 1.356 . S
N885 H888 0.984 . S
N885 H889 0.985 . S
H886 N881 0.984 . S
H887 N881 0.985 . S
H888 N885 0.984 . S
H889 N885 0.985 . S
H890 N884 0.984 . S
H891 N884 0.984 . S
H892 N880 0.984 . S
H893 N880 0.985 . S
C894 C895 1.363 . S
C894 C900 1.379 . S
C894 N902 1.356 . S
C895 C894 1.363 . S
C895 C901 1.363 . S
C896 C897 1.363 . S
C896 C901 1.379 . S
C896 N903 1.356 . S
C897 C896 1.363 . S
C897 C900 1.363 . S
N898 C900 1.356 . S
N898 H910 0.984 . S
N898 H911 0.985 . S
N899 C901 1.356 . S
N899 H904 0.984 . S
N899 H905 0.985 . S
C900 C894 1.379 . S
C900 C897 1.363 . S
C900 N898 1.356 . S
C901 C895 1.363 . S
C901 C896 1.379 . S
C901 N899 1.356 . S
N902 C894 1.356 . S
N902 H908 0.984 . S
N902 H909 0.984 . S
N903 C896 1.356 . S
N903 H906 0.984 . S
N903 H907 0.985 . S
H904 N899 0.984 . S
H905 N899 0.985 . S
H906 N903 0.984 . S
H907 N903 0.985 . S
H908 N902 0.984 . S
H909 N902 0.984 . S
H910 N898 0.984 . S
H911 N898 0.985 . S
C912 C913 1.363 . S
C912 C918 1.379 . S
C912 N920 1.356 . S
C913 C912 1.363 . S
C913 C919 1.363 . S
C914 C915 1.363 . S
C914 C919 1.379 . S
C914 N921 1.356 . S
C915 C914 1.363 . S
C915 C918 1.363 . S
N916 C918 1.356 . S
N916 H928 0.984 . S
N916 H929 0.985 . S
N917 C919 1.356 . S
N917 H922 0.984 . S
N917 H923 0.985 . S
C918 C912 1.379 . S
C918 C915 1.363 . S
C918 N916 1.356 . S
C919 C913 1.363 . S
C919 C914 1.379 . S
C919 N917 1.356 . S
N920 C912 1.356 . S
N920 H926 0.984 . S
N920 H927 0.984 . S
N921 C914 1.356 . S
N921 H924 0.984 . S
N921 H925 0.985 . S
H922 N917 0.984 . S
H923 N917 0.985 . S
H924 N921 0.984 . S
H925 N921 0.985 . S
H926 N920 0.984 . S
H927 N920 0.984 . S
H928 N916 0.984 . S
H929 N916 0.985 . S
C930 C931 1.363 . S
C930 C936 1.379 . S
C930 N938 1.356 . S
C931 C930 1.363 . S
C931 C937 1.363 . S
C932 C933 1.363 . S
C932 C937 1.379 . S
C932 N939 1.356 . S
C933 C932 1.363 . S
C933 C936 1.363 . S
N934 C936 1.356 . S
N934 H946 0.984 . S
N934 H947 0.985 . S
N935 C937 1.356 . S
N935 H940 0.984 . S
N935 H941 0.985 . S
C936 C930 1.379 . S
C936 C933 1.363 . S
C936 N934 1.356 . S
C937 C931 1.363 . S
C937 C932 1.379 . S
C937 N935 1.356 . S
N938 C930 1.356 . S
N938 H944 0.984 . S
N938 H945 0.984 . S
N939 C932 1.356 . S
N939 H942 0.984 . S
N939 H943 0.985 . S
H940 N935 0.984 . S
H941 N935 0.985 . S
H942 N939 0.984 . S
H943 N939 0.985 . S
H944 N938 0.984 . S
H945 N938 0.984 . S
H946 N934 0.984 . S
H947 N934 0.985 . S
C409 C349 0.554 . S
C411 C9 0.544 . S
C427 C43 0.773 . S
C429 C383 0.773 . S
C445 C77 0.773 . S
C447 C213 0.773 . S
C463 C111 0.554 . S
C465 C247 0.544 . S
C481 C145 0.728 . S
C483 C281 0.727 . S
C499 C179 0.728 . S
C501 C315 0.728 . S
C517 C5 1.887 . S
C519 C190 1.836 . S
C535 C20 1.902 . S
C537 C39 1.843 1_455 S
C553 C54 1.931 . S
C555 C73 1.914 1_545 S
C571 C107 1.878 . S
C573 C88 1.908 . S
C589 C141 2.021 1_655 S
C591 C122 2.041 . S
C607 C175 1.955 1_565 S
C609 C156 1.934 . S
C625 C258 1.902 . S
C627 C209 1.843 . S
C643 C243 1.887 1_455 S
C645 C292 1.836 . S
C661 C277 1.954 1_545 S
C663 C326 1.934 . S
C679 C311 2.022 . S
C681 C360 2.041 . S
C697 C345 1.878 1_655 S
C699 C394 1.908 . S
C715 C379 1.914 1_565 S
C717 C224 1.931 . S
C733 C2 1.730 . S
C735 C308 1.731 . S
C751 C36 1.970 . S
C753 C342 1.976 . S
C769 C70 1.900 . S
C771 C376 1.900 . S
C787 C104 1.975 . S
C789 C206 1.970 . S
C805 C138 1.734 . S
C807 C240 1.729 . S
C823 C274 1.847 . S
C825 C172 1.847 . S
C841 C237 1.210 . S
C843 C33 1.216 . S
C859 C67 1.210 . S
C861 C271 1.216 . S
C877 C101 1.290 . S
C879 C305 1.288 . S
C895 C339 1.408 . S
C897 C135 1.417 . S
C913 C169 1.408 . S
C915 C373 1.417 . S
C931 C407 1.290 . S
C933 C203 1.288 . S
