# Generated by pormake.
# Topology uoe, (4)-cn, num edge types: 1
# Building blocks:
#     Node 0, Type 0, BuildingBlock: CEKHIL_clean_sbu_0, # of connection points: 4
#     Node 1, Type 0, BuildingBlock: CEKHIL_clean_sbu_0, # of connection points: 4
#     Node 2, Type 0, BuildingBlock: CEKHIL_clean_sbu_0, # of connection points: 4
#     Node 3, Type 0, BuildingBlock: CEKHIL_clean_sbu_0, # of connection points: 4
#     Node 4, Type 0, BuildingBlock: CEKHIL_clean_sbu_0, # of connection points: 4
#     Node 5, Type 0, BuildingBlock: CEKHIL_clean_sbu_0, # of connection points: 4
#     Node 6, Type 0, BuildingBlock: CEKHIL_clean_sbu_0, # of connection points: 4
#     Node 7, Type 0, BuildingBlock: CEKHIL_clean_sbu_0, # of connection points: 4
#     Node 8, Type 0, BuildingBlock: CEKHIL_clean_sbu_0, # of connection points: 4
#     Node 9, Type 0, BuildingBlock: CEKHIL_clean_sbu_0, # of connection points: 4
#     Node 10, Type 0, BuildingBlock: CEKHIL_clean_sbu_0, # of connection points: 4
#     Node 11, Type 0, BuildingBlock: CEKHIL_clean_sbu_0, # of connection points: 4
#     Node 12, Type 0, BuildingBlock: CEKHIL_clean_sbu_0, # of connection points: 4
#     Node 13, Type 0, BuildingBlock: CEKHIL_clean_sbu_0, # of connection points: 4
#     Node 14, Type 0, BuildingBlock: CEKHIL_clean_sbu_0, # of connection points: 4
#     Node 15, Type 0, BuildingBlock: CEKHIL_clean_sbu_0, # of connection points: 4
#     Node 16, Type 0, BuildingBlock: CEKHIL_clean_sbu_0, # of connection points: 4
#     Node 17, Type 0, BuildingBlock: CEKHIL_clean_sbu_0, # of connection points: 4
#     Node 18, Type 0, BuildingBlock: CEKHIL_clean_sbu_0, # of connection points: 4
#     Node 19, Type 0, BuildingBlock: CEKHIL_clean_sbu_0, # of connection points: 4
#     Node 20, Type 0, BuildingBlock: CEKHIL_clean_sbu_0, # of connection points: 4
#     Node 21, Type 0, BuildingBlock: CEKHIL_clean_sbu_0, # of connection points: 4
#     Node 22, Type 0, BuildingBlock: CEKHIL_clean_sbu_0, # of connection points: 4
#     Node 23, Type 0, BuildingBlock: CEKHIL_clean_sbu_0, # of connection points: 4
#     Node 24, Type 0, BuildingBlock: CEKHIL_clean_sbu_0, # of connection points: 4
#     Node 25, Type 0, BuildingBlock: CEKHIL_clean_sbu_0, # of connection points: 4
#     Node 26, Type 0, BuildingBlock: CEKHIL_clean_sbu_0, # of connection points: 4
#     Node 27, Type 0, BuildingBlock: CEKHIL_clean_sbu_0, # of connection points: 4
#     Node 28, Type 0, BuildingBlock: CEKHIL_clean_sbu_0, # of connection points: 4
#     Node 29, Type 0, BuildingBlock: CEKHIL_clean_sbu_0, # of connection points: 4
#     Node 30, Type 0, BuildingBlock: CEKHIL_clean_sbu_0, # of connection points: 4
#     Node 31, Type 0, BuildingBlock: CEKHIL_clean_sbu_0, # of connection points: 4
#     Edge 32, Type (0, 0), BuildingBlock: XUDNAN_clean_linker_2, # of connection points: 2
#     Edge 33, Type (0, 0), BuildingBlock: XUDNAN_clean_linker_2, # of connection points: 2
#     Edge 34, Type (0, 0), BuildingBlock: XUDNAN_clean_linker_2, # of connection points: 2
#     Edge 35, Type (0, 0), BuildingBlock: XUDNAN_clean_linker_2, # of connection points: 2
#     Edge 36, Type (0, 0), BuildingBlock: XUDNAN_clean_linker_2, # of connection points: 2
#     Edge 37, Type (0, 0), BuildingBlock: XUDNAN_clean_linker_2, # of connection points: 2
#     Edge 38, Type (0, 0), BuildingBlock: XUDNAN_clean_linker_2, # of connection points: 2
#     Edge 39, Type (0, 0), BuildingBlock: XUDNAN_clean_linker_2, # of connection points: 2
#     Edge 40, Type (0, 0), BuildingBlock: XUDNAN_clean_linker_2, # of connection points: 2
#     Edge 41, Type (0, 0), BuildingBlock: XUDNAN_clean_linker_2, # of connection points: 2
#     Edge 42, Type (0, 0), BuildingBlock: XUDNAN_clean_linker_2, # of connection points: 2
#     Edge 43, Type (0, 0), BuildingBlock: XUDNAN_clean_linker_2, # of connection points: 2
#     Edge 44, Type (0, 0), BuildingBlock: XUDNAN_clean_linker_2, # of connection points: 2
#     Edge 45, Type (0, 0), BuildingBlock: XUDNAN_clean_linker_2, # of connection points: 2
#     Edge 46, Type (0, 0), BuildingBlock: XUDNAN_clean_linker_2, # of connection points: 2
#     Edge 47, Type (0, 0), BuildingBlock: XUDNAN_clean_linker_2, # of connection points: 2
#     Edge 48, Type (0, 0), BuildingBlock: XUDNAN_clean_linker_2, # of connection points: 2
#     Edge 49, Type (0, 0), BuildingBlock: XUDNAN_clean_linker_2, # of connection points: 2
#     Edge 50, Type (0, 0), BuildingBlock: XUDNAN_clean_linker_2, # of connection points: 2
#     Edge 51, Type (0, 0), BuildingBlock: XUDNAN_clean_linker_2, # of connection points: 2
#     Edge 52, Type (0, 0), BuildingBlock: XUDNAN_clean_linker_2, # of connection points: 2
#     Edge 53, Type (0, 0), BuildingBlock: XUDNAN_clean_linker_2, # of connection points: 2
#     Edge 54, Type (0, 0), BuildingBlock: XUDNAN_clean_linker_2, # of connection points: 2
#     Edge 55, Type (0, 0), BuildingBlock: XUDNAN_clean_linker_2, # of connection points: 2
#     Edge 56, Type (0, 0), BuildingBlock: XUDNAN_clean_linker_2, # of connection points: 2
#     Edge 57, Type (0, 0), BuildingBlock: XUDNAN_clean_linker_2, # of connection points: 2
#     Edge 58, Type (0, 0), BuildingBlock: XUDNAN_clean_linker_2, # of connection points: 2
#     Edge 59, Type (0, 0), BuildingBlock: XUDNAN_clean_linker_2, # of connection points: 2
#     Edge 60, Type (0, 0), BuildingBlock: XUDNAN_clean_linker_2, # of connection points: 2
#     Edge 61, Type (0, 0), BuildingBlock: XUDNAN_clean_linker_2, # of connection points: 2
#     Edge 62, Type (0, 0), BuildingBlock: XUDNAN_clean_linker_2, # of connection points: 2
#     Edge 63, Type (0, 0), BuildingBlock: XUDNAN_clean_linker_2, # of connection points: 2
#     Edge 64, Type (0, 0), BuildingBlock: XUDNAN_clean_linker_2, # of connection points: 2
#     Edge 65, Type (0, 0), BuildingBlock: XUDNAN_clean_linker_2, # of connection points: 2
#     Edge 66, Type (0, 0), BuildingBlock: XUDNAN_clean_linker_2, # of connection points: 2
#     Edge 67, Type (0, 0), BuildingBlock: XUDNAN_clean_linker_2, # of connection points: 2
#     Edge 68, Type (0, 0), BuildingBlock: XUDNAN_clean_linker_2, # of connection points: 2
#     Edge 69, Type (0, 0), BuildingBlock: XUDNAN_clean_linker_2, # of connection points: 2
#     Edge 70, Type (0, 0), BuildingBlock: XUDNAN_clean_linker_2, # of connection points: 2
#     Edge 71, Type (0, 0), BuildingBlock: XUDNAN_clean_linker_2, # of connection points: 2
#     Edge 72, Type (0, 0), BuildingBlock: XUDNAN_clean_linker_2, # of connection points: 2
#     Edge 73, Type (0, 0), BuildingBlock: XUDNAN_clean_linker_2, # of connection points: 2
#     Edge 74, Type (0, 0), BuildingBlock: XUDNAN_clean_linker_2, # of connection points: 2
#     Edge 75, Type (0, 0), BuildingBlock: XUDNAN_clean_linker_2, # of connection points: 2
#     Edge 76, Type (0, 0), BuildingBlock: XUDNAN_clean_linker_2, # of connection points: 2
#     Edge 77, Type (0, 0), BuildingBlock: XUDNAN_clean_linker_2, # of connection points: 2
#     Edge 78, Type (0, 0), BuildingBlock: XUDNAN_clean_linker_2, # of connection points: 2
#     Edge 79, Type (0, 0), BuildingBlock: XUDNAN_clean_linker_2, # of connection points: 2
#     Edge 80, Type (0, 0), BuildingBlock: XUDNAN_clean_linker_2, # of connection points: 2
#     Edge 81, Type (0, 0), BuildingBlock: XUDNAN_clean_linker_2, # of connection points: 2
#     Edge 82, Type (0, 0), BuildingBlock: XUDNAN_clean_linker_2, # of connection points: 2
#     Edge 83, Type (0, 0), BuildingBlock: XUDNAN_clean_linker_2, # of connection points: 2
#     Edge 84, Type (0, 0), BuildingBlock: XUDNAN_clean_linker_2, # of connection points: 2
#     Edge 85, Type (0, 0), BuildingBlock: XUDNAN_clean_linker_2, # of connection points: 2
#     Edge 86, Type (0, 0), BuildingBlock: XUDNAN_clean_linker_2, # of connection points: 2
#     Edge 87, Type (0, 0), BuildingBlock: XUDNAN_clean_linker_2, # of connection points: 2
#     Edge 88, Type (0, 0), BuildingBlock: XUDNAN_clean_linker_2, # of connection points: 2
#     Edge 89, Type (0, 0), BuildingBlock: XUDNAN_clean_linker_2, # of connection points: 2
#     Edge 90, Type (0, 0), BuildingBlock: XUDNAN_clean_linker_2, # of connection points: 2
#     Edge 91, Type (0, 0), BuildingBlock: XUDNAN_clean_linker_2, # of connection points: 2
#     Edge 92, Type (0, 0), BuildingBlock: XUDNAN_clean_linker_2, # of connection points: 2
#     Edge 93, Type (0, 0), BuildingBlock: XUDNAN_clean_linker_2, # of connection points: 2
#     Edge 94, Type (0, 0), BuildingBlock: XUDNAN_clean_linker_2, # of connection points: 2
#     Edge 95, Type (0, 0), BuildingBlock: XUDNAN_clean_linker_2, # of connection points: 2
# Relax obj value: 0.179
# Max RMSD: 0.206
# Mean RMSD: 0.206
data_MOF--net-uoe--node1-CEKHIL_clean_sbu_0--edge1-XUDNAN_clean_linker_2
_symmetry_space_group_name_H-M    P1
_symmetry_Int_Tables_number       1
_symmetry_cell_setting            triclinic
loop_
_symmetry_equiv_pos_as_xyz
'x, y, z'
_cell_length_a     74.88376
_cell_length_b     74.986723
_cell_length_c     26.242987
_cell_angle_alpha  90.085766
_cell_angle_beta   90.048942
_cell_angle_gamma 89.996299
loop_
_atom_site_label
_atom_site_type_symbol
_atom_site_fract_x
_atom_site_fract_y
_atom_site_fract_z
_atom_type_partial_charge
Co0 Co 0.10233 0.46551 0.03973 0.0
O1 O 0.12288 0.44985 0.03976 0.0
O2 O 0.09795 0.44495 0.08287 0.0
C3 C 0.10131 0.47082 0.95516 0.0
O4 O 0.07823 0.47804 0.04806 0.0
Co5 Co 0.10508 0.50507 0.00581 0.0
O6 O 0.07852 0.50449 0.00779 0.0
C7 C 0.11872 0.49447 0.10678 0.0
C8 C 0.11405 0.43987 0.07127 0.0
C9 C 0.07029 0.49218 0.03157 0.0
O10 O 0.11227 0.47875 0.10015 0.0
O11 O 0.11843 0.5065 0.0722 0.0
O12 O 0.09427 0.45633 0.97357 0.0
O13 O 0.11004 0.48054 0.98716 0.0
Co14 Co 0.79472 0.85228 0.28656 0.0
O15 O 0.81069 0.87225 0.29688 0.0
O16 O 0.81339 0.84616 0.33531 0.0
C17 C 0.79305 0.85357 0.20085 0.0
O18 O 0.78096 0.82843 0.28409 0.0
Co19 Co 0.75696 0.85947 0.23937 0.0
O20 O 0.75589 0.8331 0.23838 0.0
C21 C 0.76441 0.87061 0.34383 0.0
C22 C 0.81927 0.86235 0.32913 0.0
C23 C 0.76667 0.82273 0.26154 0.0
O24 O 0.77909 0.86163 0.34316 0.0
O25 O 0.7544 0.87272 0.30483 0.0
O26 O 0.8067 0.84586 0.22229 0.0
O27 O 0.78246 0.86182 0.23137 0.0
Co28 Co 0.40513 0.54147 0.53306 0.0
O29 O 0.38615 0.55861 0.54325 0.0
O30 O 0.41226 0.55963 0.58221 0.0
C31 C 0.4039 0.53964 0.44751 0.0
O32 O 0.42806 0.52622 0.53045 0.0
Co33 Co 0.39536 0.50421 0.48777 0.0
O34 O 0.42169 0.50166 0.48427 0.0
C35 C 0.38674 0.51184 0.59389 0.0
C36 C 0.39638 0.56643 0.57637 0.0
C37 C 0.43281 0.51163 0.50769 0.0
O38 O 0.39542 0.52658 0.59029 0.0
O39 O 0.38387 0.50147 0.55605 0.0
O40 O 0.41226 0.5529 0.46901 0.0
O41 O 0.39476 0.52974 0.47795 0.0
Co42 Co 0.71732 0.16096 0.78481 0.0
O43 O 0.69986 0.14212 0.79272 0.0
O44 O 0.69982 0.1674 0.83617 0.0
C45 C 0.71871 0.16111 0.69931 0.0
O46 O 0.73295 0.1836 0.78571 0.0
Co47 Co 0.75436 0.15124 0.73754 0.0
O48 O 0.75835 0.17731 0.74338 0.0
C49 C 0.74563 0.13907 0.83982 0.0
C50 C 0.69282 0.1517 0.82869 0.0
C51 C 0.74818 0.18826 0.76668 0.0
O52 O 0.73213 0.14964 0.83951 0.0
O53 O 0.75561 0.13647 0.80101 0.0
O54 O 0.70567 0.1694 0.7221 0.0
O55 O 0.72872 0.1515 0.72816 0.0
Co56 Co 0.10123 0.54377 0.54812 0.0
O57 O 0.12312 0.5575 0.55093 0.0
O58 O 0.09796 0.56678 0.51563 0.0
C59 C 0.10086 0.53397 0.62921 0.0
O60 O 0.076 0.53383 0.53822 0.0
Co61 Co 0.10099 0.50279 0.56254 0.0
O62 O 0.07456 0.50535 0.56446 0.0
C63 C 0.11466 0.51792 0.46687 0.0
C64 C 0.11473 0.56976 0.52536 0.0
C65 C 0.06708 0.51955 0.54851 0.0
O66 O 0.10932 0.53339 0.48143 0.0
O67 O 0.11354 0.50398 0.4948 0.0
O68 O 0.09499 0.54986 0.61833 0.0
O69 O 0.10836 0.5254 0.59227 0.0
Co70 Co 0.72552 0.85763 0.78565 0.0
O71 O 0.71005 0.87811 0.78911 0.0
O72 O 0.70199 0.85186 0.7583 0.0
C73 C 0.73806 0.85944 0.86359 0.0
O74 O 0.73835 0.83351 0.77679 0.0
Co75 Co 0.76658 0.86513 0.78822 0.0
O76 O 0.76779 0.83872 0.78784 0.0
C77 C 0.74574 0.87549 0.6996 0.0
C78 C 0.69808 0.8686 0.76587 0.0
C79 C 0.75472 0.8281 0.78045 0.0
O80 O 0.73294 0.86564 0.71587 0.0
O81 O 0.75992 0.87857 0.7253 0.0
O82 O 0.7223 0.85226 0.8585 0.0
O83 O 0.74408 0.8673 0.82362 0.0
Co84 Co 0.41604 0.4674 0.03858 0.0
O85 O 0.39257 0.45672 0.03538 0.0
O86 O 0.4177 0.44269 0.0166 0.0
C87 C 0.41336 0.48152 0.114 0.0
O88 O 0.4427 0.47409 0.03805 0.0
Co89 Co 0.41989 0.50887 0.03682 0.0
O90 O 0.44567 0.50387 0.0462 0.0
C91 C 0.40624 0.4896 0.94787 0.0
C92 C 0.40034 0.44238 0.01857 0.0
C93 C 0.45238 0.48829 0.04312 0.0
O94 O 0.4128 0.47509 0.96592 0.0
O95 O 0.40614 0.5043 0.97266 0.0
O96 O 0.41715 0.46456 0.113 0.0
O97 O 0.40936 0.48851 0.07071 0.0
Co98 Co 0.7822 0.14962 0.28162 0.0
O99 O 0.79922 0.13024 0.28568 0.0
O100 O 0.80489 0.15656 0.25129 0.0
C101 C 0.77088 0.14804 0.36108 0.0
O102 O 0.76806 0.17306 0.27284 0.0
Co103 Co 0.74156 0.14102 0.28967 0.0
O104 O 0.73926 0.16733 0.29171 0.0
C105 C 0.76074 0.13126 0.19737 0.0
C106 C 0.81033 0.14047 0.26158 0.0
C107 C 0.75179 0.17819 0.28093 0.0
O108 O 0.77422 0.14036 0.21315 0.0
O109 O 0.74669 0.12866 0.22391 0.0
O110 O 0.7861 0.15603 0.35346 0.0
O111 O 0.76467 0.13939 0.32248 0.0
Co112 Co 0.90848 0.53953 0.02628 0.0
O113 O 0.88635 0.5525 0.02005 0.0
O114 O 0.91295 0.56371 0.00249 0.0
C115 C 0.90343 0.52642 0.10196 0.0
O116 O 0.93424 0.52983 0.02958 0.0
Co117 Co 0.90684 0.49786 0.02683 0.0
O118 O 0.93209 0.50049 0.04797 0.0
C119 C 0.89713 0.5179 0.93583 0.0
C120 C 0.89565 0.56571 0.00236 0.0
C121 C 0.94121 0.51474 0.04285 0.0
O122 O 0.90532 0.53155 0.95396 0.0
O123 O 0.8948 0.5035 0.96093 0.0
O124 O 0.90908 0.54286 0.10064 0.0
O125 O 0.89898 0.51976 0.05862 0.0
Co126 Co 0.21595 0.16456 0.79611 0.0
O127 O 0.20473 0.14154 0.78669 0.0
O128 O 0.19203 0.16734 0.76838 0.0
C129 C 0.22743 0.15974 0.87385 0.0
O130 O 0.22334 0.19089 0.80087 0.0
Co131 Co 0.25733 0.16737 0.80585 0.0
O132 O 0.25265 0.19297 0.81926 0.0
C133 C 0.24092 0.15791 0.70791 0.0
C134 C 0.19115 0.15 0.76769 0.0
C135 C 0.23745 0.20013 0.81153 0.0
O136 O 0.22566 0.16268 0.72543 0.0
O137 O 0.25513 0.1574 0.73502 0.0
O138 O 0.21076 0.16437 0.86927 0.0
O139 O 0.23581 0.15639 0.83214 0.0
Co140 Co 0.59703 0.46375 0.54537 0.0
O141 O 0.62058 0.45348 0.5403 0.0
O142 O 0.59695 0.4432 0.49934 0.0
C143 C 0.59668 0.46763 0.6304 0.0
O144 O 0.57061 0.47126 0.54191 0.0
Co145 Co 0.5934 0.50305 0.58405 0.0
O146 O 0.56743 0.498 0.58037 0.0
C147 C 0.60937 0.4956 0.48445 0.0
C148 C 0.61408 0.44226 0.50752 0.0
C149 C 0.56085 0.48435 0.55816 0.0
O150 O 0.60308 0.47968 0.48673 0.0
O151 O 0.60842 0.50667 0.52151 0.0
O152 O 0.59287 0.45205 0.61124 0.0
O153 O 0.60225 0.47935 0.59838 0.0
Co154 Co 0.29889 0.85122 0.30537 0.0
O155 O 0.31302 0.87284 0.29974 0.0
O156 O 0.31954 0.84725 0.26238 0.0
C157 C 0.29395 0.85201 0.39005 0.0
O158 O 0.28829 0.82609 0.3024 0.0
Co159 Co 0.25935 0.85133 0.34113 0.0
O160 O 0.26151 0.82486 0.34083 0.0
C161 C 0.26844 0.86416 0.23827 0.0
C162 C 0.3235 0.86397 0.26944 0.0
C163 C 0.27464 0.81728 0.31877 0.0
O164 O 0.28456 0.85861 0.24418 0.0
O165 O 0.25678 0.86384 0.2739 0.0
O166 O 0.30894 0.84569 0.37253 0.0
O167 O 0.28345 0.85906 0.35679 0.0
Co168 Co 0.9085 0.46867 0.52271 0.0
O169 O 0.88824 0.45322 0.53357 0.0
O170 O 0.91443 0.45002 0.57146 0.0
C171 C 0.90703 0.47032 0.43735 0.0
O172 O 0.93247 0.48222 0.51991 0.0
Co173 Co 0.90103 0.50644 0.47635 0.0
O174 O 0.92744 0.50791 0.47772 0.0
C175 C 0.89013 0.49869 0.58033 0.0
C176 C 0.89799 0.44465 0.56624 0.0
C177 C 0.93798 0.49695 0.49956 0.0
O178 O 0.8996 0.48437 0.57924 0.0
O179 O 0.88751 0.50861 0.5415 0.0
O180 O 0.91459 0.45655 0.45847 0.0
O181 O 0.89891 0.48097 0.46799 0.0
Co182 Co 0.29705 0.16158 0.27754 0.0
O183 O 0.30933 0.13946 0.293 0.0
O184 O 0.31768 0.16611 0.32034 0.0
C185 C 0.29213 0.15581 0.19454 0.0
O186 O 0.28847 0.18735 0.26932 0.0
Co187 Co 0.2577 0.16277 0.2396 0.0
O188 O 0.26122 0.18894 0.23367 0.0
C189 C 0.26578 0.15332 0.34593 0.0
C190 C 0.32016 0.14895 0.32062 0.0
C191 C 0.27516 0.19639 0.2517 0.0
O192 O 0.282 0.15852 0.34001 0.0
O193 O 0.25452 0.15236 0.30931 0.0
O194 O 0.30754 0.16225 0.2086 0.0
O195 O 0.28109 0.15219 0.23044 0.0
Co196 Co 0.61148 0.53429 0.04379 0.0
O197 O 0.63067 0.55144 0.03934 0.0
O198 O 0.60429 0.55687 0.07407 0.0
C199 C 0.61315 0.52271 0.96454 0.0
O200 O 0.58828 0.51987 0.05322 0.0
Co201 Co 0.62091 0.49387 0.03674 0.0
O202 O 0.59458 0.49116 0.03507 0.0
C203 C 0.62949 0.51329 0.12964 0.0
C204 C 0.62037 0.56241 0.06383 0.0
C205 C 0.58347 0.50349 0.04588 0.0
O206 O 0.62064 0.52668 0.11247 0.0
O207 O 0.63243 0.49915 0.10374 0.0
O208 O 0.60497 0.53784 0.97184 0.0
O209 O 0.62196 0.51682 0.00321 0.0
Co210 Co 0.21808 0.84809 0.79321 0.0
O211 O 0.20605 0.87093 0.79453 0.0
O212 O 0.19445 0.84576 0.82322 0.0
C213 C 0.22889 0.84918 0.71318 0.0
O214 O 0.22638 0.82202 0.79775 0.0
Co215 Co 0.25942 0.84643 0.78278 0.0
O216 O 0.2557 0.82025 0.77932 0.0
C217 C 0.24346 0.8591 0.87811 0.0
C218 C 0.19295 0.86294 0.81748 0.0
C219 C 0.24077 0.81291 0.78959 0.0
O220 O 0.22816 0.85368 0.86231 0.0
O221 O 0.25757 0.85869 0.85065 0.0
O222 O 0.21245 0.84428 0.72103 0.0
O223 O 0.23739 0.85504 0.75255 0.0
Co224 Co 0.60743 0.97642 0.55527 0.0
O225 O 0.62803 0.96108 0.5546 0.0
O226 O 0.60137 0.95294 0.58221 0.0
C227 C 0.61027 0.9887 0.47734 0.0
O228 O 0.58312 0.98925 0.56042 0.0
Co229 Co 0.61504 0.01735 0.55311 0.0
O230 O 0.58869 0.01842 0.54648 0.0
C231 C 0.6236 0.99703 0.64412 0.0
C232 C 0.61825 0.9491 0.57668 0.0
C233 C 0.57785 1.00553 0.55353 0.0
O234 O 0.61436 0.98405 0.62606 0.0
O235 O 0.62697 0.01122 0.61896 0.0
O236 O 0.60307 0.97296 0.48195 0.0
O237 O 0.61766 0.99482 0.51808 0.0
Co238 Co 0.29003 0.35662 0.79386 0.0
O239 O 0.30756 0.37541 0.79742 0.0
O240 O 0.30943 0.35001 0.83974 0.0
C241 C 0.28595 0.35609 0.70868 0.0
O242 O 0.27432 0.33417 0.79845 0.0
Co243 Co 0.25198 0.36657 0.75575 0.0
O244 O 0.24839 0.34036 0.75855 0.0
C245 C 0.26289 0.37721 0.85848 0.0
C246 C 0.316 0.36578 0.83065 0.0
C247 C 0.25886 0.32947 0.78103 0.0
O248 O 0.27713 0.36785 0.85299 0.0
O249 O 0.2516 0.37966 0.82251 0.0
O250 O 0.29937 0.34764 0.72895 0.0
O251 O 0.27716 0.36628 0.7393 0.0
Co252 Co 0.91409 0.04629 0.0374 0.0
O253 O 0.89139 0.05851 0.04642 0.0
O254 O 0.91654 0.06588 0.08511 0.0
C255 C 0.91313 0.04334 0.95217 0.0
O256 O 0.94009 0.03761 0.03756 0.0
Co257 Co 0.91673 0.00763 0.99363 0.0
O258 O 0.94296 0.0114 -0.00347 0.0
C259 C 0.90257 0.01359 0.09651 0.0
C260 C 0.89954 0.06871 0.0791 0.0
C261 C 0.94971 0.0247 0.01989 0.0
O262 O 0.90795 0.02986 0.09497 0.0
O263 O 0.9034 1.00296 0.0584 0.0
O264 O 0.91805 0.0585 0.97208 0.0
O265 O 0.90746 0.03151 0.98364 0.0
Co266 Co 0.22088 0.65976 0.30119 0.0
O267 O 0.20459 0.64005 0.30814 0.0
O268 O 0.20101 0.66624 0.34565 0.0
C269 C 0.2249 0.65832 0.21612 0.0
O270 O 0.23524 0.6832 0.30112 0.0
Co271 Co 0.25941 0.65097 0.26459 0.0
O272 O 0.26075 0.67732 0.25881 0.0
C273 C 0.24868 0.6413 0.36808 0.0
C274 C 0.19549 0.6499 0.33932 0.0
C275 C 0.24995 0.68828 0.27974 0.0
O276 O 0.23439 0.65056 0.36214 0.0
O277 O 0.25985 0.63848 0.33208 0.0
O278 O 0.21105 0.66657 0.23463 0.0
O279 O 0.23425 0.64951 0.24874 0.0
Co280 Co 0.60058 0.04749 0.05819 0.0
O281 O 0.62285 0.0606 0.05909 0.0
O282 O 0.59944 0.0677 0.01184 0.0
C283 C 0.5982 0.04383 0.14299 0.0
O284 O 0.57512 0.03778 0.04882 0.0
Co285 Co 0.59818 0.00836 0.09782 0.0
O286 O 0.57203 0.01163 0.08991 0.0
C287 C 0.61577 0.01589 0.00014 0.0
C288 C 0.61578 0.07116 0.02552 0.0
C289 C 0.56548 0.0246 0.0647 0.0
O290 O 0.60984 0.03199 0.00163 0.0
O291 O 0.61385 1.0048 0.03675 0.0
O292 O 0.59337 0.05887 0.12241 0.0
O293 O 0.60565 0.03251 0.11285 0.0
Co294 Co 0.22064 0.35187 0.29045 0.0
O295 O 0.20214 0.36985 0.29211 0.0
O296 O 0.20039 0.34454 0.24919 0.0
C297 C 0.22752 0.3516 0.37401 0.0
O298 O 0.23682 0.32993 0.28101 0.0
Co299 Co 0.25948 0.36263 0.31692 0.0
O300 O 0.26341 0.33647 0.31623 0.0
C301 C 0.24479 0.3732 0.21847 0.0
C302 C 0.19336 0.35998 0.26006 0.0
C303 C 0.25262 0.32538 0.29594 0.0
O304 O 0.2309 0.36384 0.22861 0.0
O305 O 0.25775 0.37532 0.24968 0.0
O306 O 0.21388 0.34253 0.35731 0.0
O307 O 0.23499 0.36205 0.34128 0.0
Co308 Co 0.90487 0.97083 0.5481 0.0
O309 O 0.88478 0.95479 0.5447 0.0
O310 O 0.91231 0.94753 0.52284 0.0
C311 C 0.8994 0.9832 0.62487 0.0
O312 O 0.92896 0.98413 0.54831 0.0
Co313 Co 0.89704 0.01174 0.54969 0.0
O314 O 0.92279 0.01284 0.56695 0.0
C315 C 0.89191 0.99162 0.45555 0.0
C316 C 0.89552 0.94304 0.52528 0.0
C317 C 0.9339 1.00014 0.56031 0.0
O318 O 0.89983 0.97822 0.47596 0.0
O319 O 0.8881 0.0059 0.4799 0.0
O320 O 0.90724 0.9677 0.62227 0.0
O321 O 0.89311 0.98903 0.58242 0.0
Co322 Co 0.29277 0.65567 0.80256 0.0
O323 O 0.31076 0.63721 0.80468 0.0
O324 O 0.31331 0.66229 0.76106 0.0
C325 C 0.28601 0.65634 0.88611 0.0
O326 O 0.27705 0.67805 0.79369 0.0
Co327 Co 0.25371 0.64566 0.82979 0.0
O328 O 0.25059 0.6719 0.83039 0.0
C329 C 0.26747 0.63576 0.7297 0.0
C330 C 0.31998 0.64683 0.77332 0.0
C331 C 0.26144 0.68284 0.80982 0.0
O332 O 0.282 0.64403 0.74064 0.0
O333 O 0.25444 0.63412 0.76077 0.0
O334 O 0.2999 0.66495 0.86929 0.0
O335 O 0.27827 0.64597 0.85357 0.0
Co336 Co 0.41105 0.04123 0.53213 0.0
O337 O 0.38815 0.05325 0.53464 0.0
O338 O 0.41332 0.06558 0.50802 0.0
C339 C 0.41003 0.02754 0.60823 0.0
O340 O 0.43726 0.03349 0.52628 0.0
Co341 Co 0.41351 0.99979 0.53012 0.0
O342 O 0.43962 1.0038 0.53704 0.0
C343 C 0.39884 0.01895 0.44276 0.0
C344 C 0.3962 0.06699 0.51522 0.0
C345 C 0.44666 0.01916 0.53176 0.0
O346 O 0.40556 0.03341 0.46069 0.0
O347 O 0.39909 1.00416 0.46699 0.0
O348 O 0.41443 0.04433 0.60579 0.0
O349 O 0.40445 0.02051 0.56631 0.0
Co350 Co 0.71567 0.66089 0.30059 0.0
O351 O 0.70167 0.63918 0.29264 0.0
O352 O 0.69673 0.66443 0.25159 0.0
C353 C 0.71821 0.66102 0.38599 0.0
O354 O 0.72634 0.68601 0.29819 0.0
Co355 Co 0.75422 0.66134 0.34495 0.0
O356 O 0.75236 0.68776 0.34065 0.0
C357 C 0.74778 0.64644 0.24338 0.0
C358 C 0.69254 0.64779 0.25833 0.0
C359 C 0.7397 0.69501 0.31568 0.0
O360 O 0.73185 0.6528 0.2444 0.0
O361 O 0.75844 0.64707 0.28147 0.0
O362 O 0.70353 0.66673 0.36487 0.0
O363 O 0.72967 0.65388 0.35564 0.0
Co364 Co 0.10758 0.97259 0.04845 0.0
O365 O 0.12729 0.95608 0.04217 0.0
O366 O 0.1014 0.95306 0.00261 0.0
C367 C 0.1079 0.97625 0.13352 0.0
O368 O 0.08412 0.98704 0.047 0.0
Co369 Co 0.11585 0.01113 0.087 0.0
O370 O 0.08946 0.01249 0.0902 0.0
C371 C 0.12636 1.00089 0.98418 0.0
C372 C 0.11757 0.94719 0.01004 0.0
C373 C 0.07878 1.00175 0.06792 0.0
O374 O 0.11761 0.9863 0.98949 0.0
O375 O 0.12827 0.0125 0.01949 0.0
O376 O 0.10024 0.9623 0.11352 0.0
O377 O 0.11705 0.98589 0.1023 0.0
Co378 Co 0.79828 0.35085 0.80687 0.0
O379 O 0.81115 0.37316 0.80054 0.0
O380 O 0.81892 0.34789 0.76304 0.0
C381 C 0.79393 0.35119 0.89161 0.0
O382 O 0.78869 0.32524 0.80448 0.0
Co383 Co 0.75884 0.34969 0.84502 0.0
O384 O 0.76177 0.32338 0.84219 0.0
C385 C 0.76718 0.36421 0.74398 0.0
C386 C 0.822 0.36477 0.77023 0.0
C387 C 0.77515 0.31613 0.8204 0.0
O388 O 0.78309 0.35784 0.7472 0.0
O389 O 0.75602 0.36387 0.78087 0.0
O390 O 0.8092 0.34592 0.87329 0.0
O391 O 0.78291 0.35777 0.85897 0.0
Co392 Co 0.40884 0.96997 0.03063 0.0
O393 O 0.38952 0.95314 0.03942 0.0
O394 O 0.41551 0.95158 0.07942 0.0
C395 C 0.40816 0.97185 0.945 0.0
O396 O 0.43201 0.98487 0.0298 0.0
Co397 Co 0.40005 0.0074 0.9848 0.0
O398 O 0.42642 0.00972 0.98431 0.0
C399 C 0.38907 0.99919 0.08872 0.0
C400 C 0.39958 0.94507 0.07233 0.0
C401 C 0.43717 0.99947 0.00805 0.0
O402 O 0.39858 0.98489 0.08724 0.0
O403 O 0.38661 0.00932 0.05022 0.0
O404 O 0.41628 0.95851 0.96665 0.0
O405 O 0.39905 0.98189 0.97517 0.0
Co406 Co 0.78994 0.66141 0.795 0.0
O407 O 0.80157 0.6384 0.79884 0.0
O408 O 0.81467 0.66417 0.81563 0.0
C409 C 0.77525 0.6579 0.72079 0.0
O410 O 0.78244 0.68772 0.79447 0.0
Co411 Co 0.74843 0.66427 0.79925 0.0
O412 O 0.75256 0.69005 0.78699 0.0
C413 C 0.76871 0.65191 0.88779 0.0
C414 C 0.81566 0.64684 0.81488 0.0
C415 C 0.76805 0.69706 0.78911 0.0
O416 O 0.78291 0.65855 0.86815 0.0
O417 O 0.75378 0.65125 0.86413 0.0
O418 O 0.79213 0.66219 0.7205 0.0
O419 O 0.76878 0.65382 0.76469 0.0
Co420 Co 0.09936 0.04166 0.55301 0.0
O421 O 0.12171 0.05477 0.55428 0.0
O422 O 0.09595 0.06489 0.58371 0.0
C423 C 0.10068 0.03082 0.47262 0.0
O424 O 0.07359 0.03256 0.55852 0.0
Co425 Co 0.0984 1.00034 0.5411 0.0
O426 O 0.07202 1.00309 0.54275 0.0
C427 C 0.11446 0.01695 0.63115 0.0
C428 C 0.113 0.06735 0.57778 0.0
C429 C 0.0646 0.01799 0.55253 0.0
O430 O 0.10586 0.03137 0.62127 0.0
O431 O 0.11483 1.00364 0.60062 0.0
O432 O 0.0954 0.04716 0.48033 0.0
O433 O 0.10665 0.02265 0.5122 0.0
Co434 Co 0.72083 0.34661 0.29915 0.0
O435 O 0.71249 0.37082 0.29688 0.0
O436 O 0.69594 0.34817 0.32212 0.0
C437 C 0.73501 0.34636 0.22346 0.0
O438 O 0.72553 0.31957 0.30438 0.0
Co439 Co 0.76218 0.34053 0.3024 0.0
O440 O 0.75519 0.31518 0.29496 0.0
C441 C 0.74379 0.3565 0.3892 0.0
C442 C 0.69746 0.36535 0.31572 0.0
C443 C 0.73931 0.30923 0.29938 0.0
O444 O 0.72889 0.35081 0.37113 0.0
O445 O 0.75855 0.35535 0.36497 0.0
O446 O 0.71778 0.34398 0.2249 0.0
O447 O 0.74226 0.35082 0.26602 0.0
H448 H 0.97022 0.52837 0.98955 0.0
H449 H 0.95561 0.49663 0.12114 0.0
H450 H 0.98714 0.48868 0.13457 0.0
H451 H 1.00235 0.49888 0.94197 0.0
H452 H 0.01807 0.5155 0.92092 0.0
H453 H 0.99466 0.52081 0.92441 0.0
H454 H 1.00151 0.54761 0.98363 0.0
H455 H 0.02501 0.54255 0.97967 0.0
H456 H 0.0143 0.5441 0.041 0.0
H457 H 0.01918 0.48101 0.12824 0.0
H458 H 0.05096 0.47646 0.10738 0.0
H459 H 0.04594 0.51345 0.98101 0.0
C460 C 0.97381 0.52024 0.02204 0.0
C461 C 0.9605 0.51318 0.0545 0.0
C462 C 0.96561 0.50218 0.09587 0.0
C463 C 0.98349 0.49757 0.10383 0.0
C464 C 0.99623 0.5041 0.07018 0.0
C465 C 0.99176 0.5154 0.03052 0.0
C466 C 0.00814 0.51966 -0.00146 0.0
C467 C 1.00564 0.51333 0.94319 0.0
C468 C 0.0125 0.53967 0.00087 0.0
C469 C 0.02228 0.50868 0.02585 0.0
C470 C 0.01505 0.49982 0.06703 0.0
C471 C 0.0251 0.48809 0.09657 0.0
C472 C 0.04312 0.48549 0.08418 0.0
C473 C 0.05101 0.49466 0.04281 0.0
C474 C 0.04037 0.50642 0.01332 0.0
H475 H 0.77918 0.79516 0.32415 0.0
H476 H 0.74287 0.80643 0.19886 0.0
H477 H 0.73209 0.77566 0.20104 0.0
H478 H 0.79021 0.74968 0.28272 0.0
H479 H 0.79097 0.74086 0.34654 0.0
H480 H 0.7964 0.76393 0.33526 0.0
H481 H 0.77235 0.77346 0.4007 0.0
H482 H 0.76673 0.75043 0.41179 0.0
H483 H 0.74966 0.76596 0.39251 0.0
H484 H 0.72374 0.74451 0.21814 0.0
H485 H 0.72034 0.71325 0.24461 0.0
H486 H 0.76236 0.72051 0.35709 0.0
C487 C 0.76911 0.79108 0.2969 0.0
C488 C 0.7618 0.80344 0.26172 0.0
C489 C 0.74859 0.79746 0.22675 0.0
C490 C 0.74232 0.77992 0.22753 0.0
C491 C 0.7494 0.76825 0.26325 0.0
C492 C 0.76264 0.7734 0.29696 0.0
C493 C 0.76782 0.75787 0.3312 0.0
C494 C 0.78752 0.75278 0.32345 0.0
C495 C 0.76391 0.7622 0.38738 0.0
C496 C 0.75539 0.74337 0.31129 0.0
C497 C 0.74482 0.7498 0.27238 0.0
C498 C 0.73202 0.73924 0.24838 0.0
C499 C 0.73012 0.72148 0.26393 0.0
C500 C 0.74107 0.7143 0.30289 0.0
C501 C 0.75382 0.72552 0.32704 0.0
H502 H 0.46172 0.52538 0.56234 0.0
H503 H 0.447 0.48339 0.4559 0.0
H504 H 0.47741 0.47139 0.45993 0.0
H505 H 0.50634 0.5322 0.51208 0.0
H506 H 0.51625 0.53611 0.57371 0.0
H507 H 0.49313 0.54155 0.56293 0.0
H508 H 0.48411 0.52161 0.63921 0.0
H509 H 0.5072 0.51598 0.64992 0.0
H510 H 0.49096 0.49856 0.64022 0.0
H511 H 0.5094 0.46327 0.47579 0.0
H512 H 0.54136 0.46114 0.4986 0.0
H513 H 0.53585 0.50828 0.59374 0.0
C514 C 0.4649 0.51373 0.53972 0.0
C515 C 0.45175 0.50536 0.50909 0.0
C516 C 0.45663 0.49009 0.48008 0.0
C517 C 0.47395 0.48308 0.48204 0.0
C518 C 0.48647 0.49142 0.51306 0.0
C519 C 0.48227 0.50649 0.5411 0.0
C520 C 0.49845 0.51295 0.57075 0.0
C521 C 0.50386 0.53182 0.55384 0.0
C522 C 0.49497 0.51223 0.62845 0.0
C523 C 0.51228 0.4992 0.55479 0.0
C524 C 0.50506 0.48683 0.52175 0.0
C525 C 0.51524 0.4729 0.50166 0.0
C526 C 0.53339 0.47173 0.51501 0.0
C527 C 0.54125 0.48449 0.54796 0.0
C528 C 0.53036 0.49826 0.56843 0.0
H529 H 0.73211 0.21769 0.8137 0.0
H530 H 0.77963 0.20147 0.73048 0.0
H531 H 0.79162 0.2317 0.73765 0.0
H532 H 0.72882 0.26151 0.75722 0.0
H533 H 0.72166 0.27237 0.81503 0.0
H534 H 0.71657 0.24917 0.80464 0.0
H535 H 0.73196 0.24115 0.89001 0.0
H536 H 0.73715 0.26433 0.90054 0.0
H537 H 0.75474 0.24793 0.9009 0.0
H538 H 0.79892 0.2635 0.75257 0.0
H539 H 0.80042 0.29557 0.77264 0.0
H540 H 0.74848 0.29219 0.84584 0.0
C541 C 0.74503 0.22049 0.79707 0.0
C542 C 0.75485 0.20697 0.77166 0.0
C543 C 0.77173 0.21137 0.75032 0.0
C544 C 0.77876 0.22859 0.75417 0.0
C545 C 0.76885 0.24151 0.77945 0.0
C546 C 0.75234 0.23778 0.80046 0.0
C547 C 0.74448 0.25442 0.82487 0.0
C548 C 0.72684 0.25968 0.79887 0.0
C549 C 0.74193 0.25179 0.88251 0.0
C550 C 0.75913 0.26794 0.81392 0.0
C551 C 0.77308 0.26013 0.78788 0.0
C552 C 0.78808 0.26981 0.77305 0.0
C553 C 0.78882 0.28806 0.78471 0.0
C554 C 0.77462 0.29654 0.81089 0.0
C555 C 0.75963 0.2862 0.82591 0.0
H556 H 0.04219 0.49437 0.57894 0.0
H557 H 0.04758 0.54397 0.49487 0.0
H558 H 0.01561 0.54291 0.47343 0.0
H559 H 0.01095 0.47322 0.49478 0.0
H560 H 0.99794 0.46305 0.54466 0.0
H561 H 0.02131 0.46758 0.55467 0.0
H562 H 0.01371 0.48602 0.63526 0.0
H563 H 0.99032 0.48145 0.62572 0.0
H564 H 0.998 0.50416 0.63066 0.0
H565 H 0.98391 0.5362 0.45768 0.0
H566 H 0.9531 0.52566 0.4532 0.0
H567 H 0.96669 0.48048 0.54962 0.0
C568 C 0.03663 0.50505 0.55617 0.0
C569 C 0.04752 0.51926 0.53848 0.0
C570 C 0.03963 0.53299 0.50906 0.0
C571 C 0.02145 0.53247 0.49649 0.0
C572 C 0.01121 0.51823 0.51394 0.0
C573 C 0.01838 0.50485 0.5436 0.0
C574 C 1.00415 0.49122 0.55777 0.0
C575 C 0.00888 0.47267 0.5367 0.0
C576 C 1.00138 0.49069 0.6158 0.0
C577 C 0.98792 0.49897 0.53083 0.0
C578 C 0.99247 0.51452 0.50575 0.0
C579 C 0.98012 0.52414 0.47752 0.0
C580 C 0.96256 0.51794 0.47531 0.0
C581 C 0.95721 0.50222 0.50142 0.0
C582 C 0.97022 0.49253 0.5293 0.0
H583 H 0.74081 0.72182 0.79376 0.0
H584 H 0.79829 0.71715 0.77558 0.0
H585 H 0.80052 0.74986 0.76804 0.0
H586 H 0.73428 0.75836 0.70573 0.0
H587 H 0.7175 0.76916 0.74414 0.0
H588 H 0.72019 0.7453 0.74701 0.0
H589 H 0.72464 0.74715 0.84474 0.0
H590 H 0.7219 0.77099 0.84223 0.0
H591 H 0.74172 0.76155 0.87036 0.0
H592 H 0.79674 0.78266 0.76282 0.0
H593 H 0.78772 0.81404 0.76419 0.0
H594 H 0.73243 0.79831 0.78719 0.0
C595 C 0.75388 0.72763 0.78797 0.0
C596 C 0.76941 0.71681 0.7851 0.0
C597 C 0.78623 0.72506 0.77798 0.0
C598 C 0.78761 0.74365 0.77348 0.0
C599 C 0.77208 0.75386 0.77636 0.0
C600 C 0.75553 0.74621 0.78371 0.0
C601 C 0.74102 0.76037 0.78686 0.0
C602 C 0.72745 0.75816 0.74334 0.0
C603 C 0.73178 0.75999 0.83916 0.0
C604 C 0.75204 0.77721 0.78024 0.0
C605 C 0.76989 0.77303 0.77398 0.0
C606 C 0.78282 0.78611 0.76778 0.0
C607 C 0.77748 0.80397 0.76873 0.0
C608 C 0.75931 0.80881 0.77606 0.0
C609 C 0.74638 0.79514 0.78126 0.0
H610 H 0.55314 0.52499 0.04735 0.0
H611 H 0.57029 0.46966 0.05239 0.0
H612 H 0.53902 0.4599 0.05346 0.0
H613 H 0.51435 0.51957 0.13045 0.0
H614 H 0.50066 0.53482 0.09452 0.0
H615 H 0.52454 0.5377 0.09604 0.0
H616 H 0.52539 0.53674 -0.00262 0.0
H617 H 0.50153 0.53377 -0.00442 0.0
H618 H 0.51591 0.51788 0.96435 0.0
H619 H 0.50582 0.45571 0.05076 0.0
H620 H 0.4729 0.45779 0.04686 0.0
H621 H 0.47697 0.51558 0.044 0.0
C622 C 0.55032 0.51085 0.04925 0.0
C623 C 0.56432 0.49817 0.0497 0.0
C624 C 0.55993 0.47974 0.05173 0.0
C625 C 0.54215 0.47399 0.05244 0.0
C626 C 0.5287 0.48675 0.05117 0.0
C627 C 0.53252 0.50481 0.04985 0.0
C628 C 0.51543 0.51566 0.04767 0.0
C629 C 0.51364 0.52764 0.09499 0.0
C630 C 0.51452 0.52666 -0.00169 0.0
C631 C 0.50155 0.50089 0.04777 0.0
C632 C 0.50949 0.48431 0.0498 0.0
C633 C 0.49942 0.46864 0.04941 0.0
C634 C 0.48071 0.46994 0.04707 0.0
C635 C 0.47221 0.48681 0.04524 0.0
C636 C 0.48292 0.50244 0.04561 0.0
H637 H 0.76574 0.2839 0.30324 0.0
H638 H 0.70818 0.28963 0.29057 0.0
H639 H 0.7054 0.25683 0.28225 0.0
H640 H 0.77086 0.24884 0.2126 0.0
H641 H 0.78805 0.23747 0.24806 0.0
H642 H 0.78549 0.26126 0.25412 0.0
H643 H 0.78214 0.25812 0.35193 0.0
H644 H 0.78486 0.23433 0.34626 0.0
H645 H 0.76538 0.24335 0.37733 0.0
H646 H 0.70908 0.22351 0.27367 0.0
H647 H 0.71838 0.1921 0.26994 0.0
H648 H 0.77379 0.208 0.28811 0.0
C649 C 0.75248 0.27835 0.29884 0.0
C650 C 0.73713 0.28948 0.29744 0.0
C651 C 0.72011 0.28148 0.29193 0.0
C652 C 0.71843 0.26285 0.28697 0.0
C653 C 0.73388 0.2524 0.28779 0.0
C654 C 0.75056 0.25986 0.29399 0.0
C655 C 0.76508 0.2457 0.29401 0.0
C656 C 0.77814 0.24849 0.24954 0.0
C657 C 0.77494 0.24536 0.34544 0.0
C658 C 0.75398 0.22899 0.28645 0.0
C659 C 0.73602 0.23321 0.28296 0.0
C660 C 0.72309 0.22009 0.27649 0.0
C661 C 0.72857 0.20223 0.27441 0.0
C662 C 0.74687 0.19745 0.27874 0.0
C663 C 0.75975 0.21114 0.2842 0.0
H664 H 0.27764 0.2993 0.81189 0.0
H665 H 0.22499 0.31727 0.76472 0.0
H666 H 0.21355 0.28676 0.77274 0.0
H667 H 0.2765 0.25805 0.74446 0.0
H668 H 0.28796 0.24548 0.79298 0.0
H669 H 0.292 0.26904 0.78672 0.0
H670 H 0.28342 0.27368 0.88144 0.0
H671 H 0.27929 0.25011 0.88792 0.0
H672 H 0.26205 0.26592 0.90391 0.0
H673 H 0.20769 0.25413 0.78239 0.0
H674 H 0.20838 0.22134 0.79039 0.0
H675 H 0.26458 0.22405 0.83103 0.0
C676 C 0.26368 0.29685 0.80373 0.0
C677 C 0.2523 0.31084 0.78769 0.0
C678 C 0.23411 0.30691 0.77694 0.0
C679 C 0.22739 0.28957 0.78157 0.0
C680 C 0.23893 0.27611 0.79708 0.0
C681 C 0.25669 0.27948 0.80798 0.0
C682 C 0.26632 0.26235 0.82186 0.0
C683 C 0.2816 0.2585 0.78425 0.0
C684 C 0.27318 0.26306 0.87707 0.0
C685 C 0.25127 0.2489 0.81618 0.0
C686 C 0.23554 0.25716 0.80235 0.0
C687 C 0.21991 0.24749 0.79352 0.0
C688 C 0.22043 0.22884 0.79823 0.0
C689 C 0.23649 0.21998 0.81139 0.0
C690 C 0.25202 0.2303 0.82111 0.0
H691 H 0.25026 0.79265 0.356 0.0
H692 H 0.29688 0.79752 0.25844 0.0
H693 H 0.29483 0.7656 0.2376 0.0
H694 H 0.26131 0.74867 0.40527 0.0
H695 H 0.23846 0.74111 0.40653 0.0
H696 H 0.24344 0.76447 0.41428 0.0
H697 H 0.2225 0.77193 0.33871 0.0
H698 H 0.21755 0.74859 0.33048 0.0
H699 H 0.22615 0.76138 0.27782 0.0
H700 H 0.28759 0.73384 0.22482 0.0
H701 H 0.27696 0.70301 0.2248 0.0
H702 H 0.23509 0.71726 0.33218 0.0
C703 C 0.26008 0.787 0.33037 0.0
C704 C 0.27375 0.79773 0.30882 0.0
C705 C 0.28633 0.78971 0.27564 0.0
C706 C 0.28524 0.77155 0.26337 0.0
C707 C 0.27156 0.76145 0.28475 0.0
C708 C 0.25928 0.76876 0.31791 0.0
C709 C 0.24609 0.75467 0.33596 0.0
C710 C 0.24741 0.75208 0.39396 0.0
C711 C 0.22694 0.75943 0.31976 0.0
C712 C 0.25286 0.73834 0.30745 0.0
C713 C 0.26753 0.74272 0.27806 0.0
C714 C 0.27621 0.7302 0.24796 0.0
C715 C 0.27 0.71263 0.24837 0.0
C716 C 0.25522 0.70748 0.27889 0.0
C717 C 0.24641 0.72066 0.30847 0.0
H718 H 0.24793 0.22039 0.23192 0.0
H719 H 0.30319 0.21742 0.2819 0.0
H720 H 0.30335 0.24992 0.29547 0.0
H721 H 0.25164 0.26352 0.16645 0.0
H722 H 0.22978 0.2708 0.18623 0.0
H723 H 0.23421 0.24738 0.17729 0.0
H724 H 0.22363 0.24113 0.26946 0.0
H725 H 0.21928 0.26453 0.27882 0.0
H726 H 0.23397 0.25285 0.32177 0.0
H727 H 0.29733 0.28217 0.30815 0.0
H728 H 0.28592 0.31262 0.31741 0.0
H729 H 0.23424 0.29558 0.25949 0.0
C730 C 0.26016 0.22658 0.24502 0.0
C731 C 0.27559 0.21622 0.25568 0.0
C732 C 0.29121 0.22494 0.27333 0.0
C733 C 0.29144 0.24344 0.28118 0.0
C734 C 0.27597 0.25315 0.27116 0.0
C735 C 0.26063 0.2451 0.2532 0.0
C736 C 0.24567 0.25867 0.24705 0.0
C737 C 0.23999 0.26018 0.19091 0.0
C738 C 0.2297 0.25401 0.28133 0.0
C739 C 0.25496 0.27556 0.26509 0.0
C740 C 0.27245 0.27198 0.27856 0.0
C741 C 0.2837 0.28517 0.2974 0.0
C742 C 0.277 0.30249 0.30261 0.0
C743 C 0.25911 0.30669 0.28912 0.0
C744 C 0.24797 0.29293 0.26995 0.0
H745 H 0.28103 0.71342 0.78618 0.0
H746 H 0.22748 0.69509 0.82259 0.0
H747 H 0.21651 0.72586 0.81933 0.0
H748 H 0.27918 0.75333 0.8608 0.0
H749 H 0.29141 0.76683 0.81602 0.0
H750 H 0.29526 0.74314 0.81876 0.0
H751 H 0.28808 0.74046 0.72248 0.0
H752 H 0.28425 0.76416 0.71944 0.0
H753 H 0.26714 0.74889 0.69862 0.0
H754 H 0.21108 0.75863 0.81525 0.0
H755 H 0.2118 0.79148 0.80963 0.0
H756 H 0.26856 0.78919 0.77577 0.0
C757 C 0.26698 0.71586 0.79292 0.0
C758 C 0.2552 0.70167 0.80468 0.0
C759 C 0.2369 0.70559 0.8137 0.0
C760 C 0.23045 0.72309 0.81185 0.0
C761 C 0.24237 0.73674 0.80084 0.0
C762 C 0.26023 0.73341 0.79134 0.0
C763 C 0.27017 0.75073 0.78159 0.0
C764 C 0.28487 0.75368 0.82169 0.0
C765 C 0.27786 0.75107 0.7273 0.0
C766 C 0.25513 0.76419 0.78762 0.0
C767 C 0.2392 0.7558 0.79853 0.0
C768 C 0.22347 0.76538 0.8065 0.0
C769 C 0.22402 0.78407 0.80328 0.0
C770 C 0.24019 0.79306 0.79226 0.0
C771 C 0.25592 0.78284 0.7842 0.0
H772 H 0.47137 0.99175 0.53175 0.0
H773 H 0.46701 0.04952 0.53677 0.0
H774 H 0.49974 0.05177 0.54454 0.0
H775 H 0.50698 0.98751 0.6223 0.0
H776 H 0.51813 0.9697 0.58884 0.0
H777 H 0.49431 0.97238 0.58292 0.0
H778 H 0.4973 0.97413 0.48476 0.0
H779 H 0.52112 0.97132 0.49034 0.0
H780 H 0.51217 0.99033 0.45698 0.0
H781 H 0.53241 0.048 0.55395 0.0
H782 H 0.5637 0.03887 0.55947 0.0
H783 H 0.54794 0.98321 0.54708 0.0
C784 C 0.47727 1.0049 0.5343 0.0
C785 C 0.4665 0.02049 0.53369 0.0
C786 C 0.47487 0.03739 0.53696 0.0
C787 C 0.49348 0.0388 0.54157 0.0
C788 C 0.50361 0.02321 0.5426 0.0
C789 C 0.49588 0.00657 0.53863 0.0
C790 C 0.51 0.99196 0.54019 0.0
C791 C 0.50719 0.97967 0.58632 0.0
C792 C 0.51015 0.98131 0.49008 0.0
C793 C 0.52688 1.00303 0.54605 0.0
C794 C 0.52274 0.021 0.54744 0.0
C795 C 0.53583 0.03398 0.55262 0.0
C796 C 0.55365 0.02857 0.55569 0.0
C797 C 0.55848 0.01024 0.55345 0.0
C798 C 0.54478 0.99729 0.54908 0.0
H799 H 0.97498 1.0005 0.98592 0.0
H800 H 0.96898 0.04863 0.07679 0.0
H801 H 1.00099 0.04753 0.09822 0.0
H802 H 1.00584 0.97837 0.0681 0.0
H803 H 0.01901 0.96885 0.01744 0.0
H804 H 0.99568 0.97353 0.00734 0.0
H805 H 1.00353 0.99302 0.92916 0.0
H806 H 0.02689 0.98829 0.93875 0.0
H807 H 0.01925 0.01107 0.93625 0.0
H808 H 0.03293 0.04078 0.11307 0.0
H809 H 0.06372 0.03004 0.11697 0.0
H810 H 0.05017 0.98618 0.01537 0.0
C811 C 0.98039 0.0109 0.01004 0.0
C812 C 0.96932 0.02468 0.02968 0.0
C813 C 0.97706 0.03798 0.0611 0.0
C814 C 0.99526 0.03744 0.07363 0.0
C815 C 1.00566 0.02358 0.0543 0.0
C816 C 0.99861 0.01062 0.02282 0.0
C817 C 0.01286 0.99718 0.00742 0.0
C818 C 0.00805 0.97837 0.02621 0.0
C819 C 0.0158 0.99741 0.94945 0.0
C820 C 0.02899 1.00454 0.03564 0.0
C821 C 0.0244 0.01976 0.06241 0.0
C822 C 0.03672 0.02897 0.09195 0.0
C823 C 0.05428 0.02267 0.09382 0.0
C824 C 0.05961 0.00724 0.06616 0.0
C825 C 0.04664 0.99799 0.03692 0.0
H826 H 0.54053 0.99938 0.09349 0.0
H827 H 0.54634 0.04829 0.00641 0.0
H828 H 0.5145 0.04671 0.98266 0.0
H829 H 0.51045 0.97737 0.00718 0.0
H830 H 0.49732 0.96715 0.05671 0.0
H831 H 0.52055 0.9721 0.0677 0.0
H832 H 0.51213 0.99065 0.14743 0.0
H833 H 0.48888 0.98571 0.13682 0.0
H834 H 0.49619 0.00855 0.14154 0.0
H835 H 0.4825 0.03968 0.96677 0.0
H836 H 0.45182 0.02855 0.96178 0.0
H837 H 0.4659 0.98404 0.05997 0.0
C838 C 0.53515 0.00982 0.06952 0.0
C839 C 0.54609 0.024 0.05181 0.0
C840 C 0.53836 0.03733 0.02057 0.0
C841 C 0.52026 0.03652 0.00677 0.0
C842 C 0.50997 0.02233 0.02455 0.0
C843 C 0.51707 0.00925 0.05543 0.0
C844 C 0.50299 0.99546 0.06933 0.0
C845 C 0.50814 0.97692 0.04901 0.0
C846 C 0.49986 0.99508 0.12722 0.0
C847 C 0.48684 1.00284 0.04134 0.0
C848 C 0.49128 0.01832 0.01571 0.0
C849 C 0.47885 0.02763 0.98685 0.0
C850 C 0.46136 0.02111 0.98434 0.0
C851 C 0.45622 1.00537 0.01068 0.0
C852 C 0.46928 0.99608 0.03939 0.0
H853 H 0.04031 0.99213 0.52419 0.0
H854 H 0.04406 0.04458 0.59399 0.0
H855 H 0.01139 0.04481 0.60598 0.0
H856 H 0.99934 1.00042 0.45605 0.0
H857 H 0.99074 0.9782 0.46509 0.0
H858 H 0.0145 0.98189 0.46292 0.0
H859 H 0.0179 0.96668 0.55092 0.0
H860 H 0.99413 0.96303 0.55351 0.0
H861 H 1.00518 0.97488 0.60435 0.0
H862 H 0.97872 0.03944 0.61134 0.0
H863 H 0.9475 0.02993 0.60514 0.0
H864 H 0.96405 0.98097 0.52985 0.0
C865 C 0.03429 1.00367 0.54213 0.0
C866 C 0.04485 0.01834 0.55835 0.0
C867 C 0.03634 0.03321 0.58114 0.0
C868 C 0.01778 0.03343 0.58832 0.0
C869 C 0.00784 0.01874 0.57222 0.0
C870 C 0.01572 1.00418 0.54923 0.0
C871 C 1.0018 0.99036 0.53418 0.0
C872 C 1.00158 0.98756 0.47611 0.0
C873 C 1.00494 0.97269 0.56244 0.0
C874 C 0.98483 0.99945 0.55236 0.0
C875 C 0.98875 0.01575 0.57443 0.0
C876 C 0.97549 0.02676 0.59392 0.0
C877 C 0.95772 0.02118 0.59004 0.0
C878 C 0.95315 1.00471 0.56656 0.0
C879 C 0.96702 0.99359 0.54808 0.0
H880 H 0.12446 0.4778 0.87811 0.0
H881 H 0.06855 0.48035 0.9194 0.0
H882 H 0.06207 0.49709 0.84001 0.0
H883 H 0.1286 0.52004 0.82366 0.0
H884 H 0.14288 0.5133 0.77183 0.0
H885 H 0.14297 0.50089 0.83049 0.0
H886 H 0.13548 0.47182 0.78145 0.0
H887 H 0.13569 0.48407 0.72245 0.0
H888 H 0.11629 0.47124 0.73992 0.0
H889 H 0.06272 0.51679 0.76093 0.0
H890 H 0.06935 0.53331 0.68125 0.0
H891 H 0.12413 0.51487 0.68719 0.0
C892 C 0.1108 0.48153 0.86963 0.0
C893 C 0.09694 0.47775 0.90426 0.0
C894 C 0.07925 0.48296 0.8927 0.0
C895 C 0.0755 0.49256 0.84797 0.0
C896 C 0.08956 0.49643 0.81485 0.0
C897 C 0.10677 0.49062 0.82447 0.0
C898 C 0.11944 0.49624 0.78249 0.0
C899 C 0.13435 0.50834 0.80339 0.0
C900 C 0.12718 0.47987 0.75494 0.0
C901 C 0.10681 0.50652 0.74834 0.0
C902 C 0.08967 0.50672 0.76798 0.0
C903 C 0.076 0.51643 0.74476 0.0
C904 C 0.0799 0.52588 0.69989 0.0
C905 C 0.09719 0.52522 0.67833 0.0
C906 C 0.11075 0.51539 0.70282 0.0
H907 H 0.72742 0.85391 0.96238 0.0
H908 H 0.77448 0.85958 0.86755 0.0
H909 H 0.79375 0.85524 0.94226 0.0
H910 H 0.74459 0.87988 0.06298 0.0
H911 H 0.73432 0.86702 0.11301 0.0
H912 H 0.72417 0.86783 0.05091 0.0
H913 H 0.72494 0.83329 0.04619 0.0
H914 H 0.73525 0.8324 0.10823 0.0
H915 H 0.74586 0.82176 0.05459 0.0
H916 H 0.80818 0.85075 0.02828 0.0
H917 H 0.81617 0.85095 0.12017 0.0
H918 H 0.75989 0.85219 0.15851 0.0
C919 C 0.74177 0.85394 0.95735 0.0
C920 C 0.74941 0.85672 0.90895 0.0
C921 C 0.76826 0.85721 0.90402 0.0
C922 C 0.77938 0.85468 0.9463 0.0
C923 C 0.77148 0.85203 0.99358 0.0
C924 C 0.7531 0.85196 -0.00048 0.0
C925 C 0.74804 0.85095 0.0552 0.0
C926 C 0.73715 0.8674 0.07146 0.0
C927 C 0.73792 0.83357 0.06671 0.0
C928 C 0.76639 0.85087 0.07941 0.0
C929 C 0.77977 0.85093 0.04333 0.0
C930 C 0.79781 0.85074 0.05697 0.0
C931 C 0.80224 0.85083 0.10905 0.0
C932 C 0.78867 0.85165 0.14636 0.0
C933 C 0.77059 0.85155 0.13109 0.0
H934 H 0.40555 0.4721 0.21239 0.0
H935 H 0.42382 0.51621 0.11938 0.0
H936 H 0.42477 0.53561 0.19504 0.0
H937 H 0.37586 0.49815 0.28635 0.0
H938 H 0.3796 0.48617 0.34489 0.0
H939 H 0.3824 0.47502 0.28464 0.0
H940 H 0.41476 0.4663 0.30968 0.0
H941 H 0.412 0.47736 0.37017 0.0
H942 H 0.43024 0.48344 0.32898 0.0
H943 H 0.42344 0.55046 0.28114 0.0
H944 H 0.41778 0.55996 0.37022 0.0
H945 H 0.39725 0.50718 0.40413 0.0
C946 C 0.41006 0.48575 0.20831 0.0
C947 C 0.41485 0.49259 0.16024 0.0
C948 C 0.4202 0.51065 0.1559 0.0
C949 C 0.42083 0.52179 0.19872 0.0
C950 C 0.41575 0.51477 0.24551 0.0
C951 C 0.4103 0.49721 0.25054 0.0
C952 C 0.40409 0.49344 0.3043 0.0
C953 C 0.38431 0.48787 0.30506 0.0
C954 C 0.41598 0.4793 0.32977 0.0
C955 C 0.40676 0.51161 0.32836 0.0
C956 C 0.41383 0.52365 0.29419 0.0
C957 C 0.41783 0.54116 0.30825 0.0
C958 C 0.41455 0.54645 0.35877 0.0
C959 C 0.40701 0.53436 0.39403 0.0
C960 C 0.40297 0.51679 0.37824 0.0
H961 H 0.75106 0.16581 0.65458 0.0
H962 H 0.69481 0.15908 0.62102 0.0
H963 H 0.70199 0.15655 0.52899 0.0
H964 H 0.76091 0.19293 0.53765 0.0
H965 H 0.78291 0.18339 0.53199 0.0
H966 H 0.77294 0.18623 0.59398 0.0
H967 H 0.7778 0.15264 0.61212 0.0
H968 H 0.78743 0.14958 0.54996 0.0
H969 H 0.76853 0.1363 0.5691 0.0
H970 H 0.716 0.14945 0.44467 0.0
H971 H 0.73486 0.14356 0.37018 0.0
H972 H 0.78194 0.15877 0.45642 0.0
C973 C 0.74022 0.1643 0.62778 0.0
C974 C 0.72239 0.16264 0.64452 0.0
C975 C 0.70852 0.16054 0.60855 0.0
C976 C 0.7125 0.15903 0.55643 0.0
C977 C 0.73033 0.16025 0.54126 0.0
C978 C 0.74391 0.16341 0.57571 0.0
C979 C 0.76197 0.164 0.54972 0.0
C980 C 0.77017 0.18275 0.55356 0.0
C981 C 0.77467 0.14978 0.57153 0.0
C982 C 0.75657 0.15968 0.49551 0.0
C983 C 0.73827 0.15751 0.49163 0.0
C984 C 0.73025 0.1517 0.44681 0.0
C985 C 0.74116 0.14832 0.40463 0.0
C986 C 0.75987 0.15112 0.407 0.0
C987 C 0.76764 0.15691 0.45314 0.0
H988 H 0.90825 0.53667 0.20173 0.0
H989 H 0.90126 0.49012 0.10524 0.0
H990 H 0.90479 0.47056 0.17931 0.0
H991 H 0.93976 0.51712 0.29269 0.0
H992 H 0.92954 0.52775 0.34696 0.0
H993 H 0.92873 0.53833 0.28538 0.0
H994 H 0.89417 0.53993 0.29059 0.0
H995 H 0.89492 0.52957 0.35233 0.0
H996 H 0.88164 0.51982 0.30221 0.0
H997 H 0.90898 0.45574 0.26443 0.0
H998 H 0.90883 0.44741 0.35602 0.0
H999 H 0.90935 0.50348 0.39647 0.0
C1000 C 0.90766 0.52236 0.19622 0.0
C1001 C 0.9049 0.51496 0.14746 0.0
C1002 C 0.90373 0.49617 0.14194 0.0
C1003 C 0.90576 0.48487 0.18385 0.0
C1004 C 0.9086 0.49254 0.23135 0.0
C1005 C 0.90919 0.51085 0.23797 0.0
C1006 C 0.91049 0.51568 0.29376 0.0
C1007 C 0.92818 0.52529 0.30536 0.0
C1008 C 0.89434 0.5269 0.3107 0.0
C1009 C 0.91017 0.49726 0.31719 0.0
C1010 C 0.90961 0.48404 0.28065 0.0
C1011 C 0.90936 0.46597 0.29352 0.0
C1012 C 0.90932 0.46135 0.3454 0.0
C1013 C 0.90899 0.47479 0.38315 0.0
C1014 C 0.90958 0.49289 0.36864 0.0
H1015 H 0.2492 0.18223 0.92764 0.0
H1016 H 0.22551 0.12952 0.92856 0.0
H1017 H 0.24296 0.12185 0.00561 0.0
H1018 H 0.29322 0.16938 0.97132 0.0
H1019 H 0.29631 0.18869 0.01137 0.0
H1020 H 0.28241 0.19012 0.95541 0.0
H1021 H 0.25585 0.20119 0.01017 0.0
H1022 H 0.26979 0.20019 0.06601 0.0
H1023 H 0.24888 0.18829 0.06457 0.0
H1024 H 0.26244 0.11982 0.08093 0.0
H1025 H 0.27964 0.12478 0.15969 0.0
H1026 H 0.29077 0.17909 0.11329 0.0
C1027 C 0.24762 0.16918 0.94469 0.0
C1028 C 0.23598 0.15643 0.92308 0.0
C1029 C 0.23424 0.13943 0.94543 0.0
C1030 C 0.24422 0.13493 0.98867 0.0
C1031 C 0.25584 0.14764 0.00882 0.0
C1032 C 0.25738 0.16453 0.98833 0.0
C1033 C 0.27019 0.17591 0.01939 0.0
C1034 C 0.2865 0.18134 0.98745 0.0
C1035 C 0.2606 0.19236 0.04135 0.0
C1036 C 0.27537 0.16283 0.06099 0.0
C1037 C 0.26715 0.14652 0.05325 0.0
C1038 C 0.26907 0.13245 0.08726 0.0
C1039 C 0.27896 0.13535 0.13163 0.0
C1040 C 0.2868 0.15214 0.14172 0.0
C1041 C 0.28542 0.16595 0.10541 0.0
H1042 H 0.6005 0.5327 0.87001 0.0
H1043 H 0.61937 0.487 0.95588 0.0
H1044 H 0.61327 0.46747 0.88294 0.0
H1045 H 0.56599 0.50974 0.79508 0.0
H1046 H 0.57108 0.52172 0.7374 0.0
H1047 H 0.57472 0.53212 0.79851 0.0
H1048 H 0.60783 0.53794 0.77506 0.0
H1049 H 0.60421 0.52777 0.71378 0.0
H1050 H 0.62165 0.51955 0.7549 0.0
H1051 H 0.60562 0.45266 0.80055 0.0
H1052 H 0.60173 0.44462 0.70964 0.0
H1053 H 0.59066 0.50001 0.6743 0.0
C1054 C 0.60315 0.51856 0.87352 0.0
C1055 C 0.61004 0.51137 0.91918 0.0
C1056 C 0.61379 0.49286 0.92184 0.0
C1057 C 0.6103 0.48157 0.88055 0.0
C1058 C 0.60338 0.489 0.83627 0.0
C1059 C 0.60018 0.50711 0.832 0.0
C1060 C 0.59459 0.51188 0.77822 0.0
C1061 C 0.57546 0.5193 0.77727 0.0
C1062 C 0.60787 0.52506 0.75407 0.0
C1063 C 0.59552 0.4937 0.75299 0.0
C1064 C 0.60011 0.4806 0.78751 0.0
C1065 C 0.60201 0.46278 0.77307 0.0
C1066 C 0.59969 0.45831 0.72154 0.0
C1067 C 0.59598 0.4717 0.68524 0.0
C1068 C 0.59353 0.48952 0.70139 0.0
H1069 H 0.23577 0.87285 0.63715 0.0
H1070 H 0.24332 0.81778 0.68161 0.0
H1071 H 0.26261 0.81282 0.60629 0.0
H1072 H 0.23272 0.86353 0.50083 0.0
H1073 H 0.24383 0.88394 0.48331 0.0
H1074 H 0.23099 0.88292 0.54121 0.0
H1075 H 0.25872 0.89347 0.59221 0.0
H1076 H 0.27174 0.89418 0.53456 0.0
H1077 H 0.27924 0.88099 0.5878 0.0
H1078 H 0.28271 0.81464 0.52832 0.0
H1079 H 0.29781 0.82162 0.44656 0.0
H1080 H 0.27478 0.87462 0.44937 0.0
C1081 C 0.24135 0.85972 0.63048 0.0
C1082 C 0.23827 0.8457 0.66501 0.0
C1083 C 0.2457 0.82868 0.65555 0.0
C1084 C 0.25669 0.82578 0.61299 0.0
C1085 C 0.25982 0.83999 0.57998 0.0
C1086 C 0.25201 0.85651 0.58758 0.0
C1087 C 0.25686 0.86933 0.5453 0.0
C1088 C 0.2401 0.87527 0.51592 0.0
C1089 C 0.26726 0.88544 0.56624 0.0
C1090 C 0.2687 0.85751 0.51291 0.0
C1091 C 0.27054 0.84073 0.53396 0.0
C1092 C 0.28126 0.8277 0.51133 0.0
C1093 C 0.28992 0.8318 0.46528 0.0
C1094 C 0.28748 0.84865 0.44214 0.0
C1095 C 0.27687 0.86165 0.46653 0.0
H1096 H 0.59239 0.0113 0.18526 0.0
H1097 H 0.60022 0.06704 0.22317 0.0
H1098 H 0.60249 0.05903 0.31457 0.0
H1099 H 0.56575 1.00015 0.30181 0.0
H1100 H 0.57545 0.97819 0.30552 0.0
H1101 H 0.57243 0.98873 0.24442 0.0
H1102 H 0.60608 0.98429 0.22538 0.0
H1103 H 0.6093 0.97408 0.28668 0.0
H1104 H 0.62244 0.99323 0.26893 0.0
H1105 H 0.60909 0.0443 0.39812 0.0
H1106 H 0.61477 0.02475 0.47134 0.0
H1107 H 0.6 0.97857 0.38076 0.0
C1108 C 0.59414 0.02186 0.21295 0.0
C1109 C 0.59618 0.03978 0.1975 0.0
C1110 C 0.59848 0.05327 0.23456 0.0
C1111 C 0.59986 0.04881 0.28637 0.0
C1112 C 0.59845 0.03089 0.30018 0.0
C1113 C 0.59514 0.01769 0.26471 0.0
C1114 C 0.5947 0.9994 0.28923 0.0
C1115 C 0.57596 0.99113 0.28501 0.0
C1116 C 0.60898 0.98703 0.26618 0.0
C1117 C 0.5991 1.00427 0.34378 0.0
C1118 C 0.60125 0.0225 0.34916 0.0
C1119 C 0.60693 0.03008 0.39475 0.0
C1120 C 0.6102 0.0188 0.43615 0.0
C1121 C 0.6075 1.00013 0.43214 0.0
C1122 C 0.60186 0.99281 0.38523 0.0
H1123 H 0.23932 0.37664 0.44138 0.0
H1124 H 0.234 0.31961 0.41968 0.0
H1125 H 0.24979 0.31437 0.50149 0.0
H1126 H 0.28222 0.37711 0.50064 0.0
H1127 H 0.2767 0.39434 0.54593 0.0
H1128 H 0.26551 0.39355 0.48519 0.0
H1129 H 0.23479 0.39248 0.5305 0.0
H1130 H 0.24587 0.39351 0.59136 0.0
H1131 H 0.23063 0.37552 0.57765 0.0
H1132 H 0.26802 0.31565 0.58346 0.0
H1133 H 0.28276 0.32318 0.66539 0.0
H1134 H 0.27304 0.37929 0.63772 0.0
C1135 C 0.24143 0.36307 0.45415 0.0
C1136 C 0.23555 0.3485 0.42454 0.0
C1137 C 0.23834 0.33092 0.44228 0.0
C1138 C 0.24739 0.32784 0.48839 0.0
C1139 C 0.25319 0.34252 0.51669 0.0
C1140 C 0.24993 0.3598 0.50078 0.0
C1141 C 0.25659 0.37325 0.53951 0.0
C1142 C 0.27112 0.38527 0.51643 0.0
C1143 C 0.24104 0.38434 0.56103 0.0
C1144 C 0.2643 0.3609 0.57948 0.0
C1145 C 0.26253 0.34322 0.5652 0.0
C1146 C 0.26931 0.32943 0.59519 0.0
C1147 C 0.27777 0.33381 0.64137 0.0
C1148 C 0.27901 0.35178 0.65752 0.0
C1149 C 0.27221 0.36545 0.62612 0.0
H1150 H 0.92326 0.01206 0.9092 0.0
H1151 H 0.90403 0.06501 0.8725 0.0
H1152 H 0.89949 0.05553 0.78274 0.0
H1153 H 0.94639 1.00416 0.7846 0.0
H1154 H 0.94071 0.98081 0.78555 0.0
H1155 H 0.94436 0.99262 0.84453 0.0
H1156 H 0.91312 0.98257 0.87567 0.0
H1157 H 0.90917 0.97113 0.81644 0.0
H1158 H 0.89368 0.98792 0.83806 0.0
H1159 H 0.89254 0.03877 0.70213 0.0
H1160 H 0.8881 0.01767 0.63152 0.0
H1161 H 0.91387 0.97592 0.71937 0.0
C1162 C 0.91853 0.0218 0.882 0.0
C1163 C 0.91397 0.03926 0.89742 0.0
C1164 C 0.90779 0.05165 0.86099 0.0
C1165 C 0.90508 0.04633 0.81019 0.0
C1166 C 0.90905 0.02874 0.79668 0.0
C1167 C 0.91613 0.01681 0.83122 0.0
C1168 C 0.9188 0.99854 0.80761 0.0
C1169 C 0.93875 0.99376 0.80543 0.0
C1170 C 0.90805 0.9842 0.83615 0.0
C1171 C 0.91132 1.00179 0.75488 0.0
C1172 C 0.90578 0.01929 0.74944 0.0
C1173 C 0.89727 0.02518 0.7055 0.0
C1174 C 0.89474 0.01302 0.66564 0.0
C1175 C 0.9009 0.99517 0.66954 0.0
C1176 C 0.90919 0.9895 0.71501 0.0
H1177 H 0.27299 0.63262 0.95518 0.0
H1178 H 0.27997 0.68913 0.92756 0.0
H1179 H 0.26335 0.69599 0.00697 0.0
H1180 H 0.22941 0.63408 0.0099 0.0
H1181 H 0.23396 0.61744 0.05769 0.0
H1182 H 0.24587 0.61702 -0.00191 0.0
H1183 H 0.27608 0.61807 0.0463 0.0
H1184 H 0.26427 0.6182 0.10604 0.0
H1185 H 0.2801 0.63561 0.09193 0.0
H1186 H 0.24421 0.6964 0.08722 0.0
H1187 H 0.22869 0.69045 0.16895 0.0
H1188 H 0.23728 0.63378 0.14838 0.0
C1189 C 0.27108 0.64642 0.96619 0.0
C1190 C 0.27768 0.66038 0.93562 0.0
C1191 C 0.27511 0.67828 0.951 0.0
C1192 C 0.26557 0.68228 -0.0043 0.0
C1193 C 0.25906 0.66818 0.02496 0.0
C1194 C 0.2621 0.65061 0.01143 0.0
C1195 C 0.25466 0.63791 0.05091 0.0
C1196 C 0.24011 0.6259 0.02775 0.0
C1197 C 0.26968 0.6268 0.07524 0.0
C1198 C 0.24681 0.65105 0.0886 0.0
C1199 C 0.24914 0.66844 0.07249 0.0
C1200 C 0.24244 0.68284 0.10034 0.0
C1201 C 0.23352 0.67936 0.14638 0.0
C1202 C 0.23178 0.66168 0.16446 0.0
C1203 C 0.23844 0.6474 0.13511 0.0
H1204 H 0.40426 1.00481 0.90274 0.0
H1205 H 0.41842 0.95022 0.86581 0.0
H1206 H 0.42197 0.95887 0.77512 0.0
H1207 H 0.37959 0.01509 0.79412 0.0
H1208 H 0.38787 0.03756 0.78835 0.0
H1209 H 0.38698 0.02707 0.8499 0.0
H1210 H 0.42078 0.03301 0.86287 0.0
H1211 H 0.42178 0.04363 0.80137 0.0
H1212 H 0.43648 0.02528 0.81574 0.0
H1213 H 0.42071 0.9731 0.68807 0.0
H1214 H 0.41766 0.99204 0.61205 0.0
H1215 H 0.40761 0.03808 0.70801 0.0
C1216 C 0.40827 0.99465 0.87592 0.0
C1217 C 0.41097 0.9768 0.89122 0.0
C1218 C 0.41627 0.96396 0.85473 0.0
C1219 C 0.41833 0.96877 0.80331 0.0
C1220 C 0.41548 0.98653 0.78961 0.0
C1221 C 0.41088 0.99932 0.8251 0.0
C1222 C 0.4087 0.01752 0.80095 0.0
C1223 C 0.38965 0.02472 0.8088 0.0
C1224 C 0.42277 0.03063 0.82145 0.0
C1225 C 0.41213 0.0129 0.74574 0.0
C1226 C 0.41595 0.99494 0.74001 0.0
C1227 C 0.41813 0.98723 0.69221 0.0
C1228 C 0.41631 0.99812 0.6492 0.0
C1229 C 0.41267 0.01658 0.65424 0.0
C1230 C 0.41079 0.02408 0.70319 0.0
H1231 H 0.75131 0.66484 0.42679 0.0
H1232 H 0.69528 0.66264 0.4677 0.0
H1233 H 0.70376 0.66319 0.55926 0.0
H1234 H 0.76772 0.63675 0.51942 0.0
H1235 H 0.78794 0.64913 0.53124 0.0
H1236 H 0.77736 0.65027 0.46977 0.0
H1237 H 0.77557 0.6847 0.47656 0.0
H1238 H 0.7864 0.68373 0.53784 0.0
H1239 H 0.76513 0.69475 0.53141 0.0
H1240 H 0.71888 0.66015 0.64516 0.0
H1241 H 0.73882 0.65688 0.71915 0.0
H1242 H 0.785 0.66284 0.62084 0.0
C1243 C 0.74075 0.66474 0.45477 0.0
C1244 C 0.72262 0.66359 0.44027 0.0
C1245 C 0.70923 0.6636 0.47819 0.0
C1246 C 0.71395 0.66386 0.53011 0.0
C1247 C 0.73206 0.66451 0.54298 0.0
C1248 C 0.74521 0.66532 0.50627 0.0
C1249 C 0.76371 0.66553 0.52957 0.0
C1250 C 0.77483 0.64946 0.51142 0.0
C1251 C 0.77326 0.68323 0.51817 0.0
C1252 C 0.75903 0.66401 0.58536 0.0
C1253 C 0.74071 0.66347 0.59231 0.0
C1254 C 0.73321 0.66092 0.64021 0.0
C1255 C 0.74469 0.65901 0.68202 0.0
C1256 C 0.7635 0.6598 0.67585 0.0
C1257 C 0.7707 0.66241 0.62682 0.0
H1258 H 0.10731 0.04227 0.37437 0.0
H1259 H 0.08894 0.99687 0.46198 0.0
H1260 H 0.08682 0.97896 0.38424 0.0
H1261 H 0.08134 0.03274 0.25625 0.0
H1262 H 0.09944 0.03912 0.21492 0.0
H1263 H 0.09706 0.04952 0.27653 0.0
H1264 H 0.12943 0.04028 0.29936 0.0
H1265 H 0.13186 0.02976 0.23806 0.0
H1266 H 0.13577 0.01712 0.29538 0.0
H1267 H 0.08805 0.96518 0.29875 0.0
H1268 H 0.09397 0.95604 0.20994 0.0
H1269 H 0.11406 0.00909 0.17697 0.0
C1270 C 0.10241 0.02871 0.37673 0.0
C1271 C 0.09794 0.02109 0.42425 0.0
C1272 C 0.0922 1.00311 0.42621 0.0
C1273 C 0.09093 0.99277 0.38207 0.0
C1274 C 0.09577 1.00046 0.33602 0.0
C1275 C 0.1015 0.01797 0.3328 0.0
C1276 C 0.10751 0.02226 0.27896 0.0
C1277 C 0.09563 0.03677 0.25527 0.0
C1278 C 0.12732 0.02767 0.27791 0.0
C1279 C 0.10456 1.00436 0.25314 0.0
C1280 C 0.09746 0.9921 0.28664 0.0
C1281 C 0.09358 0.97465 0.272 0.0
C1282 C 0.09703 0.96957 0.22157 0.0
C1283 C 0.10455 0.9818 0.18668 0.0
C1284 C 0.10838 0.99941 0.20283 0.0
H1285 H 0.72526 0.35063 0.12338 0.0
H1286 H 0.76984 0.33621 0.22054 0.0
H1287 H 0.78935 0.33376 0.14557 0.0
H1288 H 0.7378 0.32299 0.01209 0.0
H1289 H 0.73109 0.33987 0.96716 0.0
H1290 H 0.71996 0.33816 0.02782 0.0
H1291 H 0.72725 0.37134 0.04637 0.0
H1292 H 0.73849 0.37311 0.98601 0.0
H1293 H 0.75013 0.37878 0.04395 0.0
H1294 H 0.80462 0.33454 0.06062 0.0
H1295 H 0.8145 0.33958 0.97169 0.0
H1296 H 0.76056 0.35541 0.93125 0.0
C1297 C 0.73901 0.34655 0.12857 0.0
C1298 C 0.74599 0.34341 0.17764 0.0
C1299 C 0.76418 0.33859 0.18328 0.0
C1300 C 0.77539 0.33711 0.14087 0.0
C1301 C 0.76826 0.34068 0.09304 0.0
C1302 C 0.75052 0.34535 0.08659 0.0
C1303 C 0.74665 0.35004 0.03163 0.0
C1304 C 0.73307 0.33698 0.00831 0.0
C1305 C 0.74026 0.36947 0.02673 0.0
C1306 C 0.76502 0.34754 0.00862 0.0
C1307 C 0.77725 0.34187 0.04442 0.0
C1308 C 0.79514 0.33891 0.03209 0.0
C1309 C 0.80065 0.34184 0.98165 0.0
C1310 C 0.78834 0.3479 0.94465 0.0
C1311 C 0.77033 0.35074 0.95856 0.0
H1312 H 0.11485 0.48813 0.40624 0.0
H1313 H 0.12948 0.54412 0.40857 0.0
H1314 H 0.13746 0.54245 0.31759 0.0
H1315 H 0.14886 0.47352 0.30768 0.0
H1316 H 0.13326 0.45836 0.2784 0.0
H1317 H 0.13221 0.46255 0.34603 0.0
H1318 H 0.09904 0.47186 0.33797 0.0
H1319 H 0.09983 0.46746 0.27073 0.0
H1320 H 0.09292 0.4891 0.29341 0.0
H1321 H 0.13925 0.53622 0.22495 0.0
H1322 H 0.13367 0.52619 0.13699 0.0
H1323 H 0.11755 0.47425 0.19382 0.0
C1324 C 0.12032 0.49986 0.38798 0.0
C1325 C 0.12164 0.51622 0.41445 0.0
C1326 C 0.12836 0.53144 0.38896 0.0
C1327 C 0.13306 0.53059 0.33739 0.0
C1328 C 0.13105 0.51442 0.31186 0.0
C1329 C 0.12493 0.49927 0.33631 0.0
C1330 C 0.12177 0.48422 0.29876 0.0
C1331 C 0.1348 0.46875 0.30832 0.0
C1332 C 0.10223 0.4778 0.30031 0.0
C1333 C 0.12603 0.49362 0.2492 0.0
C1334 C 0.13183 0.51086 0.25771 0.0
C1335 C 0.13505 0.52263 0.21776 0.0
C1336 C 0.13178 0.51682 0.16786 0.0
C1337 C 0.12513 0.49943 0.15833 0.0
C1338 C 0.1228 0.48756 0.19962 0.0
H1339 H 0.77348 0.88365 0.63727 0.0
H1340 H 0.71565 0.88128 0.64301 0.0
H1341 H 0.71428 0.88674 0.55043 0.0
H1342 H 0.7761 0.91674 0.5274 0.0
H1343 H 0.79466 0.9056 0.49809 0.0
H1344 H 0.7928 0.90619 0.56667 0.0
H1345 H 0.79397 0.87228 0.57428 0.0
H1346 H 0.7969 0.87019 0.50674 0.0
H1347 H 0.77879 0.85869 0.53756 0.0
H1348 H 0.71924 0.8859 0.4573 0.0
H1349 H 0.73002 0.8779 0.37154 0.0
H1350 H 0.78464 0.87935 0.42635 0.0
C1351 C 0.76053 0.88505 0.61937 0.0
C1352 C 0.74469 0.88207 0.64699 0.0
C1353 C 0.72795 0.88349 0.62225 0.0
C1354 C 0.72704 0.88676 0.56982 0.0
C1355 C 0.74298 0.88867 0.543 0.0
C1356 C 0.75943 0.88805 0.56706 0.0
C1357 C 0.77455 0.88752 0.52901 0.0
C1358 C 0.78517 0.90504 0.53047 0.0
C1359 C 0.78675 0.87121 0.53741 0.0
C1360 C 0.76404 0.88601 0.48013 0.0
C1361 C 0.74589 0.88758 0.4887 0.0
C1362 C 0.73343 0.88508 0.44991 0.0
C1363 C 0.73968 0.88046 0.4014 0.0
C1364 C 0.75817 0.87793 0.39266 0.0
C1365 C 0.77046 0.88123 0.43216 0.0
H1366 H 0.38547 0.53171 0.68067 0.0
H1367 H 0.37804 0.47787 0.62356 0.0
H1368 H 0.37745 0.4666 0.7117 0.0
H1369 H 0.41588 0.52212 0.76738 0.0
H1370 H 0.40871 0.53737 0.81644 0.0
H1371 H 0.40365 0.54203 0.75098 0.0
H1372 H 0.36991 0.5439 0.77164 0.0
H1373 H 0.37483 0.53965 0.83779 0.0
H1374 H 0.35914 0.52569 0.80419 0.0
H1375 H 0.38459 0.46051 0.80295 0.0
H1376 H 0.39628 0.4605 0.891 0.0
H1377 H 0.39902 0.51833 0.88787 0.0
C1378 C 0.38304 0.51763 0.68672 0.0
C1379 C 0.38189 0.50566 0.64536 0.0
C1380 C 0.37885 0.48732 0.65473 0.0
C1381 C 0.37849 0.48078 0.7047 0.0
C1382 C 0.38084 0.49282 0.74463 0.0
C1383 C 0.38264 0.51094 0.73621 0.0
C1384 C 0.38721 0.52083 0.78469 0.0
C1385 C 0.40491 0.53117 0.77952 0.0
C1386 C 0.37185 0.53325 0.80052 0.0
C1387 C 0.38898 0.50531 0.82093 0.0
C1388 C 0.38491 0.48929 0.79751 0.0
C1389 C 0.38739 0.473 0.82207 0.0
C1390 C 0.39423 0.47312 0.87181 0.0
C1391 C 0.39859 0.48943 0.89614 0.0
C1392 C 0.39562 0.50567 0.8705 0.0
H1393 H 0.73248 0.12915 0.1329 0.0
H1394 H 0.78939 0.11974 0.14263 0.0
H1395 H 0.79054 0.11439 0.04978 0.0
H1396 H 0.72306 0.09757 0.02099 0.0
H1397 H 0.70708 0.11311 -0.00485 0.0
H1398 H 0.70995 0.11131 0.06318 0.0
H1399 H 0.71611 0.1453 0.06808 0.0
H1400 H 0.7134 0.14708 0.0004 0.0
H1401 H 0.73376 0.15472 0.02994 0.0
H1402 H 0.78654 0.11595 0.95605 0.0
H1403 H 0.77802 0.12535 0.8692 0.0
H1404 H 0.72366 0.13405 0.92075 0.0
C1405 C 0.74502 0.1252 0.11569 0.0
C1406 C 0.7609 0.12487 0.14444 0.0
C1407 C 0.77719 0.12024 0.12075 0.0
C1408 C 0.77788 0.11694 0.06827 0.0
C1409 C 0.7621 0.1182 0.04034 0.0
C1410 C 0.74591 0.12207 0.06333 0.0
C1411 C 0.73148 0.12558 0.02427 0.0
C1412 C 0.71704 0.11102 0.026 0.0
C1413 C 0.72323 0.14428 0.03109 0.0
C1414 C 0.74236 0.1243 0.97597 0.0
C1415 C 0.75984 0.11946 0.98578 0.0
C1416 C 0.7728 0.11931 0.94764 0.0
C1417 C 0.76786 0.12471 0.89849 0.0
C1418 C 0.75022 0.13049 0.8885 0.0
C1419 C 0.73725 0.12967 0.92735 0.0
H1420 H 0.884 0.47831 0.66376 0.0
H1421 H 0.88187 0.53279 0.60872 0.0
H1422 H 0.87722 0.54351 0.6965 0.0
H1423 H 0.85195 0.48514 0.77723 0.0
H1424 H 0.86521 0.47009 0.81513 0.0
H1425 H 0.86304 0.46652 0.74745 0.0
H1426 H 0.89747 0.46641 0.73928 0.0
H1427 H 0.89983 0.47042 0.80628 0.0
H1428 H 0.91 0.48546 0.76133 0.0
H1429 H 0.88096 0.54869 0.78884 0.0
H1430 H 0.89014 0.54771 0.87914 0.0
H1431 H 0.88928 0.48986 0.87416 0.0
C1432 C 0.88188 0.49244 0.67007 0.0
C1433 C 0.8834 0.50475 0.62988 0.0
C1434 C 0.88065 0.52314 0.63918 0.0
C1435 C 0.87795 0.52934 0.68887 0.0
C1436 C 0.87764 0.51693 0.72828 0.0
C1437 C 0.87909 0.49879 0.71928 0.0
C1438 C 0.88091 0.48841 0.76826 0.0
C1439 C 0.86428 0.47686 0.77759 0.0
C1440 C 0.89807 0.47703 0.76877 0.0
C1441 C 0.8819 0.50364 0.8058 0.0
C1442 C 0.87954 0.51996 0.78228 0.0
C1443 C 0.88228 0.536 0.80804 0.0
C1444 C 0.88772 0.53531 0.85904 0.0
C1445 C 0.89042 0.51869 0.88334 0.0
C1446 C 0.88704 0.50274 0.85667 0.0
H1447 H 0.27053 0.15768 0.6468 0.0
H1448 H 0.21346 0.14733 0.6467 0.0
H1449 H 0.21457 0.14107 0.55461 0.0
H1450 H 0.27136 0.18125 0.53437 0.0
H1451 H 0.29253 0.17282 0.51222 0.0
H1452 H 0.28791 0.17369 0.57938 0.0
H1453 H 0.29456 0.13984 0.58674 0.0
H1454 H 0.29922 0.13892 0.51939 0.0
H1455 H 0.28267 0.12432 0.54664 0.0
H1456 H 0.22101 0.13925 0.46238 0.0
H1457 H 0.23221 0.14293 0.37491 0.0
H1458 H 0.28508 0.15477 0.43456 0.0
C1459 C 0.25837 0.15368 0.62759 0.0
C1460 C 0.24194 0.15298 0.65373 0.0
C1461 C 0.2262 0.14805 0.62723 0.0
C1462 C 0.22671 0.14431 0.57506 0.0
C1463 C 0.24305 0.1455 0.55014 0.0
C1464 C 0.25862 0.15002 0.57543 0.0
C1465 C 0.27405 0.15214 0.53877 0.0
C1466 C 0.28191 0.1711 0.54134 0.0
C1467 C 0.28848 0.13796 0.54847 0.0
C1468 C 0.26452 0.14883 0.48884 0.0
C1469 C 0.24675 0.14467 0.49634 0.0
C1470 C 0.23497 0.14223 0.45591 0.0
C1471 C 0.24146 0.14442 0.40637 0.0
C1472 C 0.25952 0.14919 0.39784 0.0
C1473 C 0.27123 0.15103 0.43972 0.0
H1474 H 0.63061 0.48488 0.19321 0.0
H1475 H 0.63809 0.54207 0.18823 0.0
H1476 H 0.63889 0.5431 0.28234 0.0
H1477 H 0.60011 0.48517 0.28422 0.0
H1478 H 0.60675 0.46505 0.31661 0.0
H1479 H 0.61187 0.46784 0.25035 0.0
H1480 H 0.64572 0.46306 0.26811 0.0
H1481 H 0.64021 0.45942 0.33405 0.0
H1482 H 0.65654 0.47605 0.3171 0.0
H1483 H 0.63282 0.53868 0.37472 0.0
H1484 H 0.62093 0.52917 0.4581 0.0
H1485 H 0.61652 0.47489 0.40145 0.0
C1486 C 0.63331 0.49747 0.21194 0.0
C1487 C 0.63434 0.51342 0.18388 0.0
C1488 C 0.6372 0.52978 0.20947 0.0
C1489 C 0.63782 0.53043 0.26277 0.0
C1490 C 0.63568 0.51456 0.28962 0.0
C1491 C 0.6337 0.49833 0.26501 0.0
C1492 C 0.62875 0.48369 0.30186 0.0
C1493 C 0.61081 0.47495 0.28738 0.0
C1494 C 0.64372 0.46974 0.3055 0.0
C1495 C 0.62725 0.49439 0.35045 0.0
C1496 C 0.63172 0.51207 0.34301 0.0
C1497 C 0.6297 0.52479 0.38138 0.0
C1498 C 0.62281 0.51929 0.42847 0.0
C1499 C 0.61778 0.50129 0.43632 0.0
C1500 C 0.62036 0.48872 0.39692 0.0
H1501 H 0.27325 0.85995 0.93846 0.0
H1502 H 0.21655 0.87202 0.93793 0.0
H1503 H 0.21809 0.8796 0.0293 0.0
H1504 H 0.27349 0.8376 0.05126 0.0
H1505 H 0.29496 0.84539 0.07306 0.0
H1506 H 0.29026 0.84439 0.006 0.0
H1507 H 0.29802 0.87794 -0.00273 0.0
H1508 H 0.30278 0.87903 0.06458 0.0
H1509 H 0.28671 0.89406 0.03677 0.0
H1510 H 0.22471 0.88164 0.12194 0.0
H1511 H 0.23562 0.87699 0.20948 0.0
H1512 H 0.288 0.86328 0.15006 0.0
C1513 C 0.26128 0.8647 0.95724 0.0
C1514 C 0.24481 0.86545 0.93119 0.0
C1515 C 0.22932 0.8713 0.95729 0.0
C1516 C 0.23009 0.87578 0.00906 0.0
C1517 C 0.24645 0.8744 0.03406 0.0
C1518 C 0.26179 0.86907 0.009 0.0
C1519 C 0.27716 0.86659 0.04579 0.0
C1520 C 0.28437 0.84735 0.04391 0.0
C1521 C 0.29205 0.88022 0.03548 0.0
C1522 C 0.26783 0.87047 0.09568 0.0
C1523 C 0.25024 0.87536 0.088 0.0
C1524 C 0.23855 0.87813 0.12848 0.0
C1525 C 0.24487 0.87539 0.1781 0.0
C1526 C 0.26268 0.86973 0.18676 0.0
C1527 C 0.27437 0.86777 0.1449 0.0
H1528 H 0.63143 0.02472 0.70772 0.0
H1529 H 0.62804 0.967 0.70158 0.0
H1530 H 0.63269 0.96558 0.79446 0.0
H1531 H 0.66397 0.02688 0.82041 0.0
H1532 H 0.65282 0.04602 0.8469 0.0
H1533 H 0.65402 0.04319 0.77869 0.0
H1534 H 0.61976 0.04513 0.77048 0.0
H1535 H 0.61814 0.04873 0.83784 0.0
H1536 H 0.60593 0.03067 0.8086 0.0
H1537 H 0.6312 0.97051 0.88733 0.0
H1538 H 0.62279 0.98133 0.97257 0.0
H1539 H 0.62659 0.03596 0.91903 0.0
C1540 C 0.63238 0.01177 0.7257 0.0
C1541 C 0.62937 0.99599 0.69769 0.0
C1542 C 0.63024 0.97927 0.72253 0.0
C1543 C 0.63306 0.97832 0.77517 0.0
C1544 C 0.63512 0.99419 0.80222 0.0
C1545 C 0.635 0.01063 0.77826 0.0
C1546 C 0.63472 0.02574 0.81652 0.0
C1547 C 0.65243 0.03607 0.81553 0.0
C1548 C 0.61868 0.03827 0.80784 0.0
C1549 C 0.63289 0.01524 0.86536 0.0
C1550 C 0.63393 0.99709 0.85654 0.0
C1551 C 0.6308 0.98469 0.89497 0.0
C1552 C 0.62595 0.99098 0.94327 0.0
C1553 C 0.62392 0.0095 0.95232 0.0
C1554 C 0.62808 0.02173 0.91327 0.0
H1555 H 0.27403 0.37522 0.15661 0.0
H1556 H 0.21756 0.3876 0.16411 0.0
H1557 H 0.21784 0.39603 0.0733 0.0
H1558 H 0.28658 0.40931 0.05434 0.0
H1559 H 0.30168 0.39371 0.02476 0.0
H1560 H 0.29836 0.39325 0.09281 0.0
H1561 H 0.28976 0.35982 0.08725 0.0
H1562 H 0.29298 0.36022 0.0195 0.0
H1563 H 0.27188 0.35307 0.04538 0.0
H1564 H 0.22274 0.39809 0.9804 0.0
H1565 H 0.23142 0.39197 0.89158 0.0
H1566 H 0.28454 0.37707 0.94275 0.0
C1567 C 0.26196 0.38047 0.13949 0.0
C1568 C 0.24586 0.38109 0.16724 0.0
C1569 C 0.23007 0.38724 0.14338 0.0
C1570 C 0.23013 0.39216 0.09196 0.0
C1571 C 0.24607 0.39078 0.0649 0.0
C1572 C 0.26174 0.38512 0.08781 0.0
C1573 C 0.27625 0.382 0.04857 0.0
C1574 C 0.29163 0.39537 0.05554 0.0
C1575 C 0.2831 0.36263 0.05029 0.0
C1576 C 0.26597 0.38574 3e-05 0.0
C1577 C 0.24877 0.39133 0.01036 0.0
C1578 C 0.23628 0.39407 0.97174 0.0
C1579 C 0.24134 0.39051 0.92134 0.0
C1580 C 0.25864 0.38398 0.9101 0.0
C1581 C 0.27123 0.38214 0.94997 0.0
H1582 H 0.88683 0.01981 0.39191 0.0
H1583 H 0.8895 0.96199 0.39488 0.0
H1584 H 0.88736 0.96131 0.30104 0.0
H1585 H 0.85722 0.02416 0.27619 0.0
H1586 H 0.86953 0.04336 0.25452 0.0
H1587 H 0.86721 0.03914 0.32181 0.0
H1588 H 0.90167 0.03996 0.3317 0.0
H1589 H 0.90405 0.04404 0.26466 0.0
H1590 H 0.9152 0.02526 0.29338 0.0
H1591 H 0.88955 0.96702 0.20794 0.0
H1592 H 0.89697 0.97864 0.12272 0.0
H1593 H 0.89367 0.03277 0.18119 0.0
C1594 C 0.88634 0.00698 0.37296 0.0
C1595 C 0.88822 0.99097 0.40051 0.0
C1596 C 0.88805 0.97444 0.37434 0.0
C1597 C 0.8867 0.97391 0.32115 0.0
C1598 C 0.88548 0.99001 0.29494 0.0
C1599 C 0.88521 0.00624 0.32 0.0
C1600 C 0.88631 0.02166 0.28311 0.0
C1601 C 0.86903 0.03273 0.28396 0.0
C1602 C 0.90279 0.0334 0.29386 0.0
C1603 C 0.88818 0.01155 0.23362 0.0
C1604 C 0.8872 0.99333 0.24102 0.0
C1605 C 0.89001 0.98126 0.20145 0.0
C1606 C 0.89427 0.98799 0.15324 0.0
C1607 C 0.89597 0.00661 0.14543 0.0
C1608 C 0.89244 0.01847 0.18594 0.0
H1609 H 0.23836 0.6388 0.66794 0.0
H1610 H 0.29272 0.61918 0.67282 0.0
H1611 H 0.29186 0.61381 0.57989 0.0
H1612 H 0.22204 0.60961 0.55759 0.0
H1613 H 0.20905 0.62779 0.5323 0.0
H1614 H 0.21228 0.62578 0.60015 0.0
H1615 H 0.22482 0.65802 0.60235 0.0
H1616 H 0.22188 0.65992 0.53465 0.0
H1617 H 0.24357 0.66368 0.56247 0.0
H1618 H 0.28712 0.61529 0.4868 0.0
H1619 H 0.279 0.62387 0.39925 0.0
H1620 H 0.22786 0.64344 0.45393 0.0
C1621 C 0.24974 0.63259 0.64964 0.0
C1622 C 0.26554 0.62915 0.67721 0.0
C1623 C 0.2805 0.62178 0.65203 0.0
C1624 C 0.28008 0.61859 0.59948 0.0
C1625 C 0.26458 0.62285 0.57278 0.0
C1626 C 0.24959 0.62957 0.59697 0.0
C1627 C 0.23567 0.63551 0.55863 0.0
C1628 C 0.21876 0.62398 0.56241 0.0
C1629 C 0.23125 0.65546 0.56491 0.0
C1630 C 0.24556 0.63194 0.50936 0.0
C1631 C 0.26201 0.62423 0.51833 0.0
C1632 C 0.27412 0.621 0.47913 0.0
C1633 C 0.26941 0.626 0.4295 0.0
C1634 C 0.2528 0.63438 0.41958 0.0
C1635 C 0.24062 0.63699 0.46008 0.0
H1636 H 0.38291 0.97873 0.17245 0.0
H1637 H 0.38075 0.03319 0.11747 0.0
H1638 H 0.37637 0.04391 0.20521 0.0
H1639 H 0.35057 0.98737 0.28991 0.0
H1640 H 0.36332 0.97082 0.32387 0.0
H1641 H 0.35977 0.96869 0.25605 0.0
H1642 H 0.39476 0.96597 0.24831 0.0
H1643 H 0.39756 0.96995 0.31518 0.0
H1644 H 0.40836 0.98437 0.26975 0.0
H1645 H 0.38093 0.04908 0.2964 0.0
H1646 H 0.39102 0.04832 0.38557 0.0
H1647 H 0.3894 0.99049 0.38295 0.0
C1648 C 0.38078 0.99283 0.1788 0.0
C1649 C 0.38229 1.00514 0.13849 0.0
C1650 C 0.37955 0.02352 0.14789 0.0
C1651 C 0.37699 0.02973 0.19761 0.0
C1652 C 0.37668 0.01734 0.23707 0.0
C1653 C 0.37795 0.9992 0.22813 0.0
C1654 C 0.37951 0.98887 0.2774 0.0
C1655 C 0.36229 0.9783 0.28746 0.0
C1656 C 0.39603 0.97659 0.27762 0.0
C1657 C 0.38135 1.00413 0.31472 0.0
C1658 C 0.37895 0.02041 0.29096 0.0
C1659 C 0.38217 0.03646 0.316 0.0
C1660 C 0.38812 0.03588 0.36647 0.0
C1661 C 0.391 0.01936 0.39121 0.0
C1662 C 0.38709 1.00333 0.36528 0.0
H1663 H 0.72827 0.63845 0.15895 0.0
H1664 H 0.78259 0.63992 0.21664 0.0
H1665 H 0.79398 0.63516 0.12965 0.0
H1666 H 0.73727 0.60623 0.04775 0.0
H1667 H 0.72181 0.61842 0.00827 0.0
H1668 H 0.71789 0.61658 0.07586 0.0
H1669 H 0.71612 0.65096 0.08234 0.0
H1670 H 0.72032 0.65303 0.01539 0.0
H1671 H 0.73466 0.66424 0.06041 0.0
H1672 H 0.79946 0.63783 0.03699 0.0
H1673 H 0.79854 0.64608 0.94613 0.0
H1674 H 0.74063 0.64305 0.94884 0.0
C1675 C 0.74255 0.63712 0.15357 0.0
C1676 C 0.75455 0.63968 0.19436 0.0
C1677 C 0.77314 0.63794 0.1859 0.0
C1678 C 0.77974 0.63517 0.13661 0.0
C1679 C 0.76755 0.63383 0.09664 0.0
C1680 C 0.7493 0.63438 0.10476 0.0
C1681 C 0.73907 0.63533 0.05518 0.0
C1682 C 0.72839 0.61811 0.04624 0.0
C1683 C 0.72685 0.65187 0.05326 0.0
C1684 C 0.75443 0.63681 0.01819 0.0
C1685 C 0.77075 0.6354 0.04258 0.0
C1686 C 0.78679 0.63847 0.01719 0.0
C1687 C 0.78611 0.64336 0.96575 0.0
C1688 C 0.76949 0.64529 0.94056 0.0
C1689 C 0.75354 0.64149 0.96691 0.0
H1690 H 0.12119 0.03036 0.92623 0.0
H1691 H 0.1466 0.97852 0.92805 0.0
H1692 H 0.15292 0.98104 0.83625 0.0
H1693 H 0.09725 0.02336 0.8247 0.0
H1694 H 0.09828 0.04514 0.79586 0.0
H1695 H 0.10146 0.04285 0.86324 0.0
H1696 H 0.13218 0.05862 0.85702 0.0
H1697 H 0.12894 0.06124 0.78931 0.0
H1698 H 0.14873 0.05038 0.81306 0.0
H1699 H 0.1498 0.9852 0.74505 0.0
H1700 H 0.13729 0.99042 0.65994 0.0
H1701 H 0.11245 0.03922 0.71412 0.0
C1702 C 0.12897 0.02009 0.9075 0.0
C1703 C 0.1338 1.00445 0.93372 0.0
C1704 C 0.14313 0.99072 0.90827 0.0
C1705 C 0.14685 0.9921 0.85629 0.0
C1706 C 0.14103 0.00726 0.83046 0.0
C1707 C 0.13243 0.02115 0.85519 0.0
C1708 C 0.12439 0.03414 0.8173 0.0
C1709 C 0.10416 0.03648 0.82579 0.0
C1710 C 0.13415 0.05216 0.8193 0.0
C1711 C 0.12833 0.02447 0.76791 0.0
C1712 C 0.13857 0.0094 0.7763 0.0
C1713 C 0.14218 0.99719 0.73771 0.0
C1714 C 0.13483 1.00019 0.68955 0.0
C1715 C 0.12376 0.01517 0.68049 0.0
C1716 C 0.12098 0.02774 0.71982 0.0
H1717 H 0.78701 0.36867 0.65777 0.0
H1718 H 0.73311 0.37376 0.71693 0.0
H1719 H 0.72187 0.37859 0.62997 0.0
H1720 H 0.78089 0.4005 0.54447 0.0
H1721 H 0.79476 0.38638 0.5054 0.0
H1722 H 0.79919 0.38841 0.57273 0.0
H1723 H 0.79727 0.35406 0.58151 0.0
H1724 H 0.79258 0.3519 0.5148 0.0
H1725 H 0.77732 0.34266 0.56085 0.0
H1726 H 0.71561 0.37541 0.53808 0.0
H1727 H 0.7151 0.36612 0.44796 0.0
H1728 H 0.77303 0.36329 0.4482 0.0
C1729 C 0.77293 0.37143 0.65267 0.0
C1730 C 0.76094 0.37068 0.69403 0.0
C1731 C 0.74258 0.37425 0.68581 0.0
C1732 C 0.73606 0.37711 0.63652 0.0
C1733 C 0.74811 0.37669 0.59615 0.0
C1734 C 0.76623 0.37429 0.60379 0.0
C1735 C 0.77602 0.37183 0.55393 0.0
C1736 C 0.78845 0.38773 0.54352 0.0
C1737 C 0.78638 0.35406 0.55275 0.0
C1738 C 0.76039 0.37167 0.51752 0.0
C1739 C 0.74445 0.37499 0.54236 0.0
C1740 C 0.72802 0.3733 0.51784 0.0
C1741 C 0.72786 0.36783 0.46683 0.0
C1742 C 0.74404 0.36394 0.44118 0.0
C1743 C 0.76046 0.36639 0.46659 0.0
H1744 H 0.12947 0.43852 0.16517 0.0
H1745 H 0.11863 0.40666 0.03098 0.0
H1746 H 0.13517 0.38128 0.06922 0.0
H1747 H 0.17369 0.42427 0.18149 0.0
H1748 H 0.1732 0.42427 0.25016 0.0
H1749 H 0.15869 0.43894 0.21519 0.0
H1750 H 0.13107 0.42558 0.26113 0.0
H1751 H 0.14569 0.41114 0.2968 0.0
H1752 H 0.12759 0.40181 0.2601 0.0
H1753 H 0.15448 0.36001 0.12046 0.0
H1754 H 0.17659 0.34546 0.17674 0.0
H1755 H 0.1758 0.39169 0.2763 0.0
C1756 C 0.13029 0.42602 0.14451 0.0
C1757 C 0.12255 0.42429 0.09566 0.0
C1758 C 0.12427 0.40804 0.06881 0.0
C1759 C 0.13361 0.3936 0.09029 0.0
C1760 C 0.14124 0.3957 0.13852 0.0
C1761 C 0.13973 0.41156 0.16523 0.0
C1762 C 0.15035 0.4109 0.21446 0.0
C1763 C 0.16484 0.42546 0.21533 0.0
C1764 C 0.13794 0.41245 0.26087 0.0
C1765 C 0.15845 0.39239 0.21078 0.0
C1766 C 0.15277 0.3837 0.16719 0.0
C1767 C 0.15889 0.36665 0.15488 0.0
C1768 C 0.17141 0.35844 0.18726 0.0
C1769 C 0.17789 0.36733 0.23122 0.0
C1770 C 0.17101 0.38442 0.24335 0.0
H1771 H 0.86094 0.93137 0.5255 0.0
H1772 H 0.91336 0.91829 0.46621 0.0
H1773 H 0.89997 0.89403 0.41445 0.0
H1774 H 0.84435 0.88546 0.52963 0.0
H1775 H 0.82209 0.89102 0.50997 0.0
H1776 H 0.83496 0.9068 0.54662 0.0
H1777 H 0.83157 0.93117 0.47927 0.0
H1778 H 0.81786 0.91672 0.44095 0.0
H1779 H 0.83758 0.92666 0.41399 0.0
H1780 H 0.8798 0.8727 0.36273 0.0
H1781 H 0.85523 0.8571 0.31695 0.0
H1782 H 0.81642 0.88517 0.40906 0.0
C1783 C 0.86972 0.92317 0.50257 0.0
C1784 C 0.88827 0.92668 0.50036 0.0
C1785 C 0.89917 0.91574 0.46916 0.0
C1786 C 0.89164 0.90195 0.43946 0.0
C1787 C 0.8732 0.89917 0.44157 0.0
C1788 C 0.86245 0.90945 0.47275 0.0
C1789 C 0.84295 0.90457 0.46651 0.0
C1790 C 0.83565 0.89652 0.51615 0.0
C1791 C 0.83184 0.92074 0.44917 0.0
C1792 C 0.84418 0.89056 0.42507 0.0
C1793 C 0.86176 0.88727 0.41182 0.0
C1794 C 0.86605 0.87508 0.37334 0.0
C1795 C 0.85205 0.86626 0.34758 0.0
C1796 C 0.83403 0.86985 0.35996 0.0
C1797 C 0.83012 0.88206 0.39936 0.0
H1798 H 0.36557 0.58575 0.56308 0.0
H1799 H 0.41111 0.5802 0.66402 0.0
H1800 H 0.3978 0.60246 0.72255 0.0
H1801 H 0.35848 0.63397 0.58258 0.0
H1802 H 0.33452 0.63178 0.58031 0.0
H1803 H 0.3484 0.61656 0.54484 0.0
H1804 H 0.33311 0.58995 0.58978 0.0
H1805 H 0.31939 0.605 0.62601 0.0
H1806 H 0.3331 0.58888 0.65842 0.0
H1807 H 0.37749 0.62273 0.77519 0.0
H1808 H 0.3529 0.64028 0.81418 0.0
H1809 H 0.32177 0.63427 0.67628 0.0
C1810 C 0.37294 0.58946 0.59699 0.0
C1811 C 0.38948 0.58127 0.60873 0.0
C1812 C 0.39854 0.58639 0.65386 0.0
C1813 C 0.39104 0.59902 0.68742 0.0
C1814 C 0.37457 0.60663 0.67507 0.0
C1815 C 0.36575 0.60218 0.63054 0.0
C1816 C 0.34787 0.61163 0.62705 0.0
C1817 C 0.34729 0.62423 0.58096 0.0
C1818 C 0.33247 0.59805 0.62521 0.0
C1819 C 0.34785 0.62197 0.67679 0.0
C1820 C 0.36333 0.61884 0.7042 0.0
C1821 C 0.36556 0.62563 0.75343 0.0
C1822 C 0.35159 0.63564 0.77525 0.0
C1823 C 0.33576 0.63909 0.74755 0.0
C1824 C 0.33402 0.63234 0.69752 0.0
H1825 H 0.668 0.1254 0.8093 0.0
H1826 H 0.68851 0.15952 0.92937 0.0
H1827 H 0.67005 0.14342 0.99234 0.0
H1828 H 0.62194 0.12265 0.86134 0.0
H1829 H 0.61915 0.0998 0.8414 0.0
H1830 H 0.63334 0.11454 0.80543 0.0
H1831 H 0.65971 0.09239 0.8157 0.0
H1832 H 0.64537 0.07772 0.85123 0.0
H1833 H 0.66614 0.08525 0.8787 0.0
H1834 H 0.65229 0.12117 0.04358 0.0
H1835 H 0.63361 0.09676 0.07811 0.0
H1836 H 0.62198 0.07883 0.92465 0.0
C1837 C 0.66828 0.12972 0.84869 0.0
C1838 C 0.67959 0.14384 0.86438 0.0
C1839 C 0.67974 0.14898 0.91633 0.0
C1840 C 0.66938 0.13981 0.95244 0.0
C1841 C 0.65857 0.12579 0.93591 0.0
C1842 C 0.65763 0.121 0.88509 0.0
C1843 C 0.64491 0.10542 0.87748 0.0
C1844 C 0.62888 0.11094 0.84446 0.0
C1845 C 0.65464 0.08924 0.85443 0.0
C1846 C 0.63925 0.10184 0.9321 0.0
C1847 C 0.64743 0.11367 0.96523 0.0
C1848 C 0.64549 0.11212 0.01791 0.0
C1849 C 0.6349 0.09822 0.03722 0.0
C1850 C 0.62606 0.08624 0.00402 0.0
C1851 C 0.62818 0.08817 0.95076 0.0
H1852 H 0.19551 0.61698 0.38159 0.0
H1853 H 0.1632 0.66464 0.36789 0.0
H1854 H 0.13893 0.64982 0.41682 0.0
H1855 H 0.16133 0.58479 0.37006 0.0
H1856 H 0.17052 0.56995 0.41724 0.0
H1857 H 0.18506 0.58445 0.38177 0.0
H1858 H 0.19742 0.59784 0.46616 0.0
H1859 H 0.18307 0.58309 0.50157 0.0
H1860 H 0.18203 0.6068 0.51235 0.0
H1861 H 0.11714 0.62803 0.46088 0.0
H1862 H 0.10136 0.60299 0.5032 0.0
H1863 H 0.14953 0.57112 0.49497 0.0
C1864 C 0.18331 0.6243 0.3889 0.0
C1865 C 0.18106 0.64185 0.37038 0.0
C1866 C 0.16511 0.65116 0.3816 0.0
C1867 C 0.15129 0.64282 0.40927 0.0
C1868 C 0.15388 0.62537 0.42657 0.0
C1869 C 0.16969 0.61639 0.41755 0.0
C1870 C 0.16949 0.59795 0.44111 0.0
C1871 C 0.17173 0.58343 0.40009 0.0
C1872 C 0.18386 0.59633 0.48276 0.0
C1873 C 0.1509 0.59766 0.46378 0.0
C1874 C 0.14199 0.61351 0.45472 0.0
C1875 C 0.12416 0.61574 0.46901 0.0
C1876 C 0.11529 0.60146 0.49298 0.0
C1877 C 0.12433 0.58527 0.50336 0.0
C1878 C 0.14241 0.58351 0.48886 0.0
H1879 H 0.65186 0.94782 0.61454 0.0
H1880 H 0.60388 0.91596 0.59952 0.0
H1881 H 0.61874 0.89126 0.64665 0.0
H1882 H 0.68445 0.91273 0.60359 0.0
H1883 H 0.69891 0.92236 0.65112 0.0
H1884 H 0.68472 0.93653 0.61335 0.0
H1885 H 0.67097 0.94975 0.69595 0.0
H1886 H 0.68502 0.93553 0.73396 0.0
H1887 H 0.66113 0.93499 0.74221 0.0
H1888 H 0.64047 0.86939 0.69363 0.0
H1889 H 0.66507 0.85431 0.74076 0.0
H1890 H 0.69666 0.90259 0.73137 0.0
C1891 C 0.64453 0.93553 0.62031 0.0
C1892 C 0.62684 0.93364 0.60229 0.0
C1893 C 0.61753 0.91759 0.61237 0.0
C1894 C 0.62588 0.90352 0.63913 0.0
C1895 C 0.64339 0.90592 0.6566 0.0
C1896 C 0.65245 0.92169 0.64793 0.0
C1897 C 0.67066 0.92163 0.67291 0.0
C1898 C 0.68556 0.92341 0.63285 0.0
C1899 C 0.67202 0.93634 0.71367 0.0
C1900 C 0.67066 0.90329 0.69676 0.0
C1901 C 0.65499 0.89421 0.68651 0.0
C1902 C 0.65264 0.87656 0.70245 0.0
C1903 C 0.66664 0.86808 0.72925 0.0
C1904 C 0.68258 0.8774 0.74089 0.0
C1905 C 0.68443 0.89525 0.7245 0.0
H1906 H 0.32079 0.40068 0.85534 0.0
H1907 H 0.34445 0.34844 0.87568 0.0
H1908 H 0.36885 0.36206 0.92695 0.0
H1909 H 0.36108 0.42634 0.84646 0.0
H1910 H 0.35232 0.44484 0.8825 0.0
H1911 H 0.33745 0.43094 0.84593 0.0
H1912 H 0.31869 0.42472 0.92706 0.0
H1913 H 0.33353 0.43858 0.96391 0.0
H1914 H 0.32951 0.41584 0.98291 0.0
H1915 H 0.39177 0.38244 0.97249 0.0
H1916 H 0.40906 0.40673 0.01405 0.0
H1917 H 0.36819 0.44466 0.97047 0.0
C1918 C 0.33121 0.3921 0.8701 0.0
C1919 C 0.33094 0.37352 0.86074 0.0
C1920 C 0.34452 0.36271 0.882 0.0
C1921 C 0.35841 0.37036 0.91112 0.0
C1922 C 0.35827 0.38878 0.91961 0.0
C1923 C 0.34483 0.39943 0.9002 0.0
C1924 C 0.3471 0.41868 0.91657 0.0
C1925 C 0.34964 0.43092 0.8701 0.0
C1926 C 0.33127 0.42481 0.94957 0.0
C1927 C 0.36408 0.41736 0.94771 0.0
C1928 C 0.37051 0.40007 0.94862 0.0
C1929 C 0.38665 0.39593 0.97264 0.0
C1930 C 0.39639 0.40979 -0.00385 0.0
C1931 C 0.38978 0.42748 -0.00352 0.0
C1932 C 0.37335 0.43118 0.97211 0.0
H1933 H 0.81695 0.1301 0.16407 0.0
H1934 H 0.84115 0.13319 0.31351 0.0
H1935 H 0.8679 0.11729 0.28075 0.0
H1936 H 0.83021 0.08536 0.14203 0.0
H1937 H 0.83348 0.08804 0.07443 0.0
H1938 H 0.81766 0.10192 0.10747 0.0
H1939 H 0.83373 0.13014 0.07424 0.0
H1940 H 0.84964 0.11636 0.04099 0.0
H1941 H 0.8573 0.13292 0.08582 0.0
H1942 H 0.89159 0.10006 0.23154 0.0
H1943 H 0.90896 0.0807 0.17356 0.0
H1944 H 0.86756 0.08565 0.05881 0.0
C1945 C 0.82801 0.12763 0.18955 0.0
C1946 C 0.82721 0.13313 0.24101 0.0
C1947 C 0.84174 0.1294 0.27371 0.0
C1948 C 0.85692 0.12034 0.25538 0.0
C1949 C 0.85716 0.11475 0.20454 0.0
C1950 C 0.84296 0.11809 0.17224 0.0
C1951 C 0.84566 0.10908 0.12092 0.0
C1952 C 0.83088 0.09528 0.11064 0.0
C1953 C 0.84665 0.12296 0.07796 0.0
C1954 C 0.8636 0.10011 0.12926 0.0
C1955 C 0.87016 0.10383 0.17741 0.0
C1956 C 0.88655 0.09709 0.1938 0.0
C1957 C 0.89637 0.08615 0.16048 0.0
C1958 C 0.88966 0.08167 0.11159 0.0
C1959 C 0.87305 0.08883 0.09591 0.0
H1960 H 0.86156 0.56678 0.96594 0.0
H1961 H 0.90966 0.59868 0.97817 0.0
H1962 H 0.89482 0.62296 0.9298 0.0
H1963 H 0.85139 0.57908 0.83781 0.0
H1964 H 0.82756 0.57896 0.84741 0.0
H1965 H 0.84166 0.5647 0.88523 0.0
H1966 H 0.82873 0.57851 0.96803 0.0
H1967 H 0.81446 0.59268 0.9305 0.0
H1968 H 0.8294 0.60236 0.97677 0.0
H1969 H 0.87385 0.64413 0.8809 0.0
H1970 H 0.84943 0.65955 0.83473 0.0
H1971 H 0.81621 0.61251 0.85001 0.0
C1972 C 0.86892 0.57897 0.9592 0.0
C1973 C 0.8867 0.58095 0.97665 0.0
C1974 C 0.89598 0.59694 0.96568 0.0
C1975 C 0.88766 0.61078 0.93812 0.0
C1976 C 0.87014 0.60829 0.92104 0.0
C1977 C 0.86096 0.5927 0.93104 0.0
C1978 C 0.84254 0.59292 0.90705 0.0
C1979 C 0.84069 0.57803 0.867 0.0
C1980 C 0.82792 0.59154 0.94803 0.0
C1981 C 0.84262 0.61117 0.88235 0.0
C1982 C 0.8586 0.61992 0.891 0.0
C1983 C 0.86138 0.63728 0.87355 0.0
C1984 C 0.84745 0.64593 0.84723 0.0
C1985 C 0.831 0.63716 0.83794 0.0
C1986 C 0.82874 0.61947 0.85542 0.0
H1987 H 0.14715 0.06844 0.61538 0.0
H1988 H 0.09941 0.10052 0.59772 0.0
H1989 H 0.11399 0.12529 0.6445 0.0
H1990 H 0.15605 0.0824 0.74351 0.0
H1991 H 0.17998 0.08201 0.73631 0.0
H1992 H 0.16624 0.06739 0.69842 0.0
H1993 H 0.18034 0.08013 0.61587 0.0
H1994 H 0.19419 0.09471 0.65358 0.0
H1995 H 0.1799 0.10386 0.60489 0.0
H1996 H 0.1343 0.14683 0.69289 0.0
H1997 H 0.15794 0.16264 0.74133 0.0
H1998 H 0.19138 0.11551 0.73295 0.0
C1999 C 0.1399 0.08081 0.62051 0.0
C2000 C 0.12226 0.08271 0.602 0.0
C2001 C 0.113 0.09888 0.61103 0.0
C2002 C 0.12118 0.113 0.63765 0.0
C2003 C 0.13852 0.11063 0.65596 0.0
C2004 C 0.14772 0.09488 0.64805 0.0
C2005 C 0.16583 0.09534 0.67397 0.0
C2006 C 0.16709 0.08093 0.71551 0.0
C2007 C 0.18096 0.0934 0.63473 0.0
C2008 C 0.16554 0.11389 0.69708 0.0
C2009 C 0.14972 0.12257 0.68605 0.0
C2010 C 0.14667 0.14008 0.70205 0.0
C2011 C 0.16015 0.14896 0.72962 0.0
C2012 C 0.17642 0.14027 0.74159 0.0
C2013 C 0.17898 0.12245 0.72527 0.0
H2014 H 0.66628 0.36016 0.37323 0.0
H2015 H 0.69867 0.40103 0.30111 0.0
H2016 H 0.68009 0.42424 0.33984 0.0
H2017 H 0.62312 0.38493 0.35952 0.0
H2018 H 0.61472 0.37752 0.42025 0.0
H2019 H 0.62982 0.36357 0.38453 0.0
H2020 H 0.6511 0.36227 0.46216 0.0
H2021 H 0.63615 0.37631 0.49798 0.0
H2022 H 0.65917 0.38276 0.48992 0.0
H2023 H 0.6614 0.44309 0.39411 0.0
H2024 H 0.63984 0.4573 0.45203 0.0
H2025 H 0.6166 0.40568 0.48585 0.0
C2026 C 0.66918 0.37398 0.36474 0.0
C2027 C 0.68407 0.37867 0.33397 0.0
C2028 C 0.68746 0.39696 0.32441 0.0
C2029 C 0.67697 0.41034 0.34637 0.0
C2030 C 0.66281 0.40537 0.37749 0.0
C2031 C 0.65855 0.3877 0.38604 0.0
C2032 C 0.64255 0.3864 0.42189 0.0
C2033 C 0.6266 0.37758 0.39493 0.0
C2034 C 0.64755 0.37634 0.47089 0.0
C2035 C 0.63888 0.40606 0.4328 0.0
C2036 C 0.65095 0.41663 0.40692 0.0
C2037 C 0.65153 0.43503 0.41346 0.0
C2038 C 0.63927 0.44298 0.44663 0.0
C2039 C 0.62636 0.43267 0.47261 0.0
C2040 C 0.62607 0.41391 0.46549 0.0
H2041 H 0.37724 0.9468 0.15393 0.0
H2042 H 0.4053 0.90953 0.05668 0.0
H2043 H 0.39035 0.88428 0.10058 0.0
H2044 H 0.37824 0.91745 0.2715 0.0
H2045 H 0.35686 0.9262 0.29074 0.0
H2046 H 0.3721 0.93982 0.25456 0.0
H2047 H 0.34596 0.94461 0.18912 0.0
H2048 H 0.33173 0.92976 0.22434 0.0
H2049 H 0.33637 0.92539 0.1581 0.0
H2050 H 0.37018 0.86336 0.1507 0.0
H2051 H 0.34731 0.84848 0.20352 0.0
H2052 H 0.33282 0.89954 0.26956 0.0
C2053 C 0.3805 0.93329 0.14279 0.0
C2054 C 0.39253 0.92999 0.10244 0.0
C2055 C 0.39629 0.91222 0.08804 0.0
C2056 C 0.38784 0.89785 0.11271 0.0
C2057 C 0.37581 0.90152 0.15207 0.0
C2058 C 0.37236 0.91882 0.16751 0.0
C2059 C 0.35855 0.91922 0.20979 0.0
C2060 C 0.36691 0.92609 0.25962 0.0
C2061 C 0.34218 0.93041 0.19439 0.0
C2062 C 0.354 0.89956 0.21389 0.0
C2063 C 0.36433 0.88953 0.18091 0.0
C2064 C 0.3622 0.87109 0.17702 0.0
C2065 C 0.34914 0.86274 0.20726 0.0
C2066 C 0.33828 0.87277 0.241 0.0
C2067 C 0.34097 0.89143 0.24455 0.0
H2068 H 0.82057 0.39798 0.72789 0.0
H2069 H 0.85566 0.35264 0.74869 0.0
H2070 H 0.87957 0.36843 0.70135 0.0
H2071 H 0.83399 0.40635 0.59884 0.0
H2072 H 0.83186 0.43022 0.60419 0.0
H2073 H 0.81822 0.41588 0.64299 0.0
H2074 H 0.82983 0.43179 0.72427 0.0
H2075 H 0.84358 0.44614 0.68575 0.0
H2076 H 0.85353 0.43303 0.73582 0.0
H2077 H 0.90014 0.3902 0.65391 0.0
H2078 H 0.91403 0.41411 0.60182 0.0
H2079 H 0.86418 0.44344 0.60429 0.0
C2080 C 0.83339 0.3915 0.72299 0.0
C2081 C 0.83644 0.37425 0.74273 0.0
C2082 C 0.85315 0.36593 0.73424 0.0
C2083 C 0.86679 0.37482 0.70751 0.0
C2084 C 0.86336 0.39186 0.68841 0.0
C2085 C 0.84693 0.39996 0.69508 0.0
C2086 C 0.84614 0.41773 0.66772 0.0
C2087 C 0.8317 0.41752 0.62596 0.0
C2088 C 0.84309 0.43308 0.70566 0.0
C2089 C 0.86472 0.41849 0.64496 0.0
C2090 C 0.87461 0.40361 0.65799 0.0
C2091 C 0.89242 0.40179 0.643 0.0
C2092 C 0.90023 0.41542 0.61356 0.0
C2093 C 0.8901 0.43044 0.5984 0.0
C2094 C 0.87215 0.43192 0.61451 0.0
H2095 H 0.3922 0.07745 0.41659 0.0
H2096 H 0.37624 0.09061 0.57057 0.0
H2097 H 0.3571 0.11502 0.5373 0.0
H2098 H 0.39083 0.12189 0.36025 0.0
H2099 H 0.38093 0.11421 0.30156 0.0
H2100 H 0.39519 0.09958 0.33778 0.0
H2101 H 0.37001 0.07594 0.34134 0.0
H2102 H 0.3558 0.0904 0.3046 0.0
H2103 H 0.34836 0.08212 0.36547 0.0
H2104 H 0.33957 0.13797 0.48626 0.0
H2105 H 0.32185 0.15465 0.42241 0.0
H2106 H 0.34576 0.12342 0.30135 0.0
C2107 C 0.38485 0.08566 0.44322 0.0
C2108 C 0.38592 0.08246 0.49618 0.0
C2109 C 0.3758 0.09312 0.52995 0.0
C2110 C 0.36493 0.10698 0.51134 0.0
C2111 C 0.36396 0.10967 0.45871 0.0
C2112 C 0.37341 0.09906 0.42509 0.0
C2113 C 0.36851 0.1033 0.37026 0.0
C2114 C 0.38484 0.11016 0.34073 0.0
C2115 C 0.36016 0.08697 0.34387 0.0
C2116 C 0.35484 0.11799 0.37812 0.0
C2117 C 0.35274 0.12176 0.42941 0.0
C2118 C 0.3411 0.13507 0.44609 0.0
C2119 C 0.33118 0.14455 0.40958 0.0
C2120 C 0.33255 0.14037 0.35712 0.0
C2121 C 0.34454 0.12691 0.34126 0.0
H2122 H 0.62715 0.5696 0.16366 0.0
H2123 H 0.63171 0.59189 0.01226 0.0
H2124 H 0.64829 0.61776 0.04763 0.0
H2125 H 0.62501 0.61117 0.23802 0.0
H2126 H 0.63929 0.60274 0.28781 0.0
H2127 H 0.62534 0.58764 0.25209 0.0
H2128 H 0.6531 0.56891 0.22843 0.0
H2129 H 0.66721 0.58394 0.2636 0.0
H2130 H 0.67174 0.57948 0.19733 0.0
H2131 H 0.6655 0.6405 0.09939 0.0
H2132 H 0.68441 0.65686 0.16077 0.0
H2133 H 0.67213 0.61773 0.27711 0.0
C2134 C 0.63132 0.58015 0.13829 0.0
C2135 C 0.62778 0.57907 0.08546 0.0
C2136 C 0.63392 0.59277 0.05298 0.0
C2137 C 0.64338 0.60745 0.07279 0.0
C2138 C 0.64702 0.60795 0.12501 0.0
C2139 C 0.64137 0.59453 0.15725 0.0
C2140 C 0.64885 0.59714 0.21062 0.0
C2141 C 0.63372 0.59984 0.24942 0.0
C2142 C 0.66095 0.58144 0.22586 0.0
C2143 C 0.65959 0.61412 0.20348 0.0
C2144 C 0.65805 0.62032 0.15404 0.0
C2145 C 0.66674 0.63577 0.13817 0.0
C2146 C 0.67741 0.64503 0.17344 0.0
C2147 C 0.6797 0.63864 0.22383 0.0
C2148 C 0.6706 0.62297 0.23893 0.0
H2149 H 0.19525 0.89579 0.86149 0.0
H2150 H 0.15787 0.85302 0.83065 0.0
H2151 H 0.13399 0.87007 0.87478 0.0
H2152 H 0.17966 0.90413 0.98796 0.0
H2153 H 0.18345 0.92784 0.9849 0.0
H2154 H 0.19693 0.91291 0.94734 0.0
H2155 H 0.18813 0.93011 0.86545 0.0
H2156 H 0.17461 0.9451 0.90275 0.0
H2157 H 0.16484 0.93309 0.85014 0.0
H2158 H 0.11385 0.89294 0.92082 0.0
H2159 H 0.10046 0.91758 0.97139 0.0
H2160 H 0.15214 0.94341 0.97943 0.0
C2161 C 0.18195 0.89015 0.86326 0.0
C2162 C 0.17827 0.87326 0.84164 0.0
C2163 C 0.16089 0.86604 0.84638 0.0
C2164 C 0.14726 0.87565 0.87136 0.0
C2165 C 0.15135 0.89228 0.8925 0.0
C2166 C 0.16838 0.89931 0.88926 0.0
C2167 C 0.16977 0.9168 0.91809 0.0
C2168 C 0.18325 0.91532 0.96218 0.0
C2169 C 0.17462 0.93218 0.88194 0.0
C2170 C 0.15083 0.91866 0.93775 0.0
C2171 C 0.14028 0.90456 0.92201 0.0
C2172 C 0.12209 0.9039 0.9338 0.0
C2173 C 0.11457 0.91795 0.96247 0.0
C2174 C 0.1253 0.93223 0.98007 0.0
C2175 C 0.14366 0.93247 0.96745 0.0
loop_
_geom_bond_atom_site_label_1
_geom_bond_atom_site_label_2
_geom_bond_distance
_geom_bond_site_symmetry_2
_ccdc_geom_bond_type
Co0 O1 2.216 . S
Co0 O2 2.091 . S
Co0 O4 2.004 . S
Co0 O10 2.021 . S
Co0 O12 2.137 1_554 S
Co0 O13 2.244 . S
O1 Co0 2.216 . S
O1 C8 1.247 . S
O2 Co0 2.091 . S
O2 C8 1.261 . S
C3 O12 1.247 . S
C3 O13 1.272 1_556 S
O4 Co0 2.004 . S
O4 C9 1.259 . S
Co5 O6 2.061 . S
Co5 O11 2.052 . S
Co5 O13 2.135 . S
O6 Co5 2.061 . S
O6 C9 1.235 . S
C7 O10 1.238 . S
C7 O11 1.241 . S
C8 O1 1.247 . S
C8 O2 1.261 . S
C9 O4 1.259 . S
C9 O6 1.235 . S
O10 Co0 2.021 . S
O10 C7 1.238 . S
O11 Co5 2.052 . S
O11 C7 1.241 . S
O12 Co0 2.137 1_556 S
O12 C3 1.247 . S
O13 Co0 2.244 . S
O13 C3 1.272 1_554 S
O13 Co5 2.135 . S
Co14 O15 2.216 . S
Co14 O16 2.091 . S
Co14 O18 2.004 . S
Co14 O24 2.021 . S
Co14 O26 2.137 . S
Co14 O27 2.244 . S
O15 Co14 2.216 . S
O15 C22 1.247 . S
O16 Co14 2.091 . S
O16 C22 1.261 . S
C17 O26 1.247 . S
C17 O27 1.272 . S
O18 Co14 2.004 . S
O18 C23 1.259 . S
Co19 O20 2.061 . S
Co19 O25 2.052 . S
Co19 O27 2.135 . S
O20 Co19 2.061 . S
O20 C23 1.235 . S
C21 O24 1.238 . S
C21 O25 1.241 . S
C22 O15 1.247 . S
C22 O16 1.261 . S
C23 O18 1.259 . S
C23 O20 1.235 . S
O24 Co14 2.021 . S
O24 C21 1.238 . S
O25 Co19 2.052 . S
O25 C21 1.241 . S
O26 Co14 2.137 . S
O26 C17 1.247 . S
O27 Co14 2.244 . S
O27 C17 1.272 . S
O27 Co19 2.135 . S
Co28 O29 2.216 . S
Co28 O30 2.091 . S
Co28 O32 2.004 . S
Co28 O38 2.021 . S
Co28 O40 2.137 . S
Co28 O41 2.244 . S
O29 Co28 2.216 . S
O29 C36 1.247 . S
O30 Co28 2.091 . S
O30 C36 1.261 . S
C31 O40 1.247 . S
C31 O41 1.272 . S
O32 Co28 2.004 . S
O32 C37 1.259 . S
Co33 O34 2.061 . S
Co33 O39 2.052 . S
Co33 O41 2.135 . S
O34 Co33 2.061 . S
O34 C37 1.235 . S
C35 O38 1.238 . S
C35 O39 1.241 . S
C36 O29 1.247 . S
C36 O30 1.261 . S
C37 O32 1.259 . S
C37 O34 1.235 . S
O38 Co28 2.021 . S
O38 C35 1.238 . S
O39 Co33 2.052 . S
O39 C35 1.241 . S
O40 Co28 2.137 . S
O40 C31 1.247 . S
O41 Co28 2.244 . S
O41 C31 1.272 . S
O41 Co33 2.135 . S
Co42 O43 2.216 . S
Co42 O44 2.091 . S
Co42 O46 2.004 . S
Co42 O52 2.021 . S
Co42 O54 2.137 . S
Co42 O55 2.244 . S
O43 Co42 2.216 . S
O43 C50 1.247 . S
O44 Co42 2.091 . S
O44 C50 1.261 . S
C45 O54 1.247 . S
C45 O55 1.272 . S
O46 Co42 2.004 . S
O46 C51 1.259 . S
Co47 O48 2.061 . S
Co47 O53 2.052 . S
Co47 O55 2.135 . S
O48 Co47 2.061 . S
O48 C51 1.235 . S
C49 O52 1.238 . S
C49 O53 1.241 . S
C50 O43 1.247 . S
C50 O44 1.261 . S
C51 O46 1.259 . S
C51 O48 1.235 . S
O52 Co42 2.021 . S
O52 C49 1.238 . S
O53 Co47 2.052 . S
O53 C49 1.241 . S
O54 Co42 2.137 . S
O54 C45 1.247 . S
O55 Co42 2.244 . S
O55 C45 1.272 . S
O55 Co47 2.135 . S
Co56 O57 2.216 . S
Co56 O58 2.091 . S
Co56 O60 2.004 . S
Co56 O66 2.021 . S
Co56 O68 2.137 . S
Co56 O69 2.244 . S
O57 Co56 2.216 . S
O57 C64 1.247 . S
O58 Co56 2.091 . S
O58 C64 1.261 . S
C59 O68 1.247 . S
C59 O69 1.272 . S
O60 Co56 2.004 . S
O60 C65 1.259 . S
Co61 O62 2.061 . S
Co61 O67 2.052 . S
Co61 O69 2.135 . S
O62 Co61 2.061 . S
O62 C65 1.235 . S
C63 O66 1.238 . S
C63 O67 1.241 . S
C64 O57 1.247 . S
C64 O58 1.261 . S
C65 O60 1.259 . S
C65 O62 1.235 . S
O66 Co56 2.021 . S
O66 C63 1.238 . S
O67 Co61 2.052 . S
O67 C63 1.241 . S
O68 Co56 2.137 . S
O68 C59 1.247 . S
O69 Co56 2.244 . S
O69 C59 1.272 . S
O69 Co61 2.135 . S
Co70 O71 2.216 . S
Co70 O72 2.091 . S
Co70 O74 2.004 . S
Co70 O80 2.021 . S
Co70 O82 2.137 . S
Co70 O83 2.244 . S
O71 Co70 2.216 . S
O71 C78 1.247 . S
O72 Co70 2.091 . S
O72 C78 1.261 . S
C73 O82 1.247 . S
C73 O83 1.272 . S
O74 Co70 2.004 . S
O74 C79 1.259 . S
Co75 O76 2.061 . S
Co75 O81 2.052 . S
Co75 O83 2.135 . S
O76 Co75 2.061 . S
O76 C79 1.235 . S
C77 O80 1.238 . S
C77 O81 1.241 . S
C78 O71 1.247 . S
C78 O72 1.261 . S
C79 O74 1.259 . S
C79 O76 1.235 . S
O80 Co70 2.021 . S
O80 C77 1.238 . S
O81 Co75 2.052 . S
O81 C77 1.241 . S
O82 Co70 2.137 . S
O82 C73 1.247 . S
O83 Co70 2.244 . S
O83 C73 1.272 . S
O83 Co75 2.135 . S
Co84 O85 2.216 . S
Co84 O86 2.091 . S
Co84 O88 2.004 . S
Co84 O94 2.021 1_554 S
Co84 O96 2.137 . S
Co84 O97 2.244 . S
O85 Co84 2.216 . S
O85 C92 1.247 . S
O86 Co84 2.091 . S
O86 C92 1.261 . S
C87 O96 1.247 . S
C87 O97 1.272 . S
O88 Co84 2.004 . S
O88 C93 1.259 . S
Co89 O90 2.061 . S
Co89 O95 2.052 1_554 S
Co89 O97 2.135 . S
O90 Co89 2.061 . S
O90 C93 1.235 . S
C91 O94 1.238 . S
C91 O95 1.241 . S
C92 O85 1.247 . S
C92 O86 1.261 . S
C93 O88 1.259 . S
C93 O90 1.235 . S
O94 Co84 2.021 1_556 S
O94 C91 1.238 . S
O95 Co89 2.052 1_556 S
O95 C91 1.241 . S
O96 Co84 2.137 . S
O96 C87 1.247 . S
O97 Co84 2.244 . S
O97 C87 1.272 . S
O97 Co89 2.135 . S
Co98 O99 2.216 . S
Co98 O100 2.091 . S
Co98 O102 2.004 . S
Co98 O108 2.021 . S
Co98 O110 2.137 . S
Co98 O111 2.244 . S
O99 Co98 2.216 . S
O99 C106 1.247 . S
O100 Co98 2.091 . S
O100 C106 1.261 . S
C101 O110 1.247 . S
C101 O111 1.272 . S
O102 Co98 2.004 . S
O102 C107 1.259 . S
Co103 O104 2.061 . S
Co103 O109 2.052 . S
Co103 O111 2.135 . S
O104 Co103 2.061 . S
O104 C107 1.235 . S
C105 O108 1.238 . S
C105 O109 1.241 . S
C106 O99 1.247 . S
C106 O100 1.261 . S
C107 O102 1.259 . S
C107 O104 1.235 . S
O108 Co98 2.021 . S
O108 C105 1.238 . S
O109 Co103 2.052 . S
O109 C105 1.241 . S
O110 Co98 2.137 . S
O110 C101 1.247 . S
O111 Co98 2.244 . S
O111 C101 1.272 . S
O111 Co103 2.135 . S
Co112 O113 2.216 . S
Co112 O114 2.091 . S
Co112 O116 2.004 . S
Co112 O122 2.021 1_554 S
Co112 O124 2.137 . S
Co112 O125 2.244 . S
O113 Co112 2.216 . S
O113 C120 1.247 . S
O114 Co112 2.091 . S
O114 C120 1.261 . S
C115 O124 1.247 . S
C115 O125 1.272 . S
O116 Co112 2.004 . S
O116 C121 1.259 . S
Co117 O118 2.061 . S
Co117 O123 2.052 1_554 S
Co117 O125 2.135 . S
O118 Co117 2.061 . S
O118 C121 1.235 . S
C119 O122 1.238 . S
C119 O123 1.241 . S
C120 O113 1.247 . S
C120 O114 1.261 . S
C121 O116 1.259 . S
C121 O118 1.235 . S
O122 Co112 2.021 1_556 S
O122 C119 1.238 . S
O123 Co117 2.052 1_556 S
O123 C119 1.241 . S
O124 Co112 2.137 . S
O124 C115 1.247 . S
O125 Co112 2.244 . S
O125 C115 1.272 . S
O125 Co117 2.135 . S
Co126 O127 2.216 . S
Co126 O128 2.091 . S
Co126 O130 2.004 . S
Co126 O136 2.021 . S
Co126 O138 2.137 . S
Co126 O139 2.244 . S
O127 Co126 2.216 . S
O127 C134 1.247 . S
O128 Co126 2.091 . S
O128 C134 1.261 . S
C129 O138 1.247 . S
C129 O139 1.272 . S
O130 Co126 2.004 . S
O130 C135 1.259 . S
Co131 O132 2.061 . S
Co131 O137 2.052 . S
Co131 O139 2.135 . S
O132 Co131 2.061 . S
O132 C135 1.235 . S
C133 O136 1.238 . S
C133 O137 1.241 . S
C134 O127 1.247 . S
C134 O128 1.261 . S
C135 O130 1.259 . S
C135 O132 1.235 . S
O136 Co126 2.021 . S
O136 C133 1.238 . S
O137 Co131 2.052 . S
O137 C133 1.241 . S
O138 Co126 2.137 . S
O138 C129 1.247 . S
O139 Co126 2.244 . S
O139 C129 1.272 . S
O139 Co131 2.135 . S
Co140 O141 2.216 . S
Co140 O142 2.091 . S
Co140 O144 2.004 . S
Co140 O150 2.021 . S
Co140 O152 2.137 . S
Co140 O153 2.244 . S
O141 Co140 2.216 . S
O141 C148 1.247 . S
O142 Co140 2.091 . S
O142 C148 1.261 . S
C143 O152 1.247 . S
C143 O153 1.272 . S
O144 Co140 2.004 . S
O144 C149 1.259 . S
Co145 O146 2.061 . S
Co145 O151 2.052 . S
Co145 O153 2.135 . S
O146 Co145 2.061 . S
O146 C149 1.235 . S
C147 O150 1.238 . S
C147 O151 1.241 . S
C148 O141 1.247 . S
C148 O142 1.261 . S
C149 O144 1.259 . S
C149 O146 1.235 . S
O150 Co140 2.021 . S
O150 C147 1.238 . S
O151 Co145 2.052 . S
O151 C147 1.241 . S
O152 Co140 2.137 . S
O152 C143 1.247 . S
O153 Co140 2.244 . S
O153 C143 1.272 . S
O153 Co145 2.135 . S
Co154 O155 2.216 . S
Co154 O156 2.091 . S
Co154 O158 2.004 . S
Co154 O164 2.021 . S
Co154 O166 2.137 . S
Co154 O167 2.244 . S
O155 Co154 2.216 . S
O155 C162 1.247 . S
O156 Co154 2.091 . S
O156 C162 1.261 . S
C157 O166 1.247 . S
C157 O167 1.272 . S
O158 Co154 2.004 . S
O158 C163 1.259 . S
Co159 O160 2.061 . S
Co159 O165 2.052 . S
Co159 O167 2.135 . S
O160 Co159 2.061 . S
O160 C163 1.235 . S
C161 O164 1.238 . S
C161 O165 1.241 . S
C162 O155 1.247 . S
C162 O156 1.261 . S
C163 O158 1.259 . S
C163 O160 1.235 . S
O164 Co154 2.021 . S
O164 C161 1.238 . S
O165 Co159 2.052 . S
O165 C161 1.241 . S
O166 Co154 2.137 . S
O166 C157 1.247 . S
O167 Co154 2.244 . S
O167 C157 1.272 . S
O167 Co159 2.135 . S
Co168 O169 2.216 . S
Co168 O170 2.091 . S
Co168 O172 2.004 . S
Co168 O178 2.021 . S
Co168 O180 2.137 . S
Co168 O181 2.244 . S
O169 Co168 2.216 . S
O169 C176 1.247 . S
O170 Co168 2.091 . S
O170 C176 1.261 . S
C171 O180 1.247 . S
C171 O181 1.272 . S
O172 Co168 2.004 . S
O172 C177 1.259 . S
Co173 O174 2.061 . S
Co173 O179 2.052 . S
Co173 O181 2.135 . S
O174 Co173 2.061 . S
O174 C177 1.235 . S
C175 O178 1.238 . S
C175 O179 1.241 . S
C176 O169 1.247 . S
C176 O170 1.261 . S
C177 O172 1.259 . S
C177 O174 1.235 . S
O178 Co168 2.021 . S
O178 C175 1.238 . S
O179 Co173 2.052 . S
O179 C175 1.241 . S
O180 Co168 2.137 . S
O180 C171 1.247 . S
O181 Co168 2.244 . S
O181 C171 1.272 . S
O181 Co173 2.135 . S
Co182 O183 2.216 . S
Co182 O184 2.091 . S
Co182 O186 2.004 . S
Co182 O192 2.021 . S
Co182 O194 2.137 . S
Co182 O195 2.244 . S
O183 Co182 2.216 . S
O183 C190 1.247 . S
O184 Co182 2.091 . S
O184 C190 1.261 . S
C185 O194 1.247 . S
C185 O195 1.272 . S
O186 Co182 2.004 . S
O186 C191 1.259 . S
Co187 O188 2.061 . S
Co187 O193 2.052 . S
Co187 O195 2.135 . S
O188 Co187 2.061 . S
O188 C191 1.235 . S
C189 O192 1.238 . S
C189 O193 1.241 . S
C190 O183 1.247 . S
C190 O184 1.261 . S
C191 O186 1.259 . S
C191 O188 1.235 . S
O192 Co182 2.021 . S
O192 C189 1.238 . S
O193 Co187 2.052 . S
O193 C189 1.241 . S
O194 Co182 2.137 . S
O194 C185 1.247 . S
O195 Co182 2.244 . S
O195 C185 1.272 . S
O195 Co187 2.135 . S
Co196 O197 2.216 . S
Co196 O198 2.091 . S
Co196 O200 2.004 . S
Co196 O206 2.021 . S
Co196 O208 2.137 1_554 S
Co196 O209 2.244 . S
O197 Co196 2.216 . S
O197 C204 1.247 . S
O198 Co196 2.091 . S
O198 C204 1.261 . S
C199 O208 1.247 . S
C199 O209 1.272 1_556 S
O200 Co196 2.004 . S
O200 C205 1.259 . S
Co201 O202 2.061 . S
Co201 O207 2.052 . S
Co201 O209 2.135 . S
O202 Co201 2.061 . S
O202 C205 1.235 . S
C203 O206 1.238 . S
C203 O207 1.241 . S
C204 O197 1.247 . S
C204 O198 1.261 . S
C205 O200 1.259 . S
C205 O202 1.235 . S
O206 Co196 2.021 . S
O206 C203 1.238 . S
O207 Co201 2.052 . S
O207 C203 1.241 . S
O208 Co196 2.137 1_556 S
O208 C199 1.247 . S
O209 Co196 2.244 . S
O209 C199 1.272 1_554 S
O209 Co201 2.135 . S
Co210 O211 2.216 . S
Co210 O212 2.091 . S
Co210 O214 2.004 . S
Co210 O220 2.021 . S
Co210 O222 2.137 . S
Co210 O223 2.244 . S
O211 Co210 2.216 . S
O211 C218 1.247 . S
O212 Co210 2.091 . S
O212 C218 1.261 . S
C213 O222 1.247 . S
C213 O223 1.272 . S
O214 Co210 2.004 . S
O214 C219 1.259 . S
Co215 O216 2.061 . S
Co215 O221 2.052 . S
Co215 O223 2.135 . S
O216 Co215 2.061 . S
O216 C219 1.235 . S
C217 O220 1.238 . S
C217 O221 1.241 . S
C218 O211 1.247 . S
C218 O212 1.261 . S
C219 O214 1.259 . S
C219 O216 1.235 . S
O220 Co210 2.021 . S
O220 C217 1.238 . S
O221 Co215 2.052 . S
O221 C217 1.241 . S
O222 Co210 2.137 . S
O222 C213 1.247 . S
O223 Co210 2.244 . S
O223 C213 1.272 . S
O223 Co215 2.135 . S
Co224 O225 2.216 . S
Co224 O226 2.091 . S
Co224 O228 2.004 . S
Co224 O234 2.021 . S
Co224 O236 2.137 . S
Co224 O237 2.244 . S
O225 Co224 2.216 . S
O225 C232 1.247 . S
O226 Co224 2.091 . S
O226 C232 1.261 . S
C227 O236 1.247 . S
C227 O237 1.272 . S
O228 Co224 2.004 . S
O228 C233 1.259 . S
Co229 O230 2.067 . S
Co229 O235 2.052 . S
Co229 O237 2.135 1_545 S
O230 Co229 2.067 . S
O230 C233 1.226 1_545 S
C231 O234 1.238 . S
C231 O235 1.241 1_565 S
C232 O225 1.247 . S
C232 O226 1.261 . S
C233 O228 1.259 . S
C233 O230 1.226 1_565 S
O234 Co224 2.021 . S
O234 C231 1.238 . S
O235 Co229 2.052 . S
O235 C231 1.241 1_545 S
O236 Co224 2.137 . S
O236 C227 1.247 . S
O237 Co224 2.244 . S
O237 C227 1.272 . S
O237 Co229 2.135 1_565 S
Co238 O239 2.216 . S
Co238 O240 2.091 . S
Co238 O242 2.004 . S
Co238 O248 2.021 . S
Co238 O250 2.137 . S
Co238 O251 2.244 . S
O239 Co238 2.216 . S
O239 C246 1.247 . S
O240 Co238 2.091 . S
O240 C246 1.261 . S
C241 O250 1.247 . S
C241 O251 1.272 . S
O242 Co238 2.004 . S
O242 C247 1.259 . S
Co243 O244 2.061 . S
Co243 O249 2.052 . S
Co243 O251 2.135 . S
O244 Co243 2.061 . S
O244 C247 1.235 . S
C245 O248 1.238 . S
C245 O249 1.241 . S
C246 O239 1.247 . S
C246 O240 1.261 . S
C247 O242 1.259 . S
C247 O244 1.235 . S
O248 Co238 2.021 . S
O248 C245 1.238 . S
O249 Co243 2.052 . S
O249 C245 1.241 . S
O250 Co238 2.137 . S
O250 C241 1.247 . S
O251 Co238 2.244 . S
O251 C241 1.272 . S
O251 Co243 2.135 . S
Co252 O253 2.216 . S
Co252 O254 2.091 . S
Co252 O256 2.004 . S
Co252 O262 2.021 . S
Co252 O264 2.137 1_554 S
Co252 O265 2.244 . S
O253 Co252 2.216 . S
O253 C260 1.247 . S
O254 Co252 2.091 . S
O254 C260 1.261 . S
C255 O264 1.247 . S
C255 O265 1.272 1_556 S
O256 Co252 2.004 . S
O256 C261 1.259 . S
Co257 O258 2.067 . S
Co257 O263 2.052 . S
Co257 O265 2.135 1_565 S
O258 Co257 2.067 . S
O258 C261 1.226 1_565 S
C259 O262 1.238 . S
C259 O263 1.241 1_545 S
C260 O253 1.247 . S
C260 O254 1.261 . S
C261 O256 1.259 . S
C261 O258 1.226 1_545 S
O262 Co252 2.021 . S
O262 C259 1.238 . S
O263 Co257 2.052 . S
O263 C259 1.241 1_565 S
O264 Co252 2.137 1_556 S
O264 C255 1.247 . S
O265 Co252 2.244 . S
O265 C255 1.272 1_554 S
O265 Co257 2.135 1_545 S
Co266 O267 2.216 . S
Co266 O268 2.091 . S
Co266 O270 2.004 . S
Co266 O276 2.021 . S
Co266 O278 2.137 . S
Co266 O279 2.244 . S
O267 Co266 2.216 . S
O267 C274 1.247 . S
O268 Co266 2.091 . S
O268 C274 1.261 . S
C269 O278 1.247 . S
C269 O279 1.272 . S
O270 Co266 2.004 . S
O270 C275 1.259 . S
Co271 O272 2.061 . S
Co271 O277 2.052 . S
Co271 O279 2.135 . S
O272 Co271 2.061 . S
O272 C275 1.235 . S
C273 O276 1.238 . S
C273 O277 1.241 . S
C274 O267 1.247 . S
C274 O268 1.261 . S
C275 O270 1.259 . S
C275 O272 1.235 . S
O276 Co266 2.021 . S
O276 C273 1.238 . S
O277 Co271 2.052 . S
O277 C273 1.241 . S
O278 Co266 2.137 . S
O278 C269 1.247 . S
O279 Co266 2.244 . S
O279 C269 1.272 . S
O279 Co271 2.135 . S
Co280 O281 2.216 . S
Co280 O282 2.091 . S
Co280 O284 2.004 . S
Co280 O290 2.021 1_554 S
Co280 O292 2.137 . S
Co280 O293 2.244 . S
O281 Co280 2.216 . S
O281 C288 1.247 . S
O282 Co280 2.091 . S
O282 C288 1.261 . S
C283 O292 1.247 . S
C283 O293 1.272 . S
O284 Co280 2.004 . S
O284 C289 1.259 . S
Co285 O286 2.066 . S
Co285 O291 2.052 1_554 S
Co285 O293 2.135 1_565 S
O286 Co285 2.066 . S
O286 C289 1.228 1_565 S
C287 O290 1.238 . S
C287 O291 1.241 1_545 S
C288 O281 1.247 . S
C288 O282 1.261 . S
C289 O284 1.259 . S
C289 O286 1.228 1_545 S
O290 Co280 2.021 1_556 S
O290 C287 1.238 . S
O291 Co285 2.052 1_556 S
O291 C287 1.241 1_565 S
O292 Co280 2.137 . S
O292 C283 1.247 . S
O293 Co280 2.244 . S
O293 C283 1.272 . S
O293 Co285 2.135 1_545 S
Co294 O295 2.216 . S
Co294 O296 2.091 . S
Co294 O298 2.004 . S
Co294 O304 2.021 . S
Co294 O306 2.137 . S
Co294 O307 2.244 . S
O295 Co294 2.216 . S
O295 C302 1.247 . S
O296 Co294 2.091 . S
O296 C302 1.261 . S
C297 O306 1.247 . S
C297 O307 1.272 . S
O298 Co294 2.004 . S
O298 C303 1.259 . S
Co299 O300 2.061 . S
Co299 O305 2.052 . S
Co299 O307 2.135 . S
O300 Co299 2.061 . S
O300 C303 1.235 . S
C301 O304 1.238 . S
C301 O305 1.241 . S
C302 O295 1.247 . S
C302 O296 1.261 . S
C303 O298 1.259 . S
C303 O300 1.235 . S
O304 Co294 2.021 . S
O304 C301 1.238 . S
O305 Co299 2.052 . S
O305 C301 1.241 . S
O306 Co294 2.137 . S
O306 C297 1.247 . S
O307 Co294 2.244 . S
O307 C297 1.272 . S
O307 Co299 2.135 . S
Co308 O309 2.216 . S
Co308 O310 2.091 . S
Co308 O312 2.004 . S
Co308 O318 2.021 . S
Co308 O320 2.137 . S
Co308 O321 2.244 . S
O309 Co308 2.216 . S
O309 C316 1.247 . S
O310 Co308 2.091 . S
O310 C316 1.261 . S
C311 O320 1.247 . S
C311 O321 1.272 . S
O312 Co308 2.004 . S
O312 C317 1.259 . S
Co313 O314 2.067 . S
Co313 O319 2.052 . S
Co313 O321 2.135 1_545 S
O314 Co313 2.067 . S
O314 C317 1.226 1_545 S
C315 O318 1.238 . S
C315 O319 1.241 1_565 S
C316 O309 1.247 . S
C316 O310 1.261 . S
C317 O312 1.259 . S
C317 O314 1.226 1_565 S
O318 Co308 2.021 . S
O318 C315 1.238 . S
O319 Co313 2.052 . S
O319 C315 1.241 1_545 S
O320 Co308 2.137 . S
O320 C311 1.247 . S
O321 Co308 2.244 . S
O321 C311 1.272 . S
O321 Co313 2.135 1_565 S
Co322 O323 2.216 . S
Co322 O324 2.091 . S
Co322 O326 2.004 . S
Co322 O332 2.021 . S
Co322 O334 2.137 . S
Co322 O335 2.244 . S
O323 Co322 2.216 . S
O323 C330 1.247 . S
O324 Co322 2.091 . S
O324 C330 1.261 . S
C325 O334 1.247 . S
C325 O335 1.272 . S
O326 Co322 2.004 . S
O326 C331 1.259 . S
Co327 O328 2.061 . S
Co327 O333 2.052 . S
Co327 O335 2.135 . S
O328 Co327 2.061 . S
O328 C331 1.235 . S
C329 O332 1.238 . S
C329 O333 1.241 . S
C330 O323 1.247 . S
C330 O324 1.261 . S
C331 O326 1.259 . S
C331 O328 1.235 . S
O332 Co322 2.021 . S
O332 C329 1.238 . S
O333 Co327 2.052 . S
O333 C329 1.241 . S
O334 Co322 2.137 . S
O334 C325 1.247 . S
O335 Co322 2.244 . S
O335 C325 1.272 . S
O335 Co327 2.135 . S
Co336 O337 2.216 . S
Co336 O338 2.091 . S
Co336 O340 2.004 . S
Co336 O346 2.021 . S
Co336 O348 2.137 . S
Co336 O349 2.244 . S
O337 Co336 2.216 . S
O337 C344 1.247 . S
O338 Co336 2.091 . S
O338 C344 1.261 . S
C339 O348 1.247 . S
C339 O349 1.272 . S
O340 Co336 2.004 . S
O340 C345 1.259 . S
Co341 O342 2.067 . S
Co341 O347 2.052 . S
Co341 O349 2.135 1_565 S
O342 Co341 2.067 . S
O342 C345 1.226 1_565 S
C343 O346 1.238 . S
C343 O347 1.241 1_545 S
C344 O337 1.247 . S
C344 O338 1.261 . S
C345 O340 1.259 . S
C345 O342 1.226 1_545 S
O346 Co336 2.021 . S
O346 C343 1.238 . S
O347 Co341 2.052 . S
O347 C343 1.241 1_565 S
O348 Co336 2.137 . S
O348 C339 1.247 . S
O349 Co336 2.244 . S
O349 C339 1.272 . S
O349 Co341 2.135 1_545 S
Co350 O351 2.216 . S
Co350 O352 2.091 . S
Co350 O354 2.004 . S
Co350 O360 2.021 . S
Co350 O362 2.137 . S
Co350 O363 2.244 . S
O351 Co350 2.216 . S
O351 C358 1.247 . S
O352 Co350 2.091 . S
O352 C358 1.261 . S
C353 O362 1.247 . S
C353 O363 1.272 . S
O354 Co350 2.004 . S
O354 C359 1.259 . S
Co355 O356 2.061 . S
Co355 O361 2.052 . S
Co355 O363 2.135 . S
O356 Co355 2.061 . S
O356 C359 1.235 . S
C357 O360 1.238 . S
C357 O361 1.241 . S
C358 O351 1.247 . S
C358 O352 1.261 . S
C359 O354 1.259 . S
C359 O356 1.235 . S
O360 Co350 2.021 . S
O360 C357 1.238 . S
O361 Co355 2.052 . S
O361 C357 1.241 . S
O362 Co350 2.137 . S
O362 C353 1.247 . S
O363 Co350 2.244 . S
O363 C353 1.272 . S
O363 Co355 2.135 . S
Co364 O365 2.216 . S
Co364 O366 2.091 . S
Co364 O368 2.004 . S
Co364 O374 2.021 1_554 S
Co364 O376 2.137 . S
Co364 O377 2.244 . S
O365 Co364 2.216 . S
O365 C372 1.247 . S
O366 Co364 2.091 . S
O366 C372 1.261 . S
C367 O376 1.247 . S
C367 O377 1.272 . S
O368 Co364 2.004 . S
O368 C373 1.259 . S
Co369 O370 2.066 . S
Co369 O375 2.052 1_554 S
Co369 O377 2.135 1_545 S
O370 Co369 2.066 . S
O370 C373 1.228 1_545 S
C371 O374 1.238 . S
C371 O375 1.241 1_565 S
C372 O365 1.247 . S
C372 O366 1.261 . S
C373 O368 1.259 . S
C373 O370 1.228 1_565 S
O374 Co364 2.021 1_556 S
O374 C371 1.238 . S
O375 Co369 2.052 1_556 S
O375 C371 1.241 1_545 S
O376 Co364 2.137 . S
O376 C367 1.247 . S
O377 Co364 2.244 . S
O377 C367 1.272 . S
O377 Co369 2.135 1_565 S
Co378 O379 2.216 . S
Co378 O380 2.091 . S
Co378 O382 2.004 . S
Co378 O388 2.021 . S
Co378 O390 2.137 . S
Co378 O391 2.244 . S
O379 Co378 2.216 . S
O379 C386 1.247 . S
O380 Co378 2.091 . S
O380 C386 1.261 . S
C381 O390 1.247 . S
C381 O391 1.272 . S
O382 Co378 2.004 . S
O382 C387 1.259 . S
Co383 O384 2.061 . S
Co383 O389 2.052 . S
Co383 O391 2.135 . S
O384 Co383 2.061 . S
O384 C387 1.235 . S
C385 O388 1.238 . S
C385 O389 1.241 . S
C386 O379 1.247 . S
C386 O380 1.261 . S
C387 O382 1.259 . S
C387 O384 1.235 . S
O388 Co378 2.021 . S
O388 C385 1.238 . S
O389 Co383 2.052 . S
O389 C385 1.241 . S
O390 Co378 2.137 . S
O390 C381 1.247 . S
O391 Co378 2.244 . S
O391 C381 1.272 . S
O391 Co383 2.135 . S
Co392 O393 2.216 . S
Co392 O394 2.091 . S
Co392 O396 2.004 . S
Co392 O402 2.021 . S
Co392 O404 2.137 1_554 S
Co392 O405 2.244 . S
O393 Co392 2.216 . S
O393 C400 1.247 . S
O394 Co392 2.091 . S
O394 C400 1.261 . S
C395 O404 1.247 . S
C395 O405 1.272 1_556 S
O396 Co392 2.004 . S
O396 C401 1.259 . S
Co397 O398 2.067 . S
Co397 O403 2.052 . S
Co397 O405 2.135 1_545 S
O398 Co397 2.067 . S
O398 C401 1.226 1_545 S
C399 O402 1.238 . S
C399 O403 1.241 1_565 S
C400 O393 1.247 . S
C400 O394 1.261 . S
C401 O396 1.259 . S
C401 O398 1.226 1_565 S
O402 Co392 2.021 . S
O402 C399 1.238 . S
O403 Co397 2.052 . S
O403 C399 1.241 1_545 S
O404 Co392 2.137 1_556 S
O404 C395 1.247 . S
O405 Co392 2.244 . S
O405 C395 1.272 1_554 S
O405 Co397 2.135 1_565 S
Co406 O407 2.216 . S
Co406 O408 2.091 . S
Co406 O410 2.004 . S
Co406 O416 2.021 . S
Co406 O418 2.137 . S
Co406 O419 2.244 . S
O407 Co406 2.216 . S
O407 C414 1.247 . S
O408 Co406 2.091 . S
O408 C414 1.261 . S
C409 O418 1.247 . S
C409 O419 1.272 . S
O410 Co406 2.004 . S
O410 C415 1.259 . S
Co411 O412 2.061 . S
Co411 O417 2.052 . S
Co411 O419 2.135 . S
O412 Co411 2.061 . S
O412 C415 1.235 . S
C413 O416 1.238 . S
C413 O417 1.241 . S
C414 O407 1.247 . S
C414 O408 1.261 . S
C415 O410 1.259 . S
C415 O412 1.235 . S
O416 Co406 2.021 . S
O416 C413 1.238 . S
O417 Co411 2.052 . S
O417 C413 1.241 . S
O418 Co406 2.137 . S
O418 C409 1.247 . S
O419 Co406 2.244 . S
O419 C409 1.272 . S
O419 Co411 2.135 . S
Co420 O421 2.216 . S
Co420 O422 2.091 . S
Co420 O424 2.004 . S
Co420 O430 2.021 . S
Co420 O432 2.137 . S
Co420 O433 2.244 . S
O421 Co420 2.216 . S
O421 C428 1.247 . S
O422 Co420 2.091 . S
O422 C428 1.261 . S
C423 O432 1.247 . S
C423 O433 1.272 . S
O424 Co420 2.004 . S
O424 C429 1.259 . S
Co425 O426 2.067 . S
Co425 O431 2.052 . S
Co425 O433 2.135 1_565 S
O426 Co425 2.067 . S
O426 C429 1.226 1_565 S
C427 O430 1.238 . S
C427 O431 1.241 1_545 S
C428 O421 1.247 . S
C428 O422 1.261 . S
C429 O424 1.259 . S
C429 O426 1.226 1_545 S
O430 Co420 2.021 . S
O430 C427 1.238 . S
O431 Co425 2.052 . S
O431 C427 1.241 1_565 S
O432 Co420 2.137 . S
O432 C423 1.247 . S
O433 Co420 2.244 . S
O433 C423 1.272 . S
O433 Co425 2.135 1_545 S
Co434 O435 2.216 . S
Co434 O436 2.091 . S
Co434 O438 2.004 . S
Co434 O444 2.021 . S
Co434 O446 2.137 . S
Co434 O447 2.244 . S
O435 Co434 2.216 . S
O435 C442 1.247 . S
O436 Co434 2.091 . S
O436 C442 1.261 . S
C437 O446 1.247 . S
C437 O447 1.272 . S
O438 Co434 2.004 . S
O438 C443 1.259 . S
Co439 O440 2.061 . S
Co439 O445 2.052 . S
Co439 O447 2.135 . S
O440 Co439 2.061 . S
O440 C443 1.235 . S
C441 O444 1.238 . S
C441 O445 1.241 . S
C442 O435 1.247 . S
C442 O436 1.261 . S
C443 O438 1.259 . S
C443 O440 1.235 . S
O444 Co434 2.021 . S
O444 C441 1.238 . S
O445 Co439 2.052 . S
O445 C441 1.241 . S
O446 Co434 2.137 . S
O446 C437 1.247 . S
O447 Co434 2.244 . S
O447 C437 1.272 . S
O447 Co439 2.135 . S
H448 C460 0.930 1_556 S
H449 C462 0.930 . S
H450 C463 0.930 . S
H451 C467 0.959 . S
H452 C467 0.959 1_455 S
H453 C467 0.961 . S
H454 C468 0.960 1_655 S
H455 C468 0.961 . S
H456 C468 0.959 . S
H457 C471 0.929 . S
H458 C472 0.931 . S
H459 C474 0.930 1_556 S
C460 H448 0.930 1_554 S
C460 C461 1.399 . S
C460 C465 1.399 . S
C461 C460 1.399 . S
C461 C462 1.376 . S
C462 H449 0.930 . S
C462 C461 1.376 . S
C462 C463 1.388 . S
C463 H450 0.930 . S
C463 C462 1.388 . S
C463 C464 1.390 . S
C464 C463 1.390 . S
C464 C465 1.394 . S
C464 C470 1.465 1_655 S
C465 C460 1.399 . S
C465 C464 1.394 . S
C465 C466 1.516 1_654 S
C466 C465 1.516 1_456 S
C466 C467 1.502 1_455 S
C466 C468 1.561 . S
C466 C469 1.526 1_556 S
C467 H451 0.959 . S
C467 H452 0.959 1_655 S
C467 H453 0.961 . S
C467 C466 1.502 1_655 S
C468 H454 0.960 1_455 S
C468 H455 0.961 . S
C468 H456 0.959 . S
C468 C466 1.561 . S
C469 C466 1.526 1_554 S
C469 C470 1.396 . S
C469 C474 1.390 . S
C470 C464 1.465 1_455 S
C470 C469 1.396 . S
C470 C471 1.399 . S
C471 H457 0.929 . S
C471 C470 1.399 . S
C471 C472 1.385 . S
C472 H458 0.931 . S
C472 C471 1.385 . S
C472 C473 1.389 . S
C473 C472 1.389 . S
C473 C474 1.387 . S
C474 H459 0.930 1_554 S
C474 C469 1.390 . S
C474 C473 1.387 . S
H475 C487 0.930 . S
H476 C489 0.930 . S
H477 C490 0.930 . S
H478 C494 0.959 . S
H479 C494 0.959 . S
H480 C494 0.961 . S
H481 C495 0.960 . S
H482 C495 0.961 . S
H483 C495 0.959 . S
H484 C498 0.929 . S
H485 C499 0.931 . S
H486 C501 0.930 . S
C487 H475 0.930 . S
C487 C488 1.399 . S
C487 C492 1.399 . S
C488 C487 1.399 . S
C488 C489 1.376 . S
C489 H476 0.930 . S
C489 C488 1.376 . S
C489 C490 1.388 . S
C490 H477 0.930 . S
C490 C489 1.388 . S
C490 C491 1.390 . S
C491 C490 1.390 . S
C491 C492 1.394 . S
C491 C497 1.465 . S
C492 C487 1.399 . S
C492 C491 1.394 . S
C492 C493 1.516 . S
C493 C492 1.516 . S
C493 C494 1.502 . S
C493 C495 1.561 . S
C493 C496 1.526 . S
C494 H478 0.959 . S
C494 H479 0.959 . S
C494 H480 0.961 . S
C494 C493 1.502 . S
C495 H481 0.960 . S
C495 H482 0.961 . S
C495 H483 0.959 . S
C495 C493 1.561 . S
C496 C493 1.526 . S
C496 C497 1.396 . S
C496 C501 1.390 . S
C497 C491 1.465 . S
C497 C496 1.396 . S
C497 C498 1.399 . S
C498 H484 0.929 . S
C498 C497 1.399 . S
C498 C499 1.385 . S
C499 H485 0.931 . S
C499 C498 1.385 . S
C499 C500 1.389 . S
C500 C499 1.389 . S
C500 C501 1.387 . S
C501 H486 0.930 . S
C501 C496 1.390 . S
C501 C500 1.387 . S
H502 C514 0.930 . S
H503 C516 0.930 . S
H504 C517 0.930 . S
H505 C521 0.959 . S
H506 C521 0.959 . S
H507 C521 0.961 . S
H508 C522 0.960 . S
H509 C522 0.961 . S
H510 C522 0.959 . S
H511 C525 0.929 . S
H512 C526 0.931 . S
H513 C528 0.930 . S
C514 H502 0.930 . S
C514 C515 1.399 . S
C514 C519 1.399 . S
C515 C514 1.399 . S
C515 C516 1.376 . S
C516 H503 0.930 . S
C516 C515 1.376 . S
C516 C517 1.388 . S
C517 H504 0.930 . S
C517 C516 1.388 . S
C517 C518 1.390 . S
C518 C517 1.390 . S
C518 C519 1.394 . S
C518 C524 1.465 . S
C519 C514 1.399 . S
C519 C518 1.394 . S
C519 C520 1.516 . S
C520 C519 1.516 . S
C520 C521 1.502 . S
C520 C522 1.561 . S
C520 C523 1.526 . S
C521 H505 0.959 . S
C521 H506 0.959 . S
C521 H507 0.961 . S
C521 C520 1.502 . S
C522 H508 0.960 . S
C522 H509 0.961 . S
C522 H510 0.959 . S
C522 C520 1.561 . S
C523 C520 1.526 . S
C523 C524 1.396 . S
C523 C528 1.390 . S
C524 C518 1.465 . S
C524 C523 1.396 . S
C524 C525 1.399 . S
C525 H511 0.929 . S
C525 C524 1.399 . S
C525 C526 1.385 . S
C526 H512 0.931 . S
C526 C525 1.385 . S
C526 C527 1.389 . S
C527 C526 1.389 . S
C527 C528 1.387 . S
C528 H513 0.930 . S
C528 C523 1.390 . S
C528 C527 1.387 . S
H529 C541 0.930 . S
H530 C543 0.930 . S
H531 C544 0.930 . S
H532 C548 0.959 . S
H533 C548 0.959 . S
H534 C548 0.961 . S
H535 C549 0.960 . S
H536 C549 0.961 . S
H537 C549 0.959 . S
H538 C552 0.929 . S
H539 C553 0.931 . S
H540 C555 0.930 . S
C541 H529 0.930 . S
C541 C542 1.399 . S
C541 C546 1.399 . S
C542 C541 1.399 . S
C542 C543 1.376 . S
C543 H530 0.930 . S
C543 C542 1.376 . S
C543 C544 1.388 . S
C544 H531 0.930 . S
C544 C543 1.388 . S
C544 C545 1.390 . S
C545 C544 1.390 . S
C545 C546 1.394 . S
C545 C551 1.465 . S
C546 C541 1.399 . S
C546 C545 1.394 . S
C546 C547 1.516 . S
C547 C546 1.516 . S
C547 C548 1.502 . S
C547 C549 1.561 . S
C547 C550 1.526 . S
C548 H532 0.959 . S
C548 H533 0.959 . S
C548 H534 0.961 . S
C548 C547 1.502 . S
C549 H535 0.960 . S
C549 H536 0.961 . S
C549 H537 0.959 . S
C549 C547 1.561 . S
C550 C547 1.526 . S
C550 C551 1.396 . S
C550 C555 1.390 . S
C551 C545 1.465 . S
C551 C550 1.396 . S
C551 C552 1.399 . S
C552 H538 0.929 . S
C552 C551 1.399 . S
C552 C553 1.385 . S
C553 H539 0.931 . S
C553 C552 1.385 . S
C553 C554 1.389 . S
C554 C553 1.389 . S
C554 C555 1.387 . S
C555 H540 0.930 . S
C555 C550 1.390 . S
C555 C554 1.387 . S
H556 C568 0.930 . S
H557 C570 0.930 . S
H558 C571 0.930 . S
H559 C575 0.959 . S
H560 C575 0.959 1_655 S
H561 C575 0.961 . S
H562 C576 0.960 1_455 S
H563 C576 0.961 . S
H564 C576 0.959 . S
H565 C579 0.929 . S
H566 C580 0.931 . S
H567 C582 0.930 . S
C568 H556 0.930 . S
C568 C569 1.399 . S
C568 C573 1.399 . S
C569 C568 1.399 . S
C569 C570 1.376 . S
C570 H557 0.930 . S
C570 C569 1.376 . S
C570 C571 1.388 . S
C571 H558 0.930 . S
C571 C570 1.388 . S
C571 C572 1.390 . S
C572 C571 1.390 . S
C572 C573 1.394 . S
C572 C578 1.465 1_455 S
C573 C568 1.399 . S
C573 C572 1.394 . S
C573 C574 1.516 1_455 S
C574 C573 1.516 1_655 S
C574 C575 1.502 1_655 S
C574 C576 1.561 . S
C574 C577 1.526 . S
C575 H559 0.959 . S
C575 H560 0.959 1_455 S
C575 H561 0.961 . S
C575 C574 1.502 1_455 S
C576 H562 0.960 1_655 S
C576 H563 0.961 . S
C576 H564 0.959 . S
C576 C574 1.561 . S
C577 C574 1.526 . S
C577 C578 1.396 . S
C577 C582 1.390 . S
C578 C572 1.465 1_655 S
C578 C577 1.396 . S
C578 C579 1.399 . S
C579 H565 0.929 . S
C579 C578 1.399 . S
C579 C580 1.385 . S
C580 H566 0.931 . S
C580 C579 1.385 . S
C580 C581 1.389 . S
C581 C580 1.389 . S
C581 C582 1.387 . S
C582 H567 0.930 . S
C582 C577 1.390 . S
C582 C581 1.387 . S
H583 C595 0.930 . S
H584 C597 0.930 . S
H585 C598 0.930 . S
H586 C602 0.959 . S
H587 C602 0.959 . S
H588 C602 0.961 . S
H589 C603 0.960 . S
H590 C603 0.961 . S
H591 C603 0.959 . S
H592 C606 0.929 . S
H593 C607 0.931 . S
H594 C609 0.930 . S
C595 H583 0.930 . S
C595 C596 1.399 . S
C595 C600 1.399 . S
C596 C595 1.399 . S
C596 C597 1.376 . S
C597 H584 0.930 . S
C597 C596 1.376 . S
C597 C598 1.388 . S
C598 H585 0.930 . S
C598 C597 1.388 . S
C598 C599 1.390 . S
C599 C598 1.390 . S
C599 C600 1.394 . S
C599 C605 1.465 . S
C600 C595 1.399 . S
C600 C599 1.394 . S
C600 C601 1.516 . S
C601 C600 1.516 . S
C601 C602 1.502 . S
C601 C603 1.561 . S
C601 C604 1.526 . S
C602 H586 0.959 . S
C602 H587 0.959 . S
C602 H588 0.961 . S
C602 C601 1.502 . S
C603 H589 0.960 . S
C603 H590 0.961 . S
C603 H591 0.959 . S
C603 C601 1.561 . S
C604 C601 1.526 . S
C604 C605 1.396 . S
C604 C609 1.390 . S
C605 C599 1.465 . S
C605 C604 1.396 . S
C605 C606 1.399 . S
C606 H592 0.929 . S
C606 C605 1.399 . S
C606 C607 1.385 . S
C607 H593 0.931 . S
C607 C606 1.385 . S
C607 C608 1.389 . S
C608 C607 1.389 . S
C608 C609 1.387 . S
C609 H594 0.930 . S
C609 C604 1.390 . S
C609 C608 1.387 . S
H610 C622 0.930 1_556 S
H611 C624 0.930 . S
H612 C625 0.930 . S
H613 C629 0.959 1_554 S
H614 C629 0.959 . S
H615 C629 0.961 . S
H616 C630 0.960 . S
H617 C630 0.961 . S
H618 C630 0.959 . S
H619 C633 0.929 . S
H620 C634 0.931 . S
H621 C636 0.930 1_556 S
C622 H610 0.930 1_554 S
C622 C623 1.399 . S
C622 C627 1.399 . S
C623 C622 1.399 . S
C623 C624 1.376 . S
C624 H611 0.930 . S
C624 C623 1.376 . S
C624 C625 1.388 . S
C625 H612 0.930 . S
C625 C624 1.388 . S
C625 C626 1.390 . S
C626 C625 1.390 . S
C626 C627 1.394 . S
C626 C632 1.465 . S
C627 C622 1.399 . S
C627 C626 1.394 . S
C627 C628 1.516 1_554 S
C628 C627 1.516 1_556 S
C628 C629 1.502 . S
C628 C630 1.561 . S
C628 C631 1.526 1_556 S
C629 H613 0.959 1_556 S
C629 H614 0.959 . S
C629 H615 0.961 . S
C629 C628 1.502 . S
C630 H616 0.960 . S
C630 H617 0.961 . S
C630 H618 0.959 . S
C630 C628 1.561 . S
C631 C628 1.526 1_554 S
C631 C632 1.396 . S
C631 C636 1.390 . S
C632 C626 1.465 . S
C632 C631 1.396 . S
C632 C633 1.399 . S
C633 H619 0.929 . S
C633 C632 1.399 . S
C633 C634 1.385 . S
C634 H620 0.931 . S
C634 C633 1.385 . S
C634 C635 1.389 . S
C635 C634 1.389 . S
C635 C636 1.387 . S
C636 H621 0.930 1_554 S
C636 C631 1.390 . S
C636 C635 1.387 . S
H637 C649 0.930 . S
H638 C651 0.930 . S
H639 C652 0.930 . S
H640 C656 0.959 . S
H641 C656 0.959 . S
H642 C656 0.961 . S
H643 C657 0.960 . S
H644 C657 0.961 . S
H645 C657 0.959 . S
H646 C660 0.929 . S
H647 C661 0.931 . S
H648 C663 0.930 . S
C649 H637 0.930 . S
C649 C650 1.399 . S
C649 C654 1.399 . S
C650 C649 1.399 . S
C650 C651 1.376 . S
C651 H638 0.930 . S
C651 C650 1.376 . S
C651 C652 1.388 . S
C652 H639 0.930 . S
C652 C651 1.388 . S
C652 C653 1.390 . S
C653 C652 1.390 . S
C653 C654 1.394 . S
C653 C659 1.465 . S
C654 C649 1.399 . S
C654 C653 1.394 . S
C654 C655 1.516 . S
C655 C654 1.516 . S
C655 C656 1.502 . S
C655 C657 1.561 . S
C655 C658 1.526 . S
C656 H640 0.959 . S
C656 H641 0.959 . S
C656 H642 0.961 . S
C656 C655 1.502 . S
C657 H643 0.960 . S
C657 H644 0.961 . S
C657 H645 0.959 . S
C657 C655 1.561 . S
C658 C655 1.526 . S
C658 C659 1.396 . S
C658 C663 1.390 . S
C659 C653 1.465 . S
C659 C658 1.396 . S
C659 C660 1.399 . S
C660 H646 0.929 . S
C660 C659 1.399 . S
C660 C661 1.385 . S
C661 H647 0.931 . S
C661 C660 1.385 . S
C661 C662 1.389 . S
C662 C661 1.389 . S
C662 C663 1.387 . S
C663 H648 0.930 . S
C663 C658 1.390 . S
C663 C662 1.387 . S
H664 C676 0.930 . S
H665 C678 0.930 . S
H666 C679 0.930 . S
H667 C683 0.959 . S
H668 C683 0.959 . S
H669 C683 0.961 . S
H670 C684 0.960 . S
H671 C684 0.961 . S
H672 C684 0.959 . S
H673 C687 0.929 . S
H674 C688 0.931 . S
H675 C690 0.930 . S
C676 H664 0.930 . S
C676 C677 1.399 . S
C676 C681 1.399 . S
C677 C676 1.399 . S
C677 C678 1.376 . S
C678 H665 0.930 . S
C678 C677 1.376 . S
C678 C679 1.388 . S
C679 H666 0.930 . S
C679 C678 1.388 . S
C679 C680 1.390 . S
C680 C679 1.390 . S
C680 C681 1.394 . S
C680 C686 1.465 . S
C681 C676 1.399 . S
C681 C680 1.394 . S
C681 C682 1.516 . S
C682 C681 1.516 . S
C682 C683 1.502 . S
C682 C684 1.561 . S
C682 C685 1.526 . S
C683 H667 0.959 . S
C683 H668 0.959 . S
C683 H669 0.961 . S
C683 C682 1.502 . S
C684 H670 0.960 . S
C684 H671 0.961 . S
C684 H672 0.959 . S
C684 C682 1.561 . S
C685 C682 1.526 . S
C685 C686 1.396 . S
C685 C690 1.390 . S
C686 C680 1.465 . S
C686 C685 1.396 . S
C686 C687 1.399 . S
C687 H673 0.929 . S
C687 C686 1.399 . S
C687 C688 1.385 . S
C688 H674 0.931 . S
C688 C687 1.385 . S
C688 C689 1.389 . S
C689 C688 1.389 . S
C689 C690 1.387 . S
C690 H675 0.930 . S
C690 C685 1.390 . S
C690 C689 1.387 . S
H691 C703 0.930 . S
H692 C705 0.930 . S
H693 C706 0.930 . S
H694 C710 0.959 . S
H695 C710 0.959 . S
H696 C710 0.961 . S
H697 C711 0.960 . S
H698 C711 0.961 . S
H699 C711 0.959 . S
H700 C714 0.929 . S
H701 C715 0.931 . S
H702 C717 0.930 . S
C703 H691 0.930 . S
C703 C704 1.399 . S
C703 C708 1.399 . S
C704 C703 1.399 . S
C704 C705 1.376 . S
C705 H692 0.930 . S
C705 C704 1.376 . S
C705 C706 1.388 . S
C706 H693 0.930 . S
C706 C705 1.388 . S
C706 C707 1.390 . S
C707 C706 1.390 . S
C707 C708 1.394 . S
C707 C713 1.465 . S
C708 C703 1.399 . S
C708 C707 1.394 . S
C708 C709 1.516 . S
C709 C708 1.516 . S
C709 C710 1.502 . S
C709 C711 1.561 . S
C709 C712 1.526 . S
C710 H694 0.959 . S
C710 H695 0.959 . S
C710 H696 0.961 . S
C710 C709 1.502 . S
C711 H697 0.960 . S
C711 H698 0.961 . S
C711 H699 0.959 . S
C711 C709 1.561 . S
C712 C709 1.526 . S
C712 C713 1.396 . S
C712 C717 1.390 . S
C713 C707 1.465 . S
C713 C712 1.396 . S
C713 C714 1.399 . S
C714 H700 0.929 . S
C714 C713 1.399 . S
C714 C715 1.385 . S
C715 H701 0.931 . S
C715 C714 1.385 . S
C715 C716 1.389 . S
C716 C715 1.389 . S
C716 C717 1.387 . S
C717 H702 0.930 . S
C717 C712 1.390 . S
C717 C716 1.387 . S
H718 C730 0.930 . S
H719 C732 0.930 . S
H720 C733 0.930 . S
H721 C737 0.959 . S
H722 C737 0.959 . S
H723 C737 0.961 . S
H724 C738 0.960 . S
H725 C738 0.961 . S
H726 C738 0.959 . S
H727 C741 0.929 . S
H728 C742 0.931 . S
H729 C744 0.930 . S
C730 H718 0.930 . S
C730 C731 1.399 . S
C730 C735 1.399 . S
C731 C730 1.399 . S
C731 C732 1.376 . S
C732 H719 0.930 . S
C732 C731 1.376 . S
C732 C733 1.388 . S
C733 H720 0.930 . S
C733 C732 1.388 . S
C733 C734 1.390 . S
C734 C733 1.390 . S
C734 C735 1.394 . S
C734 C740 1.465 . S
C735 C730 1.399 . S
C735 C734 1.394 . S
C735 C736 1.516 . S
C736 C735 1.516 . S
C736 C737 1.502 . S
C736 C738 1.561 . S
C736 C739 1.526 . S
C737 H721 0.959 . S
C737 H722 0.959 . S
C737 H723 0.961 . S
C737 C736 1.502 . S
C738 H724 0.960 . S
C738 H725 0.961 . S
C738 H726 0.959 . S
C738 C736 1.561 . S
C739 C736 1.526 . S
C739 C740 1.396 . S
C739 C744 1.390 . S
C740 C734 1.465 . S
C740 C739 1.396 . S
C740 C741 1.399 . S
C741 H727 0.929 . S
C741 C740 1.399 . S
C741 C742 1.385 . S
C742 H728 0.931 . S
C742 C741 1.385 . S
C742 C743 1.389 . S
C743 C742 1.389 . S
C743 C744 1.387 . S
C744 H729 0.930 . S
C744 C739 1.390 . S
C744 C743 1.387 . S
H745 C757 0.930 . S
H746 C759 0.930 . S
H747 C760 0.930 . S
H748 C764 0.959 . S
H749 C764 0.959 . S
H750 C764 0.961 . S
H751 C765 0.960 . S
H752 C765 0.961 . S
H753 C765 0.959 . S
H754 C768 0.929 . S
H755 C769 0.931 . S
H756 C771 0.930 . S
C757 H745 0.930 . S
C757 C758 1.399 . S
C757 C762 1.399 . S
C758 C757 1.399 . S
C758 C759 1.376 . S
C759 H746 0.930 . S
C759 C758 1.376 . S
C759 C760 1.388 . S
C760 H747 0.930 . S
C760 C759 1.388 . S
C760 C761 1.390 . S
C761 C760 1.390 . S
C761 C762 1.394 . S
C761 C767 1.465 . S
C762 C757 1.399 . S
C762 C761 1.394 . S
C762 C763 1.516 . S
C763 C762 1.516 . S
C763 C764 1.502 . S
C763 C765 1.561 . S
C763 C766 1.526 . S
C764 H748 0.959 . S
C764 H749 0.959 . S
C764 H750 0.961 . S
C764 C763 1.502 . S
C765 H751 0.960 . S
C765 H752 0.961 . S
C765 H753 0.959 . S
C765 C763 1.561 . S
C766 C763 1.526 . S
C766 C767 1.396 . S
C766 C771 1.390 . S
C767 C761 1.465 . S
C767 C766 1.396 . S
C767 C768 1.399 . S
C768 H754 0.929 . S
C768 C767 1.399 . S
C768 C769 1.385 . S
C769 H755 0.931 . S
C769 C768 1.385 . S
C769 C770 1.389 . S
C770 C769 1.389 . S
C770 C771 1.387 . S
C771 H756 0.930 . S
C771 C766 1.390 . S
C771 C770 1.387 . S
H772 C784 0.949 . S
H773 C786 0.930 . S
H774 C787 0.930 . S
H775 C791 0.959 . S
H776 C791 0.959 . S
H777 C791 0.961 . S
H778 C792 0.960 . S
H779 C792 0.961 1_565 S
H780 C792 0.959 . S
H781 C795 0.929 . S
H782 C796 0.931 . S
H783 C798 0.930 . S
C784 H772 0.949 . S
C784 C785 1.399 . S
C784 C789 1.399 . S
C785 C784 1.399 . S
C785 C786 1.376 . S
C786 H773 0.930 . S
C786 C785 1.376 . S
C786 C787 1.388 . S
C787 H774 0.930 . S
C787 C786 1.388 . S
C787 C788 1.390 . S
C788 C787 1.390 . S
C788 C789 1.394 . S
C788 C794 1.465 . S
C789 C784 1.399 . S
C789 C788 1.394 . S
C789 C790 1.516 1_545 S
C790 C789 1.516 1_565 S
C790 C791 1.502 . S
C790 C792 1.561 1_565 S
C790 C793 1.526 . S
C791 H775 0.959 . S
C791 H776 0.959 . S
C791 H777 0.961 . S
C791 C790 1.502 . S
C792 H778 0.960 . S
C792 H779 0.961 1_545 S
C792 H780 0.959 . S
C792 C790 1.561 1_545 S
C793 C790 1.526 . S
C793 C794 1.396 1_565 S
C793 C798 1.390 . S
C794 C788 1.465 . S
C794 C793 1.396 1_545 S
C794 C795 1.399 . S
C795 H781 0.929 . S
C795 C794 1.399 . S
C795 C796 1.385 1_545 S
C796 H782 0.931 . S
C796 C795 1.385 1_565 S
C796 C797 1.389 . S
C797 C796 1.389 . S
C797 C798 1.387 . S
C798 H783 0.930 . S
C798 C793 1.390 . S
C798 C797 1.387 . S
H799 C811 0.930 1_556 S
H800 C813 0.930 . S
H801 C814 0.930 . S
H802 C818 0.959 1_554 S
H803 C818 0.959 . S
H804 C818 0.961 . S
H805 C819 0.986 . S
H806 C819 0.943 1_465 S
H807 C819 0.948 1_455 S
H808 C822 0.929 . S
H809 C823 0.931 . S
H810 C825 0.930 1_556 S
C811 H799 0.930 1_554 S
C811 C812 1.399 . S
C811 C816 1.399 . S
C812 C811 1.399 . S
C812 C813 1.376 . S
C813 H800 0.930 . S
C813 C812 1.376 . S
C813 C814 1.388 . S
C814 H801 0.930 . S
C814 C813 1.388 . S
C814 C815 1.390 . S
C815 C814 1.390 . S
C815 C816 1.394 . S
C815 C821 1.465 1_655 S
C816 C811 1.399 . S
C816 C815 1.394 . S
C816 C817 1.516 1_544 S
C817 C816 1.516 1_566 S
C817 C818 1.502 . S
C817 C819 1.566 1_565 S
C817 C820 1.526 1_656 S
C818 H802 0.959 1_556 S
C818 H803 0.959 . S
C818 H804 0.961 . S
C818 C817 1.502 . S
C819 H805 0.986 . S
C819 H806 0.943 1_645 S
C819 H807 0.948 1_655 S
C819 C817 1.566 1_545 S
C820 C817 1.526 1_454 S
C820 C821 1.396 1_565 S
C820 C825 1.390 . S
C821 C815 1.465 1_455 S
C821 C820 1.396 1_545 S
C821 C822 1.399 . S
C822 H808 0.929 . S
C822 C821 1.399 . S
C822 C823 1.385 1_545 S
C823 H809 0.931 . S
C823 C822 1.385 1_565 S
C823 C824 1.389 . S
C824 C823 1.389 . S
C824 C825 1.387 . S
C825 H810 0.930 1_554 S
C825 C820 1.390 . S
C825 C824 1.387 . S
H826 C838 0.957 . S
H827 C840 0.930 . S
H828 C841 0.930 . S
H829 C845 0.959 . S
H830 C845 0.959 . S
H831 C845 0.961 . S
H832 C846 0.960 . S
H833 C846 0.961 . S
H834 C846 0.959 . S
H835 C849 0.929 . S
H836 C850 0.931 . S
H837 C852 0.930 . S
C838 H826 0.957 . S
C838 C839 1.367 1_565 S
C838 C843 1.404 . S
C839 C838 1.367 1_545 S
C839 C840 1.376 . S
C840 H827 0.930 . S
C840 C839 1.376 . S
C840 C841 1.388 . S
C841 H828 0.930 . S
C841 C840 1.388 . S
C841 C842 1.390 . S
C842 C841 1.390 . S
C842 C843 1.394 1_545 S
C842 C848 1.465 . S
C843 C838 1.404 . S
C843 C842 1.394 1_565 S
C843 C844 1.516 . S
C844 C843 1.516 . S
C844 C845 1.502 1_554 S
C844 C846 1.561 . S
C844 C847 1.526 . S
C845 H829 0.959 . S
C845 H830 0.959 . S
C845 H831 0.961 . S
C845 C844 1.502 1_556 S
C846 H832 0.960 . S
C846 H833 0.961 . S
C846 H834 0.959 . S
C846 C844 1.561 . S
C847 C844 1.526 . S
C847 C848 1.396 1_565 S
C847 C852 1.390 . S
C848 C842 1.465 . S
C848 C847 1.396 1_545 S
C848 C849 1.399 . S
C849 H835 0.929 . S
C849 C848 1.399 . S
C849 C850 1.385 . S
C850 H836 0.931 . S
C850 C849 1.385 . S
C850 C851 1.389 1_545 S
C851 C850 1.389 1_565 S
C851 C852 1.387 . S
C852 H837 0.930 . S
C852 C847 1.390 . S
C852 C851 1.387 . S
H853 C865 0.930 . S
H854 C867 0.930 . S
H855 C868 0.930 . S
H856 C872 0.959 . S
H857 C872 0.959 . S
H858 C872 0.961 1_455 S
H859 C873 0.960 . S
H860 C873 0.961 1_655 S
H861 C873 0.959 . S
H862 C876 0.929 . S
H863 C877 0.931 . S
H864 C879 0.930 . S
C865 H853 0.930 . S
C865 C866 1.399 . S
C865 C870 1.399 . S
C866 C865 1.399 . S
C866 C867 1.376 . S
C867 H854 0.930 . S
C867 C866 1.376 . S
C867 C868 1.388 1_545 S
C868 H855 0.930 . S
C868 C867 1.388 1_565 S
C868 C869 1.390 . S
C869 C868 1.390 . S
C869 C870 1.394 1_565 S
C869 C875 1.465 1_455 S
C870 C865 1.399 . S
C870 C869 1.394 1_545 S
C870 C871 1.475 1_455 S
C871 C870 1.475 1_655 S
C871 C872 1.519 . S
C871 C873 1.549 1_645 S
C871 C874 1.564 1_545 S
C872 H856 0.959 . S
C872 H857 0.959 . S
C872 H858 0.961 1_655 S
C872 C871 1.519 . S
C873 H859 0.960 . S
C873 H860 0.961 1_455 S
C873 H861 0.959 . S
C873 C871 1.549 1_465 S
C874 C871 1.564 1_565 S
C874 C875 1.396 . S
C874 C879 1.390 . S
C875 C869 1.465 1_655 S
C875 C874 1.396 . S
C875 C876 1.399 . S
C876 H862 0.929 . S
C876 C875 1.399 . S
C876 C877 1.385 . S
C877 H863 0.931 . S
C877 C876 1.385 . S
C877 C878 1.389 . S
C878 C877 1.389 . S
C878 C879 1.387 . S
C879 H864 0.930 . S
C879 C874 1.390 . S
C879 C878 1.387 . S
H880 C892 0.930 . S
H881 C894 0.930 . S
H882 C895 0.930 . S
H883 C899 0.959 . S
H884 C899 0.959 . S
H885 C899 0.961 . S
H886 C900 0.960 . S
H887 C900 0.961 . S
H888 C900 0.959 . S
H889 C903 0.929 . S
H890 C904 0.931 . S
H891 C906 0.930 . S
C892 H880 0.930 . S
C892 C893 1.399 . S
C892 C897 1.399 . S
C893 C892 1.399 . S
C893 C894 1.376 . S
C894 H881 0.930 . S
C894 C893 1.376 . S
C894 C895 1.388 . S
C895 H882 0.930 . S
C895 C894 1.388 . S
C895 C896 1.390 . S
C896 C895 1.390 . S
C896 C897 1.394 . S
C896 C902 1.465 . S
C897 C892 1.399 . S
C897 C896 1.394 . S
C897 C898 1.516 . S
C898 C897 1.516 . S
C898 C899 1.502 . S
C898 C900 1.561 . S
C898 C901 1.526 . S
C899 H883 0.959 . S
C899 H884 0.959 . S
C899 H885 0.961 . S
C899 C898 1.502 . S
C900 H886 0.960 . S
C900 H887 0.961 . S
C900 H888 0.959 . S
C900 C898 1.561 . S
C901 C898 1.526 . S
C901 C902 1.396 . S
C901 C906 1.390 . S
C902 C896 1.465 . S
C902 C901 1.396 . S
C902 C903 1.399 . S
C903 H889 0.929 . S
C903 C902 1.399 . S
C903 C904 1.385 . S
C904 H890 0.931 . S
C904 C903 1.385 . S
C904 C905 1.389 . S
C905 C904 1.389 . S
C905 C906 1.387 . S
C906 H891 0.930 . S
C906 C901 1.390 . S
C906 C905 1.387 . S
H907 C919 0.930 . S
H908 C921 0.930 . S
H909 C922 0.930 . S
H910 C926 0.959 . S
H911 C926 0.959 . S
H912 C926 0.961 . S
H913 C927 0.960 . S
H914 C927 0.961 . S
H915 C927 0.959 . S
H916 C930 0.929 . S
H917 C931 0.931 . S
H918 C933 0.930 . S
C919 H907 0.930 . S
C919 C920 1.399 . S
C919 C924 1.399 1_556 S
C920 C919 1.399 . S
C920 C921 1.376 . S
C921 H908 0.930 . S
C921 C920 1.376 . S
C921 C922 1.388 . S
C922 H909 0.930 . S
C922 C921 1.388 . S
C922 C923 1.390 1_556 S
C923 C922 1.390 1_554 S
C923 C924 1.394 . S
C923 C929 1.465 . S
C924 C919 1.399 1_554 S
C924 C923 1.394 . S
C924 C925 1.516 . S
C925 C924 1.516 . S
C925 C926 1.502 . S
C925 C927 1.561 . S
C925 C928 1.526 . S
C926 H910 0.959 . S
C926 H911 0.959 . S
C926 H912 0.961 . S
C926 C925 1.502 . S
C927 H913 0.960 . S
C927 H914 0.961 . S
C927 H915 0.959 . S
C927 C925 1.561 . S
C928 C925 1.526 . S
C928 C929 1.396 . S
C928 C933 1.390 . S
C929 C923 1.465 . S
C929 C928 1.396 . S
C929 C930 1.399 . S
C930 H916 0.929 . S
C930 C929 1.399 . S
C930 C931 1.385 . S
C931 H917 0.931 . S
C931 C930 1.385 . S
C931 C932 1.389 . S
C932 C931 1.389 . S
C932 C933 1.387 . S
C933 H918 0.930 . S
C933 C928 1.390 . S
C933 C932 1.387 . S
H934 C946 0.930 . S
H935 C948 0.930 . S
H936 C949 0.930 . S
H937 C953 0.959 . S
H938 C953 0.959 . S
H939 C953 0.961 . S
H940 C954 0.960 . S
H941 C954 0.961 . S
H942 C954 0.959 . S
H943 C957 0.929 . S
H944 C958 0.931 . S
H945 C960 0.930 . S
C946 H934 0.930 . S
C946 C947 1.399 . S
C946 C951 1.399 . S
C947 C946 1.399 . S
C947 C948 1.376 . S
C948 H935 0.930 . S
C948 C947 1.376 . S
C948 C949 1.388 . S
C949 H936 0.930 . S
C949 C948 1.388 . S
C949 C950 1.390 . S
C950 C949 1.390 . S
C950 C951 1.394 . S
C950 C956 1.465 . S
C951 C946 1.399 . S
C951 C950 1.394 . S
C951 C952 1.516 . S
C952 C951 1.516 . S
C952 C953 1.502 . S
C952 C954 1.561 . S
C952 C955 1.526 . S
C953 H937 0.959 . S
C953 H938 0.959 . S
C953 H939 0.961 . S
C953 C952 1.502 . S
C954 H940 0.960 . S
C954 H941 0.961 . S
C954 H942 0.959 . S
C954 C952 1.561 . S
C955 C952 1.526 . S
C955 C956 1.396 . S
C955 C960 1.390 . S
C956 C950 1.465 . S
C956 C955 1.396 . S
C956 C957 1.399 . S
C957 H943 0.929 . S
C957 C956 1.399 . S
C957 C958 1.385 . S
C958 H944 0.931 . S
C958 C957 1.385 . S
C958 C959 1.389 . S
C959 C958 1.389 . S
C959 C960 1.387 . S
C960 H945 0.930 . S
C960 C955 1.390 . S
C960 C959 1.387 . S
H961 C973 0.930 . S
H962 C975 0.930 . S
H963 C976 0.930 . S
H964 C980 0.959 . S
H965 C980 0.959 . S
H966 C980 0.961 . S
H967 C981 0.960 . S
H968 C981 0.961 . S
H969 C981 0.959 . S
H970 C984 0.929 . S
H971 C985 0.931 . S
H972 C987 0.930 . S
C973 H961 0.930 . S
C973 C974 1.399 . S
C973 C978 1.399 . S
C974 C973 1.399 . S
C974 C975 1.376 . S
C975 H962 0.930 . S
C975 C974 1.376 . S
C975 C976 1.388 . S
C976 H963 0.930 . S
C976 C975 1.388 . S
C976 C977 1.390 . S
C977 C976 1.390 . S
C977 C978 1.394 . S
C977 C983 1.465 . S
C978 C973 1.399 . S
C978 C977 1.394 . S
C978 C979 1.516 . S
C979 C978 1.516 . S
C979 C980 1.502 . S
C979 C981 1.561 . S
C979 C982 1.526 . S
C980 H964 0.959 . S
C980 H965 0.959 . S
C980 H966 0.961 . S
C980 C979 1.502 . S
C981 H967 0.960 . S
C981 H968 0.961 . S
C981 H969 0.959 . S
C981 C979 1.561 . S
C982 C979 1.526 . S
C982 C983 1.396 . S
C982 C987 1.390 . S
C983 C977 1.465 . S
C983 C982 1.396 . S
C983 C984 1.399 . S
C984 H970 0.929 . S
C984 C983 1.399 . S
C984 C985 1.385 . S
C985 H971 0.931 . S
C985 C984 1.385 . S
C985 C986 1.389 . S
C986 C985 1.389 . S
C986 C987 1.387 . S
C987 H972 0.930 . S
C987 C982 1.390 . S
C987 C986 1.387 . S
H988 C1000 0.930 . S
H989 C1002 0.930 . S
H990 C1003 0.930 . S
H991 C1007 0.959 . S
H992 C1007 0.959 . S
H993 C1007 0.961 . S
H994 C1008 0.960 . S
H995 C1008 0.961 . S
H996 C1008 0.959 . S
H997 C1011 0.929 . S
H998 C1012 0.931 . S
H999 C1014 0.930 . S
C1000 H988 0.930 . S
C1000 C1001 1.399 . S
C1000 C1005 1.399 . S
C1001 C1000 1.399 . S
C1001 C1002 1.376 . S
C1002 H989 0.930 . S
C1002 C1001 1.376 . S
C1002 C1003 1.388 . S
C1003 H990 0.930 . S
C1003 C1002 1.388 . S
C1003 C1004 1.390 . S
C1004 C1003 1.390 . S
C1004 C1005 1.394 . S
C1004 C1010 1.465 . S
C1005 C1000 1.399 . S
C1005 C1004 1.394 . S
C1005 C1006 1.516 . S
C1006 C1005 1.516 . S
C1006 C1007 1.502 . S
C1006 C1008 1.561 . S
C1006 C1009 1.526 . S
C1007 H991 0.959 . S
C1007 H992 0.959 . S
C1007 H993 0.961 . S
C1007 C1006 1.502 . S
C1008 H994 0.960 . S
C1008 H995 0.961 . S
C1008 H996 0.959 . S
C1008 C1006 1.561 . S
C1009 C1006 1.526 . S
C1009 C1010 1.396 . S
C1009 C1014 1.390 . S
C1010 C1004 1.465 . S
C1010 C1009 1.396 . S
C1010 C1011 1.399 . S
C1011 H997 0.929 . S
C1011 C1010 1.399 . S
C1011 C1012 1.385 . S
C1012 H998 0.931 . S
C1012 C1011 1.385 . S
C1012 C1013 1.389 . S
C1013 C1012 1.389 . S
C1013 C1014 1.387 . S
C1014 H999 0.930 . S
C1014 C1009 1.390 . S
C1014 C1013 1.387 . S
H1015 C1027 0.930 . S
H1016 C1029 0.930 . S
H1017 C1030 0.930 1_554 S
H1018 C1034 0.959 . S
H1019 C1034 0.959 . S
H1020 C1034 0.961 . S
H1021 C1035 0.960 . S
H1022 C1035 0.961 . S
H1023 C1035 0.959 . S
H1024 C1038 0.929 . S
H1025 C1039 0.931 . S
H1026 C1041 0.930 . S
C1027 H1015 0.930 . S
C1027 C1028 1.399 . S
C1027 C1032 1.399 1_556 S
C1028 C1027 1.399 . S
C1028 C1029 1.376 . S
C1029 H1016 0.930 . S
C1029 C1028 1.376 . S
C1029 C1030 1.388 . S
C1030 H1017 0.930 1_556 S
C1030 C1029 1.388 . S
C1030 C1031 1.390 1_556 S
C1031 C1030 1.390 1_554 S
C1031 C1032 1.394 . S
C1031 C1037 1.465 . S
C1032 C1027 1.399 1_554 S
C1032 C1031 1.394 . S
C1032 C1033 1.516 . S
C1033 C1032 1.516 . S
C1033 C1034 1.502 . S
C1033 C1035 1.561 . S
C1033 C1036 1.526 . S
C1034 H1018 0.959 . S
C1034 H1019 0.959 . S
C1034 H1020 0.961 . S
C1034 C1033 1.502 . S
C1035 H1021 0.960 . S
C1035 H1022 0.961 . S
C1035 H1023 0.959 . S
C1035 C1033 1.561 . S
C1036 C1033 1.526 . S
C1036 C1037 1.396 . S
C1036 C1041 1.390 . S
C1037 C1031 1.465 . S
C1037 C1036 1.396 . S
C1037 C1038 1.399 . S
C1038 H1024 0.929 . S
C1038 C1037 1.399 . S
C1038 C1039 1.385 . S
C1039 H1025 0.931 . S
C1039 C1038 1.385 . S
C1039 C1040 1.389 . S
C1040 C1039 1.389 . S
C1040 C1041 1.387 . S
C1041 H1026 0.930 . S
C1041 C1036 1.390 . S
C1041 C1040 1.387 . S
H1042 C1054 0.930 . S
H1043 C1056 0.930 . S
H1044 C1057 0.930 . S
H1045 C1061 0.959 . S
H1046 C1061 0.959 . S
H1047 C1061 0.961 . S
H1048 C1062 0.960 . S
H1049 C1062 0.961 . S
H1050 C1062 0.959 . S
H1051 C1065 0.929 . S
H1052 C1066 0.931 . S
H1053 C1068 0.930 . S
C1054 H1042 0.930 . S
C1054 C1055 1.399 . S
C1054 C1059 1.399 . S
C1055 C1054 1.399 . S
C1055 C1056 1.376 . S
C1056 H1043 0.930 . S
C1056 C1055 1.376 . S
C1056 C1057 1.388 . S
C1057 H1044 0.930 . S
C1057 C1056 1.388 . S
C1057 C1058 1.390 . S
C1058 C1057 1.390 . S
C1058 C1059 1.394 . S
C1058 C1064 1.465 . S
C1059 C1054 1.399 . S
C1059 C1058 1.394 . S
C1059 C1060 1.516 . S
C1060 C1059 1.516 . S
C1060 C1061 1.502 . S
C1060 C1062 1.561 . S
C1060 C1063 1.526 . S
C1061 H1045 0.959 . S
C1061 H1046 0.959 . S
C1061 H1047 0.961 . S
C1061 C1060 1.502 . S
C1062 H1048 0.960 . S
C1062 H1049 0.961 . S
C1062 H1050 0.959 . S
C1062 C1060 1.561 . S
C1063 C1060 1.526 . S
C1063 C1064 1.396 . S
C1063 C1068 1.390 . S
C1064 C1058 1.465 . S
C1064 C1063 1.396 . S
C1064 C1065 1.399 . S
C1065 H1051 0.929 . S
C1065 C1064 1.399 . S
C1065 C1066 1.385 . S
C1066 H1052 0.931 . S
C1066 C1065 1.385 . S
C1066 C1067 1.389 . S
C1067 C1066 1.389 . S
C1067 C1068 1.387 . S
C1068 H1053 0.930 . S
C1068 C1063 1.390 . S
C1068 C1067 1.387 . S
H1069 C1081 0.930 . S
H1070 C1083 0.930 . S
H1071 C1084 0.930 . S
H1072 C1088 0.959 . S
H1073 C1088 0.959 . S
H1074 C1088 0.961 . S
H1075 C1089 0.960 . S
H1076 C1089 0.961 . S
H1077 C1089 0.959 . S
H1078 C1092 0.929 . S
H1079 C1093 0.931 . S
H1080 C1095 0.930 . S
C1081 H1069 0.930 . S
C1081 C1082 1.399 . S
C1081 C1086 1.399 . S
C1082 C1081 1.399 . S
C1082 C1083 1.376 . S
C1083 H1070 0.930 . S
C1083 C1082 1.376 . S
C1083 C1084 1.388 . S
C1084 H1071 0.930 . S
C1084 C1083 1.388 . S
C1084 C1085 1.390 . S
C1085 C1084 1.390 . S
C1085 C1086 1.394 . S
C1085 C1091 1.465 . S
C1086 C1081 1.399 . S
C1086 C1085 1.394 . S
C1086 C1087 1.516 . S
C1087 C1086 1.516 . S
C1087 C1088 1.502 . S
C1087 C1089 1.561 . S
C1087 C1090 1.526 . S
C1088 H1072 0.959 . S
C1088 H1073 0.959 . S
C1088 H1074 0.961 . S
C1088 C1087 1.502 . S
C1089 H1075 0.960 . S
C1089 H1076 0.961 . S
C1089 H1077 0.959 . S
C1089 C1087 1.561 . S
C1090 C1087 1.526 . S
C1090 C1091 1.396 . S
C1090 C1095 1.390 . S
C1091 C1085 1.465 . S
C1091 C1090 1.396 . S
C1091 C1092 1.399 . S
C1092 H1078 0.929 . S
C1092 C1091 1.399 . S
C1092 C1093 1.385 . S
C1093 H1079 0.931 . S
C1093 C1092 1.385 . S
C1093 C1094 1.389 . S
C1094 C1093 1.389 . S
C1094 C1095 1.387 . S
C1095 H1080 0.930 . S
C1095 C1090 1.390 . S
C1095 C1094 1.387 . S
H1096 C1108 0.930 . S
H1097 C1110 0.930 . S
H1098 C1111 0.930 . S
H1099 C1115 0.959 . S
H1100 C1115 0.959 . S
H1101 C1115 0.961 . S
H1102 C1116 0.960 . S
H1103 C1116 0.961 . S
H1104 C1116 0.959 . S
H1105 C1119 0.929 . S
H1106 C1120 0.931 . S
H1107 C1122 0.930 . S
C1108 H1096 0.930 . S
C1108 C1109 1.399 1_565 S
C1108 C1113 1.399 . S
C1109 C1108 1.399 1_545 S
C1109 C1110 1.376 . S
C1110 H1097 0.930 . S
C1110 C1109 1.376 . S
C1110 C1111 1.388 . S
C1111 H1098 0.930 . S
C1111 C1110 1.388 . S
C1111 C1112 1.390 . S
C1112 C1111 1.390 . S
C1112 C1113 1.394 1_545 S
C1112 C1118 1.465 . S
C1113 C1108 1.399 . S
C1113 C1112 1.394 1_565 S
C1113 C1114 1.516 . S
C1114 C1113 1.516 . S
C1114 C1115 1.502 . S
C1114 C1116 1.561 . S
C1114 C1117 1.526 . S
C1115 H1099 0.959 . S
C1115 H1100 0.959 . S
C1115 H1101 0.961 . S
C1115 C1114 1.502 . S
C1116 H1102 0.960 . S
C1116 H1103 0.961 . S
C1116 H1104 0.959 . S
C1116 C1114 1.561 . S
C1117 C1114 1.526 . S
C1117 C1118 1.396 1_565 S
C1117 C1122 1.390 . S
C1118 C1112 1.465 . S
C1118 C1117 1.396 1_545 S
C1118 C1119 1.399 . S
C1119 H1105 0.929 . S
C1119 C1118 1.399 . S
C1119 C1120 1.385 . S
C1120 H1106 0.931 . S
C1120 C1119 1.385 . S
C1120 C1121 1.389 1_545 S
C1121 C1120 1.389 1_565 S
C1121 C1122 1.387 . S
C1122 H1107 0.930 . S
C1122 C1117 1.390 . S
C1122 C1121 1.387 . S
H1123 C1135 0.930 . S
H1124 C1137 0.930 . S
H1125 C1138 0.930 . S
H1126 C1142 0.959 . S
H1127 C1142 0.959 . S
H1128 C1142 0.961 . S
H1129 C1143 0.960 . S
H1130 C1143 0.961 . S
H1131 C1143 0.959 . S
H1132 C1146 0.929 . S
H1133 C1147 0.931 . S
H1134 C1149 0.930 . S
C1135 H1123 0.930 . S
C1135 C1136 1.399 . S
C1135 C1140 1.399 . S
C1136 C1135 1.399 . S
C1136 C1137 1.376 . S
C1137 H1124 0.930 . S
C1137 C1136 1.376 . S
C1137 C1138 1.388 . S
C1138 H1125 0.930 . S
C1138 C1137 1.388 . S
C1138 C1139 1.390 . S
C1139 C1138 1.390 . S
C1139 C1140 1.394 . S
C1139 C1145 1.465 . S
C1140 C1135 1.399 . S
C1140 C1139 1.394 . S
C1140 C1141 1.516 . S
C1141 C1140 1.516 . S
C1141 C1142 1.502 . S
C1141 C1143 1.561 . S
C1141 C1144 1.526 . S
C1142 H1126 0.959 . S
C1142 H1127 0.959 . S
C1142 H1128 0.961 . S
C1142 C1141 1.502 . S
C1143 H1129 0.960 . S
C1143 H1130 0.961 . S
C1143 H1131 0.959 . S
C1143 C1141 1.561 . S
C1144 C1141 1.526 . S
C1144 C1145 1.396 . S
C1144 C1149 1.390 . S
C1145 C1139 1.465 . S
C1145 C1144 1.396 . S
C1145 C1146 1.399 . S
C1146 H1132 0.929 . S
C1146 C1145 1.399 . S
C1146 C1147 1.385 . S
C1147 H1133 0.931 . S
C1147 C1146 1.385 . S
C1147 C1148 1.389 . S
C1148 C1147 1.389 . S
C1148 C1149 1.387 . S
C1149 H1134 0.930 . S
C1149 C1144 1.390 . S
C1149 C1148 1.387 . S
H1150 C1162 0.930 . S
H1151 C1164 0.930 . S
H1152 C1165 0.930 . S
H1153 C1169 0.959 . S
H1154 C1169 0.959 . S
H1155 C1169 0.961 . S
H1156 C1170 0.960 . S
H1157 C1170 0.961 . S
H1158 C1170 0.959 . S
H1159 C1173 0.929 . S
H1160 C1174 0.931 . S
H1161 C1176 0.930 . S
C1162 H1150 0.930 . S
C1162 C1163 1.399 1_565 S
C1162 C1167 1.399 . S
C1163 C1162 1.399 1_545 S
C1163 C1164 1.376 . S
C1164 H1151 0.930 . S
C1164 C1163 1.376 . S
C1164 C1165 1.388 . S
C1165 H1152 0.930 . S
C1165 C1164 1.388 . S
C1165 C1166 1.390 . S
C1166 C1165 1.390 . S
C1166 C1167 1.394 1_545 S
C1166 C1172 1.465 . S
C1167 C1162 1.399 . S
C1167 C1166 1.394 1_565 S
C1167 C1168 1.516 . S
C1168 C1167 1.516 . S
C1168 C1169 1.502 . S
C1168 C1170 1.561 . S
C1168 C1171 1.526 . S
C1169 H1153 0.959 . S
C1169 H1154 0.959 . S
C1169 H1155 0.961 . S
C1169 C1168 1.502 . S
C1170 H1156 0.960 . S
C1170 H1157 0.961 . S
C1170 H1158 0.959 . S
C1170 C1168 1.561 . S
C1171 C1168 1.526 . S
C1171 C1172 1.396 1_565 S
C1171 C1176 1.390 . S
C1172 C1166 1.465 . S
C1172 C1171 1.396 1_545 S
C1172 C1173 1.399 . S
C1173 H1159 0.929 . S
C1173 C1172 1.399 . S
C1173 C1174 1.385 . S
C1174 H1160 0.931 . S
C1174 C1173 1.385 . S
C1174 C1175 1.389 1_545 S
C1175 C1174 1.389 1_565 S
C1175 C1176 1.387 . S
C1176 H1161 0.930 . S
C1176 C1171 1.390 . S
C1176 C1175 1.387 . S
H1177 C1189 0.930 . S
H1178 C1191 0.930 . S
H1179 C1192 0.930 1_554 S
H1180 C1196 0.959 . S
H1181 C1196 0.959 . S
H1182 C1196 0.961 . S
H1183 C1197 0.960 . S
H1184 C1197 0.961 . S
H1185 C1197 0.959 . S
H1186 C1200 0.929 . S
H1187 C1201 0.931 . S
H1188 C1203 0.930 . S
C1189 H1177 0.930 . S
C1189 C1190 1.399 . S
C1189 C1194 1.399 1_556 S
C1190 C1189 1.399 . S
C1190 C1191 1.376 . S
C1191 H1178 0.930 . S
C1191 C1190 1.376 . S
C1191 C1192 1.388 . S
C1192 H1179 0.930 1_556 S
C1192 C1191 1.388 . S
C1192 C1193 1.390 1_556 S
C1193 C1192 1.390 1_554 S
C1193 C1194 1.394 . S
C1193 C1199 1.465 . S
C1194 C1189 1.399 1_554 S
C1194 C1193 1.394 . S
C1194 C1195 1.516 . S
C1195 C1194 1.516 . S
C1195 C1196 1.502 . S
C1195 C1197 1.561 . S
C1195 C1198 1.526 . S
C1196 H1180 0.959 . S
C1196 H1181 0.959 . S
C1196 H1182 0.961 . S
C1196 C1195 1.502 . S
C1197 H1183 0.960 . S
C1197 H1184 0.961 . S
C1197 H1185 0.959 . S
C1197 C1195 1.561 . S
C1198 C1195 1.526 . S
C1198 C1199 1.396 . S
C1198 C1203 1.390 . S
C1199 C1193 1.465 . S
C1199 C1198 1.396 . S
C1199 C1200 1.399 . S
C1200 H1186 0.929 . S
C1200 C1199 1.399 . S
C1200 C1201 1.385 . S
C1201 H1187 0.931 . S
C1201 C1200 1.385 . S
C1201 C1202 1.389 . S
C1202 C1201 1.389 . S
C1202 C1203 1.387 . S
C1203 H1188 0.930 . S
C1203 C1198 1.390 . S
C1203 C1202 1.387 . S
H1204 C1216 0.930 . S
H1205 C1218 0.930 . S
H1206 C1219 0.930 . S
H1207 C1223 0.959 . S
H1208 C1223 0.959 . S
H1209 C1223 0.961 . S
H1210 C1224 0.960 . S
H1211 C1224 0.961 . S
H1212 C1224 0.959 . S
H1213 C1227 0.929 . S
H1214 C1228 0.931 . S
H1215 C1230 0.930 . S
C1216 H1204 0.930 . S
C1216 C1217 1.399 1_545 S
C1216 C1221 1.399 . S
C1217 C1216 1.399 1_565 S
C1217 C1218 1.376 . S
C1218 H1205 0.930 . S
C1218 C1217 1.376 . S
C1218 C1219 1.388 . S
C1219 H1206 0.930 . S
C1219 C1218 1.388 . S
C1219 C1220 1.390 . S
C1220 C1219 1.390 . S
C1220 C1221 1.394 1_565 S
C1220 C1226 1.465 . S
C1221 C1216 1.399 . S
C1221 C1220 1.394 1_545 S
C1221 C1222 1.516 . S
C1222 C1221 1.516 . S
C1222 C1223 1.502 . S
C1222 C1224 1.561 . S
C1222 C1225 1.526 . S
C1223 H1207 0.959 . S
C1223 H1208 0.959 . S
C1223 H1209 0.961 . S
C1223 C1222 1.502 . S
C1224 H1210 0.960 . S
C1224 H1211 0.961 . S
C1224 H1212 0.959 . S
C1224 C1222 1.561 . S
C1225 C1222 1.526 . S
C1225 C1226 1.396 1_545 S
C1225 C1230 1.390 . S
C1226 C1220 1.465 . S
C1226 C1225 1.396 1_565 S
C1226 C1227 1.399 . S
C1227 H1213 0.929 . S
C1227 C1226 1.399 . S
C1227 C1228 1.385 . S
C1228 H1214 0.931 . S
C1228 C1227 1.385 . S
C1228 C1229 1.389 1_565 S
C1229 C1228 1.389 1_545 S
C1229 C1230 1.387 . S
C1230 H1215 0.930 . S
C1230 C1225 1.390 . S
C1230 C1229 1.387 . S
H1231 C1243 0.930 . S
H1232 C1245 0.930 . S
H1233 C1246 0.930 . S
H1234 C1250 0.959 . S
H1235 C1250 0.959 . S
H1236 C1250 0.961 . S
H1237 C1251 0.960 . S
H1238 C1251 0.961 . S
H1239 C1251 0.959 . S
H1240 C1254 0.929 . S
H1241 C1255 0.931 . S
H1242 C1257 0.930 . S
C1243 H1231 0.930 . S
C1243 C1244 1.399 . S
C1243 C1248 1.399 . S
C1244 C1243 1.399 . S
C1244 C1245 1.376 . S
C1245 H1232 0.930 . S
C1245 C1244 1.376 . S
C1245 C1246 1.388 . S
C1246 H1233 0.930 . S
C1246 C1245 1.388 . S
C1246 C1247 1.390 . S
C1247 C1246 1.390 . S
C1247 C1248 1.394 . S
C1247 C1253 1.465 . S
C1248 C1243 1.399 . S
C1248 C1247 1.394 . S
C1248 C1249 1.516 . S
C1249 C1248 1.516 . S
C1249 C1250 1.502 . S
C1249 C1251 1.561 . S
C1249 C1252 1.526 . S
C1250 H1234 0.959 . S
C1250 H1235 0.959 . S
C1250 H1236 0.961 . S
C1250 C1249 1.502 . S
C1251 H1237 0.960 . S
C1251 H1238 0.961 . S
C1251 H1239 0.959 . S
C1251 C1249 1.561 . S
C1252 C1249 1.526 . S
C1252 C1253 1.396 . S
C1252 C1257 1.390 . S
C1253 C1247 1.465 . S
C1253 C1252 1.396 . S
C1253 C1254 1.399 . S
C1254 H1240 0.929 . S
C1254 C1253 1.399 . S
C1254 C1255 1.385 . S
C1255 H1241 0.931 . S
C1255 C1254 1.385 . S
C1255 C1256 1.389 . S
C1256 C1255 1.389 . S
C1256 C1257 1.387 . S
C1257 H1242 0.930 . S
C1257 C1252 1.390 . S
C1257 C1256 1.387 . S
H1258 C1270 0.930 . S
H1259 C1272 0.930 . S
H1260 C1273 0.930 . S
H1261 C1277 0.959 . S
H1262 C1277 0.959 . S
H1263 C1277 0.961 . S
H1264 C1278 0.960 . S
H1265 C1278 0.961 . S
H1266 C1278 0.959 . S
H1267 C1281 0.929 . S
H1268 C1282 0.931 . S
H1269 C1284 0.930 . S
C1270 H1258 0.930 . S
C1270 C1271 1.399 . S
C1270 C1275 1.399 . S
C1271 C1270 1.399 . S
C1271 C1272 1.376 1_545 S
C1272 H1259 0.930 . S
C1272 C1271 1.376 1_565 S
C1272 C1273 1.388 . S
C1273 H1260 0.930 . S
C1273 C1272 1.388 . S
C1273 C1274 1.390 . S
C1274 C1273 1.390 . S
C1274 C1275 1.394 1_565 S
C1274 C1280 1.465 . S
C1275 C1270 1.399 . S
C1275 C1274 1.394 1_545 S
C1275 C1276 1.516 . S
C1276 C1275 1.516 . S
C1276 C1277 1.502 . S
C1276 C1278 1.561 . S
C1276 C1279 1.526 . S
C1277 H1261 0.959 . S
C1277 H1262 0.959 . S
C1277 H1263 0.961 . S
C1277 C1276 1.502 . S
C1278 H1264 0.960 . S
C1278 H1265 0.961 . S
C1278 H1266 0.959 . S
C1278 C1276 1.561 . S
C1279 C1276 1.526 . S
C1279 C1280 1.396 1_545 S
C1279 C1284 1.390 . S
C1280 C1274 1.465 . S
C1280 C1279 1.396 1_565 S
C1280 C1281 1.399 . S
C1281 H1267 0.929 . S
C1281 C1280 1.399 . S
C1281 C1282 1.385 . S
C1282 H1268 0.931 . S
C1282 C1281 1.385 . S
C1282 C1283 1.389 . S
C1283 C1282 1.389 . S
C1283 C1284 1.387 1_565 S
C1284 H1269 0.930 . S
C1284 C1279 1.390 . S
C1284 C1283 1.387 1_545 S
H1285 C1297 0.930 . S
H1286 C1299 0.930 . S
H1287 C1300 0.930 . S
H1288 C1304 0.959 . S
H1289 C1304 0.959 . S
H1290 C1304 0.961 . S
H1291 C1305 0.960 . S
H1292 C1305 0.961 . S
H1293 C1305 0.959 . S
H1294 C1308 0.929 1_554 S
H1295 C1309 0.931 . S
H1296 C1311 0.930 . S
C1297 H1285 0.930 . S
C1297 C1298 1.399 . S
C1297 C1302 1.399 . S
C1298 C1297 1.399 . S
C1298 C1299 1.376 . S
C1299 H1286 0.930 . S
C1299 C1298 1.376 . S
C1299 C1300 1.388 . S
C1300 H1287 0.930 . S
C1300 C1299 1.388 . S
C1300 C1301 1.390 . S
C1301 C1300 1.390 . S
C1301 C1302 1.394 . S
C1301 C1307 1.465 . S
C1302 C1297 1.399 . S
C1302 C1301 1.394 . S
C1302 C1303 1.516 . S
C1303 C1302 1.516 . S
C1303 C1304 1.502 . S
C1303 C1305 1.561 . S
C1303 C1306 1.526 . S
C1304 H1288 0.959 . S
C1304 H1289 0.959 . S
C1304 H1290 0.961 . S
C1304 C1303 1.502 . S
C1305 H1291 0.960 . S
C1305 H1292 0.961 . S
C1305 H1293 0.959 . S
C1305 C1303 1.561 . S
C1306 C1303 1.526 . S
C1306 C1307 1.396 . S
C1306 C1311 1.390 1_554 S
C1307 C1301 1.465 . S
C1307 C1306 1.396 . S
C1307 C1308 1.399 1_554 S
C1308 H1294 0.929 1_556 S
C1308 C1307 1.399 1_556 S
C1308 C1309 1.385 . S
C1309 H1295 0.931 . S
C1309 C1308 1.385 . S
C1309 C1310 1.389 . S
C1310 C1309 1.389 . S
C1310 C1311 1.387 . S
C1311 H1296 0.930 . S
C1311 C1306 1.390 1_556 S
C1311 C1310 1.387 . S
H1312 C1324 0.930 . S
H1313 C1326 0.930 . S
H1314 C1327 0.930 . S
H1315 C1331 0.959 . S
H1316 C1331 0.959 . S
H1317 C1331 0.961 . S
H1318 C1332 0.960 . S
H1319 C1332 0.961 . S
H1320 C1332 0.959 . S
H1321 C1335 0.929 . S
H1322 C1336 0.931 . S
H1323 C1338 0.930 . S
C1324 H1312 0.930 . S
C1324 C1325 1.399 . S
C1324 C1329 1.399 . S
C1325 C1324 1.399 . S
C1325 C1326 1.376 . S
C1326 H1313 0.930 . S
C1326 C1325 1.376 . S
C1326 C1327 1.388 . S
C1327 H1314 0.930 . S
C1327 C1326 1.388 . S
C1327 C1328 1.390 . S
C1328 C1327 1.390 . S
C1328 C1329 1.394 . S
C1328 C1334 1.465 . S
C1329 C1324 1.399 . S
C1329 C1328 1.394 . S
C1329 C1330 1.516 . S
C1330 C1329 1.516 . S
C1330 C1331 1.502 . S
C1330 C1332 1.561 . S
C1330 C1333 1.526 . S
C1331 H1315 0.959 . S
C1331 H1316 0.959 . S
C1331 H1317 0.961 . S
C1331 C1330 1.502 . S
C1332 H1318 0.960 . S
C1332 H1319 0.961 . S
C1332 H1320 0.959 . S
C1332 C1330 1.561 . S
C1333 C1330 1.526 . S
C1333 C1334 1.396 . S
C1333 C1338 1.390 . S
C1334 C1328 1.465 . S
C1334 C1333 1.396 . S
C1334 C1335 1.399 . S
C1335 H1321 0.929 . S
C1335 C1334 1.399 . S
C1335 C1336 1.385 . S
C1336 H1322 0.931 . S
C1336 C1335 1.385 . S
C1336 C1337 1.389 . S
C1337 C1336 1.389 . S
C1337 C1338 1.387 . S
C1338 H1323 0.930 . S
C1338 C1333 1.390 . S
C1338 C1337 1.387 . S
H1339 C1351 0.930 . S
H1340 C1353 0.930 . S
H1341 C1354 0.930 . S
H1342 C1358 0.959 . S
H1343 C1358 0.959 . S
H1344 C1358 0.961 . S
H1345 C1359 0.960 . S
H1346 C1359 0.961 . S
H1347 C1359 0.959 . S
H1348 C1362 0.929 . S
H1349 C1363 0.931 . S
H1350 C1365 0.930 . S
C1351 H1339 0.930 . S
C1351 C1352 1.399 . S
C1351 C1356 1.399 . S
C1352 C1351 1.399 . S
C1352 C1353 1.376 . S
C1353 H1340 0.930 . S
C1353 C1352 1.376 . S
C1353 C1354 1.388 . S
C1354 H1341 0.930 . S
C1354 C1353 1.388 . S
C1354 C1355 1.390 . S
C1355 C1354 1.390 . S
C1355 C1356 1.394 . S
C1355 C1361 1.465 . S
C1356 C1351 1.399 . S
C1356 C1355 1.394 . S
C1356 C1357 1.516 . S
C1357 C1356 1.516 . S
C1357 C1358 1.502 . S
C1357 C1359 1.561 . S
C1357 C1360 1.526 . S
C1358 H1342 0.959 . S
C1358 H1343 0.959 . S
C1358 H1344 0.961 . S
C1358 C1357 1.502 . S
C1359 H1345 0.960 . S
C1359 H1346 0.961 . S
C1359 H1347 0.959 . S
C1359 C1357 1.561 . S
C1360 C1357 1.526 . S
C1360 C1361 1.396 . S
C1360 C1365 1.390 . S
C1361 C1355 1.465 . S
C1361 C1360 1.396 . S
C1361 C1362 1.399 . S
C1362 H1348 0.929 . S
C1362 C1361 1.399 . S
C1362 C1363 1.385 . S
C1363 H1349 0.931 . S
C1363 C1362 1.385 . S
C1363 C1364 1.389 . S
C1364 C1363 1.389 . S
C1364 C1365 1.387 . S
C1365 H1350 0.930 . S
C1365 C1360 1.390 . S
C1365 C1364 1.387 . S
H1366 C1378 0.930 . S
H1367 C1380 0.930 . S
H1368 C1381 0.930 . S
H1369 C1385 0.959 . S
H1370 C1385 0.959 . S
H1371 C1385 0.961 . S
H1372 C1386 0.960 . S
H1373 C1386 0.961 . S
H1374 C1386 0.959 . S
H1375 C1389 0.929 . S
H1376 C1390 0.931 . S
H1377 C1392 0.930 . S
C1378 H1366 0.930 . S
C1378 C1379 1.399 . S
C1378 C1383 1.399 . S
C1379 C1378 1.399 . S
C1379 C1380 1.376 . S
C1380 H1367 0.930 . S
C1380 C1379 1.376 . S
C1380 C1381 1.388 . S
C1381 H1368 0.930 . S
C1381 C1380 1.388 . S
C1381 C1382 1.390 . S
C1382 C1381 1.390 . S
C1382 C1383 1.394 . S
C1382 C1388 1.465 . S
C1383 C1378 1.399 . S
C1383 C1382 1.394 . S
C1383 C1384 1.516 . S
C1384 C1383 1.516 . S
C1384 C1385 1.502 . S
C1384 C1386 1.561 . S
C1384 C1387 1.526 . S
C1385 H1369 0.959 . S
C1385 H1370 0.959 . S
C1385 H1371 0.961 . S
C1385 C1384 1.502 . S
C1386 H1372 0.960 . S
C1386 H1373 0.961 . S
C1386 H1374 0.959 . S
C1386 C1384 1.561 . S
C1387 C1384 1.526 . S
C1387 C1388 1.396 . S
C1387 C1392 1.390 . S
C1388 C1382 1.465 . S
C1388 C1387 1.396 . S
C1388 C1389 1.399 . S
C1389 H1375 0.929 . S
C1389 C1388 1.399 . S
C1389 C1390 1.385 . S
C1390 H1376 0.931 . S
C1390 C1389 1.385 . S
C1390 C1391 1.389 . S
C1391 C1390 1.389 . S
C1391 C1392 1.387 . S
C1392 H1377 0.930 . S
C1392 C1387 1.390 . S
C1392 C1391 1.387 . S
H1393 C1405 0.930 . S
H1394 C1407 0.930 . S
H1395 C1408 0.930 . S
H1396 C1412 0.959 . S
H1397 C1412 0.959 . S
H1398 C1412 0.961 . S
H1399 C1413 0.960 . S
H1400 C1413 0.961 . S
H1401 C1413 0.959 . S
H1402 C1416 0.929 . S
H1403 C1417 0.931 . S
H1404 C1419 0.930 . S
C1405 H1393 0.930 . S
C1405 C1406 1.399 . S
C1405 C1410 1.399 . S
C1406 C1405 1.399 . S
C1406 C1407 1.376 . S
C1407 H1394 0.930 . S
C1407 C1406 1.376 . S
C1407 C1408 1.388 . S
C1408 H1395 0.930 . S
C1408 C1407 1.388 . S
C1408 C1409 1.390 . S
C1409 C1408 1.390 . S
C1409 C1410 1.394 . S
C1409 C1415 1.465 . S
C1410 C1405 1.399 . S
C1410 C1409 1.394 . S
C1410 C1411 1.516 . S
C1411 C1410 1.516 . S
C1411 C1412 1.502 . S
C1411 C1413 1.561 . S
C1411 C1414 1.526 . S
C1412 H1396 0.959 . S
C1412 H1397 0.959 . S
C1412 H1398 0.961 . S
C1412 C1411 1.502 . S
C1413 H1399 0.960 . S
C1413 H1400 0.961 . S
C1413 H1401 0.959 . S
C1413 C1411 1.561 . S
C1414 C1411 1.526 . S
C1414 C1415 1.396 . S
C1414 C1419 1.390 1_554 S
C1415 C1409 1.465 . S
C1415 C1414 1.396 . S
C1415 C1416 1.399 1_554 S
C1416 H1402 0.929 . S
C1416 C1415 1.399 1_556 S
C1416 C1417 1.385 . S
C1417 H1403 0.931 . S
C1417 C1416 1.385 . S
C1417 C1418 1.389 . S
C1418 C1417 1.389 . S
C1418 C1419 1.387 . S
C1419 H1404 0.930 . S
C1419 C1414 1.390 1_556 S
C1419 C1418 1.387 . S
H1420 C1432 0.930 . S
H1421 C1434 0.930 . S
H1422 C1435 0.930 . S
H1423 C1439 0.959 . S
H1424 C1439 0.959 . S
H1425 C1439 0.961 . S
H1426 C1440 0.960 . S
H1427 C1440 0.961 . S
H1428 C1440 0.959 . S
H1429 C1443 0.929 . S
H1430 C1444 0.931 . S
H1431 C1446 0.930 . S
C1432 H1420 0.930 . S
C1432 C1433 1.399 . S
C1432 C1437 1.399 . S
C1433 C1432 1.399 . S
C1433 C1434 1.376 . S
C1434 H1421 0.930 . S
C1434 C1433 1.376 . S
C1434 C1435 1.388 . S
C1435 H1422 0.930 . S
C1435 C1434 1.388 . S
C1435 C1436 1.390 . S
C1436 C1435 1.390 . S
C1436 C1437 1.394 . S
C1436 C1442 1.465 . S
C1437 C1432 1.399 . S
C1437 C1436 1.394 . S
C1437 C1438 1.516 . S
C1438 C1437 1.516 . S
C1438 C1439 1.502 . S
C1438 C1440 1.561 . S
C1438 C1441 1.526 . S
C1439 H1423 0.959 . S
C1439 H1424 0.959 . S
C1439 H1425 0.961 . S
C1439 C1438 1.502 . S
C1440 H1426 0.960 . S
C1440 H1427 0.961 . S
C1440 H1428 0.959 . S
C1440 C1438 1.561 . S
C1441 C1438 1.526 . S
C1441 C1442 1.396 . S
C1441 C1446 1.390 . S
C1442 C1436 1.465 . S
C1442 C1441 1.396 . S
C1442 C1443 1.399 . S
C1443 H1429 0.929 . S
C1443 C1442 1.399 . S
C1443 C1444 1.385 . S
C1444 H1430 0.931 . S
C1444 C1443 1.385 . S
C1444 C1445 1.389 . S
C1445 C1444 1.389 . S
C1445 C1446 1.387 . S
C1446 H1431 0.930 . S
C1446 C1441 1.390 . S
C1446 C1445 1.387 . S
H1447 C1459 0.930 . S
H1448 C1461 0.930 . S
H1449 C1462 0.930 . S
H1450 C1466 0.959 . S
H1451 C1466 0.959 . S
H1452 C1466 0.961 . S
H1453 C1467 0.960 . S
H1454 C1467 0.961 . S
H1455 C1467 0.959 . S
H1456 C1470 0.929 . S
H1457 C1471 0.931 . S
H1458 C1473 0.930 . S
C1459 H1447 0.930 . S
C1459 C1460 1.399 . S
C1459 C1464 1.399 . S
C1460 C1459 1.399 . S
C1460 C1461 1.376 . S
C1461 H1448 0.930 . S
C1461 C1460 1.376 . S
C1461 C1462 1.388 . S
C1462 H1449 0.930 . S
C1462 C1461 1.388 . S
C1462 C1463 1.390 . S
C1463 C1462 1.390 . S
C1463 C1464 1.394 . S
C1463 C1469 1.465 . S
C1464 C1459 1.399 . S
C1464 C1463 1.394 . S
C1464 C1465 1.516 . S
C1465 C1464 1.516 . S
C1465 C1466 1.502 . S
C1465 C1467 1.561 . S
C1465 C1468 1.526 . S
C1466 H1450 0.959 . S
C1466 H1451 0.959 . S
C1466 H1452 0.961 . S
C1466 C1465 1.502 . S
C1467 H1453 0.960 . S
C1467 H1454 0.961 . S
C1467 H1455 0.959 . S
C1467 C1465 1.561 . S
C1468 C1465 1.526 . S
C1468 C1469 1.396 . S
C1468 C1473 1.390 . S
C1469 C1463 1.465 . S
C1469 C1468 1.396 . S
C1469 C1470 1.399 . S
C1470 H1456 0.929 . S
C1470 C1469 1.399 . S
C1470 C1471 1.385 . S
C1471 H1457 0.931 . S
C1471 C1470 1.385 . S
C1471 C1472 1.389 . S
C1472 C1471 1.389 . S
C1472 C1473 1.387 . S
C1473 H1458 0.930 . S
C1473 C1468 1.390 . S
C1473 C1472 1.387 . S
H1474 C1486 0.930 . S
H1475 C1488 0.930 . S
H1476 C1489 0.930 . S
H1477 C1493 0.959 . S
H1478 C1493 0.959 . S
H1479 C1493 0.961 . S
H1480 C1494 0.960 . S
H1481 C1494 0.961 . S
H1482 C1494 0.959 . S
H1483 C1497 0.929 . S
H1484 C1498 0.931 . S
H1485 C1500 0.930 . S
C1486 H1474 0.930 . S
C1486 C1487 1.399 . S
C1486 C1491 1.399 . S
C1487 C1486 1.399 . S
C1487 C1488 1.376 . S
C1488 H1475 0.930 . S
C1488 C1487 1.376 . S
C1488 C1489 1.388 . S
C1489 H1476 0.930 . S
C1489 C1488 1.388 . S
C1489 C1490 1.390 . S
C1490 C1489 1.390 . S
C1490 C1491 1.394 . S
C1490 C1496 1.465 . S
C1491 C1486 1.399 . S
C1491 C1490 1.394 . S
C1491 C1492 1.516 . S
C1492 C1491 1.516 . S
C1492 C1493 1.502 . S
C1492 C1494 1.561 . S
C1492 C1495 1.526 . S
C1493 H1477 0.959 . S
C1493 H1478 0.959 . S
C1493 H1479 0.961 . S
C1493 C1492 1.502 . S
C1494 H1480 0.960 . S
C1494 H1481 0.961 . S
C1494 H1482 0.959 . S
C1494 C1492 1.561 . S
C1495 C1492 1.526 . S
C1495 C1496 1.396 . S
C1495 C1500 1.390 . S
C1496 C1490 1.465 . S
C1496 C1495 1.396 . S
C1496 C1497 1.399 . S
C1497 H1483 0.929 . S
C1497 C1496 1.399 . S
C1497 C1498 1.385 . S
C1498 H1484 0.931 . S
C1498 C1497 1.385 . S
C1498 C1499 1.389 . S
C1499 C1498 1.389 . S
C1499 C1500 1.387 . S
C1500 H1485 0.930 . S
C1500 C1495 1.390 . S
C1500 C1499 1.387 . S
H1501 C1513 0.930 . S
H1502 C1515 0.930 . S
H1503 C1516 0.930 . S
H1504 C1520 0.959 . S
H1505 C1520 0.959 . S
H1506 C1520 0.961 . S
H1507 C1521 0.960 . S
H1508 C1521 0.961 . S
H1509 C1521 0.959 . S
H1510 C1524 0.929 . S
H1511 C1525 0.931 . S
H1512 C1527 0.930 . S
C1513 H1501 0.930 . S
C1513 C1514 1.399 . S
C1513 C1518 1.399 1_556 S
C1514 C1513 1.399 . S
C1514 C1515 1.376 . S
C1515 H1502 0.930 . S
C1515 C1514 1.376 . S
C1515 C1516 1.388 . S
C1516 H1503 0.930 . S
C1516 C1515 1.388 . S
C1516 C1517 1.390 1_556 S
C1517 C1516 1.390 1_554 S
C1517 C1518 1.394 . S
C1517 C1523 1.465 . S
C1518 C1513 1.399 1_554 S
C1518 C1517 1.394 . S
C1518 C1519 1.516 . S
C1519 C1518 1.516 . S
C1519 C1520 1.502 . S
C1519 C1521 1.561 . S
C1519 C1522 1.526 . S
C1520 H1504 0.959 . S
C1520 H1505 0.959 . S
C1520 H1506 0.961 . S
C1520 C1519 1.502 . S
C1521 H1507 0.960 . S
C1521 H1508 0.961 . S
C1521 H1509 0.959 . S
C1521 C1519 1.561 . S
C1522 C1519 1.526 . S
C1522 C1523 1.396 . S
C1522 C1527 1.390 . S
C1523 C1517 1.465 . S
C1523 C1522 1.396 . S
C1523 C1524 1.399 . S
C1524 H1510 0.929 . S
C1524 C1523 1.399 . S
C1524 C1525 1.385 . S
C1525 H1511 0.931 . S
C1525 C1524 1.385 . S
C1525 C1526 1.389 . S
C1526 C1525 1.389 . S
C1526 C1527 1.387 . S
C1527 H1512 0.930 . S
C1527 C1522 1.390 . S
C1527 C1526 1.387 . S
H1528 C1540 0.930 . S
H1529 C1542 0.930 . S
H1530 C1543 0.930 . S
H1531 C1547 0.959 . S
H1532 C1547 0.959 . S
H1533 C1547 0.961 . S
H1534 C1548 0.960 . S
H1535 C1548 0.961 . S
H1536 C1548 0.959 . S
H1537 C1551 0.929 . S
H1538 C1552 0.931 . S
H1539 C1554 0.930 . S
C1540 H1528 0.930 . S
C1540 C1541 1.399 1_545 S
C1540 C1545 1.399 . S
C1541 C1540 1.399 1_565 S
C1541 C1542 1.376 . S
C1542 H1529 0.930 . S
C1542 C1541 1.376 . S
C1542 C1543 1.388 . S
C1543 H1530 0.930 . S
C1543 C1542 1.388 . S
C1543 C1544 1.390 . S
C1544 C1543 1.390 . S
C1544 C1545 1.394 1_565 S
C1544 C1550 1.465 . S
C1545 C1540 1.399 . S
C1545 C1544 1.394 1_545 S
C1545 C1546 1.516 . S
C1546 C1545 1.516 . S
C1546 C1547 1.502 . S
C1546 C1548 1.561 . S
C1546 C1549 1.526 . S
C1547 H1531 0.959 . S
C1547 H1532 0.959 . S
C1547 H1533 0.961 . S
C1547 C1546 1.502 . S
C1548 H1534 0.960 . S
C1548 H1535 0.961 . S
C1548 H1536 0.959 . S
C1548 C1546 1.561 . S
C1549 C1546 1.526 . S
C1549 C1550 1.396 1_545 S
C1549 C1554 1.390 . S
C1550 C1544 1.465 . S
C1550 C1549 1.396 1_565 S
C1550 C1551 1.399 . S
C1551 H1537 0.929 . S
C1551 C1550 1.399 . S
C1551 C1552 1.385 . S
C1552 H1538 0.931 . S
C1552 C1551 1.385 . S
C1552 C1553 1.389 . S
C1553 C1552 1.389 . S
C1553 C1554 1.387 1_565 S
C1554 H1539 0.930 . S
C1554 C1549 1.390 . S
C1554 C1553 1.387 1_545 S
H1555 C1567 0.930 . S
H1556 C1569 0.930 . S
H1557 C1570 0.930 . S
H1558 C1574 0.959 . S
H1559 C1574 0.959 . S
H1560 C1574 0.961 . S
H1561 C1575 0.960 . S
H1562 C1575 0.961 . S
H1563 C1575 0.959 . S
H1564 C1578 0.929 . S
H1565 C1579 0.931 . S
H1566 C1581 0.930 . S
C1567 H1555 0.930 . S
C1567 C1568 1.399 . S
C1567 C1572 1.399 . S
C1568 C1567 1.399 . S
C1568 C1569 1.376 . S
C1569 H1556 0.930 . S
C1569 C1568 1.376 . S
C1569 C1570 1.388 . S
C1570 H1557 0.930 . S
C1570 C1569 1.388 . S
C1570 C1571 1.390 . S
C1571 C1570 1.390 . S
C1571 C1572 1.394 . S
C1571 C1577 1.465 . S
C1572 C1567 1.399 . S
C1572 C1571 1.394 . S
C1572 C1573 1.516 . S
C1573 C1572 1.516 . S
C1573 C1574 1.502 . S
C1573 C1575 1.561 . S
C1573 C1576 1.526 . S
C1574 H1558 0.959 . S
C1574 H1559 0.959 . S
C1574 H1560 0.961 . S
C1574 C1573 1.502 . S
C1575 H1561 0.960 . S
C1575 H1562 0.961 . S
C1575 H1563 0.959 . S
C1575 C1573 1.561 . S
C1576 C1573 1.526 . S
C1576 C1577 1.396 . S
C1576 C1581 1.390 1_554 S
C1577 C1571 1.465 . S
C1577 C1576 1.396 . S
C1577 C1578 1.399 1_554 S
C1578 H1564 0.929 . S
C1578 C1577 1.399 1_556 S
C1578 C1579 1.385 . S
C1579 H1565 0.931 . S
C1579 C1578 1.385 . S
C1579 C1580 1.389 . S
C1580 C1579 1.389 . S
C1580 C1581 1.387 . S
C1581 H1566 0.930 . S
C1581 C1576 1.390 1_556 S
C1581 C1580 1.387 . S
H1582 C1594 0.930 . S
H1583 C1596 0.930 . S
H1584 C1597 0.930 . S
H1585 C1601 0.959 . S
H1586 C1601 0.959 . S
H1587 C1601 0.961 . S
H1588 C1602 0.960 . S
H1589 C1602 0.961 . S
H1590 C1602 0.959 . S
H1591 C1605 0.929 . S
H1592 C1606 0.931 . S
H1593 C1608 0.930 . S
C1594 H1582 0.930 . S
C1594 C1595 1.382 1_545 S
C1594 C1599 1.399 . S
C1595 C1594 1.382 1_565 S
C1595 C1596 1.397 . S
C1596 H1583 0.930 . S
C1596 C1595 1.397 . S
C1596 C1597 1.388 . S
C1597 H1584 0.930 . S
C1597 C1596 1.388 . S
C1597 C1598 1.390 . S
C1598 C1597 1.390 . S
C1598 C1599 1.394 1_565 S
C1598 C1604 1.465 . S
C1599 C1594 1.399 . S
C1599 C1598 1.394 1_545 S
C1599 C1600 1.516 . S
C1600 C1599 1.516 . S
C1600 C1601 1.502 . S
C1600 C1602 1.561 . S
C1600 C1603 1.526 . S
C1601 H1585 0.959 . S
C1601 H1586 0.959 . S
C1601 H1587 0.961 . S
C1601 C1600 1.502 . S
C1602 H1588 0.960 . S
C1602 H1589 0.961 . S
C1602 H1590 0.959 . S
C1602 C1600 1.561 . S
C1603 C1600 1.526 . S
C1603 C1604 1.396 1_545 S
C1603 C1608 1.390 . S
C1604 C1598 1.465 . S
C1604 C1603 1.396 1_565 S
C1604 C1605 1.399 . S
C1605 H1591 0.929 . S
C1605 C1604 1.399 . S
C1605 C1606 1.385 . S
C1606 H1592 0.931 . S
C1606 C1605 1.385 . S
C1606 C1607 1.429 . S
C1607 C1606 1.429 . S
C1607 C1608 1.355 1_565 S
C1608 H1593 0.930 . S
C1608 C1603 1.390 . S
C1608 C1607 1.355 1_545 S
H1609 C1621 0.930 . S
H1610 C1623 0.930 . S
H1611 C1624 0.930 . S
H1612 C1628 0.959 . S
H1613 C1628 0.959 . S
H1614 C1628 0.961 . S
H1615 C1629 0.960 . S
H1616 C1629 0.961 . S
H1617 C1629 0.959 . S
H1618 C1632 0.929 . S
H1619 C1633 0.931 . S
H1620 C1635 0.930 . S
C1621 H1609 0.930 . S
C1621 C1622 1.399 . S
C1621 C1626 1.399 . S
C1622 C1621 1.399 . S
C1622 C1623 1.376 . S
C1623 H1610 0.930 . S
C1623 C1622 1.376 . S
C1623 C1624 1.388 . S
C1624 H1611 0.930 . S
C1624 C1623 1.388 . S
C1624 C1625 1.390 . S
C1625 C1624 1.390 . S
C1625 C1626 1.394 . S
C1625 C1631 1.465 . S
C1626 C1621 1.399 . S
C1626 C1625 1.394 . S
C1626 C1627 1.516 . S
C1627 C1626 1.516 . S
C1627 C1628 1.502 . S
C1627 C1629 1.561 . S
C1627 C1630 1.526 . S
C1628 H1612 0.959 . S
C1628 H1613 0.959 . S
C1628 H1614 0.961 . S
C1628 C1627 1.502 . S
C1629 H1615 0.960 . S
C1629 H1616 0.961 . S
C1629 H1617 0.959 . S
C1629 C1627 1.561 . S
C1630 C1627 1.526 . S
C1630 C1631 1.396 . S
C1630 C1635 1.390 . S
C1631 C1625 1.465 . S
C1631 C1630 1.396 . S
C1631 C1632 1.399 . S
C1632 H1618 0.929 . S
C1632 C1631 1.399 . S
C1632 C1633 1.385 . S
C1633 H1619 0.931 . S
C1633 C1632 1.385 . S
C1633 C1634 1.389 . S
C1634 C1633 1.389 . S
C1634 C1635 1.387 . S
C1635 H1620 0.930 . S
C1635 C1630 1.390 . S
C1635 C1634 1.387 . S
H1636 C1648 0.930 . S
H1637 C1650 0.930 . S
H1638 C1651 0.930 . S
H1639 C1655 0.959 1_545 S
H1640 C1655 0.959 . S
H1641 C1655 0.961 . S
H1642 C1656 0.960 . S
H1643 C1656 0.961 . S
H1644 C1656 0.959 . S
H1645 C1659 0.929 . S
H1646 C1660 0.931 . S
H1647 C1662 0.930 . S
C1648 H1636 0.930 . S
C1648 C1649 1.394 1_565 S
C1648 C1653 1.399 . S
C1649 C1648 1.394 1_545 S
C1649 C1650 1.383 . S
C1650 H1637 0.930 . S
C1650 C1649 1.383 . S
C1650 C1651 1.388 . S
C1651 H1638 0.930 . S
C1651 C1650 1.388 . S
C1651 C1652 1.390 . S
C1652 C1651 1.390 . S
C1652 C1653 1.394 1_545 S
C1652 C1658 1.465 . S
C1653 C1648 1.399 . S
C1653 C1652 1.394 1_565 S
C1653 C1654 1.516 . S
C1654 C1653 1.516 . S
C1654 C1655 1.502 . S
C1654 C1656 1.561 . S
C1654 C1657 1.526 . S
C1655 H1639 0.959 1_565 S
C1655 H1640 0.959 . S
C1655 H1641 0.961 . S
C1655 C1654 1.502 . S
C1656 H1642 0.960 . S
C1656 H1643 0.961 . S
C1656 H1644 0.959 . S
C1656 C1654 1.561 . S
C1657 C1654 1.526 . S
C1657 C1658 1.396 1_565 S
C1657 C1662 1.390 . S
C1658 C1652 1.465 . S
C1658 C1657 1.396 1_545 S
C1658 C1659 1.399 . S
C1659 H1645 0.929 . S
C1659 C1658 1.399 . S
C1659 C1660 1.385 . S
C1660 H1646 0.931 . S
C1660 C1659 1.385 . S
C1660 C1661 1.423 . S
C1661 C1660 1.423 . S
C1661 C1662 1.359 1_545 S
C1662 H1647 0.930 . S
C1662 C1657 1.390 . S
C1662 C1661 1.359 1_565 S
H1663 C1675 0.930 . S
H1664 C1677 0.930 . S
H1665 C1678 0.930 . S
H1666 C1682 0.959 . S
H1667 C1682 0.959 . S
H1668 C1682 0.961 . S
H1669 C1683 0.960 . S
H1670 C1683 0.961 . S
H1671 C1683 0.959 . S
H1672 C1686 0.929 . S
H1673 C1687 0.931 . S
H1674 C1689 0.930 . S
C1675 H1663 0.930 . S
C1675 C1676 1.399 . S
C1675 C1680 1.399 . S
C1676 C1675 1.399 . S
C1676 C1677 1.376 . S
C1677 H1664 0.930 . S
C1677 C1676 1.376 . S
C1677 C1678 1.388 . S
C1678 H1665 0.930 . S
C1678 C1677 1.388 . S
C1678 C1679 1.390 . S
C1679 C1678 1.390 . S
C1679 C1680 1.394 . S
C1679 C1685 1.465 . S
C1680 C1675 1.399 . S
C1680 C1679 1.394 . S
C1680 C1681 1.516 . S
C1681 C1680 1.516 . S
C1681 C1682 1.502 . S
C1681 C1683 1.561 . S
C1681 C1684 1.526 . S
C1682 H1666 0.959 . S
C1682 H1667 0.959 . S
C1682 H1668 0.961 . S
C1682 C1681 1.502 . S
C1683 H1669 0.960 . S
C1683 H1670 0.961 . S
C1683 H1671 0.959 . S
C1683 C1681 1.561 . S
C1684 C1681 1.526 . S
C1684 C1685 1.396 . S
C1684 C1689 1.390 1_554 S
C1685 C1679 1.465 . S
C1685 C1684 1.396 . S
C1685 C1686 1.399 1_554 S
C1686 H1672 0.929 . S
C1686 C1685 1.399 1_556 S
C1686 C1687 1.385 . S
C1687 H1673 0.931 . S
C1687 C1686 1.385 . S
C1687 C1688 1.389 . S
C1688 C1687 1.389 . S
C1688 C1689 1.387 . S
C1689 H1674 0.930 . S
C1689 C1684 1.390 1_556 S
C1689 C1688 1.387 . S
H1690 C1702 0.930 . S
H1691 C1704 0.930 . S
H1692 C1705 0.930 . S
H1693 C1709 0.959 . S
H1694 C1709 0.959 . S
H1695 C1709 0.961 . S
H1696 C1710 0.960 . S
H1697 C1710 0.961 . S
H1698 C1710 0.959 . S
H1699 C1713 0.929 . S
H1700 C1714 0.931 . S
H1701 C1716 0.930 . S
C1702 H1690 0.930 . S
C1702 C1703 1.399 1_545 S
C1702 C1707 1.399 . S
C1703 C1702 1.399 1_565 S
C1703 C1704 1.376 . S
C1704 H1691 0.930 . S
C1704 C1703 1.376 . S
C1704 C1705 1.388 . S
C1705 H1692 0.930 . S
C1705 C1704 1.388 . S
C1705 C1706 1.390 . S
C1706 C1705 1.390 . S
C1706 C1707 1.394 1_565 S
C1706 C1712 1.465 . S
C1707 C1702 1.399 . S
C1707 C1706 1.394 1_545 S
C1707 C1708 1.516 . S
C1708 C1707 1.516 . S
C1708 C1709 1.502 . S
C1708 C1710 1.561 . S
C1708 C1711 1.526 . S
C1709 H1693 0.959 . S
C1709 H1694 0.959 . S
C1709 H1695 0.961 . S
C1709 C1708 1.502 . S
C1710 H1696 0.960 . S
C1710 H1697 0.961 . S
C1710 H1698 0.959 . S
C1710 C1708 1.561 . S
C1711 C1708 1.526 . S
C1711 C1712 1.396 1_545 S
C1711 C1716 1.390 . S
C1712 C1706 1.465 . S
C1712 C1711 1.396 1_565 S
C1712 C1713 1.399 . S
C1713 H1699 0.929 . S
C1713 C1712 1.399 . S
C1713 C1714 1.385 . S
C1714 H1700 0.931 . S
C1714 C1713 1.385 . S
C1714 C1715 1.389 . S
C1715 C1714 1.389 . S
C1715 C1716 1.387 1_565 S
C1716 H1701 0.930 . S
C1716 C1711 1.390 . S
C1716 C1715 1.387 1_545 S
H1717 C1729 0.930 . S
H1718 C1731 0.930 . S
H1719 C1732 0.930 . S
H1720 C1736 0.959 . S
H1721 C1736 0.959 . S
H1722 C1736 0.961 . S
H1723 C1737 0.960 . S
H1724 C1737 0.961 . S
H1725 C1737 0.959 . S
H1726 C1740 0.929 . S
H1727 C1741 0.931 . S
H1728 C1743 0.930 . S
C1729 H1717 0.930 . S
C1729 C1730 1.399 . S
C1729 C1734 1.399 . S
C1730 C1729 1.399 . S
C1730 C1731 1.376 . S
C1731 H1718 0.930 . S
C1731 C1730 1.376 . S
C1731 C1732 1.388 . S
C1732 H1719 0.930 . S
C1732 C1731 1.388 . S
C1732 C1733 1.390 . S
C1733 C1732 1.390 . S
C1733 C1734 1.394 . S
C1733 C1739 1.465 . S
C1734 C1729 1.399 . S
C1734 C1733 1.394 . S
C1734 C1735 1.516 . S
C1735 C1734 1.516 . S
C1735 C1736 1.502 . S
C1735 C1737 1.561 . S
C1735 C1738 1.526 . S
C1736 H1720 0.959 . S
C1736 H1721 0.959 . S
C1736 H1722 0.961 . S
C1736 C1735 1.502 . S
C1737 H1723 0.960 . S
C1737 H1724 0.961 . S
C1737 H1725 0.959 . S
C1737 C1735 1.561 . S
C1738 C1735 1.526 . S
C1738 C1739 1.396 . S
C1738 C1743 1.390 . S
C1739 C1733 1.465 . S
C1739 C1738 1.396 . S
C1739 C1740 1.399 . S
C1740 H1726 0.929 . S
C1740 C1739 1.399 . S
C1740 C1741 1.385 . S
C1741 H1727 0.931 . S
C1741 C1740 1.385 . S
C1741 C1742 1.389 . S
C1742 C1741 1.389 . S
C1742 C1743 1.387 . S
C1743 H1728 0.930 . S
C1743 C1738 1.390 . S
C1743 C1742 1.387 . S
H1744 C1756 0.930 . S
H1745 C1758 0.930 . S
H1746 C1759 0.930 . S
H1747 C1763 0.959 . S
H1748 C1763 0.959 . S
H1749 C1763 0.961 . S
H1750 C1764 0.960 . S
H1751 C1764 0.961 . S
H1752 C1764 0.959 . S
H1753 C1767 0.929 . S
H1754 C1768 0.931 . S
H1755 C1770 0.930 . S
C1756 H1744 0.930 . S
C1756 C1757 1.399 . S
C1756 C1761 1.399 . S
C1757 C1756 1.399 . S
C1757 C1758 1.376 . S
C1758 H1745 0.930 . S
C1758 C1757 1.376 . S
C1758 C1759 1.388 . S
C1759 H1746 0.930 . S
C1759 C1758 1.388 . S
C1759 C1760 1.390 . S
C1760 C1759 1.390 . S
C1760 C1761 1.394 . S
C1760 C1766 1.465 . S
C1761 C1756 1.399 . S
C1761 C1760 1.394 . S
C1761 C1762 1.516 . S
C1762 C1761 1.516 . S
C1762 C1763 1.502 . S
C1762 C1764 1.561 . S
C1762 C1765 1.526 . S
C1763 H1747 0.959 . S
C1763 H1748 0.959 . S
C1763 H1749 0.961 . S
C1763 C1762 1.502 . S
C1764 H1750 0.960 . S
C1764 H1751 0.961 . S
C1764 H1752 0.959 . S
C1764 C1762 1.561 . S
C1765 C1762 1.526 . S
C1765 C1766 1.396 . S
C1765 C1770 1.390 . S
C1766 C1760 1.465 . S
C1766 C1765 1.396 . S
C1766 C1767 1.399 . S
C1767 H1753 0.929 . S
C1767 C1766 1.399 . S
C1767 C1768 1.385 . S
C1768 H1754 0.931 . S
C1768 C1767 1.385 . S
C1768 C1769 1.389 . S
C1769 C1768 1.389 . S
C1769 C1770 1.387 . S
C1770 H1755 0.930 . S
C1770 C1765 1.390 . S
C1770 C1769 1.387 . S
H1771 C1783 0.930 . S
H1772 C1785 0.930 . S
H1773 C1786 0.930 . S
H1774 C1790 0.959 . S
H1775 C1790 0.959 . S
H1776 C1790 0.961 . S
H1777 C1791 0.960 . S
H1778 C1791 0.961 . S
H1779 C1791 0.959 . S
H1780 C1794 0.929 . S
H1781 C1795 0.931 . S
H1782 C1797 0.930 . S
C1783 H1771 0.930 . S
C1783 C1784 1.399 . S
C1783 C1788 1.399 . S
C1784 C1783 1.399 . S
C1784 C1785 1.376 . S
C1785 H1772 0.930 . S
C1785 C1784 1.376 . S
C1785 C1786 1.388 . S
C1786 H1773 0.930 . S
C1786 C1785 1.388 . S
C1786 C1787 1.390 . S
C1787 C1786 1.390 . S
C1787 C1788 1.394 . S
C1787 C1793 1.465 . S
C1788 C1783 1.399 . S
C1788 C1787 1.394 . S
C1788 C1789 1.516 . S
C1789 C1788 1.516 . S
C1789 C1790 1.502 . S
C1789 C1791 1.561 . S
C1789 C1792 1.526 . S
C1790 H1774 0.959 . S
C1790 H1775 0.959 . S
C1790 H1776 0.961 . S
C1790 C1789 1.502 . S
C1791 H1777 0.960 . S
C1791 H1778 0.961 . S
C1791 H1779 0.959 . S
C1791 C1789 1.561 . S
C1792 C1789 1.526 . S
C1792 C1793 1.396 . S
C1792 C1797 1.390 . S
C1793 C1787 1.465 . S
C1793 C1792 1.396 . S
C1793 C1794 1.399 . S
C1794 H1780 0.929 . S
C1794 C1793 1.399 . S
C1794 C1795 1.385 . S
C1795 H1781 0.931 . S
C1795 C1794 1.385 . S
C1795 C1796 1.389 . S
C1796 C1795 1.389 . S
C1796 C1797 1.387 . S
C1797 H1782 0.930 . S
C1797 C1792 1.390 . S
C1797 C1796 1.387 . S
H1798 C1810 0.930 . S
H1799 C1812 0.930 . S
H1800 C1813 0.930 . S
H1801 C1817 0.959 . S
H1802 C1817 0.959 . S
H1803 C1817 0.961 . S
H1804 C1818 0.960 . S
H1805 C1818 0.961 . S
H1806 C1818 0.959 . S
H1807 C1821 0.929 . S
H1808 C1822 0.931 . S
H1809 C1824 0.930 . S
C1810 H1798 0.930 . S
C1810 C1811 1.399 . S
C1810 C1815 1.399 . S
C1811 C1810 1.399 . S
C1811 C1812 1.376 . S
C1812 H1799 0.930 . S
C1812 C1811 1.376 . S
C1812 C1813 1.388 . S
C1813 H1800 0.930 . S
C1813 C1812 1.388 . S
C1813 C1814 1.390 . S
C1814 C1813 1.390 . S
C1814 C1815 1.394 . S
C1814 C1820 1.465 . S
C1815 C1810 1.399 . S
C1815 C1814 1.394 . S
C1815 C1816 1.516 . S
C1816 C1815 1.516 . S
C1816 C1817 1.502 . S
C1816 C1818 1.561 . S
C1816 C1819 1.526 . S
C1817 H1801 0.959 . S
C1817 H1802 0.959 . S
C1817 H1803 0.961 . S
C1817 C1816 1.502 . S
C1818 H1804 0.960 . S
C1818 H1805 0.961 . S
C1818 H1806 0.959 . S
C1818 C1816 1.561 . S
C1819 C1816 1.526 . S
C1819 C1820 1.396 . S
C1819 C1824 1.390 . S
C1820 C1814 1.465 . S
C1820 C1819 1.396 . S
C1820 C1821 1.399 . S
C1821 H1807 0.929 . S
C1821 C1820 1.399 . S
C1821 C1822 1.385 . S
C1822 H1808 0.931 . S
C1822 C1821 1.385 . S
C1822 C1823 1.389 . S
C1823 C1822 1.389 . S
C1823 C1824 1.387 . S
C1824 H1809 0.930 . S
C1824 C1819 1.390 . S
C1824 C1823 1.387 . S
H1825 C1837 0.930 . S
H1826 C1839 0.930 . S
H1827 C1840 0.930 . S
H1828 C1844 0.959 . S
H1829 C1844 0.959 . S
H1830 C1844 0.961 . S
H1831 C1845 0.960 . S
H1832 C1845 0.961 . S
H1833 C1845 0.959 . S
H1834 C1848 0.929 . S
H1835 C1849 0.931 . S
H1836 C1851 0.930 . S
C1837 H1825 0.930 . S
C1837 C1838 1.399 . S
C1837 C1842 1.399 . S
C1838 C1837 1.399 . S
C1838 C1839 1.376 . S
C1839 H1826 0.930 . S
C1839 C1838 1.376 . S
C1839 C1840 1.388 . S
C1840 H1827 0.930 . S
C1840 C1839 1.388 . S
C1840 C1841 1.390 . S
C1841 C1840 1.390 . S
C1841 C1842 1.394 . S
C1841 C1847 1.465 . S
C1842 C1837 1.399 . S
C1842 C1841 1.394 . S
C1842 C1843 1.516 . S
C1843 C1842 1.516 . S
C1843 C1844 1.502 . S
C1843 C1845 1.561 . S
C1843 C1846 1.526 . S
C1844 H1828 0.959 . S
C1844 H1829 0.959 . S
C1844 H1830 0.961 . S
C1844 C1843 1.502 . S
C1845 H1831 0.960 . S
C1845 H1832 0.961 . S
C1845 H1833 0.959 . S
C1845 C1843 1.561 . S
C1846 C1843 1.526 . S
C1846 C1847 1.396 . S
C1846 C1851 1.390 . S
C1847 C1841 1.465 . S
C1847 C1846 1.396 . S
C1847 C1848 1.399 1_556 S
C1848 H1834 0.929 . S
C1848 C1847 1.399 1_554 S
C1848 C1849 1.385 . S
C1849 H1835 0.931 . S
C1849 C1848 1.385 . S
C1849 C1850 1.389 1_554 S
C1850 C1849 1.389 1_556 S
C1850 C1851 1.387 . S
C1851 H1836 0.930 . S
C1851 C1846 1.390 . S
C1851 C1850 1.387 . S
H1852 C1864 0.930 . S
H1853 C1866 0.930 . S
H1854 C1867 0.930 . S
H1855 C1871 0.959 . S
H1856 C1871 0.959 . S
H1857 C1871 0.961 . S
H1858 C1872 0.960 . S
H1859 C1872 0.961 . S
H1860 C1872 0.959 . S
H1861 C1875 0.929 . S
H1862 C1876 0.931 . S
H1863 C1878 0.930 . S
C1864 H1852 0.930 . S
C1864 C1865 1.399 . S
C1864 C1869 1.399 . S
C1865 C1864 1.399 . S
C1865 C1866 1.376 . S
C1866 H1853 0.930 . S
C1866 C1865 1.376 . S
C1866 C1867 1.388 . S
C1867 H1854 0.930 . S
C1867 C1866 1.388 . S
C1867 C1868 1.390 . S
C1868 C1867 1.390 . S
C1868 C1869 1.394 . S
C1868 C1874 1.465 . S
C1869 C1864 1.399 . S
C1869 C1868 1.394 . S
C1869 C1870 1.516 . S
C1870 C1869 1.516 . S
C1870 C1871 1.502 . S
C1870 C1872 1.561 . S
C1870 C1873 1.526 . S
C1871 H1855 0.959 . S
C1871 H1856 0.959 . S
C1871 H1857 0.961 . S
C1871 C1870 1.502 . S
C1872 H1858 0.960 . S
C1872 H1859 0.961 . S
C1872 H1860 0.959 . S
C1872 C1870 1.561 . S
C1873 C1870 1.526 . S
C1873 C1874 1.396 . S
C1873 C1878 1.390 . S
C1874 C1868 1.465 . S
C1874 C1873 1.396 . S
C1874 C1875 1.399 . S
C1875 H1861 0.929 . S
C1875 C1874 1.399 . S
C1875 C1876 1.385 . S
C1876 H1862 0.931 . S
C1876 C1875 1.385 . S
C1876 C1877 1.389 . S
C1877 C1876 1.389 . S
C1877 C1878 1.387 . S
C1878 H1863 0.930 . S
C1878 C1873 1.390 . S
C1878 C1877 1.387 . S
H1879 C1891 0.930 . S
H1880 C1893 0.930 . S
H1881 C1894 0.930 . S
H1882 C1898 0.959 . S
H1883 C1898 0.959 . S
H1884 C1898 0.961 . S
H1885 C1899 0.960 . S
H1886 C1899 0.961 . S
H1887 C1899 0.959 . S
H1888 C1902 0.929 . S
H1889 C1903 0.931 . S
H1890 C1905 0.930 . S
C1891 H1879 0.930 . S
C1891 C1892 1.399 . S
C1891 C1896 1.399 . S
C1892 C1891 1.399 . S
C1892 C1893 1.376 . S
C1893 H1880 0.930 . S
C1893 C1892 1.376 . S
C1893 C1894 1.388 . S
C1894 H1881 0.930 . S
C1894 C1893 1.388 . S
C1894 C1895 1.390 . S
C1895 C1894 1.390 . S
C1895 C1896 1.394 . S
C1895 C1901 1.465 . S
C1896 C1891 1.399 . S
C1896 C1895 1.394 . S
C1896 C1897 1.516 . S
C1897 C1896 1.516 . S
C1897 C1898 1.502 . S
C1897 C1899 1.561 . S
C1897 C1900 1.526 . S
C1898 H1882 0.959 . S
C1898 H1883 0.959 . S
C1898 H1884 0.961 . S
C1898 C1897 1.502 . S
C1899 H1885 0.960 . S
C1899 H1886 0.961 . S
C1899 H1887 0.959 . S
C1899 C1897 1.561 . S
C1900 C1897 1.526 . S
C1900 C1901 1.396 . S
C1900 C1905 1.390 . S
C1901 C1895 1.465 . S
C1901 C1900 1.396 . S
C1901 C1902 1.399 . S
C1902 H1888 0.929 . S
C1902 C1901 1.399 . S
C1902 C1903 1.385 . S
C1903 H1889 0.931 . S
C1903 C1902 1.385 . S
C1903 C1904 1.389 . S
C1904 C1903 1.389 . S
C1904 C1905 1.387 . S
C1905 H1890 0.930 . S
C1905 C1900 1.390 . S
C1905 C1904 1.387 . S
H1906 C1918 0.930 . S
H1907 C1920 0.930 . S
H1908 C1921 0.930 . S
H1909 C1925 0.959 . S
H1910 C1925 0.959 1_554 S
H1911 C1925 0.961 . S
H1912 C1926 0.960 . S
H1913 C1926 0.961 . S
H1914 C1926 0.959 . S
H1915 C1929 0.929 . S
H1916 C1930 0.931 . S
H1917 C1932 0.930 1_554 S
C1918 H1906 0.930 . S
C1918 C1919 1.399 . S
C1918 C1923 1.399 . S
C1919 C1918 1.399 . S
C1919 C1920 1.376 . S
C1920 H1907 0.930 . S
C1920 C1919 1.376 . S
C1920 C1921 1.388 . S
C1921 H1908 0.930 . S
C1921 C1920 1.388 . S
C1921 C1922 1.390 . S
C1922 C1921 1.390 . S
C1922 C1923 1.394 . S
C1922 C1928 1.465 . S
C1923 C1918 1.399 . S
C1923 C1922 1.394 . S
C1923 C1924 1.516 . S
C1924 C1923 1.516 . S
C1924 C1925 1.502 . S
C1924 C1926 1.561 1_556 S
C1924 C1927 1.526 . S
C1925 H1909 0.959 . S
C1925 H1910 0.959 1_556 S
C1925 H1911 0.961 . S
C1925 C1924 1.502 . S
C1926 H1912 0.960 . S
C1926 H1913 0.961 . S
C1926 H1914 0.959 . S
C1926 C1924 1.561 1_554 S
C1927 C1924 1.526 . S
C1927 C1928 1.396 . S
C1927 C1932 1.390 . S
C1928 C1922 1.465 . S
C1928 C1927 1.396 . S
C1928 C1929 1.399 . S
C1929 H1915 0.929 . S
C1929 C1928 1.399 . S
C1929 C1930 1.385 . S
C1930 H1916 0.931 . S
C1930 C1929 1.385 . S
C1930 C1931 1.389 . S
C1931 C1930 1.389 . S
C1931 C1932 1.387 . S
C1932 H1917 0.930 1_556 S
C1932 C1927 1.390 . S
C1932 C1931 1.387 . S
H1933 C1945 0.930 . S
H1934 C1947 0.930 . S
H1935 C1948 0.930 . S
H1936 C1952 0.959 . S
H1937 C1952 0.959 . S
H1938 C1952 0.961 . S
H1939 C1953 0.960 . S
H1940 C1953 0.961 . S
H1941 C1953 0.959 . S
H1942 C1956 0.929 . S
H1943 C1957 0.931 . S
H1944 C1959 0.930 . S
C1945 H1933 0.930 . S
C1945 C1946 1.399 . S
C1945 C1950 1.399 . S
C1946 C1945 1.399 . S
C1946 C1947 1.376 . S
C1947 H1934 0.930 . S
C1947 C1946 1.376 . S
C1947 C1948 1.388 . S
C1948 H1935 0.930 . S
C1948 C1947 1.388 . S
C1948 C1949 1.390 . S
C1949 C1948 1.390 . S
C1949 C1950 1.394 . S
C1949 C1955 1.465 . S
C1950 C1945 1.399 . S
C1950 C1949 1.394 . S
C1950 C1951 1.516 . S
C1951 C1950 1.516 . S
C1951 C1952 1.502 . S
C1951 C1953 1.561 . S
C1951 C1954 1.526 . S
C1952 H1936 0.959 . S
C1952 H1937 0.959 . S
C1952 H1938 0.961 . S
C1952 C1951 1.502 . S
C1953 H1939 0.960 . S
C1953 H1940 0.961 . S
C1953 H1941 0.959 . S
C1953 C1951 1.561 . S
C1954 C1951 1.526 . S
C1954 C1955 1.396 . S
C1954 C1959 1.390 . S
C1955 C1949 1.465 . S
C1955 C1954 1.396 . S
C1955 C1956 1.399 . S
C1956 H1942 0.929 . S
C1956 C1955 1.399 . S
C1956 C1957 1.385 . S
C1957 H1943 0.931 . S
C1957 C1956 1.385 . S
C1957 C1958 1.389 . S
C1958 C1957 1.389 . S
C1958 C1959 1.387 . S
C1959 H1944 0.930 . S
C1959 C1954 1.390 . S
C1959 C1958 1.387 . S
H1960 C1972 0.930 . S
H1961 C1974 0.930 . S
H1962 C1975 0.930 . S
H1963 C1979 0.959 . S
H1964 C1979 0.959 . S
H1965 C1979 0.961 . S
H1966 C1980 0.960 . S
H1967 C1980 0.961 . S
H1968 C1980 0.959 . S
H1969 C1983 0.929 . S
H1970 C1984 0.931 . S
H1971 C1986 0.930 . S
C1972 H1960 0.930 . S
C1972 C1973 1.399 . S
C1972 C1977 1.399 . S
C1973 C1972 1.399 . S
C1973 C1974 1.376 1_556 S
C1974 H1961 0.930 . S
C1974 C1973 1.376 1_554 S
C1974 C1975 1.388 . S
C1975 H1962 0.930 . S
C1975 C1974 1.388 . S
C1975 C1976 1.390 1_554 S
C1976 C1975 1.390 1_556 S
C1976 C1977 1.394 . S
C1976 C1982 1.465 . S
C1977 C1972 1.399 . S
C1977 C1976 1.394 . S
C1977 C1978 1.516 . S
C1978 C1977 1.516 . S
C1978 C1979 1.502 . S
C1978 C1980 1.561 . S
C1978 C1981 1.526 . S
C1979 H1963 0.959 . S
C1979 H1964 0.959 . S
C1979 H1965 0.961 . S
C1979 C1978 1.502 . S
C1980 H1966 0.960 . S
C1980 H1967 0.961 . S
C1980 H1968 0.959 . S
C1980 C1978 1.561 . S
C1981 C1978 1.526 . S
C1981 C1982 1.396 . S
C1981 C1986 1.390 . S
C1982 C1976 1.465 . S
C1982 C1981 1.396 . S
C1982 C1983 1.399 . S
C1983 H1969 0.929 . S
C1983 C1982 1.399 . S
C1983 C1984 1.385 . S
C1984 H1970 0.931 . S
C1984 C1983 1.385 . S
C1984 C1985 1.389 . S
C1985 C1984 1.389 . S
C1985 C1986 1.387 . S
C1986 H1971 0.930 . S
C1986 C1981 1.390 . S
C1986 C1985 1.387 . S
H1987 C1999 0.930 . S
H1988 C2001 0.930 . S
H1989 C2002 0.930 . S
H1990 C2006 0.959 . S
H1991 C2006 0.959 . S
H1992 C2006 0.961 . S
H1993 C2007 0.960 . S
H1994 C2007 0.961 . S
H1995 C2007 0.959 . S
H1996 C2010 0.929 . S
H1997 C2011 0.931 . S
H1998 C2013 0.930 . S
C1999 H1987 0.930 . S
C1999 C2000 1.399 . S
C1999 C2004 1.399 . S
C2000 C1999 1.399 . S
C2000 C2001 1.376 . S
C2001 H1988 0.930 . S
C2001 C2000 1.376 . S
C2001 C2002 1.388 . S
C2002 H1989 0.930 . S
C2002 C2001 1.388 . S
C2002 C2003 1.390 . S
C2003 C2002 1.390 . S
C2003 C2004 1.394 . S
C2003 C2009 1.465 . S
C2004 C1999 1.399 . S
C2004 C2003 1.394 . S
C2004 C2005 1.516 . S
C2005 C2004 1.516 . S
C2005 C2006 1.502 . S
C2005 C2007 1.561 . S
C2005 C2008 1.526 . S
C2006 H1990 0.959 . S
C2006 H1991 0.959 . S
C2006 H1992 0.961 . S
C2006 C2005 1.502 . S
C2007 H1993 0.960 . S
C2007 H1994 0.961 . S
C2007 H1995 0.959 . S
C2007 C2005 1.561 . S
C2008 C2005 1.526 . S
C2008 C2009 1.396 . S
C2008 C2013 1.390 . S
C2009 C2003 1.465 . S
C2009 C2008 1.396 . S
C2009 C2010 1.399 . S
C2010 H1996 0.929 . S
C2010 C2009 1.399 . S
C2010 C2011 1.385 . S
C2011 H1997 0.931 . S
C2011 C2010 1.385 . S
C2011 C2012 1.389 . S
C2012 C2011 1.389 . S
C2012 C2013 1.387 . S
C2013 H1998 0.930 . S
C2013 C2008 1.390 . S
C2013 C2012 1.387 . S
H2014 C2026 0.930 . S
H2015 C2028 0.930 . S
H2016 C2029 0.930 . S
H2017 C2033 0.959 . S
H2018 C2033 0.959 . S
H2019 C2033 0.961 . S
H2020 C2034 0.960 . S
H2021 C2034 0.961 . S
H2022 C2034 0.959 . S
H2023 C2037 0.929 . S
H2024 C2038 0.931 . S
H2025 C2040 0.930 . S
C2026 H2014 0.930 . S
C2026 C2027 1.399 . S
C2026 C2031 1.399 . S
C2027 C2026 1.399 . S
C2027 C2028 1.376 . S
C2028 H2015 0.930 . S
C2028 C2027 1.376 . S
C2028 C2029 1.388 . S
C2029 H2016 0.930 . S
C2029 C2028 1.388 . S
C2029 C2030 1.390 . S
C2030 C2029 1.390 . S
C2030 C2031 1.394 . S
C2030 C2036 1.465 . S
C2031 C2026 1.399 . S
C2031 C2030 1.394 . S
C2031 C2032 1.516 . S
C2032 C2031 1.516 . S
C2032 C2033 1.502 . S
C2032 C2034 1.561 . S
C2032 C2035 1.526 . S
C2033 H2017 0.959 . S
C2033 H2018 0.959 . S
C2033 H2019 0.961 . S
C2033 C2032 1.502 . S
C2034 H2020 0.960 . S
C2034 H2021 0.961 . S
C2034 H2022 0.959 . S
C2034 C2032 1.561 . S
C2035 C2032 1.526 . S
C2035 C2036 1.396 . S
C2035 C2040 1.390 . S
C2036 C2030 1.465 . S
C2036 C2035 1.396 . S
C2036 C2037 1.399 . S
C2037 H2023 0.929 . S
C2037 C2036 1.399 . S
C2037 C2038 1.385 . S
C2038 H2024 0.931 . S
C2038 C2037 1.385 . S
C2038 C2039 1.389 . S
C2039 C2038 1.389 . S
C2039 C2040 1.387 . S
C2040 H2025 0.930 . S
C2040 C2035 1.390 . S
C2040 C2039 1.387 . S
H2041 C2053 0.930 . S
H2042 C2055 0.930 . S
H2043 C2056 0.930 . S
H2044 C2060 0.959 . S
H2045 C2060 0.959 . S
H2046 C2060 0.961 . S
H2047 C2061 0.960 . S
H2048 C2061 0.961 . S
H2049 C2061 0.959 . S
H2050 C2064 0.929 . S
H2051 C2065 0.931 . S
H2052 C2067 0.930 . S
C2053 H2041 0.930 . S
C2053 C2054 1.399 . S
C2053 C2058 1.399 . S
C2054 C2053 1.399 . S
C2054 C2055 1.376 . S
C2055 H2042 0.930 . S
C2055 C2054 1.376 . S
C2055 C2056 1.388 . S
C2056 H2043 0.930 . S
C2056 C2055 1.388 . S
C2056 C2057 1.390 . S
C2057 C2056 1.390 . S
C2057 C2058 1.394 . S
C2057 C2063 1.465 . S
C2058 C2053 1.399 . S
C2058 C2057 1.394 . S
C2058 C2059 1.516 . S
C2059 C2058 1.516 . S
C2059 C2060 1.502 . S
C2059 C2061 1.561 . S
C2059 C2062 1.526 . S
C2060 H2044 0.959 . S
C2060 H2045 0.959 . S
C2060 H2046 0.961 . S
C2060 C2059 1.502 . S
C2061 H2047 0.960 . S
C2061 H2048 0.961 . S
C2061 H2049 0.959 . S
C2061 C2059 1.561 . S
C2062 C2059 1.526 . S
C2062 C2063 1.396 . S
C2062 C2067 1.390 . S
C2063 C2057 1.465 . S
C2063 C2062 1.396 . S
C2063 C2064 1.399 . S
C2064 H2050 0.929 . S
C2064 C2063 1.399 . S
C2064 C2065 1.385 . S
C2065 H2051 0.931 . S
C2065 C2064 1.385 . S
C2065 C2066 1.389 . S
C2066 C2065 1.389 . S
C2066 C2067 1.387 . S
C2067 H2052 0.930 . S
C2067 C2062 1.390 . S
C2067 C2066 1.387 . S
H2068 C2080 0.930 . S
H2069 C2082 0.930 . S
H2070 C2083 0.930 . S
H2071 C2087 0.959 . S
H2072 C2087 0.959 . S
H2073 C2087 0.961 . S
H2074 C2088 0.960 . S
H2075 C2088 0.961 . S
H2076 C2088 0.959 . S
H2077 C2091 0.929 . S
H2078 C2092 0.931 . S
H2079 C2094 0.930 . S
C2080 H2068 0.930 . S
C2080 C2081 1.399 . S
C2080 C2085 1.399 . S
C2081 C2080 1.399 . S
C2081 C2082 1.376 . S
C2082 H2069 0.930 . S
C2082 C2081 1.376 . S
C2082 C2083 1.388 . S
C2083 H2070 0.930 . S
C2083 C2082 1.388 . S
C2083 C2084 1.390 . S
C2084 C2083 1.390 . S
C2084 C2085 1.394 . S
C2084 C2090 1.465 . S
C2085 C2080 1.399 . S
C2085 C2084 1.394 . S
C2085 C2086 1.516 . S
C2086 C2085 1.516 . S
C2086 C2087 1.502 . S
C2086 C2088 1.561 . S
C2086 C2089 1.526 . S
C2087 H2071 0.959 . S
C2087 H2072 0.959 . S
C2087 H2073 0.961 . S
C2087 C2086 1.502 . S
C2088 H2074 0.960 . S
C2088 H2075 0.961 . S
C2088 H2076 0.959 . S
C2088 C2086 1.561 . S
C2089 C2086 1.526 . S
C2089 C2090 1.396 . S
C2089 C2094 1.390 . S
C2090 C2084 1.465 . S
C2090 C2089 1.396 . S
C2090 C2091 1.399 . S
C2091 H2077 0.929 . S
C2091 C2090 1.399 . S
C2091 C2092 1.385 . S
C2092 H2078 0.931 . S
C2092 C2091 1.385 . S
C2092 C2093 1.389 . S
C2093 C2092 1.389 . S
C2093 C2094 1.387 . S
C2094 H2079 0.930 . S
C2094 C2089 1.390 . S
C2094 C2093 1.387 . S
H2095 C2107 0.930 . S
H2096 C2109 0.930 . S
H2097 C2110 0.930 . S
H2098 C2114 0.959 . S
H2099 C2114 0.959 . S
H2100 C2114 0.961 . S
H2101 C2115 0.960 . S
H2102 C2115 0.961 . S
H2103 C2115 0.959 . S
H2104 C2118 0.929 . S
H2105 C2119 0.931 . S
H2106 C2121 0.930 . S
C2107 H2095 0.930 . S
C2107 C2108 1.399 . S
C2107 C2112 1.399 . S
C2108 C2107 1.399 . S
C2108 C2109 1.376 . S
C2109 H2096 0.930 . S
C2109 C2108 1.376 . S
C2109 C2110 1.388 . S
C2110 H2097 0.930 . S
C2110 C2109 1.388 . S
C2110 C2111 1.390 . S
C2111 C2110 1.390 . S
C2111 C2112 1.394 . S
C2111 C2117 1.465 . S
C2112 C2107 1.399 . S
C2112 C2111 1.394 . S
C2112 C2113 1.516 . S
C2113 C2112 1.516 . S
C2113 C2114 1.502 . S
C2113 C2115 1.561 . S
C2113 C2116 1.526 . S
C2114 H2098 0.959 . S
C2114 H2099 0.959 . S
C2114 H2100 0.961 . S
C2114 C2113 1.502 . S
C2115 H2101 0.960 . S
C2115 H2102 0.961 . S
C2115 H2103 0.959 . S
C2115 C2113 1.561 . S
C2116 C2113 1.526 . S
C2116 C2117 1.396 . S
C2116 C2121 1.390 . S
C2117 C2111 1.465 . S
C2117 C2116 1.396 . S
C2117 C2118 1.399 . S
C2118 H2104 0.929 . S
C2118 C2117 1.399 . S
C2118 C2119 1.385 . S
C2119 H2105 0.931 . S
C2119 C2118 1.385 . S
C2119 C2120 1.389 . S
C2120 C2119 1.389 . S
C2120 C2121 1.387 . S
C2121 H2106 0.930 . S
C2121 C2116 1.390 . S
C2121 C2120 1.387 . S
H2122 C2134 0.930 . S
H2123 C2136 0.930 . S
H2124 C2137 0.930 . S
H2125 C2141 0.959 . S
H2126 C2141 0.959 . S
H2127 C2141 0.961 . S
H2128 C2142 0.960 . S
H2129 C2142 0.961 . S
H2130 C2142 0.959 . S
H2131 C2145 0.929 . S
H2132 C2146 0.931 . S
H2133 C2148 0.930 . S
C2134 H2122 0.930 . S
C2134 C2135 1.399 . S
C2134 C2139 1.399 . S
C2135 C2134 1.399 . S
C2135 C2136 1.376 . S
C2136 H2123 0.930 . S
C2136 C2135 1.376 . S
C2136 C2137 1.388 . S
C2137 H2124 0.930 . S
C2137 C2136 1.388 . S
C2137 C2138 1.390 . S
C2138 C2137 1.390 . S
C2138 C2139 1.394 . S
C2138 C2144 1.465 . S
C2139 C2134 1.399 . S
C2139 C2138 1.394 . S
C2139 C2140 1.516 . S
C2140 C2139 1.516 . S
C2140 C2141 1.502 . S
C2140 C2142 1.561 . S
C2140 C2143 1.526 . S
C2141 H2125 0.959 . S
C2141 H2126 0.959 . S
C2141 H2127 0.961 . S
C2141 C2140 1.502 . S
C2142 H2128 0.960 . S
C2142 H2129 0.961 . S
C2142 H2130 0.959 . S
C2142 C2140 1.561 . S
C2143 C2140 1.526 . S
C2143 C2144 1.396 . S
C2143 C2148 1.390 . S
C2144 C2138 1.465 . S
C2144 C2143 1.396 . S
C2144 C2145 1.399 . S
C2145 H2131 0.929 . S
C2145 C2144 1.399 . S
C2145 C2146 1.385 . S
C2146 H2132 0.931 . S
C2146 C2145 1.385 . S
C2146 C2147 1.389 . S
C2147 C2146 1.389 . S
C2147 C2148 1.387 . S
C2148 H2133 0.930 . S
C2148 C2143 1.390 . S
C2148 C2147 1.387 . S
H2149 C2161 0.930 . S
H2150 C2163 0.930 . S
H2151 C2164 0.930 . S
H2152 C2168 0.959 . S
H2153 C2168 0.959 . S
H2154 C2168 0.960 1_556 S
H2155 C2169 0.960 . S
H2156 C2169 0.961 . S
H2157 C2169 0.959 . S
H2158 C2172 0.929 . S
H2159 C2173 0.931 . S
H2160 C2175 0.930 1_554 S
C2161 H2149 0.930 . S
C2161 C2162 1.399 . S
C2161 C2166 1.399 . S
C2162 C2161 1.399 . S
C2162 C2163 1.376 . S
C2163 H2150 0.930 . S
C2163 C2162 1.376 . S
C2163 C2164 1.388 . S
C2164 H2151 0.930 . S
C2164 C2163 1.388 . S
C2164 C2165 1.390 . S
C2165 C2164 1.390 . S
C2165 C2166 1.394 . S
C2165 C2171 1.465 . S
C2166 C2161 1.399 . S
C2166 C2165 1.394 . S
C2166 C2167 1.516 . S
C2167 C2166 1.516 . S
C2167 C2168 1.502 1_556 S
C2167 C2169 1.561 . S
C2167 C2170 1.526 . S
C2168 H2152 0.959 . S
C2168 H2153 0.959 . S
C2168 H2154 0.960 1_554 S
C2168 C2167 1.502 1_554 S
C2169 H2155 0.960 . S
C2169 H2156 0.961 . S
C2169 H2157 0.959 . S
C2169 C2167 1.561 . S
C2170 C2167 1.526 . S
C2170 C2171 1.396 . S
C2170 C2175 1.390 . S
C2171 C2165 1.465 . S
C2171 C2170 1.396 . S
C2171 C2172 1.399 . S
C2172 H2158 0.929 . S
C2172 C2171 1.399 . S
C2172 C2173 1.385 . S
C2173 H2159 0.931 . S
C2173 C2172 1.385 . S
C2173 C2174 1.389 . S
C2174 C2173 1.389 . S
C2174 C2175 1.387 . S
C2175 H2160 0.930 1_556 S
C2175 C2170 1.390 . S
C2175 C2174 1.387 . S
C461 C121 1.401 . S
C473 C9 1.383 . S
C488 C23 1.357 . S
C500 C359 1.403 . S
C515 C37 1.386 . S
C527 C149 1.373 . S
C542 C51 1.347 . S
C554 C387 1.415 . S
C569 C65 1.399 . S
C581 C177 1.385 . S
C596 C415 1.418 . S
C608 C79 1.362 . S
C623 C205 1.350 . S
C635 C93 1.412 . S
C650 C443 1.410 . S
C662 C107 1.373 . S
C677 C247 1.353 . S
C689 C135 1.408 . S
C704 C163 1.358 . S
C716 C275 1.402 . S
C731 C191 1.367 . S
C743 C303 1.393 . S
C758 C331 1.361 . S
C770 C219 1.398 . S
C785 C345 1.417 . S
C797 C233 1.364 . S
C812 C261 1.419 . S
C824 C373 1.360 . S
C839 C289 1.414 . S
C851 C401 1.349 . S
C866 C429 1.358 . S
C878 C317 1.402 . S
C893 C3 1.331 . S
C905 C59 1.301 . S
C920 C73 1.359 . S
C932 C17 1.335 . S
C947 C87 1.322 . S
C959 C31 1.299 . S
C974 C45 1.353 . S
C986 C101 1.353 . S
C1001 C115 1.359 . S
C1013 C171 1.313 . S
C1028 C129 1.328 . S
C1040 C185 1.357 . S
C1055 C199 1.359 . S
C1067 C143 1.319 . S
C1082 C213 1.333 . S
C1094 C157 1.300 . S
C1109 C283 1.331 . S
C1121 C227 1.358 . S
C1136 C297 1.303 . S
C1148 C241 1.308 . S
C1163 C255 1.330 . S
C1175 C311 1.358 . S
C1190 C325 1.298 . S
C1202 C269 1.321 . S
C1217 C395 1.299 . S
C1229 C339 1.345 . S
C1244 C353 1.327 . S
C1256 C409 1.358 . S
C1271 C423 1.358 . S
C1283 C367 1.327 . S
C1298 C437 1.331 . S
C1310 C381 1.301 . S
C1325 C63 0.455 . S
C1337 C7 0.526 . S
C1352 C77 0.538 . S
C1364 C21 0.581 . S
C1379 C35 0.580 . S
C1391 C91 0.521 . S
C1406 C105 0.547 . S
C1418 C49 0.581 . S
C1433 C175 0.498 . S
C1445 C119 0.463 . S
C1460 C133 0.449 . S
C1472 C189 0.471 . S
C1487 C203 0.543 . S
C1499 C147 0.571 . S
C1514 C217 0.451 . S
C1526 C161 0.478 . S
C1541 C231 0.451 . S
C1553 C287 0.517 1_565 S
C1568 C301 0.464 . S
C1580 C245 0.461 . S
C1595 C315 0.455 . S
C1607 C259 0.463 1_565 S
C1622 C329 0.529 . S
C1634 C273 0.580 . S
C1649 C399 0.459 1_545 S
C1661 C343 0.458 . S
C1676 C357 0.579 . S
C1688 C413 0.556 . S
C1703 C371 0.540 . S
C1715 C427 0.569 1_565 S
C1730 C385 0.579 . S
C1742 C441 0.556 . S
C1757 C8 1.515 . S
C1769 C302 1.493 . S
C1784 C316 1.499 . S
C1796 C22 1.509 . S
C1811 C36 1.490 . S
C1823 C330 1.518 . S
C1838 C50 1.483 . S
C1850 C288 1.524 1_556 S
C1865 C274 1.519 . S
C1877 C64 1.487 . S
C1892 C232 1.505 . S
C1904 C78 1.500 . S
C1919 C246 1.516 . S
C1931 C92 1.490 1_556 S
C1946 C106 1.527 . S
C1958 C260 1.481 . S
C1973 C120 1.527 1_556 S
C1985 C414 1.480 . S
C2000 C428 1.526 . S
C2012 C134 1.479 . S
C2027 C442 1.494 . S
C2039 C148 1.498 . S
C2054 C400 1.526 . S
C2066 C162 1.479 . S
C2081 C386 1.505 . S
C2093 C176 1.515 . S
C2108 C344 1.504 . S
C2120 C190 1.489 . S
C2135 C204 1.522 . S
C2147 C358 1.479 . S
C2162 C218 1.527 . S
C2174 C372 1.486 1_556 S
