# Generated by pormake.
# Topology bcs, (6)-cn, num edge types: 1
# Building blocks:
#     Node 0, Type 0, BuildingBlock: LEVNOQ01_clean_sbu_1, # of connection points: 6
#     Node 1, Type 0, BuildingBlock: LEVNOQ01_clean_sbu_1, # of connection points: 6
#     Node 2, Type 0, BuildingBlock: LEVNOQ01_clean_sbu_1, # of connection points: 6
#     Node 3, Type 0, BuildingBlock: LEVNOQ01_clean_sbu_1, # of connection points: 6
#     Node 4, Type 0, BuildingBlock: LEVNOQ01_clean_sbu_1, # of connection points: 6
#     Node 5, Type 0, BuildingBlock: LEVNOQ01_clean_sbu_1, # of connection points: 6
#     Node 6, Type 0, BuildingBlock: LEVNOQ01_clean_sbu_1, # of connection points: 6
#     Node 7, Type 0, BuildingBlock: LEVNOQ01_clean_sbu_1, # of connection points: 6
#     Node 8, Type 0, BuildingBlock: LEVNOQ01_clean_sbu_1, # of connection points: 6
#     Node 9, Type 0, BuildingBlock: LEVNOQ01_clean_sbu_1, # of connection points: 6
#     Node 10, Type 0, BuildingBlock: LEVNOQ01_clean_sbu_1, # of connection points: 6
#     Node 11, Type 0, BuildingBlock: LEVNOQ01_clean_sbu_1, # of connection points: 6
#     Node 12, Type 0, BuildingBlock: LEVNOQ01_clean_sbu_1, # of connection points: 6
#     Node 13, Type 0, BuildingBlock: LEVNOQ01_clean_sbu_1, # of connection points: 6
#     Node 14, Type 0, BuildingBlock: LEVNOQ01_clean_sbu_1, # of connection points: 6
#     Node 15, Type 0, BuildingBlock: LEVNOQ01_clean_sbu_1, # of connection points: 6
#     Edge 16, Type (0, 0), None
#     Edge 17, Type (0, 0), None
#     Edge 18, Type (0, 0), None
#     Edge 19, Type (0, 0), None
#     Edge 20, Type (0, 0), None
#     Edge 21, Type (0, 0), None
#     Edge 22, Type (0, 0), None
#     Edge 23, Type (0, 0), None
#     Edge 24, Type (0, 0), None
#     Edge 25, Type (0, 0), None
#     Edge 26, Type (0, 0), None
#     Edge 27, Type (0, 0), None
#     Edge 28, Type (0, 0), None
#     Edge 29, Type (0, 0), None
#     Edge 30, Type (0, 0), None
#     Edge 31, Type (0, 0), None
#     Edge 32, Type (0, 0), None
#     Edge 33, Type (0, 0), None
#     Edge 34, Type (0, 0), None
#     Edge 35, Type (0, 0), None
#     Edge 36, Type (0, 0), None
#     Edge 37, Type (0, 0), None
#     Edge 38, Type (0, 0), None
#     Edge 39, Type (0, 0), None
#     Edge 40, Type (0, 0), None
#     Edge 41, Type (0, 0), None
#     Edge 42, Type (0, 0), None
#     Edge 43, Type (0, 0), None
#     Edge 44, Type (0, 0), None
#     Edge 45, Type (0, 0), None
#     Edge 46, Type (0, 0), None
#     Edge 47, Type (0, 0), None
#     Edge 48, Type (0, 0), None
#     Edge 49, Type (0, 0), None
#     Edge 50, Type (0, 0), None
#     Edge 51, Type (0, 0), None
#     Edge 52, Type (0, 0), None
#     Edge 53, Type (0, 0), None
#     Edge 54, Type (0, 0), None
#     Edge 55, Type (0, 0), None
#     Edge 56, Type (0, 0), None
#     Edge 57, Type (0, 0), None
#     Edge 58, Type (0, 0), None
#     Edge 59, Type (0, 0), None
#     Edge 60, Type (0, 0), None
#     Edge 61, Type (0, 0), None
#     Edge 62, Type (0, 0), None
#     Edge 63, Type (0, 0), None
# Relax obj value: 0.260
# Max RMSD: 0.275
# Mean RMSD: 0.246
data_MOF--net-bcs--node1-LEVNOQ01_clean_sbu_1--edge1-none
_symmetry_space_group_name_H-M    P1
_symmetry_Int_Tables_number       1
_symmetry_cell_setting            triclinic
loop_
_symmetry_equiv_pos_as_xyz
'x, y, z'
_cell_length_a     17.334976
_cell_length_b     17.361504
_cell_length_c     18.7121
_cell_angle_alpha  89.563037
_cell_angle_beta   90.640534
_cell_angle_gamma 94.957956
loop_
_atom_site_label
_atom_site_type_symbol
_atom_site_fract_x
_atom_site_fract_y
_atom_site_fract_z
_atom_type_partial_charge
O0 O -0.02152 0.77731 0.88122 0.0
Mg1 Mg 0.91655 0.78146 -0.02761 0.0
O2 O 0.01207 0.90353 0.86644 0.0
Mg3 Mg -0.05742 -0.02434 -0.04833 0.0
O4 O 0.85534 0.87386 -0.03111 0.0
O5 O 0.79657 0.75829 -0.01496 0.0
O6 O 0.87314 0.04782 0.03695 0.0
O7 O 0.86119 0.01634 0.85844 0.0
Mg8 Mg -0.03122 0.17034 0.93095 0.0
O9 O 0.02942 0.0776 0.93406 0.0
O10 O 0.90683 0.17404 0.02215 0.0
O11 O 0.88964 0.14371 0.84682 0.0
O12 O 0.08896 0.19278 0.91838 0.0
C13 C 0.03507 0.86986 0.07429 0.0
C14 C 0.01803 0.83211 0.85057 0.0
C15 C 0.79747 0.83178 -0.00476 0.0
C16 C 0.86731 0.11925 0.05286 0.0
C17 C 0.85029 0.08154 0.82909 0.0
C18 C 0.08791 0.11926 0.90838 0.0
O19 O -0.00436 0.80772 0.05663 0.0
O20 O 0.0241 0.93504 0.04492 0.0
O21 O 0.04632 0.84555 0.19224 0.0
Mg22 Mg 0.00778 0.72584 0.17703 0.0
O23 O 0.14417 0.82671 0.12839 0.0
Mg24 Mg 0.1942 0.72458 0.19593 0.0
O25 O 0.08179 0.68548 0.24817 0.0
O26 O -0.04383 0.66423 0.26346 0.0
O27 O 0.24689 0.61712 0.25415 0.0
O28 O 0.2261 0.79901 0.29244 0.0
Mg29 Mg 0.37781 0.74304 0.22251 0.0
O30 O 0.30247 0.76364 0.14536 0.0
O31 O 0.37437 0.62452 0.24234 0.0
O32 O 0.35381 0.80971 0.31147 0.0
O33 O 0.42618 0.79549 0.1304 0.0
C34 C 0.10113 0.63909 0.06389 0.0
C35 C 0.08485 0.86382 0.13772 0.0
C36 C 0.02537 0.65743 0.28665 0.0
C37 C 0.31223 0.5878 0.26158 0.0
C38 C 0.28587 0.82303 0.32879 0.0
C39 C 0.35682 0.79321 0.10564 0.0
O40 O 0.03587 0.66215 0.081 0.0
O41 O 0.16196 0.65303 0.10166 0.0
O42 O 0.26665 -0.02114 0.57527 0.0
Mg43 Mg 0.25995 -0.01936 0.46323 0.0
O44 O 0.38739 0.02428 0.5553 0.0
Mg45 Mg 0.44313 -0.02406 0.45181 0.0
O46 O 0.33252 0.91421 0.41649 0.0
O47 O 0.20651 0.88934 0.40273 0.0
O48 O 0.49892 0.92745 0.3484 0.0
O49 O 0.48334 0.86629 0.51959 0.0
Mg50 Mg 0.62652 -0.02856 0.44047 0.0
O51 O 0.55366 0.03771 0.48702 0.0
O52 O 0.6198 -0.02758 0.3284 0.0
O53 O 0.60756 0.86215 0.49123 0.0
O54 O 0.67961 0.06319 0.5006 0.0
C55 C 0.33845 0.11775 0.37967 0.0
C56 C 0.3274 0.01823 0.59533 0.0
C57 C 0.2753 0.87321 0.38797 0.0
C58 C 0.55896 0.93313 0.30842 0.0
C59 C 0.54804 0.83461 0.5245 0.0
C60 C 0.61073 0.07898 0.51544 0.0
O61 O 0.279 0.09031 0.41312 0.0
O62 O 0.40298 0.08571 0.38413 0.0
O63 O 0.38119 0.1216 0.66074 0.0
Mg64 Mg 0.38126 0.23952 0.68286 0.0
O65 O 0.25313 0.10404 0.65887 0.0
Mg66 Mg 0.19774 0.21206 0.70926 0.0
O67 O 0.30604 0.25726 0.75934 0.0
O68 O 0.42939 0.29455 0.77395 0.0
O69 O 0.13774 0.31858 0.75688 0.0
O70 O 0.17213 0.14704 0.81672 0.0
Mg71 Mg 0.01563 0.15967 0.7429 0.0
O72 O 0.08679 0.17171 0.65809 0.0
O73 O 0.01726 0.27407 0.78534 0.0
O74 O 0.06885 0.06924 0.79722 0.0
O75 O -0.03625 0.134 0.645 0.0
C76 C 0.28707 0.31271 0.57273 0.0
C77 C 0.31984 0.07997 0.64705 0.0
C78 C 0.36027 0.28973 0.79837 0.0
C79 C 0.07068 0.32897 0.78222 0.0
C80 C 0.11996 0.0974 0.8404 0.0
C81 C 0.03091 0.14617 0.61736 0.0
O82 O 0.3556 0.30613 0.59422 0.0
O83 O 0.22782 0.28287 0.60643 0.0
O84 O 0.75274 0.02724 0.39389 0.0
Mg85 Mg 0.7552 0.92349 0.45629 0.0
O86 O 0.87716 0.06702 0.40165 0.0
Mg87 Mg -0.05665 -0.02438 0.45189 0.0
O88 O 0.84587 0.93716 0.52792 0.0
O89 O 0.72934 0.90272 0.56668 0.0
O90 O 0.00959 0.88421 0.50207 0.0
O91 O -0.01121 0.06227 0.53002 0.0
Mg92 Mg 0.13143 0.02791 0.44785 0.0
O93 O 0.0409 0.01421 0.376 0.0
O94 O 0.13397 0.92407 0.51017 0.0
O95 O 0.10822 0.11825 0.51898 0.0
O96 O 0.1575 0.04861 0.33745 0.0
C97 C 0.84352 0.83978 0.35454 0.0
C98 C 0.80846 0.0771 0.38231 0.0
C99 C 0.80213 0.91175 0.57998 0.0
C100 C 0.07827 0.87412 0.5215 0.0
C101 C 0.0429 0.11148 0.54946 0.0
C102 C 0.08476 0.03932 0.32393 0.0
O103 O 0.77833 0.83311 0.38527 0.0
O104 O 0.8978 0.88893 0.37376 0.0
O105 O 0.00647 0.78046 0.73995 0.0
Mg106 Mg 0.00627 0.69523 0.65879 0.0
O107 O 0.12255 0.78596 0.78735 0.0
Mg108 Mg 0.19164 0.72766 0.69936 0.0
O109 O 0.09591 0.63354 0.6686 0.0
O110 O -0.01858 0.575 0.64243 0.0
O111 O 0.26044 0.66723 0.61326 0.0
O112 O 0.23858 0.64729 0.78516 0.0
Mg113 Mg 0.38227 0.76687 0.7084 0.0
O114 O 0.28773 0.81979 0.73131 0.0
O115 O 0.37574 0.72675 0.59851 0.0
O116 O 0.36737 0.67369 0.78577 0.0
O117 O 0.40099 0.8806 0.75406 0.0
C118 C 0.08931 0.80746 0.56578 0.0
C119 C 0.05449 0.808 0.78563 0.0
C120 C 0.05566 0.57569 0.63857 0.0
C121 C 0.32469 0.67411 0.58055 0.0
C122 C 0.30611 0.63617 0.80925 0.0
C123 C 0.32733 0.8762 0.76352 0.0
O124 O 0.03318 0.75579 0.56659 0.0
O125 O 0.14527 0.80946 0.61142 0.0
O126 O 0.63784 0.90543 0.90087 0.0
Mg127 Mg 0.63937 0.01392 -0.04286 0.0
O128 O 0.5099 0.89283 0.88441 0.0
Mg129 Mg 0.44332 -0.02427 -0.048 0.0
O130 O 0.54762 0.00863 0.02574 0.0
O131 O 0.66404 0.0419 0.06728 0.0
O132 O 0.37687 0.05883 0.01977 0.0
O133 O 0.40266 0.8811 0.02289 0.0
Mg134 Mg 0.24743 0.93813 -0.05329 0.0
O135 O 0.33908 0.94246 0.87807 0.0
O136 O 0.24902 0.0467 0.00292 0.0
O137 O 0.27496 0.8492 0.02152 0.0
O138 O 0.22236 0.91003 0.83668 0.0
C139 C 0.54318 0.11149 0.85979 0.0
C140 C 0.57729 0.87257 0.87106 0.0
C141 C 0.59074 0.03516 0.07853 0.0
C142 C 0.30952 0.07931 0.033 0.0
C143 C 0.34324 0.84011 0.04407 0.0
C144 C 0.29565 0.9163 0.8253 0.0
O145 O 0.61152 0.10282 0.88241 0.0
O146 O 0.48395 0.0703 0.88108 0.0
O147 O 0.37391 0.22728 0.3041 0.0
Mg148 Mg 0.38022 0.26457 0.19341 0.0
O149 O 0.25963 0.16549 0.28807 0.0
Mg150 Mg 0.19033 0.22667 0.20126 0.0
O151 O 0.28686 0.31978 0.17015 0.0
O152 O 0.4013 0.37913 0.14978 0.0
O153 O 0.12018 0.28517 0.11537 0.0
O154 O 0.14526 0.30676 0.28958 0.0
Mg155 Mg 0.00178 0.1933 0.2216 0.0
O156 O 0.09365 0.13477 0.23014 0.0
O157 O -0.0058 0.25519 0.12236 0.0
O158 O 0.01961 0.27099 0.30607 0.0
O159 O -0.02093 0.07592 0.25364 0.0
C160 C 0.30224 0.13779 0.08886 0.0
C161 C 0.32347 0.17446 0.3224 0.0
C162 C 0.3277 0.37622 0.13898 0.0
C163 C 0.05159 0.29062 0.09225 0.0
C164 C 0.08119 0.31217 0.32219 0.0
C165 C 0.05328 0.07769 0.26082 0.0
O166 O 0.36412 0.17309 0.11446 0.0
O167 O 0.23523 0.14842 0.11321 0.0
O168 O 0.25522 0.53351 0.88353 0.0
Mg169 Mg 0.25177 0.43126 -0.04882 0.0
O170 O 0.3822 0.56195 0.88349 0.0
Mg171 Mg 0.4427 0.47552 -0.048 0.0
O172 O 0.3407 0.44267 0.02403 0.0
O173 O 0.22444 0.41037 0.06266 0.0
O174 O 0.5031 0.38893 0.02063 0.0
O175 O 0.48308 0.56924 0.02499 0.0
Mg176 Mg 0.63355 0.51922 -0.04728 0.0
O177 O 0.54463 0.50871 0.87981 0.0
O178 O 0.63012 0.41677 0.02014 0.0
O179 O 0.60773 0.61257 0.01995 0.0
O180 O 0.66107 0.54027 0.84131 0.0
C181 C 0.34564 0.33572 0.85936 0.0
C182 C 0.31456 0.5751 0.86271 0.0
C183 C 0.29715 0.41715 0.07618 0.0
C184 C 0.57072 0.37545 0.04122 0.0
C185 C 0.53996 0.61512 0.04467 0.0
C186 C 0.58837 0.53386 0.82764 0.0
O187 O 0.27788 0.33786 0.88418 0.0
O188 O 0.40234 0.38183 0.87901 0.0
O189 O 0.50982 0.22328 0.30562 0.0
Mg190 Mg 0.50322 0.1835 0.19562 0.0
O191 O 0.62493 0.28326 0.29081 0.0
Mg192 Mg 0.69386 0.22303 0.20474 0.0
O193 O 0.59794 0.13061 0.17346 0.0
O194 O 0.48489 0.06996 0.1495 0.0
O195 O 0.76285 0.16486 0.1166 0.0
O196 O 0.74089 0.14161 0.29267 0.0
Mg197 Mg 0.8797 0.25643 0.24451 0.0
O198 O 0.78923 0.31714 0.23584 0.0
O199 O 0.87928 0.17147 0.16325 0.0
O200 O 0.85361 0.19512 0.3365 0.0
O201 O 0.90344 0.37681 0.2609 0.0
C202 C 0.57915 0.31435 0.09473 0.0
C203 C 0.56068 0.27615 0.32351 0.0
C204 C 0.5586 0.07467 0.14038 0.0
C205 C 0.83113 0.14342 0.11793 0.0
C206 C 0.79733 0.14359 0.33782 0.0
C207 C 0.82919 0.37564 0.26506 0.0
O208 O 0.51792 0.2768 0.11824 0.0
O209 O 0.64667 0.30326 0.11886 0.0
O210 O 0.13191 0.41774 0.39156 0.0
Mg211 Mg 0.13248 0.52231 0.45272 0.0
O212 O 0.0054 0.38708 0.39182 0.0
Mg213 Mg -0.05748 0.47562 0.45169 0.0
O214 O 0.04408 0.51112 0.52393 0.0
O215 O 0.1599 0.5451 0.56441 0.0
O216 O 0.87963 0.56411 0.51149 0.0
O217 O 0.90525 0.38508 0.5332 0.0
Mg218 Mg 0.75255 0.42885 0.45099 0.0
O219 O 0.84086 0.44003 0.37967 0.0
O220 O 0.75315 0.53338 0.51227 0.0
O221 O 0.78101 0.34048 0.52503 0.0
O222 O 0.72498 0.40626 0.33925 0.0
C223 C 0.0374 0.61078 0.34962 0.0
C224 C 0.07329 0.37387 0.37328 0.0
C225 C 0.08731 0.53664 0.5767 0.0
C226 C 0.81181 0.57733 0.53026 0.0
C227 C 0.84788 0.34042 0.55385 0.0
C228 C 0.79756 0.41485 0.32684 0.0
O229 O 0.10418 0.61064 0.3786 0.0
O230 O -0.02009 0.56619 0.37015 0.0
O231 O 0.86859 0.6763 0.11891 0.0
Mg232 Mg 0.87009 0.79058 0.16141 0.0
O233 O 0.74806 0.63199 0.14732 0.0
Mg234 Mg 0.68819 0.73862 0.19492 0.0
O235 O 0.7991 0.7789 0.24639 0.0
O236 O 0.92232 0.81651 0.25901 0.0
O237 O 0.63295 0.84684 0.24517 0.0
O238 O 0.65772 0.66775 0.29756 0.0
Mg239 Mg 0.50459 0.71163 0.22108 0.0
O240 O 0.57988 0.69344 0.1447 0.0
O241 O 0.50488 0.82958 0.24329 0.0
O242 O 0.52989 0.64478 0.30964 0.0
O243 O 0.45638 0.65672 0.13001 0.0
C244 C 0.76624 0.8532 0.06369 0.0
C245 C 0.81508 0.62149 0.12196 0.0
C246 C 0.85521 0.80466 0.28681 0.0
C247 C 0.56632 0.87111 0.25694 0.0
C248 C 0.59836 0.63793 0.33112 0.0
C249 C 0.52551 0.66122 0.10563 0.0
O250 O 0.81786 0.88114 0.10649 0.0
O251 O 0.71419 0.80358 0.0876 0.0
O252 O 0.51128 0.32677 0.66168 0.0
Mg253 Mg 0.5079 0.20829 0.68136 0.0
O254 O 0.63878 0.33442 0.64968 0.0
Mg255 Mg 0.69156 0.22699 0.70774 0.0
O256 O 0.5834 0.18813 0.75842 0.0
O257 O 0.45984 0.15579 0.77364 0.0
O258 O 0.74136 0.12469 0.77502 0.0
O259 O 0.72402 0.29827 0.80199 0.0
Mg260 Mg 0.87817 0.22547 0.7264 0.0
O261 O 0.80394 0.26585 0.6555 0.0
O262 O 0.83915 0.10589 0.71108 0.0
O263 O 0.85015 0.28919 0.8225 0.0
O264 O 0.92948 0.28698 0.63974 0.0
C265 C 0.59996 0.12895 0.57472 0.0
C266 C 0.57334 0.36359 0.64236 0.0
C267 C 0.52928 0.15831 0.79824 0.0
C268 C 0.80064 0.08758 0.76561 0.0
C269 C 0.78488 0.31216 0.83971 0.0
C270 C 0.86018 0.29384 0.61681 0.0
O271 O 0.53197 0.14191 0.5922 0.0
O272 O 0.65966 0.15292 0.61115 0.0
O273 O 0.89227 0.69479 0.78078 0.0
Mg274 Mg 0.88422 0.75724 0.68182 0.0
O275 O 0.76612 0.66623 0.78863 0.0
Mg276 Mg 0.69599 0.72496 0.70282 0.0
O277 O 0.79301 0.81685 0.67439 0.0
O278 O 0.90789 0.87447 0.64974 0.0
O279 O 0.62684 0.78636 0.61593 0.0
O280 O 0.65142 0.80337 0.79084 0.0
Mg281 Mg 0.50607 0.68755 0.7109 0.0
O282 O 0.59929 0.63218 0.73454 0.0
O283 O 0.512 0.7256 0.60045 0.0
O284 O 0.5225 0.77877 0.78988 0.0
O285 O 0.48462 0.57279 0.75399 0.0
C286 C 0.8042 0.63912 0.58129 0.0
C287 C 0.83475 0.66007 0.81134 0.0
C288 C 0.83368 0.87327 0.64299 0.0
C289 C 0.56283 0.77788 0.58182 0.0
C290 C 0.58447 0.81404 0.81531 0.0
C291 C 0.55818 0.57542 0.76499 0.0
O292 O 0.8659 0.68023 0.59705 0.0
O293 O 0.74042 0.64455 0.61437 0.0
O294 O 0.6247 0.46771 0.57258 0.0
Mg295 Mg 0.62549 0.47289 0.4609 0.0
O296 O 0.50307 0.42352 0.55297 0.0
Mg297 Mg 0.44262 0.47528 0.45186 0.0
O298 O 0.55209 0.54181 0.41535 0.0
O299 O 0.67848 0.56671 0.40323 0.0
O300 O 0.38221 0.52724 0.35081 0.0
O301 O 0.40389 0.58421 0.5211 0.0
Mg302 Mg 0.25957 0.4776 0.44283 0.0
O303 O 0.33312 0.40877 0.48836 0.0
O304 O 0.26046 0.48354 0.33111 0.0
O305 O 0.27897 0.58666 0.493 0.0
O306 O 0.20675 0.38351 0.50036 0.0
C307 C 0.54624 0.33477 0.3786 0.0
C308 C 0.56474 0.42706 0.59187 0.0
C309 C 0.60963 0.5844 0.38898 0.0
C310 C 0.32054 0.52408 0.31193 0.0
C311 C 0.33898 0.61549 0.52544 0.0
C312 C 0.27566 0.36605 0.51473 0.0
O313 O 0.6062 0.36358 0.41111 0.0
O314 O 0.4814 0.36623 0.38268 0.0
O315 O 0.77151 0.4985 0.07649 0.0
Mg316 Mg 0.76308 0.47878 -0.03409 0.0
O317 O 0.88641 0.54891 0.04243 0.0
Mg318 Mg -0.0571 0.47529 -0.04798 0.0
O319 O 0.83479 0.40726 0.92372 0.0
O320 O 0.70938 0.37931 0.91685 0.0
O321 O -0.00071 0.40155 0.86169 0.0
O322 O -0.02315 0.3806 0.03194 0.0
Mg323 Mg 0.12237 0.47209 0.9378 0.0
O324 O 0.05089 0.54348 -0.0194 0.0
O325 O 0.11386 0.45235 0.82721 0.0
O326 O 0.09846 0.36889 -0.00153 0.0
O327 O 0.17638 0.57141 -0.01311 0.0
C328 C 0.84631 0.60379 0.86806 0.0
C329 C 0.82776 0.54931 0.08378 0.0
C330 C 0.77757 0.36282 0.90005 0.0
C331 C 0.05783 0.40126 0.8202 0.0
C332 C 0.03973 0.34686 0.03562 0.0
C333 C 0.10827 0.58802 0.00382 0.0
O334 O 0.78742 0.58184 0.90504 0.0
O335 O 0.90913 0.56998 0.872 0.0
loop_
_geom_bond_atom_site_label_1
_geom_bond_atom_site_label_2
_geom_bond_distance
_geom_bond_site_symmetry_2
_ccdc_geom_bond_type
O0 Mg1 1.990 1_556 S
O0 C14 1.253 . S
Mg1 O0 1.990 1_554 S
Mg1 O4 2.180 1_455 S
Mg1 O5 2.117 1_455 S
Mg1 O19 2.030 . S
O2 Mg3 2.072 1_566 S
O2 C14 1.260 . S
Mg3 O2 2.072 1_544 S
Mg3 O4 2.099 1_445 S
Mg3 O6 2.079 1_455 S
Mg3 O7 2.072 1_454 S
Mg3 O9 2.099 1_554 S
Mg3 O20 2.079 1_545 S
O4 Mg1 2.180 1_655 S
O4 Mg3 2.099 1_665 S
O4 C15 1.279 . S
O5 Mg1 2.117 1_655 S
O5 C15 1.250 . S
O6 Mg3 2.079 1_655 S
O6 C16 1.264 . S
O7 Mg3 2.072 1_656 S
O7 C17 1.260 . S
Mg8 O9 2.180 . S
Mg8 O10 2.030 1_456 S
Mg8 O11 1.990 1_455 S
Mg8 O12 2.117 . S
O9 Mg3 2.099 1_556 S
O9 Mg8 2.180 . S
O9 C18 1.279 . S
O10 Mg8 2.030 1_654 S
O10 C16 1.248 . S
O11 Mg8 1.990 1_655 S
O11 C17 1.253 . S
O12 Mg8 2.117 . S
O12 C18 1.250 . S
C13 O19 1.248 . S
C13 O20 1.264 . S
C14 O0 1.253 . S
C14 O2 1.260 . S
C15 O4 1.279 . S
C15 O5 1.250 . S
C16 O6 1.264 . S
C16 O10 1.248 . S
C17 O7 1.260 . S
C17 O11 1.253 . S
C18 O9 1.279 . S
C18 O12 1.250 . S
O19 Mg1 2.030 . S
O19 C13 1.248 . S
O20 Mg3 2.079 1_565 S
O20 C13 1.264 . S
O21 Mg22 1.990 . S
O21 C35 1.253 . S
Mg22 O21 1.990 . S
Mg22 O25 2.180 . S
Mg22 O26 2.117 . S
Mg22 O40 2.030 . S
O23 Mg24 2.072 . S
O23 C35 1.260 . S
Mg24 O23 2.072 . S
Mg24 O25 2.099 . S
Mg24 O27 2.079 . S
Mg24 O28 2.072 . S
Mg24 O30 2.099 . S
Mg24 O41 2.079 . S
O25 Mg22 2.180 . S
O25 Mg24 2.099 . S
O25 C36 1.279 . S
O26 Mg22 2.117 . S
O26 C36 1.250 . S
O27 Mg24 2.079 . S
O27 C37 1.264 . S
O28 Mg24 2.072 . S
O28 C38 1.260 . S
Mg29 O30 2.180 . S
Mg29 O31 2.030 . S
Mg29 O32 1.990 . S
Mg29 O33 2.117 . S
O30 Mg24 2.099 . S
O30 Mg29 2.180 . S
O30 C39 1.279 . S
O31 Mg29 2.030 . S
O31 C37 1.248 . S
O32 Mg29 1.990 . S
O32 C38 1.253 . S
O33 Mg29 2.117 . S
O33 C39 1.250 . S
C34 O40 1.248 . S
C34 O41 1.264 . S
C35 O21 1.253 . S
C35 O23 1.260 . S
C36 O25 1.279 . S
C36 O26 1.250 . S
C37 O27 1.264 . S
C37 O31 1.248 . S
C38 O28 1.260 . S
C38 O32 1.253 . S
C39 O30 1.279 . S
C39 O33 1.250 . S
O40 Mg22 2.030 . S
O40 C34 1.248 . S
O41 Mg24 2.079 . S
O41 C34 1.264 . S
O42 Mg43 1.990 . S
O42 C56 1.253 . S
Mg43 O42 1.990 . S
Mg43 O46 2.180 1_545 S
Mg43 O47 2.117 1_545 S
Mg43 O61 2.030 . S
O44 Mg45 2.072 . S
O44 C56 1.260 . S
Mg45 O44 2.072 . S
Mg45 O46 2.099 1_545 S
Mg45 O48 2.079 1_545 S
Mg45 O49 2.072 1_545 S
Mg45 O51 2.099 . S
Mg45 O62 2.079 . S
O46 Mg43 2.180 1_565 S
O46 Mg45 2.099 1_565 S
O46 C57 1.279 . S
O47 Mg43 2.117 1_565 S
O47 C57 1.250 . S
O48 Mg45 2.079 1_565 S
O48 C58 1.264 . S
O49 Mg45 2.072 1_565 S
O49 C59 1.260 . S
Mg50 O51 2.180 . S
Mg50 O52 2.030 1_545 S
Mg50 O53 1.990 1_545 S
Mg50 O54 2.117 . S
O51 Mg45 2.099 . S
O51 Mg50 2.180 . S
O51 C60 1.279 . S
O52 Mg50 2.030 1_565 S
O52 C58 1.248 . S
O53 Mg50 1.990 1_565 S
O53 C59 1.253 . S
O54 Mg50 2.117 . S
O54 C60 1.250 . S
C55 O61 1.248 . S
C55 O62 1.264 . S
C56 O42 1.253 . S
C56 O44 1.260 . S
C57 O46 1.279 . S
C57 O47 1.250 . S
C58 O48 1.264 . S
C58 O52 1.248 . S
C59 O49 1.260 . S
C59 O53 1.253 . S
C60 O51 1.279 . S
C60 O54 1.250 . S
O61 Mg43 2.030 . S
O61 C55 1.248 . S
O62 Mg45 2.079 . S
O62 C55 1.264 . S
O63 Mg64 1.990 . S
O63 C77 1.253 . S
Mg64 O63 1.990 . S
Mg64 O67 2.180 . S
Mg64 O68 2.117 . S
Mg64 O82 2.030 . S
O65 Mg66 2.072 . S
O65 C77 1.260 . S
Mg66 O65 2.072 . S
Mg66 O67 2.099 . S
Mg66 O69 2.079 . S
Mg66 O70 2.072 . S
Mg66 O72 2.099 . S
Mg66 O83 2.079 . S
O67 Mg64 2.180 . S
O67 Mg66 2.099 . S
O67 C78 1.279 . S
O68 Mg64 2.117 . S
O68 C78 1.250 . S
O69 Mg66 2.079 . S
O69 C79 1.264 . S
O70 Mg66 2.072 . S
O70 C80 1.260 . S
Mg71 O72 2.180 . S
Mg71 O73 2.030 . S
Mg71 O74 1.990 . S
Mg71 O75 2.117 . S
O72 Mg66 2.099 . S
O72 Mg71 2.180 . S
O72 C81 1.279 . S
O73 Mg71 2.030 . S
O73 C79 1.248 . S
O74 Mg71 1.990 . S
O74 C80 1.253 . S
O75 Mg71 2.117 . S
O75 C81 1.250 . S
C76 O82 1.248 . S
C76 O83 1.264 . S
C77 O63 1.253 . S
C77 O65 1.260 . S
C78 O67 1.279 . S
C78 O68 1.250 . S
C79 O69 1.264 . S
C79 O73 1.248 . S
C80 O70 1.260 . S
C80 O74 1.253 . S
C81 O72 1.279 . S
C81 O75 1.250 . S
O82 Mg64 2.030 . S
O82 C76 1.248 . S
O83 Mg66 2.079 . S
O83 C76 1.264 . S
O84 Mg85 1.990 1_545 S
O84 C98 1.253 . S
Mg85 O84 1.990 1_565 S
Mg85 O88 2.180 . S
Mg85 O89 2.117 . S
Mg85 O103 2.030 . S
O86 Mg87 2.072 1_645 S
O86 C98 1.260 . S
Mg87 O86 2.072 1_465 S
Mg87 O88 2.099 1_455 S
Mg87 O90 2.079 . S
Mg87 O91 2.072 1_565 S
Mg87 O93 2.099 1_565 S
Mg87 O104 2.079 1_455 S
O88 Mg85 2.180 . S
O88 Mg87 2.099 1_655 S
O88 C99 1.279 . S
O89 Mg85 2.117 . S
O89 C99 1.250 . S
O90 Mg87 2.079 . S
O90 C100 1.264 . S
O91 Mg87 2.072 1_545 S
O91 C101 1.260 . S
Mg92 O93 2.180 . S
Mg92 O94 2.030 1_545 S
Mg92 O95 1.990 . S
Mg92 O96 2.117 . S
O93 Mg87 2.099 1_545 S
O93 Mg92 2.180 . S
O93 C102 1.279 . S
O94 Mg92 2.030 1_565 S
O94 C100 1.248 . S
O95 Mg92 1.990 . S
O95 C101 1.253 . S
O96 Mg92 2.117 . S
O96 C102 1.250 . S
C97 O103 1.248 . S
C97 O104 1.264 . S
C98 O84 1.253 . S
C98 O86 1.260 . S
C99 O88 1.279 . S
C99 O89 1.250 . S
C100 O90 1.264 . S
C100 O94 1.248 . S
C101 O91 1.260 . S
C101 O95 1.253 . S
C102 O93 1.279 . S
C102 O96 1.250 . S
O103 Mg85 2.030 . S
O103 C97 1.248 . S
O104 Mg87 2.079 1_655 S
O104 C97 1.264 . S
O105 Mg106 1.990 . S
O105 C119 1.253 . S
Mg106 O105 1.990 . S
Mg106 O109 2.180 . S
Mg106 O110 2.117 . S
Mg106 O124 2.030 . S
O107 Mg108 2.072 . S
O107 C119 1.260 . S
Mg108 O107 2.072 . S
Mg108 O109 2.099 . S
Mg108 O111 2.079 . S
Mg108 O112 2.072 . S
Mg108 O114 2.099 . S
Mg108 O125 2.079 . S
O109 Mg106 2.180 . S
O109 Mg108 2.099 . S
O109 C120 1.279 . S
O110 Mg106 2.117 . S
O110 C120 1.250 . S
O111 Mg108 2.079 . S
O111 C121 1.264 . S
O112 Mg108 2.072 . S
O112 C122 1.260 . S
Mg113 O114 2.180 . S
Mg113 O115 2.030 . S
Mg113 O116 1.990 . S
Mg113 O117 2.117 . S
O114 Mg108 2.099 . S
O114 Mg113 2.180 . S
O114 C123 1.279 . S
O115 Mg113 2.030 . S
O115 C121 1.248 . S
O116 Mg113 1.990 . S
O116 C122 1.253 . S
O117 Mg113 2.117 . S
O117 C123 1.250 . S
C118 O124 1.248 . S
C118 O125 1.264 . S
C119 O105 1.253 . S
C119 O107 1.260 . S
C120 O109 1.279 . S
C120 O110 1.250 . S
C121 O111 1.264 . S
C121 O115 1.248 . S
C122 O112 1.260 . S
C122 O116 1.253 . S
C123 O114 1.279 . S
C123 O117 1.250 . S
O124 Mg106 2.030 . S
O124 C118 1.248 . S
O125 Mg108 2.079 . S
O125 C118 1.264 . S
O126 Mg127 1.986 1_566 S
O126 C140 1.253 . S
Mg127 O126 1.986 1_544 S
Mg127 O130 2.188 . S
Mg127 O131 2.132 . S
Mg127 O145 2.017 1_554 S
O128 Mg129 2.072 1_566 S
O128 C140 1.260 . S
Mg129 O128 2.072 1_544 S
Mg129 O130 2.099 . S
Mg129 O132 2.079 . S
Mg129 O133 2.072 1_545 S
Mg129 O135 2.099 1_544 S
Mg129 O146 2.079 1_554 S
O130 Mg127 2.188 . S
O130 Mg129 2.099 . S
O130 C141 1.279 . S
O131 Mg127 2.132 . S
O131 C141 1.250 . S
O132 Mg129 2.079 . S
O132 C142 1.264 . S
O133 Mg129 2.072 1_565 S
O133 C143 1.260 . S
Mg134 O135 2.180 1_554 S
Mg134 O136 2.030 1_565 S
Mg134 O137 1.990 . S
Mg134 O138 2.117 1_554 S
O135 Mg129 2.099 1_566 S
O135 Mg134 2.180 1_556 S
O135 C144 1.279 . S
O136 Mg134 2.030 1_545 S
O136 C142 1.248 . S
O137 Mg134 1.990 . S
O137 C143 1.253 . S
O138 Mg134 2.117 1_556 S
O138 C144 1.250 . S
C139 O145 1.248 . S
C139 O146 1.264 . S
C140 O126 1.253 . S
C140 O128 1.260 . S
C141 O130 1.279 . S
C141 O131 1.250 . S
C142 O132 1.264 . S
C142 O136 1.248 . S
C143 O133 1.260 . S
C143 O137 1.253 . S
C144 O135 1.279 . S
C144 O138 1.250 . S
O145 Mg127 2.017 1_556 S
O145 C139 1.248 . S
O146 Mg129 2.079 1_556 S
O146 C139 1.264 . S
O147 Mg148 1.990 . S
O147 C161 1.253 . S
Mg148 O147 1.990 . S
Mg148 O151 2.180 . S
Mg148 O152 2.117 . S
Mg148 O166 2.030 . S
O149 Mg150 2.072 . S
O149 C161 1.260 . S
Mg150 O149 2.072 . S
Mg150 O151 2.099 . S
Mg150 O153 2.079 . S
Mg150 O154 2.072 . S
Mg150 O156 2.099 . S
Mg150 O167 2.079 . S
O151 Mg148 2.180 . S
O151 Mg150 2.099 . S
O151 C162 1.279 . S
O152 Mg148 2.117 . S
O152 C162 1.250 . S
O153 Mg150 2.079 . S
O153 C163 1.264 . S
O154 Mg150 2.072 . S
O154 C164 1.260 . S
Mg155 O156 2.180 . S
Mg155 O157 2.030 . S
Mg155 O158 1.990 . S
Mg155 O159 2.117 . S
O156 Mg150 2.099 . S
O156 Mg155 2.180 . S
O156 C165 1.279 . S
O157 Mg155 2.030 . S
O157 C163 1.248 . S
O158 Mg155 1.990 . S
O158 C164 1.253 . S
O159 Mg155 2.117 . S
O159 C165 1.250 . S
C160 O166 1.248 . S
C160 O167 1.264 . S
C161 O147 1.253 . S
C161 O149 1.260 . S
C162 O151 1.279 . S
C162 O152 1.250 . S
C163 O153 1.264 . S
C163 O157 1.248 . S
C164 O154 1.260 . S
C164 O158 1.253 . S
C165 O156 1.279 . S
C165 O159 1.250 . S
O166 Mg148 2.030 . S
O166 C160 1.248 . S
O167 Mg150 2.079 . S
O167 C160 1.264 . S
O168 Mg169 1.990 . S
O168 C182 1.253 . S
Mg169 O168 1.990 . S
Mg169 O172 2.180 1_556 S
Mg169 O173 2.117 1_556 S
Mg169 O187 2.030 . S
O170 Mg171 2.072 1_556 S
O170 C182 1.260 . S
Mg171 O170 2.072 1_554 S
Mg171 O172 2.099 . S
Mg171 O174 2.079 . S
Mg171 O175 2.072 . S
Mg171 O177 2.099 1_554 S
Mg171 O188 2.079 1_554 S
O172 Mg169 2.180 1_554 S
O172 Mg171 2.099 . S
O172 C183 1.279 . S
O173 Mg169 2.117 1_554 S
O173 C183 1.250 . S
O174 Mg171 2.079 . S
O174 C184 1.264 . S
O175 Mg171 2.072 . S
O175 C185 1.260 . S
Mg176 O177 2.180 1_554 S
Mg176 O178 2.030 . S
Mg176 O179 1.990 . S
Mg176 O180 2.117 1_554 S
O177 Mg171 2.099 1_556 S
O177 Mg176 2.180 1_556 S
O177 C186 1.279 . S
O178 Mg176 2.030 . S
O178 C184 1.248 . S
O179 Mg176 1.990 . S
O179 C185 1.253 . S
O180 Mg176 2.117 1_556 S
O180 C186 1.250 . S
C181 O187 1.248 . S
C181 O188 1.264 . S
C182 O168 1.253 . S
C182 O170 1.260 . S
C183 O172 1.279 . S
C183 O173 1.250 . S
C184 O174 1.264 . S
C184 O178 1.248 . S
C185 O175 1.260 . S
C185 O179 1.253 . S
C186 O177 1.279 . S
C186 O180 1.250 . S
O187 Mg169 2.030 . S
O187 C181 1.248 . S
O188 Mg171 2.079 1_556 S
O188 C181 1.264 . S
O189 Mg190 1.990 . S
O189 C203 1.253 . S
Mg190 O189 1.990 . S
Mg190 O193 2.180 . S
Mg190 O194 2.117 . S
Mg190 O208 2.030 . S
O191 Mg192 2.072 . S
O191 C203 1.260 . S
Mg192 O191 2.072 . S
Mg192 O193 2.099 . S
Mg192 O195 2.079 . S
Mg192 O196 2.072 . S
Mg192 O198 2.099 . S
Mg192 O209 2.079 . S
O193 Mg190 2.180 . S
O193 Mg192 2.099 . S
O193 C204 1.279 . S
O194 Mg190 2.117 . S
O194 C204 1.250 . S
O195 Mg192 2.079 . S
O195 C205 1.264 . S
O196 Mg192 2.072 . S
O196 C206 1.260 . S
Mg197 O198 2.180 . S
Mg197 O199 2.030 . S
Mg197 O200 1.990 . S
Mg197 O201 2.117 . S
O198 Mg192 2.099 . S
O198 Mg197 2.180 . S
O198 C207 1.279 . S
O199 Mg197 2.030 . S
O199 C205 1.248 . S
O200 Mg197 1.990 . S
O200 C206 1.253 . S
O201 Mg197 2.117 . S
O201 C207 1.250 . S
C202 O208 1.248 . S
C202 O209 1.264 . S
C203 O189 1.253 . S
C203 O191 1.260 . S
C204 O193 1.279 . S
C204 O194 1.250 . S
C205 O195 1.264 . S
C205 O199 1.248 . S
C206 O196 1.260 . S
C206 O200 1.253 . S
C207 O198 1.279 . S
C207 O201 1.250 . S
O208 Mg190 2.030 . S
O208 C202 1.248 . S
O209 Mg192 2.079 . S
O209 C202 1.264 . S
O210 Mg211 1.990 . S
O210 C224 1.253 . S
Mg211 O210 1.990 . S
Mg211 O214 2.180 . S
Mg211 O215 2.117 . S
Mg211 O229 2.030 . S
O212 Mg213 2.072 . S
O212 C224 1.260 . S
Mg213 O212 2.072 . S
Mg213 O214 2.099 . S
Mg213 O216 2.079 1_455 S
Mg213 O217 2.072 1_455 S
Mg213 O219 2.099 1_455 S
Mg213 O230 2.079 . S
O214 Mg211 2.180 . S
O214 Mg213 2.099 . S
O214 C225 1.279 . S
O215 Mg211 2.117 . S
O215 C225 1.250 . S
O216 Mg213 2.079 1_655 S
O216 C226 1.264 . S
O217 Mg213 2.072 1_655 S
O217 C227 1.260 . S
Mg218 O219 2.180 . S
Mg218 O220 2.030 . S
Mg218 O221 1.990 . S
Mg218 O222 2.117 . S
O219 Mg213 2.099 1_655 S
O219 Mg218 2.180 . S
O219 C228 1.279 . S
O220 Mg218 2.030 . S
O220 C226 1.248 . S
O221 Mg218 1.990 . S
O221 C227 1.253 . S
O222 Mg218 2.117 . S
O222 C228 1.250 . S
C223 O229 1.248 . S
C223 O230 1.264 . S
C224 O210 1.253 . S
C224 O212 1.260 . S
C225 O214 1.279 . S
C225 O215 1.250 . S
C226 O216 1.264 . S
C226 O220 1.248 . S
C227 O217 1.260 . S
C227 O221 1.253 . S
C228 O219 1.279 . S
C228 O222 1.250 . S
O229 Mg211 2.030 . S
O229 C223 1.248 . S
O230 Mg213 2.079 . S
O230 C223 1.264 . S
O231 Mg232 1.990 . S
O231 C245 1.253 . S
Mg232 O231 1.990 . S
Mg232 O235 2.180 . S
Mg232 O236 2.117 . S
Mg232 O250 2.030 . S
O233 Mg234 2.072 . S
O233 C245 1.260 . S
Mg234 O233 2.072 . S
Mg234 O235 2.099 . S
Mg234 O237 2.079 . S
Mg234 O238 2.072 . S
Mg234 O240 2.099 . S
Mg234 O251 2.079 . S
O235 Mg232 2.180 . S
O235 Mg234 2.099 . S
O235 C246 1.279 . S
O236 Mg232 2.117 . S
O236 C246 1.250 . S
O237 Mg234 2.079 . S
O237 C247 1.264 . S
O238 Mg234 2.072 . S
O238 C248 1.260 . S
Mg239 O240 2.180 . S
Mg239 O241 2.030 . S
Mg239 O242 1.990 . S
Mg239 O243 2.117 . S
O240 Mg234 2.099 . S
O240 Mg239 2.180 . S
O240 C249 1.279 . S
O241 Mg239 2.030 . S
O241 C247 1.248 . S
O242 Mg239 1.990 . S
O242 C248 1.253 . S
O243 Mg239 2.117 . S
O243 C249 1.250 . S
C244 O250 1.248 . S
C244 O251 1.264 . S
C245 O231 1.253 . S
C245 O233 1.260 . S
C246 O235 1.279 . S
C246 O236 1.250 . S
C247 O237 1.264 . S
C247 O241 1.248 . S
C248 O238 1.260 . S
C248 O242 1.253 . S
C249 O240 1.279 . S
C249 O243 1.250 . S
O250 Mg232 2.030 . S
O250 C244 1.248 . S
O251 Mg234 2.079 . S
O251 C244 1.264 . S
O252 Mg253 1.990 . S
O252 C266 1.253 . S
Mg253 O252 1.990 . S
Mg253 O256 2.180 . S
Mg253 O257 2.117 . S
Mg253 O271 2.030 . S
O254 Mg255 2.072 . S
O254 C266 1.260 . S
Mg255 O254 2.072 . S
Mg255 O256 2.099 . S
Mg255 O258 2.079 . S
Mg255 O259 2.072 . S
Mg255 O261 2.099 . S
Mg255 O272 2.079 . S
O256 Mg253 2.180 . S
O256 Mg255 2.099 . S
O256 C267 1.279 . S
O257 Mg253 2.117 . S
O257 C267 1.250 . S
O258 Mg255 2.079 . S
O258 C268 1.264 . S
O259 Mg255 2.072 . S
O259 C269 1.260 . S
Mg260 O261 2.180 . S
Mg260 O262 2.030 . S
Mg260 O263 1.990 . S
Mg260 O264 2.117 . S
O261 Mg255 2.099 . S
O261 Mg260 2.180 . S
O261 C270 1.279 . S
O262 Mg260 2.030 . S
O262 C268 1.248 . S
O263 Mg260 1.990 . S
O263 C269 1.253 . S
O264 Mg260 2.117 . S
O264 C270 1.250 . S
C265 O271 1.248 . S
C265 O272 1.264 . S
C266 O252 1.253 . S
C266 O254 1.260 . S
C267 O256 1.279 . S
C267 O257 1.250 . S
C268 O258 1.264 . S
C268 O262 1.248 . S
C269 O259 1.260 . S
C269 O263 1.253 . S
C270 O261 1.279 . S
C270 O264 1.250 . S
O271 Mg253 2.030 . S
O271 C265 1.248 . S
O272 Mg255 2.079 . S
O272 C265 1.264 . S
O273 Mg274 1.990 . S
O273 C287 1.253 . S
Mg274 O273 1.990 . S
Mg274 O277 2.180 . S
Mg274 O278 2.117 1_655 S
Mg274 O292 2.030 . S
O275 Mg276 2.072 . S
O275 C287 1.260 . S
Mg276 O275 2.072 . S
Mg276 O277 2.099 . S
Mg276 O279 2.079 . S
Mg276 O280 2.072 . S
Mg276 O282 2.099 . S
Mg276 O293 2.079 . S
O277 Mg274 2.180 . S
O277 Mg276 2.099 . S
O277 C288 1.279 . S
O278 Mg274 2.117 1_455 S
O278 C288 1.250 1_455 S
O279 Mg276 2.079 . S
O279 C289 1.264 . S
O280 Mg276 2.072 . S
O280 C290 1.260 . S
Mg281 O282 2.180 . S
Mg281 O283 2.030 . S
Mg281 O284 1.990 . S
Mg281 O285 2.117 . S
O282 Mg276 2.099 . S
O282 Mg281 2.180 . S
O282 C291 1.279 . S
O283 Mg281 2.030 . S
O283 C289 1.248 . S
O284 Mg281 1.990 . S
O284 C290 1.253 . S
O285 Mg281 2.117 . S
O285 C291 1.250 . S
C286 O292 1.248 . S
C286 O293 1.264 . S
C287 O273 1.253 . S
C287 O275 1.260 . S
C288 O277 1.279 . S
C288 O278 1.250 1_655 S
C289 O279 1.264 . S
C289 O283 1.248 . S
C290 O280 1.260 . S
C290 O284 1.253 . S
C291 O282 1.279 . S
C291 O285 1.250 . S
O292 Mg274 2.030 . S
O292 C286 1.248 . S
O293 Mg276 2.079 . S
O293 C286 1.264 . S
O294 Mg295 1.990 . S
O294 C308 1.253 . S
Mg295 O294 1.990 . S
Mg295 O298 2.180 . S
Mg295 O299 2.117 . S
Mg295 O313 2.030 . S
O296 Mg297 2.072 . S
O296 C308 1.260 . S
Mg297 O296 2.072 . S
Mg297 O298 2.099 . S
Mg297 O300 2.079 . S
Mg297 O301 2.072 . S
Mg297 O303 2.099 . S
Mg297 O314 2.079 . S
O298 Mg295 2.180 . S
O298 Mg297 2.099 . S
O298 C309 1.279 . S
O299 Mg295 2.117 . S
O299 C309 1.250 . S
O300 Mg297 2.079 . S
O300 C310 1.264 . S
O301 Mg297 2.072 . S
O301 C311 1.260 . S
Mg302 O303 2.180 . S
Mg302 O304 2.030 . S
Mg302 O305 1.990 . S
Mg302 O306 2.117 . S
O303 Mg297 2.099 . S
O303 Mg302 2.180 . S
O303 C312 1.279 . S
O304 Mg302 2.030 . S
O304 C310 1.248 . S
O305 Mg302 1.990 . S
O305 C311 1.253 . S
O306 Mg302 2.117 . S
O306 C312 1.250 . S
C307 O313 1.248 . S
C307 O314 1.264 . S
C308 O294 1.253 . S
C308 O296 1.260 . S
C309 O298 1.279 . S
C309 O299 1.250 . S
C310 O300 1.264 . S
C310 O304 1.248 . S
C311 O301 1.260 . S
C311 O305 1.253 . S
C312 O303 1.279 . S
C312 O306 1.250 . S
O313 Mg295 2.030 . S
O313 C307 1.248 . S
O314 Mg297 2.079 . S
O314 C307 1.264 . S
O315 Mg316 1.990 1_554 S
O315 C329 1.253 . S
Mg316 O315 1.990 1_556 S
Mg316 O319 2.180 . S
Mg316 O320 2.117 . S
Mg316 O334 2.030 . S
O317 Mg318 2.072 1_654 S
O317 C329 1.260 . S
Mg318 O317 2.072 1_456 S
Mg318 O319 2.099 1_455 S
Mg318 O321 2.079 . S
Mg318 O322 2.072 1_556 S
Mg318 O324 2.099 1_556 S
Mg318 O335 2.079 1_455 S
O319 Mg316 2.180 . S
O319 Mg318 2.099 1_655 S
O319 C330 1.279 . S
O320 Mg316 2.117 . S
O320 C330 1.250 . S
O321 Mg318 2.079 . S
O321 C331 1.264 . S
O322 Mg318 2.072 1_554 S
O322 C332 1.260 . S
Mg323 O324 2.180 . S
Mg323 O325 2.030 1_554 S
Mg323 O326 1.990 . S
Mg323 O327 2.117 . S
O324 Mg318 2.099 1_554 S
O324 Mg323 2.180 . S
O324 C333 1.279 . S
O325 Mg323 2.030 1_556 S
O325 C331 1.248 . S
O326 Mg323 1.990 . S
O326 C332 1.253 . S
O327 Mg323 2.117 . S
O327 C333 1.250 . S
C328 O334 1.248 . S
C328 O335 1.264 . S
C329 O315 1.253 . S
C329 O317 1.260 . S
C330 O319 1.279 . S
C330 O320 1.250 . S
C331 O321 1.264 . S
C331 O325 1.248 . S
C332 O322 1.260 . S
C332 O326 1.253 . S
C333 O324 1.279 . S
C333 O327 1.250 . S
O334 Mg316 2.030 . S
O334 C328 1.248 . S
O335 Mg318 2.079 1_655 S
O335 C328 1.264 . S
C80 C18 0.660 . S
C13 C35 1.718 . S
C57 C38 1.262 . S
C77 C56 2.087 . S
C100 C118 1.177 . S
C123 C144 1.549 . S
C142 C160 1.298 . S
C102 C165 1.493 . S
C205 C16 1.259 . S
C223 C36 1.206 . S
C59 C289 1.267 . S
C181 C78 1.505 . S
C246 C97 1.056 . S
C311 C121 1.326 . S
C139 C267 1.225 . S
C332 C163 1.162 . S
C186 C291 1.489 . S
C202 C184 1.314 . S
C228 C207 1.459 . S
C309 C248 1.484 . S
C269 C330 1.064 . S
C244 C15 1.070 . S
C268 C17 1.697 . S
C265 C60 0.613 . S
C58 C247 2.095 . S
C206 C98 1.354 . S
C204 C141 1.955 . S
C290 C140 1.633 . S
C99 C288 1.808 . S
C119 C14 1.544 . S
C227 C270 0.746 . S
C55 C161 1.306 . S
C185 C249 0.863 . S
C81 C101 0.577 . S
C203 C307 1.355 . S
C143 C39 0.705 . S
C328 C287 1.247 . S
C183 C162 1.850 . S
C182 C122 1.520 . S
C225 C120 1.797 . S
C76 C312 0.610 . S
C34 C333 0.466 . S
C266 C308 2.217 . S
C245 C329 2.140 . S
C226 C286 1.242 . S
C310 C37 2.057 . S
C79 C331 2.136 . S
C164 C224 1.562 . S
