# Generated by pormake.
# Topology lcy-e, (6)-cn, num edge types: 1
# Building blocks:
#     Node 0, Type 0, BuildingBlock: HISSIN_clean_sbu_0, # of connection points: 6
#     Node 1, Type 0, BuildingBlock: HISSIN_clean_sbu_0, # of connection points: 6
#     Node 2, Type 0, BuildingBlock: HISSIN_clean_sbu_0, # of connection points: 6
#     Node 3, Type 0, BuildingBlock: HISSIN_clean_sbu_0, # of connection points: 6
#     Node 4, Type 0, BuildingBlock: HISSIN_clean_sbu_0, # of connection points: 6
#     Node 5, Type 0, BuildingBlock: HISSIN_clean_sbu_0, # of connection points: 6
#     Node 6, Type 0, BuildingBlock: HISSIN_clean_sbu_0, # of connection points: 6
#     Node 7, Type 0, BuildingBlock: HISSIN_clean_sbu_0, # of connection points: 6
#     Node 8, Type 0, BuildingBlock: HISSIN_clean_sbu_0, # of connection points: 6
#     Node 9, Type 0, BuildingBlock: HISSIN_clean_sbu_0, # of connection points: 6
#     Node 10, Type 0, BuildingBlock: HISSIN_clean_sbu_0, # of connection points: 6
#     Node 11, Type 0, BuildingBlock: HISSIN_clean_sbu_0, # of connection points: 6
#     Edge 12, Type (0, 0), BuildingBlock: CIFDUS_clean_linker_0, # of connection points: 2
#     Edge 13, Type (0, 0), BuildingBlock: CIFDUS_clean_linker_0, # of connection points: 2
#     Edge 14, Type (0, 0), BuildingBlock: CIFDUS_clean_linker_0, # of connection points: 2
#     Edge 15, Type (0, 0), BuildingBlock: CIFDUS_clean_linker_0, # of connection points: 2
#     Edge 16, Type (0, 0), BuildingBlock: CIFDUS_clean_linker_0, # of connection points: 2
#     Edge 17, Type (0, 0), BuildingBlock: CIFDUS_clean_linker_0, # of connection points: 2
#     Edge 18, Type (0, 0), BuildingBlock: CIFDUS_clean_linker_0, # of connection points: 2
#     Edge 19, Type (0, 0), BuildingBlock: CIFDUS_clean_linker_0, # of connection points: 2
#     Edge 20, Type (0, 0), BuildingBlock: CIFDUS_clean_linker_0, # of connection points: 2
#     Edge 21, Type (0, 0), BuildingBlock: CIFDUS_clean_linker_0, # of connection points: 2
#     Edge 22, Type (0, 0), BuildingBlock: CIFDUS_clean_linker_0, # of connection points: 2
#     Edge 23, Type (0, 0), BuildingBlock: CIFDUS_clean_linker_0, # of connection points: 2
#     Edge 24, Type (0, 0), BuildingBlock: CIFDUS_clean_linker_0, # of connection points: 2
#     Edge 25, Type (0, 0), BuildingBlock: CIFDUS_clean_linker_0, # of connection points: 2
#     Edge 26, Type (0, 0), BuildingBlock: CIFDUS_clean_linker_0, # of connection points: 2
#     Edge 27, Type (0, 0), BuildingBlock: CIFDUS_clean_linker_0, # of connection points: 2
#     Edge 28, Type (0, 0), BuildingBlock: CIFDUS_clean_linker_0, # of connection points: 2
#     Edge 29, Type (0, 0), BuildingBlock: CIFDUS_clean_linker_0, # of connection points: 2
#     Edge 30, Type (0, 0), BuildingBlock: CIFDUS_clean_linker_0, # of connection points: 2
#     Edge 31, Type (0, 0), BuildingBlock: CIFDUS_clean_linker_0, # of connection points: 2
#     Edge 32, Type (0, 0), BuildingBlock: CIFDUS_clean_linker_0, # of connection points: 2
#     Edge 33, Type (0, 0), BuildingBlock: CIFDUS_clean_linker_0, # of connection points: 2
#     Edge 34, Type (0, 0), BuildingBlock: CIFDUS_clean_linker_0, # of connection points: 2
#     Edge 35, Type (0, 0), BuildingBlock: CIFDUS_clean_linker_0, # of connection points: 2
#     Edge 36, Type (0, 0), BuildingBlock: CIFDUS_clean_linker_0, # of connection points: 2
#     Edge 37, Type (0, 0), BuildingBlock: CIFDUS_clean_linker_0, # of connection points: 2
#     Edge 38, Type (0, 0), BuildingBlock: CIFDUS_clean_linker_0, # of connection points: 2
#     Edge 39, Type (0, 0), BuildingBlock: CIFDUS_clean_linker_0, # of connection points: 2
#     Edge 40, Type (0, 0), BuildingBlock: CIFDUS_clean_linker_0, # of connection points: 2
#     Edge 41, Type (0, 0), BuildingBlock: CIFDUS_clean_linker_0, # of connection points: 2
#     Edge 42, Type (0, 0), BuildingBlock: CIFDUS_clean_linker_0, # of connection points: 2
#     Edge 43, Type (0, 0), BuildingBlock: CIFDUS_clean_linker_0, # of connection points: 2
#     Edge 44, Type (0, 0), BuildingBlock: CIFDUS_clean_linker_0, # of connection points: 2
#     Edge 45, Type (0, 0), BuildingBlock: CIFDUS_clean_linker_0, # of connection points: 2
#     Edge 46, Type (0, 0), BuildingBlock: CIFDUS_clean_linker_0, # of connection points: 2
#     Edge 47, Type (0, 0), BuildingBlock: CIFDUS_clean_linker_0, # of connection points: 2
# Relax obj value: 0.190
# Max RMSD: 0.289
# Mean RMSD: 0.277
data_MOF--net-lcy-e--node1-HISSIN_clean_sbu_0--edge1-CIFDUS_clean_linker_0
_symmetry_space_group_name_H-M    P1
_symmetry_Int_Tables_number       1
_symmetry_cell_setting            triclinic
loop_
_symmetry_equiv_pos_as_xyz
'x, y, z'
_cell_length_a     39.418037
_cell_length_b     41.297579
_cell_length_c     40.394902
_cell_angle_alpha  89.790965
_cell_angle_beta   90.338216
_cell_angle_gamma 88.899859
loop_
_atom_site_label
_atom_site_type_symbol
_atom_site_fract_x
_atom_site_fract_y
_atom_site_fract_z
_atom_type_partial_charge
Eu0 Eu 0.12294 0.22689 0.52953 0.0
Eu1 Eu 0.09485 0.2816 0.47567 0.0
C2 C 0.0656 0.27804 0.55111 0.0
C3 C 0.12688 0.14892 0.58094 0.0
C4 C 0.0988 0.13505 0.5652 0.0
C5 C 0.12631 0.10593 0.62213 0.0
C6 C 0.08461 0.10671 0.57785 0.0
C7 C 0.14055 0.1341 0.60939 0.0
C8 C 0.09806 0.09194 0.60664 0.0
C9 C 0.14224 0.1787 0.56802 0.0
O10 O 0.14084 0.30388 0.49835 0.0
O11 O 0.14563 0.27438 0.5468 0.0
C12 C 0.15148 0.30064 0.52906 0.0
O13 O 0.16569 0.23565 0.49466 0.0
O14 O 0.08864 0.33104 0.4564 0.0
O15 O 0.07113 0.2906 0.42751 0.0
O16 O 0.13208 0.24733 0.45015 0.0
C17 C 0.16124 0.23707 0.4626 0.0
O18 O 0.08637 0.203 0.49379 0.0
O19 O 0.05234 0.24678 0.48201 0.0
O20 O 0.07141 0.29648 0.52499 0.0
O21 O 0.14769 0.17964 0.53622 0.0
O22 O 0.12991 0.20609 0.5791 0.0
O23 O 0.07623 0.24779 0.55297 0.0
C24 C 0.09493 0.33439 0.39823 0.0
C25 C 0.11976 0.3159 0.38154 0.0
C26 C 0.10358 0.37848 0.35926 0.0
C27 C 0.13618 0.32853 0.35378 0.0
C28 C 0.08701 0.36575 0.38684 0.0
C29 C 0.12841 0.36006 0.34238 0.0
C30 C 0.0775 0.32148 0.42766 0.0
C31 C 0.05727 0.21535 0.48312 0.0
H32 H 0.08776 0.14621 0.54323 0.0
H33 H 0.13759 0.09497 0.64408 0.0
H34 H 0.0627 0.09675 0.56552 0.0
H35 H 0.16227 0.14434 0.62181 0.0
H36 H 0.12657 0.29171 0.39003 0.0
H37 H 0.0967 0.4027 0.35094 0.0
H38 H 0.15541 0.31384 0.34161 0.0
H39 H 0.06799 0.38044 0.39933 0.0
Eu40 Eu 0.98209 0.88185 0.7212 0.0
Eu41 Eu 0.03512 0.90192 0.78037 0.0
C42 C 0.95772 0.93195 0.77564 0.0
C43 C 0.92508 0.88447 0.64414 0.0
C44 C 0.90559 0.91264 0.65027 0.0
C45 C 0.90913 0.88787 0.58597 0.0
C46 C 0.8875 0.92791 0.62455 0.0
C47 C 0.92698 0.87243 0.61176 0.0
C48 C 0.88883 0.91551 0.5922 0.0
C49 C 0.94318 0.86712 0.67112 0.0
O50 O 0.01362 0.85551 0.79792 0.0
O51 O 0.96354 0.85745 0.76846 0.0
C52 C 0.98183 0.84761 0.79424 0.0
O53 O 0.01737 0.8395 0.72835 0.0
O54 O 0.0497 0.90786 0.83216 0.0
O55 O 0.08483 0.92053 0.7933 0.0
O56 O 0.06324 0.86795 0.74499 0.0
C57 C 0.05012 0.84157 0.73249 0.0
O58 O 0.01733 0.92025 0.7004 0.0
O59 O 0.02791 0.94596 0.74899 0.0
O60 O 0.98336 0.92296 0.79503 0.0
O61 O 0.97626 0.86664 0.66972 0.0
O62 O 0.93203 0.87175 0.70113 0.0
O63 O 0.95693 0.92502 0.74402 0.0
C64 C 0.10787 0.8993 0.84307 0.0
C65 C 0.12063 0.86927 0.83203 0.0
C66 C 0.14606 0.89623 0.8903 0.0
C67 C 0.14604 0.85279 0.85011 0.0
C68 C 0.12083 0.91271 0.87217 0.0
C69 C 0.1588 0.86598 0.87963 0.0
C70 C 0.08047 0.91651 0.82506 0.0
C71 C 0.02726 0.946 0.71667 0.0
H72 H 0.904 0.92268 0.67496 0.0
H73 H 0.91039 0.87761 0.56136 0.0
H74 H 0.87235 0.94937 0.62999 0.0
H75 H 0.94194 0.85079 0.6065 0.0
H76 H 0.11071 0.85847 0.80966 0.0
H77 H 0.15568 0.90722 0.91269 0.0
H78 H 0.15513 0.82943 0.84142 0.0
H79 H 0.11126 0.93586 0.88101 0.0
Eu80 Eu 0.35706 0.78472 0.0332 0.0
Eu81 Eu 0.38271 0.72911 0.97868 0.0
C82 C 0.41457 0.73382 0.05338 0.0
C83 C 0.35642 0.85973 0.08989 0.0
C84 C 0.38275 0.85492 0.11314 0.0
C85 C 0.3588 0.9179 0.09992 0.0
C86 C 0.39656 0.88125 0.12992 0.0
C87 C 0.34482 0.89152 0.08329 0.0
C88 C 0.38452 0.91305 0.12381 0.0
C89 C 0.34003 0.83206 0.07317 0.0
O90 O 0.33548 0.70924 1.00063 0.0
O91 O 0.33441 0.73704 0.05 0.0
C92 C 0.32639 0.71181 0.03171 0.0
O93 O 0.31359 0.77773 0.99845 0.0
O94 O 0.39187 0.67937 0.96217 0.0
O95 O 0.40081 0.71913 0.92852 0.0
O96 O 0.34548 0.76412 0.95354 0.0
C97 C 0.31717 0.77565 0.96637 0.0
O98 O 0.3926 0.80812 0.99646 0.0
O99 O 0.42544 0.76393 0.98316 0.0
O100 O 0.40653 0.7147 0.02846 0.0
O101 O 0.33687 0.83382 0.04103 0.0
O102 O 0.34835 0.80285 0.08319 0.0
O103 O 0.40557 0.76451 0.05392 0.0
C104 C 0.38006 0.67063 0.90464 0.0
C105 C 0.38753 0.67748 0.87136 0.0
C106 C 0.34018 0.63005 0.88573 0.0
C107 C 0.37159 0.6608 0.84556 0.0
C108 C 0.35596 0.64685 0.9115 0.0
C109 C 0.34797 0.63658 0.8524 0.0
C110 C 0.39815 0.68783 0.93166 0.0
C111 C 0.42096 0.79541 0.98477 0.0
H112 H 0.39246 0.83079 0.11872 0.0
H113 H 0.3487 0.94199 0.09485 0.0
H114 H 0.41663 0.87667 0.14786 0.0
H115 H 0.32449 0.89594 0.06558 0.0
H116 H 0.40609 0.69554 0.86527 0.0
H117 H 0.32183 0.61186 0.89196 0.0
H118 H 0.3785 0.66624 0.82027 0.0
H119 H 0.34941 0.64097 0.93679 0.0
Eu120 Eu 0.50042 0.13577 0.21962 0.0
Eu121 Eu 0.44404 0.11465 0.27565 0.0
C122 C 0.51954 0.08123 0.27197 0.0
C123 C 0.55905 0.13199 0.14395 0.0
C124 C 0.58274 0.10672 0.14999 0.0
C125 C 0.56944 0.12639 0.08476 0.0
C126 C 0.59995 0.09185 0.12375 0.0
C127 C 0.55238 0.14144 0.11105 0.0
C128 C 0.59382 0.10176 0.09085 0.0
C129 C 0.54201 0.14935 0.17151 0.0
O130 O 0.46859 0.15776 0.2981 0.0
O131 O 0.51836 0.15796 0.26829 0.0
C132 C 0.50029 0.16619 0.29456 0.0
O133 O 0.46815 0.17983 0.22835 0.0
O134 O 0.4272 0.10535 0.3262 0.0
O135 O 0.39246 0.09894 0.28508 0.0
O136 O 0.41985 0.15356 0.24241 0.0
C137 C 0.43529 0.17975 0.23233 0.0
O138 O 0.46181 0.10297 0.19526 0.0
O139 O 0.4488 0.07293 0.24061 0.0
O140 O 0.49421 0.09059 0.29115 0.0
O141 O 0.50913 0.15335 0.16926 0.0
O142 O 0.55188 0.14219 0.20163 0.0
O143 O 0.52079 0.08931 0.24063 0.0
C144 C 0.36922 0.11693 0.33589 0.0
C145 C 0.35608 0.14716 0.3254 0.0
C146 C 0.33206 0.11907 0.3836 0.0
C147 C 0.33098 0.16322 0.34394 0.0
C148 C 0.35695 0.103 0.36501 0.0
C149 C 0.31888 0.14946 0.37342 0.0
C150 C 0.39603 0.09977 0.31721 0.0
C151 C 0.45043 0.07614 0.20845 0.0
H152 H 0.58837 0.09864 0.175 0.0
H153 H 0.56438 0.13479 0.05975 0.0
H154 H 0.6183 0.07269 0.12925 0.0
H155 H 0.53433 0.1609 0.10569 0.0
H156 H 0.3654 0.15843 0.30305 0.0
H157 H 0.323 0.10759 0.40593 0.0
H158 H 0.32158 0.1867 0.3356 0.0
H159 H 0.36673 0.07969 0.37347 0.0
Eu160 Eu 0.60019 0.23914 0.5399 0.0
Eu161 Eu 0.6271 0.29022 0.48409 0.0
C162 C 0.65575 0.21544 0.48683 0.0
C163 C 0.59709 0.18983 0.61989 0.0
C164 C 0.62835 0.20117 0.63148 0.0
C165 C 0.59611 0.15151 0.66554 0.0
C166 C 0.64344 0.18767 0.65998 0.0
C167 C 0.58102 0.16509 0.6372 0.0
C168 C 0.62762 0.16244 0.67715 0.0
C169 C 0.58106 0.20337 0.58976 0.0
O170 O 0.58152 0.26861 0.45992 0.0
O171 O 0.57522 0.22276 0.49204 0.0
C172 C 0.56961 0.23946 0.46452 0.0
O173 O 0.55762 0.27451 0.53009 0.0
O174 O 0.6312 0.31085 0.43435 0.0
O175 O 0.65353 0.33542 0.47616 0.0
O176 O 0.59228 0.31647 0.52022 0.0
C177 C 0.5627 0.30563 0.52944 0.0
O178 O 0.64003 0.27141 0.56319 0.0
O179 O 0.6715 0.27881 0.51698 0.0
O180 O 0.65057 0.24182 0.46868 0.0
O181 O 0.57736 0.23481 0.58869 0.0
O182 O 0.59166 0.19149 0.56171 0.0
O183 O 0.64413 0.21254 0.51709 0.0
C184 C 0.62991 0.36803 0.43358 0.0
C185 C 0.6025 0.38228 0.45065 0.0
C186 C 0.6277 0.4125 0.39413 0.0
C187 C 0.58779 0.41152 0.43949 0.0
C188 C 0.64246 0.3834 0.40538 0.0
C189 C 0.60005 0.42683 0.41091 0.0
C190 C 0.64548 0.33717 0.44483 0.0
C191 C 0.66908 0.27818 0.54919 0.0
H192 H 0.64118 0.22026 0.61835 0.0
H193 H 0.58304 0.13243 0.67844 0.0
H194 H 0.66783 0.19642 0.6681 0.0
H195 H 0.55684 0.15614 0.62869 0.0
H196 H 0.59236 0.37068 0.47246 0.0
H197 H 0.63803 0.42387 0.37229 0.0
H198 H 0.56637 0.42177 0.45278 0.0
H199 H 0.66365 0.37284 0.39197 0.0
Eu200 Eu 0.94849 0.38831 0.74923 0.0
Eu201 Eu 0.0094 0.37111 0.80396 0.0
C202 C 1.00682 0.33857 0.73005 0.0
C203 C 0.8683 0.38307 0.69484 0.0
C204 C 0.87229 0.35246 0.68008 0.0
C205 C 0.8078 0.38182 0.68259 0.0
C206 C 0.84428 0.33688 0.66634 0.0
C207 C 0.83581 0.39747 0.6961 0.0
C208 C 0.8117 0.35144 0.66732 0.0
C209 C 0.89737 0.40044 0.70913 0.0
O210 O 0.0249 0.41752 0.78076 0.0
O211 O 0.99651 0.41317 0.73111 0.0
C212 C 0.02201 0.42404 0.74911 0.0
O213 O 0.95097 0.43107 0.78267 0.0
O214 O 0.06252 0.36758 0.81988 0.0
O215 O 0.02265 0.3534 0.85338 0.0
O216 O 0.97165 0.40549 0.82911 0.0
C217 C 0.9551 0.42978 0.81478 0.0
O218 O 0.92757 0.35103 0.78525 0.0
O219 O 0.97793 0.32676 0.80013 0.0
O220 O 0.02615 0.34917 0.75447 0.0
O221 O 0.8964 0.40562 0.74095 0.0
O222 O 0.92776 0.39226 0.69907 0.0
O223 O 0.97396 0.34389 0.72947 0.0
C224 C 0.07243 0.37486 0.87731 0.0
C225 C 0.05821 0.40236 0.89275 0.0
C226 C 0.12091 0.3774 0.91454 0.0
C227 C 0.07533 0.41726 0.91902 0.0
C228 C 0.10379 0.36251 0.88849 0.0
C229 C 0.10704 0.40506 0.93007 0.0
C230 C 0.05503 0.35837 0.84985 0.0
C231 C 0.94479 0.3263 0.79802 0.0
H232 H 0.89702 0.34062 0.67905 0.0
H233 H 0.78319 0.39391 0.68341 0.0
H234 H 0.84809 0.31335 0.65504 0.0
H235 H 0.83211 0.42103 0.70739 0.0
H236 H 0.03399 0.41233 0.88443 0.0
H237 H 0.14501 0.36705 0.9227 0.0
H238 H 0.06408 0.43866 0.93024 0.0
H239 H 0.11509 0.34123 0.87705 0.0
Eu240 Eu 0.8788 0.78136 0.03942 0.0
Eu241 Eu 0.85855 0.72637 0.98385 0.0
C242 C 0.82464 0.7995 0.9835 0.0
C243 C 0.87794 0.83944 0.1141 0.0
C244 C 0.84861 0.82813 0.12964 0.0
C245 C 0.87703 0.88628 0.15024 0.0
C246 C 0.83363 0.84585 0.15546 0.0
C247 C 0.892 0.86854 0.12465 0.0
C248 C 0.84757 0.87528 0.16589 0.0
C249 C 0.89432 0.8216 0.08681 0.0
O250 O 0.9045 0.74937 0.96278 0.0
O251 O 0.90297 0.79769 0.99122 0.0
C252 C 0.91243 0.77992 0.96564 0.0
O253 O 0.92428 0.74912 0.03275 0.0
O254 O 0.85726 0.70551 0.93403 0.0
O255 O 0.83699 0.67887 0.97551 0.0
O256 O 0.89478 0.70366 0.0218 0.0
C257 C 0.92266 0.71761 0.03182 0.0
O258 O 0.8407 0.74709 0.06241 0.0
O259 O 0.81256 0.7346 0.01488 0.0
O260 O 0.83379 0.7739 0.96576 0.0
O261 O 0.89677 0.79014 0.08971 0.0
O262 O 0.88603 0.83078 0.05686 0.0
O263 O 0.83251 0.80224 0.01494 0.0
C264 C 0.86339 0.64815 0.93288 0.0
C265 C 0.88382 0.62915 0.95437 0.0
C266 C 0.87492 0.60955 0.88881 0.0
C267 C 0.89926 0.60032 0.94325 0.0
C268 C 0.85937 0.63821 0.89999 0.0
C269 C 0.89475 0.58992 0.91037 0.0
C270 C 0.84558 0.67792 0.94437 0.0
C271 C 0.81337 0.73677 0.04715 0.0
H272 H 0.83725 0.80574 0.12172 0.0
H273 H 0.88871 0.90857 0.15797 0.0
H274 H 0.81082 0.83687 0.16682 0.0
H275 H 0.91466 0.87761 0.11303 0.0
H276 H 0.88754 0.63637 0.97987 0.0
H277 H 0.87146 0.60285 0.86314 0.0
H278 H 0.91413 0.58587 0.96064 0.0
H279 H 0.84399 0.65257 0.8829 0.0
Eu280 Eu 0.53441 0.62617 0.24701 0.0
Eu281 Eu 0.47859 0.64318 0.30559 0.0
C282 C 0.47806 0.67937 0.23366 0.0
C283 C 0.61204 0.63352 0.19062 0.0
C284 C 0.60721 0.66053 0.16969 0.0
C285 C 0.67321 0.639 0.18488 0.0
C286 C 0.63508 0.6764 0.1563 0.0
C287 C 0.64534 0.62304 0.19813 0.0
C288 C 0.66844 0.6657 0.16354 0.0
C289 C 0.58291 0.61565 0.20427 0.0
O290 O 0.45608 0.60124 0.27909 0.0
O291 O 0.48449 0.6045 0.22936 0.0
C292 C 0.45848 0.59501 0.24733 0.0
O293 O 0.52794 0.58053 0.27553 0.0
O294 O 0.42736 0.64772 0.32613 0.0
O295 O 0.47099 0.65919 0.35642 0.0
O296 O 0.51465 0.60347 0.32516 0.0
C297 C 0.52588 0.57863 0.30774 0.0
O298 O 0.55991 0.65705 0.28611 0.0
O299 O 0.51301 0.68568 0.30221 0.0
O300 O 0.45942 0.66829 0.25819 0.0
O301 O 0.58503 0.60719 0.23541 0.0
O302 O 0.55236 0.62563 0.19599 0.0
O303 O 0.51075 0.67351 0.23244 0.0
C304 C 0.42348 0.6373 0.38388 0.0
C305 C 0.44107 0.61155 0.39966 0.0
C306 C 0.37733 0.63121 0.423 0.0
C307 C 0.42695 0.59595 0.42712 0.0
C308 C 0.39151 0.64687 0.39574 0.0
C309 C 0.39486 0.60559 0.43914 0.0
C310 C 0.43826 0.65501 0.35568 0.0
C311 C 0.54601 0.68308 0.29943 0.0
H312 H 0.58191 0.66935 0.16341 0.0
H313 H 0.6985 0.62984 0.19063 0.0
H314 H 0.63049 0.69709 0.14023 0.0
H315 H 0.64985 0.60219 0.21403 0.0
H316 H 0.46575 0.6036 0.39087 0.0
H317 H 0.3528 0.6396 0.43181 0.0
H318 H 0.44099 0.57612 0.43871 0.0
H319 H 0.37757 0.66673 0.38406 0.0
Eu320 Eu 0.25771 0.47138 0.13324 0.0
Eu321 Eu 0.2031 0.52775 0.15507 0.0
C322 C 0.28128 0.52679 0.18345 0.0
C323 C 0.30634 0.39011 0.1332 0.0
C324 C 0.3169 0.38887 0.16647 0.0
C325 C 0.31621 0.33192 0.12918 0.0
C326 C 0.32753 0.35943 0.1808 0.0
C327 C 0.30586 0.36138 0.11479 0.0
C328 C 0.32747 0.33063 0.16227 0.0
C329 C 0.29514 0.42082 0.11736 0.0
O330 O 0.2258 0.54768 0.10899 0.0
O331 O 0.27547 0.51729 0.10727 0.0
C332 C 0.25728 0.54349 0.09934 0.0
O333 O 0.22325 0.47986 0.08983 0.0
O334 O 0.18327 0.57715 0.16 0.0
O335 O 0.15288 0.53686 0.17608 0.0
O336 O 0.17708 0.49211 0.12072 0.0
C337 C 0.19035 0.48168 0.09288 0.0
O338 O 0.22231 0.45082 0.17241 0.0
O339 O 0.21332 0.49777 0.20016 0.0
O340 O 0.25329 0.54401 0.17724 0.0
O341 O 0.26283 0.42358 0.11064 0.0
O342 O 0.30747 0.4476 0.12906 0.0
O343 O 0.28517 0.49651 0.17412 0.0
C344 C 0.12363 0.58129 0.15161 0.0
C345 C 0.09166 0.58143 0.16671 0.0
C346 C 0.09794 0.60564 0.10235 0.0
C347 C 0.06304 0.59364 0.14982 0.0
C348 C 0.12648 0.59319 0.11912 0.0
C349 C 0.06592 0.60614 0.11756 0.0
C350 C 0.15342 0.56783 0.16967 0.0
C351 C 0.21357 0.46619 0.19961 0.0
H352 H 0.31706 0.41062 0.18137 0.0
H353 H 0.31622 0.31026 0.11413 0.0
H354 H 0.33575 0.35918 0.20644 0.0
H355 H 0.29763 0.36177 0.08915 0.0
H356 H 0.08886 0.57217 0.19166 0.0
H357 H 0.10089 0.61478 0.07738 0.0
H358 H 0.03879 0.59397 0.1623 0.0
H359 H 0.15074 0.59292 0.10666 0.0
Eu360 Eu 0.69778 0.98484 0.86606 0.0
Eu361 Eu 0.7503 0.04352 0.88716 0.0
C362 C 0.75336 0.97149 0.92089 0.0
C363 C 0.62742 0.92146 0.86806 0.0
C364 C 0.61325 0.9315 0.89825 0.0
C365 C 0.59191 0.87403 0.869 0.0
C366 C 0.58847 0.91286 0.9137 0.0
C367 C 0.61651 0.89269 0.85357 0.0
C368 C 0.57765 0.88376 0.89934 0.0
C369 C 0.65375 0.94032 0.85137 0.0
O370 O 0.77403 0.02148 0.84234 0.0
O371 O 0.74927 0.97133 0.84403 0.0
C372 C 0.77397 0.99059 0.83495 0.0
O373 O 0.70191 0.01675 0.82173 0.0
O374 O 0.80041 0.06458 0.89394 0.0
O375 O 0.75525 0.0927 0.90593 0.0
O376 O 0.71302 0.06393 0.84867 0.0
C377 C 0.70187 0.0484 0.82246 0.0
O378 O 0.66957 0.02 0.89984 0.0
O379 O 0.71524 0.03636 0.92987 0.0
O380 O 0.77088 0.99671 0.91102 0.0
O381 O 0.6478 0.97135 0.84781 0.0
O382 O 0.68508 0.9339 0.86009 0.0
O383 O 0.72107 0.96883 0.91387 0.0
C384 C 0.80287 0.12164 0.88735 0.0
C385 C 0.79227 0.13262 0.85592 0.0
C386 C 0.84162 0.16664 0.89072 0.0
C387 C 0.80632 0.16052 0.84198 0.0
C388 C 0.82757 0.13889 0.90458 0.0
C389 C 0.83132 0.17784 0.85918 0.0
C390 C 0.78819 0.09275 0.90297 0.0
C391 C 0.68247 0.03264 0.92687 0.0
H392 H 0.62148 0.95361 0.90991 0.0
H393 H 0.58386 0.85205 0.85699 0.0
H394 H 0.57825 0.9209 0.93717 0.0
H395 H 0.62708 0.88458 0.83025 0.0
H396 H 0.77318 0.11964 0.8422 0.0
H397 H 0.86033 0.17958 0.90497 0.0
H398 H 0.79798 0.16823 0.81756 0.0
H399 H 0.83592 0.13096 0.92895 0.0
Eu400 Eu 0.72446 0.971 0.39263 0.0
Eu401 Eu 0.77852 0.02658 0.3661 0.0
C402 C 0.70165 0.02069 0.33608 0.0
C403 C 0.66697 0.89639 0.39847 0.0
C404 C 0.67685 0.88179 0.36856 0.0
C405 C 0.62162 0.85762 0.40334 0.0
C406 C 0.65911 0.85522 0.35612 0.0
C407 C 0.63936 0.88399 0.41575 0.0
C408 C 0.63106 0.84298 0.37325 0.0
C409 C 0.68491 0.92443 0.41225 0.0
O410 O 0.75707 0.04634 0.41313 0.0
O411 O 0.70668 0.01916 0.41445 0.0
C412 C 0.72533 0.04427 0.42225 0.0
O413 O 0.7616 0.97916 0.43373 0.0
O414 O 0.79274 0.07668 0.35646 0.0
O415 O 0.82894 0.03765 0.34754 0.0
O416 O 0.80637 0.99201 0.40106 0.0
C417 C 0.7943 0.98156 0.42931 0.0
O418 O 0.76021 0.94717 0.35566 0.0
O419 O 0.77315 0.9915 0.32437 0.0
O420 O 0.72712 0.03985 0.34325 0.0
O421 O 0.71799 0.92255 0.41313 0.0
O422 O 0.67377 0.9531 0.40326 0.0
O423 O 0.70073 0.99053 0.34623 0.0
C424 C 0.85071 0.08785 0.36558 0.0
C425 C 0.86491 0.07814 0.39613 0.0
C426 C 0.88662 0.13509 0.36598 0.0
C427 C 0.88987 0.09682 0.41148 0.0
C428 C 0.86186 0.11638 0.35065 0.0
C429 C 0.90087 0.12571 0.39669 0.0
C430 C 0.82402 0.06895 0.34911 0.0
C431 C 0.77118 0.96004 0.32794 0.0
H432 H 0.6981 0.89104 0.35478 0.0
H433 H 0.60052 0.84858 0.41747 0.0
H434 H 0.66689 0.84473 0.33277 0.0
H435 H 0.63144 0.89478 0.43894 0.0
H436 H 0.85654 0.05626 0.40821 0.0
H437 H 0.89478 0.15689 0.35361 0.0
H438 H 0.90003 0.08902 0.43523 0.0
H439 H 0.8513 0.12428 0.32707 0.0
Eu440 Eu 0.21585 0.54348 0.62935 0.0
Eu441 Eu 0.27427 0.48914 0.65006 0.0
C442 C 0.19875 0.4907 0.6837 0.0
C443 C 0.15969 0.62018 0.63369 0.0
C444 C 0.14029 0.61637 0.66249 0.0
C445 C 0.15065 0.67865 0.63744 0.0
C446 C 0.12575 0.64335 0.67821 0.0
C447 C 0.165 0.65161 0.62155 0.0
C448 C 0.13039 0.67479 0.66565 0.0
C449 C 0.17417 0.59185 0.61583 0.0
O450 O 0.249 0.46713 0.60613 0.0
O451 O 0.19832 0.49606 0.60613 0.0
C452 C 0.21684 0.47025 0.59791 0.0
O453 O 0.24688 0.53543 0.58401 0.0
O454 O 0.29339 0.44007 0.65957 0.0
O455 O 0.32731 0.48047 0.66437 0.0
O456 O 0.29627 0.52281 0.61086 0.0
C457 C 0.27998 0.53318 0.5842 0.0
O458 O 0.25455 0.56691 0.66349 0.0
O459 O 0.26986 0.52235 0.69361 0.0
O460 O 0.22541 0.47291 0.67485 0.0
O461 O 0.20664 0.59233 0.60982 0.0
O462 O 0.16423 0.56312 0.62473 0.0
O463 O 0.19536 0.52129 0.67535 0.0
C464 C 0.35099 0.43128 0.64417 0.0
C465 C 0.34251 0.41318 0.616 0.0
C466 C 0.41024 0.41518 0.63688 0.0
C467 C 0.36759 0.39583 0.5988 0.0
C468 C 0.38509 0.43233 0.65426 0.0
C469 C 0.40171 0.3964 0.60919 0.0
C470 C 0.32475 0.44903 0.66332 0.0
C471 C 0.26737 0.55383 0.69068 0.0
H472 H 0.13597 0.59253 0.67273 0.0
H473 H 0.15442 0.70248 0.62696 0.0
H474 H 0.11057 0.63959 0.70011 0.0
H475 H 0.17989 0.65522 0.59943 0.0
H476 H 0.31648 0.41221 0.60736 0.0
H477 H 0.43622 0.41588 0.64569 0.0
H478 H 0.36026 0.38189 0.57733 0.0
H479 H 0.39224 0.44618 0.67585 0.0
H480 H 0.13704 0.36404 0.51763 0.0
H481 H 0.2022 0.30067 0.57581 0.0
H482 H 0.22887 0.34785 0.60108 0.0
H483 H 0.23325 0.40697 0.60682 0.0
H484 H 0.16449 0.47032 0.55265 0.0
H485 H 0.13943 0.42323 0.52555 0.0
C486 C 0.15729 0.36057 0.53567 0.0
C487 C 0.16808 0.32887 0.54447 0.0
C488 C 0.17167 0.38778 0.5508 0.0
C489 C 0.19365 0.32475 0.5685 0.0
C490 C 0.20885 0.35173 0.58291 0.0
C491 C 0.2129 0.41052 0.5889 0.0
C492 C 0.20106 0.44219 0.58133 0.0
C493 C 0.19806 0.38332 0.57425 0.0
C494 C 0.17414 0.44629 0.55873 0.0
C495 C 0.15988 0.41936 0.54325 0.0
H496 H 0.8385 1.00567 0.8494 0.0
H497 H 0.77873 0.94395 0.78711 0.0
H498 H 0.83078 0.92155 0.76224 0.0
H499 H 0.89313 0.91944 0.75876 0.0
H500 H 0.95298 0.97695 0.82516 0.0
H501 H 0.90092 1.00126 0.84815 0.0
C502 C 0.83691 0.98747 0.83018 0.0
C503 C 0.8049 0.9768 0.81957 0.0
C504 C 0.86688 0.97403 0.81695 0.0
C505 C 0.80311 0.95262 0.7954 0.0
C506 C 0.83282 0.93988 0.78124 0.0
C507 C 0.89475 0.93749 0.77812 0.0
C508 C 0.92678 0.94689 0.78995 0.0
C509 C 0.8648 0.95043 0.79185 0.0
C510 C 0.9286 0.96958 0.8156 0.0
C511 C 0.89888 0.98343 0.82867 0.0
H512 H 0.33681 0.64844 0.01756 0.0
H513 H 0.27849 0.71239 0.08049 0.0
H514 H 0.25103 0.66561 0.10566 0.0
H515 H 0.2443 0.60677 0.11017 0.0
H516 H 0.30645 0.54238 0.05128 0.0
H517 H 0.33197 0.58922 0.02399 0.0
C518 C 0.31786 0.65213 0.03661 0.0
C519 C 0.30923 0.68386 0.04685 0.0
C520 C 0.30307 0.6251 0.05164 0.0
C521 C 0.28535 0.68826 0.07211 0.0
C522 C 0.2697 0.66153 0.08645 0.0
C523 C 0.26325 0.60295 0.09113 0.0
C524 C 0.27311 0.57115 0.08228 0.0
C525 C 0.27841 0.62989 0.07643 0.0
C526 C 0.29833 0.56659 0.0583 0.0
C527 C 0.31285 0.59336 0.04275 0.0
H528 H 0.5844 0.09111 0.25489 0.0
H529 H 0.52299 0.03645 0.32223 0.0
H530 H 0.57443 0.01149 0.34659 0.0
H531 H 0.63674 1.00641 0.34937 0.0
H532 H 0.69804 0.06547 0.28599 0.0
H533 H 0.64658 0.08773 0.2592 0.0
C534 C 0.58227 0.07345 0.27468 0.0
C535 C 0.54998 0.06512 0.28645 0.0
C536 C 0.61186 0.06022 0.28922 0.0
C537 C 0.54756 0.04297 0.31268 0.0
C538 C 0.57693 0.02878 0.32655 0.0
C539 C 0.63881 0.02395 0.32945 0.0
C540 C 0.67108 0.03399 0.3192 0.0
C541 C 0.60918 0.03734 0.31508 0.0
C542 C 0.67347 0.05732 0.29407 0.0
C543 C 0.64409 0.06997 0.27881 0.0
H544 H 0.64327 0.1526 0.49967 0.0
H545 H 0.70694 0.21413 0.4412 0.0
H546 H 0.73528 0.16618 0.41759 0.0
H547 H 0.74112 0.10696 0.41303 0.0
H548 H 0.67387 0.04554 0.4676 0.0
H549 H 0.64764 0.0934 0.49351 0.0
C550 C 0.66357 0.15552 0.48195 0.0
C551 C 0.67338 0.18685 0.47248 0.0
C552 C 0.67895 0.12791 0.46785 0.0
C553 C 0.69908 0.19028 0.44893 0.0
C554 C 0.71526 0.16289 0.4355 0.0
C555 C 0.72093 0.10402 0.43087 0.0
C556 C 0.70974 0.07273 0.43884 0.0
C557 C 0.70534 0.13162 0.44475 0.0
C558 C 0.683 0.06934 0.46127 0.0
C559 C 0.66804 0.09668 0.47603 0.0
H560 H 0.0882 0.41435 0.7637 0.0
H561 H 0.02131 0.46865 0.69839 0.0
H562 H 0.07045 0.49506 0.67356 0.0
H563 H 0.13241 0.50248 0.67067 0.0
H564 H 0.19932 0.444 0.73214 0.0
H565 H 0.15009 0.41927 0.75846 0.0
C566 C 0.08435 0.43214 0.74414 0.0
C567 C 0.05112 0.44005 0.73324 0.0
C568 C 0.1127 0.44634 0.72943 0.0
C569 C 0.04657 0.4624 0.7073 0.0
C570 C 0.07466 0.47746 0.69319 0.0
C571 C 0.13618 0.48447 0.69003 0.0
C572 C 0.16944 0.47545 0.69997 0.0
C573 C 0.10781 0.46967 0.70414 0.0
C574 C 0.17402 0.45147 0.72433 0.0
C575 C 0.14588 0.43738 0.73931 0.0
H576 H 0.74056 0.90898 0.90803 0.0
H577 H 0.80552 0.96972 0.96625 0.0
H578 H 0.83275 0.92133 0.99105 0.0
H579 H 0.83733 0.86198 0.9964 0.0
H580 H 0.77587 0.80126 0.93461 0.0
H581 H 0.74786 0.84964 0.9106 0.0
C582 C 0.76057 0.91162 0.92633 0.0
C583 C 0.77064 0.94285 0.93589 0.0
C584 C 0.77662 0.88379 0.93962 0.0
C585 C 0.79721 0.94596 0.9588 0.0
C586 C 0.81269 0.91833 0.97292 0.0
C587 C 0.81767 0.85934 0.97775 0.0
C588 C 0.80815 0.82811 0.96764 0.0
C589 C 0.80246 0.88717 0.9636 0.0
C590 C 0.78339 0.82501 0.94287 0.0
C591 C 0.76741 0.85264 0.92925 0.0
H592 H 0.39247 0.60337 0.26296 0.0
H593 H 0.45854 0.55199 0.19564 0.0
H594 H 0.4093 0.52547 0.17087 0.0
H595 H 0.34748 0.51691 0.16873 0.0
H596 H 0.28124 0.57218 0.23268 0.0
H597 H 0.33062 0.59731 0.25858 0.0
C598 C 0.39612 0.58621 0.24296 0.0
C599 C 0.42916 0.57919 0.23145 0.0
C600 C 0.36768 0.57186 0.22835 0.0
C601 C 0.43342 0.55761 0.205 0.0
C602 C 0.40528 0.54246 0.19092 0.0
C603 C 0.3439 0.53433 0.18851 0.0
C604 C 0.3108 0.54234 0.19923 0.0
C605 C 0.37232 0.54933 0.20249 0.0
C606 C 0.30644 0.56553 0.2242 0.0
C607 C 0.33466 0.57984 0.23897 0.0
H608 H 0.48489 0.16108 0.3595 0.0
H609 H 0.55199 0.20972 0.29249 0.0
H610 H 0.57789 0.23802 0.33929 0.0
H611 H 0.5819 0.24816 0.3993 0.0
H612 H 0.51828 0.19572 0.46653 0.0
H613 H 0.49035 0.16964 0.41951 0.0
C614 C 0.50503 0.17808 0.35508 0.0
C615 C 0.51624 0.18364 0.32248 0.0
C616 C 0.52033 0.19349 0.38214 0.0
C617 C 0.54286 0.20512 0.31728 0.0
C618 C 0.5576 0.22131 0.34403 0.0
C619 C 0.56166 0.23126 0.40364 0.0
C620 C 0.55175 0.22423 0.43635 0.0
C621 C 0.54656 0.21563 0.37656 0.0
C622 C 0.52617 0.20166 0.44163 0.0
C623 C 0.51025 0.18676 0.41475 0.0
H624 H 0.08468 0.26641 0.61432 0.0
H625 H 0.01281 0.32208 0.55548 0.0
H626 H 0.98774 0.34467 0.60612 0.0
H627 H 0.98648 0.34842 0.66694 0.0
H628 H 0.06187 0.29697 0.72558 0.0
H629 H 0.08564 0.2728 0.67506 0.0
C630 C 0.06334 0.28334 0.61262 0.0
C631 C 0.05011 0.29217 0.58125 0.0
C632 C 0.04991 0.29693 0.64173 0.0
C633 C 0.02318 0.31478 0.57931 0.0
C634 C 0.00891 0.32764 0.60825 0.0
C635 C 0.00802 0.33174 0.66869 0.0
C636 C 0.02209 0.32398 0.70001 0.0
C637 C 0.02204 0.31882 0.63955 0.0
C638 C 0.05051 0.30309 0.70183 0.0
C639 C 0.06402 0.2893 0.67296 0.0
H640 H 0.99478 0.85719 0.85882 0.0
H641 H 0.93217 0.80192 0.79282 0.0
H642 H 0.90637 0.77498 0.84055 0.0
H643 H 0.90167 0.76767 0.90096 0.0
H644 H 0.96035 0.82697 0.96672 0.0
H645 H 0.98792 0.85203 0.919 0.0
C646 C 0.97566 0.83903 0.85487 0.0
C647 C 0.96573 0.83103 0.82238 0.0
C648 C 0.96036 0.82455 0.88233 0.0
C649 C 0.9403 0.80822 0.81759 0.0
C650 C 0.92564 0.79288 0.84485 0.0
C651 C 0.92072 0.78591 0.90481 0.0
C652 C 0.9295 0.79515 0.93727 0.0
C653 C 0.93553 0.80085 0.87729 0.0
C654 C 0.95345 0.81939 0.94198 0.0
C655 C 0.96914 0.83365 0.91473 0.0
H656 H 0.49453 0.66514 0.17091 0.0
H657 H 0.42508 0.72352 0.22854 0.0
H658 H 0.40029 0.74632 0.17729 0.0
H659 H 0.3989 0.74955 0.11624 0.0
H660 H 0.46468 0.68709 0.05892 0.0
H661 H 0.49064 0.66573 0.11014 0.0
C662 C 0.47407 0.68304 0.17227 0.0
C663 C 0.46201 0.69321 0.20343 0.0
C664 C 0.45945 0.69513 0.14284 0.0
C665 C 0.4349 0.71561 0.20486 0.0
C666 C 0.42082 0.72858 0.17559 0.0
C667 C 0.41909 0.73138 0.11499 0.0
C668 C 0.43039 0.72026 0.08386 0.0
C669 C 0.43302 0.71859 0.14448 0.0
C670 C 0.45582 0.69612 0.08255 0.0
C671 C 0.4706 0.68398 0.1118 0.0
H672 H 0.15394 0.42037 0.33625 0.0
H673 H 0.14331 0.33082 0.28305 0.0
H674 H 0.17062 0.35464 0.23462 0.0
H675 H 0.19515 0.40232 0.2063 0.0
H676 H 0.20477 0.49148 0.26085 0.0
H677 H 0.18034 0.46647 0.30941 0.0
C678 C 0.15744 0.40608 0.31401 0.0
C679 C 0.14626 0.37396 0.31325 0.0
C680 C 0.17303 0.41993 0.2863 0.0
C681 C 0.15175 0.35559 0.28441 0.0
C682 C 0.16726 0.36925 0.25663 0.0
C683 C 0.19219 0.41612 0.22891 0.0
C684 C 0.20158 0.44889 0.22961 0.0
C685 C 0.17775 0.40157 0.25712 0.0
C686 C 0.19753 0.46636 0.25926 0.0
C687 C 0.18351 0.45208 0.28721 0.0
H688 H 0.90765 0.93026 0.52903 0.0
H689 H 0.8223 0.93364 0.59541 0.0
H690 H 0.78604 0.9554 0.55119 0.0
H691 H 0.77793 0.97141 0.49342 0.0
H692 H 0.86284 0.96902 0.42646 0.0
H693 H 0.89996 0.94898 0.47117 0.0
C694 C 0.8811 0.93579 0.53373 0.0
C695 C 0.86765 0.9303 0.56543 0.0
C696 C 0.86034 0.94837 0.50812 0.0
C697 C 0.83334 0.93795 0.57133 0.0
C698 C 0.81254 0.95021 0.54601 0.0
C699 C 0.80458 0.96656 0.48853 0.0
C700 C 0.81751 0.97138 0.45654 0.0
C701 C 0.82569 0.95523 0.51428 0.0
C702 C 0.85221 0.96543 0.45083 0.0
C703 C 0.87342 0.9539 0.47637 0.0
H704 H 0.29034 0.53413 0.75132 0.0
H705 H 0.27403 0.62004 0.69175 0.0
H706 H 0.29732 0.65323 0.73624 0.0
H707 H 0.32307 0.65777 0.79217 0.0
H708 H 0.33874 0.5713 0.85106 0.0
H709 H 0.31478 0.53865 0.80689 0.0
C710 C 0.2918 0.56013 0.74794 0.0
C711 C 0.28051 0.57444 0.71799 0.0
C712 C 0.30512 0.57907 0.77365 0.0
C713 C 0.2825 0.60825 0.7144 0.0
C714 C 0.2959 0.62728 0.73988 0.0
C715 C 0.32136 0.63177 0.79527 0.0
C716 C 0.33267 0.61713 0.82511 0.0
C717 C 0.30746 0.61295 0.76959 0.0
C718 C 0.32985 0.58339 0.82871 0.0
C719 C 0.31631 0.5646 0.80333 0.0
H720 H 0.57196 0.08153 0.02983 0.0
H721 H 0.66205 0.09098 0.09 0.0
H722 H 0.69685 0.06976 0.04508 0.0
H723 H 0.70218 0.0499 0.98858 0.0
H724 H 0.61286 0.03944 0.92756 0.0
H725 H 0.57732 0.05963 0.97291 0.0
C726 C 0.59922 0.07896 0.03302 0.0
C727 C 0.61434 0.0878 0.06333 0.0
C728 C 0.61922 0.06662 1.00696 0.0
C729 C 0.64967 0.08401 0.06718 0.0
C730 C 0.66964 0.07203 0.04141 0.0
C731 C 0.67492 0.05197 0.98506 0.0
C732 C 0.66029 0.04337 0.95453 0.0
C733 C 0.65474 0.06343 0.01119 0.0
C734 C 0.62485 0.04593 0.95073 0.0
C735 C 0.60452 0.05755 0.97666 0.0
H736 H 0.63305 0.09827 0.69004 0.0
H737 H 0.65997 0.19114 0.72967 0.0
H738 H 0.68599 0.16446 0.77815 0.0
H739 H 0.69987 0.11419 0.80998 0.0
H740 H 0.672 0.022 0.76851 0.0
H741 H 0.64745 0.04901 0.72054 0.0
C742 C 0.64434 0.11275 0.70941 0.0
C743 C 0.64424 0.14663 0.70637 0.0
C744 C 0.6591 0.09733 0.73706 0.0
C745 C 0.65978 0.16496 0.73134 0.0
C746 C 0.67452 0.14972 0.75914 0.0
C747 C 0.68844 0.10007 0.79043 0.0
C748 C 0.68781 0.06604 0.79315 0.0
C749 C 0.67418 0.11584 0.7624 0.0
C750 C 0.67301 0.04817 0.76737 0.0
C751 C 0.65883 0.06358 0.73975 0.0
H752 H 0.21137 0.46271 0.03212 0.0
H753 H 0.12087 0.4751 0.09068 0.0
H754 H 0.08669 0.45372 0.04507 0.0
H755 H 0.0831 0.42921 0.98906 0.0
H756 H 0.17453 0.41758 0.93166 0.0
H757 H 0.20766 0.44081 0.97641 0.0
C758 C 0.18414 0.46088 0.03505 0.0
C759 C 0.16881 0.47035 0.065 0.0
C760 C 0.16478 0.44848 0.0089 0.0
C761 C 0.13342 0.46794 0.068 0.0
C762 C 0.11386 0.45566 0.04191 0.0
C763 C 0.11021 0.4321 0.98625 0.0
C764 C 0.1263 0.42125 0.95708 0.0
C765 C 0.12932 0.44555 0.0123 0.0
C766 C 0.16152 0.42506 0.95399 0.0
C767 C 0.18052 0.43852 0.97953 0.0
H768 H 0.7915 0.97907 0.26693 0.0
H769 H 0.77628 0.89354 0.32636 0.0
H770 H 0.79724 0.85954 0.28106 0.0
H771 H 0.82217 0.85439 0.22512 0.0
H772 H 0.83669 0.94056 0.1665 0.0
H773 H 0.81382 0.97394 0.21103 0.0
C774 C 0.79265 0.95298 0.27011 0.0
C775 C 0.78252 0.93898 0.30021 0.0
C776 C 0.80478 0.93365 0.24408 0.0
C777 C 0.78402 0.90506 0.30356 0.0
C778 C 0.79603 0.88558 0.27764 0.0
C779 C 0.81996 0.88043 0.22199 0.0
C780 C 0.83149 0.89494 0.19259 0.0
C781 C 0.80676 0.89963 0.24785 0.0
C782 C 0.82862 0.92878 0.18905 0.0
C783 C 0.8154 0.9479 0.21446 0.0
H784 H 0.34839 0.54418 0.57592 0.0
H785 H 0.25228 0.54635 0.5239 0.0
H786 H 0.27932 0.56756 0.47484 0.0
H787 H 0.3294 0.58756 0.44674 0.0
H788 H 0.42595 0.58671 0.49745 0.0
H789 H 0.39983 0.5626 0.54636 0.0
C790 C 0.33347 0.54906 0.55377 0.0
C791 C 0.2982 0.54385 0.55395 0.0
C792 C 0.34924 0.56161 0.52521 0.0
C793 C 0.27935 0.55034 0.52486 0.0
C794 C 0.29479 0.5625 0.49659 0.0
C795 C 0.34476 0.58226 0.46853 0.0
C796 C 0.37954 0.58926 0.46841 0.0
C797 C 0.32957 0.56866 0.49659 0.0
C798 C 0.39914 0.58147 0.4967 0.0
C799 C 0.38416 0.56783 0.5248 0.0
H800 H 0.22182 0.21026 0.48129 0.0
H801 H 0.1623 0.23537 0.39458 0.0
H802 H 0.20635 0.21168 0.35915 0.0
H803 H 0.26089 0.18156 0.35303 0.0
H804 H 0.3193 0.1564 0.44042 0.0
H805 H 0.27645 0.18222 0.47526 0.0
C806 C 0.21843 0.21078 0.45463 0.0
C807 C 0.18863 0.22453 0.4407 0.0
C808 C 0.24363 0.19685 0.43448 0.0
C809 C 0.18489 0.22491 0.40605 0.0
C810 C 0.21008 0.21131 0.38575 0.0
C811 C 0.26437 0.18204 0.37967 0.0
C812 C 0.29318 0.16677 0.39408 0.0
C813 C 0.23943 0.1969 0.39971 0.0
C814 C 0.29715 0.16743 0.42869 0.0
C815 C 0.27272 0.18235 0.44865 0.0
H816 H 0.08471 0.0805 0.67124 0.0
H817 H 0.0758 0.03745 0.57464 0.0
H818 H 0.05198 0.98863 0.59945 0.0
H819 H 0.03548 0.95727 0.64953 0.0
H820 H 0.04534 1.00234 0.74546 0.0
H821 H 0.06707 0.05072 0.71999 0.0
C822 C 0.07779 0.06037 0.65557 0.0
C823 C 0.0824 0.06255 0.62118 0.0
C824 C 0.06427 0.03249 0.66995 0.0
C825 C 0.07246 0.03648 0.60121 0.0
C826 C 0.05897 1.00848 0.61542 0.0
C827 C 0.04225 0.97773 0.66478 0.0
C828 C 0.03888 0.97575 0.69948 0.0
C829 C 0.05498 1.00605 0.64989 0.0
C830 C 0.04773 1.00272 0.71877 0.0
C831 C 0.06024 0.03064 0.70424 0.0
H832 H 0.21612 0.83419 0.85832 0.0
H833 H 0.1594 0.85751 0.94643 0.0
H834 H 0.20268 0.83057 0.98058 0.0
H835 H 0.25712 0.80215 0.98578 0.0
H836 H 0.31501 0.77875 0.89838 0.0
H837 H 0.27049 0.80355 0.86357 0.0
C838 C 0.21312 0.83306 0.88496 0.0
C839 C 0.1847 0.84812 0.89982 0.0
C840 C 0.23826 0.81755 0.90458 0.0
C841 C 0.18129 0.84664 0.93441 0.0
C842 C 0.20594 0.83109 0.95396 0.0
C843 C 0.26008 0.80226 0.9591 0.0
C844 C 0.28953 0.7887 0.94477 0.0
C845 C 0.23465 0.81678 0.93935 0.0
C846 C 0.29268 0.78906 0.91012 0.0
C847 C 0.26724 0.80329 0.89019 0.0
H848 H 0.43447 0.01549 0.22835 0.0
H849 H 0.44106 0.07524 0.14085 0.0
H850 H 0.42135 0.03024 0.10684 0.0
H851 H 0.40172 0.97369 0.10213 0.0
H852 H 0.39612 0.9147 0.19029 0.0
H853 H 0.41617 0.95955 0.2237 0.0
C854 C 0.43159 0.01883 0.20183 0.0
C855 C 0.43909 0.0489 0.18728 0.0
C856 C 0.42049 0.99285 0.18247 0.0
C857 C 0.43546 0.05245 0.15279 0.0
C858 C 0.42414 0.0267 0.13331 0.0
C859 C 0.4048 0.97073 0.12867 0.0
C860 C 0.39749 0.94072 0.1436 0.0
C861 C 0.41645 0.99677 0.1479 0.0
C862 C 0.40197 0.93726 0.17801 0.0
C863 C 0.41326 0.963 0.19721 0.0
H864 H 0.8096 0.32204 0.60731 0.0
H865 H 0.74708 0.34599 0.69129 0.0
H866 H 0.69763 0.32348 0.66331 0.0
H867 H 0.67148 0.29936 0.61347 0.0
H868 H 0.73466 0.27721 0.5293 0.0
H869 H 0.78436 0.29604 0.55901 0.0
C870 C 0.78529 0.32188 0.61973 0.0
C871 C 0.7821 0.33574 0.65133 0.0
C872 C 0.75693 0.30924 0.60338 0.0
C873 C 0.7502 0.3358 0.66681 0.0
C874 C 0.72191 0.32282 0.65086 0.0
C875 C 0.6962 0.29834 0.60183 0.0
C876 C 0.69922 0.28706 0.56911 0.0
C877 C 0.72485 0.30984 0.61891 0.0
C878 C 0.73146 0.28604 0.55433 0.0
C879 C 0.75999 0.29681 0.57131 0.0
H880 H 0.9812 0.4657 0.86588 0.0
H881 H 0.89148 0.45259 0.80621 0.0
H882 H 0.86423 0.49957 0.83184 0.0
H883 H 0.86677 0.54618 0.86848 0.0
H884 H 0.95747 0.56285 0.92574 0.0
H885 H 0.98307 0.51274 0.90436 0.0
C886 C 0.9555 0.47293 0.85904 0.0
C887 C 0.93829 0.45568 0.83429 0.0
C888 C 0.94021 0.50082 0.87323 0.0
C889 C 0.9052 0.46552 0.82519 0.0
C890 C 0.88962 0.49245 0.83976 0.0
C891 C 0.89227 0.53912 0.87615 0.0
C892 C 0.91016 0.55866 0.89849 0.0
C893 C 0.90711 0.51068 0.86325 0.0
C894 C 0.94287 0.54835 0.90874 0.0
C895 C 0.95767 0.51971 0.89636 0.0
H896 H 0.80732 0.72388 0.11381 0.0
H897 H 0.75064 0.72631 0.02195 0.0
H898 H 0.70105 0.70594 0.04993 0.0
H899 H 0.67414 0.68483 0.09951 0.0
H900 H 0.72959 0.68127 0.19181 0.0
H901 H 0.77905 0.70435 0.16469 0.0
C902 C 0.78403 0.72019 0.10003 0.0
C903 C 0.78296 0.72648 0.06573 0.0
C904 C 0.75531 0.708 0.11629 0.0
C905 C 0.75249 0.72148 0.04828 0.0
C906 C 0.72395 0.70981 0.06426 0.0
C907 C 0.69683 0.68955 0.11387 0.0
C908 C 0.69806 0.68131 0.14766 0.0
C909 C 0.72516 0.70263 0.09812 0.0
C910 C 0.72802 0.68705 0.16567 0.0
C911 C 0.7563 0.70038 0.1502 0.0
H912 H 0.58356 0.44042 0.34727 0.0
H913 H 0.57921 0.481 0.44532 0.0
H914 H 0.55425 0.53137 0.42276 0.0
H915 H 0.53593 0.56484 0.37418 0.0
H916 H 0.54149 0.52233 0.27666 0.0
H917 H 0.56376 0.47221 0.30001 0.0
C918 C 0.57738 0.46035 0.36373 0.0
C919 C 0.58364 0.45708 0.39784 0.0
C920 C 0.56326 0.48909 0.35063 0.0
C921 C 0.57462 0.48287 0.41892 0.0
C922 C 0.56048 0.51173 0.406 0.0
C923 C 0.54184 0.54453 0.35813 0.0
C924 C 0.53729 0.54773 0.32362 0.0
C925 C 0.55496 0.51528 0.37177 0.0
C926 C 0.54498 0.52098 0.30325 0.0
C927 C 0.55775 0.4921 0.31655 0.0
H928 H 0.38477 0.32141 0.1987 0.0
H929 H 0.30004 0.27019 0.15788 0.0
H930 H 0.32417 0.21881 0.17855 0.0
H931 H 0.37157 0.18799 0.20552 0.0
H932 H 0.45713 0.24016 0.24346 0.0
H933 H 0.43024 0.29146 0.22733 0.0
C934 C 0.37128 0.29909 0.1948 0.0
C935 C 0.34067 0.29966 0.17679 0.0
C936 C 0.38554 0.26969 0.20627 0.0
C937 C 0.32383 0.27038 0.17143 0.0
C938 C 0.33756 0.241 0.18333 0.0
C939 C 0.38396 0.21066 0.21064 0.0
C940 C 0.41631 0.21031 0.22554 0.0
C941 C 0.36871 0.24026 0.2004 0.0
C942 C 0.43232 0.23981 0.23176 0.0
C943 C 0.417 0.26919 0.22254 0.0
H944 H 0.87706 0.31032 0.79319 0.0
H945 H 0.97374 0.27579 0.83168 0.0
H946 H 0.94754 0.22745 0.85294 0.0
H947 H 0.89773 0.19441 0.86107 0.0
H948 H 0.80032 0.2275 0.82381 0.0
H949 H 0.82627 0.27626 0.8013 0.0
C950 C 0.89234 0.29224 0.80627 0.0
C951 C 0.92743 0.29701 0.81072 0.0
C952 C 0.87704 0.26395 0.8186 0.0
C953 C 0.94676 0.27307 0.82766 0.0
C954 C 0.9318 0.24522 0.83995 0.0
C955 C 0.88201 0.21238 0.84831 0.0
C956 C 0.84703 0.20725 0.84444 0.0
C957 C 0.89702 0.2404 0.83566 0.0
C958 C 0.82736 0.23059 0.82704 0.0
C959 C 0.84217 0.25864 0.81431 0.0
H960 H 0.06314 0.66303 0.08417 0.0
H961 H 1.00139 0.58272 0.11284 0.0
H962 H 0.95167 0.60881 0.08663 0.0
H963 H 0.92523 0.65605 0.05761 0.0
H964 H 0.9878 0.73676 0.03144 0.0
H965 H 0.03764 0.70873 0.05403 0.0
C966 C 0.03891 0.651 0.08428 0.0
C967 C 0.03598 0.62099 0.10037 0.0
C968 C 0.01049 0.66628 0.06958 0.0
C969 C 1.00424 0.60599 0.10083 0.0
C970 C 0.97584 0.62084 0.08575 0.0
C971 C 0.94987 0.66724 0.05655 0.0
C972 C 0.95275 0.69849 0.043 0.0
C973 C 0.97856 0.65121 0.07034 0.0
C974 C 0.9848 0.71283 0.04199 0.0
C975 C 0.01339 0.69683 0.0549 0.0
H976 H 0.65417 0.78672 0.34404 0.0
H977 H 0.56225 0.83802 0.37168 0.0
H978 H 0.5284 0.79333 0.35173 0.0
H979 H 0.52448 0.73972 0.32697 0.0
H980 H 0.61561 0.68766 0.29842 0.0
H981 H 0.65002 0.73261 0.31795 0.0
C982 C 0.62673 0.78821 0.34543 0.0
C983 C 0.61089 0.81572 0.35967 0.0
C984 C 0.6072 0.76224 0.33381 0.0
C985 C 0.57525 0.81703 0.36145 0.0
C986 C 0.55579 0.7915 0.34987 0.0
C987 C 0.55188 0.73805 0.32496 0.0
C988 C 0.56734 0.71015 0.31127 0.0
C989 C 0.57147 0.76393 0.33619 0.0
C990 C 0.60293 0.70871 0.3089 0.0
C991 C 0.62266 0.73446 0.32005 0.0
H992 H 0.49759 0.29096 0.54355 0.0
H993 H 0.56694 0.37056 0.54306 0.0
H994 H 0.52316 0.40594 0.56719 0.0
H995 H 0.46553 0.41364 0.59037 0.0
H996 H 0.39679 0.33357 0.59003 0.0
H997 H 0.43992 0.29912 0.56414 0.0
C998 C 0.5032 0.31608 0.54859 0.0
C999 C 0.53567 0.32796 0.54176 0.0
C1000 C 0.47796 0.33623 0.5624 0.0
C1001 C 0.54224 0.3607 0.54815 0.0
C1002 C 0.51721 0.38094 0.56204 0.0
C1003 C 0.46007 0.38864 0.58463 0.0
C1004 C 0.42795 0.37621 0.59218 0.0
C1005 C 0.48508 0.36886 0.56964 0.0
C1006 C 0.42112 0.34387 0.5842 0.0
C1007 C 0.44584 0.32408 0.56954 0.0
H1008 H 0.15491 0.73501 0.6804 0.0
H1009 H 0.0643 0.67804 0.68387 0.0
H1010 H 0.03245 0.72405 0.70607 0.0
H1011 H 0.02943 0.78053 0.72254 0.0
H1012 H 0.119 0.83887 0.72025 0.0
H1013 H 0.15224 0.79221 0.69977 0.0
C1014 C 0.1282 0.73275 0.68606 0.0
C1015 C 0.11205 0.70302 0.68051 0.0
C1016 C 0.10987 0.7595 0.69899 0.0
C1017 C 0.0775 0.7004 0.68827 0.0
C1018 C 0.05918 0.72678 0.7008 0.0
C1019 C 0.05626 0.7832 0.71762 0.0
C1020 C 0.0716 0.81332 0.72256 0.0
C1021 C 0.07501 0.75644 0.706 0.0
C1022 C 0.10652 0.816 0.71659 0.0
C1023 C 0.12548 0.78935 0.70476 0.0
H1024 H 0.48149 0.77719 0.95779 0.0
H1025 H 0.42098 0.86187 0.9824 0.0
H1026 H 0.46438 0.8967 0.95918 0.0
H1027 H 0.5189 0.90307 0.93012 0.0
H1028 H 0.57888 0.81798 0.90594 0.0
H1029 H 0.53623 0.78351 0.93056 0.0
C1030 C 0.47773 0.80327 0.95823 0.0
C1031 C 0.44783 0.81678 0.97179 0.0
C1032 C 0.50269 0.82317 0.94471 0.0
C1033 C 0.44363 0.85069 0.9721 0.0
C1034 C 0.46847 0.87068 0.95879 0.0
C1035 C 0.52279 0.87701 0.93056 0.0
C1036 C 0.55202 0.86319 0.91591 0.0
C1037 C 0.49804 0.85719 0.94482 0.0
C1038 C 0.55643 0.82931 0.91648 0.0
C1039 C 0.53211 0.80954 0.93072 0.0
H1040 H 0.95952 0.10684 0.42908 0.0
H1041 H 0.89983 0.1916 0.4018 0.0
H1042 H 0.94225 0.22638 0.42656 0.0
H1043 H 0.99677 0.23312 0.4548 0.0
H1044 H 0.05712 0.14884 0.48228 0.0
H1045 H 0.01387 0.11366 0.45905 0.0
C1046 C 0.95563 0.1329 0.42884 0.0
C1047 C 0.92652 0.14649 0.41326 0.0
C1048 C 0.98029 0.15294 0.44318 0.0
C1049 C 0.92217 0.1804 0.41302 0.0
C1050 C 0.94637 0.20036 0.42736 0.0
C1051 C 1.00051 0.20706 0.4559 0.0
C1052 C 0.03035 0.19377 0.47028 0.0
C1053 C 0.97565 0.18695 0.44227 0.0
C1054 C 0.03454 0.15986 0.47135 0.0
C1055 C 0.00977 0.13967 0.45802 0.0
loop_
_geom_bond_atom_site_label_1
_geom_bond_atom_site_label_2
_geom_bond_distance
_geom_bond_site_symmetry_2
_ccdc_geom_bond_type
Eu0 C9 2.828 . S
Eu0 O11 2.392 . S
Eu0 O13 2.418 . S
Eu0 O18 2.373 . S
Eu0 O21 2.488 . S
Eu0 O22 2.471 . S
Eu0 O23 2.349 . S
Eu1 O10 2.373 . S
Eu1 O14 2.488 . S
Eu1 O15 2.471 . S
Eu1 O16 2.349 . S
Eu1 O19 2.392 . S
Eu1 O20 2.418 . S
Eu1 C30 2.828 . S
C2 O20 1.244 . S
C2 O23 1.265 . S
C3 C4 1.379 . S
C3 C7 1.373 . S
C3 C9 1.505 . S
C4 C3 1.379 . S
C4 C6 1.369 . S
C4 H32 0.930 . S
C5 C7 1.383 . S
C5 C8 1.382 . S
C5 H33 0.930 . S
C6 C4 1.369 . S
C6 C8 1.392 . S
C6 H34 0.930 . S
C7 C3 1.373 . S
C7 C5 1.383 . S
C7 H35 0.931 . S
C8 C5 1.382 . S
C8 C6 1.392 . S
C9 Eu0 2.828 . S
C9 C3 1.505 . S
C9 O21 1.249 . S
C9 O22 1.244 . S
O10 Eu1 2.373 . S
O10 C12 1.258 . S
O11 Eu0 2.392 . S
O11 C12 1.242 . S
C12 O10 1.258 . S
C12 O11 1.242 . S
O13 Eu0 2.418 . S
O13 C17 1.244 . S
O14 Eu1 2.488 . S
O14 C30 1.249 . S
O15 Eu1 2.471 . S
O15 C30 1.244 . S
O16 Eu1 2.349 . S
O16 C17 1.265 . S
C17 O13 1.244 . S
C17 O16 1.265 . S
O18 Eu0 2.373 . S
O18 C31 1.258 . S
O19 Eu1 2.392 . S
O19 C31 1.242 . S
O20 Eu1 2.418 . S
O20 C2 1.244 . S
O21 Eu0 2.488 . S
O21 C9 1.249 . S
O22 Eu0 2.471 . S
O22 C9 1.244 . S
O23 Eu0 2.349 . S
O23 C2 1.265 . S
C24 C25 1.379 . S
C24 C28 1.373 . S
C24 C30 1.505 . S
C25 C24 1.379 . S
C25 C27 1.369 . S
C25 H36 0.930 . S
C26 C28 1.383 . S
C26 C29 1.382 . S
C26 H37 0.930 . S
C27 C25 1.369 . S
C27 C29 1.392 . S
C27 H38 0.930 . S
C28 C24 1.373 . S
C28 C26 1.383 . S
C28 H39 0.931 . S
C29 C26 1.382 . S
C29 C27 1.392 . S
C30 Eu1 2.828 . S
C30 O14 1.249 . S
C30 O15 1.244 . S
C30 C24 1.505 . S
C31 O18 1.258 . S
C31 O19 1.242 . S
H32 C4 0.930 . S
H33 C5 0.930 . S
H34 C6 0.930 . S
H35 C7 0.931 . S
H36 C25 0.930 . S
H37 C26 0.930 . S
H38 C27 0.930 . S
H39 C28 0.931 . S
Eu40 C49 2.828 . S
Eu40 O51 2.392 . S
Eu40 O53 2.418 1_655 S
Eu40 O58 2.373 . S
Eu40 O61 2.488 . S
Eu40 O62 2.471 . S
Eu40 O63 2.349 . S
Eu41 O50 2.373 . S
Eu41 O54 2.488 . S
Eu41 O55 2.471 . S
Eu41 O56 2.349 . S
Eu41 O59 2.392 . S
Eu41 O60 2.418 1_455 S
Eu41 C70 2.828 . S
C42 O60 1.244 . S
C42 O63 1.265 . S
C43 C44 1.379 . S
C43 C47 1.373 . S
C43 C49 1.505 . S
C44 C43 1.379 . S
C44 C46 1.369 . S
C44 H72 0.930 . S
C45 C47 1.383 . S
C45 C48 1.382 . S
C45 H73 0.930 . S
C46 C44 1.369 . S
C46 C48 1.392 . S
C46 H74 0.930 . S
C47 C43 1.373 . S
C47 C45 1.383 . S
C47 H75 0.931 . S
C48 C45 1.382 . S
C48 C46 1.392 . S
C49 Eu40 2.828 . S
C49 C43 1.505 . S
C49 O61 1.249 . S
C49 O62 1.244 . S
O50 Eu41 2.373 . S
O50 C52 1.258 1_455 S
O51 Eu40 2.392 . S
O51 C52 1.242 . S
C52 O50 1.258 1_655 S
C52 O51 1.242 . S
O53 Eu40 2.418 1_455 S
O53 C57 1.244 . S
O54 Eu41 2.488 . S
O54 C70 1.249 . S
O55 Eu41 2.471 . S
O55 C70 1.244 . S
O56 Eu41 2.349 . S
O56 C57 1.265 . S
C57 O53 1.244 . S
C57 O56 1.265 . S
O58 Eu40 2.373 . S
O58 C71 1.258 1_655 S
O59 Eu41 2.392 . S
O59 C71 1.242 . S
O60 Eu41 2.418 1_655 S
O60 C42 1.244 . S
O61 Eu40 2.488 . S
O61 C49 1.249 . S
O62 Eu40 2.471 . S
O62 C49 1.244 . S
O63 Eu40 2.349 . S
O63 C42 1.265 . S
C64 C65 1.379 . S
C64 C68 1.373 . S
C64 C70 1.505 . S
C65 C64 1.379 . S
C65 C67 1.369 . S
C65 H76 0.930 . S
C66 C68 1.383 . S
C66 C69 1.382 . S
C66 H77 0.930 . S
C67 C65 1.369 . S
C67 C69 1.392 . S
C67 H78 0.930 . S
C68 C64 1.373 . S
C68 C66 1.383 . S
C68 H79 0.931 . S
C69 C66 1.382 . S
C69 C67 1.392 . S
C70 Eu41 2.828 . S
C70 O54 1.249 . S
C70 O55 1.244 . S
C70 C64 1.505 . S
C71 O58 1.258 1_455 S
C71 O59 1.242 . S
H72 C44 0.930 . S
H73 C45 0.930 . S
H74 C46 0.930 . S
H75 C47 0.931 . S
H76 C65 0.930 . S
H77 C66 0.930 . S
H78 C67 0.930 . S
H79 C68 0.931 . S
Eu80 C89 2.828 . S
Eu80 O91 2.392 . S
Eu80 O93 2.418 1_554 S
Eu80 O98 2.373 . S
Eu80 O101 2.488 . S
Eu80 O102 2.471 . S
Eu80 O103 2.349 . S
Eu81 O90 2.373 . S
Eu81 O94 2.488 . S
Eu81 O95 2.471 . S
Eu81 O96 2.349 . S
Eu81 O99 2.392 . S
Eu81 O100 2.418 1_556 S
Eu81 C110 2.828 . S
C82 O100 1.244 . S
C82 O103 1.265 . S
C83 C84 1.379 . S
C83 C87 1.373 . S
C83 C89 1.505 . S
C84 C83 1.379 . S
C84 C86 1.369 . S
C84 H112 0.930 . S
C85 C87 1.383 . S
C85 C88 1.382 . S
C85 H113 0.930 . S
C86 C84 1.369 . S
C86 C88 1.392 . S
C86 H114 0.930 . S
C87 C83 1.373 . S
C87 C85 1.383 . S
C87 H115 0.931 . S
C88 C85 1.382 . S
C88 C86 1.392 . S
C89 Eu80 2.828 . S
C89 C83 1.505 . S
C89 O101 1.249 . S
C89 O102 1.244 . S
O90 Eu81 2.373 . S
O90 C92 1.258 1_556 S
O91 Eu80 2.392 . S
O91 C92 1.242 . S
C92 O90 1.258 1_554 S
C92 O91 1.242 . S
O93 Eu80 2.418 1_556 S
O93 C97 1.244 . S
O94 Eu81 2.488 . S
O94 C110 1.249 . S
O95 Eu81 2.471 . S
O95 C110 1.244 . S
O96 Eu81 2.349 . S
O96 C97 1.265 . S
C97 O93 1.244 . S
C97 O96 1.265 . S
O98 Eu80 2.373 . S
O98 C111 1.258 1_554 S
O99 Eu81 2.392 . S
O99 C111 1.242 . S
O100 Eu81 2.418 1_554 S
O100 C82 1.244 . S
O101 Eu80 2.488 . S
O101 C89 1.249 . S
O102 Eu80 2.471 . S
O102 C89 1.244 . S
O103 Eu80 2.349 . S
O103 C82 1.265 . S
C104 C105 1.379 . S
C104 C108 1.373 . S
C104 C110 1.505 . S
C105 C104 1.379 . S
C105 C107 1.369 . S
C105 H116 0.930 . S
C106 C108 1.383 . S
C106 C109 1.382 . S
C106 H117 0.930 . S
C107 C105 1.369 . S
C107 C109 1.392 . S
C107 H118 0.930 . S
C108 C104 1.373 . S
C108 C106 1.383 . S
C108 H119 0.931 . S
C109 C106 1.382 . S
C109 C107 1.392 . S
C110 Eu81 2.828 . S
C110 O94 1.249 . S
C110 O95 1.244 . S
C110 C104 1.505 . S
C111 O98 1.258 1_556 S
C111 O99 1.242 . S
H112 C84 0.930 . S
H113 C85 0.930 . S
H114 C86 0.930 . S
H115 C87 0.931 . S
H116 C105 0.930 . S
H117 C106 0.930 . S
H118 C107 0.930 . S
H119 C108 0.931 . S
Eu120 C129 2.828 . S
Eu120 O131 2.392 . S
Eu120 O133 2.418 . S
Eu120 O138 2.373 . S
Eu120 O141 2.488 . S
Eu120 O142 2.471 . S
Eu120 O143 2.349 . S
Eu121 O130 2.373 . S
Eu121 O134 2.488 . S
Eu121 O135 2.471 . S
Eu121 O136 2.349 . S
Eu121 O139 2.392 . S
Eu121 O140 2.418 . S
Eu121 C150 2.828 . S
C122 O140 1.244 . S
C122 O143 1.265 . S
C123 C124 1.379 . S
C123 C127 1.373 . S
C123 C129 1.505 . S
C124 C123 1.379 . S
C124 C126 1.369 . S
C124 H152 0.930 . S
C125 C127 1.383 . S
C125 C128 1.382 . S
C125 H153 0.930 . S
C126 C124 1.369 . S
C126 C128 1.392 . S
C126 H154 0.930 . S
C127 C123 1.373 . S
C127 C125 1.383 . S
C127 H155 0.931 . S
C128 C125 1.382 . S
C128 C126 1.392 . S
C129 Eu120 2.828 . S
C129 C123 1.505 . S
C129 O141 1.249 . S
C129 O142 1.244 . S
O130 Eu121 2.373 . S
O130 C132 1.258 . S
O131 Eu120 2.392 . S
O131 C132 1.242 . S
C132 O130 1.258 . S
C132 O131 1.242 . S
O133 Eu120 2.418 . S
O133 C137 1.244 . S
O134 Eu121 2.488 . S
O134 C150 1.249 . S
O135 Eu121 2.471 . S
O135 C150 1.244 . S
O136 Eu121 2.349 . S
O136 C137 1.265 . S
C137 O133 1.244 . S
C137 O136 1.265 . S
O138 Eu120 2.373 . S
O138 C151 1.258 . S
O139 Eu121 2.392 . S
O139 C151 1.242 . S
O140 Eu121 2.418 . S
O140 C122 1.244 . S
O141 Eu120 2.488 . S
O141 C129 1.249 . S
O142 Eu120 2.471 . S
O142 C129 1.244 . S
O143 Eu120 2.349 . S
O143 C122 1.265 . S
C144 C145 1.379 . S
C144 C148 1.373 . S
C144 C150 1.505 . S
C145 C144 1.379 . S
C145 C147 1.369 . S
C145 H156 0.930 . S
C146 C148 1.383 . S
C146 C149 1.382 . S
C146 H157 0.930 . S
C147 C145 1.369 . S
C147 C149 1.392 . S
C147 H158 0.930 . S
C148 C144 1.373 . S
C148 C146 1.383 . S
C148 H159 0.931 . S
C149 C146 1.382 . S
C149 C147 1.392 . S
C150 Eu121 2.828 . S
C150 O134 1.249 . S
C150 O135 1.244 . S
C150 C144 1.505 . S
C151 O138 1.258 . S
C151 O139 1.242 . S
H152 C124 0.930 . S
H153 C125 0.930 . S
H154 C126 0.930 . S
H155 C127 0.931 . S
H156 C145 0.930 . S
H157 C146 0.930 . S
H158 C147 0.930 . S
H159 C148 0.931 . S
Eu160 C169 2.828 . S
Eu160 O171 2.392 . S
Eu160 O173 2.418 . S
Eu160 O178 2.373 . S
Eu160 O181 2.488 . S
Eu160 O182 2.471 . S
Eu160 O183 2.349 . S
Eu161 O170 2.373 . S
Eu161 O174 2.488 . S
Eu161 O175 2.471 . S
Eu161 O176 2.349 . S
Eu161 O179 2.392 . S
Eu161 O180 2.418 . S
Eu161 C190 2.828 . S
C162 O180 1.244 . S
C162 O183 1.265 . S
C163 C164 1.379 . S
C163 C167 1.373 . S
C163 C169 1.505 . S
C164 C163 1.379 . S
C164 C166 1.369 . S
C164 H192 0.930 . S
C165 C167 1.383 . S
C165 C168 1.382 . S
C165 H193 0.930 . S
C166 C164 1.369 . S
C166 C168 1.392 . S
C166 H194 0.930 . S
C167 C163 1.373 . S
C167 C165 1.383 . S
C167 H195 0.931 . S
C168 C165 1.382 . S
C168 C166 1.392 . S
C169 Eu160 2.828 . S
C169 C163 1.505 . S
C169 O181 1.249 . S
C169 O182 1.244 . S
O170 Eu161 2.373 . S
O170 C172 1.258 . S
O171 Eu160 2.392 . S
O171 C172 1.242 . S
C172 O170 1.258 . S
C172 O171 1.242 . S
O173 Eu160 2.418 . S
O173 C177 1.244 . S
O174 Eu161 2.488 . S
O174 C190 1.249 . S
O175 Eu161 2.471 . S
O175 C190 1.244 . S
O176 Eu161 2.349 . S
O176 C177 1.265 . S
C177 O173 1.244 . S
C177 O176 1.265 . S
O178 Eu160 2.373 . S
O178 C191 1.258 . S
O179 Eu161 2.392 . S
O179 C191 1.242 . S
O180 Eu161 2.418 . S
O180 C162 1.244 . S
O181 Eu160 2.488 . S
O181 C169 1.249 . S
O182 Eu160 2.471 . S
O182 C169 1.244 . S
O183 Eu160 2.349 . S
O183 C162 1.265 . S
C184 C185 1.379 . S
C184 C188 1.373 . S
C184 C190 1.505 . S
C185 C184 1.379 . S
C185 C187 1.369 . S
C185 H196 0.930 . S
C186 C188 1.383 . S
C186 C189 1.382 . S
C186 H197 0.930 . S
C187 C185 1.369 . S
C187 C189 1.392 . S
C187 H198 0.930 . S
C188 C184 1.373 . S
C188 C186 1.383 . S
C188 H199 0.931 . S
C189 C186 1.382 . S
C189 C187 1.392 . S
C190 Eu161 2.828 . S
C190 O174 1.249 . S
C190 O175 1.244 . S
C190 C184 1.505 . S
C191 O178 1.258 . S
C191 O179 1.242 . S
H192 C164 0.930 . S
H193 C165 0.930 . S
H194 C166 0.930 . S
H195 C167 0.931 . S
H196 C185 0.930 . S
H197 C186 0.930 . S
H198 C187 0.930 . S
H199 C188 0.931 . S
Eu200 C209 2.828 . S
Eu200 O211 2.392 1_655 S
Eu200 O213 2.418 . S
Eu200 O218 2.373 . S
Eu200 O221 2.488 . S
Eu200 O222 2.471 . S
Eu200 O223 2.349 1_655 S
Eu201 O210 2.373 . S
Eu201 O214 2.488 . S
Eu201 O215 2.471 . S
Eu201 O216 2.349 1_455 S
Eu201 O219 2.392 1_455 S
Eu201 O220 2.418 . S
Eu201 C230 2.828 . S
C202 O220 1.244 . S
C202 O223 1.265 . S
C203 C204 1.379 . S
C203 C207 1.373 . S
C203 C209 1.505 . S
C204 C203 1.379 . S
C204 C206 1.369 . S
C204 H232 0.930 . S
C205 C207 1.383 . S
C205 C208 1.382 . S
C205 H233 0.930 . S
C206 C204 1.369 . S
C206 C208 1.392 . S
C206 H234 0.930 . S
C207 C203 1.373 . S
C207 C205 1.383 . S
C207 H235 0.931 . S
C208 C205 1.382 . S
C208 C206 1.392 . S
C209 Eu200 2.828 . S
C209 C203 1.505 . S
C209 O221 1.249 . S
C209 O222 1.244 . S
O210 Eu201 2.373 . S
O210 C212 1.258 . S
O211 Eu200 2.392 1_455 S
O211 C212 1.242 . S
C212 O210 1.258 . S
C212 O211 1.242 . S
O213 Eu200 2.418 . S
O213 C217 1.244 . S
O214 Eu201 2.488 . S
O214 C230 1.249 . S
O215 Eu201 2.471 . S
O215 C230 1.244 . S
O216 Eu201 2.349 1_655 S
O216 C217 1.265 . S
C217 O213 1.244 . S
C217 O216 1.265 . S
O218 Eu200 2.373 . S
O218 C231 1.258 . S
O219 Eu201 2.392 1_655 S
O219 C231 1.242 . S
O220 Eu201 2.418 . S
O220 C202 1.244 . S
O221 Eu200 2.488 . S
O221 C209 1.249 . S
O222 Eu200 2.471 . S
O222 C209 1.244 . S
O223 Eu200 2.349 1_455 S
O223 C202 1.265 . S
C224 C225 1.379 . S
C224 C228 1.373 . S
C224 C230 1.505 . S
C225 C224 1.379 . S
C225 C227 1.369 . S
C225 H236 0.930 . S
C226 C228 1.383 . S
C226 C229 1.382 . S
C226 H237 0.930 . S
C227 C225 1.369 . S
C227 C229 1.392 . S
C227 H238 0.930 . S
C228 C224 1.373 . S
C228 C226 1.383 . S
C228 H239 0.931 . S
C229 C226 1.382 . S
C229 C227 1.392 . S
C230 Eu201 2.828 . S
C230 O214 1.249 . S
C230 O215 1.244 . S
C230 C224 1.505 . S
C231 O218 1.258 . S
C231 O219 1.242 . S
H232 C204 0.930 . S
H233 C205 0.930 . S
H234 C206 0.930 . S
H235 C207 0.931 . S
H236 C225 0.930 . S
H237 C226 0.930 . S
H238 C227 0.930 . S
H239 C228 0.931 . S
Eu240 C249 2.828 . S
Eu240 O251 2.392 1_554 S
Eu240 O253 2.418 . S
Eu240 O258 2.373 . S
Eu240 O261 2.488 . S
Eu240 O262 2.471 . S
Eu240 O263 2.349 1_554 S
Eu241 O250 2.373 . S
Eu241 O254 2.488 . S
Eu241 O255 2.471 . S
Eu241 O256 2.349 1_556 S
Eu241 O259 2.392 1_556 S
Eu241 O260 2.418 . S
Eu241 C270 2.828 . S
C242 O260 1.244 . S
C242 O263 1.265 . S
C243 C244 1.379 . S
C243 C247 1.373 . S
C243 C249 1.505 . S
C244 C243 1.379 . S
C244 C246 1.369 . S
C244 H272 0.930 . S
C245 C247 1.383 . S
C245 C248 1.382 . S
C245 H273 0.930 . S
C246 C244 1.369 . S
C246 C248 1.392 . S
C246 H274 0.930 . S
C247 C243 1.373 . S
C247 C245 1.383 . S
C247 H275 0.931 . S
C248 C245 1.382 . S
C248 C246 1.392 . S
C249 Eu240 2.828 . S
C249 C243 1.505 . S
C249 O261 1.249 . S
C249 O262 1.244 . S
O250 Eu241 2.373 . S
O250 C252 1.258 . S
O251 Eu240 2.392 1_556 S
O251 C252 1.242 . S
C252 O250 1.258 . S
C252 O251 1.242 . S
O253 Eu240 2.418 . S
O253 C257 1.244 . S
O254 Eu241 2.488 . S
O254 C270 1.249 . S
O255 Eu241 2.471 . S
O255 C270 1.244 . S
O256 Eu241 2.349 1_554 S
O256 C257 1.265 . S
C257 O253 1.244 . S
C257 O256 1.265 . S
O258 Eu240 2.373 . S
O258 C271 1.258 . S
O259 Eu241 2.392 1_554 S
O259 C271 1.242 . S
O260 Eu241 2.418 . S
O260 C242 1.244 . S
O261 Eu240 2.488 . S
O261 C249 1.249 . S
O262 Eu240 2.471 . S
O262 C249 1.244 . S
O263 Eu240 2.349 1_556 S
O263 C242 1.265 . S
C264 C265 1.379 . S
C264 C268 1.373 . S
C264 C270 1.505 . S
C265 C264 1.379 . S
C265 C267 1.369 . S
C265 H276 0.930 . S
C266 C268 1.383 . S
C266 C269 1.382 . S
C266 H277 0.930 . S
C267 C265 1.369 . S
C267 C269 1.392 . S
C267 H278 0.930 . S
C268 C264 1.373 . S
C268 C266 1.383 . S
C268 H279 0.931 . S
C269 C266 1.382 . S
C269 C267 1.392 . S
C270 Eu241 2.828 . S
C270 O254 1.249 . S
C270 O255 1.244 . S
C270 C264 1.505 . S
C271 O258 1.258 . S
C271 O259 1.242 . S
H272 C244 0.930 . S
H273 C245 0.930 . S
H274 C246 0.930 . S
H275 C247 0.931 . S
H276 C265 0.930 . S
H277 C266 0.930 . S
H278 C267 0.930 . S
H279 C268 0.931 . S
Eu280 C289 2.828 . S
Eu280 O291 2.392 . S
Eu280 O293 2.418 . S
Eu280 O298 2.373 . S
Eu280 O301 2.488 . S
Eu280 O302 2.471 . S
Eu280 O303 2.349 . S
Eu281 O290 2.373 . S
Eu281 O294 2.488 . S
Eu281 O295 2.471 . S
Eu281 O296 2.349 . S
Eu281 O299 2.392 . S
Eu281 O300 2.418 . S
Eu281 C310 2.828 . S
C282 O300 1.244 . S
C282 O303 1.265 . S
C283 C284 1.379 . S
C283 C287 1.373 . S
C283 C289 1.505 . S
C284 C283 1.379 . S
C284 C286 1.369 . S
C284 H312 0.930 . S
C285 C287 1.383 . S
C285 C288 1.382 . S
C285 H313 0.930 . S
C286 C284 1.369 . S
C286 C288 1.392 . S
C286 H314 0.930 . S
C287 C283 1.373 . S
C287 C285 1.383 . S
C287 H315 0.931 . S
C288 C285 1.382 . S
C288 C286 1.392 . S
C289 Eu280 2.828 . S
C289 C283 1.505 . S
C289 O301 1.249 . S
C289 O302 1.244 . S
O290 Eu281 2.373 . S
O290 C292 1.258 . S
O291 Eu280 2.392 . S
O291 C292 1.242 . S
C292 O290 1.258 . S
C292 O291 1.242 . S
O293 Eu280 2.418 . S
O293 C297 1.244 . S
O294 Eu281 2.488 . S
O294 C310 1.249 . S
O295 Eu281 2.471 . S
O295 C310 1.244 . S
O296 Eu281 2.349 . S
O296 C297 1.265 . S
C297 O293 1.244 . S
C297 O296 1.265 . S
O298 Eu280 2.373 . S
O298 C311 1.258 . S
O299 Eu281 2.392 . S
O299 C311 1.242 . S
O300 Eu281 2.418 . S
O300 C282 1.244 . S
O301 Eu280 2.488 . S
O301 C289 1.249 . S
O302 Eu280 2.471 . S
O302 C289 1.244 . S
O303 Eu280 2.349 . S
O303 C282 1.265 . S
C304 C305 1.379 . S
C304 C308 1.373 . S
C304 C310 1.505 . S
C305 C304 1.379 . S
C305 C307 1.369 . S
C305 H316 0.930 . S
C306 C308 1.383 . S
C306 C309 1.382 . S
C306 H317 0.930 . S
C307 C305 1.369 . S
C307 C309 1.392 . S
C307 H318 0.930 . S
C308 C304 1.373 . S
C308 C306 1.383 . S
C308 H319 0.931 . S
C309 C306 1.382 . S
C309 C307 1.392 . S
C310 Eu281 2.828 . S
C310 O294 1.249 . S
C310 O295 1.244 . S
C310 C304 1.505 . S
C311 O298 1.258 . S
C311 O299 1.242 . S
H312 C284 0.930 . S
H313 C285 0.930 . S
H314 C286 0.930 . S
H315 C287 0.931 . S
H316 C305 0.930 . S
H317 C306 0.930 . S
H318 C307 0.930 . S
H319 C308 0.931 . S
Eu320 C329 2.828 . S
Eu320 O331 2.392 . S
Eu320 O333 2.418 . S
Eu320 O338 2.373 . S
Eu320 O341 2.488 . S
Eu320 O342 2.471 . S
Eu320 O343 2.349 . S
Eu321 O330 2.373 . S
Eu321 O334 2.488 . S
Eu321 O335 2.471 . S
Eu321 O336 2.349 . S
Eu321 O339 2.392 . S
Eu321 O340 2.418 . S
Eu321 C350 2.828 . S
C322 O340 1.244 . S
C322 O343 1.265 . S
C323 C324 1.379 . S
C323 C327 1.373 . S
C323 C329 1.505 . S
C324 C323 1.379 . S
C324 C326 1.369 . S
C324 H352 0.930 . S
C325 C327 1.383 . S
C325 C328 1.382 . S
C325 H353 0.930 . S
C326 C324 1.369 . S
C326 C328 1.392 . S
C326 H354 0.930 . S
C327 C323 1.373 . S
C327 C325 1.383 . S
C327 H355 0.931 . S
C328 C325 1.382 . S
C328 C326 1.392 . S
C329 Eu320 2.828 . S
C329 C323 1.505 . S
C329 O341 1.249 . S
C329 O342 1.244 . S
O330 Eu321 2.373 . S
O330 C332 1.258 . S
O331 Eu320 2.392 . S
O331 C332 1.242 . S
C332 O330 1.258 . S
C332 O331 1.242 . S
O333 Eu320 2.418 . S
O333 C337 1.244 . S
O334 Eu321 2.488 . S
O334 C350 1.249 . S
O335 Eu321 2.471 . S
O335 C350 1.244 . S
O336 Eu321 2.349 . S
O336 C337 1.265 . S
C337 O333 1.244 . S
C337 O336 1.265 . S
O338 Eu320 2.373 . S
O338 C351 1.258 . S
O339 Eu321 2.392 . S
O339 C351 1.242 . S
O340 Eu321 2.418 . S
O340 C322 1.244 . S
O341 Eu320 2.488 . S
O341 C329 1.249 . S
O342 Eu320 2.471 . S
O342 C329 1.244 . S
O343 Eu320 2.349 . S
O343 C322 1.265 . S
C344 C345 1.379 . S
C344 C348 1.373 . S
C344 C350 1.505 . S
C345 C344 1.379 . S
C345 C347 1.369 . S
C345 H356 0.930 . S
C346 C348 1.383 . S
C346 C349 1.382 . S
C346 H357 0.930 . S
C347 C345 1.369 . S
C347 C349 1.392 . S
C347 H358 0.930 . S
C348 C344 1.373 . S
C348 C346 1.383 . S
C348 H359 0.931 . S
C349 C346 1.382 . S
C349 C347 1.392 . S
C350 Eu321 2.828 . S
C350 O334 1.249 . S
C350 O335 1.244 . S
C350 C344 1.505 . S
C351 O338 1.258 . S
C351 O339 1.242 . S
H352 C324 0.930 . S
H353 C325 0.930 . S
H354 C326 0.930 . S
H355 C327 0.931 . S
H356 C345 0.930 . S
H357 C346 0.930 . S
H358 C347 0.930 . S
H359 C348 0.931 . S
Eu360 C369 2.828 . S
Eu360 O371 2.392 . S
Eu360 O373 2.418 1_565 S
Eu360 O378 2.373 1_565 S
Eu360 O381 2.488 . S
Eu360 O382 2.471 . S
Eu360 O383 2.349 . S
Eu361 O370 2.373 . S
Eu361 O374 2.488 . S
Eu361 O375 2.471 . S
Eu361 O376 2.349 . S
Eu361 O379 2.392 . S
Eu361 O380 2.418 1_545 S
Eu361 C390 2.828 . S
C362 O380 1.244 . S
C362 O383 1.265 . S
C363 C364 1.379 . S
C363 C367 1.373 . S
C363 C369 1.505 . S
C364 C363 1.379 . S
C364 C366 1.369 . S
C364 H392 0.930 . S
C365 C367 1.383 . S
C365 C368 1.382 . S
C365 H393 0.930 . S
C366 C364 1.369 . S
C366 C368 1.392 . S
C366 H394 0.930 . S
C367 C363 1.373 . S
C367 C365 1.383 . S
C367 H395 0.931 . S
C368 C365 1.382 . S
C368 C366 1.392 . S
C369 Eu360 2.828 . S
C369 C363 1.505 . S
C369 O381 1.249 . S
C369 O382 1.244 . S
O370 Eu361 2.373 . S
O370 C372 1.258 1_545 S
O371 Eu360 2.392 . S
O371 C372 1.242 . S
C372 O370 1.258 1_565 S
C372 O371 1.242 . S
O373 Eu360 2.418 1_545 S
O373 C377 1.244 . S
O374 Eu361 2.488 . S
O374 C390 1.249 . S
O375 Eu361 2.471 . S
O375 C390 1.244 . S
O376 Eu361 2.349 . S
O376 C377 1.265 . S
C377 O373 1.244 . S
C377 O376 1.265 . S
O378 Eu360 2.373 1_545 S
O378 C391 1.258 . S
O379 Eu361 2.392 . S
O379 C391 1.242 . S
O380 Eu361 2.418 1_565 S
O380 C362 1.244 . S
O381 Eu360 2.488 . S
O381 C369 1.249 . S
O382 Eu360 2.471 . S
O382 C369 1.244 . S
O383 Eu360 2.349 . S
O383 C362 1.265 . S
C384 C385 1.379 . S
C384 C388 1.373 . S
C384 C390 1.505 . S
C385 C384 1.379 . S
C385 C387 1.369 . S
C385 H396 0.930 . S
C386 C388 1.383 . S
C386 C389 1.382 . S
C386 H397 0.930 . S
C387 C385 1.369 . S
C387 C389 1.392 . S
C387 H398 0.930 . S
C388 C384 1.373 . S
C388 C386 1.383 . S
C388 H399 0.931 . S
C389 C386 1.382 . S
C389 C387 1.392 . S
C390 Eu361 2.828 . S
C390 O374 1.249 . S
C390 O375 1.244 . S
C390 C384 1.505 . S
C391 O378 1.258 . S
C391 O379 1.242 . S
H392 C364 0.930 . S
H393 C365 0.930 . S
H394 C366 0.930 . S
H395 C367 0.931 . S
H396 C385 0.930 . S
H397 C386 0.930 . S
H398 C387 0.930 . S
H399 C388 0.931 . S
Eu400 C409 2.828 . S
Eu400 O411 2.392 1_565 S
Eu400 O413 2.418 . S
Eu400 O418 2.373 . S
Eu400 O421 2.488 . S
Eu400 O422 2.471 . S
Eu400 O423 2.349 . S
Eu401 O410 2.373 . S
Eu401 O414 2.488 . S
Eu401 O415 2.471 . S
Eu401 O416 2.349 1_545 S
Eu401 O419 2.392 1_545 S
Eu401 O420 2.418 . S
Eu401 C430 2.828 . S
C402 O420 1.244 . S
C402 O423 1.265 1_545 S
C403 C404 1.379 . S
C403 C407 1.373 . S
C403 C409 1.505 . S
C404 C403 1.379 . S
C404 C406 1.369 . S
C404 H432 0.930 . S
C405 C407 1.383 . S
C405 C408 1.382 . S
C405 H433 0.930 . S
C406 C404 1.369 . S
C406 C408 1.392 . S
C406 H434 0.930 . S
C407 C403 1.373 . S
C407 C405 1.383 . S
C407 H435 0.931 . S
C408 C405 1.382 . S
C408 C406 1.392 . S
C409 Eu400 2.828 . S
C409 C403 1.505 . S
C409 O421 1.249 . S
C409 O422 1.244 . S
O410 Eu401 2.373 . S
O410 C412 1.258 . S
O411 Eu400 2.392 1_545 S
O411 C412 1.242 . S
C412 O410 1.258 . S
C412 O411 1.242 . S
O413 Eu400 2.418 . S
O413 C417 1.244 . S
O414 Eu401 2.488 . S
O414 C430 1.249 . S
O415 Eu401 2.471 . S
O415 C430 1.244 . S
O416 Eu401 2.349 1_565 S
O416 C417 1.265 . S
C417 O413 1.244 . S
C417 O416 1.265 . S
O418 Eu400 2.373 . S
O418 C431 1.258 . S
O419 Eu401 2.392 1_565 S
O419 C431 1.242 . S
O420 Eu401 2.418 . S
O420 C402 1.244 . S
O421 Eu400 2.488 . S
O421 C409 1.249 . S
O422 Eu400 2.471 . S
O422 C409 1.244 . S
O423 Eu400 2.349 . S
O423 C402 1.265 1_565 S
C424 C425 1.379 . S
C424 C428 1.373 . S
C424 C430 1.505 . S
C425 C424 1.379 . S
C425 C427 1.369 . S
C425 H436 0.930 . S
C426 C428 1.383 . S
C426 C429 1.382 . S
C426 H437 0.930 . S
C427 C425 1.369 . S
C427 C429 1.392 . S
C427 H438 0.930 . S
C428 C424 1.373 . S
C428 C426 1.383 . S
C428 H439 0.931 . S
C429 C426 1.382 . S
C429 C427 1.392 . S
C430 Eu401 2.828 . S
C430 O414 1.249 . S
C430 O415 1.244 . S
C430 C424 1.505 . S
C431 O418 1.258 . S
C431 O419 1.242 . S
H432 C404 0.930 . S
H433 C405 0.930 . S
H434 C406 0.930 . S
H435 C407 0.931 . S
H436 C425 0.930 . S
H437 C426 0.930 . S
H438 C427 0.930 . S
H439 C428 0.931 . S
Eu440 C449 2.828 . S
Eu440 O451 2.392 . S
Eu440 O453 2.418 . S
Eu440 O458 2.373 . S
Eu440 O461 2.488 . S
Eu440 O462 2.471 . S
Eu440 O463 2.349 . S
Eu441 O450 2.373 . S
Eu441 O454 2.488 . S
Eu441 O455 2.471 . S
Eu441 O456 2.349 . S
Eu441 O459 2.392 . S
Eu441 O460 2.418 . S
Eu441 C470 2.828 . S
C442 O460 1.244 . S
C442 O463 1.265 . S
C443 C444 1.379 . S
C443 C447 1.373 . S
C443 C449 1.505 . S
C444 C443 1.379 . S
C444 C446 1.369 . S
C444 H472 0.930 . S
C445 C447 1.383 . S
C445 C448 1.382 . S
C445 H473 0.930 . S
C446 C444 1.369 . S
C446 C448 1.392 . S
C446 H474 0.930 . S
C447 C443 1.373 . S
C447 C445 1.383 . S
C447 H475 0.931 . S
C448 C445 1.382 . S
C448 C446 1.392 . S
C449 Eu440 2.828 . S
C449 C443 1.505 . S
C449 O461 1.249 . S
C449 O462 1.244 . S
O450 Eu441 2.373 . S
O450 C452 1.258 . S
O451 Eu440 2.392 . S
O451 C452 1.242 . S
C452 O450 1.258 . S
C452 O451 1.242 . S
O453 Eu440 2.418 . S
O453 C457 1.244 . S
O454 Eu441 2.488 . S
O454 C470 1.249 . S
O455 Eu441 2.471 . S
O455 C470 1.244 . S
O456 Eu441 2.349 . S
O456 C457 1.265 . S
C457 O453 1.244 . S
C457 O456 1.265 . S
O458 Eu440 2.373 . S
O458 C471 1.258 . S
O459 Eu441 2.392 . S
O459 C471 1.242 . S
O460 Eu441 2.418 . S
O460 C442 1.244 . S
O461 Eu440 2.488 . S
O461 C449 1.249 . S
O462 Eu440 2.471 . S
O462 C449 1.244 . S
O463 Eu440 2.349 . S
O463 C442 1.265 . S
C464 C465 1.379 . S
C464 C468 1.373 . S
C464 C470 1.505 . S
C465 C464 1.379 . S
C465 C467 1.369 . S
C465 H476 0.930 . S
C466 C468 1.383 . S
C466 C469 1.382 . S
C466 H477 0.930 . S
C467 C465 1.369 . S
C467 C469 1.392 . S
C467 H478 0.930 . S
C468 C464 1.373 . S
C468 C466 1.383 . S
C468 H479 0.931 . S
C469 C466 1.382 . S
C469 C467 1.392 . S
C470 Eu441 2.828 . S
C470 O454 1.249 . S
C470 O455 1.244 . S
C470 C464 1.505 . S
C471 O458 1.258 . S
C471 O459 1.242 . S
H472 C444 0.930 . S
H473 C445 0.930 . S
H474 C446 0.930 . S
H475 C447 0.931 . S
H476 C465 0.930 . S
H477 C466 0.930 . S
H478 C467 0.930 . S
H479 C468 0.931 . S
H480 C486 0.930 . S
H481 C489 0.930 . S
H482 C490 0.930 . S
H483 C491 0.930 . S
H484 C494 0.930 . S
H485 C495 0.930 . S
C486 H480 0.930 . S
C486 C487 1.355 . S
C486 C488 1.415 . S
C487 C486 1.355 . S
C487 C489 1.419 . S
C488 C486 1.415 . S
C488 C493 1.425 . S
C488 C495 1.409 . S
C489 H481 0.930 . S
C489 C487 1.419 . S
C489 C490 1.362 . S
C490 H482 0.930 . S
C490 C489 1.362 . S
C490 C493 1.409 . S
C491 H483 0.930 . S
C491 C492 1.355 . S
C491 C493 1.415 . S
C492 C491 1.355 . S
C492 C494 1.419 . S
C493 C488 1.425 . S
C493 C490 1.409 . S
C493 C491 1.415 . S
C494 H484 0.930 . S
C494 C492 1.419 . S
C494 C495 1.362 . S
C495 H485 0.930 . S
C495 C488 1.409 . S
C495 C494 1.362 . S
H496 C502 0.930 . S
H497 C505 0.930 . S
H498 C506 0.930 1_545 S
H499 C507 0.930 . S
H500 C510 0.930 . S
H501 C511 0.930 . S
C502 H496 0.930 . S
C502 C503 1.355 . S
C502 C504 1.415 . S
C503 C502 1.355 . S
C503 C505 1.419 1_565 S
C504 C502 1.415 . S
C504 C509 1.425 . S
C504 C511 1.409 . S
C505 H497 0.930 . S
C505 C503 1.419 1_545 S
C505 C506 1.362 1_545 S
C506 H498 0.930 1_565 S
C506 C505 1.362 1_565 S
C506 C509 1.409 . S
C507 H499 0.930 . S
C507 C508 1.355 . S
C507 C509 1.415 . S
C508 C507 1.355 . S
C508 C510 1.419 . S
C509 C504 1.425 . S
C509 C506 1.409 . S
C509 C507 1.415 . S
C510 H500 0.930 . S
C510 C508 1.419 . S
C510 C511 1.362 . S
C511 H501 0.930 . S
C511 C504 1.409 . S
C511 C510 1.362 . S
H512 C518 0.930 1_556 S
H513 C521 0.930 . S
H514 C522 0.930 . S
H515 C523 0.930 . S
H516 C526 0.930 . S
H517 C527 0.930 1_556 S
C518 H512 0.930 1_554 S
C518 C519 1.355 . S
C518 C520 1.415 . S
C519 C518 1.355 . S
C519 C521 1.419 . S
C520 C518 1.415 . S
C520 C525 1.425 . S
C520 C527 1.409 . S
C521 H513 0.930 . S
C521 C519 1.419 . S
C521 C522 1.362 . S
C522 H514 0.930 . S
C522 C521 1.362 . S
C522 C525 1.409 . S
C523 H515 0.930 . S
C523 C524 1.355 . S
C523 C525 1.415 . S
C524 C523 1.355 . S
C524 C526 1.419 . S
C525 C520 1.425 . S
C525 C522 1.409 . S
C525 C523 1.415 . S
C526 H516 0.930 . S
C526 C524 1.419 . S
C526 C527 1.362 . S
C527 H517 0.930 1_554 S
C527 C520 1.409 . S
C527 C526 1.362 . S
H528 C534 0.930 . S
H529 C537 0.930 . S
H530 C538 0.930 . S
H531 C539 0.930 . S
H532 C542 0.916 1_565 S
H533 C543 0.930 1_565 S
C534 H528 0.930 . S
C534 C535 1.355 . S
C534 C536 1.415 . S
C535 C534 1.355 . S
C535 C537 1.419 . S
C536 C534 1.415 . S
C536 C541 1.425 . S
C536 C543 1.409 . S
C537 H529 0.930 . S
C537 C535 1.419 . S
C537 C538 1.362 . S
C538 H530 0.930 . S
C538 C537 1.362 . S
C538 C541 1.409 . S
C539 H531 0.930 . S
C539 C540 1.355 . S
C539 C541 1.415 . S
C540 C539 1.355 . S
C540 C542 1.433 . S
C541 C536 1.425 . S
C541 C538 1.409 . S
C541 C539 1.415 . S
C542 H532 0.916 1_545 S
C542 C540 1.433 . S
C542 C543 1.363 . S
C543 H533 0.930 1_545 S
C543 C536 1.409 . S
C543 C542 1.363 . S
H544 C550 0.930 . S
H545 C553 0.930 . S
H546 C554 0.930 . S
H547 C555 0.930 . S
H548 C558 0.930 . S
H549 C559 0.930 . S
C550 H544 0.930 . S
C550 C551 1.355 . S
C550 C552 1.415 . S
C551 C550 1.355 . S
C551 C553 1.419 . S
C552 C550 1.415 . S
C552 C557 1.425 . S
C552 C559 1.409 . S
C553 H545 0.930 . S
C553 C551 1.419 . S
C553 C554 1.362 . S
C554 H546 0.930 . S
C554 C553 1.362 . S
C554 C557 1.409 . S
C555 H547 0.930 . S
C555 C556 1.355 . S
C555 C557 1.415 . S
C556 C555 1.355 . S
C556 C558 1.419 . S
C557 C552 1.425 . S
C557 C554 1.409 . S
C557 C555 1.415 . S
C558 H548 0.930 . S
C558 C556 1.419 . S
C558 C559 1.362 . S
C559 H549 0.930 . S
C559 C552 1.409 . S
C559 C558 1.362 . S
H560 C566 0.930 . S
H561 C569 0.930 . S
H562 C570 0.930 . S
H563 C571 0.930 . S
H564 C574 0.930 . S
H565 C575 0.930 . S
C566 H560 0.930 . S
C566 C567 1.355 . S
C566 C568 1.415 . S
C567 C566 1.355 . S
C567 C569 1.419 . S
C568 C566 1.415 . S
C568 C573 1.425 . S
C568 C575 1.409 . S
C569 H561 0.930 . S
C569 C567 1.419 . S
C569 C570 1.362 . S
C570 H562 0.930 . S
C570 C569 1.362 . S
C570 C573 1.409 . S
C571 H563 0.930 . S
C571 C572 1.355 . S
C571 C573 1.415 . S
C572 C571 1.355 . S
C572 C574 1.419 . S
C573 C568 1.425 . S
C573 C570 1.409 . S
C573 C571 1.415 . S
C574 H564 0.930 . S
C574 C572 1.419 . S
C574 C575 1.362 . S
C575 H565 0.930 . S
C575 C568 1.409 . S
C575 C574 1.362 . S
H576 C582 0.930 . S
H577 C585 0.930 . S
H578 C586 0.930 . S
H579 C587 0.930 . S
H580 C590 0.930 . S
H581 C591 0.930 . S
C582 H576 0.930 . S
C582 C583 1.355 . S
C582 C584 1.415 . S
C583 C582 1.355 . S
C583 C585 1.419 . S
C584 C582 1.415 . S
C584 C589 1.425 . S
C584 C591 1.409 . S
C585 H577 0.930 . S
C585 C583 1.419 . S
C585 C586 1.362 . S
C586 H578 0.930 . S
C586 C585 1.362 . S
C586 C589 1.409 . S
C587 H579 0.930 . S
C587 C588 1.355 . S
C587 C589 1.415 . S
C588 C587 1.355 . S
C588 C590 1.419 . S
C589 C584 1.425 . S
C589 C586 1.409 . S
C589 C587 1.415 . S
C590 H580 0.930 . S
C590 C588 1.419 . S
C590 C591 1.362 . S
C591 H581 0.930 . S
C591 C584 1.409 . S
C591 C590 1.362 . S
H592 C598 0.930 . S
H593 C601 0.930 . S
H594 C602 0.930 . S
H595 C603 0.930 . S
H596 C606 0.930 . S
H597 C607 0.930 . S
C598 H592 0.930 . S
C598 C599 1.355 . S
C598 C600 1.415 . S
C599 C598 1.355 . S
C599 C601 1.419 . S
C600 C598 1.415 . S
C600 C605 1.425 . S
C600 C607 1.409 . S
C601 H593 0.930 . S
C601 C599 1.419 . S
C601 C602 1.362 . S
C602 H594 0.930 . S
C602 C601 1.362 . S
C602 C605 1.409 . S
C603 H595 0.930 . S
C603 C604 1.355 . S
C603 C605 1.415 . S
C604 C603 1.355 . S
C604 C606 1.419 . S
C605 C600 1.425 . S
C605 C602 1.409 . S
C605 C603 1.415 . S
C606 H596 0.930 . S
C606 C604 1.419 . S
C606 C607 1.362 . S
C607 H597 0.930 . S
C607 C600 1.409 . S
C607 C606 1.362 . S
H608 C614 0.930 . S
H609 C617 0.930 . S
H610 C618 0.930 . S
H611 C619 0.930 . S
H612 C622 0.930 . S
H613 C623 0.930 . S
C614 H608 0.930 . S
C614 C615 1.355 . S
C614 C616 1.415 . S
C615 C614 1.355 . S
C615 C617 1.419 . S
C616 C614 1.415 . S
C616 C621 1.425 . S
C616 C623 1.409 . S
C617 H609 0.930 . S
C617 C615 1.419 . S
C617 C618 1.362 . S
C618 H610 0.930 . S
C618 C617 1.362 . S
C618 C621 1.409 . S
C619 H611 0.930 . S
C619 C620 1.355 . S
C619 C621 1.415 . S
C620 C619 1.355 . S
C620 C622 1.419 . S
C621 C616 1.425 . S
C621 C618 1.409 . S
C621 C619 1.415 . S
C622 H612 0.930 . S
C622 C620 1.419 . S
C622 C623 1.362 . S
C623 H613 0.930 . S
C623 C616 1.409 . S
C623 C622 1.362 . S
H624 C630 0.930 . S
H625 C633 0.930 . S
H626 C634 0.930 . S
H627 C635 0.930 . S
H628 C638 0.930 . S
H629 C639 0.930 . S
C630 H624 0.930 . S
C630 C631 1.355 . S
C630 C632 1.415 . S
C631 C630 1.355 . S
C631 C633 1.419 . S
C632 C630 1.415 . S
C632 C637 1.425 . S
C632 C639 1.409 . S
C633 H625 0.930 . S
C633 C631 1.419 . S
C633 C634 1.362 . S
C634 H626 0.930 . S
C634 C633 1.362 . S
C634 C637 1.409 . S
C635 H627 0.930 . S
C635 C636 1.355 . S
C635 C637 1.415 . S
C636 C635 1.355 . S
C636 C638 1.419 . S
C637 C632 1.425 . S
C637 C634 1.409 . S
C637 C635 1.415 . S
C638 H628 0.930 . S
C638 C636 1.419 . S
C638 C639 1.362 . S
C639 H629 0.930 . S
C639 C632 1.409 . S
C639 C638 1.362 . S
H640 C646 0.930 . S
H641 C649 0.930 1_455 S
H642 C650 0.930 1_455 S
H643 C651 0.930 . S
H644 C654 0.930 . S
H645 C655 0.930 . S
C646 H640 0.930 . S
C646 C647 1.355 . S
C646 C648 1.415 . S
C647 C646 1.355 . S
C647 C649 1.419 . S
C648 C646 1.415 . S
C648 C653 1.425 . S
C648 C655 1.409 . S
C649 H641 0.930 1_655 S
C649 C647 1.419 . S
C649 C650 1.362 . S
C650 H642 0.930 1_655 S
C650 C649 1.362 . S
C650 C653 1.409 . S
C651 H643 0.930 . S
C651 C652 1.355 . S
C651 C653 1.415 . S
C652 C651 1.355 . S
C652 C654 1.419 . S
C653 C648 1.425 . S
C653 C650 1.409 . S
C653 C651 1.415 . S
C654 H644 0.930 . S
C654 C652 1.419 . S
C654 C655 1.362 . S
C655 H645 0.930 . S
C655 C648 1.409 . S
C655 C654 1.362 . S
H656 C662 0.930 . S
H657 C665 0.930 . S
H658 C666 0.930 . S
H659 C667 0.930 . S
H660 C670 0.930 . S
H661 C671 0.930 . S
C662 H656 0.930 . S
C662 C663 1.355 . S
C662 C664 1.415 . S
C663 C662 1.355 . S
C663 C665 1.419 . S
C664 C662 1.415 . S
C664 C669 1.425 . S
C664 C671 1.409 . S
C665 H657 0.930 . S
C665 C663 1.419 . S
C665 C666 1.362 . S
C666 H658 0.930 . S
C666 C665 1.362 . S
C666 C669 1.409 . S
C667 H659 0.930 . S
C667 C668 1.355 . S
C667 C669 1.415 . S
C668 C667 1.355 . S
C668 C670 1.419 . S
C669 C664 1.425 . S
C669 C666 1.409 . S
C669 C667 1.415 . S
C670 H660 0.930 . S
C670 C668 1.419 . S
C670 C671 1.362 . S
C671 H661 0.930 . S
C671 C664 1.409 . S
C671 C670 1.362 . S
H672 C678 0.930 . S
H673 C681 0.930 . S
H674 C682 0.930 . S
H675 C683 0.930 . S
H676 C686 0.930 . S
H677 C687 0.930 . S
C678 H672 0.930 . S
C678 C679 1.355 . S
C678 C680 1.415 . S
C679 C678 1.355 . S
C679 C681 1.419 . S
C680 C678 1.415 . S
C680 C685 1.425 . S
C680 C687 1.409 . S
C681 H673 0.930 . S
C681 C679 1.419 . S
C681 C682 1.362 . S
C682 H674 0.930 . S
C682 C681 1.362 . S
C682 C685 1.409 . S
C683 H675 0.930 . S
C683 C684 1.355 . S
C683 C685 1.415 . S
C684 C683 1.355 . S
C684 C686 1.419 . S
C685 C680 1.425 . S
C685 C682 1.409 . S
C685 C683 1.415 . S
C686 H676 0.930 . S
C686 C684 1.419 . S
C686 C687 1.362 . S
C687 H677 0.930 . S
C687 C680 1.409 . S
C687 C686 1.362 . S
H688 C694 0.930 . S
H689 C697 0.930 . S
H690 C698 0.930 . S
H691 C699 0.930 . S
H692 C702 0.930 . S
H693 C703 0.930 . S
C694 H688 0.930 . S
C694 C695 1.355 . S
C694 C696 1.415 . S
C695 C694 1.355 . S
C695 C697 1.419 . S
C696 C694 1.415 . S
C696 C701 1.425 . S
C696 C703 1.409 . S
C697 H689 0.930 . S
C697 C695 1.419 . S
C697 C698 1.362 . S
C698 H690 0.930 . S
C698 C697 1.362 . S
C698 C701 1.409 . S
C699 H691 0.930 . S
C699 C700 1.355 . S
C699 C701 1.415 . S
C700 C699 1.355 . S
C700 C702 1.419 . S
C701 C696 1.425 . S
C701 C698 1.409 . S
C701 C699 1.415 . S
C702 H692 0.930 . S
C702 C700 1.419 . S
C702 C703 1.362 . S
C703 H693 0.930 . S
C703 C696 1.409 . S
C703 C702 1.362 . S
H704 C710 0.930 . S
H705 C713 0.930 . S
H706 C714 0.930 . S
H707 C715 0.930 . S
H708 C718 0.930 . S
H709 C719 0.930 . S
C710 H704 0.930 . S
C710 C711 1.355 . S
C710 C712 1.415 . S
C711 C710 1.355 . S
C711 C713 1.419 . S
C712 C710 1.415 . S
C712 C717 1.425 . S
C712 C719 1.409 . S
C713 H705 0.930 . S
C713 C711 1.419 . S
C713 C714 1.362 . S
C714 H706 0.930 . S
C714 C713 1.362 . S
C714 C717 1.409 . S
C715 H707 0.930 . S
C715 C716 1.355 . S
C715 C717 1.415 . S
C716 C715 1.355 . S
C716 C718 1.419 . S
C717 C712 1.425 . S
C717 C714 1.409 . S
C717 C715 1.415 . S
C718 H708 0.930 . S
C718 C716 1.419 . S
C718 C719 1.362 . S
C719 H709 0.930 . S
C719 C712 1.409 . S
C719 C718 1.362 . S
H720 C726 0.930 . S
H721 C729 0.930 . S
H722 C730 0.930 . S
H723 C731 0.930 . S
H724 C734 0.930 . S
H725 C735 0.930 . S
C726 H720 0.930 . S
C726 C727 1.355 . S
C726 C728 1.415 1_554 S
C727 C726 1.355 . S
C727 C729 1.419 . S
C728 C726 1.415 1_556 S
C728 C733 1.425 1_556 S
C728 C735 1.409 . S
C729 H721 0.930 . S
C729 C727 1.419 . S
C729 C730 1.362 . S
C730 H722 0.930 . S
C730 C729 1.362 . S
C730 C733 1.409 . S
C731 H723 0.930 . S
C731 C732 1.355 . S
C731 C733 1.415 1_556 S
C732 C731 1.355 . S
C732 C734 1.419 . S
C733 C728 1.425 1_554 S
C733 C730 1.409 . S
C733 C731 1.415 1_554 S
C734 H724 0.930 . S
C734 C732 1.419 . S
C734 C735 1.362 . S
C735 H725 0.930 . S
C735 C728 1.409 . S
C735 C734 1.362 . S
H736 C742 0.930 . S
H737 C745 0.930 . S
H738 C746 0.930 . S
H739 C747 0.930 . S
H740 C750 0.930 . S
H741 C751 0.930 . S
C742 H736 0.930 . S
C742 C743 1.355 . S
C742 C744 1.415 . S
C743 C742 1.355 . S
C743 C745 1.419 . S
C744 C742 1.415 . S
C744 C749 1.425 . S
C744 C751 1.409 . S
C745 H737 0.930 . S
C745 C743 1.419 . S
C745 C746 1.362 . S
C746 H738 0.930 . S
C746 C745 1.362 . S
C746 C749 1.409 . S
C747 H739 0.930 . S
C747 C748 1.355 . S
C747 C749 1.415 . S
C748 C747 1.355 . S
C748 C750 1.419 . S
C749 C744 1.425 . S
C749 C746 1.409 . S
C749 C747 1.415 . S
C750 H740 0.930 . S
C750 C748 1.419 . S
C750 C751 1.362 . S
C751 H741 0.930 . S
C751 C744 1.409 . S
C751 C750 1.362 . S
H752 C758 0.930 . S
H753 C761 0.930 . S
H754 C762 0.930 . S
H755 C763 0.930 . S
H756 C766 0.930 . S
H757 C767 0.930 . S
C758 H752 0.930 . S
C758 C759 1.355 . S
C758 C760 1.415 1_554 S
C759 C758 1.355 . S
C759 C761 1.419 . S
C760 C758 1.415 1_556 S
C760 C765 1.425 . S
C760 C767 1.409 . S
C761 H753 0.930 . S
C761 C759 1.419 . S
C761 C762 1.362 . S
C762 H754 0.930 . S
C762 C761 1.362 . S
C762 C765 1.409 1_554 S
C763 H755 0.930 . S
C763 C764 1.355 . S
C763 C765 1.415 . S
C764 C763 1.355 . S
C764 C766 1.419 . S
C765 C760 1.425 . S
C765 C762 1.409 1_556 S
C765 C763 1.415 . S
C766 H756 0.930 . S
C766 C764 1.419 . S
C766 C767 1.362 . S
C767 H757 0.930 . S
C767 C760 1.409 . S
C767 C766 1.362 . S
H768 C774 0.930 . S
H769 C777 0.930 . S
H770 C778 0.930 . S
H771 C779 0.930 . S
H772 C782 0.930 . S
H773 C783 0.930 . S
C774 H768 0.930 . S
C774 C775 1.355 . S
C774 C776 1.415 . S
C775 C774 1.355 . S
C775 C777 1.419 . S
C776 C774 1.415 . S
C776 C781 1.425 . S
C776 C783 1.409 . S
C777 H769 0.930 . S
C777 C775 1.419 . S
C777 C778 1.362 . S
C778 H770 0.930 . S
C778 C777 1.362 . S
C778 C781 1.409 . S
C779 H771 0.930 . S
C779 C780 1.355 . S
C779 C781 1.415 . S
C780 C779 1.355 . S
C780 C782 1.419 . S
C781 C776 1.425 . S
C781 C778 1.409 . S
C781 C779 1.415 . S
C782 H772 0.930 . S
C782 C780 1.419 . S
C782 C783 1.362 . S
C783 H773 0.930 . S
C783 C776 1.409 . S
C783 C782 1.362 . S
H784 C790 0.930 . S
H785 C793 0.930 . S
H786 C794 0.930 . S
H787 C795 0.930 . S
H788 C798 0.930 . S
H789 C799 0.930 . S
C790 H784 0.930 . S
C790 C791 1.355 . S
C790 C792 1.415 . S
C791 C790 1.355 . S
C791 C793 1.419 . S
C792 C790 1.415 . S
C792 C797 1.425 . S
C792 C799 1.409 . S
C793 H785 0.930 . S
C793 C791 1.419 . S
C793 C794 1.362 . S
C794 H786 0.930 . S
C794 C793 1.362 . S
C794 C797 1.409 . S
C795 H787 0.930 . S
C795 C796 1.355 . S
C795 C797 1.415 . S
C796 C795 1.355 . S
C796 C798 1.419 . S
C797 C792 1.425 . S
C797 C794 1.409 . S
C797 C795 1.415 . S
C798 H788 0.930 . S
C798 C796 1.419 . S
C798 C799 1.362 . S
C799 H789 0.930 . S
C799 C792 1.409 . S
C799 C798 1.362 . S
H800 C806 0.930 . S
H801 C809 0.930 . S
H802 C810 0.930 . S
H803 C811 0.930 . S
H804 C814 0.930 . S
H805 C815 0.930 . S
C806 H800 0.930 . S
C806 C807 1.355 . S
C806 C808 1.415 . S
C807 C806 1.355 . S
C807 C809 1.419 . S
C808 C806 1.415 . S
C808 C813 1.425 . S
C808 C815 1.409 . S
C809 H801 0.930 . S
C809 C807 1.419 . S
C809 C810 1.362 . S
C810 H802 0.930 . S
C810 C809 1.362 . S
C810 C813 1.409 . S
C811 H803 0.930 . S
C811 C812 1.355 . S
C811 C813 1.415 . S
C812 C811 1.355 . S
C812 C814 1.419 . S
C813 C808 1.425 . S
C813 C810 1.409 . S
C813 C811 1.415 . S
C814 H804 0.930 . S
C814 C812 1.419 . S
C814 C815 1.362 . S
C815 H805 0.930 . S
C815 C808 1.409 . S
C815 C814 1.362 . S
H816 C822 0.930 . S
H817 C825 0.930 . S
H818 C826 0.930 1_655 S
H819 C827 0.930 1_655 S
H820 C830 0.930 . S
H821 C831 0.930 . S
C822 H816 0.930 . S
C822 C823 1.355 . S
C822 C824 1.415 1_545 S
C823 C822 1.355 . S
C823 C825 1.419 . S
C824 C822 1.415 1_565 S
C824 C829 1.425 . S
C824 C831 1.409 . S
C825 H817 0.930 . S
C825 C823 1.419 . S
C825 C826 1.362 . S
C826 H818 0.930 1_455 S
C826 C825 1.362 . S
C826 C829 1.409 1_545 S
C827 H819 0.930 1_455 S
C827 C828 1.355 . S
C827 C829 1.415 . S
C828 C827 1.355 . S
C828 C830 1.419 . S
C829 C824 1.425 . S
C829 C826 1.409 1_565 S
C829 C827 1.415 . S
C830 H820 0.930 . S
C830 C828 1.419 . S
C830 C831 1.362 . S
C831 H821 0.930 . S
C831 C824 1.409 . S
C831 C830 1.362 . S
H832 C838 0.930 . S
H833 C841 0.930 . S
H834 C842 0.930 . S
H835 C843 0.930 . S
H836 C846 0.930 . S
H837 C847 0.930 . S
C838 H832 0.930 . S
C838 C839 1.355 . S
C838 C840 1.415 . S
C839 C838 1.355 . S
C839 C841 1.419 . S
C840 C838 1.415 . S
C840 C845 1.425 . S
C840 C847 1.409 . S
C841 H833 0.930 . S
C841 C839 1.419 . S
C841 C842 1.362 . S
C842 H834 0.930 . S
C842 C841 1.362 . S
C842 C845 1.409 . S
C843 H835 0.930 . S
C843 C844 1.355 . S
C843 C845 1.415 . S
C844 C843 1.355 . S
C844 C846 1.419 . S
C845 C840 1.425 . S
C845 C842 1.409 . S
C845 C843 1.415 . S
C846 H836 0.930 . S
C846 C844 1.419 . S
C846 C847 1.362 . S
C847 H837 0.930 . S
C847 C840 1.409 . S
C847 C846 1.362 . S
H848 C854 0.930 . S
H849 C857 0.930 . S
H850 C858 0.930 . S
H851 C859 0.930 . S
H852 C862 0.930 . S
H853 C863 0.930 . S
C854 H848 0.930 . S
C854 C855 1.355 . S
C854 C856 1.415 . S
C855 C854 1.355 . S
C855 C857 1.419 . S
C856 C854 1.415 . S
C856 C861 1.425 . S
C856 C863 1.409 1_545 S
C857 H849 0.930 . S
C857 C855 1.419 . S
C857 C858 1.362 . S
C858 H850 0.930 . S
C858 C857 1.362 . S
C858 C861 1.409 . S
C859 H851 0.930 . S
C859 C860 1.355 . S
C859 C861 1.415 1_565 S
C860 C859 1.355 . S
C860 C862 1.419 . S
C861 C856 1.425 . S
C861 C858 1.409 . S
C861 C859 1.415 1_545 S
C862 H852 0.930 . S
C862 C860 1.419 . S
C862 C863 1.362 . S
C863 H853 0.930 . S
C863 C856 1.409 1_565 S
C863 C862 1.362 . S
H864 C870 0.930 . S
H865 C873 0.930 . S
H866 C874 0.930 . S
H867 C875 0.930 . S
H868 C878 0.930 . S
H869 C879 0.930 . S
C870 H864 0.930 . S
C870 C871 1.355 . S
C870 C872 1.415 . S
C871 C870 1.355 . S
C871 C873 1.419 . S
C872 C870 1.415 . S
C872 C877 1.425 . S
C872 C879 1.409 . S
C873 H865 0.930 . S
C873 C871 1.419 . S
C873 C874 1.362 . S
C874 H866 0.930 . S
C874 C873 1.362 . S
C874 C877 1.409 . S
C875 H867 0.930 . S
C875 C876 1.355 . S
C875 C877 1.415 . S
C876 C875 1.355 . S
C876 C878 1.419 . S
C877 C872 1.425 . S
C877 C874 1.409 . S
C877 C875 1.415 . S
C878 H868 0.930 . S
C878 C876 1.419 . S
C878 C879 1.362 . S
C879 H869 0.930 . S
C879 C872 1.409 . S
C879 C878 1.362 . S
H880 C886 0.930 . S
H881 C889 0.930 . S
H882 C890 0.930 . S
H883 C891 0.930 . S
H884 C894 0.930 . S
H885 C895 0.930 . S
C886 H880 0.930 . S
C886 C887 1.355 . S
C886 C888 1.415 . S
C887 C886 1.355 . S
C887 C889 1.419 . S
C888 C886 1.415 . S
C888 C893 1.425 . S
C888 C895 1.409 . S
C889 H881 0.930 . S
C889 C887 1.419 . S
C889 C890 1.362 . S
C890 H882 0.930 . S
C890 C889 1.362 . S
C890 C893 1.409 . S
C891 H883 0.930 . S
C891 C892 1.355 . S
C891 C893 1.415 . S
C892 C891 1.355 . S
C892 C894 1.419 . S
C893 C888 1.425 . S
C893 C890 1.409 . S
C893 C891 1.415 . S
C894 H884 0.930 . S
C894 C892 1.419 . S
C894 C895 1.362 . S
C895 H885 0.930 . S
C895 C888 1.409 . S
C895 C894 1.362 . S
H896 C902 0.930 . S
H897 C905 0.930 . S
H898 C906 0.930 . S
H899 C907 0.930 . S
H900 C910 0.930 . S
H901 C911 0.930 . S
C902 H896 0.930 . S
C902 C903 1.355 . S
C902 C904 1.415 . S
C903 C902 1.355 . S
C903 C905 1.419 . S
C904 C902 1.415 . S
C904 C909 1.425 . S
C904 C911 1.409 . S
C905 H897 0.930 . S
C905 C903 1.419 . S
C905 C906 1.362 . S
C906 H898 0.930 . S
C906 C905 1.362 . S
C906 C909 1.409 . S
C907 H899 0.930 . S
C907 C908 1.355 . S
C907 C909 1.415 . S
C908 C907 1.355 . S
C908 C910 1.419 . S
C909 C904 1.425 . S
C909 C906 1.409 . S
C909 C907 1.415 . S
C910 H900 0.930 . S
C910 C908 1.419 . S
C910 C911 1.362 . S
C911 H901 0.930 . S
C911 C904 1.409 . S
C911 C910 1.362 . S
H912 C918 0.930 . S
H913 C921 0.930 . S
H914 C922 0.930 . S
H915 C923 0.930 . S
H916 C926 0.930 . S
H917 C927 0.930 . S
C918 H912 0.930 . S
C918 C919 1.355 . S
C918 C920 1.415 . S
C919 C918 1.355 . S
C919 C921 1.419 . S
C920 C918 1.415 . S
C920 C925 1.425 . S
C920 C927 1.409 . S
C921 H913 0.930 . S
C921 C919 1.419 . S
C921 C922 1.362 . S
C922 H914 0.930 . S
C922 C921 1.362 . S
C922 C925 1.409 . S
C923 H915 0.930 . S
C923 C924 1.355 . S
C923 C925 1.415 . S
C924 C923 1.355 . S
C924 C926 1.419 . S
C925 C920 1.425 . S
C925 C922 1.409 . S
C925 C923 1.415 . S
C926 H916 0.930 . S
C926 C924 1.419 . S
C926 C927 1.362 . S
C927 H917 0.930 . S
C927 C920 1.409 . S
C927 C926 1.362 . S
H928 C934 0.930 . S
H929 C937 0.930 . S
H930 C938 0.930 . S
H931 C939 0.930 . S
H932 C942 0.930 . S
H933 C943 0.930 . S
C934 H928 0.930 . S
C934 C935 1.355 . S
C934 C936 1.415 . S
C935 C934 1.355 . S
C935 C937 1.419 . S
C936 C934 1.415 . S
C936 C941 1.425 . S
C936 C943 1.409 . S
C937 H929 0.930 . S
C937 C935 1.419 . S
C937 C938 1.362 . S
C938 H930 0.930 . S
C938 C937 1.362 . S
C938 C941 1.409 . S
C939 H931 0.930 . S
C939 C940 1.355 . S
C939 C941 1.415 . S
C940 C939 1.355 . S
C940 C942 1.419 . S
C941 C936 1.425 . S
C941 C938 1.409 . S
C941 C939 1.415 . S
C942 H932 0.930 . S
C942 C940 1.419 . S
C942 C943 1.362 . S
C943 H933 0.930 . S
C943 C936 1.409 . S
C943 C942 1.362 . S
H944 C950 0.930 . S
H945 C953 0.930 . S
H946 C954 0.930 . S
H947 C955 0.930 . S
H948 C958 0.930 . S
H949 C959 0.930 . S
C950 H944 0.930 . S
C950 C951 1.355 . S
C950 C952 1.415 . S
C951 C950 1.355 . S
C951 C953 1.419 . S
C952 C950 1.415 . S
C952 C957 1.425 . S
C952 C959 1.409 . S
C953 H945 0.930 . S
C953 C951 1.419 . S
C953 C954 1.362 . S
C954 H946 0.930 . S
C954 C953 1.362 . S
C954 C957 1.409 . S
C955 H947 0.930 . S
C955 C956 1.355 . S
C955 C957 1.415 . S
C956 C955 1.355 . S
C956 C958 1.419 . S
C957 C952 1.425 . S
C957 C954 1.409 . S
C957 C955 1.415 . S
C958 H948 0.930 . S
C958 C956 1.419 . S
C958 C959 1.362 . S
C959 H949 0.930 . S
C959 C952 1.409 . S
C959 C958 1.362 . S
H960 C966 0.930 . S
H961 C969 0.930 . S
H962 C970 0.930 1_556 S
H963 C971 0.930 . S
H964 C974 0.930 . S
H965 C975 0.930 . S
C966 H960 0.930 . S
C966 C967 1.355 . S
C966 C968 1.415 . S
C967 C966 1.355 . S
C967 C969 1.419 . S
C968 C966 1.415 . S
C968 C973 1.425 1_455 S
C968 C975 1.409 1_455 S
C969 H961 0.930 . S
C969 C967 1.419 . S
C969 C970 1.362 . S
C970 H962 0.930 1_554 S
C970 C969 1.362 . S
C970 C973 1.409 1_455 S
C971 H963 0.930 . S
C971 C972 1.355 . S
C971 C973 1.415 . S
C972 C971 1.355 . S
C972 C974 1.419 . S
C973 C968 1.425 1_655 S
C973 C970 1.409 1_655 S
C973 C971 1.415 . S
C974 H964 0.930 . S
C974 C972 1.419 . S
C974 C975 1.362 . S
C975 H965 0.930 . S
C975 C968 1.409 1_655 S
C975 C974 1.362 . S
H976 C982 0.930 . S
H977 C985 0.930 . S
H978 C986 0.930 . S
H979 C987 0.930 . S
H980 C990 0.930 . S
H981 C991 0.930 . S
C982 H976 0.930 . S
C982 C983 1.355 . S
C982 C984 1.415 . S
C983 C982 1.355 . S
C983 C985 1.419 . S
C984 C982 1.415 . S
C984 C989 1.425 . S
C984 C991 1.409 . S
C985 H977 0.930 . S
C985 C983 1.419 . S
C985 C986 1.362 . S
C986 H978 0.930 . S
C986 C985 1.362 . S
C986 C989 1.409 . S
C987 H979 0.930 . S
C987 C988 1.355 . S
C987 C989 1.415 . S
C988 C987 1.355 . S
C988 C990 1.419 . S
C989 C984 1.425 . S
C989 C986 1.409 . S
C989 C987 1.415 . S
C990 H980 0.930 . S
C990 C988 1.419 . S
C990 C991 1.362 . S
C991 H981 0.930 . S
C991 C984 1.409 . S
C991 C990 1.362 . S
H992 C998 0.930 . S
H993 C1001 0.930 . S
H994 C1002 0.930 . S
H995 C1003 0.930 . S
H996 C1006 0.930 . S
H997 C1007 0.930 . S
C998 H992 0.930 . S
C998 C999 1.355 . S
C998 C1000 1.415 . S
C999 C998 1.355 . S
C999 C1001 1.419 . S
C1000 C998 1.415 . S
C1000 C1005 1.425 . S
C1000 C1007 1.409 . S
C1001 H993 0.930 . S
C1001 C999 1.419 . S
C1001 C1002 1.362 . S
C1002 H994 0.930 . S
C1002 C1001 1.362 . S
C1002 C1005 1.409 . S
C1003 H995 0.930 . S
C1003 C1004 1.355 . S
C1003 C1005 1.415 . S
C1004 C1003 1.355 . S
C1004 C1006 1.419 . S
C1005 C1000 1.425 . S
C1005 C1002 1.409 . S
C1005 C1003 1.415 . S
C1006 H996 0.930 . S
C1006 C1004 1.419 . S
C1006 C1007 1.362 . S
C1007 H997 0.930 . S
C1007 C1000 1.409 . S
C1007 C1006 1.362 . S
H1008 C1014 0.930 . S
H1009 C1017 0.930 . S
H1010 C1018 0.930 . S
H1011 C1019 0.930 . S
H1012 C1022 0.930 . S
H1013 C1023 0.930 . S
C1014 H1008 0.930 . S
C1014 C1015 1.355 . S
C1014 C1016 1.415 . S
C1015 C1014 1.355 . S
C1015 C1017 1.419 . S
C1016 C1014 1.415 . S
C1016 C1021 1.425 . S
C1016 C1023 1.409 . S
C1017 H1009 0.930 . S
C1017 C1015 1.419 . S
C1017 C1018 1.362 . S
C1018 H1010 0.930 . S
C1018 C1017 1.362 . S
C1018 C1021 1.409 . S
C1019 H1011 0.930 . S
C1019 C1020 1.355 . S
C1019 C1021 1.415 . S
C1020 C1019 1.355 . S
C1020 C1022 1.419 . S
C1021 C1016 1.425 . S
C1021 C1018 1.409 . S
C1021 C1019 1.415 . S
C1022 H1012 0.930 . S
C1022 C1020 1.419 . S
C1022 C1023 1.362 . S
C1023 H1013 0.930 . S
C1023 C1016 1.409 . S
C1023 C1022 1.362 . S
H1024 C1030 0.930 . S
H1025 C1033 0.930 . S
H1026 C1034 0.930 1_554 S
H1027 C1035 0.930 . S
H1028 C1038 0.930 . S
H1029 C1039 0.930 . S
C1030 H1024 0.930 . S
C1030 C1031 1.355 . S
C1030 C1032 1.415 . S
C1031 C1030 1.355 . S
C1031 C1033 1.419 1_556 S
C1032 C1030 1.415 . S
C1032 C1037 1.425 . S
C1032 C1039 1.409 . S
C1033 H1025 0.930 . S
C1033 C1031 1.419 1_554 S
C1033 C1034 1.362 1_554 S
C1034 H1026 0.930 1_556 S
C1034 C1033 1.362 1_556 S
C1034 C1037 1.409 . S
C1035 H1027 0.930 . S
C1035 C1036 1.355 . S
C1035 C1037 1.415 . S
C1036 C1035 1.355 . S
C1036 C1038 1.419 . S
C1037 C1032 1.425 . S
C1037 C1034 1.409 . S
C1037 C1035 1.415 . S
C1038 H1028 0.930 . S
C1038 C1036 1.419 . S
C1038 C1039 1.362 . S
C1039 H1029 0.930 . S
C1039 C1032 1.409 . S
C1039 C1038 1.362 . S
H1040 C1046 0.930 . S
H1041 C1049 0.930 . S
H1042 C1050 0.930 . S
H1043 C1051 0.930 . S
H1044 C1054 0.930 . S
H1045 C1055 0.930 . S
C1046 H1040 0.930 . S
C1046 C1047 1.355 . S
C1046 C1048 1.415 . S
C1047 C1046 1.355 . S
C1047 C1049 1.419 . S
C1048 C1046 1.415 . S
C1048 C1053 1.425 . S
C1048 C1055 1.409 . S
C1049 H1041 0.930 . S
C1049 C1047 1.419 . S
C1049 C1050 1.362 . S
C1050 H1042 0.930 . S
C1050 C1049 1.362 . S
C1050 C1053 1.409 . S
C1051 H1043 0.930 . S
C1051 C1052 1.355 . S
C1051 C1053 1.415 1_455 S
C1052 C1051 1.355 . S
C1052 C1054 1.419 . S
C1053 C1048 1.425 . S
C1053 C1050 1.409 . S
C1053 C1051 1.415 1_655 S
C1054 H1044 0.930 . S
C1054 C1052 1.419 . S
C1054 C1055 1.362 1_455 S
C1055 H1045 0.930 . S
C1055 C1048 1.409 . S
C1055 C1054 1.362 1_655 S
C487 C12 1.528 . S
C492 C452 1.509 . S
C503 C372 1.843 . S
C508 C42 1.863 . S
C519 C92 1.627 . S
C524 C332 1.679 . S
C535 C122 1.933 . S
C540 C402 1.955 . S
C551 C162 1.876 . S
C556 C412 1.866 . S
C567 C212 1.422 . S
C572 C442 1.401 . S
C583 C362 2.015 . S
C588 C242 2.037 . S
C599 C292 1.405 . S
C604 C322 1.429 . S
C615 C132 1.659 . S
C620 C172 1.640 . S
C631 C2 1.714 . S
C636 C202 1.682 . S
C647 C52 1.724 . S
C652 C252 1.689 . S
C663 C282 1.870 . S
C668 C82 1.844 . S
C679 C29 2.031 . S
C684 C351 2.114 . S
C695 C48 1.243 . S
C700 C417 1.235 . S
C711 C471 2.110 . S
C716 C109 2.021 . S
C727 C128 1.452 . S
C732 C391 1.452 . S
C743 C168 1.342 . S
C748 C377 1.270 . S
C759 C337 2.015 . S
C764 C229 2.040 . S
C775 C431 1.508 . S
C780 C248 1.519 . S
C791 C457 1.909 . S
C796 C309 1.927 . S
C807 C17 1.471 . S
C812 C149 1.473 . S
C823 C8 1.510 . S
C828 C71 1.455 . S
C839 C69 1.250 . S
C844 C97 1.239 . S
C855 C151 1.436 . S
C860 C88 1.456 . S
C871 C208 1.672 . S
C876 C191 1.649 . S
C887 C217 2.317 . S
C892 C269 2.343 . S
C903 C271 1.556 . S
C908 C288 1.599 . S
C919 C189 2.133 . S
C924 C297 2.124 . S
C935 C328 1.455 . S
C940 C137 1.361 . S
C951 C231 1.986 . S
C956 C389 1.901 . S
C967 C349 1.574 . S
C972 C257 1.528 . S
C983 C408 1.634 . S
C988 C311 1.632 . S
C999 C177 1.521 . S
C1004 C469 1.554 . S
C1015 C448 1.419 . S
C1020 C57 1.358 . S
C1031 C111 1.703 . S
C1036 C368 1.735 . S
C1047 C429 2.078 . S
C1052 C31 2.142 . S
