# Generated by pormake.
# Topology tfs, (6)-cn, num edge types: 1
# Building blocks:
#     Node 0, Type 0, BuildingBlock: MIFKUJ_clean_sbu_0, # of connection points: 6
#     Node 1, Type 0, BuildingBlock: MIFKUJ_clean_sbu_0, # of connection points: 6
#     Node 2, Type 0, BuildingBlock: MIFKUJ_clean_sbu_0, # of connection points: 6
#     Node 3, Type 0, BuildingBlock: MIFKUJ_clean_sbu_0, # of connection points: 6
#     Node 4, Type 0, BuildingBlock: MIFKUJ_clean_sbu_0, # of connection points: 6
#     Node 5, Type 0, BuildingBlock: MIFKUJ_clean_sbu_0, # of connection points: 6
#     Edge 6, Type (0, 0), BuildingBlock: XIVTED_clean_linker_0, # of connection points: 2
#     Edge 7, Type (0, 0), BuildingBlock: XIVTED_clean_linker_0, # of connection points: 2
#     Edge 8, Type (0, 0), BuildingBlock: XIVTED_clean_linker_0, # of connection points: 2
#     Edge 9, Type (0, 0), BuildingBlock: XIVTED_clean_linker_0, # of connection points: 2
#     Edge 10, Type (0, 0), BuildingBlock: XIVTED_clean_linker_0, # of connection points: 2
#     Edge 11, Type (0, 0), BuildingBlock: XIVTED_clean_linker_0, # of connection points: 2
#     Edge 12, Type (0, 0), BuildingBlock: XIVTED_clean_linker_0, # of connection points: 2
#     Edge 13, Type (0, 0), BuildingBlock: XIVTED_clean_linker_0, # of connection points: 2
#     Edge 14, Type (0, 0), BuildingBlock: XIVTED_clean_linker_0, # of connection points: 2
#     Edge 15, Type (0, 0), BuildingBlock: XIVTED_clean_linker_0, # of connection points: 2
#     Edge 16, Type (0, 0), BuildingBlock: XIVTED_clean_linker_0, # of connection points: 2
#     Edge 17, Type (0, 0), BuildingBlock: XIVTED_clean_linker_0, # of connection points: 2
#     Edge 18, Type (0, 0), BuildingBlock: XIVTED_clean_linker_0, # of connection points: 2
#     Edge 19, Type (0, 0), BuildingBlock: XIVTED_clean_linker_0, # of connection points: 2
#     Edge 20, Type (0, 0), BuildingBlock: XIVTED_clean_linker_0, # of connection points: 2
#     Edge 21, Type (0, 0), BuildingBlock: XIVTED_clean_linker_0, # of connection points: 2
#     Edge 22, Type (0, 0), BuildingBlock: XIVTED_clean_linker_0, # of connection points: 2
#     Edge 23, Type (0, 0), BuildingBlock: XIVTED_clean_linker_0, # of connection points: 2
# Relax obj value: 0.417
# Max RMSD: 0.244
# Mean RMSD: 0.244
data_MOF--net-tfs--node1-MIFKUJ_clean_sbu_0--edge1-XIVTED_clean_linker_0
_symmetry_space_group_name_H-M    P1
_symmetry_Int_Tables_number       1
_symmetry_cell_setting            triclinic
loop_
_symmetry_equiv_pos_as_xyz
'x, y, z'
_cell_length_a     47.170246
_cell_length_b     47.332481
_cell_length_c     14.503001
_cell_angle_alpha  90.013633
_cell_angle_beta   90.269916
_cell_angle_gamma 119.98558
loop_
_atom_site_label
_atom_site_type_symbol
_atom_site_fract_x
_atom_site_fract_y
_atom_site_fract_z
_atom_type_partial_charge
Zn0 Zn 0.20865 0.45921 -0.01682 0.0
Zn1 Zn 0.19806 0.37803 -0.0032 0.0
C2 C 0.27372 0.49719 0.05618 0.0
O3 O 0.25746 0.49939 0.12653 0.0
C4 C 0.12987 0.33171 0.96419 0.0
O5 O 0.14155 0.32924 0.8844 0.0
O6 O 0.20136 0.49776 -0.01066 0.0
O7 O 0.19261 0.43675 0.86247 0.0
O8 O 0.20088 0.39435 0.86775 0.0
C9 C 0.20312 0.5148 0.91954 0.0
O10 O 0.20822 0.50625 0.83782 0.0
O11 O 0.2578 0.47932 -0.01207 0.0
C12 C 0.24312 0.35418 0.0409 0.0
O13 O 0.25732 0.38025 0.09365 0.0
O14 O 0.21765 0.34831 -0.0049 0.0
O15 O 0.21901 0.41102 0.09819 0.0
O16 O 0.18729 0.43265 0.09418 0.0
O17 O 0.14962 0.35078 0.02529 0.0
C18 C 0.19497 0.414 0.82323 0.0
C19 C 0.20013 0.41884 0.13864 0.0
Zn20 Zn 0.74864 0.19835 0.96623 0.0
Zn21 Zn 0.81898 0.20004 0.97802 0.0
C22 C 0.77314 0.2658 0.01022 0.0
O23 O 0.75707 0.25282 0.08674 0.0
C24 C 0.79626 0.13141 0.94367 0.0
O25 O 0.8184 0.14323 0.87835 0.0
O26 O 0.70167 0.18781 0.97407 0.0
O27 O 0.75498 0.17721 0.85649 0.0
O28 O 0.80827 0.21153 0.85631 0.0
C29 C 0.68743 0.19372 0.90847 0.0
O30 O 0.70283 0.20462 0.82988 0.0
O31 O 0.77445 0.24725 0.94905 0.0
C32 C 0.88616 0.22424 0.04399 0.0
O33 O 0.8739 0.22456 0.12485 0.0
O34 O 0.86732 0.2142 0.97383 0.0
O35 O 0.81137 0.22125 0.08613 0.0
O36 O 0.75866 0.18541 0.08619 0.0
O37 O 0.79234 0.15104 -0.00531 0.0
C38 C 0.7817 0.19348 0.81336 0.0
C39 C 0.78489 0.2041 0.12939 0.0
Zn40 Zn 0.55072 0.74895 0.0161 0.0
Zn41 Zn 0.6365 0.81982 0.00183 0.0
C42 C 0.51396 0.78215 0.04597 0.0
O43 O 0.51821 0.77764 0.13319 0.0
C44 C 0.68573 0.80253 0.03363 0.0
O45 O 0.69185 0.82258 0.10328 0.0
O46 O 0.51466 0.70231 0.03444 0.0
O47 O 0.57762 0.75132 0.90706 0.0
O48 O 0.60069 0.80464 0.90709 0.0
C49 C 0.49919 0.68376 0.96683 0.0
O50 O 0.5082 0.69455 0.88247 0.0
O51 O 0.52695 0.77322 -0.01562 0.0
C52 C 0.65903 0.88842 0.02745 0.0
O53 O 0.63285 0.87666 0.07949 0.0
O54 O 0.66583 0.86868 -0.01285 0.0
O55 O 0.62237 0.81016 0.134 0.0
O56 O 0.57403 0.76443 0.13738 0.0
O57 O 0.663 0.79768 0.9772 0.0
C58 C 0.5937 0.77834 0.86544 0.0
C59 C 0.59901 0.7871 0.17799 0.0
Zn60 Zn 0.81026 0.54767 0.93333 0.0
Zn61 Zn 0.8098 0.61821 0.93726 0.0
C62 C 0.74466 0.50903 -0.00203 0.0
O63 O 0.76055 0.50789 0.07124 0.0
C64 C 0.87844 0.66412 0.8947 0.0
O65 O 0.86668 0.66569 0.81375 0.0
O66 O 0.81878 0.51008 0.9464 0.0
O67 O 0.82863 0.57063 0.81638 0.0
O68 O 0.80114 0.59731 0.81233 0.0
C69 C 0.8133 0.48985 0.88163 0.0
O70 O 0.8038 0.49462 0.80068 0.0
O71 O 0.76091 0.52641 0.92986 0.0
C72 C 0.79715 0.66895 -0.0005 0.0
O73 O 0.81715 0.6714 0.0664 0.0
O74 O 0.79056 0.648 0.93601 0.0
O75 O 0.79202 0.58969 0.04821 0.0
O76 O 0.82965 0.57534 0.04347 0.0
O77 O 0.85886 0.64578 0.95651 0.0
C78 C 0.81659 0.58529 0.77196 0.0
C79 C 0.81288 0.58457 0.08891 0.0
Zn80 Zn 0.26206 0.80484 0.93517 0.0
Zn81 Zn 0.19038 0.81479 0.94938 0.0
C82 C 0.2393 0.73998 0.00311 0.0
O83 O 0.25605 0.75626 0.07625 0.0
C84 C 0.21081 0.8835 0.9432 0.0
O85 O 0.19225 0.87439 0.86891 0.0
O86 O 0.3093 0.81643 0.94586 0.0
O87 O 0.25474 0.81957 0.81298 0.0
O88 O 0.20533 0.81456 0.82112 0.0
C89 C 0.32268 0.80802 0.88412 0.0
O90 O 0.30599 0.7935 0.80909 0.0
O91 O 0.23684 0.75561 0.93519 0.0
C92 C 0.12164 0.78574 0.00691 0.0
O93 O 0.13325 0.78722 0.09033 0.0
O94 O 0.14134 0.79654 0.93942 0.0
O95 O 0.19958 0.78959 0.04435 0.0
O96 O 0.25281 0.82267 0.0485 0.0
O97 O 0.21301 0.86203 -0.00959 0.0
C98 C 0.23 0.81878 0.7751 0.0
C99 C 0.22567 0.80705 0.0899 0.0
Zn100 Zn 0.46338 0.26195 -0.00188 0.0
Zn101 Zn 0.39376 0.1924 0.012 0.0
C102 C 0.50435 0.23492 0.04418 0.0
O103 O 0.50696 0.25008 0.12237 0.0
C104 C 0.3484 0.2156 0.97314 0.0
O105 O 0.33829 0.1933 0.90798 0.0
O106 O 0.50045 0.30863 0.0003 0.0
O107 O 0.43456 0.25484 0.89012 0.0
O108 O 0.41568 0.20176 0.89048 0.0
C109 C 0.51707 0.32277 0.92895 0.0
O110 O 0.50857 0.30734 0.84945 0.0
O111 O 0.4856 0.2352 -0.01862 0.0
C112 C 0.36228 0.12278 0.05186 0.0
O113 O 0.38903 0.13167 0.10042 0.0
O114 O 0.35876 0.14446 0.00992 0.0
O115 O 0.42251 0.20082 0.12133 0.0
O116 O 0.44178 0.25389 0.11965 0.0
O117 O 0.37176 0.21955 0.02575 0.0
C118 C 0.42335 0.22793 0.84739 0.0
C119 C 0.43219 0.22756 0.16371 0.0
H120 H 0.36434 0.26505 0.09759 0.0
H121 H 0.22329 0.30091 0.92784 0.0
H122 H 0.2967 0.21226 0.8765 0.0
H123 H 0.29561 0.35821 0.1346 0.0
H124 H 0.24837 0.26673 0.91237 0.0
H125 H 0.33815 0.29807 0.11607 0.0
C126 C 0.34397 0.26037 0.05291 0.0
C127 C 0.33274 0.23582 -0.01471 0.0
C128 C 0.25873 0.28676 0.96122 0.0
C129 C 0.30256 0.2736 0.00623 0.0
C130 C 0.24437 0.30627 0.97024 0.0
C131 C 0.25738 0.33256 0.03252 0.0
C132 C 0.28627 0.29348 0.01504 0.0
C133 C 0.28476 0.33829 0.08552 0.0
C134 C 0.32902 0.27927 0.0635 0.0
C135 C 0.30623 0.23092 0.92947 0.0
N136 N 0.29828 0.31895 0.07553 0.0
N137 N 0.29206 0.24961 0.9412 0.0
H138 H 0.09682 0.32999 0.12169 0.0
H139 H 0.91956 0.22504 0.88874 0.0
H140 H 0.08111 0.29255 0.8434 0.0
H141 H 0.93429 0.25355 0.17551 0.0
H142 H 0.97871 0.24924 0.87156 0.0
H143 H 0.03748 0.30187 0.14363 0.0
C144 C 0.08094 0.31577 0.06531 0.0
C145 C 0.09404 0.31373 -0.01954 0.0
C146 C 0.96902 0.25008 0.93839 0.0
C147 C 0.02601 0.28157 0.005 0.0
C148 C 0.9352 0.23626 0.94825 0.0
C149 C 0.92186 0.23732 0.03366 0.0
C150 C 0.9898 0.26531 0.0143 0.0
C151 C 0.94342 0.25216 0.10832 0.0
C152 C 0.04703 0.29969 0.07791 0.0
C153 C 0.07219 0.29489 0.90997 0.0
N154 N 0.97629 0.2657 0.09679 0.0
N155 N 0.03933 0.2797 0.92368 0.0
H156 H 0.74612 0.09854 0.06607 0.0
H157 H 0.71273 0.9213 0.91604 0.0
H158 H 0.80025 0.08269 0.85282 0.0
H159 H 0.65309 0.93715 0.11073 0.0
H160 H 0.74637 0.98035 0.89595 0.0
H161 H 0.71308 0.03955 0.08726 0.0
C162 C 0.7511 0.08268 0.02371 0.0
C163 C 0.77605 0.09566 0.95751 0.0
C164 C 0.72592 0.97091 0.94308 0.0
C165 C 0.73823 0.02794 -0.01844 0.0
C166 C 0.70672 0.93716 0.95471 0.0
C167 C 0.67998 0.92417 0.01515 0.0
C168 C 0.71847 0.9919 -0.00754 0.0
C169 C 0.6734 0.94599 0.06329 0.0
C170 C 0.73217 0.04896 0.0358 0.0
C171 C 0.7813 0.07383 0.90462 0.0
N172 N 0.69249 0.97872 0.05096 0.0
N173 N 0.76259 0.0411 0.91785 0.0
H174 H 0.75295 0.66888 0.87531 0.0
H175 H 0.73487 0.80694 0.14439 0.0
H176 H 0.80634 0.71645 0.12373 0.0
H177 H 0.67807 0.75722 0.90242 0.0
H178 H 0.76307 0.77571 0.13301 0.0
H179 H 0.72702 0.70253 0.8795 0.0
C180 C 0.75931 0.68645 0.93062 0.0
C181 C 0.78183 0.68974 -0.00054 0.0
C182 C 0.74451 0.77166 0.08218 0.0
C183 C 0.75217 0.72838 0.00461 0.0
C184 C 0.72838 0.78954 0.08856 0.0
C185 C 0.70395 0.78467 0.02441 0.0
C186 C 0.73622 0.74862 0.01112 0.0
C187 C 0.6967 0.76177 0.95351 0.0
C188 C 0.74446 0.70565 0.93297 0.0
C189 C 0.7891 0.71296 0.06932 0.0
N190 N 0.71269 0.74454 0.94893 0.0
N191 N 0.77429 0.73131 0.07014 0.0
H192 H 0.08939 0.78061 0.84438 0.0
H193 H 0.9107 0.66896 0.05702 0.0
H194 H 0.07211 0.7546 0.13219 0.0
H195 H 0.92766 0.70276 0.7754 0.0
H196 H 0.96969 0.69995 0.08577 0.0
H197 H 0.03029 0.75226 0.81784 0.0
C198 C 0.07319 0.76905 0.90214 0.0
C199 C 0.08582 0.76996 -0.00932 0.0
C200 C 0.96052 0.70067 0.01774 0.0
C201 C 0.01795 0.73723 0.96054 0.0
C202 C 0.9268 0.68293 0.00119 0.0
C203 C 0.91414 0.68319 0.91354 0.0
C204 C 0.98185 0.71875 0.94608 0.0
C205 C 0.93626 0.7018 0.84402 0.0
C206 C 0.0394 0.75285 0.88689 0.0
C207 C 0.06355 0.75455 0.06279 0.0
N208 N 0.96899 0.71872 0.86171 0.0
N209 N 0.03075 0.73872 0.04605 0.0
H210 H 0.25655 0.91157 0.08148 0.0
H211 H 0.30722 0.09481 0.94231 0.0
H212 H 0.21071 0.93548 0.86022 0.0
H213 H 0.36076 0.07069 0.139 0.0
H214 H 0.26833 0.03661 0.92169 0.0
H215 H 0.29153 0.96976 0.11389 0.0
C216 C 0.25366 0.92902 0.04005 0.0
C217 C 0.23072 0.91856 0.96765 0.0
C218 C 0.28853 0.04406 0.96961 0.0
C219 C 0.27082 0.98534 0.00438 0.0
C220 C 0.31072 0.07732 -0.01842 0.0
C221 C 0.33744 0.08771 0.04215 0.0
C222 C 0.29296 0.02096 0.01878 0.0
C223 C 0.34066 0.06386 0.0912 0.0
C224 C 0.27372 0.96228 0.05848 0.0
C225 C 0.22813 0.94237 0.91642 0.0
N226 N 0.31876 0.03166 0.07828 0.0
N227 N 0.24797 0.97459 0.93559 0.0
H228 H 0.23631 0.69819 0.13821 0.0
H229 H 0.2019 0.55509 0.78565 0.0
H230 H 0.21587 0.70122 0.84909 0.0
H231 H 0.2034 0.54497 0.08117 0.0
H232 H 0.20556 0.60805 0.80751 0.0
H233 H 0.22271 0.64147 0.11943 0.0
C234 C 0.22864 0.68684 0.07095 0.0
C235 C 0.22743 0.70459 -0.00499 0.0
C236 C 0.20479 0.5941 0.86759 0.0
C237 C 0.21217 0.63968 0.97275 0.0
C238 C 0.20275 0.56386 0.85515 0.0
C239 C 0.20253 0.5456 0.93165 0.0
C240 C 0.20697 0.60637 0.95719 0.0
C241 C 0.20357 0.5582 0.02011 0.0
C242 C 0.22087 0.65442 0.06026 0.0
C243 C 0.21721 0.68853 0.90956 0.0
N244 N 0.20605 0.58791 0.0304 0.0
N245 N 0.21032 0.65712 0.90055 0.0
H246 H 0.54092 0.22287 0.16793 0.0
H247 H 0.64825 0.20153 0.78274 0.0
H248 H 0.51806 0.21705 0.87761 0.0
H249 H 0.6549 0.18382 0.07186 0.0
H250 H 0.59959 0.20571 0.81489 0.0
H251 H 0.58172 0.207 0.13389 0.0
C252 C 0.54425 0.21793 0.09707 0.0
C253 C 0.5262 0.22152 0.02547 0.0
C254 C 0.61148 0.20053 0.8711 0.0
C255 C 0.57322 0.2037 -0.01421 0.0
C256 C 0.6393 0.19817 0.85281 0.0
C257 C 0.65586 0.19255 0.92478 0.0
C258 C 0.60036 0.19765 0.96221 0.0
C259 C 0.64303 0.18829 0.01419 0.0
C260 C 0.56754 0.20882 0.07767 0.0
C261 C 0.53145 0.21463 0.93498 0.0
N262 N 0.61631 0.1913 0.03048 0.0
N263 N 0.55477 0.20645 0.9176 0.0
H264 H 0.46151 0.63701 0.83928 0.0
H265 H 0.31556 0.53696 0.19081 0.0
H266 H 0.46814 0.65809 0.13073 0.0
H267 H 0.31362 0.50834 0.9072 0.0
H268 H 0.37296 0.57879 0.17304 0.0
H269 H 0.40901 0.58749 0.86494 0.0
C270 C 0.4521 0.63109 0.90883 0.0
C271 C 0.46916 0.65195 -0.01719 0.0
C272 C 0.36011 0.56313 0.11495 0.0
C273 C 0.40885 0.59531 0.01263 0.0
C274 C 0.3273 0.53919 0.12508 0.0
C275 C 0.3096 0.51929 0.05013 0.0
C276 C 0.37534 0.56748 0.02895 0.0
C277 C 0.32621 0.52321 0.96677 0.0
C278 C 0.42209 0.60276 0.92346 0.0
C279 C 0.4558 0.64287 0.0715 0.0
N280 N 0.358 0.5471 0.95813 0.0
N281 N 0.42631 0.61544 0.08375 0.0
H282 H 0.8211 0.4672 0.04813 0.0
H283 H 0.79331 0.29779 0.84485 0.0
H284 H 0.80672 0.44291 0.75834 0.0
H285 H 0.78154 0.31356 0.13191 0.0
H286 H 0.80832 0.35437 0.81261 0.0
H287 H 0.81674 0.41448 0.07981 0.0
C288 C 0.81738 0.45095 -0.00904 0.0
C289 C 0.81401 0.45943 0.90042 0.0
C290 C 0.80271 0.34549 0.88273 0.0
C291 C 0.80896 0.39894 0.93646 0.0
C292 C 0.7943 0.31325 0.90132 0.0
C293 C 0.78591 0.30084 -0.00882 0.0
C294 C 0.80305 0.36555 0.95462 0.0
C295 C 0.78756 0.322 0.06152 0.0
C296 C 0.81478 0.42079 0.00922 0.0
C297 C 0.80924 0.43732 0.82924 0.0
N298 N 0.79582 0.35325 0.0417 0.0
N299 N 0.80672 0.40804 0.8488 0.0
H300 H 0.35944 0.79446 0.76564 0.0
H301 H 0.48318 0.80483 0.1586 0.0
H302 H 0.3595 0.82786 0.04269 0.0
H303 H 0.49146 0.78438 0.873 0.0
H304 H 0.44014 0.81681 0.11556 0.0
H305 H 0.40985 0.79392 0.80118 0.0
C306 C 0.3702 0.80199 0.83369 0.0
C307 C 0.35503 0.81097 0.90148 0.0
C308 C 0.4516 0.81003 0.06213 0.0
C309 C 0.41268 0.81015 0.94294 0.0
C310 C 0.4762 0.80318 0.08668 0.0
C311 C 0.49077 0.79329 0.01947 0.0
C312 C 0.44124 0.80668 0.96977 0.0
C313 C 0.48082 0.79176 0.92727 0.0
C314 C 0.39903 0.80169 0.85395 0.0
C315 C 0.37023 0.82063 -0.01166 0.0
N316 N 0.45644 0.79802 0.90532 0.0
N317 N 0.398 0.81964 0.00683 0.0
H318 H 0.7019 0.4746 0.13571 0.0
H319 H 0.55725 0.36144 0.79078 0.0
H320 H 0.70588 0.49242 0.84295 0.0
H321 H 0.54719 0.35644 0.08692 0.0
H322 H 0.61067 0.41086 0.80791 0.0
H323 H 0.64433 0.43292 0.11945 0.0
C324 C 0.69057 0.47 0.0681 0.0
C325 C 0.70883 0.48688 -0.00951 0.0
C326 C 0.59662 0.39914 0.86909 0.0
C327 C 0.64289 0.43881 0.97111 0.0
C328 C 0.56611 0.37088 0.85937 0.0
C329 C 0.54778 0.35457 0.93755 0.0
C330 C 0.60909 0.41102 0.95767 0.0
C331 C 0.56048 0.36807 0.02466 0.0
C332 C 0.65765 0.44618 0.05885 0.0
C333 C 0.69277 0.47998 0.90467 0.0
N334 N 0.59046 0.39527 0.03237 0.0
N335 N 0.66083 0.45619 0.8971 0.0
H336 H 0.20542 0.3735 0.71172 0.0
H337 H 0.16859 0.44082 0.2492 0.0
H338 H 0.17619 0.4467 0.70505 0.0
H339 H 0.22 0.38665 0.25543 0.0
H340 H 0.1629 0.43577 0.41608 0.0
H341 H 0.20254 0.37082 0.54372 0.0
C342 C 0.19822 0.38888 0.67506 0.0
C343 C 0.19139 0.41064 0.72239 0.0
C344 C 0.17533 0.4249 0.38086 0.0
C345 C 0.18801 0.40758 0.53069 0.0
C346 C 0.17856 0.42773 0.28562 0.0
C347 C 0.19515 0.41445 0.23865 0.0
C348 C 0.18864 0.40859 0.4293 0.0
C349 C 0.20737 0.39757 0.28921 0.0
C350 C 0.19665 0.38735 0.57923 0.0
C351 C 0.182 0.42982 0.67136 0.0
N352 N 0.20398 0.39522 0.38216 0.0
N353 N 0.18071 0.42792 0.57809 0.0
H354 H 0.72917 0.16198 0.69733 0.0
H355 H 0.83646 0.23918 0.24616 0.0
H356 H 0.83413 0.22594 0.70054 0.0
H357 H 0.73289 0.16889 0.2415 0.0
H358 H 0.83572 0.23631 0.41393 0.0
H359 H 0.72977 0.16522 0.52963 0.0
C360 C 0.75233 0.17658 0.66272 0.0
C361 C 0.78162 0.1938 0.71259 0.0
C362 C 0.81318 0.22153 0.37605 0.0
C363 C 0.78247 0.19774 0.52175 0.0
C364 C 0.8136 0.22318 0.28044 0.0
C365 C 0.78477 0.20404 0.23015 0.0
C366 C 0.78372 0.20067 0.42109 0.0
C367 C 0.75573 0.18394 0.27776 0.0
C368 C 0.75266 0.17847 0.56716 0.0
C369 C 0.81096 0.21236 0.66461 0.0
N370 N 0.75597 0.18272 0.37085 0.0
N371 N 0.81061 0.21391 0.57158 0.0
H372 H 0.56801 0.72632 0.74658 0.0
H373 H 0.64205 0.83529 0.29499 0.0
H374 H 0.62974 0.83112 0.75527 0.0
H375 H 0.56049 0.73656 0.29213 0.0
H376 H 0.64406 0.83271 0.46335 0.0
H377 H 0.57194 0.72817 0.57874 0.0
C378 C 0.58261 0.7497 0.71329 0.0
C379 C 0.59825 0.77867 0.76486 0.0
C380 C 0.62579 0.81165 0.4256 0.0
C381 C 0.60279 0.78091 0.57299 0.0
C382 C 0.62463 0.81308 0.32963 0.0
C383 C 0.60092 0.78617 0.27946 0.0
C384 C 0.60332 0.78302 0.47136 0.0
C385 C 0.57901 0.758 0.32795 0.0
C386 C 0.58472 0.75074 0.61747 0.0
C387 C 0.61697 0.80824 0.71801 0.0
N388 N 0.58077 0.75716 0.42115 0.0
N389 N 0.61861 0.80863 0.62454 0.0
H390 H 0.84426 0.55922 0.66114 0.0
H391 H 0.86036 0.58282 0.19131 0.0
H392 H 0.79593 0.61638 0.65414 0.0
H393 H 0.7761 0.59558 0.21347 0.0
H394 H 0.86625 0.58648 0.35787 0.0
H395 H 0.84717 0.56132 0.49412 0.0
C396 C 0.83468 0.57262 0.62447 0.0
C397 C 0.81979 0.58762 0.67142 0.0
C398 C 0.84611 0.58788 0.32665 0.0
C399 C 0.82393 0.59098 0.48046 0.0
C400 C 0.84288 0.58608 0.23145 0.0
C401 C 0.81727 0.58824 0.18896 0.0
C402 C 0.8233 0.59144 0.37955 0.0
C403 C 0.7959 0.59336 0.24385 0.0
C404 C 0.8367 0.57414 0.529 0.0
C405 C 0.80754 0.60441 0.6205 0.0
N406 N 0.7993 0.59461 0.33684 0.0
N407 N 0.80968 0.60544 0.52737 0.0
H408 H 0.17236 0.77699 0.2028 0.0
H409 H 0.17931 0.81279 0.66852 0.0
H410 H 0.27671 0.84372 0.20641 0.0
H411 H 0.27816 0.82996 0.65117 0.0
H412 H 0.1762 0.81187 0.50084 0.0
H413 H 0.17157 0.78218 0.36979 0.0
C414 C 0.195 0.79313 0.2385 0.0
C415 C 0.22456 0.81023 0.19052 0.0
C416 C 0.19841 0.81547 0.53377 0.0
C417 C 0.22383 0.81652 0.38126 0.0
C418 C 0.20038 0.81637 0.62953 0.0
C419 C 0.2289 0.82098 0.67399 0.0
C420 C 0.22513 0.81917 0.48227 0.0
C421 C 0.25556 0.82594 0.61981 0.0
C422 C 0.1945 0.79627 0.33382 0.0
C423 C 0.25332 0.83021 0.24059 0.0
N424 N 0.25299 0.82485 0.52654 0.0
N425 N 0.25226 0.83262 0.33349 0.0
H426 H 0.39904 0.17468 0.73519 0.0
H427 H 0.45126 0.28036 0.27531 0.0
H428 H 0.44415 0.27976 0.73083 0.0
H429 H 0.40929 0.17562 0.28054 0.0
H430 H 0.44687 0.2804 0.44224 0.0
H431 H 0.3999 0.17432 0.56762 0.0
C432 C 0.40904 0.19768 0.69891 0.0
C433 C 0.42184 0.22735 0.74668 0.0
C434 C 0.43862 0.25741 0.40686 0.0
C435 C 0.42296 0.22707 0.55553 0.0
C436 C 0.44118 0.25736 0.31165 0.0
C437 C 0.43064 0.22792 0.26431 0.0
C438 C 0.42547 0.22783 0.45475 0.0
C439 C 0.41777 0.19887 0.31456 0.0
C440 C 0.40953 0.19744 0.60332 0.0
C441 C 0.4342 0.25637 0.69649 0.0
N442 N 0.41554 0.19956 0.40743 0.0
N443 N 0.43461 0.25552 0.60327 0.0
loop_
_geom_bond_atom_site_label_1
_geom_bond_atom_site_label_2
_geom_bond_distance
_geom_bond_site_symmetry_2
_ccdc_geom_bond_type
Zn0 O6 1.969 . S
Zn0 O7 1.965 1_554 S
Zn0 O11 2.024 1_554 S
Zn0 O16 1.969 . S
Zn1 O8 1.969 . S
Zn1 O14 1.969 . S
Zn1 O15 1.965 1_556 S
Zn1 O17 2.024 1_556 S
C2 O3 1.229 . S
C2 O11 1.058 1_554 S
O3 C2 1.229 . S
C4 O5 1.229 . S
C4 O17 1.058 1_556 S
O5 C4 1.229 . S
O6 Zn0 1.969 . S
O6 C9 1.267 1_554 S
O7 Zn0 1.965 1_556 S
O7 C18 1.260 . S
O8 Zn1 1.969 . S
O8 C18 1.258 . S
C9 O6 1.267 1_556 S
C9 O10 1.228 . S
O10 C9 1.228 . S
O11 Zn0 2.024 1_556 S
O11 C2 1.058 1_556 S
C12 O13 1.228 . S
C12 O14 1.267 1_554 S
O13 C12 1.228 . S
O14 Zn1 1.969 . S
O14 C12 1.267 1_556 S
O15 Zn1 1.965 1_554 S
O15 C19 1.260 . S
O16 Zn0 1.969 . S
O16 C19 1.258 . S
O17 Zn1 2.024 1_554 S
O17 C4 1.058 1_554 S
C18 O7 1.260 . S
C18 O8 1.258 . S
C19 O15 1.260 . S
C19 O16 1.258 . S
Zn20 O26 1.969 . S
Zn20 O27 1.965 1_554 S
Zn20 O31 2.024 1_554 S
Zn20 O36 1.969 . S
Zn21 O28 1.969 . S
Zn21 O34 1.969 . S
Zn21 O35 1.965 1_556 S
Zn21 O37 2.024 1_556 S
C22 O23 1.229 . S
C22 O31 1.058 1_554 S
O23 C22 1.229 . S
C24 O25 1.229 . S
C24 O37 1.058 1_556 S
O25 C24 1.229 . S
O26 Zn20 1.969 . S
O26 C29 1.267 1_554 S
O27 Zn20 1.965 1_556 S
O27 C38 1.260 . S
O28 Zn21 1.969 . S
O28 C38 1.258 . S
C29 O26 1.267 1_556 S
C29 O30 1.228 . S
O30 C29 1.228 . S
O31 Zn20 2.024 1_556 S
O31 C22 1.058 1_556 S
C32 O33 1.228 . S
C32 O34 1.267 1_554 S
O33 C32 1.228 . S
O34 Zn21 1.969 . S
O34 C32 1.267 1_556 S
O35 Zn21 1.965 1_554 S
O35 C39 1.260 . S
O36 Zn20 1.969 . S
O36 C39 1.258 . S
O37 Zn21 2.024 1_554 S
O37 C24 1.058 1_554 S
C38 O27 1.260 . S
C38 O28 1.258 . S
C39 O35 1.260 . S
C39 O36 1.258 . S
Zn40 O46 1.969 . S
Zn40 O47 1.965 1_554 S
Zn40 O51 2.024 1_554 S
Zn40 O56 1.969 . S
Zn41 O48 1.969 . S
Zn41 O54 1.969 . S
Zn41 O55 1.965 1_556 S
Zn41 O57 2.024 1_556 S
C42 O43 1.229 . S
C42 O51 1.058 1_554 S
O43 C42 1.229 . S
C44 O45 1.229 . S
C44 O57 1.058 1_556 S
O45 C44 1.229 . S
O46 Zn40 1.969 . S
O46 C49 1.267 1_554 S
O47 Zn40 1.965 1_556 S
O47 C58 1.260 . S
O48 Zn41 1.969 . S
O48 C58 1.258 . S
C49 O46 1.267 1_556 S
C49 O50 1.228 . S
O50 C49 1.228 . S
O51 Zn40 2.024 1_556 S
O51 C42 1.058 1_556 S
C52 O53 1.228 . S
C52 O54 1.267 1_554 S
O53 C52 1.228 . S
O54 Zn41 1.969 . S
O54 C52 1.267 1_556 S
O55 Zn41 1.965 1_554 S
O55 C59 1.260 . S
O56 Zn40 1.969 . S
O56 C59 1.258 . S
O57 Zn41 2.024 1_554 S
O57 C44 1.058 1_554 S
C58 O47 1.260 . S
C58 O48 1.258 . S
C59 O55 1.260 . S
C59 O56 1.258 . S
Zn60 O66 1.969 . S
Zn60 O67 1.965 1_554 S
Zn60 O71 2.024 1_554 S
Zn60 O76 1.969 . S
Zn61 O68 1.969 . S
Zn61 O74 1.969 . S
Zn61 O75 1.965 1_556 S
Zn61 O77 2.024 1_556 S
C62 O63 1.229 . S
C62 O71 1.058 1_554 S
O63 C62 1.229 . S
C64 O65 1.229 . S
C64 O77 1.058 1_556 S
O65 C64 1.229 . S
O66 Zn60 1.969 . S
O66 C69 1.267 1_554 S
O67 Zn60 1.965 1_556 S
O67 C78 1.260 . S
O68 Zn61 1.969 . S
O68 C78 1.258 . S
C69 O66 1.267 1_556 S
C69 O70 1.228 . S
O70 C69 1.228 . S
O71 Zn60 2.024 1_556 S
O71 C62 1.058 1_556 S
C72 O73 1.228 . S
C72 O74 1.267 1_554 S
O73 C72 1.228 . S
O74 Zn61 1.969 . S
O74 C72 1.267 1_556 S
O75 Zn61 1.965 1_554 S
O75 C79 1.260 . S
O76 Zn60 1.969 . S
O76 C79 1.258 . S
O77 Zn61 2.024 1_554 S
O77 C64 1.058 1_554 S
C78 O67 1.260 . S
C78 O68 1.258 . S
C79 O75 1.260 . S
C79 O76 1.258 . S
Zn80 O86 1.969 . S
Zn80 O87 1.965 1_554 S
Zn80 O91 2.024 1_554 S
Zn80 O96 1.969 . S
Zn81 O88 1.969 . S
Zn81 O94 1.969 . S
Zn81 O95 1.965 1_556 S
Zn81 O97 2.024 1_556 S
C82 O83 1.229 . S
C82 O91 1.058 1_554 S
O83 C82 1.229 . S
C84 O85 1.229 . S
C84 O97 1.058 1_556 S
O85 C84 1.229 . S
O86 Zn80 1.969 . S
O86 C89 1.267 1_554 S
O87 Zn80 1.965 1_556 S
O87 C98 1.260 . S
O88 Zn81 1.969 . S
O88 C98 1.258 . S
C89 O86 1.267 1_556 S
C89 O90 1.228 . S
O90 C89 1.228 . S
O91 Zn80 2.024 1_556 S
O91 C82 1.058 1_556 S
C92 O93 1.228 . S
C92 O94 1.267 1_554 S
O93 C92 1.228 . S
O94 Zn81 1.969 . S
O94 C92 1.267 1_556 S
O95 Zn81 1.965 1_554 S
O95 C99 1.260 . S
O96 Zn80 1.969 . S
O96 C99 1.258 . S
O97 Zn81 2.024 1_554 S
O97 C84 1.058 1_554 S
C98 O87 1.260 . S
C98 O88 1.258 . S
C99 O95 1.260 . S
C99 O96 1.258 . S
Zn100 O106 1.969 . S
Zn100 O107 1.965 1_554 S
Zn100 O111 2.024 1_554 S
Zn100 O116 1.969 . S
Zn101 O108 1.969 . S
Zn101 O114 1.969 . S
Zn101 O115 1.965 1_556 S
Zn101 O117 2.024 1_556 S
C102 O103 1.229 . S
C102 O111 1.058 1_554 S
O103 C102 1.229 . S
C104 O105 1.229 . S
C104 O117 1.058 1_556 S
O105 C104 1.229 . S
O106 Zn100 1.969 . S
O106 C109 1.267 1_554 S
O107 Zn100 1.965 1_556 S
O107 C118 1.260 . S
O108 Zn101 1.969 . S
O108 C118 1.258 . S
C109 O106 1.267 1_556 S
C109 O110 1.228 . S
O110 C109 1.228 . S
O111 Zn100 2.024 1_556 S
O111 C102 1.058 1_556 S
C112 O113 1.228 . S
C112 O114 1.267 1_554 S
O113 C112 1.228 . S
O114 Zn101 1.969 . S
O114 C112 1.267 1_556 S
O115 Zn101 1.965 1_554 S
O115 C119 1.260 . S
O116 Zn100 1.969 . S
O116 C119 1.258 . S
O117 Zn101 2.024 1_554 S
O117 C104 1.058 1_554 S
C118 O107 1.260 . S
C118 O108 1.258 . S
C119 O115 1.260 . S
C119 O116 1.258 . S
H120 C126 0.930 . S
H121 C130 0.930 . S
H122 C135 0.929 . S
H123 C133 0.929 . S
H124 C128 0.929 . S
H125 C134 0.929 . S
C126 H120 0.930 . S
C126 C127 1.367 . S
C126 C134 1.378 . S
C127 C126 1.367 . S
C127 C135 1.433 1_554 S
C128 H124 0.929 . S
C128 C130 1.378 . S
C128 C132 1.350 1_556 S
C129 C132 1.463 . S
C129 C134 1.350 . S
C129 N137 1.427 1_554 S
C130 H121 0.930 . S
C130 C128 1.378 . S
C130 C131 1.367 1_556 S
C131 C130 1.367 1_554 S
C131 C133 1.433 . S
C132 C128 1.350 1_554 S
C132 C129 1.463 . S
C132 N136 1.427 . S
C133 H123 0.929 . S
C133 C131 1.433 . S
C133 N136 1.384 . S
C134 H125 0.929 . S
C134 C126 1.378 . S
C134 C129 1.350 . S
C135 H122 0.929 . S
C135 C127 1.433 1_556 S
C135 N137 1.384 . S
N136 C132 1.427 . S
N136 C133 1.384 . S
N137 C129 1.427 1_556 S
N137 C135 1.384 . S
H138 C144 0.930 . S
H139 C148 0.930 . S
H140 C153 0.929 . S
H141 C151 0.929 . S
H142 C146 0.929 . S
H143 C152 0.929 . S
C144 H138 0.930 . S
C144 C145 1.367 . S
C144 C152 1.378 . S
C145 C144 1.367 . S
C145 C153 1.433 1_554 S
C146 H142 0.929 . S
C146 C148 1.378 . S
C146 C150 1.350 1_556 S
C147 C150 1.463 1_455 S
C147 C152 1.350 . S
C147 N155 1.427 1_554 S
C148 H139 0.930 . S
C148 C146 1.378 . S
C148 C149 1.367 1_556 S
C149 C148 1.367 1_554 S
C149 C151 1.433 . S
C150 C146 1.350 1_554 S
C150 C147 1.463 1_655 S
C150 N154 1.427 . S
C151 H141 0.929 . S
C151 C149 1.433 . S
C151 N154 1.384 . S
C152 H143 0.929 . S
C152 C144 1.378 . S
C152 C147 1.350 . S
C153 H140 0.929 . S
C153 C145 1.433 1_556 S
C153 N155 1.384 . S
N154 C150 1.427 . S
N154 C151 1.384 . S
N155 C147 1.427 1_556 S
N155 C153 1.384 . S
H156 C162 0.930 . S
H157 C166 0.930 . S
H158 C171 0.929 . S
H159 C169 0.929 . S
H160 C164 0.929 . S
H161 C170 0.929 . S
C162 H156 0.930 . S
C162 C163 1.367 . S
C162 C170 1.378 . S
C163 C162 1.367 . S
C163 C171 1.433 1_554 S
C164 H160 0.929 . S
C164 C166 1.378 . S
C164 C168 1.350 1_556 S
C165 C168 1.463 1_545 S
C165 C170 1.350 . S
C165 N173 1.427 1_554 S
C166 H157 0.930 . S
C166 C164 1.378 . S
C166 C167 1.367 1_556 S
C167 C166 1.367 1_554 S
C167 C169 1.433 . S
C168 C164 1.350 1_554 S
C168 C165 1.463 1_565 S
C168 N172 1.427 . S
C169 H159 0.929 . S
C169 C167 1.433 . S
C169 N172 1.384 . S
C170 H161 0.929 . S
C170 C162 1.378 . S
C170 C165 1.350 . S
C171 H158 0.929 . S
C171 C163 1.433 1_556 S
C171 N173 1.384 . S
N172 C168 1.427 . S
N172 C169 1.384 . S
N173 C165 1.427 1_556 S
N173 C171 1.384 . S
H174 C180 0.930 . S
H175 C184 0.930 . S
H176 C189 0.929 . S
H177 C187 0.929 . S
H178 C182 0.929 . S
H179 C188 0.929 . S
C180 H174 0.930 . S
C180 C181 1.367 1_556 S
C180 C188 1.378 . S
C181 C180 1.367 1_554 S
C181 C189 1.433 . S
C182 H178 0.929 . S
C182 C184 1.378 . S
C182 C186 1.350 . S
C183 C186 1.463 . S
C183 C188 1.350 1_554 S
C183 N191 1.427 . S
C184 H175 0.930 . S
C184 C182 1.378 . S
C184 C185 1.368 . S
C185 C184 1.368 . S
C185 C187 1.432 1_554 S
C186 C182 1.350 . S
C186 C183 1.463 . S
C186 N190 1.427 1_554 S
C187 H177 0.929 . S
C187 C185 1.432 1_556 S
C187 N190 1.384 . S
C188 H179 0.929 . S
C188 C180 1.378 . S
C188 C183 1.350 1_556 S
C189 H176 0.929 . S
C189 C181 1.433 . S
C189 N191 1.384 . S
N190 C186 1.427 1_556 S
N190 C187 1.384 . S
N191 C183 1.427 . S
N191 C189 1.384 . S
H192 C198 0.930 . S
H193 C202 0.930 . S
H194 C207 0.929 . S
H195 C205 0.929 . S
H196 C200 0.929 . S
H197 C206 0.929 . S
C198 H192 0.930 . S
C198 C199 1.367 1_556 S
C198 C206 1.378 . S
C199 C198 1.367 1_554 S
C199 C207 1.433 . S
C200 H196 0.929 . S
C200 C202 1.378 . S
C200 C204 1.350 . S
C201 C204 1.463 1_455 S
C201 C206 1.350 1_554 S
C201 N209 1.427 . S
C202 H193 0.930 . S
C202 C200 1.378 . S
C202 C203 1.372 . S
C203 C202 1.372 . S
C203 C205 1.429 1_554 S
C204 C200 1.350 . S
C204 C201 1.463 1_655 S
C204 N208 1.427 1_554 S
C205 H195 0.929 . S
C205 C203 1.429 1_556 S
C205 N208 1.384 . S
C206 H197 0.929 . S
C206 C198 1.378 . S
C206 C201 1.350 1_556 S
C207 H194 0.929 . S
C207 C199 1.433 . S
C207 N209 1.384 . S
N208 C204 1.427 1_556 S
N208 C205 1.384 . S
N209 C201 1.427 . S
N209 C207 1.384 . S
H210 C216 0.930 . S
H211 C220 0.930 . S
H212 C225 0.929 . S
H213 C223 0.929 . S
H214 C218 0.929 . S
H215 C224 0.929 . S
C216 H210 0.930 . S
C216 C217 1.367 . S
C216 C224 1.378 . S
C217 C216 1.367 . S
C217 C225 1.433 1_554 S
C218 H214 0.929 . S
C218 C220 1.378 . S
C218 C222 1.350 1_556 S
C219 C222 1.463 1_565 S
C219 C224 1.350 . S
C219 N227 1.427 1_554 S
C220 H211 0.930 . S
C220 C218 1.378 . S
C220 C221 1.367 1_556 S
C221 C220 1.367 1_554 S
C221 C223 1.433 . S
C222 C218 1.350 1_554 S
C222 C219 1.463 1_545 S
C222 N226 1.427 . S
C223 H213 0.929 . S
C223 C221 1.433 . S
C223 N226 1.384 . S
C224 H215 0.929 . S
C224 C216 1.378 . S
C224 C219 1.350 . S
C225 H212 0.929 . S
C225 C217 1.433 1_556 S
C225 N227 1.384 . S
N226 C222 1.427 . S
N226 C223 1.384 . S
N227 C219 1.427 1_556 S
N227 C225 1.384 . S
H228 C234 0.930 . S
H229 C238 0.930 . S
H230 C243 0.929 . S
H231 C241 0.931 . S
H232 C236 0.929 . S
H233 C242 0.929 . S
C234 H228 0.930 . S
C234 C235 1.368 . S
C234 C242 1.378 . S
C235 C234 1.368 . S
C235 C243 1.432 1_554 S
C236 H232 0.929 . S
C236 C238 1.378 . S
C236 C240 1.350 . S
C237 C240 1.463 . S
C237 C242 1.350 1_556 S
C237 N245 1.427 . S
C238 H229 0.930 . S
C238 C236 1.378 . S
C238 C239 1.367 . S
C239 C238 1.367 . S
C239 C241 1.431 1_556 S
C240 C236 1.350 . S
C240 C237 1.463 . S
C240 N244 1.427 1_556 S
C241 H231 0.931 . S
C241 C239 1.431 1_554 S
C241 N244 1.384 . S
C242 H233 0.929 . S
C242 C234 1.378 . S
C242 C237 1.350 1_554 S
C243 H230 0.929 . S
C243 C235 1.432 1_556 S
C243 N245 1.384 . S
N244 C240 1.427 1_554 S
N244 C241 1.384 . S
N245 C237 1.427 . S
N245 C243 1.384 . S
H246 C252 0.930 . S
H247 C256 0.930 . S
H248 C261 0.929 . S
H249 C259 0.929 1_554 S
H250 C254 0.929 . S
H251 C260 0.929 . S
C252 H246 0.930 . S
C252 C253 1.367 . S
C252 C260 1.378 . S
C253 C252 1.367 . S
C253 C261 1.433 1_554 S
C254 H250 0.929 . S
C254 C256 1.378 . S
C254 C258 1.350 . S
C255 C258 1.463 . S
C255 C260 1.350 1_556 S
C255 N263 1.427 . S
C256 H247 0.930 . S
C256 C254 1.378 . S
C256 C257 1.367 . S
C257 C256 1.367 . S
C257 C259 1.433 . S
C258 C254 1.350 . S
C258 C255 1.463 . S
C258 N262 1.427 . S
C259 H249 0.929 1_556 S
C259 C257 1.433 . S
C259 N262 1.384 . S
C260 H251 0.929 . S
C260 C252 1.378 . S
C260 C255 1.350 1_554 S
C261 H248 0.929 . S
C261 C253 1.433 1_556 S
C261 N263 1.384 . S
N262 C258 1.427 . S
N262 C259 1.384 . S
N263 C255 1.427 . S
N263 C261 1.384 . S
H264 C270 0.930 . S
H265 C274 0.930 . S
H266 C279 0.929 . S
H267 C277 0.929 . S
H268 C272 0.929 . S
H269 C278 0.929 . S
C270 H264 0.930 . S
C270 C271 1.367 . S
C270 C278 1.378 . S
C271 C270 1.367 . S
C271 C279 1.433 1_556 S
C272 H268 0.929 . S
C272 C274 1.378 . S
C272 C276 1.350 1_554 S
C273 C276 1.463 . S
C273 C278 1.350 . S
C273 N281 1.427 1_556 S
C274 H265 0.930 . S
C274 C272 1.378 . S
C274 C275 1.367 . S
C275 C274 1.367 . S
C275 C277 1.433 1_554 S
C276 C272 1.350 1_556 S
C276 C273 1.463 . S
C276 N280 1.427 . S
C277 H267 0.929 . S
C277 C275 1.433 1_556 S
C277 N280 1.384 . S
C278 H269 0.929 . S
C278 C270 1.378 . S
C278 C273 1.350 . S
C279 H266 0.929 . S
C279 C271 1.433 1_554 S
C279 N281 1.384 . S
N280 C276 1.427 . S
N280 C277 1.384 . S
N281 C273 1.427 1_554 S
N281 C279 1.384 . S
H282 C288 0.930 . S
H283 C292 0.930 . S
H284 C297 0.929 . S
H285 C295 0.929 . S
H286 C290 0.929 . S
H287 C296 0.929 . S
C288 H282 0.930 . S
C288 C289 1.367 1_554 S
C288 C296 1.378 . S
C289 C288 1.367 1_556 S
C289 C297 1.433 . S
C290 H286 0.929 . S
C290 C292 1.378 . S
C290 C294 1.350 . S
C291 C294 1.463 . S
C291 C296 1.350 1_556 S
C291 N299 1.427 . S
C292 H283 0.930 . S
C292 C290 1.378 . S
C292 C293 1.367 . S
C293 C292 1.367 . S
C293 C295 1.433 1_556 S
C294 C290 1.350 . S
C294 C291 1.463 . S
C294 N298 1.427 1_556 S
C295 H285 0.929 . S
C295 C293 1.433 1_554 S
C295 N298 1.384 . S
C296 H287 0.929 . S
C296 C288 1.378 . S
C296 C291 1.350 1_554 S
C297 H284 0.929 . S
C297 C289 1.433 . S
C297 N299 1.384 . S
N298 C294 1.427 1_554 S
N298 C295 1.384 . S
N299 C291 1.427 . S
N299 C297 1.384 . S
H300 C306 0.930 . S
H301 C310 0.930 . S
H302 C315 0.929 . S
H303 C313 0.929 . S
H304 C308 0.929 . S
H305 C314 0.929 . S
C306 H300 0.930 . S
C306 C307 1.367 . S
C306 C314 1.378 . S
C307 C306 1.367 . S
C307 C315 1.433 1_556 S
C308 H304 0.929 . S
C308 C310 1.378 . S
C308 C312 1.350 1_554 S
C309 C312 1.463 . S
C309 C314 1.350 . S
C309 N317 1.427 1_556 S
C310 H301 0.930 . S
C310 C308 1.378 . S
C310 C311 1.370 . S
C311 C310 1.370 . S
C311 C313 1.430 1_554 S
C312 C308 1.350 1_556 S
C312 C309 1.463 . S
C312 N316 1.427 . S
C313 H303 0.929 . S
C313 C311 1.430 1_556 S
C313 N316 1.384 . S
C314 H305 0.929 . S
C314 C306 1.378 . S
C314 C309 1.350 . S
C315 H302 0.929 . S
C315 C307 1.433 1_554 S
C315 N317 1.384 . S
N316 C312 1.427 . S
N316 C313 1.384 . S
N317 C309 1.427 1_554 S
N317 C315 1.384 . S
H318 C324 0.930 . S
H319 C328 0.930 . S
H320 C333 0.929 . S
H321 C331 0.929 . S
H322 C326 0.929 . S
H323 C332 0.929 . S
C324 H318 0.930 . S
C324 C325 1.367 . S
C324 C332 1.378 . S
C325 C324 1.367 . S
C325 C333 1.433 1_554 S
C326 H322 0.929 . S
C326 C328 1.378 . S
C326 C330 1.350 . S
C327 C330 1.463 . S
C327 C332 1.350 1_556 S
C327 N335 1.427 . S
C328 H319 0.930 . S
C328 C326 1.378 . S
C328 C329 1.367 . S
C329 C328 1.367 . S
C329 C331 1.433 1_556 S
C330 C326 1.350 . S
C330 C327 1.463 . S
C330 N334 1.427 1_556 S
C331 H321 0.929 . S
C331 C329 1.433 1_554 S
C331 N334 1.384 . S
C332 H323 0.929 . S
C332 C324 1.378 . S
C332 C327 1.350 1_554 S
C333 H320 0.929 . S
C333 C325 1.433 1_556 S
C333 N335 1.384 . S
N334 C330 1.427 1_554 S
N334 C331 1.384 . S
N335 C327 1.427 . S
N335 C333 1.384 . S
H336 C342 0.930 . S
H337 C346 0.930 . S
H338 C351 0.929 . S
H339 C349 0.929 . S
H340 C344 0.929 . S
H341 C350 0.929 . S
C342 H336 0.930 . S
C342 C343 1.367 . S
C342 C350 1.378 . S
C343 C342 1.367 . S
C343 C351 1.433 . S
C344 H340 0.929 . S
C344 C346 1.378 . S
C344 C348 1.350 . S
C345 C348 1.463 . S
C345 C350 1.350 . S
C345 N353 1.427 . S
C346 H337 0.930 . S
C346 C344 1.378 . S
C346 C347 1.367 . S
C347 C346 1.367 . S
C347 C349 1.433 . S
C348 C344 1.350 . S
C348 C345 1.463 . S
C348 N352 1.427 . S
C349 H339 0.929 . S
C349 C347 1.433 . S
C349 N352 1.384 . S
C350 H341 0.929 . S
C350 C342 1.378 . S
C350 C345 1.350 . S
C351 H338 0.929 . S
C351 C343 1.433 . S
C351 N353 1.384 . S
N352 C348 1.427 . S
N352 C349 1.384 . S
N353 C345 1.427 . S
N353 C351 1.384 . S
H354 C360 0.930 . S
H355 C364 0.930 . S
H356 C369 0.929 . S
H357 C367 0.929 . S
H358 C362 0.929 . S
H359 C368 0.929 . S
C360 H354 0.930 . S
C360 C361 1.367 . S
C360 C368 1.378 . S
C361 C360 1.367 . S
C361 C369 1.433 . S
C362 H358 0.929 . S
C362 C364 1.378 . S
C362 C366 1.350 . S
C363 C366 1.463 . S
C363 C368 1.350 . S
C363 N371 1.427 . S
C364 H355 0.930 . S
C364 C362 1.378 . S
C364 C365 1.367 . S
C365 C364 1.367 . S
C365 C367 1.433 . S
C366 C362 1.350 . S
C366 C363 1.463 . S
C366 N370 1.427 . S
C367 H357 0.929 . S
C367 C365 1.433 . S
C367 N370 1.384 . S
C368 H359 0.929 . S
C368 C360 1.378 . S
C368 C363 1.350 . S
C369 H356 0.929 . S
C369 C361 1.433 . S
C369 N371 1.384 . S
N370 C366 1.427 . S
N370 C367 1.384 . S
N371 C363 1.427 . S
N371 C369 1.384 . S
H372 C378 0.930 . S
H373 C382 0.930 . S
H374 C387 0.929 . S
H375 C385 0.929 . S
H376 C380 0.929 . S
H377 C386 0.929 . S
C378 H372 0.930 . S
C378 C379 1.367 . S
C378 C386 1.378 . S
C379 C378 1.367 . S
C379 C387 1.433 . S
C380 H376 0.929 . S
C380 C382 1.378 . S
C380 C384 1.350 . S
C381 C384 1.463 . S
C381 C386 1.350 . S
C381 N389 1.427 . S
C382 H373 0.930 . S
C382 C380 1.378 . S
C382 C383 1.367 . S
C383 C382 1.367 . S
C383 C385 1.433 . S
C384 C380 1.350 . S
C384 C381 1.463 . S
C384 N388 1.427 . S
C385 H375 0.929 . S
C385 C383 1.433 . S
C385 N388 1.384 . S
C386 H377 0.929 . S
C386 C378 1.378 . S
C386 C381 1.350 . S
C387 H374 0.929 . S
C387 C379 1.433 . S
C387 N389 1.384 . S
N388 C384 1.427 . S
N388 C385 1.384 . S
N389 C381 1.427 . S
N389 C387 1.384 . S
H390 C396 0.930 . S
H391 C400 0.930 . S
H392 C405 0.929 . S
H393 C403 0.929 . S
H394 C398 0.929 . S
H395 C404 0.929 . S
C396 H390 0.930 . S
C396 C397 1.367 . S
C396 C404 1.378 . S
C397 C396 1.367 . S
C397 C405 1.433 . S
C398 H394 0.929 . S
C398 C400 1.378 . S
C398 C402 1.350 . S
C399 C402 1.463 . S
C399 C404 1.350 . S
C399 N407 1.427 . S
C400 H391 0.930 . S
C400 C398 1.378 . S
C400 C401 1.367 . S
C401 C400 1.367 . S
C401 C403 1.433 . S
C402 C398 1.350 . S
C402 C399 1.463 . S
C402 N406 1.427 . S
C403 H393 0.929 . S
C403 C401 1.433 . S
C403 N406 1.384 . S
C404 H395 0.929 . S
C404 C396 1.378 . S
C404 C399 1.350 . S
C405 H392 0.929 . S
C405 C397 1.433 . S
C405 N407 1.384 . S
N406 C402 1.427 . S
N406 C403 1.384 . S
N407 C399 1.427 . S
N407 C405 1.384 . S
H408 C414 0.930 . S
H409 C418 0.930 . S
H410 C423 0.929 . S
H411 C421 0.929 . S
H412 C416 0.929 . S
H413 C422 0.929 . S
C414 H408 0.930 . S
C414 C415 1.367 . S
C414 C422 1.378 . S
C415 C414 1.367 . S
C415 C423 1.433 . S
C416 H412 0.929 . S
C416 C418 1.378 . S
C416 C420 1.350 . S
C417 C420 1.463 . S
C417 C422 1.350 . S
C417 N425 1.427 . S
C418 H409 0.930 . S
C418 C416 1.378 . S
C418 C419 1.367 . S
C419 C418 1.367 . S
C419 C421 1.433 . S
C420 C416 1.350 . S
C420 C417 1.463 . S
C420 N424 1.427 . S
C421 H411 0.929 . S
C421 C419 1.433 . S
C421 N424 1.384 . S
C422 H413 0.929 . S
C422 C414 1.378 . S
C422 C417 1.350 . S
C423 H410 0.929 . S
C423 C415 1.433 . S
C423 N425 1.384 . S
N424 C420 1.427 . S
N424 C421 1.384 . S
N425 C417 1.427 . S
N425 C423 1.384 . S
H426 C432 0.930 . S
H427 C436 0.930 . S
H428 C441 0.929 . S
H429 C439 0.929 . S
H430 C434 0.929 . S
H431 C440 0.929 . S
C432 H426 0.930 . S
C432 C433 1.367 . S
C432 C440 1.378 . S
C433 C432 1.367 . S
C433 C441 1.433 . S
C434 H430 0.929 . S
C434 C436 1.378 . S
C434 C438 1.350 . S
C435 C438 1.463 . S
C435 C440 1.350 . S
C435 N443 1.427 . S
C436 H427 0.930 . S
C436 C434 1.378 . S
C436 C437 1.367 . S
C437 C436 1.367 . S
C437 C439 1.433 . S
C438 C434 1.350 . S
C438 C435 1.463 . S
C438 N442 1.427 . S
C439 H429 0.929 . S
C439 C437 1.433 . S
C439 N442 1.384 . S
C440 H431 0.929 . S
C440 C432 1.378 . S
C440 C435 1.350 . S
C441 H428 0.929 . S
C441 C433 1.433 . S
C441 N443 1.384 . S
N442 C438 1.427 . S
N442 C439 1.384 . S
N443 C435 1.427 . S
N443 C441 1.384 . S
C127 C104 1.451 1_554 S
C131 C12 1.457 . S
C145 C4 1.449 1_554 S
C149 C32 1.457 . S
C163 C24 1.450 1_554 S
C167 C52 1.457 . S
C181 C72 1.456 . S
C185 C44 1.446 1_554 S
C199 C92 1.456 . S
C203 C64 1.446 1_554 S
C217 C84 1.448 1_554 S
C221 C112 1.456 . S
C235 C82 1.607 . S
C239 C9 1.677 . S
C253 C102 1.624 . S
C257 C29 1.665 . S
C271 C49 1.669 . S
C275 C2 1.617 . S
C289 C69 1.670 . S
C293 C22 1.618 1_556 S
C307 C89 1.666 . S
C311 C42 1.623 . S
C325 C62 1.613 . S
C329 C109 1.671 . S
C343 C18 1.493 . S
C347 C19 1.493 . S
C361 C38 1.492 . S
C365 C39 1.492 . S
C379 C58 1.496 . S
C383 C59 1.496 . S
C397 C78 1.498 . S
C401 C79 1.498 . S
C415 C99 1.488 . S
C419 C98 1.488 . S
C433 C118 1.489 . S
C437 C119 1.489 . S
