# Generated by pormake.
# Topology wio, (6)-cn, num edge types: 1
# Building blocks:
#     Node 0, Type 0, BuildingBlock: GEDQOX_clean_sbu_0, # of connection points: 6
#     Node 1, Type 0, BuildingBlock: GEDQOX_clean_sbu_0, # of connection points: 6
#     Node 2, Type 0, BuildingBlock: GEDQOX_clean_sbu_0, # of connection points: 6
#     Node 3, Type 0, BuildingBlock: GEDQOX_clean_sbu_0, # of connection points: 6
#     Node 4, Type 0, BuildingBlock: GEDQOX_clean_sbu_0, # of connection points: 6
#     Node 5, Type 0, BuildingBlock: GEDQOX_clean_sbu_0, # of connection points: 6
#     Node 6, Type 0, BuildingBlock: GEDQOX_clean_sbu_0, # of connection points: 6
#     Node 7, Type 0, BuildingBlock: GEDQOX_clean_sbu_0, # of connection points: 6
#     Node 8, Type 0, BuildingBlock: GEDQOX_clean_sbu_0, # of connection points: 6
#     Node 9, Type 0, BuildingBlock: GEDQOX_clean_sbu_0, # of connection points: 6
#     Node 10, Type 0, BuildingBlock: GEDQOX_clean_sbu_0, # of connection points: 6
#     Node 11, Type 0, BuildingBlock: GEDQOX_clean_sbu_0, # of connection points: 6
#     Node 12, Type 0, BuildingBlock: GEDQOX_clean_sbu_0, # of connection points: 6
#     Node 13, Type 0, BuildingBlock: GEDQOX_clean_sbu_0, # of connection points: 6
#     Node 14, Type 0, BuildingBlock: GEDQOX_clean_sbu_0, # of connection points: 6
#     Node 15, Type 0, BuildingBlock: GEDQOX_clean_sbu_0, # of connection points: 6
#     Node 16, Type 0, BuildingBlock: GEDQOX_clean_sbu_0, # of connection points: 6
#     Node 17, Type 0, BuildingBlock: GEDQOX_clean_sbu_0, # of connection points: 6
#     Node 18, Type 0, BuildingBlock: GEDQOX_clean_sbu_0, # of connection points: 6
#     Node 19, Type 0, BuildingBlock: GEDQOX_clean_sbu_0, # of connection points: 6
#     Node 20, Type 0, BuildingBlock: GEDQOX_clean_sbu_0, # of connection points: 6
#     Node 21, Type 0, BuildingBlock: GEDQOX_clean_sbu_0, # of connection points: 6
#     Node 22, Type 0, BuildingBlock: GEDQOX_clean_sbu_0, # of connection points: 6
#     Node 23, Type 0, BuildingBlock: GEDQOX_clean_sbu_0, # of connection points: 6
#     Node 24, Type 0, BuildingBlock: GEDQOX_clean_sbu_0, # of connection points: 6
#     Node 25, Type 0, BuildingBlock: GEDQOX_clean_sbu_0, # of connection points: 6
#     Node 26, Type 0, BuildingBlock: GEDQOX_clean_sbu_0, # of connection points: 6
#     Node 27, Type 0, BuildingBlock: GEDQOX_clean_sbu_0, # of connection points: 6
#     Node 28, Type 0, BuildingBlock: GEDQOX_clean_sbu_0, # of connection points: 6
#     Node 29, Type 0, BuildingBlock: GEDQOX_clean_sbu_0, # of connection points: 6
#     Node 30, Type 0, BuildingBlock: GEDQOX_clean_sbu_0, # of connection points: 6
#     Node 31, Type 0, BuildingBlock: GEDQOX_clean_sbu_0, # of connection points: 6
#     Edge 32, Type (0, 0), BuildingBlock: UVAHIK_clean_linker_0, # of connection points: 2
#     Edge 33, Type (0, 0), BuildingBlock: UVAHIK_clean_linker_0, # of connection points: 2
#     Edge 34, Type (0, 0), BuildingBlock: UVAHIK_clean_linker_0, # of connection points: 2
#     Edge 35, Type (0, 0), BuildingBlock: UVAHIK_clean_linker_0, # of connection points: 2
#     Edge 36, Type (0, 0), BuildingBlock: UVAHIK_clean_linker_0, # of connection points: 2
#     Edge 37, Type (0, 0), BuildingBlock: UVAHIK_clean_linker_0, # of connection points: 2
#     Edge 38, Type (0, 0), BuildingBlock: UVAHIK_clean_linker_0, # of connection points: 2
#     Edge 39, Type (0, 0), BuildingBlock: UVAHIK_clean_linker_0, # of connection points: 2
#     Edge 40, Type (0, 0), BuildingBlock: UVAHIK_clean_linker_0, # of connection points: 2
#     Edge 41, Type (0, 0), BuildingBlock: UVAHIK_clean_linker_0, # of connection points: 2
#     Edge 42, Type (0, 0), BuildingBlock: UVAHIK_clean_linker_0, # of connection points: 2
#     Edge 43, Type (0, 0), BuildingBlock: UVAHIK_clean_linker_0, # of connection points: 2
#     Edge 44, Type (0, 0), BuildingBlock: UVAHIK_clean_linker_0, # of connection points: 2
#     Edge 45, Type (0, 0), BuildingBlock: UVAHIK_clean_linker_0, # of connection points: 2
#     Edge 46, Type (0, 0), BuildingBlock: UVAHIK_clean_linker_0, # of connection points: 2
#     Edge 47, Type (0, 0), BuildingBlock: UVAHIK_clean_linker_0, # of connection points: 2
#     Edge 48, Type (0, 0), BuildingBlock: UVAHIK_clean_linker_0, # of connection points: 2
#     Edge 49, Type (0, 0), BuildingBlock: UVAHIK_clean_linker_0, # of connection points: 2
#     Edge 50, Type (0, 0), BuildingBlock: UVAHIK_clean_linker_0, # of connection points: 2
#     Edge 51, Type (0, 0), BuildingBlock: UVAHIK_clean_linker_0, # of connection points: 2
#     Edge 52, Type (0, 0), BuildingBlock: UVAHIK_clean_linker_0, # of connection points: 2
#     Edge 53, Type (0, 0), BuildingBlock: UVAHIK_clean_linker_0, # of connection points: 2
#     Edge 54, Type (0, 0), BuildingBlock: UVAHIK_clean_linker_0, # of connection points: 2
#     Edge 55, Type (0, 0), BuildingBlock: UVAHIK_clean_linker_0, # of connection points: 2
#     Edge 56, Type (0, 0), BuildingBlock: UVAHIK_clean_linker_0, # of connection points: 2
#     Edge 57, Type (0, 0), BuildingBlock: UVAHIK_clean_linker_0, # of connection points: 2
#     Edge 58, Type (0, 0), BuildingBlock: UVAHIK_clean_linker_0, # of connection points: 2
#     Edge 59, Type (0, 0), BuildingBlock: UVAHIK_clean_linker_0, # of connection points: 2
#     Edge 60, Type (0, 0), BuildingBlock: UVAHIK_clean_linker_0, # of connection points: 2
#     Edge 61, Type (0, 0), BuildingBlock: UVAHIK_clean_linker_0, # of connection points: 2
#     Edge 62, Type (0, 0), BuildingBlock: UVAHIK_clean_linker_0, # of connection points: 2
#     Edge 63, Type (0, 0), BuildingBlock: UVAHIK_clean_linker_0, # of connection points: 2
#     Edge 64, Type (0, 0), BuildingBlock: UVAHIK_clean_linker_0, # of connection points: 2
#     Edge 65, Type (0, 0), BuildingBlock: UVAHIK_clean_linker_0, # of connection points: 2
#     Edge 66, Type (0, 0), BuildingBlock: UVAHIK_clean_linker_0, # of connection points: 2
#     Edge 67, Type (0, 0), BuildingBlock: UVAHIK_clean_linker_0, # of connection points: 2
#     Edge 68, Type (0, 0), BuildingBlock: UVAHIK_clean_linker_0, # of connection points: 2
#     Edge 69, Type (0, 0), BuildingBlock: UVAHIK_clean_linker_0, # of connection points: 2
#     Edge 70, Type (0, 0), BuildingBlock: UVAHIK_clean_linker_0, # of connection points: 2
#     Edge 71, Type (0, 0), BuildingBlock: UVAHIK_clean_linker_0, # of connection points: 2
#     Edge 72, Type (0, 0), BuildingBlock: UVAHIK_clean_linker_0, # of connection points: 2
#     Edge 73, Type (0, 0), BuildingBlock: UVAHIK_clean_linker_0, # of connection points: 2
#     Edge 74, Type (0, 0), BuildingBlock: UVAHIK_clean_linker_0, # of connection points: 2
#     Edge 75, Type (0, 0), BuildingBlock: UVAHIK_clean_linker_0, # of connection points: 2
#     Edge 76, Type (0, 0), BuildingBlock: UVAHIK_clean_linker_0, # of connection points: 2
#     Edge 77, Type (0, 0), BuildingBlock: UVAHIK_clean_linker_0, # of connection points: 2
#     Edge 78, Type (0, 0), BuildingBlock: UVAHIK_clean_linker_0, # of connection points: 2
#     Edge 79, Type (0, 0), BuildingBlock: UVAHIK_clean_linker_0, # of connection points: 2
#     Edge 80, Type (0, 0), BuildingBlock: UVAHIK_clean_linker_0, # of connection points: 2
#     Edge 81, Type (0, 0), BuildingBlock: UVAHIK_clean_linker_0, # of connection points: 2
#     Edge 82, Type (0, 0), BuildingBlock: UVAHIK_clean_linker_0, # of connection points: 2
#     Edge 83, Type (0, 0), BuildingBlock: UVAHIK_clean_linker_0, # of connection points: 2
#     Edge 84, Type (0, 0), BuildingBlock: UVAHIK_clean_linker_0, # of connection points: 2
#     Edge 85, Type (0, 0), BuildingBlock: UVAHIK_clean_linker_0, # of connection points: 2
#     Edge 86, Type (0, 0), BuildingBlock: UVAHIK_clean_linker_0, # of connection points: 2
#     Edge 87, Type (0, 0), BuildingBlock: UVAHIK_clean_linker_0, # of connection points: 2
#     Edge 88, Type (0, 0), BuildingBlock: UVAHIK_clean_linker_0, # of connection points: 2
#     Edge 89, Type (0, 0), BuildingBlock: UVAHIK_clean_linker_0, # of connection points: 2
#     Edge 90, Type (0, 0), BuildingBlock: UVAHIK_clean_linker_0, # of connection points: 2
#     Edge 91, Type (0, 0), BuildingBlock: UVAHIK_clean_linker_0, # of connection points: 2
#     Edge 92, Type (0, 0), BuildingBlock: UVAHIK_clean_linker_0, # of connection points: 2
#     Edge 93, Type (0, 0), BuildingBlock: UVAHIK_clean_linker_0, # of connection points: 2
#     Edge 94, Type (0, 0), BuildingBlock: UVAHIK_clean_linker_0, # of connection points: 2
#     Edge 95, Type (0, 0), BuildingBlock: UVAHIK_clean_linker_0, # of connection points: 2
#     Edge 96, Type (0, 0), BuildingBlock: UVAHIK_clean_linker_0, # of connection points: 2
#     Edge 97, Type (0, 0), BuildingBlock: UVAHIK_clean_linker_0, # of connection points: 2
#     Edge 98, Type (0, 0), BuildingBlock: UVAHIK_clean_linker_0, # of connection points: 2
#     Edge 99, Type (0, 0), BuildingBlock: UVAHIK_clean_linker_0, # of connection points: 2
#     Edge 100, Type (0, 0), BuildingBlock: UVAHIK_clean_linker_0, # of connection points: 2
#     Edge 101, Type (0, 0), BuildingBlock: UVAHIK_clean_linker_0, # of connection points: 2
#     Edge 102, Type (0, 0), BuildingBlock: UVAHIK_clean_linker_0, # of connection points: 2
#     Edge 103, Type (0, 0), BuildingBlock: UVAHIK_clean_linker_0, # of connection points: 2
#     Edge 104, Type (0, 0), BuildingBlock: UVAHIK_clean_linker_0, # of connection points: 2
#     Edge 105, Type (0, 0), BuildingBlock: UVAHIK_clean_linker_0, # of connection points: 2
#     Edge 106, Type (0, 0), BuildingBlock: UVAHIK_clean_linker_0, # of connection points: 2
#     Edge 107, Type (0, 0), BuildingBlock: UVAHIK_clean_linker_0, # of connection points: 2
#     Edge 108, Type (0, 0), BuildingBlock: UVAHIK_clean_linker_0, # of connection points: 2
#     Edge 109, Type (0, 0), BuildingBlock: UVAHIK_clean_linker_0, # of connection points: 2
#     Edge 110, Type (0, 0), BuildingBlock: UVAHIK_clean_linker_0, # of connection points: 2
#     Edge 111, Type (0, 0), BuildingBlock: UVAHIK_clean_linker_0, # of connection points: 2
#     Edge 112, Type (0, 0), BuildingBlock: UVAHIK_clean_linker_0, # of connection points: 2
#     Edge 113, Type (0, 0), BuildingBlock: UVAHIK_clean_linker_0, # of connection points: 2
#     Edge 114, Type (0, 0), BuildingBlock: UVAHIK_clean_linker_0, # of connection points: 2
#     Edge 115, Type (0, 0), BuildingBlock: UVAHIK_clean_linker_0, # of connection points: 2
#     Edge 116, Type (0, 0), BuildingBlock: UVAHIK_clean_linker_0, # of connection points: 2
#     Edge 117, Type (0, 0), BuildingBlock: UVAHIK_clean_linker_0, # of connection points: 2
#     Edge 118, Type (0, 0), BuildingBlock: UVAHIK_clean_linker_0, # of connection points: 2
#     Edge 119, Type (0, 0), BuildingBlock: UVAHIK_clean_linker_0, # of connection points: 2
#     Edge 120, Type (0, 0), BuildingBlock: UVAHIK_clean_linker_0, # of connection points: 2
#     Edge 121, Type (0, 0), BuildingBlock: UVAHIK_clean_linker_0, # of connection points: 2
#     Edge 122, Type (0, 0), BuildingBlock: UVAHIK_clean_linker_0, # of connection points: 2
#     Edge 123, Type (0, 0), BuildingBlock: UVAHIK_clean_linker_0, # of connection points: 2
#     Edge 124, Type (0, 0), BuildingBlock: UVAHIK_clean_linker_0, # of connection points: 2
#     Edge 125, Type (0, 0), BuildingBlock: UVAHIK_clean_linker_0, # of connection points: 2
#     Edge 126, Type (0, 0), BuildingBlock: UVAHIK_clean_linker_0, # of connection points: 2
#     Edge 127, Type (0, 0), BuildingBlock: UVAHIK_clean_linker_0, # of connection points: 2
# Relax obj value: 0.142
# Max RMSD: 0.200
# Mean RMSD: 0.200
data_MOF--net-wio--node1-GEDQOX_clean_sbu_0--edge1-UVAHIK_clean_linker_0
_symmetry_space_group_name_H-M    P1
_symmetry_Int_Tables_number       1
_symmetry_cell_setting            triclinic
loop_
_symmetry_equiv_pos_as_xyz
'x, y, z'
_cell_length_a     64.367781
_cell_length_b     64.392701
_cell_length_c     78.755878
_cell_angle_alpha  89.952317
_cell_angle_beta   90.024377
_cell_angle_gamma 89.998314
loop_
_atom_site_label
_atom_site_type_symbol
_atom_site_fract_x
_atom_site_fract_y
_atom_site_fract_z
_atom_type_partial_charge
Nd0 Nd 0.12538 0.12355 0.31232 0.0
Nd1 Nd 0.15149 0.11263 0.34358 0.0
C2 C 0.10831 0.12875 0.28191 0.0
C3 C 0.11264 0.12799 0.26347 0.0
C4 C 0.12359 0.1115 0.25592 0.0
C5 C 0.12621 0.11077 0.23823 0.0
C6 C 0.11789 0.12648 0.22775 0.0
C7 C 0.1074 0.14316 0.23549 0.0
C8 C 0.10479 0.14385 0.2531 0.0
C9 C 0.13237 0.15601 0.33422 0.0
C10 C 0.1759 0.12073 0.30843 0.0
C11 C 0.16742 0.1088 0.37463 0.0
C12 C 0.16311 0.09685 0.39037 0.0
C13 C 0.17903 0.09378 0.40229 0.0
C14 C 0.17557 0.0819 0.41698 0.0
C15 C 0.15606 0.07275 0.42014 0.0
C16 C 0.14007 0.07601 0.40815 0.0
C17 C 0.14357 0.08787 0.39343 0.0
C18 C 0.14324 0.0796 0.32296 0.0
C19 C 0.09938 0.11162 0.34554 0.0
O20 O 0.10782 0.11121 0.29028 0.0
O21 O 0.11678 0.14385 0.29056 0.0
O22 O 0.11482 0.15243 0.32669 0.0
O23 O 0.14601 0.14287 0.3299 0.0
O24 O 0.15766 0.11735 0.30136 0.0
O25 O 0.17777 0.12284 0.32514 0.0
O26 O 0.15415 0.12331 0.37037 0.0
O27 O 0.17379 0.09807 0.36157 0.0
O28 O 0.16033 0.08155 0.33148 0.0
O29 O 0.13061 0.09385 0.32655 0.0
O30 O 0.11741 0.11227 0.35373 0.0
O31 O 0.09835 0.11342 0.32888 0.0
H32 H 0.12984 0.09905 0.26365 0.0
H33 H 0.13428 0.09765 0.23273 0.0
H34 H 0.10117 0.15576 0.22793 0.0
H35 H 0.09635 0.15675 0.25863 0.0
H36 H 0.19428 0.1004 0.40015 0.0
H37 H 0.1884 0.07955 0.42567 0.0
H38 H 0.12476 0.0695 0.41016 0.0
H39 H 0.13105 0.08993 0.3844 0.0
Nd40 Nd 0.1268 0.87538 0.56265 0.0
Nd41 Nd 0.14193 0.90008 0.59342 0.0
C42 C 0.11853 0.85801 0.5329 0.0
C43 C 0.12065 0.86105 0.51441 0.0
C44 C 0.13515 0.87495 0.50745 0.0
C45 C 0.13698 0.87706 0.48976 0.0
C46 C 0.12436 0.86529 0.47874 0.0
C47 C 0.10968 0.85164 0.48589 0.0
C48 C 0.10788 0.84956 0.5035 0.0
C49 C 0.09731 0.88059 0.58765 0.0
C50 C 0.1323 0.92588 0.55808 0.0
C51 C 0.14991 0.92089 0.62175 0.0
C52 C 0.16275 0.91761 0.63735 0.0
C53 C 0.15317 0.91618 0.65335 0.0
C54 C 0.165 0.91309 0.66814 0.0
C55 C 0.18683 0.9114 0.66738 0.0
C56 C 0.19638 0.91298 0.65132 0.0
C57 C 0.18454 0.916 0.63654 0.0
C58 C 0.17273 0.88148 0.57473 0.0
C59 C 0.1403 0.84954 0.59566 0.0
O60 O 0.13552 0.8543 0.54158 0.0
O61 O 0.10552 0.87021 0.54087 0.0
O62 O 0.1001 0.86362 0.57915 0.0
O63 O 0.10973 0.8946 0.58273 0.0
O64 O 0.12841 0.90776 0.55097 0.0
O65 O 0.13702 0.9275 0.57445 0.0
O66 O 0.13353 0.909 0.61987 0.0
O67 O 0.15974 0.92411 0.60742 0.0
O68 O 0.17323 0.88286 0.59113 0.0
O69 O 0.15704 0.89058 0.56888 0.0
O70 O 0.13716 0.86701 0.60412 0.0
O71 O 0.14075 0.84936 0.5789 0.0
H72 H 0.14513 0.88403 0.51568 0.0
H73 H 0.14854 0.88762 0.48473 0.0
H74 H 0.09941 0.84264 0.47787 0.0
H75 H 0.09649 0.83886 0.50862 0.0
H76 H 0.13643 0.91738 0.65443 0.0
H77 H 0.15695 0.91169 0.68016 0.0
H78 H 0.21311 0.91215 0.65012 0.0
H79 H 0.19254 0.91709 0.62448 0.0
Nd80 Nd 0.3802 0.88069 0.8121 0.0
Nd81 Nd 0.35432 0.89435 0.84264 0.0
C82 C 0.39697 0.87513 0.7817 0.0
C83 C 0.39162 0.87661 0.7634 0.0
C84 C 0.38949 0.89593 0.7552 0.0
C85 C 0.38584 0.89693 0.73768 0.0
C86 C 0.38418 0.87867 0.72797 0.0
C87 C 0.38598 0.85939 0.73625 0.0
C88 C 0.38975 0.85839 0.75373 0.0
C89 C 0.37185 0.84948 0.83478 0.0
C90 C 0.32967 0.88593 0.80774 0.0
C91 C 0.33801 0.9008 0.87325 0.0
C92 C 0.34319 0.91212 0.88907 0.0
C93 C 0.32903 0.9122 0.90261 0.0
C94 C 0.33308 0.92372 0.91736 0.0
C95 C 0.35141 0.93554 0.91893 0.0
C96 C 0.36571 0.93518 0.90535 0.0
C97 C 0.36164 0.92361 0.89059 0.0
C98 C 0.36525 0.92543 0.82068 0.0
C99 C 0.40638 0.89259 0.84528 0.0
O100 O 0.39859 0.89243 0.79032 0.0
O101 O 0.38827 0.86018 0.79044 0.0
O102 O 0.38944 0.8519 0.82698 0.0
O103 O 0.35867 0.86301 0.83017 0.0
O104 O 0.34817 0.88747 0.80068 0.0
O105 O 0.32751 0.88507 0.82448 0.0
O106 O 0.34931 0.88455 0.86947 0.0
O107 O 0.33388 0.91223 0.85996 0.0
O108 O 0.34736 0.9248 0.82821 0.0
O109 O 0.37667 0.91086 0.82559 0.0
O110 O 0.38825 0.89342 0.85332 0.0
O111 O 0.40745 0.88987 0.82871 0.0
H112 H 0.39089 0.9103 0.76225 0.0
H113 H 0.38433 0.91202 0.73172 0.0
H114 H 0.38508 0.84503 0.72914 0.0
H115 H 0.39156 0.8433 0.75963 0.0
H116 H 0.31463 0.90356 0.90168 0.0
H117 H 0.32154 0.92378 0.92736 0.0
H118 H 0.38011 0.94381 0.90612 0.0
H119 H 0.3728 0.92379 0.8803 0.0
Nd120 Nd 0.37466 0.13156 0.06303 0.0
Nd121 Nd 0.36134 0.10417 0.09284 0.0
C122 C 0.38053 0.14931 0.03304 0.0
C123 C 0.37948 0.14448 0.01469 0.0
C124 C 0.36196 0.13501 1.00734 0.0
C125 C 0.36116 0.13148 0.98978 0.0
C126 C 0.3779 0.1372 0.97925 0.0
C127 C 0.39547 0.14641 0.98674 0.0
C128 C 0.39622 0.15004 1.00423 0.0
C129 C 0.40553 0.12411 0.08626 0.0
C130 C 0.37179 0.08089 0.05782 0.0
C131 C 0.35477 0.08713 0.12319 0.0
C132 C 0.34355 0.09215 0.13912 0.0
C133 C 0.3435 0.07784 0.15256 0.0
C134 C 0.33217 0.08182 0.16743 0.0
C135 C 0.32053 0.10023 0.16923 0.0
C136 C 0.32086 0.11467 0.15573 0.0
C137 C 0.33223 0.11067 0.14086 0.0
C138 C 0.33054 0.11387 0.07021 0.0
C139 C 0.36067 0.15611 0.0964 0.0
O140 O 0.36301 0.1503 0.04143 0.0
O141 O 0.39546 0.14052 0.04173 0.0
O142 O 0.40247 0.14178 0.07872 0.0
O143 O 0.39282 0.11044 0.08111 0.0
O144 O 0.36954 0.09951 0.05107 0.0
O145 O 0.3724 0.07831 0.07453 0.0
O146 O 0.37118 0.09828 0.11954 0.0
O147 O 0.34326 0.08348 0.10986 0.0
O148 O 0.33192 0.09588 0.07752 0.0
O149 O 0.34422 0.126 0.07567 0.0
O150 O 0.36042 0.13771 0.10401 0.0
O151 O 0.36382 0.15794 0.07993 0.0
H152 H 0.34884 0.13046 0.01511 0.0
H153 H 0.34748 0.12416 0.98446 0.0
H154 H 0.40852 0.15127 0.97902 0.0
H155 H 0.40984 0.15744 1.00959 0.0
H156 H 0.35202 0.06339 0.15147 0.0
H157 H 0.33213 0.07017 0.17735 0.0
H158 H 0.31238 0.12915 0.15667 0.0
H159 H 0.33202 0.12195 0.13065 0.0
Nd160 Nd 0.12759 0.87658 0.20981 0.0
Nd161 Nd 0.15164 0.88735 0.17757 0.0
C162 C 0.11246 0.8715 0.24093 0.0
C163 C 0.11788 0.8732 0.25924 0.0
C164 C 0.10904 0.88903 0.26916 0.0
C165 C 0.1122 0.88963 0.28676 0.0
C166 C 0.12417 0.87429 0.29492 0.0
C167 C 0.13344 0.85873 0.28491 0.0
C168 C 0.13034 0.85818 0.2673 0.0
C169 C 0.13321 0.84411 0.18769 0.0
C170 C 0.17809 0.87992 0.21187 0.0
C171 C 0.16607 0.89067 0.146 0.0
C172 C 0.16178 0.90294 0.13042 0.0
C173 C 0.17764 0.90591 0.11844 0.0
C174 C 0.17425 0.91801 0.10387 0.0
C175 C 0.15485 0.92751 0.10088 0.0
C176 C 0.13893 0.92438 0.11294 0.0
C177 C 0.14236 0.91227 0.12754 0.0
C178 C 0.14414 0.92089 0.19786 0.0
C179 C 0.09951 0.88799 0.17757 0.0
O180 O 0.11044 0.8887 0.23224 0.0
O181 O 0.12099 0.85658 0.23209 0.0
O182 O 0.11611 0.84768 0.19587 0.0
O183 O 0.14712 0.85719 0.1915 0.0
O184 O 0.16029 0.88324 0.21963 0.0
O185 O 0.179 0.87763 0.19514 0.0
O186 O 0.1522 0.87692 0.15063 0.0
O187 O 0.17371 0.90089 0.15888 0.0
O188 O 0.16059 0.91897 0.18856 0.0
O189 O 0.1315 0.90634 0.19517 0.0
O190 O 0.117 0.8874 0.16865 0.0
O191 O 0.09956 0.88635 0.19426 0.0
H192 H 0.09917 0.90069 0.26337 0.0
H193 H 0.10462 0.90171 0.29404 0.0
H194 H 0.143 0.84684 0.29072 0.0
H195 H 0.13737 0.84571 0.2601 0.0
H196 H 0.1928 0.89901 0.12044 0.0
H197 H 0.18703 0.92026 0.09513 0.0
H198 H 0.12371 0.93116 0.11106 0.0
H199 H 0.12988 0.91029 0.13662 0.0
Nd200 Nd 0.37475 0.87634 0.46043 0.0
Nd201 Nd 0.36056 0.90219 0.42979 0.0
C202 C 0.38096 0.85996 0.49089 0.0
C203 C 0.37916 0.86519 0.50919 0.0
C204 C 0.35969 0.86669 0.51724 0.0
C205 C 0.3584 0.87005 0.53478 0.0
C206 C 0.37651 0.87205 0.54467 0.0
C207 C 0.39592 0.87097 0.53653 0.0
C208 C 0.39722 0.86749 0.51903 0.0
C209 C 0.40511 0.88321 0.43672 0.0
C210 C 0.37063 0.92711 0.46412 0.0
C211 C 0.3534 0.91734 0.39888 0.0
C212 C 0.34162 0.91182 0.3832 0.0
C213 C 0.35162 0.91212 0.36735 0.0
C214 C 0.34056 0.90805 0.35233 0.0
C215 C 0.3191 0.90363 0.35272 0.0
C216 C 0.30919 0.90312 0.36869 0.0
C217 C 0.32028 0.90711 0.3837 0.0
C218 C 0.33012 0.89257 0.45274 0.0
C219 C 0.3608 0.85009 0.4279 0.0
O220 O 0.36377 0.85757 0.48222 0.0
O221 O 0.39556 0.86928 0.48219 0.0
O222 O 0.40257 0.86588 0.44489 0.0
O223 O 0.39224 0.89692 0.44154 0.0
O224 O 0.36911 0.90877 0.47148 0.0
O225 O 0.37086 0.92908 0.44735 0.0
O226 O 0.36981 0.90623 0.40264 0.0
O227 O 0.34261 0.92238 0.41233 0.0
O228 O 0.33076 0.91019 0.44479 0.0
O229 O 0.3442 0.88069 0.44765 0.0
O230 O 0.36017 0.86811 0.41971 0.0
O231 O 0.36415 0.84908 0.44439 0.0
H232 H 0.34543 0.86497 0.51007 0.0
H233 H 0.3432 0.87103 0.54062 0.0
H234 H 0.41018 0.87216 0.54377 0.0
H235 H 0.41242 0.86618 0.51322 0.0
H236 H 0.36804 0.91569 0.36655 0.0
H237 H 0.34891 0.90826 0.3404 0.0
H238 H 0.29269 0.9001 0.36963 0.0
H239 H 0.31202 0.90676 0.39567 0.0
Nd240 Nd 0.37888 0.12779 0.71144 0.0
Nd241 Nd 0.35543 0.11214 0.68003 0.0
C242 C 0.39438 0.13557 0.74194 0.0
C243 C 0.38967 0.13266 0.76028 0.0
C244 C 0.39727 0.11529 0.76916 0.0
C245 C 0.39432 0.11346 0.78673 0.0
C246 C 0.38377 0.12899 0.79587 0.0
C247 C 0.37586 0.14617 0.78692 0.0
C248 C 0.37883 0.14802 0.76937 0.0
C249 C 0.37358 0.15731 0.68651 0.0
C250 C 0.32848 0.12076 0.71503 0.0
C251 C 0.33524 0.10416 0.6514 0.0
C252 C 0.33889 0.09152 0.63584 0.0
C253 C 0.33644 0.1005 0.6197 0.0
C254 C 0.33973 0.08879 0.6049 0.0
C255 C 0.34551 0.06769 0.60583 0.0
C256 C 0.34793 0.05876 0.62208 0.0
C257 C 0.34475 0.07051 0.63685 0.0
C258 C 0.37445 0.08185 0.69894 0.0
C259 C 0.40608 0.11495 0.67898 0.0
O260 O 0.39935 0.11912 0.73301 0.0
O261 O 0.38288 0.14878 0.73345 0.0
O262 O 0.3902 0.15524 0.69564 0.0
O263 O 0.35984 0.14432 0.69094 0.0
O264 O 0.34623 0.12554 0.72237 0.0
O265 O 0.32742 0.11568 0.6987 0.0
O266 O 0.34697 0.12061 0.65347 0.0
O267 O 0.33197 0.09412 0.66563 0.0
O268 O 0.37341 0.0813 0.68252 0.0
O269 O 0.36473 0.09723 0.70467 0.0
O270 O 0.38881 0.11747 0.67005 0.0
O271 O 0.40573 0.11473 0.69574 0.0
H272 H 0.40581 0.10322 0.7626 0.0
H273 H 0.40042 0.0999 0.79317 0.0
H274 H 0.36792 0.15858 0.79354 0.0
H275 H 0.373 0.16176 0.76301 0.0
H276 H 0.33201 0.11667 0.61853 0.0
H277 H 0.33799 0.0964 0.59273 0.0
H278 H 0.35201 0.04254 0.62345 0.0
H279 H 0.34682 0.06306 0.64907 0.0
Nd280 Nd 0.12857 0.12712 0.96041 0.0
Nd281 Nd 0.14243 0.10258 0.92904 0.0
C282 C 0.12181 0.14449 0.9904 0.0
C283 C 0.12462 0.14141 1.00881 0.0
C284 C 0.13349 0.12324 0.0155 0.0
C285 C 0.13538 0.12068 0.03316 0.0
C286 C 0.12847 0.13629 0.04438 0.0
C287 C 0.11962 0.15442 0.03747 0.0
C288 C 0.11775 0.15693 0.01991 0.0
C289 C 0.09822 0.12292 0.93599 0.0
C290 C 0.13291 0.07651 0.96435 0.0
C291 C 0.14941 0.08151 0.90064 0.0
C292 C 0.16158 0.08453 0.88477 0.0
C293 C 0.1638 0.10423 0.87724 0.0
C294 C 0.17558 0.10675 0.86236 0.0
C295 C 0.1856 0.08968 0.85471 0.0
C296 C 0.18329 0.07 0.86233 0.0
C297 C 0.17143 0.06748 0.87714 0.0
C298 C 0.17394 0.12036 0.94751 0.0
C299 C 0.14117 0.15301 0.9272 0.0
O300 O 0.1385 0.14802 0.98131 0.0
O301 O 0.1084 0.13239 0.98278 0.0
O302 O 0.10129 0.13949 0.94495 0.0
O303 O 0.11066 0.10862 0.94031 0.0
O304 O 0.1297 0.09458 0.97174 0.0
O305 O 0.13719 0.07505 0.94788 0.0
O306 O 0.13318 0.09349 0.90292 0.0
O307 O 0.16008 0.07867 0.91461 0.0
O308 O 0.17402 0.11944 0.93108 0.0
O309 O 0.15824 0.11136 0.95345 0.0
O310 O 0.13727 0.13574 0.91868 0.0
O311 O 0.14259 0.15294 0.94393 0.0
H312 H 0.13886 0.11105 1.00711 0.0
H313 H 0.1424 0.10659 0.038 0.0
H314 H 0.11375 0.16659 0.04564 0.0
H315 H 0.11073 0.17099 0.01498 0.0
H316 H 0.15654 0.11772 0.88292 0.0
H317 H 0.17719 0.12218 0.85704 0.0
H318 H 0.19053 0.05644 0.85676 0.0
H319 H 0.16998 0.05214 0.88267 0.0
Nd320 Nd 0.85139 0.88928 0.68067 0.0
Nd321 Nd 0.87777 0.87735 0.71155 0.0
C322 C 0.83503 0.89427 0.64986 0.0
C323 C 0.83918 0.90592 0.63394 0.0
C324 C 0.82302 0.90896 0.62224 0.0
C325 C 0.82624 0.92057 0.60739 0.0
C326 C 0.84576 0.92949 0.60383 0.0
C327 C 0.86202 0.92621 0.61556 0.0
C328 C 0.85875 0.91462 0.63047 0.0
C329 C 0.86016 0.9213 0.70222 0.0
C330 C 0.90345 0.88998 0.67828 0.0
C331 C 0.89496 0.87268 0.74195 0.0
C332 C 0.88999 0.87231 0.76035 0.0
C333 C 0.88307 0.89013 0.769 0.0
C334 C 0.88019 0.88974 0.78666 0.0
C335 C 0.88419 0.87155 0.79606 0.0
C336 C 0.89059 0.85364 0.78725 0.0
C337 C 0.89352 0.85406 0.76966 0.0
C338 C 0.87071 0.84564 0.68903 0.0
C339 C 0.82692 0.87952 0.71546 0.0
O340 O 0.84772 0.87912 0.65381 0.0
O341 O 0.82966 0.9053 0.66305 0.0
O342 O 0.8427 0.91968 0.69414 0.0
O343 O 0.87263 0.90729 0.69786 0.0
O344 O 0.88533 0.88966 0.67022 0.0
O345 O 0.90464 0.8878 0.6949 0.0
O346 O 0.89397 0.89049 0.73396 0.0
O347 O 0.88837 0.85712 0.73273 0.0
O348 O 0.88829 0.84888 0.69666 0.0
O349 O 0.85704 0.85858 0.69371 0.0
O350 O 0.84523 0.88184 0.72274 0.0
O351 O 0.82499 0.8787 0.6987 0.0
H352 H 0.80779 0.90243 0.62464 0.0
H353 H 0.81341 0.92243 0.59863 0.0
H354 H 0.87719 0.93298 0.61342 0.0
H355 H 0.87144 0.91264 0.63937 0.0
H356 H 0.88028 0.90451 0.76222 0.0
H357 H 0.87543 0.90388 0.79299 0.0
H358 H 0.89346 0.83924 0.79397 0.0
H359 H 0.89891 0.84012 0.76335 0.0
Nd360 Nd 0.86065 0.10033 0.42942 0.0
Nd361 Nd 0.87544 0.12503 0.46039 0.0
C362 C 0.8536 0.07937 0.40096 0.0
C363 C 0.84173 0.0832 0.3851 0.0
C364 C 0.84095 0.06797 0.37239 0.0
C365 C 0.82964 0.07137 0.35739 0.0
C366 C 0.81879 0.09013 0.35471 0.0
C367 C 0.81972 0.10539 0.36754 0.0
C368 C 0.83105 0.10196 0.38254 0.0
C369 C 0.82964 0.11863 0.448 0.0
C370 C 0.86199 0.15093 0.42734 0.0
C371 C 0.8832 0.14168 0.4905 0.0
C372 C 0.88142 0.13776 0.50906 0.0
C373 C 0.86297 0.14211 0.51797 0.0
C374 C 0.86223 0.14035 0.53572 0.0
C375 C 0.87993 0.1343 0.545 0.0
C376 C 0.89817 0.12942 0.536 0.0
C377 C 0.89892 0.13121 0.51831 0.0
C378 C 0.90499 0.1201 0.43542 0.0
C379 C 0.87024 0.0744 0.46471 0.0
O380 O 0.87008 0.09094 0.40339 0.0
O381 O 0.84264 0.07693 0.41483 0.0
O382 O 0.82923 0.11733 0.43159 0.0
O383 O 0.84538 0.10966 0.45394 0.0
O384 O 0.86513 0.13348 0.41884 0.0
O385 O 0.86158 0.1511 0.44411 0.0
O386 O 0.86618 0.1454 0.48184 0.0
O387 O 0.89673 0.13059 0.48201 0.0
O388 O 0.90209 0.13705 0.44395 0.0
O389 O 0.89269 0.10601 0.44036 0.0
O390 O 0.87435 0.09247 0.47182 0.0
O391 O 0.86523 0.07286 0.44838 0.0
H392 H 0.84912 0.0534 0.37406 0.0
H393 H 0.82962 0.05934 0.34779 0.0
H394 H 0.8114 0.1199 0.36615 0.0
H395 H 0.83139 0.11395 0.39219 0.0
H396 H 0.84923 0.14739 0.5113 0.0
H397 H 0.84797 0.14443 0.5422 0.0
H398 H 0.91201 0.12438 0.54265 0.0
H399 H 0.91343 0.12788 0.51189 0.0
Nd400 Nd 0.65116 0.11065 0.17962 0.0
Nd401 Nd 0.62538 0.12249 0.21065 0.0
C402 C 0.66701 0.10617 0.14861 0.0
C403 C 0.6621 0.09409 0.13309 0.0
C404 C 0.67582 0.09441 0.11925 0.0
C405 C 0.67194 0.08229 0.10478 0.0
C406 C 0.65422 0.06946 0.10381 0.0
C407 C 0.64037 0.06942 0.11769 0.0
C408 C 0.64426 0.08158 0.13215 0.0
C409 C 0.64032 0.07774 0.19965 0.0
C410 C 0.59908 0.11231 0.17717 0.0
C411 C 0.60885 0.12751 0.24125 0.0
C412 C 0.61357 0.12505 0.2596 0.0
C413 C 0.60195 0.11095 0.26934 0.0
C414 C 0.60473 0.10964 0.28694 0.0
C415 C 0.61914 0.12252 0.29531 0.0
C416 C 0.63121 0.13624 0.28546 0.0
C417 C 0.62845 0.1375 0.26783 0.0
C418 C 0.63373 0.15486 0.18897 0.0
C419 C 0.67566 0.11693 0.21486 0.0
O420 O 0.65418 0.12109 0.15276 0.0
O421 O 0.67308 0.09541 0.16178 0.0
O422 O 0.65779 0.07875 0.19154 0.0
O423 O 0.62884 0.09289 0.19608 0.0
O424 O 0.61723 0.1121 0.16915 0.0
O425 O 0.59794 0.1141 0.19382 0.0
O426 O 0.60656 0.11061 0.23225 0.0
O427 O 0.61832 0.14232 0.23291 0.0
O428 O 0.61609 0.15194 0.19655 0.0
O429 O 0.6469 0.14119 0.19327 0.0
O430 O 0.65719 0.11426 0.22171 0.0
O431 O 0.6778 0.11927 0.19821 0.0
H432 H 0.68974 0.10385 0.11973 0.0
H433 H 0.68313 0.0826 0.09453 0.0
H434 H 0.62642 0.06002 0.11738 0.0
H435 H 0.63344 0.08107 0.14268 0.0
H436 H 0.59036 0.10117 0.26337 0.0
H437 H 0.59543 0.09861 0.29401 0.0
H438 H 0.64233 0.14653 0.29143 0.0
H439 H 0.63766 0.14858 0.26072 0.0
Nd440 Nd 0.64213 0.89731 0.93188 0.0
Nd441 Nd 0.62872 0.87021 0.9618 0.0
C442 C 0.64872 0.91371 0.90135 0.0
C443 C 0.66099 0.90891 0.88577 0.0
C444 C 0.65107 0.90784 0.8699 0.0
C445 C 0.6625 0.9041 0.85502 0.0
C446 C 0.68424 0.9014 0.85558 0.0
C447 C 0.69409 0.90237 0.87155 0.0
C448 C 0.68265 0.90602 0.88642 0.0
C449 C 0.67326 0.88684 0.95393 0.0
C450 C 0.64169 0.84528 0.92833 0.0
C451 C 0.62282 0.85261 0.99184 0.0
C452 C 0.62423 0.85758 1.01011 0.0
C453 C 0.64047 0.86972 0.01674 0.0
C454 C 0.64159 0.87371 0.03423 0.0
C455 C 0.62641 0.86577 0.04536 0.0
C456 C 0.61013 0.85378 0.03858 0.0
C457 C 0.60909 0.84973 0.02116 0.0
C458 C 0.59777 0.87845 0.93881 0.0
C459 C 0.63272 0.92076 0.96698 0.0
O460 O 0.63281 0.90177 0.9048 0.0
O461 O 0.65906 0.91901 0.91497 0.0
O462 O 0.67226 0.90477 0.94648 0.0
O463 O 0.65908 0.87505 0.94882 0.0
O464 O 0.6423 0.8637 0.92075 0.0
O465 O 0.63867 0.84352 0.94483 0.0
O466 O 0.64024 0.8513 0.98334 0.0
O467 O 0.60799 0.86171 0.98326 0.0
O468 O 0.6005 0.86065 0.94622 0.0
O469 O 0.61077 0.8918 0.944 0.0
O470 O 0.63495 0.90211 0.97368 0.0
O471 O 0.6316 0.9233 0.95028 0.0
H472 H 0.63442 0.91001 0.86899 0.0
H473 H 0.65422 0.90316 0.84308 0.0
H474 H 0.71078 0.90072 0.8726 0.0
H475 H 0.69087 0.90677 0.89841 0.0
H476 H 0.65231 0.87607 1.00844 0.0
H477 H 0.65421 0.88317 0.03901 0.0
H478 H 0.59835 0.84718 0.04677 0.0
H479 H 0.59648 0.84029 0.01632 0.0
Nd480 Nd 0.8539 0.11253 0.84331 0.0
Nd481 Nd 0.8782 0.12971 0.81282 0.0
C482 C 0.83299 0.10378 0.8715 0.0
C483 C 0.83606 0.0913 0.88721 0.0
C484 C 0.85588 0.08828 0.89433 0.0
C485 C 0.85838 0.07644 0.9092 0.0
C486 C 0.84114 0.06718 0.91727 0.0
C487 C 0.82134 0.07027 0.91003 0.0
C488 C 0.81885 0.08218 0.89523 0.0
C489 C 0.8722 0.08305 0.82312 0.0
C490 C 0.90444 0.11423 0.84491 0.0
C491 C 0.89482 0.14044 0.78331 0.0
C492 C 0.89154 0.13904 0.76478 0.0
C493 C 0.88058 0.12252 0.75732 0.0
C494 C 0.87844 0.12137 0.7396 0.0
C495 C 0.88719 0.13673 0.72902 0.0
C496 C 0.89776 0.15343 0.73669 0.0
C497 C 0.89992 0.15452 0.75433 0.0
C498 C 0.87311 0.15737 0.83917 0.0
C499 C 0.82773 0.12323 0.80836 0.0
O500 O 0.84455 0.12039 0.86966 0.0
O501 O 0.83065 0.09347 0.85731 0.0
O502 O 0.87084 0.08121 0.83948 0.0
O503 O 0.86317 0.0992 0.81809 0.0
O504 O 0.88715 0.11709 0.85371 0.0
O505 O 0.90431 0.11437 0.82815 0.0
O506 O 0.89963 0.12331 0.79142 0.0
O507 O 0.88212 0.15241 0.79183 0.0
O508 O 0.89004 0.15521 0.83049 0.0
O509 O 0.85911 0.14532 0.8337 0.0
O510 O 0.84573 0.12775 0.80127 0.0
O511 O 0.82629 0.11782 0.8246 0.0
H512 H 0.86946 0.09502 0.88835 0.0
H513 H 0.87389 0.07422 0.9142 0.0
H514 H 0.80765 0.06367 0.91592 0.0
H515 H 0.80341 0.08428 0.89003 0.0
H516 H 0.87384 0.11045 0.76516 0.0
H517 H 0.87031 0.10823 0.73419 0.0
H518 H 0.90432 0.16579 0.72905 0.0
H519 H 0.9083 0.16748 0.75983 0.0
Nd520 Nd 0.64179 0.10241 0.59287 0.0
Nd521 Nd 0.62884 0.12959 0.56266 0.0
C522 C 0.64822 0.08546 0.62329 0.0
C523 C 0.65975 0.09001 0.63918 0.0
C524 C 0.66411 0.07382 0.65057 0.0
C525 C 0.67562 0.0775 0.6654 0.0
C526 C 0.68311 0.09752 0.66925 0.0
C527 C 0.67857 0.11377 0.65779 0.0
C528 C 0.66704 0.11005 0.64292 0.0
C529 C 0.67297 0.11212 0.57062 0.0
C530 C 0.64228 0.15433 0.59601 0.0
C531 C 0.62316 0.14719 0.53255 0.0
C532 C 0.62381 0.14223 0.51423 0.0
C533 C 0.63956 0.1298 0.50717 0.0
C534 C 0.64013 0.12609 0.48962 0.0
C535 C 0.6249 0.13462 0.47881 0.0
C536 C 0.60908 0.14684 0.48602 0.0
C537 C 0.60857 0.1506 0.5035 0.0
C538 C 0.59796 0.12229 0.58593 0.0
C539 C 0.63159 0.07887 0.55792 0.0
O540 O 0.63216 0.09715 0.61968 0.0
O541 O 0.65945 0.08129 0.60991 0.0
O542 O 0.67161 0.09424 0.57808 0.0
O543 O 0.65906 0.12421 0.57574 0.0
O544 O 0.64158 0.13608 0.60385 0.0
O545 O 0.64027 0.15594 0.5794 0.0
O546 O 0.64083 0.14757 0.54077 0.0
O547 O 0.60807 0.13895 0.54142 0.0
O548 O 0.60097 0.13996 0.57837 0.0
O549 O 0.61059 0.1086 0.58072 0.0
O550 O 0.63408 0.09738 0.55103 0.0
O551 O 0.63065 0.0765 0.57464 0.0
H552 H 0.65879 0.05819 0.64789 0.0
H553 H 0.67901 0.06449 0.67367 0.0
H554 H 0.68379 0.12944 0.66034 0.0
H555 H 0.66393 0.12281 0.63432 0.0
H556 H 0.65147 0.12306 0.51519 0.0
H557 H 0.65241 0.11643 0.48454 0.0
H558 H 0.59727 0.1539 0.4781 0.0
H559 H 0.59633 0.16029 0.50865 0.0
Nd560 Nd 0.65082 0.89044 0.34472 0.0
Nd561 Nd 0.62634 0.87777 0.31311 0.0
C562 C 0.66597 0.89496 0.37594 0.0
C563 C 0.66093 0.90685 0.39151 0.0
C564 C 0.67489 0.90691 0.40519 0.0
C565 C 0.67086 0.91882 0.41973 0.0
C566 C 0.65275 0.93103 0.42095 0.0
C567 C 0.63867 0.93072 0.40721 0.0
C568 C 0.64272 0.91878 0.39266 0.0
C569 C 0.64022 0.92293 0.32416 0.0
C570 C 0.59867 0.88843 0.3458 0.0
C571 C 0.61086 0.87217 0.28222 0.0
C572 C 0.61593 0.8752 0.26399 0.0
C573 C 0.60515 0.89023 0.25452 0.0
C574 C 0.60821 0.89202 0.23698 0.0
C575 C 0.62203 0.87871 0.22843 0.0
C576 C 0.63326 0.86405 0.23801 0.0
C577 C 0.63024 0.86229 0.25557 0.0
C578 C 0.63456 0.84573 0.33516 0.0
C579 C 0.67642 0.88448 0.30986 0.0
O580 O 0.6532 0.88006 0.37162 0.0
O581 O 0.67222 0.90583 0.3629 0.0
O582 O 0.65731 0.92242 0.33283 0.0
O583 O 0.6289 0.9076 0.32752 0.0
O584 O 0.61645 0.8892 0.35437 0.0
O585 O 0.59829 0.88599 0.32919 0.0
O586 O 0.60729 0.88875 0.29134 0.0
O587 O 0.62102 0.85784 0.2906 0.0
O588 O 0.61728 0.84803 0.3269 0.0
O589 O 0.64753 0.85973 0.33122 0.0
O590 O 0.65813 0.88685 0.30264 0.0
O591 O 0.67813 0.88226 0.32657 0.0
H592 H 0.6891 0.89793 0.40454 0.0
H593 H 0.68223 0.91882 0.42987 0.0
H594 H 0.62443 0.93966 0.4077 0.0
H595 H 0.63171 0.91898 0.38225 0.0
H596 H 0.59399 0.90037 0.26062 0.0
H597 H 0.59955 0.90374 0.2301 0.0
H598 H 0.64388 0.85339 0.23187 0.0
H599 H 0.63875 0.85046 0.26245 0.0
Nd600 Nd 0.85997 0.90085 0.09478 0.0
Nd601 Nd 0.87453 0.87546 0.06417 0.0
C602 C 0.85305 0.92216 0.12309 0.0
C603 C 0.84123 0.91831 0.13896 0.0
C604 C 0.83952 0.9339 0.15133 0.0
C605 C 0.82814 0.93045 0.16629 0.0
C606 C 0.81812 0.91131 0.16925 0.0
C607 C 0.82001 0.89568 0.15679 0.0
C608 C 0.83141 0.89915 0.14185 0.0
C609 C 0.82879 0.88218 0.07664 0.0
C610 C 0.86098 0.85032 0.09739 0.0
C611 C 0.88252 0.85824 0.03435 0.0
C612 C 0.8808 0.86196 0.01579 0.0
C613 C 0.86149 0.86243 1.00741 0.0
C614 C 0.86051 0.86441 0.98968 0.0
C615 C 0.87881 0.86587 0.97993 0.0
C616 C 0.89804 0.86589 0.98844 0.0
C617 C 0.899 0.86388 1.0061 0.0
C618 C 0.90412 0.88085 0.08905 0.0
C619 C 0.86895 0.92593 0.05899 0.0
O620 O 0.86958 0.91065 0.12067 0.0
O621 O 0.84204 0.92446 0.10923 0.0
O622 O 0.82853 0.88381 0.09303 0.0
O623 O 0.84449 0.89099 0.07048 0.0
O624 O 0.86472 0.86781 0.10567 0.0
O625 O 0.86011 0.84992 0.08065 0.0
O626 O 0.86547 0.85463 0.04298 0.0
O627 O 0.89598 0.86955 0.04271 0.0
O628 O 0.90105 0.86364 0.08092 0.0
O629 O 0.89194 0.89489 0.08384 0.0
O630 O 0.87307 0.90768 0.05221 0.0
O631 O 0.86413 0.92793 0.07532 0.0
H632 H 0.84691 0.94882 0.14937 0.0
H633 H 0.82689 0.94297 0.1754 0.0
H634 H 0.81285 0.88064 0.15863 0.0
H635 H 0.83256 0.88684 0.13252 0.0
H636 H 0.84714 0.8609 0.01447 0.0
H637 H 0.84544 0.86416 0.98357 0.0
H638 H 0.91244 0.86736 0.98144 0.0
H639 H 0.9141 0.8635 0.01219 0.0
Nd640 Nd 0.61998 0.62352 0.81153 0.0
Nd641 Nd 0.64599 0.6101 0.84222 0.0
C642 C 0.60346 0.62891 0.78098 0.0
C643 C 0.60899 0.62767 0.7627 0.0
C644 C 0.61121 0.60846 0.75437 0.0
C645 C 0.61499 0.60768 0.73685 0.0
C646 C 0.61669 0.62606 0.72726 0.0
C647 C 0.61479 0.64523 0.73568 0.0
C648 C 0.61091 0.64601 0.75315 0.0
C649 C 0.628 0.65477 0.83424 0.0
C650 C 0.67059 0.61924 0.80741 0.0
C651 C 0.66233 0.60364 0.87286 0.0
C652 C 0.65753 0.59201 0.88865 0.0
C653 C 0.6715 0.59263 0.90231 0.0
C654 C 0.66789 0.58088 0.91704 0.0
C655 C 0.65018 0.56812 0.91847 0.0
C656 C 0.63603 0.56779 0.90476 0.0
C657 C 0.63966 0.5796 0.89003 0.0
C658 C 0.63555 0.57899 0.82014 0.0
C659 C 0.59386 0.61141 0.84467 0.0
O660 O 0.60209 0.61153 0.78955 0.0
O661 O 0.61174 0.64398 0.78983 0.0
O662 O 0.61048 0.65228 0.82634 0.0
O663 O 0.64129 0.64134 0.82967 0.0
O664 O 0.65216 0.61711 0.80032 0.0
O665 O 0.67265 0.62021 0.82416 0.0
O666 O 0.6506 0.61963 0.86916 0.0
O667 O 0.66677 0.59247 0.8595 0.0
O668 O 0.65339 0.57982 0.82775 0.0
O669 O 0.62392 0.59338 0.82505 0.0
O670 O 0.61198 0.61075 0.85275 0.0
O671 O 0.59278 0.61408 0.82809 0.0
H672 H 0.60977 0.594 0.7613 0.0
H673 H 0.61656 0.59266 0.7308 0.0
H674 H 0.61571 0.65968 0.72868 0.0
H675 H 0.60903 0.66103 0.75914 0.0
H676 H 0.68546 0.60199 0.9015 0.0
H677 H 0.67931 0.5814 0.92713 0.0
H678 H 0.62208 0.55844 0.90542 0.0
H679 H 0.62864 0.57887 0.87965 0.0
Nd680 Nd 0.63148 0.37115 0.06309 0.0
Nd681 Nd 0.64461 0.39871 0.09289 0.0
C682 C 0.62586 0.35337 0.0331 0.0
C683 C 0.62707 0.35837 0.01481 0.0
C684 C 0.64364 0.36989 1.00795 0.0
C685 C 0.64459 0.3738 0.99044 0.0
C686 C 0.62893 0.36642 0.97949 0.0
C687 C 0.61231 0.3551 0.9865 0.0
C688 C 0.61143 0.35111 1.00394 0.0
C689 C 0.6005 0.37887 0.08611 0.0
C690 C 0.63432 0.42182 0.05767 0.0
C691 C 0.65099 0.41578 0.12324 0.0
C692 C 0.66209 0.41076 0.13925 0.0
C693 C 0.66295 0.42549 0.15235 0.0
C694 C 0.67415 0.42144 0.16729 0.0
C695 C 0.68484 0.40252 0.16952 0.0
C696 C 0.68372 0.38769 0.15636 0.0
C697 C 0.6725 0.39177 0.1414 0.0
C698 C 0.67552 0.38899 0.07043 0.0
C699 C 0.64527 0.34669 0.09662 0.0
O700 O 0.64334 0.35246 0.04158 0.0
O701 O 0.61084 0.36209 0.04171 0.0
O702 O 0.60352 0.3611 0.07875 0.0
O703 O 0.61329 0.39245 0.08092 0.0
O704 O 0.63667 0.40316 0.05103 0.0
O705 O 0.63361 0.42448 0.07438 0.0
O706 O 0.63459 0.40465 0.11952 0.0
O707 O 0.66259 0.41943 0.10997 0.0
O708 O 0.6741 0.40699 0.07771 0.0
O709 O 0.66182 0.37684 0.07587 0.0
O710 O 0.64548 0.36514 0.10415 0.0
O711 O 0.64219 0.34481 0.08014 0.0
H712 H 0.65587 0.37578 0.01608 0.0
H713 H 0.65749 0.38275 0.9855 0.0
H714 H 0.60015 0.34894 0.97845 0.0
H715 H 0.59856 0.34215 1.00894 0.0
H716 H 0.65516 0.44031 0.15093 0.0
H717 H 0.67482 0.4334 0.17693 0.0
H718 H 0.69145 0.37283 0.15762 0.0
H719 H 0.67211 0.38016 0.13146 0.0
Nd720 Nd 0.87899 0.3761 0.31277 0.0
Nd721 Nd 0.85335 0.38807 0.34389 0.0
C722 C 0.89522 0.36972 0.28222 0.0
C723 C 0.89061 0.37114 0.26382 0.0
C724 C 0.8842 0.38978 0.25609 0.0
C725 C 0.88151 0.39087 0.23842 0.0
C726 C 0.88522 0.37337 0.22811 0.0
C727 C 0.89109 0.35465 0.23602 0.0
C728 C 0.8938 0.35359 0.25361 0.0
C729 C 0.87277 0.34448 0.33572 0.0
C730 C 0.82846 0.37925 0.3092 0.0
C731 C 0.83836 0.39299 0.3751 0.0
C732 C 0.8427 0.40616 0.39024 0.0
C733 C 0.84348 0.39718 0.40649 0.0
C734 C 0.8468 0.40949 0.42097 0.0
C735 C 0.84937 0.43118 0.4196 0.0
C736 C 0.84873 0.44007 0.40322 0.0
C737 C 0.84552 0.42775 0.38877 0.0
C738 C 0.86105 0.42044 0.32235 0.0
C739 C 0.90549 0.3894 0.34533 0.0
O740 O 0.89753 0.38699 0.29076 0.0
O741 O 0.88558 0.35532 0.29089 0.0
O742 O 0.89012 0.34794 0.32785 0.0
O743 O 0.85888 0.35724 0.33115 0.0
O744 O 0.84663 0.38246 0.30197 0.0
O745 O 0.82679 0.37738 0.32593 0.0
O746 O 0.85207 0.37876 0.3712 0.0
O747 O 0.83079 0.40227 0.36169 0.0
O748 O 0.84423 0.41881 0.33126 0.0
O749 O 0.87381 0.40637 0.32613 0.0
O750 O 0.88756 0.38903 0.35365 0.0
O751 O 0.90635 0.3869 0.32873 0.0
H752 H 0.88161 0.4036 0.26363 0.0
H753 H 0.8771 0.40558 0.2328 0.0
H754 H 0.89366 0.34074 0.22859 0.0
H755 H 0.89873 0.33904 0.25924 0.0
H756 H 0.84141 0.38058 0.40801 0.0
H757 H 0.8475 0.40192 0.43324 0.0
H758 H 0.85031 0.45668 0.40153 0.0
H759 H 0.84503 0.4352 0.37644 0.0
Nd760 Nd 0.87282 0.62847 0.56223 0.0
Nd761 Nd 0.85904 0.60239 0.59283 0.0
C762 C 0.8785 0.64568 0.53197 0.0
C763 C 0.87802 0.64063 0.51369 0.0
C764 C 0.86432 0.62573 0.50701 0.0
C765 C 0.86382 0.62185 0.48947 0.0
C766 C 0.87709 0.6327 0.47833 0.0
C767 C 0.89086 0.64747 0.48519 0.0
C768 C 0.8913 0.65137 0.50265 0.0
C769 C 0.90372 0.62081 0.58538 0.0
C770 C 0.86907 0.57774 0.55821 0.0
C771 C 0.85223 0.58613 0.62345 0.0
C772 C 0.84075 0.59114 0.63926 0.0
C773 C 0.84029 0.57668 0.65259 0.0
C774 C 0.82867 0.58055 0.66733 0.0
C775 C 0.81713 0.59903 0.66912 0.0
C776 C 0.81786 0.61363 0.65574 0.0
C777 C 0.82953 0.60972 0.64099 0.0
C778 C 0.82831 0.61248 0.57027 0.0
C779 C 0.85982 0.65444 0.59524 0.0
O780 O 0.86074 0.64586 0.54005 0.0
O781 O 0.89359 0.63763 0.54095 0.0
O782 O 0.90115 0.6383 0.57745 0.0
O783 O 0.8905 0.60738 0.58066 0.0
O784 O 0.86751 0.59614 0.55096 0.0
O785 O 0.86928 0.57567 0.57498 0.0
O786 O 0.86849 0.59748 0.61977 0.0
O787 O 0.84093 0.58201 0.61009 0.0
O788 O 0.82912 0.59467 0.57794 0.0
O789 O 0.84249 0.62424 0.57537 0.0
O790 O 0.85921 0.63634 0.60334 0.0
O791 O 0.86273 0.65552 0.5787 0.0
H792 H 0.85397 0.61719 0.51531 0.0
H793 H 0.85318 0.61023 0.48467 0.0
H794 H 0.90106 0.65635 0.47702 0.0
H795 H 0.90191 0.66298 0.50754 0.0
H796 H 0.84871 0.56217 0.6515 0.0
H797 H 0.82834 0.56878 0.67715 0.0
H798 H 0.80946 0.62815 0.65667 0.0
H799 H 0.82962 0.62113 0.63087 0.0
Nd800 Nd 0.62844 0.37801 0.71156 0.0
Nd801 Nd 0.65104 0.39252 0.67938 0.0
C802 C 0.61345 0.37143 0.74242 0.0
C803 C 0.61836 0.37462 0.76068 0.0
C804 C 0.60831 0.39037 0.76989 0.0
C805 C 0.61124 0.39224 0.78745 0.0
C806 C 0.62422 0.37832 0.79627 0.0
C807 C 0.63467 0.36288 0.78696 0.0
C808 C 0.63175 0.36102 0.7694 0.0
C809 C 0.6325 0.34765 0.68724 0.0
C810 C 0.67897 0.38412 0.71397 0.0
C811 C 0.671 0.39972 0.65045 0.0
C812 C 0.66702 0.41161 0.63463 0.0
C813 C 0.68343 0.41606 0.62349 0.0
C814 C 0.68 0.42759 0.60862 0.0
C815 C 0.66 0.43501 0.60449 0.0
C816 C 0.64356 0.43042 0.61574 0.0
C817 C 0.64703 0.41889 0.63062 0.0
C818 C 0.63282 0.42343 0.69806 0.0
C819 C 0.60045 0.3898 0.67916 0.0
O820 O 0.60872 0.38781 0.73328 0.0
O821 O 0.62449 0.35776 0.73404 0.0
O822 O 0.61625 0.35029 0.69668 0.0
O823 O 0.64659 0.36061 0.69098 0.0
O824 O 0.66146 0.37963 0.72179 0.0
O825 O 0.6795 0.38905 0.69759 0.0
O826 O 0.65944 0.38328 0.65309 0.0
O827 O 0.67386 0.41067 0.66425 0.0
O828 O 0.63313 0.42345 0.68161 0.0
O829 O 0.64268 0.40818 0.70389 0.0
O830 O 0.61747 0.38699 0.66999 0.0
O831 O 0.60126 0.39061 0.69591 0.0
H832 H 0.59781 0.40103 0.76359 0.0
H833 H 0.60318 0.40452 0.79414 0.0
H834 H 0.64458 0.35172 0.79332 0.0
H835 H 0.63962 0.34857 0.76277 0.0
H836 H 0.69901 0.41072 0.62636 0.0
H837 H 0.69313 0.43101 0.6005 0.0
H838 H 0.6279 0.43556 0.61297 0.0
H839 H 0.6341 0.41568 0.63903 0.0
Nd840 Nd 0.87643 0.37893 0.9604 0.0
Nd841 Nd 0.8626 0.40303 0.92866 0.0
C842 C 0.88284 0.36193 0.9906 0.0
C843 C 0.87955 0.36495 1.00896 0.0
C844 C 0.87514 0.38453 0.01592 0.0
C845 C 0.87304 0.38691 0.03356 0.0
C846 C 0.87524 0.36972 0.04453 0.0
C847 C 0.87945 0.35015 0.03736 0.0
C848 C 0.88156 0.34782 0.01981 0.0
C849 C 0.90673 0.3825 0.93589 0.0
C850 C 0.8719 0.42959 0.96372 0.0
C851 C 0.85602 0.42367 0.89995 0.0
C852 C 0.84423 0.41994 0.88404 0.0
C853 C 0.83845 0.43671 0.87367 0.0
C854 C 0.82704 0.43344 0.8587 0.0
C855 C 0.8211 0.41327 0.85371 0.0
C856 C 0.82701 0.39648 0.86418 0.0
C857 C 0.83839 0.39978 0.87916 0.0
C858 C 0.83109 0.3855 0.94723 0.0
C859 C 0.8635 0.35252 0.92747 0.0
O860 O 0.86646 0.35793 0.98127 0.0
O861 O 0.89618 0.37426 0.9831 0.0
O862 O 0.90368 0.36618 0.94517 0.0
O863 O 0.89436 0.39694 0.94 0.0
O864 O 0.87537 0.41166 0.97129 0.0
O865 O 0.86745 0.4308 0.94727 0.0
O866 O 0.87233 0.41192 0.9026 0.0
O867 O 0.84499 0.4265 0.91372 0.0
O868 O 0.83098 0.38629 0.93079 0.0
O869 O 0.84678 0.39456 0.95312 0.0
O870 O 0.8671 0.36966 0.91868 0.0
O871 O 0.86255 0.35284 0.94422 0.0
H872 H 0.87349 0.39797 1.00774 0.0
H873 H 0.8696 0.40217 0.0386 0.0
H874 H 0.88163 0.33662 0.04535 0.0
H875 H 0.88507 0.3326 0.01469 0.0
H876 H 0.84266 0.45241 0.87722 0.0
H877 H 0.82258 0.44682 0.85121 0.0
H878 H 0.82305 0.3807 0.86074 0.0
H879 H 0.84262 0.38657 0.88696 0.0
Nd880 Nd 0.87378 0.62374 0.20996 0.0
Nd881 Nd 0.84881 0.61363 0.17815 0.0
C882 C 0.88977 0.62803 0.24086 0.0
C883 C 0.8855 0.62458 0.25915 0.0
C884 C 0.89933 0.61247 0.26875 0.0
C885 C 0.897 0.61067 0.28636 0.0
C886 C 0.88081 0.62105 0.29486 0.0
C887 C 0.86655 0.63266 0.28515 0.0
C888 C 0.86888 0.63443 0.2675 0.0
C889 C 0.86686 0.65711 0.18889 0.0
C890 C 0.82353 0.61935 0.21308 0.0
C891 C 0.83357 0.61098 0.14681 0.0
C892 C 0.83806 0.59923 0.13103 0.0
C893 C 0.82218 0.59591 0.11913 0.0
C894 C 0.82587 0.58426 0.10439 0.0
C895 C 0.84559 0.57561 0.10114 0.0
C896 C 0.86153 0.57912 0.11312 0.0
C897 C 0.85779 0.59074 0.1279 0.0
C898 C 0.85734 0.57956 0.19764 0.0
C899 C 0.90087 0.61372 0.1769 0.0
O900 O 0.89301 0.61173 0.23134 0.0
O901 O 0.87935 0.64261 0.23303 0.0
O902 O 0.88409 0.6537 0.19695 0.0
O903 O 0.85337 0.64348 0.19246 0.0
O904 O 0.84164 0.61555 0.22022 0.0
O905 O 0.82201 0.62258 0.19649 0.0
O906 O 0.84711 0.62502 0.15151 0.0
O907 O 0.82651 0.60017 0.1596 0.0
O908 O 0.84052 0.58163 0.18878 0.0
O909 O 0.86976 0.59432 0.19493 0.0
O910 O 0.88302 0.61416 0.16846 0.0
O911 O 0.90151 0.61517 0.19358 0.0
H912 H 0.91229 0.60474 0.26266 0.0
H913 H 0.90806 0.60129 0.29333 0.0
H914 H 0.85399 0.641 0.29123 0.0
H915 H 0.85798 0.64395 0.26049 0.0
H916 H 0.80679 0.60216 0.12133 0.0
H917 H 0.81308 0.58169 0.09571 0.0
H918 H 0.87699 0.57301 0.11104 0.0
H919 H 0.87029 0.59299 0.13692 0.0
Nd920 Nd 0.62753 0.62755 0.45959 0.0
Nd921 Nd 0.64167 0.60266 0.42842 0.0
C922 C 0.62017 0.64406 0.48978 0.0
C923 C 0.62234 0.63963 0.50821 0.0
C924 C 0.64182 0.63956 0.51633 0.0
C925 C 0.64325 0.63662 0.53394 0.0
C926 C 0.62526 0.63365 0.54382 0.0
C927 C 0.60585 0.63348 0.53561 0.0
C928 C 0.60442 0.6365 0.51806 0.0
C929 C 0.59771 0.62303 0.4348 0.0
C930 C 0.63247 0.57687 0.46382 0.0
C931 C 0.64797 0.5818 0.39983 0.0
C932 C 0.65958 0.58584 0.38391 0.0
C933 C 0.66948 0.60498 0.38118 0.0
C934 C 0.68069 0.60864 0.36618 0.0
C935 C 0.6823 0.59322 0.35354 0.0
C936 C 0.67219 0.57409 0.35634 0.0
C937 C 0.661 0.57045 0.37136 0.0
C938 C 0.67304 0.62051 0.44689 0.0
C939 C 0.6412 0.65325 0.42662 0.0
O940 O 0.63704 0.64786 0.48097 0.0
O941 O 0.60647 0.63307 0.48138 0.0
O942 O 0.6008 0.63993 0.44336 0.0
O943 O 0.60992 0.6088 0.4396 0.0
O944 O 0.6286 0.59497 0.47098 0.0
O945 O 0.63719 0.57526 0.44745 0.0
O946 O 0.63158 0.59341 0.40253 0.0
O947 O 0.65919 0.57918 0.41354 0.0
O948 O 0.67336 0.61926 0.43047 0.0
O949 O 0.65724 0.6117 0.45283 0.0
O950 O 0.6373 0.63598 0.41808 0.0
O951 O 0.64206 0.65329 0.44337 0.0
H952 H 0.65596 0.64199 0.50915 0.0
H953 H 0.65846 0.63665 0.53982 0.0
H954 H 0.59165 0.63157 0.54282 0.0
H955 H 0.58919 0.63674 0.51221 0.0
H956 H 0.66855 0.61713 0.39066 0.0
H957 H 0.68795 0.62366 0.36445 0.0
H958 H 0.67324 0.56173 0.34706 0.0
H959 H 0.65353 0.55554 0.37321 0.0
Nd960 Nd 0.355 0.39173 0.17915 0.0
Nd961 Nd 0.38091 0.37999 0.21022 0.0
C962 C 0.33898 0.39668 0.14822 0.0
C963 C 0.3436 0.40872 0.1326 0.0
C964 C 0.32936 0.40872 0.11911 0.0
C965 C 0.33291 0.42083 0.10457 0.0
C966 C 0.3508 0.43334 0.10316 0.0
C967 C 0.36518 0.43308 0.1167 0.0
C968 C 0.36161 0.42092 0.13125 0.0
C969 C 0.3647 0.42416 0.2 0.0
C970 C 0.40709 0.39142 0.17698 0.0
C971 C 0.39808 0.37557 0.24064 0.0
C972 C 0.39317 0.37503 0.25905 0.0
C973 C 0.38662 0.39286 0.26787 0.0
C974 C 0.3839 0.39233 0.28553 0.0
C975 C 0.38773 0.37398 0.29478 0.0
C976 C 0.39376 0.35607 0.28582 0.0
C977 C 0.39652 0.35662 0.26821 0.0
C978 C 0.37312 0.34779 0.18829 0.0
C979 C 0.33024 0.3831 0.2141 0.0
O980 O 0.35174 0.38162 0.15223 0.0
O981 O 0.33322 0.40746 0.16145 0.0
O982 O 0.34716 0.42276 0.19203 0.0
O983 O 0.37674 0.40966 0.19594 0.0
O984 O 0.38907 0.39103 0.16874 0.0
O985 O 0.40796 0.3898 0.19365 0.0
O986 O 0.39673 0.39338 0.2327 0.0
O987 O 0.39179 0.35992 0.23139 0.0
O988 O 0.39074 0.35087 0.19589 0.0
O989 O 0.35976 0.3612 0.19268 0.0
O990 O 0.34855 0.38553 0.22132 0.0
O991 O 0.32836 0.38185 0.19734 0.0
H992 H 0.31529 0.39954 0.11991 0.0
H993 H 0.32132 0.42077 0.0946 0.0
H994 H 0.37927 0.44222 0.11606 0.0
H995 H 0.37283 0.42119 0.14151 0.0
H996 H 0.384 0.40736 0.26122 0.0
H997 H 0.37943 0.40647 0.292 0.0
H998 H 0.39649 0.34157 0.29242 0.0
H999 H 0.40166 0.34267 0.26177 0.0
Nd1000 Nd 0.35854 0.60581 0.93074 0.0
Nd1001 Nd 0.37118 0.63298 0.96101 0.0
C1002 C 0.35256 0.58911 0.9002 0.0
C1003 C 0.34098 0.59403 0.8844 0.0
C1004 C 0.34077 0.57973 0.87098 0.0
C1005 C 0.3291 0.5836 0.85625 0.0
C1006 C 0.31726 0.60191 0.85457 0.0
C1007 C 0.31773 0.61635 0.86805 0.0
C1008 C 0.32944 0.61245 0.88279 0.0
C1009 C 0.32703 0.61603 0.95242 0.0
C1010 C 0.35858 0.65783 0.92731 0.0
C1011 C 0.37563 0.65064 0.99121 0.0
C1012 C 0.37505 0.64576 1.00963 0.0
C1013 C 0.35975 0.6549 0.01992 0.0
C1014 C 0.35985 0.65192 0.03753 0.0
C1015 C 0.37535 0.6398 0.04532 0.0
C1016 C 0.39039 0.63025 0.03496 0.0
C1017 C 0.39024 0.63317 0.01733 0.0
C1018 C 0.40261 0.62504 0.93844 0.0
C1019 C 0.36835 0.58218 0.96587 0.0
O1020 O 0.3685 0.60088 0.90395 0.0
O1021 O 0.34133 0.58463 0.91352 0.0
O1022 O 0.32834 0.59805 0.94512 0.0
O1023 O 0.34121 0.62792 0.94747 0.0
O1024 O 0.35845 0.63947 0.91965 0.0
O1025 O 0.36113 0.65952 0.94387 0.0
O1026 O 0.35799 0.65019 0.98295 0.0
O1027 O 0.39118 0.64344 0.98226 0.0
O1028 O 0.39974 0.64276 0.94594 0.0
O1029 O 0.38954 0.61161 0.94339 0.0
O1030 O 0.36616 0.60074 0.97273 0.0
O1031 O 0.36911 0.57976 0.94915 0.0
H1032 H 0.34944 0.56535 0.87198 0.0
H1033 H 0.32897 0.57195 0.84634 0.0
H1034 H 0.3091 0.63074 0.86721 0.0
H1035 H 0.32934 0.62373 0.89298 0.0
H1036 H 0.34793 0.66479 0.01436 0.0
H1037 H 0.34815 0.65969 0.04509 0.0
H1038 H 0.40238 0.62058 0.0405 0.0
H1039 H 0.40224 0.62583 1.00979 0.0
Nd1040 Nd 0.14815 0.61125 0.68052 0.0
Nd1041 Nd 0.12106 0.62531 0.71004 0.0
C1042 C 0.16461 0.60386 0.65013 0.0
C1043 C 0.16008 0.59115 0.63472 0.0
C1044 C 0.15734 0.60085 0.61888 0.0
C1045 C 0.15392 0.58906 0.60412 0.0
C1046 C 0.15323 0.56719 0.60478 0.0
C1047 C 0.1559 0.55754 0.62071 0.0
C1048 C 0.15923 0.56932 0.63544 0.0
C1049 C 0.13843 0.58075 0.70336 0.0
C1050 C 0.09611 0.6105 0.6771 0.0
C1051 C 0.1033 0.6323 0.73985 0.0
C1052 C 0.1077 0.63185 0.75831 0.0
C1053 C 0.11455 0.61374 0.76661 0.0
C1054 C 0.11718 0.61351 0.78429 0.0
C1055 C 0.11301 0.63136 0.79405 0.0
C1056 C 0.10669 0.64956 0.78558 0.0
C1057 C 0.104 0.64976 0.76797 0.0
C1058 C 0.12851 0.65554 0.68618 0.0
C1059 C 0.17164 0.62214 0.71537 0.0
O1060 O 0.15251 0.61975 0.65325 0.0
O1061 O 0.16997 0.59397 0.66397 0.0
O1062 O 0.1563 0.58185 0.69584 0.0
O1063 O 0.12628 0.59447 0.69795 0.0
O1064 O 0.11448 0.61 0.66945 0.0
O1065 O 0.09445 0.61409 0.69351 0.0
O1066 O 0.10215 0.61453 0.73183 0.0
O1067 O 0.11237 0.64682 0.73091 0.0
O1068 O 0.1108 0.65258 0.69367 0.0
O1069 O 0.1422 0.64307 0.69168 0.0
O1070 O 0.15302 0.62003 0.72214 0.0
O1071 O 0.17414 0.6226 0.69866 0.0
H1072 H 0.15795 0.61762 0.61787 0.0
H1073 H 0.15166 0.59716 0.59222 0.0
H1074 H 0.15582 0.54078 0.62181 0.0
H1075 H 0.16137 0.56124 0.64738 0.0
H1076 H 0.11755 0.59965 0.7595 0.0
H1077 H 0.12191 0.59917 0.79035 0.0
H1078 H 0.10374 0.66373 0.79258 0.0
H1079 H 0.09874 0.66392 0.76189 0.0
Nd1080 Nd 0.14397 0.40028 0.4295 0.0
Nd1081 Nd 0.12978 0.37321 0.4591 0.0
C1082 C 0.15116 0.41731 0.39922 0.0
C1083 C 0.16241 0.41233 0.3833 0.0
C1084 C 0.16324 0.42706 0.37018 0.0
C1085 C 0.17459 0.42311 0.35532 0.0
C1086 C 0.18547 0.40429 0.35319 0.0
C1087 C 0.18438 0.38944 0.36636 0.0
C1088 C 0.17299 0.39342 0.38124 0.0
C1089 C 0.17437 0.3903 0.45236 0.0
C1090 C 0.1441 0.34837 0.42595 0.0
C1091 C 0.12274 0.35511 0.4888 0.0
C1092 C 0.12296 0.35928 0.50725 0.0
C1093 C 0.13837 0.37161 0.51489 0.0
C1094 C 0.13876 0.37423 0.53258 0.0
C1095 C 0.12374 0.36458 0.54295 0.0
C1096 C 0.10806 0.35272 0.53512 0.0
C1097 C 0.10772 0.35009 0.5175 0.0
C1098 C 0.09963 0.38083 0.43526 0.0
C1099 C 0.1333 0.42382 0.46439 0.0
O1100 O 0.13455 0.40638 0.40272 0.0
O1101 O 0.16262 0.42068 0.41262 0.0
O1102 O 0.17329 0.40826 0.44497 0.0
O1103 O 0.1606 0.37823 0.4469 0.0
O1104 O 0.1446 0.36674 0.4183 0.0
O1105 O 0.14079 0.34667 0.44241 0.0
O1106 O 0.14065 0.35446 0.48096 0.0
O1107 O 0.10819 0.36413 0.47985 0.0
O1108 O 0.10247 0.3631 0.44275 0.0
O1109 O 0.11216 0.39446 0.44077 0.0
O1110 O 0.13491 0.40517 0.47122 0.0
O1111 O 0.13319 0.42638 0.44768 0.0
H1112 H 0.15531 0.44181 0.37152 0.0
H1113 H 0.17523 0.43507 0.34566 0.0
H1114 H 0.19226 0.37466 0.36517 0.0
H1115 H 0.1726 0.38182 0.3912 0.0
H1116 H 0.15029 0.37893 0.50723 0.0
H1117 H 0.15113 0.38336 0.53815 0.0
H1118 H 0.09601 0.34541 0.54262 0.0
H1119 H 0.09563 0.34062 0.51187 0.0
Nd1120 Nd 0.35323 0.61092 0.34192 0.0
Nd1121 Nd 0.3775 0.63003 0.31217 0.0
C1122 C 0.3321 0.60103 0.36974 0.0
C1123 C 0.33592 0.58882 0.38542 0.0
C1124 C 0.35607 0.58262 0.39003 0.0
C1125 C 0.35946 0.57113 0.40496 0.0
C1126 C 0.34277 0.56553 0.41564 0.0
C1127 C 0.3226 0.57179 0.41087 0.0
C1128 C 0.31924 0.58328 0.39595 0.0
C1129 C 0.37321 0.58289 0.32148 0.0
C1130 C 0.40373 0.61394 0.3442 0.0
C1131 C 0.39436 0.64253 0.28323 0.0
C1132 C 0.39165 0.64081 0.26471 0.0
C1133 C 0.37773 0.62654 0.25747 0.0
C1134 C 0.37575 0.62514 0.23976 0.0
C1135 C 0.38767 0.63797 0.229 0.0
C1136 C 0.40139 0.65237 0.23644 0.0
C1137 C 0.40335 0.65374 0.25408 0.0
C1138 C 0.37101 0.65647 0.3391 0.0
C1139 C 0.32751 0.621 0.30668 0.0
O1140 O 0.34268 0.6183 0.36805 0.0
O1141 O 0.33082 0.59055 0.35553 0.0
O1142 O 0.37136 0.58036 0.33775 0.0
O1143 O 0.36367 0.59881 0.31661 0.0
O1144 O 0.38618 0.61553 0.35287 0.0
O1145 O 0.40391 0.61526 0.32746 0.0
O1146 O 0.40023 0.62574 0.29133 0.0
O1147 O 0.38036 0.65327 0.2915 0.0
O1148 O 0.38816 0.65516 0.3306 0.0
O1149 O 0.3575 0.64422 0.33314 0.0
O1150 O 0.34545 0.62663 0.30001 0.0
O1151 O 0.32591 0.61516 0.32281 0.0
H1152 H 0.36921 0.58672 0.38212 0.0
H1153 H 0.37524 0.56689 0.40823 0.0
H1154 H 0.30929 0.56757 0.41853 0.0
H1155 H 0.30355 0.58781 0.39262 0.0
H1156 H 0.36852 0.61644 0.26551 0.0
H1157 H 0.36515 0.61379 0.23449 0.0
H1158 H 0.41052 0.66277 0.22862 0.0
H1159 H 0.41406 0.66494 0.25944 0.0
Nd1160 Nd 0.14026 0.60143 0.09313 0.0
Nd1161 Nd 0.12455 0.62541 0.06219 0.0
C1162 C 0.1481 0.58052 0.12148 0.0
C1163 C 0.16029 0.58433 0.13715 0.0
C1164 C 0.16484 0.56788 0.14823 0.0
C1165 C 0.17669 0.57122 0.16295 0.0
C1166 C 0.18433 0.59116 0.16695 0.0
C1167 C 0.17962 0.60764 0.15577 0.0
C1168 C 0.16778 0.60426 0.14105 0.0
C1169 C 0.17065 0.62022 0.07427 0.0
C1170 C 0.13848 0.65204 0.09466 0.0
C1171 C 0.11566 0.64185 0.03223 0.0
C1172 C 0.1172 0.63805 0.0137 0.0
C1173 C 0.13643 0.63746 1.00522 0.0
C1174 C 0.13723 0.63552 0.98749 0.0
C1175 C 0.11883 0.63419 0.97786 0.0
C1176 C 0.09968 0.63426 0.98647 0.0
C1177 C 0.09889 0.63624 1.00413 0.0
C1178 C 0.09563 0.62062 0.08765 0.0
C1179 C 0.13113 0.57505 0.05799 0.0
O1180 O 0.13147 0.59197 0.11928 0.0
O1181 O 0.15879 0.57817 0.10748 0.0
O1182 O 0.17125 0.61907 0.09069 0.0
O1183 O 0.15508 0.61085 0.06844 0.0
O1184 O 0.13582 0.63473 0.10351 0.0
O1185 O 0.13846 0.65184 0.0779 0.0
O1186 O 0.13274 0.64605 0.04065 0.0
O1187 O 0.10266 0.63024 0.04081 0.0
O1188 O 0.0983 0.63749 0.07896 0.0
O1189 O 0.10787 0.60651 0.08266 0.0
O1190 O 0.12625 0.5929 0.05084 0.0
O1191 O 0.13645 0.57378 0.07426 0.0
H1192 H 0.15933 0.55235 0.14544 0.0
H1193 H 0.18018 0.55807 0.17103 0.0
H1194 H 0.18492 0.62325 0.15846 0.0
H1195 H 0.16448 0.61722 0.13269 0.0
H1196 H 0.15085 0.6389 0.01221 0.0
H1197 H 0.15224 0.6357 0.9813 0.0
H1198 H 0.0852 0.6329 0.97954 0.0
H1199 H 0.08386 0.6367 1.01031 0.0
Nd1200 Nd 0.15075 0.39127 0.84291 0.0
Nd1201 Nd 0.12698 0.37651 0.81145 0.0
C1202 C 0.17144 0.39856 0.87148 0.0
C1203 C 0.16776 0.41042 0.88735 0.0
C1204 C 0.18442 0.41503 0.89821 0.0
C1205 C 0.18124 0.42644 0.91316 0.0
C1206 C 0.16126 0.43354 0.91766 0.0
C1207 C 0.14458 0.42882 0.9067 0.0
C1208 C 0.1478 0.41744 0.89172 0.0
C1209 C 0.13228 0.42222 0.82435 0.0
C1210 C 0.10029 0.3888 0.84421 0.0
C1211 C 0.11099 0.36905 0.78104 0.0
C1212 C 0.11551 0.37101 0.76258 0.0
C1213 C 0.10923 0.38865 0.75334 0.0
C1214 C 0.11169 0.38947 0.73566 0.0
C1215 C 0.12036 0.37261 0.72676 0.0
C1216 C 0.12708 0.35521 0.73608 0.0
C1217 C 0.12462 0.35439 0.75372 0.0
C1218 C 0.13206 0.34651 0.8361 0.0
C1219 C 0.17749 0.38247 0.80787 0.0
O1220 O 0.15988 0.38207 0.86905 0.0
O1221 O 0.17391 0.4095 0.85762 0.0
O1222 O 0.13311 0.42233 0.84079 0.0
O1223 O 0.14168 0.40676 0.8184 0.0
O1224 O 0.11754 0.38537 0.85293 0.0
O1225 O 0.10052 0.39 0.82747 0.0
O1226 O 0.1071 0.38601 0.78969 0.0
O1227 O 0.1218 0.35544 0.78969 0.0
O1228 O 0.11532 0.34907 0.82719 0.0
O1229 O 0.14594 0.35932 0.83164 0.0
O1230 O 0.15967 0.3781 0.80045 0.0
O1231 O 0.17861 0.38738 0.82423 0.0
H1232 H 0.19996 0.40978 0.89511 0.0
H1233 H 0.19444 0.42948 0.92131 0.0
H1234 H 0.12903 0.43422 0.90954 0.0
H1235 H 0.1347 0.41421 0.88348 0.0
H1236 H 0.10194 0.40164 0.75972 0.0
H1237 H 0.10615 0.40304 0.72891 0.0
H1238 H 0.13413 0.34207 0.72972 0.0
H1239 H 0.12951 0.34048 0.76036 0.0
Nd1240 Nd 0.3623 0.40069 0.59331 0.0
Nd1241 Nd 0.3782 0.37614 0.56275 0.0
C1242 C 0.35441 0.42179 0.62153 0.0
C1243 C 0.34248 0.41801 0.63736 0.0
C1244 C 0.33733 0.43464 0.64806 0.0
C1245 C 0.32585 0.4313 0.66298 0.0
C1246 C 0.3192 0.41119 0.66757 0.0
C1247 C 0.32447 0.39455 0.65675 0.0
C1248 C 0.33593 0.39792 0.64183 0.0
C1249 C 0.33194 0.38185 0.57436 0.0
C1250 C 0.3641 0.35021 0.59541 0.0
C1251 C 0.3872 0.35934 0.53297 0.0
C1252 C 0.38561 0.36312 0.51443 0.0
C1253 C 0.36633 0.36393 0.50602 0.0
C1254 C 0.36544 0.36601 0.4883 0.0
C1255 C 0.38379 0.36726 0.4786 0.0
C1256 C 0.40299 0.36692 0.48714 0.0
C1257 C 0.40387 0.36481 0.5048 0.0
C1258 C 0.40692 0.38155 0.5883 0.0
C1259 C 0.37178 0.42651 0.55798 0.0
O1260 O 0.37118 0.41058 0.61932 0.0
O1261 O 0.34354 0.42383 0.60758 0.0
O1262 O 0.33124 0.38315 0.59077 0.0
O1263 O 0.34766 0.39102 0.56858 0.0
O1264 O 0.36726 0.36761 0.60398 0.0
O1265 O 0.36372 0.35012 0.57865 0.0
O1266 O 0.37013 0.35519 0.5414 0.0
O1267 O 0.40019 0.37102 0.54149 0.0
O1268 O 0.40444 0.36445 0.57989 0.0
O1269 O 0.39468 0.39548 0.58299 0.0
O1270 O 0.37657 0.40852 0.55104 0.0
O1271 O 0.36641 0.42807 0.57421 0.0
H1272 H 0.34211 0.45028 0.64483 0.0
H1273 H 0.3219 0.44457 0.67076 0.0
H1274 H 0.31994 0.37882 0.65988 0.0
H1275 H 0.33969 0.38482 0.63377 0.0
H1276 H 0.35194 0.36258 0.51305 0.0
H1277 H 0.35038 0.36602 0.48217 0.0
H1278 H 0.41743 0.36822 0.48017 0.0
H1279 H 0.41894 0.36418 0.51093 0.0
C1280 C 0.19032 0.12808 0.27968 0.0
C1281 C 0.19398 0.1221 0.29662 0.0
C1282 C 0.20612 0.12748 0.26755 0.0
C1283 C 0.25544 0.10152 0.25706 0.0
H1284 H 0.25788 0.14384 0.22206 0.0
C1285 C 0.31492 0.09801 0.20109 0.0
C1286 C 0.30778 0.10408 0.18491 0.0
C1287 C 0.30274 0.1012 0.21567 0.0
C1288 C 0.25734 0.13174 0.2316 0.0
H1289 H 0.21749 0.11108 0.31409 0.0
H1290 H 0.24543 0.10992 0.29268 0.0
H1291 H 0.23446 0.14817 0.24605 0.0
H1292 H 0.2818 0.11806 0.1716 0.0
H1293 H 0.26069 0.12359 0.19682 0.0
H1294 H 0.27806 0.08488 0.24238 0.0
C1295 C 0.23011 0.11509 0.28889 0.0
C1296 C 0.24391 0.13428 0.24546 0.0
C1297 C 0.21418 0.11594 0.3012 0.0
C1298 C 0.28809 0.11352 0.1838 0.0
C1299 C 0.27592 0.1167 0.19835 0.0
C1300 C 0.26889 0.09895 0.24314 0.0
C1301 C 0.22621 0.12074 0.27185 0.0
C1302 C 0.24244 0.11904 0.25824 0.0
C1303 C 0.28302 0.11059 0.21453 0.0
C1304 C 0.26977 0.11386 0.23002 0.0
H1305 H 0.17498 0.13295 0.27562 0.0
H1306 H 0.20233 0.13167 0.25459 0.0
H1307 H 0.25462 0.08935 0.26654 0.0
H1308 H 0.33009 0.09097 0.20257 0.0
H1309 H 0.30893 0.09653 0.22787 0.0
C1310 C 0.162 0.0646 0.45133 0.0
C1311 C 0.15256 0.05961 0.43569 0.0
C1312 C 0.15906 0.05207 0.46574 0.0
C1313 C 0.12402 0.01136 0.48363 0.0
H1314 H 0.17043 0.9992 0.51343 0.0
C1315 C 0.1223 0.94281 0.53064 0.0
C1316 C 0.13222 0.94433 0.54654 0.0
C1317 C 0.12386 0.95868 0.5186 0.0
C1318 C 0.15719 0.00268 0.50543 0.0
H1319 H 0.13273 0.03706 0.42321 0.0
H1320 H 0.12754 0.01542 0.44821 0.0
H1321 H 0.17514 0.02294 0.4895 0.0
H1322 H 0.15129 0.96428 0.56226 0.0
H1323 H 0.15395 0.99231 0.54112 0.0
H1324 H 0.10612 0.99098 0.49937 0.0
C1325 C 0.13701 0.02924 0.44942 0.0
C1326 C 0.1599 0.01631 0.49164 0.0
C1327 C 0.13998 0.04173 0.43501 0.0
C1328 C 0.14333 0.96261 0.55021 0.0
C1329 C 0.14503 0.97858 0.53801 0.0
C1330 C 0.12131 0.99779 0.49739 0.0
C1331 C 0.14651 0.03418 0.46502 0.0
C1332 C 0.14343 0.02059 0.48035 0.0
C1333 C 0.13544 0.97673 0.52195 0.0
C1334 C 0.13793 0.99293 0.50835 0.0
H1335 H 0.17153 0.07838 0.45253 0.0
H1336 H 0.16642 0.05659 0.47754 0.0
H1337 H 0.11081 0.01459 0.47553 0.0
H1338 H 0.11359 0.92902 0.52726 0.0
H1339 H 0.1165 0.95642 0.50637 0.0
C1340 C 0.29227 0.89453 0.8 0.0
C1341 C 0.31155 0.88553 0.79592 0.0
C1342 C 0.27658 0.89636 0.78756 0.0
C1343 C 0.26003 0.87546 0.74544 0.0
H1344 H 0.23319 0.92874 0.73899 0.0
C1345 C 0.21747 0.89532 0.68278 0.0
C1346 C 0.19957 0.9079 0.68317 0.0
C1347 C 0.22947 0.8921 0.69742 0.0
C1348 C 0.24025 0.91362 0.7407 0.0
H1349 H 0.32908 0.87074 0.77575 0.0
H1350 H 0.30197 0.87357 0.75448 0.0
H1351 H 0.25609 0.92337 0.76338 0.0
H1352 H 0.18057 0.92707 0.69967 0.0
H1353 H 0.20112 0.92101 0.72522 0.0
H1354 H 0.24437 0.86561 0.72287 0.0
C1355 C 0.29879 0.87929 0.76714 0.0
C1356 C 0.25341 0.91055 0.75476 0.0
C1357 C 0.31443 0.87775 0.77939 0.0
C1358 C 0.19406 0.91709 0.69879 0.0
C1359 C 0.20606 0.91381 0.71347 0.0
C1360 C 0.24682 0.87846 0.73149 0.0
C1361 C 0.27973 0.88887 0.7709 0.0
C1362 C 0.26381 0.89154 0.75714 0.0
C1363 C 0.22397 0.90124 0.71305 0.0
C1364 C 0.237 0.89772 0.72867 0.0
H1365 H 0.28963 0.90086 0.81255 0.0
H1366 H 0.26205 0.90375 0.79093 0.0
H1367 H 0.26746 0.86048 0.74699 0.0
H1368 H 0.22218 0.88771 0.67115 0.0
H1369 H 0.24327 0.88259 0.69638 0.0
C1370 C 0.34953 0.9415 0.95074 0.0
C1371 C 0.35529 0.94854 0.93445 0.0
C1372 C 0.35269 0.95392 0.96517 0.0
C1373 C 0.38253 1.00008 0.9805 0.0
H1374 H 0.34049 0.00225 0.01571 0.0
C1375 C 0.37865 0.06696 0.02877 0.0
C1376 C 0.37295 0.06308 0.04574 0.0
C1377 C 0.37801 0.05128 0.01655 0.0
C1378 C 0.35256 0.0016 1.00615 0.0
H1379 H 0.36868 0.97455 0.9208 0.0
H1380 H 0.37413 0.99608 0.94578 0.0
H1381 H 0.33617 0.97858 0.99172 0.0
H1382 H 0.36234 0.03928 0.06313 0.0
H1383 H 0.36115 0.01158 0.04159 0.0
H1384 H 0.39871 0.02335 0.99472 0.0
C1385 C 0.36752 0.98076 0.9475 0.0
C1386 C 0.35008 0.98801 0.99233 0.0
C1387 C 0.36439 0.96835 0.93309 0.0
C1388 C 0.36697 0.04278 0.05023 0.0
C1389 C 0.36611 0.02698 0.03784 0.0
C1390 C 0.38497 0.01366 0.99426 0.0
C1391 C 0.36171 0.97378 0.96379 0.0
C1392 C 0.36487 0.98729 0.97913 0.0
C1393 C 0.37152 0.03109 0.02079 0.0
C1394 C 0.36987 0.01491 1.00715 0.0
H1395 H 0.34276 0.92624 0.95239 0.0
H1396 H 0.34827 0.94781 0.97746 0.0
H1397 H 0.39454 0.99968 0.97088 0.0
H1398 H 0.38335 0.08237 0.02478 0.0
H1399 H 0.38201 0.05521 1.00358 0.0
C1400 C 0.29058 0.88544 0.3362 0.0
C1401 C 0.30706 0.89982 0.33662 0.0
C1402 C 0.27902 0.8822 0.32132 0.0
C1403 C 0.2663 0.90637 0.27929 0.0
H1404 H 0.24356 0.85182 0.26999 0.0
C1405 C 0.21541 0.88886 0.21924 0.0
C1406 C 0.19674 0.8785 0.22298 0.0
C1407 C 0.23124 0.89035 0.23158 0.0
C1408 C 0.24976 0.86718 0.27238 0.0
H1409 H 0.32406 0.9221 0.3213 0.0
H1410 H 0.30442 0.916 0.29533 0.0
H1411 H 0.26626 0.85677 0.2944 0.0
H1412 H 0.18042 0.86091 0.24228 0.0
H1413 H 0.2079 0.863 0.26337 0.0
H1414 H 0.24963 0.91668 0.25718 0.0
C1415 C 0.30018 0.90741 0.30662 0.0
C1416 C 0.26273 0.87008 0.2865 0.0
C1417 C 0.3117 0.91071 0.32155 0.0
C1418 C 0.19467 0.8689 0.23894 0.0
C1419 C 0.21049 0.87006 0.25106 0.0
C1420 C 0.25342 0.90342 0.26506 0.0
C1421 C 0.2836 0.89313 0.30626 0.0
C1422 C 0.27091 0.8898 0.29042 0.0
C1423 C 0.22884 0.88117 0.24775 0.0
C1424 C 0.24464 0.88386 0.2616 0.0
H1425 H 0.28659 0.8765 0.34738 0.0
H1426 H 0.26624 0.87129 0.32176 0.0
H1427 H 0.27203 0.92185 0.28186 0.0
H1428 H 0.21733 0.89667 0.20715 0.0
H1429 H 0.24523 0.89895 0.22857 0.0
C1430 C 0.35899 0.96295 0.47328 0.0
C1431 C 0.37152 0.94531 0.47569 0.0
C1432 C 0.35684 0.97779 0.48633 0.0
C1433 C 0.36341 0.98171 0.53348 0.0
H1434 H 0.35494 0.04067 0.52648 0.0
C1435 C 0.36435 0.03947 0.58957 0.0
C1436 C 0.34897 0.05502 0.59004 0.0
C1437 C 0.3672 0.02716 0.57508 0.0
C1438 C 0.35713 0.0242 0.52864 0.0
H1439 H 0.3926 0.9301 0.49314 0.0
H1440 H 0.38975 0.95612 0.51529 0.0
H1441 H 0.36026 0.01786 0.50198 0.0
H1442 H 0.32463 0.0697 0.57517 0.0
H1443 H 0.32988 0.04845 0.54985 0.0
H1444 H 0.36048 0.98798 0.56006 0.0
C1445 C 0.38087 0.95832 0.50376 0.0
C1446 C 0.36016 0.01109 0.51456 0.0
C1447 C 0.38275 0.94348 0.49092 0.0
C1448 C 0.33682 0.05812 0.57533 0.0
C1449 C 0.3398 0.04588 0.56076 0.0
C1450 C 0.36056 0.99479 0.54748 0.0
C1451 C 0.36731 0.97534 0.50198 0.0
C1452 C 0.36356 0.98963 0.51678 0.0
C1453 C 0.35489 0.03006 0.56049 0.0
C1454 C 0.35753 0.01625 0.54532 0.0
H1455 H 0.34991 0.96462 0.46178 0.0
H1456 H 0.34621 0.99062 0.48443 0.0
H1457 H 0.36529 0.96525 0.53582 0.0
H1458 H 0.3744 0.03683 0.60039 0.0
H1459 H 0.37924 0.01541 0.57526 0.0
C1460 C 0.21763 0.08165 0.8373 0.0
C1461 C 0.1987 0.0924 0.83907 0.0
C1462 C 0.23014 0.08442 0.82289 0.0
C1463 C 0.23007 0.10332 0.77809 0.0
H1464 H 0.28937 0.10834 0.7855 0.0
C1465 C 0.29311 0.1065 0.7236 0.0
C1466 C 0.30995 0.12 0.72644 0.0
C1467 C 0.27792 0.10342 0.7363 0.0
C1468 C 0.27284 0.10707 0.78315 0.0
H1469 H 0.17802 0.11422 0.82663 0.0
H1470 H 0.19993 0.11916 0.80157 0.0
H1471 H 0.26644 0.1023 0.80952 0.0
H1472 H 0.32306 0.14194 0.74442 0.0
H1473 H 0.29684 0.13681 0.76608 0.0
H1474 H 0.23667 0.10835 0.7516 0.0
C1475 C 0.20504 0.10849 0.81135 0.0
C1476 C 0.25966 0.10336 0.79697 0.0
C1477 C 0.19257 0.10582 0.82584 0.0
C1478 C 0.31051 0.13119 0.7418 0.0
C1479 C 0.29549 0.12814 0.75435 0.0
C1480 C 0.24334 0.10688 0.76417 0.0
C1481 C 0.22412 0.09796 0.80972 0.0
C1482 C 0.23806 0.10153 0.79471 0.0
C1483 C 0.27933 0.11375 0.75206 0.0
C1484 C 0.26491 0.10904 0.76654 0.0
H1485 H 0.22303 0.07133 0.84723 0.0
H1486 H 0.24459 0.07586 0.82207 0.0
H1487 H 0.21355 0.10181 0.77581 0.0
H1488 H 0.29225 0.09753 0.712 0.0
H1489 H 0.26565 0.09224 0.73407 0.0
C1490 C 0.1392 0.95896 0.08631 0.0
C1491 C 0.15144 0.94085 0.08544 0.0
C1492 C 0.13634 0.97165 0.072 0.0
C1493 C 0.15914 0.98458 0.02976 0.0
H1494 H 0.10584 0.01111 0.02251 0.0
C1495 C 0.14315 0.03939 0.97174 0.0
C1496 C 0.13252 0.05787 0.97568 0.0
C1497 C 0.1446 0.0232 0.98377 0.0
C1498 C 0.12089 0.00395 0.02436 0.0
H1499 H 0.1699 0.9219 0.06838 0.0
H1500 H 0.16499 0.94404 0.04354 0.0
H1501 H 0.11024 0.98712 0.04614 0.0
H1502 H 0.1145 0.07333 0.99525 0.0
H1503 H 0.11699 0.04556 0.01584 0.0
H1504 H 0.16983 0.00172 1.00805 0.0
C1505 C 0.15782 0.94858 0.0554 0.0
C1506 C 0.12344 0.99017 0.03799 0.0
C1507 C 0.16065 0.93585 0.06972 0.0
C1508 C 0.12283 0.05939 0.99167 0.0
C1509 C 0.12415 0.04331 1.00354 0.0
C1510 C 0.15659 0.99842 0.01609 0.0
C1511 C 0.14562 0.9667 0.05631 0.0
C1512 C 0.14268 0.98051 0.0411 0.0
C1513 C 0.13525 0.02504 0.99992 0.0
C1514 C 0.13752 0.0086 0.01335 0.0
H1515 H 0.13215 0.96364 0.09818 0.0
H1516 H 0.12715 0.98563 0.07336 0.0
H1517 H 0.17425 0.97761 0.03176 0.0
H1518 H 0.15092 0.03772 0.95962 0.0
H1519 H 0.15316 0.00931 0.98046 0.0
C1520 C 0.78936 0.88717 0.72297 0.0
C1521 C 0.80867 0.87822 0.72703 0.0
C1522 C 0.77352 0.88843 0.73531 0.0
C1523 C 0.7565 0.8662 0.77677 0.0
H1524 H 0.73044 0.91962 0.7844 0.0
C1525 C 0.71408 0.88457 0.83975 0.0
C1526 C 0.69661 0.89774 0.83965 0.0
C1527 C 0.72594 0.88147 0.82503 0.0
C1528 C 0.73725 0.90446 0.78235 0.0
H1529 H 0.82612 0.86285 0.74696 0.0
H1530 H 0.79868 0.8646 0.76807 0.0
H1531 H 0.75338 0.91484 0.76001 0.0
H1532 H 0.67814 0.91799 0.82359 0.0
H1533 H 0.69836 0.9121 0.79789 0.0
H1534 H 0.74054 0.85571 0.79901 0.0
C1535 C 0.79562 0.87075 0.75551 0.0
C1536 C 0.75044 0.90174 0.76829 0.0
C1537 C 0.81143 0.86982 0.74337 0.0
C1538 C 0.69129 0.90755 0.82424 0.0
C1539 C 0.70312 0.90438 0.80947 0.0
C1540 C 0.74322 0.86885 0.79072 0.0
C1541 C 0.77656 0.88039 0.7518 0.0
C1542 C 0.76057 0.88268 0.7655 0.0
C1543 C 0.72069 0.89132 0.80962 0.0
C1544 C 0.73369 0.88815 0.79396 0.0
H1545 H 0.78682 0.89398 0.71057 0.0
H1546 H 0.75898 0.89587 0.732 0.0
H1547 H 0.76376 0.8512 0.7749 0.0
H1548 H 0.71861 0.87647 0.85121 0.0
H1549 H 0.73947 0.87155 0.82585 0.0
C1550 C 0.88063 0.05728 0.49197 0.0
C1551 C 0.87033 0.05593 0.47622 0.0
C1552 C 0.87897 0.04148 0.50407 0.0
C1553 C 0.84474 0.99835 0.51771 0.0
H1554 H 0.89087 0.9862 0.5478 0.0
C1555 C 0.83333 0.95586 0.58221 0.0
C1556 C 0.84896 0.94231 0.58809 0.0
C1557 C 0.83627 0.96793 0.56755 0.0
C1558 C 0.87783 0.98914 0.53945 0.0
H1559 H 0.85055 0.03633 0.46081 0.0
H1560 H 0.84773 0.00843 0.48203 0.0
H1561 H 0.89603 0.00913 0.52361 0.0
H1562 H 0.87989 0.93075 0.5827 0.0
H1563 H 0.88498 0.95166 0.55719 0.0
H1564 H 0.82658 0.97819 0.53352 0.0
C1565 C 0.85701 0.02197 0.48499 0.0
C1566 C 0.88074 0.00255 0.52561 0.0
C1567 C 0.85879 0.03786 0.47273 0.0
C1568 C 0.8676 0.94119 0.57878 0.0
C1569 C 0.87052 0.95323 0.56408 0.0
C1570 C 0.84182 0.9849 0.53158 0.0
C1571 C 0.86691 0.02369 0.50094 0.0
C1572 C 0.86418 0.00766 0.51466 0.0
C1573 C 0.85492 0.96686 0.55824 0.0
C1574 C 0.85825 0.98029 0.54283 0.0
H1575 H 0.88969 0.0709 0.49519 0.0
H1576 H 0.8866 0.04365 0.5162 0.0
H1577 H 0.83156 0.00195 0.50969 0.0
H1578 H 0.8189 0.95748 0.58913 0.0
H1579 H 0.82401 0.97847 0.56375 0.0
C1580 C 0.7136 0.11018 0.22227 0.0
C1581 C 0.69366 0.11719 0.22681 0.0
C1582 C 0.72938 0.10837 0.23465 0.0
C1583 C 0.74393 0.12624 0.27826 0.0
H1584 H 0.7762 0.07554 0.28074 0.0
C1585 C 0.80562 0.11348 0.33108 0.0
C1586 C 0.8065 0.0937 0.33871 0.0
C1587 C 0.7938 0.11692 0.31635 0.0
C1588 C 0.76729 0.08979 0.28028 0.0
H1589 H 0.67504 0.12852 0.24783 0.0
H1590 H 0.70218 0.12563 0.26899 0.0
H1591 H 0.75251 0.08113 0.25685 0.0
H1592 H 0.79532 0.06203 0.33651 0.0
H1593 H 0.77486 0.06799 0.31093 0.0
H1594 H 0.75811 0.1347 0.30185 0.0
C1595 C 0.70584 0.12148 0.25601 0.0
C1596 C 0.75387 0.09311 0.26643 0.0
C1597 C 0.69016 0.12302 0.2438 0.0
C1598 C 0.79536 0.07741 0.33096 0.0
C1599 C 0.78358 0.08084 0.3162 0.0
C1600 C 0.75738 0.12299 0.29202 0.0
C1601 C 0.72563 0.1139 0.25173 0.0
C1602 C 0.74172 0.11124 0.26538 0.0
C1603 C 0.78248 0.10068 0.30871 0.0
C1604 C 0.76906 0.10458 0.29341 0.0
H1605 H 0.71678 0.10542 0.20934 0.0
H1606 H 0.74448 0.10258 0.23087 0.0
H1607 H 0.73502 0.1405 0.27783 0.0
H1608 H 0.81424 0.12637 0.33639 0.0
H1609 H 0.79368 0.13234 0.31086 0.0
C1610 C 0.6277 0.93473 0.9963 0.0
C1611 C 0.63208 0.93863 0.97907 0.0
C1612 C 0.62856 0.95058 1.00838 0.0
C1613 C 0.65234 0.00151 0.01742 0.0
H1614 H 0.61218 0.00216 0.05411 0.0
C1615 C 0.65527 0.06282 0.07204 0.0
C1616 C 0.6505 0.0559 0.08858 0.0
C1617 C 0.65211 0.04994 0.05787 0.0
C1618 C 0.6237 0.00213 0.04409 0.0
H1619 H 0.64065 0.96262 0.9611 0.0
H1620 H 0.64223 0.99058 0.9824 0.0
H1621 H 0.60789 0.97788 0.03071 0.0
H1622 H 0.63894 0.02959 0.10295 0.0
H1623 H 0.63351 0.00726 0.07843 0.0
H1624 H 0.66837 0.02554 0.03102 0.0
C1625 C 0.63813 0.97504 0.98646 0.0
C1626 C 0.62118 0.9882 0.03058 0.0
C1627 C 0.63706 0.95907 0.97422 0.0
C1628 C 0.64245 0.0357 0.09046 0.0
C1629 C 0.63931 0.02283 0.07632 0.0
C1630 C 0.65491 0.01546 0.031 0.0
C1631 C 0.63394 0.97095 1.00375 0.0
C1632 C 0.63563 0.9874 0.01718 0.0
C1633 C 0.64408 0.02972 0.05977 0.0
C1634 C 0.6408 0.01575 0.04471 0.0
H1635 H 0.6238 0.91923 1.00061 0.0
H1636 H 0.62553 0.94666 0.02153 0.0
H1637 H 0.6639 1.00125 1.00744 0.0
H1638 H 0.66123 0.07834 0.06999 0.0
H1639 H 0.65572 0.05598 0.04538 0.0
C1640 C 0.81027 0.13402 0.78135 0.0
C1641 C 0.80924 0.12317 0.79687 0.0
C1642 C 0.79452 0.13224 0.76921 0.0
C1643 C 0.75271 0.09701 0.75471 0.0
H1644 H 0.73807 0.14396 0.72626 0.0
C1645 C 0.69152 0.09073 0.70026 0.0
C1646 C 0.69587 0.10127 0.68496 0.0
C1647 C 0.70377 0.09384 0.7148 0.0
C1648 C 0.74209 0.1306 0.73395 0.0
H1649 H 0.79032 0.10224 0.81184 0.0
H1650 H 0.76253 0.09918 0.79054 0.0
H1651 H 0.76126 0.14893 0.75035 0.0
H1652 H 0.71693 0.12329 0.67322 0.0
H1653 H 0.73812 0.12875 0.69845 0.0
H1654 H 0.7337 0.07863 0.73814 0.0
C1655 C 0.77575 0.10901 0.7878 0.0
C1656 C 0.75541 0.13347 0.74785 0.0
C1657 C 0.79157 0.11093 0.8001 0.0
C1658 C 0.71278 0.11514 0.68476 0.0
C1659 C 0.725 0.11827 0.6993 0.0
C1660 C 0.73935 0.09413 0.74078 0.0
C1661 C 0.77715 0.11948 0.77207 0.0
C1662 C 0.76122 0.11667 0.7583 0.0
C1663 C 0.72074 0.10764 0.71456 0.0
C1664 C 0.73408 0.11083 0.73002 0.0
H1665 H 0.8236 0.14361 0.77834 0.0
H1666 H 0.79642 0.14034 0.75725 0.0
H1667 H 0.75697 0.08364 0.7623 0.0
H1668 H 0.67846 0.08018 0.70108 0.0
H1669 H 0.69974 0.0856 0.72633 0.0
C1670 C 0.63604 0.04058 0.55082 0.0
C1671 C 0.63051 0.06089 0.546 0.0
C1672 C 0.63695 0.02456 0.53863 0.0
C1673 C 0.61887 0.01077 0.49495 0.0
H1674 H 0.66722 0.97497 0.49351 0.0
C1675 C 0.64013 0.96429 0.43458 0.0
C1676 C 0.64885 0.94435 0.43627 0.0
C1677 C 0.6369 0.97696 0.44882 0.0
C1678 C 0.65344 0.98461 0.49381 0.0
H1679 H 0.62095 0.07999 0.52464 0.0
H1680 H 0.62237 0.05244 0.50379 0.0
H1681 H 0.66273 0.9991 0.51718 0.0
H1682 H 0.66062 0.9221 0.45461 0.0
H1683 H 0.65495 0.94413 0.47938 0.0
H1684 H 0.60961 0.99654 0.47159 0.0
C1685 C 0.62599 0.04868 0.51687 0.0
C1686 C 0.65086 0.99846 0.50745 0.0
C1687 C 0.6253 0.06458 0.52889 0.0
C1688 C 0.65415 0.93745 0.45271 0.0
C1689 C 0.65089 0.95013 0.46697 0.0
C1690 C 0.62141 0.99693 0.48138 0.0
C1691 C 0.63203 0.02847 0.52145 0.0
C1692 C 0.63373 0.01202 0.50804 0.0
C1693 C 0.64223 0.97011 0.46525 0.0
C1694 C 0.63892 0.98389 0.48041 0.0
H1695 H 0.64028 0.03723 0.56384 0.0
H1696 H 0.64156 0.00915 0.54264 0.0
H1697 H 0.60527 0.02067 0.4951 0.0
H1698 H 0.6362 0.97037 0.42217 0.0
H1699 H 0.63058 0.99236 0.44686 0.0
C1700 C 0.78699 0.89622 0.18456 0.0
C1701 C 0.80559 0.90771 0.18511 0.0
C1702 C 0.77522 0.8928 0.1993 0.0
C1703 C 0.76641 0.91236 0.24338 0.0
H1704 H 0.73782 0.85977 0.24851 0.0
C1705 C 0.71407 0.8927 0.30243 0.0
C1706 C 0.69466 0.88412 0.29817 0.0
C1707 C 0.72981 0.89458 0.29002 0.0
C1708 C 0.74563 0.8746 0.24729 0.0
H1709 H 0.82632 0.92444 0.20197 0.0
H1710 H 0.80584 0.91849 0.22761 0.0
H1711 H 0.7605 0.86533 0.22421 0.0
H1712 H 0.67696 0.87005 0.27774 0.0
H1713 H 0.70404 0.87303 0.25656 0.0
H1714 H 0.75123 0.92162 0.26649 0.0
C1715 C 0.80019 0.91232 0.21569 0.0
C1716 C 0.75862 0.87784 0.23326 0.0
C1717 C 0.81198 0.91575 0.20092 0.0
C1718 C 0.69169 0.87676 0.28152 0.0
C1719 C 0.70734 0.87837 0.26931 0.0
C1720 C 0.7534 0.90909 0.2575 0.0
C1721 C 0.78164 0.90073 0.21513 0.0
C1722 C 0.76891 0.89691 0.23086 0.0
C1723 C 0.72655 0.88755 0.27323 0.0
C1724 C 0.74247 0.8903 0.25947 0.0
H1725 H 0.78125 0.89011 0.17265 0.0
H1726 H 0.76084 0.8842 0.19818 0.0
H1727 H 0.77392 0.92731 0.242 0.0
H1728 H 0.71678 0.89869 0.31508 0.0
H1729 H 0.74446 0.90164 0.29353 0.0
C1730 C 0.83208 0.03584 0.93522 0.0
C1731 C 0.84375 0.05414 0.93297 0.0
C1732 C 0.83463 0.02345 0.94974 0.0
C1733 C 0.85502 0.02335 0.99416 0.0
H1734 H 0.85587 0.96371 0.98768 0.0
C1735 C 0.85637 0.96176 0.04981 0.0
C1736 C 0.86859 0.94395 0.04699 0.0
C1737 C 0.85371 0.97671 0.03686 0.0
C1738 C 0.85579 0.98033 0.98977 0.0
H1739 H 0.86704 0.0738 0.94469 0.0
H1740 H 0.87163 0.05207 0.9699 0.0
H1741 H 0.85051 0.98643 0.96341 0.0
H1742 H 0.88868 0.92881 0.02864 0.0
H1743 H 0.88427 0.9546 1.00653 0.0
H1744 H 0.86057 0.01703 0.02062 0.0
C1745 C 0.86038 0.04738 0.96043 0.0
C1746 C 0.85246 0.99341 0.97581 0.0
C1747 C 0.85792 0.05974 0.94583 0.0
C1748 C 0.87891 0.94212 0.03129 0.0
C1749 C 0.87626 0.9569 0.01847 0.0
C1750 C 0.85821 0.01018 1.00822 0.0
C1751 C 0.84888 0.02894 0.96255 0.0
C1752 C 0.85212 0.01513 0.97772 0.0
C1753 C 0.86316 0.97411 0.02082 0.0
C1754 C 0.85886 0.98847 1.00618 0.0
H1755 H 0.82116 0.03084 0.9256 0.0
H1756 H 0.82531 0.00953 0.95094 0.0
H1757 H 0.85467 0.03997 0.99619 0.0
H1758 H 0.84811 0.96365 0.06169 0.0
H1759 H 0.84352 0.98979 0.03914 0.0
C1760 C 0.70877 0.6136 0.80015 0.0
C1761 C 0.68871 0.62027 0.79559 0.0
C1762 C 0.72474 0.61265 0.78789 0.0
C1763 C 0.73916 0.63238 0.74472 0.0
H1764 H 0.77302 0.5828 0.7415 0.0
C1765 C 0.78448 0.61237 0.68338 0.0
C1766 C 0.80407 0.60276 0.68466 0.0
C1767 C 0.77202 0.61539 0.69779 0.0
C1768 C 0.76393 0.59691 0.7423 0.0
H1769 H 0.67006 0.63183 0.77463 0.0
H1770 H 0.69748 0.63032 0.75368 0.0
H1771 H 0.74923 0.58707 0.76546 0.0
H1772 H 0.82589 0.58917 0.70249 0.0
H1773 H 0.80422 0.59444 0.72754 0.0
H1774 H 0.75357 0.6422 0.72157 0.0
C1775 C 0.70112 0.62584 0.7666 0.0
C1776 C 0.75028 0.59937 0.75611 0.0
C1777 C 0.68526 0.62657 0.77869 0.0
C1778 C 0.81081 0.59635 0.70088 0.0
C1779 C 0.79833 0.59938 0.71531 0.0
C1780 C 0.75279 0.62995 0.73098 0.0
C1781 C 0.72106 0.61866 0.77089 0.0
C1782 C 0.73739 0.61697 0.75735 0.0
C1783 C 0.77871 0.60893 0.71401 0.0
C1784 C 0.76514 0.61202 0.72935 0.0
H1785 H 0.71192 0.60849 0.813 0.0
H1786 H 0.73994 0.60714 0.79169 0.0
H1787 H 0.72982 0.64634 0.74536 0.0
H1788 H 0.77849 0.61719 0.67115 0.0
H1789 H 0.75688 0.62243 0.69612 0.0
C1790 C 0.63867 0.53468 0.93258 0.0
C1791 C 0.6468 0.55491 0.93398 0.0
C1792 C 0.63602 0.5221 0.94698 0.0
C1793 C 0.65334 0.51561 0.99199 0.0
H1794 H 0.6065 0.4779 0.99399 0.0
C1795 C 0.6381 0.46008 0.04992 0.0
C1796 C 0.633 0.43954 0.04545 0.0
C1797 C 0.63857 0.47587 0.03747 0.0
C1798 C 0.61975 0.48826 0.99364 0.0
H1799 H 0.65811 0.57772 0.95201 0.0
H1800 H 0.65345 0.55585 0.97704 0.0
H1801 H 0.60981 0.50175 0.97015 0.0
H1802 H 0.62382 0.41981 0.02438 0.0
H1803 H 0.62453 0.44692 1.00312 0.0
H1804 H 0.6633 0.50187 0.01551 0.0
C1805 C 0.64942 0.54956 0.96473 0.0
C1806 C 0.6217 0.50194 0.97988 0.0
C1807 C 0.65209 0.56216 0.95031 0.0
C1808 C 0.62785 0.43539 0.0284 0.0
C1809 C 0.62812 0.45105 0.01612 0.0
C1810 C 0.65136 0.50191 1.00582 0.0
C1811 C 0.64137 0.5293 0.9633 0.0
C1812 C 0.63871 0.51561 0.97864 0.0
C1813 C 0.63364 0.47151 0.02036 0.0
C1814 C 0.63472 0.48775 1.00669 0.0
H1815 H 0.63476 0.52832 0.92026 0.0
H1816 H 0.63016 0.50649 0.94522 0.0
H1817 H 0.66676 0.52573 0.9915 0.0
H1818 H 0.64228 0.46382 0.06288 0.0
H1819 H 0.6428 0.49147 0.04124 0.0
C1820 C 0.71651 0.3879 0.18444 0.0
C1821 C 0.69742 0.39852 0.18529 0.0
C1822 C 0.72851 0.38452 0.19907 0.0
C1823 C 0.73673 0.40342 0.2434 0.0
H1824 H 0.7681 0.35231 0.24761 0.0
C1825 C 0.79043 0.3855 0.30192 0.0
C1826 C 0.81022 0.37798 0.29754 0.0
C1827 C 0.77454 0.38673 0.28959 0.0
C1828 C 0.75951 0.36673 0.24665 0.0
H1829 H 0.67598 0.41357 0.20262 0.0
H1830 H 0.69686 0.4077 0.22805 0.0
H1831 H 0.74494 0.35719 0.22349 0.0
H1832 H 0.8285 0.3651 0.27695 0.0
H1833 H 0.80117 0.36695 0.25586 0.0
H1834 H 0.75161 0.41297 0.26655 0.0
C1835 C 0.70272 0.40222 0.21597 0.0
C1836 C 0.74624 0.36958 0.23272 0.0
C1837 C 0.6907 0.4056 0.20132 0.0
C1838 C 0.81346 0.37098 0.28082 0.0
C1839 C 0.79768 0.37194 0.26868 0.0
C1840 C 0.75003 0.40054 0.25739 0.0
C1841 C 0.72184 0.39163 0.21509 0.0
C1842 C 0.73492 0.38812 0.23067 0.0
C1843 C 0.77805 0.3801 0.27273 0.0
C1844 C 0.76194 0.3823 0.25904 0.0
H1845 H 0.72249 0.38254 0.17237 0.0
H1846 H 0.74329 0.37667 0.19772 0.0
H1847 H 0.72844 0.41798 0.24227 0.0
H1848 H 0.78748 0.39121 0.31463 0.0
H1849 H 0.75957 0.393 0.2932 0.0
C1850 C 0.86016 0.54066 0.54995 0.0
C1851 C 0.87019 0.5596 0.54652 0.0
C1852 C 0.85848 0.52531 0.53724 0.0
C1853 C 0.86083 0.52073 0.48985 0.0
H1854 H 0.86188 0.4614 0.49802 0.0
C1855 C 0.86534 0.46222 0.43445 0.0
C1856 C 0.85248 0.44452 0.43507 0.0
C1857 C 0.86763 0.47518 0.44863 0.0
C1858 C 0.86139 0.47794 0.49554 0.0
H1859 H 0.8875 0.57665 0.52746 0.0
H1860 H 0.88537 0.54999 0.50585 0.0
H1861 H 0.86598 0.4855 0.52186 0.0
H1862 H 0.83212 0.42673 0.45156 0.0
H1863 H 0.83641 0.44918 0.4763 0.0
H1864 H 0.85644 0.5133 0.46361 0.0
C1865 C 0.87802 0.54706 0.51798 0.0
C1866 C 0.86371 0.49179 0.50924 0.0
C1867 C 0.87946 0.56234 0.5305 0.0
C1868 C 0.84237 0.44 0.45053 0.0
C1869 C 0.84479 0.45293 0.46478 0.0
C1870 C 0.85868 0.50696 0.47622 0.0
C1871 C 0.86694 0.52856 0.52088 0.0
C1872 C 0.86371 0.51343 0.50658 0.0
C1873 C 0.85726 0.47086 0.46396 0.0
C1874 C 0.85911 0.48536 0.4788 0.0
H1875 H 0.85269 0.53816 0.5621 0.0
H1876 H 0.84981 0.51131 0.54 0.0
H1877 H 0.86007 0.53722 0.48722 0.0
H1878 H 0.87382 0.46606 0.423 0.0
H1879 H 0.87769 0.48861 0.44758 0.0
C1880 C 0.71435 0.3986 0.72198 0.0
C1881 C 0.69797 0.38456 0.72483 0.0
C1882 C 0.7302 0.40113 0.73419 0.0
C1883 C 0.75345 0.3762 0.77288 0.0
H1884 H 0.76899 0.43229 0.78534 0.0
C1885 C 0.79312 0.39439 0.83715 0.0
C1886 C 0.80865 0.40978 0.83779 0.0
C1887 C 0.78141 0.39116 0.82236 0.0
C1888 C 0.76508 0.41649 0.78192 0.0
H1889 H 0.68603 0.36152 0.74241 0.0
H1890 H 0.71333 0.36573 0.7633 0.0
H1891 H 0.74644 0.42651 0.76082 0.0
H1892 H 0.82402 0.43365 0.82292 0.0
H1893 H 0.80355 0.42808 0.79723 0.0
H1894 H 0.77175 0.36614 0.79407 0.0
C1895 C 0.71419 0.37483 0.75175 0.0
C1896 C 0.75214 0.41317 0.76778 0.0
C1897 C 0.69839 0.37247 0.73973 0.0
C1898 C 0.81203 0.42186 0.8231 0.0
C1899 C 0.80027 0.41865 0.8083 0.0
C1900 C 0.76632 0.37951 0.78699 0.0
C1901 C 0.73014 0.38946 0.74939 0.0
C1902 C 0.74582 0.39298 0.76322 0.0
C1903 C 0.78479 0.40321 0.80768 0.0
C1904 C 0.77207 0.39972 0.79192 0.0
H1905 H 0.7144 0.4083 0.71074 0.0
H1906 H 0.74232 0.41242 0.73184 0.0
H1907 H 0.74931 0.3604 0.76962 0.0
H1908 H 0.78969 0.38502 0.84822 0.0
H1909 H 0.76939 0.37939 0.82256 0.0
C1910 C 0.83977 0.56767 0.06993 0.0
C1911 C 0.84938 0.56275 0.08552 0.0
C1912 C 0.84302 0.55538 0.05544 0.0
C1913 C 0.87916 0.516 0.03724 0.0
H1914 H 0.83285 0.50227 1.00781 0.0
C1915 C 0.88238 0.44731 0.99062 0.0
C1916 C 0.87206 0.44833 0.97487 0.0
C1917 C 0.88064 0.46331 1.0025 0.0
C1918 C 0.84606 0.50621 0.01569 0.0
H1919 H 0.8698 0.54058 0.09786 0.0
H1920 H 0.87555 0.51939 0.07271 0.0
H1921 H 0.82759 0.5258 0.03175 0.0
H1922 H 0.85216 0.46751 0.95918 0.0
H1923 H 0.84919 0.49579 0.98003 0.0
H1924 H 0.89758 0.4963 0.02136 0.0
C1925 C 0.86571 0.53297 0.0716 0.0
C1926 C 0.84303 0.51971 0.0295 0.0
C1927 C 0.86242 0.54519 0.08609 0.0
C1928 C 0.86044 0.46626 0.97111 0.0
C1929 C 0.85856 0.48236 0.98315 0.0
C1930 C 0.88219 0.50258 0.02345 0.0
C1931 C 0.85605 0.53784 0.05605 0.0
C1932 C 0.85946 0.52452 0.04066 0.0
C1933 C 0.86847 0.48096 0.99912 0.0
C1934 C 0.86561 0.49715 0.01264 0.0
H1935 H 0.82989 0.58121 0.06883 0.0
H1936 H 0.83551 0.55983 0.04368 0.0
H1937 H 0.89232 0.51967 0.04526 0.0
H1938 H 0.8915 0.43379 0.99402 0.0
H1939 H 0.88828 0.4614 0.01466 0.0
C1940 C 0.78564 0.61243 0.22031 0.0
C1941 C 0.80532 0.62022 0.22472 0.0
C1942 C 0.76983 0.61083 0.23266 0.0
C1943 C 0.75452 0.63033 0.27557 0.0
H1944 H 0.72536 0.57801 0.2804 0.0
C1945 C 0.71343 0.60819 0.33822 0.0
C1946 C 0.69466 0.597 0.33765 0.0
C1947 C 0.72506 0.61174 0.32345 0.0
C1948 C 0.7331 0.59286 0.27913 0.0
H1949 H 0.82347 0.63324 0.24533 0.0
H1950 H 0.79624 0.63079 0.26646 0.0
H1951 H 0.74802 0.58371 0.2559 0.0
H1952 H 0.67346 0.58095 0.32074 0.0
H1953 H 0.69371 0.58716 0.29501 0.0
H1954 H 0.73991 0.63949 0.29879 0.0
C1955 C 0.79279 0.62583 0.25362 0.0
C1956 C 0.7461 0.59613 0.26502 0.0
C1957 C 0.80851 0.62714 0.24146 0.0
C1958 C 0.68794 0.5894 0.32179 0.0
C1959 C 0.69959 0.59298 0.30698 0.0
C1960 C 0.74153 0.6271 0.2896 0.0
C1961 C 0.77331 0.61737 0.24954 0.0
C1962 C 0.75734 0.61476 0.26324 0.0
C1963 C 0.71832 0.60426 0.30756 0.0
C1964 C 0.73095 0.60815 0.29183 0.0
H1965 H 0.78277 0.60679 0.20757 0.0
H1966 H 0.75496 0.60431 0.22905 0.0
H1967 H 0.76261 0.64502 0.27449 0.0
H1968 H 0.7194 0.61395 0.35018 0.0
H1969 H 0.7396 0.6201 0.32457 0.0
C1970 C 0.66711 0.44319 0.57349 0.0
C1971 C 0.6564 0.44761 0.58867 0.0
C1972 C 0.66387 0.45513 0.55878 0.0
C1973 C 0.62637 0.4923 0.53905 0.0
H1974 H 0.67299 0.5075 0.51047 0.0
C1975 C 0.6217 0.55954 0.49085 0.0
C1976 C 0.63257 0.55846 0.47536 0.0
C1977 C 0.6237 0.544 0.50315 0.0
C1978 C 0.65971 0.50314 0.51813 0.0
H1979 H 0.63404 0.46858 0.60008 0.0
H1980 H 0.62838 0.48923 0.57459 0.0
H1981 H 0.6785 0.48485 0.53497 0.0
H1982 H 0.65375 0.53964 0.46058 0.0
H1983 H 0.65723 0.5122 0.48215 0.0
H1984 H 0.60762 0.51077 0.5224 0.0
C1985 C 0.63906 0.47627 0.57393 0.0
C1986 C 0.66289 0.49014 0.53225 0.0
C1987 C 0.64232 0.46436 0.58863 0.0
C1988 C 0.64503 0.54091 0.47229 0.0
C1989 C 0.64719 0.52531 0.48475 0.0
C1990 C 0.62321 0.50526 0.52497 0.0
C1991 C 0.64977 0.47186 0.55876 0.0
C1992 C 0.6463 0.48478 0.5431 0.0
C1993 C 0.63673 0.52679 0.50047 0.0
C1994 C 0.63987 0.51118 0.51443 0.0
H1995 H 0.67784 0.43026 0.57285 0.0
H1996 H 0.67221 0.45102 0.54733 0.0
H1997 H 0.6131 0.48819 0.5468 0.0
H1998 H 0.61195 0.5728 0.49373 0.0
H1999 H 0.61559 0.54596 0.51508 0.0
C2000 C 0.21746 0.3901 0.33849 0.0
C2001 C 0.19821 0.40042 0.3375 0.0
C2002 C 0.22963 0.38692 0.32394 0.0
C2003 C 0.23787 0.40604 0.27966 0.0
H2004 H 0.27019 0.35551 0.27564 0.0
C2005 C 0.29216 0.3891 0.22137 0.0
C2006 C 0.31205 0.38184 0.22581 0.0
C2007 C 0.27622 0.39009 0.23366 0.0
C2008 C 0.26135 0.36978 0.27655 0.0
H2009 H 0.17667 0.41512 0.32003 0.0
H2010 H 0.19783 0.40958 0.29473 0.0
H2011 H 0.24679 0.35994 0.29964 0.0
H2012 H 0.33042 0.36917 0.24649 0.0
H2013 H 0.30303 0.3707 0.26749 0.0
H2014 H 0.25273 0.41589 0.25658 0.0
C2015 C 0.20369 0.40419 0.30685 0.0
C2016 C 0.24793 0.37236 0.29041 0.0
C2017 C 0.1915 0.40738 0.32142 0.0
C2018 C 0.31533 0.3749 0.24256 0.0
C2019 C 0.2995 0.37565 0.25466 0.0
C2020 C 0.25131 0.40342 0.26574 0.0
C2021 C 0.22298 0.39393 0.30787 0.0
C2022 C 0.23625 0.39069 0.29238 0.0
C2023 C 0.27977 0.38351 0.25054 0.0
C2024 C 0.26356 0.38541 0.26416 0.0
H2025 H 0.22341 0.38484 0.35061 0.0
H2026 H 0.24453 0.37932 0.32539 0.0
H2027 H 0.22931 0.42045 0.28073 0.0
H2028 H 0.28915 0.39471 0.20864 0.0
H2029 H 0.26117 0.39613 0.23 0.0
C2030 C 0.34852 0.44016 0.07145 0.0
C2031 C 0.35417 0.44689 0.08784 0.0
C2032 C 0.35129 0.45304 0.05721 0.0
C2033 C 0.37998 0.50033 0.0426 0.0
H2034 H 0.33804 0.50219 1.00726 0.0
C2035 C 0.37509 0.56794 0.9949 0.0
C2036 C 0.36954 0.56422 0.97787 0.0
C2037 C 0.37461 0.55207 1.007 0.0
C2038 C 0.35008 0.50165 0.01686 0.0
H2039 H 0.36693 0.47289 0.10188 0.0
H2040 H 0.37171 0.49522 0.07725 0.0
H2041 H 0.33422 0.47792 0.03095 0.0
H2042 H 0.35935 0.54051 0.96026 0.0
H2043 H 0.35844 0.5125 0.98158 0.0
H2044 H 0.39565 0.52427 0.02872 0.0
C2045 C 0.36548 0.47978 0.07529 0.0
C2046 C 0.34788 0.48771 0.03051 0.0
C2047 C 0.36274 0.46691 0.0895 0.0
C2048 C 0.36385 0.54391 0.97321 0.0
C2049 C 0.36315 0.52792 0.98548 0.0
C2050 C 0.38214 0.51425 0.02901 0.0
C2051 C 0.35981 0.47309 0.05889 0.0
C2052 C 0.36264 0.48706 0.04375 0.0
C2053 C 0.36844 0.53184 1.00258 0.0
C2054 C 0.36706 0.5154 0.01607 0.0
H2055 H 0.34216 0.42477 0.06955 0.0
H2056 H 0.34698 0.44714 0.04483 0.0
H2057 H 0.39196 0.50001 0.05224 0.0
H2058 H 0.3796 0.58334 0.99904 0.0
H2059 H 0.37851 0.55587 0.02001 0.0
C2060 C 0.18569 0.62932 0.74436 0.0
C2061 C 0.1895 0.62332 0.72745 0.0
C2062 C 0.20136 0.62863 0.75663 0.0
C2063 C 0.25081 0.60267 0.76734 0.0
H2064 H 0.25307 0.64487 0.80239 0.0
C2065 C 0.31107 0.59964 0.82278 0.0
C2066 C 0.30417 0.60565 0.83904 0.0
C2067 C 0.29859 0.60272 0.80834 0.0
C2068 C 0.25257 0.63279 0.79284 0.0
H2069 H 0.21318 0.61213 0.71023 0.0
H2070 H 0.24085 0.61086 0.73184 0.0
H2071 H 0.22942 0.64906 0.77851 0.0
H2072 H 0.27832 0.61944 0.85262 0.0
H2073 H 0.25671 0.62477 0.82763 0.0
H2074 H 0.27373 0.58622 0.78187 0.0
C2075 C 0.22551 0.61609 0.73551 0.0
C2076 C 0.239 0.63525 0.77905 0.0
C2077 C 0.20973 0.617 0.72308 0.0
C2078 C 0.28442 0.61493 0.84035 0.0
C2079 C 0.27196 0.618 0.82594 0.0
C2080 C 0.2644 0.60019 0.78119 0.0
C2081 C 0.22147 0.62179 0.75252 0.0
C2082 C 0.23763 0.62007 0.76622 0.0
C2083 C 0.27881 0.61193 0.80968 0.0
C2084 C 0.26525 0.61506 0.79432 0.0
H2085 H 0.17034 0.63429 0.74828 0.0
H2086 H 0.19746 0.63286 0.76955 0.0
H2087 H 0.25007 0.59055 0.75783 0.0
H2088 H 0.32627 0.59273 0.82114 0.0
H2089 H 0.30461 0.5981 0.79608 0.0
C2090 C 0.13827 0.53594 0.58952 0.0
C2091 C 0.14989 0.55446 0.58899 0.0
C2092 C 0.13544 0.52382 0.57491 0.0
C2093 C 0.15701 0.51426 0.53148 0.0
H2094 H 0.10546 0.48399 0.52568 0.0
C2095 C 0.14012 0.46147 0.47232 0.0
C2096 C 0.13228 0.44169 0.47641 0.0
C2097 C 0.14126 0.47715 0.4848 0.0
C2098 C 0.11999 0.49228 0.5271 0.0
H2099 H 0.16771 0.57451 0.57229 0.0
H2100 H 0.16229 0.55374 0.54679 0.0
H2101 H 0.10951 0.50736 0.54972 0.0
H2102 H 0.11886 0.42322 0.49668 0.0
H2103 H 0.12052 0.45029 0.51803 0.0
H2104 H 0.16739 0.499 0.50874 0.0
C2105 C 0.15557 0.5484 0.55862 0.0
C2106 C 0.12239 0.50566 0.54099 0.0
C2107 C 0.15846 0.56052 0.57327 0.0
C2108 C 0.12498 0.43824 0.49302 0.0
C2109 C 0.12584 0.45386 0.50532 0.0
C2110 C 0.15455 0.50093 0.51747 0.0
C2111 C 0.14403 0.52982 0.55919 0.0
C2112 C 0.14107 0.51659 0.54362 0.0
C2113 C 0.13423 0.47346 0.50151 0.0
C2114 C 0.13614 0.48945 0.51527 0.0
H2115 H 0.13116 0.53079 0.60124 0.0
H2116 H 0.12672 0.50951 0.57605 0.0
H2117 H 0.17171 0.52219 0.53305 0.0
H2118 H 0.14604 0.46459 0.45971 0.0
H2119 H 0.14772 0.49211 0.4814 0.0
C2120 C 0.21416 0.60862 0.18229 0.0
C2121 C 0.19731 0.59469 0.18256 0.0
C2122 C 0.22636 0.61191 0.19681 0.0
C2123 C 0.24079 0.58853 0.23853 0.0
H2124 H 0.26159 0.64387 0.2477 0.0
C2125 C 0.29192 0.60748 0.29807 0.0
C2126 C 0.30937 0.62005 0.29485 0.0
C2127 C 0.27638 0.60492 0.28562 0.0
C2128 C 0.25605 0.62826 0.24531 0.0
H2129 H 0.1801 0.57348 0.19871 0.0
H2130 H 0.20136 0.57916 0.22395 0.0
H2131 H 0.23866 0.63814 0.22357 0.0
H2132 H 0.32364 0.6403 0.27613 0.0
H2133 H 0.29692 0.63591 0.2548 0.0
H2134 H 0.25845 0.57867 0.26023 0.0
C2135 C 0.20532 0.58738 0.21239 0.0
C2136 C 0.24289 0.62495 0.23139 0.0
C2137 C 0.19309 0.58411 0.19786 0.0
C2138 C 0.31047 0.63049 0.27916 0.0
C2139 C 0.29499 0.62807 0.26687 0.0
C2140 C 0.254 0.59185 0.25249 0.0
C2141 C 0.22213 0.60138 0.21212 0.0
C2142 C 0.23529 0.60499 0.2276 0.0
C2143 C 0.27782 0.61505 0.26976 0.0
C2144 C 0.2621 0.61172 0.25593 0.0
H2145 H 0.21824 0.61678 0.17074 0.0
H2146 H 0.23938 0.6225 0.19593 0.0
H2147 H 0.23544 0.57289 0.236 0.0
H2148 H 0.29061 0.59909 0.30994 0.0
H2149 H 0.2633 0.59489 0.28838 0.0
C2150 C 0.17252 0.46078 0.93899 0.0
C2151 C 0.1579 0.44588 0.93362 0.0
C2152 C 0.16927 0.47249 0.95379 0.0
C2153 C 0.12734 0.48978 0.98323 0.0
H2154 H 0.17353 0.50654 0.01171 0.0
C2155 C 0.12072 0.55718 0.0311 0.0
C2156 C 0.13175 0.55657 0.04654 0.0
C2157 C 0.12315 0.54164 0.01888 0.0
C2158 C 0.16039 0.5018 1.00405 0.0
H2159 H 0.12854 0.43142 0.94014 0.0
H2160 H 0.1229 0.45171 0.96585 0.0
H2161 H 0.1796 0.48347 0.98761 0.0
H2162 H 0.15365 0.53854 0.06133 0.0
H2163 H 0.15785 0.51109 0.03991 0.0
H2164 H 0.10811 0.50797 0.99968 0.0
C2165 C 0.13676 0.45465 0.95844 0.0
C2166 C 0.16391 0.48876 0.99003 0.0
C2167 C 0.14 0.44296 0.94363 0.0
C2168 C 0.1448 0.53945 0.04966 0.0
C2169 C 0.14737 0.52385 0.03728 0.0
C2170 C 0.12383 0.5028 0.99721 0.0
C2171 C 0.15129 0.46968 0.96374 0.0
C2172 C 0.14748 0.48274 0.97926 0.0
C2173 C 0.13676 0.52488 0.02159 0.0
C2174 C 0.14033 0.50929 1.00771 0.0
H2175 H 0.18634 0.46376 0.93155 0.0
H2176 H 0.18067 0.48413 0.9572 0.0
H2177 H 0.11426 0.48572 0.97525 0.0
H2178 H 0.11052 0.57009 0.02819 0.0
H2179 H 0.1149 0.54326 1.00697 0.0
C2180 C 0.29055 0.39287 0.68378 0.0
C2181 C 0.30669 0.40765 0.68344 0.0
C2182 C 0.27878 0.3896 0.69854 0.0
C2183 C 0.26374 0.41414 0.73961 0.0
H2184 H 0.24565 0.35835 0.75069 0.0
C2185 C 0.21312 0.39612 0.79958 0.0
C2186 C 0.19616 0.38283 0.79662 0.0
C2187 C 0.22882 0.3985 0.78724 0.0
C2188 C 0.25044 0.37408 0.74777 0.0
H2189 H 0.32307 0.43034 0.69878 0.0
H2190 H 0.30252 0.42469 0.7244 0.0
H2191 H 0.26811 0.36403 0.72626 0.0
H2192 H 0.183 0.36096 0.77863 0.0
H2193 H 0.21002 0.36496 0.75749 0.0
H2194 H 0.24576 0.42417 0.76106 0.0
C2195 C 0.2988 0.41579 0.71314 0.0
C2196 C 0.26333 0.37735 0.73367 0.0
C2197 C 0.31062 0.41905 0.69838 0.0
C2198 C 0.1958 0.37135 0.78141 0.0
C2199 C 0.21144 0.37357 0.76924 0.0
C2200 C 0.2508 0.41086 0.75375 0.0
C2201 C 0.2827 0.40098 0.71347 0.0
C2202 C 0.26992 0.39746 0.72918 0.0
C2203 C 0.22803 0.38744 0.77177 0.0
C2204 C 0.24365 0.3908 0.75787 0.0
H2205 H 0.2867 0.38404 0.67252 0.0
H2206 H 0.26629 0.37835 0.69811 0.0
H2207 H 0.26831 0.42988 0.73654 0.0
H2208 H 0.21381 0.40532 0.81107 0.0
H2209 H 0.24144 0.40919 0.78972 0.0
C2210 C 0.38289 0.44411 0.53116 0.0
C2211 C 0.37133 0.44481 0.54632 0.0
C2212 C 0.38062 0.4594 0.51868 0.0
C2213 C 0.34313 0.49808 0.50236 0.0
H2214 H 0.39002 0.51531 0.47487 0.0
C2215 C 0.33471 0.55703 0.44642 0.0
C2216 C 0.34634 0.55317 0.43158 0.0
C2217 C 0.33798 0.54538 0.46127 0.0
C2218 C 0.37668 0.51054 0.48227 0.0
H2219 H 0.34862 0.46268 0.56035 0.0
H2220 H 0.34466 0.48967 0.53846 0.0
H2221 H 0.39571 0.4933 0.49959 0.0
H2222 H 0.37038 0.53349 0.42095 0.0
H2223 H 0.37607 0.51332 0.44669 0.0
H2224 H 0.32407 0.51512 0.48486 0.0
C2225 C 0.35546 0.47707 0.53626 0.0
C2226 C 0.37996 0.49791 0.49654 0.0
C2227 C 0.35789 0.46174 0.54891 0.0
C2228 C 0.36135 0.53727 0.43212 0.0
C2229 C 0.36463 0.52564 0.44697 0.0
C2230 C 0.33983 0.51074 0.48805 0.0
C2231 C 0.36661 0.47594 0.52085 0.0
C2232 C 0.36322 0.49119 0.50667 0.0
C2233 C 0.35302 0.5295 0.4618 0.0
C2234 C 0.35654 0.51691 0.47763 0.0
H2235 H 0.3934 0.43133 0.52866 0.0
H2236 H 0.38931 0.45774 0.50699 0.0
H2237 H 0.3298 0.49306 0.50968 0.0
H2238 H 0.32323 0.56932 0.44666 0.0
H2239 H 0.32891 0.54907 0.47244 0.0
C2240 C 0.14675 0.30959 0.42393 0.0
C2241 C 0.147 0.32909 0.41586 0.0
C2242 C 0.14827 0.29128 0.4145 0.0
C2243 C 0.16058 0.25449 0.39253 0.0
H2244 H 0.12743 0.25137 0.35153 0.0
C2245 C 0.15628 0.18041 0.34988 0.0
C2246 C 0.13637 0.17532 0.34387 0.0
C2247 C 0.15973 0.19937 0.35823 0.0
C2248 C 0.13675 0.25195 0.36297 0.0
H2249 H 0.14968 0.34454 0.39147 0.0
H2250 H 0.15246 0.31253 0.375 0.0
H2251 H 0.12991 0.28411 0.3668 0.0
H2252 H 0.10439 0.18574 0.34229 0.0
H2253 H 0.11031 0.21844 0.35686 0.0
H2254 H 0.16678 0.22206 0.38895 0.0
C2255 C 0.15083 0.31144 0.38866 0.0
C2256 C 0.13839 0.27083 0.37163 0.0
C2257 C 0.14933 0.32981 0.39812 0.0
C2258 C 0.11996 0.18928 0.34664 0.0
C2259 C 0.12339 0.20814 0.35489 0.0
C2260 C 0.15897 0.23558 0.38383 0.0
C2261 C 0.15008 0.29192 0.39673 0.0
C2262 C 0.15003 0.27228 0.38668 0.0
C2263 C 0.14333 0.21357 0.36064 0.0
C2264 C 0.14669 0.23399 0.36912 0.0
H2265 H 0.14499 0.30838 0.43757 0.0
H2266 H 0.14735 0.27657 0.42114 0.0
H2267 H 0.16991 0.25511 0.40396 0.0
H2268 H 0.16921 0.16991 0.34794 0.0
H2269 H 0.17529 0.2031 0.36248 0.0
C2270 C 0.06552 0.86707 0.60179 0.0
C2271 C 0.07851 0.88401 0.59812 0.0
C2272 C 0.04672 0.86993 0.61027 0.0
C2273 C 0.01723 0.90571 0.63777 0.0
H2274 H 0.97028 0.87375 0.62129 0.0
C2275 C 0.92289 0.89373 0.65067 0.0
C2276 C 0.92303 0.89267 0.6685 0.0
C2277 C 0.94156 0.89514 0.64157 0.0
C2278 C 0.98311 0.88301 0.62596 0.0
H2279 H 0.08233 0.91724 0.60102 0.0
H2280 H 0.04921 0.92234 0.61597 0.0
H2281 H 0.00345 0.87169 0.6066 0.0
H2282 H 0.94302 0.8928 0.69072 0.0
H2283 H 0.97535 0.89501 0.67491 0.0
H2284 H 0.99677 0.91705 0.65714 0.0
C2285 C 0.05367 0.90679 0.61223 0.0
C2286 C 0.00225 0.88162 0.61765 0.0
C2287 C 0.0726 0.90389 0.60367 0.0
C2288 C 0.94225 0.89356 0.677 0.0
C2289 C 0.96086 0.895 0.66792 0.0
C2290 C 0.99805 0.90706 0.64613 0.0
C2291 C 0.04032 0.88985 0.61534 0.0
C2292 C 0.01965 0.89267 0.6236 0.0
C2293 C 0.96081 0.89557 0.65008 0.0
C2294 C 0.9808 0.89551 0.64046 0.0
H2295 H 0.06973 0.85151 0.59786 0.0
H2296 H 0.03712 0.85647 0.61282 0.0
H2297 H 0.0303 0.91439 0.64271 0.0
H2298 H 0.9084 0.89317 0.64369 0.0
H2299 H 0.94091 0.8958 0.62784 0.0
C2300 C 0.34716 0.8258 0.85057 0.0
C2301 C 0.36726 0.83051 0.84476 0.0
C2302 C 0.34328 0.80696 0.85905 0.0
C2303 C 0.3435 0.77063 0.88492 0.0
H2304 H 0.37212 0.7219 0.86783 0.0
C2305 C 0.35603 0.69664 0.92517 0.0
C2306 C 0.35578 0.67711 0.91716 0.0
C2307 C 0.35434 0.71493 0.9157 0.0
C2308 C 0.36375 0.73523 0.87267 0.0
H2309 H 0.39912 0.81961 0.84381 0.0
H2310 H 0.39245 0.7872 0.85852 0.0
H2311 H 0.37466 0.75461 0.85249 0.0
H2312 H 0.35291 0.6616 0.89283 0.0
H2313 H 0.34985 0.69357 0.87629 0.0
H2314 H 0.33266 0.75118 0.90517 0.0
C2315 C 0.37956 0.79767 0.8563 0.0
C2316 C 0.36541 0.75408 0.86397 0.0
C2317 C 0.38341 0.81636 0.84794 0.0
C2318 C 0.3533 0.67635 0.89943 0.0
C2319 C 0.35162 0.6947 0.88993 0.0
C2320 C 0.34186 0.75173 0.89367 0.0
C2321 C 0.35943 0.79253 0.86175 0.0
C2322 C 0.3557 0.77213 0.87017 0.0
C2323 C 0.35235 0.71425 0.89793 0.0
C2324 C 0.35229 0.73387 0.88782 0.0
H2325 H 0.33443 0.83645 0.84831 0.0
H2326 H 0.3276 0.80347 0.86312 0.0
H2327 H 0.33585 0.78422 0.89004 0.0
H2328 H 0.35789 0.69788 0.9388 0.0
H2329 H 0.35527 0.72965 0.92229 0.0
C2330 C 0.43034 0.10003 0.10152 0.0
C2331 C 0.42448 0.12012 0.09644 0.0
C2332 C 0.44927 0.0968 0.11004 0.0
C2333 C 0.50072 0.1216 0.11598 0.0
H2334 H 0.50581 0.08612 0.15553 0.0
C2335 C 0.5602 0.10968 0.1757 0.0
C2336 C 0.57949 0.11024 0.1673 0.0
C2337 C 0.54164 0.10837 0.16652 0.0
C2338 C 0.50464 0.0961 0.14449 0.0
H2339 H 0.43337 0.15261 0.09692 0.0
H2340 H 0.46596 0.14703 0.11173 0.0
H2341 H 0.4724 0.08877 0.14082 0.0
H2342 H 0.59429 0.10934 0.14257 0.0
H2343 H 0.56188 0.10703 0.12656 0.0
H2344 H 0.53266 0.12945 0.11985 0.0
C2345 C 0.45632 0.13369 0.10888 0.0
C2346 C 0.48554 0.09745 0.13598 0.0
C2347 C 0.43753 0.1369 0.10048 0.0
C2348 C 0.57974 0.10908 0.14947 0.0
C2349 C 0.56113 0.10782 0.14028 0.0
C2350 C 0.51978 0.12019 0.12442 0.0
C2351 C 0.46265 0.1136 0.11353 0.0
C2352 C 0.48326 0.11054 0.12181 0.0
C2353 C 0.54183 0.10762 0.14869 0.0
C2354 C 0.52193 0.10768 0.13895 0.0
H2355 H 0.42055 0.08683 0.0986 0.0
H2356 H 0.4537 0.08112 0.11348 0.0
H2357 H 0.4996 0.13159 0.10495 0.0
H2358 H 0.55935 0.11051 0.18942 0.0
H2359 H 0.52709 0.10853 0.17342 0.0
C2360 C 0.11857 0.81433 0.17154 0.0
C2361 C 0.13608 0.82574 0.17665 0.0
C2362 C 0.12075 0.79641 0.16174 0.0
C2363 C 0.1292 0.76602 0.13311 0.0
H2364 H 0.16825 0.72348 0.14717 0.0
C2365 C 0.14084 0.69093 0.0944 0.0
C2366 C 0.14086 0.6722 0.10362 0.0
C2367 C 0.14214 0.71003 0.10275 0.0
C2368 C 0.15727 0.73522 0.1431 0.0
H2369 H 0.16964 0.82748 0.1754 0.0
H2370 H 0.17353 0.79573 0.15833 0.0
H2371 H 0.16707 0.75665 0.1624 0.0
H2372 H 0.14287 0.65896 0.1289 0.0
H2373 H 0.14516 0.6924 0.14349 0.0
H2374 H 0.11912 0.74462 0.11404 0.0
C2375 C 0.1581 0.80077 0.16195 0.0
C2376 C 0.15674 0.75427 0.15171 0.0
C2377 C 0.15589 0.81896 0.17162 0.0
C2378 C 0.14273 0.67307 0.1214 0.0
C2379 C 0.14419 0.69223 0.12976 0.0
C2380 C 0.12987 0.74711 0.12443 0.0
C2381 C 0.14051 0.7893 0.15693 0.0
C2382 C 0.14248 0.76977 0.14695 0.0
C2383 C 0.14364 0.71095 0.12054 0.0
C2384 C 0.14374 0.73138 0.12942 0.0
H2385 H 0.1031 0.81918 0.17521 0.0
H2386 H 0.10691 0.78784 0.15825 0.0
H2387 H 0.11814 0.7777 0.12907 0.0
H2388 H 0.1395 0.6909 0.08069 0.0
H2389 H 0.14193 0.72414 0.09526 0.0
C2390 C 0.55986 0.89111 0.34551 0.0
C2391 C 0.57852 0.8909 0.35482 0.0
C2392 C 0.54071 0.89283 0.35371 0.0
C2393 C 0.51511 0.90762 0.39413 0.0
H2394 H 0.47183 0.87069 0.37795 0.0
C2395 C 0.43421 0.86936 0.41949 0.0
C2396 C 0.42326 0.88669 0.42556 0.0
C2397 C 0.45233 0.87182 0.41002 0.0
C2398 C 0.48372 0.88114 0.38262 0.0
H2399 H 0.59158 0.8929 0.38015 0.0
H2400 H 0.55796 0.89562 0.39455 0.0
H2401 H 0.50537 0.87115 0.36377 0.0
H2402 H 0.42252 0.9203 0.42626 0.0
H2403 H 0.45462 0.9247 0.40961 0.0
H2404 H 0.49338 0.91712 0.41332 0.0
C2405 C 0.55826 0.89464 0.38083 0.0
C2406 C 0.50293 0.88153 0.3744 0.0
C2407 C 0.57752 0.89292 0.37259 0.0
C2408 C 0.43064 0.90667 0.42168 0.0
C2409 C 0.44906 0.90917 0.41229 0.0
C2410 C 0.49576 0.90729 0.40234 0.0
C2411 C 0.5396 0.89433 0.37148 0.0
C2412 C 0.51897 0.89462 0.38011 0.0
C2413 C 0.46012 0.89171 0.40641 0.0
C2414 C 0.47995 0.8938 0.39681 0.0
H2415 H 0.55993 0.88982 0.3318 0.0
H2416 H 0.52672 0.89293 0.34607 0.0
H2417 H 0.52704 0.91803 0.39875 0.0
H2418 H 0.4289 0.85375 0.42226 0.0
H2419 H 0.46055 0.85805 0.40589 0.0
C2420 C 0.369 0.3283 0.62142 0.0
C2421 C 0.36169 0.33033 0.6047 0.0
C2422 C 0.36762 0.30927 0.62993 0.0
C2423 C 0.3597 0.2525 0.6221 0.0
H2424 H 0.35538 0.25134 0.67119 0.0
C2425 C 0.35282 0.17757 0.66494 0.0
C2426 C 0.36963 0.1762 0.6763 0.0
C2427 C 0.34944 0.19587 0.6556 0.0
C2428 C 0.35644 0.25146 0.65746 0.0
H2429 H 0.34657 0.31416 0.58398 0.0
H2430 H 0.34332 0.28124 0.59902 0.0
H2431 H 0.35325 0.28443 0.65626 0.0
H2432 H 0.39596 0.19287 0.68681 0.0
H2433 H 0.3896 0.22478 0.67102 0.0
H2434 H 0.36253 0.21927 0.62355 0.0
C2435 C 0.3508 0.29408 0.60543 0.0
C2436 C 0.35547 0.27045 0.64887 0.0
C2437 C 0.35253 0.31304 0.59682 0.0
C2438 C 0.38288 0.1934 0.67817 0.0
C2439 C 0.37923 0.21172 0.66919 0.0
C2440 C 0.36026 0.23345 0.63072 0.0
C2441 C 0.35851 0.29183 0.62208 0.0
C2442 C 0.35761 0.27134 0.63108 0.0
C2443 C 0.36251 0.21316 0.65784 0.0
C2444 C 0.35908 0.23284 0.64849 0.0
H2445 H 0.37632 0.34129 0.6278 0.0
H2446 H 0.37419 0.30819 0.64255 0.0
H2447 H 0.3617 0.25243 0.60846 0.0
H2448 H 0.34241 0.16453 0.66325 0.0
H2449 H 0.33646 0.19666 0.64687 0.0
C2450 C 0.07676 0.10321 0.91448 0.0
C2451 C 0.0793 0.12014 0.92553 0.0
C2452 C 0.05859 0.10129 0.90468 0.0
C2453 C 0.01244 0.13257 0.89036 0.0
H2454 H 0.98831 0.07875 0.88049 0.0
C2455 C 0.92701 0.1209 0.87022 0.0
C2456 C 0.92452 0.11226 0.85397 0.0
C2457 C 0.94639 0.12054 0.87827 0.0
C2458 C 0.99499 0.09385 0.88313 0.0
H2459 H 0.06463 0.14799 0.93529 0.0
H2460 H 0.03299 0.1442 0.91913 0.0
H2461 H 0.02147 0.08077 0.89571 0.0
H2462 H 0.94018 0.09572 0.8337 0.0
H2463 H 0.97399 0.09449 0.84814 0.0
H2464 H 0.98542 0.14556 0.87849 0.0
C2465 C 0.04512 0.13278 0.91729 0.0
C2466 C 0.01405 0.09505 0.89174 0.0
C2467 C 0.0633 0.13487 0.92676 0.0
C2468 C 0.94166 0.10258 0.8462 0.0
C2469 C 0.96094 0.10179 0.85445 0.0
C2470 C 0.99326 0.13134 0.88213 0.0
C2471 C 0.0425 0.11613 0.90593 0.0
C2472 C 0.02294 0.11448 0.89569 0.0
C2473 C 0.96354 0.11109 0.87042 0.0
C2474 C 0.98427 0.11201 0.87857 0.0
H2475 H 0.08888 0.09164 0.91328 0.0
H2476 H 0.0573 0.08834 0.89599 0.0
H2477 H 0.01896 0.14782 0.89259 0.0
H2478 H 0.91415 0.12855 0.8765 0.0
H2479 H 0.94804 0.1278 0.89061 0.0
C2480 C 0.84686 0.82052 0.67405 0.0
C2481 C 0.86699 0.82715 0.67832 0.0
C2482 C 0.84394 0.80218 0.6647 0.0
C2483 C 0.87127 0.76693 0.63529 0.0
H2484 H 0.83182 0.72506 0.64995 0.0
C2485 C 0.85754 0.69324 0.59599 0.0
C2486 C 0.85731 0.6742 0.60477 0.0
C2487 C 0.85649 0.71204 0.60475 0.0
C2488 C 0.84293 0.7366 0.64574 0.0
H2489 H 0.89979 0.8201 0.6759 0.0
H2490 H 0.89475 0.7885 0.65956 0.0
H2491 H 0.83415 0.75813 0.66529 0.0
H2492 H 0.85504 0.66011 0.62973 0.0
H2493 H 0.85336 0.69315 0.64509 0.0
H2494 H 0.8804 0.74548 0.616 0.0
C2495 C 0.8812 0.79731 0.66338 0.0
C2496 C 0.8441 0.7556 0.6544 0.0
C2497 C 0.88408 0.8154 0.67281 0.0
C2498 C 0.85533 0.67447 0.62257 0.0
C2499 C 0.85425 0.6934 0.63136 0.0
C2500 C 0.87 0.74809 0.62659 0.0
C2501 C 0.86113 0.7904 0.65926 0.0
C2502 C 0.85848 0.77087 0.64938 0.0
C2503 C 0.8552 0.71241 0.62255 0.0
C2504 C 0.85593 0.73261 0.63175 0.0
H2505 H 0.83341 0.82929 0.67817 0.0
H2506 H 0.82829 0.7973 0.66161 0.0
H2507 H 0.8824 0.77841 0.63102 0.0
H2508 H 0.85883 0.69372 0.58229 0.0
H2509 H 0.85688 0.72637 0.59753 0.0
C2510 C 0.06058 0.10789 0.34662 0.0
C2511 C 0.07973 0.10896 0.35522 0.0
C2512 C 0.04191 0.1064 0.3556 0.0
C2513 C 0.00466 0.09419 0.37726 0.0
H2514 H 0.9987 0.12978 0.41661 0.0
C2515 C 0.9299 0.09695 0.41949 0.0
C2516 C 0.92381 0.11681 0.42495 0.0
C2517 C 0.94888 0.09419 0.41097 0.0
C2518 C 1.00006 0.11979 0.40561 0.0
H2519 H 0.09415 0.10874 0.38011 0.0
H2520 H 0.06154 0.106 0.3958 0.0
H2521 H 0.03199 0.1279 0.40207 0.0
H2522 H 0.93225 0.14941 0.42508 0.0
H2523 H 0.96494 0.14466 0.41017 0.0
H2524 H 0.97244 0.08661 0.38057 0.0
C2525 C 0.061 0.10657 0.38206 0.0
C2526 C 0.01926 0.1185 0.39739 0.0
C2527 C 0.07972 0.10804 0.37306 0.0
C2528 C 0.93662 0.13386 0.42121 0.0
C2529 C 0.95546 0.13112 0.41276 0.0
C2530 C 0.98541 0.09544 0.38553 0.0
C2531 C 0.04183 0.10595 0.37345 0.0
C2532 C 0.02176 0.10593 0.38295 0.0
C2533 C 0.96207 0.11123 0.40781 0.0
C2534 C 0.98279 0.10855 0.39963 0.0
H2535 H 0.05992 0.10854 0.33289 0.0
H2536 H 0.02748 0.10624 0.34853 0.0
H2537 H 0.00609 0.08415 0.3663 0.0
H2538 H 0.92031 0.08353 0.4222 0.0
H2539 H 0.9535 0.07865 0.40731 0.0
C2540 C 0.65112 0.32842 0.12455 0.0
C2541 C 0.64844 0.32752 0.10684 0.0
C2542 C 0.65304 0.31015 0.13412 0.0
C2543 C 0.663 0.25311 0.1305 0.0
H2544 H 0.63085 0.25031 0.17202 0.0
C2545 C 0.65826 0.17884 0.17332 0.0
C2546 C 0.63826 0.17412 0.17935 0.0
C2547 C 0.66205 0.19779 0.16498 0.0
C2548 C 0.63991 0.25081 0.16045 0.0
H2549 H 0.64621 0.30657 0.08532 0.0
H2550 H 0.64923 0.27495 0.10195 0.0
H2551 H 0.63311 0.28297 0.15659 0.0
H2552 H 0.60649 0.1852 0.18094 0.0
H2553 H 0.61301 0.21779 0.16645 0.0
H2554 H 0.66909 0.22063 0.13411 0.0
C2555 C 0.65015 0.28972 0.10847 0.0
C2556 C 0.64142 0.26964 0.15169 0.0
C2557 C 0.64823 0.30793 0.09892 0.0
C2558 C 0.62214 0.18843 0.1766 0.0
C2559 C 0.6259 0.20724 0.16839 0.0
C2560 C 0.66151 0.23423 0.13931 0.0
C2561 C 0.65234 0.29054 0.12622 0.0
C2562 C 0.65264 0.27097 0.13641 0.0
C2563 C 0.64592 0.21233 0.16264 0.0
C2564 C 0.64954 0.23275 0.15418 0.0
H2565 H 0.65146 0.34321 0.13108 0.0
H2566 H 0.65496 0.31139 0.14774 0.0
H2567 H 0.67203 0.25363 0.11891 0.0
H2568 H 0.67097 0.16807 0.17523 0.0
H2569 H 0.67765 0.20124 0.16069 0.0
C2570 C 0.42652 0.89618 0.87268 0.0
C2571 C 0.42618 0.89475 0.85485 0.0
C2572 C 0.4455 0.897 0.88146 0.0
C2573 C 0.50032 0.88168 0.87616 0.0
H2574 H 0.51034 0.91594 0.9158 0.0
C2575 C 0.56778 0.86587 0.92188 0.0
C2576 C 0.57944 0.8827 0.92801 0.0
C2577 C 0.54972 0.86915 0.91247 0.0
C2578 C 0.50783 0.90645 0.90464 0.0
H2579 H 0.44562 0.89399 0.83231 0.0
H2580 H 0.47833 0.89554 0.84752 0.0
H2581 H 0.47717 0.91871 0.9006 0.0
H2582 H 0.58146 0.91625 0.92898 0.0
H2583 H 0.5495 0.92208 0.91245 0.0
H2584 H 0.53076 0.86932 0.88016 0.0
C2585 C 0.46404 0.89564 0.85478 0.0
C2586 C 0.48876 0.90786 0.89606 0.0
C2587 C 0.44519 0.89483 0.84604 0.0
C2588 C 0.57277 0.903 0.92436 0.0
C2589 C 0.55445 0.90631 0.91503 0.0
C2590 C 0.51923 0.88019 0.88476 0.0
C2591 C 0.46449 0.89638 0.8726 0.0
C2592 C 0.48476 0.89541 0.88174 0.0
C2593 C 0.54273 0.88937 0.90899 0.0
C2594 C 0.52317 0.89239 0.8992 0.0
H2595 H 0.41218 0.89622 0.87987 0.0
H2596 H 0.44531 0.89746 0.89521 0.0
H2597 H 0.49772 0.87169 0.86531 0.0
H2598 H 0.57251 0.85004 0.92448 0.0
H2599 H 0.54097 0.85576 0.90821 0.0
C2600 C 0.8621 0.33149 0.90062 0.0
C2601 C 0.86117 0.3324 0.91844 0.0
C2602 C 0.86098 0.3124 0.89218 0.0
C2603 C 0.84649 0.25675 0.89758 0.0
H2604 H 0.88568 0.24866 0.86082 0.0
C2605 C 0.8498 0.18223 0.85498 0.0
C2606 C 0.86978 0.17542 0.85045 0.0
C2607 C 0.8472 0.20095 0.86389 0.0
C2608 C 0.87469 0.25059 0.87112 0.0
H2609 H 0.85772 0.31389 0.94131 0.0
H2610 H 0.85604 0.28065 0.92661 0.0
H2611 H 0.88368 0.28221 0.87481 0.0
H2612 H 0.90269 0.18207 0.8526 0.0
H2613 H 0.89822 0.21428 0.86822 0.0
H2614 H 0.83794 0.2248 0.89405 0.0
C2615 C 0.85741 0.29471 0.91913 0.0
C2616 C 0.87335 0.26996 0.879 0.0
C2617 C 0.85853 0.3138 0.92758 0.0
C2618 C 0.88707 0.18706 0.8557 0.0
C2619 C 0.8845 0.20562 0.86456 0.0
C2620 C 0.8478 0.23731 0.88962 0.0
C2621 C 0.85891 0.29372 0.90134 0.0
C2622 C 0.85938 0.27328 0.89244 0.0
C2623 C 0.86454 0.21312 0.86839 0.0
C2624 C 0.86214 0.23393 0.87644 0.0
H2625 H 0.86395 0.3455 0.89316 0.0
H2626 H 0.86185 0.31227 0.87845 0.0
H2627 H 0.8354 0.25882 0.90777 0.0
H2628 H 0.8362 0.17353 0.8511 0.0
H2629 H 0.83161 0.20629 0.86666 0.0
C2630 C 0.44494 0.11165 0.6795 0.0
C2631 C 0.42636 0.11273 0.67013 0.0
C2632 C 0.46415 0.11025 0.67129 0.0
C2633 C 0.48937 0.0971 0.63035 0.0
H2634 H 0.53323 0.13316 0.64678 0.0
C2635 C 0.57278 0.09862 0.60109 0.0
C2636 C 0.5801 0.11868 0.59738 0.0
C2637 C 0.55477 0.09593 0.61094 0.0
C2638 C 0.52117 0.12295 0.64205 0.0
H2639 H 0.4135 0.11267 0.64466 0.0
H2640 H 0.44708 0.1103 0.63032 0.0
H2641 H 0.50002 0.13216 0.66159 0.0
H2642 H 0.5748 0.15153 0.6015 0.0
H2643 H 0.54382 0.14687 0.61872 0.0
H2644 H 0.51053 0.08831 0.61054 0.0
C2645 C 0.44674 0.11042 0.64407 0.0
C2646 C 0.50217 0.12225 0.65062 0.0
C2647 C 0.42748 0.11193 0.6523 0.0
C2648 C 0.56951 0.13588 0.6041 0.0
C2649 C 0.55179 0.13321 0.61406 0.0
C2650 C 0.5085 0.09768 0.62183 0.0
C2651 C 0.46533 0.10979 0.65347 0.0
C2652 C 0.48591 0.10954 0.64476 0.0
C2653 C 0.54404 0.11325 0.61748 0.0
C2654 C 0.5245 0.11088 0.62743 0.0
H2655 H 0.44473 0.11212 0.69325 0.0
H2656 H 0.47813 0.10953 0.67893 0.0
H2657 H 0.47726 0.08698 0.6256 0.0
H2658 H 0.58064 0.08509 0.59605 0.0
H2659 H 0.54924 0.08035 0.61345 0.0
C2660 C 0.62729 0.80865 0.34164 0.0
C2661 C 0.63944 0.82643 0.34457 0.0
C2662 C 0.63111 0.79027 0.35048 0.0
C2663 C 0.64831 0.76946 0.39016 0.0
H2664 H 0.65509 0.71787 0.36541 0.0
C2665 C 0.65349 0.69024 0.42511 0.0
C2666 C 0.6441 0.67304 0.41725 0.0
C2667 C 0.65586 0.70904 0.41634 0.0
C2668 C 0.65295 0.73204 0.37258 0.0
H2669 H 0.66506 0.83897 0.35914 0.0
H2670 H 0.67128 0.80667 0.37526 0.0
H2671 H 0.65402 0.7507 0.35002 0.0
H2672 H 0.62971 0.66214 0.39403 0.0
H2673 H 0.63299 0.69494 0.37901 0.0
H2674 H 0.64593 0.75093 0.41262 0.0
C2675 C 0.65903 0.80707 0.36583 0.0
C2676 C 0.65258 0.75088 0.36373 0.0
C2677 C 0.65552 0.82546 0.35662 0.0
C2678 C 0.63717 0.67503 0.40042 0.0
C2679 C 0.63923 0.69389 0.39174 0.0
C2680 C 0.6483 0.75057 0.39902 0.0
C2681 C 0.64688 0.78929 0.36274 0.0
C2682 C 0.64996 0.76973 0.3724 0.0
C2683 C 0.64861 0.71122 0.39955 0.0
C2684 C 0.65026 0.73152 0.39032 0.0
H2685 H 0.6148 0.80888 0.33242 0.0
H2686 H 0.62141 0.77686 0.34796 0.0
H2687 H 0.64605 0.78379 0.39711 0.0
H2688 H 0.65917 0.68917 0.43803 0.0
H2689 H 0.6635 0.7218 0.42273 0.0
C2690 C 0.93335 0.8667 0.10611 0.0
C2691 C 0.92248 0.88408 0.10003 0.0
C2692 C 0.95171 0.86909 0.11533 0.0
C2693 C 0.98407 0.87865 0.14212 0.0
H2694 H 0.02669 0.91576 0.12504 0.0
C2695 C 0.06069 0.89086 0.17832 0.0
C2696 C 0.07918 0.89039 0.1688 0.0
C2697 C 0.04138 0.89206 0.1703 0.0
C2698 C 0.01496 0.9053 0.12993 0.0
H2699 H 0.92206 0.91769 0.09909 0.0
H2700 H 0.95448 0.92195 0.11526 0.0
H2701 H 0.9928 0.91427 0.1109 0.0
H2702 H 0.09174 0.89139 0.14326 0.0
H2703 H 0.05787 0.89337 0.1292 0.0
H2704 H 0.00618 0.86929 0.16088 0.0
C2705 C 0.94873 0.90644 0.11279 0.0
C2706 C 0.99547 0.90462 0.12195 0.0
C2707 C 0.93013 0.90403 0.10367 0.0
C2708 C 0.07784 0.89168 0.151 0.0
C2709 C 0.05842 0.89293 0.14294 0.0
C2710 C 0.00343 0.87942 0.15013 0.0
C2711 C 0.95978 0.88895 0.11864 0.0
C2712 C 0.9799 0.89109 0.12784 0.0
C2713 C 0.03994 0.89283 0.1525 0.0
C2714 C 0.01919 0.89262 0.14408 0.0
H2715 H 0.92782 0.85112 0.10352 0.0
H2716 H 0.95991 0.85529 0.11948 0.0
H2717 H 0.97238 0.86817 0.14706 0.0
H2718 H 0.06104 0.89006 0.19206 0.0
H2719 H 0.0275 0.8923 0.17807 0.0
C2720 C 0.65244 0.67821 0.85048 0.0
C2721 C 0.63243 0.67362 0.84438 0.0
C2722 C 0.6562 0.69689 0.85918 0.0
C2723 C 0.63409 0.74972 0.86445 0.0
H2724 H 0.6666 0.75183 0.90583 0.0
C2725 C 0.64687 0.82692 0.90041 0.0
C2726 C 0.64435 0.82604 0.91813 0.0
C2727 C 0.64833 0.80864 0.89083 0.0
C2728 C 0.65745 0.7515 0.89429 0.0
H2729 H 0.60061 0.68461 0.84312 0.0
H2730 H 0.60708 0.71676 0.85824 0.0
H2731 H 0.66332 0.71904 0.89041 0.0
H2732 H 0.64191 0.80512 0.93968 0.0
H2733 H 0.64417 0.77345 0.92303 0.0
H2734 H 0.62756 0.78189 0.86855 0.0
C2735 C 0.62 0.70631 0.85607 0.0
C2736 C 0.65576 0.73274 0.88537 0.0
C2737 C 0.61626 0.68776 0.84748 0.0
C2738 C 0.64382 0.80645 0.92606 0.0
C2739 C 0.64529 0.78822 0.9165 0.0
C2740 C 0.63581 0.76844 0.87332 0.0
C2741 C 0.64003 0.7113 0.86183 0.0
C2742 C 0.64369 0.73154 0.87052 0.0
C2743 C 0.64733 0.78904 0.89874 0.0
C2744 C 0.6472 0.76952 0.88852 0.0
H2745 H 0.66518 0.66756 0.84829 0.0
H2746 H 0.67182 0.70028 0.86348 0.0
H2747 H 0.62493 0.74943 0.85291 0.0
H2748 H 0.64745 0.84171 0.89387 0.0
H2749 H 0.65014 0.80987 0.8772 0.0
C2750 C 0.57064 0.36596 0.10305 0.0
C2751 C 0.58195 0.38291 0.09669 0.0
C2752 C 0.55231 0.36902 0.11215 0.0
C2753 C 0.50922 0.40536 0.11843 0.0
H2754 H 0.49919 0.37184 0.15853 0.0
C2755 C 0.42757 0.39423 0.14968 0.0
C2756 C 0.42697 0.39367 0.16754 0.0
C2757 C 0.44667 0.39513 0.14108 0.0
C2758 C 0.50175 0.38147 0.14744 0.0
H2759 H 0.58306 0.41647 0.09502 0.0
H2760 H 0.55063 0.42191 0.11098 0.0
H2761 H 0.53259 0.36977 0.1442 0.0
H2762 H 0.44606 0.3945 0.19029 0.0
H2763 H 0.47897 0.39615 0.17539 0.0
H2764 H 0.47817 0.41694 0.12172 0.0
C2765 C 0.55606 0.40621 0.10883 0.0
C2766 C 0.52087 0.38015 0.13915 0.0
C2767 C 0.57466 0.40313 0.09982 0.0
C2768 C 0.44583 0.39467 0.17654 0.0
C2769 C 0.4648 0.39554 0.16799 0.0
C2770 C 0.48994 0.40658 0.1267 0.0
C2771 C 0.54468 0.38914 0.11506 0.0
C2772 C 0.52481 0.39193 0.12447 0.0
C2773 C 0.46553 0.39543 0.15017 0.0
C2774 C 0.48597 0.39458 0.14129 0.0
H2775 H 0.57586 0.35019 0.10084 0.0
H2776 H 0.54385 0.35554 0.11659 0.0
H2777 H 0.51173 0.41451 0.10707 0.0
H2778 H 0.41336 0.39355 0.14234 0.0
H2779 H 0.4467 0.39493 0.12733 0.0
C2780 C 0.88633 0.31272 0.34992 0.0
C2781 C 0.86936 0.32566 0.34619 0.0
C2782 C 0.88355 0.29417 0.35878 0.0
C2783 C 0.84794 0.26532 0.38706 0.0
H2784 H 0.87992 0.21813 0.3712 0.0
C2785 C 0.85858 0.18985 0.42657 0.0
C2786 C 0.85971 0.17079 0.41788 0.0
C2787 C 0.85754 0.20864 0.41762 0.0
C2788 C 0.87066 0.23102 0.37572 0.0
H2789 H 0.83617 0.32961 0.34933 0.0
H2790 H 0.83119 0.29686 0.36487 0.0
H2791 H 0.882 0.25096 0.3561 0.0
H2792 H 0.85982 0.15661 0.39291 0.0
H2793 H 0.85776 0.18926 0.37735 0.0
H2794 H 0.83647 0.24518 0.40665 0.0
C2795 C 0.84671 0.3012 0.36092 0.0
C2796 C 0.87207 0.24999 0.36717 0.0
C2797 C 0.84952 0.3199 0.35199 0.0
C2798 C 0.85919 0.17097 0.40003 0.0
C2799 C 0.8581 0.18975 0.39109 0.0
C2800 C 0.84654 0.24628 0.39567 0.0
C2801 C 0.86368 0.28794 0.36417 0.0
C2802 C 0.86097 0.26749 0.37284 0.0
C2803 C 0.85756 0.20886 0.39975 0.0
C2804 C 0.85804 0.22892 0.39019 0.0
H2805 H 0.90186 0.31682 0.3458 0.0
H2806 H 0.89705 0.28464 0.3614 0.0
H2807 H 0.83922 0.27848 0.39181 0.0
H2808 H 0.85894 0.19033 0.44031 0.0
H2809 H 0.85738 0.22302 0.42473 0.0
C2810 C 0.93644 0.63296 0.59884 0.0
C2811 C 0.92268 0.61655 0.59547 0.0
C2812 C 0.95521 0.62942 0.60718 0.0
C2813 C 0.98318 0.59352 0.63537 0.0
H2814 H 0.03126 0.62326 0.61827 0.0
C2815 C 0.07744 0.60475 0.64936 0.0
C2816 C 0.07681 0.60714 0.6671 0.0
C2817 C 0.05902 0.60281 0.63998 0.0
C2818 C 0.01812 0.61459 0.62311 0.0
H2819 H 0.91749 0.58355 0.59872 0.0
H2820 H 0.9506 0.57726 0.6135 0.0
H2821 H 0.99836 0.62547 0.60316 0.0
H2822 H 0.05621 0.60873 0.68889 0.0
H2823 H 0.02431 0.60561 0.67259 0.0
H2824 H 0.00301 0.58273 0.65541 0.0
C2825 C 0.94675 0.59292 0.60959 0.0
C2826 C 0.99915 0.61606 0.61454 0.0
C2827 C 0.92783 0.59649 0.60112 0.0
C2828 C 0.05735 0.60697 0.67525 0.0
C2829 C 0.03899 0.60499 0.6659 0.0
C2830 C 0.0022 0.59209 0.644 0.0
C2831 C 0.96081 0.60933 0.61243 0.0
C2832 C 0.98134 0.60591 0.62074 0.0
C2833 C 0.03954 0.60315 0.64812 0.0
C2834 C 0.01982 0.60291 0.63813 0.0
H2835 H 0.93285 0.64866 0.59483 0.0
H2836 H 0.96539 0.6425 0.60953 0.0
H2837 H 0.96977 0.58553 0.64049 0.0
H2838 H 0.09213 0.60472 0.64266 0.0
H2839 H 0.06005 0.60118 0.62632 0.0
C2840 C 0.62324 0.31092 0.6814 0.0
C2841 C 0.63582 0.32814 0.67771 0.0
C2842 C 0.62572 0.29227 0.67269 0.0
C2843 C 0.66146 0.26324 0.64372 0.0
H2844 H 0.61204 0.22967 0.63722 0.0
C2845 C 0.65292 0.19163 0.59842 0.0
C2846 C 0.64486 0.17359 0.60605 0.0
C2847 C 0.65387 0.21032 0.60745 0.0
C2848 C 0.62598 0.23883 0.63906 0.0
H2849 H 0.661 0.33935 0.662 0.0
H2850 H 0.66475 0.3069 0.64597 0.0
H2851 H 0.60924 0.26314 0.65124 0.0
H2852 H 0.63184 0.16088 0.62922 0.0
H2853 H 0.63285 0.19382 0.6448 0.0
H2854 H 0.67784 0.23897 0.63059 0.0
C2855 C 0.65329 0.30762 0.656 0.0
C2856 C 0.62447 0.25801 0.6472 0.0
C2857 C 0.65109 0.32629 0.66508 0.0
C2858 C 0.63819 0.17451 0.62302 0.0
C2859 C 0.63869 0.19332 0.63191 0.0
C2860 C 0.66286 0.24417 0.63519 0.0
C2861 C 0.64051 0.29035 0.65963 0.0
C2862 C 0.64222 0.2704 0.64996 0.0
C2863 C 0.64635 0.21143 0.62414 0.0
C2864 C 0.64516 0.23169 0.63302 0.0
H2865 H 0.61152 0.31172 0.69125 0.0
H2866 H 0.61604 0.27928 0.67637 0.0
H2867 H 0.67553 0.27212 0.6457 0.0
H2868 H 0.65828 0.19137 0.58539 0.0
H2869 H 0.65975 0.2241 0.60117 0.0
C2870 C 0.92831 0.40162 0.91408 0.0
C2871 C 0.92565 0.38494 0.92538 0.0
C2872 C 0.94647 0.40317 0.90423 0.0
C2873 C 0.99222 0.37115 0.89026 0.0
H2874 H 0.0169 0.42451 0.87962 0.0
C2875 C 0.07753 0.38099 0.86921 0.0
C2876 C 0.08019 0.39046 0.85327 0.0
C2877 C 0.0582 0.38142 0.87732 0.0
C2878 C 0.01007 0.40953 0.88247 0.0
H2879 H 0.94011 0.35715 0.93553 0.0
H2880 H 0.97171 0.36033 0.91926 0.0
H2881 H 0.9838 0.42314 0.89494 0.0
H2882 H 0.06488 0.40847 0.83364 0.0
H2883 H 0.03118 0.40977 0.84817 0.0
H2884 H 0.01901 0.35764 0.87848 0.0
C2885 C 0.95969 0.37182 0.91728 0.0
C2886 C 0.99103 0.4087 0.89114 0.0
C2887 C 0.94153 0.3701 0.9268 0.0
C2888 C 0.06327 0.40094 0.84587 0.0
C2889 C 0.04404 0.40178 0.85419 0.0
C2890 C 0.01138 0.37201 0.88196 0.0
C2891 C 0.96242 0.38821 0.90566 0.0
C2892 C 0.98195 0.38945 0.89537 0.0
C2893 C 0.04126 0.39175 0.86985 0.0
C2894 C 0.02058 0.39117 0.87813 0.0
H2895 H 0.91629 0.41328 0.91273 0.0
H2896 H 0.94784 0.41594 0.89535 0.0
H2897 H 0.98554 0.35602 0.89271 0.0
H2898 H 0.09024 0.37275 0.87521 0.0
H2899 H 0.05643 0.37362 0.88942 0.0
C2900 C 0.86633 0.82873 0.12355 0.0
C2901 C 0.85843 0.83066 0.107 0.0
C2902 C 0.86471 0.80991 0.13237 0.0
C2903 C 0.85446 0.75323 0.12558 0.0
H2904 H 0.85202 0.75313 0.17476 0.0
C2905 C 0.84639 0.67855 0.16793 0.0
C2906 C 0.86282 0.67668 0.1796 0.0
C2907 C 0.84348 0.69714 0.15887 0.0
C2908 C 0.85259 0.75295 0.16101 0.0
H2909 H 0.84203 0.81454 0.08692 0.0
H2910 H 0.83837 0.78204 0.1025 0.0
H2911 H 0.85083 0.78601 0.15946 0.0
H2912 H 0.88875 0.69286 0.19119 0.0
H2913 H 0.88319 0.72531 0.1759 0.0
H2914 H 0.85581 0.71995 0.12736 0.0
C2915 C 0.8465 0.79476 0.10854 0.0
C2916 C 0.85214 0.77182 0.1522 0.0
C2917 C 0.84847 0.81348 0.0996 0.0
C2918 C 0.87596 0.6938 0.18227 0.0
C2919 C 0.87275 0.71242 0.17358 0.0
C2920 C 0.8545 0.73432 0.13442 0.0
C2921 C 0.85478 0.79259 0.12501 0.0
C2922 C 0.85354 0.77231 0.13434 0.0
C2923 C 0.8566 0.71427 0.16172 0.0
C2924 C 0.85399 0.73404 0.15223 0.0
H2925 H 0.87426 0.84162 0.12956 0.0
H2926 H 0.87173 0.8089 0.14483 0.0
H2927 H 0.85588 0.75281 0.11189 0.0
H2928 H 0.83607 0.66557 0.16561 0.0
H2929 H 0.8309 0.69821 0.14977 0.0
C2930 C 0.56651 0.63722 0.42022 0.0
C2931 C 0.57918 0.62006 0.42396 0.0
C2932 C 0.54794 0.6347 0.41132 0.0
C2933 C 0.51862 0.59957 0.38309 0.0
H2934 H 0.47157 0.63119 0.39977 0.0
C2935 C 0.42409 0.61033 0.37127 0.0
C2936 C 0.4237 0.6115 0.35345 0.0
C2937 C 0.443 0.6092 0.38001 0.0
C2938 C 0.48444 0.62204 0.39503 0.0
H2939 H 0.58276 0.58685 0.42072 0.0
H2940 H 0.55004 0.58236 0.40508 0.0
H2941 H 0.50471 0.63321 0.4145 0.0
H2942 H 0.44296 0.6118 0.33083 0.0
H2943 H 0.47585 0.61006 0.34607 0.0
H2944 H 0.49818 0.58832 0.36365 0.0
C2945 C 0.55457 0.5978 0.40907 0.0
C2946 C 0.50355 0.62342 0.40336 0.0
C2947 C 0.57326 0.60035 0.41804 0.0
C2948 C 0.44265 0.61095 0.34457 0.0
C2949 C 0.46155 0.60981 0.35331 0.0
C2950 C 0.49944 0.59823 0.3747 0.0
C2951 C 0.5415 0.61493 0.4059 0.0
C2952 C 0.52096 0.61242 0.3974 0.0
C2953 C 0.46199 0.60919 0.37116 0.0
C2954 C 0.48215 0.6096 0.3805 0.0
H2955 H 0.57076 0.65265 0.42444 0.0
H2956 H 0.53854 0.6483 0.40876 0.0
H2957 H 0.53172 0.59094 0.37814 0.0
H2958 H 0.40981 0.61056 0.37853 0.0
H2959 H 0.44273 0.60841 0.39375 0.0
C2960 C 0.35484 0.17442 0.12426 0.0
C2961 C 0.35753 0.17529 0.10655 0.0
C2962 C 0.35306 0.1927 0.13378 0.0
C2963 C 0.34344 0.24972 0.13009 0.0
H2964 H 0.37615 0.25243 0.17135 0.0
C2965 C 0.38485 0.31433 0.17586 0.0
C2966 C 0.36869 0.32857 0.17867 0.0
C2967 C 0.38106 0.29553 0.16766 0.0
C2968 C 0.36694 0.25195 0.15984 0.0
H2969 H 0.35984 0.19618 0.08497 0.0
H2970 H 0.35703 0.22784 0.10153 0.0
H2971 H 0.37355 0.21976 0.15601 0.0
H2972 H 0.33593 0.33454 0.17473 0.0
H2973 H 0.32921 0.3014 0.16025 0.0
H2974 H 0.33754 0.28221 0.13366 0.0
C2975 C 0.35603 0.21308 0.10808 0.0
C2976 C 0.36523 0.23312 0.15115 0.0
C2977 C 0.35782 0.19486 0.09858 0.0
C2978 C 0.34866 0.32381 0.17274 0.0
C2979 C 0.34485 0.30489 0.16444 0.0
C2980 C 0.34513 0.26859 0.13883 0.0
C2981 C 0.35388 0.21228 0.12583 0.0
C2982 C 0.3538 0.23183 0.13598 0.0
C2983 C 0.36099 0.29041 0.16202 0.0
C2984 C 0.35729 0.27003 0.15361 0.0
H2985 H 0.35442 0.15963 0.13081 0.0
H2986 H 0.35117 0.1915 0.14741 0.0
H2987 H 0.33427 0.24921 0.11857 0.0
H2988 H 0.40051 0.31762 0.18013 0.0
H2989 H 0.39395 0.285 0.16566 0.0
C2990 C 0.57376 0.60759 0.87206 0.0
C2991 C 0.57407 0.60922 0.85424 0.0
C2992 C 0.5548 0.60677 0.88087 0.0
C2993 C 0.50008 0.62251 0.87582 0.0
H2994 H 0.48996 0.58762 0.91511 0.0
C2995 C 0.43277 0.63784 0.9218 0.0
C2996 C 0.421 0.62095 0.92768 0.0
C2997 C 0.45082 0.63466 0.91237 0.0
C2998 C 0.4925 0.59729 0.90405 0.0
H2999 H 0.55456 0.6104 0.83174 0.0
H3000 H 0.52188 0.60888 0.84699 0.0
H3001 H 0.52306 0.5849 0.89982 0.0
H3002 H 0.4188 0.58739 0.9282 0.0
H3003 H 0.45075 0.58174 0.91165 0.0
H3004 H 0.46973 0.63502 0.88001 0.0
C3005 C 0.53619 0.60859 0.85422 0.0
C3006 C 0.51153 0.59591 0.89542 0.0
C3007 C 0.55502 0.60938 0.84546 0.0
C3008 C 0.42757 0.60069 0.92378 0.0
C3009 C 0.44589 0.59748 0.91444 0.0
C3010 C 0.48121 0.62399 0.88448 0.0
C3011 C 0.53579 0.60762 0.87203 0.0
C3012 C 0.51556 0.60858 0.88122 0.0
C3013 C 0.4577 0.61448 0.90863 0.0
C3014 C 0.47724 0.61155 0.89878 0.0
H3015 H 0.58812 0.60737 0.87924 0.0
H3016 H 0.55504 0.60614 0.89461 0.0
H3017 H 0.5027 0.63267 0.86506 0.0
H3018 H 0.42811 0.65364 0.92459 0.0
H3019 H 0.45965 0.64809 0.90828 0.0
C3020 C 0.14211 0.82935 0.62296 0.0
C3021 C 0.14258 0.82967 0.60511 0.0
C3022 C 0.14324 0.81053 0.63184 0.0
C3023 C 0.15679 0.75444 0.62752 0.0
H3024 H 0.11872 0.74824 0.66529 0.0
C3025 C 0.15255 0.68046 0.67099 0.0
C3026 C 0.13241 0.67414 0.67556 0.0
C3027 C 0.15561 0.69922 0.66216 0.0
C3028 C 0.12941 0.74965 0.65474 0.0
H3029 H 0.14516 0.81034 0.58265 0.0
H3030 H 0.14684 0.77758 0.59812 0.0
H3031 H 0.12089 0.78131 0.65054 0.0
H3032 H 0.0997 0.68192 0.67374 0.0
H3033 H 0.10498 0.71416 0.65838 0.0
H3034 H 0.16481 0.72242 0.63155 0.0
C3035 C 0.14584 0.7919 0.60528 0.0
C3036 C 0.13085 0.76875 0.64639 0.0
C3037 C 0.14472 0.81072 0.59639 0.0
C3038 C 0.11545 0.68647 0.67062 0.0
C3039 C 0.11848 0.70506 0.66188 0.0
C3040 C 0.15539 0.73527 0.63594 0.0
C3041 C 0.14484 0.79152 0.62312 0.0
C3042 C 0.14438 0.77138 0.63255 0.0
C3043 C 0.13858 0.71194 0.65783 0.0
C3044 C 0.14142 0.73257 0.64949 0.0
H3045 H 0.14064 0.84362 0.63012 0.0
H3046 H 0.14277 0.8109 0.64558 0.0
H3047 H 0.16755 0.75597 0.61703 0.0
H3048 H 0.16591 0.67123 0.6746 0.0
H3049 H 0.17131 0.70407 0.65921 0.0
C3050 C 0.92546 0.392 0.37273 0.0
C3051 C 0.9252 0.39239 0.35488 0.0
C3052 C 0.94424 0.39352 0.38163 0.0
C3053 C 0.9866 0.38137 0.39562 0.0
H3054 H 0.03148 0.41789 0.3818 0.0
C3055 C 0.06966 0.36767 0.41862 0.0
C3056 C 0.08116 0.38474 0.4245 0.0
C3057 C 0.05099 0.37053 0.40996 0.0
C3058 C 0.01904 0.40773 0.3859 0.0
H3059 H 0.94456 0.3954 0.33244 0.0
H3060 H 0.9772 0.39801 0.34797 0.0
H3061 H 0.9977 0.42007 0.36752 0.0
H3062 H 0.08258 0.41833 0.42527 0.0
H3063 H 0.04957 0.42344 0.41001 0.0
H3064 H 0.0078 0.36892 0.41388 0.0
C3065 C 0.96288 0.39663 0.35509 0.0
C3066 C 0.99975 0.40885 0.37763 0.0
C3067 C 0.94413 0.39496 0.34618 0.0
C3068 C 0.074 0.40489 0.42089 0.0
C3069 C 0.05514 0.40779 0.41216 0.0
C3070 C 0.00584 0.38017 0.40377 0.0
C3071 C 0.96322 0.39562 0.37292 0.0
C3072 C 0.98335 0.39553 0.3823 0.0
C3073 C 0.0432 0.39057 0.40695 0.0
C3074 C 0.0224 0.39311 0.39888 0.0
H3075 H 0.91119 0.39009 0.37985 0.0
H3076 H 0.94391 0.39292 0.39537 0.0
H3077 H 0.97443 0.37074 0.39945 0.0
H3078 H 0.07491 0.35194 0.42098 0.0
H3079 H 0.0425 0.35695 0.40575 0.0
C3080 C 0.35755 0.83013 0.40059 0.0
C3081 C 0.35772 0.83042 0.41844 0.0
C3082 C 0.35594 0.8113 0.3918 0.0
C3083 C 0.36851 0.76896 0.37807 0.0
H3084 H 0.33314 0.72368 0.393 0.0
C3085 C 0.38379 0.68588 0.35645 0.0
C3086 C 0.36688 0.67425 0.35044 0.0
C3087 C 0.38062 0.70448 0.36509 0.0
C3088 C 0.34297 0.73623 0.3886 0.0
H3089 H 0.35554 0.81115 0.44101 0.0
H3090 H 0.35283 0.77847 0.4257 0.0
H3091 H 0.33041 0.75774 0.40669 0.0
H3092 H 0.3333 0.67231 0.34956 0.0
H3093 H 0.32766 0.70514 0.36483 0.0
H3094 H 0.38121 0.74756 0.36012 0.0
C3095 C 0.35383 0.79276 0.41848 0.0
C3096 C 0.34152 0.75567 0.39651 0.0
C3097 C 0.35557 0.81153 0.42726 0.0
C3098 C 0.34661 0.68101 0.35406 0.0
C3099 C 0.3434 0.69977 0.36277 0.0
C3100 C 0.37004 0.74956 0.37027 0.0
C3101 C 0.35431 0.79237 0.40066 0.0
C3102 C 0.35447 0.77219 0.39145 0.0
C3103 C 0.36043 0.71198 0.36793 0.0
C3104 C 0.35754 0.73287 0.37562 0.0
H3105 H 0.35911 0.84438 0.39339 0.0
H3106 H 0.35616 0.81153 0.37805 0.0
H3107 H 0.37885 0.78125 0.37396 0.0
H3108 H 0.3996 0.6809 0.35405 0.0
H3109 H 0.39405 0.71322 0.36929 0.0
C3110 C 0.06471 0.63475 0.10252 0.0
C3111 C 0.07706 0.61749 0.09841 0.0
C3112 C 0.04593 0.63225 0.11108 0.0
C3113 C 0.01521 0.59687 0.13792 0.0
H3114 H 0.96932 0.63022 0.12123 0.0
C3115 C 0.92099 0.61049 0.14962 0.0
C3116 C 0.92071 0.61135 0.16746 0.0
C3117 C 0.93984 0.60894 0.14082 0.0
C3118 C 0.98185 0.62059 0.12595 0.0
H3119 H 0.07988 0.58409 0.10071 0.0
H3120 H 0.04675 0.57963 0.11583 0.0
H3121 H 0.00274 0.63164 0.10688 0.0
H3122 H 0.94014 0.61081 0.19001 0.0
H3123 H 0.97284 0.60837 0.17469 0.0
H3124 H 0.99418 0.58582 0.15702 0.0
C3125 C 0.0517 0.59513 0.11235 0.0
C3126 C 1.00112 0.6216 0.11784 0.0
C3127 C 0.07063 0.59766 0.1037 0.0
C3128 C 0.93971 0.61022 0.17627 0.0
C3129 C 0.95851 0.60864 0.16748 0.0
C3130 C 0.99588 0.59591 0.1461 0.0
C3131 C 0.03893 0.6124 0.11579 0.0
C3132 C 0.01814 0.61002 0.12387 0.0
C3133 C 0.95886 0.60818 0.14964 0.0
C3134 C 0.97903 0.60796 0.14033 0.0
H3135 H 0.06936 0.65027 0.09881 0.0
H3136 H 0.03677 0.64593 0.11391 0.0
H3137 H 0.02799 0.58778 0.1429 0.0
H3138 H 0.90669 0.61122 0.1424 0.0
H3139 H 0.93951 0.60838 0.12708 0.0
C3140 C 0.15275 0.32563 0.85734 0.0
C3141 C 0.13574 0.32747 0.84624 0.0
C3142 C 0.15584 0.30723 0.86664 0.0
C3143 C 0.14698 0.25174 0.86487 0.0
H3144 H 0.14458 0.25102 0.91402 0.0
C3145 C 0.13503 0.17513 0.90147 0.0
C3146 C 0.14326 0.17294 0.91788 0.0
C3147 C 0.1362 0.19416 0.89292 0.0
C3148 C 0.14576 0.25086 0.90032 0.0
H3149 H 0.10874 0.31153 0.83612 0.0
H3150 H 0.11458 0.27943 0.8518 0.0
H3151 H 0.14384 0.28416 0.8989 0.0
H3152 H 0.15972 0.18889 0.93803 0.0
H3153 H 0.16259 0.22179 0.9229 0.0
H3154 H 0.14932 0.2187 0.86602 0.0
C3155 C 0.12535 0.2922 0.85348 0.0
C3156 C 0.14525 0.26991 0.89168 0.0
C3157 C 0.122 0.31063 0.84456 0.0
C3158 C 0.15306 0.19012 0.92544 0.0
C3159 C 0.15457 0.20907 0.91677 0.0
C3160 C 0.14791 0.23275 0.87346 0.0
C3161 C 0.14227 0.29028 0.86459 0.0
C3162 C 0.14542 0.27047 0.87388 0.0
C3163 C 0.146 0.21147 0.90041 0.0
C3164 C 0.14681 0.23193 0.89133 0.0
H3165 H 0.16355 0.33838 0.85889 0.0
H3166 H 0.169 0.30608 0.87517 0.0
H3167 H 0.14728 0.2518 0.85111 0.0
H3168 H 0.1272 0.16226 0.89534 0.0
H3169 H 0.12895 0.19534 0.88056 0.0
C3170 C 0.57842 0.39253 0.65281 0.0
C3171 C 0.57994 0.39163 0.67061 0.0
C3172 C 0.55896 0.39366 0.64486 0.0
C3173 C 0.50393 0.38059 0.65202 0.0
H3174 H 0.494 0.41537 0.61261 0.0
C3175 C 0.43193 0.40481 0.60394 0.0
C3176 C 0.42466 0.38483 0.59994 0.0
C3177 C 0.45005 0.40732 0.61367 0.0
C3178 C 0.49646 0.40574 0.62371 0.0
H3179 H 0.56208 0.39159 0.69399 0.0
H3180 H 0.52831 0.39349 0.68014 0.0
H3181 H 0.5276 0.41689 0.62714 0.0
H3182 H 0.4301 0.3519 0.60348 0.0
H3183 H 0.46136 0.35624 0.62052 0.0
H3184 H 0.47295 0.36925 0.64851 0.0
C3185 C 0.54214 0.39317 0.67231 0.0
C3186 C 0.51578 0.40644 0.63192 0.0
C3187 C 0.56155 0.39218 0.68026 0.0
C3188 C 0.43537 0.3675 0.60633 0.0
C3189 C 0.45323 0.36999 0.61617 0.0
C3190 C 0.48472 0.37977 0.64374 0.0
C3191 C 0.54057 0.39377 0.65452 0.0
C3192 C 0.5198 0.39375 0.6461 0.0
C3193 C 0.46099 0.3899 0.61978 0.0
C3194 C 0.48081 0.39217 0.62939 0.0
H3195 H 0.59224 0.39221 0.64498 0.0
H3196 H 0.5583 0.39392 0.63112 0.0
H3197 H 0.50653 0.37048 0.66281 0.0
H3198 H 0.42397 0.41844 0.59916 0.0
H3199 H 0.45556 0.42287 0.61635 0.0
C3200 C 0.12185 0.06319 0.3001 0.0
C3201 C 0.13981 0.06339 0.31019 0.0
C3202 C 0.11993 0.04894 0.28681 0.0
C3203 C 0.11596 0.01075 0.26407 0.0
H3204 H 0.1673 0.99644 0.24122 0.0
C3205 C 0.12408 0.9393 0.2204 0.0
C3206 C 0.13961 0.93949 0.20795 0.0
C3207 C 0.12166 0.95625 0.23127 0.0
C3208 C 0.15267 1.0005 0.24713 0.0
H3209 H 0.16911 0.048 0.3153 0.0
H3210 H 0.16534 0.02253 0.29287 0.0
H3211 H 0.16766 0.02241 0.26322 0.0
H3212 H 0.16336 0.95813 0.19578 0.0
H3213 H 0.15828 0.9882 0.21388 0.0
H3214 H 0.10086 0.98932 0.24737 0.0
C3215 C 0.15316 0.03395 0.29451 0.0
C3216 C 0.15298 0.01514 0.26007 0.0
C3217 C 0.15524 0.0484 0.30751 0.0
C3218 C 0.15158 0.95743 0.20559 0.0
C3219 C 0.14874 0.9746 0.21606 0.0
C3220 C 0.11557 0.99629 0.25084 0.0
C3221 C 0.1358 0.03442 0.28368 0.0
C3222 C 0.13476 0.02006 0.26901 0.0
C3223 C 0.13436 0.97392 0.2295 0.0
C3224 C 0.13403 0.99072 0.24241 0.0
H3225 H 0.10951 0.07427 0.30225 0.0
H3226 H 0.10633 0.0497 0.27873 0.0
H3227 H 0.10164 0.01418 0.27071 0.0
H3228 H 0.11439 0.92579 0.22218 0.0
H3229 H 0.11047 0.95507 0.24148 0.0
C3230 C 0.20998 0.87158 0.57151 0.0
C3231 C 0.19039 0.87502 0.5642 0.0
C3232 C 0.2273 0.86829 0.56118 0.0
C3233 C 0.2597 0.88232 0.53522 0.0
H3234 H 0.25955 0.84899 0.4942 0.0
C3235 C 0.31425 0.86711 0.47267 0.0
C3236 C 0.31619 0.88767 0.46693 0.0
C3237 C 0.30112 0.86241 0.48624 0.0
C3238 C 0.25994 0.85814 0.50573 0.0
H3239 H 0.17313 0.87642 0.5406 0.0
H3240 H 0.20329 0.87039 0.52256 0.0
H3241 H 0.23192 0.8444 0.51522 0.0
H3242 H 0.3065 0.9195 0.47092 0.0
H3243 H 0.28359 0.91132 0.49477 0.0
H3244 H 0.28713 0.89677 0.52535 0.0
C3245 C 0.20532 0.87026 0.53622 0.0
C3246 C 0.24414 0.85558 0.51768 0.0
C3247 C 0.1881 0.87383 0.54652 0.0
C3248 C 0.30511 0.90352 0.47507 0.0
C3249 C 0.29221 0.89887 0.48878 0.0
C3250 C 0.27534 0.88506 0.52318 0.0
C3251 C 0.22516 0.86806 0.54343 0.0
C3252 C 0.24362 0.86801 0.53231 0.0
C3253 C 0.29001 0.87827 0.49439 0.0
C3254 C 0.27527 0.87337 0.50815 0.0
H3255 H 0.21209 0.87236 0.58515 0.0
H3256 H 0.24245 0.86654 0.567 0.0
H3257 H 0.25954 0.89223 0.54633 0.0
H3258 H 0.32271 0.85464 0.46656 0.0
H3259 H 0.29967 0.84643 0.49038 0.0
C3260 C 0.35508 0.95057 0.79822 0.0
C3261 C 0.37068 0.93956 0.80677 0.0
C3262 C 0.36018 0.96348 0.78463 0.0
C3263 C 0.37538 0.97959 0.75037 0.0
H3264 H 0.41353 0.02491 0.75943 0.0
C3265 C 0.38692 0.04543 0.70237 0.0
C3266 C 0.38185 0.06468 0.70961 0.0
C3267 C 0.39117 0.02837 0.71277 0.0
C3268 C 0.40311 0.01215 0.75666 0.0
H3269 H 0.40373 0.93324 0.80805 0.0
H3270 H 0.41273 0.95644 0.78447 0.0
H3271 H 0.40912 0.99725 0.7805 0.0
H3272 H 0.37858 0.08171 0.73319 0.0
H3273 H 0.38626 0.05203 0.75133 0.0
H3274 H 0.36867 0.99484 0.72688 0.0
C3275 C 0.3966 0.95485 0.78819 0.0
C3276 C 0.40065 0.99634 0.76863 0.0
C3277 C 0.39146 0.94166 0.80162 0.0
C3278 C 0.38242 0.067 0.72731 0.0
C3279 C 0.38695 0.05006 0.73768 0.0
C3280 C 0.37804 0.99522 0.73831 0.0
C3281 C 0.38097 0.96578 0.77957 0.0
C3282 C 0.38622 0.98037 0.76581 0.0
C3283 C 0.39072 0.03046 0.73051 0.0
C3284 C 0.39138 0.01199 0.74161 0.0
H3285 H 0.33894 0.94905 0.80192 0.0
H3286 H 0.34791 0.97198 0.77827 0.0
H3287 H 0.36429 0.96729 0.74792 0.0
H3288 H 0.38667 0.04332 0.68872 0.0
H3289 H 0.39412 0.0134 0.70698 0.0
C3290 C 0.21096 0.13131 0.95058 0.0
C3291 C 0.19158 0.12708 0.95798 0.0
C3292 C 0.22824 0.13521 0.96085 0.0
C3293 C 0.26156 0.12281 0.98672 0.0
H3294 H 0.25956 0.15556 0.02801 0.0
C3295 C 0.31412 0.13921 0.05041 0.0
C3296 C 0.31689 0.1186 0.05579 0.0
C3297 C 0.30125 0.14368 0.03661 0.0
C3298 C 0.26049 0.14661 0.01639 0.0
H3299 H 0.17466 0.12471 0.9817 0.0
H3300 H 0.20469 0.13181 0.99958 0.0
H3301 H 0.23189 0.15908 1.0069 0.0
H3302 H 0.30896 0.08646 0.05087 0.0
H3303 H 0.28649 0.09425 0.02668 0.0
H3304 H 0.28961 0.10958 0.9966 0.0
C3305 C 0.2066 0.13213 0.98591 0.0
C3306 C 0.24465 0.14855 1.00439 0.0
C3307 C 0.18945 0.12795 0.97569 0.0
C3308 C 0.30692 0.10249 0.04702 0.0
C3309 C 0.29428 0.10693 0.0331 0.0
C3310 C 0.27727 0.1207 0.9988 0.0
C3311 C 0.22626 0.13527 0.97862 0.0
C3312 C 0.24476 0.13623 0.98968 0.0
C3313 C 0.29121 0.12757 0.02786 0.0
C3314 C 0.27653 0.13214 0.01395 0.0
H3315 H 0.21294 0.13078 0.93693 0.0
H3316 H 0.24325 0.13765 0.95495 0.0
H3317 H 0.26193 0.11301 0.97554 0.0
H3318 H 0.32174 0.15188 0.05698 0.0
H3319 H 0.29911 0.1597 0.03278 0.0
C3320 C 0.88198 0.07127 0.79432 0.0
C3321 C 0.87875 0.06651 0.81148 0.0
C3322 C 0.88504 0.05552 0.78252 0.0
C3323 C 0.89265 0.99856 0.7771 0.0
H3324 H 0.85904 0.00836 0.737 0.0
C3325 C 0.88476 0.93963 0.7216 0.0
C3326 C 0.86469 0.9374 0.71486 0.0
C3327 C 0.88893 0.95516 0.73351 0.0
C3328 C 0.86841 0.00533 0.74815 0.0
H3329 H 0.87743 0.04178 0.83009 0.0
H3330 H 0.88183 0.01393 0.8093 0.0
H3331 H 0.86326 0.0358 0.75767 0.0
H3332 H 0.83313 0.94905 0.71548 0.0
H3333 H 0.84026 0.97594 0.73637 0.0
H3334 H 0.89684 0.96758 0.76775 0.0
C3335 C 0.88251 0.02989 0.80498 0.0
C3336 C 0.87115 0.02119 0.7599 0.0
C3337 C 0.87987 0.04579 0.81688 0.0
C3338 C 0.84879 0.95063 0.72035 0.0
C3339 C 0.85291 0.96606 0.73225 0.0
C3340 C 0.88981 0.98257 0.76531 0.0
C3341 C 0.88437 0.0346 0.78758 0.0
C3342 C 0.88314 0.01799 0.77459 0.0
C3343 C 0.87306 0.96866 0.73881 0.0
C3344 C 0.87737 0.98574 0.75086 0.0
H3345 H 0.88132 0.08716 0.7899 0.0
H3346 H 0.88701 0.05972 0.7693 0.0
H3347 H 0.9021 0.99566 0.78823 0.0
H3348 H 0.89729 0.92958 0.7175 0.0
H3349 H 0.90462 0.95689 0.73827 0.0
C3350 C 0.6896 0.13739 0.55091 0.0
C3351 C 0.68692 0.11681 0.5564 0.0
C3352 C 0.70266 0.14183 0.53723 0.0
C3353 C 0.74351 0.1449 0.51716 0.0
H3354 H 0.74226 0.111 0.47647 0.0
C3355 C 0.79265 0.12953 0.45121 0.0
C3356 C 0.81213 0.12551 0.45853 0.0
C3357 C 0.77546 0.13345 0.46155 0.0
C3358 C 0.74257 0.12088 0.4876 0.0
H3359 H 0.69525 0.0847 0.55185 0.0
H3360 H 0.71803 0.09243 0.52785 0.0
H3361 H 0.71472 0.10741 0.49761 0.0
H3362 H 0.82934 0.12363 0.48214 0.0
H3363 H 0.79945 0.13077 0.50016 0.0
H3364 H 0.77192 0.15764 0.50754 0.0
C3365 C 0.71003 0.1051 0.5341 0.0
C3366 C 0.72695 0.11867 0.49974 0.0
C3367 C 0.69721 0.1007 0.5479 0.0
C3368 C 0.81446 0.12668 0.47621 0.0
C3369 C 0.79739 0.13088 0.48651 0.0
C3370 C 0.75927 0.14694 0.50511 0.0
C3371 C 0.71295 0.1257 0.52872 0.0
C3372 C 0.72762 0.13025 0.51482 0.0
C3373 C 0.77763 0.13373 0.4793 0.0
C3374 C 0.75922 0.13453 0.49046 0.0
H3375 H 0.68174 0.15006 0.55729 0.0
H3376 H 0.70468 0.15782 0.53328 0.0
H3377 H 0.74437 0.15396 0.52873 0.0
H3378 H 0.79051 0.12877 0.43759 0.0
H3379 H 0.76037 0.13568 0.45573 0.0
C3380 C 0.6157 0.06159 0.2202 0.0
C3381 C 0.63441 0.06073 0.21106 0.0
C3382 C 0.61101 0.04628 0.23215 0.0
C3383 C 0.62011 0.02131 0.26522 0.0
H3384 H 0.62139 0.96235 0.25504 0.0
C3385 C 0.61604 0.93838 0.30291 0.0
C3386 C 0.63437 0.93974 0.31251 0.0
C3387 C 0.61138 0.95355 0.29083 0.0
C3388 C 0.62067 0.97877 0.25799 0.0
H3389 H 0.66227 0.04272 0.20635 0.0
H3390 H 0.6537 0.01554 0.22687 0.0
H3391 H 0.62162 0.98769 0.23177 0.0
H3392 H 0.6616 0.95843 0.31787 0.0
H3393 H 0.65308 0.98535 0.29709 0.0
H3394 H 0.62071 0.01241 0.29146 0.0
C3395 C 0.64289 0.02823 0.22496 0.0
C3396 C 0.62087 0.99317 0.24476 0.0
C3397 C 0.64781 0.04378 0.21333 0.0
C3398 C 0.64743 0.95699 0.31053 0.0
C3399 C 0.64253 0.97239 0.29875 0.0
C3400 C 0.62036 0.00692 0.27846 0.0
C3401 C 0.62468 0.02961 0.23467 0.0
C3402 C 0.62103 0.0145 0.24832 0.0
C3403 C 0.6247 0.97056 0.28862 0.0
C3404 C 0.62108 0.98559 0.2749 0.0
H3405 H 0.60491 0.07427 0.21837 0.0
H3406 H 0.59686 0.04752 0.23953 0.0
H3407 H 0.62041 0.03774 0.26818 0.0
H3408 H 0.6055 0.92544 0.3045 0.0
H3409 H 0.59753 0.95194 0.28313 0.0
C3410 C 0.68926 0.86139 0.97384 0.0
C3411 C 0.68692 0.88199 0.9683 0.0
C3412 C 0.70202 0.85683 0.98769 0.0
C3413 C 0.74268 0.85359 1.00814 0.0
H3414 H 0.74114 0.88773 0.04869 0.0
C3415 C 0.81351 0.87325 0.04865 0.0
C3416 C 0.81131 0.87477 0.06632 0.0
C3417 C 0.79643 0.86851 0.03851 0.0
C3418 C 0.74152 0.87777 0.03762 0.0
H3419 H 0.69551 0.91402 0.97293 0.0
H3420 H 0.71775 0.90608 0.99723 0.0
H3421 H 0.71364 0.89105 0.02748 0.0
H3422 H 0.78996 0.87155 0.08743 0.0
H3423 H 0.75978 0.8637 0.06956 0.0
H3424 H 0.77116 0.8411 0.01786 0.0
C3425 C 0.70972 0.89348 0.99089 0.0
C3426 C 0.72592 0.87981 0.02544 0.0
C3427 C 0.69723 0.898 0.97691 0.0
C3428 C 0.79198 0.87054 0.0738 0.0
C3429 C 0.77477 0.86607 0.06362 0.0
C3430 C 0.75842 0.85171 0.02024 0.0
C3431 C 0.71231 0.87286 0.99633 0.0
C3432 C 0.72674 0.86821 1.01038 0.0
C3433 C 0.77679 0.86546 0.04586 0.0
C3434 C 0.75829 0.86424 0.03482 0.0
H3435 H 0.68138 0.84881 0.96737 0.0
H3436 H 0.70381 0.84082 0.99168 0.0
H3437 H 0.74364 0.84452 0.99659 0.0
H3438 H 0.82827 0.87645 0.04259 0.0
H3439 H 0.79837 0.86839 0.02485 0.0
C3440 C 0.64657 0.5549 0.79725 0.0
C3441 C 0.6306 0.56517 0.80593 0.0
C3442 C 0.64194 0.54226 0.7834 0.0
C3443 C 0.62741 0.52627 0.7489 0.0
H3444 H 0.59137 0.4792 0.75779 0.0
C3445 C 0.62504 0.43858 0.72633 0.0
C3446 C 0.62514 0.44059 0.70859 0.0
C3447 C 0.61977 0.45542 0.73652 0.0
C3448 C 0.60118 0.49246 0.75505 0.0
H3449 H 0.59738 0.5705 0.80715 0.0
H3450 H 0.58921 0.54771 0.78311 0.0
H3451 H 0.59433 0.50699 0.77886 0.0
H3452 H 0.61899 0.46133 0.68749 0.0
H3453 H 0.61033 0.49117 0.70546 0.0
H3454 H 0.635 0.51136 0.72546 0.0
C3455 C 0.60526 0.5497 0.78692 0.0
C3456 C 0.60281 0.50834 0.76703 0.0
C3457 C 0.60993 0.56264 0.80062 0.0
C3458 C 0.61908 0.45946 0.70116 0.0
C3459 C 0.61413 0.47647 0.71139 0.0
C3460 C 0.62557 0.51056 0.73683 0.0
C3461 C 0.62125 0.53948 0.7782 0.0
C3462 C 0.61654 0.52493 0.7643 0.0
C3463 C 0.61481 0.47466 0.72916 0.0
C3464 C 0.61304 0.49316 0.7401 0.0
H3465 H 0.66264 0.55677 0.80106 0.0
H3466 H 0.6545 0.53429 0.77696 0.0
H3467 H 0.63798 0.53904 0.74653 0.0
H3468 H 0.62972 0.4242 0.73235 0.0
H3469 H 0.6207 0.45371 0.75019 0.0
C3470 C 0.79431 0.37381 0.95034 0.0
C3471 C 0.81359 0.37851 0.95773 0.0
C3472 C 0.77714 0.36949 0.96061 0.0
C3473 C 0.76116 0.35568 1.00416 0.0
H3474 H 0.71528 0.39362 0.99644 0.0
C3475 C 0.69865 0.40063 0.04703 0.0
C3476 C 0.68903 0.3844 0.05592 0.0
C3477 C 0.71113 0.39634 0.033 0.0
C3478 C 0.72788 0.38277 0.99862 0.0
H3479 H 0.83047 0.38135 0.98144 0.0
H3480 H 0.80064 0.37351 0.99934 0.0
H3481 H 0.74292 0.39081 0.97531 0.0
H3482 H 0.68463 0.35107 0.05723 0.0
H3483 H 0.70702 0.34351 0.03284 0.0
H3484 H 0.74656 0.34835 0.02784 0.0
C3485 C 0.79872 0.37314 0.98567 0.0
C3486 C 0.74357 0.38103 0.98649 0.0
C3487 C 0.81576 0.37775 0.97544 0.0
C3488 C 0.69198 0.36382 0.05056 0.0
C3489 C 0.70472 0.3595 0.03665 0.0
C3490 C 0.74535 0.35726 0.0162 0.0
C3491 C 0.77915 0.36948 0.97838 0.0
C3492 C 0.7607 0.36801 0.98944 0.0
C3493 C 0.7144 0.37574 0.02778 0.0
C3494 C 0.72898 0.37137 0.01379 0.0
H3495 H 0.79231 0.37426 0.93669 0.0
H3496 H 0.7622 0.36667 0.95472 0.0
H3497 H 0.77418 0.34546 1.00665 0.0
H3498 H 0.69645 0.41663 0.05086 0.0
H3499 H 0.71866 0.40911 0.02649 0.0
C3500 C 0.85059 0.54268 0.20479 0.0
C3501 C 0.8623 0.56075 0.20737 0.0
C3502 C 0.85373 0.5253 0.21499 0.0
C3503 C 0.85026 0.49879 0.24582 0.0
H3504 H 0.90161 0.48509 0.269 0.0
C3505 C 0.84874 0.45128 0.30652 0.0
C3506 C 0.86415 0.43627 0.30917 0.0
C3507 C 0.85055 0.46548 0.2933 0.0
C3508 C 0.88721 0.48852 0.26246 0.0
H3509 H 0.88734 0.5745 0.22178 0.0
H3510 H 0.89189 0.54475 0.24057 0.0
H3511 H 0.90199 0.51031 0.24585 0.0
H3512 H 0.89408 0.42492 0.30075 0.0
H3513 H 0.89685 0.4492 0.27693 0.0
H3514 H 0.83556 0.47664 0.26191 0.0
C3515 C 0.88066 0.54366 0.23037 0.0
C3516 C 0.88737 0.50318 0.24934 0.0
C3517 C 0.8779 0.56086 0.21978 0.0
C3518 C 0.8818 0.43611 0.29871 0.0
C3519 C 0.88347 0.45015 0.28522 0.0
C3520 C 0.85017 0.48399 0.25868 0.0
C3521 C 0.8682 0.52585 0.22838 0.0
C3522 C 0.8688 0.50878 0.24109 0.0
C3523 C 0.86765 0.46477 0.28221 0.0
C3524 C 0.8685 0.47909 0.26748 0.0
H3525 H 0.83874 0.54206 0.19502 0.0
H3526 H 0.84436 0.51164 0.21266 0.0
H3527 H 0.83556 0.50284 0.24003 0.0
H3528 H 0.8351 0.45193 0.31456 0.0
H3529 H 0.8384 0.47696 0.2917 0.0
C3530 C 0.71006 0.63136 0.45011 0.0
C3531 C 0.69057 0.62737 0.45741 0.0
C3532 C 0.72725 0.63524 0.46047 0.0
C3533 C 0.75993 0.62234 0.48666 0.0
H3534 H 0.75816 0.65544 0.52778 0.0
C3535 C 0.81233 0.63799 0.55045 0.0
C3536 C 0.8146 0.61737 0.55595 0.0
C3537 C 0.79954 0.64264 0.53664 0.0
C3538 C 0.75902 0.64639 0.51621 0.0
H3539 H 0.67336 0.62547 0.48101 0.0
H3540 H 0.70322 0.63259 0.49905 0.0
H3541 H 0.73088 0.6595 0.50639 0.0
H3542 H 0.80581 0.5854 0.55133 0.0
H3543 H 0.78348 0.5935 0.5271 0.0
H3544 H 0.78747 0.60847 0.49688 0.0
C3545 C 0.70529 0.63272 0.4854 0.0
C3546 C 0.74342 0.64865 0.50404 0.0
C3547 C 0.68823 0.62853 0.47509 0.0
C3548 C 0.80416 0.60143 0.54736 0.0
C3549 C 0.7916 0.60604 0.53343 0.0
C3550 C 0.77539 0.61991 0.49891 0.0
C3551 C 0.72505 0.63553 0.47822 0.0
C3552 C 0.74344 0.63622 0.4894 0.0
C3553 C 0.78911 0.62669 0.52802 0.0
C3554 C 0.77471 0.63149 0.51399 0.0
H3555 H 0.71219 0.63059 0.43648 0.0
H3556 H 0.74235 0.63743 0.45467 0.0
H3557 H 0.7602 0.61245 0.47554 0.0
H3558 H 0.82031 0.65052 0.5569 0.0
H3559 H 0.79784 0.65866 0.53267 0.0
C3560 C 0.3855 0.57316 0.29283 0.0
C3561 C 0.38134 0.56735 0.30964 0.0
C3562 C 0.39015 0.5582 0.2807 0.0
C3563 C 0.39909 0.50151 0.27383 0.0
H3564 H 0.3673 0.5127 0.23298 0.0
C3565 C 0.39014 0.44238 0.21867 0.0
C3566 C 0.36996 0.4407 0.21203 0.0
C3567 C 0.39497 0.45817 0.23016 0.0
C3568 C 0.37622 0.50931 0.24432 0.0
H3569 H 0.37997 0.54164 0.32733 0.0
H3570 H 0.38686 0.51515 0.30588 0.0
H3571 H 0.37104 0.53959 0.25415 0.0
H3572 H 0.33894 0.45373 0.21225 0.0
H3573 H 0.34721 0.48108 0.23243 0.0
H3574 H 0.40301 0.47062 0.26424 0.0
C3575 C 0.38721 0.53133 0.30212 0.0
C3576 C 0.3787 0.52486 0.25637 0.0
C3577 C 0.3831 0.54644 0.3144 0.0
C3578 C 0.35466 0.45485 0.21708 0.0
C3579 C 0.35944 0.47055 0.22856 0.0
C3580 C 0.39644 0.48581 0.26176 0.0
C3581 C 0.38999 0.53702 0.285 0.0
C3582 C 0.38985 0.52108 0.27142 0.0
C3583 C 0.37967 0.47248 0.23512 0.0
C3584 C 0.38453 0.48947 0.2471 0.0
H3585 H 0.38431 0.5892 0.28888 0.0
H3586 H 0.39282 0.5632 0.26774 0.0
H3587 H 0.40796 0.49817 0.28519 0.0
H3588 H 0.40221 0.43161 0.21489 0.0
H3589 H 0.4107 0.45937 0.23494 0.0
C3590 C 0.30227 0.60513 0.9749 0.0
C3591 C 0.31268 0.62106 0.96627 0.0
C3592 C 0.28922 0.60983 0.98848 0.0
C3593 C 0.27276 0.62437 0.0227 0.0
H3594 H 0.22632 0.66129 0.01399 0.0
C3595 C 0.18524 0.62881 0.04595 0.0
C3596 C 0.18767 0.62801 0.06364 0.0
C3597 C 0.20202 0.63389 0.0356 0.0
C3598 C 0.23939 0.65121 0.01667 0.0
H3599 H 0.31772 0.6543 0.96479 0.0
H3600 H 0.29432 0.66258 0.9884 0.0
H3601 H 0.25395 0.65784 0.99281 0.0
H3602 H 0.20901 0.63297 0.08454 0.0
H3603 H 0.23867 0.64143 0.06631 0.0
H3604 H 0.25785 0.61701 0.04618 0.0
C3605 C 0.29648 0.64651 0.98474 0.0
C3606 C 0.25518 0.6493 1.00463 0.0
C3607 C 0.30979 0.64178 0.9713 0.0
C3608 C 0.20684 0.63338 0.0709 0.0
C3609 C 0.22374 0.63821 0.06051 0.0
C3610 C 0.25714 0.62647 0.03482 0.0
C3611 C 0.28619 0.63054 0.99347 0.0
C3612 C 0.27157 0.6353 1.00731 0.0
C3613 C 0.22157 0.63802 0.04277 0.0
C3614 C 0.23996 0.63934 0.03164 0.0
H3615 H 0.30437 0.58904 0.97128 0.0
H3616 H 0.28121 0.59729 0.99491 0.0
H3617 H 0.28539 0.61362 0.02506 0.0
H3618 H 0.17058 0.62475 0.04007 0.0
H3619 H 0.19999 0.63339 0.02195 0.0
C3620 C 0.12458 0.43781 0.79619 0.0
C3621 C 0.12529 0.4398 0.81391 0.0
C3622 C 0.12024 0.455 0.78603 0.0
C3623 C 0.12923 0.50994 0.78572 0.0
H3624 H 0.09672 0.50856 0.74424 0.0
C3625 C 0.11302 0.56413 0.72299 0.0
C3626 C 0.13363 0.56677 0.71755 0.0
C3627 C 0.10851 0.55083 0.73652 0.0
C3628 C 0.1056 0.50929 0.75591 0.0
H3629 H 0.12107 0.46091 0.83506 0.0
H3630 H 0.11396 0.49126 0.81718 0.0
H3631 H 0.0932 0.48047 0.76501 0.0
H3632 H 0.1657 0.55819 0.72206 0.0
H3633 H 0.15784 0.53507 0.74581 0.0
H3634 H 0.14244 0.53818 0.7762 0.0
C3635 C 0.11664 0.47635 0.8112 0.0
C3636 C 0.10366 0.49323 0.76772 0.0
C3637 C 0.12068 0.45903 0.82139 0.0
C3638 C 0.14968 0.55627 0.72597 0.0
C3639 C 0.14521 0.54324 0.73963 0.0
C3640 C 0.13136 0.52585 0.77381 0.0
C3641 C 0.1168 0.47454 0.79343 0.0
C3642 C 0.11587 0.49316 0.7825 0.0
C3643 C 0.12458 0.5403 0.74493 0.0
C3644 C 0.11998 0.52534 0.75862 0.0
H3645 H 0.1281 0.42314 0.79012 0.0
H3646 H 0.12071 0.45324 0.77236 0.0
H3647 H 0.13895 0.51016 0.79695 0.0
H3648 H 0.1004 0.57216 0.71668 0.0
H3649 H 0.0925 0.54879 0.74041 0.0
C3650 C 0.19112 0.36459 0.47167 0.0
C3651 C 0.18845 0.38527 0.46643 0.0
C3652 C 0.20451 0.35986 0.4851 0.0
C3653 C 0.24596 0.35655 0.50462 0.0
H3654 H 0.24479 0.38931 0.54593 0.0
C3655 C 0.29512 0.37054 0.57084 0.0
C3656 C 0.31459 0.37488 0.56367 0.0
C3657 C 0.27801 0.36669 0.56039 0.0
C3658 C 0.2451 0.37975 0.53462 0.0
H3659 H 0.19709 0.41725 0.47119 0.0
H3660 H 0.22034 0.40902 0.49479 0.0
H3661 H 0.21707 0.39328 0.525 0.0
H3662 H 0.33192 0.37727 0.54016 0.0
H3663 H 0.30214 0.3703 0.52191 0.0
H3664 H 0.27457 0.34377 0.51388 0.0
C3665 C 0.21214 0.39649 0.48852 0.0
C3666 C 0.22936 0.38217 0.52261 0.0
C3667 C 0.19903 0.40118 0.47495 0.0
C3668 C 0.31703 0.37401 0.54598 0.0
C3669 C 0.30002 0.3699 0.53556 0.0
C3670 C 0.26186 0.35431 0.51655 0.0
C3671 C 0.21509 0.3758 0.49363 0.0
C3672 C 0.22997 0.37099 0.50733 0.0
C3673 C 0.28024 0.36682 0.54265 0.0
C3674 C 0.26182 0.36629 0.53145 0.0
H3675 H 0.18304 0.35207 0.46529 0.0
H3676 H 0.20654 0.3438 0.48885 0.0
H3677 H 0.24677 0.34781 0.49289 0.0
H3678 H 0.2929 0.37103 0.58447 0.0
H3679 H 0.26292 0.36424 0.56614 0.0
C3680 C 0.13502 0.1509 0.07356 0.0
C3681 C 0.13008 0.13378 0.06322 0.0
C3682 C 0.13498 0.14914 0.09126 0.0
C3683 C 0.13655 0.11162 0.12701 0.0
H3684 H 0.11019 0.15652 0.15172 0.0
C3685 C 0.13809 0.11867 0.20092 0.0
C3686 C 0.11971 0.1255 0.20884 0.0
C3687 C 0.13987 0.11866 0.18315 0.0
C3688 C 0.11751 0.14378 0.14504 0.0
H3689 H 0.1218 0.10113 0.0636 0.0
H3690 H 0.12189 0.09803 0.09454 0.0
H3691 H 0.11266 0.15828 0.12092 0.0
H3692 H 0.08843 0.13667 0.20407 0.0
H3693 H 0.0916 0.13679 0.1733 0.0
H3694 H 0.14115 0.09703 0.15126 0.0
C3695 C 0.12587 0.11283 0.08888 0.0
C3696 C 0.11914 0.1449 0.12736 0.0
C3697 C 0.12584 0.11462 0.07111 0.0
C3698 C 0.10302 0.1318 0.1985 0.0
C3699 C 0.10481 0.13185 0.1808 0.0
C3700 C 0.13503 0.11056 0.14478 0.0
C3701 C 0.13009 0.13018 0.09918 0.0
C3702 C 0.12865 0.12885 0.11808 0.0
C3703 C 0.12332 0.12551 0.17288 0.0
C3704 C 0.12538 0.12659 0.15401 0.0
H3705 H 0.13885 0.16579 0.06798 0.0
H3706 H 0.13874 0.16271 0.09878 0.0
H3707 H 0.14409 0.09905 0.12029 0.0
H3708 H 0.15132 0.11385 0.20845 0.0
H3709 H 0.1544 0.11382 0.17749 0.0
C3710 C 0.12952 0.88629 0.4519 0.0
C3711 C 0.12644 0.86696 0.45987 0.0
C3712 C 0.13069 0.88777 0.43415 0.0
C3713 C 0.13988 0.85615 0.39529 0.0
H3714 H 0.11116 0.90104 0.37236 0.0
C3715 C 0.12501 0.8552 0.32286 0.0
C3716 C 0.12623 0.87403 0.31383 0.0
C3717 C 0.12619 0.85492 0.34062 0.0
C3718 C 0.11953 0.88855 0.37853 0.0
H3719 H 0.12282 0.83395 0.45526 0.0
H3720 H 0.12447 0.83656 0.42448 0.0
H3721 H 0.11135 0.89962 0.40331 0.0
H3722 H 0.13008 0.90731 0.31653 0.0
H3723 H 0.13227 0.90681 0.34748 0.0
H3724 H 0.14797 0.84499 0.37056 0.0
C3725 C 0.12612 0.85061 0.43191 0.0
C3726 C 0.11963 0.88773 0.39633 0.0
C3727 C 0.12491 0.84914 0.44961 0.0
C3728 C 0.12882 0.89255 0.32306 0.0
C3729 C 0.13004 0.89226 0.34084 0.0
C3730 C 0.1398 0.85697 0.37752 0.0
C3731 C 0.12893 0.86994 0.4239 0.0
C3732 C 0.12965 0.87141 0.40496 0.0
C3733 C 0.12866 0.87344 0.34988 0.0
C3734 C 0.12946 0.87307 0.36887 0.0
H3735 H 0.13063 0.90037 0.45937 0.0
H3736 H 0.13308 0.9029 0.42846 0.0
H3737 H 0.14809 0.84355 0.40147 0.0
H3738 H 0.12262 0.84067 0.31624 0.0
H3739 H 0.12467 0.84016 0.3471 0.0
C3740 C 0.39261 0.89381 0.6993 0.0
C3741 C 0.38126 0.8796 0.7092 0.0
C3742 C 0.39077 0.89389 0.68158 0.0
C3743 C 0.37435 0.86028 0.64568 0.0
H3744 H 0.37694 0.91159 0.61996 0.0
C3745 C 0.36128 0.8624 0.57303 0.0
C3746 C 0.37527 0.87445 0.56347 0.0
C3747 C 0.36091 0.86375 0.59077 0.0
C3748 C 0.37634 0.89711 0.62696 0.0
H3749 H 0.35846 0.85486 0.70821 0.0
H3750 H 0.355 0.85517 0.67738 0.0
H3751 H 0.37804 0.9127 0.65093 0.0
H3752 H 0.39939 0.89786 0.56511 0.0
H3753 H 0.39882 0.90014 0.59606 0.0
H3754 H 0.37261 0.84472 0.6217 0.0
C3755 C 0.36574 0.86594 0.68325 0.0
C3756 C 0.37701 0.89773 0.64473 0.0
C3757 C 0.36767 0.86579 0.70096 0.0
C3758 C 0.38856 0.88822 0.57209 0.0
C3759 C 0.3881 0.88967 0.58982 0.0
C3760 C 0.37357 0.85968 0.62793 0.0
C3761 C 0.37743 0.87984 0.67329 0.0
C3762 C 0.37612 0.87931 0.65434 0.0
C3763 C 0.37443 0.87729 0.5994 0.0
C3764 C 0.37465 0.87807 0.61833 0.0
H3765 H 0.40343 0.90447 0.70521 0.0
H3766 H 0.40025 0.90461 0.67436 0.0
H3767 H 0.37402 0.84574 0.65258 0.0
H3768 H 0.35095 0.85151 0.56683 0.0
H3769 H 0.35004 0.85415 0.59773 0.0
C3770 C 0.39844 0.1209 0.8248 0.0
C3771 C 0.38172 0.12774 0.81473 0.0
C3772 C 0.3969 0.12059 0.84253 0.0
C3773 C 0.3672 0.14383 0.87812 0.0
H3774 H 0.393 0.09985 0.90435 0.0
C3775 C 0.35884 0.13865 0.9513 0.0
C3776 C 0.377 0.13403 0.9605 0.0
C3777 C 0.35842 0.13678 0.93358 0.0
C3778 C 0.38584 0.11234 0.89722 0.0
H3779 H 0.35001 0.13908 0.81555 0.0
H3780 H 0.34729 0.13845 0.84644 0.0
H3781 H 0.394 0.09855 0.87341 0.0
H3782 H 0.40876 0.12316 0.95824 0.0
H3783 H 0.40811 0.12009 0.92739 0.0
H3784 H 0.35912 0.15766 0.90196 0.0
C3785 C 0.36176 0.13367 0.84063 0.0
C3786 C 0.38643 0.11161 0.87946 0.0
C3787 C 0.36331 0.134 0.82289 0.0
C3788 C 0.39458 0.12707 0.95155 0.0
C3789 C 0.39413 0.1251 0.93386 0.0
C3790 C 0.36656 0.14453 0.89589 0.0
C3791 C 0.37859 0.1271 0.85071 0.0
C3792 C 0.37726 0.12743 0.86965 0.0
C3793 C 0.37611 0.13011 0.92461 0.0
C3794 C 0.37601 0.12888 0.90568 0.0
H3795 H 0.41298 0.11629 0.819 0.0
H3796 H 0.41031 0.11576 0.84984 0.0
H3797 H 0.36024 0.15647 0.87104 0.0
H3798 H 0.34506 0.14421 0.95776 0.0
H3799 H 0.34421 0.14056 0.92689 0.0
C3800 C 0.86631 0.88203 0.82336 0.0
C3801 C 0.88239 0.87131 0.81499 0.0
C3802 C 0.86475 0.88162 0.84113 0.0
C3803 C 0.88156 0.85114 0.87871 0.0
H3804 H 0.86869 0.90118 0.90394 0.0
C3805 C 0.89265 0.85567 0.95123 0.0
C3806 C 0.87801 0.86668 0.96097 0.0
C3807 C 0.89211 0.85632 0.93349 0.0
C3808 C 0.87202 0.88699 0.8971 0.0
H3809 H 0.90981 0.85231 0.81897 0.0
H3810 H 0.907 0.8515 0.84975 0.0
H3811 H 0.86963 0.90222 0.87294 0.0
H3812 H 0.85127 0.88709 0.95948 0.0
H3813 H 0.85007 0.88791 0.92846 0.0
H3814 H 0.88398 0.83588 0.90276 0.0
C3815 C 0.89534 0.8599 0.84259 0.0
C3816 C 0.87257 0.8876 0.8793 0.0
C3817 C 0.89694 0.86035 0.82489 0.0
C3818 C 0.86271 0.8783 0.95242 0.0
C3819 C 0.86216 0.87895 0.93461 0.0
C3820 C 0.88096 0.85052 0.89646 0.0
C3821 C 0.8792 0.87045 0.85097 0.0
C3822 C 0.87759 0.86972 0.86988 0.0
C3823 C 0.87685 0.86793 0.92491 0.0
C3824 C 0.87643 0.86848 0.90593 0.0
H3825 H 0.8547 0.89046 0.81617 0.0
H3826 H 0.85201 0.88976 0.84713 0.0
H3827 H 0.88505 0.83697 0.87188 0.0
H3828 H 0.90449 0.84632 0.95732 0.0
H3829 H 0.90385 0.84785 0.9265 0.0
C3830 C 0.90252 0.14141 0.69984 0.0
C3831 C 0.88565 0.1354 0.7101 0.0
C3832 C 0.90103 0.14094 0.68213 0.0
C3833 C 0.87149 0.11803 0.64636 0.0
H3834 H 0.89526 0.16399 0.62116 0.0
C3835 C 0.86232 0.12677 0.57308 0.0
C3836 C 0.87975 0.13392 0.56399 0.0
C3837 C 0.86224 0.12675 0.5909 0.0
C3838 C 0.88874 0.1509 0.62795 0.0
H3839 H 0.854 0.12388 0.70954 0.0
H3840 H 0.85146 0.12289 0.67856 0.0
H3841 H 0.89663 0.16409 0.65204 0.0
H3842 H 0.91066 0.14692 0.56673 0.0
H3843 H 0.91072 0.14643 0.59758 0.0
H3844 H 0.86375 0.10478 0.6222 0.0
C3845 C 0.86591 0.1279 0.68431 0.0
C3846 C 0.88952 0.15096 0.6457 0.0
C3847 C 0.86737 0.12844 0.70209 0.0
C3848 C 0.89706 0.14103 0.57323 0.0
C3849 C 0.89698 0.14102 0.59099 0.0
C3850 C 0.87076 0.11794 0.62855 0.0
C3851 C 0.88266 0.13435 0.6741 0.0
C3852 C 0.88108 0.13446 0.65517 0.0
C3853 C 0.87955 0.13397 0.6001 0.0
C3854 C 0.87956 0.13429 0.6191 0.0
H3855 H 0.91703 0.14638 0.70549 0.0
H3856 H 0.91441 0.14558 0.6747 0.0
H3857 H 0.865 0.10497 0.65322 0.0
H3858 H 0.84876 0.12103 0.56642 0.0
H3859 H 0.84848 0.12136 0.59746 0.0
C3860 C 0.60713 0.12756 0.45089 0.0
C3861 C 0.62555 0.13113 0.46006 0.0
C3862 C 0.60751 0.12526 0.43322 0.0
C3863 C 0.63925 0.13775 0.39534 0.0
H3864 H 0.60274 0.09827 0.37319 0.0
C3865 C 0.64034 0.1244 0.32234 0.0
C3866 C 0.62095 0.12218 0.31425 0.0
C3867 C 0.64181 0.12451 0.34011 0.0
C3868 C 0.6129 0.10952 0.37915 0.0
H3869 H 0.6589 0.1349 0.45769 0.0
H3870 H 0.65961 0.13059 0.42688 0.0
H3871 H 0.60374 0.09997 0.40409 0.0
H3872 H 0.58787 0.11874 0.31873 0.0
H3873 H 0.59046 0.11882 0.34954 0.0
H3874 H 0.64827 0.14741 0.37036 0.0
C3875 C 0.64481 0.12977 0.43337 0.0
C3876 C 0.61348 0.11049 0.3969 0.0
C3877 C 0.64443 0.13201 0.45108 0.0
C3878 C 0.60312 0.12003 0.32444 0.0
C3879 C 0.6046 0.12011 0.34217 0.0
C3880 C 0.63867 0.13677 0.37756 0.0
C3881 C 0.62633 0.12648 0.42419 0.0
C3882 C 0.62651 0.12475 0.40526 0.0
C3883 C 0.62395 0.12237 0.35027 0.0
C3884 C 0.62533 0.12278 0.36922 0.0
H3885 H 0.59233 0.12655 0.45738 0.0
H3886 H 0.59294 0.12295 0.42661 0.0
H3887 H 0.64927 0.14912 0.4013 0.0
H3888 H 0.65444 0.12583 0.31494 0.0
H3889 H 0.65701 0.12603 0.34588 0.0
C3890 C 0.60938 0.87415 0.07328 0.0
C3891 C 0.62751 0.86969 0.06401 0.0
C3892 C 0.61013 0.8768 0.0909 0.0
C3893 C 0.64171 0.86351 0.12857 0.0
H3894 H 0.60719 0.9048 0.15063 0.0
C3895 C 0.64331 0.87659 0.20152 0.0
C3896 C 0.62399 0.8795 0.20953 0.0
C3897 C 0.64488 0.87666 0.18376 0.0
C3898 C 0.6168 0.89306 0.14469 0.0
H3899 H 0.66074 0.86478 0.06608 0.0
H3900 H 0.66209 0.86966 0.09684 0.0
H3901 H 0.60798 0.90287 0.11973 0.0
H3902 H 0.59112 0.88451 0.20497 0.0
H3903 H 0.59387 0.88473 0.17418 0.0
H3904 H 0.65034 0.85355 0.15356 0.0
C3905 C 0.64724 0.87091 0.09046 0.0
C3906 C 0.61726 0.89196 0.12695 0.0
C3907 C 0.6465 0.86833 0.0728 0.0
C3908 C 0.60633 0.88264 0.19931 0.0
C3909 C 0.6079 0.88274 0.1816 0.0
C3910 C 0.64125 0.86461 0.14633 0.0
C3911 C 0.62903 0.87505 0.09976 0.0
C3912 C 0.62953 0.87702 0.11864 0.0
C3913 C 0.62718 0.87969 0.17356 0.0
C3914 C 0.6286 0.87925 0.15464 0.0
H3915 H 0.59453 0.87554 0.06692 0.0
H3916 H 0.59576 0.87977 0.09762 0.0
H3917 H 0.65114 0.85164 0.12263 0.0
H3918 H 0.65729 0.8744 0.20896 0.0
H3919 H 0.66002 0.87453 0.17803 0.0
C3920 C 0.60864 0.61111 0.69843 0.0
C3921 C 0.61973 0.62537 0.70848 0.0
C3922 C 0.61064 0.61121 0.68072 0.0
C3923 C 0.62684 0.6453 0.645 0.0
H3924 H 0.62548 0.59408 0.61917 0.0
C3925 C 0.63999 0.64396 0.57227 0.0
C3926 C 0.62655 0.63135 0.56266 0.0
C3927 C 0.64034 0.6426 0.59002 0.0
C3928 C 0.62572 0.60854 0.62618 0.0
H3929 H 0.64221 0.65042 0.70772 0.0
H3930 H 0.64586 0.65047 0.67691 0.0
H3931 H 0.62408 0.5928 0.65011 0.0
H3932 H 0.60342 0.60695 0.56428 0.0
H3933 H 0.60388 0.60473 0.5952 0.0
H3934 H 0.62843 0.66103 0.62107 0.0
C3935 C 0.63524 0.63949 0.68266 0.0
C3936 C 0.62489 0.60781 0.64395 0.0
C3937 C 0.63318 0.63944 0.70037 0.0
C3938 C 0.6138 0.61705 0.57127 0.0
C3939 C 0.61422 0.61563 0.58901 0.0
C3940 C 0.62773 0.64601 0.62724 0.0
C3941 C 0.62384 0.62552 0.67256 0.0
C3942 C 0.62533 0.62619 0.65362 0.0
C3943 C 0.62734 0.62853 0.59864 0.0
C3944 C 0.62708 0.62766 0.61759 0.0
H3945 H 0.59793 0.60025 0.70421 0.0
H3946 H 0.60137 0.60042 0.67339 0.0
H3947 H 0.62684 0.6598 0.65194 0.0
H3948 H 0.64989 0.65527 0.56609 0.0
H3949 H 0.65081 0.65261 0.59701 0.0
C3950 C 0.64525 0.37549 0.82327 0.0
C3951 C 0.62613 0.37931 0.81517 0.0
C3952 C 0.64675 0.37561 0.84103 0.0
C3953 C 0.61936 0.39341 0.88001 0.0
H3954 H 0.65203 0.35067 0.90217 0.0
C3955 C 0.61187 0.37527 0.95164 0.0
C3956 C 0.62993 0.37017 0.96081 0.0
C3957 C 0.61249 0.37777 0.934 0.0
C3958 C 0.64307 0.3629 0.89621 0.0
H3959 H 0.59356 0.38609 0.81956 0.0
H3960 H 0.59619 0.38635 0.85038 0.0
H3961 H 0.65114 0.35246 0.87125 0.0
H3962 H 0.6629 0.36393 0.95851 0.0
H3963 H 0.66405 0.36852 0.92771 0.0
H3964 H 0.61108 0.40368 0.90496 0.0
C3965 C 0.61013 0.3836 0.84303 0.0
C3966 C 0.64256 0.36393 0.87844 0.0
C3967 C 0.60863 0.38346 0.8253 0.0
C3968 C 0.64873 0.36799 0.95188 0.0
C3969 C 0.64934 0.3704 0.93419 0.0
C3970 C 0.61985 0.39236 0.89776 0.0
C3971 C 0.62918 0.37957 0.85115 0.0
C3972 C 0.63054 0.37908 0.87009 0.0
C3973 C 0.63119 0.37519 0.92501 0.0
C3974 C 0.63155 0.37698 0.9061 0.0
H3975 H 0.65913 0.37251 0.81589 0.0
H3976 H 0.66175 0.37275 0.84681 0.0
H3977 H 0.61024 0.40552 0.87405 0.0
H3978 H 0.59716 0.3773 0.95812 0.0
H3979 H 0.59817 0.38125 0.92737 0.0
C3980 C 0.88251 0.38922 0.07175 0.0
C3981 C 0.87368 0.37203 0.06339 0.0
C3982 C 0.88241 0.39046 0.08954 0.0
C3983 C 0.8794 0.35674 0.12746 0.0
H3984 H 0.87066 0.40825 0.1519 0.0
C3985 C 0.89781 0.36395 0.19884 0.0
C3986 C 0.88351 0.37457 0.20919 0.0
C3987 C 0.89604 0.36445 0.18114 0.0
C3988 C 0.873 0.39371 0.14527 0.0
H3989 H 0.8568 0.34326 0.0673 0.0
H3990 H 0.85675 0.34538 0.09816 0.0
H3991 H 0.86779 0.40775 0.12091 0.0
H3992 H 0.85622 0.39433 0.20881 0.0
H3993 H 0.85323 0.3953 0.17786 0.0
H3994 H 0.88449 0.34263 0.15171 0.0
C3995 C 0.86413 0.35771 0.09101 0.0
C3996 C 0.87156 0.39347 0.12749 0.0
C3997 C 0.86417 0.3565 0.07327 0.0
C3998 C 0.86762 0.3861 0.20128 0.0
C3999 C 0.8659 0.38665 0.18352 0.0
C4000 C 0.88096 0.35701 0.14517 0.0
C4001 C 0.87353 0.37453 0.09941 0.0
C4002 C 0.87474 0.37496 0.11835 0.0
C4003 C 0.87998 0.37565 0.17322 0.0
C4004 C 0.87786 0.37549 0.15433 0.0
H4005 H 0.89015 0.40138 0.0646 0.0
H4006 H 0.88995 0.40356 0.09557 0.0
H4007 H 0.8822 0.34225 0.12086 0.0
H4008 H 0.91055 0.35533 0.2044 0.0
H4009 H 0.90743 0.35615 0.17363 0.0
C4010 C 0.89751 0.62141 0.3238 0.0
C4011 C 0.87939 0.62046 0.31381 0.0
C4012 C 0.89635 0.62125 0.34154 0.0
C4013 C 0.86057 0.6318 0.37736 0.0
H4014 H 0.90191 0.60163 0.40336 0.0
C4015 C 0.85754 0.62652 0.45098 0.0
C4016 C 0.87653 0.62897 0.45962 0.0
C4017 C 0.85708 0.62411 0.43328 0.0
C4018 C 0.89033 0.61029 0.39631 0.0
H4019 H 0.84579 0.61837 0.31486 0.0
H4020 H 0.84377 0.61813 0.34584 0.0
H4021 H 0.90252 0.60006 0.37245 0.0
H4022 H 0.90996 0.63012 0.45635 0.0
H4023 H 0.90916 0.62626 0.42562 0.0
H4024 H 0.84852 0.64218 0.40125 0.0
C4025 C 0.85889 0.61922 0.33989 0.0
C4026 C 0.89069 0.6094 0.37856 0.0
C4027 C 0.86005 0.61936 0.32211 0.0
C4028 C 0.89504 0.62853 0.45013 0.0
C4029 C 0.89459 0.62607 0.43248 0.0
C4030 C 0.86022 0.63269 0.39514 0.0
C4031 C 0.87704 0.62017 0.34985 0.0
C4032 C 0.87596 0.62032 0.36881 0.0
C4033 C 0.8756 0.62398 0.42378 0.0
C4034 C 0.87524 0.62213 0.40486 0.0
H4035 H 0.91265 0.62273 0.31792 0.0
H4036 H 0.91063 0.62242 0.34874 0.0
H4037 H 0.84913 0.64061 0.3703 0.0
H4038 H 0.84297 0.62694 0.45784 0.0
H4039 H 0.84219 0.62233 0.42705 0.0
C4040 C 0.40071 0.3624 0.32342 0.0
C4041 C 0.38617 0.37361 0.31371 0.0
C4042 C 0.39936 0.36186 0.34114 0.0
C4043 C 0.3775 0.3897 0.37811 0.0
H4044 H 0.38839 0.33771 0.40134 0.0
C4045 C 0.36789 0.38014 0.45117 0.0
C4046 C 0.38303 0.36824 0.45965 0.0
C4047 C 0.36731 0.38091 0.43338 0.0
C4048 C 0.38552 0.35243 0.3951 0.0
H4049 H 0.35873 0.39308 0.31522 0.0
H4050 H 0.35646 0.39223 0.3462 0.0
H4051 H 0.38915 0.33893 0.37045 0.0
H4052 H 0.40923 0.34754 0.45589 0.0
H4053 H 0.40855 0.34929 0.42507 0.0
H4054 H 0.37406 0.40323 0.40281 0.0
C4055 C 0.36902 0.38397 0.34004 0.0
C4056 C 0.38594 0.35312 0.37735 0.0
C4057 C 0.37033 0.38446 0.32227 0.0
C4058 C 0.39751 0.35711 0.44986 0.0
C4059 C 0.39694 0.35788 0.43212 0.0
C4060 C 0.37712 0.38902 0.3959 0.0
C4061 C 0.38347 0.37257 0.3497 0.0
C4062 C 0.38213 0.37179 0.36861 0.0
C4063 C 0.38182 0.36975 0.42361 0.0
C4064 C 0.38133 0.37041 0.40465 0.0
H4065 H 0.4134 0.35424 0.31735 0.0
H4066 H 0.41102 0.35328 0.34816 0.0
H4067 H 0.37469 0.40439 0.37181 0.0
H4068 H 0.35659 0.38905 0.45828 0.0
H4069 H 0.35533 0.39008 0.42728 0.0
C4070 C 0.36664 0.63381 0.2021 0.0
C4071 C 0.38601 0.63646 0.21012 0.0
C4072 C 0.36515 0.63331 0.18434 0.0
C4073 C 0.39382 0.64935 0.14557 0.0
H4074 H 0.35626 0.61166 0.12254 0.0
C4075 C 0.39547 0.63911 0.07275 0.0
C4076 C 0.37631 0.63788 0.06421 0.0
C4077 C 0.39639 0.63829 0.0905 0.0
C4078 C 0.36668 0.62244 0.12878 0.0
H4079 H 0.41909 0.63976 0.2056 0.0
H4080 H 0.4165 0.63888 0.17479 0.0
H4081 H 0.35826 0.61136 0.15352 0.0
H4082 H 0.3431 0.63431 0.06776 0.0
H4083 H 0.34467 0.63309 0.09874 0.0
H4084 H 0.40225 0.66045 0.1209 0.0
C4085 C 0.40237 0.63766 0.18219 0.0
C4086 C 0.36782 0.62227 0.14656 0.0
C4087 C 0.40386 0.63815 0.1999 0.0
C4088 C 0.3581 0.63549 0.07391 0.0
C4089 C 0.35903 0.63459 0.09168 0.0
C4090 C 0.39269 0.6495 0.12783 0.0
C4091 C 0.38299 0.63544 0.17414 0.0
C4092 C 0.38148 0.63568 0.1552 0.0
C4093 C 0.37817 0.63617 0.10022 0.0
C4094 C 0.37918 0.636 0.11917 0.0
H4095 H 0.35254 0.63266 0.20954 0.0
H4096 H 0.34994 0.63179 0.1786 0.0
H4097 H 0.4042 0.6602 0.15176 0.0
H4098 H 0.40979 0.64117 0.06573 0.0
H4099 H 0.41143 0.63929 0.0966 0.0
C4100 C 0.13071 0.62009 0.82123 0.0
C4101 C 0.11466 0.631 0.81298 0.0
C4102 C 0.13223 0.6201 0.839 0.0
C4103 C 0.11565 0.65001 0.87681 0.0
H4104 H 0.12813 0.59952 0.90164 0.0
C4105 C 0.10482 0.64471 0.94928 0.0
C4106 C 0.11945 0.6335 0.9589 0.0
C4107 C 0.10525 0.64422 0.93154 0.0
C4108 C 0.12491 0.61383 0.89491 0.0
H4109 H 0.08719 0.64987 0.81716 0.0
H4110 H 0.08996 0.65002 0.84794 0.0
H4111 H 0.12711 0.59891 0.87063 0.0
H4112 H 0.14601 0.61288 0.95722 0.0
H4113 H 0.147 0.61235 0.92619 0.0
H4114 H 0.11345 0.66498 0.90097 0.0
C4115 C 0.10162 0.64177 0.84069 0.0
C4116 C 0.12431 0.61347 0.87711 0.0
C4117 C 0.10006 0.6417 0.82299 0.0
C4118 C 0.13459 0.62183 0.95024 0.0
C4119 C 0.13502 0.62135 0.93244 0.0
C4120 C 0.11632 0.65039 0.89455 0.0
C4121 C 0.11778 0.63107 0.84894 0.0
C4122 C 0.11943 0.63151 0.86784 0.0
C4123 C 0.12037 0.63259 0.92285 0.0
C4124 C 0.1207 0.63226 0.90388 0.0
H4125 H 0.14236 0.61185 0.81395 0.0
H4126 H 0.14497 0.61184 0.84493 0.0
H4127 H 0.11227 0.6643 0.87009 0.0
H4128 H 0.0931 0.65411 0.95546 0.0
H4129 H 0.09353 0.65286 0.92463 0.0
C4130 C 0.12723 0.39082 0.69885 0.0
C4131 C 0.1217 0.37273 0.70781 0.0
C4132 C 0.1284 0.39074 0.68106 0.0
C4133 C 0.13355 0.3549 0.64433 0.0
H4134 H 0.11212 0.40122 0.61817 0.0
C4135 C 0.12005 0.34901 0.57212 0.0
C4136 C 0.12461 0.36632 0.56186 0.0
C4137 C 0.12061 0.35048 0.58983 0.0
C4138 C 0.11843 0.38827 0.62527 0.0
H4139 H 0.11244 0.34053 0.7049 0.0
H4140 H 0.11451 0.34039 0.67407 0.0
H4141 H 0.11139 0.40259 0.64916 0.0
H4142 H 0.13334 0.39884 0.56237 0.0
H4143 H 0.13466 0.40132 0.59333 0.0
H4144 H 0.14051 0.34051 0.62053 0.0
C4145 C 0.1184 0.35455 0.68076 0.0
C4146 C 0.118 0.38905 0.64307 0.0
C4147 C 0.11722 0.35463 0.6985 0.0
C4148 C 0.12988 0.38515 0.56985 0.0
C4149 C 0.13042 0.38663 0.58762 0.0
C4150 C 0.13399 0.35412 0.62659 0.0
C4151 C 0.12407 0.37257 0.67178 0.0
C4152 C 0.12535 0.37227 0.65284 0.0
C4153 C 0.1258 0.36929 0.59785 0.0
C4154 C 0.12623 0.37068 0.61679 0.0
H4155 H 0.13099 0.40499 0.70559 0.0
H4156 H 0.13304 0.40485 0.67459 0.0
H4157 H 0.13974 0.34187 0.65141 0.0
H4158 H 0.1162 0.33418 0.56647 0.0
H4159 H 0.1167 0.33686 0.59724 0.0
loop_
_geom_bond_atom_site_label_1
_geom_bond_atom_site_label_2
_geom_bond_distance
_geom_bond_site_symmetry_2
_ccdc_geom_bond_type
Nd0 C2 2.836 . S
Nd0 O20 2.500 . S
Nd0 O21 2.492 . S
Nd0 O22 2.487 . S
Nd0 O23 2.682 . S
Nd0 O24 2.410 . S
Nd0 O29 2.414 . S
Nd0 O31 2.424 . S
Nd1 C11 2.836 . S
Nd1 O23 2.414 . S
Nd1 O25 2.424 . S
Nd1 O26 2.500 . S
Nd1 O27 2.492 . S
Nd1 O28 2.487 . S
Nd1 O29 2.682 . S
Nd1 O30 2.410 . S
C2 Nd0 2.836 . S
C2 C3 1.498 . S
C2 O20 1.258 . S
C2 O21 1.239 . S
C3 C2 1.498 . S
C3 C4 1.366 . S
C3 C8 1.407 . S
C4 C3 1.366 . S
C4 C5 1.392 . S
C4 H32 0.930 . S
C5 C4 1.392 . S
C5 C6 1.398 . S
C5 H33 0.929 . S
C6 C5 1.398 . S
C6 C7 1.352 . S
C7 C6 1.352 . S
C7 C8 1.384 . S
C7 H34 0.930 . S
C8 C3 1.407 . S
C8 C7 1.384 . S
C8 H35 0.929 . S
C9 O22 1.241 . S
C9 O23 1.273 . S
C10 O24 1.251 . S
C10 O25 1.268 . S
C11 Nd1 2.836 . S
C11 C12 1.498 . S
C11 O26 1.258 . S
C11 O27 1.239 . S
C12 C11 1.498 . S
C12 C13 1.366 . S
C12 C17 1.407 . S
C13 C12 1.366 . S
C13 C14 1.392 . S
C13 H36 0.930 . S
C14 C13 1.392 . S
C14 C15 1.398 . S
C14 H37 0.929 . S
C15 C14 1.398 . S
C15 C16 1.352 . S
C16 C15 1.352 . S
C16 C17 1.384 . S
C16 H38 0.930 . S
C17 C12 1.407 . S
C17 C16 1.384 . S
C17 H39 0.929 . S
C18 O28 1.241 . S
C18 O29 1.273 . S
C19 O30 1.251 . S
C19 O31 1.268 . S
O20 Nd0 2.500 . S
O20 C2 1.258 . S
O21 Nd0 2.492 . S
O21 C2 1.239 . S
O22 Nd0 2.487 . S
O22 C9 1.241 . S
O23 Nd0 2.682 . S
O23 Nd1 2.414 . S
O23 C9 1.273 . S
O24 Nd0 2.410 . S
O24 C10 1.251 . S
O25 Nd1 2.424 . S
O25 C10 1.268 . S
O26 Nd1 2.500 . S
O26 C11 1.258 . S
O27 Nd1 2.492 . S
O27 C11 1.239 . S
O28 Nd1 2.487 . S
O28 C18 1.241 . S
O29 Nd0 2.414 . S
O29 Nd1 2.682 . S
O29 C18 1.273 . S
O30 Nd1 2.410 . S
O30 C19 1.251 . S
O31 Nd0 2.424 . S
O31 C19 1.268 . S
H32 C4 0.930 . S
H33 C5 0.929 . S
H34 C7 0.930 . S
H35 C8 0.929 . S
H36 C13 0.930 . S
H37 C14 0.929 . S
H38 C16 0.930 . S
H39 C17 0.929 . S
Nd40 C42 2.836 . S
Nd40 O60 2.500 . S
Nd40 O61 2.492 . S
Nd40 O62 2.487 . S
Nd40 O63 2.682 . S
Nd40 O64 2.410 . S
Nd40 O69 2.414 . S
Nd40 O71 2.424 . S
Nd41 C51 2.836 . S
Nd41 O63 2.414 . S
Nd41 O65 2.424 . S
Nd41 O66 2.500 . S
Nd41 O67 2.492 . S
Nd41 O68 2.487 . S
Nd41 O69 2.682 . S
Nd41 O70 2.410 . S
C42 Nd40 2.836 . S
C42 C43 1.498 . S
C42 O60 1.258 . S
C42 O61 1.239 . S
C43 C42 1.498 . S
C43 C44 1.366 . S
C43 C48 1.407 . S
C44 C43 1.366 . S
C44 C45 1.392 . S
C44 H72 0.930 . S
C45 C44 1.392 . S
C45 C46 1.398 . S
C45 H73 0.929 . S
C46 C45 1.398 . S
C46 C47 1.352 . S
C47 C46 1.352 . S
C47 C48 1.384 . S
C47 H74 0.930 . S
C48 C43 1.407 . S
C48 C47 1.384 . S
C48 H75 0.929 . S
C49 O62 1.241 . S
C49 O63 1.273 . S
C50 O64 1.251 . S
C50 O65 1.268 . S
C51 Nd41 2.836 . S
C51 C52 1.498 . S
C51 O66 1.258 . S
C51 O67 1.239 . S
C52 C51 1.498 . S
C52 C53 1.366 . S
C52 C57 1.407 . S
C53 C52 1.366 . S
C53 C54 1.392 . S
C53 H76 0.930 . S
C54 C53 1.392 . S
C54 C55 1.398 . S
C54 H77 0.929 . S
C55 C54 1.398 . S
C55 C56 1.352 . S
C56 C55 1.352 . S
C56 C57 1.384 . S
C56 H78 0.930 . S
C57 C52 1.407 . S
C57 C56 1.384 . S
C57 H79 0.929 . S
C58 O68 1.241 . S
C58 O69 1.273 . S
C59 O70 1.251 . S
C59 O71 1.268 . S
O60 Nd40 2.500 . S
O60 C42 1.258 . S
O61 Nd40 2.492 . S
O61 C42 1.239 . S
O62 Nd40 2.487 . S
O62 C49 1.241 . S
O63 Nd40 2.682 . S
O63 Nd41 2.414 . S
O63 C49 1.273 . S
O64 Nd40 2.410 . S
O64 C50 1.251 . S
O65 Nd41 2.424 . S
O65 C50 1.268 . S
O66 Nd41 2.500 . S
O66 C51 1.258 . S
O67 Nd41 2.492 . S
O67 C51 1.239 . S
O68 Nd41 2.487 . S
O68 C58 1.241 . S
O69 Nd40 2.414 . S
O69 Nd41 2.682 . S
O69 C58 1.273 . S
O70 Nd41 2.410 . S
O70 C59 1.251 . S
O71 Nd40 2.424 . S
O71 C59 1.268 . S
H72 C44 0.930 . S
H73 C45 0.929 . S
H74 C47 0.930 . S
H75 C48 0.929 . S
H76 C53 0.930 . S
H77 C54 0.929 . S
H78 C56 0.930 . S
H79 C57 0.929 . S
Nd80 C82 2.836 . S
Nd80 O100 2.500 . S
Nd80 O101 2.492 . S
Nd80 O102 2.487 . S
Nd80 O103 2.682 . S
Nd80 O104 2.410 . S
Nd80 O109 2.414 . S
Nd80 O111 2.424 . S
Nd81 C91 2.836 . S
Nd81 O103 2.414 . S
Nd81 O105 2.424 . S
Nd81 O106 2.500 . S
Nd81 O107 2.492 . S
Nd81 O108 2.487 . S
Nd81 O109 2.682 . S
Nd81 O110 2.410 . S
C82 Nd80 2.836 . S
C82 C83 1.498 . S
C82 O100 1.258 . S
C82 O101 1.239 . S
C83 C82 1.498 . S
C83 C84 1.366 . S
C83 C88 1.407 . S
C84 C83 1.366 . S
C84 C85 1.392 . S
C84 H112 0.930 . S
C85 C84 1.392 . S
C85 C86 1.398 . S
C85 H113 0.929 . S
C86 C85 1.398 . S
C86 C87 1.352 . S
C87 C86 1.352 . S
C87 C88 1.384 . S
C87 H114 0.930 . S
C88 C83 1.407 . S
C88 C87 1.384 . S
C88 H115 0.929 . S
C89 O102 1.241 . S
C89 O103 1.273 . S
C90 O104 1.251 . S
C90 O105 1.268 . S
C91 Nd81 2.836 . S
C91 C92 1.498 . S
C91 O106 1.258 . S
C91 O107 1.239 . S
C92 C91 1.498 . S
C92 C93 1.366 . S
C92 C97 1.407 . S
C93 C92 1.366 . S
C93 C94 1.392 . S
C93 H116 0.930 . S
C94 C93 1.392 . S
C94 C95 1.398 . S
C94 H117 0.929 . S
C95 C94 1.398 . S
C95 C96 1.352 . S
C96 C95 1.352 . S
C96 C97 1.384 . S
C96 H118 0.930 . S
C97 C92 1.407 . S
C97 C96 1.384 . S
C97 H119 0.929 . S
C98 O108 1.241 . S
C98 O109 1.273 . S
C99 O110 1.251 . S
C99 O111 1.268 . S
O100 Nd80 2.500 . S
O100 C82 1.258 . S
O101 Nd80 2.492 . S
O101 C82 1.239 . S
O102 Nd80 2.487 . S
O102 C89 1.241 . S
O103 Nd80 2.682 . S
O103 Nd81 2.414 . S
O103 C89 1.273 . S
O104 Nd80 2.410 . S
O104 C90 1.251 . S
O105 Nd81 2.424 . S
O105 C90 1.268 . S
O106 Nd81 2.500 . S
O106 C91 1.258 . S
O107 Nd81 2.492 . S
O107 C91 1.239 . S
O108 Nd81 2.487 . S
O108 C98 1.241 . S
O109 Nd80 2.414 . S
O109 Nd81 2.682 . S
O109 C98 1.273 . S
O110 Nd81 2.410 . S
O110 C99 1.251 . S
O111 Nd80 2.424 . S
O111 C99 1.268 . S
H112 C84 0.930 . S
H113 C85 0.929 . S
H114 C87 0.930 . S
H115 C88 0.929 . S
H116 C93 0.930 . S
H117 C94 0.929 . S
H118 C96 0.930 . S
H119 C97 0.929 . S
Nd120 C122 2.836 . S
Nd120 O140 2.500 . S
Nd120 O141 2.492 . S
Nd120 O142 2.487 . S
Nd120 O143 2.682 . S
Nd120 O144 2.410 . S
Nd120 O149 2.414 . S
Nd120 O151 2.424 . S
Nd121 C131 2.836 . S
Nd121 O143 2.414 . S
Nd121 O145 2.424 . S
Nd121 O146 2.500 . S
Nd121 O147 2.492 . S
Nd121 O148 2.487 . S
Nd121 O149 2.682 . S
Nd121 O150 2.410 . S
C122 Nd120 2.836 . S
C122 C123 1.498 1_554 S
C122 O140 1.258 . S
C122 O141 1.239 . S
C123 C122 1.498 1_556 S
C123 C124 1.366 . S
C123 C128 1.407 . S
C124 C123 1.366 . S
C124 C125 1.392 . S
C124 H152 0.930 . S
C125 C124 1.392 . S
C125 C126 1.398 . S
C125 H153 0.929 . S
C126 C125 1.398 . S
C126 C127 1.352 . S
C127 C126 1.352 . S
C127 C128 1.384 . S
C127 H154 0.930 . S
C128 C123 1.407 . S
C128 C127 1.384 . S
C128 H155 0.929 . S
C129 O142 1.241 . S
C129 O143 1.273 . S
C130 O144 1.251 . S
C130 O145 1.268 . S
C131 Nd121 2.836 . S
C131 C132 1.498 . S
C131 O146 1.258 . S
C131 O147 1.239 . S
C132 C131 1.498 . S
C132 C133 1.366 . S
C132 C137 1.407 . S
C133 C132 1.366 . S
C133 C134 1.392 . S
C133 H156 0.930 . S
C134 C133 1.392 . S
C134 C135 1.398 . S
C134 H157 0.929 . S
C135 C134 1.398 . S
C135 C136 1.352 . S
C136 C135 1.352 . S
C136 C137 1.384 . S
C136 H158 0.930 . S
C137 C132 1.407 . S
C137 C136 1.384 . S
C137 H159 0.929 . S
C138 O148 1.241 . S
C138 O149 1.273 . S
C139 O150 1.251 . S
C139 O151 1.268 . S
O140 Nd120 2.500 . S
O140 C122 1.258 . S
O141 Nd120 2.492 . S
O141 C122 1.239 . S
O142 Nd120 2.487 . S
O142 C129 1.241 . S
O143 Nd120 2.682 . S
O143 Nd121 2.414 . S
O143 C129 1.273 . S
O144 Nd120 2.410 . S
O144 C130 1.251 . S
O145 Nd121 2.424 . S
O145 C130 1.268 . S
O146 Nd121 2.500 . S
O146 C131 1.258 . S
O147 Nd121 2.492 . S
O147 C131 1.239 . S
O148 Nd121 2.487 . S
O148 C138 1.241 . S
O149 Nd120 2.414 . S
O149 Nd121 2.682 . S
O149 C138 1.273 . S
O150 Nd121 2.410 . S
O150 C139 1.251 . S
O151 Nd120 2.424 . S
O151 C139 1.268 . S
H152 C124 0.930 . S
H153 C125 0.929 . S
H154 C127 0.930 . S
H155 C128 0.929 . S
H156 C133 0.930 . S
H157 C134 0.929 . S
H158 C136 0.930 . S
H159 C137 0.929 . S
Nd160 C162 2.836 . S
Nd160 O180 2.500 . S
Nd160 O181 2.492 . S
Nd160 O182 2.487 . S
Nd160 O183 2.682 . S
Nd160 O184 2.410 . S
Nd160 O189 2.414 . S
Nd160 O191 2.424 . S
Nd161 C171 2.836 . S
Nd161 O183 2.414 . S
Nd161 O185 2.424 . S
Nd161 O186 2.500 . S
Nd161 O187 2.492 . S
Nd161 O188 2.487 . S
Nd161 O189 2.682 . S
Nd161 O190 2.410 . S
C162 Nd160 2.836 . S
C162 C163 1.498 . S
C162 O180 1.258 . S
C162 O181 1.239 . S
C163 C162 1.498 . S
C163 C164 1.366 . S
C163 C168 1.407 . S
C164 C163 1.366 . S
C164 C165 1.392 . S
C164 H192 0.930 . S
C165 C164 1.392 . S
C165 C166 1.398 . S
C165 H193 0.929 . S
C166 C165 1.398 . S
C166 C167 1.352 . S
C167 C166 1.352 . S
C167 C168 1.384 . S
C167 H194 0.930 . S
C168 C163 1.407 . S
C168 C167 1.384 . S
C168 H195 0.929 . S
C169 O182 1.241 . S
C169 O183 1.273 . S
C170 O184 1.251 . S
C170 O185 1.268 . S
C171 Nd161 2.836 . S
C171 C172 1.498 . S
C171 O186 1.258 . S
C171 O187 1.239 . S
C172 C171 1.498 . S
C172 C173 1.366 . S
C172 C177 1.407 . S
C173 C172 1.366 . S
C173 C174 1.392 . S
C173 H196 0.930 . S
C174 C173 1.392 . S
C174 C175 1.398 . S
C174 H197 0.929 . S
C175 C174 1.398 . S
C175 C176 1.352 . S
C176 C175 1.352 . S
C176 C177 1.384 . S
C176 H198 0.930 . S
C177 C172 1.407 . S
C177 C176 1.384 . S
C177 H199 0.929 . S
C178 O188 1.241 . S
C178 O189 1.273 . S
C179 O190 1.251 . S
C179 O191 1.268 . S
O180 Nd160 2.500 . S
O180 C162 1.258 . S
O181 Nd160 2.492 . S
O181 C162 1.239 . S
O182 Nd160 2.487 . S
O182 C169 1.241 . S
O183 Nd160 2.682 . S
O183 Nd161 2.414 . S
O183 C169 1.273 . S
O184 Nd160 2.410 . S
O184 C170 1.251 . S
O185 Nd161 2.424 . S
O185 C170 1.268 . S
O186 Nd161 2.500 . S
O186 C171 1.258 . S
O187 Nd161 2.492 . S
O187 C171 1.239 . S
O188 Nd161 2.487 . S
O188 C178 1.241 . S
O189 Nd160 2.414 . S
O189 Nd161 2.682 . S
O189 C178 1.273 . S
O190 Nd161 2.410 . S
O190 C179 1.251 . S
O191 Nd160 2.424 . S
O191 C179 1.268 . S
H192 C164 0.930 . S
H193 C165 0.929 . S
H194 C167 0.930 . S
H195 C168 0.929 . S
H196 C173 0.930 . S
H197 C174 0.929 . S
H198 C176 0.930 . S
H199 C177 0.929 . S
Nd200 C202 2.836 . S
Nd200 O220 2.500 . S
Nd200 O221 2.492 . S
Nd200 O222 2.487 . S
Nd200 O223 2.682 . S
Nd200 O224 2.410 . S
Nd200 O229 2.414 . S
Nd200 O231 2.424 . S
Nd201 C211 2.836 . S
Nd201 O223 2.414 . S
Nd201 O225 2.424 . S
Nd201 O226 2.500 . S
Nd201 O227 2.492 . S
Nd201 O228 2.487 . S
Nd201 O229 2.682 . S
Nd201 O230 2.410 . S
C202 Nd200 2.836 . S
C202 C203 1.498 . S
C202 O220 1.258 . S
C202 O221 1.239 . S
C203 C202 1.498 . S
C203 C204 1.366 . S
C203 C208 1.407 . S
C204 C203 1.366 . S
C204 C205 1.392 . S
C204 H232 0.930 . S
C205 C204 1.392 . S
C205 C206 1.398 . S
C205 H233 0.929 . S
C206 C205 1.398 . S
C206 C207 1.352 . S
C207 C206 1.352 . S
C207 C208 1.384 . S
C207 H234 0.930 . S
C208 C203 1.407 . S
C208 C207 1.384 . S
C208 H235 0.929 . S
C209 O222 1.241 . S
C209 O223 1.273 . S
C210 O224 1.251 . S
C210 O225 1.268 . S
C211 Nd201 2.836 . S
C211 C212 1.498 . S
C211 O226 1.258 . S
C211 O227 1.239 . S
C212 C211 1.498 . S
C212 C213 1.366 . S
C212 C217 1.407 . S
C213 C212 1.366 . S
C213 C214 1.392 . S
C213 H236 0.930 . S
C214 C213 1.392 . S
C214 C215 1.398 . S
C214 H237 0.929 . S
C215 C214 1.398 . S
C215 C216 1.352 . S
C216 C215 1.352 . S
C216 C217 1.384 . S
C216 H238 0.930 . S
C217 C212 1.407 . S
C217 C216 1.384 . S
C217 H239 0.929 . S
C218 O228 1.241 . S
C218 O229 1.273 . S
C219 O230 1.251 . S
C219 O231 1.268 . S
O220 Nd200 2.500 . S
O220 C202 1.258 . S
O221 Nd200 2.492 . S
O221 C202 1.239 . S
O222 Nd200 2.487 . S
O222 C209 1.241 . S
O223 Nd200 2.682 . S
O223 Nd201 2.414 . S
O223 C209 1.273 . S
O224 Nd200 2.410 . S
O224 C210 1.251 . S
O225 Nd201 2.424 . S
O225 C210 1.268 . S
O226 Nd201 2.500 . S
O226 C211 1.258 . S
O227 Nd201 2.492 . S
O227 C211 1.239 . S
O228 Nd201 2.487 . S
O228 C218 1.241 . S
O229 Nd200 2.414 . S
O229 Nd201 2.682 . S
O229 C218 1.273 . S
O230 Nd201 2.410 . S
O230 C219 1.251 . S
O231 Nd200 2.424 . S
O231 C219 1.268 . S
H232 C204 0.930 . S
H233 C205 0.929 . S
H234 C207 0.930 . S
H235 C208 0.929 . S
H236 C213 0.930 . S
H237 C214 0.929 . S
H238 C216 0.930 . S
H239 C217 0.929 . S
Nd240 C242 2.836 . S
Nd240 O260 2.500 . S
Nd240 O261 2.492 . S
Nd240 O262 2.487 . S
Nd240 O263 2.682 . S
Nd240 O264 2.410 . S
Nd240 O269 2.414 . S
Nd240 O271 2.424 . S
Nd241 C251 2.836 . S
Nd241 O263 2.414 . S
Nd241 O265 2.424 . S
Nd241 O266 2.500 . S
Nd241 O267 2.492 . S
Nd241 O268 2.487 . S
Nd241 O269 2.682 . S
Nd241 O270 2.410 . S
C242 Nd240 2.836 . S
C242 C243 1.498 . S
C242 O260 1.258 . S
C242 O261 1.239 . S
C243 C242 1.498 . S
C243 C244 1.366 . S
C243 C248 1.407 . S
C244 C243 1.366 . S
C244 C245 1.392 . S
C244 H272 0.930 . S
C245 C244 1.392 . S
C245 C246 1.398 . S
C245 H273 0.929 . S
C246 C245 1.398 . S
C246 C247 1.352 . S
C247 C246 1.352 . S
C247 C248 1.384 . S
C247 H274 0.930 . S
C248 C243 1.407 . S
C248 C247 1.384 . S
C248 H275 0.929 . S
C249 O262 1.241 . S
C249 O263 1.273 . S
C250 O264 1.251 . S
C250 O265 1.268 . S
C251 Nd241 2.836 . S
C251 C252 1.498 . S
C251 O266 1.258 . S
C251 O267 1.239 . S
C252 C251 1.498 . S
C252 C253 1.366 . S
C252 C257 1.407 . S
C253 C252 1.366 . S
C253 C254 1.392 . S
C253 H276 0.930 . S
C254 C253 1.392 . S
C254 C255 1.398 . S
C254 H277 0.929 . S
C255 C254 1.398 . S
C255 C256 1.352 . S
C256 C255 1.352 . S
C256 C257 1.384 . S
C256 H278 0.930 . S
C257 C252 1.407 . S
C257 C256 1.384 . S
C257 H279 0.929 . S
C258 O268 1.241 . S
C258 O269 1.273 . S
C259 O270 1.251 . S
C259 O271 1.268 . S
O260 Nd240 2.500 . S
O260 C242 1.258 . S
O261 Nd240 2.492 . S
O261 C242 1.239 . S
O262 Nd240 2.487 . S
O262 C249 1.241 . S
O263 Nd240 2.682 . S
O263 Nd241 2.414 . S
O263 C249 1.273 . S
O264 Nd240 2.410 . S
O264 C250 1.251 . S
O265 Nd241 2.424 . S
O265 C250 1.268 . S
O266 Nd241 2.500 . S
O266 C251 1.258 . S
O267 Nd241 2.492 . S
O267 C251 1.239 . S
O268 Nd241 2.487 . S
O268 C258 1.241 . S
O269 Nd240 2.414 . S
O269 Nd241 2.682 . S
O269 C258 1.273 . S
O270 Nd241 2.410 . S
O270 C259 1.251 . S
O271 Nd240 2.424 . S
O271 C259 1.268 . S
H272 C244 0.930 . S
H273 C245 0.929 . S
H274 C247 0.930 . S
H275 C248 0.929 . S
H276 C253 0.930 . S
H277 C254 0.929 . S
H278 C256 0.930 . S
H279 C257 0.929 . S
Nd280 C282 2.836 . S
Nd280 O300 2.500 . S
Nd280 O301 2.492 . S
Nd280 O302 2.487 . S
Nd280 O303 2.682 . S
Nd280 O304 2.410 . S
Nd280 O309 2.414 . S
Nd280 O311 2.424 . S
Nd281 C291 2.836 . S
Nd281 O303 2.414 . S
Nd281 O305 2.424 . S
Nd281 O306 2.500 . S
Nd281 O307 2.492 . S
Nd281 O308 2.487 . S
Nd281 O309 2.682 . S
Nd281 O310 2.410 . S
C282 Nd280 2.836 . S
C282 C283 1.498 1_556 S
C282 O300 1.258 . S
C282 O301 1.239 . S
C283 C282 1.498 1_554 S
C283 C284 1.366 . S
C283 C288 1.407 . S
C284 C283 1.366 . S
C284 C285 1.392 . S
C284 H312 0.930 . S
C285 C284 1.392 . S
C285 C286 1.398 . S
C285 H313 0.929 . S
C286 C285 1.398 . S
C286 C287 1.352 . S
C287 C286 1.352 . S
C287 C288 1.384 . S
C287 H314 0.930 . S
C288 C283 1.407 . S
C288 C287 1.384 . S
C288 H315 0.929 . S
C289 O302 1.241 . S
C289 O303 1.273 . S
C290 O304 1.251 . S
C290 O305 1.268 . S
C291 Nd281 2.836 . S
C291 C292 1.498 . S
C291 O306 1.258 . S
C291 O307 1.239 . S
C292 C291 1.498 . S
C292 C293 1.366 . S
C292 C297 1.407 . S
C293 C292 1.366 . S
C293 C294 1.392 . S
C293 H316 0.930 . S
C294 C293 1.392 . S
C294 C295 1.398 . S
C294 H317 0.929 . S
C295 C294 1.398 . S
C295 C296 1.352 . S
C296 C295 1.352 . S
C296 C297 1.384 . S
C296 H318 0.930 . S
C297 C292 1.407 . S
C297 C296 1.384 . S
C297 H319 0.929 . S
C298 O308 1.241 . S
C298 O309 1.273 . S
C299 O310 1.251 . S
C299 O311 1.268 . S
O300 Nd280 2.500 . S
O300 C282 1.258 . S
O301 Nd280 2.492 . S
O301 C282 1.239 . S
O302 Nd280 2.487 . S
O302 C289 1.241 . S
O303 Nd280 2.682 . S
O303 Nd281 2.414 . S
O303 C289 1.273 . S
O304 Nd280 2.410 . S
O304 C290 1.251 . S
O305 Nd281 2.424 . S
O305 C290 1.268 . S
O306 Nd281 2.500 . S
O306 C291 1.258 . S
O307 Nd281 2.492 . S
O307 C291 1.239 . S
O308 Nd281 2.487 . S
O308 C298 1.241 . S
O309 Nd280 2.414 . S
O309 Nd281 2.682 . S
O309 C298 1.273 . S
O310 Nd281 2.410 . S
O310 C299 1.251 . S
O311 Nd280 2.424 . S
O311 C299 1.268 . S
H312 C284 0.930 . S
H313 C285 0.929 . S
H314 C287 0.930 . S
H315 C288 0.929 . S
H316 C293 0.930 . S
H317 C294 0.929 . S
H318 C296 0.930 . S
H319 C297 0.929 . S
Nd320 C322 2.836 . S
Nd320 O340 2.500 . S
Nd320 O341 2.492 . S
Nd320 O342 2.487 . S
Nd320 O343 2.682 . S
Nd320 O344 2.410 . S
Nd320 O349 2.414 . S
Nd320 O351 2.424 . S
Nd321 C331 2.836 . S
Nd321 O343 2.414 . S
Nd321 O345 2.424 . S
Nd321 O346 2.500 . S
Nd321 O347 2.492 . S
Nd321 O348 2.487 . S
Nd321 O349 2.682 . S
Nd321 O350 2.410 . S
C322 Nd320 2.836 . S
C322 C323 1.498 . S
C322 O340 1.258 . S
C322 O341 1.239 . S
C323 C322 1.498 . S
C323 C324 1.366 . S
C323 C328 1.407 . S
C324 C323 1.366 . S
C324 C325 1.392 . S
C324 H352 0.930 . S
C325 C324 1.392 . S
C325 C326 1.398 . S
C325 H353 0.929 . S
C326 C325 1.398 . S
C326 C327 1.352 . S
C327 C326 1.352 . S
C327 C328 1.384 . S
C327 H354 0.930 . S
C328 C323 1.407 . S
C328 C327 1.384 . S
C328 H355 0.929 . S
C329 O342 1.241 . S
C329 O343 1.273 . S
C330 O344 1.251 . S
C330 O345 1.268 . S
C331 Nd321 2.836 . S
C331 C332 1.498 . S
C331 O346 1.258 . S
C331 O347 1.239 . S
C332 C331 1.498 . S
C332 C333 1.366 . S
C332 C337 1.407 . S
C333 C332 1.366 . S
C333 C334 1.392 . S
C333 H356 0.930 . S
C334 C333 1.392 . S
C334 C335 1.398 . S
C334 H357 0.929 . S
C335 C334 1.398 . S
C335 C336 1.352 . S
C336 C335 1.352 . S
C336 C337 1.384 . S
C336 H358 0.930 . S
C337 C332 1.407 . S
C337 C336 1.384 . S
C337 H359 0.929 . S
C338 O348 1.241 . S
C338 O349 1.273 . S
C339 O350 1.251 . S
C339 O351 1.268 . S
O340 Nd320 2.500 . S
O340 C322 1.258 . S
O341 Nd320 2.492 . S
O341 C322 1.239 . S
O342 Nd320 2.487 . S
O342 C329 1.241 . S
O343 Nd320 2.682 . S
O343 Nd321 2.414 . S
O343 C329 1.273 . S
O344 Nd320 2.410 . S
O344 C330 1.251 . S
O345 Nd321 2.424 . S
O345 C330 1.268 . S
O346 Nd321 2.500 . S
O346 C331 1.258 . S
O347 Nd321 2.492 . S
O347 C331 1.239 . S
O348 Nd321 2.487 . S
O348 C338 1.241 . S
O349 Nd320 2.414 . S
O349 Nd321 2.682 . S
O349 C338 1.273 . S
O350 Nd321 2.410 . S
O350 C339 1.251 . S
O351 Nd320 2.424 . S
O351 C339 1.268 . S
H352 C324 0.930 . S
H353 C325 0.929 . S
H354 C327 0.930 . S
H355 C328 0.929 . S
H356 C333 0.930 . S
H357 C334 0.929 . S
H358 C336 0.930 . S
H359 C337 0.929 . S
Nd360 C362 2.836 . S
Nd360 O380 2.500 . S
Nd360 O381 2.492 . S
Nd360 O382 2.487 . S
Nd360 O383 2.682 . S
Nd360 O384 2.410 . S
Nd360 O389 2.414 . S
Nd360 O391 2.424 . S
Nd361 C371 2.836 . S
Nd361 O383 2.414 . S
Nd361 O385 2.424 . S
Nd361 O386 2.500 . S
Nd361 O387 2.492 . S
Nd361 O388 2.487 . S
Nd361 O389 2.682 . S
Nd361 O390 2.410 . S
C362 Nd360 2.836 . S
C362 C363 1.498 . S
C362 O380 1.258 . S
C362 O381 1.239 . S
C363 C362 1.498 . S
C363 C364 1.366 . S
C363 C368 1.407 . S
C364 C363 1.366 . S
C364 C365 1.392 . S
C364 H392 0.930 . S
C365 C364 1.392 . S
C365 C366 1.398 . S
C365 H393 0.929 . S
C366 C365 1.398 . S
C366 C367 1.352 . S
C367 C366 1.352 . S
C367 C368 1.384 . S
C367 H394 0.930 . S
C368 C363 1.407 . S
C368 C367 1.384 . S
C368 H395 0.929 . S
C369 O382 1.241 . S
C369 O383 1.273 . S
C370 O384 1.251 . S
C370 O385 1.268 . S
C371 Nd361 2.836 . S
C371 C372 1.498 . S
C371 O386 1.258 . S
C371 O387 1.239 . S
C372 C371 1.498 . S
C372 C373 1.366 . S
C372 C377 1.407 . S
C373 C372 1.366 . S
C373 C374 1.392 . S
C373 H396 0.930 . S
C374 C373 1.392 . S
C374 C375 1.398 . S
C374 H397 0.929 . S
C375 C374 1.398 . S
C375 C376 1.352 . S
C376 C375 1.352 . S
C376 C377 1.384 . S
C376 H398 0.930 . S
C377 C372 1.407 . S
C377 C376 1.384 . S
C377 H399 0.929 . S
C378 O388 1.241 . S
C378 O389 1.273 . S
C379 O390 1.251 . S
C379 O391 1.268 . S
O380 Nd360 2.500 . S
O380 C362 1.258 . S
O381 Nd360 2.492 . S
O381 C362 1.239 . S
O382 Nd360 2.487 . S
O382 C369 1.241 . S
O383 Nd360 2.682 . S
O383 Nd361 2.414 . S
O383 C369 1.273 . S
O384 Nd360 2.410 . S
O384 C370 1.251 . S
O385 Nd361 2.424 . S
O385 C370 1.268 . S
O386 Nd361 2.500 . S
O386 C371 1.258 . S
O387 Nd361 2.492 . S
O387 C371 1.239 . S
O388 Nd361 2.487 . S
O388 C378 1.241 . S
O389 Nd360 2.414 . S
O389 Nd361 2.682 . S
O389 C378 1.273 . S
O390 Nd361 2.410 . S
O390 C379 1.251 . S
O391 Nd360 2.424 . S
O391 C379 1.268 . S
H392 C364 0.930 . S
H393 C365 0.929 . S
H394 C367 0.930 . S
H395 C368 0.929 . S
H396 C373 0.930 . S
H397 C374 0.929 . S
H398 C376 0.930 . S
H399 C377 0.929 . S
Nd400 C402 2.836 . S
Nd400 O420 2.500 . S
Nd400 O421 2.492 . S
Nd400 O422 2.487 . S
Nd400 O423 2.682 . S
Nd400 O424 2.410 . S
Nd400 O429 2.414 . S
Nd400 O431 2.424 . S
Nd401 C411 2.836 . S
Nd401 O423 2.414 . S
Nd401 O425 2.424 . S
Nd401 O426 2.500 . S
Nd401 O427 2.492 . S
Nd401 O428 2.487 . S
Nd401 O429 2.682 . S
Nd401 O430 2.410 . S
C402 Nd400 2.836 . S
C402 C403 1.498 . S
C402 O420 1.258 . S
C402 O421 1.239 . S
C403 C402 1.498 . S
C403 C404 1.366 . S
C403 C408 1.407 . S
C404 C403 1.366 . S
C404 C405 1.392 . S
C404 H432 0.930 . S
C405 C404 1.392 . S
C405 C406 1.398 . S
C405 H433 0.929 . S
C406 C405 1.398 . S
C406 C407 1.352 . S
C407 C406 1.352 . S
C407 C408 1.384 . S
C407 H434 0.930 . S
C408 C403 1.407 . S
C408 C407 1.384 . S
C408 H435 0.929 . S
C409 O422 1.241 . S
C409 O423 1.273 . S
C410 O424 1.251 . S
C410 O425 1.268 . S
C411 Nd401 2.836 . S
C411 C412 1.498 . S
C411 O426 1.258 . S
C411 O427 1.239 . S
C412 C411 1.498 . S
C412 C413 1.366 . S
C412 C417 1.407 . S
C413 C412 1.366 . S
C413 C414 1.392 . S
C413 H436 0.930 . S
C414 C413 1.392 . S
C414 C415 1.398 . S
C414 H437 0.929 . S
C415 C414 1.398 . S
C415 C416 1.352 . S
C416 C415 1.352 . S
C416 C417 1.384 . S
C416 H438 0.930 . S
C417 C412 1.407 . S
C417 C416 1.384 . S
C417 H439 0.929 . S
C418 O428 1.241 . S
C418 O429 1.273 . S
C419 O430 1.251 . S
C419 O431 1.268 . S
O420 Nd400 2.500 . S
O420 C402 1.258 . S
O421 Nd400 2.492 . S
O421 C402 1.239 . S
O422 Nd400 2.487 . S
O422 C409 1.241 . S
O423 Nd400 2.682 . S
O423 Nd401 2.414 . S
O423 C409 1.273 . S
O424 Nd400 2.410 . S
O424 C410 1.251 . S
O425 Nd401 2.424 . S
O425 C410 1.268 . S
O426 Nd401 2.500 . S
O426 C411 1.258 . S
O427 Nd401 2.492 . S
O427 C411 1.239 . S
O428 Nd401 2.487 . S
O428 C418 1.241 . S
O429 Nd400 2.414 . S
O429 Nd401 2.682 . S
O429 C418 1.273 . S
O430 Nd401 2.410 . S
O430 C419 1.251 . S
O431 Nd400 2.424 . S
O431 C419 1.268 . S
H432 C404 0.930 . S
H433 C405 0.929 . S
H434 C407 0.930 . S
H435 C408 0.929 . S
H436 C413 0.930 . S
H437 C414 0.929 . S
H438 C416 0.930 . S
H439 C417 0.929 . S
Nd440 C442 2.836 . S
Nd440 O460 2.500 . S
Nd440 O461 2.492 . S
Nd440 O462 2.487 . S
Nd440 O463 2.682 . S
Nd440 O464 2.410 . S
Nd440 O469 2.414 . S
Nd440 O471 2.424 . S
Nd441 C451 2.836 . S
Nd441 O463 2.414 . S
Nd441 O465 2.424 . S
Nd441 O466 2.500 . S
Nd441 O467 2.492 . S
Nd441 O468 2.487 . S
Nd441 O469 2.682 . S
Nd441 O470 2.410 . S
C442 Nd440 2.836 . S
C442 C443 1.498 . S
C442 O460 1.258 . S
C442 O461 1.239 . S
C443 C442 1.498 . S
C443 C444 1.366 . S
C443 C448 1.407 . S
C444 C443 1.366 . S
C444 C445 1.392 . S
C444 H472 0.930 . S
C445 C444 1.392 . S
C445 C446 1.398 . S
C445 H473 0.929 . S
C446 C445 1.398 . S
C446 C447 1.352 . S
C447 C446 1.352 . S
C447 C448 1.384 . S
C447 H474 0.930 . S
C448 C443 1.407 . S
C448 C447 1.384 . S
C448 H475 0.929 . S
C449 O462 1.241 . S
C449 O463 1.273 . S
C450 O464 1.251 . S
C450 O465 1.268 . S
C451 Nd441 2.836 . S
C451 C452 1.498 1_556 S
C451 O466 1.258 . S
C451 O467 1.239 . S
C452 C451 1.498 1_554 S
C452 C453 1.366 . S
C452 C457 1.407 . S
C453 C452 1.366 . S
C453 C454 1.392 . S
C453 H476 0.930 . S
C454 C453 1.392 . S
C454 C455 1.398 . S
C454 H477 0.929 . S
C455 C454 1.398 . S
C455 C456 1.352 . S
C456 C455 1.352 . S
C456 C457 1.384 . S
C456 H478 0.930 . S
C457 C452 1.407 . S
C457 C456 1.384 . S
C457 H479 0.929 . S
C458 O468 1.241 . S
C458 O469 1.273 . S
C459 O470 1.251 . S
C459 O471 1.268 . S
O460 Nd440 2.500 . S
O460 C442 1.258 . S
O461 Nd440 2.492 . S
O461 C442 1.239 . S
O462 Nd440 2.487 . S
O462 C449 1.241 . S
O463 Nd440 2.682 . S
O463 Nd441 2.414 . S
O463 C449 1.273 . S
O464 Nd440 2.410 . S
O464 C450 1.251 . S
O465 Nd441 2.424 . S
O465 C450 1.268 . S
O466 Nd441 2.500 . S
O466 C451 1.258 . S
O467 Nd441 2.492 . S
O467 C451 1.239 . S
O468 Nd441 2.487 . S
O468 C458 1.241 . S
O469 Nd440 2.414 . S
O469 Nd441 2.682 . S
O469 C458 1.273 . S
O470 Nd441 2.410 . S
O470 C459 1.251 . S
O471 Nd440 2.424 . S
O471 C459 1.268 . S
H472 C444 0.930 . S
H473 C445 0.929 . S
H474 C447 0.930 . S
H475 C448 0.929 . S
H476 C453 0.930 . S
H477 C454 0.929 . S
H478 C456 0.930 . S
H479 C457 0.929 . S
Nd480 C482 2.836 . S
Nd480 O500 2.500 . S
Nd480 O501 2.492 . S
Nd480 O502 2.487 . S
Nd480 O503 2.682 . S
Nd480 O504 2.410 . S
Nd480 O509 2.414 . S
Nd480 O511 2.424 . S
Nd481 C491 2.836 . S
Nd481 O503 2.414 . S
Nd481 O505 2.424 . S
Nd481 O506 2.500 . S
Nd481 O507 2.492 . S
Nd481 O508 2.487 . S
Nd481 O509 2.682 . S
Nd481 O510 2.410 . S
C482 Nd480 2.836 . S
C482 C483 1.498 . S
C482 O500 1.258 . S
C482 O501 1.239 . S
C483 C482 1.498 . S
C483 C484 1.366 . S
C483 C488 1.407 . S
C484 C483 1.366 . S
C484 C485 1.392 . S
C484 H512 0.930 . S
C485 C484 1.392 . S
C485 C486 1.398 . S
C485 H513 0.929 . S
C486 C485 1.398 . S
C486 C487 1.352 . S
C487 C486 1.352 . S
C487 C488 1.384 . S
C487 H514 0.930 . S
C488 C483 1.407 . S
C488 C487 1.384 . S
C488 H515 0.929 . S
C489 O502 1.241 . S
C489 O503 1.273 . S
C490 O504 1.251 . S
C490 O505 1.268 . S
C491 Nd481 2.836 . S
C491 C492 1.498 . S
C491 O506 1.258 . S
C491 O507 1.239 . S
C492 C491 1.498 . S
C492 C493 1.366 . S
C492 C497 1.407 . S
C493 C492 1.366 . S
C493 C494 1.392 . S
C493 H516 0.930 . S
C494 C493 1.392 . S
C494 C495 1.398 . S
C494 H517 0.929 . S
C495 C494 1.398 . S
C495 C496 1.352 . S
C496 C495 1.352 . S
C496 C497 1.384 . S
C496 H518 0.930 . S
C497 C492 1.407 . S
C497 C496 1.384 . S
C497 H519 0.929 . S
C498 O508 1.241 . S
C498 O509 1.273 . S
C499 O510 1.251 . S
C499 O511 1.268 . S
O500 Nd480 2.500 . S
O500 C482 1.258 . S
O501 Nd480 2.492 . S
O501 C482 1.239 . S
O502 Nd480 2.487 . S
O502 C489 1.241 . S
O503 Nd480 2.682 . S
O503 Nd481 2.414 . S
O503 C489 1.273 . S
O504 Nd480 2.410 . S
O504 C490 1.251 . S
O505 Nd481 2.424 . S
O505 C490 1.268 . S
O506 Nd481 2.500 . S
O506 C491 1.258 . S
O507 Nd481 2.492 . S
O507 C491 1.239 . S
O508 Nd481 2.487 . S
O508 C498 1.241 . S
O509 Nd480 2.414 . S
O509 Nd481 2.682 . S
O509 C498 1.273 . S
O510 Nd481 2.410 . S
O510 C499 1.251 . S
O511 Nd480 2.424 . S
O511 C499 1.268 . S
H512 C484 0.930 . S
H513 C485 0.929 . S
H514 C487 0.930 . S
H515 C488 0.929 . S
H516 C493 0.930 . S
H517 C494 0.929 . S
H518 C496 0.930 . S
H519 C497 0.929 . S
Nd520 C522 2.836 . S
Nd520 O540 2.500 . S
Nd520 O541 2.492 . S
Nd520 O542 2.487 . S
Nd520 O543 2.682 . S
Nd520 O544 2.410 . S
Nd520 O549 2.414 . S
Nd520 O551 2.424 . S
Nd521 C531 2.836 . S
Nd521 O543 2.414 . S
Nd521 O545 2.424 . S
Nd521 O546 2.500 . S
Nd521 O547 2.492 . S
Nd521 O548 2.487 . S
Nd521 O549 2.682 . S
Nd521 O550 2.410 . S
C522 Nd520 2.836 . S
C522 C523 1.498 . S
C522 O540 1.258 . S
C522 O541 1.239 . S
C523 C522 1.498 . S
C523 C524 1.366 . S
C523 C528 1.407 . S
C524 C523 1.366 . S
C524 C525 1.392 . S
C524 H552 0.930 . S
C525 C524 1.392 . S
C525 C526 1.398 . S
C525 H553 0.929 . S
C526 C525 1.398 . S
C526 C527 1.352 . S
C527 C526 1.352 . S
C527 C528 1.384 . S
C527 H554 0.930 . S
C528 C523 1.407 . S
C528 C527 1.384 . S
C528 H555 0.929 . S
C529 O542 1.241 . S
C529 O543 1.273 . S
C530 O544 1.251 . S
C530 O545 1.268 . S
C531 Nd521 2.836 . S
C531 C532 1.498 . S
C531 O546 1.258 . S
C531 O547 1.239 . S
C532 C531 1.498 . S
C532 C533 1.366 . S
C532 C537 1.407 . S
C533 C532 1.366 . S
C533 C534 1.392 . S
C533 H556 0.930 . S
C534 C533 1.392 . S
C534 C535 1.398 . S
C534 H557 0.929 . S
C535 C534 1.398 . S
C535 C536 1.352 . S
C536 C535 1.352 . S
C536 C537 1.384 . S
C536 H558 0.930 . S
C537 C532 1.407 . S
C537 C536 1.384 . S
C537 H559 0.929 . S
C538 O548 1.241 . S
C538 O549 1.273 . S
C539 O550 1.251 . S
C539 O551 1.268 . S
O540 Nd520 2.500 . S
O540 C522 1.258 . S
O541 Nd520 2.492 . S
O541 C522 1.239 . S
O542 Nd520 2.487 . S
O542 C529 1.241 . S
O543 Nd520 2.682 . S
O543 Nd521 2.414 . S
O543 C529 1.273 . S
O544 Nd520 2.410 . S
O544 C530 1.251 . S
O545 Nd521 2.424 . S
O545 C530 1.268 . S
O546 Nd521 2.500 . S
O546 C531 1.258 . S
O547 Nd521 2.492 . S
O547 C531 1.239 . S
O548 Nd521 2.487 . S
O548 C538 1.241 . S
O549 Nd520 2.414 . S
O549 Nd521 2.682 . S
O549 C538 1.273 . S
O550 Nd521 2.410 . S
O550 C539 1.251 . S
O551 Nd520 2.424 . S
O551 C539 1.268 . S
H552 C524 0.930 . S
H553 C525 0.929 . S
H554 C527 0.930 . S
H555 C528 0.929 . S
H556 C533 0.930 . S
H557 C534 0.929 . S
H558 C536 0.930 . S
H559 C537 0.929 . S
Nd560 C562 2.836 . S
Nd560 O580 2.500 . S
Nd560 O581 2.492 . S
Nd560 O582 2.487 . S
Nd560 O583 2.682 . S
Nd560 O584 2.410 . S
Nd560 O589 2.414 . S
Nd560 O591 2.424 . S
Nd561 C571 2.836 . S
Nd561 O583 2.414 . S
Nd561 O585 2.424 . S
Nd561 O586 2.500 . S
Nd561 O587 2.492 . S
Nd561 O588 2.487 . S
Nd561 O589 2.682 . S
Nd561 O590 2.410 . S
C562 Nd560 2.836 . S
C562 C563 1.498 . S
C562 O580 1.258 . S
C562 O581 1.239 . S
C563 C562 1.498 . S
C563 C564 1.366 . S
C563 C568 1.407 . S
C564 C563 1.366 . S
C564 C565 1.392 . S
C564 H592 0.930 . S
C565 C564 1.392 . S
C565 C566 1.398 . S
C565 H593 0.929 . S
C566 C565 1.398 . S
C566 C567 1.352 . S
C567 C566 1.352 . S
C567 C568 1.384 . S
C567 H594 0.930 . S
C568 C563 1.407 . S
C568 C567 1.384 . S
C568 H595 0.929 . S
C569 O582 1.241 . S
C569 O583 1.273 . S
C570 O584 1.251 . S
C570 O585 1.268 . S
C571 Nd561 2.836 . S
C571 C572 1.498 . S
C571 O586 1.258 . S
C571 O587 1.239 . S
C572 C571 1.498 . S
C572 C573 1.366 . S
C572 C577 1.407 . S
C573 C572 1.366 . S
C573 C574 1.392 . S
C573 H596 0.930 . S
C574 C573 1.392 . S
C574 C575 1.398 . S
C574 H597 0.929 . S
C575 C574 1.398 . S
C575 C576 1.352 . S
C576 C575 1.352 . S
C576 C577 1.384 . S
C576 H598 0.930 . S
C577 C572 1.407 . S
C577 C576 1.384 . S
C577 H599 0.929 . S
C578 O588 1.241 . S
C578 O589 1.273 . S
C579 O590 1.251 . S
C579 O591 1.268 . S
O580 Nd560 2.500 . S
O580 C562 1.258 . S
O581 Nd560 2.492 . S
O581 C562 1.239 . S
O582 Nd560 2.487 . S
O582 C569 1.241 . S
O583 Nd560 2.682 . S
O583 Nd561 2.414 . S
O583 C569 1.273 . S
O584 Nd560 2.410 . S
O584 C570 1.251 . S
O585 Nd561 2.424 . S
O585 C570 1.268 . S
O586 Nd561 2.500 . S
O586 C571 1.258 . S
O587 Nd561 2.492 . S
O587 C571 1.239 . S
O588 Nd561 2.487 . S
O588 C578 1.241 . S
O589 Nd560 2.414 . S
O589 Nd561 2.682 . S
O589 C578 1.273 . S
O590 Nd561 2.410 . S
O590 C579 1.251 . S
O591 Nd560 2.424 . S
O591 C579 1.268 . S
H592 C564 0.930 . S
H593 C565 0.929 . S
H594 C567 0.930 . S
H595 C568 0.929 . S
H596 C573 0.930 . S
H597 C574 0.929 . S
H598 C576 0.930 . S
H599 C577 0.929 . S
Nd600 C602 2.836 . S
Nd600 O620 2.500 . S
Nd600 O621 2.492 . S
Nd600 O622 2.487 . S
Nd600 O623 2.682 . S
Nd600 O624 2.410 . S
Nd600 O629 2.414 . S
Nd600 O631 2.424 . S
Nd601 C611 2.836 . S
Nd601 O623 2.414 . S
Nd601 O625 2.424 . S
Nd601 O626 2.500 . S
Nd601 O627 2.492 . S
Nd601 O628 2.487 . S
Nd601 O629 2.682 . S
Nd601 O630 2.410 . S
C602 Nd600 2.836 . S
C602 C603 1.498 . S
C602 O620 1.258 . S
C602 O621 1.239 . S
C603 C602 1.498 . S
C603 C604 1.366 . S
C603 C608 1.407 . S
C604 C603 1.366 . S
C604 C605 1.392 . S
C604 H632 0.930 . S
C605 C604 1.392 . S
C605 C606 1.398 . S
C605 H633 0.929 . S
C606 C605 1.398 . S
C606 C607 1.352 . S
C607 C606 1.352 . S
C607 C608 1.384 . S
C607 H634 0.930 . S
C608 C603 1.407 . S
C608 C607 1.384 . S
C608 H635 0.929 . S
C609 O622 1.241 . S
C609 O623 1.273 . S
C610 O624 1.251 . S
C610 O625 1.268 . S
C611 Nd601 2.836 . S
C611 C612 1.498 1_554 S
C611 O626 1.258 . S
C611 O627 1.239 . S
C612 C611 1.498 1_556 S
C612 C613 1.366 . S
C612 C617 1.407 . S
C613 C612 1.366 . S
C613 C614 1.392 . S
C613 H636 0.930 . S
C614 C613 1.392 . S
C614 C615 1.398 . S
C614 H637 0.929 . S
C615 C614 1.398 . S
C615 C616 1.352 . S
C616 C615 1.352 . S
C616 C617 1.384 . S
C616 H638 0.930 . S
C617 C612 1.407 . S
C617 C616 1.384 . S
C617 H639 0.929 . S
C618 O628 1.241 . S
C618 O629 1.273 . S
C619 O630 1.251 . S
C619 O631 1.268 . S
O620 Nd600 2.500 . S
O620 C602 1.258 . S
O621 Nd600 2.492 . S
O621 C602 1.239 . S
O622 Nd600 2.487 . S
O622 C609 1.241 . S
O623 Nd600 2.682 . S
O623 Nd601 2.414 . S
O623 C609 1.273 . S
O624 Nd600 2.410 . S
O624 C610 1.251 . S
O625 Nd601 2.424 . S
O625 C610 1.268 . S
O626 Nd601 2.500 . S
O626 C611 1.258 . S
O627 Nd601 2.492 . S
O627 C611 1.239 . S
O628 Nd601 2.487 . S
O628 C618 1.241 . S
O629 Nd600 2.414 . S
O629 Nd601 2.682 . S
O629 C618 1.273 . S
O630 Nd601 2.410 . S
O630 C619 1.251 . S
O631 Nd600 2.424 . S
O631 C619 1.268 . S
H632 C604 0.930 . S
H633 C605 0.929 . S
H634 C607 0.930 . S
H635 C608 0.929 . S
H636 C613 0.930 . S
H637 C614 0.929 . S
H638 C616 0.930 . S
H639 C617 0.929 . S
Nd640 C642 2.836 . S
Nd640 O660 2.500 . S
Nd640 O661 2.492 . S
Nd640 O662 2.487 . S
Nd640 O663 2.682 . S
Nd640 O664 2.410 . S
Nd640 O669 2.414 . S
Nd640 O671 2.424 . S
Nd641 C651 2.836 . S
Nd641 O663 2.414 . S
Nd641 O665 2.424 . S
Nd641 O666 2.500 . S
Nd641 O667 2.492 . S
Nd641 O668 2.487 . S
Nd641 O669 2.682 . S
Nd641 O670 2.410 . S
C642 Nd640 2.836 . S
C642 C643 1.498 . S
C642 O660 1.258 . S
C642 O661 1.239 . S
C643 C642 1.498 . S
C643 C644 1.366 . S
C643 C648 1.407 . S
C644 C643 1.366 . S
C644 C645 1.392 . S
C644 H672 0.930 . S
C645 C644 1.392 . S
C645 C646 1.398 . S
C645 H673 0.929 . S
C646 C645 1.398 . S
C646 C647 1.352 . S
C647 C646 1.352 . S
C647 C648 1.384 . S
C647 H674 0.930 . S
C648 C643 1.407 . S
C648 C647 1.384 . S
C648 H675 0.929 . S
C649 O662 1.241 . S
C649 O663 1.273 . S
C650 O664 1.251 . S
C650 O665 1.268 . S
C651 Nd641 2.836 . S
C651 C652 1.498 . S
C651 O666 1.258 . S
C651 O667 1.239 . S
C652 C651 1.498 . S
C652 C653 1.366 . S
C652 C657 1.407 . S
C653 C652 1.366 . S
C653 C654 1.392 . S
C653 H676 0.930 . S
C654 C653 1.392 . S
C654 C655 1.398 . S
C654 H677 0.929 . S
C655 C654 1.398 . S
C655 C656 1.352 . S
C656 C655 1.352 . S
C656 C657 1.384 . S
C656 H678 0.930 . S
C657 C652 1.407 . S
C657 C656 1.384 . S
C657 H679 0.929 . S
C658 O668 1.241 . S
C658 O669 1.273 . S
C659 O670 1.251 . S
C659 O671 1.268 . S
O660 Nd640 2.500 . S
O660 C642 1.258 . S
O661 Nd640 2.492 . S
O661 C642 1.239 . S
O662 Nd640 2.487 . S
O662 C649 1.241 . S
O663 Nd640 2.682 . S
O663 Nd641 2.414 . S
O663 C649 1.273 . S
O664 Nd640 2.410 . S
O664 C650 1.251 . S
O665 Nd641 2.424 . S
O665 C650 1.268 . S
O666 Nd641 2.500 . S
O666 C651 1.258 . S
O667 Nd641 2.492 . S
O667 C651 1.239 . S
O668 Nd641 2.487 . S
O668 C658 1.241 . S
O669 Nd640 2.414 . S
O669 Nd641 2.682 . S
O669 C658 1.273 . S
O670 Nd641 2.410 . S
O670 C659 1.251 . S
O671 Nd640 2.424 . S
O671 C659 1.268 . S
H672 C644 0.930 . S
H673 C645 0.929 . S
H674 C647 0.930 . S
H675 C648 0.929 . S
H676 C653 0.930 . S
H677 C654 0.929 . S
H678 C656 0.930 . S
H679 C657 0.929 . S
Nd680 C682 2.836 . S
Nd680 O700 2.500 . S
Nd680 O701 2.492 . S
Nd680 O702 2.487 . S
Nd680 O703 2.682 . S
Nd680 O704 2.410 . S
Nd680 O709 2.414 . S
Nd680 O711 2.424 . S
Nd681 C691 2.836 . S
Nd681 O703 2.414 . S
Nd681 O705 2.424 . S
Nd681 O706 2.500 . S
Nd681 O707 2.492 . S
Nd681 O708 2.487 . S
Nd681 O709 2.682 . S
Nd681 O710 2.410 . S
C682 Nd680 2.836 . S
C682 C683 1.498 1_554 S
C682 O700 1.258 . S
C682 O701 1.239 . S
C683 C682 1.498 1_556 S
C683 C684 1.366 . S
C683 C688 1.407 . S
C684 C683 1.366 . S
C684 C685 1.392 . S
C684 H712 0.930 . S
C685 C684 1.392 . S
C685 C686 1.398 . S
C685 H713 0.929 . S
C686 C685 1.398 . S
C686 C687 1.352 . S
C687 C686 1.352 . S
C687 C688 1.384 . S
C687 H714 0.930 . S
C688 C683 1.407 . S
C688 C687 1.384 . S
C688 H715 0.929 . S
C689 O702 1.241 . S
C689 O703 1.273 . S
C690 O704 1.251 . S
C690 O705 1.268 . S
C691 Nd681 2.836 . S
C691 C692 1.498 . S
C691 O706 1.258 . S
C691 O707 1.239 . S
C692 C691 1.498 . S
C692 C693 1.366 . S
C692 C697 1.407 . S
C693 C692 1.366 . S
C693 C694 1.392 . S
C693 H716 0.930 . S
C694 C693 1.392 . S
C694 C695 1.398 . S
C694 H717 0.929 . S
C695 C694 1.398 . S
C695 C696 1.352 . S
C696 C695 1.352 . S
C696 C697 1.384 . S
C696 H718 0.930 . S
C697 C692 1.407 . S
C697 C696 1.384 . S
C697 H719 0.929 . S
C698 O708 1.241 . S
C698 O709 1.273 . S
C699 O710 1.251 . S
C699 O711 1.268 . S
O700 Nd680 2.500 . S
O700 C682 1.258 . S
O701 Nd680 2.492 . S
O701 C682 1.239 . S
O702 Nd680 2.487 . S
O702 C689 1.241 . S
O703 Nd680 2.682 . S
O703 Nd681 2.414 . S
O703 C689 1.273 . S
O704 Nd680 2.410 . S
O704 C690 1.251 . S
O705 Nd681 2.424 . S
O705 C690 1.268 . S
O706 Nd681 2.500 . S
O706 C691 1.258 . S
O707 Nd681 2.492 . S
O707 C691 1.239 . S
O708 Nd681 2.487 . S
O708 C698 1.241 . S
O709 Nd680 2.414 . S
O709 Nd681 2.682 . S
O709 C698 1.273 . S
O710 Nd681 2.410 . S
O710 C699 1.251 . S
O711 Nd680 2.424 . S
O711 C699 1.268 . S
H712 C684 0.930 . S
H713 C685 0.929 . S
H714 C687 0.930 . S
H715 C688 0.929 . S
H716 C693 0.930 . S
H717 C694 0.929 . S
H718 C696 0.930 . S
H719 C697 0.929 . S
Nd720 C722 2.836 . S
Nd720 O740 2.500 . S
Nd720 O741 2.492 . S
Nd720 O742 2.487 . S
Nd720 O743 2.682 . S
Nd720 O744 2.410 . S
Nd720 O749 2.414 . S
Nd720 O751 2.424 . S
Nd721 C731 2.836 . S
Nd721 O743 2.414 . S
Nd721 O745 2.424 . S
Nd721 O746 2.500 . S
Nd721 O747 2.492 . S
Nd721 O748 2.487 . S
Nd721 O749 2.682 . S
Nd721 O750 2.410 . S
C722 Nd720 2.836 . S
C722 C723 1.498 . S
C722 O740 1.258 . S
C722 O741 1.239 . S
C723 C722 1.498 . S
C723 C724 1.366 . S
C723 C728 1.407 . S
C724 C723 1.366 . S
C724 C725 1.392 . S
C724 H752 0.930 . S
C725 C724 1.392 . S
C725 C726 1.398 . S
C725 H753 0.929 . S
C726 C725 1.398 . S
C726 C727 1.352 . S
C727 C726 1.352 . S
C727 C728 1.384 . S
C727 H754 0.930 . S
C728 C723 1.407 . S
C728 C727 1.384 . S
C728 H755 0.929 . S
C729 O742 1.241 . S
C729 O743 1.273 . S
C730 O744 1.251 . S
C730 O745 1.268 . S
C731 Nd721 2.836 . S
C731 C732 1.498 . S
C731 O746 1.258 . S
C731 O747 1.239 . S
C732 C731 1.498 . S
C732 C733 1.366 . S
C732 C737 1.407 . S
C733 C732 1.366 . S
C733 C734 1.392 . S
C733 H756 0.930 . S
C734 C733 1.392 . S
C734 C735 1.398 . S
C734 H757 0.929 . S
C735 C734 1.398 . S
C735 C736 1.352 . S
C736 C735 1.352 . S
C736 C737 1.384 . S
C736 H758 0.930 . S
C737 C732 1.407 . S
C737 C736 1.384 . S
C737 H759 0.929 . S
C738 O748 1.241 . S
C738 O749 1.273 . S
C739 O750 1.251 . S
C739 O751 1.268 . S
O740 Nd720 2.500 . S
O740 C722 1.258 . S
O741 Nd720 2.492 . S
O741 C722 1.239 . S
O742 Nd720 2.487 . S
O742 C729 1.241 . S
O743 Nd720 2.682 . S
O743 Nd721 2.414 . S
O743 C729 1.273 . S
O744 Nd720 2.410 . S
O744 C730 1.251 . S
O745 Nd721 2.424 . S
O745 C730 1.268 . S
O746 Nd721 2.500 . S
O746 C731 1.258 . S
O747 Nd721 2.492 . S
O747 C731 1.239 . S
O748 Nd721 2.487 . S
O748 C738 1.241 . S
O749 Nd720 2.414 . S
O749 Nd721 2.682 . S
O749 C738 1.273 . S
O750 Nd721 2.410 . S
O750 C739 1.251 . S
O751 Nd720 2.424 . S
O751 C739 1.268 . S
H752 C724 0.930 . S
H753 C725 0.929 . S
H754 C727 0.930 . S
H755 C728 0.929 . S
H756 C733 0.930 . S
H757 C734 0.929 . S
H758 C736 0.930 . S
H759 C737 0.929 . S
Nd760 C762 2.836 . S
Nd760 O780 2.500 . S
Nd760 O781 2.492 . S
Nd760 O782 2.487 . S
Nd760 O783 2.682 . S
Nd760 O784 2.410 . S
Nd760 O789 2.414 . S
Nd760 O791 2.424 . S
Nd761 C771 2.836 . S
Nd761 O783 2.414 . S
Nd761 O785 2.424 . S
Nd761 O786 2.500 . S
Nd761 O787 2.492 . S
Nd761 O788 2.487 . S
Nd761 O789 2.682 . S
Nd761 O790 2.410 . S
C762 Nd760 2.836 . S
C762 C763 1.498 . S
C762 O780 1.258 . S
C762 O781 1.239 . S
C763 C762 1.498 . S
C763 C764 1.366 . S
C763 C768 1.407 . S
C764 C763 1.366 . S
C764 C765 1.392 . S
C764 H792 0.930 . S
C765 C764 1.392 . S
C765 C766 1.398 . S
C765 H793 0.929 . S
C766 C765 1.398 . S
C766 C767 1.352 . S
C767 C766 1.352 . S
C767 C768 1.384 . S
C767 H794 0.930 . S
C768 C763 1.407 . S
C768 C767 1.384 . S
C768 H795 0.929 . S
C769 O782 1.241 . S
C769 O783 1.273 . S
C770 O784 1.251 . S
C770 O785 1.268 . S
C771 Nd761 2.836 . S
C771 C772 1.498 . S
C771 O786 1.258 . S
C771 O787 1.239 . S
C772 C771 1.498 . S
C772 C773 1.366 . S
C772 C777 1.407 . S
C773 C772 1.366 . S
C773 C774 1.392 . S
C773 H796 0.930 . S
C774 C773 1.392 . S
C774 C775 1.398 . S
C774 H797 0.929 . S
C775 C774 1.398 . S
C775 C776 1.352 . S
C776 C775 1.352 . S
C776 C777 1.384 . S
C776 H798 0.930 . S
C777 C772 1.407 . S
C777 C776 1.384 . S
C777 H799 0.929 . S
C778 O788 1.241 . S
C778 O789 1.273 . S
C779 O790 1.251 . S
C779 O791 1.268 . S
O780 Nd760 2.500 . S
O780 C762 1.258 . S
O781 Nd760 2.492 . S
O781 C762 1.239 . S
O782 Nd760 2.487 . S
O782 C769 1.241 . S
O783 Nd760 2.682 . S
O783 Nd761 2.414 . S
O783 C769 1.273 . S
O784 Nd760 2.410 . S
O784 C770 1.251 . S
O785 Nd761 2.424 . S
O785 C770 1.268 . S
O786 Nd761 2.500 . S
O786 C771 1.258 . S
O787 Nd761 2.492 . S
O787 C771 1.239 . S
O788 Nd761 2.487 . S
O788 C778 1.241 . S
O789 Nd760 2.414 . S
O789 Nd761 2.682 . S
O789 C778 1.273 . S
O790 Nd761 2.410 . S
O790 C779 1.251 . S
O791 Nd760 2.424 . S
O791 C779 1.268 . S
H792 C764 0.930 . S
H793 C765 0.929 . S
H794 C767 0.930 . S
H795 C768 0.929 . S
H796 C773 0.930 . S
H797 C774 0.929 . S
H798 C776 0.930 . S
H799 C777 0.929 . S
Nd800 C802 2.836 . S
Nd800 O820 2.500 . S
Nd800 O821 2.492 . S
Nd800 O822 2.487 . S
Nd800 O823 2.682 . S
Nd800 O824 2.410 . S
Nd800 O829 2.414 . S
Nd800 O831 2.424 . S
Nd801 C811 2.836 . S
Nd801 O823 2.414 . S
Nd801 O825 2.424 . S
Nd801 O826 2.500 . S
Nd801 O827 2.492 . S
Nd801 O828 2.487 . S
Nd801 O829 2.682 . S
Nd801 O830 2.410 . S
C802 Nd800 2.836 . S
C802 C803 1.498 . S
C802 O820 1.258 . S
C802 O821 1.239 . S
C803 C802 1.498 . S
C803 C804 1.366 . S
C803 C808 1.407 . S
C804 C803 1.366 . S
C804 C805 1.392 . S
C804 H832 0.930 . S
C805 C804 1.392 . S
C805 C806 1.398 . S
C805 H833 0.929 . S
C806 C805 1.398 . S
C806 C807 1.352 . S
C807 C806 1.352 . S
C807 C808 1.384 . S
C807 H834 0.930 . S
C808 C803 1.407 . S
C808 C807 1.384 . S
C808 H835 0.929 . S
C809 O822 1.241 . S
C809 O823 1.273 . S
C810 O824 1.251 . S
C810 O825 1.268 . S
C811 Nd801 2.836 . S
C811 C812 1.498 . S
C811 O826 1.258 . S
C811 O827 1.239 . S
C812 C811 1.498 . S
C812 C813 1.366 . S
C812 C817 1.407 . S
C813 C812 1.366 . S
C813 C814 1.392 . S
C813 H836 0.930 . S
C814 C813 1.392 . S
C814 C815 1.398 . S
C814 H837 0.929 . S
C815 C814 1.398 . S
C815 C816 1.352 . S
C816 C815 1.352 . S
C816 C817 1.384 . S
C816 H838 0.930 . S
C817 C812 1.407 . S
C817 C816 1.384 . S
C817 H839 0.929 . S
C818 O828 1.241 . S
C818 O829 1.273 . S
C819 O830 1.251 . S
C819 O831 1.268 . S
O820 Nd800 2.500 . S
O820 C802 1.258 . S
O821 Nd800 2.492 . S
O821 C802 1.239 . S
O822 Nd800 2.487 . S
O822 C809 1.241 . S
O823 Nd800 2.682 . S
O823 Nd801 2.414 . S
O823 C809 1.273 . S
O824 Nd800 2.410 . S
O824 C810 1.251 . S
O825 Nd801 2.424 . S
O825 C810 1.268 . S
O826 Nd801 2.500 . S
O826 C811 1.258 . S
O827 Nd801 2.492 . S
O827 C811 1.239 . S
O828 Nd801 2.487 . S
O828 C818 1.241 . S
O829 Nd800 2.414 . S
O829 Nd801 2.682 . S
O829 C818 1.273 . S
O830 Nd801 2.410 . S
O830 C819 1.251 . S
O831 Nd800 2.424 . S
O831 C819 1.268 . S
H832 C804 0.930 . S
H833 C805 0.929 . S
H834 C807 0.930 . S
H835 C808 0.929 . S
H836 C813 0.930 . S
H837 C814 0.929 . S
H838 C816 0.930 . S
H839 C817 0.929 . S
Nd840 C842 2.836 . S
Nd840 O860 2.500 . S
Nd840 O861 2.492 . S
Nd840 O862 2.487 . S
Nd840 O863 2.682 . S
Nd840 O864 2.410 . S
Nd840 O869 2.414 . S
Nd840 O871 2.424 . S
Nd841 C851 2.836 . S
Nd841 O863 2.414 . S
Nd841 O865 2.424 . S
Nd841 O866 2.500 . S
Nd841 O867 2.492 . S
Nd841 O868 2.487 . S
Nd841 O869 2.682 . S
Nd841 O870 2.410 . S
C842 Nd840 2.836 . S
C842 C843 1.498 1_556 S
C842 O860 1.258 . S
C842 O861 1.239 . S
C843 C842 1.498 1_554 S
C843 C844 1.366 . S
C843 C848 1.407 . S
C844 C843 1.366 . S
C844 C845 1.392 . S
C844 H872 0.930 . S
C845 C844 1.392 . S
C845 C846 1.398 . S
C845 H873 0.929 . S
C846 C845 1.398 . S
C846 C847 1.352 . S
C847 C846 1.352 . S
C847 C848 1.384 . S
C847 H874 0.930 . S
C848 C843 1.407 . S
C848 C847 1.384 . S
C848 H875 0.929 . S
C849 O862 1.241 . S
C849 O863 1.273 . S
C850 O864 1.251 . S
C850 O865 1.268 . S
C851 Nd841 2.836 . S
C851 C852 1.498 . S
C851 O866 1.258 . S
C851 O867 1.239 . S
C852 C851 1.498 . S
C852 C853 1.366 . S
C852 C857 1.407 . S
C853 C852 1.366 . S
C853 C854 1.392 . S
C853 H876 0.930 . S
C854 C853 1.392 . S
C854 C855 1.398 . S
C854 H877 0.929 . S
C855 C854 1.398 . S
C855 C856 1.352 . S
C856 C855 1.352 . S
C856 C857 1.384 . S
C856 H878 0.930 . S
C857 C852 1.407 . S
C857 C856 1.384 . S
C857 H879 0.929 . S
C858 O868 1.241 . S
C858 O869 1.273 . S
C859 O870 1.251 . S
C859 O871 1.268 . S
O860 Nd840 2.500 . S
O860 C842 1.258 . S
O861 Nd840 2.492 . S
O861 C842 1.239 . S
O862 Nd840 2.487 . S
O862 C849 1.241 . S
O863 Nd840 2.682 . S
O863 Nd841 2.414 . S
O863 C849 1.273 . S
O864 Nd840 2.410 . S
O864 C850 1.251 . S
O865 Nd841 2.424 . S
O865 C850 1.268 . S
O866 Nd841 2.500 . S
O866 C851 1.258 . S
O867 Nd841 2.492 . S
O867 C851 1.239 . S
O868 Nd841 2.487 . S
O868 C858 1.241 . S
O869 Nd840 2.414 . S
O869 Nd841 2.682 . S
O869 C858 1.273 . S
O870 Nd841 2.410 . S
O870 C859 1.251 . S
O871 Nd840 2.424 . S
O871 C859 1.268 . S
H872 C844 0.930 . S
H873 C845 0.929 . S
H874 C847 0.930 . S
H875 C848 0.929 . S
H876 C853 0.930 . S
H877 C854 0.929 . S
H878 C856 0.930 . S
H879 C857 0.929 . S
Nd880 C882 2.836 . S
Nd880 O900 2.500 . S
Nd880 O901 2.492 . S
Nd880 O902 2.487 . S
Nd880 O903 2.682 . S
Nd880 O904 2.410 . S
Nd880 O909 2.414 . S
Nd880 O911 2.424 . S
Nd881 C891 2.836 . S
Nd881 O903 2.414 . S
Nd881 O905 2.424 . S
Nd881 O906 2.500 . S
Nd881 O907 2.492 . S
Nd881 O908 2.487 . S
Nd881 O909 2.682 . S
Nd881 O910 2.410 . S
C882 Nd880 2.836 . S
C882 C883 1.498 . S
C882 O900 1.258 . S
C882 O901 1.239 . S
C883 C882 1.498 . S
C883 C884 1.366 . S
C883 C888 1.407 . S
C884 C883 1.366 . S
C884 C885 1.392 . S
C884 H912 0.930 . S
C885 C884 1.392 . S
C885 C886 1.398 . S
C885 H913 0.929 . S
C886 C885 1.398 . S
C886 C887 1.352 . S
C887 C886 1.352 . S
C887 C888 1.384 . S
C887 H914 0.930 . S
C888 C883 1.407 . S
C888 C887 1.384 . S
C888 H915 0.929 . S
C889 O902 1.241 . S
C889 O903 1.273 . S
C890 O904 1.251 . S
C890 O905 1.268 . S
C891 Nd881 2.836 . S
C891 C892 1.498 . S
C891 O906 1.258 . S
C891 O907 1.239 . S
C892 C891 1.498 . S
C892 C893 1.366 . S
C892 C897 1.407 . S
C893 C892 1.366 . S
C893 C894 1.392 . S
C893 H916 0.930 . S
C894 C893 1.392 . S
C894 C895 1.398 . S
C894 H917 0.929 . S
C895 C894 1.398 . S
C895 C896 1.352 . S
C896 C895 1.352 . S
C896 C897 1.384 . S
C896 H918 0.930 . S
C897 C892 1.407 . S
C897 C896 1.384 . S
C897 H919 0.929 . S
C898 O908 1.241 . S
C898 O909 1.273 . S
C899 O910 1.251 . S
C899 O911 1.268 . S
O900 Nd880 2.500 . S
O900 C882 1.258 . S
O901 Nd880 2.492 . S
O901 C882 1.239 . S
O902 Nd880 2.487 . S
O902 C889 1.241 . S
O903 Nd880 2.682 . S
O903 Nd881 2.414 . S
O903 C889 1.273 . S
O904 Nd880 2.410 . S
O904 C890 1.251 . S
O905 Nd881 2.424 . S
O905 C890 1.268 . S
O906 Nd881 2.500 . S
O906 C891 1.258 . S
O907 Nd881 2.492 . S
O907 C891 1.239 . S
O908 Nd881 2.487 . S
O908 C898 1.241 . S
O909 Nd880 2.414 . S
O909 Nd881 2.682 . S
O909 C898 1.273 . S
O910 Nd881 2.410 . S
O910 C899 1.251 . S
O911 Nd880 2.424 . S
O911 C899 1.268 . S
H912 C884 0.930 . S
H913 C885 0.929 . S
H914 C887 0.930 . S
H915 C888 0.929 . S
H916 C893 0.930 . S
H917 C894 0.929 . S
H918 C896 0.930 . S
H919 C897 0.929 . S
Nd920 C922 2.836 . S
Nd920 O940 2.500 . S
Nd920 O941 2.492 . S
Nd920 O942 2.487 . S
Nd920 O943 2.682 . S
Nd920 O944 2.410 . S
Nd920 O949 2.414 . S
Nd920 O951 2.424 . S
Nd921 C931 2.836 . S
Nd921 O943 2.414 . S
Nd921 O945 2.424 . S
Nd921 O946 2.500 . S
Nd921 O947 2.492 . S
Nd921 O948 2.487 . S
Nd921 O949 2.682 . S
Nd921 O950 2.410 . S
C922 Nd920 2.836 . S
C922 C923 1.498 . S
C922 O940 1.258 . S
C922 O941 1.239 . S
C923 C922 1.498 . S
C923 C924 1.366 . S
C923 C928 1.407 . S
C924 C923 1.366 . S
C924 C925 1.392 . S
C924 H952 0.930 . S
C925 C924 1.392 . S
C925 C926 1.398 . S
C925 H953 0.929 . S
C926 C925 1.398 . S
C926 C927 1.352 . S
C927 C926 1.352 . S
C927 C928 1.384 . S
C927 H954 0.930 . S
C928 C923 1.407 . S
C928 C927 1.384 . S
C928 H955 0.929 . S
C929 O942 1.241 . S
C929 O943 1.273 . S
C930 O944 1.251 . S
C930 O945 1.268 . S
C931 Nd921 2.836 . S
C931 C932 1.498 . S
C931 O946 1.258 . S
C931 O947 1.239 . S
C932 C931 1.498 . S
C932 C933 1.366 . S
C932 C937 1.407 . S
C933 C932 1.366 . S
C933 C934 1.392 . S
C933 H956 0.930 . S
C934 C933 1.392 . S
C934 C935 1.398 . S
C934 H957 0.929 . S
C935 C934 1.398 . S
C935 C936 1.352 . S
C936 C935 1.352 . S
C936 C937 1.384 . S
C936 H958 0.930 . S
C937 C932 1.407 . S
C937 C936 1.384 . S
C937 H959 0.929 . S
C938 O948 1.241 . S
C938 O949 1.273 . S
C939 O950 1.251 . S
C939 O951 1.268 . S
O940 Nd920 2.500 . S
O940 C922 1.258 . S
O941 Nd920 2.492 . S
O941 C922 1.239 . S
O942 Nd920 2.487 . S
O942 C929 1.241 . S
O943 Nd920 2.682 . S
O943 Nd921 2.414 . S
O943 C929 1.273 . S
O944 Nd920 2.410 . S
O944 C930 1.251 . S
O945 Nd921 2.424 . S
O945 C930 1.268 . S
O946 Nd921 2.500 . S
O946 C931 1.258 . S
O947 Nd921 2.492 . S
O947 C931 1.239 . S
O948 Nd921 2.487 . S
O948 C938 1.241 . S
O949 Nd920 2.414 . S
O949 Nd921 2.682 . S
O949 C938 1.273 . S
O950 Nd921 2.410 . S
O950 C939 1.251 . S
O951 Nd920 2.424 . S
O951 C939 1.268 . S
H952 C924 0.930 . S
H953 C925 0.929 . S
H954 C927 0.930 . S
H955 C928 0.929 . S
H956 C933 0.930 . S
H957 C934 0.929 . S
H958 C936 0.930 . S
H959 C937 0.929 . S
Nd960 C962 2.836 . S
Nd960 O980 2.500 . S
Nd960 O981 2.492 . S
Nd960 O982 2.487 . S
Nd960 O983 2.682 . S
Nd960 O984 2.410 . S
Nd960 O989 2.414 . S
Nd960 O991 2.424 . S
Nd961 C971 2.836 . S
Nd961 O983 2.414 . S
Nd961 O985 2.424 . S
Nd961 O986 2.500 . S
Nd961 O987 2.492 . S
Nd961 O988 2.487 . S
Nd961 O989 2.682 . S
Nd961 O990 2.410 . S
C962 Nd960 2.836 . S
C962 C963 1.498 . S
C962 O980 1.258 . S
C962 O981 1.239 . S
C963 C962 1.498 . S
C963 C964 1.366 . S
C963 C968 1.407 . S
C964 C963 1.366 . S
C964 C965 1.392 . S
C964 H992 0.930 . S
C965 C964 1.392 . S
C965 C966 1.398 . S
C965 H993 0.929 . S
C966 C965 1.398 . S
C966 C967 1.352 . S
C967 C966 1.352 . S
C967 C968 1.384 . S
C967 H994 0.930 . S
C968 C963 1.407 . S
C968 C967 1.384 . S
C968 H995 0.929 . S
C969 O982 1.241 . S
C969 O983 1.273 . S
C970 O984 1.251 . S
C970 O985 1.268 . S
C971 Nd961 2.836 . S
C971 C972 1.498 . S
C971 O986 1.258 . S
C971 O987 1.239 . S
C972 C971 1.498 . S
C972 C973 1.366 . S
C972 C977 1.407 . S
C973 C972 1.366 . S
C973 C974 1.392 . S
C973 H996 0.930 . S
C974 C973 1.392 . S
C974 C975 1.398 . S
C974 H997 0.929 . S
C975 C974 1.398 . S
C975 C976 1.352 . S
C976 C975 1.352 . S
C976 C977 1.384 . S
C976 H998 0.930 . S
C977 C972 1.407 . S
C977 C976 1.384 . S
C977 H999 0.929 . S
C978 O988 1.241 . S
C978 O989 1.273 . S
C979 O990 1.251 . S
C979 O991 1.268 . S
O980 Nd960 2.500 . S
O980 C962 1.258 . S
O981 Nd960 2.492 . S
O981 C962 1.239 . S
O982 Nd960 2.487 . S
O982 C969 1.241 . S
O983 Nd960 2.682 . S
O983 Nd961 2.414 . S
O983 C969 1.273 . S
O984 Nd960 2.410 . S
O984 C970 1.251 . S
O985 Nd961 2.424 . S
O985 C970 1.268 . S
O986 Nd961 2.500 . S
O986 C971 1.258 . S
O987 Nd961 2.492 . S
O987 C971 1.239 . S
O988 Nd961 2.487 . S
O988 C978 1.241 . S
O989 Nd960 2.414 . S
O989 Nd961 2.682 . S
O989 C978 1.273 . S
O990 Nd961 2.410 . S
O990 C979 1.251 . S
O991 Nd960 2.424 . S
O991 C979 1.268 . S
H992 C964 0.930 . S
H993 C965 0.929 . S
H994 C967 0.930 . S
H995 C968 0.929 . S
H996 C973 0.930 . S
H997 C974 0.929 . S
H998 C976 0.930 . S
H999 C977 0.929 . S
Nd1000 C1002 2.836 . S
Nd1000 O1020 2.500 . S
Nd1000 O1021 2.492 . S
Nd1000 O1022 2.487 . S
Nd1000 O1023 2.682 . S
Nd1000 O1024 2.410 . S
Nd1000 O1029 2.414 . S
Nd1000 O1031 2.424 . S
Nd1001 C1011 2.836 . S
Nd1001 O1023 2.414 . S
Nd1001 O1025 2.424 . S
Nd1001 O1026 2.500 . S
Nd1001 O1027 2.492 . S
Nd1001 O1028 2.487 . S
Nd1001 O1029 2.682 . S
Nd1001 O1030 2.410 . S
C1002 Nd1000 2.836 . S
C1002 C1003 1.498 . S
C1002 O1020 1.258 . S
C1002 O1021 1.239 . S
C1003 C1002 1.498 . S
C1003 C1004 1.366 . S
C1003 C1008 1.407 . S
C1004 C1003 1.366 . S
C1004 C1005 1.392 . S
C1004 H1032 0.930 . S
C1005 C1004 1.392 . S
C1005 C1006 1.398 . S
C1005 H1033 0.929 . S
C1006 C1005 1.398 . S
C1006 C1007 1.352 . S
C1007 C1006 1.352 . S
C1007 C1008 1.384 . S
C1007 H1034 0.930 . S
C1008 C1003 1.407 . S
C1008 C1007 1.384 . S
C1008 H1035 0.929 . S
C1009 O1022 1.241 . S
C1009 O1023 1.273 . S
C1010 O1024 1.251 . S
C1010 O1025 1.268 . S
C1011 Nd1001 2.836 . S
C1011 C1012 1.498 1_556 S
C1011 O1026 1.258 . S
C1011 O1027 1.239 . S
C1012 C1011 1.498 1_554 S
C1012 C1013 1.366 . S
C1012 C1017 1.407 . S
C1013 C1012 1.366 . S
C1013 C1014 1.392 . S
C1013 H1036 0.930 . S
C1014 C1013 1.392 . S
C1014 C1015 1.398 . S
C1014 H1037 0.929 . S
C1015 C1014 1.398 . S
C1015 C1016 1.352 . S
C1016 C1015 1.352 . S
C1016 C1017 1.384 . S
C1016 H1038 0.930 . S
C1017 C1012 1.407 . S
C1017 C1016 1.384 . S
C1017 H1039 0.929 . S
C1018 O1028 1.241 . S
C1018 O1029 1.273 . S
C1019 O1030 1.251 . S
C1019 O1031 1.268 . S
O1020 Nd1000 2.500 . S
O1020 C1002 1.258 . S
O1021 Nd1000 2.492 . S
O1021 C1002 1.239 . S
O1022 Nd1000 2.487 . S
O1022 C1009 1.241 . S
O1023 Nd1000 2.682 . S
O1023 Nd1001 2.414 . S
O1023 C1009 1.273 . S
O1024 Nd1000 2.410 . S
O1024 C1010 1.251 . S
O1025 Nd1001 2.424 . S
O1025 C1010 1.268 . S
O1026 Nd1001 2.500 . S
O1026 C1011 1.258 . S
O1027 Nd1001 2.492 . S
O1027 C1011 1.239 . S
O1028 Nd1001 2.487 . S
O1028 C1018 1.241 . S
O1029 Nd1000 2.414 . S
O1029 Nd1001 2.682 . S
O1029 C1018 1.273 . S
O1030 Nd1001 2.410 . S
O1030 C1019 1.251 . S
O1031 Nd1000 2.424 . S
O1031 C1019 1.268 . S
H1032 C1004 0.930 . S
H1033 C1005 0.929 . S
H1034 C1007 0.930 . S
H1035 C1008 0.929 . S
H1036 C1013 0.930 . S
H1037 C1014 0.929 . S
H1038 C1016 0.930 . S
H1039 C1017 0.929 . S
Nd1040 C1042 2.836 . S
Nd1040 O1060 2.500 . S
Nd1040 O1061 2.492 . S
Nd1040 O1062 2.487 . S
Nd1040 O1063 2.682 . S
Nd1040 O1064 2.410 . S
Nd1040 O1069 2.414 . S
Nd1040 O1071 2.424 . S
Nd1041 C1051 2.836 . S
Nd1041 O1063 2.414 . S
Nd1041 O1065 2.424 . S
Nd1041 O1066 2.500 . S
Nd1041 O1067 2.492 . S
Nd1041 O1068 2.487 . S
Nd1041 O1069 2.682 . S
Nd1041 O1070 2.410 . S
C1042 Nd1040 2.836 . S
C1042 C1043 1.498 . S
C1042 O1060 1.258 . S
C1042 O1061 1.239 . S
C1043 C1042 1.498 . S
C1043 C1044 1.366 . S
C1043 C1048 1.407 . S
C1044 C1043 1.366 . S
C1044 C1045 1.392 . S
C1044 H1072 0.930 . S
C1045 C1044 1.392 . S
C1045 C1046 1.398 . S
C1045 H1073 0.929 . S
C1046 C1045 1.398 . S
C1046 C1047 1.352 . S
C1047 C1046 1.352 . S
C1047 C1048 1.384 . S
C1047 H1074 0.930 . S
C1048 C1043 1.407 . S
C1048 C1047 1.384 . S
C1048 H1075 0.929 . S
C1049 O1062 1.241 . S
C1049 O1063 1.273 . S
C1050 O1064 1.251 . S
C1050 O1065 1.268 . S
C1051 Nd1041 2.836 . S
C1051 C1052 1.498 . S
C1051 O1066 1.258 . S
C1051 O1067 1.239 . S
C1052 C1051 1.498 . S
C1052 C1053 1.366 . S
C1052 C1057 1.407 . S
C1053 C1052 1.366 . S
C1053 C1054 1.392 . S
C1053 H1076 0.930 . S
C1054 C1053 1.392 . S
C1054 C1055 1.398 . S
C1054 H1077 0.929 . S
C1055 C1054 1.398 . S
C1055 C1056 1.352 . S
C1056 C1055 1.352 . S
C1056 C1057 1.384 . S
C1056 H1078 0.930 . S
C1057 C1052 1.407 . S
C1057 C1056 1.384 . S
C1057 H1079 0.929 . S
C1058 O1068 1.241 . S
C1058 O1069 1.273 . S
C1059 O1070 1.251 . S
C1059 O1071 1.268 . S
O1060 Nd1040 2.500 . S
O1060 C1042 1.258 . S
O1061 Nd1040 2.492 . S
O1061 C1042 1.239 . S
O1062 Nd1040 2.487 . S
O1062 C1049 1.241 . S
O1063 Nd1040 2.682 . S
O1063 Nd1041 2.414 . S
O1063 C1049 1.273 . S
O1064 Nd1040 2.410 . S
O1064 C1050 1.251 . S
O1065 Nd1041 2.424 . S
O1065 C1050 1.268 . S
O1066 Nd1041 2.500 . S
O1066 C1051 1.258 . S
O1067 Nd1041 2.492 . S
O1067 C1051 1.239 . S
O1068 Nd1041 2.487 . S
O1068 C1058 1.241 . S
O1069 Nd1040 2.414 . S
O1069 Nd1041 2.682 . S
O1069 C1058 1.273 . S
O1070 Nd1041 2.410 . S
O1070 C1059 1.251 . S
O1071 Nd1040 2.424 . S
O1071 C1059 1.268 . S
H1072 C1044 0.930 . S
H1073 C1045 0.929 . S
H1074 C1047 0.930 . S
H1075 C1048 0.929 . S
H1076 C1053 0.930 . S
H1077 C1054 0.929 . S
H1078 C1056 0.930 . S
H1079 C1057 0.929 . S
Nd1080 C1082 2.836 . S
Nd1080 O1100 2.500 . S
Nd1080 O1101 2.492 . S
Nd1080 O1102 2.487 . S
Nd1080 O1103 2.682 . S
Nd1080 O1104 2.410 . S
Nd1080 O1109 2.414 . S
Nd1080 O1111 2.424 . S
Nd1081 C1091 2.836 . S
Nd1081 O1103 2.414 . S
Nd1081 O1105 2.424 . S
Nd1081 O1106 2.500 . S
Nd1081 O1107 2.492 . S
Nd1081 O1108 2.487 . S
Nd1081 O1109 2.682 . S
Nd1081 O1110 2.410 . S
C1082 Nd1080 2.836 . S
C1082 C1083 1.498 . S
C1082 O1100 1.258 . S
C1082 O1101 1.239 . S
C1083 C1082 1.498 . S
C1083 C1084 1.366 . S
C1083 C1088 1.407 . S
C1084 C1083 1.366 . S
C1084 C1085 1.392 . S
C1084 H1112 0.930 . S
C1085 C1084 1.392 . S
C1085 C1086 1.398 . S
C1085 H1113 0.929 . S
C1086 C1085 1.398 . S
C1086 C1087 1.352 . S
C1087 C1086 1.352 . S
C1087 C1088 1.384 . S
C1087 H1114 0.930 . S
C1088 C1083 1.407 . S
C1088 C1087 1.384 . S
C1088 H1115 0.929 . S
C1089 O1102 1.241 . S
C1089 O1103 1.273 . S
C1090 O1104 1.251 . S
C1090 O1105 1.268 . S
C1091 Nd1081 2.836 . S
C1091 C1092 1.498 . S
C1091 O1106 1.258 . S
C1091 O1107 1.239 . S
C1092 C1091 1.498 . S
C1092 C1093 1.366 . S
C1092 C1097 1.407 . S
C1093 C1092 1.366 . S
C1093 C1094 1.392 . S
C1093 H1116 0.930 . S
C1094 C1093 1.392 . S
C1094 C1095 1.398 . S
C1094 H1117 0.929 . S
C1095 C1094 1.398 . S
C1095 C1096 1.352 . S
C1096 C1095 1.352 . S
C1096 C1097 1.384 . S
C1096 H1118 0.930 . S
C1097 C1092 1.407 . S
C1097 C1096 1.384 . S
C1097 H1119 0.929 . S
C1098 O1108 1.241 . S
C1098 O1109 1.273 . S
C1099 O1110 1.251 . S
C1099 O1111 1.268 . S
O1100 Nd1080 2.500 . S
O1100 C1082 1.258 . S
O1101 Nd1080 2.492 . S
O1101 C1082 1.239 . S
O1102 Nd1080 2.487 . S
O1102 C1089 1.241 . S
O1103 Nd1080 2.682 . S
O1103 Nd1081 2.414 . S
O1103 C1089 1.273 . S
O1104 Nd1080 2.410 . S
O1104 C1090 1.251 . S
O1105 Nd1081 2.424 . S
O1105 C1090 1.268 . S
O1106 Nd1081 2.500 . S
O1106 C1091 1.258 . S
O1107 Nd1081 2.492 . S
O1107 C1091 1.239 . S
O1108 Nd1081 2.487 . S
O1108 C1098 1.241 . S
O1109 Nd1080 2.414 . S
O1109 Nd1081 2.682 . S
O1109 C1098 1.273 . S
O1110 Nd1081 2.410 . S
O1110 C1099 1.251 . S
O1111 Nd1080 2.424 . S
O1111 C1099 1.268 . S
H1112 C1084 0.930 . S
H1113 C1085 0.929 . S
H1114 C1087 0.930 . S
H1115 C1088 0.929 . S
H1116 C1093 0.930 . S
H1117 C1094 0.929 . S
H1118 C1096 0.930 . S
H1119 C1097 0.929 . S
Nd1120 C1122 2.836 . S
Nd1120 O1140 2.500 . S
Nd1120 O1141 2.492 . S
Nd1120 O1142 2.487 . S
Nd1120 O1143 2.682 . S
Nd1120 O1144 2.410 . S
Nd1120 O1149 2.414 . S
Nd1120 O1151 2.424 . S
Nd1121 C1131 2.836 . S
Nd1121 O1143 2.414 . S
Nd1121 O1145 2.424 . S
Nd1121 O1146 2.500 . S
Nd1121 O1147 2.492 . S
Nd1121 O1148 2.487 . S
Nd1121 O1149 2.682 . S
Nd1121 O1150 2.410 . S
C1122 Nd1120 2.836 . S
C1122 C1123 1.498 . S
C1122 O1140 1.258 . S
C1122 O1141 1.239 . S
C1123 C1122 1.498 . S
C1123 C1124 1.366 . S
C1123 C1128 1.407 . S
C1124 C1123 1.366 . S
C1124 C1125 1.392 . S
C1124 H1152 0.930 . S
C1125 C1124 1.392 . S
C1125 C1126 1.398 . S
C1125 H1153 0.929 . S
C1126 C1125 1.398 . S
C1126 C1127 1.352 . S
C1127 C1126 1.352 . S
C1127 C1128 1.384 . S
C1127 H1154 0.930 . S
C1128 C1123 1.407 . S
C1128 C1127 1.384 . S
C1128 H1155 0.929 . S
C1129 O1142 1.241 . S
C1129 O1143 1.273 . S
C1130 O1144 1.251 . S
C1130 O1145 1.268 . S
C1131 Nd1121 2.836 . S
C1131 C1132 1.498 . S
C1131 O1146 1.258 . S
C1131 O1147 1.239 . S
C1132 C1131 1.498 . S
C1132 C1133 1.366 . S
C1132 C1137 1.407 . S
C1133 C1132 1.366 . S
C1133 C1134 1.392 . S
C1133 H1156 0.930 . S
C1134 C1133 1.392 . S
C1134 C1135 1.398 . S
C1134 H1157 0.929 . S
C1135 C1134 1.398 . S
C1135 C1136 1.352 . S
C1136 C1135 1.352 . S
C1136 C1137 1.384 . S
C1136 H1158 0.930 . S
C1137 C1132 1.407 . S
C1137 C1136 1.384 . S
C1137 H1159 0.929 . S
C1138 O1148 1.241 . S
C1138 O1149 1.273 . S
C1139 O1150 1.251 . S
C1139 O1151 1.268 . S
O1140 Nd1120 2.500 . S
O1140 C1122 1.258 . S
O1141 Nd1120 2.492 . S
O1141 C1122 1.239 . S
O1142 Nd1120 2.487 . S
O1142 C1129 1.241 . S
O1143 Nd1120 2.682 . S
O1143 Nd1121 2.414 . S
O1143 C1129 1.273 . S
O1144 Nd1120 2.410 . S
O1144 C1130 1.251 . S
O1145 Nd1121 2.424 . S
O1145 C1130 1.268 . S
O1146 Nd1121 2.500 . S
O1146 C1131 1.258 . S
O1147 Nd1121 2.492 . S
O1147 C1131 1.239 . S
O1148 Nd1121 2.487 . S
O1148 C1138 1.241 . S
O1149 Nd1120 2.414 . S
O1149 Nd1121 2.682 . S
O1149 C1138 1.273 . S
O1150 Nd1121 2.410 . S
O1150 C1139 1.251 . S
O1151 Nd1120 2.424 . S
O1151 C1139 1.268 . S
H1152 C1124 0.930 . S
H1153 C1125 0.929 . S
H1154 C1127 0.930 . S
H1155 C1128 0.929 . S
H1156 C1133 0.930 . S
H1157 C1134 0.929 . S
H1158 C1136 0.930 . S
H1159 C1137 0.929 . S
Nd1160 C1162 2.836 . S
Nd1160 O1180 2.500 . S
Nd1160 O1181 2.492 . S
Nd1160 O1182 2.487 . S
Nd1160 O1183 2.682 . S
Nd1160 O1184 2.410 . S
Nd1160 O1189 2.414 . S
Nd1160 O1191 2.424 . S
Nd1161 C1171 2.836 . S
Nd1161 O1183 2.414 . S
Nd1161 O1185 2.424 . S
Nd1161 O1186 2.500 . S
Nd1161 O1187 2.492 . S
Nd1161 O1188 2.487 . S
Nd1161 O1189 2.682 . S
Nd1161 O1190 2.410 . S
C1162 Nd1160 2.836 . S
C1162 C1163 1.498 . S
C1162 O1180 1.258 . S
C1162 O1181 1.239 . S
C1163 C1162 1.498 . S
C1163 C1164 1.366 . S
C1163 C1168 1.407 . S
C1164 C1163 1.366 . S
C1164 C1165 1.392 . S
C1164 H1192 0.930 . S
C1165 C1164 1.392 . S
C1165 C1166 1.398 . S
C1165 H1193 0.929 . S
C1166 C1165 1.398 . S
C1166 C1167 1.352 . S
C1167 C1166 1.352 . S
C1167 C1168 1.384 . S
C1167 H1194 0.930 . S
C1168 C1163 1.407 . S
C1168 C1167 1.384 . S
C1168 H1195 0.929 . S
C1169 O1182 1.241 . S
C1169 O1183 1.273 . S
C1170 O1184 1.251 . S
C1170 O1185 1.268 . S
C1171 Nd1161 2.836 . S
C1171 C1172 1.498 1_554 S
C1171 O1186 1.258 . S
C1171 O1187 1.239 . S
C1172 C1171 1.498 1_556 S
C1172 C1173 1.366 . S
C1172 C1177 1.407 . S
C1173 C1172 1.366 . S
C1173 C1174 1.392 . S
C1173 H1196 0.930 . S
C1174 C1173 1.392 . S
C1174 C1175 1.398 . S
C1174 H1197 0.929 . S
C1175 C1174 1.398 . S
C1175 C1176 1.352 . S
C1176 C1175 1.352 . S
C1176 C1177 1.384 . S
C1176 H1198 0.930 . S
C1177 C1172 1.407 . S
C1177 C1176 1.384 . S
C1177 H1199 0.929 . S
C1178 O1188 1.241 . S
C1178 O1189 1.273 . S
C1179 O1190 1.251 . S
C1179 O1191 1.268 . S
O1180 Nd1160 2.500 . S
O1180 C1162 1.258 . S
O1181 Nd1160 2.492 . S
O1181 C1162 1.239 . S
O1182 Nd1160 2.487 . S
O1182 C1169 1.241 . S
O1183 Nd1160 2.682 . S
O1183 Nd1161 2.414 . S
O1183 C1169 1.273 . S
O1184 Nd1160 2.410 . S
O1184 C1170 1.251 . S
O1185 Nd1161 2.424 . S
O1185 C1170 1.268 . S
O1186 Nd1161 2.500 . S
O1186 C1171 1.258 . S
O1187 Nd1161 2.492 . S
O1187 C1171 1.239 . S
O1188 Nd1161 2.487 . S
O1188 C1178 1.241 . S
O1189 Nd1160 2.414 . S
O1189 Nd1161 2.682 . S
O1189 C1178 1.273 . S
O1190 Nd1161 2.410 . S
O1190 C1179 1.251 . S
O1191 Nd1160 2.424 . S
O1191 C1179 1.268 . S
H1192 C1164 0.930 . S
H1193 C1165 0.929 . S
H1194 C1167 0.930 . S
H1195 C1168 0.929 . S
H1196 C1173 0.930 . S
H1197 C1174 0.929 . S
H1198 C1176 0.930 . S
H1199 C1177 0.929 . S
Nd1200 C1202 2.836 . S
Nd1200 O1220 2.500 . S
Nd1200 O1221 2.492 . S
Nd1200 O1222 2.487 . S
Nd1200 O1223 2.682 . S
Nd1200 O1224 2.410 . S
Nd1200 O1229 2.414 . S
Nd1200 O1231 2.424 . S
Nd1201 C1211 2.836 . S
Nd1201 O1223 2.414 . S
Nd1201 O1225 2.424 . S
Nd1201 O1226 2.500 . S
Nd1201 O1227 2.492 . S
Nd1201 O1228 2.487 . S
Nd1201 O1229 2.682 . S
Nd1201 O1230 2.410 . S
C1202 Nd1200 2.836 . S
C1202 C1203 1.498 . S
C1202 O1220 1.258 . S
C1202 O1221 1.239 . S
C1203 C1202 1.498 . S
C1203 C1204 1.366 . S
C1203 C1208 1.407 . S
C1204 C1203 1.366 . S
C1204 C1205 1.392 . S
C1204 H1232 0.930 . S
C1205 C1204 1.392 . S
C1205 C1206 1.398 . S
C1205 H1233 0.929 . S
C1206 C1205 1.398 . S
C1206 C1207 1.352 . S
C1207 C1206 1.352 . S
C1207 C1208 1.384 . S
C1207 H1234 0.930 . S
C1208 C1203 1.407 . S
C1208 C1207 1.384 . S
C1208 H1235 0.929 . S
C1209 O1222 1.241 . S
C1209 O1223 1.273 . S
C1210 O1224 1.251 . S
C1210 O1225 1.268 . S
C1211 Nd1201 2.836 . S
C1211 C1212 1.498 . S
C1211 O1226 1.258 . S
C1211 O1227 1.239 . S
C1212 C1211 1.498 . S
C1212 C1213 1.366 . S
C1212 C1217 1.407 . S
C1213 C1212 1.366 . S
C1213 C1214 1.392 . S
C1213 H1236 0.930 . S
C1214 C1213 1.392 . S
C1214 C1215 1.398 . S
C1214 H1237 0.929 . S
C1215 C1214 1.398 . S
C1215 C1216 1.352 . S
C1216 C1215 1.352 . S
C1216 C1217 1.384 . S
C1216 H1238 0.930 . S
C1217 C1212 1.407 . S
C1217 C1216 1.384 . S
C1217 H1239 0.929 . S
C1218 O1228 1.241 . S
C1218 O1229 1.273 . S
C1219 O1230 1.251 . S
C1219 O1231 1.268 . S
O1220 Nd1200 2.500 . S
O1220 C1202 1.258 . S
O1221 Nd1200 2.492 . S
O1221 C1202 1.239 . S
O1222 Nd1200 2.487 . S
O1222 C1209 1.241 . S
O1223 Nd1200 2.682 . S
O1223 Nd1201 2.414 . S
O1223 C1209 1.273 . S
O1224 Nd1200 2.410 . S
O1224 C1210 1.251 . S
O1225 Nd1201 2.424 . S
O1225 C1210 1.268 . S
O1226 Nd1201 2.500 . S
O1226 C1211 1.258 . S
O1227 Nd1201 2.492 . S
O1227 C1211 1.239 . S
O1228 Nd1201 2.487 . S
O1228 C1218 1.241 . S
O1229 Nd1200 2.414 . S
O1229 Nd1201 2.682 . S
O1229 C1218 1.273 . S
O1230 Nd1201 2.410 . S
O1230 C1219 1.251 . S
O1231 Nd1200 2.424 . S
O1231 C1219 1.268 . S
H1232 C1204 0.930 . S
H1233 C1205 0.929 . S
H1234 C1207 0.930 . S
H1235 C1208 0.929 . S
H1236 C1213 0.930 . S
H1237 C1214 0.929 . S
H1238 C1216 0.930 . S
H1239 C1217 0.929 . S
Nd1240 C1242 2.836 . S
Nd1240 O1260 2.500 . S
Nd1240 O1261 2.492 . S
Nd1240 O1262 2.487 . S
Nd1240 O1263 2.682 . S
Nd1240 O1264 2.410 . S
Nd1240 O1269 2.414 . S
Nd1240 O1271 2.424 . S
Nd1241 C1251 2.836 . S
Nd1241 O1263 2.414 . S
Nd1241 O1265 2.424 . S
Nd1241 O1266 2.500 . S
Nd1241 O1267 2.492 . S
Nd1241 O1268 2.487 . S
Nd1241 O1269 2.682 . S
Nd1241 O1270 2.410 . S
C1242 Nd1240 2.836 . S
C1242 C1243 1.498 . S
C1242 O1260 1.258 . S
C1242 O1261 1.239 . S
C1243 C1242 1.498 . S
C1243 C1244 1.366 . S
C1243 C1248 1.407 . S
C1244 C1243 1.366 . S
C1244 C1245 1.392 . S
C1244 H1272 0.930 . S
C1245 C1244 1.392 . S
C1245 C1246 1.398 . S
C1245 H1273 0.929 . S
C1246 C1245 1.398 . S
C1246 C1247 1.352 . S
C1247 C1246 1.352 . S
C1247 C1248 1.384 . S
C1247 H1274 0.930 . S
C1248 C1243 1.407 . S
C1248 C1247 1.384 . S
C1248 H1275 0.929 . S
C1249 O1262 1.241 . S
C1249 O1263 1.273 . S
C1250 O1264 1.251 . S
C1250 O1265 1.268 . S
C1251 Nd1241 2.836 . S
C1251 C1252 1.498 . S
C1251 O1266 1.258 . S
C1251 O1267 1.239 . S
C1252 C1251 1.498 . S
C1252 C1253 1.366 . S
C1252 C1257 1.407 . S
C1253 C1252 1.366 . S
C1253 C1254 1.392 . S
C1253 H1276 0.930 . S
C1254 C1253 1.392 . S
C1254 C1255 1.398 . S
C1254 H1277 0.929 . S
C1255 C1254 1.398 . S
C1255 C1256 1.352 . S
C1256 C1255 1.352 . S
C1256 C1257 1.384 . S
C1256 H1278 0.930 . S
C1257 C1252 1.407 . S
C1257 C1256 1.384 . S
C1257 H1279 0.929 . S
C1258 O1268 1.241 . S
C1258 O1269 1.273 . S
C1259 O1270 1.251 . S
C1259 O1271 1.268 . S
O1260 Nd1240 2.500 . S
O1260 C1242 1.258 . S
O1261 Nd1240 2.492 . S
O1261 C1242 1.239 . S
O1262 Nd1240 2.487 . S
O1262 C1249 1.241 . S
O1263 Nd1240 2.682 . S
O1263 Nd1241 2.414 . S
O1263 C1249 1.273 . S
O1264 Nd1240 2.410 . S
O1264 C1250 1.251 . S
O1265 Nd1241 2.424 . S
O1265 C1250 1.268 . S
O1266 Nd1241 2.500 . S
O1266 C1251 1.258 . S
O1267 Nd1241 2.492 . S
O1267 C1251 1.239 . S
O1268 Nd1241 2.487 . S
O1268 C1258 1.241 . S
O1269 Nd1240 2.414 . S
O1269 Nd1241 2.682 . S
O1269 C1258 1.273 . S
O1270 Nd1241 2.410 . S
O1270 C1259 1.251 . S
O1271 Nd1240 2.424 . S
O1271 C1259 1.268 . S
H1272 C1244 0.930 . S
H1273 C1245 0.929 . S
H1274 C1247 0.930 . S
H1275 C1248 0.929 . S
H1276 C1253 0.930 . S
H1277 C1254 0.929 . S
H1278 C1256 0.930 . S
H1279 C1257 0.929 . S
C1280 C1281 1.349 . S
C1280 C1282 1.327 . S
C1280 H1305 0.950 . S
C1281 C1280 1.349 . S
C1281 C1297 1.349 . S
C1282 C1280 1.327 . S
C1282 C1301 1.429 . S
C1282 H1306 0.950 . S
C1283 C1300 1.574 . S
C1283 C1302 1.368 . S
C1283 H1307 0.949 . S
H1284 C1288 0.949 . S
C1285 C1286 1.349 . S
C1285 C1287 1.327 . S
C1285 H1308 0.950 . S
C1286 C1285 1.349 . S
C1286 C1298 1.349 . S
C1287 C1285 1.327 . S
C1287 C1303 1.429 . S
C1287 H1309 0.950 . S
C1288 H1284 0.949 . S
C1288 C1296 1.574 . S
C1288 C1304 1.368 . S
H1289 C1297 0.950 . S
H1290 C1295 0.950 . S
H1291 C1296 0.949 . S
H1292 C1298 0.950 . S
H1293 C1299 0.950 . S
H1294 C1300 0.949 . S
C1295 H1290 0.950 . S
C1295 C1297 1.327 . S
C1295 C1301 1.429 . S
C1296 C1288 1.574 . S
C1296 H1291 0.949 . S
C1296 C1302 1.368 . S
C1297 C1281 1.349 . S
C1297 H1289 0.950 . S
C1297 C1295 1.327 . S
C1298 C1286 1.349 . S
C1298 H1292 0.950 . S
C1298 C1299 1.327 . S
C1299 H1293 0.950 . S
C1299 C1298 1.327 . S
C1299 C1303 1.429 . S
C1300 C1283 1.574 . S
C1300 H1294 0.949 . S
C1300 C1304 1.368 . S
C1301 C1282 1.429 . S
C1301 C1295 1.429 . S
C1301 C1302 1.523 . S
C1302 C1283 1.368 . S
C1302 C1296 1.368 . S
C1302 C1301 1.523 . S
C1303 C1287 1.429 . S
C1303 C1299 1.429 . S
C1303 C1304 1.523 . S
C1304 C1288 1.368 . S
C1304 C1300 1.368 . S
C1304 C1303 1.523 . S
H1305 C1280 0.950 . S
H1306 C1282 0.950 . S
H1307 C1283 0.949 . S
H1308 C1285 0.950 . S
H1309 C1287 0.950 . S
C1310 C1311 1.349 . S
C1310 C1312 1.327 . S
C1310 H1335 0.950 . S
C1311 C1310 1.349 . S
C1311 C1327 1.349 . S
C1312 C1310 1.327 . S
C1312 C1331 1.429 . S
C1312 H1336 0.950 . S
C1313 C1330 1.574 . S
C1313 C1332 1.368 . S
C1313 H1337 0.949 . S
H1314 C1318 0.949 . S
C1315 C1316 1.349 . S
C1315 C1317 1.327 . S
C1315 H1338 0.950 . S
C1316 C1315 1.349 . S
C1316 C1328 1.349 . S
C1317 C1315 1.327 . S
C1317 C1333 1.429 . S
C1317 H1339 0.950 . S
C1318 H1314 0.949 . S
C1318 C1326 1.574 . S
C1318 C1334 1.368 . S
H1319 C1327 0.950 . S
H1320 C1325 0.950 1_565 S
H1321 C1326 0.949 1_545 S
H1322 C1328 0.950 . S
H1323 C1329 0.950 . S
H1324 C1330 0.949 . S
C1325 H1320 0.950 1_545 S
C1325 C1327 1.327 . S
C1325 C1331 1.429 . S
C1326 C1318 1.574 . S
C1326 H1321 0.949 1_565 S
C1326 C1332 1.368 . S
C1327 C1311 1.349 . S
C1327 H1319 0.950 . S
C1327 C1325 1.327 . S
C1328 C1316 1.349 . S
C1328 H1322 0.950 . S
C1328 C1329 1.327 . S
C1329 H1323 0.950 . S
C1329 C1328 1.327 . S
C1329 C1333 1.429 . S
C1330 C1313 1.574 . S
C1330 H1324 0.949 . S
C1330 C1334 1.368 . S
C1331 C1312 1.429 . S
C1331 C1325 1.429 . S
C1331 C1332 1.523 1_545 S
C1332 C1313 1.368 . S
C1332 C1326 1.368 . S
C1332 C1331 1.523 1_565 S
C1333 C1317 1.429 . S
C1333 C1329 1.429 . S
C1333 C1334 1.523 . S
C1334 C1318 1.368 . S
C1334 C1330 1.368 . S
C1334 C1333 1.523 . S
H1335 C1310 0.950 . S
H1336 C1312 0.950 . S
H1337 C1313 0.949 . S
H1338 C1315 0.950 . S
H1339 C1317 0.950 . S
C1340 C1341 1.349 . S
C1340 C1342 1.327 . S
C1340 H1365 0.950 . S
C1341 C1340 1.349 . S
C1341 C1357 1.349 . S
C1342 C1340 1.327 . S
C1342 C1361 1.429 . S
C1342 H1366 0.950 . S
C1343 C1360 1.574 . S
C1343 C1362 1.368 . S
C1343 H1367 0.949 . S
H1344 C1348 0.949 . S
C1345 C1346 1.349 . S
C1345 C1347 1.327 . S
C1345 H1368 0.950 . S
C1346 C1345 1.349 . S
C1346 C1358 1.349 . S
C1347 C1345 1.327 . S
C1347 C1363 1.429 . S
C1347 H1369 0.950 . S
C1348 H1344 0.949 . S
C1348 C1356 1.574 . S
C1348 C1364 1.368 . S
H1349 C1357 0.950 . S
H1350 C1355 0.950 . S
H1351 C1356 0.949 . S
H1352 C1358 0.950 . S
H1353 C1359 0.950 . S
H1354 C1360 0.949 . S
C1355 H1350 0.950 . S
C1355 C1357 1.327 . S
C1355 C1361 1.429 . S
C1356 C1348 1.574 . S
C1356 H1351 0.949 . S
C1356 C1362 1.368 . S
C1357 C1341 1.349 . S
C1357 H1349 0.950 . S
C1357 C1355 1.327 . S
C1358 C1346 1.349 . S
C1358 H1352 0.950 . S
C1358 C1359 1.327 . S
C1359 H1353 0.950 . S
C1359 C1358 1.327 . S
C1359 C1363 1.429 . S
C1360 C1343 1.574 . S
C1360 H1354 0.949 . S
C1360 C1364 1.368 . S
C1361 C1342 1.429 . S
C1361 C1355 1.429 . S
C1361 C1362 1.523 . S
C1362 C1343 1.368 . S
C1362 C1356 1.368 . S
C1362 C1361 1.523 . S
C1363 C1347 1.429 . S
C1363 C1359 1.429 . S
C1363 C1364 1.523 . S
C1364 C1348 1.368 . S
C1364 C1360 1.368 . S
C1364 C1363 1.523 . S
H1365 C1340 0.950 . S
H1366 C1342 0.950 . S
H1367 C1343 0.949 . S
H1368 C1345 0.950 . S
H1369 C1347 0.950 . S
C1370 C1371 1.349 . S
C1370 C1372 1.327 . S
C1370 H1395 0.950 . S
C1371 C1370 1.349 . S
C1371 C1387 1.349 . S
C1372 C1370 1.327 . S
C1372 C1391 1.429 . S
C1372 H1396 0.950 . S
C1373 C1390 1.574 . S
C1373 C1392 1.368 . S
C1373 H1397 0.949 . S
H1374 C1378 0.949 1_554 S
C1375 C1376 1.349 . S
C1375 C1377 1.327 1_554 S
C1375 H1398 0.950 . S
C1376 C1375 1.349 . S
C1376 C1388 1.349 . S
C1377 C1375 1.327 1_556 S
C1377 C1393 1.429 . S
C1377 H1399 0.950 . S
C1378 H1374 0.949 1_556 S
C1378 C1386 1.574 . S
C1378 C1394 1.368 . S
H1379 C1387 0.950 . S
H1380 C1385 0.924 1_545 S
H1381 C1386 0.949 1_565 S
H1382 C1388 0.950 . S
H1383 C1389 0.950 . S
H1384 C1390 0.949 . S
C1385 H1380 0.924 1_565 S
C1385 C1387 1.348 . S
C1385 C1391 1.433 . S
C1386 C1378 1.574 . S
C1386 H1381 0.949 1_545 S
C1386 C1392 1.368 . S
C1387 C1371 1.349 . S
C1387 H1379 0.950 . S
C1387 C1385 1.348 . S
C1388 C1376 1.349 . S
C1388 H1382 0.950 . S
C1388 C1389 1.327 . S
C1389 H1383 0.950 . S
C1389 C1388 1.327 . S
C1389 C1393 1.429 1_554 S
C1390 C1373 1.574 . S
C1390 H1384 0.949 . S
C1390 C1394 1.368 . S
C1391 C1372 1.429 . S
C1391 C1385 1.433 . S
C1391 C1392 1.523 1_565 S
C1392 C1373 1.368 . S
C1392 C1386 1.368 . S
C1392 C1391 1.523 1_545 S
C1393 C1377 1.429 . S
C1393 C1389 1.429 1_556 S
C1393 C1394 1.523 . S
C1394 C1378 1.368 . S
C1394 C1390 1.368 . S
C1394 C1393 1.523 . S
H1395 C1370 0.950 . S
H1396 C1372 0.950 . S
H1397 C1373 0.949 . S
H1398 C1375 0.950 . S
H1399 C1377 0.950 . S
C1400 C1401 1.349 . S
C1400 C1402 1.327 . S
C1400 H1425 0.950 . S
C1401 C1400 1.349 . S
C1401 C1417 1.349 . S
C1402 C1400 1.327 . S
C1402 C1421 1.429 . S
C1402 H1426 0.950 . S
C1403 C1420 1.574 . S
C1403 C1422 1.368 . S
C1403 H1427 0.949 . S
H1404 C1408 0.949 . S
C1405 C1406 1.349 . S
C1405 C1407 1.327 . S
C1405 H1428 0.950 . S
C1406 C1405 1.349 . S
C1406 C1418 1.349 . S
C1407 C1405 1.327 . S
C1407 C1423 1.429 . S
C1407 H1429 0.950 . S
C1408 H1404 0.949 . S
C1408 C1416 1.574 . S
C1408 C1424 1.368 . S
H1409 C1417 0.950 . S
H1410 C1415 0.950 . S
H1411 C1416 0.949 . S
H1412 C1418 0.950 . S
H1413 C1419 0.950 . S
H1414 C1420 0.949 . S
C1415 H1410 0.950 . S
C1415 C1417 1.327 . S
C1415 C1421 1.429 . S
C1416 C1408 1.574 . S
C1416 H1411 0.949 . S
C1416 C1422 1.368 . S
C1417 C1401 1.349 . S
C1417 H1409 0.950 . S
C1417 C1415 1.327 . S
C1418 C1406 1.349 . S
C1418 H1412 0.950 . S
C1418 C1419 1.327 . S
C1419 H1413 0.950 . S
C1419 C1418 1.327 . S
C1419 C1423 1.429 . S
C1420 C1403 1.574 . S
C1420 H1414 0.949 . S
C1420 C1424 1.368 . S
C1421 C1402 1.429 . S
C1421 C1415 1.429 . S
C1421 C1422 1.523 . S
C1422 C1403 1.368 . S
C1422 C1416 1.368 . S
C1422 C1421 1.523 . S
C1423 C1407 1.429 . S
C1423 C1419 1.429 . S
C1423 C1424 1.523 . S
C1424 C1408 1.368 . S
C1424 C1420 1.368 . S
C1424 C1423 1.523 . S
H1425 C1400 0.950 . S
H1426 C1402 0.950 . S
H1427 C1403 0.949 . S
H1428 C1405 0.950 . S
H1429 C1407 0.950 . S
C1430 C1431 1.349 . S
C1430 C1432 1.327 . S
C1430 H1455 0.950 . S
C1431 C1430 1.349 . S
C1431 C1447 1.349 . S
C1432 C1430 1.327 . S
C1432 C1451 1.429 . S
C1432 H1456 0.950 . S
C1433 C1450 1.574 . S
C1433 C1452 1.368 . S
C1433 H1457 0.949 . S
H1434 C1438 0.949 1_545 S
C1435 C1436 1.349 . S
C1435 C1437 1.316 1_545 S
C1435 H1458 0.950 . S
C1436 C1435 1.349 . S
C1436 C1448 1.349 . S
C1437 C1435 1.316 1_565 S
C1437 C1453 1.426 1_565 S
C1437 H1459 0.964 . S
C1438 H1434 0.949 1_565 S
C1438 C1446 1.574 . S
C1438 C1454 1.368 . S
H1439 C1447 0.950 . S
H1440 C1445 0.950 . S
H1441 C1446 0.949 . S
H1442 C1448 0.950 . S
H1443 C1449 0.950 . S
H1444 C1450 0.949 . S
C1445 H1440 0.950 . S
C1445 C1447 1.327 . S
C1445 C1451 1.429 . S
C1446 C1438 1.574 . S
C1446 H1441 0.949 . S
C1446 C1452 1.368 . S
C1447 C1431 1.349 . S
C1447 H1439 0.950 . S
C1447 C1445 1.327 . S
C1448 C1436 1.349 . S
C1448 H1442 0.950 . S
C1448 C1449 1.327 . S
C1449 H1443 0.950 . S
C1449 C1448 1.327 . S
C1449 C1453 1.429 . S
C1450 C1433 1.574 . S
C1450 H1444 0.949 . S
C1450 C1454 1.368 . S
C1451 C1432 1.429 . S
C1451 C1445 1.429 . S
C1451 C1452 1.523 . S
C1452 C1433 1.368 . S
C1452 C1446 1.368 . S
C1452 C1451 1.523 . S
C1453 C1437 1.426 1_545 S
C1453 C1449 1.429 . S
C1453 C1454 1.523 1_545 S
C1454 C1438 1.368 . S
C1454 C1450 1.368 . S
C1454 C1453 1.523 1_565 S
H1455 C1430 0.950 . S
H1456 C1432 0.950 . S
H1457 C1433 0.949 . S
H1458 C1435 0.950 . S
H1459 C1437 0.964 . S
C1460 C1461 1.349 . S
C1460 C1462 1.327 . S
C1460 H1485 0.950 . S
C1461 C1460 1.349 . S
C1461 C1477 1.349 . S
C1462 C1460 1.327 . S
C1462 C1481 1.429 . S
C1462 H1486 0.950 . S
C1463 C1480 1.574 . S
C1463 C1482 1.368 . S
C1463 H1487 0.949 . S
H1464 C1468 0.949 . S
C1465 C1466 1.349 . S
C1465 C1467 1.327 . S
C1465 H1488 0.950 . S
C1466 C1465 1.349 . S
C1466 C1478 1.349 . S
C1467 C1465 1.327 . S
C1467 C1483 1.429 . S
C1467 H1489 0.950 . S
C1468 H1464 0.949 . S
C1468 C1476 1.574 . S
C1468 C1484 1.368 . S
H1469 C1477 0.950 . S
H1470 C1475 0.950 . S
H1471 C1476 0.949 . S
H1472 C1478 0.950 . S
H1473 C1479 0.950 . S
H1474 C1480 0.949 . S
C1475 H1470 0.950 . S
C1475 C1477 1.327 . S
C1475 C1481 1.429 . S
C1476 C1468 1.574 . S
C1476 H1471 0.949 . S
C1476 C1482 1.368 . S
C1477 C1461 1.349 . S
C1477 H1469 0.950 . S
C1477 C1475 1.327 . S
C1478 C1466 1.349 . S
C1478 H1472 0.950 . S
C1478 C1479 1.327 . S
C1479 H1473 0.950 . S
C1479 C1478 1.327 . S
C1479 C1483 1.429 . S
C1480 C1463 1.574 . S
C1480 H1474 0.949 . S
C1480 C1484 1.368 . S
C1481 C1462 1.429 . S
C1481 C1475 1.429 . S
C1481 C1482 1.523 . S
C1482 C1463 1.368 . S
C1482 C1476 1.368 . S
C1482 C1481 1.523 . S
C1483 C1467 1.429 . S
C1483 C1479 1.429 . S
C1483 C1484 1.523 . S
C1484 C1468 1.368 . S
C1484 C1480 1.368 . S
C1484 C1483 1.523 . S
H1485 C1460 0.950 . S
H1486 C1462 0.950 . S
H1487 C1463 0.949 . S
H1488 C1465 0.950 . S
H1489 C1467 0.950 . S
C1490 C1491 1.349 . S
C1490 C1492 1.327 . S
C1490 H1515 0.950 . S
C1491 C1490 1.349 . S
C1491 C1507 1.349 . S
C1492 C1490 1.327 . S
C1492 C1511 1.429 . S
C1492 H1516 0.950 1_565 S
C1493 C1510 1.574 . S
C1493 C1512 1.368 . S
C1493 H1517 0.935 1_545 S
H1494 C1498 0.949 . S
C1495 C1496 1.349 . S
C1495 C1497 1.327 . S
C1495 H1518 0.950 . S
C1496 C1495 1.349 . S
C1496 C1508 1.349 . S
C1497 C1495 1.327 . S
C1497 C1513 1.429 1_556 S
C1497 H1519 0.950 . S
C1498 H1494 0.949 . S
C1498 C1506 1.574 . S
C1498 C1514 1.368 . S
H1499 C1507 0.950 . S
H1500 C1505 0.950 . S
H1501 C1506 0.949 . S
H1502 C1508 0.950 . S
H1503 C1509 0.950 . S
H1504 C1510 0.949 1_556 S
C1505 H1500 0.950 . S
C1505 C1507 1.327 . S
C1505 C1511 1.429 . S
C1506 C1498 1.574 . S
C1506 H1501 0.949 . S
C1506 C1512 1.368 . S
C1507 C1491 1.349 . S
C1507 H1499 0.950 . S
C1507 C1505 1.327 . S
C1508 C1496 1.349 . S
C1508 H1502 0.950 . S
C1508 C1509 1.327 1_556 S
C1509 H1503 0.950 . S
C1509 C1508 1.327 1_554 S
C1509 C1513 1.429 . S
C1510 C1493 1.574 . S
C1510 H1504 0.949 1_554 S
C1510 C1514 1.368 . S
C1511 C1492 1.429 . S
C1511 C1505 1.429 . S
C1511 C1512 1.523 1_565 S
C1512 C1493 1.368 . S
C1512 C1506 1.368 . S
C1512 C1511 1.523 1_545 S
C1513 C1497 1.429 1_554 S
C1513 C1509 1.429 . S
C1513 C1514 1.523 . S
C1514 C1498 1.368 . S
C1514 C1510 1.368 . S
C1514 C1513 1.523 . S
H1515 C1490 0.950 . S
H1516 C1492 0.950 1_545 S
H1517 C1493 0.935 1_565 S
H1518 C1495 0.950 . S
H1519 C1497 0.950 . S
C1520 C1521 1.349 . S
C1520 C1522 1.327 . S
C1520 H1545 0.950 . S
C1521 C1520 1.349 . S
C1521 C1537 1.349 . S
C1522 C1520 1.327 . S
C1522 C1541 1.429 . S
C1522 H1546 0.950 . S
C1523 C1540 1.574 . S
C1523 C1542 1.368 . S
C1523 H1547 0.949 . S
H1524 C1528 0.949 . S
C1525 C1526 1.349 . S
C1525 C1527 1.327 . S
C1525 H1548 0.950 . S
C1526 C1525 1.349 . S
C1526 C1538 1.349 . S
C1527 C1525 1.327 . S
C1527 C1543 1.429 . S
C1527 H1549 0.950 . S
C1528 H1524 0.949 . S
C1528 C1536 1.574 . S
C1528 C1544 1.368 . S
H1529 C1537 0.950 . S
H1530 C1535 0.950 . S
H1531 C1536 0.949 . S
H1532 C1538 0.950 . S
H1533 C1539 0.950 . S
H1534 C1540 0.949 . S
C1535 H1530 0.950 . S
C1535 C1537 1.327 . S
C1535 C1541 1.429 . S
C1536 C1528 1.574 . S
C1536 H1531 0.949 . S
C1536 C1542 1.368 . S
C1537 C1521 1.349 . S
C1537 H1529 0.950 . S
C1537 C1535 1.327 . S
C1538 C1526 1.349 . S
C1538 H1532 0.950 . S
C1538 C1539 1.327 . S
C1539 H1533 0.950 . S
C1539 C1538 1.327 . S
C1539 C1543 1.429 . S
C1540 C1523 1.574 . S
C1540 H1534 0.949 . S
C1540 C1544 1.368 . S
C1541 C1522 1.429 . S
C1541 C1535 1.429 . S
C1541 C1542 1.523 . S
C1542 C1523 1.368 . S
C1542 C1536 1.368 . S
C1542 C1541 1.523 . S
C1543 C1527 1.429 . S
C1543 C1539 1.429 . S
C1543 C1544 1.523 . S
C1544 C1528 1.368 . S
C1544 C1540 1.368 . S
C1544 C1543 1.523 . S
H1545 C1520 0.950 . S
H1546 C1522 0.950 . S
H1547 C1523 0.949 . S
H1548 C1525 0.950 . S
H1549 C1527 0.950 . S
C1550 C1551 1.349 . S
C1550 C1552 1.327 . S
C1550 H1575 0.950 . S
C1551 C1550 1.349 . S
C1551 C1567 1.349 . S
C1552 C1550 1.327 . S
C1552 C1571 1.429 . S
C1552 H1576 0.950 . S
C1553 C1570 1.574 . S
C1553 C1572 1.368 . S
C1553 H1577 0.949 . S
H1554 C1558 0.949 . S
C1555 C1556 1.349 . S
C1555 C1557 1.327 . S
C1555 H1578 0.950 . S
C1556 C1555 1.349 . S
C1556 C1568 1.349 . S
C1557 C1555 1.327 . S
C1557 C1573 1.429 . S
C1557 H1579 0.950 . S
C1558 H1554 0.949 . S
C1558 C1566 1.574 . S
C1558 C1574 1.368 . S
H1559 C1567 0.950 . S
H1560 C1565 0.950 . S
H1561 C1566 0.949 . S
H1562 C1568 0.950 . S
H1563 C1569 0.973 . S
H1564 C1570 0.949 1_565 S
C1565 H1560 0.950 . S
C1565 C1567 1.327 . S
C1565 C1571 1.429 . S
C1566 C1558 1.574 . S
C1566 H1561 0.949 . S
C1566 C1572 1.368 . S
C1567 C1551 1.349 . S
C1567 H1559 0.950 . S
C1567 C1565 1.327 . S
C1568 C1556 1.349 . S
C1568 H1562 0.950 . S
C1568 C1569 1.309 1_565 S
C1569 H1563 0.973 . S
C1569 C1568 1.309 1_545 S
C1569 C1573 1.424 1_545 S
C1570 C1553 1.574 . S
C1570 H1564 0.949 1_545 S
C1570 C1574 1.368 . S
C1571 C1552 1.429 . S
C1571 C1565 1.429 . S
C1571 C1572 1.523 . S
C1572 C1553 1.368 . S
C1572 C1566 1.368 . S
C1572 C1571 1.523 . S
C1573 C1557 1.429 . S
C1573 C1569 1.424 1_565 S
C1573 C1574 1.523 1_565 S
C1574 C1558 1.368 . S
C1574 C1570 1.368 . S
C1574 C1573 1.523 1_545 S
H1575 C1550 0.950 . S
H1576 C1552 0.950 . S
H1577 C1553 0.949 . S
H1578 C1555 0.950 . S
H1579 C1557 0.950 . S
C1580 C1581 1.349 . S
C1580 C1582 1.327 . S
C1580 H1605 0.950 . S
C1581 C1580 1.349 . S
C1581 C1597 1.349 . S
C1582 C1580 1.327 . S
C1582 C1601 1.429 . S
C1582 H1606 0.950 . S
C1583 C1600 1.574 . S
C1583 C1602 1.368 . S
C1583 H1607 0.949 . S
H1584 C1588 0.949 . S
C1585 C1586 1.349 . S
C1585 C1587 1.327 . S
C1585 H1608 0.950 . S
C1586 C1585 1.349 . S
C1586 C1598 1.349 . S
C1587 C1585 1.327 . S
C1587 C1603 1.429 . S
C1587 H1609 0.950 . S
C1588 H1584 0.949 . S
C1588 C1596 1.574 . S
C1588 C1604 1.368 . S
H1589 C1597 0.950 . S
H1590 C1595 0.950 . S
H1591 C1596 0.949 . S
H1592 C1598 0.950 . S
H1593 C1599 0.950 . S
H1594 C1600 0.949 . S
C1595 H1590 0.950 . S
C1595 C1597 1.327 . S
C1595 C1601 1.429 . S
C1596 C1588 1.574 . S
C1596 H1591 0.949 . S
C1596 C1602 1.368 . S
C1597 C1581 1.349 . S
C1597 H1589 0.950 . S
C1597 C1595 1.327 . S
C1598 C1586 1.349 . S
C1598 H1592 0.950 . S
C1598 C1599 1.327 . S
C1599 H1593 0.950 . S
C1599 C1598 1.327 . S
C1599 C1603 1.429 . S
C1600 C1583 1.574 . S
C1600 H1594 0.949 . S
C1600 C1604 1.368 . S
C1601 C1582 1.429 . S
C1601 C1595 1.429 . S
C1601 C1602 1.523 . S
C1602 C1583 1.368 . S
C1602 C1596 1.368 . S
C1602 C1601 1.523 . S
C1603 C1587 1.429 . S
C1603 C1599 1.429 . S
C1603 C1604 1.523 . S
C1604 C1588 1.368 . S
C1604 C1600 1.368 . S
C1604 C1603 1.523 . S
H1605 C1580 0.950 . S
H1606 C1582 0.950 . S
H1607 C1583 0.949 . S
H1608 C1585 0.950 . S
H1609 C1587 0.950 . S
C1610 C1611 1.349 . S
C1610 C1612 1.327 1_556 S
C1610 H1635 0.950 . S
C1611 C1610 1.349 . S
C1611 C1627 1.349 . S
C1612 C1610 1.327 1_554 S
C1612 C1631 1.429 . S
C1612 H1636 0.950 . S
C1613 C1630 1.574 . S
C1613 C1632 1.368 . S
C1613 H1637 0.949 1_554 S
H1614 C1618 0.949 . S
C1615 C1616 1.349 . S
C1615 C1617 1.327 . S
C1615 H1638 0.950 . S
C1616 C1615 1.349 . S
C1616 C1628 1.349 . S
C1617 C1615 1.327 . S
C1617 C1633 1.429 . S
C1617 H1639 0.950 . S
C1618 H1614 0.949 . S
C1618 C1626 1.574 . S
C1618 C1634 1.368 . S
H1619 C1627 0.950 . S
H1620 C1625 0.950 . S
H1621 C1626 0.949 . S
H1622 C1628 0.950 . S
H1623 C1629 0.950 1_565 S
H1624 C1630 0.949 1_545 S
C1625 H1620 0.950 . S
C1625 C1627 1.327 . S
C1625 C1631 1.429 1_556 S
C1626 C1618 1.574 . S
C1626 H1621 0.949 . S
C1626 C1632 1.368 . S
C1627 C1611 1.349 . S
C1627 H1619 0.950 . S
C1627 C1625 1.327 . S
C1628 C1616 1.349 . S
C1628 H1622 0.950 . S
C1628 C1629 1.327 . S
C1629 H1623 0.950 1_545 S
C1629 C1628 1.327 . S
C1629 C1633 1.429 . S
C1630 C1613 1.574 . S
C1630 H1624 0.949 1_565 S
C1630 C1634 1.368 . S
C1631 C1612 1.429 . S
C1631 C1625 1.429 1_554 S
C1631 C1632 1.523 . S
C1632 C1613 1.368 . S
C1632 C1626 1.368 . S
C1632 C1631 1.523 . S
C1633 C1617 1.429 . S
C1633 C1629 1.429 . S
C1633 C1634 1.523 1_545 S
C1634 C1618 1.368 . S
C1634 C1630 1.368 . S
C1634 C1633 1.523 1_565 S
H1635 C1610 0.950 . S
H1636 C1612 0.950 . S
H1637 C1613 0.949 1_556 S
H1638 C1615 0.950 . S
H1639 C1617 0.950 . S
C1640 C1641 1.349 . S
C1640 C1642 1.327 . S
C1640 H1665 0.950 . S
C1641 C1640 1.349 . S
C1641 C1657 1.349 . S
C1642 C1640 1.327 . S
C1642 C1661 1.429 . S
C1642 H1666 0.950 . S
C1643 C1660 1.574 . S
C1643 C1662 1.368 . S
C1643 H1667 0.949 . S
H1644 C1648 0.949 . S
C1645 C1646 1.349 . S
C1645 C1647 1.327 . S
C1645 H1668 0.950 . S
C1646 C1645 1.349 . S
C1646 C1658 1.349 . S
C1647 C1645 1.327 . S
C1647 C1663 1.429 . S
C1647 H1669 0.950 . S
C1648 H1644 0.949 . S
C1648 C1656 1.574 . S
C1648 C1664 1.368 . S
H1649 C1657 0.950 . S
H1650 C1655 0.950 . S
H1651 C1656 0.949 . S
H1652 C1658 0.950 . S
H1653 C1659 0.950 . S
H1654 C1660 0.949 . S
C1655 H1650 0.950 . S
C1655 C1657 1.327 . S
C1655 C1661 1.429 . S
C1656 C1648 1.574 . S
C1656 H1651 0.949 . S
C1656 C1662 1.368 . S
C1657 C1641 1.349 . S
C1657 H1649 0.950 . S
C1657 C1655 1.327 . S
C1658 C1646 1.349 . S
C1658 H1652 0.950 . S
C1658 C1659 1.327 . S
C1659 H1653 0.950 . S
C1659 C1658 1.327 . S
C1659 C1663 1.429 . S
C1660 C1643 1.574 . S
C1660 H1654 0.949 . S
C1660 C1664 1.368 . S
C1661 C1642 1.429 . S
C1661 C1655 1.429 . S
C1661 C1662 1.523 . S
C1662 C1643 1.368 . S
C1662 C1656 1.368 . S
C1662 C1661 1.523 . S
C1663 C1647 1.429 . S
C1663 C1659 1.429 . S
C1663 C1664 1.523 . S
C1664 C1648 1.368 . S
C1664 C1660 1.368 . S
C1664 C1663 1.523 . S
H1665 C1640 0.950 . S
H1666 C1642 0.950 . S
H1667 C1643 0.949 . S
H1668 C1645 0.950 . S
H1669 C1647 0.950 . S
C1670 C1671 1.349 . S
C1670 C1672 1.327 . S
C1670 H1695 0.950 . S
C1671 C1670 1.349 . S
C1671 C1687 1.349 . S
C1672 C1670 1.327 . S
C1672 C1691 1.429 . S
C1672 H1696 0.950 . S
C1673 C1690 1.574 . S
C1673 C1692 1.368 . S
C1673 H1697 0.949 . S
H1674 C1678 0.949 . S
C1675 C1676 1.349 . S
C1675 C1677 1.327 . S
C1675 H1698 0.950 . S
C1676 C1675 1.349 . S
C1676 C1688 1.349 . S
C1677 C1675 1.327 . S
C1677 C1693 1.429 . S
C1677 H1699 0.950 . S
C1678 H1674 0.949 . S
C1678 C1686 1.574 . S
C1678 C1694 1.368 . S
H1679 C1687 0.950 . S
H1680 C1685 0.950 . S
H1681 C1686 0.949 . S
H1682 C1688 0.950 . S
H1683 C1689 0.950 . S
H1684 C1690 0.949 . S
C1685 H1680 0.950 . S
C1685 C1687 1.327 . S
C1685 C1691 1.429 . S
C1686 C1678 1.574 . S
C1686 H1681 0.949 . S
C1686 C1692 1.368 . S
C1687 C1671 1.349 . S
C1687 H1679 0.950 . S
C1687 C1685 1.327 . S
C1688 C1676 1.349 . S
C1688 H1682 0.950 . S
C1688 C1689 1.327 . S
C1689 H1683 0.950 . S
C1689 C1688 1.327 . S
C1689 C1693 1.429 . S
C1690 C1673 1.574 . S
C1690 H1684 0.949 . S
C1690 C1694 1.368 . S
C1691 C1672 1.429 . S
C1691 C1685 1.429 . S
C1691 C1692 1.523 . S
C1692 C1673 1.368 . S
C1692 C1686 1.368 . S
C1692 C1691 1.523 . S
C1693 C1677 1.429 . S
C1693 C1689 1.429 . S
C1693 C1694 1.523 1_565 S
C1694 C1678 1.368 . S
C1694 C1690 1.368 . S
C1694 C1693 1.523 1_545 S
H1695 C1670 0.950 . S
H1696 C1672 0.950 . S
H1697 C1673 0.949 . S
H1698 C1675 0.950 . S
H1699 C1677 0.950 . S
C1700 C1701 1.349 . S
C1700 C1702 1.327 . S
C1700 H1725 0.950 . S
C1701 C1700 1.349 . S
C1701 C1717 1.349 . S
C1702 C1700 1.327 . S
C1702 C1721 1.429 . S
C1702 H1726 0.950 . S
C1703 C1720 1.574 . S
C1703 C1722 1.368 . S
C1703 H1727 0.949 . S
H1704 C1708 0.949 . S
C1705 C1706 1.349 . S
C1705 C1707 1.327 . S
C1705 H1728 0.950 . S
C1706 C1705 1.349 . S
C1706 C1718 1.349 . S
C1707 C1705 1.327 . S
C1707 C1723 1.429 . S
C1707 H1729 0.950 . S
C1708 H1704 0.949 . S
C1708 C1716 1.574 . S
C1708 C1724 1.368 . S
H1709 C1717 0.950 . S
H1710 C1715 0.950 . S
H1711 C1716 0.949 . S
H1712 C1718 0.950 . S
H1713 C1719 0.950 . S
H1714 C1720 0.949 . S
C1715 H1710 0.950 . S
C1715 C1717 1.327 . S
C1715 C1721 1.429 . S
C1716 C1708 1.574 . S
C1716 H1711 0.949 . S
C1716 C1722 1.368 . S
C1717 C1701 1.349 . S
C1717 H1709 0.950 . S
C1717 C1715 1.327 . S
C1718 C1706 1.349 . S
C1718 H1712 0.950 . S
C1718 C1719 1.327 . S
C1719 H1713 0.950 . S
C1719 C1718 1.327 . S
C1719 C1723 1.429 . S
C1720 C1703 1.574 . S
C1720 H1714 0.949 . S
C1720 C1724 1.368 . S
C1721 C1702 1.429 . S
C1721 C1715 1.429 . S
C1721 C1722 1.523 . S
C1722 C1703 1.368 . S
C1722 C1716 1.368 . S
C1722 C1721 1.523 . S
C1723 C1707 1.429 . S
C1723 C1719 1.429 . S
C1723 C1724 1.523 . S
C1724 C1708 1.368 . S
C1724 C1720 1.368 . S
C1724 C1723 1.523 . S
H1725 C1700 0.950 . S
H1726 C1702 0.950 . S
H1727 C1703 0.949 . S
H1728 C1705 0.950 . S
H1729 C1707 0.950 . S
C1730 C1731 1.349 . S
C1730 C1732 1.327 . S
C1730 H1755 0.950 . S
C1731 C1730 1.349 . S
C1731 C1747 1.349 . S
C1732 C1730 1.327 . S
C1732 C1751 1.429 . S
C1732 H1756 0.950 1_545 S
C1733 C1750 1.574 . S
C1733 C1752 1.368 . S
C1733 H1757 0.949 1_565 S
H1734 C1738 0.949 . S
C1735 C1736 1.349 . S
C1735 C1737 1.327 . S
C1735 H1758 0.950 . S
C1736 C1735 1.349 . S
C1736 C1748 1.349 . S
C1737 C1735 1.327 . S
C1737 C1753 1.429 1_554 S
C1737 H1759 0.950 . S
C1738 H1734 0.949 . S
C1738 C1746 1.574 . S
C1738 C1754 1.368 . S
H1739 C1747 0.950 . S
H1740 C1745 0.950 . S
H1741 C1746 0.949 . S
H1742 C1748 0.950 . S
H1743 C1749 0.950 . S
H1744 C1750 0.949 . S
C1745 H1740 0.950 . S
C1745 C1747 1.327 . S
C1745 C1751 1.429 . S
C1746 C1738 1.574 . S
C1746 H1741 0.949 . S
C1746 C1752 1.368 . S
C1747 C1731 1.349 . S
C1747 H1739 0.950 . S
C1747 C1745 1.327 . S
C1748 C1736 1.349 . S
C1748 H1742 0.950 . S
C1748 C1749 1.327 1_554 S
C1749 H1743 0.950 . S
C1749 C1748 1.327 1_556 S
C1749 C1753 1.429 . S
C1750 C1733 1.574 . S
C1750 H1744 0.949 . S
C1750 C1754 1.368 . S
C1751 C1732 1.429 . S
C1751 C1745 1.429 . S
C1751 C1752 1.523 1_545 S
C1752 C1733 1.368 . S
C1752 C1746 1.368 . S
C1752 C1751 1.523 1_565 S
C1753 C1737 1.429 1_556 S
C1753 C1749 1.429 . S
C1753 C1754 1.523 . S
C1754 C1738 1.368 . S
C1754 C1750 1.368 . S
C1754 C1753 1.523 . S
H1755 C1730 0.950 . S
H1756 C1732 0.950 1_565 S
H1757 C1733 0.949 1_545 S
H1758 C1735 0.950 . S
H1759 C1737 0.950 . S
C1760 C1761 1.349 . S
C1760 C1762 1.327 . S
C1760 H1785 0.950 . S
C1761 C1760 1.349 . S
C1761 C1777 1.349 . S
C1762 C1760 1.327 . S
C1762 C1781 1.429 . S
C1762 H1786 0.950 . S
C1763 C1780 1.574 . S
C1763 C1782 1.368 . S
C1763 H1787 0.949 . S
H1764 C1768 0.949 . S
C1765 C1766 1.349 . S
C1765 C1767 1.327 . S
C1765 H1788 0.950 . S
C1766 C1765 1.349 . S
C1766 C1778 1.349 . S
C1767 C1765 1.327 . S
C1767 C1783 1.429 . S
C1767 H1789 0.950 . S
C1768 H1764 0.949 . S
C1768 C1776 1.574 . S
C1768 C1784 1.368 . S
H1769 C1777 0.950 . S
H1770 C1775 0.950 . S
H1771 C1776 0.949 . S
H1772 C1778 0.950 . S
H1773 C1779 0.950 . S
H1774 C1780 0.949 . S
C1775 H1770 0.950 . S
C1775 C1777 1.327 . S
C1775 C1781 1.429 . S
C1776 C1768 1.574 . S
C1776 H1771 0.949 . S
C1776 C1782 1.368 . S
C1777 C1761 1.349 . S
C1777 H1769 0.950 . S
C1777 C1775 1.327 . S
C1778 C1766 1.349 . S
C1778 H1772 0.950 . S
C1778 C1779 1.327 . S
C1779 H1773 0.950 . S
C1779 C1778 1.327 . S
C1779 C1783 1.429 . S
C1780 C1763 1.574 . S
C1780 H1774 0.949 . S
C1780 C1784 1.368 . S
C1781 C1762 1.429 . S
C1781 C1775 1.429 . S
C1781 C1782 1.523 . S
C1782 C1763 1.368 . S
C1782 C1776 1.368 . S
C1782 C1781 1.523 . S
C1783 C1767 1.429 . S
C1783 C1779 1.429 . S
C1783 C1784 1.523 . S
C1784 C1768 1.368 . S
C1784 C1780 1.368 . S
C1784 C1783 1.523 . S
H1785 C1760 0.950 . S
H1786 C1762 0.950 . S
H1787 C1763 0.949 . S
H1788 C1765 0.950 . S
H1789 C1767 0.950 . S
C1790 C1791 1.349 . S
C1790 C1792 1.327 . S
C1790 H1815 0.950 . S
C1791 C1790 1.349 . S
C1791 C1807 1.349 . S
C1792 C1790 1.327 . S
C1792 C1811 1.429 . S
C1792 H1816 0.950 . S
C1793 C1810 1.574 . S
C1793 C1812 1.368 . S
C1793 H1817 0.949 . S
H1794 C1798 0.949 . S
C1795 C1796 1.349 . S
C1795 C1797 1.327 . S
C1795 H1818 0.950 . S
C1796 C1795 1.349 . S
C1796 C1808 1.349 . S
C1797 C1795 1.327 . S
C1797 C1813 1.429 1_554 S
C1797 H1819 0.950 . S
C1798 H1794 0.949 . S
C1798 C1806 1.574 . S
C1798 C1814 1.368 . S
H1799 C1807 0.950 . S
H1800 C1805 0.950 . S
H1801 C1806 0.949 . S
H1802 C1808 0.950 . S
H1803 C1809 0.950 . S
H1804 C1810 0.949 1_554 S
C1805 H1800 0.950 . S
C1805 C1807 1.327 . S
C1805 C1811 1.429 . S
C1806 C1798 1.574 . S
C1806 H1801 0.949 . S
C1806 C1812 1.368 . S
C1807 C1791 1.349 . S
C1807 H1799 0.950 . S
C1807 C1805 1.327 . S
C1808 C1796 1.349 . S
C1808 H1802 0.950 . S
C1808 C1809 1.327 1_554 S
C1809 H1803 0.950 . S
C1809 C1808 1.327 1_556 S
C1809 C1813 1.429 . S
C1810 C1793 1.574 . S
C1810 H1804 0.949 1_556 S
C1810 C1814 1.368 . S
C1811 C1792 1.429 . S
C1811 C1805 1.429 . S
C1811 C1812 1.523 . S
C1812 C1793 1.368 . S
C1812 C1806 1.368 . S
C1812 C1811 1.523 . S
C1813 C1797 1.429 1_556 S
C1813 C1809 1.429 . S
C1813 C1814 1.523 . S
C1814 C1798 1.368 . S
C1814 C1810 1.368 . S
C1814 C1813 1.523 . S
H1815 C1790 0.950 . S
H1816 C1792 0.950 . S
H1817 C1793 0.949 . S
H1818 C1795 0.950 . S
H1819 C1797 0.950 . S
C1820 C1821 1.349 . S
C1820 C1822 1.327 . S
C1820 H1845 0.950 . S
C1821 C1820 1.349 . S
C1821 C1837 1.349 . S
C1822 C1820 1.327 . S
C1822 C1841 1.429 . S
C1822 H1846 0.950 . S
C1823 C1840 1.574 . S
C1823 C1842 1.368 . S
C1823 H1847 0.949 . S
H1824 C1828 0.949 . S
C1825 C1826 1.349 . S
C1825 C1827 1.327 . S
C1825 H1848 0.950 . S
C1826 C1825 1.349 . S
C1826 C1838 1.349 . S
C1827 C1825 1.327 . S
C1827 C1843 1.429 . S
C1827 H1849 0.950 . S
C1828 H1824 0.949 . S
C1828 C1836 1.574 . S
C1828 C1844 1.368 . S
H1829 C1837 0.950 . S
H1830 C1835 0.950 . S
H1831 C1836 0.949 . S
H1832 C1838 0.950 . S
H1833 C1839 0.950 . S
H1834 C1840 0.949 . S
C1835 H1830 0.950 . S
C1835 C1837 1.327 . S
C1835 C1841 1.429 . S
C1836 C1828 1.574 . S
C1836 H1831 0.949 . S
C1836 C1842 1.368 . S
C1837 C1821 1.349 . S
C1837 H1829 0.950 . S
C1837 C1835 1.327 . S
C1838 C1826 1.349 . S
C1838 H1832 0.950 . S
C1838 C1839 1.327 . S
C1839 H1833 0.950 . S
C1839 C1838 1.327 . S
C1839 C1843 1.429 . S
C1840 C1823 1.574 . S
C1840 H1834 0.949 . S
C1840 C1844 1.368 . S
C1841 C1822 1.429 . S
C1841 C1835 1.429 . S
C1841 C1842 1.523 . S
C1842 C1823 1.368 . S
C1842 C1836 1.368 . S
C1842 C1841 1.523 . S
C1843 C1827 1.429 . S
C1843 C1839 1.429 . S
C1843 C1844 1.523 . S
C1844 C1828 1.368 . S
C1844 C1840 1.368 . S
C1844 C1843 1.523 . S
H1845 C1820 0.950 . S
H1846 C1822 0.950 . S
H1847 C1823 0.949 . S
H1848 C1825 0.950 . S
H1849 C1827 0.950 . S
C1850 C1851 1.349 . S
C1850 C1852 1.327 . S
C1850 H1875 0.950 . S
C1851 C1850 1.349 . S
C1851 C1867 1.349 . S
C1852 C1850 1.327 . S
C1852 C1871 1.429 . S
C1852 H1876 0.950 . S
C1853 C1870 1.574 . S
C1853 C1872 1.368 . S
C1853 H1877 0.949 . S
H1854 C1858 0.949 . S
C1855 C1856 1.349 . S
C1855 C1857 1.327 . S
C1855 H1878 0.950 . S
C1856 C1855 1.349 . S
C1856 C1868 1.349 . S
C1857 C1855 1.327 . S
C1857 C1873 1.429 . S
C1857 H1879 0.950 . S
C1858 H1854 0.949 . S
C1858 C1866 1.574 . S
C1858 C1874 1.368 . S
H1859 C1867 0.950 . S
H1860 C1865 0.950 . S
H1861 C1866 0.949 . S
H1862 C1868 0.950 . S
H1863 C1869 0.950 . S
H1864 C1870 0.949 . S
C1865 H1860 0.950 . S
C1865 C1867 1.327 . S
C1865 C1871 1.429 . S
C1866 C1858 1.574 . S
C1866 H1861 0.949 . S
C1866 C1872 1.368 . S
C1867 C1851 1.349 . S
C1867 H1859 0.950 . S
C1867 C1865 1.327 . S
C1868 C1856 1.349 . S
C1868 H1862 0.950 . S
C1868 C1869 1.327 . S
C1869 H1863 0.950 . S
C1869 C1868 1.327 . S
C1869 C1873 1.429 . S
C1870 C1853 1.574 . S
C1870 H1864 0.949 . S
C1870 C1874 1.368 . S
C1871 C1852 1.429 . S
C1871 C1865 1.429 . S
C1871 C1872 1.523 . S
C1872 C1853 1.368 . S
C1872 C1866 1.368 . S
C1872 C1871 1.523 . S
C1873 C1857 1.429 . S
C1873 C1869 1.429 . S
C1873 C1874 1.523 . S
C1874 C1858 1.368 . S
C1874 C1870 1.368 . S
C1874 C1873 1.523 . S
H1875 C1850 0.950 . S
H1876 C1852 0.950 . S
H1877 C1853 0.949 . S
H1878 C1855 0.950 . S
H1879 C1857 0.950 . S
C1880 C1881 1.349 . S
C1880 C1882 1.327 . S
C1880 H1905 0.950 . S
C1881 C1880 1.349 . S
C1881 C1897 1.349 . S
C1882 C1880 1.327 . S
C1882 C1901 1.429 . S
C1882 H1906 0.950 . S
C1883 C1900 1.574 . S
C1883 C1902 1.368 . S
C1883 H1907 0.949 . S
H1884 C1888 0.949 . S
C1885 C1886 1.349 . S
C1885 C1887 1.327 . S
C1885 H1908 0.950 . S
C1886 C1885 1.349 . S
C1886 C1898 1.349 . S
C1887 C1885 1.327 . S
C1887 C1903 1.429 . S
C1887 H1909 0.950 . S
C1888 H1884 0.949 . S
C1888 C1896 1.574 . S
C1888 C1904 1.368 . S
H1889 C1897 0.950 . S
H1890 C1895 0.950 . S
H1891 C1896 0.949 . S
H1892 C1898 0.950 . S
H1893 C1899 0.950 . S
H1894 C1900 0.949 . S
C1895 H1890 0.950 . S
C1895 C1897 1.327 . S
C1895 C1901 1.429 . S
C1896 C1888 1.574 . S
C1896 H1891 0.949 . S
C1896 C1902 1.368 . S
C1897 C1881 1.349 . S
C1897 H1889 0.950 . S
C1897 C1895 1.327 . S
C1898 C1886 1.349 . S
C1898 H1892 0.950 . S
C1898 C1899 1.327 . S
C1899 H1893 0.950 . S
C1899 C1898 1.327 . S
C1899 C1903 1.429 . S
C1900 C1883 1.574 . S
C1900 H1894 0.949 . S
C1900 C1904 1.368 . S
C1901 C1882 1.429 . S
C1901 C1895 1.429 . S
C1901 C1902 1.523 . S
C1902 C1883 1.368 . S
C1902 C1896 1.368 . S
C1902 C1901 1.523 . S
C1903 C1887 1.429 . S
C1903 C1899 1.429 . S
C1903 C1904 1.523 . S
C1904 C1888 1.368 . S
C1904 C1900 1.368 . S
C1904 C1903 1.523 . S
H1905 C1880 0.950 . S
H1906 C1882 0.950 . S
H1907 C1883 0.949 . S
H1908 C1885 0.950 . S
H1909 C1887 0.950 . S
C1910 C1911 1.349 . S
C1910 C1912 1.327 . S
C1910 H1935 0.950 . S
C1911 C1910 1.349 . S
C1911 C1927 1.349 . S
C1912 C1910 1.327 . S
C1912 C1931 1.429 . S
C1912 H1936 0.950 . S
C1913 C1930 1.574 . S
C1913 C1932 1.368 . S
C1913 H1937 0.949 . S
H1914 C1918 0.987 . S
C1915 C1916 1.349 . S
C1915 C1917 1.327 1_556 S
C1915 H1938 0.950 . S
C1916 C1915 1.349 . S
C1916 C1928 1.349 . S
C1917 C1915 1.327 1_554 S
C1917 C1933 1.429 . S
C1917 H1939 0.950 . S
C1918 H1914 0.987 . S
C1918 C1926 1.574 . S
C1918 C1934 1.368 . S
H1919 C1927 0.950 . S
H1920 C1925 0.950 . S
H1921 C1926 0.949 . S
H1922 C1928 0.950 . S
H1923 C1929 0.950 . S
H1924 C1930 0.949 . S
C1925 H1920 0.950 . S
C1925 C1927 1.327 . S
C1925 C1931 1.429 . S
C1926 C1918 1.574 . S
C1926 H1921 0.949 . S
C1926 C1932 1.368 . S
C1927 C1911 1.349 . S
C1927 H1919 0.950 . S
C1927 C1925 1.327 . S
C1928 C1916 1.349 . S
C1928 H1922 0.950 . S
C1928 C1929 1.327 . S
C1929 H1923 0.950 . S
C1929 C1928 1.327 . S
C1929 C1933 1.429 1_556 S
C1930 C1913 1.574 . S
C1930 H1924 0.949 . S
C1930 C1934 1.368 . S
C1931 C1912 1.429 . S
C1931 C1925 1.429 . S
C1931 C1932 1.523 . S
C1932 C1913 1.368 . S
C1932 C1926 1.368 . S
C1932 C1931 1.523 . S
C1933 C1917 1.429 . S
C1933 C1929 1.429 1_554 S
C1933 C1934 1.523 . S
C1934 C1918 1.368 . S
C1934 C1930 1.368 . S
C1934 C1933 1.523 . S
H1935 C1910 0.950 . S
H1936 C1912 0.950 . S
H1937 C1913 0.949 . S
H1938 C1915 0.950 . S
H1939 C1917 0.950 . S
C1940 C1941 1.349 . S
C1940 C1942 1.327 . S
C1940 H1965 0.950 . S
C1941 C1940 1.349 . S
C1941 C1957 1.349 . S
C1942 C1940 1.327 . S
C1942 C1961 1.429 . S
C1942 H1966 0.950 . S
C1943 C1960 1.574 . S
C1943 C1962 1.368 . S
C1943 H1967 0.949 . S
H1944 C1948 0.949 . S
C1945 C1946 1.349 . S
C1945 C1947 1.327 . S
C1945 H1968 0.950 . S
C1946 C1945 1.349 . S
C1946 C1958 1.349 . S
C1947 C1945 1.327 . S
C1947 C1963 1.429 . S
C1947 H1969 0.950 . S
C1948 H1944 0.949 . S
C1948 C1956 1.574 . S
C1948 C1964 1.368 . S
H1949 C1957 0.950 . S
H1950 C1955 0.950 . S
H1951 C1956 0.949 . S
H1952 C1958 0.950 . S
H1953 C1959 0.950 . S
H1954 C1960 0.949 . S
C1955 H1950 0.950 . S
C1955 C1957 1.327 . S
C1955 C1961 1.429 . S
C1956 C1948 1.574 . S
C1956 H1951 0.949 . S
C1956 C1962 1.368 . S
C1957 C1941 1.349 . S
C1957 H1949 0.950 . S
C1957 C1955 1.327 . S
C1958 C1946 1.349 . S
C1958 H1952 0.950 . S
C1958 C1959 1.327 . S
C1959 H1953 0.950 . S
C1959 C1958 1.327 . S
C1959 C1963 1.429 . S
C1960 C1943 1.574 . S
C1960 H1954 0.949 . S
C1960 C1964 1.368 . S
C1961 C1942 1.429 . S
C1961 C1955 1.429 . S
C1961 C1962 1.523 . S
C1962 C1943 1.368 . S
C1962 C1956 1.368 . S
C1962 C1961 1.523 . S
C1963 C1947 1.429 . S
C1963 C1959 1.429 . S
C1963 C1964 1.523 . S
C1964 C1948 1.368 . S
C1964 C1960 1.368 . S
C1964 C1963 1.523 . S
H1965 C1940 0.950 . S
H1966 C1942 0.950 . S
H1967 C1943 0.949 . S
H1968 C1945 0.950 . S
H1969 C1947 0.950 . S
C1970 C1971 1.349 . S
C1970 C1972 1.327 . S
C1970 H1995 0.950 . S
C1971 C1970 1.349 . S
C1971 C1987 1.349 . S
C1972 C1970 1.327 . S
C1972 C1991 1.429 . S
C1972 H1996 0.950 . S
C1973 C1990 1.574 . S
C1973 C1992 1.368 . S
C1973 H1997 0.949 . S
H1974 C1978 0.949 . S
C1975 C1976 1.349 . S
C1975 C1977 1.327 . S
C1975 H1998 0.950 . S
C1976 C1975 1.349 . S
C1976 C1988 1.349 . S
C1977 C1975 1.327 . S
C1977 C1993 1.429 . S
C1977 H1999 0.950 . S
C1978 H1974 0.949 . S
C1978 C1986 1.574 . S
C1978 C1994 1.368 . S
H1979 C1987 0.950 . S
H1980 C1985 0.950 . S
H1981 C1986 0.949 . S
H1982 C1988 0.950 . S
H1983 C1989 0.950 . S
H1984 C1990 0.949 . S
C1985 H1980 0.950 . S
C1985 C1987 1.327 . S
C1985 C1991 1.429 . S
C1986 C1978 1.574 . S
C1986 H1981 0.949 . S
C1986 C1992 1.368 . S
C1987 C1971 1.349 . S
C1987 H1979 0.950 . S
C1987 C1985 1.327 . S
C1988 C1976 1.349 . S
C1988 H1982 0.950 . S
C1988 C1989 1.327 . S
C1989 H1983 0.950 . S
C1989 C1988 1.327 . S
C1989 C1993 1.429 . S
C1990 C1973 1.574 . S
C1990 H1984 0.949 . S
C1990 C1994 1.368 . S
C1991 C1972 1.429 . S
C1991 C1985 1.429 . S
C1991 C1992 1.523 . S
C1992 C1973 1.368 . S
C1992 C1986 1.368 . S
C1992 C1991 1.523 . S
C1993 C1977 1.429 . S
C1993 C1989 1.429 . S
C1993 C1994 1.523 . S
C1994 C1978 1.368 . S
C1994 C1990 1.368 . S
C1994 C1993 1.523 . S
H1995 C1970 0.950 . S
H1996 C1972 0.950 . S
H1997 C1973 0.949 . S
H1998 C1975 0.950 . S
H1999 C1977 0.950 . S
C2000 C2001 1.349 . S
C2000 C2002 1.327 . S
C2000 H2025 0.950 . S
C2001 C2000 1.349 . S
C2001 C2017 1.349 . S
C2002 C2000 1.327 . S
C2002 C2021 1.429 . S
C2002 H2026 0.950 . S
C2003 C2020 1.574 . S
C2003 C2022 1.368 . S
C2003 H2027 0.949 . S
H2004 C2008 0.949 . S
C2005 C2006 1.349 . S
C2005 C2007 1.327 . S
C2005 H2028 0.950 . S
C2006 C2005 1.349 . S
C2006 C2018 1.349 . S
C2007 C2005 1.327 . S
C2007 C2023 1.429 . S
C2007 H2029 0.950 . S
C2008 H2004 0.949 . S
C2008 C2016 1.574 . S
C2008 C2024 1.368 . S
H2009 C2017 0.950 . S
H2010 C2015 0.950 . S
H2011 C2016 0.949 . S
H2012 C2018 0.950 . S
H2013 C2019 0.950 . S
H2014 C2020 0.949 . S
C2015 H2010 0.950 . S
C2015 C2017 1.327 . S
C2015 C2021 1.429 . S
C2016 C2008 1.574 . S
C2016 H2011 0.949 . S
C2016 C2022 1.368 . S
C2017 C2001 1.349 . S
C2017 H2009 0.950 . S
C2017 C2015 1.327 . S
C2018 C2006 1.349 . S
C2018 H2012 0.950 . S
C2018 C2019 1.327 . S
C2019 H2013 0.950 . S
C2019 C2018 1.327 . S
C2019 C2023 1.429 . S
C2020 C2003 1.574 . S
C2020 H2014 0.949 . S
C2020 C2024 1.368 . S
C2021 C2002 1.429 . S
C2021 C2015 1.429 . S
C2021 C2022 1.523 . S
C2022 C2003 1.368 . S
C2022 C2016 1.368 . S
C2022 C2021 1.523 . S
C2023 C2007 1.429 . S
C2023 C2019 1.429 . S
C2023 C2024 1.523 . S
C2024 C2008 1.368 . S
C2024 C2020 1.368 . S
C2024 C2023 1.523 . S
H2025 C2000 0.950 . S
H2026 C2002 0.950 . S
H2027 C2003 0.949 . S
H2028 C2005 0.950 . S
H2029 C2007 0.950 . S
C2030 C2031 1.349 . S
C2030 C2032 1.327 . S
C2030 H2055 0.950 . S
C2031 C2030 1.349 . S
C2031 C2047 1.349 . S
C2032 C2030 1.327 . S
C2032 C2051 1.429 . S
C2032 H2056 0.950 . S
C2033 C2050 1.574 . S
C2033 C2052 1.368 . S
C2033 H2057 0.949 . S
H2034 C2038 0.949 . S
C2035 C2036 1.349 . S
C2035 C2037 1.327 1_556 S
C2035 H2058 0.950 . S
C2036 C2035 1.349 . S
C2036 C2048 1.349 . S
C2037 C2035 1.327 1_554 S
C2037 C2053 1.429 . S
C2037 H2059 0.950 . S
C2038 H2034 0.949 . S
C2038 C2046 1.574 . S
C2038 C2054 1.368 . S
H2039 C2047 0.950 . S
H2040 C2045 0.950 . S
H2041 C2046 0.949 . S
H2042 C2048 0.950 . S
H2043 C2049 0.950 . S
H2044 C2050 0.949 . S
C2045 H2040 0.950 . S
C2045 C2047 1.327 . S
C2045 C2051 1.429 . S
C2046 C2038 1.574 . S
C2046 H2041 0.949 . S
C2046 C2052 1.368 . S
C2047 C2031 1.349 . S
C2047 H2039 0.950 . S
C2047 C2045 1.327 . S
C2048 C2036 1.349 . S
C2048 H2042 0.950 . S
C2048 C2049 1.327 . S
C2049 H2043 0.950 . S
C2049 C2048 1.327 . S
C2049 C2053 1.429 1_556 S
C2050 C2033 1.574 . S
C2050 H2044 0.949 . S
C2050 C2054 1.368 . S
C2051 C2032 1.429 . S
C2051 C2045 1.429 . S
C2051 C2052 1.523 . S
C2052 C2033 1.368 . S
C2052 C2046 1.368 . S
C2052 C2051 1.523 . S
C2053 C2037 1.429 . S
C2053 C2049 1.429 1_554 S
C2053 C2054 1.523 . S
C2054 C2038 1.368 . S
C2054 C2050 1.368 . S
C2054 C2053 1.523 . S
H2055 C2030 0.950 . S
H2056 C2032 0.950 . S
H2057 C2033 0.949 . S
H2058 C2035 0.950 . S
H2059 C2037 0.950 . S
C2060 C2061 1.349 . S
C2060 C2062 1.327 . S
C2060 H2085 0.950 . S
C2061 C2060 1.349 . S
C2061 C2077 1.349 . S
C2062 C2060 1.327 . S
C2062 C2081 1.429 . S
C2062 H2086 0.950 . S
C2063 C2080 1.574 . S
C2063 C2082 1.368 . S
C2063 H2087 0.949 . S
H2064 C2068 0.949 . S
C2065 C2066 1.349 . S
C2065 C2067 1.327 . S
C2065 H2088 0.950 . S
C2066 C2065 1.349 . S
C2066 C2078 1.349 . S
C2067 C2065 1.327 . S
C2067 C2083 1.429 . S
C2067 H2089 0.950 . S
C2068 H2064 0.949 . S
C2068 C2076 1.574 . S
C2068 C2084 1.368 . S
H2069 C2077 0.950 . S
H2070 C2075 0.950 . S
H2071 C2076 0.949 . S
H2072 C2078 0.950 . S
H2073 C2079 0.950 . S
H2074 C2080 0.949 . S
C2075 H2070 0.950 . S
C2075 C2077 1.327 . S
C2075 C2081 1.429 . S
C2076 C2068 1.574 . S
C2076 H2071 0.949 . S
C2076 C2082 1.368 . S
C2077 C2061 1.349 . S
C2077 H2069 0.950 . S
C2077 C2075 1.327 . S
C2078 C2066 1.349 . S
C2078 H2072 0.950 . S
C2078 C2079 1.327 . S
C2079 H2073 0.950 . S
C2079 C2078 1.327 . S
C2079 C2083 1.429 . S
C2080 C2063 1.574 . S
C2080 H2074 0.949 . S
C2080 C2084 1.368 . S
C2081 C2062 1.429 . S
C2081 C2075 1.429 . S
C2081 C2082 1.523 . S
C2082 C2063 1.368 . S
C2082 C2076 1.368 . S
C2082 C2081 1.523 . S
C2083 C2067 1.429 . S
C2083 C2079 1.429 . S
C2083 C2084 1.523 . S
C2084 C2068 1.368 . S
C2084 C2080 1.368 . S
C2084 C2083 1.523 . S
H2085 C2060 0.950 . S
H2086 C2062 0.950 . S
H2087 C2063 0.949 . S
H2088 C2065 0.950 . S
H2089 C2067 0.950 . S
C2090 C2091 1.349 . S
C2090 C2092 1.327 . S
C2090 H2115 0.950 . S
C2091 C2090 1.349 . S
C2091 C2107 1.349 . S
C2092 C2090 1.327 . S
C2092 C2111 1.429 . S
C2092 H2116 0.950 . S
C2093 C2110 1.574 . S
C2093 C2112 1.368 . S
C2093 H2117 0.949 . S
H2094 C2098 0.949 . S
C2095 C2096 1.349 . S
C2095 C2097 1.327 . S
C2095 H2118 0.950 . S
C2096 C2095 1.349 . S
C2096 C2108 1.349 . S
C2097 C2095 1.327 . S
C2097 C2113 1.429 . S
C2097 H2119 0.950 . S
C2098 H2094 0.949 . S
C2098 C2106 1.574 . S
C2098 C2114 1.368 . S
H2099 C2107 0.950 . S
H2100 C2105 0.950 . S
H2101 C2106 0.949 . S
H2102 C2108 0.950 . S
H2103 C2109 0.950 . S
H2104 C2110 0.949 . S
C2105 H2100 0.950 . S
C2105 C2107 1.327 . S
C2105 C2111 1.429 . S
C2106 C2098 1.574 . S
C2106 H2101 0.949 . S
C2106 C2112 1.368 . S
C2107 C2091 1.349 . S
C2107 H2099 0.950 . S
C2107 C2105 1.327 . S
C2108 C2096 1.349 . S
C2108 H2102 0.950 . S
C2108 C2109 1.327 . S
C2109 H2103 0.950 . S
C2109 C2108 1.327 . S
C2109 C2113 1.429 . S
C2110 C2093 1.574 . S
C2110 H2104 0.949 . S
C2110 C2114 1.368 . S
C2111 C2092 1.429 . S
C2111 C2105 1.429 . S
C2111 C2112 1.523 . S
C2112 C2093 1.368 . S
C2112 C2106 1.368 . S
C2112 C2111 1.523 . S
C2113 C2097 1.429 . S
C2113 C2109 1.429 . S
C2113 C2114 1.523 . S
C2114 C2098 1.368 . S
C2114 C2110 1.368 . S
C2114 C2113 1.523 . S
H2115 C2090 0.950 . S
H2116 C2092 0.950 . S
H2117 C2093 0.949 . S
H2118 C2095 0.950 . S
H2119 C2097 0.950 . S
C2120 C2121 1.349 . S
C2120 C2122 1.327 . S
C2120 H2145 0.950 . S
C2121 C2120 1.349 . S
C2121 C2137 1.349 . S
C2122 C2120 1.327 . S
C2122 C2141 1.429 . S
C2122 H2146 0.950 . S
C2123 C2140 1.574 . S
C2123 C2142 1.368 . S
C2123 H2147 0.949 . S
H2124 C2128 0.949 . S
C2125 C2126 1.349 . S
C2125 C2127 1.327 . S
C2125 H2148 0.950 . S
C2126 C2125 1.349 . S
C2126 C2138 1.349 . S
C2127 C2125 1.327 . S
C2127 C2143 1.429 . S
C2127 H2149 0.950 . S
C2128 H2124 0.949 . S
C2128 C2136 1.574 . S
C2128 C2144 1.368 . S
H2129 C2137 0.950 . S
H2130 C2135 0.950 . S
H2131 C2136 0.949 . S
H2132 C2138 0.950 . S
H2133 C2139 0.950 . S
H2134 C2140 0.949 . S
C2135 H2130 0.950 . S
C2135 C2137 1.327 . S
C2135 C2141 1.429 . S
C2136 C2128 1.574 . S
C2136 H2131 0.949 . S
C2136 C2142 1.368 . S
C2137 C2121 1.349 . S
C2137 H2129 0.950 . S
C2137 C2135 1.327 . S
C2138 C2126 1.349 . S
C2138 H2132 0.950 . S
C2138 C2139 1.327 . S
C2139 H2133 0.950 . S
C2139 C2138 1.327 . S
C2139 C2143 1.429 . S
C2140 C2123 1.574 . S
C2140 H2134 0.949 . S
C2140 C2144 1.368 . S
C2141 C2122 1.429 . S
C2141 C2135 1.429 . S
C2141 C2142 1.523 . S
C2142 C2123 1.368 . S
C2142 C2136 1.368 . S
C2142 C2141 1.523 . S
C2143 C2127 1.429 . S
C2143 C2139 1.429 . S
C2143 C2144 1.523 . S
C2144 C2128 1.368 . S
C2144 C2140 1.368 . S
C2144 C2143 1.523 . S
H2145 C2120 0.950 . S
H2146 C2122 0.950 . S
H2147 C2123 0.949 . S
H2148 C2125 0.950 . S
H2149 C2127 0.950 . S
C2150 C2151 1.349 . S
C2150 C2152 1.327 . S
C2150 H2175 0.950 . S
C2151 C2150 1.349 . S
C2151 C2167 1.349 . S
C2152 C2150 1.327 . S
C2152 C2171 1.429 . S
C2152 H2176 0.950 . S
C2153 C2170 1.574 . S
C2153 C2172 1.368 . S
C2153 H2177 0.949 . S
H2154 C2158 0.949 1_554 S
C2155 C2156 1.349 . S
C2155 C2157 1.327 1_554 S
C2155 H2178 0.950 . S
C2156 C2155 1.349 . S
C2156 C2168 1.349 . S
C2157 C2155 1.327 1_556 S
C2157 C2173 1.429 . S
C2157 H2179 0.950 . S
C2158 H2154 0.949 1_556 S
C2158 C2166 1.574 . S
C2158 C2174 1.368 . S
H2159 C2167 0.950 . S
H2160 C2165 0.950 . S
H2161 C2166 0.949 . S
H2162 C2168 0.950 . S
H2163 C2169 0.950 . S
H2164 C2170 0.949 . S
C2165 H2160 0.950 . S
C2165 C2167 1.327 . S
C2165 C2171 1.429 . S
C2166 C2158 1.574 . S
C2166 H2161 0.949 . S
C2166 C2172 1.368 . S
C2167 C2151 1.349 . S
C2167 H2159 0.950 . S
C2167 C2165 1.327 . S
C2168 C2156 1.349 . S
C2168 H2162 0.950 . S
C2168 C2169 1.327 . S
C2169 H2163 0.950 . S
C2169 C2168 1.327 . S
C2169 C2173 1.429 1_554 S
C2170 C2153 1.574 . S
C2170 H2164 0.949 . S
C2170 C2174 1.368 . S
C2171 C2152 1.429 . S
C2171 C2165 1.429 . S
C2171 C2172 1.523 . S
C2172 C2153 1.368 . S
C2172 C2166 1.368 . S
C2172 C2171 1.523 . S
C2173 C2157 1.429 . S
C2173 C2169 1.429 1_556 S
C2173 C2174 1.523 . S
C2174 C2158 1.368 . S
C2174 C2170 1.368 . S
C2174 C2173 1.523 . S
H2175 C2150 0.950 . S
H2176 C2152 0.950 . S
H2177 C2153 0.949 . S
H2178 C2155 0.950 . S
H2179 C2157 0.950 . S
C2180 C2181 1.349 . S
C2180 C2182 1.327 . S
C2180 H2205 0.950 . S
C2181 C2180 1.349 . S
C2181 C2197 1.349 . S
C2182 C2180 1.327 . S
C2182 C2201 1.429 . S
C2182 H2206 0.950 . S
C2183 C2200 1.574 . S
C2183 C2202 1.368 . S
C2183 H2207 0.949 . S
H2184 C2188 0.949 . S
C2185 C2186 1.349 . S
C2185 C2187 1.327 . S
C2185 H2208 0.950 . S
C2186 C2185 1.349 . S
C2186 C2198 1.349 . S
C2187 C2185 1.327 . S
C2187 C2203 1.429 . S
C2187 H2209 0.950 . S
C2188 H2184 0.949 . S
C2188 C2196 1.574 . S
C2188 C2204 1.368 . S
H2189 C2197 0.950 . S
H2190 C2195 0.950 . S
H2191 C2196 0.949 . S
H2192 C2198 0.950 . S
H2193 C2199 0.950 . S
H2194 C2200 0.949 . S
C2195 H2190 0.950 . S
C2195 C2197 1.327 . S
C2195 C2201 1.429 . S
C2196 C2188 1.574 . S
C2196 H2191 0.949 . S
C2196 C2202 1.368 . S
C2197 C2181 1.349 . S
C2197 H2189 0.950 . S
C2197 C2195 1.327 . S
C2198 C2186 1.349 . S
C2198 H2192 0.950 . S
C2198 C2199 1.327 . S
C2199 H2193 0.950 . S
C2199 C2198 1.327 . S
C2199 C2203 1.429 . S
C2200 C2183 1.574 . S
C2200 H2194 0.949 . S
C2200 C2204 1.368 . S
C2201 C2182 1.429 . S
C2201 C2195 1.429 . S
C2201 C2202 1.523 . S
C2202 C2183 1.368 . S
C2202 C2196 1.368 . S
C2202 C2201 1.523 . S
C2203 C2187 1.429 . S
C2203 C2199 1.429 . S
C2203 C2204 1.523 . S
C2204 C2188 1.368 . S
C2204 C2200 1.368 . S
C2204 C2203 1.523 . S
H2205 C2180 0.950 . S
H2206 C2182 0.950 . S
H2207 C2183 0.949 . S
H2208 C2185 0.950 . S
H2209 C2187 0.950 . S
C2210 C2211 1.349 . S
C2210 C2212 1.327 . S
C2210 H2235 0.950 . S
C2211 C2210 1.349 . S
C2211 C2227 1.349 . S
C2212 C2210 1.327 . S
C2212 C2231 1.429 . S
C2212 H2236 0.950 . S
C2213 C2230 1.574 . S
C2213 C2232 1.368 . S
C2213 H2237 0.949 . S
H2214 C2218 0.949 . S
C2215 C2216 1.349 . S
C2215 C2217 1.327 . S
C2215 H2238 0.950 . S
C2216 C2215 1.349 . S
C2216 C2228 1.349 . S
C2217 C2215 1.327 . S
C2217 C2233 1.429 . S
C2217 H2239 0.950 . S
C2218 H2214 0.949 . S
C2218 C2226 1.574 . S
C2218 C2234 1.368 . S
H2219 C2227 0.950 . S
H2220 C2225 0.950 . S
H2221 C2226 0.949 . S
H2222 C2228 0.950 . S
H2223 C2229 0.950 . S
H2224 C2230 0.949 . S
C2225 H2220 0.950 . S
C2225 C2227 1.327 . S
C2225 C2231 1.429 . S
C2226 C2218 1.574 . S
C2226 H2221 0.949 . S
C2226 C2232 1.368 . S
C2227 C2211 1.349 . S
C2227 H2219 0.950 . S
C2227 C2225 1.327 . S
C2228 C2216 1.349 . S
C2228 H2222 0.950 . S
C2228 C2229 1.327 . S
C2229 H2223 0.950 . S
C2229 C2228 1.327 . S
C2229 C2233 1.429 . S
C2230 C2213 1.574 . S
C2230 H2224 0.949 . S
C2230 C2234 1.368 . S
C2231 C2212 1.429 . S
C2231 C2225 1.429 . S
C2231 C2232 1.523 . S
C2232 C2213 1.368 . S
C2232 C2226 1.368 . S
C2232 C2231 1.523 . S
C2233 C2217 1.429 . S
C2233 C2229 1.429 . S
C2233 C2234 1.523 . S
C2234 C2218 1.368 . S
C2234 C2230 1.368 . S
C2234 C2233 1.523 . S
H2235 C2210 0.950 . S
H2236 C2212 0.950 . S
H2237 C2213 0.949 . S
H2238 C2215 0.950 . S
H2239 C2217 0.950 . S
C2240 C2241 1.349 . S
C2240 C2242 1.327 . S
C2240 H2265 0.950 . S
C2241 C2240 1.349 . S
C2241 C2257 1.349 . S
C2242 C2240 1.327 . S
C2242 C2261 1.429 . S
C2242 H2266 0.950 . S
C2243 C2260 1.574 . S
C2243 C2262 1.368 . S
C2243 H2267 0.949 . S
H2244 C2248 0.949 . S
C2245 C2246 1.349 . S
C2245 C2247 1.327 . S
C2245 H2268 0.950 . S
C2246 C2245 1.349 . S
C2246 C2258 1.349 . S
C2247 C2245 1.327 . S
C2247 C2263 1.429 . S
C2247 H2269 0.950 . S
C2248 H2244 0.949 . S
C2248 C2256 1.574 . S
C2248 C2264 1.368 . S
H2249 C2257 0.950 . S
H2250 C2255 0.950 . S
H2251 C2256 0.949 . S
H2252 C2258 0.950 . S
H2253 C2259 0.950 . S
H2254 C2260 0.949 . S
C2255 H2250 0.950 . S
C2255 C2257 1.327 . S
C2255 C2261 1.429 . S
C2256 C2248 1.574 . S
C2256 H2251 0.949 . S
C2256 C2262 1.368 . S
C2257 C2241 1.349 . S
C2257 H2249 0.950 . S
C2257 C2255 1.327 . S
C2258 C2246 1.349 . S
C2258 H2252 0.950 . S
C2258 C2259 1.327 . S
C2259 H2253 0.950 . S
C2259 C2258 1.327 . S
C2259 C2263 1.429 . S
C2260 C2243 1.574 . S
C2260 H2254 0.949 . S
C2260 C2264 1.368 . S
C2261 C2242 1.429 . S
C2261 C2255 1.429 . S
C2261 C2262 1.523 . S
C2262 C2243 1.368 . S
C2262 C2256 1.368 . S
C2262 C2261 1.523 . S
C2263 C2247 1.429 . S
C2263 C2259 1.429 . S
C2263 C2264 1.523 . S
C2264 C2248 1.368 . S
C2264 C2260 1.368 . S
C2264 C2263 1.523 . S
H2265 C2240 0.950 . S
H2266 C2242 0.950 . S
H2267 C2243 0.949 . S
H2268 C2245 0.950 . S
H2269 C2247 0.950 . S
C2270 C2271 1.349 . S
C2270 C2272 1.327 . S
C2270 H2295 0.950 . S
C2271 C2270 1.349 . S
C2271 C2287 1.349 . S
C2272 C2270 1.327 . S
C2272 C2291 1.429 . S
C2272 H2296 0.950 . S
C2273 C2290 1.574 . S
C2273 C2292 1.368 . S
C2273 H2297 0.949 . S
H2274 C2278 0.949 . S
C2275 C2276 1.349 . S
C2275 C2277 1.327 . S
C2275 H2298 0.950 . S
C2276 C2275 1.349 . S
C2276 C2288 1.349 . S
C2277 C2275 1.327 . S
C2277 C2293 1.429 . S
C2277 H2299 0.950 . S
C2278 H2274 0.949 . S
C2278 C2286 1.574 . S
C2278 C2294 1.368 . S
H2279 C2287 0.950 . S
H2280 C2285 0.950 . S
H2281 C2286 0.949 . S
H2282 C2288 0.950 . S
H2283 C2289 0.950 . S
H2284 C2290 0.933 1_655 S
C2285 H2280 0.950 . S
C2285 C2287 1.327 . S
C2285 C2291 1.429 . S
C2286 C2278 1.574 . S
C2286 H2281 0.949 . S
C2286 C2292 1.368 . S
C2287 C2271 1.349 . S
C2287 H2279 0.950 . S
C2287 C2285 1.327 . S
C2288 C2276 1.349 . S
C2288 H2282 0.950 . S
C2288 C2289 1.327 . S
C2289 H2283 0.950 . S
C2289 C2288 1.327 . S
C2289 C2293 1.429 . S
C2290 C2273 1.574 . S
C2290 H2284 0.933 1_455 S
C2290 C2294 1.368 . S
C2291 C2272 1.429 . S
C2291 C2285 1.429 . S
C2291 C2292 1.523 . S
C2292 C2273 1.368 . S
C2292 C2286 1.368 . S
C2292 C2291 1.523 . S
C2293 C2277 1.429 . S
C2293 C2289 1.429 . S
C2293 C2294 1.523 1_655 S
C2294 C2278 1.368 . S
C2294 C2290 1.368 . S
C2294 C2293 1.523 1_455 S
H2295 C2270 0.950 . S
H2296 C2272 0.950 . S
H2297 C2273 0.949 . S
H2298 C2275 0.950 . S
H2299 C2277 0.950 . S
C2300 C2301 1.349 . S
C2300 C2302 1.327 . S
C2300 H2325 0.950 . S
C2301 C2300 1.349 . S
C2301 C2317 1.349 . S
C2302 C2300 1.327 . S
C2302 C2321 1.429 . S
C2302 H2326 0.950 . S
C2303 C2320 1.574 . S
C2303 C2322 1.368 . S
C2303 H2327 0.949 . S
H2304 C2308 0.949 . S
C2305 C2306 1.349 . S
C2305 C2307 1.327 . S
C2305 H2328 0.950 . S
C2306 C2305 1.349 . S
C2306 C2318 1.349 . S
C2307 C2305 1.327 . S
C2307 C2323 1.429 . S
C2307 H2329 0.950 . S
C2308 H2304 0.949 . S
C2308 C2316 1.574 . S
C2308 C2324 1.368 . S
H2309 C2317 0.950 . S
H2310 C2315 0.950 . S
H2311 C2316 0.949 . S
H2312 C2318 0.950 . S
H2313 C2319 0.950 . S
H2314 C2320 0.949 . S
C2315 H2310 0.950 . S
C2315 C2317 1.327 . S
C2315 C2321 1.429 . S
C2316 C2308 1.574 . S
C2316 H2311 0.949 . S
C2316 C2322 1.368 . S
C2317 C2301 1.349 . S
C2317 H2309 0.950 . S
C2317 C2315 1.327 . S
C2318 C2306 1.349 . S
C2318 H2312 0.950 . S
C2318 C2319 1.327 . S
C2319 H2313 0.950 . S
C2319 C2318 1.327 . S
C2319 C2323 1.429 . S
C2320 C2303 1.574 . S
C2320 H2314 0.949 . S
C2320 C2324 1.368 . S
C2321 C2302 1.429 . S
C2321 C2315 1.429 . S
C2321 C2322 1.523 . S
C2322 C2303 1.368 . S
C2322 C2316 1.368 . S
C2322 C2321 1.523 . S
C2323 C2307 1.429 . S
C2323 C2319 1.429 . S
C2323 C2324 1.523 . S
C2324 C2308 1.368 . S
C2324 C2320 1.368 . S
C2324 C2323 1.523 . S
H2325 C2300 0.950 . S
H2326 C2302 0.950 . S
H2327 C2303 0.949 . S
H2328 C2305 0.950 . S
H2329 C2307 0.950 . S
C2330 C2331 1.349 . S
C2330 C2332 1.327 . S
C2330 H2355 0.950 . S
C2331 C2330 1.349 . S
C2331 C2347 1.349 . S
C2332 C2330 1.327 . S
C2332 C2351 1.429 . S
C2332 H2356 0.950 . S
C2333 C2350 1.574 . S
C2333 C2352 1.368 . S
C2333 H2357 0.949 . S
H2334 C2338 0.949 . S
C2335 C2336 1.349 . S
C2335 C2337 1.327 . S
C2335 H2358 0.950 . S
C2336 C2335 1.349 . S
C2336 C2348 1.349 . S
C2337 C2335 1.327 . S
C2337 C2353 1.429 . S
C2337 H2359 0.950 . S
C2338 H2334 0.949 . S
C2338 C2346 1.574 . S
C2338 C2354 1.368 . S
H2339 C2347 0.950 . S
H2340 C2345 0.950 . S
H2341 C2346 0.949 . S
H2342 C2348 0.950 . S
H2343 C2349 0.950 . S
H2344 C2350 0.949 . S
C2345 H2340 0.950 . S
C2345 C2347 1.327 . S
C2345 C2351 1.429 . S
C2346 C2338 1.574 . S
C2346 H2341 0.949 . S
C2346 C2352 1.368 . S
C2347 C2331 1.349 . S
C2347 H2339 0.950 . S
C2347 C2345 1.327 . S
C2348 C2336 1.349 . S
C2348 H2342 0.950 . S
C2348 C2349 1.327 . S
C2349 H2343 0.950 . S
C2349 C2348 1.327 . S
C2349 C2353 1.429 . S
C2350 C2333 1.574 . S
C2350 H2344 0.949 . S
C2350 C2354 1.368 . S
C2351 C2332 1.429 . S
C2351 C2345 1.429 . S
C2351 C2352 1.523 . S
C2352 C2333 1.368 . S
C2352 C2346 1.368 . S
C2352 C2351 1.523 . S
C2353 C2337 1.429 . S
C2353 C2349 1.429 . S
C2353 C2354 1.523 . S
C2354 C2338 1.368 . S
C2354 C2350 1.368 . S
C2354 C2353 1.523 . S
H2355 C2330 0.950 . S
H2356 C2332 0.950 . S
H2357 C2333 0.949 . S
H2358 C2335 0.950 . S
H2359 C2337 0.950 . S
C2360 C2361 1.349 . S
C2360 C2362 1.327 . S
C2360 H2385 0.950 . S
C2361 C2360 1.349 . S
C2361 C2377 1.349 . S
C2362 C2360 1.327 . S
C2362 C2381 1.429 . S
C2362 H2386 0.950 . S
C2363 C2380 1.574 . S
C2363 C2382 1.368 . S
C2363 H2387 0.949 . S
H2364 C2368 0.949 . S
C2365 C2366 1.349 . S
C2365 C2367 1.327 . S
C2365 H2388 0.950 . S
C2366 C2365 1.349 . S
C2366 C2378 1.349 . S
C2367 C2365 1.327 . S
C2367 C2383 1.429 . S
C2367 H2389 0.950 . S
C2368 H2364 0.949 . S
C2368 C2376 1.574 . S
C2368 C2384 1.368 . S
H2369 C2377 0.950 . S
H2370 C2375 0.950 . S
H2371 C2376 0.949 . S
H2372 C2378 0.950 . S
H2373 C2379 0.950 . S
H2374 C2380 0.949 . S
C2375 H2370 0.950 . S
C2375 C2377 1.327 . S
C2375 C2381 1.429 . S
C2376 C2368 1.574 . S
C2376 H2371 0.949 . S
C2376 C2382 1.368 . S
C2377 C2361 1.349 . S
C2377 H2369 0.950 . S
C2377 C2375 1.327 . S
C2378 C2366 1.349 . S
C2378 H2372 0.950 . S
C2378 C2379 1.327 . S
C2379 H2373 0.950 . S
C2379 C2378 1.327 . S
C2379 C2383 1.429 . S
C2380 C2363 1.574 . S
C2380 H2374 0.949 . S
C2380 C2384 1.368 . S
C2381 C2362 1.429 . S
C2381 C2375 1.429 . S
C2381 C2382 1.523 . S
C2382 C2363 1.368 . S
C2382 C2376 1.368 . S
C2382 C2381 1.523 . S
C2383 C2367 1.429 . S
C2383 C2379 1.429 . S
C2383 C2384 1.523 . S
C2384 C2368 1.368 . S
C2384 C2380 1.368 . S
C2384 C2383 1.523 . S
H2385 C2360 0.950 . S
H2386 C2362 0.950 . S
H2387 C2363 0.949 . S
H2388 C2365 0.950 . S
H2389 C2367 0.950 . S
C2390 C2391 1.349 . S
C2390 C2392 1.327 . S
C2390 H2415 0.950 . S
C2391 C2390 1.349 . S
C2391 C2407 1.349 . S
C2392 C2390 1.327 . S
C2392 C2411 1.429 . S
C2392 H2416 0.950 . S
C2393 C2410 1.574 . S
C2393 C2412 1.368 . S
C2393 H2417 0.949 . S
H2394 C2398 0.949 . S
C2395 C2396 1.349 . S
C2395 C2397 1.327 . S
C2395 H2418 0.950 . S
C2396 C2395 1.349 . S
C2396 C2408 1.349 . S
C2397 C2395 1.327 . S
C2397 C2413 1.429 . S
C2397 H2419 0.950 . S
C2398 H2394 0.949 . S
C2398 C2406 1.574 . S
C2398 C2414 1.368 . S
H2399 C2407 0.950 . S
H2400 C2405 0.950 . S
H2401 C2406 0.949 . S
H2402 C2408 0.950 . S
H2403 C2409 0.950 . S
H2404 C2410 0.949 . S
C2405 H2400 0.950 . S
C2405 C2407 1.327 . S
C2405 C2411 1.429 . S
C2406 C2398 1.574 . S
C2406 H2401 0.949 . S
C2406 C2412 1.368 . S
C2407 C2391 1.349 . S
C2407 H2399 0.950 . S
C2407 C2405 1.327 . S
C2408 C2396 1.349 . S
C2408 H2402 0.950 . S
C2408 C2409 1.327 . S
C2409 H2403 0.950 . S
C2409 C2408 1.327 . S
C2409 C2413 1.429 . S
C2410 C2393 1.574 . S
C2410 H2404 0.949 . S
C2410 C2414 1.368 . S
C2411 C2392 1.429 . S
C2411 C2405 1.429 . S
C2411 C2412 1.523 . S
C2412 C2393 1.368 . S
C2412 C2406 1.368 . S
C2412 C2411 1.523 . S
C2413 C2397 1.429 . S
C2413 C2409 1.429 . S
C2413 C2414 1.523 . S
C2414 C2398 1.368 . S
C2414 C2410 1.368 . S
C2414 C2413 1.523 . S
H2415 C2390 0.950 . S
H2416 C2392 0.950 . S
H2417 C2393 0.949 . S
H2418 C2395 0.950 . S
H2419 C2397 0.950 . S
C2420 C2421 1.349 . S
C2420 C2422 1.327 . S
C2420 H2445 0.950 . S
C2421 C2420 1.349 . S
C2421 C2437 1.349 . S
C2422 C2420 1.327 . S
C2422 C2441 1.429 . S
C2422 H2446 0.950 . S
C2423 C2440 1.574 . S
C2423 C2442 1.368 . S
C2423 H2447 0.949 . S
H2424 C2428 0.949 . S
C2425 C2426 1.349 . S
C2425 C2427 1.327 . S
C2425 H2448 0.950 . S
C2426 C2425 1.349 . S
C2426 C2438 1.349 . S
C2427 C2425 1.327 . S
C2427 C2443 1.429 . S
C2427 H2449 0.950 . S
C2428 H2424 0.949 . S
C2428 C2436 1.574 . S
C2428 C2444 1.368 . S
H2429 C2437 0.950 . S
H2430 C2435 0.950 . S
H2431 C2436 0.949 . S
H2432 C2438 0.950 . S
H2433 C2439 0.950 . S
H2434 C2440 0.949 . S
C2435 H2430 0.950 . S
C2435 C2437 1.327 . S
C2435 C2441 1.429 . S
C2436 C2428 1.574 . S
C2436 H2431 0.949 . S
C2436 C2442 1.368 . S
C2437 C2421 1.349 . S
C2437 H2429 0.950 . S
C2437 C2435 1.327 . S
C2438 C2426 1.349 . S
C2438 H2432 0.950 . S
C2438 C2439 1.327 . S
C2439 H2433 0.950 . S
C2439 C2438 1.327 . S
C2439 C2443 1.429 . S
C2440 C2423 1.574 . S
C2440 H2434 0.949 . S
C2440 C2444 1.368 . S
C2441 C2422 1.429 . S
C2441 C2435 1.429 . S
C2441 C2442 1.523 . S
C2442 C2423 1.368 . S
C2442 C2436 1.368 . S
C2442 C2441 1.523 . S
C2443 C2427 1.429 . S
C2443 C2439 1.429 . S
C2443 C2444 1.523 . S
C2444 C2428 1.368 . S
C2444 C2440 1.368 . S
C2444 C2443 1.523 . S
H2445 C2420 0.950 . S
H2446 C2422 0.950 . S
H2447 C2423 0.949 . S
H2448 C2425 0.950 . S
H2449 C2427 0.950 . S
C2450 C2451 1.349 . S
C2450 C2452 1.327 . S
C2450 H2475 0.950 . S
C2451 C2450 1.349 . S
C2451 C2467 1.349 . S
C2452 C2450 1.327 . S
C2452 C2471 1.429 . S
C2452 H2476 0.950 . S
C2453 C2470 1.574 1_455 S
C2453 C2472 1.368 . S
C2453 H2477 0.949 . S
H2454 C2458 0.949 . S
C2455 C2456 1.349 . S
C2455 C2457 1.327 . S
C2455 H2478 0.950 . S
C2456 C2455 1.349 . S
C2456 C2468 1.349 . S
C2457 C2455 1.327 . S
C2457 C2473 1.429 . S
C2457 H2479 0.950 . S
C2458 H2454 0.949 . S
C2458 C2466 1.574 . S
C2458 C2474 1.368 . S
H2459 C2467 0.950 . S
H2460 C2465 0.950 . S
H2461 C2466 0.949 . S
H2462 C2468 0.950 . S
H2463 C2469 0.950 . S
H2464 C2470 0.949 . S
C2465 H2460 0.950 . S
C2465 C2467 1.327 . S
C2465 C2471 1.429 . S
C2466 C2458 1.574 . S
C2466 H2461 0.949 . S
C2466 C2472 1.368 . S
C2467 C2451 1.349 . S
C2467 H2459 0.950 . S
C2467 C2465 1.327 . S
C2468 C2456 1.349 . S
C2468 H2462 0.950 . S
C2468 C2469 1.327 . S
C2469 H2463 0.950 . S
C2469 C2468 1.327 . S
C2469 C2473 1.429 . S
C2470 C2453 1.574 1_655 S
C2470 H2464 0.949 . S
C2470 C2474 1.368 1_655 S
C2471 C2452 1.429 . S
C2471 C2465 1.429 . S
C2471 C2472 1.523 . S
C2472 C2453 1.368 . S
C2472 C2466 1.368 . S
C2472 C2471 1.523 . S
C2473 C2457 1.429 . S
C2473 C2469 1.429 . S
C2473 C2474 1.523 1_655 S
C2474 C2458 1.368 . S
C2474 C2470 1.368 1_455 S
C2474 C2473 1.523 1_455 S
H2475 C2450 0.950 . S
H2476 C2452 0.950 . S
H2477 C2453 0.949 . S
H2478 C2455 0.950 . S
H2479 C2457 0.950 . S
C2480 C2481 1.349 . S
C2480 C2482 1.327 . S
C2480 H2505 0.950 . S
C2481 C2480 1.349 . S
C2481 C2497 1.349 . S
C2482 C2480 1.327 . S
C2482 C2501 1.429 . S
C2482 H2506 0.950 . S
C2483 C2500 1.574 . S
C2483 C2502 1.368 . S
C2483 H2507 0.949 . S
H2484 C2488 0.949 . S
C2485 C2486 1.349 . S
C2485 C2487 1.327 . S
C2485 H2508 0.950 . S
C2486 C2485 1.349 . S
C2486 C2498 1.349 . S
C2487 C2485 1.327 . S
C2487 C2503 1.429 . S
C2487 H2509 0.950 . S
C2488 H2484 0.949 . S
C2488 C2496 1.574 . S
C2488 C2504 1.368 . S
H2489 C2497 0.950 . S
H2490 C2495 0.950 . S
H2491 C2496 0.949 . S
H2492 C2498 0.950 . S
H2493 C2499 0.950 . S
H2494 C2500 0.949 . S
C2495 H2490 0.950 . S
C2495 C2497 1.327 . S
C2495 C2501 1.429 . S
C2496 C2488 1.574 . S
C2496 H2491 0.949 . S
C2496 C2502 1.368 . S
C2497 C2481 1.349 . S
C2497 H2489 0.950 . S
C2497 C2495 1.327 . S
C2498 C2486 1.349 . S
C2498 H2492 0.950 . S
C2498 C2499 1.327 . S
C2499 H2493 0.950 . S
C2499 C2498 1.327 . S
C2499 C2503 1.429 . S
C2500 C2483 1.574 . S
C2500 H2494 0.949 . S
C2500 C2504 1.368 . S
C2501 C2482 1.429 . S
C2501 C2495 1.429 . S
C2501 C2502 1.523 . S
C2502 C2483 1.368 . S
C2502 C2496 1.368 . S
C2502 C2501 1.523 . S
C2503 C2487 1.429 . S
C2503 C2499 1.429 . S
C2503 C2504 1.523 . S
C2504 C2488 1.368 . S
C2504 C2500 1.368 . S
C2504 C2503 1.523 . S
H2505 C2480 0.950 . S
H2506 C2482 0.950 . S
H2507 C2483 0.949 . S
H2508 C2485 0.950 . S
H2509 C2487 0.950 . S
C2510 C2511 1.349 . S
C2510 C2512 1.327 . S
C2510 H2535 0.950 . S
C2511 C2510 1.349 . S
C2511 C2527 1.349 . S
C2512 C2510 1.327 . S
C2512 C2531 1.429 . S
C2512 H2536 0.950 . S
C2513 C2530 1.574 . S
C2513 C2532 1.368 . S
C2513 H2537 0.949 1_655 S
H2514 C2518 0.949 . S
C2515 C2516 1.349 . S
C2515 C2517 1.327 . S
C2515 H2538 0.950 . S
C2516 C2515 1.349 . S
C2516 C2528 1.349 . S
C2517 C2515 1.327 . S
C2517 C2533 1.429 . S
C2517 H2539 0.950 . S
C2518 H2514 0.949 . S
C2518 C2526 1.574 . S
C2518 C2534 1.368 . S
H2519 C2527 0.950 . S
H2520 C2525 0.950 . S
H2521 C2526 0.949 . S
H2522 C2528 0.950 . S
H2523 C2529 0.950 . S
H2524 C2530 0.949 . S
C2525 H2520 0.950 . S
C2525 C2527 1.327 . S
C2525 C2531 1.429 . S
C2526 C2518 1.574 . S
C2526 H2521 0.949 . S
C2526 C2532 1.368 . S
C2527 C2511 1.349 . S
C2527 H2519 0.950 . S
C2527 C2525 1.327 . S
C2528 C2516 1.349 . S
C2528 H2522 0.950 . S
C2528 C2529 1.327 . S
C2529 H2523 0.950 . S
C2529 C2528 1.327 . S
C2529 C2533 1.429 . S
C2530 C2513 1.574 . S
C2530 H2524 0.949 . S
C2530 C2534 1.368 . S
C2531 C2512 1.429 . S
C2531 C2525 1.429 . S
C2531 C2532 1.523 1_455 S
C2532 C2513 1.368 . S
C2532 C2526 1.368 . S
C2532 C2531 1.523 1_655 S
C2533 C2517 1.429 . S
C2533 C2529 1.429 . S
C2533 C2534 1.523 . S
C2534 C2518 1.368 . S
C2534 C2530 1.368 . S
C2534 C2533 1.523 . S
H2535 C2510 0.950 . S
H2536 C2512 0.950 . S
H2537 C2513 0.949 1_455 S
H2538 C2515 0.950 . S
H2539 C2517 0.950 . S
C2540 C2541 1.349 . S
C2540 C2542 1.327 . S
C2540 H2565 0.950 . S
C2541 C2540 1.349 . S
C2541 C2557 1.349 . S
C2542 C2540 1.327 . S
C2542 C2561 1.429 . S
C2542 H2566 0.950 . S
C2543 C2560 1.574 . S
C2543 C2562 1.368 . S
C2543 H2567 0.949 . S
H2544 C2548 0.949 . S
C2545 C2546 1.349 . S
C2545 C2547 1.327 . S
C2545 H2568 0.950 . S
C2546 C2545 1.349 . S
C2546 C2558 1.349 . S
C2547 C2545 1.327 . S
C2547 C2563 1.429 . S
C2547 H2569 0.950 . S
C2548 H2544 0.949 . S
C2548 C2556 1.574 . S
C2548 C2564 1.368 . S
H2549 C2557 0.950 . S
H2550 C2555 0.950 . S
H2551 C2556 0.949 . S
H2552 C2558 0.950 . S
H2553 C2559 0.950 . S
H2554 C2560 0.949 . S
C2555 H2550 0.950 . S
C2555 C2557 1.327 . S
C2555 C2561 1.429 . S
C2556 C2548 1.574 . S
C2556 H2551 0.949 . S
C2556 C2562 1.368 . S
C2557 C2541 1.349 . S
C2557 H2549 0.950 . S
C2557 C2555 1.327 . S
C2558 C2546 1.349 . S
C2558 H2552 0.950 . S
C2558 C2559 1.327 . S
C2559 H2553 0.950 . S
C2559 C2558 1.327 . S
C2559 C2563 1.429 . S
C2560 C2543 1.574 . S
C2560 H2554 0.949 . S
C2560 C2564 1.368 . S
C2561 C2542 1.429 . S
C2561 C2555 1.429 . S
C2561 C2562 1.523 . S
C2562 C2543 1.368 . S
C2562 C2556 1.368 . S
C2562 C2561 1.523 . S
C2563 C2547 1.429 . S
C2563 C2559 1.429 . S
C2563 C2564 1.523 . S
C2564 C2548 1.368 . S
C2564 C2560 1.368 . S
C2564 C2563 1.523 . S
H2565 C2540 0.950 . S
H2566 C2542 0.950 . S
H2567 C2543 0.949 . S
H2568 C2545 0.950 . S
H2569 C2547 0.950 . S
C2570 C2571 1.349 . S
C2570 C2572 1.327 . S
C2570 H2595 0.950 . S
C2571 C2570 1.349 . S
C2571 C2587 1.349 . S
C2572 C2570 1.327 . S
C2572 C2591 1.429 . S
C2572 H2596 0.950 . S
C2573 C2590 1.574 . S
C2573 C2592 1.368 . S
C2573 H2597 0.949 . S
H2574 C2578 0.949 . S
C2575 C2576 1.349 . S
C2575 C2577 1.327 . S
C2575 H2598 0.950 . S
C2576 C2575 1.349 . S
C2576 C2588 1.349 . S
C2577 C2575 1.327 . S
C2577 C2593 1.429 . S
C2577 H2599 0.950 . S
C2578 H2574 0.949 . S
C2578 C2586 1.574 . S
C2578 C2594 1.368 . S
H2579 C2587 0.950 . S
H2580 C2585 0.950 . S
H2581 C2586 0.949 . S
H2582 C2588 0.950 . S
H2583 C2589 0.950 . S
H2584 C2590 0.949 . S
C2585 H2580 0.950 . S
C2585 C2587 1.327 . S
C2585 C2591 1.429 . S
C2586 C2578 1.574 . S
C2586 H2581 0.949 . S
C2586 C2592 1.368 . S
C2587 C2571 1.349 . S
C2587 H2579 0.950 . S
C2587 C2585 1.327 . S
C2588 C2576 1.349 . S
C2588 H2582 0.950 . S
C2588 C2589 1.327 . S
C2589 H2583 0.950 . S
C2589 C2588 1.327 . S
C2589 C2593 1.429 . S
C2590 C2573 1.574 . S
C2590 H2584 0.949 . S
C2590 C2594 1.368 . S
C2591 C2572 1.429 . S
C2591 C2585 1.429 . S
C2591 C2592 1.523 . S
C2592 C2573 1.368 . S
C2592 C2586 1.368 . S
C2592 C2591 1.523 . S
C2593 C2577 1.429 . S
C2593 C2589 1.429 . S
C2593 C2594 1.523 . S
C2594 C2578 1.368 . S
C2594 C2590 1.368 . S
C2594 C2593 1.523 . S
H2595 C2570 0.950 . S
H2596 C2572 0.950 . S
H2597 C2573 0.949 . S
H2598 C2575 0.950 . S
H2599 C2577 0.950 . S
C2600 C2601 1.349 . S
C2600 C2602 1.327 . S
C2600 H2625 0.950 . S
C2601 C2600 1.349 . S
C2601 C2617 1.349 . S
C2602 C2600 1.327 . S
C2602 C2621 1.429 . S
C2602 H2626 0.950 . S
C2603 C2620 1.574 . S
C2603 C2622 1.368 . S
C2603 H2627 0.949 . S
H2604 C2608 0.949 . S
C2605 C2606 1.349 . S
C2605 C2607 1.327 . S
C2605 H2628 0.950 . S
C2606 C2605 1.349 . S
C2606 C2618 1.349 . S
C2607 C2605 1.327 . S
C2607 C2623 1.429 . S
C2607 H2629 0.950 . S
C2608 H2604 0.949 . S
C2608 C2616 1.574 . S
C2608 C2624 1.368 . S
H2609 C2617 0.950 . S
H2610 C2615 0.950 . S
H2611 C2616 0.949 . S
H2612 C2618 0.950 . S
H2613 C2619 0.950 . S
H2614 C2620 0.949 . S
C2615 H2610 0.950 . S
C2615 C2617 1.327 . S
C2615 C2621 1.429 . S
C2616 C2608 1.574 . S
C2616 H2611 0.949 . S
C2616 C2622 1.368 . S
C2617 C2601 1.349 . S
C2617 H2609 0.950 . S
C2617 C2615 1.327 . S
C2618 C2606 1.349 . S
C2618 H2612 0.950 . S
C2618 C2619 1.327 . S
C2619 H2613 0.950 . S
C2619 C2618 1.327 . S
C2619 C2623 1.429 . S
C2620 C2603 1.574 . S
C2620 H2614 0.949 . S
C2620 C2624 1.368 . S
C2621 C2602 1.429 . S
C2621 C2615 1.429 . S
C2621 C2622 1.523 . S
C2622 C2603 1.368 . S
C2622 C2616 1.368 . S
C2622 C2621 1.523 . S
C2623 C2607 1.429 . S
C2623 C2619 1.429 . S
C2623 C2624 1.523 . S
C2624 C2608 1.368 . S
C2624 C2620 1.368 . S
C2624 C2623 1.523 . S
H2625 C2600 0.950 . S
H2626 C2602 0.950 . S
H2627 C2603 0.949 . S
H2628 C2605 0.950 . S
H2629 C2607 0.950 . S
C2630 C2631 1.349 . S
C2630 C2632 1.327 . S
C2630 H2655 0.950 . S
C2631 C2630 1.349 . S
C2631 C2647 1.349 . S
C2632 C2630 1.327 . S
C2632 C2651 1.429 . S
C2632 H2656 0.950 . S
C2633 C2650 1.574 . S
C2633 C2652 1.368 . S
C2633 H2657 0.949 . S
H2634 C2638 0.949 . S
C2635 C2636 1.349 . S
C2635 C2637 1.327 . S
C2635 H2658 0.950 . S
C2636 C2635 1.349 . S
C2636 C2648 1.349 . S
C2637 C2635 1.327 . S
C2637 C2653 1.429 . S
C2637 H2659 0.950 . S
C2638 H2634 0.949 . S
C2638 C2646 1.574 . S
C2638 C2654 1.368 . S
H2639 C2647 0.950 . S
H2640 C2645 0.950 . S
H2641 C2646 0.949 . S
H2642 C2648 0.950 . S
H2643 C2649 0.950 . S
H2644 C2650 0.949 . S
C2645 H2640 0.950 . S
C2645 C2647 1.327 . S
C2645 C2651 1.429 . S
C2646 C2638 1.574 . S
C2646 H2641 0.949 . S
C2646 C2652 1.368 . S
C2647 C2631 1.349 . S
C2647 H2639 0.950 . S
C2647 C2645 1.327 . S
C2648 C2636 1.349 . S
C2648 H2642 0.950 . S
C2648 C2649 1.327 . S
C2649 H2643 0.950 . S
C2649 C2648 1.327 . S
C2649 C2653 1.429 . S
C2650 C2633 1.574 . S
C2650 H2644 0.949 . S
C2650 C2654 1.368 . S
C2651 C2632 1.429 . S
C2651 C2645 1.429 . S
C2651 C2652 1.523 . S
C2652 C2633 1.368 . S
C2652 C2646 1.368 . S
C2652 C2651 1.523 . S
C2653 C2637 1.429 . S
C2653 C2649 1.429 . S
C2653 C2654 1.523 . S
C2654 C2638 1.368 . S
C2654 C2650 1.368 . S
C2654 C2653 1.523 . S
H2655 C2630 0.950 . S
H2656 C2632 0.950 . S
H2657 C2633 0.949 . S
H2658 C2635 0.950 . S
H2659 C2637 0.950 . S
C2660 C2661 1.349 . S
C2660 C2662 1.327 . S
C2660 H2685 0.950 . S
C2661 C2660 1.349 . S
C2661 C2677 1.349 . S
C2662 C2660 1.327 . S
C2662 C2681 1.429 . S
C2662 H2686 0.950 . S
C2663 C2680 1.574 . S
C2663 C2682 1.368 . S
C2663 H2687 0.949 . S
H2664 C2668 0.949 . S
C2665 C2666 1.349 . S
C2665 C2667 1.327 . S
C2665 H2688 0.950 . S
C2666 C2665 1.349 . S
C2666 C2678 1.349 . S
C2667 C2665 1.327 . S
C2667 C2683 1.429 . S
C2667 H2689 0.950 . S
C2668 H2664 0.949 . S
C2668 C2676 1.574 . S
C2668 C2684 1.368 . S
H2669 C2677 0.950 . S
H2670 C2675 0.950 . S
H2671 C2676 0.949 . S
H2672 C2678 0.950 . S
H2673 C2679 0.950 . S
H2674 C2680 0.949 . S
C2675 H2670 0.950 . S
C2675 C2677 1.327 . S
C2675 C2681 1.429 . S
C2676 C2668 1.574 . S
C2676 H2671 0.949 . S
C2676 C2682 1.368 . S
C2677 C2661 1.349 . S
C2677 H2669 0.950 . S
C2677 C2675 1.327 . S
C2678 C2666 1.349 . S
C2678 H2672 0.950 . S
C2678 C2679 1.327 . S
C2679 H2673 0.950 . S
C2679 C2678 1.327 . S
C2679 C2683 1.429 . S
C2680 C2663 1.574 . S
C2680 H2674 0.949 . S
C2680 C2684 1.368 . S
C2681 C2662 1.429 . S
C2681 C2675 1.429 . S
C2681 C2682 1.523 . S
C2682 C2663 1.368 . S
C2682 C2676 1.368 . S
C2682 C2681 1.523 . S
C2683 C2667 1.429 . S
C2683 C2679 1.429 . S
C2683 C2684 1.523 . S
C2684 C2668 1.368 . S
C2684 C2680 1.368 . S
C2684 C2683 1.523 . S
H2685 C2660 0.950 . S
H2686 C2662 0.950 . S
H2687 C2663 0.949 . S
H2688 C2665 0.950 . S
H2689 C2667 0.950 . S
C2690 C2691 1.349 . S
C2690 C2692 1.327 . S
C2690 H2715 0.950 . S
C2691 C2690 1.349 . S
C2691 C2707 1.349 . S
C2692 C2690 1.327 . S
C2692 C2711 1.429 . S
C2692 H2716 0.950 . S
C2693 C2710 1.574 . S
C2693 C2712 1.368 . S
C2693 H2717 0.949 . S
H2694 C2698 0.949 1_455 S
C2695 C2696 1.349 . S
C2695 C2697 1.327 . S
C2695 H2718 0.950 . S
C2696 C2695 1.349 . S
C2696 C2708 1.349 . S
C2697 C2695 1.327 . S
C2697 C2713 1.429 . S
C2697 H2719 0.950 . S
C2698 H2694 0.949 1_655 S
C2698 C2706 1.574 . S
C2698 C2714 1.368 . S
H2699 C2707 0.950 . S
H2700 C2705 0.950 . S
H2701 C2706 0.949 . S
H2702 C2708 0.950 . S
H2703 C2709 0.950 . S
H2704 C2710 0.949 . S
C2705 H2700 0.950 . S
C2705 C2707 1.327 . S
C2705 C2711 1.429 . S
C2706 C2698 1.574 . S
C2706 H2701 0.949 . S
C2706 C2712 1.368 . S
C2707 C2691 1.349 . S
C2707 H2699 0.950 . S
C2707 C2705 1.327 . S
C2708 C2696 1.349 . S
C2708 H2702 0.950 . S
C2708 C2709 1.327 . S
C2709 H2703 0.950 . S
C2709 C2708 1.327 . S
C2709 C2713 1.429 . S
C2710 C2693 1.574 . S
C2710 H2704 0.949 . S
C2710 C2714 1.368 . S
C2711 C2692 1.429 . S
C2711 C2705 1.429 . S
C2711 C2712 1.523 . S
C2712 C2693 1.368 . S
C2712 C2706 1.368 . S
C2712 C2711 1.523 . S
C2713 C2697 1.429 . S
C2713 C2709 1.429 . S
C2713 C2714 1.523 1_455 S
C2714 C2698 1.368 . S
C2714 C2710 1.368 . S
C2714 C2713 1.523 1_655 S
H2715 C2690 0.950 . S
H2716 C2692 0.950 . S
H2717 C2693 0.949 . S
H2718 C2695 0.950 . S
H2719 C2697 0.950 . S
C2720 C2721 1.349 . S
C2720 C2722 1.327 . S
C2720 H2745 0.950 . S
C2721 C2720 1.349 . S
C2721 C2737 1.349 . S
C2722 C2720 1.327 . S
C2722 C2741 1.429 . S
C2722 H2746 0.950 . S
C2723 C2740 1.574 . S
C2723 C2742 1.368 . S
C2723 H2747 0.949 . S
H2724 C2728 0.949 . S
C2725 C2726 1.349 . S
C2725 C2727 1.327 . S
C2725 H2748 0.950 . S
C2726 C2725 1.349 . S
C2726 C2738 1.349 . S
C2727 C2725 1.327 . S
C2727 C2743 1.429 . S
C2727 H2749 0.950 . S
C2728 H2724 0.949 . S
C2728 C2736 1.574 . S
C2728 C2744 1.368 . S
H2729 C2737 0.950 . S
H2730 C2735 0.950 . S
H2731 C2736 0.949 . S
H2732 C2738 0.950 . S
H2733 C2739 0.950 . S
H2734 C2740 0.949 . S
C2735 H2730 0.950 . S
C2735 C2737 1.327 . S
C2735 C2741 1.429 . S
C2736 C2728 1.574 . S
C2736 H2731 0.949 . S
C2736 C2742 1.368 . S
C2737 C2721 1.349 . S
C2737 H2729 0.950 . S
C2737 C2735 1.327 . S
C2738 C2726 1.349 . S
C2738 H2732 0.950 . S
C2738 C2739 1.327 . S
C2739 H2733 0.950 . S
C2739 C2738 1.327 . S
C2739 C2743 1.429 . S
C2740 C2723 1.574 . S
C2740 H2734 0.949 . S
C2740 C2744 1.368 . S
C2741 C2722 1.429 . S
C2741 C2735 1.429 . S
C2741 C2742 1.523 . S
C2742 C2723 1.368 . S
C2742 C2736 1.368 . S
C2742 C2741 1.523 . S
C2743 C2727 1.429 . S
C2743 C2739 1.429 . S
C2743 C2744 1.523 . S
C2744 C2728 1.368 . S
C2744 C2740 1.368 . S
C2744 C2743 1.523 . S
H2745 C2720 0.950 . S
H2746 C2722 0.950 . S
H2747 C2723 0.949 . S
H2748 C2725 0.950 . S
H2749 C2727 0.950 . S
C2750 C2751 1.349 . S
C2750 C2752 1.327 . S
C2750 H2775 0.950 . S
C2751 C2750 1.349 . S
C2751 C2767 1.349 . S
C2752 C2750 1.327 . S
C2752 C2771 1.429 . S
C2752 H2776 0.950 . S
C2753 C2770 1.574 . S
C2753 C2772 1.368 . S
C2753 H2777 0.949 . S
H2754 C2758 0.949 . S
C2755 C2756 1.349 . S
C2755 C2757 1.327 . S
C2755 H2778 0.950 . S
C2756 C2755 1.349 . S
C2756 C2768 1.349 . S
C2757 C2755 1.327 . S
C2757 C2773 1.429 . S
C2757 H2779 0.950 . S
C2758 H2754 0.949 . S
C2758 C2766 1.574 . S
C2758 C2774 1.368 . S
H2759 C2767 0.950 . S
H2760 C2765 0.950 . S
H2761 C2766 0.949 . S
H2762 C2768 0.950 . S
H2763 C2769 0.950 . S
H2764 C2770 0.949 . S
C2765 H2760 0.950 . S
C2765 C2767 1.327 . S
C2765 C2771 1.429 . S
C2766 C2758 1.574 . S
C2766 H2761 0.949 . S
C2766 C2772 1.368 . S
C2767 C2751 1.349 . S
C2767 H2759 0.950 . S
C2767 C2765 1.327 . S
C2768 C2756 1.349 . S
C2768 H2762 0.950 . S
C2768 C2769 1.327 . S
C2769 H2763 0.950 . S
C2769 C2768 1.327 . S
C2769 C2773 1.429 . S
C2770 C2753 1.574 . S
C2770 H2764 0.949 . S
C2770 C2774 1.368 . S
C2771 C2752 1.429 . S
C2771 C2765 1.429 . S
C2771 C2772 1.523 . S
C2772 C2753 1.368 . S
C2772 C2766 1.368 . S
C2772 C2771 1.523 . S
C2773 C2757 1.429 . S
C2773 C2769 1.429 . S
C2773 C2774 1.523 . S
C2774 C2758 1.368 . S
C2774 C2770 1.368 . S
C2774 C2773 1.523 . S
H2775 C2750 0.950 . S
H2776 C2752 0.950 . S
H2777 C2753 0.949 . S
H2778 C2755 0.950 . S
H2779 C2757 0.950 . S
C2780 C2781 1.349 . S
C2780 C2782 1.327 . S
C2780 H2805 0.950 . S
C2781 C2780 1.349 . S
C2781 C2797 1.349 . S
C2782 C2780 1.327 . S
C2782 C2801 1.429 . S
C2782 H2806 0.950 . S
C2783 C2800 1.574 . S
C2783 C2802 1.368 . S
C2783 H2807 0.949 . S
H2784 C2788 0.949 . S
C2785 C2786 1.349 . S
C2785 C2787 1.327 . S
C2785 H2808 0.950 . S
C2786 C2785 1.349 . S
C2786 C2798 1.349 . S
C2787 C2785 1.327 . S
C2787 C2803 1.429 . S
C2787 H2809 0.950 . S
C2788 H2784 0.949 . S
C2788 C2796 1.574 . S
C2788 C2804 1.368 . S
H2789 C2797 0.950 . S
H2790 C2795 0.950 . S
H2791 C2796 0.949 . S
H2792 C2798 0.950 . S
H2793 C2799 0.950 . S
H2794 C2800 0.949 . S
C2795 H2790 0.950 . S
C2795 C2797 1.327 . S
C2795 C2801 1.429 . S
C2796 C2788 1.574 . S
C2796 H2791 0.949 . S
C2796 C2802 1.368 . S
C2797 C2781 1.349 . S
C2797 H2789 0.950 . S
C2797 C2795 1.327 . S
C2798 C2786 1.349 . S
C2798 H2792 0.950 . S
C2798 C2799 1.327 . S
C2799 H2793 0.950 . S
C2799 C2798 1.327 . S
C2799 C2803 1.429 . S
C2800 C2783 1.574 . S
C2800 H2794 0.949 . S
C2800 C2804 1.368 . S
C2801 C2782 1.429 . S
C2801 C2795 1.429 . S
C2801 C2802 1.523 . S
C2802 C2783 1.368 . S
C2802 C2796 1.368 . S
C2802 C2801 1.523 . S
C2803 C2787 1.429 . S
C2803 C2799 1.429 . S
C2803 C2804 1.523 . S
C2804 C2788 1.368 . S
C2804 C2800 1.368 . S
C2804 C2803 1.523 . S
H2805 C2780 0.950 . S
H2806 C2782 0.950 . S
H2807 C2783 0.949 . S
H2808 C2785 0.950 . S
H2809 C2787 0.950 . S
C2810 C2811 1.349 . S
C2810 C2812 1.327 . S
C2810 H2835 0.950 . S
C2811 C2810 1.349 . S
C2811 C2827 1.349 . S
C2812 C2810 1.327 . S
C2812 C2831 1.429 . S
C2812 H2836 0.950 . S
C2813 C2830 1.574 . S
C2813 C2832 1.368 . S
C2813 H2837 0.949 . S
H2814 C2818 0.949 . S
C2815 C2816 1.349 . S
C2815 C2817 1.327 . S
C2815 H2838 0.950 . S
C2816 C2815 1.349 . S
C2816 C2828 1.349 . S
C2817 C2815 1.327 . S
C2817 C2833 1.429 . S
C2817 H2839 0.950 . S
C2818 H2814 0.949 . S
C2818 C2826 1.574 . S
C2818 C2834 1.368 . S
H2819 C2827 0.950 . S
H2820 C2825 0.950 . S
H2821 C2826 0.949 . S
H2822 C2828 0.950 . S
H2823 C2829 0.950 . S
H2824 C2830 0.949 . S
C2825 H2820 0.950 . S
C2825 C2827 1.327 . S
C2825 C2831 1.429 . S
C2826 C2818 1.574 . S
C2826 H2821 0.949 . S
C2826 C2832 1.368 . S
C2827 C2811 1.349 . S
C2827 H2819 0.950 . S
C2827 C2825 1.327 . S
C2828 C2816 1.349 . S
C2828 H2822 0.950 . S
C2828 C2829 1.327 . S
C2829 H2823 0.950 . S
C2829 C2828 1.327 . S
C2829 C2833 1.429 . S
C2830 C2813 1.574 . S
C2830 H2824 0.949 . S
C2830 C2834 1.368 . S
C2831 C2812 1.429 . S
C2831 C2825 1.429 . S
C2831 C2832 1.523 . S
C2832 C2813 1.368 . S
C2832 C2826 1.368 . S
C2832 C2831 1.523 . S
C2833 C2817 1.429 . S
C2833 C2829 1.429 . S
C2833 C2834 1.523 1_455 S
C2834 C2818 1.368 . S
C2834 C2830 1.368 . S
C2834 C2833 1.523 1_655 S
H2835 C2810 0.950 . S
H2836 C2812 0.950 . S
H2837 C2813 0.949 . S
H2838 C2815 0.950 . S
H2839 C2817 0.950 . S
C2840 C2841 1.349 . S
C2840 C2842 1.327 . S
C2840 H2865 0.950 . S
C2841 C2840 1.349 . S
C2841 C2857 1.349 . S
C2842 C2840 1.327 . S
C2842 C2861 1.429 . S
C2842 H2866 0.950 . S
C2843 C2860 1.574 . S
C2843 C2862 1.368 . S
C2843 H2867 0.949 . S
H2844 C2848 0.949 . S
C2845 C2846 1.349 . S
C2845 C2847 1.327 . S
C2845 H2868 0.950 . S
C2846 C2845 1.349 . S
C2846 C2858 1.349 . S
C2847 C2845 1.327 . S
C2847 C2863 1.429 . S
C2847 H2869 0.950 . S
C2848 H2844 0.949 . S
C2848 C2856 1.574 . S
C2848 C2864 1.368 . S
H2849 C2857 0.950 . S
H2850 C2855 0.950 . S
H2851 C2856 0.949 . S
H2852 C2858 0.950 . S
H2853 C2859 0.950 . S
H2854 C2860 0.949 . S
C2855 H2850 0.950 . S
C2855 C2857 1.327 . S
C2855 C2861 1.429 . S
C2856 C2848 1.574 . S
C2856 H2851 0.949 . S
C2856 C2862 1.368 . S
C2857 C2841 1.349 . S
C2857 H2849 0.950 . S
C2857 C2855 1.327 . S
C2858 C2846 1.349 . S
C2858 H2852 0.950 . S
C2858 C2859 1.327 . S
C2859 H2853 0.950 . S
C2859 C2858 1.327 . S
C2859 C2863 1.429 . S
C2860 C2843 1.574 . S
C2860 H2854 0.949 . S
C2860 C2864 1.368 . S
C2861 C2842 1.429 . S
C2861 C2855 1.429 . S
C2861 C2862 1.523 . S
C2862 C2843 1.368 . S
C2862 C2856 1.368 . S
C2862 C2861 1.523 . S
C2863 C2847 1.429 . S
C2863 C2859 1.429 . S
C2863 C2864 1.523 . S
C2864 C2848 1.368 . S
C2864 C2860 1.368 . S
C2864 C2863 1.523 . S
H2865 C2840 0.950 . S
H2866 C2842 0.950 . S
H2867 C2843 0.949 . S
H2868 C2845 0.950 . S
H2869 C2847 0.950 . S
C2870 C2871 1.349 . S
C2870 C2872 1.327 . S
C2870 H2895 0.950 . S
C2871 C2870 1.349 . S
C2871 C2887 1.349 . S
C2872 C2870 1.327 . S
C2872 C2891 1.429 . S
C2872 H2896 0.950 . S
C2873 C2890 1.574 1_655 S
C2873 C2892 1.368 . S
C2873 H2897 0.949 . S
H2874 C2878 0.949 . S
C2875 C2876 1.349 . S
C2875 C2877 1.327 . S
C2875 H2898 0.950 . S
C2876 C2875 1.349 . S
C2876 C2888 1.349 . S
C2877 C2875 1.327 . S
C2877 C2893 1.429 . S
C2877 H2899 0.950 . S
C2878 H2874 0.949 . S
C2878 C2886 1.574 . S
C2878 C2894 1.368 . S
H2879 C2887 0.950 . S
H2880 C2885 0.950 . S
H2881 C2886 0.949 . S
H2882 C2888 0.950 . S
H2883 C2889 0.950 . S
H2884 C2890 0.949 . S
C2885 H2880 0.950 . S
C2885 C2887 1.327 . S
C2885 C2891 1.429 . S
C2886 C2878 1.574 . S
C2886 H2881 0.949 . S
C2886 C2892 1.368 . S
C2887 C2871 1.349 . S
C2887 H2879 0.950 . S
C2887 C2885 1.327 . S
C2888 C2876 1.349 . S
C2888 H2882 0.950 . S
C2888 C2889 1.327 . S
C2889 H2883 0.950 . S
C2889 C2888 1.327 . S
C2889 C2893 1.429 . S
C2890 C2873 1.574 1_455 S
C2890 H2884 0.949 . S
C2890 C2894 1.368 1_455 S
C2891 C2872 1.429 . S
C2891 C2885 1.429 . S
C2891 C2892 1.523 . S
C2892 C2873 1.368 . S
C2892 C2886 1.368 . S
C2892 C2891 1.523 . S
C2893 C2877 1.429 . S
C2893 C2889 1.429 . S
C2893 C2894 1.523 1_455 S
C2894 C2878 1.368 . S
C2894 C2890 1.368 1_655 S
C2894 C2893 1.523 1_655 S
H2895 C2870 0.950 . S
H2896 C2872 0.950 . S
H2897 C2873 0.949 . S
H2898 C2875 0.950 . S
H2899 C2877 0.950 . S
C2900 C2901 1.349 . S
C2900 C2902 1.327 . S
C2900 H2925 0.950 . S
C2901 C2900 1.349 . S
C2901 C2917 1.349 . S
C2902 C2900 1.327 . S
C2902 C2921 1.429 . S
C2902 H2926 0.950 . S
C2903 C2920 1.574 . S
C2903 C2922 1.368 . S
C2903 H2927 0.949 . S
H2904 C2908 0.949 . S
C2905 C2906 1.349 . S
C2905 C2907 1.327 . S
C2905 H2928 0.950 . S
C2906 C2905 1.349 . S
C2906 C2918 1.349 . S
C2907 C2905 1.327 . S
C2907 C2923 1.429 . S
C2907 H2929 0.950 . S
C2908 H2904 0.949 . S
C2908 C2916 1.574 . S
C2908 C2924 1.368 . S
H2909 C2917 0.950 . S
H2910 C2915 0.950 . S
H2911 C2916 0.949 . S
H2912 C2918 0.950 . S
H2913 C2919 0.950 . S
H2914 C2920 0.949 . S
C2915 H2910 0.950 . S
C2915 C2917 1.327 . S
C2915 C2921 1.429 . S
C2916 C2908 1.574 . S
C2916 H2911 0.949 . S
C2916 C2922 1.368 . S
C2917 C2901 1.349 . S
C2917 H2909 0.950 . S
C2917 C2915 1.327 . S
C2918 C2906 1.349 . S
C2918 H2912 0.950 . S
C2918 C2919 1.327 . S
C2919 H2913 0.950 . S
C2919 C2918 1.327 . S
C2919 C2923 1.429 . S
C2920 C2903 1.574 . S
C2920 H2914 0.949 . S
C2920 C2924 1.368 . S
C2921 C2902 1.429 . S
C2921 C2915 1.429 . S
C2921 C2922 1.523 . S
C2922 C2903 1.368 . S
C2922 C2916 1.368 . S
C2922 C2921 1.523 . S
C2923 C2907 1.429 . S
C2923 C2919 1.429 . S
C2923 C2924 1.523 . S
C2924 C2908 1.368 . S
C2924 C2920 1.368 . S
C2924 C2923 1.523 . S
H2925 C2900 0.950 . S
H2926 C2902 0.950 . S
H2927 C2903 0.949 . S
H2928 C2905 0.950 . S
H2929 C2907 0.950 . S
C2930 C2931 1.349 . S
C2930 C2932 1.327 . S
C2930 H2955 0.950 . S
C2931 C2930 1.349 . S
C2931 C2947 1.349 . S
C2932 C2930 1.327 . S
C2932 C2951 1.429 . S
C2932 H2956 0.950 . S
C2933 C2950 1.574 . S
C2933 C2952 1.368 . S
C2933 H2957 0.949 . S
H2934 C2938 0.949 . S
C2935 C2936 1.349 . S
C2935 C2937 1.327 . S
C2935 H2958 0.950 . S
C2936 C2935 1.349 . S
C2936 C2948 1.349 . S
C2937 C2935 1.327 . S
C2937 C2953 1.429 . S
C2937 H2959 0.950 . S
C2938 H2934 0.949 . S
C2938 C2946 1.574 . S
C2938 C2954 1.368 . S
H2939 C2947 0.950 . S
H2940 C2945 0.950 . S
H2941 C2946 0.949 . S
H2942 C2948 0.950 . S
H2943 C2949 0.950 . S
H2944 C2950 0.949 . S
C2945 H2940 0.950 . S
C2945 C2947 1.327 . S
C2945 C2951 1.429 . S
C2946 C2938 1.574 . S
C2946 H2941 0.949 . S
C2946 C2952 1.368 . S
C2947 C2931 1.349 . S
C2947 H2939 0.950 . S
C2947 C2945 1.327 . S
C2948 C2936 1.349 . S
C2948 H2942 0.950 . S
C2948 C2949 1.327 . S
C2949 H2943 0.950 . S
C2949 C2948 1.327 . S
C2949 C2953 1.429 . S
C2950 C2933 1.574 . S
C2950 H2944 0.949 . S
C2950 C2954 1.368 . S
C2951 C2932 1.429 . S
C2951 C2945 1.429 . S
C2951 C2952 1.523 . S
C2952 C2933 1.368 . S
C2952 C2946 1.368 . S
C2952 C2951 1.523 . S
C2953 C2937 1.429 . S
C2953 C2949 1.429 . S
C2953 C2954 1.523 . S
C2954 C2938 1.368 . S
C2954 C2950 1.368 . S
C2954 C2953 1.523 . S
H2955 C2930 0.950 . S
H2956 C2932 0.950 . S
H2957 C2933 0.949 . S
H2958 C2935 0.950 . S
H2959 C2937 0.950 . S
C2960 C2961 1.349 . S
C2960 C2962 1.327 . S
C2960 H2985 0.950 . S
C2961 C2960 1.349 . S
C2961 C2977 1.349 . S
C2962 C2960 1.327 . S
C2962 C2981 1.429 . S
C2962 H2986 0.950 . S
C2963 C2980 1.574 . S
C2963 C2982 1.368 . S
C2963 H2987 0.949 . S
H2964 C2968 0.949 . S
C2965 C2966 1.349 . S
C2965 C2967 1.327 . S
C2965 H2988 0.950 . S
C2966 C2965 1.349 . S
C2966 C2978 1.349 . S
C2967 C2965 1.327 . S
C2967 C2983 1.429 . S
C2967 H2989 0.950 . S
C2968 H2964 0.949 . S
C2968 C2976 1.574 . S
C2968 C2984 1.368 . S
H2969 C2977 0.950 . S
H2970 C2975 0.950 . S
H2971 C2976 0.949 . S
H2972 C2978 0.950 . S
H2973 C2979 0.950 . S
H2974 C2980 0.949 . S
C2975 H2970 0.950 . S
C2975 C2977 1.327 . S
C2975 C2981 1.429 . S
C2976 C2968 1.574 . S
C2976 H2971 0.949 . S
C2976 C2982 1.368 . S
C2977 C2961 1.349 . S
C2977 H2969 0.950 . S
C2977 C2975 1.327 . S
C2978 C2966 1.349 . S
C2978 H2972 0.950 . S
C2978 C2979 1.327 . S
C2979 H2973 0.950 . S
C2979 C2978 1.327 . S
C2979 C2983 1.429 . S
C2980 C2963 1.574 . S
C2980 H2974 0.949 . S
C2980 C2984 1.368 . S
C2981 C2962 1.429 . S
C2981 C2975 1.429 . S
C2981 C2982 1.523 . S
C2982 C2963 1.368 . S
C2982 C2976 1.368 . S
C2982 C2981 1.523 . S
C2983 C2967 1.429 . S
C2983 C2979 1.429 . S
C2983 C2984 1.523 . S
C2984 C2968 1.368 . S
C2984 C2980 1.368 . S
C2984 C2983 1.523 . S
H2985 C2960 0.950 . S
H2986 C2962 0.950 . S
H2987 C2963 0.949 . S
H2988 C2965 0.950 . S
H2989 C2967 0.950 . S
C2990 C2991 1.349 . S
C2990 C2992 1.327 . S
C2990 H3015 0.950 . S
C2991 C2990 1.349 . S
C2991 C3007 1.349 . S
C2992 C2990 1.327 . S
C2992 C3011 1.429 . S
C2992 H3016 0.950 . S
C2993 C3010 1.574 . S
C2993 C3012 1.368 . S
C2993 H3017 0.949 . S
H2994 C2998 0.949 . S
C2995 C2996 1.349 . S
C2995 C2997 1.327 . S
C2995 H3018 0.950 . S
C2996 C2995 1.349 . S
C2996 C3008 1.349 . S
C2997 C2995 1.327 . S
C2997 C3013 1.429 . S
C2997 H3019 0.950 . S
C2998 H2994 0.949 . S
C2998 C3006 1.574 . S
C2998 C3014 1.368 . S
H2999 C3007 0.950 . S
H3000 C3005 0.950 . S
H3001 C3006 0.949 . S
H3002 C3008 0.950 . S
H3003 C3009 0.950 . S
H3004 C3010 0.949 . S
C3005 H3000 0.950 . S
C3005 C3007 1.327 . S
C3005 C3011 1.429 . S
C3006 C2998 1.574 . S
C3006 H3001 0.949 . S
C3006 C3012 1.368 . S
C3007 C2991 1.349 . S
C3007 H2999 0.950 . S
C3007 C3005 1.327 . S
C3008 C2996 1.349 . S
C3008 H3002 0.950 . S
C3008 C3009 1.327 . S
C3009 H3003 0.950 . S
C3009 C3008 1.327 . S
C3009 C3013 1.429 . S
C3010 C2993 1.574 . S
C3010 H3004 0.949 . S
C3010 C3014 1.368 . S
C3011 C2992 1.429 . S
C3011 C3005 1.429 . S
C3011 C3012 1.523 . S
C3012 C2993 1.368 . S
C3012 C3006 1.368 . S
C3012 C3011 1.523 . S
C3013 C2997 1.429 . S
C3013 C3009 1.429 . S
C3013 C3014 1.523 . S
C3014 C2998 1.368 . S
C3014 C3010 1.368 . S
C3014 C3013 1.523 . S
H3015 C2990 0.950 . S
H3016 C2992 0.950 . S
H3017 C2993 0.949 . S
H3018 C2995 0.950 . S
H3019 C2997 0.950 . S
C3020 C3021 1.349 . S
C3020 C3022 1.327 . S
C3020 H3045 0.950 . S
C3021 C3020 1.349 . S
C3021 C3037 1.349 . S
C3022 C3020 1.327 . S
C3022 C3041 1.429 . S
C3022 H3046 0.950 . S
C3023 C3040 1.574 . S
C3023 C3042 1.368 . S
C3023 H3047 0.949 . S
H3024 C3028 0.949 . S
C3025 C3026 1.349 . S
C3025 C3027 1.327 . S
C3025 H3048 0.950 . S
C3026 C3025 1.349 . S
C3026 C3038 1.349 . S
C3027 C3025 1.327 . S
C3027 C3043 1.429 . S
C3027 H3049 0.950 . S
C3028 H3024 0.949 . S
C3028 C3036 1.574 . S
C3028 C3044 1.368 . S
H3029 C3037 0.950 . S
H3030 C3035 0.950 . S
H3031 C3036 0.949 . S
H3032 C3038 0.950 . S
H3033 C3039 0.950 . S
H3034 C3040 0.949 . S
C3035 H3030 0.950 . S
C3035 C3037 1.327 . S
C3035 C3041 1.429 . S
C3036 C3028 1.574 . S
C3036 H3031 0.949 . S
C3036 C3042 1.368 . S
C3037 C3021 1.349 . S
C3037 H3029 0.950 . S
C3037 C3035 1.327 . S
C3038 C3026 1.349 . S
C3038 H3032 0.950 . S
C3038 C3039 1.327 . S
C3039 H3033 0.950 . S
C3039 C3038 1.327 . S
C3039 C3043 1.429 . S
C3040 C3023 1.574 . S
C3040 H3034 0.949 . S
C3040 C3044 1.368 . S
C3041 C3022 1.429 . S
C3041 C3035 1.429 . S
C3041 C3042 1.523 . S
C3042 C3023 1.368 . S
C3042 C3036 1.368 . S
C3042 C3041 1.523 . S
C3043 C3027 1.429 . S
C3043 C3039 1.429 . S
C3043 C3044 1.523 . S
C3044 C3028 1.368 . S
C3044 C3040 1.368 . S
C3044 C3043 1.523 . S
H3045 C3020 0.950 . S
H3046 C3022 0.950 . S
H3047 C3023 0.949 . S
H3048 C3025 0.950 . S
H3049 C3027 0.950 . S
C3050 C3051 1.349 . S
C3050 C3052 1.327 . S
C3050 H3075 0.950 . S
C3051 C3050 1.349 . S
C3051 C3067 1.349 . S
C3052 C3050 1.327 . S
C3052 C3071 1.429 . S
C3052 H3076 0.950 . S
C3053 C3070 1.574 . S
C3053 C3072 1.368 . S
C3053 H3077 0.949 . S
H3054 C3058 0.949 . S
C3055 C3056 1.349 . S
C3055 C3057 1.327 . S
C3055 H3078 0.950 . S
C3056 C3055 1.349 . S
C3056 C3068 1.349 . S
C3057 C3055 1.327 . S
C3057 C3073 1.429 . S
C3057 H3079 0.950 . S
C3058 H3054 0.949 . S
C3058 C3066 1.574 . S
C3058 C3074 1.368 . S
H3059 C3067 0.950 . S
H3060 C3065 0.950 . S
H3061 C3066 0.949 1_655 S
H3062 C3068 0.950 . S
H3063 C3069 0.950 . S
H3064 C3070 0.949 . S
C3065 H3060 0.950 . S
C3065 C3067 1.327 . S
C3065 C3071 1.429 . S
C3066 C3058 1.574 . S
C3066 H3061 0.949 1_455 S
C3066 C3072 1.368 . S
C3067 C3051 1.349 . S
C3067 H3059 0.950 . S
C3067 C3065 1.327 . S
C3068 C3056 1.349 . S
C3068 H3062 0.950 . S
C3068 C3069 1.327 . S
C3069 H3063 0.950 . S
C3069 C3068 1.327 . S
C3069 C3073 1.429 . S
C3070 C3053 1.574 . S
C3070 H3064 0.949 . S
C3070 C3074 1.368 . S
C3071 C3052 1.429 . S
C3071 C3065 1.429 . S
C3071 C3072 1.523 1_655 S
C3072 C3053 1.368 . S
C3072 C3066 1.368 . S
C3072 C3071 1.523 1_455 S
C3073 C3057 1.429 . S
C3073 C3069 1.429 . S
C3073 C3074 1.523 . S
C3074 C3058 1.368 . S
C3074 C3070 1.368 . S
C3074 C3073 1.523 . S
H3075 C3050 0.950 . S
H3076 C3052 0.950 . S
H3077 C3053 0.949 . S
H3078 C3055 0.950 . S
H3079 C3057 0.950 . S
C3080 C3081 1.349 . S
C3080 C3082 1.327 . S
C3080 H3105 0.950 . S
C3081 C3080 1.349 . S
C3081 C3097 1.349 . S
C3082 C3080 1.327 . S
C3082 C3101 1.429 . S
C3082 H3106 0.950 . S
C3083 C3100 1.574 . S
C3083 C3102 1.368 . S
C3083 H3107 0.949 . S
H3084 C3088 0.949 . S
C3085 C3086 1.349 . S
C3085 C3087 1.327 . S
C3085 H3108 0.950 . S
C3086 C3085 1.349 . S
C3086 C3098 1.349 . S
C3087 C3085 1.327 . S
C3087 C3103 1.429 . S
C3087 H3109 0.950 . S
C3088 H3084 0.949 . S
C3088 C3096 1.574 . S
C3088 C3104 1.368 . S
H3089 C3097 0.950 . S
H3090 C3095 0.950 . S
H3091 C3096 0.949 . S
H3092 C3098 0.950 . S
H3093 C3099 0.950 . S
H3094 C3100 0.949 . S
C3095 H3090 0.950 . S
C3095 C3097 1.327 . S
C3095 C3101 1.429 . S
C3096 C3088 1.574 . S
C3096 H3091 0.949 . S
C3096 C3102 1.368 . S
C3097 C3081 1.349 . S
C3097 H3089 0.950 . S
C3097 C3095 1.327 . S
C3098 C3086 1.349 . S
C3098 H3092 0.950 . S
C3098 C3099 1.327 . S
C3099 H3093 0.950 . S
C3099 C3098 1.327 . S
C3099 C3103 1.429 . S
C3100 C3083 1.574 . S
C3100 H3094 0.949 . S
C3100 C3104 1.368 . S
C3101 C3082 1.429 . S
C3101 C3095 1.429 . S
C3101 C3102 1.523 . S
C3102 C3083 1.368 . S
C3102 C3096 1.368 . S
C3102 C3101 1.523 . S
C3103 C3087 1.429 . S
C3103 C3099 1.429 . S
C3103 C3104 1.523 . S
C3104 C3088 1.368 . S
C3104 C3100 1.368 . S
C3104 C3103 1.523 . S
H3105 C3080 0.950 . S
H3106 C3082 0.950 . S
H3107 C3083 0.949 . S
H3108 C3085 0.950 . S
H3109 C3087 0.950 . S
C3110 C3111 1.349 . S
C3110 C3112 1.327 . S
C3110 H3135 0.950 . S
C3111 C3110 1.349 . S
C3111 C3127 1.349 . S
C3112 C3110 1.327 . S
C3112 C3131 1.429 . S
C3112 H3136 0.950 . S
C3113 C3130 1.574 . S
C3113 C3132 1.368 . S
C3113 H3137 0.949 . S
H3114 C3118 0.949 1_655 S
C3115 C3116 1.349 . S
C3115 C3117 1.327 . S
C3115 H3138 0.950 . S
C3116 C3115 1.349 . S
C3116 C3128 1.349 . S
C3117 C3115 1.327 . S
C3117 C3133 1.429 . S
C3117 H3139 0.950 . S
C3118 H3114 0.949 1_455 S
C3118 C3126 1.574 . S
C3118 C3134 1.368 . S
H3119 C3127 0.950 . S
H3120 C3125 0.950 . S
H3121 C3126 0.949 . S
H3122 C3128 0.950 . S
H3123 C3129 0.950 . S
H3124 C3130 0.949 . S
C3125 H3120 0.950 . S
C3125 C3127 1.327 . S
C3125 C3131 1.429 . S
C3126 C3118 1.574 . S
C3126 H3121 0.949 . S
C3126 C3132 1.368 . S
C3127 C3111 1.349 . S
C3127 H3119 0.950 . S
C3127 C3125 1.327 . S
C3128 C3116 1.349 . S
C3128 H3122 0.950 . S
C3128 C3129 1.327 . S
C3129 H3123 0.950 . S
C3129 C3128 1.327 . S
C3129 C3133 1.429 . S
C3130 C3113 1.574 . S
C3130 H3124 0.949 . S
C3130 C3134 1.368 . S
C3131 C3112 1.429 . S
C3131 C3125 1.429 . S
C3131 C3132 1.523 . S
C3132 C3113 1.368 . S
C3132 C3126 1.368 . S
C3132 C3131 1.523 . S
C3133 C3117 1.429 . S
C3133 C3129 1.429 . S
C3133 C3134 1.523 1_655 S
C3134 C3118 1.368 . S
C3134 C3130 1.368 . S
C3134 C3133 1.523 1_455 S
H3135 C3110 0.950 . S
H3136 C3112 0.950 . S
H3137 C3113 0.949 . S
H3138 C3115 0.950 . S
H3139 C3117 0.950 . S
C3140 C3141 1.349 . S
C3140 C3142 1.327 . S
C3140 H3165 0.950 . S
C3141 C3140 1.349 . S
C3141 C3157 1.349 . S
C3142 C3140 1.327 . S
C3142 C3161 1.429 . S
C3142 H3166 0.950 . S
C3143 C3160 1.574 . S
C3143 C3162 1.368 . S
C3143 H3167 0.949 . S
H3144 C3148 0.949 . S
C3145 C3146 1.349 . S
C3145 C3147 1.327 . S
C3145 H3168 0.950 . S
C3146 C3145 1.349 . S
C3146 C3158 1.349 . S
C3147 C3145 1.327 . S
C3147 C3163 1.429 . S
C3147 H3169 0.950 . S
C3148 H3144 0.949 . S
C3148 C3156 1.574 . S
C3148 C3164 1.368 . S
H3149 C3157 0.950 . S
H3150 C3155 0.950 . S
H3151 C3156 0.949 . S
H3152 C3158 0.950 . S
H3153 C3159 0.950 . S
H3154 C3160 0.949 . S
C3155 H3150 0.950 . S
C3155 C3157 1.327 . S
C3155 C3161 1.429 . S
C3156 C3148 1.574 . S
C3156 H3151 0.949 . S
C3156 C3162 1.368 . S
C3157 C3141 1.349 . S
C3157 H3149 0.950 . S
C3157 C3155 1.327 . S
C3158 C3146 1.349 . S
C3158 H3152 0.950 . S
C3158 C3159 1.327 . S
C3159 H3153 0.950 . S
C3159 C3158 1.327 . S
C3159 C3163 1.429 . S
C3160 C3143 1.574 . S
C3160 H3154 0.949 . S
C3160 C3164 1.368 . S
C3161 C3142 1.429 . S
C3161 C3155 1.429 . S
C3161 C3162 1.523 . S
C3162 C3143 1.368 . S
C3162 C3156 1.368 . S
C3162 C3161 1.523 . S
C3163 C3147 1.429 . S
C3163 C3159 1.429 . S
C3163 C3164 1.523 . S
C3164 C3148 1.368 . S
C3164 C3160 1.368 . S
C3164 C3163 1.523 . S
H3165 C3140 0.950 . S
H3166 C3142 0.950 . S
H3167 C3143 0.949 . S
H3168 C3145 0.950 . S
H3169 C3147 0.950 . S
C3170 C3171 1.349 . S
C3170 C3172 1.327 . S
C3170 H3195 0.950 . S
C3171 C3170 1.349 . S
C3171 C3187 1.349 . S
C3172 C3170 1.327 . S
C3172 C3191 1.429 . S
C3172 H3196 0.950 . S
C3173 C3190 1.574 . S
C3173 C3192 1.368 . S
C3173 H3197 0.949 . S
H3174 C3178 0.949 . S
C3175 C3176 1.349 . S
C3175 C3177 1.327 . S
C3175 H3198 0.950 . S
C3176 C3175 1.349 . S
C3176 C3188 1.349 . S
C3177 C3175 1.327 . S
C3177 C3193 1.429 . S
C3177 H3199 0.950 . S
C3178 H3174 0.949 . S
C3178 C3186 1.574 . S
C3178 C3194 1.368 . S
H3179 C3187 0.950 . S
H3180 C3185 0.950 . S
H3181 C3186 0.949 . S
H3182 C3188 0.950 . S
H3183 C3189 0.950 . S
H3184 C3190 0.949 . S
C3185 H3180 0.950 . S
C3185 C3187 1.327 . S
C3185 C3191 1.429 . S
C3186 C3178 1.574 . S
C3186 H3181 0.949 . S
C3186 C3192 1.368 . S
C3187 C3171 1.349 . S
C3187 H3179 0.950 . S
C3187 C3185 1.327 . S
C3188 C3176 1.349 . S
C3188 H3182 0.950 . S
C3188 C3189 1.327 . S
C3189 H3183 0.950 . S
C3189 C3188 1.327 . S
C3189 C3193 1.429 . S
C3190 C3173 1.574 . S
C3190 H3184 0.949 . S
C3190 C3194 1.368 . S
C3191 C3172 1.429 . S
C3191 C3185 1.429 . S
C3191 C3192 1.523 . S
C3192 C3173 1.368 . S
C3192 C3186 1.368 . S
C3192 C3191 1.523 . S
C3193 C3177 1.429 . S
C3193 C3189 1.429 . S
C3193 C3194 1.523 . S
C3194 C3178 1.368 . S
C3194 C3190 1.368 . S
C3194 C3193 1.523 . S
H3195 C3170 0.950 . S
H3196 C3172 0.950 . S
H3197 C3173 0.949 . S
H3198 C3175 0.950 . S
H3199 C3177 0.950 . S
C3200 C3201 1.349 . S
C3200 C3202 1.327 . S
C3200 H3225 0.950 . S
C3201 C3200 1.349 . S
C3201 C3217 1.349 . S
C3202 C3200 1.327 . S
C3202 C3221 1.429 . S
C3202 H3226 0.950 . S
C3203 C3220 1.574 . S
C3203 C3222 1.368 1_565 S
C3203 H3227 0.949 . S
H3204 C3208 0.949 . S
C3205 C3206 1.349 . S
C3205 C3207 1.327 . S
C3205 H3228 0.950 . S
C3206 C3205 1.349 . S
C3206 C3218 1.349 . S
C3207 C3205 1.327 . S
C3207 C3223 1.429 . S
C3207 H3229 0.950 . S
C3208 H3204 0.949 . S
C3208 C3216 1.574 . S
C3208 C3224 1.368 1_545 S
H3209 C3217 0.950 . S
H3210 C3215 0.950 . S
H3211 C3216 0.949 . S
H3212 C3218 0.950 . S
H3213 C3219 0.950 . S
H3214 C3220 0.949 . S
C3215 H3210 0.950 . S
C3215 C3217 1.327 . S
C3215 C3221 1.429 . S
C3216 C3208 1.574 . S
C3216 H3211 0.949 . S
C3216 C3222 1.368 . S
C3217 C3201 1.349 . S
C3217 H3209 0.950 . S
C3217 C3215 1.327 . S
C3218 C3206 1.349 . S
C3218 H3212 0.950 . S
C3218 C3219 1.327 . S
C3219 H3213 0.950 . S
C3219 C3218 1.327 . S
C3219 C3223 1.429 . S
C3220 C3203 1.574 . S
C3220 H3214 0.949 . S
C3220 C3224 1.368 . S
C3221 C3202 1.429 . S
C3221 C3215 1.429 . S
C3221 C3222 1.523 . S
C3222 C3203 1.368 1_545 S
C3222 C3216 1.368 . S
C3222 C3221 1.523 . S
C3223 C3207 1.429 . S
C3223 C3219 1.429 . S
C3223 C3224 1.523 . S
C3224 C3208 1.368 1_565 S
C3224 C3220 1.368 . S
C3224 C3223 1.523 . S
H3225 C3200 0.950 . S
H3226 C3202 0.950 . S
H3227 C3203 0.949 . S
H3228 C3205 0.950 . S
H3229 C3207 0.950 . S
C3230 C3231 1.349 . S
C3230 C3232 1.327 . S
C3230 H3255 0.950 . S
C3231 C3230 1.349 . S
C3231 C3247 1.349 . S
C3232 C3230 1.327 . S
C3232 C3251 1.429 . S
C3232 H3256 0.950 . S
C3233 C3250 1.574 . S
C3233 C3252 1.368 . S
C3233 H3257 0.949 . S
H3234 C3238 0.949 . S
C3235 C3236 1.349 . S
C3235 C3237 1.327 . S
C3235 H3258 0.950 . S
C3236 C3235 1.349 . S
C3236 C3248 1.349 . S
C3237 C3235 1.327 . S
C3237 C3253 1.429 . S
C3237 H3259 0.950 . S
C3238 H3234 0.949 . S
C3238 C3246 1.574 . S
C3238 C3254 1.368 . S
H3239 C3247 0.950 . S
H3240 C3245 0.950 . S
H3241 C3246 0.949 . S
H3242 C3248 0.950 . S
H3243 C3249 0.950 . S
H3244 C3250 0.949 . S
C3245 H3240 0.950 . S
C3245 C3247 1.327 . S
C3245 C3251 1.429 . S
C3246 C3238 1.574 . S
C3246 H3241 0.949 . S
C3246 C3252 1.368 . S
C3247 C3231 1.349 . S
C3247 H3239 0.950 . S
C3247 C3245 1.327 . S
C3248 C3236 1.349 . S
C3248 H3242 0.950 . S
C3248 C3249 1.327 . S
C3249 H3243 0.950 . S
C3249 C3248 1.327 . S
C3249 C3253 1.429 . S
C3250 C3233 1.574 . S
C3250 H3244 0.949 . S
C3250 C3254 1.368 . S
C3251 C3232 1.429 . S
C3251 C3245 1.429 . S
C3251 C3252 1.523 . S
C3252 C3233 1.368 . S
C3252 C3246 1.368 . S
C3252 C3251 1.523 . S
C3253 C3237 1.429 . S
C3253 C3249 1.429 . S
C3253 C3254 1.523 . S
C3254 C3238 1.368 . S
C3254 C3250 1.368 . S
C3254 C3253 1.523 . S
H3255 C3230 0.950 . S
H3256 C3232 0.950 . S
H3257 C3233 0.949 . S
H3258 C3235 0.950 . S
H3259 C3237 0.950 . S
C3260 C3261 1.349 . S
C3260 C3262 1.327 . S
C3260 H3285 0.950 . S
C3261 C3260 1.349 . S
C3261 C3277 1.349 . S
C3262 C3260 1.327 . S
C3262 C3281 1.429 . S
C3262 H3286 0.950 . S
C3263 C3280 1.574 . S
C3263 C3282 1.368 . S
C3263 H3287 0.949 . S
H3264 C3268 0.949 . S
C3265 C3266 1.349 . S
C3265 C3267 1.327 . S
C3265 H3288 0.950 . S
C3266 C3265 1.349 . S
C3266 C3278 1.349 . S
C3267 C3265 1.327 . S
C3267 C3283 1.429 . S
C3267 H3289 0.950 . S
C3268 H3264 0.949 . S
C3268 C3276 1.574 . S
C3268 C3284 1.368 . S
H3269 C3277 0.950 . S
H3270 C3275 0.950 . S
H3271 C3276 0.949 . S
H3272 C3278 0.950 . S
H3273 C3279 0.950 . S
H3274 C3280 0.949 . S
C3275 H3270 0.950 . S
C3275 C3277 1.327 . S
C3275 C3281 1.429 . S
C3276 C3268 1.574 . S
C3276 H3271 0.949 . S
C3276 C3282 1.368 1_545 S
C3277 C3261 1.349 . S
C3277 H3269 0.950 . S
C3277 C3275 1.327 . S
C3278 C3266 1.349 . S
C3278 H3272 0.950 . S
C3278 C3279 1.327 . S
C3279 H3273 0.950 . S
C3279 C3278 1.327 . S
C3279 C3283 1.429 . S
C3280 C3263 1.574 . S
C3280 H3274 0.949 . S
C3280 C3284 1.368 1_565 S
C3281 C3262 1.429 . S
C3281 C3275 1.429 . S
C3281 C3282 1.523 . S
C3282 C3263 1.368 . S
C3282 C3276 1.368 1_565 S
C3282 C3281 1.523 . S
C3283 C3267 1.429 . S
C3283 C3279 1.429 . S
C3283 C3284 1.523 . S
C3284 C3268 1.368 . S
C3284 C3280 1.368 1_545 S
C3284 C3283 1.523 . S
H3285 C3260 0.950 . S
H3286 C3262 0.950 . S
H3287 C3263 0.949 . S
H3288 C3265 0.950 . S
H3289 C3267 0.950 . S
C3290 C3291 1.349 . S
C3290 C3292 1.327 . S
C3290 H3315 0.950 . S
C3291 C3290 1.349 . S
C3291 C3307 1.349 . S
C3292 C3290 1.327 . S
C3292 C3311 1.429 . S
C3292 H3316 0.950 . S
C3293 C3310 1.596 . S
C3293 C3312 1.368 . S
C3293 H3317 0.949 . S
H3294 C3298 0.949 . S
C3295 C3296 1.349 . S
C3295 C3297 1.327 . S
C3295 H3318 0.950 . S
C3296 C3295 1.349 . S
C3296 C3308 1.349 . S
C3297 C3295 1.327 . S
C3297 C3313 1.429 . S
C3297 H3319 0.950 . S
C3298 H3294 0.949 . S
C3298 C3306 1.596 . S
C3298 C3314 1.368 . S
H3299 C3307 0.950 . S
H3300 C3305 0.950 . S
H3301 C3306 0.949 . S
H3302 C3308 0.950 . S
H3303 C3309 0.950 . S
H3304 C3310 0.949 . S
C3305 H3300 0.950 . S
C3305 C3307 1.327 . S
C3305 C3311 1.429 . S
C3306 C3298 1.596 . S
C3306 H3301 0.949 . S
C3306 C3312 1.347 1_554 S
C3307 C3291 1.349 . S
C3307 H3299 0.950 . S
C3307 C3305 1.327 . S
C3308 C3296 1.349 . S
C3308 H3302 0.950 . S
C3308 C3309 1.327 . S
C3309 H3303 0.950 . S
C3309 C3308 1.327 . S
C3309 C3313 1.429 . S
C3310 C3293 1.596 . S
C3310 H3304 0.949 . S
C3310 C3314 1.346 1_556 S
C3311 C3292 1.429 . S
C3311 C3305 1.429 . S
C3311 C3312 1.523 . S
C3312 C3293 1.368 . S
C3312 C3306 1.347 1_556 S
C3312 C3311 1.523 . S
C3313 C3297 1.429 . S
C3313 C3309 1.429 . S
C3313 C3314 1.523 . S
C3314 C3298 1.368 . S
C3314 C3310 1.346 1_554 S
C3314 C3313 1.523 . S
H3315 C3290 0.950 . S
H3316 C3292 0.950 . S
H3317 C3293 0.949 . S
H3318 C3295 0.950 . S
H3319 C3297 0.950 . S
C3320 C3321 1.349 . S
C3320 C3322 1.327 . S
C3320 H3345 0.950 . S
C3321 C3320 1.349 . S
C3321 C3337 1.349 . S
C3322 C3320 1.327 . S
C3322 C3341 1.429 . S
C3322 H3346 0.950 . S
C3323 C3340 1.574 . S
C3323 C3342 1.368 1_565 S
C3323 H3347 0.949 . S
H3324 C3328 0.949 . S
C3325 C3326 1.349 . S
C3325 C3327 1.327 . S
C3325 H3348 0.950 . S
C3326 C3325 1.349 . S
C3326 C3338 1.349 . S
C3327 C3325 1.327 . S
C3327 C3343 1.429 . S
C3327 H3349 0.950 . S
C3328 H3324 0.949 . S
C3328 C3336 1.574 . S
C3328 C3344 1.368 1_545 S
H3329 C3337 0.950 . S
H3330 C3335 0.950 . S
H3331 C3336 0.949 . S
H3332 C3338 0.950 . S
H3333 C3339 0.950 . S
H3334 C3340 0.949 . S
C3335 H3330 0.950 . S
C3335 C3337 1.327 . S
C3335 C3341 1.429 . S
C3336 C3328 1.574 . S
C3336 H3331 0.949 . S
C3336 C3342 1.368 . S
C3337 C3321 1.349 . S
C3337 H3329 0.950 . S
C3337 C3335 1.327 . S
C3338 C3326 1.349 . S
C3338 H3332 0.950 . S
C3338 C3339 1.327 . S
C3339 H3333 0.950 . S
C3339 C3338 1.327 . S
C3339 C3343 1.429 . S
C3340 C3323 1.574 . S
C3340 H3334 0.949 . S
C3340 C3344 1.368 . S
C3341 C3322 1.429 . S
C3341 C3335 1.429 . S
C3341 C3342 1.523 . S
C3342 C3323 1.368 1_545 S
C3342 C3336 1.368 . S
C3342 C3341 1.523 . S
C3343 C3327 1.429 . S
C3343 C3339 1.429 . S
C3343 C3344 1.523 . S
C3344 C3328 1.368 1_565 S
C3344 C3340 1.368 . S
C3344 C3343 1.523 . S
H3345 C3320 0.950 . S
H3346 C3322 0.950 . S
H3347 C3323 0.949 . S
H3348 C3325 0.950 . S
H3349 C3327 0.950 . S
C3350 C3351 1.349 . S
C3350 C3352 1.327 . S
C3350 H3375 0.950 . S
C3351 C3350 1.349 . S
C3351 C3367 1.349 . S
C3352 C3350 1.327 . S
C3352 C3371 1.429 . S
C3352 H3376 0.950 . S
C3353 C3370 1.574 . S
C3353 C3372 1.368 . S
C3353 H3377 0.949 . S
H3354 C3358 0.949 . S
C3355 C3356 1.349 . S
C3355 C3357 1.327 . S
C3355 H3378 0.950 . S
C3356 C3355 1.349 . S
C3356 C3368 1.349 . S
C3357 C3355 1.327 . S
C3357 C3373 1.429 . S
C3357 H3379 0.950 . S
C3358 H3354 0.949 . S
C3358 C3366 1.574 . S
C3358 C3374 1.368 . S
H3359 C3367 0.950 . S
H3360 C3365 0.950 . S
H3361 C3366 0.949 . S
H3362 C3368 0.950 . S
H3363 C3369 0.950 . S
H3364 C3370 0.949 . S
C3365 H3360 0.950 . S
C3365 C3367 1.327 . S
C3365 C3371 1.429 . S
C3366 C3358 1.574 . S
C3366 H3361 0.949 . S
C3366 C3372 1.368 . S
C3367 C3351 1.349 . S
C3367 H3359 0.950 . S
C3367 C3365 1.327 . S
C3368 C3356 1.349 . S
C3368 H3362 0.950 . S
C3368 C3369 1.327 . S
C3369 H3363 0.950 . S
C3369 C3368 1.327 . S
C3369 C3373 1.429 . S
C3370 C3353 1.574 . S
C3370 H3364 0.949 . S
C3370 C3374 1.368 . S
C3371 C3352 1.429 . S
C3371 C3365 1.429 . S
C3371 C3372 1.523 . S
C3372 C3353 1.368 . S
C3372 C3366 1.368 . S
C3372 C3371 1.523 . S
C3373 C3357 1.429 . S
C3373 C3369 1.429 . S
C3373 C3374 1.523 . S
C3374 C3358 1.368 . S
C3374 C3370 1.368 . S
C3374 C3373 1.523 . S
H3375 C3350 0.950 . S
H3376 C3352 0.950 . S
H3377 C3353 0.949 . S
H3378 C3355 0.950 . S
H3379 C3357 0.950 . S
C3380 C3381 1.349 . S
C3380 C3382 1.327 . S
C3380 H3405 0.950 . S
C3381 C3380 1.349 . S
C3381 C3397 1.349 . S
C3382 C3380 1.327 . S
C3382 C3401 1.429 . S
C3382 H3406 0.950 . S
C3383 C3400 1.574 . S
C3383 C3402 1.368 . S
C3383 H3407 0.949 . S
H3384 C3388 0.949 . S
C3385 C3386 1.349 . S
C3385 C3387 1.327 . S
C3385 H3408 0.950 . S
C3386 C3385 1.349 . S
C3386 C3398 1.349 . S
C3387 C3385 1.327 . S
C3387 C3403 1.429 . S
C3387 H3409 0.950 . S
C3388 H3384 0.949 . S
C3388 C3396 1.574 . S
C3388 C3404 1.368 . S
H3389 C3397 0.950 . S
H3390 C3395 0.950 . S
H3391 C3396 0.949 . S
H3392 C3398 0.950 . S
H3393 C3399 0.950 . S
H3394 C3400 0.949 . S
C3395 H3390 0.950 . S
C3395 C3397 1.327 . S
C3395 C3401 1.429 . S
C3396 C3388 1.574 . S
C3396 H3391 0.949 . S
C3396 C3402 1.368 1_565 S
C3397 C3381 1.349 . S
C3397 H3389 0.950 . S
C3397 C3395 1.327 . S
C3398 C3386 1.349 . S
C3398 H3392 0.950 . S
C3398 C3399 1.327 . S
C3399 H3393 0.950 . S
C3399 C3398 1.327 . S
C3399 C3403 1.429 . S
C3400 C3383 1.574 . S
C3400 H3394 0.949 . S
C3400 C3404 1.368 1_545 S
C3401 C3382 1.429 . S
C3401 C3395 1.429 . S
C3401 C3402 1.523 . S
C3402 C3383 1.368 . S
C3402 C3396 1.368 1_545 S
C3402 C3401 1.523 . S
C3403 C3387 1.429 . S
C3403 C3399 1.429 . S
C3403 C3404 1.523 . S
C3404 C3388 1.368 . S
C3404 C3400 1.368 1_565 S
C3404 C3403 1.523 . S
H3405 C3380 0.950 . S
H3406 C3382 0.950 . S
H3407 C3383 0.949 . S
H3408 C3385 0.950 . S
H3409 C3387 0.950 . S
C3410 C3411 1.349 . S
C3410 C3412 1.327 . S
C3410 H3435 0.950 . S
C3411 C3410 1.349 . S
C3411 C3427 1.349 . S
C3412 C3410 1.327 . S
C3412 C3431 1.429 . S
C3412 H3436 0.950 . S
C3413 C3430 1.598 . S
C3413 C3432 1.368 . S
C3413 H3437 0.949 . S
H3414 C3418 0.949 . S
C3415 C3416 1.349 . S
C3415 C3417 1.327 . S
C3415 H3438 0.950 . S
C3416 C3415 1.349 . S
C3416 C3428 1.349 . S
C3417 C3415 1.327 . S
C3417 C3433 1.429 . S
C3417 H3439 0.950 . S
C3418 H3414 0.949 . S
C3418 C3426 1.598 . S
C3418 C3434 1.368 . S
H3419 C3427 0.950 . S
H3420 C3425 0.950 . S
H3421 C3426 0.949 . S
H3422 C3428 0.950 . S
H3423 C3429 0.950 . S
H3424 C3430 0.949 . S
C3425 H3420 0.950 . S
C3425 C3427 1.327 . S
C3425 C3431 1.429 . S
C3426 C3418 1.598 . S
C3426 H3421 0.949 . S
C3426 C3432 1.344 1_554 S
C3427 C3411 1.349 . S
C3427 H3419 0.950 . S
C3427 C3425 1.327 . S
C3428 C3416 1.349 . S
C3428 H3422 0.950 . S
C3428 C3429 1.327 . S
C3429 H3423 0.950 . S
C3429 C3428 1.327 . S
C3429 C3433 1.429 . S
C3430 C3413 1.598 . S
C3430 H3424 0.949 . S
C3430 C3434 1.344 1_556 S
C3431 C3412 1.429 . S
C3431 C3425 1.429 . S
C3431 C3432 1.523 . S
C3432 C3413 1.368 . S
C3432 C3426 1.344 1_556 S
C3432 C3431 1.523 . S
C3433 C3417 1.429 . S
C3433 C3429 1.429 . S
C3433 C3434 1.523 . S
C3434 C3418 1.368 . S
C3434 C3430 1.344 1_554 S
C3434 C3433 1.523 . S
H3435 C3410 0.950 . S
H3436 C3412 0.950 . S
H3437 C3413 0.949 . S
H3438 C3415 0.950 . S
H3439 C3417 0.950 . S
C3440 C3441 1.349 . S
C3440 C3442 1.327 . S
C3440 H3465 0.950 . S
C3441 C3440 1.349 . S
C3441 C3457 1.349 . S
C3442 C3440 1.327 . S
C3442 C3461 1.429 . S
C3442 H3466 0.950 . S
C3443 C3460 1.574 . S
C3443 C3462 1.368 . S
C3443 H3467 0.949 . S
H3444 C3448 0.949 . S
C3445 C3446 1.349 . S
C3445 C3447 1.327 . S
C3445 H3468 0.950 . S
C3446 C3445 1.349 . S
C3446 C3458 1.349 . S
C3447 C3445 1.327 . S
C3447 C3463 1.429 . S
C3447 H3469 0.950 . S
C3448 H3444 0.949 . S
C3448 C3456 1.574 . S
C3448 C3464 1.368 . S
H3449 C3457 0.950 . S
H3450 C3455 0.950 . S
H3451 C3456 0.949 . S
H3452 C3458 0.950 . S
H3453 C3459 0.950 . S
H3454 C3460 0.949 . S
C3455 H3450 0.950 . S
C3455 C3457 1.327 . S
C3455 C3461 1.429 . S
C3456 C3448 1.574 . S
C3456 H3451 0.949 . S
C3456 C3462 1.368 . S
C3457 C3441 1.349 . S
C3457 H3449 0.950 . S
C3457 C3455 1.327 . S
C3458 C3446 1.349 . S
C3458 H3452 0.950 . S
C3458 C3459 1.327 . S
C3459 H3453 0.950 . S
C3459 C3458 1.327 . S
C3459 C3463 1.429 . S
C3460 C3443 1.574 . S
C3460 H3454 0.949 . S
C3460 C3464 1.368 . S
C3461 C3442 1.429 . S
C3461 C3455 1.429 . S
C3461 C3462 1.523 . S
C3462 C3443 1.368 . S
C3462 C3456 1.368 . S
C3462 C3461 1.523 . S
C3463 C3447 1.429 . S
C3463 C3459 1.429 . S
C3463 C3464 1.523 . S
C3464 C3448 1.368 . S
C3464 C3460 1.368 . S
C3464 C3463 1.523 . S
H3465 C3440 0.950 . S
H3466 C3442 0.950 . S
H3467 C3443 0.949 . S
H3468 C3445 0.950 . S
H3469 C3447 0.950 . S
C3470 C3471 1.349 . S
C3470 C3472 1.327 . S
C3470 H3495 0.950 . S
C3471 C3470 1.349 . S
C3471 C3487 1.349 . S
C3472 C3470 1.327 . S
C3472 C3491 1.429 . S
C3472 H3496 0.950 . S
C3473 C3490 1.596 . S
C3473 C3492 1.346 1_554 S
C3473 H3497 0.949 . S
H3474 C3478 0.949 . S
C3475 C3476 1.349 . S
C3475 C3477 1.327 . S
C3475 H3498 0.950 . S
C3476 C3475 1.349 . S
C3476 C3488 1.349 . S
C3477 C3475 1.327 . S
C3477 C3493 1.429 . S
C3477 H3499 0.950 . S
C3478 H3474 0.949 . S
C3478 C3486 1.596 . S
C3478 C3494 1.346 1_556 S
H3479 C3487 0.950 . S
H3480 C3485 0.950 . S
H3481 C3486 0.949 . S
H3482 C3488 0.950 . S
H3483 C3489 0.950 . S
H3484 C3490 0.949 . S
C3485 H3480 0.950 . S
C3485 C3487 1.327 . S
C3485 C3491 1.429 . S
C3486 C3478 1.596 . S
C3486 H3481 0.949 . S
C3486 C3492 1.368 . S
C3487 C3471 1.349 . S
C3487 H3479 0.950 . S
C3487 C3485 1.327 . S
C3488 C3476 1.349 . S
C3488 H3482 0.950 . S
C3488 C3489 1.327 . S
C3489 H3483 0.950 . S
C3489 C3488 1.327 . S
C3489 C3493 1.429 . S
C3490 C3473 1.596 . S
C3490 H3484 0.949 . S
C3490 C3494 1.368 . S
C3491 C3472 1.429 . S
C3491 C3485 1.429 . S
C3491 C3492 1.523 . S
C3492 C3473 1.346 1_556 S
C3492 C3486 1.368 . S
C3492 C3491 1.523 . S
C3493 C3477 1.429 . S
C3493 C3489 1.429 . S
C3493 C3494 1.523 . S
C3494 C3478 1.346 1_554 S
C3494 C3490 1.368 . S
C3494 C3493 1.523 . S
H3495 C3470 0.950 . S
H3496 C3472 0.950 . S
H3497 C3473 0.949 . S
H3498 C3475 0.950 . S
H3499 C3477 0.950 . S
C3500 C3501 1.349 . S
C3500 C3502 1.327 . S
C3500 H3525 0.950 . S
C3501 C3500 1.349 . S
C3501 C3517 1.349 . S
C3502 C3500 1.327 . S
C3502 C3521 1.429 . S
C3502 H3526 0.950 . S
C3503 C3520 1.574 . S
C3503 C3522 1.368 . S
C3503 H3527 0.949 . S
H3504 C3508 0.949 . S
C3505 C3506 1.349 . S
C3505 C3507 1.327 . S
C3505 H3528 0.950 . S
C3506 C3505 1.349 . S
C3506 C3518 1.349 . S
C3507 C3505 1.327 . S
C3507 C3523 1.429 . S
C3507 H3529 0.950 . S
C3508 H3504 0.949 . S
C3508 C3516 1.574 . S
C3508 C3524 1.368 . S
H3509 C3517 0.950 . S
H3510 C3515 0.950 . S
H3511 C3516 0.949 . S
H3512 C3518 0.950 . S
H3513 C3519 0.950 . S
H3514 C3520 0.949 . S
C3515 H3510 0.950 . S
C3515 C3517 1.327 . S
C3515 C3521 1.429 . S
C3516 C3508 1.574 . S
C3516 H3511 0.949 . S
C3516 C3522 1.368 . S
C3517 C3501 1.349 . S
C3517 H3509 0.950 . S
C3517 C3515 1.327 . S
C3518 C3506 1.349 . S
C3518 H3512 0.950 . S
C3518 C3519 1.327 . S
C3519 H3513 0.950 . S
C3519 C3518 1.327 . S
C3519 C3523 1.429 . S
C3520 C3503 1.574 . S
C3520 H3514 0.949 . S
C3520 C3524 1.368 . S
C3521 C3502 1.429 . S
C3521 C3515 1.429 . S
C3521 C3522 1.523 . S
C3522 C3503 1.368 . S
C3522 C3516 1.368 . S
C3522 C3521 1.523 . S
C3523 C3507 1.429 . S
C3523 C3519 1.429 . S
C3523 C3524 1.523 . S
C3524 C3508 1.368 . S
C3524 C3520 1.368 . S
C3524 C3523 1.523 . S
H3525 C3500 0.950 . S
H3526 C3502 0.950 . S
H3527 C3503 0.949 . S
H3528 C3505 0.950 . S
H3529 C3507 0.950 . S
C3530 C3531 1.349 . S
C3530 C3532 1.327 . S
C3530 H3555 0.950 . S
C3531 C3530 1.349 . S
C3531 C3547 1.349 . S
C3532 C3530 1.327 . S
C3532 C3551 1.429 . S
C3532 H3556 0.950 . S
C3533 C3550 1.574 . S
C3533 C3552 1.368 . S
C3533 H3557 0.949 . S
H3534 C3538 0.949 . S
C3535 C3536 1.349 . S
C3535 C3537 1.327 . S
C3535 H3558 0.950 . S
C3536 C3535 1.349 . S
C3536 C3548 1.349 . S
C3537 C3535 1.327 . S
C3537 C3553 1.429 . S
C3537 H3559 0.950 . S
C3538 H3534 0.949 . S
C3538 C3546 1.574 . S
C3538 C3554 1.368 . S
H3539 C3547 0.950 . S
H3540 C3545 0.950 . S
H3541 C3546 0.949 . S
H3542 C3548 0.950 . S
H3543 C3549 0.950 . S
H3544 C3550 0.949 . S
C3545 H3540 0.950 . S
C3545 C3547 1.327 . S
C3545 C3551 1.429 . S
C3546 C3538 1.574 . S
C3546 H3541 0.949 . S
C3546 C3552 1.368 . S
C3547 C3531 1.349 . S
C3547 H3539 0.950 . S
C3547 C3545 1.327 . S
C3548 C3536 1.349 . S
C3548 H3542 0.950 . S
C3548 C3549 1.327 . S
C3549 H3543 0.950 . S
C3549 C3548 1.327 . S
C3549 C3553 1.429 . S
C3550 C3533 1.574 . S
C3550 H3544 0.949 . S
C3550 C3554 1.368 . S
C3551 C3532 1.429 . S
C3551 C3545 1.429 . S
C3551 C3552 1.523 . S
C3552 C3533 1.368 . S
C3552 C3546 1.368 . S
C3552 C3551 1.523 . S
C3553 C3537 1.429 . S
C3553 C3549 1.429 . S
C3553 C3554 1.523 . S
C3554 C3538 1.368 . S
C3554 C3550 1.368 . S
C3554 C3553 1.523 . S
H3555 C3530 0.950 . S
H3556 C3532 0.950 . S
H3557 C3533 0.949 . S
H3558 C3535 0.950 . S
H3559 C3537 0.950 . S
C3560 C3561 1.349 . S
C3560 C3562 1.327 . S
C3560 H3585 0.950 . S
C3561 C3560 1.349 . S
C3561 C3577 1.349 . S
C3562 C3560 1.327 . S
C3562 C3581 1.429 . S
C3562 H3586 0.950 . S
C3563 C3580 1.574 . S
C3563 C3582 1.368 . S
C3563 H3587 0.949 . S
H3564 C3568 0.949 . S
C3565 C3566 1.349 . S
C3565 C3567 1.327 . S
C3565 H3588 0.950 . S
C3566 C3565 1.349 . S
C3566 C3578 1.349 . S
C3567 C3565 1.327 . S
C3567 C3583 1.429 . S
C3567 H3589 0.950 . S
C3568 H3564 0.949 . S
C3568 C3576 1.574 . S
C3568 C3584 1.368 . S
H3569 C3577 0.950 . S
H3570 C3575 0.950 . S
H3571 C3576 0.949 . S
H3572 C3578 0.950 . S
H3573 C3579 0.950 . S
H3574 C3580 0.949 . S
C3575 H3570 0.950 . S
C3575 C3577 1.327 . S
C3575 C3581 1.429 . S
C3576 C3568 1.574 . S
C3576 H3571 0.949 . S
C3576 C3582 1.368 . S
C3577 C3561 1.349 . S
C3577 H3569 0.950 . S
C3577 C3575 1.327 . S
C3578 C3566 1.349 . S
C3578 H3572 0.950 . S
C3578 C3579 1.327 . S
C3579 H3573 0.950 . S
C3579 C3578 1.327 . S
C3579 C3583 1.429 . S
C3580 C3563 1.574 . S
C3580 H3574 0.949 . S
C3580 C3584 1.368 . S
C3581 C3562 1.429 . S
C3581 C3575 1.429 . S
C3581 C3582 1.523 . S
C3582 C3563 1.368 . S
C3582 C3576 1.368 . S
C3582 C3581 1.523 . S
C3583 C3567 1.429 . S
C3583 C3579 1.429 . S
C3583 C3584 1.523 . S
C3584 C3568 1.368 . S
C3584 C3580 1.368 . S
C3584 C3583 1.523 . S
H3585 C3560 0.950 . S
H3586 C3562 0.950 . S
H3587 C3563 0.949 . S
H3588 C3565 0.950 . S
H3589 C3567 0.950 . S
C3590 C3591 1.349 . S
C3590 C3592 1.327 . S
C3590 H3615 0.950 . S
C3591 C3590 1.349 . S
C3591 C3607 1.349 . S
C3592 C3590 1.327 . S
C3592 C3611 1.429 . S
C3592 H3616 0.950 . S
C3593 C3610 1.595 . S
C3593 C3612 1.348 1_554 S
C3593 H3617 0.949 . S
H3594 C3598 0.949 . S
C3595 C3596 1.349 . S
C3595 C3597 1.327 . S
C3595 H3618 0.950 . S
C3596 C3595 1.349 . S
C3596 C3608 1.349 . S
C3597 C3595 1.327 . S
C3597 C3613 1.429 . S
C3597 H3619 0.950 . S
C3598 H3594 0.949 . S
C3598 C3606 1.594 . S
C3598 C3614 1.348 1_556 S
H3599 C3607 0.950 . S
H3600 C3605 0.950 . S
H3601 C3606 0.949 . S
H3602 C3608 0.950 . S
H3603 C3609 0.950 . S
H3604 C3610 0.949 . S
C3605 H3600 0.950 . S
C3605 C3607 1.327 . S
C3605 C3611 1.429 . S
C3606 C3598 1.594 . S
C3606 H3601 0.949 . S
C3606 C3612 1.368 . S
C3607 C3591 1.349 . S
C3607 H3599 0.950 . S
C3607 C3605 1.327 . S
C3608 C3596 1.349 . S
C3608 H3602 0.950 . S
C3608 C3609 1.327 . S
C3609 H3603 0.950 . S
C3609 C3608 1.327 . S
C3609 C3613 1.429 . S
C3610 C3593 1.595 . S
C3610 H3604 0.949 . S
C3610 C3614 1.368 . S
C3611 C3592 1.429 . S
C3611 C3605 1.429 . S
C3611 C3612 1.523 . S
C3612 C3593 1.348 1_556 S
C3612 C3606 1.368 . S
C3612 C3611 1.523 . S
C3613 C3597 1.429 . S
C3613 C3609 1.429 . S
C3613 C3614 1.523 . S
C3614 C3598 1.348 1_554 S
C3614 C3610 1.368 . S
C3614 C3613 1.523 . S
H3615 C3590 0.950 . S
H3616 C3592 0.950 . S
H3617 C3593 0.949 . S
H3618 C3595 0.950 . S
H3619 C3597 0.950 . S
C3620 C3621 1.349 . S
C3620 C3622 1.327 . S
C3620 H3645 0.950 . S
C3621 C3620 1.349 . S
C3621 C3637 1.349 . S
C3622 C3620 1.327 . S
C3622 C3641 1.429 . S
C3622 H3646 0.950 . S
C3623 C3640 1.574 . S
C3623 C3642 1.368 . S
C3623 H3647 0.949 . S
H3624 C3628 0.949 . S
C3625 C3626 1.349 . S
C3625 C3627 1.327 . S
C3625 H3648 0.950 . S
C3626 C3625 1.349 . S
C3626 C3638 1.349 . S
C3627 C3625 1.327 . S
C3627 C3643 1.429 . S
C3627 H3649 0.950 . S
C3628 H3624 0.949 . S
C3628 C3636 1.574 . S
C3628 C3644 1.368 . S
H3629 C3637 0.950 . S
H3630 C3635 0.950 . S
H3631 C3636 0.949 . S
H3632 C3638 0.950 . S
H3633 C3639 0.950 . S
H3634 C3640 0.949 . S
C3635 H3630 0.950 . S
C3635 C3637 1.327 . S
C3635 C3641 1.429 . S
C3636 C3628 1.574 . S
C3636 H3631 0.949 . S
C3636 C3642 1.368 . S
C3637 C3621 1.349 . S
C3637 H3629 0.950 . S
C3637 C3635 1.327 . S
C3638 C3626 1.349 . S
C3638 H3632 0.950 . S
C3638 C3639 1.327 . S
C3639 H3633 0.950 . S
C3639 C3638 1.327 . S
C3639 C3643 1.429 . S
C3640 C3623 1.574 . S
C3640 H3634 0.949 . S
C3640 C3644 1.368 . S
C3641 C3622 1.429 . S
C3641 C3635 1.429 . S
C3641 C3642 1.523 . S
C3642 C3623 1.368 . S
C3642 C3636 1.368 . S
C3642 C3641 1.523 . S
C3643 C3627 1.429 . S
C3643 C3639 1.429 . S
C3643 C3644 1.523 . S
C3644 C3628 1.368 . S
C3644 C3640 1.368 . S
C3644 C3643 1.523 . S
H3645 C3620 0.950 . S
H3646 C3622 0.950 . S
H3647 C3623 0.949 . S
H3648 C3625 0.950 . S
H3649 C3627 0.950 . S
C3650 C3651 1.349 . S
C3650 C3652 1.327 . S
C3650 H3675 0.950 . S
C3651 C3650 1.349 . S
C3651 C3667 1.349 . S
C3652 C3650 1.327 . S
C3652 C3671 1.429 . S
C3652 H3676 0.950 . S
C3653 C3670 1.574 . S
C3653 C3672 1.368 . S
C3653 H3677 0.949 . S
H3654 C3658 0.949 . S
C3655 C3656 1.349 . S
C3655 C3657 1.327 . S
C3655 H3678 0.950 . S
C3656 C3655 1.349 . S
C3656 C3668 1.349 . S
C3657 C3655 1.327 . S
C3657 C3673 1.429 . S
C3657 H3679 0.950 . S
C3658 H3654 0.949 . S
C3658 C3666 1.574 . S
C3658 C3674 1.368 . S
H3659 C3667 0.950 . S
H3660 C3665 0.950 . S
H3661 C3666 0.949 . S
H3662 C3668 0.950 . S
H3663 C3669 0.950 . S
H3664 C3670 0.949 . S
C3665 H3660 0.950 . S
C3665 C3667 1.327 . S
C3665 C3671 1.429 . S
C3666 C3658 1.574 . S
C3666 H3661 0.949 . S
C3666 C3672 1.368 . S
C3667 C3651 1.349 . S
C3667 H3659 0.950 . S
C3667 C3665 1.327 . S
C3668 C3656 1.349 . S
C3668 H3662 0.950 . S
C3668 C3669 1.327 . S
C3669 H3663 0.950 . S
C3669 C3668 1.327 . S
C3669 C3673 1.429 . S
C3670 C3653 1.574 . S
C3670 H3664 0.949 . S
C3670 C3674 1.368 . S
C3671 C3652 1.429 . S
C3671 C3665 1.429 . S
C3671 C3672 1.523 . S
C3672 C3653 1.368 . S
C3672 C3666 1.368 . S
C3672 C3671 1.523 . S
C3673 C3657 1.429 . S
C3673 C3669 1.429 . S
C3673 C3674 1.523 . S
C3674 C3658 1.368 . S
C3674 C3670 1.368 . S
C3674 C3673 1.523 . S
H3675 C3650 0.950 . S
H3676 C3652 0.950 . S
H3677 C3653 0.949 . S
H3678 C3655 0.950 . S
H3679 C3657 0.950 . S
C3680 C3681 1.349 . S
C3680 C3682 1.327 . S
C3680 H3705 0.950 . S
C3681 C3680 1.349 . S
C3681 C3697 1.349 . S
C3682 C3680 1.327 . S
C3682 C3701 1.429 . S
C3682 H3706 0.950 . S
C3683 C3700 1.574 . S
C3683 C3702 1.368 . S
C3683 H3707 0.949 . S
H3684 C3688 0.949 . S
C3685 C3686 1.349 . S
C3685 C3687 1.327 . S
C3685 H3708 0.950 . S
C3686 C3685 1.349 . S
C3686 C3698 1.349 . S
C3687 C3685 1.327 . S
C3687 C3703 1.429 . S
C3687 H3709 0.950 . S
C3688 H3684 0.949 . S
C3688 C3696 1.574 . S
C3688 C3704 1.368 . S
H3689 C3697 0.950 . S
H3690 C3695 0.950 . S
H3691 C3696 0.949 . S
H3692 C3698 0.950 . S
H3693 C3699 0.950 . S
H3694 C3700 0.949 . S
C3695 H3690 0.950 . S
C3695 C3697 1.327 . S
C3695 C3701 1.429 . S
C3696 C3688 1.574 . S
C3696 H3691 0.949 . S
C3696 C3702 1.368 . S
C3697 C3681 1.349 . S
C3697 H3689 0.950 . S
C3697 C3695 1.327 . S
C3698 C3686 1.349 . S
C3698 H3692 0.950 . S
C3698 C3699 1.327 . S
C3699 H3693 0.950 . S
C3699 C3698 1.327 . S
C3699 C3703 1.429 . S
C3700 C3683 1.574 . S
C3700 H3694 0.949 . S
C3700 C3704 1.368 . S
C3701 C3682 1.429 . S
C3701 C3695 1.429 . S
C3701 C3702 1.523 . S
C3702 C3683 1.368 . S
C3702 C3696 1.368 . S
C3702 C3701 1.523 . S
C3703 C3687 1.429 . S
C3703 C3699 1.429 . S
C3703 C3704 1.523 . S
C3704 C3688 1.368 . S
C3704 C3700 1.368 . S
C3704 C3703 1.523 . S
H3705 C3680 0.950 . S
H3706 C3682 0.950 . S
H3707 C3683 0.949 . S
H3708 C3685 0.950 . S
H3709 C3687 0.950 . S
C3710 C3711 1.349 . S
C3710 C3712 1.327 . S
C3710 H3735 0.950 . S
C3711 C3710 1.349 . S
C3711 C3727 1.349 . S
C3712 C3710 1.327 . S
C3712 C3731 1.429 . S
C3712 H3736 0.950 . S
C3713 C3730 1.574 . S
C3713 C3732 1.368 . S
C3713 H3737 0.949 . S
H3714 C3718 0.949 . S
C3715 C3716 1.349 . S
C3715 C3717 1.327 . S
C3715 H3738 0.950 . S
C3716 C3715 1.349 . S
C3716 C3728 1.349 . S
C3717 C3715 1.327 . S
C3717 C3733 1.429 . S
C3717 H3739 0.950 . S
C3718 H3714 0.949 . S
C3718 C3726 1.574 . S
C3718 C3734 1.368 . S
H3719 C3727 0.950 . S
H3720 C3725 0.950 . S
H3721 C3726 0.949 . S
H3722 C3728 0.950 . S
H3723 C3729 0.950 . S
H3724 C3730 0.949 . S
C3725 H3720 0.950 . S
C3725 C3727 1.327 . S
C3725 C3731 1.429 . S
C3726 C3718 1.574 . S
C3726 H3721 0.949 . S
C3726 C3732 1.368 . S
C3727 C3711 1.349 . S
C3727 H3719 0.950 . S
C3727 C3725 1.327 . S
C3728 C3716 1.349 . S
C3728 H3722 0.950 . S
C3728 C3729 1.327 . S
C3729 H3723 0.950 . S
C3729 C3728 1.327 . S
C3729 C3733 1.429 . S
C3730 C3713 1.574 . S
C3730 H3724 0.949 . S
C3730 C3734 1.368 . S
C3731 C3712 1.429 . S
C3731 C3725 1.429 . S
C3731 C3732 1.523 . S
C3732 C3713 1.368 . S
C3732 C3726 1.368 . S
C3732 C3731 1.523 . S
C3733 C3717 1.429 . S
C3733 C3729 1.429 . S
C3733 C3734 1.523 . S
C3734 C3718 1.368 . S
C3734 C3730 1.368 . S
C3734 C3733 1.523 . S
H3735 C3710 0.950 . S
H3736 C3712 0.950 . S
H3737 C3713 0.949 . S
H3738 C3715 0.950 . S
H3739 C3717 0.950 . S
C3740 C3741 1.349 . S
C3740 C3742 1.327 . S
C3740 H3765 0.950 . S
C3741 C3740 1.349 . S
C3741 C3757 1.349 . S
C3742 C3740 1.327 . S
C3742 C3761 1.429 . S
C3742 H3766 0.950 . S
C3743 C3760 1.574 . S
C3743 C3762 1.368 . S
C3743 H3767 0.949 . S
H3744 C3748 0.949 . S
C3745 C3746 1.349 . S
C3745 C3747 1.327 . S
C3745 H3768 0.950 . S
C3746 C3745 1.349 . S
C3746 C3758 1.349 . S
C3747 C3745 1.327 . S
C3747 C3763 1.429 . S
C3747 H3769 0.950 . S
C3748 H3744 0.949 . S
C3748 C3756 1.574 . S
C3748 C3764 1.368 . S
H3749 C3757 0.950 . S
H3750 C3755 0.950 . S
H3751 C3756 0.949 . S
H3752 C3758 0.950 . S
H3753 C3759 0.950 . S
H3754 C3760 0.949 . S
C3755 H3750 0.950 . S
C3755 C3757 1.327 . S
C3755 C3761 1.429 . S
C3756 C3748 1.574 . S
C3756 H3751 0.949 . S
C3756 C3762 1.368 . S
C3757 C3741 1.349 . S
C3757 H3749 0.950 . S
C3757 C3755 1.327 . S
C3758 C3746 1.349 . S
C3758 H3752 0.950 . S
C3758 C3759 1.327 . S
C3759 H3753 0.950 . S
C3759 C3758 1.327 . S
C3759 C3763 1.429 . S
C3760 C3743 1.574 . S
C3760 H3754 0.949 . S
C3760 C3764 1.368 . S
C3761 C3742 1.429 . S
C3761 C3755 1.429 . S
C3761 C3762 1.523 . S
C3762 C3743 1.368 . S
C3762 C3756 1.368 . S
C3762 C3761 1.523 . S
C3763 C3747 1.429 . S
C3763 C3759 1.429 . S
C3763 C3764 1.523 . S
C3764 C3748 1.368 . S
C3764 C3760 1.368 . S
C3764 C3763 1.523 . S
H3765 C3740 0.950 . S
H3766 C3742 0.950 . S
H3767 C3743 0.949 . S
H3768 C3745 0.950 . S
H3769 C3747 0.950 . S
C3770 C3771 1.349 . S
C3770 C3772 1.327 . S
C3770 H3795 0.950 . S
C3771 C3770 1.349 . S
C3771 C3787 1.349 . S
C3772 C3770 1.327 . S
C3772 C3791 1.429 . S
C3772 H3796 0.950 . S
C3773 C3790 1.574 . S
C3773 C3792 1.368 . S
C3773 H3797 0.949 . S
H3774 C3778 0.949 . S
C3775 C3776 1.349 . S
C3775 C3777 1.327 . S
C3775 H3798 0.950 . S
C3776 C3775 1.349 . S
C3776 C3788 1.349 . S
C3777 C3775 1.327 . S
C3777 C3793 1.429 . S
C3777 H3799 0.950 . S
C3778 H3774 0.949 . S
C3778 C3786 1.574 . S
C3778 C3794 1.368 . S
H3779 C3787 0.950 . S
H3780 C3785 0.950 . S
H3781 C3786 0.949 . S
H3782 C3788 0.950 . S
H3783 C3789 0.950 . S
H3784 C3790 0.949 . S
C3785 H3780 0.950 . S
C3785 C3787 1.327 . S
C3785 C3791 1.429 . S
C3786 C3778 1.574 . S
C3786 H3781 0.949 . S
C3786 C3792 1.368 . S
C3787 C3771 1.349 . S
C3787 H3779 0.950 . S
C3787 C3785 1.327 . S
C3788 C3776 1.349 . S
C3788 H3782 0.950 . S
C3788 C3789 1.327 . S
C3789 H3783 0.950 . S
C3789 C3788 1.327 . S
C3789 C3793 1.429 . S
C3790 C3773 1.574 . S
C3790 H3784 0.949 . S
C3790 C3794 1.368 . S
C3791 C3772 1.429 . S
C3791 C3785 1.429 . S
C3791 C3792 1.523 . S
C3792 C3773 1.368 . S
C3792 C3786 1.368 . S
C3792 C3791 1.523 . S
C3793 C3777 1.429 . S
C3793 C3789 1.429 . S
C3793 C3794 1.523 . S
C3794 C3778 1.368 . S
C3794 C3790 1.368 . S
C3794 C3793 1.523 . S
H3795 C3770 0.950 . S
H3796 C3772 0.950 . S
H3797 C3773 0.949 . S
H3798 C3775 0.950 . S
H3799 C3777 0.950 . S
C3800 C3801 1.349 . S
C3800 C3802 1.327 . S
C3800 H3825 0.950 . S
C3801 C3800 1.349 . S
C3801 C3817 1.349 . S
C3802 C3800 1.327 . S
C3802 C3821 1.429 . S
C3802 H3826 0.950 . S
C3803 C3820 1.574 . S
C3803 C3822 1.368 . S
C3803 H3827 0.949 . S
H3804 C3808 0.949 . S
C3805 C3806 1.349 . S
C3805 C3807 1.327 . S
C3805 H3828 0.950 . S
C3806 C3805 1.349 . S
C3806 C3818 1.349 . S
C3807 C3805 1.327 . S
C3807 C3823 1.429 . S
C3807 H3829 0.950 . S
C3808 H3804 0.949 . S
C3808 C3816 1.574 . S
C3808 C3824 1.368 . S
H3809 C3817 0.950 . S
H3810 C3815 0.950 . S
H3811 C3816 0.949 . S
H3812 C3818 0.950 . S
H3813 C3819 0.950 . S
H3814 C3820 0.949 . S
C3815 H3810 0.950 . S
C3815 C3817 1.327 . S
C3815 C3821 1.429 . S
C3816 C3808 1.574 . S
C3816 H3811 0.949 . S
C3816 C3822 1.368 . S
C3817 C3801 1.349 . S
C3817 H3809 0.950 . S
C3817 C3815 1.327 . S
C3818 C3806 1.349 . S
C3818 H3812 0.950 . S
C3818 C3819 1.327 . S
C3819 H3813 0.950 . S
C3819 C3818 1.327 . S
C3819 C3823 1.429 . S
C3820 C3803 1.574 . S
C3820 H3814 0.949 . S
C3820 C3824 1.368 . S
C3821 C3802 1.429 . S
C3821 C3815 1.429 . S
C3821 C3822 1.523 . S
C3822 C3803 1.368 . S
C3822 C3816 1.368 . S
C3822 C3821 1.523 . S
C3823 C3807 1.429 . S
C3823 C3819 1.429 . S
C3823 C3824 1.523 . S
C3824 C3808 1.368 . S
C3824 C3820 1.368 . S
C3824 C3823 1.523 . S
H3825 C3800 0.950 . S
H3826 C3802 0.950 . S
H3827 C3803 0.949 . S
H3828 C3805 0.950 . S
H3829 C3807 0.950 . S
C3830 C3831 1.349 . S
C3830 C3832 1.327 . S
C3830 H3855 0.950 . S
C3831 C3830 1.349 . S
C3831 C3847 1.349 . S
C3832 C3830 1.327 . S
C3832 C3851 1.429 . S
C3832 H3856 0.950 . S
C3833 C3850 1.574 . S
C3833 C3852 1.368 . S
C3833 H3857 0.949 . S
H3834 C3838 0.949 . S
C3835 C3836 1.349 . S
C3835 C3837 1.327 . S
C3835 H3858 0.950 . S
C3836 C3835 1.349 . S
C3836 C3848 1.349 . S
C3837 C3835 1.327 . S
C3837 C3853 1.429 . S
C3837 H3859 0.950 . S
C3838 H3834 0.949 . S
C3838 C3846 1.574 . S
C3838 C3854 1.368 . S
H3839 C3847 0.950 . S
H3840 C3845 0.950 . S
H3841 C3846 0.949 . S
H3842 C3848 0.950 . S
H3843 C3849 0.950 . S
H3844 C3850 0.949 . S
C3845 H3840 0.950 . S
C3845 C3847 1.327 . S
C3845 C3851 1.429 . S
C3846 C3838 1.574 . S
C3846 H3841 0.949 . S
C3846 C3852 1.368 . S
C3847 C3831 1.349 . S
C3847 H3839 0.950 . S
C3847 C3845 1.327 . S
C3848 C3836 1.349 . S
C3848 H3842 0.950 . S
C3848 C3849 1.327 . S
C3849 H3843 0.950 . S
C3849 C3848 1.327 . S
C3849 C3853 1.429 . S
C3850 C3833 1.574 . S
C3850 H3844 0.949 . S
C3850 C3854 1.368 . S
C3851 C3832 1.429 . S
C3851 C3845 1.429 . S
C3851 C3852 1.523 . S
C3852 C3833 1.368 . S
C3852 C3846 1.368 . S
C3852 C3851 1.523 . S
C3853 C3837 1.429 . S
C3853 C3849 1.429 . S
C3853 C3854 1.523 . S
C3854 C3838 1.368 . S
C3854 C3850 1.368 . S
C3854 C3853 1.523 . S
H3855 C3830 0.950 . S
H3856 C3832 0.950 . S
H3857 C3833 0.949 . S
H3858 C3835 0.950 . S
H3859 C3837 0.950 . S
C3860 C3861 1.349 . S
C3860 C3862 1.327 . S
C3860 H3885 0.950 . S
C3861 C3860 1.349 . S
C3861 C3877 1.349 . S
C3862 C3860 1.327 . S
C3862 C3881 1.429 . S
C3862 H3886 0.950 . S
C3863 C3880 1.574 . S
C3863 C3882 1.368 . S
C3863 H3887 0.949 . S
H3864 C3868 0.949 . S
C3865 C3866 1.349 . S
C3865 C3867 1.327 . S
C3865 H3888 0.950 . S
C3866 C3865 1.349 . S
C3866 C3878 1.349 . S
C3867 C3865 1.327 . S
C3867 C3883 1.429 . S
C3867 H3889 0.950 . S
C3868 H3864 0.949 . S
C3868 C3876 1.574 . S
C3868 C3884 1.368 . S
H3869 C3877 0.950 . S
H3870 C3875 0.950 . S
H3871 C3876 0.949 . S
H3872 C3878 0.950 . S
H3873 C3879 0.950 . S
H3874 C3880 0.949 . S
C3875 H3870 0.950 . S
C3875 C3877 1.327 . S
C3875 C3881 1.429 . S
C3876 C3868 1.574 . S
C3876 H3871 0.949 . S
C3876 C3882 1.368 . S
C3877 C3861 1.349 . S
C3877 H3869 0.950 . S
C3877 C3875 1.327 . S
C3878 C3866 1.349 . S
C3878 H3872 0.950 . S
C3878 C3879 1.327 . S
C3879 H3873 0.950 . S
C3879 C3878 1.327 . S
C3879 C3883 1.429 . S
C3880 C3863 1.574 . S
C3880 H3874 0.949 . S
C3880 C3884 1.368 . S
C3881 C3862 1.429 . S
C3881 C3875 1.429 . S
C3881 C3882 1.523 . S
C3882 C3863 1.368 . S
C3882 C3876 1.368 . S
C3882 C3881 1.523 . S
C3883 C3867 1.429 . S
C3883 C3879 1.429 . S
C3883 C3884 1.523 . S
C3884 C3868 1.368 . S
C3884 C3880 1.368 . S
C3884 C3883 1.523 . S
H3885 C3860 0.950 . S
H3886 C3862 0.950 . S
H3887 C3863 0.949 . S
H3888 C3865 0.950 . S
H3889 C3867 0.950 . S
C3890 C3891 1.349 . S
C3890 C3892 1.327 . S
C3890 H3915 0.950 . S
C3891 C3890 1.349 . S
C3891 C3907 1.349 . S
C3892 C3890 1.327 . S
C3892 C3911 1.429 . S
C3892 H3916 0.950 . S
C3893 C3910 1.574 . S
C3893 C3912 1.368 . S
C3893 H3917 0.949 . S
H3894 C3898 0.949 . S
C3895 C3896 1.349 . S
C3895 C3897 1.327 . S
C3895 H3918 0.950 . S
C3896 C3895 1.349 . S
C3896 C3908 1.349 . S
C3897 C3895 1.327 . S
C3897 C3913 1.429 . S
C3897 H3919 0.950 . S
C3898 H3894 0.949 . S
C3898 C3906 1.574 . S
C3898 C3914 1.368 . S
H3899 C3907 0.950 . S
H3900 C3905 0.950 . S
H3901 C3906 0.949 . S
H3902 C3908 0.950 . S
H3903 C3909 0.950 . S
H3904 C3910 0.949 . S
C3905 H3900 0.950 . S
C3905 C3907 1.327 . S
C3905 C3911 1.429 . S
C3906 C3898 1.574 . S
C3906 H3901 0.949 . S
C3906 C3912 1.368 . S
C3907 C3891 1.349 . S
C3907 H3899 0.950 . S
C3907 C3905 1.327 . S
C3908 C3896 1.349 . S
C3908 H3902 0.950 . S
C3908 C3909 1.327 . S
C3909 H3903 0.950 . S
C3909 C3908 1.327 . S
C3909 C3913 1.429 . S
C3910 C3893 1.574 . S
C3910 H3904 0.949 . S
C3910 C3914 1.368 . S
C3911 C3892 1.429 . S
C3911 C3905 1.429 . S
C3911 C3912 1.523 . S
C3912 C3893 1.368 . S
C3912 C3906 1.368 . S
C3912 C3911 1.523 . S
C3913 C3897 1.429 . S
C3913 C3909 1.429 . S
C3913 C3914 1.523 . S
C3914 C3898 1.368 . S
C3914 C3910 1.368 . S
C3914 C3913 1.523 . S
H3915 C3890 0.950 . S
H3916 C3892 0.950 . S
H3917 C3893 0.949 . S
H3918 C3895 0.950 . S
H3919 C3897 0.950 . S
C3920 C3921 1.349 . S
C3920 C3922 1.327 . S
C3920 H3945 0.950 . S
C3921 C3920 1.349 . S
C3921 C3937 1.349 . S
C3922 C3920 1.327 . S
C3922 C3941 1.429 . S
C3922 H3946 0.950 . S
C3923 C3940 1.574 . S
C3923 C3942 1.368 . S
C3923 H3947 0.949 . S
H3924 C3928 0.949 . S
C3925 C3926 1.349 . S
C3925 C3927 1.327 . S
C3925 H3948 0.950 . S
C3926 C3925 1.349 . S
C3926 C3938 1.349 . S
C3927 C3925 1.327 . S
C3927 C3943 1.429 . S
C3927 H3949 0.950 . S
C3928 H3924 0.949 . S
C3928 C3936 1.574 . S
C3928 C3944 1.368 . S
H3929 C3937 0.950 . S
H3930 C3935 0.950 . S
H3931 C3936 0.949 . S
H3932 C3938 0.950 . S
H3933 C3939 0.950 . S
H3934 C3940 0.949 . S
C3935 H3930 0.950 . S
C3935 C3937 1.327 . S
C3935 C3941 1.429 . S
C3936 C3928 1.574 . S
C3936 H3931 0.949 . S
C3936 C3942 1.368 . S
C3937 C3921 1.349 . S
C3937 H3929 0.950 . S
C3937 C3935 1.327 . S
C3938 C3926 1.349 . S
C3938 H3932 0.950 . S
C3938 C3939 1.327 . S
C3939 H3933 0.950 . S
C3939 C3938 1.327 . S
C3939 C3943 1.429 . S
C3940 C3923 1.574 . S
C3940 H3934 0.949 . S
C3940 C3944 1.368 . S
C3941 C3922 1.429 . S
C3941 C3935 1.429 . S
C3941 C3942 1.523 . S
C3942 C3923 1.368 . S
C3942 C3936 1.368 . S
C3942 C3941 1.523 . S
C3943 C3927 1.429 . S
C3943 C3939 1.429 . S
C3943 C3944 1.523 . S
C3944 C3928 1.368 . S
C3944 C3940 1.368 . S
C3944 C3943 1.523 . S
H3945 C3920 0.950 . S
H3946 C3922 0.950 . S
H3947 C3923 0.949 . S
H3948 C3925 0.950 . S
H3949 C3927 0.950 . S
C3950 C3951 1.349 . S
C3950 C3952 1.327 . S
C3950 H3975 0.950 . S
C3951 C3950 1.349 . S
C3951 C3967 1.349 . S
C3952 C3950 1.327 . S
C3952 C3971 1.429 . S
C3952 H3976 0.950 . S
C3953 C3970 1.574 . S
C3953 C3972 1.368 . S
C3953 H3977 0.949 . S
H3954 C3958 0.949 . S
C3955 C3956 1.349 . S
C3955 C3957 1.327 . S
C3955 H3978 0.950 . S
C3956 C3955 1.349 . S
C3956 C3968 1.349 . S
C3957 C3955 1.327 . S
C3957 C3973 1.429 . S
C3957 H3979 0.950 . S
C3958 H3954 0.949 . S
C3958 C3966 1.574 . S
C3958 C3974 1.368 . S
H3959 C3967 0.950 . S
H3960 C3965 0.950 . S
H3961 C3966 0.949 . S
H3962 C3968 0.950 . S
H3963 C3969 0.950 . S
H3964 C3970 0.949 . S
C3965 H3960 0.950 . S
C3965 C3967 1.327 . S
C3965 C3971 1.429 . S
C3966 C3958 1.574 . S
C3966 H3961 0.949 . S
C3966 C3972 1.368 . S
C3967 C3951 1.349 . S
C3967 H3959 0.950 . S
C3967 C3965 1.327 . S
C3968 C3956 1.349 . S
C3968 H3962 0.950 . S
C3968 C3969 1.327 . S
C3969 H3963 0.950 . S
C3969 C3968 1.327 . S
C3969 C3973 1.429 . S
C3970 C3953 1.574 . S
C3970 H3964 0.949 . S
C3970 C3974 1.368 . S
C3971 C3952 1.429 . S
C3971 C3965 1.429 . S
C3971 C3972 1.523 . S
C3972 C3953 1.368 . S
C3972 C3966 1.368 . S
C3972 C3971 1.523 . S
C3973 C3957 1.429 . S
C3973 C3969 1.429 . S
C3973 C3974 1.523 . S
C3974 C3958 1.368 . S
C3974 C3970 1.368 . S
C3974 C3973 1.523 . S
H3975 C3950 0.950 . S
H3976 C3952 0.950 . S
H3977 C3953 0.949 . S
H3978 C3955 0.950 . S
H3979 C3957 0.950 . S
C3980 C3981 1.349 . S
C3980 C3982 1.327 . S
C3980 H4005 0.950 . S
C3981 C3980 1.349 . S
C3981 C3997 1.349 . S
C3982 C3980 1.327 . S
C3982 C4001 1.429 . S
C3982 H4006 0.950 . S
C3983 C4000 1.574 . S
C3983 C4002 1.368 . S
C3983 H4007 0.949 . S
H3984 C3988 0.949 . S
C3985 C3986 1.349 . S
C3985 C3987 1.327 . S
C3985 H4008 0.950 . S
C3986 C3985 1.349 . S
C3986 C3998 1.349 . S
C3987 C3985 1.327 . S
C3987 C4003 1.429 . S
C3987 H4009 0.950 . S
C3988 H3984 0.949 . S
C3988 C3996 1.574 . S
C3988 C4004 1.368 . S
H3989 C3997 0.950 . S
H3990 C3995 0.950 . S
H3991 C3996 0.949 . S
H3992 C3998 0.950 . S
H3993 C3999 0.950 . S
H3994 C4000 0.949 . S
C3995 H3990 0.950 . S
C3995 C3997 1.327 . S
C3995 C4001 1.429 . S
C3996 C3988 1.574 . S
C3996 H3991 0.949 . S
C3996 C4002 1.368 . S
C3997 C3981 1.349 . S
C3997 H3989 0.950 . S
C3997 C3995 1.327 . S
C3998 C3986 1.349 . S
C3998 H3992 0.950 . S
C3998 C3999 1.327 . S
C3999 H3993 0.950 . S
C3999 C3998 1.327 . S
C3999 C4003 1.429 . S
C4000 C3983 1.574 . S
C4000 H3994 0.949 . S
C4000 C4004 1.368 . S
C4001 C3982 1.429 . S
C4001 C3995 1.429 . S
C4001 C4002 1.523 . S
C4002 C3983 1.368 . S
C4002 C3996 1.368 . S
C4002 C4001 1.523 . S
C4003 C3987 1.429 . S
C4003 C3999 1.429 . S
C4003 C4004 1.523 . S
C4004 C3988 1.368 . S
C4004 C4000 1.368 . S
C4004 C4003 1.523 . S
H4005 C3980 0.950 . S
H4006 C3982 0.950 . S
H4007 C3983 0.949 . S
H4008 C3985 0.950 . S
H4009 C3987 0.950 . S
C4010 C4011 1.349 . S
C4010 C4012 1.327 . S
C4010 H4035 0.950 . S
C4011 C4010 1.349 . S
C4011 C4027 1.349 . S
C4012 C4010 1.327 . S
C4012 C4031 1.429 . S
C4012 H4036 0.950 . S
C4013 C4030 1.574 . S
C4013 C4032 1.368 . S
C4013 H4037 0.949 . S
H4014 C4018 0.949 . S
C4015 C4016 1.349 . S
C4015 C4017 1.327 . S
C4015 H4038 0.950 . S
C4016 C4015 1.349 . S
C4016 C4028 1.349 . S
C4017 C4015 1.327 . S
C4017 C4033 1.429 . S
C4017 H4039 0.950 . S
C4018 H4014 0.949 . S
C4018 C4026 1.574 . S
C4018 C4034 1.368 . S
H4019 C4027 0.950 . S
H4020 C4025 0.950 . S
H4021 C4026 0.949 . S
H4022 C4028 0.950 . S
H4023 C4029 0.950 . S
H4024 C4030 0.949 . S
C4025 H4020 0.950 . S
C4025 C4027 1.327 . S
C4025 C4031 1.429 . S
C4026 C4018 1.574 . S
C4026 H4021 0.949 . S
C4026 C4032 1.368 . S
C4027 C4011 1.349 . S
C4027 H4019 0.950 . S
C4027 C4025 1.327 . S
C4028 C4016 1.349 . S
C4028 H4022 0.950 . S
C4028 C4029 1.327 . S
C4029 H4023 0.950 . S
C4029 C4028 1.327 . S
C4029 C4033 1.429 . S
C4030 C4013 1.574 . S
C4030 H4024 0.949 . S
C4030 C4034 1.368 . S
C4031 C4012 1.429 . S
C4031 C4025 1.429 . S
C4031 C4032 1.523 . S
C4032 C4013 1.368 . S
C4032 C4026 1.368 . S
C4032 C4031 1.523 . S
C4033 C4017 1.429 . S
C4033 C4029 1.429 . S
C4033 C4034 1.523 . S
C4034 C4018 1.368 . S
C4034 C4030 1.368 . S
C4034 C4033 1.523 . S
H4035 C4010 0.950 . S
H4036 C4012 0.950 . S
H4037 C4013 0.949 . S
H4038 C4015 0.950 . S
H4039 C4017 0.950 . S
C4040 C4041 1.349 . S
C4040 C4042 1.327 . S
C4040 H4065 0.950 . S
C4041 C4040 1.349 . S
C4041 C4057 1.349 . S
C4042 C4040 1.327 . S
C4042 C4061 1.429 . S
C4042 H4066 0.950 . S
C4043 C4060 1.574 . S
C4043 C4062 1.368 . S
C4043 H4067 0.949 . S
H4044 C4048 0.949 . S
C4045 C4046 1.349 . S
C4045 C4047 1.327 . S
C4045 H4068 0.950 . S
C4046 C4045 1.349 . S
C4046 C4058 1.349 . S
C4047 C4045 1.327 . S
C4047 C4063 1.429 . S
C4047 H4069 0.950 . S
C4048 H4044 0.949 . S
C4048 C4056 1.574 . S
C4048 C4064 1.368 . S
H4049 C4057 0.950 . S
H4050 C4055 0.950 . S
H4051 C4056 0.949 . S
H4052 C4058 0.950 . S
H4053 C4059 0.950 . S
H4054 C4060 0.949 . S
C4055 H4050 0.950 . S
C4055 C4057 1.327 . S
C4055 C4061 1.429 . S
C4056 C4048 1.574 . S
C4056 H4051 0.949 . S
C4056 C4062 1.368 . S
C4057 C4041 1.349 . S
C4057 H4049 0.950 . S
C4057 C4055 1.327 . S
C4058 C4046 1.349 . S
C4058 H4052 0.950 . S
C4058 C4059 1.327 . S
C4059 H4053 0.950 . S
C4059 C4058 1.327 . S
C4059 C4063 1.429 . S
C4060 C4043 1.574 . S
C4060 H4054 0.949 . S
C4060 C4064 1.368 . S
C4061 C4042 1.429 . S
C4061 C4055 1.429 . S
C4061 C4062 1.523 . S
C4062 C4043 1.368 . S
C4062 C4056 1.368 . S
C4062 C4061 1.523 . S
C4063 C4047 1.429 . S
C4063 C4059 1.429 . S
C4063 C4064 1.523 . S
C4064 C4048 1.368 . S
C4064 C4060 1.368 . S
C4064 C4063 1.523 . S
H4065 C4040 0.950 . S
H4066 C4042 0.950 . S
H4067 C4043 0.949 . S
H4068 C4045 0.950 . S
H4069 C4047 0.950 . S
C4070 C4071 1.349 . S
C4070 C4072 1.327 . S
C4070 H4095 0.950 . S
C4071 C4070 1.349 . S
C4071 C4087 1.349 . S
C4072 C4070 1.327 . S
C4072 C4091 1.429 . S
C4072 H4096 0.950 . S
C4073 C4090 1.574 . S
C4073 C4092 1.368 . S
C4073 H4097 0.949 . S
H4074 C4078 0.949 . S
C4075 C4076 1.349 . S
C4075 C4077 1.327 . S
C4075 H4098 0.950 . S
C4076 C4075 1.349 . S
C4076 C4088 1.349 . S
C4077 C4075 1.327 . S
C4077 C4093 1.429 . S
C4077 H4099 0.950 . S
C4078 H4074 0.949 . S
C4078 C4086 1.574 . S
C4078 C4094 1.368 . S
H4079 C4087 0.950 . S
H4080 C4085 0.950 . S
H4081 C4086 0.949 . S
H4082 C4088 0.950 . S
H4083 C4089 0.950 . S
H4084 C4090 0.949 . S
C4085 H4080 0.950 . S
C4085 C4087 1.327 . S
C4085 C4091 1.429 . S
C4086 C4078 1.574 . S
C4086 H4081 0.949 . S
C4086 C4092 1.368 . S
C4087 C4071 1.349 . S
C4087 H4079 0.950 . S
C4087 C4085 1.327 . S
C4088 C4076 1.349 . S
C4088 H4082 0.950 . S
C4088 C4089 1.327 . S
C4089 H4083 0.950 . S
C4089 C4088 1.327 . S
C4089 C4093 1.429 . S
C4090 C4073 1.574 . S
C4090 H4084 0.949 . S
C4090 C4094 1.368 . S
C4091 C4072 1.429 . S
C4091 C4085 1.429 . S
C4091 C4092 1.523 . S
C4092 C4073 1.368 . S
C4092 C4086 1.368 . S
C4092 C4091 1.523 . S
C4093 C4077 1.429 . S
C4093 C4089 1.429 . S
C4093 C4094 1.523 . S
C4094 C4078 1.368 . S
C4094 C4090 1.368 . S
C4094 C4093 1.523 . S
H4095 C4070 0.950 . S
H4096 C4072 0.950 . S
H4097 C4073 0.949 . S
H4098 C4075 0.950 . S
H4099 C4077 0.950 . S
C4100 C4101 1.349 . S
C4100 C4102 1.327 . S
C4100 H4125 0.950 . S
C4101 C4100 1.349 . S
C4101 C4117 1.349 . S
C4102 C4100 1.327 . S
C4102 C4121 1.429 . S
C4102 H4126 0.950 . S
C4103 C4120 1.574 . S
C4103 C4122 1.368 . S
C4103 H4127 0.949 . S
H4104 C4108 0.949 . S
C4105 C4106 1.349 . S
C4105 C4107 1.327 . S
C4105 H4128 0.950 . S
C4106 C4105 1.349 . S
C4106 C4118 1.349 . S
C4107 C4105 1.327 . S
C4107 C4123 1.429 . S
C4107 H4129 0.950 . S
C4108 H4104 0.949 . S
C4108 C4116 1.574 . S
C4108 C4124 1.368 . S
H4109 C4117 0.950 . S
H4110 C4115 0.950 . S
H4111 C4116 0.949 . S
H4112 C4118 0.950 . S
H4113 C4119 0.950 . S
H4114 C4120 0.949 . S
C4115 H4110 0.950 . S
C4115 C4117 1.327 . S
C4115 C4121 1.429 . S
C4116 C4108 1.574 . S
C4116 H4111 0.949 . S
C4116 C4122 1.368 . S
C4117 C4101 1.349 . S
C4117 H4109 0.950 . S
C4117 C4115 1.327 . S
C4118 C4106 1.349 . S
C4118 H4112 0.950 . S
C4118 C4119 1.327 . S
C4119 H4113 0.950 . S
C4119 C4118 1.327 . S
C4119 C4123 1.429 . S
C4120 C4103 1.574 . S
C4120 H4114 0.949 . S
C4120 C4124 1.368 . S
C4121 C4102 1.429 . S
C4121 C4115 1.429 . S
C4121 C4122 1.523 . S
C4122 C4103 1.368 . S
C4122 C4116 1.368 . S
C4122 C4121 1.523 . S
C4123 C4107 1.429 . S
C4123 C4119 1.429 . S
C4123 C4124 1.523 . S
C4124 C4108 1.368 . S
C4124 C4120 1.368 . S
C4124 C4123 1.523 . S
H4125 C4100 0.950 . S
H4126 C4102 0.950 . S
H4127 C4103 0.949 . S
H4128 C4105 0.950 . S
H4129 C4107 0.950 . S
C4130 C4131 1.349 . S
C4130 C4132 1.327 . S
C4130 H4155 0.950 . S
C4131 C4130 1.349 . S
C4131 C4147 1.349 . S
C4132 C4130 1.327 . S
C4132 C4151 1.429 . S
C4132 H4156 0.950 . S
C4133 C4150 1.574 . S
C4133 C4152 1.368 . S
C4133 H4157 0.949 . S
H4134 C4138 0.949 . S
C4135 C4136 1.349 . S
C4135 C4137 1.327 . S
C4135 H4158 0.950 . S
C4136 C4135 1.349 . S
C4136 C4148 1.349 . S
C4137 C4135 1.327 . S
C4137 C4153 1.429 . S
C4137 H4159 0.950 . S
C4138 H4134 0.949 . S
C4138 C4146 1.574 . S
C4138 C4154 1.368 . S
H4139 C4147 0.950 . S
H4140 C4145 0.950 . S
H4141 C4146 0.949 . S
H4142 C4148 0.950 . S
H4143 C4149 0.950 . S
H4144 C4150 0.949 . S
C4145 H4140 0.950 . S
C4145 C4147 1.327 . S
C4145 C4151 1.429 . S
C4146 C4138 1.574 . S
C4146 H4141 0.949 . S
C4146 C4152 1.368 . S
C4147 C4131 1.349 . S
C4147 H4139 0.950 . S
C4147 C4145 1.327 . S
C4148 C4136 1.349 . S
C4148 H4142 0.950 . S
C4148 C4149 1.327 . S
C4149 H4143 0.950 . S
C4149 C4148 1.327 . S
C4149 C4153 1.429 . S
C4150 C4133 1.574 . S
C4150 H4144 0.949 . S
C4150 C4154 1.368 . S
C4151 C4132 1.429 . S
C4151 C4145 1.429 . S
C4151 C4152 1.523 . S
C4152 C4133 1.368 . S
C4152 C4146 1.368 . S
C4152 C4151 1.523 . S
C4153 C4137 1.429 . S
C4153 C4149 1.429 . S
C4153 C4154 1.523 . S
C4154 C4138 1.368 . S
C4154 C4150 1.368 . S
C4154 C4153 1.523 . S
H4155 C4130 0.950 . S
H4156 C4132 0.950 . S
H4157 C4133 0.949 . S
H4158 C4135 0.950 . S
H4159 C4137 0.950 . S
C1281 C10 1.936 . S
C1286 C135 1.887 . S
C1311 C15 1.887 . S
C1316 C50 1.936 . S
C1341 C90 1.936 . S
C1346 C55 1.887 . S
C1371 C95 1.887 . S
C1376 C130 1.936 . S
C1401 C215 1.887 . S
C1406 C170 1.936 . S
C1431 C210 1.936 . S
C1436 C255 1.887 . S
C1461 C295 1.887 . S
C1466 C250 1.936 . S
C1491 C175 1.887 . S
C1496 C290 1.936 . S
C1521 C339 1.936 . S
C1526 C446 1.887 . S
C1551 C379 1.936 . S
C1556 C326 1.887 . S
C1581 C419 1.936 . S
C1586 C366 1.887 . S
C1611 C459 1.936 . S
C1616 C406 1.887 . S
C1641 C499 1.936 . S
C1646 C526 1.887 . S
C1671 C539 1.936 . S
C1676 C566 1.887 . S
C1701 C606 1.887 . S
C1706 C579 1.936 . S
C1731 C486 1.887 . S
C1736 C619 1.936 . S
C1761 C650 1.936 . S
C1766 C775 1.887 . S
C1791 C655 1.887 . S
C1796 C690 1.936 . S
C1821 C695 1.887 . S
C1826 C730 1.936 . S
C1851 C770 1.936 . S
C1856 C735 1.887 . S
C1881 C810 1.936 . S
C1886 C855 1.887 . S
C1911 C895 1.887 . S
C1916 C850 1.936 . S
C1941 C890 1.936 . S
C1946 C935 1.887 . S
C1971 C815 1.887 . S
C1976 C930 1.936 . S
C2001 C1086 1.887 . S
C2006 C979 1.936 . S
C2031 C966 1.887 . S
C2036 C1019 1.936 . S
C2061 C1059 1.936 . S
C2066 C1006 1.887 . S
C2091 C1046 1.887 . S
C2096 C1099 1.936 . S
C2121 C1166 1.887 . S
C2126 C1139 1.936 . S
C2151 C1206 1.887 . S
C2156 C1179 1.936 . S
C2181 C1246 1.887 . S
C2186 C1219 1.936 . S
C2211 C1259 1.936 . S
C2216 C1126 1.887 . S
C2241 C1090 1.572 . S
C2246 C9 1.559 . S
C2271 C49 1.559 . S
C2276 C330 1.573 . S
C2301 C89 1.559 . S
C2306 C1010 1.573 . S
C2331 C129 1.558 . S
C2336 C410 1.572 . S
C2361 C169 1.559 . S
C2366 C1170 1.572 . S
C2391 C570 1.572 . S
C2396 C209 1.558 . S
C2421 C1250 1.572 . S
C2426 C249 1.559 . S
C2451 C289 1.559 . S
C2456 C490 1.573 . S
C2481 C338 1.559 . S
C2486 C779 1.572 . S
C2511 C19 1.573 . S
C2516 C378 1.559 . S
C2541 C699 1.572 . S
C2546 C418 1.559 . S
C2571 C99 1.572 . S
C2576 C458 1.558 . S
C2601 C859 1.572 . S
C2606 C498 1.559 . S
C2631 C259 1.572 . S
C2636 C538 1.558 . S
C2661 C578 1.559 . S
C2666 C939 1.572 . S
C2691 C618 1.559 . S
C2696 C179 1.573 . S
C2721 C649 1.559 . S
C2726 C450 1.573 . S
C2751 C689 1.558 . S
C2756 C970 1.572 . S
C2781 C729 1.559 . S
C2786 C370 1.572 . S
C2811 C769 1.559 . S
C2816 C1050 1.573 . S
C2841 C809 1.559 . S
C2846 C530 1.572 . S
C2871 C849 1.559 . S
C2876 C1210 1.573 . S
C2901 C610 1.572 . S
C2906 C889 1.559 . S
C2931 C929 1.558 . S
C2936 C1130 1.572 . S
C2961 C139 1.572 . S
C2966 C978 1.559 . S
C2991 C659 1.572 . S
C2996 C1018 1.558 . S
C3021 C59 1.572 . S
C3026 C1058 1.559 . S
C3051 C739 1.573 . S
C3056 C1098 1.559 . S
C3081 C219 1.572 . S
C3086 C1138 1.559 . S
C3111 C1178 1.559 . S
C3116 C899 1.573 . S
C3141 C1218 1.559 . S
C3146 C299 1.572 . S
C3171 C819 1.572 . S
C3176 C1258 1.558 . S
C3201 C18 0.339 . S
C3206 C178 0.339 . S
C3231 C58 0.339 . S
C3236 C218 0.339 . S
C3261 C98 0.339 . S
C3266 C258 0.339 . S
C3291 C298 0.339 . S
C3296 C138 0.339 . S
C3321 C489 0.339 . S
C3326 C329 0.339 . S
C3351 C529 0.339 . S
C3356 C369 0.339 . S
C3381 C409 0.339 . S
C3386 C569 0.339 . S
C3411 C449 0.339 . S
C3416 C609 0.339 . S
C3441 C658 0.339 . S
C3446 C818 0.339 . S
C3471 C858 0.339 . S
C3476 C698 0.339 . S
C3501 C898 0.339 . S
C3506 C738 0.339 . S
C3531 C938 0.339 . S
C3536 C778 0.339 . S
C3561 C1129 0.339 . S
C3566 C969 0.339 . S
C3591 C1009 0.339 . S
C3596 C1169 0.339 . S
C3621 C1209 0.339 . S
C3626 C1049 0.339 . S
C3651 C1089 0.339 . S
C3656 C1249 0.339 . S
C3681 C286 1.323 . S
C3686 C6 1.323 . S
C3711 C46 1.323 . S
C3716 C166 1.323 . S
C3741 C86 1.323 . S
C3746 C206 1.323 . S
C3771 C246 1.323 . S
C3776 C126 1.323 . S
C3801 C335 1.323 . S
C3806 C615 1.323 . S
C3831 C495 1.323 . S
C3836 C375 1.323 . S
C3861 C535 1.323 . S
C3866 C415 1.323 . S
C3891 C455 1.323 . S
C3896 C575 1.323 . S
C3921 C646 1.323 . S
C3926 C926 1.323 . S
C3951 C806 1.323 . S
C3956 C686 1.323 . S
C3981 C846 1.323 . S
C3986 C726 1.323 . S
C4011 C886 1.323 . S
C4016 C766 1.323 . S
C4041 C975 1.323 . S
C4046 C1255 1.323 . S
C4071 C1135 1.323 . S
C4076 C1015 1.323 . S
C4101 C1055 1.323 . S
C4106 C1175 1.323 . S
C4131 C1215 1.323 . S
C4136 C1095 1.323 . S
