# Generated by pormake.
# Topology ukg, (4)-cn, num edge types: 1
# Building blocks:
#     Node 0, Type 0, BuildingBlock: MUDLON_clean_sbu_0, # of connection points: 4
#     Node 1, Type 0, BuildingBlock: MUDLON_clean_sbu_0, # of connection points: 4
#     Node 2, Type 0, BuildingBlock: MUDLON_clean_sbu_0, # of connection points: 4
#     Node 3, Type 0, BuildingBlock: MUDLON_clean_sbu_0, # of connection points: 4
#     Node 4, Type 0, BuildingBlock: MUDLON_clean_sbu_0, # of connection points: 4
#     Node 5, Type 0, BuildingBlock: MUDLON_clean_sbu_0, # of connection points: 4
#     Node 6, Type 0, BuildingBlock: MUDLON_clean_sbu_0, # of connection points: 4
#     Node 7, Type 0, BuildingBlock: MUDLON_clean_sbu_0, # of connection points: 4
#     Edge 8, Type (0, 0), BuildingBlock: UVAHIK_clean_linker_0, # of connection points: 2
#     Edge 9, Type (0, 0), BuildingBlock: UVAHIK_clean_linker_0, # of connection points: 2
#     Edge 10, Type (0, 0), BuildingBlock: UVAHIK_clean_linker_0, # of connection points: 2
#     Edge 11, Type (0, 0), BuildingBlock: UVAHIK_clean_linker_0, # of connection points: 2
#     Edge 12, Type (0, 0), BuildingBlock: UVAHIK_clean_linker_0, # of connection points: 2
#     Edge 13, Type (0, 0), BuildingBlock: UVAHIK_clean_linker_0, # of connection points: 2
#     Edge 14, Type (0, 0), BuildingBlock: UVAHIK_clean_linker_0, # of connection points: 2
#     Edge 15, Type (0, 0), BuildingBlock: UVAHIK_clean_linker_0, # of connection points: 2
#     Edge 16, Type (0, 0), BuildingBlock: UVAHIK_clean_linker_0, # of connection points: 2
#     Edge 17, Type (0, 0), BuildingBlock: UVAHIK_clean_linker_0, # of connection points: 2
#     Edge 18, Type (0, 0), BuildingBlock: UVAHIK_clean_linker_0, # of connection points: 2
#     Edge 19, Type (0, 0), BuildingBlock: UVAHIK_clean_linker_0, # of connection points: 2
#     Edge 20, Type (0, 0), BuildingBlock: UVAHIK_clean_linker_0, # of connection points: 2
#     Edge 21, Type (0, 0), BuildingBlock: UVAHIK_clean_linker_0, # of connection points: 2
#     Edge 22, Type (0, 0), BuildingBlock: UVAHIK_clean_linker_0, # of connection points: 2
#     Edge 23, Type (0, 0), BuildingBlock: UVAHIK_clean_linker_0, # of connection points: 2
# Relax obj value: 0.086
# Max RMSD: 0.239
# Mean RMSD: 0.239
data_MOF--net-ukg--node1-MUDLON_clean_sbu_0--edge1-UVAHIK_clean_linker_0
_symmetry_space_group_name_H-M    P1
_symmetry_Int_Tables_number       1
_symmetry_cell_setting            triclinic
loop_
_symmetry_equiv_pos_as_xyz
'x, y, z'
_cell_length_a     41.709056
_cell_length_b     41.48772
_cell_length_c     47.806336
_cell_angle_alpha  90.037759
_cell_angle_beta   89.731855
_cell_angle_gamma 90.011524
loop_
_atom_site_label
_atom_site_type_symbol
_atom_site_fract_x
_atom_site_fract_y
_atom_site_fract_z
_atom_type_partial_charge
Mg0 Mg 0.03853 0.68632 0.16569 0.0
C1 C 1.0086 0.63754 0.20723 0.0
O2 O 0.02261 0.61556 0.19161 0.0
C3 C 0.10472 0.70566 0.15255 0.0
O4 O 0.09037 0.70641 0.12814 0.0
C5 C 1.00985 0.63784 0.12443 0.0
O6 O 0.98465 0.6408 0.14082 0.0
O7 O 0.03479 0.65443 0.12958 0.0
O8 O 0.01279 0.66718 0.20161 0.0
O9 O 0.01733 0.73343 0.15925 0.0
C10 C 0.98744 0.73787 0.16285 0.0
O11 O 0.9688 0.71277 0.16698 0.0
O12 O 0.08876 0.69634 0.17379 0.0
Mg13 Mg 0.35231 0.53937 0.66921 0.0
C14 C 0.36314 0.50446 0.72385 0.0
O15 O 0.33171 0.5063 0.72433 0.0
C16 C 0.33406 0.60567 0.65302 0.0
O17 O 0.3332 0.59007 0.6291 0.0
C18 C 0.40476 0.51497 0.63028 0.0
O19 O 0.41207 0.49837 0.65276 0.0
O20 O 0.38029 0.53328 0.63087 0.0
O21 O 0.37841 0.51784 0.70389 0.0
O22 O 0.30578 0.51539 0.66756 0.0
C23 C 0.28215 0.52967 0.67908 0.0
O24 O 0.2866 0.55852 0.68971 0.0
O25 O 0.343 0.59058 0.67478 0.0
Mg26 Mg 0.48879 0.85632 0.17133 0.0
C27 C 0.53995 0.86029 0.21467 0.0
O28 O 0.55013 0.83629 0.19909 0.0
C29 C 0.4214 0.84245 0.15638 0.0
O30 O 0.43599 0.842 0.13196 0.0
C31 C 0.50214 0.88582 0.11291 0.0
O32 O 0.5054 0.85569 0.10492 0.0
O33 O 0.49577 0.89195 0.1384 0.0
O34 O 0.51358 0.87392 0.20846 0.0
O35 O 0.50846 0.80867 0.16255 0.0
C36 C 0.49568 0.78577 0.17636 0.0
O37 O 0.47059 0.79216 0.19213 0.0
O38 O 0.43762 0.84942 0.17801 0.0
Mg39 Mg 0.17679 0.98994 0.66663 0.0
C40 C 0.16586 0.02496 0.72126 0.0
O41 O 0.1973 0.0232 0.7215 0.0
C42 C 0.19423 0.92279 0.65132 0.0
O43 O 0.19417 0.93724 0.62687 0.0
C44 C 0.12569 0.01573 0.62765 0.0
O45 O 0.12041 0.03452 0.64932 0.0
O46 O 0.14844 0.99536 0.62873 0.0
O47 O 0.15064 1.01158 0.70139 0.0
O48 O 0.2227 1.01484 0.66384 0.0
C49 C 0.24733 1.00088 0.67372 0.0
O50 O 0.2444 0.97146 0.68355 0.0
O51 O 0.1865 0.93896 0.67292 0.0
Mg52 Mg 0.98749 0.3527 0.86171 0.0
C53 C 0.99828 0.28231 0.85212 0.0
O54 O 0.96945 0.28624 0.84173 0.0
C55 C 0.01523 0.40073 0.90303 0.0
O56 O 0.0375 0.40243 0.88356 0.0
C57 C 0.92112 0.33387 0.87665 0.0
O58 O 0.93574 0.33321 0.90093 0.0
O59 O 0.93686 0.34285 0.85519 0.0
O60 O 0.01209 0.30632 0.86348 0.0
O61 O 1.00936 0.37955 0.8275 0.0
C62 C 0.02198 0.36452 0.80703 0.0
O63 O 0.01923 0.33301 0.80587 0.0
O64 O 0.99212 0.38106 0.89988 0.0
Mg65 Mg 0.67178 0.49074 0.35361 0.0
C66 C 0.72562 0.54096 0.35274 0.0
O67 O 0.70165 0.56147 0.35392 0.0
C68 C 0.62167 0.51677 0.39387 0.0
O69 O 0.61434 0.53369 0.37157 0.0
C70 C 0.6836 0.42229 0.36848 0.0
O71 O 0.68169 0.43596 0.39324 0.0
O72 O 0.67897 0.43948 0.34687 0.0
O73 O 0.71977 0.51093 0.35387 0.0
O74 O 0.64552 0.51352 0.31975 0.0
C75 C 0.65998 0.52422 0.29819 0.0
O76 O 0.69096 0.5193 0.29555 0.0
O77 O 0.64549 0.49765 0.39274 0.0
Mg78 Mg 0.54052 0.17375 0.85372 0.0
C79 C 0.52983 0.24455 0.8491 0.0
O80 O 0.55879 0.2413 0.83858 0.0
C81 C 0.52675 0.14611 0.91308 0.0
O82 O 0.52231 0.1763 0.92047 0.0
C83 C 0.60666 0.1913 0.87088 0.0
O84 O 0.59137 0.19096 0.89497 0.0
O85 O 0.59144 0.18369 0.84886 0.0
O86 O 0.5158 0.21975 0.85897 0.0
O87 O 0.51993 0.15088 0.81701 0.0
C88 C 0.50579 0.16741 0.79837 0.0
O89 O 0.50612 0.19899 0.80024 0.0
O90 O 0.53393 0.13955 0.88784 0.0
Mg91 Mg 0.8509 0.0426 0.35895 0.0
C92 C 0.80272 0.98766 0.36156 0.0
O93 O 0.82881 0.97023 0.35846 0.0
C94 C 0.90353 0.01803 0.39687 0.0
O95 O 0.90773 0.99838 0.3756 0.0
C96 C 0.82559 0.10687 0.37295 0.0
O97 O 0.82274 0.09097 0.39661 0.0
O98 O 0.83838 0.09272 0.35211 0.0
O99 O 0.80534 0.01803 0.36408 0.0
O100 O 0.87486 0.02076 0.32312 0.0
C101 C 0.85817 1.00965 0.30311 0.0
O102 O 0.82699 1.0141 0.30346 0.0
O103 O 0.88101 0.03865 0.39589 0.0
C104 C 0.98986 0.42458 0.94612 0.0
C105 C 0.01574 0.42322 0.92719 0.0
C106 C 0.98948 0.44727 0.9678 0.0
C107 C 0.02538 0.52554 0.9883 0.0
H108 H 0.99118 0.50427 0.06154 0.0
C109 C 0.03665 0.61122 0.08332 0.0
C110 C 1.0099 0.61412 0.10117 0.0
C111 C 0.03718 0.58805 0.06204 0.0
C112 C 1.00049 0.5107 0.04111 0.0
H113 H 0.06195 0.44411 0.91677 0.0
H114 H 0.06156 0.4832 0.95481 0.0
H115 H 0.99309 0.46305 0.02517 0.0
H116 H 0.96258 0.59506 0.1104 0.0
H117 H 0.96348 0.55478 0.07319 0.0
H118 H 0.03293 0.57315 1.00431 0.0
C119 C 0.04121 0.4672 0.95258 0.0
C120 C 1.00159 0.48705 0.02023 0.0
C121 C 0.04155 0.44459 0.93085 0.0
C122 C 0.98359 0.59348 0.09706 0.0
C123 C 0.98418 0.57022 0.07585 0.0
C124 C 0.02438 0.54914 1.0092 0.0
C125 C 0.01501 0.4691 0.97115 0.0
C126 C 0.01406 0.49415 0.99354 0.0
C127 C 1.01104 0.56713 0.05815 0.0
C128 C 1.01191 0.54203 0.03586 0.0
H129 H 0.96953 0.40855 0.94386 0.0
H130 H 0.96874 0.44823 0.98149 0.0
H131 H 0.03458 0.53209 0.96786 0.0
H132 H 0.05736 0.62666 0.08591 0.0
H133 H 0.05838 0.58611 0.04898 0.0
C134 C 0.4202 0.53388 0.58211 0.0
C135 C 0.42603 0.51395 0.60532 0.0
C136 C 0.44132 0.53408 0.55926 0.0
C137 C 0.52505 0.51395 0.53975 0.0
H138 H 0.49296 0.51962 0.46395 0.0
C139 C 0.60672 0.49808 0.44223 0.0
C140 C 0.60088 0.51816 0.41912 0.0
C141 C 0.58583 0.49804 0.46525 0.0
C142 C 0.50236 0.51842 0.485 0.0
H143 H 0.45834 0.47808 0.62237 0.0
H144 H 0.49482 0.47812 0.58243 0.0
H145 H 0.45528 0.51798 0.50304 0.0
H146 H 0.56886 0.55454 0.40246 0.0
H147 H 0.53275 0.55471 0.44264 0.0
H148 H 0.57214 0.51432 0.52168 0.0
C149 C 0.47425 0.49403 0.58208 0.0
C150 C 0.48072 0.51746 0.50744 0.0
C151 C 0.45317 0.49384 0.60491 0.0
C152 C 0.57403 0.53865 0.41982 0.0
C153 C 0.55316 0.53859 0.4428 0.0
C154 C 0.54669 0.51488 0.51731 0.0
C155 C 0.46876 0.51434 0.55905 0.0
C156 C 0.49178 0.51521 0.53511 0.0
C157 C 0.55859 0.51806 0.46568 0.0
C158 C 0.53562 0.51716 0.48965 0.0
H159 H 0.3996 0.54976 0.58176 0.0
H160 H 0.43651 0.55028 0.54203 0.0
H161 H 0.53445 0.51276 0.5608 0.0
H162 H 0.62712 0.48193 0.44236 0.0
H163 H 0.59059 0.48171 0.48239 0.0
C164 C 0.51194 0.90633 0.06412 0.0
C165 C 0.50519 0.91257 0.09245 0.0
C166 C 0.51442 0.93166 0.04487 0.0
C167 C 0.49112 0.01697 0.03429 0.0
H168 H 0.55767 0.01548 0.97743 0.0
C169 C 0.517 0.12631 0.96215 0.0
C170 C 0.52394 0.1197 0.93391 0.0
C171 C 0.51474 0.10124 0.98168 0.0
C172 C 0.53871 0.01612 0.99297 0.0
H173 H 0.49592 0.95048 0.12274 0.0
H174 H 0.50051 0.9945 0.0893 0.0
H175 H 0.55366 0.9713 1.01085 0.0
H176 H 0.53371 0.08142 0.9041 0.0
H177 H 0.52942 0.0379 0.93798 0.0
H178 H 0.47611 0.06176 0.01637 0.0
C179 C 0.50349 0.97002 0.08185 0.0
C180 C 0.53641 0.99076 0.01215 0.0
C181 C 0.50106 0.94474 0.10107 0.0
C182 C 0.52845 0.08745 0.92568 0.0
C183 C 0.52619 0.06245 0.94517 0.0
C184 C 0.49339 0.04233 0.0151 0.0
C185 C 0.51015 0.96383 0.05349 0.0
C186 C 0.51257 0.99083 0.03304 0.0
C187 C 0.51939 0.06899 0.97344 0.0
C188 C 0.51719 0.04221 0.99415 0.0
H189 H 0.51518 0.88186 0.05673 0.0
H190 H 0.51921 0.92598 0.02314 0.0
H191 H 0.47216 0.01759 0.04984 0.0
H192 H 0.51347 0.15086 0.96923 0.0
H193 H 0.50981 0.1072 1.00334 0.0
C194 C 0.95124 0.995 0.42159 0.0
C195 C 0.92571 0.01711 0.42104 0.0
C196 C 0.97289 0.99481 0.44384 0.0
C197 C 1.00394 0.04626 0.50085 0.0
H198 H 0.03532 0.96539 0.53072 0.0
C199 C 0.07865 0.03913 0.60226 0.0
C200 C 0.1042 0.01705 0.60303 0.0
C201 C 0.05743 0.03947 0.57971 0.0
C202 C 0.02711 0.9882 0.52239 0.0
H203 H 0.90268 0.0561 0.44374 0.0
H204 H 0.94023 0.05554 0.4827 0.0
H205 H 0.99671 0.96495 0.49259 0.0
H206 H 0.12774 0.97831 0.58039 0.0
H207 H 0.09087 0.97912 0.54091 0.0
H208 H 0.0343 0.0695 0.5307 0.0
C209 C 0.94379 0.03863 0.4657 0.0
C210 C 1.00493 0.98795 0.50054 0.0
C211 C 0.92212 0.0388 0.44344 0.0
C212 C 0.10828 0.99559 0.58051 0.0
C213 C 0.087 0.99591 0.55796 0.0
C214 C 0.02611 0.04651 0.52271 0.0
C215 C 0.96955 0.01674 0.46611 0.0
C216 C 0.99303 0.01698 0.4895 0.0
C217 C 0.06119 0.01772 0.55736 0.0
C218 C 0.03796 0.01748 0.53378 0.0
H219 H 0.95478 0.97799 0.40465 0.0
H220 H 0.99264 0.97788 0.4433 0.0
H221 H 0.99571 0.06908 0.49255 0.0
H222 H 0.07474 0.05595 0.61927 0.0
H223 H 0.03762 0.05634 0.5801 0.0
C224 C 0.15212 0.72232 0.18164 0.0
C225 C 0.13782 0.71825 0.15528 0.0
C226 C 0.1824 0.73671 0.18394 0.0
C227 C 0.23707 0.79086 0.14494 0.0
H228 H 0.30254 0.75836 0.19484 0.0
C229 C 0.36948 0.82695 0.13425 0.0
C230 C 0.38745 0.8322 0.15861 0.0
C231 C 0.33821 0.8151 0.13589 0.0
C232 C 0.28433 0.76801 0.18111 0.0
H233 H 0.14468 0.725 0.11064 0.0
H234 H 0.19733 0.74954 0.11463 0.0
H235 H 0.24984 0.73254 0.19386 0.0
H236 H 0.38644 0.82956 0.20392 0.0
H237 H 0.33156 0.80886 0.20678 0.0
H238 H 0.27154 0.826 0.13189 0.0
C239 C 0.18497 0.74231 0.13359 0.0
C240 C 0.25416 0.75319 0.18052 0.0
C241 C 0.15482 0.728 0.1313 0.0
C242 C 0.3732 0.82585 0.18475 0.0
C243 C 0.34187 0.81377 0.18639 0.0
C244 C 0.26714 0.8056 0.14551 0.0
C245 C 0.19893 0.74735 0.15993 0.0
C246 C 0.23037 0.76412 0.16206 0.0
C247 C 0.32411 0.80808 0.16194 0.0
C248 C 0.29132 0.79405 0.16324 0.0
H249 H 0.13963 0.7151 0.20053 0.0
H250 H 0.19246 0.74033 0.20455 0.0
H251 H 0.21904 0.80038 0.13097 0.0
H252 H 0.37972 0.83153 0.11377 0.0
H253 H 0.32537 0.81061 0.11663 0.0
C254 C 0.31285 0.65543 0.63025 0.0
C255 C 0.32165 0.63908 0.65476 0.0
C256 C 0.29861 0.68583 0.63164 0.0
C257 C 0.28583 0.7566 0.67739 0.0
H258 H 0.21526 0.77274 0.62673 0.0
C259 C 0.21145 0.87496 0.67986 0.0
C260 C 0.20558 0.88906 0.65363 0.0
C261 C 0.22418 0.84379 0.68167 0.0
C262 C 0.23506 0.76871 0.6409 0.0
H263 H 0.32312 0.64226 0.70003 0.0
H264 H 0.29798 0.69545 0.70248 0.0
H265 H 0.24122 0.7202 0.62679 0.0
H266 H 0.20794 0.88123 0.60879 0.0
H267 H 0.23003 0.82714 0.61196 0.0
H268 H 0.27965 0.80534 0.69135 0.0
C269 C 0.30234 0.68476 0.68214 0.0
C270 C 0.25 0.7386 0.64089 0.0
C271 C 0.31669 0.65426 0.68074 0.0
C272 C 0.21211 0.87111 0.62933 0.0
C273 C 0.22463 0.83998 0.63115 0.0
C274 C 0.2708 0.78679 0.67742 0.0
C275 C 0.29267 0.70067 0.6576 0.0
C276 C 0.27589 0.7323 0.65882 0.0
C277 C 0.23106 0.82602 0.65731 0.0
C278 C 0.24554 0.79331 0.65887 0.0
H279 H 0.31655 0.64458 0.60987 0.0
H280 H 0.29213 0.69769 0.6123 0.0
H281 H 0.30583 0.75263 0.69133 0.0
H282 H 0.20673 0.88818 0.69898 0.0
H283 H 0.22859 0.83357 0.70214 0.0
C284 C 0.65518 0.20911 0.84354 0.0
C285 C 0.64021 0.20292 0.86941 0.0
C286 C 0.68615 0.22214 0.84251 0.0
C287 C 0.75917 0.2333 0.88507 0.0
H288 H 0.77655 0.30492 0.83514 0.0
C289 C 0.87096 0.31215 0.89834 0.0
C290 C 0.88805 0.32119 0.87419 0.0
C291 C 0.84086 0.29766 0.89626 0.0
C292 C 0.77221 0.28468 0.84895 0.0
H293 H 0.64628 0.20502 0.91443 0.0
H294 H 0.70003 0.22762 0.9126 0.0
H295 H 0.72431 0.27825 0.83387 0.0
H296 H 0.88648 0.32284 0.82886 0.0
H297 H 0.83382 0.29729 0.82524 0.0
H298 H 0.80685 0.23971 0.90029 0.0
C299 C 0.68802 0.22225 0.89311 0.0
C300 C 0.7423 0.26938 0.8482 0.0
C301 C 0.65709 0.20943 0.89415 0.0
C302 C 0.8739 0.31623 0.84788 0.0
C303 C 0.8437 0.30165 0.8458 0.0
C304 C 0.78901 0.24852 0.88579 0.0
C305 C 0.70284 0.229 0.8673 0.0
C306 C 0.7353 0.2438 0.86654 0.0
C307 C 0.82707 0.29174 0.86999 0.0
C308 C 0.79576 0.27471 0.86804 0.0
H309 H 0.64279 0.20443 0.8241 0.0
H310 H 0.69705 0.22679 0.8223 0.0
H311 H 0.75476 0.21327 0.8991 0.0
H312 H 0.88102 0.31583 0.91894 0.0
H313 H 0.82842 0.29099 0.91534 0.0
C314 C 0.69662 0.3691 0.39015 0.0
C315 C 0.69395 0.38825 0.36604 0.0
C316 C 0.70879 0.33782 0.38846 0.0
C317 C 0.7614 0.28673 0.34564 0.0
H318 H 0.725 0.21793 0.39054 0.0
C319 C 0.81047 0.15541 0.34437 0.0
C320 C 0.81181 0.13964 0.37037 0.0
C321 C 0.79538 0.18544 0.34194 0.0
C322 C 0.73564 0.23695 0.37806 0.0
H323 H 0.70134 0.38926 0.3211 0.0
H324 H 0.72265 0.33441 0.31818 0.0
H325 H 0.69862 0.27028 0.38931 0.0
H326 H 0.79924 0.14354 0.41434 0.0
H327 H 0.77353 0.19585 0.41019 0.0
H328 H 0.79877 0.25347 0.3348 0.0
C329 C 0.71548 0.3438 0.33841 0.0
C330 C 0.72046 0.26692 0.37731 0.0
C331 C 0.70307 0.37511 0.34006 0.0
C332 C 0.79844 0.15487 0.39395 0.0
C333 C 0.78345 0.1848 0.39153 0.0
C334 C 0.77667 0.2567 0.34645 0.0
C335 C 0.71872 0.32492 0.36265 0.0
C336 C 0.73341 0.29231 0.36144 0.0
C337 C 0.78133 0.20027 0.36546 0.0
C338 C 0.76424 0.23162 0.36305 0.0
H339 H 0.68984 0.37845 0.41049 0.0
H340 H 0.71131 0.32406 0.40758 0.0
H341 H 0.77214 0.30591 0.33343 0.0
H342 H 0.82049 0.14428 0.32578 0.0
H343 H 0.79403 0.19665 0.32153 0.0
C344 C 0.78247 0.52985 0.33858 0.0
C345 C 0.75843 0.55219 0.34574 0.0
C346 C 0.81218 0.54029 0.32845 0.0
C347 C 0.84866 0.61043 0.29297 0.0
H348 H 0.9278 0.56338 0.30477 0.0
C349 C 0.96723 0.65211 0.24321 0.0
C350 C 0.98475 0.62823 0.22887 0.0
C351 C 0.94215 0.64368 0.26122 0.0
C352 C 0.90584 0.57669 0.30124 0.0
H353 H 0.74751 0.60311 0.34942 0.0
H354 H 0.79967 0.62138 0.33247 0.0
H355 H 0.87942 0.54784 0.33046 0.0
H356 H 0.99052 0.57667 0.2233 0.0
H357 H 0.94665 0.56196 0.25487 0.0
H358 H 0.87499 0.63913 0.26368 0.0
C359 C 0.79524 0.59572 0.33394 0.0
C360 C 0.87809 0.56778 0.31591 0.0
C361 C 0.76539 0.58526 0.34388 0.0
C362 C 0.97751 0.59566 0.23398 0.0
C363 C 0.95245 0.58722 0.25215 0.0
C364 C 0.8764 0.61947 0.27852 0.0
C365 C 0.81874 0.57336 0.32543 0.0
C366 C 0.84902 0.58431 0.31171 0.0
C367 C 0.93404 0.61118 0.26546 0.0
C368 C 0.90523 0.60251 0.28225 0.0
H369 H 0.77794 0.50417 0.33971 0.0
H370 H 0.82945 0.52232 0.32184 0.0
H371 H 0.82665 0.62332 0.28869 0.0
H372 H 0.97223 0.67745 0.23992 0.0
H373 H 0.92872 0.66268 0.2715 0.0
C374 C 0.41351 0.47984 0.74294 0.0
C375 C 0.38003 0.48359 0.74418 0.0
C376 C 0.42891 0.45739 0.76009 0.0
C377 C 0.413 0.38102 0.79589 0.0
H378 H 0.49607 0.39564 0.82964 0.0
C379 C 0.47977 0.27826 0.85216 0.0
C380 C 0.51247 0.27542 0.8454 0.0
C381 C 0.46275 0.3062 0.84515 0.0
C382 C 0.47293 0.39109 0.82024 0.0
H383 H 0.33668 0.46768 0.76534 0.0
H384 H 0.36358 0.42858 0.79517 0.0
H385 H 0.46814 0.44023 0.80705 0.0
H386 H 0.55327 0.3004 0.82721 0.0
H387 H 0.52369 0.34849 0.81462 0.0
H388 H 0.41816 0.33172 0.808 0.0
C389 C 0.37785 0.44277 0.78074 0.0
C390 C 0.45694 0.41668 0.80733 0.0
C391 C 0.36249 0.46532 0.76373 0.0
C392 C 0.52808 0.30168 0.8327 0.0
C393 C 0.51111 0.32948 0.82563 0.0
C394 C 0.42906 0.3554 0.80862 0.0
C395 C 0.41115 0.43811 0.77875 0.0
C396 C 0.42701 0.41181 0.79464 0.0
C397 C 0.47807 0.33187 0.8312 0.0
C398 C 0.45949 0.35996 0.82055 0.0
H399 H 0.42775 0.49353 0.72813 0.0
H400 H 0.45457 0.4542 0.75789 0.0
H401 H 0.39016 0.37635 0.78598 0.0
H402 H 0.46705 0.25852 0.86206 0.0
H403 H 0.43743 0.30742 0.85018 0.0
C404 C 0.5541 0.90197 0.25088 0.0
C405 C 0.56037 0.87232 0.23769 0.0
C406 C 0.57547 0.91434 0.27071 0.0
C407 C 0.64438 0.89201 0.31599 0.0
H408 H 0.6708 0.98057 0.30436 0.0
C409 C 0.76791 0.94074 0.34872 0.0
C410 C 0.77072 0.97315 0.3569 0.0
C411 C 0.73837 0.92837 0.34011 0.0
C412 C 0.66332 0.956 0.30836 0.0
H413 H 0.59322 0.83179 0.23588 0.0
H414 H 0.6303 0.85332 0.2701 0.0
H415 H 0.62536 0.9592 0.27854 0.0
H416 H 0.74422 0.01742 0.36418 0.0
H417 H 0.69267 0.99569 0.34947 0.0
H418 H 0.68303 0.88854 0.34517 0.0
C419 C 0.60887 0.867 0.26539 0.0
C420 C 0.63721 0.94374 0.29353 0.0
C421 C 0.58769 0.85477 0.24555 0.0
C422 C 0.74297 0.9924 0.3578 0.0
C423 C 0.71343 0.98001 0.3492 0.0
C424 C 0.67048 0.90427 0.33085 0.0
C425 C 0.60335 0.89716 0.27788 0.0
C426 C 0.62795 0.91137 0.29663 0.0
C427 C 0.71095 0.9481 0.33954 0.0
C428 C 0.68075 0.93619 0.3267 0.0
H429 H 0.53322 0.91604 0.24531 0.0
H430 H 0.57042 0.93754 0.28015 0.0
H431 H 0.63749 0.8671 0.31921 0.0
H432 H 0.78878 0.92525 0.34775 0.0
H433 H 0.73743 0.90377 0.33256 0.0
C434 C 0.04815 0.24829 0.85409 0.0
C435 C 0.01563 0.25165 0.84712 0.0
C436 C 0.06516 0.22059 0.84626 0.0
C437 C 0.055 0.13679 0.81902 0.0
H438 H 0.13855 0.152 0.78571 0.0
C439 C 0.11538 0.04943 0.74066 0.0
C440 C 0.14884 0.04561 0.74184 0.0
C441 C 0.09983 0.0716 0.75811 0.0
C442 C 0.1155 0.14718 0.79536 0.0
H443 H 0.97514 0.22788 0.82755 0.0
H444 H 1.00474 0.18014 0.81361 0.0
H445 H 0.11033 0.19616 0.80851 0.0
H446 H 0.19199 0.0611 0.76319 0.0
H447 H 0.16483 0.09968 0.79361 0.0
H448 H 0.05984 0.08797 0.8049 0.0
C449 C 0.01715 0.19858 0.82539 0.0
C450 C 0.09931 0.17253 0.80851 0.0
C451 C 1.00019 0.22616 0.83324 0.0
C452 C 0.16621 0.06354 0.76161 0.0
C453 C 0.15069 0.08579 0.77896 0.0
C454 C 0.07115 0.11146 0.80573 0.0
C455 C 0.05001 0.19567 0.8313 0.0
C456 C 0.06861 0.16781 0.82011 0.0
C457 C 0.11741 0.09052 0.77705 0.0
C458 C 0.10137 0.1165 0.79337 0.0
H459 H 0.06073 0.26743 0.86487 0.0
H460 H 0.09033 0.21893 0.85153 0.0
H461 H 0.03164 0.13214 0.82815 0.0
H462 H 0.10126 0.03601 0.72567 0.0
H463 H 0.0742 0.07486 0.75594 0.0
C464 C 0.0476 0.41512 0.78875 0.0
C465 C 0.0429 0.38164 0.78676 0.0
C466 C 0.07005 0.43062 0.77158 0.0
C467 C 0.14481 0.41389 0.73379 0.0
H468 H 0.13204 0.49923 0.70282 0.0
C469 C 0.2472 0.48035 0.67633 0.0
C470 C 0.25128 0.51283 0.68391 0.0
C471 C 0.21923 0.46376 0.68388 0.0
C472 C 0.13605 0.47545 0.71144 0.0
H473 H 0.05714 0.33844 0.76428 0.0
H474 H 0.09622 0.36552 0.73438 0.0
H475 H 0.08735 0.47148 0.72555 0.0
H476 H 0.22855 0.5537 0.70428 0.0
H477 H 0.18035 0.5248 0.71776 0.0
H478 H 0.19369 0.41817 0.72069 0.0
C479 C 0.08278 0.37971 0.74942 0.0
C480 C 0.11042 0.45956 0.72443 0.0
C481 C 0.06024 0.36424 0.76647 0.0
C482 C 0.22627 0.52867 0.69814 0.0
C483 C 0.19842 0.51212 0.70571 0.0
C484 C 0.17046 0.42982 0.72095 0.0
C485 C 0.08838 0.41296 0.75213 0.0
C486 C 0.11465 0.4288 0.73613 0.0
C487 C 0.19476 0.47929 0.69917 0.0
C488 C 0.16657 0.46103 0.71002 0.0
H489 H 0.03464 0.42926 0.80414 0.0
H490 H 0.07398 0.45623 0.77435 0.0
H491 H 0.14899 0.39039 0.74293 0.0
H492 H 0.26596 0.46748 0.66527 0.0
H493 H 0.21699 0.43861 0.67813 0.0
C494 C 0.60982 0.55083 0.28096 0.0
C495 C 0.64287 0.54505 0.27798 0.0
C496 C 0.5943 0.57294 0.26361 0.0
C497 C 0.61093 0.64563 0.22258 0.0
H498 H 0.52392 0.63347 0.19641 0.0
C499 C 0.54259 0.74876 0.16828 0.0
C500 C 0.51139 0.75387 0.17862 0.0
C501 C 0.55898 0.72016 0.17441 0.0
C502 C 0.5482 0.63728 0.20362 0.0
H503 H 0.68527 0.55712 0.25368 0.0
H504 H 0.65812 0.59569 0.2234 0.0
H505 H 0.55202 0.58884 0.21877 0.0
H506 H 0.47229 0.73217 0.20204 0.0
H507 H 0.50078 0.68284 0.21291 0.0
H508 H 0.6068 0.69434 0.20848 0.0
C509 C 0.6443 0.5833 0.23934 0.0
C510 C 0.56429 0.6117 0.21642 0.0
C511 C 0.6598 0.56106 0.25661 0.0
C512 C 0.49634 0.7291 0.19382 0.0
C513 C 0.51265 0.70061 0.19991 0.0
C514 C 0.59481 0.67124 0.20989 0.0
C515 C 0.61148 0.58988 0.24294 0.0
C516 C 0.5956 0.61578 0.22656 0.0
C517 C 0.54447 0.69607 0.1909 0.0
C518 C 0.56298 0.66761 0.2008 0.0
H519 H 0.59604 0.53893 0.2972 0.0
H520 H 0.56907 0.57769 0.26714 0.0
H521 H 0.6349 0.6497 0.23045 0.0
H522 H 0.55484 0.76735 0.15646 0.0
H523 H 0.58331 0.71725 0.1668 0.0
C524 C 0.48279 0.11753 0.77656 0.0
C525 C 0.48541 0.1513 0.77723 0.0
C526 C 0.46049 0.10254 0.7591 0.0
C527 C 0.38302 0.11887 0.72622 0.0
H528 H 0.39756 0.03653 0.68994 0.0
C529 C 0.28026 0.05155 0.67101 0.0
C530 C 0.27785 0.01859 0.67752 0.0
C531 C 0.308 0.06887 0.67768 0.0
C532 C 0.39309 0.05949 0.70002 0.0
H533 H 0.46781 0.19572 0.7589 0.0
H534 H 0.42905 0.16952 0.72836 0.0
H535 H 0.44236 0.06483 0.71165 0.0
H536 H 0.30329 0.9777 0.69496 0.0
H537 H 0.35122 1.00784 0.70688 0.0
H538 H 0.33365 0.11314 0.71553 0.0
C539 C 0.44394 0.15467 0.74165 0.0
C540 C 0.41876 0.07569 0.71244 0.0
C541 C 0.4663 0.16966 0.75905 0.0
C542 C 0.30428 1.00307 0.68969 0.0
C543 C 0.33194 0.02035 0.69636 0.0
C544 C 0.35735 0.10265 0.71389 0.0
C545 C 0.44027 0.12099 0.74194 0.0
C546 C 0.41391 0.1053 0.72612 0.0
C547 C 0.33393 0.05359 0.69097 0.0
C548 C 0.36194 0.07246 0.7011 0.0
H549 H 0.49717 0.10265 0.79026 0.0
H550 H 0.4581 0.07657 0.76002 0.0
H551 H 0.37834 0.14141 0.73693 0.0
H552 H 0.26038 0.0642 0.66152 0.0
H553 H 0.30893 0.09435 0.67287 0.0
C554 C 0.99624 0.79668 0.17202 0.0
C555 C 0.97496 0.77085 0.16775 0.0
C556 C 0.98489 0.82654 0.18132 0.0
C557 C 0.91313 0.87749 0.18979 0.0
H558 H 0.95489 0.90687 0.25746 0.0
C559 C 0.85359 0.96785 0.26561 0.0
C560 C 0.87293 0.98821 0.28188 0.0
C561 C 0.8674 0.94491 0.24785 0.0
C562 C 0.9433 0.89961 0.23824 0.0
H563 H 0.92486 0.75682 0.16808 0.0
H564 H 0.90504 0.80918 0.18392 0.0
H565 H 0.97647 0.86086 0.23217 0.0
H566 H 0.92195 1.00166 0.29116 0.0
H567 H 0.94612 0.96251 0.25938 0.0
H568 H 0.87994 0.91624 0.19575 0.0
C569 C 0.93051 0.80619 0.18024 0.0
C570 C 0.95567 0.87308 0.22379 0.0
C571 C 0.94189 0.77618 0.17126 0.0
C572 C 0.9064 0.98613 0.27905 0.0
C573 C 0.92024 0.96347 0.26097 0.0
C574 C 0.90097 0.90436 0.20403 0.0
C575 C 0.952 0.83135 0.18617 0.0
C576 C 0.94043 0.86142 0.19969 0.0
C577 C 0.90093 0.94201 0.24561 0.0
C578 C 0.91555 0.91544 0.22877 0.0
H579 H 0.02186 0.79345 0.16948 0.0
H580 H 1.00195 0.84564 0.18546 0.0
H581 H 0.90107 0.86915 0.17111 0.0
H582 H 0.8277 0.96868 0.26741 0.0
H583 H 0.85165 0.9286 0.23677 0.0
loop_
_geom_bond_atom_site_label_1
_geom_bond_atom_site_label_2
_geom_bond_distance
_geom_bond_site_symmetry_2
_ccdc_geom_bond_type
Mg0 O7 2.141 . S
Mg0 O8 2.048 1_455 S
Mg0 O9 2.048 . S
Mg0 O12 2.141 . S
C1 O2 1.313 . S
C1 O8 1.195 . S
O2 C1 1.313 . S
C3 O4 1.245 . S
C3 O12 1.289 . S
O4 C3 1.245 . S
C5 O6 1.245 . S
C5 O7 1.289 . S
O6 C5 1.245 . S
O7 Mg0 2.141 . S
O7 C5 1.289 . S
O8 Mg0 2.048 1_655 S
O8 C1 1.195 . S
O9 Mg0 2.048 . S
O9 C10 1.195 . S
C10 O9 1.195 . S
C10 O11 1.313 1_455 S
O11 C10 1.313 1_655 S
O12 Mg0 2.141 . S
O12 C3 1.289 . S
Mg13 O20 2.141 . S
Mg13 O21 2.048 . S
Mg13 O22 2.048 . S
Mg13 O25 2.141 . S
C14 O15 1.313 . S
C14 O21 1.195 . S
O15 C14 1.313 . S
C16 O17 1.245 . S
C16 O25 1.289 . S
O17 C16 1.245 . S
C18 O19 1.245 . S
C18 O20 1.289 . S
O19 C18 1.245 . S
O20 Mg13 2.141 . S
O20 C18 1.289 . S
O21 Mg13 2.048 . S
O21 C14 1.195 . S
O22 Mg13 2.048 . S
O22 C23 1.195 . S
C23 O22 1.195 . S
C23 O24 1.313 . S
O24 C23 1.313 . S
O25 Mg13 2.141 . S
O25 C16 1.289 . S
Mg26 O33 2.141 . S
Mg26 O34 2.048 . S
Mg26 O35 2.048 . S
Mg26 O38 2.141 . S
C27 O28 1.313 . S
C27 O34 1.195 . S
O28 C27 1.313 . S
C29 O30 1.245 . S
C29 O38 1.289 . S
O30 C29 1.245 . S
C31 O32 1.245 . S
C31 O33 1.289 . S
O32 C31 1.245 . S
O33 Mg26 2.141 . S
O33 C31 1.289 . S
O34 Mg26 2.048 . S
O34 C27 1.195 . S
O35 Mg26 2.048 . S
O35 C36 1.195 . S
C36 O35 1.195 . S
C36 O37 1.313 . S
O37 C36 1.313 . S
O38 Mg26 2.141 . S
O38 C29 1.289 . S
Mg39 O46 2.141 . S
Mg39 O47 2.048 1_565 S
Mg39 O48 2.048 . S
Mg39 O51 2.141 . S
C40 O41 1.313 . S
C40 O47 1.195 . S
O41 C40 1.313 . S
C42 O43 1.245 . S
C42 O51 1.289 . S
O43 C42 1.245 . S
C44 O45 1.245 . S
C44 O46 1.289 . S
O45 C44 1.245 . S
O46 Mg39 2.141 . S
O46 C44 1.289 . S
O47 Mg39 2.048 1_545 S
O47 C40 1.195 . S
O48 Mg39 2.048 . S
O48 C49 1.195 . S
C49 O48 1.195 . S
C49 O50 1.313 1_565 S
O50 C49 1.313 1_545 S
O51 Mg39 2.141 . S
O51 C42 1.289 . S
Mg52 O59 2.141 . S
Mg52 O60 2.048 . S
Mg52 O61 2.048 1_655 S
Mg52 O64 2.141 . S
C53 O54 1.313 1_655 S
C53 O60 1.195 . S
O54 C53 1.313 1_455 S
C55 O56 1.245 . S
C55 O64 1.289 . S
O56 C55 1.245 . S
C57 O58 1.245 . S
C57 O59 1.289 . S
O58 C57 1.245 . S
O59 Mg52 2.141 . S
O59 C57 1.289 . S
O60 Mg52 2.048 . S
O60 C53 1.195 . S
O61 Mg52 2.048 1_455 S
O61 C62 1.195 . S
C62 O61 1.195 . S
C62 O63 1.313 . S
O63 C62 1.313 . S
O64 Mg52 2.141 . S
O64 C55 1.289 . S
Mg65 O72 2.141 . S
Mg65 O73 2.048 . S
Mg65 O74 2.048 . S
Mg65 O77 2.141 . S
C66 O67 1.313 . S
C66 O73 1.195 . S
O67 C66 1.313 . S
C68 O69 1.245 . S
C68 O77 1.289 . S
O69 C68 1.245 . S
C70 O71 1.245 . S
C70 O72 1.289 . S
O71 C70 1.245 . S
O72 Mg65 2.141 . S
O72 C70 1.289 . S
O73 Mg65 2.048 . S
O73 C66 1.195 . S
O74 Mg65 2.048 . S
O74 C75 1.195 . S
C75 O74 1.195 . S
C75 O76 1.313 . S
O76 C75 1.313 . S
O77 Mg65 2.141 . S
O77 C68 1.289 . S
Mg78 O85 2.141 . S
Mg78 O86 2.048 . S
Mg78 O87 2.048 . S
Mg78 O90 2.141 . S
C79 O80 1.313 . S
C79 O86 1.195 . S
O80 C79 1.313 . S
C81 O82 1.245 . S
C81 O90 1.289 . S
O82 C81 1.245 . S
C83 O84 1.245 . S
C83 O85 1.289 . S
O84 C83 1.245 . S
O85 Mg78 2.141 . S
O85 C83 1.289 . S
O86 Mg78 2.048 . S
O86 C79 1.195 . S
O87 Mg78 2.048 . S
O87 C88 1.195 . S
C88 O87 1.195 . S
C88 O89 1.313 . S
O89 C88 1.313 . S
O90 Mg78 2.141 . S
O90 C81 1.289 . S
Mg91 O98 2.141 . S
Mg91 O99 2.048 . S
Mg91 O100 2.048 1_545 S
Mg91 O103 2.141 . S
C92 O93 1.313 1_545 S
C92 O99 1.195 . S
O93 C92 1.313 1_565 S
C94 O95 1.245 . S
C94 O103 1.289 . S
O95 C94 1.245 . S
C96 O97 1.245 . S
C96 O98 1.289 . S
O97 C96 1.245 . S
O98 Mg91 2.141 . S
O98 C96 1.289 . S
O99 Mg91 2.048 . S
O99 C92 1.195 . S
O100 Mg91 2.048 1_565 S
O100 C101 1.195 . S
C101 O100 1.195 . S
C101 O102 1.313 . S
O102 C101 1.313 . S
O103 Mg91 2.141 . S
O103 C94 1.289 . S
C104 C105 1.349 . S
C104 C106 1.327 . S
C104 H129 0.950 . S
C105 C104 1.349 . S
C105 C121 1.349 . S
C106 C104 1.327 . S
C106 C125 1.429 . S
C106 H130 0.950 . S
C107 C124 1.566 1_556 S
C107 C126 1.376 1_455 S
C107 H131 0.948 . S
H108 C112 0.948 . S
C109 C110 1.349 . S
C109 C111 1.327 . S
C109 H132 0.950 . S
C110 C109 1.349 . S
C110 C122 1.349 . S
C111 C109 1.327 . S
C111 C127 1.429 . S
C111 H133 0.950 . S
C112 H108 0.948 . S
C112 C120 1.566 1_554 S
C112 C128 1.376 1_655 S
H113 C121 0.950 . S
H114 C119 0.950 . S
H115 C120 0.949 . S
H116 C122 0.950 . S
H117 C123 0.950 . S
H118 C124 0.949 . S
C119 H114 0.950 . S
C119 C121 1.327 . S
C119 C125 1.429 . S
C120 C112 1.566 1_556 S
C120 H115 0.949 . S
C120 C126 1.368 . S
C121 C105 1.349 . S
C121 H113 0.950 . S
C121 C119 1.327 . S
C122 C110 1.349 . S
C122 H116 0.950 . S
C122 C123 1.327 . S
C123 H117 0.950 . S
C123 C122 1.327 . S
C123 C127 1.429 . S
C124 C107 1.566 1_554 S
C124 H118 0.949 . S
C124 C128 1.368 . S
C125 C106 1.429 . S
C125 C119 1.429 . S
C125 C126 1.523 . S
C126 C107 1.376 1_655 S
C126 C120 1.368 . S
C126 C125 1.523 . S
C127 C111 1.429 . S
C127 C123 1.429 . S
C127 C128 1.523 . S
C128 C112 1.376 1_455 S
C128 C124 1.368 . S
C128 C127 1.523 . S
H129 C104 0.950 . S
H130 C106 0.950 . S
H131 C107 0.948 . S
H132 C109 0.950 . S
H133 C111 0.950 . S
C134 C135 1.349 . S
C134 C136 1.327 . S
C134 H159 0.950 . S
C135 C134 1.349 . S
C135 C151 1.349 . S
C136 C134 1.327 . S
C136 C155 1.429 . S
C136 H160 0.950 . S
C137 C154 1.574 . S
C137 C156 1.368 . S
C137 H161 0.949 . S
H138 C142 0.949 . S
C139 C140 1.349 . S
C139 C141 1.327 . S
C139 H162 0.950 . S
C140 C139 1.349 . S
C140 C152 1.349 . S
C141 C139 1.327 . S
C141 C157 1.429 . S
C141 H163 0.950 . S
C142 H138 0.949 . S
C142 C150 1.574 . S
C142 C158 1.368 . S
H143 C151 0.950 . S
H144 C149 0.950 . S
H145 C150 0.949 . S
H146 C152 0.950 . S
H147 C153 0.950 . S
H148 C154 0.949 . S
C149 H144 0.950 . S
C149 C151 1.327 . S
C149 C155 1.429 . S
C150 C142 1.574 . S
C150 H145 0.949 . S
C150 C156 1.368 . S
C151 C135 1.349 . S
C151 H143 0.950 . S
C151 C149 1.327 . S
C152 C140 1.349 . S
C152 H146 0.950 . S
C152 C153 1.327 . S
C153 H147 0.950 . S
C153 C152 1.327 . S
C153 C157 1.429 . S
C154 C137 1.574 . S
C154 H148 0.949 . S
C154 C158 1.368 . S
C155 C136 1.429 . S
C155 C149 1.429 . S
C155 C156 1.523 . S
C156 C137 1.368 . S
C156 C150 1.368 . S
C156 C155 1.523 . S
C157 C141 1.429 . S
C157 C153 1.429 . S
C157 C158 1.523 . S
C158 C142 1.368 . S
C158 C154 1.368 . S
C158 C157 1.523 . S
H159 C134 0.950 . S
H160 C136 0.950 . S
H161 C137 0.949 . S
H162 C139 0.950 . S
H163 C141 0.950 . S
C164 C165 1.349 . S
C164 C166 1.327 . S
C164 H189 0.950 . S
C165 C164 1.349 . S
C165 C181 1.349 . S
C166 C164 1.327 . S
C166 C185 1.429 . S
C166 H190 0.950 . S
C167 C184 1.574 . S
C167 C186 1.368 1_545 S
C167 H191 0.949 . S
H168 C172 0.949 . S
C169 C170 1.349 . S
C169 C171 1.327 . S
C169 H192 0.950 . S
C170 C169 1.349 . S
C170 C182 1.349 . S
C171 C169 1.327 . S
C171 C187 1.429 . S
C171 H193 0.950 . S
C172 H168 0.949 . S
C172 C180 1.574 . S
C172 C188 1.368 1_565 S
H173 C181 0.950 . S
H174 C179 0.950 . S
H175 C180 0.949 . S
H176 C182 0.950 . S
H177 C183 0.950 . S
H178 C184 0.949 . S
C179 H174 0.950 . S
C179 C181 1.327 . S
C179 C185 1.429 . S
C180 C172 1.574 . S
C180 H175 0.949 . S
C180 C186 1.368 1_556 S
C181 C165 1.349 . S
C181 H173 0.950 . S
C181 C179 1.327 . S
C182 C170 1.349 . S
C182 H176 0.950 . S
C182 C183 1.327 . S
C183 H177 0.950 . S
C183 C182 1.327 . S
C183 C187 1.429 . S
C184 C167 1.574 . S
C184 H178 0.949 . S
C184 C188 1.368 1_554 S
C185 C166 1.429 . S
C185 C179 1.429 . S
C185 C186 1.523 . S
C186 C167 1.368 1_565 S
C186 C180 1.368 1_554 S
C186 C185 1.523 . S
C187 C171 1.429 . S
C187 C183 1.429 . S
C187 C188 1.523 . S
C188 C172 1.368 1_545 S
C188 C184 1.368 1_556 S
C188 C187 1.523 . S
H189 C164 0.950 . S
H190 C166 0.950 . S
H191 C167 0.949 . S
H192 C169 0.950 . S
H193 C171 0.950 . S
C194 C195 1.338 1_565 S
C194 C196 1.330 . S
C194 H219 0.958 . S
C195 C194 1.338 1_545 S
C195 C211 1.349 . S
C196 C194 1.330 . S
C196 C215 1.429 1_565 S
C196 H220 0.950 . S
C197 C214 1.569 1_655 S
C197 C216 1.372 . S
C197 H221 0.949 . S
H198 C202 0.949 . S
C199 C200 1.338 1_545 S
C199 C201 1.330 . S
C199 H222 0.958 . S
C200 C199 1.338 1_565 S
C200 C212 1.349 . S
C201 C199 1.330 . S
C201 C217 1.429 1_545 S
C201 H223 0.950 . S
C202 H198 0.949 . S
C202 C210 1.569 1_455 S
C202 C218 1.372 . S
H203 C211 0.950 . S
H204 C209 0.950 . S
H205 C210 0.949 . S
H206 C212 0.950 . S
H207 C213 0.950 . S
H208 C214 0.949 . S
C209 H204 0.950 . S
C209 C211 1.327 . S
C209 C215 1.429 . S
C210 C202 1.569 1_655 S
C210 H205 0.949 . S
C210 C216 1.368 1_565 S
C211 C195 1.349 . S
C211 H203 0.950 . S
C211 C209 1.327 . S
C212 C200 1.349 . S
C212 H206 0.950 . S
C212 C213 1.327 . S
C213 H207 0.950 . S
C213 C212 1.327 . S
C213 C217 1.429 . S
C214 C197 1.569 1_455 S
C214 H208 0.949 . S
C214 C218 1.368 1_545 S
C215 C196 1.429 1_545 S
C215 C209 1.429 . S
C215 C216 1.523 . S
C216 C197 1.372 . S
C216 C210 1.368 1_545 S
C216 C215 1.523 . S
C217 C201 1.429 1_565 S
C217 C213 1.429 . S
C217 C218 1.523 . S
C218 C202 1.372 . S
C218 C214 1.368 1_565 S
C218 C217 1.523 . S
H219 C194 0.958 . S
H220 C196 0.950 . S
H221 C197 0.949 . S
H222 C199 0.958 . S
H223 C201 0.950 . S
C224 C225 1.349 . S
C224 C226 1.327 . S
C224 H249 0.950 . S
C225 C224 1.349 . S
C225 C241 1.349 . S
C226 C224 1.327 . S
C226 C245 1.429 . S
C226 H250 0.950 . S
C227 C244 1.574 . S
C227 C246 1.368 . S
C227 H251 0.949 . S
H228 C232 0.949 . S
C229 C230 1.349 . S
C229 C231 1.327 . S
C229 H252 0.950 . S
C230 C229 1.349 . S
C230 C242 1.349 . S
C231 C229 1.327 . S
C231 C247 1.429 . S
C231 H253 0.950 . S
C232 H228 0.949 . S
C232 C240 1.574 . S
C232 C248 1.368 . S
H233 C241 0.950 . S
H234 C239 0.950 . S
H235 C240 0.949 . S
H236 C242 0.950 . S
H237 C243 0.950 . S
H238 C244 0.949 . S
C239 H234 0.950 . S
C239 C241 1.327 . S
C239 C245 1.429 . S
C240 C232 1.574 . S
C240 H235 0.949 . S
C240 C246 1.368 . S
C241 C225 1.349 . S
C241 H233 0.950 . S
C241 C239 1.327 . S
C242 C230 1.349 . S
C242 H236 0.950 . S
C242 C243 1.327 . S
C243 H237 0.950 . S
C243 C242 1.327 . S
C243 C247 1.429 . S
C244 C227 1.574 . S
C244 H238 0.949 . S
C244 C248 1.368 . S
C245 C226 1.429 . S
C245 C239 1.429 . S
C245 C246 1.523 . S
C246 C227 1.368 . S
C246 C240 1.368 . S
C246 C245 1.523 . S
C247 C231 1.429 . S
C247 C243 1.429 . S
C247 C248 1.523 . S
C248 C232 1.368 . S
C248 C244 1.368 . S
C248 C247 1.523 . S
H249 C224 0.950 . S
H250 C226 0.950 . S
H251 C227 0.949 . S
H252 C229 0.950 . S
H253 C231 0.950 . S
C254 C255 1.349 . S
C254 C256 1.327 . S
C254 H279 0.950 . S
C255 C254 1.349 . S
C255 C271 1.349 . S
C256 C254 1.327 . S
C256 C275 1.429 . S
C256 H280 0.950 . S
C257 C274 1.574 . S
C257 C276 1.368 . S
C257 H281 0.949 . S
H258 C262 0.949 . S
C259 C260 1.349 . S
C259 C261 1.327 . S
C259 H282 0.950 . S
C260 C259 1.349 . S
C260 C272 1.349 . S
C261 C259 1.327 . S
C261 C277 1.429 . S
C261 H283 0.950 . S
C262 H258 0.949 . S
C262 C270 1.574 . S
C262 C278 1.368 . S
H263 C271 0.950 . S
H264 C269 0.950 . S
H265 C270 0.949 . S
H266 C272 0.950 . S
H267 C273 0.950 . S
H268 C274 0.949 . S
C269 H264 0.950 . S
C269 C271 1.327 . S
C269 C275 1.429 . S
C270 C262 1.574 . S
C270 H265 0.949 . S
C270 C276 1.368 . S
C271 C255 1.349 . S
C271 H263 0.950 . S
C271 C269 1.327 . S
C272 C260 1.349 . S
C272 H266 0.950 . S
C272 C273 1.327 . S
C273 H267 0.950 . S
C273 C272 1.327 . S
C273 C277 1.429 . S
C274 C257 1.574 . S
C274 H268 0.949 . S
C274 C278 1.368 . S
C275 C256 1.429 . S
C275 C269 1.429 . S
C275 C276 1.523 . S
C276 C257 1.368 . S
C276 C270 1.368 . S
C276 C275 1.523 . S
C277 C261 1.429 . S
C277 C273 1.429 . S
C277 C278 1.523 . S
C278 C262 1.368 . S
C278 C274 1.368 . S
C278 C277 1.523 . S
H279 C254 0.950 . S
H280 C256 0.950 . S
H281 C257 0.949 . S
H282 C259 0.950 . S
H283 C261 0.950 . S
C284 C285 1.349 . S
C284 C286 1.327 . S
C284 H309 0.950 . S
C285 C284 1.349 . S
C285 C301 1.349 . S
C286 C284 1.327 . S
C286 C305 1.429 . S
C286 H310 0.950 . S
C287 C304 1.574 . S
C287 C306 1.368 . S
C287 H311 0.949 . S
H288 C292 0.949 . S
C289 C290 1.349 . S
C289 C291 1.327 . S
C289 H312 0.950 . S
C290 C289 1.349 . S
C290 C302 1.349 . S
C291 C289 1.327 . S
C291 C307 1.429 . S
C291 H313 0.950 . S
C292 H288 0.949 . S
C292 C300 1.574 . S
C292 C308 1.368 . S
H293 C301 0.950 . S
H294 C299 0.950 . S
H295 C300 0.949 . S
H296 C302 0.950 . S
H297 C303 0.950 . S
H298 C304 0.949 . S
C299 H294 0.950 . S
C299 C301 1.327 . S
C299 C305 1.429 . S
C300 C292 1.574 . S
C300 H295 0.949 . S
C300 C306 1.368 . S
C301 C285 1.349 . S
C301 H293 0.950 . S
C301 C299 1.327 . S
C302 C290 1.349 . S
C302 H296 0.950 . S
C302 C303 1.327 . S
C303 H297 0.950 . S
C303 C302 1.327 . S
C303 C307 1.429 . S
C304 C287 1.574 . S
C304 H298 0.949 . S
C304 C308 1.368 . S
C305 C286 1.429 . S
C305 C299 1.429 . S
C305 C306 1.523 . S
C306 C287 1.368 . S
C306 C300 1.368 . S
C306 C305 1.523 . S
C307 C291 1.429 . S
C307 C303 1.429 . S
C307 C308 1.523 . S
C308 C292 1.368 . S
C308 C304 1.368 . S
C308 C307 1.523 . S
H309 C284 0.950 . S
H310 C286 0.950 . S
H311 C287 0.949 . S
H312 C289 0.950 . S
H313 C291 0.950 . S
C314 C315 1.349 . S
C314 C316 1.327 . S
C314 H339 0.950 . S
C315 C314 1.349 . S
C315 C331 1.349 . S
C316 C314 1.327 . S
C316 C335 1.429 . S
C316 H340 0.950 . S
C317 C334 1.574 . S
C317 C336 1.368 . S
C317 H341 0.949 . S
H318 C322 0.949 . S
C319 C320 1.349 . S
C319 C321 1.327 . S
C319 H342 0.950 . S
C320 C319 1.349 . S
C320 C332 1.349 . S
C321 C319 1.327 . S
C321 C337 1.429 . S
C321 H343 0.950 . S
C322 H318 0.949 . S
C322 C330 1.574 . S
C322 C338 1.368 . S
H323 C331 0.950 . S
H324 C329 0.950 . S
H325 C330 0.949 . S
H326 C332 0.950 . S
H327 C333 0.950 . S
H328 C334 0.949 . S
C329 H324 0.950 . S
C329 C331 1.327 . S
C329 C335 1.429 . S
C330 C322 1.574 . S
C330 H325 0.949 . S
C330 C336 1.368 . S
C331 C315 1.349 . S
C331 H323 0.950 . S
C331 C329 1.327 . S
C332 C320 1.349 . S
C332 H326 0.950 . S
C332 C333 1.327 . S
C333 H327 0.950 . S
C333 C332 1.327 . S
C333 C337 1.429 . S
C334 C317 1.574 . S
C334 H328 0.949 . S
C334 C338 1.368 . S
C335 C316 1.429 . S
C335 C329 1.429 . S
C335 C336 1.523 . S
C336 C317 1.368 . S
C336 C330 1.368 . S
C336 C335 1.523 . S
C337 C321 1.429 . S
C337 C333 1.429 . S
C337 C338 1.523 . S
C338 C322 1.368 . S
C338 C334 1.368 . S
C338 C337 1.523 . S
H339 C314 0.950 . S
H340 C316 0.950 . S
H341 C317 0.949 . S
H342 C319 0.950 . S
H343 C321 0.950 . S
C344 C345 1.349 . S
C344 C346 1.327 . S
C344 H369 0.950 . S
C345 C344 1.349 . S
C345 C361 1.349 . S
C346 C344 1.327 . S
C346 C365 1.429 . S
C346 H370 0.950 . S
C347 C364 1.574 . S
C347 C366 1.368 . S
C347 H371 0.949 . S
H348 C352 0.949 . S
C349 C350 1.349 . S
C349 C351 1.327 . S
C349 H372 0.950 . S
C350 C349 1.349 . S
C350 C362 1.349 . S
C351 C349 1.327 . S
C351 C367 1.429 . S
C351 H373 0.950 . S
C352 H348 0.949 . S
C352 C360 1.574 . S
C352 C368 1.368 . S
H353 C361 0.950 . S
H354 C359 0.950 . S
H355 C360 0.949 . S
H356 C362 0.950 . S
H357 C363 0.950 . S
H358 C364 0.949 . S
C359 H354 0.950 . S
C359 C361 1.327 . S
C359 C365 1.429 . S
C360 C352 1.574 . S
C360 H355 0.949 . S
C360 C366 1.368 . S
C361 C345 1.349 . S
C361 H353 0.950 . S
C361 C359 1.327 . S
C362 C350 1.349 . S
C362 H356 0.950 . S
C362 C363 1.327 . S
C363 H357 0.950 . S
C363 C362 1.327 . S
C363 C367 1.429 . S
C364 C347 1.574 . S
C364 H358 0.949 . S
C364 C368 1.368 . S
C365 C346 1.429 . S
C365 C359 1.429 . S
C365 C366 1.523 . S
C366 C347 1.368 . S
C366 C360 1.368 . S
C366 C365 1.523 . S
C367 C351 1.429 . S
C367 C363 1.429 . S
C367 C368 1.523 . S
C368 C352 1.368 . S
C368 C364 1.368 . S
C368 C367 1.523 . S
H369 C344 0.950 . S
H370 C346 0.950 . S
H371 C347 0.949 . S
H372 C349 0.950 . S
H373 C351 0.950 . S
C374 C375 1.349 . S
C374 C376 1.327 . S
C374 H399 0.950 . S
C375 C374 1.349 . S
C375 C391 1.349 . S
C376 C374 1.327 . S
C376 C395 1.429 . S
C376 H400 0.950 . S
C377 C394 1.574 . S
C377 C396 1.368 . S
C377 H401 0.949 . S
H378 C382 0.949 . S
C379 C380 1.349 . S
C379 C381 1.327 . S
C379 H402 0.950 . S
C380 C379 1.349 . S
C380 C392 1.349 . S
C381 C379 1.327 . S
C381 C397 1.429 . S
C381 H403 0.950 . S
C382 H378 0.949 . S
C382 C390 1.574 . S
C382 C398 1.368 . S
H383 C391 0.950 . S
H384 C389 0.950 . S
H385 C390 0.949 . S
H386 C392 0.950 . S
H387 C393 0.950 . S
H388 C394 0.949 . S
C389 H384 0.950 . S
C389 C391 1.327 . S
C389 C395 1.429 . S
C390 C382 1.574 . S
C390 H385 0.949 . S
C390 C396 1.368 . S
C391 C375 1.349 . S
C391 H383 0.950 . S
C391 C389 1.327 . S
C392 C380 1.349 . S
C392 H386 0.950 . S
C392 C393 1.327 . S
C393 H387 0.950 . S
C393 C392 1.327 . S
C393 C397 1.429 . S
C394 C377 1.574 . S
C394 H388 0.949 . S
C394 C398 1.368 . S
C395 C376 1.429 . S
C395 C389 1.429 . S
C395 C396 1.523 . S
C396 C377 1.368 . S
C396 C390 1.368 . S
C396 C395 1.523 . S
C397 C381 1.429 . S
C397 C393 1.429 . S
C397 C398 1.523 . S
C398 C382 1.368 . S
C398 C394 1.368 . S
C398 C397 1.523 . S
H399 C374 0.950 . S
H400 C376 0.950 . S
H401 C377 0.949 . S
H402 C379 0.950 . S
H403 C381 0.950 . S
C404 C405 1.349 . S
C404 C406 1.327 . S
C404 H429 0.950 . S
C405 C404 1.349 . S
C405 C421 1.349 . S
C406 C404 1.327 . S
C406 C425 1.429 . S
C406 H430 0.950 . S
C407 C424 1.574 . S
C407 C426 1.368 . S
C407 H431 0.949 . S
H408 C412 0.949 . S
C409 C410 1.314 1_565 S
C409 C411 1.327 . S
C409 H432 0.950 . S
C410 C409 1.314 1_545 S
C410 C422 1.368 . S
C411 C409 1.327 . S
C411 C427 1.429 . S
C411 H433 0.950 . S
C412 H408 0.949 . S
C412 C420 1.574 . S
C412 C428 1.368 . S
H413 C421 0.950 . S
H414 C419 0.950 . S
H415 C420 0.949 . S
H416 C422 0.950 . S
H417 C423 0.950 . S
H418 C424 0.949 . S
C419 H414 0.950 . S
C419 C421 1.327 . S
C419 C425 1.429 . S
C420 C412 1.574 . S
C420 H415 0.949 . S
C420 C426 1.368 . S
C421 C405 1.349 . S
C421 H413 0.950 . S
C421 C419 1.327 . S
C422 C410 1.368 . S
C422 H416 0.950 . S
C422 C423 1.327 . S
C423 H417 0.950 . S
C423 C422 1.327 . S
C423 C427 1.429 1_545 S
C424 C407 1.574 . S
C424 H418 0.949 . S
C424 C428 1.368 . S
C425 C406 1.429 . S
C425 C419 1.429 . S
C425 C426 1.523 . S
C426 C407 1.368 . S
C426 C420 1.368 . S
C426 C425 1.523 . S
C427 C411 1.429 . S
C427 C423 1.429 1_565 S
C427 C428 1.523 . S
C428 C412 1.368 . S
C428 C424 1.368 . S
C428 C427 1.523 . S
H429 C404 0.950 . S
H430 C406 0.950 . S
H431 C407 0.949 . S
H432 C409 0.950 . S
H433 C411 0.950 . S
C434 C435 1.333 1_455 S
C434 C436 1.327 . S
C434 H459 0.950 . S
C435 C434 1.333 1_655 S
C435 C451 1.350 . S
C436 C434 1.327 . S
C436 C455 1.429 . S
C436 H460 0.950 . S
C437 C454 1.574 . S
C437 C456 1.368 . S
C437 H461 0.949 . S
H438 C442 0.949 . S
C439 C440 1.349 . S
C439 C441 1.327 . S
C439 H462 0.950 . S
C440 C439 1.349 . S
C440 C452 1.349 . S
C441 C439 1.327 . S
C441 C457 1.429 . S
C441 H463 0.950 . S
C442 H438 0.949 . S
C442 C450 1.574 . S
C442 C458 1.368 . S
H443 C451 0.950 . S
H444 C449 0.950 . S
H445 C450 0.949 . S
H446 C452 0.950 . S
H447 C453 0.950 . S
H448 C454 0.949 . S
C449 H444 0.950 . S
C449 C451 1.327 1_455 S
C449 C455 1.429 . S
C450 C442 1.574 . S
C450 H445 0.949 . S
C450 C456 1.368 . S
C451 C435 1.350 . S
C451 H443 0.950 . S
C451 C449 1.327 1_655 S
C452 C440 1.349 . S
C452 H446 0.950 . S
C452 C453 1.327 . S
C453 H447 0.950 . S
C453 C452 1.327 . S
C453 C457 1.429 . S
C454 C437 1.574 . S
C454 H448 0.949 . S
C454 C458 1.368 . S
C455 C436 1.429 . S
C455 C449 1.429 . S
C455 C456 1.523 . S
C456 C437 1.368 . S
C456 C450 1.368 . S
C456 C455 1.523 . S
C457 C441 1.429 . S
C457 C453 1.429 . S
C457 C458 1.523 . S
C458 C442 1.368 . S
C458 C454 1.368 . S
C458 C457 1.523 . S
H459 C434 0.950 . S
H460 C436 0.950 . S
H461 C437 0.949 . S
H462 C439 0.950 . S
H463 C441 0.950 . S
C464 C465 1.349 . S
C464 C466 1.327 . S
C464 H489 0.950 . S
C465 C464 1.349 . S
C465 C481 1.349 . S
C466 C464 1.327 . S
C466 C485 1.429 . S
C466 H490 0.950 . S
C467 C484 1.574 . S
C467 C486 1.368 . S
C467 H491 0.949 . S
H468 C472 0.949 . S
C469 C470 1.349 . S
C469 C471 1.327 . S
C469 H492 0.950 . S
C470 C469 1.349 . S
C470 C482 1.349 . S
C471 C469 1.327 . S
C471 C487 1.429 . S
C471 H493 0.950 . S
C472 H468 0.949 . S
C472 C480 1.574 . S
C472 C488 1.368 . S
H473 C481 0.950 . S
H474 C479 0.950 . S
H475 C480 0.949 . S
H476 C482 0.950 . S
H477 C483 0.950 . S
H478 C484 0.949 . S
C479 H474 0.950 . S
C479 C481 1.327 . S
C479 C485 1.429 . S
C480 C472 1.574 . S
C480 H475 0.949 . S
C480 C486 1.368 . S
C481 C465 1.349 . S
C481 H473 0.950 . S
C481 C479 1.327 . S
C482 C470 1.349 . S
C482 H476 0.950 . S
C482 C483 1.327 . S
C483 H477 0.950 . S
C483 C482 1.327 . S
C483 C487 1.429 . S
C484 C467 1.574 . S
C484 H478 0.949 . S
C484 C488 1.368 . S
C485 C466 1.429 . S
C485 C479 1.429 . S
C485 C486 1.523 . S
C486 C467 1.368 . S
C486 C480 1.368 . S
C486 C485 1.523 . S
C487 C471 1.429 . S
C487 C483 1.429 . S
C487 C488 1.523 . S
C488 C472 1.368 . S
C488 C484 1.368 . S
C488 C487 1.523 . S
H489 C464 0.950 . S
H490 C466 0.950 . S
H491 C467 0.949 . S
H492 C469 0.950 . S
H493 C471 0.950 . S
C494 C495 1.349 . S
C494 C496 1.327 . S
C494 H519 0.950 . S
C495 C494 1.349 . S
C495 C511 1.349 . S
C496 C494 1.327 . S
C496 C515 1.429 . S
C496 H520 0.950 . S
C497 C514 1.574 . S
C497 C516 1.368 . S
C497 H521 0.949 . S
H498 C502 0.949 . S
C499 C500 1.349 . S
C499 C501 1.327 . S
C499 H522 0.950 . S
C500 C499 1.349 . S
C500 C512 1.349 . S
C501 C499 1.327 . S
C501 C517 1.429 . S
C501 H523 0.950 . S
C502 H498 0.949 . S
C502 C510 1.574 . S
C502 C518 1.368 . S
H503 C511 0.950 . S
H504 C509 0.950 . S
H505 C510 0.949 . S
H506 C512 0.950 . S
H507 C513 0.950 . S
H508 C514 0.949 . S
C509 H504 0.950 . S
C509 C511 1.327 . S
C509 C515 1.429 . S
C510 C502 1.574 . S
C510 H505 0.949 . S
C510 C516 1.368 . S
C511 C495 1.349 . S
C511 H503 0.950 . S
C511 C509 1.327 . S
C512 C500 1.349 . S
C512 H506 0.950 . S
C512 C513 1.327 . S
C513 H507 0.950 . S
C513 C512 1.327 . S
C513 C517 1.429 . S
C514 C497 1.574 . S
C514 H508 0.949 . S
C514 C518 1.368 . S
C515 C496 1.429 . S
C515 C509 1.429 . S
C515 C516 1.523 . S
C516 C497 1.368 . S
C516 C510 1.368 . S
C516 C515 1.523 . S
C517 C501 1.429 . S
C517 C513 1.429 . S
C517 C518 1.523 . S
C518 C502 1.368 . S
C518 C514 1.368 . S
C518 C517 1.523 . S
H519 C494 0.950 . S
H520 C496 0.950 . S
H521 C497 0.949 . S
H522 C499 0.950 . S
H523 C501 0.950 . S
C524 C525 1.349 . S
C524 C526 1.327 . S
C524 H549 0.950 . S
C525 C524 1.349 . S
C525 C541 1.349 . S
C526 C524 1.327 . S
C526 C545 1.429 . S
C526 H550 0.950 . S
C527 C544 1.574 . S
C527 C546 1.368 . S
C527 H551 0.949 . S
H528 C532 0.949 . S
C529 C530 1.335 1_545 S
C529 C531 1.327 . S
C529 H552 0.950 . S
C530 C529 1.335 1_565 S
C530 C542 1.348 1_565 S
C531 C529 1.327 . S
C531 C547 1.429 . S
C531 H553 0.950 . S
C532 H528 0.949 . S
C532 C540 1.574 . S
C532 C548 1.368 . S
H533 C541 0.950 . S
H534 C539 0.950 . S
H535 C540 0.949 . S
H536 C542 0.948 1_565 S
H537 C543 0.950 . S
H538 C544 0.949 . S
C539 H534 0.950 . S
C539 C541 1.327 . S
C539 C545 1.429 . S
C540 C532 1.574 . S
C540 H535 0.949 . S
C540 C546 1.368 . S
C541 C525 1.349 . S
C541 H533 0.950 . S
C541 C539 1.327 . S
C542 C530 1.348 1_545 S
C542 H536 0.948 1_545 S
C542 C543 1.329 . S
C543 H537 0.950 . S
C543 C542 1.329 . S
C543 C547 1.429 . S
C544 C527 1.574 . S
C544 H538 0.949 . S
C544 C548 1.368 . S
C545 C526 1.429 . S
C545 C539 1.429 . S
C545 C546 1.523 . S
C546 C527 1.368 . S
C546 C540 1.368 . S
C546 C545 1.523 . S
C547 C531 1.429 . S
C547 C543 1.429 . S
C547 C548 1.523 . S
C548 C532 1.368 . S
C548 C544 1.368 . S
C548 C547 1.523 . S
H549 C524 0.950 . S
H550 C526 0.950 . S
H551 C527 0.949 . S
H552 C529 0.950 . S
H553 C531 0.950 . S
C554 C555 1.365 . S
C554 C556 1.327 . S
C554 H579 0.950 . S
C555 C554 1.365 . S
C555 C571 1.318 1_455 S
C556 C554 1.327 . S
C556 C575 1.429 1_455 S
C556 H580 0.950 . S
C557 C574 1.574 . S
C557 C576 1.368 . S
C557 H581 0.949 . S
H558 C562 0.949 . S
C559 C560 1.349 . S
C559 C561 1.327 . S
C559 H582 0.950 . S
C560 C559 1.349 . S
C560 C572 1.349 . S
C561 C559 1.327 . S
C561 C577 1.429 . S
C561 H583 0.950 . S
C562 H558 0.949 . S
C562 C570 1.574 . S
C562 C578 1.368 . S
H563 C571 0.950 . S
H564 C569 0.950 . S
H565 C570 0.949 . S
H566 C572 0.950 . S
H567 C573 0.950 . S
H568 C574 0.949 . S
C569 H564 0.950 . S
C569 C571 1.327 . S
C569 C575 1.429 . S
C570 C562 1.574 . S
C570 H565 0.949 . S
C570 C576 1.368 . S
C571 C555 1.318 1_655 S
C571 H563 0.950 . S
C571 C569 1.327 . S
C572 C560 1.349 . S
C572 H566 0.950 . S
C572 C573 1.327 . S
C573 H567 0.950 . S
C573 C572 1.327 . S
C573 C577 1.429 . S
C574 C557 1.574 . S
C574 H568 0.949 . S
C574 C578 1.368 . S
C575 C556 1.429 1_655 S
C575 C569 1.429 . S
C575 C576 1.523 . S
C576 C557 1.368 . S
C576 C570 1.368 . S
C576 C575 1.523 . S
C577 C561 1.429 . S
C577 C573 1.429 . S
C577 C578 1.523 . S
C578 C562 1.368 . S
C578 C574 1.368 . S
C578 C577 1.523 . S
H579 C554 0.950 . S
H580 C556 0.950 . S
H581 C557 0.949 . S
H582 C559 0.950 . S
H583 C561 0.950 . S
C105 C55 1.840 . S
C110 C5 1.840 . S
C135 C18 1.840 . S
C140 C68 1.840 . S
C165 C31 1.840 . S
C170 C81 1.840 . S
C195 C94 1.840 . S
C200 C44 1.840 . S
C225 C3 2.030 . S
C230 C29 2.030 . S
C255 C16 2.030 . S
C260 C42 2.030 . S
C285 C83 2.030 . S
C290 C57 2.030 . S
C315 C70 2.030 . S
C320 C96 2.030 . S
C345 C66 1.410 . S
C350 C1 1.454 . S
C375 C14 1.454 . S
C380 C79 1.410 . S
C405 C27 1.454 . S
C410 C92 1.419 . S
C435 C53 1.419 . S
C440 C40 1.454 . S
C465 C62 1.454 . S
C470 C23 1.410 . S
C495 C75 1.454 . S
C500 C36 1.410 . S
C525 C88 1.454 . S
C530 C49 1.419 . S
C555 C10 1.419 . S
C560 C101 1.454 . S
