# Generated by pormake.
# Topology unm, (4)-cn, num edge types: 1
# Building blocks:
#     Node 0, Type 0, BuildingBlock: AZAVOO_clean_sbu_0, # of connection points: 4
#     Node 1, Type 0, BuildingBlock: AZAVOO_clean_sbu_0, # of connection points: 4
#     Node 2, Type 0, BuildingBlock: AZAVOO_clean_sbu_0, # of connection points: 4
#     Node 3, Type 0, BuildingBlock: AZAVOO_clean_sbu_0, # of connection points: 4
#     Node 4, Type 0, BuildingBlock: AZAVOO_clean_sbu_0, # of connection points: 4
#     Node 5, Type 0, BuildingBlock: AZAVOO_clean_sbu_0, # of connection points: 4
#     Node 6, Type 0, BuildingBlock: AZAVOO_clean_sbu_0, # of connection points: 4
#     Node 7, Type 0, BuildingBlock: AZAVOO_clean_sbu_0, # of connection points: 4
#     Edge 8, Type (0, 0), BuildingBlock: ZUJKAS_clean_linker_0, # of connection points: 2
#     Edge 9, Type (0, 0), BuildingBlock: ZUJKAS_clean_linker_0, # of connection points: 2
#     Edge 10, Type (0, 0), BuildingBlock: ZUJKAS_clean_linker_0, # of connection points: 2
#     Edge 11, Type (0, 0), BuildingBlock: ZUJKAS_clean_linker_0, # of connection points: 2
#     Edge 12, Type (0, 0), BuildingBlock: ZUJKAS_clean_linker_0, # of connection points: 2
#     Edge 13, Type (0, 0), BuildingBlock: ZUJKAS_clean_linker_0, # of connection points: 2
#     Edge 14, Type (0, 0), BuildingBlock: ZUJKAS_clean_linker_0, # of connection points: 2
#     Edge 15, Type (0, 0), BuildingBlock: ZUJKAS_clean_linker_0, # of connection points: 2
#     Edge 16, Type (0, 0), BuildingBlock: ZUJKAS_clean_linker_0, # of connection points: 2
#     Edge 17, Type (0, 0), BuildingBlock: ZUJKAS_clean_linker_0, # of connection points: 2
#     Edge 18, Type (0, 0), BuildingBlock: ZUJKAS_clean_linker_0, # of connection points: 2
#     Edge 19, Type (0, 0), BuildingBlock: ZUJKAS_clean_linker_0, # of connection points: 2
#     Edge 20, Type (0, 0), BuildingBlock: ZUJKAS_clean_linker_0, # of connection points: 2
#     Edge 21, Type (0, 0), BuildingBlock: ZUJKAS_clean_linker_0, # of connection points: 2
#     Edge 22, Type (0, 0), BuildingBlock: ZUJKAS_clean_linker_0, # of connection points: 2
#     Edge 23, Type (0, 0), BuildingBlock: ZUJKAS_clean_linker_0, # of connection points: 2
# Relax obj value: 0.175
# Max RMSD: 0.157
# Mean RMSD: 0.157
data_MOF--net-unm--node1-AZAVOO_clean_sbu_0--edge1-ZUJKAS_clean_linker_0
_symmetry_space_group_name_H-M    P1
_symmetry_Int_Tables_number       1
_symmetry_cell_setting            triclinic
loop_
_symmetry_equiv_pos_as_xyz
'x, y, z'
_cell_length_a     33.244353
_cell_length_b     33.278555
_cell_length_c     56.446623
_cell_angle_alpha  89.987743
_cell_angle_beta   89.885897
_cell_angle_gamma 89.863139
loop_
_atom_site_label
_atom_site_type_symbol
_atom_site_fract_x
_atom_site_fract_y
_atom_site_fract_z
_atom_type_partial_charge
Mg0 Mg 0.04143 0.21953 0.13453 0.0
O1 O 0.03164 0.28257 0.11893 0.0
O2 O 0.08068 0.29438 0.09281 0.0
Mg3 Mg 0.12005 0.23798 0.09037 0.0
C4 C 0.0493 0.30558 0.10411 0.0
C5 C 0.97372 0.20217 0.16889 0.0
O6 O 0.98294 0.1669 0.15988 0.0
O7 O 0.09418 0.24316 0.1566 0.0
O8 O 0.14123 0.24922 0.12842 0.0
O9 O 0.00545 0.19054 0.10573 0.0
O10 O 0.07095 0.20064 0.10411 0.0
C11 C 0.13024 0.25099 0.15012 0.0
C12 C 0.03889 0.18743 0.09409 0.0
O13 O 0.99457 0.23249 0.16288 0.0
Mg14 Mg 0.30902 0.54342 0.63788 0.0
O15 O 0.24535 0.54055 0.62201 0.0
O16 O 0.23673 0.59334 0.5981 0.0
Mg17 Mg 0.29441 0.63056 0.59893 0.0
C18 C 0.2237 0.56126 0.60783 0.0
C19 C 0.31651 0.46167 0.66156 0.0
O20 O 0.34706 0.46297 0.64678 0.0
O21 O 0.28785 0.59281 0.66356 0.0
O22 O 0.2813 0.64383 0.63796 0.0
O23 O 0.33444 0.51182 0.60607 0.0
O24 O 0.32921 0.57766 0.6095 0.0
C25 C 0.27935 0.62953 0.65895 0.0
C26 C 0.33903 0.54709 0.59684 0.0
O27 O 0.29349 0.49215 0.66313 0.0
Mg28 Mg 0.97554 0.81201 0.13416 0.0
O29 O 0.97361 0.74787 0.11946 0.0
O30 O 0.91558 0.73947 0.10028 0.0
Mg31 Mg 0.88166 0.79961 0.10086 0.0
C32 C 0.94916 0.72592 0.10783 0.0
C33 C 0.06176 0.8157 0.1521 0.0
O34 O 0.05959 0.84489 0.13648 0.0
O35 O 0.9296 0.7942 0.16291 0.0
O36 O 0.87354 0.79343 0.14089 0.0
O37 O 1.00272 0.83542 0.10041 0.0
O38 O 0.93761 0.83228 0.10739 0.0
C39 C 0.89138 0.79108 0.16087 0.0
C40 C 0.96634 0.84114 0.09309 0.0
O41 O 0.03027 0.79534 0.15653 0.0
Mg42 Mg 0.7194 0.46726 0.63063 0.0
O43 O 0.78196 0.4757 0.614 0.0
O44 O 0.79478 0.42311 0.59062 0.0
Mg45 Mg 0.73942 0.38238 0.59092 0.0
C46 C 0.8053 0.45628 0.60009 0.0
C47 C 0.70205 0.54239 0.65935 0.0
O48 O 0.66765 0.53418 0.64901 0.0
O49 O 0.74514 0.41893 0.65541 0.0
O50 O 0.75267 0.3681 0.62979 0.0
O51 O 0.68858 0.49726 0.59996 0.0
O52 O 0.70087 0.43226 0.6024 0.0
C53 C 0.75449 0.38242 0.65077 0.0
C54 C 0.68621 0.46185 0.59059 0.0
O55 O 0.73163 0.51872 0.65614 0.0
Mg56 Mg 0.54112 0.27356 0.33651 0.0
O57 O 0.53119 0.21021 0.35191 0.0
O58 O 0.58151 0.1971 0.37689 0.0
Mg59 Mg 0.62256 0.25198 0.3784 0.0
C60 C 0.54932 0.18669 0.36628 0.0
C61 C 0.46504 0.29017 0.30874 0.0
O62 O 0.46878 0.32108 0.32304 0.0
O63 O 0.59174 0.24922 0.31278 0.0
O64 O 0.64014 0.23986 0.33981 0.0
O65 O 0.50846 0.30299 0.36679 0.0
O66 O 0.57365 0.29093 0.36607 0.0
C67 C 0.62767 0.23916 0.31841 0.0
C68 C 0.54302 0.30517 0.37719 0.0
O69 O 0.49199 0.26298 0.30907 0.0
Mg70 Mg 0.19685 0.045 0.83394 0.0
O71 O 0.25697 0.04089 0.85354 0.0
O72 O 0.26351 0.09366 0.87758 0.0
Mg73 Mg 0.20549 0.13059 0.87448 0.0
C74 C 0.2772 0.06129 0.86848 0.0
C75 C 0.19178 0.96773 0.80475 0.0
O76 O 0.15457 0.9727 0.8121 0.0
O77 O 0.2231 0.09492 0.81042 0.0
O78 O 0.22395 0.14567 0.83645 0.0
O79 O 0.16442 0.01283 0.86319 0.0
O80 O 0.17181 0.07861 0.86117 0.0
C81 C 0.22979 0.13176 0.81561 0.0
C82 C 0.15835 0.0479 0.87247 0.0
O83 O 0.21776 0.99433 0.8098 0.0
Mg84 Mg 0.47364 0.6866 0.32343 0.0
O85 O 0.47342 0.74764 0.34237 0.0
O86 O 0.41716 0.75388 0.36373 0.0
Mg87 Mg 0.38064 0.69638 0.35823 0.0
C88 C 0.45063 0.76776 0.35624 0.0
C89 C 0.56102 0.68667 0.306 0.0
O90 O 0.56005 0.65634 0.32088 0.0
O91 O 0.4284 0.7119 0.29641 0.0
O92 O 0.37367 0.71527 0.31954 0.0
O93 O 0.49981 0.65673 0.35563 0.0
O94 O 0.43482 0.66259 0.3486 0.0
C95 C 0.39113 0.72017 0.29955 0.0
C96 C 0.46313 0.65089 0.36243 0.0
O97 O 0.52875 0.70623 0.30212 0.0
Mg98 Mg 0.78055 0.96823 0.83024 0.0
O99 O 0.71799 0.97703 0.84725 0.0
O100 O 0.70634 0.9247 0.87104 0.0
Mg101 Mg 0.76061 0.88273 0.86956 0.0
C102 C 0.69542 0.95791 0.86172 0.0
C103 C 0.79568 0.04778 0.8061 0.0
O104 O 0.82675 0.0421 0.82006 0.0
O105 O 0.75465 0.92068 0.80512 0.0
O106 O 0.74553 0.87 0.8307 0.0
O107 O 0.81095 0.9977 0.86096 0.0
O108 O 0.79931 0.93264 0.85853 0.0
C109 C 0.74395 0.88462 0.80978 0.0
C110 C 0.8134 0.9624 0.87042 0.0
O111 O 0.76889 0.0206 0.80499 0.0
H112 H 0.97785 0.15146 0.06922 0.0
H113 H 0.98391 0.11319 0.03216 0.0
H114 H 0.11054 0.14072 0.02933 0.0
H115 H 0.10509 0.17767 0.06624 0.0
H116 H 0.0082 0.13589 -0.01216 0.0
H117 H 0.11135 0.01973 0.02175 0.0
H118 H 0.08318 0.05257 0.04116 0.0
H119 H 0.13046 0.06863 0.02868 0.0
C120 C 0.00692 0.14942 0.06061 0.0
C121 C 0.041 0.16762 0.07069 0.0
C122 C 0.01034 0.12742 0.03954 0.0
C123 C 0.04791 0.12317 0.02841 0.0
C124 C 0.08152 0.14252 0.03804 0.0
H125 H 0.13854 0.11831 0.89393 0.0
H126 H 0.10312 0.12807 0.93107 0.0
C127 C 0.0782 0.16421 0.05902 0.0
C128 C 0.05253 0.10021 0.00612 0.0
H129 H 0.11696 0.03445 0.97939 0.0
C130 C 0.03124 0.11294 -0.01394 0.0
C131 C 0.08156 0.06926 0.00389 0.0
C132 C 0.10254 0.05145 0.02512 0.0
C133 C 0.04132 0.09858 0.96345 0.0
C134 C 0.07416 0.07175 0.96093 0.0
C135 C 0.09241 0.05577 0.98124 0.0
C136 C 0.09374 0.0647 0.93771 0.0
C137 C 0.01773 0.11358 0.94242 0.0
C138 C 0.10176 0.02566 0.92947 0.0
C139 C 0.12302 0.01988 0.90827 0.0
C140 C 0.13681 0.0531 0.89519 0.0
C141 C 0.12873 0.09202 0.9036 0.0
C142 C 0.10776 0.09771 0.9247 0.0
H143 H 0.98591 0.11954 0.94739 0.0
H144 H 0.03083 0.14235 0.93619 0.0
H145 H 0.01835 0.09168 0.92758 0.0
H146 H 0.09169 0.99974 0.93945 0.0
H147 H 0.12868 0.98953 0.90219 0.0
H148 H 0.3648 0.61643 0.57671 0.0
H149 H 0.38775 0.62695 0.5362 0.0
H150 H 0.36928 0.50137 0.52086 0.0
H151 H 0.3469 0.49031 0.56186 0.0
H152 H 0.44098 0.53143 0.50203 0.0
H153 H 0.3123 0.63028 0.47971 0.0
H154 H 0.33902 0.64731 0.50538 0.0
H155 H 0.31329 0.59978 0.50613 0.0
C156 C 0.36539 0.59101 0.56473 0.0
C157 C 0.35343 0.55265 0.57233 0.0
C158 C 0.37851 0.59711 0.54158 0.0
C159 C 0.37936 0.56513 0.52544 0.0
C160 C 0.36852 0.52648 0.53307 0.0
H161 H 0.39273 0.61665 0.37548 0.0
H162 H 0.37427 0.59005 0.41421 0.0
C163 C 0.35566 0.52024 0.55641 0.0
C164 C 0.391 0.57266 0.50054 0.0
H165 H 0.36811 0.63166 0.45311 0.0
C166 C 0.42488 0.553 0.49117 0.0
C167 C 0.36952 0.60032 0.48635 0.0
C168 C 0.33127 0.62031 0.49481 0.0
C169 C 0.43863 0.56131 0.46814 0.0
C170 C 0.41839 0.59069 0.45445 0.0
C171 C 0.38388 0.60943 0.46368 0.0
C172 C 0.43184 0.60264 0.43043 0.0
C173 C 0.47433 0.53827 0.45865 0.0
C174 C 0.47058 0.61819 0.42655 0.0
C175 C 0.48142 0.63301 0.40423 0.0
C176 C 0.45334 0.6333 0.38568 0.0
C177 C 0.41487 0.61721 0.38954 0.0
C178 C 0.40431 0.60186 0.41164 0.0
H179 H 0.4783 0.50916 0.46802 0.0
H180 H 0.47118 0.53228 0.43939 0.0
H181 H 0.50201 0.55622 0.46141 0.0
H182 H 0.49199 0.62006 0.44094 0.0
H183 H 0.51123 0.64541 0.40172 0.0
H184 H 0.02002 0.86329 0.05849 0.0
H185 H 0.0045 0.8942 0.02007 0.0
H186 H 0.87772 0.88652 0.03582 0.0
H187 H 0.89281 0.85728 0.07418 0.0
H188 H 0.96252 0.86557 0.98301 0.0
H189 H 0.88738 1.00233 0.0161 0.0
H190 H 0.91716 0.97026 0.03504 0.0
H191 H 0.86515 0.95866 0.02923 0.0
C192 C 0.98887 0.86829 0.05373 0.0
C193 C 0.95764 0.85766 0.06935 0.0
C194 C 0.98008 0.88604 0.03185 0.0
C195 C 0.94 0.89356 0.02538 0.0
C196 C 0.9089 0.88213 0.04075 0.0
H197 H 0.8187 0.89255 0.89554 0.0
H198 H 0.85479 0.8808 0.93229 0.0
C199 C 0.91761 0.86474 0.06257 0.0
C200 C 0.9299 0.9113 0.0021 0.0
H201 H 0.86787 0.98058 0.97658 0.0
C202 C 0.9425 0.89124 0.98154 0.0
C203 C 0.90472 0.94549 0.00013 0.0
C204 C 0.89325 0.97066 0.02133 0.0
C205 C 0.92794 0.90248 0.95921 0.0
C206 C 0.89916 0.93379 0.95759 0.0
C207 C 0.88918 0.95595 0.9779 0.0
C208 C 0.87673 0.94177 0.93545 0.0
C209 C 0.94298 0.88015 0.93767 0.0
C210 C 0.87522 0.98051 0.92566 0.0
C211 C 0.85356 0.98762 0.90485 0.0
C212 C 0.83311 0.95605 0.89354 0.0
C213 C 0.83397 0.91757 0.90375 0.0
C214 C 0.85518 0.91063 0.92462 0.0
H215 H 0.97405 0.86873 0.94047 0.0
H216 H 0.92336 0.8538 0.93441 0.0
H217 H 0.94276 0.89953 0.92166 0.0
H218 H 0.89123 0.00509 0.93393 0.0
H219 H 0.85357 0.01759 0.89737 0.0
H220 H 0.48548 0.34272 0.40438 0.0
H221 H 0.49671 0.38312 0.44022 0.0
H222 H 0.62324 0.35465 0.43728 0.0
H223 H 0.61262 0.31523 0.40167 0.0
H224 H 0.52947 0.36145 0.48404 0.0
H225 H 0.62292 0.47742 0.44113 0.0
H226 H 0.59133 0.44352 0.4245 0.0
H227 H 0.64077 0.42802 0.43389 0.0
C228 C 0.51562 0.34489 0.41151 0.0
C229 C 0.54816 0.32574 0.40017 0.0
C230 C 0.52198 0.36813 0.43186 0.0
C231 C 0.56097 0.37273 0.44094 0.0
C232 C 0.59309 0.35243 0.43013 0.0
H233 H 0.6746 0.39007 0.56875 0.0
H234 H 0.63673 0.37664 0.53295 0.0
C235 C 0.58683 0.32938 0.40992 0.0
C236 C 0.56878 0.39725 0.46226 0.0
H237 H 0.63519 0.46654 0.48325 0.0
C238 C 0.55178 0.38518 0.48384 0.0
C239 C 0.59703 0.42899 0.46192 0.0
C240 C 0.61369 0.44555 0.43905 0.0
C241 C 0.56543 0.40122 0.50533 0.0
C242 C 0.59734 0.4293 0.5051 0.0
C243 C 0.61131 0.44439 0.48342 0.0
C244 C 0.62027 0.43872 0.5268 0.0
C245 C 0.54681 0.3866 0.52813 0.0
C246 C 0.62525 0.47843 0.53464 0.0
C247 C 0.64766 0.4864 0.5551 0.0
C248 C 0.66565 0.45474 0.5678 0.0
C249 C 0.6614 0.41523 0.55942 0.0
C250 C 0.63917 0.40737 0.5391 0.0
H251 H 0.51494 0.37775 0.52542 0.0
H252 H 0.56341 0.35965 0.53439 0.0
H253 H 0.54809 0.40996 0.54216 0.0
H254 H 0.61137 0.5031 0.52513 0.0
H255 H 0.65034 0.51715 0.56116 0.0
H256 H 0.20893 0.26959 0.14214 0.0
H257 H 0.26216 0.27814 0.17111 0.0
H258 H 0.17655 0.26243 0.22784 0.0
H259 H 0.12267 0.25278 0.19877 0.0
H260 H 0.27298 0.33251 0.20625 0.0
H261 H 0.26177 0.17804 0.24313 0.0
H262 H 0.23652 0.19295 0.21625 0.0
H263 H 0.2162 0.20705 0.24459 0.0
C264 C 0.20113 0.26804 0.16076 0.0
C265 C 0.16143 0.26005 0.16809 0.0
C266 C 0.23173 0.27301 0.17732 0.0
C267 C 0.22349 0.2702 0.20161 0.0
C268 C 0.1837 0.26381 0.20914 0.0
H269 H 0.3997 0.3397 0.30789 0.0
H270 H 0.34046 0.33495 0.28268 0.0
C271 C 0.1529 0.25863 0.19251 0.0
C272 C 0.25707 0.2735 0.21874 0.0
H273 H 0.30969 0.22114 0.26055 0.0
C274 C 0.2809 0.30825 0.21822 0.0
C275 C 0.26774 0.24149 0.23401 0.0
C276 C 0.24451 0.2026 0.23447 0.0
C277 C 0.31525 0.31183 0.23244 0.0
C278 C 0.3255 0.28015 0.24805 0.0
C279 C 0.30161 0.24544 0.24865 0.0
C280 C 0.36116 0.28233 0.2637 0.0
C281 C 0.34091 0.34899 0.23007 0.0
C282 C 0.39201 0.25357 0.2619 0.0
C283 C 0.42591 0.25593 0.2765 0.0
C284 C 0.42943 0.28712 0.29316 0.0
C285 C 0.39819 0.31553 0.29508 0.0
C286 C 0.36431 0.313 0.28061 0.0
H287 H 0.33538 0.3648 0.21304 0.0
H288 H 0.3335 0.37011 0.24466 0.0
H289 H 0.3734 0.34144 0.23122 0.0
H290 H 0.39004 0.22952 0.24902 0.0
H291 H 0.44936 0.23351 0.27466 0.0
H292 H 0.23618 0.69827 0.65466 0.0
H293 H 0.22544 0.75015 0.68438 0.0
H294 H 0.28686 0.67776 0.7364 0.0
H295 H 0.29748 0.62483 0.70652 0.0
H296 H 0.21602 0.71945 0.75359 0.0
H297 H 0.32053 0.8207 0.70609 0.0
H298 H 0.28216 0.80085 0.68711 0.0
H299 H 0.31829 0.76737 0.70036 0.0
C300 C 0.24718 0.69308 0.67246 0.0
C301 C 0.26826 0.6577 0.67816 0.0
C302 C 0.24108 0.72285 0.6894 0.0
C303 C 0.25629 0.71821 0.71236 0.0
C304 C 0.27529 0.682 0.71864 0.0
H305 H 0.26784 0.93928 0.79635 0.0
H306 H 0.28678 0.87588 0.77734 0.0
C307 C 0.28122 0.65181 0.70162 0.0
C308 C 0.25335 0.75223 0.72916 0.0
H309 H 0.27539 0.85196 0.7337 0.0
C310 C 0.22946 0.74831 0.74951 0.0
C311 C 0.27168 0.78958 0.72407 0.0
C312 C 0.29996 0.79485 0.70335 0.0
C313 C 0.22146 0.78153 0.76418 0.0
C314 C 0.23706 0.8197 0.75792 0.0
C315 C 0.2629 0.82291 0.73834 0.0
C316 C 0.22554 0.85709 0.77061 0.0
C317 C 0.19622 0.77536 0.78611 0.0
C318 C 0.18488 0.86798 0.7728 0.0
C319 C 0.17399 0.90402 0.78378 0.0
C320 C 0.20358 0.93031 0.79239 0.0
C321 C 0.24433 0.91975 0.78981 0.0
C322 C 0.25519 0.88344 0.77905 0.0
H323 H 0.19884 0.74402 0.79274 0.0
H324 H 0.20511 0.79626 0.8005 0.0
H325 H 0.16414 0.78083 0.78175 0.0
H326 H 0.16149 0.84888 0.76571 0.0
H327 H 0.14234 0.91142 0.78534 0.0
H328 H 0.57395 0.74504 0.27254 0.0
H329 H 0.63791 0.76303 0.25375 0.0
H330 H 0.69902 0.67317 0.29545 0.0
H331 H 0.63532 0.65446 0.31394 0.0
H332 H 0.70952 0.79043 0.27401 0.0
H333 H 0.73267 0.64419 0.22817 0.0
H334 H 0.68512 0.65826 0.24123 0.0
H335 H 0.72564 0.64096 0.25966 0.0
C336 C 0.60097 0.72901 0.27764 0.0
C337 C 0.59946 0.69807 0.29457 0.0
C338 C 0.6375 0.73939 0.26696 0.0
C339 C 0.6731 0.71903 0.27298 0.0
C340 C 0.67179 0.68869 0.29019 0.0
H341 H 0.90815 0.74832 0.20147 0.0
H342 H 0.8604 0.73201 0.23355 0.0
C343 C 0.63532 0.67815 0.30079 0.0
C344 C 0.71147 0.72954 0.26112 0.0
H345 H 0.78316 0.69296 0.22339 0.0
C346 C 0.72581 0.76903 0.2631 0.0
C347 C 0.73289 0.70143 0.24707 0.0
C348 C 0.71825 0.65892 0.24368 0.0
C349 C 0.76033 0.78151 0.25082 0.0
C350 C 0.78075 0.75387 0.23605 0.0
C351 C 0.76756 0.71393 0.23492 0.0
C352 C 0.81159 0.76716 0.21885 0.0
C353 C 0.77416 0.82443 0.25324 0.0
C354 C 0.79988 0.79233 0.20021 0.0
C355 C 0.8266 0.8011 0.18194 0.0
C356 C 0.86576 0.78508 0.18196 0.0
C357 C 0.87821 0.76122 0.20115 0.0
C358 C 0.85103 0.75186 0.21938 0.0
H359 H 0.76337 0.83807 0.27006 0.0
H360 H 0.80749 0.8264 0.25256 0.0
H361 H 0.76181 0.8424 0.23836 0.0
H362 H 0.76943 0.80389 0.19928 0.0
H363 H 0.81624 0.81976 0.16744 0.0
H364 H 0.74788 0.39378 0.699 0.0
H365 H 0.75984 0.34362 0.73015 0.0
H366 H 0.79652 0.25759 0.67717 0.0
H367 H 0.78561 0.30712 0.64629 0.0
H368 H 0.7212 0.27111 0.73474 0.0
H369 H 0.88468 0.24535 0.72573 0.0
H370 H 0.85986 0.28851 0.71296 0.0
H371 H 0.85983 0.24096 0.6977 0.0
C372 C 0.75927 0.36443 0.69407 0.0
C373 C 0.7657 0.3545 0.67013 0.0
C374 C 0.76594 0.33579 0.71186 0.0
C375 C 0.77956 0.29705 0.70599 0.0
C376 C 0.78689 0.28752 0.68219 0.0
H377 H 0.74156 0.06692 0.77114 0.0
H378 H 0.73711 0.13004 0.74893 0.0
C379 C 0.78027 0.31592 0.6645 0.0
C380 C 0.78325 0.2652 0.7242 0.0
H381 H 0.84662 0.19154 0.74359 0.0
C382 C 0.7488 0.2541 0.73702 0.0
C383 C 0.81938 0.24335 0.72737 0.0
C384 C 0.85811 0.25545 0.71538 0.0
C385 C 0.74899 0.22047 0.75205 0.0
C386 C 0.78432 0.19685 0.75383 0.0
C387 C 0.8193 0.20919 0.74191 0.0
C388 C 0.78581 0.15905 0.76774 0.0
C389 C 0.71135 0.2106 0.76582 0.0
C390 C 0.8153 0.15395 0.78521 0.0
C391 C 0.81836 0.11777 0.79756 0.0
C392 C 0.7919 0.08588 0.79277 0.0
C393 C 0.76222 0.09101 0.77533 0.0
C394 C 0.75943 0.12719 0.76278 0.0
H395 H 0.69221 0.23767 0.76842 0.0
H396 H 0.69349 0.18824 0.75578 0.0
H397 H 0.71864 0.19769 0.78344 0.0
H398 H 0.83609 0.178 0.78926 0.0
H399 H 0.84149 0.1149 0.81094 0.0
H400 H 0.69612 0.19527 0.32336 0.0
H401 H 0.75141 0.18907 0.29515 0.0
H402 H 0.68328 0.25577 0.24339 0.0
H403 H 0.62714 0.26166 0.27157 0.0
H404 H 0.72827 0.19046 0.22423 0.0
H405 H 0.82172 0.28792 0.28154 0.0
H406 H 0.80171 0.24506 0.29682 0.0
H407 H 0.76807 0.28285 0.28549 0.0
C408 C 0.69258 0.20818 0.30586 0.0
C409 C 0.6575 0.22948 0.29979 0.0
C410 C 0.7243 0.20475 0.28981 0.0
C411 C 0.72182 0.22295 0.26748 0.0
C412 C 0.68585 0.2419 0.26068 0.0
H413 H 0.93827 0.27191 0.18427 0.0
H414 H 0.87545 0.27879 0.20666 0.0
C415 C 0.6538 0.2451 0.27674 0.0
C416 C 0.75767 0.22374 0.25189 0.0
H417 H 0.85597 0.25303 0.25059 0.0
C418 C 0.75613 0.20439 0.22985 0.0
C419 C 0.7937 0.24268 0.2591 0.0
C420 C 0.79641 0.26617 0.28192 0.0
C421 C 0.79027 0.2021 0.21521 0.0
C422 C 0.82697 0.21897 0.22309 0.0
C423 C 0.82798 0.23967 0.24471 0.0
C424 C 0.86491 0.2148 0.20946 0.0
C425 C 0.78664 0.1818 0.19141 0.0
C426 C 0.88033 0.17657 0.20416 0.0
C427 C 0.91609 0.17255 0.19136 0.0
C428 C 0.93743 0.20671 0.18386 0.0
C429 C 0.92256 0.24501 0.1898 0.0
C430 C 0.88661 0.24899 0.20251 0.0
H431 H 0.75502 0.18177 0.18507 0.0
H432 H 0.80576 0.19679 0.17791 0.0
H433 H 0.79657 0.15007 0.19303 0.0
H434 H 0.86474 0.14977 0.20997 0.0
H435 H 0.92688 0.14261 0.18725 0.0
H436 H 0.2584 0.44902 0.69532 0.0
H437 H 0.24688 0.38766 0.71836 0.0
H438 H 0.34497 0.32938 0.68181 0.0
H439 H 0.35719 0.39054 0.65909 0.0
H440 H 0.22888 0.30955 0.70316 0.0
H441 H 0.37433 0.3142 0.75144 0.0
H442 H 0.35521 0.35658 0.73496 0.0
H443 H 0.37871 0.31529 0.71973 0.0
C444 C 0.2776 0.42319 0.69226 0.0
C445 C 0.30894 0.4248 0.67554 0.0
C446 C 0.2709 0.38813 0.70536 0.0
C447 C 0.29543 0.35419 0.702 0.0
C448 C 0.32621 0.35548 0.68501 0.0
H449 H 0.23523 0.12014 0.76727 0.0
H450 H 0.25365 0.17039 0.73725 0.0
C451 C 0.33304 0.39049 0.67199 0.0
C452 C 0.28898 0.31756 0.71641 0.0
H453 H 0.33309 0.25773 0.7581 0.0
C454 C 0.25168 0.29802 0.7151 0.0
C455 C 0.31884 0.30275 0.73199 0.0
C456 C 0.35891 0.32341 0.73484 0.0
C457 C 0.24312 0.26445 0.7293 0.0
C458 C 0.27292 0.24978 0.74495 0.0
C459 C 0.3105 0.26881 0.74587 0.0
C460 C 0.26413 0.21802 0.76259 0.0
C461 C 0.20173 0.24602 0.72821 0.0
C462 C 0.26521 0.22784 0.7867 0.0
C463 C 0.25505 0.19941 0.80376 0.0
C464 C 0.24356 0.1603 0.79714 0.0
C465 C 0.24376 0.15001 0.77296 0.0
C466 C 0.254 0.17872 0.75579 0.0
H467 H 0.18018 0.26513 0.71824 0.0
H468 H 0.20364 0.21641 0.71924 0.0
H469 H 0.18966 0.24103 0.74633 0.0
H470 H 0.27309 0.25794 0.79233 0.0
H471 H 0.25562 0.20844 0.82218 0.0
H472 H 0.40425 0.71328 0.25143 0.0
H473 H 0.35793 0.73366 0.21958 0.0
H474 H 0.27559 0.78123 0.27169 0.0
H475 H 0.32114 0.76157 0.30319 0.0
H476 H 0.27799 0.70642 0.21468 0.0
H477 H 0.28143 0.87172 0.22306 0.0
H478 H 0.3202 0.83976 0.23527 0.0
H479 H 0.27396 0.84798 0.25125 0.0
C480 C 0.37659 0.72876 0.25598 0.0
C481 C 0.36628 0.73565 0.27982 0.0
C482 C 0.35018 0.74025 0.23782 0.0
C483 C 0.3136 0.75941 0.2433 0.0
C484 C 0.30397 0.76722 0.26702 0.0
H485 H 0.07705 0.76069 0.18718 0.0
H486 H 0.14177 0.74623 0.20598 0.0
C487 C 0.32998 0.75558 0.28504 0.0
C488 C 0.2834 0.76856 0.22483 0.0
H489 H 0.22066 0.84347 0.20642 0.0
C490 C 0.26596 0.73651 0.21243 0.0
C491 C 0.26808 0.80787 0.22169 0.0
C492 C 0.2872 0.84384 0.23335 0.0
C493 C 0.23185 0.74237 0.19819 0.0
C494 C 0.21441 0.78113 0.19675 0.0
C495 C 0.23355 0.8136 0.20787 0.0
C496 C 0.17553 0.78855 0.18466 0.0
C497 C 0.21453 0.70688 0.18512 0.0
C498 C 0.17276 0.81791 0.16692 0.0
C499 C 0.13577 0.82664 0.15643 0.0
C500 C 0.10071 0.80623 0.16349 0.0
C501 C 0.10351 0.7768 0.18127 0.0
C502 C 0.14056 0.76823 0.19186 0.0
H503 H 0.23784 0.6836 0.18171 0.0
H504 H 0.1906 0.69298 0.19611 0.0
H505 H 0.20116 0.71615 0.16795 0.0
H506 H 0.19927 0.83418 0.16122 0.0
H507 H 0.13473 0.84945 0.14275 0.0
H508 H 0.77091 0.57435 0.67813 0.0
H509 H 0.77744 0.63675 0.70077 0.0
H510 H 0.64954 0.65658 0.69532 0.0
H511 H 0.64284 0.59486 0.6723 0.0
H512 H 0.6932 0.72548 0.68678 0.0
H513 H 0.74379 0.6507 0.76952 0.0
H514 H 0.77446 0.63972 0.74412 0.0
H515 H 0.72304 0.62312 0.74493 0.0
C516 C 0.74416 0.59191 0.68184 0.0
C517 C 0.70631 0.57949 0.67357 0.0
C518 C 0.74794 0.62752 0.6948 0.0
C519 C 0.71389 0.65103 0.69997 0.0
C520 C 0.67619 0.63888 0.69154 0.0
H521 H 0.69261 0.82172 0.81289 0.0
H522 H 0.68267 0.76835 0.78392 0.0
C523 C 0.67241 0.60348 0.67847 0.0
C524 C 0.71724 0.68798 0.71448 0.0
H525 H 0.74415 0.72164 0.76924 0.0
C526 C 0.70434 0.72474 0.70482 0.0
C527 C 0.73136 0.68679 0.73808 0.0
C528 C 0.74361 0.64795 0.74991 0.0
C529 C 0.70515 0.76038 0.71817 0.0
C530 C 0.71986 0.75921 0.74165 0.0
C531 C 0.73297 0.72249 0.7512 0.0
C532 C 0.72084 0.79515 0.75717 0.0
C533 C 0.68928 0.79864 0.70729 0.0
C534 C 0.74444 0.82877 0.75142 0.0
C535 C 0.74972 0.85978 0.76792 0.0
C536 C 0.73208 0.8571 0.79051 0.0
C537 C 0.70682 0.82445 0.79568 0.0
C538 C 0.70116 0.79389 0.77916 0.0
H539 H 0.66994 0.79253 0.69168 0.0
H540 H 0.67167 0.8163 0.72041 0.0
H541 H 0.71497 0.81733 0.70131 0.0
H542 H 0.76043 0.83008 0.73471 0.0
H543 H 0.76964 0.88443 0.76357 0.0
H544 H 0.01944 0.68701 0.11874 0.0
H545 H 0.03433 0.61541 0.11498 0.0
H546 H 0.91645 0.59524 0.08563 0.0
H547 H 0.90145 0.66695 0.08889 0.0
H548 H 0.99509 0.55379 0.13674 0.0
H549 H 0.98811 0.53499 0.03917 0.0
H550 H 0.99104 0.58368 0.05315 0.0
H551 H 0.94387 0.55746 0.05184 0.0
C552 C 0.99678 0.6675 0.11121 0.0
C553 C 0.95923 0.68287 0.10408 0.0
C554 C 0.00536 0.62652 0.10911 0.0
C555 C 0.97669 0.6 0.09979 0.0
C556 C 0.93936 0.61523 0.09241 0.0
H557 H 0.98306 0.34099 0.12449 0.0
H558 H 0.96303 0.41165 0.12247 0.0
C559 C 0.93077 0.65628 0.09441 0.0
C560 C 0.9852 0.55619 0.09908 0.0
H561 H 0.99242 0.47519 0.0621 0.0
C562 C 0.99456 0.53662 0.12041 0.0
C563 C 0.9848 0.53389 0.07774 0.0
C564 C 0.97679 0.55358 0.05413 0.0
C565 C 1.00343 0.49538 0.12103 0.0
C566 C 1.00208 0.47286 0.09978 0.0
C567 C 0.99295 0.49243 0.07841 0.0
C568 C 0.01184 0.42931 0.09932 0.0
C569 C 0.01518 0.47655 0.14435 0.0
C570 C 0.04487 0.41543 0.08614 0.0
C571 C 0.05623 0.37498 0.08706 0.0
C572 C 0.03472 0.34753 0.10119 0.0
C573 C 1.00057 0.36127 0.11359 0.0
C574 C 0.98917 0.40174 0.11257 0.0
H575 H 0.02443 0.4995 0.15754 0.0
H576 H 0.98902 0.46007 0.15174 0.0
H577 H 0.04028 0.45485 0.14196 0.0
H578 H 0.06265 0.43616 0.07568 0.0
H579 H 0.08257 0.36553 0.07719 0.0
H580 H 0.83883 0.52656 0.6159 0.0
H581 H 0.90935 0.54679 0.6135 0.0
H582 H 0.93731 0.43862 0.57471 0.0
H583 H 0.86687 0.41852 0.57656 0.0
H584 H 0.97209 0.50679 0.6326 0.0
H585 H 0.99601 0.52217 0.53589 0.0
H586 H 0.9465 0.51925 0.54896 0.0
H587 H 0.97552 0.47429 0.54406 0.0
C588 C 0.8598 0.50736 0.60649 0.0
C589 C 0.84705 0.47087 0.59643 0.0
C590 C 0.90015 0.51897 0.60517 0.0
C591 C 0.92859 0.49444 0.59372 0.0
C592 C 0.91583 0.45849 0.58318 0.0
H593 H 0.18508 0.49354 0.62368 0.0
H594 H 0.11394 0.47668 0.61932 0.0
C595 C 0.87546 0.44694 0.58438 0.0
C596 C 0.97199 0.50486 0.59447 0.0
H597 H 0.05511 0.51991 0.55991 0.0
C598 C 0.99017 0.50991 0.61669 0.0
C599 C 0.99552 0.50926 0.5737 0.0
C600 C 0.97734 0.50636 0.5493 0.0
C601 C 0.0313 0.51861 0.61877 0.0
C602 C 0.05517 0.52143 0.59805 0.0
C603 C 0.03689 0.51714 0.57578 0.0
C604 C 0.09893 0.52996 0.59917 0.0
C605 C 0.04862 0.52539 0.64314 0.0
C606 C 0.11449 0.56461 0.58841 0.0
C607 C 0.15523 0.57416 0.59064 0.0
C608 C 0.18131 0.54918 0.60369 0.0
C609 C 0.16587 0.51367 0.6137 0.0
C610 C 0.12513 0.50408 0.61136 0.0
H611 H 0.02483 0.53282 0.65629 0.0
H612 H 0.06393 0.49754 0.64915 0.0
H613 H 0.07102 0.55008 0.64295 0.0
H614 H 0.09486 0.58488 0.5788 0.0
H615 H 0.16601 0.60167 0.58262 0.0
H616 H 0.58317 0.12635 0.39261 0.0
H617 H 0.56365 0.05576 0.39386 0.0
H618 H 0.46256 0.08119 0.34849 0.0
H619 H 0.48225 0.15193 0.34671 0.0
H620 H 0.49478 0.01559 0.4078 0.0
H621 H 0.52387 0.99512 0.31164 0.0
H622 H 0.53945 0.03943 0.32754 0.0
H623 H 0.48797 0.03386 0.31842 0.0
C624 C 0.55656 0.11714 0.38302 0.0
C625 C 0.53459 0.14487 0.3693 0.0
C626 C 0.54543 0.07669 0.3838 0.0
C627 C 0.51215 0.06306 0.37089 0.0
C628 C 0.48891 0.09092 0.35816 0.0
H629 H 0.40481 0.82466 0.37892 0.0
H630 H 0.42016 0.89583 0.38415 0.0
C631 C 0.5001 0.13142 0.35727 0.0
C632 C 0.50297 0.01945 0.37002 0.0
H633 H 0.49616 0.93979 0.33215 0.0
C634 C 0.49502 0.99897 0.39128 0.0
C635 C 0.50403 0.9977 0.34849 0.0
C636 C 0.51465 0.01748 0.32524 0.0
C637 C 0.48773 0.95736 0.39154 0.0
C638 C 0.48776 0.93585 0.36992 0.0
C639 C 0.49596 0.95634 0.34871 0.0
C640 C 0.47968 0.89202 0.3687 0.0
C641 C 0.48099 0.93672 0.41501 0.0
C642 C 0.50792 0.86615 0.35817 0.0
C643 C 0.49911 0.82547 0.35493 0.0
C644 C 0.46176 0.80978 0.36212 0.0
C645 C 0.43398 0.83557 0.37331 0.0
C646 C 0.44277 0.87632 0.37643 0.0
H647 H 0.49293 0.95474 0.42999 0.0
H648 H 0.44821 0.93273 0.41789 0.0
H649 H 0.49544 0.90661 0.4153 0.0
H650 H 0.53658 0.87762 0.35203 0.0
H651 H 0.52125 0.80656 0.34627 0.0
H652 H 0.31476 0.9911 0.85605 0.0
H653 H 0.38619 0.97494 0.85941 0.0
H654 H 0.40714 0.08829 0.89424 0.0
H655 H 0.33558 0.1044 0.89142 0.0
H656 H 0.44587 0.01722 0.8385 0.0
H657 H 0.47125 0.01185 0.93554 0.0
H658 H 0.4216 0.01059 0.92267 0.0
H659 H 0.44789 0.05748 0.92556 0.0
C660 C 0.33436 0.01232 0.86484 0.0
C661 C 0.31935 0.04911 0.87342 0.0
C662 C 0.37524 1.00304 0.86671 0.0
C663 C 0.40202 0.03027 0.8772 0.0
C664 C 0.38698 0.06645 0.88649 0.0
H665 H 0.65964 0.02707 0.84532 0.0
H666 H 0.58946 0.04779 0.85037 0.0
C667 C 0.346 0.07567 0.88477 0.0
C668 C 0.44596 0.02217 0.87654 0.0
H669 H 0.52962 0.01139 0.91104 0.0
C670 C 0.46416 0.01586 0.85438 0.0
C671 C 0.46975 0.02024 0.89727 0.0
C672 C 0.45163 0.02502 0.92163 0.0
C673 C 0.50541 0.00759 0.85234 0.0
C674 C 0.52941 0.00653 0.87301 0.0
C675 C 0.51125 0.01275 0.8952 0.0
C676 C 0.57293 0.99663 0.87195 0.0
C677 C 0.52265 0.99892 0.8281 0.0
C678 C 0.58737 0.96202 0.8833 0.0
C679 C 0.6275 0.95028 0.88065 0.0
C680 C 0.65411 0.97296 0.86657 0.0
C681 C 0.63997 0.00867 0.8561 0.0
C682 C 0.59979 0.02047 0.85886 0.0
H683 H 0.49881 0.9913 0.8151 0.0
H684 H 0.53863 0.02596 0.82152 0.0
H685 H 0.54452 0.97368 0.82881 0.0
H686 H 0.56723 0.94329 0.89358 0.0
H687 H 0.63728 0.92273 0.88909 0.0
loop_
_geom_bond_atom_site_label_1
_geom_bond_atom_site_label_2
_geom_bond_distance
_geom_bond_site_symmetry_2
_ccdc_geom_bond_type
Mg0 O1 2.028 . S
Mg0 O7 1.986 . S
Mg0 O9 2.114 . S
Mg0 O10 2.251 . S
Mg0 O13 2.010 . S
O1 Mg0 2.028 . S
O1 C4 1.250 . S
O2 Mg3 2.028 . S
O2 C4 1.248 . S
Mg3 O2 2.028 . S
Mg3 O8 2.032 . S
Mg3 O10 2.079 . S
C4 O1 1.250 . S
C4 O2 1.248 . S
C5 O6 1.264 . S
C5 O13 1.249 1_655 S
O6 C5 1.264 . S
O7 Mg0 1.986 . S
O7 C11 1.246 . S
O8 Mg3 2.032 . S
O8 C11 1.259 . S
O9 Mg0 2.114 . S
O9 C12 1.252 . S
O10 Mg0 2.251 . S
O10 Mg3 2.079 . S
O10 C12 1.273 . S
C11 O7 1.246 . S
C11 O8 1.259 . S
C12 O9 1.252 . S
C12 O10 1.273 . S
O13 Mg0 2.010 . S
O13 C5 1.249 1_455 S
Mg14 O15 2.028 . S
Mg14 O21 1.986 . S
Mg14 O23 2.114 . S
Mg14 O24 2.251 . S
Mg14 O27 2.010 . S
O15 Mg14 2.028 . S
O15 C18 1.250 . S
O16 Mg17 2.028 . S
O16 C18 1.248 . S
Mg17 O16 2.028 . S
Mg17 O22 2.032 . S
Mg17 O24 2.079 . S
C18 O15 1.250 . S
C18 O16 1.248 . S
C19 O20 1.264 . S
C19 O27 1.249 . S
O20 C19 1.264 . S
O21 Mg14 1.986 . S
O21 C25 1.246 . S
O22 Mg17 2.032 . S
O22 C25 1.259 . S
O23 Mg14 2.114 . S
O23 C26 1.252 . S
O24 Mg14 2.251 . S
O24 Mg17 2.079 . S
O24 C26 1.273 . S
C25 O21 1.246 . S
C25 O22 1.259 . S
C26 O23 1.252 . S
C26 O24 1.273 . S
O27 Mg14 2.010 . S
O27 C19 1.249 . S
Mg28 O29 2.028 . S
Mg28 O35 1.986 . S
Mg28 O37 2.114 . S
Mg28 O38 2.251 . S
Mg28 O41 2.010 . S
O29 Mg28 2.028 . S
O29 C32 1.250 . S
O30 Mg31 2.028 . S
O30 C32 1.248 . S
Mg31 O30 2.028 . S
Mg31 O36 2.032 . S
Mg31 O38 2.079 . S
C32 O29 1.250 . S
C32 O30 1.248 . S
C33 O34 1.264 . S
C33 O41 1.249 1_455 S
O34 C33 1.264 . S
O35 Mg28 1.986 . S
O35 C39 1.246 . S
O36 Mg31 2.032 . S
O36 C39 1.259 . S
O37 Mg28 2.114 . S
O37 C40 1.252 . S
O38 Mg28 2.251 . S
O38 Mg31 2.079 . S
O38 C40 1.273 . S
C39 O35 1.246 . S
C39 O36 1.259 . S
C40 O37 1.252 . S
C40 O38 1.273 . S
O41 Mg28 2.010 . S
O41 C33 1.249 1_655 S
Mg42 O43 2.028 . S
Mg42 O49 1.986 . S
Mg42 O51 2.114 . S
Mg42 O52 2.251 . S
Mg42 O55 2.010 . S
O43 Mg42 2.028 . S
O43 C46 1.250 . S
O44 Mg45 2.028 . S
O44 C46 1.248 . S
Mg45 O44 2.028 . S
Mg45 O50 2.032 . S
Mg45 O52 2.079 . S
C46 O43 1.250 . S
C46 O44 1.248 . S
C47 O48 1.264 . S
C47 O55 1.249 . S
O48 C47 1.264 . S
O49 Mg42 1.986 . S
O49 C53 1.246 . S
O50 Mg45 2.032 . S
O50 C53 1.259 . S
O51 Mg42 2.114 . S
O51 C54 1.252 . S
O52 Mg42 2.251 . S
O52 Mg45 2.079 . S
O52 C54 1.273 . S
C53 O49 1.246 . S
C53 O50 1.259 . S
C54 O51 1.252 . S
C54 O52 1.273 . S
O55 Mg42 2.010 . S
O55 C47 1.249 . S
Mg56 O57 2.028 . S
Mg56 O63 1.986 . S
Mg56 O65 2.114 . S
Mg56 O66 2.251 . S
Mg56 O69 2.010 . S
O57 Mg56 2.028 . S
O57 C60 1.250 . S
O58 Mg59 2.028 . S
O58 C60 1.248 . S
Mg59 O58 2.028 . S
Mg59 O64 2.032 . S
Mg59 O66 2.079 . S
C60 O57 1.250 . S
C60 O58 1.248 . S
C61 O62 1.264 . S
C61 O69 1.249 . S
O62 C61 1.264 . S
O63 Mg56 1.986 . S
O63 C67 1.246 . S
O64 Mg59 2.032 . S
O64 C67 1.259 . S
O65 Mg56 2.114 . S
O65 C68 1.252 . S
O66 Mg56 2.251 . S
O66 Mg59 2.079 . S
O66 C68 1.273 . S
C67 O63 1.246 . S
C67 O64 1.259 . S
C68 O65 1.252 . S
C68 O66 1.273 . S
O69 Mg56 2.010 . S
O69 C61 1.249 . S
Mg70 O71 2.028 . S
Mg70 O77 1.986 . S
Mg70 O79 2.114 . S
Mg70 O80 2.251 . S
Mg70 O83 2.010 . S
O71 Mg70 2.028 . S
O71 C74 1.250 . S
O72 Mg73 2.028 . S
O72 C74 1.248 . S
Mg73 O72 2.028 . S
Mg73 O78 2.032 . S
Mg73 O80 2.079 . S
C74 O71 1.250 . S
C74 O72 1.248 . S
C75 O76 1.264 . S
C75 O83 1.249 1_565 S
O76 C75 1.264 . S
O77 Mg70 1.986 . S
O77 C81 1.246 . S
O78 Mg73 2.032 . S
O78 C81 1.259 . S
O79 Mg70 2.114 . S
O79 C82 1.252 . S
O80 Mg70 2.251 . S
O80 Mg73 2.079 . S
O80 C82 1.273 . S
C81 O77 1.246 . S
C81 O78 1.259 . S
C82 O79 1.252 . S
C82 O80 1.273 . S
O83 Mg70 2.010 . S
O83 C75 1.249 1_545 S
Mg84 O85 2.028 . S
Mg84 O91 1.986 . S
Mg84 O93 2.114 . S
Mg84 O94 2.251 . S
Mg84 O97 2.010 . S
O85 Mg84 2.028 . S
O85 C88 1.250 . S
O86 Mg87 2.028 . S
O86 C88 1.248 . S
Mg87 O86 2.028 . S
Mg87 O92 2.032 . S
Mg87 O94 2.079 . S
C88 O85 1.250 . S
C88 O86 1.248 . S
C89 O90 1.264 . S
C89 O97 1.249 . S
O90 C89 1.264 . S
O91 Mg84 1.986 . S
O91 C95 1.246 . S
O92 Mg87 2.032 . S
O92 C95 1.259 . S
O93 Mg84 2.114 . S
O93 C96 1.252 . S
O94 Mg84 2.251 . S
O94 Mg87 2.079 . S
O94 C96 1.273 . S
C95 O91 1.246 . S
C95 O92 1.259 . S
C96 O93 1.252 . S
C96 O94 1.273 . S
O97 Mg84 2.010 . S
O97 C89 1.249 . S
Mg98 O99 2.028 . S
Mg98 O105 1.986 . S
Mg98 O107 2.114 . S
Mg98 O108 2.251 . S
Mg98 O111 2.010 . S
O99 Mg98 2.028 . S
O99 C102 1.250 . S
O100 Mg101 2.028 . S
O100 C102 1.248 . S
Mg101 O100 2.028 . S
Mg101 O106 2.032 . S
Mg101 O108 2.079 . S
C102 O99 1.250 . S
C102 O100 1.248 . S
C103 O104 1.264 . S
C103 O111 1.249 1_545 S
O104 C103 1.264 . S
O105 Mg98 1.986 . S
O105 C109 1.246 . S
O106 Mg101 2.032 . S
O106 C109 1.259 . S
O107 Mg98 2.114 . S
O107 C110 1.252 . S
O108 Mg98 2.251 . S
O108 Mg101 2.079 . S
O108 C110 1.273 . S
C109 O105 1.246 . S
C109 O106 1.259 . S
C110 O107 1.252 . S
C110 O108 1.273 . S
O111 Mg98 2.010 . S
O111 C103 1.249 1_565 S
H112 C120 0.929 . S
H113 C122 0.930 . S
H114 C124 0.930 . S
H115 C127 0.929 . S
H116 C130 0.932 . S
H117 C132 0.960 . S
H118 C132 0.960 . S
H119 C132 0.960 . S
C120 H112 0.929 . S
C120 C121 1.377 . S
C120 C122 1.384 . S
C121 C120 1.377 . S
C121 C127 1.390 . S
C122 H113 0.930 . S
C122 C120 1.384 . S
C122 C123 1.372 . S
C123 C122 1.372 . S
C123 C124 1.400 . S
C123 C128 1.490 . S
C124 H114 0.930 . S
C124 C123 1.400 . S
C124 C127 1.386 . S
H125 C141 0.930 . S
H126 C142 0.931 . S
C127 H115 0.929 . S
C127 C121 1.390 . S
C127 C124 1.386 . S
C128 C123 1.490 . S
C128 C130 1.409 . S
C128 C131 1.403 . S
H129 C135 0.930 . S
C130 H116 0.932 . S
C130 C128 1.409 . S
C130 C133 1.388 1_554 S
C131 C128 1.403 . S
C131 C132 1.524 . S
C131 C135 1.400 1_554 S
C132 H117 0.960 . S
C132 H118 0.960 . S
C132 H119 0.960 . S
C132 C131 1.524 . S
C133 C130 1.388 1_556 S
C133 C134 1.392 . S
C133 C137 1.495 . S
C134 C133 1.392 . S
C134 C135 1.385 . S
C134 C136 1.478 . S
C135 H129 0.930 . S
C135 C131 1.400 1_556 S
C135 C134 1.385 . S
C136 C134 1.478 . S
C136 C138 1.381 . S
C136 C142 1.383 . S
C137 C133 1.495 . S
C137 H143 0.959 . S
C137 H144 0.961 . S
C137 H145 0.960 . S
C138 C136 1.381 . S
C138 C139 1.394 . S
C138 H146 0.930 . S
C139 C138 1.394 . S
C139 C140 1.383 . S
C139 H147 0.929 . S
C140 C139 1.383 . S
C140 C141 1.377 . S
C141 H125 0.930 . S
C141 C140 1.377 . S
C141 C142 1.379 . S
C142 H126 0.931 . S
C142 C136 1.383 . S
C142 C141 1.379 . S
H143 C137 0.959 . S
H144 C137 0.961 . S
H145 C137 0.960 . S
H146 C138 0.930 . S
H147 C139 0.929 . S
H148 C156 0.929 . S
H149 C158 0.930 . S
H150 C160 0.930 . S
H151 C163 0.929 . S
H152 C166 0.930 . S
H153 C168 0.960 . S
H154 C168 0.960 . S
H155 C168 0.960 . S
C156 H148 0.929 . S
C156 C157 1.377 . S
C156 C158 1.384 . S
C157 C156 1.377 . S
C157 C163 1.390 . S
C158 H149 0.930 . S
C158 C156 1.384 . S
C158 C159 1.372 . S
C159 C158 1.372 . S
C159 C160 1.400 . S
C159 C164 1.490 . S
C160 H150 0.930 . S
C160 C159 1.400 . S
C160 C163 1.386 . S
H161 C177 0.930 . S
H162 C178 0.931 . S
C163 H151 0.929 . S
C163 C157 1.390 . S
C163 C160 1.386 . S
C164 C159 1.490 . S
C164 C166 1.395 . S
C164 C167 1.403 . S
H165 C171 0.930 . S
C166 H152 0.930 . S
C166 C164 1.395 . S
C166 C169 1.403 . S
C167 C164 1.403 . S
C167 C168 1.524 . S
C167 C171 1.400 . S
C168 H153 0.960 . S
C168 H154 0.960 . S
C168 H155 0.960 . S
C168 C167 1.524 . S
C169 C166 1.403 . S
C169 C170 1.392 . S
C169 C173 1.495 . S
C170 C169 1.392 . S
C170 C171 1.385 . S
C170 C172 1.478 . S
C171 H165 0.930 . S
C171 C167 1.400 . S
C171 C170 1.385 . S
C172 C170 1.478 . S
C172 C174 1.381 . S
C172 C178 1.383 . S
C173 C169 1.495 . S
C173 H179 0.959 . S
C173 H180 0.961 . S
C173 H181 0.960 . S
C174 C172 1.381 . S
C174 C175 1.394 . S
C174 H182 0.930 . S
C175 C174 1.394 . S
C175 C176 1.383 . S
C175 H183 0.929 . S
C176 C175 1.383 . S
C176 C177 1.377 . S
C177 H161 0.930 . S
C177 C176 1.377 . S
C177 C178 1.379 . S
C178 H162 0.931 . S
C178 C172 1.383 . S
C178 C177 1.379 . S
H179 C173 0.959 . S
H180 C173 0.961 . S
H181 C173 0.960 . S
H182 C174 0.930 . S
H183 C175 0.929 . S
H184 C192 0.929 . S
H185 C194 0.930 . S
H186 C196 0.930 . S
H187 C199 0.929 . S
H188 C202 0.930 . S
H189 C204 0.960 . S
H190 C204 0.960 . S
H191 C204 0.960 . S
C192 H184 0.929 . S
C192 C193 1.377 . S
C192 C194 1.384 . S
C193 C192 1.377 . S
C193 C199 1.390 . S
C194 H185 0.930 . S
C194 C192 1.384 . S
C194 C195 1.372 . S
C195 C194 1.372 . S
C195 C196 1.400 . S
C195 C200 1.490 . S
C196 H186 0.930 . S
C196 C195 1.400 . S
C196 C199 1.386 . S
H197 C213 0.930 . S
H198 C214 0.931 . S
C199 H187 0.929 . S
C199 C193 1.390 . S
C199 C196 1.386 . S
C200 C195 1.490 . S
C200 C202 1.395 . S
C200 C203 1.403 . S
H201 C207 0.930 . S
C202 H188 0.930 . S
C202 C200 1.395 . S
C202 C205 1.403 1_554 S
C203 C200 1.403 . S
C203 C204 1.524 . S
C203 C207 1.400 1_554 S
C204 H189 0.960 . S
C204 H190 0.960 . S
C204 H191 0.960 . S
C204 C203 1.524 . S
C205 C202 1.403 1_556 S
C205 C206 1.392 . S
C205 C209 1.495 . S
C206 C205 1.392 . S
C206 C207 1.385 . S
C206 C208 1.478 . S
C207 H201 0.930 . S
C207 C203 1.400 1_556 S
C207 C206 1.385 . S
C208 C206 1.478 . S
C208 C210 1.381 . S
C208 C214 1.383 . S
C209 C205 1.495 . S
C209 H215 0.959 . S
C209 H216 0.961 . S
C209 H217 0.960 . S
C210 C208 1.381 . S
C210 C211 1.394 . S
C210 H218 0.930 . S
C211 C210 1.394 . S
C211 C212 1.383 . S
C211 H219 0.929 . S
C212 C211 1.383 . S
C212 C213 1.377 . S
C213 H197 0.930 . S
C213 C212 1.377 . S
C213 C214 1.379 . S
C214 H198 0.931 . S
C214 C208 1.383 . S
C214 C213 1.379 . S
H215 C209 0.959 . S
H216 C209 0.961 . S
H217 C209 0.960 . S
H218 C210 0.930 . S
H219 C211 0.929 . S
H220 C228 0.929 . S
H221 C230 0.930 . S
H222 C232 0.930 . S
H223 C235 0.929 . S
H224 C238 0.930 . S
H225 C240 0.960 . S
H226 C240 0.960 . S
H227 C240 0.960 . S
C228 H220 0.929 . S
C228 C229 1.377 . S
C228 C230 1.384 . S
C229 C228 1.377 . S
C229 C235 1.390 . S
C230 H221 0.930 . S
C230 C228 1.384 . S
C230 C231 1.372 . S
C231 C230 1.372 . S
C231 C232 1.400 . S
C231 C236 1.490 . S
C232 H222 0.930 . S
C232 C231 1.400 . S
C232 C235 1.386 . S
H233 C249 0.930 . S
H234 C250 0.931 . S
C235 H223 0.929 . S
C235 C229 1.390 . S
C235 C232 1.386 . S
C236 C231 1.490 . S
C236 C238 1.395 . S
C236 C239 1.403 . S
H237 C243 0.930 . S
C238 H224 0.930 . S
C238 C236 1.395 . S
C238 C241 1.403 . S
C239 C236 1.403 . S
C239 C240 1.524 . S
C239 C243 1.400 . S
C240 H225 0.960 . S
C240 H226 0.960 . S
C240 H227 0.960 . S
C240 C239 1.524 . S
C241 C238 1.403 . S
C241 C242 1.392 . S
C241 C245 1.495 . S
C242 C241 1.392 . S
C242 C243 1.385 . S
C242 C244 1.478 . S
C243 H237 0.930 . S
C243 C239 1.400 . S
C243 C242 1.385 . S
C244 C242 1.478 . S
C244 C246 1.381 . S
C244 C250 1.383 . S
C245 C241 1.495 . S
C245 H251 0.959 . S
C245 H252 0.961 . S
C245 H253 0.960 . S
C246 C244 1.381 . S
C246 C247 1.394 . S
C246 H254 0.930 . S
C247 C246 1.394 . S
C247 C248 1.383 . S
C247 H255 0.929 . S
C248 C247 1.383 . S
C248 C249 1.377 . S
C249 H233 0.930 . S
C249 C248 1.377 . S
C249 C250 1.379 . S
C250 H234 0.931 . S
C250 C244 1.383 . S
C250 C249 1.379 . S
H251 C245 0.959 . S
H252 C245 0.961 . S
H253 C245 0.960 . S
H254 C246 0.930 . S
H255 C247 0.929 . S
H256 C264 0.929 . S
H257 C266 0.930 . S
H258 C268 0.930 . S
H259 C271 0.929 . S
H260 C274 0.930 . S
H261 C276 0.960 . S
H262 C276 0.960 . S
H263 C276 0.960 . S
C264 H256 0.929 . S
C264 C265 1.377 . S
C264 C266 1.384 . S
C265 C264 1.377 . S
C265 C271 1.390 . S
C266 H257 0.930 . S
C266 C264 1.384 . S
C266 C267 1.372 . S
C267 C266 1.372 . S
C267 C268 1.400 . S
C267 C272 1.490 . S
C268 H258 0.930 . S
C268 C267 1.400 . S
C268 C271 1.386 . S
H269 C285 0.930 . S
H270 C286 0.931 . S
C271 H259 0.929 . S
C271 C265 1.390 . S
C271 C268 1.386 . S
C272 C267 1.490 . S
C272 C274 1.395 . S
C272 C275 1.403 . S
H273 C279 0.930 . S
C274 H260 0.930 . S
C274 C272 1.395 . S
C274 C277 1.403 . S
C275 C272 1.403 . S
C275 C276 1.524 . S
C275 C279 1.400 . S
C276 H261 0.960 . S
C276 H262 0.960 . S
C276 H263 0.960 . S
C276 C275 1.524 . S
C277 C274 1.403 . S
C277 C278 1.392 . S
C277 C281 1.495 . S
C278 C277 1.392 . S
C278 C279 1.385 . S
C278 C280 1.478 . S
C279 H273 0.930 . S
C279 C275 1.400 . S
C279 C278 1.385 . S
C280 C278 1.478 . S
C280 C282 1.381 . S
C280 C286 1.383 . S
C281 C277 1.495 . S
C281 H287 0.959 . S
C281 H288 0.961 . S
C281 H289 0.960 . S
C282 C280 1.381 . S
C282 C283 1.394 . S
C282 H290 0.930 . S
C283 C282 1.394 . S
C283 C284 1.383 . S
C283 H291 0.929 . S
C284 C283 1.383 . S
C284 C285 1.377 . S
C285 H269 0.930 . S
C285 C284 1.377 . S
C285 C286 1.379 . S
C286 H270 0.931 . S
C286 C280 1.383 . S
C286 C285 1.379 . S
H287 C281 0.959 . S
H288 C281 0.961 . S
H289 C281 0.960 . S
H290 C282 0.930 . S
H291 C283 0.929 . S
H292 C300 0.929 . S
H293 C302 0.930 . S
H294 C304 0.930 . S
H295 C307 0.929 . S
H296 C310 0.930 . S
H297 C312 0.960 . S
H298 C312 0.960 . S
H299 C312 0.960 . S
C300 H292 0.929 . S
C300 C301 1.377 . S
C300 C302 1.384 . S
C301 C300 1.377 . S
C301 C307 1.390 . S
C302 H293 0.930 . S
C302 C300 1.384 . S
C302 C303 1.372 . S
C303 C302 1.372 . S
C303 C304 1.400 . S
C303 C308 1.490 . S
C304 H294 0.930 . S
C304 C303 1.400 . S
C304 C307 1.386 . S
H305 C321 0.930 . S
H306 C322 0.931 . S
C307 H295 0.929 . S
C307 C301 1.390 . S
C307 C304 1.386 . S
C308 C303 1.490 . S
C308 C310 1.395 . S
C308 C311 1.403 . S
H309 C315 0.930 . S
C310 H296 0.930 . S
C310 C308 1.395 . S
C310 C313 1.403 . S
C311 C308 1.403 . S
C311 C312 1.524 . S
C311 C315 1.400 . S
C312 H297 0.960 . S
C312 H298 0.960 . S
C312 H299 0.960 . S
C312 C311 1.524 . S
C313 C310 1.403 . S
C313 C314 1.392 . S
C313 C317 1.495 . S
C314 C313 1.392 . S
C314 C315 1.385 . S
C314 C316 1.478 . S
C315 H309 0.930 . S
C315 C311 1.400 . S
C315 C314 1.385 . S
C316 C314 1.478 . S
C316 C318 1.381 . S
C316 C322 1.383 . S
C317 C313 1.495 . S
C317 H323 0.959 . S
C317 H324 0.961 . S
C317 H325 0.960 . S
C318 C316 1.381 . S
C318 C319 1.394 . S
C318 H326 0.930 . S
C319 C318 1.394 . S
C319 C320 1.383 . S
C319 H327 0.929 . S
C320 C319 1.383 . S
C320 C321 1.377 . S
C321 H305 0.930 . S
C321 C320 1.377 . S
C321 C322 1.379 . S
C322 H306 0.931 . S
C322 C316 1.383 . S
C322 C321 1.379 . S
H323 C317 0.959 . S
H324 C317 0.961 . S
H325 C317 0.960 . S
H326 C318 0.930 . S
H327 C319 0.929 . S
H328 C336 0.929 . S
H329 C338 0.930 . S
H330 C340 0.930 . S
H331 C343 0.929 . S
H332 C346 0.930 . S
H333 C348 0.960 . S
H334 C348 0.960 . S
H335 C348 0.960 . S
C336 H328 0.929 . S
C336 C337 1.377 . S
C336 C338 1.384 . S
C337 C336 1.377 . S
C337 C343 1.390 . S
C338 H329 0.930 . S
C338 C336 1.384 . S
C338 C339 1.372 . S
C339 C338 1.372 . S
C339 C340 1.400 . S
C339 C344 1.490 . S
C340 H330 0.930 . S
C340 C339 1.400 . S
C340 C343 1.386 . S
H341 C357 0.930 . S
H342 C358 0.931 . S
C343 H331 0.929 . S
C343 C337 1.390 . S
C343 C340 1.386 . S
C344 C339 1.490 . S
C344 C346 1.395 . S
C344 C347 1.403 . S
H345 C351 0.930 . S
C346 H332 0.930 . S
C346 C344 1.395 . S
C346 C349 1.403 . S
C347 C344 1.403 . S
C347 C348 1.524 . S
C347 C351 1.400 . S
C348 H333 0.960 . S
C348 H334 0.960 . S
C348 H335 0.960 . S
C348 C347 1.524 . S
C349 C346 1.403 . S
C349 C350 1.392 . S
C349 C353 1.495 . S
C350 C349 1.392 . S
C350 C351 1.385 . S
C350 C352 1.478 . S
C351 H345 0.930 . S
C351 C347 1.400 . S
C351 C350 1.385 . S
C352 C350 1.478 . S
C352 C354 1.381 . S
C352 C358 1.383 . S
C353 C349 1.495 . S
C353 H359 0.959 . S
C353 H360 0.961 . S
C353 H361 0.960 . S
C354 C352 1.381 . S
C354 C355 1.394 . S
C354 H362 0.930 . S
C355 C354 1.394 . S
C355 C356 1.383 . S
C355 H363 0.929 . S
C356 C355 1.383 . S
C356 C357 1.377 . S
C357 H341 0.930 . S
C357 C356 1.377 . S
C357 C358 1.379 . S
C358 H342 0.931 . S
C358 C352 1.383 . S
C358 C357 1.379 . S
H359 C353 0.959 . S
H360 C353 0.961 . S
H361 C353 0.960 . S
H362 C354 0.930 . S
H363 C355 0.929 . S
H364 C372 0.929 . S
H365 C374 0.930 . S
H366 C376 0.930 . S
H367 C379 0.929 . S
H368 C382 0.930 . S
H369 C384 0.960 . S
H370 C384 0.960 . S
H371 C384 0.960 . S
C372 H364 0.929 . S
C372 C373 1.377 . S
C372 C374 1.384 . S
C373 C372 1.377 . S
C373 C379 1.390 . S
C374 H365 0.930 . S
C374 C372 1.384 . S
C374 C375 1.372 . S
C375 C374 1.372 . S
C375 C376 1.400 . S
C375 C380 1.490 . S
C376 H366 0.930 . S
C376 C375 1.400 . S
C376 C379 1.386 . S
H377 C393 0.930 . S
H378 C394 0.931 . S
C379 H367 0.929 . S
C379 C373 1.390 . S
C379 C376 1.386 . S
C380 C375 1.490 . S
C380 C382 1.395 . S
C380 C383 1.403 . S
H381 C387 0.930 . S
C382 H368 0.930 . S
C382 C380 1.395 . S
C382 C385 1.403 . S
C383 C380 1.403 . S
C383 C384 1.524 . S
C383 C387 1.400 . S
C384 H369 0.960 . S
C384 H370 0.960 . S
C384 H371 0.960 . S
C384 C383 1.524 . S
C385 C382 1.403 . S
C385 C386 1.392 . S
C385 C389 1.495 . S
C386 C385 1.392 . S
C386 C387 1.385 . S
C386 C388 1.478 . S
C387 H381 0.930 . S
C387 C383 1.400 . S
C387 C386 1.385 . S
C388 C386 1.478 . S
C388 C390 1.381 . S
C388 C394 1.383 . S
C389 C385 1.495 . S
C389 H395 0.959 . S
C389 H396 0.961 . S
C389 H397 0.960 . S
C390 C388 1.381 . S
C390 C391 1.394 . S
C390 H398 0.930 . S
C391 C390 1.394 . S
C391 C392 1.383 . S
C391 H399 0.929 . S
C392 C391 1.383 . S
C392 C393 1.377 . S
C393 H377 0.930 . S
C393 C392 1.377 . S
C393 C394 1.379 . S
C394 H378 0.931 . S
C394 C388 1.383 . S
C394 C393 1.379 . S
H395 C389 0.959 . S
H396 C389 0.961 . S
H397 C389 0.960 . S
H398 C390 0.930 . S
H399 C391 0.929 . S
H400 C408 0.929 . S
H401 C410 0.930 . S
H402 C412 0.930 . S
H403 C415 0.929 . S
H404 C418 0.930 . S
H405 C420 0.960 . S
H406 C420 0.960 . S
H407 C420 0.960 . S
C408 H400 0.929 . S
C408 C409 1.377 . S
C408 C410 1.384 . S
C409 C408 1.377 . S
C409 C415 1.390 . S
C410 H401 0.930 . S
C410 C408 1.384 . S
C410 C411 1.372 . S
C411 C410 1.372 . S
C411 C412 1.400 . S
C411 C416 1.490 . S
C412 H402 0.930 . S
C412 C411 1.400 . S
C412 C415 1.386 . S
H413 C429 0.930 . S
H414 C430 0.931 . S
C415 H403 0.929 . S
C415 C409 1.390 . S
C415 C412 1.386 . S
C416 C411 1.490 . S
C416 C418 1.395 . S
C416 C419 1.403 . S
H417 C423 0.930 . S
C418 H404 0.930 . S
C418 C416 1.395 . S
C418 C421 1.403 . S
C419 C416 1.403 . S
C419 C420 1.524 . S
C419 C423 1.400 . S
C420 H405 0.960 . S
C420 H406 0.960 . S
C420 H407 0.960 . S
C420 C419 1.524 . S
C421 C418 1.403 . S
C421 C422 1.392 . S
C421 C425 1.495 . S
C422 C421 1.392 . S
C422 C423 1.385 . S
C422 C424 1.478 . S
C423 H417 0.930 . S
C423 C419 1.400 . S
C423 C422 1.385 . S
C424 C422 1.478 . S
C424 C426 1.381 . S
C424 C430 1.383 . S
C425 C421 1.495 . S
C425 H431 0.959 . S
C425 H432 0.961 . S
C425 H433 0.960 . S
C426 C424 1.381 . S
C426 C427 1.394 . S
C426 H434 0.930 . S
C427 C426 1.394 . S
C427 C428 1.383 . S
C427 H435 0.929 . S
C428 C427 1.383 . S
C428 C429 1.377 . S
C429 H413 0.930 . S
C429 C428 1.377 . S
C429 C430 1.379 . S
C430 H414 0.931 . S
C430 C424 1.383 . S
C430 C429 1.379 . S
H431 C425 0.959 . S
H432 C425 0.961 . S
H433 C425 0.960 . S
H434 C426 0.930 . S
H435 C427 0.929 . S
H436 C444 0.929 . S
H437 C446 0.930 . S
H438 C448 0.930 . S
H439 C451 0.929 . S
H440 C454 0.930 . S
H441 C456 0.960 . S
H442 C456 0.960 . S
H443 C456 0.960 . S
C444 H436 0.929 . S
C444 C445 1.377 . S
C444 C446 1.384 . S
C445 C444 1.377 . S
C445 C451 1.390 . S
C446 H437 0.930 . S
C446 C444 1.384 . S
C446 C447 1.372 . S
C447 C446 1.372 . S
C447 C448 1.400 . S
C447 C452 1.490 . S
C448 H438 0.930 . S
C448 C447 1.400 . S
C448 C451 1.386 . S
H449 C465 0.930 . S
H450 C466 0.931 . S
C451 H439 0.929 . S
C451 C445 1.390 . S
C451 C448 1.386 . S
C452 C447 1.490 . S
C452 C454 1.395 . S
C452 C455 1.403 . S
H453 C459 0.930 . S
C454 H440 0.930 . S
C454 C452 1.395 . S
C454 C457 1.403 . S
C455 C452 1.403 . S
C455 C456 1.524 . S
C455 C459 1.400 . S
C456 H441 0.960 . S
C456 H442 0.960 . S
C456 H443 0.960 . S
C456 C455 1.524 . S
C457 C454 1.403 . S
C457 C458 1.392 . S
C457 C461 1.495 . S
C458 C457 1.392 . S
C458 C459 1.385 . S
C458 C460 1.478 . S
C459 H453 0.930 . S
C459 C455 1.400 . S
C459 C458 1.385 . S
C460 C458 1.478 . S
C460 C462 1.381 . S
C460 C466 1.383 . S
C461 C457 1.495 . S
C461 H467 0.959 . S
C461 H468 0.961 . S
C461 H469 0.960 . S
C462 C460 1.381 . S
C462 C463 1.394 . S
C462 H470 0.930 . S
C463 C462 1.394 . S
C463 C464 1.383 . S
C463 H471 0.929 . S
C464 C463 1.383 . S
C464 C465 1.377 . S
C465 H449 0.930 . S
C465 C464 1.377 . S
C465 C466 1.379 . S
C466 H450 0.931 . S
C466 C460 1.383 . S
C466 C465 1.379 . S
H467 C461 0.959 . S
H468 C461 0.961 . S
H469 C461 0.960 . S
H470 C462 0.930 . S
H471 C463 0.929 . S
H472 C480 0.929 . S
H473 C482 0.930 . S
H474 C484 0.930 . S
H475 C487 0.929 . S
H476 C490 0.930 . S
H477 C492 0.960 . S
H478 C492 0.960 . S
H479 C492 0.960 . S
C480 H472 0.929 . S
C480 C481 1.377 . S
C480 C482 1.384 . S
C481 C480 1.377 . S
C481 C487 1.390 . S
C482 H473 0.930 . S
C482 C480 1.384 . S
C482 C483 1.372 . S
C483 C482 1.372 . S
C483 C484 1.400 . S
C483 C488 1.490 . S
C484 H474 0.930 . S
C484 C483 1.400 . S
C484 C487 1.386 . S
H485 C501 0.930 . S
H486 C502 0.931 . S
C487 H475 0.929 . S
C487 C481 1.390 . S
C487 C484 1.386 . S
C488 C483 1.490 . S
C488 C490 1.395 . S
C488 C491 1.403 . S
H489 C495 0.930 . S
C490 H476 0.930 . S
C490 C488 1.395 . S
C490 C493 1.403 . S
C491 C488 1.403 . S
C491 C492 1.524 . S
C491 C495 1.400 . S
C492 H477 0.960 . S
C492 H478 0.960 . S
C492 H479 0.960 . S
C492 C491 1.524 . S
C493 C490 1.403 . S
C493 C494 1.392 . S
C493 C497 1.495 . S
C494 C493 1.392 . S
C494 C495 1.385 . S
C494 C496 1.478 . S
C495 H489 0.930 . S
C495 C491 1.400 . S
C495 C494 1.385 . S
C496 C494 1.478 . S
C496 C498 1.381 . S
C496 C502 1.383 . S
C497 C493 1.495 . S
C497 H503 0.959 . S
C497 H504 0.961 . S
C497 H505 0.960 . S
C498 C496 1.381 . S
C498 C499 1.394 . S
C498 H506 0.930 . S
C499 C498 1.394 . S
C499 C500 1.383 . S
C499 H507 0.929 . S
C500 C499 1.383 . S
C500 C501 1.377 . S
C501 H485 0.930 . S
C501 C500 1.377 . S
C501 C502 1.379 . S
C502 H486 0.931 . S
C502 C496 1.383 . S
C502 C501 1.379 . S
H503 C497 0.959 . S
H504 C497 0.961 . S
H505 C497 0.960 . S
H506 C498 0.930 . S
H507 C499 0.929 . S
H508 C516 0.929 . S
H509 C518 0.930 . S
H510 C520 0.930 . S
H511 C523 0.929 . S
H512 C526 0.930 . S
H513 C528 0.960 . S
H514 C528 0.960 . S
H515 C528 0.960 . S
C516 H508 0.929 . S
C516 C517 1.377 . S
C516 C518 1.384 . S
C517 C516 1.377 . S
C517 C523 1.390 . S
C518 H509 0.930 . S
C518 C516 1.384 . S
C518 C519 1.372 . S
C519 C518 1.372 . S
C519 C520 1.400 . S
C519 C524 1.490 . S
C520 H510 0.930 . S
C520 C519 1.400 . S
C520 C523 1.386 . S
H521 C537 0.930 . S
H522 C538 0.931 . S
C523 H511 0.929 . S
C523 C517 1.390 . S
C523 C520 1.386 . S
C524 C519 1.490 . S
C524 C526 1.395 . S
C524 C527 1.403 . S
H525 C531 0.930 . S
C526 H512 0.930 . S
C526 C524 1.395 . S
C526 C529 1.403 . S
C527 C524 1.403 . S
C527 C528 1.524 . S
C527 C531 1.400 . S
C528 H513 0.960 . S
C528 H514 0.960 . S
C528 H515 0.960 . S
C528 C527 1.524 . S
C529 C526 1.403 . S
C529 C530 1.392 . S
C529 C533 1.495 . S
C530 C529 1.392 . S
C530 C531 1.385 . S
C530 C532 1.478 . S
C531 H525 0.930 . S
C531 C527 1.400 . S
C531 C530 1.385 . S
C532 C530 1.478 . S
C532 C534 1.381 . S
C532 C538 1.383 . S
C533 C529 1.495 . S
C533 H539 0.959 . S
C533 H540 0.961 . S
C533 H541 0.960 . S
C534 C532 1.381 . S
C534 C535 1.394 . S
C534 H542 0.930 . S
C535 C534 1.394 . S
C535 C536 1.383 . S
C535 H543 0.929 . S
C536 C535 1.383 . S
C536 C537 1.377 . S
C537 H521 0.930 . S
C537 C536 1.377 . S
C537 C538 1.379 . S
C538 H522 0.931 . S
C538 C532 1.383 . S
C538 C537 1.379 . S
H539 C533 0.959 . S
H540 C533 0.961 . S
H541 C533 0.960 . S
H542 C534 0.930 . S
H543 C535 0.929 . S
H544 C552 0.929 . S
H545 C554 0.930 1_455 S
H546 C556 0.930 . S
H547 C559 0.929 . S
H548 C562 0.930 . S
H549 C564 0.960 . S
H550 C564 0.960 . S
H551 C564 0.960 . S
C552 H544 0.929 . S
C552 C553 1.377 . S
C552 C554 1.384 . S
C553 C552 1.377 . S
C553 C559 1.390 . S
C554 H545 0.930 1_655 S
C554 C552 1.384 . S
C554 C555 1.372 . S
C555 C554 1.372 . S
C555 C556 1.400 . S
C555 C560 1.490 . S
C556 H546 0.930 . S
C556 C555 1.400 . S
C556 C559 1.386 . S
H557 C573 0.930 . S
H558 C574 0.931 . S
C559 H547 0.929 . S
C559 C553 1.390 . S
C559 C556 1.386 . S
C560 C555 1.490 . S
C560 C562 1.395 1_655 S
C560 C563 1.403 . S
H561 C567 0.930 . S
C562 H548 0.930 . S
C562 C560 1.395 1_455 S
C562 C565 1.403 . S
C563 C560 1.403 . S
C563 C564 1.524 . S
C563 C567 1.400 . S
C564 H549 0.960 . S
C564 H550 0.960 . S
C564 H551 0.960 . S
C564 C563 1.524 . S
C565 C562 1.403 . S
C565 C566 1.392 . S
C565 C569 1.495 . S
C566 C565 1.392 . S
C566 C567 1.385 1_455 S
C566 C568 1.478 . S
C567 H561 0.930 . S
C567 C563 1.400 . S
C567 C566 1.385 1_655 S
C568 C566 1.478 . S
C568 C570 1.381 . S
C568 C574 1.383 . S
C569 C565 1.495 . S
C569 H575 0.959 . S
C569 H576 0.961 . S
C569 H577 0.960 . S
C570 C568 1.381 . S
C570 C571 1.394 . S
C570 H578 0.930 . S
C571 C570 1.394 . S
C571 C572 1.383 . S
C571 H579 0.929 . S
C572 C571 1.383 . S
C572 C573 1.377 . S
C573 H557 0.930 . S
C573 C572 1.377 . S
C573 C574 1.379 . S
C574 H558 0.931 . S
C574 C568 1.383 . S
C574 C573 1.379 . S
H575 C569 0.959 . S
H576 C569 0.961 . S
H577 C569 0.960 . S
H578 C570 0.930 . S
H579 C571 0.929 . S
H580 C588 0.929 . S
H581 C590 0.930 . S
H582 C592 0.930 . S
H583 C595 0.929 . S
H584 C598 0.930 . S
H585 C600 0.960 . S
H586 C600 0.960 . S
H587 C600 0.960 . S
C588 H580 0.929 . S
C588 C589 1.377 . S
C588 C590 1.384 . S
C589 C588 1.377 . S
C589 C595 1.390 . S
C590 H581 0.930 . S
C590 C588 1.384 . S
C590 C591 1.372 . S
C591 C590 1.372 . S
C591 C592 1.400 . S
C591 C596 1.490 . S
C592 H582 0.930 . S
C592 C591 1.400 . S
C592 C595 1.386 . S
H593 C609 0.930 . S
H594 C610 0.931 . S
C595 H583 0.929 . S
C595 C589 1.390 . S
C595 C592 1.386 . S
C596 C591 1.490 . S
C596 C598 1.395 . S
C596 C599 1.403 . S
H597 C603 0.930 . S
C598 H584 0.930 . S
C598 C596 1.395 . S
C598 C601 1.403 1_655 S
C599 C596 1.403 . S
C599 C600 1.524 . S
C599 C603 1.400 1_655 S
C600 H585 0.960 . S
C600 H586 0.960 . S
C600 H587 0.960 . S
C600 C599 1.524 . S
C601 C598 1.403 1_455 S
C601 C602 1.392 . S
C601 C605 1.495 . S
C602 C601 1.392 . S
C602 C603 1.385 . S
C602 C604 1.478 . S
C603 H597 0.930 . S
C603 C599 1.400 1_455 S
C603 C602 1.385 . S
C604 C602 1.478 . S
C604 C606 1.381 . S
C604 C610 1.383 . S
C605 C601 1.495 . S
C605 H611 0.959 . S
C605 H612 0.961 . S
C605 H613 0.960 . S
C606 C604 1.381 . S
C606 C607 1.394 . S
C606 H614 0.930 . S
C607 C606 1.394 . S
C607 C608 1.383 . S
C607 H615 0.929 . S
C608 C607 1.383 . S
C608 C609 1.377 . S
C609 H593 0.930 . S
C609 C608 1.377 . S
C609 C610 1.379 . S
C610 H594 0.931 . S
C610 C604 1.383 . S
C610 C609 1.379 . S
H611 C605 0.959 . S
H612 C605 0.961 . S
H613 C605 0.960 . S
H614 C606 0.930 . S
H615 C607 0.929 . S
H616 C624 0.929 . S
H617 C626 0.930 . S
H618 C628 0.930 . S
H619 C631 0.929 . S
H620 C634 0.930 . S
H621 C636 0.960 . S
H622 C636 0.960 . S
H623 C636 0.960 . S
C624 H616 0.929 . S
C624 C625 1.377 . S
C624 C626 1.384 . S
C625 C624 1.377 . S
C625 C631 1.390 . S
C626 H617 0.930 . S
C626 C624 1.384 . S
C626 C627 1.372 . S
C627 C626 1.372 . S
C627 C628 1.400 . S
C627 C632 1.490 . S
C628 H618 0.930 . S
C628 C627 1.400 . S
C628 C631 1.386 . S
H629 C645 0.930 . S
H630 C646 0.931 . S
C631 H619 0.929 . S
C631 C625 1.390 . S
C631 C628 1.386 . S
C632 C627 1.490 . S
C632 C634 1.395 . S
C632 C635 1.403 . S
H633 C639 0.930 . S
C634 H620 0.930 . S
C634 C632 1.395 . S
C634 C637 1.403 1_545 S
C635 C632 1.403 . S
C635 C636 1.524 . S
C635 C639 1.400 1_545 S
C636 H621 0.960 . S
C636 H622 0.960 . S
C636 H623 0.960 . S
C636 C635 1.524 . S
C637 C634 1.403 1_565 S
C637 C638 1.392 . S
C637 C641 1.495 . S
C638 C637 1.392 . S
C638 C639 1.385 . S
C638 C640 1.478 . S
C639 H633 0.930 . S
C639 C635 1.400 1_565 S
C639 C638 1.385 . S
C640 C638 1.478 . S
C640 C642 1.381 . S
C640 C646 1.383 . S
C641 C637 1.495 . S
C641 H647 0.959 . S
C641 H648 0.961 . S
C641 H649 0.960 . S
C642 C640 1.381 . S
C642 C643 1.394 . S
C642 H650 0.930 . S
C643 C642 1.394 . S
C643 C644 1.383 . S
C643 H651 0.929 . S
C644 C643 1.383 . S
C644 C645 1.377 . S
C645 H629 0.930 . S
C645 C644 1.377 . S
C645 C646 1.379 . S
C646 H630 0.931 . S
C646 C640 1.383 . S
C646 C645 1.379 . S
H647 C641 0.959 . S
H648 C641 0.961 . S
H649 C641 0.960 . S
H650 C642 0.930 . S
H651 C643 0.929 . S
H652 C660 0.929 1_565 S
H653 C662 0.916 1_565 S
H654 C664 0.930 . S
H655 C667 0.929 . S
H656 C670 0.930 . S
H657 C672 0.960 . S
H658 C672 0.960 . S
H659 C672 0.960 . S
C660 H652 0.929 1_545 S
C660 C661 1.377 . S
C660 C662 1.389 . S
C661 C660 1.377 . S
C661 C667 1.390 . S
C662 H653 0.916 1_545 S
C662 C660 1.389 . S
C662 C663 1.381 . S
C663 C662 1.381 . S
C663 C664 1.400 . S
C663 C668 1.490 . S
C664 H654 0.930 . S
C664 C663 1.400 . S
C664 C667 1.386 . S
H665 C681 0.930 . S
H666 C682 0.931 1_545 S
C667 H655 0.929 . S
C667 C661 1.390 . S
C667 C664 1.386 . S
C668 C663 1.490 . S
C668 C670 1.395 1_545 S
C668 C671 1.403 . S
H669 C675 0.930 . S
C670 H656 0.930 . S
C670 C668 1.395 1_565 S
C670 C673 1.403 . S
C671 C668 1.403 . S
C671 C672 1.524 . S
C671 C675 1.400 . S
C672 H657 0.960 . S
C672 H658 0.960 . S
C672 H659 0.960 . S
C672 C671 1.524 . S
C673 C670 1.403 . S
C673 C674 1.392 . S
C673 C677 1.495 . S
C674 C673 1.392 . S
C674 C675 1.385 1_565 S
C674 C676 1.478 . S
C675 H669 0.930 . S
C675 C671 1.400 . S
C675 C674 1.385 1_545 S
C676 C674 1.478 . S
C676 C678 1.381 . S
C676 C682 1.383 . S
C677 C673 1.495 . S
C677 H683 0.959 . S
C677 H684 0.961 . S
C677 H685 0.960 . S
C678 C676 1.381 . S
C678 C679 1.394 . S
C678 H686 0.930 . S
C679 C678 1.394 . S
C679 C680 1.383 . S
C679 H687 0.929 . S
C680 C679 1.383 . S
C680 C681 1.377 . S
C681 H665 0.930 . S
C681 C680 1.377 . S
C681 C682 1.379 . S
C682 H666 0.931 1_565 S
C682 C676 1.383 . S
C682 C681 1.379 . S
H683 C677 0.959 . S
H684 C677 0.961 . S
H685 C677 0.960 . S
H686 C678 0.930 . S
H687 C679 0.929 . S
C121 C12 1.357 . S
C140 C82 1.342 . S
C157 C26 1.353 . S
C176 C96 1.362 . S
C193 C40 1.358 . S
C212 C110 1.342 . S
C229 C68 1.354 . S
C248 C54 1.358 . S
C265 C11 1.333 . S
C284 C61 1.236 . S
C301 C25 1.327 . S
C320 C75 1.250 . S
C337 C89 1.273 . S
C356 C39 1.350 . S
C373 C53 1.329 . S
C392 C103 1.311 . S
C409 C67 1.327 . S
C428 C5 1.250 . S
C445 C19 1.276 . S
C464 C81 1.355 . S
C481 C95 1.328 . S
C500 C33 1.308 . S
C517 C47 1.282 . S
C536 C109 1.352 . S
C553 C32 0.625 . S
C572 C4 0.600 . S
C589 C46 0.632 . S
C608 C18 0.627 . S
C625 C60 0.626 . S
C644 C88 0.645 . S
C661 C74 0.627 . S
C680 C102 0.605 . S
