# Generated by pormake.
# Topology umf, (4)-cn, num edge types: 1
# Building blocks:
#     Node 0, Type 0, BuildingBlock: NAWXER_clean_sbu_0, # of connection points: 4
#     Node 1, Type 0, BuildingBlock: NAWXER_clean_sbu_0, # of connection points: 4
#     Node 2, Type 0, BuildingBlock: NAWXER_clean_sbu_0, # of connection points: 4
#     Node 3, Type 0, BuildingBlock: NAWXER_clean_sbu_0, # of connection points: 4
#     Node 4, Type 0, BuildingBlock: NAWXER_clean_sbu_0, # of connection points: 4
#     Node 5, Type 0, BuildingBlock: NAWXER_clean_sbu_0, # of connection points: 4
#     Node 6, Type 0, BuildingBlock: NAWXER_clean_sbu_0, # of connection points: 4
#     Node 7, Type 0, BuildingBlock: NAWXER_clean_sbu_0, # of connection points: 4
#     Edge 8, Type (0, 0), BuildingBlock: UVAHIK_clean_linker_0, # of connection points: 2
#     Edge 9, Type (0, 0), BuildingBlock: UVAHIK_clean_linker_0, # of connection points: 2
#     Edge 10, Type (0, 0), BuildingBlock: UVAHIK_clean_linker_0, # of connection points: 2
#     Edge 11, Type (0, 0), BuildingBlock: UVAHIK_clean_linker_0, # of connection points: 2
#     Edge 12, Type (0, 0), BuildingBlock: UVAHIK_clean_linker_0, # of connection points: 2
#     Edge 13, Type (0, 0), BuildingBlock: UVAHIK_clean_linker_0, # of connection points: 2
#     Edge 14, Type (0, 0), BuildingBlock: UVAHIK_clean_linker_0, # of connection points: 2
#     Edge 15, Type (0, 0), BuildingBlock: UVAHIK_clean_linker_0, # of connection points: 2
#     Edge 16, Type (0, 0), BuildingBlock: UVAHIK_clean_linker_0, # of connection points: 2
#     Edge 17, Type (0, 0), BuildingBlock: UVAHIK_clean_linker_0, # of connection points: 2
#     Edge 18, Type (0, 0), BuildingBlock: UVAHIK_clean_linker_0, # of connection points: 2
#     Edge 19, Type (0, 0), BuildingBlock: UVAHIK_clean_linker_0, # of connection points: 2
#     Edge 20, Type (0, 0), BuildingBlock: UVAHIK_clean_linker_0, # of connection points: 2
#     Edge 21, Type (0, 0), BuildingBlock: UVAHIK_clean_linker_0, # of connection points: 2
#     Edge 22, Type (0, 0), BuildingBlock: UVAHIK_clean_linker_0, # of connection points: 2
#     Edge 23, Type (0, 0), BuildingBlock: UVAHIK_clean_linker_0, # of connection points: 2
# Relax obj value: 0.064
# Max RMSD: 0.166
# Mean RMSD: 0.166
data_MOF--net-umf--node1-NAWXER_clean_sbu_0--edge1-UVAHIK_clean_linker_0
_symmetry_space_group_name_H-M    P1
_symmetry_Int_Tables_number       1
_symmetry_cell_setting            triclinic
loop_
_symmetry_equiv_pos_as_xyz
'x, y, z'
_cell_length_a     37.398128
_cell_length_b     37.699519
_cell_length_c     69.942998
_cell_angle_alpha  89.866458
_cell_angle_beta   89.928354
_cell_angle_gamma 90.262325
loop_
_atom_site_label
_atom_site_type_symbol
_atom_site_fract_x
_atom_site_fract_y
_atom_site_fract_z
_atom_type_partial_charge
C0 C 0.09896 0.23049 0.17681 0.0
C1 C 0.05042 0.25633 0.11341 0.0
O2 O 0.06469 0.23222 0.17669 0.0
Zn3 Zn 0.02274 0.24255 0.1563 0.0
O4 O 0.11624 0.23632 0.16144 0.0
Zn5 Zn 0.07533 0.24476 0.14524 0.0
O6 O 0.05499 0.29413 0.15595 0.0
O7 O -5e-05 0.28393 0.16608 0.0
O8 O 0.08306 0.25407 0.11827 0.0
O9 O 0.02603 0.25272 0.12617 0.0
O10 O -0.00428 0.19944 0.15697 0.0
O11 O 0.05009 0.19328 0.14506 0.0
C12 C 0.02583 0.30527 0.16348 0.0
C13 C 0.01982 0.1798 0.14989 0.0
C14 C 0.75911 0.04787 0.68475 0.0
C15 C 0.73118 -0.00143 0.62155 0.0
O16 O 0.75709 0.01504 0.68064 0.0
Zn17 Zn 0.7433 0.0211 0.65387 0.0
O18 O 0.75162 0.07117 0.67204 0.0
Zn19 Zn 0.73547 0.07417 0.64291 0.0
O20 O 0.68782 0.09449 0.64402 0.0
O21 O 0.69044 0.04061 0.65636 0.0
O22 O 0.72954 0.03247 0.62252 0.0
O23 O 0.73799 0.98072 0.63658 0.0
O24 O 0.78926 0.04664 0.64188 0.0
O25 O 0.77545 0.10094 0.63227 0.0
C26 C 0.67248 0.06842 0.65224 0.0
C27 C 0.7983 0.07629 0.63426 0.0
C28 C 0.97256 0.6773 0.16246 0.0
C29 C 0.97106 0.80288 0.14917 0.0
O30 O 0.9426 0.68666 0.15509 0.0
Zn31 Zn 0.919 0.73525 0.1447 0.0
O32 O -0.00302 0.70026 0.16501 0.0
Zn33 Zn 0.97152 0.73998 0.15539 0.0
O34 O 0.92968 0.74719 0.1762 0.0
O35 O 0.87799 0.74098 0.16141 0.0
O36 O -0.00382 0.78418 0.15596 0.0
O37 O 0.94129 0.78818 0.14453 0.0
O38 O 0.91138 0.72592 0.11765 0.0
O39 O 0.96835 0.7296 0.12534 0.0
C40 C 0.89538 0.74701 0.17668 0.0
C41 C 0.94407 0.72495 0.11267 0.0
C42 C 0.29515 0.00678 0.66633 0.0
C43 C 0.16742 0.01265 0.65607 0.0
O44 O 0.28337 0.97801 0.65877 0.0
Zn45 Zn 0.23164 0.95658 0.65101 0.0
O46 O 0.27321 0.03053 0.67138 0.0
Zn47 Zn 0.23064 0.00737 0.66268 0.0
O48 O 0.2217 0.96534 0.68333 0.0
O49 O 0.22513 0.91564 0.66705 0.0
O50 O 0.1879 0.03479 0.66427 0.0
O51 O 0.17997 0.98263 0.65064 0.0
O52 O 0.23858 0.94746 0.6244 0.0
O53 O 0.23902 0.0044 0.63171 0.0
C54 C 0.22043 0.93131 0.68286 0.0
C55 C 0.24137 0.97964 0.61915 0.0
C56 C 0.01766 0.79544 0.87868 0.0
C57 C 0.02176 0.66971 0.86493 0.0
O58 O 0.04801 0.78189 0.88301 0.0
Zn59 Zn 0.07287 0.73038 0.88221 0.0
O60 O 0.99304 0.77592 0.87185 0.0
Zn61 Zn 0.01993 0.73288 0.87176 0.0
O62 O 0.02439 0.72244 0.90192 0.0
O63 O 0.08174 0.72155 0.90913 0.0
O64 O -0.00322 0.6916 0.86177 0.0
O65 O 0.05111 0.68061 0.87244 0.0
O66 O 0.11301 0.73951 0.86519 0.0
O67 O 0.06072 0.74479 0.851 0.0
C68 C 0.04926 0.71908 0.91439 0.0
C69 C 0.09494 0.74673 0.8503 0.0
C70 C 0.19046 0.01184 0.38078 0.0
C71 C 0.31752 0.01989 0.37065 0.0
O72 O 0.20177 0.04323 0.38473 0.0
Zn73 Zn 0.25337 0.07041 0.3842 0.0
O74 O 0.21218 0.98878 0.37465 0.0
Zn75 Zn 0.25356 0.01773 0.37535 0.0
O76 O 0.26028 0.02572 0.40584 0.0
O77 O 0.25928 0.08349 0.41058 0.0
O78 O 0.29599 -0.00558 0.36784 0.0
O79 O 0.30554 0.04974 0.37667 0.0
O80 O 0.24608 0.10846 0.36633 0.0
O81 O 0.24388 0.05582 0.35278 0.0
C82 C 0.26174 0.05227 0.41728 0.0
C83 C 0.24177 0.08972 0.35146 0.0
C84 C 0.96729 0.17169 0.88167 0.0
C85 C 0.95745 0.2966 0.86619 0.0
O86 O 0.93715 0.18469 0.88682 0.0
Zn87 Zn 0.91044 0.23507 0.88604 0.0
O88 O 0.99055 0.19154 0.87375 0.0
Zn89 Zn 0.96235 0.23395 0.87394 0.0
O90 O 0.96057 0.24588 0.90395 0.0
O91 O 0.90407 0.245 0.91299 0.0
O92 O 0.98288 0.27545 0.86263 0.0
O93 O 0.92929 0.28507 0.87475 0.0
O94 O 0.86895 0.22306 0.87063 0.0
O95 O 0.91985 0.22014 0.85472 0.0
C96 C 0.93693 0.24903 0.91713 0.0
C97 C 0.88576 0.21648 0.85524 0.0
C98 C 0.81685 0.93345 0.38914 0.0
C99 C 0.69011 0.939 0.37807 0.0
O100 O 0.80249 0.90285 0.39199 0.0
Zn101 Zn 0.74854 0.88099 0.39079 0.0
O102 O 0.79754 0.95932 0.38402 0.0
Zn103 Zn 0.75351 0.9346 0.38352 0.0
O104 O 0.74433 0.92417 0.41341 0.0
O105 O 0.74058 0.8662 0.41707 0.0
O106 O 0.71401 0.96272 0.37643 0.0
O107 O 0.69891 0.90747 0.38322 0.0
O108 O 0.75285 0.8445 0.3716 0.0
O109 O 0.75993 0.89841 0.35992 0.0
C110 C 0.74011 0.89707 0.42432 0.0
C111 C 0.75906 0.8647 0.3574 0.0
C112 C 0.05255 0.36486 0.16977 0.0
C113 C 0.02215 0.34302 0.16847 0.0
C114 C 0.049 0.40111 0.17318 0.0
C115 C 0.98374 0.47051 0.18762 0.0
H116 H 0.04454 0.53091 0.15639 0.0
C117 C 0.95086 0.61503 0.167 0.0
C118 C 0.979 0.63983 0.16741 0.0
C119 C 0.95743 0.57922 0.17059 0.0
C120 C 0.02774 0.51442 0.16543 0.0
H121 H 0.96427 0.34167 0.17026 0.0
H122 H 0.95794 0.40512 0.17551 0.0
H123 H 0.05387 0.46719 0.15638 0.0
H124 H 0.03587 0.6468 0.17249 0.0
H125 H 0.04731 0.58411 0.1785 0.0
H126 H 0.9566 0.51806 0.19589 0.0
C127 C 0.9846 0.39423 0.17437 0.0
C128 C 0.03314 0.47788 0.16549 0.0
C129 C 0.98819 0.35788 0.17123 0.0
C130 C 0.01364 0.6283 0.17199 0.0
C131 C 0.02024 0.59246 0.1754 0.0
C132 C 0.9781 0.5071 0.18739 0.0
C133 C 0.01494 0.41637 0.17507 0.0
C134 C 0.01094 0.45542 0.17641 0.0
C135 C 0.99228 0.56757 0.17447 0.0
C136 C -0.00017 0.52928 0.17612 0.0
H137 H 0.07911 0.35402 0.16797 0.0
H138 H 0.07297 0.41725 0.17405 0.0
H139 H 0.96655 0.45403 0.19643 0.0
H140 H 0.92385 0.62315 0.16361 0.0
H141 H 0.93547 0.56046 0.16963 0.0
C142 C 0.34721 0.04414 0.67668 0.0
C143 C 0.33406 0.01337 0.66775 0.0
C144 C 0.38381 0.05179 0.67662 0.0
C145 C 0.45869 0.07257 0.66364 0.0
H146 H 0.52756 -0.00336 0.66864 0.0
C147 C 0.60975 0.08873 0.6458 0.0
C148 C 0.63392 0.06873 0.65669 0.0
C149 C 0.57285 0.08468 0.64861 0.0
C150 C 0.50877 0.01831 0.66746 0.0
H151 H 0.34912 0.96629 0.65194 0.0
H152 H 0.41273 0.97984 0.65158 0.0
H153 H 0.46424 0.98342 0.67151 0.0
H154 H 0.63877 0.031 0.67999 0.0
H155 H 0.57489 0.0249 0.68531 0.0
H156 H 0.50352 0.10756 0.66 0.0
C157 C 0.3949 -0.00218 0.65892 0.0
C158 C 0.47236 0.0106 0.66883 0.0
C159 C 0.35836 0.99008 0.65908 0.0
C160 C 0.62072 0.04633 0.67115 0.0
C161 C 0.58407 0.04265 0.67412 0.0
C162 C 0.49524 0.08034 0.66237 0.0
C163 C 0.40805 0.02891 0.66756 0.0
C164 C 0.44684 0.03756 0.66682 0.0
C165 C 0.55962 0.06087 0.6625 0.0
C166 C 0.52071 0.05326 0.66423 0.0
H167 H 0.32918 0.06259 0.68354 0.0
H168 H 0.3931 0.07565 0.68368 0.0
H169 H 0.43973 0.09392 0.6618 0.0
H170 H 0.61927 0.10612 0.63452 0.0
H171 H 0.55475 0.09902 0.63935 0.0
C172 C 0.93894 0.35972 0.87031 0.0
C173 C 0.96115 0.33465 0.86151 0.0
C174 C 0.94454 0.39594 0.8673 0.0
C175 C 0.95224 0.47151 0.85355 0.0
H176 H 0.05085 0.50347 0.85162 0.0
C177 C 0.98764 0.62024 0.84946 0.0
C178 C 0.01645 0.63165 0.86079 0.0
C179 C 0.98142 0.58409 0.84653 0.0
C180 C 0.02316 0.49505 0.85226 0.0
H181 H 0.00545 0.32771 0.84186 0.0
H182 H 0.01447 0.39087 0.83606 0.0
H183 H 0.03772 0.44037 0.8524 0.0
H184 H 0.06163 0.6142 0.87773 0.0
H185 H 0.05017 0.55129 0.87319 0.0
H186 H 0.93778 0.5262 0.85464 0.0
C187 C 0.99343 0.38268 0.84578 0.0
C188 C 0.01556 0.45876 0.85239 0.0
C189 C 0.98813 0.34645 0.84901 0.0
C190 C 0.03932 0.60625 0.86882 0.0
C191 C 0.03285 0.57012 0.8661 0.0
C192 C 0.95985 0.50781 0.85365 0.0
C193 C 0.97218 0.40792 0.8552 0.0
C194 C 0.98002 0.4465 0.85333 0.0
C195 C 0.00361 0.55855 0.85507 0.0
C196 C -0.00456 0.52004 0.8533 0.0
H197 H 0.91803 0.35144 0.8801 0.0
H198 H 0.92798 0.41451 0.87504 0.0
H199 H 0.92453 0.46308 0.85394 0.0
H200 H 0.96973 0.63924 0.84294 0.0
H201 H 0.95906 0.5762 0.83766 0.0
C202 C 0.38058 0.04264 0.36943 0.0
C203 C 0.35621 0.01434 0.3679 0.0
C204 C 0.41732 0.03656 0.36796 0.0
C205 C 0.48391 0.96883 0.353 0.0
H206 H 0.54478 0.0172 0.38953 0.0
C207 C 0.6258 0.92191 0.37368 0.0
C208 C 0.65239 0.94828 0.37458 0.0
C209 C 0.59004 0.93122 0.3709 0.0
C210 C 0.52814 0.00378 0.37912 0.0
H211 H 0.35119 0.9576 0.36324 0.0
H212 H 0.41492 0.94693 0.36124 0.0
H213 H 0.48157 0.03206 0.38784 0.0
H214 H 0.66245 0.00503 0.3731 0.0
H215 H 0.6001 0.02111 0.36849 0.0
H216 H 0.53053 0.93966 0.34484 0.0
C217 C 0.40585 0.97394 0.36313 0.0
C218 C 0.49197 0.01241 0.37806 0.0
C219 C 0.36923 0.98004 0.36443 0.0
C220 C 0.64261 0.98405 0.37248 0.0
C221 C 0.60692 -0.00667 0.36992 0.0
C222 C 0.52003 0.95994 0.35421 0.0
C223 C 0.43037 0.00203 0.36508 0.0
C224 C 0.46934 -0.0052 0.36511 0.0
C225 C 0.58031 0.96705 0.36921 0.0
C226 C 0.54236 0.97717 0.36738 0.0
H227 H 0.37132 0.0694 0.37197 0.0
H228 H 0.43548 0.05888 0.36922 0.0
H229 H 0.46737 0.9552 0.34263 0.0
H230 H 0.63255 0.89414 0.37521 0.0
H231 H 0.5699 0.91049 0.37054 0.0
C232 C 0.98505 0.25976 0.94129 0.0
C233 C 0.94849 0.25565 0.93709 0.0
C234 C -0.00339 0.26364 0.96015 0.0
C235 C 0.96661 0.28629 1.009 0.0
H236 H 0.04893 0.23091 0.02435 0.0
C237 C 0.00369 0.26275 0.08807 0.0
C238 C 0.04005 0.26147 0.09314 0.0
C239 C 0.99343 0.26538 0.06893 0.0
C240 C 0.02628 0.24702 0.02026 0.0
H241 H 0.89533 0.25336 0.94945 0.0
H242 H 0.91559 0.25998 0.98247 0.0
H243 H 0.0289 0.22934 0.99127 0.0
H244 H 0.09418 0.26293 0.08201 0.0
H245 H 0.07625 0.26797 0.04854 0.0
H246 H 0.96386 0.30375 0.03807 0.0
C247 C 0.93527 0.26043 0.9711 0.0
C248 C 0.01473 0.24607 1.00128 0.0
C249 C 0.92367 0.25648 0.95219 0.0
C250 C 0.06595 0.26372 0.0786 0.0
C251 C 0.05566 0.26638 0.05941 0.0
C252 C 0.97822 0.28731 0.02801 0.0
C253 C 0.97194 0.26355 0.97531 0.0
C254 C 0.98464 0.26551 0.99543 0.0
C255 C 0.01924 0.26687 0.05433 0.0
C256 C 0.00805 0.26747 0.03391 0.0
H257 H 0.00495 0.25948 0.93003 0.0
H258 H 0.02498 0.26659 0.96285 0.0
H259 H 0.94365 0.30196 1.00491 0.0
H260 H 0.98297 0.26103 0.09887 0.0
H261 H 0.96517 0.26519 0.06557 0.0
C262 C 0.71866 0.00265 0.58664 0.0
C263 C 0.72761 0.98155 0.60252 0.0
C264 C 0.71932 0.98873 0.56823 0.0
C265 C 0.71574 0.90938 0.5388 0.0
H266 H 0.76903 0.96823 0.5031 0.0
C267 C 0.73839 0.87371 0.45816 0.0
C268 C 0.73617 0.90229 0.44524 0.0
C269 C 0.73732 0.87967 0.47795 0.0
C270 C 0.75376 0.9516 0.5128 0.0
H271 H 0.74241 0.92851 0.6115 0.0
H272 H 0.74317 0.90388 0.57893 0.0
H273 H 0.76658 0.98458 0.53666 0.0
H274 H 0.72938 0.95928 0.443 0.0
H275 H 0.72688 0.96949 0.47719 0.0
H276 H 0.70217 0.87687 0.51466 0.0
C277 C 0.73588 0.93138 0.58097 0.0
C278 C 0.75251 0.96091 0.53206 0.0
C279 C 0.73546 0.94548 0.59957 0.0
C280 C 0.73163 0.93668 0.45251 0.0
C281 C 0.73043 0.94258 0.47217 0.0
C282 C 0.71679 0.90011 0.51937 0.0
C283 C 0.72876 0.95325 0.56512 0.0
C284 C 0.73284 0.94043 0.54519 0.0
C285 C 0.73399 0.91431 0.48517 0.0
C286 C 0.73512 0.92167 0.50608 0.0
H287 H 0.71204 0.03042 0.58831 0.0
H288 H 0.71304 0.00602 0.55631 0.0
H289 H 0.70039 0.89314 0.54865 0.0
H290 H 0.74188 0.84687 0.45301 0.0
H291 H 0.74018 0.85733 0.48758 0.0
C292 C 0.99107 0.71794 0.08746 0.0
C293 C 0.95464 0.71967 0.09241 0.0
C294 C 0.00163 0.71476 0.06839 0.0
C295 C 0.96969 0.6898 0.02013 0.0
H296 H 0.04967 0.74779 1.00322 0.0
C297 C 0.00346 0.71187 0.94031 0.0
C298 C 0.03962 0.71417 0.93484 0.0
C299 C 0.99384 0.70963 0.95958 0.0
C300 C 0.02766 0.73098 1.00774 0.0
H301 H 0.90071 0.71867 0.08108 0.0
H302 H 0.9192 0.71338 0.04766 0.0
H303 H 0.03097 0.74959 0.03655 0.0
H304 H 0.09408 0.71494 0.94544 0.0
H305 H 0.07728 0.71064 0.97914 0.0
H306 H 0.96625 0.67141 0.99124 0.0
C307 C 0.93959 0.71419 0.05863 0.0
C308 C 0.01687 0.73206 0.02687 0.0
C309 C 0.92897 0.71739 0.07778 0.0
C310 C 0.06599 0.71332 0.94914 0.0
C311 C 0.05633 0.71109 0.96847 0.0
C312 C 0.98052 0.68869 1.00097 0.0
C313 C 0.97609 0.71325 0.05369 0.0
C314 C 0.98768 0.71158 0.03332 0.0
C315 C 0.0201 0.70961 0.97394 0.0
C316 C 0.00955 0.70941 0.99451 0.0
H317 H 0.01163 0.71936 0.09833 0.0
H318 H 0.02993 0.71346 0.06516 0.0
H319 H 0.94745 0.6733 0.02466 0.0
H320 H 0.98239 0.71249 0.9297 0.0
H321 H 0.9657 0.70898 0.96324 0.0
C322 C 0.26458 0.07506 0.45097 0.0
C323 C 0.2646 0.04633 0.43819 0.0
C324 C 0.26516 0.06924 0.47073 0.0
C325 C 0.28523 0.00114 0.50752 0.0
H326 H 0.22124 0.05664 0.5391 0.0
C327 C 0.24977 0.96143 0.58499 0.0
C328 C 0.24685 0.98849 0.59869 0.0
C329 C 0.25427 0.96967 0.56564 0.0
C330 C 0.23963 0.04124 0.53054 0.0
H331 H 0.2659 0.98891 0.4362 0.0
H332 H 0.2666 0.97879 0.47058 0.0
H333 H 0.22541 0.06898 0.50495 0.0
H334 H 0.24674 0.04553 0.60277 0.0
H335 H 0.25481 0.05989 0.56899 0.0
H336 H 0.29911 0.97311 0.53309 0.0
C337 C 0.26654 0.00586 0.46536 0.0
C338 C 0.24204 0.04833 0.51095 0.0
C339 C 0.26594 0.01167 0.44562 0.0
C340 C 0.2488 0.02402 0.59259 0.0
C341 C 0.25324 0.03226 0.57322 0.0
C342 C 0.2828 -0.00596 0.52711 0.0
C343 C 0.26581 0.03455 0.47816 0.0
C344 C 0.26464 0.02817 0.49916 0.0
C345 C 0.25593 0.00518 0.5595 0.0
C346 C 0.25974 0.01379 0.53883 0.0
H347 H 0.26366 0.10211 0.44573 0.0
H348 H 0.26506 0.09194 0.48019 0.0
H349 H 0.30334 0.9855 0.49892 0.0
H350 H 0.24831 0.93377 0.58917 0.0
H351 H 0.25575 0.94816 0.55544 0.0
C352 C 0.09814 0.21513 0.21162 0.0
C353 C 0.11772 0.22046 0.19467 0.0
C354 C 0.11513 0.204 0.22833 0.0
C355 C 0.19519 0.15735 0.24539 0.0
H356 H 0.16483 0.19361 0.29462 0.0
C357 C 0.22573 0.08592 0.3167 0.0
C358 C 0.233 0.10669 0.33292 0.0
C359 C 0.21542 0.10183 0.2995 0.0
C360 C 0.17399 0.18347 0.281 0.0
H361 H 0.17076 0.21878 0.18213 0.0
H362 H 0.20054 0.19949 0.21145 0.0
H363 H 0.14034 0.219 0.26543 0.0
H364 H 0.23618 0.16063 0.34357 0.0
H365 H 0.21858 0.18835 0.31352 0.0
H366 H 0.22894 0.12185 0.26101 0.0
C367 C 0.17191 0.20364 0.21169 0.0
C368 C 0.15962 0.19777 0.26426 0.0
C369 C 0.15487 0.2149 0.19493 0.0
C370 C 0.23057 0.1438 0.33139 0.0
C371 C 0.2203 0.15971 0.31419 0.0
C372 C 0.20957 0.143 0.26216 0.0
C373 C 0.15216 0.19789 0.22857 0.0
C374 C 0.16965 0.18455 0.24626 0.0
C375 C 0.21217 0.1389 0.29809 0.0
C376 C 0.1988 0.1556 0.28018 0.0
H377 H 0.06948 0.21908 0.21196 0.0
H378 H 0.099 0.19934 0.24097 0.0
H379 H 0.20331 0.14637 0.23178 0.0
H380 H 0.22729 0.05726 0.31737 0.0
H381 H 0.20895 0.08495 0.28747 0.0
C382 C 0.88247 0.20565 0.82018 0.0
C383 C 0.86736 0.20136 0.83841 0.0
C384 C 0.86871 0.18725 0.80453 0.0
C385 C 0.79154 0.1326 0.78755 0.0
H386 H 0.86171 0.10239 0.75015 0.0
C387 C 0.76434 0.04145 0.72056 0.0
C388 C 0.77175 0.06023 0.70361 0.0
C389 C 0.77495 0.05532 0.73831 0.0
C390 C 0.8419 0.11043 0.76058 0.0
H391 H 0.82528 0.17522 0.8545 0.0
H392 H 0.80173 0.14208 0.82723 0.0
H393 H 0.88129 0.13397 0.77861 0.0
H394 H 0.79692 0.10744 0.69184 0.0
H395 H 0.81641 0.13073 0.72259 0.0
H396 H 0.75231 0.10822 0.76929 0.0
C397 C 0.8238 0.16026 0.8249 0.0
C398 C 0.85297 0.12897 0.77679 0.0
C399 C 0.83725 0.17928 0.84055 0.0
C400 C 0.79065 0.09247 0.70467 0.0
C401 C 0.80191 0.10578 0.72223 0.0
C402 C 0.78053 0.11344 0.77142 0.0
C403 C 0.83994 0.16337 0.80675 0.0
C404 C 0.82789 0.14122 0.79026 0.0
C405 C 0.79391 0.08757 0.73921 0.0
C406 C 0.80559 0.10293 0.75762 0.0
H407 H 0.90551 0.22276 0.81807 0.0
H408 H 0.88112 0.1914 0.7907 0.0
H409 H 0.7714 0.14168 0.79752 0.0
H410 H 0.74966 0.01664 0.72011 0.0
H411 H 0.7686 0.04085 0.75128 0.0
C412 C 0.77393 0.87228 0.32266 0.0
C413 C 0.7666 0.8497 0.33822 0.0
C414 C 0.78306 0.85836 0.30481 0.0
C415 C 0.82179 0.77864 0.28288 0.0
H416 H 0.79184 0.82317 0.23552 0.0
C417 C 0.83956 0.75988 0.19563 0.0
C418 C 0.87675 0.75465 0.19495 0.0
C419 C 0.82271 0.76866 0.21289 0.0
C420 C 0.80012 0.81014 0.24859 0.0
H421 H 0.76217 0.79464 0.34702 0.0
H422 H 0.7779 0.77035 0.31581 0.0
H423 H 0.76727 0.8437 0.26589 0.0
H424 H 0.92523 0.75397 0.21198 0.0
H425 H 0.896 0.76925 0.24185 0.0
H426 H 0.85474 0.7452 0.26562 0.0
C427 C 0.77699 0.79888 0.3175 0.0
C428 C 0.78633 0.82216 0.26602 0.0
C429 C 0.7678 0.81281 0.33538 0.0
C430 C 0.89654 0.75779 0.21195 0.0
C431 C 0.87973 0.76632 0.22915 0.0
C432 C 0.83563 0.76671 0.26548 0.0
C433 C 0.78512 0.8215 0.30205 0.0
C434 C 0.79741 0.80691 0.2834 0.0
C435 C 0.84266 0.77208 0.22984 0.0
C436 C 0.82541 0.78268 0.24814 0.0
H437 H 0.77328 0.90083 0.32432 0.0
H438 H 0.78958 0.87658 0.29331 0.0
H439 H 0.83116 0.76646 0.29597 0.0
H440 H 0.82353 0.75768 0.1828 0.0
H441 H 0.79405 0.77267 0.21298 0.0
C442 C 0.21258 0.87313 0.69989 0.0
C443 C 0.21266 0.91042 0.70043 0.0
C444 C 0.20381 0.85327 0.71616 0.0
C445 C 0.19383 0.85879 0.76898 0.0
H446 H 0.13169 0.7773 0.76183 0.0
C447 C 0.09193 0.76606 0.8161 0.0
C448 C 0.11249 0.75997 0.8326 0.0
C449 C 0.10718 0.78165 0.79988 0.0
C450 C 0.14899 0.80001 0.76411 0.0
H451 H 0.20416 0.95604 0.71868 0.0
H452 H 0.18836 0.92141 0.74701 0.0
H453 H 0.15222 0.81088 0.73414 0.0
H454 H 0.1656 0.76476 0.84475 0.0
H455 H 0.1924 0.79182 0.81626 0.0
H456 H 0.1895 0.84854 0.79905 0.0
C457 C 0.19555 0.90748 0.73405 0.0
C458 C 0.16111 0.81908 0.74818 0.0
C459 C 0.2044 0.92737 0.71776 0.0
C460 C 0.14901 0.76903 0.83228 0.0
C461 C 0.1643 0.78481 0.81601 0.0
C462 C 0.1817 0.83967 0.78493 0.0
C463 C 0.19479 0.87016 0.7334 0.0
C464 C 0.1834 0.84895 0.7504 0.0
C465 C 0.14344 0.79165 0.79968 0.0
C466 C 0.15875 0.8103 0.7827 0.0
H467 H 0.21904 0.85915 0.68683 0.0
H468 H 0.20409 0.82461 0.7152 0.0
H469 H 0.2113 0.88139 0.77122 0.0
H470 H 0.06371 0.7595 0.81581 0.0
H471 H 0.09017 0.78691 0.78769 0.0
C472 C 0.97924 0.12682 0.14964 0.0
C473 C 0.01372 0.14139 0.14772 0.0
C474 C 0.97399 0.09021 0.14824 0.0
C475 C 0.02016 0.00728 0.15626 0.0
H476 H 0.94725 0.96497 0.12408 0.0
C477 C 0.01012 0.85657 0.14747 0.0
C478 C 0.97577 0.84147 0.14706 0.0
C479 C 0.01454 0.89323 0.14621 0.0
C480 C 0.96743 0.9764 0.13332 0.0
H481 H 0.06961 0.12922 0.1426 0.0
H482 H 0.06038 0.06534 0.14046 0.0
H483 H 0.95465 0.02941 0.12459 0.0
H484 H 0.91909 0.85269 0.14483 0.0
H485 H 0.9267 0.91683 0.14328 0.0
H486 H 0.03242 0.95479 0.16551 0.0
C487 C 0.03752 0.08225 0.143 0.0
C488 C 0.97169 0.01321 0.13354 0.0
C489 C 0.04272 0.11879 0.14415 0.0
C490 C 0.94592 0.86364 0.14509 0.0
C491 C 0.95031 0.90037 0.14409 0.0
C492 C 0.01564 0.9706 0.15623 0.0
C493 C 0.00319 0.06766 0.14518 0.0
C494 C -0.00177 0.02886 0.14494 0.0
C495 C 0.98467 0.91561 0.14481 0.0
C496 C 0.98936 0.95468 0.14469 0.0
H497 H 0.95638 0.14363 0.15233 0.0
H498 H 0.94729 0.07945 0.15007 0.0
H499 H 0.04047 0.01886 0.16539 0.0
H500 H 0.03363 0.84007 0.14876 0.0
H501 H 0.04142 0.90402 0.14637 0.0
C502 C 0.10852 -0.0003 0.64063 0.0
C503 C 0.12987 0.02207 0.65193 0.0
C504 C 0.07349 0.00913 0.6361 0.0
C505 C 0.0112 0.08535 0.63413 0.0
H506 H 0.93933 0.01107 0.6362 0.0
C507 C 0.85712 0.10707 0.63718 0.0
C508 C 0.83582 0.08081 0.62865 0.0
C509 C 0.89447 0.10422 0.63668 0.0
C510 C 0.95912 0.03207 0.6352 0.0
H511 H 0.13116 0.07196 0.66734 0.0
H512 H 0.06966 0.08802 0.65978 0.0
H513 H 0.00119 -0.00325 0.64283 0.0
H514 H 0.83602 0.0332 0.61145 0.0
H515 H 0.90096 0.029 0.60986 0.0
H516 H 0.96846 0.12079 0.62692 0.0
C517 C 0.08025 0.06348 0.65414 0.0
C518 C 0.99464 0.02383 0.63905 0.0
C519 C 0.11539 0.0541 0.65861 0.0
C520 C 0.85209 0.05374 0.61811 0.0
C521 C 0.88919 0.05116 0.61739 0.0
C522 C 0.97543 0.09365 0.63032 0.0
C523 C 0.05888 0.04106 0.64285 0.0
C524 C 0.02116 0.05029 0.63854 0.0
C525 C 0.91073 0.07518 0.62757 0.0
C526 C 0.94905 0.06701 0.63074 0.0
H527 H 0.11895 0.97502 0.63508 0.0
H528 H 0.05794 -0.0085 0.62713 0.0
H529 H 0.03108 0.10629 0.63346 0.0
H530 H 0.84499 0.12786 0.64562 0.0
H531 H 0.91037 0.12312 0.64468 0.0
C532 C 0.00786 0.11895 0.88136 0.0
C533 C 0.97364 0.13337 0.88403 0.0
C534 C 0.01297 0.08231 0.88257 0.0
C535 C 0.96576 -0.00042 0.87488 0.0
H536 H 0.04015 0.95627 0.90549 0.0
C537 C 0.97749 0.84808 0.88107 0.0
C538 C 0.01208 0.83382 0.8811 0.0
C539 C 0.97254 0.8846 0.88288 0.0
C540 C 0.01953 0.96796 0.89667 0.0
H541 H 0.91811 0.12086 0.89038 0.0
H542 H 0.92709 0.05702 0.89217 0.0
H543 H 0.03305 0.02065 0.90574 0.0
H544 H 0.06862 0.84643 0.88305 0.0
H545 H 0.0601 0.9101 0.88549 0.0
H546 H 0.95283 0.94744 0.86522 0.0
C547 C 0.94986 0.07406 0.8892 0.0
C548 C 0.01545 0.00476 0.89689 0.0
C549 C 0.94482 0.11059 0.88826 0.0
C550 C 0.04159 0.85666 0.88311 0.0
C551 C 0.03669 0.89317 0.88464 0.0
C552 C 0.97013 0.9629 0.87443 0.0
C553 C 0.98386 0.0596 0.88618 0.0
C554 C 0.98846 0.02079 0.88604 0.0
C555 C 0.00211 0.90763 0.88446 0.0
C556 C -0.00296 0.94661 0.88534 0.0
H557 H 0.03056 0.13589 0.87813 0.0
H558 H 0.03943 0.07164 0.88011 0.0
H559 H 0.94502 0.01147 0.8662 0.0
H560 H 0.95424 0.83103 0.87971 0.0
H561 H 0.9455 0.89474 0.88306 0.0
C562 C 0.87898 0.90977 0.39254 0.0
C563 C 0.85563 0.9388 0.39157 0.0
C564 C 0.91588 0.91531 0.39376 0.0
C565 C 0.9842 0.98171 0.40635 0.0
H566 H 0.04279 0.93357 0.36881 0.0
C567 C 0.12696 0.02815 0.38772 0.0
C568 C 0.15261 0.00212 0.38372 0.0
C569 C 0.09116 0.01866 0.39038 0.0
C570 C 0.02698 0.94679 0.37962 0.0
H571 H 0.85238 -0.00371 0.39184 0.0
H572 H 0.91661 0.00583 0.39407 0.0
H573 H 0.97944 0.91905 0.37133 0.0
H574 H 0.16108 0.94566 0.37983 0.0
H575 H 0.09891 0.9291 0.38485 0.0
H576 H 0.03163 0.0096 0.41461 0.0
C577 C 0.90646 0.97887 0.39389 0.0
C578 C 0.99071 0.93844 0.38104 0.0
C579 C 0.86972 0.97337 0.39245 0.0
C580 C 0.14188 0.96641 0.38269 0.0
C581 C 0.10621 0.9569 0.3855 0.0
C582 C 0.02055 0.98988 0.40503 0.0
C583 C 0.9299 0.94994 0.3943 0.0
C584 C 0.96891 0.95622 0.39421 0.0
C585 C 0.08038 0.98292 0.38925 0.0
C586 C 0.04223 0.97288 0.39145 0.0
H587 H 0.86884 0.88284 0.39191 0.0
H588 H 0.93348 0.89258 0.39417 0.0
H589 H 0.96796 -0.00447 0.41676 0.0
H590 H 0.13443 0.0559 0.38856 0.0
H591 H 0.07183 0.03942 0.39295 0.0
loop_
_geom_bond_atom_site_label_1
_geom_bond_atom_site_label_2
_geom_bond_distance
_geom_bond_site_symmetry_2
_ccdc_geom_bond_type
C0 O2 1.247 . S
C0 O4 1.258 . S
C1 O8 1.247 . S
C1 O9 1.258 . S
O2 C0 1.247 . S
O2 Zn3 2.028 . S
Zn3 O2 2.028 . S
Zn3 O7 2.035 . S
Zn3 O9 2.035 . S
Zn3 O10 2.028 . S
O4 C0 1.258 . S
O4 Zn5 2.035 . S
Zn5 O4 2.035 . S
Zn5 O6 2.028 . S
Zn5 O8 2.028 . S
Zn5 O11 2.035 . S
O6 Zn5 2.028 . S
O6 C12 1.247 . S
O7 Zn3 2.035 . S
O7 C12 1.258 . S
O8 C1 1.247 . S
O8 Zn5 2.028 . S
O9 C1 1.258 . S
O9 Zn3 2.035 . S
O10 Zn3 2.028 . S
O10 C13 1.247 . S
O11 Zn5 2.035 . S
O11 C13 1.258 . S
C12 O6 1.247 . S
C12 O7 1.258 . S
C13 O10 1.247 . S
C13 O11 1.258 . S
C14 O16 1.247 . S
C14 O18 1.258 . S
C15 O22 1.247 . S
C15 O23 1.258 . S
O16 C14 1.247 . S
O16 Zn17 2.028 . S
Zn17 O16 2.028 . S
Zn17 O21 2.035 . S
Zn17 O23 2.035 . S
Zn17 O24 2.028 . S
O18 C14 1.258 . S
O18 Zn19 2.035 . S
Zn19 O18 2.035 . S
Zn19 O20 2.028 . S
Zn19 O22 2.028 . S
Zn19 O25 2.035 . S
O20 Zn19 2.028 . S
O20 C26 1.247 . S
O21 Zn17 2.035 . S
O21 C26 1.258 . S
O22 C15 1.247 . S
O22 Zn19 2.028 . S
O23 C15 1.258 . S
O23 Zn17 2.035 . S
O24 Zn17 2.028 . S
O24 C27 1.247 . S
O25 Zn19 2.035 . S
O25 C27 1.258 . S
C26 O20 1.247 . S
C26 O21 1.258 . S
C27 O24 1.247 . S
C27 O25 1.258 . S
C28 O30 1.247 . S
C28 O32 1.258 . S
C29 O36 1.247 . S
C29 O37 1.258 . S
O30 C28 1.247 . S
O30 Zn31 2.028 . S
Zn31 O30 2.028 . S
Zn31 O35 2.035 . S
Zn31 O37 2.035 . S
Zn31 O38 2.028 . S
O32 C28 1.258 . S
O32 Zn33 2.035 . S
Zn33 O32 2.035 . S
Zn33 O34 2.028 . S
Zn33 O36 2.028 . S
Zn33 O39 2.035 . S
O34 Zn33 2.028 . S
O34 C40 1.247 . S
O35 Zn31 2.035 . S
O35 C40 1.258 . S
O36 C29 1.247 . S
O36 Zn33 2.028 . S
O37 C29 1.258 . S
O37 Zn31 2.035 . S
O38 Zn31 2.028 . S
O38 C41 1.247 . S
O39 Zn33 2.035 . S
O39 C41 1.258 . S
C40 O34 1.247 . S
C40 O35 1.258 . S
C41 O38 1.247 . S
C41 O39 1.258 . S
C42 O44 1.247 . S
C42 O46 1.258 . S
C43 O50 1.247 . S
C43 O51 1.258 . S
O44 C42 1.247 . S
O44 Zn45 2.028 . S
Zn45 O44 2.028 . S
Zn45 O49 2.035 . S
Zn45 O51 2.035 . S
Zn45 O52 2.028 . S
O46 C42 1.258 . S
O46 Zn47 2.035 . S
Zn47 O46 2.035 . S
Zn47 O48 2.028 . S
Zn47 O50 2.028 . S
Zn47 O53 2.035 . S
O48 Zn47 2.028 . S
O48 C54 1.247 . S
O49 Zn45 2.035 . S
O49 C54 1.258 . S
O50 C43 1.247 . S
O50 Zn47 2.028 . S
O51 C43 1.258 . S
O51 Zn45 2.035 . S
O52 Zn45 2.028 . S
O52 C55 1.247 . S
O53 Zn47 2.035 . S
O53 C55 1.258 . S
C54 O48 1.247 . S
C54 O49 1.258 . S
C55 O52 1.247 . S
C55 O53 1.258 . S
C56 O58 1.247 . S
C56 O60 1.258 . S
C57 O64 1.247 . S
C57 O65 1.258 . S
O58 C56 1.247 . S
O58 Zn59 2.028 . S
Zn59 O58 2.028 . S
Zn59 O63 2.035 . S
Zn59 O65 2.035 . S
Zn59 O66 2.028 . S
O60 C56 1.258 . S
O60 Zn61 2.035 . S
Zn61 O60 2.035 . S
Zn61 O62 2.028 . S
Zn61 O64 2.028 . S
Zn61 O67 2.035 . S
O62 Zn61 2.028 . S
O62 C68 1.247 . S
O63 Zn59 2.035 . S
O63 C68 1.258 . S
O64 C57 1.247 . S
O64 Zn61 2.028 . S
O65 C57 1.258 . S
O65 Zn59 2.035 . S
O66 Zn59 2.028 . S
O66 C69 1.247 . S
O67 Zn61 2.035 . S
O67 C69 1.258 . S
C68 O62 1.247 . S
C68 O63 1.258 . S
C69 O66 1.247 . S
C69 O67 1.258 . S
C70 O72 1.247 . S
C70 O74 1.258 . S
C71 O78 1.247 . S
C71 O79 1.258 . S
O72 C70 1.247 . S
O72 Zn73 2.028 . S
Zn73 O72 2.028 . S
Zn73 O77 2.035 . S
Zn73 O79 2.035 . S
Zn73 O80 2.028 . S
O74 C70 1.258 . S
O74 Zn75 2.035 . S
Zn75 O74 2.035 . S
Zn75 O76 2.028 . S
Zn75 O78 2.028 . S
Zn75 O81 2.035 . S
O76 Zn75 2.028 . S
O76 C82 1.247 . S
O77 Zn73 2.035 . S
O77 C82 1.258 . S
O78 C71 1.247 . S
O78 Zn75 2.028 . S
O79 C71 1.258 . S
O79 Zn73 2.035 . S
O80 Zn73 2.028 . S
O80 C83 1.247 . S
O81 Zn75 2.035 . S
O81 C83 1.258 . S
C82 O76 1.247 . S
C82 O77 1.258 . S
C83 O80 1.247 . S
C83 O81 1.258 . S
C84 O86 1.247 . S
C84 O88 1.258 . S
C85 O92 1.247 . S
C85 O93 1.258 . S
O86 C84 1.247 . S
O86 Zn87 2.028 . S
Zn87 O86 2.028 . S
Zn87 O91 2.035 . S
Zn87 O93 2.035 . S
Zn87 O94 2.028 . S
O88 C84 1.258 . S
O88 Zn89 2.035 . S
Zn89 O88 2.035 . S
Zn89 O90 2.028 . S
Zn89 O92 2.028 . S
Zn89 O95 2.035 . S
O90 Zn89 2.028 . S
O90 C96 1.247 . S
O91 Zn87 2.035 . S
O91 C96 1.258 . S
O92 C85 1.247 . S
O92 Zn89 2.028 . S
O93 C85 1.258 . S
O93 Zn87 2.035 . S
O94 Zn87 2.028 . S
O94 C97 1.247 . S
O95 Zn89 2.035 . S
O95 C97 1.258 . S
C96 O90 1.247 . S
C96 O91 1.258 . S
C97 O94 1.247 . S
C97 O95 1.258 . S
C98 O100 1.247 . S
C98 O102 1.258 . S
C99 O106 1.247 . S
C99 O107 1.258 . S
O100 C98 1.247 . S
O100 Zn101 2.028 . S
Zn101 O100 2.028 . S
Zn101 O105 2.035 . S
Zn101 O107 2.035 . S
Zn101 O108 2.028 . S
O102 C98 1.258 . S
O102 Zn103 2.035 . S
Zn103 O102 2.035 . S
Zn103 O104 2.028 . S
Zn103 O106 2.028 . S
Zn103 O109 2.035 . S
O104 Zn103 2.028 . S
O104 C110 1.247 . S
O105 Zn101 2.035 . S
O105 C110 1.258 . S
O106 C99 1.247 . S
O106 Zn103 2.028 . S
O107 C99 1.258 . S
O107 Zn101 2.035 . S
O108 Zn101 2.028 . S
O108 C111 1.247 . S
O109 Zn103 2.035 . S
O109 C111 1.258 . S
C110 O104 1.247 . S
C110 O105 1.258 . S
C111 O108 1.247 . S
C111 O109 1.258 . S
C112 C113 1.349 . S
C112 C114 1.327 . S
C112 H137 0.950 . S
C113 C112 1.349 . S
C113 C129 1.349 . S
C114 C112 1.327 . S
C114 C133 1.429 . S
C114 H138 0.950 . S
C115 C132 1.574 . S
C115 C134 1.368 1_655 S
C115 H139 0.949 . S
H116 C120 0.949 . S
C117 C118 1.349 . S
C117 C119 1.327 . S
C117 H140 0.950 . S
C118 C117 1.349 . S
C118 C130 1.349 . S
C119 C117 1.327 . S
C119 C135 1.429 . S
C119 H141 0.950 . S
C120 H116 0.949 . S
C120 C128 1.574 . S
C120 C136 1.368 1_455 S
H121 C129 0.950 . S
H122 C127 0.950 . S
H123 C128 0.949 . S
H124 C130 0.950 . S
H125 C131 0.950 . S
H126 C132 0.949 . S
C127 H122 0.950 . S
C127 C129 1.327 . S
C127 C133 1.429 . S
C128 C120 1.574 . S
C128 H123 0.949 . S
C128 C134 1.368 . S
C129 C113 1.349 . S
C129 H121 0.950 . S
C129 C127 1.327 . S
C130 C118 1.349 . S
C130 H124 0.950 . S
C130 C131 1.327 . S
C131 H125 0.950 . S
C131 C130 1.327 . S
C131 C135 1.429 . S
C132 C115 1.574 . S
C132 H126 0.949 . S
C132 C136 1.368 . S
C133 C114 1.429 . S
C133 C127 1.429 . S
C133 C134 1.523 . S
C134 C115 1.368 1_455 S
C134 C128 1.368 . S
C134 C133 1.523 . S
C135 C119 1.429 . S
C135 C131 1.429 . S
C135 C136 1.523 . S
C136 C120 1.368 1_655 S
C136 C132 1.368 . S
C136 C135 1.523 . S
H137 C112 0.950 . S
H138 C114 0.950 . S
H139 C115 0.949 . S
H140 C117 0.950 . S
H141 C119 0.950 . S
C142 C143 1.349 . S
C142 C144 1.327 . S
C142 H167 0.950 . S
C143 C142 1.349 . S
C143 C159 1.349 . S
C144 C142 1.327 . S
C144 C163 1.429 . S
C144 H168 0.950 . S
C145 C162 1.574 . S
C145 C164 1.368 1_545 S
C145 H169 0.949 . S
H146 C150 0.949 . S
C147 C148 1.349 . S
C147 C149 1.327 . S
C147 H170 0.950 . S
C148 C147 1.349 . S
C148 C160 1.349 . S
C149 C147 1.327 . S
C149 C165 1.429 . S
C149 H171 0.950 . S
C150 H146 0.949 . S
C150 C158 1.574 . S
C150 C166 1.368 1_565 S
H151 C159 0.950 . S
H152 C157 0.950 . S
H153 C158 0.949 . S
H154 C160 0.950 . S
H155 C161 0.950 . S
H156 C162 0.949 . S
C157 H152 0.950 . S
C157 C159 1.327 . S
C157 C163 1.429 . S
C158 C150 1.574 . S
C158 H153 0.949 . S
C158 C164 1.368 . S
C159 C143 1.349 . S
C159 H151 0.950 . S
C159 C157 1.327 . S
C160 C148 1.349 . S
C160 H154 0.950 . S
C160 C161 1.327 . S
C161 H155 0.950 . S
C161 C160 1.327 . S
C161 C165 1.429 . S
C162 C145 1.574 . S
C162 H156 0.949 . S
C162 C166 1.368 . S
C163 C144 1.429 . S
C163 C157 1.429 . S
C163 C164 1.523 . S
C164 C145 1.368 1_565 S
C164 C158 1.368 . S
C164 C163 1.523 . S
C165 C149 1.429 . S
C165 C161 1.429 . S
C165 C166 1.523 . S
C166 C150 1.368 1_545 S
C166 C162 1.368 . S
C166 C165 1.523 . S
H167 C142 0.950 . S
H168 C144 0.950 . S
H169 C145 0.949 . S
H170 C147 0.950 . S
H171 C149 0.950 . S
C172 C173 1.349 . S
C172 C174 1.327 . S
C172 H197 0.950 . S
C173 C172 1.349 . S
C173 C189 1.349 . S
C174 C172 1.327 . S
C174 C193 1.429 . S
C174 H198 0.950 . S
C175 C192 1.574 . S
C175 C194 1.368 . S
C175 H199 0.949 . S
H176 C180 0.949 . S
C177 C178 1.349 . S
C177 C179 1.327 . S
C177 H200 0.950 . S
C178 C177 1.349 . S
C178 C190 1.349 . S
C179 C177 1.327 . S
C179 C195 1.429 . S
C179 H201 0.950 . S
C180 H176 0.949 . S
C180 C188 1.574 . S
C180 C196 1.368 . S
H181 C189 0.950 . S
H182 C187 0.950 . S
H183 C188 0.949 . S
H184 C190 0.950 . S
H185 C191 0.950 . S
H186 C192 0.949 . S
C187 H182 0.950 . S
C187 C189 1.327 . S
C187 C193 1.429 . S
C188 C180 1.574 . S
C188 H183 0.949 . S
C188 C194 1.368 1_455 S
C189 C173 1.349 . S
C189 H181 0.950 . S
C189 C187 1.327 . S
C190 C178 1.349 . S
C190 H184 0.950 . S
C190 C191 1.327 . S
C191 H185 0.950 . S
C191 C190 1.327 . S
C191 C195 1.429 . S
C192 C175 1.574 . S
C192 H186 0.949 . S
C192 C196 1.368 1_655 S
C193 C174 1.429 . S
C193 C187 1.429 . S
C193 C194 1.523 . S
C194 C175 1.368 . S
C194 C188 1.368 1_655 S
C194 C193 1.523 . S
C195 C179 1.429 . S
C195 C191 1.429 . S
C195 C196 1.523 . S
C196 C180 1.368 . S
C196 C192 1.368 1_455 S
C196 C195 1.523 . S
H197 C172 0.950 . S
H198 C174 0.950 . S
H199 C175 0.949 . S
H200 C177 0.950 . S
H201 C179 0.950 . S
C202 C203 1.349 . S
C202 C204 1.327 . S
C202 H227 0.950 . S
C203 C202 1.349 . S
C203 C219 1.349 . S
C204 C202 1.327 . S
C204 C223 1.429 . S
C204 H228 0.950 . S
C205 C222 1.574 . S
C205 C224 1.368 1_565 S
C205 H229 0.949 . S
H206 C210 0.949 . S
C207 C208 1.349 . S
C207 C209 1.327 . S
C207 H230 0.950 . S
C208 C207 1.349 . S
C208 C220 1.349 . S
C209 C207 1.327 . S
C209 C225 1.429 . S
C209 H231 0.950 . S
C210 H206 0.949 . S
C210 C218 1.574 . S
C210 C226 1.368 1_545 S
H211 C219 0.950 . S
H212 C217 0.950 . S
H213 C218 0.949 . S
H214 C220 0.950 . S
H215 C221 0.950 . S
H216 C222 0.949 . S
C217 H212 0.950 . S
C217 C219 1.327 . S
C217 C223 1.429 . S
C218 C210 1.574 . S
C218 H213 0.949 . S
C218 C224 1.368 . S
C219 C203 1.349 . S
C219 H211 0.950 . S
C219 C217 1.327 . S
C220 C208 1.349 . S
C220 H214 0.950 . S
C220 C221 1.327 . S
C221 H215 0.950 . S
C221 C220 1.327 . S
C221 C225 1.429 . S
C222 C205 1.574 . S
C222 H216 0.949 . S
C222 C226 1.368 . S
C223 C204 1.429 . S
C223 C217 1.429 . S
C223 C224 1.523 . S
C224 C205 1.368 1_545 S
C224 C218 1.368 . S
C224 C223 1.523 . S
C225 C209 1.429 . S
C225 C221 1.429 . S
C225 C226 1.523 . S
C226 C210 1.368 1_565 S
C226 C222 1.368 . S
C226 C225 1.523 . S
H227 C202 0.950 . S
H228 C204 0.950 . S
H229 C205 0.949 . S
H230 C207 0.950 . S
H231 C209 0.950 . S
C232 C233 1.349 . S
C232 C234 1.327 . S
C232 H257 0.950 . S
C233 C232 1.349 . S
C233 C249 1.349 . S
C234 C232 1.327 . S
C234 C253 1.429 . S
C234 H258 0.950 1_655 S
C235 C252 1.574 1_556 S
C235 C254 1.368 . S
C235 H259 0.949 . S
H236 C240 0.949 . S
C237 C238 1.349 . S
C237 C239 1.327 . S
C237 H260 0.950 . S
C238 C237 1.349 . S
C238 C250 1.349 . S
C239 C237 1.327 . S
C239 C255 1.429 . S
C239 H261 0.950 1_455 S
C240 H236 0.949 . S
C240 C248 1.574 1_554 S
C240 C256 1.368 . S
H241 C249 0.950 . S
H242 C247 0.950 . S
H243 C248 0.949 . S
H244 C250 0.950 . S
H245 C251 0.950 . S
H246 C252 0.949 . S
C247 H242 0.950 . S
C247 C249 1.327 . S
C247 C253 1.429 . S
C248 C240 1.574 1_556 S
C248 H243 0.949 . S
C248 C254 1.368 1_455 S
C249 C233 1.349 . S
C249 H241 0.950 . S
C249 C247 1.327 . S
C250 C238 1.349 . S
C250 H244 0.950 . S
C250 C251 1.327 . S
C251 H245 0.950 . S
C251 C250 1.327 . S
C251 C255 1.429 . S
C252 C235 1.574 1_554 S
C252 H246 0.949 . S
C252 C256 1.368 1_655 S
C253 C234 1.429 . S
C253 C247 1.429 . S
C253 C254 1.523 . S
C254 C235 1.368 . S
C254 C248 1.368 1_655 S
C254 C253 1.523 . S
C255 C239 1.429 . S
C255 C251 1.429 . S
C255 C256 1.523 . S
C256 C240 1.368 . S
C256 C252 1.368 1_455 S
C256 C255 1.523 . S
H257 C232 0.950 . S
H258 C234 0.950 1_455 S
H259 C235 0.949 . S
H260 C237 0.950 . S
H261 C239 0.950 1_655 S
C262 C263 1.349 . S
C262 C264 1.327 . S
C262 H287 0.950 . S
C263 C262 1.349 . S
C263 C279 1.349 . S
C264 C262 1.327 . S
C264 C283 1.429 . S
C264 H288 0.950 . S
C265 C282 1.574 . S
C265 C284 1.368 1_565 S
C265 H289 0.949 . S
H266 C270 0.949 . S
C267 C268 1.349 . S
C267 C269 1.327 . S
C267 H290 0.950 . S
C268 C267 1.349 . S
C268 C280 1.349 . S
C269 C267 1.327 . S
C269 C285 1.429 . S
C269 H291 0.950 . S
C270 H266 0.949 . S
C270 C278 1.574 . S
C270 C286 1.368 1_545 S
H271 C279 0.950 1_565 S
H272 C277 0.927 1_565 S
H273 C278 0.949 . S
H274 C280 0.950 1_545 S
H275 C281 0.927 1_545 S
H276 C282 0.949 . S
C277 H272 0.927 1_545 S
C277 C279 1.336 . S
C277 C283 1.443 . S
C278 C270 1.574 . S
C278 H273 0.949 . S
C278 C284 1.368 . S
C279 C263 1.349 . S
C279 H271 0.950 1_545 S
C279 C277 1.336 . S
C280 C268 1.349 . S
C280 H274 0.950 1_565 S
C280 C281 1.336 . S
C281 H275 0.927 1_565 S
C281 C280 1.336 . S
C281 C285 1.443 . S
C282 C265 1.574 . S
C282 H276 0.949 . S
C282 C286 1.368 . S
C283 C264 1.429 . S
C283 C277 1.443 . S
C283 C284 1.523 . S
C284 C265 1.368 1_545 S
C284 C278 1.368 . S
C284 C283 1.523 . S
C285 C269 1.429 . S
C285 C281 1.443 . S
C285 C286 1.523 . S
C286 C270 1.368 1_565 S
C286 C282 1.368 . S
C286 C285 1.523 . S
H287 C262 0.950 . S
H288 C264 0.950 . S
H289 C265 0.949 . S
H290 C267 0.950 . S
H291 C269 0.950 . S
C292 C293 1.349 . S
C292 C294 1.327 . S
C292 H317 0.950 . S
C293 C292 1.349 . S
C293 C309 1.349 . S
C294 C292 1.327 . S
C294 C313 1.429 . S
C294 H318 0.950 1_655 S
C295 C312 1.574 1_554 S
C295 C314 1.368 . S
C295 H319 0.949 . S
H296 C300 0.949 . S
C297 C298 1.349 . S
C297 C299 1.327 . S
C297 H320 0.950 . S
C298 C297 1.349 . S
C298 C310 1.349 . S
C299 C297 1.327 . S
C299 C315 1.429 . S
C299 H321 0.950 1_455 S
C300 H296 0.949 . S
C300 C308 1.574 1_556 S
C300 C316 1.368 . S
H301 C309 0.950 . S
H302 C307 0.950 . S
H303 C308 0.949 . S
H304 C310 0.950 . S
H305 C311 0.950 . S
H306 C312 0.949 . S
C307 H302 0.950 . S
C307 C309 1.327 . S
C307 C313 1.429 . S
C308 C300 1.574 1_554 S
C308 H303 0.949 . S
C308 C314 1.368 1_455 S
C309 C293 1.349 . S
C309 H301 0.950 . S
C309 C307 1.327 . S
C310 C298 1.349 . S
C310 H304 0.950 . S
C310 C311 1.327 . S
C311 H305 0.950 . S
C311 C310 1.327 . S
C311 C315 1.429 . S
C312 C295 1.574 1_556 S
C312 H306 0.949 . S
C312 C316 1.368 1_655 S
C313 C294 1.429 . S
C313 C307 1.429 . S
C313 C314 1.523 . S
C314 C295 1.368 . S
C314 C308 1.368 1_655 S
C314 C313 1.523 . S
C315 C299 1.429 . S
C315 C311 1.429 . S
C315 C316 1.523 . S
C316 C300 1.368 . S
C316 C312 1.368 1_455 S
C316 C315 1.523 . S
H317 C292 0.950 . S
H318 C294 0.950 1_455 S
H319 C295 0.949 . S
H320 C297 0.950 . S
H321 C299 0.950 1_655 S
C322 C323 1.349 . S
C322 C324 1.327 . S
C322 H347 0.950 . S
C323 C322 1.349 . S
C323 C339 1.349 . S
C324 C322 1.327 . S
C324 C343 1.429 . S
C324 H348 0.950 . S
C325 C342 1.574 . S
C325 C344 1.368 1_565 S
C325 H349 0.949 . S
H326 C330 0.949 . S
C327 C328 1.349 . S
C327 C329 1.327 . S
C327 H350 0.950 . S
C328 C327 1.349 . S
C328 C340 1.349 . S
C329 C327 1.327 . S
C329 C345 1.429 . S
C329 H351 0.950 . S
C330 H326 0.949 . S
C330 C338 1.574 . S
C330 C346 1.368 1_545 S
H331 C339 0.950 1_565 S
H332 C337 0.950 . S
H333 C338 0.949 . S
H334 C340 0.950 1_545 S
H335 C341 0.950 . S
H336 C342 0.949 . S
C337 H332 0.950 . S
C337 C339 1.327 1_565 S
C337 C343 1.429 1_565 S
C338 C330 1.574 . S
C338 H333 0.949 . S
C338 C344 1.368 . S
C339 C323 1.349 . S
C339 H331 0.950 1_545 S
C339 C337 1.327 1_545 S
C340 C328 1.349 . S
C340 H334 0.950 1_565 S
C340 C341 1.327 1_565 S
C341 H335 0.950 . S
C341 C340 1.327 1_545 S
C341 C345 1.429 1_545 S
C342 C325 1.574 . S
C342 H336 0.949 . S
C342 C346 1.368 . S
C343 C324 1.429 . S
C343 C337 1.429 1_545 S
C343 C344 1.523 . S
C344 C325 1.368 1_545 S
C344 C338 1.368 . S
C344 C343 1.523 . S
C345 C329 1.429 . S
C345 C341 1.429 1_565 S
C345 C346 1.523 . S
C346 C330 1.368 1_565 S
C346 C342 1.368 . S
C346 C345 1.523 . S
H347 C322 0.950 . S
H348 C324 0.950 . S
H349 C325 0.949 . S
H350 C327 0.950 . S
H351 C329 0.950 . S
C352 C353 1.349 . S
C352 C354 1.327 . S
C352 H377 0.950 . S
C353 C352 1.349 . S
C353 C369 1.349 . S
C354 C352 1.327 . S
C354 C373 1.429 . S
C354 H378 0.950 . S
C355 C372 1.574 . S
C355 C374 1.368 . S
C355 H379 0.949 . S
H356 C360 0.949 . S
C357 C358 1.349 . S
C357 C359 1.327 . S
C357 H380 0.950 . S
C358 C357 1.349 . S
C358 C370 1.349 . S
C359 C357 1.327 . S
C359 C375 1.429 . S
C359 H381 0.950 . S
C360 H356 0.949 . S
C360 C368 1.574 . S
C360 C376 1.368 . S
H361 C369 0.950 . S
H362 C367 0.950 . S
H363 C368 0.949 . S
H364 C370 0.950 . S
H365 C371 0.950 . S
H366 C372 0.949 . S
C367 H362 0.950 . S
C367 C369 1.327 . S
C367 C373 1.429 . S
C368 C360 1.574 . S
C368 H363 0.949 . S
C368 C374 1.368 . S
C369 C353 1.349 . S
C369 H361 0.950 . S
C369 C367 1.327 . S
C370 C358 1.349 . S
C370 H364 0.950 . S
C370 C371 1.327 . S
C371 H365 0.950 . S
C371 C370 1.327 . S
C371 C375 1.429 . S
C372 C355 1.574 . S
C372 H366 0.949 . S
C372 C376 1.368 . S
C373 C354 1.429 . S
C373 C367 1.429 . S
C373 C374 1.523 . S
C374 C355 1.368 . S
C374 C368 1.368 . S
C374 C373 1.523 . S
C375 C359 1.429 . S
C375 C371 1.429 . S
C375 C376 1.523 . S
C376 C360 1.368 . S
C376 C372 1.368 . S
C376 C375 1.523 . S
H377 C352 0.950 . S
H378 C354 0.950 . S
H379 C355 0.949 . S
H380 C357 0.950 . S
H381 C359 0.950 . S
C382 C383 1.349 . S
C382 C384 1.327 . S
C382 H407 0.950 . S
C383 C382 1.349 . S
C383 C399 1.349 . S
C384 C382 1.327 . S
C384 C403 1.429 . S
C384 H408 0.950 . S
C385 C402 1.574 . S
C385 C404 1.368 . S
C385 H409 0.949 . S
H386 C390 0.949 . S
C387 C388 1.349 . S
C387 C389 1.327 . S
C387 H410 0.950 . S
C388 C387 1.349 . S
C388 C400 1.349 . S
C389 C387 1.327 . S
C389 C405 1.429 . S
C389 H411 0.950 . S
C390 H386 0.949 . S
C390 C398 1.574 . S
C390 C406 1.368 . S
H391 C399 0.950 . S
H392 C397 0.950 . S
H393 C398 0.949 . S
H394 C400 0.950 . S
H395 C401 0.950 . S
H396 C402 0.949 . S
C397 H392 0.950 . S
C397 C399 1.327 . S
C397 C403 1.429 . S
C398 C390 1.574 . S
C398 H393 0.949 . S
C398 C404 1.368 . S
C399 C383 1.349 . S
C399 H391 0.950 . S
C399 C397 1.327 . S
C400 C388 1.349 . S
C400 H394 0.950 . S
C400 C401 1.327 . S
C401 H395 0.950 . S
C401 C400 1.327 . S
C401 C405 1.429 . S
C402 C385 1.574 . S
C402 H396 0.949 . S
C402 C406 1.368 . S
C403 C384 1.429 . S
C403 C397 1.429 . S
C403 C404 1.523 . S
C404 C385 1.368 . S
C404 C398 1.368 . S
C404 C403 1.523 . S
C405 C389 1.429 . S
C405 C401 1.429 . S
C405 C406 1.523 . S
C406 C390 1.368 . S
C406 C402 1.368 . S
C406 C405 1.523 . S
H407 C382 0.950 . S
H408 C384 0.950 . S
H409 C385 0.949 . S
H410 C387 0.950 . S
H411 C389 0.950 . S
C412 C413 1.349 . S
C412 C414 1.327 . S
C412 H437 0.950 . S
C413 C412 1.349 . S
C413 C429 1.349 . S
C414 C412 1.327 . S
C414 C433 1.429 . S
C414 H438 0.950 . S
C415 C432 1.574 . S
C415 C434 1.368 . S
C415 H439 0.949 . S
H416 C420 0.949 . S
C417 C418 1.349 . S
C417 C419 1.327 . S
C417 H440 0.950 . S
C418 C417 1.349 . S
C418 C430 1.349 . S
C419 C417 1.327 . S
C419 C435 1.429 . S
C419 H441 0.950 . S
C420 H416 0.949 . S
C420 C428 1.574 . S
C420 C436 1.368 . S
H421 C429 0.950 . S
H422 C427 0.950 . S
H423 C428 0.949 . S
H424 C430 0.950 . S
H425 C431 0.950 . S
H426 C432 0.949 . S
C427 H422 0.950 . S
C427 C429 1.327 . S
C427 C433 1.429 . S
C428 C420 1.574 . S
C428 H423 0.949 . S
C428 C434 1.368 . S
C429 C413 1.349 . S
C429 H421 0.950 . S
C429 C427 1.327 . S
C430 C418 1.349 . S
C430 H424 0.950 . S
C430 C431 1.327 . S
C431 H425 0.950 . S
C431 C430 1.327 . S
C431 C435 1.429 . S
C432 C415 1.574 . S
C432 H426 0.949 . S
C432 C436 1.368 . S
C433 C414 1.429 . S
C433 C427 1.429 . S
C433 C434 1.523 . S
C434 C415 1.368 . S
C434 C428 1.368 . S
C434 C433 1.523 . S
C435 C419 1.429 . S
C435 C431 1.429 . S
C435 C436 1.523 . S
C436 C420 1.368 . S
C436 C432 1.368 . S
C436 C435 1.523 . S
H437 C412 0.950 . S
H438 C414 0.950 . S
H439 C415 0.949 . S
H440 C417 0.950 . S
H441 C419 0.950 . S
C442 C443 1.349 . S
C442 C444 1.327 . S
C442 H467 0.950 . S
C443 C442 1.349 . S
C443 C459 1.349 . S
C444 C442 1.327 . S
C444 C463 1.429 . S
C444 H468 0.950 . S
C445 C462 1.574 . S
C445 C464 1.368 . S
C445 H469 0.949 . S
H446 C450 0.949 . S
C447 C448 1.349 . S
C447 C449 1.327 . S
C447 H470 0.950 . S
C448 C447 1.349 . S
C448 C460 1.349 . S
C449 C447 1.327 . S
C449 C465 1.429 . S
C449 H471 0.950 . S
C450 H446 0.949 . S
C450 C458 1.574 . S
C450 C466 1.368 . S
H451 C459 0.950 . S
H452 C457 0.950 . S
H453 C458 0.949 . S
H454 C460 0.950 . S
H455 C461 0.950 . S
H456 C462 0.949 . S
C457 H452 0.950 . S
C457 C459 1.327 . S
C457 C463 1.429 . S
C458 C450 1.574 . S
C458 H453 0.949 . S
C458 C464 1.368 . S
C459 C443 1.349 . S
C459 H451 0.950 . S
C459 C457 1.327 . S
C460 C448 1.349 . S
C460 H454 0.950 . S
C460 C461 1.327 . S
C461 H455 0.950 . S
C461 C460 1.327 . S
C461 C465 1.429 . S
C462 C445 1.574 . S
C462 H456 0.949 . S
C462 C466 1.368 . S
C463 C444 1.429 . S
C463 C457 1.429 . S
C463 C464 1.523 . S
C464 C445 1.368 . S
C464 C458 1.368 . S
C464 C463 1.523 . S
C465 C449 1.429 . S
C465 C461 1.429 . S
C465 C466 1.523 . S
C466 C450 1.368 . S
C466 C462 1.368 . S
C466 C465 1.523 . S
H467 C442 0.950 . S
H468 C444 0.950 . S
H469 C445 0.949 . S
H470 C447 0.950 . S
H471 C449 0.950 . S
C472 C473 1.349 . S
C472 C474 1.327 . S
C472 H497 0.950 . S
C473 C472 1.349 . S
C473 C489 1.349 . S
C474 C472 1.327 . S
C474 C493 1.429 . S
C474 H498 0.950 . S
C475 C492 1.574 1_545 S
C475 C494 1.368 . S
C475 H499 0.949 . S
H476 C480 0.949 . S
C477 C478 1.349 . S
C477 C479 1.327 . S
C477 H500 0.950 . S
C478 C477 1.349 . S
C478 C490 1.349 . S
C479 C477 1.327 . S
C479 C495 1.429 . S
C479 H501 0.950 . S
C480 H476 0.949 . S
C480 C488 1.574 1_565 S
C480 C496 1.368 . S
H481 C489 0.950 . S
H482 C487 0.950 . S
H483 C488 0.949 . S
H484 C490 0.950 . S
H485 C491 0.950 . S
H486 C492 0.949 . S
C487 H482 0.950 . S
C487 C489 1.327 . S
C487 C493 1.429 . S
C488 C480 1.574 1_545 S
C488 H483 0.949 . S
C488 C494 1.368 1_655 S
C489 C473 1.349 . S
C489 H481 0.950 . S
C489 C487 1.327 . S
C490 C478 1.349 . S
C490 H484 0.950 . S
C490 C491 1.327 . S
C491 H485 0.950 . S
C491 C490 1.327 . S
C491 C495 1.429 . S
C492 C475 1.574 1_565 S
C492 H486 0.949 . S
C492 C496 1.368 1_455 S
C493 C474 1.429 . S
C493 C487 1.429 . S
C493 C494 1.523 . S
C494 C475 1.368 . S
C494 C488 1.368 1_455 S
C494 C493 1.523 . S
C495 C479 1.429 . S
C495 C491 1.429 . S
C495 C496 1.523 . S
C496 C480 1.368 . S
C496 C492 1.368 1_655 S
C496 C495 1.523 . S
H497 C472 0.950 . S
H498 C474 0.950 . S
H499 C475 0.949 . S
H500 C477 0.950 . S
H501 C479 0.950 . S
C502 C503 1.349 . S
C502 C504 1.327 . S
C502 H527 0.950 . S
C503 C502 1.349 . S
C503 C519 1.349 . S
C504 C502 1.327 . S
C504 C523 1.429 . S
C504 H528 0.950 . S
C505 C522 1.574 1_455 S
C505 C524 1.368 1_545 S
C505 H529 0.949 . S
H506 C510 0.949 . S
C507 C508 1.349 . S
C507 C509 1.327 . S
C507 H530 0.950 . S
C508 C507 1.349 . S
C508 C520 1.349 . S
C509 C507 1.327 . S
C509 C525 1.429 . S
C509 H531 0.950 . S
C510 H506 0.949 . S
C510 C518 1.574 1_655 S
C510 C526 1.368 1_565 S
H511 C519 0.950 . S
H512 C517 0.950 . S
H513 C518 0.949 . S
H514 C520 0.950 . S
H515 C521 0.950 . S
H516 C522 0.949 . S
C517 H512 0.950 . S
C517 C519 1.327 . S
C517 C523 1.429 . S
C518 C510 1.574 1_455 S
C518 H513 0.949 . S
C518 C524 1.368 . S
C519 C503 1.349 . S
C519 H511 0.950 . S
C519 C517 1.327 . S
C520 C508 1.349 . S
C520 H514 0.950 . S
C520 C521 1.327 . S
C521 H515 0.950 . S
C521 C520 1.327 . S
C521 C525 1.429 . S
C522 C505 1.574 1_655 S
C522 H516 0.949 . S
C522 C526 1.368 . S
C523 C504 1.429 . S
C523 C517 1.429 . S
C523 C524 1.523 . S
C524 C505 1.368 1_565 S
C524 C518 1.368 . S
C524 C523 1.523 . S
C525 C509 1.429 . S
C525 C521 1.429 . S
C525 C526 1.523 . S
C526 C510 1.368 1_545 S
C526 C522 1.368 . S
C526 C525 1.523 . S
H527 C502 0.950 . S
H528 C504 0.950 . S
H529 C505 0.949 . S
H530 C507 0.950 . S
H531 C509 0.950 . S
C532 C533 1.349 . S
C532 C534 1.327 . S
C532 H557 0.950 . S
C533 C532 1.349 . S
C533 C549 1.349 . S
C534 C532 1.327 . S
C534 C553 1.429 . S
C534 H558 0.950 . S
C535 C552 1.574 1_545 S
C535 C554 1.368 . S
C535 H559 0.949 . S
H536 C540 0.949 . S
C537 C538 1.349 . S
C537 C539 1.327 . S
C537 H560 0.950 . S
C538 C537 1.349 . S
C538 C550 1.349 . S
C539 C537 1.327 . S
C539 C555 1.429 . S
C539 H561 0.950 . S
C540 H536 0.949 . S
C540 C548 1.574 1_565 S
C540 C556 1.368 . S
H541 C549 0.950 . S
H542 C547 0.950 . S
H543 C548 0.949 . S
H544 C550 0.950 . S
H545 C551 0.950 . S
H546 C552 0.949 . S
C547 H542 0.950 . S
C547 C549 1.327 . S
C547 C553 1.429 . S
C548 C540 1.574 1_545 S
C548 H543 0.949 . S
C548 C554 1.368 1_455 S
C549 C533 1.349 . S
C549 H541 0.950 . S
C549 C547 1.327 . S
C550 C538 1.349 . S
C550 H544 0.950 . S
C550 C551 1.327 . S
C551 H545 0.950 . S
C551 C550 1.327 . S
C551 C555 1.429 . S
C552 C535 1.574 1_565 S
C552 H546 0.949 . S
C552 C556 1.368 1_655 S
C553 C534 1.429 . S
C553 C547 1.429 . S
C553 C554 1.523 . S
C554 C535 1.368 . S
C554 C548 1.368 1_655 S
C554 C553 1.523 . S
C555 C539 1.429 . S
C555 C551 1.429 . S
C555 C556 1.523 . S
C556 C540 1.368 . S
C556 C552 1.368 1_455 S
C556 C555 1.523 . S
H557 C532 0.950 . S
H558 C534 0.950 . S
H559 C535 0.949 . S
H560 C537 0.950 . S
H561 C539 0.950 . S
C562 C563 1.349 . S
C562 C564 1.327 . S
C562 H587 0.950 . S
C563 C562 1.349 . S
C563 C579 1.349 . S
C564 C562 1.327 . S
C564 C583 1.429 . S
C564 H588 0.950 . S
C565 C582 1.574 1_655 S
C565 C584 1.368 1_545 S
C565 H589 0.949 . S
H566 C570 0.949 . S
C567 C568 1.349 . S
C567 C569 1.327 . S
C567 H590 0.950 . S
C568 C567 1.349 . S
C568 C580 1.349 . S
C569 C567 1.327 . S
C569 C585 1.429 . S
C569 H591 0.950 . S
C570 H566 0.949 . S
C570 C578 1.574 1_455 S
C570 C586 1.368 1_565 S
H571 C579 0.950 . S
H572 C577 0.950 . S
H573 C578 0.949 . S
H574 C580 0.950 . S
H575 C581 0.950 . S
H576 C582 0.949 . S
C577 H572 0.950 . S
C577 C579 1.327 . S
C577 C583 1.429 . S
C578 C570 1.574 1_655 S
C578 H573 0.949 . S
C578 C584 1.368 . S
C579 C563 1.349 . S
C579 H571 0.950 . S
C579 C577 1.327 . S
C580 C568 1.349 . S
C580 H574 0.950 . S
C580 C581 1.327 . S
C581 H575 0.950 . S
C581 C580 1.327 . S
C581 C585 1.429 . S
C582 C565 1.574 1_455 S
C582 H576 0.949 . S
C582 C586 1.368 . S
C583 C564 1.429 . S
C583 C577 1.429 . S
C583 C584 1.523 . S
C584 C565 1.368 1_565 S
C584 C578 1.368 . S
C584 C583 1.523 . S
C585 C569 1.429 . S
C585 C581 1.429 . S
C585 C586 1.523 . S
C586 C570 1.368 1_545 S
C586 C582 1.368 . S
C586 C585 1.523 . S
H587 C562 0.950 . S
H588 C564 0.950 . S
H589 C565 0.949 . S
H590 C567 0.950 . S
H591 C569 0.950 . S
C113 C12 1.802 . S
C118 C28 1.802 . S
C143 C42 1.802 . S
C148 C26 1.802 . S
C173 C85 1.800 . S
C178 C57 1.800 . S
C203 C71 1.800 . S
C208 C99 1.800 . S
C233 C96 1.617 . S
C238 C1 1.617 . S
C263 C15 1.617 . S
C268 C110 1.617 . S
C293 C41 1.617 . S
C298 C68 1.617 . S
C323 C82 1.618 . S
C328 C55 1.617 . S
C353 C0 1.680 . S
C358 C83 1.680 . S
C383 C97 1.680 . S
C388 C14 1.680 . S
C413 C111 1.680 . S
C418 C40 1.680 . S
C443 C54 1.680 . S
C448 C69 1.680 . S
C473 C13 1.402 . S
C478 C29 1.402 . S
C503 C43 1.402 . S
C508 C27 1.402 . S
C533 C84 1.403 . S
C538 C56 1.403 . S
C563 C98 1.403 . S
C568 C70 1.403 . S
