# Generated by pormake.
# Topology afi, (4)-cn, num edge types: 1
# Building blocks:
#     Node 0, Type 0, BuildingBlock: NAHDIM_clean_sbu_0, # of connection points: 4
#     Node 1, Type 0, BuildingBlock: NAHDIM_clean_sbu_0, # of connection points: 4
#     Node 2, Type 0, BuildingBlock: NAHDIM_clean_sbu_0, # of connection points: 4
#     Node 3, Type 0, BuildingBlock: NAHDIM_clean_sbu_0, # of connection points: 4
#     Node 4, Type 0, BuildingBlock: NAHDIM_clean_sbu_0, # of connection points: 4
#     Node 5, Type 0, BuildingBlock: NAHDIM_clean_sbu_0, # of connection points: 4
#     Node 6, Type 0, BuildingBlock: NAHDIM_clean_sbu_0, # of connection points: 4
#     Node 7, Type 0, BuildingBlock: NAHDIM_clean_sbu_0, # of connection points: 4
#     Node 8, Type 0, BuildingBlock: NAHDIM_clean_sbu_0, # of connection points: 4
#     Node 9, Type 0, BuildingBlock: NAHDIM_clean_sbu_0, # of connection points: 4
#     Node 10, Type 0, BuildingBlock: NAHDIM_clean_sbu_0, # of connection points: 4
#     Node 11, Type 0, BuildingBlock: NAHDIM_clean_sbu_0, # of connection points: 4
#     Node 12, Type 0, BuildingBlock: NAHDIM_clean_sbu_0, # of connection points: 4
#     Node 13, Type 0, BuildingBlock: NAHDIM_clean_sbu_0, # of connection points: 4
#     Node 14, Type 0, BuildingBlock: NAHDIM_clean_sbu_0, # of connection points: 4
#     Node 15, Type 0, BuildingBlock: NAHDIM_clean_sbu_0, # of connection points: 4
#     Node 16, Type 0, BuildingBlock: NAHDIM_clean_sbu_0, # of connection points: 4
#     Node 17, Type 0, BuildingBlock: NAHDIM_clean_sbu_0, # of connection points: 4
#     Node 18, Type 0, BuildingBlock: NAHDIM_clean_sbu_0, # of connection points: 4
#     Node 19, Type 0, BuildingBlock: NAHDIM_clean_sbu_0, # of connection points: 4
#     Node 20, Type 0, BuildingBlock: NAHDIM_clean_sbu_0, # of connection points: 4
#     Node 21, Type 0, BuildingBlock: NAHDIM_clean_sbu_0, # of connection points: 4
#     Node 22, Type 0, BuildingBlock: NAHDIM_clean_sbu_0, # of connection points: 4
#     Node 23, Type 0, BuildingBlock: NAHDIM_clean_sbu_0, # of connection points: 4
#     Edge 24, Type (0, 0), BuildingBlock: EZIPEK_clean_linker_0, # of connection points: 2
#     Edge 25, Type (0, 0), BuildingBlock: EZIPEK_clean_linker_0, # of connection points: 2
#     Edge 26, Type (0, 0), BuildingBlock: EZIPEK_clean_linker_0, # of connection points: 2
#     Edge 27, Type (0, 0), BuildingBlock: EZIPEK_clean_linker_0, # of connection points: 2
#     Edge 28, Type (0, 0), BuildingBlock: EZIPEK_clean_linker_0, # of connection points: 2
#     Edge 29, Type (0, 0), BuildingBlock: EZIPEK_clean_linker_0, # of connection points: 2
#     Edge 30, Type (0, 0), BuildingBlock: EZIPEK_clean_linker_0, # of connection points: 2
#     Edge 31, Type (0, 0), BuildingBlock: EZIPEK_clean_linker_0, # of connection points: 2
#     Edge 32, Type (0, 0), BuildingBlock: EZIPEK_clean_linker_0, # of connection points: 2
#     Edge 33, Type (0, 0), BuildingBlock: EZIPEK_clean_linker_0, # of connection points: 2
#     Edge 34, Type (0, 0), BuildingBlock: EZIPEK_clean_linker_0, # of connection points: 2
#     Edge 35, Type (0, 0), BuildingBlock: EZIPEK_clean_linker_0, # of connection points: 2
#     Edge 36, Type (0, 0), BuildingBlock: EZIPEK_clean_linker_0, # of connection points: 2
#     Edge 37, Type (0, 0), BuildingBlock: EZIPEK_clean_linker_0, # of connection points: 2
#     Edge 38, Type (0, 0), BuildingBlock: EZIPEK_clean_linker_0, # of connection points: 2
#     Edge 39, Type (0, 0), BuildingBlock: EZIPEK_clean_linker_0, # of connection points: 2
#     Edge 40, Type (0, 0), BuildingBlock: EZIPEK_clean_linker_0, # of connection points: 2
#     Edge 41, Type (0, 0), BuildingBlock: EZIPEK_clean_linker_0, # of connection points: 2
#     Edge 42, Type (0, 0), BuildingBlock: EZIPEK_clean_linker_0, # of connection points: 2
#     Edge 43, Type (0, 0), BuildingBlock: EZIPEK_clean_linker_0, # of connection points: 2
#     Edge 44, Type (0, 0), BuildingBlock: EZIPEK_clean_linker_0, # of connection points: 2
#     Edge 45, Type (0, 0), BuildingBlock: EZIPEK_clean_linker_0, # of connection points: 2
#     Edge 46, Type (0, 0), BuildingBlock: EZIPEK_clean_linker_0, # of connection points: 2
#     Edge 47, Type (0, 0), BuildingBlock: EZIPEK_clean_linker_0, # of connection points: 2
#     Edge 48, Type (0, 0), BuildingBlock: EZIPEK_clean_linker_0, # of connection points: 2
#     Edge 49, Type (0, 0), BuildingBlock: EZIPEK_clean_linker_0, # of connection points: 2
#     Edge 50, Type (0, 0), BuildingBlock: EZIPEK_clean_linker_0, # of connection points: 2
#     Edge 51, Type (0, 0), BuildingBlock: EZIPEK_clean_linker_0, # of connection points: 2
#     Edge 52, Type (0, 0), BuildingBlock: EZIPEK_clean_linker_0, # of connection points: 2
#     Edge 53, Type (0, 0), BuildingBlock: EZIPEK_clean_linker_0, # of connection points: 2
#     Edge 54, Type (0, 0), BuildingBlock: EZIPEK_clean_linker_0, # of connection points: 2
#     Edge 55, Type (0, 0), BuildingBlock: EZIPEK_clean_linker_0, # of connection points: 2
#     Edge 56, Type (0, 0), BuildingBlock: EZIPEK_clean_linker_0, # of connection points: 2
#     Edge 57, Type (0, 0), BuildingBlock: EZIPEK_clean_linker_0, # of connection points: 2
#     Edge 58, Type (0, 0), BuildingBlock: EZIPEK_clean_linker_0, # of connection points: 2
#     Edge 59, Type (0, 0), BuildingBlock: EZIPEK_clean_linker_0, # of connection points: 2
#     Edge 60, Type (0, 0), BuildingBlock: EZIPEK_clean_linker_0, # of connection points: 2
#     Edge 61, Type (0, 0), BuildingBlock: EZIPEK_clean_linker_0, # of connection points: 2
#     Edge 62, Type (0, 0), BuildingBlock: EZIPEK_clean_linker_0, # of connection points: 2
#     Edge 63, Type (0, 0), BuildingBlock: EZIPEK_clean_linker_0, # of connection points: 2
#     Edge 64, Type (0, 0), BuildingBlock: EZIPEK_clean_linker_0, # of connection points: 2
#     Edge 65, Type (0, 0), BuildingBlock: EZIPEK_clean_linker_0, # of connection points: 2
#     Edge 66, Type (0, 0), BuildingBlock: EZIPEK_clean_linker_0, # of connection points: 2
#     Edge 67, Type (0, 0), BuildingBlock: EZIPEK_clean_linker_0, # of connection points: 2
#     Edge 68, Type (0, 0), BuildingBlock: EZIPEK_clean_linker_0, # of connection points: 2
#     Edge 69, Type (0, 0), BuildingBlock: EZIPEK_clean_linker_0, # of connection points: 2
#     Edge 70, Type (0, 0), BuildingBlock: EZIPEK_clean_linker_0, # of connection points: 2
#     Edge 71, Type (0, 0), BuildingBlock: EZIPEK_clean_linker_0, # of connection points: 2
# Relax obj value: 0.071
# Max RMSD: 0.085
# Mean RMSD: 0.085
data_MOF--net-afi--node1-NAHDIM_clean_sbu_0--edge1-EZIPEK_clean_linker_0
_symmetry_space_group_name_H-M    P1
_symmetry_Int_Tables_number       1
_symmetry_cell_setting            triclinic
loop_
_symmetry_equiv_pos_as_xyz
'x, y, z'
_cell_length_a     50.576629
_cell_length_b     50.553561
_cell_length_c     28.639363
_cell_angle_alpha  90.020211
_cell_angle_beta   90.00873
_cell_angle_gamma 120.005
loop_
_atom_site_label
_atom_site_type_symbol
_atom_site_fract_x
_atom_site_fract_y
_atom_site_fract_z
_atom_type_partial_charge
C0 C 0.45139 0.169 0.253 0.0
O1 O 0.45586 0.15165 0.28232 0.0
O2 O 0.49088 0.13112 0.21336 0.0
Zn3 Zn 0.45202 0.12718 0.18742 0.0
O4 O 0.45111 0.12542 0.11713 0.0
C5 C 0.41678 0.06383 0.19811 0.0
O6 O 0.4345 0.06565 0.16336 0.0
O7 O 0.44846 0.1628 0.2097 0.0
C8 C 0.43034 0.1275 0.09535 0.0
O9 O 0.41008 0.13113 0.11886 0.0
C10 C 0.50602 0.12082 0.19255 0.0
O11 O 0.49771 0.10881 0.15072 0.0
O12 O 0.41823 0.08803 0.21371 0.0
C13 C 0.28575 0.45365 0.25543 0.0
O14 O 0.30392 0.45275 0.28737 0.0
O15 O 0.36672 0.49747 0.21774 0.0
Zn16 Zn 0.33202 0.45838 0.19245 0.0
O17 O 0.33321 0.45753 0.12258 0.0
C18 C 0.36337 0.42762 0.2109 0.0
O19 O 0.38313 0.45076 0.18557 0.0
O20 O 0.29275 0.45526 0.21257 0.0
C21 C 0.31588 0.43262 0.10158 0.0
O22 O 0.29781 0.40806 0.12584 0.0
C23 C 0.38511 0.5198 0.19254 0.0
O24 O 0.38138 0.51872 0.14707 0.0
O25 O 0.33713 0.42434 0.21827 0.0
C26 C 0.81538 0.27529 0.195 0.0
O27 O 0.81117 0.2913 0.16277 0.0
O28 O 0.87093 0.35655 0.20702 0.0
Zn29 Zn 0.87572 0.32212 0.18171 0.0
O30 O 0.87296 0.32101 0.11174 0.0
C31 C 0.93862 0.35657 0.19369 0.0
O32 O 0.93307 0.37543 0.16978 0.0
O33 O 0.84224 0.28346 0.20881 0.0
C34 C 0.88361 0.30739 0.08768 0.0
O35 O 0.89655 0.29364 0.10855 0.0
C36 C 0.8648 0.37351 0.182 0.0
O37 O 0.86057 0.36867 0.13686 0.0
O38 O 0.91688 0.32981 0.20225 0.0
C39 C 0.54592 0.83585 0.25065 0.0
O40 O 0.54608 0.85473 0.28232 0.0
O41 O 0.50203 0.87234 0.21473 0.0
Zn42 Zn 0.54041 0.87655 0.18702 0.0
O43 O 0.5389 0.87673 0.11713 0.0
C44 C 0.57337 0.93945 0.19463 0.0
O45 O 0.55122 0.9352 0.16622 0.0
O46 O 0.5446 0.84114 0.20768 0.0
C47 C 0.5607 0.87698 0.09481 0.0
O48 O 0.58324 0.8771 0.11779 0.0
C49 C 0.47633 0.8595 0.19422 0.0
O50 O 0.47373 0.84775 0.15241 0.0
O51 O 0.57496 0.91657 0.20922 0.0
C52 C 0.71054 0.53388 0.20845 0.0
O53 O 0.69795 0.51842 0.17006 0.0
O54 O 0.62328 0.50582 0.2241 0.0
Zn55 Zn 0.66056 0.54446 0.20115 0.0
O56 O 0.66323 0.54517 0.13098 0.0
C57 C 0.63028 0.57764 0.20968 0.0
O58 O 0.6098 0.5531 0.18775 0.0
O59 O 0.69884 0.548 0.22861 0.0
C60 C 0.64001 0.52941 0.10547 0.0
O61 O 0.61332 0.5116 0.12465 0.0
C62 C 0.62228 0.48099 0.23525 0.0
O63 O 0.64664 0.47828 0.23092 0.0
O64 O 0.65565 0.57997 0.22091 0.0
C65 C 0.18104 0.71272 0.21925 0.0
O66 O 0.18704 0.69367 0.19677 0.0
O67 O 0.12733 0.63278 0.22011 0.0
Zn68 Zn 0.12147 0.66691 0.19642 0.0
O69 O 0.12486 0.66939 0.12642 0.0
C70 C 0.05817 0.6308 0.20488 0.0
O71 O 0.06423 0.61388 0.17699 0.0
O72 O 0.15353 0.70639 0.2239 0.0
C73 C 0.10862 0.67677 0.10197 0.0
O74 O 0.08898 0.68282 0.12229 0.0
C75 C 0.13676 0.61843 0.19512 0.0
O76 O 0.14479 0.6266 0.15156 0.0
O77 O 0.07961 0.65687 0.21742 0.0
C78 C 0.81258 0.52367 0.27593 0.0
O79 O 0.80599 0.49705 0.29345 0.0
O80 O 0.86363 0.4952 0.2583 0.0
Zn81 Zn 0.87244 0.53435 0.29 0.0
O82 O 0.87338 0.53041 0.35981 0.0
C83 C 0.93593 0.56325 0.27588 0.0
O84 O 0.9316 0.53935 0.30003 0.0
O85 O 0.8403 0.54445 0.27176 0.0
C86 C 0.88674 0.55445 0.38453 0.0
O87 O 0.89895 0.58133 0.36431 0.0
C88 C 0.86905 0.4759 0.27798 0.0
O89 O 0.87906 0.48038 0.32119 0.0
O90 O 0.91348 0.56717 0.26751 0.0
C91 C 0.28234 0.82197 0.29665 0.0
O92 O 0.29569 0.81926 0.33421 0.0
O93 O 0.36712 0.87898 0.27511 0.0
Zn94 Zn 0.33203 0.88276 0.30128 0.0
O95 O 0.33084 0.88261 0.37164 0.0
C96 C 0.36422 0.94518 0.28127 0.0
O97 O 0.38549 0.94138 0.30111 0.0
O98 O 0.29324 0.84774 0.27662 0.0
C99 C 0.35386 0.88964 0.39742 0.0
O100 O 0.38034 0.89715 0.37858 0.0
C101 C 0.37458 0.85939 0.28708 0.0
O102 O 0.35931 0.83959 0.32016 0.0
O103 O 0.33726 0.92261 0.27819 0.0
C104 C 0.456 0.27954 0.31654 0.0
O105 O 0.47357 0.29478 0.35194 0.0
O106 O 0.49096 0.36315 0.29083 0.0
Zn107 Zn 0.44922 0.33167 0.31325 0.0
O108 O 0.44684 0.33337 0.38307 0.0
C109 C 0.42047 0.36585 0.29446 0.0
O110 O 0.4408 0.38349 0.32546 0.0
O111 O 0.44214 0.29056 0.29392 0.0
C112 C 0.42252 0.31459 0.40413 0.0
O113 O 0.39895 0.29431 0.38005 0.0
C114 C 0.50838 0.38721 0.31374 0.0
O115 O 0.49964 0.39187 0.35462 0.0
O116 O 0.41846 0.34055 0.2836 0.0
C117 C 0.17996 0.46313 0.30331 0.0
O118 O 0.18332 0.48688 0.32699 0.0
O119 O 0.13097 0.49203 0.27024 0.0
Zn120 Zn 0.12003 0.45218 0.30247 0.0
O121 O 0.11858 0.45574 0.37262 0.0
C122 C 0.05877 0.42371 0.26754 0.0
O123 O 0.06285 0.4511 0.27477 0.0
O124 O 0.15372 0.44356 0.28829 0.0
C125 C 0.09549 0.45229 0.39532 0.0
O126 O 0.07031 0.44608 0.37322 0.0
C127 C 0.12284 0.51052 0.28529 0.0
O128 O 0.10734 0.5046 0.32434 0.0
O129 O 0.08001 0.41809 0.27707 0.0
C130 C 0.70778 0.17722 0.2806 0.0
O131 O 0.68905 0.18444 0.30121 0.0
O132 O 0.62831 0.12644 0.27649 0.0
Zn133 Zn 0.66037 0.11897 0.30483 0.0
O134 O 0.66044 0.12249 0.3745 0.0
C135 C 0.63788 0.06517 0.24975 0.0
O136 O 0.63499 0.08274 0.21883 0.0
O137 O 0.70089 0.14942 0.27834 0.0
C138 C 0.68078 0.12049 0.39765 0.0
O139 O 0.70195 0.11761 0.37554 0.0
C140 C 0.60114 0.11247 0.29183 0.0
O141 O 0.59428 0.09403 0.32777 0.0
O142 O 0.64998 0.07618 0.28907 0.0
C143 C 0.53501 0.72066 0.30333 0.0
O144 O 0.51028 0.70102 0.32589 0.0
O145 O 0.50548 0.64108 0.27686 0.0
Zn146 Zn 0.54356 0.67089 0.3116 0.0
O147 O 0.53585 0.66715 0.38092 0.0
C148 C 0.58015 0.65424 0.25564 0.0
O149 O 0.56568 0.65852 0.221 0.0
O150 O 0.55468 0.71318 0.29206 0.0
C151 C 0.54393 0.65166 0.40592 0.0
O152 O 0.55703 0.63762 0.38645 0.0
C153 C 0.48881 0.61394 0.29142 0.0
O154 O 0.49577 0.60514 0.33033 0.0
O155 O 0.57625 0.6606 0.29703 0.0
C156 C 0.52358 0.81352 0.78238 0.0
O157 O 0.49866 0.80723 0.80544 0.0
O158 O 0.49525 0.86613 0.77887 0.0
Zn159 Zn 0.53547 0.8727 0.80266 0.0
O160 O 0.53499 0.87015 0.87228 0.0
C161 C 0.56511 0.92443 0.74371 0.0
O162 O 0.54429 0.90555 0.7143 0.0
O163 O 0.54399 0.84119 0.77603 0.0
C164 C 0.5597 0.87719 0.89339 0.0
O165 O 0.58479 0.88559 0.86939 0.0
C166 C 0.47202 0.85839 0.80446 0.0
O167 O 0.47286 0.85259 0.84896 0.0
O168 O 0.5671 0.91505 0.78394 0.0
C169 C 0.71551 0.54508 0.75035 0.0
O170 O 0.69697 0.54463 0.71783 0.0
O171 O 0.63616 0.49986 0.77683 0.0
Zn172 Zn 0.66745 0.53812 0.81023 0.0
O173 O 0.66333 0.53321 0.88035 0.0
C174 C 0.63722 0.57038 0.78192 0.0
O175 O 0.61324 0.54358 0.78998 0.0
O176 O 0.70826 0.54381 0.79304 0.0
C177 C 0.64619 0.5395 0.90468 0.0
O178 O 0.62958 0.54943 0.88435 0.0
C179 C 0.60941 0.48224 0.7922 0.0
O180 O 0.6012 0.48783 0.83282 0.0
O181 O 0.66383 0.57436 0.78827 0.0
C182 C 0.15612 0.71016 0.74417 0.0
O183 O 0.1366 0.69165 0.71297 0.0
O184 O 0.12095 0.63018 0.7787 0.0
Zn185 Zn 0.11622 0.66373 0.80772 0.0
O186 O 0.11557 0.66106 0.87759 0.0
C187 C 0.05354 0.63293 0.80007 0.0
O188 O 0.05857 0.61469 0.82652 0.0
O189 O 0.15151 0.70346 0.78721 0.0
C190 C 0.11931 0.68395 0.90117 0.0
O191 O 0.12422 0.70893 0.87962 0.0
C192 C 0.13529 0.61831 0.79751 0.0
O193 O 0.14804 0.6279 0.83865 0.0
O194 O 0.07598 0.65796 0.78617 0.0
C195 C 0.46009 0.17984 0.78062 0.0
O196 O 0.48489 0.18366 0.8015 0.0
O197 O 0.48056 0.12296 0.77119 0.0
Zn198 Zn 0.44276 0.11923 0.8007 0.0
O199 O 0.44631 0.12235 0.87056 0.0
C200 C 0.41022 0.05562 0.79469 0.0
O201 O 0.4326 0.05992 0.82264 0.0
O202 O 0.43733 0.15312 0.77607 0.0
C203 C 0.42341 0.11863 0.89406 0.0
O204 O 0.39811 0.11266 0.87248 0.0
C205 C 0.49989 0.11866 0.79314 0.0
O206 O 0.49632 0.11235 0.83794 0.0
O207 O 0.40798 0.07843 0.78169 0.0
C208 C 0.2725 0.46335 0.81149 0.0
O209 O 0.28794 0.4813 0.84642 0.0
O210 O 0.35696 0.49702 0.7825 0.0
Zn211 Zn 0.32456 0.45657 0.80817 0.0
O212 O 0.32645 0.45597 0.87828 0.0
C213 C 0.35789 0.42695 0.79282 0.0
O214 O 0.37545 0.44798 0.82303 0.0
O215 O 0.28353 0.44956 0.78872 0.0
C216 C 0.31494 0.43072 0.89997 0.0
O217 O 0.30204 0.40494 0.87652 0.0
C218 C 0.38045 0.51535 0.80578 0.0
O219 O 0.38357 0.50893 0.84913 0.0
O220 O 0.33257 0.42459 0.78121 0.0
C221 C 0.8073 0.27997 0.78532 0.0
O222 O 0.80362 0.29863 0.81294 0.0
O223 O 0.86397 0.36016 0.76806 0.0
Zn224 Zn 0.86892 0.3261 0.79535 0.0
O225 O 0.87022 0.32702 0.8657 0.0
C226 C 0.93197 0.35618 0.78399 0.0
O227 O 0.92884 0.37427 0.81354 0.0
O228 O 0.83401 0.28647 0.77314 0.0
C229 C 0.8764 0.30851 0.88634 0.0
O230 O 0.88135 0.28954 0.86157 0.0
C231 C 0.86971 0.38444 0.78956 0.0
O232 O 0.87846 0.3882 0.83339 0.0
O233 O 0.90854 0.3317 0.77086 0.0
C234 C 0.15992 0.45641 0.75426 0.0
O235 O 0.14552 0.4651 0.78306 0.0
O236 O 0.11941 0.49205 0.71631 0.0
Zn237 Zn 0.11526 0.45315 0.69016 0.0
O238 O 0.1154 0.45353 0.61991 0.0
C239 C 0.05361 0.42314 0.71802 0.0
O240 O 0.05778 0.45034 0.70852 0.0
O241 O 0.15068 0.44933 0.71248 0.0
C242 C 0.09829 0.46028 0.59642 0.0
O243 O 0.08017 0.46793 0.61779 0.0
C244 C 0.13827 0.51882 0.70231 0.0
O245 O 0.15687 0.5227 0.66764 0.0
O246 O 0.07548 0.41785 0.71283 0.0
C247 C 0.70068 0.17482 0.7098 0.0
O248 O 0.68231 0.17954 0.68311 0.0
O249 O 0.62082 0.11944 0.7183 0.0
Zn250 Zn 0.65505 0.11481 0.69165 0.0
O251 O 0.65693 0.11885 0.62162 0.0
C252 C 0.62246 0.05124 0.69253 0.0
O253 O 0.60586 0.05741 0.66422 0.0
O254 O 0.69419 0.14765 0.71896 0.0
C255 C 0.67382 0.11144 0.59892 0.0
O256 O 0.68961 0.10127 0.62133 0.0
C257 C 0.59888 0.1176 0.69425 0.0
O258 O 0.59823 0.11348 0.64889 0.0
O259 O 0.64671 0.073 0.70988 0.0
C260 C 0.53374 0.71233 0.71006 0.0
O261 O 0.51732 0.69838 0.67305 0.0
O262 O 0.50843 0.62786 0.72933 0.0
Zn263 Zn 0.54657 0.66405 0.70339 0.0
O264 O 0.54658 0.66629 0.63305 0.0
C265 C 0.57939 0.63355 0.71586 0.0
O266 O 0.55515 0.61294 0.69344 0.0
O267 O 0.54951 0.70224 0.72954 0.0
C268 C 0.532 0.64337 0.60642 0.0
O269 O 0.5149 0.61611 0.62433 0.0
C270 C 0.48131 0.61942 0.71647 0.0
O271 O 0.47636 0.63436 0.68334 0.0
O272 O 0.58227 0.65959 0.72384 0.0
C273 C 0.81974 0.53477 0.69557 0.0
O274 O 0.81414 0.51042 0.67138 0.0
O275 O 0.87128 0.50531 0.71035 0.0
Zn276 Zn 0.87826 0.54459 0.68131 0.0
O277 O 0.87425 0.54157 0.61137 0.0
C278 C 0.92836 0.5806 0.74162 0.0
O279 O 0.90752 0.56624 0.77381 0.0
O280 O 0.8471 0.55432 0.70589 0.0
C281 C 0.89733 0.55013 0.58505 0.0
O282 O 0.92442 0.55992 0.60354 0.0
C283 C 0.87001 0.48324 0.68731 0.0
O284 O 0.8718 0.48465 0.64156 0.0
O285 O 0.92079 0.57646 0.69884 0.0
C286 C 0.27226 0.81325 0.69224 0.0
O287 O 0.29172 0.80907 0.66743 0.0
O288 O 0.35118 0.86247 0.72623 0.0
Zn289 Zn 0.32241 0.87268 0.69201 0.0
O290 O 0.32733 0.87205 0.62194 0.0
C291 C 0.35575 0.93502 0.72225 0.0
O292 O 0.37896 0.93085 0.71462 0.0
O293 O 0.28002 0.83974 0.70745 0.0
C294 C 0.34649 0.89474 0.59802 0.0
O295 O 0.36493 0.92072 0.61867 0.0
C296 C 0.37759 0.8699 0.71104 0.0
O297 O 0.38683 0.88399 0.67082 0.0
O298 O 0.32874 0.91347 0.71453 0.0
C299 C 0.4592 0.28521 0.7054 0.0
O300 O 0.47899 0.30131 0.67276 0.0
O301 O 0.48696 0.36708 0.72034 0.0
Zn302 Zn 0.44683 0.33323 0.69689 0.0
O303 O 0.44587 0.33214 0.62687 0.0
C304 C 0.41896 0.36788 0.71282 0.0
O305 O 0.44256 0.38672 0.68738 0.0
O306 O 0.44151 0.29399 0.72162 0.0
C307 C 0.42051 0.31797 0.60557 0.0
O308 O 0.39493 0.30431 0.62941 0.0
C309 C 0.51093 0.38097 0.6957 0.0
O310 O 0.5107 0.37314 0.65191 0.0
O311 O 0.41443 0.34128 0.7212 0.0
C312 C 0.37762 0.0085 0.19581 0.0
C313 C 0.39854 0.03427 0.22214 0.0
C314 C 0.38872 0.00165 0.29046 0.0
C315 C 0.37239 0.97547 0.26187 0.0
N316 N 0.35433 0.95394 0.18504 0.0
N317 N 0.4276 0.05491 0.29328 0.0
C318 C 0.3672 0.97877 0.214 0.0
C319 C 0.40483 0.03088 0.26938 0.0
N320 N 0.36761 0.0125 0.15351 0.0
N321 N 0.38858 -0.00141 0.33788 0.0
H322 H 0.44078 0.07665 0.27912 0.0
H323 H 0.43533 0.05255 0.32588 0.0
H324 H 0.37645 0.9775 0.35452 0.0
H325 H 0.3977 0.01715 0.36069 0.0
H326 H 0.35019 0.99468 0.13464 0.0
H327 H 0.37454 0.03409 0.13967 0.0
H328 H 0.35328 0.95568 0.14892 0.0
H329 H 0.34712 0.93176 0.19622 0.0
C330 C 0.38357 0.3848 0.30031 0.0
C331 C 0.40098 0.37625 0.27182 0.0
C332 C 0.38506 0.3931 0.2026 0.0
C333 C 0.37261 0.40673 0.2319 0.0
N334 N 0.3631 0.41861 0.30982 0.0
N335 N 0.42116 0.3752 0.1957 0.0
C336 C 0.37227 0.40309 0.28111 0.0
C337 C 0.40222 0.38078 0.22277 0.0
N338 N 0.37752 0.37505 0.34559 0.0
N339 N 0.38008 0.39155 0.15551 0.0
H340 H 0.43454 0.36658 0.20887 0.0
H341 H 0.42556 0.38154 0.16071 0.0
H342 H 0.36691 0.39969 0.13984 0.0
H343 H 0.3862 0.37938 0.13286 0.0
H344 H 0.36258 0.37819 0.3668 0.0
H345 H 0.38486 0.36093 0.36027 0.0
H346 H 0.36577 0.41943 0.34595 0.0
H347 H 0.35531 0.43291 0.29764 0.0
C348 C 0.97464 0.36834 0.26133 0.0
C349 C 0.96967 0.36752 0.21234 0.0
C350 C 0.02471 0.39903 0.19894 0.0
C351 C 0.02949 0.40005 0.24778 0.0
N352 N 0.01095 0.37904 0.32398 0.0
N353 N 0.98981 0.37467 0.13423 0.0
C354 C 0.00504 0.38228 0.27844 0.0
C355 C -0.00526 0.38051 0.181 0.0
N356 N 0.95064 0.35804 0.29171 0.0
N357 N 0.04863 0.41662 0.16997 0.0
H358 H 0.96811 0.3606 0.12028 0.0
H359 H 0.0073 0.38127 0.10992 0.0
H360 H 0.07111 0.42921 0.18185 0.0
H361 H 0.04607 0.41989 0.13473 0.0
H362 H 0.95332 0.36141 0.32766 0.0
H363 H 0.92797 0.34829 0.2811 0.0
H364 H 0.99431 0.36412 0.34719 0.0
H365 H 0.03312 0.38899 0.33716 0.0
C366 C 0.5869 0.97877 0.2565 0.0
C367 C 0.59387 0.97034 0.21303 0.0
C368 C 0.63469 0.02303 0.19999 0.0
C369 C 0.62472 0.03221 0.23994 0.0
N370 N 0.58942 0.0194 0.30437 0.0
N371 N 0.62361 0.98356 0.14243 0.0
C372 C 0.60065 0.01021 0.26824 0.0
C373 C 0.61771 0.99221 0.18459 0.0
N374 N 0.56684 0.95671 0.28631 0.0
N375 N 0.66088 0.04364 0.17765 0.0
H376 H 0.61293 0.96081 0.13158 0.0
H377 H 0.63798 -0.00108 0.11734 0.0
H378 H 0.67412 0.06626 0.18866 0.0
H379 H 0.671 0.03783 0.15096 0.0
H380 H 0.56336 0.9611 0.32062 0.0
H381 H 0.5555 0.93349 0.2782 0.0
H382 H 0.56948 0.00479 0.32235 0.0
H383 H 0.59849 0.04211 0.31433 0.0
C384 C 0.58418 0.60739 0.26922 0.0
C385 C 0.59576 0.63647 0.24773 0.0
C386 C 0.63272 0.62836 0.20369 0.0
C387 C 0.6217 0.59988 0.22653 0.0
N388 N 0.59286 0.56578 0.28906 0.0
N389 N 0.63453 0.67728 0.20155 0.0
C390 C 0.59937 0.5906 0.26199 0.0
C391 C 0.62115 0.64779 0.21703 0.0
N392 N 0.5575 0.59476 0.29398 0.0
N393 N 0.65334 0.63625 0.16813 0.0
H394 H 0.62663 0.69206 0.2109 0.0
H395 H 0.65486 0.68788 0.18275 0.0
H396 H 0.66305 0.62303 0.15873 0.0
H397 H 0.65956 0.65492 0.14631 0.0
H398 H 0.54621 0.57222 0.30558 0.0
H399 H 0.54492 0.60565 0.29923 0.0
H400 H 0.57911 0.55979 0.31869 0.0
H401 H 0.60367 0.55295 0.28465 0.0
C402 C 0.02181 0.61255 0.27269 0.0
C403 C 0.02703 0.61819 0.22405 0.0
C404 C 0.97201 0.58936 0.20918 0.0
C405 C 0.96676 0.58476 0.25797 0.0
N406 N 0.98584 0.59851 0.33658 0.0
N407 N 0.00742 0.61915 0.14783 0.0
C408 C 0.99145 0.5985 0.28988 0.0
C409 C 0.00218 0.60887 0.19286 0.0
N410 N 0.04552 0.61882 0.30217 0.0
N411 N 0.94866 0.57376 0.17825 0.0
H412 H 0.02927 0.63416 0.1353 0.0
H413 H 0.99006 0.61545 0.12458 0.0
H414 H 0.92621 0.5589 0.18846 0.0
H415 H 0.95199 0.57356 0.14239 0.0
H416 H 0.04246 0.61185 0.33693 0.0
H417 H 0.06814 0.62872 0.29119 0.0
H418 H 0.00291 0.61076 0.36106 0.0
H419 H 0.96381 0.58879 0.35027 0.0
C420 C 0.60675 0.96977 0.70228 0.0
C421 C 0.58166 0.95746 0.73359 0.0
C422 C 0.58482 0.00731 0.74038 0.0
C423 C 0.61017 0.01971 0.70953 0.0
N424 N 0.64837 0.01497 0.66616 0.0
N425 N 0.54859 0.96428 0.787 0.0
C426 C 0.62218 0.0016 0.69215 0.0
C427 C 0.57131 0.97623 0.75417 0.0
N428 N 0.61524 0.9508 0.68148 0.0
N429 N 0.57326 0.02519 0.75553 0.0
H430 H 0.53672 0.94122 0.79602 0.0
H431 H 0.54238 0.97733 0.80739 0.0
H432 H 0.58383 0.0486 0.74902 0.0
H433 H 0.55253 0.01686 0.77288 0.0
H434 H 0.63108 0.95741 0.65452 0.0
H435 H 0.60519 0.92763 0.68958 0.0
H436 H 0.66012 0.00391 0.65603 0.0
H437 H 0.65969 0.03804 0.65711 0.0
C438 C 0.62593 0.6122 0.79572 0.0
C439 C 0.63241 0.59491 0.76374 0.0
C440 C 0.61468 0.6137 0.6993 0.0
C441 C 0.60225 0.6255 0.73222 0.0
N442 N 0.59512 0.63533 0.81263 0.0
N443 N 0.63449 0.57953 0.68498 0.0
C444 C 0.60823 0.6253 0.78069 0.0
C445 C 0.62773 0.59619 0.71531 0.0
N446 N 0.63645 0.61567 0.8405 0.0
N447 N 0.61412 0.61952 0.65284 0.0
H448 H 0.64555 0.56778 0.69554 0.0
H449 H 0.62805 0.57629 0.64999 0.0
H450 H 0.60517 0.63281 0.64042 0.0
H451 H 0.62501 0.61377 0.62728 0.0
H452 H 0.63475 0.6301 0.86473 0.0
H453 H 0.6498 0.60648 0.85174 0.0
H454 H 0.59573 0.63229 0.84849 0.0
H455 H 0.58172 0.64482 0.80349 0.0
C456 C 0.97465 0.62306 0.78047 0.0
C457 C 0.961 0.59554 0.75432 0.0
C458 C 0.00985 0.59657 0.75098 0.0
C459 C 0.02258 0.62202 0.78151 0.0
N460 N 0.01712 0.65831 0.82913 0.0
N461 N 0.96393 0.55302 0.72144 0.0
C462 C 0.00507 0.63515 0.7971 0.0
C463 C 0.97817 0.5815 0.74114 0.0
N464 N 0.95872 0.63791 0.78848 0.0
N465 N 0.02825 0.58721 0.73054 0.0
H466 H 0.94058 0.54076 0.71443 0.0
H467 H 0.97467 0.54027 0.71603 0.0
H468 H 0.05173 0.59802 0.73646 0.0
H469 H 0.02085 0.57076 0.7043 0.0
H470 H 0.96836 0.65961 0.80317 0.0
H471 H 0.93632 0.62946 0.77706 0.0
H472 H 0.00444 0.66656 0.84591 0.0
H473 H 0.03951 0.66806 0.84131 0.0
C474 C 0.37453 -0.00014 0.80635 0.0
C475 C 0.39004 0.02482 0.77524 0.0
C476 C 0.37186 0.98952 0.70894 0.0
C477 C 0.3617 0.96479 0.74036 0.0
N478 N 0.35318 0.94548 0.81904 0.0
N479 N 0.40631 0.04335 0.69647 0.0
C480 C 0.36258 0.96962 0.78918 0.0
C481 C 0.38905 0.01978 0.72625 0.0
N482 N 0.37095 0.00515 0.85209 0.0
N483 N 0.36511 0.98396 0.66254 0.0
H484 H 0.4201 0.06586 0.70731 0.0
H485 H 0.4091 0.04017 0.66126 0.0
H486 H 0.35192 0.96188 0.64939 0.0
H487 H 0.36959 0.00107 0.63832 0.0
H488 H 0.35763 0.98789 0.87567 0.0
H489 H 0.37896 0.0271 0.86533 0.0
H490 H 0.35672 0.94791 0.85498 0.0
H491 H 0.34317 0.92292 0.80747 0.0
C492 C 0.37764 0.39082 0.80081 0.0
C493 C 0.36867 0.40746 0.77134 0.0
C494 C 0.38542 0.3906 0.70302 0.0
C495 C 0.39899 0.37848 0.73307 0.0
N496 N 0.41149 0.37048 0.81142 0.0
N497 N 0.36751 0.4266 0.69438 0.0
C498 C 0.39576 0.37913 0.78225 0.0
C499 C 0.37313 0.40802 0.72231 0.0
N500 N 0.3685 0.38589 0.84645 0.0
N501 N 0.38386 0.38504 0.6561 0.0
H502 H 0.35899 0.44023 0.70685 0.0
H503 H 0.37381 0.43053 0.65933 0.0
H504 H 0.39214 0.37183 0.64096 0.0
H505 H 0.37162 0.39081 0.63303 0.0
H506 H 0.37184 0.3714 0.86843 0.0
H507 H 0.35481 0.3938 0.86098 0.0
H508 H 0.41263 0.37384 0.84742 0.0
H509 H 0.42569 0.36246 0.79961 0.0
C510 C -0.00122 0.38905 0.69981 0.0
C511 C 0.02298 0.39891 0.73233 0.0
C512 C 0.98646 0.37083 0.79455 0.0
C513 C 0.96238 0.36597 0.76401 0.0
N514 N 0.94508 0.37101 0.68757 0.0
N515 N 0.04083 0.39954 0.81057 0.0
C516 C 0.96826 0.37463 0.71631 0.0
C517 C 0.01717 0.38941 0.77959 0.0
N518 N 0.00517 0.39355 0.65315 0.0
N519 N 0.97977 0.35748 0.83769 0.0
H520 H 0.06364 0.4125 0.8005 0.0
H521 H 0.0379 0.39652 0.84654 0.0
H522 H 0.95738 0.34345 0.84912 0.0
H523 H -0.0039 0.3579 0.86029 0.0
H524 H 0.98854 0.38439 0.6272 0.0
H525 H 0.02744 0.40402 0.64024 0.0
H526 H 0.94862 0.38051 0.65431 0.0
H527 H 0.92228 0.3602 0.69785 0.0
C528 C 0.42756 0.19527 0.29507 0.0
C529 C 0.45257 0.1972 0.26971 0.0
C530 C 0.48039 0.25302 0.27726 0.0
C531 C 0.4547 0.25119 0.30039 0.0
N532 N 0.40286 0.22175 0.32788 0.0
N533 N 0.50185 0.22713 0.2333 0.0
C534 C 0.42797 0.22261 0.30831 0.0
C535 C 0.47874 0.22589 0.25984 0.0
N536 N 0.40364 0.16725 0.30693 0.0
N537 N 0.50649 0.28073 0.27247 0.0
H538 H 0.50245 0.20774 0.22244 0.0
H539 H 0.51983 0.24721 0.2199 0.0
H540 H 0.50801 0.30135 0.28207 0.0
H541 H 0.52725 0.28346 0.26117 0.0
H542 H 0.38625 0.16403 0.3297 0.0
H543 H 0.40195 0.14676 0.29606 0.0
H544 H 0.38153 0.20212 0.33008 0.0
H545 H 0.40278 0.24121 0.33974 0.0
C546 C 0.2093 0.43527 0.30799 0.0
C547 C 0.20695 0.46048 0.29145 0.0
C548 C 0.25791 0.48282 0.25695 0.0
C549 C 0.25895 0.45616 0.26919 0.0
N550 N 0.23417 0.40506 0.30059 0.0
N551 N 0.22629 0.50541 0.24292 0.0
C552 C 0.23427 0.43183 0.29329 0.0
C553 C 0.23053 0.48353 0.26397 0.0
N554 N 0.18828 0.41524 0.33902 0.0
N555 N 0.28346 0.50793 0.24023 0.0
H556 H 0.20632 0.50647 0.24646 0.0
H557 H 0.24135 0.52076 0.21839 0.0
H558 H 0.3042 0.50856 0.23535 0.0
H559 H 0.28498 0.52908 0.23553 0.0
H560 H 0.19059 0.39837 0.35622 0.0
H561 H 0.16973 0.41709 0.35072 0.0
H562 H 0.21534 0.38534 0.31331 0.0
H563 H 0.25209 0.40173 0.29038 0.0
C564 C 0.74094 0.20076 0.21028 0.0
C565 C 0.73621 0.20132 0.25906 0.0
C566 C 0.78284 0.2511 0.26541 0.0
C567 C 0.78881 0.24937 0.21743 0.0
N568 N 0.7769 0.22036 0.14601 0.0
N569 N 0.75545 0.22371 0.33473 0.0
C570 C 0.76884 0.22352 0.19036 0.0
C571 C 0.75799 0.22554 0.28716 0.0
N572 N 0.71823 0.17945 0.18258 0.0
N573 N 0.79996 0.27764 0.2897 0.0
H574 H 0.73769 0.20516 0.35197 0.0
H575 H 0.77239 0.23912 0.35715 0.0
H576 H 0.81814 0.29712 0.27497 0.0
H577 H 0.79445 0.2813 0.32322 0.0
H578 H 0.71914 0.18004 0.14624 0.0
H579 H 0.6972 0.16266 0.19555 0.0
H580 H 0.76485 0.20048 0.12637 0.0
H581 H 0.79722 0.23659 0.13032 0.0
C582 C 0.51704 0.77884 0.25177 0.0
C583 C 0.5434 0.8066 0.26476 0.0
C584 C 0.56366 0.778 0.3058 0.0
C585 C 0.53871 0.75037 0.28889 0.0
N586 N 0.49498 0.72464 0.23803 0.0
N587 N 0.59401 0.83306 0.29791 0.0
C588 C 0.51631 0.75081 0.25967 0.0
C589 C 0.56736 0.80635 0.29013 0.0
N590 N 0.49216 0.77914 0.23368 0.0
N591 N 0.58309 0.77719 0.33822 0.0
H592 H 0.5975 0.85426 0.28702 0.0
H593 H 0.61351 0.83399 0.31168 0.0
H594 H 0.58106 0.75688 0.35071 0.0
H595 H 0.59964 0.79649 0.35563 0.0
H596 H 0.47119 0.75942 0.22828 0.0
H597 H 0.49139 0.79917 0.22839 0.0
H598 H 0.48014 0.72429 0.21248 0.0
H599 H 0.49405 0.70369 0.24208 0.0
C600 C 0.73799 0.52449 0.2742 0.0
C601 C 0.73798 0.53443 0.22778 0.0
C602 C 0.78685 0.53697 0.21266 0.0
C603 C 0.7878 0.52893 0.25986 0.0
N604 N 0.76807 0.52224 0.33827 0.0
N605 N 0.76596 0.55771 0.15711 0.0
C606 C 0.7645 0.52486 0.29149 0.0
C607 C 0.76353 0.54299 0.19829 0.0
N608 N 0.71228 0.51323 0.3011 0.0
N609 N 0.80719 0.53731 0.18088 0.0
H610 H 0.74973 0.56333 0.14602 0.0
H611 H 0.78554 0.5672 0.13646 0.0
H612 H 0.82423 0.53228 0.18947 0.0
H613 H 0.80536 0.53973 0.14509 0.0
H614 H 0.70994 0.50231 0.33294 0.0
H615 H 0.69226 0.51238 0.29009 0.0
H616 H 0.7533 0.5224 0.36345 0.0
H617 H 0.78746 0.52298 0.35235 0.0
C618 C 0.23056 0.76154 0.2093 0.0
C619 C 0.20626 0.74133 0.23878 0.0
C620 C 0.22981 0.77657 0.30437 0.0
C621 C 0.25585 0.79471 0.27636 0.0
N622 N 0.28365 0.80082 0.20472 0.0
N623 N 0.18554 0.72669 0.31663 0.0
C624 C 0.25698 0.78629 0.22943 0.0
C625 C 0.20654 0.74805 0.28697 0.0
N626 N 0.22802 0.75777 0.16192 0.0
N627 N 0.22681 0.78699 0.34698 0.0
H628 H 0.16863 0.7051 0.30569 0.0
H629 H 0.18676 0.72925 0.3528 0.0
H630 H 0.24307 0.8081 0.36054 0.0
H631 H 0.20686 0.7761 0.36672 0.0
H632 H 0.24378 0.7737 0.13867 0.0
H633 H 0.20865 0.74041 0.14562 0.0
H634 H 0.28643 0.79335 0.17215 0.0
H635 H 0.30395 0.81839 0.21854 0.0
C636 C 0.53973 0.76423 0.70004 0.0
C637 C 0.53297 0.73905 0.72944 0.0
C638 C 0.52508 0.76529 0.79516 0.0
C639 C 0.52778 0.78847 0.7643 0.0
N640 N 0.53214 0.80708 0.68532 0.0
N641 N 0.51337 0.71292 0.80291 0.0
C642 C 0.53372 0.78726 0.71614 0.0
C643 C 0.52415 0.73883 0.77654 0.0
N644 N 0.55277 0.76668 0.65728 0.0
N645 N 0.52441 0.76895 0.84236 0.0
H646 H 0.51136 0.69263 0.79035 0.0
H647 H 0.50357 0.71063 0.83573 0.0
H648 H 0.52584 0.78838 0.85752 0.0
H649 H 0.52561 0.75418 0.86651 0.0
H650 H 0.56098 0.7861 0.63643 0.0
H651 H 0.55826 0.75065 0.64468 0.0
H652 H 0.53307 0.80503 0.64924 0.0
H653 H 0.52688 0.82375 0.69531 0.0
C654 C 0.7667 0.56718 0.71165 0.0
C655 C 0.74276 0.54316 0.73731 0.0
C656 C 0.77177 0.51634 0.74142 0.0
C657 C 0.79414 0.53865 0.71157 0.0
N658 N 0.8111 0.58302 0.66241 0.0
N659 N 0.71968 0.49212 0.76917 0.0
C660 C 0.79124 0.56358 0.6952 0.0
C661 C 0.74453 0.517 0.75033 0.0
N662 N 0.76642 0.59375 0.7042 0.0
N663 N 0.77696 0.49507 0.76243 0.0
H664 H 0.69894 0.49126 0.77529 0.0
H665 H 0.71862 0.47124 0.77455 0.0
H666 H 0.79692 0.49415 0.75733 0.0
H667 H 0.76291 0.48027 0.78836 0.0
H668 H 0.78481 0.61329 0.69013 0.0
H669 H 0.7488 0.59717 0.71577 0.0
H670 H 0.8081 0.59952 0.64534 0.0
H671 H 0.8293 0.58109 0.64931 0.0
C672 C 0.24139 0.7627 0.73142 0.0
C673 C 0.24237 0.78689 0.70498 0.0
C674 C 0.18647 0.76147 0.70613 0.0
C675 C 0.18557 0.73624 0.72925 0.0
N676 N 0.21163 0.70977 0.7549 0.0
N677 N 0.21624 0.8073 0.66018 0.0
C678 C 0.21289 0.73596 0.73934 0.0
C679 C 0.215 0.78578 0.6904 0.0
N680 N 0.26753 0.76578 0.75073 0.0
N681 N 0.16024 0.76267 0.70061 0.0
H682 H 0.23671 0.82533 0.64766 0.0
H683 H 0.19702 0.80589 0.6444 0.0
H684 H 0.13891 0.74514 0.71138 0.0
H685 H 0.15989 0.78195 0.68873 0.0
H686 H 0.26764 0.75025 0.77451 0.0
H687 H 0.28888 0.78529 0.74661 0.0
H688 H 0.2308 0.7073 0.75803 0.0
H689 H 0.19116 0.68944 0.76033 0.0
C690 C 0.4661 0.25759 0.77252 0.0
C691 C 0.45871 0.25795 0.72483 0.0
C692 C 0.45459 0.20808 0.7129 0.0
C693 C 0.45911 0.20645 0.7615 0.0
N694 N 0.46391 0.22706 0.83908 0.0
N695 N 0.44089 0.23176 0.65118 0.0
C696 C 0.46341 0.23049 0.79179 0.0
C697 C 0.45152 0.23268 0.6954 0.0
N698 N 0.47703 0.28354 0.79891 0.0
N699 N 0.45466 0.18694 0.68315 0.0
H700 H 0.43832 0.24937 0.63712 0.0
H701 H 0.43209 0.21247 0.62993 0.0
H702 H 0.45743 0.16886 0.69439 0.0
H703 H 0.45481 0.1889 0.64694 0.0
H704 H 0.48601 0.28556 0.83231 0.0
H705 H 0.47978 0.30405 0.78601 0.0
H706 H 0.46351 0.24237 0.86302 0.0
H707 H 0.46197 0.20752 0.85462 0.0
C708 C 0.18771 0.43484 0.79793 0.0
C709 C 0.18866 0.45801 0.76886 0.0
C710 C 0.24462 0.48537 0.76972 0.0
C711 C 0.24364 0.46126 0.7964 0.0
N712 N 0.21517 0.41141 0.83145 0.0
N713 N 0.21713 0.50355 0.7225 0.0
C714 C 0.21541 0.43547 0.80922 0.0
C715 C 0.21689 0.48277 0.75338 0.0
N716 N 0.16035 0.41251 0.81515 0.0
N717 N 0.27209 0.51096 0.76069 0.0
H718 H 0.19737 0.50323 0.71128 0.0
H719 H 0.23667 0.52005 0.7056 0.0
H720 H 0.293 0.51309 0.77008 0.0
H721 H 0.2743 0.53088 0.74639 0.0
H722 H 0.15826 0.39689 0.84059 0.0
H723 H 0.13951 0.41068 0.8061 0.0
H724 H 0.19548 0.39056 0.83749 0.0
H725 H 0.23506 0.41146 0.84123 0.0
C726 C 0.7594 0.22968 0.79674 0.0
C727 C 0.78039 0.25263 0.7661 0.0
C728 C 0.75096 0.22252 0.6986 0.0
C729 C 0.72846 0.20108 0.72931 0.0
N730 N 0.70838 0.18672 0.80744 0.0
N731 N 0.79333 0.27388 0.68838 0.0
C732 C 0.73191 0.20523 0.7784 0.0
C733 C 0.77549 0.24985 0.7171 0.0
N734 N 0.76616 0.23075 0.84317 0.0
N735 N 0.74942 0.21635 0.65187 0.0
H736 H 0.81115 0.29462 0.70052 0.0
H737 H 0.78867 0.27435 0.65306 0.0
H738 H 0.73181 0.19653 0.63695 0.0
H739 H 0.76696 0.22948 0.62856 0.0
H740 H 0.75342 0.21293 0.86627 0.0
H741 H 0.78603 0.24837 0.85794 0.0
H742 H 0.7083 0.19078 0.84308 0.0
H743 H 0.68767 0.16879 0.79542 0.0
C744 C 0.4319 0.15035 0.01698 0.0
C745 C 0.42859 0.12527 0.04378 0.0
C746 C 0.42439 0.09687 0.97208 0.0
C747 C 0.4252 0.12093 0.94551 0.0
N748 N 0.42553 0.16877 0.94202 0.0
N749 N 0.41578 0.07251 0.04771 0.0
C750 C 0.42758 0.1471 0.9678 0.0
C751 C 0.42338 0.09796 0.02158 0.0
N752 N 0.44052 0.17771 0.03828 0.0
N753 N 0.42453 0.07294 0.95005 0.0
H754 H 0.41382 0.07216 0.08391 0.0
H755 H 0.40854 0.05101 0.03344 0.0
H756 H 0.4236 0.07046 0.91386 0.0
H757 H 0.42765 0.05662 0.96743 0.0
H758 H 0.44656 0.19778 0.02013 0.0
H759 H 0.44426 0.18109 0.07415 0.0
H760 H 0.42363 0.18659 0.95671 0.0
H761 H 0.42351 0.16777 0.90574 0.0
C762 C 0.28749 0.42133 0.97618 0.0
C763 C 0.31506 0.43042 0.95154 0.0
C764 C 0.3425 0.43813 0.02542 0.0
C765 C 0.31552 0.43151 0.04999 0.0
N766 N 0.26369 0.42176 0.04941 0.0
N767 N 0.36954 0.45061 0.9516 0.0
C768 C 0.28828 0.42423 0.02559 0.0
C769 C 0.34283 0.43985 0.97586 0.0
N770 N 0.26054 0.41002 0.95234 0.0
N771 N 0.36738 0.44143 0.04937 0.0
H772 H 0.3705 0.45059 0.91526 0.0
H773 H 0.39098 0.46133 0.96729 0.0
H774 H 0.36796 0.44011 0.08565 0.0
H775 H 0.38654 0.4429 0.03335 0.0
H776 H 0.23925 0.39955 0.96851 0.0
H777 H 0.25918 0.4092 0.91601 0.0
H778 H 0.2444 0.41989 0.03321 0.0
H779 H 0.26351 0.42428 0.08553 0.0
C780 C 0.85747 0.28165 0.96305 0.0
C781 C 0.87816 0.30828 0.93795 0.0
C782 C 0.90109 0.33489 0.01142 0.0
C783 C 0.8819 0.30758 0.03621 0.0
N784 N 0.84414 0.25398 0.03645 0.0
N785 N 0.92307 0.35836 0.93702 0.0
C786 C 0.86085 0.28061 0.01222 0.0
C787 C 0.90081 0.33449 0.9618 0.0
N788 N 0.83374 0.25789 0.94012 0.0
N789 N 0.91957 0.36126 0.03532 0.0
H790 H 0.92394 0.3587 0.9007 0.0
H791 H 0.9422 0.37661 0.95223 0.0
H792 H 0.92186 0.36216 0.07156 0.0
H793 H 0.93121 0.38266 0.01958 0.0
H794 H 0.81587 0.2393 0.95693 0.0
H795 H 0.83049 0.25782 0.90418 0.0
H796 H 0.83109 0.23278 0.02057 0.0
H797 H 0.84478 0.25265 0.07274 0.0
C798 C 0.55999 0.85247 0.01844 0.0
C799 C 0.56074 0.87716 0.04321 0.0
C800 C 0.55892 0.90087 0.96956 0.0
C801 C 0.56047 0.87737 0.94484 0.0
N802 N 0.56645 0.83293 0.94452 0.0
N803 N 0.56629 0.92742 0.04305 0.0
C804 C 0.56236 0.85387 0.96895 0.0
C805 C 0.56152 0.90202 0.01899 0.0
N806 N 0.55548 0.82702 0.04206 0.0
N807 N 0.55486 0.92205 0.9458 0.0
H808 H 0.56875 0.92932 0.07921 0.0
H809 H 0.57051 0.94766 0.02709 0.0
H810 H 0.55468 0.92315 0.90944 0.0
H811 H 0.54973 0.93737 0.96203 0.0
H812 H 0.55139 0.80693 0.02571 0.0
H813 H 0.55315 0.8249 0.07826 0.0
H814 H 0.57149 0.8174 0.9602 0.0
H815 H 0.56692 0.8324 0.90814 0.0
C816 C 0.64996 0.56028 0.03271 0.0
C817 C 0.64266 0.53218 0.05421 0.0
C818 C 0.63641 0.50829 0.97752 0.0
C819 C 0.64592 0.537 0.95611 0.0
N820 N 0.668 0.59162 0.96324 0.0
N821 N 0.63416 0.48093 0.04831 0.0
C822 C 0.65447 0.5634 0.98368 0.0
C823 C 0.63736 0.50657 0.02696 0.0
N824 N 0.65135 0.5836 0.05884 0.0
N825 N 0.62524 0.48246 0.95083 0.0
H826 H 0.63473 0.47885 0.08449 0.0
H827 H 0.63358 0.46278 0.03021 0.0
H828 H 0.6242 0.48269 0.91451 0.0
H829 H 0.6147 0.4605 0.96476 0.0
H830 H 0.65319 0.60334 0.04434 0.0
H831 H 0.64793 0.58215 0.09487 0.0
H832 H 0.67759 0.61193 0.98215 0.0
H833 H 0.67239 0.59496 0.9275 0.0
C834 C 0.14243 0.70147 0.98051 0.0
C835 C 0.11678 0.68202 0.95258 0.0
C836 C 0.08713 0.65691 0.02272 0.0
C837 C 0.11169 0.67833 0.05064 0.0
N838 N 0.16119 0.72373 0.05688 0.0
N839 N 0.06305 0.64501 0.94664 0.0
C840 C 0.13899 0.70137 0.02978 0.0
C841 C 0.08864 0.66072 0.97353 0.0
N842 N 0.1703 0.71922 0.96009 0.0
N843 N 0.06288 0.63227 0.04308 0.0
H844 H 0.06306 0.64753 0.9105 0.0
H845 H 0.04125 0.63165 0.96052 0.0
H846 H 0.06138 0.62836 0.07898 0.0
H847 H 0.04579 0.61421 0.02416 0.0
H848 H 0.1905 0.73136 0.97893 0.0
H849 H 0.17373 0.7198 0.9241 0.0
H850 H 0.18011 0.74299 0.04327 0.0
H851 H 0.15952 0.72438 0.09312 0.0
C852 C 0.88147 0.56764 0.51387 0.0
C853 C 0.89389 0.55048 0.53378 0.0
C854 C 0.90344 0.53747 0.45555 0.0
C855 C 0.88851 0.55229 0.43585 0.0
N856 N 0.8576 0.57587 0.44646 0.0
N857 N 0.9112 0.51415 0.52415 0.0
C858 C 0.87587 0.56578 0.46508 0.0
C859 C 0.90334 0.53398 0.50478 0.0
N860 N 0.87634 0.58684 0.54113 0.0
N861 N 0.91888 0.52789 0.42748 0.0
H862 H 0.91104 0.51064 0.56006 0.0
H863 H 0.91508 0.49908 0.50452 0.0
H864 H 0.91989 0.53037 0.39131 0.0
H865 H 0.93299 0.52004 0.44033 0.0
H866 H 0.87042 0.6023 0.52756 0.0
H867 H 0.88086 0.58958 0.57687 0.0
H868 H 0.84515 0.58292 0.46674 0.0
H869 H 0.85246 0.57439 0.41094 0.0
C870 C 0.35522 0.87185 0.52596 0.0
C871 C 0.34715 0.89237 0.54665 0.0
C872 C 0.34479 0.91198 0.46949 0.0
C873 C 0.35101 0.8902 0.44867 0.0
N874 N 0.3567 0.84579 0.45575 0.0
N875 N 0.32824 0.92749 0.53841 0.0
C876 C 0.35472 0.8691 0.47653 0.0
C877 C 0.34026 0.91122 0.5185 0.0
N878 N 0.36448 0.85586 0.5534 0.0
N879 N 0.3443 0.9341 0.44265 0.0
H880 H 0.32411 0.92715 0.57415 0.0
H881 H 0.3197 0.93905 0.51919 0.0
H882 H 0.34715 0.93523 0.40652 0.0
H883 H 0.34353 0.95275 0.45648 0.0
H884 H 0.37408 0.84337 0.54021 0.0
H885 H 0.36476 0.85687 0.58973 0.0
H886 H 0.35603 0.82771 0.47417 0.0
H887 H 0.35636 0.84303 0.41963 0.0
C888 C 0.42663 0.34333 0.52815 0.0
C889 C 0.41992 0.31678 0.55405 0.0
C890 C 0.4166 0.28934 0.48173 0.0
C891 C 0.42113 0.31515 0.45568 0.0
N892 N 0.42537 0.36483 0.4531 0.0
N893 N 0.40441 0.26324 0.55636 0.0
C894 C 0.42486 0.34171 0.47861 0.0
C895 C 0.41348 0.28932 0.53105 0.0
N896 N 0.43488 0.37015 0.55092 0.0
N897 N 0.41699 0.26554 0.45961 0.0
H898 H 0.40317 0.26259 0.59272 0.0
H899 H 0.39602 0.24176 0.5413 0.0
H900 H 0.41983 0.26492 0.42364 0.0
H901 H 0.41723 0.24762 0.47713 0.0
H902 H 0.44364 0.39112 0.53407 0.0
H903 H 0.4348 0.37189 0.5872 0.0
H904 H 0.42465 0.38328 0.46786 0.0
H905 H 0.42388 0.36436 0.41679 0.0
C906 C 0.11343 0.48533 0.51817 0.0
C907 C 0.09783 0.45824 0.54503 0.0
C908 C 0.07967 0.42738 0.47371 0.0
C909 C 0.09668 0.45432 0.44683 0.0
N910 N 0.13288 0.50834 0.44244 0.0
N911 N 0.06877 0.40331 0.55007 0.0
C912 C 0.11454 0.48315 0.46878 0.0
C913 C 0.0817 0.42918 0.52326 0.0
N914 N 0.1267 0.51315 0.53993 0.0
N915 N 0.06142 0.40012 0.45178 0.0
H916 H 0.06869 0.40374 0.58647 0.0
H917 H 0.05969 0.38133 0.53664 0.0
H918 H 0.06092 0.39743 0.41564 0.0
H919 H 0.04555 0.38037 0.46898 0.0
H920 H 0.13534 0.53384 0.52232 0.0
H921 H 0.12735 0.51561 0.57615 0.0
H922 H 0.14906 0.52926 0.45646 0.0
H923 H 0.13352 0.50796 0.40611 0.0
C924 C 0.65304 0.09383 0.47062 0.0
C925 C 0.67895 0.11846 0.44917 0.0
C926 C 0.70256 0.13707 0.5259 0.0
C927 C 0.67554 0.11398 0.54743 0.0
N928 N 0.62358 0.07248 0.54117 0.0
N929 N 0.72639 0.16608 0.45564 0.0
C930 C 0.65026 0.0931 0.52002 0.0
C931 C 0.70327 0.14075 0.47659 0.0
N932 N 0.63191 0.07021 0.44396 0.0
N933 N 0.72761 0.15537 0.55256 0.0
H934 H 0.72759 0.16959 0.41964 0.0
H935 H 0.74303 0.18482 0.47398 0.0
H936 H 0.7276 0.15427 0.5889 0.0
H937 H 0.74904 0.17024 0.53866 0.0
H938 H 0.61438 0.04999 0.45787 0.0
H939 H 0.63338 0.06945 0.40771 0.0
H940 H 0.60321 0.05933 0.52314 0.0
H941 H 0.62118 0.06986 0.57725 0.0
C942 C 0.51137 0.63788 0.4779 0.0
C943 C 0.54076 0.65125 0.45719 0.0
C944 C 0.56438 0.65891 0.53429 0.0
C945 C 0.53519 0.64717 0.55521 0.0
N946 N 0.4818 0.63142 0.54789 0.0
N947 N 0.59552 0.68082 0.4654 0.0
C948 C 0.5089 0.63833 0.52728 0.0
C949 C 0.56737 0.66362 0.48532 0.0
N950 N 0.48582 0.62374 0.45057 0.0
N951 N 0.58906 0.66429 0.56083 0.0
H952 H 0.59865 0.68526 0.42965 0.0
H953 H 0.6155 0.69317 0.4847 0.0
H954 H 0.588 0.66122 0.59688 0.0
H955 H 0.61003 0.66931 0.54666 0.0
H956 H 0.46387 0.61049 0.46396 0.0
H957 H 0.48663 0.62322 0.41424 0.0
H958 H 0.46265 0.62795 0.52924 0.0
H959 H 0.47923 0.63195 0.58395 0.0
C960 C 0.52716 0.08988 0.22753 0.0
C961 C 0.53053 0.11894 0.21787 0.0
C962 C 0.57878 0.14366 0.26133 0.0
C963 C 0.57687 0.11483 0.2666 0.0
N964 N 0.55254 0.06141 0.2458 0.0
N965 N 0.5614 0.17387 0.21951 0.0
C966 C 0.55196 0.08815 0.24726 0.0
C967 C 0.55686 0.14599 0.23314 0.0
N968 N 0.49983 0.06389 0.21982 0.0
N969 N 0.60084 0.16857 0.28463 0.0
H970 H 0.54586 0.17646 0.19883 0.0
H971 H 0.58167 0.19427 0.22531 0.0
H972 H 0.61709 0.16768 0.30597 0.0
H973 H 0.60142 0.18944 0.28614 0.0
H974 H 0.49516 0.04237 0.23104 0.0
H975 H 0.48076 0.06409 0.20653 0.0
H976 H 0.53647 0.04215 0.22768 0.0
H977 H 0.57072 0.05932 0.25852 0.0
C978 C 0.46729 0.5763 0.22597 0.0
C979 C 0.46248 0.59172 0.2635 0.0
C980 C 0.40741 0.56366 0.2486 0.0
C981 C 0.41192 0.54586 0.2146 0.0
N982 N 0.44552 0.53205 0.1752 0.0
N983 N 0.42838 0.59887 0.31381 0.0
C984 C 0.44172 0.55149 0.20404 0.0
C985 C 0.43263 0.58508 0.27575 0.0
N986 N 0.49632 0.58539 0.21127 0.0
N987 N 0.37919 0.56073 0.25377 0.0
H988 H 0.44643 0.61562 0.33333 0.0
H989 H 0.40702 0.59244 0.32788 0.0
H990 H 0.36038 0.54562 0.23383 0.0
H991 H 0.37495 0.57507 0.27463 0.0
H992 H 0.50123 0.57742 0.18084 0.0
H993 H 0.51565 0.60277 0.22753 0.0
H994 H 0.4663 0.53281 0.1706 0.0
H995 H 0.42744 0.5134 0.15867 0.0
C996 C 0.88743 0.45513 0.21422 0.0
C997 C 0.86656 0.44975 0.25115 0.0
C998 C 0.84182 0.3945 0.23765 0.0
C999 C 0.86437 0.3998 0.20371 0.0
N1000 N 0.91094 0.43438 0.16341 0.0
N1001 N 0.82515 0.41485 0.30066 0.0
C1002 C 0.88762 0.42992 0.19257 0.0
C1003 C 0.84412 0.41955 0.26367 0.0
N1004 N 0.90732 0.48435 0.20009 0.0
N1005 N 0.81766 0.36561 0.24376 0.0
H1006 H 0.82476 0.43261 0.31859 0.0
H1007 H 0.81088 0.3935 0.3153 0.0
H1008 H 0.81519 0.34679 0.22503 0.0
H1009 H 0.79878 0.36048 0.26445 0.0
H1010 H 0.92024 0.48963 0.16967 0.0
H1011 H 0.90973 0.50364 0.21715 0.0
H1012 H 0.93056 0.45545 0.15837 0.0
H1013 H 0.91196 0.4166 0.14668 0.0
C1014 C 0.45258 0.88715 0.23244 0.0
C1015 C 0.44986 0.85926 0.21681 0.0
C1016 C 0.39654 0.83184 0.24272 0.0
C1017 C 0.40056 0.85912 0.26356 0.0
N1018 N 0.43476 0.91145 0.28652 0.0
N1019 N 0.42101 0.80412 0.21498 0.0
C1020 C 0.42925 0.88645 0.26073 0.0
C1021 C 0.42231 0.83129 0.22407 0.0
N1022 N 0.47684 0.91443 0.21874 0.0
N1023 N 0.36799 0.80686 0.23879 0.0
H1024 H 0.43954 0.80265 0.20223 0.0
H1025 H 0.40249 0.78306 0.22432 0.0
H1026 H 0.34834 0.80654 0.25059 0.0
H1027 H 0.36347 0.78752 0.21961 0.0
H1028 H 0.47833 0.9354 0.22534 0.0
H1029 H 0.49384 0.91601 0.19642 0.0
H1030 H 0.4563 0.93084 0.28938 0.0
H1031 H 0.41871 0.91167 0.30901 0.0
C1032 C 0.59278 0.44602 0.3015 0.0
C1033 C 0.59374 0.45554 0.25462 0.0
C1034 C 0.53845 0.42222 0.24805 0.0
C1035 C 0.53782 0.41055 0.29337 0.0
N1036 N 0.56548 0.40661 0.35925 0.0
N1037 N 0.56905 0.44675 0.17971 0.0
C1038 C 0.56531 0.4211 0.31905 0.0
C1039 C 0.56701 0.44188 0.2268 0.0
N1040 N 0.61765 0.46146 0.32985 0.0
N1041 N 0.51189 0.41577 0.22606 0.0
H1042 H 0.58993 0.45958 0.16279 0.0
H1043 H 0.55061 0.4352 0.15709 0.0
H1044 H 0.49042 0.40257 0.24116 0.0
H1045 H 0.51133 0.42619 0.19497 0.0
H1046 H 0.61708 0.45763 0.36566 0.0
H1047 H 0.63815 0.47995 0.31845 0.0
H1048 H 0.58544 0.41138 0.37677 0.0
H1049 H 0.54601 0.38773 0.37263 0.0
C1050 C 0.11611 0.56187 0.19539 0.0
C1051 C 0.13625 0.59109 0.21452 0.0
C1052 C 0.14944 0.56749 0.27839 0.0
C1053 C 0.12992 0.53832 0.25853 0.0
N1054 N 0.09978 0.50798 0.19311 0.0
N1055 N 0.17663 0.62254 0.26808 0.0
C1056 C 0.11509 0.53562 0.21521 0.0
C1057 C 0.15428 0.59414 0.25429 0.0
N1058 N 0.09642 0.55892 0.16034 0.0
N1059 N 0.16313 0.56966 0.32051 0.0
H1060 H 0.18097 0.64248 0.2508 0.0
H1061 H 0.19261 0.6263 0.29393 0.0
H1062 H 0.16205 0.55088 0.33747 0.0
H1063 H 0.17441 0.58977 0.33978 0.0
H1064 H 0.07864 0.53797 0.14895 0.0
H1065 H 0.09599 0.57743 0.14513 0.0
H1066 H 0.09158 0.50535 0.15907 0.0
H1067 H 0.0974 0.48789 0.207 0.0
C1068 C 0.43693 0.87994 0.80085 0.0
C1069 C 0.44515 0.85852 0.78447 0.0
C1070 C 0.40732 0.8429 0.72163 0.0
C1071 C 0.39848 0.86366 0.73892 0.0
N1072 N 0.4 0.89708 0.80055 0.0
N1073 N 0.43449 0.81542 0.73582 0.0
C1074 C 0.41156 0.88043 0.78055 0.0
C1075 C 0.42923 0.83874 0.74671 0.0
N1076 N 0.45462 0.90125 0.83355 0.0
N1077 N 0.39495 0.82742 0.68095 0.0
H1078 H 0.45015 0.81155 0.75392 0.0
H1079 H 0.42161 0.79834 0.71173 0.0
H1080 H 0.37725 0.82816 0.66342 0.0
H1081 H 0.40315 0.81497 0.6633 0.0
H1082 H 0.452 0.91975 0.84263 0.0
H1083 H 0.47376 0.90217 0.84885 0.0
H1084 H 0.40635 0.90689 0.83359 0.0
H1085 H 0.38214 0.89901 0.78616 0.0
C1086 C 0.57573 0.46132 0.72158 0.0
C1087 C 0.58703 0.45604 0.76393 0.0
C1088 C 0.55262 0.40084 0.75522 0.0
C1089 C 0.53868 0.40656 0.71655 0.0
N1090 N 0.53418 0.44216 0.66574 0.0
N1091 N 0.58619 0.42123 0.8223 0.0
C1092 C 0.54972 0.43673 0.70003 0.0
C1093 C 0.57547 0.42588 0.78108 0.0
N1094 N 0.5896 0.48981 0.70205 0.0
N1095 N 0.54464 0.37143 0.76617 0.0
H1096 H 0.60453 0.43867 0.84042 0.0
H1097 H 0.57609 0.40039 0.83979 0.0
H1098 H 0.52833 0.35261 0.74741 0.0
H1099 H 0.55591 0.36567 0.79103 0.0
H1100 H 0.58465 0.49421 0.66862 0.0
H1101 H 0.60782 0.50885 0.71743 0.0
H1102 H 0.53878 0.46394 0.65626 0.0
H1103 H 0.51493 0.42488 0.64913 0.0
C1104 C 0.16501 0.59477 0.76471 0.0
C1105 C 0.13652 0.59298 0.77348 0.0
C1106 C 0.11055 0.54567 0.72816 0.0
C1107 C 0.13833 0.54531 0.72463 0.0
N1108 N 0.19122 0.56693 0.74712 0.0
N1109 N 0.08141 0.56294 0.77245 0.0
C1110 C 0.16543 0.56919 0.74488 0.0
C1111 C 0.10904 0.56737 0.75767 0.0
N1112 N 0.19169 0.62123 0.77352 0.0
N1113 N 0.08585 0.52605 0.70197 0.0
H1114 H 0.07927 0.57746 0.79604 0.0
H1115 H 0.06082 0.54311 0.76541 0.0
H1116 H 0.0865 0.51078 0.67821 0.0
H1117 H 0.06596 0.52736 0.69993 0.0
H1118 H 0.21296 0.62477 0.76314 0.0
H1119 H 0.19244 0.64073 0.78709 0.0
H1120 H 0.21055 0.58212 0.76598 0.0
H1121 H 0.1924 0.54835 0.73387 0.0
C1122 C 0.57907 0.14445 0.74454 0.0
C1123 C 0.5733 0.11834 0.71808 0.0
C1124 C 0.5189 0.09368 0.73766 0.0
C1125 C 0.52516 0.11863 0.76735 0.0
N1126 N 0.56123 0.1663 0.80357 0.0
N1127 N 0.53902 0.06593 0.69592 0.0
C1128 C 0.55531 0.14356 0.77226 0.0
C1129 C 0.54352 0.09241 0.71609 0.0
N1130 N 0.6069 0.17054 0.74153 0.0
N1131 N 0.4894 0.07116 0.72999 0.0
H1132 H 0.55643 0.0638 0.68017 0.0
H1133 H 0.51864 0.04522 0.69833 0.0
H1134 H 0.47077 0.07023 0.74709 0.0
H1135 H 0.48313 0.05449 0.70429 0.0
H1136 H 0.61162 0.19133 0.75604 0.0
H1137 H 0.62469 0.17221 0.72096 0.0
H1138 H 0.58318 0.18321 0.81281 0.0
H1139 H 0.54418 0.16719 0.82282 0.0
C1140 C 0.41144 0.57185 0.79254 0.0
C1141 C 0.40584 0.54202 0.7824 0.0
C1142 C 0.45085 0.56308 0.73157 0.0
C1143 C 0.45533 0.59281 0.73915 0.0
N1144 N 0.43915 0.62595 0.77365 0.0
N1145 N 0.41739 0.50837 0.73824 0.0
C1146 C 0.43532 0.59731 0.76863 0.0
C1147 C 0.42471 0.53739 0.75068 0.0
N1148 N 0.39419 0.5758 0.82561 0.0
N1149 N 0.47193 0.55939 0.70686 0.0
H1150 H 0.39938 0.48888 0.75307 0.0
H1151 H 0.42778 0.50339 0.71093 0.0
H1152 H 0.49069 0.57733 0.69052 0.0
H1153 H 0.47213 0.53893 0.70514 0.0
H1154 H 0.39907 0.59697 0.83869 0.0
H1155 H 0.37568 0.55759 0.84222 0.0
H1156 H 0.42346 0.63042 0.7901 0.0
H1157 H 0.45746 0.64543 0.75919 0.0
C1158 C 0.84592 0.41642 0.77082 0.0
C1159 C 0.86971 0.40973 0.76355 0.0
C1160 C 0.89451 0.45229 0.70818 0.0
C1161 C 0.86947 0.45742 0.71256 0.0
N1162 N 0.81928 0.44204 0.7425 0.0
N1163 N 0.915 0.41873 0.72197 0.0
C1164 C 0.84464 0.43893 0.74256 0.0
C1165 C 0.89343 0.42683 0.73104 0.0
N1166 N 0.82467 0.40136 0.80489 0.0
N1167 N 0.92011 0.47273 0.68433 0.0
H1168 H 0.91638 0.40166 0.74026 0.0
H1169 H 0.93042 0.42763 0.69439 0.0
H1170 H 0.92207 0.49186 0.66733 0.0
H1171 H 0.94049 0.47233 0.68462 0.0
H1172 H 0.80882 0.40751 0.81564 0.0
H1173 H 0.8241 0.38381 0.8248 0.0
H1174 H 0.79912 0.42727 0.75985 0.0
H1175 H 0.81737 0.45798 0.72179 0.0
loop_
_geom_bond_atom_site_label_1
_geom_bond_atom_site_label_2
_geom_bond_distance
_geom_bond_site_symmetry_2
_ccdc_geom_bond_type
C0 O1 1.160 . S
C0 O7 1.185 . S
O1 C0 1.160 . S
O2 Zn3 1.899 . S
O2 C10 1.284 . S
Zn3 O2 1.899 . S
Zn3 O4 2.032 . S
Zn3 O7 2.086 . S
Zn3 O12 1.977 . S
O4 Zn3 2.032 . S
O4 C8 1.278 . S
C5 O6 1.203 . S
C5 O12 1.267 . S
O6 C5 1.203 . S
O7 C0 1.185 . S
O7 Zn3 2.086 . S
C8 O4 1.278 . S
C8 O9 1.211 . S
O9 C8 1.211 . S
C10 O2 1.284 . S
C10 O11 1.273 . S
O11 C10 1.273 . S
O12 Zn3 1.977 . S
O12 C5 1.267 . S
C13 O14 1.160 . S
C13 O20 1.185 . S
O14 C13 1.160 . S
O15 Zn16 1.899 . S
O15 C23 1.284 . S
Zn16 O15 1.899 . S
Zn16 O17 2.032 . S
Zn16 O20 2.086 . S
Zn16 O25 1.977 . S
O17 Zn16 2.032 . S
O17 C21 1.278 . S
C18 O19 1.203 . S
C18 O25 1.267 . S
O19 C18 1.203 . S
O20 C13 1.185 . S
O20 Zn16 2.086 . S
C21 O17 1.278 . S
C21 O22 1.211 . S
O22 C21 1.211 . S
C23 O15 1.284 . S
C23 O24 1.273 . S
O24 C23 1.273 . S
O25 Zn16 1.977 . S
O25 C18 1.267 . S
C26 O27 1.160 . S
C26 O33 1.185 . S
O27 C26 1.160 . S
O28 Zn29 1.899 . S
O28 C36 1.284 . S
Zn29 O28 1.899 . S
Zn29 O30 2.032 . S
Zn29 O33 2.086 . S
Zn29 O38 1.977 . S
O30 Zn29 2.032 . S
O30 C34 1.278 . S
C31 O32 1.203 . S
C31 O38 1.267 . S
O32 C31 1.203 . S
O33 C26 1.185 . S
O33 Zn29 2.086 . S
C34 O30 1.278 . S
C34 O35 1.211 . S
O35 C34 1.211 . S
C36 O28 1.284 . S
C36 O37 1.273 . S
O37 C36 1.273 . S
O38 Zn29 1.977 . S
O38 C31 1.267 . S
C39 O40 1.160 . S
C39 O46 1.185 . S
O40 C39 1.160 . S
O41 Zn42 1.899 . S
O41 C49 1.284 . S
Zn42 O41 1.899 . S
Zn42 O43 2.032 . S
Zn42 O46 2.086 . S
Zn42 O51 1.977 . S
O43 Zn42 2.032 . S
O43 C47 1.278 . S
C44 O45 1.203 . S
C44 O51 1.267 . S
O45 C44 1.203 . S
O46 C39 1.185 . S
O46 Zn42 2.086 . S
C47 O43 1.278 . S
C47 O48 1.211 . S
O48 C47 1.211 . S
C49 O41 1.284 . S
C49 O50 1.273 . S
O50 C49 1.273 . S
O51 Zn42 1.977 . S
O51 C44 1.267 . S
C52 O53 1.160 . S
C52 O59 1.185 . S
O53 C52 1.160 . S
O54 Zn55 1.899 . S
O54 C62 1.284 . S
Zn55 O54 1.899 . S
Zn55 O56 2.032 . S
Zn55 O59 2.086 . S
Zn55 O64 1.977 . S
O56 Zn55 2.032 . S
O56 C60 1.278 . S
C57 O58 1.203 . S
C57 O64 1.267 . S
O58 C57 1.203 . S
O59 C52 1.185 . S
O59 Zn55 2.086 . S
C60 O56 1.278 . S
C60 O61 1.211 . S
O61 C60 1.211 . S
C62 O54 1.284 . S
C62 O63 1.273 . S
O63 C62 1.273 . S
O64 Zn55 1.977 . S
O64 C57 1.267 . S
C65 O66 1.160 . S
C65 O72 1.185 . S
O66 C65 1.160 . S
O67 Zn68 1.899 . S
O67 C75 1.284 . S
Zn68 O67 1.899 . S
Zn68 O69 2.032 . S
Zn68 O72 2.086 . S
Zn68 O77 1.977 . S
O69 Zn68 2.032 . S
O69 C73 1.278 . S
C70 O71 1.203 . S
C70 O77 1.267 . S
O71 C70 1.203 . S
O72 C65 1.185 . S
O72 Zn68 2.086 . S
C73 O69 1.278 . S
C73 O74 1.211 . S
O74 C73 1.211 . S
C75 O67 1.284 . S
C75 O76 1.273 . S
O76 C75 1.273 . S
O77 Zn68 1.977 . S
O77 C70 1.267 . S
C78 O79 1.160 . S
C78 O85 1.185 . S
O79 C78 1.160 . S
O80 Zn81 1.899 . S
O80 C88 1.284 . S
Zn81 O80 1.899 . S
Zn81 O82 2.032 . S
Zn81 O85 2.086 . S
Zn81 O90 1.977 . S
O82 Zn81 2.032 . S
O82 C86 1.278 . S
C83 O84 1.203 . S
C83 O90 1.267 . S
O84 C83 1.203 . S
O85 C78 1.185 . S
O85 Zn81 2.086 . S
C86 O82 1.278 . S
C86 O87 1.211 . S
O87 C86 1.211 . S
C88 O80 1.284 . S
C88 O89 1.273 . S
O89 C88 1.273 . S
O90 Zn81 1.977 . S
O90 C83 1.267 . S
C91 O92 1.160 . S
C91 O98 1.185 . S
O92 C91 1.160 . S
O93 Zn94 1.899 . S
O93 C101 1.284 . S
Zn94 O93 1.899 . S
Zn94 O95 2.032 . S
Zn94 O98 2.086 . S
Zn94 O103 1.977 . S
O95 Zn94 2.032 . S
O95 C99 1.278 . S
C96 O97 1.203 . S
C96 O103 1.267 . S
O97 C96 1.203 . S
O98 C91 1.185 . S
O98 Zn94 2.086 . S
C99 O95 1.278 . S
C99 O100 1.211 . S
O100 C99 1.211 . S
C101 O93 1.284 . S
C101 O102 1.273 . S
O102 C101 1.273 . S
O103 Zn94 1.977 . S
O103 C96 1.267 . S
C104 O105 1.160 . S
C104 O111 1.185 . S
O105 C104 1.160 . S
O106 Zn107 1.899 . S
O106 C114 1.284 . S
Zn107 O106 1.899 . S
Zn107 O108 2.032 . S
Zn107 O111 2.086 . S
Zn107 O116 1.977 . S
O108 Zn107 2.032 . S
O108 C112 1.278 . S
C109 O110 1.203 . S
C109 O116 1.267 . S
O110 C109 1.203 . S
O111 C104 1.185 . S
O111 Zn107 2.086 . S
C112 O108 1.278 . S
C112 O113 1.211 . S
O113 C112 1.211 . S
C114 O106 1.284 . S
C114 O115 1.273 . S
O115 C114 1.273 . S
O116 Zn107 1.977 . S
O116 C109 1.267 . S
C117 O118 1.160 . S
C117 O124 1.185 . S
O118 C117 1.160 . S
O119 Zn120 1.899 . S
O119 C127 1.284 . S
Zn120 O119 1.899 . S
Zn120 O121 2.032 . S
Zn120 O124 2.086 . S
Zn120 O129 1.977 . S
O121 Zn120 2.032 . S
O121 C125 1.278 . S
C122 O123 1.203 . S
C122 O129 1.267 . S
O123 C122 1.203 . S
O124 C117 1.185 . S
O124 Zn120 2.086 . S
C125 O121 1.278 . S
C125 O126 1.211 . S
O126 C125 1.211 . S
C127 O119 1.284 . S
C127 O128 1.273 . S
O128 C127 1.273 . S
O129 Zn120 1.977 . S
O129 C122 1.267 . S
C130 O131 1.160 . S
C130 O137 1.185 . S
O131 C130 1.160 . S
O132 Zn133 1.899 . S
O132 C140 1.284 . S
Zn133 O132 1.899 . S
Zn133 O134 2.032 . S
Zn133 O137 2.086 . S
Zn133 O142 1.977 . S
O134 Zn133 2.032 . S
O134 C138 1.278 . S
C135 O136 1.203 . S
C135 O142 1.267 . S
O136 C135 1.203 . S
O137 C130 1.185 . S
O137 Zn133 2.086 . S
C138 O134 1.278 . S
C138 O139 1.211 . S
O139 C138 1.211 . S
C140 O132 1.284 . S
C140 O141 1.273 . S
O141 C140 1.273 . S
O142 Zn133 1.977 . S
O142 C135 1.267 . S
C143 O144 1.160 . S
C143 O150 1.185 . S
O144 C143 1.160 . S
O145 Zn146 1.899 . S
O145 C153 1.284 . S
Zn146 O145 1.899 . S
Zn146 O147 2.032 . S
Zn146 O150 2.086 . S
Zn146 O155 1.977 . S
O147 Zn146 2.032 . S
O147 C151 1.278 . S
C148 O149 1.203 . S
C148 O155 1.267 . S
O149 C148 1.203 . S
O150 C143 1.185 . S
O150 Zn146 2.086 . S
C151 O147 1.278 . S
C151 O152 1.211 . S
O152 C151 1.211 . S
C153 O145 1.284 . S
C153 O154 1.273 . S
O154 C153 1.273 . S
O155 Zn146 1.977 . S
O155 C148 1.267 . S
C156 O157 1.160 . S
C156 O163 1.185 . S
O157 C156 1.160 . S
O158 Zn159 1.899 . S
O158 C166 1.284 . S
Zn159 O158 1.899 . S
Zn159 O160 2.032 . S
Zn159 O163 2.086 . S
Zn159 O168 1.977 . S
O160 Zn159 2.032 . S
O160 C164 1.278 . S
C161 O162 1.203 . S
C161 O168 1.267 . S
O162 C161 1.203 . S
O163 C156 1.185 . S
O163 Zn159 2.086 . S
C164 O160 1.278 . S
C164 O165 1.211 . S
O165 C164 1.211 . S
C166 O158 1.284 . S
C166 O167 1.273 . S
O167 C166 1.273 . S
O168 Zn159 1.977 . S
O168 C161 1.267 . S
C169 O170 1.160 . S
C169 O176 1.185 . S
O170 C169 1.160 . S
O171 Zn172 1.899 . S
O171 C179 1.284 . S
Zn172 O171 1.899 . S
Zn172 O173 2.032 . S
Zn172 O176 2.086 . S
Zn172 O181 1.977 . S
O173 Zn172 2.032 . S
O173 C177 1.278 . S
C174 O175 1.203 . S
C174 O181 1.267 . S
O175 C174 1.203 . S
O176 C169 1.185 . S
O176 Zn172 2.086 . S
C177 O173 1.278 . S
C177 O178 1.211 . S
O178 C177 1.211 . S
C179 O171 1.284 . S
C179 O180 1.273 . S
O180 C179 1.273 . S
O181 Zn172 1.977 . S
O181 C174 1.267 . S
C182 O183 1.160 . S
C182 O189 1.185 . S
O183 C182 1.160 . S
O184 Zn185 1.899 . S
O184 C192 1.284 . S
Zn185 O184 1.899 . S
Zn185 O186 2.032 . S
Zn185 O189 2.086 . S
Zn185 O194 1.977 . S
O186 Zn185 2.032 . S
O186 C190 1.278 . S
C187 O188 1.203 . S
C187 O194 1.267 . S
O188 C187 1.203 . S
O189 C182 1.185 . S
O189 Zn185 2.086 . S
C190 O186 1.278 . S
C190 O191 1.211 . S
O191 C190 1.211 . S
C192 O184 1.284 . S
C192 O193 1.273 . S
O193 C192 1.273 . S
O194 Zn185 1.977 . S
O194 C187 1.267 . S
C195 O196 1.160 . S
C195 O202 1.185 . S
O196 C195 1.160 . S
O197 Zn198 1.899 . S
O197 C205 1.284 . S
Zn198 O197 1.899 . S
Zn198 O199 2.032 . S
Zn198 O202 2.086 . S
Zn198 O207 1.977 . S
O199 Zn198 2.032 . S
O199 C203 1.278 . S
C200 O201 1.203 . S
C200 O207 1.267 . S
O201 C200 1.203 . S
O202 C195 1.185 . S
O202 Zn198 2.086 . S
C203 O199 1.278 . S
C203 O204 1.211 . S
O204 C203 1.211 . S
C205 O197 1.284 . S
C205 O206 1.273 . S
O206 C205 1.273 . S
O207 Zn198 1.977 . S
O207 C200 1.267 . S
C208 O209 1.160 . S
C208 O215 1.185 . S
O209 C208 1.160 . S
O210 Zn211 1.899 . S
O210 C218 1.284 . S
Zn211 O210 1.899 . S
Zn211 O212 2.032 . S
Zn211 O215 2.086 . S
Zn211 O220 1.977 . S
O212 Zn211 2.032 . S
O212 C216 1.278 . S
C213 O214 1.203 . S
C213 O220 1.267 . S
O214 C213 1.203 . S
O215 C208 1.185 . S
O215 Zn211 2.086 . S
C216 O212 1.278 . S
C216 O217 1.211 . S
O217 C216 1.211 . S
C218 O210 1.284 . S
C218 O219 1.273 . S
O219 C218 1.273 . S
O220 Zn211 1.977 . S
O220 C213 1.267 . S
C221 O222 1.160 . S
C221 O228 1.185 . S
O222 C221 1.160 . S
O223 Zn224 1.899 . S
O223 C231 1.284 . S
Zn224 O223 1.899 . S
Zn224 O225 2.032 . S
Zn224 O228 2.086 . S
Zn224 O233 1.977 . S
O225 Zn224 2.032 . S
O225 C229 1.278 . S
C226 O227 1.203 . S
C226 O233 1.267 . S
O227 C226 1.203 . S
O228 C221 1.185 . S
O228 Zn224 2.086 . S
C229 O225 1.278 . S
C229 O230 1.211 . S
O230 C229 1.211 . S
C231 O223 1.284 . S
C231 O232 1.273 . S
O232 C231 1.273 . S
O233 Zn224 1.977 . S
O233 C226 1.267 . S
C234 O235 1.160 . S
C234 O241 1.185 . S
O235 C234 1.160 . S
O236 Zn237 1.899 . S
O236 C244 1.284 . S
Zn237 O236 1.899 . S
Zn237 O238 2.032 . S
Zn237 O241 2.086 . S
Zn237 O246 1.977 . S
O238 Zn237 2.032 . S
O238 C242 1.278 . S
C239 O240 1.203 . S
C239 O246 1.267 . S
O240 C239 1.203 . S
O241 C234 1.185 . S
O241 Zn237 2.086 . S
C242 O238 1.278 . S
C242 O243 1.211 . S
O243 C242 1.211 . S
C244 O236 1.284 . S
C244 O245 1.273 . S
O245 C244 1.273 . S
O246 Zn237 1.977 . S
O246 C239 1.267 . S
C247 O248 1.160 . S
C247 O254 1.185 . S
O248 C247 1.160 . S
O249 Zn250 1.899 . S
O249 C257 1.284 . S
Zn250 O249 1.899 . S
Zn250 O251 2.032 . S
Zn250 O254 2.086 . S
Zn250 O259 1.977 . S
O251 Zn250 2.032 . S
O251 C255 1.278 . S
C252 O253 1.203 . S
C252 O259 1.267 . S
O253 C252 1.203 . S
O254 C247 1.185 . S
O254 Zn250 2.086 . S
C255 O251 1.278 . S
C255 O256 1.211 . S
O256 C255 1.211 . S
C257 O249 1.284 . S
C257 O258 1.273 . S
O258 C257 1.273 . S
O259 Zn250 1.977 . S
O259 C252 1.267 . S
C260 O261 1.160 . S
C260 O267 1.185 . S
O261 C260 1.160 . S
O262 Zn263 1.899 . S
O262 C270 1.284 . S
Zn263 O262 1.899 . S
Zn263 O264 2.032 . S
Zn263 O267 2.086 . S
Zn263 O272 1.977 . S
O264 Zn263 2.032 . S
O264 C268 1.278 . S
C265 O266 1.203 . S
C265 O272 1.267 . S
O266 C265 1.203 . S
O267 C260 1.185 . S
O267 Zn263 2.086 . S
C268 O264 1.278 . S
C268 O269 1.211 . S
O269 C268 1.211 . S
C270 O262 1.284 . S
C270 O271 1.273 . S
O271 C270 1.273 . S
O272 Zn263 1.977 . S
O272 C265 1.267 . S
C273 O274 1.160 . S
C273 O280 1.185 . S
O274 C273 1.160 . S
O275 Zn276 1.899 . S
O275 C283 1.284 . S
Zn276 O275 1.899 . S
Zn276 O277 2.032 . S
Zn276 O280 2.086 . S
Zn276 O285 1.977 . S
O277 Zn276 2.032 . S
O277 C281 1.278 . S
C278 O279 1.203 . S
C278 O285 1.267 . S
O279 C278 1.203 . S
O280 C273 1.185 . S
O280 Zn276 2.086 . S
C281 O277 1.278 . S
C281 O282 1.211 . S
O282 C281 1.211 . S
C283 O275 1.284 . S
C283 O284 1.273 . S
O284 C283 1.273 . S
O285 Zn276 1.977 . S
O285 C278 1.267 . S
C286 O287 1.160 . S
C286 O293 1.185 . S
O287 C286 1.160 . S
O288 Zn289 1.899 . S
O288 C296 1.284 . S
Zn289 O288 1.899 . S
Zn289 O290 2.032 . S
Zn289 O293 2.086 . S
Zn289 O298 1.977 . S
O290 Zn289 2.032 . S
O290 C294 1.278 . S
C291 O292 1.203 . S
C291 O298 1.267 . S
O292 C291 1.203 . S
O293 C286 1.185 . S
O293 Zn289 2.086 . S
C294 O290 1.278 . S
C294 O295 1.211 . S
O295 C294 1.211 . S
C296 O288 1.284 . S
C296 O297 1.273 . S
O297 C296 1.273 . S
O298 Zn289 1.977 . S
O298 C291 1.267 . S
C299 O300 1.160 . S
C299 O306 1.185 . S
O300 C299 1.160 . S
O301 Zn302 1.899 . S
O301 C309 1.284 . S
Zn302 O301 1.899 . S
Zn302 O303 2.032 . S
Zn302 O306 2.086 . S
Zn302 O311 1.977 . S
O303 Zn302 2.032 . S
O303 C307 1.278 . S
C304 O305 1.203 . S
C304 O311 1.267 . S
O305 C304 1.203 . S
O306 C299 1.185 . S
O306 Zn302 2.086 . S
C307 O303 1.278 . S
C307 O308 1.211 . S
O308 C307 1.211 . S
C309 O301 1.284 . S
C309 O310 1.273 . S
O310 C309 1.273 . S
O311 Zn302 1.977 . S
O311 C304 1.267 . S
C312 C313 1.363 . S
C312 C318 1.379 1_545 S
C312 N320 1.356 . S
C313 C312 1.363 . S
C313 C319 1.363 . S
C314 C315 1.363 . S
C314 C319 1.379 1_565 S
C314 N321 1.356 . S
C315 C314 1.363 . S
C315 C318 1.363 . S
N316 C318 1.356 . S
N316 H328 0.984 . S
N316 H329 0.985 . S
N317 C319 1.356 . S
N317 H322 0.984 . S
N317 H323 0.985 . S
C318 C312 1.379 1_565 S
C318 C315 1.363 . S
C318 N316 1.356 . S
C319 C313 1.363 . S
C319 C314 1.379 1_545 S
C319 N317 1.356 . S
N320 C312 1.356 . S
N320 H326 0.984 . S
N320 H327 0.984 . S
N321 C314 1.356 . S
N321 H324 0.984 . S
N321 H325 0.985 . S
H322 N317 0.984 . S
H323 N317 0.985 . S
H324 N321 0.984 . S
H325 N321 0.985 . S
H326 N320 0.984 . S
H327 N320 0.984 . S
H328 N316 0.984 . S
H329 N316 0.985 . S
C330 C331 1.363 . S
C330 C336 1.379 . S
C330 N338 1.356 . S
C331 C330 1.363 . S
C331 C337 1.363 . S
C332 C333 1.363 . S
C332 C337 1.379 . S
C332 N339 1.356 . S
C333 C332 1.363 . S
C333 C336 1.363 . S
N334 C336 1.356 . S
N334 H346 0.984 . S
N334 H347 0.985 . S
N335 C337 1.356 . S
N335 H340 0.984 . S
N335 H341 0.985 . S
C336 C330 1.379 . S
C336 C333 1.363 . S
C336 N334 1.356 . S
C337 C331 1.363 . S
C337 C332 1.379 . S
C337 N335 1.356 . S
N338 C330 1.356 . S
N338 H344 0.984 . S
N338 H345 0.984 . S
N339 C332 1.356 . S
N339 H342 0.984 . S
N339 H343 0.985 . S
H340 N335 0.984 . S
H341 N335 0.985 . S
H342 N339 0.984 . S
H343 N339 0.985 . S
H344 N338 0.984 . S
H345 N338 0.984 . S
H346 N334 0.984 . S
H347 N334 0.985 . S
C348 C349 1.363 . S
C348 C354 1.379 1_655 S
C348 N356 1.356 . S
C349 C348 1.363 . S
C349 C355 1.363 . S
C350 C351 1.363 . S
C350 C355 1.379 1_455 S
C350 N357 1.356 . S
C351 C350 1.363 . S
C351 C354 1.363 . S
N352 C354 1.356 . S
N352 H364 0.984 . S
N352 H365 0.985 . S
N353 C355 1.356 . S
N353 H358 0.984 . S
N353 H359 0.985 . S
C354 C348 1.379 1_455 S
C354 C351 1.363 . S
C354 N352 1.356 . S
C355 C349 1.363 . S
C355 C350 1.379 1_655 S
C355 N353 1.356 . S
N356 C348 1.356 . S
N356 H362 0.984 . S
N356 H363 0.984 . S
N357 C350 1.356 . S
N357 H360 0.984 . S
N357 H361 0.985 . S
H358 N353 0.984 . S
H359 N353 0.985 . S
H360 N357 0.984 . S
H361 N357 0.985 . S
H362 N356 0.984 . S
H363 N356 0.984 . S
H364 N352 0.984 . S
H365 N352 0.985 . S
C366 C367 1.363 . S
C366 C372 1.379 1_565 S
C366 N374 1.356 . S
C367 C366 1.363 . S
C367 C373 1.363 . S
C368 C369 1.363 . S
C368 C373 1.379 1_545 S
C368 N375 1.356 . S
C369 C368 1.363 . S
C369 C372 1.363 . S
N370 C372 1.356 . S
N370 H382 0.984 . S
N370 H383 0.985 . S
N371 C373 1.356 . S
N371 H376 0.984 . S
N371 H377 0.985 . S
C372 C366 1.379 1_545 S
C372 C369 1.363 . S
C372 N370 1.356 . S
C373 C367 1.363 . S
C373 C368 1.379 1_565 S
C373 N371 1.356 . S
N374 C366 1.356 . S
N374 H380 0.984 . S
N374 H381 0.984 . S
N375 C368 1.356 . S
N375 H378 0.984 . S
N375 H379 0.985 . S
H376 N371 0.984 . S
H377 N371 0.985 . S
H378 N375 0.984 . S
H379 N375 0.985 . S
H380 N374 0.984 . S
H381 N374 0.984 . S
H382 N370 0.984 . S
H383 N370 0.985 . S
C384 C385 1.363 . S
C384 C390 1.379 . S
C384 N392 1.356 . S
C385 C384 1.363 . S
C385 C391 1.363 . S
C386 C387 1.363 . S
C386 C391 1.379 . S
C386 N393 1.356 . S
C387 C386 1.363 . S
C387 C390 1.363 . S
N388 C390 1.356 . S
N388 H400 0.984 . S
N388 H401 0.985 . S
N389 C391 1.356 . S
N389 H394 0.984 . S
N389 H395 0.985 . S
C390 C384 1.379 . S
C390 C387 1.363 . S
C390 N388 1.356 . S
C391 C385 1.363 . S
C391 C386 1.379 . S
C391 N389 1.356 . S
N392 C384 1.356 . S
N392 H398 0.984 . S
N392 H399 0.984 . S
N393 C386 1.356 . S
N393 H396 0.984 . S
N393 H397 0.985 . S
H394 N389 0.984 . S
H395 N389 0.985 . S
H396 N393 0.984 . S
H397 N393 0.985 . S
H398 N392 0.984 . S
H399 N392 0.984 . S
H400 N388 0.984 . S
H401 N388 0.985 . S
C402 C403 1.363 . S
C402 C408 1.379 1_455 S
C402 N410 1.356 . S
C403 C402 1.363 . S
C403 C409 1.363 . S
C404 C405 1.363 . S
C404 C409 1.379 1_655 S
C404 N411 1.356 . S
C405 C404 1.363 . S
C405 C408 1.363 . S
N406 C408 1.356 . S
N406 H418 0.984 . S
N406 H419 0.985 . S
N407 C409 1.356 . S
N407 H412 0.984 . S
N407 H413 0.985 . S
C408 C402 1.379 1_655 S
C408 C405 1.363 . S
C408 N406 1.356 . S
C409 C403 1.363 . S
C409 C404 1.379 1_455 S
C409 N407 1.356 . S
N410 C402 1.356 . S
N410 H416 0.984 . S
N410 H417 0.984 . S
N411 C404 1.356 . S
N411 H414 0.984 . S
N411 H415 0.985 . S
H412 N407 0.984 . S
H413 N407 0.985 . S
H414 N411 0.984 . S
H415 N411 0.985 . S
H416 N410 0.984 . S
H417 N410 0.984 . S
H418 N406 0.984 . S
H419 N406 0.985 . S
C420 C421 1.363 . S
C420 C426 1.379 1_565 S
C420 N428 1.356 . S
C421 C420 1.363 . S
C421 C427 1.363 . S
C422 C423 1.363 . S
C422 C427 1.379 1_545 S
C422 N429 1.356 . S
C423 C422 1.363 . S
C423 C426 1.363 . S
N424 C426 1.356 . S
N424 H436 0.984 . S
N424 H437 0.985 . S
N425 C427 1.356 . S
N425 H430 0.984 . S
N425 H431 0.985 . S
C426 C420 1.379 1_545 S
C426 C423 1.363 . S
C426 N424 1.356 . S
C427 C421 1.363 . S
C427 C422 1.379 1_565 S
C427 N425 1.356 . S
N428 C420 1.356 . S
N428 H434 0.984 . S
N428 H435 0.984 . S
N429 C422 1.356 . S
N429 H432 0.984 . S
N429 H433 0.985 . S
H430 N425 0.984 . S
H431 N425 0.985 . S
H432 N429 0.984 . S
H433 N429 0.985 . S
H434 N428 0.984 . S
H435 N428 0.984 . S
H436 N424 0.984 . S
H437 N424 0.985 . S
C438 C439 1.363 . S
C438 C444 1.379 . S
C438 N446 1.356 . S
C439 C438 1.363 . S
C439 C445 1.363 . S
C440 C441 1.363 . S
C440 C445 1.379 . S
C440 N447 1.356 . S
C441 C440 1.363 . S
C441 C444 1.363 . S
N442 C444 1.356 . S
N442 H454 0.984 . S
N442 H455 0.985 . S
N443 C445 1.356 . S
N443 H448 0.984 . S
N443 H449 0.985 . S
C444 C438 1.379 . S
C444 C441 1.363 . S
C444 N442 1.356 . S
C445 C439 1.363 . S
C445 C440 1.379 . S
C445 N443 1.356 . S
N446 C438 1.356 . S
N446 H452 0.984 . S
N446 H453 0.984 . S
N447 C440 1.356 . S
N447 H450 0.984 . S
N447 H451 0.985 . S
H448 N443 0.984 . S
H449 N443 0.985 . S
H450 N447 0.984 . S
H451 N447 0.985 . S
H452 N446 0.984 . S
H453 N446 0.984 . S
H454 N442 0.984 . S
H455 N442 0.985 . S
C456 C457 1.363 . S
C456 C462 1.379 1_655 S
C456 N464 1.356 . S
C457 C456 1.363 . S
C457 C463 1.363 . S
C458 C459 1.363 . S
C458 C463 1.379 1_455 S
C458 N465 1.356 . S
C459 C458 1.363 . S
C459 C462 1.363 . S
N460 C462 1.356 . S
N460 H472 0.984 . S
N460 H473 0.985 . S
N461 C463 1.356 . S
N461 H466 0.984 . S
N461 H467 0.985 . S
C462 C456 1.379 1_455 S
C462 C459 1.363 . S
C462 N460 1.356 . S
C463 C457 1.363 . S
C463 C458 1.379 1_655 S
C463 N461 1.356 . S
N464 C456 1.356 . S
N464 H470 0.984 . S
N464 H471 0.984 . S
N465 C458 1.356 . S
N465 H468 0.984 . S
N465 H469 0.985 . S
H466 N461 0.984 . S
H467 N461 0.985 . S
H468 N465 0.984 . S
H469 N465 0.985 . S
H470 N464 0.984 . S
H471 N464 0.984 . S
H472 N460 0.984 . S
H473 N460 0.985 . S
C474 C475 1.363 . S
C474 C480 1.379 1_545 S
C474 N482 1.356 . S
C475 C474 1.363 . S
C475 C481 1.363 . S
C476 C477 1.363 . S
C476 C481 1.379 1_565 S
C476 N483 1.356 . S
C477 C476 1.363 . S
C477 C480 1.363 . S
N478 C480 1.356 . S
N478 H490 0.984 . S
N478 H491 0.985 . S
N479 C481 1.356 . S
N479 H484 0.984 . S
N479 H485 0.985 . S
C480 C474 1.379 1_565 S
C480 C477 1.363 . S
C480 N478 1.356 . S
C481 C475 1.363 . S
C481 C476 1.379 1_545 S
C481 N479 1.356 . S
N482 C474 1.356 . S
N482 H488 0.984 . S
N482 H489 0.984 . S
N483 C476 1.356 . S
N483 H486 0.984 . S
N483 H487 0.985 . S
H484 N479 0.984 . S
H485 N479 0.985 . S
H486 N483 0.984 . S
H487 N483 0.985 . S
H488 N482 0.984 . S
H489 N482 0.984 . S
H490 N478 0.984 . S
H491 N478 0.985 . S
C492 C493 1.363 . S
C492 C498 1.379 . S
C492 N500 1.356 . S
C493 C492 1.363 . S
C493 C499 1.363 . S
C494 C495 1.363 . S
C494 C499 1.379 . S
C494 N501 1.356 . S
C495 C494 1.363 . S
C495 C498 1.363 . S
N496 C498 1.356 . S
N496 H508 0.984 . S
N496 H509 0.985 . S
N497 C499 1.356 . S
N497 H502 0.984 . S
N497 H503 0.985 . S
C498 C492 1.379 . S
C498 C495 1.363 . S
C498 N496 1.356 . S
C499 C493 1.363 . S
C499 C494 1.379 . S
C499 N497 1.356 . S
N500 C492 1.356 . S
N500 H506 0.984 . S
N500 H507 0.984 . S
N501 C494 1.356 . S
N501 H504 0.984 . S
N501 H505 0.985 . S
H502 N497 0.984 . S
H503 N497 0.985 . S
H504 N501 0.984 . S
H505 N501 0.985 . S
H506 N500 0.984 . S
H507 N500 0.984 . S
H508 N496 0.984 . S
H509 N496 0.985 . S
C510 C511 1.363 . S
C510 C516 1.379 1_455 S
C510 N518 1.356 . S
C511 C510 1.363 . S
C511 C517 1.363 . S
C512 C513 1.363 . S
C512 C517 1.379 1_655 S
C512 N519 1.356 . S
C513 C512 1.363 . S
C513 C516 1.363 . S
N514 C516 1.356 . S
N514 H526 0.984 . S
N514 H527 0.985 . S
N515 C517 1.356 . S
N515 H520 0.984 . S
N515 H521 0.985 . S
C516 C510 1.379 1_655 S
C516 C513 1.363 . S
C516 N514 1.356 . S
C517 C511 1.363 . S
C517 C512 1.379 1_455 S
C517 N515 1.356 . S
N518 C510 1.356 . S
N518 H524 0.984 . S
N518 H525 0.984 . S
N519 C512 1.356 . S
N519 H522 0.984 . S
N519 H523 0.985 . S
H520 N515 0.984 . S
H521 N515 0.985 . S
H522 N519 0.984 . S
H523 N519 0.985 . S
H524 N518 0.984 . S
H525 N518 0.984 . S
H526 N514 0.984 . S
H527 N514 0.985 . S
C528 C529 1.363 . S
C528 C534 1.379 . S
C528 N536 1.356 . S
C529 C528 1.363 . S
C529 C535 1.363 . S
C530 C531 1.363 . S
C530 C535 1.379 . S
C530 N537 1.356 . S
C531 C530 1.363 . S
C531 C534 1.363 . S
N532 C534 1.356 . S
N532 H544 0.984 . S
N532 H545 0.985 . S
N533 C535 1.356 . S
N533 H538 0.984 . S
N533 H539 0.985 . S
C534 C528 1.379 . S
C534 C531 1.363 . S
C534 N532 1.356 . S
C535 C529 1.363 . S
C535 C530 1.379 . S
C535 N533 1.356 . S
N536 C528 1.356 . S
N536 H542 0.984 . S
N536 H543 0.984 . S
N537 C530 1.356 . S
N537 H540 0.984 . S
N537 H541 0.985 . S
H538 N533 0.984 . S
H539 N533 0.985 . S
H540 N537 0.984 . S
H541 N537 0.985 . S
H542 N536 0.984 . S
H543 N536 0.984 . S
H544 N532 0.984 . S
H545 N532 0.985 . S
C546 C547 1.363 . S
C546 C552 1.379 . S
C546 N554 1.356 . S
C547 C546 1.363 . S
C547 C553 1.363 . S
C548 C549 1.363 . S
C548 C553 1.379 . S
C548 N555 1.356 . S
C549 C548 1.363 . S
C549 C552 1.363 . S
N550 C552 1.356 . S
N550 H562 0.984 . S
N550 H563 0.985 . S
N551 C553 1.356 . S
N551 H556 0.984 . S
N551 H557 0.985 . S
C552 C546 1.379 . S
C552 C549 1.363 . S
C552 N550 1.356 . S
C553 C547 1.363 . S
C553 C548 1.379 . S
C553 N551 1.356 . S
N554 C546 1.356 . S
N554 H560 0.984 . S
N554 H561 0.984 . S
N555 C548 1.356 . S
N555 H558 0.984 . S
N555 H559 0.985 . S
H556 N551 0.984 . S
H557 N551 0.985 . S
H558 N555 0.984 . S
H559 N555 0.985 . S
H560 N554 0.984 . S
H561 N554 0.984 . S
H562 N550 0.984 . S
H563 N550 0.985 . S
C564 C565 1.363 . S
C564 C570 1.379 . S
C564 N572 1.356 . S
C565 C564 1.363 . S
C565 C571 1.363 . S
C566 C567 1.363 . S
C566 C571 1.379 . S
C566 N573 1.356 . S
C567 C566 1.363 . S
C567 C570 1.363 . S
N568 C570 1.356 . S
N568 H580 0.984 . S
N568 H581 0.985 . S
N569 C571 1.356 . S
N569 H574 0.984 . S
N569 H575 0.985 . S
C570 C564 1.379 . S
C570 C567 1.363 . S
C570 N568 1.356 . S
C571 C565 1.363 . S
C571 C566 1.379 . S
C571 N569 1.356 . S
N572 C564 1.356 . S
N572 H578 0.984 . S
N572 H579 0.984 . S
N573 C566 1.356 . S
N573 H576 0.984 . S
N573 H577 0.985 . S
H574 N569 0.984 . S
H575 N569 0.985 . S
H576 N573 0.984 . S
H577 N573 0.985 . S
H578 N572 0.984 . S
H579 N572 0.984 . S
H580 N568 0.984 . S
H581 N568 0.985 . S
C582 C583 1.363 . S
C582 C588 1.379 . S
C582 N590 1.356 . S
C583 C582 1.363 . S
C583 C589 1.363 . S
C584 C585 1.363 . S
C584 C589 1.379 . S
C584 N591 1.356 . S
C585 C584 1.363 . S
C585 C588 1.363 . S
N586 C588 1.356 . S
N586 H598 0.984 . S
N586 H599 0.985 . S
N587 C589 1.356 . S
N587 H592 0.984 . S
N587 H593 0.985 . S
C588 C582 1.379 . S
C588 C585 1.363 . S
C588 N586 1.356 . S
C589 C583 1.363 . S
C589 C584 1.379 . S
C589 N587 1.356 . S
N590 C582 1.356 . S
N590 H596 0.984 . S
N590 H597 0.984 . S
N591 C584 1.356 . S
N591 H594 0.984 . S
N591 H595 0.985 . S
H592 N587 0.984 . S
H593 N587 0.985 . S
H594 N591 0.984 . S
H595 N591 0.985 . S
H596 N590 0.984 . S
H597 N590 0.984 . S
H598 N586 0.984 . S
H599 N586 0.985 . S
C600 C601 1.363 . S
C600 C606 1.379 . S
C600 N608 1.356 . S
C601 C600 1.363 . S
C601 C607 1.363 . S
C602 C603 1.363 . S
C602 C607 1.379 . S
C602 N609 1.356 . S
C603 C602 1.363 . S
C603 C606 1.363 . S
N604 C606 1.356 . S
N604 H616 0.984 . S
N604 H617 0.985 . S
N605 C607 1.356 . S
N605 H610 0.984 . S
N605 H611 0.985 . S
C606 C600 1.379 . S
C606 C603 1.363 . S
C606 N604 1.356 . S
C607 C601 1.363 . S
C607 C602 1.379 . S
C607 N605 1.356 . S
N608 C600 1.356 . S
N608 H614 0.984 . S
N608 H615 0.984 . S
N609 C602 1.356 . S
N609 H612 0.984 . S
N609 H613 0.985 . S
H610 N605 0.984 . S
H611 N605 0.985 . S
H612 N609 0.984 . S
H613 N609 0.985 . S
H614 N608 0.984 . S
H615 N608 0.984 . S
H616 N604 0.984 . S
H617 N604 0.985 . S
C618 C619 1.363 . S
C618 C624 1.379 . S
C618 N626 1.356 . S
C619 C618 1.363 . S
C619 C625 1.363 . S
C620 C621 1.363 . S
C620 C625 1.379 . S
C620 N627 1.356 . S
C621 C620 1.363 . S
C621 C624 1.363 . S
N622 C624 1.356 . S
N622 H634 0.984 . S
N622 H635 0.985 . S
N623 C625 1.356 . S
N623 H628 0.984 . S
N623 H629 0.985 . S
C624 C618 1.379 . S
C624 C621 1.363 . S
C624 N622 1.356 . S
C625 C619 1.363 . S
C625 C620 1.379 . S
C625 N623 1.356 . S
N626 C618 1.356 . S
N626 H632 0.984 . S
N626 H633 0.984 . S
N627 C620 1.356 . S
N627 H630 0.984 . S
N627 H631 0.985 . S
H628 N623 0.984 . S
H629 N623 0.985 . S
H630 N627 0.984 . S
H631 N627 0.985 . S
H632 N626 0.984 . S
H633 N626 0.984 . S
H634 N622 0.984 . S
H635 N622 0.985 . S
C636 C637 1.363 . S
C636 C642 1.379 . S
C636 N644 1.356 . S
C637 C636 1.363 . S
C637 C643 1.363 . S
C638 C639 1.363 . S
C638 C643 1.379 . S
C638 N645 1.356 . S
C639 C638 1.363 . S
C639 C642 1.363 . S
N640 C642 1.356 . S
N640 H652 0.984 . S
N640 H653 0.985 . S
N641 C643 1.356 . S
N641 H646 0.984 . S
N641 H647 0.985 . S
C642 C636 1.379 . S
C642 C639 1.363 . S
C642 N640 1.356 . S
C643 C637 1.363 . S
C643 C638 1.379 . S
C643 N641 1.356 . S
N644 C636 1.356 . S
N644 H650 0.984 . S
N644 H651 0.984 . S
N645 C638 1.356 . S
N645 H648 0.984 . S
N645 H649 0.985 . S
H646 N641 0.984 . S
H647 N641 0.985 . S
H648 N645 0.984 . S
H649 N645 0.985 . S
H650 N644 0.984 . S
H651 N644 0.984 . S
H652 N640 0.984 . S
H653 N640 0.985 . S
C654 C655 1.363 . S
C654 C660 1.379 . S
C654 N662 1.356 . S
C655 C654 1.363 . S
C655 C661 1.363 . S
C656 C657 1.363 . S
C656 C661 1.379 . S
C656 N663 1.356 . S
C657 C656 1.363 . S
C657 C660 1.363 . S
N658 C660 1.356 . S
N658 H670 0.984 . S
N658 H671 0.985 . S
N659 C661 1.356 . S
N659 H664 0.984 . S
N659 H665 0.985 . S
C660 C654 1.379 . S
C660 C657 1.363 . S
C660 N658 1.356 . S
C661 C655 1.363 . S
C661 C656 1.379 . S
C661 N659 1.356 . S
N662 C654 1.356 . S
N662 H668 0.984 . S
N662 H669 0.984 . S
N663 C656 1.356 . S
N663 H666 0.984 . S
N663 H667 0.985 . S
H664 N659 0.984 . S
H665 N659 0.985 . S
H666 N663 0.984 . S
H667 N663 0.985 . S
H668 N662 0.984 . S
H669 N662 0.984 . S
H670 N658 0.984 . S
H671 N658 0.985 . S
C672 C673 1.363 . S
C672 C678 1.379 . S
C672 N680 1.356 . S
C673 C672 1.363 . S
C673 C679 1.363 . S
C674 C675 1.363 . S
C674 C679 1.379 . S
C674 N681 1.356 . S
C675 C674 1.363 . S
C675 C678 1.363 . S
N676 C678 1.356 . S
N676 H688 0.984 . S
N676 H689 0.985 . S
N677 C679 1.356 . S
N677 H682 0.984 . S
N677 H683 0.985 . S
C678 C672 1.379 . S
C678 C675 1.363 . S
C678 N676 1.356 . S
C679 C673 1.363 . S
C679 C674 1.379 . S
C679 N677 1.356 . S
N680 C672 1.356 . S
N680 H686 0.984 . S
N680 H687 0.984 . S
N681 C674 1.356 . S
N681 H684 0.984 . S
N681 H685 0.985 . S
H682 N677 0.984 . S
H683 N677 0.985 . S
H684 N681 0.984 . S
H685 N681 0.985 . S
H686 N680 0.984 . S
H687 N680 0.984 . S
H688 N676 0.984 . S
H689 N676 0.985 . S
C690 C691 1.363 . S
C690 C696 1.379 . S
C690 N698 1.356 . S
C691 C690 1.363 . S
C691 C697 1.363 . S
C692 C693 1.363 . S
C692 C697 1.379 . S
C692 N699 1.356 . S
C693 C692 1.363 . S
C693 C696 1.363 . S
N694 C696 1.356 . S
N694 H706 0.984 . S
N694 H707 0.985 . S
N695 C697 1.356 . S
N695 H700 0.984 . S
N695 H701 0.985 . S
C696 C690 1.379 . S
C696 C693 1.363 . S
C696 N694 1.356 . S
C697 C691 1.363 . S
C697 C692 1.379 . S
C697 N695 1.356 . S
N698 C690 1.356 . S
N698 H704 0.984 . S
N698 H705 0.984 . S
N699 C692 1.356 . S
N699 H702 0.984 . S
N699 H703 0.985 . S
H700 N695 0.984 . S
H701 N695 0.985 . S
H702 N699 0.984 . S
H703 N699 0.985 . S
H704 N698 0.984 . S
H705 N698 0.984 . S
H706 N694 0.984 . S
H707 N694 0.985 . S
C708 C709 1.363 . S
C708 C714 1.379 . S
C708 N716 1.356 . S
C709 C708 1.363 . S
C709 C715 1.363 . S
C710 C711 1.363 . S
C710 C715 1.379 . S
C710 N717 1.356 . S
C711 C710 1.363 . S
C711 C714 1.363 . S
N712 C714 1.356 . S
N712 H724 0.984 . S
N712 H725 0.985 . S
N713 C715 1.356 . S
N713 H718 0.984 . S
N713 H719 0.985 . S
C714 C708 1.379 . S
C714 C711 1.363 . S
C714 N712 1.356 . S
C715 C709 1.363 . S
C715 C710 1.379 . S
C715 N713 1.356 . S
N716 C708 1.356 . S
N716 H722 0.984 . S
N716 H723 0.984 . S
N717 C710 1.356 . S
N717 H720 0.984 . S
N717 H721 0.985 . S
H718 N713 0.984 . S
H719 N713 0.985 . S
H720 N717 0.984 . S
H721 N717 0.985 . S
H722 N716 0.984 . S
H723 N716 0.984 . S
H724 N712 0.984 . S
H725 N712 0.985 . S
C726 C727 1.363 . S
C726 C732 1.379 . S
C726 N734 1.356 . S
C727 C726 1.363 . S
C727 C733 1.363 . S
C728 C729 1.363 . S
C728 C733 1.379 . S
C728 N735 1.356 . S
C729 C728 1.363 . S
C729 C732 1.363 . S
N730 C732 1.356 . S
N730 H742 0.984 . S
N730 H743 0.985 . S
N731 C733 1.356 . S
N731 H736 0.984 . S
N731 H737 0.985 . S
C732 C726 1.379 . S
C732 C729 1.363 . S
C732 N730 1.356 . S
C733 C727 1.363 . S
C733 C728 1.379 . S
C733 N731 1.356 . S
N734 C726 1.356 . S
N734 H740 0.984 . S
N734 H741 0.984 . S
N735 C728 1.356 . S
N735 H738 0.984 . S
N735 H739 0.985 . S
H736 N731 0.984 . S
H737 N731 0.985 . S
H738 N735 0.984 . S
H739 N735 0.985 . S
H740 N734 0.984 . S
H741 N734 0.984 . S
H742 N730 0.984 . S
H743 N730 0.985 . S
C744 C745 1.363 . S
C744 C750 1.379 1_554 S
C744 N752 1.356 . S
C745 C744 1.363 . S
C745 C751 1.363 . S
C746 C747 1.363 . S
C746 C751 1.379 1_556 S
C746 N753 1.356 . S
C747 C746 1.363 . S
C747 C750 1.363 . S
N748 C750 1.356 . S
N748 H760 0.984 . S
N748 H761 0.985 . S
N749 C751 1.356 . S
N749 H754 0.984 . S
N749 H755 0.985 . S
C750 C744 1.379 1_556 S
C750 C747 1.363 . S
C750 N748 1.356 . S
C751 C745 1.363 . S
C751 C746 1.379 1_554 S
C751 N749 1.356 . S
N752 C744 1.356 . S
N752 H758 0.984 . S
N752 H759 0.984 . S
N753 C746 1.356 . S
N753 H756 0.984 . S
N753 H757 0.985 . S
H754 N749 0.984 . S
H755 N749 0.985 . S
H756 N753 0.984 . S
H757 N753 0.985 . S
H758 N752 0.984 . S
H759 N752 0.984 . S
H760 N748 0.984 . S
H761 N748 0.985 . S
C762 C763 1.363 . S
C762 C768 1.379 1_556 S
C762 N770 1.356 . S
C763 C762 1.363 . S
C763 C769 1.363 . S
C764 C765 1.363 . S
C764 C769 1.379 1_554 S
C764 N771 1.356 . S
C765 C764 1.363 . S
C765 C768 1.363 . S
N766 C768 1.356 . S
N766 H778 0.984 . S
N766 H779 0.985 . S
N767 C769 1.356 . S
N767 H772 0.984 . S
N767 H773 0.985 . S
C768 C762 1.379 1_554 S
C768 C765 1.363 . S
C768 N766 1.356 . S
C769 C763 1.363 . S
C769 C764 1.379 1_556 S
C769 N767 1.356 . S
N770 C762 1.356 . S
N770 H776 0.984 . S
N770 H777 0.984 . S
N771 C764 1.356 . S
N771 H774 0.984 . S
N771 H775 0.985 . S
H772 N767 0.984 . S
H773 N767 0.985 . S
H774 N771 0.984 . S
H775 N771 0.985 . S
H776 N770 0.984 . S
H777 N770 0.984 . S
H778 N766 0.984 . S
H779 N766 0.985 . S
C780 C781 1.363 . S
C780 C786 1.379 1_556 S
C780 N788 1.356 . S
C781 C780 1.363 . S
C781 C787 1.363 . S
C782 C783 1.363 . S
C782 C787 1.379 1_554 S
C782 N789 1.356 . S
C783 C782 1.363 . S
C783 C786 1.363 . S
N784 C786 1.356 . S
N784 H796 0.984 . S
N784 H797 0.985 . S
N785 C787 1.356 . S
N785 H790 0.984 . S
N785 H791 0.985 . S
C786 C780 1.379 1_554 S
C786 C783 1.363 . S
C786 N784 1.356 . S
C787 C781 1.363 . S
C787 C782 1.379 1_556 S
C787 N785 1.356 . S
N788 C780 1.356 . S
N788 H794 0.984 . S
N788 H795 0.984 . S
N789 C782 1.356 . S
N789 H792 0.984 . S
N789 H793 0.985 . S
H790 N785 0.984 . S
H791 N785 0.985 . S
H792 N789 0.984 . S
H793 N789 0.985 . S
H794 N788 0.984 . S
H795 N788 0.984 . S
H796 N784 0.984 . S
H797 N784 0.985 . S
C798 C799 1.363 . S
C798 C804 1.379 1_554 S
C798 N806 1.356 . S
C799 C798 1.363 . S
C799 C805 1.363 . S
C800 C801 1.363 . S
C800 C805 1.379 1_556 S
C800 N807 1.356 . S
C801 C800 1.363 . S
C801 C804 1.363 . S
N802 C804 1.356 . S
N802 H814 0.984 . S
N802 H815 0.985 . S
N803 C805 1.356 . S
N803 H808 0.984 . S
N803 H809 0.985 . S
C804 C798 1.379 1_556 S
C804 C801 1.363 . S
C804 N802 1.356 . S
C805 C799 1.363 . S
C805 C800 1.379 1_554 S
C805 N803 1.356 . S
N806 C798 1.356 . S
N806 H812 0.984 . S
N806 H813 0.984 . S
N807 C800 1.356 . S
N807 H810 0.984 . S
N807 H811 0.985 . S
H808 N803 0.984 . S
H809 N803 0.985 . S
H810 N807 0.984 . S
H811 N807 0.985 . S
H812 N806 0.984 . S
H813 N806 0.984 . S
H814 N802 0.984 . S
H815 N802 0.985 . S
C816 C817 1.363 . S
C816 C822 1.379 1_554 S
C816 N824 1.356 . S
C817 C816 1.363 . S
C817 C823 1.363 . S
C818 C819 1.363 . S
C818 C823 1.379 1_556 S
C818 N825 1.356 . S
C819 C818 1.363 . S
C819 C822 1.363 . S
N820 C822 1.356 . S
N820 H832 0.984 . S
N820 H833 0.985 . S
N821 C823 1.356 . S
N821 H826 0.984 . S
N821 H827 0.985 . S
C822 C816 1.379 1_556 S
C822 C819 1.363 . S
C822 N820 1.356 . S
C823 C817 1.363 . S
C823 C818 1.379 1_554 S
C823 N821 1.356 . S
N824 C816 1.356 . S
N824 H830 0.984 . S
N824 H831 0.984 . S
N825 C818 1.356 . S
N825 H828 0.984 . S
N825 H829 0.985 . S
H826 N821 0.984 . S
H827 N821 0.985 . S
H828 N825 0.984 . S
H829 N825 0.985 . S
H830 N824 0.984 . S
H831 N824 0.984 . S
H832 N820 0.984 . S
H833 N820 0.985 . S
C834 C835 1.363 . S
C834 C840 1.379 1_556 S
C834 N842 1.356 . S
C835 C834 1.363 . S
C835 C841 1.363 . S
C836 C837 1.363 . S
C836 C841 1.379 1_554 S
C836 N843 1.356 . S
C837 C836 1.363 . S
C837 C840 1.363 . S
N838 C840 1.356 . S
N838 H850 0.984 . S
N838 H851 0.985 . S
N839 C841 1.356 . S
N839 H844 0.984 . S
N839 H845 0.985 . S
C840 C834 1.379 1_554 S
C840 C837 1.363 . S
C840 N838 1.356 . S
C841 C835 1.363 . S
C841 C836 1.379 1_556 S
C841 N839 1.356 . S
N842 C834 1.356 . S
N842 H848 0.984 . S
N842 H849 0.984 . S
N843 C836 1.356 . S
N843 H846 0.984 . S
N843 H847 0.985 . S
H844 N839 0.984 . S
H845 N839 0.985 . S
H846 N843 0.984 . S
H847 N843 0.985 . S
H848 N842 0.984 . S
H849 N842 0.984 . S
H850 N838 0.984 . S
H851 N838 0.985 . S
C852 C853 1.363 . S
C852 C858 1.379 . S
C852 N860 1.356 . S
C853 C852 1.363 . S
C853 C859 1.363 . S
C854 C855 1.363 . S
C854 C859 1.379 . S
C854 N861 1.356 . S
C855 C854 1.363 . S
C855 C858 1.363 . S
N856 C858 1.356 . S
N856 H868 0.984 . S
N856 H869 0.985 . S
N857 C859 1.356 . S
N857 H862 0.984 . S
N857 H863 0.985 . S
C858 C852 1.379 . S
C858 C855 1.363 . S
C858 N856 1.356 . S
C859 C853 1.363 . S
C859 C854 1.379 . S
C859 N857 1.356 . S
N860 C852 1.356 . S
N860 H866 0.984 . S
N860 H867 0.984 . S
N861 C854 1.356 . S
N861 H864 0.984 . S
N861 H865 0.985 . S
H862 N857 0.984 . S
H863 N857 0.985 . S
H864 N861 0.984 . S
H865 N861 0.985 . S
H866 N860 0.984 . S
H867 N860 0.984 . S
H868 N856 0.984 . S
H869 N856 0.985 . S
C870 C871 1.363 . S
C870 C876 1.379 . S
C870 N878 1.356 . S
C871 C870 1.363 . S
C871 C877 1.363 . S
C872 C873 1.363 . S
C872 C877 1.379 . S
C872 N879 1.356 . S
C873 C872 1.363 . S
C873 C876 1.363 . S
N874 C876 1.356 . S
N874 H886 0.984 . S
N874 H887 0.985 . S
N875 C877 1.356 . S
N875 H880 0.984 . S
N875 H881 0.985 . S
C876 C870 1.379 . S
C876 C873 1.363 . S
C876 N874 1.356 . S
C877 C871 1.363 . S
C877 C872 1.379 . S
C877 N875 1.356 . S
N878 C870 1.356 . S
N878 H884 0.984 . S
N878 H885 0.984 . S
N879 C872 1.356 . S
N879 H882 0.984 . S
N879 H883 0.985 . S
H880 N875 0.984 . S
H881 N875 0.985 . S
H882 N879 0.984 . S
H883 N879 0.985 . S
H884 N878 0.984 . S
H885 N878 0.984 . S
H886 N874 0.984 . S
H887 N874 0.985 . S
C888 C889 1.363 . S
C888 C894 1.379 . S
C888 N896 1.356 . S
C889 C888 1.363 . S
C889 C895 1.363 . S
C890 C891 1.363 . S
C890 C895 1.379 . S
C890 N897 1.356 . S
C891 C890 1.363 . S
C891 C894 1.363 . S
N892 C894 1.356 . S
N892 H904 0.984 . S
N892 H905 0.985 . S
N893 C895 1.356 . S
N893 H898 0.984 . S
N893 H899 0.985 . S
C894 C888 1.379 . S
C894 C891 1.363 . S
C894 N892 1.356 . S
C895 C889 1.363 . S
C895 C890 1.379 . S
C895 N893 1.356 . S
N896 C888 1.356 . S
N896 H902 0.984 . S
N896 H903 0.984 . S
N897 C890 1.356 . S
N897 H900 0.984 . S
N897 H901 0.985 . S
H898 N893 0.984 . S
H899 N893 0.985 . S
H900 N897 0.984 . S
H901 N897 0.985 . S
H902 N896 0.984 . S
H903 N896 0.984 . S
H904 N892 0.984 . S
H905 N892 0.985 . S
C906 C907 1.363 . S
C906 C912 1.379 . S
C906 N914 1.356 . S
C907 C906 1.363 . S
C907 C913 1.363 . S
C908 C909 1.363 . S
C908 C913 1.379 . S
C908 N915 1.356 . S
C909 C908 1.363 . S
C909 C912 1.363 . S
N910 C912 1.356 . S
N910 H922 0.984 . S
N910 H923 0.985 . S
N911 C913 1.356 . S
N911 H916 0.984 . S
N911 H917 0.985 . S
C912 C906 1.379 . S
C912 C909 1.363 . S
C912 N910 1.356 . S
C913 C907 1.363 . S
C913 C908 1.379 . S
C913 N911 1.356 . S
N914 C906 1.356 . S
N914 H920 0.984 . S
N914 H921 0.984 . S
N915 C908 1.356 . S
N915 H918 0.984 . S
N915 H919 0.985 . S
H916 N911 0.984 . S
H917 N911 0.985 . S
H918 N915 0.984 . S
H919 N915 0.985 . S
H920 N914 0.984 . S
H921 N914 0.984 . S
H922 N910 0.984 . S
H923 N910 0.985 . S
C924 C925 1.363 . S
C924 C930 1.379 . S
C924 N932 1.356 . S
C925 C924 1.363 . S
C925 C931 1.363 . S
C926 C927 1.363 . S
C926 C931 1.379 . S
C926 N933 1.356 . S
C927 C926 1.363 . S
C927 C930 1.363 . S
N928 C930 1.356 . S
N928 H940 0.984 . S
N928 H941 0.985 . S
N929 C931 1.356 . S
N929 H934 0.984 . S
N929 H935 0.985 . S
C930 C924 1.379 . S
C930 C927 1.363 . S
C930 N928 1.356 . S
C931 C925 1.363 . S
C931 C926 1.379 . S
C931 N929 1.356 . S
N932 C924 1.356 . S
N932 H938 0.984 . S
N932 H939 0.984 . S
N933 C926 1.356 . S
N933 H936 0.984 . S
N933 H937 0.985 . S
H934 N929 0.984 . S
H935 N929 0.985 . S
H936 N933 0.984 . S
H937 N933 0.985 . S
H938 N932 0.984 . S
H939 N932 0.984 . S
H940 N928 0.984 . S
H941 N928 0.985 . S
C942 C943 1.363 . S
C942 C948 1.379 . S
C942 N950 1.356 . S
C943 C942 1.363 . S
C943 C949 1.363 . S
C944 C945 1.363 . S
C944 C949 1.379 . S
C944 N951 1.356 . S
C945 C944 1.363 . S
C945 C948 1.363 . S
N946 C948 1.356 . S
N946 H958 0.984 . S
N946 H959 0.985 . S
N947 C949 1.356 . S
N947 H952 0.984 . S
N947 H953 0.985 . S
C948 C942 1.379 . S
C948 C945 1.363 . S
C948 N946 1.356 . S
C949 C943 1.363 . S
C949 C944 1.379 . S
C949 N947 1.356 . S
N950 C942 1.356 . S
N950 H956 0.984 . S
N950 H957 0.984 . S
N951 C944 1.356 . S
N951 H954 0.984 . S
N951 H955 0.985 . S
H952 N947 0.984 . S
H953 N947 0.985 . S
H954 N951 0.984 . S
H955 N951 0.985 . S
H956 N950 0.984 . S
H957 N950 0.984 . S
H958 N946 0.984 . S
H959 N946 0.985 . S
C960 C961 1.363 . S
C960 C966 1.379 . S
C960 N968 1.356 . S
C961 C960 1.363 . S
C961 C967 1.363 . S
C962 C963 1.363 . S
C962 C967 1.379 . S
C962 N969 1.356 . S
C963 C962 1.363 . S
C963 C966 1.363 . S
N964 C966 1.356 . S
N964 H976 0.984 . S
N964 H977 0.985 . S
N965 C967 1.356 . S
N965 H970 0.984 . S
N965 H971 0.985 . S
C966 C960 1.379 . S
C966 C963 1.363 . S
C966 N964 1.356 . S
C967 C961 1.363 . S
C967 C962 1.379 . S
C967 N965 1.356 . S
N968 C960 1.356 . S
N968 H974 0.984 . S
N968 H975 0.984 . S
N969 C962 1.356 . S
N969 H972 0.984 . S
N969 H973 0.985 . S
H970 N965 0.984 . S
H971 N965 0.985 . S
H972 N969 0.984 . S
H973 N969 0.985 . S
H974 N968 0.984 . S
H975 N968 0.984 . S
H976 N964 0.984 . S
H977 N964 0.985 . S
C978 C979 1.363 . S
C978 C984 1.379 . S
C978 N986 1.356 . S
C979 C978 1.363 . S
C979 C985 1.363 . S
C980 C981 1.363 . S
C980 C985 1.379 . S
C980 N987 1.356 . S
C981 C980 1.363 . S
C981 C984 1.363 . S
N982 C984 1.356 . S
N982 H994 0.984 . S
N982 H995 0.985 . S
N983 C985 1.356 . S
N983 H988 0.984 . S
N983 H989 0.985 . S
C984 C978 1.379 . S
C984 C981 1.363 . S
C984 N982 1.356 . S
C985 C979 1.363 . S
C985 C980 1.379 . S
C985 N983 1.356 . S
N986 C978 1.356 . S
N986 H992 0.984 . S
N986 H993 0.984 . S
N987 C980 1.356 . S
N987 H990 0.984 . S
N987 H991 0.985 . S
H988 N983 0.984 . S
H989 N983 0.985 . S
H990 N987 0.984 . S
H991 N987 0.985 . S
H992 N986 0.984 . S
H993 N986 0.984 . S
H994 N982 0.984 . S
H995 N982 0.985 . S
C996 C997 1.363 . S
C996 C1002 1.379 . S
C996 N1004 1.356 . S
C997 C996 1.363 . S
C997 C1003 1.363 . S
C998 C999 1.363 . S
C998 C1003 1.379 . S
C998 N1005 1.356 . S
C999 C998 1.363 . S
C999 C1002 1.363 . S
N1000 C1002 1.356 . S
N1000 H1012 0.984 . S
N1000 H1013 0.985 . S
N1001 C1003 1.356 . S
N1001 H1006 0.984 . S
N1001 H1007 0.985 . S
C1002 C996 1.379 . S
C1002 C999 1.363 . S
C1002 N1000 1.356 . S
C1003 C997 1.363 . S
C1003 C998 1.379 . S
C1003 N1001 1.356 . S
N1004 C996 1.356 . S
N1004 H1010 0.984 . S
N1004 H1011 0.984 . S
N1005 C998 1.356 . S
N1005 H1008 0.984 . S
N1005 H1009 0.985 . S
H1006 N1001 0.984 . S
H1007 N1001 0.985 . S
H1008 N1005 0.984 . S
H1009 N1005 0.985 . S
H1010 N1004 0.984 . S
H1011 N1004 0.984 . S
H1012 N1000 0.984 . S
H1013 N1000 0.985 . S
C1014 C1015 1.363 . S
C1014 C1020 1.379 . S
C1014 N1022 1.356 . S
C1015 C1014 1.363 . S
C1015 C1021 1.363 . S
C1016 C1017 1.363 . S
C1016 C1021 1.379 . S
C1016 N1023 1.356 . S
C1017 C1016 1.363 . S
C1017 C1020 1.363 . S
N1018 C1020 1.356 . S
N1018 H1030 0.984 . S
N1018 H1031 0.985 . S
N1019 C1021 1.356 . S
N1019 H1024 0.984 . S
N1019 H1025 0.985 . S
C1020 C1014 1.379 . S
C1020 C1017 1.363 . S
C1020 N1018 1.356 . S
C1021 C1015 1.363 . S
C1021 C1016 1.379 . S
C1021 N1019 1.356 . S
N1022 C1014 1.356 . S
N1022 H1028 0.984 . S
N1022 H1029 0.984 . S
N1023 C1016 1.356 . S
N1023 H1026 0.984 . S
N1023 H1027 0.985 . S
H1024 N1019 0.984 . S
H1025 N1019 0.985 . S
H1026 N1023 0.984 . S
H1027 N1023 0.985 . S
H1028 N1022 0.984 . S
H1029 N1022 0.984 . S
H1030 N1018 0.984 . S
H1031 N1018 0.985 . S
C1032 C1033 1.363 . S
C1032 C1038 1.379 . S
C1032 N1040 1.356 . S
C1033 C1032 1.363 . S
C1033 C1039 1.363 . S
C1034 C1035 1.363 . S
C1034 C1039 1.379 . S
C1034 N1041 1.356 . S
C1035 C1034 1.363 . S
C1035 C1038 1.363 . S
N1036 C1038 1.356 . S
N1036 H1048 0.984 . S
N1036 H1049 0.985 . S
N1037 C1039 1.356 . S
N1037 H1042 0.984 . S
N1037 H1043 0.985 . S
C1038 C1032 1.379 . S
C1038 C1035 1.363 . S
C1038 N1036 1.356 . S
C1039 C1033 1.363 . S
C1039 C1034 1.379 . S
C1039 N1037 1.356 . S
N1040 C1032 1.356 . S
N1040 H1046 0.984 . S
N1040 H1047 0.984 . S
N1041 C1034 1.356 . S
N1041 H1044 0.984 . S
N1041 H1045 0.985 . S
H1042 N1037 0.984 . S
H1043 N1037 0.985 . S
H1044 N1041 0.984 . S
H1045 N1041 0.985 . S
H1046 N1040 0.984 . S
H1047 N1040 0.984 . S
H1048 N1036 0.984 . S
H1049 N1036 0.985 . S
C1050 C1051 1.363 . S
C1050 C1056 1.379 . S
C1050 N1058 1.356 . S
C1051 C1050 1.363 . S
C1051 C1057 1.363 . S
C1052 C1053 1.363 . S
C1052 C1057 1.379 . S
C1052 N1059 1.356 . S
C1053 C1052 1.363 . S
C1053 C1056 1.363 . S
N1054 C1056 1.356 . S
N1054 H1066 0.984 . S
N1054 H1067 0.985 . S
N1055 C1057 1.356 . S
N1055 H1060 0.984 . S
N1055 H1061 0.985 . S
C1056 C1050 1.379 . S
C1056 C1053 1.363 . S
C1056 N1054 1.356 . S
C1057 C1051 1.363 . S
C1057 C1052 1.379 . S
C1057 N1055 1.356 . S
N1058 C1050 1.356 . S
N1058 H1064 0.984 . S
N1058 H1065 0.984 . S
N1059 C1052 1.356 . S
N1059 H1062 0.984 . S
N1059 H1063 0.985 . S
H1060 N1055 0.984 . S
H1061 N1055 0.985 . S
H1062 N1059 0.984 . S
H1063 N1059 0.985 . S
H1064 N1058 0.984 . S
H1065 N1058 0.984 . S
H1066 N1054 0.984 . S
H1067 N1054 0.985 . S
C1068 C1069 1.363 . S
C1068 C1074 1.379 . S
C1068 N1076 1.356 . S
C1069 C1068 1.363 . S
C1069 C1075 1.363 . S
C1070 C1071 1.363 . S
C1070 C1075 1.379 . S
C1070 N1077 1.356 . S
C1071 C1070 1.363 . S
C1071 C1074 1.363 . S
N1072 C1074 1.356 . S
N1072 H1084 0.984 . S
N1072 H1085 0.985 . S
N1073 C1075 1.356 . S
N1073 H1078 0.984 . S
N1073 H1079 0.985 . S
C1074 C1068 1.379 . S
C1074 C1071 1.363 . S
C1074 N1072 1.356 . S
C1075 C1069 1.363 . S
C1075 C1070 1.379 . S
C1075 N1073 1.356 . S
N1076 C1068 1.356 . S
N1076 H1082 0.984 . S
N1076 H1083 0.984 . S
N1077 C1070 1.356 . S
N1077 H1080 0.984 . S
N1077 H1081 0.985 . S
H1078 N1073 0.984 . S
H1079 N1073 0.985 . S
H1080 N1077 0.984 . S
H1081 N1077 0.985 . S
H1082 N1076 0.984 . S
H1083 N1076 0.984 . S
H1084 N1072 0.984 . S
H1085 N1072 0.985 . S
C1086 C1087 1.363 . S
C1086 C1092 1.379 . S
C1086 N1094 1.356 . S
C1087 C1086 1.363 . S
C1087 C1093 1.363 . S
C1088 C1089 1.363 . S
C1088 C1093 1.379 . S
C1088 N1095 1.356 . S
C1089 C1088 1.363 . S
C1089 C1092 1.363 . S
N1090 C1092 1.356 . S
N1090 H1102 0.984 . S
N1090 H1103 0.985 . S
N1091 C1093 1.356 . S
N1091 H1096 0.984 . S
N1091 H1097 0.985 . S
C1092 C1086 1.379 . S
C1092 C1089 1.363 . S
C1092 N1090 1.356 . S
C1093 C1087 1.363 . S
C1093 C1088 1.379 . S
C1093 N1091 1.356 . S
N1094 C1086 1.356 . S
N1094 H1100 0.984 . S
N1094 H1101 0.984 . S
N1095 C1088 1.356 . S
N1095 H1098 0.984 . S
N1095 H1099 0.985 . S
H1096 N1091 0.984 . S
H1097 N1091 0.985 . S
H1098 N1095 0.984 . S
H1099 N1095 0.985 . S
H1100 N1094 0.984 . S
H1101 N1094 0.984 . S
H1102 N1090 0.984 . S
H1103 N1090 0.985 . S
C1104 C1105 1.363 . S
C1104 C1110 1.379 . S
C1104 N1112 1.356 . S
C1105 C1104 1.363 . S
C1105 C1111 1.363 . S
C1106 C1107 1.363 . S
C1106 C1111 1.379 . S
C1106 N1113 1.356 . S
C1107 C1106 1.363 . S
C1107 C1110 1.363 . S
N1108 C1110 1.356 . S
N1108 H1120 0.984 . S
N1108 H1121 0.985 . S
N1109 C1111 1.356 . S
N1109 H1114 0.984 . S
N1109 H1115 0.985 . S
C1110 C1104 1.379 . S
C1110 C1107 1.363 . S
C1110 N1108 1.356 . S
C1111 C1105 1.363 . S
C1111 C1106 1.379 . S
C1111 N1109 1.356 . S
N1112 C1104 1.356 . S
N1112 H1118 0.984 . S
N1112 H1119 0.984 . S
N1113 C1106 1.356 . S
N1113 H1116 0.984 . S
N1113 H1117 0.985 . S
H1114 N1109 0.984 . S
H1115 N1109 0.985 . S
H1116 N1113 0.984 . S
H1117 N1113 0.985 . S
H1118 N1112 0.984 . S
H1119 N1112 0.984 . S
H1120 N1108 0.984 . S
H1121 N1108 0.985 . S
C1122 C1123 1.363 . S
C1122 C1128 1.379 . S
C1122 N1130 1.356 . S
C1123 C1122 1.363 . S
C1123 C1129 1.363 . S
C1124 C1125 1.363 . S
C1124 C1129 1.379 . S
C1124 N1131 1.356 . S
C1125 C1124 1.363 . S
C1125 C1128 1.363 . S
N1126 C1128 1.356 . S
N1126 H1138 0.984 . S
N1126 H1139 0.985 . S
N1127 C1129 1.356 . S
N1127 H1132 0.984 . S
N1127 H1133 0.985 . S
C1128 C1122 1.379 . S
C1128 C1125 1.363 . S
C1128 N1126 1.356 . S
C1129 C1123 1.363 . S
C1129 C1124 1.379 . S
C1129 N1127 1.356 . S
N1130 C1122 1.356 . S
N1130 H1136 0.984 . S
N1130 H1137 0.984 . S
N1131 C1124 1.356 . S
N1131 H1134 0.984 . S
N1131 H1135 0.985 . S
H1132 N1127 0.984 . S
H1133 N1127 0.985 . S
H1134 N1131 0.984 . S
H1135 N1131 0.985 . S
H1136 N1130 0.984 . S
H1137 N1130 0.984 . S
H1138 N1126 0.984 . S
H1139 N1126 0.985 . S
C1140 C1141 1.363 . S
C1140 C1146 1.379 . S
C1140 N1148 1.356 . S
C1141 C1140 1.363 . S
C1141 C1147 1.363 . S
C1142 C1143 1.363 . S
C1142 C1147 1.379 . S
C1142 N1149 1.356 . S
C1143 C1142 1.363 . S
C1143 C1146 1.363 . S
N1144 C1146 1.356 . S
N1144 H1156 0.984 . S
N1144 H1157 0.985 . S
N1145 C1147 1.356 . S
N1145 H1150 0.984 . S
N1145 H1151 0.985 . S
C1146 C1140 1.379 . S
C1146 C1143 1.363 . S
C1146 N1144 1.356 . S
C1147 C1141 1.363 . S
C1147 C1142 1.379 . S
C1147 N1145 1.356 . S
N1148 C1140 1.356 . S
N1148 H1154 0.984 . S
N1148 H1155 0.984 . S
N1149 C1142 1.356 . S
N1149 H1152 0.984 . S
N1149 H1153 0.985 . S
H1150 N1145 0.984 . S
H1151 N1145 0.985 . S
H1152 N1149 0.984 . S
H1153 N1149 0.985 . S
H1154 N1148 0.984 . S
H1155 N1148 0.984 . S
H1156 N1144 0.984 . S
H1157 N1144 0.985 . S
C1158 C1159 1.363 . S
C1158 C1164 1.379 . S
C1158 N1166 1.356 . S
C1159 C1158 1.363 . S
C1159 C1165 1.363 . S
C1160 C1161 1.363 . S
C1160 C1165 1.379 . S
C1160 N1167 1.356 . S
C1161 C1160 1.363 . S
C1161 C1164 1.363 . S
N1162 C1164 1.356 . S
N1162 H1174 0.984 . S
N1162 H1175 0.985 . S
N1163 C1165 1.356 . S
N1163 H1168 0.984 . S
N1163 H1169 0.985 . S
C1164 C1158 1.379 . S
C1164 C1161 1.363 . S
C1164 N1162 1.356 . S
C1165 C1159 1.363 . S
C1165 C1160 1.379 . S
C1165 N1163 1.356 . S
N1166 C1158 1.356 . S
N1166 H1172 0.984 . S
N1166 H1173 0.984 . S
N1167 C1160 1.356 . S
N1167 H1170 0.984 . S
N1167 H1171 0.985 . S
H1168 N1163 0.984 . S
H1169 N1163 0.985 . S
H1170 N1167 0.984 . S
H1171 N1167 0.985 . S
H1172 N1166 0.984 . S
H1173 N1166 0.984 . S
H1174 N1162 0.984 . S
H1175 N1162 0.985 . S
C313 C5 1.312 . S
C315 C96 1.313 . S
C331 C109 1.312 . S
C333 C18 1.312 . S
C349 C31 1.312 . S
C351 C122 1.312 . S
C367 C44 1.312 . S
C369 C135 1.312 . S
C385 C148 1.312 . S
C387 C57 1.312 . S
C403 C70 1.313 . S
C405 C83 1.312 . S
C421 C161 1.312 . S
C423 C252 1.313 . S
C439 C174 1.312 . S
C441 C265 1.312 . S
C457 C278 1.312 . S
C459 C187 1.312 . S
C475 C200 1.312 . S
C477 C291 1.312 . S
C493 C213 1.312 . S
C495 C304 1.312 . S
C511 C239 1.312 . S
C513 C226 1.313 . S
C529 C0 1.303 . S
C531 C104 1.303 . S
C547 C117 1.303 . S
C549 C13 1.303 . S
C565 C130 1.303 . S
C567 C26 1.303 . S
C583 C39 1.303 . S
C585 C143 1.303 . S
C601 C52 1.303 . S
C603 C78 1.303 . S
C619 C65 1.303 . S
C621 C91 1.303 . S
C637 C260 1.303 . S
C639 C156 1.303 . S
C655 C169 1.303 . S
C657 C273 1.303 . S
C673 C286 1.303 . S
C675 C182 1.303 . S
C691 C299 1.303 . S
C693 C195 1.303 . S
C709 C234 1.303 . S
C711 C208 1.303 . S
C727 C221 1.303 . S
C729 C247 1.303 . S
C745 C8 1.484 . S
C747 C203 1.484 . S
C763 C216 1.484 . S
C765 C21 1.484 . S
C781 C229 1.484 . S
C783 C34 1.484 . S
C799 C47 1.484 . S
C801 C164 1.484 . S
C817 C60 1.484 . S
C819 C177 1.484 . S
C835 C190 1.484 . S
C837 C73 1.484 . S
C853 C281 1.484 . S
C855 C86 1.484 . S
C871 C294 1.484 . S
C873 C99 1.484 . S
C889 C307 1.484 . S
C891 C112 1.484 . S
C907 C242 1.484 . S
C909 C125 1.484 . S
C925 C138 1.484 . S
C927 C255 1.484 . S
C943 C151 1.484 . S
C945 C268 1.484 . S
C961 C10 1.521 . S
C963 C140 1.521 . S
C979 C153 1.521 . S
C981 C23 1.521 . S
C997 C88 1.521 . S
C999 C36 1.521 . S
C1015 C49 1.521 . S
C1017 C101 1.521 . S
C1033 C62 1.521 . S
C1035 C114 1.521 . S
C1051 C75 1.521 . S
C1053 C127 1.521 . S
C1069 C166 1.521 . S
C1071 C296 1.521 . S
C1087 C179 1.521 . S
C1089 C309 1.521 . S
C1105 C192 1.521 . S
C1107 C244 1.521 . S
C1123 C257 1.521 . S
C1125 C205 1.521 . S
C1141 C218 1.521 . S
C1143 C270 1.521 . S
C1159 C231 1.521 . S
C1161 C283 1.521 . S
