# Generated by pormake.
# Topology wjf, (4)-cn, num edge types: 1
# Building blocks:
#     Node 0, Type 0, BuildingBlock: AZAVOO_clean_sbu_0, # of connection points: 4
#     Node 1, Type 0, BuildingBlock: AZAVOO_clean_sbu_0, # of connection points: 4
#     Node 2, Type 0, BuildingBlock: AZAVOO_clean_sbu_0, # of connection points: 4
#     Node 3, Type 0, BuildingBlock: AZAVOO_clean_sbu_0, # of connection points: 4
#     Node 4, Type 0, BuildingBlock: AZAVOO_clean_sbu_0, # of connection points: 4
#     Node 5, Type 0, BuildingBlock: AZAVOO_clean_sbu_0, # of connection points: 4
#     Node 6, Type 0, BuildingBlock: AZAVOO_clean_sbu_0, # of connection points: 4
#     Node 7, Type 0, BuildingBlock: AZAVOO_clean_sbu_0, # of connection points: 4
#     Node 8, Type 0, BuildingBlock: AZAVOO_clean_sbu_0, # of connection points: 4
#     Node 9, Type 0, BuildingBlock: AZAVOO_clean_sbu_0, # of connection points: 4
#     Node 10, Type 0, BuildingBlock: AZAVOO_clean_sbu_0, # of connection points: 4
#     Node 11, Type 0, BuildingBlock: AZAVOO_clean_sbu_0, # of connection points: 4
#     Edge 12, Type (0, 0), BuildingBlock: ZUJKAS_clean_linker_0, # of connection points: 2
#     Edge 13, Type (0, 0), BuildingBlock: ZUJKAS_clean_linker_0, # of connection points: 2
#     Edge 14, Type (0, 0), BuildingBlock: ZUJKAS_clean_linker_0, # of connection points: 2
#     Edge 15, Type (0, 0), BuildingBlock: ZUJKAS_clean_linker_0, # of connection points: 2
#     Edge 16, Type (0, 0), BuildingBlock: ZUJKAS_clean_linker_0, # of connection points: 2
#     Edge 17, Type (0, 0), BuildingBlock: ZUJKAS_clean_linker_0, # of connection points: 2
#     Edge 18, Type (0, 0), BuildingBlock: ZUJKAS_clean_linker_0, # of connection points: 2
#     Edge 19, Type (0, 0), BuildingBlock: ZUJKAS_clean_linker_0, # of connection points: 2
#     Edge 20, Type (0, 0), BuildingBlock: ZUJKAS_clean_linker_0, # of connection points: 2
#     Edge 21, Type (0, 0), BuildingBlock: ZUJKAS_clean_linker_0, # of connection points: 2
#     Edge 22, Type (0, 0), BuildingBlock: ZUJKAS_clean_linker_0, # of connection points: 2
#     Edge 23, Type (0, 0), BuildingBlock: ZUJKAS_clean_linker_0, # of connection points: 2
#     Edge 24, Type (0, 0), BuildingBlock: ZUJKAS_clean_linker_0, # of connection points: 2
#     Edge 25, Type (0, 0), BuildingBlock: ZUJKAS_clean_linker_0, # of connection points: 2
#     Edge 26, Type (0, 0), BuildingBlock: ZUJKAS_clean_linker_0, # of connection points: 2
#     Edge 27, Type (0, 0), BuildingBlock: ZUJKAS_clean_linker_0, # of connection points: 2
#     Edge 28, Type (0, 0), BuildingBlock: ZUJKAS_clean_linker_0, # of connection points: 2
#     Edge 29, Type (0, 0), BuildingBlock: ZUJKAS_clean_linker_0, # of connection points: 2
#     Edge 30, Type (0, 0), BuildingBlock: ZUJKAS_clean_linker_0, # of connection points: 2
#     Edge 31, Type (0, 0), BuildingBlock: ZUJKAS_clean_linker_0, # of connection points: 2
#     Edge 32, Type (0, 0), BuildingBlock: ZUJKAS_clean_linker_0, # of connection points: 2
#     Edge 33, Type (0, 0), BuildingBlock: ZUJKAS_clean_linker_0, # of connection points: 2
#     Edge 34, Type (0, 0), BuildingBlock: ZUJKAS_clean_linker_0, # of connection points: 2
#     Edge 35, Type (0, 0), BuildingBlock: ZUJKAS_clean_linker_0, # of connection points: 2
# Relax obj value: 0.279
# Max RMSD: 0.294
# Mean RMSD: 0.281
data_MOF--net-wjf--node1-AZAVOO_clean_sbu_0--edge1-ZUJKAS_clean_linker_0
_symmetry_space_group_name_H-M    P1
_symmetry_Int_Tables_number       1
_symmetry_cell_setting            triclinic
loop_
_symmetry_equiv_pos_as_xyz
'x, y, z'
_cell_length_a     64.616067
_cell_length_b     66.132581
_cell_length_c     33.954181
_cell_angle_alpha  90.031669
_cell_angle_beta   89.971999
_cell_angle_gamma 119.35839
loop_
_atom_site_label
_atom_site_type_symbol
_atom_site_fract_x
_atom_site_fract_y
_atom_site_fract_z
_atom_type_partial_charge
Mg0 Mg 0.33419 0.38398 0.11866 0.0
O1 O 0.3363 0.36712 0.06115 0.0
O2 O 0.36482 0.35752 0.06645 0.0
Mg3 Mg 0.38115 0.36855 0.12761 0.0
C4 C 0.34845 0.35841 0.04684 0.0
C5 C 0.29536 0.39668 0.0954 0.0
O6 O 0.31279 0.41738 0.10455 0.0
O7 O 0.31632 0.34918 0.14999 0.0
O8 O 0.34609 0.34127 0.15604 0.0
O9 O 0.36117 0.41848 0.09569 0.0
O10 O 0.36998 0.39526 0.12985 0.0
C11 C 0.32452 0.33617 0.16175 0.0
C12 C 0.37717 0.41425 0.11032 0.0
O13 O 0.29853 0.37927 0.09878 0.0
Mg14 Mg 0.93995 0.34355 0.42487 0.0
O15 O 0.95709 0.34252 0.36665 0.0
O16 O 0.99607 0.36699 0.36959 0.0
Mg17 Mg 0.00393 0.38316 0.43095 0.0
C18 C 0.97768 0.35218 0.35102 0.0
C19 C 0.88672 0.31006 0.40185 0.0
O20 O 0.88469 0.32832 0.41101 0.0
O21 O 0.95422 0.3222 0.45501 0.0
O22 O 0.99305 0.34757 0.45894 0.0
O23 O 0.93576 0.37289 0.40227 0.0
O24 O 0.96722 0.3773 0.43521 0.0
C25 C 0.97526 0.32751 0.46545 0.0
C26 C 0.95682 0.38657 0.41594 0.0
O27 O 0.90673 0.31098 0.40549 0.0
Mg28 Mg 0.58904 0.92621 0.69589 0.0
O29 O 0.55733 0.93239 0.69853 0.0
O30 O 0.52968 0.90841 0.65647 0.0
Mg31 Mg 0.54377 0.88658 0.6267 0.0
C32 C 0.53712 0.92458 0.6821 0.0
C33 C 0.62224 0.96612 0.75363 0.0
O34 O 0.63569 0.9735 0.72206 0.0
O35 O 0.56958 0.89241 0.73037 0.0
O36 O 0.5443 0.86904 0.68465 0.0
O37 O 0.60426 0.95147 0.64606 0.0
O38 O 0.58053 0.91381 0.63852 0.0
C39 C 0.5536 0.87237 0.71892 0.0
C40 C 0.59252 0.93396 0.62279 0.0
O41 O 0.60261 0.94729 0.75203 0.0
Mg42 Mg 0.66631 0.61603 0.13744 0.0
O43 O 0.66475 0.63233 0.07903 0.0
O44 O 0.63513 0.64051 0.08125 0.0
Mg45 Mg 0.61771 0.62944 0.14166 0.0
C46 C 0.6523 0.64025 0.06315 0.0
C47 C 0.70588 0.60455 0.11344 0.0
O48 O 0.68814 0.58353 0.11952 0.0
O49 O 0.68252 0.65098 0.16859 0.0
O50 O 0.65172 0.65753 0.17144 0.0
O51 O 0.64059 0.5812 0.11368 0.0
O52 O 0.63005 0.60367 0.14622 0.0
C53 C 0.67334 0.66343 0.17885 0.0
C54 C 0.62386 0.58486 0.12664 0.0
O55 O 0.70276 0.62182 0.11951 0.0
Mg56 Mg 0.07374 0.67664 0.42183 0.0
O57 O 0.05553 0.67717 0.36415 0.0
O58 O 0.01702 0.65112 0.36856 0.0
Mg59 Mg 0.01031 0.63455 0.42934 0.0
C60 C 0.03471 0.66655 0.34939 0.0
C61 C 0.11551 0.71359 0.36996 0.0
O62 O 0.10552 0.69705 0.34353 0.0
O63 O 0.0582 0.69634 0.45418 0.0
O64 O 0.01987 0.6694 0.45868 0.0
O65 O 0.07938 0.64822 0.39799 0.0
O66 O 0.04766 0.64238 0.43168 0.0
C67 C 0.03699 0.6898 0.46544 0.0
C68 C 0.05863 0.63384 0.41203 0.0
O69 O 0.10664 0.71034 0.40435 0.0
Mg70 Mg 0.33545 0.01009 0.69858 0.0
O71 O 0.37512 0.02139 0.69853 0.0
O72 O 0.38891 0.03027 0.63702 0.0
Mg73 Mg 0.35885 0.02845 0.59932 0.0
C74 C 0.39183 0.02741 0.67338 0.0
C75 C 0.3182 0.99595 0.78406 0.0
O76 O 0.29883 0.98193 0.76457 0.0
O77 O 0.34402 0.04791 0.69671 0.0
O78 O 0.35893 0.05753 0.63602 0.0
O79 O 0.32991 0.97511 0.68334 0.0
O80 O 0.3335 0.00136 0.63925 0.0
C81 C 0.35347 0.06279 0.66913 0.0
C82 C 0.33334 0.98221 0.64718 0.0
O83 O 0.3364 0.01043 0.76509 0.0
Mg84 Mg 0.60003 0.66237 0.58566 0.0
O85 O 0.62129 0.66196 0.63852 0.0
O86 O 0.63703 0.63913 0.62733 0.0
Mg87 Mg 0.62572 0.62498 0.56481 0.0
C88 C 0.63364 0.65279 0.64956 0.0
C89 C 0.57801 0.68973 0.62359 0.0
O90 O 0.55898 0.67056 0.61276 0.0
O91 O 0.63399 0.68616 0.55231 0.0
O92 O 0.64744 0.66163 0.53837 0.0
O93 O 0.5682 0.6315 0.60907 0.0
O94 O 0.59397 0.62939 0.5688 0.0
C95 C 0.6491 0.68168 0.53597 0.0
C96 C 0.57521 0.61888 0.59038 0.0
O97 O 0.59835 0.69252 0.61461 0.0
Mg98 Mg 0.94809 0.61635 0.87647 0.0
O99 O 0.97271 0.63572 0.92783 0.0
O100 O 0.00912 0.64152 0.91531 0.0
Mg101 Mg 0.00801 0.6269 0.85384 0.0
C102 C 0.99431 0.6434 0.93779 0.0
C103 C 0.91379 0.61732 0.93844 0.0
O104 O 0.92418 0.60762 0.95799 0.0
O105 O 0.964 0.6495 0.84004 0.0
O106 O -0.00018 0.65399 0.8261 0.0
O107 O 0.9408 0.5828 0.90347 0.0
O108 O 0.96979 0.60236 0.86098 0.0
C109 C 0.98423 0.66051 0.82324 0.0
C110 C 0.95921 0.58501 0.88463 0.0
O111 O 0.91993 0.62354 0.90298 0.0
Mg112 Mg 0.35843 0.98547 0.28157 0.0
O113 O 0.3863 0.97371 0.28961 0.0
O114 O 0.3893 0.96909 0.35418 0.0
Mg115 Mg 0.36213 0.97562 0.38647 0.0
C116 C 0.39588 0.96912 0.31869 0.0
C117 C 0.33705 0.97109 0.19913 0.0
O118 O 0.31819 0.96536 0.22101 0.0
O119 O 0.3283 0.94845 0.29181 0.0
O120 O 0.33153 0.94415 0.35631 0.0
O121 O 0.38842 0.02157 0.29048 0.0
O122 O 0.365 -0.00112 0.33795 0.0
C123 C 0.32127 0.93636 0.32325 0.0
C124 C 0.38385 0.01757 0.32767 0.0
O125 O 0.35724 0.9795 0.21565 0.0
Mg126 Mg 0.39718 0.32933 0.56546 0.0
O127 O 0.37801 0.33081 0.62075 0.0
O128 O 0.36629 0.35717 0.61326 0.0
Mg129 Mg 0.37832 0.3727 0.55178 0.0
C130 C 0.36783 0.3418 0.63377 0.0
C131 C 0.39943 0.29308 0.6219 0.0
O132 O 0.40866 0.31116 0.64548 0.0
O133 O 0.36223 0.31005 0.5327 0.0
O134 O 0.35259 0.33775 0.52247 0.0
O135 O 0.43138 0.35693 0.58978 0.0
O136 O 0.40721 0.3638 0.55313 0.0
C137 C 0.34852 0.31689 0.51819 0.0
C138 C 0.42627 0.37179 0.57404 0.0
O139 O 0.39359 0.2953 0.58709 0.0
Mg140 Mg 0.05013 0.38692 0.87334 0.0
O141 O 0.02657 0.36781 0.92576 0.0
O142 O 0.98977 0.36138 0.91505 0.0
Mg143 Mg 0.98964 0.37551 0.85362 0.0
C144 C 0.00512 0.35996 0.93678 0.0
C145 C 0.08553 0.38626 0.93351 0.0
O146 O 0.07532 0.39576 0.95415 0.0
O147 O 0.03396 0.35354 0.83761 0.0
O148 O -0.00208 0.34873 0.82471 0.0
O149 O 0.05752 0.42051 0.90025 0.0
O150 O 0.02788 0.40046 0.85912 0.0
C151 C 0.01363 0.34239 0.82121 0.0
C152 C 0.0387 0.41797 0.88239 0.0
O153 O 0.07891 0.38018 0.89816 0.0
Mg154 Mg 0.68627 0.04266 0.22061 0.0
O155 O 0.6497 0.03408 0.24618 0.0
O156 O 0.65044 0.02836 0.31092 0.0
Mg157 Mg 0.68793 0.03672 0.32739 0.0
C158 C 0.63946 0.02855 0.2798 0.0
C159 C 0.69193 0.06156 0.13571 0.0
O160 O 0.71428 0.06945 0.14536 0.0
O161 O 0.70278 0.08004 0.24239 0.0
O162 O 0.7024 0.07439 0.30738 0.0
O163 O 0.67229 0.00466 0.21649 0.0
O164 O 0.692 0.02612 0.2679 0.0
C165 C 0.70692 0.08775 0.27766 0.0
C166 C 0.67901 0.00589 0.25274 0.0
O167 O 0.67602 0.05123 0.16169 0.0
H168 H 0.29502 0.33583 0.2187 0.0
H169 H 0.28341 0.31176 0.27755 0.0
H170 H 0.30918 0.26868 0.22578 0.0
H171 H 0.32274 0.29411 0.16792 0.0
H172 H 0.25977 0.26951 0.30767 0.0
H173 H 0.35669 0.29816 0.31049 0.0
H174 H 0.34403 0.3081 0.27328 0.0
H175 H 0.34018 0.27922 0.27088 0.0
C176 C 0.29756 0.32081 0.21931 0.0
C177 C 0.31033 0.31715 0.18934 0.0
C178 C 0.29085 0.30698 0.25301 0.0
C179 C 0.29636 0.28899 0.25683 0.0
C180 C 0.3057 0.28309 0.22419 0.0
H181 H 0.33939 0.27436 0.4903 0.0
H182 H 0.3176 0.25574 0.43027 0.0
C183 C 0.31325 0.29747 0.19102 0.0
C184 C 0.29657 0.28 0.29685 0.0
H185 H 0.33571 0.2841 0.36797 0.0
C186 C 0.27625 0.27216 0.32068 0.0
C187 C 0.31807 0.28335 0.314 0.0
C188 C 0.34102 0.2928 0.29105 0.0
C189 C 0.27737 0.26951 0.36157 0.0
C190 C 0.2993 0.27467 0.37887 0.0
C191 C 0.31888 0.2801 0.35457 0.0
C192 C 0.3042 0.27963 0.42144 0.0
C193 C 0.25544 0.2624 0.38612 0.0
C194 C 0.30276 0.29843 0.43769 0.0
C195 C 0.31534 0.30924 0.47186 0.0
C196 C 0.32972 0.30153 0.49022 0.0
C197 C 0.32876 0.28097 0.47663 0.0
C198 C 0.31618 0.27017 0.44238 0.0
H199 H 0.23917 0.25072 0.36924 0.0
H200 H 0.25587 0.2535 0.4136 0.0
H201 H 0.2543 0.27808 0.3942 0.0
H202 H 0.29399 0.3063 0.42183 0.0
H203 H 0.3154 0.32483 0.48181 0.0
H204 H 0.01503 0.32327 0.47337 0.0
H205 H 0.02464 0.30643 0.52974 0.0
H206 H 0.95383 0.28145 0.5753 0.0
H207 H 0.94383 0.29688 0.51807 0.0
H208 H 0.02767 0.32582 0.59397 0.0
H209 H 0.96577 0.23427 0.62355 0.0
H210 H 0.96804 0.24662 0.57522 0.0
H211 H 0.94825 0.24761 0.61186 0.0
C212 C 0.00122 0.31321 0.49455 0.0
C213 C 0.97881 0.31169 0.49173 0.0
C214 C 0.0067 0.30353 0.52675 0.0
C215 C 0.99007 0.29272 0.55716 0.0
C216 C 0.96691 0.28915 0.55212 0.0
H217 H 0.97319 0.31582 0.77904 0.0
H218 H 0.97053 0.29561 0.71789 0.0
C219 C 0.96124 0.29826 0.51939 0.0
C220 C -0.00176 0.29093 0.59733 0.0
H221 H 0.97796 0.26034 0.68293 0.0
C222 C 0.01738 0.31108 0.61304 0.0
C223 C 0.98503 0.27176 0.62248 0.0
C224 C 0.96581 0.24881 0.60709 0.0
C225 C 0.02178 0.3137 0.65359 0.0
C226 C 0.00681 0.29547 0.67925 0.0
C227 C 0.98928 0.27438 0.66328 0.0
C228 C 0.00597 0.3001 0.72174 0.0
C229 C 0.04081 0.33694 0.66876 0.0
C230 C 0.02613 0.30779 0.74576 0.0
C231 C 0.0279 0.31982 0.78066 0.0
C232 C 0.0094 0.32404 0.79207 0.0
C233 C 0.98801 0.31339 0.77071 0.0
C234 C 0.98635 0.30159 0.73579 0.0
H235 H 0.04907 0.34999 0.6449 0.0
H236 H 0.03329 0.34391 0.69091 0.0
H237 H 0.05504 0.33484 0.68318 0.0
H238 H 0.04127 0.30634 0.7358 0.0
H239 H 0.04447 0.32739 0.79682 0.0
H240 H 0.66535 0.00384 0.77093 0.0
H241 H 0.6779 0.0247 0.83375 0.0
H242 H 0.60843 0.97997 0.88233 0.0
H243 H 0.59591 0.95878 0.82024 0.0
H244 H 0.66015 0.04859 0.87846 0.0
H245 H 0.65251 0.97233 0.95915 0.0
H246 H 0.65196 0.97346 0.90609 0.0
H247 H 0.62567 0.96646 0.93419 0.0
C248 C 0.65275 -0.00154 0.79501 0.0
C249 C 0.62974 0.97946 0.7908 0.0
C250 C 0.65993 0.01044 0.83078 0.0
C251 C 0.64421 0.0036 0.86282 0.0
C252 C 0.62099 0.98519 0.85822 0.0
H253 H 0.64707 0.04117 0.10514 0.0
H254 H 0.63589 0.03081 0.03635 0.0
C255 C 0.61386 0.97313 0.82266 0.0
C256 C 0.65215 0.01518 0.90151 0.0
H257 H 0.65768 0.00437 -0.00196 0.0
C258 C 0.65978 0.039 0.9046 0.0
C259 C 0.65183 0.00262 0.93545 0.0
C260 C 0.64529 0.97736 0.9336 0.0
C261 C 0.66643 0.05043 0.94115 0.0
C262 C 0.66537 0.03766 0.97508 0.0
C263 C 0.65813 0.01398 0.97187 0.0
C264 C 0.67195 0.0483 0.01454 0.0
C265 C 0.6741 0.0759 0.9436 0.0
C266 C 0.69591 0.06218 0.02467 0.0
C267 C 0.70242 0.06805 0.06405 0.0
C268 C 0.68502 0.05998 0.0938 0.0
C269 C 0.66093 0.04756 0.08302 0.0
C270 C 0.65447 0.04163 0.04373 0.0
H271 H 0.67121 0.08271 0.91545 0.0
H272 H 0.66422 0.07903 0.96743 0.0
H273 H 0.69327 0.08578 0.95103 0.0
H274 H 0.70963 0.06727 0.00249 0.0
H275 H 0.72112 0.07772 0.07134 0.0
H276 H 0.70386 0.66651 0.23647 0.0
H277 H 0.71366 0.69082 0.29498 0.0
H278 H 0.68286 0.72924 0.24204 0.0
H279 H 0.67146 0.70374 0.18435 0.0
H280 H 0.73456 0.73455 0.3236 0.0
H281 H 0.63599 0.69613 0.32745 0.0
H282 H 0.65046 0.68781 0.29076 0.0
H283 H 0.65094 0.71521 0.28709 0.0
C284 C 0.69986 0.68061 0.23671 0.0
C285 C 0.68635 0.68288 0.20642 0.0
C286 C 0.70551 0.69458 0.27022 0.0
C287 C 0.69814 0.71127 0.27356 0.0
C288 C 0.6879 0.71588 0.24071 0.0
H289 H 0.65109 0.72122 0.50633 0.0
H290 H 0.67096 0.74082 0.44549 0.0
C291 C 0.68154 0.70142 0.20767 0.0
C292 C 0.69701 0.72006 0.31332 0.0
H293 H 0.6566 0.71246 0.38454 0.0
C294 C 0.71759 0.73025 0.33676 0.0
C295 C 0.67486 0.71458 0.33058 0.0
C296 C 0.65177 0.7027 0.30789 0.0
C297 C 0.71632 0.73337 0.37748 0.0
C298 C 0.69393 0.72605 0.39508 0.0
C299 C 0.67379 0.71811 0.37102 0.0
C300 C 0.68968 0.72148 0.43794 0.0
C301 C 0.7388 0.74341 0.40151 0.0
C302 C 0.69476 0.70514 0.45528 0.0
C303 C 0.6834 0.69387 0.48999 0.0
C304 C 0.66656 0.69857 0.50782 0.0
C305 C 0.66375 0.71698 0.49314 0.0
C306 C 0.67518 0.72829 0.45836 0.0
H307 H 0.75409 0.75654 0.3842 0.0
H308 H 0.73715 0.75158 0.42905 0.0
H309 H 0.74273 0.72936 0.40937 0.0
H310 H 0.70553 0.69925 0.43994 0.0
H311 H 0.68625 0.68002 0.50079 0.0
H312 H 0.02653 0.69167 0.79024 0.0
H313 H 0.03185 0.71366 0.73021 0.0
H314 H 0.95749 0.69365 0.73074 0.0
H315 H 0.9519 0.67123 0.79086 0.0
H316 H 0.96992 0.67673 0.66897 0.0
H317 H 0.03411 0.77 0.67927 0.0
H318 H 0.04515 0.75338 0.70435 0.0
H319 H 0.01851 0.7528 0.72181 0.0
C320 C 0.01143 0.69259 0.77847 0.0
C321 C 0.98867 0.6792 0.79479 0.0
C322 C 0.01459 0.70549 0.74429 0.0
C323 C 0.99508 0.70537 0.7259 0.0
C324 C 0.97282 0.6941 0.74455 0.0
H325 H -0.00207 0.6954 0.47101 0.0
H326 H 0.98555 0.70798 0.53009 0.0
C327 C 0.96965 0.6812 0.77889 0.0
C328 C 0.99687 0.71143 0.68353 0.0
H329 H 0.0342 0.75115 0.61676 0.0
C330 C 0.98341 0.69327 0.65734 0.0
C331 C 0.01454 0.73295 0.6685 0.0
C332 C 0.02871 0.75344 0.69506 0.0
C333 C 0.98885 0.69506 0.61714 0.0
C334 C 0.00775 0.71611 0.60231 0.0
C335 C 0.01977 0.73504 0.62801 0.0
C336 C 0.01779 0.71709 0.56252 0.0
C337 C 0.97582 0.67352 0.59203 0.0
C338 C 0.04109 0.72082 0.55945 0.0
C339 C 0.04855 0.7146 0.52516 0.0
C340 C 0.03262 0.70414 0.49385 0.0
C341 C 0.0104 0.70314 0.49506 0.0
C342 C 0.00325 0.71013 0.52891 0.0
H343 H 0.96486 0.65775 0.60992 0.0
H344 H 0.96374 0.67572 0.57148 0.0
H345 H 0.98851 0.67043 0.57449 0.0
H346 H 0.05276 0.72641 0.58482 0.0
H347 H 0.06579 0.71558 0.52498 0.0
H348 H 0.29647 0.95106 0.15527 0.0
H349 H 0.29298 0.95337 0.0839 0.0
H350 H 0.36926 0.99169 0.07363 0.0
H351 H 0.373 0.98946 0.14502 0.0
H352 H 0.34188 0.01265 0.0393 0.0
H353 H 0.31041 0.92162 0.99166 0.0
H354 H 0.29577 0.9257 0.03356 0.0
H355 H 0.32642 0.93324 0.03715 0.0
C356 C 0.31253 0.9597 0.1378 0.0
C357 C 0.33502 0.97018 0.15578 0.0
C358 C 0.31048 0.9609 0.09705 0.0
C359 C 0.33087 0.9726 0.0737 0.0
C360 C 0.35335 0.98252 0.09132 0.0
H361 H 0.35733 0.01771 0.83109 0.0
H362 H 0.35993 0.01228 0.9016 0.0
C363 C 0.35543 0.98118 0.13205 0.0
C364 C 0.32867 0.97606 0.03133 0.0
H365 H 0.31096 0.94767 0.94347 0.0
C366 C 0.33523 -0.00149 0.01823 0.0
C367 C 0.31971 0.95746 0.00428 0.0
C368 C 0.31278 0.93312 0.01712 0.0
C369 C 0.33284 0.00287 0.97858 0.0
C370 C 0.32424 0.98433 0.95128 0.0
C371 C 0.31756 0.96184 0.9645 0.0
C372 C 0.32247 0.988 0.90872 0.0
C373 C 0.33906 0.02716 0.96651 0.0
C374 C 0.30062 0.97576 0.88919 0.0
C375 C 0.2991 0.97863 0.84872 0.0
C376 C 0.31945 0.99377 0.82716 0.0
C377 C 0.34128 0.00609 0.84691 0.0
C378 C 0.34279 0.00309 0.88726 0.0
H379 H 0.3384 0.03741 0.99196 0.0
H380 H 0.3574 0.03619 0.95459 0.0
H381 H 0.32682 0.02694 0.94335 0.0
H382 H 0.28475 0.96394 0.90525 0.0
H383 H 0.28204 0.96885 0.83433 0.0
H384 H 0.11173 0.36894 0.89831 0.0
H385 H 0.14565 0.36695 0.92606 0.0
H386 H 0.13811 0.39655 0.03469 0.0
H387 H 0.10407 0.39831 0.00752 0.0
H388 H 0.18761 0.40402 0.95178 0.0
H389 H 0.14393 0.34108 0.073 0.0
H390 H 0.12746 0.34471 0.03327 0.0
H391 H 0.13778 0.36477 0.07385 0.0
C392 C 0.11712 0.37478 0.92827 0.0
C393 C 0.10521 0.38379 0.95071 0.0
C394 C 0.1365 0.37363 0.94405 0.0
C395 C 0.14418 0.38132 0.98259 0.0
C396 C 0.13216 0.39007 0.00519 0.0
H397 H 0.283 0.43029 0.08381 0.0
H398 H 0.24605 0.42562 0.05585 0.0
C399 C 0.1128 0.39121 0.98947 0.0
C400 C 0.1657 0.38163 -0.00167 0.0
H401 H 0.18633 0.36323 0.07514 0.0
C402 C 0.18731 0.39494 0.97857 0.0
C403 C 0.1652 0.36957 0.03303 0.0
C404 C 0.14231 0.35404 0.05434 0.0
C405 C 0.20858 0.39708 0.99321 0.0
C406 C 0.20824 0.38591 0.02891 0.0
C407 C 0.18654 0.37201 0.04804 0.0
C408 C 0.2303 0.38858 0.04691 0.0
C409 C 0.2312 0.41117 0.97024 0.0
C410 C 0.23335 0.36918 0.05222 0.0
C411 C 0.25439 0.37176 0.0684 0.0
C412 C 0.2727 0.39379 0.07974 0.0
C413 C 0.26933 0.41311 0.07516 0.0
C414 C 0.24828 0.4105 0.05899 0.0
H415 H 0.22753 0.4133 0.93899 0.0
H416 H 0.24125 0.4287 0.98354 0.0
H417 H 0.24261 0.40295 0.97106 0.0
H418 H 0.21959 0.3521 0.04329 0.0
H419 H 0.25639 0.35651 0.07164 0.0
H420 H 0.88681 0.27213 0.37065 0.0
H421 H 0.85307 0.23681 0.34557 0.0
H422 H 0.80628 0.26397 0.37375 0.0
H423 H 0.84017 0.29978 0.39818 0.0
H424 H 0.81473 0.20638 0.38693 0.0
H425 H 0.78659 0.24101 0.26131 0.0
H426 H 0.8149 0.25761 0.28555 0.0
H427 H 0.78836 0.25482 0.30772 0.0
C428 C 0.86938 0.2707 0.37136 0.0
C429 C 0.86616 0.28876 0.38647 0.0
C430 C 0.85012 0.2505 0.35691 0.0
C431 C 0.82722 0.24788 0.35731 0.0
C432 C 0.82388 0.26585 0.37234 0.0
H433 H 0.70476 0.11003 0.34351 0.0
H434 H 0.73137 0.15046 0.36142 0.0
C435 C 0.84323 0.28621 0.38659 0.0
C436 C 0.80683 0.22567 0.34419 0.0
H437 H 0.76169 0.20125 0.27714 0.0
C438 C 0.80312 0.20528 0.36295 0.0
C439 C 0.79186 0.22428 0.31267 0.0
C440 C 0.79568 0.24556 0.29034 0.0
C441 C 0.78498 0.18349 0.35096 0.0
C442 C 0.76966 0.18208 0.32002 0.0
C443 C 0.7733 0.20245 0.30117 0.0
C444 C 0.75046 0.15937 0.30612 0.0
C445 C 0.7829 0.16213 0.37083 0.0
C446 C 0.7513 0.15151 0.26805 0.0
C447 C 0.73581 0.12846 0.25744 0.0
C448 C 0.71948 0.11299 0.28498 0.0
C449 C 0.71745 0.12148 0.32192 0.0
C450 C 0.73266 0.14454 0.33224 0.0
H451 H 0.79946 0.16589 0.38666 0.0
H452 H 0.76828 0.15564 0.39272 0.0
H453 H 0.77882 0.14812 0.3491 0.0
H454 H 0.76484 0.16278 0.24739 0.0
H455 H 0.73773 0.12239 0.22876 0.0
H456 H 0.58246 0.86957 0.77531 0.0
H457 H 0.58642 0.83514 0.78635 0.0
H458 H 0.52183 0.79375 0.72142 0.0
H459 H 0.51748 0.82787 0.71073 0.0
H460 H 0.53398 0.76823 0.77998 0.0
H461 H 0.60688 0.82327 0.67572 0.0
H462 H 0.60734 0.83513 0.72355 0.0
H463 H 0.58419 0.8303 0.6893 0.0
C464 C 0.5684 0.85295 0.76516 0.0
C465 C 0.55013 0.85158 0.7408 0.0
C466 C 0.57077 0.83328 0.7714 0.0
C467 C 0.55487 0.81216 0.75347 0.0
C468 C 0.53447 0.80999 0.73505 0.0
H469 H 0.53797 0.69261 0.63754 0.0
H470 H 0.53417 0.72135 0.67729 0.0
C471 C 0.53206 0.82958 0.72886 0.0
C472 C 0.56203 0.79452 0.74497 0.0
H473 H 0.59715 0.78466 0.68169 0.0
C474 C 0.54812 0.77185 0.75917 0.0
C475 C 0.58044 0.79933 0.71761 0.0
C476 C 0.59555 0.82325 0.70036 0.0
C477 C 0.55165 0.75367 0.74568 0.0
C478 C 0.56907 0.75826 0.71648 0.0
C479 C 0.58379 0.78115 0.70401 0.0
C480 C 0.57102 0.73957 0.69552 0.0
C481 C 0.53642 0.7297 0.76242 0.0
C482 C 0.59318 0.74065 0.69136 0.0
C483 C 0.59553 0.72457 0.66777 0.0
C484 C 0.57573 0.70704 0.648 0.0
C485 C 0.55354 0.70584 0.65253 0.0
C486 C 0.55126 0.72208 0.67574 0.0
H487 H 0.53093 0.73058 0.7931 0.0
H488 H 0.52005 0.72041 0.74447 0.0
H489 H 0.54587 0.71949 0.76221 0.0
H490 H 0.60873 0.75416 0.70597 0.0
H491 H 0.61283 0.72584 0.6651 0.0
H492 H 0.74501 0.64545 0.09269 0.0
H493 H 0.78161 0.65066 0.06209 0.0
H494 H 0.75497 0.57682 0.06718 0.0
H495 H 0.71823 0.57138 0.09726 0.0
H496 H 0.81512 0.63882 0.08888 0.0
H497 H 0.7724 0.59222 0.95081 0.0
H498 H 0.7576 0.60155 0.98552 0.0
H499 H 0.75913 0.57551 0.99446 0.0
C500 C 0.74695 0.63031 0.08739 0.0
C501 C 0.72862 0.60797 0.09716 0.0
C502 C 0.76787 0.63334 0.06991 0.0
C503 C 0.77079 0.61409 0.06173 0.0
C504 C 0.75283 0.59185 0.07245 0.0
H505 H 0.89599 0.60448 0.0127 0.0
H506 H 0.86243 0.60619 0.0421 0.0
C507 C 0.73191 0.5888 0.08987 0.0
C508 C 0.79264 0.61721 0.04212 0.0
H509 H 0.81229 0.60065 0.9616 0.0
C510 C 0.81456 0.63063 0.06091 0.0
C511 C 0.79188 0.60686 0.00529 0.0
C512 C 0.76903 0.59342 0.9826 0.0
C513 C 0.8357 0.63329 0.04449 0.0
C514 C 0.83476 0.62192 0.00868 0.0
C515 C 0.81294 0.60918 0.98923 0.0
C516 C 0.85601 0.62225 0.99152 0.0
C517 C 0.85882 0.6483 0.06556 0.0
C518 C 0.86332 0.63037 0.95304 0.0
C519 C 0.88242 0.62923 0.93594 0.0
C520 C 0.89442 0.6198 0.957 0.0
C521 C 0.8872 0.61193 -0.0043 0.0
C522 C 0.86811 0.61304 0.01271 0.0
H523 H 0.85755 0.66109 0.08522 0.0
H524 H 0.8633 0.63716 0.08406 0.0
H525 H 0.87355 0.65781 0.04433 0.0
H526 H 0.8541 0.6374 0.93611 0.0
H527 H 0.88753 0.63542 0.90607 0.0
H528 H 0.1354 0.72891 0.2972 0.0
H529 H 0.17113 0.76561 0.28126 0.0
H530 H 0.17975 0.78484 0.40393 0.0
H531 H 0.14411 0.74841 0.4202 0.0
H532 H 0.17989 0.81391 0.30367 0.0
H533 H 0.24477 0.7899 0.36439 0.0
H534 H 0.21518 0.76855 0.34922 0.0
H535 H 0.21965 0.78348 0.39528 0.0
C536 C 0.14493 0.74093 0.3208 0.0
C537 C 0.13697 0.73572 0.36 0.0
C538 C 0.16527 0.76187 0.3116 0.0
C539 C 0.1781 0.77773 0.34149 0.0
C540 C 0.17016 0.77265 0.38055 0.0
H541 H 0.29889 0.90789 0.3855 0.0
H542 H 0.26445 0.86923 0.38446 0.0
C543 C 0.14976 0.75187 0.38974 0.0
C544 C 0.19972 0.79981 0.33224 0.0
H545 H 0.25931 0.8297 0.34963 0.0
C546 C 0.19735 0.81736 0.31314 0.0
C547 C 0.22235 0.80408 0.34467 0.0
C548 C 0.22582 0.78549 0.36428 0.0
C549 C 0.21699 0.83962 0.30799 0.0
C550 C 0.23956 0.84414 0.32162 0.0
C551 C 0.24199 0.82621 0.33927 0.0
C552 C 0.2605 0.86775 0.32109 0.0
C553 C 0.21317 0.85837 0.28992 0.0
C554 C 0.26986 0.87978 0.28568 0.0
C555 C 0.2896 0.90213 0.28614 0.0
C556 C 0.30043 0.91268 0.32202 0.0
C557 C 0.29109 0.90037 0.3573 0.0
C558 C 0.27137 0.8782 0.35679 0.0
H559 H 0.19405 0.85333 0.28866 0.0
H560 H 0.22277 0.87479 0.30684 0.0
H561 H 0.22019 0.86173 0.25939 0.0
H562 H 0.26202 0.87185 0.25772 0.0
H563 H 0.29643 0.91106 0.25843 0.0
H564 H 0.34095 0.08111 0.73178 0.0
H565 H 0.34895 0.12128 0.73935 0.0
H566 H 0.38542 0.13906 0.62769 0.0
H567 H 0.37777 0.09946 0.61989 0.0
H568 H 0.40947 0.17144 0.69119 0.0
H569 H 0.31496 0.14918 0.67115 0.0
H570 H 0.32177 0.13384 0.70818 0.0
H571 H 0.32544 0.12942 0.65711 0.0
C572 C 0.35074 0.09362 0.70893 0.0
C573 C 0.35854 0.08699 0.67508 0.0
C574 C 0.35525 0.1165 0.71329 0.0
C575 C 0.36765 0.13301 0.68394 0.0
C576 C 0.37585 0.12655 0.65068 0.0
H577 H 0.37976 0.25243 0.58085 0.0
H578 H 0.37204 0.21444 0.60393 0.0
C579 C 0.37132 0.10382 0.64622 0.0
C580 C 0.37162 0.15696 0.68635 0.0
H581 H 0.34363 0.1886 0.67076 0.0
C582 C 0.39509 0.17531 0.68762 0.0
C583 C 0.35275 0.16178 0.68139 0.0
C584 C 0.32727 0.14261 0.67917 0.0
C585 C 0.40031 0.19834 0.68196 0.0
C586 C 0.3815 0.20305 0.67522 0.0
C587 C 0.35796 0.18483 0.67603 0.0
C588 C 0.38599 0.22621 0.66246 0.0
C589 C 0.42591 0.2173 0.68074 0.0
C590 C 0.39635 0.24538 0.68786 0.0
C591 C 0.40087 0.26723 0.6747 0.0
C592 C 0.39505 0.27016 0.63597 0.0
C593 C 0.38454 0.25081 0.61079 0.0
C594 C 0.38002 0.22906 0.62396 0.0
H595 H 0.43842 0.21031 0.68151 0.0
H596 H 0.42938 0.22793 0.65369 0.0
H597 H 0.42965 0.22893 0.70648 0.0
H598 H 0.40085 0.24343 0.71781 0.0
H599 H 0.40885 0.28176 0.69488 0.0
H600 H 0.34739 0.36334 0.6745 0.0
H601 H 0.33838 0.36025 0.745 0.0
H602 H 0.36014 0.30851 0.75706 0.0
H603 H 0.36912 0.31129 0.68678 0.0
H604 H 0.30861 0.31609 0.79812 0.0
H605 H 0.40578 0.3687 0.82705 0.0
H606 H 0.39288 0.36917 0.78011 0.0
H607 H 0.39592 0.34455 0.79367 0.0
C608 C 0.34989 0.35102 0.69195 0.0
C609 C 0.35929 0.33781 0.67503 0.0
C610 C 0.34467 0.34924 0.73217 0.0
C611 C 0.34879 0.33429 0.756 0.0
C612 C 0.35695 0.3202 0.73898 0.0
H613 H 0.36571 0.33328 0.00883 0.0
H614 H 0.36273 0.32395 0.93874 0.0
C615 C 0.36212 0.32189 0.69882 0.0
C616 C 0.3468 0.33504 0.79916 0.0
H617 H 0.3805 0.35599 0.88194 0.0
C618 C 0.32425 0.32472 0.81662 0.0
C619 C 0.36731 0.34628 0.82289 0.0
C620 C 0.3919 0.35796 0.80519 0.0
C621 C 0.32169 0.32526 0.85765 0.0
C622 C 0.34225 0.33687 0.88141 0.0
C623 C 0.36477 0.347 0.86373 0.0
C624 C 0.3411 0.33963 0.9245 0.0
C625 C 0.29708 0.31312 0.87514 0.0
C626 C 0.32963 0.35125 0.93986 0.0
C627 C 0.33115 0.35646 0.97999 0.0
C628 C 0.34452 0.3505 0.00537 0.0
C629 C 0.35539 0.33824 0.99008 0.0
C630 C 0.35367 0.33285 0.95003 0.0
H631 H 0.28426 0.29926 0.85532 0.0
H632 H 0.29693 0.30532 0.90417 0.0
H633 H 0.29084 0.3259 0.87941 0.0
H634 H 0.32034 0.35716 0.9206 0.0
H635 H 0.32267 0.36603 0.99074 0.0
H636 H 0.94304 0.3207 0.30226 0.0
H637 H 0.94601 0.31577 0.23149 0.0
H638 H 0.02016 0.36738 0.23418 0.0
H639 H 0.01748 0.37255 0.30486 0.0
H640 H 0.99058 0.37538 0.17955 0.0
H641 H 0.9804 0.28708 0.16575 0.0
H642 H 0.9594 0.2899 0.19689 0.0
H643 H 0.99012 0.30376 0.21077 0.0
C644 C 0.9601 0.33077 0.28798 0.0
C645 C 0.98 0.34717 0.30924 0.0
C646 C 0.96176 0.32779 0.24757 0.0
C647 C 0.98333 0.3411 0.22782 0.0
C648 C 0.00339 0.35688 0.24909 0.0
H649 H 0.03191 0.35168 0.98993 0.0
H650 H 0.02409 0.34369 0.06021 0.0
C651 C 0.00181 0.35981 0.28947 0.0
C652 C 0.98445 0.34042 0.18444 0.0
H653 H 0.9813 0.30641 0.10641 0.0
C654 C 0.98853 0.3603 0.16352 0.0
C655 C 0.98175 0.32069 0.16385 0.0
C656 C 0.97783 0.29914 0.18531 0.0
C657 C 0.99004 0.36104 0.12238 0.0
C658 C 0.98722 0.3413 0.1017 0.0
C659 C 0.98319 0.32138 0.12253 0.0
C660 C 0.98975 0.34183 0.05849 0.0
C661 C 0.9951 0.38309 0.10127 0.0
C662 C 0.9726 0.34259 0.03423 0.0
C663 C 0.97697 0.34716 0.99402 0.0
C664 C -0.00135 0.35116 0.97756 0.0
C665 C 0.01512 0.34889 0.00167 0.0
C666 C 0.01067 0.34423 0.04181 0.0
H667 H 0.00034 0.39786 0.1219 0.0
H668 H 0.0095 0.38788 0.07929 0.0
H669 H 0.97894 0.38027 0.08522 0.0
H670 H 0.95631 0.34069 0.04675 0.0
H671 H 0.96387 0.34869 0.97632 0.0
H672 H 0.61591 0.97393 0.57972 0.0
H673 H 0.62163 0.9771 0.50828 0.0
H674 H 0.57729 0.90301 0.49685 0.0
H675 H 0.57178 0.89961 0.568 0.0
H676 H 0.62118 0.91951 0.46254 0.0
H677 H 0.57943 0.97107 0.41395 0.0
H678 H 0.59908 0.98398 0.455 0.0
H679 H 0.57275 0.95624 0.46085 0.0
C680 C 0.60699 0.95839 0.56192 0.0
C681 C 0.59341 0.93655 0.57954 0.0
C682 C 0.61013 0.96023 0.52109 0.0
C683 C 0.59964 0.94029 0.49731 0.0
C684 C 0.58537 0.9186 0.5147 0.0
H685 H 0.63306 0.97139 0.24813 0.0
H686 H 0.60941 0.94741 0.30343 0.0
C687 C 0.58222 0.91673 0.55542 0.0
C688 C 0.60588 0.94184 0.45514 0.0
H689 H 0.60927 0.97131 0.37098 0.0
C690 C 0.61813 0.93043 0.44222 0.0
C691 C 0.60152 0.95574 0.42855 0.0
C692 C 0.58725 0.96726 0.44015 0.0
C693 C 0.62772 0.934 0.40419 0.0
C694 C 0.62512 0.94949 0.37877 0.0
C695 C 0.61132 0.95949 0.39065 0.0
C696 C 0.63945 0.95847 0.34261 0.0
C697 C 0.64132 0.92189 0.39206 0.0
C698 C 0.66421 0.97182 0.34596 0.0
C699 C 0.67767 0.98555 0.31461 0.0
C700 C 0.66656 0.98607 0.27946 0.0
C701 C 0.64208 0.97101 0.27476 0.0
C702 C 0.62854 0.95745 0.30638 0.0
H703 H 0.635 0.9053 0.40829 0.0
H704 H 0.63969 0.91827 0.35993 0.0
H705 H 0.66039 0.93316 0.39916 0.0
H706 H 0.67292 0.97319 0.37388 0.0
H707 H 0.69649 0.99717 0.31896 0.0
H708 H 0.65579 0.63228 0.68856 0.0
H709 H 0.66536 0.63533 0.75891 0.0
H710 H 0.64135 0.68524 0.77348 0.0
H711 H 0.63175 0.68247 0.70352 0.0
H712 H 0.69377 0.6814 0.81407 0.0
H713 H 0.59743 0.62149 0.84066 0.0
H714 H 0.61153 0.62212 0.79437 0.0
H715 H 0.60557 0.64513 0.80672 0.0
C716 C 0.65296 0.64425 0.70654 0.0
C717 C 0.64269 0.65689 0.69049 0.0
C718 C 0.65851 0.646 0.74664 0.0
C719 C 0.65392 0.66042 0.7711 0.0
C720 C 0.64497 0.67402 0.75486 0.0
H721 H 0.63336 0.66263 0.02138 0.0
H722 H 0.6369 0.67058 0.95077 0.0
C723 C 0.63942 0.67231 0.7149 0.0
C724 C 0.65585 0.65937 0.81418 0.0
H725 H 0.62194 0.6364 0.89622 0.0
C726 C 0.67816 0.67157 0.83221 0.0
C727 C 0.63535 0.64656 0.83739 0.0
C728 C 0.61106 0.63293 0.81902 0.0
C729 C 0.68045 0.67154 0.87337 0.0
C730 C 0.6599 0.65864 0.89664 0.0
C731 C 0.63764 0.6464 0.87834 0.0
C732 C 0.66081 0.65701 0.94 0.0
C733 C 0.70469 0.68566 0.89159 0.0
C734 C 0.67342 0.64713 0.95746 0.0
C735 C 0.67155 0.64267 -0.00211 0.0
C736 C 0.65673 0.64771 0.02147 0.0
C737 C 0.64481 0.6584 0.00407 0.0
C738 C 0.64684 0.663 0.96373 0.0
H739 H 0.71712 0.6995 0.87135 0.0
H740 H 0.70366 0.69378 0.91961 0.0
H741 H 0.71221 0.67412 0.89809 0.0
H742 H 0.68388 0.6419 0.93959 0.0
H743 H 0.68091 0.63434 0.01029 0.0
H744 H 0.06803 0.69677 0.29725 0.0
H745 H 0.06324 0.69921 0.22622 0.0
H746 H 0.98917 0.64804 0.23575 0.0
H747 H 0.99366 0.64535 0.30654 0.0
H748 H 0.01781 0.63774 0.18177 0.0
H749 H 0.02662 0.72493 0.1579 0.0
H750 H 0.04819 0.72329 0.18933 0.0
H751 H 0.01777 0.71005 0.20469 0.0
C752 C 0.05062 0.68633 0.28441 0.0
C753 C 0.03129 0.67068 0.30762 0.0
C754 C 0.0479 0.68785 0.24384 0.0
C755 C 0.02584 0.67386 0.22593 0.0
C756 C 0.00632 0.65902 0.24917 0.0
H757 H 0.96876 0.65247 0.99241 0.0
H758 H 0.97891 0.663 0.06151 0.0
C759 C 0.00897 0.65752 0.28965 0.0
C760 C 0.02356 0.67267 0.1826 0.0
H761 H 0.02316 0.70269 0.10107 0.0
C762 C 0.01906 0.65195 0.16407 0.0
C763 C 0.02518 0.69127 0.15984 0.0
C764 C 0.02956 0.71365 0.17877 0.0
C765 C 0.01597 0.64925 0.12324 0.0
C766 C 0.01761 0.66783 0.10039 0.0
C767 C 0.02216 0.68861 0.11881 0.0
C768 C 0.01335 0.66522 0.05753 0.0
C769 C 0.01046 0.62636 0.10481 0.0
C770 C 0.02973 0.66368 0.03236 0.0
C771 C 0.02403 0.65766 0.99283 0.0
C772 C 0.00178 0.65298 0.97795 0.0
C773 C 0.98597 0.65579 0.00292 0.0
C774 C 0.99175 0.6619 0.04238 0.0
H775 H 0.00635 0.61268 0.12723 0.0
H776 H 0.99514 0.62034 0.08438 0.0
H777 H 0.02601 0.62864 0.08743 0.0
H778 H 0.04653 0.66627 0.04368 0.0
H779 H 0.03666 0.65575 0.97443 0.0
H780 H 0.38119 0.0397 0.39236 0.0
H781 H 0.39789 0.03723 0.45492 0.0
H782 H 0.44218 0.01495 0.39505 0.0
H783 H 0.4263 0.01883 0.33183 0.0
H784 H 0.40453 0.98006 0.43619 0.0
H785 H 0.45075 0.05475 0.53526 0.0
H786 H 0.42934 0.05821 0.50679 0.0
H787 H 0.45376 0.05753 0.4822 0.0
C788 C 0.39588 0.03616 0.3923 0.0
C789 C 0.40225 0.02914 0.35762 0.0
C790 C 0.40547 0.03466 0.42819 0.0
C791 C 0.42112 0.02561 0.4298 0.0
C792 C 0.43025 0.02208 0.39452 0.0
H793 H 0.37036 0.97468 0.6616 0.0
H794 H 0.39957 0.97834 0.61194 0.0
C795 C 0.42117 0.02435 0.35838 0.0
C796 C 0.42084 0.01313 0.46612 0.0
H797 H 0.41534 0.02011 0.56395 0.0
C798 C 0.40801 0.98875 0.46449 0.0
C799 C 0.42572 0.02424 0.50313 0.0
C800 C 0.4409 0.05016 0.5069 0.0
C801 C 0.39622 0.9757 0.49788 0.0
C802 C 0.39769 0.98736 0.53342 0.0
C803 C 0.41399 0.01116 0.53654 0.0
C804 C 0.37812 0.97748 0.5624 0.0
C805 C 0.38003 0.94994 0.49377 0.0
C806 C 0.35606 0.97484 0.55084 0.0
C807 C 0.33973 0.97344 0.57904 0.0
C808 C 0.345 0.97409 0.61917 0.0
C809 C 0.36575 0.97377 0.63072 0.0
C810 C 0.38251 0.97597 0.60244 0.0
H811 H 0.38673 0.94256 0.4709 0.0
H812 H 0.37822 0.94088 0.52216 0.0
H813 H 0.36216 0.94663 0.48449 0.0
H814 H 0.3525 0.97639 0.52012 0.0
H815 H 0.32402 0.97401 0.56955 0.0
H816 H 0.41468 0.41005 0.13768 0.0
H817 H 0.45678 0.43884 0.13444 0.0
H818 H 0.4399 0.48503 0.06995 0.0
H819 H 0.39768 0.45605 0.07221 0.0
H820 H 0.48025 0.48423 0.04116 0.0
H821 H 0.48456 0.49714 0.20311 0.0
H822 H 0.47397 0.46758 0.18848 0.0
H823 H 0.45683 0.48153 0.1769 0.0
C824 C 0.41989 0.42618 0.12233 0.0
C825 C 0.40279 0.4308 0.10538 0.0
C826 C 0.44397 0.44268 0.12076 0.0
C827 C 0.45139 0.46422 0.10263 0.0
C828 C 0.4345 0.46854 0.08427 0.0
H829 H 0.58503 0.58792 0.15019 0.0
H830 H 0.54329 0.55948 0.1405 0.0
C831 C 0.41039 0.45198 0.08566 0.0
C832 C 0.47662 0.48256 0.10428 0.0
H833 H 0.52108 0.51567 0.16854 0.0
C834 C 0.48921 0.49118 0.06895 0.0
C835 C 0.48811 0.49183 0.1406 0.0
C836 C 0.47515 0.48424 0.17943 0.0
C837 C 0.51317 0.5086 0.06903 0.0
C838 C 0.52486 0.51729 0.10542 0.0
C839 C 0.51214 0.50887 0.14067 0.0
C840 C 0.55023 0.53529 0.10797 0.0
C841 C 0.52561 0.51781 0.03018 0.0
C842 C 0.56805 0.5312 0.09273 0.0
C843 C 0.59201 0.54757 0.09792 0.0
C844 C 0.59856 0.56822 0.11882 0.0
C845 C 0.58066 0.57234 0.13367 0.0
C846 C 0.55675 0.55604 0.12828 0.0
H847 H 0.51275 0.51415 0.00586 0.0
H848 H 0.53783 0.53682 0.03167 0.0
H849 H 0.53623 0.50927 0.02291 0.0
H850 H 0.56345 0.51508 0.07776 0.0
H851 H 0.60537 0.54381 0.08633 0.0
H852 H 0.07743 0.61032 0.37288 0.0
H853 H 0.06059 0.5682 0.36772 0.0
H854 H -0.00137 0.55813 0.43191 0.0
H855 H 0.01555 0.59995 0.43826 0.0
H856 H 0.01759 0.53305 0.46211 0.0
H857 H 0.00688 0.52006 0.30031 0.0
H858 H 0.03632 0.54101 0.31563 0.0
H859 H 0.01213 0.54665 0.32386 0.0
C860 C 0.06009 0.59912 0.38547 0.0
C861 C 0.04779 0.60852 0.40581 0.0
C862 C 0.05043 0.57506 0.38226 0.0
C863 C 0.02821 0.56004 0.39898 0.0
C864 C 0.01574 0.56941 0.41861 0.0
H865 H 0.93932 0.41114 0.37688 0.0
H866 H 0.95757 0.45336 0.37117 0.0
C867 C 0.02543 0.59338 0.42205 0.0
C868 C 0.01859 0.53457 0.39874 0.0
H869 H 0.00051 0.48742 0.33869 0.0
C870 C 0.01382 0.52307 0.43511 0.0
C871 C 0.0135 0.52159 0.36347 0.0
C872 C 0.01725 0.53288 0.32357 0.0
C873 C 0.00414 0.49895 0.43727 0.0
C874 C -0.00037 0.48602 0.40206 0.0
C875 C 0.00424 0.49745 0.36562 0.0
C876 C 0.98954 0.46051 0.40271 0.0
C877 C -0.00169 0.4875 0.47726 0.0
C878 C 0.00174 0.45058 0.42146 0.0
C879 C 0.9913 0.42652 0.42508 0.0
C880 C 0.96858 0.41193 0.40952 0.0
C881 C 0.95681 0.42191 0.3893 0.0
C882 C 0.96723 0.44601 0.38591 0.0
H883 H 0.99702 0.49887 0.50011 0.0
H884 H 0.9813 0.47087 0.47655 0.0
H885 H 0.01259 0.48373 0.48622 0.0
H886 H 0.01918 0.46147 0.43399 0.0
H887 H 0.00088 0.41945 0.4408 0.0
H888 H 0.49717 0.9184 0.64398 0.0
H889 H 0.47605 0.94009 0.6535 0.0
H890 H 0.52297 0.97796 0.74932 0.0
H891 H 0.54469 0.95673 0.7394 0.0
H892 H 0.45226 0.9442 0.7158 0.0
H893 H 0.52927 0.03 0.6782 0.0
H894 H 0.52931 0.00309 0.66977 0.0
H895 H 0.53413 0.01524 0.71847 0.0
C896 C 0.50296 0.93122 0.66728 0.0
C897 C 0.52278 0.93596 0.69068 0.0
C898 C 0.49086 0.94363 0.67266 0.0
C899 C 0.49825 0.96096 0.70158 0.0
C900 C 0.51736 0.96508 0.72615 0.0
H901 H 0.40253 0.01675 0.74593 0.0
H902 H 0.43171 0.00433 0.75954 0.0
C903 C 0.52963 0.95279 0.72061 0.0
C904 C 0.48591 0.97475 0.70535 0.0
H905 H 0.49356 0.0294 0.69509 0.0
C906 C 0.4613 0.96286 0.71167 0.0
C907 C 0.49778 -0.00093 0.6995 0.0
C908 C 0.52404 0.01264 0.69076 0.0
C909 C 0.44808 0.97447 0.7112 0.0
C910 C 0.45994 -0.0012 0.70546 0.0
C911 C 0.48463 0.01081 0.70007 0.0
C912 C 0.44652 0.01146 0.70076 0.0
C913 C 0.42138 0.96038 0.71476 0.0
C914 C 0.44661 0.02139 0.66425 0.0
C915 C 0.43026 0.02892 0.65655 0.0
C916 C 0.41334 0.02632 0.68508 0.0
C917 C 0.41503 0.01865 0.72301 0.0
C918 C 0.43158 0.01138 0.73081 0.0
H919 H 0.4148 0.94153 0.71071 0.0
H920 H 0.41592 0.96294 0.7445 0.0
H921 H 0.4126 0.96603 0.69264 0.0
H922 H 0.45822 0.02189 0.64078 0.0
H923 H 0.42985 0.03525 0.62736 0.0
H924 H 0.58641 0.58756 0.55771 0.0
H925 H 0.56275 0.54526 0.55924 0.0
H926 H 0.50982 0.55003 0.62994 0.0
H927 H 0.53374 0.59229 0.62971 0.0
H928 H 0.51788 0.51551 0.6552 0.0
H929 H 0.50345 0.50958 0.49353 0.0
H930 H 0.53419 0.52371 0.50737 0.0
H931 H 0.51632 0.5368 0.51969 0.0
C932 C 0.56989 0.57963 0.57398 0.0
C933 C 0.56191 0.5933 0.59345 0.0
C934 C 0.55628 0.55545 0.57454 0.0
C935 C 0.5343 0.54454 0.594 0.0
C936 C 0.52669 0.55811 0.61457 0.0
H937 H 0.41903 0.40689 0.54774 0.0
H938 H 0.44511 0.44852 0.55563 0.0
C939 C 0.54037 0.58227 0.61435 0.0
C940 C 0.51883 0.51903 0.59209 0.0
H941 H 0.48922 0.47413 0.52799 0.0
C942 C 0.51159 0.50642 0.62742 0.0
C943 C 0.51036 0.50731 0.5558 0.0
C944 C 0.51626 0.52004 0.51695 0.0
C945 C 0.49615 0.48236 0.62745 0.0
C946 C 0.48822 0.47056 0.5911 0.0
C947 C 0.49545 0.48319 0.55581 0.0
C948 C 0.4719 0.4452 0.58876 0.0
C949 C 0.48798 0.46995 0.66641 0.0
C950 C 0.47824 0.42946 0.60486 0.0
C951 C 0.46315 0.40556 0.60088 0.0
C952 C 0.44161 0.39701 0.58022 0.0
C953 C 0.43533 0.41284 0.56415 0.0
C954 C 0.4503 0.43668 0.56847 0.0
H955 H 0.49018 0.48213 0.69067 0.0
H956 H 0.46904 0.45624 0.66511 0.0
H957 H 0.49879 0.46162 0.6737 0.0
H958 H 0.49508 0.43563 0.61979 0.0
H959 H 0.46861 0.39383 0.61329 0.0
H960 H 0.94721 0.55279 0.9432 0.0
H961 H 0.96157 0.52502 0.95216 0.0
H962 H 0.00507 0.55183 0.84818 0.0
H963 H 0.99145 0.58006 0.83988 0.0
H964 H 0.95634 0.49076 0.90636 0.0
H965 H 0.05239 0.55115 0.92298 0.0
H966 H 0.03069 0.56079 0.92507 0.0
H967 H 0.0414 0.55681 0.87828 0.0
C968 C 0.96005 0.55292 0.92253 0.0
C969 C 0.96833 0.56869 0.89098 0.0
C970 C 0.96824 0.53705 0.92768 0.0
C971 C 0.98476 0.53662 0.90129 0.0
C972 C 0.99291 0.55229 0.86965 0.0
H973 H 0.00554 0.42232 0.83931 0.0
H974 H 0.99181 0.45041 0.84843 0.0
C975 C 0.98497 0.56833 0.86477 0.0
C976 C 0.99242 0.51891 0.90531 0.0
H977 H 0.04135 0.51192 0.90472 0.0
C978 C 0.97494 0.4954 0.90656 0.0
C979 C 0.01666 0.52492 0.90643 0.0
C980 C 0.03633 0.54981 0.90857 0.0
C981 C 0.98104 0.47775 0.90709 0.0
C982 C 0.00527 0.48376 0.90504 0.0
C983 C 0.02275 0.50727 0.90564 0.0
C984 C 0.01289 0.46604 0.90069 0.0
C985 C 0.96141 0.45288 0.90996 0.0
C986 C 0.02985 0.46586 0.92632 0.0
C987 C 0.0381 0.45008 0.92068 0.0
C988 C 0.02944 0.43413 0.88938 0.0
C989 C 0.01232 0.4342 0.86398 0.0
C990 C 0.00432 0.45016 0.86934 0.0
H991 H 0.94556 0.45164 0.92502 0.0
H992 H 0.95591 0.44569 0.87986 0.0
H993 H 0.96728 0.44201 0.92618 0.0
H994 H 0.03683 0.47805 0.95057 0.0
H995 H 0.0513 0.45043 0.94074 0.0
H996 H 0.60959 0.02788 0.2216 0.0
H997 H 0.567 0.01454 0.22696 0.0
H998 H 0.56845 -0.00199 0.34938 0.0
H999 H 0.61088 0.01147 0.34461 0.0
H1000 H 0.52934 0.97012 0.25032 0.0
H1001 H 0.53837 0.04027 0.35085 0.0
H1002 H 0.56309 0.042 0.32331 0.0
H1003 H 0.55315 0.02485 0.36745 0.0
C1004 C 0.60089 0.02154 0.24975 0.0
C1005 C 0.61378 0.02102 0.28278 0.0
C1006 C 0.57654 0.01385 0.25268 0.0
C1007 C 0.56467 0.00559 0.28868 0.0
C1008 C 0.57737 0.00474 0.32151 0.0
H1009 H 0.4227 0.9619 0.37338 0.0
H1010 H 0.46267 0.96757 0.36459 0.0
C1011 C 0.60167 0.01244 0.31867 0.0
C1012 C 0.53899 -0.00215 0.29205 0.0
H1013 H 0.49946 0.00938 0.33983 0.0
C1014 C 0.52276 0.97872 0.26976 0.0
C1015 C 0.5305 0.00911 0.31748 0.0
C1016 C 0.54716 0.03032 0.34091 0.0
C1017 C 0.49817 0.97026 0.27281 0.0
C1018 C 0.4897 0.9815 0.29835 0.0
C1019 C 0.50598 0.00067 0.32051 0.0
C1020 C 0.46412 0.97426 0.30202 0.0
C1021 C 0.48146 0.94915 0.24929 0.0
C1022 C 0.45139 0.97551 0.26951 0.0
C1023 C 0.42842 0.97216 0.27435 0.0
C1024 C 0.41784 0.96772 0.31191 0.0
C1025 C 0.43021 0.96525 0.344 0.0
C1026 C 0.45314 0.96857 0.33909 0.0
H1027 H 0.49006 0.93891 0.24003 0.0
H1028 H 0.46524 0.93774 0.26647 0.0
H1029 H 0.47599 0.95476 0.22231 0.0
H1030 H 0.45966 0.9803 0.24076 0.0
H1031 H 0.41951 0.97432 0.24901 0.0
loop_
_geom_bond_atom_site_label_1
_geom_bond_atom_site_label_2
_geom_bond_distance
_geom_bond_site_symmetry_2
_ccdc_geom_bond_type
Mg0 O1 2.028 . S
Mg0 O7 1.986 . S
Mg0 O9 2.114 . S
Mg0 O10 2.251 . S
Mg0 O13 2.010 . S
O1 Mg0 2.028 . S
O1 C4 1.250 . S
O2 Mg3 2.028 . S
O2 C4 1.248 . S
Mg3 O2 2.028 . S
Mg3 O8 2.032 . S
Mg3 O10 2.079 . S
C4 O1 1.250 . S
C4 O2 1.248 . S
C5 O6 1.264 . S
C5 O13 1.249 . S
O6 C5 1.264 . S
O7 Mg0 1.986 . S
O7 C11 1.246 . S
O8 Mg3 2.032 . S
O8 C11 1.259 . S
O9 Mg0 2.114 . S
O9 C12 1.252 . S
O10 Mg0 2.251 . S
O10 Mg3 2.079 . S
O10 C12 1.273 . S
C11 O7 1.246 . S
C11 O8 1.259 . S
C12 O9 1.252 . S
C12 O10 1.273 . S
O13 Mg0 2.010 . S
O13 C5 1.249 . S
Mg14 O15 2.028 . S
Mg14 O21 1.986 . S
Mg14 O23 2.114 . S
Mg14 O24 2.251 . S
Mg14 O27 2.010 . S
O15 Mg14 2.028 . S
O15 C18 1.250 . S
O16 Mg17 2.028 . S
O16 C18 1.248 . S
Mg17 O16 2.028 . S
Mg17 O22 2.032 . S
Mg17 O24 2.079 . S
C18 O15 1.250 . S
C18 O16 1.248 . S
C19 O20 1.264 . S
C19 O27 1.249 . S
O20 C19 1.264 . S
O21 Mg14 1.986 . S
O21 C25 1.246 . S
O22 Mg17 2.032 . S
O22 C25 1.259 . S
O23 Mg14 2.114 . S
O23 C26 1.252 . S
O24 Mg14 2.251 . S
O24 Mg17 2.079 . S
O24 C26 1.273 . S
C25 O21 1.246 . S
C25 O22 1.259 . S
C26 O23 1.252 . S
C26 O24 1.273 . S
O27 Mg14 2.010 . S
O27 C19 1.249 . S
Mg28 O29 2.028 . S
Mg28 O35 1.986 . S
Mg28 O37 2.114 . S
Mg28 O38 2.251 . S
Mg28 O41 2.010 . S
O29 Mg28 2.028 . S
O29 C32 1.250 . S
O30 Mg31 2.028 . S
O30 C32 1.248 . S
Mg31 O30 2.028 . S
Mg31 O36 2.032 . S
Mg31 O38 2.079 . S
C32 O29 1.250 . S
C32 O30 1.248 . S
C33 O34 1.264 . S
C33 O41 1.249 . S
O34 C33 1.264 . S
O35 Mg28 1.986 . S
O35 C39 1.246 . S
O36 Mg31 2.032 . S
O36 C39 1.259 . S
O37 Mg28 2.114 . S
O37 C40 1.252 . S
O38 Mg28 2.251 . S
O38 Mg31 2.079 . S
O38 C40 1.273 . S
C39 O35 1.246 . S
C39 O36 1.259 . S
C40 O37 1.252 . S
C40 O38 1.273 . S
O41 Mg28 2.010 . S
O41 C33 1.249 . S
Mg42 O43 2.028 . S
Mg42 O49 1.986 . S
Mg42 O51 2.114 . S
Mg42 O52 2.251 . S
Mg42 O55 2.010 . S
O43 Mg42 2.028 . S
O43 C46 1.250 . S
O44 Mg45 2.028 . S
O44 C46 1.248 . S
Mg45 O44 2.028 . S
Mg45 O50 2.032 . S
Mg45 O52 2.079 . S
C46 O43 1.250 . S
C46 O44 1.248 . S
C47 O48 1.264 . S
C47 O55 1.249 . S
O48 C47 1.264 . S
O49 Mg42 1.986 . S
O49 C53 1.246 . S
O50 Mg45 2.032 . S
O50 C53 1.259 . S
O51 Mg42 2.114 . S
O51 C54 1.252 . S
O52 Mg42 2.251 . S
O52 Mg45 2.079 . S
O52 C54 1.273 . S
C53 O49 1.246 . S
C53 O50 1.259 . S
C54 O51 1.252 . S
C54 O52 1.273 . S
O55 Mg42 2.010 . S
O55 C47 1.249 . S
Mg56 O57 2.028 . S
Mg56 O63 1.986 . S
Mg56 O65 2.114 . S
Mg56 O66 2.251 . S
Mg56 O69 2.010 . S
O57 Mg56 2.028 . S
O57 C60 1.250 . S
O58 Mg59 2.028 . S
O58 C60 1.248 . S
Mg59 O58 2.028 . S
Mg59 O64 2.032 . S
Mg59 O66 2.079 . S
C60 O57 1.250 . S
C60 O58 1.248 . S
C61 O62 1.264 . S
C61 O69 1.249 . S
O62 C61 1.264 . S
O63 Mg56 1.986 . S
O63 C67 1.246 . S
O64 Mg59 2.032 . S
O64 C67 1.259 . S
O65 Mg56 2.114 . S
O65 C68 1.252 . S
O66 Mg56 2.251 . S
O66 Mg59 2.079 . S
O66 C68 1.273 . S
C67 O63 1.246 . S
C67 O64 1.259 . S
C68 O65 1.252 . S
C68 O66 1.273 . S
O69 Mg56 2.010 . S
O69 C61 1.249 . S
Mg70 O71 2.028 . S
Mg70 O77 1.986 . S
Mg70 O79 2.114 . S
Mg70 O80 2.251 . S
Mg70 O83 2.010 . S
O71 Mg70 2.028 . S
O71 C74 1.250 . S
O72 Mg73 2.028 . S
O72 C74 1.248 . S
Mg73 O72 2.028 . S
Mg73 O78 2.032 . S
Mg73 O80 2.079 . S
C74 O71 1.250 . S
C74 O72 1.248 . S
C75 O76 1.264 . S
C75 O83 1.249 . S
O76 C75 1.264 . S
O77 Mg70 1.986 . S
O77 C81 1.246 . S
O78 Mg73 2.032 . S
O78 C81 1.259 . S
O79 Mg70 2.114 . S
O79 C82 1.252 . S
O80 Mg70 2.251 . S
O80 Mg73 2.079 . S
O80 C82 1.273 . S
C81 O77 1.246 . S
C81 O78 1.259 . S
C82 O79 1.252 . S
C82 O80 1.273 . S
O83 Mg70 2.010 . S
O83 C75 1.249 . S
Mg84 O85 2.028 . S
Mg84 O91 1.986 . S
Mg84 O93 2.114 . S
Mg84 O94 2.251 . S
Mg84 O97 2.010 . S
O85 Mg84 2.028 . S
O85 C88 1.250 . S
O86 Mg87 2.028 . S
O86 C88 1.248 . S
Mg87 O86 2.028 . S
Mg87 O92 2.032 . S
Mg87 O94 2.079 . S
C88 O85 1.250 . S
C88 O86 1.248 . S
C89 O90 1.264 . S
C89 O97 1.249 . S
O90 C89 1.264 . S
O91 Mg84 1.986 . S
O91 C95 1.246 . S
O92 Mg87 2.032 . S
O92 C95 1.259 . S
O93 Mg84 2.114 . S
O93 C96 1.252 . S
O94 Mg84 2.251 . S
O94 Mg87 2.079 . S
O94 C96 1.273 . S
C95 O91 1.246 . S
C95 O92 1.259 . S
C96 O93 1.252 . S
C96 O94 1.273 . S
O97 Mg84 2.010 . S
O97 C89 1.249 . S
Mg98 O99 2.028 . S
Mg98 O105 1.986 . S
Mg98 O107 2.114 . S
Mg98 O108 2.251 . S
Mg98 O111 2.010 . S
O99 Mg98 2.028 . S
O99 C102 1.250 . S
O100 Mg101 2.028 . S
O100 C102 1.248 1_455 S
Mg101 O100 2.028 . S
Mg101 O106 2.032 . S
Mg101 O108 2.079 1_455 S
C102 O99 1.250 . S
C102 O100 1.248 1_655 S
C103 O104 1.264 . S
C103 O111 1.249 . S
O104 C103 1.264 . S
O105 Mg98 1.986 . S
O105 C109 1.246 . S
O106 Mg101 2.032 . S
O106 C109 1.259 1_455 S
O107 Mg98 2.114 . S
O107 C110 1.252 . S
O108 Mg98 2.251 . S
O108 Mg101 2.079 1_655 S
O108 C110 1.273 . S
C109 O105 1.246 . S
C109 O106 1.259 1_655 S
C110 O107 1.252 . S
C110 O108 1.273 . S
O111 Mg98 2.010 . S
O111 C103 1.249 . S
Mg112 O113 2.028 . S
Mg112 O119 1.986 . S
Mg112 O121 2.114 . S
Mg112 O122 2.251 . S
Mg112 O125 2.010 . S
O113 Mg112 2.028 . S
O113 C116 1.250 . S
O114 Mg115 2.028 . S
O114 C116 1.248 . S
Mg115 O114 2.028 . S
Mg115 O120 2.032 . S
Mg115 O122 2.079 . S
C116 O113 1.250 . S
C116 O114 1.248 . S
C117 O118 1.264 . S
C117 O125 1.249 . S
O118 C117 1.264 . S
O119 Mg112 1.986 . S
O119 C123 1.246 . S
O120 Mg115 2.032 . S
O120 C123 1.259 . S
O121 Mg112 2.114 . S
O121 C124 1.252 . S
O122 Mg112 2.251 . S
O122 Mg115 2.079 . S
O122 C124 1.273 . S
C123 O119 1.246 . S
C123 O120 1.259 . S
C124 O121 1.252 . S
C124 O122 1.273 . S
O125 Mg112 2.010 . S
O125 C117 1.249 . S
Mg126 O127 2.028 . S
Mg126 O133 1.986 . S
Mg126 O135 2.114 . S
Mg126 O136 2.251 . S
Mg126 O139 2.010 . S
O127 Mg126 2.028 . S
O127 C130 1.250 . S
O128 Mg129 2.028 . S
O128 C130 1.248 . S
Mg129 O128 2.028 . S
Mg129 O134 2.032 . S
Mg129 O136 2.079 . S
C130 O127 1.250 . S
C130 O128 1.248 . S
C131 O132 1.264 . S
C131 O139 1.249 . S
O132 C131 1.264 . S
O133 Mg126 1.986 . S
O133 C137 1.246 . S
O134 Mg129 2.032 . S
O134 C137 1.259 . S
O135 Mg126 2.114 . S
O135 C138 1.252 . S
O136 Mg126 2.251 . S
O136 Mg129 2.079 . S
O136 C138 1.273 . S
C137 O133 1.246 . S
C137 O134 1.259 . S
C138 O135 1.252 . S
C138 O136 1.273 . S
O139 Mg126 2.010 . S
O139 C131 1.249 . S
Mg140 O141 2.028 . S
Mg140 O147 1.986 . S
Mg140 O149 2.114 . S
Mg140 O150 2.251 . S
Mg140 O153 2.010 . S
O141 Mg140 2.028 . S
O141 C144 1.250 . S
O142 Mg143 2.028 . S
O142 C144 1.248 1_655 S
Mg143 O142 2.028 . S
Mg143 O148 2.032 . S
Mg143 O150 2.079 1_655 S
C144 O141 1.250 . S
C144 O142 1.248 1_455 S
C145 O146 1.264 . S
C145 O153 1.249 . S
O146 C145 1.264 . S
O147 Mg140 1.986 . S
O147 C151 1.246 . S
O148 Mg143 2.032 . S
O148 C151 1.259 1_655 S
O149 Mg140 2.114 . S
O149 C152 1.252 . S
O150 Mg140 2.251 . S
O150 Mg143 2.079 1_455 S
O150 C152 1.273 . S
C151 O147 1.246 . S
C151 O148 1.259 1_455 S
C152 O149 1.252 . S
C152 O150 1.273 . S
O153 Mg140 2.010 . S
O153 C145 1.249 . S
Mg154 O155 2.028 . S
Mg154 O161 1.986 . S
Mg154 O163 2.114 . S
Mg154 O164 2.251 . S
Mg154 O167 2.010 . S
O155 Mg154 2.028 . S
O155 C158 1.250 . S
O156 Mg157 2.028 . S
O156 C158 1.248 . S
Mg157 O156 2.028 . S
Mg157 O162 2.032 . S
Mg157 O164 2.079 . S
C158 O155 1.250 . S
C158 O156 1.248 . S
C159 O160 1.264 . S
C159 O167 1.249 . S
O160 C159 1.264 . S
O161 Mg154 1.986 . S
O161 C165 1.246 . S
O162 Mg157 2.032 . S
O162 C165 1.259 . S
O163 Mg154 2.114 . S
O163 C166 1.252 . S
O164 Mg154 2.251 . S
O164 Mg157 2.079 . S
O164 C166 1.273 . S
C165 O161 1.246 . S
C165 O162 1.259 . S
C166 O163 1.252 . S
C166 O164 1.273 . S
O167 Mg154 2.010 . S
O167 C159 1.249 . S
H168 C176 0.929 . S
H169 C178 0.930 . S
H170 C180 0.930 . S
H171 C183 0.929 . S
H172 C186 0.930 . S
H173 C188 0.960 . S
H174 C188 0.960 . S
H175 C188 0.960 . S
C176 H168 0.929 . S
C176 C177 1.377 . S
C176 C178 1.384 . S
C177 C176 1.377 . S
C177 C183 1.390 . S
C178 H169 0.930 . S
C178 C176 1.384 . S
C178 C179 1.372 . S
C179 C178 1.372 . S
C179 C180 1.400 . S
C179 C184 1.490 . S
C180 H170 0.930 . S
C180 C179 1.400 . S
C180 C183 1.386 . S
H181 C197 0.930 . S
H182 C198 0.931 . S
C183 H171 0.929 . S
C183 C177 1.390 . S
C183 C180 1.386 . S
C184 C179 1.490 . S
C184 C186 1.395 . S
C184 C187 1.403 . S
H185 C191 0.930 . S
C186 H172 0.930 . S
C186 C184 1.395 . S
C186 C189 1.403 . S
C187 C184 1.403 . S
C187 C188 1.524 . S
C187 C191 1.400 . S
C188 H173 0.960 . S
C188 H174 0.960 . S
C188 H175 0.960 . S
C188 C187 1.524 . S
C189 C186 1.403 . S
C189 C190 1.392 . S
C189 C193 1.495 . S
C190 C189 1.392 . S
C190 C191 1.385 . S
C190 C192 1.478 . S
C191 H185 0.930 . S
C191 C187 1.400 . S
C191 C190 1.385 . S
C192 C190 1.478 . S
C192 C194 1.381 . S
C192 C198 1.383 . S
C193 C189 1.495 . S
C193 H199 0.959 . S
C193 H200 0.961 . S
C193 H201 0.960 . S
C194 C192 1.381 . S
C194 C195 1.394 . S
C194 H202 0.930 . S
C195 C194 1.394 . S
C195 C196 1.383 . S
C195 H203 0.929 . S
C196 C195 1.383 . S
C196 C197 1.377 . S
C197 H181 0.930 . S
C197 C196 1.377 . S
C197 C198 1.379 . S
C198 H182 0.931 . S
C198 C192 1.383 . S
C198 C197 1.379 . S
H199 C193 0.959 . S
H200 C193 0.961 . S
H201 C193 0.960 . S
H202 C194 0.930 . S
H203 C195 0.929 . S
H204 C212 0.929 1_455 S
H205 C214 0.930 . S
H206 C216 0.930 . S
H207 C219 0.929 . S
H208 C222 0.938 1_455 S
H209 C224 0.960 . S
H210 C224 0.960 . S
H211 C224 0.960 . S
C212 H204 0.929 1_655 S
C212 C213 1.377 . S
C212 C214 1.384 1_655 S
C213 C212 1.377 . S
C213 C219 1.390 . S
C214 H205 0.930 . S
C214 C212 1.384 1_455 S
C214 C215 1.372 1_455 S
C215 C214 1.372 1_655 S
C215 C216 1.400 . S
C215 C220 1.490 . S
C216 H206 0.930 . S
C216 C215 1.400 . S
C216 C219 1.386 . S
H217 C233 0.930 . S
H218 C234 0.931 . S
C219 H207 0.929 . S
C219 C213 1.390 . S
C219 C216 1.386 . S
C220 C215 1.490 . S
C220 C222 1.395 . S
C220 C223 1.403 . S
H221 C227 0.930 . S
C222 H208 0.938 1_655 S
C222 C220 1.395 . S
C222 C225 1.403 1_655 S
C223 C220 1.403 . S
C223 C224 1.524 . S
C223 C227 1.400 . S
C224 H209 0.960 . S
C224 H210 0.960 . S
C224 H211 0.960 . S
C224 C223 1.524 . S
C225 C222 1.403 1_455 S
C225 C226 1.392 1_455 S
C225 C229 1.495 . S
C226 C225 1.392 1_655 S
C226 C227 1.385 . S
C226 C228 1.478 1_655 S
C227 H221 0.930 . S
C227 C223 1.400 . S
C227 C226 1.385 . S
C228 C226 1.478 1_455 S
C228 C230 1.381 . S
C228 C234 1.383 1_455 S
C229 C225 1.495 . S
C229 H235 0.959 . S
C229 H236 0.944 1_455 S
C229 H237 0.960 . S
C230 C228 1.381 . S
C230 C231 1.394 . S
C230 H238 0.930 . S
C231 C230 1.394 . S
C231 C232 1.383 . S
C231 H239 0.929 . S
C232 C231 1.383 . S
C232 C233 1.377 1_455 S
C233 H217 0.930 . S
C233 C232 1.377 1_655 S
C233 C234 1.379 . S
C234 H218 0.931 . S
C234 C228 1.383 1_655 S
C234 C233 1.379 . S
H235 C229 0.959 . S
H236 C229 0.944 1_655 S
H237 C229 0.960 . S
H238 C230 0.930 . S
H239 C231 0.929 . S
H240 C248 0.929 . S
H241 C250 0.930 . S
H242 C252 0.930 . S
H243 C255 0.929 . S
H244 C258 0.930 . S
H245 C260 0.960 1_554 S
H246 C260 0.960 . S
H247 C260 0.960 . S
C248 H240 0.929 . S
C248 C249 1.377 . S
C248 C250 1.384 . S
C249 C248 1.377 . S
C249 C255 1.390 . S
C250 H241 0.930 . S
C250 C248 1.384 . S
C250 C251 1.372 . S
C251 C250 1.372 . S
C251 C252 1.400 . S
C251 C256 1.490 . S
C252 H242 0.930 . S
C252 C251 1.400 . S
C252 C255 1.386 . S
H253 C269 0.930 . S
H254 C270 0.931 . S
C255 H243 0.929 . S
C255 C249 1.390 . S
C255 C252 1.386 . S
C256 C251 1.490 . S
C256 C258 1.395 1_565 S
C256 C259 1.403 . S
H257 C263 0.930 . S
C258 H244 0.930 . S
C258 C256 1.395 1_545 S
C258 C261 1.403 1_556 S
C259 C256 1.403 . S
C259 C260 1.524 . S
C259 C263 1.400 1_556 S
C260 H245 0.960 1_556 S
C260 H246 0.960 . S
C260 H247 0.960 . S
C260 C259 1.524 . S
C261 C258 1.403 1_554 S
C261 C262 1.392 . S
C261 C265 1.495 . S
C262 C261 1.392 . S
C262 C263 1.385 1_545 S
C262 C264 1.478 . S
C263 H257 0.930 . S
C263 C259 1.400 1_554 S
C263 C262 1.385 1_565 S
C264 C262 1.478 . S
C264 C266 1.381 . S
C264 C270 1.383 . S
C265 C261 1.495 . S
C265 H271 0.959 1_554 S
C265 H272 0.961 . S
C265 H273 0.960 . S
C266 C264 1.381 . S
C266 C267 1.394 . S
C266 H274 0.930 . S
C267 C266 1.394 . S
C267 C268 1.383 . S
C267 H275 0.929 . S
C268 C267 1.383 . S
C268 C269 1.377 . S
C269 H253 0.930 . S
C269 C268 1.377 . S
C269 C270 1.379 . S
C270 H254 0.931 . S
C270 C264 1.383 . S
C270 C269 1.379 . S
H271 C265 0.959 1_556 S
H272 C265 0.961 . S
H273 C265 0.960 . S
H274 C266 0.930 . S
H275 C267 0.929 . S
H276 C284 0.929 . S
H277 C286 0.930 . S
H278 C288 0.930 . S
H279 C291 0.929 . S
H280 C294 0.930 . S
H281 C296 0.960 . S
H282 C296 0.960 . S
H283 C296 0.960 . S
C284 H276 0.929 . S
C284 C285 1.377 . S
C284 C286 1.384 . S
C285 C284 1.377 . S
C285 C291 1.390 . S
C286 H277 0.930 . S
C286 C284 1.384 . S
C286 C287 1.372 . S
C287 C286 1.372 . S
C287 C288 1.400 . S
C287 C292 1.490 . S
C288 H278 0.930 . S
C288 C287 1.400 . S
C288 C291 1.386 . S
H289 C305 0.930 . S
H290 C306 0.931 . S
C291 H279 0.929 . S
C291 C285 1.390 . S
C291 C288 1.386 . S
C292 C287 1.490 . S
C292 C294 1.395 . S
C292 C295 1.403 . S
H293 C299 0.930 . S
C294 H280 0.930 . S
C294 C292 1.395 . S
C294 C297 1.403 . S
C295 C292 1.403 . S
C295 C296 1.524 . S
C295 C299 1.400 . S
C296 H281 0.960 . S
C296 H282 0.960 . S
C296 H283 0.960 . S
C296 C295 1.524 . S
C297 C294 1.403 . S
C297 C298 1.392 . S
C297 C301 1.495 . S
C298 C297 1.392 . S
C298 C299 1.385 . S
C298 C300 1.478 . S
C299 H293 0.930 . S
C299 C295 1.400 . S
C299 C298 1.385 . S
C300 C298 1.478 . S
C300 C302 1.381 . S
C300 C306 1.383 . S
C301 C297 1.495 . S
C301 H307 0.959 . S
C301 H308 0.961 . S
C301 H309 0.960 . S
C302 C300 1.381 . S
C302 C303 1.394 . S
C302 H310 0.930 . S
C303 C302 1.394 . S
C303 C304 1.383 . S
C303 H311 0.929 . S
C304 C303 1.383 . S
C304 C305 1.377 . S
C305 H289 0.930 . S
C305 C304 1.377 . S
C305 C306 1.379 . S
C306 H290 0.931 . S
C306 C300 1.383 . S
C306 C305 1.379 . S
H307 C301 0.959 . S
H308 C301 0.961 . S
H309 C301 0.960 . S
H310 C302 0.930 . S
H311 C303 0.929 . S
H312 C320 0.929 . S
H313 C322 0.930 . S
H314 C324 0.930 . S
H315 C327 0.929 . S
H316 C330 0.930 . S
H317 C332 0.960 . S
H318 C332 0.960 . S
H319 C332 0.960 . S
C320 H312 0.929 . S
C320 C321 1.377 1_455 S
C320 C322 1.384 . S
C321 C320 1.377 1_655 S
C321 C327 1.390 . S
C322 H313 0.930 . S
C322 C320 1.384 . S
C322 C323 1.372 . S
C323 C322 1.372 . S
C323 C324 1.400 1_455 S
C323 C328 1.490 . S
C324 H314 0.930 . S
C324 C323 1.400 1_655 S
C324 C327 1.386 . S
H325 C341 0.930 1_655 S
H326 C342 0.931 1_655 S
C327 H315 0.929 . S
C327 C321 1.390 . S
C327 C324 1.386 . S
C328 C323 1.490 . S
C328 C330 1.395 1_455 S
C328 C331 1.403 . S
H329 C335 0.930 . S
C330 H316 0.930 . S
C330 C328 1.395 1_655 S
C330 C333 1.403 1_655 S
C331 C328 1.403 . S
C331 C332 1.524 . S
C331 C335 1.400 . S
C332 H317 0.960 . S
C332 H318 0.960 . S
C332 H319 0.960 . S
C332 C331 1.524 . S
C333 C330 1.403 1_455 S
C333 C334 1.392 . S
C333 C337 1.495 1_455 S
C334 C333 1.392 . S
C334 C335 1.385 . S
C334 C336 1.478 . S
C335 H329 0.930 . S
C335 C331 1.400 . S
C335 C334 1.385 . S
C336 C334 1.478 . S
C336 C338 1.381 . S
C336 C342 1.383 . S
C337 C333 1.495 1_655 S
C337 H343 0.959 . S
C337 H344 0.961 . S
C337 H345 0.960 1_655 S
C338 C336 1.381 . S
C338 C339 1.394 . S
C338 H346 0.930 . S
C339 C338 1.394 . S
C339 C340 1.383 . S
C339 H347 0.929 . S
C340 C339 1.383 . S
C340 C341 1.377 . S
C341 H325 0.930 1_455 S
C341 C340 1.377 . S
C341 C342 1.379 . S
C342 H326 0.931 1_455 S
C342 C336 1.383 . S
C342 C341 1.379 . S
H343 C337 0.959 . S
H344 C337 0.961 . S
H345 C337 0.960 1_455 S
H346 C338 0.930 . S
H347 C339 0.929 . S
H348 C356 0.952 . S
H349 C358 0.930 . S
H350 C360 0.930 . S
H351 C363 0.929 . S
H352 C366 0.930 . S
H353 C368 0.959 1_556 S
H354 C368 0.960 . S
H355 C368 0.960 . S
C356 H348 0.952 . S
C356 C357 1.349 1_545 S
C356 C358 1.390 . S
C357 C356 1.349 1_565 S
C357 C363 1.390 . S
C358 H349 0.930 . S
C358 C356 1.390 . S
C358 C359 1.372 1_545 S
C359 C358 1.372 1_565 S
C359 C360 1.400 . S
C359 C364 1.490 . S
C360 H350 0.930 . S
C360 C359 1.400 . S
C360 C363 1.386 . S
H361 C377 0.930 1_565 S
H362 C378 0.983 . S
C363 H351 0.929 . S
C363 C357 1.390 . S
C363 C360 1.386 . S
C364 C359 1.490 . S
C364 C366 1.395 1_565 S
C364 C367 1.403 . S
H365 C371 0.930 . S
C366 H352 0.930 . S
C366 C364 1.395 1_545 S
C366 C369 1.403 1_554 S
C367 C364 1.403 . S
C367 C368 1.524 . S
C367 C371 1.400 1_554 S
C368 H353 0.959 1_554 S
C368 H354 0.960 . S
C368 H355 0.960 . S
C368 C367 1.524 . S
C369 C366 1.403 1_556 S
C369 C370 1.392 . S
C369 C373 1.495 . S
C370 C369 1.392 . S
C370 C371 1.385 1_545 S
C370 C372 1.478 . S
C371 H365 0.930 . S
C371 C367 1.400 1_556 S
C371 C370 1.385 1_565 S
C372 C370 1.478 . S
C372 C374 1.381 . S
C372 C378 1.340 1_545 S
C373 C369 1.495 . S
C373 H379 0.947 1_556 S
C373 H380 0.961 . S
C373 H381 0.960 . S
C374 C372 1.381 . S
C374 C375 1.394 . S
C374 H382 0.930 . S
C375 C374 1.394 . S
C375 C376 1.383 . S
C375 H383 0.929 . S
C376 C375 1.383 . S
C376 C377 1.377 . S
C377 H361 0.930 1_545 S
C377 C376 1.377 . S
C377 C378 1.373 1_545 S
C378 H362 0.983 . S
C378 C372 1.340 1_565 S
C378 C377 1.373 1_565 S
H379 C373 0.947 1_554 S
H380 C373 0.961 . S
H381 C373 0.960 . S
H382 C374 0.930 . S
H383 C375 0.929 . S
H384 C392 0.929 . S
H385 C394 0.930 . S
H386 C396 0.930 1_554 S
H387 C399 0.929 . S
H388 C402 0.930 . S
H389 C404 0.960 . S
H390 C404 0.960 . S
H391 C404 0.960 . S
C392 H384 0.929 . S
C392 C393 1.377 . S
C392 C394 1.384 . S
C393 C392 1.377 . S
C393 C399 1.390 . S
C394 H385 0.930 . S
C394 C392 1.384 . S
C394 C395 1.372 . S
C395 C394 1.372 . S
C395 C396 1.400 . S
C395 C400 1.490 . S
C396 H386 0.930 1_556 S
C396 C395 1.400 . S
C396 C399 1.386 . S
H397 C413 0.930 . S
H398 C414 0.931 . S
C399 H387 0.929 . S
C399 C393 1.390 . S
C399 C396 1.386 . S
C400 C395 1.490 . S
C400 C402 1.395 . S
C400 C403 1.403 1_556 S
H401 C407 0.930 . S
C402 H388 0.930 . S
C402 C400 1.395 . S
C402 C405 1.403 . S
C403 C400 1.403 1_554 S
C403 C404 1.524 . S
C403 C407 1.400 . S
C404 H389 0.960 . S
C404 H390 0.960 . S
C404 H391 0.960 . S
C404 C403 1.524 . S
C405 C402 1.403 . S
C405 C406 1.392 1_556 S
C405 C409 1.495 . S
C406 C405 1.392 1_554 S
C406 C407 1.385 . S
C406 C408 1.478 . S
C407 H401 0.930 . S
C407 C403 1.400 . S
C407 C406 1.385 . S
C408 C406 1.478 . S
C408 C410 1.381 . S
C408 C414 1.383 . S
C409 C405 1.495 . S
C409 H415 0.959 . S
C409 H416 0.961 . S
C409 H417 0.960 . S
C410 C408 1.381 . S
C410 C411 1.394 . S
C410 H418 0.930 1_554 S
C411 C410 1.394 . S
C411 C412 1.383 . S
C411 H419 0.929 . S
C412 C411 1.383 . S
C412 C413 1.377 . S
C413 H397 0.930 . S
C413 C412 1.377 . S
C413 C414 1.379 . S
C414 H398 0.931 . S
C414 C408 1.383 . S
C414 C413 1.379 . S
H415 C409 0.959 . S
H416 C409 0.961 . S
H417 C409 0.960 . S
H418 C410 0.930 1_556 S
H419 C411 0.929 . S
H420 C428 0.929 . S
H421 C430 0.930 . S
H422 C432 0.930 . S
H423 C435 0.929 . S
H424 C438 0.930 . S
H425 C440 0.960 . S
H426 C440 0.960 . S
H427 C440 0.960 . S
C428 H420 0.929 . S
C428 C429 1.377 . S
C428 C430 1.384 . S
C429 C428 1.377 . S
C429 C435 1.390 . S
C430 H421 0.930 . S
C430 C428 1.384 . S
C430 C431 1.372 . S
C431 C430 1.372 . S
C431 C432 1.400 . S
C431 C436 1.490 . S
C432 H422 0.930 . S
C432 C431 1.400 . S
C432 C435 1.386 . S
H433 C449 0.930 . S
H434 C450 0.931 . S
C435 H423 0.929 . S
C435 C429 1.390 . S
C435 C432 1.386 . S
C436 C431 1.490 . S
C436 C438 1.395 . S
C436 C439 1.403 . S
H437 C443 0.930 . S
C438 H424 0.930 . S
C438 C436 1.395 . S
C438 C441 1.403 . S
C439 C436 1.403 . S
C439 C440 1.524 . S
C439 C443 1.400 . S
C440 H425 0.960 . S
C440 H426 0.960 . S
C440 H427 0.960 . S
C440 C439 1.524 . S
C441 C438 1.403 . S
C441 C442 1.392 . S
C441 C445 1.495 . S
C442 C441 1.392 . S
C442 C443 1.385 . S
C442 C444 1.478 . S
C443 H437 0.930 . S
C443 C439 1.400 . S
C443 C442 1.385 . S
C444 C442 1.478 . S
C444 C446 1.381 . S
C444 C450 1.383 . S
C445 C441 1.495 . S
C445 H451 0.959 . S
C445 H452 0.961 . S
C445 H453 0.960 . S
C446 C444 1.381 . S
C446 C447 1.394 . S
C446 H454 0.930 . S
C447 C446 1.394 . S
C447 C448 1.383 . S
C447 H455 0.929 . S
C448 C447 1.383 . S
C448 C449 1.377 . S
C449 H433 0.930 . S
C449 C448 1.377 . S
C449 C450 1.379 . S
C450 H434 0.931 . S
C450 C444 1.383 . S
C450 C449 1.379 . S
H451 C445 0.959 . S
H452 C445 0.961 . S
H453 C445 0.960 . S
H454 C446 0.930 . S
H455 C447 0.929 . S
H456 C464 0.929 . S
H457 C466 0.930 . S
H458 C468 0.930 . S
H459 C471 0.929 . S
H460 C474 0.930 . S
H461 C476 0.960 . S
H462 C476 0.960 . S
H463 C476 0.960 . S
C464 H456 0.929 . S
C464 C465 1.377 . S
C464 C466 1.384 . S
C465 C464 1.377 . S
C465 C471 1.390 . S
C466 H457 0.930 . S
C466 C464 1.384 . S
C466 C467 1.372 . S
C467 C466 1.372 . S
C467 C468 1.400 . S
C467 C472 1.490 . S
C468 H458 0.930 . S
C468 C467 1.400 . S
C468 C471 1.386 . S
H469 C485 0.930 . S
H470 C486 0.931 . S
C471 H459 0.929 . S
C471 C465 1.390 . S
C471 C468 1.386 . S
C472 C467 1.490 . S
C472 C474 1.395 . S
C472 C475 1.403 . S
H473 C479 0.930 . S
C474 H460 0.930 . S
C474 C472 1.395 . S
C474 C477 1.403 . S
C475 C472 1.403 . S
C475 C476 1.524 . S
C475 C479 1.400 . S
C476 H461 0.960 . S
C476 H462 0.960 . S
C476 H463 0.960 . S
C476 C475 1.524 . S
C477 C474 1.403 . S
C477 C478 1.392 . S
C477 C481 1.495 . S
C478 C477 1.392 . S
C478 C479 1.385 . S
C478 C480 1.478 . S
C479 H473 0.930 . S
C479 C475 1.400 . S
C479 C478 1.385 . S
C480 C478 1.478 . S
C480 C482 1.381 . S
C480 C486 1.383 . S
C481 C477 1.495 . S
C481 H487 0.959 . S
C481 H488 0.961 . S
C481 H489 0.960 . S
C482 C480 1.381 . S
C482 C483 1.394 . S
C482 H490 0.930 . S
C483 C482 1.394 . S
C483 C484 1.383 . S
C483 H491 0.929 . S
C484 C483 1.383 . S
C484 C485 1.377 . S
C485 H469 0.930 . S
C485 C484 1.377 . S
C485 C486 1.379 . S
C486 H470 0.931 . S
C486 C480 1.383 . S
C486 C485 1.379 . S
H487 C481 0.959 . S
H488 C481 0.961 . S
H489 C481 0.960 . S
H490 C482 0.930 . S
H491 C483 0.929 . S
H492 C500 0.929 . S
H493 C502 0.930 . S
H494 C504 0.930 . S
H495 C507 0.929 . S
H496 C510 0.930 . S
H497 C512 0.960 . S
H498 C512 0.960 . S
H499 C512 0.960 . S
C500 H492 0.929 . S
C500 C501 1.377 . S
C500 C502 1.384 . S
C501 C500 1.377 . S
C501 C507 1.390 . S
C502 H493 0.930 . S
C502 C500 1.384 . S
C502 C503 1.372 . S
C503 C502 1.372 . S
C503 C504 1.400 . S
C503 C508 1.490 . S
C504 H494 0.930 . S
C504 C503 1.400 . S
C504 C507 1.386 . S
H505 C521 0.930 . S
H506 C522 0.931 1_554 S
C507 H495 0.929 . S
C507 C501 1.390 . S
C507 C504 1.386 . S
C508 C503 1.490 . S
C508 C510 1.395 . S
C508 C511 1.403 1_554 S
H509 C515 0.930 . S
C510 H496 0.930 . S
C510 C508 1.395 . S
C510 C513 1.403 . S
C511 C508 1.403 1_556 S
C511 C512 1.524 . S
C511 C515 1.400 . S
C512 H497 0.960 . S
C512 H498 0.960 . S
C512 H499 0.960 . S
C512 C511 1.524 . S
C513 C510 1.403 . S
C513 C514 1.392 1_554 S
C513 C517 1.495 . S
C514 C513 1.392 1_556 S
C514 C515 1.385 . S
C514 C516 1.478 . S
C515 H509 0.930 . S
C515 C511 1.400 . S
C515 C514 1.385 . S
C516 C514 1.478 . S
C516 C518 1.381 . S
C516 C522 1.383 . S
C517 C513 1.495 . S
C517 H523 0.959 . S
C517 H524 0.961 . S
C517 H525 0.960 . S
C518 C516 1.381 . S
C518 C519 1.394 . S
C518 H526 0.930 . S
C519 C518 1.394 . S
C519 C520 1.383 . S
C519 H527 0.929 . S
C520 C519 1.383 . S
C520 C521 1.377 . S
C521 H505 0.930 . S
C521 C520 1.377 . S
C521 C522 1.379 . S
C522 H506 0.931 1_556 S
C522 C516 1.383 . S
C522 C521 1.379 . S
H523 C517 0.959 . S
H524 C517 0.961 . S
H525 C517 0.960 . S
H526 C518 0.930 . S
H527 C519 0.929 . S
H528 C536 0.929 . S
H529 C538 0.930 . S
H530 C540 0.930 . S
H531 C543 0.929 . S
H532 C546 0.930 . S
H533 C548 0.960 . S
H534 C548 0.960 . S
H535 C548 0.960 . S
C536 H528 0.929 . S
C536 C537 1.377 . S
C536 C538 1.384 . S
C537 C536 1.377 . S
C537 C543 1.390 . S
C538 H529 0.930 . S
C538 C536 1.384 . S
C538 C539 1.372 . S
C539 C538 1.372 . S
C539 C540 1.400 . S
C539 C544 1.490 . S
C540 H530 0.930 . S
C540 C539 1.400 . S
C540 C543 1.386 . S
H541 C557 0.930 . S
H542 C558 0.931 . S
C543 H531 0.929 . S
C543 C537 1.390 . S
C543 C540 1.386 . S
C544 C539 1.490 . S
C544 C546 1.395 . S
C544 C547 1.403 . S
H545 C551 0.930 . S
C546 H532 0.930 . S
C546 C544 1.395 . S
C546 C549 1.403 . S
C547 C544 1.403 . S
C547 C548 1.524 . S
C547 C551 1.400 . S
C548 H533 0.960 . S
C548 H534 0.960 . S
C548 H535 0.960 . S
C548 C547 1.524 . S
C549 C546 1.403 . S
C549 C550 1.392 . S
C549 C553 1.495 . S
C550 C549 1.392 . S
C550 C551 1.385 . S
C550 C552 1.478 . S
C551 H545 0.930 . S
C551 C547 1.400 . S
C551 C550 1.385 . S
C552 C550 1.478 . S
C552 C554 1.381 . S
C552 C558 1.383 . S
C553 C549 1.495 . S
C553 H559 0.959 . S
C553 H560 0.961 . S
C553 H561 0.960 . S
C554 C552 1.381 . S
C554 C555 1.394 . S
C554 H562 0.930 . S
C555 C554 1.394 . S
C555 C556 1.383 . S
C555 H563 0.929 . S
C556 C555 1.383 . S
C556 C557 1.377 . S
C557 H541 0.930 . S
C557 C556 1.377 . S
C557 C558 1.379 . S
C558 H542 0.931 . S
C558 C552 1.383 . S
C558 C557 1.379 . S
H559 C553 0.959 . S
H560 C553 0.961 . S
H561 C553 0.960 . S
H562 C554 0.930 . S
H563 C555 0.929 . S
H564 C572 0.929 . S
H565 C574 0.930 . S
H566 C576 0.930 . S
H567 C579 0.929 . S
H568 C582 0.930 . S
H569 C584 0.960 . S
H570 C584 0.960 . S
H571 C584 0.960 . S
C572 H564 0.929 . S
C572 C573 1.377 . S
C572 C574 1.384 . S
C573 C572 1.377 . S
C573 C579 1.390 . S
C574 H565 0.930 . S
C574 C572 1.384 . S
C574 C575 1.372 . S
C575 C574 1.372 . S
C575 C576 1.400 . S
C575 C580 1.490 . S
C576 H566 0.930 . S
C576 C575 1.400 . S
C576 C579 1.386 . S
H577 C593 0.930 . S
H578 C594 0.931 . S
C579 H567 0.929 . S
C579 C573 1.390 . S
C579 C576 1.386 . S
C580 C575 1.490 . S
C580 C582 1.395 . S
C580 C583 1.403 . S
H581 C587 0.930 . S
C582 H568 0.930 . S
C582 C580 1.395 . S
C582 C585 1.403 . S
C583 C580 1.403 . S
C583 C584 1.524 . S
C583 C587 1.400 . S
C584 H569 0.960 . S
C584 H570 0.960 . S
C584 H571 0.960 . S
C584 C583 1.524 . S
C585 C582 1.403 . S
C585 C586 1.392 . S
C585 C589 1.495 . S
C586 C585 1.392 . S
C586 C587 1.385 . S
C586 C588 1.478 . S
C587 H581 0.930 . S
C587 C583 1.400 . S
C587 C586 1.385 . S
C588 C586 1.478 . S
C588 C590 1.381 . S
C588 C594 1.383 . S
C589 C585 1.495 . S
C589 H595 0.959 . S
C589 H596 0.961 . S
C589 H597 0.960 . S
C590 C588 1.381 . S
C590 C591 1.394 . S
C590 H598 0.930 . S
C591 C590 1.394 . S
C591 C592 1.383 . S
C591 H599 0.929 . S
C592 C591 1.383 . S
C592 C593 1.377 . S
C593 H577 0.930 . S
C593 C592 1.377 . S
C593 C594 1.379 . S
C594 H578 0.931 . S
C594 C588 1.383 . S
C594 C593 1.379 . S
H595 C589 0.959 . S
H596 C589 0.961 . S
H597 C589 0.960 . S
H598 C590 0.930 . S
H599 C591 0.929 . S
H600 C608 0.929 . S
H601 C610 0.930 . S
H602 C612 0.930 . S
H603 C615 0.929 . S
H604 C618 0.930 . S
H605 C620 0.960 . S
H606 C620 0.960 . S
H607 C620 0.960 . S
C608 H600 0.929 . S
C608 C609 1.377 . S
C608 C610 1.384 . S
C609 C608 1.377 . S
C609 C615 1.390 . S
C610 H601 0.930 . S
C610 C608 1.384 . S
C610 C611 1.372 . S
C611 C610 1.372 . S
C611 C612 1.400 . S
C611 C616 1.490 . S
C612 H602 0.930 . S
C612 C611 1.400 . S
C612 C615 1.386 . S
H613 C629 0.930 . S
H614 C630 0.931 . S
C615 H603 0.929 . S
C615 C609 1.390 . S
C615 C612 1.386 . S
C616 C611 1.490 . S
C616 C618 1.395 . S
C616 C619 1.403 . S
H617 C623 0.930 . S
C618 H604 0.930 . S
C618 C616 1.395 . S
C618 C621 1.403 . S
C619 C616 1.403 . S
C619 C620 1.524 . S
C619 C623 1.400 . S
C620 H605 0.960 . S
C620 H606 0.960 . S
C620 H607 0.960 . S
C620 C619 1.524 . S
C621 C618 1.403 . S
C621 C622 1.392 . S
C621 C625 1.495 . S
C622 C621 1.392 . S
C622 C623 1.385 . S
C622 C624 1.478 . S
C623 H617 0.930 . S
C623 C619 1.400 . S
C623 C622 1.385 . S
C624 C622 1.478 . S
C624 C626 1.381 . S
C624 C630 1.383 . S
C625 C621 1.495 . S
C625 H631 0.959 . S
C625 H632 0.961 . S
C625 H633 0.960 . S
C626 C624 1.381 . S
C626 C627 1.394 . S
C626 H634 0.930 . S
C627 C626 1.394 . S
C627 C628 1.383 1_556 S
C627 H635 0.929 . S
C628 C627 1.383 1_554 S
C628 C629 1.377 1_554 S
C629 H613 0.930 . S
C629 C628 1.377 1_556 S
C629 C630 1.379 . S
C630 H614 0.931 . S
C630 C624 1.383 . S
C630 C629 1.379 . S
H631 C625 0.959 . S
H632 C625 0.961 . S
H633 C625 0.960 . S
H634 C626 0.930 . S
H635 C627 0.929 . S
H636 C644 0.929 . S
H637 C646 0.930 . S
H638 C648 0.930 1_455 S
H639 C651 0.929 1_455 S
H640 C654 0.930 . S
H641 C656 0.960 . S
H642 C656 0.960 . S
H643 C656 0.960 1_455 S
C644 H636 0.929 . S
C644 C645 1.377 . S
C644 C646 1.384 . S
C645 C644 1.377 . S
C645 C651 1.390 . S
C646 H637 0.930 . S
C646 C644 1.384 . S
C646 C647 1.372 . S
C647 C646 1.372 . S
C647 C648 1.400 . S
C647 C652 1.490 . S
C648 H638 0.930 1_655 S
C648 C647 1.400 . S
C648 C651 1.386 . S
H649 C665 0.930 . S
H650 C666 0.931 . S
C651 H639 0.929 1_655 S
C651 C645 1.390 . S
C651 C648 1.386 . S
C652 C647 1.490 . S
C652 C654 1.395 . S
C652 C655 1.403 . S
H653 C659 0.936 . S
C654 H640 0.930 . S
C654 C652 1.395 . S
C654 C657 1.403 . S
C655 C652 1.403 . S
C655 C656 1.524 . S
C655 C659 1.400 . S
C656 H641 0.960 . S
C656 H642 0.960 . S
C656 H643 0.960 1_655 S
C656 C655 1.524 . S
C657 C654 1.403 . S
C657 C658 1.392 . S
C657 C661 1.495 . S
C658 C657 1.392 . S
C658 C659 1.385 . S
C658 C660 1.477 1_655 S
C659 H653 0.936 . S
C659 C655 1.400 . S
C659 C658 1.385 . S
C660 C658 1.477 1_455 S
C660 C662 1.378 1_455 S
C660 C666 1.387 . S
C661 C657 1.495 . S
C661 H667 0.959 . S
C661 H668 0.961 1_655 S
C661 H669 0.960 . S
C662 C660 1.378 1_655 S
C662 C663 1.394 . S
C662 H670 0.930 . S
C663 C662 1.394 . S
C663 C664 1.383 1_654 S
C663 H671 0.929 1_554 S
C664 C663 1.383 1_456 S
C664 C665 1.377 1_556 S
C665 H649 0.930 . S
C665 C664 1.377 1_554 S
C665 C666 1.379 . S
C666 H650 0.931 . S
C666 C660 1.387 . S
C666 C665 1.379 . S
H667 C661 0.959 . S
H668 C661 0.961 1_455 S
H669 C661 0.960 . S
H670 C662 0.930 . S
H671 C663 0.929 1_556 S
H672 C680 0.929 . S
H673 C682 0.930 . S
H674 C684 0.930 . S
H675 C687 0.929 . S
H676 C690 0.930 . S
H677 C692 0.960 . S
H678 C692 0.960 . S
H679 C692 0.960 1_565 S
C680 H672 0.929 . S
C680 C681 1.377 1_545 S
C680 C682 1.384 . S
C681 C680 1.377 1_565 S
C681 C687 1.390 . S
C682 H673 0.930 . S
C682 C680 1.384 . S
C682 C683 1.372 1_545 S
C683 C682 1.372 1_565 S
C683 C684 1.400 . S
C683 C688 1.490 . S
C684 H674 0.930 . S
C684 C683 1.400 . S
C684 C687 1.386 . S
H685 C701 0.930 . S
H686 C702 0.931 . S
C687 H675 0.929 . S
C687 C681 1.390 . S
C687 C684 1.386 . S
C688 C683 1.490 . S
C688 C690 1.395 . S
C688 C691 1.403 1_565 S
H689 C695 0.930 . S
C690 H676 0.930 . S
C690 C688 1.395 . S
C690 C693 1.402 1_565 S
C691 C688 1.403 1_545 S
C691 C692 1.524 . S
C691 C695 1.400 . S
C692 H677 0.960 . S
C692 H678 0.960 . S
C692 H679 0.960 1_545 S
C692 C691 1.524 . S
C693 C690 1.402 1_545 S
C693 C694 1.401 . S
C693 C697 1.472 1_545 S
C694 C693 1.401 . S
C694 C695 1.385 . S
C694 C696 1.478 . S
C695 H689 0.930 . S
C695 C691 1.400 . S
C695 C694 1.385 . S
C696 C694 1.478 . S
C696 C698 1.381 . S
C696 C702 1.383 1_545 S
C697 C693 1.472 1_565 S
C697 H703 0.977 . S
C697 H704 0.983 . S
C697 H705 0.937 1_565 S
C698 C696 1.381 . S
C698 C699 1.394 . S
C698 H706 0.930 . S
C699 C698 1.394 . S
C699 C700 1.383 . S
C699 H707 0.929 . S
C700 C699 1.383 . S
C700 C701 1.377 1_545 S
C701 H685 0.930 . S
C701 C700 1.377 1_565 S
C701 C702 1.379 . S
C702 H686 0.931 . S
C702 C696 1.383 1_565 S
C702 C701 1.379 . S
H703 C697 0.977 . S
H704 C697 0.983 . S
H705 C697 0.937 1_545 S
H706 C698 0.930 . S
H707 C699 0.929 . S
H708 C716 0.929 . S
H709 C718 0.930 . S
H710 C720 0.930 . S
H711 C723 0.929 . S
H712 C726 0.930 . S
H713 C728 0.960 . S
H714 C728 0.960 . S
H715 C728 0.960 . S
C716 H708 0.929 . S
C716 C717 1.377 . S
C716 C718 1.384 . S
C717 C716 1.377 . S
C717 C723 1.390 . S
C718 H709 0.930 . S
C718 C716 1.384 . S
C718 C719 1.372 . S
C719 C718 1.372 . S
C719 C720 1.400 . S
C719 C724 1.490 . S
C720 H710 0.930 . S
C720 C719 1.400 . S
C720 C723 1.386 . S
H721 C737 0.915 1_554 S
H722 C738 0.931 . S
C723 H711 0.929 . S
C723 C717 1.390 . S
C723 C720 1.386 . S
C724 C719 1.490 . S
C724 C726 1.395 . S
C724 C727 1.403 . S
H725 C731 0.930 . S
C726 H712 0.930 . S
C726 C724 1.395 . S
C726 C729 1.403 . S
C727 C724 1.403 . S
C727 C728 1.524 . S
C727 C731 1.400 . S
C728 H713 0.960 . S
C728 H714 0.960 . S
C728 H715 0.960 . S
C728 C727 1.524 . S
C729 C726 1.403 . S
C729 C730 1.392 . S
C729 C733 1.495 . S
C730 C729 1.392 . S
C730 C731 1.385 . S
C730 C732 1.478 . S
C731 H725 0.930 . S
C731 C727 1.400 . S
C731 C730 1.385 . S
C732 C730 1.478 . S
C732 C734 1.381 . S
C732 C738 1.383 . S
C733 C729 1.495 . S
C733 H739 0.959 . S
C733 H740 0.961 . S
C733 H741 0.960 . S
C734 C732 1.381 . S
C734 C735 1.394 . S
C734 H742 0.930 . S
C735 C734 1.394 . S
C735 C736 1.383 1_556 S
C735 H743 0.929 . S
C736 C735 1.383 1_554 S
C736 C737 1.377 1_554 S
C737 H721 0.915 1_556 S
C737 C736 1.377 1_556 S
C737 C738 1.379 . S
C738 H722 0.931 . S
C738 C732 1.383 . S
C738 C737 1.379 . S
H739 C733 0.959 . S
H740 C733 0.961 . S
H741 C733 0.960 . S
H742 C734 0.930 . S
H743 C735 0.929 . S
H744 C752 0.929 . S
H745 C754 0.930 . S
H746 C756 0.930 1_655 S
H747 C759 0.929 1_655 S
H748 C762 0.930 . S
H749 C764 0.960 . S
H750 C764 0.960 . S
H751 C764 0.960 . S
C752 H744 0.929 . S
C752 C753 1.377 . S
C752 C754 1.384 . S
C753 C752 1.377 . S
C753 C759 1.390 . S
C754 H745 0.930 . S
C754 C752 1.384 . S
C754 C755 1.372 . S
C755 C754 1.372 . S
C755 C756 1.400 . S
C755 C760 1.490 . S
C756 H746 0.930 1_455 S
C756 C755 1.400 . S
C756 C759 1.386 . S
H757 C773 0.930 . S
H758 C774 0.931 . S
C759 H747 0.929 1_455 S
C759 C753 1.390 . S
C759 C756 1.386 . S
C760 C755 1.490 . S
C760 C762 1.395 . S
C760 C763 1.403 . S
H761 C767 0.930 . S
C762 H748 0.930 . S
C762 C760 1.395 . S
C762 C765 1.403 . S
C763 C760 1.403 . S
C763 C764 1.524 . S
C763 C767 1.400 . S
C764 H749 0.960 . S
C764 H750 0.960 . S
C764 H751 0.960 . S
C764 C763 1.524 . S
C765 C762 1.403 . S
C765 C766 1.392 . S
C765 C769 1.481 . S
C766 C765 1.392 . S
C766 C767 1.385 . S
C766 C768 1.478 1_455 S
C767 H761 0.930 . S
C767 C763 1.400 . S
C767 C766 1.385 . S
C768 C766 1.478 1_655 S
C768 C770 1.381 1_655 S
C768 C774 1.383 . S
C769 C765 1.481 . S
C769 H775 0.983 . S
C769 H776 0.920 1_455 S
C769 H777 0.995 . S
C770 C768 1.381 1_455 S
C770 C771 1.394 . S
C770 H778 0.930 . S
C771 C770 1.394 . S
C771 C772 1.383 1_454 S
C771 H779 0.929 1_554 S
C772 C771 1.383 1_656 S
C772 C773 1.377 1_556 S
C773 H757 0.930 . S
C773 C772 1.377 1_554 S
C773 C774 1.379 . S
C774 H758 0.931 . S
C774 C768 1.383 . S
C774 C773 1.379 . S
H775 C769 0.983 . S
H776 C769 0.920 1_655 S
H777 C769 0.995 . S
H778 C770 0.930 . S
H779 C771 0.929 1_556 S
H780 C788 0.929 . S
H781 C790 0.930 . S
H782 C792 0.930 . S
H783 C795 0.929 . S
H784 C798 0.930 . S
H785 C800 0.960 . S
H786 C800 0.960 . S
H787 C800 0.960 . S
C788 H780 0.929 . S
C788 C789 1.377 . S
C788 C790 1.384 . S
C789 C788 1.377 . S
C789 C795 1.390 1_565 S
C790 H781 0.930 . S
C790 C788 1.384 . S
C790 C791 1.372 . S
C791 C790 1.372 . S
C791 C792 1.400 1_565 S
C791 C796 1.490 . S
C792 H782 0.930 . S
C792 C791 1.400 1_545 S
C792 C795 1.386 . S
H793 C809 0.930 . S
H794 C810 0.931 . S
C795 H783 0.929 . S
C795 C789 1.390 1_545 S
C795 C792 1.386 . S
C796 C791 1.490 . S
C796 C798 1.395 . S
C796 C799 1.403 1_565 S
H797 C803 0.930 . S
C798 H784 0.930 . S
C798 C796 1.395 . S
C798 C801 1.403 . S
C799 C796 1.403 1_545 S
C799 C800 1.524 . S
C799 C803 1.400 . S
C800 H785 0.960 . S
C800 H786 0.960 . S
C800 H787 0.960 . S
C800 C799 1.524 . S
C801 C798 1.403 . S
C801 C802 1.389 1_565 S
C801 C805 1.495 . S
C802 C801 1.389 1_545 S
C802 C803 1.388 . S
C802 C804 1.478 . S
C803 H797 0.930 . S
C803 C799 1.400 . S
C803 C802 1.388 . S
C804 C802 1.478 . S
C804 C806 1.381 1_545 S
C804 C810 1.383 . S
C805 C801 1.495 . S
C805 H811 0.959 . S
C805 H812 0.961 . S
C805 H813 0.960 . S
C806 C804 1.381 1_565 S
C806 C807 1.394 . S
C806 H814 0.930 . S
C807 C806 1.394 . S
C807 C808 1.383 1_565 S
C807 H815 0.929 . S
C808 C807 1.383 1_545 S
C808 C809 1.377 . S
C809 H793 0.930 . S
C809 C808 1.377 . S
C809 C810 1.379 . S
C810 H794 0.931 . S
C810 C804 1.383 . S
C810 C809 1.379 . S
H811 C805 0.959 . S
H812 C805 0.961 . S
H813 C805 0.960 . S
H814 C806 0.930 . S
H815 C807 0.929 . S
H816 C824 0.929 . S
H817 C826 0.930 . S
H818 C828 0.930 . S
H819 C831 0.929 . S
H820 C834 0.930 1_556 S
H821 C836 0.960 . S
H822 C836 0.960 . S
H823 C836 0.960 . S
C824 H816 0.929 . S
C824 C825 1.377 . S
C824 C826 1.384 . S
C825 C824 1.377 . S
C825 C831 1.390 . S
C826 H817 0.930 . S
C826 C824 1.384 . S
C826 C827 1.372 . S
C827 C826 1.372 . S
C827 C828 1.400 . S
C827 C832 1.490 . S
C828 H818 0.930 . S
C828 C827 1.400 . S
C828 C831 1.386 . S
H829 C845 0.930 . S
H830 C846 0.931 . S
C831 H819 0.929 . S
C831 C825 1.390 . S
C831 C828 1.386 . S
C832 C827 1.490 . S
C832 C834 1.395 . S
C832 C835 1.403 . S
H833 C839 0.930 . S
C834 H820 0.930 1_554 S
C834 C832 1.395 . S
C834 C837 1.403 . S
C835 C832 1.403 . S
C835 C836 1.524 . S
C835 C839 1.400 . S
C836 H821 0.960 . S
C836 H822 0.960 . S
C836 H823 0.960 . S
C836 C835 1.524 . S
C837 C834 1.403 . S
C837 C838 1.392 . S
C837 C841 1.495 1_554 S
C838 C837 1.392 . S
C838 C839 1.385 . S
C838 C840 1.478 . S
C839 H833 0.930 . S
C839 C835 1.400 . S
C839 C838 1.385 . S
C840 C838 1.478 . S
C840 C842 1.381 . S
C840 C846 1.383 . S
C841 C837 1.495 1_556 S
C841 H847 0.959 . S
C841 H848 0.961 . S
C841 H849 0.960 . S
C842 C840 1.381 . S
C842 C843 1.394 . S
C842 H850 0.930 . S
C843 C842 1.394 . S
C843 C844 1.383 . S
C843 H851 0.929 . S
C844 C843 1.383 . S
C844 C845 1.377 . S
C845 H829 0.930 . S
C845 C844 1.377 . S
C845 C846 1.379 . S
C846 H830 0.931 . S
C846 C840 1.383 . S
C846 C845 1.379 . S
H847 C841 0.959 . S
H848 C841 0.961 . S
H849 C841 0.960 . S
H850 C842 0.930 . S
H851 C843 0.929 . S
H852 C860 0.929 . S
H853 C862 0.930 . S
H854 C864 0.930 . S
H855 C867 0.929 . S
H856 C870 0.930 . S
H857 C872 0.960 . S
H858 C872 0.960 . S
H859 C872 0.960 . S
C860 H852 0.929 . S
C860 C861 1.377 . S
C860 C862 1.384 . S
C861 C860 1.377 . S
C861 C867 1.390 . S
C862 H853 0.930 . S
C862 C860 1.384 . S
C862 C863 1.372 . S
C863 C862 1.372 . S
C863 C864 1.400 . S
C863 C868 1.490 . S
C864 H854 0.930 . S
C864 C863 1.400 . S
C864 C867 1.386 . S
H865 C881 0.930 . S
H866 C882 0.931 . S
C867 H855 0.929 . S
C867 C861 1.390 . S
C867 C864 1.386 . S
C868 C863 1.490 . S
C868 C870 1.395 1_455 S
C868 C871 1.403 . S
H869 C875 0.930 . S
C870 H856 0.930 . S
C870 C868 1.395 1_655 S
C870 C873 1.403 . S
C871 C868 1.403 . S
C871 C872 1.524 . S
C871 C875 1.400 . S
C872 H857 0.960 . S
C872 H858 0.960 . S
C872 H859 0.960 . S
C872 C871 1.524 . S
C873 C870 1.403 . S
C873 C874 1.392 . S
C873 C877 1.495 . S
C874 C873 1.392 . S
C874 C875 1.385 1_655 S
C874 C876 1.478 . S
C875 H869 0.930 . S
C875 C871 1.400 . S
C875 C874 1.385 1_455 S
C876 C874 1.478 . S
C876 C878 1.381 . S
C876 C882 1.383 . S
C877 C873 1.495 . S
C877 H883 0.959 . S
C877 H884 0.961 . S
C877 H885 0.960 . S
C878 C876 1.381 . S
C878 C879 1.394 . S
C878 H886 0.930 . S
C879 C878 1.394 . S
C879 C880 1.383 . S
C879 H887 0.929 . S
C880 C879 1.383 . S
C880 C881 1.377 . S
C881 H865 0.930 . S
C881 C880 1.377 . S
C881 C882 1.379 . S
C882 H866 0.931 . S
C882 C876 1.383 . S
C882 C881 1.379 . S
H883 C877 0.959 . S
H884 C877 0.961 . S
H885 C877 0.960 . S
H886 C878 0.930 . S
H887 C879 0.929 . S
H888 C896 0.929 . S
H889 C898 0.930 . S
H890 C900 0.930 . S
H891 C903 0.929 . S
H892 C906 0.930 . S
H893 C908 0.960 . S
H894 C908 0.960 . S
H895 C908 0.960 . S
C896 H888 0.929 . S
C896 C897 1.377 . S
C896 C898 1.384 . S
C897 C896 1.377 . S
C897 C903 1.390 . S
C898 H889 0.930 . S
C898 C896 1.384 . S
C898 C899 1.372 . S
C899 C898 1.372 . S
C899 C900 1.400 . S
C899 C904 1.490 . S
C900 H890 0.930 . S
C900 C899 1.400 . S
C900 C903 1.386 . S
H901 C917 0.930 . S
H902 C918 0.931 . S
C903 H891 0.929 . S
C903 C897 1.390 . S
C903 C900 1.386 . S
C904 C899 1.490 . S
C904 C906 1.395 . S
C904 C907 1.403 1_565 S
H905 C911 0.930 . S
C906 H892 0.930 . S
C906 C904 1.395 . S
C906 C909 1.403 . S
C907 C904 1.403 1_545 S
C907 C908 1.524 . S
C907 C911 1.400 . S
C908 H893 0.960 . S
C908 H894 0.960 . S
C908 H895 0.960 . S
C908 C907 1.524 . S
C909 C906 1.403 . S
C909 C910 1.392 1_565 S
C909 C913 1.495 . S
C910 C909 1.392 1_545 S
C910 C911 1.385 . S
C910 C912 1.478 . S
C911 H905 0.930 . S
C911 C907 1.400 . S
C911 C910 1.385 . S
C912 C910 1.478 . S
C912 C914 1.381 . S
C912 C918 1.383 . S
C913 C909 1.495 . S
C913 H919 0.959 . S
C913 H920 0.961 . S
C913 H921 0.960 . S
C914 C912 1.381 . S
C914 C915 1.394 . S
C914 H922 0.930 . S
C915 C914 1.394 . S
C915 C916 1.383 . S
C915 H923 0.929 . S
C916 C915 1.383 . S
C916 C917 1.377 . S
C917 H901 0.930 . S
C917 C916 1.377 . S
C917 C918 1.379 . S
C918 H902 0.931 . S
C918 C912 1.383 . S
C918 C917 1.379 . S
H919 C913 0.959 . S
H920 C913 0.961 . S
H921 C913 0.960 . S
H922 C914 0.930 . S
H923 C915 0.929 . S
H924 C932 0.929 . S
H925 C934 0.930 . S
H926 C936 0.930 . S
H927 C939 0.929 . S
H928 C942 0.930 . S
H929 C944 0.960 . S
H930 C944 0.960 . S
H931 C944 0.960 . S
C932 H924 0.929 . S
C932 C933 1.377 . S
C932 C934 1.384 . S
C933 C932 1.377 . S
C933 C939 1.390 . S
C934 H925 0.930 . S
C934 C932 1.384 . S
C934 C935 1.372 . S
C935 C934 1.372 . S
C935 C936 1.400 . S
C935 C940 1.490 . S
C936 H926 0.930 . S
C936 C935 1.400 . S
C936 C939 1.386 . S
H937 C953 0.930 . S
H938 C954 0.931 . S
C939 H927 0.929 . S
C939 C933 1.390 . S
C939 C936 1.386 . S
C940 C935 1.490 . S
C940 C942 1.395 . S
C940 C943 1.403 . S
H941 C947 0.930 . S
C942 H928 0.930 . S
C942 C940 1.395 . S
C942 C945 1.403 . S
C943 C940 1.403 . S
C943 C944 1.524 . S
C943 C947 1.400 . S
C944 H929 0.960 . S
C944 H930 0.960 . S
C944 H931 0.960 . S
C944 C943 1.524 . S
C945 C942 1.403 . S
C945 C946 1.392 . S
C945 C949 1.495 . S
C946 C945 1.392 . S
C946 C947 1.385 . S
C946 C948 1.478 . S
C947 H941 0.930 . S
C947 C943 1.400 . S
C947 C946 1.385 . S
C948 C946 1.478 . S
C948 C950 1.381 . S
C948 C954 1.383 . S
C949 C945 1.495 . S
C949 H955 0.959 . S
C949 H956 0.961 . S
C949 H957 0.960 . S
C950 C948 1.381 . S
C950 C951 1.394 . S
C950 H958 0.930 . S
C951 C950 1.394 . S
C951 C952 1.383 . S
C951 H959 0.929 . S
C952 C951 1.383 . S
C952 C953 1.377 . S
C953 H937 0.930 . S
C953 C952 1.377 . S
C953 C954 1.379 . S
C954 H938 0.931 . S
C954 C948 1.383 . S
C954 C953 1.379 . S
H955 C949 0.959 . S
H956 C949 0.961 . S
H957 C949 0.960 . S
H958 C950 0.930 . S
H959 C951 0.929 . S
H960 C968 0.929 . S
H961 C970 0.930 . S
H962 C972 0.930 . S
H963 C975 0.929 . S
H964 C978 0.930 . S
H965 C980 0.960 . S
H966 C980 0.960 . S
H967 C980 0.960 . S
C968 H960 0.929 . S
C968 C969 1.377 . S
C968 C970 1.384 . S
C969 C968 1.377 . S
C969 C975 1.390 . S
C970 H961 0.930 . S
C970 C968 1.384 . S
C970 C971 1.372 . S
C971 C970 1.372 . S
C971 C972 1.400 . S
C971 C976 1.490 . S
C972 H962 0.930 . S
C972 C971 1.400 . S
C972 C975 1.386 . S
H973 C989 0.930 . S
H974 C990 0.951 . S
C975 H963 0.929 . S
C975 C969 1.390 . S
C975 C972 1.386 . S
C976 C971 1.490 . S
C976 C978 1.395 . S
C976 C979 1.403 1_655 S
H977 C983 0.930 . S
C978 H964 0.930 . S
C978 C976 1.395 . S
C978 C981 1.403 . S
C979 C976 1.403 1_455 S
C979 C980 1.524 . S
C979 C983 1.400 . S
C980 H965 0.960 . S
C980 H966 0.960 . S
C980 H967 0.960 . S
C980 C979 1.524 . S
C981 C978 1.403 . S
C981 C982 1.392 1_655 S
C981 C985 1.495 1_556 S
C982 C981 1.392 1_455 S
C982 C983 1.385 . S
C982 C984 1.478 . S
C983 H977 0.930 . S
C983 C979 1.400 . S
C983 C982 1.385 . S
C984 C982 1.478 . S
C984 C986 1.381 . S
C984 C990 1.383 . S
C985 C981 1.495 1_554 S
C985 H991 0.959 . S
C985 H992 0.961 1_554 S
C985 H993 0.960 . S
C986 C984 1.381 . S
C986 C987 1.394 . S
C986 H994 0.938 . S
C987 C986 1.394 . S
C987 C988 1.383 . S
C987 H995 0.929 . S
C988 C987 1.383 . S
C988 C989 1.377 . S
C989 H973 0.930 . S
C989 C988 1.377 . S
C989 C990 1.379 . S
C990 H974 0.951 . S
C990 C984 1.383 . S
C990 C989 1.379 . S
H991 C985 0.959 . S
H992 C985 0.961 1_556 S
H993 C985 0.960 . S
H994 C986 0.938 . S
H995 C987 0.929 . S
H996 C1004 0.929 . S
H997 C1006 0.930 . S
H998 C1008 0.930 . S
H999 C1011 0.929 . S
H1000 C1014 0.930 . S
H1001 C1016 0.960 . S
H1002 C1016 0.960 . S
H1003 C1016 0.960 . S
C1004 H996 0.929 . S
C1004 C1005 1.377 . S
C1004 C1006 1.384 . S
C1005 C1004 1.377 . S
C1005 C1011 1.390 . S
C1006 H997 0.930 . S
C1006 C1004 1.384 . S
C1006 C1007 1.372 . S
C1007 C1006 1.372 . S
C1007 C1008 1.400 . S
C1007 C1012 1.490 . S
C1008 H998 0.930 . S
C1008 C1007 1.400 . S
C1008 C1011 1.386 . S
H1009 C1025 0.930 . S
H1010 C1026 0.931 . S
C1011 H999 0.929 . S
C1011 C1005 1.390 . S
C1011 C1008 1.386 . S
C1012 C1007 1.490 . S
C1012 C1014 1.395 1_545 S
C1012 C1015 1.403 . S
H1013 C1019 0.930 . S
C1014 H1000 0.930 . S
C1014 C1012 1.395 1_565 S
C1014 C1017 1.403 . S
C1015 C1012 1.403 . S
C1015 C1016 1.524 . S
C1015 C1019 1.400 . S
C1016 H1001 0.960 . S
C1016 H1002 0.960 . S
C1016 H1003 0.960 . S
C1016 C1015 1.524 . S
C1017 C1014 1.403 . S
C1017 C1018 1.392 . S
C1017 C1021 1.495 . S
C1018 C1017 1.392 . S
C1018 C1019 1.385 1_565 S
C1018 C1020 1.478 . S
C1019 H1013 0.930 . S
C1019 C1015 1.400 . S
C1019 C1018 1.385 1_545 S
C1020 C1018 1.478 . S
C1020 C1022 1.381 . S
C1020 C1026 1.383 . S
C1021 C1017 1.495 . S
C1021 H1027 0.959 . S
C1021 H1028 0.961 . S
C1021 H1029 0.960 . S
C1022 C1020 1.381 . S
C1022 C1023 1.394 . S
C1022 H1030 0.930 . S
C1023 C1022 1.394 . S
C1023 C1024 1.383 . S
C1023 H1031 0.929 . S
C1024 C1023 1.383 . S
C1024 C1025 1.377 . S
C1025 H1009 0.930 . S
C1025 C1024 1.377 . S
C1025 C1026 1.379 . S
C1026 H1010 0.931 . S
C1026 C1020 1.383 . S
C1026 C1025 1.379 . S
H1027 C1021 0.959 . S
H1028 C1021 0.961 . S
H1029 C1021 0.960 . S
H1030 C1022 0.930 . S
H1031 C1023 0.929 . S
C177 C11 1.347 . S
C196 C137 1.356 . S
C213 C25 1.361 . S
C232 C151 1.323 . S
C249 C33 0.877 . S
C268 C159 0.863 . S
C285 C53 1.347 . S
C304 C95 1.358 . S
C321 C109 1.352 . S
C340 C67 1.332 . S
C357 C117 0.875 . S
C376 C75 0.922 . S
C393 C145 1.107 . S
C412 C5 1.136 . S
C429 C19 1.073 . S
C448 C165 1.150 . S
C465 C39 1.166 . S
C484 C89 1.096 . S
C501 C47 1.109 . S
C520 C103 1.154 . S
C537 C61 1.059 . S
C556 C123 1.185 . S
C573 C81 1.171 . S
C592 C131 1.037 . S
C609 C130 0.499 . S
C628 C4 0.537 . S
C645 C18 0.522 . S
C664 C144 0.446 . S
C681 C40 0.350 . S
C700 C166 0.411 . S
C717 C88 0.498 . S
C736 C46 0.554 . S
C753 C60 0.519 . S
C772 C102 0.447 . S
C789 C124 0.347 . S
C808 C82 0.383 . S
C825 C12 1.257 . S
C844 C54 1.258 . S
C861 C68 1.294 . S
C880 C26 1.301 . S
C897 C32 1.226 . S
C916 C74 1.222 . S
C933 C96 1.286 . S
C952 C138 1.297 . S
C969 C110 1.257 . S
C988 C152 1.247 . S
C1005 C158 1.237 . S
C1024 C116 1.256 . S
