# Generated by pormake.
# Topology cag, (4)-cn, num edge types: 1
# Building blocks:
#     Node 0, Type 0, BuildingBlock: QUQFOY_clean_sbu_3, # of connection points: 4
#     Node 1, Type 0, BuildingBlock: QUQFOY_clean_sbu_3, # of connection points: 4
#     Node 2, Type 0, BuildingBlock: QUQFOY_clean_sbu_3, # of connection points: 4
#     Node 3, Type 0, BuildingBlock: QUQFOY_clean_sbu_3, # of connection points: 4
#     Node 4, Type 0, BuildingBlock: QUQFOY_clean_sbu_3, # of connection points: 4
#     Node 5, Type 0, BuildingBlock: QUQFOY_clean_sbu_3, # of connection points: 4
#     Node 6, Type 0, BuildingBlock: QUQFOY_clean_sbu_3, # of connection points: 4
#     Node 7, Type 0, BuildingBlock: QUQFOY_clean_sbu_3, # of connection points: 4
#     Node 8, Type 0, BuildingBlock: QUQFOY_clean_sbu_3, # of connection points: 4
#     Node 9, Type 0, BuildingBlock: QUQFOY_clean_sbu_3, # of connection points: 4
#     Node 10, Type 0, BuildingBlock: QUQFOY_clean_sbu_3, # of connection points: 4
#     Node 11, Type 0, BuildingBlock: QUQFOY_clean_sbu_3, # of connection points: 4
#     Node 12, Type 0, BuildingBlock: QUQFOY_clean_sbu_3, # of connection points: 4
#     Node 13, Type 0, BuildingBlock: QUQFOY_clean_sbu_3, # of connection points: 4
#     Node 14, Type 0, BuildingBlock: QUQFOY_clean_sbu_3, # of connection points: 4
#     Node 15, Type 0, BuildingBlock: QUQFOY_clean_sbu_3, # of connection points: 4
#     Edge 16, Type (0, 0), BuildingBlock: TEMPAE_clean_linker_10, # of connection points: 2
#     Edge 17, Type (0, 0), BuildingBlock: TEMPAE_clean_linker_10, # of connection points: 2
#     Edge 18, Type (0, 0), BuildingBlock: TEMPAE_clean_linker_10, # of connection points: 2
#     Edge 19, Type (0, 0), BuildingBlock: TEMPAE_clean_linker_10, # of connection points: 2
#     Edge 20, Type (0, 0), BuildingBlock: TEMPAE_clean_linker_10, # of connection points: 2
#     Edge 21, Type (0, 0), BuildingBlock: TEMPAE_clean_linker_10, # of connection points: 2
#     Edge 22, Type (0, 0), BuildingBlock: TEMPAE_clean_linker_10, # of connection points: 2
#     Edge 23, Type (0, 0), BuildingBlock: TEMPAE_clean_linker_10, # of connection points: 2
#     Edge 24, Type (0, 0), BuildingBlock: TEMPAE_clean_linker_10, # of connection points: 2
#     Edge 25, Type (0, 0), BuildingBlock: TEMPAE_clean_linker_10, # of connection points: 2
#     Edge 26, Type (0, 0), BuildingBlock: TEMPAE_clean_linker_10, # of connection points: 2
#     Edge 27, Type (0, 0), BuildingBlock: TEMPAE_clean_linker_10, # of connection points: 2
#     Edge 28, Type (0, 0), BuildingBlock: TEMPAE_clean_linker_10, # of connection points: 2
#     Edge 29, Type (0, 0), BuildingBlock: TEMPAE_clean_linker_10, # of connection points: 2
#     Edge 30, Type (0, 0), BuildingBlock: TEMPAE_clean_linker_10, # of connection points: 2
#     Edge 31, Type (0, 0), BuildingBlock: TEMPAE_clean_linker_10, # of connection points: 2
#     Edge 32, Type (0, 0), BuildingBlock: TEMPAE_clean_linker_10, # of connection points: 2
#     Edge 33, Type (0, 0), BuildingBlock: TEMPAE_clean_linker_10, # of connection points: 2
#     Edge 34, Type (0, 0), BuildingBlock: TEMPAE_clean_linker_10, # of connection points: 2
#     Edge 35, Type (0, 0), BuildingBlock: TEMPAE_clean_linker_10, # of connection points: 2
#     Edge 36, Type (0, 0), BuildingBlock: TEMPAE_clean_linker_10, # of connection points: 2
#     Edge 37, Type (0, 0), BuildingBlock: TEMPAE_clean_linker_10, # of connection points: 2
#     Edge 38, Type (0, 0), BuildingBlock: TEMPAE_clean_linker_10, # of connection points: 2
#     Edge 39, Type (0, 0), BuildingBlock: TEMPAE_clean_linker_10, # of connection points: 2
#     Edge 40, Type (0, 0), BuildingBlock: TEMPAE_clean_linker_10, # of connection points: 2
#     Edge 41, Type (0, 0), BuildingBlock: TEMPAE_clean_linker_10, # of connection points: 2
#     Edge 42, Type (0, 0), BuildingBlock: TEMPAE_clean_linker_10, # of connection points: 2
#     Edge 43, Type (0, 0), BuildingBlock: TEMPAE_clean_linker_10, # of connection points: 2
#     Edge 44, Type (0, 0), BuildingBlock: TEMPAE_clean_linker_10, # of connection points: 2
#     Edge 45, Type (0, 0), BuildingBlock: TEMPAE_clean_linker_10, # of connection points: 2
#     Edge 46, Type (0, 0), BuildingBlock: TEMPAE_clean_linker_10, # of connection points: 2
#     Edge 47, Type (0, 0), BuildingBlock: TEMPAE_clean_linker_10, # of connection points: 2
# Relax obj value: 0.111
# Max RMSD: 0.144
# Mean RMSD: 0.144
data_MOF--net-cag--node1-QUQFOY_clean_sbu_3--edge1-TEMPAE_clean_linker_10
_symmetry_space_group_name_H-M    P1
_symmetry_Int_Tables_number       1
_symmetry_cell_setting            triclinic
loop_
_symmetry_equiv_pos_as_xyz
'x, y, z'
_cell_length_a     45.662477
_cell_length_b     51.680071
_cell_length_c     43.394586
_cell_angle_alpha  89.977647
_cell_angle_beta   89.988895
_cell_angle_gamma 89.939317
loop_
_atom_site_label
_atom_site_type_symbol
_atom_site_fract_x
_atom_site_fract_y
_atom_site_fract_z
_atom_type_partial_charge
C0 C 0.3512 0.1324 0.04196 0.0
O1 O 0.34802 0.13603 0.0132 0.0
Cd2 Cd 0.3007 0.13766 -0.01089 0.0
O3 O 0.32894 0.13 0.0594 0.0
Cd4 Cd 0.27486 0.13017 0.05629 0.0
C5 C 0.27603 0.07761 0.00958 0.0
O6 O 0.27066 0.16595 0.02002 0.0
O7 O 0.23036 0.14645 0.03178 0.0
O8 O 0.27729 0.15104 0.10649 0.0
C9 C 0.243 0.1648 0.0177 0.0
O10 O 0.28536 0.09242 0.9883 0.0
C11 C 0.25952 0.13565 0.11953 0.0
O12 O 0.2713 0.08628 0.03655 0.0
O13 O 0.24852 0.11792 0.10291 0.0
C14 C 0.12529 0.84518 0.54287 0.0
O15 O 0.12826 0.8412 0.51415 0.0
Cd16 Cd 0.17538 0.83929 0.48965 0.0
O17 O 0.14766 0.84788 0.56007 0.0
Cd18 Cd 0.20172 0.8479 0.55668 0.0
C19 C 0.20018 0.89966 0.50859 0.0
O20 O 0.20552 0.81161 0.52121 0.0
O21 O 0.24608 0.83088 0.53251 0.0
O22 O 0.19925 0.8278 0.60728 0.0
C23 C 0.23318 0.81252 0.51873 0.0
O24 O 0.19064 0.88452 0.48776 0.0
C25 C 0.21698 0.84337 0.62004 0.0
O26 O 0.20516 0.89142 0.53571 0.0
O27 O 0.22805 0.86086 0.60309 0.0
C28 C 0.34749 0.83672 0.92629 0.0
O29 O 0.34479 0.82684 0.95293 0.0
Cd30 Cd 0.29789 0.82502 0.97784 0.0
O31 O 0.32509 0.84306 0.91052 0.0
Cd32 Cd 0.27097 0.83971 0.91209 0.0
C33 C 0.2726 0.88716 0.96531 0.0
O34 O 0.26714 0.80096 0.94345 0.0
O35 O 0.22665 0.8214 0.93489 0.0
O36 O 0.27491 0.82264 0.86013 0.0
C37 C 0.23957 0.80208 0.94674 0.0
O38 O 0.28344 0.87062 0.9839 0.0
C39 C 0.257 0.83858 0.84824 0.0
O40 O 0.26638 0.88099 0.93772 0.0
O41 O 0.24519 0.85492 0.86627 0.0
C42 C 0.12704 0.14127 0.42501 0.0
O43 O 0.12974 0.15029 0.45207 0.0
Cd44 Cd 0.17661 0.15197 0.47703 0.0
O45 O 0.1495 0.13548 0.40902 0.0
Cd46 Cd 0.20364 0.13846 0.41107 0.0
C47 C 0.20186 0.09009 0.46322 0.0
O48 O 0.20752 0.17667 0.44337 0.0
O49 O 0.24789 0.15611 0.43465 0.0
O50 O 0.20043 0.15642 0.35942 0.0
C51 C 0.23507 0.17535 0.44677 0.0
O52 O 0.19118 0.10637 0.48221 0.0
C53 C 0.21838 0.14057 0.34743 0.0
O54 O 0.20795 0.09667 0.43572 0.0
O55 O 0.22981 0.12387 0.36527 0.0
C56 C 0.55336 0.87451 0.85904 0.0
O57 O 0.55995 0.8906 0.83801 0.0
Cd58 Cd 0.60983 0.90444 0.82829 0.0
O59 O 0.57307 0.86359 0.87516 0.0
Cd60 Cd 0.62668 0.86241 0.87881 0.0
C61 C 0.62776 0.92567 0.89994 0.0
O62 O 0.63853 0.86575 0.82392 0.0
O63 O 0.67499 0.86753 0.85571 0.0
O64 O 0.62655 0.81579 0.88877 0.0
C65 C 0.66599 0.8668 0.82811 0.0
O66 O 0.62449 0.932 0.8718 0.0
C67 C 0.63969 0.81769 0.9145 0.0
O68 O 0.62733 0.90213 0.90836 0.0
O69 O 0.64611 0.84033 0.92359 0.0
C70 C 0.92133 0.10182 0.35904 0.0
O71 O 0.91441 0.08482 0.33921 0.0
Cd72 Cd 0.86449 0.07107 0.32988 0.0
O73 O 0.90193 0.1134 0.37494 0.0
Cd74 Cd 0.84834 0.11402 0.37983 0.0
C75 C 0.84726 0.05083 0.40204 0.0
O76 O 0.83605 0.10987 0.32518 0.0
O77 O 0.79977 0.10888 0.35721 0.0
O78 O 0.84815 0.16074 0.38925 0.0
C79 C 0.80862 0.10902 0.32955 0.0
O80 O 0.85 0.04417 0.37395 0.0
C81 C 0.8354 0.15895 0.41521 0.0
O82 O 0.84804 0.07448 0.41 0.0
O83 O 0.82937 0.13633 0.42469 0.0
C84 C 0.55619 0.1035 0.11858 0.0
O85 O 0.56367 0.08301 0.13279 0.0
Cd86 Cd 0.61382 0.07031 0.14326 0.0
O87 O 0.57549 0.1184 0.10708 0.0
Cd88 Cd 0.62888 0.11737 0.10091 0.0
C89 C 0.63244 0.05624 0.07071 0.0
O90 O 0.64102 0.1089 0.1551 0.0
O91 O 0.67743 0.11217 0.12344 0.0
O92 O 0.63014 0.16458 0.09455 0.0
C93 C 0.66848 0.10969 0.1509 0.0
O94 O 0.63094 0.04704 0.09783 0.0
C95 C 0.64217 0.16357 0.06815 0.0
O96 O 0.62977 0.0804 0.06596 0.0
O97 O 0.64744 0.14125 0.05729 0.0
C98 C 0.9202 0.87193 0.62005 0.0
O99 O 0.91233 0.89226 0.63433 0.0
Cd100 Cd 0.86196 0.9045 0.64449 0.0
O101 O 0.90122 0.85692 0.6082 0.0
Cd102 Cd 0.84791 0.85769 0.60128 0.0
C103 C 0.84419 0.91908 0.57187 0.0
O104 O 0.83491 0.86567 0.65532 0.0
O105 O 0.79899 0.86272 0.62302 0.0
O106 O 0.84675 0.81051 0.59471 0.0
C107 C 0.80752 0.86494 0.65065 0.0
O108 O 0.84498 0.92798 0.59917 0.0
C109 C 0.83511 0.81159 0.56813 0.0
O110 O 0.84741 0.89503 0.56676 0.0
O111 O 0.83008 0.83394 0.55721 0.0
C112 C 0.84671 0.63842 0.04515 0.0
O113 O 0.84169 0.64038 0.01644 0.0
Cd114 Cd 0.79297 0.6444 -0.00491 0.0
O115 O 0.82564 0.63759 0.06431 0.0
Cd116 Cd 0.77181 0.63703 0.06334 0.0
C117 C 0.7689 0.5852 0.01535 0.0
O118 O 0.76612 0.67329 0.02805 0.0
O119 O 0.72623 0.65375 0.04107 0.0
O120 O 0.77565 0.65631 0.11443 0.0
C121 C 0.7384 0.67238 0.02704 0.0
O122 O 0.77311 0.60057 -0.00711 0.0
C123 C 0.75779 0.64076 0.12707 0.0
O124 O 0.77002 0.59312 0.04306 0.0
O125 O 0.74627 0.62367 0.10989 0.0
C126 C 0.62793 0.33794 0.54532 0.0
O127 O 0.63275 0.33571 0.5166 0.0
Cd128 Cd 0.68138 0.33194 0.49492 0.0
O129 O 0.64914 0.33914 0.56428 0.0
Cd130 Cd 0.70295 0.34004 0.56299 0.0
C131 C 0.70492 0.39152 0.51429 0.0
O132 O 0.70872 0.30354 0.5281 0.0
O133 O 0.74856 0.32335 0.5407 0.0
O134 O 0.69936 0.3211 0.61427 0.0
C135 C 0.73643 0.30458 0.52692 0.0
O136 O 0.70063 0.37596 0.49205 0.0
C137 C 0.71704 0.33689 0.62676 0.0
O138 O 0.70421 0.38378 0.5421 0.0
O139 O 0.7284 0.35395 0.60939 0.0
C140 C 0.84795 0.34211 0.9351 0.0
O141 O 0.84345 0.3401 0.9639 0.0
Cd142 Cd 0.79508 0.33675 0.98621 0.0
O143 O 0.82653 0.34321 0.9164 0.0
Cd144 Cd 0.77268 0.34399 0.91826 0.0
C145 C 0.77049 0.39599 0.96588 0.0
O146 O 0.7674 0.30802 0.95398 0.0
O147 O 0.72743 0.32791 0.94187 0.0
O148 O 0.77571 0.32387 0.86761 0.0
C149 C 0.73973 0.30925 0.95576 0.0
O150 O 0.77535 0.38067 0.98826 0.0
C151 C 0.75791 0.33939 0.85477 0.0
O152 O 0.77103 0.38803 0.93816 0.0
O153 O 0.74674 0.35688 0.87165 0.0
C154 C 0.62607 0.63569 0.435 0.0
O155 O 0.63063 0.63737 0.46381 0.0
Cd156 Cd 0.67909 0.64019 0.48601 0.0
O157 O 0.64746 0.63463 0.41625 0.0
Cd158 Cd 0.70129 0.63338 0.41827 0.0
C159 C 0.70297 0.58093 0.46516 0.0
O160 O 0.70724 0.66907 0.45433 0.0
O161 O 0.74676 0.6485 0.4422 0.0
O162 O 0.69882 0.65406 0.36788 0.0
C163 C 0.73488 0.66737 0.45609 0.0
O164 O 0.69844 0.59614 0.48771 0.0
C165 C 0.71642 0.63844 0.35492 0.0
O166 O 0.70235 0.58909 0.43752 0.0
O167 O 0.72719 0.62062 0.37162 0.0
C168 C 0.05423 0.37038 0.86089 0.0
O169 O 0.06113 0.39054 0.84577 0.0
Cd170 Cd 0.11085 0.40374 0.83408 0.0
O171 O 0.07398 0.356 0.87252 0.0
Cd172 Cd 0.12748 0.35807 0.87742 0.0
C173 C 0.12969 0.41961 0.90594 0.0
O174 O 0.1395 0.36583 0.82297 0.0
O175 O 0.17571 0.36509 0.85513 0.0
O176 O 0.13037 0.31095 0.88331 0.0
C177 C 0.16693 0.36627 0.82748 0.0
O178 O 0.12816 0.4281 0.87849 0.0
C179 C 0.14291 0.31196 0.90943 0.0
O180 O 0.12722 0.39558 0.91166 0.0
O181 O 0.14754 0.33429 0.92058 0.0
C182 C 0.41997 0.60684 0.36081 0.0
O183 O 0.41328 0.58672 0.34553 0.0
Cd184 Cd 0.36365 0.57314 0.33402 0.0
O185 O 0.40008 0.62095 0.37264 0.0
Cd186 Cd 0.34661 0.61853 0.37768 0.0
C187 C 0.34512 0.55685 0.40591 0.0
O188 O 0.3346 0.61089 0.32322 0.0
O189 O 0.29839 0.61143 0.35541 0.0
O190 O 0.34371 0.66561 0.38376 0.0
C191 C 0.30717 0.6103 0.32776 0.0
O192 O 0.34677 0.54848 0.37842 0.0
C193 C 0.33118 0.66452 0.40989 0.0
O194 O 0.34725 0.58088 0.41173 0.0
O195 O 0.32649 0.64217 0.42094 0.0
C196 C 0.05274 0.60484 0.1172 0.0
O197 O 0.0589 0.58502 0.13331 0.0
Cd198 Cd 0.10827 0.57103 0.14583 0.0
O199 O 0.073 0.61819 0.10489 0.0
Cd200 Cd 0.12632 0.61447 0.10002 0.0
C201 C 0.12722 0.55169 0.07529 0.0
O202 O 0.13792 0.60873 0.15493 0.0
O203 O 0.17434 0.60797 0.12301 0.0
O204 O 0.13018 0.66114 0.09091 0.0
C205 C 0.16538 0.6078 0.15063 0.0
O206 O 0.12523 0.54432 0.10316 0.0
C207 C 0.14237 0.65865 0.06473 0.0
O208 O 0.12545 0.57552 0.06824 0.0
O209 O 0.14655 0.63575 0.05513 0.0
C210 C 0.42224 0.37169 0.61812 0.0
O211 O 0.41603 0.39162 0.63399 0.0
Cd212 Cd 0.36661 0.40566 0.6462 0.0
O213 O 0.40203 0.35828 0.60584 0.0
Cd214 Cd 0.34877 0.36215 0.60061 0.0
C215 C 0.34801 0.42483 0.57553 0.0
O216 O 0.33683 0.36806 0.65542 0.0
O217 O 0.30062 0.36878 0.62324 0.0
O218 O 0.34476 0.31546 0.59172 0.0
C219 C 0.3094 0.369 0.65091 0.0
O220 O 0.34981 0.43228 0.60337 0.0
C221 C 0.3328 0.31793 0.56543 0.0
O222 O 0.34988 0.40099 0.5686 0.0
O223 O 0.32882 0.34082 0.55568 0.0
C224 C 0.24102 0.20256 0.98191 0.0
C225 C 0.22628 0.18435 0.00013 0.0
C226 C 0.22561 0.22196 0.96618 0.0
C227 C 0.19476 0.22331 0.96898 0.0
C228 C 0.17968 0.20466 0.98681 0.0
C229 C 0.19563 0.1853 0.0021 0.0
C230 C 0.24244 0.24138 0.94713 0.0
C231 C 0.14681 0.20562 -0.00953 0.0
C232 C 0.16302 0.29013 0.95606 0.0
C233 C 0.15326 0.28848 0.9255 0.0
C234 C 0.17552 0.26871 0.97087 0.0
C235 C 0.17862 0.24515 0.9546 0.0
C236 C 0.16791 0.24307 0.92408 0.0
C237 C 0.15519 0.26478 0.90991 0.0
C238 C 0.18633 0.27158 0.00359 0.0
C239 C 0.17099 0.21827 0.90598 0.0
H240 H 0.26468 0.20179 0.98013 0.0
H241 H 0.18413 0.17126 0.01615 0.0
H242 H 0.23352 0.24213 0.92337 0.0
H243 H 0.2399 0.26098 0.95723 0.0
H244 H 0.26617 0.23674 0.94587 0.0
H245 H 0.13825 0.18884 0.0037 0.0
H246 H 0.14046 0.22366 0.00262 0.0
H247 H 0.13606 0.206 0.96755 0.0
H248 H 0.16137 0.30836 0.9683 0.0
H249 H 0.14771 0.26342 0.88626 0.0
H250 H 0.21053 0.26962 0.00413 0.0
H251 H 0.17716 0.25602 0.01831 0.0
H252 H 0.18033 0.2906 0.01374 0.0
H253 H 0.19452 0.2142 0.90183 0.0
H254 H 0.15961 0.21923 0.88338 0.0
H255 H 0.16203 0.20176 0.91931 0.0
C256 C 0.31125 0.68625 0.45667 0.0
C257 C 0.321 0.68799 0.42611 0.0
C258 C 0.29905 0.70771 0.47165 0.0
C259 C 0.29624 0.7314 0.45555 0.0
C260 C 0.30691 0.73353 0.42502 0.0
C261 C 0.31933 0.71179 0.41068 0.0
C262 C 0.28826 0.70478 0.50438 0.0
C263 C 0.30413 0.75846 0.4071 0.0
C264 C 0.23454 0.77467 0.48311 0.0
C265 C 0.24958 0.7927 0.50127 0.0
C266 C 0.24961 0.75507 0.46737 0.0
C267 C 0.28045 0.75335 0.47012 0.0
C268 C 0.29584 0.77178 0.48795 0.0
C269 C 0.28021 0.79135 0.50323 0.0
C270 C 0.23247 0.73589 0.44832 0.0
C271 C 0.32869 0.7704 0.49157 0.0
H272 H 0.31269 0.66794 0.46878 0.0
H273 H 0.32681 0.71321 0.38703 0.0
H274 H 0.29768 0.72016 0.51919 0.0
H275 H 0.2641 0.707 0.505 0.0
H276 H 0.29402 0.68565 0.51438 0.0
H277 H 0.31536 0.75748 0.38442 0.0
H278 H 0.28063 0.76285 0.40314 0.0
H279 H 0.31343 0.77479 0.42047 0.0
H280 H 0.21089 0.77573 0.48133 0.0
H281 H 0.29194 0.80525 0.51725 0.0
H282 H 0.23479 0.71623 0.45833 0.0
H283 H 0.24129 0.73514 0.42452 0.0
H284 H 0.20879 0.74077 0.44719 0.0
H285 H 0.33477 0.75219 0.50353 0.0
H286 H 0.33751 0.78698 0.50496 0.0
H287 H 0.33942 0.77007 0.46864 0.0
C288 C 0.19279 0.78115 0.96326 0.0
C289 C 0.22346 0.78221 0.96435 0.0
C290 C 0.17734 0.76203 0.97948 0.0
C291 C 0.19298 0.74381 -0.00256 0.0
C292 C 0.22391 0.74508 -0.00097 0.0
C293 C 0.23879 0.76418 0.9823 0.0
C294 C 0.14438 0.76104 0.97698 0.0
C295 C 0.24132 0.72613 0.01821 0.0
C296 C 0.15531 0.70552 0.06067 0.0
C297 C 0.15261 0.68116 0.04677 0.0
C298 C 0.16771 0.72638 0.04459 0.0
C299 C 0.17724 0.72279 0.01384 0.0
C300 C 0.17338 0.69853 -0.0007 0.0
C301 C 0.16128 0.67796 0.01602 0.0
C302 C 0.1717 0.75194 0.0609 0.0
C303 C 0.18289 0.69407 0.96638 0.0
H304 H 0.18085 0.79504 0.94936 0.0
H305 H 0.26249 0.76504 0.98339 0.0
H306 H 0.13759 0.74233 0.9667 0.0
H307 H 0.13436 0.76216 0.00023 0.0
H308 H 0.13546 0.77701 0.96262 0.0
H309 H 0.26515 0.73043 0.01797 0.0
H310 H 0.23353 0.72648 0.04243 0.0
H311 H 0.23799 0.7062 0.0094 0.0
H312 H 0.14867 0.70807 0.08446 0.0
H313 H 0.15901 0.6592 0.00509 0.0
H314 H 0.16213 0.76788 0.04704 0.0
H315 H 0.19542 0.75607 0.06351 0.0
H316 H 0.16143 0.75207 0.08411 0.0
H317 H 0.17336 0.70908 0.95108 0.0
H318 H 0.17626 0.67471 0.95772 0.0
H319 H 0.20706 0.69567 0.96469 0.0
C320 C 0.3142 0.29858 0.51665 0.0
C321 C 0.32256 0.29542 0.54751 0.0
C322 C 0.30204 0.27804 0.49994 0.0
C323 C 0.2978 0.25387 0.5146 0.0
C324 C 0.30703 0.2503 0.54546 0.0
C325 C 0.3195 0.27113 0.56153 0.0
C326 C 0.29286 0.28247 0.46692 0.0
C327 C 0.30264 0.22484 0.56188 0.0
C328 C 0.23602 0.21306 0.48257 0.0
C329 C 0.25127 0.19493 0.4647 0.0
C330 C 0.25099 0.23197 0.49948 0.0
C331 C 0.28195 0.23294 0.49818 0.0
C332 C 0.29751 0.21458 0.48037 0.0
C333 C 0.28197 0.19566 0.46394 0.0
C334 C 0.23366 0.2511 0.51849 0.0
C335 C 0.33051 0.21522 0.4782 0.0
H336 H 0.31675 0.31727 0.50564 0.0
H337 H 0.3259 0.26862 0.5854 0.0
H338 H 0.30235 0.26732 0.45179 0.0
H339 H 0.26868 0.28106 0.46503 0.0
H340 H 0.29976 0.30173 0.45821 0.0
H341 H 0.3128 0.22469 0.58514 0.0
H342 H 0.27886 0.22095 0.56438 0.0
H343 H 0.31208 0.20876 0.54815 0.0
H344 H 0.2123 0.21247 0.4834 0.0
H345 H 0.29385 0.18169 0.45012 0.0
H346 H 0.23724 0.27098 0.50962 0.0
H347 H 0.24129 0.25074 0.54276 0.0
H348 H 0.20978 0.24699 0.51811 0.0
H349 H 0.33763 0.2338 0.46781 0.0
H350 H 0.33936 0.19908 0.46408 0.0
H351 H 0.3403 0.21415 0.50156 0.0
C352 C 0.69082 0.69366 0.0137 0.0
C353 C 0.72127 0.69194 0.00997 0.0
C354 C 0.67459 0.71289 -0.00154 0.0
C355 C 0.68919 0.73055 0.97883 0.0
C356 C 0.71982 0.72847 0.97442 0.0
C357 C 0.73551 0.70928 -0.00981 0.0
C358 C 0.642 0.71471 0.0039 0.0
C359 C 0.73614 0.74678 0.9534 0.0
C360 C 0.64901 0.77012 0.91851 0.0
C361 C 0.64889 0.79468 0.93224 0.0
C362 C 0.66104 0.74871 0.93391 0.0
C363 C 0.67289 0.75198 0.9638 0.0
C364 C 0.67136 0.77644 0.97838 0.0
C365 C 0.65953 0.79753 0.96234 0.0
C366 C 0.66243 0.72295 0.91759 0.0
C367 C 0.68339 0.7806 0.01042 0.0
H368 H 0.67972 0.68031 0.02901 0.0
H369 H 0.75901 0.70791 0.98705 0.0
H370 H 0.63669 0.73345 0.01505 0.0
H371 H 0.63009 0.71416 0.98164 0.0
H372 H 0.63376 0.6988 0.01878 0.0
H373 H 0.75972 0.74176 0.95134 0.0
H374 H 0.72623 0.74658 0.93006 0.0
H375 H 0.73433 0.76684 0.96232 0.0
H376 H 0.6408 0.76782 0.89523 0.0
H377 H 0.65924 0.81643 0.97316 0.0
H378 H 0.65379 0.70736 0.93263 0.0
H379 H 0.68558 0.71813 0.91234 0.0
H380 H 0.64985 0.72301 0.89568 0.0
H381 H 0.67462 0.76581 0.02647 0.0
H382 H 0.67799 0.8001 0.01958 0.0
H383 H 0.70757 0.77843 0.01007 0.0
C384 C 0.81582 0.17934 0.46304 0.0
C385 C 0.82619 0.18204 0.4328 0.0
C386 C 0.80395 0.20048 0.47896 0.0
C387 C 0.80211 0.22482 0.46414 0.0
C388 C 0.81369 0.22794 0.4341 0.0
C389 C 0.82576 0.2065 0.41881 0.0
C390 C 0.7922 0.19646 0.51115 0.0
C391 C 0.81197 0.25358 0.41751 0.0
C392 C 0.73935 0.26737 0.49053 0.0
C393 C 0.75359 0.28496 0.50997 0.0
C394 C 0.75506 0.24813 0.47489 0.0
C395 C 0.78574 0.24626 0.47907 0.0
C396 C 0.80034 0.26416 0.49836 0.0
C397 C 0.78408 0.28343 0.51349 0.0
C398 C 0.73874 0.22955 0.45424 0.0
C399 C 0.83299 0.26258 0.50356 0.0
H400 H 0.81635 0.16052 0.47407 0.0
H401 H 0.83375 0.20868 0.39543 0.0
H402 H 0.80097 0.21144 0.52696 0.0
H403 H 0.76801 0.19848 0.511 0.0
H404 H 0.79784 0.17707 0.52048 0.0
H405 H 0.82438 0.25344 0.39548 0.0
H406 H 0.78874 0.25823 0.41242 0.0
H407 H 0.82061 0.26932 0.4323 0.0
H408 H 0.71581 0.26858 0.48756 0.0
H409 H 0.79519 0.29698 0.52853 0.0
H410 H 0.74079 0.20958 0.46338 0.0
H411 H 0.74845 0.22965 0.4308 0.0
H412 H 0.7151 0.2344 0.45235 0.0
H413 H 0.83852 0.24395 0.51486 0.0
H414 H 0.8412 0.27864 0.51819 0.0
H415 H 0.84473 0.26304 0.48119 0.0
C416 C 0.69215 0.2894 0.97189 0.0
C417 C 0.72282 0.29003 0.9736 0.0
C418 C 0.67608 0.27044 0.98772 0.0
C419 C 0.69108 0.25187 0.00579 0.0
C420 C 0.72197 0.2529 0.00826 0.0
C421 C 0.73746 0.2719 -0.00797 0.0
C422 C 0.64317 0.26981 0.98443 0.0
C423 C 0.73874 0.23353 0.02749 0.0
C424 C 0.65298 0.21101 0.06638 0.0
C425 C 0.65124 0.18707 0.05131 0.0
C426 C 0.66486 0.2327 0.05143 0.0
C427 C 0.67491 0.23033 0.02069 0.0
C428 C 0.67174 0.20655 0.0049 0.0
C429 C 0.66008 0.18517 0.02046 0.0
C430 C 0.66798 0.25775 0.06901 0.0
C431 C 0.68187 0.20335 0.97197 0.0
H432 H 0.68072 0.3034 0.95768 0.0
H433 H 0.76115 0.27241 -0.00637 0.0
H434 H 0.63651 0.25176 0.97251 0.0
H435 H 0.63263 0.26969 0.00746 0.0
H436 H 0.63469 0.28659 0.97112 0.0
H437 H 0.76254 0.23791 0.0284 0.0
H438 H 0.73005 0.2332 0.05137 0.0
H439 H 0.73587 0.21383 0.01779 0.0
H440 H 0.64615 0.21255 0.09023 0.0
H441 H 0.65851 0.16676 0.00861 0.0
H442 H 0.65917 0.27413 0.05533 0.0
H443 H 0.69153 0.26171 0.07317 0.0
H444 H 0.65653 0.25716 0.09158 0.0
H445 H 0.67263 0.21891 0.95727 0.0
H446 H 0.67544 0.18433 0.96215 0.0
H447 H 0.70607 0.205 0.97091 0.0
C448 C 0.8236 0.76429 0.56643 0.0
C449 C 0.82599 0.78814 0.55125 0.0
C450 C 0.81137 0.74275 0.5515 0.0
C451 C 0.80165 0.74518 0.52065 0.0
C452 C 0.80557 0.76882 0.50472 0.0
C453 C 0.81756 0.79005 0.52027 0.0
C454 C 0.80746 0.71786 0.56923 0.0
C455 C 0.79584 0.77207 0.47167 0.0
C456 C 0.78294 0.68625 0.47227 0.0
C457 C 0.75225 0.68631 0.47383 0.0
C458 C 0.79948 0.70493 0.48801 0.0
C459 C 0.78493 0.72395 0.50581 0.0
C460 C 0.75401 0.72364 0.50812 0.0
C461 C 0.73804 0.70489 0.492 0.0
C462 C 0.83241 0.70478 0.48491 0.0
C463 C 0.7377 0.7435 0.52707 0.0
H464 H 0.8301 0.76273 0.59038 0.0
H465 H 0.81965 0.80839 0.50833 0.0
H466 H 0.78379 0.71448 0.57338 0.0
H467 H 0.8158 0.70121 0.55568 0.0
H468 H 0.81889 0.71826 0.59182 0.0
H469 H 0.80297 0.79085 0.46174 0.0
H470 H 0.80468 0.75619 0.4572 0.0
H471 H 0.77159 0.77103 0.47042 0.0
H472 H 0.79403 0.6719 0.45827 0.0
H473 H 0.71434 0.70492 0.49347 0.0
H474 H 0.84282 0.70479 0.508 0.0
H475 H 0.83967 0.72259 0.47287 0.0
H476 H 0.84047 0.68773 0.47181 0.0
H477 H 0.74623 0.74374 0.55101 0.0
H478 H 0.71377 0.73971 0.52784 0.0
H479 H 0.74125 0.76307 0.51723 0.0
C480 C 0.28783 0.03794 0.97936 0.0
C481 C 0.2722 0.04972 0.00335 0.0
C482 C 0.28614 0.01119 0.97442 0.0
C483 C 0.26783 -0.00403 -0.00649 0.0
C484 C 0.25132 0.00785 0.01721 0.0
C485 C 0.25397 0.03459 0.0221 0.0
C486 C 0.30449 -0.00085 0.94924 0.0
C487 C 0.23106 -0.00771 0.03752 0.0
C488 C 0.2489 0.93044 0.95994 0.0
C489 C 0.26898 0.91432 0.97508 0.0
C490 C 0.24722 0.9569 0.96687 0.0
C491 C 0.26661 0.96753 -0.0111 0.0
C492 C 0.28634 0.95121 0.00493 0.0
C493 C 0.28704 0.92469 -0.00193 0.0
C494 C 0.2254 0.97361 0.94987 0.0
C495 C 0.30771 0.96193 0.0282 0.0
H496 H 0.30214 0.04953 0.96497 0.0
H497 H 0.24172 0.04367 0.04057 0.0
H498 H 0.31953 0.98452 0.95929 0.0
H499 H 0.29021 -0.01104 0.93252 0.0
H500 H 0.31773 0.0137 0.93656 0.0
H501 H 0.21858 0.00467 0.05383 0.0
H502 H 0.2153 0.98129 0.02314 0.0
H503 H 0.24386 0.97796 0.05099 0.0
H504 H 0.23471 0.92242 0.94234 0.0
H505 H 0.30272 0.91231 0.00969 0.0
H506 H 0.23716 0.98703 0.93424 0.0
H507 H 0.21273 0.98559 0.96638 0.0
H508 H 0.20985 0.96195 0.93593 0.0
H509 H 0.3232 0.97525 0.01651 0.0
H510 H 0.32052 0.94647 0.03982 0.0
H511 H 0.29597 0.97332 0.04599 0.0
C512 C 0.22233 0.94288 0.51981 0.0
C513 C 0.20386 0.92745 0.50169 0.0
C514 C 0.22474 0.96957 0.51442 0.0
C515 C 0.20772 0.98111 0.49087 0.0
C516 C 0.18925 0.96558 0.47234 0.0
C517 C 0.18781 0.93888 0.47775 0.0
C518 C 0.2452 0.98545 0.53412 0.0
C519 C 0.17037 0.97726 0.44735 0.0
C520 C 0.18787 0.05224 0.49571 0.0
C521 C 0.20554 0.0628 0.4725 0.0
C522 C 0.18884 0.0257 0.50244 0.0
C523 C 0.20844 0.00954 0.48603 0.0
C524 C 0.22736 0.02033 0.46363 0.0
C525 C 0.22542 0.04682 0.45685 0.0
C526 C 0.16795 0.0148 0.52609 0.0
C527 C 0.24903 0.0038 0.4462 0.0
H528 H 0.23492 0.93407 0.53822 0.0
H529 H 0.17333 0.92707 0.46385 0.0
H530 H 0.26044 -0.00339 0.51929 0.0
H531 H 0.23246 -0.00035 0.54784 0.0
H532 H 0.25824 0.97329 0.55017 0.0
H533 H 0.15723 0.96248 0.43497 0.0
H534 H 0.1552 -0.00829 0.45754 0.0
H535 H 0.18423 0.98759 0.43035 0.0
H536 H 0.17235 0.06451 0.50772 0.0
H537 H 0.2393 0.05498 0.43907 0.0
H538 H 0.18015 0.00374 0.54385 0.0
H539 H 0.15262 0.00114 0.51476 0.0
H540 H 0.15495 0.03013 0.53772 0.0
H541 H 0.26225 -0.00794 0.46249 0.0
H542 H 0.26408 0.01556 0.43177 0.0
H543 H 0.23713 -0.00987 0.431 0.0
C544 C 0.61178 0.94489 0.94934 0.0
C545 C 0.63024 0.94581 0.92364 0.0
C546 C 0.61345 0.9638 0.97237 0.0
C547 C 0.63494 0.98345 0.97018 0.0
C548 C 0.65404 0.98415 0.94445 0.0
C549 C 0.65104 0.96554 0.92106 0.0
C550 C 0.59199 0.96289 -0.00114 0.0
C551 C 0.67787 0.00426 0.94191 0.0
C552 C 0.62089 0.04433 0.01655 0.0
C553 C 0.63535 0.03861 0.0442 0.0
C554 C 0.62108 0.02676 -0.00805 0.0
C555 C 0.63695 0.00334 -0.00523 0.0
C556 C 0.65283 -0.00192 0.02211 0.0
C557 C 0.65138 0.01559 0.04678 0.0
C558 C 0.60309 0.03268 0.96359 0.0
C559 C 0.67078 0.9737 0.02557 0.0
H560 H 0.59558 0.92962 0.95107 0.0
H561 H 0.66544 0.96597 0.90119 0.0
H562 H 0.60388 0.96007 0.02088 0.0
H563 H 0.58005 0.98156 0.00053 0.0
H564 H 0.57574 0.94705 -0.00371 0.0
H565 H 0.69154 0.00158 0.92097 0.0
H566 H 0.66812 0.02391 0.94128 0.0
H567 H 0.69224 0.00334 0.9625 0.0
H568 H 0.60829 0.06206 0.01465 0.0
H569 H 0.66279 0.01131 0.0681 0.0
H570 H 0.58543 0.01808 0.96119 0.0
H571 H 0.61687 0.03146 0.94261 0.0
H572 H 0.59293 0.05221 0.96455 0.0
H573 H 0.65605 0.95668 0.02674 0.0
H574 H 0.68452 0.97398 0.04668 0.0
H575 H 0.68521 0.97104 0.00523 0.0
C576 C 0.82608 0.0097 0.42232 0.0
C577 C 0.84476 0.03092 0.42609 0.0
C578 C 0.82343 -0.00905 0.4456 0.0
C579 C 0.84081 -0.00695 0.47253 0.0
C580 C 0.86007 0.0143 0.47608 0.0
C581 C 0.86136 0.03325 0.45305 0.0
C582 C 0.8019 0.96907 0.44155 0.0
C583 C 0.87973 0.01677 0.50392 0.0
C584 C 0.82323 0.95875 0.54758 0.0
C585 C 0.84143 0.93699 0.54565 0.0
C586 C 0.82159 0.97649 0.52314 0.0
C587 C 0.8395 0.97285 0.49684 0.0
C588 C 0.85773 0.95075 0.49475 0.0
C589 C 0.85805 0.93281 0.51899 0.0
C590 C 0.80112 -0.00065 0.52571 0.0
C591 C 0.87792 0.94664 0.4676 0.0
H592 H 0.8131 0.00811 0.40149 0.0
H593 H 0.87599 0.04962 0.45573 0.0
H594 H 0.81367 0.9503 0.44101 0.0
H595 H 0.78662 0.96846 0.46144 0.0
H596 H 0.78892 0.97099 0.42002 0.0
H597 H 0.89426 0.03396 0.50254 0.0
H598 H 0.86634 0.0183 0.52516 0.0
H599 H 0.89357 -0.0008 0.50621 0.0
H600 H 0.81019 0.9618 0.56815 0.0
H601 H 0.87231 0.91606 0.51767 0.0
H602 H 0.78757 0.00106 0.50457 0.0
H603 H 0.81398 0.01745 0.52784 0.0
H604 H 0.78635 -0.0022 0.54597 0.0
H605 H 0.86528 0.94674 0.44579 0.0
H606 H 0.8902 0.92812 0.46919 0.0
H607 H 0.8939 0.96277 0.46631 0.0
C608 C 0.78185 0.4419 0.95455 0.0
C609 C 0.76641 0.42371 0.97203 0.0
C610 C 0.78044 0.46831 0.96171 0.0
C611 C 0.76218 0.4767 0.98613 0.0
C612 C 0.74545 0.45843 0.00293 0.0
C613 C 0.7483 0.432 -0.00389 0.0
C614 C 0.79945 0.48705 0.94401 0.0
C615 C 0.7249 0.46677 0.02831 0.0
C616 C 0.7823 0.53957 0.02564 0.0
C617 C 0.76531 0.55743 0.00928 0.0
C618 C 0.78137 0.51316 0.01843 0.0
C619 C 0.76203 0.5044 -0.00484 0.0
C620 C 0.74381 0.52231 0.97953 0.0
C621 C 0.74618 0.54879 0.9863 0.0
C622 C 0.80194 0.49484 0.03481 0.0
C623 C 0.72211 0.51354 0.95547 0.0
H624 H 0.79608 0.43533 0.93612 0.0
H625 H 0.73624 0.41781 0.00944 0.0
H626 H 0.78576 0.50226 0.93317 0.0
H627 H 0.81476 0.49687 0.96006 0.0
H628 H 0.81245 0.47733 0.92572 0.0
H629 H 0.71121 0.45052 0.03685 0.0
H630 H 0.73763 0.47464 0.04794 0.0
H631 H 0.71028 0.48246 0.01999 0.0
H632 H 0.79731 0.54643 0.0432 0.0
H633 H 0.73295 0.56273 0.97383 0.0
H634 H 0.81653 0.48532 0.01777 0.0
H635 H 0.78937 0.47936 0.04654 0.0
H636 H 0.81573 0.50484 0.0522 0.0
H637 H 0.73393 0.50592 0.93507 0.0
H638 H 0.70751 0.52951 0.94782 0.0
H639 H 0.70843 0.49757 0.96469 0.0
C640 C 0.72674 0.42791 0.48438 0.0
C641 C 0.70818 0.41928 0.50789 0.0
C642 C 0.72891 0.45438 0.47746 0.0
C643 C 0.71106 0.4723 0.49353 0.0
C644 C 0.69223 0.46355 0.51727 0.0
C645 C 0.69149 0.43715 0.5246 0.0
C646 C 0.75007 0.46314 0.45285 0.0
C647 C 0.67205 0.48189 0.53415 0.0
C648 C 0.72539 0.5446 0.49464 0.0
C649 C 0.70687 0.55315 0.47105 0.0
C650 C 0.72815 0.51812 0.50121 0.0
C651 C 0.71093 0.50005 0.48468 0.0
C652 C 0.69223 0.5087 0.46076 0.0
C653 C 0.6909 0.53516 0.45381 0.0
C654 C 0.74916 0.5095 0.52605 0.0
C655 C 0.67269 0.49019 0.44339 0.0
H656 H 0.73973 0.41397 0.47164 0.0
H657 H 0.67691 0.43031 0.54256 0.0
H658 H 0.73781 0.47102 0.43288 0.0
H659 H 0.76414 0.47893 0.46183 0.0
H660 H 0.7643 0.44712 0.44463 0.0
H661 H 0.65848 0.47186 0.55173 0.0
H662 H 0.68492 0.49723 0.54575 0.0
H663 H 0.65724 0.49158 0.51746 0.0
H664 H 0.73786 0.55863 0.50777 0.0
H665 H 0.67636 0.54194 0.43576 0.0
H666 H 0.76349 0.49379 0.51727 0.0
H667 H 0.73677 0.50159 0.54591 0.0
H668 H 0.76313 0.52562 0.53439 0.0
H669 H 0.68601 0.47491 0.43219 0.0
H670 H 0.65944 0.50008 0.42544 0.0
H671 H 0.6576 0.48042 0.45973 0.0
C672 C 0.14854 0.51092 0.0542 0.0
C673 C 0.13011 0.53238 0.0506 0.0
C674 C 0.15109 0.49236 0.03073 0.0
C675 C 0.13385 0.49489 0.00376 0.0
C676 C 0.11503 0.51648 0.00023 0.0
C677 C 0.11384 0.53525 0.02349 0.0
C678 C 0.17217 0.4701 0.03477 0.0
C679 C 0.09554 0.51941 0.97232 0.0
C680 C 0.15091 0.45948 0.92929 0.0
C681 C 0.13242 0.43798 0.93165 0.0
C682 C 0.15269 0.47757 0.95333 0.0
C683 C 0.13459 0.47456 0.9796 0.0
C684 C 0.11594 0.45279 0.98204 0.0
C685 C 0.11552 0.43447 0.95824 0.0
C686 C 0.17361 0.50004 0.95045 0.0
C687 C 0.09556 0.44937 0.00916 0.0
H688 H 0.16127 0.5089 0.07515 0.0
H689 H 0.09941 0.55179 0.02092 0.0
H690 H 0.15995 0.4516 0.03589 0.0
H691 H 0.1871 0.46891 0.01463 0.0
H692 H 0.18554 0.47201 0.05603 0.0
H693 H 0.0817 0.53707 0.97347 0.0
H694 H 0.109 0.52032 0.95108 0.0
H695 H 0.08102 0.50229 0.97021 0.0
H696 H 0.16412 0.462 0.90875 0.0
H697 H 0.10103 0.41791 0.95984 0.0
H698 H 0.18733 0.50156 0.97148 0.0
H699 H 0.16114 0.51838 0.94831 0.0
H700 H 0.18821 0.49814 0.93009 0.0
H701 H 0.10819 0.44904 0.03097 0.0
H702 H 0.08255 0.43127 0.00758 0.0
H703 H 0.08023 0.46602 0.01044 0.0
C704 C 0.35936 0.54199 0.4582 0.0
C705 C 0.34259 0.53837 0.43155 0.0
C706 C 0.35907 0.52363 0.48197 0.0
C707 C 0.34067 0.5017 0.47946 0.0
C708 C 0.32274 0.49854 0.4531 0.0
C709 C 0.32439 0.51669 0.42909 0.0
C710 C 0.37929 0.52721 0.50919 0.0
C711 C 0.30208 0.47589 0.45013 0.0
C712 C 0.36165 0.44125 0.52375 0.0
C713 C 0.34517 0.44408 0.55074 0.0
C714 C 0.36046 0.45995 0.50041 0.0
C715 C 0.34143 0.48143 0.5037 0.0
C716 C 0.32399 0.4839 0.53054 0.0
C717 C 0.32654 0.46542 0.55411 0.0
C718 C 0.38017 0.45709 0.47265 0.0
C719 C 0.30268 0.50603 0.53432 0.0
H720 H 0.37364 0.55868 0.45988 0.0
H721 H 0.31127 0.51407 0.4085 0.0
H722 H 0.36653 0.52754 0.53093 0.0
H723 H 0.39471 0.51064 0.51064 0.0
H724 H 0.39219 0.54537 0.50761 0.0
H725 H 0.28764 0.47761 0.42962 0.0
H726 H 0.31476 0.45765 0.44821 0.0
H727 H 0.28819 0.47432 0.47104 0.0
H728 H 0.37624 0.42479 0.52137 0.0
H729 H 0.31364 0.4674 0.57496 0.0
H730 H 0.39457 0.4743 0.4706 0.0
H731 H 0.36687 0.45606 0.45131 0.0
H732 H 0.39414 0.43951 0.47397 0.0
H733 H 0.31474 0.52462 0.53546 0.0
H734 H 0.28918 0.50408 0.5555 0.0
H735 H 0.28788 0.50707 0.51407 0.0
C736 C 0.51602 0.13414 0.10457 0.0
C737 C 0.52491 0.10908 0.11279 0.0
C738 C 0.48709 0.13919 0.09552 0.0
C739 C 0.46676 0.11858 0.09408 0.0
C740 C 0.47533 0.09342 0.10339 0.0
C741 C 0.50427 0.08902 0.11293 0.0
C742 C 0.47859 0.16638 0.08643 0.0
C743 C 0.45435 0.07089 0.10179 0.0
C744 C 0.38528 0.1323 0.08712 0.0
C745 C 0.38092 0.12996 0.05523 0.0
C746 C 0.4132 0.12909 0.1001 0.0
C747 C 0.43718 0.12295 0.08077 0.0
C748 C 0.43293 0.12068 0.04856 0.0
C749 C 0.4049 0.12443 0.03615 0.0
C750 C 0.41703 0.13215 0.13447 0.0
C751 C 0.45792 0.11383 0.02724 0.0
H752 H 0.53184 0.14976 0.10468 0.0
H753 H 0.51106 0.06959 0.1191 0.0
H754 H 0.47407 0.16713 0.06132 0.0
H755 H 0.45822 0.17229 0.09849 0.0
H756 H 0.49606 0.18063 0.09179 0.0
H757 H 0.46389 0.05289 0.11157 0.0
H758 H 0.43387 0.07547 0.11441 0.0
H759 H 0.44829 0.06721 0.07742 0.0
H760 H 0.36685 0.13671 0.10198 0.0
H761 H 0.40165 0.12244 0.01152 0.0
H762 H 0.43398 0.14696 0.13935 0.0
H763 H 0.42476 0.11368 0.14466 0.0
H764 H 0.39637 0.13792 0.14613 0.0
H765 H 0.47552 0.12852 0.0291 0.0
H766 H 0.4509 0.1126 0.00277 0.0
H767 H 0.4675 0.09494 0.03408 0.0
C768 C 0.97188 0.88707 0.61455 0.0
C769 C 0.9516 0.86673 0.6145 0.0
C770 C 0.0009 0.88305 0.60502 0.0
C771 C 0.00991 0.85799 0.59583 0.0
C772 C -0.01004 0.83709 0.59745 0.0
C773 C 0.96094 0.84177 0.60646 0.0
C774 C 0.02145 0.90588 0.60322 0.0
C775 C -0.00105 0.80998 0.58852 0.0
C776 C 0.07148 0.8527 0.53747 0.0
C777 C 0.09566 0.84752 0.55639 0.0
C778 C 0.04348 0.85621 0.55008 0.0
C779 C 0.03949 0.85401 0.58234 0.0
C780 C 0.06369 0.84827 0.60153 0.0
C781 C 0.09157 0.84532 0.58834 0.0
C782 C 0.01824 0.86265 0.52891 0.0
C783 C 0.06014 0.84531 0.63594 0.0
H784 H 0.96473 0.90643 0.62058 0.0
H785 H 0.94539 0.82593 0.60665 0.0
H786 H 0.0421 0.9016 0.61567 0.0
H787 H 0.02724 0.90964 0.57879 0.0
H788 H 0.01164 0.92374 0.61307 0.0
H789 H 0.9818 0.7955 0.59414 0.0
H790 H 0.00331 0.80918 0.56338 0.0
H791 H 0.01951 0.80446 0.60046 0.0
H792 H 0.07452 0.85459 0.5128 0.0
H793 H 0.11016 0.84117 0.60307 0.0
H794 H 0.00831 0.88139 0.53578 0.0
H795 H 0.00096 0.84768 0.53092 0.0
H796 H 0.0251 0.86396 0.5044 0.0
H797 H 0.05203 0.86367 0.64606 0.0
H798 H 0.081 0.83997 0.6475 0.0
H799 H 0.04358 0.83021 0.64104 0.0
C800 C 0.39917 0.82329 0.91716 0.0
C801 C 0.37689 0.84167 0.91376 0.0
C802 C 0.42742 0.8281 0.9058 0.0
C803 C 0.43369 0.8523 0.89196 0.0
C804 C 0.41116 0.87093 0.88851 0.0
C805 C 0.38283 0.86515 0.89893 0.0
C806 C 0.45062 0.80743 0.90895 0.0
C807 C 0.41723 0.89731 0.87497 0.0
C808 C 0.51297 0.87341 0.89694 0.0
C809 C 0.52254 0.86966 0.86665 0.0
C810 C 0.48384 0.86856 0.90522 0.0
C811 C 0.46421 0.85871 0.88288 0.0
C812 C 0.47391 0.85469 0.85221 0.0
C813 C 0.50295 0.86073 0.84429 0.0
C814 C 0.47411 0.87401 0.93786 0.0
C815 C 0.45386 0.84339 0.82807 0.0
H816 H 0.39439 0.80503 0.92841 0.0
H817 H 0.36554 0.87942 0.89657 0.0
H818 H 0.46145 0.80403 0.88641 0.0
H819 H 0.46776 0.81391 0.92531 0.0
H820 H 0.44147 0.78882 0.9174 0.0
H821 H 0.39715 0.9094 0.87339 0.0
H822 H 0.43352 0.90759 0.88946 0.0
H823 H 0.42682 0.89539 0.85161 0.0
H824 H 0.52827 0.88051 0.91408 0.0
H825 H 0.51063 0.85769 0.82092 0.0
H826 H 0.46773 0.8557 0.94937 0.0
H827 H 0.45457 0.88679 0.93774 0.0
H828 H 0.49157 0.88337 0.95175 0.0
H829 H 0.44605 0.82409 0.83569 0.0
H830 H 0.46488 0.84125 0.80538 0.0
H831 H 0.43427 0.85583 0.82511 0.0
C832 C 0.09276 0.1154 0.39273 0.0
C833 C 0.09758 0.13654 0.41231 0.0
C834 C 0.06452 0.1095 0.38216 0.0
C835 C 0.04077 0.12563 0.39061 0.0
C836 C 0.04576 0.14762 0.40936 0.0
C837 C 0.07407 0.15256 0.42043 0.0
C838 C 0.05993 0.08546 0.363 0.0
C839 C 0.02111 0.16567 0.41815 0.0
C840 C 0.96968 0.12078 0.34532 0.0
C841 C 0.95222 0.10678 0.36586 0.0
C842 C -0.00131 0.12713 0.35302 0.0
C843 C 0.01042 0.11863 0.38153 0.0
C844 C -0.00709 0.1038 0.40187 0.0
C845 C 0.96382 0.0984 0.39395 0.0
C846 C 0.01649 0.14347 0.33112 0.0
C847 C 0.00481 0.09383 0.43211 0.0
H848 H 0.11094 0.10289 0.38663 0.0
H849 H 0.07787 0.16904 0.43535 0.0
H850 H 0.04554 0.07178 0.37561 0.0
H851 H 0.04875 0.09039 0.34109 0.0
H852 H 0.08085 0.07546 0.35755 0.0
H853 H 0.0291 0.18314 0.43044 0.0
H854 H 0.00897 0.1719 0.39727 0.0
H855 H 0.00536 0.15543 0.43329 0.0
H856 H 0.96037 0.12738 0.32372 0.0
H857 H 0.95005 0.08755 0.4097 0.0
H858 H 0.03696 0.13324 0.3247 0.0
H859 H 0.02293 0.16177 0.34264 0.0
H860 H 0.00424 0.14826 0.30974 0.0
H861 H 0.02524 0.08268 0.42812 0.0
H862 H -0.01111 0.08123 0.44434 0.0
H863 H 0.0104 0.11032 0.44736 0.0
C864 C -8e-05 0.59263 0.11296 0.0
C865 C 0.02186 0.61147 0.1105 0.0
C866 C 0.97116 0.59784 0.10333 0.0
C867 C 0.96413 0.62263 0.09151 0.0
C868 C 0.9859 0.64206 0.09021 0.0
C869 C 0.01458 0.63617 0.09946 0.0
C870 C 0.94859 0.57653 0.10473 0.0
C871 C 0.97908 0.66887 0.07836 0.0
C872 C 0.89957 0.62783 0.03671 0.0
C873 C 0.87711 0.63586 0.05655 0.0
C874 C 0.92804 0.62355 0.04779 0.0
C875 C 0.93428 0.62787 0.07935 0.0
C876 C 0.9119 0.6367 0.0993 0.0
C877 C 0.88351 0.64036 0.08772 0.0
C878 C 0.95128 0.61382 0.02589 0.0
C879 C 0.91786 0.64201 0.13294 0.0
H880 H 0.00545 0.57345 0.12128 0.0
H881 H 0.03142 0.65087 0.0977 0.0
H882 H 0.92922 0.583 0.1181 0.0
H883 H 0.94092 0.5719 0.0811 0.0
H884 H 0.95735 0.55859 0.11542 0.0
H885 H -0.00209 0.68229 0.08096 0.0
H886 H 0.97312 0.66788 0.05361 0.0
H887 H 0.95998 0.67706 0.09083 0.0
H888 H 0.89473 0.62416 0.01265 0.0
H889 H 0.86628 0.64675 0.10314 0.0
H890 H 0.95968 0.59483 0.03394 0.0
H891 H 0.97008 0.62739 0.02548 0.0
H892 H 0.9429 0.61156 0.00201 0.0
H893 H 0.92459 0.62388 0.14466 0.0
H894 H 0.8984 0.65 0.14503 0.0
H895 H 0.93622 0.65592 0.13527 0.0
C896 C 0.59151 0.33635 0.5883 0.0
C897 C 0.5976 0.34043 0.55697 0.0
C898 C 0.56321 0.34003 0.60009 0.0
C899 C 0.54058 0.34842 0.58018 0.0
C900 C 0.5465 0.35229 0.54846 0.0
C901 C 0.5749 0.34801 0.53718 0.0
C902 C 0.55759 0.33521 0.63391 0.0
C903 C 0.52299 0.36154 0.52658 0.0
C904 C 0.46047 0.34015 0.60112 0.0
C905 C 0.45313 0.36502 0.61157 0.0
C906 C 0.48913 0.3342 0.59187 0.0
C907 C 0.51082 0.35373 0.59253 0.0
C908 C 0.50374 0.37868 0.60381 0.0
C909 C 0.47501 0.38396 0.61348 0.0
C910 C 0.49601 0.30722 0.58064 0.0
C911 C 0.52621 0.40009 0.60452 0.0
H912 H 0.60894 0.33032 0.60368 0.0
H913 H 0.5795 0.35134 0.51299 0.0
H914 H 0.55089 0.3535 0.64529 0.0
H915 H 0.53931 0.32128 0.63676 0.0
H916 H 0.5772 0.32748 0.64596 0.0
H917 H 0.53112 0.36346 0.50256 0.0
H918 H 0.50428 0.34787 0.52671 0.0
H919 H 0.51454 0.38061 0.53428 0.0
H920 H 0.44368 0.32538 0.5998 0.0
H921 H 0.46943 0.40325 0.62135 0.0
H922 H 0.5153 0.29935 0.59306 0.0
H923 H 0.50168 0.3078 0.55579 0.0
H924 H 0.4773 0.29375 0.58383 0.0
H925 H 0.54574 0.39389 0.61781 0.0
H926 H 0.51746 0.41815 0.61492 0.0
H927 H 0.53363 0.40442 0.58072 0.0
C928 C 0.01478 0.33987 0.87738 0.0
C929 C 0.02312 0.36463 0.86748 0.0
C930 C 0.98595 0.33478 0.88673 0.0
C931 C 0.96512 0.35508 0.88673 0.0
C932 C 0.97319 0.37994 0.87599 0.0
C933 C 0.00205 0.38436 0.86621 0.0
C934 C 0.97798 0.30788 0.8974 0.0
C935 C 0.95166 0.40215 0.87598 0.0
C936 C 0.88379 0.3404 0.89155 0.0
C937 C 0.87819 0.34414 0.92305 0.0
C938 C 0.9121 0.34336 0.87949 0.0
C939 C 0.93526 0.35065 0.89931 0.0
C940 C 0.92982 0.35421 0.93116 0.0
C941 C 0.90139 0.35071 0.9427 0.0
C942 C 0.91717 0.33894 0.8455 0.0
C943 C 0.95393 0.36227 0.95296 0.0
H944 H 0.03094 0.32449 0.87821 0.0
H945 H 0.0084 0.40358 0.85877 0.0
H946 H 0.97257 0.30823 0.92232 0.0
H947 H 0.95825 0.30093 0.88501 0.0
H948 H -0.00395 0.29381 0.89369 0.0
H949 H 0.96108 0.42004 0.86584 0.0
H950 H 0.93173 0.39686 0.86281 0.0
H951 H 0.94469 0.40638 0.89996 0.0
H952 H 0.866 0.33515 0.87625 0.0
H953 H 0.8972 0.35375 0.96702 0.0
H954 H 0.93473 0.32436 0.84212 0.0
H955 H 0.92464 0.35714 0.83448 0.0
H956 H 0.8971 0.3322 0.83349 0.0
H957 H 0.972 0.34792 0.95237 0.0
H958 H 0.94611 0.36413 0.9771 0.0
H959 H 0.96316 0.38112 0.94555 0.0
C960 C 0.57269 0.62683 0.44253 0.0
C961 C 0.5958 0.63384 0.42299 0.0
C962 C 0.54427 0.62333 0.43097 0.0
C963 C 0.53876 0.62736 0.39921 0.0
C964 C 0.56183 0.63515 0.37952 0.0
C965 C 0.59013 0.63808 0.3916 0.0
C966 C 0.52027 0.61473 0.45263 0.0
C967 C 0.55667 0.64009 0.34565 0.0
C968 C 0.47239 0.59339 0.3656 0.0
C969 C 0.45103 0.61285 0.36735 0.0
C970 C 0.50122 0.598 0.37535 0.0
C971 C 0.50896 0.6228 0.38657 0.0
C972 C 0.48783 0.64285 0.38704 0.0
C973 C 0.45905 0.63757 0.37768 0.0
C974 C 0.52307 0.57605 0.37482 0.0
C975 C 0.49543 0.66968 0.39823 0.0
H976 H 0.57694 0.6234 0.46677 0.0
H977 H 0.60786 0.64368 0.37639 0.0
H978 H 0.502 0.62888 0.4523 0.0
H979 H 0.5113 0.59587 0.44487 0.0
H980 H 0.52812 0.61261 0.47673 0.0
H981 H 0.57662 0.64731 0.33379 0.0
H982 H 0.54952 0.62198 0.33421 0.0
H983 H 0.53886 0.65449 0.34261 0.0
H984 H 0.4663 0.57421 0.35781 0.0
H985 H 0.44268 0.65275 0.37888 0.0
H986 H 0.53014 0.57152 0.39869 0.0
H987 H 0.54289 0.58178 0.36173 0.0
H988 H 0.51389 0.55822 0.36431 0.0
H989 H 0.50082 0.66903 0.42314 0.0
H990 H 0.47717 0.68361 0.39477 0.0
H991 H 0.51508 0.67701 0.38598 0.0
C992 C 0.26795 0.15538 0.17131 0.0
C993 C 0.2527 0.13777 0.15271 0.0
C994 C 0.26266 0.15677 0.2031 0.0
C995 C 0.24148 0.14027 0.2165 0.0
C996 C 0.22564 0.12277 0.19777 0.0
C997 C 0.23152 0.12167 0.16609 0.0
C998 C 0.28004 0.17559 0.22241 0.0
C999 C 0.20272 0.10502 0.21127 0.0
C1000 C 0.24639 0.12462 0.30174 0.0
C1001 C 0.22504 0.14114 0.31412 0.0
C1002 C 0.25223 0.1244 0.27002 0.0
C1003 C 0.2362 0.14096 0.25024 0.0
C1004 C 0.21481 0.15784 0.26262 0.0
C1005 C 0.20955 0.15779 0.29445 0.0
C1006 C 0.27536 0.10626 0.25762 0.0
C1007 C 0.19721 0.17569 0.24218 0.0
H1008 H 0.2844 0.16784 0.16111 0.0
H1009 H 0.21961 0.10807 0.15181 0.0
H1010 H 0.26502 0.18881 0.23492 0.0
H1011 H 0.29288 0.1649 0.24 0.0
H1012 H 0.29534 0.1874 0.20834 0.0
H1013 H 0.19177 0.09306 0.1934 0.0
H1014 H 0.21295 0.09191 0.22843 0.0
H1015 H 0.18583 0.11651 0.22354 0.0
H1016 H 0.25848 0.11176 0.31684 0.0
H1017 H 0.19298 0.17057 0.30388 0.0
H1018 H 0.29215 0.11735 0.2447 0.0
H1019 H 0.2653 0.0924 0.24125 0.0
H1020 H 0.28642 0.09513 0.27619 0.0
H1021 H 0.21207 0.1885 0.22892 0.0
H1022 H 0.18171 0.18793 0.25551 0.0
H1023 H 0.18454 0.16417 0.22523 0.0
C1024 C 0.22948 0.85505 0.80246 0.0
C1025 C 0.25078 0.83847 0.81483 0.0
C1026 C 0.22389 0.85554 0.77069 0.0
C1027 C 0.24013 0.83918 0.75086 0.0
C1028 C 0.26157 0.82234 0.76321 0.0
C1029 C 0.26658 0.82213 0.79509 0.0
C1030 C 0.20071 0.87363 0.75831 0.0
C1031 C 0.2794 0.80471 0.74273 0.0
C1032 C 0.20851 0.82415 0.67208 0.0
C1033 C 0.22368 0.84169 0.65329 0.0
C1034 C 0.21374 0.82305 0.70389 0.0
C1035 C 0.23476 0.83978 0.71714 0.0
C1036 C 0.25044 0.85728 0.69824 0.0
C1037 C 0.24464 0.85808 0.66652 0.0
C1038 C 0.19652 0.80421 0.72338 0.0
C1039 C 0.27317 0.87528 0.71158 0.0
H1040 H 0.21718 0.8677 0.81762 0.0
H1041 H 0.28313 0.80932 0.8045 0.0
H1042 H 0.21068 0.88745 0.7418 0.0
H1043 H 0.18388 0.86248 0.74555 0.0
H1044 H 0.18972 0.88482 0.77688 0.0
H1045 H 0.29518 0.79271 0.756 0.0
H1046 H 0.26469 0.79166 0.72963 0.0
H1047 H 0.29176 0.81637 0.72564 0.0
H1048 H 0.19222 0.81147 0.66201 0.0
H1049 H 0.25647 0.87164 0.6521 0.0
H1050 H 0.18375 0.8149 0.74103 0.0
H1051 H 0.21166 0.79105 0.73581 0.0
H1052 H 0.18117 0.79235 0.70945 0.0
H1053 H 0.26285 0.88831 0.72876 0.0
H1054 H 0.28391 0.88732 0.69363 0.0
H1055 H 0.29026 0.86397 0.7238 0.0
C1056 C 0.71257 0.85271 0.8037 0.0
C1057 C 0.68657 0.867 0.80207 0.0
C1058 C 0.7321 0.85213 0.77877 0.0
C1059 C 0.72599 0.8671 0.7522 0.0
C1060 C 0.70002 0.88207 0.7508 0.0
C1061 C 0.68026 0.88139 0.77556 0.0
C1062 C 0.759 0.83516 0.78066 0.0
C1063 C 0.69328 0.89902 0.72334 0.0
C1064 C 0.79116 0.88264 0.70111 0.0
C1065 C 0.78653 0.86584 0.6763 0.0
C1066 C 0.77113 0.8838 0.7256 0.0
C1067 C 0.74669 0.86693 0.72579 0.0
C1068 C 0.74226 0.84962 0.70093 0.0
C1069 C 0.76195 0.84969 0.67612 0.0
C1070 C 0.77598 0.90318 0.75112 0.0
C1071 C 0.71711 0.83067 0.70084 0.0
H1072 H 0.71722 0.84142 0.8242 0.0
H1073 H 0.66019 0.8926 0.77454 0.0
H1074 H 0.75938 0.82149 0.76094 0.0
H1075 H 0.77905 0.84717 0.77908 0.0
H1076 H 0.75986 0.82385 0.80242 0.0
H1077 H 0.6729 0.91047 0.72657 0.0
H1078 H 0.71172 0.91255 0.71915 0.0
H1079 H 0.69084 0.88697 0.70236 0.0
H1080 H 0.81012 0.89525 0.701 0.0
H1081 H 0.75862 0.83655 0.65695 0.0
H1082 H 0.7797 0.89296 0.77325 0.0
H1083 H 0.75617 0.9154 0.75404 0.0
H1084 H 0.79504 0.91595 0.74655 0.0
H1085 H 0.71807 0.81838 0.72181 0.0
H1086 H 0.71735 0.81792 0.68024 0.0
H1087 H 0.69596 0.84121 0.70142 0.0
C1088 C 0.79434 0.09378 0.27729 0.0
C1089 C 0.78793 0.10836 0.30361 0.0
C1090 C 0.77464 0.09284 0.2525 0.0
C1091 C 0.74861 0.10774 0.25367 0.0
C1092 C 0.74232 0.12282 0.2801 0.0
C1093 C 0.76182 0.12251 0.30508 0.0
C1094 C 0.78157 0.07579 0.2252 0.0
C1095 C 0.71535 0.1397 0.28175 0.0
C1096 C 0.71361 0.12505 0.17707 0.0
C1097 C 0.68907 0.10885 0.17691 0.0
C1098 C 0.73294 0.12519 0.20219 0.0
C1099 C 0.72818 0.10791 0.22703 0.0
C1100 C 0.70377 0.09102 0.22653 0.0
C1101 C 0.68411 0.09211 0.20171 0.0
C1102 C 0.75807 0.14416 0.20241 0.0
C1103 C 0.6986 0.07167 0.25203 0.0
H1104 H 0.81449 0.08267 0.2764 0.0
H1105 H 0.75708 0.13394 0.32543 0.0
H1106 H 0.76308 0.06236 0.2208 0.0
H1107 H 0.78438 0.08779 0.20423 0.0
H1108 H 0.80182 0.06423 0.22874 0.0
H1109 H 0.71418 0.1509 0.30356 0.0
H1110 H 0.71518 0.15348 0.26211 0.0
H1111 H 0.69535 0.12766 0.27981 0.0
H1112 H 0.71721 0.13816 0.15792 0.0
H1113 H 0.66517 0.07946 0.20134 0.0
H1114 H 0.77922 0.13362 0.20316 0.0
H1115 H 0.75692 0.15639 0.2234 0.0
H1116 H 0.75802 0.15697 0.18184 0.0
H1117 H 0.71833 0.05939 0.25516 0.0
H1118 H 0.67952 0.05896 0.24729 0.0
H1119 H 0.69472 0.08191 0.27411 0.0
C1120 C 0.74447 0.62409 0.30856 0.0
C1121 C 0.72343 0.64045 0.32176 0.0
C1122 C 0.75053 0.62507 0.27691 0.0
C1123 C 0.73502 0.64272 0.25803 0.0
C1124 C 0.71404 0.65954 0.27127 0.0
C1125 C 0.70855 0.65826 0.30304 0.0
C1126 C 0.77322 0.60696 0.26359 0.0
C1127 C 0.697 0.67853 0.2518 0.0
C1128 C 0.76702 0.65876 0.17962 0.0
C1129 C 0.75123 0.64204 0.16037 0.0
C1130 C 0.76181 0.65938 0.21147 0.0
C1131 C 0.74017 0.643 0.22426 0.0
C1132 C 0.72381 0.6264 0.20488 0.0
C1133 C 0.72961 0.62606 0.17316 0.0
C1134 C 0.77977 0.67722 0.23149 0.0
C1135 C 0.7004 0.60879 0.2177 0.0
H1136 H 0.75612 0.61035 0.32293 0.0
H1137 H 0.69223 0.67094 0.31312 0.0
H1138 H 0.76277 0.59376 0.2467 0.0
H1139 H 0.79018 0.61814 0.25104 0.0
H1140 H 0.78413 0.59509 0.2816 0.0
H1141 H 0.68205 0.69077 0.2658 0.0
H1142 H 0.71224 0.69132 0.23899 0.0
H1143 H 0.6838 0.66792 0.23446 0.0
H1144 H 0.7838 0.67113 0.16987 0.0
H1145 H 0.71727 0.61315 0.15838 0.0
H1146 H 0.7924 0.66572 0.24852 0.0
H1147 H 0.76516 0.69034 0.24467 0.0
H1148 H 0.79533 0.68914 0.21786 0.0
H1149 H 0.71028 0.59493 0.23423 0.0
H1150 H 0.68902 0.59765 0.19938 0.0
H1151 H 0.68389 0.6203 0.23053 0.0
C1152 C 0.70806 0.31899 0.67942 0.0
C1153 C 0.72353 0.3359 0.66009 0.0
C1154 C 0.71324 0.31856 0.71127 0.0
C1155 C 0.73452 0.33533 0.724 0.0
C1156 C 0.75052 0.35217 0.70455 0.0
C1157 C 0.74476 0.35231 0.67282 0.0
C1158 C 0.69567 0.30044 0.73136 0.0
C1159 C 0.77352 0.3702 0.71731 0.0
C1160 C 0.72981 0.35377 0.80843 0.0
C1161 C 0.75112 0.33761 0.82155 0.0
C1162 C 0.72386 0.35292 0.77675 0.0
C1163 C 0.73975 0.33563 0.75776 0.0
C1164 C 0.76106 0.31907 0.7709 0.0
C1165 C 0.76643 0.3202 0.80269 0.0
C1166 C 0.70083 0.37075 0.76355 0.0
C1167 C 0.77851 0.30048 0.7513 0.0
H1168 H 0.69158 0.3063 0.66972 0.0
H1169 H 0.75684 0.36538 0.65799 0.0
H1170 H 0.71057 0.2875 0.74442 0.0
H1171 H 0.68292 0.31174 0.74848 0.0
H1172 H 0.68026 0.28835 0.71779 0.0
H1173 H 0.78456 0.38159 0.69896 0.0
H1174 H 0.76335 0.38384 0.73391 0.0
H1175 H 0.79035 0.35899 0.73006 0.0
H1176 H 0.71785 0.36721 0.82291 0.0
H1177 H 0.78296 0.3077 0.81269 0.0
H1178 H 0.68402 0.35934 0.75106 0.0
H1179 H 0.71098 0.3841 0.74662 0.0
H1180 H 0.68977 0.38245 0.7816 0.0
H1181 H 0.76355 0.2874 0.73857 0.0
H1182 H 0.79385 0.28852 0.76519 0.0
H1183 H 0.79134 0.31138 0.73389 0.0
C1184 C 0.29387 0.38461 0.70265 0.0
C1185 C 0.28853 0.36928 0.67669 0.0
C1186 C 0.2738 0.3853 0.72714 0.0
C1187 C 0.24857 0.36939 0.72607 0.0
C1188 C 0.24344 0.35351 0.70004 0.0
C1189 C 0.26322 0.35409 0.67532 0.0
C1190 C 0.27944 0.40319 0.75399 0.0
C1191 C 0.21741 0.33554 0.69855 0.0
C1192 C 0.21322 0.35222 0.80251 0.0
C1193 C 0.1878 0.36735 0.80173 0.0
C1194 C 0.233 0.35241 0.77779 0.0
C1195 C 0.22776 0.36898 0.75238 0.0
C1196 C 0.20243 0.38483 0.75192 0.0
C1197 C 0.18237 0.38339 0.77638 0.0
C1198 C 0.25916 0.33451 0.77859 0.0
C1199 C 0.19666 0.40343 0.72578 0.0
H1200 H 0.31341 0.3965 0.70344 0.0
H1201 H 0.25933 0.34208 0.65524 0.0
H1202 H 0.26023 0.41601 0.75765 0.0
H1203 H 0.2825 0.39178 0.77539 0.0
H1204 H 0.29915 0.41541 0.7504 0.0
H1205 H 0.21721 0.32377 0.67713 0.0
H1206 H 0.21763 0.32227 0.71867 0.0
H1207 H 0.19678 0.34683 0.6997 0.0
H1208 H 0.21719 0.33967 0.82211 0.0
H1209 H 0.16275 0.39524 0.77604 0.0
H1210 H 0.27971 0.34589 0.77786 0.0
H1211 H 0.25903 0.32179 0.75798 0.0
H1212 H 0.25946 0.32216 0.79955 0.0
H1213 H 0.21579 0.4164 0.7226 0.0
H1214 H 0.17688 0.41549 0.72984 0.0
H1215 H 0.19366 0.39261 0.70395 0.0
C1216 C 0.29169 0.59307 0.27675 0.0
C1217 C 0.2863 0.6092 0.30202 0.0
C1218 C 0.27167 0.59166 0.25227 0.0
C1219 C 0.24643 0.60763 0.2526 0.0
C1220 C 0.24123 0.62428 0.27793 0.0
C1221 C 0.26096 0.62444 0.30269 0.0
C1222 C 0.27739 0.57297 0.22622 0.0
C1223 C 0.21518 0.64231 0.2786 0.0
C1224 C 0.21148 0.62257 0.17529 0.0
C1225 C 0.18607 0.6075 0.17656 0.0
C1226 C 0.23111 0.62311 0.20013 0.0
C1227 C 0.22573 0.60731 0.2262 0.0
C1228 C 0.20039 0.59153 0.22718 0.0
C1229 C 0.18048 0.59226 0.20256 0.0
C1230 C 0.25727 0.64094 0.19873 0.0
C1231 C 0.19449 0.57372 0.25406 0.0
H1232 H 0.31125 0.58115 0.27649 0.0
H1233 H 0.25702 0.63705 0.32223 0.0
H1234 H 0.25816 0.56013 0.22298 0.0
H1235 H 0.28061 0.58373 0.20437 0.0
H1236 H 0.29704 0.56077 0.23042 0.0
H1237 H 0.21486 0.65466 0.29955 0.0
H1238 H 0.2155 0.65503 0.25798 0.0
H1239 H 0.19456 0.63104 0.27777 0.0
H1240 H 0.21557 0.63451 0.15519 0.0
H1241 H 0.16087 0.58046 0.20327 0.0
H1242 H 0.27782 0.62954 0.19996 0.0
H1243 H 0.25707 0.65421 0.21883 0.0
H1244 H 0.25763 0.6527 0.1773 0.0
H1245 H 0.21357 0.56078 0.25783 0.0
H1246 H 0.17468 0.56163 0.25043 0.0
H1247 H 0.19145 0.58519 0.27542 0.0
loop_
_geom_bond_atom_site_label_1
_geom_bond_atom_site_label_2
_geom_bond_distance
_geom_bond_site_symmetry_2
_ccdc_geom_bond_type
C0 O1 1.306 . S
C0 O3 1.160 . S
O1 C0 1.306 . S
O1 Cd2 2.228 . S
Cd2 O1 2.228 . S
Cd2 O6 2.273 . S
Cd2 O10 2.277 . S
O3 C0 1.160 . S
O3 Cd4 2.203 . S
Cd4 O3 2.203 . S
Cd4 O6 2.411 . S
Cd4 O7 2.333 . S
Cd4 O8 2.352 . S
Cd4 O12 2.277 . S
Cd4 O13 2.356 . S
C5 O10 1.209 . S
C5 O12 1.226 . S
O6 Cd2 2.273 . S
O6 Cd4 2.411 . S
O6 C9 1.320 . S
O7 Cd4 2.333 . S
O7 C9 1.214 . S
O8 Cd4 2.352 . S
O8 C11 1.258 . S
C9 O6 1.320 . S
C9 O7 1.214 . S
O10 Cd2 2.277 . S
O10 C5 1.209 . S
C11 O8 1.258 . S
C11 O13 1.282 . S
O12 Cd4 2.277 . S
O12 C5 1.226 . S
O13 Cd4 2.356 . S
O13 C11 1.282 . S
C14 O15 1.306 . S
C14 O17 1.160 . S
O15 C14 1.306 . S
O15 Cd16 2.228 . S
Cd16 O15 2.228 . S
Cd16 O20 2.273 . S
Cd16 O24 2.277 . S
O17 C14 1.160 . S
O17 Cd18 2.203 . S
Cd18 O17 2.203 . S
Cd18 O20 2.411 . S
Cd18 O21 2.333 . S
Cd18 O22 2.352 . S
Cd18 O26 2.277 . S
Cd18 O27 2.356 . S
C19 O24 1.209 . S
C19 O26 1.226 . S
O20 Cd16 2.273 . S
O20 Cd18 2.411 . S
O20 C23 1.320 . S
O21 Cd18 2.333 . S
O21 C23 1.214 . S
O22 Cd18 2.352 . S
O22 C25 1.258 . S
C23 O20 1.320 . S
C23 O21 1.214 . S
O24 Cd16 2.277 . S
O24 C19 1.209 . S
C25 O22 1.258 . S
C25 O27 1.282 . S
O26 Cd18 2.277 . S
O26 C19 1.226 . S
O27 Cd18 2.356 . S
O27 C25 1.282 . S
C28 O29 1.306 . S
C28 O31 1.160 . S
O29 C28 1.306 . S
O29 Cd30 2.228 . S
Cd30 O29 2.228 . S
Cd30 O34 2.273 . S
Cd30 O38 2.277 . S
O31 C28 1.160 . S
O31 Cd32 2.203 . S
Cd32 O31 2.203 . S
Cd32 O34 2.411 . S
Cd32 O35 2.333 . S
Cd32 O36 2.352 . S
Cd32 O40 2.277 . S
Cd32 O41 2.356 . S
C33 O38 1.209 . S
C33 O40 1.226 . S
O34 Cd30 2.273 . S
O34 Cd32 2.411 . S
O34 C37 1.320 . S
O35 Cd32 2.333 . S
O35 C37 1.214 . S
O36 Cd32 2.352 . S
O36 C39 1.258 . S
C37 O34 1.320 . S
C37 O35 1.214 . S
O38 Cd30 2.277 . S
O38 C33 1.209 . S
C39 O36 1.258 . S
C39 O41 1.282 . S
O40 Cd32 2.277 . S
O40 C33 1.226 . S
O41 Cd32 2.356 . S
O41 C39 1.282 . S
C42 O43 1.306 . S
C42 O45 1.160 . S
O43 C42 1.306 . S
O43 Cd44 2.228 . S
Cd44 O43 2.228 . S
Cd44 O48 2.273 . S
Cd44 O52 2.277 . S
O45 C42 1.160 . S
O45 Cd46 2.203 . S
Cd46 O45 2.203 . S
Cd46 O48 2.411 . S
Cd46 O49 2.333 . S
Cd46 O50 2.352 . S
Cd46 O54 2.277 . S
Cd46 O55 2.356 . S
C47 O52 1.209 . S
C47 O54 1.226 . S
O48 Cd44 2.273 . S
O48 Cd46 2.411 . S
O48 C51 1.320 . S
O49 Cd46 2.333 . S
O49 C51 1.214 . S
O50 Cd46 2.352 . S
O50 C53 1.258 . S
C51 O48 1.320 . S
C51 O49 1.214 . S
O52 Cd44 2.277 . S
O52 C47 1.209 . S
C53 O50 1.258 . S
C53 O55 1.282 . S
O54 Cd46 2.277 . S
O54 C47 1.226 . S
O55 Cd46 2.356 . S
O55 C53 1.282 . S
C56 O57 1.306 . S
C56 O59 1.160 . S
O57 C56 1.306 . S
O57 Cd58 2.228 . S
Cd58 O57 2.228 . S
Cd58 O62 2.273 . S
Cd58 O66 2.277 . S
O59 C56 1.160 . S
O59 Cd60 2.203 . S
Cd60 O59 2.203 . S
Cd60 O62 2.411 . S
Cd60 O63 2.333 . S
Cd60 O64 2.352 . S
Cd60 O68 2.277 . S
Cd60 O69 2.356 . S
C61 O66 1.209 . S
C61 O68 1.226 . S
O62 Cd58 2.273 . S
O62 Cd60 2.411 . S
O62 C65 1.320 . S
O63 Cd60 2.333 . S
O63 C65 1.214 . S
O64 Cd60 2.352 . S
O64 C67 1.258 . S
C65 O62 1.320 . S
C65 O63 1.214 . S
O66 Cd58 2.277 . S
O66 C61 1.209 . S
C67 O64 1.258 . S
C67 O69 1.282 . S
O68 Cd60 2.277 . S
O68 C61 1.226 . S
O69 Cd60 2.356 . S
O69 C67 1.282 . S
C70 O71 1.306 . S
C70 O73 1.160 . S
O71 C70 1.306 . S
O71 Cd72 2.228 . S
Cd72 O71 2.228 . S
Cd72 O76 2.273 . S
Cd72 O80 2.277 . S
O73 C70 1.160 . S
O73 Cd74 2.203 . S
Cd74 O73 2.203 . S
Cd74 O76 2.411 . S
Cd74 O77 2.333 . S
Cd74 O78 2.352 . S
Cd74 O82 2.277 . S
Cd74 O83 2.356 . S
C75 O80 1.209 . S
C75 O82 1.226 . S
O76 Cd72 2.273 . S
O76 Cd74 2.411 . S
O76 C79 1.320 . S
O77 Cd74 2.333 . S
O77 C79 1.214 . S
O78 Cd74 2.352 . S
O78 C81 1.258 . S
C79 O76 1.320 . S
C79 O77 1.214 . S
O80 Cd72 2.277 . S
O80 C75 1.209 . S
C81 O78 1.258 . S
C81 O83 1.282 . S
O82 Cd74 2.277 . S
O82 C75 1.226 . S
O83 Cd74 2.356 . S
O83 C81 1.282 . S
C84 O85 1.306 . S
C84 O87 1.160 . S
O85 C84 1.306 . S
O85 Cd86 2.228 . S
Cd86 O85 2.228 . S
Cd86 O90 2.273 . S
Cd86 O94 2.277 . S
O87 C84 1.160 . S
O87 Cd88 2.203 . S
Cd88 O87 2.203 . S
Cd88 O90 2.411 . S
Cd88 O91 2.333 . S
Cd88 O92 2.352 . S
Cd88 O96 2.277 . S
Cd88 O97 2.356 . S
C89 O94 1.209 . S
C89 O96 1.226 . S
O90 Cd86 2.273 . S
O90 Cd88 2.411 . S
O90 C93 1.320 . S
O91 Cd88 2.333 . S
O91 C93 1.214 . S
O92 Cd88 2.352 . S
O92 C95 1.258 . S
C93 O90 1.320 . S
C93 O91 1.214 . S
O94 Cd86 2.277 . S
O94 C89 1.209 . S
C95 O92 1.258 . S
C95 O97 1.282 . S
O96 Cd88 2.277 . S
O96 C89 1.226 . S
O97 Cd88 2.356 . S
O97 C95 1.282 . S
C98 O99 1.306 . S
C98 O101 1.160 . S
O99 C98 1.306 . S
O99 Cd100 2.228 . S
Cd100 O99 2.228 . S
Cd100 O104 2.273 . S
Cd100 O108 2.277 . S
O101 C98 1.160 . S
O101 Cd102 2.203 . S
Cd102 O101 2.203 . S
Cd102 O104 2.411 . S
Cd102 O105 2.333 . S
Cd102 O106 2.352 . S
Cd102 O110 2.277 . S
Cd102 O111 2.356 . S
C103 O108 1.209 . S
C103 O110 1.226 . S
O104 Cd100 2.273 . S
O104 Cd102 2.411 . S
O104 C107 1.320 . S
O105 Cd102 2.333 . S
O105 C107 1.214 . S
O106 Cd102 2.352 . S
O106 C109 1.258 . S
C107 O104 1.320 . S
C107 O105 1.214 . S
O108 Cd100 2.277 . S
O108 C103 1.209 . S
C109 O106 1.258 . S
C109 O111 1.282 . S
O110 Cd102 2.277 . S
O110 C103 1.226 . S
O111 Cd102 2.356 . S
O111 C109 1.282 . S
C112 O113 1.306 . S
C112 O115 1.160 . S
O113 C112 1.306 . S
O113 Cd114 2.228 . S
Cd114 O113 2.228 . S
Cd114 O118 2.273 . S
Cd114 O122 2.277 . S
O115 C112 1.160 . S
O115 Cd116 2.203 . S
Cd116 O115 2.203 . S
Cd116 O118 2.411 . S
Cd116 O119 2.333 . S
Cd116 O120 2.352 . S
Cd116 O124 2.277 . S
Cd116 O125 2.356 . S
C117 O122 1.209 . S
C117 O124 1.226 . S
O118 Cd114 2.273 . S
O118 Cd116 2.411 . S
O118 C121 1.320 . S
O119 Cd116 2.333 . S
O119 C121 1.214 . S
O120 Cd116 2.352 . S
O120 C123 1.258 . S
C121 O118 1.320 . S
C121 O119 1.214 . S
O122 Cd114 2.277 . S
O122 C117 1.209 . S
C123 O120 1.258 . S
C123 O125 1.282 . S
O124 Cd116 2.277 . S
O124 C117 1.226 . S
O125 Cd116 2.356 . S
O125 C123 1.282 . S
C126 O127 1.306 . S
C126 O129 1.160 . S
O127 C126 1.306 . S
O127 Cd128 2.228 . S
Cd128 O127 2.228 . S
Cd128 O132 2.273 . S
Cd128 O136 2.277 . S
O129 C126 1.160 . S
O129 Cd130 2.203 . S
Cd130 O129 2.203 . S
Cd130 O132 2.411 . S
Cd130 O133 2.333 . S
Cd130 O134 2.352 . S
Cd130 O138 2.277 . S
Cd130 O139 2.356 . S
C131 O136 1.209 . S
C131 O138 1.226 . S
O132 Cd128 2.273 . S
O132 Cd130 2.411 . S
O132 C135 1.320 . S
O133 Cd130 2.333 . S
O133 C135 1.214 . S
O134 Cd130 2.352 . S
O134 C137 1.258 . S
C135 O132 1.320 . S
C135 O133 1.214 . S
O136 Cd128 2.277 . S
O136 C131 1.209 . S
C137 O134 1.258 . S
C137 O139 1.282 . S
O138 Cd130 2.277 . S
O138 C131 1.226 . S
O139 Cd130 2.356 . S
O139 C137 1.282 . S
C140 O141 1.306 . S
C140 O143 1.160 . S
O141 C140 1.306 . S
O141 Cd142 2.228 . S
Cd142 O141 2.228 . S
Cd142 O146 2.273 . S
Cd142 O150 2.277 . S
O143 C140 1.160 . S
O143 Cd144 2.203 . S
Cd144 O143 2.203 . S
Cd144 O146 2.411 . S
Cd144 O147 2.333 . S
Cd144 O148 2.352 . S
Cd144 O152 2.277 . S
Cd144 O153 2.356 . S
C145 O150 1.209 . S
C145 O152 1.226 . S
O146 Cd142 2.273 . S
O146 Cd144 2.411 . S
O146 C149 1.320 . S
O147 Cd144 2.333 . S
O147 C149 1.214 . S
O148 Cd144 2.352 . S
O148 C151 1.258 . S
C149 O146 1.320 . S
C149 O147 1.214 . S
O150 Cd142 2.277 . S
O150 C145 1.209 . S
C151 O148 1.258 . S
C151 O153 1.282 . S
O152 Cd144 2.277 . S
O152 C145 1.226 . S
O153 Cd144 2.356 . S
O153 C151 1.282 . S
C154 O155 1.306 . S
C154 O157 1.160 . S
O155 C154 1.306 . S
O155 Cd156 2.228 . S
Cd156 O155 2.228 . S
Cd156 O160 2.273 . S
Cd156 O164 2.277 . S
O157 C154 1.160 . S
O157 Cd158 2.203 . S
Cd158 O157 2.203 . S
Cd158 O160 2.411 . S
Cd158 O161 2.333 . S
Cd158 O162 2.352 . S
Cd158 O166 2.277 . S
Cd158 O167 2.356 . S
C159 O164 1.209 . S
C159 O166 1.226 . S
O160 Cd156 2.273 . S
O160 Cd158 2.411 . S
O160 C163 1.320 . S
O161 Cd158 2.333 . S
O161 C163 1.214 . S
O162 Cd158 2.352 . S
O162 C165 1.258 . S
C163 O160 1.320 . S
C163 O161 1.214 . S
O164 Cd156 2.277 . S
O164 C159 1.209 . S
C165 O162 1.258 . S
C165 O167 1.282 . S
O166 Cd158 2.277 . S
O166 C159 1.226 . S
O167 Cd158 2.356 . S
O167 C165 1.282 . S
C168 O169 1.306 . S
C168 O171 1.160 . S
O169 C168 1.306 . S
O169 Cd170 2.228 . S
Cd170 O169 2.228 . S
Cd170 O174 2.273 . S
Cd170 O178 2.277 . S
O171 C168 1.160 . S
O171 Cd172 2.203 . S
Cd172 O171 2.203 . S
Cd172 O174 2.411 . S
Cd172 O175 2.333 . S
Cd172 O176 2.352 . S
Cd172 O180 2.277 . S
Cd172 O181 2.356 . S
C173 O178 1.209 . S
C173 O180 1.226 . S
O174 Cd170 2.273 . S
O174 Cd172 2.411 . S
O174 C177 1.320 . S
O175 Cd172 2.333 . S
O175 C177 1.214 . S
O176 Cd172 2.352 . S
O176 C179 1.258 . S
C177 O174 1.320 . S
C177 O175 1.214 . S
O178 Cd170 2.277 . S
O178 C173 1.209 . S
C179 O176 1.258 . S
C179 O181 1.282 . S
O180 Cd172 2.277 . S
O180 C173 1.226 . S
O181 Cd172 2.356 . S
O181 C179 1.282 . S
C182 O183 1.306 . S
C182 O185 1.160 . S
O183 C182 1.306 . S
O183 Cd184 2.228 . S
Cd184 O183 2.228 . S
Cd184 O188 2.273 . S
Cd184 O192 2.277 . S
O185 C182 1.160 . S
O185 Cd186 2.203 . S
Cd186 O185 2.203 . S
Cd186 O188 2.411 . S
Cd186 O189 2.333 . S
Cd186 O190 2.352 . S
Cd186 O194 2.277 . S
Cd186 O195 2.356 . S
C187 O192 1.209 . S
C187 O194 1.226 . S
O188 Cd184 2.273 . S
O188 Cd186 2.411 . S
O188 C191 1.320 . S
O189 Cd186 2.333 . S
O189 C191 1.214 . S
O190 Cd186 2.352 . S
O190 C193 1.258 . S
C191 O188 1.320 . S
C191 O189 1.214 . S
O192 Cd184 2.277 . S
O192 C187 1.209 . S
C193 O190 1.258 . S
C193 O195 1.282 . S
O194 Cd186 2.277 . S
O194 C187 1.226 . S
O195 Cd186 2.356 . S
O195 C193 1.282 . S
C196 O197 1.306 . S
C196 O199 1.160 . S
O197 C196 1.306 . S
O197 Cd198 2.228 . S
Cd198 O197 2.228 . S
Cd198 O202 2.273 . S
Cd198 O206 2.277 . S
O199 C196 1.160 . S
O199 Cd200 2.203 . S
Cd200 O199 2.203 . S
Cd200 O202 2.411 . S
Cd200 O203 2.333 . S
Cd200 O204 2.352 . S
Cd200 O208 2.277 . S
Cd200 O209 2.356 . S
C201 O206 1.209 . S
C201 O208 1.226 . S
O202 Cd198 2.273 . S
O202 Cd200 2.411 . S
O202 C205 1.320 . S
O203 Cd200 2.333 . S
O203 C205 1.214 . S
O204 Cd200 2.352 . S
O204 C207 1.258 . S
C205 O202 1.320 . S
C205 O203 1.214 . S
O206 Cd198 2.277 . S
O206 C201 1.209 . S
C207 O204 1.258 . S
C207 O209 1.282 . S
O208 Cd200 2.277 . S
O208 C201 1.226 . S
O209 Cd200 2.356 . S
O209 C207 1.282 . S
C210 O211 1.306 . S
C210 O213 1.160 . S
O211 C210 1.306 . S
O211 Cd212 2.228 . S
Cd212 O211 2.228 . S
Cd212 O216 2.273 . S
Cd212 O220 2.277 . S
O213 C210 1.160 . S
O213 Cd214 2.203 . S
Cd214 O213 2.203 . S
Cd214 O216 2.411 . S
Cd214 O217 2.333 . S
Cd214 O218 2.352 . S
Cd214 O222 2.277 . S
Cd214 O223 2.356 . S
C215 O220 1.209 . S
C215 O222 1.226 . S
O216 Cd212 2.273 . S
O216 Cd214 2.411 . S
O216 C219 1.320 . S
O217 Cd214 2.333 . S
O217 C219 1.214 . S
O218 Cd214 2.352 . S
O218 C221 1.258 . S
C219 O216 1.320 . S
C219 O217 1.214 . S
O220 Cd212 2.277 . S
O220 C215 1.209 . S
C221 O218 1.258 . S
C221 O223 1.282 . S
O222 Cd214 2.277 . S
O222 C215 1.226 . S
O223 Cd214 2.356 . S
O223 C221 1.282 . S
C224 C225 1.391 . S
C224 C226 1.394 . S
C224 H240 0.931 . S
C225 C224 1.391 . S
C225 C229 1.376 . S
C226 C224 1.394 . S
C226 C227 1.369 1_554 S
C226 C230 1.531 . S
C227 C226 1.369 1_556 S
C227 C228 1.410 . S
C227 C235 1.503 . S
C228 C227 1.410 . S
C228 C229 1.392 1_556 S
C228 C231 1.511 . S
C229 C225 1.376 . S
C229 C228 1.392 1_554 S
C229 H241 0.929 . S
C230 C226 1.531 . S
C230 H242 0.960 1_554 S
C230 H243 0.962 . S
C230 H244 0.960 . S
C231 C228 1.511 . S
C231 H245 0.961 . S
C231 H246 0.961 . S
C231 H247 0.961 . S
C232 C233 1.370 . S
C232 C234 1.363 . S
C232 H248 0.931 . S
C233 C232 1.370 . S
C233 C237 1.408 . S
C234 C232 1.363 . S
C234 C235 1.370 . S
C234 C238 1.524 1_556 S
C235 C227 1.503 . S
C235 C234 1.370 . S
C235 C236 1.403 . S
C236 C235 1.403 . S
C236 C237 1.404 . S
C236 C239 1.539 . S
C237 C233 1.408 . S
C237 C236 1.404 . S
C237 H249 0.930 . S
C238 C234 1.524 1_554 S
C238 H250 0.956 . S
C238 H251 0.961 . S
C238 H252 0.961 . S
C239 C236 1.539 . S
C239 H253 0.958 . S
C239 H254 0.961 . S
C239 H255 0.960 . S
H240 C224 0.931 . S
H241 C229 0.929 . S
H242 C230 0.960 1_556 S
H243 C230 0.962 . S
H244 C230 0.960 . S
H245 C231 0.961 . S
H246 C231 0.961 . S
H247 C231 0.961 . S
H248 C232 0.931 . S
H249 C237 0.930 . S
H250 C238 0.956 . S
H251 C238 0.961 . S
H252 C238 0.961 . S
H253 C239 0.958 . S
H254 C239 0.961 . S
H255 C239 0.960 . S
C256 C257 1.391 . S
C256 C258 1.394 . S
C256 H272 0.931 . S
C257 C256 1.391 . S
C257 C261 1.376 . S
C258 C256 1.394 . S
C258 C259 1.369 . S
C258 C262 1.531 . S
C259 C258 1.369 . S
C259 C260 1.410 . S
C259 C267 1.503 . S
C260 C259 1.410 . S
C260 C261 1.392 . S
C260 C263 1.511 . S
C261 C257 1.376 . S
C261 C260 1.392 . S
C261 H273 0.929 . S
C262 C258 1.531 . S
C262 H274 0.960 . S
C262 H275 0.962 . S
C262 H276 0.960 . S
C263 C260 1.511 . S
C263 H277 0.961 . S
C263 H278 0.961 . S
C263 H279 0.961 . S
C264 C265 1.370 . S
C264 C266 1.363 . S
C264 H280 0.931 . S
C265 C264 1.370 . S
C265 C269 1.408 . S
C266 C264 1.363 . S
C266 C267 1.370 . S
C266 C270 1.524 . S
C267 C259 1.503 . S
C267 C266 1.370 . S
C267 C268 1.403 . S
C268 C267 1.403 . S
C268 C269 1.404 . S
C268 C271 1.539 . S
C269 C265 1.408 . S
C269 C268 1.404 . S
C269 H281 0.930 . S
C270 C266 1.524 . S
C270 H282 0.956 . S
C270 H283 0.961 . S
C270 H284 0.961 . S
C271 C268 1.539 . S
C271 H285 0.958 . S
C271 H286 0.961 . S
C271 H287 0.960 . S
H272 C256 0.931 . S
H273 C261 0.929 . S
H274 C262 0.960 . S
H275 C262 0.962 . S
H276 C262 0.960 . S
H277 C263 0.961 . S
H278 C263 0.961 . S
H279 C263 0.961 . S
H280 C264 0.931 . S
H281 C269 0.930 . S
H282 C270 0.956 . S
H283 C270 0.961 . S
H284 C270 0.961 . S
H285 C271 0.958 . S
H286 C271 0.961 . S
H287 C271 0.960 . S
C288 C289 1.391 . S
C288 C290 1.394 . S
C288 H304 0.931 . S
C289 C288 1.391 . S
C289 C293 1.376 . S
C290 C288 1.394 . S
C290 C291 1.369 . S
C290 C294 1.531 . S
C291 C290 1.369 . S
C291 C292 1.410 1_556 S
C291 C299 1.503 1_556 S
C292 C291 1.410 1_554 S
C292 C293 1.392 1_554 S
C292 C295 1.511 . S
C293 C289 1.376 . S
C293 C292 1.392 1_556 S
C293 H305 0.923 1_556 S
C294 C290 1.531 . S
C294 H306 0.960 . S
C294 H307 0.962 . S
C294 H308 0.960 . S
C295 C292 1.511 . S
C295 H309 0.961 . S
C295 H310 0.961 . S
C295 H311 0.961 . S
C296 C297 1.370 . S
C296 C298 1.363 . S
C296 H312 0.931 . S
C297 C296 1.370 . S
C297 C301 1.408 . S
C298 C296 1.363 . S
C298 C299 1.370 . S
C298 C302 1.524 . S
C299 C291 1.503 1_554 S
C299 C298 1.370 . S
C299 C300 1.403 . S
C300 C299 1.403 . S
C300 C301 1.404 . S
C300 C303 1.539 1_554 S
C301 C297 1.408 . S
C301 C300 1.404 . S
C301 H313 0.930 . S
C302 C298 1.524 . S
C302 H314 0.956 . S
C302 H315 0.961 . S
C302 H316 0.961 . S
C303 C300 1.539 1_556 S
C303 H317 0.958 . S
C303 H318 0.961 . S
C303 H319 0.960 . S
H304 C288 0.931 . S
H305 C293 0.923 1_554 S
H306 C294 0.960 . S
H307 C294 0.962 . S
H308 C294 0.960 . S
H309 C295 0.961 . S
H310 C295 0.961 . S
H311 C295 0.961 . S
H312 C296 0.931 . S
H313 C301 0.930 . S
H314 C302 0.956 . S
H315 C302 0.961 . S
H316 C302 0.961 . S
H317 C303 0.958 . S
H318 C303 0.961 . S
H319 C303 0.960 . S
C320 C321 1.391 . S
C320 C322 1.394 . S
C320 H336 0.931 . S
C321 C320 1.391 . S
C321 C325 1.376 . S
C322 C320 1.394 . S
C322 C323 1.369 . S
C322 C326 1.531 . S
C323 C322 1.369 . S
C323 C324 1.410 . S
C323 C331 1.503 . S
C324 C323 1.410 . S
C324 C325 1.392 . S
C324 C327 1.511 . S
C325 C321 1.376 . S
C325 C324 1.392 . S
C325 H337 0.929 . S
C326 C322 1.531 . S
C326 H338 0.960 . S
C326 H339 0.962 . S
C326 H340 0.960 . S
C327 C324 1.511 . S
C327 H341 0.961 . S
C327 H342 0.961 . S
C327 H343 0.961 . S
C328 C329 1.370 . S
C328 C330 1.363 . S
C328 H344 0.931 . S
C329 C328 1.370 . S
C329 C333 1.408 . S
C330 C328 1.363 . S
C330 C331 1.370 . S
C330 C334 1.524 . S
C331 C323 1.503 . S
C331 C330 1.370 . S
C331 C332 1.403 . S
C332 C331 1.403 . S
C332 C333 1.404 . S
C332 C335 1.539 . S
C333 C329 1.408 . S
C333 C332 1.404 . S
C333 H345 0.930 . S
C334 C330 1.524 . S
C334 H346 0.956 . S
C334 H347 0.961 . S
C334 H348 0.961 . S
C335 C332 1.539 . S
C335 H349 0.958 . S
C335 H350 0.961 . S
C335 H351 0.960 . S
H336 C320 0.931 . S
H337 C325 0.929 . S
H338 C326 0.960 . S
H339 C326 0.962 . S
H340 C326 0.960 . S
H341 C327 0.961 . S
H342 C327 0.961 . S
H343 C327 0.961 . S
H344 C328 0.931 . S
H345 C333 0.930 . S
H346 C334 0.956 . S
H347 C334 0.961 . S
H348 C334 0.961 . S
H349 C335 0.958 . S
H350 C335 0.961 . S
H351 C335 0.960 . S
C352 C353 1.391 . S
C352 C354 1.394 . S
C352 H368 0.931 . S
C353 C352 1.391 . S
C353 C357 1.376 . S
C354 C352 1.394 . S
C354 C355 1.369 . S
C354 C358 1.531 . S
C355 C354 1.369 . S
C355 C356 1.410 1_554 S
C355 C363 1.503 1_554 S
C356 C355 1.410 1_556 S
C356 C357 1.392 1_556 S
C356 C359 1.511 . S
C357 C353 1.376 . S
C357 C356 1.392 1_554 S
C357 H369 0.929 1_554 S
C358 C354 1.531 . S
C358 H370 0.960 . S
C358 H371 0.962 . S
C358 H372 0.960 . S
C359 C356 1.511 . S
C359 H373 0.961 . S
C359 H374 0.961 . S
C359 H375 0.961 . S
C360 C361 1.370 . S
C360 C362 1.363 . S
C360 H376 0.931 . S
C361 C360 1.370 . S
C361 C365 1.408 . S
C362 C360 1.363 . S
C362 C363 1.370 . S
C362 C366 1.524 . S
C363 C355 1.503 1_556 S
C363 C362 1.370 . S
C363 C364 1.403 . S
C364 C363 1.403 . S
C364 C365 1.404 . S
C364 C367 1.539 . S
C365 C361 1.408 . S
C365 C364 1.404 . S
C365 H377 0.930 . S
C366 C362 1.524 . S
C366 H378 0.956 . S
C366 H379 0.961 . S
C366 H380 0.961 . S
C367 C364 1.539 . S
C367 H381 0.958 1_556 S
C367 H382 0.961 . S
C367 H383 0.960 . S
H368 C352 0.931 . S
H369 C357 0.929 1_556 S
H370 C358 0.960 . S
H371 C358 0.962 . S
H372 C358 0.960 . S
H373 C359 0.961 . S
H374 C359 0.961 . S
H375 C359 0.961 . S
H376 C360 0.931 . S
H377 C365 0.930 . S
H378 C366 0.956 . S
H379 C366 0.961 . S
H380 C366 0.961 . S
H381 C367 0.958 1_554 S
H382 C367 0.961 . S
H383 C367 0.960 . S
C384 C385 1.391 . S
C384 C386 1.394 . S
C384 H400 0.931 . S
C385 C384 1.391 . S
C385 C389 1.376 . S
C386 C384 1.394 . S
C386 C387 1.369 . S
C386 C390 1.531 . S
C387 C386 1.369 . S
C387 C388 1.410 . S
C387 C395 1.503 . S
C388 C387 1.410 . S
C388 C389 1.392 . S
C388 C391 1.511 . S
C389 C385 1.376 . S
C389 C388 1.392 . S
C389 H401 0.929 . S
C390 C386 1.531 . S
C390 H402 0.960 . S
C390 H403 0.962 . S
C390 H404 0.960 . S
C391 C388 1.511 . S
C391 H405 0.961 . S
C391 H406 0.961 . S
C391 H407 0.961 . S
C392 C393 1.370 . S
C392 C394 1.363 . S
C392 H408 0.931 . S
C393 C392 1.370 . S
C393 C397 1.408 . S
C394 C392 1.363 . S
C394 C395 1.370 . S
C394 C398 1.524 . S
C395 C387 1.503 . S
C395 C394 1.370 . S
C395 C396 1.403 . S
C396 C395 1.403 . S
C396 C397 1.404 . S
C396 C399 1.539 . S
C397 C393 1.408 . S
C397 C396 1.404 . S
C397 H409 0.930 . S
C398 C394 1.524 . S
C398 H410 0.956 . S
C398 H411 0.961 . S
C398 H412 0.961 . S
C399 C396 1.539 . S
C399 H413 0.958 . S
C399 H414 0.961 . S
C399 H415 0.960 . S
H400 C384 0.931 . S
H401 C389 0.929 . S
H402 C390 0.960 . S
H403 C390 0.962 . S
H404 C390 0.960 . S
H405 C391 0.961 . S
H406 C391 0.961 . S
H407 C391 0.961 . S
H408 C392 0.931 . S
H409 C397 0.930 . S
H410 C398 0.956 . S
H411 C398 0.961 . S
H412 C398 0.961 . S
H413 C399 0.958 . S
H414 C399 0.961 . S
H415 C399 0.960 . S
C416 C417 1.391 . S
C416 C418 1.394 . S
C416 H432 0.931 . S
C417 C416 1.391 . S
C417 C421 1.376 . S
C418 C416 1.394 . S
C418 C419 1.369 . S
C418 C422 1.531 . S
C419 C418 1.369 . S
C419 C420 1.410 1_556 S
C419 C427 1.503 1_556 S
C420 C419 1.410 1_554 S
C420 C421 1.392 1_554 S
C420 C423 1.511 . S
C421 C417 1.376 . S
C421 C420 1.392 1_556 S
C421 H433 0.929 1_556 S
C422 C418 1.531 . S
C422 H434 0.960 . S
C422 H435 0.962 . S
C422 H436 0.960 . S
C423 C420 1.511 . S
C423 H437 0.961 . S
C423 H438 0.961 . S
C423 H439 0.961 . S
C424 C425 1.370 . S
C424 C426 1.363 . S
C424 H440 0.931 . S
C425 C424 1.370 . S
C425 C429 1.408 . S
C426 C424 1.363 . S
C426 C427 1.370 . S
C426 C430 1.524 . S
C427 C419 1.503 1_554 S
C427 C426 1.370 . S
C427 C428 1.403 . S
C428 C427 1.403 . S
C428 C429 1.404 . S
C428 C431 1.539 1_554 S
C429 C425 1.408 . S
C429 C428 1.404 . S
C429 H441 0.930 . S
C430 C426 1.524 . S
C430 H442 0.956 . S
C430 H443 0.961 . S
C430 H444 0.961 . S
C431 C428 1.539 1_556 S
C431 H445 0.958 . S
C431 H446 0.961 . S
C431 H447 0.960 . S
H432 C416 0.931 . S
H433 C421 0.929 1_554 S
H434 C422 0.960 . S
H435 C422 0.962 . S
H436 C422 0.960 . S
H437 C423 0.961 . S
H438 C423 0.961 . S
H439 C423 0.961 . S
H440 C424 0.931 . S
H441 C429 0.930 . S
H442 C430 0.956 . S
H443 C430 0.961 . S
H444 C430 0.961 . S
H445 C431 0.958 . S
H446 C431 0.961 . S
H447 C431 0.960 . S
C448 C449 1.391 . S
C448 C450 1.394 . S
C448 H464 0.931 . S
C449 C448 1.391 . S
C449 C453 1.376 . S
C450 C448 1.394 . S
C450 C451 1.369 . S
C450 C454 1.531 . S
C451 C450 1.369 . S
C451 C452 1.410 . S
C451 C459 1.503 . S
C452 C451 1.410 . S
C452 C453 1.392 . S
C452 C455 1.511 . S
C453 C449 1.376 . S
C453 C452 1.392 . S
C453 H465 0.929 . S
C454 C450 1.531 . S
C454 H466 0.960 . S
C454 H467 0.962 . S
C454 H468 0.960 . S
C455 C452 1.511 . S
C455 H469 0.961 . S
C455 H470 0.961 . S
C455 H471 0.961 . S
C456 C457 1.370 . S
C456 C458 1.363 . S
C456 H472 0.931 . S
C457 C456 1.370 . S
C457 C461 1.408 . S
C458 C456 1.363 . S
C458 C459 1.370 . S
C458 C462 1.524 . S
C459 C451 1.503 . S
C459 C458 1.370 . S
C459 C460 1.403 . S
C460 C459 1.403 . S
C460 C461 1.404 . S
C460 C463 1.539 . S
C461 C457 1.408 . S
C461 C460 1.404 . S
C461 H473 0.930 . S
C462 C458 1.524 . S
C462 H474 0.956 . S
C462 H475 0.961 . S
C462 H476 0.961 . S
C463 C460 1.539 . S
C463 H477 0.958 . S
C463 H478 0.961 . S
C463 H479 0.960 . S
H464 C448 0.931 . S
H465 C453 0.929 . S
H466 C454 0.960 . S
H467 C454 0.962 . S
H468 C454 0.960 . S
H469 C455 0.961 . S
H470 C455 0.961 . S
H471 C455 0.961 . S
H472 C456 0.931 . S
H473 C461 0.930 . S
H474 C462 0.956 . S
H475 C462 0.961 . S
H476 C462 0.961 . S
H477 C463 0.958 . S
H478 C463 0.961 . S
H479 C463 0.960 . S
C480 C481 1.391 . S
C480 C482 1.394 . S
C480 H496 0.931 . S
C481 C480 1.391 . S
C481 C485 1.376 . S
C482 C480 1.394 . S
C482 C483 1.369 . S
C482 C486 1.531 . S
C483 C482 1.369 . S
C483 C484 1.410 . S
C483 C491 1.498 1_544 S
C484 C483 1.410 . S
C484 C485 1.392 . S
C484 C487 1.511 . S
C485 C481 1.376 . S
C485 C484 1.392 . S
C485 H497 0.929 . S
C486 C482 1.531 . S
C486 H498 0.960 1_545 S
C486 H499 0.962 1_554 S
C486 H500 0.960 . S
C487 C484 1.511 . S
C487 H501 0.961 . S
C487 H502 0.961 1_544 S
C487 H503 0.961 . S
C488 C489 1.370 . S
C488 C490 1.363 . S
C488 H504 0.931 . S
C489 C488 1.370 . S
C489 C493 1.408 1_556 S
C490 C488 1.363 . S
C490 C491 1.384 . S
C490 C494 1.524 1_565 S
C491 C483 1.498 1_566 S
C491 C490 1.384 . S
C491 C492 1.394 1_556 S
C492 C491 1.394 1_554 S
C492 C493 1.404 . S
C492 C495 1.539 . S
C493 C489 1.408 1_554 S
C493 C492 1.404 . S
C493 H505 0.930 . S
C494 C490 1.524 1_545 S
C494 H506 0.956 . S
C494 H507 0.961 . S
C494 H508 0.961 1_545 S
C495 C492 1.539 . S
C495 H509 0.958 . S
C495 H510 0.961 . S
C495 H511 0.960 . S
H496 C480 0.931 . S
H497 C485 0.929 . S
H498 C486 0.960 1_565 S
H499 C486 0.962 1_556 S
H500 C486 0.960 . S
H501 C487 0.961 . S
H502 C487 0.961 1_566 S
H503 C487 0.961 . S
H504 C488 0.931 . S
H505 C493 0.930 . S
H506 C494 0.956 . S
H507 C494 0.961 . S
H508 C494 0.961 1_565 S
H509 C495 0.958 . S
H510 C495 0.961 . S
H511 C495 0.960 . S
C512 C513 1.391 . S
C512 C514 1.394 . S
C512 H528 0.931 . S
C513 C512 1.391 . S
C513 C517 1.376 . S
C514 C512 1.394 . S
C514 C515 1.369 . S
C514 C518 1.531 . S
C515 C514 1.369 . S
C515 C516 1.410 . S
C515 C523 1.503 1_565 S
C516 C515 1.410 . S
C516 C517 1.392 . S
C516 C519 1.511 . S
C517 C513 1.376 . S
C517 C516 1.392 . S
C517 H529 0.929 . S
C518 C514 1.531 . S
C518 H530 0.961 . S
C518 H531 0.962 . S
C518 H532 0.960 . S
C519 C516 1.511 . S
C519 H533 0.961 . S
C519 H534 0.956 1_565 S
C519 H535 0.961 . S
C520 C521 1.370 . S
C520 C522 1.363 . S
C520 H536 0.931 . S
C521 C520 1.370 . S
C521 C525 1.408 . S
C522 C520 1.363 . S
C522 C523 1.370 . S
C522 C526 1.524 . S
C523 C515 1.503 1_545 S
C523 C522 1.370 . S
C523 C524 1.403 . S
C524 C523 1.403 . S
C524 C525 1.404 . S
C524 C527 1.517 1_545 S
C525 C521 1.408 . S
C525 C524 1.404 . S
C525 H537 0.930 . S
C526 C522 1.524 . S
C526 H538 0.956 . S
C526 H539 0.961 . S
C526 H540 0.961 . S
C527 C524 1.517 1_565 S
C527 H541 0.965 . S
C527 H542 0.950 1_565 S
C527 H543 0.988 . S
H528 C512 0.931 . S
H529 C517 0.929 . S
H530 C518 0.961 . S
H531 C518 0.962 . S
H532 C518 0.960 . S
H533 C519 0.961 . S
H534 C519 0.956 1_545 S
H535 C519 0.961 . S
H536 C520 0.931 . S
H537 C525 0.930 . S
H538 C526 0.956 . S
H539 C526 0.961 . S
H540 C526 0.961 . S
H541 C527 0.965 . S
H542 C527 0.950 1_545 S
H543 C527 0.988 . S
C544 C545 1.391 . S
C544 C546 1.394 . S
C544 H560 0.931 . S
C545 C544 1.391 . S
C545 C549 1.376 . S
C546 C544 1.394 . S
C546 C547 1.369 . S
C546 C550 1.531 1_556 S
C547 C546 1.369 . S
C547 C548 1.410 . S
C547 C555 1.503 1_566 S
C548 C547 1.410 . S
C548 C549 1.392 . S
C548 C551 1.511 . S
C549 C545 1.376 . S
C549 C548 1.392 . S
C549 H561 0.929 . S
C550 C546 1.531 1_554 S
C550 H562 0.960 . S
C550 H563 0.962 . S
C550 H564 0.960 . S
C551 C548 1.511 . S
C551 H565 0.961 . S
C551 H566 0.961 1_565 S
C551 H567 0.961 . S
C552 C553 1.370 . S
C552 C554 1.363 . S
C552 H568 0.931 . S
C553 C552 1.370 . S
C553 C557 1.408 . S
C554 C552 1.363 . S
C554 C555 1.370 . S
C554 C558 1.524 1_554 S
C555 C547 1.503 1_544 S
C555 C554 1.370 . S
C555 C556 1.403 . S
C556 C555 1.403 . S
C556 C557 1.404 . S
C556 C559 1.539 1_545 S
C557 C553 1.408 . S
C557 C556 1.404 . S
C557 H569 0.930 . S
C558 C554 1.524 1_556 S
C558 H570 0.956 . S
C558 H571 0.961 . S
C558 H572 0.961 . S
C559 C556 1.539 1_565 S
C559 H573 0.958 . S
C559 H574 0.961 . S
C559 H575 0.960 . S
H560 C544 0.931 . S
H561 C549 0.929 . S
H562 C550 0.960 . S
H563 C550 0.962 . S
H564 C550 0.960 . S
H565 C551 0.961 . S
H566 C551 0.961 1_545 S
H567 C551 0.961 . S
H568 C552 0.931 . S
H569 C557 0.930 . S
H570 C558 0.956 . S
H571 C558 0.961 . S
H572 C558 0.961 . S
H573 C559 0.958 . S
H574 C559 0.961 . S
H575 C559 0.960 . S
C576 C577 1.391 . S
C576 C578 1.394 . S
C576 H592 0.931 . S
C577 C576 1.391 . S
C577 C581 1.376 . S
C578 C576 1.394 . S
C578 C579 1.369 . S
C578 C582 1.531 1_545 S
C579 C578 1.369 . S
C579 C580 1.410 . S
C579 C587 1.503 1_545 S
C580 C579 1.410 . S
C580 C581 1.392 . S
C580 C583 1.511 . S
C581 C577 1.376 . S
C581 C580 1.392 . S
C581 H593 0.929 . S
C582 C578 1.531 1_565 S
C582 H594 0.960 . S
C582 H595 0.962 . S
C582 H596 0.960 . S
C583 C580 1.511 . S
C583 H597 0.961 . S
C583 H598 0.961 . S
C583 H599 0.961 . S
C584 C585 1.370 . S
C584 C586 1.363 . S
C584 H600 0.931 . S
C585 C584 1.370 . S
C585 C589 1.408 . S
C586 C584 1.363 . S
C586 C587 1.370 . S
C586 C590 1.524 1_565 S
C587 C579 1.503 1_565 S
C587 C586 1.370 . S
C587 C588 1.403 . S
C588 C587 1.403 . S
C588 C589 1.404 . S
C588 C591 1.539 . S
C589 C585 1.408 . S
C589 C588 1.404 . S
C589 H601 0.930 . S
C590 C586 1.524 1_545 S
C590 H602 0.956 . S
C590 H603 0.961 . S
C590 H604 0.961 . S
C591 C588 1.539 . S
C591 H605 0.958 . S
C591 H606 0.961 . S
C591 H607 0.960 . S
H592 C576 0.931 . S
H593 C581 0.929 . S
H594 C582 0.960 . S
H595 C582 0.962 . S
H596 C582 0.960 . S
H597 C583 0.961 . S
H598 C583 0.961 . S
H599 C583 0.961 . S
H600 C584 0.931 . S
H601 C589 0.930 . S
H602 C590 0.956 . S
H603 C590 0.961 . S
H604 C590 0.961 . S
H605 C591 0.958 . S
H606 C591 0.961 . S
H607 C591 0.960 . S
C608 C609 1.391 . S
C608 C610 1.394 . S
C608 H624 0.931 . S
C609 C608 1.391 . S
C609 C613 1.376 1_556 S
C610 C608 1.394 . S
C610 C611 1.369 . S
C610 C614 1.531 . S
C611 C610 1.369 . S
C611 C612 1.410 1_556 S
C611 C619 1.503 1_556 S
C612 C611 1.410 1_554 S
C612 C613 1.392 . S
C612 C615 1.511 . S
C613 C609 1.376 1_554 S
C613 C612 1.392 . S
C613 H625 0.929 . S
C614 C610 1.531 . S
C614 H626 0.960 . S
C614 H627 0.962 . S
C614 H628 0.960 . S
C615 C612 1.511 . S
C615 H629 0.961 . S
C615 H630 0.961 . S
C615 H631 0.961 . S
C616 C617 1.370 . S
C616 C618 1.363 . S
C616 H632 0.931 . S
C617 C616 1.370 . S
C617 C621 1.408 . S
C618 C616 1.363 . S
C618 C619 1.370 . S
C618 C622 1.524 . S
C619 C611 1.503 1_554 S
C619 C618 1.370 . S
C619 C620 1.403 1_554 S
C620 C619 1.403 1_556 S
C620 C621 1.404 1_556 S
C620 C623 1.539 . S
C621 C617 1.408 . S
C621 C620 1.404 1_554 S
C621 H633 0.930 . S
C622 C618 1.524 . S
C622 H634 0.956 . S
C622 H635 0.961 . S
C622 H636 0.961 . S
C623 C620 1.539 . S
C623 H637 0.958 . S
C623 H638 0.961 . S
C623 H639 0.960 . S
H624 C608 0.931 . S
H625 C613 0.929 . S
H626 C614 0.960 . S
H627 C614 0.962 . S
H628 C614 0.960 . S
H629 C615 0.961 . S
H630 C615 0.961 . S
H631 C615 0.961 . S
H632 C616 0.931 . S
H633 C621 0.930 . S
H634 C622 0.956 . S
H635 C622 0.961 . S
H636 C622 0.961 . S
H637 C623 0.958 . S
H638 C623 0.961 . S
H639 C623 0.960 . S
C640 C641 1.391 . S
C640 C642 1.394 . S
C640 H656 0.931 . S
C641 C640 1.391 . S
C641 C645 1.376 . S
C642 C640 1.394 . S
C642 C643 1.369 . S
C642 C646 1.531 . S
C643 C642 1.369 . S
C643 C644 1.410 . S
C643 C651 1.503 . S
C644 C643 1.410 . S
C644 C645 1.392 . S
C644 C647 1.511 . S
C645 C641 1.376 . S
C645 C644 1.392 . S
C645 H657 0.929 . S
C646 C642 1.531 . S
C646 H658 0.960 . S
C646 H659 0.962 . S
C646 H660 0.960 . S
C647 C644 1.511 . S
C647 H661 0.961 . S
C647 H662 0.961 . S
C647 H663 0.961 . S
C648 C649 1.370 . S
C648 C650 1.363 . S
C648 H664 0.931 . S
C649 C648 1.370 . S
C649 C653 1.408 . S
C650 C648 1.363 . S
C650 C651 1.370 . S
C650 C654 1.524 . S
C651 C643 1.503 . S
C651 C650 1.370 . S
C651 C652 1.403 . S
C652 C651 1.403 . S
C652 C653 1.404 . S
C652 C655 1.539 . S
C653 C649 1.408 . S
C653 C652 1.404 . S
C653 H665 0.930 . S
C654 C650 1.524 . S
C654 H666 0.956 . S
C654 H667 0.961 . S
C654 H668 0.961 . S
C655 C652 1.539 . S
C655 H669 0.958 . S
C655 H670 0.961 . S
C655 H671 0.960 . S
H656 C640 0.931 . S
H657 C645 0.929 . S
H658 C646 0.960 . S
H659 C646 0.962 . S
H660 C646 0.960 . S
H661 C647 0.961 . S
H662 C647 0.961 . S
H663 C647 0.961 . S
H664 C648 0.931 . S
H665 C653 0.930 . S
H666 C654 0.956 . S
H667 C654 0.961 . S
H668 C654 0.961 . S
H669 C655 0.958 . S
H670 C655 0.961 . S
H671 C655 0.960 . S
C672 C673 1.391 . S
C672 C674 1.394 . S
C672 H688 0.931 . S
C673 C672 1.391 . S
C673 C677 1.376 . S
C674 C672 1.394 . S
C674 C675 1.369 . S
C674 C678 1.531 . S
C675 C674 1.369 . S
C675 C676 1.410 . S
C675 C683 1.503 1_554 S
C676 C675 1.410 . S
C676 C677 1.392 . S
C676 C679 1.511 1_554 S
C677 C673 1.376 . S
C677 C676 1.392 . S
C677 H689 0.929 . S
C678 C674 1.531 . S
C678 H690 0.960 . S
C678 H691 0.962 . S
C678 H692 0.960 . S
C679 C676 1.511 1_556 S
C679 H693 0.961 . S
C679 H694 0.961 . S
C679 H695 0.961 . S
C680 C681 1.370 . S
C680 C682 1.363 . S
C680 H696 0.931 . S
C681 C680 1.370 . S
C681 C685 1.408 . S
C682 C680 1.363 . S
C682 C683 1.370 . S
C682 C686 1.524 . S
C683 C675 1.503 1_556 S
C683 C682 1.370 . S
C683 C684 1.403 . S
C684 C683 1.403 . S
C684 C685 1.404 . S
C684 C687 1.539 1_556 S
C685 C681 1.408 . S
C685 C684 1.404 . S
C685 H697 0.930 . S
C686 C682 1.524 . S
C686 H698 0.956 . S
C686 H699 0.961 . S
C686 H700 0.961 . S
C687 C684 1.539 1_554 S
C687 H701 0.958 . S
C687 H702 0.961 . S
C687 H703 0.960 . S
H688 C672 0.931 . S
H689 C677 0.929 . S
H690 C678 0.960 . S
H691 C678 0.962 . S
H692 C678 0.960 . S
H693 C679 0.961 . S
H694 C679 0.961 . S
H695 C679 0.961 . S
H696 C680 0.931 . S
H697 C685 0.930 . S
H698 C686 0.956 . S
H699 C686 0.961 . S
H700 C686 0.961 . S
H701 C687 0.958 . S
H702 C687 0.961 . S
H703 C687 0.960 . S
C704 C705 1.391 . S
C704 C706 1.394 . S
C704 H720 0.931 . S
C705 C704 1.391 . S
C705 C709 1.376 . S
C706 C704 1.394 . S
C706 C707 1.369 . S
C706 C710 1.531 . S
C707 C706 1.369 . S
C707 C708 1.410 . S
C707 C715 1.503 . S
C708 C707 1.410 . S
C708 C709 1.392 . S
C708 C711 1.511 . S
C709 C705 1.376 . S
C709 C708 1.392 . S
C709 H721 0.929 . S
C710 C706 1.531 . S
C710 H722 0.960 . S
C710 H723 0.962 . S
C710 H724 0.960 . S
C711 C708 1.511 . S
C711 H725 0.961 . S
C711 H726 0.961 . S
C711 H727 0.961 . S
C712 C713 1.370 . S
C712 C714 1.363 . S
C712 H728 0.931 . S
C713 C712 1.370 . S
C713 C717 1.408 . S
C714 C712 1.363 . S
C714 C715 1.370 . S
C714 C718 1.524 . S
C715 C707 1.503 . S
C715 C714 1.370 . S
C715 C716 1.403 . S
C716 C715 1.403 . S
C716 C717 1.404 . S
C716 C719 1.539 . S
C717 C713 1.408 . S
C717 C716 1.404 . S
C717 H729 0.930 . S
C718 C714 1.524 . S
C718 H730 0.956 . S
C718 H731 0.961 . S
C718 H732 0.961 . S
C719 C716 1.539 . S
C719 H733 0.958 . S
C719 H734 0.961 . S
C719 H735 0.960 . S
H720 C704 0.931 . S
H721 C709 0.929 . S
H722 C710 0.960 . S
H723 C710 0.962 . S
H724 C710 0.960 . S
H725 C711 0.961 . S
H726 C711 0.961 . S
H727 C711 0.961 . S
H728 C712 0.931 . S
H729 C717 0.930 . S
H730 C718 0.956 . S
H731 C718 0.961 . S
H732 C718 0.961 . S
H733 C719 0.958 . S
H734 C719 0.961 . S
H735 C719 0.960 . S
C736 C737 1.391 . S
C736 C738 1.394 . S
C736 H752 0.931 . S
C737 C736 1.391 . S
C737 C741 1.376 . S
C738 C736 1.394 . S
C738 C739 1.369 . S
C738 C742 1.531 . S
C739 C738 1.369 . S
C739 C740 1.410 . S
C739 C747 1.503 . S
C740 C739 1.410 . S
C740 C741 1.392 . S
C740 C743 1.511 . S
C741 C737 1.376 . S
C741 C740 1.392 . S
C741 H753 0.929 . S
C742 C738 1.531 . S
C742 H754 0.960 . S
C742 H755 0.962 . S
C742 H756 0.960 . S
C743 C740 1.511 . S
C743 H757 0.961 . S
C743 H758 0.961 . S
C743 H759 0.961 . S
C744 C745 1.370 . S
C744 C746 1.363 . S
C744 H760 0.931 . S
C745 C744 1.370 . S
C745 C749 1.408 . S
C746 C744 1.363 . S
C746 C747 1.370 . S
C746 C750 1.524 . S
C747 C739 1.503 . S
C747 C746 1.370 . S
C747 C748 1.403 . S
C748 C747 1.403 . S
C748 C749 1.404 . S
C748 C751 1.539 . S
C749 C745 1.408 . S
C749 C748 1.404 . S
C749 H761 0.930 . S
C750 C746 1.524 . S
C750 H762 0.956 . S
C750 H763 0.961 . S
C750 H764 0.961 . S
C751 C748 1.539 . S
C751 H765 0.958 . S
C751 H766 0.961 . S
C751 H767 0.960 . S
H752 C736 0.931 . S
H753 C741 0.929 . S
H754 C742 0.960 . S
H755 C742 0.962 . S
H756 C742 0.960 . S
H757 C743 0.961 . S
H758 C743 0.961 . S
H759 C743 0.961 . S
H760 C744 0.931 . S
H761 C749 0.930 . S
H762 C750 0.956 . S
H763 C750 0.961 . S
H764 C750 0.961 . S
H765 C751 0.958 . S
H766 C751 0.961 . S
H767 C751 0.960 . S
C768 C769 1.391 . S
C768 C770 1.394 . S
C768 H784 0.931 . S
C769 C768 1.391 . S
C769 C773 1.376 . S
C770 C768 1.394 . S
C770 C771 1.369 . S
C770 C774 1.531 . S
C771 C770 1.369 . S
C771 C772 1.410 . S
C771 C779 1.503 1_655 S
C772 C771 1.410 . S
C772 C773 1.392 . S
C772 C775 1.527 . S
C773 C769 1.376 . S
C773 C772 1.392 . S
C773 H785 0.929 . S
C774 C770 1.531 . S
C774 H786 0.960 1_655 S
C774 H787 0.962 . S
C774 H788 0.960 . S
C775 C772 1.527 . S
C775 H789 0.976 . S
C775 H790 0.934 1_655 S
C775 H791 0.958 1_655 S
C776 C777 1.370 . S
C776 C778 1.363 . S
C776 H792 0.931 . S
C777 C776 1.370 . S
C777 C781 1.408 . S
C778 C776 1.363 . S
C778 C779 1.370 . S
C778 C782 1.524 . S
C779 C771 1.503 1_455 S
C779 C778 1.370 . S
C779 C780 1.403 . S
C780 C779 1.403 . S
C780 C781 1.404 . S
C780 C783 1.539 . S
C781 C777 1.408 . S
C781 C780 1.404 . S
C781 H793 0.930 . S
C782 C778 1.524 . S
C782 H794 0.956 . S
C782 H795 0.961 . S
C782 H796 0.961 . S
C783 C780 1.539 . S
C783 H797 0.958 . S
C783 H798 0.961 . S
C783 H799 0.960 . S
H784 C768 0.931 . S
H785 C773 0.929 . S
H786 C774 0.960 1_455 S
H787 C774 0.962 . S
H788 C774 0.960 . S
H789 C775 0.976 . S
H790 C775 0.934 1_455 S
H791 C775 0.958 1_455 S
H792 C776 0.931 . S
H793 C781 0.930 . S
H794 C782 0.956 . S
H795 C782 0.961 . S
H796 C782 0.961 . S
H797 C783 0.958 . S
H798 C783 0.961 . S
H799 C783 0.960 . S
C800 C801 1.391 . S
C800 C802 1.394 . S
C800 H816 0.931 . S
C801 C800 1.391 . S
C801 C805 1.376 . S
C802 C800 1.394 . S
C802 C803 1.369 . S
C802 C806 1.531 . S
C803 C802 1.369 . S
C803 C804 1.410 . S
C803 C811 1.503 . S
C804 C803 1.410 . S
C804 C805 1.392 . S
C804 C807 1.511 . S
C805 C801 1.376 . S
C805 C804 1.392 . S
C805 H817 0.929 . S
C806 C802 1.531 . S
C806 H818 0.960 . S
C806 H819 0.962 . S
C806 H820 0.960 . S
C807 C804 1.511 . S
C807 H821 0.961 . S
C807 H822 0.961 . S
C807 H823 0.961 . S
C808 C809 1.370 . S
C808 C810 1.363 . S
C808 H824 0.931 . S
C809 C808 1.370 . S
C809 C813 1.408 . S
C810 C808 1.363 . S
C810 C811 1.370 . S
C810 C814 1.524 . S
C811 C803 1.503 . S
C811 C810 1.370 . S
C811 C812 1.403 . S
C812 C811 1.403 . S
C812 C813 1.404 . S
C812 C815 1.539 . S
C813 C809 1.408 . S
C813 C812 1.404 . S
C813 H825 0.930 . S
C814 C810 1.524 . S
C814 H826 0.956 . S
C814 H827 0.961 . S
C814 H828 0.961 . S
C815 C812 1.539 . S
C815 H829 0.958 . S
C815 H830 0.961 . S
C815 H831 0.960 . S
H816 C800 0.931 . S
H817 C805 0.929 . S
H818 C806 0.960 . S
H819 C806 0.962 . S
H820 C806 0.960 . S
H821 C807 0.961 . S
H822 C807 0.961 . S
H823 C807 0.961 . S
H824 C808 0.931 . S
H825 C813 0.930 . S
H826 C814 0.956 . S
H827 C814 0.961 . S
H828 C814 0.961 . S
H829 C815 0.958 . S
H830 C815 0.961 . S
H831 C815 0.960 . S
C832 C833 1.391 . S
C832 C834 1.394 . S
C832 H848 0.931 . S
C833 C832 1.391 . S
C833 C837 1.376 . S
C834 C832 1.394 . S
C834 C835 1.369 . S
C834 C838 1.531 . S
C835 C834 1.369 . S
C835 C836 1.410 . S
C835 C843 1.503 1_455 S
C836 C835 1.410 . S
C836 C837 1.392 . S
C836 C839 1.511 . S
C837 C833 1.376 . S
C837 C836 1.392 . S
C837 H849 0.929 . S
C838 C834 1.531 . S
C838 H850 0.960 . S
C838 H851 0.962 . S
C838 H852 0.960 . S
C839 C836 1.511 . S
C839 H853 0.961 . S
C839 H854 0.961 . S
C839 H855 0.961 . S
C840 C841 1.370 . S
C840 C842 1.363 . S
C840 H856 0.931 . S
C841 C840 1.370 . S
C841 C845 1.408 . S
C842 C840 1.363 . S
C842 C843 1.370 . S
C842 C846 1.503 1_655 S
C843 C835 1.503 1_655 S
C843 C842 1.370 . S
C843 C844 1.403 . S
C844 C843 1.403 . S
C844 C845 1.404 . S
C844 C847 1.539 . S
C845 C841 1.408 . S
C845 C844 1.404 . S
C845 H857 0.930 . S
C846 C842 1.503 1_455 S
C846 H858 0.974 . S
C846 H859 0.988 . S
C846 H860 0.938 1_455 S
C847 C844 1.539 . S
C847 H861 0.958 . S
C847 H862 0.961 . S
C847 H863 0.960 1_655 S
H848 C832 0.931 . S
H849 C837 0.929 . S
H850 C838 0.960 . S
H851 C838 0.962 . S
H852 C838 0.960 . S
H853 C839 0.961 . S
H854 C839 0.961 . S
H855 C839 0.961 . S
H856 C840 0.931 . S
H857 C845 0.930 . S
H858 C846 0.974 . S
H859 C846 0.988 . S
H860 C846 0.938 1_655 S
H861 C847 0.958 . S
H862 C847 0.961 . S
H863 C847 0.960 1_455 S
C864 C865 1.391 . S
C864 C866 1.394 . S
C864 H880 0.931 . S
C865 C864 1.391 . S
C865 C869 1.376 . S
C866 C864 1.394 . S
C866 C867 1.369 . S
C866 C870 1.531 . S
C867 C866 1.369 . S
C867 C868 1.410 . S
C867 C875 1.503 1_455 S
C868 C867 1.410 . S
C868 C869 1.392 . S
C868 C871 1.513 . S
C869 C865 1.376 . S
C869 C868 1.392 . S
C869 H881 0.929 . S
C870 C866 1.531 . S
C870 H882 0.960 1_455 S
C870 H883 0.962 . S
C870 H884 0.960 . S
C871 C868 1.513 . S
C871 H885 0.962 . S
C871 H886 0.959 1_455 S
C871 H887 0.960 1_455 S
C872 C873 1.370 . S
C872 C874 1.363 . S
C872 H888 0.931 . S
C873 C872 1.370 . S
C873 C877 1.408 . S
C874 C872 1.363 . S
C874 C875 1.370 . S
C874 C878 1.524 . S
C875 C867 1.503 1_655 S
C875 C874 1.370 . S
C875 C876 1.403 . S
C876 C875 1.403 . S
C876 C877 1.404 . S
C876 C879 1.539 . S
C877 C873 1.408 . S
C877 C876 1.404 . S
C877 H889 0.930 . S
C878 C874 1.524 . S
C878 H890 0.956 . S
C878 H891 0.961 . S
C878 H892 0.961 . S
C879 C876 1.539 . S
C879 H893 0.958 . S
C879 H894 0.961 . S
C879 H895 0.960 . S
H880 C864 0.931 . S
H881 C869 0.929 . S
H882 C870 0.960 1_655 S
H883 C870 0.962 . S
H884 C870 0.960 . S
H885 C871 0.962 . S
H886 C871 0.959 1_655 S
H887 C871 0.960 1_655 S
H888 C872 0.931 . S
H889 C877 0.930 . S
H890 C878 0.956 . S
H891 C878 0.961 . S
H892 C878 0.961 . S
H893 C879 0.958 . S
H894 C879 0.961 . S
H895 C879 0.960 . S
C896 C897 1.391 . S
C896 C898 1.394 . S
C896 H912 0.931 . S
C897 C896 1.391 . S
C897 C901 1.376 . S
C898 C896 1.394 . S
C898 C899 1.369 . S
C898 C902 1.531 . S
C899 C898 1.369 . S
C899 C900 1.410 . S
C899 C907 1.503 . S
C900 C899 1.410 . S
C900 C901 1.392 . S
C900 C903 1.511 . S
C901 C897 1.376 . S
C901 C900 1.392 . S
C901 H913 0.929 . S
C902 C898 1.531 . S
C902 H914 0.960 . S
C902 H915 0.962 . S
C902 H916 0.960 . S
C903 C900 1.511 . S
C903 H917 0.961 . S
C903 H918 0.961 . S
C903 H919 0.961 . S
C904 C905 1.370 . S
C904 C906 1.363 . S
C904 H920 0.931 . S
C905 C904 1.370 . S
C905 C909 1.408 . S
C906 C904 1.363 . S
C906 C907 1.370 . S
C906 C910 1.524 . S
C907 C899 1.503 . S
C907 C906 1.370 . S
C907 C908 1.403 . S
C908 C907 1.403 . S
C908 C909 1.404 . S
C908 C911 1.539 . S
C909 C905 1.408 . S
C909 C908 1.404 . S
C909 H921 0.930 . S
C910 C906 1.524 . S
C910 H922 0.956 . S
C910 H923 0.961 . S
C910 H924 0.961 . S
C911 C908 1.539 . S
C911 H925 0.958 . S
C911 H926 0.961 . S
C911 H927 0.960 . S
H912 C896 0.931 . S
H913 C901 0.929 . S
H914 C902 0.960 . S
H915 C902 0.962 . S
H916 C902 0.960 . S
H917 C903 0.961 . S
H918 C903 0.961 . S
H919 C903 0.961 . S
H920 C904 0.931 . S
H921 C909 0.930 . S
H922 C910 0.956 . S
H923 C910 0.961 . S
H924 C910 0.961 . S
H925 C911 0.958 . S
H926 C911 0.961 . S
H927 C911 0.960 . S
C928 C929 1.391 . S
C928 C930 1.394 . S
C928 H944 0.931 . S
C929 C928 1.391 . S
C929 C933 1.376 . S
C930 C928 1.394 . S
C930 C931 1.369 . S
C930 C934 1.531 . S
C931 C930 1.369 . S
C931 C932 1.410 . S
C931 C939 1.503 1_455 S
C932 C931 1.410 . S
C932 C933 1.392 . S
C932 C935 1.511 . S
C933 C929 1.376 . S
C933 C932 1.392 . S
C933 H945 0.929 . S
C934 C930 1.531 . S
C934 H946 0.960 1_455 S
C934 H947 0.962 1_455 S
C934 H948 0.960 . S
C935 C932 1.511 . S
C935 H949 0.961 . S
C935 H950 0.961 1_455 S
C935 H951 0.961 1_455 S
C936 C937 1.370 . S
C936 C938 1.363 . S
C936 H952 0.931 . S
C937 C936 1.370 . S
C937 C941 1.408 . S
C938 C936 1.363 . S
C938 C939 1.370 . S
C938 C942 1.524 . S
C939 C931 1.503 1_655 S
C939 C938 1.370 . S
C939 C940 1.403 . S
C940 C939 1.403 . S
C940 C941 1.404 . S
C940 C943 1.539 . S
C941 C937 1.408 . S
C941 C940 1.404 . S
C941 H953 0.930 . S
C942 C938 1.524 . S
C942 H954 0.956 . S
C942 H955 0.961 . S
C942 H956 0.961 . S
C943 C940 1.539 . S
C943 H957 0.958 . S
C943 H958 0.961 . S
C943 H959 0.960 . S
H944 C928 0.931 . S
H945 C933 0.929 . S
H946 C934 0.960 1_655 S
H947 C934 0.962 1_655 S
H948 C934 0.960 . S
H949 C935 0.961 . S
H950 C935 0.961 1_655 S
H951 C935 0.961 1_655 S
H952 C936 0.931 . S
H953 C941 0.930 . S
H954 C942 0.956 . S
H955 C942 0.961 . S
H956 C942 0.961 . S
H957 C943 0.958 . S
H958 C943 0.961 . S
H959 C943 0.960 . S
C960 C961 1.391 . S
C960 C962 1.394 . S
C960 H976 0.931 . S
C961 C960 1.391 . S
C961 C965 1.376 . S
C962 C960 1.394 . S
C962 C963 1.369 . S
C962 C966 1.531 . S
C963 C962 1.369 . S
C963 C964 1.410 . S
C963 C971 1.503 . S
C964 C963 1.410 . S
C964 C965 1.392 . S
C964 C967 1.511 . S
C965 C961 1.376 . S
C965 C964 1.392 . S
C965 H977 0.929 . S
C966 C962 1.531 . S
C966 H978 0.960 . S
C966 H979 0.962 . S
C966 H980 0.960 . S
C967 C964 1.511 . S
C967 H981 0.961 . S
C967 H982 0.961 . S
C967 H983 0.961 . S
C968 C969 1.370 . S
C968 C970 1.363 . S
C968 H984 0.931 . S
C969 C968 1.370 . S
C969 C973 1.408 . S
C970 C968 1.363 . S
C970 C971 1.370 . S
C970 C974 1.524 . S
C971 C963 1.503 . S
C971 C970 1.370 . S
C971 C972 1.403 . S
C972 C971 1.403 . S
C972 C973 1.404 . S
C972 C975 1.539 . S
C973 C969 1.408 . S
C973 C972 1.404 . S
C973 H985 0.930 . S
C974 C970 1.524 . S
C974 H986 0.956 . S
C974 H987 0.961 . S
C974 H988 0.961 . S
C975 C972 1.539 . S
C975 H989 0.958 . S
C975 H990 0.961 . S
C975 H991 0.960 . S
H976 C960 0.931 . S
H977 C965 0.929 . S
H978 C966 0.960 . S
H979 C966 0.962 . S
H980 C966 0.960 . S
H981 C967 0.961 . S
H982 C967 0.961 . S
H983 C967 0.961 . S
H984 C968 0.931 . S
H985 C973 0.930 . S
H986 C974 0.956 . S
H987 C974 0.961 . S
H988 C974 0.961 . S
H989 C975 0.958 . S
H990 C975 0.961 . S
H991 C975 0.960 . S
C992 C993 1.391 . S
C992 C994 1.394 . S
C992 H1008 0.931 . S
C993 C992 1.391 . S
C993 C997 1.376 . S
C994 C992 1.394 . S
C994 C995 1.369 . S
C994 C998 1.531 . S
C995 C994 1.369 . S
C995 C996 1.410 . S
C995 C1003 1.503 . S
C996 C995 1.410 . S
C996 C997 1.392 . S
C996 C999 1.511 . S
C997 C993 1.376 . S
C997 C996 1.392 . S
C997 H1009 0.929 . S
C998 C994 1.531 . S
C998 H1010 0.960 . S
C998 H1011 0.962 . S
C998 H1012 0.960 . S
C999 C996 1.511 . S
C999 H1013 0.961 . S
C999 H1014 0.961 . S
C999 H1015 0.961 . S
C1000 C1001 1.370 . S
C1000 C1002 1.363 . S
C1000 H1016 0.931 . S
C1001 C1000 1.370 . S
C1001 C1005 1.408 . S
C1002 C1000 1.363 . S
C1002 C1003 1.370 . S
C1002 C1006 1.524 . S
C1003 C995 1.503 . S
C1003 C1002 1.370 . S
C1003 C1004 1.403 . S
C1004 C1003 1.403 . S
C1004 C1005 1.404 . S
C1004 C1007 1.539 . S
C1005 C1001 1.408 . S
C1005 C1004 1.404 . S
C1005 H1017 0.930 . S
C1006 C1002 1.524 . S
C1006 H1018 0.956 . S
C1006 H1019 0.961 . S
C1006 H1020 0.961 . S
C1007 C1004 1.539 . S
C1007 H1021 0.958 . S
C1007 H1022 0.961 . S
C1007 H1023 0.960 . S
H1008 C992 0.931 . S
H1009 C997 0.929 . S
H1010 C998 0.960 . S
H1011 C998 0.962 . S
H1012 C998 0.960 . S
H1013 C999 0.961 . S
H1014 C999 0.961 . S
H1015 C999 0.961 . S
H1016 C1000 0.931 . S
H1017 C1005 0.930 . S
H1018 C1006 0.956 . S
H1019 C1006 0.961 . S
H1020 C1006 0.961 . S
H1021 C1007 0.958 . S
H1022 C1007 0.961 . S
H1023 C1007 0.960 . S
C1024 C1025 1.391 . S
C1024 C1026 1.394 . S
C1024 H1040 0.931 . S
C1025 C1024 1.391 . S
C1025 C1029 1.376 . S
C1026 C1024 1.394 . S
C1026 C1027 1.369 . S
C1026 C1030 1.531 . S
C1027 C1026 1.369 . S
C1027 C1028 1.410 . S
C1027 C1035 1.503 . S
C1028 C1027 1.410 . S
C1028 C1029 1.392 . S
C1028 C1031 1.511 . S
C1029 C1025 1.376 . S
C1029 C1028 1.392 . S
C1029 H1041 0.929 . S
C1030 C1026 1.531 . S
C1030 H1042 0.960 . S
C1030 H1043 0.962 . S
C1030 H1044 0.960 . S
C1031 C1028 1.511 . S
C1031 H1045 0.961 . S
C1031 H1046 0.961 . S
C1031 H1047 0.961 . S
C1032 C1033 1.370 . S
C1032 C1034 1.363 . S
C1032 H1048 0.931 . S
C1033 C1032 1.370 . S
C1033 C1037 1.408 . S
C1034 C1032 1.363 . S
C1034 C1035 1.370 . S
C1034 C1038 1.524 . S
C1035 C1027 1.503 . S
C1035 C1034 1.370 . S
C1035 C1036 1.403 . S
C1036 C1035 1.403 . S
C1036 C1037 1.404 . S
C1036 C1039 1.539 . S
C1037 C1033 1.408 . S
C1037 C1036 1.404 . S
C1037 H1049 0.930 . S
C1038 C1034 1.524 . S
C1038 H1050 0.956 . S
C1038 H1051 0.961 . S
C1038 H1052 0.961 . S
C1039 C1036 1.539 . S
C1039 H1053 0.958 . S
C1039 H1054 0.961 . S
C1039 H1055 0.960 . S
H1040 C1024 0.931 . S
H1041 C1029 0.929 . S
H1042 C1030 0.960 . S
H1043 C1030 0.962 . S
H1044 C1030 0.960 . S
H1045 C1031 0.961 . S
H1046 C1031 0.961 . S
H1047 C1031 0.961 . S
H1048 C1032 0.931 . S
H1049 C1037 0.930 . S
H1050 C1038 0.956 . S
H1051 C1038 0.961 . S
H1052 C1038 0.961 . S
H1053 C1039 0.958 . S
H1054 C1039 0.961 . S
H1055 C1039 0.960 . S
C1056 C1057 1.391 . S
C1056 C1058 1.394 . S
C1056 H1072 0.931 . S
C1057 C1056 1.391 . S
C1057 C1061 1.376 . S
C1058 C1056 1.394 . S
C1058 C1059 1.369 . S
C1058 C1062 1.531 . S
C1059 C1058 1.369 . S
C1059 C1060 1.410 . S
C1059 C1067 1.503 . S
C1060 C1059 1.410 . S
C1060 C1061 1.392 . S
C1060 C1063 1.511 . S
C1061 C1057 1.376 . S
C1061 C1060 1.392 . S
C1061 H1073 0.929 . S
C1062 C1058 1.531 . S
C1062 H1074 0.960 . S
C1062 H1075 0.962 . S
C1062 H1076 0.960 . S
C1063 C1060 1.511 . S
C1063 H1077 0.961 . S
C1063 H1078 0.961 . S
C1063 H1079 0.961 . S
C1064 C1065 1.370 . S
C1064 C1066 1.363 . S
C1064 H1080 0.931 . S
C1065 C1064 1.370 . S
C1065 C1069 1.408 . S
C1066 C1064 1.363 . S
C1066 C1067 1.370 . S
C1066 C1070 1.524 . S
C1067 C1059 1.503 . S
C1067 C1066 1.370 . S
C1067 C1068 1.403 . S
C1068 C1067 1.403 . S
C1068 C1069 1.404 . S
C1068 C1071 1.539 . S
C1069 C1065 1.408 . S
C1069 C1068 1.404 . S
C1069 H1081 0.930 . S
C1070 C1066 1.524 . S
C1070 H1082 0.956 . S
C1070 H1083 0.961 . S
C1070 H1084 0.961 . S
C1071 C1068 1.539 . S
C1071 H1085 0.958 . S
C1071 H1086 0.961 . S
C1071 H1087 0.960 . S
H1072 C1056 0.931 . S
H1073 C1061 0.929 . S
H1074 C1062 0.960 . S
H1075 C1062 0.962 . S
H1076 C1062 0.960 . S
H1077 C1063 0.961 . S
H1078 C1063 0.961 . S
H1079 C1063 0.961 . S
H1080 C1064 0.931 . S
H1081 C1069 0.930 . S
H1082 C1070 0.956 . S
H1083 C1070 0.961 . S
H1084 C1070 0.961 . S
H1085 C1071 0.958 . S
H1086 C1071 0.961 . S
H1087 C1071 0.960 . S
C1088 C1089 1.391 . S
C1088 C1090 1.394 . S
C1088 H1104 0.931 . S
C1089 C1088 1.391 . S
C1089 C1093 1.376 . S
C1090 C1088 1.394 . S
C1090 C1091 1.369 . S
C1090 C1094 1.531 . S
C1091 C1090 1.369 . S
C1091 C1092 1.410 . S
C1091 C1099 1.503 . S
C1092 C1091 1.410 . S
C1092 C1093 1.392 . S
C1092 C1095 1.511 . S
C1093 C1089 1.376 . S
C1093 C1092 1.392 . S
C1093 H1105 0.929 . S
C1094 C1090 1.531 . S
C1094 H1106 0.960 . S
C1094 H1107 0.962 . S
C1094 H1108 0.960 . S
C1095 C1092 1.511 . S
C1095 H1109 0.961 . S
C1095 H1110 0.961 . S
C1095 H1111 0.961 . S
C1096 C1097 1.370 . S
C1096 C1098 1.363 . S
C1096 H1112 0.931 . S
C1097 C1096 1.370 . S
C1097 C1101 1.408 . S
C1098 C1096 1.363 . S
C1098 C1099 1.370 . S
C1098 C1102 1.524 . S
C1099 C1091 1.503 . S
C1099 C1098 1.370 . S
C1099 C1100 1.403 . S
C1100 C1099 1.403 . S
C1100 C1101 1.404 . S
C1100 C1103 1.539 . S
C1101 C1097 1.408 . S
C1101 C1100 1.404 . S
C1101 H1113 0.930 . S
C1102 C1098 1.524 . S
C1102 H1114 0.956 . S
C1102 H1115 0.961 . S
C1102 H1116 0.961 . S
C1103 C1100 1.539 . S
C1103 H1117 0.958 . S
C1103 H1118 0.961 . S
C1103 H1119 0.960 . S
H1104 C1088 0.931 . S
H1105 C1093 0.929 . S
H1106 C1094 0.960 . S
H1107 C1094 0.962 . S
H1108 C1094 0.960 . S
H1109 C1095 0.961 . S
H1110 C1095 0.961 . S
H1111 C1095 0.961 . S
H1112 C1096 0.931 . S
H1113 C1101 0.930 . S
H1114 C1102 0.956 . S
H1115 C1102 0.961 . S
H1116 C1102 0.961 . S
H1117 C1103 0.958 . S
H1118 C1103 0.961 . S
H1119 C1103 0.960 . S
C1120 C1121 1.391 . S
C1120 C1122 1.394 . S
C1120 H1136 0.931 . S
C1121 C1120 1.391 . S
C1121 C1125 1.376 . S
C1122 C1120 1.394 . S
C1122 C1123 1.369 . S
C1122 C1126 1.531 . S
C1123 C1122 1.369 . S
C1123 C1124 1.410 . S
C1123 C1131 1.503 . S
C1124 C1123 1.410 . S
C1124 C1125 1.392 . S
C1124 C1127 1.511 . S
C1125 C1121 1.376 . S
C1125 C1124 1.392 . S
C1125 H1137 0.929 . S
C1126 C1122 1.531 . S
C1126 H1138 0.960 . S
C1126 H1139 0.962 . S
C1126 H1140 0.960 . S
C1127 C1124 1.511 . S
C1127 H1141 0.961 . S
C1127 H1142 0.961 . S
C1127 H1143 0.961 . S
C1128 C1129 1.370 . S
C1128 C1130 1.363 . S
C1128 H1144 0.931 . S
C1129 C1128 1.370 . S
C1129 C1133 1.408 . S
C1130 C1128 1.363 . S
C1130 C1131 1.370 . S
C1130 C1134 1.524 . S
C1131 C1123 1.503 . S
C1131 C1130 1.370 . S
C1131 C1132 1.403 . S
C1132 C1131 1.403 . S
C1132 C1133 1.404 . S
C1132 C1135 1.539 . S
C1133 C1129 1.408 . S
C1133 C1132 1.404 . S
C1133 H1145 0.930 . S
C1134 C1130 1.524 . S
C1134 H1146 0.956 . S
C1134 H1147 0.961 . S
C1134 H1148 0.961 . S
C1135 C1132 1.539 . S
C1135 H1149 0.958 . S
C1135 H1150 0.961 . S
C1135 H1151 0.960 . S
H1136 C1120 0.931 . S
H1137 C1125 0.929 . S
H1138 C1126 0.960 . S
H1139 C1126 0.962 . S
H1140 C1126 0.960 . S
H1141 C1127 0.961 . S
H1142 C1127 0.961 . S
H1143 C1127 0.961 . S
H1144 C1128 0.931 . S
H1145 C1133 0.930 . S
H1146 C1134 0.956 . S
H1147 C1134 0.961 . S
H1148 C1134 0.961 . S
H1149 C1135 0.958 . S
H1150 C1135 0.961 . S
H1151 C1135 0.960 . S
C1152 C1153 1.391 . S
C1152 C1154 1.394 . S
C1152 H1168 0.931 . S
C1153 C1152 1.391 . S
C1153 C1157 1.376 . S
C1154 C1152 1.394 . S
C1154 C1155 1.369 . S
C1154 C1158 1.531 . S
C1155 C1154 1.369 . S
C1155 C1156 1.410 . S
C1155 C1163 1.503 . S
C1156 C1155 1.410 . S
C1156 C1157 1.392 . S
C1156 C1159 1.511 . S
C1157 C1153 1.376 . S
C1157 C1156 1.392 . S
C1157 H1169 0.929 . S
C1158 C1154 1.531 . S
C1158 H1170 0.960 . S
C1158 H1171 0.962 . S
C1158 H1172 0.960 . S
C1159 C1156 1.511 . S
C1159 H1173 0.961 . S
C1159 H1174 0.961 . S
C1159 H1175 0.961 . S
C1160 C1161 1.370 . S
C1160 C1162 1.363 . S
C1160 H1176 0.931 . S
C1161 C1160 1.370 . S
C1161 C1165 1.408 . S
C1162 C1160 1.363 . S
C1162 C1163 1.370 . S
C1162 C1166 1.524 . S
C1163 C1155 1.503 . S
C1163 C1162 1.370 . S
C1163 C1164 1.403 . S
C1164 C1163 1.403 . S
C1164 C1165 1.404 . S
C1164 C1167 1.539 . S
C1165 C1161 1.408 . S
C1165 C1164 1.404 . S
C1165 H1177 0.930 . S
C1166 C1162 1.524 . S
C1166 H1178 0.956 . S
C1166 H1179 0.961 . S
C1166 H1180 0.961 . S
C1167 C1164 1.539 . S
C1167 H1181 0.958 . S
C1167 H1182 0.961 . S
C1167 H1183 0.960 . S
H1168 C1152 0.931 . S
H1169 C1157 0.929 . S
H1170 C1158 0.960 . S
H1171 C1158 0.962 . S
H1172 C1158 0.960 . S
H1173 C1159 0.961 . S
H1174 C1159 0.961 . S
H1175 C1159 0.961 . S
H1176 C1160 0.931 . S
H1177 C1165 0.930 . S
H1178 C1166 0.956 . S
H1179 C1166 0.961 . S
H1180 C1166 0.961 . S
H1181 C1167 0.958 . S
H1182 C1167 0.961 . S
H1183 C1167 0.960 . S
C1184 C1185 1.391 . S
C1184 C1186 1.394 . S
C1184 H1200 0.931 . S
C1185 C1184 1.391 . S
C1185 C1189 1.376 . S
C1186 C1184 1.394 . S
C1186 C1187 1.369 . S
C1186 C1190 1.531 . S
C1187 C1186 1.369 . S
C1187 C1188 1.410 . S
C1187 C1195 1.503 . S
C1188 C1187 1.410 . S
C1188 C1189 1.392 . S
C1188 C1191 1.511 . S
C1189 C1185 1.376 . S
C1189 C1188 1.392 . S
C1189 H1201 0.929 . S
C1190 C1186 1.531 . S
C1190 H1202 0.960 . S
C1190 H1203 0.962 . S
C1190 H1204 0.960 . S
C1191 C1188 1.511 . S
C1191 H1205 0.961 . S
C1191 H1206 0.961 . S
C1191 H1207 0.961 . S
C1192 C1193 1.370 . S
C1192 C1194 1.363 . S
C1192 H1208 0.931 . S
C1193 C1192 1.370 . S
C1193 C1197 1.408 . S
C1194 C1192 1.363 . S
C1194 C1195 1.370 . S
C1194 C1198 1.524 . S
C1195 C1187 1.503 . S
C1195 C1194 1.370 . S
C1195 C1196 1.403 . S
C1196 C1195 1.403 . S
C1196 C1197 1.404 . S
C1196 C1199 1.539 . S
C1197 C1193 1.408 . S
C1197 C1196 1.404 . S
C1197 H1209 0.930 . S
C1198 C1194 1.524 . S
C1198 H1210 0.956 . S
C1198 H1211 0.961 . S
C1198 H1212 0.961 . S
C1199 C1196 1.539 . S
C1199 H1213 0.958 . S
C1199 H1214 0.961 . S
C1199 H1215 0.960 . S
H1200 C1184 0.931 . S
H1201 C1189 0.929 . S
H1202 C1190 0.960 . S
H1203 C1190 0.962 . S
H1204 C1190 0.960 . S
H1205 C1191 0.961 . S
H1206 C1191 0.961 . S
H1207 C1191 0.961 . S
H1208 C1192 0.931 . S
H1209 C1197 0.930 . S
H1210 C1198 0.956 . S
H1211 C1198 0.961 . S
H1212 C1198 0.961 . S
H1213 C1199 0.958 . S
H1214 C1199 0.961 . S
H1215 C1199 0.960 . S
C1216 C1217 1.391 . S
C1216 C1218 1.394 . S
C1216 H1232 0.931 . S
C1217 C1216 1.391 . S
C1217 C1221 1.376 . S
C1218 C1216 1.394 . S
C1218 C1219 1.369 . S
C1218 C1222 1.531 . S
C1219 C1218 1.369 . S
C1219 C1220 1.410 . S
C1219 C1227 1.503 . S
C1220 C1219 1.410 . S
C1220 C1221 1.392 . S
C1220 C1223 1.511 . S
C1221 C1217 1.376 . S
C1221 C1220 1.392 . S
C1221 H1233 0.929 . S
C1222 C1218 1.531 . S
C1222 H1234 0.960 . S
C1222 H1235 0.962 . S
C1222 H1236 0.960 . S
C1223 C1220 1.511 . S
C1223 H1237 0.961 . S
C1223 H1238 0.961 . S
C1223 H1239 0.961 . S
C1224 C1225 1.370 . S
C1224 C1226 1.363 . S
C1224 H1240 0.931 . S
C1225 C1224 1.370 . S
C1225 C1229 1.408 . S
C1226 C1224 1.363 . S
C1226 C1227 1.370 . S
C1226 C1230 1.524 . S
C1227 C1219 1.503 . S
C1227 C1226 1.370 . S
C1227 C1228 1.403 . S
C1228 C1227 1.403 . S
C1228 C1229 1.404 . S
C1228 C1231 1.539 . S
C1229 C1225 1.408 . S
C1229 C1228 1.404 . S
C1229 H1241 0.930 . S
C1230 C1226 1.524 . S
C1230 H1242 0.956 . S
C1230 H1243 0.961 . S
C1230 H1244 0.961 . S
C1231 C1228 1.539 . S
C1231 H1245 0.958 . S
C1231 H1246 0.961 . S
C1231 H1247 0.960 . S
H1232 C1216 0.931 . S
H1233 C1221 0.929 . S
H1234 C1222 0.960 . S
H1235 C1222 0.962 . S
H1236 C1222 0.960 . S
H1237 C1223 0.961 . S
H1238 C1223 0.961 . S
H1239 C1223 0.961 . S
H1240 C1224 0.931 . S
H1241 C1229 0.930 . S
H1242 C1230 0.956 . S
H1243 C1230 0.961 . S
H1244 C1230 0.961 . S
H1245 C1231 0.958 . S
H1246 C1231 0.961 . S
H1247 C1231 0.960 . S
C225 C9 1.506 . S
C233 C179 1.495 . S
C257 C193 1.499 . S
C265 C23 1.505 . S
C289 C37 1.495 . S
C297 C207 1.484 . S
C321 C221 1.491 . S
C329 C51 1.503 . S
C353 C121 1.496 . S
C361 C67 1.484 . S
C385 C81 1.475 . S
C393 C135 1.501 . S
C417 C149 1.495 . S
C425 C95 1.484 . S
C449 C109 1.481 . S
C457 C163 1.504 . S
C481 C5 1.443 . S
C489 C33 1.474 . S
C513 C19 1.482 . S
C521 C47 1.458 . S
C545 C61 1.659 . S
C553 C89 1.683 . S
C577 C75 1.683 . S
C585 C103 1.671 . S
C609 C145 1.459 . S
C617 C117 1.470 . S
C641 C131 1.475 . S
C649 C159 1.459 . S
C673 C201 1.680 . S
C681 C173 1.672 . S
C705 C187 1.662 . S
C713 C215 1.682 . S
C737 C84 1.494 . S
C745 C0 1.478 . S
C769 C98 1.462 . S
C777 C14 1.494 . S
C801 C28 1.501 . S
C809 C56 1.476 . S
C833 C42 1.466 . S
C841 C70 1.483 . S
C865 C196 1.492 . S
C873 C112 1.486 . S
C897 C126 1.490 . S
C905 C210 1.473 . S
C929 C168 1.499 . S
C937 C140 1.479 . S
C961 C154 1.491 . S
C969 C182 1.483 . S
C993 C11 1.190 . S
C1001 C53 1.200 . S
C1025 C39 1.190 . S
C1033 C25 1.186 . S
C1057 C65 1.759 . S
C1065 C107 1.767 . S
C1089 C79 1.771 . S
C1097 C93 1.773 . S
C1121 C165 1.199 . S
C1129 C123 1.188 . S
C1153 C137 1.192 . S
C1161 C151 1.201 . S
C1185 C219 1.766 . S
C1193 C177 1.771 . S
C1217 C191 1.770 . S
C1225 C205 1.772 . S
