# Generated by pormake.
# Topology acs-a, (4)-cn, num edge types: 1
# Building blocks:
#     Node 0, Type 0, BuildingBlock: CEKHIL_clean_sbu_0, # of connection points: 4
#     Node 1, Type 0, BuildingBlock: CEKHIL_clean_sbu_0, # of connection points: 4
#     Node 2, Type 0, BuildingBlock: CEKHIL_clean_sbu_0, # of connection points: 4
#     Node 3, Type 0, BuildingBlock: CEKHIL_clean_sbu_0, # of connection points: 4
#     Node 4, Type 0, BuildingBlock: CEKHIL_clean_sbu_0, # of connection points: 4
#     Node 5, Type 0, BuildingBlock: CEKHIL_clean_sbu_0, # of connection points: 4
#     Node 6, Type 0, BuildingBlock: CEKHIL_clean_sbu_0, # of connection points: 4
#     Node 7, Type 0, BuildingBlock: CEKHIL_clean_sbu_0, # of connection points: 4
#     Node 8, Type 0, BuildingBlock: CEKHIL_clean_sbu_0, # of connection points: 4
#     Node 9, Type 0, BuildingBlock: CEKHIL_clean_sbu_0, # of connection points: 4
#     Node 10, Type 0, BuildingBlock: CEKHIL_clean_sbu_0, # of connection points: 4
#     Node 11, Type 0, BuildingBlock: CEKHIL_clean_sbu_0, # of connection points: 4
#     Edge 12, Type (0, 0), BuildingBlock: TEMPAE_clean_linker_10, # of connection points: 2
#     Edge 13, Type (0, 0), BuildingBlock: TEMPAE_clean_linker_10, # of connection points: 2
#     Edge 14, Type (0, 0), BuildingBlock: TEMPAE_clean_linker_10, # of connection points: 2
#     Edge 15, Type (0, 0), BuildingBlock: TEMPAE_clean_linker_10, # of connection points: 2
#     Edge 16, Type (0, 0), BuildingBlock: TEMPAE_clean_linker_10, # of connection points: 2
#     Edge 17, Type (0, 0), BuildingBlock: TEMPAE_clean_linker_10, # of connection points: 2
#     Edge 18, Type (0, 0), BuildingBlock: TEMPAE_clean_linker_10, # of connection points: 2
#     Edge 19, Type (0, 0), BuildingBlock: TEMPAE_clean_linker_10, # of connection points: 2
#     Edge 20, Type (0, 0), BuildingBlock: TEMPAE_clean_linker_10, # of connection points: 2
#     Edge 21, Type (0, 0), BuildingBlock: TEMPAE_clean_linker_10, # of connection points: 2
#     Edge 22, Type (0, 0), BuildingBlock: TEMPAE_clean_linker_10, # of connection points: 2
#     Edge 23, Type (0, 0), BuildingBlock: TEMPAE_clean_linker_10, # of connection points: 2
#     Edge 24, Type (0, 0), BuildingBlock: TEMPAE_clean_linker_10, # of connection points: 2
#     Edge 25, Type (0, 0), BuildingBlock: TEMPAE_clean_linker_10, # of connection points: 2
#     Edge 26, Type (0, 0), BuildingBlock: TEMPAE_clean_linker_10, # of connection points: 2
#     Edge 27, Type (0, 0), BuildingBlock: TEMPAE_clean_linker_10, # of connection points: 2
#     Edge 28, Type (0, 0), BuildingBlock: TEMPAE_clean_linker_10, # of connection points: 2
#     Edge 29, Type (0, 0), BuildingBlock: TEMPAE_clean_linker_10, # of connection points: 2
#     Edge 30, Type (0, 0), BuildingBlock: TEMPAE_clean_linker_10, # of connection points: 2
#     Edge 31, Type (0, 0), BuildingBlock: TEMPAE_clean_linker_10, # of connection points: 2
#     Edge 32, Type (0, 0), BuildingBlock: TEMPAE_clean_linker_10, # of connection points: 2
#     Edge 33, Type (0, 0), BuildingBlock: TEMPAE_clean_linker_10, # of connection points: 2
#     Edge 34, Type (0, 0), BuildingBlock: TEMPAE_clean_linker_10, # of connection points: 2
#     Edge 35, Type (0, 0), BuildingBlock: TEMPAE_clean_linker_10, # of connection points: 2
# Relax obj value: 0.517
# Max RMSD: 0.261
# Mean RMSD: 0.235
data_MOF--net-acs-a--node1-CEKHIL_clean_sbu_0--edge1-TEMPAE_clean_linker_10
_symmetry_space_group_name_H-M    P1
_symmetry_Int_Tables_number       1
_symmetry_cell_setting            triclinic
loop_
_symmetry_equiv_pos_as_xyz
'x, y, z'
_cell_length_a     48.862872
_cell_length_b     48.904332
_cell_length_c     37.849286
_cell_angle_alpha  90.021569
_cell_angle_beta   90.001683
_cell_angle_gamma 113.98174
loop_
_atom_site_label
_atom_site_type_symbol
_atom_site_fract_x
_atom_site_fract_y
_atom_site_fract_z
_atom_type_partial_charge
Co0 Co 0.64519 0.1388 0.04542 0.0
O1 O 0.64976 0.10274 0.03155 0.0
O2 O 0.60792 0.11026 0.02762 0.0
C3 C 0.68727 0.17357 0.02131 0.0
O4 O 0.63081 0.17145 0.05379 0.0
Co5 Co 0.68863 0.18775 0.09476 0.0
O6 O 0.66524 0.21129 0.08083 0.0
C7 C 0.64668 0.13048 0.12504 0.0
C8 C 0.62152 0.09267 0.02306 0.0
C9 C 0.64031 0.1985 0.0648 0.0
O10 O 0.63327 0.12276 0.09501 0.0
O11 O 0.67089 0.15399 0.12906 0.0
O12 O 0.66394 0.15935 0.00157 0.0
O13 O 0.68557 0.1636 0.05311 0.0
Co14 Co 0.46757 0.63368 0.55815 0.0
O15 O 0.5071 0.63708 0.5465 0.0
O16 O 0.4653 0.59556 0.54208 0.0
C17 C 0.46889 0.67514 0.53145 0.0
O18 O 0.42308 0.62203 0.56516 0.0
Co19 Co 0.45831 0.68087 0.60581 0.0
O20 O 0.4159 0.66031 0.59025 0.0
C21 C 0.47405 0.63479 0.6387 0.0
C22 C 0.49416 0.60891 0.53819 0.0
C23 C 0.40599 0.63481 0.5751 0.0
O24 O 0.47179 0.62201 0.60845 0.0
O25 O 0.47225 0.66001 0.64253 0.0
O26 O 0.46427 0.65125 0.51294 0.0
O27 O 0.47738 0.67452 0.56364 0.0
Co28 Co 0.84162 0.44823 0.08956 0.0
O29 O 0.87152 0.48845 0.09308 0.0
O30 O 0.87915 0.4502 0.07075 0.0
C31 C 0.80473 0.45913 0.06683 0.0
O32 O 0.81551 0.40402 0.07997 0.0
Co33 Co 0.78273 0.4292 0.1331 0.0
O34 O 0.76962 0.39315 0.10259 0.0
C35 C 0.83867 0.43554 0.16878 0.0
C36 C 0.8897 0.47862 0.07825 0.0
C37 C 0.78769 0.38628 0.08404 0.0
O38 O 0.85223 0.43911 0.13879 0.0
O39 O 0.81201 0.43403 0.17191 0.0
O40 O 0.82544 0.45779 0.04626 0.0
O41 O 0.80929 0.45776 0.10018 0.0
Co42 Co 0.344 0.85268 0.53942 0.0
O43 O 0.34394 0.89173 0.53072 0.0
O44 O 0.3813 0.87834 0.519 0.0
C45 C 0.29851 0.82285 0.51747 0.0
O46 O 0.35363 0.81639 0.54154 0.0
Co47 Co 0.29983 0.80449 0.58882 0.0
O48 O 0.31894 0.77823 0.57062 0.0
C49 C 0.34833 0.85743 0.61962 0.0
C50 C 0.37088 0.89881 0.51835 0.0
C51 C 0.3425 0.78911 0.55179 0.0
O52 O 0.36039 0.86534 0.58889 0.0
O53 O 0.32271 0.83582 0.62407 0.0
O54 O 0.32106 0.83599 0.49628 0.0
O55 O 0.30324 0.83145 0.54995 0.0
Co56 Co 0.52411 0.36251 0.06514 0.0
O57 O 0.48469 0.36161 0.05847 0.0
O58 O 0.52731 0.3985 0.04181 0.0
C59 C 0.51586 0.31624 0.04633 0.0
O60 O 0.56836 0.3712 0.06577 0.0
Co61 Co 0.53589 0.32013 0.11835 0.0
O62 O 0.57647 0.33595 0.09666 0.0
C63 C 0.52711 0.37266 0.1448 0.0
C64 C 0.49826 0.38754 0.04336 0.0
C65 C 0.58559 0.35889 0.07661 0.0
O66 O 0.52751 0.38213 0.11297 0.0
O67 O 0.52704 0.34705 0.15195 0.0
O68 O 0.51982 0.33744 0.02361 0.0
O69 O 0.51216 0.32254 0.07861 0.0
Co70 Co 0.14687 0.54859 0.58984 0.0
O71 O 0.11847 0.50767 0.59292 0.0
O72 O 0.10911 0.54477 0.57009 0.0
C73 C 0.1853 0.53948 0.56846 0.0
O74 O 0.17082 0.59311 0.58046 0.0
Co75 Co 0.20577 0.57103 0.63388 0.0
O76 O 0.21691 0.60718 0.60386 0.0
C77 C 0.1484 0.56122 0.66879 0.0
C78 C 0.09971 0.51643 0.57749 0.0
C79 C 0.1979 0.61244 0.58511 0.0
O80 O 0.13486 0.55691 0.63871 0.0
O81 O 0.17557 0.56428 0.67212 0.0
O82 O 0.16472 0.5401 0.54713 0.0
O83 O 0.1802 0.5411 0.60159 0.0
Co84 Co 0.85427 0.34522 0.46598 0.0
O85 O 0.89231 0.34427 0.47851 0.0
O86 O 0.87884 0.38178 0.48889 0.0
C87 C 0.82223 0.29967 0.48489 0.0
O88 O 0.81845 0.35525 0.4598 0.0
Co89 Co 0.81018 0.30279 0.41124 0.0
O90 O 0.78284 0.32184 0.426 0.0
C91 C 0.86585 0.35129 0.38679 0.0
C92 C 0.89892 0.37091 0.49147 0.0
C93 C 0.79222 0.34471 0.44612 0.0
O94 O 0.87058 0.36287 0.418 0.0
O95 O 0.84504 0.32561 0.38005 0.0
O96 O 0.83439 0.32143 0.50736 0.0
O97 O 0.83339 0.30495 0.45346 0.0
Co98 Co 0.44688 0.8456 0.91843 0.0
O99 O 0.48812 0.8731 0.92012 0.0
O100 O 0.45003 0.88379 0.93664 0.0
C101 C 0.4532 0.80658 0.94259 0.0
O102 O 0.40156 0.82178 0.92267 0.0
Co103 Co 0.42814 0.7877 0.8732 0.0
O104 O 0.39051 0.77568 0.90078 0.0
C105 C 0.44202 0.84562 0.83806 0.0
C106 C 0.47885 0.8923 0.93325 0.0
C107 C 0.38328 0.79424 0.91791 0.0
O108 O 0.44307 0.85831 0.86822 0.0
O109 O 0.43924 0.81854 0.83504 0.0
O110 O 0.45117 0.82713 0.96287 0.0
O111 O 0.45473 0.81215 0.90923 0.0
Co112 Co 0.63547 0.46894 0.42854 0.0
O113 O 0.63896 0.50882 0.4384 0.0
O114 O 0.59727 0.46722 0.44335 0.0
C115 C 0.6766 0.47068 0.45653 0.0
O116 O 0.62343 0.42427 0.42356 0.0
Co117 Co 0.6824 0.45728 0.38309 0.0
O118 O 0.66174 0.41562 0.40103 0.0
C119 C 0.63708 0.47283 0.34776 0.0
C120 C 0.61065 0.49613 0.44627 0.0
C121 C 0.63609 0.40659 0.41574 0.0
O122 O 0.62435 0.47203 0.37773 0.0
O123 O 0.66189 0.47 0.34474 0.0
O124 O 0.65255 0.46671 0.47442 0.0
O125 O 0.67637 0.47823 0.42385 0.0
Co126 Co 0.13606 0.64645 0.96563 0.0
O127 O 0.09898 0.6485 0.98058 0.0
O128 O 0.1116 0.61024 0.98934 0.0
C129 C 0.1696 0.69187 0.98327 0.0
O130 O 0.17073 0.63509 0.95678 0.0
Co131 Co 0.17918 0.68777 0.90931 0.0
O132 O 0.2062 0.66785 0.92234 0.0
C133 C 0.12146 0.64062 0.88732 0.0
C134 C 0.09209 0.62171 0.99321 0.0
C135 C 0.19653 0.6447 0.94202 0.0
O136 O 0.11754 0.62897 0.91846 0.0
O137 O 0.1427 0.66588 0.87993 0.0
O138 O 0.15813 0.67028 0.00611 0.0
O139 O 0.15733 0.68648 0.95243 0.0
Co140 Co 0.54559 0.14836 0.41924 0.0
O141 O 0.50487 0.11933 0.41781 0.0
O142 O 0.5428 0.11177 0.44136 0.0
C143 C 0.53609 0.18725 0.43813 0.0
O144 O 0.59016 0.17354 0.42714 0.0
Co145 Co 0.56612 0.20494 0.37141 0.0
O146 O 0.6022 0.21863 0.402 0.0
C147 C 0.55607 0.14621 0.34025 0.0
C148 C 0.51429 0.10159 0.43439 0.0
C149 C 0.60858 0.20088 0.42171 0.0
O150 O 0.55346 0.13444 0.37124 0.0
O151 O 0.55824 0.1729 0.33521 0.0
O152 O 0.53735 0.16779 0.46073 0.0
O153 O 0.53712 0.18061 0.40539 0.0
Co154 Co 0.35995 0.52793 0.92391 0.0
O155 O 0.35931 0.48845 0.92841 0.0
O156 O 0.39678 0.53077 0.94473 0.0
C157 C 0.31457 0.51969 0.94574 0.0
O158 O 0.3685 0.57213 0.92543 0.0
Co159 Co 0.31596 0.54061 0.87415 0.0
O160 O 0.33208 0.58052 0.89735 0.0
C161 C 0.36779 0.53289 0.84374 0.0
C162 C 0.38576 0.50177 0.94243 0.0
C163 C 0.35549 0.58929 0.91663 0.0
O164 O 0.37792 0.53223 0.87499 0.0
O165 O 0.34212 0.53327 0.8381 0.0
O166 O 0.33656 0.52284 0.96697 0.0
O167 O 0.31942 0.5163 0.9128 0.0
C168 C 0.56187 0.14313 0.27524 0.0
C169 C 0.55997 0.13006 0.30867 0.0
C170 C 0.57221 0.13285 0.24586 0.0
C171 C 0.57994 0.10803 0.24947 0.0
C172 C 0.57474 0.09248 0.28209 0.0
C173 C 0.56518 0.10394 0.31155 0.0
C174 C 0.57738 0.15042 0.21176 0.0
C175 C 0.58087 0.06488 0.2868 0.0
C176 C 0.60104 0.09519 0.15759 0.0
C177 C 0.63142 0.11498 0.15779 0.0
C178 C 0.58431 0.08844 0.18912 0.0
C179 C 0.59813 0.10261 0.22093 0.0
C180 C 0.6296 0.11876 0.22195 0.0
C181 C 0.64592 0.12435 0.19042 0.0
C182 C 0.5513 0.06871 0.18769 0.0
C183 C 0.64558 0.1336 0.25545 0.0
H184 H 0.55709 0.1628 0.27233 0.0
H185 H 0.56321 0.09322 0.33706 0.0
H186 H 0.60158 0.16001 0.205 0.0
H187 H 0.56512 0.13554 0.18976 0.0
H188 H 0.56997 0.16906 0.21342 0.0
H189 H 0.56381 0.04864 0.30444 0.0
H190 H 0.58095 0.05372 0.26129 0.0
H191 H 0.60298 0.07113 0.29971 0.0
H192 H 0.58973 0.08689 0.1327 0.0
H193 H 0.66966 0.13862 0.1911 0.0
H194 H 0.53851 0.08272 0.18372 0.0
H195 H 0.5436 0.05611 0.21275 0.0
H196 H 0.54603 0.05261 0.16537 0.0
H197 H 0.6387 0.15184 0.26296 0.0
H198 H 0.67033 0.14332 0.25241 0.0
H199 H 0.63939 0.11726 0.27744 0.0
C200 C 0.47211 0.62992 0.70434 0.0
C201 C 0.47302 0.6174 0.67122 0.0
C202 C 0.46094 0.61173 0.73406 0.0
C203 C 0.45112 0.58034 0.73073 0.0
C204 C 0.45658 0.56818 0.69892 0.0
C205 C 0.46721 0.58684 0.66928 0.0
C206 C 0.45616 0.62583 0.76771 0.0
C207 C 0.44833 0.53508 0.69508 0.0
C208 C 0.41802 0.54189 0.81713 0.0
C209 C 0.388 0.5377 0.81287 0.0
C210 C 0.43868 0.55301 0.78927 0.0
C211 C 0.42918 0.56076 0.75689 0.0
C212 C 0.3984 0.55396 0.75151 0.0
C213 C 0.37821 0.54215 0.77936 0.0
C214 C 0.47093 0.55833 0.79558 0.0
C215 C 0.38707 0.56171 0.71739 0.0
H216 H 0.47745 0.65365 0.70649 0.0
H217 H 0.46864 0.57697 0.64407 0.0
H218 H 0.43184 0.61968 0.77151 0.0
H219 H 0.46429 0.61741 0.79084 0.0
H220 H 0.46781 0.65064 0.76719 0.0
H221 H 0.46129 0.53046 0.67351 0.0
H222 H 0.45233 0.52541 0.72008 0.0
H223 H 0.42418 0.52353 0.68856 0.0
H224 H 0.4258 0.53798 0.84268 0.0
H225 H 0.35498 0.53841 0.7754 0.0
H226 H 0.48301 0.58091 0.80719 0.0
H227 H 0.48238 0.55711 0.77069 0.0
H228 H 0.47254 0.54176 0.81461 0.0
H229 H 0.39699 0.58636 0.71373 0.0
H230 H 0.36229 0.55367 0.71695 0.0
H231 H 0.39395 0.55178 0.69456 0.0
C232 C 0.83518 0.41868 0.23132 0.0
C233 C 0.85298 0.43037 0.2013 0.0
C234 C 0.84664 0.4105 0.26138 0.0
C235 C 0.87707 0.41467 0.26211 0.0
C236 C 0.89577 0.42808 0.23278 0.0
C237 C 0.88338 0.43537 0.20242 0.0
C238 C 0.82557 0.39598 0.29175 0.0
C239 C 0.92853 0.43385 0.23268 0.0
C240 C 0.89064 0.40101 0.35668 0.0
C241 C 0.88092 0.36979 0.35577 0.0
C242 C 0.89426 0.41736 0.32515 0.0
C243 C 0.88748 0.40195 0.29243 0.0
C244 C 0.88246 0.37136 0.29135 0.0
C245 C 0.87944 0.35568 0.32309 0.0
C246 C 0.90166 0.4504 0.32715 0.0
C247 C 0.87596 0.35414 0.25704 0.0
H248 H 0.81168 0.41469 0.23096 0.0
H249 H 0.89743 0.44464 0.17953 0.0
H250 H 0.82428 0.37307 0.29632 0.0
H251 H 0.83403 0.40898 0.31636 0.0
H252 H 0.80253 0.39434 0.28685 0.0
H253 H 0.94162 0.45365 0.21616 0.0
H254 H 0.93811 0.43752 0.25973 0.0
H255 H 0.93123 0.41426 0.22109 0.0
H256 H 0.89253 0.41228 0.38181 0.0
H257 H 0.87291 0.33168 0.32219 0.0
H258 H 0.88062 0.45393 0.32634 0.0
H259 H 0.91566 0.46239 0.30432 0.0
H260 H 0.91362 0.46032 0.35205 0.0
H261 H 0.8532 0.35057 0.24774 0.0
H262 H 0.87688 0.33193 0.26005 0.0
H263 H 0.89215 0.36693 0.23636 0.0
C264 C 0.43385 0.88663 0.80528 0.0
C265 C 0.44014 0.86105 0.80489 0.0
C266 C 0.42484 0.89654 0.7742 0.0
C267 C 0.42132 0.87999 0.74253 0.0
C268 C 0.43089 0.8563 0.74131 0.0
C269 C 0.44056 0.84745 0.77233 0.0
C270 C 0.41686 0.92323 0.77605 0.0
C271 C 0.42785 0.83804 0.70815 0.0
C272 C 0.35309 0.8596 0.6852 0.0
C273 C 0.36592 0.87051 0.65212 0.0
C274 C 0.37068 0.86478 0.71565 0.0
C275 C 0.40187 0.88237 0.71344 0.0
C276 C 0.41428 0.89686 0.68121 0.0
C277 C 0.39625 0.89035 0.65065 0.0
C278 C 0.35624 0.84866 0.74929 0.0
C279 C 0.44698 0.91745 0.67818 0.0
H280 H 0.43412 0.89781 0.83009 0.0
H281 H 0.44633 0.82827 0.77142 0.0
H282 H 0.42133 0.93545 0.75053 0.0
H283 H 0.39268 0.9156 0.78211 0.0
H284 H 0.42965 0.93889 0.7973 0.0
H285 H 0.43797 0.82151 0.71107 0.0
H286 H 0.40378 0.82573 0.70153 0.0
H287 H 0.43876 0.85286 0.68555 0.0
H288 H 0.32952 0.84492 0.68702 0.0
H289 H 0.40634 0.89955 0.62545 0.0
H290 H 0.36148 0.86463 0.77162 0.0
H291 H 0.36529 0.83182 0.75594 0.0
H292 H 0.3315 0.83696 0.74697 0.0
H293 H 0.45618 0.92854 0.70372 0.0
H294 H 0.45043 0.93489 0.6578 0.0
H295 H 0.45987 0.90438 0.66991 0.0
C296 C 0.63014 0.46517 0.28269 0.0
C297 C 0.62008 0.47189 0.31492 0.0
C298 C 0.61096 0.45543 0.25355 0.0
C299 C 0.58121 0.45317 0.25634 0.0
C300 C 0.57232 0.46397 0.28702 0.0
C301 C 0.59174 0.47284 0.31626 0.0
C302 C 0.62162 0.44437 0.22125 0.0
C303 C 0.5415 0.46382 0.29026 0.0
C304 C 0.54246 0.42464 0.16922 0.0
C305 C 0.53195 0.39365 0.17482 0.0
C306 C 0.55548 0.44493 0.19698 0.0
C307 C 0.55858 0.43385 0.23062 0.0
C308 C 0.54466 0.4027 0.23729 0.0
C309 C 0.53116 0.38305 0.20941 0.0
C310 C 0.56824 0.47804 0.18938 0.0
C311 C 0.54701 0.38975 0.27285 0.0
H312 H 0.6522 0.46498 0.28099 0.0
H313 H 0.58395 0.47875 0.34073 0.0
H314 H 0.60928 0.41972 0.21905 0.0
H315 H 0.61703 0.45445 0.19697 0.0
H316 H 0.64598 0.4497 0.22228 0.0
H317 H 0.54165 0.48158 0.30868 0.0
H318 H 0.53283 0.46711 0.26423 0.0
H319 H 0.52582 0.44197 0.30105 0.0
H320 H 0.54258 0.43316 0.14276 0.0
H321 H 0.52225 0.35916 0.21429 0.0
H322 H 0.59196 0.4856 0.18107 0.0
H323 H 0.56752 0.49104 0.21314 0.0
H324 H 0.55584 0.48316 0.16757 0.0
H325 H 0.57069 0.39369 0.278 0.0
H326 H 0.53313 0.36529 0.27435 0.0
H327 H 0.53985 0.40091 0.2942 0.0
C328 C 0.1508 0.57716 0.73155 0.0
C329 C 0.13341 0.56544 0.70123 0.0
C330 C 0.13871 0.58451 0.76165 0.0
C331 C 0.10802 0.57942 0.76214 0.0
C332 C 0.08976 0.566 0.73247 0.0
C333 C 0.10279 0.55956 0.70208 0.0
C334 C 0.15938 0.59907 0.79236 0.0
C335 C 0.05679 0.55928 0.73203 0.0
C336 C 0.09517 0.59124 0.8571 0.0
C337 C 0.10484 0.62246 0.85681 0.0
C338 C 0.09084 0.57527 0.82518 0.0
C339 C 0.09687 0.59109 0.79276 0.0
C340 C 0.1013 0.62153 0.79253 0.0
C341 C 0.1051 0.63686 0.82467 0.0
C342 C 0.0839 0.54231 0.8263 0.0
C343 C 0.10669 0.63909 0.75856 0.0
H344 H 0.17446 0.5818 0.73145 0.0
H345 H 0.08905 0.55028 0.67894 0.0
H346 H 0.15972 0.62153 0.79765 0.0
H347 H 0.15124 0.58543 0.81659 0.0
H348 H 0.18276 0.60177 0.78742 0.0
H349 H 0.04424 0.539 0.71597 0.0
H350 H 0.04708 0.55589 0.75901 0.0
H351 H 0.05347 0.57825 0.71962 0.0
H352 H 0.09414 0.57973 0.88187 0.0
H353 H 0.11151 0.66085 0.82436 0.0
H354 H 0.10511 0.53913 0.82496 0.0
H355 H 0.06983 0.53053 0.80341 0.0
H356 H 0.07219 0.53192 0.85116 0.0
H357 H 0.12947 0.64351 0.74858 0.0
H358 H 0.10504 0.6609 0.76234 0.0
H359 H 0.09035 0.62614 0.73807 0.0
C360 C 0.58286 0.04177 0.03271 0.0
C361 C 0.60454 0.06207 0.0106 0.0
C362 C 0.56312 0.01373 0.02006 0.0
C363 C 0.56467 0.00634 0.98415 0.0
C364 C 0.5869 0.02677 0.96182 0.0
C365 C 0.60681 0.05444 0.97547 0.0
C366 C 0.54023 0.99233 0.04491 0.0
C367 C 0.58889 0.01986 0.92327 0.0
C368 C 0.52885 0.92464 0.95733 0.0
C369 C 0.50059 0.92172 0.94554 0.0
C370 C 0.54987 0.95203 0.97007 0.0
C371 C 0.54278 0.97733 0.97 0.0
C372 C 0.51447 0.97466 0.95741 0.0
C373 C 0.49345 0.94668 0.94584 0.0
C374 C 0.5794 0.95372 0.9843 0.0
C375 C 0.50641 0.00135 0.95615 0.0
H376 H 0.58104 0.04811 0.05979 0.0
H377 H 0.6233 0.07061 0.95837 0.0
H378 H 0.51735 0.98867 0.03612 0.0
H379 H 0.54167 0.97026 0.04452 0.0
H380 H 0.5433 0.00075 0.07253 0.0
H381 H 0.60779 0.03789 0.90966 0.0
H382 H 0.59174 -0.00141 0.92048 0.0
H383 H 0.56771 0.01682 0.90969 0.0
H384 H 0.53428 0.90524 0.95743 0.0
H385 H 0.47166 0.94442 0.9365 0.0
H386 H 0.58191 0.96092 0.01236 0.0
H387 H 0.59824 0.97067 0.96946 0.0
H388 H 0.58137 0.93191 0.98259 0.0
H389 H 0.50606 0.00977 0.98329 0.0
H390 H 0.48419 0.99591 0.94377 0.0
H391 H 0.52362 0.0198 0.94104 0.0
C392 C 0.53383 0.60629 0.4993 0.0
C393 C 0.51151 0.59283 0.52459 0.0
C394 C 0.55004 0.59088 0.48525 0.0
C395 C 0.54458 0.56193 0.49808 0.0
C396 C 0.52246 0.54857 0.52429 0.0
C397 C 0.50568 0.56399 0.5367 0.0
C398 C 0.57262 0.60533 0.45633 0.0
C399 C 0.51679 0.5182 0.53953 0.0
C400 C 0.56633 0.50855 0.44421 0.0
C401 C 0.59436 0.51367 0.45855 0.0
C402 C 0.55023 0.52482 0.45611 0.0
C403 C 0.56198 0.54559 0.48406 0.0
C404 C 0.59021 0.55049 0.49888 0.0
C405 C 0.60641 0.53487 0.48534 0.0
C406 C 0.52076 0.51987 0.43873 0.0
C407 C 0.60292 0.57162 0.52958 0.0
H408 H 0.53801 0.62857 0.48983 0.0
H409 H 0.48848 0.55383 0.55652 0.0
H410 H 0.59532 0.60852 0.46528 0.0
H411 H 0.56719 0.59048 0.43283 0.0
H412 H 0.57321 0.6274 0.44828 0.0
H413 H 0.49991 0.51171 0.56108 0.0
H414 H 0.50879 0.50092 0.51853 0.0
H415 H 0.53797 0.51816 0.55007 0.0
H416 H 0.55727 0.49217 0.42327 0.0
H417 H 0.62805 0.53845 0.49651 0.0
H418 H 0.52103 0.54155 0.42964 0.0
H419 H 0.50225 0.51035 0.45809 0.0
H420 H 0.51583 0.50445 0.41576 0.0
H421 H 0.60608 0.59462 0.52202 0.0
H422 H 0.62475 0.57219 0.53871 0.0
H423 H 0.58693 0.56474 0.55203 0.0
C424 C 0.03692 0.60679 0.99891 0.0
C425 C 0.06298 0.60391 0.00985 0.0
C426 C 0.00869 0.5869 0.01124 0.0
C427 C 0.00675 0.56422 0.0357 0.0
C428 C 0.0332 0.56228 0.0481 0.0
C429 C 0.06097 0.5819 0.03465 0.0
C430 C 0.98091 0.58932 0.99699 0.0
C431 C 0.03216 0.53899 0.0749 0.0
C432 C 0.9342 0.52664 0.08696 0.0
C433 C 0.92041 0.49944 0.06882 0.0
C434 C 0.96255 0.54774 0.07688 0.0
C435 C 0.97704 0.54179 0.04736 0.0
C436 C 0.96326 0.51424 0.02906 0.0
C437 C 0.93523 0.4932 0.04033 0.0
C438 C 0.97693 0.57642 0.09771 0.0
C439 C 0.97782 0.50729 0.99712 0.0
H440 H 0.03848 0.62364 0.97947 0.0
H441 H 0.08118 0.57979 0.04327 0.0
H442 H 0.96716 0.56856 0.98239 0.0
H443 H 0.96699 0.59155 0.01901 0.0
H444 H 0.98627 0.60871 0.97892 0.0
H445 H 0.05486 0.5421 0.08398 0.0
H446 H 0.01877 0.53985 0.09822 0.0
H447 H 0.02102 0.51632 0.06321 0.0
H448 H 0.9228 0.53142 0.10914 0.0
H449 H 0.92445 0.47229 0.02609 0.0
H450 H 0.98027 0.59587 0.08051 0.0
H451 H -0.00064 0.57906 0.10719 0.0
H452 H 0.96323 0.57706 0.12085 0.0
H453 H 0.9819 0.52476 0.97665 0.0
H454 H 0.96388 0.48513 0.98542 0.0
H455 H -0.0001 0.50753 0.00445 0.0
C456 C 0.49967 0.05759 0.47475 0.0
C457 C 0.49308 0.07166 0.44577 0.0
C458 C 0.47874 0.02992 0.48706 0.0
C459 C 0.45096 0.01575 0.46934 0.0
C460 C 0.44445 0.02968 0.43969 0.0
C461 C 0.46546 0.05767 0.42852 0.0
C462 C 0.48626 0.01593 0.51912 0.0
C463 C 0.41545 0.01485 0.4195 0.0
C464 C 0.41214 0.93169 0.47986 0.0
C465 C 0.38957 0.92872 0.50432 0.0
C466 C 0.4318 0.95986 0.46768 0.0
C467 C 0.42924 0.98576 0.48092 0.0
C468 C 0.40626 0.98292 0.50538 0.0
C469 C 0.38638 0.95429 0.51651 0.0
C470 C 0.45552 0.96189 0.44095 0.0
C471 C 0.40324 0.01013 0.52047 0.0
H472 H 0.52091 0.06856 0.48832 0.0
H473 H 0.4604 0.06849 0.40599 0.0
H474 H 0.46861 0.01124 0.53952 0.0
H475 H 0.4869 0.99423 0.51183 0.0
H476 H 0.5082 0.03051 0.53086 0.0
H477 H 0.41389 0.02865 0.39691 0.0
H478 H 0.41342 0.99284 0.40925 0.0
H479 H 0.39614 0.01059 0.43733 0.0
H480 H 0.41449 0.91188 0.47021 0.0
H481 H 0.36907 0.95197 0.53566 0.0
H482 H 0.4781 0.97393 0.45259 0.0
H483 H 0.45398 0.97487 0.41756 0.0
H484 H 0.45345 0.93951 0.43196 0.0
H485 H 0.42407 0.02419 0.53476 0.0
H486 H 0.38403 0.0041 0.53898 0.0
H487 H 0.40025 0.02399 0.49887 0.0
C488 C 0.39659 0.45615 0.94321 0.0
C489 C 0.40228 0.48475 0.95625 0.0
C490 C 0.41219 0.43979 0.95645 0.0
C491 C 0.43325 0.45208 0.98401 0.0
C492 C 0.4388 0.48084 0.9975 0.0
C493 C 0.42352 0.49703 0.98307 0.0
C494 C 0.40632 0.40951 0.94081 0.0
C495 C 0.46059 0.49438 0.02743 0.0
C496 C 0.45296 0.39883 0.04089 0.0
C497 C 0.48145 0.40372 0.02809 0.0
C498 C 0.43701 0.41456 0.02688 0.0
C499 C 0.4496 0.43493 0.99878 0.0
C500 C 0.47813 0.43945 0.98529 0.0
C501 C 0.49393 0.42408 0.00049 0.0
C502 C 0.40698 0.40978 0.04253 0.0
C503 C 0.49194 0.46046 0.95479 0.0
H504 H 0.38027 0.44676 0.92229 0.0
H505 H 0.42773 0.51907 0.99337 0.0
H506 H 0.42755 0.40921 0.93083 0.0
H507 H 0.39764 0.39199 0.96147 0.0
H508 H 0.38991 0.40357 0.91876 0.0
H509 H 0.46167 0.51663 0.03554 0.0
H510 H 0.45399 0.47925 0.05067 0.0
H511 H 0.48336 0.49695 0.01949 0.0
H512 H 0.44341 0.38318 0.06239 0.0
H513 H 0.51588 0.42764 0.99038 0.0
H514 H 0.38937 0.40168 0.02189 0.0
H515 H 0.40756 0.43134 0.05254 0.0
H516 H 0.4005 0.39337 0.06457 0.0
H517 H 0.47641 0.45414 0.93189 0.0
H518 H 0.51366 0.46033 0.94633 0.0
H519 H 0.49571 0.48364 0.96234 0.0
C520 C 0.92998 0.4104 0.53321 0.0
C521 C 0.92812 0.38896 0.50767 0.0
C522 C 0.9577 0.43005 0.54669 0.0
C523 C 0.98423 0.42871 0.53359 0.0
C524 C 0.98246 0.40662 0.50836 0.0
C525 C 0.95427 0.38666 0.49599 0.0
C526 C 0.9586 0.45275 0.57427 0.0
C527 C 0.01034 0.4049 0.49336 0.0
C528 C 0.05444 0.50075 0.53911 0.0
C529 C 0.06961 0.49467 0.56735 0.0
C530 C 0.02681 0.47924 0.52748 0.0
C531 C 0.01379 0.45136 0.54517 0.0
C532 C 0.02871 0.44543 0.57429 0.0
C533 C 0.05667 0.46705 0.58475 0.0
C534 C 0.01176 0.48618 0.49598 0.0
C535 C 0.0151 0.41633 0.59444 0.0
H536 H 0.90968 0.41201 0.54244 0.0
H537 H 0.95279 0.37022 0.47602 0.0
H538 H 0.97232 0.45176 0.5972 0.0
H539 H 0.9693 0.47563 0.56307 0.0
H540 H 0.93588 0.44912 0.58383 0.0
H541 H 0.0051 0.38574 0.47494 0.0
H542 H 0.02362 0.4259 0.47895 0.0
H543 H 0.02467 0.40275 0.51497 0.0
H544 H 0.06458 0.522 0.52543 0.0
H545 H 0.06836 0.4624 0.60673 0.0
H546 H 0.98964 0.48556 0.5038 0.0
H547 H 0.0077 0.46892 0.47524 0.0
H548 H 0.02534 0.5085 0.48446 0.0
H549 H 0.99274 0.41316 0.60471 0.0
H550 H 0.02931 0.41552 0.61699 0.0
H551 H 0.01176 0.39727 0.57655 0.0
C552 C 0.59715 0.20309 0.03406 0.0
C553 C 0.62129 0.21497 0.0578 0.0
C554 C 0.57822 0.21767 0.02753 0.0
C555 C 0.58359 0.2449 0.04499 0.0
C556 C 0.60831 0.25743 0.06826 0.0
C557 C 0.62675 0.24221 0.07461 0.0
C558 C 0.55217 0.20369 0.00245 0.0
C559 C 0.61501 0.28672 0.08688 0.0
C560 C 0.5499 0.29829 0.01407 0.0
C561 C 0.52757 0.29328 0.03959 0.0
C562 C 0.56758 0.28172 0.0144 0.0
C563 C 0.56245 0.25951 0.04059 0.0
C564 C 0.53829 0.25275 0.06448 0.0
C565 C 0.52117 0.26979 0.06372 0.0
C566 C 0.59317 0.28966 0.98853 0.0
C567 C 0.53186 0.22896 0.0925 0.0
H568 H 0.59285 0.18217 0.02061 0.0
H569 H 0.64505 0.25138 0.09324 0.0
H570 H 0.53079 0.19789 0.01693 0.0
H571 H 0.55307 0.2199 0.9815 0.0
H572 H 0.55188 0.1831 0.98973 0.0
H573 H 0.63636 0.29464 0.10195 0.0
H574 H 0.61639 0.30405 0.06728 0.0
H575 H 0.59654 0.28423 0.10538 0.0
H576 H 0.55519 0.31668 0.99561 0.0
H577 H 0.50392 0.26593 0.08348 0.0
H578 H 0.59432 0.26919 0.97731 0.0
H579 H 0.61461 0.30226 0.0025 0.0
H580 H 0.59117 0.30376 0.96652 0.0
H581 H 0.53062 0.20776 0.08058 0.0
H582 H 0.51056 0.22446 0.10671 0.0
H583 H 0.55038 0.23626 0.11206 0.0
C584 C 0.36278 0.59782 0.54138 0.0
C585 C 0.37351 0.61942 0.5682 0.0
C586 C 0.33198 0.58301 0.53463 0.0
C587 C 0.31152 0.58993 0.5553 0.0
C588 C 0.32228 0.61221 0.58185 0.0
C589 C 0.35314 0.62653 0.58811 0.0
C590 C 0.32127 0.55959 0.50593 0.0
C591 C 0.30115 0.62044 0.60424 0.0
C592 C 0.23005 0.56937 0.53252 0.0
C593 C 0.21605 0.54636 0.5569 0.0
C594 C 0.26143 0.58272 0.52979 0.0
C595 C 0.27878 0.57232 0.55156 0.0
C596 C 0.26442 0.54716 0.57365 0.0
C597 C 0.23317 0.53468 0.5763 0.0
C598 C 0.2759 0.60965 0.50615 0.0
C599 C 0.28208 0.53516 0.59698 0.0
H600 H 0.37848 0.5925 0.5256 0.0
H601 H 0.36131 0.64311 0.60895 0.0
H602 H 0.30813 0.53733 0.5178 0.0
H603 H 0.30619 0.56449 0.48748 0.0
H604 H 0.34011 0.55831 0.49061 0.0
H605 H 0.31323 0.63913 0.62273 0.0
H606 H 0.28646 0.62708 0.58711 0.0
H607 H 0.28647 0.60075 0.61988 0.0
H608 H 0.21675 0.57874 0.51801 0.0
H609 H 0.22219 0.51697 0.59528 0.0
H610 H 0.29567 0.60901 0.49237 0.0
H611 H 0.2838 0.63028 0.52247 0.0
H612 H 0.25995 0.61119 0.48615 0.0
H613 H 0.3002 0.53243 0.58174 0.0
H614 H 0.26769 0.51327 0.60897 0.0
H615 H 0.29278 0.55133 0.6186 0.0
C616 C 0.75082 0.33318 0.08226 0.0
C617 C 0.77576 0.35627 0.0673 0.0
C618 C 0.73888 0.30446 0.06749 0.0
C619 C 0.75174 0.29856 0.03644 0.0
C620 C 0.7764 0.32199 0.02048 0.0
C621 C 0.78839 0.35056 0.03635 0.0
C622 C 0.71276 0.28025 0.08563 0.0
C623 C 0.79006 0.31684 0.98675 0.0
C624 C 0.73567 0.21635 0.03243 0.0
C625 C 0.70833 0.20483 0.01427 0.0
C626 C 0.75179 0.24728 0.0368 0.0
C627 C 0.74023 0.26724 0.0227 0.0
C628 C 0.71428 0.25583 0.00106 0.0
C629 C 0.69859 0.22465 0.99705 0.0
C630 C 0.77931 0.25825 0.05999 0.0
C631 C 0.70124 0.27621 0.98521 0.0
H632 H 0.74089 0.33738 0.10615 0.0
H633 H 0.80735 0.36848 0.02431 0.0
H634 H 0.71933 0.26216 0.09454 0.0
H635 H 0.70463 0.28871 0.10885 0.0
H636 H 0.69403 0.27036 0.06668 0.0
H637 H 0.80801 0.33774 0.97656 0.0
H638 H 0.79963 0.3001 0.99126 0.0
H639 H 0.77249 0.30758 0.96618 0.0
H640 H 0.74326 0.20105 0.04574 0.0
H641 H 0.67729 0.2159 0.98327 0.0
H642 H 0.77364 0.26489 0.08611 0.0
H643 H 0.79739 0.27823 0.04831 0.0
H644 H 0.78798 0.24073 0.06425 0.0
H645 H 0.68749 0.28128 0.0054 0.0
H646 H 0.68654 0.26552 0.96231 0.0
H647 H 0.71913 0.29772 0.97657 0.0
C648 C 0.37852 0.77915 0.51276 0.0
C649 C 0.35813 0.77016 0.54101 0.0
C650 C 0.396 0.76339 0.50423 0.0
C651 C 0.39309 0.73814 0.52452 0.0
C652 C 0.37115 0.72779 0.55149 0.0
C653 C 0.35395 0.74399 0.55951 0.0
C654 C 0.41856 0.7746 0.47464 0.0
C655 C 0.36681 0.70037 0.57295 0.0
C656 C 0.42921 0.6852 0.49958 0.0
C657 C 0.45401 0.69507 0.52236 0.0
C658 C 0.40974 0.69984 0.49855 0.0
C659 C 0.4154 0.72487 0.52075 0.0
C660 C 0.44168 0.7362 0.54168 0.0
C661 C 0.4607 0.72118 0.54214 0.0
C662 C 0.38206 0.68705 0.47574 0.0
C663 C 0.44863 0.76296 0.56557 0.0
H664 H 0.3814 0.79901 0.49774 0.0
H665 H 0.33825 0.73687 0.58129 0.0
H666 H 0.44154 0.78395 0.48581 0.0
H667 H 0.41674 0.75587 0.45688 0.0
H668 H 0.41557 0.79228 0.45873 0.0
H669 H 0.34727 0.69386 0.59103 0.0
H670 H 0.36348 0.68136 0.55503 0.0
H671 H 0.3872 0.70456 0.58888 0.0
H672 H 0.42372 0.6648 0.4845 0.0
H673 H 0.47986 0.72882 0.55975 0.0
H674 H 0.37629 0.70497 0.46444 0.0
H675 H 0.36285 0.67238 0.49209 0.0
H676 H 0.38492 0.67335 0.45379 0.0
H677 H 0.44802 0.78211 0.55042 0.0
H678 H 0.47094 0.77011 0.57835 0.0
H679 H 0.43135 0.75736 0.58658 0.0
C680 C 0.62725 0.39374 0.0389 0.0
C681 C 0.61757 0.37272 0.06643 0.0
C682 C 0.6578 0.40889 0.03098 0.0
C683 C 0.67908 0.40282 0.05107 0.0
C684 C 0.66934 0.38044 0.07754 0.0
C685 C 0.63874 0.3659 0.08513 0.0
C686 C 0.66739 0.43226 0.00221 0.0
C687 C 0.69136 0.3728 0.09899 0.0
C688 C 0.76142 0.42855 0.02921 0.0
C689 C 0.77401 0.45127 0.05438 0.0
C690 C 0.73019 0.41361 0.02587 0.0
C691 C 0.7115 0.42214 0.04778 0.0
C692 C 0.72433 0.44716 0.07051 0.0
C693 C 0.7555 0.46124 0.07376 0.0
C694 C 0.7175 0.38691 0.00155 0.0
C695 C 0.7052 0.45726 0.09398 0.0
H696 H 0.61099 0.39889 0.02398 0.0
H697 H 0.63151 0.34987 0.10659 0.0
H698 H 0.67882 0.4548 0.01418 0.0
H699 H 0.68367 0.42882 0.98427 0.0
H700 H 0.64811 0.43189 0.98636 0.0
H701 H 0.68004 0.35335 0.11674 0.0
H702 H 0.70663 0.36757 0.08121 0.0
H703 H 0.70533 0.39234 0.11534 0.0
H704 H 0.77577 0.4205 0.01462 0.0
H705 H 0.76537 0.47876 0.0933 0.0
H706 H 0.69622 0.38513 0.98929 0.0
H707 H 0.71271 0.36619 0.01702 0.0
H708 H 0.73361 0.38799 0.98032 0.0
H709 H 0.68672 0.45916 0.07861 0.0
H710 H 0.71841 0.47917 0.10672 0.0
H711 H 0.69493 0.44039 0.11505 0.0
C712 C 0.19562 0.6472 0.5372 0.0
C713 C 0.20756 0.64256 0.56924 0.0
C714 C 0.20629 0.67586 0.52163 0.0
C715 C 0.22894 0.70036 0.5389 0.0
C716 C 0.24006 0.69572 0.57194 0.0
C717 C 0.22965 0.66693 0.58626 0.0
C718 C 0.19373 0.67985 0.48655 0.0
C719 C 0.26399 0.72071 0.59193 0.0
C720 C 0.28472 0.77094 0.49581 0.0
C721 C 0.27578 0.79236 0.51041 0.0
C722 C 0.26828 0.74027 0.50247 0.0
C723 C 0.24165 0.73089 0.52282 0.0
C724 C 0.23053 0.75226 0.53331 0.0
C725 C 0.24801 0.78281 0.52749 0.0
C726 C 0.28137 0.71845 0.4914 0.0
C727 C 0.20212 0.74332 0.55462 0.0
H728 H 0.17855 0.62834 0.52388 0.0
H729 H 0.23884 0.66353 0.61114 0.0
H730 H 0.18526 0.69768 0.48853 0.0
H731 H 0.21174 0.68711 0.46635 0.0
H732 H 0.17526 0.65891 0.47731 0.0
H733 H 0.28598 0.72341 0.58114 0.0
H734 H 0.26163 0.74221 0.58924 0.0
H735 H 0.26379 0.71549 0.62052 0.0
H736 H 0.30635 0.77824 0.48293 0.0
H737 H 0.24113 0.79937 0.53891 0.0
H738 H 0.26371 0.69759 0.48079 0.0
H739 H 0.29133 0.71231 0.51483 0.0
H740 H 0.29919 0.72815 0.47116 0.0
H741 H 0.18442 0.72243 0.54416 0.0
H742 H 0.19356 0.76118 0.55473 0.0
H743 H 0.20669 0.73902 0.58233 0.0
C744 C 0.7785 0.37881 0.48413 0.0
C745 C 0.77283 0.36053 0.45401 0.0
C746 C 0.7625 0.39643 0.49054 0.0
C747 C 0.74028 0.39576 0.46625 0.0
C748 C 0.73336 0.37618 0.43681 0.0
C749 C 0.74985 0.35889 0.43092 0.0
C750 C 0.7702 0.41669 0.52247 0.0
C751 C 0.70942 0.37446 0.41068 0.0
C752 C 0.68435 0.42926 0.48694 0.0
C753 C 0.69609 0.45569 0.46699 0.0
C754 C 0.69902 0.40984 0.48815 0.0
C755 C 0.72631 0.41751 0.46961 0.0
C756 C 0.73939 0.44536 0.4519 0.0
C757 C 0.72397 0.46401 0.45058 0.0
C758 C 0.68401 0.38012 0.50674 0.0
C759 C 0.7687 0.45456 0.43228 0.0
H760 H 0.79597 0.37983 0.50243 0.0
H761 H 0.74547 0.34495 0.40754 0.0
H762 H 0.78035 0.44041 0.51379 0.0
H763 H 0.74962 0.4134 0.53755 0.0
H764 H 0.7862 0.41268 0.54039 0.0
H765 H 0.70371 0.35518 0.39234 0.0
H766 H 0.68889 0.37246 0.42488 0.0
H767 H 0.7172 0.39537 0.39491 0.0
H768 H 0.66248 0.42245 0.4991 0.0
H769 H 0.73293 0.48437 0.43502 0.0
H770 H 0.70055 0.37442 0.5216 0.0
H771 H 0.67338 0.36227 0.48681 0.0
H772 H 0.66633 0.38001 0.52527 0.0
H773 H 0.786 0.45232 0.4496 0.0
H774 H 0.7771 0.47799 0.42259 0.0
H775 H 0.76569 0.43955 0.40926 0.0
C776 C 0.34509 0.79873 0.95972 0.0
C777 C 0.35257 0.78303 0.933 0.0
C778 C 0.31613 0.78738 0.97458 0.0
C779 C 0.29412 0.75992 0.96212 0.0
C780 C 0.30172 0.74396 0.93539 0.0
C781 C 0.33073 0.75563 0.92131 0.0
C782 C 0.30906 0.8047 0.00354 0.0
C783 C 0.27903 0.7147 0.92109 0.0
C784 C 0.22179 0.70954 0.00729 0.0
C785 C 0.2007 0.71477 0.98641 0.0
C786 C 0.25271 0.72606 0.00194 0.0
C787 C 0.26258 0.74823 0.97515 0.0
C788 C 0.24129 0.75552 0.9566 0.0
C789 C 0.21064 0.73873 0.96251 0.0
C790 C 0.27462 0.71775 0.02259 0.0
C791 C 0.25066 0.77893 0.92784 0.0
H792 H 0.36192 0.81971 0.9693 0.0
H793 H 0.33616 0.74328 0.90068 0.0
H794 H 0.2912 0.81164 0.99468 0.0
H795 H 0.30041 0.79024 0.0271 0.0
H796 H 0.32896 0.82499 0.01141 0.0
H797 H 0.26932 0.6986 0.94299 0.0
H798 H 0.26042 0.71843 0.90826 0.0
H799 H 0.28889 0.7044 0.90147 0.0
H800 H 0.21431 0.69094 0.02567 0.0
H801 H 0.19439 0.74294 0.94642 0.0
H802 H 0.29475 0.73797 0.0299 0.0
H803 H 0.28214 0.70341 0.00599 0.0
H804 H 0.26432 0.70516 0.047 0.0
H805 H 0.26978 0.79947 0.93661 0.0
H806 H 0.23202 0.78502 0.91969 0.0
H807 H 0.25812 0.77016 0.90438 0.0
C808 C 0.53303 0.23537 0.42606 0.0
C809 C 0.54365 0.21859 0.4476 0.0
C810 C 0.54661 0.26665 0.42642 0.0
C811 C 0.57169 0.28137 0.44853 0.0
C812 C 0.58094 0.26455 0.47252 0.0
C813 C 0.56657 0.23317 0.47195 0.0
C814 C 0.53582 0.28376 0.40073 0.0
C815 C 0.60771 0.27938 0.49634 0.0
C816 C 0.6276 0.35301 0.40804 0.0
C817 C 0.62051 0.37465 0.42521 0.0
C818 C 0.61289 0.32265 0.41675 0.0
C819 C 0.59021 0.31371 0.44293 0.0
C820 C 0.5835 0.3355 0.46106 0.0
C821 C 0.59871 0.36575 0.45194 0.0
C822 C 0.62099 0.30006 0.39716 0.0
C823 C 0.55979 0.32677 0.48947 0.0
H824 H 0.51537 0.22396 0.40714 0.0
H825 H 0.57514 0.22013 0.48817 0.0
H826 H 0.53339 0.30282 0.41413 0.0
H827 H 0.55259 0.2931 0.37933 0.0
H828 H 0.51401 0.26935 0.38854 0.0
H829 H 0.60774 0.2645 0.5185 0.0
H830 H 0.62852 0.28474 0.48081 0.0
H831 H 0.60833 0.30065 0.50733 0.0
H832 H 0.64429 0.35975 0.38724 0.0
H833 H 0.59347 0.38245 0.46575 0.0
H834 H 0.6016 0.28524 0.38115 0.0
H835 H 0.62634 0.2857 0.41618 0.0
H836 H 0.64051 0.31086 0.37933 0.0
H837 H 0.53751 0.31359 0.47764 0.0
H838 H 0.55898 0.34657 0.50306 0.0
H839 H 0.56401 0.31232 0.50942 0.0
C840 C 0.20603 0.60459 0.97357 0.0
C841 C 0.21479 0.62724 0.9478 0.0
C842 C 0.22133 0.58603 0.97783 0.0
C843 C 0.24619 0.59033 0.95601 0.0
C844 C 0.25594 0.6139 0.93096 0.0
C845 C 0.23999 0.63196 0.92695 0.0
C846 C 0.21036 0.56125 0.00494 0.0
C847 C 0.28276 0.61953 0.90773 0.0
C848 C 0.30106 0.55617 0.97933 0.0
C849 C 0.293 0.53263 0.95486 0.0
C850 C 0.28552 0.57477 0.98078 0.0
C851 C 0.26091 0.5691 0.95787 0.0
C852 C 0.25126 0.54391 0.93517 0.0
C853 C 0.26762 0.52612 0.93371 0.0
C854 C 0.29696 0.60179 0.00475 0.0
C855 C 0.22474 0.5368 0.91085 0.0
H856 H 0.18675 0.60091 0.99014 0.0
H857 H 0.24681 0.64921 0.90686 0.0
H858 H 0.20268 0.53923 0.99148 0.0
H859 H 0.22891 0.56292 0.02293 0.0
H860 H 0.19158 0.56182 0.02103 0.0
H861 H 0.28988 0.64099 0.89305 0.0
H862 H 0.30176 0.61994 0.92398 0.0
H863 H 0.27737 0.60101 0.88838 0.0
H864 H 0.32104 0.56167 0.99527 0.0
H865 H 0.2615 0.50804 0.91466 0.0
H866 H 0.27822 0.60422 0.01896 0.0
H867 H 0.30827 0.62226 0.9886 0.0
H868 H 0.31329 0.60057 0.02445 0.0
H869 H 0.21851 0.51496 0.89725 0.0
H870 H 0.23012 0.55457 0.89051 0.0
H871 H 0.20506 0.53633 0.92587 0.0
C872 C 0.64576 0.19659 0.46522 0.0
C873 C 0.63876 0.21237 0.43817 0.0
C874 C 0.67468 0.20748 0.48012 0.0
C875 C 0.69714 0.23448 0.46731 0.0
C876 C 0.6899 0.25069 0.44059 0.0
C877 C 0.66092 0.23956 0.42654 0.0
C878 C 0.68132 0.18997 0.5092 0.0
C879 C 0.71301 0.27946 0.42592 0.0
C880 C 0.77087 0.28332 0.51073 0.0
C881 C 0.79109 0.27719 0.48925 0.0
C882 C 0.73976 0.26758 0.5062 0.0
C883 C 0.7288 0.24524 0.4797 0.0
C884 C 0.74919 0.23692 0.46069 0.0
C885 C 0.78007 0.253 0.46573 0.0
C886 C 0.71887 0.27707 0.52726 0.0
C887 C 0.73862 0.21321 0.43228 0.0
H888 H 0.62868 0.17575 0.47474 0.0
H889 H 0.65587 0.25199 0.4057 0.0
H890 H 0.69799 0.18156 0.49988 0.0
H891 H 0.6913 0.20473 0.53223 0.0
H892 H 0.66092 0.17062 0.51803 0.0
H893 H 0.72381 0.29529 0.44774 0.0
H894 H 0.73065 0.27478 0.41206 0.0
H895 H 0.70327 0.29045 0.40703 0.0
H896 H 0.77919 0.30213 0.52881 0.0
H897 H 0.79566 0.24814 0.44917 0.0
H898 H 0.69812 0.25749 0.53448 0.0
H899 H 0.71233 0.29233 0.51101 0.0
H900 H 0.72973 0.28916 0.55175 0.0
H901 H 0.71923 0.19315 0.4416 0.0
H902 H 0.75663 0.2063 0.42376 0.0
H903 H 0.73116 0.22211 0.40894 0.0
C904 C 0.38679 0.62851 0.95934 0.0
C905 C 0.36849 0.62056 0.9292 0.0
C906 C 0.40075 0.65846 0.97027 0.0
C907 C 0.39643 0.68085 0.95039 0.0
C908 C 0.37672 0.67272 0.92105 0.0
C909 C 0.36315 0.64268 0.91068 0.0
C910 C 0.42103 0.66628 0.00217 0.0
C911 C 0.37109 0.69593 0.89952 0.0
C912 C 0.41953 0.76198 0.97624 0.0
C913 C 0.44448 0.77559 0.95426 0.0
C914 C 0.4046 0.73065 0.97761 0.0
C915 C 0.41534 0.71296 0.95687 0.0
C916 C 0.4424 0.72676 0.93772 0.0
C917 C 0.45652 0.75799 0.93646 0.0
C918 C 0.37582 0.71687 0.99832 0.0
C919 C 0.4548 0.70874 0.91553 0.0
H920 H 0.39055 0.61138 0.97414 0.0
H921 H 0.34907 0.63666 0.88735 0.0
H922 H 0.44465 0.6782 0.99358 0.0
H923 H 0.4158 0.68158 0.01993 0.0
H924 H 0.41899 0.6461 0.01734 0.0
H925 H 0.35325 0.68568 0.87942 0.0
H926 H 0.36444 0.71035 0.91705 0.0
H927 H 0.392 0.71057 0.88581 0.0
H928 H 0.40996 0.77567 0.98958 0.0
H929 H 0.4758 0.76868 0.91942 0.0
H930 H 0.37283 0.69493 0.00968 0.0
H931 H 0.35662 0.71314 0.98044 0.0
H932 H 0.37507 0.73187 0.02001 0.0
H933 H 0.45533 0.68965 0.93086 0.0
H934 H 0.47778 0.72251 0.90583 0.0
H935 H 0.44004 0.69942 0.89231 0.0
loop_
_geom_bond_atom_site_label_1
_geom_bond_atom_site_label_2
_geom_bond_distance
_geom_bond_site_symmetry_2
_ccdc_geom_bond_type
Co0 O1 2.216 . S
Co0 O2 2.091 . S
Co0 O4 2.004 . S
Co0 O10 2.021 . S
Co0 O12 2.139 . S
Co0 O13 2.244 . S
O1 Co0 2.216 . S
O1 C8 1.247 . S
O2 Co0 2.091 . S
O2 C8 1.261 . S
C3 O12 1.249 . S
C3 O13 1.272 . S
O4 Co0 2.004 . S
O4 C9 1.259 . S
Co5 O6 2.061 . S
Co5 O11 2.052 . S
Co5 O13 2.135 . S
O6 Co5 2.061 . S
O6 C9 1.235 . S
C7 O10 1.238 . S
C7 O11 1.241 . S
C8 O1 1.247 . S
C8 O2 1.261 . S
C9 O4 1.259 . S
C9 O6 1.235 . S
O10 Co0 2.021 . S
O10 C7 1.238 . S
O11 Co5 2.052 . S
O11 C7 1.241 . S
O12 Co0 2.139 . S
O12 C3 1.249 . S
O13 Co0 2.244 . S
O13 C3 1.272 . S
O13 Co5 2.135 . S
Co14 O15 2.216 . S
Co14 O16 2.091 . S
Co14 O18 2.004 . S
Co14 O24 2.021 . S
Co14 O26 2.137 . S
Co14 O27 2.244 . S
O15 Co14 2.216 . S
O15 C22 1.247 . S
O16 Co14 2.091 . S
O16 C22 1.261 . S
C17 O26 1.247 . S
C17 O27 1.272 . S
O18 Co14 2.004 . S
O18 C23 1.259 . S
Co19 O20 2.061 . S
Co19 O25 2.052 . S
Co19 O27 2.135 . S
O20 Co19 2.061 . S
O20 C23 1.235 . S
C21 O24 1.238 . S
C21 O25 1.241 . S
C22 O15 1.247 . S
C22 O16 1.261 . S
C23 O18 1.259 . S
C23 O20 1.235 . S
O24 Co14 2.021 . S
O24 C21 1.238 . S
O25 Co19 2.052 . S
O25 C21 1.241 . S
O26 Co14 2.137 . S
O26 C17 1.247 . S
O27 Co14 2.244 . S
O27 C17 1.272 . S
O27 Co19 2.135 . S
Co28 O29 2.216 . S
Co28 O30 2.091 . S
Co28 O32 2.004 . S
Co28 O38 2.021 . S
Co28 O40 2.137 . S
Co28 O41 2.244 . S
O29 Co28 2.216 . S
O29 C36 1.247 . S
O30 Co28 2.091 . S
O30 C36 1.261 . S
C31 O40 1.247 . S
C31 O41 1.272 . S
O32 Co28 2.004 . S
O32 C37 1.259 . S
Co33 O34 2.061 . S
Co33 O39 2.052 . S
Co33 O41 2.135 . S
O34 Co33 2.061 . S
O34 C37 1.235 . S
C35 O38 1.238 . S
C35 O39 1.241 . S
C36 O29 1.247 . S
C36 O30 1.261 . S
C37 O32 1.259 . S
C37 O34 1.235 . S
O38 Co28 2.021 . S
O38 C35 1.238 . S
O39 Co33 2.052 . S
O39 C35 1.241 . S
O40 Co28 2.137 . S
O40 C31 1.247 . S
O41 Co28 2.244 . S
O41 C31 1.272 . S
O41 Co33 2.135 . S
Co42 O43 2.216 . S
Co42 O44 2.091 . S
Co42 O46 2.004 . S
Co42 O52 2.021 . S
Co42 O54 2.137 . S
Co42 O55 2.244 . S
O43 Co42 2.216 . S
O43 C50 1.247 . S
O44 Co42 2.091 . S
O44 C50 1.261 . S
C45 O54 1.247 . S
C45 O55 1.272 . S
O46 Co42 2.004 . S
O46 C51 1.259 . S
Co47 O48 2.061 . S
Co47 O53 2.052 . S
Co47 O55 2.135 . S
O48 Co47 2.061 . S
O48 C51 1.235 . S
C49 O52 1.238 . S
C49 O53 1.241 . S
C50 O43 1.247 . S
C50 O44 1.261 . S
C51 O46 1.259 . S
C51 O48 1.235 . S
O52 Co42 2.021 . S
O52 C49 1.238 . S
O53 Co47 2.052 . S
O53 C49 1.241 . S
O54 Co42 2.137 . S
O54 C45 1.247 . S
O55 Co42 2.244 . S
O55 C45 1.272 . S
O55 Co47 2.135 . S
Co56 O57 2.216 . S
Co56 O58 2.091 . S
Co56 O60 2.004 . S
Co56 O66 2.021 . S
Co56 O68 2.137 . S
Co56 O69 2.244 . S
O57 Co56 2.216 . S
O57 C64 1.247 . S
O58 Co56 2.091 . S
O58 C64 1.261 . S
C59 O68 1.247 . S
C59 O69 1.272 . S
O60 Co56 2.004 . S
O60 C65 1.259 . S
Co61 O62 2.061 . S
Co61 O67 2.052 . S
Co61 O69 2.135 . S
O62 Co61 2.061 . S
O62 C65 1.235 . S
C63 O66 1.238 . S
C63 O67 1.241 . S
C64 O57 1.247 . S
C64 O58 1.261 . S
C65 O60 1.259 . S
C65 O62 1.235 . S
O66 Co56 2.021 . S
O66 C63 1.238 . S
O67 Co61 2.052 . S
O67 C63 1.241 . S
O68 Co56 2.137 . S
O68 C59 1.247 . S
O69 Co56 2.244 . S
O69 C59 1.272 . S
O69 Co61 2.135 . S
Co70 O71 2.216 . S
Co70 O72 2.091 . S
Co70 O74 2.004 . S
Co70 O80 2.021 . S
Co70 O82 2.137 . S
Co70 O83 2.244 . S
O71 Co70 2.216 . S
O71 C78 1.247 . S
O72 Co70 2.091 . S
O72 C78 1.261 . S
C73 O82 1.247 . S
C73 O83 1.272 . S
O74 Co70 2.004 . S
O74 C79 1.259 . S
Co75 O76 2.061 . S
Co75 O81 2.052 . S
Co75 O83 2.135 . S
O76 Co75 2.061 . S
O76 C79 1.235 . S
C77 O80 1.238 . S
C77 O81 1.241 . S
C78 O71 1.247 . S
C78 O72 1.261 . S
C79 O74 1.259 . S
C79 O76 1.235 . S
O80 Co70 2.021 . S
O80 C77 1.238 . S
O81 Co75 2.052 . S
O81 C77 1.241 . S
O82 Co70 2.137 . S
O82 C73 1.247 . S
O83 Co70 2.244 . S
O83 C73 1.272 . S
O83 Co75 2.135 . S
Co84 O85 2.216 . S
Co84 O86 2.091 . S
Co84 O88 2.004 . S
Co84 O94 2.021 . S
Co84 O96 2.137 . S
Co84 O97 2.244 . S
O85 Co84 2.216 . S
O85 C92 1.247 . S
O86 Co84 2.091 . S
O86 C92 1.261 . S
C87 O96 1.247 . S
C87 O97 1.272 . S
O88 Co84 2.004 . S
O88 C93 1.259 . S
Co89 O90 2.061 . S
Co89 O95 2.052 . S
Co89 O97 2.135 . S
O90 Co89 2.061 . S
O90 C93 1.235 . S
C91 O94 1.238 . S
C91 O95 1.241 . S
C92 O85 1.247 . S
C92 O86 1.261 . S
C93 O88 1.259 . S
C93 O90 1.235 . S
O94 Co84 2.021 . S
O94 C91 1.238 . S
O95 Co89 2.052 . S
O95 C91 1.241 . S
O96 Co84 2.137 . S
O96 C87 1.247 . S
O97 Co84 2.244 . S
O97 C87 1.272 . S
O97 Co89 2.135 . S
Co98 O99 2.216 . S
Co98 O100 2.091 . S
Co98 O102 2.004 . S
Co98 O108 2.021 . S
Co98 O110 2.137 . S
Co98 O111 2.244 . S
O99 Co98 2.216 . S
O99 C106 1.247 . S
O100 Co98 2.091 . S
O100 C106 1.261 . S
C101 O110 1.247 . S
C101 O111 1.272 . S
O102 Co98 2.004 . S
O102 C107 1.259 . S
Co103 O104 2.061 . S
Co103 O109 2.052 . S
Co103 O111 2.135 . S
O104 Co103 2.061 . S
O104 C107 1.235 . S
C105 O108 1.238 . S
C105 O109 1.241 . S
C106 O99 1.247 . S
C106 O100 1.261 . S
C107 O102 1.259 . S
C107 O104 1.235 . S
O108 Co98 2.021 . S
O108 C105 1.238 . S
O109 Co103 2.052 . S
O109 C105 1.241 . S
O110 Co98 2.137 . S
O110 C101 1.247 . S
O111 Co98 2.244 . S
O111 C101 1.272 . S
O111 Co103 2.135 . S
Co112 O113 2.216 . S
Co112 O114 2.091 . S
Co112 O116 2.004 . S
Co112 O122 2.021 . S
Co112 O124 2.137 . S
Co112 O125 2.244 . S
O113 Co112 2.216 . S
O113 C120 1.247 . S
O114 Co112 2.091 . S
O114 C120 1.261 . S
C115 O124 1.247 . S
C115 O125 1.272 . S
O116 Co112 2.004 . S
O116 C121 1.259 . S
Co117 O118 2.061 . S
Co117 O123 2.052 . S
Co117 O125 2.135 . S
O118 Co117 2.061 . S
O118 C121 1.235 . S
C119 O122 1.238 . S
C119 O123 1.241 . S
C120 O113 1.247 . S
C120 O114 1.261 . S
C121 O116 1.259 . S
C121 O118 1.235 . S
O122 Co112 2.021 . S
O122 C119 1.238 . S
O123 Co117 2.052 . S
O123 C119 1.241 . S
O124 Co112 2.137 . S
O124 C115 1.247 . S
O125 Co112 2.244 . S
O125 C115 1.272 . S
O125 Co117 2.135 . S
Co126 O127 2.216 . S
Co126 O128 2.091 . S
Co126 O130 2.004 . S
Co126 O136 2.021 . S
Co126 O138 2.139 . S
Co126 O139 2.244 . S
O127 Co126 2.216 . S
O127 C134 1.247 . S
O128 Co126 2.091 . S
O128 C134 1.261 . S
C129 O138 1.249 . S
C129 O139 1.272 . S
O130 Co126 2.004 . S
O130 C135 1.259 . S
Co131 O132 2.061 . S
Co131 O137 2.052 . S
Co131 O139 2.135 . S
O132 Co131 2.061 . S
O132 C135 1.235 . S
C133 O136 1.238 . S
C133 O137 1.241 . S
C134 O127 1.247 . S
C134 O128 1.261 . S
C135 O130 1.259 . S
C135 O132 1.235 . S
O136 Co126 2.021 . S
O136 C133 1.238 . S
O137 Co131 2.052 . S
O137 C133 1.241 . S
O138 Co126 2.139 . S
O138 C129 1.249 . S
O139 Co126 2.244 . S
O139 C129 1.272 . S
O139 Co131 2.135 . S
Co140 O141 2.216 . S
Co140 O142 2.091 . S
Co140 O144 2.004 . S
Co140 O150 2.021 . S
Co140 O152 2.137 . S
Co140 O153 2.244 . S
O141 Co140 2.216 . S
O141 C148 1.247 . S
O142 Co140 2.091 . S
O142 C148 1.261 . S
C143 O152 1.247 . S
C143 O153 1.272 . S
O144 Co140 2.004 . S
O144 C149 1.259 . S
Co145 O146 2.061 . S
Co145 O151 2.052 . S
Co145 O153 2.135 . S
O146 Co145 2.061 . S
O146 C149 1.235 . S
C147 O150 1.238 . S
C147 O151 1.241 . S
C148 O141 1.247 . S
C148 O142 1.261 . S
C149 O144 1.259 . S
C149 O146 1.235 . S
O150 Co140 2.021 . S
O150 C147 1.238 . S
O151 Co145 2.052 . S
O151 C147 1.241 . S
O152 Co140 2.137 . S
O152 C143 1.247 . S
O153 Co140 2.244 . S
O153 C143 1.272 . S
O153 Co145 2.135 . S
Co154 O155 2.216 . S
Co154 O156 2.091 . S
Co154 O158 2.004 . S
Co154 O164 2.021 . S
Co154 O166 2.137 . S
Co154 O167 2.244 . S
O155 Co154 2.216 . S
O155 C162 1.247 . S
O156 Co154 2.091 . S
O156 C162 1.261 . S
C157 O166 1.247 . S
C157 O167 1.272 . S
O158 Co154 2.004 . S
O158 C163 1.259 . S
Co159 O160 2.061 . S
Co159 O165 2.052 . S
Co159 O167 2.135 . S
O160 Co159 2.061 . S
O160 C163 1.235 . S
C161 O164 1.238 . S
C161 O165 1.241 . S
C162 O155 1.247 . S
C162 O156 1.261 . S
C163 O158 1.259 . S
C163 O160 1.235 . S
O164 Co154 2.021 . S
O164 C161 1.238 . S
O165 Co159 2.052 . S
O165 C161 1.241 . S
O166 Co154 2.137 . S
O166 C157 1.247 . S
O167 Co154 2.244 . S
O167 C157 1.272 . S
O167 Co159 2.135 . S
C168 C169 1.391 . S
C168 C170 1.394 . S
C168 H184 0.931 . S
C169 C168 1.391 . S
C169 C173 1.376 . S
C170 C168 1.394 . S
C170 C171 1.369 . S
C170 C174 1.531 . S
C171 C170 1.369 . S
C171 C172 1.410 . S
C171 C179 1.503 . S
C172 C171 1.410 . S
C172 C173 1.392 . S
C172 C175 1.511 . S
C173 C169 1.376 . S
C173 C172 1.392 . S
C173 H185 0.929 . S
C174 C170 1.531 . S
C174 H186 0.960 . S
C174 H187 0.962 . S
C174 H188 0.960 . S
C175 C172 1.511 . S
C175 H189 0.961 . S
C175 H190 0.961 . S
C175 H191 0.961 . S
C176 C177 1.370 . S
C176 C178 1.363 . S
C176 H192 0.931 . S
C177 C176 1.370 . S
C177 C181 1.408 . S
C178 C176 1.363 . S
C178 C179 1.370 . S
C178 C182 1.524 . S
C179 C171 1.503 . S
C179 C178 1.370 . S
C179 C180 1.403 . S
C180 C179 1.403 . S
C180 C181 1.404 . S
C180 C183 1.539 . S
C181 C177 1.408 . S
C181 C180 1.404 . S
C181 H193 0.930 . S
C182 C178 1.524 . S
C182 H194 0.956 . S
C182 H195 0.961 . S
C182 H196 0.961 . S
C183 C180 1.539 . S
C183 H197 0.958 . S
C183 H198 0.961 . S
C183 H199 0.960 . S
H184 C168 0.931 . S
H185 C173 0.929 . S
H186 C174 0.960 . S
H187 C174 0.962 . S
H188 C174 0.960 . S
H189 C175 0.961 . S
H190 C175 0.961 . S
H191 C175 0.961 . S
H192 C176 0.931 . S
H193 C181 0.930 . S
H194 C182 0.956 . S
H195 C182 0.961 . S
H196 C182 0.961 . S
H197 C183 0.958 . S
H198 C183 0.961 . S
H199 C183 0.960 . S
C200 C201 1.391 . S
C200 C202 1.394 . S
C200 H216 0.931 . S
C201 C200 1.391 . S
C201 C205 1.376 . S
C202 C200 1.394 . S
C202 C203 1.369 . S
C202 C206 1.531 . S
C203 C202 1.369 . S
C203 C204 1.410 . S
C203 C211 1.503 . S
C204 C203 1.410 . S
C204 C205 1.392 . S
C204 C207 1.511 . S
C205 C201 1.376 . S
C205 C204 1.392 . S
C205 H217 0.929 . S
C206 C202 1.531 . S
C206 H218 0.960 . S
C206 H219 0.962 . S
C206 H220 0.960 . S
C207 C204 1.511 . S
C207 H221 0.961 . S
C207 H222 0.961 . S
C207 H223 0.961 . S
C208 C209 1.370 . S
C208 C210 1.363 . S
C208 H224 0.931 . S
C209 C208 1.370 . S
C209 C213 1.408 . S
C210 C208 1.363 . S
C210 C211 1.370 . S
C210 C214 1.524 . S
C211 C203 1.503 . S
C211 C210 1.370 . S
C211 C212 1.403 . S
C212 C211 1.403 . S
C212 C213 1.404 . S
C212 C215 1.539 . S
C213 C209 1.408 . S
C213 C212 1.404 . S
C213 H225 0.930 . S
C214 C210 1.524 . S
C214 H226 0.956 . S
C214 H227 0.961 . S
C214 H228 0.961 . S
C215 C212 1.539 . S
C215 H229 0.958 . S
C215 H230 0.961 . S
C215 H231 0.960 . S
H216 C200 0.931 . S
H217 C205 0.929 . S
H218 C206 0.960 . S
H219 C206 0.962 . S
H220 C206 0.960 . S
H221 C207 0.961 . S
H222 C207 0.961 . S
H223 C207 0.961 . S
H224 C208 0.931 . S
H225 C213 0.930 . S
H226 C214 0.956 . S
H227 C214 0.961 . S
H228 C214 0.961 . S
H229 C215 0.958 . S
H230 C215 0.961 . S
H231 C215 0.960 . S
C232 C233 1.391 . S
C232 C234 1.394 . S
C232 H248 0.931 . S
C233 C232 1.391 . S
C233 C237 1.376 . S
C234 C232 1.394 . S
C234 C235 1.369 . S
C234 C238 1.531 . S
C235 C234 1.369 . S
C235 C236 1.410 . S
C235 C243 1.503 . S
C236 C235 1.410 . S
C236 C237 1.392 . S
C236 C239 1.511 . S
C237 C233 1.376 . S
C237 C236 1.392 . S
C237 H249 0.929 . S
C238 C234 1.531 . S
C238 H250 0.960 . S
C238 H251 0.962 . S
C238 H252 0.960 . S
C239 C236 1.511 . S
C239 H253 0.961 . S
C239 H254 0.961 . S
C239 H255 0.961 . S
C240 C241 1.370 . S
C240 C242 1.363 . S
C240 H256 0.931 . S
C241 C240 1.370 . S
C241 C245 1.408 . S
C242 C240 1.363 . S
C242 C243 1.370 . S
C242 C246 1.524 . S
C243 C235 1.503 . S
C243 C242 1.370 . S
C243 C244 1.403 . S
C244 C243 1.403 . S
C244 C245 1.404 . S
C244 C247 1.539 . S
C245 C241 1.408 . S
C245 C244 1.404 . S
C245 H257 0.930 . S
C246 C242 1.524 . S
C246 H258 0.956 . S
C246 H259 0.961 . S
C246 H260 0.961 . S
C247 C244 1.539 . S
C247 H261 0.958 . S
C247 H262 0.961 . S
C247 H263 0.960 . S
H248 C232 0.931 . S
H249 C237 0.929 . S
H250 C238 0.960 . S
H251 C238 0.962 . S
H252 C238 0.960 . S
H253 C239 0.961 . S
H254 C239 0.961 . S
H255 C239 0.961 . S
H256 C240 0.931 . S
H257 C245 0.930 . S
H258 C246 0.956 . S
H259 C246 0.961 . S
H260 C246 0.961 . S
H261 C247 0.958 . S
H262 C247 0.961 . S
H263 C247 0.960 . S
C264 C265 1.391 . S
C264 C266 1.394 . S
C264 H280 0.931 . S
C265 C264 1.391 . S
C265 C269 1.376 . S
C266 C264 1.394 . S
C266 C267 1.369 . S
C266 C270 1.531 . S
C267 C266 1.369 . S
C267 C268 1.410 . S
C267 C275 1.503 . S
C268 C267 1.410 . S
C268 C269 1.392 . S
C268 C271 1.511 . S
C269 C265 1.376 . S
C269 C268 1.392 . S
C269 H281 0.929 . S
C270 C266 1.531 . S
C270 H282 0.960 . S
C270 H283 0.962 . S
C270 H284 0.960 . S
C271 C268 1.511 . S
C271 H285 0.961 . S
C271 H286 0.961 . S
C271 H287 0.961 . S
C272 C273 1.370 . S
C272 C274 1.363 . S
C272 H288 0.931 . S
C273 C272 1.370 . S
C273 C277 1.408 . S
C274 C272 1.363 . S
C274 C275 1.370 . S
C274 C278 1.524 . S
C275 C267 1.503 . S
C275 C274 1.370 . S
C275 C276 1.403 . S
C276 C275 1.403 . S
C276 C277 1.404 . S
C276 C279 1.539 . S
C277 C273 1.408 . S
C277 C276 1.404 . S
C277 H289 0.930 . S
C278 C274 1.524 . S
C278 H290 0.956 . S
C278 H291 0.961 . S
C278 H292 0.961 . S
C279 C276 1.539 . S
C279 H293 0.958 . S
C279 H294 0.961 . S
C279 H295 0.960 . S
H280 C264 0.931 . S
H281 C269 0.929 . S
H282 C270 0.960 . S
H283 C270 0.962 . S
H284 C270 0.960 . S
H285 C271 0.961 . S
H286 C271 0.961 . S
H287 C271 0.961 . S
H288 C272 0.931 . S
H289 C277 0.930 . S
H290 C278 0.956 . S
H291 C278 0.961 . S
H292 C278 0.961 . S
H293 C279 0.958 . S
H294 C279 0.961 . S
H295 C279 0.960 . S
C296 C297 1.391 . S
C296 C298 1.394 . S
C296 H312 0.931 . S
C297 C296 1.391 . S
C297 C301 1.376 . S
C298 C296 1.394 . S
C298 C299 1.369 . S
C298 C302 1.531 . S
C299 C298 1.369 . S
C299 C300 1.410 . S
C299 C307 1.503 . S
C300 C299 1.410 . S
C300 C301 1.392 . S
C300 C303 1.511 . S
C301 C297 1.376 . S
C301 C300 1.392 . S
C301 H313 0.929 . S
C302 C298 1.531 . S
C302 H314 0.960 . S
C302 H315 0.962 . S
C302 H316 0.960 . S
C303 C300 1.511 . S
C303 H317 0.961 . S
C303 H318 0.961 . S
C303 H319 0.961 . S
C304 C305 1.370 . S
C304 C306 1.363 . S
C304 H320 0.931 . S
C305 C304 1.370 . S
C305 C309 1.408 . S
C306 C304 1.363 . S
C306 C307 1.370 . S
C306 C310 1.524 . S
C307 C299 1.503 . S
C307 C306 1.370 . S
C307 C308 1.403 . S
C308 C307 1.403 . S
C308 C309 1.404 . S
C308 C311 1.539 . S
C309 C305 1.408 . S
C309 C308 1.404 . S
C309 H321 0.930 . S
C310 C306 1.524 . S
C310 H322 0.956 . S
C310 H323 0.961 . S
C310 H324 0.961 . S
C311 C308 1.539 . S
C311 H325 0.958 . S
C311 H326 0.961 . S
C311 H327 0.960 . S
H312 C296 0.931 . S
H313 C301 0.929 . S
H314 C302 0.960 . S
H315 C302 0.962 . S
H316 C302 0.960 . S
H317 C303 0.961 . S
H318 C303 0.961 . S
H319 C303 0.961 . S
H320 C304 0.931 . S
H321 C309 0.930 . S
H322 C310 0.956 . S
H323 C310 0.961 . S
H324 C310 0.961 . S
H325 C311 0.958 . S
H326 C311 0.961 . S
H327 C311 0.960 . S
C328 C329 1.391 . S
C328 C330 1.394 . S
C328 H344 0.931 . S
C329 C328 1.391 . S
C329 C333 1.376 . S
C330 C328 1.394 . S
C330 C331 1.369 . S
C330 C334 1.531 . S
C331 C330 1.369 . S
C331 C332 1.410 . S
C331 C339 1.503 . S
C332 C331 1.410 . S
C332 C333 1.392 . S
C332 C335 1.511 . S
C333 C329 1.376 . S
C333 C332 1.392 . S
C333 H345 0.929 . S
C334 C330 1.531 . S
C334 H346 0.960 . S
C334 H347 0.962 . S
C334 H348 0.960 . S
C335 C332 1.511 . S
C335 H349 0.961 . S
C335 H350 0.961 . S
C335 H351 0.961 . S
C336 C337 1.370 . S
C336 C338 1.363 . S
C336 H352 0.931 . S
C337 C336 1.370 . S
C337 C341 1.408 . S
C338 C336 1.363 . S
C338 C339 1.370 . S
C338 C342 1.524 . S
C339 C331 1.503 . S
C339 C338 1.370 . S
C339 C340 1.403 . S
C340 C339 1.403 . S
C340 C341 1.404 . S
C340 C343 1.539 . S
C341 C337 1.408 . S
C341 C340 1.404 . S
C341 H353 0.930 . S
C342 C338 1.524 . S
C342 H354 0.956 . S
C342 H355 0.961 . S
C342 H356 0.961 . S
C343 C340 1.539 . S
C343 H357 0.958 . S
C343 H358 0.961 . S
C343 H359 0.960 . S
H344 C328 0.931 . S
H345 C333 0.929 . S
H346 C334 0.960 . S
H347 C334 0.962 . S
H348 C334 0.960 . S
H349 C335 0.961 . S
H350 C335 0.961 . S
H351 C335 0.961 . S
H352 C336 0.931 . S
H353 C341 0.930 . S
H354 C342 0.956 . S
H355 C342 0.961 . S
H356 C342 0.961 . S
H357 C343 0.958 . S
H358 C343 0.961 . S
H359 C343 0.960 . S
C360 C361 1.391 . S
C360 C362 1.394 . S
C360 H376 0.931 . S
C361 C360 1.391 . S
C361 C365 1.376 1_554 S
C362 C360 1.394 . S
C362 C363 1.369 . S
C362 C366 1.531 . S
C363 C362 1.369 . S
C363 C364 1.410 1_554 S
C363 C371 1.503 1_544 S
C364 C363 1.410 1_556 S
C364 C365 1.392 . S
C364 C367 1.511 . S
C365 C361 1.376 1_556 S
C365 C364 1.392 . S
C365 H377 0.929 . S
C366 C362 1.531 . S
C366 H378 0.960 1_545 S
C366 H379 0.962 1_545 S
C366 H380 0.960 . S
C367 C364 1.511 . S
C367 H381 0.961 . S
C367 H382 0.960 1_545 S
C367 H383 0.961 . S
C368 C369 1.370 . S
C368 C370 1.363 . S
C368 H384 0.931 . S
C369 C368 1.370 . S
C369 C373 1.408 . S
C370 C368 1.363 . S
C370 C371 1.370 . S
C370 C374 1.524 1_556 S
C371 C363 1.503 1_566 S
C371 C370 1.370 . S
C371 C372 1.403 . S
C372 C371 1.403 . S
C372 C373 1.404 . S
C372 C375 1.539 1_565 S
C373 C369 1.408 . S
C373 C372 1.404 . S
C373 H385 0.930 . S
C374 C370 1.524 1_554 S
C374 H386 0.956 . S
C374 H387 0.961 1_554 S
C374 H388 0.961 1_554 S
C375 C372 1.539 1_545 S
C375 H389 0.958 1_556 S
C375 H390 0.961 . S
C375 H391 0.960 . S
H376 C360 0.931 . S
H377 C365 0.929 . S
H378 C366 0.960 1_565 S
H379 C366 0.962 1_565 S
H380 C366 0.960 . S
H381 C367 0.961 . S
H382 C367 0.960 1_565 S
H383 C367 0.961 . S
H384 C368 0.931 . S
H385 C373 0.930 . S
H386 C374 0.956 . S
H387 C374 0.961 1_556 S
H388 C374 0.961 1_556 S
H389 C375 0.958 1_554 S
H390 C375 0.961 . S
H391 C375 0.960 . S
C392 C393 1.391 . S
C392 C394 1.394 . S
C392 H408 0.931 . S
C393 C392 1.391 . S
C393 C397 1.376 . S
C394 C392 1.394 . S
C394 C395 1.369 . S
C394 C398 1.531 . S
C395 C394 1.369 . S
C395 C396 1.410 . S
C395 C403 1.503 . S
C396 C395 1.410 . S
C396 C397 1.392 . S
C396 C399 1.511 . S
C397 C393 1.376 . S
C397 C396 1.392 . S
C397 H409 0.929 . S
C398 C394 1.531 . S
C398 H410 0.960 . S
C398 H411 0.962 . S
C398 H412 0.960 . S
C399 C396 1.511 . S
C399 H413 0.961 . S
C399 H414 0.961 . S
C399 H415 0.961 . S
C400 C401 1.370 . S
C400 C402 1.363 . S
C400 H416 0.931 . S
C401 C400 1.370 . S
C401 C405 1.408 . S
C402 C400 1.363 . S
C402 C403 1.370 . S
C402 C406 1.524 . S
C403 C395 1.503 . S
C403 C402 1.370 . S
C403 C404 1.403 . S
C404 C403 1.403 . S
C404 C405 1.404 . S
C404 C407 1.539 . S
C405 C401 1.408 . S
C405 C404 1.404 . S
C405 H417 0.930 . S
C406 C402 1.524 . S
C406 H418 0.956 . S
C406 H419 0.961 . S
C406 H420 0.961 . S
C407 C404 1.539 . S
C407 H421 0.958 . S
C407 H422 0.961 . S
C407 H423 0.960 . S
H408 C392 0.931 . S
H409 C397 0.929 . S
H410 C398 0.960 . S
H411 C398 0.962 . S
H412 C398 0.960 . S
H413 C399 0.961 . S
H414 C399 0.961 . S
H415 C399 0.961 . S
H416 C400 0.931 . S
H417 C405 0.930 . S
H418 C406 0.956 . S
H419 C406 0.961 . S
H420 C406 0.961 . S
H421 C407 0.958 . S
H422 C407 0.961 . S
H423 C407 0.960 . S
C424 C425 1.391 . S
C424 C426 1.394 . S
C424 H440 0.931 . S
C425 C424 1.391 . S
C425 C429 1.376 1_556 S
C426 C424 1.394 . S
C426 C427 1.369 . S
C426 C430 1.531 1_455 S
C427 C426 1.369 . S
C427 C428 1.410 1_556 S
C427 C435 1.503 1_455 S
C428 C427 1.410 1_554 S
C428 C429 1.392 . S
C428 C431 1.511 . S
C429 C425 1.376 1_554 S
C429 C428 1.392 . S
C429 H441 0.929 . S
C430 C426 1.531 1_655 S
C430 H442 0.960 . S
C430 H443 0.962 . S
C430 H444 0.960 . S
C431 C428 1.511 . S
C431 H445 0.961 . S
C431 H446 0.961 . S
C431 H447 0.961 . S
C432 C433 1.370 . S
C432 C434 1.363 . S
C432 H448 0.931 . S
C433 C432 1.370 . S
C433 C437 1.408 1_554 S
C434 C432 1.363 . S
C434 C435 1.370 1_554 S
C434 C438 1.524 . S
C435 C427 1.503 1_655 S
C435 C434 1.370 1_556 S
C435 C436 1.403 . S
C436 C435 1.403 . S
C436 C437 1.404 . S
C436 C439 1.539 . S
C437 C433 1.408 1_556 S
C437 C436 1.404 . S
C437 H449 0.930 . S
C438 C434 1.524 . S
C438 H450 0.956 . S
C438 H451 0.961 . S
C438 H452 0.961 . S
C439 C436 1.539 . S
C439 H453 0.958 . S
C439 H454 0.961 . S
C439 H455 0.960 1_655 S
H440 C424 0.931 . S
H441 C429 0.929 . S
H442 C430 0.960 . S
H443 C430 0.962 . S
H444 C430 0.960 . S
H445 C431 0.961 . S
H446 C431 0.961 . S
H447 C431 0.961 . S
H448 C432 0.931 . S
H449 C437 0.930 . S
H450 C438 0.956 . S
H451 C438 0.961 . S
H452 C438 0.961 . S
H453 C439 0.958 . S
H454 C439 0.961 . S
H455 C439 0.960 1_455 S
C456 C457 1.391 . S
C456 C458 1.394 . S
C456 H472 0.931 . S
C457 C456 1.391 . S
C457 C461 1.376 . S
C458 C456 1.394 . S
C458 C459 1.369 . S
C458 C462 1.531 . S
C459 C458 1.369 . S
C459 C460 1.410 . S
C459 C467 1.503 1_545 S
C460 C459 1.410 . S
C460 C461 1.392 . S
C460 C463 1.511 . S
C461 C457 1.376 . S
C461 C460 1.392 . S
C461 H473 0.929 . S
C462 C458 1.531 . S
C462 H474 0.960 . S
C462 H475 0.965 1_545 S
C462 H476 0.960 . S
C463 C460 1.511 . S
C463 H477 0.961 . S
C463 H478 0.961 . S
C463 H479 0.961 . S
C464 C465 1.370 . S
C464 C466 1.363 . S
C464 H480 0.931 . S
C465 C464 1.370 . S
C465 C469 1.408 . S
C466 C464 1.363 . S
C466 C467 1.370 . S
C466 C470 1.524 . S
C467 C459 1.503 1_565 S
C467 C466 1.370 . S
C467 C468 1.403 . S
C468 C467 1.403 . S
C468 C469 1.404 . S
C468 C471 1.539 1_565 S
C469 C465 1.408 . S
C469 C468 1.404 . S
C469 H481 0.930 . S
C470 C466 1.524 . S
C470 H482 0.956 . S
C470 H483 0.961 . S
C470 H484 0.961 . S
C471 C468 1.539 1_545 S
C471 H485 0.958 . S
C471 H486 0.961 . S
C471 H487 0.960 . S
H472 C456 0.931 . S
H473 C461 0.929 . S
H474 C462 0.960 . S
H475 C462 0.965 1_565 S
H476 C462 0.960 . S
H477 C463 0.961 . S
H478 C463 0.961 . S
H479 C463 0.961 . S
H480 C464 0.931 . S
H481 C469 0.930 . S
H482 C470 0.956 . S
H483 C470 0.961 . S
H484 C470 0.961 . S
H485 C471 0.958 . S
H486 C471 0.961 . S
H487 C471 0.960 . S
C488 C489 1.391 . S
C488 C490 1.394 . S
C488 H504 0.931 . S
C489 C488 1.391 . S
C489 C493 1.376 1_556 S
C490 C488 1.394 . S
C490 C491 1.369 . S
C490 C494 1.531 . S
C491 C490 1.369 . S
C491 C492 1.410 1_556 S
C491 C499 1.508 . S
C492 C491 1.410 1_554 S
C492 C493 1.392 . S
C492 C495 1.511 . S
C493 C489 1.376 1_554 S
C493 C492 1.392 . S
C493 H505 0.929 . S
C494 C490 1.531 . S
C494 H506 0.960 . S
C494 H507 0.962 . S
C494 H508 0.960 . S
C495 C492 1.511 . S
C495 H509 0.961 . S
C495 H510 0.961 . S
C495 H511 0.961 . S
C496 C497 1.370 . S
C496 C498 1.363 . S
C496 H512 0.931 . S
C497 C496 1.370 . S
C497 C501 1.408 1_554 S
C498 C496 1.363 . S
C498 C499 1.357 1_554 S
C498 C502 1.524 . S
C499 C491 1.508 . S
C499 C498 1.357 1_556 S
C499 C500 1.412 . S
C500 C499 1.412 . S
C500 C501 1.404 . S
C500 C503 1.539 . S
C501 C497 1.408 1_556 S
C501 C500 1.404 . S
C501 H513 0.930 . S
C502 C498 1.524 . S
C502 H514 0.956 . S
C502 H515 0.961 . S
C502 H516 0.961 . S
C503 C500 1.539 . S
C503 H517 0.958 . S
C503 H518 0.961 . S
C503 H519 0.960 . S
H504 C488 0.931 . S
H505 C493 0.929 . S
H506 C494 0.960 . S
H507 C494 0.962 . S
H508 C494 0.960 . S
H509 C495 0.961 . S
H510 C495 0.961 . S
H511 C495 0.961 . S
H512 C496 0.931 . S
H513 C501 0.930 . S
H514 C502 0.956 . S
H515 C502 0.961 . S
H516 C502 0.961 . S
H517 C503 0.958 . S
H518 C503 0.961 . S
H519 C503 0.960 . S
C520 C521 1.391 . S
C520 C522 1.394 . S
C520 H536 0.931 . S
C521 C520 1.391 . S
C521 C525 1.376 . S
C522 C520 1.394 . S
C522 C523 1.369 . S
C522 C526 1.531 . S
C523 C522 1.369 . S
C523 C524 1.410 . S
C523 C531 1.503 1_655 S
C524 C523 1.410 . S
C524 C525 1.392 . S
C524 C527 1.511 1_655 S
C525 C521 1.376 . S
C525 C524 1.392 . S
C525 H537 0.929 . S
C526 C522 1.531 . S
C526 H538 0.960 . S
C526 H539 0.962 . S
C526 H540 0.960 . S
C527 C524 1.511 1_455 S
C527 H541 0.961 . S
C527 H542 0.961 . S
C527 H543 0.961 . S
C528 C529 1.370 . S
C528 C530 1.363 . S
C528 H544 0.931 . S
C529 C528 1.370 . S
C529 C533 1.408 . S
C530 C528 1.363 . S
C530 C531 1.370 . S
C530 C534 1.524 . S
C531 C523 1.503 1_455 S
C531 C530 1.370 . S
C531 C532 1.403 . S
C532 C531 1.403 . S
C532 C533 1.404 . S
C532 C535 1.539 . S
C533 C529 1.408 . S
C533 C532 1.404 . S
C533 H545 0.930 . S
C534 C530 1.524 . S
C534 H546 0.956 1_455 S
C534 H547 0.961 . S
C534 H548 0.961 . S
C535 C532 1.539 . S
C535 H549 0.958 . S
C535 H550 0.961 . S
C535 H551 0.960 . S
H536 C520 0.931 . S
H537 C525 0.929 . S
H538 C526 0.960 . S
H539 C526 0.962 . S
H540 C526 0.960 . S
H541 C527 0.961 . S
H542 C527 0.961 . S
H543 C527 0.961 . S
H544 C528 0.931 . S
H545 C533 0.930 . S
H546 C534 0.956 1_655 S
H547 C534 0.961 . S
H548 C534 0.961 . S
H549 C535 0.958 . S
H550 C535 0.961 . S
H551 C535 0.960 . S
C552 C553 1.391 . S
C552 C554 1.394 . S
C552 H568 0.931 . S
C553 C552 1.391 . S
C553 C557 1.376 . S
C554 C552 1.394 . S
C554 C555 1.369 . S
C554 C558 1.531 . S
C555 C554 1.369 . S
C555 C556 1.410 . S
C555 C563 1.503 . S
C556 C555 1.410 . S
C556 C557 1.392 . S
C556 C559 1.511 . S
C557 C553 1.376 . S
C557 C556 1.392 . S
C557 H569 0.929 . S
C558 C554 1.531 . S
C558 H570 0.960 . S
C558 H571 0.962 1_554 S
C558 H572 0.960 . S
C559 C556 1.511 . S
C559 H573 0.961 . S
C559 H574 0.961 . S
C559 H575 0.961 . S
C560 C561 1.370 1_556 S
C560 C562 1.363 1_556 S
C560 H576 0.931 . S
C561 C560 1.370 1_554 S
C561 C565 1.408 . S
C562 C560 1.363 1_554 S
C562 C563 1.370 . S
C562 C566 1.524 1_554 S
C563 C555 1.503 . S
C563 C562 1.370 . S
C563 C564 1.403 . S
C564 C563 1.403 . S
C564 C565 1.404 . S
C564 C567 1.539 . S
C565 C561 1.408 . S
C565 C564 1.404 . S
C565 H577 0.930 . S
C566 C562 1.524 1_556 S
C566 H578 0.956 . S
C566 H579 0.961 . S
C566 H580 0.961 . S
C567 C564 1.539 . S
C567 H581 0.958 . S
C567 H582 0.961 . S
C567 H583 0.960 . S
H568 C552 0.931 . S
H569 C557 0.929 . S
H570 C558 0.960 . S
H571 C558 0.962 1_556 S
H572 C558 0.960 . S
H573 C559 0.961 . S
H574 C559 0.961 . S
H575 C559 0.961 . S
H576 C560 0.931 . S
H577 C565 0.930 . S
H578 C566 0.956 . S
H579 C566 0.961 . S
H580 C566 0.961 . S
H581 C567 0.958 . S
H582 C567 0.961 . S
H583 C567 0.960 . S
C584 C585 1.391 . S
C584 C586 1.394 . S
C584 H600 0.931 . S
C585 C584 1.391 . S
C585 C589 1.376 . S
C586 C584 1.394 . S
C586 C587 1.369 . S
C586 C590 1.531 . S
C587 C586 1.369 . S
C587 C588 1.410 . S
C587 C595 1.503 . S
C588 C587 1.410 . S
C588 C589 1.392 . S
C588 C591 1.511 . S
C589 C585 1.376 . S
C589 C588 1.392 . S
C589 H601 0.929 . S
C590 C586 1.531 . S
C590 H602 0.960 . S
C590 H603 0.962 . S
C590 H604 0.960 . S
C591 C588 1.511 . S
C591 H605 0.961 . S
C591 H606 0.961 . S
C591 H607 0.961 . S
C592 C593 1.370 . S
C592 C594 1.363 . S
C592 H608 0.931 . S
C593 C592 1.370 . S
C593 C597 1.408 . S
C594 C592 1.363 . S
C594 C595 1.370 . S
C594 C598 1.524 . S
C595 C587 1.503 . S
C595 C594 1.370 . S
C595 C596 1.403 . S
C596 C595 1.403 . S
C596 C597 1.404 . S
C596 C599 1.539 . S
C597 C593 1.408 . S
C597 C596 1.404 . S
C597 H609 0.930 . S
C598 C594 1.524 . S
C598 H610 0.956 . S
C598 H611 0.961 . S
C598 H612 0.961 . S
C599 C596 1.539 . S
C599 H613 0.958 . S
C599 H614 0.961 . S
C599 H615 0.960 . S
H600 C584 0.931 . S
H601 C589 0.929 . S
H602 C590 0.960 . S
H603 C590 0.962 . S
H604 C590 0.960 . S
H605 C591 0.961 . S
H606 C591 0.961 . S
H607 C591 0.961 . S
H608 C592 0.931 . S
H609 C597 0.930 . S
H610 C598 0.956 . S
H611 C598 0.961 . S
H612 C598 0.961 . S
H613 C599 0.958 . S
H614 C599 0.961 . S
H615 C599 0.960 . S
C616 C617 1.391 . S
C616 C618 1.394 . S
C616 H632 0.931 . S
C617 C616 1.391 . S
C617 C621 1.376 . S
C618 C616 1.394 . S
C618 C619 1.369 . S
C618 C622 1.531 . S
C619 C618 1.369 . S
C619 C620 1.410 . S
C619 C627 1.503 . S
C620 C619 1.410 . S
C620 C621 1.392 . S
C620 C623 1.511 . S
C621 C617 1.376 . S
C621 C620 1.392 . S
C621 H633 0.929 . S
C622 C618 1.531 . S
C622 H634 0.960 . S
C622 H635 0.962 . S
C622 H636 0.960 . S
C623 C620 1.511 . S
C623 H637 0.961 1_554 S
C623 H638 0.961 1_554 S
C623 H639 0.961 . S
C624 C625 1.370 1_556 S
C624 C626 1.363 1_556 S
C624 H640 0.931 . S
C625 C624 1.370 1_554 S
C625 C629 1.408 . S
C626 C624 1.363 1_554 S
C626 C627 1.370 . S
C626 C630 1.524 1_554 S
C627 C619 1.503 . S
C627 C626 1.370 . S
C627 C628 1.403 . S
C628 C627 1.403 . S
C628 C629 1.404 . S
C628 C631 1.539 . S
C629 C625 1.408 . S
C629 C628 1.404 . S
C629 H641 0.930 . S
C630 C626 1.524 1_556 S
C630 H642 0.956 . S
C630 H643 0.961 . S
C630 H644 0.961 . S
C631 C628 1.539 . S
C631 H645 0.958 . S
C631 H646 0.961 . S
C631 H647 0.960 . S
H632 C616 0.931 . S
H633 C621 0.929 . S
H634 C622 0.960 . S
H635 C622 0.962 . S
H636 C622 0.960 . S
H637 C623 0.961 1_556 S
H638 C623 0.961 1_556 S
H639 C623 0.961 . S
H640 C624 0.931 . S
H641 C629 0.930 . S
H642 C630 0.956 . S
H643 C630 0.961 . S
H644 C630 0.961 . S
H645 C631 0.958 . S
H646 C631 0.961 . S
H647 C631 0.960 . S
C648 C649 1.391 . S
C648 C650 1.394 . S
C648 H664 0.931 . S
C649 C648 1.391 . S
C649 C653 1.376 . S
C650 C648 1.394 . S
C650 C651 1.369 . S
C650 C654 1.531 . S
C651 C650 1.369 . S
C651 C652 1.410 . S
C651 C659 1.503 . S
C652 C651 1.410 . S
C652 C653 1.392 . S
C652 C655 1.511 . S
C653 C649 1.376 . S
C653 C652 1.392 . S
C653 H665 0.929 . S
C654 C650 1.531 . S
C654 H666 0.960 . S
C654 H667 0.962 . S
C654 H668 0.960 . S
C655 C652 1.511 . S
C655 H669 0.961 . S
C655 H670 0.961 . S
C655 H671 0.961 . S
C656 C657 1.370 . S
C656 C658 1.363 . S
C656 H672 0.931 . S
C657 C656 1.370 . S
C657 C661 1.408 . S
C658 C656 1.363 . S
C658 C659 1.370 . S
C658 C662 1.524 . S
C659 C651 1.503 . S
C659 C658 1.370 . S
C659 C660 1.403 . S
C660 C659 1.403 . S
C660 C661 1.404 . S
C660 C663 1.539 . S
C661 C657 1.408 . S
C661 C660 1.404 . S
C661 H673 0.930 . S
C662 C658 1.524 . S
C662 H674 0.956 . S
C662 H675 0.961 . S
C662 H676 0.961 . S
C663 C660 1.539 . S
C663 H677 0.958 . S
C663 H678 0.961 . S
C663 H679 0.960 . S
H664 C648 0.931 . S
H665 C653 0.929 . S
H666 C654 0.960 . S
H667 C654 0.962 . S
H668 C654 0.960 . S
H669 C655 0.961 . S
H670 C655 0.961 . S
H671 C655 0.961 . S
H672 C656 0.931 . S
H673 C661 0.930 . S
H674 C662 0.956 . S
H675 C662 0.961 . S
H676 C662 0.961 . S
H677 C663 0.958 . S
H678 C663 0.961 . S
H679 C663 0.960 . S
C680 C681 1.391 . S
C680 C682 1.394 . S
C680 H696 0.931 1_554 S
C681 C680 1.391 . S
C681 C685 1.376 . S
C682 C680 1.394 . S
C682 C683 1.369 . S
C682 C686 1.531 1_554 S
C683 C682 1.369 . S
C683 C684 1.410 . S
C683 C691 1.503 . S
C684 C683 1.410 . S
C684 C685 1.392 . S
C684 C687 1.511 . S
C685 C681 1.376 . S
C685 C684 1.392 . S
C685 H697 0.929 . S
C686 C682 1.531 1_556 S
C686 H698 0.960 . S
C686 H699 0.962 . S
C686 H700 0.960 . S
C687 C684 1.511 . S
C687 H701 0.961 . S
C687 H702 0.961 . S
C687 H703 0.961 . S
C688 C689 1.370 . S
C688 C690 1.363 . S
C688 H704 0.931 . S
C689 C688 1.370 . S
C689 C693 1.408 . S
C690 C688 1.363 . S
C690 C691 1.370 . S
C690 C694 1.524 . S
C691 C683 1.503 . S
C691 C690 1.370 . S
C691 C692 1.403 . S
C692 C691 1.403 . S
C692 C693 1.404 . S
C692 C695 1.539 . S
C693 C689 1.408 . S
C693 C692 1.404 . S
C693 H705 0.930 . S
C694 C690 1.524 . S
C694 H706 0.956 . S
C694 H707 0.961 . S
C694 H708 0.961 . S
C695 C692 1.539 . S
C695 H709 0.958 1_554 S
C695 H710 0.961 . S
C695 H711 0.960 . S
H696 C680 0.931 1_556 S
H697 C685 0.929 . S
H698 C686 0.960 . S
H699 C686 0.962 . S
H700 C686 0.960 . S
H701 C687 0.961 . S
H702 C687 0.961 . S
H703 C687 0.961 . S
H704 C688 0.931 . S
H705 C693 0.930 . S
H706 C694 0.956 . S
H707 C694 0.961 . S
H708 C694 0.961 . S
H709 C695 0.958 1_556 S
H710 C695 0.961 . S
H711 C695 0.960 . S
C712 C713 1.391 . S
C712 C714 1.394 . S
C712 H728 0.931 . S
C713 C712 1.391 . S
C713 C717 1.376 . S
C714 C712 1.394 . S
C714 C715 1.369 . S
C714 C718 1.531 . S
C715 C714 1.369 . S
C715 C716 1.410 . S
C715 C723 1.503 . S
C716 C715 1.410 . S
C716 C717 1.392 . S
C716 C719 1.511 . S
C717 C713 1.376 . S
C717 C716 1.392 . S
C717 H729 0.929 . S
C718 C714 1.531 . S
C718 H730 0.960 . S
C718 H731 0.962 . S
C718 H732 0.960 . S
C719 C716 1.511 . S
C719 H733 0.961 . S
C719 H734 0.961 . S
C719 H735 0.961 . S
C720 C721 1.370 . S
C720 C722 1.363 . S
C720 H736 0.931 . S
C721 C720 1.370 . S
C721 C725 1.408 . S
C722 C720 1.363 . S
C722 C723 1.370 . S
C722 C726 1.524 . S
C723 C715 1.503 . S
C723 C722 1.370 . S
C723 C724 1.403 . S
C724 C723 1.403 . S
C724 C725 1.404 . S
C724 C727 1.539 . S
C725 C721 1.408 . S
C725 C724 1.404 . S
C725 H737 0.930 . S
C726 C722 1.524 . S
C726 H738 0.956 . S
C726 H739 0.961 . S
C726 H740 0.961 . S
C727 C724 1.539 . S
C727 H741 0.958 . S
C727 H742 0.961 . S
C727 H743 0.960 . S
H728 C712 0.931 . S
H729 C717 0.929 . S
H730 C718 0.960 . S
H731 C718 0.962 . S
H732 C718 0.960 . S
H733 C719 0.961 . S
H734 C719 0.961 . S
H735 C719 0.961 . S
H736 C720 0.931 . S
H737 C725 0.930 . S
H738 C726 0.956 . S
H739 C726 0.961 . S
H740 C726 0.961 . S
H741 C727 0.958 . S
H742 C727 0.961 . S
H743 C727 0.960 . S
C744 C745 1.391 . S
C744 C746 1.394 . S
C744 H760 0.931 . S
C745 C744 1.391 . S
C745 C749 1.376 . S
C746 C744 1.394 . S
C746 C747 1.369 . S
C746 C750 1.531 . S
C747 C746 1.369 . S
C747 C748 1.410 . S
C747 C755 1.503 . S
C748 C747 1.410 . S
C748 C749 1.392 . S
C748 C751 1.511 . S
C749 C745 1.376 . S
C749 C748 1.392 . S
C749 H761 0.929 . S
C750 C746 1.531 . S
C750 H762 0.960 . S
C750 H763 0.962 . S
C750 H764 0.960 . S
C751 C748 1.511 . S
C751 H765 0.961 . S
C751 H766 0.961 . S
C751 H767 0.961 . S
C752 C753 1.370 . S
C752 C754 1.363 . S
C752 H768 0.931 . S
C753 C752 1.370 . S
C753 C757 1.408 . S
C754 C752 1.363 . S
C754 C755 1.370 . S
C754 C758 1.524 . S
C755 C747 1.503 . S
C755 C754 1.370 . S
C755 C756 1.403 . S
C756 C755 1.403 . S
C756 C757 1.404 . S
C756 C759 1.539 . S
C757 C753 1.408 . S
C757 C756 1.404 . S
C757 H769 0.930 . S
C758 C754 1.524 . S
C758 H770 0.956 . S
C758 H771 0.961 . S
C758 H772 0.961 . S
C759 C756 1.539 . S
C759 H773 0.958 . S
C759 H774 0.961 . S
C759 H775 0.960 . S
H760 C744 0.931 . S
H761 C749 0.929 . S
H762 C750 0.960 . S
H763 C750 0.962 . S
H764 C750 0.960 . S
H765 C751 0.961 . S
H766 C751 0.961 . S
H767 C751 0.961 . S
H768 C752 0.931 . S
H769 C757 0.930 . S
H770 C758 0.956 . S
H771 C758 0.961 . S
H772 C758 0.961 . S
H773 C759 0.958 . S
H774 C759 0.961 . S
H775 C759 0.960 . S
C776 C777 1.391 . S
C776 C778 1.394 . S
C776 H792 0.931 1_556 S
C777 C776 1.391 . S
C777 C781 1.376 . S
C778 C776 1.394 . S
C778 C779 1.369 . S
C778 C782 1.531 1_556 S
C779 C778 1.369 . S
C779 C780 1.410 . S
C779 C787 1.503 . S
C780 C779 1.410 . S
C780 C781 1.392 . S
C780 C783 1.511 . S
C781 C777 1.376 . S
C781 C780 1.392 . S
C781 H793 0.929 . S
C782 C778 1.531 1_554 S
C782 H794 0.960 . S
C782 H795 0.962 . S
C782 H796 0.960 . S
C783 C780 1.511 . S
C783 H797 0.961 . S
C783 H798 0.961 . S
C783 H799 0.961 . S
C784 C785 1.370 . S
C784 C786 1.363 . S
C784 H800 0.931 . S
C785 C784 1.370 . S
C785 C789 1.397 1_556 S
C786 C784 1.363 . S
C786 C787 1.370 . S
C786 C790 1.524 . S
C787 C779 1.503 . S
C787 C786 1.370 . S
C787 C788 1.403 . S
C788 C787 1.403 . S
C788 C789 1.401 1_556 S
C788 C791 1.539 1_556 S
C789 C785 1.397 1_554 S
C789 C788 1.401 1_554 S
C789 H801 0.944 . S
C790 C786 1.524 . S
C790 H802 0.956 . S
C790 H803 0.961 . S
C790 H804 0.961 . S
C791 C788 1.539 1_554 S
C791 H805 0.958 . S
C791 H806 0.961 . S
C791 H807 0.960 1_554 S
H792 C776 0.931 1_554 S
H793 C781 0.929 . S
H794 C782 0.960 . S
H795 C782 0.962 . S
H796 C782 0.960 . S
H797 C783 0.961 . S
H798 C783 0.961 . S
H799 C783 0.961 . S
H800 C784 0.931 . S
H801 C789 0.944 . S
H802 C790 0.956 . S
H803 C790 0.961 . S
H804 C790 0.961 . S
H805 C791 0.958 . S
H806 C791 0.961 . S
H807 C791 0.960 1_556 S
C808 C809 1.391 . S
C808 C810 1.394 . S
C808 H824 0.931 . S
C809 C808 1.391 . S
C809 C813 1.376 . S
C810 C808 1.394 . S
C810 C811 1.369 . S
C810 C814 1.531 . S
C811 C810 1.369 . S
C811 C812 1.410 . S
C811 C819 1.503 . S
C812 C811 1.410 . S
C812 C813 1.392 . S
C812 C815 1.511 . S
C813 C809 1.376 . S
C813 C812 1.392 . S
C813 H825 0.929 . S
C814 C810 1.531 . S
C814 H826 0.960 . S
C814 H827 0.962 . S
C814 H828 0.960 . S
C815 C812 1.511 . S
C815 H829 0.961 . S
C815 H830 0.961 . S
C815 H831 0.961 . S
C816 C817 1.370 . S
C816 C818 1.363 . S
C816 H832 0.931 . S
C817 C816 1.370 . S
C817 C821 1.408 . S
C818 C816 1.363 . S
C818 C819 1.370 . S
C818 C822 1.524 . S
C819 C811 1.503 . S
C819 C818 1.370 . S
C819 C820 1.403 . S
C820 C819 1.403 . S
C820 C821 1.404 . S
C820 C823 1.539 . S
C821 C817 1.408 . S
C821 C820 1.404 . S
C821 H833 0.930 . S
C822 C818 1.524 . S
C822 H834 0.956 . S
C822 H835 0.961 . S
C822 H836 0.961 . S
C823 C820 1.539 . S
C823 H837 0.958 . S
C823 H838 0.961 . S
C823 H839 0.960 . S
H824 C808 0.931 . S
H825 C813 0.929 . S
H826 C814 0.960 . S
H827 C814 0.962 . S
H828 C814 0.960 . S
H829 C815 0.961 . S
H830 C815 0.961 . S
H831 C815 0.961 . S
H832 C816 0.931 . S
H833 C821 0.930 . S
H834 C822 0.956 . S
H835 C822 0.961 . S
H836 C822 0.961 . S
H837 C823 0.958 . S
H838 C823 0.961 . S
H839 C823 0.960 . S
C840 C841 1.391 . S
C840 C842 1.394 . S
C840 H856 0.931 . S
C841 C840 1.391 . S
C841 C845 1.376 . S
C842 C840 1.394 . S
C842 C843 1.369 . S
C842 C846 1.531 . S
C843 C842 1.369 . S
C843 C844 1.410 . S
C843 C851 1.503 . S
C844 C843 1.410 . S
C844 C845 1.392 . S
C844 C847 1.511 . S
C845 C841 1.376 . S
C845 C844 1.392 . S
C845 H857 0.929 . S
C846 C842 1.531 . S
C846 H858 0.960 . S
C846 H859 0.962 1_556 S
C846 H860 0.960 . S
C847 C844 1.511 . S
C847 H861 0.961 . S
C847 H862 0.961 . S
C847 H863 0.961 . S
C848 C849 1.370 1_554 S
C848 C850 1.363 1_554 S
C848 H864 0.931 . S
C849 C848 1.370 1_556 S
C849 C853 1.408 . S
C850 C848 1.363 1_556 S
C850 C851 1.370 . S
C850 C854 1.524 1_556 S
C851 C843 1.503 . S
C851 C850 1.370 . S
C851 C852 1.403 . S
C852 C851 1.403 . S
C852 C853 1.404 . S
C852 C855 1.539 . S
C853 C849 1.408 . S
C853 C852 1.404 . S
C853 H865 0.930 . S
C854 C850 1.524 1_554 S
C854 H866 0.956 . S
C854 H867 0.961 . S
C854 H868 0.961 . S
C855 C852 1.539 . S
C855 H869 0.958 . S
C855 H870 0.961 . S
C855 H871 0.960 . S
H856 C840 0.931 . S
H857 C845 0.929 . S
H858 C846 0.960 . S
H859 C846 0.962 1_554 S
H860 C846 0.960 . S
H861 C847 0.961 . S
H862 C847 0.961 . S
H863 C847 0.961 . S
H864 C848 0.931 . S
H865 C853 0.930 . S
H866 C854 0.956 . S
H867 C854 0.961 . S
H868 C854 0.961 . S
H869 C855 0.958 . S
H870 C855 0.961 . S
H871 C855 0.960 . S
C872 C873 1.391 . S
C872 C874 1.394 . S
C872 H888 0.931 . S
C873 C872 1.391 . S
C873 C877 1.376 . S
C874 C872 1.394 . S
C874 C875 1.369 . S
C874 C878 1.531 . S
C875 C874 1.369 . S
C875 C876 1.410 . S
C875 C883 1.503 . S
C876 C875 1.410 . S
C876 C877 1.392 . S
C876 C879 1.511 . S
C877 C873 1.376 . S
C877 C876 1.392 . S
C877 H889 0.929 . S
C878 C874 1.531 . S
C878 H890 0.960 . S
C878 H891 0.962 . S
C878 H892 0.960 . S
C879 C876 1.511 . S
C879 H893 0.961 . S
C879 H894 0.961 . S
C879 H895 0.961 . S
C880 C881 1.370 . S
C880 C882 1.363 . S
C880 H896 0.931 . S
C881 C880 1.370 . S
C881 C885 1.408 . S
C882 C880 1.363 . S
C882 C883 1.370 . S
C882 C886 1.524 . S
C883 C875 1.503 . S
C883 C882 1.370 . S
C883 C884 1.403 . S
C884 C883 1.403 . S
C884 C885 1.404 . S
C884 C887 1.539 . S
C885 C881 1.408 . S
C885 C884 1.404 . S
C885 H897 0.930 . S
C886 C882 1.524 . S
C886 H898 0.956 . S
C886 H899 0.961 . S
C886 H900 0.961 . S
C887 C884 1.539 . S
C887 H901 0.958 . S
C887 H902 0.961 . S
C887 H903 0.960 . S
H888 C872 0.931 . S
H889 C877 0.929 . S
H890 C878 0.960 . S
H891 C878 0.962 . S
H892 C878 0.960 . S
H893 C879 0.961 . S
H894 C879 0.961 . S
H895 C879 0.961 . S
H896 C880 0.931 . S
H897 C885 0.930 . S
H898 C886 0.956 . S
H899 C886 0.961 . S
H900 C886 0.961 . S
H901 C887 0.958 . S
H902 C887 0.961 . S
H903 C887 0.960 . S
C904 C905 1.391 . S
C904 C906 1.394 . S
C904 H920 0.931 . S
C905 C904 1.391 . S
C905 C909 1.376 . S
C906 C904 1.394 . S
C906 C907 1.369 . S
C906 C910 1.531 . S
C907 C906 1.369 . S
C907 C908 1.410 . S
C907 C915 1.503 . S
C908 C907 1.410 . S
C908 C909 1.392 . S
C908 C911 1.511 . S
C909 C905 1.376 . S
C909 C908 1.392 . S
C909 H921 0.929 . S
C910 C906 1.531 . S
C910 H922 0.960 . S
C910 H923 0.962 . S
C910 H924 0.960 . S
C911 C908 1.511 . S
C911 H925 0.961 . S
C911 H926 0.961 . S
C911 H927 0.961 . S
C912 C913 1.370 1_554 S
C912 C914 1.363 1_554 S
C912 H928 0.931 . S
C913 C912 1.370 1_556 S
C913 C917 1.408 . S
C914 C912 1.363 1_556 S
C914 C915 1.370 . S
C914 C918 1.524 1_556 S
C915 C907 1.503 . S
C915 C914 1.370 . S
C915 C916 1.403 . S
C916 C915 1.403 . S
C916 C917 1.404 . S
C916 C919 1.539 . S
C917 C913 1.408 . S
C917 C916 1.404 . S
C917 H929 0.930 . S
C918 C914 1.524 1_554 S
C918 H930 0.956 . S
C918 H931 0.961 . S
C918 H932 0.961 . S
C919 C916 1.539 . S
C919 H933 0.958 . S
C919 H934 0.961 . S
C919 H935 0.960 . S
H920 C904 0.931 . S
H921 C909 0.929 . S
H922 C910 0.960 . S
H923 C910 0.962 . S
H924 C910 0.960 . S
H925 C911 0.961 . S
H926 C911 0.961 . S
H927 C911 0.961 . S
H928 C912 0.931 . S
H929 C917 0.930 . S
H930 C918 0.956 . S
H931 C918 0.961 . S
H932 C918 0.961 . S
H933 C919 0.958 . S
H934 C919 0.961 . S
H935 C919 0.960 . S
C169 C147 1.504 . S
C177 C7 1.532 . S
C201 C21 1.417 . S
C209 C161 1.448 . S
C233 C35 1.557 . S
C241 C91 1.549 . S
C265 C105 1.558 . S
C273 C49 1.562 . S
C297 C119 1.484 . S
C305 C63 1.464 . S
C329 C77 1.551 . S
C337 C133 1.546 . S
C361 C8 0.948 . S
C369 C106 1.004 . S
C393 C22 0.810 . S
C401 C120 0.826 . S
C425 C134 0.945 . S
C433 C36 1.009 . S
C457 C148 1.000 . S
C465 C50 0.996 . S
C489 C162 0.790 . S
C497 C64 0.814 . S
C521 C92 1.018 . S
C529 C78 0.995 . S
C553 C9 1.043 . S
C561 C59 0.992 . S
C585 C23 0.955 . S
C593 C73 0.920 . S
C617 C37 0.903 . S
C625 C3 0.907 . S
C649 C51 1.028 . S
C657 C17 0.983 . S
C681 C65 0.960 . S
C689 C31 0.928 . S
C713 C79 0.994 . S
C721 C45 0.957 . S
C745 C93 1.063 . S
C753 C115 1.023 . S
C777 C107 0.995 . S
C785 C129 0.957 . S
C809 C143 0.958 . S
C817 C121 0.928 . S
C841 C135 1.041 . S
C849 C157 0.991 . S
C873 C149 0.991 . S
C881 C87 0.945 . S
C905 C163 0.894 . S
C913 C101 0.896 . S
