# Generated by pormake.
# Topology ukt, (4)-cn, num edge types: 1
# Building blocks:
#     Node 0, Type 0, BuildingBlock: NAHDIM_clean_sbu_0, # of connection points: 4
#     Node 1, Type 0, BuildingBlock: NAHDIM_clean_sbu_0, # of connection points: 4
#     Node 2, Type 0, BuildingBlock: NAHDIM_clean_sbu_0, # of connection points: 4
#     Node 3, Type 0, BuildingBlock: NAHDIM_clean_sbu_0, # of connection points: 4
#     Node 4, Type 0, BuildingBlock: NAHDIM_clean_sbu_0, # of connection points: 4
#     Node 5, Type 0, BuildingBlock: NAHDIM_clean_sbu_0, # of connection points: 4
#     Node 6, Type 0, BuildingBlock: NAHDIM_clean_sbu_0, # of connection points: 4
#     Node 7, Type 0, BuildingBlock: NAHDIM_clean_sbu_0, # of connection points: 4
#     Node 8, Type 0, BuildingBlock: NAHDIM_clean_sbu_0, # of connection points: 4
#     Node 9, Type 0, BuildingBlock: NAHDIM_clean_sbu_0, # of connection points: 4
#     Node 10, Type 0, BuildingBlock: NAHDIM_clean_sbu_0, # of connection points: 4
#     Node 11, Type 0, BuildingBlock: NAHDIM_clean_sbu_0, # of connection points: 4
#     Node 12, Type 0, BuildingBlock: NAHDIM_clean_sbu_0, # of connection points: 4
#     Node 13, Type 0, BuildingBlock: NAHDIM_clean_sbu_0, # of connection points: 4
#     Node 14, Type 0, BuildingBlock: NAHDIM_clean_sbu_0, # of connection points: 4
#     Node 15, Type 0, BuildingBlock: NAHDIM_clean_sbu_0, # of connection points: 4
#     Edge 16, Type (0, 0), BuildingBlock: CIFDUS_clean_linker_0, # of connection points: 2
#     Edge 17, Type (0, 0), BuildingBlock: CIFDUS_clean_linker_0, # of connection points: 2
#     Edge 18, Type (0, 0), BuildingBlock: CIFDUS_clean_linker_0, # of connection points: 2
#     Edge 19, Type (0, 0), BuildingBlock: CIFDUS_clean_linker_0, # of connection points: 2
#     Edge 20, Type (0, 0), BuildingBlock: CIFDUS_clean_linker_0, # of connection points: 2
#     Edge 21, Type (0, 0), BuildingBlock: CIFDUS_clean_linker_0, # of connection points: 2
#     Edge 22, Type (0, 0), BuildingBlock: CIFDUS_clean_linker_0, # of connection points: 2
#     Edge 23, Type (0, 0), BuildingBlock: CIFDUS_clean_linker_0, # of connection points: 2
#     Edge 24, Type (0, 0), BuildingBlock: CIFDUS_clean_linker_0, # of connection points: 2
#     Edge 25, Type (0, 0), BuildingBlock: CIFDUS_clean_linker_0, # of connection points: 2
#     Edge 26, Type (0, 0), BuildingBlock: CIFDUS_clean_linker_0, # of connection points: 2
#     Edge 27, Type (0, 0), BuildingBlock: CIFDUS_clean_linker_0, # of connection points: 2
#     Edge 28, Type (0, 0), BuildingBlock: CIFDUS_clean_linker_0, # of connection points: 2
#     Edge 29, Type (0, 0), BuildingBlock: CIFDUS_clean_linker_0, # of connection points: 2
#     Edge 30, Type (0, 0), BuildingBlock: CIFDUS_clean_linker_0, # of connection points: 2
#     Edge 31, Type (0, 0), BuildingBlock: CIFDUS_clean_linker_0, # of connection points: 2
#     Edge 32, Type (0, 0), BuildingBlock: CIFDUS_clean_linker_0, # of connection points: 2
#     Edge 33, Type (0, 0), BuildingBlock: CIFDUS_clean_linker_0, # of connection points: 2
#     Edge 34, Type (0, 0), BuildingBlock: CIFDUS_clean_linker_0, # of connection points: 2
#     Edge 35, Type (0, 0), BuildingBlock: CIFDUS_clean_linker_0, # of connection points: 2
#     Edge 36, Type (0, 0), BuildingBlock: CIFDUS_clean_linker_0, # of connection points: 2
#     Edge 37, Type (0, 0), BuildingBlock: CIFDUS_clean_linker_0, # of connection points: 2
#     Edge 38, Type (0, 0), BuildingBlock: CIFDUS_clean_linker_0, # of connection points: 2
#     Edge 39, Type (0, 0), BuildingBlock: CIFDUS_clean_linker_0, # of connection points: 2
#     Edge 40, Type (0, 0), BuildingBlock: CIFDUS_clean_linker_0, # of connection points: 2
#     Edge 41, Type (0, 0), BuildingBlock: CIFDUS_clean_linker_0, # of connection points: 2
#     Edge 42, Type (0, 0), BuildingBlock: CIFDUS_clean_linker_0, # of connection points: 2
#     Edge 43, Type (0, 0), BuildingBlock: CIFDUS_clean_linker_0, # of connection points: 2
#     Edge 44, Type (0, 0), BuildingBlock: CIFDUS_clean_linker_0, # of connection points: 2
#     Edge 45, Type (0, 0), BuildingBlock: CIFDUS_clean_linker_0, # of connection points: 2
#     Edge 46, Type (0, 0), BuildingBlock: CIFDUS_clean_linker_0, # of connection points: 2
#     Edge 47, Type (0, 0), BuildingBlock: CIFDUS_clean_linker_0, # of connection points: 2
# Relax obj value: 0.318
# Max RMSD: 0.219
# Mean RMSD: 0.219
data_MOF--net-ukt--node1-NAHDIM_clean_sbu_0--edge1-CIFDUS_clean_linker_0
_symmetry_space_group_name_H-M    P1
_symmetry_Int_Tables_number       1
_symmetry_cell_setting            triclinic
loop_
_symmetry_equiv_pos_as_xyz
'x, y, z'
_cell_length_a     37.664062
_cell_length_b     37.69311
_cell_length_c     30.757211
_cell_angle_alpha  90.20214
_cell_angle_beta   90.219667
_cell_angle_gamma 89.863904
loop_
_atom_site_label
_atom_site_type_symbol
_atom_site_fract_x
_atom_site_fract_y
_atom_site_fract_z
_atom_type_partial_charge
C0 C 0.53385 0.06243 0.06482 0.0
O1 O 0.55636 0.05787 0.09706 0.0
O2 O 0.54948 0.16231 0.11741 0.0
Zn3 Zn 0.56407 0.13155 0.06681 0.0
O4 O 0.6108 0.10817 0.07854 0.0
C5 C 0.54886 0.18106 0.99662 0.0
O6 O 0.51578 0.17848 0.00961 0.0
O7 O 0.53003 0.09325 0.04877 0.0
C8 C 0.63773 0.12517 0.09203 0.0
O9 O 0.63416 0.15879 0.10261 0.0
C10 C 0.54496 0.15162 0.1561 0.0
O11 O 0.54729 0.11754 0.16448 0.0
O12 O 0.57282 0.16332 0.01596 0.0
C13 C 0.3945 0.51382 0.98619 0.0
O14 O 0.40151 0.53895 0.01461 0.0
O15 O 0.30028 0.52756 0.05021 0.0
Zn16 Zn 0.32597 0.54334 0.99645 0.0
O17 O 0.35046 0.58942 0.00916 0.0
C18 C 0.26566 0.5336 0.93836 0.0
O19 O 0.26394 0.50181 0.95562 0.0
O20 O 0.3625 0.50867 0.97455 0.0
C21 C 0.33523 0.61559 0.02734 0.0
O22 O 0.30191 0.61267 0.03932 0.0
C23 C 0.31502 0.53199 0.08702 0.0
O24 O 0.34799 0.54326 0.08847 0.0
O25 O 0.29033 0.55444 0.95011 0.0
C26 C 0.92218 0.4271 0.11464 0.0
O27 O 0.89855 0.43205 0.14539 0.0
O28 O 0.91801 0.33876 0.18905 0.0
Zn29 Zn 0.90538 0.35425 0.12853 0.0
O30 O 0.85408 0.36734 0.12313 0.0
C31 C 0.93875 0.29109 0.09457 0.0
O32 O 0.96064 0.29601 0.1274 0.0
O33 O 0.93209 0.39574 0.10537 0.0
C34 C 0.82991 0.34428 0.11804 0.0
O35 O 0.83816 0.3105 0.12137 0.0
C36 C 0.90062 0.34759 0.22269 0.0
O37 O 0.87493 0.37106 0.2192 0.0
O38 O 0.91363 0.31305 0.08841 0.0
C39 C 0.05801 0.94362 0.09174 0.0
O40 O 0.04931 0.925 0.12612 0.0
O41 O 0.14449 0.92083 0.16316 0.0
Zn42 Zn 0.12161 0.90597 0.10626 0.0
O43 O 0.09145 0.86238 0.1127 0.0
C44 C 0.17592 0.91049 0.03695 0.0
O45 O 0.16941 0.9447 0.0349 0.0
O46 O 0.08991 0.94251 0.0785 0.0
C47 C 0.10542 0.83171 0.11118 0.0
O48 O 0.1402 0.82892 0.11135 0.0
C49 C 0.133 0.90922 0.19922 0.0
O50 O 0.10433 0.88945 0.19936 0.0
O51 O 0.15949 0.89152 0.06427 0.0
C52 C 0.56871 0.43717 0.38307 0.0
O53 O 0.58946 0.44387 0.34987 0.0
O54 O 0.57845 0.33984 0.32052 0.0
Zn55 Zn 0.59744 0.36736 0.37228 0.0
O56 O 0.64395 0.39068 0.35903 0.0
C57 C 0.58904 0.32857 0.45412 0.0
O58 O 0.55788 0.34414 0.4567 0.0
O59 O 0.56531 0.40534 0.39584 0.0
C60 C 0.67223 0.37234 0.36075 0.0
O61 O 0.66966 0.33767 0.3638 0.0
C62 C 0.56294 0.31027 0.32635 0.0
O63 O 0.55716 0.29947 0.36624 0.0
O64 O 0.60865 0.33409 0.42132 0.0
C65 C 0.10168 0.54904 0.41586 0.0
O66 O 0.111 0.57866 0.43542 0.0
O67 O 0.18773 0.55662 0.31564 0.0
Zn68 Zn 0.16074 0.57023 0.37009 0.0
O69 O 0.14003 0.61935 0.36559 0.0
C70 C 0.21691 0.54582 0.42721 0.0
O71 O 0.21642 0.51784 0.40161 0.0
O72 O 0.12031 0.53781 0.38424 0.0
C73 C 0.15783 0.64583 0.37895 0.0
O74 O 0.19129 0.6412 0.38974 0.0
C75 C 0.21944 0.56803 0.31311 0.0
O76 O 0.23185 0.58824 0.34449 0.0
O77 O 0.19451 0.5705 0.42091 0.0
C78 C 0.96386 0.07311 0.45054 0.0
O79 O 0.9347 0.06673 0.42835 0.0
O80 O 0.93583 0.17264 0.40778 0.0
Zn81 Zn 0.92986 0.13975 0.45912 0.0
O82 O 0.88402 0.11278 0.45601 0.0
C83 C 0.94955 0.18918 0.52877 0.0
O84 O 0.98063 0.19051 0.50959 0.0
O85 O 0.96938 0.1042 0.46519 0.0
C86 C 0.85458 0.12476 0.44221 0.0
O87 O 0.8532 0.15675 0.42551 0.0
C88 C 0.9229 0.20384 0.41002 0.0
O89 O 0.90598 0.21359 0.44538 0.0
O90 O 0.92581 0.1687 0.51359 0.0
C91 C 0.39867 0.9805 0.44423 0.0
O92 O 0.4045 0.95955 0.41075 0.0
O93 O 0.3029 0.95119 0.39381 0.0
Zn94 Zn 0.33303 0.94181 0.44738 0.0
O95 O 0.35946 0.89575 0.43996 0.0
C96 C 0.28038 0.95826 0.51389 0.0
O97 O 0.27916 0.98964 0.49547 0.0
O98 O 0.36842 0.97987 0.46237 0.0
C99 C 0.38385 0.8888 0.46733 0.0
O100 O 0.39101 0.912 0.49809 0.0
C101 C 0.2744 0.9332 0.39108 0.0
O102 O 0.26679 0.91098 0.42249 0.0
O103 O 0.30142 0.93485 0.49901 0.0
C104 C 0.45312 0.91213 0.91059 0.0
O105 O 0.43034 0.91641 0.87856 0.0
O106 O 0.43783 0.81628 0.85261 0.0
Zn107 Zn 0.42438 0.84247 0.90824 0.0
O108 O 0.37573 0.86468 0.90439 0.0
C109 C 0.44502 0.78394 0.96493 0.0
O110 O 0.4754 0.78505 0.94411 0.0
O111 O 0.4576 0.88134 0.92639 0.0
C112 C 0.34855 0.8462 0.91315 0.0
O113 O 0.35243 0.81195 0.91933 0.0
C114 C 0.42583 0.78486 0.84827 0.0
O115 O 0.40532 0.77197 0.87875 0.0
O116 O 0.42143 0.80704 0.95651 0.0
C117 C 0.57349 0.43489 0.88769 0.0
O118 O 0.56763 0.40573 0.86531 0.0
O119 O 0.67909 0.42664 0.83989 0.0
Zn120 Zn 0.64527 0.40945 0.88545 0.0
O121 O 0.62574 0.36117 0.8724 0.0
C122 C 0.68517 0.42804 0.9637 0.0
O123 O 0.67961 0.46106 0.95191 0.0
O124 O 0.60518 0.44312 0.89775 0.0
C125 C 0.64633 0.33447 0.8732 0.0
O126 O 0.68076 0.3398 0.87551 0.0
C127 C 0.67109 0.43598 0.80146 0.0
O128 O 0.63775 0.43496 0.78877 0.0
O129 O 0.67295 0.40299 0.94043 0.0
C130 C 0.97094 0.56066 0.92418 0.0
O131 O 0.98535 0.55233 0.88666 0.0
O132 O 0.99279 0.65528 0.86259 0.0
Zn133 Zn 0.01059 0.62304 0.90985 0.0
O134 O 0.04965 0.59154 0.88821 0.0
C135 C 0.01724 0.67302 0.98206 0.0
O136 O 0.98242 0.67474 0.98029 0.0
O137 O 0.97474 0.59199 0.93877 0.0
C138 C 0.0779 0.60479 0.87296 0.0
O139 O 0.07951 0.63927 0.8671 0.0
C140 C -0.00607 0.6465 0.82271 0.0
O141 O 0.00271 0.61379 0.81235 0.0
O142 O 0.03371 0.65311 0.95554 0.0
C143 C 0.92587 0.03194 0.91976 0.0
O144 O 0.93372 0.05739 0.89238 0.0
O145 O 0.82628 0.05848 0.86568 0.0
Zn146 Zn 0.856 0.06461 0.92042 0.0
O147 O 0.87737 0.11332 0.92451 0.0
C148 C 0.80175 0.03768 0.97897 0.0
O149 O 0.80297 0.00895 0.9547 0.0
O150 O 0.89385 0.02805 0.9317 0.0
C151 C 0.89667 0.11835 0.95798 0.0
O152 O 0.90295 0.09152 0.98408 0.0
C153 C 0.79776 0.07672 0.86612 0.0
O154 O 0.79189 0.09793 0.89934 0.0
O155 O 0.82257 0.06319 0.97077 0.0
C156 C 0.49395 0.57523 0.55725 0.0
O157 O 0.4722 0.5677 0.58921 0.0
O158 O 0.45894 0.65692 0.62242 0.0
Zn159 Zn 0.45524 0.6398 0.56044 0.0
O160 O 0.40878 0.61472 0.54886 0.0
C161 C 0.47641 0.70868 0.53327 0.0
O162 O 0.5005 0.70357 0.56363 0.0
O163 O 0.49433 0.60665 0.54241 0.0
C164 C 0.40751 0.59463 0.51557 0.0
O165 O 0.4357 0.59163 0.49083 0.0
C166 C 0.43977 0.64553 0.6532 0.0
O167 O 0.4184 0.61863 0.64599 0.0
O168 O 0.45516 0.68364 0.52394 0.0
C169 C 0.92941 0.46724 0.52638 0.0
O170 O 0.92477 0.43431 0.51343 0.0
O171 O 0.84104 0.45882 0.62351 0.0
Zn172 Zn 0.87597 0.4426 0.57829 0.0
O173 O 0.90573 0.40238 0.6002 0.0
C174 C 0.83457 0.44068 0.49779 0.0
O175 O 0.8382 0.47534 0.49816 0.0
O176 O 0.9095 0.47952 0.5562 0.0
C177 C 0.8912 0.37425 0.61394 0.0
O178 O 0.85656 0.37378 0.61885 0.0
C179 C 0.84798 0.45812 0.66393 0.0
O180 O 0.88033 0.45006 0.67671 0.0
O181 O 0.8482 0.42245 0.52824 0.0
C182 C 0.05011 0.8994 0.55156 0.0
O183 O 0.08499 0.90005 0.55151 0.0
O184 O 0.04145 0.80751 0.64279 0.0
Zn185 Zn 0.06647 0.84008 0.6015 0.0
O186 O 0.10584 0.86756 0.62977 0.0
C187 C 0.07631 0.80041 0.52046 0.0
O188 O 0.04287 0.80792 0.51234 0.0
O189 O 0.03425 0.87479 0.57185 0.0
C190 C 0.135 0.85164 0.63704 0.0
O191 O 0.13535 0.81678 0.63636 0.0
C192 C 0.02888 0.81708 0.67926 0.0
O193 O 0.03128 0.85051 0.69113 0.0
O194 O 0.09041 0.81085 0.55578 0.0
C195 C 0.5433 0.06672 0.60236 0.0
O196 O 0.53818 0.09138 0.63197 0.0
O197 O 0.64249 0.07747 0.66201 0.0
Zn198 Zn 0.61505 0.09152 0.60803 0.0
O199 O 0.59663 0.14136 0.61229 0.0
C200 C 0.67328 0.07186 0.54962 0.0
O201 O 0.67635 0.04303 0.57324 0.0
O202 O 0.57473 0.05996 0.5899 0.0
C203 C 0.6197 0.1658 0.6103 0.0
O204 O 0.65346 0.15712 0.61296 0.0
C205 C 0.63592 0.09203 0.69844 0.0
O206 O 0.60863 0.11366 0.70148 0.0
O207 O 0.64907 0.09414 0.55844 0.0
H208 H 0.61301 0.18801 0.95781 0.0
H209 H 0.5079 0.23384 0.96159 0.0
H210 H 0.52789 0.2832 0.91673 0.0
H211 H 0.577 0.31718 0.88562 0.0
H212 H 0.68264 0.27235 0.88467 0.0
H213 H 0.66038 0.21835 0.91836 0.0
C214 C 0.59432 0.20854 0.94836 0.0
C215 C 0.5592 0.20762 0.96376 0.0
C216 C 0.60611 0.23709 0.92318 0.0
C217 C 0.53517 0.23408 0.95055 0.0
C218 C 0.54661 0.26238 0.92498 0.0
C219 C 0.59508 0.29533 0.89191 0.0
C220 C 0.63159 0.29912 0.8834 0.0
C221 C 0.5823 0.26476 0.91243 0.0
C222 C 0.6545 0.27035 0.89133 0.0
C223 C 0.64183 0.23951 0.91084 0.0
H224 H 0.14525 0.62721 0.85827 0.0
H225 H 0.08412 0.53344 0.8868 0.0
H226 H 0.13851 0.50086 0.90329 0.0
H227 H 0.20202 0.50221 0.92148 0.0
H228 H 0.26249 0.59706 0.8962 0.0
H229 H 0.20989 0.62572 0.86609 0.0
C230 C 0.14383 0.59943 0.86714 0.0
C231 C 0.11064 0.58307 0.87226 0.0
C232 C 0.17512 0.58112 0.8778 0.0
C233 C 0.10933 0.54689 0.88325 0.0
C234 C 0.14043 0.52823 0.89288 0.0
C235 C 0.20388 0.52887 0.90855 0.0
C236 C 0.23594 0.5477 0.912 0.0
C237 C 0.1733 0.54557 0.89218 0.0
C238 C 0.23798 0.58212 0.89463 0.0
C239 C 0.20789 0.59861 0.87744 0.0
H240 H 0.945 0.13618 0.01949 0.0
H241 H 0.8711 0.18156 0.92749 0.0
H242 H 0.8803 0.24026 0.95952 0.0
H243 H 0.90395 0.27707 0.01895 0.0
H244 H 0.97751 0.23137 0.11119 0.0
H245 H 0.97399 0.17441 0.07348 0.0
C246 C 0.93128 0.15901 0.00604 0.0
C247 C 0.907 0.15447 0.97164 0.0
C248 C 0.93636 0.19252 0.02491 0.0
C249 C 0.88984 0.18433 0.95409 0.0
C250 C 0.89491 0.21787 0.97256 0.0
C251 C 0.91953 0.25476 0.03051 0.0
C252 C 0.9405 0.25829 0.06823 0.0
C253 C 0.91724 0.22203 0.00883 0.0
C254 C 0.96097 0.22931 0.08241 0.0
C255 C 0.9589 0.19668 0.06095 0.0
H256 H 0.2892 0.81482 0.94369 0.0
H257 H 0.33247 0.9172 0.91092 0.0
H258 H 0.28088 0.94644 0.94325 0.0
H259 H 0.22666 0.94289 0.98787 0.0
H260 H 0.18584 0.83997 0.0231 0.0
H261 H 0.2333 0.81111 0.98279 0.0
C262 C 0.28718 0.84352 0.94296 0.0
C263 C 0.31485 0.86376 0.92533 0.0
C264 C 0.25805 0.86014 0.96262 0.0
C265 C 0.31162 0.90094 0.92449 0.0
C266 C 0.2822 0.91771 0.94319 0.0
C267 C 0.22796 0.91417 0.98628 0.0
C268 C 0.20302 0.89367 0.00896 0.0
C269 C 0.25577 0.89759 0.96352 0.0
C270 C 0.20497 0.85644 0.00647 0.0
C271 C 0.23207 0.83985 0.98332 0.0
H272 H 0.5484 0.29366 0.51311 0.0
H273 H 0.65659 0.30697 0.47041 0.0
H274 H 0.67637 0.2613 0.52096 0.0
H275 H 0.66221 0.21343 0.57096 0.0
H276 H 0.55362 0.19611 0.60955 0.0
H277 H 0.53481 0.24804 0.56778 0.0
C278 C 0.57634 0.28686 0.51536 0.0
C279 C 0.60093 0.30336 0.48778 0.0
C280 C 0.58745 0.25987 0.54375 0.0
C281 C 0.63707 0.2943 0.49092 0.0
C282 C 0.64843 0.26826 0.51989 0.0
C283 C 0.63453 0.22143 0.5711 0.0
C284 C 0.60932 0.20087 0.59314 0.0
C285 C 0.62375 0.25027 0.54561 0.0
C286 C 0.57351 0.21148 0.59268 0.0
C287 C 0.56272 0.24102 0.56861 0.0
H288 H 0.34 0.61187 0.53891 0.0
H289 H 0.40083 0.53735 0.46253 0.0
H290 H 0.34625 0.51185 0.43326 0.0
H291 H 0.28194 0.5153 0.42291 0.0
H292 H 0.22114 0.59286 0.49459 0.0
H293 H 0.27483 0.61218 0.5327 0.0
C294 C 0.34122 0.58968 0.51641 0.0
C295 C 0.37433 0.57673 0.50255 0.0
C296 C 0.30973 0.57578 0.49872 0.0
C297 C 0.37561 0.54805 0.47328 0.0
C298 C 0.34443 0.53342 0.45655 0.0
C299 C 0.28029 0.53586 0.44758 0.0
C300 C 0.2477 0.55272 0.45582 0.0
C301 C 0.3114 0.54773 0.4681 0.0
C302 C 0.24603 0.57959 0.48757 0.0
C303 C 0.27672 0.59074 0.50923 0.0
H304 H 0.86609 0.30753 0.62616 0.0
H305 H 0.96207 0.3654 0.59819 0.0
H306 H 0.99147 0.31052 0.57637 0.0
H307 H 0.98593 0.24871 0.55193 0.0
H308 H 0.88876 0.19177 0.5765 0.0
H309 H 0.86418 0.24344 0.61352 0.0
C310 C 0.89372 0.30806 0.61634 0.0
C311 C 0.91151 0.34063 0.6127 0.0
C312 C 0.91016 0.27657 0.60255 0.0
C313 C 0.9475 0.34074 0.60058 0.0
C314 C 0.96434 0.30936 0.58788 0.0
C315 C 0.95975 0.24728 0.56637 0.0
C316 C 0.93891 0.21675 0.56048 0.0
C317 C 0.94532 0.27746 0.5866 0.0
C318 C 0.90516 0.2152 0.57985 0.0
C319 C 0.89099 0.24479 0.60096 0.0
H320 H 0.14302 0.92166 0.61787 0.0
H321 H 0.20265 0.82546 0.64077 0.0
H322 H 0.25536 0.85262 0.60949 0.0
H323 H 0.28097 0.89933 0.56422 0.0
H324 H 0.22048 -0.00566 0.53802 0.0
H325 H 0.17174 0.97202 0.58228 0.0
C326 C 0.16775 0.90688 0.61708 0.0
C327 C 0.16861 0.87124 0.63072 0.0
C328 C 0.19764 0.9222 0.59765 0.0
C329 C 0.20106 0.85275 0.62997 0.0
C330 C 0.23119 0.86817 0.61178 0.0
C331 C 0.25736 0.91543 0.56876 0.0
C332 C 0.25402 0.94809 0.54708 0.0
C333 C 0.22923 0.90218 0.59358 0.0
C334 C 0.22357 0.96894 0.55396 0.0
C335 C 0.19563 0.95614 0.57918 0.0
H336 H 0.38394 0.77337 0.00941 0.0
H337 H 0.48143 0.72127 0.97191 0.0
H338 H 0.45703 0.66417 0.99389 0.0
H339 H 0.40497 0.62843 0.01249 0.0
H340 H 0.30665 0.68042 0.04678 0.0
H341 H 0.3346 0.73827 0.03758 0.0
C342 C 0.40017 0.74964 0.00684 0.0
C343 C 0.43419 0.75149 0.98819 0.0
C344 C 0.38563 0.71682 0.01832 0.0
C345 C 0.45505 0.72059 0.98577 0.0
C346 C 0.44101 0.68786 0.99804 0.0
C347 C 0.38977 0.65241 0.01856 0.0
C348 C 0.35357 0.65015 0.02937 0.0
C349 C 0.40582 0.68554 0.01251 0.0
C350 C 0.33444 0.68142 0.03796 0.0
C351 C 0.35038 0.71452 0.0326 0.0
H352 H 0.69507 0.36376 0.00113 0.0
H353 H 0.7279 0.47324 0.00983 0.0
H354 H 0.77276 0.45733 0.06399 0.0
H355 H 0.80722 0.4114 0.10152 0.0
H356 H 0.77555 0.30165 0.0907 0.0
H357 H 0.72511 0.3188 0.04535 0.0
C358 C 0.71175 0.38424 0.01522 0.0
C359 C 0.70861 0.41953 0.00089 0.0
C360 C 0.73773 0.37485 0.04586 0.0
C361 C 0.72999 0.44583 0.02002 0.0
C362 C 0.7557 0.43674 0.05091 0.0
C363 C 0.78895 0.39124 0.08991 0.0
C364 C 0.79554 0.3552 0.09886 0.0
C365 C 0.76051 0.40118 0.06301 0.0
C366 C 0.77132 0.32953 0.084 0.0
C367 C 0.74256 0.3393 0.05785 0.0
H368 H 0.9925 0.72763 0.03184 0.0
H369 H 0.08808 0.6699 -0.00031 0.0
H370 H 0.12332 0.71142 0.04257 0.0
H371 H 0.12786 0.76748 0.08223 0.0
H372 H 0.03296 0.82731 0.1113 0.0
H373 H -0.0034 0.78123 0.07742 0.0
C374 C 0.02096 0.72387 0.0347 0.0
C375 C 0.03764 0.69598 0.01212 0.0
C376 C 0.04126 0.74827 0.05881 0.0
C377 C 0.07457 0.6914 0.0163 0.0
C378 C 0.0948 0.71511 0.04087 0.0
C379 C 0.09918 0.77016 0.08199 0.0
C380 C 0.08321 0.80096 0.09888 0.0
C381 C 0.07854 0.74415 0.06128 0.0
C382 C 0.04597 0.80395 0.09825 0.0
C383 C 0.02515 0.7777 0.07868 0.0
H384 H 0.65356 0.05805 0.06602 0.0
H385 H 0.70215 0.15714 0.10409 0.0
H386 H 0.75952 0.1358 0.07814 0.0
H387 H 0.79314 0.09328 0.03414 0.0
H388 H 0.74371 -0.00437 0.99237 0.0
H389 H 0.68951 0.01198 0.03095 0.0
C390 C 0.67681 0.07478 0.06944 0.0
C391 C 0.6734 0.10946 0.08606 0.0
C392 C 0.70948 0.06275 0.05332 0.0
C393 C 0.70391 0.1305 0.09093 0.0
C394 C 0.73673 0.11839 0.07589 0.0
C395 C 0.77074 0.07525 0.03407 0.0
C396 C 0.77218 0.04364 0.00961 0.0
C397 C 0.73941 0.08522 0.05533 0.0
C398 C 0.74317 0.0203 0.01052 0.0
C399 C 0.7121 0.02971 0.03242 0.0
H400 H 0.42831 0.72824 0.47161 0.0
H401 H 0.50799 0.77051 0.5587 0.0
H402 H 0.48828 0.8307 0.54245 0.0
H403 H 0.44387 0.87063 0.51062 0.0
H404 H 0.36366 0.82853 0.42428 0.0
H405 H 0.38837 0.76896 0.43289 0.0
C406 C 0.44176 0.75063 0.48651 0.0
C407 C 0.46918 0.74483 0.5169 0.0
C408 C 0.42995 0.78517 0.47756 0.0
C409 C 0.48663 0.77416 0.53546 0.0
C410 C 0.47526 0.80862 0.52636 0.0
C411 C 0.43202 0.84847 0.49332 0.0
C412 C 0.40163 0.85385 0.46749 0.0
C413 C 0.44618 0.81433 0.49865 0.0
C414 C 0.38694 0.82503 0.44463 0.0
C415 C 0.40098 0.79095 0.44963 0.0
H416 H 0.78805 0.47146 0.44129 0.0
H417 H 0.83037 0.3699 0.48054 0.0
H418 H 0.78722 0.33963 0.43438 0.0
H419 H 0.73248 0.34182 0.39162 0.0
H420 H 0.68749 0.44313 0.35605 0.0
H421 H 0.73715 0.4736 0.39106 0.0
C422 C 0.78821 0.44274 0.43917 0.0
C423 C 0.81195 0.42298 0.46492 0.0
C424 C 0.76272 0.42541 0.41334 0.0
C425 C 0.81197 0.38575 0.4616 0.0
C426 C 0.78733 0.36838 0.43517 0.0
C427 C 0.73391 0.37054 0.39057 0.0
C428 C 0.70603 0.39016 0.37184 0.0
C429 C 0.76179 0.38791 0.41215 0.0
C430 C 0.70845 0.42738 0.37065 0.0
C431 C 0.73673 0.44485 0.3909 0.0
H432 H 0.18475 0.70066 0.4255 0.0
H433 H 0.08848 0.66405 0.36356 0.0
H434 H 0.05498 0.71171 0.39863 0.0
H435 H 0.0519 0.75883 0.4542 0.0
H436 H 0.14802 0.79232 0.5192 0.0
H437 H 0.18265 0.75089 0.47554 0.0
C438 C 0.15657 0.70345 0.41894 0.0
C439 C 0.1391 0.67856 0.39238 0.0
C440 C 0.1373 0.73008 0.44033 0.0
C441 C 0.10256 0.68272 0.38414 0.0
C442 C 0.08334 0.70985 0.40438 0.0
C443 C 0.08047 0.75738 0.45834 0.0
C444 C 0.09727 0.77821 0.49032 0.0
C445 C 0.10022 0.73289 0.43375 0.0
C446 C 0.13435 0.77617 0.49525 0.0
C447 C 0.15422 0.75254 0.47024 0.0
H448 H 0.7349 0.0368 0.53198 0.0
H449 H 0.67383 0.12936 0.49607 0.0
H450 H 0.7235 0.15156 0.45377 0.0
H451 H 0.78669 0.14883 0.43562 0.0
H452 H 0.84858 0.0575 0.47388 0.0
H453 H 0.79606 0.0305 0.5058 0.0
C454 C 0.73222 0.06149 0.51426 0.0
C455 C 0.70094 0.08164 0.51788 0.0
C456 C 0.76117 0.07454 0.49063 0.0
C457 C 0.6978 0.11347 0.49436 0.0
C458 C 0.72623 0.12628 0.47016 0.0
C459 C 0.78856 0.12271 0.45014 0.0
C460 C 0.82163 0.10555 0.45308 0.0
C461 C 0.75845 0.10768 0.46938 0.0
C462 C 0.82352 0.07155 0.47172 0.0
C463 C 0.79351 0.0561 0.49012 0.0
H464 H 0.48561 0.9144 0.98958 0.0
H465 H 0.45443 0.98044 0.88152 0.0
H466 H 0.47491 0.03307 0.92071 0.0
H467 H 0.50113 0.06035 0.98585 0.0
H468 H 0.53213 -0.00579 0.09393 0.0
H469 H 0.51163 0.94165 0.05474 0.0
C470 C 0.48361 0.94025 0.97437 0.0
C471 C 0.46866 0.94345 0.93258 0.0
C472 C 0.49489 0.97044 0.99735 0.0
C473 C 0.46592 0.97722 0.91361 0.0
C474 C 0.47746 0.00735 0.93607 0.0
C475 C 0.50306 0.03449 0.00106 0.0
C476 C 0.51802 0.03126 0.04286 0.0
C477 C 0.4917 0.0043 0.9781 0.0
C478 C 0.52064 -0.00252 0.06185 0.0
C479 C 0.50909 0.96737 0.03938 0.0
H480 H 0.46435 0.52993 0.98999 0.0
H481 H 0.39055 0.45516 0.93366 0.0
H482 H 0.43943 0.4251 0.89637 0.0
H483 H 0.50312 0.41983 0.88063 0.0
H484 H 0.57645 0.49529 0.93674 0.0
H485 H 0.52746 0.52567 0.97282 0.0
C486 C 0.4589 0.50693 0.96976 0.0
C487 C 0.42391 0.49461 0.96487 0.0
C488 C 0.48696 0.49014 0.94808 0.0
C489 C 0.41729 0.46506 0.93809 0.0
C490 C 0.4452 0.44794 0.91668 0.0
C491 C 0.50839 0.4431 0.90044 0.0
C492 C 0.54343 0.4552 0.90602 0.0
C493 C 0.48013 0.46029 0.92143 0.0
C494 C 0.54975 0.48538 0.93187 0.0
C495 C 0.52177 0.5027 0.95268 0.0
H496 H 0.94895 0.56714 0.0082 0.0
H497 H 0.96501 0.49015 0.90573 0.0
H498 H 0.95304 0.44212 0.95639 0.0
H499 H 0.94051 0.4218 0.0301 0.0
H500 H 0.92229 0.49815 0.13247 0.0
H501 H 0.93328 0.54674 0.08156 0.0
C502 C 0.94938 0.53989 0.99678 0.0
C503 C 0.95807 0.5323 0.95322 0.0
C504 C 0.94281 0.5123 0.02621 0.0
C505 C 0.95845 0.49681 0.93903 0.0
C506 C 0.95186 0.46927 0.96806 0.0
C507 C 0.93934 0.44907 0.04143 0.0
C508 C 0.93125 0.45645 0.08512 0.0
C509 C 0.94469 0.4767 0.01183 0.0
C510 C 0.92887 0.49188 0.09905 0.0
C511 C 0.93494 0.51961 0.06993 0.0
H512 H 0.06457 0.97434 0.01183 0.0
H513 H 0.98803 0.95055 0.11175 0.0
H514 H 0.94034 0.97331 0.06592 0.0
H515 H 0.92017 -0.00039 0.99783 0.0
H516 H -0.00392 0.02557 0.89823 0.0
H517 H 0.04417 0.00167 0.94335 0.0
C518 C 0.0375 0.97443 0.02374 0.0
C519 C 0.02995 0.96077 0.06526 0.0
C520 C 0.01003 0.98741 0.99705 0.0
C521 C -0.00532 0.96093 0.08002 0.0
C522 C 0.96731 0.97378 0.05374 0.0
C523 C 0.94715 -0.00036 0.98563 0.0
C524 C 0.95448 0.01402 0.9445 0.0
C525 C 0.97464 0.98679 0.01212 0.0
C526 C 0.98971 0.01442 0.92965 0.0
C527 C 0.01723 0.00096 0.95554 0.0
H528 H 0.52276 0.57902 0.47651 0.0
H529 H 0.50107 0.50578 0.58065 0.0
H530 H 0.52082 0.45634 0.53515 0.0
H531 H 0.54257 0.43378 0.4652 0.0
H532 H 0.56406 0.50707 0.36106 0.0
H533 H 0.54538 0.55662 0.40705 0.0
C534 C 0.52281 0.55232 0.48955 0.0
C535 C 0.51056 0.54615 0.53203 0.0
C536 C 0.53352 0.52397 0.46295 0.0
C537 C 0.51047 0.5113 0.54813 0.0
C538 C 0.52153 0.48298 0.52204 0.0
C539 C 0.54285 0.46055 0.45238 0.0
C540 C 0.55445 0.46669 0.40962 0.0
C541 C 0.53262 0.48896 0.4792 0.0
C542 C 0.5551 0.5016 0.39377 0.0
C543 C 0.5446 0.52997 0.42012 0.0
H544 H 0.05377 0.57057 0.47599 0.0
H545 H 0.07807 0.48407 0.38851 0.0
H546 H 0.026 0.45184 0.41409 0.0
H547 H 0.9747 0.44767 0.46241 0.0
H548 H 0.95038 0.53411 0.54998 0.0
H549 H 0.00142 0.56714 0.52283 0.0
C550 C 0.04772 0.54466 0.46246 0.0
C551 C 0.06989 0.52965 0.43055 0.0
C552 C 0.01777 0.52635 0.47723 0.0
C553 C 0.06149 0.49618 0.41316 0.0
C554 C 0.03173 0.47775 0.42776 0.0
C555 C 0.98042 0.47381 0.47549 0.0
C556 C 0.95885 0.48835 0.50832 0.0
C557 C 0.00984 0.49251 0.45994 0.0
C558 C 0.96658 0.5223 0.52473 0.0
C559 C -0.0042 0.54116 0.5093 0.0
H560 H 0.07329 0.96503 0.53083 0.0
H561 H 0.98169 0.89674 0.5226 0.0
H562 H 0.94801 0.94384 0.4866 0.0
H563 H 0.9439 0.00502 0.46059 0.0
H564 H 0.03373 0.07502 0.47436 0.0
H565 H 0.06914 0.02642 0.50475 0.0
C566 C 0.04603 0.96041 0.52088 0.0
C567 C 0.02993 0.92753 0.52925 0.0
C568 C 0.02665 0.98782 0.50118 0.0
C569 C -0.00548 0.92194 0.51667 0.0
C570 C 0.97533 0.94879 0.496 0.0
C571 C 0.9714 0.0095 0.46964 0.0
C572 C 0.98637 0.04338 0.46497 0.0
C573 C 0.99105 0.98189 0.48845 0.0
C574 C 0.02176 0.04906 0.4776 0.0
C575 C 0.04192 0.02136 0.49505 0.0
H576 H 0.54358 0.0341 0.5235 0.0
H577 H 0.47406 0.06553 0.62808 0.0
H578 H 0.4228 0.04366 0.5871 0.0
H579 H 0.39789 0.01537 0.52188 0.0
H580 H 0.46744 0.98469 0.4169 0.0
H581 H 0.51848 0.00724 0.45749 0.0
C582 C 0.51725 0.03587 0.53754 0.0
C583 C 0.51267 0.05111 0.57898 0.0
C584 C 0.48787 0.02388 0.51348 0.0
C585 C 0.47831 0.05374 0.59635 0.0
C586 C 0.44899 0.04139 0.57286 0.0
C587 C 0.42414 0.01396 0.50759 0.0
C588 C 0.42877 -0.00167 0.46634 0.0
C589 C 0.45344 0.02656 0.53133 0.0
C590 C 0.46305 -0.00337 0.44851 0.0
C591 C 0.49231 0.00932 0.47182 0.0
H592 H 0.54214 0.24132 0.32942 0.0
H593 H 0.5675 0.32518 0.23953 0.0
H594 H 0.56109 0.28392 0.17858 0.0
H595 H 0.55277 0.22324 0.15137 0.0
H596 H 0.53022 0.13882 0.2416 0.0
H597 H 0.5308 0.18125 0.30184 0.0
C598 C 0.54588 0.25074 0.29648 0.0
C599 C 0.55547 0.2863 0.28913 0.0
C600 C 0.54285 0.22672 0.26165 0.0
C601 C 0.56026 0.29794 0.24618 0.0
C602 C 0.55665 0.27434 0.21129 0.0
C603 C 0.54756 0.21412 0.18413 0.0
C604 C 0.54163 0.17781 0.19194 0.0
C605 C 0.54863 0.23853 0.21872 0.0
C606 C 0.53502 0.16654 0.23465 0.0
C607 C 0.5354 0.1908 0.26915 0.0
H608 H 0.20047 0.53682 0.23606 0.0
H609 H 0.29034 0.57935 0.3064 0.0
H610 H 0.32845 0.56858 0.24404 0.0
H611 H 0.33566 0.55106 0.16822 0.0
H612 H 0.24594 0.51056 0.09597 0.0
H613 H 0.20863 0.51604 0.16053 0.0
C614 C 0.22844 0.54346 0.2378 0.0
C615 C 0.2424 0.55921 0.27569 0.0
C616 C 0.2503 0.53757 0.20148 0.0
C617 C 0.27874 0.56759 0.27748 0.0
C618 C 0.30066 0.56136 0.24185 0.0
C619 C 0.30807 0.54297 0.16664 0.0
C620 C 0.29362 0.53061 0.12724 0.0
C621 C 0.28661 0.54693 0.20349 0.0
C622 C 0.25776 0.52027 0.12588 0.0
C623 C 0.23634 0.52353 0.16274 0.0
H624 H 0.93947 0.28753 0.23419 0.0
H625 H 0.87216 0.36177 0.30257 0.0
H626 H 0.87481 0.32459 0.36745 0.0
H627 H 0.89298 0.26923 0.40293 0.0
H628 H 0.95819 0.19385 0.33335 0.0
H629 H 0.95959 0.23339 0.27064 0.0
C630 C 0.92572 0.29588 0.26343 0.0
C631 C 0.90555 0.32738 0.26346 0.0
C632 C 0.9267 0.274 0.30023 0.0
C633 C 0.88779 0.33762 0.30161 0.0
C634 C 0.88921 0.31632 0.33868 0.0
C635 C 0.90769 0.26148 0.37417 0.0
C636 C 0.92528 0.22848 0.37278 0.0
C637 C 0.90803 0.28414 0.33806 0.0
C638 C 0.94426 0.21897 0.33524 0.0
C639 C 0.9451 0.24159 0.29936 0.0
H640 H 0.20863 0.90521 0.38221 0.0
H641 H 0.28693 0.96642 0.31333 0.0
H642 H 0.24915 0.96616 0.24836 0.0
H643 H 0.19523 0.9456 0.21004 0.0
H644 H 0.11745 0.88433 0.27998 0.0
H645 H 0.15366 0.8878 0.34562 0.0
C646 C 0.21745 0.91866 0.35307 0.0
C647 C 0.25073 0.93554 0.35255 0.0
C648 C 0.19569 0.91834 0.31595 0.0
C649 C 0.26149 0.95315 0.31462 0.0
C650 C 0.23991 0.95294 0.27742 0.0
C651 C 0.18603 0.93328 0.23974 0.0
C652 C 0.1537 0.91453 0.23987 0.0
C653 C 0.20715 0.9352 0.27753 0.0
C654 C 0.14221 0.89884 0.27875 0.0
C655 C 0.16296 0.90073 0.31638 0.0
H656 H 0.4059 0.71687 0.83374 0.0
H657 H 0.46487 0.8028 0.77638 0.0
H658 H 0.47662 0.76612 0.71214 0.0
H659 H 0.46763 0.71066 0.67105 0.0
H660 H 0.40714 0.6257 0.7283 0.0
H661 H 0.39883 0.66103 0.79416 0.0
C662 C 0.42142 0.72767 0.80728 0.0
C663 C 0.43426 0.76268 0.80977 0.0
C664 C 0.42785 0.70657 0.7705 0.0
C665 C 0.45453 0.77602 0.77525 0.0
C666 C 0.46126 0.75505 0.73853 0.0
C667 C 0.45298 0.69968 0.69812 0.0
C668 C 0.43795 0.66555 0.69467 0.0
C669 C 0.44775 0.7204 0.73564 0.0
C670 C 0.41889 0.65188 0.72999 0.0
C671 C 0.41405 0.6721 0.76764 0.0
H672 H 0.77712 0.46364 0.64719 0.0
H673 H 0.85294 0.45672 0.75253 0.0
H674 H 0.80454 0.4517 0.80466 0.0
H675 H 0.74121 0.44419 0.81961 0.0
H676 H 0.66527 0.44954 0.71429 0.0
H677 H 0.71332 0.46042 0.66289 0.0
C678 C 0.78311 0.46152 0.68161 0.0
C679 C 0.81869 0.46025 0.69585 0.0
C680 C 0.75516 0.458 0.71136 0.0
C681 C 0.82586 0.45758 0.7406 0.0
C682 C 0.79818 0.45458 0.77045 0.0
C683 C 0.73506 0.44796 0.78545 0.0
C684 C 0.69968 0.44564 0.77078 0.0
C685 C 0.7628 0.45389 0.75607 0.0
C686 C 0.69225 0.45098 0.72647 0.0
C687 C 0.71974 0.45717 0.69703 0.0
H688 H 0.01895 0.74682 0.66324 0.0
H689 H 0.00767 0.82648 0.7635 0.0
H690 H 0.99147 0.78072 0.81576 0.0
H691 H 0.98652 0.71774 0.8346 0.0
H692 H -0.00034 0.63802 0.73473 0.0
H693 H 0.00853 0.68429 0.68059 0.0
C694 C 0.01261 0.75427 0.69642 0.0
C695 C 0.01502 0.79001 0.70955 0.0
C696 C 0.00373 0.7278 0.72642 0.0
C697 C 0.0063 0.79918 0.75255 0.0
C698 C -0.00292 0.773 0.7825 0.0
C699 C 0.99075 0.71043 0.80087 0.0
C700 C 0.99285 0.67439 0.7889 0.0
C701 C -0.00342 0.73716 0.77004 0.0
C702 C -0.00185 0.6655 0.74497 0.0
C703 C 0.00338 0.69196 0.71397 0.0
H704 H 0.70035 0.05829 0.69935 0.0
H705 H 0.62847 0.1183 0.7805 0.0
H706 H 0.67195 0.11806 0.83934 0.0
H707 H 0.73106 0.10343 0.86671 0.0
H708 H 0.80372 0.04359 0.78666 0.0
H709 H 0.75918 0.04114 0.72843 0.0
C710 C 0.69404 0.07098 0.73007 0.0
C711 C 0.66115 0.08842 0.73534 0.0
C712 C 0.7194 0.07105 0.76383 0.0
C713 C 0.65352 0.10478 0.77539 0.0
C714 C 0.67844 0.10474 0.80909 0.0
C715 C 0.73728 0.08981 0.83655 0.0
C716 C 0.77086 0.07401 0.83093 0.0
C717 C 0.71161 0.08845 0.80343 0.0
C718 C 0.77816 0.05611 0.7918 0.0
C719 C 0.75269 0.0547 0.7585 0.0
loop_
_geom_bond_atom_site_label_1
_geom_bond_atom_site_label_2
_geom_bond_distance
_geom_bond_site_symmetry_2
_ccdc_geom_bond_type
C0 O1 1.160 . S
C0 O7 1.185 . S
O1 C0 1.160 . S
O2 Zn3 1.899 . S
O2 C10 1.284 . S
Zn3 O2 1.899 . S
Zn3 O4 2.032 . S
Zn3 O7 2.086 . S
Zn3 O12 1.977 . S
O4 Zn3 2.032 . S
O4 C8 1.278 . S
C5 O6 1.203 . S
C5 O12 1.267 . S
O6 C5 1.203 . S
O7 C0 1.185 . S
O7 Zn3 2.086 . S
C8 O4 1.278 . S
C8 O9 1.211 . S
O9 C8 1.211 . S
C10 O2 1.284 . S
C10 O11 1.273 . S
O11 C10 1.273 . S
O12 Zn3 1.977 . S
O12 C5 1.267 . S
C13 O14 1.160 . S
C13 O20 1.185 . S
O14 C13 1.160 . S
O15 Zn16 1.899 . S
O15 C23 1.284 . S
Zn16 O15 1.899 . S
Zn16 O17 2.032 . S
Zn16 O20 2.086 . S
Zn16 O25 1.977 . S
O17 Zn16 2.032 . S
O17 C21 1.278 . S
C18 O19 1.203 . S
C18 O25 1.267 . S
O19 C18 1.203 . S
O20 C13 1.185 . S
O20 Zn16 2.086 . S
C21 O17 1.278 . S
C21 O22 1.211 . S
O22 C21 1.211 . S
C23 O15 1.284 . S
C23 O24 1.273 . S
O24 C23 1.273 . S
O25 Zn16 1.977 . S
O25 C18 1.267 . S
C26 O27 1.160 . S
C26 O33 1.185 . S
O27 C26 1.160 . S
O28 Zn29 1.899 . S
O28 C36 1.284 . S
Zn29 O28 1.899 . S
Zn29 O30 2.032 . S
Zn29 O33 2.086 . S
Zn29 O38 1.977 . S
O30 Zn29 2.032 . S
O30 C34 1.278 . S
C31 O32 1.203 . S
C31 O38 1.267 . S
O32 C31 1.203 . S
O33 C26 1.185 . S
O33 Zn29 2.086 . S
C34 O30 1.278 . S
C34 O35 1.211 . S
O35 C34 1.211 . S
C36 O28 1.284 . S
C36 O37 1.273 . S
O37 C36 1.273 . S
O38 Zn29 1.977 . S
O38 C31 1.267 . S
C39 O40 1.160 . S
C39 O46 1.185 . S
O40 C39 1.160 . S
O41 Zn42 1.899 . S
O41 C49 1.284 . S
Zn42 O41 1.899 . S
Zn42 O43 2.032 . S
Zn42 O46 2.086 . S
Zn42 O51 1.977 . S
O43 Zn42 2.032 . S
O43 C47 1.278 . S
C44 O45 1.203 . S
C44 O51 1.267 . S
O45 C44 1.203 . S
O46 C39 1.185 . S
O46 Zn42 2.086 . S
C47 O43 1.278 . S
C47 O48 1.211 . S
O48 C47 1.211 . S
C49 O41 1.284 . S
C49 O50 1.273 . S
O50 C49 1.273 . S
O51 Zn42 1.977 . S
O51 C44 1.267 . S
C52 O53 1.160 . S
C52 O59 1.185 . S
O53 C52 1.160 . S
O54 Zn55 1.899 . S
O54 C62 1.284 . S
Zn55 O54 1.899 . S
Zn55 O56 2.032 . S
Zn55 O59 2.086 . S
Zn55 O64 1.977 . S
O56 Zn55 2.032 . S
O56 C60 1.278 . S
C57 O58 1.203 . S
C57 O64 1.267 . S
O58 C57 1.203 . S
O59 C52 1.185 . S
O59 Zn55 2.086 . S
C60 O56 1.278 . S
C60 O61 1.211 . S
O61 C60 1.211 . S
C62 O54 1.284 . S
C62 O63 1.273 . S
O63 C62 1.273 . S
O64 Zn55 1.977 . S
O64 C57 1.267 . S
C65 O66 1.160 . S
C65 O72 1.185 . S
O66 C65 1.160 . S
O67 Zn68 1.899 . S
O67 C75 1.284 . S
Zn68 O67 1.899 . S
Zn68 O69 2.032 . S
Zn68 O72 2.086 . S
Zn68 O77 1.977 . S
O69 Zn68 2.032 . S
O69 C73 1.278 . S
C70 O71 1.203 . S
C70 O77 1.267 . S
O71 C70 1.203 . S
O72 C65 1.185 . S
O72 Zn68 2.086 . S
C73 O69 1.278 . S
C73 O74 1.211 . S
O74 C73 1.211 . S
C75 O67 1.284 . S
C75 O76 1.273 . S
O76 C75 1.273 . S
O77 Zn68 1.977 . S
O77 C70 1.267 . S
C78 O79 1.160 . S
C78 O85 1.185 . S
O79 C78 1.160 . S
O80 Zn81 1.899 . S
O80 C88 1.284 . S
Zn81 O80 1.899 . S
Zn81 O82 2.032 . S
Zn81 O85 2.086 . S
Zn81 O90 1.977 . S
O82 Zn81 2.032 . S
O82 C86 1.278 . S
C83 O84 1.203 . S
C83 O90 1.267 . S
O84 C83 1.203 . S
O85 C78 1.185 . S
O85 Zn81 2.086 . S
C86 O82 1.278 . S
C86 O87 1.211 . S
O87 C86 1.211 . S
C88 O80 1.284 . S
C88 O89 1.273 . S
O89 C88 1.273 . S
O90 Zn81 1.977 . S
O90 C83 1.267 . S
C91 O92 1.160 . S
C91 O98 1.185 . S
O92 C91 1.160 . S
O93 Zn94 1.899 . S
O93 C101 1.284 . S
Zn94 O93 1.899 . S
Zn94 O95 2.032 . S
Zn94 O98 2.086 . S
Zn94 O103 1.977 . S
O95 Zn94 2.032 . S
O95 C99 1.278 . S
C96 O97 1.203 . S
C96 O103 1.267 . S
O97 C96 1.203 . S
O98 C91 1.185 . S
O98 Zn94 2.086 . S
C99 O95 1.278 . S
C99 O100 1.211 . S
O100 C99 1.211 . S
C101 O93 1.284 . S
C101 O102 1.273 . S
O102 C101 1.273 . S
O103 Zn94 1.977 . S
O103 C96 1.267 . S
C104 O105 1.160 . S
C104 O111 1.185 . S
O105 C104 1.160 . S
O106 Zn107 1.899 . S
O106 C114 1.284 . S
Zn107 O106 1.899 . S
Zn107 O108 2.032 . S
Zn107 O111 2.086 . S
Zn107 O116 1.977 . S
O108 Zn107 2.032 . S
O108 C112 1.278 . S
C109 O110 1.203 . S
C109 O116 1.267 . S
O110 C109 1.203 . S
O111 C104 1.185 . S
O111 Zn107 2.086 . S
C112 O108 1.278 . S
C112 O113 1.211 . S
O113 C112 1.211 . S
C114 O106 1.284 . S
C114 O115 1.273 . S
O115 C114 1.273 . S
O116 Zn107 1.977 . S
O116 C109 1.267 . S
C117 O118 1.160 . S
C117 O124 1.185 . S
O118 C117 1.160 . S
O119 Zn120 1.899 . S
O119 C127 1.284 . S
Zn120 O119 1.899 . S
Zn120 O121 2.032 . S
Zn120 O124 2.086 . S
Zn120 O129 1.977 . S
O121 Zn120 2.032 . S
O121 C125 1.278 . S
C122 O123 1.203 . S
C122 O129 1.267 . S
O123 C122 1.203 . S
O124 C117 1.185 . S
O124 Zn120 2.086 . S
C125 O121 1.278 . S
C125 O126 1.211 . S
O126 C125 1.211 . S
C127 O119 1.284 . S
C127 O128 1.273 . S
O128 C127 1.273 . S
O129 Zn120 1.977 . S
O129 C122 1.267 . S
C130 O131 1.160 . S
C130 O137 1.185 . S
O131 C130 1.160 . S
O132 Zn133 1.899 . S
O132 C140 1.284 . S
Zn133 O132 1.899 . S
Zn133 O134 2.032 . S
Zn133 O137 2.086 . S
Zn133 O142 1.977 . S
O134 Zn133 2.032 . S
O134 C138 1.278 . S
C135 O136 1.203 . S
C135 O142 1.267 . S
O136 C135 1.203 . S
O137 C130 1.185 . S
O137 Zn133 2.086 . S
C138 O134 1.278 . S
C138 O139 1.211 . S
O139 C138 1.211 . S
C140 O132 1.284 . S
C140 O141 1.273 . S
O141 C140 1.273 . S
O142 Zn133 1.977 . S
O142 C135 1.267 . S
C143 O144 1.160 . S
C143 O150 1.185 . S
O144 C143 1.160 . S
O145 Zn146 1.899 . S
O145 C153 1.284 . S
Zn146 O145 1.899 . S
Zn146 O147 2.032 . S
Zn146 O150 2.086 . S
Zn146 O155 1.977 . S
O147 Zn146 2.032 . S
O147 C151 1.278 . S
C148 O149 1.203 . S
C148 O155 1.267 . S
O149 C148 1.203 . S
O150 C143 1.185 . S
O150 Zn146 2.086 . S
C151 O147 1.278 . S
C151 O152 1.211 . S
O152 C151 1.211 . S
C153 O145 1.284 . S
C153 O154 1.273 . S
O154 C153 1.273 . S
O155 Zn146 1.977 . S
O155 C148 1.267 . S
C156 O157 1.160 . S
C156 O163 1.185 . S
O157 C156 1.160 . S
O158 Zn159 1.899 . S
O158 C166 1.284 . S
Zn159 O158 1.899 . S
Zn159 O160 2.032 . S
Zn159 O163 2.086 . S
Zn159 O168 1.977 . S
O160 Zn159 2.032 . S
O160 C164 1.278 . S
C161 O162 1.203 . S
C161 O168 1.267 . S
O162 C161 1.203 . S
O163 C156 1.185 . S
O163 Zn159 2.086 . S
C164 O160 1.278 . S
C164 O165 1.211 . S
O165 C164 1.211 . S
C166 O158 1.284 . S
C166 O167 1.273 . S
O167 C166 1.273 . S
O168 Zn159 1.977 . S
O168 C161 1.267 . S
C169 O170 1.160 . S
C169 O176 1.185 . S
O170 C169 1.160 . S
O171 Zn172 1.899 . S
O171 C179 1.284 . S
Zn172 O171 1.899 . S
Zn172 O173 2.032 . S
Zn172 O176 2.086 . S
Zn172 O181 1.977 . S
O173 Zn172 2.032 . S
O173 C177 1.278 . S
C174 O175 1.203 . S
C174 O181 1.267 . S
O175 C174 1.203 . S
O176 C169 1.185 . S
O176 Zn172 2.086 . S
C177 O173 1.278 . S
C177 O178 1.211 . S
O178 C177 1.211 . S
C179 O171 1.284 . S
C179 O180 1.273 . S
O180 C179 1.273 . S
O181 Zn172 1.977 . S
O181 C174 1.267 . S
C182 O183 1.160 . S
C182 O189 1.185 . S
O183 C182 1.160 . S
O184 Zn185 1.899 . S
O184 C192 1.284 . S
Zn185 O184 1.899 . S
Zn185 O186 2.032 . S
Zn185 O189 2.086 . S
Zn185 O194 1.977 . S
O186 Zn185 2.032 . S
O186 C190 1.278 . S
C187 O188 1.203 . S
C187 O194 1.267 . S
O188 C187 1.203 . S
O189 C182 1.185 . S
O189 Zn185 2.086 . S
C190 O186 1.278 . S
C190 O191 1.211 . S
O191 C190 1.211 . S
C192 O184 1.284 . S
C192 O193 1.273 . S
O193 C192 1.273 . S
O194 Zn185 1.977 . S
O194 C187 1.267 . S
C195 O196 1.160 . S
C195 O202 1.185 . S
O196 C195 1.160 . S
O197 Zn198 1.899 . S
O197 C205 1.284 . S
Zn198 O197 1.899 . S
Zn198 O199 2.032 . S
Zn198 O202 2.086 . S
Zn198 O207 1.977 . S
O199 Zn198 2.032 . S
O199 C203 1.278 . S
C200 O201 1.203 . S
C200 O207 1.267 . S
O201 C200 1.203 . S
O202 C195 1.185 . S
O202 Zn198 2.086 . S
C203 O199 1.278 . S
C203 O204 1.211 . S
O204 C203 1.211 . S
C205 O197 1.284 . S
C205 O206 1.273 . S
O206 C205 1.273 . S
O207 Zn198 1.977 . S
O207 C200 1.267 . S
H208 C214 0.930 . S
H209 C217 0.930 . S
H210 C218 0.930 . S
H211 C219 0.930 1_554 S
H212 C222 0.930 . S
H213 C223 0.930 . S
C214 H208 0.930 . S
C214 C215 1.355 1_556 S
C214 C216 1.415 . S
C215 C214 1.355 1_554 S
C215 C217 1.419 . S
C216 C214 1.415 . S
C216 C221 1.425 . S
C216 C223 1.409 . S
C217 H209 0.930 . S
C217 C215 1.419 . S
C217 C218 1.362 . S
C218 H210 0.930 . S
C218 C217 1.362 . S
C218 C221 1.409 1_554 S
C219 H211 0.930 1_556 S
C219 C220 1.355 . S
C219 C221 1.415 . S
C220 C219 1.355 . S
C220 C222 1.419 . S
C221 C216 1.425 . S
C221 C218 1.409 1_556 S
C221 C219 1.415 . S
C222 H212 0.930 . S
C222 C220 1.419 . S
C222 C223 1.362 . S
C223 H213 0.930 . S
C223 C216 1.409 . S
C223 C222 1.362 . S
H224 C230 0.930 . S
H225 C233 0.930 1_554 S
H226 C234 0.930 . S
H227 C235 0.930 . S
H228 C238 0.930 . S
H229 C239 0.930 . S
C230 H224 0.930 . S
C230 C231 1.355 . S
C230 C232 1.415 . S
C231 C230 1.355 . S
C231 C233 1.419 . S
C232 C230 1.415 . S
C232 C237 1.425 1_556 S
C232 C239 1.409 . S
C233 H225 0.930 1_556 S
C233 C231 1.419 . S
C233 C234 1.362 1_556 S
C234 H226 0.930 . S
C234 C233 1.362 1_554 S
C234 C237 1.409 . S
C235 H227 0.930 . S
C235 C236 1.355 . S
C235 C237 1.415 . S
C236 C235 1.355 . S
C236 C238 1.419 1_554 S
C237 C232 1.425 1_554 S
C237 C234 1.409 . S
C237 C235 1.415 . S
C238 H228 0.930 . S
C238 C236 1.419 1_556 S
C238 C239 1.362 . S
C239 H229 0.930 . S
C239 C232 1.409 . S
C239 C238 1.362 . S
H240 C246 0.930 1_554 S
H241 C249 0.930 . S
H242 C250 0.930 . S
H243 C251 0.930 . S
H244 C254 0.930 . S
H245 C255 0.930 . S
C246 H240 0.930 1_556 S
C246 C247 1.355 . S
C246 C248 1.415 . S
C247 C246 1.355 . S
C247 C249 1.419 . S
C248 C246 1.415 . S
C248 C253 1.425 . S
C248 C255 1.409 1_556 S
C249 H241 0.930 . S
C249 C247 1.419 . S
C249 C250 1.362 . S
C250 H242 0.930 . S
C250 C249 1.362 . S
C250 C253 1.409 . S
C251 H243 0.930 . S
C251 C252 1.355 1_556 S
C251 C253 1.415 . S
C252 C251 1.355 1_554 S
C252 C254 1.419 . S
C253 C248 1.425 . S
C253 C250 1.409 . S
C253 C251 1.415 . S
C254 H244 0.930 . S
C254 C252 1.419 . S
C254 C255 1.362 . S
C255 H245 0.930 . S
C255 C248 1.409 1_554 S
C255 C254 1.362 . S
H256 C262 0.930 . S
H257 C265 0.930 1_554 S
H258 C266 0.930 . S
H259 C267 0.930 . S
H260 C270 0.930 . S
H261 C271 0.930 . S
C262 H256 0.930 . S
C262 C263 1.355 . S
C262 C264 1.415 . S
C263 C262 1.355 . S
C263 C265 1.419 . S
C264 C262 1.415 . S
C264 C269 1.425 1_556 S
C264 C271 1.409 . S
C265 H257 0.930 1_556 S
C265 C263 1.419 . S
C265 C266 1.362 1_556 S
C266 H258 0.930 . S
C266 C265 1.362 1_554 S
C266 C269 1.409 . S
C267 H259 0.930 . S
C267 C268 1.355 . S
C267 C269 1.415 . S
C268 C267 1.355 . S
C268 C270 1.419 1_554 S
C269 C264 1.425 1_554 S
C269 C266 1.409 . S
C269 C267 1.415 . S
C270 H260 0.930 . S
C270 C268 1.419 1_556 S
C270 C271 1.362 . S
C271 H261 0.930 . S
C271 C264 1.409 . S
C271 C270 1.362 . S
H272 C278 0.930 . S
H273 C281 0.930 . S
H274 C282 0.930 . S
H275 C283 0.930 . S
H276 C286 0.930 . S
H277 C287 0.930 . S
C278 H272 0.930 . S
C278 C279 1.355 . S
C278 C280 1.415 . S
C279 C278 1.355 . S
C279 C281 1.419 . S
C280 C278 1.415 . S
C280 C285 1.425 . S
C280 C287 1.409 . S
C281 H273 0.930 . S
C281 C279 1.419 . S
C281 C282 1.362 . S
C282 H274 0.930 . S
C282 C281 1.362 . S
C282 C285 1.409 . S
C283 H275 0.930 . S
C283 C284 1.355 . S
C283 C285 1.415 . S
C284 C283 1.355 . S
C284 C286 1.419 . S
C285 C280 1.425 . S
C285 C282 1.409 . S
C285 C283 1.415 . S
C286 H276 0.930 . S
C286 C284 1.419 . S
C286 C287 1.362 . S
C287 H277 0.930 . S
C287 C280 1.409 . S
C287 C286 1.362 . S
H288 C294 0.930 . S
H289 C297 0.930 . S
H290 C298 0.930 . S
H291 C299 0.930 . S
H292 C302 0.930 . S
H293 C303 0.930 . S
C294 H288 0.930 . S
C294 C295 1.355 . S
C294 C296 1.415 . S
C295 C294 1.355 . S
C295 C297 1.419 . S
C296 C294 1.415 . S
C296 C301 1.425 . S
C296 C303 1.409 . S
C297 H289 0.930 . S
C297 C295 1.419 . S
C297 C298 1.362 . S
C298 H290 0.930 . S
C298 C297 1.362 . S
C298 C301 1.409 . S
C299 H291 0.930 . S
C299 C300 1.355 . S
C299 C301 1.415 . S
C300 C299 1.355 . S
C300 C302 1.419 . S
C301 C296 1.425 . S
C301 C298 1.409 . S
C301 C299 1.415 . S
C302 H292 0.930 . S
C302 C300 1.419 . S
C302 C303 1.362 . S
C303 H293 0.930 . S
C303 C296 1.409 . S
C303 C302 1.362 . S
H304 C310 0.930 . S
H305 C313 0.930 . S
H306 C314 0.930 . S
H307 C315 0.930 . S
H308 C318 0.930 . S
H309 C319 0.930 . S
C310 H304 0.930 . S
C310 C311 1.355 . S
C310 C312 1.415 . S
C311 C310 1.355 . S
C311 C313 1.419 . S
C312 C310 1.415 . S
C312 C317 1.425 . S
C312 C319 1.409 . S
C313 H305 0.930 . S
C313 C311 1.419 . S
C313 C314 1.362 . S
C314 H306 0.930 . S
C314 C313 1.362 . S
C314 C317 1.409 . S
C315 H307 0.930 . S
C315 C316 1.355 . S
C315 C317 1.415 . S
C316 C315 1.355 . S
C316 C318 1.419 . S
C317 C312 1.425 . S
C317 C314 1.409 . S
C317 C315 1.415 . S
C318 H308 0.930 . S
C318 C316 1.419 . S
C318 C319 1.362 . S
C319 H309 0.930 . S
C319 C312 1.409 . S
C319 C318 1.362 . S
H320 C326 0.930 . S
H321 C329 0.930 . S
H322 C330 0.930 . S
H323 C331 0.930 . S
H324 C334 0.930 . S
H325 C335 0.930 . S
C326 H320 0.930 . S
C326 C327 1.355 . S
C326 C328 1.415 . S
C327 C326 1.355 . S
C327 C329 1.419 . S
C328 C326 1.415 . S
C328 C333 1.425 . S
C328 C335 1.409 . S
C329 H321 0.930 . S
C329 C327 1.419 . S
C329 C330 1.362 . S
C330 H322 0.930 . S
C330 C329 1.362 . S
C330 C333 1.409 . S
C331 H323 0.930 . S
C331 C332 1.355 . S
C331 C333 1.415 . S
C332 C331 1.355 . S
C332 C334 1.419 . S
C333 C328 1.425 . S
C333 C330 1.409 . S
C333 C331 1.415 . S
C334 H324 0.930 . S
C334 C332 1.419 . S
C334 C335 1.362 . S
C335 H325 0.930 . S
C335 C328 1.409 . S
C335 C334 1.362 . S
H336 C342 0.930 . S
H337 C345 0.930 . S
H338 C346 0.930 . S
H339 C347 0.930 . S
H340 C350 0.930 . S
H341 C351 0.930 . S
C342 H336 0.930 . S
C342 C343 1.355 1_554 S
C342 C344 1.415 . S
C343 C342 1.355 1_556 S
C343 C345 1.419 . S
C344 C342 1.415 . S
C344 C349 1.425 . S
C344 C351 1.409 . S
C345 H337 0.930 . S
C345 C343 1.419 . S
C345 C346 1.362 . S
C346 H338 0.930 . S
C346 C345 1.362 . S
C346 C349 1.409 1_556 S
C347 H339 0.930 . S
C347 C348 1.355 . S
C347 C349 1.415 . S
C348 C347 1.355 . S
C348 C350 1.419 . S
C349 C344 1.425 . S
C349 C346 1.409 1_554 S
C349 C347 1.415 . S
C350 H340 0.930 . S
C350 C348 1.419 . S
C350 C351 1.362 . S
C351 H341 0.930 . S
C351 C344 1.409 . S
C351 C350 1.362 . S
H352 C358 0.930 . S
H353 C361 0.927 1_556 S
H354 C362 0.930 . S
H355 C363 0.930 . S
H356 C366 0.930 . S
H357 C367 0.930 . S
C358 H352 0.930 . S
C358 C359 1.355 . S
C358 C360 1.415 1_556 S
C359 C358 1.355 . S
C359 C361 1.419 1_556 S
C360 C358 1.415 1_554 S
C360 C365 1.425 . S
C360 C367 1.409 . S
C361 H353 0.927 1_554 S
C361 C359 1.419 1_554 S
C361 C362 1.362 . S
C362 H354 0.930 . S
C362 C361 1.362 . S
C362 C365 1.409 . S
C363 H355 0.930 . S
C363 C364 1.355 . S
C363 C365 1.415 . S
C364 C363 1.355 . S
C364 C366 1.419 . S
C365 C360 1.425 . S
C365 C362 1.409 . S
C365 C363 1.415 . S
C366 H356 0.930 . S
C366 C364 1.419 . S
C366 C367 1.362 . S
C367 H357 0.930 . S
C367 C360 1.409 . S
C367 C366 1.362 . S
H368 C374 0.930 . S
H369 C377 0.930 . S
H370 C378 0.930 . S
H371 C379 0.930 . S
H372 C382 0.937 . S
H373 C383 0.930 . S
C374 H368 0.930 . S
C374 C375 1.355 . S
C374 C376 1.415 1_556 S
C375 C374 1.355 . S
C375 C377 1.419 1_556 S
C376 C374 1.415 1_554 S
C376 C381 1.425 . S
C376 C383 1.409 1_554 S
C377 H369 0.930 . S
C377 C375 1.419 1_554 S
C377 C378 1.362 . S
C378 H370 0.930 . S
C378 C377 1.362 . S
C378 C381 1.409 . S
C379 H371 0.930 . S
C379 C380 1.355 . S
C379 C381 1.415 . S
C380 C379 1.355 . S
C380 C382 1.419 . S
C381 C376 1.425 . S
C381 C378 1.409 . S
C381 C379 1.415 . S
C382 H372 0.937 . S
C382 C380 1.419 . S
C382 C383 1.362 1_554 S
C383 H373 0.930 . S
C383 C376 1.409 1_556 S
C383 C382 1.362 1_556 S
H384 C390 0.930 1_556 S
H385 C393 0.930 . S
H386 C394 0.930 . S
H387 C395 0.930 . S
H388 C398 0.930 . S
H389 C399 0.930 . S
C390 H384 0.930 1_554 S
C390 C391 1.355 . S
C390 C392 1.415 . S
C391 C390 1.355 . S
C391 C393 1.419 . S
C392 C390 1.415 . S
C392 C397 1.425 . S
C392 C399 1.409 1_554 S
C393 H385 0.930 . S
C393 C391 1.419 . S
C393 C394 1.362 . S
C394 H386 0.930 . S
C394 C393 1.362 . S
C394 C397 1.409 . S
C395 H387 0.930 . S
C395 C396 1.355 1_554 S
C395 C397 1.415 . S
C396 C395 1.355 1_556 S
C396 C398 1.419 . S
C397 C392 1.425 . S
C397 C394 1.409 . S
C397 C395 1.415 . S
C398 H388 0.930 . S
C398 C396 1.419 . S
C398 C399 1.362 . S
C399 H389 0.930 . S
C399 C392 1.409 1_556 S
C399 C398 1.362 . S
H400 C406 0.930 . S
H401 C409 0.930 . S
H402 C410 0.930 . S
H403 C411 0.930 . S
H404 C414 0.930 . S
H405 C415 0.930 . S
C406 H400 0.930 . S
C406 C407 1.355 . S
C406 C408 1.415 . S
C407 C406 1.355 . S
C407 C409 1.419 . S
C408 C406 1.415 . S
C408 C413 1.425 . S
C408 C415 1.409 . S
C409 H401 0.930 . S
C409 C407 1.419 . S
C409 C410 1.362 . S
C410 H402 0.930 . S
C410 C409 1.362 . S
C410 C413 1.409 . S
C411 H403 0.930 . S
C411 C412 1.355 . S
C411 C413 1.415 . S
C412 C411 1.355 . S
C412 C414 1.419 . S
C413 C408 1.425 . S
C413 C410 1.409 . S
C413 C411 1.415 . S
C414 H404 0.930 . S
C414 C412 1.419 . S
C414 C415 1.362 . S
C415 H405 0.930 . S
C415 C408 1.409 . S
C415 C414 1.362 . S
H416 C422 0.930 . S
H417 C425 0.930 . S
H418 C426 0.930 . S
H419 C427 0.930 . S
H420 C430 0.930 . S
H421 C431 0.930 . S
C422 H416 0.930 . S
C422 C423 1.355 . S
C422 C424 1.415 . S
C423 C422 1.355 . S
C423 C425 1.419 . S
C424 C422 1.415 . S
C424 C429 1.425 . S
C424 C431 1.409 . S
C425 H417 0.930 . S
C425 C423 1.419 . S
C425 C426 1.362 . S
C426 H418 0.930 . S
C426 C425 1.362 . S
C426 C429 1.409 . S
C427 H419 0.930 . S
C427 C428 1.355 . S
C427 C429 1.415 . S
C428 C427 1.355 . S
C428 C430 1.419 . S
C429 C424 1.425 . S
C429 C426 1.409 . S
C429 C427 1.415 . S
C430 H420 0.930 . S
C430 C428 1.419 . S
C430 C431 1.362 . S
C431 H421 0.930 . S
C431 C424 1.409 . S
C431 C430 1.362 . S
H432 C438 0.930 . S
H433 C441 0.930 . S
H434 C442 0.930 . S
H435 C443 0.930 . S
H436 C446 0.930 . S
H437 C447 0.930 . S
C438 H432 0.930 . S
C438 C439 1.355 . S
C438 C440 1.415 . S
C439 C438 1.355 . S
C439 C441 1.419 . S
C440 C438 1.415 . S
C440 C445 1.425 . S
C440 C447 1.409 . S
C441 H433 0.930 . S
C441 C439 1.419 . S
C441 C442 1.362 . S
C442 H434 0.930 . S
C442 C441 1.362 . S
C442 C445 1.409 . S
C443 H435 0.930 . S
C443 C444 1.355 . S
C443 C445 1.415 . S
C444 C443 1.355 . S
C444 C446 1.419 . S
C445 C440 1.425 . S
C445 C442 1.409 . S
C445 C443 1.415 . S
C446 H436 0.930 . S
C446 C444 1.419 . S
C446 C447 1.362 . S
C447 H437 0.930 . S
C447 C440 1.409 . S
C447 C446 1.362 . S
H448 C454 0.930 . S
H449 C457 0.930 . S
H450 C458 0.930 . S
H451 C459 0.930 . S
H452 C462 0.930 . S
H453 C463 0.930 . S
C454 H448 0.930 . S
C454 C455 1.355 . S
C454 C456 1.415 . S
C455 C454 1.355 . S
C455 C457 1.419 . S
C456 C454 1.415 . S
C456 C461 1.425 . S
C456 C463 1.409 . S
C457 H449 0.930 . S
C457 C455 1.419 . S
C457 C458 1.362 . S
C458 H450 0.930 . S
C458 C457 1.362 . S
C458 C461 1.409 . S
C459 H451 0.930 . S
C459 C460 1.355 . S
C459 C461 1.415 . S
C460 C459 1.355 . S
C460 C462 1.419 . S
C461 C456 1.425 . S
C461 C458 1.409 . S
C461 C459 1.415 . S
C462 H452 0.930 . S
C462 C460 1.419 . S
C462 C463 1.362 . S
C463 H453 0.930 . S
C463 C456 1.409 . S
C463 C462 1.362 . S
H464 C470 0.930 . S
H465 C473 0.930 . S
H466 C474 0.930 1_545 S
H467 C475 0.930 . S
H468 C478 0.930 . S
H469 C479 0.930 1_565 S
C470 H464 0.930 . S
C470 C471 1.355 1_554 S
C470 C472 1.415 . S
C471 C470 1.355 1_556 S
C471 C473 1.419 . S
C472 C470 1.415 . S
C472 C477 1.425 1_564 S
C472 C479 1.409 1_565 S
C473 H465 0.930 . S
C473 C471 1.419 . S
C473 C474 1.362 . S
C474 H466 0.930 1_565 S
C474 C473 1.362 . S
C474 C477 1.409 1_565 S
C475 H467 0.930 . S
C475 C476 1.355 1_556 S
C475 C477 1.415 . S
C476 C475 1.355 1_554 S
C476 C478 1.419 . S
C477 C472 1.425 1_546 S
C477 C474 1.409 1_545 S
C477 C475 1.415 . S
C478 H468 0.930 . S
C478 C476 1.419 . S
C478 C479 1.362 . S
C479 H469 0.930 1_545 S
C479 C472 1.409 1_545 S
C479 C478 1.362 . S
H480 C486 0.930 . S
H481 C489 0.930 . S
H482 C490 0.930 . S
H483 C491 0.930 . S
H484 C494 0.930 . S
H485 C495 0.930 . S
C486 H480 0.930 . S
C486 C487 1.355 . S
C486 C488 1.415 . S
C487 C486 1.355 . S
C487 C489 1.419 1_554 S
C488 C486 1.415 . S
C488 C493 1.425 1_554 S
C488 C495 1.409 . S
C489 H481 0.930 . S
C489 C487 1.419 1_556 S
C489 C490 1.362 . S
C490 H482 0.930 . S
C490 C489 1.362 . S
C490 C493 1.409 . S
C491 H483 0.930 . S
C491 C492 1.355 . S
C491 C493 1.415 . S
C492 C491 1.355 . S
C492 C494 1.419 1_556 S
C493 C488 1.425 1_556 S
C493 C490 1.409 . S
C493 C491 1.415 . S
C494 H484 0.930 . S
C494 C492 1.419 1_554 S
C494 C495 1.362 . S
C495 H485 0.930 . S
C495 C488 1.409 . S
C495 C494 1.362 . S
H496 C502 0.930 . S
H497 C505 0.930 . S
H498 C506 0.930 . S
H499 C507 0.930 . S
H500 C510 0.930 . S
H501 C511 0.930 . S
C502 H496 0.930 . S
C502 C503 1.355 1_654 S
C502 C504 1.415 . S
C503 C502 1.355 1_456 S
C503 C505 1.419 . S
C504 C502 1.415 . S
C504 C509 1.425 1_654 S
C504 C511 1.409 . S
C505 H497 0.930 . S
C505 C503 1.419 . S
C505 C506 1.362 . S
C506 H498 0.930 . S
C506 C505 1.362 . S
C506 C509 1.409 . S
C507 H499 0.930 . S
C507 C508 1.355 1_456 S
C507 C509 1.415 . S
C508 C507 1.355 1_654 S
C508 C510 1.419 . S
C509 C504 1.425 1_456 S
C509 C506 1.409 . S
C509 C507 1.415 . S
C510 H500 0.930 . S
C510 C508 1.419 . S
C510 C511 1.362 . S
C511 H501 0.930 . S
C511 C504 1.409 . S
C511 C510 1.362 . S
H512 C518 0.930 . S
H513 C521 0.930 . S
H514 C522 0.918 1_655 S
H515 C523 0.930 . S
H516 C526 0.930 . S
H517 C527 0.918 1_455 S
C518 H512 0.930 . S
C518 C519 1.355 1_546 S
C518 C520 1.415 . S
C519 C518 1.355 1_564 S
C519 C521 1.419 . S
C520 C518 1.415 . S
C520 C525 1.425 1_446 S
C520 C527 1.403 1_455 S
C521 H513 0.930 . S
C521 C519 1.419 . S
C521 C522 1.380 . S
C522 H514 0.918 1_455 S
C522 C521 1.380 . S
C522 C525 1.403 1_455 S
C523 H515 0.930 . S
C523 C524 1.355 1_564 S
C523 C525 1.415 . S
C524 C523 1.355 1_546 S
C524 C526 1.419 . S
C525 C520 1.425 1_664 S
C525 C522 1.403 1_655 S
C525 C523 1.415 . S
C526 H516 0.930 . S
C526 C524 1.419 . S
C526 C527 1.380 . S
C527 H517 0.918 1_655 S
C527 C520 1.403 1_655 S
C527 C526 1.380 . S
H528 C534 0.930 . S
H529 C537 0.930 . S
H530 C538 0.930 . S
H531 C539 0.930 . S
H532 C542 0.930 . S
H533 C543 0.930 . S
C534 H528 0.930 . S
C534 C535 1.355 . S
C534 C536 1.415 . S
C535 C534 1.355 . S
C535 C537 1.419 . S
C536 C534 1.415 . S
C536 C541 1.425 . S
C536 C543 1.409 . S
C537 H529 0.930 . S
C537 C535 1.419 . S
C537 C538 1.362 . S
C538 H530 0.930 . S
C538 C537 1.362 . S
C538 C541 1.409 . S
C539 H531 0.930 . S
C539 C540 1.355 . S
C539 C541 1.415 . S
C540 C539 1.355 . S
C540 C542 1.419 . S
C541 C536 1.425 . S
C541 C538 1.409 . S
C541 C539 1.415 . S
C542 H532 0.930 . S
C542 C540 1.419 . S
C542 C543 1.362 . S
C543 H533 0.930 . S
C543 C536 1.409 . S
C543 C542 1.362 . S
H544 C550 0.930 . S
H545 C553 0.930 . S
H546 C554 0.930 . S
H547 C555 0.930 . S
H548 C558 0.930 . S
H549 C559 0.930 . S
C550 H544 0.930 . S
C550 C551 1.355 . S
C550 C552 1.414 1_455 S
C551 C550 1.355 . S
C551 C553 1.419 . S
C552 C550 1.414 1_655 S
C552 C557 1.425 1_655 S
C552 C559 1.410 . S
C553 H545 0.930 . S
C553 C551 1.419 . S
C553 C554 1.362 . S
C554 H546 0.930 . S
C554 C553 1.362 . S
C554 C557 1.410 . S
C555 H547 0.930 . S
C555 C556 1.355 . S
C555 C557 1.414 1_655 S
C556 C555 1.355 . S
C556 C558 1.419 . S
C557 C552 1.425 1_455 S
C557 C554 1.410 . S
C557 C555 1.414 1_455 S
C558 H548 0.930 . S
C558 C556 1.419 . S
C558 C559 1.362 . S
C559 H549 0.930 . S
C559 C552 1.410 . S
C559 C558 1.362 . S
H560 C566 0.930 . S
H561 C569 0.930 . S
H562 C570 0.930 . S
H563 C571 0.930 . S
H564 C574 0.930 . S
H565 C575 0.930 . S
C566 H560 0.930 . S
C566 C567 1.355 1_655 S
C566 C568 1.415 . S
C567 C566 1.355 1_455 S
C567 C569 1.419 . S
C568 C566 1.415 . S
C568 C573 1.425 1_665 S
C568 C575 1.409 1_565 S
C569 H561 0.930 . S
C569 C567 1.419 . S
C569 C570 1.362 . S
C570 H562 0.930 . S
C570 C569 1.362 . S
C570 C573 1.409 1_565 S
C571 H563 0.930 . S
C571 C572 1.355 1_455 S
C571 C573 1.415 . S
C572 C571 1.355 1_655 S
C572 C574 1.419 . S
C573 C568 1.425 1_445 S
C573 C570 1.409 1_545 S
C573 C571 1.415 . S
C574 H564 0.930 . S
C574 C572 1.419 . S
C574 C575 1.362 . S
C575 H565 0.930 . S
C575 C568 1.409 1_545 S
C575 C574 1.362 . S
H576 C582 0.930 . S
H577 C585 0.930 . S
H578 C586 0.930 . S
H579 C587 0.930 . S
H580 C590 0.930 . S
H581 C591 0.930 . S
C582 H576 0.930 . S
C582 C583 1.355 . S
C582 C584 1.415 . S
C583 C582 1.355 . S
C583 C585 1.419 1_545 S
C584 C582 1.415 . S
C584 C589 1.425 1_545 S
C584 C591 1.409 . S
C585 H577 0.930 . S
C585 C583 1.419 1_565 S
C585 C586 1.362 . S
C586 H578 0.930 . S
C586 C585 1.362 . S
C586 C589 1.409 . S
C587 H579 0.930 . S
C587 C588 1.355 . S
C587 C589 1.415 . S
C588 C587 1.355 . S
C588 C590 1.419 1_565 S
C589 C584 1.425 1_565 S
C589 C586 1.409 . S
C589 C587 1.415 . S
C590 H580 0.930 . S
C590 C588 1.419 1_545 S
C590 C591 1.362 . S
C591 H581 0.930 . S
C591 C584 1.409 . S
C591 C590 1.362 . S
H592 C598 0.930 . S
H593 C601 0.930 . S
H594 C602 0.930 . S
H595 C603 0.930 . S
H596 C606 0.930 . S
H597 C607 0.930 . S
C598 H592 0.930 . S
C598 C599 1.355 . S
C598 C600 1.415 . S
C599 C598 1.355 . S
C599 C601 1.419 . S
C600 C598 1.415 . S
C600 C605 1.425 . S
C600 C607 1.409 . S
C601 H593 0.930 . S
C601 C599 1.419 . S
C601 C602 1.362 . S
C602 H594 0.930 . S
C602 C601 1.362 . S
C602 C605 1.409 . S
C603 H595 0.930 . S
C603 C604 1.355 . S
C603 C605 1.415 . S
C604 C603 1.355 . S
C604 C606 1.419 . S
C605 C600 1.425 . S
C605 C602 1.409 . S
C605 C603 1.415 . S
C606 H596 0.930 . S
C606 C604 1.419 . S
C606 C607 1.362 . S
C607 H597 0.930 . S
C607 C600 1.409 . S
C607 C606 1.362 . S
H608 C614 0.930 . S
H609 C617 0.930 . S
H610 C618 0.930 . S
H611 C619 0.930 . S
H612 C622 0.930 . S
H613 C623 0.930 . S
C614 H608 0.930 . S
C614 C615 1.355 . S
C614 C616 1.415 . S
C615 C614 1.355 . S
C615 C617 1.419 . S
C616 C614 1.415 . S
C616 C621 1.425 . S
C616 C623 1.409 . S
C617 H609 0.930 . S
C617 C615 1.419 . S
C617 C618 1.362 . S
C618 H610 0.930 . S
C618 C617 1.362 . S
C618 C621 1.409 . S
C619 H611 0.930 . S
C619 C620 1.355 . S
C619 C621 1.415 . S
C620 C619 1.355 . S
C620 C622 1.419 . S
C621 C616 1.425 . S
C621 C618 1.409 . S
C621 C619 1.415 . S
C622 H612 0.930 . S
C622 C620 1.419 . S
C622 C623 1.362 . S
C623 H613 0.930 . S
C623 C616 1.409 . S
C623 C622 1.362 . S
H624 C630 0.930 . S
H625 C633 0.930 . S
H626 C634 0.930 . S
H627 C635 0.930 . S
H628 C638 0.930 . S
H629 C639 0.930 1_455 S
C630 H624 0.930 . S
C630 C631 1.355 . S
C630 C632 1.415 . S
C631 C630 1.355 . S
C631 C633 1.419 . S
C632 C630 1.415 . S
C632 C637 1.425 . S
C632 C639 1.409 . S
C633 H625 0.930 . S
C633 C631 1.419 . S
C633 C634 1.362 . S
C634 H626 0.930 . S
C634 C633 1.362 . S
C634 C637 1.409 . S
C635 H627 0.930 . S
C635 C636 1.355 . S
C635 C637 1.415 . S
C636 C635 1.355 . S
C636 C638 1.419 . S
C637 C632 1.425 . S
C637 C634 1.409 . S
C637 C635 1.415 . S
C638 H628 0.930 . S
C638 C636 1.419 . S
C638 C639 1.362 . S
C639 H629 0.930 1_655 S
C639 C632 1.409 . S
C639 C638 1.362 . S
H640 C646 0.930 . S
H641 C649 0.930 . S
H642 C650 0.930 . S
H643 C651 0.930 . S
H644 C654 0.930 . S
H645 C655 0.930 . S
C646 H640 0.930 . S
C646 C647 1.355 . S
C646 C648 1.415 . S
C647 C646 1.355 . S
C647 C649 1.419 . S
C648 C646 1.415 . S
C648 C653 1.425 . S
C648 C655 1.409 . S
C649 H641 0.930 . S
C649 C647 1.419 . S
C649 C650 1.362 . S
C650 H642 0.930 . S
C650 C649 1.362 . S
C650 C653 1.409 . S
C651 H643 0.930 . S
C651 C652 1.355 . S
C651 C653 1.415 . S
C652 C651 1.355 . S
C652 C654 1.419 . S
C653 C648 1.425 . S
C653 C650 1.409 . S
C653 C651 1.415 . S
C654 H644 0.930 . S
C654 C652 1.419 . S
C654 C655 1.362 . S
C655 H645 0.930 . S
C655 C648 1.409 . S
C655 C654 1.362 . S
H656 C662 0.930 . S
H657 C665 0.930 . S
H658 C666 0.930 . S
H659 C667 0.930 . S
H660 C670 0.930 . S
H661 C671 0.930 . S
C662 H656 0.930 . S
C662 C663 1.355 . S
C662 C664 1.415 . S
C663 C662 1.355 . S
C663 C665 1.419 . S
C664 C662 1.415 . S
C664 C669 1.425 . S
C664 C671 1.409 . S
C665 H657 0.930 . S
C665 C663 1.419 . S
C665 C666 1.362 . S
C666 H658 0.930 . S
C666 C665 1.362 . S
C666 C669 1.409 . S
C667 H659 0.930 . S
C667 C668 1.355 . S
C667 C669 1.415 . S
C668 C667 1.355 . S
C668 C670 1.419 . S
C669 C664 1.425 . S
C669 C666 1.409 . S
C669 C667 1.415 . S
C670 H660 0.930 . S
C670 C668 1.419 . S
C670 C671 1.362 . S
C671 H661 0.930 . S
C671 C664 1.409 . S
C671 C670 1.362 . S
H672 C678 0.930 . S
H673 C681 0.930 . S
H674 C682 0.930 . S
H675 C683 0.930 . S
H676 C686 0.930 . S
H677 C687 0.930 . S
C678 H672 0.930 . S
C678 C679 1.355 . S
C678 C680 1.415 . S
C679 C678 1.355 . S
C679 C681 1.419 . S
C680 C678 1.415 . S
C680 C685 1.425 . S
C680 C687 1.409 . S
C681 H673 0.930 . S
C681 C679 1.419 . S
C681 C682 1.362 . S
C682 H674 0.930 . S
C682 C681 1.362 . S
C682 C685 1.409 . S
C683 H675 0.930 . S
C683 C684 1.355 . S
C683 C685 1.415 . S
C684 C683 1.355 . S
C684 C686 1.419 . S
C685 C680 1.425 . S
C685 C682 1.409 . S
C685 C683 1.415 . S
C686 H676 0.930 . S
C686 C684 1.419 . S
C686 C687 1.362 . S
C687 H677 0.930 . S
C687 C680 1.409 . S
C687 C686 1.362 . S
H688 C694 0.930 . S
H689 C697 0.930 . S
H690 C698 0.930 . S
H691 C699 0.930 . S
H692 C702 0.930 . S
H693 C703 0.930 . S
C694 H688 0.930 . S
C694 C695 1.355 . S
C694 C696 1.415 . S
C695 C694 1.355 . S
C695 C697 1.419 . S
C696 C694 1.415 . S
C696 C701 1.425 . S
C696 C703 1.409 . S
C697 H689 0.930 . S
C697 C695 1.419 . S
C697 C698 1.362 . S
C698 H690 0.930 . S
C698 C697 1.362 . S
C698 C701 1.409 . S
C699 H691 0.930 . S
C699 C700 1.355 . S
C699 C701 1.415 . S
C700 C699 1.355 . S
C700 C702 1.419 . S
C701 C696 1.425 . S
C701 C698 1.409 . S
C701 C699 1.415 . S
C702 H692 0.930 . S
C702 C700 1.419 . S
C702 C703 1.362 . S
C703 H693 0.930 . S
C703 C696 1.409 . S
C703 C702 1.362 . S
H704 C710 0.930 . S
H705 C713 0.930 . S
H706 C714 0.930 . S
H707 C715 0.930 . S
H708 C718 0.930 . S
H709 C719 0.930 . S
C710 H704 0.930 . S
C710 C711 1.355 . S
C710 C712 1.415 . S
C711 C710 1.355 . S
C711 C713 1.419 . S
C712 C710 1.415 . S
C712 C717 1.425 . S
C712 C719 1.409 . S
C713 H705 0.930 . S
C713 C711 1.419 . S
C713 C714 1.362 . S
C714 H706 0.930 . S
C714 C713 1.362 . S
C714 C717 1.409 . S
C715 H707 0.930 . S
C715 C716 1.355 . S
C715 C717 1.415 . S
C716 C715 1.355 . S
C716 C718 1.419 . S
C717 C712 1.425 . S
C717 C714 1.409 . S
C717 C715 1.415 . S
C718 H708 0.930 . S
C718 C716 1.419 . S
C718 C719 1.362 . S
C719 H709 0.930 . S
C719 C712 1.409 . S
C719 C718 1.362 . S
C215 C5 0.706 . S
C220 C125 0.818 . S
C231 C138 0.761 . S
C236 C18 0.780 . S
C247 C151 0.815 . S
C252 C31 0.711 . S
C263 C112 0.769 . S
C268 C44 0.768 . S
C279 C57 0.763 . S
C284 C203 0.771 . S
C295 C164 0.727 . S
C300 C70 0.833 . S
C311 C177 0.744 . S
C316 C83 0.806 . S
C327 C190 0.779 . S
C332 C96 0.775 . S
C343 C109 0.821 . S
C348 C21 0.748 . S
C359 C122 0.855 . S
C364 C34 0.720 . S
C375 C135 0.754 . S
C380 C47 0.777 . S
C391 C8 0.818 . S
C396 C148 0.706 . S
C407 C161 0.703 . S
C412 C99 0.819 . S
C423 C174 0.698 . S
C428 C60 0.811 . S
C439 C73 0.827 . S
C444 C187 0.675 . S
C455 C200 0.786 . S
C460 C86 0.757 . S
C471 C104 1.568 . S
C476 C0 1.568 . S
C487 C13 1.583 . S
C492 C117 1.583 . S
C503 C130 1.550 . S
C508 C26 1.550 . S
C519 C39 1.565 . S
C524 C143 1.565 . S
C535 C156 1.565 . S
C540 C52 1.565 . S
C551 C65 1.578 . S
C556 C169 1.578 . S
C567 C182 1.583 . S
C572 C78 1.583 . S
C583 C195 1.563 . S
C588 C91 1.563 . S
C599 C62 1.645 . S
C604 C10 1.620 . S
C615 C75 1.630 . S
C620 C23 1.625 . S
C631 C36 1.629 . S
C636 C88 1.669 . S
C647 C101 1.660 . S
C652 C49 1.623 . S
C663 C114 1.679 . S
C668 C166 1.639 . S
C679 C179 1.683 . S
C684 C127 1.671 . S
C695 C192 1.685 . S
C700 C140 1.664 . S
C711 C205 1.625 . S
C716 C153 1.663 . S
