# Generated by pormake.
# Topology umd, (4)-cn, num edge types: 1
# Building blocks:
#     Node 0, Type 0, BuildingBlock: ICAMEG_clean_sbu_1, # of connection points: 4
#     Node 1, Type 0, BuildingBlock: ICAMEG_clean_sbu_1, # of connection points: 4
#     Node 2, Type 0, BuildingBlock: ICAMEG_clean_sbu_1, # of connection points: 4
#     Node 3, Type 0, BuildingBlock: ICAMEG_clean_sbu_1, # of connection points: 4
#     Node 4, Type 0, BuildingBlock: ICAMEG_clean_sbu_1, # of connection points: 4
#     Node 5, Type 0, BuildingBlock: ICAMEG_clean_sbu_1, # of connection points: 4
#     Node 6, Type 0, BuildingBlock: ICAMEG_clean_sbu_1, # of connection points: 4
#     Node 7, Type 0, BuildingBlock: ICAMEG_clean_sbu_1, # of connection points: 4
#     Node 8, Type 0, BuildingBlock: ICAMEG_clean_sbu_1, # of connection points: 4
#     Node 9, Type 0, BuildingBlock: ICAMEG_clean_sbu_1, # of connection points: 4
#     Node 10, Type 0, BuildingBlock: ICAMEG_clean_sbu_1, # of connection points: 4
#     Node 11, Type 0, BuildingBlock: ICAMEG_clean_sbu_1, # of connection points: 4
#     Node 12, Type 0, BuildingBlock: ICAMEG_clean_sbu_1, # of connection points: 4
#     Node 13, Type 0, BuildingBlock: ICAMEG_clean_sbu_1, # of connection points: 4
#     Node 14, Type 0, BuildingBlock: ICAMEG_clean_sbu_1, # of connection points: 4
#     Node 15, Type 0, BuildingBlock: ICAMEG_clean_sbu_1, # of connection points: 4
#     Edge 16, Type (0, 0), BuildingBlock: MIFKUJ_clean_linker_0, # of connection points: 2
#     Edge 17, Type (0, 0), BuildingBlock: MIFKUJ_clean_linker_0, # of connection points: 2
#     Edge 18, Type (0, 0), BuildingBlock: MIFKUJ_clean_linker_0, # of connection points: 2
#     Edge 19, Type (0, 0), BuildingBlock: MIFKUJ_clean_linker_0, # of connection points: 2
#     Edge 20, Type (0, 0), BuildingBlock: MIFKUJ_clean_linker_0, # of connection points: 2
#     Edge 21, Type (0, 0), BuildingBlock: MIFKUJ_clean_linker_0, # of connection points: 2
#     Edge 22, Type (0, 0), BuildingBlock: MIFKUJ_clean_linker_0, # of connection points: 2
#     Edge 23, Type (0, 0), BuildingBlock: MIFKUJ_clean_linker_0, # of connection points: 2
#     Edge 24, Type (0, 0), BuildingBlock: MIFKUJ_clean_linker_0, # of connection points: 2
#     Edge 25, Type (0, 0), BuildingBlock: MIFKUJ_clean_linker_0, # of connection points: 2
#     Edge 26, Type (0, 0), BuildingBlock: MIFKUJ_clean_linker_0, # of connection points: 2
#     Edge 27, Type (0, 0), BuildingBlock: MIFKUJ_clean_linker_0, # of connection points: 2
#     Edge 28, Type (0, 0), BuildingBlock: MIFKUJ_clean_linker_0, # of connection points: 2
#     Edge 29, Type (0, 0), BuildingBlock: MIFKUJ_clean_linker_0, # of connection points: 2
#     Edge 30, Type (0, 0), BuildingBlock: MIFKUJ_clean_linker_0, # of connection points: 2
#     Edge 31, Type (0, 0), BuildingBlock: MIFKUJ_clean_linker_0, # of connection points: 2
#     Edge 32, Type (0, 0), BuildingBlock: MIFKUJ_clean_linker_0, # of connection points: 2
#     Edge 33, Type (0, 0), BuildingBlock: MIFKUJ_clean_linker_0, # of connection points: 2
#     Edge 34, Type (0, 0), BuildingBlock: MIFKUJ_clean_linker_0, # of connection points: 2
#     Edge 35, Type (0, 0), BuildingBlock: MIFKUJ_clean_linker_0, # of connection points: 2
#     Edge 36, Type (0, 0), BuildingBlock: MIFKUJ_clean_linker_0, # of connection points: 2
#     Edge 37, Type (0, 0), BuildingBlock: MIFKUJ_clean_linker_0, # of connection points: 2
#     Edge 38, Type (0, 0), BuildingBlock: MIFKUJ_clean_linker_0, # of connection points: 2
#     Edge 39, Type (0, 0), BuildingBlock: MIFKUJ_clean_linker_0, # of connection points: 2
#     Edge 40, Type (0, 0), BuildingBlock: MIFKUJ_clean_linker_0, # of connection points: 2
#     Edge 41, Type (0, 0), BuildingBlock: MIFKUJ_clean_linker_0, # of connection points: 2
#     Edge 42, Type (0, 0), BuildingBlock: MIFKUJ_clean_linker_0, # of connection points: 2
#     Edge 43, Type (0, 0), BuildingBlock: MIFKUJ_clean_linker_0, # of connection points: 2
#     Edge 44, Type (0, 0), BuildingBlock: MIFKUJ_clean_linker_0, # of connection points: 2
#     Edge 45, Type (0, 0), BuildingBlock: MIFKUJ_clean_linker_0, # of connection points: 2
#     Edge 46, Type (0, 0), BuildingBlock: MIFKUJ_clean_linker_0, # of connection points: 2
#     Edge 47, Type (0, 0), BuildingBlock: MIFKUJ_clean_linker_0, # of connection points: 2
# Relax obj value: 0.054
# Max RMSD: 0.158
# Mean RMSD: 0.158
data_MOF--net-umd--node1-ICAMEG_clean_sbu_1--edge1-MIFKUJ_clean_linker_0
_symmetry_space_group_name_H-M    P1
_symmetry_Int_Tables_number       1
_symmetry_cell_setting            triclinic
loop_
_symmetry_equiv_pos_as_xyz
'x, y, z'
_cell_length_a     53.376801
_cell_length_b     53.369176
_cell_length_c     78.396344
_cell_angle_alpha  89.995138
_cell_angle_beta   90.018927
_cell_angle_gamma 90.007584
loop_
_atom_site_label
_atom_site_type_symbol
_atom_site_fract_x
_atom_site_fract_y
_atom_site_fract_z
_atom_type_partial_charge
Co0 Co 0.18325 0.48405 0.12428 0.0
Co1 Co 0.16705 0.42448 0.13758 0.0
O2 O 0.18421 0.44766 0.12238 0.0
C3 C 0.16256 0.47326 0.09036 0.0
O4 O 0.14825 0.45677 0.09805 0.0
C5 C 0.22025 0.4106 0.14021 0.0
O6 O 0.22502 0.43459 0.14198 0.0
O7 O 0.179 0.44293 0.15809 0.0
O8 O 0.18814 0.48212 0.14949 0.0
H9 H 0.11237 0.40036 0.18709 0.0
H10 H 0.2178 0.45999 0.09959 0.0
O11 O 0.17804 0.48633 0.09899 0.0
H12 H 0.27205 0.50751 0.13892 0.0
H13 H 0.20354 0.57166 0.10498 0.0
H14 H 0.16005 0.5204 0.14814 0.0
H15 H 0.2261 0.5083 0.14228 0.0
H16 H 0.20455 0.52549 0.10338 0.0
O17 O 0.19777 0.40307 0.1383 0.0
H18 H 0.13377 0.42975 0.16765 0.0
H19 H 0.16476 0.3688 0.13995 0.0
H20 H 0.15872 0.56649 0.15032 0.0
H21 H 0.26364 0.45882 0.0957 0.0
H22 H 0.18059 0.59244 0.12863 0.0
H23 H 0.29109 0.48263 0.1155 0.0
O24 O 0.1463 0.48399 0.12771 0.0
H25 H 0.17649 0.38453 0.07991 0.0
H26 H 0.1174 0.40497 0.12619 0.0
H27 H 0.10182 0.38395 0.10025 0.0
H28 H 0.13148 0.3736 0.07688 0.0
H29 H 0.19121 0.40577 0.106 0.0
H30 H 0.14386 0.33874 0.15916 0.0
H31 H 0.11736 0.35449 0.1829 0.0
O32 O 0.1362 0.4455 0.13714 0.0
C33 C 0.18604 0.46538 0.16104 0.0
C34 C 0.1238 0.39326 0.17676 0.0
C35 C 0.1415 0.35868 0.1611 0.0
N36 N 0.15031 0.40098 0.15261 0.0
C37 C 0.1359 0.40981 0.16569 0.0
C38 C 0.15332 0.37578 0.15028 0.0
C39 C 0.12663 0.36753 0.17441 0.0
C40 C 0.22961 0.47062 0.10815 0.0
N41 N 0.21928 0.48432 0.12108 0.0
C42 C 0.25556 0.46979 0.10593 0.0
C43 C 0.27095 0.48313 0.11705 0.0
C44 C 0.26028 0.49708 0.1302 0.0
C45 C 0.23426 0.49743 0.13206 0.0
C46 C 0.19399 0.56056 0.11453 0.0
C47 C 0.16975 0.53157 0.13872 0.0
C48 C 0.19446 0.53442 0.11367 0.0
N49 N 0.18255 0.5203 0.12574 0.0
C50 C 0.16886 0.55766 0.13999 0.0
C51 C 0.18111 0.57221 0.12781 0.0
C52 C 0.13046 0.46793 0.1331 0.0
C53 C 0.1634 0.38889 0.09002 0.0
C54 C 0.1304 0.40056 0.11607 0.0
C55 C 0.12148 0.3886 0.10143 0.0
C56 C 0.13813 0.38279 0.08832 0.0
N57 N 0.15519 0.40653 0.11763 0.0
C58 C 0.17164 0.40081 0.10486 0.0
Co59 Co 0.52132 0.17704 0.62366 0.0
Co60 Co 0.58101 0.1643 0.63822 0.0
O61 O 0.55763 0.18034 0.62255 0.0
C62 C 0.53507 0.15993 0.58939 0.0
O63 O 0.55211 0.14622 0.59704 0.0
C64 C 0.5926 0.21806 0.6403 0.0
O65 O 0.56843 0.2217 0.64215 0.0
O66 O 0.56161 0.17617 0.65822 0.0
O67 O 0.52183 0.18019 0.64912 0.0
H68 H 0.6059 0.1125 0.689 0.0
H69 H 0.54397 0.21507 0.60079 0.0
O70 O 0.52041 0.17367 0.59819 0.0
H71 H 0.49115 0.26274 0.6409 0.0
H72 H 0.43328 0.19253 0.6032 0.0
H73 H 0.48583 0.14932 0.64578 0.0
H74 H 0.4934 0.21664 0.6426 0.0
H75 H 0.47928 0.19723 0.60276 0.0
O76 O 0.60119 0.19591 0.63869 0.0
H77 H 0.57623 0.13209 0.66888 0.0
H78 H 0.63666 0.16408 0.64119 0.0
H79 H 0.43992 0.14412 0.64673 0.0
H80 H 0.54211 0.26114 0.59855 0.0
H81 H 0.41332 0.16586 0.62534 0.0
H82 H 0.51562 0.28529 0.61875 0.0
O83 O 0.52385 0.14009 0.62573 0.0
H84 H 0.62296 0.17361 0.5812 0.0
H85 H 0.6022 0.11494 0.62771 0.0
H86 H 0.62495 0.09948 0.60243 0.0
H87 H 0.63546 0.1289 0.57895 0.0
H88 H 0.60008 0.18824 0.60665 0.0
H89 H 0.66699 0.14501 0.66108 0.0
H90 H 0.65164 0.11892 0.68515 0.0
O91 O 0.56113 0.13249 0.63809 0.0
C92 C 0.53842 0.18043 0.66087 0.0
C93 C 0.61282 0.12374 0.67851 0.0
C94 C 0.64711 0.14201 0.66286 0.0
N95 N 0.60473 0.14896 0.65377 0.0
C96 C 0.59612 0.1348 0.66705 0.0
C97 C 0.62985 0.15279 0.65165 0.0
C98 C 0.63848 0.12737 0.67636 0.0
C99 C 0.53219 0.22543 0.6095 0.0
N100 N 0.5187 0.21318 0.62174 0.0
C101 C 0.53129 0.25152 0.60822 0.0
C102 C 0.51646 0.26506 0.61958 0.0
C103 C 0.50273 0.25242 0.63202 0.0
C104 C 0.50411 0.22632 0.63293 0.0
C105 C 0.44466 0.18303 0.61263 0.0
C106 C 0.47435 0.15896 0.6365 0.0
C107 C 0.4707 0.18561 0.61242 0.0
N108 N 0.48517 0.17376 0.62433 0.0
C109 C 0.44838 0.15589 0.63707 0.0
C110 C 0.43348 0.16806 0.62505 0.0
C111 C 0.5399 0.12535 0.63238 0.0
C112 C 0.61856 0.16062 0.59138 0.0
C113 C 0.60671 0.12786 0.61754 0.0
C114 C 0.61962 0.119 0.60327 0.0
C115 C 0.62553 0.13553 0.59011 0.0
N116 N 0.59993 0.1525 0.61869 0.0
C117 C 0.60571 0.16883 0.60585 0.0
Co118 Co 0.81614 0.51553 0.12469 0.0
Co119 Co 0.83251 0.57553 0.13706 0.0
O120 O 0.81395 0.55191 0.12295 0.0
C121 C 0.83248 0.52772 0.08998 0.0
O122 O 0.84661 0.54485 0.09716 0.0
C123 C 0.77938 0.58726 0.14316 0.0
O124 O 0.77566 0.56306 0.14472 0.0
O125 O 0.82447 0.55637 0.15811 0.0
O126 O 0.81365 0.51733 0.15008 0.0
H127 H 0.89409 0.60086 0.18237 0.0
H128 H 0.77846 0.53887 0.10183 0.0
O129 O 0.81884 0.51353 0.0992 0.0
H130 H 0.72978 0.48919 0.14322 0.0
H131 H 0.79674 0.42744 0.10598 0.0
H132 H 0.8424 0.47978 0.14748 0.0
H133 H 0.77595 0.48973 0.14441 0.0
H134 H 0.7942 0.47357 0.10458 0.0
O135 O 0.80127 0.59569 0.14016 0.0
H136 H 0.87069 0.57103 0.16437 0.0
H137 H 0.83291 0.63122 0.13998 0.0
H138 H 0.84531 0.43373 0.14944 0.0
H139 H 0.73233 0.53868 0.10008 0.0
H140 H 0.82237 0.40725 0.12858 0.0
H141 H 0.70766 0.51379 0.12093 0.0
O142 O 0.8534 0.51654 0.12641 0.0
H143 H 0.81265 0.61611 0.08082 0.0
H144 H 0.87928 0.59741 0.1225 0.0
H145 H 0.88989 0.61976 0.09593 0.0
H146 H 0.85643 0.62924 0.07486 0.0
H147 H 0.80292 0.59363 0.1075 0.0
H148 H 0.85567 0.66171 0.15787 0.0
H149 H 0.88661 0.64657 0.17919 0.0
O150 O 0.86382 0.55572 0.13423 0.0
C151 C 0.81759 0.534 0.16146 0.0
C152 C 0.88071 0.6077 0.1731 0.0
C153 C 0.85912 0.64185 0.15936 0.0
N154 N 0.85061 0.5994 0.15105 0.0
C155 C 0.86747 0.5909 0.16283 0.0
C156 C 0.84624 0.6245 0.1493 0.0
C157 C 0.87648 0.63334 0.17131 0.0
C158 C 0.76787 0.52779 0.11083 0.0
N159 N 0.77989 0.51424 0.12316 0.0
C160 C 0.74175 0.52784 0.10983 0.0
C161 C 0.72792 0.51389 0.12154 0.0
C162 C 0.74032 0.50009 0.13406 0.0
C163 C 0.76646 0.50051 0.13469 0.0
C164 C 0.80678 0.43878 0.11516 0.0
C165 C 0.83224 0.46837 0.13843 0.0
C166 C 0.80546 0.4649 0.11441 0.0
N167 N 0.81799 0.47931 0.12602 0.0
C168 C 0.83401 0.44231 0.13957 0.0
C169 C 0.82116 0.42746 0.12785 0.0
C170 C 0.86951 0.53324 0.13034 0.0
C171 C 0.82739 0.61214 0.08992 0.0
C172 C 0.86464 0.60143 0.11339 0.0
C173 C 0.87074 0.61414 0.09838 0.0
C174 C 0.85196 0.61947 0.08657 0.0
N175 N 0.8405 0.59427 0.11657 0.0
C176 C 0.82197 0.5995 0.10508 0.0
Co177 Co 0.48431 0.81497 0.62197 0.0
Co178 Co 0.42416 0.82905 0.63505 0.0
O179 O 0.44805 0.81307 0.61975 0.0
C180 C 0.47331 0.83618 0.5884 0.0
O181 O 0.45678 0.85004 0.59641 0.0
C182 C 0.41142 0.77547 0.63593 0.0
O183 O 0.43543 0.77131 0.6382 0.0
O184 O 0.4422 0.81621 0.65543 0.0
O185 O 0.48204 0.80962 0.64715 0.0
H186 H 0.39735 0.87975 0.68586 0.0
H187 H 0.46174 0.78005 0.59686 0.0
O188 O 0.48675 0.82066 0.59673 0.0
H189 H 0.51045 0.72677 0.63613 0.0
H190 H 0.57291 0.79815 0.60324 0.0
H191 H 0.51939 0.83897 0.64632 0.0
H192 H 0.50961 0.77266 0.63986 0.0
H193 H 0.52683 0.79538 0.60128 0.0
O194 O 0.40333 0.79785 0.63451 0.0
H195 H 0.42778 0.86014 0.6663 0.0
H196 H 0.36842 0.83042 0.63643 0.0
H197 H 0.56535 0.84214 0.64881 0.0
H198 H 0.46221 0.73426 0.5926 0.0
H199 H 0.59244 0.82161 0.62717 0.0
H200 H 0.48663 0.70729 0.61236 0.0
O201 O 0.48305 0.85174 0.62562 0.0
H202 H 0.38649 0.82234 0.57647 0.0
H203 H 0.40447 0.8791 0.62461 0.0
H204 H 0.38415 0.89581 0.59872 0.0
H205 H 0.37511 0.86736 0.5744 0.0
H206 H 0.40683 0.80643 0.60257 0.0
H207 H 0.33731 0.84955 0.65573 0.0
H208 H 0.35174 0.87451 0.68061 0.0
O209 O 0.44468 0.86041 0.63594 0.0
C210 C 0.46491 0.81025 0.65852 0.0
C211 C 0.39082 0.86901 0.67502 0.0
C212 C 0.35713 0.85203 0.65812 0.0
N213 N 0.39987 0.84441 0.65015 0.0
C214 C 0.40797 0.85795 0.66387 0.0
C215 C 0.37482 0.84122 0.64725 0.0
C216 C 0.36524 0.86604 0.67208 0.0
C217 C 0.47262 0.76846 0.60541 0.0
N218 N 0.48575 0.77902 0.61853 0.0
C219 C 0.47273 0.74253 0.60297 0.0
C220 C 0.4864 0.72741 0.61408 0.0
C221 C 0.49976 0.73833 0.62743 0.0
C222 C 0.49919 0.76432 0.62949 0.0
C223 C 0.5613 0.80711 0.61277 0.0
C224 C 0.53106 0.82985 0.63691 0.0
C225 C 0.53522 0.80563 0.61172 0.0
N226 N 0.52048 0.8168 0.62376 0.0
C227 C 0.55707 0.83177 0.63836 0.0
C228 C 0.57225 0.82028 0.6262 0.0
C229 C 0.46683 0.86685 0.63165 0.0
C230 C 0.39024 0.83491 0.58701 0.0
C231 C 0.4005 0.86659 0.6141 0.0
C232 C 0.38899 0.87615 0.59948 0.0
C233 C 0.3839 0.86018 0.58585 0.0
N234 N 0.40669 0.84178 0.61514 0.0
C235 C 0.40165 0.82598 0.60185 0.0
Co236 Co 0.18245 0.51254 0.37356 0.0
Co237 Co 0.16801 0.57282 0.36079 0.0
O238 O 0.18405 0.54887 0.376 0.0
C239 C 0.1609 0.52328 0.40718 0.0
O240 O 0.14704 0.53996 0.39931 0.0
C241 C 0.22153 0.58602 0.35965 0.0
O242 O 0.22613 0.56208 0.35747 0.0
O243 O 0.18079 0.5548 0.34039 0.0
O244 O 0.18843 0.51504 0.34845 0.0
H245 H 0.11699 0.59893 0.30996 0.0
H246 H 0.21657 0.53524 0.39915 0.0
O247 O 0.17624 0.50982 0.39873 0.0
H248 H 0.27121 0.4873 0.36035 0.0
H249 H 0.20002 0.42407 0.39225 0.0
H250 H 0.15957 0.47727 0.3488 0.0
H251 H 0.22542 0.4878 0.35607 0.0
H252 H 0.20195 0.47016 0.3944 0.0
O253 O 0.19906 0.59374 0.36116 0.0
H254 H 0.13647 0.5688 0.3298 0.0
H255 H 0.16669 0.62863 0.35901 0.0
H256 H 0.15735 0.43127 0.34607 0.0
H257 H 0.26223 0.53509 0.40397 0.0
H258 H 0.17768 0.40435 0.36791 0.0
H259 H 0.28989 0.51105 0.38445 0.0
O260 O 0.14566 0.51341 0.36939 0.0
H261 H 0.1751 0.6105 0.41932 0.0
H262 H 0.11839 0.59372 0.37101 0.0
H263 H 0.10188 0.61439 0.3968 0.0
H264 H 0.13034 0.6229 0.4212 0.0
H265 H 0.19073 0.58965 0.39334 0.0
H266 H 0.14762 0.65943 0.33944 0.0
H267 H 0.1225 0.64461 0.31474 0.0
O268 O 0.13672 0.55235 0.36023 0.0
C269 C 0.18748 0.53233 0.33721 0.0
C270 C 0.1278 0.60562 0.32072 0.0
C271 C 0.14502 0.63958 0.33725 0.0
N272 N 0.15248 0.59697 0.34563 0.0
C273 C 0.1388 0.58866 0.33203 0.0
C274 C 0.1558 0.62206 0.34828 0.0
C275 C 0.13093 0.63125 0.3234 0.0
C276 C 0.22845 0.52453 0.39071 0.0
N277 N 0.21833 0.51142 0.37741 0.0
C278 C 0.25431 0.5246 0.39346 0.0
C279 C 0.26982 0.51114 0.38248 0.0
C280 C 0.25935 0.49782 0.36895 0.0
C281 C 0.23342 0.49821 0.36658 0.0
C282 C 0.19114 0.4356 0.38264 0.0
C283 C 0.16861 0.46567 0.35828 0.0
C284 C 0.19213 0.46169 0.3838 0.0
N285 N 0.18107 0.47636 0.37165 0.0
C286 C 0.16722 0.43964 0.3567 0.0
C287 C 0.17861 0.42454 0.36897 0.0
C288 C 0.1304 0.52992 0.36386 0.0
C289 C 0.16252 0.60692 0.40877 0.0
C290 C 0.13083 0.59726 0.3816 0.0
C291 C 0.12141 0.60905 0.39615 0.0
C292 C 0.1374 0.61384 0.40982 0.0
N293 N 0.15547 0.59044 0.38068 0.0
C294 C 0.17129 0.5952 0.394 0.0
Co295 Co 0.48135 0.18566 0.87221 0.0
Co296 Co 0.42181 0.16846 0.85941 0.0
O297 O 0.44499 0.18616 0.87434 0.0
C298 C 0.4709 0.16544 0.90626 0.0
O299 O 0.45449 0.15094 0.89866 0.0
C300 C 0.40778 0.22155 0.85659 0.0
O301 O 0.43175 0.22626 0.85468 0.0
O302 O 0.43992 0.18009 0.8387 0.0
O303 O 0.47896 0.19033 0.847 0.0
H304 H 0.39756 0.11249 0.8106 0.0
H305 H 0.45716 0.2202 0.89685 0.0
O306 O 0.48401 0.18074 0.89752 0.0
H307 H 0.50384 0.27454 0.85712 0.0
H308 H 0.56906 0.2068 0.89089 0.0
H309 H 0.51754 0.16285 0.84807 0.0
H310 H 0.50499 0.22857 0.85394 0.0
H311 H 0.52291 0.2074 0.89281 0.0
O312 O 0.40022 0.19908 0.85852 0.0
H313 H 0.42699 0.13451 0.82969 0.0
H314 H 0.36613 0.16583 0.85729 0.0
H315 H 0.56359 0.16196 0.84556 0.0
H316 H 0.45562 0.26607 0.90056 0.0
H317 H 0.58967 0.18404 0.86708 0.0
H318 H 0.47901 0.29357 0.88058 0.0
O319 O 0.48168 0.1487 0.86889 0.0
H320 H 0.38194 0.17903 0.91702 0.0
H321 H 0.40271 0.11895 0.87139 0.0
H322 H 0.38166 0.1039 0.89745 0.0
H323 H 0.37114 0.13405 0.9205 0.0
H324 H 0.4032 0.19322 0.89082 0.0
H325 H 0.33602 0.1443 0.83843 0.0
H326 H 0.35171 0.11732 0.81492 0.0
O327 O 0.44311 0.13772 0.86006 0.0
C328 C 0.46214 0.18762 0.83556 0.0
C329 C 0.39049 0.12412 0.82083 0.0
C330 C 0.35595 0.142 0.83644 0.0
N331 N 0.39827 0.15124 0.84467 0.0
C332 C 0.40707 0.13656 0.83171 0.0
C333 C 0.37308 0.15418 0.84705 0.0
C334 C 0.36477 0.12686 0.82325 0.0
C335 C 0.4676 0.23203 0.88821 0.0
N336 N 0.48127 0.22172 0.87526 0.0
C337 C 0.46657 0.258 0.89033 0.0
C338 C 0.47967 0.27342 0.87909 0.0
C339 C 0.49359 0.26275 0.86593 0.0
C340 C 0.49415 0.23671 0.86417 0.0
C341 C 0.55789 0.19715 0.88141 0.0
C342 C 0.52876 0.17265 0.85742 0.0
C343 C 0.53177 0.19739 0.88246 0.0
N344 N 0.51757 0.18535 0.87049 0.0
C345 C 0.55483 0.17201 0.85596 0.0
C346 C 0.56945 0.18438 0.86805 0.0
C347 C 0.46577 0.13247 0.86383 0.0
C348 C 0.38638 0.16572 0.90706 0.0
C349 C 0.39824 0.13216 0.88137 0.0
C350 C 0.38627 0.12355 0.89609 0.0
C351 C 0.38036 0.14047 0.90901 0.0
N352 N 0.40412 0.15695 0.87956 0.0
C353 C 0.39833 0.17366 0.89216 0.0
Co354 Co 0.81708 0.48689 0.37324 0.0
Co355 Co 0.83082 0.42703 0.35933 0.0
O356 O 0.81574 0.4505 0.37535 0.0
C357 C 0.8401 0.47579 0.40641 0.0
O358 O 0.85369 0.45915 0.39828 0.0
C359 C 0.77742 0.41351 0.35993 0.0
O360 O 0.77268 0.43754 0.35841 0.0
O361 O 0.81622 0.4452 0.3396 0.0
O362 O 0.80991 0.48491 0.34826 0.0
H363 H 0.87868 0.40225 0.3068 0.0
H364 H 0.7843 0.46366 0.39938 0.0
O365 O 0.8244 0.48923 0.39826 0.0
H366 H 0.72763 0.5121 0.36222 0.0
H367 H 0.79996 0.575 0.39291 0.0
H368 H 0.83908 0.52262 0.34846 0.0
H369 H 0.77318 0.51178 0.35689 0.0
H370 H 0.79821 0.52886 0.39474 0.0
O371 O 0.79998 0.40578 0.36056 0.0
H372 H 0.85999 0.4319 0.32732 0.0
H373 H 0.83259 0.37131 0.35709 0.0
H374 H 0.84111 0.56867 0.34605 0.0
H375 H 0.73892 0.46366 0.40527 0.0
H376 H 0.82144 0.59518 0.36839 0.0
H377 H 0.71024 0.48793 0.38657 0.0
O378 O 0.85366 0.48613 0.3684 0.0
H379 H 0.82857 0.38729 0.4174 0.0
H380 H 0.88172 0.40753 0.36783 0.0
H381 H 0.90036 0.3863 0.39273 0.0
H382 H 0.87372 0.37605 0.41775 0.0
H383 H 0.81073 0.40865 0.39228 0.0
H384 H 0.85079 0.341 0.33681 0.0
H385 H 0.87411 0.35646 0.31149 0.0
O386 O 0.86181 0.44788 0.35778 0.0
C387 C 0.8096 0.46781 0.33687 0.0
C388 C 0.86862 0.3953 0.31781 0.0
C389 C 0.85295 0.36092 0.33465 0.0
N390 N 0.84543 0.40332 0.34346 0.0
C391 C 0.85808 0.41199 0.3295 0.0
C392 C 0.84265 0.37816 0.34607 0.0
C393 C 0.86604 0.3696 0.32044 0.0
C394 C 0.77197 0.47448 0.3913 0.0
N395 N 0.78139 0.48782 0.37787 0.0
C396 C 0.74628 0.47432 0.39465 0.0
C397 C 0.73019 0.48792 0.38414 0.0
C398 C 0.73994 0.50147 0.37046 0.0
C399 C 0.76574 0.50118 0.36749 0.0
C400 C 0.80854 0.56365 0.38307 0.0
C401 C 0.83032 0.53405 0.35816 0.0
C402 C 0.80763 0.53753 0.38405 0.0
N403 N 0.8183 0.5231 0.37162 0.0
C404 C 0.8316 0.5601 0.35676 0.0
C405 C 0.82059 0.57496 0.36931 0.0
C406 C 0.86851 0.47002 0.3619 0.0
C407 C 0.84035 0.39159 0.40656 0.0
C408 C 0.87001 0.40314 0.37867 0.0
C409 C 0.88066 0.39108 0.39273 0.0
C410 C 0.8657 0.38532 0.40676 0.0
N411 N 0.84513 0.40922 0.37857 0.0
C412 C 0.83033 0.40358 0.39227 0.0
Co413 Co 0.51794 0.82032 0.87087 0.0
Co414 Co 0.57833 0.83416 0.85805 0.0
O415 O 0.55423 0.81733 0.87274 0.0
C416 C 0.53038 0.83826 0.90516 0.0
O417 O 0.54769 0.85177 0.89764 0.0
C418 C 0.58908 0.78035 0.85422 0.0
O419 O 0.56486 0.77704 0.85243 0.0
O420 O 0.55929 0.82448 0.83727 0.0
O421 O 0.51968 0.81659 0.84554 0.0
H422 H 0.60551 0.89043 0.81012 0.0
H423 H 0.54003 0.78323 0.89473 0.0
O424 O 0.51597 0.82436 0.89628 0.0
H425 H 0.48966 0.73376 0.85414 0.0
H426 H 0.42935 0.80392 0.88975 0.0
H427 H 0.48295 0.8466 0.84755 0.0
H428 H 0.49145 0.77983 0.85186 0.0
H429 H 0.47539 0.8003 0.89131 0.0
O430 O 0.59793 0.80229 0.85645 0.0
H431 H 0.57496 0.86957 0.82899 0.0
H432 H 0.63404 0.83335 0.85563 0.0
H433 H 0.43701 0.85057 0.84543 0.0
H434 H 0.53858 0.73723 0.89756 0.0
H435 H 0.40988 0.82912 0.86664 0.0
H436 H 0.51333 0.71217 0.87712 0.0
O437 O 0.51999 0.85734 0.8683 0.0
H438 H 0.61814 0.81864 0.91517 0.0
H439 H 0.6007 0.88184 0.87084 0.0
H440 H 0.62302 0.8944 0.89704 0.0
H441 H 0.63187 0.86267 0.91943 0.0
H442 H 0.59568 0.80696 0.88884 0.0
H443 H 0.66523 0.85366 0.83696 0.0
H444 H 0.651 0.88251 0.81405 0.0
O445 O 0.55906 0.8662 0.8594 0.0
C446 C 0.53659 0.81855 0.8341 0.0
C447 C 0.61194 0.87797 0.82009 0.0
C448 C 0.64546 0.8573 0.83514 0.0
N449 N 0.60274 0.85045 0.84348 0.0
C450 C 0.59474 0.86617 0.83085 0.0
C451 C 0.62772 0.84582 0.84565 0.0
C452 C 0.63746 0.87349 0.8223 0.0
C453 C 0.52877 0.77248 0.8859 0.0
N454 N 0.51571 0.78421 0.87321 0.0
C455 C 0.52812 0.74643 0.88752 0.0
C456 C 0.51398 0.73238 0.87603 0.0
C457 C 0.5007 0.74448 0.86313 0.0
C458 C 0.50181 0.77056 0.86189 0.0
C459 C 0.44097 0.8133 0.88041 0.0
C460 C 0.47126 0.83708 0.85675 0.0
C461 C 0.46704 0.81136 0.88125 0.0
N462 N 0.4818 0.82305 0.86944 0.0
C463 C 0.44526 0.83946 0.85552 0.0
C464 C 0.43006 0.82744 0.86744 0.0
C465 C 0.53685 0.87274 0.86348 0.0
C466 C 0.61444 0.83262 0.90549 0.0
C467 C 0.60444 0.86795 0.88054 0.0
C468 C 0.61713 0.87515 0.89533 0.0
C469 C 0.62211 0.85734 0.90788 0.0
N470 N 0.59696 0.84369 0.87829 0.0
C471 C 0.60182 0.8261 0.89052 0.0
Co472 Co 0.81519 0.51473 0.87265 0.0
Co473 Co 0.82918 0.57581 0.86151 0.0
O474 O 0.81212 0.55089 0.87543 0.0
C475 C 0.83324 0.52499 0.90717 0.0
O476 O 0.84699 0.54245 0.90003 0.0
C477 C 0.77544 0.58751 0.85782 0.0
O478 O 0.77159 0.56344 0.8556 0.0
O479 O 0.81962 0.55804 0.84014 0.0
O480 O 0.81166 0.51801 0.84742 0.0
H481 H 0.88627 0.60551 0.81476 0.0
H482 H 0.77793 0.53543 0.89694 0.0
O483 O 0.81903 0.51131 0.89799 0.0
H484 H 0.72877 0.4874 0.85488 0.0
H485 H 0.79864 0.42511 0.88912 0.0
H486 H 0.84149 0.48108 0.84845 0.0
H487 H 0.77484 0.48936 0.85281 0.0
H488 H 0.79508 0.47104 0.8919 0.0
O489 O 0.79754 0.59577 0.86028 0.0
H490 H 0.86484 0.57399 0.83256 0.0
H491 H 0.82886 0.63166 0.86071 0.0
H492 H 0.8454 0.43528 0.84511 0.0
H493 H 0.73192 0.53381 0.89957 0.0
H494 H 0.82387 0.40697 0.86554 0.0
H495 H 0.70701 0.50973 0.8784 0.0
O496 O 0.85228 0.51682 0.87025 0.0
H497 H 0.81332 0.61086 0.92001 0.0
H498 H 0.87674 0.59743 0.8752 0.0
H499 H 0.88915 0.61737 0.9023 0.0
H500 H 0.85732 0.62412 0.92496 0.0
H501 H 0.80176 0.59093 0.89273 0.0
H502 H 0.8497 0.66382 0.8431 0.0
H503 H 0.87873 0.6508 0.81999 0.0
O504 O 0.86107 0.5564 0.86249 0.0
C505 C 0.81372 0.53551 0.8364 0.0
C506 C 0.87372 0.61143 0.82483 0.0
C507 C 0.85317 0.64415 0.84072 0.0
N508 N 0.84579 0.601 0.84774 0.0
C509 C 0.8616 0.59367 0.83498 0.0
C510 C 0.84138 0.62586 0.85062 0.0
C511 C 0.86946 0.63683 0.82776 0.0
C512 C 0.76725 0.5247 0.88778 0.0
N513 N 0.77907 0.51238 0.8748 0.0
C514 C 0.74119 0.52394 0.88929 0.0
C515 C 0.72722 0.51045 0.8774 0.0
C516 C 0.73942 0.49793 0.86419 0.0
C517 C 0.76551 0.49914 0.86307 0.0
C518 C 0.80806 0.43726 0.88012 0.0
C519 C 0.83194 0.46887 0.85732 0.0
C520 C 0.80616 0.46326 0.88165 0.0
N521 N 0.8179 0.47869 0.87027 0.0
C522 C 0.83428 0.44296 0.8554 0.0
C523 C 0.82222 0.42709 0.86688 0.0
C524 C 0.86766 0.53401 0.86597 0.0
C525 C 0.82734 0.60808 0.91021 0.0
C526 C 0.86279 0.60035 0.88498 0.0
C527 C 0.86991 0.61168 0.90029 0.0
C528 C 0.85204 0.61548 0.913 0.0
N529 N 0.83854 0.59308 0.88236 0.0
C530 C 0.82089 0.5969 0.89472 0.0
Co531 Co 0.47782 0.82075 0.37128 0.0
Co532 Co 0.41801 0.8341 0.35722 0.0
O533 O 0.44153 0.81811 0.37282 0.0
C534 C 0.46542 0.83923 0.40547 0.0
O535 O 0.44866 0.85338 0.39791 0.0
C536 C 0.40615 0.78046 0.35544 0.0
O537 O 0.43023 0.77681 0.35316 0.0
O538 O 0.43689 0.82188 0.33707 0.0
O539 O 0.47665 0.81683 0.34594 0.0
H540 H 0.39243 0.8854 0.30637 0.0
H541 H 0.45491 0.78387 0.39488 0.0
O542 O 0.47937 0.82482 0.39665 0.0
H543 H 0.50636 0.73401 0.35518 0.0
H544 H 0.5661 0.8046 0.39103 0.0
H545 H 0.51322 0.84703 0.34829 0.0
H546 H 0.50478 0.78007 0.35275 0.0
H547 H 0.52005 0.80066 0.39207 0.0
O548 O 0.39763 0.80262 0.35717 0.0
H549 H 0.42238 0.86582 0.32629 0.0
H550 H 0.36232 0.83472 0.35482 0.0
H551 H 0.55916 0.85141 0.34672 0.0
H552 H 0.45607 0.73788 0.39784 0.0
H553 H 0.58593 0.83007 0.3682 0.0
H554 H 0.48188 0.71262 0.37786 0.0
O555 O 0.47586 0.85769 0.36866 0.0
H556 H 0.37709 0.82589 0.41467 0.0
H557 H 0.39751 0.88377 0.36764 0.0
H558 H 0.37537 0.89976 0.39302 0.0
H559 H 0.36502 0.87073 0.41676 0.0
H560 H 0.39937 0.81073 0.38912 0.0
H561 H 0.3317 0.8538 0.33513 0.0
H562 H 0.34672 0.87944 0.31074 0.0
O563 O 0.43819 0.86568 0.35693 0.0
C564 C 0.45991 0.81696 0.3343 0.0
C565 C 0.38565 0.87436 0.31699 0.0
C566 C 0.35156 0.8566 0.33312 0.0
N567 N 0.39409 0.84941 0.34181 0.0
C568 C 0.40252 0.86331 0.32835 0.0
C569 C 0.36898 0.84582 0.34421 0.0
C570 C 0.36001 0.87099 0.31944 0.0
C571 C 0.46638 0.77303 0.38625 0.0
N572 N 0.47987 0.78465 0.37372 0.0
C573 C 0.46688 0.74698 0.38794 0.0
C574 C 0.48134 0.73283 0.37671 0.0
C575 C 0.49506 0.74481 0.36398 0.0
C576 C 0.49407 0.77089 0.36265 0.0
C577 C 0.55464 0.81392 0.38157 0.0
C578 C 0.52475 0.83755 0.35761 0.0
C579 C 0.52857 0.81178 0.38211 0.0
N580 N 0.51401 0.82341 0.37016 0.0
C581 C 0.55075 0.84016 0.35669 0.0
C582 C 0.56576 0.82821 0.36876 0.0
C583 C 0.45978 0.87255 0.36213 0.0
C584 C 0.38143 0.83871 0.40439 0.0
C585 C 0.39308 0.87103 0.37793 0.0
C586 C 0.38051 0.88018 0.39225 0.0
C587 C 0.3747 0.86387 0.40556 0.0
N588 N 0.39961 0.84631 0.37687 0.0
C589 C 0.39394 0.83021 0.38986 0.0
Co590 Co 0.18228 0.48582 0.87335 0.0
Co591 Co 0.16515 0.42626 0.86058 0.0
O592 O 0.18283 0.44946 0.87548 0.0
C593 C 0.16221 0.47522 0.90739 0.0
O594 O 0.14759 0.45896 0.89974 0.0
C595 C 0.21821 0.412 0.85803 0.0
O596 O 0.22304 0.43594 0.85607 0.0
O597 O 0.17698 0.44428 0.83988 0.0
O598 O 0.18679 0.48348 0.8481 0.0
H599 H 0.10949 0.40197 0.8116 0.0
H600 H 0.21701 0.46165 0.8979 0.0
O601 O 0.17751 0.48837 0.89868 0.0
H602 H 0.27104 0.5083 0.85797 0.0
H603 H 0.20367 0.57343 0.89208 0.0
H604 H 0.15932 0.52213 0.84934 0.0
H605 H 0.22505 0.50947 0.85494 0.0
H606 H 0.20419 0.52727 0.89394 0.0
O607 O 0.19569 0.40455 0.85985 0.0
H608 H 0.13143 0.43143 0.83072 0.0
H609 H 0.16235 0.37058 0.85858 0.0
H610 H 0.15847 0.56821 0.8469 0.0
H611 H 0.26289 0.46013 0.90148 0.0
H612 H 0.18077 0.59418 0.86838 0.0
H613 H 0.29024 0.48349 0.88138 0.0
O614 O 0.14527 0.48615 0.87015 0.0
H615 H 0.175 0.38707 0.91848 0.0
H616 H 0.11551 0.40729 0.87237 0.0
H617 H 0.10009 0.38677 0.89852 0.0
H618 H 0.12994 0.37653 0.92181 0.0
H619 H 0.18956 0.40783 0.89218 0.0
H620 H 0.1409 0.34045 0.83968 0.0
H621 H 0.11417 0.35612 0.81603 0.0
O622 O 0.1345 0.44763 0.86109 0.0
C623 C 0.18429 0.46657 0.8367 0.0
C624 C 0.12102 0.39492 0.8219 0.0
C625 C 0.13867 0.36038 0.83764 0.0
N626 N 0.14796 0.40272 0.84583 0.0
C627 C 0.13342 0.4115 0.83279 0.0
C628 C 0.15081 0.37752 0.84828 0.0
C629 C 0.12367 0.36919 0.82438 0.0
C630 C 0.22877 0.47209 0.88922 0.0
N631 N 0.21836 0.48575 0.87629 0.0
C632 C 0.25474 0.47106 0.89126 0.0
C633 C 0.27008 0.48415 0.87996 0.0
C634 C 0.25932 0.49806 0.86682 0.0
C635 C 0.23327 0.49862 0.86515 0.0
C636 C 0.19392 0.56232 0.88262 0.0
C637 C 0.16919 0.53331 0.85867 0.0
C638 C 0.19411 0.53619 0.88363 0.0
N639 N 0.18196 0.52205 0.87168 0.0
C640 C 0.16858 0.55939 0.85725 0.0
C641 C 0.18108 0.57395 0.86932 0.0
C642 C 0.12913 0.47021 0.86501 0.0
C643 C 0.16182 0.39139 0.90841 0.0
C644 C 0.1286 0.40294 0.88245 0.0
C645 C 0.11977 0.39126 0.89722 0.0
C646 C 0.13653 0.38551 0.91028 0.0
N647 N 0.15342 0.40871 0.88073 0.0
C648 C 0.16998 0.40304 0.89345 0.0
Co649 Co 0.51734 0.18165 0.37263 0.0
Co650 Co 0.57635 0.16837 0.35706 0.0
O651 O 0.55375 0.18381 0.37352 0.0
C652 C 0.53113 0.16144 0.40614 0.0
O653 O 0.54765 0.1478 0.39793 0.0
C654 C 0.58936 0.22187 0.35676 0.0
O655 O 0.56526 0.22629 0.35532 0.0
O656 O 0.55685 0.18218 0.33767 0.0
O657 O 0.51745 0.18679 0.34735 0.0
H658 H 0.59866 0.11974 0.30434 0.0
H659 H 0.54149 0.21701 0.39674 0.0
O660 O 0.51679 0.17626 0.39794 0.0
H661 H 0.48926 0.26948 0.3591 0.0
H662 H 0.43017 0.19801 0.39442 0.0
H663 H 0.48064 0.15681 0.34984 0.0
H664 H 0.49029 0.22357 0.35549 0.0
H665 H 0.47629 0.20129 0.39466 0.0
O666 O 0.59737 0.19941 0.35746 0.0
H667 H 0.57 0.13857 0.32543 0.0
H668 H 0.63191 0.1669 0.35349 0.0
H669 H 0.43459 0.15312 0.34907 0.0
H670 H 0.54085 0.26281 0.40089 0.0
H671 H 0.40903 0.17384 0.37148 0.0
H672 H 0.51466 0.28938 0.38194 0.0
O673 O 0.51874 0.14486 0.36916 0.0
H674 H 0.61967 0.17235 0.41392 0.0
H675 H 0.5965 0.11778 0.36566 0.0
H676 H 0.61937 0.09988 0.39014 0.0
H677 H 0.6311 0.12724 0.4145 0.0
H678 H 0.59666 0.18943 0.38923 0.0
H679 H 0.66125 0.14854 0.33263 0.0
H680 H 0.64465 0.12467 0.30789 0.0
O681 O 0.55565 0.13713 0.35635 0.0
C682 C 0.53375 0.18731 0.33543 0.0
C683 C 0.60613 0.13 0.31511 0.0
C684 C 0.64126 0.1462 0.33098 0.0
N685 N 0.5993 0.15357 0.34076 0.0
C686 C 0.59 0.14063 0.32712 0.0
C687 C 0.62456 0.15658 0.34273 0.0
C688 C 0.63193 0.1328 0.3171 0.0
C689 C 0.52984 0.22842 0.38856 0.0
N690 N 0.51584 0.21763 0.37595 0.0
C691 C 0.52964 0.25436 0.39092 0.0
C692 C 0.51497 0.26926 0.38027 0.0
C693 C 0.50073 0.2581 0.36744 0.0
C694 C 0.50142 0.23211 0.36544 0.0
C695 C 0.4411 0.18897 0.38456 0.0
C696 C 0.46963 0.16602 0.35956 0.0
C697 C 0.4672 0.19074 0.38464 0.0
N698 N 0.48109 0.17946 0.37218 0.0
C699 C 0.44357 0.1638 0.35909 0.0
C700 C 0.42925 0.17541 0.37168 0.0
C701 C 0.53428 0.13018 0.36192 0.0
C702 C 0.61474 0.16026 0.40335 0.0
C703 C 0.60154 0.1298 0.37621 0.0
C704 C 0.61452 0.11957 0.39002 0.0
C705 C 0.62111 0.13494 0.40368 0.0
N706 N 0.59537 0.15466 0.37598 0.0
C707 C 0.60181 0.16985 0.38931 0.0
Co708 Co 0.81618 0.4857 0.62306 0.0
Co709 Co 0.83083 0.42604 0.63705 0.0
O710 O 0.81446 0.44925 0.62146 0.0
C711 C 0.83688 0.47344 0.58942 0.0
O712 O 0.8506 0.45676 0.59741 0.0
C713 C 0.77727 0.41295 0.63902 0.0
O714 O 0.77267 0.43701 0.64048 0.0
O715 O 0.81859 0.44509 0.65715 0.0
O716 O 0.8108 0.48443 0.64826 0.0
H717 H 0.88307 0.4024 0.68787 0.0
H718 H 0.78145 0.46187 0.59836 0.0
O719 O 0.82183 0.48732 0.5978 0.0
H720 H 0.72777 0.51173 0.63666 0.0
H721 H 0.79834 0.57333 0.6027 0.0
H722 H 0.83984 0.52202 0.64674 0.0
H723 H 0.77366 0.51136 0.64045 0.0
H724 H 0.7962 0.52717 0.60158 0.0
O725 O 0.79973 0.40516 0.63757 0.0
H726 H 0.8631 0.43155 0.66759 0.0
H727 H 0.83218 0.37034 0.64009 0.0
H728 H 0.8423 0.56811 0.64844 0.0
H729 H 0.73568 0.46184 0.59404 0.0
H730 H 0.82145 0.59409 0.6263 0.0
H731 H 0.70851 0.48685 0.61332 0.0
O732 O 0.85306 0.48491 0.62683 0.0
H733 H 0.82201 0.38482 0.57975 0.0
H734 H 0.88026 0.40488 0.62662 0.0
H735 H 0.89598 0.3826 0.60123 0.0
H736 H 0.86675 0.37243 0.57756 0.0
H737 H 0.80717 0.4073 0.60531 0.0
H738 H 0.85173 0.3405 0.66012 0.0
H739 H 0.87745 0.35651 0.68419 0.0
O740 O 0.86216 0.44645 0.6368 0.0
C741 C 0.81204 0.46772 0.65989 0.0
C742 C 0.872 0.39519 0.67739 0.0
C743 C 0.85438 0.36045 0.66183 0.0
N744 N 0.8467 0.40263 0.65258 0.0
C745 C 0.86071 0.4116 0.66584 0.0
C746 C 0.84333 0.37743 0.65054 0.0
C747 C 0.86881 0.36944 0.67533 0.0
C748 C 0.76977 0.473 0.60669 0.0
N749 N 0.78022 0.48672 0.61957 0.0
C750 C 0.74386 0.47282 0.60423 0.0
C751 C 0.72862 0.48683 0.61506 0.0
C752 C 0.73942 0.50078 0.62817 0.0
C753 C 0.7654 0.50047 0.63027 0.0
C754 C 0.80745 0.56222 0.61244 0.0
C755 C 0.83057 0.53321 0.63714 0.0
C756 C 0.80634 0.53608 0.61186 0.0
N757 N 0.81769 0.52195 0.62417 0.0
C758 C 0.8321 0.55929 0.63813 0.0
C759 C 0.82042 0.57385 0.62569 0.0
C760 C 0.86844 0.46868 0.63258 0.0
C761 C 0.83492 0.38912 0.58999 0.0
C762 C 0.86747 0.40061 0.61635 0.0
C763 C 0.87645 0.38792 0.60203 0.0
C764 C 0.86003 0.3822 0.58876 0.0
N765 N 0.84283 0.40738 0.61745 0.0
C766 C 0.82661 0.40176 0.60452 0.0
Co767 Co 0.52248 0.81894 0.12271 0.0
Co768 Co 0.58216 0.83263 0.13702 0.0
O769 O 0.55882 0.81548 0.12185 0.0
C770 C 0.53642 0.83408 0.08807 0.0
O771 O 0.55369 0.84791 0.09538 0.0
C772 C 0.59307 0.77914 0.14166 0.0
O773 O 0.56879 0.77588 0.14315 0.0
O774 O 0.56238 0.82278 0.15734 0.0
O775 O 0.52279 0.8173 0.14821 0.0
H776 H 0.6069 0.88846 0.18581 0.0
H777 H 0.54529 0.77959 0.101 0.0
O778 O 0.52171 0.82085 0.09718 0.0
H779 H 0.49211 0.73434 0.14219 0.0
H780 H 0.43455 0.8025 0.10237 0.0
H781 H 0.48691 0.84807 0.1439 0.0
H782 H 0.49432 0.78051 0.14259 0.0
H783 H 0.48053 0.79758 0.10226 0.0
O784 O 0.60195 0.80096 0.13904 0.0
H785 H 0.5773 0.8674 0.16634 0.0
H786 H 0.63776 0.83267 0.14028 0.0
H787 H 0.44102 0.85354 0.14448 0.0
H788 H 0.54351 0.73342 0.10008 0.0
H789 H 0.41452 0.83062 0.12362 0.0
H790 H 0.51683 0.71049 0.12082 0.0
O791 O 0.52505 0.85601 0.12377 0.0
H792 H 0.62491 0.81772 0.08084 0.0
H793 H 0.60395 0.88075 0.12457 0.0
H794 H 0.62723 0.89366 0.09886 0.0
H795 H 0.63786 0.86203 0.07677 0.0
H796 H 0.60149 0.80566 0.10669 0.0
H797 H 0.66804 0.85318 0.15955 0.0
H798 H 0.65264 0.88139 0.18246 0.0
O799 O 0.56262 0.86449 0.13546 0.0
C800 C 0.53924 0.81835 0.16002 0.0
C801 C 0.61385 0.87631 0.17582 0.0
C802 C 0.64816 0.85648 0.1611 0.0
N803 N 0.60582 0.8491 0.15207 0.0
C804 C 0.59718 0.86442 0.16472 0.0
C805 C 0.63094 0.8449 0.15024 0.0
C806 C 0.63951 0.87231 0.17395 0.0
C807 C 0.53343 0.76975 0.10994 0.0
N808 N 0.51982 0.78272 0.12177 0.0
C809 C 0.53258 0.74361 0.10941 0.0
C810 C 0.51764 0.73075 0.12107 0.0
C811 C 0.50377 0.74412 0.13307 0.0
C812 C 0.50512 0.77026 0.13325 0.0
C813 C 0.44589 0.81252 0.11156 0.0
C814 C 0.47548 0.83791 0.13486 0.0
C815 C 0.47192 0.80982 0.11155 0.0
N816 N 0.48633 0.82234 0.12317 0.0
C817 C 0.44952 0.84114 0.13522 0.0
C818 C 0.43466 0.8283 0.12349 0.0
C819 C 0.54129 0.87119 0.12971 0.0
C820 C 0.62046 0.83166 0.0904 0.0
C821 C 0.60849 0.86688 0.11501 0.0
C822 C 0.62171 0.87429 0.10049 0.0
C823 C 0.62768 0.85653 0.08811 0.0
N824 N 0.60148 0.84245 0.11716 0.0
C825 C 0.6073 0.82492 0.1051 0.0
Co826 Co 0.18187 0.51104 0.62389 0.0
Co827 Co 0.16946 0.57202 0.63605 0.0
O828 O 0.18478 0.54724 0.62113 0.0
C829 C 0.16067 0.52152 0.59019 0.0
O830 O 0.1473 0.53873 0.59793 0.0
C831 C 0.22337 0.58398 0.63698 0.0
O832 O 0.2275 0.55999 0.63937 0.0
O833 O 0.18182 0.55415 0.65666 0.0
O834 O 0.18761 0.51389 0.649 0.0
H835 H 0.11951 0.60088 0.68665 0.0
H836 H 0.217 0.53195 0.59826 0.0
O837 O 0.17582 0.50796 0.59873 0.0
H838 H 0.26958 0.48314 0.6379 0.0
H839 H 0.19674 0.42159 0.60632 0.0
H840 H 0.1572 0.47717 0.64874 0.0
H841 H 0.22379 0.48528 0.6419 0.0
H842 H 0.2003 0.46754 0.6037 0.0
O843 O 0.20105 0.59211 0.63543 0.0
H844 H 0.13809 0.56971 0.66718 0.0
H845 H 0.16944 0.62789 0.63701 0.0
H846 H 0.15332 0.43134 0.65194 0.0
H847 H 0.26269 0.53016 0.59371 0.0
H848 H 0.17319 0.40322 0.63062 0.0
H849 H 0.28931 0.50568 0.61366 0.0
O850 O 0.1451 0.51328 0.62782 0.0
H851 H 0.17769 0.60771 0.57702 0.0
H852 H 0.12025 0.59357 0.62533 0.0
H853 H 0.10438 0.61376 0.59916 0.0
H854 H 0.1332 0.62088 0.57475 0.0
H855 H 0.19272 0.58748 0.60339 0.0
H856 H 0.15127 0.65973 0.65619 0.0
H857 H 0.12605 0.64627 0.6812 0.0
O858 O 0.13758 0.5525 0.63692 0.0
C859 C 0.18746 0.53145 0.66006 0.0
C860 C 0.13037 0.60699 0.67576 0.0
C861 C 0.14823 0.64001 0.65867 0.0
N862 N 0.15462 0.59699 0.65089 0.0
C863 C 0.14087 0.58943 0.66466 0.0
C864 C 0.15849 0.62191 0.64787 0.0
C865 C 0.13408 0.63245 0.6727 0.0
C866 C 0.22843 0.52105 0.60689 0.0
N867 N 0.21773 0.50861 0.62027 0.0
C868 C 0.2543 0.5202 0.60429 0.0
C869 C 0.26923 0.50649 0.6155 0.0
C870 C 0.25817 0.49384 0.62912 0.0
C871 C 0.23225 0.49516 0.63133 0.0
C872 C 0.18806 0.43364 0.61571 0.0
C873 C 0.16606 0.46504 0.63949 0.0
C874 C 0.18999 0.45966 0.61428 0.0
N875 N 0.1792 0.47497 0.62616 0.0
C876 C 0.16372 0.43911 0.64133 0.0
C877 C 0.17485 0.42335 0.62936 0.0
C878 C 0.13042 0.53031 0.63332 0.0
C879 C 0.16497 0.60476 0.58758 0.0
C880 C 0.13289 0.59662 0.61477 0.0
C881 C 0.12382 0.6081 0.59999 0.0
C882 C 0.13999 0.61211 0.58631 0.0
N883 N 0.15739 0.5894 0.61591 0.0
C884 C 0.1734 0.59341 0.60257 0.0
Co885 Co 0.48326 0.18214 0.12365 0.0
Co886 Co 0.4227 0.16634 0.1349 0.0
O887 O 0.44708 0.18382 0.12075 0.0
C888 C 0.47399 0.16312 0.08922 0.0
O889 O 0.45716 0.14873 0.09647 0.0
C890 C 0.40935 0.21964 0.13774 0.0
O891 O 0.43327 0.22394 0.14031 0.0
O892 O 0.43977 0.17748 0.15611 0.0
O893 O 0.4798 0.18569 0.14896 0.0
H894 H 0.39425 0.11106 0.18302 0.0
H895 H 0.46146 0.21856 0.09923 0.0
O896 O 0.48688 0.17823 0.09828 0.0
H897 H 0.50757 0.26949 0.1413 0.0
H898 H 0.57237 0.20132 0.10728 0.0
H899 H 0.51759 0.15685 0.1479 0.0
H900 H 0.50717 0.22338 0.14346 0.0
H901 H 0.52636 0.20366 0.1045 0.0
O902 O 0.4016 0.19733 0.13531 0.0
H903 H 0.42531 0.13254 0.16487 0.0
H904 H 0.36693 0.16442 0.13514 0.0
H905 H 0.56348 0.15405 0.1512 0.0
H906 H 0.46155 0.26461 0.0965 0.0
H907 H 0.59119 0.17642 0.1308 0.0
H908 H 0.48465 0.2904 0.11767 0.0
O909 O 0.4823 0.14511 0.12607 0.0
H910 H 0.38736 0.17806 0.07602 0.0
H911 H 0.40388 0.11717 0.12201 0.0
H912 H 0.3848 0.10269 0.09508 0.0
H913 H 0.37651 0.13324 0.07184 0.0
H914 H 0.40648 0.19172 0.10312 0.0
H915 H 0.33522 0.14346 0.15305 0.0
H916 H 0.34884 0.11647 0.17715 0.0
O917 O 0.44343 0.13515 0.13487 0.0
C918 C 0.46217 0.18372 0.15991 0.0
C919 C 0.38809 0.12268 0.17252 0.0
C920 C 0.35495 0.14089 0.15571 0.0
N921 N 0.39793 0.14947 0.14886 0.0
C922 C 0.40558 0.13481 0.16216 0.0
C923 C 0.37298 0.15273 0.14563 0.0
C924 C 0.36261 0.12575 0.16923 0.0
C925 C 0.47178 0.22965 0.10838 0.0
N926 N 0.48441 0.2183 0.12143 0.0
C927 C 0.47167 0.25572 0.10682 0.0
C928 C 0.48461 0.27017 0.11872 0.0
C929 C 0.49746 0.25846 0.13198 0.0
C930 C 0.49714 0.23235 0.13316 0.0
C931 C 0.56049 0.19155 0.11628 0.0
C932 C 0.52954 0.16676 0.13904 0.0
C933 C 0.53445 0.19279 0.11475 0.0
N934 N 0.51935 0.18059 0.12612 0.0
C935 C 0.5555 0.16505 0.14094 0.0
C936 C 0.57104 0.17758 0.12948 0.0
C937 C 0.46589 0.12933 0.13098 0.0
C938 C 0.39081 0.16459 0.08608 0.0
C939 C 0.40023 0.13059 0.11198 0.0
C940 C 0.38942 0.12228 0.09676 0.0
C941 C 0.38476 0.13943 0.08373 0.0
N942 N 0.40615 0.1553 0.11417 0.0
C943 C 0.40152 0.17223 0.10148 0.0
H944 H 0.09002 0.43766 0.13907 0.0
H945 H 0.04587 0.44934 0.13893 0.0
H946 H 0.06594 0.52633 0.12939 0.0
H947 H 0.11034 0.51487 0.12931 0.0
H948 H 0.02792 0.51908 0.15499 0.0
H949 H 0.04759 0.49462 0.09736 0.0
H950 H 0.06475 0.46606 0.07558 0.0
H951 H 0.01221 0.40922 0.09052 0.0
H952 H 0.99503 0.4373 0.11262 0.0
H953 H 0.90983 0.56476 0.13047 0.0
H954 H 0.95402 0.5536 0.13089 0.0
H955 H 0.93445 0.47514 0.13093 0.0
H956 H 0.89 0.48617 0.12987 0.0
H957 H 0.97264 0.48292 0.11039 0.0
H958 H 0.95262 0.5061 0.16777 0.0
H959 H 0.93554 0.53338 0.19033 0.0
H960 H 0.98841 0.59083 0.17711 0.0
H961 H 0.00556 0.56403 0.15428 0.0
C962 C 0.08516 0.45711 0.13697 0.0
C963 C 0.10377 0.47528 0.134 0.0
C964 C 0.0599 0.46372 0.13691 0.0
C965 C 0.05275 0.48862 0.134 0.0
C966 C 0.07119 0.507 0.13162 0.0
C967 C 0.09651 0.50037 0.1315 0.0
C968 C 0.02594 0.49525 0.13289 0.0
C969 C 0.01583 0.51147 0.14514 0.0
C970 C 0.01022 0.48472 0.12027 0.0
C971 C 0.02018 0.46798 0.10675 0.0
C972 C 0.03981 0.47596 0.09609 0.0
C973 C 0.04954 0.45987 0.08368 0.0
C974 C 0.03962 0.43582 0.0817 0.0
C975 C 0.0199 0.42784 0.09209 0.0
C976 C 0.01015 0.44385 0.10455 0.0
C977 C 0.91484 0.54512 0.13051 0.0
C978 C 0.89634 0.52636 0.13022 0.0
C979 C 0.94017 0.53876 0.13083 0.0
C980 C 0.94754 0.51354 0.13128 0.0
C981 C 0.92916 0.49473 0.13065 0.0
C982 C 0.90378 0.50108 0.13008 0.0
C983 C 0.97443 0.50685 0.13251 0.0
C984 C 0.98462 0.49057 0.12028 0.0
C985 C 0.99018 0.51715 0.14527 0.0
C986 C 0.98023 0.53314 0.15921 0.0
C987 C 0.96051 0.52461 0.16961 0.0
C988 C 0.95082 0.53998 0.18245 0.0
C989 C 0.96084 0.56385 0.18512 0.0
C990 C 0.98065 0.57235 0.175 0.0
C991 C 0.99038 0.55707 0.16212 0.0
H992 H 0.95329 0.57573 0.19505 0.0
H993 H 0.04718 0.42337 0.07209 0.0
H994 H 0.50098 0.89222 0.6126 0.0
H995 H 0.51311 0.93609 0.61513 0.0
H996 H 0.46179 0.94523 0.65723 0.0
H997 H 0.4486 0.90151 0.65414 0.0
H998 H 0.45906 0.98415 0.63862 0.0
H999 H 0.52716 0.93937 0.66271 0.0
H1000 H 0.56003 0.90695 0.66406 0.0
H1001 H 0.59657 0.93945 0.6206 0.0
H1002 H 0.56367 0.97178 0.61874 0.0
H1003 H 0.55832 0.09056 0.65471 0.0
H1004 H 0.54573 0.04666 0.65743 0.0
H1005 H 0.49547 0.05542 0.61468 0.0
H1006 H 0.50706 0.09949 0.61246 0.0
H1007 H 0.54903 0.00759 0.63882 0.0
H1008 H 0.44477 0.02006 0.61818 0.0
H1009 H 0.41197 0.05253 0.61977 0.0
H1010 H 0.44788 0.0848 0.66358 0.0
H1011 H 0.48064 0.05228 0.66245 0.0
C1012 C 0.49231 0.90357 0.62242 0.0
C1013 C 0.47399 0.89343 0.63326 0.0
C1014 C 0.49936 0.92863 0.62392 0.0
C1015 C 0.48883 0.94387 0.63664 0.0
C1016 C 0.47027 0.93384 0.64736 0.0
C1017 C 0.46278 0.90886 0.64561 0.0
C1018 C 0.497 0.97034 0.63851 0.0
C1019 C 0.47873 0.98925 0.63877 0.0
C1020 C 0.52267 0.97705 0.63922 0.0
C1021 C 0.54284 0.95794 0.64053 0.0
C1022 C 0.54214 0.93955 0.65338 0.0
C1023 C 0.56077 0.92118 0.65424 0.0
C1024 C 0.58035 0.92114 0.64242 0.0
C1025 C 0.58139 0.93951 0.62975 0.0
C1026 C 0.56276 0.95787 0.62879 0.0
C1027 C 0.54456 0.0831 0.64592 0.0
C1028 C 0.53344 0.09851 0.63351 0.0
C1029 C 0.53741 0.058 0.64747 0.0
C1030 C 0.51926 0.04783 0.63649 0.0
C1031 C 0.50893 0.063 0.62364 0.0
C1032 C 0.51567 0.08817 0.62232 0.0
C1033 C 0.51109 0.02137 0.63837 0.0
C1034 C 0.52936 0.00247 0.63887 0.0
C1035 C 0.48542 0.01467 0.639 0.0
C1036 C 0.46528 0.03381 0.64013 0.0
C1037 C 0.44556 0.03395 0.62823 0.0
C1038 C 0.42699 0.0524 0.62904 0.0
C1039 C 0.42788 0.07075 0.64174 0.0
C1040 C 0.44725 0.07061 0.65373 0.0
C1041 C 0.46582 0.05217 0.65301 0.0
H1042 H 0.41354 0.08507 0.6423 0.0
H1043 H 0.59474 0.90688 0.6431 0.0
H1044 H 0.09005 0.56133 0.36281 0.0
H1045 H 0.04582 0.54993 0.36135 0.0
H1046 H 0.06577 0.47175 0.35914 0.0
H1047 H 0.11027 0.48289 0.36107 0.0
H1048 H 0.0268 0.49311 0.3335 0.0
H1049 H 0.0474 0.4848 0.39342 0.0
H1050 H 0.06568 0.49988 0.42042 0.0
H1051 H 0.01581 0.563 0.42004 0.0
H1052 H 0.99754 0.54853 0.39285 0.0
H1053 H 0.90668 0.4409 0.3495 0.0
H1054 H 0.9511 0.45124 0.34812 0.0
H1055 H 0.93552 0.52508 0.36784 0.0
H1056 H 0.89104 0.51478 0.3696 0.0
H1057 H 0.97319 0.50512 0.38457 0.0
H1058 H 0.95522 0.51853 0.32538 0.0
H1059 H 0.93867 0.50936 0.29668 0.0
H1060 H 0.98244 0.44191 0.29466 0.0
H1061 H 0.99967 0.45102 0.32324 0.0
C1062 C 0.08513 0.54171 0.36198 0.0
C1063 C 0.10369 0.52301 0.36219 0.0
C1064 C 0.05985 0.53526 0.36115 0.0
C1065 C 0.05269 0.51005 0.3602 0.0
C1066 C 0.07107 0.49131 0.35988 0.0
C1067 C 0.09641 0.49772 0.36106 0.0
C1068 C 0.02586 0.50344 0.36001 0.0
C1069 C 0.01508 0.49526 0.34471 0.0
C1070 C 0.01062 0.50721 0.37451 0.0
C1071 C 0.02129 0.51572 0.39101 0.0
C1072 C 0.04049 0.50202 0.39901 0.0
C1073 C 0.05083 0.51043 0.41436 0.0
C1074 C 0.04196 0.53242 0.42192 0.0
C1075 C 0.02268 0.54599 0.41416 0.0
C1076 C 0.01232 0.53768 0.39878 0.0
C1077 C 0.9126 0.45943 0.35345 0.0
C1078 C 0.89523 0.47693 0.3598 0.0
C1079 C 0.93805 0.46537 0.35253 0.0
C1080 C 0.94665 0.48899 0.35778 0.0
C1081 C 0.92931 0.50671 0.36376 0.0
C1082 C 0.90386 0.50078 0.36472 0.0
C1083 C 0.97386 0.49468 0.35798 0.0
C1084 C 0.9848 0.50275 0.37333 0.0
C1085 C 0.98918 0.49123 0.34344 0.0
C1086 C 0.97848 0.48529 0.32649 0.0
C1087 C 0.96116 0.50165 0.31885 0.0
C1088 C 0.95177 0.49654 0.30258 0.0
C1089 C 0.95932 0.47495 0.29391 0.0
C1090 C 0.97653 0.45858 0.30142 0.0
C1091 C 0.98625 0.46379 0.3176 0.0
H1092 H 0.9519 0.47096 0.28135 0.0
H1093 H 0.05 0.53891 0.4338 0.0
H1094 H 0.49029 0.89393 0.86558 0.0
H1095 H 0.47969 0.93843 0.86478 0.0
H1096 H 0.55788 0.9572 0.85957 0.0
H1097 H 0.56877 0.9127 0.86019 0.0
H1098 H 0.53155 0.98599 0.88452 0.0
H1099 H 0.52391 0.96073 0.8258 0.0
H1100 H 0.50865 0.93404 0.80233 0.0
H1101 H 0.43266 0.95296 0.81484 0.0
H1102 H 0.44746 0.97948 0.83858 0.0
H1103 H 0.51362 0.11408 0.86485 0.0
H1104 H 0.52676 0.07032 0.86375 0.0
H1105 H 0.44953 0.04713 0.85973 0.0
H1106 H 0.43626 0.09085 0.8602 0.0
H1107 H 0.47691 0.02048 0.83899 0.0
H1108 H 0.48277 0.04405 0.89785 0.0
H1109 H 0.49637 0.07001 0.92217 0.0
H1110 H 0.57329 0.05344 0.91081 0.0
H1111 H 0.56016 0.02768 0.88624 0.0
C1112 C 0.50529 0.90747 0.86427 0.0
C1113 C 0.53041 0.89971 0.86296 0.0
C1114 C 0.49916 0.93288 0.86378 0.0
C1115 C 0.51801 0.95101 0.86205 0.0
C1116 C 0.5431 0.94343 0.86092 0.0
C1117 C 0.54925 0.91799 0.86123 0.0
C1118 C 0.51143 0.97791 0.86137 0.0
C1119 C 0.51992 0.99369 0.87445 0.0
C1120 C 0.49572 0.98764 0.84845 0.0
C1121 C 0.48679 0.97191 0.83407 0.0
C1122 C 0.50394 0.95905 0.82364 0.0
C1123 C 0.49537 0.94397 0.81027 0.0
C1124 C 0.4697 0.94176 0.80712 0.0
C1125 C 0.45254 0.95467 0.81731 0.0
C1126 C 0.46101 0.96975 0.83071 0.0
C1127 C 0.4994 0.09969 0.86372 0.0
C1128 C 0.47385 0.10599 0.86279 0.0
C1129 C 0.50696 0.07465 0.86315 0.0
C1130 C 0.4891 0.0554 0.86197 0.0
C1131 C 0.46364 0.06166 0.86069 0.0
C1132 C 0.45608 0.0867 0.86103 0.0
C1133 C 0.49689 0.02872 0.86222 0.0
C1134 C 0.48862 0.01291 0.84906 0.0
C1135 C 0.51254 0.0189 0.87521 0.0
C1136 C 0.52049 0.03413 0.8901 0.0
C1137 C 0.50259 0.04607 0.90047 0.0
C1138 C 0.51022 0.06074 0.91431 0.0
C1139 C 0.53568 0.06342 0.91801 0.0
C1140 C 0.55357 0.05137 0.90791 0.0
C1141 C 0.54605 0.03672 0.89403 0.0
H1142 H 0.54155 0.0748 0.92872 0.0
H1143 H 0.46311 0.93007 0.79676 0.0
H1144 H 0.90706 0.56663 0.86363 0.0
H1145 H 0.95159 0.55675 0.86357 0.0
H1146 H 0.93433 0.47791 0.86687 0.0
H1147 H 0.88962 0.48767 0.86755 0.0
H1148 H 0.97143 0.48902 0.88773 0.0
H1149 H 0.95275 0.50632 0.82888 0.0
H1150 H 0.93622 0.53135 0.80495 0.0
H1151 H 0.98783 0.59059 0.81677 0.0
H1152 H 0.00443 0.56604 0.84094 0.0
H1153 H 0.08802 0.44024 0.86075 0.0
H1154 H 0.04408 0.4527 0.86094 0.0
H1155 H 0.06568 0.52996 0.86741 0.0
H1156 H 0.10989 0.51771 0.86749 0.0
H1157 H 0.02729 0.52093 0.84201 0.0
H1158 H 0.04603 0.50333 0.90069 0.0
H1159 H 0.06284 0.47799 0.92438 0.0
H1160 H 0.01133 0.41878 0.9123 0.0
H1161 H 0.99441 0.44367 0.88839 0.0
C1162 C 0.91266 0.54717 0.86435 0.0
C1163 C 0.89471 0.52794 0.86558 0.0
C1164 C 0.93818 0.54155 0.86423 0.0
C1165 C 0.94631 0.51656 0.86497 0.0
C1166 C 0.92848 0.49732 0.86628 0.0
C1167 C 0.90292 0.50294 0.86662 0.0
C1168 C 0.97342 0.51051 0.86448 0.0
C1169 C 0.98354 0.49574 0.87761 0.0
C1170 C 0.98939 0.51979 0.85149 0.0
C1171 C 0.97968 0.53443 0.83681 0.0
C1172 C 0.96047 0.52475 0.82644 0.0
C1173 C 0.9511 0.53884 0.81283 0.0
C1174 C 0.96092 0.56257 0.80937 0.0
C1175 C 0.98021 0.57221 0.81948 0.0
C1176 C 0.98963 0.55821 0.83313 0.0
C1177 C 0.08355 0.4599 0.8622 0.0
C1178 C 0.10253 0.47794 0.86427 0.0
C1179 C 0.0584 0.46696 0.86231 0.0
C1180 C 0.05174 0.49219 0.86432 0.0
C1181 C 0.07054 0.51038 0.86588 0.0
C1182 C 0.09575 0.50331 0.86599 0.0
C1183 C 0.02505 0.49935 0.86514 0.0
C1184 C 0.01508 0.5143 0.85211 0.0
C1185 C 0.0092 0.49019 0.87816 0.0
C1186 C 0.01911 0.47528 0.89266 0.0
C1187 C 0.03841 0.48483 0.903 0.0
C1188 C 0.04794 0.47057 0.91649 0.0
C1189 C 0.03821 0.44676 0.91981 0.0
C1190 C 0.01886 0.43721 0.9097 0.0
C1191 C 0.00927 0.45141 0.8962 0.0
H1192 H 0.04562 0.43573 0.93024 0.0
H1193 H 0.95363 0.57346 0.79884 0.0
H1194 H 0.55286 0.09585 0.33927 0.0
H1195 H 0.53982 0.05219 0.33576 0.0
H1196 H 0.48764 0.06059 0.37743 0.0
H1197 H 0.49977 0.10436 0.3805 0.0
H1198 H 0.54215 0.01285 0.35445 0.0
H1199 H 0.4367 0.02619 0.3724 0.0
H1200 H 0.40418 0.05873 0.36953 0.0
H1201 H 0.44301 0.09009 0.3266 0.0
H1202 H 0.47554 0.05747 0.32898 0.0
H1203 H 0.49289 0.89871 0.38164 0.0
H1204 H 0.50506 0.94254 0.37863 0.0
H1205 H 0.45533 0.95014 0.33549 0.0
H1206 H 0.44212 0.90656 0.33902 0.0
H1207 H 0.45209 0.98983 0.35316 0.0
H1208 H 0.52052 0.94395 0.33108 0.0
H1209 H 0.55306 0.91117 0.33071 0.0
H1210 H 0.5887 0.94482 0.37412 0.0
H1211 H 0.55608 0.97751 0.37502 0.0
C1212 C 0.53855 0.08837 0.34764 0.0
C1213 C 0.52715 0.10359 0.36005 0.0
C1214 C 0.53115 0.06342 0.34563 0.0
C1215 C 0.51241 0.05321 0.35611 0.0
C1216 C 0.50161 0.06821 0.36885 0.0
C1217 C 0.50865 0.09322 0.37066 0.0
C1218 C 0.50427 0.02679 0.35398 0.0
C1219 C 0.52247 0.00781 0.35406 0.0
C1220 C 0.47862 0.02021 0.35285 0.0
C1221 C 0.45867 0.03944 0.35097 0.0
C1222 C 0.43821 0.03989 0.36226 0.0
C1223 C 0.41979 0.05838 0.36073 0.0
C1224 C 0.42157 0.0765 0.34791 0.0
C1225 C 0.44169 0.07608 0.33653 0.0
C1226 C 0.46013 0.05759 0.33797 0.0
C1227 C 0.48453 0.90974 0.37153 0.0
C1228 C 0.46668 0.8992 0.3605 0.0
C1229 C 0.49161 0.93476 0.36975 0.0
C1230 C 0.48158 0.94953 0.35657 0.0
C1231 C 0.46342 0.93912 0.34571 0.0
C1232 C 0.4559 0.91421 0.34772 0.0
C1233 C 0.48994 0.97587 0.35431 0.0
C1234 C 0.47178 0.99484 0.35334 0.0
C1235 C 0.51567 0.98242 0.35391 0.0
C1236 C 0.53573 0.96314 0.35317 0.0
C1237 C 0.53523 0.94432 0.3406 0.0
C1238 C 0.55368 0.92574 0.3403 0.0
C1239 C 0.57292 0.92591 0.35238 0.0
C1240 C 0.57378 0.94471 0.36477 0.0
C1241 C 0.55532 0.96329 0.36518 0.0
H1242 H 0.58717 0.91149 0.35214 0.0
H1243 H 0.40733 0.09085 0.34679 0.0
H1244 H 0.88862 0.51583 0.63256 0.0
H1245 H 0.93283 0.52726 0.6344 0.0
H1246 H 0.95295 0.44902 0.63707 0.0
H1247 H 0.9088 0.43752 0.63605 0.0
H1248 H 0.9805 0.47377 0.65823 0.0
H1249 H 0.95767 0.48526 0.59928 0.0
H1250 H 0.93269 0.50226 0.57545 0.0
H1251 H 0.95258 0.57716 0.59019 0.0
H1252 H 0.97741 0.56062 0.61423 0.0
H1253 H 0.10791 0.48426 0.63138 0.0
H1254 H 0.06313 0.4749 0.63291 0.0
H1255 H 0.04699 0.55335 0.64011 0.0
H1256 H 0.09166 0.56296 0.63881 0.0
H1257 H 0.01768 0.52992 0.6146 0.0
H1258 H 0.04228 0.51728 0.67291 0.0
H1259 H 0.06803 0.49943 0.69603 0.0
H1260 H 0.04563 0.4252 0.68141 0.0
H1261 H 0.02004 0.44259 0.65802 0.0
C1262 C 0.90245 0.50105 0.63356 0.0
C1263 C 0.89517 0.47573 0.63398 0.0
C1264 C 0.92775 0.50761 0.63454 0.0
C1265 C 0.94629 0.48898 0.63552 0.0
C1266 C 0.93901 0.46374 0.63627 0.0
C1267 C 0.91372 0.45718 0.6356 0.0
C1268 C 0.97329 0.49568 0.63564 0.0
C1269 C 0.98864 0.48581 0.64856 0.0
C1270 C 0.98391 0.51179 0.62322 0.0
C1271 C 0.96919 0.52171 0.60865 0.0
C1272 C 0.95659 0.50536 0.59749 0.0
C1273 C 0.94248 0.51491 0.58394 0.0
C1274 C 0.941 0.54078 0.58135 0.0
C1275 C 0.95372 0.55713 0.59224 0.0
C1276 C 0.96782 0.54768 0.60582 0.0
C1277 C 0.09488 0.49955 0.63335 0.0
C1278 C 0.10342 0.5244 0.63488 0.0
C1279 C 0.06931 0.49413 0.63427 0.0
C1280 C 0.05184 0.51345 0.63664 0.0
C1281 C 0.06024 0.53822 0.63824 0.0
C1282 C 0.0858 0.54363 0.63752 0.0
C1283 C 0.02472 0.50785 0.63708 0.0
C1284 C 0.00942 0.51792 0.62426 0.0
C1285 C 0.01422 0.49173 0.64946 0.0
C1286 C 0.02942 0.48123 0.66361 0.0
C1287 C 0.043 0.49714 0.67453 0.0
C1288 C 0.05755 0.48711 0.6877 0.0
C1289 C 0.05852 0.46119 0.69016 0.0
C1290 C 0.04489 0.44526 0.67948 0.0
C1291 C 0.03034 0.4552 0.66627 0.0
H1292 H 0.06979 0.45346 0.70036 0.0
H1293 H 0.93003 0.54818 0.5709 0.0
H1294 H 0.44621 0.09247 0.15113 0.0
H1295 H 0.45953 0.04866 0.15278 0.0
H1296 H 0.51406 0.0621 0.11314 0.0
H1297 H 0.50175 0.10607 0.11211 0.0
H1298 H 0.45888 0.01138 0.13269 0.0
H1299 H 0.56473 0.0269 0.1174 0.0
H1300 H 0.59695 0.05939 0.12188 0.0
H1301 H 0.55638 0.08739 0.16515 0.0
H1302 H 0.52415 0.05483 0.16111 0.0
H1303 H 0.51023 0.89638 0.10816 0.0
H1304 H 0.49824 0.94049 0.10952 0.0
H1305 H 0.54478 0.95026 0.1541 0.0
H1306 H 0.55791 0.90648 0.15217 0.0
H1307 H 0.54903 0.98919 0.13598 0.0
H1308 H 0.47917 0.943 0.15626 0.0
H1309 H 0.44684 0.91 0.15561 0.0
H1310 H 0.41465 0.94288 0.11068 0.0
H1311 H 0.44707 0.97583 0.11087 0.0
C1312 C 0.46112 0.08605 0.14284 0.0
C1313 C 0.47319 0.10271 0.13166 0.0
C1314 C 0.46866 0.06101 0.14375 0.0
C1315 C 0.48814 0.05215 0.13332 0.0
C1316 C 0.49953 0.06863 0.1217 0.0
C1317 C 0.49241 0.09374 0.12106 0.0
C1318 C 0.49655 0.02569 0.13449 0.0
C1319 C 0.47858 0.00654 0.13348 0.0
C1320 C 0.52222 0.01929 0.13604 0.0
C1321 C 0.54191 0.03853 0.13885 0.0
C1322 C 0.56277 0.03987 0.12794 0.0
C1323 C 0.58102 0.05833 0.13039 0.0
C1324 C 0.57867 0.07549 0.14376 0.0
C1325 C 0.55814 0.07414 0.15477 0.0
C1326 C 0.53987 0.05569 0.1524 0.0
C1327 C 0.51797 0.908 0.1182 0.0
C1328 C 0.53483 0.89801 0.13014 0.0
C1329 C 0.51101 0.93316 0.11903 0.0
C1330 C 0.52011 0.94859 0.13217 0.0
C1331 C 0.53743 0.93874 0.14388 0.0
C1332 C 0.54488 0.91371 0.14279 0.0
C1333 C 0.5114 0.9749 0.13376 0.0
C1334 C 0.52932 0.99402 0.13531 0.0
C1335 C 0.48562 0.98122 0.13345 0.0
C1336 C 0.46568 0.9618 0.13352 0.0
C1337 C 0.46526 0.94314 0.1462 0.0
C1338 C 0.44693 0.92443 0.1459 0.0
C1339 C 0.42873 0.92432 0.13309 0.0
C1340 C 0.42877 0.94298 0.12059 0.0
C1341 C 0.44712 0.96169 0.12079 0.0
H1342 H 0.41458 0.9098 0.13287 0.0
H1343 H 0.59278 0.0898 0.1456 0.0
H1344 H 0.19679 0.56444 0.31079 0.0
H1345 H 0.2027 0.55385 0.28079 0.0
H1346 H 0.19735 0.47521 0.29301 0.0
H1347 H 0.19218 0.48557 0.32316 0.0
H1348 H 0.23158 0.48287 0.26847 0.0
H1349 H 0.14644 0.50799 0.27922 0.0
H1350 H 0.11369 0.53654 0.28992 0.0
H1351 H 0.1381 0.59348 0.25497 0.0
H1352 H 0.17131 0.5654 0.24427 0.0
H1353 H 0.18706 0.43506 0.18925 0.0
H1354 H 0.19297 0.44761 0.21892 0.0
H1355 H 0.20274 0.52442 0.20318 0.0
H1356 H 0.19682 0.51216 0.17344 0.0
H1357 H 0.16859 0.51935 0.22906 0.0
H1358 H 0.2521 0.49197 0.21683 0.0
H1359 H 0.28442 0.46265 0.20653 0.0
H1360 H 0.26203 0.40871 0.2442 0.0
H1361 H 0.22929 0.43756 0.25457 0.0
C1362 C 0.19713 0.54487 0.30715 0.0
C1363 C 0.19361 0.52586 0.31935 0.0
C1364 C 0.2005 0.53885 0.28999 0.0
C1365 C 0.19993 0.51376 0.28463 0.0
C1366 C 0.19775 0.4947 0.29687 0.0
C1367 C 0.19468 0.50067 0.31409 0.0
C1368 C 0.19977 0.50749 0.26622 0.0
C1369 C 0.2177 0.49067 0.25987 0.0
C1370 C 0.18188 0.518 0.25495 0.0
C1371 C 0.16151 0.53468 0.26106 0.0
C1372 C 0.1449 0.52665 0.27388 0.0
C1373 C 0.12627 0.54274 0.27994 0.0
C1374 C 0.12386 0.56683 0.27315 0.0
C1375 C 0.14002 0.57483 0.26023 0.0
C1376 C 0.15875 0.55883 0.25416 0.0
C1377 C 0.1907 0.45461 0.19204 0.0
C1378 C 0.19139 0.4726 0.17892 0.0
C1379 C 0.19418 0.46171 0.20902 0.0
C1380 C 0.19843 0.48691 0.21322 0.0
C1381 C 0.1995 0.50487 0.20018 0.0
C1382 C 0.19616 0.49778 0.18318 0.0
C1383 C 0.20036 0.49469 0.2313 0.0
C1384 C 0.18264 0.51172 0.23761 0.0
C1385 C 0.2183 0.4842 0.24251 0.0
C1386 C 0.23808 0.46686 0.23638 0.0
C1387 C 0.25392 0.47378 0.22284 0.0
C1388 C 0.27234 0.45725 0.217 0.0
C1389 C 0.27523 0.43381 0.22468 0.0
C1390 C 0.25975 0.42686 0.23825 0.0
C1391 C 0.24127 0.44331 0.24412 0.0
H1392 H 0.28951 0.42104 0.22014 0.0
H1393 H 0.10943 0.57927 0.27788 0.0
H1394 H 0.49049 0.18297 0.67328 0.0
H1395 H 0.47752 0.1887 0.70288 0.0
H1396 H 0.5549 0.19547 0.71815 0.0
H1397 H 0.5681 0.18909 0.6887 0.0
H1398 H 0.53146 0.16463 0.73856 0.0
H1399 H 0.51487 0.24665 0.71669 0.0
H1400 H 0.49705 0.27774 0.69684 0.0
H1401 H 0.42271 0.25358 0.70977 0.0
H1402 H 0.44009 0.22207 0.72952 0.0
H1403 H 0.50795 0.20171 0.82308 0.0
H1404 H 0.52035 0.20557 0.79325 0.0
H1405 H 0.44487 0.18856 0.77742 0.0
H1406 H 0.43212 0.18473 0.80724 0.0
H1407 H 0.4678 0.22636 0.75761 0.0
H1408 H 0.48524 0.14294 0.77832 0.0
H1409 H 0.50339 0.11266 0.79862 0.0
H1410 H 0.57712 0.14075 0.78789 0.0
H1411 H 0.55933 0.17149 0.76771 0.0
C1412 C 0.50477 0.18586 0.6829 0.0
C1413 C 0.53035 0.18549 0.6786 0.0
C1414 C 0.4973 0.18927 0.69982 0.0
C1415 C 0.51523 0.19275 0.71272 0.0
C1416 C 0.54074 0.19278 0.70841 0.0
C1417 C 0.54824 0.18917 0.69154 0.0
C1418 C 0.5075 0.19512 0.73082 0.0
C1419 C 0.51785 0.17844 0.74274 0.0
C1420 C 0.48934 0.21276 0.73624 0.0
C1421 C 0.4788 0.23184 0.72448 0.0
C1422 C 0.49472 0.24784 0.71521 0.0
C1423 C 0.4847 0.26555 0.70399 0.0
C1424 C 0.45877 0.26759 0.70201 0.0
C1425 C 0.4428 0.25196 0.7113 0.0
C1426 C 0.45272 0.23419 0.72253 0.0
C1427 C 0.49385 0.19908 0.81331 0.0
C1428 C 0.46908 0.19259 0.81759 0.0
C1429 C 0.501 0.20131 0.79626 0.0
C1430 C 0.48357 0.19706 0.78318 0.0
C1431 C 0.45857 0.19189 0.78737 0.0
C1432 C 0.45138 0.18959 0.80442 0.0
C1433 C 0.49188 0.19598 0.7652 0.0
C1434 C 0.48155 0.21276 0.75336 0.0
C1435 C 0.51016 0.17852 0.75981 0.0
C1436 C 0.52094 0.15966 0.77163 0.0
C1437 C 0.50531 0.14275 0.78036 0.0
C1438 C 0.51553 0.12551 0.79184 0.0
C1439 C 0.54139 0.12483 0.79457 0.0
C1440 C 0.55709 0.14132 0.78578 0.0
C1441 C 0.54695 0.15865 0.77431 0.0
H1442 H 0.54927 0.11148 0.80348 0.0
H1443 H 0.45104 0.28132 0.69331 0.0
H1444 H 0.7952 0.49176 0.17426 0.0
H1445 H 0.78915 0.48064 0.20423 0.0
H1446 H 0.82561 0.54912 0.2196 0.0
H1447 H 0.83166 0.56055 0.18972 0.0
H1448 H 0.843 0.50679 0.23706 0.0
H1449 H 0.76481 0.54617 0.22236 0.0
H1450 H 0.72668 0.55244 0.20513 0.0
H1451 H 0.70283 0.47742 0.21644 0.0
H1452 H 0.74105 0.47057 0.23354 0.0
H1453 H 0.80738 0.51477 0.32307 0.0
H1454 H 0.802 0.52552 0.29301 0.0
H1455 H 0.78973 0.44774 0.28085 0.0
H1456 H 0.79561 0.43658 0.31088 0.0
H1457 H 0.75836 0.49393 0.26199 0.0
H1458 H 0.83971 0.45231 0.27142 0.0
H1459 H 0.87511 0.44567 0.29116 0.0
H1460 H 0.8909 0.52456 0.29071 0.0
H1461 H 0.85531 0.53167 0.2711 0.0
C1462 C 0.8019 0.50451 0.18399 0.0
C1463 C 0.81383 0.52712 0.17957 0.0
C1464 C 0.79837 0.49814 0.2011 0.0
C1465 C 0.80681 0.51415 0.21407 0.0
C1466 C 0.81895 0.53655 0.20974 0.0
C1467 C 0.82229 0.54307 0.19265 0.0
C1468 C 0.80319 0.50745 0.2322 0.0
C1469 C 0.82447 0.50417 0.24247 0.0
C1470 C 0.77903 0.50363 0.23923 0.0
C1471 C 0.75592 0.50777 0.22909 0.0
C1472 C 0.75154 0.53094 0.22106 0.0
C1473 C 0.72989 0.53461 0.21134 0.0
C1474 C 0.71237 0.51532 0.20965 0.0
C1475 C 0.71643 0.49233 0.21774 0.0
C1476 C 0.73808 0.48855 0.22746 0.0
C1477 C 0.803 0.49997 0.31411 0.0
C1478 C 0.80234 0.47477 0.31931 0.0
C1479 C 0.79975 0.5062 0.29696 0.0
C1480 C 0.79539 0.4874 0.28484 0.0
C1481 C 0.79285 0.46247 0.29013 0.0
C1482 C 0.79649 0.45614 0.30724 0.0
C1483 C 0.79809 0.49329 0.26658 0.0
C1484 C 0.77678 0.49645 0.2564 0.0
C1485 C 0.82214 0.49683 0.25952 0.0
C1486 C 0.84493 0.4925 0.26987 0.0
C1487 C 0.85086 0.4682 0.27547 0.0
C1488 C 0.87086 0.46436 0.28666 0.0
C1489 C 0.88517 0.48468 0.29223 0.0
C1490 C 0.87977 0.50885 0.28639 0.0
C1491 C 0.85971 0.51279 0.27521 0.0
H1492 H 0.90035 0.48166 0.30113 0.0
H1493 H 0.69562 0.51819 0.20212 0.0
H1494 H 0.48943 0.8128 0.82088 0.0
H1495 H 0.47784 0.80706 0.79103 0.0
H1496 H 0.55593 0.80747 0.7768 0.0
H1497 H 0.5677 0.8139 0.80655 0.0
H1498 H 0.53021 0.83661 0.75632 0.0
H1499 H 0.52049 0.75284 0.77737 0.0
H1500 H 0.50485 0.72006 0.79681 0.0
H1501 H 0.42908 0.73798 0.78302 0.0
H1502 H 0.44425 0.77113 0.76368 0.0
H1503 H 0.51169 0.80001 0.6711 0.0
H1504 H 0.52402 0.79642 0.70098 0.0
H1505 H 0.447 0.80528 0.71643 0.0
H1506 H 0.43434 0.80882 0.68659 0.0
H1507 H 0.47301 0.76966 0.73595 0.0
H1508 H 0.48268 0.8547 0.7164 0.0
H1509 H 0.49802 0.88757 0.69691 0.0
H1510 H 0.57402 0.8669 0.70806 0.0
H1511 H 0.55911 0.8336 0.72742 0.0
C1512 C 0.50418 0.81152 0.81143 0.0
C1513 C 0.52951 0.81385 0.81613 0.0
C1514 C 0.49751 0.8081 0.79437 0.0
C1515 C 0.51603 0.80654 0.7817 0.0
C1516 C 0.54132 0.80861 0.78637 0.0
C1517 C 0.54801 0.81226 0.8034 0.0
C1518 C 0.50902 0.80385 0.76348 0.0
C1519 C 0.51806 0.82168 0.75185 0.0
C1520 C 0.49268 0.78474 0.75769 0.0
C1521 C 0.48351 0.76462 0.76918 0.0
C1522 C 0.50048 0.74991 0.77856 0.0
C1523 C 0.49171 0.73124 0.78955 0.0
C1524 C 0.46599 0.72697 0.79117 0.0
C1525 C 0.449 0.74132 0.78176 0.0
C1526 C 0.45768 0.76003 0.77077 0.0
C1527 C 0.49727 0.80086 0.6808 0.0
C1528 C 0.47204 0.80503 0.67642 0.0
C1529 C 0.50438 0.79881 0.69787 0.0
C1530 C 0.48644 0.80091 0.71087 0.0
C1531 C 0.46111 0.80365 0.70655 0.0
C1532 C 0.45395 0.80578 0.68948 0.0
C1533 C 0.49433 0.8023 0.72893 0.0
C1534 C 0.48536 0.78436 0.74048 0.0
C1535 C 0.51075 0.82129 0.73469 0.0
C1536 C 0.51977 0.84151 0.72323 0.0
C1537 C 0.50266 0.85704 0.7146 0.0
C1538 C 0.51128 0.87576 0.70359 0.0
C1539 C 0.53698 0.87929 0.70123 0.0
C1540 C 0.55412 0.86412 0.70989 0.0
C1541 C 0.5456 0.84533 0.72089 0.0
H1542 H 0.54361 0.89383 0.69274 0.0
H1543 H 0.45923 0.71252 0.7997 0.0
H1544 H 0.81362 0.5672 0.80884 0.0
H1545 H 0.80906 0.55599 0.77877 0.0
H1546 H 0.80012 0.47831 0.79266 0.0
H1547 H 0.80469 0.4892 0.82272 0.0
H1548 H 0.83492 0.48522 0.76737 0.0
H1549 H 0.75058 0.51158 0.77973 0.0
H1550 H 0.71798 0.5407 0.78991 0.0
H1551 H 0.74052 0.5949 0.75246 0.0
H1552 H 0.77353 0.56626 0.74222 0.0
H1553 H 0.80415 0.43703 0.68726 0.0
H1554 H 0.79965 0.44919 0.71708 0.0
H1555 H 0.8038 0.52716 0.70282 0.0
H1556 H 0.80758 0.51521 0.67284 0.0
H1557 H 0.77077 0.52048 0.72831 0.0
H1558 H 0.85545 0.49636 0.71651 0.0
H1559 H 0.88848 0.46832 0.7056 0.0
H1560 H 0.86691 0.41186 0.74176 0.0
H1561 H 0.83343 0.43941 0.75268 0.0
C1562 C 0.81049 0.54774 0.80554 0.0
C1563 C 0.80958 0.5291 0.81823 0.0
C1564 C 0.8078 0.5414 0.78835 0.0
C1565 C 0.80413 0.51634 0.78353 0.0
C1566 C 0.80293 0.49776 0.79614 0.0
C1567 C 0.8055 0.50406 0.81333 0.0
C1568 C 0.80267 0.5093 0.7653 0.0
C1569 C 0.82066 0.49263 0.75888 0.0
C1570 C 0.78454 0.51962 0.75416 0.0
C1571 C 0.76469 0.53685 0.76031 0.0
C1572 C 0.74874 0.52979 0.77376 0.0
C1573 C 0.73016 0.5462 0.77953 0.0
C1574 C 0.72723 0.56964 0.77186 0.0
C1575 C 0.74284 0.57674 0.7584 0.0
C1576 C 0.76148 0.56042 0.7526 0.0
C1577 C 0.80383 0.45679 0.69041 0.0
C1578 C 0.80662 0.47514 0.67768 0.0
C1579 C 0.80129 0.4637 0.70748 0.0
C1580 C 0.80195 0.48906 0.71219 0.0
C1581 C 0.80337 0.50748 0.69946 0.0
C1582 C 0.80563 0.50059 0.68233 0.0
C1583 C 0.80287 0.49622 0.73044 0.0
C1584 C 0.78493 0.51299 0.73683 0.0
C1585 C 0.82124 0.48624 0.74156 0.0
C1586 C 0.84178 0.46987 0.73531 0.0
C1587 C 0.85766 0.47791 0.72208 0.0
C1588 C 0.87646 0.4621 0.71589 0.0
C1589 C 0.87975 0.4383 0.72296 0.0
C1590 C 0.86431 0.43029 0.73628 0.0
C1591 C 0.84542 0.446 0.74248 0.0
H1592 H 0.8943 0.42608 0.71814 0.0
H1593 H 0.71281 0.58229 0.77628 0.0
H1594 H 0.50717 0.8067 0.3226 0.0
H1595 H 0.52058 0.80242 0.29299 0.0
H1596 H 0.44429 0.81199 0.27608 0.0
H1597 H 0.43053 0.81608 0.30565 0.0
H1598 H 0.46975 0.77559 0.25761 0.0
H1599 H 0.48187 0.86085 0.2761 0.0
H1600 H 0.49784 0.89378 0.29531 0.0
H1601 H 0.57336 0.87018 0.28545 0.0
H1602 H 0.55781 0.83682 0.26638 0.0
H1603 H 0.49125 0.81509 0.17225 0.0
H1604 H 0.47809 0.81092 0.20194 0.0
H1605 H 0.55545 0.80834 0.21783 0.0
H1606 H 0.56882 0.8131 0.18828 0.0
H1607 H 0.53003 0.83968 0.23712 0.0
H1608 H 0.5181 0.75549 0.21745 0.0
H1609 H 0.50206 0.72252 0.19831 0.0
H1610 H 0.42647 0.74372 0.21026 0.0
H1611 H 0.44206 0.77707 0.22929 0.0
C1612 C 0.49314 0.80762 0.31264 0.0
C1613 C 0.46779 0.81202 0.31652 0.0
C1614 C 0.50087 0.80519 0.29572 0.0
C1615 C 0.48345 0.80721 0.28239 0.0
C1616 C 0.458 0.8104 0.28622 0.0
C1617 C 0.45022 0.81285 0.30313 0.0
C1618 C 0.49197 0.80773 0.26445 0.0
C1619 C 0.48276 0.7897 0.25305 0.0
C1620 C 0.50926 0.82592 0.25866 0.0
C1621 C 0.51866 0.84619 0.26993 0.0
C1622 C 0.50188 0.86257 0.27812 0.0
C1623 C 0.51085 0.88132 0.28897 0.0
C1624 C 0.53659 0.88404 0.29162 0.0
C1625 C 0.55342 0.86803 0.2834 0.0
C1626 C 0.54454 0.84921 0.27256 0.0
C1627 C 0.50549 0.81347 0.18204 0.0
C1628 C 0.5311 0.81449 0.17787 0.0
C1629 C 0.49792 0.81097 0.199 0.0
C1630 C 0.5158 0.80907 0.21208 0.0
C1631 C 0.54135 0.80978 0.20794 0.0
C1632 C 0.54894 0.81247 0.19101 0.0
C1633 C 0.50793 0.80743 0.23017 0.0
C1634 C 0.51717 0.82539 0.24164 0.0
C1635 C 0.4907 0.78915 0.23598 0.0
C1636 C 0.48126 0.76893 0.22469 0.0
C1637 C 0.49806 0.75324 0.21591 0.0
C1638 C 0.48904 0.73446 0.20509 0.0
C1639 C 0.46326 0.73107 0.20304 0.0
C1640 C 0.44644 0.74639 0.21184 0.0
C1641 C 0.45535 0.76521 0.22266 0.0
H1642 H 0.45632 0.71653 0.19465 0.0
H1643 H 0.5435 0.8986 0.3 0.0
H1644 H 0.18 0.43676 0.8084 0.0
H1645 H 0.18622 0.4487 0.77869 0.0
H1646 H 0.20685 0.52337 0.79437 0.0
H1647 H 0.20037 0.51178 0.82418 0.0
H1648 H 0.17242 0.52397 0.7692 0.0
H1649 H 0.25077 0.48191 0.77955 0.0
H1650 H 0.27797 0.44694 0.78856 0.0
H1651 H 0.2444 0.3993 0.75081 0.0
H1652 H 0.21674 0.43382 0.74174 0.0
H1653 H 0.2011 0.56317 0.68583 0.0
H1654 H 0.20686 0.55285 0.71593 0.0
H1655 H 0.19154 0.47508 0.70501 0.0
H1656 H 0.18681 0.48506 0.67482 0.0
H1657 H 0.22645 0.47802 0.72831 0.0
H1658 H 0.14573 0.5161 0.71985 0.0
H1659 H 0.1171 0.54933 0.70994 0.0
H1660 H 0.15228 0.60195 0.74376 0.0
H1661 H 0.18142 0.56911 0.75366 0.0
C1662 C 0.1861 0.45568 0.8056 0.0
C1663 C 0.18965 0.47331 0.81873 0.0
C1664 C 0.18976 0.46243 0.78857 0.0
C1665 C 0.19724 0.48685 0.78433 0.0
C1666 C 0.20113 0.5044 0.79738 0.0
C1667 C 0.19745 0.4977 0.81442 0.0
C1668 C 0.19959 0.49443 0.76621 0.0
C1669 C 0.18459 0.51423 0.76032 0.0
C1670 C 0.21491 0.48122 0.75455 0.0
C1671 C 0.23155 0.46043 0.76004 0.0
C1672 C 0.24904 0.46392 0.77326 0.0
C1673 C 0.26457 0.44418 0.77836 0.0
C1674 C 0.26288 0.42092 0.77026 0.0
C1675 C 0.24568 0.41733 0.75706 0.0
C1676 C 0.23009 0.43698 0.75193 0.0
C1677 C 0.19922 0.54383 0.68981 0.0
C1678 C 0.19316 0.52498 0.67797 0.0
C1679 C 0.20245 0.53797 0.70703 0.0
C1680 C 0.19906 0.51328 0.71279 0.0
C1681 C 0.19415 0.49427 0.70088 0.0
C1682 C 0.19135 0.50004 0.68361 0.0
C1683 C 0.19917 0.50742 0.73129 0.0
C1684 C 0.21451 0.48794 0.73724 0.0
C1685 C 0.18384 0.52061 0.74298 0.0
C1686 C 0.16592 0.54022 0.73737 0.0
C1687 C 0.14744 0.53479 0.72511 0.0
C1688 C 0.13113 0.55355 0.71949 0.0
C1689 C 0.13292 0.57775 0.72618 0.0
C1690 C 0.15095 0.5832 0.73857 0.0
C1691 C 0.16736 0.56452 0.74419 0.0
H1692 H 0.1203 0.59226 0.7218 0.0
H1693 H 0.27495 0.40569 0.77416 0.0
H1694 H 0.48551 0.19206 0.32391 0.0
H1695 H 0.47162 0.19657 0.29437 0.0
H1696 H 0.5485 0.19974 0.27764 0.0
H1697 H 0.56268 0.19519 0.30709 0.0
H1698 H 0.51666 0.23374 0.26034 0.0
H1699 H 0.52053 0.14627 0.2757 0.0
H1700 H 0.5108 0.10976 0.29381 0.0
H1701 H 0.43224 0.12004 0.28428 0.0
H1702 H 0.44151 0.15691 0.26633 0.0
H1703 H 0.5078 0.1951 0.17401 0.0
H1704 H 0.51779 0.20034 0.20417 0.0
H1705 H 0.44022 0.18832 0.21723 0.0
H1706 H 0.43004 0.18262 0.18714 0.0
H1707 H 0.47008 0.1609 0.23699 0.0
H1708 H 0.46639 0.24661 0.2196 0.0
H1709 H 0.47626 0.28332 0.20173 0.0
H1710 H 0.55404 0.27686 0.215 0.0
H1711 H 0.5447 0.23986 0.23276 0.0
C1712 C 0.49951 0.19405 0.314 0.0
C1713 C 0.52523 0.19296 0.31787 0.0
C1714 C 0.49151 0.19662 0.29713 0.0
C1715 C 0.50906 0.19823 0.28386 0.0
C1716 C 0.53469 0.19851 0.28773 0.0
C1717 C 0.54273 0.19577 0.30457 0.0
C1718 C 0.50079 0.19757 0.26586 0.0
C1719 C 0.50663 0.21779 0.25515 0.0
C1720 C 0.4873 0.17691 0.25927 0.0
C1721 C 0.48169 0.1545 0.26982 0.0
C1722 C 0.50117 0.14086 0.27757 0.0
C1723 C 0.49574 0.12009 0.28779 0.0
C1724 C 0.47091 0.11262 0.29022 0.0
C1725 C 0.45146 0.12587 0.2824 0.0
C1726 C 0.45679 0.1467 0.2722 0.0
C1727 C 0.49279 0.19376 0.18325 0.0
C1728 C 0.4681 0.18841 0.1781 0.0
C1729 C 0.49853 0.19687 0.20051 0.0
C1730 C 0.4797 0.19495 0.21294 0.0
C1731 C 0.45503 0.1899 0.20785 0.0
C1732 C 0.44925 0.18671 0.19061 0.0
C1733 C 0.48598 0.1971 0.23131 0.0
C1734 C 0.47985 0.17705 0.24213 0.0
C1735 C 0.49918 0.21794 0.23797 0.0
C1736 C 0.50486 0.24032 0.2274 0.0
C1737 C 0.48563 0.2529 0.21861 0.0
C1738 C 0.49113 0.27378 0.20852 0.0
C1739 C 0.51577 0.28238 0.2072 0.0
C1740 C 0.53496 0.27016 0.21602 0.0
C1741 C 0.52957 0.24924 0.22612 0.0
H1742 H 0.51999 0.29855 0.19938 0.0
H1743 H 0.46676 0.09651 0.29812 0.0
H1744 H 0.13157 0.4503 0.92948 0.0
H1745 H 0.13119 0.45288 0.96054 0.0
H1746 H 0.19084 0.50738 0.959 0.0
H1747 H 0.19154 0.50478 0.92781 0.0
H1748 H 0.19925 0.47052 0.98267 0.0
H1749 H 0.1321 0.52603 0.96744 0.0
H1750 H 0.09329 0.53763 0.95232 0.0
H1751 H 0.05352 0.4789 0.97816 0.0
H1752 H 0.0922 0.46672 0.99328 0.0
H1753 H 0.19127 0.5034 0.06999 0.0
H1754 H 0.19021 0.50643 0.03888 0.0
H1755 H 0.13022 0.45231 0.03722 0.0
H1756 H 0.13099 0.44927 0.06832 0.0
H1757 H 0.12214 0.49118 0.01513 0.0
H1758 H 0.18836 0.43405 0.02904 0.0
H1759 H 0.22691 0.42034 0.04364 0.0
H1760 H 0.26804 0.48002 0.01986 0.0
H1761 H 0.2296 0.49435 0.00532 0.0
C1762 C 0.14455 0.46296 0.93571 0.0
C1763 C 0.16153 0.47743 0.92617 0.0
C1764 C 0.14424 0.46445 0.95347 0.0
C1765 C 0.1608 0.48051 0.96204 0.0
C1766 C 0.17786 0.49492 0.95259 0.0
C1767 C 0.17817 0.49347 0.93479 0.0
C1768 C 0.1606 0.48182 0.98091 0.0
C1769 C 0.18254 0.47549 0.98978 0.0
C1770 C 0.13856 0.48764 0.99013 0.0
C1771 C 0.11511 0.49534 0.9814 0.0
C1772 C 0.11511 0.51551 0.96984 0.0
C1773 C 0.09313 0.52219 0.96127 0.0
C1774 C 0.07097 0.50896 0.96424 0.0
C1775 C 0.07071 0.48911 0.97586 0.0
C1776 C 0.09265 0.48233 0.98446 0.0
C1777 C 0.17775 0.49224 0.06302 0.0
C1778 C 0.16131 0.47598 0.07162 0.0
C1779 C 0.1772 0.49397 0.04525 0.0
C1780 C 0.16029 0.47942 0.03576 0.0
C1781 C 0.14341 0.4637 0.04432 0.0
C1782 C 0.14396 0.46191 0.06209 0.0
C1783 C 0.16081 0.4799 0.01687 0.0
C1784 C 0.13893 0.48647 0.00801 0.0
C1785 C 0.18285 0.47413 0.00764 0.0
C1786 C 0.20604 0.46544 0.01624 0.0
C1787 C 0.20558 0.44438 0.02703 0.0
C1788 C 0.22741 0.43648 0.03528 0.0
C1789 C 0.24989 0.44935 0.03272 0.0
C1790 C 0.2506 0.4701 0.02186 0.0
C1791 C 0.22879 0.47812 0.01361 0.0
H1792 H 0.26678 0.4432 0.03912 0.0
H1793 H 0.05399 0.51412 0.95756 0.0
H1794 H 0.49608 0.18271 0.42705 0.0
H1795 H 0.49483 0.18166 0.45822 0.0
H1796 H 0.56231 0.13715 0.4589 0.0
H1797 H 0.56341 0.13764 0.42776 0.0
H1798 H 0.52916 0.11966 0.48139 0.0
H1799 H 0.56344 0.20035 0.46697 0.0
H1800 H 0.56387 0.24139 0.45251 0.0
H1801 H 0.49575 0.26198 0.47803 0.0
H1802 H 0.49471 0.2209 0.49246 0.0
H1803 H 0.56694 0.13754 0.56687 0.0
H1804 H 0.56432 0.13746 0.5358 0.0
H1805 H 0.4967 0.1816 0.5382 0.0
H1806 H 0.49943 0.18219 0.56937 0.0
H1807 H 0.52781 0.19914 0.51422 0.0
H1808 H 0.49455 0.11874 0.52952 0.0
H1809 H 0.49447 0.07767 0.54393 0.0
H1810 H 0.56105 0.0565 0.51681 0.0
H1811 H 0.56175 0.09759 0.5024 0.0
C1812 C 0.51062 0.17263 0.43384 0.0
C1813 C 0.52989 0.16032 0.42495 0.0
C1814 C 0.50992 0.17213 0.45165 0.0
C1815 C 0.52867 0.1596 0.46089 0.0
C1816 C 0.54766 0.14692 0.45202 0.0
C1817 C 0.54828 0.14727 0.43422 0.0
C1818 C 0.52872 0.15995 0.4798 0.0
C1819 C 0.52914 0.13703 0.48857 0.0
C1820 C 0.5281 0.18262 0.48916 0.0
C1821 C 0.52887 0.20746 0.48067 0.0
C1822 C 0.54847 0.21357 0.46941 0.0
C1823 C 0.54883 0.23684 0.46123 0.0
C1824 C 0.52982 0.25425 0.46432 0.0
C1825 C 0.51045 0.24846 0.47564 0.0
C1826 C 0.50997 0.22519 0.48383 0.0
C1827 C 0.55143 0.14716 0.56082 0.0
C1828 C 0.53329 0.15975 0.57059 0.0
C1829 C 0.54993 0.14703 0.54304 0.0
C1830 C 0.53011 0.15921 0.53469 0.0
C1831 C 0.51211 0.17202 0.5444 0.0
C1832 C 0.51366 0.17228 0.5622 0.0
C1833 C 0.52842 0.15884 0.51582 0.0
C1834 C 0.5277 0.18175 0.50705 0.0
C1835 C 0.52882 0.13616 0.50645 0.0
C1836 C 0.52831 0.11133 0.51498 0.0
C1837 C 0.50927 0.10539 0.52671 0.0
C1838 C 0.5091 0.0821 0.53487 0.0
C1839 C 0.52777 0.06451 0.53132 0.0
C1840 C 0.54661 0.07015 0.51956 0.0
C1841 C 0.54689 0.09343 0.51138 0.0
H1842 H 0.52761 0.04649 0.53765 0.0
H1843 H 0.53013 0.27226 0.45796 0.0
H1844 H 0.80544 0.49468 0.07055 0.0
H1845 H 0.8041 0.49206 0.03939 0.0
H1846 H 0.85676 0.55318 0.0359 0.0
H1847 H 0.85794 0.55621 0.06692 0.0
H1848 H 0.81874 0.55949 0.0141 0.0
H1849 H 0.87516 0.49283 0.02948 0.0
H1850 H 0.88803 0.45433 0.0445 0.0
H1851 H 0.82812 0.41368 0.02059 0.0
H1852 H 0.81468 0.45206 0.0056 0.0
H1853 H 0.86117 0.55138 0.93002 0.0
H1854 H 0.85971 0.54895 0.96103 0.0
H1855 H 0.8039 0.49066 0.95794 0.0
H1856 H 0.80547 0.49268 0.92671 0.0
H1857 H 0.83996 0.48145 0.98283 0.0
H1858 H 0.78552 0.54849 0.96594 0.0
H1859 H 0.77497 0.58689 0.94999 0.0
H1860 H 0.83274 0.62706 0.97654 0.0
H1861 H 0.84395 0.58877 0.99245 0.0
C1862 C 0.81678 0.50752 0.06314 0.0
C1863 C 0.83188 0.52558 0.0712 0.0
C1864 C 0.81604 0.50594 0.04535 0.0
C1865 C 0.83049 0.5223 0.03535 0.0
C1866 C 0.84546 0.5404 0.04338 0.0
C1867 C 0.84619 0.54201 0.06113 0.0
C1868 C 0.82995 0.52084 0.01649 0.0
C1869 C 0.82358 0.54248 0.00728 0.0
C1870 C 0.83567 0.49847 0.0076 0.0
C1871 C 0.84374 0.47538 0.01657 0.0
C1872 C 0.8646 0.47573 0.02754 0.0
C1873 C 0.87202 0.45392 0.03603 0.0
C1874 C 0.85885 0.43159 0.03355 0.0
C1875 C 0.83828 0.43101 0.02253 0.0
C1876 C 0.83076 0.45277 0.01402 0.0
C1877 C 0.8487 0.53788 0.93588 0.0
C1878 C 0.8333 0.52233 0.92591 0.0
C1879 C 0.84785 0.53657 0.95362 0.0
C1880 C 0.83143 0.51989 0.96174 0.0
C1881 C 0.81663 0.50371 0.95187 0.0
C1882 C 0.8175 0.50495 0.93406 0.0
C1883 C 0.82915 0.52017 0.98053 0.0
C1884 C 0.8349 0.49836 0.9897 0.0
C1885 C 0.82296 0.5424 0.98942 0.0
C1886 C 0.81568 0.5657 0.98031 0.0
C1887 C 0.79604 0.56548 0.96833 0.0
C1888 C 0.78995 0.58723 0.95929 0.0
C1889 C 0.8032 0.60939 0.96223 0.0
C1890 C 0.8225 0.60988 0.97428 0.0
C1891 C 0.82871 0.58816 0.98332 0.0
H1892 H 0.7985 0.62619 0.95518 0.0
H1893 H 0.86463 0.41472 0.04013 0.0
H1894 H 0.44829 0.86806 0.56728 0.0
H1895 H 0.44927 0.86911 0.53621 0.0
H1896 H 0.50304 0.80876 0.53586 0.0
H1897 H 0.50253 0.80783 0.5671 0.0
H1898 H 0.51408 0.84536 0.51216 0.0
H1899 H 0.44268 0.79633 0.529 0.0
H1900 H 0.40396 0.78873 0.54535 0.0
H1901 H 0.36881 0.85148 0.52081 0.0
H1902 H 0.4075 0.85974 0.50453 0.0
H1903 H 0.49644 0.81084 0.42541 0.0
H1904 H 0.49928 0.81075 0.45652 0.0
H1905 H 0.44241 0.86807 0.45911 0.0
H1906 H 0.43907 0.86795 0.42804 0.0
H1907 H 0.43352 0.83209 0.48182 0.0
H1908 H 0.50438 0.8819 0.46541 0.0
H1909 H 0.54343 0.89132 0.44988 0.0
H1910 H 0.57956 0.82859 0.47378 0.0
H1911 H 0.5406 0.81857 0.48928 0.0
C1912 C 0.46049 0.85511 0.56064 0.0
C1913 C 0.47519 0.83772 0.56965 0.0
C1914 C 0.46098 0.85571 0.54287 0.0
C1915 C 0.47593 0.83876 0.53376 0.0
C1916 C 0.49132 0.82195 0.54269 0.0
C1917 C 0.49093 0.82139 0.56052 0.0
C1918 C 0.47464 0.83796 0.51492 0.0
C1919 C 0.49657 0.84211 0.50549 0.0
C1920 C 0.45164 0.83423 0.5063 0.0
C1921 C 0.42806 0.82876 0.51564 0.0
C1922 C 0.42673 0.80857 0.52714 0.0
C1923 C 0.40479 0.80415 0.5364 0.0
C1924 C 0.38396 0.81964 0.53414 0.0
C1925 C 0.38498 0.83951 0.52256 0.0
C1926 C 0.4069 0.84406 0.51329 0.0
C1927 C 0.48459 0.82349 0.43259 0.0
C1928 C 0.4676 0.83949 0.42426 0.0
C1929 C 0.48631 0.82347 0.45037 0.0
C1930 C 0.47126 0.83961 0.46011 0.0
C1931 C 0.45422 0.8555 0.45182 0.0
C1932 C 0.45241 0.85546 0.43406 0.0
C1933 C 0.47297 0.83965 0.47898 0.0
C1934 C 0.45109 0.83529 0.48844 0.0
C1935 C 0.496 0.84328 0.48761 0.0
C1936 C 0.51949 0.84933 0.47837 0.0
C1937 C 0.52059 0.86999 0.46725 0.0
C1938 C 0.54272 0.87546 0.45847 0.0
C1939 C 0.56394 0.86052 0.46081 0.0
C1940 C 0.5631 0.84012 0.47196 0.0
C1941 C 0.541 0.83455 0.48076 0.0
H1942 H 0.58105 0.86479 0.454 0.0
H1943 H 0.36701 0.81623 0.54136 0.0
H1944 H 0.18858 0.49272 0.42795 0.0
H1945 H 0.18754 0.49069 0.4591 0.0
H1946 H 0.12942 0.54685 0.46 0.0
H1947 H 0.13059 0.54931 0.42891 0.0
H1948 H 0.16521 0.55715 0.48287 0.0
H1949 H 0.11602 0.48539 0.46737 0.0
H1950 H 0.10715 0.44567 0.45249 0.0
H1951 H 0.16955 0.41089 0.47769 0.0
H1952 H 0.17901 0.45054 0.49255 0.0
H1953 H 0.12906 0.54613 0.56862 0.0
H1954 H 0.12801 0.54395 0.53756 0.0
H1955 H 0.18779 0.48956 0.5382 0.0
H1956 H 0.18867 0.49123 0.56941 0.0
H1957 H 0.15169 0.47786 0.51466 0.0
H1958 H 0.20053 0.54995 0.53032 0.0
H1959 H 0.20806 0.58935 0.54594 0.0
H1960 H 0.14548 0.62349 0.52055 0.0
H1961 H 0.1373 0.58414 0.50499 0.0
C1962 C 0.17547 0.50454 0.43477 0.0
C1963 C 0.15962 0.52113 0.42596 0.0
C1964 C 0.17485 0.5033 0.45256 0.0
C1965 C 0.15825 0.51847 0.46185 0.0
C1966 C 0.14237 0.53499 0.45307 0.0
C1967 C 0.14301 0.53629 0.4353 0.0
C1968 C 0.1578 0.51757 0.48074 0.0
C1969 C 0.16194 0.53987 0.48981 0.0
C1970 C 0.15411 0.49491 0.48979 0.0
C1971 C 0.14837 0.47101 0.48094 0.0
C1972 C 0.12797 0.46933 0.46964 0.0
C1973 C 0.12281 0.44682 0.46123 0.0
C1974 C 0.13781 0.42579 0.46411 0.0
C1975 C 0.15796 0.42721 0.47546 0.0
C1976 C 0.16322 0.44969 0.48389 0.0
C1977 C 0.14187 0.53354 0.56219 0.0
C1978 C 0.15909 0.51898 0.57147 0.0
C1979 C 0.14128 0.53237 0.54443 0.0
C1980 C 0.15809 0.51689 0.53559 0.0
C1981 C 0.17471 0.50168 0.54481 0.0
C1982 C 0.17524 0.50272 0.56262 0.0
C1983 C 0.15895 0.51743 0.51672 0.0
C1984 C 0.15498 0.4951 0.50768 0.0
C1985 C 0.16277 0.54007 0.50768 0.0
C1986 C 0.16819 0.56403 0.51658 0.0
C1987 C 0.18831 0.56583 0.52811 0.0
C1988 C 0.19269 0.58815 0.53697 0.0
C1989 C 0.17723 0.60889 0.53427 0.0
C1990 C 0.15743 0.6074 0.52264 0.0
C1991 C 0.15292 0.5851 0.51379 0.0
H1992 H 0.18061 0.62613 0.54117 0.0
H1993 H 0.13379 0.40837 0.45758 0.0
H1994 H 0.50135 0.1941 0.92652 0.0
H1995 H 0.50407 0.19361 0.95766 0.0
H1996 H 0.44886 0.13462 0.95955 0.0
H1997 H 0.4457 0.13526 0.9285 0.0
H1998 H 0.43843 0.17022 0.98224 0.0
H1999 H 0.51073 0.12243 0.96628 0.0
H2000 H 0.55029 0.11414 0.95108 0.0
H2001 H 0.58452 0.17725 0.97581 0.0
H2002 H 0.54501 0.18614 0.99099 0.0
H2003 H 0.45136 0.13122 0.06694 0.0
H2004 H 0.45389 0.13149 0.03592 0.0
H2005 H 0.50529 0.1938 0.03788 0.0
H2006 H 0.50324 0.19342 0.06914 0.0
H2007 H 0.51849 0.15825 0.01343 0.0
H2008 H 0.44513 0.20465 0.03011 0.0
H2009 H 0.40577 0.21033 0.0461 0.0
H2010 H 0.37337 0.14738 0.02009 0.0
H2011 H 0.41271 0.14104 0.00415 0.0
C2012 C 0.48987 0.18095 0.93356 0.0
C2013 C 0.47335 0.16468 0.92503 0.0
C2014 C 0.49151 0.18064 0.95135 0.0
C2015 C 0.47681 0.16394 0.96091 0.0
C2016 C 0.46036 0.14767 0.95242 0.0
C2017 C 0.45865 0.148 0.93466 0.0
C2018 C 0.47812 0.16373 0.9798 0.0
C2019 C 0.4559 0.16734 0.98904 0.0
C2020 C 0.501 0.16049 0.98867 0.0
C2021 C 0.52483 0.15511 0.97964 0.0
C2022 C 0.52663 0.13466 0.96838 0.0
C2023 C 0.54905 0.12983 0.95978 0.0
C2024 C 0.56988 0.1452 0.96244 0.0
C2025 C 0.56835 0.16539 0.97374 0.0
C2026 C 0.54595 0.17032 0.98236 0.0
C2027 C 0.46338 0.1449 0.06083 0.0
C2028 C 0.47693 0.16247 0.0705 0.0
C2029 C 0.46477 0.14502 0.04309 0.0
C2030 C 0.47947 0.16291 0.03463 0.0
C2031 C 0.49378 0.17989 0.04421 0.0
C2032 C 0.49251 0.17971 0.06203 0.0
C2033 C 0.47879 0.16452 0.01578 0.0
C2034 C 0.50108 0.16126 0.00658 0.0
C2035 C 0.45595 0.1679 0.00691 0.0
C2036 C 0.43194 0.17227 0.01601 0.0
C2037 C 0.42965 0.19196 0.02784 0.0
C2038 C 0.40734 0.19529 0.0369 0.0
C2039 C 0.3871 0.1792 0.03413 0.0
C2040 C 0.38908 0.15982 0.02223 0.0
C2041 C 0.41136 0.15636 0.01316 0.0
H2042 H 0.36987 0.18176 0.0412 0.0
H2043 H 0.58723 0.14143 0.95577 0.0
H2044 H 0.86865 0.44752 0.42803 0.0
H2045 H 0.86933 0.44913 0.45919 0.0
H2046 H 0.8164 0.51019 0.45837 0.0
H2047 H 0.81537 0.50858 0.42723 0.0
H2048 H 0.88153 0.48567 0.48222 0.0
H2049 H 0.77537 0.50215 0.49126 0.0
H2050 H 0.73579 0.49396 0.47597 0.0
H2051 H 0.76909 0.43043 0.45117 0.0
H2052 H 0.8087 0.43799 0.46651 0.0
H2053 H 0.8112 0.50568 0.56863 0.0
H2054 H 0.81319 0.50835 0.53751 0.0
H2055 H 0.86719 0.44823 0.53665 0.0
H2056 H 0.86556 0.44559 0.5677 0.0
H2057 H 0.80169 0.4736 0.51362 0.0
H2058 H 0.90805 0.45753 0.50441 0.0
H2059 H 0.94761 0.46585 0.51971 0.0
H2060 H 0.91383 0.52881 0.54485 0.0
H2061 H 0.87421 0.52099 0.52965 0.0
C2062 C 0.85729 0.46143 0.43447 0.0
C2063 C 0.84183 0.47783 0.42517 0.0
C2064 C 0.85776 0.46235 0.45227 0.0
C2065 C 0.84271 0.47958 0.46107 0.0
C2066 C 0.82789 0.49651 0.45181 0.0
C2067 C 0.82737 0.49559 0.43402 0.0
C2068 C 0.84183 0.47924 0.47995 0.0
C2069 C 0.86414 0.48276 0.4891 0.0
C2070 C 0.81903 0.47594 0.48888 0.0
C2071 C 0.79508 0.47082 0.47991 0.0
C2072 C 0.77419 0.48636 0.48261 0.0
C2073 C 0.75176 0.48184 0.47392 0.0
C2074 C 0.74995 0.46174 0.46256 0.0
C2075 C 0.77053 0.44604 0.45993 0.0
C2076 C 0.79299 0.45045 0.46861 0.0
C2077 C 0.82361 0.49312 0.56183 0.0
C2078 C 0.83832 0.4755 0.57064 0.0
C2079 C 0.82465 0.49462 0.54405 0.0
C2080 C 0.84051 0.47866 0.53479 0.0
C2081 C 0.85514 0.46101 0.54356 0.0
C2082 C 0.85411 0.45948 0.56132 0.0
C2083 C 0.84139 0.48006 0.51593 0.0
C2084 C 0.81908 0.47664 0.50676 0.0
C2085 C 0.86418 0.48343 0.50699 0.0
C2086 C 0.8881 0.48851 0.516 0.0
C2087 C 0.90911 0.47319 0.51317 0.0
C2088 C 0.93154 0.4778 0.52185 0.0
C2089 C 0.93321 0.49777 0.53332 0.0
C2090 C 0.9125 0.51325 0.53607 0.0
C2091 C 0.89003 0.50871 0.52744 0.0
H2092 H 0.95057 0.5013 0.54004 0.0
H2093 H 0.73259 0.45831 0.45582 0.0
H2094 H 0.56658 0.85765 0.06503 0.0
H2095 H 0.56248 0.85809 0.03404 0.0
H2096 H 0.49699 0.81098 0.03753 0.0
H2097 H 0.50112 0.81015 0.06863 0.0
H2098 H 0.52836 0.79562 0.01238 0.0
H2099 H 0.49059 0.87281 0.02978 0.0
H2100 H 0.48821 0.91313 0.04505 0.0
H2101 H 0.55209 0.9401 0.01729 0.0
H2102 H 0.55508 0.89979 0.00202 0.0
H2103 H 0.49571 0.81437 0.92515 0.0
H2104 H 0.49371 0.8138 0.95634 0.0
H2105 H 0.55897 0.86139 0.95877 0.0
H2106 H 0.5609 0.86239 0.9277 0.0
H2107 H 0.52385 0.87633 0.98108 0.0
H2108 H 0.5634 0.79852 0.96519 0.0
H2109 H 0.56633 0.75822 0.94994 0.0
H2110 H 0.49951 0.73248 0.97491 0.0
H2111 H 0.49597 0.77281 0.99012 0.0
C2112 C 0.55126 0.8474 0.05924 0.0
C2113 C 0.53406 0.83401 0.0693 0.0
C2114 C 0.54891 0.84774 0.04152 0.0
C2115 C 0.52921 0.83488 0.03351 0.0
C2116 C 0.51226 0.82111 0.04348 0.0
C2117 C 0.51463 0.82071 0.06123 0.0
C2118 C 0.52649 0.83579 0.01472 0.0
C2119 C 0.52693 0.81323 0.00554 0.0
C2120 C 0.52507 0.85882 0.00581 0.0
C2121 C 0.52317 0.88319 0.01485 0.0
C2122 C 0.50423 0.88727 0.02701 0.0
C2123 C 0.50276 0.91014 0.03566 0.0
C2124 C 0.52001 0.92915 0.03217 0.0
C2125 C 0.53874 0.92535 0.01999 0.0
C2126 C 0.54032 0.90251 0.01132 0.0
C2127 C 0.50957 0.82479 0.93233 0.0
C2128 C 0.52849 0.83839 0.92396 0.0
C2129 C 0.50844 0.82438 0.95014 0.0
C2130 C 0.52634 0.83736 0.95985 0.0
C2131 C 0.54495 0.85128 0.95151 0.0
C2132 C 0.54605 0.85178 0.93374 0.0
C2133 C 0.52607 0.83618 0.97873 0.0
C2134 C 0.52505 0.8587 0.98793 0.0
C2135 C 0.52701 0.81313 0.98764 0.0
C2136 C 0.52927 0.78878 0.97865 0.0
C2137 C 0.54923 0.78433 0.96734 0.0
C2138 C 0.55101 0.76148 0.95871 0.0
C2139 C 0.53308 0.74283 0.96142 0.0
C2140 C 0.51336 0.74696 0.9728 0.0
C2141 C 0.51147 0.76981 0.98143 0.0
H2142 H 0.53449 0.72514 0.95473 0.0
H2143 H 0.51885 0.94683 0.03888 0.0
H2144 H 0.27054 0.4197 0.14333 0.0
H2145 H 0.30449 0.38889 0.14357 0.0
H2146 H 0.25065 0.32927 0.13739 0.0
H2147 H 0.21665 0.35978 0.13738 0.0
H2148 H 0.2847 0.31808 0.16154 0.0
H2149 H 0.28539 0.34991 0.10397 0.0
H2150 H 0.28751 0.38305 0.08209 0.0
H2151 H 0.36035 0.40464 0.10013 0.0
H2152 H 0.3585 0.37185 0.12229 0.0
H2153 H 0.35855 0.21695 0.13428 0.0
H2154 H 0.32849 0.25133 0.13525 0.0
H2155 H 0.38881 0.30406 0.14253 0.0
H2156 H 0.41919 0.26971 0.14139 0.0
H2157 H 0.35399 0.3209 0.11939 0.0
H2158 H 0.35424 0.28732 0.17594 0.0
H2159 H 0.35198 0.25409 0.19774 0.0
H2160 H 0.27728 0.23582 0.18166 0.0
H2161 H 0.27922 0.26871 0.15958 0.0
C2162 C 0.26593 0.40003 0.14204 0.0
C2163 C 0.2409 0.39219 0.14033 0.0
C2164 C 0.28536 0.38247 0.14212 0.0
C2165 C 0.28008 0.35682 0.14037 0.0
C2166 C 0.25511 0.34897 0.13878 0.0
C2167 C 0.23571 0.36646 0.13872 0.0
C2168 C 0.30047 0.33801 0.1402 0.0
C2169 C 0.29972 0.31856 0.15223 0.0
C2170 C 0.32043 0.33908 0.12834 0.0
C2171 C 0.32169 0.35861 0.1149 0.0
C2172 C 0.30178 0.36185 0.10335 0.0
C2173 C 0.30294 0.38055 0.09089 0.0
C2174 C 0.32402 0.39599 0.08975 0.0
C2175 C 0.34402 0.3927 0.10104 0.0
C2176 C 0.34293 0.37405 0.11355 0.0
C2177 C 0.36548 0.23584 0.13606 0.0
C2178 C 0.39125 0.24058 0.1379 0.0
C2179 C 0.34826 0.25546 0.13666 0.0
C2180 C 0.35643 0.28018 0.1392 0.0
C2181 C 0.38216 0.28509 0.14063 0.0
C2182 C 0.39945 0.26543 0.14004 0.0
C2183 C 0.33793 0.30075 0.14053 0.0
C2184 C 0.33906 0.32054 0.12878 0.0
C2185 C 0.31829 0.30001 0.15264 0.0
C2186 C 0.31696 0.28035 0.16601 0.0
C2187 C 0.33739 0.2761 0.17697 0.0
C2188 C 0.33616 0.25734 0.18939 0.0
C2189 C 0.31452 0.24282 0.19106 0.0
C2190 C 0.29403 0.24707 0.18034 0.0
C2191 C 0.29518 0.26579 0.16788 0.0
H2192 H 0.3136 0.2283 0.20068 0.0
H2193 H 0.32488 0.41047 0.0801 0.0
H2194 H 0.78069 0.36202 0.63767 0.0
H2195 H 0.74658 0.33173 0.63693 0.0
H2196 H 0.69263 0.39183 0.63891 0.0
H2197 H 0.72681 0.42248 0.63987 0.0
H2198 H 0.68028 0.35348 0.66037 0.0
H2199 H 0.70303 0.3624 0.60185 0.0
H2200 H 0.73189 0.36425 0.57734 0.0
H2201 H 0.75419 0.28812 0.58648 0.0
H2202 H 0.72574 0.28593 0.61122 0.0
H2203 H 0.58076 0.26797 0.64108 0.0
H2204 H 0.60966 0.30353 0.6399 0.0
H2205 H 0.67227 0.25257 0.63713 0.0
H2206 H 0.6436 0.21699 0.63807 0.0
H2207 H 0.6768 0.28982 0.61429 0.0
H2208 H 0.657 0.28243 0.67426 0.0
H2209 H 0.62869 0.2807 0.69909 0.0
H2210 H 0.60087 0.35412 0.6871 0.0
H2211 H 0.6288 0.35613 0.66205 0.0
C2212 C 0.7616 0.36888 0.63794 0.0
C2213 C 0.75646 0.39469 0.63877 0.0
C2214 C 0.74211 0.35151 0.63745 0.0
C2215 C 0.71709 0.35956 0.63762 0.0
C2216 C 0.71184 0.38527 0.63871 0.0
C2217 C 0.73138 0.40273 0.63923 0.0
C2218 C 0.69659 0.34091 0.63674 0.0
C2219 C 0.6792 0.33983 0.65013 0.0
C2220 C 0.69544 0.32294 0.62349 0.0
C2221 C 0.71236 0.32407 0.60848 0.0
C2222 C 0.7142 0.3461 0.59871 0.0
C2223 C 0.73048 0.34721 0.58476 0.0
C2224 C 0.7449 0.32633 0.58037 0.0
C2225 C 0.74301 0.30428 0.5899 0.0
C2226 C 0.72679 0.30309 0.60387 0.0
C2227 C 0.60069 0.26433 0.64026 0.0
C2228 C 0.6099 0.23966 0.63975 0.0
C2229 C 0.61716 0.28468 0.63962 0.0
C2230 C 0.64311 0.28067 0.63857 0.0
C2231 C 0.65231 0.25607 0.63792 0.0
C2232 C 0.63589 0.23575 0.63852 0.0
C2233 C 0.66086 0.302 0.63812 0.0
C2234 C 0.6777 0.30362 0.62443 0.0
C2235 C 0.66147 0.32046 0.65108 0.0
C2236 C 0.64478 0.31931 0.66618 0.0
C2237 C 0.6447 0.29812 0.67684 0.0
C2238 C 0.62875 0.2971 0.69097 0.0
C2239 C 0.61293 0.31725 0.69464 0.0
C2240 C 0.6131 0.3385 0.68422 0.0
C2241 C 0.62899 0.3396 0.67007 0.0
H2242 H 0.6006 0.31643 0.70558 0.0
H2243 H 0.7575 0.32723 0.56957 0.0
H2244 H 0.78124 0.63828 0.14265 0.0
H2245 H 0.74634 0.66753 0.14461 0.0
H2246 H 0.69458 0.60575 0.14881 0.0
H2247 H 0.72953 0.57612 0.14669 0.0
H2248 H 0.67849 0.6416 0.12616 0.0
H2249 H 0.70749 0.63892 0.18352 0.0
H2250 H 0.73865 0.63989 0.20672 0.0
H2251 H 0.7584 0.71538 0.19336 0.0
H2252 H 0.72762 0.71473 0.16989 0.0
H2253 H 0.58081 0.7296 0.14525 0.0
H2254 H 0.60956 0.69402 0.14764 0.0
H2255 H 0.6726 0.74427 0.14356 0.0
H2256 H 0.64415 0.77987 0.14136 0.0
H2257 H 0.67888 0.71007 0.169 0.0
H2258 H 0.65332 0.71045 0.10968 0.0
H2259 H 0.62232 0.7094 0.08636 0.0
H2260 H 0.59588 0.63784 0.10378 0.0
H2261 H 0.62652 0.63865 0.12736 0.0
C2262 C 0.76247 0.63084 0.14404 0.0
C2263 C 0.75816 0.60487 0.14459 0.0
C2264 C 0.74255 0.6476 0.14523 0.0
C2265 C 0.71794 0.63879 0.14708 0.0
C2266 C 0.71348 0.61289 0.14747 0.0
C2267 C 0.73346 0.59603 0.14631 0.0
C2268 C 0.69701 0.65686 0.14827 0.0
C2269 C 0.67825 0.65628 0.13574 0.0
C2270 C 0.69692 0.67614 0.16066 0.0
C2271 C 0.71534 0.67671 0.17486 0.0
C2272 C 0.7186 0.65567 0.18544 0.0
C2273 C 0.73618 0.65617 0.19866 0.0
C2274 C 0.75053 0.67767 0.2015 0.0
C2275 C 0.74728 0.69873 0.19114 0.0
C2276 C 0.72974 0.69832 0.17789 0.0
C2277 C 0.6008 0.73307 0.1449 0.0
C2278 C 0.61022 0.75754 0.14309 0.0
C2279 C 0.61717 0.71272 0.14622 0.0
C2280 C 0.64317 0.71654 0.14569 0.0
C2281 C 0.65258 0.74096 0.14405 0.0
C2282 C 0.63628 0.76126 0.14271 0.0
C2283 C 0.66079 0.6952 0.14662 0.0
C2284 C 0.6789 0.69516 0.15959 0.0
C2285 C 0.66023 0.67535 0.13466 0.0
C2286 C 0.642 0.67475 0.12039 0.0
C2287 C 0.64076 0.69459 0.10861 0.0
C2288 C 0.62328 0.69402 0.09534 0.0
C2289 C 0.60708 0.6736 0.09362 0.0
C2290 C 0.6084 0.65367 0.10515 0.0
C2291 C 0.62583 0.65416 0.11846 0.0
H2292 H 0.59355 0.6732 0.08334 0.0
H2293 H 0.76413 0.67802 0.21173 0.0
H2294 H 0.22092 0.63458 0.63255 0.0
H2295 H 0.25555 0.6642 0.63097 0.0
H2296 H 0.30834 0.60374 0.63741 0.0
H2297 H 0.27362 0.57379 0.6392 0.0
H2298 H 0.31975 0.64398 0.65744 0.0
H2299 H 0.30084 0.62961 0.59881 0.0
H2300 H 0.27363 0.62573 0.57353 0.0
H2301 H 0.25214 0.70292 0.5784 0.0
H2302 H 0.27892 0.70717 0.60388 0.0
H2303 H 0.42208 0.72541 0.63805 0.0
H2304 H 0.39252 0.69042 0.63683 0.0
H2305 H 0.33135 0.74241 0.63044 0.0
H2306 H 0.36071 0.77746 0.63148 0.0
H2307 H 0.32748 0.70297 0.60878 0.0
H2308 H 0.34299 0.71598 0.66883 0.0
H2309 H 0.36939 0.71989 0.69451 0.0
H2310 H 0.39699 0.64513 0.68697 0.0
H2311 H 0.37098 0.64091 0.66109 0.0
C2312 C 0.23987 0.6275 0.63361 0.0
C2313 C 0.24452 0.60179 0.63598 0.0
C2314 C 0.25966 0.64447 0.63262 0.0
C2315 C 0.28451 0.63612 0.63384 0.0
C2316 C 0.28928 0.61053 0.63638 0.0
C2317 C 0.26943 0.59346 0.63737 0.0
C2318 C 0.30535 0.65438 0.63276 0.0
C2319 C 0.32178 0.65656 0.64666 0.0
C2320 C 0.30768 0.67103 0.6188 0.0
C2321 C 0.29178 0.66865 0.60334 0.0
C2322 C 0.29019 0.64572 0.59456 0.0
C2323 C 0.27485 0.64345 0.58018 0.0
C2324 C 0.26113 0.66405 0.57438 0.0
C2325 C 0.26277 0.68698 0.58291 0.0
C2326 C 0.27806 0.68933 0.59731 0.0
C2327 C 0.40233 0.72941 0.63639 0.0
C2328 C 0.39371 0.75423 0.63498 0.0
C2329 C 0.38548 0.70939 0.63571 0.0
C2330 C 0.35973 0.71385 0.6337 0.0
C2331 C 0.35115 0.73857 0.632 0.0
C2332 C 0.36796 0.75858 0.63267 0.0
C2333 C 0.34156 0.69287 0.6336 0.0
C2334 C 0.32565 0.69017 0.61946 0.0
C2335 C 0.33971 0.67576 0.64733 0.0
C2336 C 0.35527 0.67824 0.66292 0.0
C2337 C 0.35485 0.70045 0.67257 0.0
C2338 C 0.36971 0.70271 0.68717 0.0
C2339 C 0.38492 0.6828 0.69234 0.0
C2340 C 0.38524 0.66055 0.68294 0.0
C2341 C 0.37043 0.65821 0.6683 0.0
H2342 H 0.39641 0.68458 0.70365 0.0
H2343 H 0.24925 0.66226 0.56325 0.0
H2344 H 0.35582 0.78127 0.36156 0.0
H2345 H 0.3274 0.74557 0.36342 0.0
H2346 H 0.38881 0.69511 0.35348 0.0
H2347 H 0.4175 0.7308 0.35151 0.0
H2348 H 0.3468 0.68379 0.33456 0.0
H2349 H 0.36715 0.69954 0.39285 0.0
H2350 H 0.37288 0.72524 0.41868 0.0
H2351 H 0.29466 0.74402 0.41839 0.0
H2352 H 0.28853 0.71874 0.39238 0.0
H2353 H 0.27164 0.57705 0.35522 0.0
H2354 H 0.30572 0.60776 0.35564 0.0
H2355 H 0.25252 0.66671 0.36588 0.0
H2356 H 0.21844 0.63627 0.36559 0.0
H2357 H 0.29406 0.67055 0.38591 0.0
H2358 H 0.27469 0.65826 0.32633 0.0
H2359 H 0.26879 0.63335 0.30014 0.0
H2360 H 0.34518 0.60843 0.30283 0.0
H2361 H 0.35143 0.63294 0.32919 0.0
C2362 C 0.36333 0.7626 0.35976 0.0
C2363 C 0.38893 0.75885 0.3564 0.0
C2364 C 0.34707 0.74221 0.3609 0.0
C2365 C 0.35609 0.71772 0.35877 0.0
C2366 C 0.38154 0.7139 0.3552 0.0
C2367 C 0.39788 0.7343 0.35411 0.0
C2368 C 0.33872 0.69621 0.36012 0.0
C2369 C 0.3356 0.68057 0.3459 0.0
C2370 C 0.32388 0.69233 0.37483 0.0
C2371 C 0.32743 0.70738 0.39057 0.0
C2372 C 0.3512 0.7093 0.39821 0.0
C2373 C 0.35452 0.72377 0.4129 0.0
C2374 C 0.33416 0.73629 0.42015 0.0
C2375 C 0.31042 0.73432 0.41275 0.0
C2376 C 0.30701 0.71989 0.39805 0.0
C2377 C 0.26721 0.59654 0.3576 0.0
C2378 C 0.24233 0.60425 0.36026 0.0
C2379 C 0.28669 0.61405 0.3578 0.0
C2380 C 0.28158 0.6395 0.36066 0.0
C2381 C 0.25684 0.64714 0.36366 0.0
C2382 C 0.23738 0.62971 0.36341 0.0
C2383 C 0.30183 0.65842 0.36024 0.0
C2384 C 0.3055 0.67357 0.37465 0.0
C2385 C 0.31715 0.66186 0.3457 0.0
C2386 C 0.31344 0.64718 0.32984 0.0
C2387 C 0.29017 0.64729 0.32142 0.0
C2388 C 0.28677 0.63328 0.30653 0.0
C2389 C 0.30657 0.61925 0.29986 0.0
C2390 C 0.32984 0.61926 0.30804 0.0
C2391 C 0.33332 0.63322 0.32295 0.0
H2392 H 0.30391 0.60842 0.28833 0.0
H2393 H 0.33676 0.7475 0.43153 0.0
H2394 H 0.41743 0.27189 0.85547 0.0
H2395 H 0.38704 0.30617 0.85678 0.0
H2396 H 0.3267 0.25253 0.85961 0.0
H2397 H 0.35685 0.21823 0.85855 0.0
H2398 H 0.34878 0.31894 0.83595 0.0
H2399 H 0.28117 0.27443 0.88547 0.0
H2400 H 0.28315 0.24571 0.91009 0.0
H2401 H 0.35993 0.26616 0.91867 0.0
H2402 H 0.3583 0.29529 0.89428 0.0
H2403 H 0.21457 0.36107 0.86 0.0
H2404 H 0.24868 0.33064 0.86045 0.0
H2405 H 0.30265 0.39071 0.85786 0.0
H2406 H 0.2686 0.42135 0.85714 0.0
H2407 H 0.28638 0.32355 0.88276 0.0
H2408 H 0.35342 0.37008 0.83481 0.0
H2409 H 0.35185 0.39908 0.81031 0.0
H2410 H 0.27694 0.3749 0.79893 0.0
H2411 H 0.27823 0.34552 0.82317 0.0
C2412 C 0.39769 0.2674 0.85636 0.0
C2413 C 0.38954 0.24235 0.85697 0.0
C2414 C 0.38037 0.287 0.85708 0.0
C2415 C 0.35467 0.28188 0.85851 0.0
C2416 C 0.34649 0.2569 0.85882 0.0
C2417 C 0.36375 0.23731 0.85815 0.0
C2418 C 0.33627 0.30258 0.85959 0.0
C2419 C 0.3354 0.32022 0.84633 0.0
C2420 C 0.31863 0.304 0.87302 0.0
C2421 C 0.31966 0.28688 0.88794 0.0
C2422 C 0.29843 0.2729 0.89267 0.0
C2423 C 0.2995 0.25653 0.90657 0.0
C2424 C 0.32168 0.25406 0.9159 0.0
C2425 C 0.3428 0.26803 0.91139 0.0
C2426 C 0.34181 0.28445 0.89752 0.0
C2427 C 0.23369 0.36785 0.8595 0.0
C2428 C 0.23888 0.39363 0.85841 0.0
C2429 C 0.25316 0.35042 0.85982 0.0
C2430 C 0.27817 0.3584 0.85904 0.0
C2431 C 0.28346 0.38414 0.85822 0.0
C2432 C 0.26398 0.40161 0.85783 0.0
C2433 C 0.2986 0.33963 0.85897 0.0
C2434 C 0.29988 0.32238 0.87245 0.0
C2435 C 0.31666 0.33863 0.84578 0.0
C2436 C 0.31584 0.35583 0.83092 0.0
C2437 C 0.33667 0.37089 0.82703 0.0
C2438 C 0.33582 0.38741 0.81319 0.0
C2439 C 0.31428 0.38892 0.80311 0.0
C2440 C 0.29359 0.37381 0.80678 0.0
C2441 C 0.29436 0.35723 0.82058 0.0
H2442 H 0.31368 0.40177 0.79244 0.0
H2443 H 0.32247 0.24135 0.92665 0.0
H2444 H 0.57891 0.27207 0.35773 0.0
H2445 H 0.60883 0.3067 0.35968 0.0
H2446 H 0.67004 0.25392 0.36023 0.0
H2447 H 0.64035 0.21924 0.3585 0.0
H2448 H 0.67626 0.28979 0.38401 0.0
H2449 H 0.65484 0.28615 0.32416 0.0
H2450 H 0.62595 0.28638 0.2996 0.0
H2451 H 0.60006 0.35969 0.31369 0.0
H2452 H 0.62857 0.35974 0.33848 0.0
H2453 H 0.78076 0.36253 0.36125 0.0
H2454 H 0.74652 0.33233 0.36217 0.0
H2455 H 0.69281 0.39273 0.36158 0.0
H2456 H 0.72706 0.42322 0.36041 0.0
H2457 H 0.6799 0.35594 0.33959 0.0
H2458 H 0.70401 0.3611 0.39809 0.0
H2459 H 0.73334 0.36102 0.4224 0.0
H2460 H 0.7542 0.28515 0.41098 0.0
H2461 H 0.72527 0.28489 0.38645 0.0
C2462 C 0.59875 0.26784 0.35823 0.0
C2463 C 0.60727 0.24291 0.35787 0.0
C2464 C 0.6158 0.28765 0.35932 0.0
C2465 C 0.64165 0.28287 0.35995 0.0
C2466 C 0.65016 0.258 0.35977 0.0
C2467 C 0.63316 0.23821 0.35872 0.0
C2468 C 0.65998 0.30367 0.36071 0.0
C2469 C 0.6772 0.30415 0.37423 0.0
C2470 C 0.66068 0.3228 0.34821 0.0
C2471 C 0.64362 0.32283 0.33328 0.0
C2472 C 0.64284 0.30223 0.3221 0.0
C2473 C 0.62656 0.30233 0.30812 0.0
C2474 C 0.61112 0.32301 0.30511 0.0
C2475 C 0.61199 0.34367 0.31605 0.0
C2476 C 0.62821 0.34365 0.33006 0.0
C2477 C 0.76168 0.36945 0.36137 0.0
C2478 C 0.75662 0.39529 0.36078 0.0
C2479 C 0.74212 0.35215 0.36197 0.0
C2480 C 0.71713 0.36031 0.36216 0.0
C2481 C 0.71198 0.38607 0.36148 0.0
C2482 C 0.73157 0.40344 0.36084 0.0
C2483 C 0.69649 0.34179 0.36272 0.0
C2484 C 0.6788 0.34175 0.34947 0.0
C2485 C 0.69534 0.32306 0.37548 0.0
C2486 C 0.71259 0.32305 0.39035 0.0
C2487 C 0.71497 0.34445 0.40069 0.0
C2488 C 0.73151 0.34446 0.41452 0.0
C2489 C 0.74566 0.32311 0.41821 0.0
C2490 C 0.74324 0.30168 0.40811 0.0
C2491 C 0.72675 0.30158 0.39425 0.0
H2492 H 0.75847 0.32316 0.42892 0.0
H2493 H 0.59854 0.32305 0.29429 0.0
H2494 H 0.72521 0.57675 0.85712 0.0
H2495 H 0.69034 0.60661 0.85742 0.0
H2496 H 0.74292 0.66803 0.8584 0.0
H2497 H 0.77768 0.63848 0.85843 0.0
H2498 H 0.70646 0.67524 0.88097 0.0
H2499 H 0.71174 0.64982 0.82155 0.0
H2500 H 0.71133 0.61905 0.79808 0.0
H2501 H 0.63707 0.5961 0.81223 0.0
H2502 H 0.63718 0.62654 0.83592 0.0
H2503 H 0.64014 0.78094 0.8546 0.0
H2504 H 0.66846 0.74517 0.85588 0.0
H2505 H 0.60531 0.6947 0.85571 0.0
H2506 H 0.57668 0.73053 0.85415 0.0
H2507 H 0.64263 0.67816 0.83498 0.0
H2508 H 0.63542 0.70632 0.89243 0.0
H2509 H 0.63524 0.73735 0.91573 0.0
H2510 H 0.71242 0.75464 0.90576 0.0
H2511 H 0.71297 0.72399 0.88221 0.0
C2512 C 0.72931 0.59662 0.85735 0.0
C2513 C 0.7542 0.60525 0.85771 0.0
C2514 C 0.70938 0.61365 0.85749 0.0
C2515 C 0.71405 0.63955 0.8578 0.0
C2516 C 0.73888 0.64813 0.8582 0.0
C2517 C 0.75874 0.63119 0.85817 0.0
C2518 C 0.69328 0.65799 0.8578 0.0
C2519 C 0.69261 0.67598 0.87084 0.0
C2520 C 0.67467 0.6584 0.84492 0.0
C2521 C 0.67458 0.64024 0.83061 0.0
C2522 C 0.6954 0.63808 0.81973 0.0
C2523 C 0.69521 0.62071 0.80637 0.0
C2524 C 0.67421 0.60557 0.8037 0.0
C2525 C 0.65333 0.60781 0.81434 0.0
C2526 C 0.65344 0.62512 0.82772 0.0
C2527 C 0.63222 0.76225 0.8548 0.0
C2528 C 0.60616 0.75857 0.85437 0.0
C2529 C 0.64844 0.74182 0.85559 0.0
C2530 C 0.63896 0.71731 0.85618 0.0
C2531 C 0.61298 0.71349 0.85533 0.0
C2532 C 0.59668 0.73397 0.85446 0.0
C2533 C 0.65637 0.69584 0.85784 0.0
C2534 C 0.65631 0.67724 0.8452 0.0
C2535 C 0.6743 0.69478 0.87112 0.0
C2536 C 0.67418 0.71295 0.88547 0.0
C2537 C 0.65232 0.71684 0.89514 0.0
C2538 C 0.65215 0.73436 0.90839 0.0
C2539 C 0.67379 0.74799 0.9122 0.0
C2540 C 0.69567 0.74407 0.90279 0.0
C2541 C 0.69593 0.7266 0.8895 0.0
H2542 H 0.67362 0.76156 0.92246 0.0
H2543 H 0.67406 0.59213 0.79336 0.0
loop_
_geom_bond_atom_site_label_1
_geom_bond_atom_site_label_2
_geom_bond_distance
_geom_bond_site_symmetry_2
_ccdc_geom_bond_type
Co0 O2 2.143 . S
Co0 O8 2.074 . S
Co0 O11 2.093 . S
Co0 O24 2.097 . S
Co0 N41 2.151 . S
Co0 N49 2.214 . S
Co1 O2 2.160 . S
Co1 O7 2.058 . S
Co1 O17 2.057 . S
Co1 O32 2.037 . S
Co1 N36 2.145 . S
Co1 N57 2.257 . S
O2 Co0 2.143 . S
O2 Co1 2.160 . S
C3 O4 1.278 . S
C3 O11 1.224 . S
O4 C3 1.278 . S
C5 O6 1.245 . S
C5 O17 1.232 . S
O6 C5 1.245 . S
O7 Co1 2.058 . S
O7 C33 1.269 . S
O8 Co0 2.074 . S
O8 C33 1.257 . S
H9 C34 0.930 . S
H10 C40 0.930 . S
O11 Co0 2.093 . S
O11 C3 1.224 . S
H12 C44 0.929 . S
H13 C46 0.930 . S
H14 C47 0.930 . S
H15 C45 0.929 . S
H16 C48 0.928 . S
O17 Co1 2.057 . S
O17 C5 1.232 . S
H18 C37 0.929 . S
H19 C38 0.929 . S
H20 C50 0.931 . S
H21 C42 0.929 . S
H22 C51 0.930 . S
H23 C43 0.931 . S
O24 Co0 2.097 . S
O24 C52 1.214 . S
H25 C53 0.929 . S
H26 C54 0.929 . S
H27 C55 0.930 . S
H28 C56 0.929 . S
H29 C58 0.930 . S
H30 C35 0.930 . S
H31 C39 0.930 . S
O32 Co1 2.037 . S
O32 C52 1.234 . S
C33 O7 1.269 . S
C33 O8 1.257 . S
C34 H9 0.930 . S
C34 C37 1.388 . S
C34 C39 1.418 . S
C35 H30 0.930 . S
C35 C38 1.404 . S
C35 C39 1.353 . S
N36 Co1 2.145 . S
N36 C37 1.397 . S
N36 C38 1.334 . S
C37 H18 0.929 . S
C37 C34 1.388 . S
C37 N36 1.397 . S
C38 H19 0.929 . S
C38 C35 1.404 . S
C38 N36 1.334 . S
C39 H31 0.930 . S
C39 C34 1.418 . S
C39 C35 1.353 . S
C40 H10 0.930 . S
C40 N41 1.330 . S
C40 C42 1.446 . S
N41 Co0 2.151 . S
N41 C40 1.330 . S
N41 C45 1.418 . S
C42 H21 0.929 . S
C42 C40 1.446 . S
C42 C43 1.332 . S
C43 H23 0.931 . S
C43 C42 1.332 . S
C43 C44 1.267 . S
C44 H12 0.929 . S
C44 C43 1.267 . S
C44 C45 1.251 . S
C45 H15 0.929 . S
C45 N41 1.418 . S
C45 C44 1.251 . S
C46 H13 0.930 . S
C46 C48 1.406 . S
C46 C51 1.261 . S
C47 H14 0.930 . S
C47 N49 1.325 . S
C47 C50 1.357 . S
C48 H16 0.928 . S
C48 C46 1.406 . S
C48 N49 1.261 . S
N49 Co0 2.214 . S
N49 C47 1.325 . S
N49 C48 1.261 . S
C50 H20 0.931 . S
C50 C47 1.357 . S
C50 C51 1.312 . S
C51 H22 0.930 . S
C51 C46 1.261 . S
C51 C50 1.312 . S
C52 O24 1.214 . S
C52 O32 1.234 . S
C53 H25 0.929 . S
C53 C56 1.391 . S
C53 C58 1.391 . S
C54 H26 0.929 . S
C54 C55 1.390 . S
C54 N57 1.391 . S
C55 H27 0.930 . S
C55 C54 1.390 . S
C55 C56 1.392 . S
C56 H28 0.929 . S
C56 C53 1.391 . S
C56 C55 1.392 . S
N57 Co1 2.257 . S
N57 C54 1.391 . S
N57 C58 1.388 . S
C58 H29 0.930 . S
C58 C53 1.391 . S
C58 N57 1.388 . S
Co59 O61 2.143 . S
Co59 O67 2.074 . S
Co59 O70 2.093 . S
Co59 O83 2.097 . S
Co59 N100 2.151 . S
Co59 N108 2.214 . S
Co60 O61 2.160 . S
Co60 O66 2.058 . S
Co60 O76 2.057 . S
Co60 O91 2.037 . S
Co60 N95 2.145 . S
Co60 N116 2.257 . S
O61 Co59 2.143 . S
O61 Co60 2.160 . S
C62 O63 1.278 . S
C62 O70 1.224 . S
O63 C62 1.278 . S
C64 O65 1.245 . S
C64 O76 1.232 . S
O65 C64 1.245 . S
O66 Co60 2.058 . S
O66 C92 1.269 . S
O67 Co59 2.074 . S
O67 C92 1.257 . S
H68 C93 0.930 . S
H69 C99 0.930 . S
O70 Co59 2.093 . S
O70 C62 1.224 . S
H71 C103 0.929 . S
H72 C105 0.930 . S
H73 C106 0.930 . S
H74 C104 0.929 . S
H75 C107 0.928 . S
O76 Co60 2.057 . S
O76 C64 1.232 . S
H77 C96 0.929 . S
H78 C97 0.929 . S
H79 C109 0.931 . S
H80 C101 0.929 . S
H81 C110 0.930 . S
H82 C102 0.931 . S
O83 Co59 2.097 . S
O83 C111 1.214 . S
H84 C112 0.929 . S
H85 C113 0.929 . S
H86 C114 0.930 . S
H87 C115 0.929 . S
H88 C117 0.930 . S
H89 C94 0.930 . S
H90 C98 0.930 . S
O91 Co60 2.037 . S
O91 C111 1.234 . S
C92 O66 1.269 . S
C92 O67 1.257 . S
C93 H68 0.930 . S
C93 C96 1.388 . S
C93 C98 1.418 . S
C94 H89 0.930 . S
C94 C97 1.404 . S
C94 C98 1.353 . S
N95 Co60 2.145 . S
N95 C96 1.397 . S
N95 C97 1.334 . S
C96 H77 0.929 . S
C96 C93 1.388 . S
C96 N95 1.397 . S
C97 H78 0.929 . S
C97 C94 1.404 . S
C97 N95 1.334 . S
C98 H90 0.930 . S
C98 C93 1.418 . S
C98 C94 1.353 . S
C99 H69 0.930 . S
C99 N100 1.330 . S
C99 C101 1.446 . S
N100 Co59 2.151 . S
N100 C99 1.330 . S
N100 C104 1.418 . S
C101 H80 0.929 . S
C101 C99 1.446 . S
C101 C102 1.332 . S
C102 H82 0.931 . S
C102 C101 1.332 . S
C102 C103 1.267 . S
C103 H71 0.929 . S
C103 C102 1.267 . S
C103 C104 1.251 . S
C104 H74 0.929 . S
C104 N100 1.418 . S
C104 C103 1.251 . S
C105 H72 0.930 . S
C105 C107 1.406 . S
C105 C110 1.261 . S
C106 H73 0.930 . S
C106 N108 1.325 . S
C106 C109 1.357 . S
C107 H75 0.928 . S
C107 C105 1.406 . S
C107 N108 1.261 . S
N108 Co59 2.214 . S
N108 C106 1.325 . S
N108 C107 1.261 . S
C109 H79 0.931 . S
C109 C106 1.357 . S
C109 C110 1.312 . S
C110 H81 0.930 . S
C110 C105 1.261 . S
C110 C109 1.312 . S
C111 O83 1.214 . S
C111 O91 1.234 . S
C112 H84 0.929 . S
C112 C115 1.391 . S
C112 C117 1.391 . S
C113 H85 0.929 . S
C113 C114 1.390 . S
C113 N116 1.391 . S
C114 H86 0.930 . S
C114 C113 1.390 . S
C114 C115 1.392 . S
C115 H87 0.929 . S
C115 C112 1.391 . S
C115 C114 1.392 . S
N116 Co60 2.257 . S
N116 C113 1.391 . S
N116 C117 1.388 . S
C117 H88 0.930 . S
C117 C112 1.391 . S
C117 N116 1.388 . S
Co118 O120 2.143 . S
Co118 O126 2.074 . S
Co118 O129 2.093 . S
Co118 O142 2.097 . S
Co118 N159 2.151 . S
Co118 N167 2.214 . S
Co119 O120 2.160 . S
Co119 O125 2.058 . S
Co119 O135 2.057 . S
Co119 O150 2.037 . S
Co119 N154 2.145 . S
Co119 N175 2.257 . S
O120 Co118 2.143 . S
O120 Co119 2.160 . S
C121 O122 1.278 . S
C121 O129 1.224 . S
O122 C121 1.278 . S
C123 O124 1.245 . S
C123 O135 1.232 . S
O124 C123 1.245 . S
O125 Co119 2.058 . S
O125 C151 1.269 . S
O126 Co118 2.074 . S
O126 C151 1.257 . S
H127 C152 0.930 . S
H128 C158 0.930 . S
O129 Co118 2.093 . S
O129 C121 1.224 . S
H130 C162 0.929 . S
H131 C164 0.930 . S
H132 C165 0.930 . S
H133 C163 0.929 . S
H134 C166 0.928 . S
O135 Co119 2.057 . S
O135 C123 1.232 . S
H136 C155 0.929 . S
H137 C156 0.929 . S
H138 C168 0.931 . S
H139 C160 0.929 . S
H140 C169 0.930 . S
H141 C161 0.931 . S
O142 Co118 2.097 . S
O142 C170 1.214 . S
H143 C171 0.929 . S
H144 C172 0.929 . S
H145 C173 0.930 . S
H146 C174 0.929 . S
H147 C176 0.930 . S
H148 C153 0.930 . S
H149 C157 0.930 . S
O150 Co119 2.037 . S
O150 C170 1.234 . S
C151 O125 1.269 . S
C151 O126 1.257 . S
C152 H127 0.930 . S
C152 C155 1.388 . S
C152 C157 1.418 . S
C153 H148 0.930 . S
C153 C156 1.404 . S
C153 C157 1.353 . S
N154 Co119 2.145 . S
N154 C155 1.397 . S
N154 C156 1.334 . S
C155 H136 0.929 . S
C155 C152 1.388 . S
C155 N154 1.397 . S
C156 H137 0.929 . S
C156 C153 1.404 . S
C156 N154 1.334 . S
C157 H149 0.930 . S
C157 C152 1.418 . S
C157 C153 1.353 . S
C158 H128 0.930 . S
C158 N159 1.330 . S
C158 C160 1.446 . S
N159 Co118 2.151 . S
N159 C158 1.330 . S
N159 C163 1.418 . S
C160 H139 0.929 . S
C160 C158 1.446 . S
C160 C161 1.332 . S
C161 H141 0.931 . S
C161 C160 1.332 . S
C161 C162 1.267 . S
C162 H130 0.929 . S
C162 C161 1.267 . S
C162 C163 1.251 . S
C163 H133 0.929 . S
C163 N159 1.418 . S
C163 C162 1.251 . S
C164 H131 0.930 . S
C164 C166 1.406 . S
C164 C169 1.261 . S
C165 H132 0.930 . S
C165 N167 1.325 . S
C165 C168 1.357 . S
C166 H134 0.928 . S
C166 C164 1.406 . S
C166 N167 1.261 . S
N167 Co118 2.214 . S
N167 C165 1.325 . S
N167 C166 1.261 . S
C168 H138 0.931 . S
C168 C165 1.357 . S
C168 C169 1.312 . S
C169 H140 0.930 . S
C169 C164 1.261 . S
C169 C168 1.312 . S
C170 O142 1.214 . S
C170 O150 1.234 . S
C171 H143 0.929 . S
C171 C174 1.391 . S
C171 C176 1.391 . S
C172 H144 0.929 . S
C172 C173 1.390 . S
C172 N175 1.391 . S
C173 H145 0.930 . S
C173 C172 1.390 . S
C173 C174 1.392 . S
C174 H146 0.929 . S
C174 C171 1.391 . S
C174 C173 1.392 . S
N175 Co119 2.257 . S
N175 C172 1.391 . S
N175 C176 1.388 . S
C176 H147 0.930 . S
C176 C171 1.391 . S
C176 N175 1.388 . S
Co177 O179 2.143 . S
Co177 O185 2.074 . S
Co177 O188 2.093 . S
Co177 O201 2.097 . S
Co177 N218 2.151 . S
Co177 N226 2.214 . S
Co178 O179 2.160 . S
Co178 O184 2.058 . S
Co178 O194 2.057 . S
Co178 O209 2.037 . S
Co178 N213 2.145 . S
Co178 N234 2.257 . S
O179 Co177 2.143 . S
O179 Co178 2.160 . S
C180 O181 1.278 . S
C180 O188 1.224 . S
O181 C180 1.278 . S
C182 O183 1.245 . S
C182 O194 1.232 . S
O183 C182 1.245 . S
O184 Co178 2.058 . S
O184 C210 1.269 . S
O185 Co177 2.074 . S
O185 C210 1.257 . S
H186 C211 0.930 . S
H187 C217 0.930 . S
O188 Co177 2.093 . S
O188 C180 1.224 . S
H189 C221 0.929 . S
H190 C223 0.930 . S
H191 C224 0.930 . S
H192 C222 0.929 . S
H193 C225 0.928 . S
O194 Co178 2.057 . S
O194 C182 1.232 . S
H195 C214 0.929 . S
H196 C215 0.929 . S
H197 C227 0.931 . S
H198 C219 0.929 . S
H199 C228 0.930 . S
H200 C220 0.931 . S
O201 Co177 2.097 . S
O201 C229 1.214 . S
H202 C230 0.929 . S
H203 C231 0.929 . S
H204 C232 0.930 . S
H205 C233 0.929 . S
H206 C235 0.930 . S
H207 C212 0.930 . S
H208 C216 0.930 . S
O209 Co178 2.037 . S
O209 C229 1.234 . S
C210 O184 1.269 . S
C210 O185 1.257 . S
C211 H186 0.930 . S
C211 C214 1.388 . S
C211 C216 1.418 . S
C212 H207 0.930 . S
C212 C215 1.404 . S
C212 C216 1.353 . S
N213 Co178 2.145 . S
N213 C214 1.397 . S
N213 C215 1.334 . S
C214 H195 0.929 . S
C214 C211 1.388 . S
C214 N213 1.397 . S
C215 H196 0.929 . S
C215 C212 1.404 . S
C215 N213 1.334 . S
C216 H208 0.930 . S
C216 C211 1.418 . S
C216 C212 1.353 . S
C217 H187 0.930 . S
C217 N218 1.330 . S
C217 C219 1.446 . S
N218 Co177 2.151 . S
N218 C217 1.330 . S
N218 C222 1.418 . S
C219 H198 0.929 . S
C219 C217 1.446 . S
C219 C220 1.332 . S
C220 H200 0.931 . S
C220 C219 1.332 . S
C220 C221 1.267 . S
C221 H189 0.929 . S
C221 C220 1.267 . S
C221 C222 1.251 . S
C222 H192 0.929 . S
C222 N218 1.418 . S
C222 C221 1.251 . S
C223 H190 0.930 . S
C223 C225 1.406 . S
C223 C228 1.261 . S
C224 H191 0.930 . S
C224 N226 1.325 . S
C224 C227 1.357 . S
C225 H193 0.928 . S
C225 C223 1.406 . S
C225 N226 1.261 . S
N226 Co177 2.214 . S
N226 C224 1.325 . S
N226 C225 1.261 . S
C227 H197 0.931 . S
C227 C224 1.357 . S
C227 C228 1.312 . S
C228 H199 0.930 . S
C228 C223 1.261 . S
C228 C227 1.312 . S
C229 O201 1.214 . S
C229 O209 1.234 . S
C230 H202 0.929 . S
C230 C233 1.391 . S
C230 C235 1.391 . S
C231 H203 0.929 . S
C231 C232 1.390 . S
C231 N234 1.391 . S
C232 H204 0.930 . S
C232 C231 1.390 . S
C232 C233 1.392 . S
C233 H205 0.929 . S
C233 C230 1.391 . S
C233 C232 1.392 . S
N234 Co178 2.257 . S
N234 C231 1.391 . S
N234 C235 1.388 . S
C235 H206 0.930 . S
C235 C230 1.391 . S
C235 N234 1.388 . S
Co236 O238 2.143 . S
Co236 O244 2.074 . S
Co236 O247 2.093 . S
Co236 O260 2.097 . S
Co236 N277 2.151 . S
Co236 N285 2.214 . S
Co237 O238 2.160 . S
Co237 O243 2.058 . S
Co237 O253 2.057 . S
Co237 O268 2.037 . S
Co237 N272 2.145 . S
Co237 N293 2.257 . S
O238 Co236 2.143 . S
O238 Co237 2.160 . S
C239 O240 1.278 . S
C239 O247 1.224 . S
O240 C239 1.278 . S
C241 O242 1.245 . S
C241 O253 1.232 . S
O242 C241 1.245 . S
O243 Co237 2.058 . S
O243 C269 1.269 . S
O244 Co236 2.074 . S
O244 C269 1.257 . S
H245 C270 0.930 . S
H246 C276 0.930 . S
O247 Co236 2.093 . S
O247 C239 1.224 . S
H248 C280 0.929 . S
H249 C282 0.930 . S
H250 C283 0.930 . S
H251 C281 0.929 . S
H252 C284 0.928 . S
O253 Co237 2.057 . S
O253 C241 1.232 . S
H254 C273 0.929 . S
H255 C274 0.929 . S
H256 C286 0.931 . S
H257 C278 0.929 . S
H258 C287 0.930 . S
H259 C279 0.931 . S
O260 Co236 2.097 . S
O260 C288 1.214 . S
H261 C289 0.929 . S
H262 C290 0.929 . S
H263 C291 0.930 . S
H264 C292 0.929 . S
H265 C294 0.930 . S
H266 C271 0.930 . S
H267 C275 0.930 . S
O268 Co237 2.037 . S
O268 C288 1.234 . S
C269 O243 1.269 . S
C269 O244 1.257 . S
C270 H245 0.930 . S
C270 C273 1.388 . S
C270 C275 1.418 . S
C271 H266 0.930 . S
C271 C274 1.404 . S
C271 C275 1.353 . S
N272 Co237 2.145 . S
N272 C273 1.397 . S
N272 C274 1.334 . S
C273 H254 0.929 . S
C273 C270 1.388 . S
C273 N272 1.397 . S
C274 H255 0.929 . S
C274 C271 1.404 . S
C274 N272 1.334 . S
C275 H267 0.930 . S
C275 C270 1.418 . S
C275 C271 1.353 . S
C276 H246 0.930 . S
C276 N277 1.330 . S
C276 C278 1.446 . S
N277 Co236 2.151 . S
N277 C276 1.330 . S
N277 C281 1.418 . S
C278 H257 0.929 . S
C278 C276 1.446 . S
C278 C279 1.332 . S
C279 H259 0.931 . S
C279 C278 1.332 . S
C279 C280 1.267 . S
C280 H248 0.929 . S
C280 C279 1.267 . S
C280 C281 1.251 . S
C281 H251 0.929 . S
C281 N277 1.418 . S
C281 C280 1.251 . S
C282 H249 0.930 . S
C282 C284 1.406 . S
C282 C287 1.261 . S
C283 H250 0.930 . S
C283 N285 1.325 . S
C283 C286 1.357 . S
C284 H252 0.928 . S
C284 C282 1.406 . S
C284 N285 1.261 . S
N285 Co236 2.214 . S
N285 C283 1.325 . S
N285 C284 1.261 . S
C286 H256 0.931 . S
C286 C283 1.357 . S
C286 C287 1.312 . S
C287 H258 0.930 . S
C287 C282 1.261 . S
C287 C286 1.312 . S
C288 O260 1.214 . S
C288 O268 1.234 . S
C289 H261 0.929 . S
C289 C292 1.391 . S
C289 C294 1.391 . S
C290 H262 0.929 . S
C290 C291 1.390 . S
C290 N293 1.391 . S
C291 H263 0.930 . S
C291 C290 1.390 . S
C291 C292 1.392 . S
C292 H264 0.929 . S
C292 C289 1.391 . S
C292 C291 1.392 . S
N293 Co237 2.257 . S
N293 C290 1.391 . S
N293 C294 1.388 . S
C294 H265 0.930 . S
C294 C289 1.391 . S
C294 N293 1.388 . S
Co295 O297 2.143 . S
Co295 O303 2.074 . S
Co295 O306 2.093 . S
Co295 O319 2.097 . S
Co295 N336 2.151 . S
Co295 N344 2.214 . S
Co296 O297 2.160 . S
Co296 O302 2.058 . S
Co296 O312 2.057 . S
Co296 O327 2.037 . S
Co296 N331 2.145 . S
Co296 N352 2.257 . S
O297 Co295 2.143 . S
O297 Co296 2.160 . S
C298 O299 1.278 . S
C298 O306 1.224 . S
O299 C298 1.278 . S
C300 O301 1.245 . S
C300 O312 1.232 . S
O301 C300 1.245 . S
O302 Co296 2.058 . S
O302 C328 1.269 . S
O303 Co295 2.074 . S
O303 C328 1.257 . S
H304 C329 0.930 . S
H305 C335 0.930 . S
O306 Co295 2.093 . S
O306 C298 1.224 . S
H307 C339 0.929 . S
H308 C341 0.930 . S
H309 C342 0.930 . S
H310 C340 0.929 . S
H311 C343 0.928 . S
O312 Co296 2.057 . S
O312 C300 1.232 . S
H313 C332 0.929 . S
H314 C333 0.929 . S
H315 C345 0.931 . S
H316 C337 0.929 . S
H317 C346 0.930 . S
H318 C338 0.931 . S
O319 Co295 2.097 . S
O319 C347 1.214 . S
H320 C348 0.929 . S
H321 C349 0.929 . S
H322 C350 0.930 . S
H323 C351 0.929 . S
H324 C353 0.930 . S
H325 C330 0.930 . S
H326 C334 0.930 . S
O327 Co296 2.037 . S
O327 C347 1.234 . S
C328 O302 1.269 . S
C328 O303 1.257 . S
C329 H304 0.930 . S
C329 C332 1.388 . S
C329 C334 1.418 . S
C330 H325 0.930 . S
C330 C333 1.404 . S
C330 C334 1.353 . S
N331 Co296 2.145 . S
N331 C332 1.397 . S
N331 C333 1.334 . S
C332 H313 0.929 . S
C332 C329 1.388 . S
C332 N331 1.397 . S
C333 H314 0.929 . S
C333 C330 1.404 . S
C333 N331 1.334 . S
C334 H326 0.930 . S
C334 C329 1.418 . S
C334 C330 1.353 . S
C335 H305 0.930 . S
C335 N336 1.330 . S
C335 C337 1.446 . S
N336 Co295 2.151 . S
N336 C335 1.330 . S
N336 C340 1.418 . S
C337 H316 0.929 . S
C337 C335 1.446 . S
C337 C338 1.332 . S
C338 H318 0.931 . S
C338 C337 1.332 . S
C338 C339 1.267 . S
C339 H307 0.929 . S
C339 C338 1.267 . S
C339 C340 1.251 . S
C340 H310 0.929 . S
C340 N336 1.418 . S
C340 C339 1.251 . S
C341 H308 0.930 . S
C341 C343 1.406 . S
C341 C346 1.261 . S
C342 H309 0.930 . S
C342 N344 1.325 . S
C342 C345 1.357 . S
C343 H311 0.928 . S
C343 C341 1.406 . S
C343 N344 1.261 . S
N344 Co295 2.214 . S
N344 C342 1.325 . S
N344 C343 1.261 . S
C345 H315 0.931 . S
C345 C342 1.357 . S
C345 C346 1.312 . S
C346 H317 0.930 . S
C346 C341 1.261 . S
C346 C345 1.312 . S
C347 O319 1.214 . S
C347 O327 1.234 . S
C348 H320 0.929 . S
C348 C351 1.391 . S
C348 C353 1.391 . S
C349 H321 0.929 . S
C349 C350 1.390 . S
C349 N352 1.391 . S
C350 H322 0.930 . S
C350 C349 1.390 . S
C350 C351 1.392 . S
C351 H323 0.929 . S
C351 C348 1.391 . S
C351 C350 1.392 . S
N352 Co296 2.257 . S
N352 C349 1.391 . S
N352 C353 1.388 . S
C353 H324 0.930 . S
C353 C348 1.391 . S
C353 N352 1.388 . S
Co354 O356 2.143 . S
Co354 O362 2.074 . S
Co354 O365 2.093 . S
Co354 O378 2.097 . S
Co354 N395 2.151 . S
Co354 N403 2.214 . S
Co355 O356 2.160 . S
Co355 O361 2.058 . S
Co355 O371 2.057 . S
Co355 O386 2.037 . S
Co355 N390 2.145 . S
Co355 N411 2.257 . S
O356 Co354 2.143 . S
O356 Co355 2.160 . S
C357 O358 1.278 . S
C357 O365 1.224 . S
O358 C357 1.278 . S
C359 O360 1.245 . S
C359 O371 1.232 . S
O360 C359 1.245 . S
O361 Co355 2.058 . S
O361 C387 1.269 . S
O362 Co354 2.074 . S
O362 C387 1.257 . S
H363 C388 0.930 . S
H364 C394 0.930 . S
O365 Co354 2.093 . S
O365 C357 1.224 . S
H366 C398 0.929 . S
H367 C400 0.930 . S
H368 C401 0.930 . S
H369 C399 0.929 . S
H370 C402 0.928 . S
O371 Co355 2.057 . S
O371 C359 1.232 . S
H372 C391 0.929 . S
H373 C392 0.929 . S
H374 C404 0.931 . S
H375 C396 0.929 . S
H376 C405 0.930 . S
H377 C397 0.931 . S
O378 Co354 2.097 . S
O378 C406 1.214 . S
H379 C407 0.929 . S
H380 C408 0.929 . S
H381 C409 0.930 . S
H382 C410 0.929 . S
H383 C412 0.930 . S
H384 C389 0.930 . S
H385 C393 0.930 . S
O386 Co355 2.037 . S
O386 C406 1.234 . S
C387 O361 1.269 . S
C387 O362 1.257 . S
C388 H363 0.930 . S
C388 C391 1.388 . S
C388 C393 1.418 . S
C389 H384 0.930 . S
C389 C392 1.404 . S
C389 C393 1.353 . S
N390 Co355 2.145 . S
N390 C391 1.397 . S
N390 C392 1.334 . S
C391 H372 0.929 . S
C391 C388 1.388 . S
C391 N390 1.397 . S
C392 H373 0.929 . S
C392 C389 1.404 . S
C392 N390 1.334 . S
C393 H385 0.930 . S
C393 C388 1.418 . S
C393 C389 1.353 . S
C394 H364 0.930 . S
C394 N395 1.330 . S
C394 C396 1.446 . S
N395 Co354 2.151 . S
N395 C394 1.330 . S
N395 C399 1.418 . S
C396 H375 0.929 . S
C396 C394 1.446 . S
C396 C397 1.332 . S
C397 H377 0.931 . S
C397 C396 1.332 . S
C397 C398 1.267 . S
C398 H366 0.929 . S
C398 C397 1.267 . S
C398 C399 1.251 . S
C399 H369 0.929 . S
C399 N395 1.418 . S
C399 C398 1.251 . S
C400 H367 0.930 . S
C400 C402 1.406 . S
C400 C405 1.261 . S
C401 H368 0.930 . S
C401 N403 1.325 . S
C401 C404 1.357 . S
C402 H370 0.928 . S
C402 C400 1.406 . S
C402 N403 1.261 . S
N403 Co354 2.214 . S
N403 C401 1.325 . S
N403 C402 1.261 . S
C404 H374 0.931 . S
C404 C401 1.357 . S
C404 C405 1.312 . S
C405 H376 0.930 . S
C405 C400 1.261 . S
C405 C404 1.312 . S
C406 O378 1.214 . S
C406 O386 1.234 . S
C407 H379 0.929 . S
C407 C410 1.391 . S
C407 C412 1.391 . S
C408 H380 0.929 . S
C408 C409 1.390 . S
C408 N411 1.391 . S
C409 H381 0.930 . S
C409 C408 1.390 . S
C409 C410 1.392 . S
C410 H382 0.929 . S
C410 C407 1.391 . S
C410 C409 1.392 . S
N411 Co355 2.257 . S
N411 C408 1.391 . S
N411 C412 1.388 . S
C412 H383 0.930 . S
C412 C407 1.391 . S
C412 N411 1.388 . S
Co413 O415 2.143 . S
Co413 O421 2.074 . S
Co413 O424 2.093 . S
Co413 O437 2.097 . S
Co413 N454 2.151 . S
Co413 N462 2.214 . S
Co414 O415 2.160 . S
Co414 O420 2.058 . S
Co414 O430 2.057 . S
Co414 O445 2.037 . S
Co414 N449 2.145 . S
Co414 N470 2.257 . S
O415 Co413 2.143 . S
O415 Co414 2.160 . S
C416 O417 1.278 . S
C416 O424 1.224 . S
O417 C416 1.278 . S
C418 O419 1.245 . S
C418 O430 1.232 . S
O419 C418 1.245 . S
O420 Co414 2.058 . S
O420 C446 1.269 . S
O421 Co413 2.074 . S
O421 C446 1.257 . S
H422 C447 0.930 . S
H423 C453 0.930 . S
O424 Co413 2.093 . S
O424 C416 1.224 . S
H425 C457 0.929 . S
H426 C459 0.930 . S
H427 C460 0.930 . S
H428 C458 0.929 . S
H429 C461 0.928 . S
O430 Co414 2.057 . S
O430 C418 1.232 . S
H431 C450 0.929 . S
H432 C451 0.929 . S
H433 C463 0.931 . S
H434 C455 0.929 . S
H435 C464 0.930 . S
H436 C456 0.931 . S
O437 Co413 2.097 . S
O437 C465 1.214 . S
H438 C466 0.929 . S
H439 C467 0.929 . S
H440 C468 0.930 . S
H441 C469 0.929 . S
H442 C471 0.930 . S
H443 C448 0.930 . S
H444 C452 0.930 . S
O445 Co414 2.037 . S
O445 C465 1.234 . S
C446 O420 1.269 . S
C446 O421 1.257 . S
C447 H422 0.930 . S
C447 C450 1.388 . S
C447 C452 1.418 . S
C448 H443 0.930 . S
C448 C451 1.404 . S
C448 C452 1.353 . S
N449 Co414 2.145 . S
N449 C450 1.397 . S
N449 C451 1.334 . S
C450 H431 0.929 . S
C450 C447 1.388 . S
C450 N449 1.397 . S
C451 H432 0.929 . S
C451 C448 1.404 . S
C451 N449 1.334 . S
C452 H444 0.930 . S
C452 C447 1.418 . S
C452 C448 1.353 . S
C453 H423 0.930 . S
C453 N454 1.330 . S
C453 C455 1.446 . S
N454 Co413 2.151 . S
N454 C453 1.330 . S
N454 C458 1.418 . S
C455 H434 0.929 . S
C455 C453 1.446 . S
C455 C456 1.332 . S
C456 H436 0.931 . S
C456 C455 1.332 . S
C456 C457 1.267 . S
C457 H425 0.929 . S
C457 C456 1.267 . S
C457 C458 1.251 . S
C458 H428 0.929 . S
C458 N454 1.418 . S
C458 C457 1.251 . S
C459 H426 0.930 . S
C459 C461 1.406 . S
C459 C464 1.261 . S
C460 H427 0.930 . S
C460 N462 1.325 . S
C460 C463 1.357 . S
C461 H429 0.928 . S
C461 C459 1.406 . S
C461 N462 1.261 . S
N462 Co413 2.214 . S
N462 C460 1.325 . S
N462 C461 1.261 . S
C463 H433 0.931 . S
C463 C460 1.357 . S
C463 C464 1.312 . S
C464 H435 0.930 . S
C464 C459 1.261 . S
C464 C463 1.312 . S
C465 O437 1.214 . S
C465 O445 1.234 . S
C466 H438 0.929 . S
C466 C469 1.391 . S
C466 C471 1.391 . S
C467 H439 0.929 . S
C467 C468 1.390 . S
C467 N470 1.391 . S
C468 H440 0.930 . S
C468 C467 1.390 . S
C468 C469 1.392 . S
C469 H441 0.929 . S
C469 C466 1.391 . S
C469 C468 1.392 . S
N470 Co414 2.257 . S
N470 C467 1.391 . S
N470 C471 1.388 . S
C471 H442 0.930 . S
C471 C466 1.391 . S
C471 N470 1.388 . S
Co472 O474 2.143 . S
Co472 O480 2.074 . S
Co472 O483 2.093 . S
Co472 O496 2.097 . S
Co472 N513 2.151 . S
Co472 N521 2.214 . S
Co473 O474 2.160 . S
Co473 O479 2.058 . S
Co473 O489 2.057 . S
Co473 O504 2.037 . S
Co473 N508 2.145 . S
Co473 N529 2.257 . S
O474 Co472 2.143 . S
O474 Co473 2.160 . S
C475 O476 1.278 . S
C475 O483 1.224 . S
O476 C475 1.278 . S
C477 O478 1.245 . S
C477 O489 1.232 . S
O478 C477 1.245 . S
O479 Co473 2.058 . S
O479 C505 1.269 . S
O480 Co472 2.074 . S
O480 C505 1.257 . S
H481 C506 0.930 . S
H482 C512 0.930 . S
O483 Co472 2.093 . S
O483 C475 1.224 . S
H484 C516 0.929 . S
H485 C518 0.930 . S
H486 C519 0.930 . S
H487 C517 0.929 . S
H488 C520 0.928 . S
O489 Co473 2.057 . S
O489 C477 1.232 . S
H490 C509 0.929 . S
H491 C510 0.929 . S
H492 C522 0.931 . S
H493 C514 0.929 . S
H494 C523 0.930 . S
H495 C515 0.931 . S
O496 Co472 2.097 . S
O496 C524 1.214 . S
H497 C525 0.929 . S
H498 C526 0.929 . S
H499 C527 0.930 . S
H500 C528 0.929 . S
H501 C530 0.930 . S
H502 C507 0.930 . S
H503 C511 0.930 . S
O504 Co473 2.037 . S
O504 C524 1.234 . S
C505 O479 1.269 . S
C505 O480 1.257 . S
C506 H481 0.930 . S
C506 C509 1.388 . S
C506 C511 1.418 . S
C507 H502 0.930 . S
C507 C510 1.404 . S
C507 C511 1.353 . S
N508 Co473 2.145 . S
N508 C509 1.397 . S
N508 C510 1.334 . S
C509 H490 0.929 . S
C509 C506 1.388 . S
C509 N508 1.397 . S
C510 H491 0.929 . S
C510 C507 1.404 . S
C510 N508 1.334 . S
C511 H503 0.930 . S
C511 C506 1.418 . S
C511 C507 1.353 . S
C512 H482 0.930 . S
C512 N513 1.330 . S
C512 C514 1.446 . S
N513 Co472 2.151 . S
N513 C512 1.330 . S
N513 C517 1.418 . S
C514 H493 0.929 . S
C514 C512 1.446 . S
C514 C515 1.332 . S
C515 H495 0.931 . S
C515 C514 1.332 . S
C515 C516 1.267 . S
C516 H484 0.929 . S
C516 C515 1.267 . S
C516 C517 1.251 . S
C517 H487 0.929 . S
C517 N513 1.418 . S
C517 C516 1.251 . S
C518 H485 0.930 . S
C518 C520 1.406 . S
C518 C523 1.261 . S
C519 H486 0.930 . S
C519 N521 1.325 . S
C519 C522 1.357 . S
C520 H488 0.928 . S
C520 C518 1.406 . S
C520 N521 1.261 . S
N521 Co472 2.214 . S
N521 C519 1.325 . S
N521 C520 1.261 . S
C522 H492 0.931 . S
C522 C519 1.357 . S
C522 C523 1.312 . S
C523 H494 0.930 . S
C523 C518 1.261 . S
C523 C522 1.312 . S
C524 O496 1.214 . S
C524 O504 1.234 . S
C525 H497 0.929 . S
C525 C528 1.391 . S
C525 C530 1.391 . S
C526 H498 0.929 . S
C526 C527 1.390 . S
C526 N529 1.391 . S
C527 H499 0.930 . S
C527 C526 1.390 . S
C527 C528 1.392 . S
C528 H500 0.929 . S
C528 C525 1.391 . S
C528 C527 1.392 . S
N529 Co473 2.257 . S
N529 C526 1.391 . S
N529 C530 1.388 . S
C530 H501 0.930 . S
C530 C525 1.391 . S
C530 N529 1.388 . S
Co531 O533 2.143 . S
Co531 O539 2.074 . S
Co531 O542 2.093 . S
Co531 O555 2.097 . S
Co531 N572 2.151 . S
Co531 N580 2.214 . S
Co532 O533 2.160 . S
Co532 O538 2.058 . S
Co532 O548 2.057 . S
Co532 O563 2.037 . S
Co532 N567 2.145 . S
Co532 N588 2.257 . S
O533 Co531 2.143 . S
O533 Co532 2.160 . S
C534 O535 1.278 . S
C534 O542 1.224 . S
O535 C534 1.278 . S
C536 O537 1.245 . S
C536 O548 1.232 . S
O537 C536 1.245 . S
O538 Co532 2.058 . S
O538 C564 1.269 . S
O539 Co531 2.074 . S
O539 C564 1.257 . S
H540 C565 0.930 . S
H541 C571 0.930 . S
O542 Co531 2.093 . S
O542 C534 1.224 . S
H543 C575 0.929 . S
H544 C577 0.930 . S
H545 C578 0.930 . S
H546 C576 0.929 . S
H547 C579 0.928 . S
O548 Co532 2.057 . S
O548 C536 1.232 . S
H549 C568 0.929 . S
H550 C569 0.929 . S
H551 C581 0.931 . S
H552 C573 0.929 . S
H553 C582 0.930 . S
H554 C574 0.931 . S
O555 Co531 2.097 . S
O555 C583 1.214 . S
H556 C584 0.929 . S
H557 C585 0.929 . S
H558 C586 0.930 . S
H559 C587 0.929 . S
H560 C589 0.930 . S
H561 C566 0.930 . S
H562 C570 0.930 . S
O563 Co532 2.037 . S
O563 C583 1.234 . S
C564 O538 1.269 . S
C564 O539 1.257 . S
C565 H540 0.930 . S
C565 C568 1.388 . S
C565 C570 1.418 . S
C566 H561 0.930 . S
C566 C569 1.404 . S
C566 C570 1.353 . S
N567 Co532 2.145 . S
N567 C568 1.397 . S
N567 C569 1.334 . S
C568 H549 0.929 . S
C568 C565 1.388 . S
C568 N567 1.397 . S
C569 H550 0.929 . S
C569 C566 1.404 . S
C569 N567 1.334 . S
C570 H562 0.930 . S
C570 C565 1.418 . S
C570 C566 1.353 . S
C571 H541 0.930 . S
C571 N572 1.330 . S
C571 C573 1.446 . S
N572 Co531 2.151 . S
N572 C571 1.330 . S
N572 C576 1.418 . S
C573 H552 0.929 . S
C573 C571 1.446 . S
C573 C574 1.332 . S
C574 H554 0.931 . S
C574 C573 1.332 . S
C574 C575 1.267 . S
C575 H543 0.929 . S
C575 C574 1.267 . S
C575 C576 1.251 . S
C576 H546 0.929 . S
C576 N572 1.418 . S
C576 C575 1.251 . S
C577 H544 0.930 . S
C577 C579 1.406 . S
C577 C582 1.261 . S
C578 H545 0.930 . S
C578 N580 1.325 . S
C578 C581 1.357 . S
C579 H547 0.928 . S
C579 C577 1.406 . S
C579 N580 1.261 . S
N580 Co531 2.214 . S
N580 C578 1.325 . S
N580 C579 1.261 . S
C581 H551 0.931 . S
C581 C578 1.357 . S
C581 C582 1.312 . S
C582 H553 0.930 . S
C582 C577 1.261 . S
C582 C581 1.312 . S
C583 O555 1.214 . S
C583 O563 1.234 . S
C584 H556 0.929 . S
C584 C587 1.391 . S
C584 C589 1.391 . S
C585 H557 0.929 . S
C585 C586 1.390 . S
C585 N588 1.391 . S
C586 H558 0.930 . S
C586 C585 1.390 . S
C586 C587 1.392 . S
C587 H559 0.929 . S
C587 C584 1.391 . S
C587 C586 1.392 . S
N588 Co532 2.257 . S
N588 C585 1.391 . S
N588 C589 1.388 . S
C589 H560 0.930 . S
C589 C584 1.391 . S
C589 N588 1.388 . S
Co590 O592 2.143 . S
Co590 O598 2.074 . S
Co590 O601 2.093 . S
Co590 O614 2.097 . S
Co590 N631 2.151 . S
Co590 N639 2.214 . S
Co591 O592 2.160 . S
Co591 O597 2.058 . S
Co591 O607 2.057 . S
Co591 O622 2.037 . S
Co591 N626 2.145 . S
Co591 N647 2.257 . S
O592 Co590 2.143 . S
O592 Co591 2.160 . S
C593 O594 1.278 . S
C593 O601 1.224 . S
O594 C593 1.278 . S
C595 O596 1.245 . S
C595 O607 1.232 . S
O596 C595 1.245 . S
O597 Co591 2.058 . S
O597 C623 1.269 . S
O598 Co590 2.074 . S
O598 C623 1.257 . S
H599 C624 0.930 . S
H600 C630 0.930 . S
O601 Co590 2.093 . S
O601 C593 1.224 . S
H602 C634 0.929 . S
H603 C636 0.930 . S
H604 C637 0.930 . S
H605 C635 0.929 . S
H606 C638 0.928 . S
O607 Co591 2.057 . S
O607 C595 1.232 . S
H608 C627 0.929 . S
H609 C628 0.929 . S
H610 C640 0.931 . S
H611 C632 0.929 . S
H612 C641 0.930 . S
H613 C633 0.931 . S
O614 Co590 2.097 . S
O614 C642 1.214 . S
H615 C643 0.929 . S
H616 C644 0.929 . S
H617 C645 0.930 . S
H618 C646 0.929 . S
H619 C648 0.930 . S
H620 C625 0.930 . S
H621 C629 0.930 . S
O622 Co591 2.037 . S
O622 C642 1.234 . S
C623 O597 1.269 . S
C623 O598 1.257 . S
C624 H599 0.930 . S
C624 C627 1.388 . S
C624 C629 1.418 . S
C625 H620 0.930 . S
C625 C628 1.404 . S
C625 C629 1.353 . S
N626 Co591 2.145 . S
N626 C627 1.397 . S
N626 C628 1.334 . S
C627 H608 0.929 . S
C627 C624 1.388 . S
C627 N626 1.397 . S
C628 H609 0.929 . S
C628 C625 1.404 . S
C628 N626 1.334 . S
C629 H621 0.930 . S
C629 C624 1.418 . S
C629 C625 1.353 . S
C630 H600 0.930 . S
C630 N631 1.330 . S
C630 C632 1.446 . S
N631 Co590 2.151 . S
N631 C630 1.330 . S
N631 C635 1.418 . S
C632 H611 0.929 . S
C632 C630 1.446 . S
C632 C633 1.332 . S
C633 H613 0.931 . S
C633 C632 1.332 . S
C633 C634 1.267 . S
C634 H602 0.929 . S
C634 C633 1.267 . S
C634 C635 1.251 . S
C635 H605 0.929 . S
C635 N631 1.418 . S
C635 C634 1.251 . S
C636 H603 0.930 . S
C636 C638 1.406 . S
C636 C641 1.261 . S
C637 H604 0.930 . S
C637 N639 1.325 . S
C637 C640 1.357 . S
C638 H606 0.928 . S
C638 C636 1.406 . S
C638 N639 1.261 . S
N639 Co590 2.214 . S
N639 C637 1.325 . S
N639 C638 1.261 . S
C640 H610 0.931 . S
C640 C637 1.357 . S
C640 C641 1.312 . S
C641 H612 0.930 . S
C641 C636 1.261 . S
C641 C640 1.312 . S
C642 O614 1.214 . S
C642 O622 1.234 . S
C643 H615 0.929 . S
C643 C646 1.391 . S
C643 C648 1.391 . S
C644 H616 0.929 . S
C644 C645 1.390 . S
C644 N647 1.391 . S
C645 H617 0.930 . S
C645 C644 1.390 . S
C645 C646 1.392 . S
C646 H618 0.929 . S
C646 C643 1.391 . S
C646 C645 1.392 . S
N647 Co591 2.257 . S
N647 C644 1.391 . S
N647 C648 1.388 . S
C648 H619 0.930 . S
C648 C643 1.391 . S
C648 N647 1.388 . S
Co649 O651 2.143 . S
Co649 O657 2.074 . S
Co649 O660 2.093 . S
Co649 O673 2.097 . S
Co649 N690 2.151 . S
Co649 N698 2.214 . S
Co650 O651 2.160 . S
Co650 O656 2.058 . S
Co650 O666 2.057 . S
Co650 O681 2.037 . S
Co650 N685 2.145 . S
Co650 N706 2.257 . S
O651 Co649 2.143 . S
O651 Co650 2.160 . S
C652 O653 1.278 . S
C652 O660 1.224 . S
O653 C652 1.278 . S
C654 O655 1.245 . S
C654 O666 1.232 . S
O655 C654 1.245 . S
O656 Co650 2.058 . S
O656 C682 1.269 . S
O657 Co649 2.074 . S
O657 C682 1.257 . S
H658 C683 0.930 . S
H659 C689 0.930 . S
O660 Co649 2.093 . S
O660 C652 1.224 . S
H661 C693 0.929 . S
H662 C695 0.930 . S
H663 C696 0.930 . S
H664 C694 0.929 . S
H665 C697 0.928 . S
O666 Co650 2.057 . S
O666 C654 1.232 . S
H667 C686 0.929 . S
H668 C687 0.929 . S
H669 C699 0.931 . S
H670 C691 0.929 . S
H671 C700 0.930 . S
H672 C692 0.931 . S
O673 Co649 2.097 . S
O673 C701 1.214 . S
H674 C702 0.929 . S
H675 C703 0.929 . S
H676 C704 0.930 . S
H677 C705 0.929 . S
H678 C707 0.930 . S
H679 C684 0.930 . S
H680 C688 0.930 . S
O681 Co650 2.037 . S
O681 C701 1.234 . S
C682 O656 1.269 . S
C682 O657 1.257 . S
C683 H658 0.930 . S
C683 C686 1.388 . S
C683 C688 1.418 . S
C684 H679 0.930 . S
C684 C687 1.404 . S
C684 C688 1.353 . S
N685 Co650 2.145 . S
N685 C686 1.397 . S
N685 C687 1.334 . S
C686 H667 0.929 . S
C686 C683 1.388 . S
C686 N685 1.397 . S
C687 H668 0.929 . S
C687 C684 1.404 . S
C687 N685 1.334 . S
C688 H680 0.930 . S
C688 C683 1.418 . S
C688 C684 1.353 . S
C689 H659 0.930 . S
C689 N690 1.330 . S
C689 C691 1.446 . S
N690 Co649 2.151 . S
N690 C689 1.330 . S
N690 C694 1.418 . S
C691 H670 0.929 . S
C691 C689 1.446 . S
C691 C692 1.332 . S
C692 H672 0.931 . S
C692 C691 1.332 . S
C692 C693 1.267 . S
C693 H661 0.929 . S
C693 C692 1.267 . S
C693 C694 1.251 . S
C694 H664 0.929 . S
C694 N690 1.418 . S
C694 C693 1.251 . S
C695 H662 0.930 . S
C695 C697 1.406 . S
C695 C700 1.261 . S
C696 H663 0.930 . S
C696 N698 1.325 . S
C696 C699 1.357 . S
C697 H665 0.928 . S
C697 C695 1.406 . S
C697 N698 1.261 . S
N698 Co649 2.214 . S
N698 C696 1.325 . S
N698 C697 1.261 . S
C699 H669 0.931 . S
C699 C696 1.357 . S
C699 C700 1.312 . S
C700 H671 0.930 . S
C700 C695 1.261 . S
C700 C699 1.312 . S
C701 O673 1.214 . S
C701 O681 1.234 . S
C702 H674 0.929 . S
C702 C705 1.391 . S
C702 C707 1.391 . S
C703 H675 0.929 . S
C703 C704 1.390 . S
C703 N706 1.391 . S
C704 H676 0.930 . S
C704 C703 1.390 . S
C704 C705 1.392 . S
C705 H677 0.929 . S
C705 C702 1.391 . S
C705 C704 1.392 . S
N706 Co650 2.257 . S
N706 C703 1.391 . S
N706 C707 1.388 . S
C707 H678 0.930 . S
C707 C702 1.391 . S
C707 N706 1.388 . S
Co708 O710 2.143 . S
Co708 O716 2.074 . S
Co708 O719 2.093 . S
Co708 O732 2.097 . S
Co708 N749 2.151 . S
Co708 N757 2.214 . S
Co709 O710 2.160 . S
Co709 O715 2.058 . S
Co709 O725 2.057 . S
Co709 O740 2.037 . S
Co709 N744 2.145 . S
Co709 N765 2.257 . S
O710 Co708 2.143 . S
O710 Co709 2.160 . S
C711 O712 1.278 . S
C711 O719 1.224 . S
O712 C711 1.278 . S
C713 O714 1.245 . S
C713 O725 1.232 . S
O714 C713 1.245 . S
O715 Co709 2.058 . S
O715 C741 1.269 . S
O716 Co708 2.074 . S
O716 C741 1.257 . S
H717 C742 0.930 . S
H718 C748 0.930 . S
O719 Co708 2.093 . S
O719 C711 1.224 . S
H720 C752 0.929 . S
H721 C754 0.930 . S
H722 C755 0.930 . S
H723 C753 0.929 . S
H724 C756 0.928 . S
O725 Co709 2.057 . S
O725 C713 1.232 . S
H726 C745 0.929 . S
H727 C746 0.929 . S
H728 C758 0.931 . S
H729 C750 0.929 . S
H730 C759 0.930 . S
H731 C751 0.931 . S
O732 Co708 2.097 . S
O732 C760 1.214 . S
H733 C761 0.929 . S
H734 C762 0.929 . S
H735 C763 0.930 . S
H736 C764 0.929 . S
H737 C766 0.930 . S
H738 C743 0.930 . S
H739 C747 0.930 . S
O740 Co709 2.037 . S
O740 C760 1.234 . S
C741 O715 1.269 . S
C741 O716 1.257 . S
C742 H717 0.930 . S
C742 C745 1.388 . S
C742 C747 1.418 . S
C743 H738 0.930 . S
C743 C746 1.404 . S
C743 C747 1.353 . S
N744 Co709 2.145 . S
N744 C745 1.397 . S
N744 C746 1.334 . S
C745 H726 0.929 . S
C745 C742 1.388 . S
C745 N744 1.397 . S
C746 H727 0.929 . S
C746 C743 1.404 . S
C746 N744 1.334 . S
C747 H739 0.930 . S
C747 C742 1.418 . S
C747 C743 1.353 . S
C748 H718 0.930 . S
C748 N749 1.330 . S
C748 C750 1.446 . S
N749 Co708 2.151 . S
N749 C748 1.330 . S
N749 C753 1.418 . S
C750 H729 0.929 . S
C750 C748 1.446 . S
C750 C751 1.332 . S
C751 H731 0.931 . S
C751 C750 1.332 . S
C751 C752 1.267 . S
C752 H720 0.929 . S
C752 C751 1.267 . S
C752 C753 1.251 . S
C753 H723 0.929 . S
C753 N749 1.418 . S
C753 C752 1.251 . S
C754 H721 0.930 . S
C754 C756 1.406 . S
C754 C759 1.261 . S
C755 H722 0.930 . S
C755 N757 1.325 . S
C755 C758 1.357 . S
C756 H724 0.928 . S
C756 C754 1.406 . S
C756 N757 1.261 . S
N757 Co708 2.214 . S
N757 C755 1.325 . S
N757 C756 1.261 . S
C758 H728 0.931 . S
C758 C755 1.357 . S
C758 C759 1.312 . S
C759 H730 0.930 . S
C759 C754 1.261 . S
C759 C758 1.312 . S
C760 O732 1.214 . S
C760 O740 1.234 . S
C761 H733 0.929 . S
C761 C764 1.391 . S
C761 C766 1.391 . S
C762 H734 0.929 . S
C762 C763 1.390 . S
C762 N765 1.391 . S
C763 H735 0.930 . S
C763 C762 1.390 . S
C763 C764 1.392 . S
C764 H736 0.929 . S
C764 C761 1.391 . S
C764 C763 1.392 . S
N765 Co709 2.257 . S
N765 C762 1.391 . S
N765 C766 1.388 . S
C766 H737 0.930 . S
C766 C761 1.391 . S
C766 N765 1.388 . S
Co767 O769 2.143 . S
Co767 O775 2.074 . S
Co767 O778 2.093 . S
Co767 O791 2.097 . S
Co767 N808 2.151 . S
Co767 N816 2.214 . S
Co768 O769 2.160 . S
Co768 O774 2.058 . S
Co768 O784 2.057 . S
Co768 O799 2.037 . S
Co768 N803 2.145 . S
Co768 N824 2.257 . S
O769 Co767 2.143 . S
O769 Co768 2.160 . S
C770 O771 1.278 . S
C770 O778 1.224 . S
O771 C770 1.278 . S
C772 O773 1.245 . S
C772 O784 1.232 . S
O773 C772 1.245 . S
O774 Co768 2.058 . S
O774 C800 1.269 . S
O775 Co767 2.074 . S
O775 C800 1.257 . S
H776 C801 0.930 . S
H777 C807 0.930 . S
O778 Co767 2.093 . S
O778 C770 1.224 . S
H779 C811 0.929 . S
H780 C813 0.930 . S
H781 C814 0.930 . S
H782 C812 0.929 . S
H783 C815 0.928 . S
O784 Co768 2.057 . S
O784 C772 1.232 . S
H785 C804 0.929 . S
H786 C805 0.929 . S
H787 C817 0.931 . S
H788 C809 0.929 . S
H789 C818 0.930 . S
H790 C810 0.931 . S
O791 Co767 2.097 . S
O791 C819 1.214 . S
H792 C820 0.929 . S
H793 C821 0.929 . S
H794 C822 0.930 . S
H795 C823 0.929 . S
H796 C825 0.930 . S
H797 C802 0.930 . S
H798 C806 0.930 . S
O799 Co768 2.037 . S
O799 C819 1.234 . S
C800 O774 1.269 . S
C800 O775 1.257 . S
C801 H776 0.930 . S
C801 C804 1.388 . S
C801 C806 1.418 . S
C802 H797 0.930 . S
C802 C805 1.404 . S
C802 C806 1.353 . S
N803 Co768 2.145 . S
N803 C804 1.397 . S
N803 C805 1.334 . S
C804 H785 0.929 . S
C804 C801 1.388 . S
C804 N803 1.397 . S
C805 H786 0.929 . S
C805 C802 1.404 . S
C805 N803 1.334 . S
C806 H798 0.930 . S
C806 C801 1.418 . S
C806 C802 1.353 . S
C807 H777 0.930 . S
C807 N808 1.330 . S
C807 C809 1.446 . S
N808 Co767 2.151 . S
N808 C807 1.330 . S
N808 C812 1.418 . S
C809 H788 0.929 . S
C809 C807 1.446 . S
C809 C810 1.332 . S
C810 H790 0.931 . S
C810 C809 1.332 . S
C810 C811 1.267 . S
C811 H779 0.929 . S
C811 C810 1.267 . S
C811 C812 1.251 . S
C812 H782 0.929 . S
C812 N808 1.418 . S
C812 C811 1.251 . S
C813 H780 0.930 . S
C813 C815 1.406 . S
C813 C818 1.261 . S
C814 H781 0.930 . S
C814 N816 1.325 . S
C814 C817 1.357 . S
C815 H783 0.928 . S
C815 C813 1.406 . S
C815 N816 1.261 . S
N816 Co767 2.214 . S
N816 C814 1.325 . S
N816 C815 1.261 . S
C817 H787 0.931 . S
C817 C814 1.357 . S
C817 C818 1.312 . S
C818 H789 0.930 . S
C818 C813 1.261 . S
C818 C817 1.312 . S
C819 O791 1.214 . S
C819 O799 1.234 . S
C820 H792 0.929 . S
C820 C823 1.391 . S
C820 C825 1.391 . S
C821 H793 0.929 . S
C821 C822 1.390 . S
C821 N824 1.391 . S
C822 H794 0.930 . S
C822 C821 1.390 . S
C822 C823 1.392 . S
C823 H795 0.929 . S
C823 C820 1.391 . S
C823 C822 1.392 . S
N824 Co768 2.257 . S
N824 C821 1.391 . S
N824 C825 1.388 . S
C825 H796 0.930 . S
C825 C820 1.391 . S
C825 N824 1.388 . S
Co826 O828 2.143 . S
Co826 O834 2.074 . S
Co826 O837 2.093 . S
Co826 O850 2.097 . S
Co826 N867 2.151 . S
Co826 N875 2.214 . S
Co827 O828 2.160 . S
Co827 O833 2.058 . S
Co827 O843 2.057 . S
Co827 O858 2.037 . S
Co827 N862 2.145 . S
Co827 N883 2.257 . S
O828 Co826 2.143 . S
O828 Co827 2.160 . S
C829 O830 1.278 . S
C829 O837 1.224 . S
O830 C829 1.278 . S
C831 O832 1.245 . S
C831 O843 1.232 . S
O832 C831 1.245 . S
O833 Co827 2.058 . S
O833 C859 1.269 . S
O834 Co826 2.074 . S
O834 C859 1.257 . S
H835 C860 0.930 . S
H836 C866 0.930 . S
O837 Co826 2.093 . S
O837 C829 1.224 . S
H838 C870 0.929 . S
H839 C872 0.930 . S
H840 C873 0.930 . S
H841 C871 0.929 . S
H842 C874 0.928 . S
O843 Co827 2.057 . S
O843 C831 1.232 . S
H844 C863 0.929 . S
H845 C864 0.929 . S
H846 C876 0.931 . S
H847 C868 0.929 . S
H848 C877 0.930 . S
H849 C869 0.931 . S
O850 Co826 2.097 . S
O850 C878 1.214 . S
H851 C879 0.929 . S
H852 C880 0.929 . S
H853 C881 0.930 . S
H854 C882 0.929 . S
H855 C884 0.930 . S
H856 C861 0.930 . S
H857 C865 0.930 . S
O858 Co827 2.037 . S
O858 C878 1.234 . S
C859 O833 1.269 . S
C859 O834 1.257 . S
C860 H835 0.930 . S
C860 C863 1.388 . S
C860 C865 1.418 . S
C861 H856 0.930 . S
C861 C864 1.404 . S
C861 C865 1.353 . S
N862 Co827 2.145 . S
N862 C863 1.397 . S
N862 C864 1.334 . S
C863 H844 0.929 . S
C863 C860 1.388 . S
C863 N862 1.397 . S
C864 H845 0.929 . S
C864 C861 1.404 . S
C864 N862 1.334 . S
C865 H857 0.930 . S
C865 C860 1.418 . S
C865 C861 1.353 . S
C866 H836 0.930 . S
C866 N867 1.330 . S
C866 C868 1.446 . S
N867 Co826 2.151 . S
N867 C866 1.330 . S
N867 C871 1.418 . S
C868 H847 0.929 . S
C868 C866 1.446 . S
C868 C869 1.332 . S
C869 H849 0.931 . S
C869 C868 1.332 . S
C869 C870 1.267 . S
C870 H838 0.929 . S
C870 C869 1.267 . S
C870 C871 1.251 . S
C871 H841 0.929 . S
C871 N867 1.418 . S
C871 C870 1.251 . S
C872 H839 0.930 . S
C872 C874 1.406 . S
C872 C877 1.261 . S
C873 H840 0.930 . S
C873 N875 1.325 . S
C873 C876 1.357 . S
C874 H842 0.928 . S
C874 C872 1.406 . S
C874 N875 1.261 . S
N875 Co826 2.214 . S
N875 C873 1.325 . S
N875 C874 1.261 . S
C876 H846 0.931 . S
C876 C873 1.357 . S
C876 C877 1.312 . S
C877 H848 0.930 . S
C877 C872 1.261 . S
C877 C876 1.312 . S
C878 O850 1.214 . S
C878 O858 1.234 . S
C879 H851 0.929 . S
C879 C882 1.391 . S
C879 C884 1.391 . S
C880 H852 0.929 . S
C880 C881 1.390 . S
C880 N883 1.391 . S
C881 H853 0.930 . S
C881 C880 1.390 . S
C881 C882 1.392 . S
C882 H854 0.929 . S
C882 C879 1.391 . S
C882 C881 1.392 . S
N883 Co827 2.257 . S
N883 C880 1.391 . S
N883 C884 1.388 . S
C884 H855 0.930 . S
C884 C879 1.391 . S
C884 N883 1.388 . S
Co885 O887 2.143 . S
Co885 O893 2.074 . S
Co885 O896 2.093 . S
Co885 O909 2.097 . S
Co885 N926 2.151 . S
Co885 N934 2.214 . S
Co886 O887 2.160 . S
Co886 O892 2.058 . S
Co886 O902 2.057 . S
Co886 O917 2.037 . S
Co886 N921 2.145 . S
Co886 N942 2.257 . S
O887 Co885 2.143 . S
O887 Co886 2.160 . S
C888 O889 1.278 . S
C888 O896 1.224 . S
O889 C888 1.278 . S
C890 O891 1.245 . S
C890 O902 1.232 . S
O891 C890 1.245 . S
O892 Co886 2.058 . S
O892 C918 1.269 . S
O893 Co885 2.074 . S
O893 C918 1.257 . S
H894 C919 0.930 . S
H895 C925 0.930 . S
O896 Co885 2.093 . S
O896 C888 1.224 . S
H897 C929 0.929 . S
H898 C931 0.930 . S
H899 C932 0.930 . S
H900 C930 0.929 . S
H901 C933 0.928 . S
O902 Co886 2.057 . S
O902 C890 1.232 . S
H903 C922 0.929 . S
H904 C923 0.929 . S
H905 C935 0.931 . S
H906 C927 0.929 . S
H907 C936 0.930 . S
H908 C928 0.931 . S
O909 Co885 2.097 . S
O909 C937 1.214 . S
H910 C938 0.929 . S
H911 C939 0.929 . S
H912 C940 0.930 . S
H913 C941 0.929 . S
H914 C943 0.930 . S
H915 C920 0.930 . S
H916 C924 0.930 . S
O917 Co886 2.037 . S
O917 C937 1.234 . S
C918 O892 1.269 . S
C918 O893 1.257 . S
C919 H894 0.930 . S
C919 C922 1.388 . S
C919 C924 1.418 . S
C920 H915 0.930 . S
C920 C923 1.404 . S
C920 C924 1.353 . S
N921 Co886 2.145 . S
N921 C922 1.397 . S
N921 C923 1.334 . S
C922 H903 0.929 . S
C922 C919 1.388 . S
C922 N921 1.397 . S
C923 H904 0.929 . S
C923 C920 1.404 . S
C923 N921 1.334 . S
C924 H916 0.930 . S
C924 C919 1.418 . S
C924 C920 1.353 . S
C925 H895 0.930 . S
C925 N926 1.330 . S
C925 C927 1.446 . S
N926 Co885 2.151 . S
N926 C925 1.330 . S
N926 C930 1.418 . S
C927 H906 0.929 . S
C927 C925 1.446 . S
C927 C928 1.332 . S
C928 H908 0.931 . S
C928 C927 1.332 . S
C928 C929 1.267 . S
C929 H897 0.929 . S
C929 C928 1.267 . S
C929 C930 1.251 . S
C930 H900 0.929 . S
C930 N926 1.418 . S
C930 C929 1.251 . S
C931 H898 0.930 . S
C931 C933 1.406 . S
C931 C936 1.261 . S
C932 H899 0.930 . S
C932 N934 1.325 . S
C932 C935 1.357 . S
C933 H901 0.928 . S
C933 C931 1.406 . S
C933 N934 1.261 . S
N934 Co885 2.214 . S
N934 C932 1.325 . S
N934 C933 1.261 . S
C935 H905 0.931 . S
C935 C932 1.357 . S
C935 C936 1.312 . S
C936 H907 0.930 . S
C936 C931 1.261 . S
C936 C935 1.312 . S
C937 O909 1.214 . S
C937 O917 1.234 . S
C938 H910 0.929 . S
C938 C941 1.391 . S
C938 C943 1.391 . S
C939 H911 0.929 . S
C939 C940 1.390 . S
C939 N942 1.391 . S
C940 H912 0.930 . S
C940 C939 1.390 . S
C940 C941 1.392 . S
C941 H913 0.929 . S
C941 C938 1.391 . S
C941 C940 1.392 . S
N942 Co886 2.257 . S
N942 C939 1.391 . S
N942 C943 1.388 . S
C943 H914 0.930 . S
C943 C938 1.391 . S
C943 N942 1.388 . S
H944 C962 0.951 . S
H945 C964 0.951 . S
H946 C966 0.950 . S
H947 C967 0.950 . S
H948 C969 0.950 . S
H949 C972 0.950 . S
H950 C973 0.950 . S
H951 C975 0.950 . S
H952 C976 0.950 1_655 S
H953 C977 0.951 . S
H954 C979 0.951 . S
H955 C981 0.950 . S
H956 C982 0.950 . S
H957 C984 0.950 . S
H958 C987 0.950 . S
H959 C988 0.950 . S
H960 C990 0.950 . S
H961 C991 0.950 1_455 S
C962 H944 0.951 . S
C962 C963 1.366 . S
C962 C964 1.388 . S
C963 C962 1.366 . S
C963 C967 1.385 . S
C964 H945 0.951 . S
C964 C962 1.388 . S
C964 C965 1.366 . S
C965 C964 1.366 . S
C965 C966 1.414 . S
C965 C968 1.499 . S
C966 H946 0.950 . S
C966 C965 1.414 . S
C966 C967 1.374 . S
C967 H947 0.950 . S
C967 C963 1.385 . S
C967 C966 1.374 . S
C968 C965 1.499 . S
C968 C969 1.373 . S
C968 C970 1.389 . S
C969 H948 0.950 . S
C969 C968 1.373 . S
C969 C985 1.377 1_455 S
C970 C968 1.389 . S
C970 C971 1.524 . S
C970 C984 1.377 1_455 S
C971 C970 1.524 . S
C971 C972 1.397 . S
C971 C976 1.363 . S
C972 H949 0.950 . S
C972 C971 1.397 . S
C972 C973 1.334 . S
C973 H950 0.950 . S
C973 C972 1.334 . S
C973 C974 1.287 . S
C974 C973 1.287 . S
C974 C975 1.524 . S
C974 H993 0.913 . S
C975 H951 0.950 . S
C975 C974 1.524 . S
C975 C976 1.415 . S
C976 H952 0.950 1_455 S
C976 C971 1.363 . S
C976 C975 1.415 . S
C977 H953 0.951 . S
C977 C978 1.366 . S
C977 C979 1.388 . S
C978 C977 1.366 . S
C978 C982 1.385 . S
C979 H954 0.951 . S
C979 C977 1.388 . S
C979 C980 1.366 . S
C980 C979 1.366 . S
C980 C981 1.414 . S
C980 C983 1.499 . S
C981 H955 0.950 . S
C981 C980 1.414 . S
C981 C982 1.374 . S
C982 H956 0.950 . S
C982 C978 1.385 . S
C982 C981 1.374 . S
C983 C980 1.499 . S
C983 C984 1.373 . S
C983 C985 1.389 . S
C984 H957 0.950 . S
C984 C970 1.377 1_655 S
C984 C983 1.373 . S
C985 C969 1.377 1_655 S
C985 C983 1.389 . S
C985 C986 1.524 . S
C986 C985 1.524 . S
C986 C987 1.397 . S
C986 C991 1.363 . S
C987 H958 0.950 . S
C987 C986 1.397 . S
C987 C988 1.334 . S
C988 H959 0.950 . S
C988 C987 1.334 . S
C988 C989 1.287 . S
C989 C988 1.287 . S
C989 C990 1.524 . S
C989 H992 0.999 . S
C990 H960 0.950 . S
C990 C989 1.524 . S
C990 C991 1.415 . S
C991 H961 0.950 1_655 S
C991 C986 1.363 . S
C991 C990 1.415 . S
H992 C989 0.999 . S
H993 C974 0.913 . S
H994 C1012 0.951 . S
H995 C1014 0.951 . S
H996 C1016 0.950 . S
H997 C1017 0.950 . S
H998 C1019 0.950 . S
H999 C1022 0.950 . S
H1000 C1023 0.950 . S
H1001 C1025 0.950 . S
H1002 C1026 0.950 . S
H1003 C1027 0.951 . S
H1004 C1029 0.951 . S
H1005 C1031 0.950 . S
H1006 C1032 0.950 . S
H1007 C1034 0.950 . S
H1008 C1037 0.950 . S
H1009 C1038 0.950 . S
H1010 C1040 0.950 . S
H1011 C1041 0.950 . S
C1012 H994 0.951 . S
C1012 C1013 1.366 . S
C1012 C1014 1.388 . S
C1013 C1012 1.366 . S
C1013 C1017 1.385 . S
C1014 H995 0.951 . S
C1014 C1012 1.388 . S
C1014 C1015 1.366 . S
C1015 C1014 1.366 . S
C1015 C1016 1.414 . S
C1015 C1018 1.499 . S
C1016 H996 0.950 . S
C1016 C1015 1.414 . S
C1016 C1017 1.374 . S
C1017 H997 0.950 . S
C1017 C1013 1.385 . S
C1017 C1016 1.374 . S
C1018 C1015 1.499 . S
C1018 C1019 1.373 . S
C1018 C1020 1.389 . S
C1019 H998 0.950 . S
C1019 C1018 1.373 . S
C1019 C1035 1.377 1_565 S
C1020 C1018 1.389 . S
C1020 C1021 1.524 . S
C1020 C1034 1.377 1_565 S
C1021 C1020 1.524 . S
C1021 C1022 1.397 . S
C1021 C1026 1.363 . S
C1022 H999 0.950 . S
C1022 C1021 1.397 . S
C1022 C1023 1.334 . S
C1023 H1000 0.950 . S
C1023 C1022 1.334 . S
C1023 C1024 1.287 . S
C1024 C1023 1.287 . S
C1024 C1025 1.524 . S
C1024 H1043 0.913 . S
C1025 H1001 0.950 . S
C1025 C1024 1.524 . S
C1025 C1026 1.415 . S
C1026 H1002 0.950 . S
C1026 C1021 1.363 . S
C1026 C1025 1.415 . S
C1027 H1003 0.951 . S
C1027 C1028 1.366 . S
C1027 C1029 1.388 . S
C1028 C1027 1.366 . S
C1028 C1032 1.385 . S
C1029 H1004 0.951 . S
C1029 C1027 1.388 . S
C1029 C1030 1.366 . S
C1030 C1029 1.366 . S
C1030 C1031 1.414 . S
C1030 C1033 1.499 . S
C1031 H1005 0.950 . S
C1031 C1030 1.414 . S
C1031 C1032 1.374 . S
C1032 H1006 0.950 . S
C1032 C1028 1.385 . S
C1032 C1031 1.374 . S
C1033 C1030 1.499 . S
C1033 C1034 1.373 . S
C1033 C1035 1.389 . S
C1034 H1007 0.950 . S
C1034 C1020 1.377 1_545 S
C1034 C1033 1.373 . S
C1035 C1019 1.377 1_545 S
C1035 C1033 1.389 . S
C1035 C1036 1.524 . S
C1036 C1035 1.524 . S
C1036 C1037 1.397 . S
C1036 C1041 1.363 . S
C1037 H1008 0.950 . S
C1037 C1036 1.397 . S
C1037 C1038 1.334 . S
C1038 H1009 0.950 . S
C1038 C1037 1.334 . S
C1038 C1039 1.287 . S
C1039 C1038 1.287 . S
C1039 C1040 1.524 . S
C1039 H1042 0.999 . S
C1040 H1010 0.950 . S
C1040 C1039 1.524 . S
C1040 C1041 1.415 . S
C1041 H1011 0.950 . S
C1041 C1036 1.363 . S
C1041 C1040 1.415 . S
H1042 C1039 0.999 . S
H1043 C1024 0.913 . S
H1044 C1062 0.951 . S
H1045 C1064 0.951 . S
H1046 C1066 0.950 . S
H1047 C1067 0.950 . S
H1048 C1069 0.950 . S
H1049 C1072 0.950 . S
H1050 C1073 0.950 . S
H1051 C1075 0.950 . S
H1052 C1076 0.919 1_655 S
H1053 C1077 0.951 . S
H1054 C1079 0.951 . S
H1055 C1081 0.950 . S
H1056 C1082 0.950 . S
H1057 C1084 0.950 . S
H1058 C1087 0.950 . S
H1059 C1088 0.950 . S
H1060 C1090 0.950 . S
H1061 C1091 0.919 1_455 S
C1062 H1044 0.951 . S
C1062 C1063 1.366 . S
C1062 C1064 1.388 . S
C1063 C1062 1.366 . S
C1063 C1067 1.385 . S
C1064 H1045 0.951 . S
C1064 C1062 1.388 . S
C1064 C1065 1.366 . S
C1065 C1064 1.366 . S
C1065 C1066 1.414 . S
C1065 C1068 1.499 . S
C1066 H1046 0.950 . S
C1066 C1065 1.414 . S
C1066 C1067 1.374 . S
C1067 H1047 0.950 . S
C1067 C1063 1.385 . S
C1067 C1066 1.374 . S
C1068 C1065 1.499 . S
C1068 C1069 1.373 . S
C1068 C1070 1.389 . S
C1069 H1048 0.950 . S
C1069 C1068 1.373 . S
C1069 C1085 1.377 1_455 S
C1070 C1068 1.389 . S
C1070 C1071 1.524 . S
C1070 C1084 1.377 1_455 S
C1071 C1070 1.524 . S
C1071 C1072 1.397 . S
C1071 C1076 1.363 . S
C1072 H1049 0.950 . S
C1072 C1071 1.397 . S
C1072 C1073 1.334 . S
C1073 H1050 0.950 . S
C1073 C1072 1.334 . S
C1073 C1074 1.287 . S
C1074 C1073 1.287 . S
C1074 C1075 1.524 . S
C1074 H1093 0.913 . S
C1075 H1051 0.950 . S
C1075 C1074 1.524 . S
C1075 C1076 1.415 . S
C1076 H1052 0.919 1_455 S
C1076 C1071 1.363 . S
C1076 C1075 1.415 . S
C1077 H1053 0.951 . S
C1077 C1078 1.366 . S
C1077 C1079 1.388 . S
C1078 C1077 1.366 . S
C1078 C1082 1.385 . S
C1079 H1054 0.951 . S
C1079 C1077 1.388 . S
C1079 C1080 1.366 . S
C1080 C1079 1.366 . S
C1080 C1081 1.414 . S
C1080 C1083 1.499 . S
C1081 H1055 0.950 . S
C1081 C1080 1.414 . S
C1081 C1082 1.374 . S
C1082 H1056 0.950 . S
C1082 C1078 1.385 . S
C1082 C1081 1.374 . S
C1083 C1080 1.499 . S
C1083 C1084 1.373 . S
C1083 C1085 1.389 . S
C1084 H1057 0.950 . S
C1084 C1070 1.377 1_655 S
C1084 C1083 1.373 . S
C1085 C1069 1.377 1_655 S
C1085 C1083 1.389 . S
C1085 C1086 1.524 . S
C1086 C1085 1.524 . S
C1086 C1087 1.397 . S
C1086 C1091 1.363 . S
C1087 H1058 0.950 . S
C1087 C1086 1.397 . S
C1087 C1088 1.334 . S
C1088 H1059 0.950 . S
C1088 C1087 1.334 . S
C1088 C1089 1.287 . S
C1089 C1088 1.287 . S
C1089 C1090 1.524 . S
C1089 H1092 0.999 . S
C1090 H1060 0.950 . S
C1090 C1089 1.524 . S
C1090 C1091 1.415 . S
C1091 H1061 0.919 1_655 S
C1091 C1086 1.363 . S
C1091 C1090 1.415 . S
H1092 C1089 0.999 . S
H1093 C1074 0.913 . S
H1094 C1112 0.951 . S
H1095 C1114 0.951 . S
H1096 C1116 0.950 . S
H1097 C1117 0.950 . S
H1098 C1119 0.950 . S
H1099 C1122 0.950 . S
H1100 C1123 0.950 . S
H1101 C1125 0.950 . S
H1102 C1126 0.950 . S
H1103 C1127 0.951 . S
H1104 C1129 0.951 . S
H1105 C1131 0.950 . S
H1106 C1132 0.950 . S
H1107 C1134 0.950 . S
H1108 C1137 0.950 . S
H1109 C1138 0.950 . S
H1110 C1140 0.950 . S
H1111 C1141 0.950 . S
C1112 H1094 0.951 . S
C1112 C1113 1.366 . S
C1112 C1114 1.388 . S
C1113 C1112 1.366 . S
C1113 C1117 1.385 . S
C1114 H1095 0.951 . S
C1114 C1112 1.388 . S
C1114 C1115 1.366 . S
C1115 C1114 1.366 . S
C1115 C1116 1.414 . S
C1115 C1118 1.499 . S
C1116 H1096 0.950 . S
C1116 C1115 1.414 . S
C1116 C1117 1.374 . S
C1117 H1097 0.950 . S
C1117 C1113 1.385 . S
C1117 C1116 1.374 . S
C1118 C1115 1.499 . S
C1118 C1119 1.373 . S
C1118 C1120 1.389 . S
C1119 H1098 0.950 . S
C1119 C1118 1.373 . S
C1119 C1135 1.377 1_565 S
C1120 C1118 1.389 . S
C1120 C1121 1.524 . S
C1120 C1134 1.377 1_565 S
C1121 C1120 1.524 . S
C1121 C1122 1.397 . S
C1121 C1126 1.363 . S
C1122 H1099 0.950 . S
C1122 C1121 1.397 . S
C1122 C1123 1.334 . S
C1123 H1100 0.950 . S
C1123 C1122 1.334 . S
C1123 C1124 1.287 . S
C1124 C1123 1.287 . S
C1124 C1125 1.524 . S
C1124 H1143 0.913 . S
C1125 H1101 0.950 . S
C1125 C1124 1.524 . S
C1125 C1126 1.415 . S
C1126 H1102 0.950 . S
C1126 C1121 1.363 . S
C1126 C1125 1.415 . S
C1127 H1103 0.951 . S
C1127 C1128 1.366 . S
C1127 C1129 1.388 . S
C1128 C1127 1.366 . S
C1128 C1132 1.385 . S
C1129 H1104 0.951 . S
C1129 C1127 1.388 . S
C1129 C1130 1.366 . S
C1130 C1129 1.366 . S
C1130 C1131 1.414 . S
C1130 C1133 1.499 . S
C1131 H1105 0.950 . S
C1131 C1130 1.414 . S
C1131 C1132 1.374 . S
C1132 H1106 0.950 . S
C1132 C1128 1.385 . S
C1132 C1131 1.374 . S
C1133 C1130 1.499 . S
C1133 C1134 1.373 . S
C1133 C1135 1.389 . S
C1134 H1107 0.950 . S
C1134 C1120 1.377 1_545 S
C1134 C1133 1.373 . S
C1135 C1119 1.377 1_545 S
C1135 C1133 1.389 . S
C1135 C1136 1.524 . S
C1136 C1135 1.524 . S
C1136 C1137 1.397 . S
C1136 C1141 1.363 . S
C1137 H1108 0.950 . S
C1137 C1136 1.397 . S
C1137 C1138 1.334 . S
C1138 H1109 0.950 . S
C1138 C1137 1.334 . S
C1138 C1139 1.287 . S
C1139 C1138 1.287 . S
C1139 C1140 1.524 . S
C1139 H1142 0.999 . S
C1140 H1110 0.950 . S
C1140 C1139 1.524 . S
C1140 C1141 1.415 . S
C1141 H1111 0.950 . S
C1141 C1136 1.363 . S
C1141 C1140 1.415 . S
H1142 C1139 0.999 . S
H1143 C1124 0.913 . S
H1144 C1162 0.951 . S
H1145 C1164 0.951 . S
H1146 C1166 0.950 . S
H1147 C1167 0.950 . S
H1148 C1169 0.950 . S
H1149 C1172 0.950 . S
H1150 C1173 0.950 . S
H1151 C1175 0.950 1_455 S
H1152 C1176 0.954 . S
H1153 C1177 0.951 . S
H1154 C1179 0.951 . S
H1155 C1181 0.950 . S
H1156 C1182 0.950 . S
H1157 C1184 0.950 . S
H1158 C1187 0.950 . S
H1159 C1188 0.950 . S
H1160 C1190 0.950 1_655 S
H1161 C1191 0.954 . S
C1162 H1144 0.951 . S
C1162 C1163 1.366 . S
C1162 C1164 1.388 . S
C1163 C1162 1.366 . S
C1163 C1167 1.385 . S
C1164 H1145 0.951 . S
C1164 C1162 1.388 . S
C1164 C1165 1.366 . S
C1165 C1164 1.366 . S
C1165 C1166 1.414 . S
C1165 C1168 1.499 . S
C1166 H1146 0.950 . S
C1166 C1165 1.414 . S
C1166 C1167 1.374 . S
C1167 H1147 0.950 . S
C1167 C1163 1.385 . S
C1167 C1166 1.374 . S
C1168 C1165 1.499 . S
C1168 C1169 1.373 . S
C1168 C1170 1.389 . S
C1169 H1148 0.950 . S
C1169 C1168 1.373 . S
C1169 C1185 1.377 1_655 S
C1170 C1168 1.389 . S
C1170 C1171 1.524 . S
C1170 C1184 1.377 1_655 S
C1171 C1170 1.524 . S
C1171 C1172 1.397 . S
C1171 C1176 1.360 1_655 S
C1172 H1149 0.950 . S
C1172 C1171 1.397 . S
C1172 C1173 1.334 . S
C1173 H1150 0.950 . S
C1173 C1172 1.334 . S
C1173 C1174 1.287 . S
C1174 C1173 1.287 . S
C1174 C1175 1.524 . S
C1174 H1193 0.913 . S
C1175 H1151 0.950 1_655 S
C1175 C1174 1.524 . S
C1175 C1176 1.414 1_655 S
C1176 H1152 0.954 . S
C1176 C1171 1.360 1_455 S
C1176 C1175 1.414 1_455 S
C1177 H1153 0.951 . S
C1177 C1178 1.366 . S
C1177 C1179 1.388 . S
C1178 C1177 1.366 . S
C1178 C1182 1.385 . S
C1179 H1154 0.951 . S
C1179 C1177 1.388 . S
C1179 C1180 1.366 . S
C1180 C1179 1.366 . S
C1180 C1181 1.414 . S
C1180 C1183 1.499 . S
C1181 H1155 0.950 . S
C1181 C1180 1.414 . S
C1181 C1182 1.374 . S
C1182 H1156 0.950 . S
C1182 C1178 1.385 . S
C1182 C1181 1.374 . S
C1183 C1180 1.499 . S
C1183 C1184 1.373 . S
C1183 C1185 1.389 . S
C1184 H1157 0.950 . S
C1184 C1170 1.377 1_455 S
C1184 C1183 1.373 . S
C1185 C1169 1.377 1_455 S
C1185 C1183 1.389 . S
C1185 C1186 1.524 . S
C1186 C1185 1.524 . S
C1186 C1187 1.397 . S
C1186 C1191 1.360 1_455 S
C1187 H1158 0.950 . S
C1187 C1186 1.397 . S
C1187 C1188 1.334 . S
C1188 H1159 0.950 . S
C1188 C1187 1.334 . S
C1188 C1189 1.287 . S
C1189 C1188 1.287 . S
C1189 C1190 1.524 . S
C1189 H1192 0.999 . S
C1190 H1160 0.950 1_455 S
C1190 C1189 1.524 . S
C1190 C1191 1.414 1_455 S
C1191 H1161 0.954 . S
C1191 C1186 1.360 1_655 S
C1191 C1190 1.414 1_655 S
H1192 C1189 0.999 . S
H1193 C1174 0.913 . S
H1194 C1212 0.951 . S
H1195 C1214 0.951 . S
H1196 C1216 0.950 . S
H1197 C1217 0.950 . S
H1198 C1219 0.950 . S
H1199 C1222 0.950 . S
H1200 C1223 0.950 . S
H1201 C1225 0.950 . S
H1202 C1226 0.950 . S
H1203 C1227 0.951 . S
H1204 C1229 0.951 . S
H1205 C1231 0.950 . S
H1206 C1232 0.950 . S
H1207 C1234 0.950 . S
H1208 C1237 0.950 . S
H1209 C1238 0.950 . S
H1210 C1240 0.950 . S
H1211 C1241 0.950 . S
C1212 H1194 0.951 . S
C1212 C1213 1.366 . S
C1212 C1214 1.388 . S
C1213 C1212 1.366 . S
C1213 C1217 1.385 . S
C1214 H1195 0.951 . S
C1214 C1212 1.388 . S
C1214 C1215 1.366 . S
C1215 C1214 1.366 . S
C1215 C1216 1.414 . S
C1215 C1218 1.499 . S
C1216 H1196 0.950 . S
C1216 C1215 1.414 . S
C1216 C1217 1.374 . S
C1217 H1197 0.950 . S
C1217 C1213 1.385 . S
C1217 C1216 1.374 . S
C1218 C1215 1.499 . S
C1218 C1219 1.373 . S
C1218 C1220 1.389 . S
C1219 H1198 0.950 . S
C1219 C1218 1.373 . S
C1219 C1235 1.377 1_545 S
C1220 C1218 1.389 . S
C1220 C1221 1.524 . S
C1220 C1234 1.377 1_545 S
C1221 C1220 1.524 . S
C1221 C1222 1.397 . S
C1221 C1226 1.363 . S
C1222 H1199 0.950 . S
C1222 C1221 1.397 . S
C1222 C1223 1.334 . S
C1223 H1200 0.950 . S
C1223 C1222 1.334 . S
C1223 C1224 1.287 . S
C1224 C1223 1.287 . S
C1224 C1225 1.524 . S
C1224 H1243 0.913 . S
C1225 H1201 0.950 . S
C1225 C1224 1.524 . S
C1225 C1226 1.415 . S
C1226 H1202 0.950 . S
C1226 C1221 1.363 . S
C1226 C1225 1.415 . S
C1227 H1203 0.951 . S
C1227 C1228 1.366 . S
C1227 C1229 1.388 . S
C1228 C1227 1.366 . S
C1228 C1232 1.385 . S
C1229 H1204 0.951 . S
C1229 C1227 1.388 . S
C1229 C1230 1.366 . S
C1230 C1229 1.366 . S
C1230 C1231 1.414 . S
C1230 C1233 1.499 . S
C1231 H1205 0.950 . S
C1231 C1230 1.414 . S
C1231 C1232 1.374 . S
C1232 H1206 0.950 . S
C1232 C1228 1.385 . S
C1232 C1231 1.374 . S
C1233 C1230 1.499 . S
C1233 C1234 1.373 . S
C1233 C1235 1.389 . S
C1234 H1207 0.950 . S
C1234 C1220 1.377 1_565 S
C1234 C1233 1.373 . S
C1235 C1219 1.377 1_565 S
C1235 C1233 1.389 . S
C1235 C1236 1.524 . S
C1236 C1235 1.524 . S
C1236 C1237 1.397 . S
C1236 C1241 1.363 . S
C1237 H1208 0.950 . S
C1237 C1236 1.397 . S
C1237 C1238 1.334 . S
C1238 H1209 0.950 . S
C1238 C1237 1.334 . S
C1238 C1239 1.287 . S
C1239 C1238 1.287 . S
C1239 C1240 1.524 . S
C1239 H1242 0.999 . S
C1240 H1210 0.950 . S
C1240 C1239 1.524 . S
C1240 C1241 1.415 . S
C1241 H1211 0.950 . S
C1241 C1236 1.363 . S
C1241 C1240 1.415 . S
H1242 C1239 0.999 . S
H1243 C1224 0.913 . S
H1244 C1262 0.951 . S
H1245 C1264 0.951 . S
H1246 C1266 0.950 . S
H1247 C1267 0.950 . S
H1248 C1269 0.950 . S
H1249 C1272 0.950 . S
H1250 C1273 0.950 . S
H1251 C1275 0.950 . S
H1252 C1276 0.950 . S
H1253 C1277 0.951 . S
H1254 C1279 0.951 . S
H1255 C1281 0.950 . S
H1256 C1282 0.950 . S
H1257 C1284 0.950 . S
H1258 C1287 0.950 . S
H1259 C1288 0.950 . S
H1260 C1290 0.950 . S
H1261 C1291 0.950 . S
C1262 H1244 0.951 . S
C1262 C1263 1.366 . S
C1262 C1264 1.388 . S
C1263 C1262 1.366 . S
C1263 C1267 1.385 . S
C1264 H1245 0.951 . S
C1264 C1262 1.388 . S
C1264 C1265 1.366 . S
C1265 C1264 1.366 . S
C1265 C1266 1.414 . S
C1265 C1268 1.499 . S
C1266 H1246 0.950 . S
C1266 C1265 1.414 . S
C1266 C1267 1.374 . S
C1267 H1247 0.950 . S
C1267 C1263 1.385 . S
C1267 C1266 1.374 . S
C1268 C1265 1.499 . S
C1268 C1269 1.373 . S
C1268 C1270 1.389 . S
C1269 H1248 0.950 . S
C1269 C1268 1.373 . S
C1269 C1285 1.377 1_655 S
C1270 C1268 1.389 . S
C1270 C1271 1.524 . S
C1270 C1284 1.377 1_655 S
C1271 C1270 1.524 . S
C1271 C1272 1.397 . S
C1271 C1276 1.363 . S
C1272 H1249 0.950 . S
C1272 C1271 1.397 . S
C1272 C1273 1.334 . S
C1273 H1250 0.950 . S
C1273 C1272 1.334 . S
C1273 C1274 1.287 . S
C1274 C1273 1.287 . S
C1274 C1275 1.524 . S
C1274 H1293 0.913 . S
C1275 H1251 0.950 . S
C1275 C1274 1.524 . S
C1275 C1276 1.415 . S
C1276 H1252 0.950 . S
C1276 C1271 1.363 . S
C1276 C1275 1.415 . S
C1277 H1253 0.951 . S
C1277 C1278 1.366 . S
C1277 C1279 1.388 . S
C1278 C1277 1.366 . S
C1278 C1282 1.385 . S
C1279 H1254 0.951 . S
C1279 C1277 1.388 . S
C1279 C1280 1.366 . S
C1280 C1279 1.366 . S
C1280 C1281 1.414 . S
C1280 C1283 1.499 . S
C1281 H1255 0.950 . S
C1281 C1280 1.414 . S
C1281 C1282 1.374 . S
C1282 H1256 0.950 . S
C1282 C1278 1.385 . S
C1282 C1281 1.374 . S
C1283 C1280 1.499 . S
C1283 C1284 1.373 . S
C1283 C1285 1.389 . S
C1284 H1257 0.950 . S
C1284 C1270 1.377 1_455 S
C1284 C1283 1.373 . S
C1285 C1269 1.377 1_455 S
C1285 C1283 1.389 . S
C1285 C1286 1.524 . S
C1286 C1285 1.524 . S
C1286 C1287 1.397 . S
C1286 C1291 1.363 . S
C1287 H1258 0.950 . S
C1287 C1286 1.397 . S
C1287 C1288 1.334 . S
C1288 H1259 0.950 . S
C1288 C1287 1.334 . S
C1288 C1289 1.287 . S
C1289 C1288 1.287 . S
C1289 C1290 1.524 . S
C1289 H1292 0.999 . S
C1290 H1260 0.950 . S
C1290 C1289 1.524 . S
C1290 C1291 1.415 . S
C1291 H1261 0.950 . S
C1291 C1286 1.363 . S
C1291 C1290 1.415 . S
H1292 C1289 0.999 . S
H1293 C1274 0.913 . S
H1294 C1312 0.951 . S
H1295 C1314 0.951 . S
H1296 C1316 0.950 . S
H1297 C1317 0.950 . S
H1298 C1319 0.950 . S
H1299 C1322 0.950 . S
H1300 C1323 0.950 . S
H1301 C1325 0.950 . S
H1302 C1326 0.950 . S
H1303 C1327 0.951 . S
H1304 C1329 0.951 . S
H1305 C1331 0.950 . S
H1306 C1332 0.950 . S
H1307 C1334 0.950 . S
H1308 C1337 0.950 . S
H1309 C1338 0.950 . S
H1310 C1340 0.950 . S
H1311 C1341 0.950 . S
C1312 H1294 0.951 . S
C1312 C1313 1.366 . S
C1312 C1314 1.388 . S
C1313 C1312 1.366 . S
C1313 C1317 1.385 . S
C1314 H1295 0.951 . S
C1314 C1312 1.388 . S
C1314 C1315 1.366 . S
C1315 C1314 1.366 . S
C1315 C1316 1.414 . S
C1315 C1318 1.499 . S
C1316 H1296 0.950 . S
C1316 C1315 1.414 . S
C1316 C1317 1.374 . S
C1317 H1297 0.950 . S
C1317 C1313 1.385 . S
C1317 C1316 1.374 . S
C1318 C1315 1.499 . S
C1318 C1319 1.373 . S
C1318 C1320 1.389 . S
C1319 H1298 0.950 . S
C1319 C1318 1.373 . S
C1319 C1335 1.377 1_545 S
C1320 C1318 1.389 . S
C1320 C1321 1.524 . S
C1320 C1334 1.377 1_545 S
C1321 C1320 1.524 . S
C1321 C1322 1.397 . S
C1321 C1326 1.363 . S
C1322 H1299 0.950 . S
C1322 C1321 1.397 . S
C1322 C1323 1.334 . S
C1323 H1300 0.950 . S
C1323 C1322 1.334 . S
C1323 C1324 1.287 . S
C1324 C1323 1.287 . S
C1324 C1325 1.524 . S
C1324 H1343 0.913 . S
C1325 H1301 0.950 . S
C1325 C1324 1.524 . S
C1325 C1326 1.415 . S
C1326 H1302 0.950 . S
C1326 C1321 1.363 . S
C1326 C1325 1.415 . S
C1327 H1303 0.951 . S
C1327 C1328 1.366 . S
C1327 C1329 1.388 . S
C1328 C1327 1.366 . S
C1328 C1332 1.385 . S
C1329 H1304 0.951 . S
C1329 C1327 1.388 . S
C1329 C1330 1.366 . S
C1330 C1329 1.366 . S
C1330 C1331 1.414 . S
C1330 C1333 1.499 . S
C1331 H1305 0.950 . S
C1331 C1330 1.414 . S
C1331 C1332 1.374 . S
C1332 H1306 0.950 . S
C1332 C1328 1.385 . S
C1332 C1331 1.374 . S
C1333 C1330 1.499 . S
C1333 C1334 1.373 . S
C1333 C1335 1.389 . S
C1334 H1307 0.950 . S
C1334 C1320 1.377 1_565 S
C1334 C1333 1.373 . S
C1335 C1319 1.377 1_565 S
C1335 C1333 1.389 . S
C1335 C1336 1.524 . S
C1336 C1335 1.524 . S
C1336 C1337 1.397 . S
C1336 C1341 1.363 . S
C1337 H1308 0.950 . S
C1337 C1336 1.397 . S
C1337 C1338 1.334 . S
C1338 H1309 0.950 . S
C1338 C1337 1.334 . S
C1338 C1339 1.287 . S
C1339 C1338 1.287 . S
C1339 C1340 1.524 . S
C1339 H1342 0.999 . S
C1340 H1310 0.950 . S
C1340 C1339 1.524 . S
C1340 C1341 1.415 . S
C1341 H1311 0.950 . S
C1341 C1336 1.363 . S
C1341 C1340 1.415 . S
H1342 C1339 0.999 . S
H1343 C1324 0.913 . S
H1344 C1362 0.951 . S
H1345 C1364 0.951 . S
H1346 C1366 0.950 . S
H1347 C1367 0.950 . S
H1348 C1369 0.950 . S
H1349 C1372 0.950 . S
H1350 C1373 0.950 . S
H1351 C1375 0.950 . S
H1352 C1376 0.950 . S
H1353 C1377 0.951 . S
H1354 C1379 0.951 . S
H1355 C1381 0.950 . S
H1356 C1382 0.950 . S
H1357 C1384 0.950 . S
H1358 C1387 0.950 . S
H1359 C1388 0.950 . S
H1360 C1390 0.950 . S
H1361 C1391 0.950 . S
C1362 H1344 0.951 . S
C1362 C1363 1.366 . S
C1362 C1364 1.388 . S
C1363 C1362 1.366 . S
C1363 C1367 1.385 . S
C1364 H1345 0.951 . S
C1364 C1362 1.388 . S
C1364 C1365 1.366 . S
C1365 C1364 1.366 . S
C1365 C1366 1.414 . S
C1365 C1368 1.499 . S
C1366 H1346 0.950 . S
C1366 C1365 1.414 . S
C1366 C1367 1.374 . S
C1367 H1347 0.950 . S
C1367 C1363 1.385 . S
C1367 C1366 1.374 . S
C1368 C1365 1.499 . S
C1368 C1369 1.373 . S
C1368 C1370 1.389 . S
C1369 H1348 0.950 . S
C1369 C1368 1.373 . S
C1369 C1385 1.377 . S
C1370 C1368 1.389 . S
C1370 C1371 1.524 . S
C1370 C1384 1.377 . S
C1371 C1370 1.524 . S
C1371 C1372 1.397 . S
C1371 C1376 1.363 . S
C1372 H1349 0.950 . S
C1372 C1371 1.397 . S
C1372 C1373 1.334 . S
C1373 H1350 0.950 . S
C1373 C1372 1.334 . S
C1373 C1374 1.287 . S
C1374 C1373 1.287 . S
C1374 C1375 1.524 . S
C1374 H1393 0.913 . S
C1375 H1351 0.950 . S
C1375 C1374 1.524 . S
C1375 C1376 1.415 . S
C1376 H1352 0.950 . S
C1376 C1371 1.363 . S
C1376 C1375 1.415 . S
C1377 H1353 0.951 . S
C1377 C1378 1.366 . S
C1377 C1379 1.388 . S
C1378 C1377 1.366 . S
C1378 C1382 1.385 . S
C1379 H1354 0.951 . S
C1379 C1377 1.388 . S
C1379 C1380 1.366 . S
C1380 C1379 1.366 . S
C1380 C1381 1.414 . S
C1380 C1383 1.499 . S
C1381 H1355 0.950 . S
C1381 C1380 1.414 . S
C1381 C1382 1.374 . S
C1382 H1356 0.950 . S
C1382 C1378 1.385 . S
C1382 C1381 1.374 . S
C1383 C1380 1.499 . S
C1383 C1384 1.373 . S
C1383 C1385 1.389 . S
C1384 H1357 0.950 . S
C1384 C1370 1.377 . S
C1384 C1383 1.373 . S
C1385 C1369 1.377 . S
C1385 C1383 1.389 . S
C1385 C1386 1.524 . S
C1386 C1385 1.524 . S
C1386 C1387 1.397 . S
C1386 C1391 1.363 . S
C1387 H1358 0.950 . S
C1387 C1386 1.397 . S
C1387 C1388 1.334 . S
C1388 H1359 0.950 . S
C1388 C1387 1.334 . S
C1388 C1389 1.287 . S
C1389 C1388 1.287 . S
C1389 C1390 1.524 . S
C1389 H1392 0.999 . S
C1390 H1360 0.950 . S
C1390 C1389 1.524 . S
C1390 C1391 1.415 . S
C1391 H1361 0.950 . S
C1391 C1386 1.363 . S
C1391 C1390 1.415 . S
H1392 C1389 0.999 . S
H1393 C1374 0.913 . S
H1394 C1412 0.951 . S
H1395 C1414 0.951 . S
H1396 C1416 0.950 . S
H1397 C1417 0.950 . S
H1398 C1419 0.950 . S
H1399 C1422 0.950 . S
H1400 C1423 0.950 . S
H1401 C1425 0.950 . S
H1402 C1426 0.950 . S
H1403 C1427 0.951 . S
H1404 C1429 0.951 . S
H1405 C1431 0.950 . S
H1406 C1432 0.950 . S
H1407 C1434 0.950 . S
H1408 C1437 0.950 . S
H1409 C1438 0.950 . S
H1410 C1440 0.950 . S
H1411 C1441 0.950 . S
C1412 H1394 0.951 . S
C1412 C1413 1.366 . S
C1412 C1414 1.388 . S
C1413 C1412 1.366 . S
C1413 C1417 1.385 . S
C1414 H1395 0.951 . S
C1414 C1412 1.388 . S
C1414 C1415 1.366 . S
C1415 C1414 1.366 . S
C1415 C1416 1.414 . S
C1415 C1418 1.499 . S
C1416 H1396 0.950 . S
C1416 C1415 1.414 . S
C1416 C1417 1.374 . S
C1417 H1397 0.950 . S
C1417 C1413 1.385 . S
C1417 C1416 1.374 . S
C1418 C1415 1.499 . S
C1418 C1419 1.373 . S
C1418 C1420 1.389 . S
C1419 H1398 0.950 . S
C1419 C1418 1.373 . S
C1419 C1435 1.377 . S
C1420 C1418 1.389 . S
C1420 C1421 1.524 . S
C1420 C1434 1.377 . S
C1421 C1420 1.524 . S
C1421 C1422 1.397 . S
C1421 C1426 1.363 . S
C1422 H1399 0.950 . S
C1422 C1421 1.397 . S
C1422 C1423 1.334 . S
C1423 H1400 0.950 . S
C1423 C1422 1.334 . S
C1423 C1424 1.287 . S
C1424 C1423 1.287 . S
C1424 C1425 1.524 . S
C1424 H1443 0.913 . S
C1425 H1401 0.950 . S
C1425 C1424 1.524 . S
C1425 C1426 1.415 . S
C1426 H1402 0.950 . S
C1426 C1421 1.363 . S
C1426 C1425 1.415 . S
C1427 H1403 0.951 . S
C1427 C1428 1.366 . S
C1427 C1429 1.388 . S
C1428 C1427 1.366 . S
C1428 C1432 1.385 . S
C1429 H1404 0.951 . S
C1429 C1427 1.388 . S
C1429 C1430 1.366 . S
C1430 C1429 1.366 . S
C1430 C1431 1.414 . S
C1430 C1433 1.499 . S
C1431 H1405 0.950 . S
C1431 C1430 1.414 . S
C1431 C1432 1.374 . S
C1432 H1406 0.950 . S
C1432 C1428 1.385 . S
C1432 C1431 1.374 . S
C1433 C1430 1.499 . S
C1433 C1434 1.373 . S
C1433 C1435 1.389 . S
C1434 H1407 0.950 . S
C1434 C1420 1.377 . S
C1434 C1433 1.373 . S
C1435 C1419 1.377 . S
C1435 C1433 1.389 . S
C1435 C1436 1.524 . S
C1436 C1435 1.524 . S
C1436 C1437 1.397 . S
C1436 C1441 1.363 . S
C1437 H1408 0.950 . S
C1437 C1436 1.397 . S
C1437 C1438 1.334 . S
C1438 H1409 0.950 . S
C1438 C1437 1.334 . S
C1438 C1439 1.287 . S
C1439 C1438 1.287 . S
C1439 C1440 1.524 . S
C1439 H1442 0.999 . S
C1440 H1410 0.950 . S
C1440 C1439 1.524 . S
C1440 C1441 1.415 . S
C1441 H1411 0.950 . S
C1441 C1436 1.363 . S
C1441 C1440 1.415 . S
H1442 C1439 0.999 . S
H1443 C1424 0.913 . S
H1444 C1462 0.951 . S
H1445 C1464 0.951 . S
H1446 C1466 0.950 . S
H1447 C1467 0.950 . S
H1448 C1469 0.950 . S
H1449 C1472 0.950 . S
H1450 C1473 0.950 . S
H1451 C1475 0.950 . S
H1452 C1476 0.950 . S
H1453 C1477 0.951 . S
H1454 C1479 0.951 . S
H1455 C1481 0.950 . S
H1456 C1482 0.950 . S
H1457 C1484 0.950 . S
H1458 C1487 0.950 . S
H1459 C1488 0.950 . S
H1460 C1490 0.950 . S
H1461 C1491 0.950 . S
C1462 H1444 0.951 . S
C1462 C1463 1.366 . S
C1462 C1464 1.388 . S
C1463 C1462 1.366 . S
C1463 C1467 1.385 . S
C1464 H1445 0.951 . S
C1464 C1462 1.388 . S
C1464 C1465 1.366 . S
C1465 C1464 1.366 . S
C1465 C1466 1.414 . S
C1465 C1468 1.499 . S
C1466 H1446 0.950 . S
C1466 C1465 1.414 . S
C1466 C1467 1.374 . S
C1467 H1447 0.950 . S
C1467 C1463 1.385 . S
C1467 C1466 1.374 . S
C1468 C1465 1.499 . S
C1468 C1469 1.373 . S
C1468 C1470 1.389 . S
C1469 H1448 0.950 . S
C1469 C1468 1.373 . S
C1469 C1485 1.377 . S
C1470 C1468 1.389 . S
C1470 C1471 1.524 . S
C1470 C1484 1.377 . S
C1471 C1470 1.524 . S
C1471 C1472 1.397 . S
C1471 C1476 1.363 . S
C1472 H1449 0.950 . S
C1472 C1471 1.397 . S
C1472 C1473 1.334 . S
C1473 H1450 0.950 . S
C1473 C1472 1.334 . S
C1473 C1474 1.287 . S
C1474 C1473 1.287 . S
C1474 C1475 1.524 . S
C1474 H1493 0.913 . S
C1475 H1451 0.950 . S
C1475 C1474 1.524 . S
C1475 C1476 1.415 . S
C1476 H1452 0.950 . S
C1476 C1471 1.363 . S
C1476 C1475 1.415 . S
C1477 H1453 0.951 . S
C1477 C1478 1.366 . S
C1477 C1479 1.388 . S
C1478 C1477 1.366 . S
C1478 C1482 1.385 . S
C1479 H1454 0.951 . S
C1479 C1477 1.388 . S
C1479 C1480 1.366 . S
C1480 C1479 1.366 . S
C1480 C1481 1.414 . S
C1480 C1483 1.499 . S
C1481 H1455 0.950 . S
C1481 C1480 1.414 . S
C1481 C1482 1.374 . S
C1482 H1456 0.950 . S
C1482 C1478 1.385 . S
C1482 C1481 1.374 . S
C1483 C1480 1.499 . S
C1483 C1484 1.373 . S
C1483 C1485 1.389 . S
C1484 H1457 0.950 . S
C1484 C1470 1.377 . S
C1484 C1483 1.373 . S
C1485 C1469 1.377 . S
C1485 C1483 1.389 . S
C1485 C1486 1.524 . S
C1486 C1485 1.524 . S
C1486 C1487 1.397 . S
C1486 C1491 1.363 . S
C1487 H1458 0.950 . S
C1487 C1486 1.397 . S
C1487 C1488 1.334 . S
C1488 H1459 0.950 . S
C1488 C1487 1.334 . S
C1488 C1489 1.287 . S
C1489 C1488 1.287 . S
C1489 C1490 1.524 . S
C1489 H1492 0.999 . S
C1490 H1460 0.950 . S
C1490 C1489 1.524 . S
C1490 C1491 1.415 . S
C1491 H1461 0.950 . S
C1491 C1486 1.363 . S
C1491 C1490 1.415 . S
H1492 C1489 0.999 . S
H1493 C1474 0.913 . S
H1494 C1512 0.951 . S
H1495 C1514 0.951 . S
H1496 C1516 0.950 . S
H1497 C1517 0.950 . S
H1498 C1519 0.950 . S
H1499 C1522 0.950 . S
H1500 C1523 0.950 . S
H1501 C1525 0.950 . S
H1502 C1526 0.950 . S
H1503 C1527 0.951 . S
H1504 C1529 0.951 . S
H1505 C1531 0.950 . S
H1506 C1532 0.950 . S
H1507 C1534 0.950 . S
H1508 C1537 0.950 . S
H1509 C1538 0.950 . S
H1510 C1540 0.950 . S
H1511 C1541 0.950 . S
C1512 H1494 0.951 . S
C1512 C1513 1.366 . S
C1512 C1514 1.388 . S
C1513 C1512 1.366 . S
C1513 C1517 1.385 . S
C1514 H1495 0.951 . S
C1514 C1512 1.388 . S
C1514 C1515 1.366 . S
C1515 C1514 1.366 . S
C1515 C1516 1.414 . S
C1515 C1518 1.499 . S
C1516 H1496 0.950 . S
C1516 C1515 1.414 . S
C1516 C1517 1.374 . S
C1517 H1497 0.950 . S
C1517 C1513 1.385 . S
C1517 C1516 1.374 . S
C1518 C1515 1.499 . S
C1518 C1519 1.373 . S
C1518 C1520 1.389 . S
C1519 H1498 0.950 . S
C1519 C1518 1.373 . S
C1519 C1535 1.377 . S
C1520 C1518 1.389 . S
C1520 C1521 1.524 . S
C1520 C1534 1.377 . S
C1521 C1520 1.524 . S
C1521 C1522 1.397 . S
C1521 C1526 1.363 . S
C1522 H1499 0.950 . S
C1522 C1521 1.397 . S
C1522 C1523 1.334 . S
C1523 H1500 0.950 . S
C1523 C1522 1.334 . S
C1523 C1524 1.287 . S
C1524 C1523 1.287 . S
C1524 C1525 1.524 . S
C1524 H1543 0.913 . S
C1525 H1501 0.950 . S
C1525 C1524 1.524 . S
C1525 C1526 1.415 . S
C1526 H1502 0.950 . S
C1526 C1521 1.363 . S
C1526 C1525 1.415 . S
C1527 H1503 0.951 . S
C1527 C1528 1.366 . S
C1527 C1529 1.388 . S
C1528 C1527 1.366 . S
C1528 C1532 1.385 . S
C1529 H1504 0.951 . S
C1529 C1527 1.388 . S
C1529 C1530 1.366 . S
C1530 C1529 1.366 . S
C1530 C1531 1.414 . S
C1530 C1533 1.499 . S
C1531 H1505 0.950 . S
C1531 C1530 1.414 . S
C1531 C1532 1.374 . S
C1532 H1506 0.950 . S
C1532 C1528 1.385 . S
C1532 C1531 1.374 . S
C1533 C1530 1.499 . S
C1533 C1534 1.373 . S
C1533 C1535 1.389 . S
C1534 H1507 0.950 . S
C1534 C1520 1.377 . S
C1534 C1533 1.373 . S
C1535 C1519 1.377 . S
C1535 C1533 1.389 . S
C1535 C1536 1.524 . S
C1536 C1535 1.524 . S
C1536 C1537 1.397 . S
C1536 C1541 1.363 . S
C1537 H1508 0.950 . S
C1537 C1536 1.397 . S
C1537 C1538 1.334 . S
C1538 H1509 0.950 . S
C1538 C1537 1.334 . S
C1538 C1539 1.287 . S
C1539 C1538 1.287 . S
C1539 C1540 1.524 . S
C1539 H1542 0.999 . S
C1540 H1510 0.950 . S
C1540 C1539 1.524 . S
C1540 C1541 1.415 . S
C1541 H1511 0.950 . S
C1541 C1536 1.363 . S
C1541 C1540 1.415 . S
H1542 C1539 0.999 . S
H1543 C1524 0.913 . S
H1544 C1562 0.951 . S
H1545 C1564 0.951 . S
H1546 C1566 0.950 . S
H1547 C1567 0.950 . S
H1548 C1569 0.950 . S
H1549 C1572 0.950 . S
H1550 C1573 0.950 . S
H1551 C1575 0.950 . S
H1552 C1576 0.950 . S
H1553 C1577 0.951 . S
H1554 C1579 0.951 . S
H1555 C1581 0.950 . S
H1556 C1582 0.950 . S
H1557 C1584 0.950 . S
H1558 C1587 0.950 . S
H1559 C1588 0.950 . S
H1560 C1590 0.950 . S
H1561 C1591 0.950 . S
C1562 H1544 0.951 . S
C1562 C1563 1.366 . S
C1562 C1564 1.388 . S
C1563 C1562 1.366 . S
C1563 C1567 1.385 . S
C1564 H1545 0.951 . S
C1564 C1562 1.388 . S
C1564 C1565 1.366 . S
C1565 C1564 1.366 . S
C1565 C1566 1.414 . S
C1565 C1568 1.499 . S
C1566 H1546 0.950 . S
C1566 C1565 1.414 . S
C1566 C1567 1.374 . S
C1567 H1547 0.950 . S
C1567 C1563 1.385 . S
C1567 C1566 1.374 . S
C1568 C1565 1.499 . S
C1568 C1569 1.373 . S
C1568 C1570 1.389 . S
C1569 H1548 0.950 . S
C1569 C1568 1.373 . S
C1569 C1585 1.377 . S
C1570 C1568 1.389 . S
C1570 C1571 1.524 . S
C1570 C1584 1.377 . S
C1571 C1570 1.524 . S
C1571 C1572 1.397 . S
C1571 C1576 1.363 . S
C1572 H1549 0.950 . S
C1572 C1571 1.397 . S
C1572 C1573 1.334 . S
C1573 H1550 0.950 . S
C1573 C1572 1.334 . S
C1573 C1574 1.287 . S
C1574 C1573 1.287 . S
C1574 C1575 1.524 . S
C1574 H1593 0.913 . S
C1575 H1551 0.950 . S
C1575 C1574 1.524 . S
C1575 C1576 1.415 . S
C1576 H1552 0.950 . S
C1576 C1571 1.363 . S
C1576 C1575 1.415 . S
C1577 H1553 0.951 . S
C1577 C1578 1.366 . S
C1577 C1579 1.388 . S
C1578 C1577 1.366 . S
C1578 C1582 1.385 . S
C1579 H1554 0.951 . S
C1579 C1577 1.388 . S
C1579 C1580 1.366 . S
C1580 C1579 1.366 . S
C1580 C1581 1.414 . S
C1580 C1583 1.499 . S
C1581 H1555 0.950 . S
C1581 C1580 1.414 . S
C1581 C1582 1.374 . S
C1582 H1556 0.950 . S
C1582 C1578 1.385 . S
C1582 C1581 1.374 . S
C1583 C1580 1.499 . S
C1583 C1584 1.373 . S
C1583 C1585 1.389 . S
C1584 H1557 0.950 . S
C1584 C1570 1.377 . S
C1584 C1583 1.373 . S
C1585 C1569 1.377 . S
C1585 C1583 1.389 . S
C1585 C1586 1.524 . S
C1586 C1585 1.524 . S
C1586 C1587 1.397 . S
C1586 C1591 1.363 . S
C1587 H1558 0.950 . S
C1587 C1586 1.397 . S
C1587 C1588 1.334 . S
C1588 H1559 0.950 . S
C1588 C1587 1.334 . S
C1588 C1589 1.287 . S
C1589 C1588 1.287 . S
C1589 C1590 1.524 . S
C1589 H1592 0.999 . S
C1590 H1560 0.950 . S
C1590 C1589 1.524 . S
C1590 C1591 1.415 . S
C1591 H1561 0.950 . S
C1591 C1586 1.363 . S
C1591 C1590 1.415 . S
H1592 C1589 0.999 . S
H1593 C1574 0.913 . S
H1594 C1612 0.951 . S
H1595 C1614 0.951 . S
H1596 C1616 0.950 . S
H1597 C1617 0.950 . S
H1598 C1619 0.950 . S
H1599 C1622 0.950 . S
H1600 C1623 0.950 . S
H1601 C1625 0.950 . S
H1602 C1626 0.950 . S
H1603 C1627 0.951 . S
H1604 C1629 0.951 . S
H1605 C1631 0.950 . S
H1606 C1632 0.950 . S
H1607 C1634 0.950 . S
H1608 C1637 0.950 . S
H1609 C1638 0.950 . S
H1610 C1640 0.950 . S
H1611 C1641 0.950 . S
C1612 H1594 0.951 . S
C1612 C1613 1.366 . S
C1612 C1614 1.388 . S
C1613 C1612 1.366 . S
C1613 C1617 1.385 . S
C1614 H1595 0.951 . S
C1614 C1612 1.388 . S
C1614 C1615 1.366 . S
C1615 C1614 1.366 . S
C1615 C1616 1.414 . S
C1615 C1618 1.499 . S
C1616 H1596 0.950 . S
C1616 C1615 1.414 . S
C1616 C1617 1.374 . S
C1617 H1597 0.950 . S
C1617 C1613 1.385 . S
C1617 C1616 1.374 . S
C1618 C1615 1.499 . S
C1618 C1619 1.373 . S
C1618 C1620 1.389 . S
C1619 H1598 0.950 . S
C1619 C1618 1.373 . S
C1619 C1635 1.377 . S
C1620 C1618 1.389 . S
C1620 C1621 1.524 . S
C1620 C1634 1.377 . S
C1621 C1620 1.524 . S
C1621 C1622 1.397 . S
C1621 C1626 1.363 . S
C1622 H1599 0.950 . S
C1622 C1621 1.397 . S
C1622 C1623 1.334 . S
C1623 H1600 0.950 . S
C1623 C1622 1.334 . S
C1623 C1624 1.287 . S
C1624 C1623 1.287 . S
C1624 C1625 1.524 . S
C1624 H1643 0.913 . S
C1625 H1601 0.950 . S
C1625 C1624 1.524 . S
C1625 C1626 1.415 . S
C1626 H1602 0.950 . S
C1626 C1621 1.363 . S
C1626 C1625 1.415 . S
C1627 H1603 0.951 . S
C1627 C1628 1.366 . S
C1627 C1629 1.388 . S
C1628 C1627 1.366 . S
C1628 C1632 1.385 . S
C1629 H1604 0.951 . S
C1629 C1627 1.388 . S
C1629 C1630 1.366 . S
C1630 C1629 1.366 . S
C1630 C1631 1.414 . S
C1630 C1633 1.499 . S
C1631 H1605 0.950 . S
C1631 C1630 1.414 . S
C1631 C1632 1.374 . S
C1632 H1606 0.950 . S
C1632 C1628 1.385 . S
C1632 C1631 1.374 . S
C1633 C1630 1.499 . S
C1633 C1634 1.373 . S
C1633 C1635 1.389 . S
C1634 H1607 0.950 . S
C1634 C1620 1.377 . S
C1634 C1633 1.373 . S
C1635 C1619 1.377 . S
C1635 C1633 1.389 . S
C1635 C1636 1.524 . S
C1636 C1635 1.524 . S
C1636 C1637 1.397 . S
C1636 C1641 1.363 . S
C1637 H1608 0.950 . S
C1637 C1636 1.397 . S
C1637 C1638 1.334 . S
C1638 H1609 0.950 . S
C1638 C1637 1.334 . S
C1638 C1639 1.287 . S
C1639 C1638 1.287 . S
C1639 C1640 1.524 . S
C1639 H1642 0.999 . S
C1640 H1610 0.950 . S
C1640 C1639 1.524 . S
C1640 C1641 1.415 . S
C1641 H1611 0.950 . S
C1641 C1636 1.363 . S
C1641 C1640 1.415 . S
H1642 C1639 0.999 . S
H1643 C1624 0.913 . S
H1644 C1662 0.951 . S
H1645 C1664 0.951 . S
H1646 C1666 0.950 . S
H1647 C1667 0.950 . S
H1648 C1669 0.950 . S
H1649 C1672 0.950 . S
H1650 C1673 0.950 . S
H1651 C1675 0.950 . S
H1652 C1676 0.950 . S
H1653 C1677 0.951 . S
H1654 C1679 0.951 . S
H1655 C1681 0.950 . S
H1656 C1682 0.950 . S
H1657 C1684 0.950 . S
H1658 C1687 0.950 . S
H1659 C1688 0.950 . S
H1660 C1690 0.950 . S
H1661 C1691 0.950 . S
C1662 H1644 0.951 . S
C1662 C1663 1.366 . S
C1662 C1664 1.388 . S
C1663 C1662 1.366 . S
C1663 C1667 1.385 . S
C1664 H1645 0.951 . S
C1664 C1662 1.388 . S
C1664 C1665 1.366 . S
C1665 C1664 1.366 . S
C1665 C1666 1.414 . S
C1665 C1668 1.499 . S
C1666 H1646 0.950 . S
C1666 C1665 1.414 . S
C1666 C1667 1.374 . S
C1667 H1647 0.950 . S
C1667 C1663 1.385 . S
C1667 C1666 1.374 . S
C1668 C1665 1.499 . S
C1668 C1669 1.373 . S
C1668 C1670 1.389 . S
C1669 H1648 0.950 . S
C1669 C1668 1.373 . S
C1669 C1685 1.377 . S
C1670 C1668 1.389 . S
C1670 C1671 1.524 . S
C1670 C1684 1.377 . S
C1671 C1670 1.524 . S
C1671 C1672 1.397 . S
C1671 C1676 1.363 . S
C1672 H1649 0.950 . S
C1672 C1671 1.397 . S
C1672 C1673 1.334 . S
C1673 H1650 0.950 . S
C1673 C1672 1.334 . S
C1673 C1674 1.287 . S
C1674 C1673 1.287 . S
C1674 C1675 1.524 . S
C1674 H1693 0.913 . S
C1675 H1651 0.950 . S
C1675 C1674 1.524 . S
C1675 C1676 1.415 . S
C1676 H1652 0.950 . S
C1676 C1671 1.363 . S
C1676 C1675 1.415 . S
C1677 H1653 0.951 . S
C1677 C1678 1.366 . S
C1677 C1679 1.388 . S
C1678 C1677 1.366 . S
C1678 C1682 1.385 . S
C1679 H1654 0.951 . S
C1679 C1677 1.388 . S
C1679 C1680 1.366 . S
C1680 C1679 1.366 . S
C1680 C1681 1.414 . S
C1680 C1683 1.499 . S
C1681 H1655 0.950 . S
C1681 C1680 1.414 . S
C1681 C1682 1.374 . S
C1682 H1656 0.950 . S
C1682 C1678 1.385 . S
C1682 C1681 1.374 . S
C1683 C1680 1.499 . S
C1683 C1684 1.373 . S
C1683 C1685 1.389 . S
C1684 H1657 0.950 . S
C1684 C1670 1.377 . S
C1684 C1683 1.373 . S
C1685 C1669 1.377 . S
C1685 C1683 1.389 . S
C1685 C1686 1.524 . S
C1686 C1685 1.524 . S
C1686 C1687 1.397 . S
C1686 C1691 1.363 . S
C1687 H1658 0.950 . S
C1687 C1686 1.397 . S
C1687 C1688 1.334 . S
C1688 H1659 0.950 . S
C1688 C1687 1.334 . S
C1688 C1689 1.287 . S
C1689 C1688 1.287 . S
C1689 C1690 1.524 . S
C1689 H1692 0.999 . S
C1690 H1660 0.950 . S
C1690 C1689 1.524 . S
C1690 C1691 1.415 . S
C1691 H1661 0.950 . S
C1691 C1686 1.363 . S
C1691 C1690 1.415 . S
H1692 C1689 0.999 . S
H1693 C1674 0.913 . S
H1694 C1712 0.951 . S
H1695 C1714 0.951 . S
H1696 C1716 0.950 . S
H1697 C1717 0.950 . S
H1698 C1719 0.950 . S
H1699 C1722 0.950 . S
H1700 C1723 0.950 . S
H1701 C1725 0.950 . S
H1702 C1726 0.950 . S
H1703 C1727 0.951 . S
H1704 C1729 0.951 . S
H1705 C1731 0.950 . S
H1706 C1732 0.950 . S
H1707 C1734 0.950 . S
H1708 C1737 0.950 . S
H1709 C1738 0.950 . S
H1710 C1740 0.950 . S
H1711 C1741 0.950 . S
C1712 H1694 0.951 . S
C1712 C1713 1.366 . S
C1712 C1714 1.388 . S
C1713 C1712 1.366 . S
C1713 C1717 1.385 . S
C1714 H1695 0.951 . S
C1714 C1712 1.388 . S
C1714 C1715 1.366 . S
C1715 C1714 1.366 . S
C1715 C1716 1.414 . S
C1715 C1718 1.499 . S
C1716 H1696 0.950 . S
C1716 C1715 1.414 . S
C1716 C1717 1.374 . S
C1717 H1697 0.950 . S
C1717 C1713 1.385 . S
C1717 C1716 1.374 . S
C1718 C1715 1.499 . S
C1718 C1719 1.373 . S
C1718 C1720 1.389 . S
C1719 H1698 0.950 . S
C1719 C1718 1.373 . S
C1719 C1735 1.377 . S
C1720 C1718 1.389 . S
C1720 C1721 1.524 . S
C1720 C1734 1.377 . S
C1721 C1720 1.524 . S
C1721 C1722 1.397 . S
C1721 C1726 1.363 . S
C1722 H1699 0.950 . S
C1722 C1721 1.397 . S
C1722 C1723 1.334 . S
C1723 H1700 0.950 . S
C1723 C1722 1.334 . S
C1723 C1724 1.287 . S
C1724 C1723 1.287 . S
C1724 C1725 1.524 . S
C1724 H1743 0.913 . S
C1725 H1701 0.950 . S
C1725 C1724 1.524 . S
C1725 C1726 1.415 . S
C1726 H1702 0.950 . S
C1726 C1721 1.363 . S
C1726 C1725 1.415 . S
C1727 H1703 0.951 . S
C1727 C1728 1.366 . S
C1727 C1729 1.388 . S
C1728 C1727 1.366 . S
C1728 C1732 1.385 . S
C1729 H1704 0.951 . S
C1729 C1727 1.388 . S
C1729 C1730 1.366 . S
C1730 C1729 1.366 . S
C1730 C1731 1.414 . S
C1730 C1733 1.499 . S
C1731 H1705 0.950 . S
C1731 C1730 1.414 . S
C1731 C1732 1.374 . S
C1732 H1706 0.950 . S
C1732 C1728 1.385 . S
C1732 C1731 1.374 . S
C1733 C1730 1.499 . S
C1733 C1734 1.373 . S
C1733 C1735 1.389 . S
C1734 H1707 0.950 . S
C1734 C1720 1.377 . S
C1734 C1733 1.373 . S
C1735 C1719 1.377 . S
C1735 C1733 1.389 . S
C1735 C1736 1.524 . S
C1736 C1735 1.524 . S
C1736 C1737 1.397 . S
C1736 C1741 1.363 . S
C1737 H1708 0.950 . S
C1737 C1736 1.397 . S
C1737 C1738 1.334 . S
C1738 H1709 0.950 . S
C1738 C1737 1.334 . S
C1738 C1739 1.287 . S
C1739 C1738 1.287 . S
C1739 C1740 1.524 . S
C1739 H1742 0.999 . S
C1740 H1710 0.950 . S
C1740 C1739 1.524 . S
C1740 C1741 1.415 . S
C1741 H1711 0.950 . S
C1741 C1736 1.363 . S
C1741 C1740 1.415 . S
H1742 C1739 0.999 . S
H1743 C1724 0.913 . S
H1744 C1762 0.951 . S
H1745 C1764 0.951 . S
H1746 C1766 0.950 . S
H1747 C1767 0.950 . S
H1748 C1769 0.950 . S
H1749 C1772 0.950 . S
H1750 C1773 0.950 . S
H1751 C1775 0.950 . S
H1752 C1776 0.950 . S
H1753 C1777 0.951 . S
H1754 C1779 0.951 . S
H1755 C1781 0.950 . S
H1756 C1782 0.950 . S
H1757 C1784 0.950 . S
H1758 C1787 0.950 . S
H1759 C1788 0.950 . S
H1760 C1790 0.950 . S
H1761 C1791 0.950 . S
C1762 H1744 0.951 . S
C1762 C1763 1.366 . S
C1762 C1764 1.388 . S
C1763 C1762 1.366 . S
C1763 C1767 1.385 . S
C1764 H1745 0.951 . S
C1764 C1762 1.388 . S
C1764 C1765 1.366 . S
C1765 C1764 1.366 . S
C1765 C1766 1.414 . S
C1765 C1768 1.499 . S
C1766 H1746 0.950 . S
C1766 C1765 1.414 . S
C1766 C1767 1.374 . S
C1767 H1747 0.950 . S
C1767 C1763 1.385 . S
C1767 C1766 1.374 . S
C1768 C1765 1.499 . S
C1768 C1769 1.373 . S
C1768 C1770 1.389 . S
C1769 H1748 0.950 . S
C1769 C1768 1.373 . S
C1769 C1785 1.377 1_556 S
C1770 C1768 1.389 . S
C1770 C1771 1.524 . S
C1770 C1784 1.377 1_556 S
C1771 C1770 1.524 . S
C1771 C1772 1.397 . S
C1771 C1776 1.363 . S
C1772 H1749 0.950 . S
C1772 C1771 1.397 . S
C1772 C1773 1.334 . S
C1773 H1750 0.950 . S
C1773 C1772 1.334 . S
C1773 C1774 1.287 . S
C1774 C1773 1.287 . S
C1774 C1775 1.524 . S
C1774 H1793 0.913 . S
C1775 H1751 0.950 . S
C1775 C1774 1.524 . S
C1775 C1776 1.415 . S
C1776 H1752 0.950 . S
C1776 C1771 1.363 . S
C1776 C1775 1.415 . S
C1777 H1753 0.951 . S
C1777 C1778 1.366 . S
C1777 C1779 1.388 . S
C1778 C1777 1.366 . S
C1778 C1782 1.385 . S
C1779 H1754 0.951 . S
C1779 C1777 1.388 . S
C1779 C1780 1.366 . S
C1780 C1779 1.366 . S
C1780 C1781 1.414 . S
C1780 C1783 1.499 . S
C1781 H1755 0.950 . S
C1781 C1780 1.414 . S
C1781 C1782 1.374 . S
C1782 H1756 0.950 . S
C1782 C1778 1.385 . S
C1782 C1781 1.374 . S
C1783 C1780 1.499 . S
C1783 C1784 1.373 . S
C1783 C1785 1.389 . S
C1784 H1757 0.950 . S
C1784 C1770 1.377 1_554 S
C1784 C1783 1.373 . S
C1785 C1769 1.377 1_554 S
C1785 C1783 1.389 . S
C1785 C1786 1.524 . S
C1786 C1785 1.524 . S
C1786 C1787 1.397 . S
C1786 C1791 1.363 . S
C1787 H1758 0.950 . S
C1787 C1786 1.397 . S
C1787 C1788 1.334 . S
C1788 H1759 0.950 . S
C1788 C1787 1.334 . S
C1788 C1789 1.287 . S
C1789 C1788 1.287 . S
C1789 C1790 1.524 . S
C1789 H1792 0.999 . S
C1790 H1760 0.950 . S
C1790 C1789 1.524 . S
C1790 C1791 1.415 . S
C1791 H1761 0.950 . S
C1791 C1786 1.363 . S
C1791 C1790 1.415 . S
H1792 C1789 0.999 . S
H1793 C1774 0.913 . S
H1794 C1812 0.951 . S
H1795 C1814 0.951 . S
H1796 C1816 0.950 . S
H1797 C1817 0.950 . S
H1798 C1819 0.950 . S
H1799 C1822 0.950 . S
H1800 C1823 0.950 . S
H1801 C1825 0.950 . S
H1802 C1826 0.950 . S
H1803 C1827 0.951 . S
H1804 C1829 0.951 . S
H1805 C1831 0.950 . S
H1806 C1832 0.950 . S
H1807 C1834 0.950 . S
H1808 C1837 0.950 . S
H1809 C1838 0.950 . S
H1810 C1840 0.950 . S
H1811 C1841 0.950 . S
C1812 H1794 0.951 . S
C1812 C1813 1.366 . S
C1812 C1814 1.388 . S
C1813 C1812 1.366 . S
C1813 C1817 1.385 . S
C1814 H1795 0.951 . S
C1814 C1812 1.388 . S
C1814 C1815 1.366 . S
C1815 C1814 1.366 . S
C1815 C1816 1.414 . S
C1815 C1818 1.499 . S
C1816 H1796 0.950 . S
C1816 C1815 1.414 . S
C1816 C1817 1.374 . S
C1817 H1797 0.950 . S
C1817 C1813 1.385 . S
C1817 C1816 1.374 . S
C1818 C1815 1.499 . S
C1818 C1819 1.373 . S
C1818 C1820 1.389 . S
C1819 H1798 0.950 . S
C1819 C1818 1.373 . S
C1819 C1835 1.377 . S
C1820 C1818 1.389 . S
C1820 C1821 1.524 . S
C1820 C1834 1.377 . S
C1821 C1820 1.524 . S
C1821 C1822 1.397 . S
C1821 C1826 1.363 . S
C1822 H1799 0.950 . S
C1822 C1821 1.397 . S
C1822 C1823 1.334 . S
C1823 H1800 0.950 . S
C1823 C1822 1.334 . S
C1823 C1824 1.287 . S
C1824 C1823 1.287 . S
C1824 C1825 1.524 . S
C1824 H1843 0.913 . S
C1825 H1801 0.950 . S
C1825 C1824 1.524 . S
C1825 C1826 1.415 . S
C1826 H1802 0.950 . S
C1826 C1821 1.363 . S
C1826 C1825 1.415 . S
C1827 H1803 0.951 . S
C1827 C1828 1.366 . S
C1827 C1829 1.388 . S
C1828 C1827 1.366 . S
C1828 C1832 1.385 . S
C1829 H1804 0.951 . S
C1829 C1827 1.388 . S
C1829 C1830 1.366 . S
C1830 C1829 1.366 . S
C1830 C1831 1.414 . S
C1830 C1833 1.499 . S
C1831 H1805 0.950 . S
C1831 C1830 1.414 . S
C1831 C1832 1.374 . S
C1832 H1806 0.950 . S
C1832 C1828 1.385 . S
C1832 C1831 1.374 . S
C1833 C1830 1.499 . S
C1833 C1834 1.373 . S
C1833 C1835 1.389 . S
C1834 H1807 0.950 . S
C1834 C1820 1.377 . S
C1834 C1833 1.373 . S
C1835 C1819 1.377 . S
C1835 C1833 1.389 . S
C1835 C1836 1.524 . S
C1836 C1835 1.524 . S
C1836 C1837 1.397 . S
C1836 C1841 1.363 . S
C1837 H1808 0.950 . S
C1837 C1836 1.397 . S
C1837 C1838 1.334 . S
C1838 H1809 0.950 . S
C1838 C1837 1.334 . S
C1838 C1839 1.287 . S
C1839 C1838 1.287 . S
C1839 C1840 1.524 . S
C1839 H1842 0.999 . S
C1840 H1810 0.950 . S
C1840 C1839 1.524 . S
C1840 C1841 1.415 . S
C1841 H1811 0.950 . S
C1841 C1836 1.363 . S
C1841 C1840 1.415 . S
H1842 C1839 0.999 . S
H1843 C1824 0.913 . S
H1844 C1862 0.951 . S
H1845 C1864 0.951 . S
H1846 C1866 0.950 . S
H1847 C1867 0.950 . S
H1848 C1869 0.950 . S
H1849 C1872 0.950 . S
H1850 C1873 0.950 . S
H1851 C1875 0.950 . S
H1852 C1876 0.950 . S
H1853 C1877 0.951 . S
H1854 C1879 0.951 . S
H1855 C1881 0.950 . S
H1856 C1882 0.950 . S
H1857 C1884 0.950 . S
H1858 C1887 0.950 . S
H1859 C1888 0.950 . S
H1860 C1890 0.950 . S
H1861 C1891 0.950 . S
C1862 H1844 0.951 . S
C1862 C1863 1.366 . S
C1862 C1864 1.388 . S
C1863 C1862 1.366 . S
C1863 C1867 1.385 . S
C1864 H1845 0.951 . S
C1864 C1862 1.388 . S
C1864 C1865 1.366 . S
C1865 C1864 1.366 . S
C1865 C1866 1.414 . S
C1865 C1868 1.499 . S
C1866 H1846 0.950 . S
C1866 C1865 1.414 . S
C1866 C1867 1.374 . S
C1867 H1847 0.950 . S
C1867 C1863 1.385 . S
C1867 C1866 1.374 . S
C1868 C1865 1.499 . S
C1868 C1869 1.373 . S
C1868 C1870 1.389 . S
C1869 H1848 0.950 . S
C1869 C1868 1.373 . S
C1869 C1885 1.377 1_554 S
C1870 C1868 1.389 . S
C1870 C1871 1.524 . S
C1870 C1884 1.377 1_554 S
C1871 C1870 1.524 . S
C1871 C1872 1.397 . S
C1871 C1876 1.363 . S
C1872 H1849 0.950 . S
C1872 C1871 1.397 . S
C1872 C1873 1.334 . S
C1873 H1850 0.950 . S
C1873 C1872 1.334 . S
C1873 C1874 1.287 . S
C1874 C1873 1.287 . S
C1874 C1875 1.524 . S
C1874 H1893 0.913 . S
C1875 H1851 0.950 . S
C1875 C1874 1.524 . S
C1875 C1876 1.415 . S
C1876 H1852 0.950 . S
C1876 C1871 1.363 . S
C1876 C1875 1.415 . S
C1877 H1853 0.951 . S
C1877 C1878 1.366 . S
C1877 C1879 1.388 . S
C1878 C1877 1.366 . S
C1878 C1882 1.385 . S
C1879 H1854 0.951 . S
C1879 C1877 1.388 . S
C1879 C1880 1.366 . S
C1880 C1879 1.366 . S
C1880 C1881 1.414 . S
C1880 C1883 1.499 . S
C1881 H1855 0.950 . S
C1881 C1880 1.414 . S
C1881 C1882 1.374 . S
C1882 H1856 0.950 . S
C1882 C1878 1.385 . S
C1882 C1881 1.374 . S
C1883 C1880 1.499 . S
C1883 C1884 1.373 . S
C1883 C1885 1.389 . S
C1884 H1857 0.950 . S
C1884 C1870 1.377 1_556 S
C1884 C1883 1.373 . S
C1885 C1869 1.377 1_556 S
C1885 C1883 1.389 . S
C1885 C1886 1.524 . S
C1886 C1885 1.524 . S
C1886 C1887 1.397 . S
C1886 C1891 1.363 . S
C1887 H1858 0.950 . S
C1887 C1886 1.397 . S
C1887 C1888 1.334 . S
C1888 H1859 0.950 . S
C1888 C1887 1.334 . S
C1888 C1889 1.287 . S
C1889 C1888 1.287 . S
C1889 C1890 1.524 . S
C1889 H1892 0.999 . S
C1890 H1860 0.950 . S
C1890 C1889 1.524 . S
C1890 C1891 1.415 . S
C1891 H1861 0.950 . S
C1891 C1886 1.363 . S
C1891 C1890 1.415 . S
H1892 C1889 0.999 . S
H1893 C1874 0.913 . S
H1894 C1912 0.951 . S
H1895 C1914 0.951 . S
H1896 C1916 0.950 . S
H1897 C1917 0.950 . S
H1898 C1919 0.950 . S
H1899 C1922 0.950 . S
H1900 C1923 0.950 . S
H1901 C1925 0.950 . S
H1902 C1926 0.950 . S
H1903 C1927 0.951 . S
H1904 C1929 0.951 . S
H1905 C1931 0.950 . S
H1906 C1932 0.950 . S
H1907 C1934 0.950 . S
H1908 C1937 0.950 . S
H1909 C1938 0.950 . S
H1910 C1940 0.950 . S
H1911 C1941 0.950 . S
C1912 H1894 0.951 . S
C1912 C1913 1.366 . S
C1912 C1914 1.388 . S
C1913 C1912 1.366 . S
C1913 C1917 1.385 . S
C1914 H1895 0.951 . S
C1914 C1912 1.388 . S
C1914 C1915 1.366 . S
C1915 C1914 1.366 . S
C1915 C1916 1.414 . S
C1915 C1918 1.499 . S
C1916 H1896 0.950 . S
C1916 C1915 1.414 . S
C1916 C1917 1.374 . S
C1917 H1897 0.950 . S
C1917 C1913 1.385 . S
C1917 C1916 1.374 . S
C1918 C1915 1.499 . S
C1918 C1919 1.373 . S
C1918 C1920 1.389 . S
C1919 H1898 0.950 . S
C1919 C1918 1.373 . S
C1919 C1935 1.377 . S
C1920 C1918 1.389 . S
C1920 C1921 1.524 . S
C1920 C1934 1.377 . S
C1921 C1920 1.524 . S
C1921 C1922 1.397 . S
C1921 C1926 1.363 . S
C1922 H1899 0.950 . S
C1922 C1921 1.397 . S
C1922 C1923 1.334 . S
C1923 H1900 0.950 . S
C1923 C1922 1.334 . S
C1923 C1924 1.287 . S
C1924 C1923 1.287 . S
C1924 C1925 1.524 . S
C1924 H1943 0.913 . S
C1925 H1901 0.950 . S
C1925 C1924 1.524 . S
C1925 C1926 1.415 . S
C1926 H1902 0.950 . S
C1926 C1921 1.363 . S
C1926 C1925 1.415 . S
C1927 H1903 0.951 . S
C1927 C1928 1.366 . S
C1927 C1929 1.388 . S
C1928 C1927 1.366 . S
C1928 C1932 1.385 . S
C1929 H1904 0.951 . S
C1929 C1927 1.388 . S
C1929 C1930 1.366 . S
C1930 C1929 1.366 . S
C1930 C1931 1.414 . S
C1930 C1933 1.499 . S
C1931 H1905 0.950 . S
C1931 C1930 1.414 . S
C1931 C1932 1.374 . S
C1932 H1906 0.950 . S
C1932 C1928 1.385 . S
C1932 C1931 1.374 . S
C1933 C1930 1.499 . S
C1933 C1934 1.373 . S
C1933 C1935 1.389 . S
C1934 H1907 0.950 . S
C1934 C1920 1.377 . S
C1934 C1933 1.373 . S
C1935 C1919 1.377 . S
C1935 C1933 1.389 . S
C1935 C1936 1.524 . S
C1936 C1935 1.524 . S
C1936 C1937 1.397 . S
C1936 C1941 1.363 . S
C1937 H1908 0.950 . S
C1937 C1936 1.397 . S
C1937 C1938 1.334 . S
C1938 H1909 0.950 . S
C1938 C1937 1.334 . S
C1938 C1939 1.287 . S
C1939 C1938 1.287 . S
C1939 C1940 1.524 . S
C1939 H1942 0.999 . S
C1940 H1910 0.950 . S
C1940 C1939 1.524 . S
C1940 C1941 1.415 . S
C1941 H1911 0.950 . S
C1941 C1936 1.363 . S
C1941 C1940 1.415 . S
H1942 C1939 0.999 . S
H1943 C1924 0.913 . S
H1944 C1962 0.951 . S
H1945 C1964 0.951 . S
H1946 C1966 0.950 . S
H1947 C1967 0.950 . S
H1948 C1969 0.950 . S
H1949 C1972 0.950 . S
H1950 C1973 0.950 . S
H1951 C1975 0.950 . S
H1952 C1976 0.950 . S
H1953 C1977 0.951 . S
H1954 C1979 0.951 . S
H1955 C1981 0.950 . S
H1956 C1982 0.950 . S
H1957 C1984 0.950 . S
H1958 C1987 0.950 . S
H1959 C1988 0.950 . S
H1960 C1990 0.950 . S
H1961 C1991 0.950 . S
C1962 H1944 0.951 . S
C1962 C1963 1.366 . S
C1962 C1964 1.388 . S
C1963 C1962 1.366 . S
C1963 C1967 1.385 . S
C1964 H1945 0.951 . S
C1964 C1962 1.388 . S
C1964 C1965 1.366 . S
C1965 C1964 1.366 . S
C1965 C1966 1.414 . S
C1965 C1968 1.499 . S
C1966 H1946 0.950 . S
C1966 C1965 1.414 . S
C1966 C1967 1.374 . S
C1967 H1947 0.950 . S
C1967 C1963 1.385 . S
C1967 C1966 1.374 . S
C1968 C1965 1.499 . S
C1968 C1969 1.373 . S
C1968 C1970 1.389 . S
C1969 H1948 0.950 . S
C1969 C1968 1.373 . S
C1969 C1985 1.377 . S
C1970 C1968 1.389 . S
C1970 C1971 1.524 . S
C1970 C1984 1.377 . S
C1971 C1970 1.524 . S
C1971 C1972 1.397 . S
C1971 C1976 1.363 . S
C1972 H1949 0.950 . S
C1972 C1971 1.397 . S
C1972 C1973 1.334 . S
C1973 H1950 0.950 . S
C1973 C1972 1.334 . S
C1973 C1974 1.287 . S
C1974 C1973 1.287 . S
C1974 C1975 1.524 . S
C1974 H1993 0.913 . S
C1975 H1951 0.950 . S
C1975 C1974 1.524 . S
C1975 C1976 1.415 . S
C1976 H1952 0.950 . S
C1976 C1971 1.363 . S
C1976 C1975 1.415 . S
C1977 H1953 0.951 . S
C1977 C1978 1.366 . S
C1977 C1979 1.388 . S
C1978 C1977 1.366 . S
C1978 C1982 1.385 . S
C1979 H1954 0.951 . S
C1979 C1977 1.388 . S
C1979 C1980 1.366 . S
C1980 C1979 1.366 . S
C1980 C1981 1.414 . S
C1980 C1983 1.499 . S
C1981 H1955 0.950 . S
C1981 C1980 1.414 . S
C1981 C1982 1.374 . S
C1982 H1956 0.950 . S
C1982 C1978 1.385 . S
C1982 C1981 1.374 . S
C1983 C1980 1.499 . S
C1983 C1984 1.373 . S
C1983 C1985 1.389 . S
C1984 H1957 0.950 . S
C1984 C1970 1.377 . S
C1984 C1983 1.373 . S
C1985 C1969 1.377 . S
C1985 C1983 1.389 . S
C1985 C1986 1.524 . S
C1986 C1985 1.524 . S
C1986 C1987 1.397 . S
C1986 C1991 1.363 . S
C1987 H1958 0.950 . S
C1987 C1986 1.397 . S
C1987 C1988 1.334 . S
C1988 H1959 0.950 . S
C1988 C1987 1.334 . S
C1988 C1989 1.287 . S
C1989 C1988 1.287 . S
C1989 C1990 1.524 . S
C1989 H1992 0.999 . S
C1990 H1960 0.950 . S
C1990 C1989 1.524 . S
C1990 C1991 1.415 . S
C1991 H1961 0.950 . S
C1991 C1986 1.363 . S
C1991 C1990 1.415 . S
H1992 C1989 0.999 . S
H1993 C1974 0.913 . S
H1994 C2012 0.951 . S
H1995 C2014 0.951 . S
H1996 C2016 0.950 . S
H1997 C2017 0.950 . S
H1998 C2019 0.950 . S
H1999 C2022 0.950 . S
H2000 C2023 0.950 . S
H2001 C2025 0.950 . S
H2002 C2026 0.950 . S
H2003 C2027 0.951 . S
H2004 C2029 0.951 . S
H2005 C2031 0.950 . S
H2006 C2032 0.950 . S
H2007 C2034 0.950 . S
H2008 C2037 0.950 . S
H2009 C2038 0.950 . S
H2010 C2040 0.950 . S
H2011 C2041 0.950 . S
C2012 H1994 0.951 . S
C2012 C2013 1.366 . S
C2012 C2014 1.388 . S
C2013 C2012 1.366 . S
C2013 C2017 1.385 . S
C2014 H1995 0.951 . S
C2014 C2012 1.388 . S
C2014 C2015 1.366 . S
C2015 C2014 1.366 . S
C2015 C2016 1.414 . S
C2015 C2018 1.499 . S
C2016 H1996 0.950 . S
C2016 C2015 1.414 . S
C2016 C2017 1.374 . S
C2017 H1997 0.950 . S
C2017 C2013 1.385 . S
C2017 C2016 1.374 . S
C2018 C2015 1.499 . S
C2018 C2019 1.373 . S
C2018 C2020 1.389 . S
C2019 H1998 0.950 . S
C2019 C2018 1.373 . S
C2019 C2035 1.377 1_556 S
C2020 C2018 1.389 . S
C2020 C2021 1.524 . S
C2020 C2034 1.377 1_556 S
C2021 C2020 1.524 . S
C2021 C2022 1.397 . S
C2021 C2026 1.363 . S
C2022 H1999 0.950 . S
C2022 C2021 1.397 . S
C2022 C2023 1.334 . S
C2023 H2000 0.950 . S
C2023 C2022 1.334 . S
C2023 C2024 1.287 . S
C2024 C2023 1.287 . S
C2024 C2025 1.524 . S
C2024 H2043 0.913 . S
C2025 H2001 0.950 . S
C2025 C2024 1.524 . S
C2025 C2026 1.415 . S
C2026 H2002 0.950 . S
C2026 C2021 1.363 . S
C2026 C2025 1.415 . S
C2027 H2003 0.951 . S
C2027 C2028 1.366 . S
C2027 C2029 1.388 . S
C2028 C2027 1.366 . S
C2028 C2032 1.385 . S
C2029 H2004 0.951 . S
C2029 C2027 1.388 . S
C2029 C2030 1.366 . S
C2030 C2029 1.366 . S
C2030 C2031 1.414 . S
C2030 C2033 1.499 . S
C2031 H2005 0.950 . S
C2031 C2030 1.414 . S
C2031 C2032 1.374 . S
C2032 H2006 0.950 . S
C2032 C2028 1.385 . S
C2032 C2031 1.374 . S
C2033 C2030 1.499 . S
C2033 C2034 1.373 . S
C2033 C2035 1.389 . S
C2034 H2007 0.950 . S
C2034 C2020 1.377 1_554 S
C2034 C2033 1.373 . S
C2035 C2019 1.377 1_554 S
C2035 C2033 1.389 . S
C2035 C2036 1.524 . S
C2036 C2035 1.524 . S
C2036 C2037 1.397 . S
C2036 C2041 1.363 . S
C2037 H2008 0.950 . S
C2037 C2036 1.397 . S
C2037 C2038 1.334 . S
C2038 H2009 0.950 . S
C2038 C2037 1.334 . S
C2038 C2039 1.287 . S
C2039 C2038 1.287 . S
C2039 C2040 1.524 . S
C2039 H2042 0.999 . S
C2040 H2010 0.950 . S
C2040 C2039 1.524 . S
C2040 C2041 1.415 . S
C2041 H2011 0.950 . S
C2041 C2036 1.363 . S
C2041 C2040 1.415 . S
H2042 C2039 0.999 . S
H2043 C2024 0.913 . S
H2044 C2062 0.951 . S
H2045 C2064 0.951 . S
H2046 C2066 0.950 . S
H2047 C2067 0.950 . S
H2048 C2069 0.950 . S
H2049 C2072 0.950 . S
H2050 C2073 0.950 . S
H2051 C2075 0.950 . S
H2052 C2076 0.950 . S
H2053 C2077 0.951 . S
H2054 C2079 0.951 . S
H2055 C2081 0.950 . S
H2056 C2082 0.950 . S
H2057 C2084 0.950 . S
H2058 C2087 0.950 . S
H2059 C2088 0.950 . S
H2060 C2090 0.950 . S
H2061 C2091 0.950 . S
C2062 H2044 0.951 . S
C2062 C2063 1.366 . S
C2062 C2064 1.388 . S
C2063 C2062 1.366 . S
C2063 C2067 1.385 . S
C2064 H2045 0.951 . S
C2064 C2062 1.388 . S
C2064 C2065 1.366 . S
C2065 C2064 1.366 . S
C2065 C2066 1.414 . S
C2065 C2068 1.499 . S
C2066 H2046 0.950 . S
C2066 C2065 1.414 . S
C2066 C2067 1.374 . S
C2067 H2047 0.950 . S
C2067 C2063 1.385 . S
C2067 C2066 1.374 . S
C2068 C2065 1.499 . S
C2068 C2069 1.373 . S
C2068 C2070 1.389 . S
C2069 H2048 0.950 . S
C2069 C2068 1.373 . S
C2069 C2085 1.377 . S
C2070 C2068 1.389 . S
C2070 C2071 1.524 . S
C2070 C2084 1.377 . S
C2071 C2070 1.524 . S
C2071 C2072 1.397 . S
C2071 C2076 1.363 . S
C2072 H2049 0.950 . S
C2072 C2071 1.397 . S
C2072 C2073 1.334 . S
C2073 H2050 0.950 . S
C2073 C2072 1.334 . S
C2073 C2074 1.287 . S
C2074 C2073 1.287 . S
C2074 C2075 1.524 . S
C2074 H2093 0.913 . S
C2075 H2051 0.950 . S
C2075 C2074 1.524 . S
C2075 C2076 1.415 . S
C2076 H2052 0.950 . S
C2076 C2071 1.363 . S
C2076 C2075 1.415 . S
C2077 H2053 0.951 . S
C2077 C2078 1.366 . S
C2077 C2079 1.388 . S
C2078 C2077 1.366 . S
C2078 C2082 1.385 . S
C2079 H2054 0.951 . S
C2079 C2077 1.388 . S
C2079 C2080 1.366 . S
C2080 C2079 1.366 . S
C2080 C2081 1.414 . S
C2080 C2083 1.499 . S
C2081 H2055 0.950 . S
C2081 C2080 1.414 . S
C2081 C2082 1.374 . S
C2082 H2056 0.950 . S
C2082 C2078 1.385 . S
C2082 C2081 1.374 . S
C2083 C2080 1.499 . S
C2083 C2084 1.373 . S
C2083 C2085 1.389 . S
C2084 H2057 0.950 . S
C2084 C2070 1.377 . S
C2084 C2083 1.373 . S
C2085 C2069 1.377 . S
C2085 C2083 1.389 . S
C2085 C2086 1.524 . S
C2086 C2085 1.524 . S
C2086 C2087 1.397 . S
C2086 C2091 1.363 . S
C2087 H2058 0.950 . S
C2087 C2086 1.397 . S
C2087 C2088 1.334 . S
C2088 H2059 0.950 . S
C2088 C2087 1.334 . S
C2088 C2089 1.287 . S
C2089 C2088 1.287 . S
C2089 C2090 1.524 . S
C2089 H2092 0.999 . S
C2090 H2060 0.950 . S
C2090 C2089 1.524 . S
C2090 C2091 1.415 . S
C2091 H2061 0.950 . S
C2091 C2086 1.363 . S
C2091 C2090 1.415 . S
H2092 C2089 0.999 . S
H2093 C2074 0.913 . S
H2094 C2112 0.951 . S
H2095 C2114 0.951 . S
H2096 C2116 0.950 . S
H2097 C2117 0.950 . S
H2098 C2119 0.950 . S
H2099 C2122 0.950 . S
H2100 C2123 0.950 . S
H2101 C2125 0.950 . S
H2102 C2126 0.950 . S
H2103 C2127 0.951 . S
H2104 C2129 0.951 . S
H2105 C2131 0.950 . S
H2106 C2132 0.950 . S
H2107 C2134 0.950 . S
H2108 C2137 0.950 . S
H2109 C2138 0.950 . S
H2110 C2140 0.950 . S
H2111 C2141 0.950 . S
C2112 H2094 0.951 . S
C2112 C2113 1.366 . S
C2112 C2114 1.388 . S
C2113 C2112 1.366 . S
C2113 C2117 1.385 . S
C2114 H2095 0.951 . S
C2114 C2112 1.388 . S
C2114 C2115 1.366 . S
C2115 C2114 1.366 . S
C2115 C2116 1.414 . S
C2115 C2118 1.499 . S
C2116 H2096 0.950 . S
C2116 C2115 1.414 . S
C2116 C2117 1.374 . S
C2117 H2097 0.950 . S
C2117 C2113 1.385 . S
C2117 C2116 1.374 . S
C2118 C2115 1.499 . S
C2118 C2119 1.373 . S
C2118 C2120 1.389 . S
C2119 H2098 0.950 . S
C2119 C2118 1.373 . S
C2119 C2135 1.377 1_554 S
C2120 C2118 1.389 . S
C2120 C2121 1.524 . S
C2120 C2134 1.377 1_554 S
C2121 C2120 1.524 . S
C2121 C2122 1.397 . S
C2121 C2126 1.363 . S
C2122 H2099 0.950 . S
C2122 C2121 1.397 . S
C2122 C2123 1.334 . S
C2123 H2100 0.950 . S
C2123 C2122 1.334 . S
C2123 C2124 1.287 . S
C2124 C2123 1.287 . S
C2124 C2125 1.524 . S
C2124 H2143 0.913 . S
C2125 H2101 0.950 . S
C2125 C2124 1.524 . S
C2125 C2126 1.415 . S
C2126 H2102 0.950 . S
C2126 C2121 1.363 . S
C2126 C2125 1.415 . S
C2127 H2103 0.951 . S
C2127 C2128 1.366 . S
C2127 C2129 1.388 . S
C2128 C2127 1.366 . S
C2128 C2132 1.385 . S
C2129 H2104 0.951 . S
C2129 C2127 1.388 . S
C2129 C2130 1.366 . S
C2130 C2129 1.366 . S
C2130 C2131 1.414 . S
C2130 C2133 1.499 . S
C2131 H2105 0.950 . S
C2131 C2130 1.414 . S
C2131 C2132 1.374 . S
C2132 H2106 0.950 . S
C2132 C2128 1.385 . S
C2132 C2131 1.374 . S
C2133 C2130 1.499 . S
C2133 C2134 1.373 . S
C2133 C2135 1.389 . S
C2134 H2107 0.950 . S
C2134 C2120 1.377 1_556 S
C2134 C2133 1.373 . S
C2135 C2119 1.377 1_556 S
C2135 C2133 1.389 . S
C2135 C2136 1.524 . S
C2136 C2135 1.524 . S
C2136 C2137 1.397 . S
C2136 C2141 1.363 . S
C2137 H2108 0.950 . S
C2137 C2136 1.397 . S
C2137 C2138 1.334 . S
C2138 H2109 0.950 . S
C2138 C2137 1.334 . S
C2138 C2139 1.287 . S
C2139 C2138 1.287 . S
C2139 C2140 1.524 . S
C2139 H2142 0.999 . S
C2140 H2110 0.950 . S
C2140 C2139 1.524 . S
C2140 C2141 1.415 . S
C2141 H2111 0.950 . S
C2141 C2136 1.363 . S
C2141 C2140 1.415 . S
H2142 C2139 0.999 . S
H2143 C2124 0.913 . S
H2144 C2162 0.951 . S
H2145 C2164 0.951 . S
H2146 C2166 0.950 . S
H2147 C2167 0.950 . S
H2148 C2169 0.950 . S
H2149 C2172 0.950 . S
H2150 C2173 0.950 . S
H2151 C2175 0.950 . S
H2152 C2176 0.950 . S
H2153 C2177 0.951 . S
H2154 C2179 0.951 . S
H2155 C2181 0.950 . S
H2156 C2182 0.950 . S
H2157 C2184 0.950 . S
H2158 C2187 0.950 . S
H2159 C2188 0.950 . S
H2160 C2190 0.950 . S
H2161 C2191 0.950 . S
C2162 H2144 0.951 . S
C2162 C2163 1.366 . S
C2162 C2164 1.388 . S
C2163 C2162 1.366 . S
C2163 C2167 1.385 . S
C2164 H2145 0.951 . S
C2164 C2162 1.388 . S
C2164 C2165 1.366 . S
C2165 C2164 1.366 . S
C2165 C2166 1.414 . S
C2165 C2168 1.499 . S
C2166 H2146 0.950 . S
C2166 C2165 1.414 . S
C2166 C2167 1.374 . S
C2167 H2147 0.950 . S
C2167 C2163 1.385 . S
C2167 C2166 1.374 . S
C2168 C2165 1.499 . S
C2168 C2169 1.373 . S
C2168 C2170 1.389 . S
C2169 H2148 0.950 . S
C2169 C2168 1.373 . S
C2169 C2185 1.377 . S
C2170 C2168 1.389 . S
C2170 C2171 1.524 . S
C2170 C2184 1.377 . S
C2171 C2170 1.524 . S
C2171 C2172 1.397 . S
C2171 C2176 1.363 . S
C2172 H2149 0.950 . S
C2172 C2171 1.397 . S
C2172 C2173 1.334 . S
C2173 H2150 0.950 . S
C2173 C2172 1.334 . S
C2173 C2174 1.287 . S
C2174 C2173 1.287 . S
C2174 C2175 1.524 . S
C2174 H2193 0.913 . S
C2175 H2151 0.950 . S
C2175 C2174 1.524 . S
C2175 C2176 1.415 . S
C2176 H2152 0.950 . S
C2176 C2171 1.363 . S
C2176 C2175 1.415 . S
C2177 H2153 0.951 . S
C2177 C2178 1.366 . S
C2177 C2179 1.388 . S
C2178 C2177 1.366 . S
C2178 C2182 1.385 . S
C2179 H2154 0.951 . S
C2179 C2177 1.388 . S
C2179 C2180 1.366 . S
C2180 C2179 1.366 . S
C2180 C2181 1.414 . S
C2180 C2183 1.499 . S
C2181 H2155 0.950 . S
C2181 C2180 1.414 . S
C2181 C2182 1.374 . S
C2182 H2156 0.950 . S
C2182 C2178 1.385 . S
C2182 C2181 1.374 . S
C2183 C2180 1.499 . S
C2183 C2184 1.373 . S
C2183 C2185 1.389 . S
C2184 H2157 0.950 . S
C2184 C2170 1.377 . S
C2184 C2183 1.373 . S
C2185 C2169 1.377 . S
C2185 C2183 1.389 . S
C2185 C2186 1.524 . S
C2186 C2185 1.524 . S
C2186 C2187 1.397 . S
C2186 C2191 1.363 . S
C2187 H2158 0.950 . S
C2187 C2186 1.397 . S
C2187 C2188 1.334 . S
C2188 H2159 0.950 . S
C2188 C2187 1.334 . S
C2188 C2189 1.287 . S
C2189 C2188 1.287 . S
C2189 C2190 1.524 . S
C2189 H2192 0.999 . S
C2190 H2160 0.950 . S
C2190 C2189 1.524 . S
C2190 C2191 1.415 . S
C2191 H2161 0.950 . S
C2191 C2186 1.363 . S
C2191 C2190 1.415 . S
H2192 C2189 0.999 . S
H2193 C2174 0.913 . S
H2194 C2212 0.951 . S
H2195 C2214 0.951 . S
H2196 C2216 0.950 . S
H2197 C2217 0.950 . S
H2198 C2219 0.950 . S
H2199 C2222 0.950 . S
H2200 C2223 0.950 . S
H2201 C2225 0.950 . S
H2202 C2226 0.950 . S
H2203 C2227 0.951 . S
H2204 C2229 0.951 . S
H2205 C2231 0.950 . S
H2206 C2232 0.950 . S
H2207 C2234 0.950 . S
H2208 C2237 0.950 . S
H2209 C2238 0.950 . S
H2210 C2240 0.950 . S
H2211 C2241 0.950 . S
C2212 H2194 0.951 . S
C2212 C2213 1.366 . S
C2212 C2214 1.388 . S
C2213 C2212 1.366 . S
C2213 C2217 1.385 . S
C2214 H2195 0.951 . S
C2214 C2212 1.388 . S
C2214 C2215 1.366 . S
C2215 C2214 1.366 . S
C2215 C2216 1.414 . S
C2215 C2218 1.499 . S
C2216 H2196 0.950 . S
C2216 C2215 1.414 . S
C2216 C2217 1.374 . S
C2217 H2197 0.950 . S
C2217 C2213 1.385 . S
C2217 C2216 1.374 . S
C2218 C2215 1.499 . S
C2218 C2219 1.373 . S
C2218 C2220 1.389 . S
C2219 H2198 0.950 . S
C2219 C2218 1.373 . S
C2219 C2235 1.377 . S
C2220 C2218 1.389 . S
C2220 C2221 1.524 . S
C2220 C2234 1.377 . S
C2221 C2220 1.524 . S
C2221 C2222 1.397 . S
C2221 C2226 1.363 . S
C2222 H2199 0.950 . S
C2222 C2221 1.397 . S
C2222 C2223 1.334 . S
C2223 H2200 0.950 . S
C2223 C2222 1.334 . S
C2223 C2224 1.287 . S
C2224 C2223 1.287 . S
C2224 C2225 1.524 . S
C2224 H2243 0.913 . S
C2225 H2201 0.950 . S
C2225 C2224 1.524 . S
C2225 C2226 1.415 . S
C2226 H2202 0.950 . S
C2226 C2221 1.363 . S
C2226 C2225 1.415 . S
C2227 H2203 0.951 . S
C2227 C2228 1.366 . S
C2227 C2229 1.388 . S
C2228 C2227 1.366 . S
C2228 C2232 1.385 . S
C2229 H2204 0.951 . S
C2229 C2227 1.388 . S
C2229 C2230 1.366 . S
C2230 C2229 1.366 . S
C2230 C2231 1.414 . S
C2230 C2233 1.499 . S
C2231 H2205 0.950 . S
C2231 C2230 1.414 . S
C2231 C2232 1.374 . S
C2232 H2206 0.950 . S
C2232 C2228 1.385 . S
C2232 C2231 1.374 . S
C2233 C2230 1.499 . S
C2233 C2234 1.373 . S
C2233 C2235 1.389 . S
C2234 H2207 0.950 . S
C2234 C2220 1.377 . S
C2234 C2233 1.373 . S
C2235 C2219 1.377 . S
C2235 C2233 1.389 . S
C2235 C2236 1.524 . S
C2236 C2235 1.524 . S
C2236 C2237 1.397 . S
C2236 C2241 1.363 . S
C2237 H2208 0.950 . S
C2237 C2236 1.397 . S
C2237 C2238 1.334 . S
C2238 H2209 0.950 . S
C2238 C2237 1.334 . S
C2238 C2239 1.287 . S
C2239 C2238 1.287 . S
C2239 C2240 1.524 . S
C2239 H2242 0.999 . S
C2240 H2210 0.950 . S
C2240 C2239 1.524 . S
C2240 C2241 1.415 . S
C2241 H2211 0.950 . S
C2241 C2236 1.363 . S
C2241 C2240 1.415 . S
H2242 C2239 0.999 . S
H2243 C2224 0.913 . S
H2244 C2262 0.951 . S
H2245 C2264 0.951 . S
H2246 C2266 0.950 . S
H2247 C2267 0.950 . S
H2248 C2269 0.950 . S
H2249 C2272 0.950 . S
H2250 C2273 0.950 . S
H2251 C2275 0.950 . S
H2252 C2276 0.950 . S
H2253 C2277 0.951 . S
H2254 C2279 0.951 . S
H2255 C2281 0.950 . S
H2256 C2282 0.950 . S
H2257 C2284 0.950 . S
H2258 C2287 0.950 . S
H2259 C2288 0.950 . S
H2260 C2290 0.950 . S
H2261 C2291 0.950 . S
C2262 H2244 0.951 . S
C2262 C2263 1.366 . S
C2262 C2264 1.388 . S
C2263 C2262 1.366 . S
C2263 C2267 1.385 . S
C2264 H2245 0.951 . S
C2264 C2262 1.388 . S
C2264 C2265 1.366 . S
C2265 C2264 1.366 . S
C2265 C2266 1.414 . S
C2265 C2268 1.499 . S
C2266 H2246 0.950 . S
C2266 C2265 1.414 . S
C2266 C2267 1.374 . S
C2267 H2247 0.950 . S
C2267 C2263 1.385 . S
C2267 C2266 1.374 . S
C2268 C2265 1.499 . S
C2268 C2269 1.373 . S
C2268 C2270 1.389 . S
C2269 H2248 0.950 . S
C2269 C2268 1.373 . S
C2269 C2285 1.377 . S
C2270 C2268 1.389 . S
C2270 C2271 1.524 . S
C2270 C2284 1.377 . S
C2271 C2270 1.524 . S
C2271 C2272 1.397 . S
C2271 C2276 1.363 . S
C2272 H2249 0.950 . S
C2272 C2271 1.397 . S
C2272 C2273 1.334 . S
C2273 H2250 0.950 . S
C2273 C2272 1.334 . S
C2273 C2274 1.287 . S
C2274 C2273 1.287 . S
C2274 C2275 1.524 . S
C2274 H2293 0.913 . S
C2275 H2251 0.950 . S
C2275 C2274 1.524 . S
C2275 C2276 1.415 . S
C2276 H2252 0.950 . S
C2276 C2271 1.363 . S
C2276 C2275 1.415 . S
C2277 H2253 0.951 . S
C2277 C2278 1.366 . S
C2277 C2279 1.388 . S
C2278 C2277 1.366 . S
C2278 C2282 1.385 . S
C2279 H2254 0.951 . S
C2279 C2277 1.388 . S
C2279 C2280 1.366 . S
C2280 C2279 1.366 . S
C2280 C2281 1.414 . S
C2280 C2283 1.499 . S
C2281 H2255 0.950 . S
C2281 C2280 1.414 . S
C2281 C2282 1.374 . S
C2282 H2256 0.950 . S
C2282 C2278 1.385 . S
C2282 C2281 1.374 . S
C2283 C2280 1.499 . S
C2283 C2284 1.373 . S
C2283 C2285 1.389 . S
C2284 H2257 0.950 . S
C2284 C2270 1.377 . S
C2284 C2283 1.373 . S
C2285 C2269 1.377 . S
C2285 C2283 1.389 . S
C2285 C2286 1.524 . S
C2286 C2285 1.524 . S
C2286 C2287 1.397 . S
C2286 C2291 1.363 . S
C2287 H2258 0.950 . S
C2287 C2286 1.397 . S
C2287 C2288 1.334 . S
C2288 H2259 0.950 . S
C2288 C2287 1.334 . S
C2288 C2289 1.287 . S
C2289 C2288 1.287 . S
C2289 C2290 1.524 . S
C2289 H2292 0.999 . S
C2290 H2260 0.950 . S
C2290 C2289 1.524 . S
C2290 C2291 1.415 . S
C2291 H2261 0.950 . S
C2291 C2286 1.363 . S
C2291 C2290 1.415 . S
H2292 C2289 0.999 . S
H2293 C2274 0.913 . S
H2294 C2312 0.951 . S
H2295 C2314 0.951 . S
H2296 C2316 0.950 . S
H2297 C2317 0.950 . S
H2298 C2319 0.950 . S
H2299 C2322 0.950 . S
H2300 C2323 0.950 . S
H2301 C2325 0.950 . S
H2302 C2326 0.950 . S
H2303 C2327 0.951 . S
H2304 C2329 0.951 . S
H2305 C2331 0.950 . S
H2306 C2332 0.950 . S
H2307 C2334 0.950 . S
H2308 C2337 0.950 . S
H2309 C2338 0.950 . S
H2310 C2340 0.950 . S
H2311 C2341 0.950 . S
C2312 H2294 0.951 . S
C2312 C2313 1.366 . S
C2312 C2314 1.388 . S
C2313 C2312 1.366 . S
C2313 C2317 1.385 . S
C2314 H2295 0.951 . S
C2314 C2312 1.388 . S
C2314 C2315 1.366 . S
C2315 C2314 1.366 . S
C2315 C2316 1.414 . S
C2315 C2318 1.499 . S
C2316 H2296 0.950 . S
C2316 C2315 1.414 . S
C2316 C2317 1.374 . S
C2317 H2297 0.950 . S
C2317 C2313 1.385 . S
C2317 C2316 1.374 . S
C2318 C2315 1.499 . S
C2318 C2319 1.373 . S
C2318 C2320 1.389 . S
C2319 H2298 0.950 . S
C2319 C2318 1.373 . S
C2319 C2335 1.377 . S
C2320 C2318 1.389 . S
C2320 C2321 1.524 . S
C2320 C2334 1.377 . S
C2321 C2320 1.524 . S
C2321 C2322 1.397 . S
C2321 C2326 1.363 . S
C2322 H2299 0.950 . S
C2322 C2321 1.397 . S
C2322 C2323 1.334 . S
C2323 H2300 0.950 . S
C2323 C2322 1.334 . S
C2323 C2324 1.287 . S
C2324 C2323 1.287 . S
C2324 C2325 1.524 . S
C2324 H2343 0.913 . S
C2325 H2301 0.950 . S
C2325 C2324 1.524 . S
C2325 C2326 1.415 . S
C2326 H2302 0.950 . S
C2326 C2321 1.363 . S
C2326 C2325 1.415 . S
C2327 H2303 0.951 . S
C2327 C2328 1.366 . S
C2327 C2329 1.388 . S
C2328 C2327 1.366 . S
C2328 C2332 1.385 . S
C2329 H2304 0.951 . S
C2329 C2327 1.388 . S
C2329 C2330 1.366 . S
C2330 C2329 1.366 . S
C2330 C2331 1.414 . S
C2330 C2333 1.499 . S
C2331 H2305 0.950 . S
C2331 C2330 1.414 . S
C2331 C2332 1.374 . S
C2332 H2306 0.950 . S
C2332 C2328 1.385 . S
C2332 C2331 1.374 . S
C2333 C2330 1.499 . S
C2333 C2334 1.373 . S
C2333 C2335 1.389 . S
C2334 H2307 0.950 . S
C2334 C2320 1.377 . S
C2334 C2333 1.373 . S
C2335 C2319 1.377 . S
C2335 C2333 1.389 . S
C2335 C2336 1.524 . S
C2336 C2335 1.524 . S
C2336 C2337 1.397 . S
C2336 C2341 1.363 . S
C2337 H2308 0.950 . S
C2337 C2336 1.397 . S
C2337 C2338 1.334 . S
C2338 H2309 0.950 . S
C2338 C2337 1.334 . S
C2338 C2339 1.287 . S
C2339 C2338 1.287 . S
C2339 C2340 1.524 . S
C2339 H2342 0.999 . S
C2340 H2310 0.950 . S
C2340 C2339 1.524 . S
C2340 C2341 1.415 . S
C2341 H2311 0.950 . S
C2341 C2336 1.363 . S
C2341 C2340 1.415 . S
H2342 C2339 0.999 . S
H2343 C2324 0.913 . S
H2344 C2362 0.951 . S
H2345 C2364 0.951 . S
H2346 C2366 0.950 . S
H2347 C2367 0.950 . S
H2348 C2369 0.950 . S
H2349 C2372 0.950 . S
H2350 C2373 0.950 . S
H2351 C2375 0.950 . S
H2352 C2376 0.950 . S
H2353 C2377 0.951 . S
H2354 C2379 0.951 . S
H2355 C2381 0.950 . S
H2356 C2382 0.950 . S
H2357 C2384 0.950 . S
H2358 C2387 0.950 . S
H2359 C2388 0.950 . S
H2360 C2390 0.950 . S
H2361 C2391 0.950 . S
C2362 H2344 0.951 . S
C2362 C2363 1.366 . S
C2362 C2364 1.388 . S
C2363 C2362 1.366 . S
C2363 C2367 1.385 . S
C2364 H2345 0.951 . S
C2364 C2362 1.388 . S
C2364 C2365 1.366 . S
C2365 C2364 1.366 . S
C2365 C2366 1.414 . S
C2365 C2368 1.499 . S
C2366 H2346 0.950 . S
C2366 C2365 1.414 . S
C2366 C2367 1.374 . S
C2367 H2347 0.950 . S
C2367 C2363 1.385 . S
C2367 C2366 1.374 . S
C2368 C2365 1.499 . S
C2368 C2369 1.373 . S
C2368 C2370 1.389 . S
C2369 H2348 0.950 . S
C2369 C2368 1.373 . S
C2369 C2385 1.377 . S
C2370 C2368 1.389 . S
C2370 C2371 1.524 . S
C2370 C2384 1.377 . S
C2371 C2370 1.524 . S
C2371 C2372 1.397 . S
C2371 C2376 1.363 . S
C2372 H2349 0.950 . S
C2372 C2371 1.397 . S
C2372 C2373 1.334 . S
C2373 H2350 0.950 . S
C2373 C2372 1.334 . S
C2373 C2374 1.287 . S
C2374 C2373 1.287 . S
C2374 C2375 1.524 . S
C2374 H2393 0.913 . S
C2375 H2351 0.950 . S
C2375 C2374 1.524 . S
C2375 C2376 1.415 . S
C2376 H2352 0.950 . S
C2376 C2371 1.363 . S
C2376 C2375 1.415 . S
C2377 H2353 0.951 . S
C2377 C2378 1.366 . S
C2377 C2379 1.388 . S
C2378 C2377 1.366 . S
C2378 C2382 1.385 . S
C2379 H2354 0.951 . S
C2379 C2377 1.388 . S
C2379 C2380 1.366 . S
C2380 C2379 1.366 . S
C2380 C2381 1.414 . S
C2380 C2383 1.499 . S
C2381 H2355 0.950 . S
C2381 C2380 1.414 . S
C2381 C2382 1.374 . S
C2382 H2356 0.950 . S
C2382 C2378 1.385 . S
C2382 C2381 1.374 . S
C2383 C2380 1.499 . S
C2383 C2384 1.373 . S
C2383 C2385 1.389 . S
C2384 H2357 0.950 . S
C2384 C2370 1.377 . S
C2384 C2383 1.373 . S
C2385 C2369 1.377 . S
C2385 C2383 1.389 . S
C2385 C2386 1.524 . S
C2386 C2385 1.524 . S
C2386 C2387 1.397 . S
C2386 C2391 1.363 . S
C2387 H2358 0.950 . S
C2387 C2386 1.397 . S
C2387 C2388 1.334 . S
C2388 H2359 0.950 . S
C2388 C2387 1.334 . S
C2388 C2389 1.287 . S
C2389 C2388 1.287 . S
C2389 C2390 1.524 . S
C2389 H2392 0.999 . S
C2390 H2360 0.950 . S
C2390 C2389 1.524 . S
C2390 C2391 1.415 . S
C2391 H2361 0.950 . S
C2391 C2386 1.363 . S
C2391 C2390 1.415 . S
H2392 C2389 0.999 . S
H2393 C2374 0.913 . S
H2394 C2412 0.951 . S
H2395 C2414 0.951 . S
H2396 C2416 0.950 . S
H2397 C2417 0.950 . S
H2398 C2419 0.950 . S
H2399 C2422 0.950 . S
H2400 C2423 0.950 . S
H2401 C2425 0.950 . S
H2402 C2426 0.950 . S
H2403 C2427 0.951 . S
H2404 C2429 0.951 . S
H2405 C2431 0.950 . S
H2406 C2432 0.950 . S
H2407 C2434 0.950 . S
H2408 C2437 0.950 . S
H2409 C2438 0.950 . S
H2410 C2440 0.950 . S
H2411 C2441 0.950 . S
C2412 H2394 0.951 . S
C2412 C2413 1.366 . S
C2412 C2414 1.388 . S
C2413 C2412 1.366 . S
C2413 C2417 1.385 . S
C2414 H2395 0.951 . S
C2414 C2412 1.388 . S
C2414 C2415 1.366 . S
C2415 C2414 1.366 . S
C2415 C2416 1.414 . S
C2415 C2418 1.499 . S
C2416 H2396 0.950 . S
C2416 C2415 1.414 . S
C2416 C2417 1.374 . S
C2417 H2397 0.950 . S
C2417 C2413 1.385 . S
C2417 C2416 1.374 . S
C2418 C2415 1.499 . S
C2418 C2419 1.373 . S
C2418 C2420 1.389 . S
C2419 H2398 0.950 . S
C2419 C2418 1.373 . S
C2419 C2435 1.377 . S
C2420 C2418 1.389 . S
C2420 C2421 1.524 . S
C2420 C2434 1.377 . S
C2421 C2420 1.524 . S
C2421 C2422 1.397 . S
C2421 C2426 1.363 . S
C2422 H2399 0.950 . S
C2422 C2421 1.397 . S
C2422 C2423 1.334 . S
C2423 H2400 0.950 . S
C2423 C2422 1.334 . S
C2423 C2424 1.287 . S
C2424 C2423 1.287 . S
C2424 C2425 1.524 . S
C2424 H2443 0.913 . S
C2425 H2401 0.950 . S
C2425 C2424 1.524 . S
C2425 C2426 1.415 . S
C2426 H2402 0.950 . S
C2426 C2421 1.363 . S
C2426 C2425 1.415 . S
C2427 H2403 0.951 . S
C2427 C2428 1.366 . S
C2427 C2429 1.388 . S
C2428 C2427 1.366 . S
C2428 C2432 1.385 . S
C2429 H2404 0.951 . S
C2429 C2427 1.388 . S
C2429 C2430 1.366 . S
C2430 C2429 1.366 . S
C2430 C2431 1.414 . S
C2430 C2433 1.499 . S
C2431 H2405 0.950 . S
C2431 C2430 1.414 . S
C2431 C2432 1.374 . S
C2432 H2406 0.950 . S
C2432 C2428 1.385 . S
C2432 C2431 1.374 . S
C2433 C2430 1.499 . S
C2433 C2434 1.373 . S
C2433 C2435 1.389 . S
C2434 H2407 0.950 . S
C2434 C2420 1.377 . S
C2434 C2433 1.373 . S
C2435 C2419 1.377 . S
C2435 C2433 1.389 . S
C2435 C2436 1.524 . S
C2436 C2435 1.524 . S
C2436 C2437 1.397 . S
C2436 C2441 1.363 . S
C2437 H2408 0.950 . S
C2437 C2436 1.397 . S
C2437 C2438 1.334 . S
C2438 H2409 0.950 . S
C2438 C2437 1.334 . S
C2438 C2439 1.287 . S
C2439 C2438 1.287 . S
C2439 C2440 1.524 . S
C2439 H2442 0.999 . S
C2440 H2410 0.950 . S
C2440 C2439 1.524 . S
C2440 C2441 1.415 . S
C2441 H2411 0.950 . S
C2441 C2436 1.363 . S
C2441 C2440 1.415 . S
H2442 C2439 0.999 . S
H2443 C2424 0.913 . S
H2444 C2462 0.951 . S
H2445 C2464 0.951 . S
H2446 C2466 0.950 . S
H2447 C2467 0.950 . S
H2448 C2469 0.950 . S
H2449 C2472 0.950 . S
H2450 C2473 0.950 . S
H2451 C2475 0.950 . S
H2452 C2476 0.950 . S
H2453 C2477 0.951 . S
H2454 C2479 0.951 . S
H2455 C2481 0.950 . S
H2456 C2482 0.950 . S
H2457 C2484 0.950 . S
H2458 C2487 0.950 . S
H2459 C2488 0.950 . S
H2460 C2490 0.950 . S
H2461 C2491 0.950 . S
C2462 H2444 0.951 . S
C2462 C2463 1.366 . S
C2462 C2464 1.388 . S
C2463 C2462 1.366 . S
C2463 C2467 1.385 . S
C2464 H2445 0.951 . S
C2464 C2462 1.388 . S
C2464 C2465 1.366 . S
C2465 C2464 1.366 . S
C2465 C2466 1.414 . S
C2465 C2468 1.499 . S
C2466 H2446 0.950 . S
C2466 C2465 1.414 . S
C2466 C2467 1.374 . S
C2467 H2447 0.950 . S
C2467 C2463 1.385 . S
C2467 C2466 1.374 . S
C2468 C2465 1.499 . S
C2468 C2469 1.373 . S
C2468 C2470 1.389 . S
C2469 H2448 0.950 . S
C2469 C2468 1.373 . S
C2469 C2485 1.377 . S
C2470 C2468 1.389 . S
C2470 C2471 1.524 . S
C2470 C2484 1.377 . S
C2471 C2470 1.524 . S
C2471 C2472 1.397 . S
C2471 C2476 1.363 . S
C2472 H2449 0.950 . S
C2472 C2471 1.397 . S
C2472 C2473 1.334 . S
C2473 H2450 0.950 . S
C2473 C2472 1.334 . S
C2473 C2474 1.287 . S
C2474 C2473 1.287 . S
C2474 C2475 1.524 . S
C2474 H2493 0.913 . S
C2475 H2451 0.950 . S
C2475 C2474 1.524 . S
C2475 C2476 1.415 . S
C2476 H2452 0.950 . S
C2476 C2471 1.363 . S
C2476 C2475 1.415 . S
C2477 H2453 0.951 . S
C2477 C2478 1.366 . S
C2477 C2479 1.388 . S
C2478 C2477 1.366 . S
C2478 C2482 1.385 . S
C2479 H2454 0.951 . S
C2479 C2477 1.388 . S
C2479 C2480 1.366 . S
C2480 C2479 1.366 . S
C2480 C2481 1.414 . S
C2480 C2483 1.499 . S
C2481 H2455 0.950 . S
C2481 C2480 1.414 . S
C2481 C2482 1.374 . S
C2482 H2456 0.950 . S
C2482 C2478 1.385 . S
C2482 C2481 1.374 . S
C2483 C2480 1.499 . S
C2483 C2484 1.373 . S
C2483 C2485 1.389 . S
C2484 H2457 0.950 . S
C2484 C2470 1.377 . S
C2484 C2483 1.373 . S
C2485 C2469 1.377 . S
C2485 C2483 1.389 . S
C2485 C2486 1.524 . S
C2486 C2485 1.524 . S
C2486 C2487 1.397 . S
C2486 C2491 1.363 . S
C2487 H2458 0.950 . S
C2487 C2486 1.397 . S
C2487 C2488 1.334 . S
C2488 H2459 0.950 . S
C2488 C2487 1.334 . S
C2488 C2489 1.287 . S
C2489 C2488 1.287 . S
C2489 C2490 1.524 . S
C2489 H2492 0.999 . S
C2490 H2460 0.950 . S
C2490 C2489 1.524 . S
C2490 C2491 1.415 . S
C2491 H2461 0.950 . S
C2491 C2486 1.363 . S
C2491 C2490 1.415 . S
H2492 C2489 0.999 . S
H2493 C2474 0.913 . S
H2494 C2512 0.951 . S
H2495 C2514 0.951 . S
H2496 C2516 0.950 . S
H2497 C2517 0.950 . S
H2498 C2519 0.950 . S
H2499 C2522 0.950 . S
H2500 C2523 0.950 . S
H2501 C2525 0.950 . S
H2502 C2526 0.950 . S
H2503 C2527 0.951 . S
H2504 C2529 0.951 . S
H2505 C2531 0.950 . S
H2506 C2532 0.950 . S
H2507 C2534 0.950 . S
H2508 C2537 0.950 . S
H2509 C2538 0.950 . S
H2510 C2540 0.950 . S
H2511 C2541 0.950 . S
C2512 H2494 0.951 . S
C2512 C2513 1.366 . S
C2512 C2514 1.388 . S
C2513 C2512 1.366 . S
C2513 C2517 1.385 . S
C2514 H2495 0.951 . S
C2514 C2512 1.388 . S
C2514 C2515 1.366 . S
C2515 C2514 1.366 . S
C2515 C2516 1.414 . S
C2515 C2518 1.499 . S
C2516 H2496 0.950 . S
C2516 C2515 1.414 . S
C2516 C2517 1.374 . S
C2517 H2497 0.950 . S
C2517 C2513 1.385 . S
C2517 C2516 1.374 . S
C2518 C2515 1.499 . S
C2518 C2519 1.373 . S
C2518 C2520 1.389 . S
C2519 H2498 0.950 . S
C2519 C2518 1.373 . S
C2519 C2535 1.377 . S
C2520 C2518 1.389 . S
C2520 C2521 1.524 . S
C2520 C2534 1.377 . S
C2521 C2520 1.524 . S
C2521 C2522 1.397 . S
C2521 C2526 1.363 . S
C2522 H2499 0.950 . S
C2522 C2521 1.397 . S
C2522 C2523 1.334 . S
C2523 H2500 0.950 . S
C2523 C2522 1.334 . S
C2523 C2524 1.287 . S
C2524 C2523 1.287 . S
C2524 C2525 1.524 . S
C2524 H2543 0.913 . S
C2525 H2501 0.950 . S
C2525 C2524 1.524 . S
C2525 C2526 1.415 . S
C2526 H2502 0.950 . S
C2526 C2521 1.363 . S
C2526 C2525 1.415 . S
C2527 H2503 0.951 . S
C2527 C2528 1.366 . S
C2527 C2529 1.388 . S
C2528 C2527 1.366 . S
C2528 C2532 1.385 . S
C2529 H2504 0.951 . S
C2529 C2527 1.388 . S
C2529 C2530 1.366 . S
C2530 C2529 1.366 . S
C2530 C2531 1.414 . S
C2530 C2533 1.499 . S
C2531 H2505 0.950 . S
C2531 C2530 1.414 . S
C2531 C2532 1.374 . S
C2532 H2506 0.950 . S
C2532 C2528 1.385 . S
C2532 C2531 1.374 . S
C2533 C2530 1.499 . S
C2533 C2534 1.373 . S
C2533 C2535 1.389 . S
C2534 H2507 0.950 . S
C2534 C2520 1.377 . S
C2534 C2533 1.373 . S
C2535 C2519 1.377 . S
C2535 C2533 1.389 . S
C2535 C2536 1.524 . S
C2536 C2535 1.524 . S
C2536 C2537 1.397 . S
C2536 C2541 1.363 . S
C2537 H2508 0.950 . S
C2537 C2536 1.397 . S
C2537 C2538 1.334 . S
C2538 H2509 0.950 . S
C2538 C2537 1.334 . S
C2538 C2539 1.287 . S
C2539 C2538 1.287 . S
C2539 C2540 1.524 . S
C2539 H2542 0.999 . S
C2540 H2510 0.950 . S
C2540 C2539 1.524 . S
C2540 C2541 1.415 . S
C2541 H2511 0.950 . S
C2541 C2536 1.363 . S
C2541 C2540 1.415 . S
H2542 C2539 0.999 . S
H2543 C2524 0.913 . S
C963 C52 1.391 . S
C978 C170 1.390 . S
C1013 C229 1.391 . S
C1028 C111 1.391 . S
C1063 C288 1.391 . S
C1078 C406 1.390 . S
C1113 C465 1.390 . S
C1128 C347 1.391 . S
C1163 C524 1.390 . S
C1178 C642 1.391 . S
C1213 C701 1.391 . S
C1228 C583 1.391 . S
C1263 C760 1.391 . S
C1278 C878 1.390 . S
C1313 C937 1.391 . S
C1328 C819 1.391 . S
C1363 C269 1.188 . S
C1378 C33 1.188 . S
C1413 C92 1.188 . S
C1428 C328 1.188 . S
C1463 C151 1.188 . S
C1478 C387 1.188 . S
C1513 C446 1.188 . S
C1528 C210 1.188 . S
C1563 C505 1.188 . S
C1578 C741 1.188 . S
C1613 C564 1.188 . S
C1628 C800 1.188 . S
C1663 C623 1.189 . S
C1678 C859 1.188 . S
C1713 C682 1.188 . S
C1728 C918 1.188 . S
C1763 C593 1.304 . S
C1778 C3 1.304 . S
C1813 C652 1.303 . S
C1828 C62 1.304 . S
C1863 C121 1.304 . S
C1878 C475 1.304 . S
C1913 C180 1.304 . S
C1928 C534 1.304 . S
C1963 C239 1.304 . S
C1978 C829 1.304 . S
C2013 C298 1.304 . S
C2028 C888 1.304 . S
C2063 C357 1.303 . S
C2078 C711 1.304 . S
C2113 C770 1.304 . S
C2128 C416 1.303 . S
C2163 C5 1.403 . S
C2178 C890 1.403 . S
C2213 C713 1.403 . S
C2228 C64 1.403 . S
C2263 C123 1.403 . S
C2278 C772 1.403 . S
C2313 C831 1.403 . S
C2328 C182 1.403 . S
C2363 C536 1.403 . S
C2378 C241 1.403 . S
C2413 C300 1.403 . S
C2428 C595 1.403 . S
C2463 C654 1.403 . S
C2478 C359 1.403 . S
C2513 C477 1.403 . S
C2528 C418 1.403 . S
