# Generated by pormake.
# Topology whz, (6)-cn, num edge types: 1
# Building blocks:
#     Node 0, Type 0, BuildingBlock: VOLQOD_clean_sbu_1, # of connection points: 6
#     Node 1, Type 0, BuildingBlock: VOLQOD_clean_sbu_1, # of connection points: 6
#     Node 2, Type 0, BuildingBlock: VOLQOD_clean_sbu_1, # of connection points: 6
#     Node 3, Type 0, BuildingBlock: VOLQOD_clean_sbu_1, # of connection points: 6
#     Node 4, Type 0, BuildingBlock: VOLQOD_clean_sbu_1, # of connection points: 6
#     Node 5, Type 0, BuildingBlock: VOLQOD_clean_sbu_1, # of connection points: 6
#     Node 6, Type 0, BuildingBlock: VOLQOD_clean_sbu_1, # of connection points: 6
#     Node 7, Type 0, BuildingBlock: VOLQOD_clean_sbu_1, # of connection points: 6
#     Node 8, Type 0, BuildingBlock: VOLQOD_clean_sbu_1, # of connection points: 6
#     Node 9, Type 0, BuildingBlock: VOLQOD_clean_sbu_1, # of connection points: 6
#     Node 10, Type 0, BuildingBlock: VOLQOD_clean_sbu_1, # of connection points: 6
#     Node 11, Type 0, BuildingBlock: VOLQOD_clean_sbu_1, # of connection points: 6
#     Node 12, Type 0, BuildingBlock: VOLQOD_clean_sbu_1, # of connection points: 6
#     Node 13, Type 0, BuildingBlock: VOLQOD_clean_sbu_1, # of connection points: 6
#     Node 14, Type 0, BuildingBlock: VOLQOD_clean_sbu_1, # of connection points: 6
#     Node 15, Type 0, BuildingBlock: VOLQOD_clean_sbu_1, # of connection points: 6
#     Edge 16, Type (0, 0), BuildingBlock: KIFKEQ_clean_linker_1, # of connection points: 2
#     Edge 17, Type (0, 0), BuildingBlock: KIFKEQ_clean_linker_1, # of connection points: 2
#     Edge 18, Type (0, 0), BuildingBlock: KIFKEQ_clean_linker_1, # of connection points: 2
#     Edge 19, Type (0, 0), BuildingBlock: KIFKEQ_clean_linker_1, # of connection points: 2
#     Edge 20, Type (0, 0), BuildingBlock: KIFKEQ_clean_linker_1, # of connection points: 2
#     Edge 21, Type (0, 0), BuildingBlock: KIFKEQ_clean_linker_1, # of connection points: 2
#     Edge 22, Type (0, 0), BuildingBlock: KIFKEQ_clean_linker_1, # of connection points: 2
#     Edge 23, Type (0, 0), BuildingBlock: KIFKEQ_clean_linker_1, # of connection points: 2
#     Edge 24, Type (0, 0), BuildingBlock: KIFKEQ_clean_linker_1, # of connection points: 2
#     Edge 25, Type (0, 0), BuildingBlock: KIFKEQ_clean_linker_1, # of connection points: 2
#     Edge 26, Type (0, 0), BuildingBlock: KIFKEQ_clean_linker_1, # of connection points: 2
#     Edge 27, Type (0, 0), BuildingBlock: KIFKEQ_clean_linker_1, # of connection points: 2
#     Edge 28, Type (0, 0), BuildingBlock: KIFKEQ_clean_linker_1, # of connection points: 2
#     Edge 29, Type (0, 0), BuildingBlock: KIFKEQ_clean_linker_1, # of connection points: 2
#     Edge 30, Type (0, 0), BuildingBlock: KIFKEQ_clean_linker_1, # of connection points: 2
#     Edge 31, Type (0, 0), BuildingBlock: KIFKEQ_clean_linker_1, # of connection points: 2
#     Edge 32, Type (0, 0), BuildingBlock: KIFKEQ_clean_linker_1, # of connection points: 2
#     Edge 33, Type (0, 0), BuildingBlock: KIFKEQ_clean_linker_1, # of connection points: 2
#     Edge 34, Type (0, 0), BuildingBlock: KIFKEQ_clean_linker_1, # of connection points: 2
#     Edge 35, Type (0, 0), BuildingBlock: KIFKEQ_clean_linker_1, # of connection points: 2
#     Edge 36, Type (0, 0), BuildingBlock: KIFKEQ_clean_linker_1, # of connection points: 2
#     Edge 37, Type (0, 0), BuildingBlock: KIFKEQ_clean_linker_1, # of connection points: 2
#     Edge 38, Type (0, 0), BuildingBlock: KIFKEQ_clean_linker_1, # of connection points: 2
#     Edge 39, Type (0, 0), BuildingBlock: KIFKEQ_clean_linker_1, # of connection points: 2
#     Edge 40, Type (0, 0), BuildingBlock: KIFKEQ_clean_linker_1, # of connection points: 2
#     Edge 41, Type (0, 0), BuildingBlock: KIFKEQ_clean_linker_1, # of connection points: 2
#     Edge 42, Type (0, 0), BuildingBlock: KIFKEQ_clean_linker_1, # of connection points: 2
#     Edge 43, Type (0, 0), BuildingBlock: KIFKEQ_clean_linker_1, # of connection points: 2
#     Edge 44, Type (0, 0), BuildingBlock: KIFKEQ_clean_linker_1, # of connection points: 2
#     Edge 45, Type (0, 0), BuildingBlock: KIFKEQ_clean_linker_1, # of connection points: 2
#     Edge 46, Type (0, 0), BuildingBlock: KIFKEQ_clean_linker_1, # of connection points: 2
#     Edge 47, Type (0, 0), BuildingBlock: KIFKEQ_clean_linker_1, # of connection points: 2
#     Edge 48, Type (0, 0), BuildingBlock: KIFKEQ_clean_linker_1, # of connection points: 2
#     Edge 49, Type (0, 0), BuildingBlock: KIFKEQ_clean_linker_1, # of connection points: 2
#     Edge 50, Type (0, 0), BuildingBlock: KIFKEQ_clean_linker_1, # of connection points: 2
#     Edge 51, Type (0, 0), BuildingBlock: KIFKEQ_clean_linker_1, # of connection points: 2
#     Edge 52, Type (0, 0), BuildingBlock: KIFKEQ_clean_linker_1, # of connection points: 2
#     Edge 53, Type (0, 0), BuildingBlock: KIFKEQ_clean_linker_1, # of connection points: 2
#     Edge 54, Type (0, 0), BuildingBlock: KIFKEQ_clean_linker_1, # of connection points: 2
#     Edge 55, Type (0, 0), BuildingBlock: KIFKEQ_clean_linker_1, # of connection points: 2
#     Edge 56, Type (0, 0), BuildingBlock: KIFKEQ_clean_linker_1, # of connection points: 2
#     Edge 57, Type (0, 0), BuildingBlock: KIFKEQ_clean_linker_1, # of connection points: 2
#     Edge 58, Type (0, 0), BuildingBlock: KIFKEQ_clean_linker_1, # of connection points: 2
#     Edge 59, Type (0, 0), BuildingBlock: KIFKEQ_clean_linker_1, # of connection points: 2
#     Edge 60, Type (0, 0), BuildingBlock: KIFKEQ_clean_linker_1, # of connection points: 2
#     Edge 61, Type (0, 0), BuildingBlock: KIFKEQ_clean_linker_1, # of connection points: 2
#     Edge 62, Type (0, 0), BuildingBlock: KIFKEQ_clean_linker_1, # of connection points: 2
#     Edge 63, Type (0, 0), BuildingBlock: KIFKEQ_clean_linker_1, # of connection points: 2
# Relax obj value: 0.426
# Max RMSD: 0.199
# Mean RMSD: 0.199
data_MOF--net-whz--node1-VOLQOD_clean_sbu_1--edge1-KIFKEQ_clean_linker_1
_symmetry_space_group_name_H-M    P1
_symmetry_Int_Tables_number       1
_symmetry_cell_setting            triclinic
loop_
_symmetry_equiv_pos_as_xyz
'x, y, z'
_cell_length_a     37.52186
_cell_length_b     37.528775
_cell_length_c     55.576725
_cell_angle_alpha  90.009929
_cell_angle_beta   89.979431
_cell_angle_gamma 89.916705
loop_
_atom_site_label
_atom_site_type_symbol
_atom_site_fract_x
_atom_site_fract_y
_atom_site_fract_z
_atom_type_partial_charge
O0 O 0.25239 0.17147 0.16382 0.0
Zn1 Zn 0.24756 0.15266 0.13092 0.0
O2 O 0.2914 0.1315 0.11995 0.0
Zn3 Zn 0.28084 0.08251 0.10921 0.0
Zn4 Zn 0.32621 0.13275 0.14598 0.0
Zn5 Zn 0.30893 0.16096 0.09394 0.0
O6 O 0.2878 0.07885 0.07244 0.0
O7 O 0.3038 0.13431 0.0631 0.0
O8 O 0.20854 0.11827 0.13296 0.0
O9 O 0.22942 0.06868 0.11664 0.0
O10 O 0.30855 0.04717 0.13004 0.0
O11 O 0.33531 0.08276 0.15664 0.0
O12 O 0.37205 0.15619 0.13581 0.0
O13 O 0.23234 0.19407 0.11142 0.0
O14 O 0.35979 0.17505 0.09891 0.0
O15 O 0.28151 0.20719 0.09125 0.0
C16 C 0.27728 0.17343 0.17916 0.0
C17 C 0.29577 0.10267 0.05682 0.0
C18 C 0.32729 0.05177 0.149 0.0
C19 C 0.2045 0.08597 0.12697 0.0
C20 C 0.38116 0.1722 0.11657 0.0
C21 C 0.25014 0.21505 0.09815 0.0
O22 O 0.308 0.16042 0.17491 0.0
O23 O 0.60024 0.52325 0.43094 0.0
Zn24 Zn 0.59817 0.51189 0.39621 0.0
O25 O 0.61459 0.55012 0.37626 0.0
Zn26 Zn 0.66096 0.53682 0.36301 0.0
Zn27 Zn 0.61644 0.59114 0.39745 0.0
Zn28 Zn 0.58055 0.55909 0.35108 0.0
O29 O 0.66143 0.54373 0.32631 0.0
O30 O 0.60353 0.55149 0.31905 0.0
O31 O 0.6262 0.46814 0.39193 0.0
O32 O 0.67172 0.48443 0.3691 0.0
O33 O 0.69901 0.56266 0.38221 0.0
O34 O 0.66777 0.5989 0.40615 0.0
O35 O 0.59315 0.63451 0.38275 0.0
O36 O 0.54749 0.50113 0.38921 0.0
O37 O 0.5631 0.60941 0.35279 0.0
O38 O 0.53663 0.52877 0.35467 0.0
C39 C 0.59044 0.55217 0.44067 0.0
C40 C 0.63538 0.54719 0.31159 0.0
C41 C 0.69733 0.58545 0.39928 0.0
C42 C 0.65514 0.46087 0.38122 0.0
C43 C 0.57061 0.63643 0.36564 0.0
C44 C 0.52677 0.50868 0.37187 0.0
O45 O 0.58986 0.58119 0.4288 0.0
O46 O 0.24656 0.80022 0.65217 0.0
Zn47 Zn 0.24831 0.83028 0.6231 0.0
O48 O 0.20283 0.85175 0.6172 0.0
Zn49 Zn 0.2109 0.90157 0.60815 0.0
Zn50 Zn 0.17276 0.84669 0.64537 0.0
Zn51 Zn 0.18315 0.82378 0.59158 0.0
O52 O 0.2012 0.90745 0.57175 0.0
O53 O 0.18414 0.85254 0.56162 0.0
O54 O 0.2845 0.8664 0.63007 0.0
O55 O 0.26184 0.91681 0.61598 0.0
O56 O 0.18238 0.93376 0.63072 0.0
O57 O 0.16372 0.89543 0.6588 0.0
O58 O 0.12576 0.82374 0.63696 0.0
O59 O 0.26468 0.79798 0.59696 0.0
O60 O 0.13335 0.80893 0.59866 0.0
O61 O 0.2113 0.77843 0.58687 0.0
C62 C 0.22522 0.79729 0.66976 0.0
C63 C 0.19123 0.88465 0.55594 0.0
C64 C 0.16763 0.92715 0.65099 0.0
C65 C 0.28692 0.89959 0.6262 0.0
C66 C 0.11426 0.80981 0.61756 0.0
C67 C 0.24487 0.77392 0.58808 0.0
O68 O 0.19609 0.81483 0.67043 0.0
O69 O 0.9075 0.48195 0.91877 0.0
Zn70 Zn 0.89203 0.48864 0.88545 0.0
O71 O 0.87225 0.44557 0.87253 0.0
Zn72 Zn 0.82407 0.45715 0.86052 0.0
Zn73 Zn 0.87185 0.4091 0.89769 0.0
Zn74 Zn 0.90371 0.42967 0.84706 0.0
O75 O 0.82208 0.4494 0.82384 0.0
O76 O 0.87822 0.434 0.81577 0.0
O77 O 0.85752 0.52749 0.88733 0.0
O78 O 0.80979 0.50875 0.86778 0.0
O79 O 0.78757 0.43006 0.8805 0.0
O80 O 0.82115 0.40055 0.907 0.0
O81 O 0.89583 0.36354 0.887 0.0
O82 O 0.93497 0.50502 0.86823 0.0
O83 O 0.9187 0.37896 0.85171 0.0
O84 O 0.94922 0.45853 0.84564 0.0
C85 C 0.90893 0.4563 0.93354 0.0
C86 C 0.84668 0.44124 0.80881 0.0
C87 C 0.79078 0.41027 0.89909 0.0
C88 C 0.82605 0.53254 0.87987 0.0
C89 C 0.91406 0.3561 0.86831 0.0
C90 C 0.95653 0.48904 0.85433 0.0
O91 O 0.89744 0.42547 0.928 0.0
O92 O 0.73262 0.809 0.84416 0.0
Zn93 Zn 0.7368 0.83343 0.87543 0.0
O94 O 0.69315 0.85794 0.88311 0.0
Zn95 Zn 0.70533 0.90692 0.89257 0.0
Zn96 Zn 0.66061 0.85623 0.85582 0.0
Zn97 Zn 0.67222 0.83125 0.90913 0.0
O98 O 0.69625 0.91325 0.92891 0.0
O99 O 0.67652 0.85939 0.93929 0.0
O100 O 0.77713 0.86633 0.87152 0.0
O101 O 0.75757 0.91799 0.88554 0.0
O102 O 0.67984 0.94192 0.87032 0.0
O103 O 0.65317 0.90596 0.84388 0.0
O104 O 0.61332 0.83368 0.86467 0.0
O105 O 0.74971 0.79522 0.8985 0.0
O106 O 0.62124 0.81988 0.90308 0.0
O107 O 0.69628 0.78346 0.91328 0.0
C108 C 0.71017 0.80916 0.82711 0.0
C109 C 0.68565 0.891 0.94488 0.0
C110 C 0.66176 0.93702 0.8511 0.0
C111 C 0.78211 0.89901 0.87616 0.0
C112 C 0.60177 0.82074 0.88438 0.0
C113 C 0.72853 0.77458 0.90956 0.0
O114 O 0.68138 0.82708 0.82847 0.0
O115 O 0.44636 0.49183 0.60025 0.0
Zn116 Zn 0.4158 0.49349 0.6292 0.0
O117 O 0.39101 0.44925 0.63308 0.0
Zn118 Zn 0.34177 0.45999 0.64201 0.0
Zn119 Zn 0.39497 0.42107 0.60392 0.0
Zn120 Zn 0.41656 0.42605 0.6585 0.0
O121 O 0.33498 0.45069 0.6783 0.0
O122 O 0.38809 0.42892 0.68873 0.0
O123 O 0.38239 0.53305 0.6233 0.0
O124 O 0.32986 0.51175 0.63443 0.0
O125 O 0.30824 0.43331 0.6195 0.0
O126 O 0.34554 0.41332 0.59115 0.0
O127 O 0.41776 0.37298 0.61088 0.0
O128 O 0.44846 0.50507 0.65627 0.0
O129 O 0.42755 0.37577 0.65023 0.0
O130 O 0.46429 0.44949 0.66347 0.0
C131 C 0.44616 0.47325 0.58117 0.0
C132 C 0.35664 0.43887 0.69426 0.0
C133 C 0.31407 0.41831 0.5992 0.0
C134 C 0.34904 0.53686 0.62606 0.0
C135 C 0.42863 0.35883 0.63042 0.0
C136 C 0.47126 0.48263 0.66376 0.0
O137 O 0.42568 0.44635 0.57883 0.0
O138 O 0.75569 0.1582 0.33138 0.0
Zn139 Zn 0.75092 0.14784 0.36581 0.0
O140 O 0.79367 0.12745 0.37891 0.0
Zn141 Zn 0.78201 0.07925 0.39064 0.0
Zn142 Zn 0.83002 0.12683 0.35367 0.0
Zn143 Zn 0.80975 0.15817 0.40481 0.0
O144 O 0.79097 0.07617 0.42702 0.0
O145 O 0.80503 0.13227 0.43602 0.0
O146 O 0.70979 0.11649 0.36834 0.0
O147 O 0.72958 0.06708 0.38538 0.0
O148 O 0.80781 0.04261 0.36997 0.0
O149 O 0.8397 0.0761 0.34478 0.0
O150 O 0.87502 0.15198 0.36398 0.0
O151 O 0.73829 0.19363 0.38081 0.0
O152 O 0.86035 0.17282 0.40002 0.0
O153 O 0.78188 0.20437 0.40663 0.0
C154 C 0.78151 0.15988 0.31675 0.0
C155 C 0.79832 0.10039 0.44247 0.0
C156 C 0.82893 0.04576 0.35206 0.0
C157 C 0.70447 0.08518 0.37596 0.0
C158 C 0.8827 0.16941 0.38295 0.0
C159 C 0.7533 0.21374 0.39606 0.0
O160 O 0.81291 0.1509 0.32297 0.0
O161 O 0.05292 0.49823 0.09765 0.0
Zn162 Zn 0.07931 0.49666 0.12833 0.0
O163 O 0.10223 0.54164 0.13436 0.0
Zn164 Zn 0.15217 0.53237 0.14297 0.0
Zn165 Zn 0.09774 0.57251 0.10652 0.0
Zn166 Zn 0.07551 0.56244 0.16037 0.0
O167 O 0.15866 0.54081 0.17945 0.0
O168 O 0.10416 0.55831 0.19037 0.0
O169 O 0.11406 0.45802 0.12406 0.0
O170 O 0.1657 0.48094 0.13554 0.0
O171 O 0.18508 0.55979 0.12008 0.0
O172 O 0.14641 0.5815 0.09328 0.0
O173 O 0.07439 0.61937 0.11507 0.0
O174 O 0.04292 0.48319 0.15271 0.0
O175 O 0.063 0.61321 0.154 0.0
O176 O 0.02829 0.5374 0.16469 0.0
C177 C 0.05094 0.51997 0.08024 0.0
C178 C 0.13616 0.55003 0.19569 0.0
C179 C 0.17825 0.57593 0.10033 0.0
C180 C 0.14739 0.45513 0.12727 0.0
C181 C 0.06237 0.6317 0.13483 0.0
C182 C 0.02086 0.50452 0.16238 0.0
O183 O 0.06755 0.54956 0.08062 0.0
O184 O 0.75441 0.67304 0.66075 0.0
Zn185 Zn 0.75107 0.65095 0.62874 0.0
O186 O 0.79559 0.62941 0.61984 0.0
Zn187 Zn 0.78574 0.58024 0.60931 0.0
Zn188 Zn 0.82852 0.63136 0.64693 0.0
Zn189 Zn 0.81454 0.6585 0.59429 0.0
O190 O 0.79475 0.57603 0.5728 0.0
O191 O 0.8122 0.63117 0.56372 0.0
O192 O 0.7131 0.61571 0.63237 0.0
O193 O 0.73435 0.56585 0.61658 0.0
O194 O 0.81309 0.54552 0.63072 0.0
O195 O 0.83719 0.58159 0.65819 0.0
O196 O 0.87512 0.6546 0.63796 0.0
O197 O 0.73552 0.68985 0.60702 0.0
O198 O 0.86482 0.67259 0.6006 0.0
O199 O 0.78706 0.70448 0.5904 0.0
C200 C 0.77762 0.6744 0.67728 0.0
C201 C 0.80453 0.59948 0.55739 0.0
C202 C 0.83033 0.55047 0.65028 0.0
C203 C 0.70952 0.5831 0.62705 0.0
C204 C 0.88526 0.67008 0.61876 0.0
C205 C 0.75462 0.71148 0.5951 0.0
O206 O 0.80794 0.65952 0.67486 0.0
O207 O 0.06121 -0.00281 0.90609 0.0
Zn208 Zn 0.08516 -0.00402 0.87453 0.0
O209 O 0.10407 0.04232 0.86663 0.0
Zn210 Zn 0.15372 0.0364 0.85644 0.0
Zn211 Zn 0.09958 0.07406 0.89405 0.0
Zn212 Zn 0.07458 0.06053 0.84105 0.0
O213 O 0.15802 0.04591 0.82012 0.0
O214 O 0.10148 0.05668 0.81016 0.0
O215 O 0.12267 0.95918 0.87709 0.0
O216 O 0.17024 0.98561 0.86164 0.0
O217 O 0.18662 0.06384 0.87918 0.0
O218 O 0.14837 0.08406 0.90679 0.0
O219 O 0.07518 0.12014 0.885 0.0
O220 O 0.04696 0.97993 0.85219 0.0
O221 O 0.05992 0.11109 0.84692 0.0
O222 O 0.0289 0.03237 0.83866 0.0
C223 C 0.05697 0.02034 0.92246 0.0
C224 C 0.13392 0.05162 0.80424 0.0
C225 C 0.18009 0.07928 0.89923 0.0
C226 C 0.15525 0.95857 0.87101 0.0
C227 C 0.06082 0.13086 0.86552 0.0
C228 C 0.02335 -0.00063 0.84234 0.0
O229 O 0.07037 0.0514 0.92062 0.0
O230 O 0.73862 0.30832 0.15498 0.0
Zn231 Zn 0.74098 0.33708 0.12537 0.0
O232 O 0.69574 0.35918 0.11917 0.0
Zn233 Zn 0.7046 0.40909 0.11045 0.0
Zn234 Zn 0.66458 0.35384 0.14679 0.0
Zn235 Zn 0.67604 0.3318 0.09328 0.0
O236 O 0.69562 0.41534 0.07392 0.0
O237 O 0.67906 0.36042 0.0634 0.0
O238 O 0.77831 0.37253 0.13157 0.0
O239 O 0.75587 0.42352 0.11833 0.0
O240 O 0.67628 0.44131 0.1333 0.0
O241 O 0.65554 0.40234 0.16028 0.0
O242 O 0.61761 0.33101 0.1378 0.0
O243 O 0.75646 0.30294 0.10004 0.0
O244 O 0.62556 0.3183 0.09922 0.0
O245 O 0.70261 0.28541 0.0894 0.0
C246 C 0.71667 0.30532 0.1722 0.0
C247 C 0.68636 0.39254 0.0579 0.0
C248 C 0.66047 0.43425 0.15314 0.0
C249 C 0.78112 0.40575 0.12792 0.0
C250 C 0.60619 0.31833 0.11799 0.0
C251 C 0.73587 0.27947 0.09126 0.0
O252 O 0.68721 0.32231 0.17224 0.0
O253 O 0.40369 0.97566 0.42059 0.0
Zn254 Zn 0.39187 0.98471 0.38685 0.0
O255 O 0.37288 0.94305 0.37149 0.0
Zn256 Zn 0.32499 0.95543 0.35933 0.0
Zn257 Zn 0.37214 0.90412 0.39502 0.0
Zn258 Zn 0.40488 0.92995 0.34559 0.0
O259 O 0.32309 0.94862 0.32255 0.0
O260 O 0.37958 0.93498 0.31424 0.0
O261 O 0.35829 0.0244 0.38783 0.0
O262 O 0.31132 0.00711 0.36688 0.0
O263 O 0.28824 0.92794 0.37881 0.0
O264 O 0.32124 0.89485 0.40366 0.0
O265 O 0.39665 0.85969 0.38256 0.0
O266 O 0.43686 0.00105 0.37223 0.0
O267 O 0.42184 0.87988 0.34909 0.0
O268 O 0.44963 0.95963 0.34519 0.0
C269 C 0.40604 0.94844 0.43395 0.0
C270 C 0.34786 0.94164 0.30739 0.0
C271 C 0.29106 0.90615 0.39637 0.0
C272 C 0.32747 0.03037 0.37951 0.0
C273 C 0.41665 0.8551 0.36427 0.0
C274 C 0.45779 0.98774 0.35671 0.0
O275 O 0.39707 0.91769 0.42639 0.0
O276 O 0.23954 0.31745 0.34401 0.0
Zn277 Zn 0.24047 0.33746 0.37685 0.0
O278 O 0.19512 0.35884 0.38485 0.0
Zn279 Zn 0.20333 0.40791 0.39561 0.0
Zn280 Zn 0.16333 0.35661 0.35722 0.0
Zn281 Zn 0.17489 0.33046 0.4103 0.0
O282 O 0.19259 0.41261 0.43168 0.0
O283 O 0.17966 0.35654 0.44142 0.0
O284 O 0.28005 0.372 0.37744 0.0
O285 O 0.25524 0.4211 0.39203 0.0
O286 O 0.17853 0.44273 0.37282 0.0
O287 O 0.15464 0.40624 0.34554 0.0
O288 O 0.11656 0.33296 0.36562 0.0
O289 O 0.25246 0.29576 0.39732 0.0
O290 O 0.12396 0.31888 0.40407 0.0
O291 O 0.19966 0.28293 0.41284 0.0
C292 C 0.21648 0.31511 0.32741 0.0
C293 C 0.1858 0.38871 0.44746 0.0
C294 C 0.16172 0.43748 0.35314 0.0
C295 C 0.2822 0.4043 0.38398 0.0
C296 C 0.10483 0.31971 0.38519 0.0
C297 C 0.23173 0.27438 0.40815 0.0
O298 O 0.18553 0.32869 0.32977 0.0
O299 O 0.9129 0.98396 0.08404 0.0
Zn300 Zn 0.89799 0.98983 0.11765 0.0
O301 O 0.87587 0.94722 0.12969 0.0
Zn302 Zn 0.82773 0.96021 0.14115 0.0
Zn303 Zn 0.87485 0.91133 0.10411 0.0
Zn304 Zn 0.90564 0.92933 0.15549 0.0
O305 O 0.82415 0.95139 0.17766 0.0
O306 O 0.87915 0.93306 0.18639 0.0
O307 O 0.86566 0.03066 0.11697 0.0
O308 O 0.81591 0.01258 0.13443 0.0
O309 O 0.79088 0.93443 0.12066 0.0
O310 O 0.82406 0.90325 0.0948 0.0
O311 O 0.89837 0.86517 0.11406 0.0
O312 O 0.94175 0.00303 0.13524 0.0
O313 O 0.91949 0.87868 0.15016 0.0
O314 O 0.95213 0.95612 0.15838 0.0
C315 C 0.91316 0.95874 0.0689 0.0
C316 C 0.8477 0.9414 0.19294 0.0
C317 C 0.79383 0.91391 0.10242 0.0
C318 C 0.83401 0.03658 0.12378 0.0
C319 C 0.91556 0.85669 0.13297 0.0
C320 C 0.96155 0.98605 0.14977 0.0
O321 O 0.90057 0.92819 0.07403 0.0
O322 O 0.25927 0.64581 0.8262 0.0
Zn323 Zn 0.25326 0.64491 0.86133 0.0
O324 O 0.2937 0.62496 0.87754 0.0
Zn325 Zn 0.27997 0.57796 0.88993 0.0
Zn326 Zn 0.33198 0.62263 0.85386 0.0
Zn327 Zn 0.30745 0.65693 0.90336 0.0
O328 O 0.28691 0.57623 0.92671 0.0
O329 O 0.29965 0.6329 0.93502 0.0
O330 O 0.20906 0.61827 0.8668 0.0
O331 O 0.22733 0.5682 0.88387 0.0
O332 O 0.30544 0.53976 0.87016 0.0
O333 O 0.34136 0.57138 0.84635 0.0
O334 O 0.37615 0.64792 0.8653 0.0
O335 O 0.24619 0.69525 0.87028 0.0
O336 O 0.35879 0.6709 0.9002 0.0
O337 O 0.28069 0.70386 0.90212 0.0
C338 C 0.28677 0.64941 0.81322 0.0
C339 C 0.29277 0.60124 0.9419 0.0
C340 C 0.32849 0.54168 0.85326 0.0
C341 C 0.20267 0.5873 0.87479 0.0
C342 C 0.38244 0.66641 0.88404 0.0
C343 C 0.25826 0.71526 0.88676 0.0
O344 O 0.31787 0.64529 0.82196 0.0
O345 O 0.55502 0.99153 0.59597 0.0
Zn346 Zn 0.58189 0.99128 0.62651 0.0
O347 O 0.60454 0.0366 0.63168 0.0
Zn348 Zn 0.65437 0.02773 0.64061 0.0
Zn349 Zn 0.59989 0.06622 0.60318 0.0
Zn350 Zn 0.57807 0.05849 0.65735 0.0
O351 O 0.66069 0.03663 0.67697 0.0
O352 O 0.60668 0.05594 0.68746 0.0
O353 O 0.61691 0.95278 0.62236 0.0
O354 O 0.66852 0.97646 0.63317 0.0
O355 O 0.68706 0.05564 0.61813 0.0
O356 O 0.64885 0.07542 0.59033 0.0
O357 O 0.5762 0.11339 0.61075 0.0
O358 O 0.54614 0.97857 0.65152 0.0
O359 O 0.56489 0.10868 0.6498 0.0
O360 O 0.53142 0.03323 0.66257 0.0
C361 C 0.55306 0.01227 0.57801 0.0
C362 C 0.63843 0.04709 0.693 0.0
C363 C 0.68054 0.07098 0.59806 0.0
C364 C 0.65034 0.95034 0.62523 0.0
C365 C 0.56405 0.12637 0.63029 0.0
C366 C 0.52423 0.0002 0.66107 0.0
O367 O 0.56978 0.04183 0.57764 0.0
H368 H 0.21255 0.18439 0.19949 0.0
H369 H 0.32477 0.20491 0.21001 0.0
H370 H 0.19855 0.21868 0.23526 0.0
H371 H 0.31063 0.24057 0.24558 0.0
H372 H 0.27366 0.27144 0.32109 0.0
H373 H 0.289 0.23649 0.28586 0.0
H374 H 0.19717 0.27895 0.24858 0.0
H375 H 0.181 0.31309 0.28433 0.0
C376 C 0.23427 0.19638 0.20946 0.0
C377 C 0.26978 0.19213 0.20193 0.0
C378 C 0.22618 0.21631 0.22986 0.0
C379 C 0.25338 0.23283 0.2431 0.0
C380 C 0.28905 0.22796 0.23587 0.0
C381 C 0.29719 0.20759 0.21552 0.0
C382 C 0.25674 0.27346 0.30536 0.0
C383 C 0.22601 0.295 0.30551 0.0
C384 C 0.26571 0.25353 0.28509 0.0
C385 C 0.24434 0.25486 0.2644 0.0
C386 C 0.21387 0.27684 0.2644 0.0
C387 C 0.20468 0.29656 0.28481 0.0
H388 H 0.43395 0.46801 0.53278 0.0
H389 H 0.51056 0.50532 0.58502 0.0
H390 H 0.47062 0.49312 0.50034 0.0
H391 H 0.54738 0.52953 0.55262 0.0
H392 H 0.61503 0.51557 0.47917 0.0
H393 H 0.58058 0.49799 0.51464 0.0
H394 H 0.49213 0.56183 0.48993 0.0
H395 H 0.52707 0.58034 0.45474 0.0
C396 C 0.45879 0.48111 0.53726 0.0
C397 C 0.4695 0.48472 0.56132 0.0
C398 C 0.47947 0.49579 0.51881 0.0
C399 C 0.51146 0.51353 0.52417 0.0
C400 C 0.52268 0.51615 0.54814 0.0
C401 C 0.50169 0.50222 0.56658 0.0
C402 C 0.5887 0.52681 0.48182 0.0
C403 C 0.57373 0.54954 0.46448 0.0
C404 C 0.56899 0.5166 0.50195 0.0
C405 C 0.53369 0.52825 0.50469 0.0
C406 C 0.51927 0.55237 0.48799 0.0
C407 C 0.53936 0.56331 0.46813 0.0
H408 H 0.28579 0.75743 0.67371 0.0
H409 H 0.18697 0.78157 0.71044 0.0
H410 H 0.30239 0.71689 0.70594 0.0
H411 H 0.20402 0.74123 0.74288 0.0
H412 H 0.22717 0.64374 0.78595 0.0
H413 H 0.21307 0.67688 0.7496 0.0
H414 H 0.31959 0.72042 0.74888 0.0
H415 H 0.33394 0.68676 0.7853 0.0
C416 C 0.26758 0.75417 0.68868 0.0
C417 C 0.23499 0.77281 0.68952 0.0
C418 C 0.27724 0.73099 0.70716 0.0
C419 C 0.25449 0.72581 0.72684 0.0
C420 C 0.22186 0.74432 0.7277 0.0
C421 C 0.21219 0.76761 0.70923 0.0
C422 C 0.24783 0.65987 0.7778 0.0
C423 C 0.28154 0.66307 0.78862 0.0
C424 C 0.23963 0.67904 0.75709 0.0
C425 C 0.26494 0.70183 0.74676 0.0
C426 C 0.29953 0.70304 0.75651 0.0
C427 C 0.30781 0.68372 0.77729 0.0
H428 H 0.91299 0.51991 0.9561 0.0
H429 H 0.94186 0.40901 0.96401 0.0
H430 H 0.94594 0.53448 0.9923 0.0
H431 H 0.97587 0.42385 1.00029 0.0
H432 H 0.00736 0.46223 0.07591 0.0
H433 H 0.97069 0.44556 0.04168 0.0
H434 H 0.00848 0.53778 0.00278 0.0
H435 H 0.04463 0.55504 0.03726 0.0
C436 C 0.92636 0.49858 0.96567 0.0
C437 C 0.92525 0.46336 0.95713 0.0
C438 C 0.94543 0.50701 0.98631 0.0
C439 C 0.96408 0.48047 0.99883 0.0
C440 C 0.96168 0.44487 0.99097 0.0
C441 C 0.94225 0.43634 0.97027 0.0
C442 C 0.00788 0.47903 0.06007 0.0
C443 C 0.02886 0.51009 0.05932 0.0
C444 C 0.98699 0.46929 0.04042 0.0
C445 C 0.98663 0.49036 0.0196 0.0
C446 C 0.00777 0.5213 0.01877 0.0
C447 C 0.0286 0.53113 0.03846 0.0
H448 H 0.68082 0.81556 0.78221 0.0
H449 H 0.75917 0.75617 0.82281 0.0
H450 H 0.69815 0.78339 0.74587 0.0
H451 H 0.77559 0.72333 0.78685 0.0
H452 H 0.82227 0.69787 0.71301 0.0
H453 H 0.80563 0.73105 0.74916 0.0
H454 H 0.69478 0.72552 0.72827 0.0
H455 H 0.7114 0.69368 0.69204 0.0
C456 C 0.7014 0.79537 0.78342 0.0
C457 C 0.71869 0.78848 0.8053 0.0
C458 C 0.71131 0.77688 0.76265 0.0
C459 C 0.7384 0.7509 0.76347 0.0
C460 C 0.75519 0.74367 0.78549 0.0
C461 C 0.74555 0.76234 0.80614 0.0
C462 C 0.7944 0.70377 0.71622 0.0
C463 C 0.76822 0.69336 0.69964 0.0
C464 C 0.78482 0.72264 0.73693 0.0
C465 C 0.74885 0.73107 0.74151 0.0
C466 C 0.72275 0.72015 0.72504 0.0
C467 C 0.73232 0.70167 0.70432 0.0
H468 H 0.77452 0.26156 0.17539 0.0
H469 H 0.6806 0.29514 0.21453 0.0
H470 H 0.79111 0.22264 0.20847 0.0
H471 H 0.69775 0.25658 0.24789 0.0
H472 H 0.7182 0.16064 0.29346 0.0
H473 H 0.70284 0.1934 0.25723 0.0
H474 H 0.81242 0.22712 0.25 0.0
H475 H 0.82803 0.1935 0.28623 0.0
C476 C 0.75742 0.26076 0.19109 0.0
C477 C 0.72618 0.28153 0.19235 0.0
C478 C 0.76709 0.23852 0.21007 0.0
C479 C 0.74577 0.23654 0.23073 0.0
C480 C 0.71446 0.25717 0.232 0.0
C481 C 0.70471 0.27941 0.21297 0.0
C482 C 0.73915 0.17468 0.28397 0.0
C483 C 0.77425 0.17492 0.29278 0.0
C484 C 0.73026 0.19363 0.26333 0.0
C485 C 0.75624 0.21341 0.25109 0.0
C486 C 0.79183 0.21204 0.25908 0.0
C487 C 0.80081 0.19281 0.27977 0.0
H488 H 0.91777 0.0223 0.0463 0.0
H489 H 0.94618 0.91126 0.03875 0.0
H490 H 0.95122 0.03653 0.01018 0.0
H491 H 0.98092 0.92569 0.00277 0.0
H492 H 0.01489 0.96179 0.92766 0.0
H493 H 0.97761 0.94597 0.96172 0.0
H494 H 0.01285 0.04044 0.99928 0.0
H495 H 0.04941 0.05696 0.96479 0.0
C496 C 0.93116 0.00089 0.03681 0.0
C497 C 0.92972 0.96571 0.04538 0.0
C498 C 0.95057 0.0091 0.01624 0.0
C499 C 0.96931 0.98239 0.0039 0.0
C500 C 0.96664 0.94686 0.01187 0.0
C501 C 0.94679 0.93855 0.03241 0.0
C502 C 0.01478 0.97922 0.9432 0.0
C503 C 0.0351 0.01071 0.94354 0.0
C504 C -0.00651 0.97 0.96276 0.0
C505 C 0.99219 0.99194 0.98317 0.0
C506 C 0.01278 0.02328 0.98362 0.0
C507 C 0.0339 0.03267 0.96394 0.0
H508 H 0.44525 0.90112 0.46085 0.0
H509 H 0.40265 0.00813 0.46092 0.0
H510 H 0.48045 0.9154 0.49676 0.0
H511 H 0.43706 0.02211 0.49668 0.0
H512 H 0.53917 0.04941 0.53658 0.0
H513 H 0.50102 0.03123 0.50328 0.0
H514 H 0.47748 0.93247 0.53985 0.0
H515 H 0.51596 0.9502 0.57295 0.0
C516 C 0.44275 0.9273 0.46889 0.0
C517 C 0.42167 0.95365 0.45799 0.0
C518 C 0.46294 0.93555 0.48934 0.0
C519 C 0.46209 0.97016 0.49914 0.0
C520 C 0.43905 -0.00443 0.48911 0.0
C521 C 0.41915 0.98744 0.46876 0.0
C522 C 0.52594 0.02381 0.53751 0.0
C523 C 0.53055 0.00139 0.55746 0.0
C524 C 0.50392 0.01347 0.51851 0.0
C525 C 0.48606 0.98051 0.51909 0.0
C526 C 0.49106 0.95788 0.53885 0.0
C527 C 0.513 0.96822 0.55786 0.0
H528 H 0.23584 0.03569 0.91012 0.0
H529 H 0.18771 0.13651 0.92862 0.0
H530 H 0.27303 0.03885 0.94641 0.0
H531 H 0.22546 0.14021 0.96432 0.0
H532 H 0.26932 0.0425 0.03452 0.0
H533 H 0.25085 0.03726 0.99238 0.0
H534 H 0.29228 0.14224 0.97795 0.0
H535 H 0.31128 0.14747 0.0196 0.0
C536 C 0.23434 0.05921 0.92138 0.0
C537 C 0.20918 0.08606 0.9165 0.0
C538 C 0.25526 0.06077 0.94226 0.0
C539 C 0.25199 0.08967 0.95818 0.0
C540 C 0.22873 0.11774 0.95227 0.0
C541 C 0.20723 0.11574 0.93181 0.0
C542 C 0.27543 0.06403 0.02223 0.0
C543 C 0.29129 0.09561 0.03064 0.0
C544 C 0.26491 0.06099 0.99808 0.0
C545 C 0.26983 0.08955 0.98202 0.0
C546 C 0.2879 0.11998 0.99001 0.0
C547 C 0.29875 0.12288 0.01394 0.0
H548 H 0.58661 0.55727 0.27582 0.0
H549 H 0.69638 0.52668 0.28756 0.0
H550 H 0.59146 0.53964 0.23386 0.0
H551 H 0.70108 0.50914 0.24525 0.0
H552 H 0.60309 0.43931 0.18257 0.0
H553 H 0.5978 0.47636 0.21841 0.0
H554 H 0.69664 0.5288 0.20046 0.0
H555 H 0.70155 0.49191 0.16411 0.0
C556 C 0.61203 0.5474 0.26941 0.0
C557 C 0.64096 0.5428 0.28527 0.0
C558 C 0.61473 0.53733 0.2453 0.0
C559 C 0.64648 0.52268 0.23634 0.0
C560 C 0.6763 0.52056 0.25164 0.0
C561 C 0.67355 0.53046 0.27591 0.0
C562 C 0.62298 0.45967 0.18581 0.0
C563 C 0.65256 0.46294 0.17052 0.0
C564 C 0.62002 0.48086 0.20635 0.0
C565 C 0.64697 0.5053 0.21233 0.0
C566 C 0.6756 0.51004 0.19632 0.0
C567 C 0.67816 0.48928 0.17541 0.0
H568 H 0.22066 0.94303 0.53336 0.0
H569 H 0.16297 0.84557 0.51933 0.0
H570 H 0.23257 0.94907 0.49023 0.0
H571 H 0.17532 0.85154 0.47658 0.0
H572 H 0.24143 0.95527 0.40943 0.0
H573 H 0.20599 0.95387 0.44642 0.0
H574 H 0.2383 0.84487 0.45834 0.0
H575 H 0.27438 0.84658 0.42184 0.0
C576 C 0.20965 0.92351 0.5211 0.0
C577 C 0.19151 0.89348 0.5299 0.0
C578 C 0.21639 0.927 0.49638 0.0
C579 C 0.20521 0.90047 0.48014 0.0
C580 C 0.18455 0.87212 0.48873 0.0
C581 C 0.17758 0.86877 0.51328 0.0
C582 C 0.23968 0.93053 0.4194 0.0
C583 C 0.26057 0.90094 0.41276 0.0
C584 C 0.21978 0.92993 0.44071 0.0
C585 C 0.21971 0.89942 0.45533 0.0
C586 C 0.23771 0.86871 0.44736 0.0
C587 C 0.25825 0.86958 0.42641 0.0
H588 H 0.78425 0.49693 0.66103 0.0
H589 H 0.88803 0.53888 0.67864 0.0
H590 H 0.78566 0.46006 0.69746 0.0
H591 H 0.88988 0.50152 0.71454 0.0
H592 H 0.89184 0.42116 0.77279 0.0
H593 H 0.88822 0.43698 0.73045 0.0
H594 H 0.78444 0.48343 0.74223 0.0
H595 H 0.78801 0.46799 0.78497 0.0
C596 C 0.80803 0.49701 0.67209 0.0
C597 C 0.83617 0.52055 0.667 0.0
C598 C 0.80861 0.47627 0.69305 0.0
C599 C 0.83774 0.47813 0.70887 0.0
C600 C 0.86718 0.49934 0.7026 0.0
C601 C 0.86622 0.52064 0.68201 0.0
C602 C 0.86784 0.43414 0.76639 0.0
C603 C 0.84046 0.44395 0.78247 0.0
C604 C 0.86585 0.44312 0.74207 0.0
C605 C 0.83628 0.46172 0.73313 0.0
C606 C 0.80751 0.46889 0.74866 0.0
C607 C 0.8096 0.46016 0.77315 0.0
H608 H 0.77719 0.8545 0.0769 0.0
H609 H 0.74362 0.96282 0.08998 0.0
H610 H 0.73947 0.85228 0.04118 0.0
H611 H 0.70648 0.96095 0.05373 0.0
H612 H 0.66023 0.85176 0.98242 0.0
H613 H 0.67517 0.85814 0.02476 0.0
H614 H 0.73079 0.95599 0.0092 0.0
H615 H 0.71628 0.94956 0.96648 0.0
C616 C 0.76065 0.87733 0.07262 0.0
C617 C 0.76314 0.90871 0.08624 0.0
C618 C 0.73915 0.87616 0.05214 0.0
C619 C 0.72035 0.90661 0.04459 0.0
C620 C 0.72083 0.9372 0.05914 0.0
C621 C 0.74173 0.93808 0.08001 0.0
C622 C 0.67504 0.87511 0.98797 0.0
C623 C 0.68772 0.8998 0.9709 0.0
C624 C 0.6835 0.8787 0.01229 0.0
C625 C 0.70442 0.90729 0.02019 0.0
C626 C 0.71443 0.93374 0.00357 0.0
C627 C 0.70622 0.93 0.97909 0.0
H628 H 0.38939 0.52333 0.8298 0.0
H629 H 0.27925 0.4931 0.83868 0.0
H630 H 0.393 0.48719 0.79343 0.0
H631 H 0.28263 0.45738 0.80186 0.0
H632 H 0.3952 0.41255 0.73194 0.0
H633 H 0.38744 0.42575 0.77446 0.0
H634 H 0.28994 0.48209 0.75855 0.0
H635 H 0.29768 0.46918 0.71572 0.0
C636 C 0.3664 0.50776 0.8245 0.0
C637 C 0.33413 0.51093 0.83711 0.0
C638 C 0.36837 0.48715 0.80361 0.0
C639 C 0.33792 0.46983 0.79464 0.0
C640 C 0.3064 0.47067 0.80829 0.0
C641 C 0.30464 0.49072 0.82953 0.0
C642 C 0.37165 0.42717 0.73744 0.0
C643 C 0.34737 0.44039 0.72026 0.0
C644 C 0.36728 0.43467 0.76187 0.0
C645 C 0.33834 0.45523 0.7698 0.0
C646 C 0.31244 0.46597 0.75296 0.0
C647 C 0.31694 0.45868 0.72839 0.0
H648 H 0.77586 0.0388 0.46477 0.0
H649 H 0.81126 0.1462 0.47961 0.0
H650 H 0.75742 0.03258 0.5068 0.0
H651 H 0.79239 0.13991 0.52126 0.0
H652 H 0.73863 0.02992 0.5881 0.0
H653 H 0.77745 0.03528 0.5527 0.0
H654 H 0.72593 0.13445 0.53415 0.0
H655 H 0.68671 0.12859 0.56896 0.0
C656 C 0.78059 0.0607 0.47704 0.0
C657 C 0.79445 0.0932 0.46863 0.0
C658 C 0.77014 0.05708 0.50114 0.0
C659 C 0.77315 0.08595 0.51715 0.0
C660 C 0.7895 0.11739 0.50921 0.0
C661 C 0.80026 0.1209 0.4853 0.0
C662 C 0.73655 0.05345 0.57689 0.0
C663 C 0.70986 0.07899 0.58126 0.0
C664 C 0.75846 0.05629 0.55655 0.0
C665 C 0.75458 0.08519 0.5407 0.0
C666 C 0.72972 0.11205 0.54618 0.0
C667 C 0.7073 0.10876 0.5661 0.0
H668 H 0.20863 0.48961 0.34091 0.0
H669 H 0.10321 0.44979 0.32572 0.0
H670 H 0.20601 0.52677 0.30458 0.0
H671 H 0.10011 0.48757 0.29001 0.0
H672 H 0.19596 0.52034 0.21656 0.0
H673 H 0.20284 0.50339 0.25889 0.0
H674 H 0.1027 0.55415 0.27575 0.0
H675 H 0.09591 0.57164 0.23388 0.0
C676 C 0.18432 0.49003 0.3304 0.0
C677 C 0.15594 0.46713 0.33617 0.0
C678 C 0.18303 0.51092 0.30951 0.0
C679 C 0.15294 0.5099 0.29449 0.0
C680 C 0.12353 0.48909 0.30136 0.0
C681 C 0.12519 0.46758 0.32183 0.0
C682 C 0.17597 0.52886 0.22941 0.0
C683 C 0.14509 0.54678 0.22167 0.0
C684 C 0.17995 0.51921 0.25365 0.0
C685 C 0.15304 0.52714 0.27047 0.0
C686 C 0.12364 0.54744 0.2631 0.0
C687 C 0.11983 0.55738 0.23904 0.0
H688 H 0.7744 0.54205 0.53418 0.0
H689 H 0.83062 0.64066 0.52106 0.0
H690 H 0.76024 0.53811 0.49127 0.0
H691 H 0.81605 0.63675 0.47851 0.0
H692 H 0.74723 0.53558 0.41076 0.0
H693 H 0.78428 0.53547 0.44698 0.0
H694 H 0.75252 0.6439 0.46169 0.0
H695 H 0.71493 0.64376 0.4259 0.0
C696 C 0.78462 0.56229 0.52212 0.0
C697 C 0.80301 0.592 0.53118 0.0
C698 C 0.77658 0.55999 0.49754 0.0
C699 C 0.7867 0.58741 0.48167 0.0
C700 C 0.8076 0.61549 0.4904 0.0
C701 C 0.81586 0.61765 0.51482 0.0
C702 C 0.74932 0.55989 0.42118 0.0
C703 C 0.72816 0.58974 0.41553 0.0
C704 C 0.7702 0.55962 0.44205 0.0
C705 C 0.77096 0.5895 0.45723 0.0
C706 C 0.75258 0.62051 0.45026 0.0
C707 C 0.73113 0.62052 0.42973 0.0
H708 H 0.089 0.06237 0.76629 0.0
H709 H 0.19667 0.02952 0.78311 0.0
H710 H 0.09655 0.04108 0.72527 0.0
H711 H 0.20417 0.00872 0.74165 0.0
H712 H 0.1106 0.93267 0.68074 0.0
H713 H 0.10389 0.97325 0.71479 0.0
H714 H 0.20144 0.02639 0.69481 0.0
H715 H 0.2076 0.98623 0.66013 0.0
C716 C 0.11464 0.05148 0.76115 0.0
C717 C 0.14203 0.04705 0.77823 0.0
C718 C 0.11887 0.0393 0.73759 0.0
C719 C 0.15074 0.02292 0.73041 0.0
C720 C 0.17933 0.02141 0.74674 0.0
C721 C 0.17499 0.03326 0.7705 0.0
C722 C 0.12992 0.9538 0.68315 0.0
C723 C 0.15941 0.95654 0.66774 0.0
C724 C 0.12614 0.97699 0.70262 0.0
C725 C 0.15224 0.00286 0.70744 0.0
C726 C 0.18099 0.00667 0.69145 0.0
C727 C 0.18429 0.98396 0.67153 0.0
H728 H 0.65833 0.35406 0.02098 0.0
H729 H 0.71791 0.45016 0.03566 0.0
H730 H 0.67248 0.3593 0.97844 0.0
H731 H 0.73153 0.45554 0.99268 0.0
H732 H 0.77401 0.35182 0.92561 0.0
H733 H 0.73724 0.35139 0.96185 0.0
H734 H 0.70533 0.45999 0.94799 0.0
H735 H 0.74136 0.46003 0.9112 0.0
C736 C 0.67373 0.37684 0.0151 0.0
C737 C 0.68765 0.40133 0.03187 0.0
C738 C 0.68172 0.37978 0.99067 0.0
C739 C 0.70338 0.40753 0.98235 0.0
C740 C 0.71459 0.43394 0.99866 0.0
C741 C 0.70685 0.43083 0.02327 0.0
C742 C 0.75782 0.37498 0.9297 0.0
C743 C 0.76026 0.40579 0.91552 0.0
C744 C 0.73692 0.37485 0.9505 0.0
C745 C 0.71876 0.40582 0.9578 0.0
C746 C 0.71919 0.43586 0.94276 0.0
C747 C 0.73941 0.43567 0.92157 0.0
H748 H 0.28163 -0.00189 0.16051 0.0
H749 H 0.38604 0.04001 0.17637 0.0
H750 H 0.28437 0.96125 0.19689 0.0
H751 H 0.38914 0.00281 0.21227 0.0
H752 H 0.39325 0.92348 0.27103 0.0
H753 H 0.38869 0.93951 0.22876 0.0
H754 H 0.28397 0.98335 0.24134 0.0
H755 H 0.28844 0.96754 0.28397 0.0
C756 C 0.3058 -0.00179 0.17116 0.0
C757 C 0.33374 0.02176 0.1656 0.0
C758 C 0.30714 0.97749 0.19212 0.0
C759 C 0.33681 0.97939 0.2075 0.0
C760 C 0.36601 0.00058 0.2007 0.0
C761 C 0.36434 0.02181 0.1801 0.0
C762 C 0.36888 0.93595 0.26482 0.0
C763 C 0.34143 0.94483 0.28108 0.0
C764 C 0.36635 0.94508 0.24054 0.0
C765 C 0.3362 0.96299 0.23181 0.0
C766 C 0.30748 0.96935 0.24756 0.0
C767 C 0.3101 0.96041 0.27201 0.0
H768 H 0.25539 0.45949 0.59111 0.0
H769 H 0.30678 0.36179 0.56919 0.0
H770 H 0.21399 0.45446 0.55704 0.0
H771 H 0.26497 0.35621 0.53576 0.0
H772 H 0.20907 0.45081 0.4687 0.0
H773 H 0.23066 0.45743 0.51 0.0
H774 H 0.19655 0.35039 0.52618 0.0
H775 H 0.17444 0.34372 0.48529 0.0
C776 C 0.25693 0.43629 0.57955 0.0
C777 C 0.28412 0.4109 0.58278 0.0
C778 C 0.23351 0.43362 0.56 0.0
C779 C 0.23635 0.40499 0.54382 0.0
C780 C 0.26197 0.37838 0.54809 0.0
C781 C 0.28589 0.38153 0.5672 0.0
C782 C 0.20509 0.4291 0.48125 0.0
C783 C 0.19061 0.39651 0.47348 0.0
C784 C 0.2174 0.43294 0.50492 0.0
C785 C 0.21565 0.40421 0.52112 0.0
C786 C 0.1985 0.37279 0.51396 0.0
C787 C 0.18586 0.36907 0.49048 0.0
H788 H 0.78943 0.9699 0.21629 0.0
H789 H 0.89014 0.91713 0.22925 0.0
H790 H 0.78475 0.98333 0.25926 0.0
H791 H 0.88544 0.93091 0.27187 0.0
H792 H 0.78089 -0.00535 0.3399 0.0
H793 H 0.78248 0.95845 0.30324 0.0
H794 H 0.88998 -0.00611 0.28953 0.0
H795 H 0.88809 0.03057 0.32573 0.0
C796 C 0.81006 0.96034 0.2283 0.0
C797 C 0.84046 0.94306 0.21919 0.0
C798 C 0.80732 0.96792 0.25294 0.0
C799 C 0.83498 0.95847 0.26882 0.0
C800 C 0.86394 0.93881 0.25999 0.0
C801 C 0.86656 0.93101 0.23551 0.0
C802 C 0.80538 -0.00652 0.32959 0.0
C803 C 0.83444 0.01536 0.33564 0.0
C804 C 0.80608 0.97313 0.30847 0.0
C805 C 0.83618 0.97367 0.29345 0.0
C806 C 0.86647 0.9928 0.30082 0.0
C807 C 0.86548 0.01372 0.32159 0.0
H808 H 0.23463 0.53332 0.08868 0.0
H809 H 0.18461 0.63365 0.07131 0.0
H810 H 0.27134 0.53778 0.05221 0.0
H811 H 0.2216 0.63853 0.03537 0.0
H812 H 0.26935 0.5405 0.96496 0.0
H813 H 0.25106 0.53527 0.00712 0.0
H814 H 0.28575 0.64308 0.02025 0.0
H815 H 0.30427 0.64841 0.97849 0.0
C816 C 0.23255 0.55699 0.0776 0.0
C817 C 0.207 0.58331 0.08286 0.0
C818 C 0.2532 0.5593 0.05661 0.0
C819 C 0.24919 0.58839 0.04089 0.0
C820 C 0.22551 0.61593 0.0472 0.0
C821 C 0.20439 0.61322 0.06781 0.0
C822 C 0.2739 0.56277 0.97696 0.0
C823 C 0.28778 0.59504 0.96814 0.0
C824 C 0.26354 0.55973 1.00114 0.0
C825 C 0.26666 0.58894 0.01689 0.0
C826 C 0.28268 0.62029 0.00846 0.0
C827 C 0.29329 0.62325 0.98446 0.0
H828 H 0.5983 0.07032 0.73083 0.0
H829 H 0.69774 0.01725 0.71434 0.0
H830 H 0.60462 0.05374 0.7729 0.0
H831 H 0.70414 0.00121 0.75684 0.0
H832 H 0.60333 0.95026 0.82374 0.0
H833 H 0.60087 0.98774 0.78787 0.0
H834 H 0.70751 0.0251 0.80218 0.0
H835 H 0.70954 0.98825 0.83864 0.0
C836 C 0.62201 0.05588 0.73621 0.0
C837 C 0.6472 0.0445 0.71902 0.0
C838 C 0.62555 0.04645 0.76038 0.0
C839 C 0.65461 0.0259 0.76804 0.0
C840 C 0.68151 0.01723 0.75138 0.0
C841 C 0.6778 0.02636 0.72704 0.0
C842 C 0.62564 0.9676 0.81976 0.0
C843 C 0.65644 0.96665 0.83404 0.0
C844 C 0.62433 0.98895 0.7992 0.0
C845 C 0.65413 0.00912 0.7922 0.0
C846 C 0.68424 0.00975 0.80719 0.0
C847 C 0.6852 0.98902 0.82816 0.0
H848 H 0.43385 0.17358 0.15072 0.0
H849 H 0.40602 0.21494 0.08056 0.0
H850 H 0.48749 0.21016 0.15075 0.0
H851 H 0.45893 0.25209 0.08095 0.0
H852 H 0.55825 0.30856 0.1547 0.0
H853 H 0.50412 0.27261 0.15385 0.0
H854 H 0.52253 0.24888 0.07878 0.0
H855 H 0.57576 0.28544 0.07937 0.0
C856 C 0.43925 0.19027 0.13525 0.0
C857 C 0.41562 0.19128 0.11563 0.0
C858 C 0.46978 0.21154 0.13539 0.0
C859 C 0.47729 0.23431 0.11596 0.0
C860 C 0.45411 0.23463 0.09611 0.0
C861 C 0.42371 0.2133 0.09592 0.0
C862 C 0.55047 0.29605 0.13794 0.0
C863 C 0.57139 0.29988 0.11712 0.0
C864 C 0.51967 0.27514 0.13753 0.0
C865 C 0.50921 0.25761 0.1163 0.0
C866 C 0.52962 0.26226 0.09536 0.0
C867 C 0.56026 0.28321 0.09574 0.0
H868 H 0.50497 0.64227 0.34533 0.0
H869 H 0.58781 0.70442 0.37933 0.0
H870 H 0.46671 0.6949 0.34387 0.0
H871 H 0.54952 0.75738 0.37717 0.0
H872 H 0.47902 0.84636 0.34012 0.0
H873 H 0.51708 0.7936 0.3391 0.0
H874 H 0.44031 0.73619 0.38187 0.0
H875 H 0.40229 0.78942 0.38356 0.0
C876 C 0.51527 0.66729 0.3521 0.0
C877 C 0.54946 0.66928 0.36241 0.0
C878 C 0.49323 0.69723 0.35141 0.0
C879 C 0.50526 0.72986 0.36051 0.0
C880 C 0.53983 0.73233 0.37004 0.0
C881 C 0.56165 0.70215 0.37125 0.0
C882 C 0.46998 0.82241 0.34912 0.0
C883 C 0.43759 0.82195 0.36189 0.0
C884 C 0.49192 0.7924 0.34864 0.0
C885 C 0.48152 0.76116 0.36045 0.0
C886 C 0.4487 0.76015 0.3726 0.0
C887 C 0.42705 0.79049 0.37356 0.0
H888 H 0.93633 0.67281 0.65405 0.0
H889 H 0.91267 0.70963 0.58205 0.0
H890 H 0.99142 0.70733 0.65369 0.0
H891 H 0.96687 0.7447 0.58203 0.0
H892 H 0.0658 0.80403 0.65434 0.0
H893 H 0.01078 0.76939 0.65452 0.0
H894 H 0.03024 0.73788 0.58088 0.0
H895 H 0.08435 0.77309 0.5804 0.0
C896 C 0.94292 0.68809 0.63813 0.0
C897 C 0.92011 0.68838 0.61807 0.0
C898 C 0.97428 0.70815 0.63803 0.0
C899 C 0.98339 0.72891 0.61789 0.0
C900 C 0.96086 0.72868 0.59772 0.0
C901 C 0.92968 0.70858 0.59777 0.0
C902 C 0.05811 0.79001 0.63812 0.0
C903 C 0.07945 0.79141 0.61735 0.0
C904 C 0.02679 0.76988 0.63831 0.0
C905 C 0.01628 0.75074 0.61776 0.0
C906 C 0.03735 0.75264 0.59692 0.0
C907 C 0.06848 0.77282 0.59668 0.0
H908 H 0.9559 0.33199 0.83151 0.0
H909 H 0.91616 0.30241 0.90176 0.0
H910 H 0.99259 0.27861 0.83065 0.0
H911 H 0.95244 0.24845 0.9006 0.0
H912 H 0.02549 0.16109 0.82766 0.0
H913 H 0.98858 0.21438 0.82799 0.0
H914 H 0.01568 0.23237 0.90255 0.0
H915 H 0.05211 0.17852 0.90245 0.0
C916 C 0.95459 0.31388 0.84665 0.0
C917 C 0.93312 0.32159 0.86675 0.0
C918 C 0.97561 0.28319 0.84611 0.0
C919 C 0.97565 0.25943 0.86563 0.0
C920 C 0.95347 0.26659 0.88546 0.0
C921 C 0.9324 0.29733 0.88601 0.0
C922 C 0.02389 0.17653 0.8441 0.0
C923 C 0.04174 0.16543 0.86506 0.0
C924 C 0.00274 0.20715 0.84425 0.0
C925 C -0.00104 0.22744 0.86534 0.0
C926 C 0.01754 0.21692 0.88613 0.0
C927 C 0.03872 0.18625 0.88599 0.0
H928 H 0.55594 0.8076 0.84694 0.0
H929 H 0.56924 0.79103 0.92342 0.0
H930 H 0.503 0.7699 0.84758 0.0
H931 H 0.51717 0.75279 0.92386 0.0
H932 H 0.40248 0.71275 0.91946 0.0
H933 H 0.4535 0.75252 0.91953 0.0
H934 H 0.48972 0.70666 0.85251 0.0
H935 H 0.43807 0.66735 0.85206 0.0
C936 C 0.5474 0.79629 0.86392 0.0
C937 C 0.56695 0.80227 0.8851 0.0
C938 C 0.51732 0.77433 0.86422 0.0
C939 C 0.50616 0.75797 0.88571 0.0
C940 C 0.52489 0.76513 0.90703 0.0
C941 C 0.55486 0.78705 0.90674 0.0
C942 C 0.42149 0.71079 0.90484 0.0
C943 C 0.41608 0.68685 0.88571 0.0
C944 C 0.45078 0.73365 0.9049 0.0
C945 C 0.47548 0.73303 0.8859 0.0
C946 C 0.47075 0.70831 0.86716 0.0
C947 C 0.44137 0.68546 0.86706 0.0
H948 H 0.46333 0.32638 0.66737 0.0
H949 H 0.43463 0.31168 0.59268 0.0
H950 H 0.49693 0.27144 0.66658 0.0
H951 H 0.46747 0.25533 0.59218 0.0
H952 H 0.56134 0.17596 0.59394 0.0
H953 H 0.52748 0.23167 0.59345 0.0
H954 H 0.489 0.20937 0.6652 0.0
H955 H 0.52363 0.15496 0.66607 0.0
C956 C 0.46365 0.31111 0.65083 0.0
C957 C 0.44612 0.32346 0.63009 0.0
C958 C 0.48292 0.27941 0.65042 0.0
C959 C 0.48485 0.25883 0.62935 0.0
C960 C 0.4669 0.2708 0.60863 0.0
C961 C 0.44779 0.30289 0.60897 0.0
C962 C 0.54591 0.18323 0.60967 0.0
C963 C 0.54548 0.16117 0.63012 0.0
C964 C 0.52622 0.21493 0.6093 0.0
C965 C 0.50553 0.22503 0.6293 0.0
C966 C 0.50514 0.20284 0.64966 0.0
C967 C 0.52503 0.1715 0.65013 0.0
H968 H 0.0582 0.30986 0.34775 0.0
H969 H 0.07325 0.28657 0.42329 0.0
H970 H 0.00464 0.27302 0.34759 0.0
H971 H 0.02062 0.24916 0.42288 0.0
H972 H 0.93646 0.17209 0.34952 0.0
H973 H 0.9892 0.21003 0.3503 0.0
H974 H 0.95709 0.25138 0.41958 0.0
H975 H 0.90518 0.21295 0.41918 0.0
C976 C 0.04996 0.29718 0.36435 0.0
C977 C 0.07007 0.30115 0.38552 0.0
C978 C 0.01952 0.27575 0.36418 0.0
C979 C 0.00859 0.25788 0.38516 0.0
C980 C 0.0281 0.26277 0.40646 0.0
C981 C 0.05839 0.28422 0.40666 0.0
C982 C 0.94091 0.18895 0.36505 0.0
C983 C 0.91659 0.18941 0.38429 0.0
C984 C 0.97091 0.21099 0.36536 0.0
C985 C 0.97716 0.23395 0.38491 0.0
C986 C 0.95326 0.23379 0.40435 0.0
C987 C 0.92341 0.21172 0.40409 0.0
H988 H 0.02887 0.66319 0.17288 0.0
H989 H 0.05253 0.67834 0.0974 0.0
H990 H 0.99182 0.71618 0.17252 0.0
H991 H 0.0161 0.73226 0.09729 0.0
H992 H 0.91712 0.80326 0.09923 0.0
H993 H 0.95363 0.74938 0.09991 0.0
H994 H -0.00488 0.77951 0.16952 0.0
H995 H 0.95807 0.83247 0.16924 0.0
C996 C 0.02667 0.67813 0.15627 0.0
C997 C 0.04367 0.66643 0.13514 0.0
C998 C 0.00542 0.70862 0.1561 0.0
C999 C 0.00081 0.72833 0.13484 0.0
C1000 C 0.0186 0.71726 0.11385 0.0
C1001 C 0.0398 0.6866 0.11399 0.0
C1002 C 0.93368 0.79812 0.11481 0.0
C1003 C 0.93461 0.8222 0.13418 0.0
C1004 C 0.9549 0.76746 0.11508 0.0
C1005 C 0.9775 0.76031 0.13468 0.0
C1006 C 0.97776 0.78399 0.15425 0.0
C1007 C 0.95651 0.81447 0.15404 0.0
H1008 H 0.18088 0.23531 0.10005 0.0
H1009 H 0.28713 0.27639 0.08882 0.0
H1010 H 0.15821 0.2955 0.10381 0.0
H1011 H 0.2641 0.33728 0.09211 0.0
H1012 H 0.21408 0.42975 0.13891 0.0
H1013 H 0.24063 0.37309 0.12617 0.0
H1014 H 0.1471 0.35063 0.08345 0.0
H1015 H 0.12033 0.40599 0.09667 0.0
C1016 C 0.19924 0.25731 0.09772 0.0
C1017 C 0.23579 0.25116 0.09432 0.0
C1018 C 0.18623 0.29188 0.0998 0.0
C1019 C 0.20945 0.32116 0.09849 0.0
C1020 C 0.24571 0.31517 0.09354 0.0
C1021 C 0.25878 0.28038 0.09134 0.0
C1022 C 0.19935 0.41265 0.12679 0.0
C1023 C 0.16483 0.42191 0.11927 0.0
C1024 C 0.21465 0.38045 0.11927 0.0
C1025 C 0.19577 0.3573 0.10396 0.0
C1026 C 0.162 0.36752 0.09563 0.0
C1027 C 0.14664 0.39927 0.1033 0.0
H1028 H 0.30602 0.46312 0.40818 0.0
H1029 H 0.33576 0.38688 0.35337 0.0
H1030 H 0.36451 0.49161 0.40424 0.0
H1031 H 0.39363 0.41563 0.34929 0.0
H1032 H 0.48008 0.50085 0.33444 0.0
H1033 H 0.4187 0.47874 0.33653 0.0
H1034 H 0.42891 0.46597 0.41341 0.0
H1035 H 0.49009 0.48745 0.41143 0.0
C1036 C 0.32488 0.4527 0.3952 0.0
C1037 C 0.31657 0.42265 0.38126 0.0
C1038 C 0.3582 0.46892 0.39297 0.0
C1039 C 0.38326 0.45573 0.37642 0.0
C1040 C 0.37454 0.42639 0.36201 0.0
C1041 C 0.3416 0.40981 0.36453 0.0
C1042 C 0.46914 0.49334 0.35174 0.0
C1043 C 0.48988 0.4955 0.37272 0.0
C1044 C 0.43417 0.48078 0.35293 0.0
C1045 C 0.41931 0.47095 0.37515 0.0
C1046 C 0.43978 0.47378 0.39613 0.0
C1047 C 0.47485 0.48568 0.39491 0.0
H1048 H 0.31498 0.75517 0.58889 0.0
H1049 H 0.20924 0.71102 0.58111 0.0
H1050 H 0.33885 0.696 0.59522 0.0
H1051 H 0.23351 0.65124 0.58669 0.0
H1052 H 0.37801 0.58464 0.59515 0.0
H1053 H 0.35176 0.63894 0.57963 0.0
H1054 H 0.25647 0.61922 0.62128 0.0
H1055 H 0.28241 0.56359 0.63615 0.0
C1056 C 0.29695 0.73271 0.58777 0.0
C1057 C 0.26012 0.73791 0.58487 0.0
C1058 C 0.31068 0.69863 0.59136 0.0
C1059 C 0.28797 0.66888 0.59188 0.0
C1060 C 0.25155 0.67373 0.58695 0.0
C1061 C 0.23774 0.70796 0.58342 0.0
C1062 C 0.35145 0.59182 0.60109 0.0
C1063 C 0.33248 0.57009 0.61723 0.0
C1064 C 0.33638 0.623 0.59212 0.0
C1065 C 0.30213 0.63362 0.59932 0.0
C1066 C 0.28277 0.61156 0.61511 0.0
C1067 C 0.29773 0.57993 0.62387 0.0
H1068 H 0.01813 0.45495 0.84097 0.0
H1069 H 0.97617 0.55749 0.86241 0.0
H1070 H 0.07879 0.47832 0.84447 0.0
H1071 H 0.03621 0.58032 0.86647 0.0
H1072 H 0.14655 0.62045 0.85344 0.0
H1073 H 0.0885 0.59615 0.84424 0.0
H1074 H 0.11796 0.49684 0.87823 0.0
H1075 H 0.17719 0.52091 0.88689 0.0
C1076 C 0.02182 0.48261 0.84592 0.0
C1077 C 0.99244 0.50436 0.8515 0.0
C1078 C 0.0565 0.49581 0.84826 0.0
C1079 C 0.06224 0.531 0.85602 0.0
C1080 C 0.03273 0.55317 0.8603 0.0
C1081 C -0.00173 0.54004 0.85801 0.0
C1082 C 0.14082 0.59344 0.85911 0.0
C1083 C 0.16653 0.57269 0.87109 0.0
C1084 C 0.10742 0.57953 0.85379 0.0
C1085 C 0.09864 0.54462 0.8605 0.0
C1086 C 0.1242 0.52372 0.87253 0.0
C1087 C 0.15791 0.53763 0.87777 0.0
H1088 H 0.79634 0.75059 0.91445 0.0
H1089 H 0.68699 0.71486 0.91185 0.0
H1090 H 0.8167 0.68959 0.90994 0.0
H1091 H 0.70753 0.65323 0.90763 0.0
H1092 H 0.76483 0.56327 0.86165 0.0
H1093 H 0.73803 0.62006 0.87417 0.0
H1094 H 0.81902 0.63162 0.92883 0.0
H1095 H 0.84606 0.57623 0.91612 0.0
C1096 C 0.77665 0.72952 0.91363 0.0
C1097 C 0.74012 0.73749 0.91341 0.0
C1098 C 0.7883 0.69451 0.91104 0.0
C1099 C 0.76367 0.66665 0.90816 0.0
C1100 C 0.72705 0.67428 0.90948 0.0
C1101 C 0.71535 0.70945 0.91226 0.0
C1102 C 0.77672 0.578 0.87635 0.0
C1103 C 0.808 0.5657 0.88746 0.0
C1104 C 0.76124 0.61025 0.88368 0.0
C1105 C 0.7767 0.6304 0.90234 0.0
C1106 C 0.80693 0.61709 0.91411 0.0
C1107 C 0.82246 0.58531 0.9067 0.0
H1108 H 0.66753 0.60389 0.66394 0.0
H1109 H 0.67917 0.52081 0.61063 0.0
H1110 H 0.61355 0.57629 0.67866 0.0
H1111 H 0.62365 0.4936 0.62494 0.0
H1112 H 0.53194 0.44198 0.66396 0.0
H1113 H 0.59277 0.46351 0.65831 0.0
H1114 H 0.55471 0.57205 0.663 0.0
H1115 H 0.49454 0.55072 0.66922 0.0
C1116 C 0.65834 0.5798 0.65518 0.0
C1117 C 0.67716 0.5649 0.63573 0.0
C1118 C 0.62738 0.56395 0.66371 0.0
C1119 C 0.61404 0.53305 0.6528 0.0
C1120 C 0.63346 0.51729 0.63386 0.0
C1121 C 0.66498 0.53299 0.62549 0.0
C1122 C 0.5368 0.47041 0.66456 0.0
C1123 C 0.50839 0.4947 0.66683 0.0
C1124 C 0.57155 0.4827 0.66098 0.0
C1125 C 0.57847 0.51943 0.65982 0.0
C1126 C 0.55041 0.54356 0.66393 0.0
C1127 C 0.51581 0.53133 0.66747 0.0
H1128 H 0.78862 0.27432 0.40972 0.0
H1129 H 0.68528 0.23468 0.38836 0.0
H1130 H 0.76575 0.33552 0.40761 0.0
H1131 H 0.66282 0.29521 0.38598 0.0
H1132 H 0.62429 0.40492 0.40414 0.0
H1133 H 0.6492 0.34643 0.41165 0.0
H1134 H 0.7451 0.37593 0.37359 0.0
H1135 H 0.72037 0.43544 0.36635 0.0
C1136 C 0.76091 0.27865 0.4051 0.0
C1137 C 0.7387 0.24985 0.39918 0.0
C1138 C 0.748 0.31358 0.40358 0.0
C1139 C 0.71263 0.32003 0.39645 0.0
C1140 C 0.69012 0.29106 0.39168 0.0
C1141 C 0.70301 0.25638 0.393 0.0
C1142 C 0.65071 0.39914 0.39729 0.0
C1143 C 0.67026 0.42484 0.38446 0.0
C1144 C 0.66494 0.36555 0.40164 0.0
C1145 C 0.69903 0.35668 0.39321 0.0
C1146 C 0.71887 0.3823 0.38052 0.0
C1147 C 0.70456 0.41614 0.37613 0.0
H1148 H 0.82514 0.38203 0.16295 0.0
H1149 H 0.80967 0.47018 0.11402 0.0
H1150 H 0.87975 0.40873 0.17747 0.0
H1151 H 0.86568 0.49656 0.12807 0.0
H1152 H 0.96013 0.54479 0.16616 0.0
H1153 H 0.89895 0.52355 0.16158 0.0
H1154 H 0.93749 0.41497 0.16024 0.0
H1155 H -0.00199 0.43598 0.16535 0.0
C1156 C 0.83356 0.4071 0.15515 0.0
C1157 C 0.8135 0.42366 0.13693 0.0
C1158 C 0.86489 0.42243 0.16355 0.0
C1159 C 0.87736 0.45449 0.15373 0.0
C1160 C 0.85662 0.47192 0.13615 0.0
C1161 C 0.82478 0.45672 0.12792 0.0
C1162 C 0.95535 0.51634 0.16567 0.0
C1163 C 0.98393 0.49203 0.16594 0.0
C1164 C 0.92036 0.50423 0.16271 0.0
C1165 C 0.91339 0.46764 0.1602 0.0
C1166 C 0.94179 0.44334 0.16227 0.0
C1167 C 0.9766 0.45539 0.16516 0.0
H1168 H 0.79184 0.77311 0.58709 0.0
H1169 H 0.68511 0.73148 0.59481 0.0
H1170 H 0.76846 0.83379 0.59042 0.0
H1171 H 0.66207 0.79147 0.59872 0.0
H1172 H 0.62415 0.90214 0.59366 0.0
H1173 H 0.65141 0.84732 0.57987 0.0
H1174 H 0.74378 0.86858 0.62402 0.0
H1175 H 0.71679 0.92476 0.63724 0.0
C1176 C 0.76333 0.77693 0.58884 0.0
C1177 C 0.7403 0.74756 0.5909 0.0
C1178 C 0.75004 0.81162 0.59107 0.0
C1179 C 0.71352 0.81742 0.59518 0.0
C1180 C 0.69031 0.78806 0.59541 0.0
C1181 C 0.70354 0.75356 0.59323 0.0
C1182 C 0.65031 0.89523 0.60049 0.0
C1183 C 0.66805 0.9174 0.61698 0.0
C1184 C 0.66596 0.86379 0.59249 0.0
C1185 C 0.69955 0.85336 0.60104 0.0
C1186 C 0.71796 0.87607 0.61692 0.0
C1187 C 0.70241 0.908 0.62471 0.0
H1188 H 0.83175 0.86975 0.84661 0.0
H1189 H 0.80932 0.96495 0.88779 0.0
H1190 H 0.88753 0.89516 0.83318 0.0
H1191 H 0.86638 0.9901 0.87486 0.0
H1192 H 0.9609 0.03588 0.83511 0.0
H1193 H 0.9006 0.01273 0.84052 0.0
H1194 H 0.94376 0.90706 0.85115 0.0
H1195 H 0.00346 0.92979 0.84512 0.0
C1196 C 0.83887 0.89605 0.85302 0.0
C1197 C 0.81626 0.91514 0.8686 0.0
C1198 C 0.87094 0.91062 0.84526 0.0
C1199 C 0.88157 0.94452 0.85306 0.0
C1200 C 0.85874 0.96403 0.8683 0.0
C1201 C 0.82626 0.94952 0.87592 0.0
C1202 C 0.95738 0.00753 0.83791 0.0
C1203 C 0.98701 0.9847 0.83986 0.0
C1204 C 0.92288 -0.00561 0.84134 0.0
C1205 C 0.91741 0.95819 0.84662 0.0
C1206 C 0.94692 0.93506 0.84696 0.0
C1207 C 0.98126 0.94813 0.84355 0.0
H1208 H 0.86116 0.08503 0.09264 0.0
H1209 H 0.7701 0.06586 0.13858 0.0
H1210 H 0.83577 0.1411 0.08 0.0
H1211 H 0.74499 0.12344 0.12633 0.0
H1212 H 0.69755 0.21776 0.08642 0.0
H1213 H 0.7198 0.15717 0.09219 0.0
H1214 H 0.82708 0.19801 0.09808 0.0
H1215 H 0.80518 0.25803 0.09173 0.0
C1216 C 0.8358 0.09293 0.1003 0.0
C1217 C 0.81788 0.07111 0.11697 0.0
C1218 C 0.82124 0.12521 0.09297 0.0
C1219 C 0.78854 0.13689 0.10227 0.0
C1220 C 0.77013 0.11494 0.11865 0.0
C1221 C 0.78463 0.08219 0.12587 0.0
C1222 C 0.726 0.21365 0.08825 0.0
C1223 C 0.7496 0.24275 0.08876 0.0
C1224 C 0.73864 0.179 0.09191 0.0
C1225 C 0.77509 0.17285 0.09595 0.0
C1226 C 0.79885 0.20174 0.09488 0.0
C1227 C 0.78628 0.23624 0.09124 0.0
H1228 H 0.51843 0.95544 0.33989 0.0
H1229 H 0.47859 0.05389 0.37016 0.0
H1230 H 0.5795 0.97792 0.34346 0.0
H1231 H 0.53904 0.0758 0.37407 0.0
H1232 H 0.64692 0.1186 0.35693 0.0
H1233 H 0.58865 0.0943 0.34875 0.0
H1234 H 0.62152 0.99279 0.37796 0.0
H1235 H 0.68113 0.01703 0.38578 0.0
C1236 C 0.52266 0.98207 0.34684 0.0
C1237 C 0.4938 0.00296 0.35473 0.0
C1238 C 0.55755 -0.00533 0.3492 0.0
C1239 C 0.56393 0.02844 0.3592 0.0
C1240 C 0.53492 0.04976 0.36613 0.0
C1241 C 0.50027 0.03719 0.3639 0.0
C1242 C 0.64201 0.09105 0.36171 0.0
C1243 C 0.66871 0.0698 0.37223 0.0
C1244 C 0.60847 0.07719 0.35699 0.0
C1245 C 0.60055 0.04176 0.36279 0.0
C1246 C 0.62714 0.02017 0.37311 0.0
C1247 C 0.66104 0.03411 0.37783 0.0
H1248 H 0.29988 0.25044 0.41049 0.0
H1249 H 0.19052 0.21447 0.4111 0.0
H1250 H 0.32008 0.1894 0.40572 0.0
H1251 H 0.21095 0.15283 0.40658 0.0
H1252 H 0.26631 0.06105 0.36111 0.0
H1253 H 0.24035 0.11867 0.37269 0.0
H1254 H 0.32284 0.13211 0.4261 0.0
H1255 H 0.34899 0.07585 0.4144 0.0
C1256 C 0.28019 0.22935 0.41023 0.0
C1257 C 0.24366 0.23723 0.41111 0.0
C1258 C 0.29175 0.19434 0.4075 0.0
C1259 C 0.26703 0.16639 0.40555 0.0
C1260 C 0.2305 0.17396 0.40773 0.0
C1261 C 0.21889 0.20913 0.41066 0.0
C1262 C 0.27874 0.07637 0.37533 0.0
C1263 C 0.3101 0.06423 0.38643 0.0
C1264 C 0.26374 0.10911 0.38211 0.0
C1265 C 0.27983 0.12995 0.40016 0.0
C1266 C 0.31025 0.11697 0.41184 0.0
C1267 C 0.32526 0.08467 0.40503 0.0
H1268 H 0.02193 0.94777 0.15965 0.0
H1269 H 0.98309 0.05469 0.14744 0.0
H1270 H 0.08342 0.96961 0.15731 0.0
H1271 H 0.04389 0.07624 0.14489 0.0
H1272 H 0.15443 0.11134 0.15768 0.0
H1273 H 0.09799 0.0848 0.16859 0.0
H1274 H 0.12096 -0.0057 0.1231 0.0
H1275 H 0.17862 0.0207 0.1124 0.0
C1276 C 0.02654 0.97601 0.15712 0.0
C1277 C -0.00215 -0.00041 0.15369 0.0
C1278 C 0.06163 0.98837 0.15547 0.0
C1279 C 0.06837 0.02452 0.15074 0.0
C1280 C 0.03957 0.04828 0.14875 0.0
C1281 C 0.00472 0.03595 0.15017 0.0
C1282 C 0.14767 0.08573 0.14993 0.0
C1283 C 0.17075 0.06842 0.13374 0.0
C1284 C 0.1153 0.07051 0.1563 0.0
C1285 C 0.10495 0.03771 0.14653 0.0
C1286 C 0.12846 0.01956 0.13104 0.0
C1287 C 0.16123 0.03478 0.12473 0.0
H1288 H 0.1413 0.90778 0.90444 0.0
H1289 H 0.21595 0.93594 0.84834 0.0
H1290 H 0.17254 0.85152 0.91059 0.0
H1291 H 0.24697 0.8791 0.85437 0.0
H1292 H 0.2388 0.75342 0.84774 0.0
H1293 H 0.22033 0.81545 0.84602 0.0
H1294 H 0.23598 0.82515 0.9227 0.0
H1295 H 0.25536 0.76253 0.92447 0.0
C1296 C 0.16454 0.90202 0.89354 0.0
C1297 C 0.17594 0.92593 0.87565 0.0
C1298 C 0.18262 0.87006 0.89728 0.0
C1299 C 0.21206 0.86119 0.88297 0.0
C1300 C 0.22426 0.88553 0.86562 0.0
C1301 C 0.20653 0.91789 0.86215 0.0
C1302 C 0.23847 0.76875 0.86427 0.0
C1303 C 0.24805 0.75312 0.88632 0.0
C1304 C 0.22833 0.80434 0.86319 0.0
C1305 C 0.22701 0.82493 0.88419 0.0
C1306 C 0.23697 0.80962 0.90628 0.0
C1307 C 0.24792 0.77398 0.90729 0.0
H1308 H 0.329 0.87756 0.66274 0.0
H1309 H 0.31555 0.96373 0.61194 0.0
H1310 H 0.38279 0.90509 0.67798 0.0
H1311 H 0.3707 0.99093 0.62678 0.0
H1312 H 0.46364 0.04053 0.66482 0.0
H1313 H 0.40252 0.01909 0.66066 0.0
H1314 H 0.44113 0.91052 0.66105 0.0
H1315 H 0.50167 0.93175 0.66567 0.0
C1316 C 0.33768 0.9024 0.65472 0.0
C1317 C 0.31853 0.91812 0.63573 0.0
C1318 C 0.36849 0.9182 0.66354 0.0
C1319 C 0.38127 0.94989 0.6534 0.0
C1320 C 0.36133 0.96659 0.6351 0.0
C1321 C 0.33 0.95091 0.62643 0.0
C1322 C 0.4589 0.01207 0.66483 0.0
C1323 C 0.48749 0.98778 0.66531 0.0
C1324 C 0.42395 -0.00015 0.66213 0.0
C1325 C 0.41706 0.96319 0.66013 0.0
C1326 C 0.44543 0.93895 0.66265 0.0
C1327 C 0.48024 0.95112 0.66525 0.0
loop_
_geom_bond_atom_site_label_1
_geom_bond_atom_site_label_2
_geom_bond_distance
_geom_bond_site_symmetry_2
_ccdc_geom_bond_type
O0 Zn1 1.953 . S
O0 C16 1.225 . S
Zn1 O0 1.953 . S
Zn1 O2 1.949 . S
Zn1 O8 1.919 . S
Zn1 O13 1.924 . S
O2 Zn1 1.949 . S
O2 Zn3 1.923 . S
O2 Zn4 1.950 . S
O2 Zn5 1.945 . S
Zn3 O2 1.923 . S
Zn3 O6 1.933 . S
Zn3 O9 1.941 . S
Zn3 O10 1.965 . S
Zn4 O2 1.950 . S
Zn4 O11 1.938 . S
Zn4 O12 1.906 . S
Zn4 O22 1.953 . S
Zn5 O2 1.945 . S
Zn5 O7 1.932 . S
Zn5 O14 1.977 . S
Zn5 O15 1.910 . S
O6 Zn3 1.933 . S
O6 C17 1.226 . S
O7 Zn5 1.932 . S
O7 C17 1.307 . S
O8 Zn1 1.919 . S
O8 C19 1.253 . S
O9 Zn3 1.941 . S
O9 C19 1.283 . S
O10 Zn3 1.965 . S
O10 C18 1.303 . S
O11 Zn4 1.938 . S
O11 C18 1.247 . S
O12 Zn4 1.906 . S
O12 C20 1.304 . S
O13 Zn1 1.924 . S
O13 C21 1.311 . S
O14 Zn5 1.977 . S
O14 C20 1.272 . S
O15 Zn5 1.910 . S
O15 C21 1.231 . S
C16 O0 1.225 . S
C16 O22 1.298 . S
C17 O6 1.226 . S
C17 O7 1.307 . S
C18 O10 1.303 . S
C18 O11 1.247 . S
C19 O8 1.253 . S
C19 O9 1.283 . S
C20 O12 1.304 . S
C20 O14 1.272 . S
C21 O13 1.311 . S
C21 O15 1.231 . S
O22 Zn4 1.953 . S
O22 C16 1.298 . S
O23 Zn24 1.953 . S
O23 C39 1.225 . S
Zn24 O23 1.953 . S
Zn24 O25 1.949 . S
Zn24 O31 1.919 . S
Zn24 O36 1.924 . S
O25 Zn24 1.949 . S
O25 Zn26 1.923 . S
O25 Zn27 1.950 . S
O25 Zn28 1.945 . S
Zn26 O25 1.923 . S
Zn26 O29 1.933 . S
Zn26 O32 1.941 . S
Zn26 O33 1.965 . S
Zn27 O25 1.950 . S
Zn27 O34 1.938 . S
Zn27 O35 1.906 . S
Zn27 O45 1.953 . S
Zn28 O25 1.945 . S
Zn28 O30 1.932 . S
Zn28 O37 1.977 . S
Zn28 O38 1.910 . S
O29 Zn26 1.933 . S
O29 C40 1.226 . S
O30 Zn28 1.932 . S
O30 C40 1.307 . S
O31 Zn24 1.919 . S
O31 C42 1.253 . S
O32 Zn26 1.941 . S
O32 C42 1.283 . S
O33 Zn26 1.965 . S
O33 C41 1.303 . S
O34 Zn27 1.938 . S
O34 C41 1.247 . S
O35 Zn27 1.906 . S
O35 C43 1.304 . S
O36 Zn24 1.924 . S
O36 C44 1.311 . S
O37 Zn28 1.977 . S
O37 C43 1.272 . S
O38 Zn28 1.910 . S
O38 C44 1.231 . S
C39 O23 1.225 . S
C39 O45 1.298 . S
C40 O29 1.226 . S
C40 O30 1.307 . S
C41 O33 1.303 . S
C41 O34 1.247 . S
C42 O31 1.253 . S
C42 O32 1.283 . S
C43 O35 1.304 . S
C43 O37 1.272 . S
C44 O36 1.311 . S
C44 O38 1.231 . S
O45 Zn27 1.953 . S
O45 C39 1.298 . S
O46 Zn47 1.953 . S
O46 C62 1.225 . S
Zn47 O46 1.953 . S
Zn47 O48 1.949 . S
Zn47 O54 1.919 . S
Zn47 O59 1.924 . S
O48 Zn47 1.949 . S
O48 Zn49 1.923 . S
O48 Zn50 1.950 . S
O48 Zn51 1.945 . S
Zn49 O48 1.923 . S
Zn49 O52 1.933 . S
Zn49 O55 1.941 . S
Zn49 O56 1.965 . S
Zn50 O48 1.950 . S
Zn50 O57 1.938 . S
Zn50 O58 1.906 . S
Zn50 O68 1.953 . S
Zn51 O48 1.945 . S
Zn51 O53 1.932 . S
Zn51 O60 1.977 . S
Zn51 O61 1.910 . S
O52 Zn49 1.933 . S
O52 C63 1.226 . S
O53 Zn51 1.932 . S
O53 C63 1.307 . S
O54 Zn47 1.919 . S
O54 C65 1.253 . S
O55 Zn49 1.941 . S
O55 C65 1.283 . S
O56 Zn49 1.965 . S
O56 C64 1.303 . S
O57 Zn50 1.938 . S
O57 C64 1.247 . S
O58 Zn50 1.906 . S
O58 C66 1.304 . S
O59 Zn47 1.924 . S
O59 C67 1.311 . S
O60 Zn51 1.977 . S
O60 C66 1.272 . S
O61 Zn51 1.910 . S
O61 C67 1.231 . S
C62 O46 1.225 . S
C62 O68 1.298 . S
C63 O52 1.226 . S
C63 O53 1.307 . S
C64 O56 1.303 . S
C64 O57 1.247 . S
C65 O54 1.253 . S
C65 O55 1.283 . S
C66 O58 1.304 . S
C66 O60 1.272 . S
C67 O59 1.311 . S
C67 O61 1.231 . S
O68 Zn50 1.953 . S
O68 C62 1.298 . S
O69 Zn70 1.953 . S
O69 C85 1.225 . S
Zn70 O69 1.953 . S
Zn70 O71 1.949 . S
Zn70 O77 1.919 . S
Zn70 O82 1.924 . S
O71 Zn70 1.949 . S
O71 Zn72 1.923 . S
O71 Zn73 1.950 . S
O71 Zn74 1.945 . S
Zn72 O71 1.923 . S
Zn72 O75 1.933 . S
Zn72 O78 1.941 . S
Zn72 O79 1.965 . S
Zn73 O71 1.950 . S
Zn73 O80 1.938 . S
Zn73 O81 1.906 . S
Zn73 O91 1.953 . S
Zn74 O71 1.945 . S
Zn74 O76 1.932 . S
Zn74 O83 1.977 . S
Zn74 O84 1.910 . S
O75 Zn72 1.933 . S
O75 C86 1.226 . S
O76 Zn74 1.932 . S
O76 C86 1.307 . S
O77 Zn70 1.919 . S
O77 C88 1.253 . S
O78 Zn72 1.941 . S
O78 C88 1.283 . S
O79 Zn72 1.965 . S
O79 C87 1.303 . S
O80 Zn73 1.938 . S
O80 C87 1.247 . S
O81 Zn73 1.906 . S
O81 C89 1.304 . S
O82 Zn70 1.924 . S
O82 C90 1.311 . S
O83 Zn74 1.977 . S
O83 C89 1.272 . S
O84 Zn74 1.910 . S
O84 C90 1.231 . S
C85 O69 1.225 . S
C85 O91 1.298 . S
C86 O75 1.226 . S
C86 O76 1.307 . S
C87 O79 1.303 . S
C87 O80 1.247 . S
C88 O77 1.253 . S
C88 O78 1.283 . S
C89 O81 1.304 . S
C89 O83 1.272 . S
C90 O82 1.311 . S
C90 O84 1.231 . S
O91 Zn73 1.953 . S
O91 C85 1.298 . S
O92 Zn93 1.953 . S
O92 C108 1.225 . S
Zn93 O92 1.953 . S
Zn93 O94 1.949 . S
Zn93 O100 1.919 . S
Zn93 O105 1.924 . S
O94 Zn93 1.949 . S
O94 Zn95 1.923 . S
O94 Zn96 1.950 . S
O94 Zn97 1.945 . S
Zn95 O94 1.923 . S
Zn95 O98 1.933 . S
Zn95 O101 1.941 . S
Zn95 O102 1.965 . S
Zn96 O94 1.950 . S
Zn96 O103 1.938 . S
Zn96 O104 1.906 . S
Zn96 O114 1.953 . S
Zn97 O94 1.945 . S
Zn97 O99 1.932 . S
Zn97 O106 1.977 . S
Zn97 O107 1.910 . S
O98 Zn95 1.933 . S
O98 C109 1.226 . S
O99 Zn97 1.932 . S
O99 C109 1.307 . S
O100 Zn93 1.919 . S
O100 C111 1.253 . S
O101 Zn95 1.941 . S
O101 C111 1.283 . S
O102 Zn95 1.965 . S
O102 C110 1.303 . S
O103 Zn96 1.938 . S
O103 C110 1.247 . S
O104 Zn96 1.906 . S
O104 C112 1.304 . S
O105 Zn93 1.924 . S
O105 C113 1.311 . S
O106 Zn97 1.977 . S
O106 C112 1.272 . S
O107 Zn97 1.910 . S
O107 C113 1.231 . S
C108 O92 1.225 . S
C108 O114 1.298 . S
C109 O98 1.226 . S
C109 O99 1.307 . S
C110 O102 1.303 . S
C110 O103 1.247 . S
C111 O100 1.253 . S
C111 O101 1.283 . S
C112 O104 1.304 . S
C112 O106 1.272 . S
C113 O105 1.311 . S
C113 O107 1.231 . S
O114 Zn96 1.953 . S
O114 C108 1.298 . S
O115 Zn116 1.953 . S
O115 C131 1.225 . S
Zn116 O115 1.953 . S
Zn116 O117 1.949 . S
Zn116 O123 1.919 . S
Zn116 O128 1.924 . S
O117 Zn116 1.949 . S
O117 Zn118 1.923 . S
O117 Zn119 1.950 . S
O117 Zn120 1.945 . S
Zn118 O117 1.923 . S
Zn118 O121 1.933 . S
Zn118 O124 1.941 . S
Zn118 O125 1.965 . S
Zn119 O117 1.950 . S
Zn119 O126 1.938 . S
Zn119 O127 1.906 . S
Zn119 O137 1.953 . S
Zn120 O117 1.945 . S
Zn120 O122 1.932 . S
Zn120 O129 1.977 . S
Zn120 O130 1.910 . S
O121 Zn118 1.933 . S
O121 C132 1.226 . S
O122 Zn120 1.932 . S
O122 C132 1.307 . S
O123 Zn116 1.919 . S
O123 C134 1.253 . S
O124 Zn118 1.941 . S
O124 C134 1.283 . S
O125 Zn118 1.965 . S
O125 C133 1.303 . S
O126 Zn119 1.938 . S
O126 C133 1.247 . S
O127 Zn119 1.906 . S
O127 C135 1.304 . S
O128 Zn116 1.924 . S
O128 C136 1.311 . S
O129 Zn120 1.977 . S
O129 C135 1.272 . S
O130 Zn120 1.910 . S
O130 C136 1.231 . S
C131 O115 1.225 . S
C131 O137 1.298 . S
C132 O121 1.226 . S
C132 O122 1.307 . S
C133 O125 1.303 . S
C133 O126 1.247 . S
C134 O123 1.253 . S
C134 O124 1.283 . S
C135 O127 1.304 . S
C135 O129 1.272 . S
C136 O128 1.311 . S
C136 O130 1.231 . S
O137 Zn119 1.953 . S
O137 C131 1.298 . S
O138 Zn139 1.953 . S
O138 C154 1.225 . S
Zn139 O138 1.953 . S
Zn139 O140 1.949 . S
Zn139 O146 1.919 . S
Zn139 O151 1.924 . S
O140 Zn139 1.949 . S
O140 Zn141 1.923 . S
O140 Zn142 1.950 . S
O140 Zn143 1.945 . S
Zn141 O140 1.923 . S
Zn141 O144 1.933 . S
Zn141 O147 1.941 . S
Zn141 O148 1.965 . S
Zn142 O140 1.950 . S
Zn142 O149 1.938 . S
Zn142 O150 1.906 . S
Zn142 O160 1.953 . S
Zn143 O140 1.945 . S
Zn143 O145 1.932 . S
Zn143 O152 1.977 . S
Zn143 O153 1.910 . S
O144 Zn141 1.933 . S
O144 C155 1.226 . S
O145 Zn143 1.932 . S
O145 C155 1.307 . S
O146 Zn139 1.919 . S
O146 C157 1.253 . S
O147 Zn141 1.941 . S
O147 C157 1.283 . S
O148 Zn141 1.965 . S
O148 C156 1.303 . S
O149 Zn142 1.938 . S
O149 C156 1.247 . S
O150 Zn142 1.906 . S
O150 C158 1.304 . S
O151 Zn139 1.924 . S
O151 C159 1.311 . S
O152 Zn143 1.977 . S
O152 C158 1.272 . S
O153 Zn143 1.910 . S
O153 C159 1.231 . S
C154 O138 1.225 . S
C154 O160 1.298 . S
C155 O144 1.226 . S
C155 O145 1.307 . S
C156 O148 1.303 . S
C156 O149 1.247 . S
C157 O146 1.253 . S
C157 O147 1.283 . S
C158 O150 1.304 . S
C158 O152 1.272 . S
C159 O151 1.311 . S
C159 O153 1.231 . S
O160 Zn142 1.953 . S
O160 C154 1.298 . S
O161 Zn162 1.953 . S
O161 C177 1.225 . S
Zn162 O161 1.953 . S
Zn162 O163 1.949 . S
Zn162 O169 1.919 . S
Zn162 O174 1.924 . S
O163 Zn162 1.949 . S
O163 Zn164 1.923 . S
O163 Zn165 1.950 . S
O163 Zn166 1.945 . S
Zn164 O163 1.923 . S
Zn164 O167 1.933 . S
Zn164 O170 1.941 . S
Zn164 O171 1.965 . S
Zn165 O163 1.950 . S
Zn165 O172 1.938 . S
Zn165 O173 1.906 . S
Zn165 O183 1.953 . S
Zn166 O163 1.945 . S
Zn166 O168 1.932 . S
Zn166 O175 1.977 . S
Zn166 O176 1.910 . S
O167 Zn164 1.933 . S
O167 C178 1.226 . S
O168 Zn166 1.932 . S
O168 C178 1.307 . S
O169 Zn162 1.919 . S
O169 C180 1.253 . S
O170 Zn164 1.941 . S
O170 C180 1.283 . S
O171 Zn164 1.965 . S
O171 C179 1.303 . S
O172 Zn165 1.938 . S
O172 C179 1.247 . S
O173 Zn165 1.906 . S
O173 C181 1.304 . S
O174 Zn162 1.924 . S
O174 C182 1.311 . S
O175 Zn166 1.977 . S
O175 C181 1.272 . S
O176 Zn166 1.910 . S
O176 C182 1.231 . S
C177 O161 1.225 . S
C177 O183 1.298 . S
C178 O167 1.226 . S
C178 O168 1.307 . S
C179 O171 1.303 . S
C179 O172 1.247 . S
C180 O169 1.253 . S
C180 O170 1.283 . S
C181 O173 1.304 . S
C181 O175 1.272 . S
C182 O174 1.311 . S
C182 O176 1.231 . S
O183 Zn165 1.953 . S
O183 C177 1.298 . S
O184 Zn185 1.953 . S
O184 C200 1.225 . S
Zn185 O184 1.953 . S
Zn185 O186 1.949 . S
Zn185 O192 1.919 . S
Zn185 O197 1.924 . S
O186 Zn185 1.949 . S
O186 Zn187 1.923 . S
O186 Zn188 1.950 . S
O186 Zn189 1.945 . S
Zn187 O186 1.923 . S
Zn187 O190 1.933 . S
Zn187 O193 1.941 . S
Zn187 O194 1.965 . S
Zn188 O186 1.950 . S
Zn188 O195 1.938 . S
Zn188 O196 1.906 . S
Zn188 O206 1.953 . S
Zn189 O186 1.945 . S
Zn189 O191 1.932 . S
Zn189 O198 1.977 . S
Zn189 O199 1.910 . S
O190 Zn187 1.933 . S
O190 C201 1.226 . S
O191 Zn189 1.932 . S
O191 C201 1.307 . S
O192 Zn185 1.919 . S
O192 C203 1.253 . S
O193 Zn187 1.941 . S
O193 C203 1.283 . S
O194 Zn187 1.965 . S
O194 C202 1.303 . S
O195 Zn188 1.938 . S
O195 C202 1.247 . S
O196 Zn188 1.906 . S
O196 C204 1.304 . S
O197 Zn185 1.924 . S
O197 C205 1.311 . S
O198 Zn189 1.977 . S
O198 C204 1.272 . S
O199 Zn189 1.910 . S
O199 C205 1.231 . S
C200 O184 1.225 . S
C200 O206 1.298 . S
C201 O190 1.226 . S
C201 O191 1.307 . S
C202 O194 1.303 . S
C202 O195 1.247 . S
C203 O192 1.253 . S
C203 O193 1.283 . S
C204 O196 1.304 . S
C204 O198 1.272 . S
C205 O197 1.311 . S
C205 O199 1.231 . S
O206 Zn188 1.953 . S
O206 C200 1.298 . S
O207 Zn208 1.953 . S
O207 C223 1.225 . S
Zn208 O207 1.953 . S
Zn208 O209 1.949 . S
Zn208 O215 1.919 1_545 S
Zn208 O220 1.924 1_545 S
O209 Zn208 1.949 . S
O209 Zn210 1.923 . S
O209 Zn211 1.950 . S
O209 Zn212 1.945 . S
Zn210 O209 1.923 . S
Zn210 O213 1.933 . S
Zn210 O216 1.941 1_545 S
Zn210 O217 1.965 . S
Zn211 O209 1.950 . S
Zn211 O218 1.938 . S
Zn211 O219 1.906 . S
Zn211 O229 1.953 . S
Zn212 O209 1.945 . S
Zn212 O214 1.932 . S
Zn212 O221 1.977 . S
Zn212 O222 1.910 . S
O213 Zn210 1.933 . S
O213 C224 1.226 . S
O214 Zn212 1.932 . S
O214 C224 1.307 . S
O215 Zn208 1.919 1_565 S
O215 C226 1.253 . S
O216 Zn210 1.941 1_565 S
O216 C226 1.283 . S
O217 Zn210 1.965 . S
O217 C225 1.303 . S
O218 Zn211 1.938 . S
O218 C225 1.247 . S
O219 Zn211 1.906 . S
O219 C227 1.304 . S
O220 Zn208 1.924 1_565 S
O220 C228 1.311 1_565 S
O221 Zn212 1.977 . S
O221 C227 1.272 . S
O222 Zn212 1.910 . S
O222 C228 1.231 . S
C223 O207 1.225 . S
C223 O229 1.298 . S
C224 O213 1.226 . S
C224 O214 1.307 . S
C225 O217 1.303 . S
C225 O218 1.247 . S
C226 O215 1.253 . S
C226 O216 1.283 . S
C227 O219 1.304 . S
C227 O221 1.272 . S
C228 O220 1.311 1_545 S
C228 O222 1.231 . S
O229 Zn211 1.953 . S
O229 C223 1.298 . S
O230 Zn231 1.953 . S
O230 C246 1.225 . S
Zn231 O230 1.953 . S
Zn231 O232 1.949 . S
Zn231 O238 1.919 . S
Zn231 O243 1.924 . S
O232 Zn231 1.949 . S
O232 Zn233 1.923 . S
O232 Zn234 1.950 . S
O232 Zn235 1.945 . S
Zn233 O232 1.923 . S
Zn233 O236 1.933 . S
Zn233 O239 1.941 . S
Zn233 O240 1.965 . S
Zn234 O232 1.950 . S
Zn234 O241 1.938 . S
Zn234 O242 1.906 . S
Zn234 O252 1.953 . S
Zn235 O232 1.945 . S
Zn235 O237 1.932 . S
Zn235 O244 1.977 . S
Zn235 O245 1.910 . S
O236 Zn233 1.933 . S
O236 C247 1.226 . S
O237 Zn235 1.932 . S
O237 C247 1.307 . S
O238 Zn231 1.919 . S
O238 C249 1.253 . S
O239 Zn233 1.941 . S
O239 C249 1.283 . S
O240 Zn233 1.965 . S
O240 C248 1.303 . S
O241 Zn234 1.938 . S
O241 C248 1.247 . S
O242 Zn234 1.906 . S
O242 C250 1.304 . S
O243 Zn231 1.924 . S
O243 C251 1.311 . S
O244 Zn235 1.977 . S
O244 C250 1.272 . S
O245 Zn235 1.910 . S
O245 C251 1.231 . S
C246 O230 1.225 . S
C246 O252 1.298 . S
C247 O236 1.226 . S
C247 O237 1.307 . S
C248 O240 1.303 . S
C248 O241 1.247 . S
C249 O238 1.253 . S
C249 O239 1.283 . S
C250 O242 1.304 . S
C250 O244 1.272 . S
C251 O243 1.311 . S
C251 O245 1.231 . S
O252 Zn234 1.953 . S
O252 C246 1.298 . S
O253 Zn254 1.953 . S
O253 C269 1.225 . S
Zn254 O253 1.953 . S
Zn254 O255 1.949 . S
Zn254 O261 1.919 1_565 S
Zn254 O266 1.924 1_565 S
O255 Zn254 1.949 . S
O255 Zn256 1.923 . S
O255 Zn257 1.950 . S
O255 Zn258 1.945 . S
Zn256 O255 1.923 . S
Zn256 O259 1.933 . S
Zn256 O262 1.941 1_565 S
Zn256 O263 1.965 . S
Zn257 O255 1.950 . S
Zn257 O264 1.938 . S
Zn257 O265 1.906 . S
Zn257 O275 1.953 . S
Zn258 O255 1.945 . S
Zn258 O260 1.932 . S
Zn258 O267 1.977 . S
Zn258 O268 1.910 . S
O259 Zn256 1.933 . S
O259 C270 1.226 . S
O260 Zn258 1.932 . S
O260 C270 1.307 . S
O261 Zn254 1.919 1_545 S
O261 C272 1.253 . S
O262 Zn256 1.941 1_545 S
O262 C272 1.283 . S
O263 Zn256 1.965 . S
O263 C271 1.303 . S
O264 Zn257 1.938 . S
O264 C271 1.247 . S
O265 Zn257 1.906 . S
O265 C273 1.304 . S
O266 Zn254 1.924 1_545 S
O266 C274 1.311 1_545 S
O267 Zn258 1.977 . S
O267 C273 1.272 . S
O268 Zn258 1.910 . S
O268 C274 1.231 . S
C269 O253 1.225 . S
C269 O275 1.298 . S
C270 O259 1.226 . S
C270 O260 1.307 . S
C271 O263 1.303 . S
C271 O264 1.247 . S
C272 O261 1.253 . S
C272 O262 1.283 . S
C273 O265 1.304 . S
C273 O267 1.272 . S
C274 O266 1.311 1_565 S
C274 O268 1.231 . S
O275 Zn257 1.953 . S
O275 C269 1.298 . S
O276 Zn277 1.953 . S
O276 C292 1.225 . S
Zn277 O276 1.953 . S
Zn277 O278 1.949 . S
Zn277 O284 1.919 . S
Zn277 O289 1.924 . S
O278 Zn277 1.949 . S
O278 Zn279 1.923 . S
O278 Zn280 1.950 . S
O278 Zn281 1.945 . S
Zn279 O278 1.923 . S
Zn279 O282 1.933 . S
Zn279 O285 1.941 . S
Zn279 O286 1.965 . S
Zn280 O278 1.950 . S
Zn280 O287 1.938 . S
Zn280 O288 1.906 . S
Zn280 O298 1.953 . S
Zn281 O278 1.945 . S
Zn281 O283 1.932 . S
Zn281 O290 1.977 . S
Zn281 O291 1.910 . S
O282 Zn279 1.933 . S
O282 C293 1.226 . S
O283 Zn281 1.932 . S
O283 C293 1.307 . S
O284 Zn277 1.919 . S
O284 C295 1.253 . S
O285 Zn279 1.941 . S
O285 C295 1.283 . S
O286 Zn279 1.965 . S
O286 C294 1.303 . S
O287 Zn280 1.938 . S
O287 C294 1.247 . S
O288 Zn280 1.906 . S
O288 C296 1.304 . S
O289 Zn277 1.924 . S
O289 C297 1.311 . S
O290 Zn281 1.977 . S
O290 C296 1.272 . S
O291 Zn281 1.910 . S
O291 C297 1.231 . S
C292 O276 1.225 . S
C292 O298 1.298 . S
C293 O282 1.226 . S
C293 O283 1.307 . S
C294 O286 1.303 . S
C294 O287 1.247 . S
C295 O284 1.253 . S
C295 O285 1.283 . S
C296 O288 1.304 . S
C296 O290 1.272 . S
C297 O289 1.311 . S
C297 O291 1.231 . S
O298 Zn280 1.953 . S
O298 C292 1.298 . S
O299 Zn300 1.953 . S
O299 C315 1.225 . S
Zn300 O299 1.953 . S
Zn300 O301 1.949 . S
Zn300 O307 1.919 1_565 S
Zn300 O312 1.924 1_565 S
O301 Zn300 1.949 . S
O301 Zn302 1.923 . S
O301 Zn303 1.950 . S
O301 Zn304 1.945 . S
Zn302 O301 1.923 . S
Zn302 O305 1.933 . S
Zn302 O308 1.941 1_565 S
Zn302 O309 1.965 . S
Zn303 O301 1.950 . S
Zn303 O310 1.938 . S
Zn303 O311 1.906 . S
Zn303 O321 1.953 . S
Zn304 O301 1.945 . S
Zn304 O306 1.932 . S
Zn304 O313 1.977 . S
Zn304 O314 1.910 . S
O305 Zn302 1.933 . S
O305 C316 1.226 . S
O306 Zn304 1.932 . S
O306 C316 1.307 . S
O307 Zn300 1.919 1_545 S
O307 C318 1.253 . S
O308 Zn302 1.941 1_545 S
O308 C318 1.283 . S
O309 Zn302 1.965 . S
O309 C317 1.303 . S
O310 Zn303 1.938 . S
O310 C317 1.247 . S
O311 Zn303 1.906 . S
O311 C319 1.304 . S
O312 Zn300 1.924 1_545 S
O312 C320 1.311 1_545 S
O313 Zn304 1.977 . S
O313 C319 1.272 . S
O314 Zn304 1.910 . S
O314 C320 1.231 . S
C315 O299 1.225 . S
C315 O321 1.298 . S
C316 O305 1.226 . S
C316 O306 1.307 . S
C317 O309 1.303 . S
C317 O310 1.247 . S
C318 O307 1.253 . S
C318 O308 1.283 . S
C319 O311 1.304 . S
C319 O313 1.272 . S
C320 O312 1.311 1_565 S
C320 O314 1.231 . S
O321 Zn303 1.953 . S
O321 C315 1.298 . S
O322 Zn323 1.953 . S
O322 C338 1.225 . S
Zn323 O322 1.953 . S
Zn323 O324 1.949 . S
Zn323 O330 1.919 . S
Zn323 O335 1.924 . S
O324 Zn323 1.949 . S
O324 Zn325 1.923 . S
O324 Zn326 1.950 . S
O324 Zn327 1.945 . S
Zn325 O324 1.923 . S
Zn325 O328 1.933 . S
Zn325 O331 1.941 . S
Zn325 O332 1.965 . S
Zn326 O324 1.950 . S
Zn326 O333 1.938 . S
Zn326 O334 1.906 . S
Zn326 O344 1.953 . S
Zn327 O324 1.945 . S
Zn327 O329 1.932 . S
Zn327 O336 1.977 . S
Zn327 O337 1.910 . S
O328 Zn325 1.933 . S
O328 C339 1.226 . S
O329 Zn327 1.932 . S
O329 C339 1.307 . S
O330 Zn323 1.919 . S
O330 C341 1.253 . S
O331 Zn325 1.941 . S
O331 C341 1.283 . S
O332 Zn325 1.965 . S
O332 C340 1.303 . S
O333 Zn326 1.938 . S
O333 C340 1.247 . S
O334 Zn326 1.906 . S
O334 C342 1.304 . S
O335 Zn323 1.924 . S
O335 C343 1.311 . S
O336 Zn327 1.977 . S
O336 C342 1.272 . S
O337 Zn327 1.910 . S
O337 C343 1.231 . S
C338 O322 1.225 . S
C338 O344 1.298 . S
C339 O328 1.226 . S
C339 O329 1.307 . S
C340 O332 1.303 . S
C340 O333 1.247 . S
C341 O330 1.253 . S
C341 O331 1.283 . S
C342 O334 1.304 . S
C342 O336 1.272 . S
C343 O335 1.311 . S
C343 O337 1.231 . S
O344 Zn326 1.953 . S
O344 C338 1.298 . S
O345 Zn346 1.953 . S
O345 C361 1.225 . S
Zn346 O345 1.953 . S
Zn346 O347 1.949 . S
Zn346 O353 1.919 1_545 S
Zn346 O358 1.924 1_545 S
O347 Zn346 1.949 . S
O347 Zn348 1.923 . S
O347 Zn349 1.950 . S
O347 Zn350 1.945 . S
Zn348 O347 1.923 . S
Zn348 O351 1.933 . S
Zn348 O354 1.941 1_545 S
Zn348 O355 1.965 . S
Zn349 O347 1.950 . S
Zn349 O356 1.938 . S
Zn349 O357 1.906 . S
Zn349 O367 1.953 . S
Zn350 O347 1.945 . S
Zn350 O352 1.932 . S
Zn350 O359 1.977 . S
Zn350 O360 1.910 . S
O351 Zn348 1.933 . S
O351 C362 1.226 . S
O352 Zn350 1.932 . S
O352 C362 1.307 . S
O353 Zn346 1.919 1_565 S
O353 C364 1.253 . S
O354 Zn348 1.941 1_565 S
O354 C364 1.283 . S
O355 Zn348 1.965 . S
O355 C363 1.303 . S
O356 Zn349 1.938 . S
O356 C363 1.247 . S
O357 Zn349 1.906 . S
O357 C365 1.304 . S
O358 Zn346 1.924 1_565 S
O358 C366 1.311 1_565 S
O359 Zn350 1.977 . S
O359 C365 1.272 . S
O360 Zn350 1.910 . S
O360 C366 1.231 . S
C361 O345 1.225 . S
C361 O367 1.298 . S
C362 O351 1.226 . S
C362 O352 1.307 . S
C363 O355 1.303 . S
C363 O356 1.247 . S
C364 O353 1.253 . S
C364 O354 1.283 . S
C365 O357 1.304 . S
C365 O359 1.272 . S
C366 O358 1.311 1_545 S
C366 O360 1.231 . S
O367 Zn349 1.953 . S
O367 C361 1.298 . S
H368 C376 0.950 . S
H369 C381 0.950 . S
H370 C378 0.950 . S
H371 C380 0.950 . S
H372 C382 0.950 . S
H373 C384 0.950 . S
H374 C386 0.950 . S
H375 C387 0.950 . S
C376 H368 0.950 . S
C376 C377 1.386 . S
C376 C378 1.391 . S
C377 C376 1.386 . S
C377 C381 1.393 . S
C378 H370 0.950 . S
C378 C376 1.391 . S
C378 C379 1.400 . S
C379 C378 1.400 . S
C379 C380 1.398 . S
C379 C385 1.491 . S
C380 H371 0.950 . S
C380 C379 1.398 . S
C380 C381 1.391 . S
C381 H369 0.950 . S
C381 C377 1.393 . S
C381 C380 1.391 . S
C382 H372 0.950 . S
C382 C383 1.386 . S
C382 C384 1.391 . S
C383 C382 1.386 . S
C383 C387 1.393 . S
C384 H373 0.950 . S
C384 C382 1.391 . S
C384 C385 1.400 . S
C385 C379 1.491 . S
C385 C384 1.400 . S
C385 C386 1.398 . S
C386 H374 0.950 . S
C386 C385 1.398 . S
C386 C387 1.391 . S
C387 H375 0.950 . S
C387 C383 1.393 . S
C387 C386 1.391 . S
H388 C396 0.950 . S
H389 C401 0.950 . S
H390 C398 0.950 . S
H391 C400 0.950 . S
H392 C402 0.950 . S
H393 C404 0.950 . S
H394 C406 0.950 . S
H395 C407 0.950 . S
C396 H388 0.950 . S
C396 C397 1.386 . S
C396 C398 1.391 . S
C397 C396 1.386 . S
C397 C401 1.393 . S
C398 H390 0.950 . S
C398 C396 1.391 . S
C398 C399 1.400 . S
C399 C398 1.400 . S
C399 C400 1.398 . S
C399 C405 1.491 . S
C400 H391 0.950 . S
C400 C399 1.398 . S
C400 C401 1.391 . S
C401 H389 0.950 . S
C401 C397 1.393 . S
C401 C400 1.391 . S
C402 H392 0.950 . S
C402 C403 1.386 . S
C402 C404 1.391 . S
C403 C402 1.386 . S
C403 C407 1.393 . S
C404 H393 0.950 . S
C404 C402 1.391 . S
C404 C405 1.400 . S
C405 C399 1.491 . S
C405 C404 1.400 . S
C405 C406 1.398 . S
C406 H394 0.950 . S
C406 C405 1.398 . S
C406 C407 1.391 . S
C407 H395 0.950 . S
C407 C403 1.393 . S
C407 C406 1.391 . S
H408 C416 0.950 . S
H409 C421 0.950 . S
H410 C418 0.950 . S
H411 C420 0.950 . S
H412 C422 0.950 . S
H413 C424 0.950 . S
H414 C426 0.950 . S
H415 C427 0.950 . S
C416 H408 0.950 . S
C416 C417 1.386 . S
C416 C418 1.391 . S
C417 C416 1.386 . S
C417 C421 1.393 . S
C418 H410 0.950 . S
C418 C416 1.391 . S
C418 C419 1.400 . S
C419 C418 1.400 . S
C419 C420 1.398 . S
C419 C425 1.491 . S
C420 H411 0.950 . S
C420 C419 1.398 . S
C420 C421 1.391 . S
C421 H409 0.950 . S
C421 C417 1.393 . S
C421 C420 1.391 . S
C422 H412 0.950 . S
C422 C423 1.386 . S
C422 C424 1.391 . S
C423 C422 1.386 . S
C423 C427 1.393 . S
C424 H413 0.950 . S
C424 C422 1.391 . S
C424 C425 1.400 . S
C425 C419 1.491 . S
C425 C424 1.400 . S
C425 C426 1.398 . S
C426 H414 0.950 . S
C426 C425 1.398 . S
C426 C427 1.391 . S
C427 H415 0.950 . S
C427 C423 1.393 . S
C427 C426 1.391 . S
H428 C436 0.950 . S
H429 C441 0.950 . S
H430 C438 0.950 1_455 S
H431 C440 0.950 1_554 S
H432 C442 0.950 . S
H433 C444 0.950 1_655 S
H434 C446 0.950 1_556 S
H435 C447 0.950 . S
C436 H428 0.950 . S
C436 C437 1.386 . S
C436 C438 1.391 . S
C437 C436 1.386 . S
C437 C441 1.393 . S
C438 H430 0.950 1_655 S
C438 C436 1.391 . S
C438 C439 1.400 . S
C439 C438 1.400 . S
C439 C440 1.398 . S
C439 C445 1.491 1_656 S
C440 H431 0.950 1_556 S
C440 C439 1.398 . S
C440 C441 1.391 . S
C441 H429 0.950 . S
C441 C437 1.393 . S
C441 C440 1.391 . S
C442 H432 0.950 . S
C442 C443 1.386 . S
C442 C444 1.391 . S
C443 C442 1.386 . S
C443 C447 1.393 . S
C444 H433 0.950 1_455 S
C444 C442 1.391 . S
C444 C445 1.400 . S
C445 C439 1.491 1_454 S
C445 C444 1.400 . S
C445 C446 1.398 . S
C446 H434 0.950 1_554 S
C446 C445 1.398 . S
C446 C447 1.391 . S
C447 H435 0.950 . S
C447 C443 1.393 . S
C447 C446 1.391 . S
H448 C456 0.950 . S
H449 C461 0.950 . S
H450 C458 0.950 . S
H451 C460 0.950 . S
H452 C462 0.950 . S
H453 C464 0.950 . S
H454 C466 0.950 . S
H455 C467 0.950 . S
C456 H448 0.950 . S
C456 C457 1.386 . S
C456 C458 1.391 . S
C457 C456 1.386 . S
C457 C461 1.393 . S
C458 H450 0.950 . S
C458 C456 1.391 . S
C458 C459 1.400 . S
C459 C458 1.400 . S
C459 C460 1.398 . S
C459 C465 1.491 . S
C460 H451 0.950 . S
C460 C459 1.398 . S
C460 C461 1.391 . S
C461 H449 0.950 . S
C461 C457 1.393 . S
C461 C460 1.391 . S
C462 H452 0.950 . S
C462 C463 1.386 . S
C462 C464 1.391 . S
C463 C462 1.386 . S
C463 C467 1.393 . S
C464 H453 0.950 . S
C464 C462 1.391 . S
C464 C465 1.400 . S
C465 C459 1.491 . S
C465 C464 1.400 . S
C465 C466 1.398 . S
C466 H454 0.950 . S
C466 C465 1.398 . S
C466 C467 1.391 . S
C467 H455 0.950 . S
C467 C463 1.393 . S
C467 C466 1.391 . S
H468 C476 0.950 . S
H469 C481 0.950 . S
H470 C478 0.950 . S
H471 C480 0.950 . S
H472 C482 0.950 . S
H473 C484 0.950 . S
H474 C486 0.950 . S
H475 C487 0.950 . S
C476 H468 0.950 . S
C476 C477 1.386 . S
C476 C478 1.391 . S
C477 C476 1.386 . S
C477 C481 1.393 . S
C478 H470 0.950 . S
C478 C476 1.391 . S
C478 C479 1.400 . S
C479 C478 1.400 . S
C479 C480 1.398 . S
C479 C485 1.491 . S
C480 H471 0.950 . S
C480 C479 1.398 . S
C480 C481 1.391 . S
C481 H469 0.950 . S
C481 C477 1.393 . S
C481 C480 1.391 . S
C482 H472 0.950 . S
C482 C483 1.386 . S
C482 C484 1.391 . S
C483 C482 1.386 . S
C483 C487 1.393 . S
C484 H473 0.950 . S
C484 C482 1.391 . S
C484 C485 1.400 . S
C485 C479 1.491 . S
C485 C484 1.400 . S
C485 C486 1.398 . S
C486 H474 0.950 . S
C486 C485 1.398 . S
C486 C487 1.391 . S
C487 H475 0.950 . S
C487 C483 1.393 . S
C487 C486 1.391 . S
H488 C496 0.950 . S
H489 C501 0.950 1_455 S
H490 C498 0.950 1_556 S
H491 C500 0.950 . S
H492 C502 0.950 . S
H493 C504 0.950 1_554 S
H494 C506 0.950 . S
H495 C507 0.950 1_655 S
C496 H488 0.950 . S
C496 C497 1.386 . S
C496 C498 1.391 . S
C497 C496 1.386 . S
C497 C501 1.393 . S
C498 H490 0.950 1_554 S
C498 C496 1.391 . S
C498 C499 1.400 . S
C499 C498 1.400 . S
C499 C500 1.398 1_655 S
C499 C505 1.491 1_664 S
C500 H491 0.950 . S
C500 C499 1.398 1_455 S
C500 C501 1.391 1_455 S
C501 H489 0.950 1_655 S
C501 C497 1.393 . S
C501 C500 1.391 1_655 S
C502 H492 0.950 . S
C502 C503 1.386 . S
C502 C504 1.391 . S
C503 C502 1.386 . S
C503 C507 1.393 . S
C504 H493 0.950 1_556 S
C504 C502 1.391 . S
C504 C505 1.400 . S
C505 C499 1.491 1_446 S
C505 C504 1.400 . S
C505 C506 1.398 1_455 S
C506 H494 0.950 . S
C506 C505 1.398 1_655 S
C506 C507 1.391 1_655 S
C507 H495 0.950 1_455 S
C507 C503 1.393 . S
C507 C506 1.391 1_455 S
H508 C516 0.950 . S
H509 C521 0.950 . S
H510 C518 0.950 . S
H511 C520 0.950 . S
H512 C522 0.950 . S
H513 C524 0.950 . S
H514 C526 0.950 . S
H515 C527 0.950 . S
C516 H508 0.950 . S
C516 C517 1.386 . S
C516 C518 1.391 . S
C517 C516 1.386 . S
C517 C521 1.393 . S
C518 H510 0.950 . S
C518 C516 1.391 . S
C518 C519 1.400 . S
C519 C518 1.400 . S
C519 C520 1.398 . S
C519 C525 1.491 1_565 S
C520 H511 0.950 . S
C520 C519 1.398 . S
C520 C521 1.391 . S
C521 H509 0.950 . S
C521 C517 1.393 . S
C521 C520 1.391 . S
C522 H512 0.950 . S
C522 C523 1.386 . S
C522 C524 1.391 . S
C523 C522 1.386 . S
C523 C527 1.393 . S
C524 H513 0.950 . S
C524 C522 1.391 . S
C524 C525 1.400 . S
C525 C519 1.491 1_545 S
C525 C524 1.400 . S
C525 C526 1.398 . S
C526 H514 0.950 . S
C526 C525 1.398 . S
C526 C527 1.391 . S
C527 H515 0.950 . S
C527 C523 1.393 . S
C527 C526 1.391 . S
H528 C536 0.950 . S
H529 C541 0.950 . S
H530 C538 0.950 . S
H531 C540 0.950 . S
H532 C542 0.950 . S
H533 C544 0.950 . S
H534 C546 0.989 . S
H535 C547 0.950 . S
C536 H528 0.950 . S
C536 C537 1.386 . S
C536 C538 1.391 . S
C537 C536 1.386 . S
C537 C541 1.393 . S
C538 H530 0.950 . S
C538 C536 1.391 . S
C538 C539 1.400 . S
C539 C538 1.400 . S
C539 C540 1.398 . S
C539 C545 1.491 . S
C540 H531 0.950 . S
C540 C539 1.398 . S
C540 C541 1.391 . S
C541 H529 0.950 . S
C541 C537 1.393 . S
C541 C540 1.391 . S
C542 H532 0.950 . S
C542 C543 1.386 . S
C542 C544 1.391 . S
C543 C542 1.386 . S
C543 C547 1.393 . S
C544 H533 0.950 . S
C544 C542 1.391 . S
C544 C545 1.400 1_554 S
C545 C539 1.491 . S
C545 C544 1.400 1_556 S
C545 C546 1.401 . S
C546 H534 0.989 . S
C546 C545 1.401 . S
C546 C547 1.351 1_556 S
C547 H535 0.950 . S
C547 C543 1.393 . S
C547 C546 1.351 1_554 S
H548 C556 0.950 . S
H549 C561 0.950 . S
H550 C558 0.950 . S
H551 C560 0.950 . S
H552 C562 0.950 . S
H553 C564 0.950 . S
H554 C566 0.950 . S
H555 C567 0.950 . S
C556 H548 0.950 . S
C556 C557 1.386 . S
C556 C558 1.391 . S
C557 C556 1.386 . S
C557 C561 1.393 . S
C558 H550 0.950 . S
C558 C556 1.391 . S
C558 C559 1.400 . S
C559 C558 1.400 . S
C559 C560 1.398 . S
C559 C565 1.491 . S
C560 H551 0.950 . S
C560 C559 1.398 . S
C560 C561 1.391 . S
C561 H549 0.950 . S
C561 C557 1.393 . S
C561 C560 1.391 . S
C562 H552 0.950 . S
C562 C563 1.386 . S
C562 C564 1.391 . S
C563 C562 1.386 . S
C563 C567 1.393 . S
C564 H553 0.950 . S
C564 C562 1.391 . S
C564 C565 1.400 . S
C565 C559 1.491 . S
C565 C564 1.400 . S
C565 C566 1.398 . S
C566 H554 0.950 . S
C566 C565 1.398 . S
C566 C567 1.391 . S
C567 H555 0.950 . S
C567 C563 1.393 . S
C567 C566 1.391 . S
H568 C576 0.950 . S
H569 C581 0.950 . S
H570 C578 0.950 . S
H571 C580 0.950 . S
H572 C582 0.950 . S
H573 C584 0.950 . S
H574 C586 0.950 . S
H575 C587 0.950 . S
C576 H568 0.950 . S
C576 C577 1.386 . S
C576 C578 1.391 . S
C577 C576 1.386 . S
C577 C581 1.393 . S
C578 H570 0.950 . S
C578 C576 1.391 . S
C578 C579 1.400 . S
C579 C578 1.400 . S
C579 C580 1.398 . S
C579 C585 1.491 . S
C580 H571 0.950 . S
C580 C579 1.398 . S
C580 C581 1.391 . S
C581 H569 0.950 . S
C581 C577 1.393 . S
C581 C580 1.391 . S
C582 H572 0.950 . S
C582 C583 1.386 . S
C582 C584 1.391 . S
C583 C582 1.386 . S
C583 C587 1.393 . S
C584 H573 0.950 . S
C584 C582 1.391 . S
C584 C585 1.400 . S
C585 C579 1.491 . S
C585 C584 1.400 . S
C585 C586 1.398 . S
C586 H574 0.950 . S
C586 C585 1.398 . S
C586 C587 1.391 . S
C587 H575 0.950 . S
C587 C583 1.393 . S
C587 C586 1.391 . S
H588 C596 0.950 . S
H589 C601 0.950 . S
H590 C598 0.950 . S
H591 C600 0.950 . S
H592 C602 0.950 . S
H593 C604 0.950 . S
H594 C606 0.950 . S
H595 C607 0.950 . S
C596 H588 0.950 . S
C596 C597 1.386 . S
C596 C598 1.391 . S
C597 C596 1.386 . S
C597 C601 1.393 . S
C598 H590 0.950 . S
C598 C596 1.391 . S
C598 C599 1.400 . S
C599 C598 1.400 . S
C599 C600 1.398 . S
C599 C605 1.491 . S
C600 H591 0.950 . S
C600 C599 1.398 . S
C600 C601 1.391 . S
C601 H589 0.950 . S
C601 C597 1.393 . S
C601 C600 1.391 . S
C602 H592 0.950 . S
C602 C603 1.386 . S
C602 C604 1.391 . S
C603 C602 1.386 . S
C603 C607 1.393 . S
C604 H593 0.950 . S
C604 C602 1.391 . S
C604 C605 1.400 . S
C605 C599 1.491 . S
C605 C604 1.400 . S
C605 C606 1.398 . S
C606 H594 0.950 . S
C606 C605 1.398 . S
C606 C607 1.391 . S
C607 H595 0.950 . S
C607 C603 1.393 . S
C607 C606 1.391 . S
H608 C616 0.950 . S
H609 C621 0.950 . S
H610 C618 0.950 . S
H611 C620 0.950 . S
H612 C622 0.950 . S
H613 C624 0.915 1_554 S
H614 C626 0.950 . S
H615 C627 0.950 . S
C616 H608 0.950 . S
C616 C617 1.386 . S
C616 C618 1.391 . S
C617 C616 1.386 . S
C617 C621 1.393 . S
C618 H610 0.950 . S
C618 C616 1.391 . S
C618 C619 1.400 . S
C619 C618 1.400 . S
C619 C620 1.398 . S
C619 C625 1.491 . S
C620 H611 0.950 . S
C620 C619 1.398 . S
C620 C621 1.391 . S
C621 H609 0.950 . S
C621 C617 1.393 . S
C621 C620 1.391 . S
C622 H612 0.950 . S
C622 C623 1.386 . S
C622 C624 1.431 . S
C623 C622 1.386 . S
C623 C627 1.393 . S
C624 H613 0.915 1_556 S
C624 C622 1.431 . S
C624 C625 1.396 1_556 S
C625 C619 1.491 . S
C625 C624 1.396 1_554 S
C625 C626 1.398 1_554 S
C626 H614 0.950 . S
C626 C625 1.398 1_556 S
C626 C627 1.391 . S
C627 H615 0.950 . S
C627 C623 1.393 . S
C627 C626 1.391 . S
H628 C636 0.950 . S
H629 C641 0.950 . S
H630 C638 0.950 . S
H631 C640 0.950 . S
H632 C642 0.950 . S
H633 C644 0.950 . S
H634 C646 0.950 . S
H635 C647 0.950 . S
C636 H628 0.950 . S
C636 C637 1.386 . S
C636 C638 1.391 . S
C637 C636 1.386 . S
C637 C641 1.393 . S
C638 H630 0.950 . S
C638 C636 1.391 . S
C638 C639 1.400 . S
C639 C638 1.400 . S
C639 C640 1.398 . S
C639 C645 1.491 . S
C640 H631 0.950 . S
C640 C639 1.398 . S
C640 C641 1.391 . S
C641 H629 0.950 . S
C641 C637 1.393 . S
C641 C640 1.391 . S
C642 H632 0.950 . S
C642 C643 1.386 . S
C642 C644 1.391 . S
C643 C642 1.386 . S
C643 C647 1.393 . S
C644 H633 0.950 . S
C644 C642 1.391 . S
C644 C645 1.400 . S
C645 C639 1.491 . S
C645 C644 1.400 . S
C645 C646 1.398 . S
C646 H634 0.950 . S
C646 C645 1.398 . S
C646 C647 1.391 . S
C647 H635 0.950 . S
C647 C643 1.393 . S
C647 C646 1.391 . S
H648 C656 0.950 . S
H649 C661 0.950 . S
H650 C658 0.950 . S
H651 C660 0.950 . S
H652 C662 0.950 . S
H653 C664 0.950 . S
H654 C666 0.950 . S
H655 C667 0.950 . S
C656 H648 0.950 . S
C656 C657 1.386 . S
C656 C658 1.391 . S
C657 C656 1.386 . S
C657 C661 1.393 . S
C658 H650 0.950 . S
C658 C656 1.391 . S
C658 C659 1.400 . S
C659 C658 1.400 . S
C659 C660 1.398 . S
C659 C665 1.491 . S
C660 H651 0.950 . S
C660 C659 1.398 . S
C660 C661 1.391 . S
C661 H649 0.950 . S
C661 C657 1.393 . S
C661 C660 1.391 . S
C662 H652 0.950 . S
C662 C663 1.386 . S
C662 C664 1.391 . S
C663 C662 1.386 . S
C663 C667 1.393 . S
C664 H653 0.950 . S
C664 C662 1.391 . S
C664 C665 1.400 . S
C665 C659 1.491 . S
C665 C664 1.400 . S
C665 C666 1.398 . S
C666 H654 0.950 . S
C666 C665 1.398 . S
C666 C667 1.391 . S
C667 H655 0.950 . S
C667 C663 1.393 . S
C667 C666 1.391 . S
H668 C676 0.950 . S
H669 C681 0.950 . S
H670 C678 0.950 . S
H671 C680 0.950 . S
H672 C682 0.950 . S
H673 C684 0.950 . S
H674 C686 0.950 . S
H675 C687 0.950 . S
C676 H668 0.950 . S
C676 C677 1.386 . S
C676 C678 1.391 . S
C677 C676 1.386 . S
C677 C681 1.393 . S
C678 H670 0.950 . S
C678 C676 1.391 . S
C678 C679 1.400 . S
C679 C678 1.400 . S
C679 C680 1.398 . S
C679 C685 1.491 . S
C680 H671 0.950 . S
C680 C679 1.398 . S
C680 C681 1.391 . S
C681 H669 0.950 . S
C681 C677 1.393 . S
C681 C680 1.391 . S
C682 H672 0.950 . S
C682 C683 1.386 . S
C682 C684 1.391 . S
C683 C682 1.386 . S
C683 C687 1.393 . S
C684 H673 0.950 . S
C684 C682 1.391 . S
C684 C685 1.400 . S
C685 C679 1.491 . S
C685 C684 1.400 . S
C685 C686 1.398 . S
C686 H674 0.950 . S
C686 C685 1.398 . S
C686 C687 1.391 . S
C687 H675 0.950 . S
C687 C683 1.393 . S
C687 C686 1.391 . S
H688 C696 0.950 . S
H689 C701 0.950 . S
H690 C698 0.950 . S
H691 C700 0.950 . S
H692 C702 0.950 . S
H693 C704 0.950 . S
H694 C706 0.950 . S
H695 C707 0.950 . S
C696 H688 0.950 . S
C696 C697 1.386 . S
C696 C698 1.391 . S
C697 C696 1.386 . S
C697 C701 1.393 . S
C698 H690 0.950 . S
C698 C696 1.391 . S
C698 C699 1.400 . S
C699 C698 1.400 . S
C699 C700 1.398 . S
C699 C705 1.491 . S
C700 H691 0.950 . S
C700 C699 1.398 . S
C700 C701 1.391 . S
C701 H689 0.950 . S
C701 C697 1.393 . S
C701 C700 1.391 . S
C702 H692 0.950 . S
C702 C703 1.386 . S
C702 C704 1.391 . S
C703 C702 1.386 . S
C703 C707 1.393 . S
C704 H693 0.950 . S
C704 C702 1.391 . S
C704 C705 1.400 . S
C705 C699 1.491 . S
C705 C704 1.400 . S
C705 C706 1.398 . S
C706 H694 0.950 . S
C706 C705 1.398 . S
C706 C707 1.391 . S
C707 H695 0.950 . S
C707 C703 1.393 . S
C707 C706 1.391 . S
H708 C716 0.950 . S
H709 C721 0.950 . S
H710 C718 0.950 . S
H711 C720 0.950 . S
H712 C722 0.950 . S
H713 C724 0.950 . S
H714 C726 0.950 1_545 S
H715 C727 0.950 . S
C716 H708 0.950 . S
C716 C717 1.386 . S
C716 C718 1.391 . S
C717 C716 1.386 . S
C717 C721 1.393 . S
C718 H710 0.950 . S
C718 C716 1.391 . S
C718 C719 1.400 . S
C719 C718 1.400 . S
C719 C720 1.398 1_545 S
C719 C725 1.491 1_545 S
C720 H711 0.950 . S
C720 C719 1.398 1_565 S
C720 C721 1.391 1_565 S
C721 H709 0.950 . S
C721 C717 1.393 . S
C721 C720 1.391 1_545 S
C722 H712 0.950 . S
C722 C723 1.386 . S
C722 C724 1.391 . S
C723 C722 1.386 . S
C723 C727 1.393 . S
C724 H713 0.950 . S
C724 C722 1.391 . S
C724 C725 1.400 . S
C725 C719 1.491 1_565 S
C725 C724 1.400 . S
C725 C726 1.398 . S
C726 H714 0.950 1_565 S
C726 C725 1.398 . S
C726 C727 1.391 . S
C727 H715 0.950 . S
C727 C723 1.393 . S
C727 C726 1.391 . S
H728 C736 0.950 . S
H729 C741 0.950 . S
H730 C738 0.950 1_556 S
H731 C740 0.950 . S
H732 C742 0.950 . S
H733 C744 0.950 . S
H734 C746 0.950 . S
H735 C747 0.950 . S
C736 H728 0.950 . S
C736 C737 1.386 . S
C736 C738 1.391 . S
C737 C736 1.386 . S
C737 C741 1.393 . S
C738 H730 0.950 1_554 S
C738 C736 1.391 . S
C738 C739 1.400 1_554 S
C739 C738 1.400 1_556 S
C739 C740 1.398 1_556 S
C739 C745 1.491 . S
C740 H731 0.950 . S
C740 C739 1.398 1_554 S
C740 C741 1.391 . S
C741 H729 0.950 . S
C741 C737 1.393 . S
C741 C740 1.391 . S
C742 H732 0.950 . S
C742 C743 1.386 . S
C742 C744 1.391 . S
C743 C742 1.386 . S
C743 C747 1.393 . S
C744 H733 0.950 . S
C744 C742 1.391 . S
C744 C745 1.400 . S
C745 C739 1.491 . S
C745 C744 1.400 . S
C745 C746 1.398 . S
C746 H734 0.950 . S
C746 C745 1.398 . S
C746 C747 1.391 . S
C747 H735 0.950 . S
C747 C743 1.393 . S
C747 C746 1.391 . S
H748 C756 0.950 . S
H749 C761 0.950 . S
H750 C758 0.950 . S
H751 C760 0.950 . S
H752 C762 0.950 . S
H753 C764 0.950 . S
H754 C766 0.950 . S
H755 C767 0.950 . S
C756 H748 0.950 . S
C756 C757 1.386 . S
C756 C758 1.391 . S
C757 C756 1.386 . S
C757 C761 1.393 . S
C758 H750 0.950 . S
C758 C756 1.391 . S
C758 C759 1.400 . S
C759 C758 1.400 . S
C759 C760 1.398 . S
C759 C765 1.491 1_545 S
C760 H751 0.950 . S
C760 C759 1.398 . S
C760 C761 1.391 . S
C761 H749 0.950 . S
C761 C757 1.393 . S
C761 C760 1.391 . S
C762 H752 0.950 . S
C762 C763 1.386 . S
C762 C764 1.391 . S
C763 C762 1.386 . S
C763 C767 1.393 . S
C764 H753 0.950 . S
C764 C762 1.391 . S
C764 C765 1.400 . S
C765 C759 1.491 1_565 S
C765 C764 1.400 . S
C765 C766 1.398 . S
C766 H754 0.950 . S
C766 C765 1.398 . S
C766 C767 1.391 . S
C767 H755 0.950 . S
C767 C763 1.393 . S
C767 C766 1.391 . S
H768 C776 0.950 . S
H769 C781 0.950 . S
H770 C778 0.950 . S
H771 C780 0.950 . S
H772 C782 0.950 . S
H773 C784 0.950 . S
H774 C786 0.950 . S
H775 C787 0.950 . S
C776 H768 0.950 . S
C776 C777 1.386 . S
C776 C778 1.391 . S
C777 C776 1.386 . S
C777 C781 1.393 . S
C778 H770 0.950 . S
C778 C776 1.391 . S
C778 C779 1.400 . S
C779 C778 1.400 . S
C779 C780 1.398 . S
C779 C785 1.491 . S
C780 H771 0.950 . S
C780 C779 1.398 . S
C780 C781 1.391 . S
C781 H769 0.950 . S
C781 C777 1.393 . S
C781 C780 1.391 . S
C782 H772 0.950 . S
C782 C783 1.386 . S
C782 C784 1.391 . S
C783 C782 1.386 . S
C783 C787 1.393 . S
C784 H773 0.950 . S
C784 C782 1.391 . S
C784 C785 1.400 . S
C785 C779 1.491 . S
C785 C784 1.400 . S
C785 C786 1.398 . S
C786 H774 0.950 . S
C786 C785 1.398 . S
C786 C787 1.391 . S
C787 H775 0.950 . S
C787 C783 1.393 . S
C787 C786 1.391 . S
H788 C796 0.950 1_545 S
H789 C801 0.950 . S
H790 C798 0.950 . S
H791 C800 0.950 . S
H792 C802 0.950 . S
H793 C804 0.951 1_565 S
H794 C806 0.950 . S
H795 C807 0.950 . S
C796 H788 0.950 1_565 S
C796 C797 1.386 . S
C796 C798 1.391 1_565 S
C797 C796 1.386 . S
C797 C801 1.393 . S
C798 H790 0.950 . S
C798 C796 1.391 1_545 S
C798 C799 1.400 1_545 S
C799 C798 1.400 1_565 S
C799 C800 1.398 . S
C799 C805 1.491 1_565 S
C800 H791 0.950 . S
C800 C799 1.398 . S
C800 C801 1.391 . S
C801 H789 0.950 . S
C801 C797 1.393 . S
C801 C800 1.391 . S
C802 H792 0.950 . S
C802 C803 1.386 . S
C802 C804 1.391 . S
C803 C802 1.386 . S
C803 C807 1.393 . S
C804 H793 0.951 1_545 S
C804 C802 1.391 . S
C804 C805 1.400 . S
C805 C799 1.491 1_545 S
C805 C804 1.400 . S
C805 C806 1.398 . S
C806 H794 0.950 . S
C806 C805 1.398 . S
C806 C807 1.391 . S
C807 H795 0.950 . S
C807 C803 1.393 . S
C807 C806 1.391 . S
H808 C816 0.950 . S
H809 C821 0.950 . S
H810 C818 0.950 . S
H811 C820 0.950 . S
H812 C822 0.950 . S
H813 C824 0.950 . S
H814 C826 0.984 . S
H815 C827 0.950 . S
C816 H808 0.950 . S
C816 C817 1.386 . S
C816 C818 1.391 . S
C817 C816 1.386 . S
C817 C821 1.393 . S
C818 H810 0.950 . S
C818 C816 1.391 . S
C818 C819 1.400 . S
C819 C818 1.400 . S
C819 C820 1.398 . S
C819 C825 1.491 . S
C820 H811 0.950 . S
C820 C819 1.398 . S
C820 C821 1.391 . S
C821 H809 0.950 . S
C821 C817 1.393 . S
C821 C820 1.391 . S
C822 H812 0.950 . S
C822 C823 1.386 . S
C822 C824 1.391 . S
C823 C822 1.386 . S
C823 C827 1.393 . S
C824 H813 0.950 . S
C824 C822 1.391 . S
C824 C825 1.400 1_556 S
C825 C819 1.491 . S
C825 C824 1.400 1_554 S
C825 C826 1.401 . S
C826 H814 0.984 . S
C826 C825 1.401 . S
C826 C827 1.356 1_554 S
C827 H815 0.950 . S
C827 C823 1.393 . S
C827 C826 1.356 1_556 S
H828 C836 0.950 . S
H829 C841 0.958 . S
H830 C838 0.950 . S
H831 C840 0.950 . S
H832 C842 0.950 . S
H833 C844 0.950 . S
H834 C846 0.950 1_545 S
H835 C847 0.950 . S
C836 H828 0.950 . S
C836 C837 1.386 . S
C836 C838 1.391 . S
C837 C836 1.386 . S
C837 C841 1.393 . S
C838 H830 0.950 . S
C838 C836 1.391 . S
C838 C839 1.400 . S
C839 C838 1.400 . S
C839 C840 1.398 1_545 S
C839 C845 1.491 1_545 S
C840 H831 0.950 . S
C840 C839 1.398 1_565 S
C840 C841 1.391 1_565 S
C841 H829 0.958 . S
C841 C837 1.393 . S
C841 C840 1.391 1_545 S
C842 H832 0.950 . S
C842 C843 1.386 . S
C842 C844 1.391 . S
C843 C842 1.386 . S
C843 C847 1.393 . S
C844 H833 0.950 . S
C844 C842 1.391 . S
C844 C845 1.400 . S
C845 C839 1.491 1_565 S
C845 C844 1.400 . S
C845 C846 1.398 . S
C846 H834 0.950 1_565 S
C846 C845 1.398 . S
C846 C847 1.391 . S
C847 H835 0.950 . S
C847 C843 1.393 . S
C847 C846 1.391 . S
H848 C856 0.950 . S
H849 C861 0.950 . S
H850 C858 0.950 . S
H851 C860 0.950 . S
H852 C862 0.950 . S
H853 C864 0.950 . S
H854 C866 0.950 . S
H855 C867 0.950 . S
C856 H848 0.950 . S
C856 C857 1.386 . S
C856 C858 1.391 . S
C857 C856 1.386 . S
C857 C861 1.393 . S
C858 H850 0.950 . S
C858 C856 1.391 . S
C858 C859 1.400 . S
C859 C858 1.400 . S
C859 C860 1.398 . S
C859 C865 1.491 . S
C860 H851 0.950 . S
C860 C859 1.398 . S
C860 C861 1.391 . S
C861 H849 0.950 . S
C861 C857 1.393 . S
C861 C860 1.391 . S
C862 H852 0.950 . S
C862 C863 1.386 . S
C862 C864 1.391 . S
C863 C862 1.386 . S
C863 C867 1.393 . S
C864 H853 0.950 . S
C864 C862 1.391 . S
C864 C865 1.400 . S
C865 C859 1.491 . S
C865 C864 1.400 . S
C865 C866 1.398 . S
C866 H854 0.950 . S
C866 C865 1.398 . S
C866 C867 1.391 . S
C867 H855 0.950 . S
C867 C863 1.393 . S
C867 C866 1.391 . S
H868 C876 0.950 . S
H869 C881 0.950 . S
H870 C878 0.950 . S
H871 C880 0.950 . S
H872 C882 0.950 . S
H873 C884 0.950 . S
H874 C886 0.950 . S
H875 C887 0.950 . S
C876 H868 0.950 . S
C876 C877 1.386 . S
C876 C878 1.391 . S
C877 C876 1.386 . S
C877 C881 1.393 . S
C878 H870 0.950 . S
C878 C876 1.391 . S
C878 C879 1.400 . S
C879 C878 1.400 . S
C879 C880 1.398 . S
C879 C885 1.491 . S
C880 H871 0.950 . S
C880 C879 1.398 . S
C880 C881 1.391 . S
C881 H869 0.950 . S
C881 C877 1.393 . S
C881 C880 1.391 . S
C882 H872 0.950 . S
C882 C883 1.386 . S
C882 C884 1.391 . S
C883 C882 1.386 . S
C883 C887 1.393 . S
C884 H873 0.950 . S
C884 C882 1.391 . S
C884 C885 1.400 . S
C885 C879 1.491 . S
C885 C884 1.400 . S
C885 C886 1.398 . S
C886 H874 0.950 . S
C886 C885 1.398 . S
C886 C887 1.391 . S
C887 H875 0.950 . S
C887 C883 1.393 . S
C887 C886 1.391 . S
H888 C896 0.950 . S
H889 C901 0.950 . S
H890 C898 0.950 1_455 S
H891 C900 0.950 . S
H892 C902 0.950 . S
H893 C904 0.950 1_655 S
H894 C906 0.950 . S
H895 C907 0.950 . S
C896 H888 0.950 . S
C896 C897 1.386 . S
C896 C898 1.391 . S
C897 C896 1.386 . S
C897 C901 1.393 . S
C898 H890 0.950 1_655 S
C898 C896 1.391 . S
C898 C899 1.400 . S
C899 C898 1.400 . S
C899 C900 1.398 . S
C899 C905 1.491 1_655 S
C900 H891 0.950 . S
C900 C899 1.398 . S
C900 C901 1.391 . S
C901 H889 0.950 . S
C901 C897 1.393 . S
C901 C900 1.391 . S
C902 H892 0.950 . S
C902 C903 1.386 . S
C902 C904 1.391 . S
C903 C902 1.386 . S
C903 C907 1.393 . S
C904 H893 0.950 1_455 S
C904 C902 1.391 . S
C904 C905 1.400 . S
C905 C899 1.491 1_455 S
C905 C904 1.400 . S
C905 C906 1.398 . S
C906 H894 0.950 . S
C906 C905 1.398 . S
C906 C907 1.391 . S
C907 H895 0.950 . S
C907 C903 1.393 . S
C907 C906 1.391 . S
H908 C916 0.950 . S
H909 C921 0.950 . S
H910 C918 0.950 . S
H911 C920 0.950 . S
H912 C922 0.950 . S
H913 C924 0.950 . S
H914 C926 0.950 . S
H915 C927 0.950 . S
C916 H908 0.950 . S
C916 C917 1.386 . S
C916 C918 1.391 1_655 S
C917 C916 1.386 . S
C917 C921 1.393 . S
C918 H910 0.950 . S
C918 C916 1.391 1_455 S
C918 C919 1.400 1_455 S
C919 C918 1.400 1_655 S
C919 C920 1.398 . S
C919 C925 1.491 1_655 S
C920 H911 0.950 . S
C920 C919 1.398 . S
C920 C921 1.391 . S
C921 H909 0.950 . S
C921 C917 1.393 . S
C921 C920 1.391 . S
C922 H912 0.950 . S
C922 C923 1.386 . S
C922 C924 1.391 1_455 S
C923 C922 1.386 . S
C923 C927 1.393 . S
C924 H913 0.950 . S
C924 C922 1.391 1_655 S
C924 C925 1.400 1_655 S
C925 C919 1.491 1_455 S
C925 C924 1.400 1_455 S
C925 C926 1.398 . S
C926 H914 0.950 . S
C926 C925 1.398 . S
C926 C927 1.391 . S
C927 H915 0.950 . S
C927 C923 1.393 . S
C927 C926 1.391 . S
H928 C936 0.950 . S
H929 C941 0.950 . S
H930 C938 0.950 . S
H931 C940 0.950 . S
H932 C942 0.950 . S
H933 C944 0.950 . S
H934 C946 0.950 . S
H935 C947 0.950 . S
C936 H928 0.950 . S
C936 C937 1.386 . S
C936 C938 1.391 . S
C937 C936 1.386 . S
C937 C941 1.393 . S
C938 H930 0.950 . S
C938 C936 1.391 . S
C938 C939 1.400 . S
C939 C938 1.400 . S
C939 C940 1.398 . S
C939 C945 1.491 . S
C940 H931 0.950 . S
C940 C939 1.398 . S
C940 C941 1.391 . S
C941 H929 0.950 . S
C941 C937 1.393 . S
C941 C940 1.391 . S
C942 H932 0.950 . S
C942 C943 1.386 . S
C942 C944 1.391 . S
C943 C942 1.386 . S
C943 C947 1.393 . S
C944 H933 0.950 . S
C944 C942 1.391 . S
C944 C945 1.400 . S
C945 C939 1.491 . S
C945 C944 1.400 . S
C945 C946 1.398 . S
C946 H934 0.950 . S
C946 C945 1.398 . S
C946 C947 1.391 . S
C947 H935 0.950 . S
C947 C943 1.393 . S
C947 C946 1.391 . S
H948 C956 0.950 . S
H949 C961 0.950 . S
H950 C958 0.950 . S
H951 C960 0.950 . S
H952 C962 0.950 . S
H953 C964 0.950 . S
H954 C966 0.950 . S
H955 C967 0.950 . S
C956 H948 0.950 . S
C956 C957 1.386 . S
C956 C958 1.391 . S
C957 C956 1.386 . S
C957 C961 1.393 . S
C958 H950 0.950 . S
C958 C956 1.391 . S
C958 C959 1.400 . S
C959 C958 1.400 . S
C959 C960 1.398 . S
C959 C965 1.491 . S
C960 H951 0.950 . S
C960 C959 1.398 . S
C960 C961 1.391 . S
C961 H949 0.950 . S
C961 C957 1.393 . S
C961 C960 1.391 . S
C962 H952 0.950 . S
C962 C963 1.386 . S
C962 C964 1.391 . S
C963 C962 1.386 . S
C963 C967 1.393 . S
C964 H953 0.950 . S
C964 C962 1.391 . S
C964 C965 1.400 . S
C965 C959 1.491 . S
C965 C964 1.400 . S
C965 C966 1.398 . S
C966 H954 0.950 . S
C966 C965 1.398 . S
C966 C967 1.391 . S
C967 H955 0.950 . S
C967 C963 1.393 . S
C967 C966 1.391 . S
H968 C976 0.950 . S
H969 C981 0.950 . S
H970 C978 0.950 1_655 S
H971 C980 0.950 . S
H972 C982 0.950 . S
H973 C984 0.950 1_455 S
H974 C986 0.950 . S
H975 C987 0.950 . S
C976 H968 0.950 . S
C976 C977 1.386 . S
C976 C978 1.391 . S
C977 C976 1.386 . S
C977 C981 1.393 . S
C978 H970 0.950 1_455 S
C978 C976 1.391 . S
C978 C979 1.400 . S
C979 C978 1.400 . S
C979 C980 1.398 . S
C979 C985 1.491 1_455 S
C980 H971 0.950 . S
C980 C979 1.398 . S
C980 C981 1.391 . S
C981 H969 0.950 . S
C981 C977 1.393 . S
C981 C980 1.391 . S
C982 H972 0.950 . S
C982 C983 1.386 . S
C982 C984 1.391 . S
C983 C982 1.386 . S
C983 C987 1.393 . S
C984 H973 0.950 1_655 S
C984 C982 1.391 . S
C984 C985 1.400 . S
C985 C979 1.491 1_655 S
C985 C984 1.400 . S
C985 C986 1.398 . S
C986 H974 0.950 . S
C986 C985 1.398 . S
C986 C987 1.391 . S
C987 H975 0.950 . S
C987 C983 1.393 . S
C987 C986 1.391 . S
H988 C996 0.950 . S
H989 C1001 0.950 . S
H990 C998 0.950 1_655 S
H991 C1000 0.950 . S
H992 C1002 0.950 . S
H993 C1004 0.950 1_455 S
H994 C1006 0.950 . S
H995 C1007 0.950 . S
C996 H988 0.950 . S
C996 C997 1.386 . S
C996 C998 1.391 . S
C997 C996 1.386 . S
C997 C1001 1.393 . S
C998 H990 0.950 1_455 S
C998 C996 1.391 . S
C998 C999 1.400 . S
C999 C998 1.400 . S
C999 C1000 1.398 . S
C999 C1005 1.491 1_455 S
C1000 H991 0.950 . S
C1000 C999 1.398 . S
C1000 C1001 1.391 . S
C1001 H989 0.950 . S
C1001 C997 1.393 . S
C1001 C1000 1.391 . S
C1002 H992 0.950 . S
C1002 C1003 1.386 . S
C1002 C1004 1.391 . S
C1003 C1002 1.386 . S
C1003 C1007 1.393 . S
C1004 H993 0.950 1_655 S
C1004 C1002 1.391 . S
C1004 C1005 1.400 . S
C1005 C999 1.491 1_655 S
C1005 C1004 1.400 . S
C1005 C1006 1.398 . S
C1006 H994 0.950 . S
C1006 C1005 1.398 . S
C1006 C1007 1.391 . S
C1007 H995 0.950 . S
C1007 C1003 1.393 . S
C1007 C1006 1.391 . S
H1008 C1016 0.950 . S
H1009 C1021 0.950 . S
H1010 C1018 0.950 . S
H1011 C1020 0.950 . S
H1012 C1022 0.950 . S
H1013 C1024 0.950 . S
H1014 C1026 0.950 . S
H1015 C1027 0.950 . S
C1016 H1008 0.950 . S
C1016 C1017 1.386 . S
C1016 C1018 1.391 . S
C1017 C1016 1.386 . S
C1017 C1021 1.393 . S
C1018 H1010 0.950 . S
C1018 C1016 1.391 . S
C1018 C1019 1.400 . S
C1019 C1018 1.400 . S
C1019 C1020 1.398 . S
C1019 C1025 1.491 . S
C1020 H1011 0.950 . S
C1020 C1019 1.398 . S
C1020 C1021 1.391 . S
C1021 H1009 0.950 . S
C1021 C1017 1.393 . S
C1021 C1020 1.391 . S
C1022 H1012 0.950 . S
C1022 C1023 1.386 . S
C1022 C1024 1.391 . S
C1023 C1022 1.386 . S
C1023 C1027 1.393 . S
C1024 H1013 0.950 . S
C1024 C1022 1.391 . S
C1024 C1025 1.400 . S
C1025 C1019 1.491 . S
C1025 C1024 1.400 . S
C1025 C1026 1.398 . S
C1026 H1014 0.950 . S
C1026 C1025 1.398 . S
C1026 C1027 1.391 . S
C1027 H1015 0.950 . S
C1027 C1023 1.393 . S
C1027 C1026 1.391 . S
H1028 C1036 0.950 . S
H1029 C1041 0.950 . S
H1030 C1038 0.950 . S
H1031 C1040 0.950 . S
H1032 C1042 0.950 . S
H1033 C1044 0.950 . S
H1034 C1046 0.950 . S
H1035 C1047 0.950 . S
C1036 H1028 0.950 . S
C1036 C1037 1.386 . S
C1036 C1038 1.391 . S
C1037 C1036 1.386 . S
C1037 C1041 1.393 . S
C1038 H1030 0.950 . S
C1038 C1036 1.391 . S
C1038 C1039 1.400 . S
C1039 C1038 1.400 . S
C1039 C1040 1.398 . S
C1039 C1045 1.491 . S
C1040 H1031 0.950 . S
C1040 C1039 1.398 . S
C1040 C1041 1.391 . S
C1041 H1029 0.950 . S
C1041 C1037 1.393 . S
C1041 C1040 1.391 . S
C1042 H1032 0.950 . S
C1042 C1043 1.386 . S
C1042 C1044 1.391 . S
C1043 C1042 1.386 . S
C1043 C1047 1.393 . S
C1044 H1033 0.950 . S
C1044 C1042 1.391 . S
C1044 C1045 1.400 . S
C1045 C1039 1.491 . S
C1045 C1044 1.400 . S
C1045 C1046 1.398 . S
C1046 H1034 0.950 . S
C1046 C1045 1.398 . S
C1046 C1047 1.391 . S
C1047 H1035 0.950 . S
C1047 C1043 1.393 . S
C1047 C1046 1.391 . S
H1048 C1056 0.950 . S
H1049 C1061 0.950 . S
H1050 C1058 0.950 . S
H1051 C1060 0.950 . S
H1052 C1062 0.950 . S
H1053 C1064 0.950 . S
H1054 C1066 0.950 . S
H1055 C1067 0.950 . S
C1056 H1048 0.950 . S
C1056 C1057 1.386 . S
C1056 C1058 1.391 . S
C1057 C1056 1.386 . S
C1057 C1061 1.393 . S
C1058 H1050 0.950 . S
C1058 C1056 1.391 . S
C1058 C1059 1.400 . S
C1059 C1058 1.400 . S
C1059 C1060 1.398 . S
C1059 C1065 1.491 . S
C1060 H1051 0.950 . S
C1060 C1059 1.398 . S
C1060 C1061 1.391 . S
C1061 H1049 0.950 . S
C1061 C1057 1.393 . S
C1061 C1060 1.391 . S
C1062 H1052 0.950 . S
C1062 C1063 1.386 . S
C1062 C1064 1.391 . S
C1063 C1062 1.386 . S
C1063 C1067 1.393 . S
C1064 H1053 0.950 . S
C1064 C1062 1.391 . S
C1064 C1065 1.400 . S
C1065 C1059 1.491 . S
C1065 C1064 1.400 . S
C1065 C1066 1.398 . S
C1066 H1054 0.950 . S
C1066 C1065 1.398 . S
C1066 C1067 1.391 . S
C1067 H1055 0.950 . S
C1067 C1063 1.393 . S
C1067 C1066 1.391 . S
H1068 C1076 0.950 . S
H1069 C1081 0.950 1_655 S
H1070 C1078 0.950 . S
H1071 C1080 0.950 . S
H1072 C1082 0.950 . S
H1073 C1084 0.950 . S
H1074 C1086 0.950 . S
H1075 C1087 0.950 . S
C1076 H1068 0.950 . S
C1076 C1077 1.386 . S
C1076 C1078 1.391 . S
C1077 C1076 1.386 . S
C1077 C1081 1.393 . S
C1078 H1070 0.950 . S
C1078 C1076 1.391 . S
C1078 C1079 1.400 . S
C1079 C1078 1.400 . S
C1079 C1080 1.398 . S
C1079 C1085 1.491 . S
C1080 H1071 0.950 . S
C1080 C1079 1.398 . S
C1080 C1081 1.391 . S
C1081 H1069 0.950 1_455 S
C1081 C1077 1.393 . S
C1081 C1080 1.391 . S
C1082 H1072 0.950 . S
C1082 C1083 1.386 . S
C1082 C1084 1.391 . S
C1083 C1082 1.386 . S
C1083 C1087 1.393 . S
C1084 H1073 0.950 . S
C1084 C1082 1.391 . S
C1084 C1085 1.400 . S
C1085 C1079 1.491 . S
C1085 C1084 1.400 . S
C1085 C1086 1.398 . S
C1086 H1074 0.950 . S
C1086 C1085 1.398 . S
C1086 C1087 1.391 . S
C1087 H1075 0.950 . S
C1087 C1083 1.393 . S
C1087 C1086 1.391 . S
H1088 C1096 0.950 . S
H1089 C1101 0.950 . S
H1090 C1098 0.950 . S
H1091 C1100 0.950 . S
H1092 C1102 0.950 . S
H1093 C1104 0.950 . S
H1094 C1106 0.950 . S
H1095 C1107 0.950 . S
C1096 H1088 0.950 . S
C1096 C1097 1.386 . S
C1096 C1098 1.391 . S
C1097 C1096 1.386 . S
C1097 C1101 1.393 . S
C1098 H1090 0.950 . S
C1098 C1096 1.391 . S
C1098 C1099 1.400 . S
C1099 C1098 1.400 . S
C1099 C1100 1.398 . S
C1099 C1105 1.491 . S
C1100 H1091 0.950 . S
C1100 C1099 1.398 . S
C1100 C1101 1.391 . S
C1101 H1089 0.950 . S
C1101 C1097 1.393 . S
C1101 C1100 1.391 . S
C1102 H1092 0.950 . S
C1102 C1103 1.386 . S
C1102 C1104 1.391 . S
C1103 C1102 1.386 . S
C1103 C1107 1.393 . S
C1104 H1093 0.950 . S
C1104 C1102 1.391 . S
C1104 C1105 1.400 . S
C1105 C1099 1.491 . S
C1105 C1104 1.400 . S
C1105 C1106 1.398 . S
C1106 H1094 0.950 . S
C1106 C1105 1.398 . S
C1106 C1107 1.391 . S
C1107 H1095 0.950 . S
C1107 C1103 1.393 . S
C1107 C1106 1.391 . S
H1108 C1116 0.950 . S
H1109 C1121 0.950 . S
H1110 C1118 0.950 . S
H1111 C1120 0.950 . S
H1112 C1122 0.950 . S
H1113 C1124 0.950 . S
H1114 C1126 0.950 . S
H1115 C1127 0.950 . S
C1116 H1108 0.950 . S
C1116 C1117 1.386 . S
C1116 C1118 1.391 . S
C1117 C1116 1.386 . S
C1117 C1121 1.393 . S
C1118 H1110 0.950 . S
C1118 C1116 1.391 . S
C1118 C1119 1.400 . S
C1119 C1118 1.400 . S
C1119 C1120 1.398 . S
C1119 C1125 1.491 . S
C1120 H1111 0.950 . S
C1120 C1119 1.398 . S
C1120 C1121 1.391 . S
C1121 H1109 0.950 . S
C1121 C1117 1.393 . S
C1121 C1120 1.391 . S
C1122 H1112 0.950 . S
C1122 C1123 1.386 . S
C1122 C1124 1.391 . S
C1123 C1122 1.386 . S
C1123 C1127 1.393 . S
C1124 H1113 0.950 . S
C1124 C1122 1.391 . S
C1124 C1125 1.400 . S
C1125 C1119 1.491 . S
C1125 C1124 1.400 . S
C1125 C1126 1.398 . S
C1126 H1114 0.950 . S
C1126 C1125 1.398 . S
C1126 C1127 1.391 . S
C1127 H1115 0.950 . S
C1127 C1123 1.393 . S
C1127 C1126 1.391 . S
H1128 C1136 0.950 . S
H1129 C1141 0.950 . S
H1130 C1138 0.950 . S
H1131 C1140 0.950 . S
H1132 C1142 0.950 . S
H1133 C1144 0.950 . S
H1134 C1146 0.950 . S
H1135 C1147 0.950 . S
C1136 H1128 0.950 . S
C1136 C1137 1.386 . S
C1136 C1138 1.391 . S
C1137 C1136 1.386 . S
C1137 C1141 1.393 . S
C1138 H1130 0.950 . S
C1138 C1136 1.391 . S
C1138 C1139 1.400 . S
C1139 C1138 1.400 . S
C1139 C1140 1.398 . S
C1139 C1145 1.491 . S
C1140 H1131 0.950 . S
C1140 C1139 1.398 . S
C1140 C1141 1.391 . S
C1141 H1129 0.950 . S
C1141 C1137 1.393 . S
C1141 C1140 1.391 . S
C1142 H1132 0.950 . S
C1142 C1143 1.386 . S
C1142 C1144 1.391 . S
C1143 C1142 1.386 . S
C1143 C1147 1.393 . S
C1144 H1133 0.950 . S
C1144 C1142 1.391 . S
C1144 C1145 1.400 . S
C1145 C1139 1.491 . S
C1145 C1144 1.400 . S
C1145 C1146 1.398 . S
C1146 H1134 0.950 . S
C1146 C1145 1.398 . S
C1146 C1147 1.391 . S
C1147 H1135 0.950 . S
C1147 C1143 1.393 . S
C1147 C1146 1.391 . S
H1148 C1156 0.950 . S
H1149 C1161 0.950 . S
H1150 C1158 0.950 . S
H1151 C1160 0.950 . S
H1152 C1162 0.950 . S
H1153 C1164 0.950 . S
H1154 C1166 0.950 . S
H1155 C1167 0.950 1_455 S
C1156 H1148 0.950 . S
C1156 C1157 1.386 . S
C1156 C1158 1.391 . S
C1157 C1156 1.386 . S
C1157 C1161 1.393 . S
C1158 H1150 0.950 . S
C1158 C1156 1.391 . S
C1158 C1159 1.400 . S
C1159 C1158 1.400 . S
C1159 C1160 1.398 . S
C1159 C1165 1.491 . S
C1160 H1151 0.950 . S
C1160 C1159 1.398 . S
C1160 C1161 1.391 . S
C1161 H1149 0.950 . S
C1161 C1157 1.393 . S
C1161 C1160 1.391 . S
C1162 H1152 0.950 . S
C1162 C1163 1.386 . S
C1162 C1164 1.391 . S
C1163 C1162 1.386 . S
C1163 C1167 1.393 . S
C1164 H1153 0.950 . S
C1164 C1162 1.391 . S
C1164 C1165 1.400 . S
C1165 C1159 1.491 . S
C1165 C1164 1.400 . S
C1165 C1166 1.398 . S
C1166 H1154 0.950 . S
C1166 C1165 1.398 . S
C1166 C1167 1.391 . S
C1167 H1155 0.950 1_655 S
C1167 C1163 1.393 . S
C1167 C1166 1.391 . S
H1168 C1176 0.950 . S
H1169 C1181 0.950 . S
H1170 C1178 0.950 . S
H1171 C1180 0.950 . S
H1172 C1182 0.950 . S
H1173 C1184 0.950 . S
H1174 C1186 0.950 . S
H1175 C1187 0.950 . S
C1176 H1168 0.950 . S
C1176 C1177 1.386 . S
C1176 C1178 1.391 . S
C1177 C1176 1.386 . S
C1177 C1181 1.393 . S
C1178 H1170 0.950 . S
C1178 C1176 1.391 . S
C1178 C1179 1.400 . S
C1179 C1178 1.400 . S
C1179 C1180 1.398 . S
C1179 C1185 1.491 . S
C1180 H1171 0.950 . S
C1180 C1179 1.398 . S
C1180 C1181 1.391 . S
C1181 H1169 0.950 . S
C1181 C1177 1.393 . S
C1181 C1180 1.391 . S
C1182 H1172 0.950 . S
C1182 C1183 1.386 . S
C1182 C1184 1.391 . S
C1183 C1182 1.386 . S
C1183 C1187 1.393 . S
C1184 H1173 0.950 . S
C1184 C1182 1.391 . S
C1184 C1185 1.400 . S
C1185 C1179 1.491 . S
C1185 C1184 1.400 . S
C1185 C1186 1.398 . S
C1186 H1174 0.950 . S
C1186 C1185 1.398 . S
C1186 C1187 1.391 . S
C1187 H1175 0.950 . S
C1187 C1183 1.393 . S
C1187 C1186 1.391 . S
H1188 C1196 0.950 . S
H1189 C1201 0.950 . S
H1190 C1198 0.950 . S
H1191 C1200 0.950 . S
H1192 C1202 0.950 . S
H1193 C1204 0.950 1_545 S
H1194 C1206 0.950 . S
H1195 C1207 0.950 1_455 S
C1196 H1188 0.950 . S
C1196 C1197 1.386 . S
C1196 C1198 1.391 . S
C1197 C1196 1.386 . S
C1197 C1201 1.393 . S
C1198 H1190 0.950 . S
C1198 C1196 1.391 . S
C1198 C1199 1.400 . S
C1199 C1198 1.400 . S
C1199 C1200 1.398 . S
C1199 C1205 1.491 . S
C1200 H1191 0.950 . S
C1200 C1199 1.398 . S
C1200 C1201 1.391 . S
C1201 H1189 0.950 . S
C1201 C1197 1.393 . S
C1201 C1200 1.391 . S
C1202 H1192 0.950 . S
C1202 C1203 1.386 1_545 S
C1202 C1204 1.391 1_545 S
C1203 C1202 1.386 1_565 S
C1203 C1207 1.393 . S
C1204 H1193 0.950 1_565 S
C1204 C1202 1.391 1_565 S
C1204 C1205 1.400 . S
C1205 C1199 1.491 . S
C1205 C1204 1.400 . S
C1205 C1206 1.398 . S
C1206 H1194 0.950 . S
C1206 C1205 1.398 . S
C1206 C1207 1.391 . S
C1207 H1195 0.950 1_655 S
C1207 C1203 1.393 . S
C1207 C1206 1.391 . S
H1208 C1216 0.950 . S
H1209 C1221 0.950 . S
H1210 C1218 0.950 . S
H1211 C1220 0.950 . S
H1212 C1222 0.950 . S
H1213 C1224 0.950 . S
H1214 C1226 0.950 . S
H1215 C1227 0.950 . S
C1216 H1208 0.950 . S
C1216 C1217 1.386 . S
C1216 C1218 1.391 . S
C1217 C1216 1.386 . S
C1217 C1221 1.393 . S
C1218 H1210 0.950 . S
C1218 C1216 1.391 . S
C1218 C1219 1.400 . S
C1219 C1218 1.400 . S
C1219 C1220 1.398 . S
C1219 C1225 1.491 . S
C1220 H1211 0.950 . S
C1220 C1219 1.398 . S
C1220 C1221 1.391 . S
C1221 H1209 0.950 . S
C1221 C1217 1.393 . S
C1221 C1220 1.391 . S
C1222 H1212 0.950 . S
C1222 C1223 1.386 . S
C1222 C1224 1.391 . S
C1223 C1222 1.386 . S
C1223 C1227 1.393 . S
C1224 H1213 0.950 . S
C1224 C1222 1.391 . S
C1224 C1225 1.400 . S
C1225 C1219 1.491 . S
C1225 C1224 1.400 . S
C1225 C1226 1.398 . S
C1226 H1214 0.950 . S
C1226 C1225 1.398 . S
C1226 C1227 1.391 . S
C1227 H1215 0.950 . S
C1227 C1223 1.393 . S
C1227 C1226 1.391 . S
H1228 C1236 0.970 . S
H1229 C1241 0.950 . S
H1230 C1238 0.950 . S
H1231 C1240 0.950 . S
H1232 C1242 0.950 . S
H1233 C1244 0.950 . S
H1234 C1246 0.950 . S
H1235 C1247 0.950 . S
C1236 H1228 0.970 . S
C1236 C1237 1.380 1_565 S
C1236 C1238 1.377 1_565 S
C1237 C1236 1.380 1_545 S
C1237 C1241 1.393 . S
C1238 H1230 0.950 . S
C1238 C1236 1.377 1_545 S
C1238 C1239 1.400 . S
C1239 C1238 1.400 . S
C1239 C1240 1.398 . S
C1239 C1245 1.491 . S
C1240 H1231 0.950 . S
C1240 C1239 1.398 . S
C1240 C1241 1.391 . S
C1241 H1229 0.950 . S
C1241 C1237 1.393 . S
C1241 C1240 1.391 . S
C1242 H1232 0.950 . S
C1242 C1243 1.386 . S
C1242 C1244 1.391 . S
C1243 C1242 1.386 . S
C1243 C1247 1.393 . S
C1244 H1233 0.950 . S
C1244 C1242 1.391 . S
C1244 C1245 1.400 . S
C1245 C1239 1.491 . S
C1245 C1244 1.400 . S
C1245 C1246 1.398 . S
C1246 H1234 0.950 . S
C1246 C1245 1.398 . S
C1246 C1247 1.391 . S
C1247 H1235 0.950 . S
C1247 C1243 1.393 . S
C1247 C1246 1.391 . S
H1248 C1256 0.950 . S
H1249 C1261 0.950 . S
H1250 C1258 0.950 . S
H1251 C1260 0.950 . S
H1252 C1262 0.950 . S
H1253 C1264 0.950 . S
H1254 C1266 0.950 . S
H1255 C1267 0.950 . S
C1256 H1248 0.950 . S
C1256 C1257 1.386 . S
C1256 C1258 1.391 . S
C1257 C1256 1.386 . S
C1257 C1261 1.393 . S
C1258 H1250 0.950 . S
C1258 C1256 1.391 . S
C1258 C1259 1.400 . S
C1259 C1258 1.400 . S
C1259 C1260 1.398 . S
C1259 C1265 1.491 . S
C1260 H1251 0.950 . S
C1260 C1259 1.398 . S
C1260 C1261 1.391 . S
C1261 H1249 0.950 . S
C1261 C1257 1.393 . S
C1261 C1260 1.391 . S
C1262 H1252 0.950 . S
C1262 C1263 1.386 . S
C1262 C1264 1.391 . S
C1263 C1262 1.386 . S
C1263 C1267 1.393 . S
C1264 H1253 0.950 . S
C1264 C1262 1.391 . S
C1264 C1265 1.400 . S
C1265 C1259 1.491 . S
C1265 C1264 1.400 . S
C1265 C1266 1.398 . S
C1266 H1254 0.950 . S
C1266 C1265 1.398 . S
C1266 C1267 1.391 . S
C1267 H1255 0.950 . S
C1267 C1263 1.393 . S
C1267 C1266 1.391 . S
H1268 C1276 0.958 . S
H1269 C1281 0.950 . S
H1270 C1278 0.950 . S
H1271 C1280 0.950 . S
H1272 C1282 0.950 . S
H1273 C1284 0.950 . S
H1274 C1286 0.950 . S
H1275 C1287 0.950 . S
C1276 H1268 0.958 . S
C1276 C1277 1.384 1_565 S
C1276 C1278 1.384 1_565 S
C1277 C1276 1.384 1_545 S
C1277 C1281 1.393 . S
C1278 H1270 0.950 . S
C1278 C1276 1.384 1_545 S
C1278 C1279 1.400 . S
C1279 C1278 1.400 . S
C1279 C1280 1.398 . S
C1279 C1285 1.491 . S
C1280 H1271 0.950 . S
C1280 C1279 1.398 . S
C1280 C1281 1.391 . S
C1281 H1269 0.950 . S
C1281 C1277 1.393 . S
C1281 C1280 1.391 . S
C1282 H1272 0.950 . S
C1282 C1283 1.386 . S
C1282 C1284 1.391 . S
C1283 C1282 1.386 . S
C1283 C1287 1.393 . S
C1284 H1273 0.950 . S
C1284 C1282 1.391 . S
C1284 C1285 1.400 . S
C1285 C1279 1.491 . S
C1285 C1284 1.400 . S
C1285 C1286 1.398 . S
C1286 H1274 0.950 . S
C1286 C1285 1.398 . S
C1286 C1287 1.391 . S
C1287 H1275 0.950 . S
C1287 C1283 1.393 . S
C1287 C1286 1.391 . S
H1288 C1296 0.950 . S
H1289 C1301 0.950 . S
H1290 C1298 0.950 . S
H1291 C1300 0.950 . S
H1292 C1302 0.950 . S
H1293 C1304 0.950 . S
H1294 C1306 0.950 . S
H1295 C1307 0.950 . S
C1296 H1288 0.950 . S
C1296 C1297 1.386 . S
C1296 C1298 1.391 . S
C1297 C1296 1.386 . S
C1297 C1301 1.393 . S
C1298 H1290 0.950 . S
C1298 C1296 1.391 . S
C1298 C1299 1.400 . S
C1299 C1298 1.400 . S
C1299 C1300 1.398 . S
C1299 C1305 1.491 . S
C1300 H1291 0.950 . S
C1300 C1299 1.398 . S
C1300 C1301 1.391 . S
C1301 H1289 0.950 . S
C1301 C1297 1.393 . S
C1301 C1300 1.391 . S
C1302 H1292 0.950 . S
C1302 C1303 1.386 . S
C1302 C1304 1.391 . S
C1303 C1302 1.386 . S
C1303 C1307 1.393 . S
C1304 H1293 0.950 . S
C1304 C1302 1.391 . S
C1304 C1305 1.400 . S
C1305 C1299 1.491 . S
C1305 C1304 1.400 . S
C1305 C1306 1.398 . S
C1306 H1294 0.950 . S
C1306 C1305 1.398 . S
C1306 C1307 1.391 . S
C1307 H1295 0.950 . S
C1307 C1303 1.393 . S
C1307 C1306 1.391 . S
H1308 C1316 0.950 . S
H1309 C1321 0.950 . S
H1310 C1318 0.950 . S
H1311 C1320 0.950 . S
H1312 C1322 0.950 . S
H1313 C1324 0.950 1_545 S
H1314 C1326 0.950 . S
H1315 C1327 0.950 . S
C1316 H1308 0.950 . S
C1316 C1317 1.386 . S
C1316 C1318 1.391 . S
C1317 C1316 1.386 . S
C1317 C1321 1.393 . S
C1318 H1310 0.950 . S
C1318 C1316 1.391 . S
C1318 C1319 1.400 . S
C1319 C1318 1.400 . S
C1319 C1320 1.398 . S
C1319 C1325 1.491 . S
C1320 H1311 0.950 . S
C1320 C1319 1.398 . S
C1320 C1321 1.391 . S
C1321 H1309 0.950 . S
C1321 C1317 1.393 . S
C1321 C1320 1.391 . S
C1322 H1312 0.950 . S
C1322 C1323 1.386 1_545 S
C1322 C1324 1.391 1_545 S
C1323 C1322 1.386 1_565 S
C1323 C1327 1.393 . S
C1324 H1313 0.950 1_565 S
C1324 C1322 1.391 1_565 S
C1324 C1325 1.400 . S
C1325 C1319 1.491 . S
C1325 C1324 1.400 . S
C1325 C1326 1.398 . S
C1326 H1314 0.950 . S
C1326 C1325 1.398 . S
C1326 C1327 1.391 . S
C1327 H1315 0.950 . S
C1327 C1323 1.393 . S
C1327 C1326 1.391 . S
C377 C16 0.984 . S
C383 C292 0.984 . S
C397 C131 0.962 . S
C403 C39 0.962 . S
C417 C62 0.989 . S
C423 C338 0.989 . S
C437 C85 0.972 . S
C443 C177 0.972 . S
C457 C108 0.967 . S
C463 C200 0.967 . S
C477 C246 0.990 . S
C483 C154 0.990 . S
C497 C315 0.961 . S
C503 C223 0.961 . S
C517 C269 0.962 . S
C523 C361 0.962 . S
C537 C225 1.591 . S
C543 C17 1.546 . S
C557 C40 1.542 . S
C563 C248 1.594 . S
C577 C63 1.536 . S
C583 C271 1.591 . S
C597 C202 1.600 . S
C603 C86 1.525 . S
C617 C317 1.591 . S
C623 C109 1.546 . S
C637 C340 1.596 . S
C643 C132 1.538 . S
C657 C155 1.546 . S
C663 C363 1.591 . S
C677 C294 1.590 . S
C683 C178 1.539 . S
C697 C201 1.522 . S
C703 C41 1.597 . S
C717 C224 1.545 . S
C723 C64 1.592 . S
C737 C247 1.530 . S
C743 C87 1.598 . S
C757 C18 1.600 . S
C763 C270 1.522 . S
C777 C133 1.595 . S
C783 C293 1.526 . S
C797 C316 1.542 . S
C803 C156 1.594 . S
C817 C179 1.593 . S
C823 C339 1.531 . S
C837 C362 1.519 . S
C843 C110 1.599 . S
C857 C20 1.369 . S
C863 C250 1.354 . S
C877 C43 1.367 . S
C883 C273 1.383 . S
C897 C204 1.371 . S
C903 C66 1.355 . S
C917 C89 1.361 . S
C923 C227 1.380 . S
C937 C112 1.354 . S
C943 C342 1.364 . S
C957 C135 1.376 . S
C963 C365 1.384 . S
C977 C296 1.357 . S
C983 C158 1.375 . S
C997 C181 1.384 . S
C1003 C319 1.376 . S
C1017 C21 1.271 . S
C1023 C180 1.238 . S
C1037 C295 1.246 . S
C1043 C44 1.272 . S
C1057 C67 1.271 . S
C1063 C134 1.242 . S
C1077 C90 1.265 1_455 S
C1083 C341 1.249 . S
C1097 C113 1.270 . S
C1103 C88 1.251 . S
C1117 C203 1.249 . S
C1123 C136 1.265 . S
C1137 C159 1.266 . S
C1143 C42 1.227 . S
C1157 C249 1.250 . S
C1163 C182 1.265 1_655 S
C1177 C205 1.268 . S
C1183 C364 1.252 . S
C1197 C111 1.224 . S
C1203 C228 1.262 1_665 S
C1217 C318 1.224 . S
C1223 C251 1.261 . S
C1237 C274 1.262 1_545 S
C1243 C157 1.245 . S
C1257 C297 1.270 . S
C1263 C272 1.251 . S
C1277 C320 1.267 1_445 S
C1283 C19 1.230 . S
C1297 C226 1.244 . S
C1303 C343 1.272 . S
C1317 C65 1.252 . S
C1323 C366 1.269 1_565 S
