# Generated by pormake.
# Topology uni, (4)-cn, num edge types: 1
# Building blocks:
#     Node 0, Type 0, BuildingBlock: AZAVOO_clean_sbu_0, # of connection points: 4
#     Node 1, Type 0, BuildingBlock: AZAVOO_clean_sbu_0, # of connection points: 4
#     Node 2, Type 0, BuildingBlock: AZAVOO_clean_sbu_0, # of connection points: 4
#     Node 3, Type 0, BuildingBlock: AZAVOO_clean_sbu_0, # of connection points: 4
#     Node 4, Type 0, BuildingBlock: AZAVOO_clean_sbu_0, # of connection points: 4
#     Node 5, Type 0, BuildingBlock: AZAVOO_clean_sbu_0, # of connection points: 4
#     Edge 6, Type (0, 0), BuildingBlock: EZIPEK_clean_linker_0, # of connection points: 2
#     Edge 7, Type (0, 0), BuildingBlock: EZIPEK_clean_linker_0, # of connection points: 2
#     Edge 8, Type (0, 0), BuildingBlock: EZIPEK_clean_linker_0, # of connection points: 2
#     Edge 9, Type (0, 0), BuildingBlock: EZIPEK_clean_linker_0, # of connection points: 2
#     Edge 10, Type (0, 0), BuildingBlock: EZIPEK_clean_linker_0, # of connection points: 2
#     Edge 11, Type (0, 0), BuildingBlock: EZIPEK_clean_linker_0, # of connection points: 2
#     Edge 12, Type (0, 0), BuildingBlock: EZIPEK_clean_linker_0, # of connection points: 2
#     Edge 13, Type (0, 0), BuildingBlock: EZIPEK_clean_linker_0, # of connection points: 2
#     Edge 14, Type (0, 0), BuildingBlock: EZIPEK_clean_linker_0, # of connection points: 2
#     Edge 15, Type (0, 0), BuildingBlock: EZIPEK_clean_linker_0, # of connection points: 2
#     Edge 16, Type (0, 0), BuildingBlock: EZIPEK_clean_linker_0, # of connection points: 2
#     Edge 17, Type (0, 0), BuildingBlock: EZIPEK_clean_linker_0, # of connection points: 2
# Relax obj value: 0.051
# Max RMSD: 0.094
# Mean RMSD: 0.093
data_MOF--net-uni--node1-AZAVOO_clean_sbu_0--edge1-EZIPEK_clean_linker_0
_symmetry_space_group_name_H-M    P1
_symmetry_Int_Tables_number       1
_symmetry_cell_setting            triclinic
loop_
_symmetry_equiv_pos_as_xyz
'x, y, z'
_cell_length_a     29.864987
_cell_length_b     29.784543
_cell_length_c     15.919024
_cell_angle_alpha  89.828789
_cell_angle_beta   89.992335
_cell_angle_gamma 119.83072
loop_
_atom_site_label
_atom_site_type_symbol
_atom_site_fract_x
_atom_site_fract_y
_atom_site_fract_z
_atom_type_partial_charge
Mg0 Mg 0.62614 0.9859 0.03016 0.0
O1 O 0.5907 0.01164 0.13409 0.0
O2 O 0.59166 0.08275 0.08598 0.0
Mg3 Mg 0.62504 0.10041 0.95143 0.0
C4 C 0.5814 0.04876 0.1431 0.0
C5 C 0.66651 0.93909 0.17829 0.0
O6 O 0.69975 0.98695 0.19924 0.0
O7 O 0.70793 0.05229 0.05748 0.0
O8 O 0.70556 0.11813 0.99414 0.0
O9 O 0.54784 0.93725 0.97367 0.0
O10 O 0.60087 0.01769 0.93487 0.0
C11 C 0.73022 0.09904 0.03123 0.0
C12 C 0.55703 0.97595 0.92542 0.0
O13 O 0.63455 0.92991 0.11909 0.0
Mg14 Mg 0.65652 0.64219 0.18256 0.0
O15 O 0.5938 0.59611 0.28115 0.0
O16 O 0.52354 0.59954 0.24117 0.0
Mg17 Mg 0.53839 0.64113 0.1144 0.0
C18 C 0.54711 0.58539 0.29246 0.0
C19 C 0.75326 0.67951 0.31189 0.0
O20 O 0.75117 0.72206 0.32356 0.0
O21 O 0.66626 0.71894 0.23243 0.0
O22 O 0.59761 0.71808 0.1742 0.0
O23 O 0.63189 0.57085 0.10514 0.0
O24 O 0.59945 0.62264 0.09199 0.0
C25 C 0.64009 0.74106 0.21471 0.0
C26 C 0.59915 0.58112 0.06925 0.0
O27 O 0.72042 0.6439 0.26494 0.0
Mg28 Mg 0.02512 0.64016 0.31983 0.0
O29 O 0.00982 0.58221 0.42627 0.0
O30 O 0.93657 0.51006 0.39321 0.0
Mg31 Mg 0.90794 0.52044 0.26436 0.0
C32 C 0.97466 0.53589 0.44231 0.0
C33 C 0.08837 0.71573 0.47591 0.0
O34 O 0.051 0.68376 0.52595 0.0
O35 O 0.95999 0.65373 0.36485 0.0
O36 O 0.89132 0.58378 0.31214 0.0
O37 O 0.07058 0.61131 0.24896 0.0
O38 O 0.98691 0.58041 0.23243 0.0
C39 C 0.91195 0.62825 0.347 0.0
C40 C 0.02778 0.57859 0.21314 0.0
O41 O 0.08593 0.70717 0.3974 0.0
Mg42 Mg 0.37509 0.01426 0.52066 0.0
O43 O 0.41547 -0.00578 0.62427 0.0
O44 O 0.43489 0.93648 0.57262 0.0
Mg45 Mg 0.40051 0.91391 0.44028 0.0
C46 C 0.43616 0.96589 0.6319 0.0
C47 C 0.39071 0.10904 0.62559 0.0
O48 O 0.35353 0.06098 0.61869 0.0
O49 O 0.29964 0.93938 0.54669 0.0
O50 O 0.31701 0.88124 0.48845 0.0
O51 O 0.45135 0.07231 0.46234 0.0
O52 O 0.40695 0.98998 0.42674 0.0
C53 C 0.28604 0.89314 0.52441 0.0
C54 C 0.44733 0.03454 0.41685 0.0
O55 O 0.35565 0.06192 0.61671 0.0
Mg56 Mg 0.37108 0.38796 0.67842 0.0
O57 O 0.42741 0.43335 0.78457 0.0
O58 O 0.50364 0.44138 0.74909 0.0
Mg59 Mg 0.49752 0.40529 0.61952 0.0
C60 C 0.47488 0.44897 0.79957 0.0
C61 C 0.27525 0.34111 0.81223 0.0
O62 O 0.28706 0.3054 0.83179 0.0
O63 O 0.36684 0.31211 0.72054 0.0
O64 O 0.44161 0.3237 0.66923 0.0
O65 O 0.39298 0.4615 0.60787 0.0
O66 O 0.43122 0.41506 0.59027 0.0
C67 C 0.39774 0.29527 0.70402 0.0
C68 C 0.42831 0.45546 0.57134 0.0
O69 O 0.30202 0.37599 0.75856 0.0
Mg70 Mg 0.98735 0.35083 0.82375 0.0
O71 O 0.00307 0.41294 0.92251 0.0
O72 O 0.07506 0.48462 0.88196 0.0
Mg73 Mg 0.10133 0.47107 0.75371 0.0
C74 C 0.03798 0.46001 0.9338 0.0
C75 C 0.93448 0.25629 0.95934 0.0
O76 O 0.98028 0.26106 0.96935 0.0
O77 O 0.05614 0.34293 0.86983 0.0
O78 O 0.12197 0.41253 0.80973 0.0
O79 O 0.93867 0.37441 0.74807 0.0
O80 O 0.02259 0.4083 0.73232 0.0
C81 C 0.10384 0.36975 0.8498 0.0
C82 C 0.98085 0.40778 0.71095 0.0
O83 O 0.92847 0.28656 0.91006 0.0
C84 C 0.56961 0.06237 0.29638 0.0
C85 C 0.54861 0.04663 0.21469 0.0
C86 C 0.46489 0.0321 0.26456 0.0
C87 C 0.48405 0.04255 0.34793 0.0
N88 N 0.55275 0.06213 0.446 0.0
N89 N 0.47367 0.00569 0.12506 0.0
C90 C 0.53608 0.05653 0.36476 0.0
C91 C 0.49553 0.02854 0.19988 0.0
N92 N 0.62155 0.08354 0.30812 0.0
N93 N 0.41787 0.02721 0.2465 0.0
H94 H 0.49434 0.0006 0.07687 0.0
H95 H 0.43406 0.98688 0.11411 0.0
H96 H 0.39456 0.03076 0.29175 0.0
H97 H 0.40441 0.02503 0.18544 0.0
H98 H 0.64017 0.10056 0.36413 0.0
H99 H 0.64669 0.08726 0.25957 0.0
H100 H 0.5885 0.06693 0.46318 0.0
H101 H 0.52925 0.05839 0.49712 0.0
C102 C 0.53568 0.56714 0.4481 0.0
C103 C 0.51762 0.55218 0.36467 0.0
C104 C 0.4392 0.47684 0.41847 0.0
C105 C 0.45924 0.48942 0.50112 0.0
N106 N 0.53035 0.54056 0.59363 0.0
N107 N 0.4579 0.48656 0.26957 0.0
C108 C 0.5087 0.53281 0.51571 0.0
C109 C 0.47085 0.50534 0.34953 0.0
N110 N 0.5772 0.61496 0.46318 0.0
N111 N 0.38964 0.43788 0.40571 0.0
H112 H 0.48065 0.50528 0.21725 0.0
H113 H 0.42731 0.44988 0.25584 0.0
H114 H 0.36559 0.41487 0.45419 0.0
H115 H 0.37098 0.43103 0.34797 0.0
H116 H 0.58884 0.63003 0.52327 0.0
H117 H 0.59732 0.64164 0.41558 0.0
H118 H 0.5684 0.56846 0.60638 0.0
H119 H 0.51149 0.51592 0.644 0.0
C120 C 0.00847 0.44946 0.56861 0.0
C121 C 0.98132 0.44356 0.64497 0.0
C122 C 0.95024 0.50018 0.58913 0.0
C123 C 0.98066 0.50889 0.51605 0.0
N124 N 0.04956 0.50315 0.44696 0.0
N125 N 0.93612 0.47307 0.7351 0.0
C126 C 0.01348 0.48741 0.50953 0.0
C127 C 0.95483 0.47165 0.6574 0.0
N128 N 0.02644 0.41652 0.54933 0.0
N129 N 0.9168 0.5189 0.59314 0.0
H130 H 0.94049 0.45448 0.78741 0.0
H131 H 0.921 0.49695 0.74975 0.0
H132 H 0.91448 0.54215 0.54611 0.0
H133 H 0.88933 0.50882 0.6405 0.0
H134 H 0.04179 0.41606 0.49077 0.0
H135 H 0.02061 0.38558 0.58749 0.0
H136 H 0.07772 0.49225 0.44433 0.0
H137 H 0.05496 0.53139 0.40294 0.0
C138 C 0.51337 0.01311 0.8359 0.0
C139 C 0.5208 0.97092 0.85638 0.0
C140 C 0.46056 0.92154 0.74354 0.0
C141 C 0.46314 0.96742 0.7118 0.0
N142 N 0.50418 0.06109 0.72183 0.0
N143 N 0.50888 0.88744 0.81301 0.0
C144 C 0.4928 0.01453 0.75632 0.0
C145 C 0.49628 0.92554 0.80597 0.0
N146 N 0.52372 0.05078 0.89339 0.0
N147 N 0.42324 0.87401 0.71653 0.0
H148 H 0.53806 0.88999 0.85189 0.0
H149 H 0.49457 0.85606 0.77205 0.0
H150 H 0.3937 0.869 0.67596 0.0
H151 H 0.41794 0.83964 0.74312 0.0
H152 H 0.51534 0.08043 0.883 0.0
H153 H 0.53381 0.04794 0.9549 0.0
H154 H 0.52887 0.0962 0.75093 0.0
H155 H 0.49478 0.06532 0.66044 0.0
C156 C 0.55677 0.56817 0.92788 0.0
C157 C 0.56282 0.54659 0.00396 0.0
C158 C 0.50747 0.45924 0.94779 0.0
C159 C 0.49928 0.48124 0.87447 0.0
N160 N 0.50339 0.55548 0.80606 0.0
N161 N 0.53303 0.47163 0.09416 0.0
C162 C 0.51959 0.53534 0.86847 0.0
C163 C 0.535 0.49203 0.01634 0.0
N164 N 0.5889 0.61926 0.90904 0.0
N165 N 0.48953 0.40719 0.95152 0.0
H166 H 0.55073 0.49442 0.14672 0.0
H167 H 0.50942 0.43258 0.10855 0.0
H168 H 0.46713 0.38188 0.90402 0.0
H169 H 0.49941 0.38971 -0.00079 0.0
H170 H 0.5892 0.63531 0.85064 0.0
H171 H 0.61929 0.64443 0.9474 0.0
H172 H 0.51358 0.59438 0.80334 0.0
H173 H 0.47521 0.53236 0.76261 0.0
C174 C 0.03093 0.53465 0.99064 0.0
C175 C 0.03314 0.48877 0.00601 0.0
C176 C 0.0227 0.49727 0.15713 0.0
C177 C 0.02753 0.54641 0.14229 0.0
N178 N 0.04233 0.61525 0.04608 0.0
N179 N 0.03803 0.42969 0.10483 0.0
C180 C 0.03339 0.56606 0.05934 0.0
C181 C 0.03063 0.47073 0.08959 0.0
N182 N 0.02397 0.54701 0.9107 0.0
N183 N 0.00926 0.47546 0.23522 0.0
H184 H 0.04496 0.40988 0.05729 0.0
H185 H 0.04185 0.41815 0.16496 0.0
H186 H 0.00204 0.49364 0.28497 0.0
H187 H 0.0004 0.43766 0.24846 0.0
H188 H 0.01637 0.57678 0.89693 0.0
H189 H 0.02053 0.52443 0.85857 0.0
H190 H 0.05313 0.63385 0.98799 0.0
H191 H 0.04283 0.63911 0.09435 0.0
C192 C 0.70446 0.8354 0.19565 0.0
C193 C 0.65947 0.7963 0.23614 0.0
C194 C 0.63271 0.86011 0.26876 0.0
C195 C 0.67102 0.89524 0.21269 0.0
N196 N 0.74537 0.91886 0.12513 0.0
N197 N 0.58553 0.77222 0.32407 0.0
C198 C 0.70837 0.88418 0.17858 0.0
C199 C 0.62556 0.80936 0.27807 0.0
N200 N 0.74289 0.82576 0.1723 0.0
N201 N 0.60314 0.87552 0.31195 0.0
H202 H 0.58193 0.73606 0.33596 0.0
H203 H 0.55583 0.77656 0.34949 0.0
H204 H 0.60836 0.91275 0.30597 0.0
H205 H 0.57626 0.85333 0.35772 0.0
H206 H 0.77853 0.85405 0.14927 0.0
H207 H 0.7416 0.79075 0.18392 0.0
H208 H 0.76938 0.91053 0.08905 0.0
H209 H 0.75046 0.95556 0.11327 0.0
C210 C 0.8877 0.69533 0.3087 0.0
C211 C 0.87877 0.65201 0.35882 0.0
C212 C 0.79384 0.63947 0.39972 0.0
C213 C 0.79929 0.67643 0.33835 0.0
N214 N 0.85016 0.73877 0.23153 0.0
N215 N 0.82595 0.58522 0.45781 0.0
C216 C 0.84633 0.70507 0.29349 0.0
C217 C 0.83273 0.6252 0.40695 0.0
N218 N 0.93522 0.7266 0.27391 0.0
N219 N 0.75147 0.61841 0.45103 0.0
H220 H 0.85529 0.57656 0.46887 0.0
H221 H 0.79129 0.55986 0.48729 0.0
H222 H 0.72279 0.62863 0.44684 0.0
H223 H 0.74645 0.59415 0.50162 0.0
H224 H 0.94561 0.76198 0.24544 0.0
H225 H 0.96616 0.72 0.27939 0.0
H226 H 0.88039 0.75527 0.18845 0.0
H227 H 0.82133 0.74785 0.21895 0.0
C228 C 0.17048 0.76049 0.56037 0.0
C229 C 0.13335 0.76342 0.50852 0.0
C230 C 0.19335 0.85515 0.4805 0.0
C231 C 0.23109 0.85213 0.53087 0.0
N232 N 0.25156 0.80713 0.63617 0.0
N233 N 0.10311 0.81585 0.44154 0.0
C234 C 0.21814 0.80639 0.57683 0.0
C235 C 0.14277 0.81171 0.47627 0.0
N236 N 0.16164 0.71356 0.58953 0.0
N237 N 0.20659 0.89785 0.43172 0.0
H238 H 0.06552 0.78458 0.43834 0.0
H239 H 0.10621 0.85101 0.42402 0.0
H240 H 0.24311 0.93066 0.43197 0.0
H241 H 0.1824 0.89934 0.38603 0.0
H242 H 0.18962 0.70804 0.61912 0.0
H243 H 0.12701 0.67928 0.5798 0.0
H244 H 0.24267 0.77655 0.67727 0.0
H245 H 0.28651 0.84046 0.64948 0.0
C246 C 0.41735 0.22696 0.75176 0.0
C247 C 0.38168 0.23961 0.71539 0.0
C248 C 0.34348 0.15989 0.63319 0.0
C249 C 0.38111 0.14844 0.66565 0.0
N250 N 0.44472 0.16314 0.77108 0.0
N251 N 0.29809 0.20761 0.65125 0.0
C252 C 0.41494 0.17938 0.73043 0.0
C253 C 0.34015 0.20226 0.66683 0.0
N254 N 0.45464 0.2617 0.80418 0.0
N255 N 0.31408 0.13374 0.56532 0.0
H256 H 0.2934 0.23703 0.67723 0.0
H257 H 0.26496 0.17915 0.62176 0.0
H258 H 0.31637 0.10398 0.53524 0.0
H259 H 0.29074 0.14496 0.53344 0.0
H260 H 0.4859 0.25848 0.82535 0.0
H261 H 0.45461 0.29494 0.82484 0.0
H262 H 0.46737 0.18165 0.82325 0.0
H263 H 0.44352 0.12839 0.75665 0.0
C264 C 0.13447 0.30612 0.82473 0.0
C265 C 0.14037 0.35054 0.86752 0.0
C266 C 0.23022 0.37579 0.90081 0.0
C267 C 0.22702 0.33788 0.8438 0.0
N268 N 0.17674 0.26578 0.75209 0.0
N269 N 0.19056 0.42379 0.95642 0.0
C270 C 0.179 0.30182 0.8076 0.0
C271 C 0.18719 0.38373 0.90988 0.0
N272 N 0.0867 0.26856 0.79914 0.0
N273 N 0.27456 0.40401 0.94577 0.0
H274 H 0.15845 0.42793 0.96868 0.0
H275 H 0.22473 0.45324 0.98151 0.0
H276 H 0.30624 0.39835 0.94015 0.0
H277 H 0.27888 0.43001 0.99283 0.0
H278 H 0.07925 0.23306 0.77503 0.0
H279 H 0.05322 0.27033 0.80941 0.0
H280 H 0.14483 0.24301 0.71464 0.0
H281 H 0.20808 0.26049 0.73958 0.0
C282 C 0.8689 0.16156 0.96204 0.0
C283 C 0.88799 0.21173 0.99643 0.0
C284 C 0.80765 0.18176 0.0759 0.0
C285 C 0.78723 0.13257 0.0371 0.0
N286 N 0.80319 0.07086 0.96403 0.0
N287 N 0.88228 0.2668 0.10078 0.0
C288 C 0.81966 0.12075 0.98776 0.0
C289 C 0.85947 0.22082 0.05854 0.0
N290 N 0.8961 0.15377 0.90017 0.0
N291 N 0.77666 0.19125 0.12735 0.0
H292 H 0.92028 0.2957 0.08922 0.0
H293 H 0.86546 0.27496 0.15136 0.0
H294 H 0.74 0.16215 0.1458 0.0
H295 H 0.78639 0.22768 0.15017 0.0
H296 H 0.88128 0.12021 0.86435 0.0
H297 H 0.93263 0.18224 0.88035 0.0
H298 H 0.82708 0.05912 0.93569 0.0
H299 H 0.76714 0.03992 0.97958 0.0
loop_
_geom_bond_atom_site_label_1
_geom_bond_atom_site_label_2
_geom_bond_distance
_geom_bond_site_symmetry_2
_ccdc_geom_bond_type
Mg0 O1 2.028 . S
Mg0 O7 1.986 . S
Mg0 O9 2.114 1_544 S
Mg0 O10 2.251 1_554 S
Mg0 O13 2.010 1_545 S
O1 Mg0 2.028 . S
O1 C4 1.250 . S
O2 Mg3 2.028 . S
O2 C4 1.248 . S
Mg3 O2 2.028 . S
Mg3 O8 2.032 . S
Mg3 O10 2.079 1_554 S
C4 O1 1.250 . S
C4 O2 1.248 . S
C5 O6 1.264 . S
C5 O13 1.249 . S
O6 C5 1.264 . S
O7 Mg0 1.986 . S
O7 C11 1.246 . S
O8 Mg3 2.032 . S
O8 C11 1.259 . S
O9 Mg0 2.114 1_566 S
O9 C12 1.252 1_565 S
O10 Mg0 2.251 1_556 S
O10 Mg3 2.079 1_556 S
O10 C12 1.273 . S
C11 O7 1.246 . S
C11 O8 1.259 . S
C12 O9 1.252 1_545 S
C12 O10 1.273 . S
O13 Mg0 2.010 1_565 S
O13 C5 1.249 . S
Mg14 O15 2.028 . S
Mg14 O21 1.986 . S
Mg14 O23 2.114 . S
Mg14 O24 2.251 . S
Mg14 O27 2.010 . S
O15 Mg14 2.028 . S
O15 C18 1.250 . S
O16 Mg17 2.028 . S
O16 C18 1.248 . S
Mg17 O16 2.028 . S
Mg17 O22 2.032 . S
Mg17 O24 2.079 . S
C18 O15 1.250 . S
C18 O16 1.248 . S
C19 O20 1.264 . S
C19 O27 1.249 . S
O20 C19 1.264 . S
O21 Mg14 1.986 . S
O21 C25 1.246 . S
O22 Mg17 2.032 . S
O22 C25 1.259 . S
O23 Mg14 2.114 . S
O23 C26 1.252 . S
O24 Mg14 2.251 . S
O24 Mg17 2.079 . S
O24 C26 1.273 . S
C25 O21 1.246 . S
C25 O22 1.259 . S
C26 O23 1.252 . S
C26 O24 1.273 . S
O27 Mg14 2.010 . S
O27 C19 1.249 . S
Mg28 O29 2.028 . S
Mg28 O35 1.986 1_455 S
Mg28 O37 2.114 . S
Mg28 O38 2.251 1_455 S
Mg28 O41 2.010 . S
O29 Mg28 2.028 . S
O29 C32 1.250 . S
O30 Mg31 2.028 . S
O30 C32 1.248 1_655 S
Mg31 O30 2.028 . S
Mg31 O36 2.032 . S
Mg31 O38 2.079 . S
C32 O29 1.250 . S
C32 O30 1.248 1_455 S
C33 O34 1.264 . S
C33 O41 1.249 . S
O34 C33 1.264 . S
O35 Mg28 1.986 1_655 S
O35 C39 1.246 . S
O36 Mg31 2.032 . S
O36 C39 1.259 . S
O37 Mg28 2.114 . S
O37 C40 1.252 . S
O38 Mg28 2.251 1_655 S
O38 Mg31 2.079 . S
O38 C40 1.273 1_655 S
C39 O35 1.246 . S
C39 O36 1.259 . S
C40 O37 1.252 . S
C40 O38 1.273 1_455 S
O41 Mg28 2.010 . S
O41 C33 1.249 . S
Mg42 O43 2.028 . S
Mg42 O49 1.986 1_545 S
Mg42 O51 2.114 . S
Mg42 O52 2.251 1_545 S
Mg42 O55 2.010 . S
O43 Mg42 2.028 . S
O43 C46 1.250 1_545 S
O44 Mg45 2.028 . S
O44 C46 1.248 . S
Mg45 O44 2.028 . S
Mg45 O50 2.032 . S
Mg45 O52 2.079 . S
C46 O43 1.250 1_565 S
C46 O44 1.248 . S
C47 O48 1.264 . S
C47 O55 1.249 . S
O48 C47 1.264 . S
O49 Mg42 1.986 1_565 S
O49 C53 1.246 . S
O50 Mg45 2.032 . S
O50 C53 1.259 . S
O51 Mg42 2.114 . S
O51 C54 1.252 . S
O52 Mg42 2.251 1_565 S
O52 Mg45 2.079 . S
O52 C54 1.273 1_565 S
C53 O49 1.246 . S
C53 O50 1.259 . S
C54 O51 1.252 . S
C54 O52 1.273 1_545 S
O55 Mg42 2.010 . S
O55 C47 1.249 . S
Mg56 O57 2.028 . S
Mg56 O63 1.986 . S
Mg56 O65 2.114 . S
Mg56 O66 2.251 . S
Mg56 O69 2.010 . S
O57 Mg56 2.028 . S
O57 C60 1.250 . S
O58 Mg59 2.028 . S
O58 C60 1.248 . S
Mg59 O58 2.028 . S
Mg59 O64 2.032 . S
Mg59 O66 2.079 . S
C60 O57 1.250 . S
C60 O58 1.248 . S
C61 O62 1.264 . S
C61 O69 1.249 . S
O62 C61 1.264 . S
O63 Mg56 1.986 . S
O63 C67 1.246 . S
O64 Mg59 2.032 . S
O64 C67 1.259 . S
O65 Mg56 2.114 . S
O65 C68 1.252 . S
O66 Mg56 2.251 . S
O66 Mg59 2.079 . S
O66 C68 1.273 . S
C67 O63 1.246 . S
C67 O64 1.259 . S
C68 O65 1.252 . S
C68 O66 1.273 . S
O69 Mg56 2.010 . S
O69 C61 1.249 . S
Mg70 O71 2.028 . S
Mg70 O77 1.986 . S
Mg70 O79 2.114 1_455 S
Mg70 O80 2.251 . S
Mg70 O83 2.010 1_455 S
O71 Mg70 2.028 . S
O71 C74 1.250 1_556 S
O72 Mg73 2.028 . S
O72 C74 1.248 1_556 S
Mg73 O72 2.028 . S
Mg73 O78 2.032 . S
Mg73 O80 2.079 . S
C74 O71 1.250 1_554 S
C74 O72 1.248 1_554 S
C75 O76 1.264 . S
C75 O83 1.249 . S
O76 C75 1.264 . S
O77 Mg70 1.986 . S
O77 C81 1.246 . S
O78 Mg73 2.032 . S
O78 C81 1.259 . S
O79 Mg70 2.114 1_655 S
O79 C82 1.252 1_655 S
O80 Mg70 2.251 . S
O80 Mg73 2.079 . S
O80 C82 1.273 . S
C81 O77 1.246 . S
C81 O78 1.259 . S
C82 O79 1.252 1_455 S
C82 O80 1.273 . S
O83 Mg70 2.010 1_655 S
O83 C75 1.249 . S
C84 C85 1.363 . S
C84 C90 1.379 . S
C84 N92 1.356 . S
C85 C84 1.363 . S
C85 C91 1.363 1_545 S
C86 C87 1.363 1_565 S
C86 C91 1.379 . S
C86 N93 1.356 . S
C87 C86 1.363 1_545 S
C87 C90 1.363 . S
N88 C90 1.356 . S
N88 H100 0.984 . S
N88 H101 0.985 . S
N89 C91 1.356 . S
N89 H94 0.984 . S
N89 H95 0.985 . S
C90 C84 1.379 . S
C90 C87 1.363 . S
C90 N88 1.356 . S
C91 C85 1.363 1_565 S
C91 C86 1.379 . S
C91 N89 1.356 . S
N92 C84 1.356 . S
N92 H98 0.984 . S
N92 H99 0.984 . S
N93 C86 1.356 . S
N93 H96 0.984 . S
N93 H97 0.985 . S
H94 N89 0.984 . S
H95 N89 0.985 . S
H96 N93 0.984 . S
H97 N93 0.985 . S
H98 N92 0.984 . S
H99 N92 0.984 . S
H100 N88 0.984 . S
H101 N88 0.985 . S
C102 C103 1.363 . S
C102 C108 1.379 . S
C102 N110 1.356 . S
C103 C102 1.363 . S
C103 C109 1.363 . S
C104 C105 1.363 . S
C104 C109 1.379 . S
C104 N111 1.356 . S
C105 C104 1.363 . S
C105 C108 1.363 . S
N106 C108 1.356 . S
N106 H118 0.984 . S
N106 H119 0.985 . S
N107 C109 1.356 . S
N107 H112 0.984 . S
N107 H113 0.985 . S
C108 C102 1.379 . S
C108 C105 1.363 . S
C108 N106 1.356 . S
C109 C103 1.363 . S
C109 C104 1.379 . S
C109 N107 1.356 . S
N110 C102 1.356 . S
N110 H116 0.984 . S
N110 H117 0.984 . S
N111 C104 1.356 . S
N111 H114 0.984 . S
N111 H115 0.985 . S
H112 N107 0.984 . S
H113 N107 0.985 . S
H114 N111 0.984 . S
H115 N111 0.985 . S
H116 N110 0.984 . S
H117 N110 0.984 . S
H118 N106 0.984 . S
H119 N106 0.985 . S
C120 C121 1.363 . S
C120 C126 1.379 . S
C120 N128 1.356 . S
C121 C120 1.363 . S
C121 C127 1.363 1_455 S
C122 C123 1.363 1_655 S
C122 C127 1.379 . S
C122 N129 1.356 . S
C123 C122 1.363 1_455 S
C123 C126 1.363 . S
N124 C126 1.356 . S
N124 H136 0.984 . S
N124 H137 0.985 . S
N125 C127 1.356 . S
N125 H130 0.984 . S
N125 H131 0.985 . S
C126 C120 1.379 . S
C126 C123 1.363 . S
C126 N124 1.356 . S
C127 C121 1.363 1_655 S
C127 C122 1.379 . S
C127 N125 1.356 . S
N128 C120 1.356 . S
N128 H134 0.984 . S
N128 H135 0.984 . S
N129 C122 1.356 . S
N129 H132 0.984 . S
N129 H133 0.985 . S
H130 N125 0.984 . S
H131 N125 0.985 . S
H132 N129 0.984 . S
H133 N129 0.985 . S
H134 N128 0.984 . S
H135 N128 0.984 . S
H136 N124 0.984 . S
H137 N124 0.985 . S
C138 C139 1.376 . S
C138 C144 1.379 . S
C138 N146 1.356 . S
C139 C138 1.376 . S
C139 C145 1.356 1_545 S
C140 C141 1.363 1_565 S
C140 C145 1.379 . S
C140 N147 1.356 . S
C141 C140 1.363 1_545 S
C141 C144 1.363 . S
N142 C144 1.356 . S
N142 H154 0.984 . S
N142 H155 0.985 . S
N143 C145 1.356 . S
N143 H148 0.984 . S
N143 H149 0.985 . S
C144 C138 1.379 . S
C144 C141 1.363 . S
C144 N142 1.356 . S
C145 C139 1.356 1_565 S
C145 C140 1.379 . S
C145 N143 1.356 . S
N146 C138 1.356 . S
N146 H152 0.984 . S
N146 H153 0.984 . S
N147 C140 1.356 . S
N147 H150 0.984 . S
N147 H151 0.985 . S
H148 N143 0.984 . S
H149 N143 0.985 . S
H150 N147 0.984 . S
H151 N147 0.985 . S
H152 N146 0.984 . S
H153 N146 0.984 . S
H154 N142 0.984 . S
H155 N142 0.985 . S
C156 C157 1.363 1_556 S
C156 C162 1.379 . S
C156 N164 1.356 . S
C157 C156 1.363 1_554 S
C157 C163 1.363 . S
C158 C159 1.363 . S
C158 C163 1.379 1_556 S
C158 N165 1.356 . S
C159 C158 1.363 . S
C159 C162 1.363 . S
N160 C162 1.356 . S
N160 H172 0.984 . S
N160 H173 0.985 . S
N161 C163 1.356 . S
N161 H166 0.984 . S
N161 H167 0.985 . S
C162 C156 1.379 . S
C162 C159 1.363 . S
C162 N160 1.356 . S
C163 C157 1.363 . S
C163 C158 1.379 1_554 S
C163 N161 1.356 . S
N164 C156 1.356 . S
N164 H170 0.984 . S
N164 H171 0.984 1_556 S
N165 C158 1.356 . S
N165 H168 0.984 . S
N165 H169 0.985 1_556 S
H166 N161 0.984 . S
H167 N161 0.985 . S
H168 N165 0.984 . S
H169 N165 0.985 1_554 S
H170 N164 0.984 . S
H171 N164 0.984 1_554 S
H172 N160 0.984 . S
H173 N160 0.985 . S
C174 C175 1.363 . S
C174 C180 1.379 . S
C174 N182 1.356 1_554 S
C175 C174 1.363 . S
C175 C181 1.363 . S
C176 C177 1.363 . S
C176 C181 1.379 . S
C176 N183 1.356 1_455 S
C177 C176 1.363 . S
C177 C180 1.363 . S
N178 C180 1.356 . S
N178 H190 0.984 . S
N178 H191 0.985 . S
N179 C181 1.356 1_655 S
N179 H184 0.984 . S
N179 H185 0.985 . S
C180 C174 1.379 . S
C180 C177 1.363 . S
C180 N178 1.356 . S
C181 C175 1.363 . S
C181 C176 1.379 . S
C181 N179 1.356 1_455 S
N182 C174 1.356 1_556 S
N182 H188 0.984 . S
N182 H189 0.984 . S
N183 C176 1.356 1_655 S
N183 H186 0.984 . S
N183 H187 0.985 . S
H184 N179 0.984 . S
H185 N179 0.985 . S
H186 N183 0.984 . S
H187 N183 0.985 . S
H188 N182 0.984 . S
H189 N182 0.984 . S
H190 N178 0.984 . S
H191 N178 0.985 . S
C192 C193 1.363 . S
C192 C198 1.379 . S
C192 N200 1.356 . S
C193 C192 1.363 . S
C193 C199 1.363 . S
C194 C195 1.363 . S
C194 C199 1.379 . S
C194 N201 1.356 . S
C195 C194 1.363 . S
C195 C198 1.363 . S
N196 C198 1.356 1_556 S
N196 H208 0.984 . S
N196 H209 0.985 . S
N197 C199 1.356 . S
N197 H202 0.984 . S
N197 H203 0.985 . S
C198 C192 1.379 . S
C198 C195 1.363 . S
C198 N196 1.356 1_554 S
C199 C193 1.363 . S
C199 C194 1.379 . S
C199 N197 1.356 . S
N200 C192 1.356 . S
N200 H206 0.984 . S
N200 H207 0.984 . S
N201 C194 1.356 . S
N201 H204 0.984 . S
N201 H205 0.985 . S
H202 N197 0.984 . S
H203 N197 0.985 . S
H204 N201 0.984 . S
H205 N201 0.985 . S
H206 N200 0.984 . S
H207 N200 0.984 . S
H208 N196 0.984 . S
H209 N196 0.985 . S
C210 C211 1.363 . S
C210 C216 1.379 . S
C210 N218 1.356 . S
C211 C210 1.363 . S
C211 C217 1.363 . S
C212 C213 1.363 . S
C212 C217 1.379 . S
C212 N219 1.356 . S
C213 C212 1.363 . S
C213 C216 1.363 . S
N214 C216 1.356 . S
N214 H226 0.984 . S
N214 H227 0.985 . S
N215 C217 1.356 . S
N215 H220 0.984 . S
N215 H221 0.985 . S
C216 C210 1.379 . S
C216 C213 1.363 . S
C216 N214 1.356 . S
C217 C211 1.363 . S
C217 C212 1.379 . S
C217 N215 1.356 . S
N218 C210 1.356 . S
N218 H224 0.984 . S
N218 H225 0.984 . S
N219 C212 1.356 . S
N219 H222 0.984 . S
N219 H223 0.985 . S
H220 N215 0.984 . S
H221 N215 0.985 . S
H222 N219 0.984 . S
H223 N219 0.985 . S
H224 N218 0.984 . S
H225 N218 0.984 . S
H226 N214 0.984 . S
H227 N214 0.985 . S
C228 C229 1.363 . S
C228 C234 1.379 . S
C228 N236 1.356 . S
C229 C228 1.363 . S
C229 C235 1.363 . S
C230 C231 1.363 . S
C230 C235 1.379 . S
C230 N237 1.356 . S
C231 C230 1.363 . S
C231 C234 1.363 . S
N232 C234 1.356 . S
N232 H244 0.984 . S
N232 H245 0.985 . S
N233 C235 1.356 . S
N233 H238 0.984 . S
N233 H239 0.985 . S
C234 C228 1.379 . S
C234 C231 1.363 . S
C234 N232 1.356 . S
C235 C229 1.363 . S
C235 C230 1.379 . S
C235 N233 1.356 . S
N236 C228 1.356 . S
N236 H242 0.984 . S
N236 H243 0.984 . S
N237 C230 1.356 . S
N237 H240 0.984 . S
N237 H241 0.985 . S
H238 N233 0.984 . S
H239 N233 0.985 . S
H240 N237 0.984 . S
H241 N237 0.985 . S
H242 N236 0.984 . S
H243 N236 0.984 . S
H244 N232 0.984 . S
H245 N232 0.985 . S
C246 C247 1.363 . S
C246 C252 1.379 . S
C246 N254 1.356 . S
C247 C246 1.363 . S
C247 C253 1.363 . S
C248 C249 1.363 . S
C248 C253 1.379 . S
C248 N255 1.356 . S
C249 C248 1.363 . S
C249 C252 1.363 . S
N250 C252 1.356 . S
N250 H262 0.984 . S
N250 H263 0.985 . S
N251 C253 1.356 . S
N251 H256 0.984 . S
N251 H257 0.985 . S
C252 C246 1.379 . S
C252 C249 1.363 . S
C252 N250 1.356 . S
C253 C247 1.363 . S
C253 C248 1.379 . S
C253 N251 1.356 . S
N254 C246 1.356 . S
N254 H260 0.984 . S
N254 H261 0.984 . S
N255 C248 1.356 . S
N255 H258 0.984 . S
N255 H259 0.985 . S
H256 N251 0.984 . S
H257 N251 0.985 . S
H258 N255 0.984 . S
H259 N255 0.985 . S
H260 N254 0.984 . S
H261 N254 0.984 . S
H262 N250 0.984 . S
H263 N250 0.985 . S
C264 C265 1.363 . S
C264 C270 1.379 . S
C264 N272 1.356 . S
C265 C264 1.363 . S
C265 C271 1.363 . S
C266 C267 1.363 . S
C266 C271 1.379 . S
C266 N273 1.356 . S
C267 C266 1.363 . S
C267 C270 1.363 . S
N268 C270 1.356 . S
N268 H280 0.984 . S
N268 H281 0.985 . S
N269 C271 1.356 . S
N269 H274 0.984 . S
N269 H275 0.985 . S
C270 C264 1.379 . S
C270 C267 1.363 . S
C270 N268 1.356 . S
C271 C265 1.363 . S
C271 C266 1.379 . S
C271 N269 1.356 . S
N272 C264 1.356 . S
N272 H278 0.984 . S
N272 H279 0.984 . S
N273 C266 1.356 . S
N273 H276 0.984 . S
N273 H277 0.985 . S
H274 N269 0.984 . S
H275 N269 0.985 . S
H276 N273 0.984 . S
H277 N273 0.985 . S
H278 N272 0.984 . S
H279 N272 0.984 . S
H280 N268 0.984 . S
H281 N268 0.985 . S
C282 C283 1.363 . S
C282 C288 1.379 . S
C282 N290 1.356 . S
C283 C282 1.363 . S
C283 C289 1.359 1_556 S
C284 C285 1.363 . S
C284 C289 1.382 . S
C284 N291 1.356 . S
C285 C284 1.363 . S
C285 C288 1.363 1_554 S
N286 C288 1.356 . S
N286 H298 0.984 . S
N286 H299 0.985 1_556 S
N287 C289 1.356 1_556 S
N287 H292 0.984 . S
N287 H293 0.985 1_556 S
C288 C282 1.379 . S
C288 C285 1.363 1_556 S
C288 N286 1.356 . S
C289 C283 1.359 1_554 S
C289 C284 1.382 . S
C289 N287 1.356 1_554 S
N290 C282 1.356 . S
N290 H296 0.984 . S
N290 H297 0.984 . S
N291 C284 1.356 . S
N291 H294 0.984 . S
N291 H295 0.985 . S
H292 N287 0.984 . S
H293 N287 0.985 1_554 S
H294 N291 0.984 . S
H295 N291 0.985 . S
H296 N290 0.984 . S
H297 N290 0.984 . S
H298 N286 0.984 . S
H299 N286 0.985 1_554 S
C85 C4 1.365 . S
C87 C54 1.408 . S
C103 C18 1.365 . S
C105 C68 1.408 . S
C121 C82 1.408 . S
C123 C32 1.365 . S
C139 C12 1.404 . S
C141 C46 1.365 1_545 S
C157 C26 1.408 . S
C159 C60 1.365 . S
C175 C74 1.365 . S
C177 C40 1.408 . S
C193 C25 1.446 . S
C195 C5 1.334 . S
C211 C39 1.446 . S
C213 C19 1.334 . S
C229 C33 1.334 . S
C231 C53 1.446 . S
C247 C67 1.446 . S
C249 C47 1.334 . S
C265 C81 1.446 . S
C267 C61 1.334 . S
C283 C75 1.334 . S
C285 C11 1.446 . S
