# Generated by pormake.
# Topology can, (4)-cn, num edge types: 1
# Building blocks:
#     Node 0, Type 0, BuildingBlock: CEKHIL_clean_sbu_0, # of connection points: 4
#     Node 1, Type 0, BuildingBlock: CEKHIL_clean_sbu_0, # of connection points: 4
#     Node 2, Type 0, BuildingBlock: CEKHIL_clean_sbu_0, # of connection points: 4
#     Node 3, Type 0, BuildingBlock: CEKHIL_clean_sbu_0, # of connection points: 4
#     Node 4, Type 0, BuildingBlock: CEKHIL_clean_sbu_0, # of connection points: 4
#     Node 5, Type 0, BuildingBlock: CEKHIL_clean_sbu_0, # of connection points: 4
#     Node 6, Type 0, BuildingBlock: CEKHIL_clean_sbu_0, # of connection points: 4
#     Node 7, Type 0, BuildingBlock: CEKHIL_clean_sbu_0, # of connection points: 4
#     Node 8, Type 0, BuildingBlock: CEKHIL_clean_sbu_0, # of connection points: 4
#     Node 9, Type 0, BuildingBlock: CEKHIL_clean_sbu_0, # of connection points: 4
#     Node 10, Type 0, BuildingBlock: CEKHIL_clean_sbu_0, # of connection points: 4
#     Node 11, Type 0, BuildingBlock: CEKHIL_clean_sbu_0, # of connection points: 4
#     Edge 12, Type (0, 0), BuildingBlock: OJICUG_clean_linker_0, # of connection points: 2
#     Edge 13, Type (0, 0), BuildingBlock: OJICUG_clean_linker_0, # of connection points: 2
#     Edge 14, Type (0, 0), BuildingBlock: OJICUG_clean_linker_0, # of connection points: 2
#     Edge 15, Type (0, 0), BuildingBlock: OJICUG_clean_linker_0, # of connection points: 2
#     Edge 16, Type (0, 0), BuildingBlock: OJICUG_clean_linker_0, # of connection points: 2
#     Edge 17, Type (0, 0), BuildingBlock: OJICUG_clean_linker_0, # of connection points: 2
#     Edge 18, Type (0, 0), BuildingBlock: OJICUG_clean_linker_0, # of connection points: 2
#     Edge 19, Type (0, 0), BuildingBlock: OJICUG_clean_linker_0, # of connection points: 2
#     Edge 20, Type (0, 0), BuildingBlock: OJICUG_clean_linker_0, # of connection points: 2
#     Edge 21, Type (0, 0), BuildingBlock: OJICUG_clean_linker_0, # of connection points: 2
#     Edge 22, Type (0, 0), BuildingBlock: OJICUG_clean_linker_0, # of connection points: 2
#     Edge 23, Type (0, 0), BuildingBlock: OJICUG_clean_linker_0, # of connection points: 2
#     Edge 24, Type (0, 0), BuildingBlock: OJICUG_clean_linker_0, # of connection points: 2
#     Edge 25, Type (0, 0), BuildingBlock: OJICUG_clean_linker_0, # of connection points: 2
#     Edge 26, Type (0, 0), BuildingBlock: OJICUG_clean_linker_0, # of connection points: 2
#     Edge 27, Type (0, 0), BuildingBlock: OJICUG_clean_linker_0, # of connection points: 2
#     Edge 28, Type (0, 0), BuildingBlock: OJICUG_clean_linker_0, # of connection points: 2
#     Edge 29, Type (0, 0), BuildingBlock: OJICUG_clean_linker_0, # of connection points: 2
#     Edge 30, Type (0, 0), BuildingBlock: OJICUG_clean_linker_0, # of connection points: 2
#     Edge 31, Type (0, 0), BuildingBlock: OJICUG_clean_linker_0, # of connection points: 2
#     Edge 32, Type (0, 0), BuildingBlock: OJICUG_clean_linker_0, # of connection points: 2
#     Edge 33, Type (0, 0), BuildingBlock: OJICUG_clean_linker_0, # of connection points: 2
#     Edge 34, Type (0, 0), BuildingBlock: OJICUG_clean_linker_0, # of connection points: 2
#     Edge 35, Type (0, 0), BuildingBlock: OJICUG_clean_linker_0, # of connection points: 2
# Relax obj value: 0.060
# Max RMSD: 0.043
# Mean RMSD: 0.043
data_MOF--net-can--node1-CEKHIL_clean_sbu_0--edge1-OJICUG_clean_linker_0
_symmetry_space_group_name_H-M    P1
_symmetry_Int_Tables_number       1
_symmetry_cell_setting            triclinic
loop_
_symmetry_equiv_pos_as_xyz
'x, y, z'
_cell_length_a     39.663232
_cell_length_b     39.665482
_cell_length_c     19.649199
_cell_angle_alpha  90.009169
_cell_angle_beta   89.996724
_cell_angle_gamma 119.98107
loop_
_atom_site_label
_atom_site_type_symbol
_atom_site_fract_x
_atom_site_fract_y
_atom_site_fract_z
_atom_type_partial_charge
Co0 Co 0.07533 0.39851 0.26655 0.0
O1 O 0.10013 0.36718 0.27035 0.0
O2 O 0.12911 0.42835 0.23611 0.0
C3 C 0.04864 0.3826 0.37159 0.0
O4 O 0.06007 0.44077 0.25847 0.0
Co5 Co 0.98488 0.35974 0.27669 0.0
O6 O 0.99638 0.4143 0.2831 0.0
C7 C 0.02073 0.35671 0.14671 0.0
C8 C 0.13182 0.39772 0.25018 0.0
C9 C 0.02941 0.44359 0.26855 0.0
O10 O 0.05523 0.37936 0.17085 0.0
O11 O 0.98981 0.34321 0.18284 0.0
O12 O 0.08481 0.4094 0.36409 0.0
O13 O 0.03118 0.36425 0.31691 0.0
Co14 Co 0.68307 0.07205 0.76911 0.0
O15 O 0.73921 0.09692 0.77252 0.0
O16 O 0.70683 0.12572 0.73818 0.0
C17 C 0.67248 0.04559 0.87432 0.0
O18 O 0.62553 0.05669 0.76136 0.0
Co19 Co 0.63154 0.98163 0.77979 0.0
O20 O 0.58853 0.99316 0.7871 0.0
C21 C 0.67013 0.01721 0.64954 0.0
C22 C 0.74023 0.1285 0.752 0.0
C23 C 0.59213 0.0261 0.77222 0.0
O24 O 0.68198 0.05174 0.67353 0.0
O25 O 0.65276 0.98634 0.68579 0.0
O26 O 0.68184 0.08176 0.86661 0.0
O27 O 0.67334 0.02803 0.81974 0.0
Co28 Co 0.61693 0.67985 0.27031 0.0
O29 O 0.64817 0.73598 0.27351 0.0
O30 O 0.58698 0.70359 0.23935 0.0
C31 C 0.63289 0.66941 0.37554 0.0
O32 O 0.57475 0.62229 0.26286 0.0
Co33 Co 0.65583 0.62832 0.28116 0.0
O34 O 0.60132 0.58543 0.28962 0.0
C35 C 0.65878 0.66678 0.15079 0.0
C36 C 0.61759 0.73699 0.25306 0.0
C37 C 0.57195 0.58895 0.27449 0.0
O38 O 0.63608 0.67864 0.17473 0.0
O39 O 0.67228 0.64943 0.1871 0.0
O40 O 0.60607 0.67876 0.36782 0.0
O41 O 0.65126 0.67019 0.32095 0.0
Co42 Co 0.94337 0.61379 0.76605 0.0
O43 O 0.91861 0.64516 0.77027 0.0
O44 O 0.88959 0.58406 0.73558 0.0
C45 C 0.97008 0.62943 0.87112 0.0
O46 O 0.95855 0.5715 0.75748 0.0
Co47 Co 0.03381 0.65245 0.77604 0.0
O48 O 0.02234 0.59787 0.78125 0.0
C49 C 0.99796 0.65582 0.6463 0.0
C50 C 0.88691 0.61467 0.74995 0.0
C51 C 0.98923 0.56863 0.76688 0.0
O52 O 0.96346 0.63312 0.67041 0.0
O53 O 0.02889 0.66924 0.6824 0.0
O54 O 0.93389 0.60269 0.86353 0.0
O55 O 0.98755 0.6479 0.81654 0.0
Co56 Co 0.33554 0.9402 0.26867 0.0
O57 O 0.2794 0.91532 0.27187 0.0
O58 O 0.31181 0.88653 0.23772 0.0
C59 C 0.34602 0.96665 0.37388 0.0
O60 O 0.3931 0.95556 0.26116 0.0
Co61 Co 0.38705 0.03062 0.27945 0.0
O62 O 0.43004 0.01907 0.28718 0.0
C63 C 0.3486 0.99505 0.14909 0.0
C64 C 0.27841 0.88374 0.2514 0.0
C65 C 0.42647 0.98615 0.27227 0.0
O66 O 0.33673 0.96052 0.17308 0.0
O67 O 0.36592 0.02592 0.18538 0.0
O68 O 0.33666 0.93048 0.36619 0.0
O69 O 0.34521 0.98421 0.31928 0.0
Co70 Co 0.40178 0.33247 0.77021 0.0
O71 O 0.37053 0.27633 0.77333 0.0
O72 O 0.43173 0.30873 0.73923 0.0
C73 C 0.38579 0.34288 0.87545 0.0
O74 O 0.44396 0.39003 0.76285 0.0
Co75 Co 0.36289 0.38401 0.78113 0.0
O76 O 0.4174 0.42688 0.78972 0.0
C77 C 0.35997 0.34559 0.6507 0.0
C78 C 0.40112 0.27533 0.75289 0.0
C79 C 0.44677 0.42337 0.77457 0.0
O80 O 0.38265 0.33371 0.67463 0.0
O81 O 0.34646 0.36294 0.68704 0.0
O82 O 0.41261 0.33353 0.86773 0.0
O83 O 0.36744 0.34212 0.82085 0.0
Co84 Co 0.6169 0.94002 0.23838 0.0
O85 O 0.64814 0.91511 0.23489 0.0
O86 O 0.58698 0.88633 0.26919 0.0
C87 C 0.6328 0.96653 0.13321 0.0
O88 O 0.57474 0.95543 0.24618 0.0
Co89 Co 0.65586 0.03046 0.22787 0.0
O90 O 0.60134 0.01901 0.22064 0.0
C91 C 0.65883 0.99477 0.35802 0.0
C92 C 0.61757 0.88352 0.25533 0.0
C93 C 0.57198 0.98607 0.23544 0.0
O94 O 0.6361 0.96026 0.33399 0.0
O95 O 0.67237 0.02565 0.3218 0.0
O96 O 0.60598 0.93038 0.14087 0.0
O97 O 0.65121 0.98405 0.18781 0.0
Co98 Co 0.68315 0.61396 0.73951 0.0
O99 O 0.73927 0.64528 0.73562 0.0
O100 O 0.70711 0.58414 0.77005 0.0
C101 C 0.67229 0.62973 0.63441 0.0
O102 O 0.62565 0.57173 0.74769 0.0
Co103 Co 0.63149 0.65277 0.72928 0.0
O104 O 0.58845 0.59822 0.72297 0.0
C105 C 0.67037 0.65586 0.85927 0.0
C106 C 0.74042 0.61475 0.75589 0.0
C107 C 0.59218 0.56892 0.73758 0.0
O108 O 0.68224 0.63321 0.83516 0.0
O109 O 0.65293 0.66935 0.82312 0.0
O110 O 0.6817 0.60296 0.64201 0.0
O111 O 0.67323 0.64817 0.68901 0.0
Co112 Co 0.07545 0.68007 0.23536 0.0
O113 O 0.10033 0.73621 0.23215 0.0
O114 O 0.1291 0.70381 0.26647 0.0
C115 C 0.04912 0.66957 0.13006 0.0
O116 O 0.06009 0.62251 0.24287 0.0
Co117 Co 0.98505 0.62856 0.22436 0.0
O118 O 0.9967 0.58566 0.21601 0.0
C119 C 0.02048 0.66699 0.3548 0.0
C120 C 0.13189 0.73721 0.25273 0.0
C121 C 0.02956 0.58917 0.23121 0.0
O122 O 0.05504 0.67888 0.33089 0.0
O123 O 0.98964 0.64963 0.31846 0.0
O124 O 0.08528 0.67895 0.13787 0.0
O125 O 0.0315 0.67039 0.18459 0.0
Co126 Co 0.40176 0.07227 0.73795 0.0
O127 O 0.37053 0.09719 0.73455 0.0
O128 O 0.43171 0.12597 0.76878 0.0
C129 C 0.3858 0.04576 0.63277 0.0
O130 O 0.44391 0.05685 0.74566 0.0
Co131 Co 0.36281 0.98183 0.72735 0.0
O132 O 0.41732 0.99329 0.71995 0.0
C133 C 0.35989 0.01752 0.85758 0.0
C134 C 0.40111 0.12878 0.75498 0.0
C135 C 0.44668 0.02622 0.73481 0.0
O136 O 0.3826 0.05203 0.83356 0.0
O137 O 0.34634 0.98663 0.82134 0.0
O138 O 0.41263 0.08191 0.64042 0.0
O139 O 0.36742 0.02825 0.68739 0.0
Co140 Co 0.33557 0.3984 0.23944 0.0
O141 O 0.27945 0.3671 0.23558 0.0
O142 O 0.31163 0.42824 0.27 0.0
C143 C 0.34639 0.38259 0.13434 0.0
O144 O 0.39307 0.44061 0.24759 0.0
Co145 Co 0.3872 0.35956 0.22917 0.0
O146 O 0.43025 0.4141 0.22278 0.0
C147 C 0.34835 0.35651 0.35919 0.0
C148 C 0.27831 0.39764 0.25585 0.0
C149 C 0.42653 0.44341 0.23742 0.0
O150 O 0.33649 0.37917 0.33509 0.0
O151 O 0.36578 0.34301 0.32303 0.0
O152 O 0.337 0.40938 0.14194 0.0
O153 O 0.34546 0.36416 0.18893 0.0
Co154 Co 0.94317 0.33212 0.73565 0.0
O155 O 0.91832 0.27598 0.73295 0.0
O156 O 0.88952 0.30846 0.76673 0.0
C157 C 0.96949 0.34231 0.63039 0.0
O158 O 0.95851 0.3897 0.74254 0.0
Co159 Co 0.03356 0.38367 0.72451 0.0
O160 O 0.02178 0.42642 0.71482 0.0
C161 C 0.99818 0.34557 0.85518 0.0
C162 C 0.88674 0.27502 0.75334 0.0
C163 C 0.98895 0.42298 0.73012 0.0
O164 O 0.96361 0.3336 0.83126 0.0
O165 O 0.02901 0.36288 0.8188 0.0
O166 O 0.93332 0.33294 0.63811 0.0
O167 O 0.98712 0.34166 0.68503 0.0
C168 C 0.97752 0.32834 0.04438 0.0
C169 C 0.01534 0.34861 0.07237 0.0
H170 H 0.9423 0.31133 0.9544 0.0
C171 C 0.04729 0.36393 0.02795 0.0
H172 H 0.95205 0.31583 0.07684 0.0
C173 C 0.04157 0.36101 0.95745 0.0
C174 C 1.00372 0.34295 0.92949 0.0
H175 H 0.07677 0.37947 0.04745 0.0
H176 H 0.06702 0.37447 0.92499 0.0
C177 C 0.97179 0.32569 0.9739 0.0
C178 C 0.68714 0.038 0.46035 0.0
C179 C 0.66702 1.00018 0.43233 0.0
H180 H 0.70407 0.07318 0.55039 0.0
C181 C 0.65196 0.96822 0.4767 0.0
H182 H 0.69944 0.06348 0.42792 0.0
C183 C 0.65496 0.97392 0.5472 0.0
C184 C 0.67284 0.01175 0.57522 0.0
H185 H 0.63656 0.93875 0.45716 0.0
H186 H 0.64169 0.94845 0.57963 0.0
C187 C 0.68987 0.0437 0.53085 0.0
C188 C 0.65226 0.68672 0.03211 0.0
C189 C 0.66703 0.66954 0.0765 0.0
H190 H 0.64233 0.69655 0.92918 0.0
C191 C 0.68697 0.65163 0.04851 0.0
H192 H 0.63701 0.70096 0.05163 0.0
C193 C 0.68982 0.64876 0.97801 0.0
C194 C 0.67307 0.66398 0.93361 0.0
H195 H 0.69905 0.63824 0.08096 0.0
H196 H 0.70386 0.63332 0.95849 0.0
C197 C 0.65538 0.68412 0.96163 0.0
C198 C 0.04689 0.68694 0.4735 0.0
C199 C 0.01496 0.66972 0.4291 0.0
H200 H 0.06664 0.69673 0.57644 0.0
C201 C 0.97711 0.65172 0.45708 0.0
H202 H 0.07638 0.70125 0.45399 0.0
C203 C 0.97139 0.64878 0.52758 0.0
C204 C 1.00335 0.66403 0.57199 0.0
H205 H 0.95166 0.6383 0.42461 0.0
H206 H 0.94192 0.63326 0.54709 0.0
C207 C 0.04117 0.68428 0.54399 0.0
C208 C 0.36679 0.04405 0.97629 0.0
C209 C 0.35173 0.01209 0.9319 0.0
H210 H 0.37705 0.06381 0.07923 0.0
C211 C 0.33163 0.97427 0.95989 0.0
H212 H 0.38218 0.07353 0.95677 0.0
C213 C 0.32891 0.96856 0.03038 0.0
C214 C 0.34592 1.00051 0.07477 0.0
H215 H 0.31933 0.9488 0.92744 0.0
H216 H 0.31471 0.93908 0.0499 0.0
C217 C 0.36379 0.03834 0.04678 0.0
C218 C 0.36334 0.32824 0.46152 0.0
C219 C 0.34566 0.34841 0.43353 0.0
H220 H 0.3817 0.31138 0.5515 0.0
C221 C 0.32895 0.36365 0.47796 0.0
H222 H 0.37637 0.3158 0.42905 0.0
C223 C 0.3318 0.36077 0.54845 0.0
C224 C 0.35172 0.34284 0.57641 0.0
H225 H 0.31492 0.37911 0.45845 0.0
H226 H 0.31974 0.37418 0.58091 0.0
C227 C 0.36647 0.32564 0.532 0.0
C228 C 0.03114 0.65829 0.94026 0.0
C229 C 0.99026 0.63795 0.93731 0.0
H230 H 0.08186 0.68363 0.00382 0.0
C231 C 0.96891 0.62693 0.99817 0.0
H232 H 0.04835 0.66706 0.89411 0.0
C233 C 0.98809 0.63709 0.06089 0.0
C234 C 0.02897 0.65768 0.06385 0.0
H235 H 0.93738 0.61131 0.99735 0.0
H236 H 0.97086 0.62886 0.107 0.0
C237 C 0.05033 0.6677 1.00299 0.0
C238 C 0.34765 0.96549 0.50095 0.0
C239 C 0.35779 0.98682 0.44008 0.0
H240 H 0.34809 0.96749 0.6098 0.0
C241 C 0.37838 0.0277 0.443 0.0
H242 H 0.33172 0.93396 0.50014 0.0
C243 C 0.38843 0.04691 0.50571 0.0
C244 C 0.3773 0.02558 0.56658 0.0
H245 H 0.38669 0.04491 0.39686 0.0
H246 H 0.40406 0.07844 0.50651 0.0
C247 C 0.35694 0.9847 0.56366 0.0
C248 C 0.35709 0.37522 0.94459 0.0
C249 C 0.37739 0.35464 0.94166 0.0
H250 H 0.33201 0.40089 0.00811 0.0
C251 C 0.38859 0.34448 1.00252 0.0
H252 H 0.34818 0.38355 0.89846 0.0
C253 C 0.37865 0.35376 0.06524 0.0
C254 C 0.35812 0.37412 0.06816 0.0
H255 H 0.40418 0.32855 1.0017 0.0
H256 H 0.38701 0.3449 0.11139 0.0
C257 C 0.34792 0.38526 0.0073 0.0
C258 C 0.03054 0.37478 0.56132 0.0
C259 C 0.98966 0.35415 0.56422 0.0
H260 H 0.08129 0.40063 0.49786 0.0
C261 C 0.96833 0.34412 0.50334 0.0
H262 H 0.04776 0.38301 0.60746 0.0
C263 C 0.98755 0.35357 0.44063 0.0
C264 C 0.02843 0.37397 0.43775 0.0
H265 H 0.9368 0.32817 0.50412 0.0
H266 H 0.97036 0.34481 0.39447 0.0
C267 C 0.04976 0.38498 0.49864 0.0
C268 C 0.67088 0.04678 1.00139 0.0
C269 C 0.66071 0.02543 0.94052 0.0
H270 H 0.6705 0.0448 0.11024 0.0
C271 C 0.64012 0.98455 0.94344 0.0
H272 H 0.68682 0.0783 1.00058 0.0
C273 C 0.6301 0.96536 0.00615 0.0
C274 C 0.64127 0.9867 0.06702 0.0
H275 H 0.63178 0.96733 0.8973 0.0
H276 H 0.61447 0.93383 0.00696 0.0
C277 C 0.66162 0.02758 0.0641 0.0
C278 C 0.6616 0.63707 0.44467 0.0
C279 C 0.64128 0.65765 0.44174 0.0
H280 H 0.68669 0.61143 0.50818 0.0
C281 C 0.63007 0.6678 0.50261 0.0
H282 H 0.67051 0.62876 0.39854 0.0
C283 C 0.64001 0.65853 0.56532 0.0
C284 C 0.66055 0.63818 0.56824 0.0
H285 H 0.61447 0.68372 0.50179 0.0
H286 H 0.63164 0.66738 0.61147 0.0
C287 C 0.67077 0.62705 0.50737 0.0
C288 C 0.06634 0.55253 0.24783 0.0
C289 C 0.03109 0.55261 0.23949 0.0
H290 H 0.0938 0.518 0.26311 0.0
C291 C 0.99606 0.51678 0.24079 0.0
H292 H 0.09387 0.57958 0.24714 0.0
C293 C 0.99601 0.48202 0.2507 0.0
C294 C 0.03099 0.4816 0.25904 0.0
H295 H 0.96823 0.51538 0.23489 0.0
H296 H 0.96819 0.45527 0.25124 0.0
C297 C 0.06631 0.51728 0.25699 0.0
C298 C 0.52023 0.06302 0.74895 0.0
C299 C 0.4847 0.02771 0.74369 0.0
H300 H 0.58238 0.09053 0.76159 0.0
C301 C 0.48526 0.99263 0.74847 0.0
H302 H 0.52086 0.09058 0.74558 0.0
C303 C 0.51998 0.9926 0.75841 0.0
C304 C 0.55563 0.02765 0.7633 0.0
H305 H 0.45865 0.96478 0.74521 0.0
H306 H 0.51871 0.96472 0.76159 0.0
C307 C 0.55545 0.06299 0.75814 0.0
C308 C 0.53308 0.51657 0.26479 0.0
C309 C 0.53387 0.5524 0.26628 0.0
H310 H 0.49945 0.45506 0.25426 0.0
C311 C 0.49853 0.55233 0.25819 0.0
H312 H 0.55951 0.51516 0.27049 0.0
C313 C 0.46331 0.51709 0.2491 0.0
C314 C 0.46296 0.48141 0.24687 0.0
H315 H 0.49805 0.57938 0.25903 0.0
H316 H 0.43654 0.51781 0.24318 0.0
C317 C 0.49837 0.48181 0.25496 0.0
C318 C 0.02238 0.53032 0.74534 0.0
C319 C 0.98756 0.53064 0.75681 0.0
H320 H 0.04999 0.49701 0.7273 0.0
C321 C 0.95234 0.49486 0.75767 0.0
H322 H 0.05008 0.55717 0.74344 0.0
C323 C 0.95228 0.45959 0.74865 0.0
C324 C 0.98739 0.45957 0.73757 0.0
H325 H 0.92499 0.49409 0.7662 0.0
H326 H 0.92486 0.43246 0.75049 0.0
C327 C 0.02228 0.49552 0.73558 0.0
C328 C 0.46316 0.94927 0.25795 0.0
C329 C 0.46299 0.9846 0.26364 0.0
H330 H 0.49774 0.92169 0.24505 0.0
C331 C 0.49869 0.01965 0.25954 0.0
H332 H 0.4362 0.92173 0.2608 0.0
C333 C 0.53343 0.01964 0.24975 0.0
C334 C 0.53396 0.98457 0.24435 0.0
H335 H 0.49998 0.04753 0.2632 0.0
H336 H 0.56007 0.04749 0.24707 0.0
C337 C 0.49839 0.94925 0.24891 0.0
C338 C 0.52037 0.53052 0.75544 0.0
C339 C 0.55577 0.53092 0.74708 0.0
H340 H 0.45925 0.49718 0.77117 0.0
C341 C 0.5554 0.49523 0.74904 0.0
H342 H 0.51931 0.55728 0.75497 0.0
C343 C 0.52019 0.45999 0.75811 0.0
C344 C 0.48486 0.45992 0.76644 0.0
H345 H 0.58216 0.4945 0.7429 0.0
H346 H 0.52065 0.43293 0.75871 0.0
C347 C 0.48567 0.49576 0.76526 0.0
C348 C 0.20522 0.43334 0.25093 0.0
C349 C 0.16952 0.39812 0.24925 0.0
H350 H 0.26757 0.4609 0.25618 0.0
C351 C 0.17005 0.36295 0.25144 0.0
H352 H 0.20581 0.46094 0.25008 0.0
C353 C 0.20533 0.36293 0.2545 0.0
C354 C 0.24102 0.39808 0.2568 0.0
H355 H 0.14312 0.33531 0.2506 0.0
H356 H 0.2046 0.33527 0.25525 0.0
C357 C 0.24057 0.43332 0.25524 0.0
C358 C 0.81334 0.23729 0.75413 0.0
C359 C 0.84904 0.23775 0.7554 0.0
H360 H 0.75096 0.20249 0.75025 0.0
C361 C 0.84851 0.20204 0.754 0.0
H362 H 0.81275 0.26429 0.75442 0.0
C363 C 0.81322 0.16675 0.75206 0.0
C364 C 0.77751 0.1662 0.75014 0.0
H365 H 0.87545 0.20132 0.75458 0.0
H366 H 0.81395 0.13981 0.75185 0.0
C367 C 0.77796 0.2019 0.75095 0.0
C368 C 0.65231 0.80997 0.25297 0.0
C369 C 0.61716 0.77427 0.25127 0.0
H370 H 0.67997 0.87219 0.25558 0.0
C371 C 0.58192 0.77474 0.25251 0.0
H372 H 0.67997 0.81068 0.25243 0.0
C373 C 0.58192 0.81013 0.25594 0.0
C374 C 0.61715 0.84582 0.25703 0.0
H375 H 0.55433 0.74774 0.25201 0.0
H376 H 0.55433 0.80955 0.25659 0.0
C377 C 0.65231 0.84526 0.25515 0.0
C378 C 0.84869 0.64945 0.75155 0.0
C379 C 0.84921 0.61429 0.74914 0.0
H380 H 0.81414 0.67713 0.75557 0.0
C381 C 0.81352 0.57907 0.75068 0.0
H382 H 0.87563 0.6771 0.75083 0.0
C383 C 0.77816 0.57908 0.75505 0.0
C384 C 0.77772 0.61432 0.75681 0.0
H385 H 0.81292 0.55147 0.74966 0.0
H386 H 0.75116 0.5515 0.75587 0.0
C387 C 0.81341 0.64947 0.75466 0.0
C388 C 0.20541 0.84549 0.25109 0.0
C389 C 0.24113 0.84604 0.24946 0.0
H390 H 0.14318 0.81092 0.25339 0.0
C391 C 0.24068 0.81034 0.25052 0.0
H392 H 0.20469 0.87243 0.25068 0.0
C393 C 0.20529 0.77496 0.2537 0.0
C394 C 0.16959 0.77449 0.25471 0.0
H395 H 0.26768 0.80975 0.25005 0.0
H396 H 0.20589 0.74796 0.25421 0.0
C397 C 0.17012 0.8102 0.25302 0.0
C398 C 0.36638 0.20235 0.75274 0.0
C399 C 0.40154 0.23804 0.75106 0.0
H400 H 0.33872 0.14012 0.7553 0.0
C401 C 0.43678 0.23757 0.75226 0.0
H402 H 0.33873 0.20164 0.75223 0.0
C403 C 0.43677 0.20218 0.75564 0.0
C404 C 0.40154 0.16649 0.75672 0.0
H405 H 0.46437 0.26456 0.75176 0.0
H406 H 0.46436 0.20275 0.75627 0.0
C407 C 0.36638 0.16705 0.75488 0.0
loop_
_geom_bond_atom_site_label_1
_geom_bond_atom_site_label_2
_geom_bond_distance
_geom_bond_site_symmetry_2
_ccdc_geom_bond_type
Co0 O1 2.216 . S
Co0 O2 2.091 . S
Co0 O4 2.004 . S
Co0 O10 2.021 . S
Co0 O12 2.137 . S
Co0 O13 2.244 . S
O1 Co0 2.216 . S
O1 C8 1.247 . S
O2 Co0 2.091 . S
O2 C8 1.261 . S
C3 O12 1.247 . S
C3 O13 1.272 . S
O4 Co0 2.004 . S
O4 C9 1.259 . S
Co5 O6 2.061 1_655 S
Co5 O11 2.052 . S
Co5 O13 2.135 1_655 S
O6 Co5 2.061 1_455 S
O6 C9 1.235 . S
C7 O10 1.238 . S
C7 O11 1.241 1_455 S
C8 O1 1.247 . S
C8 O2 1.261 . S
C9 O4 1.259 . S
C9 O6 1.235 . S
O10 Co0 2.021 . S
O10 C7 1.238 . S
O11 Co5 2.052 . S
O11 C7 1.241 1_655 S
O12 Co0 2.137 . S
O12 C3 1.247 . S
O13 Co0 2.244 . S
O13 C3 1.272 . S
O13 Co5 2.135 1_455 S
Co14 O15 2.216 . S
Co14 O16 2.091 . S
Co14 O18 2.004 . S
Co14 O24 2.021 . S
Co14 O26 2.137 . S
Co14 O27 2.244 . S
O15 Co14 2.216 . S
O15 C22 1.247 . S
O16 Co14 2.091 . S
O16 C22 1.261 . S
C17 O26 1.247 . S
C17 O27 1.272 . S
O18 Co14 2.004 . S
O18 C23 1.259 . S
Co19 O20 2.061 1_565 S
Co19 O25 2.052 . S
Co19 O27 2.135 1_565 S
O20 Co19 2.061 1_545 S
O20 C23 1.235 . S
C21 O24 1.238 . S
C21 O25 1.241 1_545 S
C22 O15 1.247 . S
C22 O16 1.261 . S
C23 O18 1.259 . S
C23 O20 1.235 . S
O24 Co14 2.021 . S
O24 C21 1.238 . S
O25 Co19 2.052 . S
O25 C21 1.241 1_565 S
O26 Co14 2.137 . S
O26 C17 1.247 . S
O27 Co14 2.244 . S
O27 C17 1.272 . S
O27 Co19 2.135 1_545 S
Co28 O29 2.216 . S
Co28 O30 2.091 . S
Co28 O32 2.004 . S
Co28 O38 2.021 . S
Co28 O40 2.137 . S
Co28 O41 2.244 . S
O29 Co28 2.216 . S
O29 C36 1.247 . S
O30 Co28 2.091 . S
O30 C36 1.261 . S
C31 O40 1.247 . S
C31 O41 1.272 . S
O32 Co28 2.004 . S
O32 C37 1.259 . S
Co33 O34 2.061 . S
Co33 O39 2.052 . S
Co33 O41 2.135 . S
O34 Co33 2.061 . S
O34 C37 1.235 . S
C35 O38 1.238 . S
C35 O39 1.241 . S
C36 O29 1.247 . S
C36 O30 1.261 . S
C37 O32 1.259 . S
C37 O34 1.235 . S
O38 Co28 2.021 . S
O38 C35 1.238 . S
O39 Co33 2.052 . S
O39 C35 1.241 . S
O40 Co28 2.137 . S
O40 C31 1.247 . S
O41 Co28 2.244 . S
O41 C31 1.272 . S
O41 Co33 2.135 . S
Co42 O43 2.216 . S
Co42 O44 2.091 . S
Co42 O46 2.004 . S
Co42 O52 2.021 . S
Co42 O54 2.137 . S
Co42 O55 2.244 . S
O43 Co42 2.216 . S
O43 C50 1.247 . S
O44 Co42 2.091 . S
O44 C50 1.261 . S
C45 O54 1.247 . S
C45 O55 1.272 . S
O46 Co42 2.004 . S
O46 C51 1.259 . S
Co47 O48 2.061 1_455 S
Co47 O53 2.052 . S
Co47 O55 2.135 1_455 S
O48 Co47 2.061 1_655 S
O48 C51 1.235 . S
C49 O52 1.238 . S
C49 O53 1.241 1_655 S
C50 O43 1.247 . S
C50 O44 1.261 . S
C51 O46 1.259 . S
C51 O48 1.235 . S
O52 Co42 2.021 . S
O52 C49 1.238 . S
O53 Co47 2.052 . S
O53 C49 1.241 1_455 S
O54 Co42 2.137 . S
O54 C45 1.247 . S
O55 Co42 2.244 . S
O55 C45 1.272 . S
O55 Co47 2.135 1_655 S
Co56 O57 2.216 . S
Co56 O58 2.091 . S
Co56 O60 2.004 . S
Co56 O66 2.021 . S
Co56 O68 2.137 . S
Co56 O69 2.244 . S
O57 Co56 2.216 . S
O57 C64 1.247 . S
O58 Co56 2.091 . S
O58 C64 1.261 . S
C59 O68 1.247 . S
C59 O69 1.272 . S
O60 Co56 2.004 . S
O60 C65 1.259 . S
Co61 O62 2.061 1_545 S
Co61 O67 2.052 . S
Co61 O69 2.135 1_545 S
O62 Co61 2.061 1_565 S
O62 C65 1.235 . S
C63 O66 1.238 . S
C63 O67 1.241 1_565 S
C64 O57 1.247 . S
C64 O58 1.261 . S
C65 O60 1.259 . S
C65 O62 1.235 . S
O66 Co56 2.021 . S
O66 C63 1.238 . S
O67 Co61 2.052 . S
O67 C63 1.241 1_545 S
O68 Co56 2.137 . S
O68 C59 1.247 . S
O69 Co56 2.244 . S
O69 C59 1.272 . S
O69 Co61 2.135 1_565 S
Co70 O71 2.216 . S
Co70 O72 2.091 . S
Co70 O74 2.004 . S
Co70 O80 2.021 . S
Co70 O82 2.137 . S
Co70 O83 2.244 . S
O71 Co70 2.216 . S
O71 C78 1.247 . S
O72 Co70 2.091 . S
O72 C78 1.261 . S
C73 O82 1.247 . S
C73 O83 1.272 . S
O74 Co70 2.004 . S
O74 C79 1.259 . S
Co75 O76 2.061 . S
Co75 O81 2.052 . S
Co75 O83 2.135 . S
O76 Co75 2.061 . S
O76 C79 1.235 . S
C77 O80 1.238 . S
C77 O81 1.241 . S
C78 O71 1.247 . S
C78 O72 1.261 . S
C79 O74 1.259 . S
C79 O76 1.235 . S
O80 Co70 2.021 . S
O80 C77 1.238 . S
O81 Co75 2.052 . S
O81 C77 1.241 . S
O82 Co70 2.137 . S
O82 C73 1.247 . S
O83 Co70 2.244 . S
O83 C73 1.272 . S
O83 Co75 2.135 . S
Co84 O85 2.216 . S
Co84 O86 2.091 . S
Co84 O88 2.004 . S
Co84 O94 2.021 . S
Co84 O96 2.137 . S
Co84 O97 2.244 . S
O85 Co84 2.216 . S
O85 C92 1.247 . S
O86 Co84 2.091 . S
O86 C92 1.261 . S
C87 O96 1.247 . S
C87 O97 1.272 . S
O88 Co84 2.004 . S
O88 C93 1.259 . S
Co89 O90 2.061 1_545 S
Co89 O95 2.052 . S
Co89 O97 2.135 1_545 S
O90 Co89 2.061 1_565 S
O90 C93 1.235 . S
C91 O94 1.238 . S
C91 O95 1.241 1_565 S
C92 O85 1.247 . S
C92 O86 1.261 . S
C93 O88 1.259 . S
C93 O90 1.235 . S
O94 Co84 2.021 . S
O94 C91 1.238 . S
O95 Co89 2.052 . S
O95 C91 1.241 1_545 S
O96 Co84 2.137 . S
O96 C87 1.247 . S
O97 Co84 2.244 . S
O97 C87 1.272 . S
O97 Co89 2.135 1_565 S
Co98 O99 2.216 . S
Co98 O100 2.091 . S
Co98 O102 2.004 . S
Co98 O108 2.021 . S
Co98 O110 2.137 . S
Co98 O111 2.244 . S
O99 Co98 2.216 . S
O99 C106 1.247 . S
O100 Co98 2.091 . S
O100 C106 1.261 . S
C101 O110 1.247 . S
C101 O111 1.272 . S
O102 Co98 2.004 . S
O102 C107 1.259 . S
Co103 O104 2.061 . S
Co103 O109 2.052 . S
Co103 O111 2.135 . S
O104 Co103 2.061 . S
O104 C107 1.235 . S
C105 O108 1.238 . S
C105 O109 1.241 . S
C106 O99 1.247 . S
C106 O100 1.261 . S
C107 O102 1.259 . S
C107 O104 1.235 . S
O108 Co98 2.021 . S
O108 C105 1.238 . S
O109 Co103 2.052 . S
O109 C105 1.241 . S
O110 Co98 2.137 . S
O110 C101 1.247 . S
O111 Co98 2.244 . S
O111 C101 1.272 . S
O111 Co103 2.135 . S
Co112 O113 2.216 . S
Co112 O114 2.091 . S
Co112 O116 2.004 . S
Co112 O122 2.021 . S
Co112 O124 2.137 . S
Co112 O125 2.244 . S
O113 Co112 2.216 . S
O113 C120 1.247 . S
O114 Co112 2.091 . S
O114 C120 1.261 . S
C115 O124 1.247 . S
C115 O125 1.272 . S
O116 Co112 2.004 . S
O116 C121 1.259 . S
Co117 O118 2.061 1_655 S
Co117 O123 2.052 . S
Co117 O125 2.135 1_655 S
O118 Co117 2.061 1_455 S
O118 C121 1.235 . S
C119 O122 1.238 . S
C119 O123 1.241 1_455 S
C120 O113 1.247 . S
C120 O114 1.261 . S
C121 O116 1.259 . S
C121 O118 1.235 . S
O122 Co112 2.021 . S
O122 C119 1.238 . S
O123 Co117 2.052 . S
O123 C119 1.241 1_655 S
O124 Co112 2.137 . S
O124 C115 1.247 . S
O125 Co112 2.244 . S
O125 C115 1.272 . S
O125 Co117 2.135 1_455 S
Co126 O127 2.216 . S
Co126 O128 2.091 . S
Co126 O130 2.004 . S
Co126 O136 2.021 . S
Co126 O138 2.137 . S
Co126 O139 2.244 . S
O127 Co126 2.216 . S
O127 C134 1.247 . S
O128 Co126 2.091 . S
O128 C134 1.261 . S
C129 O138 1.247 . S
C129 O139 1.272 . S
O130 Co126 2.004 . S
O130 C135 1.259 . S
Co131 O132 2.061 1_565 S
Co131 O137 2.052 . S
Co131 O139 2.135 1_565 S
O132 Co131 2.061 1_545 S
O132 C135 1.235 . S
C133 O136 1.238 . S
C133 O137 1.241 1_545 S
C134 O127 1.247 . S
C134 O128 1.261 . S
C135 O130 1.259 . S
C135 O132 1.235 . S
O136 Co126 2.021 . S
O136 C133 1.238 . S
O137 Co131 2.052 . S
O137 C133 1.241 1_565 S
O138 Co126 2.137 . S
O138 C129 1.247 . S
O139 Co126 2.244 . S
O139 C129 1.272 . S
O139 Co131 2.135 1_545 S
Co140 O141 2.216 . S
Co140 O142 2.091 . S
Co140 O144 2.004 . S
Co140 O150 2.021 . S
Co140 O152 2.137 . S
Co140 O153 2.244 . S
O141 Co140 2.216 . S
O141 C148 1.247 . S
O142 Co140 2.091 . S
O142 C148 1.261 . S
C143 O152 1.247 . S
C143 O153 1.272 . S
O144 Co140 2.004 . S
O144 C149 1.259 . S
Co145 O146 2.061 . S
Co145 O151 2.052 . S
Co145 O153 2.135 . S
O146 Co145 2.061 . S
O146 C149 1.235 . S
C147 O150 1.238 . S
C147 O151 1.241 . S
C148 O141 1.247 . S
C148 O142 1.261 . S
C149 O144 1.259 . S
C149 O146 1.235 . S
O150 Co140 2.021 . S
O150 C147 1.238 . S
O151 Co145 2.052 . S
O151 C147 1.241 . S
O152 Co140 2.137 . S
O152 C143 1.247 . S
O153 Co140 2.244 . S
O153 C143 1.272 . S
O153 Co145 2.135 . S
Co154 O155 2.216 . S
Co154 O156 2.091 . S
Co154 O158 2.004 . S
Co154 O164 2.021 . S
Co154 O166 2.137 . S
Co154 O167 2.244 . S
O155 Co154 2.216 . S
O155 C162 1.247 . S
O156 Co154 2.091 . S
O156 C162 1.261 . S
C157 O166 1.247 . S
C157 O167 1.272 . S
O158 Co154 2.004 . S
O158 C163 1.259 . S
Co159 O160 2.061 1_455 S
Co159 O165 2.052 . S
Co159 O167 2.135 1_455 S
O160 Co159 2.061 1_655 S
O160 C163 1.235 . S
C161 O164 1.238 . S
C161 O165 1.241 1_655 S
C162 O155 1.247 . S
C162 O156 1.261 . S
C163 O158 1.259 . S
C163 O160 1.235 . S
O164 Co154 2.021 . S
O164 C161 1.238 . S
O165 Co159 2.052 . S
O165 C161 1.241 1_455 S
O166 Co154 2.137 . S
O166 C157 1.247 . S
O167 Co154 2.244 . S
O167 C157 1.272 . S
O167 Co159 2.135 1_655 S
C168 C169 1.387 1_655 S
C168 H172 0.950 . S
C168 C177 1.390 1_554 S
C169 C168 1.387 1_455 S
C169 C171 1.387 . S
H170 C177 0.950 . S
C171 C169 1.387 . S
C171 C173 1.390 1_554 S
C171 H175 0.950 . S
H172 C168 0.950 . S
C173 C171 1.390 1_556 S
C173 C174 1.387 1_455 S
C173 H176 0.950 . S
C174 C173 1.387 1_655 S
C174 C177 1.387 . S
H175 C171 0.950 . S
H176 C173 0.950 . S
C177 C168 1.390 1_556 S
C177 H170 0.950 . S
C177 C174 1.387 . S
C178 C179 1.387 . S
C178 H182 0.950 . S
C178 C187 1.390 1_565 S
C179 C178 1.387 . S
C179 C181 1.387 . S
H180 C187 0.950 . S
C181 C179 1.387 . S
C181 C183 1.390 1_565 S
C181 H185 0.950 . S
H182 C178 0.950 . S
C183 C181 1.390 1_545 S
C183 C184 1.387 . S
C183 H186 0.950 . S
C184 C183 1.387 . S
C184 C187 1.387 . S
H185 C181 0.950 . S
H186 C183 0.950 . S
C187 C178 1.390 1_545 S
C187 H180 0.950 . S
C187 C184 1.387 . S
C188 C189 1.387 . S
C188 H192 0.950 . S
C188 C197 1.390 1_554 S
C189 C188 1.387 . S
C189 C191 1.387 . S
H190 C197 0.950 . S
C191 C189 1.387 . S
C191 C193 1.390 1_554 S
C191 H195 0.950 . S
H192 C188 0.950 . S
C193 C191 1.390 1_556 S
C193 C194 1.387 . S
C193 H196 0.950 . S
C194 C193 1.387 . S
C194 C197 1.387 . S
H195 C191 0.950 . S
H196 C193 0.950 . S
C197 C188 1.390 1_556 S
C197 H190 0.950 . S
C197 C194 1.387 . S
C198 C199 1.387 . S
C198 H202 0.950 . S
C198 C207 1.390 . S
C199 C198 1.387 . S
C199 C201 1.387 1_455 S
H200 C207 0.950 . S
C201 C199 1.387 1_655 S
C201 C203 1.390 . S
C201 H205 0.950 . S
H202 C198 0.950 . S
C203 C201 1.390 . S
C203 C204 1.387 . S
C203 H206 0.950 . S
C204 C203 1.387 . S
C204 C207 1.387 1_655 S
H205 C201 0.950 . S
H206 C203 0.950 . S
C207 C198 1.390 . S
C207 H200 0.950 . S
C207 C204 1.387 1_455 S
C208 C209 1.387 . S
C208 H212 0.950 . S
C208 C217 1.390 1_546 S
C209 C208 1.387 . S
C209 C211 1.387 . S
H210 C217 0.950 . S
C211 C209 1.387 . S
C211 C213 1.390 1_546 S
C211 H215 0.950 . S
H212 C208 0.950 . S
C213 C211 1.390 1_564 S
C213 C214 1.387 . S
C213 H216 0.950 . S
C214 C213 1.387 . S
C214 C217 1.387 . S
H215 C211 0.950 . S
H216 C213 0.950 . S
C217 C208 1.390 1_564 S
C217 H210 0.950 . S
C217 C214 1.387 . S
C218 C219 1.387 . S
C218 H222 0.950 . S
C218 C227 1.390 . S
C219 C218 1.387 . S
C219 C221 1.387 . S
H220 C227 0.950 . S
C221 C219 1.387 . S
C221 C223 1.390 . S
C221 H225 0.950 . S
H222 C218 0.950 . S
C223 C221 1.390 . S
C223 C224 1.387 . S
C223 H226 0.950 . S
C224 C223 1.387 . S
C224 C227 1.387 . S
H225 C221 0.950 . S
H226 C223 0.950 . S
C227 C218 1.390 . S
C227 H220 0.950 . S
C227 C224 1.387 . S
C228 C229 1.387 1_455 S
C228 H232 0.950 . S
C228 C237 1.390 1_556 S
C229 C228 1.387 1_655 S
C229 C231 1.387 . S
H230 C237 0.950 . S
C231 C229 1.387 . S
C231 C233 1.390 1_556 S
C231 H235 0.950 . S
H232 C228 0.950 . S
C233 C231 1.390 1_554 S
C233 C234 1.387 1_655 S
C233 H236 0.950 . S
C234 C233 1.387 1_455 S
C234 C237 1.387 . S
H235 C231 0.950 . S
H236 C233 0.950 . S
C237 C228 1.390 1_554 S
C237 H230 0.950 . S
C237 C234 1.387 . S
C238 C239 1.387 . S
C238 H242 0.950 . S
C238 C247 1.390 1_565 S
C239 C238 1.387 . S
C239 C241 1.387 . S
H240 C247 0.950 . S
C241 C239 1.387 . S
C241 C243 1.390 1_565 S
C241 H245 0.950 . S
H242 C238 0.950 . S
C243 C241 1.390 1_545 S
C243 C244 1.387 . S
C243 H246 0.950 . S
C244 C243 1.387 . S
C244 C247 1.387 . S
H245 C241 0.950 . S
H246 C243 0.950 . S
C247 C238 1.390 1_545 S
C247 H240 0.950 . S
C247 C244 1.387 . S
C248 C249 1.387 . S
C248 H252 0.950 . S
C248 C257 1.390 1_556 S
C249 C248 1.387 . S
C249 C251 1.387 . S
H250 C257 0.950 . S
C251 C249 1.387 . S
C251 C253 1.390 1_556 S
C251 H255 0.950 . S
H252 C248 0.950 . S
C253 C251 1.390 1_554 S
C253 C254 1.387 . S
C253 H256 0.950 . S
C254 C253 1.387 . S
C254 C257 1.387 . S
H255 C251 0.950 . S
H256 C253 0.950 . S
C257 C248 1.390 1_554 S
C257 H250 0.950 . S
C257 C254 1.387 . S
C258 C259 1.387 1_455 S
C258 H262 0.950 . S
C258 C267 1.390 . S
C259 C258 1.387 1_655 S
C259 C261 1.387 . S
H260 C267 0.950 . S
C261 C259 1.387 . S
C261 C263 1.390 . S
C261 H265 0.950 . S
H262 C258 0.950 . S
C263 C261 1.390 . S
C263 C264 1.387 1_655 S
C263 H266 0.950 . S
C264 C263 1.387 1_455 S
C264 C267 1.387 . S
H265 C261 0.950 . S
H266 C263 0.950 . S
C267 C258 1.390 . S
C267 H260 0.950 . S
C267 C264 1.387 . S
C268 C269 1.387 . S
C268 H272 0.950 . S
C268 C277 1.390 1_546 S
C269 C268 1.387 . S
C269 C271 1.387 . S
H270 C277 0.950 . S
C271 C269 1.387 . S
C271 C273 1.390 1_546 S
C271 H275 0.950 . S
H272 C268 0.950 . S
C273 C271 1.390 1_564 S
C273 C274 1.387 . S
C273 H276 0.950 . S
C274 C273 1.387 . S
C274 C277 1.387 . S
H275 C271 0.950 . S
H276 C273 0.950 . S
C277 C268 1.390 1_564 S
C277 H270 0.950 . S
C277 C274 1.387 . S
C278 C279 1.387 . S
C278 H282 0.950 . S
C278 C287 1.390 . S
C279 C278 1.387 . S
C279 C281 1.387 . S
H280 C287 0.950 . S
C281 C279 1.387 . S
C281 C283 1.390 . S
C281 H285 0.950 . S
H282 C278 0.950 . S
C283 C281 1.390 . S
C283 C284 1.387 . S
C283 H286 0.950 . S
C284 C283 1.387 . S
C284 C287 1.387 . S
H285 C281 0.950 . S
H286 C283 0.950 . S
C287 C278 1.390 . S
C287 H280 0.950 . S
C287 C284 1.387 . S
C288 C289 1.387 . S
C288 H292 0.950 . S
C288 C297 1.390 . S
C289 C288 1.387 . S
C289 C291 1.387 . S
H290 C297 0.950 . S
C291 C289 1.387 . S
C291 C293 1.390 . S
C291 H295 0.950 . S
H292 C288 0.950 . S
C293 C291 1.390 . S
C293 C294 1.387 . S
C293 H296 0.950 . S
C294 C293 1.387 . S
C294 C297 1.387 . S
H295 C291 0.950 . S
H296 C293 0.950 . S
C297 C288 1.390 . S
C297 H290 0.950 . S
C297 C294 1.387 . S
C298 C299 1.387 . S
C298 H302 0.950 . S
C298 C307 1.390 . S
C299 C298 1.387 . S
C299 C301 1.387 . S
H300 C307 0.950 . S
C301 C299 1.387 . S
C301 C303 1.390 . S
C301 H305 0.950 1_545 S
H302 C298 0.950 . S
C303 C301 1.390 . S
C303 C304 1.387 . S
C303 H306 0.950 1_545 S
C304 C303 1.387 . S
C304 C307 1.387 . S
H305 C301 0.950 1_565 S
H306 C303 0.950 1_565 S
C307 C298 1.390 . S
C307 H300 0.950 . S
C307 C304 1.387 . S
C308 C309 1.387 . S
C308 H312 0.950 . S
C308 C317 1.390 . S
C309 C308 1.387 . S
C309 C311 1.387 . S
H310 C317 0.950 . S
C311 C309 1.387 . S
C311 C313 1.390 . S
C311 H315 0.950 . S
H312 C308 0.950 . S
C313 C311 1.390 . S
C313 C314 1.387 . S
C313 H316 0.950 . S
C314 C313 1.387 . S
C314 C317 1.387 . S
H315 C311 0.950 . S
H316 C313 0.950 . S
C317 C308 1.390 . S
C317 H310 0.950 . S
C317 C314 1.387 . S
C318 C319 1.387 . S
C318 H322 0.950 . S
C318 C327 1.390 . S
C319 C318 1.387 . S
C319 C321 1.387 . S
H320 C327 0.950 . S
C321 C319 1.387 . S
C321 C323 1.390 . S
C321 H325 0.950 . S
H322 C318 0.950 . S
C323 C321 1.390 . S
C323 C324 1.387 . S
C323 H326 0.950 . S
C324 C323 1.387 . S
C324 C327 1.387 . S
H325 C321 0.950 . S
H326 C323 0.950 . S
C327 C318 1.390 . S
C327 H320 0.950 . S
C327 C324 1.387 . S
C328 C329 1.387 . S
C328 H332 0.950 . S
C328 C337 1.390 . S
C329 C328 1.387 . S
C329 C331 1.387 . S
H330 C337 0.950 . S
C331 C329 1.387 . S
C331 C333 1.390 . S
C331 H335 0.950 1_565 S
H332 C328 0.950 . S
C333 C331 1.390 . S
C333 C334 1.387 . S
C333 H336 0.950 1_565 S
C334 C333 1.387 . S
C334 C337 1.387 . S
H335 C331 0.950 1_545 S
H336 C333 0.950 1_545 S
C337 C328 1.390 . S
C337 H330 0.950 . S
C337 C334 1.387 . S
C338 C339 1.387 . S
C338 H342 0.950 . S
C338 C347 1.390 . S
C339 C338 1.387 . S
C339 C341 1.387 . S
H340 C347 0.950 . S
C341 C339 1.387 . S
C341 C343 1.390 . S
C341 H345 0.950 . S
H342 C338 0.950 . S
C343 C341 1.390 . S
C343 C344 1.387 . S
C343 H346 0.950 . S
C344 C343 1.387 . S
C344 C347 1.387 . S
H345 C341 0.950 . S
H346 C343 0.950 . S
C347 C338 1.390 . S
C347 H340 0.950 . S
C347 C344 1.387 . S
C348 C349 1.387 . S
C348 H352 0.950 . S
C348 C357 1.390 . S
C349 C348 1.387 . S
C349 C351 1.387 . S
H350 C357 0.950 . S
C351 C349 1.387 . S
C351 C353 1.390 . S
C351 H355 0.950 . S
H352 C348 0.950 . S
C353 C351 1.390 . S
C353 C354 1.387 . S
C353 H356 0.950 . S
C354 C353 1.387 . S
C354 C357 1.387 . S
H355 C351 0.950 . S
H356 C353 0.950 . S
C357 C348 1.390 . S
C357 H350 0.950 . S
C357 C354 1.387 . S
C358 C359 1.387 . S
C358 H362 0.950 . S
C358 C367 1.390 . S
C359 C358 1.387 . S
C359 C361 1.387 . S
H360 C367 0.950 . S
C361 C359 1.387 . S
C361 C363 1.390 . S
C361 H365 0.950 . S
H362 C358 0.950 . S
C363 C361 1.390 . S
C363 C364 1.387 . S
C363 H366 0.950 . S
C364 C363 1.387 . S
C364 C367 1.387 . S
H365 C361 0.950 . S
H366 C363 0.950 . S
C367 C358 1.390 . S
C367 H360 0.950 . S
C367 C364 1.387 . S
C368 C369 1.387 . S
C368 H372 0.950 . S
C368 C377 1.390 . S
C369 C368 1.387 . S
C369 C371 1.387 . S
H370 C377 0.950 . S
C371 C369 1.387 . S
C371 C373 1.390 . S
C371 H375 0.950 . S
H372 C368 0.950 . S
C373 C371 1.390 . S
C373 C374 1.387 . S
C373 H376 0.950 . S
C374 C373 1.387 . S
C374 C377 1.387 . S
H375 C371 0.950 . S
H376 C373 0.950 . S
C377 C368 1.390 . S
C377 H370 0.950 . S
C377 C374 1.387 . S
C378 C379 1.387 . S
C378 H382 0.950 . S
C378 C387 1.390 . S
C379 C378 1.387 . S
C379 C381 1.387 . S
H380 C387 0.950 . S
C381 C379 1.387 . S
C381 C383 1.390 . S
C381 H385 0.950 . S
H382 C378 0.950 . S
C383 C381 1.390 . S
C383 C384 1.387 . S
C383 H386 0.950 . S
C384 C383 1.387 . S
C384 C387 1.387 . S
H385 C381 0.950 . S
H386 C383 0.950 . S
C387 C378 1.390 . S
C387 H380 0.950 . S
C387 C384 1.387 . S
C388 C389 1.387 . S
C388 H392 0.950 . S
C388 C397 1.390 . S
C389 C388 1.387 . S
C389 C391 1.387 . S
H390 C397 0.950 . S
C391 C389 1.387 . S
C391 C393 1.390 . S
C391 H395 0.950 . S
H392 C388 0.950 . S
C393 C391 1.390 . S
C393 C394 1.387 . S
C393 H396 0.950 . S
C394 C393 1.387 . S
C394 C397 1.387 . S
H395 C391 0.950 . S
H396 C393 0.950 . S
C397 C388 1.390 . S
C397 H390 0.950 . S
C397 C394 1.387 . S
C398 C399 1.387 . S
C398 H402 0.950 . S
C398 C407 1.390 . S
C399 C398 1.387 . S
C399 C401 1.387 . S
H400 C407 0.950 . S
C401 C399 1.387 . S
C401 C403 1.390 . S
C401 H405 0.950 . S
H402 C398 0.950 . S
C403 C401 1.390 . S
C403 C404 1.387 . S
C403 H406 0.950 . S
C404 C403 1.387 . S
C404 C407 1.387 . S
H405 C401 0.950 . S
H406 C403 0.950 . S
C407 C398 1.390 . S
C407 H400 0.950 . S
C407 C404 1.387 . S
C169 C7 1.400 . S
C174 C161 1.399 . S
C179 C91 1.400 . S
C184 C21 1.399 . S
C189 C35 1.399 . S
C194 C105 1.400 . S
C199 C119 1.399 . S
C204 C49 1.400 . S
C209 C133 1.399 . S
C214 C63 1.399 . S
C219 C147 1.400 . S
C224 C77 1.399 . S
C229 C45 1.377 . S
C234 C115 1.377 . S
C239 C59 1.375 . S
C244 C129 1.375 . S
C249 C73 1.374 . S
C254 C143 1.375 . S
C259 C157 1.375 . S
C264 C3 1.375 . S
C269 C17 1.377 . S
C274 C87 1.377 . S
C279 C31 1.375 . S
C284 C101 1.375 . S
C289 C121 1.620 . S
C294 C9 1.619 . S
C299 C135 1.620 . S
C304 C23 1.620 . S
C309 C37 1.619 . S
C314 C149 1.620 . S
C319 C51 1.620 . S
C324 C163 1.619 . S
C329 C65 1.620 . S
C334 C93 1.620 . S
C339 C107 1.620 . S
C344 C79 1.619 . S
C349 C8 1.603 . S
C354 C148 1.603 . S
C359 C162 1.602 . S
C364 C22 1.604 . S
C369 C36 1.602 . S
C374 C92 1.603 . S
C379 C50 1.603 . S
C384 C106 1.603 . S
C389 C64 1.602 . S
C394 C120 1.604 . S
C399 C78 1.602 . S
C404 C134 1.603 . S
