# Generated by pormake.
# Topology zni, (4)-cn, num edge types: 1
# Building blocks:
#     Node 0, Type 0, BuildingBlock: CEKHIL_clean_sbu_0, # of connection points: 4
#     Node 1, Type 0, BuildingBlock: CEKHIL_clean_sbu_0, # of connection points: 4
#     Node 2, Type 0, BuildingBlock: CEKHIL_clean_sbu_0, # of connection points: 4
#     Node 3, Type 0, BuildingBlock: CEKHIL_clean_sbu_0, # of connection points: 4
#     Node 4, Type 0, BuildingBlock: CEKHIL_clean_sbu_0, # of connection points: 4
#     Node 5, Type 0, BuildingBlock: CEKHIL_clean_sbu_0, # of connection points: 4
#     Node 6, Type 0, BuildingBlock: CEKHIL_clean_sbu_0, # of connection points: 4
#     Node 7, Type 0, BuildingBlock: CEKHIL_clean_sbu_0, # of connection points: 4
#     Node 8, Type 0, BuildingBlock: CEKHIL_clean_sbu_0, # of connection points: 4
#     Node 9, Type 0, BuildingBlock: CEKHIL_clean_sbu_0, # of connection points: 4
#     Node 10, Type 0, BuildingBlock: CEKHIL_clean_sbu_0, # of connection points: 4
#     Node 11, Type 0, BuildingBlock: CEKHIL_clean_sbu_0, # of connection points: 4
#     Node 12, Type 0, BuildingBlock: CEKHIL_clean_sbu_0, # of connection points: 4
#     Node 13, Type 0, BuildingBlock: CEKHIL_clean_sbu_0, # of connection points: 4
#     Node 14, Type 0, BuildingBlock: CEKHIL_clean_sbu_0, # of connection points: 4
#     Node 15, Type 0, BuildingBlock: CEKHIL_clean_sbu_0, # of connection points: 4
#     Node 16, Type 0, BuildingBlock: CEKHIL_clean_sbu_0, # of connection points: 4
#     Node 17, Type 0, BuildingBlock: CEKHIL_clean_sbu_0, # of connection points: 4
#     Node 18, Type 0, BuildingBlock: CEKHIL_clean_sbu_0, # of connection points: 4
#     Node 19, Type 0, BuildingBlock: CEKHIL_clean_sbu_0, # of connection points: 4
#     Node 20, Type 0, BuildingBlock: CEKHIL_clean_sbu_0, # of connection points: 4
#     Node 21, Type 0, BuildingBlock: CEKHIL_clean_sbu_0, # of connection points: 4
#     Node 22, Type 0, BuildingBlock: CEKHIL_clean_sbu_0, # of connection points: 4
#     Node 23, Type 0, BuildingBlock: CEKHIL_clean_sbu_0, # of connection points: 4
#     Node 24, Type 0, BuildingBlock: CEKHIL_clean_sbu_0, # of connection points: 4
#     Node 25, Type 0, BuildingBlock: CEKHIL_clean_sbu_0, # of connection points: 4
#     Node 26, Type 0, BuildingBlock: CEKHIL_clean_sbu_0, # of connection points: 4
#     Node 27, Type 0, BuildingBlock: CEKHIL_clean_sbu_0, # of connection points: 4
#     Node 28, Type 0, BuildingBlock: CEKHIL_clean_sbu_0, # of connection points: 4
#     Node 29, Type 0, BuildingBlock: CEKHIL_clean_sbu_0, # of connection points: 4
#     Node 30, Type 0, BuildingBlock: CEKHIL_clean_sbu_0, # of connection points: 4
#     Node 31, Type 0, BuildingBlock: CEKHIL_clean_sbu_0, # of connection points: 4
#     Edge 32, Type (0, 0), BuildingBlock: EZIPEK_clean_linker_0, # of connection points: 2
#     Edge 33, Type (0, 0), BuildingBlock: EZIPEK_clean_linker_0, # of connection points: 2
#     Edge 34, Type (0, 0), BuildingBlock: EZIPEK_clean_linker_0, # of connection points: 2
#     Edge 35, Type (0, 0), BuildingBlock: EZIPEK_clean_linker_0, # of connection points: 2
#     Edge 36, Type (0, 0), BuildingBlock: EZIPEK_clean_linker_0, # of connection points: 2
#     Edge 37, Type (0, 0), BuildingBlock: EZIPEK_clean_linker_0, # of connection points: 2
#     Edge 38, Type (0, 0), BuildingBlock: EZIPEK_clean_linker_0, # of connection points: 2
#     Edge 39, Type (0, 0), BuildingBlock: EZIPEK_clean_linker_0, # of connection points: 2
#     Edge 40, Type (0, 0), BuildingBlock: EZIPEK_clean_linker_0, # of connection points: 2
#     Edge 41, Type (0, 0), BuildingBlock: EZIPEK_clean_linker_0, # of connection points: 2
#     Edge 42, Type (0, 0), BuildingBlock: EZIPEK_clean_linker_0, # of connection points: 2
#     Edge 43, Type (0, 0), BuildingBlock: EZIPEK_clean_linker_0, # of connection points: 2
#     Edge 44, Type (0, 0), BuildingBlock: EZIPEK_clean_linker_0, # of connection points: 2
#     Edge 45, Type (0, 0), BuildingBlock: EZIPEK_clean_linker_0, # of connection points: 2
#     Edge 46, Type (0, 0), BuildingBlock: EZIPEK_clean_linker_0, # of connection points: 2
#     Edge 47, Type (0, 0), BuildingBlock: EZIPEK_clean_linker_0, # of connection points: 2
#     Edge 48, Type (0, 0), BuildingBlock: EZIPEK_clean_linker_0, # of connection points: 2
#     Edge 49, Type (0, 0), BuildingBlock: EZIPEK_clean_linker_0, # of connection points: 2
#     Edge 50, Type (0, 0), BuildingBlock: EZIPEK_clean_linker_0, # of connection points: 2
#     Edge 51, Type (0, 0), BuildingBlock: EZIPEK_clean_linker_0, # of connection points: 2
#     Edge 52, Type (0, 0), BuildingBlock: EZIPEK_clean_linker_0, # of connection points: 2
#     Edge 53, Type (0, 0), BuildingBlock: EZIPEK_clean_linker_0, # of connection points: 2
#     Edge 54, Type (0, 0), BuildingBlock: EZIPEK_clean_linker_0, # of connection points: 2
#     Edge 55, Type (0, 0), BuildingBlock: EZIPEK_clean_linker_0, # of connection points: 2
#     Edge 56, Type (0, 0), BuildingBlock: EZIPEK_clean_linker_0, # of connection points: 2
#     Edge 57, Type (0, 0), BuildingBlock: EZIPEK_clean_linker_0, # of connection points: 2
#     Edge 58, Type (0, 0), BuildingBlock: EZIPEK_clean_linker_0, # of connection points: 2
#     Edge 59, Type (0, 0), BuildingBlock: EZIPEK_clean_linker_0, # of connection points: 2
#     Edge 60, Type (0, 0), BuildingBlock: EZIPEK_clean_linker_0, # of connection points: 2
#     Edge 61, Type (0, 0), BuildingBlock: EZIPEK_clean_linker_0, # of connection points: 2
#     Edge 62, Type (0, 0), BuildingBlock: EZIPEK_clean_linker_0, # of connection points: 2
#     Edge 63, Type (0, 0), BuildingBlock: EZIPEK_clean_linker_0, # of connection points: 2
#     Edge 64, Type (0, 0), BuildingBlock: EZIPEK_clean_linker_0, # of connection points: 2
#     Edge 65, Type (0, 0), BuildingBlock: EZIPEK_clean_linker_0, # of connection points: 2
#     Edge 66, Type (0, 0), BuildingBlock: EZIPEK_clean_linker_0, # of connection points: 2
#     Edge 67, Type (0, 0), BuildingBlock: EZIPEK_clean_linker_0, # of connection points: 2
#     Edge 68, Type (0, 0), BuildingBlock: EZIPEK_clean_linker_0, # of connection points: 2
#     Edge 69, Type (0, 0), BuildingBlock: EZIPEK_clean_linker_0, # of connection points: 2
#     Edge 70, Type (0, 0), BuildingBlock: EZIPEK_clean_linker_0, # of connection points: 2
#     Edge 71, Type (0, 0), BuildingBlock: EZIPEK_clean_linker_0, # of connection points: 2
#     Edge 72, Type (0, 0), BuildingBlock: EZIPEK_clean_linker_0, # of connection points: 2
#     Edge 73, Type (0, 0), BuildingBlock: EZIPEK_clean_linker_0, # of connection points: 2
#     Edge 74, Type (0, 0), BuildingBlock: EZIPEK_clean_linker_0, # of connection points: 2
#     Edge 75, Type (0, 0), BuildingBlock: EZIPEK_clean_linker_0, # of connection points: 2
#     Edge 76, Type (0, 0), BuildingBlock: EZIPEK_clean_linker_0, # of connection points: 2
#     Edge 77, Type (0, 0), BuildingBlock: EZIPEK_clean_linker_0, # of connection points: 2
#     Edge 78, Type (0, 0), BuildingBlock: EZIPEK_clean_linker_0, # of connection points: 2
#     Edge 79, Type (0, 0), BuildingBlock: EZIPEK_clean_linker_0, # of connection points: 2
#     Edge 80, Type (0, 0), BuildingBlock: EZIPEK_clean_linker_0, # of connection points: 2
#     Edge 81, Type (0, 0), BuildingBlock: EZIPEK_clean_linker_0, # of connection points: 2
#     Edge 82, Type (0, 0), BuildingBlock: EZIPEK_clean_linker_0, # of connection points: 2
#     Edge 83, Type (0, 0), BuildingBlock: EZIPEK_clean_linker_0, # of connection points: 2
#     Edge 84, Type (0, 0), BuildingBlock: EZIPEK_clean_linker_0, # of connection points: 2
#     Edge 85, Type (0, 0), BuildingBlock: EZIPEK_clean_linker_0, # of connection points: 2
#     Edge 86, Type (0, 0), BuildingBlock: EZIPEK_clean_linker_0, # of connection points: 2
#     Edge 87, Type (0, 0), BuildingBlock: EZIPEK_clean_linker_0, # of connection points: 2
#     Edge 88, Type (0, 0), BuildingBlock: EZIPEK_clean_linker_0, # of connection points: 2
#     Edge 89, Type (0, 0), BuildingBlock: EZIPEK_clean_linker_0, # of connection points: 2
#     Edge 90, Type (0, 0), BuildingBlock: EZIPEK_clean_linker_0, # of connection points: 2
#     Edge 91, Type (0, 0), BuildingBlock: EZIPEK_clean_linker_0, # of connection points: 2
#     Edge 92, Type (0, 0), BuildingBlock: EZIPEK_clean_linker_0, # of connection points: 2
#     Edge 93, Type (0, 0), BuildingBlock: EZIPEK_clean_linker_0, # of connection points: 2
#     Edge 94, Type (0, 0), BuildingBlock: EZIPEK_clean_linker_0, # of connection points: 2
#     Edge 95, Type (0, 0), BuildingBlock: EZIPEK_clean_linker_0, # of connection points: 2
# Relax obj value: 0.222
# Max RMSD: 0.113
# Mean RMSD: 0.113
data_MOF--net-zni--node1-CEKHIL_clean_sbu_0--edge1-EZIPEK_clean_linker_0
_symmetry_space_group_name_H-M    P1
_symmetry_Int_Tables_number       1
_symmetry_cell_setting            triclinic
loop_
_symmetry_equiv_pos_as_xyz
'x, y, z'
_cell_length_a     42.412704
_cell_length_b     42.411062
_cell_length_c     21.364281
_cell_angle_alpha  90.032294
_cell_angle_beta   89.955042
_cell_angle_gamma 89.992031
loop_
_atom_site_label
_atom_site_type_symbol
_atom_site_fract_x
_atom_site_fract_y
_atom_site_fract_z
_atom_type_partial_charge
Co0 Co 0.10461 0.09148 0.42221 0.0
O1 O 0.0954 0.04763 0.40581 0.0
O2 O 0.10996 0.08256 0.33411 0.0
C3 C 0.13499 0.08433 0.50717 0.0
O4 O 0.11743 0.13791 0.42061 0.0
Co5 Co 0.08349 0.12509 0.54433 0.0
O6 O 0.11307 0.15844 0.51642 0.0
C7 C 0.0376 0.11632 0.44238 0.0
C8 C 0.1021 0.05377 0.34776 0.0
C9 C 0.12281 0.16021 0.46019 0.0
O10 O 0.059 0.10318 0.40835 0.0
O11 O 0.04227 0.12549 0.49868 0.0
O12 O 0.14687 0.0804 0.45162 0.0
O13 O 0.10491 0.08877 0.50961 0.0
Co14 Co 0.16391 0.84901 0.6721 0.0
O15 O 0.20826 0.84157 0.65747 0.0
O16 O 0.17429 0.859 0.58652 0.0
C17 C 0.16778 0.87505 0.7637 0.0
O18 O 0.11742 0.86069 0.66877 0.0
Co19 Co 0.12877 0.8194 0.78537 0.0
O20 O 0.0905 0.83874 0.748 0.0
C21 C 0.14415 0.77972 0.67713 0.0
C22 C 0.20294 0.85069 0.60033 0.0
C23 C 0.09149 0.85502 0.69793 0.0
O24 O 0.15375 0.80412 0.64685 0.0
O25 O 0.13563 0.78036 0.73451 0.0
O26 O 0.17298 0.88973 0.71129 0.0
O27 O 0.16448 0.84485 0.75958 0.0
Co28 Co 0.39836 0.91095 0.91464 0.0
O29 O 0.40766 0.95477 0.89887 0.0
O30 O 0.38921 0.92102 0.82836 0.0
C31 C 0.37185 0.91728 0.00519 0.0
O32 O 0.38492 0.86469 0.91356 0.0
Co33 Co 0.425 0.87641 0.03158 0.0
O34 O 0.39524 0.8426 0.00618 0.0
C35 C 0.46667 0.88897 0.9243 0.0
C36 C 0.39834 0.94946 0.84197 0.0
C37 C 0.38214 0.84167 0.95257 0.0
O38 O 0.44307 0.8989 0.89194 0.0
O39 O 0.46483 0.88127 0.98209 0.0
O40 O 0.35769 0.92225 0.95219 0.0
O41 O 0.40186 0.91265 0.00179 0.0
Co42 Co 0.34067 0.15246 0.17037 0.0
O43 O 0.29659 0.15999 0.15391 0.0
O44 O 0.33191 0.14528 0.08287 0.0
C45 C 0.33465 0.12334 0.25788 0.0
O46 O 0.38745 0.14175 0.16941 0.0
Co47 Co 0.37247 0.17793 0.29188 0.0
O48 O 0.41059 0.15554 0.26037 0.0
C49 C 0.35854 0.22146 0.18843 0.0
C50 C 0.30291 0.15255 0.09628 0.0
C51 C 0.41154 0.14332 0.20588 0.0
O52 O 0.3512 0.19806 0.15287 0.0
O53 O 0.36354 0.2187 0.24729 0.0
O54 O 0.3309 0.11041 0.20324 0.0
O55 O 0.33805 0.15356 0.2576 0.0
Co56 Co 0.09997 0.91269 0.09499 0.0
O57 O 0.09353 0.95757 0.10537 0.0
O58 O 0.10747 0.92458 0.18089 0.0
C59 C 0.12877 0.91539 0.00587 0.0
O60 O 0.10987 0.86561 0.10384 0.0
Co61 Co 0.07565 0.8749 0.98038 0.0
O62 O 0.10346 0.8409 0.01166 0.0
C63 C 0.03183 0.89013 0.08462 0.0
C64 C 0.10068 0.95319 0.16389 0.0
C65 C 0.11239 0.8411 0.06853 0.0
O66 O 0.054 0.90462 0.11402 0.0
O67 O 0.03573 0.87748 0.03068 0.0
O68 O 0.14204 0.9203 0.05984 0.0
O69 O 0.09855 0.91194 0.00727 0.0
Co70 Co 0.33932 0.85164 0.33853 0.0
O71 O 0.29556 0.84176 0.35462 0.0
O72 O 0.32923 0.86086 0.42459 0.0
C73 C 0.3332 0.87772 0.24765 0.0
O74 O 0.38503 0.86585 0.34061 0.0
Co75 Co 0.37515 0.82483 0.22307 0.0
O76 O 0.41267 0.84555 0.26062 0.0
C77 C 0.36249 0.78354 0.33013 0.0
C78 C 0.30095 0.85125 0.41149 0.0
C79 C 0.41109 0.8615 0.31111 0.0
O80 O 0.3523 0.80723 0.36204 0.0
O81 O 0.36974 0.78505 0.27211 0.0
O82 O 0.32762 0.89196 0.30041 0.0
O83 O 0.33823 0.84777 0.25119 0.0
Co84 Co 0.3986 0.09003 0.58982 0.0
O85 O 0.40756 0.04612 0.60471 0.0
O86 O 0.38947 0.07968 0.676 0.0
C87 C 0.37189 0.08416 0.49957 0.0
O88 O 0.38556 0.13645 0.59141 0.0
Co89 Co 0.42609 0.12442 0.47388 0.0
O90 O 0.39657 0.15849 0.49904 0.0
C91 C 0.46724 0.11138 0.58126 0.0
C92 C 0.39841 0.05122 0.66183 0.0
C93 C 0.38315 0.15949 0.55237 0.0
O94 O 0.44336 0.1015 0.61284 0.0
O95 O 0.46585 0.11948 0.52368 0.0
O96 O 0.35782 0.07926 0.55271 0.0
O97 O 0.402 0.08845 0.5025 0.0
Co98 Co 0.1671 0.15104 0.83346 0.0
O99 O 0.21107 0.15827 0.85108 0.0
O100 O 0.17531 0.14383 0.92123 0.0
C101 C 0.17418 0.12209 0.74591 0.0
O102 O 0.12004 0.14033 0.83268 0.0
Co103 Co 0.13567 0.17681 0.71308 0.0
O104 O 0.10137 0.14692 0.73509 0.0
C105 C 0.14641 0.21988 0.81938 0.0
C106 C 0.20444 0.1511 0.90868 0.0
C107 C 0.0981 0.13746 0.79131 0.0
O108 O 0.1574 0.19667 0.8514 0.0
O109 O 0.13768 0.21736 0.76221 0.0
O110 O 0.17691 0.10917 0.80072 0.0
O111 O 0.17057 0.15238 0.74616 0.0
Co112 Co 0.90218 0.90977 0.59221 0.0
O113 O 0.90973 0.95412 0.6075 0.0
O114 O 0.89281 0.91962 0.67806 0.0
C115 C 0.87552 0.91468 0.50165 0.0
O116 O 0.88966 0.86325 0.59539 0.0
Co117 Co 0.92837 0.87305 0.4789 0.0
O118 O 0.89567 0.84173 0.50105 0.0
C119 C 0.97005 0.88524 0.58706 0.0
C120 C 0.9006 0.94841 0.66453 0.0
C121 C 0.88379 0.84115 0.55572 0.0
O122 O 0.94742 0.89978 0.61503 0.0
O123 O 0.96709 0.87319 0.53243 0.0
O124 O 0.86131 0.91958 0.55469 0.0
O125 O 0.90569 0.9106 0.50472 0.0
Co126 Co 0.84337 0.14796 0.34914 0.0
O127 O 0.79845 0.15306 0.36016 0.0
O128 O 0.83182 0.13807 0.4344 0.0
C129 C 0.84207 0.12103 0.25743 0.0
O130 O 0.89055 0.13919 0.3558 0.0
Co131 Co 0.87758 0.17989 0.23832 0.0
O132 O 0.91607 0.17013 0.2879 0.0
C133 C 0.85869 0.21868 0.34412 0.0
C134 C 0.80312 0.1449 0.41799 0.0
C135 C 0.91625 0.15084 0.33352 0.0
O136 O 0.85056 0.1936 0.37404 0.0
O137 O 0.86714 0.21869 0.28678 0.0
O138 O 0.83749 0.10633 0.31 0.0
O139 O 0.8438 0.15135 0.26152 0.0
Co140 Co 0.59971 0.0929 0.09426 0.0
O141 O 0.59143 0.04908 0.11228 0.0
O142 O 0.61005 0.08405 0.18033 0.0
C143 C 0.62513 0.08668 0.00251 0.0
O144 O 0.61231 0.13906 0.09378 0.0
Co145 Co 0.57012 0.12617 0.97878 0.0
O146 O 0.58982 0.16488 0.01378 0.0
C147 C 0.53066 0.11319 0.08837 0.0
C148 C 0.60114 0.05537 0.16861 0.0
C149 C 0.60653 0.16454 0.06334 0.0
O150 O 0.55521 0.10469 0.11953 0.0
O151 O 0.53113 0.11922 0.02973 0.0
O152 O 0.64003 0.0822 0.0549 0.0
O153 O 0.59505 0.09064 0.00709 0.0
Co154 Co 0.65828 0.85123 0.84246 0.0
O155 O 0.70229 0.84259 0.85822 0.0
O156 O 0.66757 0.85771 0.92999 0.0
C157 C 0.66493 0.8805 0.75492 0.0
O158 O 0.6118 0.86305 0.84516 0.0
Co159 Co 0.625 0.82772 0.72084 0.0
O160 O 0.58739 0.84995 0.7552 0.0
C161 C 0.6391 0.7829 0.82173 0.0
C162 C 0.69633 0.84986 0.91611 0.0
C163 C 0.58726 0.86192 0.80994 0.0
O164 O 0.64674 0.80573 0.85856 0.0
O165 O 0.63433 0.78643 0.76298 0.0
O166 O 0.66894 0.89321 0.80972 0.0
O167 O 0.66046 0.85046 0.7552 0.0
Co168 Co 0.90683 0.09127 0.90964 0.0
O169 O 0.9109 0.0461 0.90394 0.0
O170 O 0.89106 0.07622 0.83039 0.0
C171 C 0.88571 0.09316 0.00836 0.0
O172 O 0.89614 0.13764 0.89856 0.0
Co173 Co 0.9452 0.12978 1.00052 0.0
O174 O 0.92344 0.1673 0.96593 0.0
C175 C 0.97761 0.10533 0.89331 0.0
C176 C 0.89756 0.04785 0.84942 0.0
C177 C 0.90336 0.16455 0.92208 0.0
O178 O 0.95061 0.0969 0.87108 0.0
O179 O 0.98116 0.11592 0.94856 0.0
O180 O 0.86843 0.08746 0.95959 0.0
O181 O 0.91572 0.09448 0.99645 0.0
Co182 Co 0.6598 0.14832 0.6653 0.0
O183 O 0.7045 0.15464 0.6537 0.0
O184 O 0.67131 0.13902 0.57975 0.0
C185 C 0.66304 0.12134 0.75648 0.0
O186 O 0.61275 0.13868 0.65886 0.0
Co187 Co 0.62393 0.17597 0.78036 0.0
O188 O 0.58846 0.14948 0.75006 0.0
C189 C 0.63995 0.21722 0.67332 0.0
C190 C 0.69995 0.14626 0.59591 0.0
C191 C 0.58816 0.13881 0.69427 0.0
O192 O 0.65112 0.19366 0.64246 0.0
O193 O 0.62997 0.21546 0.72978 0.0
O194 O 0.66769 0.10697 0.70351 0.0
O195 O 0.65976 0.1515 0.75273 0.0
Co196 Co 0.6001 0.91534 0.42184 0.0
O197 O 0.59326 0.96007 0.41174 0.0
O198 O 0.60944 0.92749 0.33701 0.0
C199 C 0.62682 0.91761 0.51275 0.0
O200 O 0.61152 0.86868 0.41331 0.0
Co201 Co 0.57215 0.87702 0.53133 0.0
O202 O 0.59182 0.83977 0.49182 0.0
C203 C 0.53135 0.893 0.42408 0.0
C204 C 0.60169 0.9559 0.35378 0.0
C205 C 0.60715 0.84202 0.44081 0.0
O206 O 0.55469 0.90703 0.39757 0.0
O207 O 0.53351 0.88028 0.47818 0.0
O208 O 0.64118 0.92311 0.4601 0.0
O209 O 0.59659 0.91418 0.50964 0.0
Co210 Co 0.83754 0.849 0.16786 0.0
O211 O 0.79317 0.8405 0.15642 0.0
O212 O 0.82538 0.85878 0.08313 0.0
C213 C 0.83455 0.87467 0.25989 0.0
O214 O 0.88365 0.86208 0.1617 0.0
Co215 Co 0.87495 0.8197 0.27847 0.0
O216 O 0.912 0.84035 0.23904 0.0
C217 C 0.85805 0.77993 0.17181 0.0
C218 C 0.79719 0.84979 0.09898 0.0
C219 C 0.91004 0.85703 0.18958 0.0
O220 O 0.84834 0.80437 0.14174 0.0
O221 O 0.86681 0.78052 0.229 0.0
O222 O 0.82809 0.88942 0.20811 0.0
O223 O 0.83848 0.8446 0.25507 0.0
Co224 Co 0.60084 0.59096 0.90755 0.0
O225 O 0.59563 0.54618 0.89487 0.0
O226 O 0.61055 0.58036 0.8219 0.0
C227 C 0.62756 0.58853 0.99857 0.0
O228 O 0.60973 0.63824 0.90206 0.0
Co229 Co 0.57122 0.62653 0.01989 0.0
O230 O 0.59622 0.66323 0.99107 0.0
C231 C 0.53117 0.60948 0.91199 0.0
C232 C 0.60373 0.55153 0.83717 0.0
C233 C 0.60867 0.66304 0.93688 0.0
O234 O 0.55538 0.59786 0.88411 0.0
O235 O 0.53219 0.62075 0.96759 0.0
O236 O 0.64212 0.58403 0.94574 0.0
O237 O 0.59722 0.59092 0.99501 0.0
Co238 Co 0.66056 0.35502 0.15875 0.0
O239 O 0.70516 0.34799 0.1456 0.0
O240 O 0.67131 0.36338 0.07258 0.0
C241 C 0.66493 0.38239 0.24932 0.0
O242 O 0.6136 0.36555 0.15249 0.0
Co243 Co 0.62347 0.32997 0.27375 0.0
O244 O 0.58792 0.3557 0.24248 0.0
C245 C 0.63785 0.28699 0.16756 0.0
C246 C 0.69993 0.35571 0.08765 0.0
C247 C 0.58867 0.3664 0.18691 0.0
O248 O 0.65179 0.30944 0.13806 0.0
O249 O 0.62581 0.2905 0.22213 0.0
O250 O 0.6692 0.3965 0.19593 0.0
O251 O 0.6608 0.35231 0.24625 0.0
Co252 Co 0.90104 0.41082 0.4063 0.0
O253 O 0.90747 0.45502 0.38928 0.0
O254 O 0.89271 0.41924 0.31917 0.0
C255 C 0.87291 0.41662 0.49554 0.0
O256 O 0.89111 0.36375 0.40548 0.0
Co257 Co 0.92826 0.37853 0.52474 0.0
O258 O 0.90013 0.34312 0.50071 0.0
C259 C 0.97028 0.39129 0.41756 0.0
C260 C 0.8998 0.44833 0.33194 0.0
C261 C 0.88975 0.34087 0.44494 0.0
O262 O 0.94664 0.40192 0.38633 0.0
O263 O 0.96834 0.38224 0.47463 0.0
O264 O 0.85938 0.41974 0.44138 0.0
O265 O 0.90322 0.41347 0.49377 0.0
Co266 Co 0.84127 0.65016 0.65402 0.0
O267 O 0.79646 0.65599 0.64285 0.0
O268 O 0.82992 0.6412 0.56842 0.0
C269 C 0.83904 0.62295 0.74437 0.0
O270 O 0.88844 0.64074 0.64688 0.0
Co271 Co 0.87795 0.6787 0.76569 0.0
O272 O 0.91426 0.6536 0.73522 0.0
C273 C 0.85986 0.71979 0.66018 0.0
C274 C 0.80129 0.64832 0.58474 0.0
C275 C 0.91355 0.64138 0.68085 0.0
O276 O 0.8483 0.69575 0.63173 0.0
O277 O 0.87156 0.71828 0.71534 0.0
O278 O 0.83422 0.60869 0.69133 0.0
O279 O 0.8418 0.65327 0.74149 0.0
Co280 Co 0.60048 0.40985 0.58722 0.0
O281 O 0.59502 0.45476 0.59728 0.0
O282 O 0.60951 0.4217 0.67243 0.0
C283 C 0.62793 0.41211 0.49655 0.0
O284 O 0.60942 0.36283 0.59653 0.0
Co285 Co 0.57305 0.37248 0.47568 0.0
O286 O 0.60086 0.33793 0.50553 0.0
C287 C 0.5312 0.39043 0.58045 0.0
C288 C 0.60286 0.45034 0.65543 0.0
C289 C 0.61074 0.33809 0.56183 0.0
O290 O 0.55484 0.40257 0.60955 0.0
O291 O 0.53311 0.3787 0.52531 0.0
O292 O 0.64214 0.41647 0.54977 0.0
O293 O 0.59766 0.40914 0.49933 0.0
Co294 Co 0.83745 0.3519 0.82791 0.0
O295 O 0.79298 0.34465 0.84195 0.0
O296 O 0.82702 0.36089 0.9139 0.0
C297 C 0.83366 0.37913 0.73792 0.0
O298 O 0.88401 0.36359 0.83246 0.0
Co299 Co 0.87357 0.32493 0.71349 0.0
O300 O 0.9115 0.3439 0.75189 0.0
C301 C 0.86056 0.28347 0.82133 0.0
C302 C 0.79831 0.35315 0.89949 0.0
C303 C 0.91015 0.35912 0.80319 0.0
O304 O 0.84695 0.3064 0.85022 0.0
O305 O 0.87151 0.28602 0.76577 0.0
O306 O 0.82867 0.39319 0.7911 0.0
O307 O 0.83702 0.34891 0.74021 0.0
Co308 Co 0.90114 0.58871 0.07993 0.0
O309 O 0.90779 0.54387 0.08897 0.0
O310 O 0.89273 0.57628 0.16494 0.0
C311 C 0.87347 0.58625 0.98973 0.0
O312 O 0.89085 0.6355 0.09054 0.0
Co313 Co 0.92606 0.62807 0.96873 0.0
O314 O 0.89695 0.66114 0.99955 0.0
C315 C 0.96904 0.6122 0.07385 0.0
C316 C 0.89998 0.54789 0.1473 0.0
C317 C 0.88789 0.66029 0.05633 0.0
O318 O 0.94677 0.59691 0.1013 0.0
O319 O 0.96551 0.62565 0.02062 0.0
O320 O 0.85954 0.5811 0.043 0.0
O321 O 0.90363 0.59011 0.99218 0.0
Co322 Co 0.66053 0.65273 0.33305 0.0
O323 O 0.70496 0.66022 0.34584 0.0
O324 O 0.67148 0.6438 0.41876 0.0
C325 C 0.66474 0.62556 0.24291 0.0
O326 O 0.61392 0.64058 0.33851 0.0
Co327 Co 0.62325 0.67878 0.22075 0.0
O328 O 0.59133 0.64713 0.24536 0.0
C329 C 0.63692 0.721 0.32726 0.0
C330 C 0.70008 0.65156 0.4034 0.0
C331 C 0.59109 0.63539 0.30011 0.0
O332 O 0.65115 0.69821 0.35527 0.0
O333 O 0.62458 0.71801 0.27292 0.0
O334 O 0.66965 0.61154 0.29609 0.0
O335 O 0.66076 0.65575 0.24545 0.0
Co336 Co 0.39901 0.41211 0.08668 0.0
O337 O 0.40766 0.45667 0.09716 0.0
O338 O 0.39103 0.42456 0.17215 0.0
C339 C 0.3715 0.41547 0.99636 0.0
O340 O 0.38668 0.36595 0.09572 0.0
Co341 Co 0.42355 0.37323 0.97247 0.0
O342 O 0.40093 0.33723 0.01169 0.0
C343 C 0.46726 0.39087 0.07373 0.0
C344 C 0.3994 0.45272 0.15525 0.0
C345 C 0.3883 0.33973 0.06559 0.0
O346 O 0.44426 0.40126 0.10743 0.0
O347 O 0.46426 0.38195 0.0168 0.0
O348 O 0.35771 0.42164 0.0494 0.0
O349 O 0.40145 0.41079 0.99929 0.0
Co350 Co 0.34117 0.6521 0.83969 0.0
O351 O 0.29681 0.66004 0.85307 0.0
O352 O 0.33004 0.64189 0.9248 0.0
C353 C 0.33759 0.62633 0.74779 0.0
O354 O 0.38756 0.63962 0.84393 0.0
Co355 Co 0.37785 0.68167 0.72965 0.0
O356 O 0.41094 0.65076 0.75309 0.0
C357 C 0.3613 0.7215 0.83697 0.0
C358 C 0.30166 0.65071 0.91021 0.0
C359 C 0.41081 0.6366 0.80565 0.0
O360 O 0.35093 0.69689 0.86552 0.0
O361 O 0.37137 0.72098 0.78051 0.0
O362 O 0.33196 0.6116 0.79995 0.0
O363 O 0.34122 0.65654 0.75224 0.0
Co364 Co 0.10174 0.59045 0.58598 0.0
O365 O 0.09227 0.54643 0.60038 0.0
O366 O 0.10838 0.58015 0.67304 0.0
C367 C 0.13054 0.58387 0.49748 0.0
O368 O 0.11476 0.63658 0.59048 0.0
Co369 Co 0.07871 0.62549 0.46621 0.0
O370 O 0.10159 0.66235 0.50216 0.0
C371 C 0.03362 0.61032 0.56572 0.0
C372 C 0.10003 0.55165 0.65829 0.0
C373 C 0.11401 0.66156 0.55648 0.0
O374 O 0.0564 0.60287 0.60289 0.0
O375 O 0.03739 0.61458 0.50688 0.0
O376 O 0.14338 0.57918 0.55191 0.0
O377 O 0.10064 0.58911 0.49864 0.0
Co378 Co 0.16049 0.34877 0.33808 0.0
O379 O 0.20486 0.34072 0.35072 0.0
O380 O 0.17229 0.36028 0.42229 0.0
C381 C 0.16395 0.37283 0.24437 0.0
O382 O 0.11403 0.36145 0.34264 0.0
Co383 Co 0.12331 0.31762 0.23001 0.0
O384 O 0.08998 0.34824 0.25361 0.0
C385 C 0.14058 0.27945 0.33919 0.0
C386 C 0.2005 0.35099 0.40737 0.0
C387 C 0.09024 0.36318 0.30533 0.0
O388 O 0.15065 0.3045 0.36663 0.0
O389 O 0.13054 0.27914 0.28274 0.0
O390 O 0.16983 0.38848 0.29539 0.0
O391 O 0.16001 0.3428 0.25114 0.0
Co392 Co 0.402 0.59244 0.41111 0.0
O393 O 0.40743 0.54773 0.39688 0.0
O394 O 0.39233 0.58226 0.32502 0.0
C395 C 0.37504 0.58935 0.5024 0.0
O396 O 0.39308 0.63985 0.40754 0.0
Co397 Co 0.43213 0.62637 0.52515 0.0
O398 O 0.40739 0.6635 0.4976 0.0
C399 C 0.47189 0.61043 0.41627 0.0
C400 C 0.39935 0.55331 0.33927 0.0
C401 C 0.39464 0.66415 0.44371 0.0
O402 O 0.44745 0.59976 0.38765 0.0
O403 O 0.47115 0.62065 0.47268 0.0
O404 O 0.36071 0.58511 0.44932 0.0
O405 O 0.4054 0.59165 0.4987 0.0
Co406 Co 0.16241 0.65043 0.16553 0.0
O407 O 0.20665 0.6594 0.15302 0.0
O408 O 0.17383 0.64192 0.07985 0.0
C409 C 0.16664 0.62308 0.25553 0.0
O410 O 0.11634 0.63734 0.15954 0.0
Co411 Co 0.12545 0.67713 0.27893 0.0
O412 O 0.08794 0.65834 0.2376 0.0
C413 C 0.14172 0.71932 0.17557 0.0
C414 C 0.20208 0.65073 0.09537 0.0
C415 C 0.08988 0.64243 0.18712 0.0
O416 O 0.15124 0.69553 0.14316 0.0
O417 O 0.13326 0.71744 0.23285 0.0
O418 O 0.17237 0.60937 0.2023 0.0
O419 O 0.16228 0.65319 0.25332 0.0
Co420 Co 0.10069 0.40901 0.90763 0.0
O421 O 0.0932 0.45368 0.89728 0.0
O422 O 0.10972 0.42138 0.82256 0.0
C423 C 0.1272 0.41167 0.99886 0.0
O424 O 0.11273 0.36235 0.89968 0.0
Co425 Co 0.0739 0.37029 0.0181 0.0
O426 O 0.10523 0.33848 0.99135 0.0
C427 C 0.03225 0.38636 0.91214 0.0
C428 C 0.10155 0.4497 0.83924 0.0
C429 C 0.11728 0.33884 0.93684 0.0
O430 O 0.05536 0.40014 0.88431 0.0
O431 O 0.03484 0.37363 0.9662 0.0
O432 O 0.14172 0.41743 0.94644 0.0
O433 O 0.09709 0.40785 0.99493 0.0
Co434 Co 0.3409 0.34983 0.66015 0.0
O435 O 0.29657 0.34188 0.6469 0.0
O436 O 0.32975 0.35987 0.57489 0.0
C437 C 0.33667 0.37576 0.75192 0.0
O438 O 0.38745 0.36225 0.65583 0.0
Co439 Co 0.37729 0.32085 0.77112 0.0
O440 O 0.41093 0.35085 0.74635 0.0
C441 C 0.36111 0.2805 0.66421 0.0
C442 C 0.30134 0.35121 0.58975 0.0
C443 C 0.41103 0.36472 0.69351 0.0
O444 O 0.35073 0.30493 0.63501 0.0
O445 O 0.371 0.28136 0.72075 0.0
O446 O 0.33146 0.3904 0.6995 0.0
O447 O 0.34061 0.34559 0.74765 0.0
C448 C 0.12853 0.00867 0.29294 0.0
C449 C 0.10189 0.02863 0.29955 0.0
C450 C 0.07367 0.99811 0.21966 0.0
C451 C 0.1012 0.97965 0.20955 0.0
N452 N 0.15672 0.97131 0.22773 0.0
N453 N 0.05088 0.04578 0.26357 0.0
C454 C 0.12915 0.98595 0.24392 0.0
C455 C 0.07503 0.02445 0.26097 0.0
N456 N 0.15312 0.01117 0.33399 0.0
N457 N 0.04579 0.98946 0.19249 0.0
H458 H 0.05062 0.06475 0.29468 0.0
H459 H 0.03226 0.04608 0.23181 0.0
H460 H 0.04357 0.96993 0.16318 0.0
H461 H 0.02424 0.99988 0.20334 0.0
H462 H 0.17146 0.99488 0.33634 0.0
H463 H 0.15411 0.02829 0.36899 0.0
H464 H 0.17855 0.97733 0.24654 0.0
H465 H 0.15839 0.95516 0.19105 0.0
C466 C 0.24511 0.82278 0.53875 0.0
C467 C 0.22827 0.85093 0.55231 0.0
C468 C 0.2572 0.87843 0.46905 0.0
C469 C 0.27591 0.85112 0.45972 0.0
N470 N 0.2917 0.79913 0.49268 0.0
N471 N 0.22205 0.90706 0.53825 0.0
C472 C 0.27109 0.82383 0.49675 0.0
C473 C 0.23525 0.87919 0.51944 0.0
N474 N 0.2353 0.79472 0.56345 0.0
N475 N 0.26012 0.90348 0.42921 0.0
H476 H 0.2065 0.90876 0.57593 0.0
H477 H 0.22871 0.92891 0.52043 0.0
H478 H 0.27653 0.90406 0.39282 0.0
H479 H 0.24473 0.92261 0.42916 0.0
H480 H 0.24457 0.77298 0.55016 0.0
H481 H 0.21571 0.7928 0.59263 0.0
H482 H 0.29135 0.77996 0.52312 0.0
H483 H 0.31092 0.79907 0.46224 0.0
C484 C 0.42714 0.01095 0.72592 0.0
C485 C 0.39828 0.02548 0.70865 0.0
C486 C 0.36953 0.99099 0.78117 0.0
C487 C 0.39807 0.97496 0.79471 0.0
N488 N 0.45294 0.96561 0.77231 0.0
N489 N 0.34143 0.02631 0.71149 0.0
C490 C 0.4266 0.9838 0.7649 0.0
C491 C 0.36928 0.01475 0.73414 0.0
N492 N 0.45514 0.02381 0.70692 0.0
N493 N 0.34284 0.98399 0.81429 0.0
H494 H 0.34025 0.04366 0.67699 0.0
H495 H 0.31948 0.01696 0.72302 0.0
H496 H 0.34194 0.96617 0.84788 0.0
H497 H 0.3222 0.99723 0.81177 0.0
H498 H 0.47699 0.01637 0.72347 0.0
H499 H 0.45651 0.04384 0.67874 0.0
H500 H 0.47369 0.96895 0.74711 0.0
H501 H 0.45311 0.94525 0.79965 0.0
C502 C 0.24833 0.17879 0.96529 0.0
C503 C 0.22917 0.15156 0.95783 0.0
C504 C 0.25676 0.1261 0.04522 0.0
C505 C 0.2779 0.15198 0.04808 0.0
N506 N 0.29736 0.2006 0.00424 0.0
N507 N 0.2191 0.09692 0.98272 0.0
C508 C 0.27482 0.17758 0.00593 0.0
C509 C 0.2343 0.12458 0.99587 0.0
N510 N 0.24031 0.20634 0.93609 0.0
N511 N 0.25812 0.10295 0.08964 0.0
H512 H 0.2033 0.0944 0.94572 0.0
H513 H 0.2244 0.07563 0.00459 0.0
H514 H 0.27515 0.10245 0.12483 0.0
H515 H 0.24102 0.08548 0.0943 0.0
H516 H 0.25153 0.22773 0.94486 0.0
H517 H 0.22035 0.20865 0.90801 0.0
H518 H 0.2981 0.2181 0.97008 0.0
H519 H 0.3169 0.20069 0.03384 0.0
C520 C 0.91601 0.97066 0.76835 0.0
C521 C 0.89835 0.97358 0.71246 0.0
C522 C 0.8734 0.02171 0.75341 0.0
C523 C 0.89237 0.01938 0.80835 0.0
N524 N 0.91735 0.98215 0.87865 0.0
N525 N 0.85573 0.99791 0.65574 0.0
C526 C 0.90952 0.99109 0.81926 0.0
C527 C 0.87583 0.99813 0.70584 0.0
N528 N 0.93958 0.94877 0.77257 0.0
N529 N 0.85194 0.04558 0.74824 0.0
H530 H 0.85664 0.98091 0.62052 0.0
H531 H 0.8369 0.01335 0.65011 0.0
H532 H 0.84408 0.05834 0.78696 0.0
H533 H 0.84112 0.05213 0.70656 0.0
H534 H 0.95529 0.94793 0.81003 0.0
H535 H 0.94543 0.93358 0.73595 0.0
H536 H 0.92818 0.9607 0.88883 0.0
H537 H 0.9081 0.99306 0.91826 0.0
C538 C 0.77129 0.17228 0.50056 0.0
C539 C 0.77699 0.14493 0.46401 0.0
C540 C 0.73376 0.1175 0.51754 0.0
C541 C 0.72629 0.14576 0.55008 0.0
N542 N 0.73408 0.20174 0.5638 0.0
N543 N 0.76149 0.0929 0.43085 0.0
C544 C 0.74408 0.17362 0.53941 0.0
C545 C 0.75751 0.11795 0.47037 0.0
N546 N 0.79209 0.19689 0.49877 0.0
N547 N 0.71927 0.08989 0.5338 0.0
H548 H 0.77932 0.09199 0.39722 0.0
H549 H 0.7458 0.07405 0.42828 0.0
H550 H 0.70224 0.08843 0.56892 0.0
H551 H 0.72604 0.06794 0.51654 0.0
H552 H 0.7912 0.21591 0.52957 0.0
H553 H 0.81186 0.19715 0.46979 0.0
H554 H 0.74407 0.22337 0.55212 0.0
H555 H 0.71382 0.20396 0.59112 0.0
C556 C 0.62962 0.98843 0.27266 0.0
C557 C 0.60196 0.98226 0.30814 0.0
C558 C 0.57567 0.02722 0.25833 0.0
C559 C 0.60184 0.03082 0.21768 0.0
N560 N 0.65247 0.01294 0.18064 0.0
N561 N 0.54655 0.99207 0.32625 0.0
C562 C 0.62845 0.0108 0.22314 0.0
C563 C 0.57441 1.00074 0.29899 0.0
N564 N 0.6574 0.97406 0.28818 0.0
N565 N 0.55223 0.04932 0.25874 0.0
H566 H 0.5442 0.97221 0.35459 0.0
H567 H 0.52506 0.00273 0.31581 0.0
H568 H 0.55245 0.06905 0.22964 0.0
H569 H 0.53413 0.04964 0.29172 0.0
H570 H 0.67899 0.98 0.26816 0.0
H571 H 0.65951 0.95837 0.3255 0.0
H572 H 0.67077 0.99662 0.17784 0.0
H573 H 0.65295 0.0298 0.1451 0.0
C574 C 0.72588 0.82351 0.00326 0.0
C575 C 0.72155 0.85008 0.96399 0.0
C576 C 0.76408 0.87783 0.01878 0.0
C577 C 0.77082 0.84997 0.05318 0.0
N578 N 0.76187 0.79427 0.06933 0.0
N579 N 0.73883 0.90113 0.92814 0.0
C580 C 0.75264 0.82224 0.04331 0.0
C581 C 0.74142 0.8768 0.96976 0.0
N582 N 0.70426 0.79962 0.00279 0.0
N583 N 0.77807 0.9057 0.03504 0.0
H584 H 0.72173 0.9018 0.89309 0.0
H585 H 0.75505 0.91951 0.92542 0.0
H586 H 0.79385 0.90779 0.07221 0.0
H587 H 0.77169 0.92736 0.01592 0.0
H588 H 0.70439 0.78115 0.03492 0.0
H589 H 0.68453 0.79969 0.97368 0.0
H590 H 0.75142 0.77273 0.05846 0.0
H591 H 0.78198 0.79195 0.09697 0.0
C592 C 0.57566 0.49484 0.71116 0.0
C593 C 0.60335 0.47669 0.70106 0.0
C594 C 0.63057 0.50624 0.7838 0.0
C595 C 0.60381 0.52601 0.78998 0.0
N596 N 0.55272 0.54273 0.75313 0.0
N597 N 0.6589 0.46861 0.71937 0.0
C598 C 0.57693 0.52146 0.75154 0.0
C599 C 0.6313 0.48326 0.73525 0.0
N600 N 0.5477 0.48568 0.68494 0.0
N601 N 0.65516 0.50922 0.82472 0.0
H602 H 0.66058 0.45223 0.6831 0.0
H603 H 0.68071 0.47476 0.73809 0.0
H604 H 0.65591 0.52651 0.85945 0.0
H605 H 0.67374 0.49321 0.82723 0.0
H606 H 0.52611 0.49592 0.69614 0.0
H607 H 0.54546 0.46586 0.65642 0.0
H608 H 0.53419 0.54268 0.72116 0.0
H609 H 0.55235 0.56204 0.78329 0.0
C610 C 0.75638 0.32568 0.96235 0.0
C611 C 0.77282 0.35382 0.94714 0.0
C612 C 0.74351 0.38236 0.02865 0.0
C613 C 0.72531 0.35493 0.04004 0.0
N614 N 0.71093 0.30173 0.01221 0.0
N615 N 0.77858 0.41016 0.95795 0.0
C616 C 0.73069 0.32695 0.00517 0.0
C617 C 0.76554 0.38251 0.97833 0.0
N618 N 0.76628 0.29747 0.93828 0.0
N619 N 0.74004 0.40813 0.06653 0.0
H620 H 0.79431 0.41135 0.92048 0.0
H621 H 0.77171 0.43225 0.97428 0.0
H622 H 0.72357 0.40912 0.10277 0.0
H623 H 0.75503 0.42756 0.06522 0.0
H624 H 0.75752 0.27576 0.95294 0.0
H625 H 0.78529 0.29541 0.90756 0.0
H626 H 0.7113 0.28207 0.98299 0.0
H627 H 0.69248 0.3014 0.04446 0.0
C628 C 0.92658 0.47767 0.2453 0.0
C629 C 0.89946 0.4729 0.28296 0.0
C630 C 0.87145 0.51431 0.22553 0.0
C631 C 0.89961 0.52134 0.19238 0.0
N632 N 0.9555 0.51326 0.17767 0.0
N633 N 0.84724 0.48859 0.31485 0.0
C634 C 0.92759 0.50384 0.20376 0.0
C635 C 0.87221 0.49181 0.27484 0.0
N636 N 0.95129 0.45703 0.24889 0.0
N637 N 0.84367 0.52811 0.20804 0.0
H638 H 0.8465 0.4716 0.35012 0.0
H639 H 0.82824 0.50414 0.31603 0.0
H640 H 0.842 0.54413 0.17116 0.0
H641 H 0.82181 0.52156 0.22603 0.0
H642 H 0.9702 0.45717 0.21776 0.0
H643 H 0.95176 0.43809 0.27999 0.0
H644 H 0.97724 0.5036 0.1897 0.0
H645 H 0.95746 0.53269 0.14806 0.0
C646 C 0.73329 0.62203 0.4811 0.0
C647 C 0.72604 0.65068 0.4498 0.0
C648 C 0.77008 0.67685 0.50298 0.0
C649 C 0.77546 0.64905 0.5383 0.0
N650 N 0.7599 0.59651 0.56793 0.0
N651 N 0.73356 0.70684 0.43933 0.0
C652 C 0.75631 0.62203 0.52952 0.0
C653 C 0.74343 0.67851 0.46281 0.0
N654 N 0.7193 0.59452 0.46251 0.0
N655 N 0.7907 0.70155 0.5071 0.0
H656 H 0.71372 0.70922 0.41092 0.0
H657 H 0.74321 0.7284 0.45265 0.0
H658 H 0.81004 0.70155 0.53711 0.0
H659 H 0.79009 0.72096 0.4773 0.0
H660 H 0.72603 0.57241 0.47892 0.0
H661 H 0.70287 0.59337 0.4263 0.0
H662 H 0.74433 0.57752 0.56862 0.0
H663 H 0.77718 0.59532 0.60259 0.0
C664 C 0.37188 0.49711 0.21059 0.0
C665 C 0.39965 0.47912 0.20082 0.0
C666 C 0.42796 0.51189 0.27701 0.0
C667 C 0.39942 0.52794 0.29121 0.0
N668 N 0.34316 0.53299 0.27838 0.0
N669 N 0.45289 0.46604 0.2304 0.0
C670 C 0.37109 0.51991 0.2596 0.0
C671 C 0.42736 0.48556 0.23568 0.0
N672 N 0.3464 0.49268 0.17243 0.0
N673 N 0.45588 0.52263 0.30086 0.0
H674 H 0.45342 0.44679 0.20006 0.0
H675 H 0.47254 0.46738 0.25947 0.0
H676 H 0.45744 0.54207 0.33058 0.0
H677 H 0.47781 0.51415 0.2868 0.0
H678 H 0.3267 0.50732 0.17252 0.0
H679 H 0.34592 0.47569 0.13709 0.0
H680 H 0.32126 0.52562 0.262 0.0
H681 H 0.34157 0.54949 0.31447 0.0
C682 C 0.23773 0.67976 0.02161 0.0
C683 C 0.22797 0.65088 0.04891 0.0
C684 C 0.26478 0.62174 0.98168 0.0
C685 C 0.27606 0.65077 0.95741 0.0
N686 N 0.27704 0.70763 0.96041 0.0
N687 N 0.23482 0.5949 0.06252 0.0
C688 C 0.26351 0.67988 0.97892 0.0
C689 C 0.24223 0.62198 0.03104 0.0
N690 N 0.22175 0.70694 0.03517 0.0
N691 N 0.27477 0.59396 0.95588 0.0
H692 H 0.21814 0.59414 0.09841 0.0
H693 H 0.24686 0.57372 0.05666 0.0
H694 H 0.29127 0.59286 0.9197 0.0
H695 H 0.26495 0.57213 0.96662 0.0
H696 H 0.22523 0.72809 0.01147 0.0
H697 H 0.20324 0.70789 0.06728 0.0
H698 H 0.2714 0.72945 0.97977 0.0
H699 H 0.29582 0.70873 0.92896 0.0
C700 C 0.12856 0.4826 0.75706 0.0
C701 C 0.10129 0.47619 0.79359 0.0
C702 C 0.07464 0.52179 0.74635 0.0
C703 C 0.10052 0.5259 0.70515 0.0
N704 N 0.15053 0.50786 0.66504 0.0
N705 N 0.04604 0.48588 0.81372 0.0
C706 C 0.12696 0.50549 0.70848 0.0
C707 C 0.07368 0.49484 0.78597 0.0
N708 N 0.15647 0.46804 0.77086 0.0
N709 N 0.05112 0.54379 0.74816 0.0
H710 H 0.04389 0.46563 0.84102 0.0
H711 H 0.02448 0.4967 0.80452 0.0
H712 H 0.05094 0.56366 0.71942 0.0
H713 H 0.03328 0.54379 0.78171 0.0
H714 H 0.17785 0.47414 0.75014 0.0
H715 H 0.159 0.45204 0.80755 0.0
H716 H 0.16856 0.49132 0.66063 0.0
H717 H 0.15082 0.52508 0.63022 0.0
C718 C 0.241 0.37998 0.47063 0.0
C719 C 0.22642 0.3511 0.45378 0.0
C720 C 0.2626 0.32214 0.52248 0.0
C721 C 0.27557 0.35122 0.54297 0.0
N722 N 0.27457 0.40805 0.54385 0.0
N723 N 0.21982 0.29518 0.46955 0.0
C724 C 0.26414 0.38024 0.5189 0.0
C725 C 0.23627 0.32228 0.48129 0.0
N726 N 0.23335 0.40699 0.43919 0.0
N727 N 0.27624 0.29436 0.54049 0.0
H728 H 0.20074 0.29422 0.43889 0.0
H729 H 0.22343 0.27418 0.49372 0.0
H730 H 0.29551 0.29324 0.5707 0.0
H731 H 0.27023 0.27254 0.52163 0.0
H732 H 0.24555 0.42814 0.44422 0.0
H733 H 0.21621 0.40773 0.40421 0.0
H734 H 0.26472 0.42989 0.53333 0.0
H735 H 0.29153 0.40917 0.57911 0.0
C736 C 0.15245 0.19244 0.37812 0.0
C737 C 0.13708 0.19069 0.43735 0.0
C738 C 0.12758 0.24748 0.43507 0.0
C739 C 0.14106 0.24926 0.37442 0.0
N740 N 0.17568 0.22576 0.29782 0.0
N741 N 0.1297 0.22007 0.53358 0.0
C742 C 0.1563 0.22237 0.34857 0.0
C743 C 0.13072 0.21925 0.46974 0.0
N744 N 0.1642 0.16575 0.35101 0.0
N745 N 0.1106 0.27207 0.45902 0.0
H746 H 0.13724 0.20124 0.56109 0.0
H747 H 0.12683 0.24097 0.55868 0.0
H748 H 0.10622 0.2928 0.43433 0.0
H749 H 0.09809 0.27036 0.50093 0.0
H750 H 0.171 0.16438 0.30426 0.0
H751 H 0.16742 0.14486 0.37589 0.0
H752 H 0.18972 0.20776 0.27994 0.0
H753 H 0.18015 0.24752 0.27691 0.0
C754 C 0.02906 0.88165 0.58051 0.0
C755 C 0.00148 0.88209 0.61823 0.0
C756 C 0.03543 0.87484 0.70992 0.0
C757 C 0.06116 0.86647 0.67047 0.0
N758 N 0.07765 0.8539 0.56411 0.0
N759 N 0.97898 0.87201 0.72112 0.0
C760 C 0.05684 0.86776 0.60447 0.0
C761 C 0.00467 0.87695 0.68383 0.0
N762 N 0.02913 0.89487 0.52226 0.0
N763 N 0.04018 0.88154 0.77171 0.0
H764 H 0.95605 0.87024 0.70423 0.0
H765 H 0.98102 0.86577 0.76816 0.0
H766 H 0.06258 0.88268 0.79168 0.0
H767 H 0.02223 0.88994 0.80066 0.0
H768 H 0.04958 0.89656 0.49527 0.0
H769 H 0.01007 0.90771 0.50487 0.0
H770 H 0.07358 0.85288 0.516 0.0
H771 H 0.09628 0.83967 0.57849 0.0
C772 C 0.373 0.78299 0.96477 0.0
C773 C 0.3669 0.81128 0.93146 0.0
C774 C 0.3464 0.77896 0.84462 0.0
C775 C 0.36143 0.7521 0.87105 0.0
N776 N 0.39192 0.72965 0.95588 0.0
N777 N 0.33828 0.83563 0.8466 0.0
C778 C 0.37529 0.75429 0.93128 0.0
C779 C 0.35064 0.80913 0.87326 0.0
N780 N 0.3745 0.78298 0.02858 0.0
N781 N 0.32684 0.77531 0.79425 0.0
H782 H 0.33487 0.85641 0.87181 0.0
H783 H 0.33079 0.83686 0.80029 0.0
H784 H 0.32211 0.75341 0.77413 0.0
H785 H 0.31306 0.79329 0.77562 0.0
H786 H 0.37705 0.76235 0.05465 0.0
H787 H 0.36784 0.80248 0.05524 0.0
H788 H 0.4047 0.7316 0.99739 0.0
H789 H 0.39572 0.70853 0.93205 0.0
C790 C 0.45756 0.15772 0.13884 0.0
C791 C 0.44283 0.13561 0.17918 0.0
C792 C 0.48553 0.09788 0.15961 0.0
C793 C 0.50124 0.12083 0.12273 0.0
N794 N 0.50658 0.17562 0.09346 0.0
N795 N 0.44656 0.08811 0.24045 0.0
C796 C 0.48852 0.15167 0.117 0.0
C797 C 0.45802 0.10673 0.19361 0.0
N798 N 0.44198 0.18445 0.12087 0.0
N799 N 0.49595 0.06741 0.16001 0.0
H800 H 0.42711 0.09464 0.2673 0.0
H801 H 0.45819 0.06809 0.25672 0.0
H802 H 0.51565 0.05999 0.13471 0.0
H803 H 0.48359 0.04906 0.18121 0.0
H804 H 0.45031 0.19951 0.08607 0.0
H805 H 0.41956 0.19036 0.13698 0.0
H806 H 0.49956 0.19916 0.09412 0.0
H807 H 0.53 0.1726 0.07979 0.0
C808 C 0.10682 0.75465 0.11353 0.0
C809 C 0.13615 0.74978 0.14376 0.0
C810 C 0.15084 0.80496 0.12419 0.0
C811 C 0.12066 0.81023 0.09721 0.0
N812 N 0.06731 0.79221 0.08041 0.0
N813 N 0.18521 0.77004 0.18342 0.0
C814 C 0.09798 0.78559 0.09543 0.0
C815 C 0.15798 0.77489 0.15057 0.0
N816 N 0.08729 0.72962 0.10222 0.0
N817 N 0.17279 0.8285 0.12351 0.0
H818 H 0.19175 0.74793 0.2005 0.0
H819 H 0.20061 0.78797 0.19647 0.0
H820 H 0.16764 0.85123 0.10841 0.0
H821 H 0.19639 0.82533 0.13525 0.0
H822 H 0.06742 0.73099 0.07374 0.0
H823 H 0.09223 0.70677 0.11718 0.0
H824 H 0.04899 0.77602 0.08485 0.0
H825 H 0.05935 0.81485 0.06985 0.0
C826 C 0.47244 0.88987 0.42913 0.0
C827 C 0.5001 0.89089 0.39176 0.0
C828 C 0.46633 0.88352 0.29971 0.0
C829 C 0.44092 0.87403 0.33888 0.0
N830 N 0.4248 0.86056 0.44505 0.0
N831 N 0.52279 0.88267 0.28815 0.0
C832 C 0.44511 0.87528 0.40491 0.0
C833 C 0.49704 0.88636 0.32585 0.0
N834 N 0.472 0.90291 0.48755 0.0
N835 N 0.4613 0.8905 0.23815 0.0
H836 H 0.54586 0.88198 0.30439 0.0
H837 H 0.52084 0.8766 0.241 0.0
H838 H 0.43885 0.89102 0.2183 0.0
H839 H 0.47892 0.8997 0.20939 0.0
H840 H 0.45148 0.9041 0.51444 0.0
H841 H 0.49084 0.91602 0.50516 0.0
H842 H 0.42884 0.85966 0.49319 0.0
H843 H 0.40683 0.84554 0.43049 0.0
C844 C 0.37344 0.21802 0.53843 0.0
C845 C 0.36772 0.18995 0.5728 0.0
C846 C 0.34674 0.22285 0.65839 0.0
C847 C 0.36145 0.24965 0.63097 0.0
N848 N 0.39175 0.27163 0.5453 0.0
N849 N 0.33935 0.16609 0.65867 0.0
C850 C 0.37539 0.24705 0.57083 0.0
C851 C 0.35141 0.19246 0.63095 0.0
N852 N 0.37487 0.21747 0.47461 0.0
N853 N 0.32702 0.22675 0.70851 0.0
H854 H 0.33598 0.14508 0.63424 0.0
H855 H 0.33197 0.16523 0.70512 0.0
H856 H 0.32192 0.2488 0.72767 0.0
H857 H 0.31344 0.20878 0.72776 0.0
H858 H 0.37715 0.23789 0.4478 0.0
H859 H 0.36841 0.19765 0.44869 0.0
H860 H 0.40457 0.26942 0.50385 0.0
H861 H 0.39532 0.293 0.56834 0.0
C862 C 0.03959 0.1458 0.79971 0.0
C863 C 0.06631 0.12634 0.81116 0.0
C864 C 0.03233 0.08824 0.86578 0.0
C865 C 0.00577 0.10739 0.85245 0.0
N866 N 0.98275 0.14968 0.79285 0.0
N867 N 0.0874 0.07647 0.84572 0.0
C868 C 0.00898 0.13438 0.81409 0.0
C869 C 0.06244 0.09668 0.84127 0.0
N870 N 0.04351 0.17629 0.78024 0.0
N871 N 0.02877 0.06254 0.90368 0.0
H872 H 0.10988 0.08228 0.83005 0.0
H873 H 0.08545 0.05324 0.86094 0.0
H874 H 0.00667 0.05478 0.91879 0.0
H875 H 0.04754 0.04972 0.92202 0.0
H876 H 0.02511 0.1925 0.77768 0.0
H877 H 0.06552 0.18669 0.77344 0.0
H878 H 0.98356 0.1677 0.75977 0.0
H879 H 0.95997 0.14219 0.80331 0.0
C880 C 0.84844 0.77808 0.66285 0.0
C881 C 0.85878 0.75115 0.62864 0.0
C882 C 0.86629 0.785 0.53722 0.0
C883 C 0.86653 0.81189 0.57654 0.0
N884 N 0.84633 0.8351 0.67165 0.0
N885 N 0.87834 0.72981 0.53014 0.0
C886 C 0.85404 0.80882 0.63806 0.0
C887 C 0.86749 0.75468 0.56464 0.0
N888 N 0.83164 0.77409 0.71695 0.0
N889 N 0.86291 0.78825 0.47401 0.0
H890 H 0.8804 0.70695 0.54706 0.0
H891 H 0.88797 0.73264 0.48556 0.0
H892 H 0.85757 0.8099 0.45338 0.0
H893 H 0.86037 0.76904 0.44394 0.0
H894 H 0.82134 0.79247 0.74195 0.0
H895 H 0.82514 0.75194 0.73376 0.0
H896 H 0.84224 0.83501 0.7197 0.0
H897 H 0.84306 0.85702 0.65055 0.0
C898 C 0.94978 0.13199 0.42528 0.0
C899 C 0.94743 0.14115 0.36113 0.0
C900 C 0.00518 0.13807 0.35402 0.0
C901 C 0.00658 0.1236 0.41363 0.0
N902 N 0.9782 0.09973 0.49948 0.0
N903 N 0.97468 0.14356 0.26058 0.0
C904 C 0.97824 0.11825 0.44721 0.0
C905 C 0.9756 0.14144 0.32424 0.0
N906 N 0.92608 0.13821 0.46686 0.0
N907 N 0.0317 0.1501 0.32654 0.0
H908 H 0.95399 0.14382 0.23507 0.0
H909 H 0.9947 0.14089 0.23267 0.0
H910 H 0.05371 0.15034 0.34818 0.0
H911 H 0.03093 0.1634 0.28551 0.0
H912 H 0.9283 0.13392 0.51471 0.0
H913 H 0.90628 0.15159 0.45597 0.0
H914 H 0.95747 0.09314 0.52227 0.0
H915 H 0.99831 0.08813 0.51557 0.0
C916 C 0.62902 0.25131 0.0725 0.0
C917 C 0.6348 0.25525 0.13776 0.0
C918 C 0.62035 0.20022 0.15458 0.0
C919 C 0.61839 0.19512 0.08885 0.0
N920 N 0.63268 0.2147 0.98615 0.0
N921 N 0.64831 0.22879 0.23453 0.0
C922 C 0.62656 0.22026 0.04792 0.0
C923 C 0.63464 0.22816 0.17671 0.0
N924 N 0.62374 0.27653 0.03421 0.0
N925 N 0.60662 0.18008 0.1964 0.0
H926 H 0.66126 0.24808 0.2506 0.0
H927 H 0.65017 0.20869 0.26244 0.0
H928 H 0.59194 0.16154 0.18338 0.0
H929 H 0.60617 0.1847 0.24436 0.0
H930 H 0.61699 0.27388 0.98757 0.0
H931 H 0.62218 0.29969 0.04994 0.0
H932 H 0.64092 0.23225 0.95611 0.0
H933 H 0.6335 0.19205 0.96719 0.0
C934 C 0.5397 0.84556 0.87043 0.0
C935 C 0.55637 0.86965 0.83843 0.0
C936 C 0.51498 0.90757 0.86608 0.0
C937 C 0.49691 0.88264 0.89206 0.0
N938 N 0.48893 0.82666 0.90552 0.0
N939 N 0.5579 0.92237 0.79693 0.0
C940 C 0.50835 0.85124 0.89027 0.0
C941 C 0.54337 0.90035 0.83345 0.0
N942 N 0.55414 0.81755 0.88373 0.0
N943 N 0.5058 0.93812 0.87497 0.0
H944 H 0.57857 0.91747 0.77247 0.0
H945 H 0.5481 0.9443 0.78677 0.0
H946 H 0.48535 0.9442 0.89934 0.0
H947 H 0.51967 0.95741 0.8626 0.0
H948 H 0.54405 0.80031 0.91214 0.0
H949 H 0.57749 0.81283 0.87179 0.0
H950 H 0.49512 0.80313 0.89869 0.0
H951 H 0.46544 0.82972 0.91878 0.0
C952 C 0.87415 0.24916 0.91618 0.0
C953 C 0.86473 0.2522 0.85249 0.0
C954 C 0.88 0.19737 0.8338 0.0
C955 C 0.88748 0.19361 0.89827 0.0
N956 N 0.87838 0.21313 0.00328 0.0
N957 N 0.84639 0.2246 0.76048 0.0
C958 C 0.88031 0.21859 0.94038 0.0
C959 C 0.86347 0.22472 0.81463 0.0
N960 N 0.87922 0.27495 0.95313 0.0
N961 N 0.89025 0.17639 0.78972 0.0
H962 H 0.83245 0.24369 0.74692 0.0
H963 H 0.84308 0.20427 0.73377 0.0
H964 H 0.90498 0.15743 0.79953 0.0
H965 H 0.88724 0.18019 0.74187 0.0
H966 H 0.88917 0.27324 0.99763 0.0
H967 H 0.87663 0.29807 0.93808 0.0
H968 H 0.87086 0.23028 0.03495 0.0
H969 H 0.88017 0.19061 0.02256 0.0
C970 C 0.55176 0.10082 0.63814 0.0
C971 C 0.55705 0.13075 0.66631 0.0
C972 C 0.50187 0.14534 0.64697 0.0
C973 C 0.49739 0.11664 0.61429 0.0
N974 N 0.51807 0.06802 0.57306 0.0
N975 N 0.53912 0.18424 0.68369 0.0
C976 C 0.52236 0.0946 0.60827 0.0
C977 C 0.53258 0.15372 0.66737 0.0
N978 N 0.57448 0.07807 0.64143 0.0
N979 N 0.47675 0.16474 0.65845 0.0
H980 H 0.56155 0.19207 0.69611 0.0
H981 H 0.52311 0.20267 0.67842 0.0
H982 H 0.454 0.16005 0.6424 0.0
H983 H 0.47789 0.18411 0.68837 0.0
H984 H 0.5709 0.05468 0.62849 0.0
H985 H 0.59654 0.08211 0.66103 0.0
H986 H 0.53624 0.05279 0.56046 0.0
H987 H 0.49639 0.06205 0.55322 0.0
C988 C 0.62967 0.75573 0.42416 0.0
C989 C 0.63426 0.75253 0.35844 0.0
C990 C 0.62064 0.80822 0.34554 0.0
C991 C 0.61944 0.8123 0.41168 0.0
N992 N 0.63571 0.79104 0.51191 0.0
N993 N 0.64684 0.78011 0.26235 0.0
C994 C 0.62817 0.78645 0.45046 0.0
C995 C 0.63397 0.7802 0.32095 0.0
N996 N 0.6246 0.73011 0.46154 0.0
N997 N 0.60725 0.82948 0.3056 0.0
H998 H 0.6592 0.76083 0.24449 0.0
H999 H 0.64878 0.80055 0.23545 0.0
H1000 H 0.59374 0.84857 0.32023 0.0
H1001 H 0.606 0.82557 0.25745 0.0
H1002 H 0.61877 0.73227 0.50879 0.0
H1003 H 0.62213 0.70723 0.44468 0.0
H1004 H 0.64433 0.77296 0.54022 0.0
H1005 H 0.63734 0.8134 0.53197 0.0
C1006 C 0.96508 0.87853 0.20372 0.0
C1007 C 0.93982 0.87048 0.16293 0.0
C1008 C 0.97286 0.88746 0.07513 0.0
C1009 C 0.99998 0.88709 0.11402 0.0
N1010 N 0.02132 0.8754 0.21711 0.0
N1011 N 0.92367 0.86141 0.05482 0.0
C1012 C 0.99606 0.88101 0.17906 0.0
C1013 C 0.94456 0.87354 0.09712 0.0
N1014 N 0.95966 0.88451 0.2656 0.0
N1015 N 0.97382 0.90137 0.01754 0.0
H1016 H 0.90408 0.848 0.06687 0.0
H1017 H 0.92819 0.86126 0.00682 0.0
H1018 H 0.9935 0.91372 0.00149 0.0
H1019 H 0.95379 0.90402 0.98971 0.0
H1020 H 0.97729 0.89261 0.29561 0.0
H1021 H 0.93705 0.88544 0.28471 0.0
H1022 H 0.01869 0.8684 0.26362 0.0
H1023 H 0.04444 0.87381 0.20115 0.0
C1024 C 0.65412 0.73679 0.88964 0.0
C1025 C 0.63193 0.75163 0.8496 0.0
C1026 C 0.59538 0.70734 0.86469 0.0
C1027 C 0.61665 0.69384 0.90828 0.0
N1028 N 0.66244 0.69949 0.97384 0.0
N1029 N 0.57864 0.75382 0.80859 0.0
C1030 C 0.64491 0.7097 0.92429 0.0
C1031 C 0.60186 0.73757 0.83923 0.0
N1032 N 0.68437 0.74778 0.89262 0.0
N1033 N 0.56851 0.69152 0.84846 0.0
H1034 H 0.58159 0.77622 0.78965 0.0
H1035 H 0.55524 0.74644 0.80678 0.0
H1036 H 0.56088 0.67125 0.87147 0.0
H1037 H 0.55453 0.69763 0.81028 0.0
H1038 H 0.70234 0.7361 0.9164 0.0
H1039 H 0.69223 0.767 0.86645 0.0
H1040 H 0.68175 0.71181 0.99142 0.0
H1041 H 0.65553 0.6805 0.0015 0.0
C1042 C 0.51617 0.41076 0.12782 0.0
C1043 C 0.49825 0.38527 0.10366 0.0
C1044 C 0.54131 0.34866 0.12773 0.0
C1045 C 0.55808 0.37361 0.15678 0.0
N1046 N 0.56017 0.42739 0.19241 0.0
N1047 N 0.49112 0.32905 0.091 0.0
C1048 C 0.5451 0.40441 0.1592 0.0
C1049 C 0.51012 0.35396 0.10633 0.0
N1050 N 0.50622 0.44105 0.11842 0.0
N1051 N 0.55537 0.3199 0.11968 0.0
H1052 H 0.46808 0.33162 0.07492 0.0
H1053 H 0.49712 0.30563 0.09953 0.0
H1054 H 0.57782 0.31461 0.1364 0.0
H1055 H 0.54587 0.30204 0.09204 0.0
H1056 H 0.51976 0.46078 0.12923 0.0
H1057 H 0.4853 0.44651 0.09518 0.0
H1058 H 0.55043 0.44943 0.20176 0.0
H1059 H 0.58163 0.42339 0.21457 0.0
C1060 C 0.84222 0.274 0.3702 0.0
C1061 C 0.86333 0.24847 0.37893 0.0
C1062 C 0.90193 0.28384 0.42705 0.0
C1063 C 0.88013 0.30916 0.4223 0.0
N1064 N 0.82812 0.32791 0.39607 0.0
N1065 N 0.9104 0.22747 0.42665 0.0
C1066 C 0.84981 0.30411 0.39576 0.0
C1067 C 0.89211 0.25287 0.41144 0.0
N1068 N 0.8153 0.26952 0.33621 0.0
N1069 N 0.9328 0.28965 0.44176 0.0
H1070 H 0.90455 0.20446 0.41435 0.0
H1071 H 0.92982 0.22888 0.45633 0.0
H1072 H 0.9417 0.3122 0.44991 0.0
H1073 H 0.95045 0.27263 0.43908 0.0
H1074 H 0.80068 0.28777 0.32149 0.0
H1075 H 0.8083 0.24736 0.32008 0.0
H1076 H 0.80453 0.32492 0.38401 0.0
H1077 H 0.83331 0.35044 0.41227 0.0
C1078 C 0.96049 0.60527 0.66917 0.0
C1079 C 0.94408 0.63296 0.65131 0.0
C1080 C 0.98716 0.64689 0.57974 0.0
C1081 C 0.00205 0.61744 0.59286 0.0
N1082 N 0.999 0.56578 0.63964 0.0
N1083 N 0.9405 0.67953 0.58699 0.0
C1084 C 0.98763 0.59583 0.63477 0.0
C1085 C 0.95692 0.65337 0.60534 0.0
N1086 N 0.9507 0.58845 0.72003 0.0
N1087 N 0.00258 0.66969 0.54626 0.0
H1088 H 0.92037 0.6875 0.61006 0.0
H1089 H 0.94597 0.69254 0.54711 0.0
H1090 H 0.0247 0.66678 0.52612 0.0
H1091 H 0.99473 0.69288 0.54278 0.0
H1092 H 0.96349 0.56977 0.73894 0.0
H1093 H 0.93147 0.59528 0.74714 0.0
H1094 H 0.98763 0.5481 0.66488 0.0
H1095 H 0.0181 0.55763 0.61343 0.0
C1096 C 0.60752 0.251 0.60323 0.0
C1097 C 0.63496 0.24742 0.64026 0.0
C1098 C 0.64813 0.30324 0.62404 0.0
C1099 C 0.61926 0.30731 0.59091 0.0
N1100 N 0.56749 0.28688 0.56627 0.0
N1101 N 0.6801 0.26997 0.69163 0.0
C1102 C 0.59791 0.28164 0.58489 0.0
C1103 C 0.65494 0.27352 0.65225 0.0
N1104 N 0.59038 0.22513 0.58587 0.0
N1105 N 0.6693 0.32743 0.62762 0.0
H1106 H 0.68668 0.24818 0.71016 0.0
H1107 H 0.69343 0.28869 0.70867 0.0
H1108 H 0.66449 0.35009 0.61179 0.0
H1109 H 0.69232 0.32478 0.64364 0.0
H1110 H 0.57212 0.22607 0.55332 0.0
H1111 H 0.5961 0.20224 0.59955 0.0
H1112 H 0.55006 0.26958 0.56737 0.0
H1113 H 0.55849 0.30928 0.55704 0.0
C1114 C 0.99691 0.38007 0.81606 0.0
C1115 C 1.00064 0.38497 0.88153 0.0
C1116 C 0.94487 0.37292 0.89676 0.0
C1117 C 0.94029 0.37109 0.83077 0.0
N1118 N 0.96105 0.38626 0.72933 0.0
N1119 N 0.97418 0.39939 0.97781 0.0
C1120 C 0.96598 0.37902 0.79081 0.0
C1121 C 0.97329 0.38591 0.91978 0.0
N1122 N 0.02218 0.37437 0.77802 0.0
N1123 N 0.92379 0.36032 0.93813 0.0
H1124 H 0.99399 0.41128 0.99457 0.0
H1125 H 0.95401 0.40222 0.00524 0.0
H1126 H 0.90446 0.34683 0.925 0.0
H1127 H 0.92811 0.35959 0.98617 0.0
H1128 H 0.01958 0.36822 0.73103 0.0
H1129 H 0.04518 0.37195 0.79416 0.0
H1130 H 0.97909 0.39424 0.70015 0.0
H1131 H 0.93858 0.38837 0.71004 0.0
C1132 C 0.89214 0.74643 0.10426 0.0
C1133 C 0.8634 0.7502 0.13727 0.0
C1134 C 0.8497 0.69486 0.11685 0.0
C1135 C 0.87933 0.6907 0.08666 0.0
N1136 N 0.93194 0.71022 0.06693 0.0
N1137 N 0.81563 0.72846 0.17991 0.0
C1138 C 0.90136 0.71593 0.08413 0.0
C1139 C 0.84232 0.72453 0.14478 0.0
N1140 N 0.91084 0.77203 0.09253 0.0
N1141 N 0.82853 0.67061 0.11821 0.0
H1142 H 0.80882 0.75029 0.198 0.0
H1143 H 0.8009 0.7101 0.19358 0.0
H1144 H 0.83415 0.64791 0.10362 0.0
H1145 H 0.80511 0.67304 0.13189 0.0
H1146 H 0.93009 0.77145 0.06224 0.0
H1147 H 0.90574 0.79458 0.10908 0.0
H1148 H 0.94989 0.72685 0.0707 0.0
H1149 H 0.94038 0.68786 0.05547 0.0
C1150 C 0.5602 0.60424 0.38258 0.0
C1151 C 0.56166 0.61892 0.3227 0.0
C1152 C 0.5043 0.62311 0.32024 0.0
C1153 C 0.50253 0.61103 0.38218 0.0
N1154 N 0.52746 0.58 0.46281 0.0
N1155 N 0.53382 0.62097 0.22404 0.0
C1156 C 0.53017 0.5986 0.41081 0.0
C1157 C 0.53335 0.62173 0.2879 0.0
N1158 N 0.58728 0.59452 0.41117 0.0
N1159 N 0.47893 0.63727 0.29266 0.0
H1160 H 0.55403 0.6149 0.1989 0.0
H1161 H 0.51331 0.62103 0.19715 0.0
H1162 H 0.45727 0.64034 0.31472 0.0
H1163 H 0.48059 0.64888 0.24976 0.0
H1164 H 0.58865 0.5885 0.45831 0.0
H1165 H 0.6084 0.59173 0.38677 0.0
H1166 H 0.54625 0.56811 0.48336 0.0
H1167 H 0.50576 0.57388 0.48229 0.0
C1168 C 0.39891 0.29907 0.14775 0.0
C1169 C 0.3793 0.31037 0.09882 0.0
C1170 C 0.34328 0.26596 0.11597 0.0
C1171 C 0.36503 0.25256 0.15889 0.0
N1172 N 0.41775 0.2532 0.20278 0.0
N1173 N 0.33576 0.30145 0.02846 0.0
C1174 C 0.39395 0.26829 0.17163 0.0
C1175 C 0.35237 0.29283 0.0804 0.0
N1176 N 0.42259 0.31745 0.17129 0.0
N1177 N 0.31352 0.25388 0.111 0.0
H1178 H 0.34196 0.32083 0.00119 0.0
H1179 H 0.31777 0.28775 0.00942 0.0
H1180 H 0.30564 0.23497 0.138 0.0
H1181 H 0.2958 0.26453 0.08469 0.0
H1182 H 0.43507 0.3116 0.21167 0.0
H1183 H 0.42817 0.33971 0.15401 0.0
H1184 H 0.44042 0.26245 0.20674 0.0
H1185 H 0.41628 0.23002 0.21851 0.0
C1186 C 0.46729 0.61983 0.78745 0.0
C1187 C 0.44001 0.61892 0.8257 0.0
C1188 C 0.47292 0.59819 0.91111 0.0
C1189 C 0.50019 0.60923 0.87905 0.0
N1190 N 0.52279 0.63104 0.78371 0.0
N1191 N 0.41585 0.59539 0.91685 0.0
C1192 C 0.49739 0.61974 0.81604 0.0
C1193 C 0.44244 0.60443 0.88562 0.0
N1194 N 0.46462 0.61861 0.72381 0.0
N1195 N 0.47637 0.5802 0.96381 0.0
H1196 H 0.39434 0.59213 0.89415 0.0
H1197 H 0.41532 0.58993 0.96432 0.0
H1198 H 0.49836 0.57344 0.98102 0.0
H1199 H 0.4578 0.5694 0.9873 0.0
H1200 H 0.48407 0.61687 0.69413 0.0
H1201 H 0.44315 0.61424 0.70166 0.0
H1202 H 0.52057 0.64213 0.74038 0.0
H1203 H 0.54557 0.63187 0.80144 0.0
C1204 C 0.09831 0.71222 0.60696 0.0
C1205 C 0.12275 0.69194 0.5862 0.0
C1206 C 0.16219 0.7289 0.62748 0.0
C1207 C 0.13765 0.7504 0.64207 0.0
N1208 N 0.08288 0.76534 0.6342 0.0
N1209 N 0.17804 0.68188 0.57061 0.0
C1210 C 0.10587 0.74294 0.62804 0.0
C1211 C 0.1548 0.70057 0.59461 0.0
N1212 N 0.06801 0.70142 0.6102 0.0
N1213 N 0.19223 0.73498 0.64718 0.0
H1214 H 0.17309 0.66074 0.54792 0.0
H1215 H 0.20173 0.68827 0.56941 0.0
H1216 H 0.19822 0.75545 0.6715 0.0
H1217 H 0.21065 0.71886 0.64351 0.0
H1218 H 0.04964 0.71416 0.63045 0.0
H1219 H 0.062 0.67824 0.59944 0.0
H1220 H 0.05988 0.76213 0.61833 0.0
H1221 H 0.08744 0.78822 0.64969 0.0
C1222 C 0.05882 0.39664 0.38389 0.0
C1223 C 0.06045 0.37972 0.32627 0.0
C1224 C 0.00318 0.374 0.32575 0.0
C1225 C 0.00127 0.38881 0.38519 0.0
N1226 N 0.02581 0.42274 0.46156 0.0
N1227 N 0.03219 0.37268 0.22896 0.0
C1228 C 0.02874 0.40261 0.41184 0.0
C1229 C 0.03205 0.37468 0.29272 0.0
N1230 N 0.08571 0.4082 0.41041 0.0
N1231 N 0.97804 0.35797 0.30154 0.0
H1232 H 0.05213 0.37812 0.20246 0.0
H1233 H 0.01155 0.37092 0.20267 0.0
H1234 H 0.95681 0.35499 0.32544 0.0
H1235 H 0.97967 0.34469 0.26055 0.0
H1236 H 0.08716 0.41587 0.4566 0.0
H1237 H 0.10653 0.41104 0.38506 0.0
H1238 H 0.04437 0.43569 0.48029 0.0
H1239 H 0.00408 0.42873 0.48111 0.0
C1240 C 0.40971 0.71307 0.38597 0.0
C1241 C 0.38627 0.69543 0.4178 0.0
C1242 C 0.34671 0.73564 0.3926 0.0
C1243 C 0.37046 0.75394 0.36327 0.0
N1244 N 0.42585 0.76402 0.34628 0.0
N1245 N 0.33509 0.69378 0.46622 0.0
C1246 C 0.40237 0.74376 0.36393 0.0
C1247 C 0.35548 0.70786 0.42557 0.0
N1248 N 0.43901 0.70045 0.37653 0.0
N1249 N 0.31575 0.74409 0.38707 0.0
H1250 H 0.34177 0.67446 0.49315 0.0
H1251 H 0.31323 0.70322 0.47823 0.0
H1252 H 0.3085 0.7642 0.36295 0.0
H1253 H 0.29719 0.72992 0.40218 0.0
H1254 H 0.45572 0.71042 0.34678 0.0
H1255 H 0.446 0.67889 0.39536 0.0
H1256 H 0.44974 0.7591 0.35182 0.0
H1257 H 0.4216 0.78714 0.33198 0.0
C1258 C 0.02813 0.61553 0.06736 0.0
C1259 C 1.0005 0.6151 0.10486 0.0
C1260 C 0.03415 0.62183 0.19705 0.0
C1261 C 0.06007 0.6303 0.15822 0.0
N1262 N 0.07757 0.64196 0.05194 0.0
N1263 N 0.97773 0.62503 0.20752 0.0
C1264 C 0.05614 0.62884 0.092 0.0
C1265 C 0.00352 0.61999 0.17051 0.0
N1266 N 0.02797 0.60288 0.00858 0.0
N1267 N 0.03861 0.6148 0.25877 0.0
H1268 H 0.95487 0.62706 0.19031 0.0
H1269 H 0.97965 0.63117 0.25464 0.0
H1270 H 0.06091 0.6134 0.27906 0.0
H1271 H 0.02049 0.60636 0.28724 0.0
H1272 H 0.04839 0.60083 0.98161 0.0
H1273 H 0.00855 0.59086 0.99043 0.0
H1274 H 0.07368 0.64321 0.00379 0.0
H1275 H 0.09688 0.6552 0.06626 0.0
C1276 C 0.15564 0.27885 0.82507 0.0
C1277 C 0.14277 0.25085 0.85146 0.0
C1278 C 0.12915 0.2805 0.94557 0.0
C1279 C 0.13342 0.30938 0.91309 0.0
N1280 N 0.15949 0.33597 0.8275 0.0
N1281 N 0.11243 0.22663 0.9347 0.0
C1282 C 0.14926 0.30858 0.85418 0.0
C1283 C 0.12825 0.25208 0.9112 0.0
N1284 N 0.17537 0.27681 0.77456 0.0
N1285 N 0.12827 0.27967 0.00942 0.0
H1286 H 0.1092 0.20575 0.90974 0.0
H1287 H 0.09946 0.22777 0.97616 0.0
H1288 H 0.1345 0.29905 0.03682 0.0
H1289 H 0.12689 0.25862 0.0345 0.0
H1290 H 0.18777 0.29584 0.75619 0.0
H1291 H 0.18166 0.25541 0.75401 0.0
H1292 H 0.16634 0.33784 0.78086 0.0
H1293 H 0.16187 0.35682 0.85295 0.0
C1294 C 0.44272 0.39686 0.61335 0.0
C1295 C 0.44093 0.38089 0.67198 0.0
C1296 C 0.49826 0.37546 0.67374 0.0
C1297 C 0.50027 0.38905 0.61323 0.0
N1298 N 0.47593 0.42099 0.53348 0.0
N1299 N 0.46882 0.37547 0.7701 0.0
C1300 C 0.47286 0.4022 0.58515 0.0
C1301 C 0.46923 0.37648 0.70625 0.0
N1302 N 0.41589 0.40811 0.58607 0.0
N1303 N 0.52349 0.36022 0.69953 0.0
H1304 H 0.44877 0.38128 0.79596 0.0
H1305 H 0.48934 0.37418 0.79686 0.0
H1306 H 0.54496 0.35729 0.67644 0.0
H1307 H 0.52183 0.34761 0.74129 0.0
H1308 H 0.41448 0.4152 0.53954 0.0
H1309 H 0.39505 0.41137 0.61118 0.0
H1310 H 0.45745 0.43341 0.51313 0.0
H1311 H 0.49773 0.42632 0.51348 0.0
C1312 C 0.14586 0.06742 0.61628 0.0
C1313 C 0.15425 0.08669 0.56481 0.0
C1314 C 0.1882 0.1181 0.63321 0.0
C1315 C 0.17356 0.10411 0.68593 0.0
N1316 N 0.14324 0.06079 0.72859 0.0
N1317 N 0.18604 0.12884 0.52219 0.0
C1318 C 0.15434 0.07691 0.67792 0.0
C1319 C 0.17683 0.1111 0.57228 0.0
N1320 N 0.13027 0.03972 0.60553 0.0
N1321 N 0.21342 0.13769 0.64186 0.0
H1322 H 0.18004 0.12335 0.47632 0.0
H1323 H 0.19863 0.14982 0.52629 0.0
H1324 H 0.2228 0.14212 0.68617 0.0
H1325 H 0.22702 0.14665 0.60539 0.0
H1326 H 0.12563 0.02297 0.63988 0.0
H1327 H 0.12451 0.03212 0.56047 0.0
H1328 H 0.12486 0.04457 0.72645 0.0
H1329 H 0.15262 0.06322 0.77319 0.0
C1330 C 0.1815 0.88222 0.87654 0.0
C1331 C 0.16319 0.89161 0.82425 0.0
C1332 C 0.13268 0.92685 0.89203 0.0
C1333 C 0.14612 0.91229 0.94541 0.0
N1334 N 0.1858 0.87777 0.98906 0.0
N1335 N 0.12032 0.92265 0.78199 0.0
C1336 C 0.17168 0.89088 0.93797 0.0
C1337 C 0.13889 0.91436 0.83158 0.0
N1338 N 0.20877 0.86567 0.86712 0.0
N1339 N 0.11425 0.95304 0.89943 0.0
H1340 H 0.12396 0.91454 0.73661 0.0
H1341 H 0.09977 0.9359 0.78664 0.0
H1342 H 0.11019 0.96322 0.94321 0.0
H1343 H 0.10606 0.96657 0.86215 0.0
H1344 H 0.22491 0.86068 0.90244 0.0
H1345 H 0.21684 0.85953 0.82258 0.0
H1346 H 0.20068 0.85827 0.98676 0.0
H1347 H 0.18239 0.88611 0.03422 0.0
C1348 C 0.36731 0.92954 0.11869 0.0
C1349 C 0.35507 0.91351 0.06579 0.0
C1350 C 0.31998 0.88343 0.13476 0.0
C1351 C 0.33708 0.89451 0.1873 0.0
N1352 N 0.37828 0.92774 0.22962 0.0
N1353 N 0.31957 0.87422 0.02319 0.0
C1354 C 0.36068 0.91796 0.17968 0.0
C1355 C 0.33085 0.89063 0.07346 0.0
N1356 N 0.38513 0.95606 0.11038 0.0
N1357 N 0.29311 0.86621 0.14372 0.0
H1358 H 0.32576 0.87912 0.97717 0.0
H1359 H 0.30539 0.85429 0.02739 0.0
H1360 H 0.28438 0.86099 0.18823 0.0
H1361 H 0.27784 0.85999 0.10759 0.0
H1362 H 0.39232 0.97055 0.14708 0.0
H1363 H 0.38982 0.9654 0.06613 0.0
H1364 H 0.39846 0.94155 0.22511 0.0
H1365 H 0.37419 0.92045 0.27537 0.0
C1366 C 0.36495 0.06938 0.38743 0.0
C1367 C 0.35477 0.08754 0.43938 0.0
C1368 C 0.32056 0.11819 0.37013 0.0
C1369 C 0.33659 0.1055 0.31767 0.0
N1370 N 0.37207 0.06617 0.27507 0.0
N1371 N 0.32134 0.12878 0.48116 0.0
C1372 C 0.35769 0.07972 0.32564 0.0
C1373 C 0.33157 0.11135 0.43133 0.0
N1374 N 0.38138 0.04212 0.39768 0.0
N1375 N 0.29439 0.13645 0.36108 0.0
H1376 H 0.32733 0.12383 0.52727 0.0
H1377 H 0.30814 0.14935 0.47648 0.0
H1378 H 0.28529 0.14095 0.31657 0.0
H1379 H 0.27984 0.1441 0.39733 0.0
H1380 H 0.38714 0.02605 0.36267 0.0
H1381 H 0.38652 0.03397 0.44263 0.0
H1382 H 0.39006 0.04958 0.27852 0.0
H1383 H 0.3674 0.0724 0.229 0.0
C1384 C 0.82285 0.88022 0.37371 0.0
C1385 C 0.83966 0.89097 0.32049 0.0
C1386 C 0.87075 0.92596 0.38769 0.0
C1387 C 0.85863 0.91038 0.44126 0.0
N1388 N 0.82271 0.87186 0.48552 0.0
N1389 N 0.88079 0.92365 0.27638 0.0
C1390 C 0.8341 0.88771 0.43462 0.0
C1391 C 0.86356 0.91418 0.32707 0.0
N1392 N 0.79576 0.86321 0.3658 0.0
N1393 N 0.88885 0.95237 0.39499 0.0
H1394 H 0.87632 0.91611 0.23091 0.0
H1395 H 0.90109 0.93736 0.27992 0.0
H1396 H 0.89384 0.96197 0.43888 0.0
H1397 H 0.89597 0.96658 0.35784 0.0
H1398 H 0.78063 0.85734 0.4024 0.0
H1399 H 0.78668 0.85781 0.32167 0.0
H1400 H 0.80839 0.85199 0.48207 0.0
H1401 H 0.82889 0.87707 0.53141 0.0
C1402 C 0.84035 0.08954 0.0902 0.0
C1403 C 0.87242 0.09658 0.07383 0.0
C1404 C 0.88339 0.10228 0.18531 0.0
C1405 C 0.85118 0.10461 0.19895 0.0
N1406 N 0.79762 0.10158 0.16251 0.0
N1407 N 0.9187 0.12382 0.11082 0.0
C1408 C 0.82908 0.09863 0.15075 0.0
C1409 C 0.89288 0.10605 0.12288 0.0
N1410 N 0.82106 0.07311 0.05086 0.0
N1411 N 0.90495 0.09811 0.23159 0.0
H1412 H 0.9182 0.13881 0.07254 0.0
H1413 H 0.93487 0.13014 0.14506 0.0
H1414 H 0.89802 0.09364 0.27759 0.0
H1415 H 0.92882 0.09474 0.22171 0.0
H1416 H 0.79834 0.06627 0.06358 0.0
H1417 H 0.82877 0.0623 0.01 0.0
H1418 H 0.78064 0.10061 0.12728 0.0
H1419 H 0.78893 0.10668 0.20713 0.0
C1420 C 0.63923 0.07973 0.82827 0.0
C1421 C 0.66046 0.10522 0.81829 0.0
C1422 C 0.66391 0.11425 0.9315 0.0
C1423 C 0.64134 0.09002 0.94132 0.0
N1424 N 0.61507 0.0437 0.90254 0.0
N1425 N 0.70158 0.138 0.86038 0.0
C1426 C 0.63142 0.07085 0.89065 0.0
C1427 C 0.6756 0.11958 0.87012 0.0
N1428 N 0.62542 0.06487 0.77873 0.0
N1429 N 0.67278 0.13352 0.97965 0.0
H1430 H 0.71124 0.14141 0.81592 0.0
H1431 H 0.71549 0.14687 0.89649 0.0
H1432 H 0.66544 0.13037 0.02568 0.0
H1433 H 0.68582 0.15408 0.97322 0.0
H1434 H 0.60606 0.04992 0.783 0.0
H1435 H 0.6329 0.06781 0.73287 0.0
H1436 H 0.60973 0.02698 0.86848 0.0
H1437 H 0.60952 0.03637 0.94786 0.0
C1438 C 0.63531 0.9338 0.62406 0.0
C1439 C 0.64375 0.91406 0.57303 0.0
C1440 C 0.67817 0.88366 0.64211 0.0
C1441 C 0.66383 0.89817 0.69467 0.0
N1442 N 0.63273 0.94107 0.73664 0.0
N1443 N 0.67417 0.8704 0.53236 0.0
C1444 C 0.64406 0.92491 0.68609 0.0
C1445 C 0.66605 0.88949 0.58134 0.0
N1446 N 0.61928 0.96119 0.61262 0.0
N1447 N 0.70369 0.86448 0.6508 0.0
H1448 H 0.66621 0.87385 0.48681 0.0
H1449 H 0.68725 0.84978 0.53755 0.0
H1450 H 0.71351 0.86073 0.69499 0.0
H1451 H 0.71709 0.85529 0.61422 0.0
H1452 H 0.61449 0.97821 0.64639 0.0
H1453 H 0.6131 0.96833 0.56753 0.0
H1454 H 0.61546 0.95843 0.73397 0.0
H1455 H 0.63998 0.93687 0.7823 0.0
C1456 C 0.66989 0.61196 0.06911 0.0
C1457 C 0.64388 0.59123 0.06003 0.0
C1458 C 0.6374 0.58574 0.17362 0.0
C1459 C 0.66155 0.60847 0.18259 0.0
N1460 N 0.7077 0.63431 0.14237 0.0
N1461 N 0.61196 0.54936 0.10217 0.0
C1462 C 0.68012 0.61857 0.13123 0.0
C1463 C 0.63055 0.57523 0.11199 0.0
N1464 N 0.68373 0.62673 0.01934 0.0
N1465 N 0.61988 0.57533 0.22314 0.0
H1466 H 0.60762 0.54034 0.05752 0.0
H1467 H 0.60384 0.53485 0.13804 0.0
H1468 H 0.62516 0.58064 0.26947 0.0
H1469 H 0.59906 0.56256 0.21808 0.0
H1470 H 0.70059 0.6444 0.02382 0.0
H1471 H 0.67715 0.62316 0.97306 0.0
H1472 H 0.72408 0.63983 0.10779 0.0
H1473 H 0.71576 0.63898 0.1876 0.0
C1474 C 0.66756 0.38693 0.42354 0.0
C1475 C 0.64479 0.4107 0.43549 0.0
C1476 C 0.64386 0.42447 0.32367 0.0
C1477 C 0.66403 0.39841 0.31143 0.0
N1478 N 0.70499 0.36451 0.35008 0.0
N1479 N 0.61949 0.45851 0.40186 0.0
C1480 C 0.67918 0.3829 0.36177 0.0
C1481 C 0.63563 0.43161 0.38693 0.0
N1482 N 0.67669 0.36689 0.47004 0.0
N1483 N 0.63169 0.44161 0.27535 0.0
H1484 H 0.61382 0.46446 0.44793 0.0
H1485 H 0.61426 0.47632 0.37006 0.0
H1486 H 0.63865 0.43865 0.22907 0.0
H1487 H 0.61404 0.45845 0.28058 0.0
H1488 H 0.68984 0.34652 0.46224 0.0
H1489 H 0.66959 0.36967 0.51617 0.0
H1490 H 0.71893 0.35469 0.38514 0.0
H1491 H 0.71444 0.36207 0.30518 0.0
C1492 C 0.86319 0.41785 0.67011 0.0
C1493 C 0.83795 0.39625 0.67809 0.0
C1494 C 0.82846 0.39581 0.56479 0.0
C1495 C 0.8556 0.41515 0.55641 0.0
N1496 N 0.88974 0.45452 0.60078 0.0
N1497 N 0.79064 0.37287 0.63723 0.0
C1498 C 0.86999 0.42941 0.6092 0.0
C1499 C 0.81871 0.38784 0.62657 0.0
N1500 N 0.88186 0.42594 0.71969 0.0
N1501 N 0.81258 0.38407 0.51439 0.0
H1502 H 0.78273 0.36732 0.68217 0.0
H1503 H 0.77385 0.36867 0.6027 0.0
H1504 H 0.81517 0.39281 0.46933 0.0
H1505 H 0.79657 0.36552 0.51721 0.0
H1506 H 0.90292 0.43833 0.71498 0.0
H1507 H 0.87745 0.41874 0.76541 0.0
H1508 H 0.89888 0.46784 0.63748 0.0
H1509 H 0.89402 0.46422 0.55668 0.0
C1510 C 0.83343 0.61228 0.91878 0.0
C1511 C 0.85663 0.58872 0.92888 0.0
C1512 C 0.86187 0.58071 0.81551 0.0
C1513 C 0.84089 0.60639 0.80559 0.0
N1514 N 0.79789 0.63753 0.84544 0.0
N1515 N 0.88407 0.54326 0.88967 0.0
C1516 C 0.82383 0.61925 0.85666 0.0
C1517 C 0.86785 0.57048 0.87789 0.0
N1518 N 0.82167 0.62911 0.96793 0.0
N1519 N 0.87738 0.56721 0.76623 0.0
H1520 H 0.88815 0.53517 0.9351 0.0
H1521 H 0.89061 0.52715 0.85528 0.0
H1522 H 0.87403 0.57382 0.71988 0.0
H1523 H 0.89524 0.55058 0.77123 0.0
H1524 H 0.80851 0.64969 0.96282 0.0
H1525 H 0.82593 0.623 0.01414 0.0
H1526 H 0.78266 0.64533 0.88044 0.0
H1527 H 0.78964 0.64201 0.80029 0.0
C1528 C 0.32098 0.38219 0.86424 0.0
C1529 C 0.3397 0.39237 0.81295 0.0
C1530 C 0.36854 0.42786 0.88302 0.0
C1531 C 0.35495 0.41243 0.93529 0.0
N1532 N 0.31604 0.37645 0.97682 0.0
N1533 N 0.38125 0.42587 0.77285 0.0
C1534 C 0.33001 0.3905 0.9264 0.0
C1535 C 0.36302 0.416 0.82183 0.0
N1536 N 0.29436 0.3649 0.85305 0.0
N1537 N 0.38644 0.45426 0.89224 0.0
H1538 H 0.37738 0.41914 0.72671 0.0
H1539 H 0.40152 0.43946 0.77841 0.0
H1540 H 0.39012 0.46387 0.93665 0.0
H1541 H 0.39467 0.46845 0.85597 0.0
H1542 H 0.27794 0.35905 0.88735 0.0
H1543 H 0.28702 0.359 0.80792 0.0
H1544 H 0.29995 0.35802 0.97332 0.0
H1545 H 0.32152 0.38203 0.02294 0.0
C1546 C 0.36597 0.58743 0.6779 0.0
C1547 C 0.34145 0.60979 0.68684 0.0
C1548 C 0.33149 0.61104 0.57349 0.0
C1549 C 0.3586 0.59166 0.56421 0.0
N1550 N 0.39223 0.55135 0.60678 0.0
N1551 N 0.29446 0.63438 0.64763 0.0
C1552 C 0.37289 0.57671 0.61636 0.0
C1553 C 0.32211 0.61883 0.63582 0.0
N1554 N 0.38357 0.57735 0.72754 0.0
N1555 N 0.31532 0.62289 0.52346 0.0
H1556 H 0.28697 0.63977 0.69294 0.0
H1557 H 0.27751 0.63944 0.61396 0.0
H1558 H 0.32017 0.61722 0.4772 0.0
H1559 H 0.29756 0.6397 0.52698 0.0
H1560 H 0.40462 0.56493 0.72279 0.0
H1561 H 0.378 0.58248 0.77383 0.0
H1562 H 0.40122 0.53745 0.64273 0.0
H1563 H 0.39635 0.54196 0.56235 0.0
C1564 C 0.13256 0.57128 0.38414 0.0
C1565 C 0.14786 0.58478 0.43667 0.0
C1566 C 0.18363 0.61305 0.3658 0.0
C1567 C 0.16336 0.6055 0.31517 0.0
N1568 N 0.11912 0.57603 0.27454 0.0
N1569 N 0.19215 0.6139 0.47808 0.0
C1570 C 0.13842 0.58361 0.32348 0.0
C1571 C 0.1751 0.6038 0.42776 0.0
N1572 N 0.11266 0.54632 0.39276 0.0
N1573 N 0.21123 0.62864 0.35399 0.0
H1574 H 0.18869 0.60546 0.52321 0.0
H1575 H 0.20966 0.63103 0.47568 0.0
H1576 H 0.21807 0.63518 0.30888 0.0
H1577 H 0.22862 0.63276 0.38732 0.0
H1578 H 0.10275 0.53348 0.35617 0.0
H1579 H 0.1089 0.53631 0.43679 0.0
H1580 H 0.09818 0.56348 0.27969 0.0
H1581 H 0.12296 0.58375 0.22894 0.0
C1582 C 0.1375 0.41276 0.17363 0.0
C1583 C 0.15989 0.38818 0.1823 0.0
C1584 C 0.16644 0.38342 0.0684 0.0
C1585 C 0.14342 0.40738 0.05988 0.0
N1586 N 0.11508 0.45146 0.10296 0.0
N1587 N 0.20245 0.35727 0.13969 0.0
C1588 C 0.13162 0.42419 0.11222 0.0
C1589 C 0.17651 0.37579 0.1301 0.0
N1590 N 0.12036 0.42398 0.22305 0.0
N1591 N 0.17752 0.36674 0.01827 0.0
H1592 H 0.21087 0.35189 0.18432 0.0
H1593 H 0.21745 0.34998 0.10387 0.0
H1594 H 0.17227 0.37242 0.9721 0.0
H1595 H 0.19065 0.3461 0.02257 0.0
H1596 H 0.10075 0.43852 0.21786 0.0
H1597 H 0.12416 0.41725 0.26919 0.0
H1598 H 0.10842 0.46654 0.13913 0.0
H1599 H 0.11097 0.4607 0.05843 0.0
loop_
_geom_bond_atom_site_label_1
_geom_bond_atom_site_label_2
_geom_bond_distance
_geom_bond_site_symmetry_2
_ccdc_geom_bond_type
Co0 O1 2.216 . S
Co0 O2 2.091 . S
Co0 O4 2.004 . S
Co0 O10 2.021 . S
Co0 O12 2.137 . S
Co0 O13 2.244 . S
O1 Co0 2.216 . S
O1 C8 1.247 . S
O2 Co0 2.091 . S
O2 C8 1.261 . S
C3 O12 1.247 . S
C3 O13 1.272 . S
O4 Co0 2.004 . S
O4 C9 1.259 . S
Co5 O6 2.061 . S
Co5 O11 2.052 . S
Co5 O13 2.135 . S
O6 Co5 2.061 . S
O6 C9 1.235 . S
C7 O10 1.238 . S
C7 O11 1.241 . S
C8 O1 1.247 . S
C8 O2 1.261 . S
C9 O4 1.259 . S
C9 O6 1.235 . S
O10 Co0 2.021 . S
O10 C7 1.238 . S
O11 Co5 2.052 . S
O11 C7 1.241 . S
O12 Co0 2.137 . S
O12 C3 1.247 . S
O13 Co0 2.244 . S
O13 C3 1.272 . S
O13 Co5 2.135 . S
Co14 O15 2.216 . S
Co14 O16 2.091 . S
Co14 O18 2.004 . S
Co14 O24 2.021 . S
Co14 O26 2.137 . S
Co14 O27 2.244 . S
O15 Co14 2.216 . S
O15 C22 1.247 . S
O16 Co14 2.091 . S
O16 C22 1.261 . S
C17 O26 1.247 . S
C17 O27 1.272 . S
O18 Co14 2.004 . S
O18 C23 1.259 . S
Co19 O20 2.061 . S
Co19 O25 2.052 . S
Co19 O27 2.135 . S
O20 Co19 2.061 . S
O20 C23 1.235 . S
C21 O24 1.238 . S
C21 O25 1.241 . S
C22 O15 1.247 . S
C22 O16 1.261 . S
C23 O18 1.259 . S
C23 O20 1.235 . S
O24 Co14 2.021 . S
O24 C21 1.238 . S
O25 Co19 2.052 . S
O25 C21 1.241 . S
O26 Co14 2.137 . S
O26 C17 1.247 . S
O27 Co14 2.244 . S
O27 C17 1.272 . S
O27 Co19 2.135 . S
Co28 O29 2.216 . S
Co28 O30 2.091 . S
Co28 O32 2.004 . S
Co28 O38 2.021 . S
Co28 O40 2.137 . S
Co28 O41 2.244 . S
O29 Co28 2.216 . S
O29 C36 1.247 . S
O30 Co28 2.091 . S
O30 C36 1.261 . S
C31 O40 1.247 1_554 S
C31 O41 1.272 1_554 S
O32 Co28 2.004 . S
O32 C37 1.259 . S
Co33 O34 2.061 . S
Co33 O39 2.052 . S
Co33 O41 2.135 . S
O34 Co33 2.061 . S
O34 C37 1.235 . S
C35 O38 1.238 . S
C35 O39 1.241 . S
C36 O29 1.247 . S
C36 O30 1.261 . S
C37 O32 1.259 . S
C37 O34 1.235 . S
O38 Co28 2.021 . S
O38 C35 1.238 . S
O39 Co33 2.052 . S
O39 C35 1.241 . S
O40 Co28 2.137 . S
O40 C31 1.247 1_556 S
O41 Co28 2.244 . S
O41 C31 1.272 1_556 S
O41 Co33 2.135 . S
Co42 O43 2.216 . S
Co42 O44 2.091 . S
Co42 O46 2.004 . S
Co42 O52 2.021 . S
Co42 O54 2.137 . S
Co42 O55 2.244 . S
O43 Co42 2.216 . S
O43 C50 1.247 . S
O44 Co42 2.091 . S
O44 C50 1.261 . S
C45 O54 1.247 . S
C45 O55 1.272 . S
O46 Co42 2.004 . S
O46 C51 1.259 . S
Co47 O48 2.061 . S
Co47 O53 2.052 . S
Co47 O55 2.135 . S
O48 Co47 2.061 . S
O48 C51 1.235 . S
C49 O52 1.238 . S
C49 O53 1.241 . S
C50 O43 1.247 . S
C50 O44 1.261 . S
C51 O46 1.259 . S
C51 O48 1.235 . S
O52 Co42 2.021 . S
O52 C49 1.238 . S
O53 Co47 2.052 . S
O53 C49 1.241 . S
O54 Co42 2.137 . S
O54 C45 1.247 . S
O55 Co42 2.244 . S
O55 C45 1.272 . S
O55 Co47 2.135 . S
Co56 O57 2.216 . S
Co56 O58 2.091 . S
Co56 O60 2.004 . S
Co56 O66 2.021 . S
Co56 O68 2.137 . S
Co56 O69 2.244 . S
O57 Co56 2.216 . S
O57 C64 1.247 . S
O58 Co56 2.091 . S
O58 C64 1.261 . S
C59 O68 1.247 1_556 S
C59 O69 1.272 1_556 S
O60 Co56 2.004 . S
O60 C65 1.259 . S
Co61 O62 2.061 . S
Co61 O67 2.052 . S
Co61 O69 2.135 . S
O62 Co61 2.061 . S
O62 C65 1.235 . S
C63 O66 1.238 . S
C63 O67 1.241 . S
C64 O57 1.247 . S
C64 O58 1.261 . S
C65 O60 1.259 . S
C65 O62 1.235 . S
O66 Co56 2.021 . S
O66 C63 1.238 . S
O67 Co61 2.052 . S
O67 C63 1.241 . S
O68 Co56 2.137 . S
O68 C59 1.247 1_554 S
O69 Co56 2.244 . S
O69 C59 1.272 1_554 S
O69 Co61 2.135 . S
Co70 O71 2.216 . S
Co70 O72 2.091 . S
Co70 O74 2.004 . S
Co70 O80 2.021 . S
Co70 O82 2.137 . S
Co70 O83 2.244 . S
O71 Co70 2.216 . S
O71 C78 1.247 . S
O72 Co70 2.091 . S
O72 C78 1.261 . S
C73 O82 1.247 . S
C73 O83 1.272 . S
O74 Co70 2.004 . S
O74 C79 1.259 . S
Co75 O76 2.061 . S
Co75 O81 2.052 . S
Co75 O83 2.135 . S
O76 Co75 2.061 . S
O76 C79 1.235 . S
C77 O80 1.238 . S
C77 O81 1.241 . S
C78 O71 1.247 . S
C78 O72 1.261 . S
C79 O74 1.259 . S
C79 O76 1.235 . S
O80 Co70 2.021 . S
O80 C77 1.238 . S
O81 Co75 2.052 . S
O81 C77 1.241 . S
O82 Co70 2.137 . S
O82 C73 1.247 . S
O83 Co70 2.244 . S
O83 C73 1.272 . S
O83 Co75 2.135 . S
Co84 O85 2.216 . S
Co84 O86 2.091 . S
Co84 O88 2.004 . S
Co84 O94 2.021 . S
Co84 O96 2.137 . S
Co84 O97 2.244 . S
O85 Co84 2.216 . S
O85 C92 1.247 . S
O86 Co84 2.091 . S
O86 C92 1.261 . S
C87 O96 1.247 . S
C87 O97 1.272 . S
O88 Co84 2.004 . S
O88 C93 1.259 . S
Co89 O90 2.061 . S
Co89 O95 2.052 . S
Co89 O97 2.135 . S
O90 Co89 2.061 . S
O90 C93 1.235 . S
C91 O94 1.238 . S
C91 O95 1.241 . S
C92 O85 1.247 . S
C92 O86 1.261 . S
C93 O88 1.259 . S
C93 O90 1.235 . S
O94 Co84 2.021 . S
O94 C91 1.238 . S
O95 Co89 2.052 . S
O95 C91 1.241 . S
O96 Co84 2.137 . S
O96 C87 1.247 . S
O97 Co84 2.244 . S
O97 C87 1.272 . S
O97 Co89 2.135 . S
Co98 O99 2.216 . S
Co98 O100 2.091 . S
Co98 O102 2.004 . S
Co98 O108 2.021 . S
Co98 O110 2.137 . S
Co98 O111 2.244 . S
O99 Co98 2.216 . S
O99 C106 1.247 . S
O100 Co98 2.091 . S
O100 C106 1.261 . S
C101 O110 1.247 . S
C101 O111 1.272 . S
O102 Co98 2.004 . S
O102 C107 1.259 . S
Co103 O104 2.061 . S
Co103 O109 2.052 . S
Co103 O111 2.135 . S
O104 Co103 2.061 . S
O104 C107 1.235 . S
C105 O108 1.238 . S
C105 O109 1.241 . S
C106 O99 1.247 . S
C106 O100 1.261 . S
C107 O102 1.259 . S
C107 O104 1.235 . S
O108 Co98 2.021 . S
O108 C105 1.238 . S
O109 Co103 2.052 . S
O109 C105 1.241 . S
O110 Co98 2.137 . S
O110 C101 1.247 . S
O111 Co98 2.244 . S
O111 C101 1.272 . S
O111 Co103 2.135 . S
Co112 O113 2.216 . S
Co112 O114 2.091 . S
Co112 O116 2.004 . S
Co112 O122 2.021 . S
Co112 O124 2.137 . S
Co112 O125 2.244 . S
O113 Co112 2.216 . S
O113 C120 1.247 . S
O114 Co112 2.091 . S
O114 C120 1.261 . S
C115 O124 1.247 . S
C115 O125 1.272 . S
O116 Co112 2.004 . S
O116 C121 1.259 . S
Co117 O118 2.061 . S
Co117 O123 2.052 . S
Co117 O125 2.135 . S
O118 Co117 2.061 . S
O118 C121 1.235 . S
C119 O122 1.238 . S
C119 O123 1.241 . S
C120 O113 1.247 . S
C120 O114 1.261 . S
C121 O116 1.259 . S
C121 O118 1.235 . S
O122 Co112 2.021 . S
O122 C119 1.238 . S
O123 Co117 2.052 . S
O123 C119 1.241 . S
O124 Co112 2.137 . S
O124 C115 1.247 . S
O125 Co112 2.244 . S
O125 C115 1.272 . S
O125 Co117 2.135 . S
Co126 O127 2.216 . S
Co126 O128 2.091 . S
Co126 O130 2.004 . S
Co126 O136 2.021 . S
Co126 O138 2.137 . S
Co126 O139 2.244 . S
O127 Co126 2.216 . S
O127 C134 1.247 . S
O128 Co126 2.091 . S
O128 C134 1.261 . S
C129 O138 1.247 . S
C129 O139 1.272 . S
O130 Co126 2.004 . S
O130 C135 1.259 . S
Co131 O132 2.061 . S
Co131 O137 2.052 . S
Co131 O139 2.135 . S
O132 Co131 2.061 . S
O132 C135 1.235 . S
C133 O136 1.238 . S
C133 O137 1.241 . S
C134 O127 1.247 . S
C134 O128 1.261 . S
C135 O130 1.259 . S
C135 O132 1.235 . S
O136 Co126 2.021 . S
O136 C133 1.238 . S
O137 Co131 2.052 . S
O137 C133 1.241 . S
O138 Co126 2.137 . S
O138 C129 1.247 . S
O139 Co126 2.244 . S
O139 C129 1.272 . S
O139 Co131 2.135 . S
Co140 O141 2.216 . S
Co140 O142 2.091 . S
Co140 O144 2.004 . S
Co140 O150 2.021 . S
Co140 O152 2.137 . S
Co140 O153 2.244 . S
O141 Co140 2.216 . S
O141 C148 1.247 . S
O142 Co140 2.091 . S
O142 C148 1.261 . S
C143 O152 1.247 1_556 S
C143 O153 1.272 1_556 S
O144 Co140 2.004 . S
O144 C149 1.259 . S
Co145 O146 2.061 . S
Co145 O151 2.052 . S
Co145 O153 2.135 . S
O146 Co145 2.061 . S
O146 C149 1.235 . S
C147 O150 1.238 . S
C147 O151 1.241 . S
C148 O141 1.247 . S
C148 O142 1.261 . S
C149 O144 1.259 . S
C149 O146 1.235 . S
O150 Co140 2.021 . S
O150 C147 1.238 . S
O151 Co145 2.052 . S
O151 C147 1.241 . S
O152 Co140 2.137 . S
O152 C143 1.247 1_554 S
O153 Co140 2.244 . S
O153 C143 1.272 1_554 S
O153 Co145 2.135 . S
Co154 O155 2.216 . S
Co154 O156 2.091 . S
Co154 O158 2.004 . S
Co154 O164 2.021 . S
Co154 O166 2.137 . S
Co154 O167 2.244 . S
O155 Co154 2.216 . S
O155 C162 1.247 . S
O156 Co154 2.091 . S
O156 C162 1.261 . S
C157 O166 1.247 . S
C157 O167 1.272 . S
O158 Co154 2.004 . S
O158 C163 1.259 . S
Co159 O160 2.061 . S
Co159 O165 2.052 . S
Co159 O167 2.135 . S
O160 Co159 2.061 . S
O160 C163 1.235 . S
C161 O164 1.238 . S
C161 O165 1.241 . S
C162 O155 1.247 . S
C162 O156 1.261 . S
C163 O158 1.259 . S
C163 O160 1.235 . S
O164 Co154 2.021 . S
O164 C161 1.238 . S
O165 Co159 2.052 . S
O165 C161 1.241 . S
O166 Co154 2.137 . S
O166 C157 1.247 . S
O167 Co154 2.244 . S
O167 C157 1.272 . S
O167 Co159 2.135 . S
Co168 O169 2.216 . S
Co168 O170 2.091 . S
Co168 O172 2.004 . S
Co168 O178 2.021 . S
Co168 O180 2.137 . S
Co168 O181 2.244 . S
O169 Co168 2.216 . S
O169 C176 1.247 . S
O170 Co168 2.091 . S
O170 C176 1.261 . S
C171 O180 1.247 1_554 S
C171 O181 1.272 1_554 S
O172 Co168 2.004 . S
O172 C177 1.259 . S
Co173 O174 2.061 . S
Co173 O179 2.052 . S
Co173 O181 2.135 . S
O174 Co173 2.061 . S
O174 C177 1.235 . S
C175 O178 1.238 . S
C175 O179 1.241 . S
C176 O169 1.247 . S
C176 O170 1.261 . S
C177 O172 1.259 . S
C177 O174 1.235 . S
O178 Co168 2.021 . S
O178 C175 1.238 . S
O179 Co173 2.052 . S
O179 C175 1.241 . S
O180 Co168 2.137 . S
O180 C171 1.247 1_556 S
O181 Co168 2.244 . S
O181 C171 1.272 1_556 S
O181 Co173 2.135 . S
Co182 O183 2.216 . S
Co182 O184 2.091 . S
Co182 O186 2.004 . S
Co182 O192 2.021 . S
Co182 O194 2.137 . S
Co182 O195 2.244 . S
O183 Co182 2.216 . S
O183 C190 1.247 . S
O184 Co182 2.091 . S
O184 C190 1.261 . S
C185 O194 1.247 . S
C185 O195 1.272 . S
O186 Co182 2.004 . S
O186 C191 1.259 . S
Co187 O188 2.061 . S
Co187 O193 2.052 . S
Co187 O195 2.135 . S
O188 Co187 2.061 . S
O188 C191 1.235 . S
C189 O192 1.238 . S
C189 O193 1.241 . S
C190 O183 1.247 . S
C190 O184 1.261 . S
C191 O186 1.259 . S
C191 O188 1.235 . S
O192 Co182 2.021 . S
O192 C189 1.238 . S
O193 Co187 2.052 . S
O193 C189 1.241 . S
O194 Co182 2.137 . S
O194 C185 1.247 . S
O195 Co182 2.244 . S
O195 C185 1.272 . S
O195 Co187 2.135 . S
Co196 O197 2.216 . S
Co196 O198 2.091 . S
Co196 O200 2.004 . S
Co196 O206 2.021 . S
Co196 O208 2.137 . S
Co196 O209 2.244 . S
O197 Co196 2.216 . S
O197 C204 1.247 . S
O198 Co196 2.091 . S
O198 C204 1.261 . S
C199 O208 1.247 . S
C199 O209 1.272 . S
O200 Co196 2.004 . S
O200 C205 1.259 . S
Co201 O202 2.061 . S
Co201 O207 2.052 . S
Co201 O209 2.135 . S
O202 Co201 2.061 . S
O202 C205 1.235 . S
C203 O206 1.238 . S
C203 O207 1.241 . S
C204 O197 1.247 . S
C204 O198 1.261 . S
C205 O200 1.259 . S
C205 O202 1.235 . S
O206 Co196 2.021 . S
O206 C203 1.238 . S
O207 Co201 2.052 . S
O207 C203 1.241 . S
O208 Co196 2.137 . S
O208 C199 1.247 . S
O209 Co196 2.244 . S
O209 C199 1.272 . S
O209 Co201 2.135 . S
Co210 O211 2.216 . S
Co210 O212 2.091 . S
Co210 O214 2.004 . S
Co210 O220 2.021 . S
Co210 O222 2.137 . S
Co210 O223 2.244 . S
O211 Co210 2.216 . S
O211 C218 1.247 . S
O212 Co210 2.091 . S
O212 C218 1.261 . S
C213 O222 1.247 . S
C213 O223 1.272 . S
O214 Co210 2.004 . S
O214 C219 1.259 . S
Co215 O216 2.061 . S
Co215 O221 2.052 . S
Co215 O223 2.135 . S
O216 Co215 2.061 . S
O216 C219 1.235 . S
C217 O220 1.238 . S
C217 O221 1.241 . S
C218 O211 1.247 . S
C218 O212 1.261 . S
C219 O214 1.259 . S
C219 O216 1.235 . S
O220 Co210 2.021 . S
O220 C217 1.238 . S
O221 Co215 2.052 . S
O221 C217 1.241 . S
O222 Co210 2.137 . S
O222 C213 1.247 . S
O223 Co210 2.244 . S
O223 C213 1.272 . S
O223 Co215 2.135 . S
Co224 O225 2.216 . S
Co224 O226 2.091 . S
Co224 O228 2.004 . S
Co224 O234 2.021 . S
Co224 O236 2.137 . S
Co224 O237 2.244 . S
O225 Co224 2.216 . S
O225 C232 1.247 . S
O226 Co224 2.091 . S
O226 C232 1.261 . S
C227 O236 1.247 1_554 S
C227 O237 1.272 1_554 S
O228 Co224 2.004 . S
O228 C233 1.259 . S
Co229 O230 2.061 . S
Co229 O235 2.052 . S
Co229 O237 2.135 . S
O230 Co229 2.061 . S
O230 C233 1.235 . S
C231 O234 1.238 . S
C231 O235 1.241 . S
C232 O225 1.247 . S
C232 O226 1.261 . S
C233 O228 1.259 . S
C233 O230 1.235 . S
O234 Co224 2.021 . S
O234 C231 1.238 . S
O235 Co229 2.052 . S
O235 C231 1.241 . S
O236 Co224 2.137 . S
O236 C227 1.247 1_556 S
O237 Co224 2.244 . S
O237 C227 1.272 1_556 S
O237 Co229 2.135 . S
Co238 O239 2.216 . S
Co238 O240 2.091 . S
Co238 O242 2.004 . S
Co238 O248 2.021 . S
Co238 O250 2.137 . S
Co238 O251 2.244 . S
O239 Co238 2.216 . S
O239 C246 1.247 . S
O240 Co238 2.091 . S
O240 C246 1.261 . S
C241 O250 1.247 . S
C241 O251 1.272 . S
O242 Co238 2.004 . S
O242 C247 1.259 . S
Co243 O244 2.061 . S
Co243 O249 2.052 . S
Co243 O251 2.135 . S
O244 Co243 2.061 . S
O244 C247 1.235 . S
C245 O248 1.238 . S
C245 O249 1.241 . S
C246 O239 1.247 . S
C246 O240 1.261 . S
C247 O242 1.259 . S
C247 O244 1.235 . S
O248 Co238 2.021 . S
O248 C245 1.238 . S
O249 Co243 2.052 . S
O249 C245 1.241 . S
O250 Co238 2.137 . S
O250 C241 1.247 . S
O251 Co238 2.244 . S
O251 C241 1.272 . S
O251 Co243 2.135 . S
Co252 O253 2.216 . S
Co252 O254 2.091 . S
Co252 O256 2.004 . S
Co252 O262 2.021 . S
Co252 O264 2.137 . S
Co252 O265 2.244 . S
O253 Co252 2.216 . S
O253 C260 1.247 . S
O254 Co252 2.091 . S
O254 C260 1.261 . S
C255 O264 1.247 . S
C255 O265 1.272 . S
O256 Co252 2.004 . S
O256 C261 1.259 . S
Co257 O258 2.061 . S
Co257 O263 2.052 . S
Co257 O265 2.135 . S
O258 Co257 2.061 . S
O258 C261 1.235 . S
C259 O262 1.238 . S
C259 O263 1.241 . S
C260 O253 1.247 . S
C260 O254 1.261 . S
C261 O256 1.259 . S
C261 O258 1.235 . S
O262 Co252 2.021 . S
O262 C259 1.238 . S
O263 Co257 2.052 . S
O263 C259 1.241 . S
O264 Co252 2.137 . S
O264 C255 1.247 . S
O265 Co252 2.244 . S
O265 C255 1.272 . S
O265 Co257 2.135 . S
Co266 O267 2.216 . S
Co266 O268 2.091 . S
Co266 O270 2.004 . S
Co266 O276 2.021 . S
Co266 O278 2.137 . S
Co266 O279 2.244 . S
O267 Co266 2.216 . S
O267 C274 1.247 . S
O268 Co266 2.091 . S
O268 C274 1.261 . S
C269 O278 1.247 . S
C269 O279 1.272 . S
O270 Co266 2.004 . S
O270 C275 1.259 . S
Co271 O272 2.061 . S
Co271 O277 2.052 . S
Co271 O279 2.135 . S
O272 Co271 2.061 . S
O272 C275 1.235 . S
C273 O276 1.238 . S
C273 O277 1.241 . S
C274 O267 1.247 . S
C274 O268 1.261 . S
C275 O270 1.259 . S
C275 O272 1.235 . S
O276 Co266 2.021 . S
O276 C273 1.238 . S
O277 Co271 2.052 . S
O277 C273 1.241 . S
O278 Co266 2.137 . S
O278 C269 1.247 . S
O279 Co266 2.244 . S
O279 C269 1.272 . S
O279 Co271 2.135 . S
Co280 O281 2.216 . S
Co280 O282 2.091 . S
Co280 O284 2.004 . S
Co280 O290 2.021 . S
Co280 O292 2.137 . S
Co280 O293 2.244 . S
O281 Co280 2.216 . S
O281 C288 1.247 . S
O282 Co280 2.091 . S
O282 C288 1.261 . S
C283 O292 1.247 . S
C283 O293 1.272 . S
O284 Co280 2.004 . S
O284 C289 1.259 . S
Co285 O286 2.061 . S
Co285 O291 2.052 . S
Co285 O293 2.135 . S
O286 Co285 2.061 . S
O286 C289 1.235 . S
C287 O290 1.238 . S
C287 O291 1.241 . S
C288 O281 1.247 . S
C288 O282 1.261 . S
C289 O284 1.259 . S
C289 O286 1.235 . S
O290 Co280 2.021 . S
O290 C287 1.238 . S
O291 Co285 2.052 . S
O291 C287 1.241 . S
O292 Co280 2.137 . S
O292 C283 1.247 . S
O293 Co280 2.244 . S
O293 C283 1.272 . S
O293 Co285 2.135 . S
Co294 O295 2.216 . S
Co294 O296 2.091 . S
Co294 O298 2.004 . S
Co294 O304 2.021 . S
Co294 O306 2.137 . S
Co294 O307 2.244 . S
O295 Co294 2.216 . S
O295 C302 1.247 . S
O296 Co294 2.091 . S
O296 C302 1.261 . S
C297 O306 1.247 . S
C297 O307 1.272 . S
O298 Co294 2.004 . S
O298 C303 1.259 . S
Co299 O300 2.061 . S
Co299 O305 2.052 . S
Co299 O307 2.135 . S
O300 Co299 2.061 . S
O300 C303 1.235 . S
C301 O304 1.238 . S
C301 O305 1.241 . S
C302 O295 1.247 . S
C302 O296 1.261 . S
C303 O298 1.259 . S
C303 O300 1.235 . S
O304 Co294 2.021 . S
O304 C301 1.238 . S
O305 Co299 2.052 . S
O305 C301 1.241 . S
O306 Co294 2.137 . S
O306 C297 1.247 . S
O307 Co294 2.244 . S
O307 C297 1.272 . S
O307 Co299 2.135 . S
Co308 O309 2.216 . S
Co308 O310 2.091 . S
Co308 O312 2.004 . S
Co308 O318 2.021 . S
Co308 O320 2.137 . S
Co308 O321 2.244 . S
O309 Co308 2.216 . S
O309 C316 1.247 . S
O310 Co308 2.091 . S
O310 C316 1.261 . S
C311 O320 1.247 1_556 S
C311 O321 1.272 1_556 S
O312 Co308 2.004 . S
O312 C317 1.259 . S
Co313 O314 2.061 . S
Co313 O319 2.052 . S
Co313 O321 2.135 . S
O314 Co313 2.061 . S
O314 C317 1.235 . S
C315 O318 1.238 . S
C315 O319 1.241 . S
C316 O309 1.247 . S
C316 O310 1.261 . S
C317 O312 1.259 . S
C317 O314 1.235 . S
O318 Co308 2.021 . S
O318 C315 1.238 . S
O319 Co313 2.052 . S
O319 C315 1.241 . S
O320 Co308 2.137 . S
O320 C311 1.247 1_554 S
O321 Co308 2.244 . S
O321 C311 1.272 1_554 S
O321 Co313 2.135 . S
Co322 O323 2.216 . S
Co322 O324 2.091 . S
Co322 O326 2.004 . S
Co322 O332 2.021 . S
Co322 O334 2.137 . S
Co322 O335 2.244 . S
O323 Co322 2.216 . S
O323 C330 1.247 . S
O324 Co322 2.091 . S
O324 C330 1.261 . S
C325 O334 1.247 . S
C325 O335 1.272 . S
O326 Co322 2.004 . S
O326 C331 1.259 . S
Co327 O328 2.061 . S
Co327 O333 2.052 . S
Co327 O335 2.135 . S
O328 Co327 2.061 . S
O328 C331 1.235 . S
C329 O332 1.238 . S
C329 O333 1.241 . S
C330 O323 1.247 . S
C330 O324 1.261 . S
C331 O326 1.259 . S
C331 O328 1.235 . S
O332 Co322 2.021 . S
O332 C329 1.238 . S
O333 Co327 2.052 . S
O333 C329 1.241 . S
O334 Co322 2.137 . S
O334 C325 1.247 . S
O335 Co322 2.244 . S
O335 C325 1.272 . S
O335 Co327 2.135 . S
Co336 O337 2.216 . S
Co336 O338 2.091 . S
Co336 O340 2.004 . S
Co336 O346 2.021 . S
Co336 O348 2.137 . S
Co336 O349 2.244 . S
O337 Co336 2.216 . S
O337 C344 1.247 . S
O338 Co336 2.091 . S
O338 C344 1.261 . S
C339 O348 1.247 1_556 S
C339 O349 1.272 1_556 S
O340 Co336 2.004 . S
O340 C345 1.259 . S
Co341 O342 2.061 . S
Co341 O347 2.052 . S
Co341 O349 2.135 . S
O342 Co341 2.061 . S
O342 C345 1.235 . S
C343 O346 1.238 . S
C343 O347 1.241 . S
C344 O337 1.247 . S
C344 O338 1.261 . S
C345 O340 1.259 . S
C345 O342 1.235 . S
O346 Co336 2.021 . S
O346 C343 1.238 . S
O347 Co341 2.052 . S
O347 C343 1.241 . S
O348 Co336 2.137 . S
O348 C339 1.247 1_554 S
O349 Co336 2.244 . S
O349 C339 1.272 1_554 S
O349 Co341 2.135 . S
Co350 O351 2.216 . S
Co350 O352 2.091 . S
Co350 O354 2.004 . S
Co350 O360 2.021 . S
Co350 O362 2.137 . S
Co350 O363 2.244 . S
O351 Co350 2.216 . S
O351 C358 1.247 . S
O352 Co350 2.091 . S
O352 C358 1.261 . S
C353 O362 1.247 . S
C353 O363 1.272 . S
O354 Co350 2.004 . S
O354 C359 1.259 . S
Co355 O356 2.061 . S
Co355 O361 2.052 . S
Co355 O363 2.135 . S
O356 Co355 2.061 . S
O356 C359 1.235 . S
C357 O360 1.238 . S
C357 O361 1.241 . S
C358 O351 1.247 . S
C358 O352 1.261 . S
C359 O354 1.259 . S
C359 O356 1.235 . S
O360 Co350 2.021 . S
O360 C357 1.238 . S
O361 Co355 2.052 . S
O361 C357 1.241 . S
O362 Co350 2.137 . S
O362 C353 1.247 . S
O363 Co350 2.244 . S
O363 C353 1.272 . S
O363 Co355 2.135 . S
Co364 O365 2.216 . S
Co364 O366 2.091 . S
Co364 O368 2.004 . S
Co364 O374 2.021 . S
Co364 O376 2.137 . S
Co364 O377 2.244 . S
O365 Co364 2.216 . S
O365 C372 1.247 . S
O366 Co364 2.091 . S
O366 C372 1.261 . S
C367 O376 1.247 . S
C367 O377 1.272 . S
O368 Co364 2.004 . S
O368 C373 1.259 . S
Co369 O370 2.061 . S
Co369 O375 2.052 . S
Co369 O377 2.135 . S
O370 Co369 2.061 . S
O370 C373 1.235 . S
C371 O374 1.238 . S
C371 O375 1.241 . S
C372 O365 1.247 . S
C372 O366 1.261 . S
C373 O368 1.259 . S
C373 O370 1.235 . S
O374 Co364 2.021 . S
O374 C371 1.238 . S
O375 Co369 2.052 . S
O375 C371 1.241 . S
O376 Co364 2.137 . S
O376 C367 1.247 . S
O377 Co364 2.244 . S
O377 C367 1.272 . S
O377 Co369 2.135 . S
Co378 O379 2.216 . S
Co378 O380 2.091 . S
Co378 O382 2.004 . S
Co378 O388 2.021 . S
Co378 O390 2.137 . S
Co378 O391 2.244 . S
O379 Co378 2.216 . S
O379 C386 1.247 . S
O380 Co378 2.091 . S
O380 C386 1.261 . S
C381 O390 1.247 . S
C381 O391 1.272 . S
O382 Co378 2.004 . S
O382 C387 1.259 . S
Co383 O384 2.061 . S
Co383 O389 2.052 . S
Co383 O391 2.135 . S
O384 Co383 2.061 . S
O384 C387 1.235 . S
C385 O388 1.238 . S
C385 O389 1.241 . S
C386 O379 1.247 . S
C386 O380 1.261 . S
C387 O382 1.259 . S
C387 O384 1.235 . S
O388 Co378 2.021 . S
O388 C385 1.238 . S
O389 Co383 2.052 . S
O389 C385 1.241 . S
O390 Co378 2.137 . S
O390 C381 1.247 . S
O391 Co378 2.244 . S
O391 C381 1.272 . S
O391 Co383 2.135 . S
Co392 O393 2.216 . S
Co392 O394 2.091 . S
Co392 O396 2.004 . S
Co392 O402 2.021 . S
Co392 O404 2.137 . S
Co392 O405 2.244 . S
O393 Co392 2.216 . S
O393 C400 1.247 . S
O394 Co392 2.091 . S
O394 C400 1.261 . S
C395 O404 1.247 . S
C395 O405 1.272 . S
O396 Co392 2.004 . S
O396 C401 1.259 . S
Co397 O398 2.061 . S
Co397 O403 2.052 . S
Co397 O405 2.135 . S
O398 Co397 2.061 . S
O398 C401 1.235 . S
C399 O402 1.238 . S
C399 O403 1.241 . S
C400 O393 1.247 . S
C400 O394 1.261 . S
C401 O396 1.259 . S
C401 O398 1.235 . S
O402 Co392 2.021 . S
O402 C399 1.238 . S
O403 Co397 2.052 . S
O403 C399 1.241 . S
O404 Co392 2.137 . S
O404 C395 1.247 . S
O405 Co392 2.244 . S
O405 C395 1.272 . S
O405 Co397 2.135 . S
Co406 O407 2.216 . S
Co406 O408 2.091 . S
Co406 O410 2.004 . S
Co406 O416 2.021 . S
Co406 O418 2.137 . S
Co406 O419 2.244 . S
O407 Co406 2.216 . S
O407 C414 1.247 . S
O408 Co406 2.091 . S
O408 C414 1.261 . S
C409 O418 1.247 . S
C409 O419 1.272 . S
O410 Co406 2.004 . S
O410 C415 1.259 . S
Co411 O412 2.061 . S
Co411 O417 2.052 . S
Co411 O419 2.135 . S
O412 Co411 2.061 . S
O412 C415 1.235 . S
C413 O416 1.238 . S
C413 O417 1.241 . S
C414 O407 1.247 . S
C414 O408 1.261 . S
C415 O410 1.259 . S
C415 O412 1.235 . S
O416 Co406 2.021 . S
O416 C413 1.238 . S
O417 Co411 2.052 . S
O417 C413 1.241 . S
O418 Co406 2.137 . S
O418 C409 1.247 . S
O419 Co406 2.244 . S
O419 C409 1.272 . S
O419 Co411 2.135 . S
Co420 O421 2.216 . S
Co420 O422 2.091 . S
Co420 O424 2.004 . S
Co420 O430 2.021 . S
Co420 O432 2.137 . S
Co420 O433 2.244 . S
O421 Co420 2.216 . S
O421 C428 1.247 . S
O422 Co420 2.091 . S
O422 C428 1.261 . S
C423 O432 1.247 1_554 S
C423 O433 1.272 1_554 S
O424 Co420 2.004 . S
O424 C429 1.259 . S
Co425 O426 2.061 . S
Co425 O431 2.052 . S
Co425 O433 2.135 . S
O426 Co425 2.061 . S
O426 C429 1.235 . S
C427 O430 1.238 . S
C427 O431 1.241 . S
C428 O421 1.247 . S
C428 O422 1.261 . S
C429 O424 1.259 . S
C429 O426 1.235 . S
O430 Co420 2.021 . S
O430 C427 1.238 . S
O431 Co425 2.052 . S
O431 C427 1.241 . S
O432 Co420 2.137 . S
O432 C423 1.247 1_556 S
O433 Co420 2.244 . S
O433 C423 1.272 1_556 S
O433 Co425 2.135 . S
Co434 O435 2.216 . S
Co434 O436 2.091 . S
Co434 O438 2.004 . S
Co434 O444 2.021 . S
Co434 O446 2.137 . S
Co434 O447 2.244 . S
O435 Co434 2.216 . S
O435 C442 1.247 . S
O436 Co434 2.091 . S
O436 C442 1.261 . S
C437 O446 1.247 . S
C437 O447 1.272 . S
O438 Co434 2.004 . S
O438 C443 1.259 . S
Co439 O440 2.061 . S
Co439 O445 2.052 . S
Co439 O447 2.135 . S
O440 Co439 2.061 . S
O440 C443 1.235 . S
C441 O444 1.238 . S
C441 O445 1.241 . S
C442 O435 1.247 . S
C442 O436 1.261 . S
C443 O438 1.259 . S
C443 O440 1.235 . S
O444 Co434 2.021 . S
O444 C441 1.238 . S
O445 Co439 2.052 . S
O445 C441 1.241 . S
O446 Co434 2.137 . S
O446 C437 1.247 . S
O447 Co434 2.244 . S
O447 C437 1.272 . S
O447 Co439 2.135 . S
C448 C449 1.363 1_565 S
C448 C454 1.379 . S
C448 N456 1.356 . S
C449 C448 1.363 1_545 S
C449 C455 1.363 . S
C450 C451 1.363 1_545 S
C450 C455 1.379 . S
C450 N457 1.356 . S
C451 C450 1.363 1_565 S
C451 C454 1.363 . S
N452 C454 1.356 . S
N452 H464 0.984 . S
N452 H465 0.985 . S
N453 C455 1.356 . S
N453 H458 0.984 . S
N453 H459 0.985 . S
C454 C448 1.379 . S
C454 C451 1.363 . S
C454 N452 1.356 . S
C455 C449 1.363 . S
C455 C450 1.379 . S
C455 N453 1.356 . S
N456 C448 1.356 . S
N456 H462 0.984 . S
N456 H463 0.984 1_565 S
N457 C450 1.356 . S
N457 H460 0.984 1_545 S
N457 H461 0.985 . S
H458 N453 0.984 . S
H459 N453 0.985 . S
H460 N457 0.984 1_565 S
H461 N457 0.985 . S
H462 N456 0.984 . S
H463 N456 0.984 1_545 S
H464 N452 0.984 . S
H465 N452 0.985 . S
C466 C467 1.363 . S
C466 C472 1.379 . S
C466 N474 1.356 . S
C467 C466 1.363 . S
C467 C473 1.363 . S
C468 C469 1.363 . S
C468 C473 1.379 . S
C468 N475 1.356 . S
C469 C468 1.363 . S
C469 C472 1.363 . S
N470 C472 1.356 . S
N470 H482 0.984 . S
N470 H483 0.985 . S
N471 C473 1.356 . S
N471 H476 0.984 . S
N471 H477 0.985 . S
C472 C466 1.379 . S
C472 C469 1.363 . S
C472 N470 1.356 . S
C473 C467 1.363 . S
C473 C468 1.379 . S
C473 N471 1.356 . S
N474 C466 1.356 . S
N474 H480 0.984 . S
N474 H481 0.984 . S
N475 C468 1.356 . S
N475 H478 0.984 . S
N475 H479 0.985 . S
H476 N471 0.984 . S
H477 N471 0.985 . S
H478 N475 0.984 . S
H479 N475 0.985 . S
H480 N474 0.984 . S
H481 N474 0.984 . S
H482 N470 0.984 . S
H483 N470 0.985 . S
C484 C485 1.363 1_565 S
C484 C490 1.379 . S
C484 N492 1.356 1_565 S
C485 C484 1.363 1_545 S
C485 C491 1.363 . S
C486 C487 1.363 1_545 S
C486 C491 1.379 . S
C486 N493 1.356 1_545 S
C487 C486 1.363 1_565 S
C487 C490 1.363 . S
N488 C490 1.356 . S
N488 H500 0.984 . S
N488 H501 0.985 . S
N489 C491 1.356 . S
N489 H494 0.984 . S
N489 H495 0.985 . S
C490 C484 1.379 . S
C490 C487 1.363 . S
C490 N488 1.356 . S
C491 C485 1.363 . S
C491 C486 1.379 . S
C491 N489 1.356 . S
N492 C484 1.356 1_545 S
N492 H498 0.984 1_545 S
N492 H499 0.984 . S
N493 C486 1.356 1_565 S
N493 H496 0.984 . S
N493 H497 0.985 1_565 S
H494 N489 0.984 . S
H495 N489 0.985 . S
H496 N493 0.984 . S
H497 N493 0.985 1_545 S
H498 N492 0.984 1_565 S
H499 N492 0.984 . S
H500 N488 0.984 . S
H501 N488 0.985 . S
C502 C503 1.363 . S
C502 C508 1.379 1_556 S
C502 N510 1.356 . S
C503 C502 1.363 . S
C503 C509 1.363 . S
C504 C505 1.363 . S
C504 C509 1.379 1_554 S
C504 N511 1.356 . S
C505 C504 1.363 . S
C505 C508 1.363 . S
N506 C508 1.356 . S
N506 H518 0.984 1_554 S
N506 H519 0.985 . S
N507 C509 1.356 . S
N507 H512 0.984 . S
N507 H513 0.985 1_556 S
C508 C502 1.379 1_554 S
C508 C505 1.363 . S
C508 N506 1.356 . S
C509 C503 1.363 . S
C509 C504 1.379 1_556 S
C509 N507 1.356 . S
N510 C502 1.356 . S
N510 H516 0.984 . S
N510 H517 0.984 . S
N511 C504 1.356 . S
N511 H514 0.984 . S
N511 H515 0.985 . S
H512 N507 0.984 . S
H513 N507 0.985 1_554 S
H514 N511 0.984 . S
H515 N511 0.985 . S
H516 N510 0.984 . S
H517 N510 0.984 . S
H518 N506 0.984 1_556 S
H519 N506 0.985 . S
C520 C521 1.363 . S
C520 C526 1.379 . S
C520 N528 1.356 . S
C521 C520 1.363 . S
C521 C527 1.363 1_565 S
C522 C523 1.363 . S
C522 C527 1.379 . S
C522 N529 1.356 . S
C523 C522 1.363 . S
C523 C526 1.363 1_545 S
N524 C526 1.356 . S
N524 H536 0.984 . S
N524 H537 0.985 1_565 S
N525 C527 1.356 . S
N525 H530 0.984 1_545 S
N525 H531 0.985 . S
C526 C520 1.379 . S
C526 C523 1.363 1_565 S
C526 N524 1.356 . S
C527 C521 1.363 1_545 S
C527 C522 1.379 . S
C527 N525 1.356 . S
N528 C520 1.356 . S
N528 H534 0.984 . S
N528 H535 0.984 . S
N529 C522 1.356 . S
N529 H532 0.984 . S
N529 H533 0.985 . S
H530 N525 0.984 1_565 S
H531 N525 0.985 . S
H532 N529 0.984 . S
H533 N529 0.985 . S
H534 N528 0.984 . S
H535 N528 0.984 . S
H536 N524 0.984 . S
H537 N524 0.985 1_545 S
C538 C539 1.363 . S
C538 C544 1.379 . S
C538 N546 1.356 . S
C539 C538 1.363 . S
C539 C545 1.363 . S
C540 C541 1.363 . S
C540 C545 1.379 . S
C540 N547 1.356 . S
C541 C540 1.363 . S
C541 C544 1.363 . S
N542 C544 1.356 . S
N542 H554 0.984 . S
N542 H555 0.985 . S
N543 C545 1.356 . S
N543 H548 0.984 . S
N543 H549 0.985 . S
C544 C538 1.379 . S
C544 C541 1.363 . S
C544 N542 1.356 . S
C545 C539 1.363 . S
C545 C540 1.379 . S
C545 N543 1.356 . S
N546 C538 1.356 . S
N546 H552 0.984 . S
N546 H553 0.984 . S
N547 C540 1.356 . S
N547 H550 0.984 . S
N547 H551 0.985 . S
H548 N543 0.984 . S
H549 N543 0.985 . S
H550 N547 0.984 . S
H551 N547 0.985 . S
H552 N546 0.984 . S
H553 N546 0.984 . S
H554 N542 0.984 . S
H555 N542 0.985 . S
C556 C557 1.363 . S
C556 C562 1.379 . S
C556 N564 1.356 . S
C557 C556 1.363 . S
C557 C563 1.363 1_565 S
C558 C559 1.363 . S
C558 C563 1.379 . S
C558 N565 1.356 . S
C559 C558 1.363 . S
C559 C562 1.363 1_545 S
N560 C562 1.356 1_545 S
N560 H572 0.984 1_545 S
N560 H573 0.985 . S
N561 C563 1.356 1_565 S
N561 H566 0.984 . S
N561 H567 0.985 1_565 S
C562 C556 1.379 . S
C562 C559 1.363 1_565 S
C562 N560 1.356 1_565 S
C563 C557 1.363 1_545 S
C563 C558 1.379 . S
C563 N561 1.356 1_545 S
N564 C556 1.356 . S
N564 H570 0.984 . S
N564 H571 0.984 . S
N565 C558 1.356 . S
N565 H568 0.984 . S
N565 H569 0.985 . S
H566 N561 0.984 . S
H567 N561 0.985 1_545 S
H568 N565 0.984 . S
H569 N565 0.985 . S
H570 N564 0.984 . S
H571 N564 0.984 . S
H572 N560 0.984 1_565 S
H573 N560 0.985 . S
C574 C575 1.363 . S
C574 C580 1.379 1_556 S
C574 N582 1.356 . S
C575 C574 1.363 . S
C575 C581 1.363 . S
C576 C577 1.363 . S
C576 C581 1.379 1_554 S
C576 N583 1.356 . S
C577 C576 1.363 . S
C577 C580 1.363 . S
N578 C580 1.356 . S
N578 H590 0.984 . S
N578 H591 0.985 . S
N579 C581 1.356 . S
N579 H584 0.984 . S
N579 H585 0.985 . S
C580 C574 1.379 1_554 S
C580 C577 1.363 . S
C580 N578 1.356 . S
C581 C575 1.363 . S
C581 C576 1.379 1_556 S
C581 N579 1.356 . S
N582 C574 1.356 . S
N582 H588 0.984 1_556 S
N582 H589 0.984 . S
N583 C576 1.356 . S
N583 H586 0.984 . S
N583 H587 0.985 1_554 S
H584 N579 0.984 . S
H585 N579 0.985 . S
H586 N583 0.984 . S
H587 N583 0.985 1_556 S
H588 N582 0.984 1_554 S
H589 N582 0.984 . S
H590 N578 0.984 . S
H591 N578 0.985 . S
C592 C593 1.363 . S
C592 C598 1.379 . S
C592 N600 1.356 . S
C593 C592 1.363 . S
C593 C599 1.363 . S
C594 C595 1.363 . S
C594 C599 1.379 . S
C594 N601 1.356 . S
C595 C594 1.363 . S
C595 C598 1.363 . S
N596 C598 1.356 . S
N596 H608 0.984 . S
N596 H609 0.985 . S
N597 C599 1.356 . S
N597 H602 0.984 . S
N597 H603 0.985 . S
C598 C592 1.379 . S
C598 C595 1.363 . S
C598 N596 1.356 . S
C599 C593 1.363 . S
C599 C594 1.379 . S
C599 N597 1.356 . S
N600 C592 1.356 . S
N600 H606 0.984 . S
N600 H607 0.984 . S
N601 C594 1.356 . S
N601 H604 0.984 . S
N601 H605 0.985 . S
H602 N597 0.984 . S
H603 N597 0.985 . S
H604 N601 0.984 . S
H605 N601 0.985 . S
H606 N600 0.984 . S
H607 N600 0.984 . S
H608 N596 0.984 . S
H609 N596 0.985 . S
C610 C611 1.363 . S
C610 C616 1.379 1_556 S
C610 N618 1.356 . S
C611 C610 1.363 . S
C611 C617 1.363 . S
C612 C613 1.363 . S
C612 C617 1.379 1_554 S
C612 N619 1.356 . S
C613 C612 1.363 . S
C613 C616 1.363 . S
N614 C616 1.356 . S
N614 H626 0.984 1_554 S
N614 H627 0.985 . S
N615 C617 1.356 . S
N615 H620 0.984 . S
N615 H621 0.985 1_556 S
C616 C610 1.379 1_554 S
C616 C613 1.363 . S
C616 N614 1.356 . S
C617 C611 1.363 . S
C617 C612 1.379 1_556 S
C617 N615 1.356 . S
N618 C610 1.356 . S
N618 H624 0.984 . S
N618 H625 0.984 . S
N619 C612 1.356 . S
N619 H622 0.984 . S
N619 H623 0.985 . S
H620 N615 0.984 . S
H621 N615 0.985 1_554 S
H622 N619 0.984 . S
H623 N619 0.985 . S
H624 N618 0.984 . S
H625 N618 0.984 . S
H626 N614 0.984 1_556 S
H627 N614 0.985 . S
C628 C629 1.363 . S
C628 C634 1.379 . S
C628 N636 1.356 . S
C629 C628 1.363 . S
C629 C635 1.363 . S
C630 C631 1.363 . S
C630 C635 1.379 . S
C630 N637 1.356 . S
C631 C630 1.363 . S
C631 C634 1.363 . S
N632 C634 1.356 . S
N632 H644 0.984 . S
N632 H645 0.985 . S
N633 C635 1.356 . S
N633 H638 0.984 . S
N633 H639 0.985 . S
C634 C628 1.379 . S
C634 C631 1.363 . S
C634 N632 1.356 . S
C635 C629 1.363 . S
C635 C630 1.379 . S
C635 N633 1.356 . S
N636 C628 1.356 . S
N636 H642 0.984 . S
N636 H643 0.984 . S
N637 C630 1.356 . S
N637 H640 0.984 . S
N637 H641 0.985 . S
H638 N633 0.984 . S
H639 N633 0.985 . S
H640 N637 0.984 . S
H641 N637 0.985 . S
H642 N636 0.984 . S
H643 N636 0.984 . S
H644 N632 0.984 . S
H645 N632 0.985 . S
C646 C647 1.363 . S
C646 C652 1.379 . S
C646 N654 1.356 . S
C647 C646 1.363 . S
C647 C653 1.363 . S
C648 C649 1.363 . S
C648 C653 1.379 . S
C648 N655 1.356 . S
C649 C648 1.363 . S
C649 C652 1.363 . S
N650 C652 1.356 . S
N650 H662 0.984 . S
N650 H663 0.985 . S
N651 C653 1.356 . S
N651 H656 0.984 . S
N651 H657 0.985 . S
C652 C646 1.379 . S
C652 C649 1.363 . S
C652 N650 1.356 . S
C653 C647 1.363 . S
C653 C648 1.379 . S
C653 N651 1.356 . S
N654 C646 1.356 . S
N654 H660 0.984 . S
N654 H661 0.984 . S
N655 C648 1.356 . S
N655 H658 0.984 . S
N655 H659 0.985 . S
H656 N651 0.984 . S
H657 N651 0.985 . S
H658 N655 0.984 . S
H659 N655 0.985 . S
H660 N654 0.984 . S
H661 N654 0.984 . S
H662 N650 0.984 . S
H663 N650 0.985 . S
C664 C665 1.363 . S
C664 C670 1.379 . S
C664 N672 1.356 . S
C665 C664 1.363 . S
C665 C671 1.363 . S
C666 C667 1.363 . S
C666 C671 1.379 . S
C666 N673 1.356 . S
C667 C666 1.363 . S
C667 C670 1.363 . S
N668 C670 1.356 . S
N668 H680 0.984 . S
N668 H681 0.985 . S
N669 C671 1.356 . S
N669 H674 0.984 . S
N669 H675 0.985 . S
C670 C664 1.379 . S
C670 C667 1.363 . S
C670 N668 1.356 . S
C671 C665 1.363 . S
C671 C666 1.379 . S
C671 N669 1.356 . S
N672 C664 1.356 . S
N672 H678 0.984 . S
N672 H679 0.984 . S
N673 C666 1.356 . S
N673 H676 0.984 . S
N673 H677 0.985 . S
H674 N669 0.984 . S
H675 N669 0.985 . S
H676 N673 0.984 . S
H677 N673 0.985 . S
H678 N672 0.984 . S
H679 N672 0.984 . S
H680 N668 0.984 . S
H681 N668 0.985 . S
C682 C683 1.363 . S
C682 C688 1.379 1_554 S
C682 N690 1.356 . S
C683 C682 1.363 . S
C683 C689 1.363 . S
C684 C685 1.363 . S
C684 C689 1.379 1_556 S
C684 N691 1.356 . S
C685 C684 1.363 . S
C685 C688 1.363 . S
N686 C688 1.356 . S
N686 H698 0.984 . S
N686 H699 0.985 . S
N687 C689 1.356 . S
N687 H692 0.984 . S
N687 H693 0.985 . S
C688 C682 1.379 1_556 S
C688 C685 1.363 . S
C688 N686 1.356 . S
C689 C683 1.363 . S
C689 C684 1.379 1_554 S
C689 N687 1.356 . S
N690 C682 1.356 . S
N690 H696 0.984 1_554 S
N690 H697 0.984 . S
N691 C684 1.356 . S
N691 H694 0.984 . S
N691 H695 0.985 1_556 S
H692 N687 0.984 . S
H693 N687 0.985 . S
H694 N691 0.984 . S
H695 N691 0.985 1_554 S
H696 N690 0.984 1_556 S
H697 N690 0.984 . S
H698 N686 0.984 . S
H699 N686 0.985 . S
C700 C701 1.363 . S
C700 C706 1.379 . S
C700 N708 1.356 . S
C701 C700 1.363 . S
C701 C707 1.363 . S
C702 C703 1.363 . S
C702 C707 1.379 . S
C702 N709 1.356 . S
C703 C702 1.363 . S
C703 C706 1.363 . S
N704 C706 1.356 . S
N704 H716 0.984 . S
N704 H717 0.985 . S
N705 C707 1.356 . S
N705 H710 0.984 . S
N705 H711 0.985 . S
C706 C700 1.379 . S
C706 C703 1.363 . S
C706 N704 1.356 . S
C707 C701 1.363 . S
C707 C702 1.379 . S
C707 N705 1.356 . S
N708 C700 1.356 . S
N708 H714 0.984 . S
N708 H715 0.984 . S
N709 C702 1.356 . S
N709 H712 0.984 . S
N709 H713 0.985 . S
H710 N705 0.984 . S
H711 N705 0.985 . S
H712 N709 0.984 . S
H713 N709 0.985 . S
H714 N708 0.984 . S
H715 N708 0.984 . S
H716 N704 0.984 . S
H717 N704 0.985 . S
C718 C719 1.363 . S
C718 C724 1.379 . S
C718 N726 1.356 . S
C719 C718 1.363 . S
C719 C725 1.363 . S
C720 C721 1.363 . S
C720 C725 1.379 . S
C720 N727 1.356 . S
C721 C720 1.363 . S
C721 C724 1.363 . S
N722 C724 1.356 . S
N722 H734 0.984 . S
N722 H735 0.985 . S
N723 C725 1.356 . S
N723 H728 0.984 . S
N723 H729 0.985 . S
C724 C718 1.379 . S
C724 C721 1.363 . S
C724 N722 1.356 . S
C725 C719 1.363 . S
C725 C720 1.379 . S
C725 N723 1.356 . S
N726 C718 1.356 . S
N726 H732 0.984 . S
N726 H733 0.984 . S
N727 C720 1.356 . S
N727 H730 0.984 . S
N727 H731 0.985 . S
H728 N723 0.984 . S
H729 N723 0.985 . S
H730 N727 0.984 . S
H731 N727 0.985 . S
H732 N726 0.984 . S
H733 N726 0.984 . S
H734 N722 0.984 . S
H735 N722 0.985 . S
C736 C737 1.363 . S
C736 C742 1.379 . S
C736 N744 1.356 . S
C737 C736 1.363 . S
C737 C743 1.363 . S
C738 C739 1.363 . S
C738 C743 1.379 . S
C738 N745 1.356 . S
C739 C738 1.363 . S
C739 C742 1.363 . S
N740 C742 1.356 . S
N740 H752 0.984 . S
N740 H753 0.985 . S
N741 C743 1.356 . S
N741 H746 0.984 . S
N741 H747 0.985 . S
C742 C736 1.379 . S
C742 C739 1.363 . S
C742 N740 1.356 . S
C743 C737 1.363 . S
C743 C738 1.379 . S
C743 N741 1.356 . S
N744 C736 1.356 . S
N744 H750 0.984 . S
N744 H751 0.984 . S
N745 C738 1.356 . S
N745 H748 0.984 . S
N745 H749 0.985 . S
H746 N741 0.984 . S
H747 N741 0.985 . S
H748 N745 0.984 . S
H749 N745 0.985 . S
H750 N744 0.984 . S
H751 N744 0.984 . S
H752 N740 0.984 . S
H753 N740 0.985 . S
C754 C755 1.363 . S
C754 C760 1.379 1_655 S
C754 N762 1.356 . S
C755 C754 1.363 . S
C755 C761 1.363 . S
C756 C757 1.363 . S
C756 C761 1.379 1_455 S
C756 N763 1.356 . S
C757 C756 1.363 . S
C757 C760 1.363 . S
N758 C760 1.356 . S
N758 H770 0.984 . S
N758 H771 0.985 . S
N759 C761 1.356 . S
N759 H764 0.984 . S
N759 H765 0.985 . S
C760 C754 1.379 1_455 S
C760 C757 1.363 . S
C760 N758 1.356 . S
C761 C755 1.363 . S
C761 C756 1.379 1_655 S
C761 N759 1.356 . S
N762 C754 1.356 . S
N762 H768 0.984 . S
N762 H769 0.984 . S
N763 C756 1.356 . S
N763 H766 0.984 . S
N763 H767 0.985 . S
H764 N759 0.984 . S
H765 N759 0.985 . S
H766 N763 0.984 . S
H767 N763 0.985 . S
H768 N762 0.984 . S
H769 N762 0.984 . S
H770 N758 0.984 . S
H771 N758 0.985 . S
C772 C773 1.363 . S
C772 C778 1.379 . S
C772 N780 1.356 . S
C773 C772 1.363 . S
C773 C779 1.363 . S
C774 C775 1.363 . S
C774 C779 1.379 . S
C774 N781 1.356 . S
C775 C774 1.363 . S
C775 C778 1.363 . S
N776 C778 1.356 . S
N776 H788 0.984 . S
N776 H789 0.985 . S
N777 C779 1.356 . S
N777 H782 0.984 . S
N777 H783 0.985 . S
C778 C772 1.379 . S
C778 C775 1.363 . S
C778 N776 1.356 . S
C779 C773 1.363 . S
C779 C774 1.379 . S
C779 N777 1.356 . S
N780 C772 1.356 . S
N780 H786 0.984 . S
N780 H787 0.984 . S
N781 C774 1.356 . S
N781 H784 0.984 . S
N781 H785 0.985 . S
H782 N777 0.984 . S
H783 N777 0.985 . S
H784 N781 0.984 . S
H785 N781 0.985 . S
H786 N780 0.984 . S
H787 N780 0.984 . S
H788 N776 0.984 . S
H789 N776 0.985 . S
C790 C791 1.363 . S
C790 C796 1.379 . S
C790 N798 1.356 . S
C791 C790 1.363 . S
C791 C797 1.363 . S
C792 C793 1.363 . S
C792 C797 1.379 . S
C792 N799 1.356 . S
C793 C792 1.363 . S
C793 C796 1.363 . S
N794 C796 1.356 . S
N794 H806 0.984 . S
N794 H807 0.985 . S
N795 C797 1.356 . S
N795 H800 0.984 . S
N795 H801 0.985 . S
C796 C790 1.379 . S
C796 C793 1.363 . S
C796 N794 1.356 . S
C797 C791 1.363 . S
C797 C792 1.379 . S
C797 N795 1.356 . S
N798 C790 1.356 . S
N798 H804 0.976 1_554 S
N798 H805 0.984 . S
N799 C792 1.356 . S
N799 H802 0.984 . S
N799 H803 0.985 . S
H800 N795 0.984 . S
H801 N795 0.985 . S
H802 N799 0.984 . S
H803 N799 0.985 . S
H804 N798 0.976 1_556 S
H805 N798 0.984 . S
H806 N794 0.984 . S
H807 N794 0.985 . S
C808 C809 1.363 . S
C808 C814 1.379 . S
C808 N816 1.356 . S
C809 C808 1.363 . S
C809 C815 1.363 . S
C810 C811 1.363 . S
C810 C815 1.379 . S
C810 N817 1.356 . S
C811 C810 1.363 . S
C811 C814 1.363 . S
N812 C814 1.356 . S
N812 H824 0.984 . S
N812 H825 0.985 . S
N813 C815 1.356 . S
N813 H818 0.984 . S
N813 H819 0.985 1_554 S
C814 C808 1.379 . S
C814 C811 1.363 . S
C814 N812 1.356 . S
C815 C809 1.363 . S
C815 C810 1.379 . S
C815 N813 1.356 . S
N816 C808 1.356 . S
N816 H822 0.984 . S
N816 H823 0.984 . S
N817 C810 1.356 . S
N817 H820 0.984 . S
N817 H821 0.985 1_554 S
H818 N813 0.984 . S
H819 N813 0.985 1_556 S
H820 N817 0.984 . S
H821 N817 0.985 1_556 S
H822 N816 0.984 . S
H823 N816 0.984 . S
H824 N812 0.984 . S
H825 N812 0.985 . S
C826 C827 1.363 . S
C826 C832 1.379 . S
C826 N834 1.356 . S
C827 C826 1.363 . S
C827 C833 1.363 . S
C828 C829 1.363 . S
C828 C833 1.379 . S
C828 N835 1.356 . S
C829 C828 1.363 . S
C829 C832 1.363 . S
N830 C832 1.356 . S
N830 H842 0.984 . S
N830 H843 0.985 . S
N831 C833 1.356 . S
N831 H836 0.984 . S
N831 H837 0.985 . S
C832 C826 1.379 . S
C832 C829 1.363 . S
C832 N830 1.356 . S
C833 C827 1.363 . S
C833 C828 1.379 . S
C833 N831 1.356 . S
N834 C826 1.356 . S
N834 H840 0.984 . S
N834 H841 0.984 . S
N835 C828 1.356 . S
N835 H838 0.984 . S
N835 H839 0.985 . S
H836 N831 0.984 . S
H837 N831 0.985 . S
H838 N835 0.984 . S
H839 N835 0.985 . S
H840 N834 0.984 . S
H841 N834 0.984 . S
H842 N830 0.984 . S
H843 N830 0.985 . S
C844 C845 1.363 . S
C844 C850 1.379 . S
C844 N852 1.356 . S
C845 C844 1.363 . S
C845 C851 1.363 . S
C846 C847 1.363 . S
C846 C851 1.379 . S
C846 N853 1.356 . S
C847 C846 1.363 . S
C847 C850 1.363 . S
N848 C850 1.356 . S
N848 H860 0.984 . S
N848 H861 0.985 . S
N849 C851 1.356 . S
N849 H854 0.984 . S
N849 H855 0.985 . S
C850 C844 1.379 . S
C850 C847 1.363 . S
C850 N848 1.356 . S
C851 C845 1.363 . S
C851 C846 1.379 . S
C851 N849 1.356 . S
N852 C844 1.356 . S
N852 H858 0.984 . S
N852 H859 0.984 . S
N853 C846 1.356 . S
N853 H856 0.984 . S
N853 H857 0.985 . S
H854 N849 0.984 . S
H855 N849 0.985 . S
H856 N853 0.984 . S
H857 N853 0.985 . S
H858 N852 0.984 . S
H859 N852 0.984 . S
H860 N848 0.984 . S
H861 N848 0.985 . S
C862 C863 1.363 . S
C862 C868 1.379 1_455 S
C862 N870 1.356 . S
C863 C862 1.363 . S
C863 C869 1.363 . S
C864 C865 1.363 . S
C864 C869 1.379 1_655 S
C864 N871 1.356 . S
C865 C864 1.363 . S
C865 C868 1.363 . S
N866 C868 1.356 . S
N866 H878 0.984 . S
N866 H879 0.985 . S
N867 C869 1.356 . S
N867 H872 0.984 . S
N867 H873 0.985 . S
C868 C862 1.379 1_655 S
C868 C865 1.363 . S
C868 N866 1.356 . S
C869 C863 1.363 . S
C869 C864 1.379 1_455 S
C869 N867 1.356 . S
N870 C862 1.356 . S
N870 H876 0.984 . S
N870 H877 0.984 . S
N871 C864 1.356 . S
N871 H874 0.984 . S
N871 H875 0.985 . S
H872 N867 0.984 . S
H873 N867 0.985 . S
H874 N871 0.984 . S
H875 N871 0.985 . S
H876 N870 0.984 . S
H877 N870 0.984 . S
H878 N866 0.984 . S
H879 N866 0.985 . S
C880 C881 1.363 . S
C880 C886 1.379 . S
C880 N888 1.356 . S
C881 C880 1.363 . S
C881 C887 1.363 . S
C882 C883 1.363 . S
C882 C887 1.379 . S
C882 N889 1.356 . S
C883 C882 1.363 . S
C883 C886 1.363 . S
N884 C886 1.356 . S
N884 H896 0.984 . S
N884 H897 0.985 . S
N885 C887 1.356 . S
N885 H890 0.984 . S
N885 H891 0.985 . S
C886 C880 1.379 . S
C886 C883 1.363 . S
C886 N884 1.356 . S
C887 C881 1.363 . S
C887 C882 1.379 . S
C887 N885 1.356 . S
N888 C880 1.356 . S
N888 H894 0.984 . S
N888 H895 0.984 . S
N889 C882 1.356 . S
N889 H892 0.984 . S
N889 H893 0.985 . S
H890 N885 0.984 . S
H891 N885 0.985 . S
H892 N889 0.984 . S
H893 N889 0.985 . S
H894 N888 0.984 . S
H895 N888 0.984 . S
H896 N884 0.984 . S
H897 N884 0.985 . S
C898 C899 1.363 . S
C898 C904 1.379 1_655 S
C898 N906 1.356 . S
C899 C898 1.363 . S
C899 C905 1.363 . S
C900 C901 1.363 . S
C900 C905 1.379 1_455 S
C900 N907 1.356 . S
C901 C900 1.363 . S
C901 C904 1.363 . S
N902 C904 1.356 . S
N902 H914 0.984 . S
N902 H915 0.985 . S
N903 C905 1.356 . S
N903 H908 0.984 . S
N903 H909 0.985 . S
C904 C898 1.379 1_455 S
C904 C901 1.363 . S
C904 N902 1.356 . S
C905 C899 1.363 . S
C905 C900 1.379 1_655 S
C905 N903 1.356 . S
N906 C898 1.356 . S
N906 H912 0.984 . S
N906 H913 0.984 . S
N907 C900 1.356 . S
N907 H910 0.984 . S
N907 H911 0.985 . S
H908 N903 0.984 . S
H909 N903 0.985 . S
H910 N907 0.984 . S
H911 N907 0.985 . S
H912 N906 0.984 . S
H913 N906 0.984 . S
H914 N902 0.984 . S
H915 N902 0.985 . S
C916 C917 1.363 . S
C916 C922 1.379 . S
C916 N924 1.356 . S
C917 C916 1.363 . S
C917 C923 1.363 . S
C918 C919 1.363 . S
C918 C923 1.379 . S
C918 N925 1.356 . S
C919 C918 1.363 . S
C919 C922 1.363 . S
N920 C922 1.356 . S
N920 H932 0.973 1_554 S
N920 H933 0.985 . S
N921 C923 1.356 . S
N921 H926 0.984 . S
N921 H927 0.985 . S
C922 C916 1.379 . S
C922 C919 1.363 . S
C922 N920 1.356 . S
C923 C917 1.363 . S
C923 C918 1.379 . S
C923 N921 1.356 . S
N924 C916 1.356 . S
N924 H930 0.984 1_554 S
N924 H931 0.984 . S
N925 C918 1.356 . S
N925 H928 0.984 . S
N925 H929 0.985 . S
H926 N921 0.984 . S
H927 N921 0.985 . S
H928 N925 0.984 . S
H929 N925 0.985 . S
H930 N924 0.984 1_556 S
H931 N924 0.984 . S
H932 N920 0.973 1_556 S
H933 N920 0.985 . S
C934 C935 1.363 . S
C934 C940 1.379 . S
C934 N942 1.356 . S
C935 C934 1.363 . S
C935 C941 1.363 . S
C936 C937 1.363 . S
C936 C941 1.379 . S
C936 N943 1.356 . S
C937 C936 1.363 . S
C937 C940 1.363 . S
N938 C940 1.356 . S
N938 H950 0.984 . S
N938 H951 0.985 . S
N939 C941 1.356 . S
N939 H944 0.984 . S
N939 H945 0.985 . S
C940 C934 1.379 . S
C940 C937 1.363 . S
C940 N938 1.356 . S
C941 C935 1.363 . S
C941 C936 1.379 . S
C941 N939 1.356 . S
N942 C934 1.356 . S
N942 H948 0.984 . S
N942 H949 0.984 . S
N943 C936 1.356 . S
N943 H946 0.984 . S
N943 H947 0.985 . S
H944 N939 0.984 . S
H945 N939 0.985 . S
H946 N943 0.984 . S
H947 N943 0.985 . S
H948 N942 0.984 . S
H949 N942 0.984 . S
H950 N938 0.984 . S
H951 N938 0.985 . S
C952 C953 1.363 . S
C952 C958 1.379 . S
C952 N960 1.356 . S
C953 C952 1.363 . S
C953 C959 1.363 . S
C954 C955 1.363 . S
C954 C959 1.379 . S
C954 N961 1.356 . S
C955 C954 1.363 . S
C955 C958 1.363 . S
N956 C958 1.356 . S
N956 H968 0.984 . S
N956 H969 0.985 . S
N957 C959 1.356 . S
N957 H962 0.984 . S
N957 H963 0.985 . S
C958 C952 1.379 . S
C958 C955 1.363 . S
C958 N956 1.356 . S
C959 C953 1.363 . S
C959 C954 1.379 . S
C959 N957 1.356 . S
N960 C952 1.356 . S
N960 H966 0.984 . S
N960 H967 0.984 . S
N961 C954 1.356 . S
N961 H964 0.984 . S
N961 H965 0.985 . S
H962 N957 0.984 . S
H963 N957 0.985 . S
H964 N961 0.984 . S
H965 N961 0.985 . S
H966 N960 0.984 . S
H967 N960 0.984 . S
H968 N956 0.984 . S
H969 N956 0.985 . S
C970 C971 1.363 . S
C970 C976 1.379 . S
C970 N978 1.356 . S
C971 C970 1.363 . S
C971 C977 1.363 . S
C972 C973 1.363 . S
C972 C977 1.379 . S
C972 N979 1.356 . S
C973 C972 1.363 . S
C973 C976 1.363 . S
N974 C976 1.356 . S
N974 H986 0.984 . S
N974 H987 0.985 . S
N975 C977 1.356 . S
N975 H980 0.984 . S
N975 H981 0.985 . S
C976 C970 1.379 . S
C976 C973 1.363 . S
C976 N974 1.356 . S
C977 C971 1.363 . S
C977 C972 1.379 . S
C977 N975 1.356 . S
N978 C970 1.356 . S
N978 H984 0.984 . S
N978 H985 0.984 . S
N979 C972 1.356 . S
N979 H982 0.984 . S
N979 H983 0.985 . S
H980 N975 0.984 . S
H981 N975 0.985 . S
H982 N979 0.984 . S
H983 N979 0.985 . S
H984 N978 0.984 . S
H985 N978 0.984 . S
H986 N974 0.984 . S
H987 N974 0.985 . S
C988 C989 1.363 . S
C988 C994 1.379 . S
C988 N996 1.356 . S
C989 C988 1.363 . S
C989 C995 1.363 . S
C990 C991 1.363 . S
C990 C995 1.379 . S
C990 N997 1.356 . S
C991 C990 1.363 . S
C991 C994 1.363 . S
N992 C994 1.356 . S
N992 H1004 0.984 . S
N992 H1005 0.985 . S
N993 C995 1.356 . S
N993 H998 0.984 . S
N993 H999 0.985 . S
C994 C988 1.379 . S
C994 C991 1.363 . S
C994 N992 1.356 . S
C995 C989 1.363 . S
C995 C990 1.379 . S
C995 N993 1.356 . S
N996 C988 1.356 . S
N996 H1002 0.984 . S
N996 H1003 0.984 . S
N997 C990 1.356 . S
N997 H1000 0.984 . S
N997 H1001 0.985 . S
H998 N993 0.984 . S
H999 N993 0.985 . S
H1000 N997 0.984 . S
H1001 N997 0.985 . S
H1002 N996 0.984 . S
H1003 N996 0.984 . S
H1004 N992 0.984 . S
H1005 N992 0.985 . S
C1006 C1007 1.363 . S
C1006 C1012 1.379 1_655 S
C1006 N1014 1.356 . S
C1007 C1006 1.363 . S
C1007 C1013 1.363 . S
C1008 C1009 1.363 . S
C1008 C1013 1.379 1_455 S
C1008 N1015 1.356 . S
C1009 C1008 1.363 . S
C1009 C1012 1.363 . S
N1010 C1012 1.356 . S
N1010 H1022 0.984 . S
N1010 H1023 0.985 . S
N1011 C1013 1.356 . S
N1011 H1016 0.984 . S
N1011 H1017 0.985 1_554 S
C1012 C1006 1.379 1_455 S
C1012 C1009 1.363 . S
C1012 N1010 1.356 . S
C1013 C1007 1.363 . S
C1013 C1008 1.379 1_655 S
C1013 N1011 1.356 . S
N1014 C1006 1.356 . S
N1014 H1020 0.984 . S
N1014 H1021 0.984 . S
N1015 C1008 1.356 . S
N1015 H1018 0.984 . S
N1015 H1019 0.985 . S
H1016 N1011 0.984 . S
H1017 N1011 0.985 1_556 S
H1018 N1015 0.984 . S
H1019 N1015 0.985 . S
H1020 N1014 0.984 . S
H1021 N1014 0.984 . S
H1022 N1010 0.984 . S
H1023 N1010 0.985 . S
C1024 C1025 1.363 . S
C1024 C1030 1.379 . S
C1024 N1032 1.356 . S
C1025 C1024 1.363 . S
C1025 C1031 1.363 . S
C1026 C1027 1.363 . S
C1026 C1031 1.379 . S
C1026 N1033 1.356 . S
C1027 C1026 1.363 . S
C1027 C1030 1.363 . S
N1028 C1030 1.356 . S
N1028 H1040 0.984 . S
N1028 H1041 0.985 . S
N1029 C1031 1.356 . S
N1029 H1034 0.984 . S
N1029 H1035 0.985 . S
C1030 C1024 1.379 . S
C1030 C1027 1.363 . S
C1030 N1028 1.356 . S
C1031 C1025 1.363 . S
C1031 C1026 1.379 . S
C1031 N1029 1.356 . S
N1032 C1024 1.356 . S
N1032 H1038 0.984 . S
N1032 H1039 0.984 . S
N1033 C1026 1.356 . S
N1033 H1036 0.984 . S
N1033 H1037 0.985 . S
H1034 N1029 0.984 . S
H1035 N1029 0.985 . S
H1036 N1033 0.984 . S
H1037 N1033 0.985 . S
H1038 N1032 0.984 . S
H1039 N1032 0.984 . S
H1040 N1028 0.984 . S
H1041 N1028 0.985 . S
C1042 C1043 1.363 . S
C1042 C1048 1.379 . S
C1042 N1050 1.356 . S
C1043 C1042 1.363 . S
C1043 C1049 1.363 . S
C1044 C1045 1.363 . S
C1044 C1049 1.379 . S
C1044 N1051 1.356 . S
C1045 C1044 1.363 . S
C1045 C1048 1.363 . S
N1046 C1048 1.356 . S
N1046 H1058 0.984 . S
N1046 H1059 0.985 . S
N1047 C1049 1.356 . S
N1047 H1052 0.984 . S
N1047 H1053 0.985 . S
C1048 C1042 1.379 . S
C1048 C1045 1.363 . S
C1048 N1046 1.356 . S
C1049 C1043 1.363 . S
C1049 C1044 1.379 . S
C1049 N1047 1.356 . S
N1050 C1042 1.356 . S
N1050 H1056 0.984 . S
N1050 H1057 0.984 . S
N1051 C1044 1.356 . S
N1051 H1054 0.984 . S
N1051 H1055 0.985 . S
H1052 N1047 0.984 . S
H1053 N1047 0.985 . S
H1054 N1051 0.984 . S
H1055 N1051 0.985 . S
H1056 N1050 0.984 . S
H1057 N1050 0.984 . S
H1058 N1046 0.984 . S
H1059 N1046 0.985 . S
C1060 C1061 1.363 . S
C1060 C1066 1.379 . S
C1060 N1068 1.356 . S
C1061 C1060 1.363 . S
C1061 C1067 1.363 . S
C1062 C1063 1.363 . S
C1062 C1067 1.379 . S
C1062 N1069 1.356 . S
C1063 C1062 1.363 . S
C1063 C1066 1.363 . S
N1064 C1066 1.356 . S
N1064 H1076 0.984 . S
N1064 H1077 0.985 . S
N1065 C1067 1.356 . S
N1065 H1070 0.984 . S
N1065 H1071 0.985 . S
C1066 C1060 1.379 . S
C1066 C1063 1.363 . S
C1066 N1064 1.356 . S
C1067 C1061 1.363 . S
C1067 C1062 1.379 . S
C1067 N1065 1.356 . S
N1068 C1060 1.356 . S
N1068 H1074 0.984 . S
N1068 H1075 0.984 . S
N1069 C1062 1.356 . S
N1069 H1072 0.984 . S
N1069 H1073 0.985 . S
H1070 N1065 0.984 . S
H1071 N1065 0.985 . S
H1072 N1069 0.984 . S
H1073 N1069 0.985 . S
H1074 N1068 0.984 . S
H1075 N1068 0.984 . S
H1076 N1064 0.984 . S
H1077 N1064 0.985 . S
C1078 C1079 1.363 . S
C1078 C1084 1.379 1_655 S
C1078 N1086 1.356 . S
C1079 C1078 1.363 . S
C1079 C1085 1.363 . S
C1080 C1081 1.363 . S
C1080 C1085 1.379 1_455 S
C1080 N1087 1.356 . S
C1081 C1080 1.363 . S
C1081 C1084 1.363 . S
N1082 C1084 1.356 . S
N1082 H1094 0.984 . S
N1082 H1095 0.985 . S
N1083 C1085 1.356 . S
N1083 H1088 0.984 . S
N1083 H1089 0.985 . S
C1084 C1078 1.379 1_455 S
C1084 C1081 1.363 . S
C1084 N1082 1.356 . S
C1085 C1079 1.363 . S
C1085 C1080 1.379 1_655 S
C1085 N1083 1.356 . S
N1086 C1078 1.356 . S
N1086 H1092 0.984 . S
N1086 H1093 0.984 . S
N1087 C1080 1.356 . S
N1087 H1090 0.984 . S
N1087 H1091 0.985 . S
H1088 N1083 0.984 . S
H1089 N1083 0.985 . S
H1090 N1087 0.984 . S
H1091 N1087 0.985 . S
H1092 N1086 0.984 . S
H1093 N1086 0.984 . S
H1094 N1082 0.984 . S
H1095 N1082 0.985 . S
C1096 C1097 1.363 . S
C1096 C1102 1.379 . S
C1096 N1104 1.356 . S
C1097 C1096 1.363 . S
C1097 C1103 1.363 . S
C1098 C1099 1.363 . S
C1098 C1103 1.379 . S
C1098 N1105 1.356 . S
C1099 C1098 1.363 . S
C1099 C1102 1.363 . S
N1100 C1102 1.356 . S
N1100 H1112 0.984 . S
N1100 H1113 0.985 . S
N1101 C1103 1.356 . S
N1101 H1106 0.984 . S
N1101 H1107 0.985 . S
C1102 C1096 1.379 . S
C1102 C1099 1.363 . S
C1102 N1100 1.356 . S
C1103 C1097 1.363 . S
C1103 C1098 1.379 . S
C1103 N1101 1.356 . S
N1104 C1096 1.356 . S
N1104 H1110 0.984 . S
N1104 H1111 0.984 . S
N1105 C1098 1.356 . S
N1105 H1108 0.984 . S
N1105 H1109 0.985 . S
H1106 N1101 0.984 . S
H1107 N1101 0.985 . S
H1108 N1105 0.984 . S
H1109 N1105 0.985 . S
H1110 N1104 0.984 . S
H1111 N1104 0.984 . S
H1112 N1100 0.984 . S
H1113 N1100 0.985 . S
C1114 C1115 1.363 . S
C1114 C1120 1.379 1_455 S
C1114 N1122 1.356 . S
C1115 C1114 1.363 . S
C1115 C1121 1.363 . S
C1116 C1117 1.363 . S
C1116 C1121 1.379 1_655 S
C1116 N1123 1.356 . S
C1117 C1116 1.363 . S
C1117 C1120 1.363 . S
N1118 C1120 1.356 . S
N1118 H1130 0.984 . S
N1118 H1131 0.985 . S
N1119 C1121 1.356 . S
N1119 H1124 0.984 . S
N1119 H1125 0.985 1_556 S
C1120 C1114 1.379 1_655 S
C1120 C1117 1.363 . S
C1120 N1118 1.356 . S
C1121 C1115 1.363 . S
C1121 C1116 1.379 1_455 S
C1121 N1119 1.356 . S
N1122 C1114 1.356 . S
N1122 H1128 0.984 . S
N1122 H1129 0.984 . S
N1123 C1116 1.356 . S
N1123 H1126 0.984 . S
N1123 H1127 0.985 1_556 S
H1124 N1119 0.984 . S
H1125 N1119 0.985 1_554 S
H1126 N1123 0.984 . S
H1127 N1123 0.985 1_554 S
H1128 N1122 0.984 . S
H1129 N1122 0.984 . S
H1130 N1118 0.984 . S
H1131 N1118 0.985 . S
C1132 C1133 1.363 . S
C1132 C1138 1.379 . S
C1132 N1140 1.356 . S
C1133 C1132 1.363 . S
C1133 C1139 1.363 . S
C1134 C1135 1.363 . S
C1134 C1139 1.379 . S
C1134 N1141 1.356 . S
C1135 C1134 1.363 . S
C1135 C1138 1.363 . S
N1136 C1138 1.356 . S
N1136 H1148 0.984 . S
N1136 H1149 0.985 . S
N1137 C1139 1.356 . S
N1137 H1142 0.984 . S
N1137 H1143 0.985 . S
C1138 C1132 1.379 . S
C1138 C1135 1.363 . S
C1138 N1136 1.356 . S
C1139 C1133 1.363 . S
C1139 C1134 1.379 . S
C1139 N1137 1.356 . S
N1140 C1132 1.356 . S
N1140 H1146 0.984 . S
N1140 H1147 0.984 . S
N1141 C1134 1.356 . S
N1141 H1144 0.984 . S
N1141 H1145 0.985 . S
H1142 N1137 0.984 . S
H1143 N1137 0.985 . S
H1144 N1141 0.984 . S
H1145 N1141 0.985 . S
H1146 N1140 0.984 . S
H1147 N1140 0.984 . S
H1148 N1136 0.984 . S
H1149 N1136 0.985 . S
C1150 C1151 1.363 . S
C1150 C1156 1.379 . S
C1150 N1158 1.356 . S
C1151 C1150 1.363 . S
C1151 C1157 1.363 . S
C1152 C1153 1.363 . S
C1152 C1157 1.379 . S
C1152 N1159 1.356 . S
C1153 C1152 1.363 . S
C1153 C1156 1.363 . S
N1154 C1156 1.356 . S
N1154 H1166 0.984 . S
N1154 H1167 0.985 . S
N1155 C1157 1.356 . S
N1155 H1160 0.984 . S
N1155 H1161 0.985 . S
C1156 C1150 1.379 . S
C1156 C1153 1.363 . S
C1156 N1154 1.356 . S
C1157 C1151 1.363 . S
C1157 C1152 1.379 . S
C1157 N1155 1.356 . S
N1158 C1150 1.356 . S
N1158 H1164 0.984 . S
N1158 H1165 0.984 . S
N1159 C1152 1.356 . S
N1159 H1162 0.984 . S
N1159 H1163 0.985 . S
H1160 N1155 0.984 . S
H1161 N1155 0.985 . S
H1162 N1159 0.984 . S
H1163 N1159 0.985 . S
H1164 N1158 0.984 . S
H1165 N1158 0.984 . S
H1166 N1154 0.984 . S
H1167 N1154 0.985 . S
C1168 C1169 1.363 . S
C1168 C1174 1.379 . S
C1168 N1176 1.356 . S
C1169 C1168 1.363 . S
C1169 C1175 1.363 . S
C1170 C1171 1.363 . S
C1170 C1175 1.379 . S
C1170 N1177 1.356 . S
C1171 C1170 1.363 . S
C1171 C1174 1.363 . S
N1172 C1174 1.356 . S
N1172 H1184 0.984 . S
N1172 H1185 0.985 . S
N1173 C1175 1.356 . S
N1173 H1178 0.984 . S
N1173 H1179 0.985 . S
C1174 C1168 1.379 . S
C1174 C1171 1.363 . S
C1174 N1172 1.356 . S
C1175 C1169 1.363 . S
C1175 C1170 1.379 . S
C1175 N1173 1.356 . S
N1176 C1168 1.356 . S
N1176 H1182 0.984 . S
N1176 H1183 0.984 . S
N1177 C1170 1.356 . S
N1177 H1180 0.984 . S
N1177 H1181 0.985 . S
H1178 N1173 0.984 . S
H1179 N1173 0.985 . S
H1180 N1177 0.984 . S
H1181 N1177 0.985 . S
H1182 N1176 0.984 . S
H1183 N1176 0.984 . S
H1184 N1172 0.984 . S
H1185 N1172 0.985 . S
C1186 C1187 1.363 . S
C1186 C1192 1.379 . S
C1186 N1194 1.356 . S
C1187 C1186 1.363 . S
C1187 C1193 1.363 . S
C1188 C1189 1.363 . S
C1188 C1193 1.379 . S
C1188 N1195 1.356 . S
C1189 C1188 1.363 . S
C1189 C1192 1.363 . S
N1190 C1192 1.356 . S
N1190 H1202 0.984 . S
N1190 H1203 0.985 . S
N1191 C1193 1.356 . S
N1191 H1196 0.984 . S
N1191 H1197 0.985 . S
C1192 C1186 1.379 . S
C1192 C1189 1.363 . S
C1192 N1190 1.356 . S
C1193 C1187 1.363 . S
C1193 C1188 1.379 . S
C1193 N1191 1.356 . S
N1194 C1186 1.356 . S
N1194 H1200 0.984 . S
N1194 H1201 0.984 . S
N1195 C1188 1.356 . S
N1195 H1198 0.984 . S
N1195 H1199 0.985 . S
H1196 N1191 0.984 . S
H1197 N1191 0.985 . S
H1198 N1195 0.984 . S
H1199 N1195 0.985 . S
H1200 N1194 0.984 . S
H1201 N1194 0.984 . S
H1202 N1190 0.984 . S
H1203 N1190 0.985 . S
C1204 C1205 1.363 . S
C1204 C1210 1.379 . S
C1204 N1212 1.356 . S
C1205 C1204 1.363 . S
C1205 C1211 1.363 . S
C1206 C1207 1.363 . S
C1206 C1211 1.379 . S
C1206 N1213 1.356 . S
C1207 C1206 1.363 . S
C1207 C1210 1.363 . S
N1208 C1210 1.356 . S
N1208 H1220 0.984 . S
N1208 H1221 0.985 . S
N1209 C1211 1.356 . S
N1209 H1214 0.984 . S
N1209 H1215 0.985 . S
C1210 C1204 1.379 . S
C1210 C1207 1.363 . S
C1210 N1208 1.356 . S
C1211 C1205 1.363 . S
C1211 C1206 1.379 . S
C1211 N1209 1.356 . S
N1212 C1204 1.356 . S
N1212 H1218 0.984 . S
N1212 H1219 0.984 . S
N1213 C1206 1.356 . S
N1213 H1216 0.984 . S
N1213 H1217 0.985 . S
H1214 N1209 0.984 . S
H1215 N1209 0.985 . S
H1216 N1213 0.984 . S
H1217 N1213 0.985 . S
H1218 N1212 0.984 . S
H1219 N1212 0.984 . S
H1220 N1208 0.984 . S
H1221 N1208 0.985 . S
C1222 C1223 1.363 . S
C1222 C1228 1.379 1_455 S
C1222 N1230 1.356 . S
C1223 C1222 1.363 . S
C1223 C1229 1.363 . S
C1224 C1225 1.363 . S
C1224 C1229 1.379 1_655 S
C1224 N1231 1.356 . S
C1225 C1224 1.363 . S
C1225 C1228 1.363 . S
N1226 C1228 1.356 . S
N1226 H1238 0.984 . S
N1226 H1239 0.985 . S
N1227 C1229 1.356 . S
N1227 H1232 0.984 . S
N1227 H1233 0.985 . S
C1228 C1222 1.379 1_655 S
C1228 C1225 1.363 . S
C1228 N1226 1.356 . S
C1229 C1223 1.363 . S
C1229 C1224 1.379 1_455 S
C1229 N1227 1.356 . S
N1230 C1222 1.356 . S
N1230 H1236 0.984 . S
N1230 H1237 0.984 . S
N1231 C1224 1.356 . S
N1231 H1234 0.984 . S
N1231 H1235 0.985 . S
H1232 N1227 0.984 . S
H1233 N1227 0.985 . S
H1234 N1231 0.984 . S
H1235 N1231 0.985 . S
H1236 N1230 0.984 . S
H1237 N1230 0.984 . S
H1238 N1226 0.984 . S
H1239 N1226 0.985 . S
C1240 C1241 1.363 . S
C1240 C1246 1.379 . S
C1240 N1248 1.356 . S
C1241 C1240 1.363 . S
C1241 C1247 1.363 . S
C1242 C1243 1.363 . S
C1242 C1247 1.379 . S
C1242 N1249 1.356 . S
C1243 C1242 1.363 . S
C1243 C1246 1.363 . S
N1244 C1246 1.356 . S
N1244 H1256 0.984 . S
N1244 H1257 0.985 . S
N1245 C1247 1.356 . S
N1245 H1250 0.984 . S
N1245 H1251 0.985 . S
C1246 C1240 1.379 . S
C1246 C1243 1.363 . S
C1246 N1244 1.356 . S
C1247 C1241 1.363 . S
C1247 C1242 1.379 . S
C1247 N1245 1.356 . S
N1248 C1240 1.356 . S
N1248 H1254 0.984 . S
N1248 H1255 0.984 . S
N1249 C1242 1.356 . S
N1249 H1252 0.984 . S
N1249 H1253 0.985 . S
H1250 N1245 0.984 . S
H1251 N1245 0.985 . S
H1252 N1249 0.984 . S
H1253 N1249 0.985 . S
H1254 N1248 0.984 . S
H1255 N1248 0.984 . S
H1256 N1244 0.984 . S
H1257 N1244 0.985 . S
C1258 C1259 1.363 . S
C1258 C1264 1.379 1_655 S
C1258 N1266 1.356 . S
C1259 C1258 1.363 . S
C1259 C1265 1.363 . S
C1260 C1261 1.363 . S
C1260 C1265 1.379 1_455 S
C1260 N1267 1.356 . S
C1261 C1260 1.363 . S
C1261 C1264 1.363 . S
N1262 C1264 1.356 . S
N1262 H1274 0.984 . S
N1262 H1275 0.985 . S
N1263 C1265 1.356 . S
N1263 H1268 0.984 . S
N1263 H1269 0.985 . S
C1264 C1258 1.379 1_455 S
C1264 C1261 1.363 . S
C1264 N1262 1.356 . S
C1265 C1259 1.363 . S
C1265 C1260 1.379 1_655 S
C1265 N1263 1.356 . S
N1266 C1258 1.356 . S
N1266 H1272 0.984 . S
N1266 H1273 0.984 . S
N1267 C1260 1.356 . S
N1267 H1270 0.984 . S
N1267 H1271 0.985 . S
H1268 N1263 0.984 . S
H1269 N1263 0.985 . S
H1270 N1267 0.984 . S
H1271 N1267 0.985 . S
H1272 N1266 0.984 . S
H1273 N1266 0.984 . S
H1274 N1262 0.984 . S
H1275 N1262 0.985 . S
C1276 C1277 1.363 . S
C1276 C1282 1.379 . S
C1276 N1284 1.356 . S
C1277 C1276 1.363 . S
C1277 C1283 1.363 . S
C1278 C1279 1.363 . S
C1278 C1283 1.379 . S
C1278 N1285 1.356 . S
C1279 C1278 1.363 . S
C1279 C1282 1.363 . S
N1280 C1282 1.356 . S
N1280 H1292 0.984 . S
N1280 H1293 0.985 . S
N1281 C1283 1.356 . S
N1281 H1286 0.984 . S
N1281 H1287 0.985 . S
C1282 C1276 1.379 . S
C1282 C1279 1.363 . S
C1282 N1280 1.356 . S
C1283 C1277 1.363 . S
C1283 C1278 1.379 . S
C1283 N1281 1.356 . S
N1284 C1276 1.356 . S
N1284 H1290 0.984 . S
N1284 H1291 0.984 . S
N1285 C1278 1.356 . S
N1285 H1288 0.984 . S
N1285 H1289 0.985 . S
H1286 N1281 0.984 . S
H1287 N1281 0.985 . S
H1288 N1285 0.984 . S
H1289 N1285 0.985 . S
H1290 N1284 0.984 . S
H1291 N1284 0.984 . S
H1292 N1280 0.984 . S
H1293 N1280 0.985 . S
C1294 C1295 1.363 . S
C1294 C1300 1.379 . S
C1294 N1302 1.356 . S
C1295 C1294 1.363 . S
C1295 C1301 1.363 . S
C1296 C1297 1.363 . S
C1296 C1301 1.379 . S
C1296 N1303 1.356 . S
C1297 C1296 1.363 . S
C1297 C1300 1.363 . S
N1298 C1300 1.356 . S
N1298 H1310 0.984 . S
N1298 H1311 0.985 . S
N1299 C1301 1.356 . S
N1299 H1304 0.984 . S
N1299 H1305 0.985 . S
C1300 C1294 1.379 . S
C1300 C1297 1.363 . S
C1300 N1298 1.356 . S
C1301 C1295 1.363 . S
C1301 C1296 1.379 . S
C1301 N1299 1.356 . S
N1302 C1294 1.356 . S
N1302 H1308 0.984 . S
N1302 H1309 0.984 . S
N1303 C1296 1.356 . S
N1303 H1306 0.984 . S
N1303 H1307 0.985 . S
H1304 N1299 0.984 . S
H1305 N1299 0.985 . S
H1306 N1303 0.984 . S
H1307 N1303 0.985 . S
H1308 N1302 0.984 . S
H1309 N1302 0.984 . S
H1310 N1298 0.984 . S
H1311 N1298 0.985 . S
C1312 C1313 1.363 . S
C1312 C1318 1.379 . S
C1312 N1320 1.356 . S
C1313 C1312 1.363 . S
C1313 C1319 1.363 . S
C1314 C1315 1.363 . S
C1314 C1319 1.379 . S
C1314 N1321 1.356 . S
C1315 C1314 1.363 . S
C1315 C1318 1.363 . S
N1316 C1318 1.356 . S
N1316 H1328 0.984 . S
N1316 H1329 0.985 . S
N1317 C1319 1.356 . S
N1317 H1322 0.984 . S
N1317 H1323 0.985 . S
C1318 C1312 1.379 . S
C1318 C1315 1.363 . S
C1318 N1316 1.356 . S
C1319 C1313 1.363 . S
C1319 C1314 1.379 . S
C1319 N1317 1.356 . S
N1320 C1312 1.356 . S
N1320 H1326 0.984 . S
N1320 H1327 0.984 . S
N1321 C1314 1.356 . S
N1321 H1324 0.984 . S
N1321 H1325 0.985 . S
H1322 N1317 0.984 . S
H1323 N1317 0.985 . S
H1324 N1321 0.984 . S
H1325 N1321 0.985 . S
H1326 N1320 0.984 . S
H1327 N1320 0.984 . S
H1328 N1316 0.984 . S
H1329 N1316 0.985 . S
C1330 C1331 1.363 . S
C1330 C1336 1.379 . S
C1330 N1338 1.356 . S
C1331 C1330 1.363 . S
C1331 C1337 1.363 . S
C1332 C1333 1.363 . S
C1332 C1337 1.379 . S
C1332 N1339 1.356 . S
C1333 C1332 1.363 . S
C1333 C1336 1.363 . S
N1334 C1336 1.356 . S
N1334 H1346 0.984 . S
N1334 H1347 0.985 . S
N1335 C1337 1.356 . S
N1335 H1340 0.984 . S
N1335 H1341 0.985 . S
C1336 C1330 1.379 . S
C1336 C1333 1.363 . S
C1336 N1334 1.356 . S
C1337 C1331 1.363 . S
C1337 C1332 1.379 . S
C1337 N1335 1.356 . S
N1338 C1330 1.356 . S
N1338 H1344 0.984 . S
N1338 H1345 0.984 . S
N1339 C1332 1.356 . S
N1339 H1342 0.984 . S
N1339 H1343 0.985 . S
H1340 N1335 0.984 . S
H1341 N1335 0.985 . S
H1342 N1339 0.984 . S
H1343 N1339 0.985 . S
H1344 N1338 0.984 . S
H1345 N1338 0.984 . S
H1346 N1334 0.984 . S
H1347 N1334 0.985 . S
C1348 C1349 1.363 . S
C1348 C1354 1.379 . S
C1348 N1356 1.356 . S
C1349 C1348 1.363 . S
C1349 C1355 1.363 . S
C1350 C1351 1.363 . S
C1350 C1355 1.379 . S
C1350 N1357 1.356 . S
C1351 C1350 1.363 . S
C1351 C1354 1.363 . S
N1352 C1354 1.356 . S
N1352 H1364 0.984 . S
N1352 H1365 0.985 . S
N1353 C1355 1.356 . S
N1353 H1358 0.984 1_554 S
N1353 H1359 0.985 . S
C1354 C1348 1.379 . S
C1354 C1351 1.363 . S
C1354 N1352 1.356 . S
C1355 C1349 1.363 . S
C1355 C1350 1.379 . S
C1355 N1353 1.356 . S
N1356 C1348 1.356 . S
N1356 H1362 0.984 . S
N1356 H1363 0.984 . S
N1357 C1350 1.356 . S
N1357 H1360 0.984 . S
N1357 H1361 0.985 . S
H1358 N1353 0.984 1_556 S
H1359 N1353 0.985 . S
H1360 N1357 0.984 . S
H1361 N1357 0.985 . S
H1362 N1356 0.984 . S
H1363 N1356 0.984 . S
H1364 N1352 0.984 . S
H1365 N1352 0.985 . S
C1366 C1367 1.363 . S
C1366 C1372 1.379 . S
C1366 N1374 1.356 . S
C1367 C1366 1.363 . S
C1367 C1373 1.363 . S
C1368 C1369 1.363 . S
C1368 C1373 1.379 . S
C1368 N1375 1.356 . S
C1369 C1368 1.363 . S
C1369 C1372 1.363 . S
N1370 C1372 1.356 . S
N1370 H1382 0.984 . S
N1370 H1383 0.985 . S
N1371 C1373 1.356 . S
N1371 H1376 0.984 . S
N1371 H1377 0.985 . S
C1372 C1366 1.379 . S
C1372 C1369 1.363 . S
C1372 N1370 1.356 . S
C1373 C1367 1.363 . S
C1373 C1368 1.379 . S
C1373 N1371 1.356 . S
N1374 C1366 1.356 . S
N1374 H1380 0.984 . S
N1374 H1381 0.984 . S
N1375 C1368 1.356 . S
N1375 H1378 0.984 . S
N1375 H1379 0.985 . S
H1376 N1371 0.984 . S
H1377 N1371 0.985 . S
H1378 N1375 0.984 . S
H1379 N1375 0.985 . S
H1380 N1374 0.984 . S
H1381 N1374 0.984 . S
H1382 N1370 0.984 . S
H1383 N1370 0.985 . S
C1384 C1385 1.363 . S
C1384 C1390 1.379 . S
C1384 N1392 1.356 . S
C1385 C1384 1.363 . S
C1385 C1391 1.363 . S
C1386 C1387 1.363 . S
C1386 C1391 1.379 . S
C1386 N1393 1.356 . S
C1387 C1386 1.363 . S
C1387 C1390 1.363 . S
N1388 C1390 1.356 . S
N1388 H1400 0.984 . S
N1388 H1401 0.985 . S
N1389 C1391 1.356 . S
N1389 H1394 0.984 . S
N1389 H1395 0.985 . S
C1390 C1384 1.379 . S
C1390 C1387 1.363 . S
C1390 N1388 1.356 . S
C1391 C1385 1.363 . S
C1391 C1386 1.379 . S
C1391 N1389 1.356 . S
N1392 C1384 1.356 . S
N1392 H1398 0.984 . S
N1392 H1399 0.984 . S
N1393 C1386 1.356 . S
N1393 H1396 0.984 . S
N1393 H1397 0.985 . S
H1394 N1389 0.984 . S
H1395 N1389 0.985 . S
H1396 N1393 0.984 . S
H1397 N1393 0.985 . S
H1398 N1392 0.984 . S
H1399 N1392 0.984 . S
H1400 N1388 0.984 . S
H1401 N1388 0.985 . S
C1402 C1403 1.363 . S
C1402 C1408 1.379 . S
C1402 N1410 1.356 . S
C1403 C1402 1.363 . S
C1403 C1409 1.363 . S
C1404 C1405 1.363 . S
C1404 C1409 1.379 . S
C1404 N1411 1.356 . S
C1405 C1404 1.363 . S
C1405 C1408 1.363 . S
N1406 C1408 1.356 . S
N1406 H1418 0.984 . S
N1406 H1419 0.985 . S
N1407 C1409 1.356 . S
N1407 H1412 0.984 . S
N1407 H1413 0.985 . S
C1408 C1402 1.379 . S
C1408 C1405 1.363 . S
C1408 N1406 1.356 . S
C1409 C1403 1.363 . S
C1409 C1404 1.379 . S
C1409 N1407 1.356 . S
N1410 C1402 1.356 . S
N1410 H1416 0.984 . S
N1410 H1417 0.984 . S
N1411 C1404 1.356 . S
N1411 H1414 0.984 . S
N1411 H1415 0.985 . S
H1412 N1407 0.984 . S
H1413 N1407 0.985 . S
H1414 N1411 0.984 . S
H1415 N1411 0.985 . S
H1416 N1410 0.984 . S
H1417 N1410 0.984 . S
H1418 N1406 0.984 . S
H1419 N1406 0.985 . S
C1420 C1421 1.363 . S
C1420 C1426 1.379 . S
C1420 N1428 1.356 . S
C1421 C1420 1.363 . S
C1421 C1427 1.363 . S
C1422 C1423 1.363 . S
C1422 C1427 1.379 . S
C1422 N1429 1.356 . S
C1423 C1422 1.363 . S
C1423 C1426 1.363 . S
N1424 C1426 1.356 . S
N1424 H1436 0.984 . S
N1424 H1437 0.985 . S
N1425 C1427 1.356 . S
N1425 H1430 0.984 . S
N1425 H1431 0.985 . S
C1426 C1420 1.379 . S
C1426 C1423 1.363 . S
C1426 N1424 1.356 . S
C1427 C1421 1.363 . S
C1427 C1422 1.379 . S
C1427 N1425 1.356 . S
N1428 C1420 1.356 . S
N1428 H1434 0.984 . S
N1428 H1435 0.984 . S
N1429 C1422 1.356 . S
N1429 H1432 0.984 1_556 S
N1429 H1433 0.985 . S
H1430 N1425 0.984 . S
H1431 N1425 0.985 . S
H1432 N1429 0.984 1_554 S
H1433 N1429 0.985 . S
H1434 N1428 0.984 . S
H1435 N1428 0.984 . S
H1436 N1424 0.984 . S
H1437 N1424 0.985 . S
C1438 C1439 1.363 . S
C1438 C1444 1.379 . S
C1438 N1446 1.356 . S
C1439 C1438 1.363 . S
C1439 C1445 1.363 . S
C1440 C1441 1.363 . S
C1440 C1445 1.379 . S
C1440 N1447 1.356 . S
C1441 C1440 1.363 . S
C1441 C1444 1.363 . S
N1442 C1444 1.356 . S
N1442 H1454 0.984 . S
N1442 H1455 0.985 . S
N1443 C1445 1.356 . S
N1443 H1448 0.984 . S
N1443 H1449 0.985 . S
C1444 C1438 1.379 . S
C1444 C1441 1.363 . S
C1444 N1442 1.356 . S
C1445 C1439 1.363 . S
C1445 C1440 1.379 . S
C1445 N1443 1.356 . S
N1446 C1438 1.356 . S
N1446 H1452 0.984 . S
N1446 H1453 0.984 . S
N1447 C1440 1.356 . S
N1447 H1450 0.984 . S
N1447 H1451 0.985 . S
H1448 N1443 0.984 . S
H1449 N1443 0.985 . S
H1450 N1447 0.984 . S
H1451 N1447 0.985 . S
H1452 N1446 0.984 . S
H1453 N1446 0.984 . S
H1454 N1442 0.984 . S
H1455 N1442 0.985 . S
C1456 C1457 1.363 . S
C1456 C1462 1.379 . S
C1456 N1464 1.356 . S
C1457 C1456 1.363 . S
C1457 C1463 1.363 . S
C1458 C1459 1.363 . S
C1458 C1463 1.379 . S
C1458 N1465 1.356 . S
C1459 C1458 1.363 . S
C1459 C1462 1.363 . S
N1460 C1462 1.356 . S
N1460 H1472 0.984 . S
N1460 H1473 0.985 . S
N1461 C1463 1.356 . S
N1461 H1466 0.984 . S
N1461 H1467 0.985 . S
C1462 C1456 1.379 . S
C1462 C1459 1.363 . S
C1462 N1460 1.356 . S
C1463 C1457 1.363 . S
C1463 C1458 1.379 . S
C1463 N1461 1.356 . S
N1464 C1456 1.356 . S
N1464 H1470 0.984 . S
N1464 H1471 0.984 1_554 S
N1465 C1458 1.356 . S
N1465 H1468 0.984 . S
N1465 H1469 0.985 . S
H1466 N1461 0.984 . S
H1467 N1461 0.985 . S
H1468 N1465 0.984 . S
H1469 N1465 0.985 . S
H1470 N1464 0.984 . S
H1471 N1464 0.984 1_556 S
H1472 N1460 0.984 . S
H1473 N1460 0.985 . S
C1474 C1475 1.363 . S
C1474 C1480 1.379 . S
C1474 N1482 1.356 . S
C1475 C1474 1.363 . S
C1475 C1481 1.363 . S
C1476 C1477 1.363 . S
C1476 C1481 1.379 . S
C1476 N1483 1.356 . S
C1477 C1476 1.363 . S
C1477 C1480 1.363 . S
N1478 C1480 1.356 . S
N1478 H1490 0.984 . S
N1478 H1491 0.985 . S
N1479 C1481 1.356 . S
N1479 H1484 0.984 . S
N1479 H1485 0.985 . S
C1480 C1474 1.379 . S
C1480 C1477 1.363 . S
C1480 N1478 1.356 . S
C1481 C1475 1.363 . S
C1481 C1476 1.379 . S
C1481 N1479 1.356 . S
N1482 C1474 1.356 . S
N1482 H1488 0.984 . S
N1482 H1489 0.984 . S
N1483 C1476 1.356 . S
N1483 H1486 0.984 . S
N1483 H1487 0.985 . S
H1484 N1479 0.984 . S
H1485 N1479 0.985 . S
H1486 N1483 0.984 . S
H1487 N1483 0.985 . S
H1488 N1482 0.984 . S
H1489 N1482 0.984 . S
H1490 N1478 0.984 . S
H1491 N1478 0.985 . S
C1492 C1493 1.363 . S
C1492 C1498 1.379 . S
C1492 N1500 1.356 . S
C1493 C1492 1.363 . S
C1493 C1499 1.363 . S
C1494 C1495 1.363 . S
C1494 C1499 1.379 . S
C1494 N1501 1.356 . S
C1495 C1494 1.363 . S
C1495 C1498 1.363 . S
N1496 C1498 1.356 . S
N1496 H1508 0.984 . S
N1496 H1509 0.985 . S
N1497 C1499 1.356 . S
N1497 H1502 0.984 . S
N1497 H1503 0.985 . S
C1498 C1492 1.379 . S
C1498 C1495 1.363 . S
C1498 N1496 1.356 . S
C1499 C1493 1.363 . S
C1499 C1494 1.379 . S
C1499 N1497 1.356 . S
N1500 C1492 1.356 . S
N1500 H1506 0.984 . S
N1500 H1507 0.984 . S
N1501 C1494 1.356 . S
N1501 H1504 0.984 . S
N1501 H1505 0.985 . S
H1502 N1497 0.984 . S
H1503 N1497 0.985 . S
H1504 N1501 0.984 . S
H1505 N1501 0.985 . S
H1506 N1500 0.984 . S
H1507 N1500 0.984 . S
H1508 N1496 0.984 . S
H1509 N1496 0.985 . S
C1510 C1511 1.363 . S
C1510 C1516 1.379 . S
C1510 N1518 1.356 . S
C1511 C1510 1.363 . S
C1511 C1517 1.363 . S
C1512 C1513 1.363 . S
C1512 C1517 1.379 . S
C1512 N1519 1.356 . S
C1513 C1512 1.363 . S
C1513 C1516 1.363 . S
N1514 C1516 1.356 . S
N1514 H1526 0.984 . S
N1514 H1527 0.985 . S
N1515 C1517 1.356 . S
N1515 H1520 0.984 . S
N1515 H1521 0.985 . S
C1516 C1510 1.379 . S
C1516 C1513 1.363 . S
C1516 N1514 1.356 . S
C1517 C1511 1.363 . S
C1517 C1512 1.379 . S
C1517 N1515 1.356 . S
N1518 C1510 1.356 . S
N1518 H1524 0.984 . S
N1518 H1525 0.984 1_556 S
N1519 C1512 1.356 . S
N1519 H1522 0.984 . S
N1519 H1523 0.985 . S
H1520 N1515 0.984 . S
H1521 N1515 0.985 . S
H1522 N1519 0.984 . S
H1523 N1519 0.985 . S
H1524 N1518 0.984 . S
H1525 N1518 0.984 1_554 S
H1526 N1514 0.984 . S
H1527 N1514 0.985 . S
C1528 C1529 1.363 . S
C1528 C1534 1.379 . S
C1528 N1536 1.356 . S
C1529 C1528 1.363 . S
C1529 C1535 1.363 . S
C1530 C1531 1.363 . S
C1530 C1535 1.379 . S
C1530 N1537 1.356 . S
C1531 C1530 1.363 . S
C1531 C1534 1.363 . S
N1532 C1534 1.356 . S
N1532 H1544 0.984 . S
N1532 H1545 0.985 1_556 S
N1533 C1535 1.356 . S
N1533 H1538 0.984 . S
N1533 H1539 0.985 . S
C1534 C1528 1.379 . S
C1534 C1531 1.363 . S
C1534 N1532 1.356 . S
C1535 C1529 1.363 . S
C1535 C1530 1.379 . S
C1535 N1533 1.356 . S
N1536 C1528 1.356 . S
N1536 H1542 0.984 . S
N1536 H1543 0.984 . S
N1537 C1530 1.356 . S
N1537 H1540 0.984 . S
N1537 H1541 0.985 . S
H1538 N1533 0.984 . S
H1539 N1533 0.985 . S
H1540 N1537 0.984 . S
H1541 N1537 0.985 . S
H1542 N1536 0.984 . S
H1543 N1536 0.984 . S
H1544 N1532 0.984 . S
H1545 N1532 0.985 1_554 S
C1546 C1547 1.363 . S
C1546 C1552 1.379 . S
C1546 N1554 1.356 . S
C1547 C1546 1.363 . S
C1547 C1553 1.363 . S
C1548 C1549 1.363 . S
C1548 C1553 1.379 . S
C1548 N1555 1.356 . S
C1549 C1548 1.363 . S
C1549 C1552 1.363 . S
N1550 C1552 1.356 . S
N1550 H1562 0.984 . S
N1550 H1563 0.985 . S
N1551 C1553 1.356 . S
N1551 H1556 0.984 . S
N1551 H1557 0.985 . S
C1552 C1546 1.379 . S
C1552 C1549 1.363 . S
C1552 N1550 1.356 . S
C1553 C1547 1.363 . S
C1553 C1548 1.379 . S
C1553 N1551 1.356 . S
N1554 C1546 1.356 . S
N1554 H1560 0.984 . S
N1554 H1561 0.984 . S
N1555 C1548 1.356 . S
N1555 H1558 0.984 . S
N1555 H1559 0.985 . S
H1556 N1551 0.984 . S
H1557 N1551 0.985 . S
H1558 N1555 0.984 . S
H1559 N1555 0.985 . S
H1560 N1554 0.984 . S
H1561 N1554 0.984 . S
H1562 N1550 0.984 . S
H1563 N1550 0.985 . S
C1564 C1565 1.363 . S
C1564 C1570 1.379 . S
C1564 N1572 1.356 . S
C1565 C1564 1.363 . S
C1565 C1571 1.363 . S
C1566 C1567 1.363 . S
C1566 C1571 1.379 . S
C1566 N1573 1.356 . S
C1567 C1566 1.363 . S
C1567 C1570 1.363 . S
N1568 C1570 1.356 . S
N1568 H1580 0.984 . S
N1568 H1581 0.985 . S
N1569 C1571 1.356 . S
N1569 H1574 0.984 . S
N1569 H1575 0.985 . S
C1570 C1564 1.379 . S
C1570 C1567 1.363 . S
C1570 N1568 1.356 . S
C1571 C1565 1.363 . S
C1571 C1566 1.379 . S
C1571 N1569 1.356 . S
N1572 C1564 1.356 . S
N1572 H1578 0.984 . S
N1572 H1579 0.984 . S
N1573 C1566 1.356 . S
N1573 H1576 0.984 . S
N1573 H1577 0.985 . S
H1574 N1569 0.984 . S
H1575 N1569 0.985 . S
H1576 N1573 0.984 . S
H1577 N1573 0.985 . S
H1578 N1572 0.984 . S
H1579 N1572 0.984 . S
H1580 N1568 0.984 . S
H1581 N1568 0.985 . S
C1582 C1583 1.363 . S
C1582 C1588 1.379 . S
C1582 N1590 1.356 . S
C1583 C1582 1.363 . S
C1583 C1589 1.363 . S
C1584 C1585 1.363 . S
C1584 C1589 1.379 . S
C1584 N1591 1.356 . S
C1585 C1584 1.363 . S
C1585 C1588 1.363 . S
N1586 C1588 1.356 . S
N1586 H1598 0.984 . S
N1586 H1599 0.985 . S
N1587 C1589 1.356 . S
N1587 H1592 0.984 . S
N1587 H1593 0.985 . S
C1588 C1582 1.379 . S
C1588 C1585 1.363 . S
C1588 N1586 1.356 . S
C1589 C1583 1.363 . S
C1589 C1584 1.379 . S
C1589 N1587 1.356 . S
N1590 C1582 1.356 . S
N1590 H1596 0.984 . S
N1590 H1597 0.984 . S
N1591 C1584 1.356 . S
N1591 H1594 0.984 1_554 S
N1591 H1595 0.985 . S
H1592 N1587 0.984 . S
H1593 N1587 0.985 . S
H1594 N1591 0.984 1_556 S
H1595 N1591 0.985 . S
H1596 N1590 0.984 . S
H1597 N1590 0.984 . S
H1598 N1586 0.984 . S
H1599 N1586 0.985 . S
C449 C8 1.517 . S
C451 C64 1.517 . S
C467 C22 1.517 . S
C469 C78 1.517 . S
C485 C92 1.517 . S
C487 C36 1.517 . S
C503 C106 1.517 . S
C505 C50 1.517 . S
C521 C120 1.517 . S
C523 C176 1.517 . S
C539 C134 1.517 . S
C541 C190 1.517 . S
C557 C204 1.517 . S
C559 C148 1.517 . S
C575 C162 1.517 . S
C577 C218 1.517 . S
C593 C288 1.517 . S
C595 C232 1.517 . S
C611 C302 1.517 . S
C613 C246 1.517 . S
C629 C260 1.517 . S
C631 C316 1.517 . S
C647 C330 1.517 . S
C649 C274 1.517 . S
C665 C344 1.517 . S
C667 C400 1.517 . S
C683 C414 1.517 . S
C685 C358 1.517 . S
C701 C428 1.517 . S
C703 C372 1.517 . S
C719 C386 1.517 . S
C721 C442 1.517 . S
C737 C9 1.496 . S
C739 C385 1.499 . S
C755 C119 1.499 . S
C757 C23 1.496 . S
C773 C37 1.496 . S
C775 C357 1.499 . S
C791 C51 1.496 . S
C793 C147 1.499 . S
C809 C413 1.499 . S
C811 C65 1.496 . S
C827 C203 1.499 . S
C829 C79 1.496 . S
C845 C93 1.496 . S
C847 C441 1.499 . S
C863 C107 1.496 . S
C865 C175 1.499 . S
C881 C273 1.499 . S
C883 C121 1.496 . S
C899 C135 1.496 . S
C901 C7 1.499 . S
C917 C245 1.499 . S
C919 C149 1.496 . S
C935 C163 1.496 . S
C937 C35 1.499 . S
C953 C301 1.499 . S
C955 C177 1.496 . S
C971 C191 1.496 . S
C973 C91 1.499 . S
C989 C329 1.499 . S
C991 C205 1.496 . S
C1007 C219 1.496 . S
C1009 C63 1.499 . S
C1025 C161 1.499 . S
C1027 C233 1.496 . S
C1043 C343 1.499 . S
C1045 C247 1.496 . S
C1061 C133 1.499 . S
C1063 C261 1.496 . S
C1079 C275 1.496 . S
C1081 C371 1.499 . S
C1097 C189 1.499 . S
C1099 C289 1.496 . S
C1115 C427 1.499 . S
C1117 C303 1.496 . S
C1133 C217 1.499 . S
C1135 C317 1.496 . S
C1151 C331 1.496 . S
C1153 C399 1.499 . S
C1169 C345 1.496 . S
C1171 C49 1.499 . S
C1187 C359 1.496 . S
C1189 C231 1.499 . S
C1205 C373 1.496 . S
C1207 C21 1.499 . S
C1223 C387 1.496 . S
C1225 C259 1.499 . S
C1241 C401 1.496 . S
C1243 C77 1.499 . S
C1259 C315 1.499 . S
C1261 C415 1.496 . S
C1277 C105 1.499 . S
C1279 C429 1.496 . S
C1295 C443 1.496 . S
C1297 C287 1.499 . S
C1313 C3 1.223 . S
C1315 C101 1.223 . S
C1331 C17 1.223 . S
C1333 C59 1.223 . S
C1349 C31 1.223 . S
C1351 C73 1.223 . S
C1367 C87 1.223 . S
C1369 C45 1.223 . S
C1385 C213 1.223 . S
C1387 C115 1.223 . S
C1403 C171 1.223 . S
C1405 C129 1.223 . S
C1421 C185 1.223 . S
C1423 C143 1.223 . S
C1439 C199 1.223 . S
C1441 C157 1.223 . S
C1457 C227 1.223 . S
C1459 C325 1.223 . S
C1475 C283 1.223 . S
C1477 C241 1.223 . S
C1493 C297 1.223 . S
C1495 C255 1.223 . S
C1511 C311 1.223 . S
C1513 C269 1.223 . S
C1529 C437 1.223 . S
C1531 C339 1.223 . S
C1547 C353 1.223 . S
C1549 C395 1.223 . S
C1565 C367 1.223 . S
C1567 C409 1.223 . S
C1583 C381 1.223 . S
C1585 C423 1.223 . S
