# Generated by pormake.
# Topology uoq, (4)-cn, num edge types: 1
# Building blocks:
#     Node 0, Type 0, BuildingBlock: QUQFOY_clean_sbu_1, # of connection points: 4
#     Node 1, Type 0, BuildingBlock: QUQFOY_clean_sbu_1, # of connection points: 4
#     Node 2, Type 0, BuildingBlock: QUQFOY_clean_sbu_1, # of connection points: 4
#     Node 3, Type 0, BuildingBlock: QUQFOY_clean_sbu_1, # of connection points: 4
#     Node 4, Type 0, BuildingBlock: QUQFOY_clean_sbu_1, # of connection points: 4
#     Node 5, Type 0, BuildingBlock: QUQFOY_clean_sbu_1, # of connection points: 4
#     Node 6, Type 0, BuildingBlock: QUQFOY_clean_sbu_1, # of connection points: 4
#     Node 7, Type 0, BuildingBlock: QUQFOY_clean_sbu_1, # of connection points: 4
#     Node 8, Type 0, BuildingBlock: QUQFOY_clean_sbu_1, # of connection points: 4
#     Node 9, Type 0, BuildingBlock: QUQFOY_clean_sbu_1, # of connection points: 4
#     Node 10, Type 0, BuildingBlock: QUQFOY_clean_sbu_1, # of connection points: 4
#     Node 11, Type 0, BuildingBlock: QUQFOY_clean_sbu_1, # of connection points: 4
#     Edge 12, Type (0, 0), BuildingBlock: EZIPEK_clean_linker_0, # of connection points: 2
#     Edge 13, Type (0, 0), BuildingBlock: EZIPEK_clean_linker_0, # of connection points: 2
#     Edge 14, Type (0, 0), BuildingBlock: EZIPEK_clean_linker_0, # of connection points: 2
#     Edge 15, Type (0, 0), BuildingBlock: EZIPEK_clean_linker_0, # of connection points: 2
#     Edge 16, Type (0, 0), BuildingBlock: EZIPEK_clean_linker_0, # of connection points: 2
#     Edge 17, Type (0, 0), BuildingBlock: EZIPEK_clean_linker_0, # of connection points: 2
#     Edge 18, Type (0, 0), BuildingBlock: EZIPEK_clean_linker_0, # of connection points: 2
#     Edge 19, Type (0, 0), BuildingBlock: EZIPEK_clean_linker_0, # of connection points: 2
#     Edge 20, Type (0, 0), BuildingBlock: EZIPEK_clean_linker_0, # of connection points: 2
#     Edge 21, Type (0, 0), BuildingBlock: EZIPEK_clean_linker_0, # of connection points: 2
#     Edge 22, Type (0, 0), BuildingBlock: EZIPEK_clean_linker_0, # of connection points: 2
#     Edge 23, Type (0, 0), BuildingBlock: EZIPEK_clean_linker_0, # of connection points: 2
#     Edge 24, Type (0, 0), BuildingBlock: EZIPEK_clean_linker_0, # of connection points: 2
#     Edge 25, Type (0, 0), BuildingBlock: EZIPEK_clean_linker_0, # of connection points: 2
#     Edge 26, Type (0, 0), BuildingBlock: EZIPEK_clean_linker_0, # of connection points: 2
#     Edge 27, Type (0, 0), BuildingBlock: EZIPEK_clean_linker_0, # of connection points: 2
#     Edge 28, Type (0, 0), BuildingBlock: EZIPEK_clean_linker_0, # of connection points: 2
#     Edge 29, Type (0, 0), BuildingBlock: EZIPEK_clean_linker_0, # of connection points: 2
#     Edge 30, Type (0, 0), BuildingBlock: EZIPEK_clean_linker_0, # of connection points: 2
#     Edge 31, Type (0, 0), BuildingBlock: EZIPEK_clean_linker_0, # of connection points: 2
#     Edge 32, Type (0, 0), BuildingBlock: EZIPEK_clean_linker_0, # of connection points: 2
#     Edge 33, Type (0, 0), BuildingBlock: EZIPEK_clean_linker_0, # of connection points: 2
#     Edge 34, Type (0, 0), BuildingBlock: EZIPEK_clean_linker_0, # of connection points: 2
#     Edge 35, Type (0, 0), BuildingBlock: EZIPEK_clean_linker_0, # of connection points: 2
# Relax obj value: 0.138
# Max RMSD: 0.202
# Mean RMSD: 0.202
data_MOF--net-uoq--node1-QUQFOY_clean_sbu_1--edge1-EZIPEK_clean_linker_0
_symmetry_space_group_name_H-M    P1
_symmetry_Int_Tables_number       1
_symmetry_cell_setting            triclinic
loop_
_symmetry_equiv_pos_as_xyz
'x, y, z'
_cell_length_a     48.197277
_cell_length_b     48.190505
_cell_length_c     17.666311
_cell_angle_alpha  90.018221
_cell_angle_beta   89.719245
_cell_angle_gamma 119.93195
loop_
_atom_site_label
_atom_site_type_symbol
_atom_site_fract_x
_atom_site_fract_y
_atom_site_fract_z
_atom_type_partial_charge
O0 O 0.26503 0.4635 0.33941 0.0
Cd1 Cd 0.29214 0.46956 0.24458 0.0
Cd2 Cd 0.31872 0.44491 0.35599 0.0
O3 O 0.27953 0.43707 0.41706 0.0
O4 O 0.27111 0.48578 0.17515 0.0
O5 O 0.27069 0.44023 0.15561 0.0
C6 C 0.26176 0.46031 0.1355 0.0
C7 C 0.33649 0.40842 0.3674 0.0
C8 C 0.26195 0.44888 0.40127 0.0
C9 C 0.35997 0.51185 0.29359 0.0
O10 O 0.35515 0.49134 0.34452 0.0
O11 O 0.33905 0.50648 0.2435 0.0
O12 O 0.33859 0.42668 0.4228 0.0
O13 O 0.32301 0.40984 0.30566 0.0
O14 O 0.79997 0.26563 0.64732 0.0
Cd15 Cd 0.82119 0.29442 0.55519 0.0
Cd16 Cd 0.87204 0.3173 0.66593 0.0
O17 O 0.84103 0.27597 0.72073 0.0
O18 O 0.78388 0.27501 0.48575 0.0
O19 O 0.82871 0.27447 0.46215 0.0
C20 C 0.7997 0.26602 0.44346 0.0
C21 C 0.92664 0.33692 0.67831 0.0
C22 C 0.81142 0.26002 0.70599 0.0
C23 C 0.84572 0.35996 0.61754 0.0
O24 O 0.86085 0.3532 0.66584 0.0
O25 O 0.83111 0.34123 0.56285 0.0
O26 O 0.9093 0.33573 0.73511 0.0
O27 O 0.91275 0.32536 0.61443 0.0
O28 O 0.5252 0.79764 0.96727 0.0
Cd29 Cd 0.51279 0.81384 0.87287 0.0
Cd30 Cd 0.54593 0.87048 0.96212 0.0
O31 O 0.56371 0.84394 0.00973 0.0
O32 O 0.49612 0.77615 0.80425 0.0
O33 O 0.5393 0.82262 0.77785 0.0
C34 C 0.51984 0.79319 0.75965 0.0
C35 C 0.57919 0.92572 0.9676 0.0
C36 C 0.54834 0.81364 0.01192 0.0
C37 C 0.47415 0.8399 0.93807 0.0
O38 O 0.49838 0.85706 0.97895 0.0
O39 O 0.47584 0.82339 0.88408 0.0
O40 O 0.56635 0.90903 0.02757 0.0
O41 O 0.57403 0.91103 0.90365 0.0
O42 O 0.71744 0.52105 0.32217 0.0
Cd43 Cd 0.6897 0.51001 0.22678 0.0
Cd44 Cd 0.66689 0.54417 0.31723 0.0
O45 O 0.70979 0.55917 0.36922 0.0
O46 O 0.71011 0.49211 0.15915 0.0
O47 O 0.70883 0.53631 0.1321 0.0
C48 C 0.71791 0.51603 0.11452 0.0
C49 C 0.64773 0.57987 0.31982 0.0
C50 C 0.72428 0.54333 0.36954 0.0
C51 C 0.62389 0.47298 0.28848 0.0
O52 O 0.63103 0.49716 0.32989 0.0
O53 O 0.64264 0.47423 0.23609 0.0
O54 O 0.64925 0.56591 0.38034 0.0
O55 O 0.65798 0.57434 0.25714 0.0
O56 O 0.18647 0.72877 0.67811 0.0
Cd57 Cd 0.17334 0.69869 0.5862 0.0
Cd58 Cd 0.11499 0.67627 0.66685 0.0
O59 O 0.13947 0.71901 0.72193 0.0
O60 O 0.2136 0.71934 0.5249 0.0
O61 O 0.16775 0.71301 0.48267 0.0
C62 C 0.1979 0.72353 0.4717 0.0
C63 C 0.06087 0.65607 0.64593 0.0
C64 C 0.16975 0.73479 0.72384 0.0
C65 C 0.14509 0.63424 0.65641 0.0
O66 O 0.12617 0.64114 0.69098 0.0
O67 O 0.16411 0.65271 0.60566 0.0
O68 O 0.07172 0.65725 0.71287 0.0
O69 O 0.0809 0.66757 0.59015 0.0
O70 O 0.45618 0.191 0.01379 0.0
Cd71 Cd 0.46971 0.17592 0.91882 0.0
Cd72 Cd 0.43648 0.1193 0.00215 0.0
O73 O 0.41819 0.14417 0.05605 0.0
O74 O 0.48659 0.21399 0.85104 0.0
O75 O 0.44389 0.16745 0.82349 0.0
C76 C 0.46332 0.19701 0.80584 0.0
C77 C 0.40302 0.06466 0.98769 0.0
C78 C 0.43318 0.17446 0.05898 0.0
C79 C 0.50789 0.1491 0.98221 0.0
O80 O 0.48333 0.13158 0.02232 0.0
O81 O 0.5067 0.16641 0.92953 0.0
O82 O 0.41376 0.077 0.05302 0.0
O83 O 0.41026 0.08347 0.92988 0.0
O84 O 0.52926 0.72489 0.28562 0.0
Cd85 Cd 0.51713 0.69731 0.38191 0.0
Cd86 Cd 0.54975 0.67344 0.29726 0.0
O87 O 0.56605 0.71525 0.23823 0.0
O88 O 0.49964 0.71848 0.44807 0.0
O89 O 0.54291 0.71582 0.47692 0.0
C90 C 0.52295 0.72542 0.49365 0.0
C91 C 0.5844 0.65402 0.31721 0.0
C92 C 0.55103 0.73058 0.23723 0.0
C93 C 0.4789 0.63122 0.32364 0.0
O94 O 0.50298 0.6376 0.28226 0.0
O95 O 0.48049 0.65069 0.3742 0.0
O96 O 0.57328 0.65372 0.25101 0.0
O97 O 0.57703 0.66673 0.37248 0.0
O98 O 0.79489 0.52305 0.6426 0.0
Cd99 Cd 0.81189 0.51205 0.73755 0.0
Cd100 Cd 0.86876 0.54701 0.6461 0.0
O101 O 0.84023 0.56128 0.59385 0.0
O102 O 0.77354 0.4935 0.80524 0.0
O103 O 0.81868 0.53776 0.83289 0.0
C104 C 0.7894 0.51719 0.8503 0.0
C105 C 0.92346 0.58294 0.64302 0.0
C106 C 0.80993 0.54517 0.5944 0.0
C107 C 0.84148 0.47585 0.67501 0.0
O108 O 0.85848 0.50027 0.63404 0.0
O109 O 0.82352 0.47655 0.72697 0.0
O110 O 0.90805 0.56896 0.58265 0.0
O111 O 0.90768 0.57749 0.7057 0.0
O112 O 0.26185 0.79918 0.99148 0.0
Cd113 Cd 0.29205 0.81233 0.08292 0.0
Cd114 Cd 0.31659 0.87192 -0.00264 0.0
O115 O 0.2725 0.84656 0.9488 0.0
O116 O 0.27057 0.77274 0.14619 0.0
O117 O 0.27796 0.81948 0.18546 0.0
C118 C 0.26668 0.7893 0.19802 0.0
C119 C 0.33811 0.92712 -0.00502 0.0
C120 C 0.25598 0.81632 0.94713 0.0
C121 C 0.35676 0.83933 0.01364 0.0
O122 O 0.35067 0.85863 0.9784 0.0
O123 O 0.33779 0.82062 0.06414 0.0
O124 O 0.33502 0.91126 0.93415 0.0
O125 O 0.32841 0.91166 0.05812 0.0
O126 O 0.45436 0.2636 0.33087 0.0
Cd127 Cd 0.46783 0.29226 0.42522 0.0
Cd128 Cd 0.43398 0.31472 0.34539 0.0
O129 O 0.41614 0.27212 0.28956 0.0
O130 O 0.48525 0.27136 0.49195 0.0
O131 O 0.44252 0.27503 0.52192 0.0
C132 C 0.46218 0.26508 0.53843 0.0
C133 C 0.39979 0.33447 0.3689 0.0
C134 C 0.43144 0.25711 0.28596 0.0
C135 C 0.50544 0.35699 0.3598 0.0
O136 O 0.48044 0.34996 0.322 0.0
O137 O 0.50476 0.33859 0.41214 0.0
O138 O 0.4095 0.33369 0.30145 0.0
O139 O 0.40853 0.32291 0.42381 0.0
O140 O 0.18957 0.46851 0.68303 0.0
Cd141 Cd 0.16912 0.47532 0.77789 0.0
Cd142 Cd 0.11752 0.44668 0.68073 0.0
O143 O 0.14653 0.43628 0.61721 0.0
O144 O 0.20538 0.4899 0.84932 0.0
O145 O 0.15923 0.44499 0.86578 0.0
C146 C 0.18821 0.46409 0.88747 0.0
C147 C 0.0639 0.40865 0.69171 0.0
C148 C 0.17656 0.45055 0.62641 0.0
C149 C 0.14336 0.51592 0.72312 0.0
O150 O 0.12697 0.49326 0.67749 0.0
O151 O 0.15957 0.51255 0.77515 0.0
O152 O 0.0757 0.42351 0.62895 0.0
O153 O 0.08274 0.41458 0.74866 0.0
O154 O 0.71979 0.18935 0.98853 0.0
Cd155 Cd 0.69234 0.17145 0.08428 0.0
Cd156 Cd 0.66534 0.11769 0.98322 0.0
O157 O 0.70455 0.14612 0.91852 0.0
O158 O 0.71496 0.20926 0.15169 0.0
O159 O 0.71225 0.16286 0.1752 0.0
C160 C 0.72282 0.19242 0.19331 0.0
C161 C 0.64715 0.06325 0.98579 0.0
C162 C 0.72263 0.17581 0.92981 0.0
C163 C 0.62524 0.14696 0.03254 0.0
O164 O 0.62961 0.12908 0.98709 0.0
O165 O 0.64616 0.16373 0.0816 0.0
O166 O 0.64438 0.07689 0.92609 0.0
O167 O 0.6612 0.08062 0.04429 0.0
C168 C 0.33327 0.35478 0.36117 0.0
C169 C 0.35157 0.38831 0.37323 0.0
C170 C 0.39839 0.38349 0.40467 0.0
C171 C 0.3815 0.35102 0.38215 0.0
N172 N 0.33366 0.30554 0.33464 0.0
N173 N 0.40318 0.43563 0.39276 0.0
C174 C 0.34908 0.33653 0.35931 0.0
C175 C 0.38452 0.40298 0.39206 0.0
N176 N 0.30076 0.34028 0.35406 0.0
N177 N 0.42785 0.39582 0.43734 0.0
H178 H 0.3945 0.45104 0.38011 0.0
H179 H 0.42799 0.44753 0.398 0.0
H180 H 0.43885 0.38223 0.44703 0.0
H181 H 0.43993 0.41852 0.46157 0.0
H182 H 0.28578 0.31554 0.35256 0.0
H183 H 0.28837 0.35288 0.35631 0.0
H184 H 0.31133 0.29477 0.30872 0.0
H185 H 0.34404 0.29104 0.33673 0.0
C186 C 0.9777 0.38634 0.7109 0.0
C187 C 0.96187 0.35412 0.68528 0.0
C188 C 0.01359 0.35663 0.66876 0.0
C189 C 0.02898 0.38802 0.69906 0.0
N190 N 0.02571 0.43026 0.76422 0.0
N191 N 0.96383 0.30649 0.653 0.0
C192 C 0.01097 0.40195 0.72553 0.0
C193 C 0.97954 0.33859 0.66784 0.0
N194 N 0.96143 0.40281 0.71641 0.0
N195 N 0.03154 0.34436 0.63972 0.0
H196 H 0.93892 0.29251 0.65277 0.0
H197 H 0.97534 0.29318 0.64722 0.0
H198 H 0.05648 0.35638 0.64311 0.0
H199 H 0.02191 0.32318 0.60883 0.0
H200 H 0.97257 0.42732 0.7268 0.0
H201 H 0.93731 0.39292 0.70273 0.0
H202 H 0.01326 0.43992 0.79151 0.0
H203 H 0.0502 0.44257 0.77534 0.0
C204 C 0.58215 0.97709 0.00436 0.0
C205 C 0.59737 0.96102 0.97252 0.0
C206 C 0.6463 0.01245 0.95115 0.0
C207 C 0.63176 0.02809 0.98817 0.0
N208 N 0.58827 0.02539 0.06207 0.0
N209 N 0.64535 0.9624 0.92727 0.0
C210 C 0.60049 0.01038 0.01896 0.0
C211 C 0.62987 0.9784 0.94888 0.0
N212 N 0.54977 0.96091 0.01662 0.0
N213 N 0.6756 0.03017 0.91735 0.0
H214 H 0.63415 0.93748 0.92557 0.0
H215 H 0.66989 0.97364 0.91697 0.0
H216 H 0.68897 0.05508 0.92134 0.0
H217 H 0.68583 0.02042 0.88188 0.0
H218 H 0.53683 0.97209 0.03184 0.0
H219 H 0.53514 0.9367 0.00428 0.0
H220 H 0.56697 0.01317 0.09269 0.0
H221 H 0.60078 0.04992 0.07281 0.0
C222 C 0.64999 0.63256 0.29955 0.0
C223 C 0.6326 0.59999 0.32239 0.0
C224 C 0.58734 0.60654 0.36095 0.0
C225 C 0.60299 0.63768 0.32899 0.0
N226 N 0.64818 0.68022 0.26356 0.0
N227 N 0.58266 0.55421 0.3623 0.0
C228 C 0.63408 0.6507 0.29707 0.0
C229 C 0.60079 0.58653 0.35037 0.0
N230 N 0.68192 0.64643 0.28302 0.0
N231 N 0.55947 0.59595 0.40088 0.0
H232 H 0.59107 0.53835 0.35246 0.0
H233 H 0.55825 0.5426 0.37452 0.0
H234 H 0.54859 0.60975 0.40907 0.0
H235 H 0.54874 0.57472 0.43195 0.0
H236 H 0.69664 0.67087 0.2735 0.0
H237 H 0.69441 0.63394 0.28511 0.0
H238 H 0.66904 0.68944 0.2312 0.0
H239 H 0.63803 0.69495 0.26503 0.0
C240 C 0.97683 0.58849 0.61577 0.0
C241 C 0.9587 0.6027 0.64051 0.0
C242 C 0.00805 0.65346 0.66292 0.0
C243 C 0.02597 0.63964 0.63436 0.0
N244 N 0.02765 0.59636 0.56981 0.0
N245 N 0.95615 0.64985 0.67439 0.0
C246 C 0.01038 0.60797 0.60581 0.0
C247 C 0.97404 0.63555 0.66048 0.0
N248 N 0.96228 0.55602 0.60636 0.0
N249 N 0.02362 0.68352 0.69329 0.0
H250 H 0.93119 0.63746 0.67263 0.0
H251 H 0.96594 0.67441 0.68162 0.0
H252 H 0.04848 0.69805 0.69156 0.0
H253 H 0.0121 0.69348 0.72339 0.0
H254 H 0.97479 0.54389 0.59687 0.0
H255 H 0.93788 0.54061 0.61535 0.0
H256 H 0.01719 0.5747 0.54074 0.0
H257 H 0.05243 0.60958 0.563 0.0
C258 C 0.38572 0.97987 0.96293 0.0
C259 C 0.35399 0.96238 0.99176 0.0
C260 C 0.35344 0.01231 0.01323 0.0
C261 C 0.38442 0.02954 0.98022 0.0
N262 N 0.42769 0.02974 0.91045 0.0
N263 N 0.30531 0.96086 0.03151 0.0
C264 C 0.39971 0.01328 0.95039 0.0
C265 C 0.33715 0.97827 0.01354 0.0
N266 N 0.40317 0.96488 0.95162 0.0
N267 N 0.33978 0.02855 0.04494 0.0
H268 H 0.29256 0.93589 0.03188 0.0
H269 H 0.29087 0.97099 0.04006 0.0
H270 H 0.35008 0.05337 0.04122 0.0
H271 H 0.31911 0.01765 0.0781 0.0
H272 H 0.42752 0.977 0.93878 0.0
H273 H 0.39418 0.94058 0.9623 0.0
H274 H 0.43816 0.01865 0.8806 0.0
H275 H 0.43908 0.05437 0.90128 0.0
C276 C 0.22976 0.45236 0.93565 0.0
C277 C 0.20284 0.45604 0.95091 0.0
C278 C 0.20967 0.45175 0.08667 0.0
C279 C 0.2397 0.45402 0.07163 0.0
N280 N 0.27938 0.45764 0.98235 0.0
N281 N 0.16723 0.4603 0.0404 0.0
C282 C 0.24985 0.45409 -0.00378 0.0
C283 C 0.19243 0.45549 0.02628 0.0
N284 N 0.23579 0.44676 0.86319 0.0
N285 N 0.19754 0.44558 0.15872 0.0
H286 H 0.15376 0.46269 -0.00244 0.0
H287 H 0.16094 0.46401 0.09438 0.0
H288 H 0.20946 0.44226 0.20393 0.0
H289 H 0.17449 0.44069 0.17236 0.0
H290 H 0.25323 0.44087 0.84922 0.0
H291 H 0.2212 0.44491 0.81774 0.0
H292 H 0.28971 0.46178 0.92865 0.0
H293 H 0.29459 0.45856 0.02525 0.0
C294 C 0.79366 0.25481 0.3036 0.0
C295 C 0.78351 0.24448 0.37887 0.0
C296 C 0.73478 0.19749 0.33269 0.0
C297 C 0.74497 0.20773 0.25737 0.0
N298 N 0.78758 0.24077 0.1705 0.0
N299 N 0.74951 0.20207 0.46502 0.0
C300 C 0.77558 0.23474 0.24267 0.0
C301 C 0.75565 0.2145 0.39333 0.0
N302 N 0.81951 0.28443 0.2902 0.0
N303 N 0.70456 0.17272 0.34664 0.0
H304 H 0.76465 0.2137 0.51051 0.0
H305 H 0.73131 0.17897 0.47793 0.0
H306 H 0.68856 0.15957 0.3038 0.0
H307 H 0.69447 0.16668 0.4006 0.0
H308 H 0.82574 0.29483 0.23663 0.0
H309 H 0.83354 0.29967 0.33336 0.0
H310 H 0.81095 0.25825 0.15713 0.0
H311 H 0.77519 0.22617 0.12478 0.0
C312 C 0.52773 0.75052 0.69996 0.0
C313 C 0.52505 0.7784 0.69142 0.0
C314 C 0.52926 0.77524 0.55379 0.0
C315 C 0.52675 0.74475 0.56213 0.0
N316 N 0.52008 0.70148 0.64312 0.0
N317 N 0.51988 0.81572 0.60983 0.0
C318 C 0.52537 0.73197 0.63523 0.0
C319 C 0.52524 0.79059 0.61824 0.0
N320 N 0.53335 0.74222 0.76985 0.0
N321 N 0.53626 0.78985 0.48445 0.0
H322 H 0.51655 0.8275 0.65544 0.0
H323 H 0.51608 0.82322 0.55755 0.0
H324 H 0.53996 0.77955 0.43628 0.0
H325 H 0.54154 0.81339 0.47618 0.0
H326 H 0.53878 0.72408 0.77849 0.0
H327 H 0.53578 0.75554 0.8184 0.0
H328 H 0.51511 0.68961 0.69496 0.0
H329 H 0.51801 0.68695 0.59729 0.0
C330 C 0.72615 0.52015 0.97323 0.0
C331 C 0.73797 0.52039 0.04671 0.0
C332 C 0.78469 0.52004 0.99175 0.0
C333 C 0.77348 0.52102 0.9183 0.0
N334 N 0.73798 0.52991 0.83918 0.0
N335 N 0.78192 0.52843 0.12621 0.0
C336 C 0.74554 0.52351 0.90909 0.0
C337 C 0.76834 0.52275 0.05603 0.0
N338 N 0.69579 0.51505 0.96435 0.0
N339 N 0.80994 0.51489 0.00035 0.0
H340 H 0.77086 0.53103 0.17442 0.0
H341 H 0.80536 0.53365 0.13551 0.0
H342 H 0.82256 0.51272 0.95478 0.0
H343 H 0.81679 0.51019 0.05244 0.0
H344 H 0.68455 0.5109 0.91202 0.0
H345 H 0.68073 0.51233 0.00975 0.0
H346 H 0.71983 0.53526 0.83012 0.0
H347 H 0.75188 0.53297 0.7911 0.0
C348 C 0.23603 0.73192 0.36513 0.0
C349 C 0.21449 0.74002 0.40034 0.0
C350 C 0.22478 0.7786 0.29832 0.0
C351 C 0.24954 0.77361 0.26951 0.0
N352 N 0.28388 0.75102 0.28896 0.0
N353 N 0.19435 0.77696 0.4091 0.0
C354 C 0.25669 0.75186 0.30682 0.0
C355 C 0.21048 0.76502 0.36945 0.0
N356 N 0.23596 0.70447 0.38488 0.0
N357 N 0.21373 0.79493 0.25667 0.0
H358 H 0.18478 0.76892 0.46295 0.0
H359 H 0.19356 0.79725 0.39194 0.0
H360 H 0.22231 0.80398 0.20273 0.0
H361 H 0.19362 0.79639 0.27231 0.0
H362 H 0.24925 0.69616 0.35581 0.0
H363 H 0.2199 0.68808 0.42408 0.0
H364 H 0.29151 0.73758 0.31955 0.0
H365 H 0.30072 0.76652 0.2497 0.0
C366 C 0.45911 0.19987 0.66426 0.0
C367 C 0.45869 0.21193 0.73723 0.0
C368 C 0.45895 0.2585 0.68021 0.0
C369 C 0.45808 0.24579 0.60729 0.0
N370 N 0.44879 0.20059 0.53038 0.0
N371 N 0.44965 0.24794 0.81471 0.0
C372 C 0.45551 0.21525 0.59949 0.0
C373 C 0.45595 0.2398 0.7452 0.0
N374 N 0.46465 0.17482 0.65634 0.0
N375 N 0.46434 0.28903 0.68775 0.0
H376 H 0.44659 0.23442 0.86335 0.0
H377 H 0.44422 0.26612 0.82282 0.0
H378 H 0.46698 0.3037 0.64173 0.0
H379 H 0.46888 0.30079 0.73957 0.0
H380 H 0.46888 0.16746 0.60423 0.0
H381 H 0.46775 0.16304 0.70217 0.0
H382 H 0.44348 0.17701 0.52262 0.0
H383 H 0.44528 0.21083 0.48197 0.0
C384 C 0.1951 0.41976 0.54703 0.0
C385 C 0.19719 0.44926 0.56679 0.0
C386 C 0.24367 0.47827 0.48432 0.0
C387 C 0.23972 0.44864 0.45874 0.0
N388 N 0.20867 0.39092 0.45549 0.0
N389 N 0.21829 0.50556 0.54107 0.0
C390 C 0.21458 0.41922 0.48721 0.0
C391 C 0.21997 0.47825 0.53157 0.0
N392 N 0.17546 0.3926 0.58712 0.0
N393 N 0.27074 0.50641 0.46635 0.0
H394 H 0.20062 0.50642 0.57362 0.0
H395 H 0.23236 0.52649 0.51034 0.0
H396 H 0.28943 0.50756 0.4339 0.0
H397 H 0.27619 0.52832 0.49021 0.0
H398 H 0.17555 0.37117 0.58049 0.0
H399 H 0.16091 0.39214 0.63158 0.0
H400 H 0.18862 0.36898 0.46871 0.0
H401 H 0.22232 0.38964 0.41105 0.0
C402 C 0.79079 0.21073 0.78655 0.0
C403 C 0.7891 0.23798 0.76315 0.0
C404 C 0.74105 0.22103 0.83963 0.0
C405 C 0.74483 0.19593 0.87002 0.0
N406 N 0.77555 0.16904 0.88102 0.0
N407 N 0.7673 0.27319 0.78094 0.0
C408 C 0.77028 0.19122 0.84575 0.0
C409 C 0.76553 0.24432 0.79341 0.0
N410 N 0.81122 0.20299 0.75077 0.0
N411 N 0.71356 0.22203 0.85269 0.0
H412 H 0.78564 0.29167 0.74974 0.0
H413 H 0.75251 0.28009 0.80831 0.0
H414 H 0.69439 0.20473 0.88439 0.0
H415 H 0.70837 0.23806 0.82538 0.0
H416 H 0.81111 0.1816 0.7601 0.0
H417 H 0.82651 0.21676 0.707 0.0
H418 H 0.79574 0.16694 0.87111 0.0
H419 H 0.76104 0.1544 0.9248 0.0
C420 C 0.55971 0.77023 0.04592 0.0
C421 C 0.5562 0.79643 0.0692 0.0
C422 C 0.56179 0.78484 0.20097 0.0
C423 C 0.55791 0.75492 0.17841 0.0
N424 N 0.54946 0.71727 0.07775 0.0
N425 N 0.54987 0.82658 0.17124 0.0
C426 C 0.55639 0.74718 0.10035 0.0
C427 C 0.55667 0.80362 0.14735 0.0
N428 N 0.56635 0.76749 0.97192 0.0
N429 N 0.57034 0.79526 0.27362 0.0
H430 H 0.54443 0.84014 0.13479 0.0
H431 H 0.54656 0.83002 0.22807 0.0
H432 H 0.57506 0.78228 0.31377 0.0
H433 H 0.57613 0.81815 0.29135 0.0
H434 H 0.57183 0.75028 0.95309 0.0
H435 H 0.56986 0.78464 0.93119 0.0
H436 H 0.54464 0.70971 0.02166 0.0
H437 H 0.54554 0.69894 0.11507 0.0
C438 C 0.74142 0.54924 0.50549 0.0
C439 C 0.74873 0.54985 0.42729 0.0
C440 C 0.79799 0.54981 0.45816 0.0
C441 C 0.79153 0.55092 0.53633 0.0
N442 N 0.76258 0.56178 0.63256 0.0
N443 N 0.7884 0.56091 0.33045 0.0
C444 C 0.76503 0.55403 0.55937 0.0
C445 C 0.77856 0.55355 0.40404 0.0
N446 N 0.71143 0.5419 0.52892 0.0
N447 N 0.82101 0.54292 0.4351 0.0
H448 H 0.77505 0.56482 0.28986 0.0
H449 H 0.8112 0.56658 0.31199 0.0
H450 H 0.83502 0.53841 0.4722 0.0
H451 H 0.82402 0.53852 0.37875 0.0
H452 H 0.70427 0.53787 0.5855 0.0
H453 H 0.69267 0.53666 0.49202 0.0
H454 H 0.74511 0.56703 0.65075 0.0
H455 H 0.78011 0.56641 0.67291 0.0
C456 C 0.21274 0.78917 0.75906 0.0
C457 C 0.18649 0.75949 0.78209 0.0
C458 C 0.2004 0.77478 0.91432 0.0
C459 C 0.23044 0.80031 0.89045 0.0
N460 N 0.2668 0.82991 0.78735 0.0
N461 N 0.1567 0.72239 0.88369 0.0
C462 C 0.23695 0.80754 0.81211 0.0
C463 C 0.18017 0.75198 0.86036 0.0
N464 N 0.21465 0.79952 0.68622 0.0
N465 N 0.19132 0.77232 0.98854 0.0
H466 H 0.14169 0.70423 0.84699 0.0
H467 H 0.15392 0.71486 0.9399 0.0
H468 H 0.20549 0.78915 0.02912 0.0
H469 H 0.16846 0.75572 0.00777 0.0
H470 H 0.23191 0.82229 0.66803 0.0
H471 H 0.19684 0.78661 0.64644 0.0
H472 H 0.27329 0.83323 0.73032 0.0
H473 H 0.2861 0.84308 0.82308 0.0
C474 C 0.42504 0.18395 0.19522 0.0
C475 C 0.42498 0.19113 0.11722 0.0
C476 C 0.42446 0.24012 0.14946 0.0
C477 C 0.42381 0.23257 0.22743 0.0
N478 N 0.41266 0.19261 0.32297 0.0
N479 N 0.4139 0.21977 0.02128 0.0
C480 C 0.42034 0.20278 0.2497 0.0
C481 C 0.42099 0.21712 0.09479 0.0
N482 N 0.43199 0.16099 0.21796 0.0
N483 N 0.43079 0.26987 0.12699 0.0
H484 H 0.41048 0.20275 0.98031 0.0
H485 H 0.40803 0.23677 0.00318 0.0
H486 H 0.43466 0.28814 0.1644 0.0
H487 H 0.43508 0.27741 0.07073 0.0
H488 H 0.43578 0.15759 0.27438 0.0
H489 H 0.43697 0.14727 0.18074 0.0
H490 H 0.40714 0.16981 0.34087 0.0
H491 H 0.40841 0.20573 0.36382 0.0
C492 C 0.41979 0.54256 0.29625 0.0
C493 C 0.39043 0.54269 0.29444 0.0
C494 C 0.41979 0.60127 0.29931 0.0
C495 C 0.44858 0.60078 0.3122 0.0
N496 N 0.47502 0.57025 0.33628 0.0
N497 N 0.36204 0.57199 0.3084 0.0
C498 C 0.4484 0.57123 0.31401 0.0
C499 C 0.39023 0.572 0.29946 0.0
N500 N 0.42047 0.51524 0.27908 0.0
N501 N 0.42068 0.62954 0.28429 0.0
H502 H 0.33979 0.55113 0.31109 0.0
H503 H 0.36097 0.5926 0.32057 0.0
H504 H 0.44194 0.65146 0.28136 0.0
H505 H 0.40069 0.63077 0.26697 0.0
H506 H 0.44164 0.51461 0.27244 0.0
H507 H 0.40009 0.49395 0.2637 0.0
H508 H 0.47509 0.54897 0.34616 0.0
H509 H 0.49619 0.59055 0.35236 0.0
C510 C 0.87214 0.44677 0.6596 0.0
C511 C 0.84234 0.44606 0.66028 0.0
C512 C 0.81441 0.38833 0.63632 0.0
C513 C 0.84439 0.38975 0.62772 0.0
N514 N 0.90187 0.42154 0.6157 0.0
N515 N 0.78575 0.41759 0.6323 0.0
C516 C 0.87332 0.41936 0.63482 0.0
C517 C 0.8136 0.41724 0.64383 0.0
N518 N 0.89909 0.4731 0.68564 0.0
N519 N 0.78676 0.35942 0.64107 0.0
H520 H 0.78418 0.43838 0.63519 0.0
H521 H 0.76495 0.39784 0.61237 0.0
H522 H 0.78618 0.33753 0.63787 0.0
H523 H 0.76474 0.35715 0.65562 0.0
H524 H 0.92079 0.47367 0.69341 0.0
H525 H 0.89905 0.49328 0.70681 0.0
H526 H 0.92336 0.44319 0.61278 0.0
H527 H 0.90361 0.40215 0.59527 0.0
C528 C 0.44374 0.86867 0.96274 0.0
C529 C 0.44368 0.83935 0.95458 0.0
C530 C 0.38573 0.80986 0.97707 0.0
C531 C 0.38668 0.83905 -0.00483 0.0
N532 N 0.41844 0.89569 0.02167 0.0
N533 N 0.41553 0.78179 0.9703 0.0
C534 C 0.41623 0.86835 0.99264 0.0
C535 C 0.41492 0.80981 0.96618 0.0
N536 N 0.46959 0.89677 0.93931 0.0
N537 N 0.35706 0.78243 0.96698 0.0
H538 H 0.4365 0.78065 0.96535 0.0
H539 H 0.39571 0.76013 0.98642 0.0
H540 H 0.33506 0.78154 0.97152 0.0
H541 H 0.35526 0.76134 0.94627 0.0
H542 H 0.4696 0.91839 0.93755 0.0
H543 H 0.4897 0.8979 0.91383 0.0
H544 H 0.44014 0.91695 0.02756 0.0
H545 H 0.39925 0.89627 0.04756 0.0
C546 C 0.56443 0.44363 0.30847 0.0
C547 C 0.59345 0.4429 0.30316 0.0
C548 C 0.5639 0.38499 0.32541 0.0
C549 C 0.53579 0.38657 0.34095 0.0
N550 N 0.51106 0.41895 0.36186 0.0
N551 N 0.62173 0.41382 0.32281 0.0
C552 C 0.53649 0.41634 0.33645 0.0
C553 C 0.5935 0.41383 0.31596 0.0
N554 N 0.5632 0.46995 0.28436 0.0
N555 N 0.56224 0.35603 0.31646 0.0
H556 H 0.64409 0.43451 0.31915 0.0
H557 H 0.62291 0.39375 0.33996 0.0
H558 H 0.54087 0.33425 0.31999 0.0
H559 H 0.58153 0.35376 0.29754 0.0
H560 H 0.54193 0.47052 0.28034 0.0
H561 H 0.58286 0.49 0.26072 0.0
H562 H 0.51167 0.44079 0.36684 0.0
H563 H 0.4906 0.39982 0.38547 0.0
C564 C 0.17382 0.60496 0.69445 0.0
C565 C 0.14482 0.60421 0.67605 0.0
C566 C 0.11492 0.54693 0.70559 0.0
C567 C 0.14415 0.54681 0.71279 0.0
N568 N 0.20184 0.57511 0.69861 0.0
N569 N 0.08817 0.57291 0.64956 0.0
C570 C 0.1738 0.57567 0.70332 0.0
C571 C 0.1154 0.57477 0.67782 0.0
N572 N 0.20119 0.63352 0.70622 0.0
N573 N 0.08674 0.52075 0.7272 0.0
H574 H 0.08769 0.59236 0.62526 0.0
H575 H 0.06686 0.55133 0.6428 0.0
H576 H 0.08561 0.50033 0.75051 0.0
H577 H 0.06509 0.52067 0.72973 0.0
H578 H 0.22213 0.63512 0.7271 0.0
H579 H 0.20207 0.65555 0.70302 0.0
H580 H 0.22357 0.59513 0.68372 0.0
H581 H 0.20304 0.55415 0.70188 0.0
C582 C 0.59623 0.1778 0.01406 0.0
C583 C 0.59525 0.1482 0.02646 0.0
C584 C 0.53767 0.11934 0.00197 0.0
C585 C 0.53804 0.14894 -0.00281 0.0
N586 N 0.56666 0.20618 0.01724 0.0
N587 N 0.56381 0.09143 0.05085 0.0
C588 C 0.56703 0.17818 0.00865 0.0
C589 C 0.56556 0.11914 0.02613 0.0
N590 N 0.62485 0.20533 0.00357 0.0
N591 N 0.51127 0.09154 0.97991 0.0
H592 H 0.58359 0.09063 0.07178 0.0
H593 H 0.54223 0.07014 0.05837 0.0
H594 H 0.49081 0.09074 0.95831 0.0
H595 H 0.51099 0.06985 0.97531 0.0
H596 H 0.62655 0.2268 0.98627 0.0
H597 H 0.64687 0.20616 0.00484 0.0
H598 H 0.58674 0.22757 0.03325 0.0
H599 H 0.54568 0.20743 0.01626 0.0
loop_
_geom_bond_atom_site_label_1
_geom_bond_atom_site_label_2
_geom_bond_distance
_geom_bond_site_symmetry_2
_ccdc_geom_bond_type
O0 Cd1 2.223 . S
O0 C8 1.315 . S
Cd1 O0 2.223 . S
Cd1 O4 2.297 . S
Cd1 O5 2.439 . S
Cd1 O11 2.240 . S
Cd2 O3 2.240 . S
Cd2 O10 2.223 . S
Cd2 O12 2.297 . S
Cd2 O13 2.439 . S
O3 Cd2 2.240 . S
O3 C8 1.279 . S
O4 Cd1 2.297 . S
O4 C6 1.247 . S
O5 Cd1 2.439 . S
O5 C6 1.208 . S
C6 O4 1.247 . S
C6 O5 1.208 . S
C7 O12 1.247 . S
C7 O13 1.208 . S
C8 O0 1.315 . S
C8 O3 1.279 . S
C9 O10 1.315 . S
C9 O11 1.279 . S
O10 Cd2 2.223 . S
O10 C9 1.315 . S
O11 Cd1 2.240 . S
O11 C9 1.279 . S
O12 Cd2 2.297 . S
O12 C7 1.247 . S
O13 Cd2 2.439 . S
O13 C7 1.208 . S
O14 Cd15 2.223 . S
O14 C22 1.315 . S
Cd15 O14 2.223 . S
Cd15 O18 2.297 . S
Cd15 O19 2.439 . S
Cd15 O25 2.240 . S
Cd16 O17 2.240 . S
Cd16 O24 2.223 . S
Cd16 O26 2.297 . S
Cd16 O27 2.439 . S
O17 Cd16 2.240 . S
O17 C22 1.279 . S
O18 Cd15 2.297 . S
O18 C20 1.247 . S
O19 Cd15 2.439 . S
O19 C20 1.208 . S
C20 O18 1.247 . S
C20 O19 1.208 . S
C21 O26 1.247 . S
C21 O27 1.208 . S
C22 O14 1.315 . S
C22 O17 1.279 . S
C23 O24 1.315 . S
C23 O25 1.279 . S
O24 Cd16 2.223 . S
O24 C23 1.315 . S
O25 Cd15 2.240 . S
O25 C23 1.279 . S
O26 Cd16 2.297 . S
O26 C21 1.247 . S
O27 Cd16 2.439 . S
O27 C21 1.208 . S
O28 Cd29 2.223 . S
O28 C36 1.315 1_556 S
Cd29 O28 2.223 . S
Cd29 O32 2.297 . S
Cd29 O33 2.439 . S
Cd29 O39 2.240 . S
Cd30 O31 2.240 . S
Cd30 O38 2.223 . S
Cd30 O40 2.297 . S
Cd30 O41 2.439 1_554 S
O31 Cd30 2.240 . S
O31 C36 1.279 . S
O32 Cd29 2.297 . S
O32 C34 1.247 . S
O33 Cd29 2.439 . S
O33 C34 1.208 . S
C34 O32 1.247 . S
C34 O33 1.208 . S
C35 O40 1.247 1_556 S
C35 O41 1.208 . S
C36 O28 1.315 1_554 S
C36 O31 1.279 . S
C37 O38 1.315 . S
C37 O39 1.279 1_554 S
O38 Cd30 2.223 . S
O38 C37 1.315 . S
O39 Cd29 2.240 . S
O39 C37 1.279 1_556 S
O40 Cd30 2.297 . S
O40 C35 1.247 1_554 S
O41 Cd30 2.439 1_556 S
O41 C35 1.208 . S
O42 Cd43 2.223 . S
O42 C50 1.315 . S
Cd43 O42 2.223 . S
Cd43 O46 2.297 . S
Cd43 O47 2.439 . S
Cd43 O53 2.240 . S
Cd44 O45 2.240 . S
Cd44 O52 2.223 . S
Cd44 O54 2.297 . S
Cd44 O55 2.439 . S
O45 Cd44 2.240 . S
O45 C50 1.279 . S
O46 Cd43 2.297 . S
O46 C48 1.247 . S
O47 Cd43 2.439 . S
O47 C48 1.208 . S
C48 O46 1.247 . S
C48 O47 1.208 . S
C49 O54 1.247 . S
C49 O55 1.208 . S
C50 O42 1.315 . S
C50 O45 1.279 . S
C51 O52 1.315 . S
C51 O53 1.279 . S
O52 Cd44 2.223 . S
O52 C51 1.315 . S
O53 Cd43 2.240 . S
O53 C51 1.279 . S
O54 Cd44 2.297 . S
O54 C49 1.247 . S
O55 Cd44 2.439 . S
O55 C49 1.208 . S
O56 Cd57 2.223 . S
O56 C64 1.315 . S
Cd57 O56 2.223 . S
Cd57 O60 2.297 . S
Cd57 O61 2.439 . S
Cd57 O67 2.240 . S
Cd58 O59 2.240 . S
Cd58 O66 2.223 . S
Cd58 O68 2.297 . S
Cd58 O69 2.439 . S
O59 Cd58 2.240 . S
O59 C64 1.279 . S
O60 Cd57 2.297 . S
O60 C62 1.247 . S
O61 Cd57 2.439 . S
O61 C62 1.208 . S
C62 O60 1.247 . S
C62 O61 1.208 . S
C63 O68 1.247 . S
C63 O69 1.208 . S
C64 O56 1.315 . S
C64 O59 1.279 . S
C65 O66 1.315 . S
C65 O67 1.279 . S
O66 Cd58 2.223 . S
O66 C65 1.315 . S
O67 Cd57 2.240 . S
O67 C65 1.279 . S
O68 Cd58 2.297 . S
O68 C63 1.247 . S
O69 Cd58 2.439 . S
O69 C63 1.208 . S
O70 Cd71 2.223 . S
O70 C78 1.315 1_556 S
Cd71 O70 2.223 . S
Cd71 O74 2.297 . S
Cd71 O75 2.439 . S
Cd71 O81 2.240 . S
Cd72 O73 2.240 . S
Cd72 O80 2.223 . S
Cd72 O82 2.297 . S
Cd72 O83 2.439 1_554 S
O73 Cd72 2.240 . S
O73 C78 1.279 . S
O74 Cd71 2.297 . S
O74 C76 1.247 . S
O75 Cd71 2.439 . S
O75 C76 1.208 . S
C76 O74 1.247 . S
C76 O75 1.208 . S
C77 O82 1.247 1_556 S
C77 O83 1.208 . S
C78 O70 1.315 1_554 S
C78 O73 1.279 . S
C79 O80 1.315 . S
C79 O81 1.279 1_554 S
O80 Cd72 2.223 . S
O80 C79 1.315 . S
O81 Cd71 2.240 . S
O81 C79 1.279 1_556 S
O82 Cd72 2.297 . S
O82 C77 1.247 1_554 S
O83 Cd72 2.439 1_556 S
O83 C77 1.208 . S
O84 Cd85 2.223 . S
O84 C92 1.315 . S
Cd85 O84 2.223 . S
Cd85 O88 2.297 . S
Cd85 O89 2.439 . S
Cd85 O95 2.240 . S
Cd86 O87 2.240 . S
Cd86 O94 2.223 . S
Cd86 O96 2.297 . S
Cd86 O97 2.439 . S
O87 Cd86 2.240 . S
O87 C92 1.279 . S
O88 Cd85 2.297 . S
O88 C90 1.247 . S
O89 Cd85 2.439 . S
O89 C90 1.208 . S
C90 O88 1.247 . S
C90 O89 1.208 . S
C91 O96 1.247 . S
C91 O97 1.208 . S
C92 O84 1.315 . S
C92 O87 1.279 . S
C93 O94 1.315 . S
C93 O95 1.279 . S
O94 Cd86 2.223 . S
O94 C93 1.315 . S
O95 Cd85 2.240 . S
O95 C93 1.279 . S
O96 Cd86 2.297 . S
O96 C91 1.247 . S
O97 Cd86 2.439 . S
O97 C91 1.208 . S
O98 Cd99 2.223 . S
O98 C106 1.315 . S
Cd99 O98 2.223 . S
Cd99 O102 2.297 . S
Cd99 O103 2.439 . S
Cd99 O109 2.240 . S
Cd100 O101 2.240 . S
Cd100 O108 2.223 . S
Cd100 O110 2.297 . S
Cd100 O111 2.439 . S
O101 Cd100 2.240 . S
O101 C106 1.279 . S
O102 Cd99 2.297 . S
O102 C104 1.247 . S
O103 Cd99 2.439 . S
O103 C104 1.208 . S
C104 O102 1.247 . S
C104 O103 1.208 . S
C105 O110 1.247 . S
C105 O111 1.208 . S
C106 O98 1.315 . S
C106 O101 1.279 . S
C107 O108 1.315 . S
C107 O109 1.279 . S
O108 Cd100 2.223 . S
O108 C107 1.315 . S
O109 Cd99 2.240 . S
O109 C107 1.279 . S
O110 Cd100 2.297 . S
O110 C105 1.247 . S
O111 Cd100 2.439 . S
O111 C105 1.208 . S
O112 Cd113 2.223 . S
O112 C120 1.315 1_554 S
Cd113 O112 2.223 . S
Cd113 O116 2.297 . S
Cd113 O117 2.439 . S
Cd113 O123 2.240 . S
Cd114 O115 2.240 . S
Cd114 O122 2.223 . S
Cd114 O124 2.297 . S
Cd114 O125 2.439 1_556 S
O115 Cd114 2.240 . S
O115 C120 1.279 . S
O116 Cd113 2.297 . S
O116 C118 1.247 . S
O117 Cd113 2.439 . S
O117 C118 1.208 . S
C118 O116 1.247 . S
C118 O117 1.208 . S
C119 O124 1.247 1_554 S
C119 O125 1.208 . S
C120 O112 1.315 1_556 S
C120 O115 1.279 . S
C121 O122 1.315 . S
C121 O123 1.279 1_556 S
O122 Cd114 2.223 . S
O122 C121 1.315 . S
O123 Cd113 2.240 . S
O123 C121 1.279 1_554 S
O124 Cd114 2.297 . S
O124 C119 1.247 1_556 S
O125 Cd114 2.439 1_554 S
O125 C119 1.208 . S
O126 Cd127 2.223 . S
O126 C134 1.315 . S
Cd127 O126 2.223 . S
Cd127 O130 2.297 . S
Cd127 O131 2.439 . S
Cd127 O137 2.240 . S
Cd128 O129 2.240 . S
Cd128 O136 2.223 . S
Cd128 O138 2.297 . S
Cd128 O139 2.439 . S
O129 Cd128 2.240 . S
O129 C134 1.279 . S
O130 Cd127 2.297 . S
O130 C132 1.247 . S
O131 Cd127 2.439 . S
O131 C132 1.208 . S
C132 O130 1.247 . S
C132 O131 1.208 . S
C133 O138 1.247 . S
C133 O139 1.208 . S
C134 O126 1.315 . S
C134 O129 1.279 . S
C135 O136 1.315 . S
C135 O137 1.279 . S
O136 Cd128 2.223 . S
O136 C135 1.315 . S
O137 Cd127 2.240 . S
O137 C135 1.279 . S
O138 Cd128 2.297 . S
O138 C133 1.247 . S
O139 Cd128 2.439 . S
O139 C133 1.208 . S
O140 Cd141 2.223 . S
O140 C148 1.315 . S
Cd141 O140 2.223 . S
Cd141 O144 2.297 . S
Cd141 O145 2.439 . S
Cd141 O151 2.240 . S
Cd142 O143 2.240 . S
Cd142 O150 2.223 . S
Cd142 O152 2.297 . S
Cd142 O153 2.439 . S
O143 Cd142 2.240 . S
O143 C148 1.279 . S
O144 Cd141 2.297 . S
O144 C146 1.247 . S
O145 Cd141 2.439 . S
O145 C146 1.208 . S
C146 O144 1.247 . S
C146 O145 1.208 . S
C147 O152 1.247 . S
C147 O153 1.208 . S
C148 O140 1.315 . S
C148 O143 1.279 . S
C149 O150 1.315 . S
C149 O151 1.279 . S
O150 Cd142 2.223 . S
O150 C149 1.315 . S
O151 Cd141 2.240 . S
O151 C149 1.279 . S
O152 Cd142 2.297 . S
O152 C147 1.247 . S
O153 Cd142 2.439 . S
O153 C147 1.208 . S
O154 Cd155 2.223 . S
O154 C162 1.315 1_554 S
Cd155 O154 2.223 . S
Cd155 O158 2.297 . S
Cd155 O159 2.439 . S
Cd155 O165 2.240 . S
Cd156 O157 2.240 . S
Cd156 O164 2.223 . S
Cd156 O166 2.297 . S
Cd156 O167 2.439 1_556 S
O157 Cd156 2.240 . S
O157 C162 1.279 . S
O158 Cd155 2.297 . S
O158 C160 1.247 . S
O159 Cd155 2.439 . S
O159 C160 1.208 . S
C160 O158 1.247 . S
C160 O159 1.208 . S
C161 O166 1.247 1_554 S
C161 O167 1.208 . S
C162 O154 1.315 1_556 S
C162 O157 1.279 . S
C163 O164 1.315 . S
C163 O165 1.279 1_556 S
O164 Cd156 2.223 . S
O164 C163 1.315 . S
O165 Cd155 2.240 . S
O165 C163 1.279 1_554 S
O166 Cd156 2.297 . S
O166 C161 1.247 1_556 S
O167 Cd156 2.439 1_554 S
O167 C161 1.208 . S
C168 C169 1.363 . S
C168 C174 1.379 . S
C168 N176 1.356 . S
C169 C168 1.363 . S
C169 C175 1.363 . S
C170 C171 1.363 . S
C170 C175 1.379 . S
C170 N177 1.356 . S
C171 C170 1.363 . S
C171 C174 1.363 . S
N172 C174 1.356 . S
N172 H184 0.984 . S
N172 H185 0.985 . S
N173 C175 1.356 . S
N173 H178 0.984 . S
N173 H179 0.985 . S
C174 C168 1.379 . S
C174 C171 1.363 . S
C174 N172 1.356 . S
C175 C169 1.363 . S
C175 C170 1.379 . S
C175 N173 1.356 . S
N176 C168 1.356 . S
N176 H182 0.984 . S
N176 H183 0.984 . S
N177 C170 1.356 . S
N177 H180 0.984 . S
N177 H181 0.985 . S
H178 N173 0.984 . S
H179 N173 0.985 . S
H180 N177 0.984 . S
H181 N177 0.985 . S
H182 N176 0.984 . S
H183 N176 0.984 . S
H184 N172 0.984 . S
H185 N172 0.985 . S
C186 C187 1.363 . S
C186 C192 1.379 1_655 S
C186 N194 1.356 . S
C187 C186 1.363 . S
C187 C193 1.363 . S
C188 C189 1.363 . S
C188 C193 1.379 1_455 S
C188 N195 1.356 . S
C189 C188 1.363 . S
C189 C192 1.363 . S
N190 C192 1.356 . S
N190 H202 0.984 . S
N190 H203 0.985 . S
N191 C193 1.356 . S
N191 H196 0.984 . S
N191 H197 0.985 . S
C192 C186 1.379 1_455 S
C192 C189 1.363 . S
C192 N190 1.356 . S
C193 C187 1.363 . S
C193 C188 1.379 1_655 S
C193 N191 1.356 . S
N194 C186 1.356 . S
N194 H200 0.984 . S
N194 H201 0.984 . S
N195 C188 1.356 . S
N195 H198 0.984 . S
N195 H199 0.985 . S
H196 N191 0.984 . S
H197 N191 0.985 . S
H198 N195 0.984 . S
H199 N195 0.985 . S
H200 N194 0.984 . S
H201 N194 0.984 . S
H202 N190 0.984 . S
H203 N190 0.985 . S
C204 C205 1.363 1_554 S
C204 C210 1.379 1_565 S
C204 N212 1.356 . S
C205 C204 1.363 1_556 S
C205 C211 1.363 . S
C206 C207 1.363 1_556 S
C206 C211 1.379 1_545 S
C206 N213 1.356 . S
C207 C206 1.363 1_554 S
C207 C210 1.363 . S
N208 C210 1.356 . S
N208 H220 0.984 . S
N208 H221 0.985 . S
N209 C211 1.356 . S
N209 H214 0.984 . S
N209 H215 0.985 . S
C210 C204 1.379 1_545 S
C210 C207 1.363 . S
C210 N208 1.356 . S
C211 C205 1.363 . S
C211 C206 1.379 1_565 S
C211 N209 1.356 . S
N212 C204 1.356 . S
N212 H218 0.984 . S
N212 H219 0.984 1_554 S
N213 C206 1.356 . S
N213 H216 0.984 1_556 S
N213 H217 0.985 . S
H214 N209 0.984 . S
H215 N209 0.985 . S
H216 N213 0.984 1_554 S
H217 N213 0.985 . S
H218 N212 0.984 . S
H219 N212 0.984 1_556 S
H220 N208 0.984 . S
H221 N208 0.985 . S
C222 C223 1.363 . S
C222 C228 1.379 . S
C222 N230 1.356 . S
C223 C222 1.363 . S
C223 C229 1.363 . S
C224 C225 1.363 . S
C224 C229 1.379 . S
C224 N231 1.356 . S
C225 C224 1.363 . S
C225 C228 1.363 . S
N226 C228 1.356 . S
N226 H238 0.984 . S
N226 H239 0.985 . S
N227 C229 1.356 . S
N227 H232 0.984 . S
N227 H233 0.985 . S
C228 C222 1.379 . S
C228 C225 1.363 . S
C228 N226 1.356 . S
C229 C223 1.363 . S
C229 C224 1.379 . S
C229 N227 1.356 . S
N230 C222 1.356 . S
N230 H236 0.984 . S
N230 H237 0.984 . S
N231 C224 1.356 . S
N231 H234 0.984 . S
N231 H235 0.985 . S
H232 N227 0.984 . S
H233 N227 0.985 . S
H234 N231 0.984 . S
H235 N231 0.985 . S
H236 N230 0.984 . S
H237 N230 0.984 . S
H238 N226 0.984 . S
H239 N226 0.985 . S
C240 C241 1.363 . S
C240 C246 1.379 1_655 S
C240 N248 1.356 . S
C241 C240 1.363 . S
C241 C247 1.363 . S
C242 C243 1.363 . S
C242 C247 1.379 1_455 S
C242 N249 1.356 . S
C243 C242 1.363 . S
C243 C246 1.363 . S
N244 C246 1.356 . S
N244 H256 0.984 . S
N244 H257 0.985 . S
N245 C247 1.356 . S
N245 H250 0.984 . S
N245 H251 0.985 . S
C246 C240 1.379 1_455 S
C246 C243 1.363 . S
C246 N244 1.356 . S
C247 C241 1.363 . S
C247 C242 1.379 1_655 S
C247 N245 1.356 . S
N248 C240 1.356 . S
N248 H254 0.984 . S
N248 H255 0.984 . S
N249 C242 1.356 . S
N249 H252 0.984 . S
N249 H253 0.985 . S
H250 N245 0.984 . S
H251 N245 0.985 . S
H252 N249 0.984 . S
H253 N249 0.985 . S
H254 N248 0.984 . S
H255 N248 0.984 . S
H256 N244 0.984 . S
H257 N244 0.985 . S
C258 C259 1.363 1_556 S
C258 C264 1.379 1_565 S
C258 N266 1.356 . S
C259 C258 1.363 1_554 S
C259 C265 1.363 . S
C260 C261 1.363 1_554 S
C260 C265 1.379 1_545 S
C260 N267 1.356 . S
C261 C260 1.363 1_556 S
C261 C264 1.363 . S
N262 C264 1.356 . S
N262 H274 0.984 . S
N262 H275 0.985 . S
N263 C265 1.356 . S
N263 H268 0.984 . S
N263 H269 0.985 . S
C264 C258 1.379 1_545 S
C264 C261 1.363 . S
C264 N262 1.356 . S
C265 C259 1.363 . S
C265 C260 1.379 1_565 S
C265 N263 1.356 . S
N266 C258 1.356 . S
N266 H272 0.984 . S
N266 H273 0.984 1_556 S
N267 C260 1.356 . S
N267 H270 0.984 1_554 S
N267 H271 0.985 . S
H268 N263 0.984 . S
H269 N263 0.985 . S
H270 N267 0.984 1_556 S
H271 N267 0.985 . S
H272 N266 0.984 . S
H273 N266 0.984 1_554 S
H274 N262 0.984 . S
H275 N262 0.985 . S
C276 C277 1.363 . S
C276 C282 1.379 1_556 S
C276 N284 1.356 . S
C277 C276 1.363 . S
C277 C283 1.363 . S
C278 C279 1.363 . S
C278 C283 1.379 1_554 S
C278 N285 1.356 . S
C279 C278 1.363 . S
C279 C282 1.363 . S
N280 C282 1.356 . S
N280 H292 0.984 . S
N280 H293 0.985 . S
N281 C283 1.356 . S
N281 H286 0.984 . S
N281 H287 0.985 . S
C282 C276 1.379 1_554 S
C282 C279 1.363 . S
C282 N280 1.356 . S
C283 C277 1.363 . S
C283 C278 1.379 1_556 S
C283 N281 1.356 . S
N284 C276 1.356 . S
N284 H290 0.984 . S
N284 H291 0.984 . S
N285 C278 1.356 . S
N285 H288 0.984 . S
N285 H289 0.985 . S
H286 N281 0.984 . S
H287 N281 0.985 . S
H288 N285 0.984 . S
H289 N285 0.985 . S
H290 N284 0.984 . S
H291 N284 0.984 . S
H292 N280 0.984 . S
H293 N280 0.985 . S
C294 C295 1.363 . S
C294 C300 1.379 . S
C294 N302 1.356 . S
C295 C294 1.363 . S
C295 C301 1.363 . S
C296 C297 1.363 . S
C296 C301 1.379 . S
C296 N303 1.356 . S
C297 C296 1.363 . S
C297 C300 1.363 . S
N298 C300 1.356 . S
N298 H310 0.984 . S
N298 H311 0.985 . S
N299 C301 1.356 . S
N299 H304 0.984 . S
N299 H305 0.985 . S
C300 C294 1.379 . S
C300 C297 1.363 . S
C300 N298 1.356 . S
C301 C295 1.363 . S
C301 C296 1.379 . S
C301 N299 1.356 . S
N302 C294 1.356 . S
N302 H308 0.984 . S
N302 H309 0.984 . S
N303 C296 1.356 . S
N303 H306 0.984 . S
N303 H307 0.985 . S
H304 N299 0.984 . S
H305 N299 0.985 . S
H306 N303 0.984 . S
H307 N303 0.985 . S
H308 N302 0.984 . S
H309 N302 0.984 . S
H310 N298 0.984 . S
H311 N298 0.985 . S
C312 C313 1.363 . S
C312 C318 1.379 . S
C312 N320 1.356 . S
C313 C312 1.363 . S
C313 C319 1.363 . S
C314 C315 1.363 . S
C314 C319 1.379 . S
C314 N321 1.356 . S
C315 C314 1.363 . S
C315 C318 1.363 . S
N316 C318 1.356 . S
N316 H328 0.984 . S
N316 H329 0.985 . S
N317 C319 1.356 . S
N317 H322 0.984 . S
N317 H323 0.985 . S
C318 C312 1.379 . S
C318 C315 1.363 . S
C318 N316 1.356 . S
C319 C313 1.363 . S
C319 C314 1.379 . S
C319 N317 1.356 . S
N320 C312 1.356 . S
N320 H326 0.984 . S
N320 H327 0.984 . S
N321 C314 1.356 . S
N321 H324 0.984 . S
N321 H325 0.985 . S
H322 N317 0.984 . S
H323 N317 0.985 . S
H324 N321 0.984 . S
H325 N321 0.985 . S
H326 N320 0.984 . S
H327 N320 0.984 . S
H328 N316 0.984 . S
H329 N316 0.985 . S
C330 C331 1.363 . S
C330 C336 1.379 1_554 S
C330 N338 1.356 . S
C331 C330 1.363 . S
C331 C337 1.363 . S
C332 C333 1.363 . S
C332 C337 1.379 1_556 S
C332 N339 1.356 . S
C333 C332 1.363 . S
C333 C336 1.363 . S
N334 C336 1.356 . S
N334 H346 0.984 . S
N334 H347 0.985 . S
N335 C337 1.356 . S
N335 H340 0.984 . S
N335 H341 0.985 . S
C336 C330 1.379 1_556 S
C336 C333 1.363 . S
C336 N334 1.356 . S
C337 C331 1.363 . S
C337 C332 1.379 1_554 S
C337 N335 1.356 . S
N338 C330 1.356 . S
N338 H344 0.984 . S
N338 H345 0.984 . S
N339 C332 1.356 . S
N339 H342 0.984 . S
N339 H343 0.985 . S
H340 N335 0.984 . S
H341 N335 0.985 . S
H342 N339 0.984 . S
H343 N339 0.985 . S
H344 N338 0.984 . S
H345 N338 0.984 . S
H346 N334 0.984 . S
H347 N334 0.985 . S
C348 C349 1.363 . S
C348 C354 1.379 . S
C348 N356 1.356 . S
C349 C348 1.363 . S
C349 C355 1.363 . S
C350 C351 1.363 . S
C350 C355 1.379 . S
C350 N357 1.356 . S
C351 C350 1.363 . S
C351 C354 1.363 . S
N352 C354 1.356 . S
N352 H364 0.984 . S
N352 H365 0.985 . S
N353 C355 1.356 . S
N353 H358 0.984 . S
N353 H359 0.985 . S
C354 C348 1.379 . S
C354 C351 1.363 . S
C354 N352 1.356 . S
C355 C349 1.363 . S
C355 C350 1.379 . S
C355 N353 1.356 . S
N356 C348 1.356 . S
N356 H362 0.984 . S
N356 H363 0.984 . S
N357 C350 1.356 . S
N357 H360 0.984 . S
N357 H361 0.985 . S
H358 N353 0.984 . S
H359 N353 0.985 . S
H360 N357 0.984 . S
H361 N357 0.985 . S
H362 N356 0.984 . S
H363 N356 0.984 . S
H364 N352 0.984 . S
H365 N352 0.985 . S
C366 C367 1.363 . S
C366 C372 1.379 . S
C366 N374 1.356 . S
C367 C366 1.363 . S
C367 C373 1.363 . S
C368 C369 1.363 . S
C368 C373 1.379 . S
C368 N375 1.356 . S
C369 C368 1.363 . S
C369 C372 1.363 . S
N370 C372 1.356 . S
N370 H382 0.984 . S
N370 H383 0.985 . S
N371 C373 1.356 . S
N371 H376 0.984 . S
N371 H377 0.985 . S
C372 C366 1.379 . S
C372 C369 1.363 . S
C372 N370 1.356 . S
C373 C367 1.363 . S
C373 C368 1.379 . S
C373 N371 1.356 . S
N374 C366 1.356 . S
N374 H380 0.984 . S
N374 H381 0.984 . S
N375 C368 1.356 . S
N375 H378 0.984 . S
N375 H379 0.985 . S
H376 N371 0.984 . S
H377 N371 0.985 . S
H378 N375 0.984 . S
H379 N375 0.985 . S
H380 N374 0.984 . S
H381 N374 0.984 . S
H382 N370 0.984 . S
H383 N370 0.985 . S
C384 C385 1.363 . S
C384 C390 1.379 . S
C384 N392 1.356 . S
C385 C384 1.363 . S
C385 C391 1.363 . S
C386 C387 1.363 . S
C386 C391 1.379 . S
C386 N393 1.356 . S
C387 C386 1.363 . S
C387 C390 1.363 . S
N388 C390 1.356 . S
N388 H400 0.984 . S
N388 H401 0.985 . S
N389 C391 1.356 . S
N389 H394 0.984 . S
N389 H395 0.985 . S
C390 C384 1.379 . S
C390 C387 1.363 . S
C390 N388 1.356 . S
C391 C385 1.363 . S
C391 C386 1.379 . S
C391 N389 1.356 . S
N392 C384 1.356 . S
N392 H398 0.984 . S
N392 H399 0.984 . S
N393 C386 1.356 . S
N393 H396 0.984 . S
N393 H397 0.985 . S
H394 N389 0.984 . S
H395 N389 0.985 . S
H396 N393 0.984 . S
H397 N393 0.985 . S
H398 N392 0.984 . S
H399 N392 0.984 . S
H400 N388 0.984 . S
H401 N388 0.985 . S
C402 C403 1.363 . S
C402 C408 1.379 . S
C402 N410 1.356 . S
C403 C402 1.363 . S
C403 C409 1.363 . S
C404 C405 1.363 . S
C404 C409 1.379 . S
C404 N411 1.356 . S
C405 C404 1.363 . S
C405 C408 1.363 . S
N406 C408 1.356 . S
N406 H418 0.984 . S
N406 H419 0.985 . S
N407 C409 1.356 . S
N407 H412 0.984 . S
N407 H413 0.985 . S
C408 C402 1.379 . S
C408 C405 1.363 . S
C408 N406 1.356 . S
C409 C403 1.363 . S
C409 C404 1.379 . S
C409 N407 1.356 . S
N410 C402 1.356 . S
N410 H416 0.984 . S
N410 H417 0.984 . S
N411 C404 1.356 . S
N411 H414 0.984 . S
N411 H415 0.985 . S
H412 N407 0.984 . S
H413 N407 0.985 . S
H414 N411 0.984 . S
H415 N411 0.985 . S
H416 N410 0.984 . S
H417 N410 0.984 . S
H418 N406 0.984 . S
H419 N406 0.985 . S
C420 C421 1.363 . S
C420 C426 1.379 . S
C420 N428 1.356 . S
C421 C420 1.363 . S
C421 C427 1.363 . S
C422 C423 1.363 . S
C422 C427 1.379 . S
C422 N429 1.356 . S
C423 C422 1.363 . S
C423 C426 1.363 . S
N424 C426 1.356 . S
N424 H436 0.984 . S
N424 H437 0.985 . S
N425 C427 1.356 . S
N425 H430 0.984 . S
N425 H431 0.985 . S
C426 C420 1.379 . S
C426 C423 1.363 . S
C426 N424 1.356 . S
C427 C421 1.363 . S
C427 C422 1.379 . S
C427 N425 1.356 . S
N428 C420 1.356 . S
N428 H434 0.984 1_554 S
N428 H435 0.984 1_554 S
N429 C422 1.356 . S
N429 H432 0.984 . S
N429 H433 0.985 . S
H430 N425 0.984 . S
H431 N425 0.985 . S
H432 N429 0.984 . S
H433 N429 0.985 . S
H434 N428 0.984 1_556 S
H435 N428 0.984 1_556 S
H436 N424 0.984 . S
H437 N424 0.985 . S
C438 C439 1.363 . S
C438 C444 1.379 . S
C438 N446 1.356 . S
C439 C438 1.363 . S
C439 C445 1.363 . S
C440 C441 1.363 . S
C440 C445 1.379 . S
C440 N447 1.356 . S
C441 C440 1.363 . S
C441 C444 1.363 . S
N442 C444 1.356 . S
N442 H454 0.984 . S
N442 H455 0.985 . S
N443 C445 1.356 . S
N443 H448 0.984 . S
N443 H449 0.985 . S
C444 C438 1.379 . S
C444 C441 1.363 . S
C444 N442 1.356 . S
C445 C439 1.363 . S
C445 C440 1.379 . S
C445 N443 1.356 . S
N446 C438 1.356 . S
N446 H452 0.984 . S
N446 H453 0.984 . S
N447 C440 1.356 . S
N447 H450 0.984 . S
N447 H451 0.985 . S
H448 N443 0.984 . S
H449 N443 0.985 . S
H450 N447 0.984 . S
H451 N447 0.985 . S
H452 N446 0.984 . S
H453 N446 0.984 . S
H454 N442 0.984 . S
H455 N442 0.985 . S
C456 C457 1.363 . S
C456 C462 1.379 . S
C456 N464 1.356 . S
C457 C456 1.363 . S
C457 C463 1.363 . S
C458 C459 1.363 . S
C458 C463 1.379 . S
C458 N465 1.356 . S
C459 C458 1.363 . S
C459 C462 1.363 . S
N460 C462 1.356 . S
N460 H472 0.984 . S
N460 H473 0.985 . S
N461 C463 1.356 . S
N461 H466 0.984 . S
N461 H467 0.985 . S
C462 C456 1.379 . S
C462 C459 1.363 . S
C462 N460 1.356 . S
C463 C457 1.363 . S
C463 C458 1.379 . S
C463 N461 1.356 . S
N464 C456 1.356 . S
N464 H470 0.984 . S
N464 H471 0.984 . S
N465 C458 1.356 . S
N465 H468 0.984 1_556 S
N465 H469 0.985 1_556 S
H466 N461 0.984 . S
H467 N461 0.985 . S
H468 N465 0.984 1_554 S
H469 N465 0.985 1_554 S
H470 N464 0.984 . S
H471 N464 0.984 . S
H472 N460 0.984 . S
H473 N460 0.985 . S
C474 C475 1.363 . S
C474 C480 1.379 . S
C474 N482 1.356 . S
C475 C474 1.363 . S
C475 C481 1.363 . S
C476 C477 1.363 . S
C476 C481 1.379 . S
C476 N483 1.356 . S
C477 C476 1.363 . S
C477 C480 1.363 . S
N478 C480 1.356 . S
N478 H490 0.984 . S
N478 H491 0.985 . S
N479 C481 1.356 . S
N479 H484 0.984 1_554 S
N479 H485 0.985 1_554 S
C480 C474 1.379 . S
C480 C477 1.363 . S
C480 N478 1.356 . S
C481 C475 1.363 . S
C481 C476 1.379 . S
C481 N479 1.356 . S
N482 C474 1.356 . S
N482 H488 0.984 . S
N482 H489 0.984 . S
N483 C476 1.356 . S
N483 H486 0.984 . S
N483 H487 0.985 . S
H484 N479 0.984 1_556 S
H485 N479 0.985 1_556 S
H486 N483 0.984 . S
H487 N483 0.985 . S
H488 N482 0.984 . S
H489 N482 0.984 . S
H490 N478 0.984 . S
H491 N478 0.985 . S
C492 C493 1.363 . S
C492 C498 1.379 . S
C492 N500 1.356 . S
C493 C492 1.363 . S
C493 C499 1.363 . S
C494 C495 1.363 . S
C494 C499 1.379 . S
C494 N501 1.356 . S
C495 C494 1.363 . S
C495 C498 1.363 . S
N496 C498 1.356 . S
N496 H508 0.984 . S
N496 H509 0.985 . S
N497 C499 1.356 . S
N497 H502 0.984 . S
N497 H503 0.985 . S
C498 C492 1.379 . S
C498 C495 1.363 . S
C498 N496 1.356 . S
C499 C493 1.363 . S
C499 C494 1.379 . S
C499 N497 1.356 . S
N500 C492 1.356 . S
N500 H506 0.984 . S
N500 H507 0.984 . S
N501 C494 1.356 . S
N501 H504 0.984 . S
N501 H505 0.985 . S
H502 N497 0.984 . S
H503 N497 0.985 . S
H504 N501 0.984 . S
H505 N501 0.985 . S
H506 N500 0.984 . S
H507 N500 0.984 . S
H508 N496 0.984 . S
H509 N496 0.985 . S
C510 C511 1.363 . S
C510 C516 1.379 . S
C510 N518 1.356 . S
C511 C510 1.363 . S
C511 C517 1.363 . S
C512 C513 1.363 . S
C512 C517 1.379 . S
C512 N519 1.356 . S
C513 C512 1.363 . S
C513 C516 1.363 . S
N514 C516 1.356 . S
N514 H526 0.984 . S
N514 H527 0.985 . S
N515 C517 1.356 . S
N515 H520 0.984 . S
N515 H521 0.985 . S
C516 C510 1.379 . S
C516 C513 1.363 . S
C516 N514 1.356 . S
C517 C511 1.363 . S
C517 C512 1.379 . S
C517 N515 1.356 . S
N518 C510 1.356 . S
N518 H524 0.984 . S
N518 H525 0.984 . S
N519 C512 1.356 . S
N519 H522 0.984 . S
N519 H523 0.985 . S
H520 N515 0.984 . S
H521 N515 0.985 . S
H522 N519 0.984 . S
H523 N519 0.985 . S
H524 N518 0.984 . S
H525 N518 0.984 . S
H526 N514 0.984 . S
H527 N514 0.985 . S
C528 C529 1.363 . S
C528 C534 1.379 . S
C528 N536 1.356 . S
C529 C528 1.363 . S
C529 C535 1.363 1_554 S
C530 C531 1.363 . S
C530 C535 1.379 . S
C530 N537 1.356 . S
C531 C530 1.363 . S
C531 C534 1.363 1_556 S
N532 C534 1.356 . S
N532 H544 0.984 . S
N532 H545 0.985 . S
N533 C535 1.356 . S
N533 H538 0.984 . S
N533 H539 0.985 . S
C534 C528 1.379 . S
C534 C531 1.363 1_554 S
C534 N532 1.356 . S
C535 C529 1.363 1_556 S
C535 C530 1.379 . S
C535 N533 1.356 . S
N536 C528 1.356 . S
N536 H542 0.984 . S
N536 H543 0.984 . S
N537 C530 1.356 . S
N537 H540 0.984 . S
N537 H541 0.985 . S
H538 N533 0.984 . S
H539 N533 0.985 . S
H540 N537 0.984 . S
H541 N537 0.985 . S
H542 N536 0.984 . S
H543 N536 0.984 . S
H544 N532 0.984 . S
H545 N532 0.985 . S
C546 C547 1.363 . S
C546 C552 1.379 . S
C546 N554 1.356 . S
C547 C546 1.363 . S
C547 C553 1.363 . S
C548 C549 1.363 . S
C548 C553 1.379 . S
C548 N555 1.356 . S
C549 C548 1.363 . S
C549 C552 1.363 . S
N550 C552 1.356 . S
N550 H562 0.984 . S
N550 H563 0.985 . S
N551 C553 1.356 . S
N551 H556 0.984 . S
N551 H557 0.985 . S
C552 C546 1.379 . S
C552 C549 1.363 . S
C552 N550 1.356 . S
C553 C547 1.363 . S
C553 C548 1.379 . S
C553 N551 1.356 . S
N554 C546 1.356 . S
N554 H560 0.984 . S
N554 H561 0.984 . S
N555 C548 1.356 . S
N555 H558 0.984 . S
N555 H559 0.985 . S
H556 N551 0.984 . S
H557 N551 0.985 . S
H558 N555 0.984 . S
H559 N555 0.985 . S
H560 N554 0.984 . S
H561 N554 0.984 . S
H562 N550 0.984 . S
H563 N550 0.985 . S
C564 C565 1.363 . S
C564 C570 1.379 . S
C564 N572 1.356 . S
C565 C564 1.363 . S
C565 C571 1.363 . S
C566 C567 1.363 . S
C566 C571 1.379 . S
C566 N573 1.356 . S
C567 C566 1.363 . S
C567 C570 1.363 . S
N568 C570 1.356 . S
N568 H580 0.984 . S
N568 H581 0.985 . S
N569 C571 1.356 . S
N569 H574 0.984 . S
N569 H575 0.985 . S
C570 C564 1.379 . S
C570 C567 1.363 . S
C570 N568 1.356 . S
C571 C565 1.363 . S
C571 C566 1.379 . S
C571 N569 1.356 . S
N572 C564 1.356 . S
N572 H578 0.984 . S
N572 H579 0.984 . S
N573 C566 1.356 . S
N573 H576 0.984 . S
N573 H577 0.985 . S
H574 N569 0.984 . S
H575 N569 0.985 . S
H576 N573 0.984 . S
H577 N573 0.985 . S
H578 N572 0.984 . S
H579 N572 0.984 . S
H580 N568 0.984 . S
H581 N568 0.985 . S
C582 C583 1.363 1_554 S
C582 C588 1.379 . S
C582 N590 1.356 . S
C583 C582 1.363 1_556 S
C583 C589 1.363 . S
C584 C585 1.363 1_556 S
C584 C589 1.379 . S
C584 N591 1.356 . S
C585 C584 1.363 1_554 S
C585 C588 1.363 . S
N586 C588 1.356 . S
N586 H598 0.984 . S
N586 H599 0.985 . S
N587 C589 1.356 . S
N587 H592 0.984 . S
N587 H593 0.985 . S
C588 C582 1.379 . S
C588 C585 1.363 . S
C588 N586 1.356 . S
C589 C583 1.363 . S
C589 C584 1.379 . S
C589 N587 1.356 . S
N590 C582 1.356 . S
N590 H596 0.984 . S
N590 H597 0.984 . S
N591 C584 1.356 . S
N591 H594 0.984 . S
N591 H595 0.985 . S
H592 N587 0.984 . S
H593 N587 0.985 . S
H594 N591 0.984 . S
H595 N591 0.985 . S
H596 N590 0.984 . S
H597 N590 0.984 . S
H598 N586 0.984 . S
H599 N586 0.985 . S
C169 C7 1.467 . S
C171 C133 1.467 . S
C187 C21 1.467 . S
C189 C147 1.467 . S
C205 C35 1.467 . S
C207 C161 1.467 . S
C223 C49 1.467 . S
C225 C91 1.467 . S
C241 C105 1.467 . S
C243 C63 1.467 . S
C259 C119 1.467 . S
C261 C77 1.467 . S
C277 C146 1.494 . S
C279 C6 1.494 . S
C295 C20 1.494 . S
C297 C160 1.494 . S
C313 C34 1.494 . S
C315 C90 1.494 . S
C331 C48 1.494 . S
C333 C104 1.494 . S
C349 C62 1.494 . S
C351 C118 1.494 . S
C367 C76 1.494 . S
C369 C132 1.494 . S
C385 C148 1.553 . S
C387 C8 1.553 . S
C403 C22 1.553 . S
C405 C162 1.553 . S
C421 C36 1.553 . S
C423 C92 1.553 . S
C439 C50 1.553 . S
C441 C106 1.553 . S
C457 C64 1.553 . S
C459 C120 1.553 . S
C475 C78 1.553 . S
C477 C134 1.553 . S
C493 C9 1.698 . S
C495 C93 1.698 . S
C511 C107 1.699 . S
C513 C23 1.699 . S
C529 C37 1.699 . S
C531 C121 1.699 . S
C547 C51 1.698 . S
C549 C135 1.699 . S
C565 C65 1.699 . S
C567 C149 1.699 . S
C583 C163 1.699 . S
C585 C79 1.699 . S
