# Generated by pormake.
# Topology tfs, (6)-cn, num edge types: 1
# Building blocks:
#     Node 0, Type 0, BuildingBlock: PAMTOO_clean_sbu_0, # of connection points: 6
#     Node 1, Type 0, BuildingBlock: PAMTOO_clean_sbu_0, # of connection points: 6
#     Node 2, Type 0, BuildingBlock: PAMTOO_clean_sbu_0, # of connection points: 6
#     Node 3, Type 0, BuildingBlock: PAMTOO_clean_sbu_0, # of connection points: 6
#     Node 4, Type 0, BuildingBlock: PAMTOO_clean_sbu_0, # of connection points: 6
#     Node 5, Type 0, BuildingBlock: PAMTOO_clean_sbu_0, # of connection points: 6
#     Edge 6, Type (0, 0), BuildingBlock: MIFKUJ_clean_linker_0, # of connection points: 2
#     Edge 7, Type (0, 0), BuildingBlock: MIFKUJ_clean_linker_0, # of connection points: 2
#     Edge 8, Type (0, 0), BuildingBlock: MIFKUJ_clean_linker_0, # of connection points: 2
#     Edge 9, Type (0, 0), BuildingBlock: MIFKUJ_clean_linker_0, # of connection points: 2
#     Edge 10, Type (0, 0), BuildingBlock: MIFKUJ_clean_linker_0, # of connection points: 2
#     Edge 11, Type (0, 0), BuildingBlock: MIFKUJ_clean_linker_0, # of connection points: 2
#     Edge 12, Type (0, 0), BuildingBlock: MIFKUJ_clean_linker_0, # of connection points: 2
#     Edge 13, Type (0, 0), BuildingBlock: MIFKUJ_clean_linker_0, # of connection points: 2
#     Edge 14, Type (0, 0), BuildingBlock: MIFKUJ_clean_linker_0, # of connection points: 2
#     Edge 15, Type (0, 0), BuildingBlock: MIFKUJ_clean_linker_0, # of connection points: 2
#     Edge 16, Type (0, 0), BuildingBlock: MIFKUJ_clean_linker_0, # of connection points: 2
#     Edge 17, Type (0, 0), BuildingBlock: MIFKUJ_clean_linker_0, # of connection points: 2
#     Edge 18, Type (0, 0), BuildingBlock: MIFKUJ_clean_linker_0, # of connection points: 2
#     Edge 19, Type (0, 0), BuildingBlock: MIFKUJ_clean_linker_0, # of connection points: 2
#     Edge 20, Type (0, 0), BuildingBlock: MIFKUJ_clean_linker_0, # of connection points: 2
#     Edge 21, Type (0, 0), BuildingBlock: MIFKUJ_clean_linker_0, # of connection points: 2
#     Edge 22, Type (0, 0), BuildingBlock: MIFKUJ_clean_linker_0, # of connection points: 2
#     Edge 23, Type (0, 0), BuildingBlock: MIFKUJ_clean_linker_0, # of connection points: 2
# Relax obj value: 0.519
# Max RMSD: 0.404
# Mean RMSD: 0.317
data_MOF--net-tfs--node1-PAMTOO_clean_sbu_0--edge1-MIFKUJ_clean_linker_0
_symmetry_space_group_name_H-M    P1
_symmetry_Int_Tables_number       1
_symmetry_cell_setting            triclinic
loop_
_symmetry_equiv_pos_as_xyz
'x, y, z'
_cell_length_a     65.076609
_cell_length_b     58.412807
_cell_length_c     17.666783
_cell_angle_alpha  99.796061
_cell_angle_beta   97.600424
_cell_angle_gamma 121.67687
loop_
_atom_site_label
_atom_site_type_symbol
_atom_site_fract_x
_atom_site_fract_y
_atom_site_fract_z
_atom_type_partial_charge
Dy0 Dy 0.3209 0.50183 0.65202 0.0
Dy1 Dy 0.32969 0.45254 0.59476 0.0
C2 C 0.30577 0.47101 0.47756 0.0
O3 O 0.28126 0.4614 0.62165 0.0
O4 O 0.2861 0.42606 0.57146 0.0
O5 O 0.31059 0.52883 0.61933 0.0
O6 O 0.31242 0.52403 0.73921 0.0
O7 O 0.32798 0.45641 0.72112 0.0
O8 O 0.34319 0.50266 0.75934 0.0
O9 O 0.36824 0.49601 0.60972 0.0
O10 O 0.36177 0.53066 0.65371 0.0
O11 O 0.33602 0.42223 0.6276 0.0
O12 O 0.33935 0.42973 0.51251 0.0
C13 C 0.27111 0.43441 0.58736 0.0
O14 O 0.32209 0.4954 0.52799 0.0
O15 O 0.30431 0.44885 0.4894 0.0
C16 C 0.3193 0.56669 0.72297 0.0
C17 C 0.32972 0.62068 0.77161 0.0
C18 C 0.33638 0.61287 0.70432 0.0
C19 C 0.33118 0.58598 0.68 0.0
C20 C 0.31426 0.57518 0.79317 0.0
C21 C 0.31952 0.60205 0.81755 0.0
C22 C 0.30893 0.53689 0.69049 0.0
C23 C 0.3382 0.47988 0.77721 0.0
C24 C 0.37695 0.52354 0.63312 0.0
C25 C 0.33111 0.38511 0.52585 0.0
C26 C 0.32264 0.33135 0.46889 0.0
C27 C 0.3218 0.34048 0.54663 0.0
C28 C 0.32599 0.36701 0.5748 0.0
C29 C 0.33129 0.37551 0.44735 0.0
C30 C 0.32702 0.34896 0.41921 0.0
C31 C 0.34012 0.41513 0.55998 0.0
H32 H 0.34412 0.62687 0.66773 0.0
H33 H 0.33526 0.57992 0.62549 0.0
H34 H 0.30506 0.56058 0.82698 0.0
H35 H 0.31455 0.60783 0.87029 0.0
H36 H 0.31859 0.32739 0.58634 0.0
H37 H 0.32614 0.37375 0.63602 0.0
H38 H 0.33566 0.38896 0.40837 0.0
H39 H 0.32795 0.34252 0.35923 0.0
Dy40 Dy 0.78148 0.15192 0.15293 0.0
Dy41 Dy 0.85138 0.18624 0.20835 0.0
C42 C 0.81216 0.14115 0.03567 0.0
O43 O 0.78829 0.12281 0.20732 0.0
O44 O 0.83113 0.14053 0.22426 0.0
O45 O 0.74681 0.13683 0.06576 0.0
O46 O 0.74616 0.1372 0.1883 0.0
O47 O 0.83953 0.19259 0.31711 0.0
O48 O 0.80398 0.1887 0.25927 0.0
O49 O 0.84196 0.21801 0.18071 0.0
O50 O 0.79942 0.19084 0.11139 0.0
O51 O 0.88634 0.19507 0.28336 0.0
O52 O 0.88873 0.21483 0.18967 0.0
C53 C 0.8077 0.12068 0.22631 0.0
O54 O 0.79141 0.13197 0.05915 0.0
O55 O 0.83496 0.16168 0.07976 0.0
C56 C 0.7084 0.12948 0.09918 0.0
C57 C 0.65895 0.11995 0.05664 0.0
C58 C 0.67842 0.13685 0.02312 0.0
C59 C 0.70247 0.14126 0.04324 0.0
C60 C 0.68909 0.11302 0.13338 0.0
C61 C 0.66504 0.10827 0.11248 0.0
C62 C 0.733 0.13112 0.11619 0.0
C63 C 0.81801 0.18897 0.32003 0.0
C64 C 0.82163 0.2151 0.13734 0.0
C65 C 0.9305 0.2276 0.27119 0.0
C66 C 0.98601 0.25787 0.31912 0.0
C67 C 0.97004 0.23681 0.35304 0.0
C68 C 0.94326 0.22236 0.33036 0.0
C69 C 0.94639 0.24831 0.23629 0.0
C70 C 0.97319 0.26306 0.25982 0.0
C71 C 0.90134 0.21237 0.24799 0.0
H72 H 0.67491 0.14617 0.97942 0.0
H73 H 0.71635 0.15366 0.01394 0.0
H74 H 0.69243 0.10316 0.1757 0.0
H75 H 0.65112 0.0954 0.14093 0.0
H76 H 0.97828 0.23174 0.39911 0.0
H77 H 0.93245 0.20696 0.36 0.0
H78 H 0.93808 0.25343 0.19054 0.0
H79 H 0.98393 0.27853 0.23027 0.0
Dy80 Dy 0.67258 0.83845 0.64413 0.0
Dy81 Dy 0.68908 0.80061 0.56346 0.0
C82 C 0.71275 0.83506 0.74146 0.0
O83 O 0.69634 0.86829 0.58177 0.0
O84 O 0.71461 0.8457 0.53991 0.0
O85 O 0.67343 0.85566 0.7632 0.0
O86 O 0.6647 0.8697 0.66434 0.0
O87 O 0.65544 0.7894 0.47535 0.0
O88 O 0.65611 0.82882 0.51448 0.0
O89 O 0.64986 0.76671 0.57972 0.0
O90 O 0.63905 0.79526 0.64147 0.0
O91 O 0.70093 0.78593 0.46699 0.0
O92 O 0.70179 0.7734 0.57477 0.0
C93 C 0.71255 0.86785 0.54605 0.0
O94 O 0.71072 0.85235 0.70929 0.0
O95 O 0.70149 0.80962 0.69594 0.0
C96 C 0.649 0.87393 0.77406 0.0
C97 C 0.61728 0.88339 0.84257 0.0
C98 C 0.63589 0.88301 0.89074 0.0
C99 C 0.65179 0.87826 0.85637 0.0
C100 C 0.63018 0.87416 0.72621 0.0
C101 C 0.61442 0.87891 0.76045 0.0
C102 C 0.66719 0.87178 0.74016 0.0
C103 C 0.65322 0.80893 0.45724 0.0
C104 C 0.63367 0.76961 0.61353 0.0
C105 C 0.72814 0.76983 0.49568 0.0
C106 C 0.76142 0.75361 0.46234 0.0
C107 C 0.75112 0.76199 0.40657 0.0
C108 C 0.73471 0.76984 0.42287 0.0
C109 C 0.73953 0.76302 0.55326 0.0
C110 C 0.75594 0.75517 0.53701 0.0
C111 C 0.70651 0.77189 0.50542 0.0
H112 H 0.63815 0.88653 0.95439 0.0
H113 H 0.6665 0.87848 0.89407 0.0
H114 H 0.62791 0.8713 0.66274 0.0
H115 H 0.6003 0.87968 0.72307 0.0
H116 H 0.75454 0.76095 0.34817 0.0
H117 H 0.72614 0.77455 0.37657 0.0
H118 H 0.73492 0.76254 0.60993 0.0
H119 H 0.76376 0.74952 0.58248 0.0
Dy120 Dy 0.78819 0.49195 0.04249 0.0
Dy121 Dy 0.84756 0.5255 0.0922 0.0
C122 C 0.81506 0.49991 0.20271 0.0
O123 O 0.79957 0.53646 0.06962 0.0
O124 O 0.84001 0.55842 0.14355 0.0
O125 O 0.75372 0.46029 0.06101 0.0
O126 O 0.75428 0.48774 -0.009 0.0
O127 O 0.83606 0.53472 -0.01723 0.0
O128 O 0.79797 0.49338 0.92872 0.0
O129 O 0.83613 0.4812 0.03394 0.0
O130 O 0.7952 0.45755 0.03954 0.0
O131 O 0.88249 0.54278 0.05931 0.0
O132 O 0.88189 0.5479 0.18389 0.0
C133 C 0.82006 0.55883 0.11907 0.0
O134 O 0.80483 0.51087 0.16986 0.0
O135 O 0.83297 0.50022 0.17702 0.0
C136 C 0.72138 0.44056 0.94463 0.0
C137 C 0.68453 0.3943 0.8181 0.0
C138 C 0.69472 0.39049 0.88644 0.0
C139 C 0.71279 0.41344 0.94957 0.0
C140 C 0.71226 0.44444 0.87472 0.0
C141 C 0.69385 0.4214 0.81202 0.0
C142 C 0.74059 0.46477 0.01061 0.0
C143 C 0.81655 0.5168 0.92254 0.0
C144 C 0.81513 0.45758 0.03127 0.0
C145 C 0.91155 0.58762 0.15106 0.0
C146 C 0.94179 0.64615 0.18672 0.0
C147 C 0.93471 0.62964 0.10858 0.0
C148 C 0.91945 0.60044 0.09056 0.0
C149 C 0.91813 0.60449 0.22862 0.0
C150 C 0.93289 0.63349 0.24603 0.0
C151 C 0.89525 0.55691 0.13352 0.0
H152 H 0.68716 0.3698 0.89444 0.0
H153 H 0.71947 0.40985 0.00291 0.0
H154 H 0.71869 0.46522 0.86939 0.0
H155 H 0.68541 0.42462 0.76146 0.0
H156 H 0.94208 0.63927 0.06282 0.0
H157 H 0.9144 0.58798 0.03001 0.0
H158 H 0.91235 0.59535 0.27656 0.0
H159 H 0.93891 0.64605 0.3072 0.0
Dy160 Dy 0.33302 0.92086 0.85434 0.0
Dy161 Dy 0.26806 0.8655 0.82025 0.0
C162 C 0.29033 0.86413 0.69597 0.0
O163 O 0.31305 0.93569 0.7894 0.0
O164 O 0.27102 0.89994 0.77261 0.0
O165 O 0.3615 0.93769 0.79155 0.0
O166 O 0.37036 0.95461 0.92027 0.0
O167 O 0.29623 0.88826 0.9362 0.0
O168 O 0.32234 0.93427 0.95786 0.0
O169 O 0.28943 0.84724 0.85114 0.0
O170 O 0.33215 0.88342 0.87794 0.0
O171 O 0.24169 0.86672 0.87937 0.0
O172 O 0.23292 0.82691 0.80691 0.0
C173 C 0.28878 0.9241 0.76458 0.0
O174 O 0.30296 0.88342 0.76323 0.0
O175 O 0.26722 0.84733 0.69605 0.0
C176 C 0.39931 0.94861 0.87082 0.0
C177 C 0.43454 0.93555 0.90366 0.0
C178 C 0.41806 0.92397 0.8274 0.0
C179 C 0.4005 0.93041 0.81105 0.0
C180 C 0.41608 0.96043 0.94656 0.0
C181 C 0.43333 0.95368 0.96314 0.0
C182 C 0.37911 0.95301 0.85826 0.0
C183 C 0.30443 0.91361 0.9768 0.0
C184 C 0.31354 0.85709 0.87005 0.0
C185 C 0.20183 0.83615 0.79475 0.0
C186 C 0.16083 0.83163 0.70343 0.0
C187 C 0.165 0.83737 0.7863 0.0
C188 C 0.18562 0.8398 0.83208 0.0
C189 C 0.19796 0.83135 0.71197 0.0
C190 C 0.17742 0.82882 0.66659 0.0
C191 C 0.22429 0.84043 0.84219 0.0
H192 H 0.41898 0.9103 0.78017 0.0
H193 H 0.38771 0.92085 0.7521 0.0
H194 H 0.41541 0.97436 -0.00626 0.0
H195 H 0.44569 0.96259 0.02265 0.0
H196 H 0.15203 0.83926 0.81501 0.0
H197 H 0.18888 0.8444 0.89622 0.0
H198 H 0.2107 0.82932 0.68217 0.0
H199 H 0.17394 0.82362 0.60243 0.0
Dy200 Dy 0.38293 0.11911 0.96917 0.0
Dy201 Dy 0.36129 0.0678 0.02017 0.0
C202 C 0.34555 0.06548 0.85328 0.0
O203 O 0.36653 0.13354 0.04589 0.0
O204 O 0.34089 0.08973 0.05821 0.0
O205 O 0.39193 0.1299 0.86262 0.0
O206 O 0.38716 0.15651 0.94963 0.0
O207 O 0.39277 0.09542 0.12708 0.0
O208 O 0.40182 0.13647 0.10176 0.0
O209 O 0.39752 0.07192 0.00854 0.0
O210 O 0.41473 0.11278 0.97273 0.0
O211 O 0.34939 0.03883 0.09118 0.0
O212 O 0.33153 0.02449 0.96451 0.0
C213 C 0.34783 0.11637 0.07001 0.0
O214 O 0.34437 0.08404 0.89993 0.0
O215 O 0.35896 0.05879 0.89139 0.0
C216 C 0.42228 0.17735 0.90116 0.0
C217 C 0.47396 0.20708 0.9508 0.0
C218 C 0.46119 0.18809 0.87453 0.0
C219 C 0.43545 0.17331 0.84975 0.0
C220 C 0.43531 0.19804 0.97501 0.0
C221 C 0.46104 0.21248 0.00026 0.0
C222 C 0.39649 0.15477 0.88974 0.0
C223 C 0.40327 0.12247 0.15147 0.0
C224 C 0.41623 0.09228 -0.0115 0.0
C225 C 0.30589 1.00588 0.04654 0.0
C226 C 0.26201 0.98154 0.09558 0.0
C227 C 0.27666 1.01062 0.10737 0.0
C228 C 0.29876 0.02282 0.08369 0.0
C229 C 0.28934 0.97668 0.02375 0.0
C230 C 0.26725 0.96447 0.04768 0.0
C231 C 0.33058 1.01857 0.03213 0.0
H232 H 0.47112 0.18477 0.83398 0.0
H233 H 0.42573 0.15724 0.79298 0.0
H234 H 0.42564 0.20169 0.01595 0.0
H235 H 0.47088 0.22785 0.05822 0.0
H236 H 0.27308 0.02411 0.14514 0.0
H237 H 0.31114 0.04546 0.10007 0.0
H238 H 0.29434 0.96342 -0.00725 0.0
H239 H 0.25622 0.94199 0.03874 0.0
H240 H 0.29901 0.09985 0.07787 0.0
H241 H 0.28763 0.12907 0.15558 0.0
H242 H 0.36591 0.19441 0.25825 0.0
H243 H 0.37705 0.16594 0.18243 0.0
H244 H 0.34235 0.19075 0.3703 0.0
H245 H 0.32371 0.19151 0.08723 0.0
H246 H 0.29918 0.16946 0.9463 0.0
H247 H 0.23114 0.1413 0.01784 0.0
H248 H 0.25525 0.16299 0.15894 0.0
H249 H 0.36012 0.3229 0.48812 0.0
H250 H 0.35806 0.28004 0.43362 0.0
H251 H 0.27844 0.23602 0.33284 0.0
H252 H 0.28088 0.27939 0.38555 0.0
H253 H 0.29413 0.22098 0.22794 0.0
H254 H 0.30524 0.221 0.49323 0.0
H255 H 0.32171 0.23714 0.63925 0.0
H256 H 0.39297 0.25462 0.61509 0.0
H257 H 0.37703 0.23888 0.4687 0.0
C258 C 0.31368 0.12018 0.11827 0.0
C259 C 0.33896 0.13031 0.12371 0.0
C260 C 0.30721 0.13712 0.16218 0.0
C261 C 0.3259 0.1644 0.21278 0.0
C262 C 0.35098 0.1737 0.22025 0.0
C263 C 0.35734 0.1572 0.17629 0.0
C264 C 0.3203 0.18425 0.25669 0.0
C265 C 0.3319 0.19744 0.3389 0.0
C266 C 0.30547 0.19216 0.21801 0.0
C267 C 0.29121 0.1785 0.13337 0.0
C268 C 0.3035 0.18036 0.07277 0.0
C269 C 0.28968 0.168 -0.00709 0.0
C270 C 0.26362 0.1539 0.97314 0.0
C271 C 0.25131 0.15214 0.03316 0.0
C272 C 0.26503 0.16445 0.113 0.0
C273 C 0.34217 0.30395 0.45494 0.0
C274 C 0.32067 0.30447 0.44104 0.0
C275 C 0.3409 0.27927 0.42416 0.0
C276 C 0.31801 0.25425 0.37924 0.0
C277 C 0.2964 0.25478 0.36682 0.0
C278 C 0.29773 0.27957 0.39721 0.0
C279 C 0.31709 0.2284 0.34091 0.0
C280 C 0.30436 0.21418 0.25998 0.0
C281 C 0.32989 0.21866 0.38176 0.0
C282 C 0.33998 0.22899 0.46979 0.0
C283 C 0.32452 0.22857 0.51895 0.0
C284 C 0.33373 0.23757 0.60183 0.0
C285 C 0.35839 0.24696 0.63642 0.0
C286 C 0.37388 0.24737 0.58817 0.0
C287 C 0.36475 0.23837 0.5052 0.0
H288 H 0.36547 0.25385 0.7006 0.0
H289 H 0.25297 0.14441 0.9113 0.0
H290 H 0.23908 0.37475 0.5311 0.0
H291 H 0.19328 0.34369 0.49189 0.0
H292 H 0.18887 0.41553 0.54009 0.0
H293 H 0.23458 0.44633 0.58434 0.0
H294 H 0.15086 0.38085 0.57289 0.0
H295 H 0.17318 0.35549 0.32069 0.0
H296 H 0.19382 0.33638 0.2509 0.0
H297 H 0.15819 0.26421 0.33852 0.0
H298 H 0.13737 0.28287 0.40847 0.0
H299 H 1.02339 0.3143 0.33356 0.0
H300 H 0.06926 0.34033 0.37766 0.0
H301 H 0.06325 0.26587 0.40854 0.0
H302 H 1.01723 0.23983 0.36668 0.0
H303 H 0.10479 0.29754 0.33673 0.0
H304 H 0.09052 0.31339 0.58743 0.0
H305 H 0.06548 0.31865 0.67347 0.0
H306 H 0.08187 0.39362 0.61286 0.0
H307 H 0.10721 0.38878 0.52662 0.0
C308 C 0.22855 0.38419 0.53361 0.0
C309 C 0.24175 0.41385 0.56176 0.0
C310 C 0.20161 0.36601 0.50918 0.0
C311 C 0.18584 0.37619 0.50859 0.0
C312 C 0.19923 0.40588 0.53791 0.0
C313 C 0.22606 0.42396 0.56366 0.0
C314 C 0.15615 0.35687 0.47945 0.0
C315 C 0.14135 0.36325 0.51965 0.0
C316 C 0.14168 0.33177 0.41345 0.0
C317 C 0.15386 0.32061 0.36989 0.0
C318 C 0.16976 0.33555 0.32482 0.0
C319 C 0.18148 0.32479 0.28531 0.0
C320 C 0.17735 0.29913 0.29036 0.0
C321 C 0.16138 0.28407 0.33456 0.0
C322 C 0.14956 0.29467 0.3739 0.0
C323 C 1.03151 0.30309 0.34932 0.0
C324 C 1.0154 0.2743 0.3456 0.0
C325 C 0.05829 0.31834 0.37528 0.0
C326 C 0.07093 0.30574 0.39732 0.0
C327 C 0.05495 0.27686 0.39229 0.0
C328 C 1.0281 0.26175 0.36832 0.0
C329 C 0.10028 0.32289 0.42723 0.0
C330 C 0.1147 0.31586 0.38815 0.0
C331 C 0.11437 0.34636 0.49639 0.0
C332 C 0.10083 0.35088 0.5514 0.0
C333 C 0.08894 0.33114 0.59316 0.0
C334 C 0.07468 0.33399 0.64173 0.0
C335 C 0.07213 0.3565 0.64875 0.0
C336 C 0.084 0.37629 0.6076 0.0
C337 C 0.09842 0.37359 0.55918 0.0
H338 H 0.06092 0.35858 0.68595 0.0
H339 H 0.1865 0.2909 0.25999 0.0
H340 H 0.76206 0.06917 0.19143 0.0
H341 H 0.7507 0.02725 0.23379 0.0
H342 H 0.8273 0.06696 0.36275 0.0
H343 H 0.83904 0.10908 0.31754 0.0
H344 H 0.80156 1.00479 0.29641 0.0
H345 H 0.78648 0.06686 0.45285 0.0
H346 H 0.77106 0.09564 0.42557 0.0
H347 H 0.69616 0.02201 0.33169 0.0
H348 H 0.71203 0.99228 0.34487 0.0
H349 H 0.75987 0.89412 0.50309 0.0
H350 H 0.78017 0.93605 0.45598 0.0
H351 H 0.71523 0.93932 0.44825 0.0
H352 H 0.69801 0.902 0.50902 0.0
H353 H 0.73933 0.98327 0.45302 0.0
H354 H 0.75376 0.92027 0.2792 0.0
H355 H 0.77181 0.89326 0.2446 0.0
H356 H 0.84574 0.96654 0.359 0.0
H357 H 0.82809 0.99393 0.39601 0.0
C358 C 0.77685 0.06927 0.22801 0.0
C359 C 0.80173 0.09362 0.25036 0.0
C360 C 0.77018 0.04468 0.25248 0.0
C361 C 0.78775 0.0428 0.30314 0.0
C362 C 0.81287 0.06675 0.32371 0.0
C363 C 0.81968 0.09136 0.29783 0.0
C364 C 0.77915 1.01773 0.3413 0.0
C365 C 0.78803 1.00018 0.33119 0.0
C366 C 0.76115 1.01043 0.38658 0.0
C367 C 0.75051 0.02736 0.39902 0.0
C368 C 0.76665 0.05675 0.42711 0.0
C369 C 0.75793 0.07323 0.41225 0.0
C370 C 0.73251 0.0608 0.37865 0.0
C371 C 0.71584 0.03166 0.35809 0.0
C372 C 0.72482 1.01488 0.36719 0.0
C373 C 0.74988 0.90377 0.49147 0.0
C374 C 0.72642 0.89299 0.50943 0.0
C375 C 0.76147 0.92811 0.46175 0.0
C376 C 0.74964 0.94216 0.44261 0.0
C377 C 0.72617 0.93086 0.46086 0.0
C378 C 0.71561 0.90816 0.49527 0.0
C379 C 0.76084 0.96835 0.40694 0.0
C380 C 0.75257 0.98677 0.41802 0.0
C381 C 0.77918 0.97598 0.36137 0.0
C382 C 0.78953 0.95912 0.34099 0.0
C383 C 0.77382 0.93066 0.297 0.0
C384 C 0.78399 0.91524 0.27711 0.0
C385 C 0.80988 0.92815 0.29934 0.0
C386 C 0.82567 0.95652 0.34196 0.0
C387 C 0.81559 0.97197 0.36275 0.0
H388 H 0.8177 0.91617 0.28352 0.0
H389 H 0.72579 0.07374 0.36806 0.0
H390 H 0.78007 0.55592 0.15871 0.0
H391 H 0.77569 0.59333 0.21661 0.0
H392 H 0.85113 0.65471 0.2128 0.0
H393 H 0.85615 0.61658 0.1605 0.0
H394 H 0.84745 0.67792 0.32836 0.0
H395 H 0.78849 0.63876 0.08 0.0
H396 H 0.7529 0.60795 0.96061 0.0
H397 H 0.70202 0.58154 0.10826 0.0
H398 H 0.73729 0.61206 0.2284 0.0
H399 H 0.79438 0.76745 0.36612 0.0
H400 H 0.81215 0.74175 0.3152 0.0
H401 H 0.77875 0.68506 0.45569 0.0
H402 H 0.76069 0.71009 0.50594 0.0
H403 H 0.76544 0.66609 0.2637 0.0
H404 H 0.83382 0.71951 0.51149 0.0
H405 H 0.87204 0.76243 0.60258 0.0
H406 H 0.90895 0.77356 0.41456 0.0
H407 H 0.87082 0.73107 0.32189 0.0
C408 C 0.79582 0.5774 0.17002 0.0
C409 C 0.81848 0.58304 0.15457 0.0
C410 C 0.79314 0.59908 0.20233 0.0
C411 C 0.81268 0.62753 0.2177 0.0
C412 C 0.8355 0.63325 0.20214 0.0
C413 C 0.83845 0.61135 0.17192 0.0
C414 C 0.80947 0.65073 0.25386 0.0
C415 C 0.82949 0.67522 0.31265 0.0
C416 C 0.78637 0.64843 0.23419 0.0
C417 C 0.7656 0.62732 0.16318 0.0
C418 C 0.76978 0.62588 0.08702 0.0
C419 C 0.74963 0.60864 0.0192 0.0
C420 C 0.72523 0.5927 0.02685 0.0
C421 C 0.72093 0.59379 0.10237 0.0
C422 C 0.74098 0.61103 0.17031 0.0
C423 C 0.79103 0.74974 0.38719 0.0
C424 C 0.77571 0.74089 0.43999 0.0
C425 C 0.80155 0.73525 0.35862 0.0
C426 C 0.79711 0.71156 0.38213 0.0
C427 C 0.78285 0.7035 0.43744 0.0
C428 C 0.77248 0.71799 0.46632 0.0
C429 C 0.80288 0.69204 0.33869 0.0
C430 C 0.78329 0.66839 0.27848 0.0
C431 C 0.82672 0.69617 0.35354 0.0
C432 C 0.84926 0.72224 0.40935 0.0
C433 C 0.8499 0.73134 0.4891 0.0
C434 C 0.87162 0.75556 0.54117 0.0
C435 C 0.89287 0.77077 0.51432 0.0
C436 C 0.89246 0.76182 0.4353 0.0
C437 C 0.8708 0.73769 0.38301 0.0
H438 H 0.90968 0.78943 0.55479 0.0
H439 H 0.70964 0.57961 0.97425 0.0
H440 H 0.11869 0.78058 0.65525 0.0
H441 H 0.08145 0.76395 0.55037 0.0
H442 H 0.11359 0.84793 0.52939 0.0
H443 H 0.15136 0.86468 0.63471 0.0
H444 H 0.05129 0.79719 0.53815 0.0
H445 H 0.11433 0.82645 0.36563 0.0
H446 H 0.15093 0.82928 0.3301 0.0
H447 H 0.12157 0.74518 0.34234 0.0
H448 H 0.08444 0.74161 0.37525 0.0
H449 H 0.94405 0.69523 0.20952 0.0
H450 H 0.98184 0.74252 0.27961 0.0
H451 H 1.02508 0.70645 0.30111 0.0
H452 H 0.98831 0.66055 0.22775 0.0
H453 H 0.0517 0.7527 0.27352 0.0
H454 H 0.99415 0.71832 0.44579 0.0
H455 H 0.95615 0.70642 0.48998 0.0
H456 H 0.97328 0.78886 0.50158 0.0
H457 H 1.01122 0.8011 0.45659 0.0
C458 C 0.11737 0.79556 0.62989 0.0
C459 C 0.13727 0.82381 0.65309 0.0
C460 C 0.09632 0.78612 0.57013 0.0
C461 C 0.09501 0.80488 0.53322 0.0
C462 C 0.11449 0.8334 0.55815 0.0
C463 C 0.13577 0.84288 0.61803 0.0
C464 C 0.07379 0.79342 0.46464 0.0
C465 C 0.05129 0.78816 0.47911 0.0
C466 C 0.07404 0.78126 0.38911 0.0
C467 C 0.09682 0.78389 0.37322 0.0
C468 C 0.1158 0.80866 0.36099 0.0
C469 C 0.1365 0.8103 0.34076 0.0
C470 C 0.13867 0.78751 0.33452 0.0
C471 C 0.11994 0.76287 0.34749 0.0
C472 C 0.09899 0.76095 0.3663 0.0
C473 C 0.96199 0.69801 0.22691 0.0
C474 C 0.96381 0.67486 0.21261 0.0
C475 C 0.98336 0.72474 0.26747 0.0
C476 C 1.00625 0.728 0.29566 0.0
C477 C 1.00782 0.70467 0.27872 0.0
C478 C 0.98687 0.67844 0.23682 0.0
C479 C 1.0286 0.75471 0.3479 0.0
C480 C 0.05153 0.76299 0.3305 0.0
C481 C 1.02846 0.76832 0.42214 0.0
C482 C 1.00517 0.76041 0.44616 0.0
C483 C 0.98961 0.73376 0.45673 0.0
C484 C 0.96814 0.72699 0.48217 0.0
C485 C 0.96223 0.74681 0.4981 0.0
C486 C 0.97779 0.77347 0.48876 0.0
C487 C 0.99924 0.78031 0.46317 0.0
H488 H 0.94565 0.74158 0.51801 0.0
H489 H 0.15481 0.78893 0.31943 0.0
H490 H 0.24486 0.92009 0.74669 0.0
H491 H 0.22656 0.93192 0.64278 0.0
H492 H 0.29459 0.96751 0.56643 0.0
H493 H 0.31297 0.95553 0.66949 0.0
H494 H 0.26845 0.9978 0.56897 0.0
H495 H 0.25685 0.90517 0.4623 0.0
H496 H 0.24315 0.85837 0.47885 0.0
H497 H 0.17149 0.8421 0.49149 0.0
H498 H 0.18463 0.88853 0.47471 0.0
H499 H 0.28643 0.97781 0.21818 0.0
H500 H 0.27483 0.96927 0.34 0.0
H501 H 0.20359 0.9562 0.24579 0.0
H502 H 0.216 0.96633 0.12217 0.0
H503 H 0.21187 0.91373 0.33666 0.0
H504 H 0.22655 1.00544 0.37621 0.0
H505 H 0.24724 0.05146 0.34892 0.0
H506 H 0.31909 0.07012 0.45932 0.0
H507 H 0.29898 0.02412 0.4869 0.0
C508 C 0.25613 0.93112 0.70905 0.0
C509 C 0.28028 0.93694 0.71581 0.0
C510 C 0.24568 0.93786 0.65015 0.0
C511 C 0.25933 0.95056 0.59785 0.0
C512 C 0.28404 0.95806 0.60759 0.0
C513 C 0.29451 0.95131 0.66645 0.0
C514 C 0.24706 0.95275 0.52651 0.0
C515 C 0.25536 0.97947 0.51877 0.0
C516 C 0.22998 0.92867 0.46181 0.0
C517 C 0.22167 0.90021 0.46734 0.0
C518 C 0.23812 0.89147 0.46809 0.0
C519 C 0.23045 0.86503 0.47727 0.0
C520 C 0.20641 0.84719 0.48531 0.0
C521 C 0.19001 0.85577 0.48439 0.0
C522 C 0.1975 0.88209 0.47483 0.0
C523 C 0.26822 0.97293 0.22306 0.0
C524 C 0.25189 0.9723 0.16139 0.0
C525 C 0.26163 0.96809 0.2924 0.0
C526 C 0.23834 0.96191 0.30086 0.0
C527 C 0.2215 0.96059 0.23892 0.0
C528 C 0.22847 0.96623 0.16902 0.0
C529 C 0.23367 0.95888 0.37838 0.0
C530 C 0.22296 0.93198 0.38834 0.0
C531 C 0.24883 0.98285 0.44494 0.0
C532 C 0.26117 1.01146 0.43452 0.0
C533 C 0.24677 1.01946 0.39529 0.0
C534 C 0.25843 0.04549 0.37954 0.0
C535 C 0.2845 0.06372 0.4027 0.0
C536 C 0.29895 0.056 0.442 0.0
C537 C 0.28742 0.03001 0.45807 0.0
H538 H 0.29352 0.0838 0.39004 0.0
H539 H 0.20054 0.82678 0.49268 0.0
H540 H 0.2816 0.80454 0.88053 0.0
H541 H 0.28759 0.76671 0.86587 0.0
H542 H 0.36373 0.82285 0.8575 0.0
H543 H 0.35756 0.86119 0.86844 0.0
H544 H 0.33783 0.77211 0.73942 0.0
H545 H 0.35147 0.80292 0.0241 0.0
H546 H 0.33992 0.81625 0.1433 0.0
H547 H 0.27195 0.73395 0.07802 0.0
H548 H 0.2829 0.72026 0.95773 0.0
H549 H 0.36817 0.67309 0.7761 0.0
H550 H 0.36809 0.71564 0.79715 0.0
H551 H 0.29267 0.66869 0.82199 0.0
H552 H 0.29274 0.62641 0.80184 0.0
H553 H 0.32103 0.71686 0.93499 0.0
H554 H 0.30426 0.68537 0.6521 0.0
H555 H 0.31189 0.67035 0.52582 0.0
H556 H 0.3811 0.75091 0.57893 0.0
H557 H 0.37413 0.76627 0.70631 0.0
C558 C 0.29979 0.80916 0.87638 0.0
C559 C 0.31917 0.836 0.8758 0.0
C560 C 0.30314 0.7874 0.86813 0.0
C561 C 0.32615 0.79213 0.86147 0.0
C562 C 0.34584 0.81897 0.86281 0.0
C563 C 0.3424 0.84087 0.87012 0.0
C564 C 0.32921 0.76866 0.85228 0.0
C565 C 0.33475 0.76035 0.78287 0.0
C566 C 0.32411 0.7528 0.90769 0.0
C567 C 0.31799 0.76061 -0.01822 0.0
C568 C 0.33405 0.78768 0.03512 0.0
C569 C 0.32759 0.79531 0.10281 0.0
C570 C 0.30521 0.77597 0.11819 0.0
C571 C 0.28929 0.74891 0.06607 0.0
C572 C 0.29563 0.74118 -0.00182 0.0
C573 C 0.35167 0.67202 0.78637 0.0
C574 C 0.33058 0.64672 0.78831 0.0
C575 C 0.3516 0.69617 0.79799 0.0
C576 C 0.33031 0.69511 0.8105 0.0
C577 C 0.30931 0.66988 0.81282 0.0
C578 C 0.30943 0.64585 0.8018 0.0
C579 C 0.32989 0.72037 0.82243 0.0
C580 C 0.32459 0.72887 0.89206 0.0
C581 C 0.33477 0.73604 0.76649 0.0
C582 C 0.33882 0.72688 0.68933 0.0
C583 C 0.32122 0.69982 0.63726 0.0
C584 C 0.32541 0.69124 0.56539 0.0
C585 C 0.347 0.70963 0.54449 0.0
C586 C 0.36441 0.73667 0.59528 0.0
C587 C 0.36035 0.74532 0.66731 0.0
H588 H 0.35022 0.70296 0.48885 0.0
H589 H 0.30021 0.78195 0.17053 0.0
H590 H 0.46095 0.13393 0.96672 0.0
H591 H 0.49908 0.13545 0.96447 0.0
H592 H 0.46342 0.05233 -0.0058 0.0
H593 H 0.42561 0.05142 0.00037 0.0
H594 H 0.50587 0.07505 0.07221 0.0
H595 H 0.48144 0.07233 0.80853 0.0
H596 H 0.4664 0.08414 0.69554 0.0
H597 H 0.53275 0.16794 0.77685 0.0
H598 H 0.54818 0.15665 0.89066 0.0
H599 H 0.61217 0.07072 0.03387 0.0
H600 H 0.57058 0.06209 0.00414 0.0
H601 H 0.60308 0.14771 8e-05 0.0
H602 H 0.64477 0.15593 0.02529 0.0
H603 H 0.55995 0.11934 0.89816 0.0
H604 H 0.57872 0.11287 0.17533 0.0
H605 H 0.58829 0.09071 0.26904 0.0
H606 H 0.52441 1.00966 0.12846 0.0
H607 H 0.51455 0.03138 0.03414 0.0
C608 C 0.46107 0.11586 0.97278 0.0
C609 C 0.43973 0.09259 -0.01571 0.0
C610 C 0.48313 0.1166 0.9705 0.0
C611 C 0.48488 0.09387 0.97796 0.0
C612 C 0.46337 0.07047 -0.0114 0.0
C613 C 0.4414 0.06988 -0.00808 0.0
C614 C 0.50917 0.09502 0.97855 0.0
C615 C 0.51733 0.08452 0.03302 0.0
C616 C 0.52476 0.10677 0.92738 0.0
C617 C 0.51587 0.11372 0.85861 0.0
C618 C 0.49279 0.09333 0.80255 0.0
C619 C 0.4842 0.0999 0.73827 0.0
C620 C 0.49858 0.12679 0.72913 0.0
C621 C 0.52164 0.14711 0.78404 0.0
C622 C 0.53035 0.14062 0.84834 0.0
C623 C 0.6107 0.08794 0.02725 0.0
C624 C 0.63261 0.11436 0.03437 0.0
C625 C 0.58651 0.08299 0.01069 0.0
C626 C 0.58286 0.10448 0.00317 0.0
C627 C 0.60462 0.13054 0.00664 0.0
C628 C 0.62883 0.13532 0.02141 0.0
C629 C 0.55697 0.10025 -0.00607 0.0
C630 C 0.54846 0.11005 0.93746 0.0
C631 C 0.54027 0.08645 0.04024 0.0
C632 C 0.54603 0.0737 0.09781 0.0
C633 C 0.56676 0.09034 0.16466 0.0
C634 C 0.57222 0.07786 0.21777 0.0
C635 C 0.55699 0.0488 0.20466 0.0
C636 C 0.53619 0.03216 0.1386 0.0
C637 C 0.53063 0.04454 0.08546 0.0
H638 H 0.56129 0.03918 0.24576 0.0
H639 H 0.49188 0.13187 0.67944 0.0
H640 H 0.5935 0.76804 0.66128 0.0
H641 H 0.55368 0.72929 0.67034 0.0
H642 H 0.57488 0.67222 0.59694 0.0
H643 H 0.61434 0.71115 0.58322 0.0
H644 H 0.53157 0.63996 0.54821 0.0
H645 H 0.563 0.69947 0.81233 0.0
H646 H 0.5796 0.741 0.9258 0.0
H647 H 0.51603 0.74379 0.84417 0.0
H648 H 0.49911 0.70237 0.72999 0.0
H649 H 0.41993 0.52323 0.61489 0.0
H650 H 0.46237 0.56204 0.62207 0.0
H651 H 0.44045 0.61995 0.66314 0.0
H652 H 0.39858 0.58142 0.66068 0.0
H653 H 0.48507 0.65109 0.73496 0.0
H654 H 0.45706 0.58795 0.46162 0.0
H655 H 0.44234 0.54233 0.36922 0.0
H656 H 0.50423 0.54417 0.4981 0.0
H657 H 0.51924 0.58973 0.59102 0.0
C658 C 0.58999 0.74732 0.64669 0.0
C659 C 0.6083 0.74389 0.62067 0.0
C660 C 0.56662 0.72447 0.65331 0.0
C661 C 0.55972 0.6962 0.63643 0.0
C662 C 0.57821 0.69285 0.61082 0.0
C663 C 0.60149 0.71572 0.60298 0.0
C664 C 0.53357 0.67057 0.64178 0.0
C665 C 0.52199 0.64304 0.59043 0.0
C666 C 0.51928 0.67228 0.69574 0.0
C667 C 0.52999 0.69806 0.76182 0.0
C668 C 0.55273 0.70915 0.81799 0.0
C669 C 0.56213 0.73261 0.88263 0.0
C670 C 0.54893 0.7451 0.89197 0.0
C671 C 0.52628 0.73416 0.83671 0.0
C672 C 0.51677 0.71068 0.77204 0.0
C673 C 0.42384 0.54411 0.62506 0.0
C674 C 0.40446 0.54794 0.63595 0.0
C675 C 0.44873 0.56698 0.62812 0.0
C676 C 0.45607 0.59543 0.64015 0.0
C677 C 0.43671 0.59915 0.65275 0.0
C678 C 0.41203 0.57642 0.65089 0.0
C679 C 0.48308 0.62093 0.64016 0.0
C680 C 0.49476 0.64837 0.69255 0.0
C681 C 0.498 0.61903 0.58957 0.0
C682 C 0.48914 0.59203 0.53313 0.0
C683 C 0.46748 0.57856 0.46999 0.0
C684 C 0.4591 0.55275 0.41764 0.0
C685 C 0.47232 0.54035 0.42784 0.0
C686 C 0.49401 0.55379 0.49021 0.0
C687 C 0.50249 0.57962 0.54256 0.0
H688 H 0.46578 0.52034 0.38737 0.0
H689 H 0.5562 0.76319 0.94217 0.0
H690 H 0.84991 0.44574 -0.00135 0.0
H691 H 0.85022 0.40426 0.00573 0.0
H692 H 0.77977 0.36754 0.06694 0.0
H693 H 0.77939 0.40875 0.05975 0.0
H694 H 0.80513 0.35733 0.1565 0.0
H695 H 0.78561 0.34134 0.88711 0.0
H696 H 0.78556 0.34793 0.75321 0.0
H697 H 0.8561 0.35704 0.77313 0.0
H698 H 0.85693 0.35116 0.90838 0.0
H699 H 0.7822 0.22058 0.10616 0.0
H700 H 0.78087 0.25927 0.07831 0.0
H701 H 0.85998 0.30628 0.09827 0.0
H702 H 0.86155 0.26716 0.12742 0.0
H703 H 0.82864 0.30955 0.96185 0.0
H704 H 0.83699 0.31961 0.25189 0.0
H705 H 0.82121 0.30074 0.36164 0.0
H706 H 0.75035 0.28709 0.26399 0.0
H707 H 0.76558 0.30549 0.15323 0.0
C708 C 0.8343 0.42874 0.0128 0.0
C709 C 0.81458 0.43101 0.02825 0.0
C710 C 0.83445 0.40475 0.01673 0.0
C711 C 0.81502 0.38211 0.03708 0.0
C712 C 0.79521 0.38432 0.05158 0.0
C713 C 0.79491 0.40809 0.04679 0.0
C714 C 0.81572 0.35683 0.04619 0.0
C715 C 0.81027 0.34706 0.11332 0.0
C716 C 0.82142 0.34202 -0.01061 0.0
C717 C 0.82158 0.34632 0.90883 0.0
C718 C 0.80136 0.34521 0.86367 0.0
C719 C 0.80113 0.34872 0.78734 0.0
C720 C 0.82088 0.35304 0.75483 0.0
C721 C 0.84088 0.35382 0.79862 0.0
C722 C 0.84125 0.35042 0.87524 0.0
C723 C 0.79951 0.23899 0.10462 0.0
C724 C 0.82208 0.24023 0.12004 0.0
C725 C 0.79866 0.26141 0.08853 0.0
C726 C 0.82028 0.28634 0.08627 0.0
C727 C 0.84286 0.28758 0.0996 0.0
C728 C 0.84381 0.26511 0.11701 0.0
C729 C 0.81921 0.31113 0.07399 0.0
C730 C 0.82418 0.32047 0.00562 0.0
C731 C 0.81114 0.32422 0.12643 0.0
C732 C 0.8024 0.31381 0.19421 0.0
C733 C 0.81803 0.31249 0.25376 0.0
C734 C 0.80917 0.30187 0.31611 0.0
C735 C 0.78479 0.29269 0.31975 0.0
C736 C 0.76922 0.29419 0.26117 0.0
C737 C 0.77797 0.30474 0.19868 0.0
H738 H 0.77796 0.28445 0.36801 0.0
H739 H 0.82064 0.35566 0.69559 0.0
H740 H 0.48313 0.97385 -0.01595 0.0
H741 H 0.51675 0.96656 0.00156 0.0
H742 H 0.46433 0.8789 0.87344 0.0
H743 H 0.43011 0.88571 0.85893 0.0
H744 H 0.4989 0.88699 -0.00141 0.0
H745 H 0.49629 0.92154 0.77395 0.0
H746 H 0.49484 0.95286 0.69906 0.0
H747 H 0.5658 0.02232 0.85326 0.0
H748 H 0.56756 0.99141 0.92958 0.0
H749 H 0.56722 0.85078 0.80009 0.0
H750 H 0.53938 0.86388 0.83873 0.0
H751 H 0.60293 0.94252 -0.00253 0.0
H752 H 0.63111 0.92955 0.95753 0.0
H753 H 0.56704 0.94362 0.87748 0.0
H754 H 0.56905 0.90008 0.08649 0.0
H755 H 0.56899 0.86163 0.12669 0.0
H756 H 0.49586 0.80172 0.96721 0.0
H757 H 0.49561 0.83981 0.92547 0.0
C758 C 0.47861 0.95285 0.96154 0.0
C759 C 0.45414 0.93033 0.91981 0.0
C760 C 0.49783 0.94882 0.97108 0.0
C761 C 0.49284 0.92236 0.93784 0.0
C762 C 0.4683 0.89947 0.89926 0.0
C763 C 0.44895 0.90344 0.89029 0.0
C764 C 0.51359 0.91918 0.93807 0.0
C765 C 0.5139 0.89947 0.97272 0.0
C766 C 0.53292 0.93549 0.90362 0.0
C767 C 0.53189 0.95425 0.85823 0.0
C768 C 0.51147 0.94355 0.7924 0.0
C769 C 0.51062 0.9612 0.74953 0.0
C770 C 0.53017 0.98958 0.77156 0.0
C771 C 0.55065 1.00034 0.83636 0.0
C772 C 0.55159 0.98275 0.87941 0.0
C773 C 0.57509 0.87056 0.84444 0.0
C774 C 0.60095 0.88919 0.87679 0.0
C775 C 0.55934 0.878 0.8662 0.0
C776 C 0.56938 0.90394 0.92112 0.0
C777 C 0.59518 0.92235 0.95537 0.0
C778 C 0.61105 0.91487 0.93344 0.0
C779 C 0.55245 0.91183 0.93897 0.0
C780 C 0.55262 0.93212 0.90656 0.0
C781 C 0.53317 0.89543 0.97293 0.0
C782 C 0.53221 0.87283 0.00351 0.0
C783 C 0.55286 0.87873 0.0606 0.0
C784 C 0.55293 0.85699 0.08338 0.0
C785 C 0.53239 0.82926 0.04971 0.0
C786 C 0.51168 0.82323 -0.00642 0.0
C787 C 0.51152 0.8449 0.9706 0.0
H788 H 0.53255 0.81243 0.06699 0.0
H789 H 0.52949 1.00322 0.73827 0.0
H790 H 0.66898 0.34061 0.74537 0.0
H791 H 0.63022 0.30276 0.76319 0.0
H792 H 0.6053 0.35804 0.80585 0.0
H793 H 0.64363 0.39564 0.78728 0.0
H794 H 0.61759 0.34165 0.94269 0.0
H795 H 0.56981 0.30492 0.67282 0.0
H796 H 0.56627 0.29108 0.52958 0.0
H797 H 0.57244 0.22318 0.55797 0.0
H798 H 0.57672 0.23713 0.70214 0.0
H799 H 0.50063 0.26272 -0.00465 0.0
H800 H 0.5402 0.29171 0.96811 0.0
H801 H 0.54792 0.22186 0.91998 0.0
H802 H 0.50676 0.19178 0.94321 0.0
H803 H 0.54805 0.24367 0.79437 0.0
H804 H 0.59018 0.28044 0.07379 0.0
H805 H 0.58689 0.29409 0.20921 0.0
H806 H 0.58587 0.36289 0.15899 0.0
H807 H 0.58871 0.34938 0.02265 0.0
C808 C 0.65439 0.34398 0.7523 0.0
C809 C 0.65962 0.37114 0.76941 0.0
C810 C 0.63256 0.32261 0.76417 0.0
C811 C 0.61589 0.32848 0.78941 0.0
C812 C 0.61858 0.35375 0.78851 0.0
C813 C 0.64027 0.37497 0.77601 0.0
C814 C 0.59821 0.31015 0.82834 0.0
C815 C 0.60235 0.32021 0.91071 0.0
C816 C 0.57885 0.28238 0.78591 0.0
C817 C 0.57375 0.27215 0.69833 0.0
C818 C 0.57038 0.287 0.64852 0.0
C819 C 0.56834 0.27922 0.56723 0.0
C820 C 0.56918 0.25629 0.53471 0.0
C821 C 0.57181 0.24095 0.58333 0.0
C822 C 0.57404 0.24877 0.66487 0.0
C823 C 0.51135 0.25389 -0.0164 0.0
C824 C 0.50093 0.22525 0.97059 0.0
C825 C 0.53396 0.27046 0.96773 0.0
C826 C 0.54689 0.25882 0.9428 0.0
C827 C 0.53799 0.23095 0.93948 0.0
C828 C 0.51486 0.21404 0.95356 0.0
C829 C 0.5674 0.27499 0.90899 0.0
C830 C 0.56382 0.26475 0.8272 0.0
C831 C 0.58703 0.30279 0.95199 0.0
C832 C 0.59 0.31407 0.03797 0.0
C833 C 0.58977 0.29883 0.09206 0.0
C834 C 0.58774 0.30638 0.16879 0.0
C835 C 0.58626 0.3294 0.19277 0.0
C836 C 0.58719 0.34517 0.14044 0.0
C837 C 0.58915 0.33767 0.06348 0.0
H838 H 0.58431 0.33497 0.25179 0.0
H839 H 0.56777 0.2504 0.47181 0.0
H840 H 0.30836 0.51451 0.43544 0.0
H841 H 0.29724 0.5142 0.30167 0.0
H842 H 0.25232 0.42349 0.22796 0.0
H843 H 0.26626 0.42394 0.36372 0.0
H844 H 0.29661 0.44236 0.21087 0.0
H845 H 0.24059 0.47234 0.14003 0.0
H846 H 0.22711 0.50338 0.18659 0.0
H847 H 0.30117 0.57575 0.2206 0.0
H848 H 0.31511 0.5452 0.17444 0.0
H849 H 0.31547 0.43392 0.83151 0.0
H850 H 0.30406 0.43283 0.9567 0.0
H851 H 0.34913 0.52339 0.03624 0.0
H852 H 0.36013 0.52468 0.90941 0.0
H853 H 0.30403 0.50525 0.04507 0.0
H854 H 0.36234 0.48518 0.13724 0.0
H855 H 0.38633 0.4637 0.14297 0.0
H856 H 0.31893 0.38352 0.11335 0.0
H857 H 0.29446 0.4044 0.1063 0.0
C858 C 0.29564 0.49437 0.39115 0.0
C859 C 0.2903 0.46937 0.40683 0.0
C860 C 0.28836 0.49411 0.31388 0.0
C861 C 0.27545 0.46874 0.25305 0.0
C862 C 0.26353 0.4434 0.27388 0.0
C863 C 0.27197 0.44362 0.35084 0.0
C864 C 0.28508 0.46922 0.18186 0.0
C865 C 0.29708 0.4551 0.17217 0.0
C866 C 0.28824 0.48823 0.13724 0.0
C867 C 0.2788 0.50641 0.15274 0.0
C868 C 0.25387 0.49487 0.15603 0.0
C869 C 0.2462 0.51239 0.18284 0.0
C870 C 0.26326 0.54151 0.2063 0.0
C871 C 0.28792 0.55319 0.20177 0.0
C872 C 0.29567 0.53578 0.1746 0.0
C873 C 0.32365 0.45363 0.87649 0.0
C874 C 0.33816 0.47937 0.86001 0.0
C875 C 0.31714 0.45298 0.94827 0.0
C876 C 0.32548 0.47806 0.00506 0.0
C877 C 0.34221 0.50384 -0.00764 0.0
C878 C 0.34856 0.50451 0.92015 0.0
C879 C 0.31397 0.47697 0.07176 0.0
C880 C 0.30234 0.49149 0.08159 0.0
C881 C 0.31198 0.45926 0.11951 0.0
C882 C 0.32649 0.44631 0.11998 0.0
C883 C 0.35256 0.46288 0.13066 0.0
C884 C 0.36627 0.45083 0.13452 0.0
C885 C 0.35415 0.42225 0.12816 0.0
C886 C 0.32829 0.40564 0.11799 0.0
C887 C 0.31449 0.41758 0.11405 0.0
H888 H 0.3648 0.41298 0.13138 0.0
H889 H 0.25738 0.55502 0.22824 0.0
H890 H 0.76869 0.10033 0.92244 0.0
H891 H 0.76031 0.09913 0.78371 0.0
H892 H 0.83925 0.1579 0.81218 0.0
H893 H 0.8478 0.16019 0.95256 0.0
H894 H 0.8166 0.17995 0.76896 0.0
H895 H 0.80522 0.09405 0.6699 0.0
H896 H 0.79201 0.04492 0.64715 0.0
H897 H 0.71523 1.01691 0.56601 0.0
H898 H 0.72794 0.06599 0.58922 0.0
H899 H 0.83552 0.16923 0.42 0.0
H900 H 0.81856 0.1498 0.52381 0.0
H901 H 0.75748 0.15908 0.46149 0.0
H902 H 0.77441 0.1787 0.35423 0.0
H903 H 0.75503 0.1045 0.52548 0.0
H904 H 0.78173 0.20002 0.59305 0.0
H905 H 0.80679 0.24727 0.5754 0.0
H906 H 0.87449 0.25475 0.67664 0.0
H907 H 0.84984 0.20713 0.69239 0.0
C908 C 0.78445 0.11234 0.89893 0.0
C909 C 0.80879 0.13136 0.94948 0.0
C910 C 0.77959 0.11148 0.81907 0.0
C911 C 0.79908 0.12912 0.78843 0.0
C912 C 0.82387 0.14468 0.83556 0.0
C913 C 0.82874 0.14581 0.91578 0.0
C914 C 0.79314 0.13506 0.71371 0.0
C915 C 0.80374 0.16326 0.71496 0.0
C916 C 0.77562 0.11343 0.64403 0.0
C917 C 0.76748 0.08382 0.63349 0.0
C918 C 0.78545 0.07748 0.6488 0.0
C919 C 0.77808 0.04962 0.63535 0.0
C920 C 0.75277 0.02783 0.60615 0.0
C921 C 0.73481 0.03385 0.58953 0.0
C922 C 0.74208 0.0617 0.60282 0.0
C923 C 0.81846 0.16725 0.42764 0.0
C924 C 0.80682 0.1766 0.3812 0.0
C925 C 0.80856 0.15561 0.48614 0.0
C926 C 0.78706 0.15347 0.50039 0.0
C927 C 0.77419 0.16081 0.45094 0.0
C928 C 0.78407 0.17236 0.39099 0.0
C929 C 0.78199 0.14853 0.57628 0.0
C930 C 0.76863 0.1207 0.57856 0.0
C931 C 0.7989 0.17027 0.64616 0.0
C932 C 0.81387 0.19999 0.64426 0.0
C933 C 0.80196 0.21176 0.61179 0.0
C934 C 0.8161 0.23856 0.60172 0.0
C935 C 0.84222 0.25403 0.62504 0.0
C936 C 0.85425 0.24276 0.65879 0.0
C937 C 0.84019 0.21585 0.66837 0.0
H938 H 0.85314 0.27473 0.61692 0.0
H939 H 0.74709 1.00627 0.59598 0.0
H940 H 0.66738 0.85775 0.4207 0.0
H941 H 0.6937 0.87655 0.33311 0.0
H942 H 0.67807 0.79475 0.22986 0.0
H943 H 0.65596 0.77744 0.3295 0.0
H944 H 0.72245 0.82876 0.23626 0.0
H945 H 0.64935 0.83843 0.15176 0.0
H946 H 0.62812 0.86023 0.20203 0.0
H947 H 0.69799 0.94107 0.28037 0.0
H948 H 0.71939 0.91987 0.22927 0.0
H949 H 0.70609 0.79896 0.83106 0.0
H950 H 0.70955 0.80771 0.97328 0.0
H951 H 0.7395 0.89501 -0.00418 0.0
H952 H 0.7353 0.88608 0.85232 0.0
H953 H 0.70518 0.87851 0.06358 0.0
H954 H 0.77408 0.87391 0.10076 0.0
H955 H 0.80322 0.85992 0.08255 0.0
H956 H 0.75259 0.78048 0.12054 0.0
H957 H 0.72293 0.79376 0.13796 0.0
C958 C 0.66958 0.84374 0.3795 0.0
C959 C 0.66005 0.8163 0.3839 0.0
C960 C 0.68441 0.85448 0.32788 0.0
C961 C 0.68769 0.83719 0.27242 0.0
C962 C 0.67626 0.80892 0.27217 0.0
C963 C 0.66298 0.79873 0.32799 0.0
C964 C 0.70235 0.84773 0.21323 0.0
C965 C 0.71829 0.83915 0.19749 0.0
C966 C 0.69957 0.86435 0.16812 0.0
C967 C 0.68597 0.8775 0.18722 0.0
C968 C 0.66002 0.86092 0.17824 0.0
C969 C 0.648 0.87317 0.20727 0.0
C970 C 0.6617 0.902 0.24453 0.0
C971 C 0.68737 0.91875 0.25144 0.0
C972 C 0.69945 0.90664 0.22215 0.0
C973 C 0.71405 0.8202 0.86641 0.0
C974 C 0.72018 0.84172 0.82985 0.0
C975 C 0.71621 0.82528 0.94835 0.0
C976 C 0.72488 0.85211 -0.00382 0.0
C977 C 0.73263 0.87409 0.96061 0.0
C978 C 0.7303 0.86895 0.87839 0.0
C979 C 0.72222 0.85574 0.07941 0.0
C980 C 0.70934 0.86792 0.10157 0.0
C981 C 0.72858 0.84329 0.13195 0.0
C982 C 0.74613 0.83481 0.12016 0.0
C983 C 0.76899 0.85333 0.10447 0.0
C984 C 0.78566 0.84555 0.0945 0.0
C985 C 0.77973 0.81931 0.10019 0.0
C986 C 0.75715 0.80081 0.11611 0.0
C987 C 0.74042 0.80849 0.12623 0.0
H988 H 0.79265 0.81331 0.09237 0.0
H989 H 0.65242 0.91137 0.26801 0.0
H990 H 0.78342 0.52851 0.86686 0.0
H991 H 0.77541 0.53553 0.73584 0.0
H992 H 0.83494 0.52729 0.68559 0.0
H993 H 0.84385 0.52252 0.81752 0.0
H994 H 0.83076 0.55846 0.60315 0.0
H995 H 0.75469 0.46013 0.6472 0.0
H996 H 0.71673 0.44042 0.69466 0.0
H997 H 0.70104 0.49636 0.61345 0.0
H998 H 0.73905 0.51613 0.56438 0.0
H999 H 0.83411 0.48297 0.31165 0.0
H1000 H 0.8203 0.47672 0.43332 0.0
H1001 H 0.75484 0.47385 0.33028 0.0
H1002 H 0.76754 0.47865 0.20983 0.0
H1003 H 0.75256 0.46455 0.46974 0.0
H1004 H 0.81227 0.54643 0.37859 0.0
H1005 H 0.84618 0.56718 0.31157 0.0
H1006 H 0.88933 0.5488 0.46407 0.0
H1007 H 0.856 0.52881 0.53352 0.0
C1008 C 0.79508 0.52903 0.8278 0.0
C1009 C 0.81393 0.52458 0.85007 0.0
C1010 C 0.79053 0.53303 0.75339 0.0
C1011 C 0.80418 0.53142 0.70006 0.0
C1012 C 0.82425 0.529 0.72565 0.0
C1013 C 0.82922 0.52586 0.80054 0.0
C1014 C 0.79506 0.52594 0.61388 0.0
C1015 C 0.81335 0.53833 0.57306 0.0
C1016 C 0.77178 0.5008 0.57192 0.0
C1017 C 0.7497 0.48976 0.60362 0.0
C1018 C 0.74316 0.46825 0.64003 0.0
C1019 C 0.72164 0.45713 0.66728 0.0
C1020 C 0.70651 0.46733 0.65819 0.0
C1021 C 0.71286 0.48863 0.62119 0.0
C1022 C 0.7344 0.49982 0.5937 0.0
C1023 C 0.81603 0.47917 0.31347 0.0
C1024 C 0.80276 0.48334 0.25473 0.0
C1025 C 0.80803 0.47541 0.38245 0.0
C1026 C 0.78786 0.47745 0.39175 0.0
C1027 C 0.77113 0.47358 0.32501 0.0
C1028 C 0.77874 0.4768 0.25617 0.0
C1029 C 0.79015 0.4948 0.46663 0.0
C1030 C 0.76979 0.4849 0.49957 0.0
C1031 C 0.81122 0.52288 0.49967 0.0
C1032 C 0.83173 0.53615 0.46089 0.0
C1033 C 0.82912 0.54712 0.3982 0.0
C1034 C 0.84824 0.55877 0.35995 0.0
C1035 C 0.86986 0.55923 0.38342 0.0
C1036 C 0.87261 0.5485 0.44611 0.0
C1037 C 0.85376 0.53729 0.48545 0.0
H1038 H 0.88447 0.5679 0.35312 0.0
H1039 H 0.6898 0.45863 0.6793 0.0
H1040 H 0.26647 0.87645 0.02365 0.0
H1041 H 0.26991 0.86841 0.15172 0.0
H1042 H 0.34011 0.94962 0.24711 0.0
H1043 H 0.33845 0.95598 0.11285 0.0
H1044 H 0.34364 0.90889 0.28077 0.0
H1045 H 0.27831 0.92732 0.26956 0.0
H1046 H 0.23736 0.91554 0.19583 0.0
H1047 H 0.20043 0.83466 0.23577 0.0
H1048 H 0.24087 0.84377 0.29894 0.0
H1049 H 0.3304 0.90806 0.67341 0.0
H1050 H 0.34198 0.91344 0.55033 0.0
H1051 H 0.28078 0.82777 0.43164 0.0
H1052 H 0.2703 0.82185 0.55842 0.0
H1053 H 0.27547 0.87293 0.41572 0.0
H1054 H 0.32791 0.84187 0.37867 0.0
H1055 H 0.36309 0.83689 0.41184 0.0
H1056 H 0.4154 0.92481 0.44354 0.0
H1057 H 0.38048 0.9304 0.41114 0.0
C1058 C 0.28234 0.89307 0.07213 0.0
C1059 C 0.30241 0.91653 0.05838 0.0
C1060 C 0.28424 0.88845 0.14572 0.0
C1061 C 0.305 0.90864 0.20934 0.0
C1062 C 0.32388 0.93386 0.19834 0.0
C1063 C 0.3227 0.93776 0.12242 0.0
C1064 C 0.30764 0.90167 0.28434 0.0
C1065 C 0.32893 0.90153 0.31139 0.0
C1066 C 0.28758 0.89042 0.32071 0.0
C1067 C 0.26301 0.88636 0.2894 0.0
C1068 C 0.26155 0.90695 0.26251 0.0
C1069 C 0.23842 0.90067 0.22188 0.0
C1070 C 0.21644 0.87481 0.2129 0.0
C1071 C 0.21748 0.85478 0.24299 0.0
C1072 C 0.24057 0.8603 0.27995 0.0
C1073 C 0.32082 0.88978 0.62318 0.0
C1074 C 0.29981 0.86464 0.62557 0.0
C1075 C 0.32738 0.89283 0.55237 0.0
C1076 C 0.31226 0.87098 0.48246 0.0
C1077 C 0.29281 0.8447 0.48584 0.0
C1078 C 0.28656 0.84153 0.55757 0.0
C1079 C 0.31061 0.87899 0.40921 0.0
C1080 C 0.28998 0.88019 0.38452 0.0
C1081 C 0.33034 0.88955 0.37246 0.0
C1082 C 0.35155 0.88663 0.39346 0.0
C1083 C 0.34691 0.86024 0.39366 0.0
C1084 C 0.36681 0.85727 0.41198 0.0
C1085 C 0.39147 0.88055 0.43009 0.0
C1086 C 0.39627 0.90682 0.42963 0.0
C1087 C 0.37643 0.90988 0.41112 0.0
H1088 H 0.40684 0.87821 0.44425 0.0
H1089 H 0.19862 0.87023 0.18205 0.0
H1090 H 0.38264 0.07073 0.78821 0.0
H1091 H 0.3938 0.09023 0.67772 0.0
H1092 H 0.32445 0.08464 0.6236 0.0
H1093 H 0.3145 0.06832 0.74144 0.0
H1094 H 0.35748 0.06118 0.51138 0.0
H1095 H 0.34148 0.12995 0.63115 0.0
H1096 H 0.34436 0.16472 0.74019 0.0
H1097 H 0.42423 0.2158 0.78161 0.0
H1098 H 0.42191 0.18022 0.67651 0.0
H1099 H 0.36519 0.11569 0.20393 0.0
H1100 H 0.3597 0.11723 0.33437 0.0
H1101 H 0.43573 0.14269 0.42197 0.0
H1102 H 0.44202 0.14414 0.28708 0.0
H1103 H 0.39986 0.16181 0.52243 0.0
H1104 H 0.41081 0.08154 0.41438 0.0
H1105 H 0.40274 0.0435 0.30267 0.0
H1106 H 0.32646 1.01768 0.22504 0.0
H1107 H 0.33405 0.05534 0.33653 0.0
C1108 C 0.36963 0.0735 0.75271 0.0
C1109 C 0.34786 0.06846 0.77378 0.0
C1110 C 0.37631 0.0852 0.69072 0.0
C1111 C 0.36084 0.09086 0.64665 0.0
C1112 C 0.33762 0.0827 0.66135 0.0
C1113 C 0.33152 0.07239 0.72651 0.0
C1114 C 0.36819 0.10184 0.57916 0.0
C1115 C 0.36674 0.08323 0.51411 0.0
C1116 C 0.38015 0.13064 0.58291 0.0
C1117 C 0.38159 0.15145 0.64876 0.0
C1118 C 0.35974 0.14778 0.66607 0.0
C1119 C 0.36126 0.16787 0.72668 0.0
C1120 C 0.3845 0.19228 0.76869 0.0
C1121 C 0.40623 0.19674 0.74964 0.0
C1122 C 0.40483 0.17646 0.69006 0.0
C1123 C 0.38166 0.12498 0.25103 0.0
C1124 C 0.40455 0.13226 0.23524 0.0
C1125 C 0.37825 0.12488 0.32631 0.0
C1126 C 0.39737 0.13046 0.38774 0.0
C1127 C 0.42091 0.13889 0.3748 0.0
C1128 C 0.42452 0.1398 0.29824 0.0
C1129 C 0.39013 0.12131 0.45767 0.0
C1130 C 0.39118 0.14002 0.52174 0.0
C1131 C 0.37714 0.09252 0.45286 0.0
C1132 C 0.37307 0.07128 0.383 0.0
C1133 C 0.39241 0.06787 0.37286 0.0
C1134 C 0.38786 0.04629 0.30995 0.0
C1135 C 0.36406 0.02812 0.2569 0.0
C1136 C 0.34481 0.03162 0.26636 0.0
C1137 C 0.34922 0.05305 0.32934 0.0
H1138 H 0.36053 1.01136 0.20841 0.0
H1139 H 0.38565 0.20787 0.81535 0.0
loop_
_geom_bond_atom_site_label_1
_geom_bond_atom_site_label_2
_geom_bond_distance
_geom_bond_site_symmetry_2
_ccdc_geom_bond_type
Dy0 O3 2.307 . S
Dy0 O5 2.395 . S
Dy0 O6 2.379 . S
Dy0 O8 2.339 . S
Dy0 O10 2.298 . S
Dy0 O14 2.275 . S
Dy0 C22 2.738 . S
Dy1 O4 2.298 . S
Dy1 O7 2.275 . S
Dy1 O9 2.307 . S
Dy1 O11 2.395 . S
Dy1 O12 2.379 . S
Dy1 O15 2.339 . S
Dy1 C31 2.738 . S
C2 O14 1.254 . S
C2 O15 1.257 . S
O3 Dy0 2.307 . S
O3 C13 1.266 . S
O4 Dy1 2.298 . S
O4 C13 1.236 . S
O5 Dy0 2.395 . S
O5 C22 1.255 . S
O6 Dy0 2.379 . S
O6 C22 1.249 . S
O7 Dy1 2.275 . S
O7 C23 1.254 . S
O8 Dy0 2.339 . S
O8 C23 1.257 . S
O9 Dy1 2.307 . S
O9 C24 1.266 . S
O10 Dy0 2.298 . S
O10 C24 1.236 . S
O11 Dy1 2.395 . S
O11 C31 1.255 . S
O12 Dy1 2.379 . S
O12 C31 1.249 . S
C13 O3 1.266 . S
C13 O4 1.236 . S
O14 Dy0 2.275 . S
O14 C2 1.254 . S
O15 Dy1 2.339 . S
O15 C2 1.257 . S
C16 C19 1.344 . S
C16 C20 1.328 . S
C16 C22 1.516 . S
C17 C18 1.304 . S
C17 C21 1.323 . S
C18 C17 1.304 . S
C18 C19 1.371 . S
C18 H32 0.930 . S
C19 C16 1.344 . S
C19 C18 1.371 . S
C19 H33 0.931 . S
C20 C16 1.328 . S
C20 C21 1.433 . S
C20 H34 0.931 . S
C21 C17 1.323 . S
C21 C20 1.433 . S
C21 H35 0.933 . S
C22 Dy0 2.738 . S
C22 O5 1.255 . S
C22 O6 1.249 . S
C22 C16 1.516 . S
C23 O7 1.254 . S
C23 O8 1.257 . S
C24 O9 1.266 . S
C24 O10 1.236 . S
C25 C28 1.344 . S
C25 C29 1.328 . S
C25 C31 1.516 . S
C26 C27 1.304 . S
C26 C30 1.323 . S
C27 C26 1.304 . S
C27 C28 1.371 . S
C27 H36 0.930 . S
C28 C25 1.344 . S
C28 C27 1.371 . S
C28 H37 0.931 . S
C29 C25 1.328 . S
C29 C30 1.433 . S
C29 H38 0.931 . S
C30 C26 1.323 . S
C30 C29 1.433 . S
C30 H39 0.933 . S
C31 Dy1 2.738 . S
C31 O11 1.255 . S
C31 O12 1.249 . S
C31 C25 1.516 . S
H32 C18 0.930 . S
H33 C19 0.931 . S
H34 C20 0.931 . S
H35 C21 0.933 . S
H36 C27 0.930 . S
H37 C28 0.931 . S
H38 C29 0.931 . S
H39 C30 0.933 . S
Dy40 O43 2.307 . S
Dy40 O45 2.395 1_554 S
Dy40 O46 2.379 . S
Dy40 O48 2.339 . S
Dy40 O50 2.298 . S
Dy40 O54 2.275 1_554 S
Dy40 C62 2.738 . S
Dy41 O44 2.298 . S
Dy41 O47 2.275 . S
Dy41 O49 2.307 . S
Dy41 O51 2.395 . S
Dy41 O52 2.379 . S
Dy41 O55 2.339 1_554 S
Dy41 C71 2.738 . S
C42 O54 1.254 . S
C42 O55 1.257 . S
O43 Dy40 2.307 . S
O43 C53 1.266 . S
O44 Dy41 2.298 . S
O44 C53 1.236 . S
O45 Dy40 2.395 1_556 S
O45 C62 1.255 1_556 S
O46 Dy40 2.379 . S
O46 C62 1.249 . S
O47 Dy41 2.275 . S
O47 C63 1.254 . S
O48 Dy40 2.339 . S
O48 C63 1.257 . S
O49 Dy41 2.307 . S
O49 C64 1.266 . S
O50 Dy40 2.298 . S
O50 C64 1.236 . S
O51 Dy41 2.395 . S
O51 C71 1.255 . S
O52 Dy41 2.379 . S
O52 C71 1.249 . S
C53 O43 1.266 . S
C53 O44 1.236 . S
O54 Dy40 2.275 1_556 S
O54 C42 1.254 . S
O55 Dy41 2.339 1_556 S
O55 C42 1.257 . S
C56 C59 1.344 . S
C56 C60 1.328 1_556 S
C56 C62 1.516 1_556 S
C57 C58 1.304 . S
C57 C61 1.323 . S
C58 C57 1.304 . S
C58 C59 1.371 . S
C58 H72 0.930 . S
C59 C56 1.344 . S
C59 C58 1.371 . S
C59 H73 0.931 . S
C60 C56 1.328 1_554 S
C60 C61 1.433 1_554 S
C60 H74 0.931 . S
C61 C57 1.323 . S
C61 C60 1.433 1_556 S
C61 H75 0.933 1_556 S
C62 Dy40 2.738 . S
C62 O45 1.255 1_554 S
C62 O46 1.249 . S
C62 C56 1.516 1_554 S
C63 O47 1.254 . S
C63 O48 1.257 . S
C64 O49 1.266 . S
C64 O50 1.236 . S
C65 C68 1.344 . S
C65 C69 1.328 . S
C65 C71 1.516 . S
C66 C67 1.304 . S
C66 C70 1.323 . S
C67 C66 1.304 . S
C67 C68 1.371 . S
C67 H76 0.930 . S
C68 C65 1.344 . S
C68 C67 1.371 . S
C68 H77 0.931 . S
C69 C65 1.328 . S
C69 C70 1.433 . S
C69 H78 0.931 . S
C70 C66 1.323 . S
C70 C69 1.433 . S
C70 H79 0.933 . S
C71 Dy41 2.738 . S
C71 O51 1.255 . S
C71 O52 1.249 . S
C71 C65 1.516 . S
H72 C58 0.930 . S
H73 C59 0.931 . S
H74 C60 0.931 . S
H75 C61 0.933 1_554 S
H76 C67 0.930 . S
H77 C68 0.931 . S
H78 C69 0.931 . S
H79 C70 0.933 . S
Dy80 O83 2.307 . S
Dy80 O85 2.395 . S
Dy80 O86 2.379 . S
Dy80 O88 2.339 . S
Dy80 O90 2.298 . S
Dy80 O94 2.275 . S
Dy80 C102 2.738 . S
Dy81 O84 2.298 . S
Dy81 O87 2.275 . S
Dy81 O89 2.307 . S
Dy81 O91 2.395 . S
Dy81 O92 2.379 . S
Dy81 O95 2.339 . S
Dy81 C111 2.738 . S
C82 O94 1.254 . S
C82 O95 1.257 . S
O83 Dy80 2.307 . S
O83 C93 1.266 . S
O84 Dy81 2.298 . S
O84 C93 1.236 . S
O85 Dy80 2.395 . S
O85 C102 1.255 . S
O86 Dy80 2.379 . S
O86 C102 1.249 . S
O87 Dy81 2.275 . S
O87 C103 1.254 . S
O88 Dy80 2.339 . S
O88 C103 1.257 . S
O89 Dy81 2.307 . S
O89 C104 1.266 . S
O90 Dy80 2.298 . S
O90 C104 1.236 . S
O91 Dy81 2.395 . S
O91 C111 1.255 . S
O92 Dy81 2.379 . S
O92 C111 1.249 . S
C93 O83 1.266 . S
C93 O84 1.236 . S
O94 Dy80 2.275 . S
O94 C82 1.254 . S
O95 Dy81 2.339 . S
O95 C82 1.257 . S
C96 C99 1.344 . S
C96 C100 1.328 . S
C96 C102 1.516 . S
C97 C98 1.304 . S
C97 C101 1.323 . S
C98 C97 1.304 . S
C98 C99 1.371 . S
C98 H112 0.930 . S
C99 C96 1.344 . S
C99 C98 1.371 . S
C99 H113 0.931 . S
C100 C96 1.328 . S
C100 C101 1.433 . S
C100 H114 0.931 . S
C101 C97 1.323 . S
C101 C100 1.433 . S
C101 H115 0.933 . S
C102 Dy80 2.738 . S
C102 O85 1.255 . S
C102 O86 1.249 . S
C102 C96 1.516 . S
C103 O87 1.254 . S
C103 O88 1.257 . S
C104 O89 1.266 . S
C104 O90 1.236 . S
C105 C108 1.344 . S
C105 C109 1.328 . S
C105 C111 1.516 . S
C106 C107 1.304 . S
C106 C110 1.323 . S
C107 C106 1.304 . S
C107 C108 1.371 . S
C107 H116 0.930 . S
C108 C105 1.344 . S
C108 C107 1.371 . S
C108 H117 0.931 . S
C109 C105 1.328 . S
C109 C110 1.433 . S
C109 H118 0.931 . S
C110 C106 1.323 . S
C110 C109 1.433 . S
C110 H119 0.933 . S
C111 Dy81 2.738 . S
C111 O91 1.255 . S
C111 O92 1.249 . S
C111 C105 1.516 . S
H112 C98 0.930 . S
H113 C99 0.931 . S
H114 C100 0.931 . S
H115 C101 0.933 . S
H116 C107 0.930 . S
H117 C108 0.931 . S
H118 C109 0.931 . S
H119 C110 0.933 . S
Dy120 O123 2.307 1_556 S
Dy120 O125 2.395 1_556 S
Dy120 O126 2.379 . S
Dy120 O128 2.339 . S
Dy120 O130 2.298 . S
Dy120 O134 2.275 1_556 S
Dy120 C142 2.738 . S
Dy121 O124 2.298 . S
Dy121 O127 2.275 1_554 S
Dy121 O129 2.307 . S
Dy121 O131 2.395 . S
Dy121 O132 2.379 . S
Dy121 O135 2.339 . S
Dy121 C151 2.738 . S
C122 O134 1.254 . S
C122 O135 1.257 . S
O123 Dy120 2.307 1_554 S
O123 C133 1.266 . S
O124 Dy121 2.298 . S
O124 C133 1.236 . S
O125 Dy120 2.395 1_554 S
O125 C142 1.255 1_554 S
O126 Dy120 2.379 . S
O126 C142 1.249 . S
O127 Dy121 2.275 1_556 S
O127 C143 1.254 . S
O128 Dy120 2.339 . S
O128 C143 1.257 . S
O129 Dy121 2.307 . S
O129 C144 1.266 1_554 S
O130 Dy120 2.298 . S
O130 C144 1.236 . S
O131 Dy121 2.395 . S
O131 C151 1.255 . S
O132 Dy121 2.379 . S
O132 C151 1.249 . S
C133 O123 1.266 . S
C133 O124 1.236 . S
O134 Dy120 2.275 1_554 S
O134 C122 1.254 . S
O135 Dy121 2.339 . S
O135 C122 1.257 . S
C136 C139 1.344 . S
C136 C140 1.328 . S
C136 C142 1.516 . S
C137 C138 1.304 . S
C137 C141 1.323 . S
C138 C137 1.304 . S
C138 C139 1.371 . S
C138 H152 0.930 . S
C139 C136 1.344 . S
C139 C138 1.371 . S
C139 H153 0.931 1_556 S
C140 C136 1.328 . S
C140 C141 1.433 . S
C140 H154 0.931 . S
C141 C137 1.323 . S
C141 C140 1.433 . S
C141 H155 0.933 . S
C142 Dy120 2.738 . S
C142 O125 1.255 1_556 S
C142 O126 1.249 . S
C142 C136 1.516 . S
C143 O127 1.254 . S
C143 O128 1.257 . S
C144 O129 1.266 1_556 S
C144 O130 1.236 . S
C145 C148 1.344 . S
C145 C149 1.328 . S
C145 C151 1.516 . S
C146 C147 1.304 . S
C146 C150 1.323 . S
C147 C146 1.304 . S
C147 C148 1.371 . S
C147 H156 0.930 . S
C148 C145 1.344 . S
C148 C147 1.371 . S
C148 H157 0.931 1_554 S
C149 C145 1.328 . S
C149 C150 1.433 . S
C149 H158 0.931 . S
C150 C146 1.323 . S
C150 C149 1.433 . S
C150 H159 0.933 . S
C151 Dy121 2.738 . S
C151 O131 1.255 . S
C151 O132 1.249 . S
C151 C145 1.516 . S
H152 C138 0.930 . S
H153 C139 0.931 1_554 S
H154 C140 0.931 . S
H155 C141 0.933 . S
H156 C147 0.930 . S
H157 C148 0.931 1_556 S
H158 C149 0.931 . S
H159 C150 0.933 . S
Dy160 O163 2.307 . S
Dy160 O165 2.395 . S
Dy160 O166 2.379 . S
Dy160 O168 2.339 1_556 S
Dy160 O170 2.298 . S
Dy160 O174 2.275 . S
Dy160 C182 2.738 . S
Dy161 O164 2.298 . S
Dy161 O167 2.275 . S
Dy161 O169 2.307 . S
Dy161 O171 2.395 . S
Dy161 O172 2.379 . S
Dy161 O175 2.339 . S
Dy161 C191 2.738 . S
C162 O174 1.254 . S
C162 O175 1.257 . S
O163 Dy160 2.307 . S
O163 C173 1.266 . S
O164 Dy161 2.298 . S
O164 C173 1.236 . S
O165 Dy160 2.395 . S
O165 C182 1.255 . S
O166 Dy160 2.379 . S
O166 C182 1.249 . S
O167 Dy161 2.275 . S
O167 C183 1.254 1_556 S
O168 Dy160 2.339 1_554 S
O168 C183 1.257 . S
O169 Dy161 2.307 . S
O169 C184 1.266 . S
O170 Dy160 2.298 . S
O170 C184 1.236 . S
O171 Dy161 2.395 . S
O171 C191 1.255 . S
O172 Dy161 2.379 . S
O172 C191 1.249 . S
C173 O163 1.266 . S
C173 O164 1.236 . S
O174 Dy160 2.275 . S
O174 C162 1.254 . S
O175 Dy161 2.339 . S
O175 C162 1.257 . S
C176 C179 1.344 . S
C176 C180 1.328 1_556 S
C176 C182 1.516 . S
C177 C178 1.304 . S
C177 C181 1.323 1_556 S
C178 C177 1.304 . S
C178 C179 1.371 . S
C178 H192 0.930 . S
C179 C176 1.344 . S
C179 C178 1.371 . S
C179 H193 0.931 . S
C180 C176 1.328 1_554 S
C180 C181 1.433 . S
C180 H194 0.931 . S
C181 C177 1.323 1_554 S
C181 C180 1.433 . S
C181 H195 0.933 . S
C182 Dy160 2.738 . S
C182 O165 1.255 . S
C182 O166 1.249 . S
C182 C176 1.516 . S
C183 O167 1.254 1_554 S
C183 O168 1.257 . S
C184 O169 1.266 . S
C184 O170 1.236 . S
C185 C188 1.344 . S
C185 C189 1.328 . S
C185 C191 1.516 . S
C186 C187 1.304 . S
C186 C190 1.323 . S
C187 C186 1.304 . S
C187 C188 1.371 . S
C187 H196 0.930 . S
C188 C185 1.344 . S
C188 C187 1.371 . S
C188 H197 0.931 . S
C189 C185 1.328 . S
C189 C190 1.433 . S
C189 H198 0.931 . S
C190 C186 1.323 . S
C190 C189 1.433 . S
C190 H199 0.933 . S
C191 Dy161 2.738 . S
C191 O171 1.255 . S
C191 O172 1.249 . S
C191 C185 1.516 . S
H192 C178 0.930 . S
H193 C179 0.931 . S
H194 C180 0.931 . S
H195 C181 0.933 . S
H196 C187 0.930 . S
H197 C188 0.931 . S
H198 C189 0.931 . S
H199 C190 0.933 . S
Dy200 O203 2.307 . S
Dy200 O205 2.395 1_554 S
Dy200 O206 2.379 . S
Dy200 O208 2.339 . S
Dy200 O210 2.298 . S
Dy200 O214 2.275 1_554 S
Dy200 C222 2.738 . S
Dy201 O204 2.298 1_556 S
Dy201 O207 2.275 1_556 S
Dy201 O209 2.307 . S
Dy201 O211 2.395 1_556 S
Dy201 O212 2.379 1_545 S
Dy201 O215 2.339 . S
Dy201 C231 2.738 1_546 S
C202 O214 1.254 . S
C202 O215 1.257 . S
O203 Dy200 2.307 . S
O203 C213 1.266 . S
O204 Dy201 2.298 1_554 S
O204 C213 1.236 . S
O205 Dy200 2.395 1_556 S
O205 C222 1.255 1_556 S
O206 Dy200 2.379 . S
O206 C222 1.249 . S
O207 Dy201 2.275 1_554 S
O207 C223 1.254 . S
O208 Dy200 2.339 . S
O208 C223 1.257 . S
O209 Dy201 2.307 . S
O209 C224 1.266 . S
O210 Dy200 2.298 . S
O210 C224 1.236 1_554 S
O211 Dy201 2.395 1_554 S
O211 C231 1.255 1_545 S
O212 Dy201 2.379 1_565 S
O212 C231 1.249 1_556 S
C213 O203 1.266 . S
C213 O204 1.236 . S
O214 Dy200 2.275 1_556 S
O214 C202 1.254 . S
O215 Dy201 2.339 . S
O215 C202 1.257 . S
C216 C219 1.344 . S
C216 C220 1.328 1_556 S
C216 C222 1.516 1_556 S
C217 C218 1.304 . S
C217 C221 1.323 1_556 S
C218 C217 1.304 . S
C218 C219 1.371 . S
C218 H232 0.930 . S
C219 C216 1.344 . S
C219 C218 1.371 . S
C219 H233 0.931 . S
C220 C216 1.328 1_554 S
C220 C221 1.433 . S
C220 H234 0.931 . S
C221 C217 1.323 1_554 S
C221 C220 1.433 . S
C221 H235 0.933 . S
C222 Dy200 2.738 . S
C222 O205 1.255 1_554 S
C222 O206 1.249 . S
C222 C216 1.516 1_554 S
C223 O207 1.254 . S
C223 O208 1.257 . S
C224 O209 1.266 . S
C224 O210 1.236 1_556 S
C225 C228 1.344 . S
C225 C229 1.328 1_554 S
C225 C231 1.516 . S
C226 C227 1.304 . S
C226 C230 1.323 1_554 S
C227 C226 1.304 . S
C227 C228 1.371 . S
C227 H236 0.930 . S
C228 C225 1.344 . S
C228 C227 1.371 . S
C228 H237 0.931 . S
C229 C225 1.328 1_556 S
C229 C230 1.433 . S
C229 H238 0.931 . S
C230 C226 1.323 1_556 S
C230 C229 1.433 . S
C230 H239 0.933 . S
C231 Dy201 2.738 1_564 S
C231 O211 1.255 1_565 S
C231 O212 1.249 1_554 S
C231 C225 1.516 . S
H232 C218 0.930 . S
H233 C219 0.931 . S
H234 C220 0.931 . S
H235 C221 0.933 . S
H236 C227 0.930 . S
H237 C228 0.931 . S
H238 C229 0.931 . S
H239 C230 0.933 . S
H240 C258 0.951 . S
H241 C260 0.951 . S
H242 C262 0.950 . S
H243 C263 0.950 . S
H244 C265 0.950 . S
H245 C268 0.950 . S
H246 C269 0.950 1_556 S
H247 C271 0.950 . S
H248 C272 0.950 . S
H249 C273 0.951 . S
H250 C275 0.951 . S
H251 C277 0.950 . S
H252 C278 0.950 . S
H253 C280 0.950 . S
H254 C283 0.950 . S
H255 C284 0.950 . S
H256 C286 0.950 . S
H257 C287 0.950 . S
C258 H240 0.951 . S
C258 C259 1.366 . S
C258 C260 1.388 . S
C259 C258 1.366 . S
C259 C263 1.385 . S
C260 H241 0.951 . S
C260 C258 1.388 . S
C260 C261 1.366 . S
C261 C260 1.366 . S
C261 C262 1.414 . S
C261 C264 1.499 . S
C262 H242 0.950 . S
C262 C261 1.414 . S
C262 C263 1.374 . S
C263 H243 0.950 . S
C263 C259 1.385 . S
C263 C262 1.374 . S
C264 C261 1.499 . S
C264 C265 1.373 . S
C264 C266 1.389 . S
C265 H244 0.950 . S
C265 C264 1.373 . S
C265 C281 1.377 . S
C266 C264 1.389 . S
C266 C267 1.524 . S
C266 C280 1.377 . S
C267 C266 1.524 . S
C267 C268 1.397 . S
C267 C272 1.363 . S
C268 H245 0.950 . S
C268 C267 1.397 . S
C268 C269 1.334 . S
C269 H246 0.950 1_554 S
C269 C268 1.334 . S
C269 C270 1.287 . S
C270 C269 1.287 . S
C270 C271 1.524 . S
C270 H289 0.913 1_554 S
C271 H247 0.950 . S
C271 C270 1.524 . S
C271 C272 1.415 . S
C272 H248 0.950 . S
C272 C267 1.363 . S
C272 C271 1.415 . S
C273 H249 0.951 . S
C273 C274 1.366 . S
C273 C275 1.388 . S
C274 C273 1.366 . S
C274 C278 1.385 . S
C275 H250 0.951 . S
C275 C273 1.388 . S
C275 C276 1.366 . S
C276 C275 1.366 . S
C276 C277 1.414 . S
C276 C279 1.499 . S
C277 H251 0.950 . S
C277 C276 1.414 . S
C277 C278 1.374 . S
C278 H252 0.950 . S
C278 C274 1.385 . S
C278 C277 1.374 . S
C279 C276 1.499 . S
C279 C280 1.373 . S
C279 C281 1.389 . S
C280 H253 0.950 . S
C280 C266 1.377 . S
C280 C279 1.373 . S
C281 C265 1.377 . S
C281 C279 1.389 . S
C281 C282 1.524 . S
C282 C281 1.524 . S
C282 C283 1.397 . S
C282 C287 1.363 . S
C283 H254 0.950 . S
C283 C282 1.397 . S
C283 C284 1.334 . S
C284 H255 0.950 . S
C284 C283 1.334 . S
C284 C285 1.287 . S
C285 C284 1.287 . S
C285 C286 1.524 . S
C285 H288 0.999 . S
C286 H256 0.950 . S
C286 C285 1.524 . S
C286 C287 1.415 . S
C287 H257 0.950 . S
C287 C282 1.363 . S
C287 C286 1.415 . S
H288 C285 0.999 . S
H289 C270 0.913 1_556 S
H290 C308 0.951 . S
H291 C310 0.951 . S
H292 C312 0.950 . S
H293 C313 0.950 . S
H294 C315 0.950 . S
H295 C318 0.950 . S
H296 C319 0.950 . S
H297 C321 0.950 . S
H298 C322 0.950 . S
H299 C323 0.951 . S
H300 C325 0.951 . S
H301 C327 0.950 . S
H302 C328 0.950 . S
H303 C330 0.950 . S
H304 C333 0.950 . S
H305 C334 0.950 . S
H306 C336 0.950 . S
H307 C337 0.950 . S
C308 H290 0.951 . S
C308 C309 1.366 . S
C308 C310 1.388 . S
C309 C308 1.366 . S
C309 C313 1.385 . S
C310 H291 0.951 . S
C310 C308 1.388 . S
C310 C311 1.366 . S
C311 C310 1.366 . S
C311 C312 1.414 . S
C311 C314 1.499 . S
C312 H292 0.950 . S
C312 C311 1.414 . S
C312 C313 1.374 . S
C313 H293 0.950 . S
C313 C309 1.385 . S
C313 C312 1.374 . S
C314 C311 1.499 . S
C314 C315 1.373 . S
C314 C316 1.389 . S
C315 H294 0.950 . S
C315 C314 1.373 . S
C315 C331 1.377 . S
C316 C314 1.389 . S
C316 C317 1.524 . S
C316 C330 1.377 . S
C317 C316 1.524 . S
C317 C318 1.397 . S
C317 C322 1.363 . S
C318 H295 0.950 . S
C318 C317 1.397 . S
C318 C319 1.334 . S
C319 H296 0.950 . S
C319 C318 1.334 . S
C319 C320 1.287 . S
C320 C319 1.287 . S
C320 C321 1.524 . S
C320 H339 0.913 . S
C321 H297 0.950 . S
C321 C320 1.524 . S
C321 C322 1.415 . S
C322 H298 0.950 . S
C322 C317 1.363 . S
C322 C321 1.415 . S
C323 H299 0.951 . S
C323 C324 1.366 . S
C323 C325 1.388 1_655 S
C324 C323 1.366 . S
C324 C328 1.385 . S
C325 H300 0.951 . S
C325 C323 1.388 1_455 S
C325 C326 1.366 . S
C326 C325 1.366 . S
C326 C327 1.414 . S
C326 C329 1.499 . S
C327 H301 0.950 . S
C327 C326 1.414 . S
C327 C328 1.374 1_455 S
C328 H302 0.950 . S
C328 C324 1.385 . S
C328 C327 1.374 1_655 S
C329 C326 1.499 . S
C329 C330 1.373 . S
C329 C331 1.389 . S
C330 H303 0.950 . S
C330 C316 1.377 . S
C330 C329 1.373 . S
C331 C315 1.377 . S
C331 C329 1.389 . S
C331 C332 1.524 . S
C332 C331 1.524 . S
C332 C333 1.397 . S
C332 C337 1.363 . S
C333 H304 0.950 . S
C333 C332 1.397 . S
C333 C334 1.334 . S
C334 H305 0.950 . S
C334 C333 1.334 . S
C334 C335 1.287 . S
C335 C334 1.287 . S
C335 C336 1.524 . S
C335 H338 0.999 . S
C336 H306 0.950 . S
C336 C335 1.524 . S
C336 C337 1.415 . S
C337 H307 0.950 . S
C337 C332 1.363 . S
C337 C336 1.415 . S
H338 C335 0.999 . S
H339 C320 0.913 . S
H340 C358 0.951 . S
H341 C360 0.951 . S
H342 C362 0.950 . S
H343 C363 0.950 . S
H344 C365 0.950 . S
H345 C368 0.950 . S
H346 C369 0.950 . S
H347 C371 0.950 . S
H348 C372 0.928 1_565 S
H349 C373 0.951 . S
H350 C375 0.951 . S
H351 C377 0.950 . S
H352 C378 0.950 . S
H353 C380 0.950 . S
H354 C383 0.950 . S
H355 C384 0.950 . S
H356 C386 0.950 . S
H357 C387 0.950 . S
C358 H340 0.951 . S
C358 C359 1.366 . S
C358 C360 1.388 . S
C359 C358 1.366 . S
C359 C363 1.385 . S
C360 H341 0.951 . S
C360 C358 1.388 . S
C360 C361 1.366 . S
C361 C360 1.366 . S
C361 C362 1.414 . S
C361 C364 1.499 1_545 S
C362 H342 0.950 . S
C362 C361 1.414 . S
C362 C363 1.374 . S
C363 H343 0.950 . S
C363 C359 1.385 . S
C363 C362 1.374 . S
C364 C361 1.499 1_565 S
C364 C365 1.373 . S
C364 C366 1.389 . S
C365 H344 0.950 . S
C365 C364 1.373 . S
C365 C381 1.377 . S
C366 C364 1.389 . S
C366 C367 1.524 1_565 S
C366 C380 1.377 . S
C367 C366 1.524 1_545 S
C367 C368 1.397 . S
C367 C372 1.363 . S
C368 H345 0.950 . S
C368 C367 1.397 . S
C368 C369 1.334 . S
C369 H346 0.950 . S
C369 C368 1.334 . S
C369 C370 1.287 . S
C370 C369 1.287 . S
C370 C371 1.524 . S
C370 H389 0.913 . S
C371 H347 0.950 . S
C371 C370 1.524 . S
C371 C372 1.415 . S
C372 H348 0.928 1_545 S
C372 C367 1.363 . S
C372 C371 1.415 . S
C373 H349 0.951 . S
C373 C374 1.366 . S
C373 C375 1.388 . S
C374 C373 1.366 . S
C374 C378 1.385 . S
C375 H350 0.951 . S
C375 C373 1.388 . S
C375 C376 1.366 . S
C376 C375 1.366 . S
C376 C377 1.414 . S
C376 C379 1.499 . S
C377 H351 0.950 . S
C377 C376 1.414 . S
C377 C378 1.374 . S
C378 H352 0.950 . S
C378 C374 1.385 . S
C378 C377 1.374 . S
C379 C376 1.499 . S
C379 C380 1.373 . S
C379 C381 1.389 . S
C380 H353 0.950 . S
C380 C366 1.377 . S
C380 C379 1.373 . S
C381 C365 1.377 . S
C381 C379 1.389 . S
C381 C382 1.524 . S
C382 C381 1.524 . S
C382 C383 1.397 . S
C382 C387 1.363 . S
C383 H354 0.950 . S
C383 C382 1.397 . S
C383 C384 1.334 . S
C384 H355 0.950 . S
C384 C383 1.334 . S
C384 C385 1.287 . S
C385 C384 1.287 . S
C385 C386 1.524 . S
C385 H388 0.999 . S
C386 H356 0.950 . S
C386 C385 1.524 . S
C386 C387 1.415 . S
C387 H357 0.950 . S
C387 C382 1.363 . S
C387 C386 1.415 . S
H388 C385 0.999 . S
H389 C370 0.913 . S
H390 C408 0.951 . S
H391 C410 0.951 . S
H392 C412 0.950 . S
H393 C413 0.950 . S
H394 C415 0.950 . S
H395 C418 0.950 . S
H396 C419 0.950 . S
H397 C421 0.950 . S
H398 C422 0.950 . S
H399 C423 0.951 . S
H400 C425 0.951 . S
H401 C427 0.950 . S
H402 C428 0.950 . S
H403 C430 0.950 . S
H404 C433 0.950 . S
H405 C434 0.950 . S
H406 C436 0.950 . S
H407 C437 0.950 . S
C408 H390 0.951 . S
C408 C409 1.366 . S
C408 C410 1.388 . S
C409 C408 1.366 . S
C409 C413 1.385 . S
C410 H391 0.951 . S
C410 C408 1.388 . S
C410 C411 1.366 . S
C411 C410 1.366 . S
C411 C412 1.414 . S
C411 C414 1.499 . S
C412 H392 0.950 . S
C412 C411 1.414 . S
C412 C413 1.374 . S
C413 H393 0.950 . S
C413 C409 1.385 . S
C413 C412 1.374 . S
C414 C411 1.499 . S
C414 C415 1.373 . S
C414 C416 1.389 . S
C415 H394 0.950 . S
C415 C414 1.373 . S
C415 C431 1.377 . S
C416 C414 1.389 . S
C416 C417 1.524 . S
C416 C430 1.377 . S
C417 C416 1.524 . S
C417 C418 1.397 . S
C417 C422 1.363 . S
C418 H395 0.950 . S
C418 C417 1.397 . S
C418 C419 1.334 . S
C419 H396 0.950 . S
C419 C418 1.334 . S
C419 C420 1.287 . S
C420 C419 1.287 . S
C420 C421 1.524 . S
C420 H439 0.913 . S
C421 H397 0.950 . S
C421 C420 1.524 . S
C421 C422 1.415 . S
C422 H398 0.950 . S
C422 C417 1.363 . S
C422 C421 1.415 . S
C423 H399 0.951 . S
C423 C424 1.366 . S
C423 C425 1.388 . S
C424 C423 1.366 . S
C424 C428 1.385 . S
C425 H400 0.951 . S
C425 C423 1.388 . S
C425 C426 1.366 . S
C426 C425 1.366 . S
C426 C427 1.414 . S
C426 C429 1.499 . S
C427 H401 0.950 . S
C427 C426 1.414 . S
C427 C428 1.374 . S
C428 H402 0.950 . S
C428 C424 1.385 . S
C428 C427 1.374 . S
C429 C426 1.499 . S
C429 C430 1.373 . S
C429 C431 1.389 . S
C430 H403 0.950 . S
C430 C416 1.377 . S
C430 C429 1.373 . S
C431 C415 1.377 . S
C431 C429 1.389 . S
C431 C432 1.524 . S
C432 C431 1.524 . S
C432 C433 1.397 . S
C432 C437 1.363 . S
C433 H404 0.950 . S
C433 C432 1.397 . S
C433 C434 1.334 . S
C434 H405 0.950 . S
C434 C433 1.334 . S
C434 C435 1.287 . S
C435 C434 1.287 . S
C435 C436 1.524 . S
C435 H438 0.999 . S
C436 H406 0.950 . S
C436 C435 1.524 . S
C436 C437 1.415 . S
C437 H407 0.950 . S
C437 C432 1.363 . S
C437 C436 1.415 . S
H438 C435 0.999 . S
H439 C420 0.913 . S
H440 C458 0.951 . S
H441 C460 0.951 . S
H442 C462 0.950 . S
H443 C463 0.950 . S
H444 C465 0.950 . S
H445 C468 0.950 . S
H446 C469 0.950 . S
H447 C471 0.950 . S
H448 C472 0.950 . S
H449 C473 0.951 . S
H450 C475 0.951 . S
H451 C477 0.950 . S
H452 C478 0.950 . S
H453 C480 0.950 . S
H454 C483 0.950 . S
H455 C484 0.950 . S
H456 C486 0.950 . S
H457 C487 0.950 . S
C458 H440 0.951 . S
C458 C459 1.366 . S
C458 C460 1.388 . S
C459 C458 1.366 . S
C459 C463 1.385 . S
C460 H441 0.951 . S
C460 C458 1.388 . S
C460 C461 1.366 . S
C461 C460 1.366 . S
C461 C462 1.414 . S
C461 C464 1.499 . S
C462 H442 0.950 . S
C462 C461 1.414 . S
C462 C463 1.374 . S
C463 H443 0.950 . S
C463 C459 1.385 . S
C463 C462 1.374 . S
C464 C461 1.499 . S
C464 C465 1.373 . S
C464 C466 1.389 . S
C465 H444 0.950 . S
C465 C464 1.373 . S
C465 C481 1.348 1_455 S
C466 C464 1.389 . S
C466 C467 1.524 . S
C466 C480 1.377 . S
C467 C466 1.524 . S
C467 C468 1.397 . S
C467 C472 1.363 . S
C468 H445 0.950 . S
C468 C467 1.397 . S
C468 C469 1.334 . S
C469 H446 0.950 . S
C469 C468 1.334 . S
C469 C470 1.287 . S
C470 C469 1.287 . S
C470 C471 1.524 . S
C470 H489 0.913 . S
C471 H447 0.950 . S
C471 C470 1.524 . S
C471 C472 1.415 . S
C472 H448 0.950 . S
C472 C467 1.363 . S
C472 C471 1.415 . S
C473 H449 0.951 . S
C473 C474 1.366 . S
C473 C475 1.388 . S
C474 C473 1.366 . S
C474 C478 1.385 . S
C475 H450 0.951 . S
C475 C473 1.388 . S
C475 C476 1.366 . S
C476 C475 1.366 . S
C476 C477 1.414 . S
C476 C479 1.499 . S
C477 H451 0.950 . S
C477 C476 1.414 . S
C477 C478 1.374 . S
C478 H452 0.950 . S
C478 C474 1.385 . S
C478 C477 1.374 . S
C479 C476 1.499 . S
C479 C480 1.373 1_655 S
C479 C481 1.365 . S
C480 H453 0.950 . S
C480 C466 1.377 . S
C480 C479 1.373 1_455 S
C481 C465 1.348 1_655 S
C481 C479 1.365 . S
C481 C482 1.580 . S
C482 C481 1.580 . S
C482 C483 1.397 . S
C482 C487 1.363 . S
C483 H454 0.950 . S
C483 C482 1.397 . S
C483 C484 1.334 . S
C484 H455 0.950 . S
C484 C483 1.334 . S
C484 C485 1.287 . S
C485 C484 1.287 . S
C485 C486 1.524 . S
C485 H488 0.999 . S
C486 H456 0.950 . S
C486 C485 1.524 . S
C486 C487 1.415 . S
C487 H457 0.950 . S
C487 C482 1.363 . S
C487 C486 1.415 . S
H488 C485 0.999 . S
H489 C470 0.913 . S
H490 C508 0.951 . S
H491 C510 0.951 . S
H492 C512 0.950 . S
H493 C513 0.950 . S
H494 C515 0.950 . S
H495 C518 0.950 . S
H496 C519 0.950 . S
H497 C521 0.950 . S
H498 C522 0.950 . S
H499 C523 0.951 . S
H500 C525 0.951 . S
H501 C527 0.950 . S
H502 C528 0.950 . S
H503 C530 0.950 . S
H504 C533 0.950 . S
H505 C534 0.950 . S
H506 C536 0.950 . S
H507 C537 0.950 . S
C508 H490 0.951 . S
C508 C509 1.366 . S
C508 C510 1.388 . S
C509 C508 1.366 . S
C509 C513 1.385 . S
C510 H491 0.951 . S
C510 C508 1.388 . S
C510 C511 1.366 . S
C511 C510 1.366 . S
C511 C512 1.414 . S
C511 C514 1.499 . S
C512 H492 0.950 . S
C512 C511 1.414 . S
C512 C513 1.374 . S
C513 H493 0.950 . S
C513 C509 1.385 . S
C513 C512 1.374 . S
C514 C511 1.499 . S
C514 C515 1.373 . S
C514 C516 1.389 . S
C515 H494 0.950 . S
C515 C514 1.373 . S
C515 C531 1.377 . S
C516 C514 1.389 . S
C516 C517 1.524 . S
C516 C530 1.377 . S
C517 C516 1.524 . S
C517 C518 1.397 . S
C517 C522 1.363 . S
C518 H495 0.950 . S
C518 C517 1.397 . S
C518 C519 1.334 . S
C519 H496 0.950 . S
C519 C518 1.334 . S
C519 C520 1.287 . S
C520 C519 1.287 . S
C520 C521 1.524 . S
C520 H539 0.913 . S
C521 H497 0.950 . S
C521 C520 1.524 . S
C521 C522 1.415 . S
C522 H498 0.950 . S
C522 C517 1.363 . S
C522 C521 1.415 . S
C523 H499 0.951 . S
C523 C524 1.366 . S
C523 C525 1.388 . S
C524 C523 1.366 . S
C524 C528 1.385 . S
C525 H500 0.951 . S
C525 C523 1.388 . S
C525 C526 1.366 . S
C526 C525 1.366 . S
C526 C527 1.414 . S
C526 C529 1.499 . S
C527 H501 0.950 . S
C527 C526 1.414 . S
C527 C528 1.374 . S
C528 H502 0.950 . S
C528 C524 1.385 . S
C528 C527 1.374 . S
C529 C526 1.499 . S
C529 C530 1.373 . S
C529 C531 1.389 . S
C530 H503 0.950 . S
C530 C516 1.377 . S
C530 C529 1.373 . S
C531 C515 1.377 . S
C531 C529 1.389 . S
C531 C532 1.524 . S
C532 C531 1.524 . S
C532 C533 1.397 . S
C532 C537 1.363 . S
C533 H504 0.950 . S
C533 C532 1.397 . S
C533 C534 1.334 1_565 S
C534 H505 0.950 . S
C534 C533 1.334 1_545 S
C534 C535 1.287 . S
C535 C534 1.287 . S
C535 C536 1.524 . S
C535 H538 0.999 . S
C536 H506 0.950 . S
C536 C535 1.524 . S
C536 C537 1.415 1_545 S
C537 H507 0.950 . S
C537 C532 1.363 . S
C537 C536 1.415 1_565 S
H538 C535 0.999 . S
H539 C520 0.913 . S
H540 C558 0.951 . S
H541 C560 0.951 . S
H542 C562 0.950 . S
H543 C563 0.950 . S
H544 C565 0.950 . S
H545 C568 0.950 . S
H546 C569 0.950 . S
H547 C571 0.950 . S
H548 C572 0.947 1_556 S
H549 C573 0.951 . S
H550 C575 0.951 . S
H551 C577 0.950 . S
H552 C578 0.950 . S
H553 C580 0.950 . S
H554 C583 0.950 . S
H555 C584 0.950 . S
H556 C586 0.950 . S
H557 C587 0.950 . S
C558 H540 0.951 . S
C558 C559 1.366 . S
C558 C560 1.388 . S
C559 C558 1.366 . S
C559 C563 1.385 . S
C560 H541 0.951 . S
C560 C558 1.388 . S
C560 C561 1.366 . S
C561 C560 1.366 . S
C561 C562 1.414 . S
C561 C564 1.499 . S
C562 H542 0.950 . S
C562 C561 1.414 . S
C562 C563 1.374 . S
C563 H543 0.950 . S
C563 C559 1.385 . S
C563 C562 1.374 . S
C564 C561 1.499 . S
C564 C565 1.373 . S
C564 C566 1.389 . S
C565 H544 0.950 . S
C565 C564 1.373 . S
C565 C581 1.377 . S
C566 C564 1.389 . S
C566 C567 1.524 . S
C566 C580 1.377 . S
C567 C566 1.524 . S
C567 C568 1.397 1_556 S
C567 C572 1.357 1_556 S
C568 H545 0.950 . S
C568 C567 1.397 1_554 S
C568 C569 1.334 . S
C569 H546 0.950 . S
C569 C568 1.334 . S
C569 C570 1.287 . S
C570 C569 1.287 . S
C570 C571 1.524 . S
C570 H589 0.913 . S
C571 H547 0.950 . S
C571 C570 1.524 . S
C571 C572 1.424 . S
C572 H548 0.947 1_554 S
C572 C567 1.357 1_554 S
C572 C571 1.424 . S
C573 H549 0.951 . S
C573 C574 1.366 . S
C573 C575 1.388 . S
C574 C573 1.366 . S
C574 C578 1.385 . S
C575 H550 0.951 . S
C575 C573 1.388 . S
C575 C576 1.366 . S
C576 C575 1.366 . S
C576 C577 1.414 . S
C576 C579 1.499 . S
C577 H551 0.950 . S
C577 C576 1.414 . S
C577 C578 1.374 . S
C578 H552 0.950 . S
C578 C574 1.385 . S
C578 C577 1.374 . S
C579 C576 1.499 . S
C579 C580 1.373 . S
C579 C581 1.389 . S
C580 H553 0.950 . S
C580 C566 1.377 . S
C580 C579 1.373 . S
C581 C565 1.377 . S
C581 C579 1.389 . S
C581 C582 1.524 . S
C582 C581 1.524 . S
C582 C583 1.397 . S
C582 C587 1.363 . S
C583 H554 0.950 . S
C583 C582 1.397 . S
C583 C584 1.334 . S
C584 H555 0.950 . S
C584 C583 1.334 . S
C584 C585 1.287 . S
C585 C584 1.287 . S
C585 C586 1.524 . S
C585 H588 0.999 . S
C586 H556 0.950 . S
C586 C585 1.524 . S
C586 C587 1.415 . S
C587 H557 0.950 . S
C587 C582 1.363 . S
C587 C586 1.415 . S
H588 C585 0.999 . S
H589 C570 0.913 . S
H590 C608 0.951 . S
H591 C610 0.951 . S
H592 C612 0.950 . S
H593 C613 0.950 . S
H594 C615 0.950 1_554 S
H595 C618 0.950 . S
H596 C619 0.950 . S
H597 C621 0.950 . S
H598 C622 0.950 . S
H599 C623 0.951 . S
H600 C625 0.951 . S
H601 C627 0.950 . S
H602 C628 0.950 . S
H603 C630 0.950 . S
H604 C633 0.950 . S
H605 C634 0.950 . S
H606 C636 0.950 1_565 S
H607 C637 0.950 . S
C608 H590 0.951 . S
C608 C609 1.366 . S
C608 C610 1.388 . S
C609 C608 1.366 . S
C609 C613 1.385 . S
C610 H591 0.951 . S
C610 C608 1.388 . S
C610 C611 1.366 . S
C611 C610 1.366 . S
C611 C612 1.414 . S
C611 C614 1.499 . S
C612 H592 0.950 . S
C612 C611 1.414 . S
C612 C613 1.374 . S
C613 H593 0.950 . S
C613 C609 1.385 . S
C613 C612 1.374 . S
C614 C611 1.499 . S
C614 C615 1.373 . S
C614 C616 1.389 . S
C615 H594 0.950 1_556 S
C615 C614 1.373 . S
C615 C631 1.377 . S
C616 C614 1.389 . S
C616 C617 1.524 . S
C616 C630 1.377 . S
C617 C616 1.524 . S
C617 C618 1.397 . S
C617 C622 1.363 . S
C618 H595 0.950 . S
C618 C617 1.397 . S
C618 C619 1.334 . S
C619 H596 0.950 . S
C619 C618 1.334 . S
C619 C620 1.287 . S
C620 C619 1.287 . S
C620 C621 1.524 . S
C620 H639 0.913 . S
C621 H597 0.950 . S
C621 C620 1.524 . S
C621 C622 1.415 . S
C622 H598 0.950 . S
C622 C617 1.363 . S
C622 C621 1.415 . S
C623 H599 0.951 . S
C623 C624 1.366 . S
C623 C625 1.388 . S
C624 C623 1.366 . S
C624 C628 1.385 . S
C625 H600 0.951 . S
C625 C623 1.388 . S
C625 C626 1.366 . S
C626 C625 1.366 . S
C626 C627 1.414 . S
C626 C629 1.499 . S
C627 H601 0.950 . S
C627 C626 1.414 . S
C627 C628 1.374 . S
C628 H602 0.950 . S
C628 C624 1.385 . S
C628 C627 1.374 . S
C629 C626 1.499 . S
C629 C630 1.373 . S
C629 C631 1.389 . S
C630 H603 0.950 . S
C630 C616 1.377 . S
C630 C629 1.373 . S
C631 C615 1.377 . S
C631 C629 1.389 . S
C631 C632 1.524 1_556 S
C632 C631 1.524 1_554 S
C632 C633 1.397 . S
C632 C637 1.363 . S
C633 H604 0.950 . S
C633 C632 1.397 . S
C633 C634 1.334 . S
C634 H605 0.950 . S
C634 C633 1.334 . S
C634 C635 1.287 . S
C635 C634 1.287 . S
C635 C636 1.524 . S
C635 H638 0.999 . S
C636 H606 0.950 1_545 S
C636 C635 1.524 . S
C636 C637 1.415 . S
C637 H607 0.950 . S
C637 C632 1.363 . S
C637 C636 1.415 . S
H638 C635 0.999 . S
H639 C620 0.913 . S
H640 C658 0.951 . S
H641 C660 0.951 . S
H642 C662 0.950 . S
H643 C663 0.950 . S
H644 C665 0.950 . S
H645 C668 0.950 . S
H646 C669 0.950 1_554 S
H647 C671 0.950 . S
H648 C672 0.950 . S
H649 C673 0.951 . S
H650 C675 0.951 . S
H651 C677 0.950 . S
H652 C678 0.950 . S
H653 C680 0.950 . S
H654 C683 0.950 . S
H655 C684 0.950 . S
H656 C686 0.950 . S
H657 C687 0.950 . S
C658 H640 0.951 . S
C658 C659 1.366 . S
C658 C660 1.388 . S
C659 C658 1.366 . S
C659 C663 1.385 . S
C660 H641 0.951 . S
C660 C658 1.388 . S
C660 C661 1.366 . S
C661 C660 1.366 . S
C661 C662 1.414 . S
C661 C664 1.499 . S
C662 H642 0.950 . S
C662 C661 1.414 . S
C662 C663 1.374 . S
C663 H643 0.950 . S
C663 C659 1.385 . S
C663 C662 1.374 . S
C664 C661 1.499 . S
C664 C665 1.373 . S
C664 C666 1.389 . S
C665 H644 0.950 . S
C665 C664 1.373 . S
C665 C681 1.377 . S
C666 C664 1.389 . S
C666 C667 1.524 . S
C666 C680 1.377 . S
C667 C666 1.524 . S
C667 C668 1.397 . S
C667 C672 1.363 . S
C668 H645 0.950 . S
C668 C667 1.397 . S
C668 C669 1.334 . S
C669 H646 0.950 1_556 S
C669 C668 1.334 . S
C669 C670 1.287 1_556 S
C670 C669 1.287 1_554 S
C670 C671 1.524 1_554 S
C670 H689 0.913 . S
C671 H647 0.950 . S
C671 C670 1.524 1_556 S
C671 C672 1.415 . S
C672 H648 0.950 . S
C672 C667 1.363 . S
C672 C671 1.415 . S
C673 H649 0.951 . S
C673 C674 1.366 . S
C673 C675 1.388 . S
C674 C673 1.366 . S
C674 C678 1.385 . S
C675 H650 0.951 . S
C675 C673 1.388 . S
C675 C676 1.366 . S
C676 C675 1.366 . S
C676 C677 1.414 . S
C676 C679 1.499 . S
C677 H651 0.950 . S
C677 C676 1.414 . S
C677 C678 1.374 . S
C678 H652 0.950 . S
C678 C674 1.385 . S
C678 C677 1.374 . S
C679 C676 1.499 . S
C679 C680 1.373 . S
C679 C681 1.389 . S
C680 H653 0.950 . S
C680 C666 1.377 . S
C680 C679 1.373 . S
C681 C665 1.377 . S
C681 C679 1.389 . S
C681 C682 1.524 . S
C682 C681 1.524 . S
C682 C683 1.397 . S
C682 C687 1.363 . S
C683 H654 0.950 . S
C683 C682 1.397 . S
C683 C684 1.334 . S
C684 H655 0.950 . S
C684 C683 1.334 . S
C684 C685 1.287 . S
C685 C684 1.287 . S
C685 C686 1.524 . S
C685 H688 0.999 . S
C686 H656 0.950 . S
C686 C685 1.524 . S
C686 C687 1.415 . S
C687 H657 0.950 . S
C687 C682 1.363 . S
C687 C686 1.415 . S
H688 C685 0.999 . S
H689 C670 0.913 . S
H690 C708 0.951 . S
H691 C710 0.951 . S
H692 C712 0.950 . S
H693 C713 0.950 . S
H694 C715 0.950 . S
H695 C718 0.950 . S
H696 C719 0.950 . S
H697 C721 0.950 . S
H698 C722 0.950 . S
H699 C723 0.951 . S
H700 C725 0.951 . S
H701 C727 0.950 . S
H702 C728 0.950 . S
H703 C730 0.950 . S
H704 C733 0.950 . S
H705 C734 0.950 . S
H706 C736 0.950 . S
H707 C737 0.950 . S
C708 H690 0.951 . S
C708 C709 1.366 . S
C708 C710 1.388 . S
C709 C708 1.366 . S
C709 C713 1.385 1_556 S
C710 H691 0.951 . S
C710 C708 1.388 . S
C710 C711 1.366 . S
C711 C710 1.366 . S
C711 C712 1.414 1_556 S
C711 C714 1.499 1_556 S
C712 H692 0.950 . S
C712 C711 1.414 1_554 S
C712 C713 1.374 . S
C713 H693 0.950 . S
C713 C709 1.385 1_554 S
C713 C712 1.374 . S
C714 C711 1.499 1_554 S
C714 C715 1.373 . S
C714 C716 1.389 1_554 S
C715 H694 0.950 . S
C715 C714 1.373 . S
C715 C731 1.377 . S
C716 C714 1.389 1_556 S
C716 C717 1.524 . S
C716 C730 1.377 . S
C717 C716 1.524 . S
C717 C718 1.397 . S
C717 C722 1.363 . S
C718 H695 0.950 . S
C718 C717 1.397 . S
C718 C719 1.334 . S
C719 H696 0.950 . S
C719 C718 1.334 . S
C719 C720 1.287 . S
C720 C719 1.287 . S
C720 C721 1.524 . S
C720 H739 0.913 . S
C721 H697 0.950 . S
C721 C720 1.524 . S
C721 C722 1.415 . S
C722 H698 0.950 . S
C722 C717 1.363 . S
C722 C721 1.415 . S
C723 H699 0.951 . S
C723 C724 1.366 . S
C723 C725 1.388 . S
C724 C723 1.366 . S
C724 C728 1.385 . S
C725 H700 0.951 . S
C725 C723 1.388 . S
C725 C726 1.366 . S
C726 C725 1.366 . S
C726 C727 1.414 . S
C726 C729 1.499 . S
C727 H701 0.950 . S
C727 C726 1.414 . S
C727 C728 1.374 . S
C728 H702 0.950 . S
C728 C724 1.385 . S
C728 C727 1.374 . S
C729 C726 1.499 . S
C729 C730 1.373 1_554 S
C729 C731 1.389 . S
C730 H703 0.950 . S
C730 C716 1.377 . S
C730 C729 1.373 1_556 S
C731 C715 1.377 . S
C731 C729 1.389 . S
C731 C732 1.524 . S
C732 C731 1.524 . S
C732 C733 1.397 . S
C732 C737 1.363 . S
C733 H704 0.950 . S
C733 C732 1.397 . S
C733 C734 1.334 . S
C734 H705 0.950 . S
C734 C733 1.334 . S
C734 C735 1.287 . S
C735 C734 1.287 . S
C735 C736 1.524 . S
C735 H738 0.999 . S
C736 H706 0.950 . S
C736 C735 1.524 . S
C736 C737 1.415 . S
C737 H707 0.950 . S
C737 C732 1.363 . S
C737 C736 1.415 . S
H738 C735 0.999 . S
H739 C720 0.913 . S
H740 C758 0.951 1_554 S
H741 C760 0.951 . S
H742 C762 0.950 . S
H743 C763 0.950 . S
H744 C765 0.950 . S
H745 C768 0.950 . S
H746 C769 0.950 . S
H747 C771 0.950 . S
H748 C772 0.950 . S
H749 C773 0.951 . S
H750 C775 0.951 . S
H751 C777 0.950 . S
H752 C778 0.950 . S
H753 C780 0.950 . S
H754 C783 0.950 . S
H755 C784 0.950 . S
H756 C786 0.950 . S
H757 C787 0.950 . S
C758 H740 0.951 1_556 S
C758 C759 1.366 . S
C758 C760 1.388 . S
C759 C758 1.366 . S
C759 C763 1.385 . S
C760 H741 0.951 . S
C760 C758 1.388 . S
C760 C761 1.366 . S
C761 C760 1.366 . S
C761 C762 1.414 . S
C761 C764 1.499 . S
C762 H742 0.950 . S
C762 C761 1.414 . S
C762 C763 1.374 . S
C763 H743 0.950 . S
C763 C759 1.385 . S
C763 C762 1.374 . S
C764 C761 1.499 . S
C764 C765 1.373 . S
C764 C766 1.389 . S
C765 H744 0.950 . S
C765 C764 1.373 . S
C765 C781 1.377 . S
C766 C764 1.389 . S
C766 C767 1.524 . S
C766 C780 1.377 . S
C767 C766 1.524 . S
C767 C768 1.397 . S
C767 C772 1.363 . S
C768 H745 0.950 . S
C768 C767 1.397 . S
C768 C769 1.334 . S
C769 H746 0.950 . S
C769 C768 1.334 . S
C769 C770 1.287 . S
C770 C769 1.287 . S
C770 C771 1.524 . S
C770 H789 0.913 . S
C771 H747 0.950 . S
C771 C770 1.524 . S
C771 C772 1.415 . S
C772 H748 0.950 . S
C772 C767 1.363 . S
C772 C771 1.415 . S
C773 H749 0.951 . S
C773 C774 1.366 . S
C773 C775 1.388 . S
C774 C773 1.366 . S
C774 C778 1.385 . S
C775 H750 0.951 . S
C775 C773 1.388 . S
C775 C776 1.366 . S
C776 C775 1.366 . S
C776 C777 1.414 . S
C776 C779 1.499 . S
C777 H751 0.950 . S
C777 C776 1.414 . S
C777 C778 1.374 . S
C778 H752 0.950 . S
C778 C774 1.385 . S
C778 C777 1.374 . S
C779 C776 1.499 . S
C779 C780 1.373 . S
C779 C781 1.389 . S
C780 H753 0.950 . S
C780 C766 1.377 . S
C780 C779 1.373 . S
C781 C765 1.377 . S
C781 C779 1.389 . S
C781 C782 1.524 . S
C782 C781 1.524 . S
C782 C783 1.397 1_556 S
C782 C787 1.363 . S
C783 H754 0.950 . S
C783 C782 1.397 1_554 S
C783 C784 1.334 . S
C784 H755 0.950 . S
C784 C783 1.334 . S
C784 C785 1.287 . S
C785 C784 1.287 . S
C785 C786 1.524 1_554 S
C785 H788 0.999 . S
C786 H756 0.950 . S
C786 C785 1.524 1_556 S
C786 C787 1.415 . S
C787 H757 0.950 . S
C787 C782 1.363 . S
C787 C786 1.415 . S
H788 C785 0.999 . S
H789 C770 0.913 . S
H790 C808 0.951 . S
H791 C810 0.951 . S
H792 C812 0.950 . S
H793 C813 0.950 . S
H794 C815 0.950 1_554 S
H795 C818 0.950 . S
H796 C819 0.950 . S
H797 C821 0.950 . S
H798 C822 0.950 . S
H799 C823 0.946 1_554 S
H800 C825 0.951 . S
H801 C827 0.950 . S
H802 C828 0.950 . S
H803 C830 0.950 . S
H804 C833 0.950 . S
H805 C834 0.950 . S
H806 C836 0.950 . S
H807 C837 0.950 . S
C808 H790 0.951 . S
C808 C809 1.366 . S
C808 C810 1.388 . S
C809 C808 1.366 . S
C809 C813 1.385 . S
C810 H791 0.951 . S
C810 C808 1.388 . S
C810 C811 1.366 . S
C811 C810 1.366 . S
C811 C812 1.414 . S
C811 C814 1.499 . S
C812 H792 0.950 . S
C812 C811 1.414 . S
C812 C813 1.374 . S
C813 H793 0.950 . S
C813 C809 1.385 . S
C813 C812 1.374 . S
C814 C811 1.499 . S
C814 C815 1.373 . S
C814 C816 1.389 . S
C815 H794 0.950 1_556 S
C815 C814 1.373 . S
C815 C831 1.377 . S
C816 C814 1.389 . S
C816 C817 1.524 . S
C816 C830 1.377 . S
C817 C816 1.524 . S
C817 C818 1.397 . S
C817 C822 1.363 . S
C818 H795 0.950 . S
C818 C817 1.397 . S
C818 C819 1.334 . S
C819 H796 0.950 . S
C819 C818 1.334 . S
C819 C820 1.287 . S
C820 C819 1.287 . S
C820 C821 1.524 . S
C820 H839 0.913 . S
C821 H797 0.950 . S
C821 C820 1.524 . S
C821 C822 1.415 . S
C822 H798 0.950 . S
C822 C817 1.363 . S
C822 C821 1.415 . S
C823 H799 0.946 1_556 S
C823 C824 1.366 . S
C823 C825 1.388 . S
C824 C823 1.366 . S
C824 C828 1.385 . S
C825 H800 0.951 . S
C825 C823 1.388 . S
C825 C826 1.366 . S
C826 C825 1.366 . S
C826 C827 1.414 . S
C826 C829 1.499 . S
C827 H801 0.950 . S
C827 C826 1.414 . S
C827 C828 1.374 . S
C828 H802 0.950 . S
C828 C824 1.385 . S
C828 C827 1.374 . S
C829 C826 1.499 . S
C829 C830 1.373 . S
C829 C831 1.389 . S
C830 H803 0.950 . S
C830 C816 1.377 . S
C830 C829 1.373 . S
C831 C815 1.377 . S
C831 C829 1.389 . S
C831 C832 1.524 1_556 S
C832 C831 1.524 1_554 S
C832 C833 1.397 . S
C832 C837 1.363 . S
C833 H804 0.950 . S
C833 C832 1.397 . S
C833 C834 1.334 . S
C834 H805 0.950 . S
C834 C833 1.334 . S
C834 C835 1.287 . S
C835 C834 1.287 . S
C835 C836 1.524 . S
C835 H838 0.999 . S
C836 H806 0.950 . S
C836 C835 1.524 . S
C836 C837 1.415 . S
C837 H807 0.950 . S
C837 C832 1.363 . S
C837 C836 1.415 . S
H838 C835 0.999 . S
H839 C820 0.913 . S
H840 C858 0.951 . S
H841 C860 0.951 . S
H842 C862 0.950 . S
H843 C863 0.950 . S
H844 C865 0.950 . S
H845 C868 0.950 . S
H846 C869 0.950 . S
H847 C871 0.950 . S
H848 C872 0.950 . S
H849 C873 0.951 . S
H850 C875 0.951 1_554 S
H851 C877 0.950 . S
H852 C878 0.950 . S
H853 C880 0.950 . S
H854 C883 0.950 . S
H855 C884 0.950 . S
H856 C886 0.950 . S
H857 C887 0.950 . S
C858 H840 0.951 . S
C858 C859 1.366 . S
C858 C860 1.388 . S
C859 C858 1.366 . S
C859 C863 1.385 . S
C860 H841 0.951 . S
C860 C858 1.388 . S
C860 C861 1.366 . S
C861 C860 1.366 . S
C861 C862 1.414 . S
C861 C864 1.499 . S
C862 H842 0.950 . S
C862 C861 1.414 . S
C862 C863 1.374 . S
C863 H843 0.950 . S
C863 C859 1.385 . S
C863 C862 1.374 . S
C864 C861 1.499 . S
C864 C865 1.373 . S
C864 C866 1.389 . S
C865 H844 0.950 . S
C865 C864 1.373 . S
C865 C881 1.377 . S
C866 C864 1.389 . S
C866 C867 1.524 . S
C866 C880 1.377 . S
C867 C866 1.524 . S
C867 C868 1.397 . S
C867 C872 1.363 . S
C868 H845 0.950 . S
C868 C867 1.397 . S
C868 C869 1.334 . S
C869 H846 0.950 . S
C869 C868 1.334 . S
C869 C870 1.287 . S
C870 C869 1.287 . S
C870 C871 1.524 . S
C870 H889 0.913 . S
C871 H847 0.950 . S
C871 C870 1.524 . S
C871 C872 1.415 . S
C872 H848 0.950 . S
C872 C867 1.363 . S
C872 C871 1.415 . S
C873 H849 0.951 . S
C873 C874 1.366 . S
C873 C875 1.388 . S
C874 C873 1.366 . S
C874 C878 1.385 . S
C875 H850 0.951 1_556 S
C875 C873 1.388 . S
C875 C876 1.366 1_556 S
C876 C875 1.366 1_554 S
C876 C877 1.414 . S
C876 C879 1.499 . S
C877 H851 0.950 . S
C877 C876 1.414 . S
C877 C878 1.374 1_554 S
C878 H852 0.950 . S
C878 C874 1.385 . S
C878 C877 1.374 1_556 S
C879 C876 1.499 . S
C879 C880 1.373 . S
C879 C881 1.389 . S
C880 H853 0.950 . S
C880 C866 1.377 . S
C880 C879 1.373 . S
C881 C865 1.377 . S
C881 C879 1.389 . S
C881 C882 1.524 . S
C882 C881 1.524 . S
C882 C883 1.397 . S
C882 C887 1.363 . S
C883 H854 0.950 . S
C883 C882 1.397 . S
C883 C884 1.334 . S
C884 H855 0.950 . S
C884 C883 1.334 . S
C884 C885 1.287 . S
C885 C884 1.287 . S
C885 C886 1.524 . S
C885 H888 0.999 . S
C886 H856 0.950 . S
C886 C885 1.524 . S
C886 C887 1.415 . S
C887 H857 0.950 . S
C887 C882 1.363 . S
C887 C886 1.415 . S
H888 C885 0.999 . S
H889 C870 0.913 . S
H890 C908 0.951 . S
H891 C910 0.951 . S
H892 C912 0.950 . S
H893 C913 0.950 . S
H894 C915 0.950 . S
H895 C918 0.950 . S
H896 C919 0.950 . S
H897 C921 0.950 1_565 S
H898 C922 0.950 . S
H899 C923 0.951 . S
H900 C925 0.951 . S
H901 C927 0.950 . S
H902 C928 0.950 . S
H903 C930 0.950 . S
H904 C933 0.950 . S
H905 C934 0.950 . S
H906 C936 0.950 . S
H907 C937 0.950 . S
C908 H890 0.951 . S
C908 C909 1.366 . S
C908 C910 1.388 . S
C909 C908 1.366 . S
C909 C913 1.385 . S
C910 H891 0.951 . S
C910 C908 1.388 . S
C910 C911 1.366 . S
C911 C910 1.366 . S
C911 C912 1.414 . S
C911 C914 1.499 . S
C912 H892 0.950 . S
C912 C911 1.414 . S
C912 C913 1.374 . S
C913 H893 0.950 . S
C913 C909 1.385 . S
C913 C912 1.374 . S
C914 C911 1.499 . S
C914 C915 1.373 . S
C914 C916 1.389 . S
C915 H894 0.950 . S
C915 C914 1.373 . S
C915 C931 1.377 . S
C916 C914 1.389 . S
C916 C917 1.524 . S
C916 C930 1.377 . S
C917 C916 1.524 . S
C917 C918 1.397 . S
C917 C922 1.363 . S
C918 H895 0.950 . S
C918 C917 1.397 . S
C918 C919 1.334 . S
C919 H896 0.950 . S
C919 C918 1.334 . S
C919 C920 1.287 . S
C920 C919 1.287 . S
C920 C921 1.524 . S
C920 H939 0.913 1_545 S
C921 H897 0.950 1_545 S
C921 C920 1.524 . S
C921 C922 1.415 . S
C922 H898 0.950 . S
C922 C917 1.363 . S
C922 C921 1.415 . S
C923 H899 0.951 . S
C923 C924 1.366 . S
C923 C925 1.388 . S
C924 C923 1.366 . S
C924 C928 1.385 . S
C925 H900 0.951 . S
C925 C923 1.388 . S
C925 C926 1.366 . S
C926 C925 1.366 . S
C926 C927 1.414 . S
C926 C929 1.499 . S
C927 H901 0.950 . S
C927 C926 1.414 . S
C927 C928 1.374 . S
C928 H902 0.950 . S
C928 C924 1.385 . S
C928 C927 1.374 . S
C929 C926 1.499 . S
C929 C930 1.373 . S
C929 C931 1.389 . S
C930 H903 0.950 . S
C930 C916 1.377 . S
C930 C929 1.373 . S
C931 C915 1.377 . S
C931 C929 1.389 . S
C931 C932 1.524 . S
C932 C931 1.524 . S
C932 C933 1.397 . S
C932 C937 1.363 . S
C933 H904 0.950 . S
C933 C932 1.397 . S
C933 C934 1.334 . S
C934 H905 0.950 . S
C934 C933 1.334 . S
C934 C935 1.287 . S
C935 C934 1.287 . S
C935 C936 1.524 . S
C935 H938 0.999 . S
C936 H906 0.950 . S
C936 C935 1.524 . S
C936 C937 1.415 . S
C937 H907 0.950 . S
C937 C932 1.363 . S
C937 C936 1.415 . S
H938 C935 0.999 . S
H939 C920 0.913 1_565 S
H940 C958 0.951 . S
H941 C960 0.951 . S
H942 C962 0.950 . S
H943 C963 0.950 . S
H944 C965 0.950 . S
H945 C968 0.950 . S
H946 C969 0.950 . S
H947 C971 0.950 . S
H948 C972 0.950 . S
H949 C973 0.951 . S
H950 C975 0.951 . S
H951 C977 0.950 . S
H952 C978 0.950 . S
H953 C980 0.950 . S
H954 C983 0.950 . S
H955 C984 0.950 . S
H956 C986 0.950 . S
H957 C987 0.950 . S
C958 H940 0.951 . S
C958 C959 1.366 . S
C958 C960 1.388 . S
C959 C958 1.366 . S
C959 C963 1.385 . S
C960 H941 0.951 . S
C960 C958 1.388 . S
C960 C961 1.366 . S
C961 C960 1.366 . S
C961 C962 1.414 . S
C961 C964 1.499 . S
C962 H942 0.950 . S
C962 C961 1.414 . S
C962 C963 1.374 . S
C963 H943 0.950 . S
C963 C959 1.385 . S
C963 C962 1.374 . S
C964 C961 1.499 . S
C964 C965 1.373 . S
C964 C966 1.389 . S
C965 H944 0.950 . S
C965 C964 1.373 . S
C965 C981 1.377 . S
C966 C964 1.389 . S
C966 C967 1.524 . S
C966 C980 1.377 . S
C967 C966 1.524 . S
C967 C968 1.397 . S
C967 C972 1.363 . S
C968 H945 0.950 . S
C968 C967 1.397 . S
C968 C969 1.334 . S
C969 H946 0.950 . S
C969 C968 1.334 . S
C969 C970 1.287 . S
C970 C969 1.287 . S
C970 C971 1.524 . S
C970 H989 0.913 . S
C971 H947 0.950 . S
C971 C970 1.524 . S
C971 C972 1.415 . S
C972 H948 0.950 . S
C972 C967 1.363 . S
C972 C971 1.415 . S
C973 H949 0.951 . S
C973 C974 1.366 . S
C973 C975 1.388 1_556 S
C974 C973 1.366 . S
C974 C978 1.385 . S
C975 H950 0.951 . S
C975 C973 1.388 1_554 S
C975 C976 1.366 . S
C976 C975 1.366 . S
C976 C977 1.414 . S
C976 C979 1.499 . S
C977 H951 0.950 . S
C977 C976 1.414 . S
C977 C978 1.374 1_554 S
C978 H952 0.950 . S
C978 C974 1.385 . S
C978 C977 1.374 1_556 S
C979 C976 1.499 . S
C979 C980 1.373 . S
C979 C981 1.389 . S
C980 H953 0.950 . S
C980 C966 1.377 . S
C980 C979 1.373 . S
C981 C965 1.377 . S
C981 C979 1.389 . S
C981 C982 1.524 . S
C982 C981 1.524 . S
C982 C983 1.397 . S
C982 C987 1.363 . S
C983 H954 0.950 . S
C983 C982 1.397 . S
C983 C984 1.334 . S
C984 H955 0.950 . S
C984 C983 1.334 . S
C984 C985 1.287 . S
C985 C984 1.287 . S
C985 C986 1.524 . S
C985 H988 0.999 . S
C986 H956 0.950 . S
C986 C985 1.524 . S
C986 C987 1.415 . S
C987 H957 0.950 . S
C987 C982 1.363 . S
C987 C986 1.415 . S
H988 C985 0.999 . S
H989 C970 0.913 . S
H990 C1008 0.951 . S
H991 C1010 0.951 . S
H992 C1012 0.950 . S
H993 C1013 0.950 . S
H994 C1015 0.950 . S
H995 C1018 0.950 . S
H996 C1019 0.950 . S
H997 C1021 0.950 . S
H998 C1022 0.950 . S
H999 C1023 0.951 . S
H1000 C1025 0.951 . S
H1001 C1027 0.950 . S
H1002 C1028 0.950 . S
H1003 C1030 0.950 . S
H1004 C1033 0.950 . S
H1005 C1034 0.950 . S
H1006 C1036 0.950 . S
H1007 C1037 0.950 . S
C1008 H990 0.951 . S
C1008 C1009 1.366 . S
C1008 C1010 1.388 . S
C1009 C1008 1.366 . S
C1009 C1013 1.385 . S
C1010 H991 0.951 . S
C1010 C1008 1.388 . S
C1010 C1011 1.366 . S
C1011 C1010 1.366 . S
C1011 C1012 1.414 . S
C1011 C1014 1.499 . S
C1012 H992 0.950 . S
C1012 C1011 1.414 . S
C1012 C1013 1.374 . S
C1013 H993 0.950 . S
C1013 C1009 1.385 . S
C1013 C1012 1.374 . S
C1014 C1011 1.499 . S
C1014 C1015 1.373 . S
C1014 C1016 1.389 . S
C1015 H994 0.950 . S
C1015 C1014 1.373 . S
C1015 C1031 1.377 . S
C1016 C1014 1.389 . S
C1016 C1017 1.524 . S
C1016 C1030 1.377 . S
C1017 C1016 1.524 . S
C1017 C1018 1.397 . S
C1017 C1022 1.363 . S
C1018 H995 0.950 . S
C1018 C1017 1.397 . S
C1018 C1019 1.334 . S
C1019 H996 0.950 . S
C1019 C1018 1.334 . S
C1019 C1020 1.287 . S
C1020 C1019 1.287 . S
C1020 C1021 1.524 . S
C1020 H1039 0.913 . S
C1021 H997 0.950 . S
C1021 C1020 1.524 . S
C1021 C1022 1.415 . S
C1022 H998 0.950 . S
C1022 C1017 1.363 . S
C1022 C1021 1.415 . S
C1023 H999 0.951 . S
C1023 C1024 1.366 . S
C1023 C1025 1.388 . S
C1024 C1023 1.366 . S
C1024 C1028 1.385 . S
C1025 H1000 0.951 . S
C1025 C1023 1.388 . S
C1025 C1026 1.366 . S
C1026 C1025 1.366 . S
C1026 C1027 1.414 . S
C1026 C1029 1.499 . S
C1027 H1001 0.950 . S
C1027 C1026 1.414 . S
C1027 C1028 1.374 . S
C1028 H1002 0.950 . S
C1028 C1024 1.385 . S
C1028 C1027 1.374 . S
C1029 C1026 1.499 . S
C1029 C1030 1.373 . S
C1029 C1031 1.389 . S
C1030 H1003 0.950 . S
C1030 C1016 1.377 . S
C1030 C1029 1.373 . S
C1031 C1015 1.377 . S
C1031 C1029 1.389 . S
C1031 C1032 1.524 . S
C1032 C1031 1.524 . S
C1032 C1033 1.397 . S
C1032 C1037 1.363 . S
C1033 H1004 0.950 . S
C1033 C1032 1.397 . S
C1033 C1034 1.334 . S
C1034 H1005 0.950 . S
C1034 C1033 1.334 . S
C1034 C1035 1.287 . S
C1035 C1034 1.287 . S
C1035 C1036 1.524 . S
C1035 H1038 0.999 . S
C1036 H1006 0.950 . S
C1036 C1035 1.524 . S
C1036 C1037 1.415 . S
C1037 H1007 0.950 . S
C1037 C1032 1.363 . S
C1037 C1036 1.415 . S
H1038 C1035 0.999 . S
H1039 C1020 0.913 . S
H1040 C1058 0.951 . S
H1041 C1060 0.951 . S
H1042 C1062 0.950 . S
H1043 C1063 0.950 . S
H1044 C1065 0.950 . S
H1045 C1068 0.950 . S
H1046 C1069 0.950 . S
H1047 C1071 0.950 . S
H1048 C1072 0.950 . S
H1049 C1073 0.951 . S
H1050 C1075 0.951 . S
H1051 C1077 0.950 . S
H1052 C1078 0.950 . S
H1053 C1080 0.950 . S
H1054 C1083 0.950 . S
H1055 C1084 0.950 . S
H1056 C1086 0.950 . S
H1057 C1087 0.950 . S
C1058 H1040 0.951 . S
C1058 C1059 1.366 . S
C1058 C1060 1.388 . S
C1059 C1058 1.366 . S
C1059 C1063 1.385 . S
C1060 H1041 0.951 . S
C1060 C1058 1.388 . S
C1060 C1061 1.366 . S
C1061 C1060 1.366 . S
C1061 C1062 1.414 . S
C1061 C1064 1.499 . S
C1062 H1042 0.950 . S
C1062 C1061 1.414 . S
C1062 C1063 1.374 . S
C1063 H1043 0.950 . S
C1063 C1059 1.385 . S
C1063 C1062 1.374 . S
C1064 C1061 1.499 . S
C1064 C1065 1.373 . S
C1064 C1066 1.389 . S
C1065 H1044 0.950 . S
C1065 C1064 1.373 . S
C1065 C1081 1.377 . S
C1066 C1064 1.389 . S
C1066 C1067 1.524 . S
C1066 C1080 1.377 . S
C1067 C1066 1.524 . S
C1067 C1068 1.397 . S
C1067 C1072 1.363 . S
C1068 H1045 0.950 . S
C1068 C1067 1.397 . S
C1068 C1069 1.334 . S
C1069 H1046 0.950 . S
C1069 C1068 1.334 . S
C1069 C1070 1.287 . S
C1070 C1069 1.287 . S
C1070 C1071 1.524 . S
C1070 H1089 0.913 . S
C1071 H1047 0.950 . S
C1071 C1070 1.524 . S
C1071 C1072 1.415 . S
C1072 H1048 0.950 . S
C1072 C1067 1.363 . S
C1072 C1071 1.415 . S
C1073 H1049 0.951 . S
C1073 C1074 1.366 . S
C1073 C1075 1.388 . S
C1074 C1073 1.366 . S
C1074 C1078 1.385 . S
C1075 H1050 0.951 . S
C1075 C1073 1.388 . S
C1075 C1076 1.366 . S
C1076 C1075 1.366 . S
C1076 C1077 1.414 . S
C1076 C1079 1.499 . S
C1077 H1051 0.950 . S
C1077 C1076 1.414 . S
C1077 C1078 1.374 . S
C1078 H1052 0.950 . S
C1078 C1074 1.385 . S
C1078 C1077 1.374 . S
C1079 C1076 1.499 . S
C1079 C1080 1.373 . S
C1079 C1081 1.389 . S
C1080 H1053 0.950 . S
C1080 C1066 1.377 . S
C1080 C1079 1.373 . S
C1081 C1065 1.377 . S
C1081 C1079 1.389 . S
C1081 C1082 1.524 . S
C1082 C1081 1.524 . S
C1082 C1083 1.397 . S
C1082 C1087 1.363 . S
C1083 H1054 0.950 . S
C1083 C1082 1.397 . S
C1083 C1084 1.334 . S
C1084 H1055 0.950 . S
C1084 C1083 1.334 . S
C1084 C1085 1.287 . S
C1085 C1084 1.287 . S
C1085 C1086 1.524 . S
C1085 H1088 0.999 . S
C1086 H1056 0.950 . S
C1086 C1085 1.524 . S
C1086 C1087 1.415 . S
C1087 H1057 0.950 . S
C1087 C1082 1.363 . S
C1087 C1086 1.415 . S
H1088 C1085 0.999 . S
H1089 C1070 0.913 . S
H1090 C1108 0.951 . S
H1091 C1110 0.951 . S
H1092 C1112 0.950 . S
H1093 C1113 0.950 . S
H1094 C1115 0.950 . S
H1095 C1118 0.950 . S
H1096 C1119 0.950 . S
H1097 C1121 0.950 . S
H1098 C1122 0.950 . S
H1099 C1123 0.951 . S
H1100 C1125 0.951 . S
H1101 C1127 0.950 . S
H1102 C1128 0.950 . S
H1103 C1130 0.950 . S
H1104 C1133 0.950 . S
H1105 C1134 0.950 . S
H1106 C1136 0.950 . S
H1107 C1137 0.949 . S
C1108 H1090 0.951 . S
C1108 C1109 1.366 . S
C1108 C1110 1.388 . S
C1109 C1108 1.366 . S
C1109 C1113 1.385 . S
C1110 H1091 0.951 . S
C1110 C1108 1.388 . S
C1110 C1111 1.366 . S
C1111 C1110 1.366 . S
C1111 C1112 1.414 . S
C1111 C1114 1.499 . S
C1112 H1092 0.950 . S
C1112 C1111 1.414 . S
C1112 C1113 1.374 . S
C1113 H1093 0.950 . S
C1113 C1109 1.385 . S
C1113 C1112 1.374 . S
C1114 C1111 1.499 . S
C1114 C1115 1.373 . S
C1114 C1116 1.389 . S
C1115 H1094 0.950 . S
C1115 C1114 1.373 . S
C1115 C1131 1.377 . S
C1116 C1114 1.389 . S
C1116 C1117 1.524 . S
C1116 C1130 1.377 . S
C1117 C1116 1.524 . S
C1117 C1118 1.397 . S
C1117 C1122 1.363 . S
C1118 H1095 0.950 . S
C1118 C1117 1.397 . S
C1118 C1119 1.334 . S
C1119 H1096 0.950 . S
C1119 C1118 1.334 . S
C1119 C1120 1.287 . S
C1120 C1119 1.287 . S
C1120 C1121 1.524 . S
C1120 H1139 0.913 . S
C1121 H1097 0.950 . S
C1121 C1120 1.524 . S
C1121 C1122 1.415 . S
C1122 H1098 0.950 . S
C1122 C1117 1.363 . S
C1122 C1121 1.415 . S
C1123 H1099 0.951 . S
C1123 C1124 1.366 . S
C1123 C1125 1.388 . S
C1124 C1123 1.366 . S
C1124 C1128 1.385 . S
C1125 H1100 0.951 . S
C1125 C1123 1.388 . S
C1125 C1126 1.366 . S
C1126 C1125 1.366 . S
C1126 C1127 1.414 . S
C1126 C1129 1.499 . S
C1127 H1101 0.950 . S
C1127 C1126 1.414 . S
C1127 C1128 1.374 . S
C1128 H1102 0.950 . S
C1128 C1124 1.385 . S
C1128 C1127 1.374 . S
C1129 C1126 1.499 . S
C1129 C1130 1.373 . S
C1129 C1131 1.389 . S
C1130 H1103 0.950 . S
C1130 C1116 1.377 . S
C1130 C1129 1.373 . S
C1131 C1115 1.377 . S
C1131 C1129 1.389 . S
C1131 C1132 1.524 . S
C1132 C1131 1.524 . S
C1132 C1133 1.397 . S
C1132 C1137 1.363 1_545 S
C1133 H1104 0.950 . S
C1133 C1132 1.397 . S
C1133 C1134 1.334 1_545 S
C1134 H1105 0.950 . S
C1134 C1133 1.334 1_565 S
C1134 C1135 1.287 . S
C1135 C1134 1.287 . S
C1135 C1136 1.524 . S
C1135 H1138 0.999 . S
C1136 H1106 0.950 . S
C1136 C1135 1.524 . S
C1136 C1137 1.415 . S
C1137 H1107 0.949 . S
C1137 C1132 1.363 1_565 S
C1137 C1136 1.415 . S
H1138 C1135 0.999 . S
H1139 C1120 0.913 . S
C259 C213 2.564 . S
C274 C26 2.602 . S
C309 C13 3.873 . S
C324 C66 3.805 . S
C359 C53 2.794 . S
C374 C93 2.691 . S
C409 C133 2.688 . S
C424 C106 2.545 . S
C459 C186 1.873 . S
C474 C146 1.938 . S
C509 C173 1.717 . S
C524 C226 1.561 . S
C559 C184 1.378 . S
C574 C17 1.368 . S
C609 C224 3.336 . S
C624 C57 3.335 . S
C659 C104 4.498 . S
C674 C24 4.499 . S
C709 C144 3.440 . S
C724 C64 3.441 . S
C759 C177 0.779 . S
C774 C97 0.783 . S
C809 C137 0.498 . S
C824 C217 0.347 . S
C859 C2 0.487 . S
C874 C23 0.487 . S
C909 C42 0.502 . S
C924 C63 0.502 . S
C959 C103 0.529 . S
C974 C82 0.529 . S
C1009 C143 0.458 . S
C1024 C122 0.458 . S
C1059 C183 0.614 . S
C1074 C162 0.614 . S
C1109 C202 0.505 . S
C1124 C223 0.505 . S
