# Generated by pormake.
# Topology umr, (4)-cn, num edge types: 1
# Building blocks:
#     Node 0, Type 0, BuildingBlock: CEKHIL_clean_sbu_0, # of connection points: 4
#     Node 1, Type 0, BuildingBlock: CEKHIL_clean_sbu_0, # of connection points: 4
#     Node 2, Type 0, BuildingBlock: CEKHIL_clean_sbu_0, # of connection points: 4
#     Node 3, Type 0, BuildingBlock: CEKHIL_clean_sbu_0, # of connection points: 4
#     Node 4, Type 0, BuildingBlock: CEKHIL_clean_sbu_0, # of connection points: 4
#     Node 5, Type 0, BuildingBlock: CEKHIL_clean_sbu_0, # of connection points: 4
#     Node 6, Type 0, BuildingBlock: CEKHIL_clean_sbu_0, # of connection points: 4
#     Node 7, Type 0, BuildingBlock: CEKHIL_clean_sbu_0, # of connection points: 4
#     Node 8, Type 0, BuildingBlock: CEKHIL_clean_sbu_0, # of connection points: 4
#     Node 9, Type 0, BuildingBlock: CEKHIL_clean_sbu_0, # of connection points: 4
#     Node 10, Type 0, BuildingBlock: CEKHIL_clean_sbu_0, # of connection points: 4
#     Node 11, Type 0, BuildingBlock: CEKHIL_clean_sbu_0, # of connection points: 4
#     Node 12, Type 0, BuildingBlock: CEKHIL_clean_sbu_0, # of connection points: 4
#     Node 13, Type 0, BuildingBlock: CEKHIL_clean_sbu_0, # of connection points: 4
#     Node 14, Type 0, BuildingBlock: CEKHIL_clean_sbu_0, # of connection points: 4
#     Node 15, Type 0, BuildingBlock: CEKHIL_clean_sbu_0, # of connection points: 4
#     Node 16, Type 0, BuildingBlock: CEKHIL_clean_sbu_0, # of connection points: 4
#     Node 17, Type 0, BuildingBlock: CEKHIL_clean_sbu_0, # of connection points: 4
#     Node 18, Type 0, BuildingBlock: CEKHIL_clean_sbu_0, # of connection points: 4
#     Node 19, Type 0, BuildingBlock: CEKHIL_clean_sbu_0, # of connection points: 4
#     Node 20, Type 0, BuildingBlock: CEKHIL_clean_sbu_0, # of connection points: 4
#     Node 21, Type 0, BuildingBlock: CEKHIL_clean_sbu_0, # of connection points: 4
#     Node 22, Type 0, BuildingBlock: CEKHIL_clean_sbu_0, # of connection points: 4
#     Node 23, Type 0, BuildingBlock: CEKHIL_clean_sbu_0, # of connection points: 4
#     Node 24, Type 0, BuildingBlock: CEKHIL_clean_sbu_0, # of connection points: 4
#     Node 25, Type 0, BuildingBlock: CEKHIL_clean_sbu_0, # of connection points: 4
#     Node 26, Type 0, BuildingBlock: CEKHIL_clean_sbu_0, # of connection points: 4
#     Node 27, Type 0, BuildingBlock: CEKHIL_clean_sbu_0, # of connection points: 4
#     Node 28, Type 0, BuildingBlock: CEKHIL_clean_sbu_0, # of connection points: 4
#     Node 29, Type 0, BuildingBlock: CEKHIL_clean_sbu_0, # of connection points: 4
#     Node 30, Type 0, BuildingBlock: CEKHIL_clean_sbu_0, # of connection points: 4
#     Node 31, Type 0, BuildingBlock: CEKHIL_clean_sbu_0, # of connection points: 4
#     Edge 32, Type (0, 0), BuildingBlock: MIFKUJ_clean_linker_0, # of connection points: 2
#     Edge 33, Type (0, 0), BuildingBlock: MIFKUJ_clean_linker_0, # of connection points: 2
#     Edge 34, Type (0, 0), BuildingBlock: MIFKUJ_clean_linker_0, # of connection points: 2
#     Edge 35, Type (0, 0), BuildingBlock: MIFKUJ_clean_linker_0, # of connection points: 2
#     Edge 36, Type (0, 0), BuildingBlock: MIFKUJ_clean_linker_0, # of connection points: 2
#     Edge 37, Type (0, 0), BuildingBlock: MIFKUJ_clean_linker_0, # of connection points: 2
#     Edge 38, Type (0, 0), BuildingBlock: MIFKUJ_clean_linker_0, # of connection points: 2
#     Edge 39, Type (0, 0), BuildingBlock: MIFKUJ_clean_linker_0, # of connection points: 2
#     Edge 40, Type (0, 0), BuildingBlock: MIFKUJ_clean_linker_0, # of connection points: 2
#     Edge 41, Type (0, 0), BuildingBlock: MIFKUJ_clean_linker_0, # of connection points: 2
#     Edge 42, Type (0, 0), BuildingBlock: MIFKUJ_clean_linker_0, # of connection points: 2
#     Edge 43, Type (0, 0), BuildingBlock: MIFKUJ_clean_linker_0, # of connection points: 2
#     Edge 44, Type (0, 0), BuildingBlock: MIFKUJ_clean_linker_0, # of connection points: 2
#     Edge 45, Type (0, 0), BuildingBlock: MIFKUJ_clean_linker_0, # of connection points: 2
#     Edge 46, Type (0, 0), BuildingBlock: MIFKUJ_clean_linker_0, # of connection points: 2
#     Edge 47, Type (0, 0), BuildingBlock: MIFKUJ_clean_linker_0, # of connection points: 2
#     Edge 48, Type (0, 0), BuildingBlock: MIFKUJ_clean_linker_0, # of connection points: 2
#     Edge 49, Type (0, 0), BuildingBlock: MIFKUJ_clean_linker_0, # of connection points: 2
#     Edge 50, Type (0, 0), BuildingBlock: MIFKUJ_clean_linker_0, # of connection points: 2
#     Edge 51, Type (0, 0), BuildingBlock: MIFKUJ_clean_linker_0, # of connection points: 2
#     Edge 52, Type (0, 0), BuildingBlock: MIFKUJ_clean_linker_0, # of connection points: 2
#     Edge 53, Type (0, 0), BuildingBlock: MIFKUJ_clean_linker_0, # of connection points: 2
#     Edge 54, Type (0, 0), BuildingBlock: MIFKUJ_clean_linker_0, # of connection points: 2
#     Edge 55, Type (0, 0), BuildingBlock: MIFKUJ_clean_linker_0, # of connection points: 2
#     Edge 56, Type (0, 0), BuildingBlock: MIFKUJ_clean_linker_0, # of connection points: 2
#     Edge 57, Type (0, 0), BuildingBlock: MIFKUJ_clean_linker_0, # of connection points: 2
#     Edge 58, Type (0, 0), BuildingBlock: MIFKUJ_clean_linker_0, # of connection points: 2
#     Edge 59, Type (0, 0), BuildingBlock: MIFKUJ_clean_linker_0, # of connection points: 2
#     Edge 60, Type (0, 0), BuildingBlock: MIFKUJ_clean_linker_0, # of connection points: 2
#     Edge 61, Type (0, 0), BuildingBlock: MIFKUJ_clean_linker_0, # of connection points: 2
#     Edge 62, Type (0, 0), BuildingBlock: MIFKUJ_clean_linker_0, # of connection points: 2
#     Edge 63, Type (0, 0), BuildingBlock: MIFKUJ_clean_linker_0, # of connection points: 2
#     Edge 64, Type (0, 0), BuildingBlock: MIFKUJ_clean_linker_0, # of connection points: 2
#     Edge 65, Type (0, 0), BuildingBlock: MIFKUJ_clean_linker_0, # of connection points: 2
#     Edge 66, Type (0, 0), BuildingBlock: MIFKUJ_clean_linker_0, # of connection points: 2
#     Edge 67, Type (0, 0), BuildingBlock: MIFKUJ_clean_linker_0, # of connection points: 2
#     Edge 68, Type (0, 0), BuildingBlock: MIFKUJ_clean_linker_0, # of connection points: 2
#     Edge 69, Type (0, 0), BuildingBlock: MIFKUJ_clean_linker_0, # of connection points: 2
#     Edge 70, Type (0, 0), BuildingBlock: MIFKUJ_clean_linker_0, # of connection points: 2
#     Edge 71, Type (0, 0), BuildingBlock: MIFKUJ_clean_linker_0, # of connection points: 2
#     Edge 72, Type (0, 0), BuildingBlock: MIFKUJ_clean_linker_0, # of connection points: 2
#     Edge 73, Type (0, 0), BuildingBlock: MIFKUJ_clean_linker_0, # of connection points: 2
#     Edge 74, Type (0, 0), BuildingBlock: MIFKUJ_clean_linker_0, # of connection points: 2
#     Edge 75, Type (0, 0), BuildingBlock: MIFKUJ_clean_linker_0, # of connection points: 2
#     Edge 76, Type (0, 0), BuildingBlock: MIFKUJ_clean_linker_0, # of connection points: 2
#     Edge 77, Type (0, 0), BuildingBlock: MIFKUJ_clean_linker_0, # of connection points: 2
#     Edge 78, Type (0, 0), BuildingBlock: MIFKUJ_clean_linker_0, # of connection points: 2
#     Edge 79, Type (0, 0), BuildingBlock: MIFKUJ_clean_linker_0, # of connection points: 2
#     Edge 80, Type (0, 0), BuildingBlock: MIFKUJ_clean_linker_0, # of connection points: 2
#     Edge 81, Type (0, 0), BuildingBlock: MIFKUJ_clean_linker_0, # of connection points: 2
#     Edge 82, Type (0, 0), BuildingBlock: MIFKUJ_clean_linker_0, # of connection points: 2
#     Edge 83, Type (0, 0), BuildingBlock: MIFKUJ_clean_linker_0, # of connection points: 2
#     Edge 84, Type (0, 0), BuildingBlock: MIFKUJ_clean_linker_0, # of connection points: 2
#     Edge 85, Type (0, 0), BuildingBlock: MIFKUJ_clean_linker_0, # of connection points: 2
#     Edge 86, Type (0, 0), BuildingBlock: MIFKUJ_clean_linker_0, # of connection points: 2
#     Edge 87, Type (0, 0), BuildingBlock: MIFKUJ_clean_linker_0, # of connection points: 2
#     Edge 88, Type (0, 0), BuildingBlock: MIFKUJ_clean_linker_0, # of connection points: 2
#     Edge 89, Type (0, 0), BuildingBlock: MIFKUJ_clean_linker_0, # of connection points: 2
#     Edge 90, Type (0, 0), BuildingBlock: MIFKUJ_clean_linker_0, # of connection points: 2
#     Edge 91, Type (0, 0), BuildingBlock: MIFKUJ_clean_linker_0, # of connection points: 2
#     Edge 92, Type (0, 0), BuildingBlock: MIFKUJ_clean_linker_0, # of connection points: 2
#     Edge 93, Type (0, 0), BuildingBlock: MIFKUJ_clean_linker_0, # of connection points: 2
#     Edge 94, Type (0, 0), BuildingBlock: MIFKUJ_clean_linker_0, # of connection points: 2
#     Edge 95, Type (0, 0), BuildingBlock: MIFKUJ_clean_linker_0, # of connection points: 2
# Relax obj value: 0.091
# Max RMSD: 0.108
# Mean RMSD: 0.108
data_MOF--net-umr--node1-CEKHIL_clean_sbu_0--edge1-MIFKUJ_clean_linker_0
_symmetry_space_group_name_H-M    P1
_symmetry_Int_Tables_number       1
_symmetry_cell_setting            triclinic
loop_
_symmetry_equiv_pos_as_xyz
'x, y, z'
_cell_length_a     107.82178
_cell_length_b     107.81675
_cell_length_c     34.326481
_cell_angle_alpha  89.958625
_cell_angle_beta   90.041366
_cell_angle_gamma 89.991494
loop_
_atom_site_label
_atom_site_type_symbol
_atom_site_fract_x
_atom_site_fract_y
_atom_site_fract_z
_atom_type_partial_charge
Co0 Co 0.15827 0.29037 0.03955 0.0
O1 O 0.14155 0.29557 0.05022 0.0
O2 O 0.15837 0.30602 0.06729 0.0
C3 C 0.15495 0.28522 0.97681 0.0
O4 O 0.17695 0.28828 0.03222 0.0
Co5 Co 0.16449 0.26334 0.01415 0.0
O6 O 0.18045 0.27091 -0.00231 0.0
C7 C 0.15796 0.26883 0.09621 0.0
C8 C 0.14633 0.30533 0.0665 0.0
C9 C 0.18412 0.28114 0.01229 0.0
O10 O 0.15863 0.2806 0.08984 0.0
O11 O 0.159 0.26067 0.06929 0.0
O12 O 0.15704 0.29672 0.98608 0.0
O13 O 0.15404 0.2776 0.00555 0.0
Co14 Co 0.96021 0.9077 0.28557 0.0
O15 O 0.95463 0.89119 0.29744 0.0
O16 O 0.94419 0.90833 0.31104 0.0
C17 C 0.96625 0.9036 0.22416 0.0
O18 O 0.96267 0.92628 0.27629 0.0
Co19 Co 0.98776 0.91306 0.26376 0.0
O20 O 0.98143 0.92973 0.24979 0.0
C21 C 0.98089 0.90737 0.34528 0.0
C22 C 0.94475 0.89628 0.31194 0.0
C23 C 0.97076 0.9335 0.26047 0.0
O24 O 0.96925 0.90843 0.33721 0.0
O25 O 0.98941 0.90779 0.31936 0.0
O26 O 0.95465 0.90597 0.23139 0.0
O27 O 0.9734 0.90287 0.25409 0.0
Co28 Co 0.34412 0.70966 0.53849 0.0
O29 O 0.3607 0.70523 0.5541 0.0
O30 O 0.34398 0.69387 0.56542 0.0
C31 C 0.34914 0.71523 0.47717 0.0
O32 O 0.32564 0.71076 0.52566 0.0
Co33 Co 0.33712 0.7363 0.51134 0.0
O34 O 0.32198 0.72809 0.49118 0.0
C35 C 0.34018 0.73084 0.59561 0.0
C36 C 0.35595 0.69511 0.56818 0.0
C37 C 0.31852 0.71762 0.5046 0.0
O38 O 0.34164 0.71916 0.58877 0.0
O39 O 0.33906 0.739 0.5687 0.0
O40 O 0.34729 0.70362 0.48556 0.0
O41 O 0.34875 0.72281 0.5061 0.0
Co42 Co 0.54075 0.09218 0.7912 0.0
O43 O 0.54518 0.10907 0.8028 0.0
O44 O 0.55645 0.09267 0.81874 0.0
C45 C 0.53527 0.09565 0.72874 0.0
O46 O 0.53955 0.07345 0.78262 0.0
Co47 Co 0.5139 0.08497 0.76565 0.0
O48 O 0.52184 0.06912 0.75078 0.0
C49 C 0.51941 0.0902 0.84861 0.0
C50 C 0.55521 0.10468 0.81852 0.0
C51 C 0.53236 0.06588 0.7643 0.0
O52 O 0.53114 0.09094 0.84169 0.0
O53 O 0.51123 0.08881 0.82192 0.0
O54 O 0.5469 0.09415 0.73769 0.0
O55 O 0.52772 0.096 0.7577 0.0
Co56 Co 0.16133 0.71063 0.44783 0.0
O57 O 0.14441 0.70687 0.43395 0.0
O58 O 0.1605 0.69476 0.42161 0.0
C59 C 0.157 0.71683 0.50914 0.0
O60 O 0.17997 0.71091 0.4591 0.0
Co61 Co 0.1699 0.73703 0.47326 0.0
O62 O 0.18444 0.72797 0.49402 0.0
C63 C 0.16438 0.73165 0.39022 0.0
C64 C 0.14857 0.69649 0.41997 0.0
C65 C 0.18738 0.71738 0.48048 0.0
O66 O 0.16367 0.71988 0.39696 0.0
O67 O 0.16583 0.73974 0.41711 0.0
O68 O 0.15813 0.70507 0.5015 0.0
O69 O 0.15771 0.72414 0.47962 0.0
Co70 Co 0.53989 0.9103 0.69356 0.0
O71 O 0.54413 0.89385 0.67612 0.0
O72 O 0.55607 0.9104 0.66918 0.0
C73 C 0.53309 0.9045 0.75297 0.0
O74 O 0.53906 0.92859 0.70913 0.0
Co75 Co 0.51294 0.91761 0.71758 0.0
O76 O 0.52103 0.93251 0.73957 0.0
C77 C 0.51957 0.91469 0.63421 0.0
C78 C 0.55457 0.89853 0.66436 0.0
C79 C 0.53188 0.93577 0.72897 0.0
O80 O 0.53122 0.91376 0.64234 0.0
O81 O 0.51108 0.91524 0.66022 0.0
O82 O 0.54491 0.90598 0.74693 0.0
O83 O 0.52612 0.90567 0.7228 0.0
Co84 Co 0.34147 0.29075 0.95 0.0
O85 O 0.35822 0.29546 0.9375 0.0
O86 O 0.34156 0.30622 0.92105 0.0
C87 C 0.3455 0.286 0.01273 0.0
O88 O 0.32278 0.28921 0.9591 0.0
Co89 Co 0.33459 0.26427 0.97896 0.0
O90 O 0.3193 0.27265 -0.00256 0.0
C91 C 0.33957 0.2688 0.89496 0.0
C92 C 0.35359 0.30526 0.92108 0.0
C93 C 0.31571 0.28266 0.98131 0.0
O94 O 0.34033 0.28061 0.90056 0.0
O95 O 0.33812 0.26095 0.92263 0.0
O96 O 0.34343 0.29746 0.00282 0.0
O97 O 0.34576 0.27812 0.9846 0.0
Co98 Co 0.95921 0.09098 0.20222 0.0
O99 O 0.95368 0.10771 0.19338 0.0
O100 O 0.9429 0.09092 0.17818 0.0
C101 C 0.96594 0.0941 0.26359 0.0
O102 O 0.96173 0.07225 0.20854 0.0
Co103 Co 0.98711 0.08551 0.22025 0.0
O104 O 0.98082 0.06874 0.23278 0.0
C105 C 0.97923 0.09306 0.14129 0.0
C106 C 0.94362 0.10297 0.17896 0.0
C107 C 0.97008 0.06495 0.22277 0.0
O108 O 0.96774 0.09107 0.14971 0.0
O109 O 0.98797 0.09255 0.16649 0.0
O110 O 0.95424 0.09197 0.25725 0.0
O111 O 0.97271 0.09524 0.233 0.0
Co112 Co 0.84328 0.70938 0.95483 0.0
O113 O 0.86019 0.70432 0.94645 0.0
O114 O 0.84369 0.69327 0.93005 0.0
C115 C 0.84615 0.71596 0.01659 0.0
O116 O 0.8245 0.71111 0.96022 0.0
Co117 Co 0.83595 0.7366 0.97507 0.0
O118 O 0.82019 0.7288 0.99225 0.0
C119 C 0.84358 0.72985 0.89467 0.0
C120 C 0.85571 0.6942 0.93154 0.0
C121 C 0.817 0.71827 0.97879 0.0
O122 O 0.84312 0.71817 0.90275 0.0
O123 O 0.842 0.73837 0.92019 0.0
O124 O 0.84435 0.70423 0.00977 0.0
O125 O 0.84691 0.72293 0.98628 0.0
Co126 Co 0.04056 0.09483 0.70363 0.0
O127 O 0.04451 0.11159 0.68863 0.0
O128 O 0.05676 0.09538 0.67941 0.0
C129 C 0.03357 0.09973 0.76357 0.0
O130 O 0.04008 0.07633 0.71653 0.0
Co131 Co 0.01375 0.08666 0.72648 0.0
O132 O 0.02209 0.07151 0.74587 0.0
C133 C 0.02048 0.09047 0.64346 0.0
C134 C 0.05506 0.10729 0.67641 0.0
C135 C 0.033 0.06865 0.73482 0.0
O136 O 0.03206 0.09186 0.65189 0.0
O137 O 0.01197 0.08934 0.66922 0.0
O138 O 0.04542 0.09852 0.75762 0.0
O139 O 0.02666 0.09879 0.73318 0.0
Co140 Co 0.65977 0.29152 0.44676 0.0
O141 O 0.6435 0.29704 0.43197 0.0
O142 O 0.66075 0.30765 0.4216 0.0
C143 C 0.6546 0.28551 0.5075 0.0
O144 O 0.67816 0.28895 0.45957 0.0
Co145 Co 0.66435 0.26385 0.46924 0.0
O146 O 0.68042 0.27032 0.48832 0.0
C147 C 0.66121 0.27092 0.38647 0.0
C148 C 0.64873 0.30701 0.41867 0.0
C149 C 0.68473 0.28083 0.47798 0.0
O150 O 0.66153 0.28256 0.39518 0.0
O151 O 0.6612 0.26229 0.4121 0.0
O152 O 0.65709 0.29709 0.50049 0.0
O153 O 0.65429 0.27836 0.47751 0.0
Co154 Co 0.45843 0.90941 0.19262 0.0
O155 O 0.45306 0.89253 0.18565 0.0
O156 O 0.44216 0.90905 0.16846 0.0
C157 C 0.46513 0.90714 0.25447 0.0
O158 O 0.46069 0.92825 0.19684 0.0
Co159 Co 0.48625 0.91544 0.21056 0.0
O160 O 0.4799 0.93243 0.21914 0.0
C161 C 0.47866 0.90683 0.1325 0.0
C162 C 0.44294 0.89703 0.17078 0.0
C163 C 0.46904 0.93588 0.20913 0.0
O164 O 0.46712 0.90883 0.14026 0.0
O165 O 0.48728 0.90764 0.15802 0.0
O166 O 0.4534 0.90899 0.24772 0.0
O167 O 0.47194 0.9057 0.22411 0.0
Co168 Co 0.84197 0.29143 0.54179 0.0
O169 O 0.85864 0.29769 0.54604 0.0
O170 O 0.84187 0.30757 0.56655 0.0
C171 C 0.84369 0.28494 0.4796 0.0
O172 O 0.82326 0.28836 0.54046 0.0
Co173 Co 0.83674 0.2635 0.52493 0.0
O174 O 0.81925 0.26894 0.51993 0.0
C175 C 0.84638 0.27135 0.60141 0.0
C176 C 0.85386 0.30748 0.56214 0.0
C177 C 0.81567 0.27974 0.53002 0.0
O178 O 0.84374 0.28278 0.59387 0.0
O179 O 0.84555 0.26267 0.57614 0.0
O180 O 0.84127 0.29654 0.48682 0.0
O181 O 0.84583 0.27812 0.5096 0.0
Co182 Co 0.46075 0.09219 0.28998 0.0
O183 O 0.45618 0.10858 0.30654 0.0
O184 O 0.44501 0.09172 0.31746 0.0
C185 C 0.46594 0.09781 0.22891 0.0
O186 O 0.46226 0.07377 0.27587 0.0
Co187 Co 0.48763 0.0864 0.26151 0.0
O188 O 0.48021 0.07058 0.24399 0.0
C189 C 0.4824 0.08958 0.34577 0.0
C190 C 0.44616 0.1037 0.32063 0.0
C191 C 0.46973 0.06678 0.25635 0.0
O192 O 0.47058 0.0897 0.33972 0.0
O193 O 0.49041 0.08939 0.31827 0.0
O194 O 0.4544 0.09561 0.23745 0.0
O195 O 0.47359 0.09735 0.2576 0.0
Co196 Co 0.65952 0.71104 0.03391 0.0
O197 O 0.64257 0.70667 0.04512 0.0
O198 O 0.65885 0.69498 0.05897 0.0
C199 C 0.65593 0.71766 0.9726 0.0
O200 O 0.67826 0.71203 0.02548 0.0
Co201 Co 0.66753 0.73798 0.01226 0.0
O202 O 0.68288 0.72972 0.99388 0.0
C203 C 0.66043 0.7316 0.09323 0.0
C204 C 0.64687 0.69637 0.05933 0.0
C205 C 0.68586 0.71901 0.00656 0.0
O206 O 0.66084 0.71989 0.08565 0.0
O207 O 0.66173 0.74003 0.06726 0.0
O208 O 0.6573 0.70586 0.97942 0.0
O209 O 0.65595 0.7247 0.00279 0.0
Co210 Co 0.0412 0.91247 0.7874 0.0
O211 O 0.04567 0.89588 0.80278 0.0
O212 O 0.05774 0.91234 0.80958 0.0
C213 C 0.03358 0.90728 0.72832 0.0
O214 O 0.04004 0.93092 0.77369 0.0
Co215 Co 0.01371 0.91956 0.76884 0.0
O216 O 0.02115 0.93508 0.74904 0.0
C217 C 0.02203 0.91701 0.85076 0.0
C218 C 0.05625 0.90043 0.81374 0.0
C219 C 0.03219 0.93833 0.75743 0.0
O220 O 0.03341 0.91547 0.84024 0.0
O221 O 0.01299 0.91793 0.82673 0.0
O222 O 0.04546 0.90872 0.73308 0.0
O223 O 0.02701 0.90802 0.75952 0.0
Co224 Co 0.65909 0.79327 0.53355 0.0
O225 O 0.64199 0.79796 0.54046 0.0
O226 O 0.65808 0.80929 0.55875 0.0
C227 C 0.65721 0.78692 0.47122 0.0
O228 O 0.67798 0.79193 0.52983 0.0
Co229 Co 0.66669 0.76601 0.51434 0.0
O230 O 0.68348 0.77308 0.50752 0.0
C231 C 0.65759 0.77258 0.59266 0.0
C232 C 0.64611 0.80814 0.55599 0.0
C233 C 0.68619 0.78408 0.51809 0.0
O234 O 0.65885 0.78426 0.58539 0.0
O235 O 0.65896 0.76415 0.56679 0.0
O236 O 0.65847 0.79867 0.47882 0.0
O237 O 0.65611 0.77979 0.50106 0.0
Co238 Co 0.45976 0.40761 0.7835 0.0
O239 O 0.45507 0.39124 0.80043 0.0
O240 O 0.44325 0.40793 0.80586 0.0
C241 C 0.46711 0.40169 0.72487 0.0
O242 O 0.4611 0.42589 0.7681 0.0
Co243 Co 0.48711 0.41434 0.76283 0.0
O244 O 0.47966 0.42957 0.74068 0.0
C245 C 0.47928 0.41237 0.84554 0.0
C246 C 0.44455 0.39604 0.81088 0.0
C247 C 0.46874 0.43301 0.74981 0.0
O248 O 0.46779 0.41097 0.83582 0.0
O249 O 0.48814 0.41296 0.8208 0.0
O250 O 0.45528 0.40349 0.72961 0.0
O251 O 0.47379 0.40265 0.75578 0.0
Co252 Co 0.84193 0.20962 0.03994 0.0
O253 O 0.85866 0.20554 0.05531 0.0
O254 O 0.84233 0.19348 0.06454 0.0
C255 C 0.84682 0.21641 0.97963 0.0
O256 O 0.82344 0.21011 0.02667 0.0
Co257 Co 0.83376 0.23637 0.01699 0.0
O258 O 0.81882 0.228 -0.00358 0.0
C259 C 0.83731 0.22976 0.10007 0.0
C260 C 0.85424 0.19505 0.06769 0.0
C261 C 0.8159 0.21712 0.00753 0.0
O262 O 0.83896 0.21821 0.09162 0.0
O263 O 0.83601 0.23827 0.07436 0.0
O264 O 0.84567 0.20459 0.98621 0.0
O265 O 0.84592 0.22347 0.00974 0.0
Co266 Co 0.04183 0.59398 0.28599 0.0
O267 O 0.04608 0.6105 0.30261 0.0
O268 O 0.05827 0.5941 0.3089 0.0
C269 C 0.0345 0.59956 0.22697 0.0
O270 O 0.04095 0.57565 0.27086 0.0
Co271 Co 0.01465 0.58663 0.26509 0.0
O272 O 0.02264 0.57185 0.24187 0.0
C273 C 0.02231 0.58897 0.34781 0.0
C274 C 0.05668 0.60597 0.31355 0.0
C275 C 0.03357 0.56854 0.25144 0.0
O276 O 0.03377 0.59054 0.33815 0.0
O277 O 0.01348 0.58813 0.32299 0.0
O278 O 0.04635 0.5981 0.23219 0.0
O279 O 0.02775 0.59855 0.25772 0.0
Co280 Co 0.66018 0.21012 0.94478 0.0
O281 O 0.64328 0.20611 0.93136 0.0
O282 O 0.65934 0.19358 0.92317 0.0
C283 C 0.65596 0.21794 0.00429 0.0
O284 O 0.67877 0.21056 0.95626 0.0
Co285 Co 0.66886 0.2371 0.96278 0.0
O286 O 0.68387 0.22881 0.98344 0.0
C287 C 0.66497 0.22905 0.88097 0.0
C288 C 0.64745 0.19536 0.92045 0.0
C289 C 0.68656 0.21774 0.97364 0.0
O290 O 0.66283 0.21777 0.89157 0.0
O291 O 0.66679 0.23796 0.90496 0.0
O292 O 0.65697 0.20602 -0.00053 0.0
O293 O 0.65658 0.22451 0.97301 0.0
Co294 Co 0.04297 0.41169 0.19783 0.0
O295 O 0.04771 0.39453 0.19287 0.0
O296 O 0.0592 0.41048 0.17416 0.0
C297 C 0.03603 0.41051 0.25964 0.0
O298 O 0.04159 0.43059 0.19967 0.0
Co299 Co 0.01547 0.4193 0.21272 0.0
O300 O 0.02229 0.43628 0.21724 0.0
C301 C 0.02298 0.40891 0.13714 0.0
C302 C 0.05799 0.39853 0.17763 0.0
C303 C 0.03349 0.4389 0.20863 0.0
O304 O 0.0345 0.41089 0.14518 0.0
O305 O 0.01426 0.4103 0.16201 0.0
O306 O 0.04786 0.41161 0.25301 0.0
O307 O 0.02917 0.40906 0.22931 0.0
Co308 Co 0.84174 0.79171 0.45437 0.0
O309 O 0.85844 0.79601 0.43964 0.0
O310 O 0.84212 0.80826 0.43262 0.0
C311 C 0.84665 0.78385 0.51326 0.0
O312 O 0.82326 0.79095 0.46776 0.0
Co313 Co 0.83368 0.76453 0.47202 0.0
O314 O 0.81902 0.77258 0.49558 0.0
C315 C 0.83669 0.77287 0.3904 0.0
C316 C 0.85401 0.80669 0.42892 0.0
C317 C 0.81594 0.78361 0.48645 0.0
O318 O 0.83881 0.78412 0.40128 0.0
O319 O 0.83504 0.76383 0.414 0.0
O320 O 0.84545 0.79577 0.50874 0.0
O321 O 0.84581 0.77733 0.48194 0.0
Co322 Co 0.46079 0.59054 0.70365 0.0
O323 O 0.45585 0.60755 0.69662 0.0
O324 O 0.44482 0.59132 0.67779 0.0
C325 C 0.4669 0.59248 0.76616 0.0
O326 O 0.46253 0.57165 0.70754 0.0
Co327 Co 0.4882 0.58364 0.72358 0.0
O328 O 0.4812 0.56697 0.73302 0.0
C329 C 0.4816 0.59259 0.64511 0.0
C330 C 0.44582 0.60331 0.68053 0.0
C331 C 0.47042 0.56379 0.72143 0.0
O332 O 0.46995 0.59104 0.65214 0.0
O333 O 0.49002 0.59135 0.67111 0.0
O334 O 0.4552 0.59101 0.75819 0.0
O335 O 0.47408 0.59378 0.73657 0.0
Co336 Co 0.34329 0.21024 0.45011 0.0
O337 O 0.36022 0.20621 0.43718 0.0
O338 O 0.34394 0.19463 0.42248 0.0
C339 C 0.34724 0.21568 0.51241 0.0
O340 O 0.32462 0.21072 0.45964 0.0
Co341 Co 0.33475 0.23634 0.47787 0.0
O342 O 0.3198 0.22732 0.49608 0.0
C343 C 0.33932 0.23158 0.3937 0.0
C344 C 0.35591 0.19605 0.42198 0.0
C345 C 0.31697 0.21697 0.48066 0.0
O346 O 0.34133 0.21995 0.39997 0.0
O347 O 0.3373 0.23945 0.42092 0.0
O348 O 0.34585 0.20406 0.50332 0.0
O349 O 0.34694 0.22337 0.48371 0.0
Co350 Co 0.54256 0.59279 0.20503 0.0
O351 O 0.54667 0.60961 0.19117 0.0
O352 O 0.55857 0.5933 0.17957 0.0
C353 C 0.53611 0.59728 0.2659 0.0
O354 O 0.54179 0.57415 0.21614 0.0
Co355 Co 0.51583 0.58482 0.22956 0.0
O356 O 0.52449 0.57001 0.25038 0.0
C357 C 0.5217 0.59074 0.14709 0.0
C358 C 0.55701 0.60524 0.17751 0.0
C359 C 0.53506 0.56687 0.23714 0.0
O360 O 0.53347 0.59067 0.15391 0.0
O361 O 0.51348 0.58965 0.17379 0.0
O362 O 0.5479 0.59585 0.25905 0.0
O363 O 0.529 0.5967 0.23594 0.0
Co364 Co 0.15649 0.79181 0.94842 0.0
O365 O 0.1398 0.79732 0.93856 0.0
O366 O 0.15669 0.80772 0.92209 0.0
C367 C 0.15337 0.78603 0.01077 0.0
O368 O 0.1752 0.78945 0.95556 0.0
Co369 Co 0.16225 0.76434 0.97088 0.0
O370 O 0.17874 0.7711 0.98482 0.0
C371 C 0.15501 0.77078 0.89035 0.0
C372 C 0.14464 0.8072 0.9232 0.0
C373 C 0.18247 0.78163 0.97264 0.0
O374 O 0.15656 0.78245 0.89721 0.0
O375 O 0.15568 0.76244 0.91683 0.0
O376 O 0.15539 0.79764 0.00255 0.0
O377 O 0.15225 0.77877 0.98127 0.0
Co378 Co 0.9603 0.4093 0.69857 0.0
O379 O 0.95478 0.39251 0.69022 0.0
O380 O 0.94406 0.40929 0.67446 0.0
C381 C 0.96707 0.40643 0.76014 0.0
O382 O 0.96253 0.42805 0.70439 0.0
Co383 Co 0.98804 0.41538 0.71587 0.0
O384 O 0.98153 0.43209 0.72828 0.0
C385 C 0.98031 0.40768 0.63716 0.0
C386 C 0.94469 0.39725 0.6759 0.0
C387 C 0.97068 0.43559 0.71832 0.0
O388 O 0.9688 0.40933 0.64592 0.0
O389 O 0.9891 0.40835 0.66215 0.0
O390 O 0.95533 0.40825 0.7536 0.0
O391 O 0.97391 0.40535 0.72963 0.0
Co392 Co 0.33943 0.79092 0.0393 0.0
O393 O 0.35621 0.79568 0.05137 0.0
O394 O 0.33963 0.80694 0.06495 0.0
C395 C 0.34338 0.78478 0.97771 0.0
O396 O 0.32072 0.78947 0.02983 0.0
Co397 Co 0.3324 0.76386 0.01634 0.0
O398 O 0.31682 0.77167 -0.00191 0.0
C399 C 0.33707 0.77024 0.09911 0.0
C400 C 0.35164 0.80583 0.06571 0.0
C401 C 0.31339 0.78223 0.01076 0.0
O402 O 0.3381 0.78187 0.09088 0.0
O403 O 0.33555 0.76178 0.07337 0.0
O404 O 0.34157 0.79646 0.98525 0.0
O405 O 0.3436 0.77751 0.00747 0.0
Co406 Co 0.96095 0.59197 0.78579 0.0
O407 O 0.95607 0.60849 0.80027 0.0
O408 O 0.94453 0.59171 0.8087 0.0
C409 C 0.96808 0.59696 0.72614 0.0
O410 O 0.96257 0.57349 0.77313 0.0
Co411 Co 0.98845 0.58545 0.7662 0.0
O412 O 0.98129 0.56974 0.74671 0.0
C413 C 0.98068 0.58915 0.84823 0.0
C414 C 0.94571 0.60367 0.81208 0.0
C415 C 0.97039 0.56626 0.756 0.0
O416 O 0.96914 0.58968 0.8384 0.0
O417 O 0.98955 0.58843 0.82353 0.0
O418 O 0.95628 0.59512 0.73147 0.0
O419 O 0.97484 0.59667 0.75704 0.0
Co420 Co 0.16086 0.21001 0.54049 0.0
O421 O 0.14404 0.20654 0.55628 0.0
O422 O 0.1601 0.19415 0.56663 0.0
C423 C 0.15608 0.21623 0.47951 0.0
O424 O 0.17934 0.20993 0.52763 0.0
Co425 Co 0.16992 0.23608 0.51396 0.0
O426 O 0.18387 0.22661 0.49101 0.0
C427 C 0.16638 0.2306 0.59817 0.0
C428 C 0.14824 0.19607 0.56968 0.0
C429 C 0.18667 0.21605 0.50512 0.0
O430 O 0.16404 0.21909 0.59107 0.0
O431 O 0.16821 0.23871 0.57145 0.0
O432 O 0.15703 0.20448 0.48738 0.0
O433 O 0.15719 0.22361 0.5088 0.0
Co434 Co 0.54161 0.40911 0.28494 0.0
O435 O 0.54736 0.39238 0.29227 0.0
O436 O 0.55812 0.40916 0.30749 0.0
C437 C 0.53425 0.40643 0.22397 0.0
O438 O 0.53899 0.42781 0.27989 0.0
Co439 Co 0.51356 0.41465 0.27056 0.0
O440 O 0.51988 0.43131 0.25594 0.0
C441 C 0.52231 0.40723 0.34862 0.0
C442 C 0.55753 0.39711 0.30603 0.0
C443 C 0.53067 0.43508 0.2655 0.0
O444 O 0.5337 0.40889 0.3384 0.0
O445 O 0.51318 0.40784 0.32482 0.0
O446 O 0.54601 0.40848 0.22941 0.0
O447 O 0.52778 0.405 0.25513 0.0
H448 H 0.29942 0.28931 0.92445 0.0
H449 H 0.277 0.29192 0.93086 0.0
H450 H 0.28011 0.28697 0.05543 0.0
H451 H 0.30239 0.28331 0.04832 0.0
H452 H 0.26243 0.27444 0.03559 0.0
H453 H 0.27234 0.31631 0.0051 0.0
H454 H 0.28173 0.33371 0.96897 0.0
H455 H 0.2607 0.32395 0.86724 0.0
H456 H 0.2513 0.30639 0.90261 0.0
H457 H 0.19877 0.29391 0.0634 0.0
H458 H 0.22126 0.29728 0.05885 0.0
H459 H 0.22168 0.27948 0.94648 0.0
H460 H 0.19931 0.27573 0.9513 0.0
H461 H 0.23692 0.30527 0.9641 0.0
H462 H 0.2298 0.26117 -0.00074 0.0
H463 H 0.2201 0.24525 0.04095 0.0
H464 H 0.23602 0.26223 0.14248 0.0
H465 H 0.24566 0.27836 0.10133 0.0
C466 C 0.2953 0.28899 0.9532 0.0
C467 C 0.30257 0.28616 0.98592 0.0
C468 C 0.28247 0.29057 0.95697 0.0
C469 C 0.27674 0.28984 0.99377 0.0
C470 C 0.2842 0.28753 0.02666 0.0
C471 C 0.29694 0.28551 0.02268 0.0
C472 C 0.26295 0.29046 -0.00232 0.0
C473 C 0.25698 0.28138 0.02041 0.0
C474 C 0.2556 0.29939 0.97781 0.0
C475 C 0.26119 0.30997 0.95644 0.0
C476 C 0.26978 0.31783 0.97495 0.0
C477 C 0.2751 0.32773 0.95461 0.0
C478 C 0.27184 0.32992 0.91581 0.0
C479 C 0.26323 0.32224 0.89729 0.0
C480 C 0.25789 0.31232 0.91749 0.0
C481 C 0.20364 0.29088 0.0375 0.0
C482 C 0.19734 0.28447 0.00784 0.0
C483 C 0.21645 0.29282 0.03496 0.0
C484 C 0.22306 0.28863 0.00233 0.0
C485 C 0.21669 0.2828 0.9718 0.0
C486 C 0.20396 0.2806 0.97472 0.0
C487 C 0.23675 0.28929 0.00153 0.0
C488 C 0.24258 0.29853 0.97945 0.0
C489 C 0.24402 0.28076 0.02274 0.0
C490 C 0.23831 0.27103 0.04732 0.0
C491 C 0.23112 0.26157 0.0305 0.0
C492 C 0.22566 0.2525 0.05402 0.0
C493 C 0.22741 0.25275 0.09436 0.0
C494 C 0.23465 0.26206 0.11124 0.0
C495 C 0.24011 0.27116 0.08785 0.0
H496 H 0.22318 0.24571 0.11252 0.0
H497 H 0.27597 0.33758 0.90011 0.0
H498 H 0.98718 0.95237 0.24921 0.0
H499 H 0.98287 0.9745 0.24465 0.0
H500 H 0.94373 0.96739 0.2567 0.0
H501 H 0.94795 0.94501 0.26183 0.0
H502 H 0.95263 0.98578 0.19292 0.0
H503 H 0.95379 0.97758 0.33044 0.0
H504 H 0.96243 0.96828 0.39026 0.0
H505 H 0.99637 0.9884 0.37353 0.0
H506 H 0.98801 0.99766 0.31324 0.0
H507 H 0.94782 0.05255 0.21333 0.0
H508 H 0.94398 0.03024 0.22183 0.0
H509 H 0.98259 0.02471 0.25003 0.0
H510 H 0.98642 0.04673 0.24254 0.0
H511 H 0.96893 0.01237 0.29918 0.0
H512 H 0.96978 0.01776 0.1587 0.0
H513 H 0.96261 0.02638 0.09602 0.0
H514 H 0.92628 0.01134 0.11583 0.0
H515 H 0.93321 0.00276 0.1789 0.0
C516 C 0.97762 0.95543 0.2506 0.0
C517 C 0.96791 0.94689 0.25602 0.0
C518 C 0.97519 0.9681 0.24805 0.0
C519 C 0.963 0.97255 0.25049 0.0
C520 C 0.9532 0.9641 0.25475 0.0
C521 C 0.95564 0.95135 0.25788 0.0
C522 C 0.96082 0.9861 0.25009 0.0
C523 C 0.95589 0.99164 0.21649 0.0
C524 C 0.96528 0.99367 0.28061 0.0
C525 C 0.9703 0.98825 0.31716 0.0
C526 C 0.96313 0.97995 0.33934 0.0
C527 C 0.96797 0.9747 0.37337 0.0
C528 C 0.97995 0.97773 0.38565 0.0
C529 C 0.9871 0.98606 0.36398 0.0
C530 C 0.98231 0.99132 0.3299 0.0
C531 C 0.95548 0.04656 0.22135 0.0
C532 C 0.96743 0.05148 0.22726 0.0
C533 C 0.95327 0.03381 0.22611 0.0
C534 C 0.96301 0.02577 0.23648 0.0
C535 C 0.9749 0.0307 0.24232 0.0
C536 C 0.97708 0.04336 0.23786 0.0
C537 C 0.96112 0.01217 0.24135 0.0
C538 C 0.96533 0.00659 0.27591 0.0
C539 C 0.95612 0.00459 0.2115 0.0
C540 C 0.95196 0.00977 0.17371 0.0
C541 C 0.96023 0.01639 0.14983 0.0
C542 C 0.95622 0.02125 0.11421 0.0
C543 C 0.94399 0.01945 0.10202 0.0
C544 C 0.93575 0.01276 0.12537 0.0
C545 C 0.93971 0.00789 0.16104 0.0
H546 H 0.9409 0.02322 0.07443 0.0
H547 H 0.98368 0.97365 0.41199 0.0
H548 H 0.20199 0.7035 0.43189 0.0
H549 H 0.22434 0.69986 0.43831 0.0
H550 H 0.22397 0.71774 0.55079 0.0
H551 H 0.20182 0.72181 0.54374 0.0
H552 H 0.2407 0.72775 0.50931 0.0
H553 H 0.22995 0.68574 0.53781 0.0
H554 H 0.21984 0.6655 0.52748 0.0
H555 H 0.2398 0.66084 0.42029 0.0
H556 H 0.24991 0.68114 0.42971 0.0
H557 H 0.30516 0.69983 0.54371 0.0
H558 H 0.28275 0.69623 0.53996 0.0
H559 H 0.27991 0.72324 0.44768 0.0
H560 H 0.30216 0.72703 0.45153 0.0
H561 H 0.26508 0.68956 0.48422 0.0
H562 H 0.2561 0.74216 0.46764 0.0
H563 H 0.26626 0.762 0.48392 0.0
H564 H 0.28531 0.74456 0.57923 0.0
H565 H 0.27513 0.72467 0.56386 0.0
C566 C 0.20665 0.7064 0.45832 0.0
C567 C 0.20022 0.71307 0.48711 0.0
C568 C 0.21943 0.70429 0.46205 0.0
C569 C 0.22589 0.70856 0.49503 0.0
C570 C 0.21925 0.71447 0.5249 0.0
C571 C 0.20658 0.71677 0.52088 0.0
C572 C 0.23968 0.70818 0.49671 0.0
C573 C 0.24597 0.71935 0.50397 0.0
C574 C 0.24665 0.69724 0.49005 0.0
C575 C 0.2406 0.68502 0.48431 0.0
C576 C 0.23211 0.68045 0.51188 0.0
C577 C 0.22639 0.66895 0.50622 0.0
C578 C 0.22915 0.6619 0.47321 0.0
C579 C 0.23766 0.66632 0.44583 0.0
C580 C 0.2434 0.67781 0.45134 0.0
C581 C 0.2998 0.70485 0.52214 0.0
C582 C 0.30542 0.7139 0.49843 0.0
C583 C 0.287 0.70274 0.51996 0.0
C584 C 0.27964 0.70962 0.49402 0.0
C585 C 0.28538 0.71797 0.46836 0.0
C586 C 0.29812 0.72014 0.47068 0.0
C587 C 0.26591 0.70913 0.49634 0.0
C588 C 0.2597 0.69788 0.4897 0.0
C589 C 0.25893 0.71993 0.50446 0.0
C590 C 0.26494 0.73191 0.51435 0.0
C591 C 0.26241 0.74258 0.49217 0.0
C592 C 0.26818 0.75383 0.50122 0.0
C593 C 0.27645 0.75453 0.53251 0.0
C594 C 0.27893 0.74399 0.55492 0.0
C595 C 0.27318 0.73273 0.54603 0.0
H596 H 0.28092 0.76325 0.53944 0.0
H597 H 0.22472 0.653 0.46888 0.0
H598 H 0.55261 0.05391 0.7959 0.0
H599 H 0.5576 0.03172 0.79167 0.0
H600 H 0.52517 0.02585 0.72043 0.0
H601 H 0.52022 0.04778 0.72395 0.0
H602 H 0.54373 0.01162 0.8161 0.0
H603 H 0.52966 0.00591 0.65554 0.0
H604 H 0.53055 0.01814 0.59476 0.0
H605 H 0.56339 0.03658 0.63543 0.0
H606 H 0.56267 0.02449 0.69645 0.0
H607 H 0.51986 0.9529 0.77374 0.0
H608 H 0.52497 0.97466 0.78233 0.0
H609 H 0.558 0.96989 0.71308 0.0
H610 H 0.55277 0.94798 0.70342 0.0
H611 H 0.54543 0.9896 0.68926 0.0
H612 H 0.55986 0.97531 0.81252 0.0
H613 H 0.5588 0.96362 0.87417 0.0
H614 H 0.52717 0.98502 0.90953 0.0
H615 H 0.52794 0.99675 0.84788 0.0
C616 C 0.54662 0.0479 0.77899 0.0
C617 C 0.53601 0.05266 0.76026 0.0
C618 C 0.54947 0.03523 0.77674 0.0
C619 C 0.54183 0.02716 0.75542 0.0
C620 C 0.53133 0.03193 0.73648 0.0
C621 C 0.52848 0.04451 0.73871 0.0
C622 C 0.54437 0.01365 0.75374 0.0
C623 C 0.54429 0.00678 0.78846 0.0
C624 C 0.54534 0.00737 0.71772 0.0
C625 C 0.54612 0.01428 0.68045 0.0
C626 C 0.53713 0.01249 0.65131 0.0
C627 C 0.53757 0.01944 0.61693 0.0
C628 C 0.54702 0.02813 0.61124 0.0
C629 C 0.55606 0.02987 0.6399 0.0
C630 C 0.55562 0.023 0.67442 0.0
C631 C 0.5283 0.95638 0.76058 0.0
C632 C 0.53586 0.94866 0.73762 0.0
C633 C 0.53126 0.96886 0.76582 0.0
C634 C 0.54194 0.97392 0.74872 0.0
C635 C 0.54972 0.96618 0.72665 0.0
C636 C 0.54674 0.95365 0.72127 0.0
C637 C 0.54434 0.98746 0.75165 0.0
C638 C 0.54526 0.99437 0.71707 0.0
C639 C 0.54429 0.99374 0.78792 0.0
C640 C 0.54395 0.98689 0.82547 0.0
C641 C 0.55265 0.9775 0.83337 0.0
C642 C 0.5521 0.97086 0.86833 0.0
C643 C 0.54291 0.97356 0.89574 0.0
C644 C 0.53429 0.98294 0.88829 0.0
C645 C 0.5348 0.98961 0.85338 0.0
H646 H 0.54249 0.96841 0.92276 0.0
H647 H 0.54733 0.03351 0.58463 0.0
H648 H 0.69998 0.70553 0.05732 0.0
H649 H 0.72241 0.70172 0.05331 0.0
H650 H 0.72345 0.7196 0.941 0.0
H651 H 0.70115 0.72379 0.94534 0.0
H652 H 0.73873 0.69513 0.95448 0.0
H653 H 0.73043 0.73739 0.00272 0.0
H654 H 0.72038 0.75186 0.04852 0.0
H655 H 0.73725 0.73289 0.14503 0.0
H656 H 0.74723 0.71818 0.09974 0.0
H657 H 0.80076 0.71341 0.92045 0.0
H658 H 0.77839 0.71018 0.92624 0.0
H659 H 0.78163 0.71115 0.05172 0.0
H660 H 0.80384 0.71547 0.04547 0.0
H661 H 0.76362 0.72383 0.03601 0.0
H662 H 0.77437 0.6834 0.99259 0.0
H663 H 0.78409 0.6674 0.95134 0.0
H664 H 0.76287 0.67992 0.853 0.0
H665 H 0.75313 0.6961 0.89351 0.0
C666 C 0.70496 0.70843 0.03147 0.0
C667 C 0.69888 0.71503 0.00176 0.0
C668 C 0.71774 0.70625 0.02924 0.0
C669 C 0.72453 0.71039 -0.00313 0.0
C670 C 0.71833 0.7163 0.96611 0.0
C671 C 0.70563 0.71874 0.96874 0.0
C672 C 0.73823 0.7098 -0.00319 0.0
C673 C 0.74425 0.7014 0.97209 0.0
C674 C 0.74534 0.71769 0.02084 0.0
C675 C 0.73944 0.72661 0.04792 0.0
C676 C 0.73189 0.73623 0.03372 0.0
C677 C 0.72623 0.74449 0.05958 0.0
C678 C 0.72814 0.74327 0.09967 0.0
C679 C 0.73575 0.73381 0.11397 0.0
C680 C 0.74142 0.72552 0.08823 0.0
C681 C 0.79665 0.71275 0.94918 0.0
C682 C 0.80392 0.71463 0.98253 0.0
C683 C 0.78387 0.7108 0.95258 0.0
C684 C 0.77821 0.71019 0.9895 0.0
C685 C 0.78567 0.71162 0.02288 0.0
C686 C 0.79837 0.71401 0.01939 0.0
C687 C 0.76445 0.70913 0.99327 0.0
C688 C 0.7583 0.71731 0.01867 0.0
C689 C 0.75728 0.70077 0.97055 0.0
C690 C 0.76309 0.69103 0.94606 0.0
C691 C 0.77183 0.68279 0.9621 0.0
C692 C 0.77733 0.67369 0.93886 0.0
C693 C 0.77411 0.67267 0.89956 0.0
C694 C 0.76536 0.68073 0.88344 0.0
C695 C 0.75983 0.68986 0.90655 0.0
H696 H 0.77839 0.66561 0.88161 0.0
H697 H 0.72375 0.74967 0.11964 0.0
H698 H 0.0555 0.94895 0.75532 0.0
H699 H 0.06049 0.971 0.74623 0.0
H700 H 0.02143 0.97937 0.7374 0.0
H701 H 0.01649 0.95759 0.74466 0.0
H702 H 0.03262 0.99213 0.6864 0.0
H703 H 0.04007 0.98344 0.82406 0.0
H704 H 0.05052 0.97293 0.87889 0.0
H705 H 0.08578 0.98634 0.83877 0.0
H706 H 0.07553 0.99682 0.78346 0.0
H707 H 0.02024 0.04982 0.76982 0.0
H708 H 0.02532 0.02782 0.76973 0.0
H709 H 0.05996 0.03556 0.71218 0.0
H710 H 0.05489 0.05777 0.7113 0.0
H711 H 0.05632 0.01517 0.78699 0.0
H712 H 0.04657 0.02628 0.65182 0.0
H713 H 0.03409 0.03761 0.60311 0.0
H714 H 0.00106 0.01978 0.64486 0.0
H715 H 0.01333 0.0085 0.69423 0.0
C716 C 0.04802 0.95551 0.75113 0.0
C717 C 0.0356 0.95148 0.75066 0.0
C718 C 0.05087 0.96812 0.74612 0.0
C719 C 0.04133 0.97691 0.74143 0.0
C720 C 0.02898 0.97281 0.7406 0.0
C721 C 0.02616 0.9603 0.74489 0.0
C722 C 0.04385 0.99046 0.73822 0.0
C723 C 0.03792 0.9971 0.70829 0.0
C724 C 0.05094 0.99705 0.76622 0.0
C725 C 0.05707 0.99076 0.79942 0.0
C726 C 0.05006 0.98406 0.82681 0.0
C727 C 0.05595 0.97813 0.85799 0.0
C728 C 0.06881 0.97893 0.86223 0.0
C729 C 0.07582 0.9857 0.83539 0.0
C730 C 0.06998 0.99164 0.80414 0.0
C731 C 0.02903 0.04695 0.75754 0.0
C732 C 0.03707 0.0556 0.74002 0.0
C733 C 0.03192 0.03435 0.75768 0.0
C734 C 0.04295 0.03012 0.74076 0.0
C735 C 0.0514 0.03871 0.72539 0.0
C736 C 0.04846 0.05138 0.72486 0.0
C737 C 0.0448 0.01663 0.73601 0.0
C738 C 0.05145 0.01007 0.76444 0.0
C739 C 0.03821 0.01008 0.70707 0.0
C740 C 0.03086 0.01664 0.67688 0.0
C741 C 0.03664 0.02485 0.65079 0.0
C742 C 0.02961 0.03125 0.62303 0.0
C743 C 0.01679 0.02944 0.62096 0.0
C744 C 0.01099 0.02118 0.64652 0.0
C745 C 0.01798 0.01478 0.67435 0.0
H746 H 0.01136 0.03442 0.59954 0.0
H747 H 0.07335 0.97433 0.88638 0.0
H748 H 0.70161 0.26502 0.51017 0.0
H749 H 0.72339 0.26862 0.52323 0.0
H750 H 0.7201 0.306 0.4796 0.0
H751 H 0.69806 0.30236 0.46532 0.0
H752 H 0.74067 0.29528 0.45234 0.0
H753 H 0.72333 0.30051 0.57806 0.0
H754 H 0.71004 0.29558 0.63437 0.0
H755 H 0.72982 0.26148 0.65203 0.0
H756 H 0.74315 0.26611 0.59548 0.0
H757 H 0.80393 0.30219 0.52109 0.0
H758 H 0.78148 0.30595 0.51663 0.0
H759 H 0.77459 0.26696 0.53417 0.0
H760 H 0.79687 0.26309 0.53791 0.0
H761 H 0.75908 0.28324 0.57943 0.0
H762 H 0.77369 0.27696 0.44678 0.0
H763 H 0.78673 0.28187 0.38984 0.0
H764 H 0.77179 0.31878 0.38661 0.0
H765 H 0.75879 0.31413 0.44397 0.0
C766 C 0.70541 0.27406 0.50343 0.0
C767 C 0.69799 0.28342 0.48675 0.0
C768 C 0.71792 0.27613 0.51121 0.0
C769 C 0.72337 0.28766 0.50318 0.0
C770 C 0.71607 0.29705 0.48632 0.0
C771 C 0.70348 0.29496 0.47824 0.0
C772 C 0.7368 0.28952 0.51125 0.0
C773 C 0.74465 0.29296 0.48045 0.0
C774 C 0.74207 0.28641 0.54784 0.0
C775 C 0.73422 0.28365 0.58236 0.0
C776 C 0.72482 0.29193 0.59382 0.0
C777 C 0.71728 0.28919 0.6258 0.0
C778 C 0.71907 0.27822 0.64673 0.0
C779 C 0.72845 0.26998 0.6358 0.0
C780 C 0.73602 0.27267 0.60382 0.0
C781 C 0.79761 0.29445 0.5243 0.0
C782 C 0.80217 0.28233 0.52966 0.0
C783 C 0.78481 0.29661 0.52165 0.0
C784 C 0.7764 0.28672 0.52503 0.0
C785 C 0.78093 0.27471 0.53158 0.0
C786 C 0.79367 0.27252 0.5335 0.0
C787 C 0.76286 0.28864 0.52027 0.0
C788 C 0.75502 0.28588 0.5517 0.0
C789 C 0.75762 0.29247 0.48443 0.0
C790 C 0.76541 0.29526 0.44998 0.0
C791 C 0.77329 0.28616 0.43418 0.0
C792 C 0.78065 0.28889 0.40178 0.0
C793 C 0.78013 0.30064 0.38471 0.0
C794 C 0.77221 0.30969 0.39993 0.0
C795 C 0.76485 0.30701 0.43238 0.0
H796 H 0.78583 0.30273 0.3596 0.0
H797 H 0.71321 0.27612 0.67145 0.0
H798 H 0.48555 0.95486 0.20931 0.0
H799 H 0.48157 0.97681 0.21891 0.0
H800 H 0.44227 0.96962 0.22552 0.0
H801 H 0.44621 0.94737 0.21492 0.0
H802 H 0.44726 0.9912 0.18516 0.0
H803 H 0.4579 0.97455 0.30855 0.0
H804 H 0.46978 0.96207 0.35584 0.0
H805 H 0.50223 0.98403 0.33357 0.0
H806 H 0.49061 0.99652 0.2857 0.0
H807 H 0.44726 0.05486 0.26662 0.0
H808 H 0.44306 0.03252 0.25973 0.0
H809 H 0.48108 0.02643 0.2261 0.0
H810 H 0.48533 0.04846 0.23242 0.0
H811 H 0.47182 0.01122 0.29004 0.0
H812 H 0.46117 0.02524 0.15858 0.0
H813 H 0.44888 0.03767 0.11212 0.0
H814 H 0.4154 0.02064 0.15364 0.0
H815 H 0.4275 0.00825 0.20076 0.0
C816 C 0.47603 0.95789 0.21267 0.0
C817 C 0.46621 0.94932 0.21191 0.0
C818 C 0.47377 0.97047 0.21824 0.0
C819 C 0.46165 0.97484 0.22395 0.0
C820 C 0.45171 0.96643 0.22153 0.0
C821 C 0.45398 0.95374 0.21549 0.0
C822 C 0.4597 0.98816 0.23343 0.0
C823 C 0.4524 0.99554 0.20867 0.0
C824 C 0.46634 0.99385 0.26423 0.0
C825 C 0.47337 0.98646 0.29339 0.0
C826 C 0.46759 0.97668 0.31358 0.0
C827 C 0.47428 0.96961 0.34051 0.0
C828 C 0.48676 0.97225 0.34769 0.0
C829 C 0.49256 0.982 0.328 0.0
C830 C 0.48592 0.98909 0.30101 0.0
C831 C 0.45468 0.04876 0.25746 0.0
C832 C 0.46664 0.05349 0.25014 0.0
C833 C 0.45226 0.03602 0.25348 0.0
C834 C 0.46179 0.02785 0.24257 0.0
C835 C 0.47362 0.03259 0.23467 0.0
C836 C 0.476 0.04523 0.23816 0.0
C837 C 0.45986 0.01425 0.24078 0.0
C838 C 0.46644 0.00682 0.26719 0.0
C839 C 0.45244 0.00856 0.21191 0.0
C840 C 0.44521 0.01596 0.18352 0.0
C841 C 0.45118 0.02425 0.15807 0.0
C842 C 0.44425 0.03127 0.13156 0.0
C843 C 0.43137 0.02998 0.13004 0.0
C844 C 0.42538 0.02165 0.15493 0.0
C845 C 0.43226 0.01463 0.18152 0.0
H846 H 0.42602 0.03542 0.10949 0.0
H847 H 0.49192 0.96676 0.36854 0.0
H848 H 0.70606 0.76871 0.52343 0.0
H849 H 0.72799 0.7742 0.52321 0.0
H850 H 0.71853 0.81287 0.51164 0.0
H851 H 0.69632 0.80746 0.51275 0.0
H852 H 0.73818 0.8006 0.45553 0.0
H853 H 0.72864 0.80885 0.58956 0.0
H854 H 0.71912 0.80433 0.6533 0.0
H855 H 0.74061 0.77092 0.66244 0.0
H856 H 0.75011 0.77514 0.59846 0.0
H857 H 0.80438 0.80564 0.46743 0.0
H858 H 0.78257 0.81111 0.47811 0.0
H859 H 0.77666 0.77601 0.53567 0.0
H860 H 0.7983 0.77068 0.52635 0.0
H861 H 0.76429 0.79292 0.57218 0.0
H862 H 0.7698 0.7814 0.43627 0.0
H863 H 0.77867 0.78355 0.37037 0.0
H864 H 0.76441 0.82067 0.36261 0.0
H865 H 0.75558 0.81877 0.42871 0.0
C866 C 0.70859 0.7784 0.52084 0.0
C867 C 0.69945 0.78766 0.51806 0.0
C868 C 0.72113 0.78151 0.52084 0.0
C869 C 0.72483 0.79392 0.51752 0.0
C870 C 0.7158 0.80324 0.51431 0.0
C871 C 0.70316 0.80014 0.51508 0.0
C872 C 0.73824 0.79682 0.51706 0.0
C873 C 0.74392 0.79932 0.4812 0.0
C874 C 0.74565 0.79482 0.55042 0.0
C875 C 0.74004 0.79229 0.58909 0.0
C876 C 0.73126 0.80049 0.60501 0.0
C877 C 0.72589 0.79799 0.64123 0.0
C878 C 0.72925 0.78734 0.66189 0.0
C879 C 0.73801 0.77917 0.64641 0.0
C880 C 0.74341 0.78162 0.6102 0.0
C881 C 0.79846 0.79916 0.48279 0.0
C882 C 0.80309 0.78764 0.49557 0.0
C883 C 0.78597 0.80229 0.48872 0.0
C884 C 0.7779 0.7939 0.50719 0.0
C885 C 0.78267 0.78266 0.52135 0.0
C886 C 0.79509 0.77958 0.51572 0.0
C887 C 0.76434 0.79628 0.51027 0.0
C888 C 0.75861 0.79469 0.54667 0.0
C889 C 0.75689 0.79887 0.47721 0.0
C890 C 0.76219 0.80001 0.43757 0.0
C891 C 0.76865 0.79005 0.4206 0.0
C892 C 0.77365 0.79122 0.38322 0.0
C893 C 0.77214 0.80226 0.36237 0.0
C894 C 0.7656 0.81214 0.37883 0.0
C895 C 0.7606 0.81102 0.41625 0.0
H896 H 0.77602 0.80314 0.33342 0.0
H897 H 0.72507 0.78542 0.68992 0.0
H898 H 0.48362 0.4515 0.72215 0.0
H899 H 0.47884 0.47348 0.71654 0.0
H900 H 0.44132 0.46655 0.7537 0.0
H901 H 0.44603 0.44434 0.76007 0.0
H902 H 0.45049 0.4859 0.67793 0.0
H903 H 0.44948 0.4771 0.81858 0.0
H904 H 0.45771 0.46662 0.87709 0.0
H905 H 0.4934 0.48315 0.85754 0.0
H906 H 0.48542 0.49356 0.79853 0.0
H907 H 0.44782 0.55251 0.7075 0.0
H908 H 0.44297 0.53029 0.71227 0.0
H909 H 0.48094 0.52273 0.7442 0.0
H910 H 0.48575 0.54464 0.74037 0.0
H911 H 0.46622 0.51035 0.78996 0.0
H912 H 0.4692 0.51764 0.65081 0.0
H913 H 0.46331 0.52738 0.58843 0.0
H914 H 0.42619 0.51352 0.60088 0.0
H915 H 0.43183 0.50382 0.66361 0.0
C916 C 0.47427 0.45453 0.7286 0.0
C917 C 0.46524 0.44611 0.74191 0.0
C918 C 0.47157 0.46713 0.7253 0.0
C919 C 0.45977 0.47159 0.73485 0.0
C920 C 0.45049 0.46322 0.74619 0.0
C921 C 0.45322 0.45056 0.74993 0.0
C922 C 0.45777 0.48515 0.73625 0.0
C923 C 0.45356 0.49131 0.70277 0.0
C924 C 0.46212 0.49211 0.76828 0.0
C925 C 0.46689 0.486 0.80399 0.0
C926 C 0.45911 0.4784 0.82657 0.0
C927 C 0.46372 0.4725 0.85986 0.0
C928 C 0.47608 0.47419 0.87097 0.0
C929 C 0.48384 0.48183 0.84888 0.0
C930 C 0.47927 0.48774 0.81554 0.0
C931 C 0.45511 0.54609 0.71555 0.0
C932 C 0.46717 0.55041 0.72361 0.0
C933 C 0.45233 0.5334 0.71818 0.0
C934 C 0.4616 0.52482 0.72856 0.0
C935 C 0.4736 0.52915 0.73648 0.0
C936 C 0.47634 0.54174 0.73412 0.0
C937 C 0.45909 0.51127 0.73128 0.0
C938 C 0.46264 0.50506 0.76552 0.0
C939 C 0.45428 0.5043 0.6997 0.0
C940 C 0.45089 0.51016 0.66212 0.0
C941 C 0.45975 0.51677 0.6404 0.0
C942 C 0.45647 0.52226 0.60496 0.0
C943 C 0.44437 0.52111 0.59078 0.0
C944 C 0.43554 0.51443 0.61196 0.0
C945 C 0.43878 0.50894 0.64745 0.0
H946 H 0.44185 0.52536 0.56332 0.0
H947 H 0.47963 0.46961 0.89675 0.0
H948 H 0.69788 0.19679 0.94482 0.0
H949 H 0.71977 0.19095 0.95122 0.0
H950 H 0.72628 0.22321 0.02259 0.0
H951 H 0.70457 0.22901 0.01687 0.0
H952 H 0.73978 0.20369 0.92663 0.0
H953 H 0.74789 0.21818 0.08792 0.0
H954 H 0.73653 0.21761 0.15023 0.0
H955 H 0.71503 0.1867 0.10955 0.0
H956 H 0.72634 0.187 0.04717 0.0
H957 H 0.79821 0.2285 0.96327 0.0
H958 H 0.77649 0.22293 0.95662 0.0
H959 H 0.78238 0.19057 0.02826 0.0
H960 H 0.80427 0.19624 0.03582 0.0
H961 H 0.76259 0.2031 0.05223 0.0
H962 H 0.77623 0.18748 0.93069 0.0
H963 H 0.78762 0.18774 0.86843 0.0
H964 H 0.76572 0.21859 0.82927 0.0
H965 H 0.75434 0.21867 0.89152 0.0
C966 C 0.70394 0.20253 0.96239 0.0
C967 C 0.69945 0.2134 0.98022 0.0
C968 C 0.71645 0.1992 0.96588 0.0
C969 C 0.72464 0.20657 0.98765 0.0
C970 C 0.7201 0.21724 0.00619 0.0
C971 C 0.70767 0.2206 0.00265 0.0
C972 C 0.73811 0.20377 0.98914 0.0
C973 C 0.74478 0.20338 0.95405 0.0
C974 C 0.7446 0.20307 0.02493 0.0
C975 C 0.73796 0.20264 0.0628 0.0
C976 C 0.74081 0.2112 0.09238 0.0
C977 C 0.73435 0.21094 0.12768 0.0
C978 C 0.72505 0.20214 0.13383 0.0
C979 C 0.72221 0.19354 0.10472 0.0
C980 C 0.72863 0.19376 0.06936 0.0
C981 C 0.79498 0.22011 0.97736 0.0
C982 C 0.80302 0.21286 0.00029 0.0
C983 C 0.78253 0.21688 0.97324 0.0
C984 C 0.77781 0.20625 0.99156 0.0
C985 C 0.78584 0.19879 0.01373 0.0
C986 C 0.79835 0.20203 0.01792 0.0
C987 C 0.7643 0.20362 0.98972 0.0
C988 C 0.75762 0.20304 0.02476 0.0
C989 C 0.75781 0.20327 0.95384 0.0
C990 C 0.76444 0.2031 0.91591 0.0
C991 C 0.77387 0.19436 0.90888 0.0
C992 C 0.78033 0.19444 0.87358 0.0
C993 C 0.7774 0.20318 0.84493 0.0
C994 C 0.76798 0.21182 0.85148 0.0
C995 C 0.7615 0.21179 0.88675 0.0
H996 H 0.78243 0.20325 0.81765 0.0
H997 H 0.72006 0.20197 0.16116 0.0
H998 H 0.01865 0.45867 0.19366 0.0
H999 H 0.02406 0.48064 0.19587 0.0
H1000 H 0.06169 0.47125 0.22655 0.0
H1001 H 0.05639 0.44904 0.22346 0.0
H1002 H 0.04805 0.49006 0.27655 0.0
H1003 H 0.06013 0.48205 0.14511 0.0
H1004 H 0.05775 0.47346 0.07899 0.0
H1005 H 0.02515 0.49564 0.06132 0.0
H1006 H 0.02722 0.50422 0.12758 0.0
H1007 H 0.05487 0.55621 0.27352 0.0
H1008 H 0.06003 0.53438 0.26159 0.0
H1009 H 0.02608 0.53001 0.19641 0.0
H1010 H 0.02103 0.55165 0.20736 0.0
H1011 H 0.04394 0.51775 0.16174 0.0
H1012 H 0.02869 0.52182 0.2941 0.0
H1013 H 0.02897 0.52981 0.36142 0.0
H1014 H 0.06541 0.51463 0.37841 0.0
H1015 H 0.06539 0.50669 0.31094 0.0
C1016 C 0.02811 0.46125 0.20067 0.0
C1017 C 0.0371 0.45214 0.20848 0.0
C1018 C 0.03118 0.4738 0.20178 0.0
C1019 C 0.04327 0.47753 0.21126 0.0
C1020 C 0.05232 0.46851 0.21906 0.0
C1021 C 0.0493 0.45587 0.21716 0.0
C1022 C 0.04604 0.49094 0.21424 0.0
C1023 C 0.04753 0.49614 0.25138 0.0
C1024 C 0.04506 0.49881 0.18144 0.0
C1025 C 0.0438 0.49373 0.14144 0.0
C1026 C 0.0524 0.48502 0.12725 0.0
C1027 C 0.05111 0.48017 0.08971 0.0
C1028 C 0.04129 0.48399 0.06598 0.0
C1029 C 0.03275 0.49269 0.07973 0.0
C1030 C 0.03399 0.49757 0.11726 0.0
C1031 C 0.04859 0.55063 0.25624 0.0
C1032 C 0.03747 0.55569 0.24175 0.0
C1033 C 0.05153 0.53814 0.24957 0.0
C1034 C 0.04337 0.5305 0.22849 0.0
C1035 C 0.03254 0.53569 0.21273 0.0
C1036 C 0.02963 0.54811 0.21925 0.0
C1037 C 0.04554 0.51694 0.22427 0.0
C1038 C 0.0449 0.51171 0.18685 0.0
C1039 C 0.04708 0.50904 0.25692 0.0
C1040 C 0.04711 0.51383 0.29736 0.0
C1041 C 0.0368 0.52029 0.3121 0.0
C1042 C 0.03691 0.52479 0.35028 0.0
C1043 C 0.04722 0.52277 0.37413 0.0
C1044 C 0.05744 0.51622 0.35986 0.0
C1045 C 0.05739 0.51172 0.32166 0.0
H1046 H 0.04728 0.52625 0.40369 0.0
H1047 H 0.04032 0.48022 0.03693 0.0
H1048 H 0.3036 0.20381 0.42729 0.0
H1049 H 0.28128 0.19943 0.42888 0.0
H1050 H 0.27881 0.21589 0.54299 0.0
H1051 H 0.30103 0.22068 0.54114 0.0
H1052 H 0.26424 0.19002 0.51978 0.0
H1053 H 0.2714 0.23481 0.4909 0.0
H1054 H 0.2817 0.25109 0.45207 0.0
H1055 H 0.26766 0.23478 0.34679 0.0
H1056 H 0.25744 0.21829 0.38508 0.0
H1057 H 0.20252 0.20729 0.55994 0.0
H1058 H 0.22468 0.20342 0.55235 0.0
H1059 H 0.22152 0.21031 0.42865 0.0
H1060 H 0.19952 0.21523 0.43721 0.0
H1061 H 0.23958 0.22188 0.44983 0.0
H1062 H 0.22877 0.18004 0.47423 0.0
H1063 H 0.21894 0.16221 0.50696 0.0
H1064 H 0.23975 0.16978 0.61094 0.0
H1065 H 0.24958 0.18776 0.57904 0.0
C1066 C 0.29835 0.20627 0.45303 0.0
C1067 C 0.30401 0.21266 0.484 0.0
C1068 C 0.28563 0.20375 0.45388 0.0
C1069 C 0.27848 0.20733 0.48608 0.0
C1070 C 0.28424 0.21301 0.51802 0.0
C1071 C 0.29689 0.2158 0.51681 0.0
C1072 C 0.26482 0.2065 0.48463 0.0
C1073 C 0.25875 0.19696 0.50472 0.0
C1074 C 0.2578 0.21528 0.46358 0.0
C1075 C 0.2638 0.22527 0.44076 0.0
C1076 C 0.27061 0.23464 0.45945 0.0
C1077 C 0.27641 0.24391 0.43756 0.0
C1078 C 0.27537 0.24394 0.39697 0.0
C1079 C 0.26848 0.23473 0.37822 0.0
C1080 C 0.26269 0.22543 0.39999 0.0
C1081 C 0.20655 0.20772 0.53106 0.0
C1082 C 0.1994 0.21153 0.4991 0.0
C1083 C 0.21923 0.20541 0.5266 0.0
C1084 C 0.22488 0.20637 0.48976 0.0
C1085 C 0.21748 0.20954 0.45744 0.0
C1086 C 0.20491 0.21229 0.4622 0.0
C1087 C 0.23863 0.20541 0.48573 0.0
C1088 C 0.24484 0.2147 0.46454 0.0
C1089 C 0.24573 0.19614 0.50493 0.0
C1090 C 0.23985 0.18531 0.52428 0.0
C1091 C 0.23119 0.17795 0.50416 0.0
C1092 C 0.22562 0.16781 0.52256 0.0
C1093 C 0.2287 0.16488 0.56102 0.0
C1094 C 0.23737 0.17207 0.58115 0.0
C1095 C 0.24296 0.18222 0.5629 0.0
H1096 H 0.22438 0.15702 0.57522 0.0
H1097 H 0.27987 0.25113 0.38007 0.0
H1098 H 0.51699 0.45233 0.22628 0.0
H1099 H 0.52066 0.47453 0.22132 0.0
H1100 H 0.5541 0.47069 0.28935 0.0
H1101 H 0.5506 0.44827 0.29397 0.0
H1102 H 0.52076 0.49089 0.27679 0.0
H1103 H 0.57423 0.49455 0.26321 0.0
H1104 H 0.59171 0.48258 0.23604 0.0
H1105 H 0.56716 0.46527 0.1539 0.0
H1106 H 0.54958 0.47725 0.1802 0.0
H1107 H 0.53322 0.55337 0.3036 0.0
H1108 H 0.53613 0.53099 0.31079 0.0
H1109 H 0.54756 0.52859 0.19053 0.0
H1110 H 0.5454 0.55114 0.1841 0.0
H1111 H 0.55911 0.51142 0.22969 0.0
H1112 H 0.51647 0.52438 0.21993 0.0
H1113 H 0.49789 0.53632 0.23863 0.0
H1114 H 0.49874 0.51988 0.35259 0.0
H1115 H 0.51742 0.50795 0.33468 0.0
C1116 C 0.52518 0.45615 0.24008 0.0
C1117 C 0.53345 0.44849 0.26081 0.0
C1118 C 0.52726 0.46888 0.2372 0.0
C1119 C 0.53764 0.47431 0.25498 0.0
C1120 C 0.54609 0.4667 0.27505 0.0
C1121 C 0.54405 0.45389 0.27777 0.0
C1122 C 0.53914 0.48802 0.25397 0.0
C1123 C 0.52918 0.49535 0.26662 0.0
C1124 C 0.55004 0.49388 0.24022 0.0
C1125 C 0.56057 0.48669 0.22404 0.0
C1126 C 0.57257 0.48821 0.2393 0.0
C1127 C 0.58249 0.48142 0.22405 0.0
C1128 C 0.58053 0.47314 0.19337 0.0
C1129 C 0.56865 0.47165 0.17778 0.0
C1130 C 0.5587 0.47842 0.1929 0.0
C1131 C 0.53666 0.54808 0.27904 0.0
C1132 C 0.53897 0.55391 0.2432 0.0
C1133 C 0.53826 0.53529 0.28306 0.0
C1134 C 0.54168 0.52802 0.25085 0.0
C1135 C 0.54483 0.53397 0.21576 0.0
C1136 C 0.54359 0.54685 0.21206 0.0
C1137 C 0.54072 0.51425 0.25261 0.0
C1138 C 0.55075 0.50692 0.2402 0.0
C1139 C 0.52972 0.50832 0.26543 0.0
C1140 C 0.5184 0.51537 0.27609 0.0
C1141 C 0.51272 0.52336 0.24903 0.0
C1142 C 0.50217 0.53012 0.25948 0.0
C1143 C 0.49715 0.52888 0.2968 0.0
C1144 C 0.50265 0.52084 0.32371 0.0
C1145 C 0.51321 0.51407 0.31342 0.0
H1146 H 0.48899 0.53413 0.30485 0.0
H1147 H 0.58823 0.46789 0.1816 0.0
H1148 H 0.29649 0.77128 0.96281 0.0
H1149 H 0.2745 0.7758 0.95649 0.0
H1150 H 0.27811 0.80568 0.03923 0.0
H1151 H 0.30033 0.80115 0.04585 0.0
H1152 H 0.25869 0.79073 0.05673 0.0
H1153 H 0.27268 0.8124 0.94479 0.0
H1154 H 0.28451 0.81557 0.88417 0.0
H1155 H 0.2647 0.78569 0.82979 0.0
H1156 H 0.25286 0.78221 0.89028 0.0
H1157 H 0.19503 0.80257 0.94868 0.0
H1158 H 0.21717 0.80712 0.95681 0.0
H1159 H 0.22218 0.77212 0.01573 0.0
H1160 H 0.20024 0.76761 0.00841 0.0
H1161 H 0.23718 0.79539 0.92969 0.0
H1162 H 0.2438 0.77356 0.08296 0.0
H1163 H 0.23193 0.77106 0.14386 0.0
H1164 H 0.21059 0.80356 0.1167 0.0
H1165 H 0.22241 0.80633 0.05581 0.0
C1166 C 0.2927 0.77891 0.97939 0.0
C1167 C 0.30022 0.78582 0.00489 0.0
C1168 C 0.28009 0.78153 0.97559 0.0
C1169 C 0.27466 0.79115 -0.00286 0.0
C1170 C 0.28213 0.79823 0.02223 0.0
C1171 C 0.29483 0.79566 0.02586 0.0
C1172 C 0.26104 0.79316 -0.00511 0.0
C1173 C 0.25399 0.79189 0.02902 0.0
C1174 C 0.2549 0.79491 0.95883 0.0
C1175 C 0.2619 0.79703 0.92217 0.0
C1176 C 0.27088 0.80646 0.91998 0.0
C1177 C 0.27758 0.80832 0.88562 0.0
C1178 C 0.27534 0.80085 0.85314 0.0
C1179 C 0.26639 0.7915 0.85495 0.0
C1180 C 0.25967 0.78959 0.88925 0.0
C1181 C 0.20083 0.79589 0.9636 0.0
C1182 C 0.1958 0.78473 0.97789 0.0
C1183 C 0.21349 0.79849 0.96817 0.0
C1184 C 0.22132 0.79004 0.98735 0.0
C1185 C 0.21631 0.77892 0.00155 0.0
C1186 C 0.20372 0.77632 -0.00293 0.0
C1187 C 0.23484 0.79247 0.99133 0.0
C1188 C 0.24187 0.7945 0.95751 0.0
C1189 C 0.24097 0.79158 0.02775 0.0
C1190 C 0.23398 0.79014 0.06476 0.0
C1191 C 0.23664 0.78024 0.09012 0.0
C1192 C 0.22991 0.77876 0.12461 0.0
C1193 C 0.22054 0.78717 0.13418 0.0
C1194 C 0.21787 0.79707 0.10926 0.0
C1195 C 0.22456 0.79858 0.07472 0.0
H1196 H 0.21531 0.78598 0.16083 0.0
H1197 H 0.28053 0.80232 0.82656 0.0
H1198 H 0.9489 0.44763 0.69931 0.0
H1199 H 0.94437 0.46985 0.70567 0.0
H1200 H 0.98103 0.47593 0.75227 0.0
H1201 H 0.98555 0.45396 0.74671 0.0
H1202 H 0.96462 0.48827 0.79363 0.0
H1203 H 0.97349 0.48236 0.65649 0.0
H1204 H 0.97022 0.47341 0.59118 0.0
H1205 H 0.93318 0.48804 0.5889 0.0
H1206 H 0.93619 0.49694 0.65447 0.0
H1207 H 0.986 0.54728 0.73764 0.0
H1208 H 0.98104 0.52538 0.73056 0.0
H1209 H 0.94239 0.53318 0.75087 0.0
H1210 H 0.94727 0.55534 0.75866 0.0
H1211 H 0.95434 0.51423 0.67862 0.0
H1212 H 0.94727 0.52176 0.81755 0.0
H1213 H 0.95283 0.5314 0.88034 0.0
H1214 H 0.98861 0.51396 0.8763 0.0
H1215 H 0.98332 0.50438 0.81314 0.0
C1216 C 0.95598 0.4537 0.71103 0.0
C1217 C 0.96761 0.44896 0.7224 0.0
C1218 C 0.95338 0.46641 0.71453 0.0
C1219 C 0.96238 0.47458 0.7293 0.0
C1220 C 0.97391 0.46982 0.74098 0.0
C1221 C 0.97649 0.45721 0.73759 0.0
C1222 C 0.9601 0.48814 0.73243 0.0
C1223 C 0.96224 0.4939 0.7685 0.0
C1224 C 0.95682 0.49554 0.69986 0.0
C1225 C 0.955 0.49015 0.66057 0.0
C1226 C 0.96461 0.48356 0.64221 0.0
C1227 C 0.96281 0.47852 0.60512 0.0
C1228 C 0.95148 0.48011 0.58596 0.0
C1229 C 0.94194 0.48678 0.60382 0.0
C1230 C 0.94368 0.49182 0.64094 0.0
C1231 C 0.97639 0.54444 0.74018 0.0
C1232 C 0.96703 0.5531 0.74891 0.0
C1233 C 0.9736 0.5319 0.7361 0.0
C1234 C 0.96138 0.52771 0.74028 0.0
C1235 C 0.95189 0.5363 0.74755 0.0
C1236 C 0.9547 0.54891 0.75215 0.0
C1237 C 0.959 0.51422 0.73957 0.0
C1238 C 0.95619 0.5085 0.70397 0.0
C1239 C 0.96178 0.50683 0.7724 0.0
C1240 C 0.96494 0.51246 0.8105 0.0
C1241 C 0.95637 0.52008 0.82988 0.0
C1242 C 0.95946 0.52551 0.86557 0.0
C1243 C 0.97108 0.52332 0.88225 0.0
C1244 C 0.97962 0.51566 0.86333 0.0
C1245 C 0.97657 0.51022 0.82761 0.0
H1246 H 0.97345 0.52753 0.90988 0.0
H1247 H 0.95011 0.47621 0.55724 0.0
H1248 H 0.14652 0.26308 0.95136 0.0
H1249 H 0.1489 0.25401 0.88686 0.0
H1250 H 0.16698 0.28736 0.84677 0.0
H1251 H 0.16436 0.29667 0.91165 0.0
H1252 H 0.1511 0.27801 0.79236 0.0
H1253 H 0.18402 0.26248 0.87163 0.0
H1254 H 0.19312 0.25294 0.93035 0.0
H1255 H 0.17262 0.2195 0.9089 0.0
H1256 H 0.16323 0.22891 0.85036 0.0
H1257 H 0.17694 0.25187 0.62476 0.0
H1258 H 0.17561 0.26072 0.68976 0.0
H1259 H 0.15534 0.22863 0.72935 0.0
H1260 H 0.15671 0.21954 0.66385 0.0
H1261 H 0.17284 0.23748 0.7839 0.0
H1262 H 0.13958 0.2537 0.70504 0.0
H1263 H 0.13073 0.26359 0.64649 0.0
H1264 H 0.15264 0.29618 0.66733 0.0
H1265 H 0.16176 0.2864 0.72573 0.0
C1266 C 0.15091 0.26855 0.92875 0.0
C1267 C 0.15535 0.28054 0.93652 0.0
C1268 C 0.15231 0.26332 0.89195 0.0
C1269 C 0.15836 0.2699 0.86231 0.0
C1270 C 0.16235 0.28211 0.8694 0.0
C1271 C 0.16084 0.28741 0.90635 0.0
C1272 C 0.16075 0.2638 0.82439 0.0
C1273 C 0.15602 0.26925 0.79044 0.0
C1274 C 0.16699 0.25225 0.82205 0.0
C1275 C 0.17285 0.24644 0.85672 0.0
C1276 C 0.1814 0.25311 0.87953 0.0
C1277 C 0.18661 0.24773 0.91279 0.0
C1278 C 0.18343 0.23563 0.92338 0.0
C1279 C 0.17507 0.22887 0.90065 0.0
C1280 C 0.16981 0.23422 0.8674 0.0
C1281 C 0.17226 0.24661 0.64724 0.0
C1282 C 0.16674 0.23507 0.63893 0.0
C1283 C 0.17152 0.2517 0.68442 0.0
C1284 C 0.16516 0.24545 0.71408 0.0
C1285 C 0.16023 0.23362 0.70668 0.0
C1286 C 0.16101 0.22845 0.6693 0.0
C1287 C 0.16313 0.25167 0.75199 0.0
C1288 C 0.16795 0.24625 0.78589 0.0
C1289 C 0.15705 0.2633 0.75429 0.0
C1290 C 0.15142 0.26928 0.71957 0.0
C1291 C 0.14256 0.26295 0.69701 0.0
C1292 C 0.13749 0.26854 0.66386 0.0
C1293 C 0.14114 0.2805 0.65315 0.0
C1294 C 0.14983 0.28691 0.67565 0.0
C1295 C 0.15494 0.28135 0.70879 0.0
H1296 H 0.13721 0.2848 0.62746 0.0
H1297 H 0.18747 0.23148 0.94917 0.0
H1298 H 0.03445 0.90669 0.9129 0.0
H1299 H 0.02686 0.9051 0.98024 0.0
H1300 H 0.99471 0.92684 0.94945 0.0
H1301 H 0.00223 0.92858 0.88293 0.0
H1302 H 0.00262 0.93251 0.02191 0.0
H1303 H 0.99371 0.89555 0.94601 0.0
H1304 H 0.99944 0.87748 0.90587 0.0
H1305 H 0.02189 0.86332 -0.00076 0.0
H1306 H 0.01642 0.88142 0.03973 0.0
H1307 H 0.95681 0.91414 0.15772 0.0
H1308 H 0.96762 0.9165 0.09513 0.0
H1309 H 0.99862 0.89561 0.1401 0.0
H1310 H 0.98795 0.89327 0.20234 0.0
H1311 H 0.99295 0.88951 0.06384 0.0
H1312 H 1.00053 0.92555 0.14186 0.0
H1313 H 0.99426 0.94323 0.18281 0.0
H1314 H 0.97424 0.959 0.08661 0.0
H1315 H 0.98024 0.94128 0.04518 0.0
C1316 C 0.02592 0.91134 0.92082 0.0
C1317 C 0.01883 0.91756 0.89255 0.0
C1318 C 0.02156 0.91039 0.95916 0.0
C1319 C 0.01011 0.91569 0.96959 0.0
C1320 C 0.00353 0.92265 0.94203 0.0
C1321 C 0.00781 0.92354 0.90391 0.0
C1322 C 0.00426 0.9131 0.00774 0.0
C1323 C 1.00048 0.92312 0.03104 0.0
C1324 C 0.00159 0.90084 0.01986 0.0
C1325 C 0.00478 0.8899 -0.0043 0.0
C1326 C 0.99993 0.88863 0.95786 0.0
C1327 C 0.00312 0.87837 0.93507 0.0
C1328 C 0.01105 0.86927 0.94995 0.0
C1329 C 0.01577 0.87039 0.98772 0.0
C1330 C 0.01263 0.88064 0.0106 0.0
C1331 C 0.96582 0.90987 0.15387 0.0
C1332 C 0.9716 0.9036 0.18478 0.0
C1333 C 0.97201 0.91127 0.11833 0.0
C1334 C 0.98398 0.90635 0.11332 0.0
C1335 C 0.98942 0.8995 0.14347 0.0
C1336 C 0.98332 0.89821 0.17898 0.0
C1337 C 0.99118 0.90891 0.07761 0.0
C1338 C 0.9952 0.8989 0.05488 0.0
C1339 C 0.99408 0.92117 0.06607 0.0
C1340 C 0.99074 0.93202 0.09052 0.0
C1341 C 0.99473 0.93275 0.12949 0.0
C1342 C 0.99122 0.94278 0.1528 0.0
C1343 C 0.98381 0.95221 0.13739 0.0
C1344 C 0.97996 0.95167 0.09854 0.0
C1345 C 0.98342 0.94164 0.07511 0.0
H1346 H 0.98108 0.95996 0.15552 0.0
H1347 H 0.01351 0.86134 0.93226 0.0
H1348 H 0.33907 0.70518 0.41113 0.0
H1349 H 0.33799 0.7149 0.34662 0.0
H1350 H 0.35993 0.74562 0.38867 0.0
H1351 H 0.36048 0.73622 0.45335 0.0
H1352 H 0.34141 0.75433 0.35164 0.0
H1353 H 0.37128 0.72263 0.3229 0.0
H1354 H 0.37959 0.70133 0.31974 0.0
H1355 H 0.34925 0.6904 0.2463 0.0
H1356 H 0.34067 0.71159 0.24943 0.0
H1357 H 0.34949 0.78106 0.16035 0.0
H1358 H 0.35253 0.77223 0.22569 0.0
H1359 H 0.32911 0.74126 0.19511 0.0
H1360 H 0.32632 0.74981 0.13011 0.0
H1361 H 0.34984 0.73321 0.22623 0.0
H1362 H 0.31965 0.76492 0.25793 0.0
H1363 H 0.31161 0.78632 0.2612 0.0
H1364 H 0.34323 0.79734 0.32896 0.0
H1365 H 0.35153 0.77604 0.32569 0.0
C1366 C 0.34382 0.7139 0.40627 0.0
C1367 C 0.34986 0.71997 0.43703 0.0
C1368 C 0.34323 0.71945 0.36942 0.0
C1369 C 0.34896 0.73098 0.36261 0.0
C1370 C 0.35538 0.73677 0.39316 0.0
C1371 C 0.35574 0.73137 0.43005 0.0
C1372 C 0.34768 0.73741 0.3245 0.0
C1373 C 0.34345 0.74975 0.32425 0.0
C1374 C 0.35012 0.73142 0.28866 0.0
C1375 C 0.35528 0.71867 0.28669 0.0
C1376 C 0.36633 0.71566 0.30631 0.0
C1377 C 0.3711 0.70361 0.30448 0.0
C1378 C 0.36494 0.69451 0.28291 0.0
C1379 C 0.35401 0.69745 0.26303 0.0
C1380 C 0.3492 0.70948 0.26479 0.0
C1381 C 0.34487 0.77247 0.16789 0.0
C1382 C 0.33777 0.76607 0.14006 0.0
C1383 C 0.34661 0.76742 0.20517 0.0
C1384 C 0.34108 0.75604 0.21524 0.0
C1385 C 0.33358 0.74997 0.1879 0.0
C1386 C 0.33197 0.75489 0.15075 0.0
C1387 C 0.34343 0.75003 0.25346 0.0
C1388 C 0.34788 0.73778 0.25369 0.0
C1389 C 0.34126 0.75613 0.28926 0.0
C1390 C 0.33627 0.76892 0.29119 0.0
C1391 C 0.32493 0.77194 0.27325 0.0
C1392 C 0.32032 0.78404 0.27516 0.0
C1393 C 0.32693 0.79319 0.29517 0.0
C1394 C 0.33814 0.79025 0.31341 0.0
C1395 C 0.34279 0.77816 0.31156 0.0
H1396 H 0.32334 0.80256 0.29662 0.0
H1397 H 0.36864 0.68519 0.28153 0.0
H1398 H 0.51127 0.09727 0.70612 0.0
H1399 H 0.50286 0.09571 0.64061 0.0
H1400 H 0.53982 0.09194 0.59413 0.0
H1401 H 0.54844 0.09336 0.66043 0.0
H1402 H 0.52379 0.10907 0.553 0.0
H1403 H 0.5242 0.06712 0.59748 0.0
H1404 H 0.52056 0.05033 0.64491 0.0
H1405 H 0.4814 0.05752 0.64109 0.0
H1406 H 0.48483 0.07447 0.59394 0.0
H1407 H 0.50662 0.0883 0.36784 0.0
H1408 H 0.51519 0.08906 0.43301 0.0
H1409 H 0.47839 0.09171 0.48128 0.0
H1410 H 0.46951 0.0909 0.41528 0.0
H1411 H 0.49456 0.0749 0.52153 0.0
H1412 H 0.49453 0.11707 0.47644 0.0
H1413 H 0.4986 0.13392 0.42955 0.0
H1414 H 0.53763 0.12617 0.43466 0.0
H1415 H 0.53377 0.10915 0.48119 0.0
C1416 C 0.51767 0.0961 0.6821 0.0
C1417 C 0.53053 0.09534 0.68844 0.0
C1418 C 0.51282 0.0952 0.64467 0.0
C1419 C 0.52071 0.09357 0.61274 0.0
C1420 C 0.5336 0.09315 0.61861 0.0
C1421 C 0.5385 0.09396 0.65635 0.0
C1422 C 0.51529 0.09223 0.57346 0.0
C1423 C 0.51757 0.1015 0.54581 0.0
C1424 C 0.50694 0.0825 0.56471 0.0
C1425 C 0.50478 0.07213 0.5924 0.0
C1426 C 0.51481 0.06517 0.60693 0.0
C1427 C 0.51279 0.05562 0.63374 0.0
C1428 C 0.50076 0.05289 0.64611 0.0
C1429 C 0.49072 0.05966 0.63151 0.0
C1430 C 0.49269 0.06922 0.60468 0.0
C1431 C 0.50024 0.08904 0.39208 0.0
C1432 C 0.48732 0.08966 0.38613 0.0
C1433 C 0.50522 0.08947 0.42942 0.0
C1434 C 0.49744 0.0906 0.46183 0.0
C1435 C 0.48453 0.09088 0.45646 0.0
C1436 C 0.47948 0.09046 0.4188 0.0
C1437 C 0.50303 0.09177 0.50101 0.0
C1438 C 0.50079 0.08247 0.52867 0.0
C1439 C 0.51147 0.10145 0.50973 0.0
C1440 C 0.51384 0.11177 0.48207 0.0
C1441 C 0.50397 0.1189 0.46736 0.0
C1442 C 0.50624 0.12849 0.44088 0.0
C1443 C 0.51836 0.13109 0.42907 0.0
C1444 C 0.52824 0.12413 0.44381 0.0
C1445 C 0.52602 0.11452 0.47028 0.0
H1446 H 0.5201 0.13852 0.40855 0.0
H1447 H 0.49921 0.04551 0.66694 0.0
H1448 H 0.15954 0.78293 0.82104 0.0
H1449 H 0.15832 0.774 0.75527 0.0
H1450 H 0.14452 0.73974 0.80354 0.0
H1451 H 0.14569 0.74845 0.86865 0.0
H1452 H 0.1645 0.73616 0.75599 0.0
H1453 H 0.12557 0.75842 0.75358 0.0
H1454 H 0.11233 0.777 0.75886 0.0
H1455 H 0.13259 0.79441 0.66612 0.0
H1456 H 0.14607 0.77601 0.66065 0.0
H1457 H 0.15219 0.70446 0.57764 0.0
H1458 H 0.15022 0.71363 0.64285 0.0
H1459 H 0.15829 0.74978 0.59493 0.0
H1460 H 0.1596 0.74087 0.53033 0.0
H1461 H 0.14063 0.75222 0.64323 0.0
H1462 H 0.18016 0.73159 0.64632 0.0
H1463 H 0.19453 0.71389 0.64039 0.0
H1464 H 0.1749 0.6946 0.73082 0.0
H1465 H 0.1603 0.71212 0.73688 0.0
C1466 C 0.15606 0.77357 0.81749 0.0
C1467 C 0.15288 0.76636 0.85011 0.0
C1468 C 0.15538 0.76849 0.77998 0.0
C1469 C 0.15141 0.75617 0.7747 0.0
C1470 C 0.14772 0.7492 0.80705 0.0
C1471 C 0.14841 0.75423 0.84428 0.0
C1472 C 0.15175 0.75018 0.73596 0.0
C1473 C 0.15917 0.73957 0.73139 0.0
C1474 C 0.14505 0.75484 0.70377 0.0
C1475 C 0.13691 0.76588 0.70698 0.0
C1476 C 0.12727 0.76625 0.73454 0.0
C1477 C 0.1197 0.77675 0.73752 0.0
C1478 C 0.12164 0.78689 0.71292 0.0
C1479 C 0.13111 0.78656 0.6852 0.0
C1480 C 0.13871 0.77609 0.68213 0.0
C1481 C 0.15354 0.71435 0.58121 0.0
C1482 C 0.15611 0.72192 0.54893 0.0
C1483 C 0.15246 0.71958 0.61842 0.0
C1484 C 0.15423 0.73241 0.62389 0.0
C1485 C 0.15682 0.7399 0.59155 0.0
C1486 C 0.15766 0.73474 0.55453 0.0
C1487 C 0.15346 0.73819 0.66304 0.0
C1488 C 0.14596 0.74876 0.66777 0.0
C1489 C 0.16027 0.73363 0.69525 0.0
C1490 C 0.16906 0.72311 0.69174 0.0
C1491 C 0.17886 0.72354 0.66473 0.0
C1492 C 0.18705 0.71354 0.66138 0.0
C1493 C 0.18561 0.70311 0.68515 0.0
C1494 C 0.17599 0.70267 0.71238 0.0
C1495 C 0.16776 0.71263 0.7158 0.0
H1496 H 0.19196 0.69539 0.68252 0.0
H1497 H 0.11577 0.79501 0.71527 0.0
H1498 H 0.46574 0.91005 0.06365 0.0
H1499 H 0.47415 0.90802 -0.00271 0.0
H1500 H 0.50907 0.89562 0.04465 0.0
H1501 H 0.50085 0.8974 0.11015 0.0
H1502 H 0.51071 0.9164 0.9937 0.0
H1503 H 0.49221 0.87544 0.00187 0.0
H1504 H 0.47484 0.86085 0.01089 0.0
H1505 H 0.45571 0.87723 0.91388 0.0
H1506 H 0.47291 0.89204 0.90464 0.0
H1507 H 0.5449 0.90174 0.82352 0.0
H1508 H 0.5351 0.90048 0.88794 0.0
H1509 H 0.49902 0.90381 0.83431 0.0
H1510 H 0.50861 0.90442 0.77052 0.0
H1511 H 0.4974 0.88784 0.88853 0.0
H1512 H 0.51452 0.92886 0.87912 0.0
H1513 H 0.53094 0.94447 0.869 0.0
H1514 H 0.5512 0.92984 0.96648 0.0
H1515 H 0.53498 0.91404 0.97688 0.0
C1516 C 0.47512 0.90668 0.0598 0.0
C1517 C 0.48268 0.90409 0.09221 0.0
C1518 C 0.47991 0.90555 0.02198 0.0
C1519 C 0.49227 0.90182 0.01635 0.0
C1520 C 0.49957 0.89866 0.04852 0.0
C1521 C 0.49482 0.8997 0.08597 0.0
C1522 C 0.49803 0.90187 0.97736 0.0
C1523 C 0.50789 0.9101 0.97071 0.0
C1524 C 0.49409 0.89386 0.94732 0.0
C1525 C 0.48378 0.88494 0.95287 0.0
C1526 C 0.48425 0.87601 0.98271 0.0
C1527 C 0.47444 0.86768 0.98781 0.0
C1528 C 0.46416 0.86814 0.96306 0.0
C1529 C 0.46367 0.8769 0.93308 0.0
C1530 C 0.47345 0.88526 0.92789 0.0
C1531 C 0.53489 0.90212 0.82562 0.0
C1532 C 0.52755 0.90331 0.79204 0.0
C1533 C 0.52929 0.90146 0.86237 0.0
C1534 C 0.51631 0.90226 0.866 0.0
C1535 C 0.50903 0.90318 0.83234 0.0
C1536 C 0.51457 0.90362 0.79581 0.0
C1537 C 0.51018 0.90237 0.90467 0.0
C1538 C 0.50024 0.89419 0.91135 0.0
C1539 C 0.51388 0.91062 0.93456 0.0
C1540 C 0.5236 0.92018 0.92852 0.0
C1541 C 0.52251 0.92892 0.89824 0.0
C1542 C 0.53178 0.93781 0.89247 0.0
C1543 C 0.54212 0.93811 0.91699 0.0
C1544 C 0.54319 0.92957 0.94745 0.0
C1545 C 0.53397 0.92066 0.95332 0.0
H1546 H 0.54931 0.94496 0.91245 0.0
H1547 H 0.45658 0.86168 0.96704 0.0
H1548 H 0.35594 0.2648 0.03847 0.0
H1549 H 0.35519 0.25609 0.10391 0.0
H1550 H 0.3353 0.28835 0.14425 0.0
H1551 H 0.33636 0.29734 0.07842 0.0
H1552 H 0.35202 0.28035 0.19792 0.0
H1553 H 0.31984 0.26211 0.12153 0.0
H1554 H 0.31113 0.25169 0.06376 0.0
H1555 H 0.33419 0.21993 0.08532 0.0
H1556 H 0.34321 0.23026 0.14286 0.0
H1557 H 0.32878 0.25299 0.36816 0.0
H1558 H 0.32987 0.26212 0.30351 0.0
H1559 H 0.35081 0.23062 0.26267 0.0
H1560 H 0.34959 0.2212 0.32781 0.0
H1561 H 0.33331 0.23843 0.20949 0.0
H1562 H 0.36555 0.25736 0.28646 0.0
H1563 H 0.37388 0.26823 0.344 0.0
H1564 H 0.34975 0.29912 0.32159 0.0
H1565 H 0.34116 0.28836 0.2642 0.0
C1566 C 0.35152 0.27011 0.06136 0.0
C1567 C 0.3461 0.28169 0.0534 0.0
C1568 C 0.35106 0.2651 0.0987 0.0
C1569 C 0.34493 0.27143 0.12871 0.0
C1570 C 0.34001 0.28328 0.12138 0.0
C1571 C 0.34062 0.28841 0.08389 0.0
C1572 C 0.34328 0.26533 0.1671 0.0
C1573 C 0.34778 0.27127 0.20054 0.0
C1574 C 0.33791 0.25338 0.17037 0.0
C1575 C 0.33226 0.247 0.13637 0.0
C1576 C 0.3231 0.25292 0.11386 0.0
C1577 C 0.31811 0.24704 0.08114 0.0
C1578 C 0.32211 0.23516 0.07085 0.0
C1579 C 0.33109 0.22913 0.09333 0.0
C1580 C 0.33614 0.235 0.12602 0.0
C1581 C 0.33362 0.24794 0.34552 0.0
C1582 C 0.33928 0.23644 0.35332 0.0
C1583 C 0.33423 0.25321 0.30853 0.0
C1584 C 0.34066 0.2472 0.27855 0.0
C1585 C 0.34588 0.23545 0.28559 0.0
C1586 C 0.34518 0.23009 0.32275 0.0
C1587 C 0.34213 0.25341 0.24027 0.0
C1588 C 0.33756 0.2475 0.20685 0.0
C1589 C 0.34734 0.26544 0.23707 0.0
C1590 C 0.35265 0.27201 0.2712 0.0
C1591 C 0.36198 0.26644 0.29392 0.0
C1592 C 0.36675 0.27259 0.3265 0.0
C1593 C 0.36233 0.28435 0.33648 0.0
C1594 C 0.35316 0.29001 0.31383 0.0
C1595 C 0.34835 0.2839 0.28125 0.0
H1596 H 0.36603 0.28909 0.36174 0.0
H1597 H 0.31825 0.23062 0.04548 0.0
H1598 H 0.99753 0.08455 0.61655 0.0
H1599 H 0.99016 0.08444 0.55003 0.0
H1600 H 0.02651 0.09498 0.50935 0.0
H1601 H 0.03409 0.09532 0.57696 0.0
H1602 H 0.0079 0.10892 0.47661 0.0
H1603 H 0.01634 0.06598 0.49374 0.0
H1604 H 0.01608 0.04568 0.52689 0.0
H1605 H 0.97633 0.04484 0.52 0.0
H1606 H 0.97632 0.06523 0.4874 0.0
H1607 H 0.98988 0.09922 0.28085 0.0
H1608 H 1.0001 0.09816 0.34388 0.0
H1609 H 0.96551 0.08769 0.39785 0.0
H1610 H 0.95514 0.08855 0.33406 0.0
H1611 H 0.98507 0.07306 0.4212 0.0
H1612 H 0.97673 0.11675 0.40897 0.0
H1613 H 0.97702 0.13711 0.37617 0.0
H1614 H 0.01683 0.13636 0.37369 0.0
H1615 H 0.01677 0.11591 0.40606 0.0
C1616 C 0.00406 0.08683 0.59369 0.0
C1617 C 0.01644 0.09 0.60225 0.0
C1618 C 0.99981 0.08665 0.55551 0.0
C1619 C 0.00782 0.08952 0.52475 0.0
C1620 C 0.02021 0.09266 0.53282 0.0
C1621 C 0.02453 0.09283 0.57136 0.0
C1622 C 0.00285 0.08977 0.48459 0.0
C1623 C 0.00315 0.10101 0.46406 0.0
C1624 C 0.99638 0.0795 0.46881 0.0
C1625 C 0.99634 0.06719 0.48828 0.0
C1626 C 0.00753 0.06151 0.49953 0.0
C1627 C 0.00743 0.04998 0.5182 0.0
C1628 C 0.99619 0.04398 0.52556 0.0
C1629 C 0.98503 0.0495 0.51426 0.0
C1630 C 0.98507 0.06103 0.49564 0.0
C1631 C 0.98439 0.09673 0.30608 0.0
C1632 C 0.97169 0.09397 0.30256 0.0
C1633 C 0.99026 0.09618 0.34213 0.0
C1634 C 0.98354 0.09298 0.37554 0.0
C1635 C 0.97084 0.09022 0.3723 0.0
C1636 C 0.96492 0.09076 0.336 0.0
C1637 C 0.98994 0.09226 0.4136 0.0
C1638 C 0.98992 0.08093 0.43362 0.0
C1639 C 0.99669 0.10242 0.42887 0.0
C1640 C 0.99674 0.11475 0.40961 0.0
C1641 C 0.98555 0.12089 0.40117 0.0
C1642 C 0.98567 0.13245 0.38271 0.0
C1643 C 0.99693 0.13801 0.37277 0.0
C1644 C 0.00811 0.13203 0.38138 0.0
C1645 C 0.00804 0.12047 0.39982 0.0
H1646 H 0.99701 0.14696 0.35846 0.0
H1647 H 0.99613 0.03505 0.53996 0.0
H1648 H 0.8509 0.73988 0.03435 0.0
H1649 H 0.84937 0.75005 0.09724 0.0
H1650 H 0.83923 0.71531 0.15086 0.0
H1651 H 0.84075 0.70491 0.08715 0.0
H1652 H 0.82892 0.75237 0.14299 0.0
H1653 H 0.85113 0.71687 0.24662 0.0
H1654 H 0.86643 0.69985 0.24534 0.0
H1655 H 0.88518 0.71721 0.1494 0.0
H1656 H 0.87009 0.73441 0.15045 0.0
H1657 H 0.82031 0.75807 0.35313 0.0
H1658 H 0.82201 0.74987 0.28681 0.0
H1659 H 0.85499 0.77171 0.26839 0.0
H1660 H 0.85307 0.78032 0.33455 0.0
H1661 H 0.8543 0.74164 0.25885 0.0
H1662 H 0.83783 0.78144 0.21686 0.0
H1663 H 0.82271 0.79859 0.21825 0.0
H1664 H 0.79337 0.77323 0.18978 0.0
H1665 H 0.80831 0.75589 0.18879 0.0
C1666 C 0.84836 0.73433 0.05943 0.0
C1667 C 0.84588 0.72159 0.05578 0.0
C1668 C 0.84748 0.7402 0.09538 0.0
C1669 C 0.84416 0.73346 0.12862 0.0
C1670 C 0.84187 0.72065 0.12545 0.0
C1671 C 0.84274 0.71473 0.08917 0.0
C1672 C 0.84291 0.74009 0.16615 0.0
C1673 C 0.83448 0.75001 0.16831 0.0
C1674 C 0.85019 0.73705 0.19907 0.0
C1675 C 0.8594 0.72684 0.19836 0.0
C1676 C 0.85854 0.71707 0.22533 0.0
C1677 C 0.86717 0.70739 0.22464 0.0
C1678 C 0.87674 0.70743 0.19721 0.0
C1679 C 0.87773 0.71717 0.17051 0.0
C1680 C 0.86913 0.72687 0.17111 0.0
C1681 C 0.82774 0.76135 0.33454 0.0
C1682 C 0.83655 0.76982 0.34868 0.0
C1683 C 0.82871 0.75665 0.29685 0.0
C1684 C 0.83865 0.76016 0.27307 0.0
C1685 C 0.84725 0.76894 0.28654 0.0
C1686 C 0.8461 0.7739 0.32404 0.0
C1687 C 0.84043 0.75392 0.23532 0.0
C1688 C 0.84881 0.74399 0.23337 0.0
C1689 C 0.83316 0.75697 0.20252 0.0
C1690 C 0.82416 0.76735 0.20327 0.0
C1691 C 0.82813 0.7795 0.21138 0.0
C1692 C 0.8196 0.78926 0.21196 0.0
C1693 C 0.80708 0.787 0.20425 0.0
C1694 C 0.80307 0.77497 0.19583 0.0
C1695 C 0.81156 0.76517 0.19523 0.0
H1696 H 0.80049 0.79457 0.20469 0.0
H1697 H 0.88341 0.69992 0.19671 0.0
H1698 H 1.0007 0.1037 0.11754 0.0
H1699 H 0.00818 0.10643 0.05157 0.0
H1700 H 0.97389 0.09161 0.00643 0.0
H1701 H 0.96629 0.08861 0.07335 0.0
H1702 H 0.99387 0.08083 0.97277 0.0
H1703 H 0.98031 0.12194 -0.00586 0.0
H1704 H 0.9775 0.14172 0.02891 0.0
H1705 H 0.01684 0.14785 0.02741 0.0
H1706 H 0.01992 0.128 0.99308 0.0
H1707 H 0.00904 0.09943 0.78034 0.0
H1708 H 0.99924 0.09963 0.84402 0.0
H1709 H 0.03506 0.10252 0.89911 0.0
H1710 H 0.04516 0.10199 0.83474 0.0
H1711 H 0.01296 0.11988 0.92483 0.0
H1712 H 0.0256 0.07704 0.90529 0.0
H1713 H 0.02702 0.05808 0.8654 0.0
H1714 H 0.98729 0.05615 0.85933 0.0
H1715 H 0.98564 0.07527 0.89852 0.0
C1716 C 0.99465 0.10108 0.09372 0.0
C1717 C 0.98292 0.09582 0.10073 0.0
C1718 C 0.99893 0.10275 0.05592 0.0
C1719 C 0.99156 0.09932 0.02409 0.0
C1720 C 0.9797 0.09434 0.03071 0.0
C1721 C 0.97535 0.09269 0.06885 0.0
C1722 C 0.99679 0.10027 0.98435 0.0
C1723 C 0.99785 0.08942 0.96204 0.0
C1724 C 0.00213 0.11145 0.97057 0.0
C1725 C 1.00036 0.12342 0.99127 0.0
C1726 C 0.98838 0.12745 0.00149 0.0
C1727 C 0.98673 0.13869 0.02108 0.0
C1728 C 0.99699 0.14603 0.03044 0.0
C1729 C 0.00891 0.14215 0.02016 0.0
C1730 C 0.01061 0.13091 0.00057 0.0
C1731 C 0.01491 0.10009 0.80585 0.0
C1732 C 0.02791 0.10055 0.80257 0.0
C1733 C 0.00925 0.10025 0.8422 0.0
C1734 C 0.01644 0.10104 0.87598 0.0
C1735 C 0.02941 0.10191 0.87308 0.0
C1736 C 0.03514 0.10157 0.83648 0.0
C1737 C 0.01025 0.10042 0.91415 0.0
C1738 C 0.00896 0.11133 0.93582 0.0
C1739 C 0.00453 0.08936 0.92704 0.0
C1740 C 0.0055 0.07766 0.90451 0.0
C1741 C 0.01717 0.07263 0.89519 0.0
C1742 C 0.01802 0.06185 0.87273 0.0
C1743 C 0.00726 0.05593 0.85975 0.0
C1744 C 0.99562 0.06076 0.86936 0.0
C1745 C 0.99472 0.07156 0.89171 0.0
H1746 H 0.00794 0.0476 0.84233 0.0
H1747 H 0.99569 0.15473 0.0456 0.0
H1748 H 0.64319 0.26434 0.52953 0.0
H1749 H 0.64459 0.25386 0.59255 0.0
H1750 H 0.66702 0.28382 0.63695 0.0
H1751 H 0.66547 0.2945 0.57382 0.0
H1752 H 0.6773 0.25938 0.6463 0.0
H1753 H 0.63948 0.28156 0.67102 0.0
H1754 H 0.61815 0.28858 0.65738 0.0
H1755 H 0.60546 0.25084 0.65803 0.0
H1756 H 0.62676 0.24357 0.67118 0.0
H1757 H 0.67791 0.24771 0.84738 0.0
H1758 H 0.67638 0.25523 0.78079 0.0
H1759 H 0.6511 0.2255 0.75295 0.0
H1760 H 0.65256 0.21787 0.82038 0.0
H1761 H 0.64202 0.24819 0.73214 0.0
H1762 H 0.67936 0.22591 0.71208 0.0
H1763 H 0.70064 0.21858 0.72469 0.0
H1764 H 0.71436 0.25579 0.71384 0.0
H1765 H 0.69313 0.2634 0.70165 0.0
C1766 C 0.64824 0.26879 0.55296 0.0
C1767 C 0.6542 0.28022 0.54698 0.0
C1768 C 0.64902 0.26281 0.58887 0.0
C1769 C 0.65591 0.26808 0.61926 0.0
C1770 C 0.66165 0.27964 0.61373 0.0
C1771 C 0.66069 0.28575 0.57788 0.0
C1772 C 0.65766 0.26111 0.65593 0.0
C1773 C 0.66964 0.25707 0.66546 0.0
C1774 C 0.64755 0.25768 0.67976 0.0
C1775 C 0.63474 0.26201 0.67163 0.0
C1776 C 0.63216 0.27474 0.66785 0.0
C1777 C 0.62007 0.27877 0.66031 0.0
C1778 C 0.61046 0.27016 0.65671 0.0
C1779 C 0.61292 0.2575 0.66075 0.0
C1780 C 0.625 0.25342 0.66829 0.0
C1781 C 0.67215 0.24264 0.82702 0.0
C1782 C 0.66526 0.23227 0.83916 0.0
C1783 C 0.67136 0.24691 0.78883 0.0
C1784 C 0.66367 0.2409 0.76187 0.0
C1785 C 0.65711 0.23024 0.77338 0.0
C1786 C 0.65799 0.22587 0.81175 0.0
C1787 C 0.66173 0.24658 0.72304 0.0
C1788 C 0.6497 0.25039 0.71293 0.0
C1789 C 0.67181 0.24974 0.69856 0.0
C1790 C 0.68461 0.24525 0.70629 0.0
C1791 C 0.68689 0.23256 0.71276 0.0
C1792 C 0.69895 0.22835 0.71972 0.0
C1793 C 0.70884 0.23672 0.72012 0.0
C1794 C 0.70669 0.24933 0.7135 0.0
C1795 C 0.69464 0.25359 0.70652 0.0
H1796 H 0.71817 0.23344 0.72549 0.0
H1797 H 0.60111 0.2733 0.6509 0.0
H1798 H 0.4895 0.90463 0.27163 0.0
H1799 H 0.4996 0.90681 0.33444 0.0
H1800 H 0.46416 0.9136 0.38872 0.0
H1801 H 0.45389 0.91179 0.32495 0.0
H1802 H 0.48172 0.9297 0.41375 0.0
H1803 H 0.4789 0.88539 0.39772 0.0
H1804 H 0.48173 0.86557 0.36303 0.0
H1805 H 0.52112 0.87137 0.36068 0.0
H1806 H 0.51851 0.8913 0.39496 0.0
H1807 H 0.49603 0.91832 0.60813 0.0
H1808 H 0.48851 0.91814 0.54181 0.0
H1809 H 0.52569 0.91202 0.49964 0.0
H1810 H 0.53344 0.91194 0.56704 0.0
H1811 H 0.50891 0.89645 0.46602 0.0
H1812 H 0.51193 0.94002 0.48625 0.0
H1813 H 0.50918 0.95981 0.52112 0.0
H1814 H 0.46962 0.95555 0.5155 0.0
H1815 H 0.47213 0.93565 0.48107 0.0
C1816 C 0.48379 0.90659 0.29683 0.0
C1817 C 0.47088 0.90803 0.29337 0.0
C1818 C 0.48961 0.90775 0.33281 0.0
C1819 C 0.48262 0.91017 0.36632 0.0
C1820 C 0.4697 0.91167 0.36312 0.0
C1821 C 0.46385 0.91059 0.32683 0.0
C1822 C 0.48894 0.91132 0.40445 0.0
C1823 C 0.48753 0.92237 0.42548 0.0
C1824 C 0.49691 0.90194 0.41889 0.0
C1825 C 0.4985 0.88989 0.39861 0.0
C1826 C 0.48816 0.88248 0.38958 0.0
C1827 C 0.48972 0.87122 0.37003 0.0
C1828 C 0.50159 0.86723 0.35958 0.0
C1829 C 0.51193 0.87447 0.36877 0.0
C1830 C 0.51042 0.88575 0.3883 0.0
C1831 C 0.50272 0.91699 0.58499 0.0
C1832 C 0.51539 0.91512 0.59309 0.0
C1833 C 0.49837 0.91699 0.54691 0.0
C1834 C 0.50655 0.91527 0.51577 0.0
C1835 C 0.51924 0.91345 0.52339 0.0
C1836 C 0.52365 0.91343 0.56183 0.0
C1837 C 0.50153 0.91475 0.47567 0.0
C1838 C 0.50318 0.90383 0.45419 0.0
C1839 C 0.49379 0.92426 0.46078 0.0
C1840 C 0.49223 0.93629 0.48126 0.0
C1841 C 0.50264 0.94326 0.49267 0.0
C1842 C 0.50113 0.95451 0.51232 0.0
C1843 C 0.48923 0.95893 0.52057 0.0
C1844 C 0.47883 0.95212 0.50909 0.0
C1845 C 0.4803 0.94086 0.48944 0.0
H1846 H 0.48808 0.96764 0.53582 0.0
H1847 H 0.50278 0.85851 0.34442 0.0
H1848 H 0.84672 0.21798 0.16512 0.0
H1849 H 0.84782 0.22644 0.23159 0.0
H1850 H 0.82806 0.25909 0.19371 0.0
H1851 H 0.82699 0.25086 0.12802 0.0
H1852 H 0.84898 0.26504 0.23232 0.0
H1853 H 0.81408 0.23724 0.24951 0.0
H1854 H 0.8036 0.21692 0.24862 0.0
H1855 H 0.83024 0.20257 0.33007 0.0
H1856 H 0.84097 0.22278 0.33105 0.0
H1857 H 0.83476 0.29509 0.4116 0.0
H1858 H 0.83368 0.28498 0.34757 0.0
H1859 H 0.85106 0.2523 0.39561 0.0
H1860 H 0.85186 0.26215 0.45927 0.0
H1861 H 0.83236 0.24567 0.35245 0.0
H1862 H 0.86708 0.27291 0.33744 0.0
H1863 H 0.87833 0.29282 0.33851 0.0
H1864 H 0.85328 0.30769 0.25311 0.0
H1865 H 0.84177 0.28791 0.25193 0.0
C1866 C 0.84248 0.22687 0.17121 0.0
C1867 C 0.83692 0.23381 0.14122 0.0
C1868 C 0.84311 0.23169 0.2091 0.0
C1869 C 0.83809 0.24344 0.21742 0.0
C1870 C 0.83212 0.25009 0.18783 0.0
C1871 C 0.83152 0.24534 0.15024 0.0
C1872 C 0.83942 0.24924 0.25629 0.0
C1873 C 0.84524 0.26087 0.25857 0.0
C1874 C 0.83487 0.24361 0.2906 0.0
C1875 C 0.82841 0.23147 0.29001 0.0
C1876 C 0.81777 0.22972 0.26696 0.0
C1877 C 0.81176 0.21823 0.2665 0.0
C1878 C 0.81627 0.20844 0.28918 0.0
C1879 C 0.82677 0.21015 0.31246 0.0
C1880 C 0.83281 0.22162 0.313 0.0
C1881 C 0.83838 0.28578 0.40831 0.0
C1882 C 0.84337 0.2794 0.44035 0.0
C1883 C 0.8378 0.28002 0.37178 0.0
C1884 C 0.84236 0.26789 0.36677 0.0
C1885 C 0.84742 0.26161 0.39879 0.0
C1886 C 0.84791 0.26729 0.43515 0.0
C1887 C 0.84176 0.26158 0.32843 0.0
C1888 C 0.83613 0.24985 0.32625 0.0
C1889 C 0.8466 0.26706 0.29421 0.0
C1890 C 0.85348 0.27897 0.29492 0.0
C1891 C 0.8639 0.28046 0.31914 0.0
C1892 C 0.87034 0.29171 0.31972 0.0
C1893 C 0.8665 0.30152 0.29597 0.0
C1894 C 0.85623 0.30009 0.27153 0.0
C1895 C 0.84975 0.28886 0.27088 0.0
H1896 H 0.8715 0.31022 0.29644 0.0
H1897 H 0.81161 0.19956 0.28879 0.0
H1898 H 0.4542 0.09166 0.16066 0.0
H1899 H 0.46346 0.0915 0.09528 0.0
H1900 H 0.49736 0.10667 0.14213 0.0
H1901 H 0.48821 0.10689 0.20704 0.0
H1902 H 0.49171 0.11669 0.071 0.0
H1903 H 0.49544 0.07673 0.13076 0.0
H1904 H 0.48756 0.05817 0.16451 0.0
H1905 H 0.46441 0.04965 0.06628 0.0
H1906 H 0.472 0.06833 0.03215 0.0
H1907 H 0.53167 0.09841 0.91422 0.0
H1908 H 0.52313 0.10025 0.98033 0.0
H1909 H 0.48832 0.08522 0.94017 0.0
H1910 H 0.49668 0.08326 0.87486 0.0
H1911 H 0.49528 0.0752 0.00946 0.0
H1912 H 0.49189 0.11596 0.95047 0.0
H1913 H 0.50017 0.13473 0.91866 0.0
H1914 H 0.52363 0.14157 0.01747 0.0
H1915 H 0.51561 0.12274 0.04964 0.0
C1916 C 0.46353 0.09516 0.15677 0.0
C1917 C 0.47055 0.09916 0.18882 0.0
C1918 C 0.46882 0.09503 0.11957 0.0
C1919 C 0.48114 0.09894 0.11412 0.0
C1920 C 0.48786 0.10361 0.14577 0.0
C1921 C 0.48264 0.10366 0.18283 0.0
C1922 C 0.48743 0.09725 0.07627 0.0
C1923 C 0.49259 0.10762 0.05764 0.0
C1924 C 0.48858 0.08539 0.05906 0.0
C1925 C 0.48419 0.074 0.07906 0.0
C1926 C 0.4886 0.07095 0.11645 0.0
C1927 C 0.48418 0.06041 0.13567 0.0
C1928 C 0.47545 0.05276 0.11764 0.0
C1929 C 0.47115 0.05561 0.08026 0.0
C1930 C 0.47551 0.06617 0.06094 0.0
C1931 C 0.52224 0.09542 0.91963 0.0
C1932 C 0.51483 0.09081 0.88918 0.0
C1933 C 0.51736 0.09651 0.9573 0.0
C1934 C 0.50506 0.09297 0.96494 0.0
C1935 C 0.49783 0.08802 0.93487 0.0
C1936 C 0.50263 0.08699 0.89744 0.0
C1937 C 0.4994 0.09468 0.0038 0.0
C1938 C 0.49441 0.08428 0.02277 0.0
C1939 C 0.4985 0.1065 0.02145 0.0
C1940 C 0.50325 0.11787 0.00226 0.0
C1941 C 0.49888 0.12142 0.96528 0.0
C1942 C 0.50352 0.13208 0.94721 0.0
C1943 C 0.51245 0.13932 0.96598 0.0
C1944 C 0.51673 0.13594 0.00293 0.0
C1945 C 0.51214 0.12528 0.0211 0.0
H1946 H 0.51603 0.14757 0.95194 0.0
H1947 H 0.47205 0.04461 0.13261 0.0
H1948 H 0.65384 0.70572 0.90206 0.0
H1949 H 0.65287 0.71544 0.83737 0.0
H1950 H 0.65653 0.75157 0.8903 0.0
H1951 H 0.65693 0.74207 0.9543 0.0
H1952 H 0.64004 0.75299 0.83702 0.0
H1953 H 0.68112 0.73635 0.84465 0.0
H1954 H 0.69704 0.72021 0.85431 0.0
H1955 H 0.68244 0.6997 0.75738 0.0
H1956 H 0.6663 0.71562 0.74754 0.0
H1957 H 0.66022 0.78534 0.66189 0.0
H1958 H 0.65865 0.7766 0.72795 0.0
H1959 H 0.64796 0.74128 0.67956 0.0
H1960 H 0.64937 0.74981 0.61427 0.0
H1961 H 0.66813 0.73988 0.73042 0.0
H1962 H 0.62701 0.75804 0.72407 0.0
H1963 H 0.6122 0.77527 0.71571 0.0
H1964 H 0.62877 0.79449 0.81209 0.0
H1965 H 0.6438 0.77744 0.82067 0.0
C1966 C 0.65442 0.71572 0.89973 0.0
C1967 C 0.65553 0.72311 0.9332 0.0
C1968 C 0.65392 0.72127 0.86283 0.0
C1969 C 0.65475 0.73425 0.85896 0.0
C1970 C 0.65582 0.74156 0.89248 0.0
C1971 C 0.65613 0.73608 0.92913 0.0
C1972 C 0.6546 0.74034 0.82021 0.0
C1973 C 0.64628 0.75019 0.81387 0.0
C1974 C 0.66269 0.73668 0.7899 0.0
C1975 C 0.67242 0.72711 0.79563 0.0
C1976 C 0.68124 0.72835 0.82559 0.0
C1977 C 0.69031 0.71924 0.83107 0.0
C1978 C 0.69073 0.70892 0.80653 0.0
C1979 C 0.68209 0.70769 0.7764 0.0
C1980 C 0.67298 0.71675 0.77086 0.0
C1981 C 0.65733 0.77579 0.66545 0.0
C1982 C 0.6551 0.76823 0.63281 0.0
C1983 C 0.65646 0.77081 0.70311 0.0
C1984 C 0.65331 0.75827 0.70842 0.0
C1985 C 0.65054 0.75093 0.67599 0.0
C1986 C 0.65136 0.75586 0.63866 0.0
C1987 C 0.65355 0.75242 0.74736 0.0
C1988 C 0.66191 0.74264 0.75368 0.0
C1989 C 0.64568 0.75631 0.77784 0.0
C1990 C 0.63662 0.76653 0.77273 0.0
C1991 C 0.62757 0.76599 0.74325 0.0
C1992 C 0.61912 0.77571 0.73852 0.0
C1993 C 0.61957 0.78598 0.76328 0.0
C1994 C 0.62845 0.78654 0.79289 0.0
C1995 C 0.63693 0.77685 0.79772 0.0
H1996 H 0.61302 0.7935 0.75958 0.0
H1997 H 0.69776 0.70188 0.8108 0.0
H1998 H 0.96668 0.90775 0.4122 0.0
H1999 H 0.97412 0.90615 0.47965 0.0
H2000 H 0.01166 0.90219 0.43806 0.0
H2001 H 0.00443 0.90353 0.37139 0.0
H2002 H 0.00748 0.88643 0.49563 0.0
H2003 H 1.00055 0.93002 0.47062 0.0
H2004 H 0.98809 0.94831 0.45232 0.0
H2005 H 0.96327 0.94127 0.54757 0.0
H2006 H 0.9755 0.92282 0.56611 0.0
H2007 H 0.04476 0.90557 0.65671 0.0
H2008 H 0.03445 0.90409 0.59307 0.0
H2009 H 0.99874 0.90504 0.64958 0.0
H2010 H 0.00889 0.90643 0.71288 0.0
H2011 H 1.00023 0.92119 0.58744 0.0
H2012 H 0.00885 0.87846 0.6155 0.0
H2013 H 0.02193 0.86057 0.63328 0.0
H2014 H 0.04431 0.86644 0.53151 0.0
H2015 H 0.03147 0.8845 0.51341 0.0
C2016 C 0.9765 0.90645 0.41748 0.0
C2017 C 0.98495 0.90587 0.38629 0.0
C2018 C 0.98074 0.90558 0.45599 0.0
C2019 C 0.99347 0.90416 0.46382 0.0
C2020 C 0.00181 0.90326 0.43273 0.0
C2021 C 0.99762 0.90411 0.3945 0.0
C2022 C 0.99836 0.90401 0.50417 0.0
C2023 C 0.00595 0.89406 0.51564 0.0
C2024 C 0.99618 0.91386 0.53049 0.0
C2025 C 0.98884 0.92496 0.51944 0.0
C2026 C 0.99238 0.93231 0.48746 0.0
C2027 C 0.98537 0.94272 0.47708 0.0
C2028 C 0.97487 0.94593 0.49869 0.0
C2029 C 0.97138 0.93876 0.5308 0.0
C2030 C 0.97835 0.92833 0.54126 0.0
C2031 C 0.03472 0.90542 0.6555 0.0
C2032 C 0.02764 0.90614 0.68974 0.0
C2033 C 0.02885 0.90454 0.61922 0.0
C2034 C 0.01583 0.90442 0.61675 0.0
C2035 C 0.00878 0.90516 0.6509 0.0
C2036 C 0.01462 0.90593 0.68704 0.0
C2037 C 0.00951 0.90373 0.57854 0.0
C2038 C 0.00165 0.9135 0.56755 0.0
C2039 C 0.01153 0.89378 0.55253 0.0
C2040 C 0.01926 0.88291 0.56331 0.0
C2041 C 0.01662 0.87601 0.59709 0.0
C2042 C 0.02398 0.86582 0.60719 0.0
C2043 C 0.03396 0.86239 0.58359 0.0
C2044 C 0.03658 0.86912 0.54979 0.0
C2045 C 0.02926 0.87933 0.53958 0.0
H2046 H 0.03964 0.8545 0.59146 0.0
H2047 H 0.96946 0.95399 0.49061 0.0
H2048 H 0.66097 0.76284 0.45215 0.0
H2049 H 0.66136 0.75357 0.3877 0.0
H2050 H 0.65471 0.78938 0.3358 0.0
H2051 H 0.65464 0.79895 0.40102 0.0
H2052 H 0.63836 0.76739 0.3119 0.0
H2053 H 0.681 0.78052 0.3231 0.0
H2054 H 0.70109 0.78238 0.35693 0.0
H2055 H 0.7044 0.7427 0.36043 0.0
H2056 H 0.68422 0.74061 0.32716 0.0
H2057 H 0.65097 0.75369 0.11604 0.0
H2058 H 0.6496 0.76199 0.18167 0.0
H2059 H 0.66422 0.72777 0.22802 0.0
H2060 H 0.66567 0.7193 0.16162 0.0
H2061 H 0.67637 0.74842 0.2562 0.0
H2062 H 0.63488 0.73453 0.24516 0.0
H2063 H 0.61436 0.73146 0.215 0.0
H2064 H 0.60826 0.77082 0.21473 0.0
H2065 H 0.62883 0.77414 0.24443 0.0
C2066 C 0.6597 0.76883 0.42718 0.0
C2067 C 0.65782 0.78166 0.43164 0.0
C2068 C 0.65992 0.76348 0.39035 0.0
C2069 C 0.65809 0.7708 0.35722 0.0
C2070 C 0.65615 0.78362 0.36127 0.0
C2071 C 0.65616 0.78906 0.39835 0.0
C2072 C 0.65803 0.76482 0.31862 0.0
C2073 C 0.64668 0.76345 0.2992 0.0
C2074 C 0.66882 0.75918 0.30339 0.0
C2075 C 0.68104 0.76041 0.32296 0.0
C2076 C 0.68596 0.77219 0.33138 0.0
C2077 C 0.69738 0.77329 0.3504 0.0
C2078 C 0.70401 0.76266 0.36092 0.0
C2079 C 0.69925 0.75092 0.35231 0.0
C2080 C 0.68783 0.74978 0.33333 0.0
C2081 C 0.65382 0.74785 0.14014 0.0
C2082 C 0.65853 0.73586 0.13366 0.0
C2083 C 0.65294 0.7526 0.17769 0.0
C2084 C 0.65675 0.74548 0.20967 0.0
C2085 C 0.66121 0.73339 0.20359 0.0
C2086 C 0.66199 0.72855 0.16578 0.0
C2087 C 0.6567 0.75113 0.24892 0.0
C2088 C 0.66802 0.75239 0.26868 0.0
C2089 C 0.64584 0.75651 0.26474 0.0
C2090 C 0.63346 0.75459 0.24671 0.0
C2091 C 0.62922 0.74254 0.23834 0.0
C2092 C 0.61756 0.74075 0.2214 0.0
C2093 C 0.61002 0.75094 0.21286 0.0
C2094 C 0.61412 0.76294 0.22133 0.0
C2095 C 0.62577 0.76478 0.23827 0.0
H2096 H 0.601 0.74954 0.19976 0.0
H2097 H 0.71284 0.76353 0.37566 0.0
H2098 H 0.49031 0.39341 0.71031 0.0
H2099 H 0.50127 0.39325 0.64815 0.0
H2100 H 0.46847 0.40702 0.59048 0.0
H2101 H 0.45737 0.40716 0.65299 0.0
H2102 H 0.49738 0.38177 0.57807 0.0
H2103 H 0.47859 0.42927 0.52539 0.0
H2104 H 0.47029 0.44853 0.55424 0.0
H2105 H 0.49118 0.44186 0.65874 0.0
H2106 H 0.49973 0.42271 0.63032 0.0
H2107 H 0.50381 0.3928 0.37641 0.0
H2108 H 0.49679 0.39089 0.44371 0.0
H2109 H 0.52637 0.41499 0.48136 0.0
H2110 H 0.53366 0.41676 0.41358 0.0
H2111 H 0.50181 0.42184 0.50806 0.0
H2112 H 0.52926 0.38759 0.50816 0.0
H2113 H 0.53905 0.36865 0.48281 0.0
H2114 H 0.50424 0.34942 0.48974 0.0
H2115 H 0.49416 0.36838 0.51457 0.0
C2116 C 0.48538 0.39627 0.68432 0.0
C2117 C 0.47302 0.40037 0.68642 0.0
C2118 C 0.49164 0.39613 0.64884 0.0
C2119 C 0.48572 0.40023 0.61488 0.0
C2120 C 0.47322 0.40391 0.61654 0.0
C2121 C 0.46688 0.40394 0.65212 0.0
C2122 C 0.49287 0.40123 0.57824 0.0
C2123 C 0.49832 0.39051 0.56269 0.0
C2124 C 0.49447 0.41274 0.55904 0.0
C2125 C 0.48969 0.42449 0.57584 0.0
C2126 C 0.48146 0.43196 0.55443 0.0
C2127 C 0.4767 0.44285 0.57074 0.0
C2128 C 0.48016 0.44639 0.60838 0.0
C2129 C 0.48845 0.43909 0.62968 0.0
C2130 C 0.49325 0.42822 0.61348 0.0
C2131 C 0.50894 0.39755 0.39908 0.0
C2132 C 0.51926 0.40495 0.38987 0.0
C2133 C 0.50492 0.39645 0.43746 0.0
C2134 C 0.51104 0.40283 0.46735 0.0
C2135 C 0.52154 0.41002 0.45854 0.0
C2136 C 0.52573 0.41094 0.42001 0.0
C2137 C 0.50598 0.4023 0.50734 0.0
C2138 C 0.5009 0.41311 0.52352 0.0
C2139 C 0.50496 0.39092 0.5276 0.0
C2140 C 0.51094 0.37945 0.51291 0.0
C2141 C 0.52366 0.37936 0.50396 0.0
C2142 C 0.52927 0.3686 0.48974 0.0
C2143 C 0.52228 0.35782 0.48457 0.0
C2144 C 0.50965 0.35778 0.49372 0.0
C2145 C 0.50398 0.36853 0.50792 0.0
H2146 H 0.52665 0.34949 0.47355 0.0
H2147 H 0.47644 0.4548 0.62101 0.0
H2148 H 0.84024 0.28261 0.67062 0.0
H2149 H 0.84278 0.27378 0.73611 0.0
H2150 H 0.86262 0.2427 0.68743 0.0
H2151 H 0.86003 0.25133 0.62237 0.0
H2152 H 0.84319 0.23535 0.73124 0.0
H2153 H 0.87735 0.26407 0.74365 0.0
H2154 H 0.8872 0.28472 0.74229 0.0
H2155 H 0.86221 0.29746 0.83101 0.0
H2156 H 0.8521 0.27695 0.83252 0.0
H2157 H 0.85469 0.20508 0.9125 0.0
H2158 H 0.85707 0.21466 0.84805 0.0
H2159 H 0.84301 0.24922 0.89376 0.0
H2160 H 0.84145 0.24 0.95793 0.0
H2161 H 0.86088 0.25447 0.85022 0.0
H2162 H 0.82526 0.22787 0.83499 0.0
H2163 H 0.81366 0.20814 0.83609 0.0
H2164 H 0.83906 0.19253 0.75323 0.0
H2165 H 0.85087 0.21213 0.75194 0.0
C2166 C 0.84539 0.27405 0.67408 0.0
C2167 C 0.84978 0.26757 0.64138 0.0
C2168 C 0.84684 0.26902 0.71145 0.0
C2169 C 0.85282 0.25753 0.71652 0.0
C2170 C 0.85788 0.2515 0.68411 0.0
C2171 C 0.85639 0.25646 0.64696 0.0
C2172 C 0.85284 0.25117 0.75477 0.0
C2173 C 0.84723 0.23944 0.75721 0.0
C2174 C 0.85776 0.25668 0.78873 0.0
C2175 C 0.8639 0.269 0.78795 0.0
C2176 C 0.87389 0.2713 0.76265 0.0
C2177 C 0.87954 0.28298 0.7619 0.0
C2178 C 0.87532 0.2924 0.78648 0.0
C2179 C 0.86547 0.29016 0.81195 0.0
C2180 C 0.85979 0.27851 0.8128 0.0
C2181 C 0.85211 0.21471 0.90859 0.0
C2182 C 0.84784 0.22176 0.9402 0.0
C2183 C 0.85341 0.22018 0.87177 0.0
C2184 C 0.85008 0.23267 0.86582 0.0
C2185 C 0.84572 0.23962 0.89748 0.0
C2186 C 0.84474 0.23428 0.93425 0.0
C2187 C 0.85108 0.23866 0.82694 0.0
C2188 C 0.8569 0.25032 0.82429 0.0
C2189 C 0.84609 0.23321 0.79287 0.0
C2190 C 0.83902 0.22141 0.79372 0.0
C2191 C 0.82842 0.2202 0.81724 0.0
C2192 C 0.8218 0.20905 0.81785 0.0
C2193 C 0.82565 0.19908 0.79484 0.0
C2194 C 0.8361 0.20025 0.77109 0.0
C2195 C 0.84276 0.21137 0.77038 0.0
H2196 H 0.82051 0.19045 0.79535 0.0
H2197 H 0.8797 0.30143 0.78584 0.0
H2198 H 0.01083 0.60622 0.21083 0.0
H2199 H 1.00036 0.60587 0.14783 0.0
H2200 H 0.03436 0.59419 0.09264 0.0
H2201 H 0.04501 0.59483 0.1558 0.0
H2202 H 0.02225 0.61092 0.04872 0.0
H2203 H 0.01152 0.57328 0.117 0.0
H2204 H 0.00346 0.56119 0.17247 0.0
H2205 H 0.96805 0.579 0.16082 0.0
H2206 H 0.97593 0.59132 0.1055 0.0
H2207 H 0.00268 0.58214 0.87971 0.0
H2208 H 0.00989 0.58516 0.94601 0.0
H2209 H 0.97431 0.60027 0.9781 0.0
H2210 H 0.96687 0.59726 0.91093 0.0
H2211 H 0.98531 0.58375 0.03489 0.0
H2212 H 0.9958 0.6201 0.96231 0.0
H2213 H 0.00402 0.63163 0.90591 0.0
H2214 H 0.04008 0.61588 0.92528 0.0
H2215 H 0.03203 0.6041 0.98147 0.0
C2216 C 0.01611 0.60368 0.18521 0.0
C2217 C 0.02871 0.60045 0.18818 0.0
C2218 C 0.0101 0.60344 0.14928 0.0
C2219 C 0.0165 0.59976 0.11571 0.0
C2220 C 0.02923 0.59701 0.11828 0.0
C2221 C 0.0353 0.59737 0.1543 0.0
C2222 C 0.00984 0.5984 0.07818 0.0
C2223 C 0.01424 0.60491 0.04565 0.0
C2224 C 0.99915 0.59083 0.07446 0.0
C2225 C 0.99435 0.58331 0.10736 0.0
C2226 C 0.00204 0.57467 0.12642 0.0
C2227 C 0.9975 0.56778 0.15782 0.0
C2228 C 0.98527 0.56936 0.17025 0.0
C2229 C 0.97753 0.5778 0.1512 0.0
C2230 C 0.98202 0.58474 0.11979 0.0
C2231 C 0.9963 0.58605 0.90074 0.0
C2232 C 0.98425 0.58966 0.88983 0.0
C2233 C 1.00047 0.58776 0.93868 0.0
C2234 C 0.99272 0.59317 0.96662 0.0
C2235 C 0.98044 0.59616 0.9567 0.0
C2236 C 0.97621 0.59443 0.91843 0.0
C2237 C 0.99788 0.59611 0.00546 0.0
C2238 C 0.99322 0.58989 0.03817 0.0
C2239 C 0.00835 0.60393 0.00939 0.0
C2240 C 0.01329 0.61116 0.97598 0.0
C2241 C 0.00547 0.61904 0.95441 0.0
C2242 C 0.0101 0.62562 0.92249 0.0
C2243 C 0.02256 0.62447 0.91199 0.0
C2244 C 0.03043 0.61676 0.93346 0.0
C2245 C 0.02584 0.61014 0.96538 0.0
H2246 H 0.02612 0.62957 0.88724 0.0
H2247 H 0.98178 0.56401 0.1946 0.0
H2248 H 0.66367 0.24744 0.35854 0.0
H2249 H 0.66323 0.24052 0.29147 0.0
H2250 H 0.65809 0.2782 0.25247 0.0
H2251 H 0.6584 0.28537 0.32049 0.0
H2252 H 0.64218 0.26147 0.2162 0.0
H2253 H 0.68548 0.26511 0.23885 0.0
H2254 H 0.70524 0.26253 0.27405 0.0
H2255 H 0.70197 0.22295 0.26511 0.0
H2256 H 0.68207 0.22527 0.23037 0.0
H2257 H 0.65289 0.24243 0.01988 0.0
H2258 H 0.65381 0.25273 0.08303 0.0
H2259 H 0.6596 0.21742 0.13938 0.0
H2260 H 0.6588 0.20699 0.07589 0.0
H2261 H 0.67608 0.2352 0.16378 0.0
H2262 H 0.63185 0.23187 0.14561 0.0
H2263 H 0.61213 0.23465 0.11029 0.0
H2264 H 0.61749 0.27412 0.11001 0.0
H2265 H 0.63734 0.27155 0.14492 0.0
C2266 C 0.66245 0.25435 0.33593 0.0
C2267 C 0.66107 0.26701 0.34507 0.0
C2268 C 0.66228 0.25034 0.29746 0.0
C2269 C 0.6608 0.25885 0.26699 0.0
C2270 C 0.65931 0.2715 0.27568 0.0
C2271 C 0.65953 0.27557 0.31448 0.0
C2272 C 0.66052 0.25424 0.22637 0.0
C2273 C 0.6497 0.25595 0.20434 0.0
C2274 C 0.67024 0.24683 0.21133 0.0
C2275 C 0.68222 0.24537 0.23222 0.0
C2276 C 0.68891 0.25585 0.24466 0.0
C2277 C 0.70016 0.25443 0.26449 0.0
C2278 C 0.70485 0.24258 0.27188 0.0
C2279 C 0.69832 0.23212 0.25938 0.0
C2280 C 0.68706 0.23348 0.23958 0.0
C2281 C 0.65429 0.23682 0.04571 0.0
C2282 C 0.65578 0.22389 0.04298 0.0
C2283 C 0.65476 0.24274 0.08179 0.0
C2284 C 0.65668 0.23584 0.11588 0.0
C2285 C 0.65809 0.2229 0.11334 0.0
C2286 C 0.65758 0.21696 0.07716 0.0
C2287 C 0.65764 0.24219 0.15401 0.0
C2288 C 0.66862 0.24082 0.17549 0.0
C2289 C 0.64809 0.24995 0.1684 0.0
C2290 C 0.63614 0.2515 0.14751 0.0
C2291 C 0.62888 0.24113 0.13773 0.0
C2292 C 0.61766 0.24267 0.11784 0.0
C2293 C 0.61357 0.25455 0.10781 0.0
C2294 C 0.62067 0.26492 0.11775 0.0
C2295 C 0.6319 0.26343 0.13762 0.0
H2296 H 0.60489 0.25572 0.09241 0.0
H2297 H 0.71356 0.24151 0.28722 0.0
H2298 H 0.00123 0.39639 0.61171 0.0
H2299 H 0.00955 0.39629 0.54585 0.0
H2300 H 0.9765 0.41441 0.50374 0.0
H2301 H 0.96798 0.41453 0.57023 0.0
H2302 H 0.98668 0.39557 0.45251 0.0
H2303 H 0.99964 0.43205 0.52249 0.0
H2304 H 0.00839 0.44314 0.57897 0.0
H2305 H 0.04276 0.4235 0.56543 0.0
H2306 H 0.03414 0.41214 0.5092 0.0
H2307 H 0.0124 0.4168 0.27765 0.0
H2308 H 0.00242 0.41618 0.34107 0.0
H2309 H 0.03683 0.40441 0.39371 0.0
H2310 H 0.04709 0.40557 0.32989 0.0
H2311 H 0.02541 0.42017 0.43966 0.0
H2312 H 0.01298 0.38354 0.37102 0.0
H2313 H 0.00452 0.37166 0.31567 0.0
H2314 H 0.96965 0.39052 0.32739 0.0
H2315 H 0.97795 0.40263 0.3825 0.0
C2316 C 0.99562 0.40021 0.58843 0.0
C2317 C 0.98404 0.40567 0.59624 0.0
C2318 C 1.0004 0.40013 0.55081 0.0
C2319 C 0.99375 0.40558 0.52023 0.0
C2320 C 0.98178 0.41023 0.52717 0.0
C2321 C 0.97693 0.41028 0.56506 0.0
C2322 C 0.99984 0.40725 0.48201 0.0
C2323 C 0.99503 0.40109 0.44943 0.0
C2324 C 0.01093 0.41419 0.47848 0.0
C2325 C 0.01621 0.42118 0.51182 0.0
C2326 C 0.00904 0.43004 0.5317 0.0
C2327 C 0.01398 0.43638 0.56366 0.0
C2328 C 0.02612 0.43401 0.57583 0.0
C2329 C 0.03336 0.42532 0.55598 0.0
C2330 C 0.02846 0.41894 0.52404 0.0
C2331 C 0.0179 0.41417 0.3027 0.0
C2332 C 0.0305 0.41111 0.29882 0.0
C2333 C 0.01214 0.41374 0.33896 0.0
C2334 C 0.01877 0.4099 0.37198 0.0
C2335 C 0.03151 0.4073 0.36852 0.0
C2336 C 0.03736 0.40796 0.33215 0.0
C2337 C 0.01229 0.40846 0.40985 0.0
C2338 C 0.01704 0.41466 0.4425 0.0
C2339 C 0.00121 0.40146 0.41346 0.0
C2340 C 0.99613 0.39406 0.38069 0.0
C2341 C 0.00353 0.3852 0.36166 0.0
C2342 C 0.99876 0.37842 0.33034 0.0
C2343 C 0.98656 0.38036 0.31797 0.0
C2344 C 0.9791 0.38904 0.33699 0.0
C2345 C 0.98382 0.39585 0.3683 0.0
H2346 H 0.98289 0.37511 0.29369 0.0
H2347 H 0.02992 0.43892 0.60059 0.0
H2348 H 0.84211 0.71617 0.82682 0.0
H2349 H 0.84375 0.72408 0.75982 0.0
H2350 H 0.85156 0.76067 0.80425 0.0
H2351 H 0.8499 0.75299 0.87048 0.0
H2352 H 0.83271 0.76073 0.75167 0.0
H2353 H 0.874 0.74286 0.76354 0.0
H2354 H 0.88923 0.72602 0.77284 0.0
H2355 H 0.87379 0.70636 0.6755 0.0
H2356 H 0.85836 0.72297 0.66598 0.0
H2357 H 0.84912 0.79496 0.58461 0.0
H2358 H 0.84974 0.78472 0.64833 0.0
H2359 H 0.84625 0.74905 0.59235 0.0
H2360 H 0.8461 0.75915 0.52889 0.0
H2361 H 0.86208 0.74723 0.64902 0.0
H2362 H 0.82128 0.76365 0.63501 0.0
H2363 H 0.80549 0.77969 0.6222 0.0
H2364 H 0.8183 0.80054 0.72089 0.0
H2365 H 0.83432 0.78472 0.73389 0.0
C2366 C 0.84432 0.72586 0.82222 0.0
C2367 C 0.8457 0.73397 0.85403 0.0
C2368 C 0.84527 0.73035 0.78399 0.0
C2369 C 0.84771 0.74298 0.77717 0.0
C2370 C 0.84956 0.75093 0.80888 0.0
C2371 C 0.84859 0.74649 0.84679 0.0
C2372 C 0.84766 0.74828 0.73738 0.0
C2373 C 0.83922 0.75786 0.72932 0.0
C2374 C 0.85583 0.7442 0.70784 0.0
C2375 C 0.86494 0.7341 0.71431 0.0
C2376 C 0.87376 0.73487 0.74442 0.0
C2377 C 0.88245 0.72538 0.74966 0.0
C2378 C 0.88247 0.71513 0.72478 0.0
C2379 C 0.87376 0.7143 0.69475 0.0
C2380 C 0.86504 0.72375 0.68943 0.0
C2381 C 0.84855 0.78494 0.58597 0.0
C2382 C 0.84745 0.77787 0.55183 0.0
C2383 C 0.84886 0.77909 0.62235 0.0
C2384 C 0.84784 0.76612 0.62513 0.0
C2385 C 0.84703 0.75906 0.59096 0.0
C2386 C 0.84688 0.76487 0.55468 0.0
C2387 C 0.84731 0.75987 0.66361 0.0
C2388 C 0.85556 0.75008 0.67134 0.0
C2389 C 0.83879 0.76358 0.69268 0.0
C2390 C 0.82908 0.77305 0.68521 0.0
C2391 C 0.82079 0.7717 0.65383 0.0
C2392 C 0.81179 0.78075 0.64654 0.0
C2393 C 0.81091 0.79114 0.67067 0.0
C2394 C 0.819 0.79249 0.70219 0.0
C2395 C 0.82804 0.78348 0.70955 0.0
H2396 H 0.80393 0.79813 0.66499 0.0
H2397 H 0.88926 0.70785 0.72857 0.0
H2398 H 0.534 0.58628 0.07806 0.0
H2399 H 0.52504 0.58681 0.01218 0.0
H2400 H 0.49003 0.59878 0.05991 0.0
H2401 H 0.49873 0.59817 0.12507 0.0
H2402 H 0.48701 0.57957 0.01127 0.0
H2403 H 0.50899 0.61878 0.01157 0.0
H2404 H 0.52749 0.63208 0.01796 0.0
H2405 H 0.54517 0.61238 0.92458 0.0
H2406 H 0.52683 0.59885 0.918 0.0
H2407 H 0.45481 0.5953 0.83602 0.0
H2408 H 0.46424 0.59538 0.90119 0.0
H2409 H 0.50002 0.5877 0.85017 0.0
H2410 H 0.49087 0.58829 0.78579 0.0
H2411 H 0.50287 0.60456 0.90075 0.0
H2412 H 0.4818 0.56522 0.8997 0.0
H2413 H 0.4639 0.55114 0.89292 0.0
H2414 H 0.44535 0.56982 0.98671 0.0
H2415 H 0.46307 0.58412 0.9937 0.0
C2416 C 0.52444 0.58914 0.07434 0.0
C2417 C 0.51705 0.59204 0.10679 0.0
C2418 C 0.51934 0.58944 0.03678 0.0
C2419 C 0.50685 0.59278 0.0313 0.0
C2420 C 0.49963 0.59605 0.06355 0.0
C2421 C 0.50466 0.59569 0.10081 0.0
C2422 C 0.50099 0.59253 0.99233 0.0
C2423 C 0.4904 0.58512 0.98714 0.0
C2424 C 0.5056 0.59953 0.96073 0.0
C2425 C 0.51659 0.60772 0.96458 0.0
C2426 C 0.51686 0.61722 0.99261 0.0
C2427 C 0.52731 0.62481 -0.00377 0.0
C2428 C 0.53751 0.62305 0.97177 0.0
C2429 C 0.53727 0.61372 0.94355 0.0
C2430 C 0.52685 0.60609 0.93985 0.0
C2431 C 0.46466 0.59358 0.83893 0.0
C2432 C 0.47208 0.59178 0.80584 0.0
C2433 C 0.47004 0.59358 0.8761 0.0
C2434 C 0.48285 0.59145 0.88062 0.0
C2435 C 0.49015 0.58944 0.84751 0.0
C2436 C 0.48486 0.58971 0.81059 0.0
C2437 C 0.48886 0.59157 0.9195 0.0
C2438 C 0.49947 0.59897 0.92476 0.0
C2439 C 0.48436 0.58443 0.95105 0.0
C2440 C 0.47371 0.57582 0.94695 0.0
C2441 C 0.47386 0.56638 0.91868 0.0
C2442 C 0.46375 0.55835 0.91484 0.0
C2443 C 0.45348 0.55961 0.9393 0.0
C2444 C 0.4533 0.56887 0.96774 0.0
C2445 C 0.46338 0.57693 0.97168 0.0
H2446 H 0.44566 0.55338 0.93628 0.0
H2447 H 0.5456 0.62893 0.97462 0.0
H2448 H 0.35336 0.23882 0.53596 0.0
H2449 H 0.35278 0.24728 0.60167 0.0
H2450 H 0.34136 0.21166 0.64635 0.0
H2451 H 0.3419 0.20306 0.58 0.0
H2452 H 0.3268 0.23117 0.67287 0.0
H2453 H 0.37004 0.22153 0.66436 0.0
H2454 H 0.39084 0.22142 0.63454 0.0
H2455 H 0.39196 0.2612 0.63918 0.0
H2456 H 0.37109 0.26156 0.66856 0.0
H2457 H 0.33452 0.24519 0.87154 0.0
H2458 H 0.33618 0.23646 0.80658 0.0
H2459 H 0.34791 0.27194 0.76177 0.0
H2460 H 0.34637 0.28088 0.82741 0.0
H2461 H 0.36246 0.25243 0.73542 0.0
H2462 H 0.31936 0.26228 0.74289 0.0
H2463 H 0.29845 0.26269 0.77187 0.0
H2464 H 0.29691 0.22291 0.76818 0.0
H2465 H 0.3179 0.22225 0.73967 0.0
C2466 C 0.35082 0.23273 0.55976 0.0
C2467 C 0.34767 0.22027 0.55288 0.0
C2468 C 0.35055 0.23758 0.59734 0.0
C2469 C 0.34712 0.23008 0.6289 0.0
C2470 C 0.34407 0.21758 0.62231 0.0
C2471 C 0.34443 0.21267 0.58453 0.0
C2472 C 0.34622 0.23558 0.66834 0.0
C2473 C 0.33465 0.23562 0.68691 0.0
C2474 C 0.35637 0.24175 0.6859 0.0
C2475 C 0.36895 0.24157 0.66836 0.0
C2476 C 0.37468 0.23026 0.65874 0.0
C2477 C 0.38649 0.23015 0.64197 0.0
C2478 C 0.3927 0.2413 0.63489 0.0
C2479 C 0.38713 0.25257 0.64466 0.0
C2480 C 0.37532 0.25274 0.66141 0.0
C2481 C 0.33745 0.25121 0.84803 0.0
C2482 C 0.34032 0.26377 0.85481 0.0
C2483 C 0.33833 0.24618 0.81079 0.0
C2484 C 0.34205 0.25357 0.77932 0.0
C2485 C 0.34499 0.2661 0.78575 0.0
C2486 C 0.34405 0.27119 0.82319 0.0
C2487 C 0.34304 0.248 0.73999 0.0
C2488 C 0.35462 0.24796 0.72142 0.0
C2489 C 0.33289 0.24186 0.72233 0.0
C2490 C 0.32025 0.24221 0.73948 0.0
C2491 C 0.31461 0.25361 0.74857 0.0
C2492 C 0.30273 0.25389 0.76485 0.0
C2493 C 0.29637 0.24283 0.77195 0.0
C2494 C 0.30186 0.23147 0.7627 0.0
C2495 C 0.31374 0.23114 0.74644 0.0
H2496 H 0.28717 0.24307 0.78455 0.0
H2497 H 0.40185 0.24119 0.6219 0.0
H2498 H 0.46835 0.59195 0.57627 0.0
H2499 H 0.47665 0.59473 0.51023 0.0
H2500 H 0.51289 0.60215 0.55823 0.0
H2501 H 0.50473 0.59981 0.62347 0.0
H2502 H 0.50916 0.6167 0.49888 0.0
H2503 H 0.5043 0.57301 0.52586 0.0
H2504 H 0.49272 0.5541 0.54342 0.0
H2505 H 0.46916 0.5589 0.44362 0.0
H2506 H 0.4805 0.57796 0.42578 0.0
H2507 H 0.54807 0.59844 0.3369 0.0
H2508 H 0.53821 0.59929 0.4016 0.0
H2509 H 0.50211 0.59848 0.3475 0.0
H2510 H 0.5117 0.59788 0.28364 0.0
H2511 H 0.50515 0.58111 0.40822 0.0
H2512 H 0.51135 0.62452 0.38016 0.0
H2513 H 0.52374 0.64295 0.3631 0.0
H2514 H 0.54589 0.63795 0.46592 0.0
H2515 H 0.53374 0.61935 0.48329 0.0
C2516 C 0.47803 0.59435 0.57267 0.0
C2517 C 0.4859 0.59545 0.60515 0.0
C2518 C 0.48278 0.59588 0.53498 0.0
C2519 C 0.49545 0.59844 0.52935 0.0
C2520 C 0.50311 0.60015 0.56181 0.0
C2521 C 0.49841 0.5987 0.59921 0.0
C2522 C 0.50108 0.59862 0.49 0.0
C2523 C 0.50834 0.60888 0.47917 0.0
C2524 C 0.49994 0.58846 0.46415 0.0
C2525 C 0.49315 0.57699 0.47477 0.0
C2526 C 0.49659 0.57009 0.50784 0.0
C2527 C 0.49008 0.55933 0.51782 0.0
C2528 C 0.48018 0.55532 0.49473 0.0
C2529 C 0.47681 0.56204 0.46153 0.0
C2530 C 0.48327 0.57281 0.45148 0.0
C2531 C 0.53805 0.59849 0.33896 0.0
C2532 C 0.53068 0.59802 0.30524 0.0
C2533 C 0.53244 0.59899 0.37577 0.0
C2534 C 0.51944 0.59892 0.37908 0.0
C2535 C 0.51214 0.59847 0.34547 0.0
C2536 C 0.51768 0.59813 0.30897 0.0
C2537 C 0.51327 0.59912 0.41742 0.0
C2538 C 0.50592 0.58893 0.42796 0.0
C2539 C 0.51443 0.60927 0.44313 0.0
C2540 C 0.52173 0.62046 0.43278 0.0
C2541 C 0.51894 0.62728 0.39893 0.0
C2542 C 0.5259 0.63777 0.38925 0.0
C2543 C 0.53562 0.6416 0.41334 0.0
C2544 C 0.53837 0.63496 0.44724 0.0
C2545 C 0.53145 0.62445 0.45703 0.0
H2546 H 0.541 0.64973 0.4058 0.0
H2547 H 0.47516 0.54699 0.5025 0.0
H2548 H 0.16174 0.75571 0.36814 0.0
H2549 H 0.15988 0.76409 0.30296 0.0
H2550 H 0.16267 0.72729 0.25468 0.0
H2551 H 0.16459 0.71861 0.3208 0.0
H2552 H 0.17754 0.74592 0.21593 0.0
H2553 H 0.13561 0.73923 0.25497 0.0
H2554 H 0.11759 0.74004 0.29903 0.0
H2555 H 0.11893 0.77985 0.29819 0.0
H2556 H 0.13709 0.77927 0.25453 0.0
H2557 H 0.15281 0.76176 0.03115 0.0
H2558 H 0.15511 0.75279 0.09572 0.0
H2559 H 0.15743 0.7894 0.14563 0.0
H2560 H 0.1555 0.7986 0.08019 0.0
H2561 H 0.14003 0.77048 0.18258 0.0
H2562 H 0.18199 0.77682 0.1411 0.0
H2563 H 0.19923 0.7755 0.09422 0.0
H2564 H 0.19761 0.73574 0.09841 0.0
H2565 H 0.18001 0.7368 0.14416 0.0
C2566 C 0.16201 0.7493 0.34389 0.0
C2567 C 0.16331 0.73643 0.34985 0.0
C2568 C 0.1609 0.75415 0.30655 0.0
C2569 C 0.16104 0.74631 0.27413 0.0
C2570 C 0.16253 0.73347 0.27952 0.0
C2571 C 0.16357 0.72854 0.31723 0.0
C2572 C 0.15943 0.75176 0.23493 0.0
C2573 C 0.16927 0.75111 0.20831 0.0
C2574 C 0.14874 0.75879 0.22557 0.0
C2575 C 0.13779 0.7592 0.25174 0.0
C2576 C 0.13213 0.74816 0.26443 0.0
C2577 C 0.12188 0.74857 0.28929 0.0
C2578 C 0.11714 0.75999 0.30148 0.0
C2579 C 0.12263 0.77101 0.28875 0.0
C2580 C 0.13289 0.77064 0.26391 0.0
C2581 C 0.15385 0.76797 0.05569 0.0
C2582 C 0.1541 0.78091 0.05055 0.0
C2583 C 0.15515 0.76279 0.09257 0.0
C2584 C 0.15653 0.77044 0.12515 0.0
C2585 C 0.15641 0.78339 0.12057 0.0
C2586 C 0.15532 0.78861 0.08333 0.0
C2587 C 0.15816 0.76471 0.16381 0.0
C2588 C 0.1483 0.76529 0.19024 0.0
C2589 C 0.1688 0.75757 0.1728 0.0
C2590 C 0.17956 0.75689 0.14581 0.0
C2591 C 0.1852 0.76779 0.13172 0.0
C2592 C 0.19506 0.76709 0.10539 0.0
C2593 C 0.19954 0.75555 0.09345 0.0
C2594 C 0.19414 0.74468 0.10771 0.0
C2595 C 0.18419 0.74532 0.13379 0.0
H2596 H 0.20721 0.75504 0.07317 0.0
H2597 H 0.10919 0.7603 0.32072 0.0
H2598 H 0.99108 0.41096 0.77877 0.0
H2599 H 0.00081 0.41007 0.84241 0.0
H2600 H 0.96572 0.40016 0.89427 0.0
H2601 H 0.9557 0.40172 0.83009 0.0
H2602 H 0.97718 0.41568 0.93928 0.0
H2603 H 0.98955 0.37824 0.87594 0.0
H2604 H 0.99806 0.36545 0.82276 0.0
H2605 H 0.03316 0.38394 0.83339 0.0
H2606 H 0.02482 0.39697 0.8863 0.0
H2607 H 0.00228 0.39639 0.11596 0.0
H2608 H 0.9937 0.39417 0.05073 0.0
H2609 H 0.02614 0.41175 0.00227 0.0
H2610 H 0.03492 0.41398 0.06806 0.0
H2611 H 0.01601 0.39149 0.95639 0.0
H2612 H 0.00268 0.42938 0.01901 0.0
H2613 H 0.99387 0.44137 0.07352 0.0
H2614 H 0.95994 0.4207 0.06511 0.0
H2615 H 0.96862 0.40845 0.0109 0.0
C2616 C 0.98538 0.40864 0.80363 0.0
C2617 C 0.97263 0.40633 0.79941 0.0
C2618 C 0.991 0.40803 0.84007 0.0
C2619 C 0.9841 0.40468 0.87303 0.0
C2620 C 0.97126 0.40265 0.86915 0.0
C2621 C 0.96555 0.40354 0.83258 0.0
C2622 C 0.99034 0.40354 0.91145 0.0
C2623 C 0.98555 0.41021 0.94307 0.0
C2624 C 0.00142 0.39659 0.91637 0.0
C2625 C 0.00653 0.38864 0.88491 0.0
C2626 C 0.99907 0.37963 0.86681 0.0
C2627 C 0.00386 0.37233 0.83672 0.0
C2628 C 0.01614 0.3739 0.82466 0.0
C2629 C 0.02366 0.38274 0.84275 0.0
C2630 C 0.01891 0.39007 0.87283 0.0
C2631 C 0.00771 0.39962 0.09143 0.0
C2632 C 0.01917 0.40558 0.09715 0.0
C2633 C 0.00279 0.39832 0.05419 0.0
C2634 C 0.00917 0.40303 0.02191 0.0
C2635 C 0.02106 0.40812 0.027 0.0
C2636 C 0.02606 0.40939 0.0645 0.0
C2637 C 0.00283 0.40365 0.98374 0.0
C2638 C 0.00761 0.39689 0.95236 0.0
C2639 C 0.99167 0.4104 0.97907 0.0
C2640 C 0.98634 0.41793 0.01112 0.0
C2641 C 0.99336 0.42734 0.02894 0.0
C2642 C 0.98839 0.43419 0.05976 0.0
C2643 C 0.97636 0.43178 0.07282 0.0
C2644 C 0.96926 0.42255 0.05498 0.0
C2645 C 0.9742 0.41566 0.02418 0.0
H2646 H 0.97253 0.43709 0.09671 0.0
H2647 H 0.01983 0.36825 0.80133 0.0
H2648 H 0.33572 0.79572 0.90954 0.0
H2649 H 0.33507 0.7861 0.84465 0.0
H2650 H 0.35121 0.75269 0.89184 0.0
H2651 H 0.3518 0.76215 0.95637 0.0
H2652 H 0.36177 0.75959 0.82157 0.0
H2653 H 0.32143 0.75253 0.87606 0.0
H2654 H 0.30176 0.75843 0.90746 0.0
H2655 H 0.29312 0.78241 0.81126 0.0
H2656 H 0.31279 0.77664 0.77927 0.0
H2657 H 0.34823 0.71912 0.66239 0.0
H2658 H 0.34851 0.72769 0.72869 0.0
H2659 H 0.33136 0.76129 0.68667 0.0
H2660 H 0.33097 0.75287 0.62099 0.0
H2661 H 0.32125 0.75377 0.7554 0.0
H2662 H 0.36193 0.76037 0.70072 0.0
H2663 H 0.38156 0.75391 0.66998 0.0
H2664 H 0.38965 0.73046 0.76791 0.0
H2665 H 0.36996 0.73664 0.79898 0.0
C2666 C 0.33923 0.78638 0.90588 0.0
C2667 C 0.34377 0.77966 0.93792 0.0
C2668 C 0.3388 0.78088 0.86895 0.0
C2669 C 0.34301 0.76865 0.86361 0.0
C2670 C 0.34791 0.76212 0.89537 0.0
C2671 C 0.34821 0.76754 0.93221 0.0
C2672 C 0.34204 0.76248 0.82523 0.0
C2673 C 0.35291 0.75819 0.80725 0.0
C2674 C 0.33048 0.76077 0.80651 0.0
C2675 C 0.31864 0.76427 0.82552 0.0
C2676 C 0.31538 0.75915 0.86177 0.0
C2677 C 0.30423 0.76246 0.87967 0.0
C2678 C 0.29624 0.7709 0.86161 0.0
C2679 C 0.29935 0.77594 0.82537 0.0
C2680 C 0.31048 0.77262 0.80727 0.0
C2681 C 0.34442 0.72828 0.66741 0.0
C2682 C 0.33971 0.73536 0.63633 0.0
C2683 C 0.34463 0.73318 0.70522 0.0
C2684 C 0.34006 0.74518 0.71245 0.0
C2685 C 0.33494 0.75203 0.68174 0.0
C2686 C 0.33481 0.74721 0.64411 0.0
C2687 C 0.341 0.75092 0.75156 0.0
C2688 C 0.33012 0.75514 0.76971 0.0
C2689 C 0.35255 0.75253 0.77049 0.0
C2690 C 0.36441 0.74885 0.75195 0.0
C2691 C 0.36785 0.75375 0.71554 0.0
C2692 C 0.37899 0.75016 0.69809 0.0
C2693 C 0.38683 0.74175 0.71692 0.0
C2694 C 0.38356 0.73695 0.75332 0.0
C2695 C 0.37241 0.7405 0.77087 0.0
H2696 H 0.39546 0.73898 0.70337 0.0
H2697 H 0.28762 0.77347 0.8756 0.0
H2698 H 0.95792 0.5905 0.65578 0.0
H2699 H 0.96879 0.58902 0.59314 0.0
H2700 H 0.00227 0.60268 0.64704 0.0
H2701 H 0.99151 0.6042 0.70937 0.0
H2702 H 0.99846 0.6128 0.57453 0.0
H2703 H 0.99951 0.57288 0.63467 0.0
H2704 H 0.99036 0.55473 0.66745 0.0
H2705 H 0.96841 0.54696 0.56595 0.0
H2706 H 0.9773 0.56522 0.53271 0.0
H2707 H 0.03607 0.59561 0.41232 0.0
H2708 H 0.02893 0.59614 0.48025 0.0
H2709 H 0.99351 0.58135 0.44468 0.0
H2710 H 1.00055 0.58056 0.37765 0.0
H2711 H 1.00057 0.57132 0.51227 0.0
H2712 H 0.99826 0.61269 0.4554 0.0
H2713 H 0.00721 0.63124 0.42402 0.0
H2714 H 0.03186 0.63621 0.52107 0.0
H2715 H 0.02316 0.61759 0.55279 0.0
C2716 C 0.96753 0.59336 0.65404 0.0
C2717 C 0.97391 0.59738 0.68738 0.0
C2718 C 0.97375 0.59245 0.6184 0.0
C2719 C 0.98637 0.5956 0.61572 0.0
C2720 C 0.99255 0.60018 0.64857 0.0
C2721 C 0.98639 0.601 0.68414 0.0
C2722 C 0.99333 0.59355 0.57917 0.0
C2723 C 0.99907 0.60371 0.56113 0.0
C2724 C 0.99412 0.58168 0.56189 0.0
C2725 C 0.98899 0.57048 0.58131 0.0
C2726 C 0.99268 0.56734 0.6194 0.0
C2727 C 0.98753 0.55704 0.63808 0.0
C2728 C 0.97877 0.54971 0.61887 0.0
C2729 C 0.97518 0.55266 0.58083 0.0
C2730 C 0.98028 0.56298 0.56202 0.0
C2731 C 0.02684 0.59231 0.41914 0.0
C2732 C 0.01882 0.58823 0.38946 0.0
C2733 C 0.02276 0.59265 0.45789 0.0
C2734 C 0.01062 0.58894 0.46738 0.0
C2735 C 0.00289 0.58428 0.43806 0.0
C2736 C 0.00692 0.58394 0.39961 0.0
C2737 C 0.00547 0.59064 0.50703 0.0
C2738 C 1.00008 0.5804 0.52582 0.0
C2739 C 0.00504 0.60243 0.52509 0.0
C2740 C 0.01016 0.61369 0.50623 0.0
C2741 C 0.00564 0.6177 0.46992 0.0
C2742 C 0.01066 0.62823 0.45209 0.0
C2743 C 0.02012 0.63488 0.47049 0.0
C2744 C 0.02455 0.63104 0.50682 0.0
C2745 C 0.01958 0.6205 0.52474 0.0
H2746 H 0.024 0.64302 0.45663 0.0
H2747 H 0.97478 0.54175 0.63344 0.0
H2748 H 0.15027 0.24584 0.11831 0.0
H2749 H 0.14875 0.23748 0.18394 0.0
H2750 H 0.16013 0.27272 0.23137 0.0
H2751 H 0.16174 0.28126 0.16521 0.0
H2752 H 0.17328 0.25291 0.26199 0.0
H2753 H 0.13091 0.26391 0.24211 0.0
H2754 H 0.11091 0.2649 0.20741 0.0
H2755 H 0.10801 0.2252 0.2115 0.0
H2756 H 0.1281 0.22396 0.24577 0.0
H2757 H 0.1577 0.24034 0.45752 0.0
H2758 H 0.15725 0.24883 0.39187 0.0
H2759 H 0.15201 0.21215 0.34479 0.0
H2760 H 0.15272 0.2034 0.41106 0.0
H2761 H 0.13549 0.23261 0.31454 0.0
H2762 H 0.17844 0.2217 0.33094 0.0
H2763 H 0.1983 0.2208 0.36648 0.0
H2764 H 0.19963 0.26058 0.37021 0.0
H2765 H 0.17975 0.26171 0.33463 0.0
C2766 C 0.15239 0.25189 0.14261 0.0
C2767 C 0.15619 0.26423 0.13648 0.0
C2768 C 0.15144 0.24709 0.18016 0.0
C2769 C 0.15426 0.25449 0.21249 0.0
C2770 C 0.1579 0.26687 0.2067 0.0
C2771 C 0.15876 0.27174 0.16896 0.0
C2772 C 0.15393 0.24901 0.25203 0.0
C2773 C 0.16497 0.24865 0.2737 0.0
C2774 C 0.14316 0.24315 0.26682 0.0
C2775 C 0.13107 0.24384 0.2462 0.0
C2776 C 0.12607 0.25538 0.23531 0.0
C2777 C 0.1147 0.25599 0.21578 0.0
C2778 C 0.10821 0.24512 0.20717 0.0
C2779 C 0.11306 0.23362 0.21816 0.0
C2780 C 0.12443 0.23296 0.23768 0.0
C2781 C 0.15647 0.23402 0.43333 0.0
C2782 C 0.15533 0.22117 0.43944 0.0
C2783 C 0.1562 0.23892 0.39583 0.0
C2784 C 0.15465 0.23111 0.36366 0.0
C2785 C 0.15321 0.21829 0.36945 0.0
C2786 C 0.15365 0.21333 0.40717 0.0
C2787 C 0.15482 0.2365 0.32411 0.0
C2788 C 0.14378 0.23687 0.30261 0.0
C2789 C 0.16556 0.24239 0.30944 0.0
C2790 C 0.17757 0.24179 0.33045 0.0
C2791 C 0.18293 0.23025 0.33958 0.0
C2792 C 0.1942 0.2297 0.35968 0.0
C2793 C 0.20019 0.24062 0.37083 0.0
C2794 C 0.19497 0.25213 0.36163 0.0
C2795 C 0.18372 0.25273 0.34137 0.0
H2796 H 0.20889 0.24017 0.38649 0.0
H2797 H 0.09941 0.24561 0.19205 0.0
H2798 H 0.51054 0.40013 0.20692 0.0
H2799 H 0.4998 0.40201 0.14471 0.0
H2800 H 0.53316 0.41623 0.09173 0.0
H2801 H 0.54405 0.4144 0.15444 0.0
H2802 H 0.51179 0.43001 0.07332 0.0
H2803 H 0.52489 0.38728 0.07372 0.0
H2804 H 0.52692 0.36621 0.10101 0.0
H2805 H 0.48727 0.36264 0.10454 0.0
H2806 H 0.485 0.38376 0.07771 0.0
H2807 H 0.50074 0.42165 0.87472 0.0
H2808 H 0.50778 0.42173 0.94177 0.0
H2809 H 0.47307 0.40565 0.97855 0.0
H2810 H 0.4659 0.40535 0.91047 0.0
H2811 H 0.49299 0.39339 0.0086 0.0
H2812 H 0.47977 0.4353 0.00189 0.0
H2813 H 0.47767 0.4562 0.97341 0.0
H2814 H 0.51703 0.46154 0.9818 0.0
H2815 H 0.51942 0.44059 0.00971 0.0
C2816 C 0.51564 0.40362 0.18204 0.0
C2817 C 0.52816 0.40709 0.18549 0.0
C2818 C 0.50947 0.40466 0.14649 0.0
C2819 C 0.51569 0.40919 0.11362 0.0
C2820 C 0.5282 0.41271 0.11686 0.0
C2821 C 0.53443 0.41159 0.15253 0.0
C2822 C 0.50905 0.41025 0.07598 0.0
C2823 C 0.50779 0.42201 0.05888 0.0
C2824 C 0.50343 0.39986 0.05806 0.0
C2825 C 0.50478 0.38715 0.0741 0.0
C2826 C 0.5166 0.38204 0.08063 0.0
C2827 C 0.5178 0.37008 0.09594 0.0
C2828 C 0.50723 0.3631 0.10461 0.0
C2829 C 0.49545 0.36806 0.09787 0.0
C2830 C 0.4942 0.38002 0.08257 0.0
C2831 C 0.49451 0.41819 0.89694 0.0
C2832 C 0.48278 0.41339 0.88714 0.0
C2833 C 0.49853 0.41835 0.93542 0.0
C2834 C 0.49092 0.41382 0.96523 0.0
C2835 C 0.47907 0.40925 0.9559 0.0
C2836 C 0.47497 0.40912 0.9171 0.0
C2837 C 0.49588 0.41314 0.00546 0.0
C2838 C 0.49684 0.40145 0.02318 0.0
C2839 C 0.50117 0.42362 0.02399 0.0
C2840 C 0.49978 0.43632 0.0077 0.0
C2841 C 0.488 0.44089 -0.00256 0.0
C2842 C 0.48675 0.45275 0.98141 0.0
C2843 C 0.49721 0.46018 0.97574 0.0
C2844 C 0.50894 0.45577 0.9862 0.0
C2845 C 0.51024 0.44391 0.00218 0.0
H2846 H 0.49623 0.46936 0.96329 0.0
H2847 H 0.50818 0.35385 0.11646 0.0
H2848 H 0.15294 0.32901 0.08725 0.0
H2849 H 0.13907 0.34596 0.10651 0.0
H2850 H 0.10777 0.32112 0.09954 0.0
H2851 H 0.12147 0.30434 0.07927 0.0
H2852 H 0.10243 0.34158 0.06367 0.0
H2853 H 0.12045 0.33155 0.18817 0.0
H2854 H 0.1374 0.32824 0.2353 0.0
H2855 H 0.14946 0.36587 0.21951 0.0
H2856 H 0.13266 0.36936 0.17188 0.0
H2857 H 0.05615 0.37348 0.16914 0.0
H2858 H 0.07238 0.35894 0.14966 0.0
H2859 H 0.09839 0.38914 0.13943 0.0
H2860 H 0.08209 0.40385 0.15857 0.0
H2861 H 0.1076 0.36785 0.18115 0.0
H2862 H 0.0882 0.37788 0.0595 0.0
H2863 H 0.07062 0.38084 0.01445 0.0
H2864 H 0.06062 0.3425 0.0272 0.0
H2865 H 0.07804 0.33936 0.0728 0.0
C2866 C 0.14311 0.32716 0.09023 0.0
C2867 C 0.13829 0.31536 0.08163 0.0
C2868 C 0.1352 0.33684 0.10134 0.0
C2869 C 0.12235 0.33483 0.10464 0.0
C2870 C 0.11761 0.32295 0.09699 0.0
C2871 C 0.12547 0.31334 0.08552 0.0
C2872 C 0.11368 0.34511 0.11442 0.0
C2873 C 0.10352 0.34722 0.08961 0.0
C2874 C 0.11526 0.35276 0.1476 0.0
C2875 C 0.12539 0.35067 0.17612 0.0
C2876 C 0.12678 0.33909 0.19449 0.0
C2877 C 0.13635 0.33718 0.22134 0.0
C2878 C 0.14453 0.34682 0.2303 0.0
C2879 C 0.14313 0.3584 0.21249 0.0
C2880 C 0.13358 0.36035 0.18558 0.0
C2881 C 0.06531 0.37706 0.16269 0.0
C2882 C 0.06784 0.38982 0.16529 0.0
C2883 C 0.07457 0.36873 0.1515 0.0
C2884 C 0.08656 0.37298 0.14296 0.0
C2885 C 0.08918 0.3857 0.14591 0.0
C2886 C 0.07986 0.39407 0.15665 0.0
C2887 C 0.09628 0.36404 0.13089 0.0
C2888 C 0.10662 0.36223 0.15512 0.0
C2889 C 0.09483 0.35657 0.09737 0.0
C2890 C 0.08437 0.35842 0.06983 0.0
C2891 C 0.08219 0.37011 0.05296 0.0
C2892 C 0.07226 0.37181 0.02727 0.0
C2893 C 0.06449 0.36187 0.01804 0.0
C2894 C 0.06665 0.35019 0.03441 0.0
C2895 C 0.07655 0.34844 0.06014 0.0
H2896 H 0.05681 0.3632 -0.00186 0.0
H2897 H 0.15192 0.34534 0.25112 0.0
H2898 H 0.8478 0.83056 0.40921 0.0
H2899 H 0.86191 0.84743 0.39103 0.0
H2900 H 0.89299 0.82237 0.39967 0.0
H2901 H 0.87902 0.80558 0.41823 0.0
H2902 H 0.89772 0.84355 0.43702 0.0
H2903 H 0.88151 0.83183 0.31137 0.0
H2904 H 0.86516 0.8279 0.26265 0.0
H2905 H 0.85289 0.86567 0.27212 0.0
H2906 H 0.86908 0.86978 0.32132 0.0
H2907 H 0.94574 0.87182 0.33071 0.0
H2908 H 0.9289 0.8586 0.35372 0.0
H2909 H 0.90387 0.88979 0.35126 0.0
H2910 H 0.92082 0.9032 0.32841 0.0
H2911 H 0.89441 0.86799 0.31492 0.0
H2912 H 0.91235 0.88004 0.43609 0.0
H2913 H 0.9292 0.88373 0.48323 0.0
H2914 H 0.9386 0.84503 0.48111 0.0
H2915 H 0.92191 0.84113 0.43348 0.0
C2916 C 0.85763 0.82864 0.40691 0.0
C2917 C 0.8623 0.81673 0.41519 0.0
C2918 C 0.86568 0.83828 0.39646 0.0
C2919 C 0.87852 0.83616 0.39391 0.0
C2920 C 0.88314 0.82424 0.40163 0.0
C2921 C 0.87512 0.81463 0.41208 0.0
C2922 C 0.88727 0.84636 0.38423 0.0
C2923 C 0.89704 0.84882 0.41017 0.0
C2924 C 0.88616 0.85354 0.34982 0.0
C2925 C 0.8764 0.85107 0.32039 0.0
C2926 C 0.87525 0.83926 0.30334 0.0
C2927 C 0.86603 0.83701 0.27558 0.0
C2928 C 0.85796 0.84652 0.2644 0.0
C2929 C 0.85913 0.85831 0.28088 0.0
C2930 C 0.86832 0.86061 0.30869 0.0
C2931 C 0.93668 0.87591 0.33527 0.0
C2932 C 0.9346 0.88856 0.32778 0.0
C2933 C 0.92707 0.86834 0.34853 0.0
C2934 C 0.91516 0.87322 0.35437 0.0
C2935 C 0.91301 0.88586 0.34698 0.0
C2936 C 0.9227 0.8935 0.33412 0.0
C2937 C 0.90499 0.86492 0.36726 0.0
C2938 C 0.89497 0.86282 0.34201 0.0
C2939 C 0.90588 0.85803 0.40222 0.0
C2940 C 0.91592 0.86031 0.43097 0.0
C2941 C 0.91807 0.87233 0.44542 0.0
C2942 C 0.92758 0.87446 0.47228 0.0
C2943 C 0.93498 0.86463 0.4851 0.0
C2944 C 0.93286 0.85264 0.47113 0.0
C2945 C 0.92336 0.85047 0.44424 0.0
H2946 H 0.94234 0.86629 0.5059 0.0
H2947 H 0.85084 0.84475 0.24288 0.0
H2948 H 0.38 0.69712 0.59131 0.0
H2949 H 0.39405 0.68048 0.61066 0.0
H2950 H 0.36442 0.65387 0.59832 0.0
H2951 H 0.35016 0.67064 0.58019 0.0
H2952 H 0.37832 0.64789 0.65892 0.0
H2953 H 0.38653 0.65783 0.52609 0.0
H2954 H 0.39104 0.67137 0.46995 0.0
H2955 H 0.42534 0.68255 0.52301 0.0
H2956 H 0.42095 0.6692 0.57974 0.0
H2957 H 0.42235 0.59751 0.65516 0.0
H2958 H 0.40593 0.61199 0.63535 0.0
H2959 H 0.43059 0.6428 0.65578 0.0
H2960 H 0.44696 0.62847 0.67548 0.0
H2961 H 0.41804 0.64494 0.58657 0.0
H2962 H 0.40864 0.63541 0.72144 0.0
H2963 H 0.40381 0.62138 0.77613 0.0
H2964 H 0.37134 0.6085 0.716 0.0
H2965 H 0.37608 0.62235 0.6607 0.0
C2966 C 0.37644 0.68775 0.5931 0.0
C2967 C 0.36401 0.68517 0.58389 0.0
C2968 C 0.3845 0.67822 0.60395 0.0
C2969 C 0.3804 0.66585 0.60494 0.0
C2970 C 0.36784 0.66332 0.59747 0.0
C2971 C 0.35969 0.67291 0.58713 0.0
C2972 C 0.38937 0.65562 0.61259 0.0
C2973 C 0.38691 0.64713 0.64266 0.0
C2974 C 0.40063 0.65461 0.59153 0.0
C2975 C 0.40336 0.66258 0.5573 0.0
C2976 C 0.395 0.66323 0.52589 0.0
C2977 C 0.39754 0.67087 0.49395 0.0
C2978 C 0.40846 0.67784 0.49295 0.0
C2979 C 0.41688 0.67715 0.52384 0.0
C2980 C 0.41438 0.66954 0.55587 0.0
C2981 C 0.42427 0.60737 0.65525 0.0
C2982 C 0.43594 0.61185 0.66697 0.0
C2983 C 0.41487 0.61563 0.64411 0.0
C2984 C 0.41701 0.62848 0.64439 0.0
C2985 C 0.42873 0.63292 0.65536 0.0
C2986 C 0.43807 0.62471 0.66671 0.0
C2987 C 0.40712 0.63743 0.63343 0.0
C2988 C 0.40939 0.64566 0.60257 0.0
C2989 C 0.39566 0.63808 0.65346 0.0
C2990 C 0.39279 0.62981 0.68677 0.0
C2991 C 0.40053 0.62951 0.71975 0.0
C2992 C 0.3978 0.62161 0.75088 0.0
C2993 C 0.3873 0.61402 0.74949 0.0
C2994 C 0.37949 0.61436 0.71701 0.0
C2995 C 0.38218 0.62224 0.68578 0.0
H2996 H 0.3852 0.60791 0.77362 0.0
H2997 H 0.41041 0.68375 0.4682 0.0
H2998 H 0.62391 0.19791 0.89281 0.0
H2999 H 0.60914 0.18148 0.87719 0.0
H3000 H 0.6366 0.15387 0.90648 0.0
H3001 H 0.65163 0.17035 0.92029 0.0
H3002 H 0.62416 0.14612 0.84703 0.0
H3003 H 0.61233 0.16258 0.97084 0.0
H3004 H 0.6068 0.17884 0.01823 0.0
H3005 H 0.57523 0.18893 0.94875 0.0
H3006 H 0.58066 0.17283 0.90067 0.0
H3007 H 0.57758 0.09857 0.8519 0.0
H3008 H 0.59405 0.11281 0.87274 0.0
H3009 H 0.57143 0.14399 0.83848 0.0
H3010 H 0.55495 0.12991 0.81848 0.0
H3011 H 0.58229 0.1484 0.9064 0.0
H3012 H 0.59547 0.13244 0.78052 0.0
H3013 H 0.6012 0.11582 0.73457 0.0
H3014 H 0.63046 0.10415 0.81123 0.0
H3015 H 0.6248 0.12062 0.85784 0.0
C3016 C 0.62683 0.18834 0.89559 0.0
C3017 C 0.63889 0.18541 0.90801 0.0
C3018 C 0.61834 0.17894 0.88695 0.0
C3019 C 0.62161 0.1664 0.89172 0.0
C3020 C 0.63381 0.16346 0.90283 0.0
C3021 C 0.64239 0.17288 0.91071 0.0
C3022 C 0.61223 0.15643 0.88557 0.0
C3023 C 0.61508 0.14653 0.86053 0.0
C3024 C 0.60032 0.15693 0.90295 0.0
C3025 C 0.59696 0.16655 0.93202 0.0
C3026 C 0.60425 0.16831 0.96557 0.0
C3027 C 0.60112 0.17749 0.99256 0.0
C3028 C 0.59068 0.18493 0.98647 0.0
C3029 C 0.58332 0.18317 0.95342 0.0
C3030 C 0.58641 0.174 0.92632 0.0
C3031 C 0.57611 0.10846 0.8491 0.0
C3032 C 0.56498 0.1131 0.83342 0.0
C3033 C 0.58555 0.11659 0.86081 0.0
C3034 C 0.58405 0.12948 0.8567 0.0
C3035 C 0.57282 0.1341 0.84192 0.0
C3036 C 0.5634 0.12601 0.83041 0.0
C3037 C 0.59413 0.1383 0.86716 0.0
C3038 C 0.59142 0.14796 0.89318 0.0
C3039 C 0.60618 0.1375 0.85098 0.0
C3040 C 0.60963 0.12767 0.82281 0.0
C3041 C 0.60307 0.12628 0.78767 0.0
C3042 C 0.60631 0.11689 0.7615 0.0
C3043 C 0.61616 0.10891 0.77003 0.0
C3044 C 0.62282 0.11032 0.80469 0.0
C3045 C 0.6196 0.11969 0.83097 0.0
H3046 H 0.61866 0.10165 0.74974 0.0
H3047 H 0.58829 0.19204 0.00739 0.0
H3048 H 0.08139 0.60063 0.323 0.0
H3049 H 0.09803 0.61512 0.34029 0.0
H3050 H 0.07107 0.64436 0.35436 0.0
H3051 H 0.05452 0.63006 0.33616 0.0
H3052 H 0.08945 0.65235 0.31197 0.0
H3053 H 0.08616 0.63001 0.43312 0.0
H3054 H 0.08604 0.61147 0.47526 0.0
H3055 H 0.12327 0.60285 0.44014 0.0
H3056 H 0.12355 0.62126 0.39739 0.0
H3057 H 0.12345 0.69806 0.41271 0.0
H3058 H 0.10902 0.68181 0.39302 0.0
H3059 H 0.13963 0.65672 0.37464 0.0
H3060 H 0.15419 0.67299 0.39485 0.0
H3061 H 0.12092 0.64571 0.41535 0.0
H3062 H 0.12443 0.66912 0.29731 0.0
H3063 H 0.12438 0.688 0.25673 0.0
H3064 H 0.0864 0.69487 0.28739 0.0
H3065 H 0.08626 0.67611 0.32859 0.0
C3066 C 0.07901 0.61011 0.33027 0.0
C3067 C 0.06665 0.61421 0.32811 0.0
C3068 C 0.08853 0.61839 0.34022 0.0
C3069 C 0.08582 0.63085 0.34875 0.0
C3070 C 0.07342 0.63482 0.34768 0.0
C3071 C 0.06395 0.62661 0.3374 0.0
C3072 C 0.09585 0.63998 0.35704 0.0
C3073 C 0.09624 0.65094 0.3349 0.0
C3074 C 0.10499 0.638 0.38607 0.0
C3075 C 0.10482 0.62693 0.41172 0.0
C3076 C 0.09428 0.6241 0.43413 0.0
C3077 C 0.09419 0.61363 0.45818 0.0
C3078 C 0.10462 0.60597 0.46028 0.0
C3079 C 0.11518 0.60878 0.43842 0.0
C3080 C 0.11532 0.61924 0.41431 0.0
C3081 C 0.12715 0.68913 0.40417 0.0
C3082 C 0.13998 0.68684 0.40523 0.0
C3083 C 0.11888 0.67984 0.39281 0.0
C3084 C 0.12324 0.66806 0.382 0.0
C3085 C 0.13606 0.66574 0.38281 0.0
C3086 C 0.14436 0.67507 0.39416 0.0
C3087 C 0.11432 0.65816 0.37083 0.0
C3088 C 0.11417 0.64706 0.39228 0.0
C3089 C 0.10535 0.66001 0.34128 0.0
C3090 C 0.10537 0.67125 0.31627 0.0
C3091 C 0.11609 0.6747 0.29561 0.0
C3092 C 0.11609 0.68537 0.27246 0.0
C3093 C 0.1054 0.69264 0.26954 0.0
C3094 C 0.09468 0.68923 0.28969 0.0
C3095 C 0.09463 0.67857 0.3129 0.0
H3096 H 0.10543 0.70091 0.25162 0.0
H3097 H 0.10453 0.59787 0.47892 0.0
H3098 H 0.62092 0.80697 0.56091 0.0
H3099 H 0.60654 0.82361 0.57741 0.0
H3100 H 0.63729 0.84864 0.59438 0.0
H3101 H 0.65181 0.83185 0.57879 0.0
H3102 H 0.62031 0.85224 0.6492 0.0
H3103 H 0.61966 0.84973 0.51075 0.0
H3104 H 0.61804 0.83958 0.4466 0.0
H3105 H 0.58083 0.82814 0.47291 0.0
H3106 H 0.58228 0.83807 0.53747 0.0
H3107 H 0.57896 0.90445 0.65132 0.0
H3108 H 0.59561 0.89044 0.63042 0.0
H3109 H 0.56927 0.86049 0.62119 0.0
H3110 H 0.55265 0.87436 0.64208 0.0
H3111 H 0.58549 0.8613 0.55892 0.0
H3112 H 0.58726 0.86279 0.69991 0.0
H3113 H 0.58921 0.87326 0.76346 0.0
H3114 H 0.62492 0.88741 0.7304 0.0
H3115 H 0.62309 0.87716 0.66639 0.0
C3116 C 0.62465 0.81599 0.56831 0.0
C3117 C 0.6375 0.81811 0.56827 0.0
C3118 C 0.6164 0.82553 0.57754 0.0
C3119 C 0.6208 0.83747 0.58631 0.0
C3120 C 0.63366 0.83953 0.58746 0.0
C3121 C 0.64195 0.82993 0.57852 0.0
C3122 C 0.61191 0.84774 0.59402 0.0
C3123 C 0.61283 0.85437 0.62911 0.0
C3124 C 0.60207 0.85049 0.568 0.0
C3125 C 0.60112 0.84457 0.52908 0.0
C3126 C 0.61116 0.84498 0.50297 0.0
C3127 C 0.61027 0.83927 0.46652 0.0
C3128 C 0.59935 0.8332 0.45572 0.0
C3129 C 0.58929 0.83284 0.48132 0.0
C3130 C 0.59013 0.83852 0.51784 0.0
C3131 C 0.57671 0.89491 0.64444 0.0
C3132 C 0.5645 0.89049 0.64849 0.0
C3133 C 0.58624 0.88691 0.6327 0.0
C3134 C 0.58369 0.87439 0.62462 0.0
C3135 C 0.57144 0.8701 0.62733 0.0
C3136 C 0.56195 0.87804 0.63936 0.0
C3137 C 0.59377 0.86558 0.61436 0.0
C3138 C 0.59306 0.85925 0.57875 0.0
C3139 C 0.60386 0.8632 0.63971 0.0
C3140 C 0.60497 0.86933 0.6782 0.0
C3141 C 0.59548 0.86822 0.70606 0.0
C3142 C 0.59657 0.8741 0.74219 0.0
C3143 C 0.60717 0.88103 0.75092 0.0
C3144 C 0.6167 0.88206 0.72357 0.0
C3145 C 0.61565 0.87622 0.68737 0.0
H3146 H 0.608 0.88557 0.77891 0.0
H3147 H 0.59868 0.82878 0.42748 0.0
H3148 H 0.44638 0.37261 0.83966 0.0
H3149 H 0.42957 0.3585 0.85679 0.0
H3150 H 0.40276 0.38699 0.83011 0.0
H3151 H 0.41968 0.40136 0.81418 0.0
H3152 H 0.39533 0.37406 0.89174 0.0
H3153 H 0.40942 0.36361 0.76417 0.0
H3154 H 0.42482 0.35852 0.71358 0.0
H3155 H 0.43534 0.32578 0.7768 0.0
H3156 H 0.42012 0.33077 0.82806 0.0
H3157 H 0.34706 0.32794 0.89046 0.0
H3158 H 0.36104 0.34452 0.86865 0.0
H3159 H 0.3926 0.32141 0.89529 0.0
H3160 H 0.37877 0.30486 0.91645 0.0
H3161 H 0.39573 0.3329 0.82712 0.0
H3162 H 0.38259 0.3447 0.95728 0.0
H3163 H 0.36709 0.35005 0.00733 0.0
H3164 H 0.35429 0.38044 0.93706 0.0
H3165 H 0.36963 0.37517 0.88636 0.0
C3166 C 0.43691 0.37593 0.83781 0.0
C3167 C 0.43435 0.38806 0.82522 0.0
C3168 C 0.42729 0.36782 0.84739 0.0
C3169 C 0.41486 0.37155 0.8437 0.0
C3170 C 0.41227 0.38385 0.83287 0.0
C3171 C 0.42194 0.39206 0.82379 0.0
C3172 C 0.40468 0.36242 0.85005 0.0
C3173 C 0.3953 0.36514 0.87711 0.0
C3174 C 0.40462 0.35074 0.83113 0.0
C3175 C 0.41367 0.34761 0.80008 0.0
C3176 C 0.41506 0.35536 0.76738 0.0
C3177 C 0.42376 0.35249 0.73858 0.0
C3178 C 0.43107 0.34184 0.742 0.0
C3179 C 0.42967 0.33403 0.77419 0.0
C3180 C 0.421 0.33686 0.8031 0.0
C3181 C 0.35697 0.32638 0.89133 0.0
C3182 C 0.3618 0.31509 0.9053 0.0
C3183 C 0.36496 0.33588 0.87909 0.0
C3184 C 0.37789 0.33428 0.88075 0.0
C3185 C 0.38267 0.32289 0.89373 0.0
C3186 C 0.37473 0.31343 0.90592 0.0
C3187 C 0.3866 0.34439 0.86961 0.0
C3188 C 0.39568 0.34187 0.84145 0.0
C3189 C 0.38631 0.35625 0.88731 0.0
C3190 C 0.37715 0.35945 0.91787 0.0
C3191 C 0.37641 0.35247 0.95239 0.0
C3192 C 0.36766 0.3555 0.98089 0.0
C3193 C 0.35968 0.36556 0.97533 0.0
C3194 C 0.36046 0.37264 0.9413 0.0
C3195 C 0.36918 0.36964 0.91268 0.0
H3196 H 0.35292 0.36789 -0.00258 0.0
H3197 H 0.4378 0.33964 0.71969 0.0
H3198 H 0.84783 0.17175 0.09272 0.0
H3199 H 0.8618 0.15482 0.11119 0.0
H3200 H 0.89331 0.1788 0.09322 0.0
H3201 H 0.87944 0.19569 0.07442 0.0
H3202 H 0.89677 0.15692 0.05833 0.0
H3203 H 0.88361 0.17096 0.18449 0.0
H3204 H 0.86857 0.17635 0.2358 0.0
H3205 H 0.85461 0.13905 0.23505 0.0
H3206 H 0.86948 0.13347 0.18329 0.0
H3207 H 0.94529 0.12736 0.16008 0.0
H3208 H 0.9287 0.14128 0.13932 0.0
H3209 H 0.90244 0.11119 0.14568 0.0
H3210 H 0.91916 0.09704 0.16609 0.0
H3211 H 0.89478 0.13405 0.18366 0.0
H3212 H 0.90965 0.11987 0.06037 0.0
H3213 H 0.92547 0.1149 0.01097 0.0
H3214 H 0.93686 0.15305 0.00808 0.0
H3215 H 0.92122 0.15822 0.05792 0.0
C3216 C 0.85773 0.17345 0.09308 0.0
C3217 C 0.86252 0.18507 0.08209 0.0
C3218 C 0.8657 0.16376 0.1037 0.0
C3219 C 0.87862 0.16553 0.10366 0.0
C3220 C 0.88339 0.17719 0.09331 0.0
C3221 C 0.87544 0.18687 0.08275 0.0
C3222 C 0.88724 0.15519 0.11321 0.0
C3223 C 0.89638 0.15199 0.08588 0.0
C3224 C 0.88653 0.1485 0.14868 0.0
C3225 C 0.87755 0.15184 0.17966 0.0
C3226 C 0.87725 0.16393 0.19499 0.0
C3227 C 0.86878 0.16702 0.22421 0.0
C3228 C 0.86061 0.15806 0.23858 0.0
C3229 C 0.86093 0.14599 0.22382 0.0
C3230 C 0.86938 0.14286 0.19455 0.0
C3231 C 0.93601 0.12366 0.15689 0.0
C3232 C 0.93353 0.1111 0.16469 0.0
C3233 C 0.92654 0.13163 0.14494 0.0
C3234 C 0.91436 0.12726 0.14086 0.0
C3235 C 0.9118 0.11472 0.14865 0.0
C3236 C 0.92135 0.10666 0.16009 0.0
C3237 C 0.9044 0.13598 0.12907 0.0
C3238 C 0.89503 0.13888 0.15593 0.0
C3239 C 0.90494 0.14247 0.09329 0.0
C3240 C 0.91432 0.13942 0.06313 0.0
C3241 C 0.91559 0.12719 0.04945 0.0
C3242 C 0.92451 0.12433 0.02131 0.0
C3243 C 0.93218 0.13365 0.00646 0.0
C3244 C 0.93092 0.14584 0.01964 0.0
C3245 C 0.92202 0.14874 0.04779 0.0
H3246 H 0.93909 0.13142 0.98468 0.0
H3247 H 0.85406 0.16046 0.26123 0.0
H3248 H 0.88093 0.69361 0.93473 0.0
H3249 H 0.89475 0.6771 0.91315 0.0
H3250 H 0.86325 0.65553 0.87554 0.0
H3251 H 0.84926 0.67203 0.89781 0.0
H3252 H 0.88038 0.64133 0.9146 0.0
H3253 H 0.88081 0.6706 0.80933 0.0
H3254 H 0.88272 0.69146 0.78052 0.0
H3255 H 0.92024 0.69401 0.82175 0.0
H3256 H 0.91848 0.67325 0.85146 0.0
H3257 H 0.9208 0.59867 0.81481 0.0
H3258 H 0.90413 0.61293 0.83358 0.0
H3259 H 0.93137 0.64075 0.86298 0.0
H3260 H 0.94792 0.62677 0.8426 0.0
H3261 H 0.91442 0.65098 0.82231 0.0
H3262 H 0.91373 0.62315 0.93291 0.0
H3263 H 0.91197 0.60286 0.96574 0.0
H3264 H 0.87557 0.59789 0.91738 0.0
H3265 H 0.87718 0.61809 0.8839 0.0
C3266 C 0.87691 0.68538 0.92179 0.0
C3267 C 0.864 0.68417 0.91776 0.0
C3268 C 0.88484 0.67595 0.90938 0.0
C3269 C 0.88005 0.66514 0.89224 0.0
C3270 C 0.86714 0.66381 0.88859 0.0
C3271 C 0.85918 0.67326 0.90116 0.0
C3272 C 0.88862 0.65534 0.87815 0.0
C3273 C 0.88772 0.64335 0.89392 0.0
C3274 C 0.8983 0.65804 0.85165 0.0
C3275 C 0.89948 0.6704 0.83285 0.0
C3276 C 0.88945 0.67563 0.81241 0.0
C3277 C 0.89051 0.68745 0.79591 0.0
C3278 C 0.90159 0.69407 0.79937 0.0
C3279 C 0.91166 0.68887 0.81913 0.0
C3280 C 0.91064 0.67708 0.83577 0.0
C3281 C 0.92319 0.60779 0.82569 0.0
C3282 C 0.93564 0.61164 0.82715 0.0
C3283 C 0.91367 0.61593 0.83654 0.0
C3284 C 0.91645 0.62794 0.84995 0.0
C3285 C 0.92894 0.63159 0.85248 0.0
C3286 C 0.93841 0.62357 0.84096 0.0
C3287 C 0.9065 0.637 0.85974 0.0
C3288 C 0.90707 0.64887 0.84284 0.0
C3289 C 0.8966 0.63419 0.88545 0.0
C3290 C 0.89564 0.62206 0.90556 0.0
C3291 C 0.9054 0.61768 0.92904 0.0
C3292 C 0.90442 0.60621 0.94781 0.0
C3293 C 0.89368 0.59908 0.94355 0.0
C3294 C 0.88389 0.60341 0.9206 0.0
C3295 C 0.88482 0.61488 0.90175 0.0
H3296 H 0.89294 0.5902 0.95811 0.0
H3297 H 0.9024 0.70324 0.78676 0.0
H3298 H 0.12434 0.19911 0.59377 0.0
H3299 H 0.10972 0.18298 0.61409 0.0
H3300 H 0.13809 0.1552 0.59923 0.0
H3301 H 0.15285 0.17133 0.57945 0.0
H3302 H 0.115 0.14958 0.56197 0.0
H3303 H 0.13054 0.16147 0.68681 0.0
H3304 H 0.13633 0.17593 0.73937 0.0
H3305 H 0.09855 0.18823 0.74783 0.0
H3306 H 0.09256 0.17397 0.69487 0.0
H3307 H 0.07822 0.10124 0.64927 0.0
H3308 H 0.09497 0.11553 0.6314 0.0
H3309 H 0.07099 0.14667 0.6547 0.0
H3310 H 0.05428 0.13252 0.67265 0.0
H3311 H 0.09333 0.14945 0.68942 0.0
H3312 H 0.07792 0.13874 0.56264 0.0
H3313 H 0.07188 0.12473 0.50916 0.0
H3314 H 0.10907 0.11062 0.50341 0.0
H3315 H 0.1153 0.12443 0.5573 0.0
C3316 C 0.12751 0.18958 0.59524 0.0
C3317 C 0.13974 0.18648 0.58508 0.0
C3318 C 0.11915 0.18039 0.60688 0.0
C3319 C 0.12284 0.16791 0.60816 0.0
C3320 C 0.13508 0.16478 0.5984 0.0
C3321 C 0.14351 0.17401 0.58734 0.0
C3322 C 0.11372 0.15815 0.61847 0.0
C3323 C 0.11041 0.14938 0.59009 0.0
C3324 C 0.10757 0.15811 0.65481 0.0
C3325 C 0.11113 0.16673 0.68659 0.0
C3326 C 0.12348 0.16735 0.6996 0.0
C3327 C 0.1268 0.17549 0.72953 0.0
C3328 C 0.11782 0.18302 0.74685 0.0
C3329 C 0.1055 0.1824 0.73434 0.0
C3330 C 0.10214 0.17428 0.70439 0.0
C3331 C 0.07649 0.11113 0.6502 0.0
C3332 C 0.06492 0.11575 0.6624 0.0
C3333 C 0.08606 0.11929 0.63994 0.0
C3334 C 0.08423 0.13218 0.64172 0.0
C3335 C 0.07263 0.13677 0.65328 0.0
C3336 C 0.06306 0.12865 0.66335 0.0
C3337 C 0.09446 0.14095 0.63274 0.0
C3338 C 0.09798 0.14955 0.66141 0.0
C3339 C 0.10076 0.14087 0.59658 0.0
C3340 C 0.09703 0.1325 0.56435 0.0
C3341 C 0.08478 0.13256 0.55026 0.0
C3342 C 0.08133 0.12467 0.51981 0.0
C3343 C 0.09007 0.11676 0.50299 0.0
C3344 C 0.1023 0.11673 0.51654 0.0
C3345 C 0.1058 0.12459 0.54702 0.0
H3346 H 0.08739 0.11067 0.47939 0.0
H3347 H 0.1204 0.18931 0.77004 0.0
H3348 H 0.55814 0.37188 0.30605 0.0
H3349 H 0.57501 0.35833 0.32649 0.0
H3350 H 0.59727 0.39022 0.35583 0.0
H3351 H 0.58034 0.40397 0.33482 0.0
H3352 H 0.61066 0.3725 0.31594 0.0
H3353 H 0.58373 0.37332 0.42746 0.0
H3354 H 0.56398 0.37147 0.46326 0.0
H3355 H 0.56054 0.33356 0.42661 0.0
H3356 H 0.58015 0.33523 0.39014 0.0
H3357 H 0.65464 0.33173 0.41196 0.0
H3358 H 0.64062 0.3487 0.39335 0.0
H3359 H 0.61162 0.32209 0.37037 0.0
H3360 H 0.62537 0.3053 0.39014 0.0
H3361 H 0.60287 0.33946 0.41345 0.0
H3362 H 0.62783 0.33866 0.29678 0.0
H3363 H 0.64723 0.33973 0.25891 0.0
H3364 H 0.65398 0.3765 0.30201 0.0
H3365 H 0.63468 0.37558 0.34053 0.0
C3366 C 0.5666 0.37606 0.31691 0.0
C3367 C 0.56787 0.38902 0.31898 0.0
C3368 C 0.57623 0.36828 0.32874 0.0
C3369 C 0.58735 0.37324 0.34322 0.0
C3370 C 0.58875 0.38619 0.34489 0.0
C3371 C 0.57906 0.39402 0.33302 0.0
C3372 C 0.59744 0.36479 0.35625 0.0
C3373 C 0.60905 0.3654 0.33776 0.0
C3374 C 0.59527 0.35538 0.38421 0.0
C3375 C 0.58339 0.35443 0.40588 0.0
C3376 C 0.57871 0.36462 0.42676 0.0
C3377 C 0.56755 0.3636 0.44723 0.0
C3378 C 0.56101 0.3524 0.44718 0.0
C3379 C 0.56561 0.34222 0.42662 0.0
C3380 C 0.57676 0.3432 0.4061 0.0
C3381 C 0.64533 0.32954 0.40238 0.0
C3382 C 0.64107 0.31721 0.40273 0.0
C3383 C 0.63732 0.33923 0.39168 0.0
C3384 C 0.62502 0.33671 0.38045 0.0
C3385 C 0.621 0.32432 0.37927 0.0
C3386 C 0.6289 0.31471 0.39047 0.0
C3387 C 0.61597 0.34682 0.37211 0.0
C3388 C 0.60456 0.3466 0.3918 0.0
C3389 C 0.61829 0.35645 0.34494 0.0
C3390 C 0.62989 0.35699 0.3219 0.0
C3391 C 0.63351 0.34693 0.29845 0.0
C3392 C 0.64447 0.34752 0.27681 0.0
C3393 C 0.65185 0.35816 0.27816 0.0
C3394 C 0.64827 0.36825 0.30106 0.0
C3395 C 0.63731 0.3677 0.32278 0.0
H3396 H 0.66034 0.3586 0.26137 0.0
H3397 H 0.55241 0.35157 0.46315 0.0
H3398 H 0.3453 0.82939 0.08891 0.0
H3399 H 0.35936 0.84605 0.10966 0.0
H3400 H 0.39058 0.82141 0.09619 0.0
H3401 H 0.37667 0.8048 0.07575 0.0
H3402 H 0.3921 0.83469 0.16324 0.0
H3403 H 0.38342 0.84287 0.02675 0.0
H3404 H 0.3697 0.84715 0.97081 0.0
H3405 H 0.35611 0.87993 0.02756 0.0
H3406 H 0.36965 0.87575 0.08407 0.0
H3407 H 0.44447 0.87242 0.1546 0.0
H3408 H 0.42765 0.85819 0.13864 0.0
H3409 H 0.4014 0.88835 0.14472 0.0
H3410 H 0.4184 0.90279 0.15922 0.0
H3411 H 0.39531 0.87368 0.08704 0.0
H3412 H 0.40491 0.86687 0.22089 0.0
H3413 H 0.41828 0.86288 0.27785 0.0
H3414 H 0.42935 0.82795 0.229 0.0
H3415 H 0.41618 0.8318 0.17148 0.0
C3416 C 0.35516 0.82752 0.09065 0.0
C3417 C 0.35987 0.81578 0.08056 0.0
C3418 C 0.36318 0.83706 0.10232 0.0
C3419 C 0.37605 0.83501 0.10412 0.0
C3420 C 0.3807 0.82321 0.09501 0.0
C3421 C 0.37272 0.81373 0.08322 0.0
C3422 C 0.3848 0.84511 0.1149 0.0
C3423 C 0.39286 0.84318 0.14643 0.0
C3424 C 0.38552 0.85639 0.09383 0.0
C3425 C 0.37744 0.85892 0.0598 0.0
C3426 C 0.37743 0.85094 0.02742 0.0
C3427 C 0.3697 0.85336 -0.00441 0.0
C3428 C 0.36201 0.86379 -0.00432 0.0
C3429 C 0.36206 0.87184 0.02756 0.0
C3430 C 0.36976 0.86946 0.05948 0.0
C3431 C 0.43513 0.87605 0.15234 0.0
C3432 C 0.43274 0.88871 0.1585 0.0
C3433 C 0.42549 0.86788 0.14346 0.0
C3434 C 0.41317 0.8721 0.14153 0.0
C3435 C 0.4108 0.88484 0.14636 0.0
C3436 C 0.42051 0.89308 0.15464 0.0
C3437 C 0.40286 0.86313 0.13483 0.0
C3438 C 0.39449 0.86527 0.10419 0.0
C3439 C 0.40176 0.85208 0.15699 0.0
C3440 C 0.40961 0.84966 0.19175 0.0
C3441 C 0.41025 0.85837 0.22219 0.0
C3442 C 0.41779 0.85613 0.25459 0.0
C3443 C 0.42468 0.84518 0.25701 0.0
C3444 C 0.42401 0.83643 0.22708 0.0
C3445 C 0.4165 0.83862 0.1946 0.0
H3446 H 0.43051 0.84346 0.28211 0.0
H3447 H 0.35603 0.86564 0.97102 0.0
H3448 H 0.92296 0.40421 0.64034 0.0
H3449 H 0.90554 0.39081 0.62173 0.0
H3450 H 0.92547 0.35888 0.6644 0.0
H3451 H 0.94284 0.37214 0.68299 0.0
H3452 H 0.9043 0.37092 0.57115 0.0
H3453 H 0.90492 0.33938 0.70802 0.0
H3454 H 0.91016 0.34085 0.77782 0.0
H3455 H 0.90258 0.37995 0.77585 0.0
H3456 H 0.89711 0.37867 0.7062 0.0
H3457 H 0.87787 0.31169 0.54184 0.0
H3458 H 0.89113 0.329 0.56112 0.0
H3459 H 0.86125 0.34438 0.62909 0.0
H3460 H 0.84779 0.32709 0.6094 0.0
H3461 H 0.88434 0.34343 0.66882 0.0
H3462 H 0.86763 0.35842 0.54914 0.0
H3463 H 0.86184 0.35743 0.47972 0.0
H3464 H 0.9001 0.35282 0.44831 0.0
H3465 H 0.90611 0.35359 0.51763 0.0
C3466 C 0.92363 0.39433 0.64566 0.0
C3467 C 0.93427 0.38924 0.66323 0.0
C3468 C 0.91368 0.38669 0.63497 0.0
C3469 C 0.91415 0.37387 0.64212 0.0
C3470 C 0.92483 0.36877 0.65913 0.0
C3471 C 0.93479 0.37637 0.66957 0.0
C3472 C 0.90355 0.36572 0.63168 0.0
C3473 C 0.89989 0.36496 0.59252 0.0
C3474 C 0.89763 0.35811 0.65971 0.0
C3475 C 0.9007 0.35893 0.70179 0.0
C3476 C 0.90431 0.34827 0.72253 0.0
C3477 C 0.90733 0.34908 0.76206 0.0
C3478 C 0.90673 0.36049 0.78123 0.0
C3479 C 0.90307 0.37112 0.76093 0.0
C3480 C 0.90003 0.37036 0.72141 0.0
C3481 C 0.87409 0.31876 0.56086 0.0
C3482 C 0.86178 0.31803 0.57411 0.0
C3483 C 0.88167 0.32867 0.5717 0.0
C3484 C 0.87714 0.33801 0.5963 0.0
C3485 C 0.86489 0.33727 0.60998 0.0
C3486 C 0.85722 0.32742 0.59866 0.0
C3487 C 0.8854 0.34836 0.60814 0.0
C3488 C 0.88865 0.3495 0.64754 0.0
C3489 C 0.89086 0.35639 0.58039 0.0
C3490 C 0.88731 0.35597 0.53863 0.0
C3491 C 0.8748 0.3571 0.52747 0.0
C3492 C 0.87148 0.35659 0.48812 0.0
C3493 C 0.8806 0.35504 0.45963 0.0
C3494 C 0.89305 0.35401 0.47042 0.0
C3495 C 0.89642 0.3545 0.50973 0.0
H3496 H 0.87801 0.35465 0.42918 0.0
H3497 H 0.90909 0.3611 0.81183 0.0
H3498 H 0.38117 0.19669 0.41827 0.0
H3499 H 0.39519 0.17998 0.39944 0.0
H3500 H 0.36389 0.15638 0.37445 0.0
H3501 H 0.34974 0.17307 0.39381 0.0
H3502 H 0.38131 0.14423 0.4169 0.0
H3503 H 0.38089 0.16856 0.30046 0.0
H3504 H 0.38241 0.18764 0.2611 0.0
H3505 H 0.42005 0.19273 0.29867 0.0
H3506 H 0.41871 0.17377 0.33869 0.0
H3507 H 0.42135 0.09848 0.32813 0.0
H3508 H 0.40476 0.11313 0.34472 0.0
H3509 H 0.43208 0.14164 0.36533 0.0
H3510 H 0.44855 0.12721 0.34761 0.0
H3511 H 0.4149 0.15031 0.32017 0.0
H3512 H 0.41487 0.12688 0.4403 0.0
H3513 H 0.41333 0.10798 0.48053 0.0
H3514 H 0.37666 0.10125 0.43648 0.0
H3515 H 0.37804 0.12004 0.39563 0.0
C3516 C 0.37724 0.18799 0.40842 0.0
C3517 C 0.36433 0.18623 0.40744 0.0
C3518 C 0.38528 0.17845 0.39756 0.0
C3519 C 0.38061 0.16694 0.38521 0.0
C3520 C 0.36771 0.16517 0.38386 0.0
C3521 C 0.35964 0.17475 0.39473 0.0
C3522 C 0.38926 0.15673 0.37479 0.0
C3523 C 0.38854 0.14546 0.39528 0.0
C3524 C 0.39881 0.1584 0.34702 0.0
C3525 C 0.39967 0.16978 0.3228 0.0
C3526 C 0.38947 0.17379 0.30055 0.0
C3527 C 0.3903 0.18458 0.27808 0.0
C3528 C 0.40131 0.1914 0.27744 0.0
C3529 C 0.41153 0.18744 0.2992 0.0
C3530 C 0.41074 0.17666 0.32174 0.0
C3531 C 0.42379 0.10781 0.3369 0.0
C3532 C 0.43623 0.11172 0.33644 0.0
C3533 C 0.41431 0.11619 0.3464 0.0
C3534 C 0.41714 0.12853 0.35629 0.0
C3535 C 0.42963 0.13222 0.35748 0.0
C3536 C 0.43905 0.12394 0.34751 0.0
C3537 C 0.40722 0.13791 0.36311 0.0
C3538 C 0.40765 0.14901 0.34169 0.0
C3539 C 0.39745 0.13607 0.39006 0.0
C3540 C 0.39662 0.12478 0.41459 0.0
C3541 C 0.40652 0.12131 0.43896 0.0
C3542 C 0.40566 0.11063 0.46192 0.0
C3543 C 0.39492 0.10339 0.46097 0.0
C3544 C 0.38499 0.10685 0.43714 0.0
C3545 C 0.3858 0.11751 0.4141 0.0
H3546 H 0.39427 0.09513 0.47877 0.0
H3547 H 0.40194 0.19976 0.26003 0.0
H3548 H 0.62169 0.69739 0.06494 0.0
H3549 H 0.60757 0.68108 0.08635 0.0
H3550 H 0.63865 0.65682 0.10787 0.0
H3551 H 0.65291 0.67314 0.08604 0.0
H3552 H 0.61982 0.64505 0.06848 0.0
H3553 H 0.62376 0.66995 0.18345 0.0
H3554 H 0.6237 0.68942 0.2211 0.0
H3555 H 0.58545 0.69533 0.1916 0.0
H3556 H 0.58532 0.67598 0.15331 0.0
H3557 H 0.58166 0.60025 0.16624 0.0
H3558 H 0.59793 0.6149 0.14712 0.0
H3559 H 0.57046 0.64377 0.13482 0.0
H3560 H 0.55431 0.62932 0.15531 0.0
H3561 H 0.58902 0.65245 0.17316 0.0
H3562 H 0.58517 0.62873 0.05477 0.0
H3563 H 0.58502 0.60975 0.01471 0.0
H3564 H 0.62259 0.60199 0.04839 0.0
H3565 H 0.62292 0.62086 0.08903 0.0
C3566 C 0.62555 0.68862 0.07441 0.0
C3567 C 0.63843 0.68658 0.07392 0.0
C3568 C 0.61746 0.6793 0.08675 0.0
C3569 C 0.62205 0.66777 0.09908 0.0
C3570 C 0.63491 0.66567 0.09854 0.0
C3571 C 0.64304 0.67502 0.08624 0.0
C3572 C 0.61334 0.6579 0.11192 0.0
C3573 C 0.61321 0.64657 0.09181 0.0
C3574 C 0.60456 0.65999 0.14181 0.0
C3575 C 0.60456 0.67155 0.16527 0.0
C3576 C 0.61536 0.67544 0.18479 0.0
C3577 C 0.61535 0.68645 0.20628 0.0
C3578 C 0.60459 0.69362 0.20867 0.0
C3579 C 0.59378 0.68977 0.1897 0.0
C3580 C 0.59374 0.67877 0.16814 0.0
C3581 C 0.5791 0.60969 0.15904 0.0
C3582 C 0.56672 0.61365 0.16232 0.0
C3583 C 0.5884 0.61806 0.148 0.0
C3584 C 0.58544 0.63046 0.13924 0.0
C3585 C 0.57301 0.63429 0.14161 0.0
C3586 C 0.56377 0.626 0.15319 0.0
C3587 C 0.59526 0.63964 0.12914 0.0
C3588 C 0.59565 0.65086 0.14994 0.0
C3589 C 0.60421 0.63747 0.09969 0.0
C3590 C 0.60402 0.62613 0.07527 0.0
C3591 C 0.59337 0.62292 0.05387 0.0
C3592 C 0.59325 0.6122 0.03101 0.0
C3593 C 0.60377 0.60465 0.0291 0.0
C3594 C 0.61444 0.60784 0.04995 0.0
C3595 C 0.6146 0.61855 0.07287 0.0
H3596 H 0.60367 0.59635 0.01138 0.0
H3597 H 0.60461 0.70215 0.22528 0.0
H3598 H 0.08091 0.9059 0.82414 0.0
H3599 H 0.09746 0.89163 0.84454 0.0
H3600 H 0.07059 0.86227 0.85712 0.0
H3601 H 0.05411 0.87638 0.8367 0.0
H3602 H 0.08711 0.86327 0.91868 0.0
H3603 H 0.08818 0.86372 0.77744 0.0
H3604 H 0.09012 0.87374 0.71313 0.0
H3605 H 0.12636 0.88706 0.74378 0.0
H3606 H 0.12455 0.87726 0.80853 0.0
H3607 H 0.11949 0.80736 0.91657 0.0
H3608 H 0.1061 0.82473 0.89937 0.0
H3609 H 0.13819 0.84803 0.88297 0.0
H3610 H 0.15175 0.8305 0.89955 0.0
H3611 H 0.12105 0.85239 0.82728 0.0
H3612 H 0.12111 0.85045 0.96568 0.0
H3613 H 0.11946 0.84066 0.03039 0.0
H3614 H 0.0816 0.83084 0.00683 0.0
H3615 H 0.08308 0.84041 0.94172 0.0
C3616 C 0.07854 0.89643 0.83158 0.0
C3617 C 0.06621 0.89225 0.82868 0.0
C3618 C 0.088 0.88828 0.84304 0.0
C3619 C 0.08527 0.87586 0.85205 0.0
C3620 C 0.07292 0.87181 0.85028 0.0
C3621 C 0.06351 0.87988 0.8385 0.0
C3622 C 0.0952 0.86691 0.86255 0.0
C3623 C 0.09449 0.86084 0.89863 0.0
C3624 C 0.10507 0.86403 0.8369 0.0
C3625 C 0.10617 0.86989 0.79798 0.0
C3626 C 0.09651 0.86888 0.77059 0.0
C3627 C 0.0976 0.8745 0.73404 0.0
C3628 C 0.10834 0.88107 0.72442 0.0
C3629 C 0.11804 0.882 0.7513 0.0
C3630 C 0.11699 0.87641 0.78792 0.0
C3631 C 0.12374 0.81615 0.90909 0.0
C3632 C 0.13669 0.81757 0.90972 0.0
C3633 C 0.11605 0.82611 0.89944 0.0
C3634 C 0.12111 0.83778 0.8907 0.0
C3635 C 0.13407 0.83914 0.88988 0.0
C3636 C 0.1418 0.82912 0.89937 0.0
C3637 C 0.11276 0.84851 0.88306 0.0
C3638 C 0.11377 0.85493 0.8476 0.0
C3639 C 0.10321 0.85179 0.90943 0.0
C3640 C 0.10224 0.84608 0.94869 0.0
C3641 C 0.11246 0.84613 0.97419 0.0
C3642 C 0.11155 0.84062 0.01096 0.0
C3643 C 0.10043 0.83511 0.02269 0.0
C3644 C 0.0902 0.83511 -0.0023 0.0
C3645 C 0.09106 0.84059 0.96087 0.0
H3646 H 0.09975 0.83085 0.05117 0.0
H3647 H 0.10917 0.88541 0.6961 0.0
loop_
_geom_bond_atom_site_label_1
_geom_bond_atom_site_label_2
_geom_bond_distance
_geom_bond_site_symmetry_2
_ccdc_geom_bond_type
Co0 O1 2.216 . S
Co0 O2 2.091 . S
Co0 O4 2.004 . S
Co0 O10 2.021 . S
Co0 O12 2.137 1_554 S
Co0 O13 2.244 . S
O1 Co0 2.216 . S
O1 C8 1.247 . S
O2 Co0 2.091 . S
O2 C8 1.261 . S
C3 O12 1.247 . S
C3 O13 1.272 1_556 S
O4 Co0 2.004 . S
O4 C9 1.259 . S
Co5 O6 2.061 . S
Co5 O11 2.052 . S
Co5 O13 2.135 . S
O6 Co5 2.061 . S
O6 C9 1.235 . S
C7 O10 1.238 . S
C7 O11 1.241 . S
C8 O1 1.247 . S
C8 O2 1.261 . S
C9 O4 1.259 . S
C9 O6 1.235 . S
O10 Co0 2.021 . S
O10 C7 1.238 . S
O11 Co5 2.052 . S
O11 C7 1.241 . S
O12 Co0 2.137 1_556 S
O12 C3 1.247 . S
O13 Co0 2.244 . S
O13 C3 1.272 1_554 S
O13 Co5 2.135 . S
Co14 O15 2.216 . S
Co14 O16 2.091 . S
Co14 O18 2.004 . S
Co14 O24 2.021 . S
Co14 O26 2.137 . S
Co14 O27 2.244 . S
O15 Co14 2.216 . S
O15 C22 1.247 . S
O16 Co14 2.091 . S
O16 C22 1.261 . S
C17 O26 1.247 . S
C17 O27 1.272 . S
O18 Co14 2.004 . S
O18 C23 1.259 . S
Co19 O20 2.061 . S
Co19 O25 2.052 . S
Co19 O27 2.135 . S
O20 Co19 2.061 . S
O20 C23 1.235 . S
C21 O24 1.238 . S
C21 O25 1.241 . S
C22 O15 1.247 . S
C22 O16 1.261 . S
C23 O18 1.259 . S
C23 O20 1.235 . S
O24 Co14 2.021 . S
O24 C21 1.238 . S
O25 Co19 2.052 . S
O25 C21 1.241 . S
O26 Co14 2.137 . S
O26 C17 1.247 . S
O27 Co14 2.244 . S
O27 C17 1.272 . S
O27 Co19 2.135 . S
Co28 O29 2.216 . S
Co28 O30 2.091 . S
Co28 O32 2.004 . S
Co28 O38 2.021 . S
Co28 O40 2.137 . S
Co28 O41 2.244 . S
O29 Co28 2.216 . S
O29 C36 1.247 . S
O30 Co28 2.091 . S
O30 C36 1.261 . S
C31 O40 1.247 . S
C31 O41 1.272 . S
O32 Co28 2.004 . S
O32 C37 1.259 . S
Co33 O34 2.061 . S
Co33 O39 2.052 . S
Co33 O41 2.135 . S
O34 Co33 2.061 . S
O34 C37 1.235 . S
C35 O38 1.238 . S
C35 O39 1.241 . S
C36 O29 1.247 . S
C36 O30 1.261 . S
C37 O32 1.259 . S
C37 O34 1.235 . S
O38 Co28 2.021 . S
O38 C35 1.238 . S
O39 Co33 2.052 . S
O39 C35 1.241 . S
O40 Co28 2.137 . S
O40 C31 1.247 . S
O41 Co28 2.244 . S
O41 C31 1.272 . S
O41 Co33 2.135 . S
Co42 O43 2.216 . S
Co42 O44 2.091 . S
Co42 O46 2.004 . S
Co42 O52 2.021 . S
Co42 O54 2.137 . S
Co42 O55 2.244 . S
O43 Co42 2.216 . S
O43 C50 1.247 . S
O44 Co42 2.091 . S
O44 C50 1.261 . S
C45 O54 1.247 . S
C45 O55 1.272 . S
O46 Co42 2.004 . S
O46 C51 1.259 . S
Co47 O48 2.061 . S
Co47 O53 2.052 . S
Co47 O55 2.135 . S
O48 Co47 2.061 . S
O48 C51 1.235 . S
C49 O52 1.238 . S
C49 O53 1.241 . S
C50 O43 1.247 . S
C50 O44 1.261 . S
C51 O46 1.259 . S
C51 O48 1.235 . S
O52 Co42 2.021 . S
O52 C49 1.238 . S
O53 Co47 2.052 . S
O53 C49 1.241 . S
O54 Co42 2.137 . S
O54 C45 1.247 . S
O55 Co42 2.244 . S
O55 C45 1.272 . S
O55 Co47 2.135 . S
Co56 O57 2.216 . S
Co56 O58 2.091 . S
Co56 O60 2.004 . S
Co56 O66 2.021 . S
Co56 O68 2.137 . S
Co56 O69 2.244 . S
O57 Co56 2.216 . S
O57 C64 1.247 . S
O58 Co56 2.091 . S
O58 C64 1.261 . S
C59 O68 1.247 . S
C59 O69 1.272 . S
O60 Co56 2.004 . S
O60 C65 1.259 . S
Co61 O62 2.061 . S
Co61 O67 2.052 . S
Co61 O69 2.135 . S
O62 Co61 2.061 . S
O62 C65 1.235 . S
C63 O66 1.238 . S
C63 O67 1.241 . S
C64 O57 1.247 . S
C64 O58 1.261 . S
C65 O60 1.259 . S
C65 O62 1.235 . S
O66 Co56 2.021 . S
O66 C63 1.238 . S
O67 Co61 2.052 . S
O67 C63 1.241 . S
O68 Co56 2.137 . S
O68 C59 1.247 . S
O69 Co56 2.244 . S
O69 C59 1.272 . S
O69 Co61 2.135 . S
Co70 O71 2.216 . S
Co70 O72 2.091 . S
Co70 O74 2.004 . S
Co70 O80 2.021 . S
Co70 O82 2.137 . S
Co70 O83 2.244 . S
O71 Co70 2.216 . S
O71 C78 1.247 . S
O72 Co70 2.091 . S
O72 C78 1.261 . S
C73 O82 1.247 . S
C73 O83 1.272 . S
O74 Co70 2.004 . S
O74 C79 1.259 . S
Co75 O76 2.061 . S
Co75 O81 2.052 . S
Co75 O83 2.135 . S
O76 Co75 2.061 . S
O76 C79 1.235 . S
C77 O80 1.238 . S
C77 O81 1.241 . S
C78 O71 1.247 . S
C78 O72 1.261 . S
C79 O74 1.259 . S
C79 O76 1.235 . S
O80 Co70 2.021 . S
O80 C77 1.238 . S
O81 Co75 2.052 . S
O81 C77 1.241 . S
O82 Co70 2.137 . S
O82 C73 1.247 . S
O83 Co70 2.244 . S
O83 C73 1.272 . S
O83 Co75 2.135 . S
Co84 O85 2.216 . S
Co84 O86 2.091 . S
Co84 O88 2.004 . S
Co84 O94 2.021 . S
Co84 O96 2.137 1_556 S
Co84 O97 2.244 . S
O85 Co84 2.216 . S
O85 C92 1.247 . S
O86 Co84 2.091 . S
O86 C92 1.261 . S
C87 O96 1.247 . S
C87 O97 1.272 1_554 S
O88 Co84 2.004 . S
O88 C93 1.259 . S
Co89 O90 2.061 . S
Co89 O95 2.052 . S
Co89 O97 2.135 . S
O90 Co89 2.061 . S
O90 C93 1.235 . S
C91 O94 1.238 . S
C91 O95 1.241 . S
C92 O85 1.247 . S
C92 O86 1.261 . S
C93 O88 1.259 . S
C93 O90 1.235 . S
O94 Co84 2.021 . S
O94 C91 1.238 . S
O95 Co89 2.052 . S
O95 C91 1.241 . S
O96 Co84 2.137 1_554 S
O96 C87 1.247 . S
O97 Co84 2.244 . S
O97 C87 1.272 1_556 S
O97 Co89 2.135 . S
Co98 O99 2.216 . S
Co98 O100 2.091 . S
Co98 O102 2.004 . S
Co98 O108 2.021 . S
Co98 O110 2.137 . S
Co98 O111 2.244 . S
O99 Co98 2.216 . S
O99 C106 1.247 . S
O100 Co98 2.091 . S
O100 C106 1.261 . S
C101 O110 1.247 . S
C101 O111 1.272 . S
O102 Co98 2.004 . S
O102 C107 1.259 . S
Co103 O104 2.061 . S
Co103 O109 2.052 . S
Co103 O111 2.135 . S
O104 Co103 2.061 . S
O104 C107 1.235 . S
C105 O108 1.238 . S
C105 O109 1.241 . S
C106 O99 1.247 . S
C106 O100 1.261 . S
C107 O102 1.259 . S
C107 O104 1.235 . S
O108 Co98 2.021 . S
O108 C105 1.238 . S
O109 Co103 2.052 . S
O109 C105 1.241 . S
O110 Co98 2.137 . S
O110 C101 1.247 . S
O111 Co98 2.244 . S
O111 C101 1.272 . S
O111 Co103 2.135 . S
Co112 O113 2.216 . S
Co112 O114 2.091 . S
Co112 O116 2.004 . S
Co112 O122 2.021 . S
Co112 O124 2.137 1_556 S
Co112 O125 2.244 . S
O113 Co112 2.216 . S
O113 C120 1.247 . S
O114 Co112 2.091 . S
O114 C120 1.261 . S
C115 O124 1.247 . S
C115 O125 1.272 1_554 S
O116 Co112 2.004 . S
O116 C121 1.259 . S
Co117 O118 2.061 . S
Co117 O123 2.052 . S
Co117 O125 2.135 . S
O118 Co117 2.061 . S
O118 C121 1.235 . S
C119 O122 1.238 . S
C119 O123 1.241 . S
C120 O113 1.247 . S
C120 O114 1.261 . S
C121 O116 1.259 . S
C121 O118 1.235 . S
O122 Co112 2.021 . S
O122 C119 1.238 . S
O123 Co117 2.052 . S
O123 C119 1.241 . S
O124 Co112 2.137 1_554 S
O124 C115 1.247 . S
O125 Co112 2.244 . S
O125 C115 1.272 1_556 S
O125 Co117 2.135 . S
Co126 O127 2.216 . S
Co126 O128 2.091 . S
Co126 O130 2.004 . S
Co126 O136 2.021 . S
Co126 O138 2.137 . S
Co126 O139 2.244 . S
O127 Co126 2.216 . S
O127 C134 1.247 . S
O128 Co126 2.091 . S
O128 C134 1.261 . S
C129 O138 1.247 . S
C129 O139 1.272 . S
O130 Co126 2.004 . S
O130 C135 1.259 . S
Co131 O132 2.061 . S
Co131 O137 2.052 . S
Co131 O139 2.135 . S
O132 Co131 2.061 . S
O132 C135 1.235 . S
C133 O136 1.238 . S
C133 O137 1.241 . S
C134 O127 1.247 . S
C134 O128 1.261 . S
C135 O130 1.259 . S
C135 O132 1.235 . S
O136 Co126 2.021 . S
O136 C133 1.238 . S
O137 Co131 2.052 . S
O137 C133 1.241 . S
O138 Co126 2.137 . S
O138 C129 1.247 . S
O139 Co126 2.244 . S
O139 C129 1.272 . S
O139 Co131 2.135 . S
Co140 O141 2.216 . S
Co140 O142 2.091 . S
Co140 O144 2.004 . S
Co140 O150 2.021 . S
Co140 O152 2.137 . S
Co140 O153 2.244 . S
O141 Co140 2.216 . S
O141 C148 1.247 . S
O142 Co140 2.091 . S
O142 C148 1.261 . S
C143 O152 1.247 . S
C143 O153 1.272 . S
O144 Co140 2.004 . S
O144 C149 1.259 . S
Co145 O146 2.061 . S
Co145 O151 2.052 . S
Co145 O153 2.135 . S
O146 Co145 2.061 . S
O146 C149 1.235 . S
C147 O150 1.238 . S
C147 O151 1.241 . S
C148 O141 1.247 . S
C148 O142 1.261 . S
C149 O144 1.259 . S
C149 O146 1.235 . S
O150 Co140 2.021 . S
O150 C147 1.238 . S
O151 Co145 2.052 . S
O151 C147 1.241 . S
O152 Co140 2.137 . S
O152 C143 1.247 . S
O153 Co140 2.244 . S
O153 C143 1.272 . S
O153 Co145 2.135 . S
Co154 O155 2.216 . S
Co154 O156 2.091 . S
Co154 O158 2.004 . S
Co154 O164 2.021 . S
Co154 O166 2.137 . S
Co154 O167 2.244 . S
O155 Co154 2.216 . S
O155 C162 1.247 . S
O156 Co154 2.091 . S
O156 C162 1.261 . S
C157 O166 1.247 . S
C157 O167 1.272 . S
O158 Co154 2.004 . S
O158 C163 1.259 . S
Co159 O160 2.061 . S
Co159 O165 2.052 . S
Co159 O167 2.135 . S
O160 Co159 2.061 . S
O160 C163 1.235 . S
C161 O164 1.238 . S
C161 O165 1.241 . S
C162 O155 1.247 . S
C162 O156 1.261 . S
C163 O158 1.259 . S
C163 O160 1.235 . S
O164 Co154 2.021 . S
O164 C161 1.238 . S
O165 Co159 2.052 . S
O165 C161 1.241 . S
O166 Co154 2.137 . S
O166 C157 1.247 . S
O167 Co154 2.244 . S
O167 C157 1.272 . S
O167 Co159 2.135 . S
Co168 O169 2.216 . S
Co168 O170 2.091 . S
Co168 O172 2.004 . S
Co168 O178 2.021 . S
Co168 O180 2.137 . S
Co168 O181 2.244 . S
O169 Co168 2.216 . S
O169 C176 1.247 . S
O170 Co168 2.091 . S
O170 C176 1.261 . S
C171 O180 1.247 . S
C171 O181 1.272 . S
O172 Co168 2.004 . S
O172 C177 1.259 . S
Co173 O174 2.061 . S
Co173 O179 2.052 . S
Co173 O181 2.135 . S
O174 Co173 2.061 . S
O174 C177 1.235 . S
C175 O178 1.238 . S
C175 O179 1.241 . S
C176 O169 1.247 . S
C176 O170 1.261 . S
C177 O172 1.259 . S
C177 O174 1.235 . S
O178 Co168 2.021 . S
O178 C175 1.238 . S
O179 Co173 2.052 . S
O179 C175 1.241 . S
O180 Co168 2.137 . S
O180 C171 1.247 . S
O181 Co168 2.244 . S
O181 C171 1.272 . S
O181 Co173 2.135 . S
Co182 O183 2.216 . S
Co182 O184 2.091 . S
Co182 O186 2.004 . S
Co182 O192 2.021 . S
Co182 O194 2.137 . S
Co182 O195 2.244 . S
O183 Co182 2.216 . S
O183 C190 1.247 . S
O184 Co182 2.091 . S
O184 C190 1.261 . S
C185 O194 1.247 . S
C185 O195 1.272 . S
O186 Co182 2.004 . S
O186 C191 1.259 . S
Co187 O188 2.061 . S
Co187 O193 2.052 . S
Co187 O195 2.135 . S
O188 Co187 2.061 . S
O188 C191 1.235 . S
C189 O192 1.238 . S
C189 O193 1.241 . S
C190 O183 1.247 . S
C190 O184 1.261 . S
C191 O186 1.259 . S
C191 O188 1.235 . S
O192 Co182 2.021 . S
O192 C189 1.238 . S
O193 Co187 2.052 . S
O193 C189 1.241 . S
O194 Co182 2.137 . S
O194 C185 1.247 . S
O195 Co182 2.244 . S
O195 C185 1.272 . S
O195 Co187 2.135 . S
Co196 O197 2.216 . S
Co196 O198 2.091 . S
Co196 O200 2.004 . S
Co196 O206 2.021 . S
Co196 O208 2.137 1_554 S
Co196 O209 2.244 . S
O197 Co196 2.216 . S
O197 C204 1.247 . S
O198 Co196 2.091 . S
O198 C204 1.261 . S
C199 O208 1.247 . S
C199 O209 1.272 1_556 S
O200 Co196 2.004 . S
O200 C205 1.259 . S
Co201 O202 2.061 . S
Co201 O207 2.052 . S
Co201 O209 2.135 . S
O202 Co201 2.061 . S
O202 C205 1.235 . S
C203 O206 1.238 . S
C203 O207 1.241 . S
C204 O197 1.247 . S
C204 O198 1.261 . S
C205 O200 1.259 . S
C205 O202 1.235 . S
O206 Co196 2.021 . S
O206 C203 1.238 . S
O207 Co201 2.052 . S
O207 C203 1.241 . S
O208 Co196 2.137 1_556 S
O208 C199 1.247 . S
O209 Co196 2.244 . S
O209 C199 1.272 1_554 S
O209 Co201 2.135 . S
Co210 O211 2.216 . S
Co210 O212 2.091 . S
Co210 O214 2.004 . S
Co210 O220 2.021 . S
Co210 O222 2.137 . S
Co210 O223 2.244 . S
O211 Co210 2.216 . S
O211 C218 1.247 . S
O212 Co210 2.091 . S
O212 C218 1.261 . S
C213 O222 1.247 . S
C213 O223 1.272 . S
O214 Co210 2.004 . S
O214 C219 1.259 . S
Co215 O216 2.061 . S
Co215 O221 2.052 . S
Co215 O223 2.135 . S
O216 Co215 2.061 . S
O216 C219 1.235 . S
C217 O220 1.238 . S
C217 O221 1.241 . S
C218 O211 1.247 . S
C218 O212 1.261 . S
C219 O214 1.259 . S
C219 O216 1.235 . S
O220 Co210 2.021 . S
O220 C217 1.238 . S
O221 Co215 2.052 . S
O221 C217 1.241 . S
O222 Co210 2.137 . S
O222 C213 1.247 . S
O223 Co210 2.244 . S
O223 C213 1.272 . S
O223 Co215 2.135 . S
Co224 O225 2.216 . S
Co224 O226 2.091 . S
Co224 O228 2.004 . S
Co224 O234 2.021 . S
Co224 O236 2.137 . S
Co224 O237 2.244 . S
O225 Co224 2.216 . S
O225 C232 1.247 . S
O226 Co224 2.091 . S
O226 C232 1.261 . S
C227 O236 1.247 . S
C227 O237 1.272 . S
O228 Co224 2.004 . S
O228 C233 1.259 . S
Co229 O230 2.061 . S
Co229 O235 2.052 . S
Co229 O237 2.135 . S
O230 Co229 2.061 . S
O230 C233 1.235 . S
C231 O234 1.238 . S
C231 O235 1.241 . S
C232 O225 1.247 . S
C232 O226 1.261 . S
C233 O228 1.259 . S
C233 O230 1.235 . S
O234 Co224 2.021 . S
O234 C231 1.238 . S
O235 Co229 2.052 . S
O235 C231 1.241 . S
O236 Co224 2.137 . S
O236 C227 1.247 . S
O237 Co224 2.244 . S
O237 C227 1.272 . S
O237 Co229 2.135 . S
Co238 O239 2.216 . S
Co238 O240 2.091 . S
Co238 O242 2.004 . S
Co238 O248 2.021 . S
Co238 O250 2.137 . S
Co238 O251 2.244 . S
O239 Co238 2.216 . S
O239 C246 1.247 . S
O240 Co238 2.091 . S
O240 C246 1.261 . S
C241 O250 1.247 . S
C241 O251 1.272 . S
O242 Co238 2.004 . S
O242 C247 1.259 . S
Co243 O244 2.061 . S
Co243 O249 2.052 . S
Co243 O251 2.135 . S
O244 Co243 2.061 . S
O244 C247 1.235 . S
C245 O248 1.238 . S
C245 O249 1.241 . S
C246 O239 1.247 . S
C246 O240 1.261 . S
C247 O242 1.259 . S
C247 O244 1.235 . S
O248 Co238 2.021 . S
O248 C245 1.238 . S
O249 Co243 2.052 . S
O249 C245 1.241 . S
O250 Co238 2.137 . S
O250 C241 1.247 . S
O251 Co238 2.244 . S
O251 C241 1.272 . S
O251 Co243 2.135 . S
Co252 O253 2.216 . S
Co252 O254 2.091 . S
Co252 O256 2.004 . S
Co252 O262 2.021 . S
Co252 O264 2.137 1_554 S
Co252 O265 2.244 . S
O253 Co252 2.216 . S
O253 C260 1.247 . S
O254 Co252 2.091 . S
O254 C260 1.261 . S
C255 O264 1.247 . S
C255 O265 1.272 1_556 S
O256 Co252 2.004 . S
O256 C261 1.259 . S
Co257 O258 2.061 . S
Co257 O263 2.052 . S
Co257 O265 2.135 . S
O258 Co257 2.061 . S
O258 C261 1.235 . S
C259 O262 1.238 . S
C259 O263 1.241 . S
C260 O253 1.247 . S
C260 O254 1.261 . S
C261 O256 1.259 . S
C261 O258 1.235 . S
O262 Co252 2.021 . S
O262 C259 1.238 . S
O263 Co257 2.052 . S
O263 C259 1.241 . S
O264 Co252 2.137 1_556 S
O264 C255 1.247 . S
O265 Co252 2.244 . S
O265 C255 1.272 1_554 S
O265 Co257 2.135 . S
Co266 O267 2.216 . S
Co266 O268 2.091 . S
Co266 O270 2.004 . S
Co266 O276 2.021 . S
Co266 O278 2.137 . S
Co266 O279 2.244 . S
O267 Co266 2.216 . S
O267 C274 1.247 . S
O268 Co266 2.091 . S
O268 C274 1.261 . S
C269 O278 1.247 . S
C269 O279 1.272 . S
O270 Co266 2.004 . S
O270 C275 1.259 . S
Co271 O272 2.061 . S
Co271 O277 2.052 . S
Co271 O279 2.135 . S
O272 Co271 2.061 . S
O272 C275 1.235 . S
C273 O276 1.238 . S
C273 O277 1.241 . S
C274 O267 1.247 . S
C274 O268 1.261 . S
C275 O270 1.259 . S
C275 O272 1.235 . S
O276 Co266 2.021 . S
O276 C273 1.238 . S
O277 Co271 2.052 . S
O277 C273 1.241 . S
O278 Co266 2.137 . S
O278 C269 1.247 . S
O279 Co266 2.244 . S
O279 C269 1.272 . S
O279 Co271 2.135 . S
Co280 O281 2.216 . S
Co280 O282 2.091 . S
Co280 O284 2.004 . S
Co280 O290 2.021 . S
Co280 O292 2.137 1_556 S
Co280 O293 2.244 . S
O281 Co280 2.216 . S
O281 C288 1.247 . S
O282 Co280 2.091 . S
O282 C288 1.261 . S
C283 O292 1.247 . S
C283 O293 1.272 1_554 S
O284 Co280 2.004 . S
O284 C289 1.259 . S
Co285 O286 2.061 . S
Co285 O291 2.052 . S
Co285 O293 2.135 . S
O286 Co285 2.061 . S
O286 C289 1.235 . S
C287 O290 1.238 . S
C287 O291 1.241 . S
C288 O281 1.247 . S
C288 O282 1.261 . S
C289 O284 1.259 . S
C289 O286 1.235 . S
O290 Co280 2.021 . S
O290 C287 1.238 . S
O291 Co285 2.052 . S
O291 C287 1.241 . S
O292 Co280 2.137 1_554 S
O292 C283 1.247 . S
O293 Co280 2.244 . S
O293 C283 1.272 1_556 S
O293 Co285 2.135 . S
Co294 O295 2.216 . S
Co294 O296 2.091 . S
Co294 O298 2.004 . S
Co294 O304 2.021 . S
Co294 O306 2.137 . S
Co294 O307 2.244 . S
O295 Co294 2.216 . S
O295 C302 1.247 . S
O296 Co294 2.091 . S
O296 C302 1.261 . S
C297 O306 1.247 . S
C297 O307 1.272 . S
O298 Co294 2.004 . S
O298 C303 1.259 . S
Co299 O300 2.061 . S
Co299 O305 2.052 . S
Co299 O307 2.135 . S
O300 Co299 2.061 . S
O300 C303 1.235 . S
C301 O304 1.238 . S
C301 O305 1.241 . S
C302 O295 1.247 . S
C302 O296 1.261 . S
C303 O298 1.259 . S
C303 O300 1.235 . S
O304 Co294 2.021 . S
O304 C301 1.238 . S
O305 Co299 2.052 . S
O305 C301 1.241 . S
O306 Co294 2.137 . S
O306 C297 1.247 . S
O307 Co294 2.244 . S
O307 C297 1.272 . S
O307 Co299 2.135 . S
Co308 O309 2.216 . S
Co308 O310 2.091 . S
Co308 O312 2.004 . S
Co308 O318 2.021 . S
Co308 O320 2.137 . S
Co308 O321 2.244 . S
O309 Co308 2.216 . S
O309 C316 1.247 . S
O310 Co308 2.091 . S
O310 C316 1.261 . S
C311 O320 1.247 . S
C311 O321 1.272 . S
O312 Co308 2.004 . S
O312 C317 1.259 . S
Co313 O314 2.061 . S
Co313 O319 2.052 . S
Co313 O321 2.135 . S
O314 Co313 2.061 . S
O314 C317 1.235 . S
C315 O318 1.238 . S
C315 O319 1.241 . S
C316 O309 1.247 . S
C316 O310 1.261 . S
C317 O312 1.259 . S
C317 O314 1.235 . S
O318 Co308 2.021 . S
O318 C315 1.238 . S
O319 Co313 2.052 . S
O319 C315 1.241 . S
O320 Co308 2.137 . S
O320 C311 1.247 . S
O321 Co308 2.244 . S
O321 C311 1.272 . S
O321 Co313 2.135 . S
Co322 O323 2.216 . S
Co322 O324 2.091 . S
Co322 O326 2.004 . S
Co322 O332 2.021 . S
Co322 O334 2.137 . S
Co322 O335 2.244 . S
O323 Co322 2.216 . S
O323 C330 1.247 . S
O324 Co322 2.091 . S
O324 C330 1.261 . S
C325 O334 1.247 . S
C325 O335 1.272 . S
O326 Co322 2.004 . S
O326 C331 1.259 . S
Co327 O328 2.061 . S
Co327 O333 2.052 . S
Co327 O335 2.135 . S
O328 Co327 2.061 . S
O328 C331 1.235 . S
C329 O332 1.238 . S
C329 O333 1.241 . S
C330 O323 1.247 . S
C330 O324 1.261 . S
C331 O326 1.259 . S
C331 O328 1.235 . S
O332 Co322 2.021 . S
O332 C329 1.238 . S
O333 Co327 2.052 . S
O333 C329 1.241 . S
O334 Co322 2.137 . S
O334 C325 1.247 . S
O335 Co322 2.244 . S
O335 C325 1.272 . S
O335 Co327 2.135 . S
Co336 O337 2.216 . S
Co336 O338 2.091 . S
Co336 O340 2.004 . S
Co336 O346 2.021 . S
Co336 O348 2.137 . S
Co336 O349 2.244 . S
O337 Co336 2.216 . S
O337 C344 1.247 . S
O338 Co336 2.091 . S
O338 C344 1.261 . S
C339 O348 1.247 . S
C339 O349 1.272 . S
O340 Co336 2.004 . S
O340 C345 1.259 . S
Co341 O342 2.061 . S
Co341 O347 2.052 . S
Co341 O349 2.135 . S
O342 Co341 2.061 . S
O342 C345 1.235 . S
C343 O346 1.238 . S
C343 O347 1.241 . S
C344 O337 1.247 . S
C344 O338 1.261 . S
C345 O340 1.259 . S
C345 O342 1.235 . S
O346 Co336 2.021 . S
O346 C343 1.238 . S
O347 Co341 2.052 . S
O347 C343 1.241 . S
O348 Co336 2.137 . S
O348 C339 1.247 . S
O349 Co336 2.244 . S
O349 C339 1.272 . S
O349 Co341 2.135 . S
Co350 O351 2.216 . S
Co350 O352 2.091 . S
Co350 O354 2.004 . S
Co350 O360 2.021 . S
Co350 O362 2.137 . S
Co350 O363 2.244 . S
O351 Co350 2.216 . S
O351 C358 1.247 . S
O352 Co350 2.091 . S
O352 C358 1.261 . S
C353 O362 1.247 . S
C353 O363 1.272 . S
O354 Co350 2.004 . S
O354 C359 1.259 . S
Co355 O356 2.061 . S
Co355 O361 2.052 . S
Co355 O363 2.135 . S
O356 Co355 2.061 . S
O356 C359 1.235 . S
C357 O360 1.238 . S
C357 O361 1.241 . S
C358 O351 1.247 . S
C358 O352 1.261 . S
C359 O354 1.259 . S
C359 O356 1.235 . S
O360 Co350 2.021 . S
O360 C357 1.238 . S
O361 Co355 2.052 . S
O361 C357 1.241 . S
O362 Co350 2.137 . S
O362 C353 1.247 . S
O363 Co350 2.244 . S
O363 C353 1.272 . S
O363 Co355 2.135 . S
Co364 O365 2.216 . S
Co364 O366 2.091 . S
Co364 O368 2.004 . S
Co364 O374 2.021 . S
Co364 O376 2.137 1_556 S
Co364 O377 2.244 . S
O365 Co364 2.216 . S
O365 C372 1.247 . S
O366 Co364 2.091 . S
O366 C372 1.261 . S
C367 O376 1.247 . S
C367 O377 1.272 1_554 S
O368 Co364 2.004 . S
O368 C373 1.259 . S
Co369 O370 2.061 . S
Co369 O375 2.052 . S
Co369 O377 2.135 . S
O370 Co369 2.061 . S
O370 C373 1.235 . S
C371 O374 1.238 . S
C371 O375 1.241 . S
C372 O365 1.247 . S
C372 O366 1.261 . S
C373 O368 1.259 . S
C373 O370 1.235 . S
O374 Co364 2.021 . S
O374 C371 1.238 . S
O375 Co369 2.052 . S
O375 C371 1.241 . S
O376 Co364 2.137 1_554 S
O376 C367 1.247 . S
O377 Co364 2.244 . S
O377 C367 1.272 1_556 S
O377 Co369 2.135 . S
Co378 O379 2.216 . S
Co378 O380 2.091 . S
Co378 O382 2.004 . S
Co378 O388 2.021 . S
Co378 O390 2.137 . S
Co378 O391 2.244 . S
O379 Co378 2.216 . S
O379 C386 1.247 . S
O380 Co378 2.091 . S
O380 C386 1.261 . S
C381 O390 1.247 . S
C381 O391 1.272 . S
O382 Co378 2.004 . S
O382 C387 1.259 . S
Co383 O384 2.061 . S
Co383 O389 2.052 . S
Co383 O391 2.135 . S
O384 Co383 2.061 . S
O384 C387 1.235 . S
C385 O388 1.238 . S
C385 O389 1.241 . S
C386 O379 1.247 . S
C386 O380 1.261 . S
C387 O382 1.259 . S
C387 O384 1.235 . S
O388 Co378 2.021 . S
O388 C385 1.238 . S
O389 Co383 2.052 . S
O389 C385 1.241 . S
O390 Co378 2.137 . S
O390 C381 1.247 . S
O391 Co378 2.244 . S
O391 C381 1.272 . S
O391 Co383 2.135 . S
Co392 O393 2.216 . S
Co392 O394 2.091 . S
Co392 O396 2.004 . S
Co392 O402 2.021 . S
Co392 O404 2.137 1_554 S
Co392 O405 2.244 . S
O393 Co392 2.216 . S
O393 C400 1.247 . S
O394 Co392 2.091 . S
O394 C400 1.261 . S
C395 O404 1.247 . S
C395 O405 1.272 1_556 S
O396 Co392 2.004 . S
O396 C401 1.259 . S
Co397 O398 2.061 . S
Co397 O403 2.052 . S
Co397 O405 2.135 . S
O398 Co397 2.061 . S
O398 C401 1.235 . S
C399 O402 1.238 . S
C399 O403 1.241 . S
C400 O393 1.247 . S
C400 O394 1.261 . S
C401 O396 1.259 . S
C401 O398 1.235 . S
O402 Co392 2.021 . S
O402 C399 1.238 . S
O403 Co397 2.052 . S
O403 C399 1.241 . S
O404 Co392 2.137 1_556 S
O404 C395 1.247 . S
O405 Co392 2.244 . S
O405 C395 1.272 1_554 S
O405 Co397 2.135 . S
Co406 O407 2.216 . S
Co406 O408 2.091 . S
Co406 O410 2.004 . S
Co406 O416 2.021 . S
Co406 O418 2.137 . S
Co406 O419 2.244 . S
O407 Co406 2.216 . S
O407 C414 1.247 . S
O408 Co406 2.091 . S
O408 C414 1.261 . S
C409 O418 1.247 . S
C409 O419 1.272 . S
O410 Co406 2.004 . S
O410 C415 1.259 . S
Co411 O412 2.061 . S
Co411 O417 2.052 . S
Co411 O419 2.135 . S
O412 Co411 2.061 . S
O412 C415 1.235 . S
C413 O416 1.238 . S
C413 O417 1.241 . S
C414 O407 1.247 . S
C414 O408 1.261 . S
C415 O410 1.259 . S
C415 O412 1.235 . S
O416 Co406 2.021 . S
O416 C413 1.238 . S
O417 Co411 2.052 . S
O417 C413 1.241 . S
O418 Co406 2.137 . S
O418 C409 1.247 . S
O419 Co406 2.244 . S
O419 C409 1.272 . S
O419 Co411 2.135 . S
Co420 O421 2.216 . S
Co420 O422 2.091 . S
Co420 O424 2.004 . S
Co420 O430 2.021 . S
Co420 O432 2.137 . S
Co420 O433 2.244 . S
O421 Co420 2.216 . S
O421 C428 1.247 . S
O422 Co420 2.091 . S
O422 C428 1.261 . S
C423 O432 1.247 . S
C423 O433 1.272 . S
O424 Co420 2.004 . S
O424 C429 1.259 . S
Co425 O426 2.061 . S
Co425 O431 2.052 . S
Co425 O433 2.135 . S
O426 Co425 2.061 . S
O426 C429 1.235 . S
C427 O430 1.238 . S
C427 O431 1.241 . S
C428 O421 1.247 . S
C428 O422 1.261 . S
C429 O424 1.259 . S
C429 O426 1.235 . S
O430 Co420 2.021 . S
O430 C427 1.238 . S
O431 Co425 2.052 . S
O431 C427 1.241 . S
O432 Co420 2.137 . S
O432 C423 1.247 . S
O433 Co420 2.244 . S
O433 C423 1.272 . S
O433 Co425 2.135 . S
Co434 O435 2.216 . S
Co434 O436 2.091 . S
Co434 O438 2.004 . S
Co434 O444 2.021 . S
Co434 O446 2.137 . S
Co434 O447 2.244 . S
O435 Co434 2.216 . S
O435 C442 1.247 . S
O436 Co434 2.091 . S
O436 C442 1.261 . S
C437 O446 1.247 . S
C437 O447 1.272 . S
O438 Co434 2.004 . S
O438 C443 1.259 . S
Co439 O440 2.061 . S
Co439 O445 2.052 . S
Co439 O447 2.135 . S
O440 Co439 2.061 . S
O440 C443 1.235 . S
C441 O444 1.238 . S
C441 O445 1.241 . S
C442 O435 1.247 . S
C442 O436 1.261 . S
C443 O438 1.259 . S
C443 O440 1.235 . S
O444 Co434 2.021 . S
O444 C441 1.238 . S
O445 Co439 2.052 . S
O445 C441 1.241 . S
O446 Co434 2.137 . S
O446 C437 1.247 . S
O447 Co434 2.244 . S
O447 C437 1.272 . S
O447 Co439 2.135 . S
H448 C466 0.951 . S
H449 C468 0.951 . S
H450 C470 0.950 . S
H451 C471 0.950 1_554 S
H452 C473 0.950 . S
H453 C476 0.950 . S
H454 C477 0.950 . S
H455 C479 0.950 . S
H456 C480 0.950 . S
H457 C481 0.951 . S
H458 C483 0.951 . S
H459 C485 0.950 . S
H460 C486 0.950 1_556 S
H461 C488 0.950 . S
H462 C491 0.950 . S
H463 C492 0.950 . S
H464 C494 0.950 . S
H465 C495 0.950 . S
C466 H448 0.951 . S
C466 C467 1.366 . S
C466 C468 1.388 . S
C467 C466 1.366 . S
C467 C471 1.385 . S
C468 H449 0.951 . S
C468 C466 1.388 . S
C468 C469 1.366 . S
C469 C468 1.366 . S
C469 C470 1.414 1_556 S
C469 C472 1.499 . S
C470 H450 0.950 . S
C470 C469 1.414 1_554 S
C470 C471 1.374 1_554 S
C471 H451 0.950 1_556 S
C471 C467 1.385 . S
C471 C470 1.374 1_556 S
C472 C469 1.499 . S
C472 C473 1.373 1_556 S
C472 C474 1.389 . S
C473 H452 0.950 . S
C473 C472 1.373 1_554 S
C473 C489 1.377 . S
C474 C472 1.389 . S
C474 C475 1.524 . S
C474 C488 1.377 . S
C475 C474 1.524 . S
C475 C476 1.397 . S
C475 C480 1.363 . S
C476 H453 0.950 . S
C476 C475 1.397 . S
C476 C477 1.334 . S
C477 H454 0.950 . S
C477 C476 1.334 . S
C477 C478 1.287 . S
C478 C477 1.287 . S
C478 C479 1.524 . S
C478 H497 0.913 . S
C479 H455 0.950 . S
C479 C478 1.524 . S
C479 C480 1.415 . S
C480 H456 0.950 . S
C480 C475 1.363 . S
C480 C479 1.415 . S
C481 H457 0.951 . S
C481 C482 1.366 . S
C481 C483 1.388 . S
C482 C481 1.366 . S
C482 C486 1.385 . S
C483 H458 0.951 . S
C483 C481 1.388 . S
C483 C484 1.366 . S
C484 C483 1.366 . S
C484 C485 1.414 1_554 S
C484 C487 1.499 . S
C485 H459 0.950 . S
C485 C484 1.414 1_556 S
C485 C486 1.374 1_556 S
C486 H460 0.950 1_554 S
C486 C482 1.385 . S
C486 C485 1.374 1_554 S
C487 C484 1.499 . S
C487 C488 1.373 1_554 S
C487 C489 1.389 . S
C488 H461 0.950 . S
C488 C474 1.377 . S
C488 C487 1.373 1_556 S
C489 C473 1.377 . S
C489 C487 1.389 . S
C489 C490 1.524 . S
C490 C489 1.524 . S
C490 C491 1.397 . S
C490 C495 1.363 . S
C491 H462 0.950 . S
C491 C490 1.397 . S
C491 C492 1.334 . S
C492 H463 0.950 . S
C492 C491 1.334 . S
C492 C493 1.287 . S
C493 C492 1.287 . S
C493 C494 1.524 . S
C493 H496 0.999 . S
C494 H464 0.950 . S
C494 C493 1.524 . S
C494 C495 1.415 . S
C495 H465 0.950 . S
C495 C490 1.363 . S
C495 C494 1.415 . S
H496 C493 0.999 . S
H497 C478 0.913 . S
H498 C516 0.951 . S
H499 C518 0.951 . S
H500 C520 0.950 . S
H501 C521 0.950 . S
H502 C523 0.950 . S
H503 C526 0.950 . S
H504 C527 0.950 . S
H505 C529 0.908 1_455 S
H506 C530 0.950 1_545 S
H507 C531 0.951 . S
H508 C533 0.951 . S
H509 C535 0.950 . S
H510 C536 0.950 . S
H511 C538 0.950 . S
H512 C541 0.950 . S
H513 C542 0.950 . S
H514 C544 0.950 . S
H515 C545 0.950 1_565 S
C516 H498 0.951 . S
C516 C517 1.366 . S
C516 C518 1.388 . S
C517 C516 1.366 . S
C517 C521 1.385 . S
C518 H499 0.951 . S
C518 C516 1.388 . S
C518 C519 1.366 . S
C519 C518 1.366 . S
C519 C520 1.414 . S
C519 C522 1.499 . S
C520 H500 0.950 . S
C520 C519 1.414 . S
C520 C521 1.374 . S
C521 H501 0.950 . S
C521 C517 1.385 . S
C521 C520 1.374 . S
C522 C519 1.499 . S
C522 C523 1.373 . S
C522 C524 1.389 . S
C523 H502 0.950 . S
C523 C522 1.373 . S
C523 C539 1.377 1_565 S
C524 C522 1.389 . S
C524 C525 1.524 . S
C524 C538 1.377 1_565 S
C525 C524 1.524 . S
C525 C526 1.397 . S
C525 C530 1.363 . S
C526 H503 0.950 . S
C526 C525 1.397 . S
C526 C527 1.334 . S
C527 H504 0.950 . S
C527 C526 1.334 . S
C527 C528 1.287 . S
C528 C527 1.287 . S
C528 C529 1.524 . S
C528 H547 0.913 . S
C529 H505 0.908 1_655 S
C529 C528 1.524 . S
C529 C530 1.415 . S
C530 H506 0.950 1_565 S
C530 C525 1.363 . S
C530 C529 1.415 . S
C531 H507 0.951 . S
C531 C532 1.366 . S
C531 C533 1.388 . S
C532 C531 1.366 . S
C532 C536 1.385 . S
C533 H508 0.951 . S
C533 C531 1.388 . S
C533 C534 1.366 . S
C534 C533 1.366 . S
C534 C535 1.414 . S
C534 C537 1.499 . S
C535 H509 0.950 . S
C535 C534 1.414 . S
C535 C536 1.374 . S
C536 H510 0.950 . S
C536 C532 1.385 . S
C536 C535 1.374 . S
C537 C534 1.499 . S
C537 C538 1.373 . S
C537 C539 1.389 . S
C538 H511 0.950 . S
C538 C524 1.377 1_545 S
C538 C537 1.373 . S
C539 C523 1.377 1_545 S
C539 C537 1.389 . S
C539 C540 1.524 . S
C540 C539 1.524 . S
C540 C541 1.397 . S
C540 C545 1.363 . S
C541 H512 0.950 . S
C541 C540 1.397 . S
C541 C542 1.334 . S
C542 H513 0.950 . S
C542 C541 1.334 . S
C542 C543 1.287 . S
C543 C542 1.287 . S
C543 C544 1.524 . S
C543 H546 0.999 . S
C544 H514 0.950 . S
C544 C543 1.524 . S
C544 C545 1.415 . S
C545 H515 0.950 1_545 S
C545 C540 1.363 . S
C545 C544 1.415 . S
H546 C543 0.999 . S
H547 C528 0.913 . S
H548 C566 0.951 . S
H549 C568 0.951 . S
H550 C570 0.950 . S
H551 C571 0.950 . S
H552 C573 0.950 . S
H553 C576 0.950 . S
H554 C577 0.950 . S
H555 C579 0.950 . S
H556 C580 0.950 . S
H557 C581 0.951 . S
H558 C583 0.951 . S
H559 C585 0.950 . S
H560 C586 0.950 . S
H561 C588 0.950 . S
H562 C591 0.950 . S
H563 C592 0.950 . S
H564 C594 0.950 . S
H565 C595 0.950 . S
C566 H548 0.951 . S
C566 C567 1.366 . S
C566 C568 1.388 . S
C567 C566 1.366 . S
C567 C571 1.385 . S
C568 H549 0.951 . S
C568 C566 1.388 . S
C568 C569 1.366 . S
C569 C568 1.366 . S
C569 C570 1.414 . S
C569 C572 1.499 . S
C570 H550 0.950 . S
C570 C569 1.414 . S
C570 C571 1.374 . S
C571 H551 0.950 . S
C571 C567 1.385 . S
C571 C570 1.374 . S
C572 C569 1.499 . S
C572 C573 1.373 . S
C572 C574 1.389 . S
C573 H552 0.950 . S
C573 C572 1.373 . S
C573 C589 1.377 . S
C574 C572 1.389 . S
C574 C575 1.524 . S
C574 C588 1.377 . S
C575 C574 1.524 . S
C575 C576 1.397 . S
C575 C580 1.363 . S
C576 H553 0.950 . S
C576 C575 1.397 . S
C576 C577 1.334 . S
C577 H554 0.950 . S
C577 C576 1.334 . S
C577 C578 1.287 . S
C578 C577 1.287 . S
C578 C579 1.524 . S
C578 H597 0.913 . S
C579 H555 0.950 . S
C579 C578 1.524 . S
C579 C580 1.415 . S
C580 H556 0.950 . S
C580 C575 1.363 . S
C580 C579 1.415 . S
C581 H557 0.951 . S
C581 C582 1.366 . S
C581 C583 1.388 . S
C582 C581 1.366 . S
C582 C586 1.385 . S
C583 H558 0.951 . S
C583 C581 1.388 . S
C583 C584 1.366 . S
C584 C583 1.366 . S
C584 C585 1.414 . S
C584 C587 1.499 . S
C585 H559 0.950 . S
C585 C584 1.414 . S
C585 C586 1.374 . S
C586 H560 0.950 . S
C586 C582 1.385 . S
C586 C585 1.374 . S
C587 C584 1.499 . S
C587 C588 1.373 . S
C587 C589 1.389 . S
C588 H561 0.950 . S
C588 C574 1.377 . S
C588 C587 1.373 . S
C589 C573 1.377 . S
C589 C587 1.389 . S
C589 C590 1.524 . S
C590 C589 1.524 . S
C590 C591 1.397 . S
C590 C595 1.363 . S
C591 H562 0.950 . S
C591 C590 1.397 . S
C591 C592 1.334 . S
C592 H563 0.950 . S
C592 C591 1.334 . S
C592 C593 1.287 . S
C593 C592 1.287 . S
C593 C594 1.524 . S
C593 H596 0.999 . S
C594 H564 0.950 . S
C594 C593 1.524 . S
C594 C595 1.415 . S
C595 H565 0.950 . S
C595 C590 1.363 . S
C595 C594 1.415 . S
H596 C593 0.999 . S
H597 C578 0.913 . S
H598 C616 0.951 . S
H599 C618 0.951 . S
H600 C620 0.950 . S
H601 C621 0.950 . S
H602 C623 0.950 . S
H603 C626 0.950 . S
H604 C627 0.950 . S
H605 C629 0.950 . S
H606 C630 0.950 . S
H607 C631 0.951 . S
H608 C633 0.951 . S
H609 C635 0.950 . S
H610 C636 0.950 . S
H611 C638 0.950 . S
H612 C641 0.950 . S
H613 C642 0.950 . S
H614 C644 0.950 . S
H615 C645 0.950 . S
C616 H598 0.951 . S
C616 C617 1.366 . S
C616 C618 1.388 . S
C617 C616 1.366 . S
C617 C621 1.385 . S
C618 H599 0.951 . S
C618 C616 1.388 . S
C618 C619 1.366 . S
C619 C618 1.366 . S
C619 C620 1.414 . S
C619 C622 1.499 . S
C620 H600 0.950 . S
C620 C619 1.414 . S
C620 C621 1.374 . S
C621 H601 0.950 . S
C621 C617 1.385 . S
C621 C620 1.374 . S
C622 C619 1.499 . S
C622 C623 1.373 . S
C622 C624 1.389 . S
C623 H602 0.950 . S
C623 C622 1.373 . S
C623 C639 1.377 1_545 S
C624 C622 1.389 . S
C624 C625 1.524 . S
C624 C638 1.377 1_545 S
C625 C624 1.524 . S
C625 C626 1.397 . S
C625 C630 1.363 . S
C626 H603 0.950 . S
C626 C625 1.397 . S
C626 C627 1.334 . S
C627 H604 0.950 . S
C627 C626 1.334 . S
C627 C628 1.287 . S
C628 C627 1.287 . S
C628 C629 1.524 . S
C628 H647 0.913 . S
C629 H605 0.950 . S
C629 C628 1.524 . S
C629 C630 1.415 . S
C630 H606 0.950 . S
C630 C625 1.363 . S
C630 C629 1.415 . S
C631 H607 0.951 . S
C631 C632 1.366 . S
C631 C633 1.388 . S
C632 C631 1.366 . S
C632 C636 1.385 . S
C633 H608 0.951 . S
C633 C631 1.388 . S
C633 C634 1.366 . S
C634 C633 1.366 . S
C634 C635 1.414 . S
C634 C637 1.499 . S
C635 H609 0.950 . S
C635 C634 1.414 . S
C635 C636 1.374 . S
C636 H610 0.950 . S
C636 C632 1.385 . S
C636 C635 1.374 . S
C637 C634 1.499 . S
C637 C638 1.373 . S
C637 C639 1.389 . S
C638 H611 0.950 . S
C638 C624 1.377 1_565 S
C638 C637 1.373 . S
C639 C623 1.377 1_565 S
C639 C637 1.389 . S
C639 C640 1.524 . S
C640 C639 1.524 . S
C640 C641 1.397 . S
C640 C645 1.363 . S
C641 H612 0.950 . S
C641 C640 1.397 . S
C641 C642 1.334 . S
C642 H613 0.950 . S
C642 C641 1.334 . S
C642 C643 1.287 . S
C643 C642 1.287 . S
C643 C644 1.524 . S
C643 H646 0.999 . S
C644 H614 0.950 . S
C644 C643 1.524 . S
C644 C645 1.415 . S
C645 H615 0.950 . S
C645 C640 1.363 . S
C645 C644 1.415 . S
H646 C643 0.999 . S
H647 C628 0.913 . S
H648 C666 0.951 . S
H649 C668 0.951 . S
H650 C670 0.950 . S
H651 C671 0.950 1_556 S
H652 C673 0.950 . S
H653 C676 0.950 . S
H654 C677 0.950 . S
H655 C679 0.950 . S
H656 C680 0.950 . S
H657 C681 0.951 . S
H658 C683 0.951 . S
H659 C685 0.950 . S
H660 C686 0.950 1_554 S
H661 C688 0.950 . S
H662 C691 0.950 . S
H663 C692 0.950 . S
H664 C694 0.950 . S
H665 C695 0.950 . S
C666 H648 0.951 . S
C666 C667 1.366 . S
C666 C668 1.388 . S
C667 C666 1.366 . S
C667 C671 1.385 . S
C668 H649 0.951 . S
C668 C666 1.388 . S
C668 C669 1.366 . S
C669 C668 1.366 . S
C669 C670 1.414 1_554 S
C669 C672 1.499 . S
C670 H650 0.950 . S
C670 C669 1.414 1_556 S
C670 C671 1.374 1_556 S
C671 H651 0.950 1_554 S
C671 C667 1.385 . S
C671 C670 1.374 1_554 S
C672 C669 1.499 . S
C672 C673 1.373 1_554 S
C672 C674 1.389 . S
C673 H652 0.950 . S
C673 C672 1.373 1_556 S
C673 C689 1.377 . S
C674 C672 1.389 . S
C674 C675 1.524 . S
C674 C688 1.377 . S
C675 C674 1.524 . S
C675 C676 1.397 . S
C675 C680 1.363 . S
C676 H653 0.950 . S
C676 C675 1.397 . S
C676 C677 1.334 . S
C677 H654 0.950 . S
C677 C676 1.334 . S
C677 C678 1.287 . S
C678 C677 1.287 . S
C678 C679 1.524 . S
C678 H697 0.913 . S
C679 H655 0.950 . S
C679 C678 1.524 . S
C679 C680 1.415 . S
C680 H656 0.950 . S
C680 C675 1.363 . S
C680 C679 1.415 . S
C681 H657 0.951 . S
C681 C682 1.366 . S
C681 C683 1.388 . S
C682 C681 1.366 . S
C682 C686 1.385 . S
C683 H658 0.951 . S
C683 C681 1.388 . S
C683 C684 1.366 . S
C684 C683 1.366 . S
C684 C685 1.414 1_556 S
C684 C687 1.499 . S
C685 H659 0.950 . S
C685 C684 1.414 1_554 S
C685 C686 1.374 1_554 S
C686 H660 0.950 1_556 S
C686 C682 1.385 . S
C686 C685 1.374 1_556 S
C687 C684 1.499 . S
C687 C688 1.373 1_556 S
C687 C689 1.389 . S
C688 H661 0.950 . S
C688 C674 1.377 . S
C688 C687 1.373 1_554 S
C689 C673 1.377 . S
C689 C687 1.389 . S
C689 C690 1.524 . S
C690 C689 1.524 . S
C690 C691 1.397 . S
C690 C695 1.363 . S
C691 H662 0.950 . S
C691 C690 1.397 . S
C691 C692 1.334 . S
C692 H663 0.950 . S
C692 C691 1.334 . S
C692 C693 1.287 . S
C693 C692 1.287 . S
C693 C694 1.524 . S
C693 H696 0.999 . S
C694 H664 0.950 . S
C694 C693 1.524 . S
C694 C695 1.415 . S
C695 H665 0.950 . S
C695 C690 1.363 . S
C695 C694 1.415 . S
H696 C693 0.999 . S
H697 C678 0.913 . S
H698 C716 0.951 . S
H699 C718 0.951 . S
H700 C720 0.950 . S
H701 C721 0.950 . S
H702 C723 0.950 . S
H703 C726 0.950 . S
H704 C727 0.950 . S
H705 C729 0.950 . S
H706 C730 0.950 . S
H707 C731 0.951 . S
H708 C733 0.951 . S
H709 C735 0.950 . S
H710 C736 0.950 . S
H711 C738 0.950 . S
H712 C741 0.950 . S
H713 C742 0.950 . S
H714 C744 0.950 . S
H715 C745 0.950 . S
C716 H698 0.951 . S
C716 C717 1.366 . S
C716 C718 1.388 . S
C717 C716 1.366 . S
C717 C721 1.385 . S
C718 H699 0.951 . S
C718 C716 1.388 . S
C718 C719 1.366 . S
C719 C718 1.366 . S
C719 C720 1.414 . S
C719 C722 1.499 . S
C720 H700 0.950 . S
C720 C719 1.414 . S
C720 C721 1.374 . S
C721 H701 0.950 . S
C721 C717 1.385 . S
C721 C720 1.374 . S
C722 C719 1.499 . S
C722 C723 1.373 . S
C722 C724 1.389 . S
C723 H702 0.950 . S
C723 C722 1.373 . S
C723 C739 1.377 1_565 S
C724 C722 1.389 . S
C724 C725 1.524 . S
C724 C738 1.377 1_565 S
C725 C724 1.524 . S
C725 C726 1.397 . S
C725 C730 1.363 . S
C726 H703 0.950 . S
C726 C725 1.397 . S
C726 C727 1.334 . S
C727 H704 0.950 . S
C727 C726 1.334 . S
C727 C728 1.287 . S
C728 C727 1.287 . S
C728 C729 1.524 . S
C728 H747 0.913 . S
C729 H705 0.950 . S
C729 C728 1.524 . S
C729 C730 1.415 . S
C730 H706 0.950 . S
C730 C725 1.363 . S
C730 C729 1.415 . S
C731 H707 0.951 . S
C731 C732 1.366 . S
C731 C733 1.388 . S
C732 C731 1.366 . S
C732 C736 1.385 . S
C733 H708 0.951 . S
C733 C731 1.388 . S
C733 C734 1.366 . S
C734 C733 1.366 . S
C734 C735 1.414 . S
C734 C737 1.499 . S
C735 H709 0.950 . S
C735 C734 1.414 . S
C735 C736 1.374 . S
C736 H710 0.950 . S
C736 C732 1.385 . S
C736 C735 1.374 . S
C737 C734 1.499 . S
C737 C738 1.373 . S
C737 C739 1.389 . S
C738 H711 0.950 . S
C738 C724 1.377 1_545 S
C738 C737 1.373 . S
C739 C723 1.377 1_545 S
C739 C737 1.389 . S
C739 C740 1.524 . S
C740 C739 1.524 . S
C740 C741 1.397 . S
C740 C745 1.363 . S
C741 H712 0.950 . S
C741 C740 1.397 . S
C741 C742 1.334 . S
C742 H713 0.950 . S
C742 C741 1.334 . S
C742 C743 1.287 1_455 S
C743 C742 1.287 1_655 S
C743 C744 1.524 . S
C743 H746 0.999 . S
C744 H714 0.950 . S
C744 C743 1.524 . S
C744 C745 1.415 1_655 S
C745 H715 0.950 . S
C745 C740 1.363 . S
C745 C744 1.415 1_455 S
H746 C743 0.999 . S
H747 C728 0.913 . S
H748 C766 0.951 . S
H749 C768 0.951 . S
H750 C770 0.950 . S
H751 C771 0.950 . S
H752 C773 0.950 . S
H753 C776 0.950 . S
H754 C777 0.950 . S
H755 C779 0.950 . S
H756 C780 0.950 . S
H757 C781 0.951 . S
H758 C783 0.951 . S
H759 C785 0.950 . S
H760 C786 0.950 . S
H761 C788 0.950 . S
H762 C791 0.950 . S
H763 C792 0.950 . S
H764 C794 0.950 . S
H765 C795 0.950 . S
C766 H748 0.951 . S
C766 C767 1.366 . S
C766 C768 1.388 . S
C767 C766 1.366 . S
C767 C771 1.385 . S
C768 H749 0.951 . S
C768 C766 1.388 . S
C768 C769 1.366 . S
C769 C768 1.366 . S
C769 C770 1.414 . S
C769 C772 1.499 . S
C770 H750 0.950 . S
C770 C769 1.414 . S
C770 C771 1.374 . S
C771 H751 0.950 . S
C771 C767 1.385 . S
C771 C770 1.374 . S
C772 C769 1.499 . S
C772 C773 1.373 . S
C772 C774 1.389 . S
C773 H752 0.950 . S
C773 C772 1.373 . S
C773 C789 1.377 . S
C774 C772 1.389 . S
C774 C775 1.524 . S
C774 C788 1.377 . S
C775 C774 1.524 . S
C775 C776 1.397 . S
C775 C780 1.363 . S
C776 H753 0.950 . S
C776 C775 1.397 . S
C776 C777 1.334 . S
C777 H754 0.950 . S
C777 C776 1.334 . S
C777 C778 1.287 . S
C778 C777 1.287 . S
C778 C779 1.524 . S
C778 H797 0.913 . S
C779 H755 0.950 . S
C779 C778 1.524 . S
C779 C780 1.415 . S
C780 H756 0.950 . S
C780 C775 1.363 . S
C780 C779 1.415 . S
C781 H757 0.951 . S
C781 C782 1.366 . S
C781 C783 1.388 . S
C782 C781 1.366 . S
C782 C786 1.385 . S
C783 H758 0.951 . S
C783 C781 1.388 . S
C783 C784 1.366 . S
C784 C783 1.366 . S
C784 C785 1.414 . S
C784 C787 1.499 . S
C785 H759 0.950 . S
C785 C784 1.414 . S
C785 C786 1.374 . S
C786 H760 0.950 . S
C786 C782 1.385 . S
C786 C785 1.374 . S
C787 C784 1.499 . S
C787 C788 1.373 . S
C787 C789 1.389 . S
C788 H761 0.950 . S
C788 C774 1.377 . S
C788 C787 1.373 . S
C789 C773 1.377 . S
C789 C787 1.389 . S
C789 C790 1.524 . S
C790 C789 1.524 . S
C790 C791 1.397 . S
C790 C795 1.363 . S
C791 H762 0.950 . S
C791 C790 1.397 . S
C791 C792 1.334 . S
C792 H763 0.950 . S
C792 C791 1.334 . S
C792 C793 1.287 . S
C793 C792 1.287 . S
C793 C794 1.524 . S
C793 H796 0.999 . S
C794 H764 0.950 . S
C794 C793 1.524 . S
C794 C795 1.415 . S
C795 H765 0.950 . S
C795 C790 1.363 . S
C795 C794 1.415 . S
H796 C793 0.999 . S
H797 C778 0.913 . S
H798 C816 0.951 . S
H799 C818 0.951 . S
H800 C820 0.950 . S
H801 C821 0.950 . S
H802 C823 0.950 . S
H803 C826 0.950 . S
H804 C827 0.950 . S
H805 C829 0.950 . S
H806 C830 0.950 . S
H807 C831 0.951 . S
H808 C833 0.951 . S
H809 C835 0.950 . S
H810 C836 0.950 . S
H811 C838 0.950 . S
H812 C841 0.950 . S
H813 C842 0.950 . S
H814 C844 0.950 . S
H815 C845 0.950 . S
C816 H798 0.951 . S
C816 C817 1.366 . S
C816 C818 1.388 . S
C817 C816 1.366 . S
C817 C821 1.385 . S
C818 H799 0.951 . S
C818 C816 1.388 . S
C818 C819 1.366 . S
C819 C818 1.366 . S
C819 C820 1.414 . S
C819 C822 1.499 . S
C820 H800 0.950 . S
C820 C819 1.414 . S
C820 C821 1.374 . S
C821 H801 0.950 . S
C821 C817 1.385 . S
C821 C820 1.374 . S
C822 C819 1.499 . S
C822 C823 1.373 . S
C822 C824 1.389 . S
C823 H802 0.950 . S
C823 C822 1.373 . S
C823 C839 1.377 1_565 S
C824 C822 1.389 . S
C824 C825 1.524 . S
C824 C838 1.377 1_565 S
C825 C824 1.524 . S
C825 C826 1.397 . S
C825 C830 1.363 . S
C826 H803 0.950 . S
C826 C825 1.397 . S
C826 C827 1.334 . S
C827 H804 0.950 . S
C827 C826 1.334 . S
C827 C828 1.287 . S
C828 C827 1.287 . S
C828 C829 1.524 . S
C828 H847 0.913 . S
C829 H805 0.950 . S
C829 C828 1.524 . S
C829 C830 1.415 . S
C830 H806 0.950 . S
C830 C825 1.363 . S
C830 C829 1.415 . S
C831 H807 0.951 . S
C831 C832 1.366 . S
C831 C833 1.388 . S
C832 C831 1.366 . S
C832 C836 1.385 . S
C833 H808 0.951 . S
C833 C831 1.388 . S
C833 C834 1.366 . S
C834 C833 1.366 . S
C834 C835 1.414 . S
C834 C837 1.499 . S
C835 H809 0.950 . S
C835 C834 1.414 . S
C835 C836 1.374 . S
C836 H810 0.950 . S
C836 C832 1.385 . S
C836 C835 1.374 . S
C837 C834 1.499 . S
C837 C838 1.373 . S
C837 C839 1.389 . S
C838 H811 0.950 . S
C838 C824 1.377 1_545 S
C838 C837 1.373 . S
C839 C823 1.377 1_545 S
C839 C837 1.389 . S
C839 C840 1.524 . S
C840 C839 1.524 . S
C840 C841 1.397 . S
C840 C845 1.363 . S
C841 H812 0.950 . S
C841 C840 1.397 . S
C841 C842 1.334 . S
C842 H813 0.950 . S
C842 C841 1.334 . S
C842 C843 1.287 . S
C843 C842 1.287 . S
C843 C844 1.524 . S
C843 H846 0.999 . S
C844 H814 0.950 . S
C844 C843 1.524 . S
C844 C845 1.415 . S
C845 H815 0.950 . S
C845 C840 1.363 . S
C845 C844 1.415 . S
H846 C843 0.999 . S
H847 C828 0.913 . S
H848 C866 0.951 . S
H849 C868 0.951 . S
H850 C870 0.950 . S
H851 C871 0.950 . S
H852 C873 0.950 . S
H853 C876 0.950 . S
H854 C877 0.950 . S
H855 C879 0.950 . S
H856 C880 0.950 . S
H857 C881 0.951 . S
H858 C883 0.951 . S
H859 C885 0.950 . S
H860 C886 0.950 . S
H861 C888 0.950 . S
H862 C891 0.950 . S
H863 C892 0.950 . S
H864 C894 0.950 . S
H865 C895 0.950 . S
C866 H848 0.951 . S
C866 C867 1.366 . S
C866 C868 1.388 . S
C867 C866 1.366 . S
C867 C871 1.385 . S
C868 H849 0.951 . S
C868 C866 1.388 . S
C868 C869 1.366 . S
C869 C868 1.366 . S
C869 C870 1.414 . S
C869 C872 1.499 . S
C870 H850 0.950 . S
C870 C869 1.414 . S
C870 C871 1.374 . S
C871 H851 0.950 . S
C871 C867 1.385 . S
C871 C870 1.374 . S
C872 C869 1.499 . S
C872 C873 1.373 . S
C872 C874 1.389 . S
C873 H852 0.950 . S
C873 C872 1.373 . S
C873 C889 1.377 . S
C874 C872 1.389 . S
C874 C875 1.524 . S
C874 C888 1.377 . S
C875 C874 1.524 . S
C875 C876 1.397 . S
C875 C880 1.363 . S
C876 H853 0.950 . S
C876 C875 1.397 . S
C876 C877 1.334 . S
C877 H854 0.950 . S
C877 C876 1.334 . S
C877 C878 1.287 . S
C878 C877 1.287 . S
C878 C879 1.524 . S
C878 H897 0.913 . S
C879 H855 0.950 . S
C879 C878 1.524 . S
C879 C880 1.415 . S
C880 H856 0.950 . S
C880 C875 1.363 . S
C880 C879 1.415 . S
C881 H857 0.951 . S
C881 C882 1.366 . S
C881 C883 1.388 . S
C882 C881 1.366 . S
C882 C886 1.385 . S
C883 H858 0.951 . S
C883 C881 1.388 . S
C883 C884 1.366 . S
C884 C883 1.366 . S
C884 C885 1.414 . S
C884 C887 1.499 . S
C885 H859 0.950 . S
C885 C884 1.414 . S
C885 C886 1.374 . S
C886 H860 0.950 . S
C886 C882 1.385 . S
C886 C885 1.374 . S
C887 C884 1.499 . S
C887 C888 1.373 . S
C887 C889 1.389 . S
C888 H861 0.950 . S
C888 C874 1.377 . S
C888 C887 1.373 . S
C889 C873 1.377 . S
C889 C887 1.389 . S
C889 C890 1.524 . S
C890 C889 1.524 . S
C890 C891 1.397 . S
C890 C895 1.363 . S
C891 H862 0.950 . S
C891 C890 1.397 . S
C891 C892 1.334 . S
C892 H863 0.950 . S
C892 C891 1.334 . S
C892 C893 1.287 . S
C893 C892 1.287 . S
C893 C894 1.524 . S
C893 H896 0.999 . S
C894 H864 0.950 . S
C894 C893 1.524 . S
C894 C895 1.415 . S
C895 H865 0.950 . S
C895 C890 1.363 . S
C895 C894 1.415 . S
H896 C893 0.999 . S
H897 C878 0.913 . S
H898 C916 0.951 . S
H899 C918 0.951 . S
H900 C920 0.950 . S
H901 C921 0.950 . S
H902 C923 0.950 . S
H903 C926 0.950 . S
H904 C927 0.950 . S
H905 C929 0.950 . S
H906 C930 0.950 . S
H907 C931 0.951 . S
H908 C933 0.951 . S
H909 C935 0.950 . S
H910 C936 0.950 . S
H911 C938 0.950 . S
H912 C941 0.950 . S
H913 C942 0.950 . S
H914 C944 0.950 . S
H915 C945 0.950 . S
C916 H898 0.951 . S
C916 C917 1.366 . S
C916 C918 1.388 . S
C917 C916 1.366 . S
C917 C921 1.385 . S
C918 H899 0.951 . S
C918 C916 1.388 . S
C918 C919 1.366 . S
C919 C918 1.366 . S
C919 C920 1.414 . S
C919 C922 1.499 . S
C920 H900 0.950 . S
C920 C919 1.414 . S
C920 C921 1.374 . S
C921 H901 0.950 . S
C921 C917 1.385 . S
C921 C920 1.374 . S
C922 C919 1.499 . S
C922 C923 1.373 . S
C922 C924 1.389 . S
C923 H902 0.950 . S
C923 C922 1.373 . S
C923 C939 1.377 . S
C924 C922 1.389 . S
C924 C925 1.524 . S
C924 C938 1.377 . S
C925 C924 1.524 . S
C925 C926 1.397 . S
C925 C930 1.363 . S
C926 H903 0.950 . S
C926 C925 1.397 . S
C926 C927 1.334 . S
C927 H904 0.950 . S
C927 C926 1.334 . S
C927 C928 1.287 . S
C928 C927 1.287 . S
C928 C929 1.524 . S
C928 H947 0.913 . S
C929 H905 0.950 . S
C929 C928 1.524 . S
C929 C930 1.415 . S
C930 H906 0.950 . S
C930 C925 1.363 . S
C930 C929 1.415 . S
C931 H907 0.951 . S
C931 C932 1.366 . S
C931 C933 1.388 . S
C932 C931 1.366 . S
C932 C936 1.385 . S
C933 H908 0.951 . S
C933 C931 1.388 . S
C933 C934 1.366 . S
C934 C933 1.366 . S
C934 C935 1.414 . S
C934 C937 1.499 . S
C935 H909 0.950 . S
C935 C934 1.414 . S
C935 C936 1.374 . S
C936 H910 0.950 . S
C936 C932 1.385 . S
C936 C935 1.374 . S
C937 C934 1.499 . S
C937 C938 1.373 . S
C937 C939 1.389 . S
C938 H911 0.950 . S
C938 C924 1.377 . S
C938 C937 1.373 . S
C939 C923 1.377 . S
C939 C937 1.389 . S
C939 C940 1.524 . S
C940 C939 1.524 . S
C940 C941 1.397 . S
C940 C945 1.363 . S
C941 H912 0.950 . S
C941 C940 1.397 . S
C941 C942 1.334 . S
C942 H913 0.950 . S
C942 C941 1.334 . S
C942 C943 1.287 . S
C943 C942 1.287 . S
C943 C944 1.524 . S
C943 H946 0.999 . S
C944 H914 0.950 . S
C944 C943 1.524 . S
C944 C945 1.415 . S
C945 H915 0.950 . S
C945 C940 1.363 . S
C945 C944 1.415 . S
H946 C943 0.999 . S
H947 C928 0.913 . S
H948 C966 0.951 . S
H949 C968 0.951 1_554 S
H950 C970 0.950 . S
H951 C971 0.950 . S
H952 C973 0.950 . S
H953 C976 0.950 . S
H954 C977 0.950 . S
H955 C979 0.950 . S
H956 C980 0.950 . S
H957 C981 0.951 . S
H958 C983 0.951 1_556 S
H959 C985 0.950 . S
H960 C986 0.950 . S
H961 C988 0.950 . S
H962 C991 0.950 . S
H963 C992 0.950 . S
H964 C994 0.950 . S
H965 C995 0.950 . S
C966 H948 0.951 . S
C966 C967 1.366 . S
C966 C968 1.388 . S
C967 C966 1.366 . S
C967 C971 1.385 . S
C968 H949 0.951 1_556 S
C968 C966 1.388 . S
C968 C969 1.366 . S
C969 C968 1.366 . S
C969 C970 1.414 . S
C969 C972 1.499 . S
C970 H950 0.950 . S
C970 C969 1.414 . S
C970 C971 1.374 . S
C971 H951 0.950 . S
C971 C967 1.385 . S
C971 C970 1.374 . S
C972 C969 1.499 . S
C972 C973 1.373 . S
C972 C974 1.389 1_556 S
C973 H952 0.950 . S
C973 C972 1.373 . S
C973 C989 1.377 . S
C974 C972 1.389 1_554 S
C974 C975 1.524 . S
C974 C988 1.377 . S
C975 C974 1.524 . S
C975 C976 1.397 . S
C975 C980 1.363 . S
C976 H953 0.950 . S
C976 C975 1.397 . S
C976 C977 1.334 . S
C977 H954 0.950 . S
C977 C976 1.334 . S
C977 C978 1.287 . S
C978 C977 1.287 . S
C978 C979 1.524 . S
C978 H997 0.913 . S
C979 H955 0.950 . S
C979 C978 1.524 . S
C979 C980 1.415 . S
C980 H956 0.950 . S
C980 C975 1.363 . S
C980 C979 1.415 . S
C981 H957 0.951 . S
C981 C982 1.366 . S
C981 C983 1.388 . S
C982 C981 1.366 . S
C982 C986 1.385 . S
C983 H958 0.951 1_554 S
C983 C981 1.388 . S
C983 C984 1.366 . S
C984 C983 1.366 . S
C984 C985 1.414 . S
C984 C987 1.499 . S
C985 H959 0.950 . S
C985 C984 1.414 . S
C985 C986 1.374 . S
C986 H960 0.950 . S
C986 C982 1.385 . S
C986 C985 1.374 . S
C987 C984 1.499 . S
C987 C988 1.373 . S
C987 C989 1.389 1_554 S
C988 H961 0.950 . S
C988 C974 1.377 . S
C988 C987 1.373 . S
C989 C973 1.377 . S
C989 C987 1.389 1_556 S
C989 C990 1.524 . S
C990 C989 1.524 . S
C990 C991 1.397 . S
C990 C995 1.363 . S
C991 H962 0.950 . S
C991 C990 1.397 . S
C991 C992 1.334 . S
C992 H963 0.950 . S
C992 C991 1.334 . S
C992 C993 1.287 . S
C993 C992 1.287 . S
C993 C994 1.524 . S
C993 H996 0.999 . S
C994 H964 0.950 . S
C994 C993 1.524 . S
C994 C995 1.415 . S
C995 H965 0.950 . S
C995 C990 1.363 . S
C995 C994 1.415 . S
H996 C993 0.999 . S
H997 C978 0.913 . S
H998 C1016 0.951 . S
H999 C1018 0.951 . S
H1000 C1020 0.950 . S
H1001 C1021 0.950 . S
H1002 C1023 0.950 . S
H1003 C1026 0.950 . S
H1004 C1027 0.950 . S
H1005 C1029 0.950 . S
H1006 C1030 0.950 . S
H1007 C1031 0.951 . S
H1008 C1033 0.951 . S
H1009 C1035 0.950 . S
H1010 C1036 0.950 . S
H1011 C1038 0.950 . S
H1012 C1041 0.950 . S
H1013 C1042 0.950 . S
H1014 C1044 0.950 . S
H1015 C1045 0.950 . S
C1016 H998 0.951 . S
C1016 C1017 1.366 . S
C1016 C1018 1.388 . S
C1017 C1016 1.366 . S
C1017 C1021 1.385 . S
C1018 H999 0.951 . S
C1018 C1016 1.388 . S
C1018 C1019 1.366 . S
C1019 C1018 1.366 . S
C1019 C1020 1.414 . S
C1019 C1022 1.499 . S
C1020 H1000 0.950 . S
C1020 C1019 1.414 . S
C1020 C1021 1.374 . S
C1021 H1001 0.950 . S
C1021 C1017 1.385 . S
C1021 C1020 1.374 . S
C1022 C1019 1.499 . S
C1022 C1023 1.373 . S
C1022 C1024 1.389 . S
C1023 H1002 0.950 . S
C1023 C1022 1.373 . S
C1023 C1039 1.377 . S
C1024 C1022 1.389 . S
C1024 C1025 1.524 . S
C1024 C1038 1.377 . S
C1025 C1024 1.524 . S
C1025 C1026 1.397 . S
C1025 C1030 1.363 . S
C1026 H1003 0.950 . S
C1026 C1025 1.397 . S
C1026 C1027 1.334 . S
C1027 H1004 0.950 . S
C1027 C1026 1.334 . S
C1027 C1028 1.287 . S
C1028 C1027 1.287 . S
C1028 C1029 1.524 . S
C1028 H1047 0.913 . S
C1029 H1005 0.950 . S
C1029 C1028 1.524 . S
C1029 C1030 1.415 . S
C1030 H1006 0.950 . S
C1030 C1025 1.363 . S
C1030 C1029 1.415 . S
C1031 H1007 0.951 . S
C1031 C1032 1.366 . S
C1031 C1033 1.388 . S
C1032 C1031 1.366 . S
C1032 C1036 1.385 . S
C1033 H1008 0.951 . S
C1033 C1031 1.388 . S
C1033 C1034 1.366 . S
C1034 C1033 1.366 . S
C1034 C1035 1.414 . S
C1034 C1037 1.499 . S
C1035 H1009 0.950 . S
C1035 C1034 1.414 . S
C1035 C1036 1.374 . S
C1036 H1010 0.950 . S
C1036 C1032 1.385 . S
C1036 C1035 1.374 . S
C1037 C1034 1.499 . S
C1037 C1038 1.373 . S
C1037 C1039 1.389 . S
C1038 H1011 0.950 . S
C1038 C1024 1.377 . S
C1038 C1037 1.373 . S
C1039 C1023 1.377 . S
C1039 C1037 1.389 . S
C1039 C1040 1.524 . S
C1040 C1039 1.524 . S
C1040 C1041 1.397 . S
C1040 C1045 1.363 . S
C1041 H1012 0.950 . S
C1041 C1040 1.397 . S
C1041 C1042 1.334 . S
C1042 H1013 0.950 . S
C1042 C1041 1.334 . S
C1042 C1043 1.287 . S
C1043 C1042 1.287 . S
C1043 C1044 1.524 . S
C1043 H1046 0.999 . S
C1044 H1014 0.950 . S
C1044 C1043 1.524 . S
C1044 C1045 1.415 . S
C1045 H1015 0.950 . S
C1045 C1040 1.363 . S
C1045 C1044 1.415 . S
H1046 C1043 0.999 . S
H1047 C1028 0.913 . S
H1048 C1066 0.951 . S
H1049 C1068 0.951 . S
H1050 C1070 0.950 . S
H1051 C1071 0.950 . S
H1052 C1073 0.950 . S
H1053 C1076 0.950 . S
H1054 C1077 0.950 . S
H1055 C1079 0.950 . S
H1056 C1080 0.950 . S
H1057 C1081 0.951 . S
H1058 C1083 0.951 . S
H1059 C1085 0.950 . S
H1060 C1086 0.950 . S
H1061 C1088 0.950 . S
H1062 C1091 0.950 . S
H1063 C1092 0.950 . S
H1064 C1094 0.950 . S
H1065 C1095 0.950 . S
C1066 H1048 0.951 . S
C1066 C1067 1.366 . S
C1066 C1068 1.388 . S
C1067 C1066 1.366 . S
C1067 C1071 1.385 . S
C1068 H1049 0.951 . S
C1068 C1066 1.388 . S
C1068 C1069 1.366 . S
C1069 C1068 1.366 . S
C1069 C1070 1.414 . S
C1069 C1072 1.499 . S
C1070 H1050 0.950 . S
C1070 C1069 1.414 . S
C1070 C1071 1.374 . S
C1071 H1051 0.950 . S
C1071 C1067 1.385 . S
C1071 C1070 1.374 . S
C1072 C1069 1.499 . S
C1072 C1073 1.373 . S
C1072 C1074 1.389 . S
C1073 H1052 0.950 . S
C1073 C1072 1.373 . S
C1073 C1089 1.377 . S
C1074 C1072 1.389 . S
C1074 C1075 1.524 . S
C1074 C1088 1.377 . S
C1075 C1074 1.524 . S
C1075 C1076 1.397 . S
C1075 C1080 1.363 . S
C1076 H1053 0.950 . S
C1076 C1075 1.397 . S
C1076 C1077 1.334 . S
C1077 H1054 0.950 . S
C1077 C1076 1.334 . S
C1077 C1078 1.287 . S
C1078 C1077 1.287 . S
C1078 C1079 1.524 . S
C1078 H1097 0.913 . S
C1079 H1055 0.950 . S
C1079 C1078 1.524 . S
C1079 C1080 1.415 . S
C1080 H1056 0.950 . S
C1080 C1075 1.363 . S
C1080 C1079 1.415 . S
C1081 H1057 0.951 . S
C1081 C1082 1.366 . S
C1081 C1083 1.388 . S
C1082 C1081 1.366 . S
C1082 C1086 1.385 . S
C1083 H1058 0.951 . S
C1083 C1081 1.388 . S
C1083 C1084 1.366 . S
C1084 C1083 1.366 . S
C1084 C1085 1.414 . S
C1084 C1087 1.499 . S
C1085 H1059 0.950 . S
C1085 C1084 1.414 . S
C1085 C1086 1.374 . S
C1086 H1060 0.950 . S
C1086 C1082 1.385 . S
C1086 C1085 1.374 . S
C1087 C1084 1.499 . S
C1087 C1088 1.373 . S
C1087 C1089 1.389 . S
C1088 H1061 0.950 . S
C1088 C1074 1.377 . S
C1088 C1087 1.373 . S
C1089 C1073 1.377 . S
C1089 C1087 1.389 . S
C1089 C1090 1.524 . S
C1090 C1089 1.524 . S
C1090 C1091 1.397 . S
C1090 C1095 1.363 . S
C1091 H1062 0.950 . S
C1091 C1090 1.397 . S
C1091 C1092 1.334 . S
C1092 H1063 0.950 . S
C1092 C1091 1.334 . S
C1092 C1093 1.287 . S
C1093 C1092 1.287 . S
C1093 C1094 1.524 . S
C1093 H1096 0.999 . S
C1094 H1064 0.950 . S
C1094 C1093 1.524 . S
C1094 C1095 1.415 . S
C1095 H1065 0.950 . S
C1095 C1090 1.363 . S
C1095 C1094 1.415 . S
H1096 C1093 0.999 . S
H1097 C1078 0.913 . S
H1098 C1116 0.951 . S
H1099 C1118 0.951 . S
H1100 C1120 0.950 . S
H1101 C1121 0.950 . S
H1102 C1123 0.950 . S
H1103 C1126 0.950 . S
H1104 C1127 0.950 . S
H1105 C1129 0.950 . S
H1106 C1130 0.950 . S
H1107 C1131 0.951 . S
H1108 C1133 0.951 . S
H1109 C1135 0.950 . S
H1110 C1136 0.950 . S
H1111 C1138 0.950 . S
H1112 C1141 0.950 . S
H1113 C1142 0.950 . S
H1114 C1144 0.950 . S
H1115 C1145 0.950 . S
C1116 H1098 0.951 . S
C1116 C1117 1.366 . S
C1116 C1118 1.388 . S
C1117 C1116 1.366 . S
C1117 C1121 1.385 . S
C1118 H1099 0.951 . S
C1118 C1116 1.388 . S
C1118 C1119 1.366 . S
C1119 C1118 1.366 . S
C1119 C1120 1.414 . S
C1119 C1122 1.499 . S
C1120 H1100 0.950 . S
C1120 C1119 1.414 . S
C1120 C1121 1.374 . S
C1121 H1101 0.950 . S
C1121 C1117 1.385 . S
C1121 C1120 1.374 . S
C1122 C1119 1.499 . S
C1122 C1123 1.373 . S
C1122 C1124 1.389 . S
C1123 H1102 0.950 . S
C1123 C1122 1.373 . S
C1123 C1139 1.377 . S
C1124 C1122 1.389 . S
C1124 C1125 1.524 . S
C1124 C1138 1.377 . S
C1125 C1124 1.524 . S
C1125 C1126 1.397 . S
C1125 C1130 1.363 . S
C1126 H1103 0.950 . S
C1126 C1125 1.397 . S
C1126 C1127 1.334 . S
C1127 H1104 0.950 . S
C1127 C1126 1.334 . S
C1127 C1128 1.287 . S
C1128 C1127 1.287 . S
C1128 C1129 1.524 . S
C1128 H1147 0.913 . S
C1129 H1105 0.950 . S
C1129 C1128 1.524 . S
C1129 C1130 1.415 . S
C1130 H1106 0.950 . S
C1130 C1125 1.363 . S
C1130 C1129 1.415 . S
C1131 H1107 0.951 . S
C1131 C1132 1.366 . S
C1131 C1133 1.388 . S
C1132 C1131 1.366 . S
C1132 C1136 1.385 . S
C1133 H1108 0.951 . S
C1133 C1131 1.388 . S
C1133 C1134 1.366 . S
C1134 C1133 1.366 . S
C1134 C1135 1.414 . S
C1134 C1137 1.499 . S
C1135 H1109 0.950 . S
C1135 C1134 1.414 . S
C1135 C1136 1.374 . S
C1136 H1110 0.950 . S
C1136 C1132 1.385 . S
C1136 C1135 1.374 . S
C1137 C1134 1.499 . S
C1137 C1138 1.373 . S
C1137 C1139 1.389 . S
C1138 H1111 0.950 . S
C1138 C1124 1.377 . S
C1138 C1137 1.373 . S
C1139 C1123 1.377 . S
C1139 C1137 1.389 . S
C1139 C1140 1.524 . S
C1140 C1139 1.524 . S
C1140 C1141 1.397 . S
C1140 C1145 1.363 . S
C1141 H1112 0.950 . S
C1141 C1140 1.397 . S
C1141 C1142 1.334 . S
C1142 H1113 0.950 . S
C1142 C1141 1.334 . S
C1142 C1143 1.287 . S
C1143 C1142 1.287 . S
C1143 C1144 1.524 . S
C1143 H1146 0.999 . S
C1144 H1114 0.950 . S
C1144 C1143 1.524 . S
C1144 C1145 1.415 . S
C1145 H1115 0.950 . S
C1145 C1140 1.363 . S
C1145 C1144 1.415 . S
H1146 C1143 0.999 . S
H1147 C1128 0.913 . S
H1148 C1166 0.951 1_556 S
H1149 C1168 0.970 . S
H1150 C1170 0.950 . S
H1151 C1171 0.950 . S
H1152 C1173 0.950 . S
H1153 C1176 0.950 . S
H1154 C1177 0.950 . S
H1155 C1179 0.950 . S
H1156 C1180 0.950 . S
H1157 C1181 0.951 1_554 S
H1158 C1183 0.971 . S
H1159 C1185 0.950 . S
H1160 C1186 0.950 . S
H1161 C1188 0.950 . S
H1162 C1191 0.950 . S
H1163 C1192 0.950 . S
H1164 C1194 0.950 . S
H1165 C1195 0.950 . S
C1166 H1148 0.951 1_554 S
C1166 C1167 1.366 . S
C1166 C1168 1.382 1_554 S
C1167 C1166 1.366 . S
C1167 C1171 1.385 . S
C1168 H1149 0.970 . S
C1168 C1166 1.382 1_556 S
C1168 C1169 1.353 1_556 S
C1169 C1168 1.353 1_554 S
C1169 C1170 1.414 . S
C1169 C1172 1.499 . S
C1170 H1150 0.950 . S
C1170 C1169 1.414 . S
C1170 C1171 1.374 . S
C1171 H1151 0.950 . S
C1171 C1167 1.385 . S
C1171 C1170 1.374 . S
C1172 C1169 1.499 . S
C1172 C1173 1.373 . S
C1172 C1174 1.389 1_554 S
C1173 H1152 0.950 . S
C1173 C1172 1.373 . S
C1173 C1189 1.377 . S
C1174 C1172 1.389 1_556 S
C1174 C1175 1.524 . S
C1174 C1188 1.377 . S
C1175 C1174 1.524 . S
C1175 C1176 1.397 . S
C1175 C1180 1.363 . S
C1176 H1153 0.950 . S
C1176 C1175 1.397 . S
C1176 C1177 1.334 . S
C1177 H1154 0.950 . S
C1177 C1176 1.334 . S
C1177 C1178 1.287 . S
C1178 C1177 1.287 . S
C1178 C1179 1.524 . S
C1178 H1197 0.913 . S
C1179 H1155 0.950 . S
C1179 C1178 1.524 . S
C1179 C1180 1.415 . S
C1180 H1156 0.950 . S
C1180 C1175 1.363 . S
C1180 C1179 1.415 . S
C1181 H1157 0.951 1_556 S
C1181 C1182 1.366 . S
C1181 C1183 1.381 1_556 S
C1182 C1181 1.366 . S
C1182 C1186 1.385 . S
C1183 H1158 0.971 . S
C1183 C1181 1.381 1_554 S
C1183 C1184 1.353 1_554 S
C1184 C1183 1.353 1_556 S
C1184 C1185 1.414 . S
C1184 C1187 1.499 . S
C1185 H1159 0.950 . S
C1185 C1184 1.414 . S
C1185 C1186 1.374 . S
C1186 H1160 0.950 . S
C1186 C1182 1.385 . S
C1186 C1185 1.374 . S
C1187 C1184 1.499 . S
C1187 C1188 1.373 . S
C1187 C1189 1.389 1_556 S
C1188 H1161 0.950 . S
C1188 C1174 1.377 . S
C1188 C1187 1.373 . S
C1189 C1173 1.377 . S
C1189 C1187 1.389 1_554 S
C1189 C1190 1.524 . S
C1190 C1189 1.524 . S
C1190 C1191 1.397 . S
C1190 C1195 1.363 . S
C1191 H1162 0.950 . S
C1191 C1190 1.397 . S
C1191 C1192 1.334 . S
C1192 H1163 0.950 . S
C1192 C1191 1.334 . S
C1192 C1193 1.287 . S
C1193 C1192 1.287 . S
C1193 C1194 1.524 . S
C1193 H1196 0.999 . S
C1194 H1164 0.950 . S
C1194 C1193 1.524 . S
C1194 C1195 1.415 . S
C1195 H1165 0.950 . S
C1195 C1190 1.363 . S
C1195 C1194 1.415 . S
H1196 C1193 0.999 . S
H1197 C1178 0.913 . S
H1198 C1216 0.951 . S
H1199 C1218 0.951 . S
H1200 C1220 0.950 . S
H1201 C1221 0.950 . S
H1202 C1223 0.950 . S
H1203 C1226 0.950 . S
H1204 C1227 0.950 . S
H1205 C1229 0.950 . S
H1206 C1230 0.950 . S
H1207 C1231 0.951 . S
H1208 C1233 0.951 . S
H1209 C1235 0.950 . S
H1210 C1236 0.950 . S
H1211 C1238 0.950 . S
H1212 C1241 0.950 . S
H1213 C1242 0.950 . S
H1214 C1244 0.950 . S
H1215 C1245 0.950 . S
C1216 H1198 0.951 . S
C1216 C1217 1.366 . S
C1216 C1218 1.388 . S
C1217 C1216 1.366 . S
C1217 C1221 1.385 . S
C1218 H1199 0.951 . S
C1218 C1216 1.388 . S
C1218 C1219 1.366 . S
C1219 C1218 1.366 . S
C1219 C1220 1.414 . S
C1219 C1222 1.499 . S
C1220 H1200 0.950 . S
C1220 C1219 1.414 . S
C1220 C1221 1.374 . S
C1221 H1201 0.950 . S
C1221 C1217 1.385 . S
C1221 C1220 1.374 . S
C1222 C1219 1.499 . S
C1222 C1223 1.373 . S
C1222 C1224 1.389 . S
C1223 H1202 0.950 . S
C1223 C1222 1.373 . S
C1223 C1239 1.377 . S
C1224 C1222 1.389 . S
C1224 C1225 1.524 . S
C1224 C1238 1.377 . S
C1225 C1224 1.524 . S
C1225 C1226 1.397 . S
C1225 C1230 1.363 . S
C1226 H1203 0.950 . S
C1226 C1225 1.397 . S
C1226 C1227 1.334 . S
C1227 H1204 0.950 . S
C1227 C1226 1.334 . S
C1227 C1228 1.287 . S
C1228 C1227 1.287 . S
C1228 C1229 1.524 . S
C1228 H1247 0.913 . S
C1229 H1205 0.950 . S
C1229 C1228 1.524 . S
C1229 C1230 1.415 . S
C1230 H1206 0.950 . S
C1230 C1225 1.363 . S
C1230 C1229 1.415 . S
C1231 H1207 0.951 . S
C1231 C1232 1.366 . S
C1231 C1233 1.388 . S
C1232 C1231 1.366 . S
C1232 C1236 1.385 . S
C1233 H1208 0.951 . S
C1233 C1231 1.388 . S
C1233 C1234 1.366 . S
C1234 C1233 1.366 . S
C1234 C1235 1.414 . S
C1234 C1237 1.499 . S
C1235 H1209 0.950 . S
C1235 C1234 1.414 . S
C1235 C1236 1.374 . S
C1236 H1210 0.950 . S
C1236 C1232 1.385 . S
C1236 C1235 1.374 . S
C1237 C1234 1.499 . S
C1237 C1238 1.373 . S
C1237 C1239 1.389 . S
C1238 H1211 0.950 . S
C1238 C1224 1.377 . S
C1238 C1237 1.373 . S
C1239 C1223 1.377 . S
C1239 C1237 1.389 . S
C1239 C1240 1.524 . S
C1240 C1239 1.524 . S
C1240 C1241 1.397 . S
C1240 C1245 1.363 . S
C1241 H1212 0.950 . S
C1241 C1240 1.397 . S
C1241 C1242 1.334 . S
C1242 H1213 0.950 . S
C1242 C1241 1.334 . S
C1242 C1243 1.287 . S
C1243 C1242 1.287 . S
C1243 C1244 1.524 . S
C1243 H1246 0.999 . S
C1244 H1214 0.950 . S
C1244 C1243 1.524 . S
C1244 C1245 1.415 . S
C1245 H1215 0.950 . S
C1245 C1240 1.363 . S
C1245 C1244 1.415 . S
H1246 C1243 0.999 . S
H1247 C1228 0.913 . S
H1248 C1266 0.951 . S
H1249 C1268 0.951 . S
H1250 C1270 0.950 . S
H1251 C1271 0.950 . S
H1252 C1273 0.950 . S
H1253 C1276 0.950 . S
H1254 C1277 0.950 . S
H1255 C1279 0.950 . S
H1256 C1280 0.950 . S
H1257 C1281 0.951 . S
H1258 C1283 0.951 . S
H1259 C1285 0.950 . S
H1260 C1286 0.950 . S
H1261 C1288 0.950 . S
H1262 C1291 0.950 . S
H1263 C1292 0.950 . S
H1264 C1294 0.950 . S
H1265 C1295 0.950 . S
C1266 H1248 0.951 . S
C1266 C1267 1.366 . S
C1266 C1268 1.388 . S
C1267 C1266 1.366 . S
C1267 C1271 1.385 . S
C1268 H1249 0.951 . S
C1268 C1266 1.388 . S
C1268 C1269 1.366 . S
C1269 C1268 1.366 . S
C1269 C1270 1.414 . S
C1269 C1272 1.499 . S
C1270 H1250 0.950 . S
C1270 C1269 1.414 . S
C1270 C1271 1.374 . S
C1271 H1251 0.950 . S
C1271 C1267 1.385 . S
C1271 C1270 1.374 . S
C1272 C1269 1.499 . S
C1272 C1273 1.373 . S
C1272 C1274 1.389 . S
C1273 H1252 0.950 . S
C1273 C1272 1.373 . S
C1273 C1289 1.377 . S
C1274 C1272 1.389 . S
C1274 C1275 1.524 . S
C1274 C1288 1.377 . S
C1275 C1274 1.524 . S
C1275 C1276 1.397 . S
C1275 C1280 1.363 . S
C1276 H1253 0.950 . S
C1276 C1275 1.397 . S
C1276 C1277 1.334 . S
C1277 H1254 0.950 . S
C1277 C1276 1.334 . S
C1277 C1278 1.287 . S
C1278 C1277 1.287 . S
C1278 C1279 1.524 . S
C1278 H1297 0.913 . S
C1279 H1255 0.950 . S
C1279 C1278 1.524 . S
C1279 C1280 1.415 . S
C1280 H1256 0.950 . S
C1280 C1275 1.363 . S
C1280 C1279 1.415 . S
C1281 H1257 0.951 . S
C1281 C1282 1.366 . S
C1281 C1283 1.388 . S
C1282 C1281 1.366 . S
C1282 C1286 1.385 . S
C1283 H1258 0.951 . S
C1283 C1281 1.388 . S
C1283 C1284 1.366 . S
C1284 C1283 1.366 . S
C1284 C1285 1.414 . S
C1284 C1287 1.499 . S
C1285 H1259 0.950 . S
C1285 C1284 1.414 . S
C1285 C1286 1.374 . S
C1286 H1260 0.950 . S
C1286 C1282 1.385 . S
C1286 C1285 1.374 . S
C1287 C1284 1.499 . S
C1287 C1288 1.373 . S
C1287 C1289 1.389 . S
C1288 H1261 0.950 . S
C1288 C1274 1.377 . S
C1288 C1287 1.373 . S
C1289 C1273 1.377 . S
C1289 C1287 1.389 . S
C1289 C1290 1.524 . S
C1290 C1289 1.524 . S
C1290 C1291 1.397 . S
C1290 C1295 1.363 . S
C1291 H1262 0.950 . S
C1291 C1290 1.397 . S
C1291 C1292 1.334 . S
C1292 H1263 0.950 . S
C1292 C1291 1.334 . S
C1292 C1293 1.287 . S
C1293 C1292 1.287 . S
C1293 C1294 1.524 . S
C1293 H1296 0.999 . S
C1294 H1264 0.950 . S
C1294 C1293 1.524 . S
C1294 C1295 1.415 . S
C1295 H1265 0.950 . S
C1295 C1290 1.363 . S
C1295 C1294 1.415 . S
H1296 C1293 0.999 . S
H1297 C1278 0.913 . S
H1298 C1316 0.951 . S
H1299 C1318 0.951 . S
H1300 C1320 0.950 . S
H1301 C1321 0.950 . S
H1302 C1323 0.950 . S
H1303 C1326 0.950 . S
H1304 C1327 0.950 . S
H1305 C1329 0.945 1_455 S
H1306 C1330 0.949 . S
H1307 C1331 0.951 . S
H1308 C1333 0.951 . S
H1309 C1335 0.950 . S
H1310 C1336 0.950 . S
H1311 C1338 0.950 . S
H1312 C1341 0.950 . S
H1313 C1342 0.950 . S
H1314 C1344 0.931 1_655 S
H1315 C1345 0.950 . S
C1316 H1298 0.951 . S
C1316 C1317 1.366 . S
C1316 C1318 1.388 . S
C1317 C1316 1.366 . S
C1317 C1321 1.385 . S
C1318 H1299 0.951 . S
C1318 C1316 1.388 . S
C1318 C1319 1.366 . S
C1319 C1318 1.366 . S
C1319 C1320 1.414 . S
C1319 C1322 1.499 1_556 S
C1320 H1300 0.950 . S
C1320 C1319 1.414 . S
C1320 C1321 1.374 . S
C1321 H1301 0.950 . S
C1321 C1317 1.385 . S
C1321 C1320 1.374 . S
C1322 C1319 1.499 1_554 S
C1322 C1323 1.373 . S
C1322 C1324 1.389 1_455 S
C1323 H1302 0.950 . S
C1323 C1322 1.373 . S
C1323 C1339 1.376 1_455 S
C1324 C1322 1.389 1_655 S
C1324 C1325 1.524 . S
C1324 C1338 1.377 . S
C1325 C1324 1.524 . S
C1325 C1326 1.397 1_554 S
C1325 C1330 1.364 1_655 S
C1326 H1303 0.950 . S
C1326 C1325 1.397 1_556 S
C1326 C1327 1.334 . S
C1327 H1304 0.950 . S
C1327 C1326 1.334 . S
C1327 C1328 1.287 . S
C1328 C1327 1.287 . S
C1328 C1329 1.524 1_556 S
C1328 H1347 0.913 . S
C1329 H1305 0.945 1_655 S
C1329 C1328 1.524 1_554 S
C1329 C1330 1.416 1_655 S
C1330 H1306 0.949 . S
C1330 C1325 1.364 1_455 S
C1330 C1329 1.416 1_455 S
C1331 H1307 0.951 . S
C1331 C1332 1.366 . S
C1331 C1333 1.388 . S
C1332 C1331 1.366 . S
C1332 C1336 1.385 . S
C1333 H1308 0.951 . S
C1333 C1331 1.388 . S
C1333 C1334 1.366 . S
C1334 C1333 1.366 . S
C1334 C1335 1.414 . S
C1334 C1337 1.499 . S
C1335 H1309 0.950 . S
C1335 C1334 1.414 . S
C1335 C1336 1.374 . S
C1336 H1310 0.950 . S
C1336 C1332 1.385 . S
C1336 C1335 1.374 . S
C1337 C1334 1.499 . S
C1337 C1338 1.373 . S
C1337 C1339 1.389 . S
C1338 H1311 0.950 . S
C1338 C1324 1.377 . S
C1338 C1337 1.373 . S
C1339 C1323 1.376 1_655 S
C1339 C1337 1.389 . S
C1339 C1340 1.524 1_655 S
C1340 C1339 1.524 1_455 S
C1340 C1341 1.397 . S
C1340 C1345 1.363 1_455 S
C1341 H1312 0.950 . S
C1341 C1340 1.397 . S
C1341 C1342 1.334 . S
C1342 H1313 0.950 . S
C1342 C1341 1.334 . S
C1342 C1343 1.287 . S
C1343 C1342 1.287 . S
C1343 C1344 1.563 . S
C1343 H1346 0.999 . S
C1344 H1314 0.931 1_455 S
C1344 C1343 1.563 . S
C1344 C1345 1.403 1_455 S
C1345 H1315 0.950 . S
C1345 C1340 1.363 1_655 S
C1345 C1344 1.403 1_655 S
H1346 C1343 0.999 . S
H1347 C1328 0.913 . S
H1348 C1366 0.951 . S
H1349 C1368 0.951 . S
H1350 C1370 0.950 . S
H1351 C1371 0.950 . S
H1352 C1373 0.950 . S
H1353 C1376 0.950 . S
H1354 C1377 0.950 . S
H1355 C1379 0.950 . S
H1356 C1380 0.950 . S
H1357 C1381 0.951 . S
H1358 C1383 0.951 . S
H1359 C1385 0.950 . S
H1360 C1386 0.950 . S
H1361 C1388 0.950 . S
H1362 C1391 0.950 . S
H1363 C1392 0.950 . S
H1364 C1394 0.950 . S
H1365 C1395 0.950 . S
C1366 H1348 0.951 . S
C1366 C1367 1.366 . S
C1366 C1368 1.388 . S
C1367 C1366 1.366 . S
C1367 C1371 1.385 . S
C1368 H1349 0.951 . S
C1368 C1366 1.388 . S
C1368 C1369 1.366 . S
C1369 C1368 1.366 . S
C1369 C1370 1.414 . S
C1369 C1372 1.499 . S
C1370 H1350 0.950 . S
C1370 C1369 1.414 . S
C1370 C1371 1.374 . S
C1371 H1351 0.950 . S
C1371 C1367 1.385 . S
C1371 C1370 1.374 . S
C1372 C1369 1.499 . S
C1372 C1373 1.373 . S
C1372 C1374 1.389 . S
C1373 H1352 0.950 . S
C1373 C1372 1.373 . S
C1373 C1389 1.377 . S
C1374 C1372 1.389 . S
C1374 C1375 1.524 . S
C1374 C1388 1.377 . S
C1375 C1374 1.524 . S
C1375 C1376 1.397 . S
C1375 C1380 1.363 . S
C1376 H1353 0.950 . S
C1376 C1375 1.397 . S
C1376 C1377 1.334 . S
C1377 H1354 0.950 . S
C1377 C1376 1.334 . S
C1377 C1378 1.287 . S
C1378 C1377 1.287 . S
C1378 C1379 1.524 . S
C1378 H1397 0.913 . S
C1379 H1355 0.950 . S
C1379 C1378 1.524 . S
C1379 C1380 1.415 . S
C1380 H1356 0.950 . S
C1380 C1375 1.363 . S
C1380 C1379 1.415 . S
C1381 H1357 0.951 . S
C1381 C1382 1.366 . S
C1381 C1383 1.388 . S
C1382 C1381 1.366 . S
C1382 C1386 1.385 . S
C1383 H1358 0.951 . S
C1383 C1381 1.388 . S
C1383 C1384 1.366 . S
C1384 C1383 1.366 . S
C1384 C1385 1.414 . S
C1384 C1387 1.499 . S
C1385 H1359 0.950 . S
C1385 C1384 1.414 . S
C1385 C1386 1.374 . S
C1386 H1360 0.950 . S
C1386 C1382 1.385 . S
C1386 C1385 1.374 . S
C1387 C1384 1.499 . S
C1387 C1388 1.373 . S
C1387 C1389 1.389 . S
C1388 H1361 0.950 . S
C1388 C1374 1.377 . S
C1388 C1387 1.373 . S
C1389 C1373 1.377 . S
C1389 C1387 1.389 . S
C1389 C1390 1.524 . S
C1390 C1389 1.524 . S
C1390 C1391 1.397 . S
C1390 C1395 1.363 . S
C1391 H1362 0.950 . S
C1391 C1390 1.397 . S
C1391 C1392 1.334 . S
C1392 H1363 0.950 . S
C1392 C1391 1.334 . S
C1392 C1393 1.287 . S
C1393 C1392 1.287 . S
C1393 C1394 1.524 . S
C1393 H1396 0.999 . S
C1394 H1364 0.950 . S
C1394 C1393 1.524 . S
C1394 C1395 1.415 . S
C1395 H1365 0.950 . S
C1395 C1390 1.363 . S
C1395 C1394 1.415 . S
H1396 C1393 0.999 . S
H1397 C1378 0.913 . S
H1398 C1416 0.951 . S
H1399 C1418 0.951 . S
H1400 C1420 0.950 . S
H1401 C1421 0.950 . S
H1402 C1423 0.950 . S
H1403 C1426 0.950 . S
H1404 C1427 0.950 . S
H1405 C1429 0.950 . S
H1406 C1430 0.950 . S
H1407 C1431 0.951 . S
H1408 C1433 0.951 . S
H1409 C1435 0.950 . S
H1410 C1436 0.950 . S
H1411 C1438 0.950 . S
H1412 C1441 0.950 . S
H1413 C1442 0.950 . S
H1414 C1444 0.950 . S
H1415 C1445 0.950 . S
C1416 H1398 0.951 . S
C1416 C1417 1.366 . S
C1416 C1418 1.388 . S
C1417 C1416 1.366 . S
C1417 C1421 1.385 . S
C1418 H1399 0.951 . S
C1418 C1416 1.388 . S
C1418 C1419 1.366 . S
C1419 C1418 1.366 . S
C1419 C1420 1.414 . S
C1419 C1422 1.499 . S
C1420 H1400 0.950 . S
C1420 C1419 1.414 . S
C1420 C1421 1.374 . S
C1421 H1401 0.950 . S
C1421 C1417 1.385 . S
C1421 C1420 1.374 . S
C1422 C1419 1.499 . S
C1422 C1423 1.373 . S
C1422 C1424 1.389 . S
C1423 H1402 0.950 . S
C1423 C1422 1.373 . S
C1423 C1439 1.377 . S
C1424 C1422 1.389 . S
C1424 C1425 1.524 . S
C1424 C1438 1.377 . S
C1425 C1424 1.524 . S
C1425 C1426 1.397 . S
C1425 C1430 1.363 . S
C1426 H1403 0.950 . S
C1426 C1425 1.397 . S
C1426 C1427 1.334 . S
C1427 H1404 0.950 . S
C1427 C1426 1.334 . S
C1427 C1428 1.287 . S
C1428 C1427 1.287 . S
C1428 C1429 1.524 . S
C1428 H1447 0.913 . S
C1429 H1405 0.950 . S
C1429 C1428 1.524 . S
C1429 C1430 1.415 . S
C1430 H1406 0.950 . S
C1430 C1425 1.363 . S
C1430 C1429 1.415 . S
C1431 H1407 0.951 . S
C1431 C1432 1.366 . S
C1431 C1433 1.388 . S
C1432 C1431 1.366 . S
C1432 C1436 1.385 . S
C1433 H1408 0.951 . S
C1433 C1431 1.388 . S
C1433 C1434 1.366 . S
C1434 C1433 1.366 . S
C1434 C1435 1.414 . S
C1434 C1437 1.499 . S
C1435 H1409 0.950 . S
C1435 C1434 1.414 . S
C1435 C1436 1.374 . S
C1436 H1410 0.950 . S
C1436 C1432 1.385 . S
C1436 C1435 1.374 . S
C1437 C1434 1.499 . S
C1437 C1438 1.373 . S
C1437 C1439 1.389 . S
C1438 H1411 0.950 . S
C1438 C1424 1.377 . S
C1438 C1437 1.373 . S
C1439 C1423 1.377 . S
C1439 C1437 1.389 . S
C1439 C1440 1.524 . S
C1440 C1439 1.524 . S
C1440 C1441 1.397 . S
C1440 C1445 1.363 . S
C1441 H1412 0.950 . S
C1441 C1440 1.397 . S
C1441 C1442 1.334 . S
C1442 H1413 0.950 . S
C1442 C1441 1.334 . S
C1442 C1443 1.287 . S
C1443 C1442 1.287 . S
C1443 C1444 1.524 . S
C1443 H1446 0.999 . S
C1444 H1414 0.950 . S
C1444 C1443 1.524 . S
C1444 C1445 1.415 . S
C1445 H1415 0.950 . S
C1445 C1440 1.363 . S
C1445 C1444 1.415 . S
H1446 C1443 0.999 . S
H1447 C1428 0.913 . S
H1448 C1466 0.951 . S
H1449 C1468 0.951 . S
H1450 C1470 0.950 . S
H1451 C1471 0.950 . S
H1452 C1473 0.950 . S
H1453 C1476 0.950 . S
H1454 C1477 0.950 . S
H1455 C1479 0.950 . S
H1456 C1480 0.950 . S
H1457 C1481 0.951 . S
H1458 C1483 0.951 . S
H1459 C1485 0.950 . S
H1460 C1486 0.950 . S
H1461 C1488 0.950 . S
H1462 C1491 0.950 . S
H1463 C1492 0.950 . S
H1464 C1494 0.950 . S
H1465 C1495 0.950 . S
C1466 H1448 0.951 . S
C1466 C1467 1.366 . S
C1466 C1468 1.388 . S
C1467 C1466 1.366 . S
C1467 C1471 1.385 . S
C1468 H1449 0.951 . S
C1468 C1466 1.388 . S
C1468 C1469 1.366 . S
C1469 C1468 1.366 . S
C1469 C1470 1.414 . S
C1469 C1472 1.499 . S
C1470 H1450 0.950 . S
C1470 C1469 1.414 . S
C1470 C1471 1.374 . S
C1471 H1451 0.950 . S
C1471 C1467 1.385 . S
C1471 C1470 1.374 . S
C1472 C1469 1.499 . S
C1472 C1473 1.373 . S
C1472 C1474 1.389 . S
C1473 H1452 0.950 . S
C1473 C1472 1.373 . S
C1473 C1489 1.377 . S
C1474 C1472 1.389 . S
C1474 C1475 1.524 . S
C1474 C1488 1.377 . S
C1475 C1474 1.524 . S
C1475 C1476 1.397 . S
C1475 C1480 1.363 . S
C1476 H1453 0.950 . S
C1476 C1475 1.397 . S
C1476 C1477 1.334 . S
C1477 H1454 0.950 . S
C1477 C1476 1.334 . S
C1477 C1478 1.287 . S
C1478 C1477 1.287 . S
C1478 C1479 1.524 . S
C1478 H1497 0.913 . S
C1479 H1455 0.950 . S
C1479 C1478 1.524 . S
C1479 C1480 1.415 . S
C1480 H1456 0.950 . S
C1480 C1475 1.363 . S
C1480 C1479 1.415 . S
C1481 H1457 0.951 . S
C1481 C1482 1.366 . S
C1481 C1483 1.388 . S
C1482 C1481 1.366 . S
C1482 C1486 1.385 . S
C1483 H1458 0.951 . S
C1483 C1481 1.388 . S
C1483 C1484 1.366 . S
C1484 C1483 1.366 . S
C1484 C1485 1.414 . S
C1484 C1487 1.499 . S
C1485 H1459 0.950 . S
C1485 C1484 1.414 . S
C1485 C1486 1.374 . S
C1486 H1460 0.950 . S
C1486 C1482 1.385 . S
C1486 C1485 1.374 . S
C1487 C1484 1.499 . S
C1487 C1488 1.373 . S
C1487 C1489 1.389 . S
C1488 H1461 0.950 . S
C1488 C1474 1.377 . S
C1488 C1487 1.373 . S
C1489 C1473 1.377 . S
C1489 C1487 1.389 . S
C1489 C1490 1.524 . S
C1490 C1489 1.524 . S
C1490 C1491 1.397 . S
C1490 C1495 1.363 . S
C1491 H1462 0.950 . S
C1491 C1490 1.397 . S
C1491 C1492 1.334 . S
C1492 H1463 0.950 . S
C1492 C1491 1.334 . S
C1492 C1493 1.287 . S
C1493 C1492 1.287 . S
C1493 C1494 1.524 . S
C1493 H1496 0.999 . S
C1494 H1464 0.950 . S
C1494 C1493 1.524 . S
C1494 C1495 1.415 . S
C1495 H1465 0.950 . S
C1495 C1490 1.363 . S
C1495 C1494 1.415 . S
H1496 C1493 0.999 . S
H1497 C1478 0.913 . S
H1498 C1516 0.951 . S
H1499 C1518 0.951 . S
H1500 C1520 0.950 . S
H1501 C1521 0.950 . S
H1502 C1523 0.950 . S
H1503 C1526 0.950 . S
H1504 C1527 0.950 . S
H1505 C1529 0.950 . S
H1506 C1530 0.950 . S
H1507 C1531 0.951 . S
H1508 C1533 0.951 . S
H1509 C1535 0.950 . S
H1510 C1536 0.950 . S
H1511 C1538 0.950 . S
H1512 C1541 0.950 . S
H1513 C1542 0.950 . S
H1514 C1544 0.950 . S
H1515 C1545 0.950 . S
C1516 H1498 0.951 . S
C1516 C1517 1.366 . S
C1516 C1518 1.388 . S
C1517 C1516 1.366 . S
C1517 C1521 1.385 . S
C1518 H1499 0.951 . S
C1518 C1516 1.388 . S
C1518 C1519 1.366 . S
C1519 C1518 1.366 . S
C1519 C1520 1.414 . S
C1519 C1522 1.499 1_554 S
C1520 H1500 0.950 . S
C1520 C1519 1.414 . S
C1520 C1521 1.374 . S
C1521 H1501 0.950 . S
C1521 C1517 1.385 . S
C1521 C1520 1.374 . S
C1522 C1519 1.499 1_556 S
C1522 C1523 1.373 . S
C1522 C1524 1.389 . S
C1523 H1502 0.950 . S
C1523 C1522 1.373 . S
C1523 C1539 1.377 . S
C1524 C1522 1.389 . S
C1524 C1525 1.524 . S
C1524 C1538 1.377 . S
C1525 C1524 1.524 . S
C1525 C1526 1.397 . S
C1525 C1530 1.363 . S
C1526 H1503 0.950 . S
C1526 C1525 1.397 . S
C1526 C1527 1.334 . S
C1527 H1504 0.950 . S
C1527 C1526 1.334 . S
C1527 C1528 1.287 . S
C1528 C1527 1.287 . S
C1528 C1529 1.524 . S
C1528 H1547 0.913 . S
C1529 H1505 0.950 . S
C1529 C1528 1.524 . S
C1529 C1530 1.415 . S
C1530 H1506 0.950 . S
C1530 C1525 1.363 . S
C1530 C1529 1.415 . S
C1531 H1507 0.951 . S
C1531 C1532 1.366 . S
C1531 C1533 1.388 . S
C1532 C1531 1.366 . S
C1532 C1536 1.385 . S
C1533 H1508 0.951 . S
C1533 C1531 1.388 . S
C1533 C1534 1.366 . S
C1534 C1533 1.366 . S
C1534 C1535 1.414 . S
C1534 C1537 1.499 . S
C1535 H1509 0.950 . S
C1535 C1534 1.414 . S
C1535 C1536 1.374 . S
C1536 H1510 0.950 . S
C1536 C1532 1.385 . S
C1536 C1535 1.374 . S
C1537 C1534 1.499 . S
C1537 C1538 1.373 . S
C1537 C1539 1.389 . S
C1538 H1511 0.950 . S
C1538 C1524 1.377 . S
C1538 C1537 1.373 . S
C1539 C1523 1.377 . S
C1539 C1537 1.389 . S
C1539 C1540 1.524 . S
C1540 C1539 1.524 . S
C1540 C1541 1.397 . S
C1540 C1545 1.363 . S
C1541 H1512 0.950 . S
C1541 C1540 1.397 . S
C1541 C1542 1.334 . S
C1542 H1513 0.950 . S
C1542 C1541 1.334 . S
C1542 C1543 1.287 . S
C1543 C1542 1.287 . S
C1543 C1544 1.524 . S
C1543 H1546 0.999 . S
C1544 H1514 0.950 . S
C1544 C1543 1.524 . S
C1544 C1545 1.415 . S
C1545 H1515 0.950 . S
C1545 C1540 1.363 . S
C1545 C1544 1.415 . S
H1546 C1543 0.999 . S
H1547 C1528 0.913 . S
H1548 C1566 0.951 . S
H1549 C1568 0.951 . S
H1550 C1570 0.950 . S
H1551 C1571 0.950 . S
H1552 C1573 0.950 . S
H1553 C1576 0.950 . S
H1554 C1577 0.950 . S
H1555 C1579 0.950 . S
H1556 C1580 0.950 . S
H1557 C1581 0.951 . S
H1558 C1583 0.951 . S
H1559 C1585 0.950 . S
H1560 C1586 0.950 . S
H1561 C1588 0.950 . S
H1562 C1591 0.950 . S
H1563 C1592 0.950 . S
H1564 C1594 0.950 . S
H1565 C1595 0.950 . S
C1566 H1548 0.951 . S
C1566 C1567 1.366 . S
C1566 C1568 1.388 . S
C1567 C1566 1.366 . S
C1567 C1571 1.385 . S
C1568 H1549 0.951 . S
C1568 C1566 1.388 . S
C1568 C1569 1.366 . S
C1569 C1568 1.366 . S
C1569 C1570 1.414 . S
C1569 C1572 1.499 . S
C1570 H1550 0.950 . S
C1570 C1569 1.414 . S
C1570 C1571 1.374 . S
C1571 H1551 0.950 . S
C1571 C1567 1.385 . S
C1571 C1570 1.374 . S
C1572 C1569 1.499 . S
C1572 C1573 1.373 . S
C1572 C1574 1.389 . S
C1573 H1552 0.950 . S
C1573 C1572 1.373 . S
C1573 C1589 1.377 . S
C1574 C1572 1.389 . S
C1574 C1575 1.524 . S
C1574 C1588 1.377 . S
C1575 C1574 1.524 . S
C1575 C1576 1.397 . S
C1575 C1580 1.363 . S
C1576 H1553 0.950 . S
C1576 C1575 1.397 . S
C1576 C1577 1.334 . S
C1577 H1554 0.950 . S
C1577 C1576 1.334 . S
C1577 C1578 1.287 . S
C1578 C1577 1.287 . S
C1578 C1579 1.524 . S
C1578 H1597 0.913 . S
C1579 H1555 0.950 . S
C1579 C1578 1.524 . S
C1579 C1580 1.415 . S
C1580 H1556 0.950 . S
C1580 C1575 1.363 . S
C1580 C1579 1.415 . S
C1581 H1557 0.951 . S
C1581 C1582 1.366 . S
C1581 C1583 1.388 . S
C1582 C1581 1.366 . S
C1582 C1586 1.385 . S
C1583 H1558 0.951 . S
C1583 C1581 1.388 . S
C1583 C1584 1.366 . S
C1584 C1583 1.366 . S
C1584 C1585 1.414 . S
C1584 C1587 1.499 . S
C1585 H1559 0.950 . S
C1585 C1584 1.414 . S
C1585 C1586 1.374 . S
C1586 H1560 0.950 . S
C1586 C1582 1.385 . S
C1586 C1585 1.374 . S
C1587 C1584 1.499 . S
C1587 C1588 1.373 . S
C1587 C1589 1.389 . S
C1588 H1561 0.950 . S
C1588 C1574 1.377 . S
C1588 C1587 1.373 . S
C1589 C1573 1.377 . S
C1589 C1587 1.389 . S
C1589 C1590 1.524 . S
C1590 C1589 1.524 . S
C1590 C1591 1.397 . S
C1590 C1595 1.363 . S
C1591 H1562 0.950 . S
C1591 C1590 1.397 . S
C1591 C1592 1.334 . S
C1592 H1563 0.950 . S
C1592 C1591 1.334 . S
C1592 C1593 1.287 . S
C1593 C1592 1.287 . S
C1593 C1594 1.524 . S
C1593 H1596 0.999 . S
C1594 H1564 0.950 . S
C1594 C1593 1.524 . S
C1594 C1595 1.415 . S
C1595 H1565 0.950 . S
C1595 C1590 1.363 . S
C1595 C1594 1.415 . S
H1596 C1593 0.999 . S
H1597 C1578 0.913 . S
H1598 C1616 0.951 . S
H1599 C1618 0.951 1_655 S
H1600 C1620 0.950 . S
H1601 C1621 0.950 . S
H1602 C1623 0.950 . S
H1603 C1626 0.950 . S
H1604 C1627 0.950 . S
H1605 C1629 0.950 . S
H1606 C1630 0.950 . S
H1607 C1631 0.951 . S
H1608 C1633 0.951 1_455 S
H1609 C1635 0.950 . S
H1610 C1636 0.950 . S
H1611 C1638 0.950 . S
H1612 C1641 0.950 . S
H1613 C1642 0.950 . S
H1614 C1644 0.950 . S
H1615 C1645 0.950 . S
C1616 H1598 0.951 . S
C1616 C1617 1.366 . S
C1616 C1618 1.388 . S
C1617 C1616 1.366 . S
C1617 C1621 1.385 . S
C1618 H1599 0.951 1_455 S
C1618 C1616 1.388 . S
C1618 C1619 1.366 . S
C1619 C1618 1.366 . S
C1619 C1620 1.414 . S
C1619 C1622 1.499 . S
C1620 H1600 0.950 . S
C1620 C1619 1.414 . S
C1620 C1621 1.374 . S
C1621 H1601 0.950 . S
C1621 C1617 1.385 . S
C1621 C1620 1.374 . S
C1622 C1619 1.499 . S
C1622 C1623 1.373 . S
C1622 C1624 1.389 1_455 S
C1623 H1602 0.950 . S
C1623 C1622 1.373 . S
C1623 C1639 1.377 . S
C1624 C1622 1.389 1_655 S
C1624 C1625 1.524 . S
C1624 C1638 1.377 . S
C1625 C1624 1.524 . S
C1625 C1626 1.397 1_655 S
C1625 C1630 1.363 . S
C1626 H1603 0.950 . S
C1626 C1625 1.397 1_455 S
C1626 C1627 1.334 . S
C1627 H1604 0.950 . S
C1627 C1626 1.334 . S
C1627 C1628 1.287 1_455 S
C1628 C1627 1.287 1_655 S
C1628 C1629 1.524 . S
C1628 H1647 0.913 . S
C1629 H1605 0.950 . S
C1629 C1628 1.524 . S
C1629 C1630 1.415 . S
C1630 H1606 0.950 . S
C1630 C1625 1.363 . S
C1630 C1629 1.415 . S
C1631 H1607 0.951 . S
C1631 C1632 1.366 . S
C1631 C1633 1.388 . S
C1632 C1631 1.366 . S
C1632 C1636 1.385 . S
C1633 H1608 0.951 1_655 S
C1633 C1631 1.388 . S
C1633 C1634 1.366 . S
C1634 C1633 1.366 . S
C1634 C1635 1.414 . S
C1634 C1637 1.499 . S
C1635 H1609 0.950 . S
C1635 C1634 1.414 . S
C1635 C1636 1.374 . S
C1636 H1610 0.950 . S
C1636 C1632 1.385 . S
C1636 C1635 1.374 . S
C1637 C1634 1.499 . S
C1637 C1638 1.373 . S
C1637 C1639 1.389 1_655 S
C1638 H1611 0.950 . S
C1638 C1624 1.377 . S
C1638 C1637 1.373 . S
C1639 C1623 1.377 . S
C1639 C1637 1.389 1_455 S
C1639 C1640 1.524 . S
C1640 C1639 1.524 . S
C1640 C1641 1.397 1_455 S
C1640 C1645 1.363 . S
C1641 H1612 0.950 . S
C1641 C1640 1.397 1_655 S
C1641 C1642 1.334 . S
C1642 H1613 0.950 . S
C1642 C1641 1.334 . S
C1642 C1643 1.287 1_655 S
C1643 C1642 1.287 1_455 S
C1643 C1644 1.524 . S
C1643 H1646 0.999 . S
C1644 H1614 0.950 . S
C1644 C1643 1.524 . S
C1644 C1645 1.415 . S
C1645 H1615 0.950 . S
C1645 C1640 1.363 . S
C1645 C1644 1.415 . S
H1646 C1643 0.999 . S
H1647 C1628 0.913 . S
H1648 C1666 0.951 . S
H1649 C1668 0.951 . S
H1650 C1670 0.950 . S
H1651 C1671 0.950 . S
H1652 C1673 0.950 . S
H1653 C1676 0.950 . S
H1654 C1677 0.950 . S
H1655 C1679 0.950 . S
H1656 C1680 0.950 . S
H1657 C1681 0.951 . S
H1658 C1683 0.951 . S
H1659 C1685 0.950 . S
H1660 C1686 0.950 . S
H1661 C1688 0.950 . S
H1662 C1691 0.950 . S
H1663 C1692 0.950 . S
H1664 C1694 0.950 . S
H1665 C1695 0.950 . S
C1666 H1648 0.951 . S
C1666 C1667 1.366 . S
C1666 C1668 1.388 . S
C1667 C1666 1.366 . S
C1667 C1671 1.385 . S
C1668 H1649 0.951 . S
C1668 C1666 1.388 . S
C1668 C1669 1.366 . S
C1669 C1668 1.366 . S
C1669 C1670 1.414 . S
C1669 C1672 1.499 . S
C1670 H1650 0.950 . S
C1670 C1669 1.414 . S
C1670 C1671 1.374 . S
C1671 H1651 0.950 . S
C1671 C1667 1.385 . S
C1671 C1670 1.374 . S
C1672 C1669 1.499 . S
C1672 C1673 1.373 . S
C1672 C1674 1.389 . S
C1673 H1652 0.950 . S
C1673 C1672 1.373 . S
C1673 C1689 1.377 . S
C1674 C1672 1.389 . S
C1674 C1675 1.524 . S
C1674 C1688 1.377 . S
C1675 C1674 1.524 . S
C1675 C1676 1.397 . S
C1675 C1680 1.363 . S
C1676 H1653 0.950 . S
C1676 C1675 1.397 . S
C1676 C1677 1.334 . S
C1677 H1654 0.950 . S
C1677 C1676 1.334 . S
C1677 C1678 1.287 . S
C1678 C1677 1.287 . S
C1678 C1679 1.524 . S
C1678 H1697 0.913 . S
C1679 H1655 0.950 . S
C1679 C1678 1.524 . S
C1679 C1680 1.415 . S
C1680 H1656 0.950 . S
C1680 C1675 1.363 . S
C1680 C1679 1.415 . S
C1681 H1657 0.951 . S
C1681 C1682 1.366 . S
C1681 C1683 1.388 . S
C1682 C1681 1.366 . S
C1682 C1686 1.385 . S
C1683 H1658 0.951 . S
C1683 C1681 1.388 . S
C1683 C1684 1.366 . S
C1684 C1683 1.366 . S
C1684 C1685 1.414 . S
C1684 C1687 1.499 . S
C1685 H1659 0.950 . S
C1685 C1684 1.414 . S
C1685 C1686 1.374 . S
C1686 H1660 0.950 . S
C1686 C1682 1.385 . S
C1686 C1685 1.374 . S
C1687 C1684 1.499 . S
C1687 C1688 1.373 . S
C1687 C1689 1.389 . S
C1688 H1661 0.950 . S
C1688 C1674 1.377 . S
C1688 C1687 1.373 . S
C1689 C1673 1.377 . S
C1689 C1687 1.389 . S
C1689 C1690 1.524 . S
C1690 C1689 1.524 . S
C1690 C1691 1.397 . S
C1690 C1695 1.363 . S
C1691 H1662 0.950 . S
C1691 C1690 1.397 . S
C1691 C1692 1.334 . S
C1692 H1663 0.950 . S
C1692 C1691 1.334 . S
C1692 C1693 1.287 . S
C1693 C1692 1.287 . S
C1693 C1694 1.524 . S
C1693 H1696 0.999 . S
C1694 H1664 0.950 . S
C1694 C1693 1.524 . S
C1694 C1695 1.415 . S
C1695 H1665 0.950 . S
C1695 C1690 1.363 . S
C1695 C1694 1.415 . S
H1696 C1693 0.999 . S
H1697 C1678 0.913 . S
H1698 C1716 0.951 . S
H1699 C1718 0.951 1_455 S
H1700 C1720 0.950 . S
H1701 C1721 0.950 . S
H1702 C1723 0.950 . S
H1703 C1726 0.950 . S
H1704 C1727 0.950 1_554 S
H1705 C1729 0.894 1_455 S
H1706 C1730 0.950 . S
H1707 C1731 0.951 . S
H1708 C1733 0.946 1_655 S
H1709 C1735 0.950 . S
H1710 C1736 0.950 . S
H1711 C1738 0.950 . S
H1712 C1741 0.950 . S
H1713 C1742 0.950 . S
H1714 C1744 0.950 1_655 S
H1715 C1745 0.950 . S
C1716 H1698 0.951 . S
C1716 C1717 1.366 . S
C1716 C1718 1.388 . S
C1717 C1716 1.366 . S
C1717 C1721 1.385 . S
C1718 H1699 0.951 1_655 S
C1718 C1716 1.388 . S
C1718 C1719 1.366 . S
C1719 C1718 1.366 . S
C1719 C1720 1.414 . S
C1719 C1722 1.499 1_554 S
C1720 H1700 0.950 . S
C1720 C1719 1.414 . S
C1720 C1721 1.374 . S
C1721 H1701 0.950 . S
C1721 C1717 1.385 . S
C1721 C1720 1.374 . S
C1722 C1719 1.499 1_556 S
C1722 C1723 1.373 . S
C1722 C1724 1.389 . S
C1723 H1702 0.950 . S
C1723 C1722 1.373 . S
C1723 C1739 1.377 1_655 S
C1724 C1722 1.389 . S
C1724 C1725 1.524 . S
C1724 C1738 1.377 1_655 S
C1725 C1724 1.524 . S
C1725 C1726 1.397 . S
C1725 C1730 1.363 1_655 S
C1726 H1703 0.950 . S
C1726 C1725 1.397 . S
C1726 C1727 1.334 . S
C1727 H1704 0.950 1_556 S
C1727 C1726 1.334 . S
C1727 C1728 1.286 1_556 S
C1728 C1727 1.286 1_554 S
C1728 C1729 1.614 1_554 S
C1728 H1747 0.918 . S
C1729 H1705 0.894 1_655 S
C1729 C1728 1.614 1_556 S
C1729 C1730 1.392 1_655 S
C1730 H1706 0.950 . S
C1730 C1725 1.363 1_455 S
C1730 C1729 1.392 1_455 S
C1731 H1707 0.951 . S
C1731 C1732 1.366 . S
C1731 C1733 1.388 . S
C1732 C1731 1.366 . S
C1732 C1736 1.385 . S
C1733 H1708 0.946 1_455 S
C1733 C1731 1.388 . S
C1733 C1734 1.366 . S
C1734 C1733 1.366 . S
C1734 C1735 1.414 . S
C1734 C1737 1.499 . S
C1735 H1709 0.950 . S
C1735 C1734 1.414 . S
C1735 C1736 1.374 . S
C1736 H1710 0.950 . S
C1736 C1732 1.385 . S
C1736 C1735 1.374 . S
C1737 C1734 1.499 . S
C1737 C1738 1.373 . S
C1737 C1739 1.389 . S
C1738 H1711 0.950 . S
C1738 C1724 1.377 1_455 S
C1738 C1737 1.373 . S
C1739 C1723 1.377 1_455 S
C1739 C1737 1.389 . S
C1739 C1740 1.524 . S
C1740 C1739 1.524 . S
C1740 C1741 1.397 . S
C1740 C1745 1.363 1_455 S
C1741 H1712 0.950 . S
C1741 C1740 1.397 . S
C1741 C1742 1.334 . S
C1742 H1713 0.950 . S
C1742 C1741 1.334 . S
C1742 C1743 1.287 . S
C1743 C1742 1.287 . S
C1743 C1744 1.524 . S
C1743 H1746 0.999 . S
C1744 H1714 0.950 1_455 S
C1744 C1743 1.524 . S
C1744 C1745 1.415 1_455 S
C1745 H1715 0.950 . S
C1745 C1740 1.363 1_655 S
C1745 C1744 1.415 1_655 S
H1746 C1743 0.999 . S
H1747 C1728 0.918 . S
H1748 C1766 0.951 . S
H1749 C1768 0.951 . S
H1750 C1770 0.950 . S
H1751 C1771 0.950 . S
H1752 C1773 0.950 . S
H1753 C1776 0.950 . S
H1754 C1777 0.950 . S
H1755 C1779 0.950 . S
H1756 C1780 0.950 . S
H1757 C1781 0.951 . S
H1758 C1783 0.951 . S
H1759 C1785 0.950 . S
H1760 C1786 0.950 . S
H1761 C1788 0.950 . S
H1762 C1791 0.950 . S
H1763 C1792 0.950 . S
H1764 C1794 0.950 . S
H1765 C1795 0.950 . S
C1766 H1748 0.951 . S
C1766 C1767 1.366 . S
C1766 C1768 1.388 . S
C1767 C1766 1.366 . S
C1767 C1771 1.385 . S
C1768 H1749 0.951 . S
C1768 C1766 1.388 . S
C1768 C1769 1.366 . S
C1769 C1768 1.366 . S
C1769 C1770 1.414 . S
C1769 C1772 1.499 . S
C1770 H1750 0.950 . S
C1770 C1769 1.414 . S
C1770 C1771 1.374 . S
C1771 H1751 0.950 . S
C1771 C1767 1.385 . S
C1771 C1770 1.374 . S
C1772 C1769 1.499 . S
C1772 C1773 1.373 . S
C1772 C1774 1.389 . S
C1773 H1752 0.950 . S
C1773 C1772 1.373 . S
C1773 C1789 1.377 . S
C1774 C1772 1.389 . S
C1774 C1775 1.524 . S
C1774 C1788 1.377 . S
C1775 C1774 1.524 . S
C1775 C1776 1.397 . S
C1775 C1780 1.363 . S
C1776 H1753 0.950 . S
C1776 C1775 1.397 . S
C1776 C1777 1.334 . S
C1777 H1754 0.950 . S
C1777 C1776 1.334 . S
C1777 C1778 1.287 . S
C1778 C1777 1.287 . S
C1778 C1779 1.524 . S
C1778 H1797 0.913 . S
C1779 H1755 0.950 . S
C1779 C1778 1.524 . S
C1779 C1780 1.415 . S
C1780 H1756 0.950 . S
C1780 C1775 1.363 . S
C1780 C1779 1.415 . S
C1781 H1757 0.951 . S
C1781 C1782 1.366 . S
C1781 C1783 1.388 . S
C1782 C1781 1.366 . S
C1782 C1786 1.385 . S
C1783 H1758 0.951 . S
C1783 C1781 1.388 . S
C1783 C1784 1.366 . S
C1784 C1783 1.366 . S
C1784 C1785 1.414 . S
C1784 C1787 1.499 . S
C1785 H1759 0.950 . S
C1785 C1784 1.414 . S
C1785 C1786 1.374 . S
C1786 H1760 0.950 . S
C1786 C1782 1.385 . S
C1786 C1785 1.374 . S
C1787 C1784 1.499 . S
C1787 C1788 1.373 . S
C1787 C1789 1.389 . S
C1788 H1761 0.950 . S
C1788 C1774 1.377 . S
C1788 C1787 1.373 . S
C1789 C1773 1.377 . S
C1789 C1787 1.389 . S
C1789 C1790 1.524 . S
C1790 C1789 1.524 . S
C1790 C1791 1.397 . S
C1790 C1795 1.363 . S
C1791 H1762 0.950 . S
C1791 C1790 1.397 . S
C1791 C1792 1.334 . S
C1792 H1763 0.950 . S
C1792 C1791 1.334 . S
C1792 C1793 1.287 . S
C1793 C1792 1.287 . S
C1793 C1794 1.524 . S
C1793 H1796 0.999 . S
C1794 H1764 0.950 . S
C1794 C1793 1.524 . S
C1794 C1795 1.415 . S
C1795 H1765 0.950 . S
C1795 C1790 1.363 . S
C1795 C1794 1.415 . S
H1796 C1793 0.999 . S
H1797 C1778 0.913 . S
H1798 C1816 0.951 . S
H1799 C1818 0.951 . S
H1800 C1820 0.950 . S
H1801 C1821 0.950 . S
H1802 C1823 0.950 . S
H1803 C1826 0.950 . S
H1804 C1827 0.950 . S
H1805 C1829 0.950 . S
H1806 C1830 0.950 . S
H1807 C1831 0.951 . S
H1808 C1833 0.951 . S
H1809 C1835 0.950 . S
H1810 C1836 0.950 . S
H1811 C1838 0.950 . S
H1812 C1841 0.950 . S
H1813 C1842 0.950 . S
H1814 C1844 0.950 . S
H1815 C1845 0.950 . S
C1816 H1798 0.951 . S
C1816 C1817 1.366 . S
C1816 C1818 1.388 . S
C1817 C1816 1.366 . S
C1817 C1821 1.385 . S
C1818 H1799 0.951 . S
C1818 C1816 1.388 . S
C1818 C1819 1.366 . S
C1819 C1818 1.366 . S
C1819 C1820 1.414 . S
C1819 C1822 1.499 . S
C1820 H1800 0.950 . S
C1820 C1819 1.414 . S
C1820 C1821 1.374 . S
C1821 H1801 0.950 . S
C1821 C1817 1.385 . S
C1821 C1820 1.374 . S
C1822 C1819 1.499 . S
C1822 C1823 1.373 . S
C1822 C1824 1.389 . S
C1823 H1802 0.950 . S
C1823 C1822 1.373 . S
C1823 C1839 1.377 . S
C1824 C1822 1.389 . S
C1824 C1825 1.524 . S
C1824 C1838 1.377 . S
C1825 C1824 1.524 . S
C1825 C1826 1.397 . S
C1825 C1830 1.363 . S
C1826 H1803 0.950 . S
C1826 C1825 1.397 . S
C1826 C1827 1.334 . S
C1827 H1804 0.950 . S
C1827 C1826 1.334 . S
C1827 C1828 1.287 . S
C1828 C1827 1.287 . S
C1828 C1829 1.524 . S
C1828 H1847 0.913 . S
C1829 H1805 0.950 . S
C1829 C1828 1.524 . S
C1829 C1830 1.415 . S
C1830 H1806 0.950 . S
C1830 C1825 1.363 . S
C1830 C1829 1.415 . S
C1831 H1807 0.951 . S
C1831 C1832 1.366 . S
C1831 C1833 1.388 . S
C1832 C1831 1.366 . S
C1832 C1836 1.385 . S
C1833 H1808 0.951 . S
C1833 C1831 1.388 . S
C1833 C1834 1.366 . S
C1834 C1833 1.366 . S
C1834 C1835 1.414 . S
C1834 C1837 1.499 . S
C1835 H1809 0.950 . S
C1835 C1834 1.414 . S
C1835 C1836 1.374 . S
C1836 H1810 0.950 . S
C1836 C1832 1.385 . S
C1836 C1835 1.374 . S
C1837 C1834 1.499 . S
C1837 C1838 1.373 . S
C1837 C1839 1.389 . S
C1838 H1811 0.950 . S
C1838 C1824 1.377 . S
C1838 C1837 1.373 . S
C1839 C1823 1.377 . S
C1839 C1837 1.389 . S
C1839 C1840 1.524 . S
C1840 C1839 1.524 . S
C1840 C1841 1.397 . S
C1840 C1845 1.363 . S
C1841 H1812 0.950 . S
C1841 C1840 1.397 . S
C1841 C1842 1.334 . S
C1842 H1813 0.950 . S
C1842 C1841 1.334 . S
C1842 C1843 1.287 . S
C1843 C1842 1.287 . S
C1843 C1844 1.524 . S
C1843 H1846 0.999 . S
C1844 H1814 0.950 . S
C1844 C1843 1.524 . S
C1844 C1845 1.415 . S
C1845 H1815 0.950 . S
C1845 C1840 1.363 . S
C1845 C1844 1.415 . S
H1846 C1843 0.999 . S
H1847 C1828 0.913 . S
H1848 C1866 0.951 . S
H1849 C1868 0.951 . S
H1850 C1870 0.950 . S
H1851 C1871 0.950 . S
H1852 C1873 0.950 . S
H1853 C1876 0.950 . S
H1854 C1877 0.950 . S
H1855 C1879 0.950 . S
H1856 C1880 0.950 . S
H1857 C1881 0.951 . S
H1858 C1883 0.951 . S
H1859 C1885 0.950 . S
H1860 C1886 0.950 . S
H1861 C1888 0.950 . S
H1862 C1891 0.950 . S
H1863 C1892 0.950 . S
H1864 C1894 0.950 . S
H1865 C1895 0.950 . S
C1866 H1848 0.951 . S
C1866 C1867 1.366 . S
C1866 C1868 1.388 . S
C1867 C1866 1.366 . S
C1867 C1871 1.385 . S
C1868 H1849 0.951 . S
C1868 C1866 1.388 . S
C1868 C1869 1.366 . S
C1869 C1868 1.366 . S
C1869 C1870 1.414 . S
C1869 C1872 1.499 . S
C1870 H1850 0.950 . S
C1870 C1869 1.414 . S
C1870 C1871 1.374 . S
C1871 H1851 0.950 . S
C1871 C1867 1.385 . S
C1871 C1870 1.374 . S
C1872 C1869 1.499 . S
C1872 C1873 1.373 . S
C1872 C1874 1.389 . S
C1873 H1852 0.950 . S
C1873 C1872 1.373 . S
C1873 C1889 1.377 . S
C1874 C1872 1.389 . S
C1874 C1875 1.524 . S
C1874 C1888 1.377 . S
C1875 C1874 1.524 . S
C1875 C1876 1.397 . S
C1875 C1880 1.363 . S
C1876 H1853 0.950 . S
C1876 C1875 1.397 . S
C1876 C1877 1.334 . S
C1877 H1854 0.950 . S
C1877 C1876 1.334 . S
C1877 C1878 1.287 . S
C1878 C1877 1.287 . S
C1878 C1879 1.524 . S
C1878 H1897 0.913 . S
C1879 H1855 0.950 . S
C1879 C1878 1.524 . S
C1879 C1880 1.415 . S
C1880 H1856 0.950 . S
C1880 C1875 1.363 . S
C1880 C1879 1.415 . S
C1881 H1857 0.951 . S
C1881 C1882 1.366 . S
C1881 C1883 1.388 . S
C1882 C1881 1.366 . S
C1882 C1886 1.385 . S
C1883 H1858 0.951 . S
C1883 C1881 1.388 . S
C1883 C1884 1.366 . S
C1884 C1883 1.366 . S
C1884 C1885 1.414 . S
C1884 C1887 1.499 . S
C1885 H1859 0.950 . S
C1885 C1884 1.414 . S
C1885 C1886 1.374 . S
C1886 H1860 0.950 . S
C1886 C1882 1.385 . S
C1886 C1885 1.374 . S
C1887 C1884 1.499 . S
C1887 C1888 1.373 . S
C1887 C1889 1.389 . S
C1888 H1861 0.950 . S
C1888 C1874 1.377 . S
C1888 C1887 1.373 . S
C1889 C1873 1.377 . S
C1889 C1887 1.389 . S
C1889 C1890 1.524 . S
C1890 C1889 1.524 . S
C1890 C1891 1.397 . S
C1890 C1895 1.363 . S
C1891 H1862 0.950 . S
C1891 C1890 1.397 . S
C1891 C1892 1.334 . S
C1892 H1863 0.950 . S
C1892 C1891 1.334 . S
C1892 C1893 1.287 . S
C1893 C1892 1.287 . S
C1893 C1894 1.524 . S
C1893 H1896 0.999 . S
C1894 H1864 0.950 . S
C1894 C1893 1.524 . S
C1894 C1895 1.415 . S
C1895 H1865 0.950 . S
C1895 C1890 1.363 . S
C1895 C1894 1.415 . S
H1896 C1893 0.999 . S
H1897 C1878 0.913 . S
H1898 C1916 0.951 . S
H1899 C1918 0.951 . S
H1900 C1920 0.950 . S
H1901 C1921 0.950 . S
H1902 C1923 0.950 . S
H1903 C1926 0.950 . S
H1904 C1927 0.950 . S
H1905 C1929 0.950 . S
H1906 C1930 0.950 . S
H1907 C1931 0.951 . S
H1908 C1933 0.951 . S
H1909 C1935 0.950 . S
H1910 C1936 0.950 . S
H1911 C1938 0.950 . S
H1912 C1941 0.950 . S
H1913 C1942 0.950 . S
H1914 C1944 0.950 . S
H1915 C1945 0.950 . S
C1916 H1898 0.951 . S
C1916 C1917 1.366 . S
C1916 C1918 1.388 . S
C1917 C1916 1.366 . S
C1917 C1921 1.385 . S
C1918 H1899 0.951 . S
C1918 C1916 1.388 . S
C1918 C1919 1.366 . S
C1919 C1918 1.366 . S
C1919 C1920 1.414 . S
C1919 C1922 1.499 . S
C1920 H1900 0.950 . S
C1920 C1919 1.414 . S
C1920 C1921 1.374 . S
C1921 H1901 0.950 . S
C1921 C1917 1.385 . S
C1921 C1920 1.374 . S
C1922 C1919 1.499 . S
C1922 C1923 1.373 . S
C1922 C1924 1.389 . S
C1923 H1902 0.950 . S
C1923 C1922 1.373 . S
C1923 C1939 1.377 . S
C1924 C1922 1.389 . S
C1924 C1925 1.524 . S
C1924 C1938 1.377 . S
C1925 C1924 1.524 . S
C1925 C1926 1.397 . S
C1925 C1930 1.363 . S
C1926 H1903 0.950 . S
C1926 C1925 1.397 . S
C1926 C1927 1.334 . S
C1927 H1904 0.950 . S
C1927 C1926 1.334 . S
C1927 C1928 1.287 . S
C1928 C1927 1.287 . S
C1928 C1929 1.524 . S
C1928 H1947 0.913 . S
C1929 H1905 0.950 . S
C1929 C1928 1.524 . S
C1929 C1930 1.415 . S
C1930 H1906 0.950 . S
C1930 C1925 1.363 . S
C1930 C1929 1.415 . S
C1931 H1907 0.951 . S
C1931 C1932 1.366 . S
C1931 C1933 1.388 . S
C1932 C1931 1.366 . S
C1932 C1936 1.385 . S
C1933 H1908 0.951 . S
C1933 C1931 1.388 . S
C1933 C1934 1.366 . S
C1934 C1933 1.366 . S
C1934 C1935 1.414 . S
C1934 C1937 1.499 1_556 S
C1935 H1909 0.950 . S
C1935 C1934 1.414 . S
C1935 C1936 1.374 . S
C1936 H1910 0.950 . S
C1936 C1932 1.385 . S
C1936 C1935 1.374 . S
C1937 C1934 1.499 1_554 S
C1937 C1938 1.373 . S
C1937 C1939 1.389 . S
C1938 H1911 0.950 . S
C1938 C1924 1.377 . S
C1938 C1937 1.373 . S
C1939 C1923 1.377 . S
C1939 C1937 1.389 . S
C1939 C1940 1.524 . S
C1940 C1939 1.524 . S
C1940 C1941 1.397 1_554 S
C1940 C1945 1.363 . S
C1941 H1912 0.950 . S
C1941 C1940 1.397 1_556 S
C1941 C1942 1.334 . S
C1942 H1913 0.950 . S
C1942 C1941 1.334 . S
C1942 C1943 1.287 1_556 S
C1943 C1942 1.287 1_554 S
C1943 C1944 1.524 . S
C1943 H1946 0.999 1_554 S
C1944 H1914 0.950 . S
C1944 C1943 1.524 . S
C1944 C1945 1.415 . S
C1945 H1915 0.950 . S
C1945 C1940 1.363 . S
C1945 C1944 1.415 . S
H1946 C1943 0.999 1_556 S
H1947 C1928 0.913 . S
H1948 C1966 0.951 . S
H1949 C1968 0.951 . S
H1950 C1970 0.950 . S
H1951 C1971 0.950 . S
H1952 C1973 0.950 . S
H1953 C1976 0.950 . S
H1954 C1977 0.950 . S
H1955 C1979 0.950 . S
H1956 C1980 0.950 . S
H1957 C1981 0.951 . S
H1958 C1983 0.951 . S
H1959 C1985 0.950 . S
H1960 C1986 0.950 . S
H1961 C1988 0.950 . S
H1962 C1991 0.950 . S
H1963 C1992 0.950 . S
H1964 C1994 0.950 . S
H1965 C1995 0.950 . S
C1966 H1948 0.951 . S
C1966 C1967 1.366 . S
C1966 C1968 1.388 . S
C1967 C1966 1.366 . S
C1967 C1971 1.385 . S
C1968 H1949 0.951 . S
C1968 C1966 1.388 . S
C1968 C1969 1.366 . S
C1969 C1968 1.366 . S
C1969 C1970 1.414 . S
C1969 C1972 1.499 . S
C1970 H1950 0.950 . S
C1970 C1969 1.414 . S
C1970 C1971 1.374 . S
C1971 H1951 0.950 . S
C1971 C1967 1.385 . S
C1971 C1970 1.374 . S
C1972 C1969 1.499 . S
C1972 C1973 1.373 . S
C1972 C1974 1.389 . S
C1973 H1952 0.950 . S
C1973 C1972 1.373 . S
C1973 C1989 1.377 . S
C1974 C1972 1.389 . S
C1974 C1975 1.524 . S
C1974 C1988 1.377 . S
C1975 C1974 1.524 . S
C1975 C1976 1.397 . S
C1975 C1980 1.363 . S
C1976 H1953 0.950 . S
C1976 C1975 1.397 . S
C1976 C1977 1.334 . S
C1977 H1954 0.950 . S
C1977 C1976 1.334 . S
C1977 C1978 1.287 . S
C1978 C1977 1.287 . S
C1978 C1979 1.524 . S
C1978 H1997 0.913 . S
C1979 H1955 0.950 . S
C1979 C1978 1.524 . S
C1979 C1980 1.415 . S
C1980 H1956 0.950 . S
C1980 C1975 1.363 . S
C1980 C1979 1.415 . S
C1981 H1957 0.951 . S
C1981 C1982 1.366 . S
C1981 C1983 1.388 . S
C1982 C1981 1.366 . S
C1982 C1986 1.385 . S
C1983 H1958 0.951 . S
C1983 C1981 1.388 . S
C1983 C1984 1.366 . S
C1984 C1983 1.366 . S
C1984 C1985 1.414 . S
C1984 C1987 1.499 . S
C1985 H1959 0.950 . S
C1985 C1984 1.414 . S
C1985 C1986 1.374 . S
C1986 H1960 0.950 . S
C1986 C1982 1.385 . S
C1986 C1985 1.374 . S
C1987 C1984 1.499 . S
C1987 C1988 1.373 . S
C1987 C1989 1.389 . S
C1988 H1961 0.950 . S
C1988 C1974 1.377 . S
C1988 C1987 1.373 . S
C1989 C1973 1.377 . S
C1989 C1987 1.389 . S
C1989 C1990 1.524 . S
C1990 C1989 1.524 . S
C1990 C1991 1.397 . S
C1990 C1995 1.363 . S
C1991 H1962 0.950 . S
C1991 C1990 1.397 . S
C1991 C1992 1.334 . S
C1992 H1963 0.950 . S
C1992 C1991 1.334 . S
C1992 C1993 1.287 . S
C1993 C1992 1.287 . S
C1993 C1994 1.524 . S
C1993 H1996 0.999 . S
C1994 H1964 0.950 . S
C1994 C1993 1.524 . S
C1994 C1995 1.415 . S
C1995 H1965 0.950 . S
C1995 C1990 1.363 . S
C1995 C1994 1.415 . S
H1996 C1993 0.999 . S
H1997 C1978 0.913 . S
H1998 C2016 0.951 . S
H1999 C2018 0.951 . S
H2000 C2020 0.950 1_455 S
H2001 C2021 0.950 . S
H2002 C2023 0.950 . S
H2003 C2026 0.950 . S
H2004 C2027 0.950 . S
H2005 C2029 0.950 . S
H2006 C2030 0.950 . S
H2007 C2031 0.951 . S
H2008 C2033 0.951 . S
H2009 C2035 0.950 1_655 S
H2010 C2036 0.950 . S
H2011 C2038 0.950 . S
H2012 C2041 0.950 . S
H2013 C2042 0.950 . S
H2014 C2044 0.950 . S
H2015 C2045 0.950 . S
C2016 H1998 0.951 . S
C2016 C2017 1.366 . S
C2016 C2018 1.388 . S
C2017 C2016 1.366 . S
C2017 C2021 1.385 . S
C2018 H1999 0.951 . S
C2018 C2016 1.388 . S
C2018 C2019 1.366 . S
C2019 C2018 1.366 . S
C2019 C2020 1.414 . S
C2019 C2022 1.499 . S
C2020 H2000 0.950 1_655 S
C2020 C2019 1.414 . S
C2020 C2021 1.374 . S
C2021 H2001 0.950 . S
C2021 C2017 1.385 . S
C2021 C2020 1.374 . S
C2022 C2019 1.499 . S
C2022 C2023 1.373 1_655 S
C2022 C2024 1.389 . S
C2023 H2002 0.950 . S
C2023 C2022 1.373 1_455 S
C2023 C2039 1.377 . S
C2024 C2022 1.389 . S
C2024 C2025 1.524 . S
C2024 C2038 1.377 . S
C2025 C2024 1.524 . S
C2025 C2026 1.397 . S
C2025 C2030 1.363 . S
C2026 H2003 0.950 . S
C2026 C2025 1.397 . S
C2026 C2027 1.334 . S
C2027 H2004 0.950 . S
C2027 C2026 1.334 . S
C2027 C2028 1.287 . S
C2028 C2027 1.287 . S
C2028 C2029 1.524 . S
C2028 H2047 0.913 . S
C2029 H2005 0.950 . S
C2029 C2028 1.524 . S
C2029 C2030 1.415 . S
C2030 H2006 0.950 . S
C2030 C2025 1.363 . S
C2030 C2029 1.415 . S
C2031 H2007 0.951 . S
C2031 C2032 1.366 . S
C2031 C2033 1.388 . S
C2032 C2031 1.366 . S
C2032 C2036 1.385 . S
C2033 H2008 0.951 . S
C2033 C2031 1.388 . S
C2033 C2034 1.366 . S
C2034 C2033 1.366 . S
C2034 C2035 1.414 . S
C2034 C2037 1.499 . S
C2035 H2009 0.950 1_455 S
C2035 C2034 1.414 . S
C2035 C2036 1.374 . S
C2036 H2010 0.950 . S
C2036 C2032 1.385 . S
C2036 C2035 1.374 . S
C2037 C2034 1.499 . S
C2037 C2038 1.373 1_455 S
C2037 C2039 1.389 . S
C2038 H2011 0.950 . S
C2038 C2024 1.377 . S
C2038 C2037 1.373 1_655 S
C2039 C2023 1.377 . S
C2039 C2037 1.389 . S
C2039 C2040 1.524 . S
C2040 C2039 1.524 . S
C2040 C2041 1.397 . S
C2040 C2045 1.363 . S
C2041 H2012 0.950 . S
C2041 C2040 1.397 . S
C2041 C2042 1.334 . S
C2042 H2013 0.950 . S
C2042 C2041 1.334 . S
C2042 C2043 1.287 . S
C2043 C2042 1.287 . S
C2043 C2044 1.524 . S
C2043 H2046 0.999 . S
C2044 H2014 0.950 . S
C2044 C2043 1.524 . S
C2044 C2045 1.415 . S
C2045 H2015 0.950 . S
C2045 C2040 1.363 . S
C2045 C2044 1.415 . S
H2046 C2043 0.999 . S
H2047 C2028 0.913 . S
H2048 C2066 0.951 . S
H2049 C2068 0.951 . S
H2050 C2070 0.950 . S
H2051 C2071 0.950 . S
H2052 C2073 0.950 . S
H2053 C2076 0.950 . S
H2054 C2077 0.950 . S
H2055 C2079 0.950 . S
H2056 C2080 0.950 . S
H2057 C2081 0.951 . S
H2058 C2083 0.951 . S
H2059 C2085 0.950 . S
H2060 C2086 0.950 . S
H2061 C2088 0.950 . S
H2062 C2091 0.950 . S
H2063 C2092 0.950 . S
H2064 C2094 0.950 . S
H2065 C2095 0.950 . S
C2066 H2048 0.951 . S
C2066 C2067 1.366 . S
C2066 C2068 1.388 . S
C2067 C2066 1.366 . S
C2067 C2071 1.385 . S
C2068 H2049 0.951 . S
C2068 C2066 1.388 . S
C2068 C2069 1.366 . S
C2069 C2068 1.366 . S
C2069 C2070 1.414 . S
C2069 C2072 1.499 . S
C2070 H2050 0.950 . S
C2070 C2069 1.414 . S
C2070 C2071 1.374 . S
C2071 H2051 0.950 . S
C2071 C2067 1.385 . S
C2071 C2070 1.374 . S
C2072 C2069 1.499 . S
C2072 C2073 1.373 . S
C2072 C2074 1.389 . S
C2073 H2052 0.950 . S
C2073 C2072 1.373 . S
C2073 C2089 1.377 . S
C2074 C2072 1.389 . S
C2074 C2075 1.524 . S
C2074 C2088 1.377 . S
C2075 C2074 1.524 . S
C2075 C2076 1.397 . S
C2075 C2080 1.363 . S
C2076 H2053 0.950 . S
C2076 C2075 1.397 . S
C2076 C2077 1.334 . S
C2077 H2054 0.950 . S
C2077 C2076 1.334 . S
C2077 C2078 1.287 . S
C2078 C2077 1.287 . S
C2078 C2079 1.524 . S
C2078 H2097 0.913 . S
C2079 H2055 0.950 . S
C2079 C2078 1.524 . S
C2079 C2080 1.415 . S
C2080 H2056 0.950 . S
C2080 C2075 1.363 . S
C2080 C2079 1.415 . S
C2081 H2057 0.951 . S
C2081 C2082 1.366 . S
C2081 C2083 1.388 . S
C2082 C2081 1.366 . S
C2082 C2086 1.385 . S
C2083 H2058 0.951 . S
C2083 C2081 1.388 . S
C2083 C2084 1.366 . S
C2084 C2083 1.366 . S
C2084 C2085 1.414 . S
C2084 C2087 1.499 . S
C2085 H2059 0.950 . S
C2085 C2084 1.414 . S
C2085 C2086 1.374 . S
C2086 H2060 0.950 . S
C2086 C2082 1.385 . S
C2086 C2085 1.374 . S
C2087 C2084 1.499 . S
C2087 C2088 1.373 . S
C2087 C2089 1.389 . S
C2088 H2061 0.950 . S
C2088 C2074 1.377 . S
C2088 C2087 1.373 . S
C2089 C2073 1.377 . S
C2089 C2087 1.389 . S
C2089 C2090 1.524 . S
C2090 C2089 1.524 . S
C2090 C2091 1.397 . S
C2090 C2095 1.363 . S
C2091 H2062 0.950 . S
C2091 C2090 1.397 . S
C2091 C2092 1.334 . S
C2092 H2063 0.950 . S
C2092 C2091 1.334 . S
C2092 C2093 1.287 . S
C2093 C2092 1.287 . S
C2093 C2094 1.524 . S
C2093 H2096 0.999 . S
C2094 H2064 0.950 . S
C2094 C2093 1.524 . S
C2094 C2095 1.415 . S
C2095 H2065 0.950 . S
C2095 C2090 1.363 . S
C2095 C2094 1.415 . S
H2096 C2093 0.999 . S
H2097 C2078 0.913 . S
H2098 C2116 0.951 . S
H2099 C2118 0.951 . S
H2100 C2120 0.950 . S
H2101 C2121 0.950 . S
H2102 C2123 0.950 . S
H2103 C2126 0.950 . S
H2104 C2127 0.950 . S
H2105 C2129 0.950 . S
H2106 C2130 0.950 . S
H2107 C2131 0.951 . S
H2108 C2133 0.951 . S
H2109 C2135 0.950 . S
H2110 C2136 0.950 . S
H2111 C2138 0.950 . S
H2112 C2141 0.950 . S
H2113 C2142 0.950 . S
H2114 C2144 0.950 . S
H2115 C2145 0.950 . S
C2116 H2098 0.951 . S
C2116 C2117 1.366 . S
C2116 C2118 1.388 . S
C2117 C2116 1.366 . S
C2117 C2121 1.385 . S
C2118 H2099 0.951 . S
C2118 C2116 1.388 . S
C2118 C2119 1.366 . S
C2119 C2118 1.366 . S
C2119 C2120 1.414 . S
C2119 C2122 1.499 . S
C2120 H2100 0.950 . S
C2120 C2119 1.414 . S
C2120 C2121 1.374 . S
C2121 H2101 0.950 . S
C2121 C2117 1.385 . S
C2121 C2120 1.374 . S
C2122 C2119 1.499 . S
C2122 C2123 1.373 . S
C2122 C2124 1.389 . S
C2123 H2102 0.950 . S
C2123 C2122 1.373 . S
C2123 C2139 1.377 . S
C2124 C2122 1.389 . S
C2124 C2125 1.524 . S
C2124 C2138 1.377 . S
C2125 C2124 1.524 . S
C2125 C2126 1.397 . S
C2125 C2130 1.363 . S
C2126 H2103 0.950 . S
C2126 C2125 1.397 . S
C2126 C2127 1.334 . S
C2127 H2104 0.950 . S
C2127 C2126 1.334 . S
C2127 C2128 1.287 . S
C2128 C2127 1.287 . S
C2128 C2129 1.524 . S
C2128 H2147 0.913 . S
C2129 H2105 0.950 . S
C2129 C2128 1.524 . S
C2129 C2130 1.415 . S
C2130 H2106 0.950 . S
C2130 C2125 1.363 . S
C2130 C2129 1.415 . S
C2131 H2107 0.951 . S
C2131 C2132 1.366 . S
C2131 C2133 1.388 . S
C2132 C2131 1.366 . S
C2132 C2136 1.385 . S
C2133 H2108 0.951 . S
C2133 C2131 1.388 . S
C2133 C2134 1.366 . S
C2134 C2133 1.366 . S
C2134 C2135 1.414 . S
C2134 C2137 1.499 . S
C2135 H2109 0.950 . S
C2135 C2134 1.414 . S
C2135 C2136 1.374 . S
C2136 H2110 0.950 . S
C2136 C2132 1.385 . S
C2136 C2135 1.374 . S
C2137 C2134 1.499 . S
C2137 C2138 1.373 . S
C2137 C2139 1.389 . S
C2138 H2111 0.950 . S
C2138 C2124 1.377 . S
C2138 C2137 1.373 . S
C2139 C2123 1.377 . S
C2139 C2137 1.389 . S
C2139 C2140 1.524 . S
C2140 C2139 1.524 . S
C2140 C2141 1.397 . S
C2140 C2145 1.363 . S
C2141 H2112 0.950 . S
C2141 C2140 1.397 . S
C2141 C2142 1.334 . S
C2142 H2113 0.950 . S
C2142 C2141 1.334 . S
C2142 C2143 1.287 . S
C2143 C2142 1.287 . S
C2143 C2144 1.524 . S
C2143 H2146 0.999 . S
C2144 H2114 0.950 . S
C2144 C2143 1.524 . S
C2144 C2145 1.415 . S
C2145 H2115 0.950 . S
C2145 C2140 1.363 . S
C2145 C2144 1.415 . S
H2146 C2143 0.999 . S
H2147 C2128 0.913 . S
H2148 C2166 0.951 . S
H2149 C2168 0.951 . S
H2150 C2170 0.950 . S
H2151 C2171 0.950 . S
H2152 C2173 0.950 . S
H2153 C2176 0.950 . S
H2154 C2177 0.950 . S
H2155 C2179 0.950 . S
H2156 C2180 0.950 . S
H2157 C2181 0.951 . S
H2158 C2183 0.951 . S
H2159 C2185 0.950 . S
H2160 C2186 0.950 . S
H2161 C2188 0.950 . S
H2162 C2191 0.950 . S
H2163 C2192 0.950 . S
H2164 C2194 0.950 . S
H2165 C2195 0.950 . S
C2166 H2148 0.951 . S
C2166 C2167 1.366 . S
C2166 C2168 1.388 . S
C2167 C2166 1.366 . S
C2167 C2171 1.385 . S
C2168 H2149 0.951 . S
C2168 C2166 1.388 . S
C2168 C2169 1.366 . S
C2169 C2168 1.366 . S
C2169 C2170 1.414 . S
C2169 C2172 1.499 . S
C2170 H2150 0.950 . S
C2170 C2169 1.414 . S
C2170 C2171 1.374 . S
C2171 H2151 0.950 . S
C2171 C2167 1.385 . S
C2171 C2170 1.374 . S
C2172 C2169 1.499 . S
C2172 C2173 1.373 . S
C2172 C2174 1.389 . S
C2173 H2152 0.950 . S
C2173 C2172 1.373 . S
C2173 C2189 1.377 . S
C2174 C2172 1.389 . S
C2174 C2175 1.524 . S
C2174 C2188 1.377 . S
C2175 C2174 1.524 . S
C2175 C2176 1.397 . S
C2175 C2180 1.363 . S
C2176 H2153 0.950 . S
C2176 C2175 1.397 . S
C2176 C2177 1.334 . S
C2177 H2154 0.950 . S
C2177 C2176 1.334 . S
C2177 C2178 1.287 . S
C2178 C2177 1.287 . S
C2178 C2179 1.524 . S
C2178 H2197 0.913 . S
C2179 H2155 0.950 . S
C2179 C2178 1.524 . S
C2179 C2180 1.415 . S
C2180 H2156 0.950 . S
C2180 C2175 1.363 . S
C2180 C2179 1.415 . S
C2181 H2157 0.951 . S
C2181 C2182 1.366 . S
C2181 C2183 1.388 . S
C2182 C2181 1.366 . S
C2182 C2186 1.385 . S
C2183 H2158 0.951 . S
C2183 C2181 1.388 . S
C2183 C2184 1.366 . S
C2184 C2183 1.366 . S
C2184 C2185 1.414 . S
C2184 C2187 1.499 . S
C2185 H2159 0.950 . S
C2185 C2184 1.414 . S
C2185 C2186 1.374 . S
C2186 H2160 0.950 . S
C2186 C2182 1.385 . S
C2186 C2185 1.374 . S
C2187 C2184 1.499 . S
C2187 C2188 1.373 . S
C2187 C2189 1.389 . S
C2188 H2161 0.950 . S
C2188 C2174 1.377 . S
C2188 C2187 1.373 . S
C2189 C2173 1.377 . S
C2189 C2187 1.389 . S
C2189 C2190 1.524 . S
C2190 C2189 1.524 . S
C2190 C2191 1.397 . S
C2190 C2195 1.363 . S
C2191 H2162 0.950 . S
C2191 C2190 1.397 . S
C2191 C2192 1.334 . S
C2192 H2163 0.950 . S
C2192 C2191 1.334 . S
C2192 C2193 1.287 . S
C2193 C2192 1.287 . S
C2193 C2194 1.524 . S
C2193 H2196 0.999 . S
C2194 H2164 0.950 . S
C2194 C2193 1.524 . S
C2194 C2195 1.415 . S
C2195 H2165 0.950 . S
C2195 C2190 1.363 . S
C2195 C2194 1.415 . S
H2196 C2193 0.999 . S
H2197 C2178 0.913 . S
H2198 C2216 0.951 . S
H2199 C2218 0.951 1_655 S
H2200 C2220 0.950 . S
H2201 C2221 0.950 . S
H2202 C2223 0.950 . S
H2203 C2226 0.950 1_455 S
H2204 C2227 0.950 . S
H2205 C2229 0.950 . S
H2206 C2230 0.950 . S
H2207 C2231 0.951 . S
H2208 C2233 0.951 1_455 S
H2209 C2235 0.950 . S
H2210 C2236 0.950 . S
H2211 C2238 0.950 . S
H2212 C2241 0.991 . S
H2213 C2242 0.950 . S
H2214 C2244 0.950 . S
H2215 C2245 0.950 1_554 S
C2216 H2198 0.951 . S
C2216 C2217 1.366 . S
C2216 C2218 1.388 . S
C2217 C2216 1.366 . S
C2217 C2221 1.385 . S
C2218 H2199 0.951 1_455 S
C2218 C2216 1.388 . S
C2218 C2219 1.366 . S
C2219 C2218 1.366 . S
C2219 C2220 1.414 . S
C2219 C2222 1.499 . S
C2220 H2200 0.950 . S
C2220 C2219 1.414 . S
C2220 C2221 1.374 . S
C2221 H2201 0.950 . S
C2221 C2217 1.385 . S
C2221 C2220 1.374 . S
C2222 C2219 1.499 . S
C2222 C2223 1.373 . S
C2222 C2224 1.389 1_455 S
C2223 H2202 0.950 . S
C2223 C2222 1.373 . S
C2223 C2239 1.377 . S
C2224 C2222 1.389 1_655 S
C2224 C2225 1.524 . S
C2224 C2238 1.377 . S
C2225 C2224 1.524 . S
C2225 C2226 1.397 . S
C2225 C2230 1.363 . S
C2226 H2203 0.950 1_655 S
C2226 C2225 1.397 . S
C2226 C2227 1.334 . S
C2227 H2204 0.950 . S
C2227 C2226 1.334 . S
C2227 C2228 1.287 . S
C2228 C2227 1.287 . S
C2228 C2229 1.524 . S
C2228 H2247 0.913 . S
C2229 H2205 0.950 . S
C2229 C2228 1.524 . S
C2229 C2230 1.415 . S
C2230 H2206 0.950 . S
C2230 C2225 1.363 . S
C2230 C2229 1.415 . S
C2231 H2207 0.951 . S
C2231 C2232 1.366 . S
C2231 C2233 1.388 . S
C2232 C2231 1.366 . S
C2232 C2236 1.385 . S
C2233 H2208 0.951 1_655 S
C2233 C2231 1.388 . S
C2233 C2234 1.366 . S
C2234 C2233 1.366 . S
C2234 C2235 1.414 . S
C2234 C2237 1.499 1_556 S
C2235 H2209 0.950 . S
C2235 C2234 1.414 . S
C2235 C2236 1.374 . S
C2236 H2210 0.950 . S
C2236 C2232 1.385 . S
C2236 C2235 1.374 . S
C2237 C2234 1.499 1_554 S
C2237 C2238 1.373 . S
C2237 C2239 1.389 1_655 S
C2238 H2211 0.950 . S
C2238 C2224 1.377 . S
C2238 C2237 1.373 . S
C2239 C2223 1.377 . S
C2239 C2237 1.389 1_455 S
C2239 C2240 1.524 1_554 S
C2240 C2239 1.524 1_556 S
C2240 C2241 1.397 . S
C2240 C2245 1.363 . S
C2241 H2212 0.991 . S
C2241 C2240 1.397 . S
C2241 C2242 1.334 . S
C2242 H2213 0.950 . S
C2242 C2241 1.334 . S
C2242 C2243 1.287 . S
C2243 C2242 1.287 . S
C2243 C2244 1.524 . S
C2243 H2246 0.999 . S
C2244 H2214 0.950 . S
C2244 C2243 1.524 . S
C2244 C2245 1.415 . S
C2245 H2215 0.950 1_556 S
C2245 C2240 1.363 . S
C2245 C2244 1.415 . S
H2246 C2243 0.999 . S
H2247 C2228 0.913 . S
H2248 C2266 0.951 . S
H2249 C2268 0.951 . S
H2250 C2270 0.950 . S
H2251 C2271 0.950 . S
H2252 C2273 0.950 . S
H2253 C2276 0.950 . S
H2254 C2277 0.950 . S
H2255 C2279 0.950 . S
H2256 C2280 0.950 . S
H2257 C2281 0.951 . S
H2258 C2283 0.951 . S
H2259 C2285 0.950 . S
H2260 C2286 0.950 . S
H2261 C2288 0.950 . S
H2262 C2291 0.950 . S
H2263 C2292 0.950 . S
H2264 C2294 0.950 . S
H2265 C2295 0.950 . S
C2266 H2248 0.951 . S
C2266 C2267 1.366 . S
C2266 C2268 1.388 . S
C2267 C2266 1.366 . S
C2267 C2271 1.385 . S
C2268 H2249 0.951 . S
C2268 C2266 1.388 . S
C2268 C2269 1.366 . S
C2269 C2268 1.366 . S
C2269 C2270 1.414 . S
C2269 C2272 1.499 . S
C2270 H2250 0.950 . S
C2270 C2269 1.414 . S
C2270 C2271 1.374 . S
C2271 H2251 0.950 . S
C2271 C2267 1.385 . S
C2271 C2270 1.374 . S
C2272 C2269 1.499 . S
C2272 C2273 1.373 . S
C2272 C2274 1.389 . S
C2273 H2252 0.950 . S
C2273 C2272 1.373 . S
C2273 C2289 1.377 . S
C2274 C2272 1.389 . S
C2274 C2275 1.524 . S
C2274 C2288 1.377 . S
C2275 C2274 1.524 . S
C2275 C2276 1.397 . S
C2275 C2280 1.363 . S
C2276 H2253 0.950 . S
C2276 C2275 1.397 . S
C2276 C2277 1.334 . S
C2277 H2254 0.950 . S
C2277 C2276 1.334 . S
C2277 C2278 1.287 . S
C2278 C2277 1.287 . S
C2278 C2279 1.524 . S
C2278 H2297 0.913 . S
C2279 H2255 0.950 . S
C2279 C2278 1.524 . S
C2279 C2280 1.415 . S
C2280 H2256 0.950 . S
C2280 C2275 1.363 . S
C2280 C2279 1.415 . S
C2281 H2257 0.951 . S
C2281 C2282 1.366 . S
C2281 C2283 1.388 . S
C2282 C2281 1.366 . S
C2282 C2286 1.385 . S
C2283 H2258 0.951 . S
C2283 C2281 1.388 . S
C2283 C2284 1.366 . S
C2284 C2283 1.366 . S
C2284 C2285 1.414 . S
C2284 C2287 1.499 . S
C2285 H2259 0.950 . S
C2285 C2284 1.414 . S
C2285 C2286 1.374 . S
C2286 H2260 0.950 . S
C2286 C2282 1.385 . S
C2286 C2285 1.374 . S
C2287 C2284 1.499 . S
C2287 C2288 1.373 . S
C2287 C2289 1.389 . S
C2288 H2261 0.950 . S
C2288 C2274 1.377 . S
C2288 C2287 1.373 . S
C2289 C2273 1.377 . S
C2289 C2287 1.389 . S
C2289 C2290 1.524 . S
C2290 C2289 1.524 . S
C2290 C2291 1.397 . S
C2290 C2295 1.363 . S
C2291 H2262 0.950 . S
C2291 C2290 1.397 . S
C2291 C2292 1.334 . S
C2292 H2263 0.950 . S
C2292 C2291 1.334 . S
C2292 C2293 1.287 . S
C2293 C2292 1.287 . S
C2293 C2294 1.524 . S
C2293 H2296 0.999 . S
C2294 H2264 0.950 . S
C2294 C2293 1.524 . S
C2294 C2295 1.415 . S
C2295 H2265 0.950 . S
C2295 C2290 1.363 . S
C2295 C2294 1.415 . S
H2296 C2293 0.999 . S
H2297 C2278 0.913 . S
H2298 C2316 0.951 . S
H2299 C2318 0.951 . S
H2300 C2320 0.950 . S
H2301 C2321 0.950 . S
H2302 C2323 0.950 . S
H2303 C2326 0.950 . S
H2304 C2327 0.950 . S
H2305 C2329 0.950 . S
H2306 C2330 0.950 . S
H2307 C2331 0.951 . S
H2308 C2333 0.951 . S
H2309 C2335 0.950 . S
H2310 C2336 0.950 . S
H2311 C2338 0.950 . S
H2312 C2341 0.950 . S
H2313 C2342 0.950 . S
H2314 C2344 0.950 . S
H2315 C2345 0.950 . S
C2316 H2298 0.951 . S
C2316 C2317 1.366 . S
C2316 C2318 1.388 . S
C2317 C2316 1.366 . S
C2317 C2321 1.385 . S
C2318 H2299 0.951 . S
C2318 C2316 1.388 . S
C2318 C2319 1.366 . S
C2319 C2318 1.366 . S
C2319 C2320 1.414 . S
C2319 C2322 1.499 . S
C2320 H2300 0.950 . S
C2320 C2319 1.414 . S
C2320 C2321 1.374 . S
C2321 H2301 0.950 . S
C2321 C2317 1.385 . S
C2321 C2320 1.374 . S
C2322 C2319 1.499 . S
C2322 C2323 1.373 . S
C2322 C2324 1.389 1_655 S
C2323 H2302 0.950 . S
C2323 C2322 1.373 . S
C2323 C2339 1.377 . S
C2324 C2322 1.389 1_455 S
C2324 C2325 1.524 . S
C2324 C2338 1.377 . S
C2325 C2324 1.524 . S
C2325 C2326 1.397 . S
C2325 C2330 1.363 . S
C2326 H2303 0.950 . S
C2326 C2325 1.397 . S
C2326 C2327 1.334 . S
C2327 H2304 0.950 . S
C2327 C2326 1.334 . S
C2327 C2328 1.287 . S
C2328 C2327 1.287 . S
C2328 C2329 1.524 . S
C2328 H2347 0.913 . S
C2329 H2305 0.950 . S
C2329 C2328 1.524 . S
C2329 C2330 1.415 . S
C2330 H2306 0.950 . S
C2330 C2325 1.363 . S
C2330 C2329 1.415 . S
C2331 H2307 0.951 . S
C2331 C2332 1.366 . S
C2331 C2333 1.388 . S
C2332 C2331 1.366 . S
C2332 C2336 1.385 . S
C2333 H2308 0.951 . S
C2333 C2331 1.388 . S
C2333 C2334 1.366 . S
C2334 C2333 1.366 . S
C2334 C2335 1.414 . S
C2334 C2337 1.499 . S
C2335 H2309 0.950 . S
C2335 C2334 1.414 . S
C2335 C2336 1.374 . S
C2336 H2310 0.950 . S
C2336 C2332 1.385 . S
C2336 C2335 1.374 . S
C2337 C2334 1.499 . S
C2337 C2338 1.373 . S
C2337 C2339 1.389 1_455 S
C2338 H2311 0.950 . S
C2338 C2324 1.377 . S
C2338 C2337 1.373 . S
C2339 C2323 1.377 . S
C2339 C2337 1.389 1_655 S
C2339 C2340 1.524 . S
C2340 C2339 1.524 . S
C2340 C2341 1.397 . S
C2340 C2345 1.363 . S
C2341 H2312 0.950 . S
C2341 C2340 1.397 . S
C2341 C2342 1.334 . S
C2342 H2313 0.950 . S
C2342 C2341 1.334 . S
C2342 C2343 1.287 . S
C2343 C2342 1.287 . S
C2343 C2344 1.524 . S
C2343 H2346 0.999 . S
C2344 H2314 0.950 . S
C2344 C2343 1.524 . S
C2344 C2345 1.415 . S
C2345 H2315 0.950 . S
C2345 C2340 1.363 . S
C2345 C2344 1.415 . S
H2346 C2343 0.999 . S
H2347 C2328 0.913 . S
H2348 C2366 0.951 . S
H2349 C2368 0.951 . S
H2350 C2370 0.950 . S
H2351 C2371 0.950 . S
H2352 C2373 0.950 . S
H2353 C2376 0.950 . S
H2354 C2377 0.950 . S
H2355 C2379 0.950 . S
H2356 C2380 0.950 . S
H2357 C2381 0.951 . S
H2358 C2383 0.951 . S
H2359 C2385 0.950 . S
H2360 C2386 0.950 . S
H2361 C2388 0.950 . S
H2362 C2391 0.950 . S
H2363 C2392 0.950 . S
H2364 C2394 0.950 . S
H2365 C2395 0.950 . S
C2366 H2348 0.951 . S
C2366 C2367 1.366 . S
C2366 C2368 1.388 . S
C2367 C2366 1.366 . S
C2367 C2371 1.385 . S
C2368 H2349 0.951 . S
C2368 C2366 1.388 . S
C2368 C2369 1.366 . S
C2369 C2368 1.366 . S
C2369 C2370 1.414 . S
C2369 C2372 1.499 . S
C2370 H2350 0.950 . S
C2370 C2369 1.414 . S
C2370 C2371 1.374 . S
C2371 H2351 0.950 . S
C2371 C2367 1.385 . S
C2371 C2370 1.374 . S
C2372 C2369 1.499 . S
C2372 C2373 1.373 . S
C2372 C2374 1.389 . S
C2373 H2352 0.950 . S
C2373 C2372 1.373 . S
C2373 C2389 1.377 . S
C2374 C2372 1.389 . S
C2374 C2375 1.524 . S
C2374 C2388 1.377 . S
C2375 C2374 1.524 . S
C2375 C2376 1.397 . S
C2375 C2380 1.363 . S
C2376 H2353 0.950 . S
C2376 C2375 1.397 . S
C2376 C2377 1.334 . S
C2377 H2354 0.950 . S
C2377 C2376 1.334 . S
C2377 C2378 1.287 . S
C2378 C2377 1.287 . S
C2378 C2379 1.524 . S
C2378 H2397 0.913 . S
C2379 H2355 0.950 . S
C2379 C2378 1.524 . S
C2379 C2380 1.415 . S
C2380 H2356 0.950 . S
C2380 C2375 1.363 . S
C2380 C2379 1.415 . S
C2381 H2357 0.951 . S
C2381 C2382 1.366 . S
C2381 C2383 1.388 . S
C2382 C2381 1.366 . S
C2382 C2386 1.385 . S
C2383 H2358 0.951 . S
C2383 C2381 1.388 . S
C2383 C2384 1.366 . S
C2384 C2383 1.366 . S
C2384 C2385 1.414 . S
C2384 C2387 1.499 . S
C2385 H2359 0.950 . S
C2385 C2384 1.414 . S
C2385 C2386 1.374 . S
C2386 H2360 0.950 . S
C2386 C2382 1.385 . S
C2386 C2385 1.374 . S
C2387 C2384 1.499 . S
C2387 C2388 1.373 . S
C2387 C2389 1.389 . S
C2388 H2361 0.950 . S
C2388 C2374 1.377 . S
C2388 C2387 1.373 . S
C2389 C2373 1.377 . S
C2389 C2387 1.389 . S
C2389 C2390 1.524 . S
C2390 C2389 1.524 . S
C2390 C2391 1.397 . S
C2390 C2395 1.363 . S
C2391 H2362 0.950 . S
C2391 C2390 1.397 . S
C2391 C2392 1.334 . S
C2392 H2363 0.950 . S
C2392 C2391 1.334 . S
C2392 C2393 1.287 . S
C2393 C2392 1.287 . S
C2393 C2394 1.524 . S
C2393 H2396 0.999 . S
C2394 H2364 0.950 . S
C2394 C2393 1.524 . S
C2394 C2395 1.415 . S
C2395 H2365 0.950 . S
C2395 C2390 1.363 . S
C2395 C2394 1.415 . S
H2396 C2393 0.999 . S
H2397 C2378 0.913 . S
H2398 C2416 0.951 . S
H2399 C2418 0.951 . S
H2400 C2420 0.950 . S
H2401 C2421 0.950 . S
H2402 C2423 0.950 . S
H2403 C2426 0.950 . S
H2404 C2427 0.950 . S
H2405 C2429 0.950 . S
H2406 C2430 0.950 . S
H2407 C2431 0.951 . S
H2408 C2433 0.951 . S
H2409 C2435 0.950 . S
H2410 C2436 0.950 . S
H2411 C2438 0.950 . S
H2412 C2441 0.950 . S
H2413 C2442 0.950 . S
H2414 C2444 0.950 . S
H2415 C2445 0.950 . S
C2416 H2398 0.951 . S
C2416 C2417 1.366 . S
C2416 C2418 1.388 . S
C2417 C2416 1.366 . S
C2417 C2421 1.385 . S
C2418 H2399 0.951 . S
C2418 C2416 1.388 . S
C2418 C2419 1.366 . S
C2419 C2418 1.366 . S
C2419 C2420 1.414 . S
C2419 C2422 1.499 1_554 S
C2420 H2400 0.950 . S
C2420 C2419 1.414 . S
C2420 C2421 1.374 . S
C2421 H2401 0.950 . S
C2421 C2417 1.385 . S
C2421 C2420 1.374 . S
C2422 C2419 1.499 1_556 S
C2422 C2423 1.373 . S
C2422 C2424 1.389 . S
C2423 H2402 0.950 . S
C2423 C2422 1.373 . S
C2423 C2439 1.377 . S
C2424 C2422 1.389 . S
C2424 C2425 1.524 . S
C2424 C2438 1.377 . S
C2425 C2424 1.524 . S
C2425 C2426 1.397 . S
C2425 C2430 1.363 . S
C2426 H2403 0.950 . S
C2426 C2425 1.397 . S
C2426 C2427 1.334 . S
C2427 H2404 0.950 . S
C2427 C2426 1.334 . S
C2427 C2428 1.287 . S
C2428 C2427 1.287 . S
C2428 C2429 1.524 . S
C2428 H2447 0.913 . S
C2429 H2405 0.950 . S
C2429 C2428 1.524 . S
C2429 C2430 1.415 . S
C2430 H2406 0.950 . S
C2430 C2425 1.363 . S
C2430 C2429 1.415 . S
C2431 H2407 0.951 . S
C2431 C2432 1.366 . S
C2431 C2433 1.388 . S
C2432 C2431 1.366 . S
C2432 C2436 1.385 . S
C2433 H2408 0.951 . S
C2433 C2431 1.388 . S
C2433 C2434 1.366 . S
C2434 C2433 1.366 . S
C2434 C2435 1.414 . S
C2434 C2437 1.499 . S
C2435 H2409 0.950 . S
C2435 C2434 1.414 . S
C2435 C2436 1.374 . S
C2436 H2410 0.950 . S
C2436 C2432 1.385 . S
C2436 C2435 1.374 . S
C2437 C2434 1.499 . S
C2437 C2438 1.373 . S
C2437 C2439 1.389 . S
C2438 H2411 0.950 . S
C2438 C2424 1.377 . S
C2438 C2437 1.373 . S
C2439 C2423 1.377 . S
C2439 C2437 1.389 . S
C2439 C2440 1.524 . S
C2440 C2439 1.524 . S
C2440 C2441 1.397 . S
C2440 C2445 1.363 . S
C2441 H2412 0.950 . S
C2441 C2440 1.397 . S
C2441 C2442 1.334 . S
C2442 H2413 0.950 . S
C2442 C2441 1.334 . S
C2442 C2443 1.287 . S
C2443 C2442 1.287 . S
C2443 C2444 1.524 . S
C2443 H2446 0.999 . S
C2444 H2414 0.950 . S
C2444 C2443 1.524 . S
C2444 C2445 1.415 . S
C2445 H2415 0.950 . S
C2445 C2440 1.363 . S
C2445 C2444 1.415 . S
H2446 C2443 0.999 . S
H2447 C2428 0.913 . S
H2448 C2466 0.951 . S
H2449 C2468 0.951 . S
H2450 C2470 0.950 . S
H2451 C2471 0.950 . S
H2452 C2473 0.950 . S
H2453 C2476 0.950 . S
H2454 C2477 0.950 . S
H2455 C2479 0.950 . S
H2456 C2480 0.950 . S
H2457 C2481 0.951 . S
H2458 C2483 0.951 . S
H2459 C2485 0.950 . S
H2460 C2486 0.950 . S
H2461 C2488 0.950 . S
H2462 C2491 0.950 . S
H2463 C2492 0.950 . S
H2464 C2494 0.950 . S
H2465 C2495 0.950 . S
C2466 H2448 0.951 . S
C2466 C2467 1.366 . S
C2466 C2468 1.388 . S
C2467 C2466 1.366 . S
C2467 C2471 1.385 . S
C2468 H2449 0.951 . S
C2468 C2466 1.388 . S
C2468 C2469 1.366 . S
C2469 C2468 1.366 . S
C2469 C2470 1.414 . S
C2469 C2472 1.499 . S
C2470 H2450 0.950 . S
C2470 C2469 1.414 . S
C2470 C2471 1.374 . S
C2471 H2451 0.950 . S
C2471 C2467 1.385 . S
C2471 C2470 1.374 . S
C2472 C2469 1.499 . S
C2472 C2473 1.373 . S
C2472 C2474 1.389 . S
C2473 H2452 0.950 . S
C2473 C2472 1.373 . S
C2473 C2489 1.377 . S
C2474 C2472 1.389 . S
C2474 C2475 1.524 . S
C2474 C2488 1.377 . S
C2475 C2474 1.524 . S
C2475 C2476 1.397 . S
C2475 C2480 1.363 . S
C2476 H2453 0.950 . S
C2476 C2475 1.397 . S
C2476 C2477 1.334 . S
C2477 H2454 0.950 . S
C2477 C2476 1.334 . S
C2477 C2478 1.287 . S
C2478 C2477 1.287 . S
C2478 C2479 1.524 . S
C2478 H2497 0.913 . S
C2479 H2455 0.950 . S
C2479 C2478 1.524 . S
C2479 C2480 1.415 . S
C2480 H2456 0.950 . S
C2480 C2475 1.363 . S
C2480 C2479 1.415 . S
C2481 H2457 0.951 . S
C2481 C2482 1.366 . S
C2481 C2483 1.388 . S
C2482 C2481 1.366 . S
C2482 C2486 1.385 . S
C2483 H2458 0.951 . S
C2483 C2481 1.388 . S
C2483 C2484 1.366 . S
C2484 C2483 1.366 . S
C2484 C2485 1.414 . S
C2484 C2487 1.499 . S
C2485 H2459 0.950 . S
C2485 C2484 1.414 . S
C2485 C2486 1.374 . S
C2486 H2460 0.950 . S
C2486 C2482 1.385 . S
C2486 C2485 1.374 . S
C2487 C2484 1.499 . S
C2487 C2488 1.373 . S
C2487 C2489 1.389 . S
C2488 H2461 0.950 . S
C2488 C2474 1.377 . S
C2488 C2487 1.373 . S
C2489 C2473 1.377 . S
C2489 C2487 1.389 . S
C2489 C2490 1.524 . S
C2490 C2489 1.524 . S
C2490 C2491 1.397 . S
C2490 C2495 1.363 . S
C2491 H2462 0.950 . S
C2491 C2490 1.397 . S
C2491 C2492 1.334 . S
C2492 H2463 0.950 . S
C2492 C2491 1.334 . S
C2492 C2493 1.287 . S
C2493 C2492 1.287 . S
C2493 C2494 1.524 . S
C2493 H2496 0.999 . S
C2494 H2464 0.950 . S
C2494 C2493 1.524 . S
C2494 C2495 1.415 . S
C2495 H2465 0.950 . S
C2495 C2490 1.363 . S
C2495 C2494 1.415 . S
H2496 C2493 0.999 . S
H2497 C2478 0.913 . S
H2498 C2516 0.951 . S
H2499 C2518 0.951 . S
H2500 C2520 0.950 . S
H2501 C2521 0.950 . S
H2502 C2523 0.950 . S
H2503 C2526 0.950 . S
H2504 C2527 0.950 . S
H2505 C2529 0.950 . S
H2506 C2530 0.950 . S
H2507 C2531 0.951 . S
H2508 C2533 0.951 . S
H2509 C2535 0.950 . S
H2510 C2536 0.950 . S
H2511 C2538 0.950 . S
H2512 C2541 0.950 . S
H2513 C2542 0.950 . S
H2514 C2544 0.950 . S
H2515 C2545 0.950 . S
C2516 H2498 0.951 . S
C2516 C2517 1.366 . S
C2516 C2518 1.388 . S
C2517 C2516 1.366 . S
C2517 C2521 1.385 . S
C2518 H2499 0.951 . S
C2518 C2516 1.388 . S
C2518 C2519 1.366 . S
C2519 C2518 1.366 . S
C2519 C2520 1.414 . S
C2519 C2522 1.499 . S
C2520 H2500 0.950 . S
C2520 C2519 1.414 . S
C2520 C2521 1.374 . S
C2521 H2501 0.950 . S
C2521 C2517 1.385 . S
C2521 C2520 1.374 . S
C2522 C2519 1.499 . S
C2522 C2523 1.373 . S
C2522 C2524 1.389 . S
C2523 H2502 0.950 . S
C2523 C2522 1.373 . S
C2523 C2539 1.377 . S
C2524 C2522 1.389 . S
C2524 C2525 1.524 . S
C2524 C2538 1.377 . S
C2525 C2524 1.524 . S
C2525 C2526 1.397 . S
C2525 C2530 1.363 . S
C2526 H2503 0.950 . S
C2526 C2525 1.397 . S
C2526 C2527 1.334 . S
C2527 H2504 0.950 . S
C2527 C2526 1.334 . S
C2527 C2528 1.287 . S
C2528 C2527 1.287 . S
C2528 C2529 1.524 . S
C2528 H2547 0.913 . S
C2529 H2505 0.950 . S
C2529 C2528 1.524 . S
C2529 C2530 1.415 . S
C2530 H2506 0.950 . S
C2530 C2525 1.363 . S
C2530 C2529 1.415 . S
C2531 H2507 0.951 . S
C2531 C2532 1.366 . S
C2531 C2533 1.388 . S
C2532 C2531 1.366 . S
C2532 C2536 1.385 . S
C2533 H2508 0.951 . S
C2533 C2531 1.388 . S
C2533 C2534 1.366 . S
C2534 C2533 1.366 . S
C2534 C2535 1.414 . S
C2534 C2537 1.499 . S
C2535 H2509 0.950 . S
C2535 C2534 1.414 . S
C2535 C2536 1.374 . S
C2536 H2510 0.950 . S
C2536 C2532 1.385 . S
C2536 C2535 1.374 . S
C2537 C2534 1.499 . S
C2537 C2538 1.373 . S
C2537 C2539 1.389 . S
C2538 H2511 0.950 . S
C2538 C2524 1.377 . S
C2538 C2537 1.373 . S
C2539 C2523 1.377 . S
C2539 C2537 1.389 . S
C2539 C2540 1.524 . S
C2540 C2539 1.524 . S
C2540 C2541 1.397 . S
C2540 C2545 1.363 . S
C2541 H2512 0.950 . S
C2541 C2540 1.397 . S
C2541 C2542 1.334 . S
C2542 H2513 0.950 . S
C2542 C2541 1.334 . S
C2542 C2543 1.287 . S
C2543 C2542 1.287 . S
C2543 C2544 1.524 . S
C2543 H2546 0.999 . S
C2544 H2514 0.950 . S
C2544 C2543 1.524 . S
C2544 C2545 1.415 . S
C2545 H2515 0.950 . S
C2545 C2540 1.363 . S
C2545 C2544 1.415 . S
H2546 C2543 0.999 . S
H2547 C2528 0.913 . S
H2548 C2566 0.951 . S
H2549 C2568 0.951 . S
H2550 C2570 0.950 . S
H2551 C2571 0.950 . S
H2552 C2573 0.950 . S
H2553 C2576 0.950 . S
H2554 C2577 0.950 . S
H2555 C2579 0.950 . S
H2556 C2580 0.950 . S
H2557 C2581 0.951 . S
H2558 C2583 0.951 . S
H2559 C2585 0.950 . S
H2560 C2586 0.950 . S
H2561 C2588 0.950 . S
H2562 C2591 0.950 . S
H2563 C2592 0.950 . S
H2564 C2594 0.950 . S
H2565 C2595 0.950 . S
C2566 H2548 0.951 . S
C2566 C2567 1.366 . S
C2566 C2568 1.388 . S
C2567 C2566 1.366 . S
C2567 C2571 1.385 . S
C2568 H2549 0.951 . S
C2568 C2566 1.388 . S
C2568 C2569 1.366 . S
C2569 C2568 1.366 . S
C2569 C2570 1.414 . S
C2569 C2572 1.499 . S
C2570 H2550 0.950 . S
C2570 C2569 1.414 . S
C2570 C2571 1.374 . S
C2571 H2551 0.950 . S
C2571 C2567 1.385 . S
C2571 C2570 1.374 . S
C2572 C2569 1.499 . S
C2572 C2573 1.373 . S
C2572 C2574 1.389 . S
C2573 H2552 0.950 . S
C2573 C2572 1.373 . S
C2573 C2589 1.377 . S
C2574 C2572 1.389 . S
C2574 C2575 1.524 . S
C2574 C2588 1.377 . S
C2575 C2574 1.524 . S
C2575 C2576 1.397 . S
C2575 C2580 1.363 . S
C2576 H2553 0.950 . S
C2576 C2575 1.397 . S
C2576 C2577 1.334 . S
C2577 H2554 0.950 . S
C2577 C2576 1.334 . S
C2577 C2578 1.287 . S
C2578 C2577 1.287 . S
C2578 C2579 1.524 . S
C2578 H2597 0.913 . S
C2579 H2555 0.950 . S
C2579 C2578 1.524 . S
C2579 C2580 1.415 . S
C2580 H2556 0.950 . S
C2580 C2575 1.363 . S
C2580 C2579 1.415 . S
C2581 H2557 0.951 . S
C2581 C2582 1.366 . S
C2581 C2583 1.388 . S
C2582 C2581 1.366 . S
C2582 C2586 1.385 . S
C2583 H2558 0.951 . S
C2583 C2581 1.388 . S
C2583 C2584 1.366 . S
C2584 C2583 1.366 . S
C2584 C2585 1.414 . S
C2584 C2587 1.499 . S
C2585 H2559 0.950 . S
C2585 C2584 1.414 . S
C2585 C2586 1.374 . S
C2586 H2560 0.950 . S
C2586 C2582 1.385 . S
C2586 C2585 1.374 . S
C2587 C2584 1.499 . S
C2587 C2588 1.373 . S
C2587 C2589 1.389 . S
C2588 H2561 0.950 . S
C2588 C2574 1.377 . S
C2588 C2587 1.373 . S
C2589 C2573 1.377 . S
C2589 C2587 1.389 . S
C2589 C2590 1.524 . S
C2590 C2589 1.524 . S
C2590 C2591 1.397 . S
C2590 C2595 1.363 . S
C2591 H2562 0.950 . S
C2591 C2590 1.397 . S
C2591 C2592 1.334 . S
C2592 H2563 0.950 . S
C2592 C2591 1.334 . S
C2592 C2593 1.287 . S
C2593 C2592 1.287 . S
C2593 C2594 1.524 . S
C2593 H2596 0.999 . S
C2594 H2564 0.950 . S
C2594 C2593 1.524 . S
C2594 C2595 1.415 . S
C2595 H2565 0.950 . S
C2595 C2590 1.363 . S
C2595 C2594 1.415 . S
H2596 C2593 0.999 . S
H2597 C2578 0.913 . S
H2598 C2616 0.951 . S
H2599 C2618 0.951 . S
H2600 C2620 0.950 . S
H2601 C2621 0.950 . S
H2602 C2623 0.950 . S
H2603 C2626 0.950 . S
H2604 C2627 0.950 . S
H2605 C2629 0.950 . S
H2606 C2630 0.950 . S
H2607 C2631 0.951 . S
H2608 C2633 0.951 . S
H2609 C2635 0.950 . S
H2610 C2636 0.950 . S
H2611 C2638 0.950 . S
H2612 C2641 0.950 . S
H2613 C2642 0.950 . S
H2614 C2644 0.950 . S
H2615 C2645 0.950 1_556 S
C2616 H2598 0.951 . S
C2616 C2617 1.366 . S
C2616 C2618 1.388 . S
C2617 C2616 1.366 . S
C2617 C2621 1.385 . S
C2618 H2599 0.951 . S
C2618 C2616 1.388 . S
C2618 C2619 1.366 . S
C2619 C2618 1.366 . S
C2619 C2620 1.414 . S
C2619 C2622 1.499 . S
C2620 H2600 0.950 . S
C2620 C2619 1.414 . S
C2620 C2621 1.374 . S
C2621 H2601 0.950 . S
C2621 C2617 1.385 . S
C2621 C2620 1.374 . S
C2622 C2619 1.499 . S
C2622 C2623 1.373 . S
C2622 C2624 1.389 1_655 S
C2623 H2602 0.950 . S
C2623 C2622 1.373 . S
C2623 C2639 1.377 . S
C2624 C2622 1.389 1_455 S
C2624 C2625 1.524 . S
C2624 C2638 1.377 . S
C2625 C2624 1.524 . S
C2625 C2626 1.397 . S
C2625 C2630 1.363 . S
C2626 H2603 0.950 . S
C2626 C2625 1.397 . S
C2626 C2627 1.334 . S
C2627 H2604 0.950 . S
C2627 C2626 1.334 . S
C2627 C2628 1.287 . S
C2628 C2627 1.287 . S
C2628 C2629 1.524 . S
C2628 H2647 0.913 . S
C2629 H2605 0.950 . S
C2629 C2628 1.524 . S
C2629 C2630 1.415 . S
C2630 H2606 0.950 . S
C2630 C2625 1.363 . S
C2630 C2629 1.415 . S
C2631 H2607 0.951 . S
C2631 C2632 1.366 . S
C2631 C2633 1.388 . S
C2632 C2631 1.366 . S
C2632 C2636 1.385 . S
C2633 H2608 0.951 . S
C2633 C2631 1.388 . S
C2633 C2634 1.366 . S
C2634 C2633 1.366 . S
C2634 C2635 1.414 . S
C2634 C2637 1.499 1_554 S
C2635 H2609 0.950 . S
C2635 C2634 1.414 . S
C2635 C2636 1.374 . S
C2636 H2610 0.950 . S
C2636 C2632 1.385 . S
C2636 C2635 1.374 . S
C2637 C2634 1.499 1_556 S
C2637 C2638 1.373 . S
C2637 C2639 1.389 1_455 S
C2638 H2611 0.950 . S
C2638 C2624 1.377 . S
C2638 C2637 1.373 . S
C2639 C2623 1.377 . S
C2639 C2637 1.389 1_655 S
C2639 C2640 1.524 1_556 S
C2640 C2639 1.524 1_554 S
C2640 C2641 1.397 . S
C2640 C2645 1.363 . S
C2641 H2612 0.950 . S
C2641 C2640 1.397 . S
C2641 C2642 1.334 . S
C2642 H2613 0.950 . S
C2642 C2641 1.334 . S
C2642 C2643 1.287 . S
C2643 C2642 1.287 . S
C2643 C2644 1.524 . S
C2643 H2646 0.999 . S
C2644 H2614 0.950 . S
C2644 C2643 1.524 . S
C2644 C2645 1.415 . S
C2645 H2615 0.950 1_554 S
C2645 C2640 1.363 . S
C2645 C2644 1.415 . S
H2646 C2643 0.999 . S
H2647 C2628 0.913 . S
H2648 C2666 0.951 . S
H2649 C2668 0.951 . S
H2650 C2670 0.950 . S
H2651 C2671 0.950 . S
H2652 C2673 0.950 . S
H2653 C2676 0.950 . S
H2654 C2677 0.950 . S
H2655 C2679 0.950 . S
H2656 C2680 0.950 . S
H2657 C2681 0.951 . S
H2658 C2683 0.951 . S
H2659 C2685 0.950 . S
H2660 C2686 0.950 . S
H2661 C2688 0.950 . S
H2662 C2691 0.950 . S
H2663 C2692 0.950 . S
H2664 C2694 0.950 . S
H2665 C2695 0.950 . S
C2666 H2648 0.951 . S
C2666 C2667 1.366 . S
C2666 C2668 1.388 . S
C2667 C2666 1.366 . S
C2667 C2671 1.385 . S
C2668 H2649 0.951 . S
C2668 C2666 1.388 . S
C2668 C2669 1.366 . S
C2669 C2668 1.366 . S
C2669 C2670 1.414 . S
C2669 C2672 1.499 . S
C2670 H2650 0.950 . S
C2670 C2669 1.414 . S
C2670 C2671 1.374 . S
C2671 H2651 0.950 . S
C2671 C2667 1.385 . S
C2671 C2670 1.374 . S
C2672 C2669 1.499 . S
C2672 C2673 1.373 . S
C2672 C2674 1.389 . S
C2673 H2652 0.950 . S
C2673 C2672 1.373 . S
C2673 C2689 1.377 . S
C2674 C2672 1.389 . S
C2674 C2675 1.524 . S
C2674 C2688 1.377 . S
C2675 C2674 1.524 . S
C2675 C2676 1.397 . S
C2675 C2680 1.363 . S
C2676 H2653 0.950 . S
C2676 C2675 1.397 . S
C2676 C2677 1.334 . S
C2677 H2654 0.950 . S
C2677 C2676 1.334 . S
C2677 C2678 1.287 . S
C2678 C2677 1.287 . S
C2678 C2679 1.524 . S
C2678 H2697 0.913 . S
C2679 H2655 0.950 . S
C2679 C2678 1.524 . S
C2679 C2680 1.415 . S
C2680 H2656 0.950 . S
C2680 C2675 1.363 . S
C2680 C2679 1.415 . S
C2681 H2657 0.951 . S
C2681 C2682 1.366 . S
C2681 C2683 1.388 . S
C2682 C2681 1.366 . S
C2682 C2686 1.385 . S
C2683 H2658 0.951 . S
C2683 C2681 1.388 . S
C2683 C2684 1.366 . S
C2684 C2683 1.366 . S
C2684 C2685 1.414 . S
C2684 C2687 1.499 . S
C2685 H2659 0.950 . S
C2685 C2684 1.414 . S
C2685 C2686 1.374 . S
C2686 H2660 0.950 . S
C2686 C2682 1.385 . S
C2686 C2685 1.374 . S
C2687 C2684 1.499 . S
C2687 C2688 1.373 . S
C2687 C2689 1.389 . S
C2688 H2661 0.950 . S
C2688 C2674 1.377 . S
C2688 C2687 1.373 . S
C2689 C2673 1.377 . S
C2689 C2687 1.389 . S
C2689 C2690 1.524 . S
C2690 C2689 1.524 . S
C2690 C2691 1.397 . S
C2690 C2695 1.363 . S
C2691 H2662 0.950 . S
C2691 C2690 1.397 . S
C2691 C2692 1.334 . S
C2692 H2663 0.950 . S
C2692 C2691 1.334 . S
C2692 C2693 1.287 . S
C2693 C2692 1.287 . S
C2693 C2694 1.524 . S
C2693 H2696 0.999 . S
C2694 H2664 0.950 . S
C2694 C2693 1.524 . S
C2694 C2695 1.415 . S
C2695 H2665 0.950 . S
C2695 C2690 1.363 . S
C2695 C2694 1.415 . S
H2696 C2693 0.999 . S
H2697 C2678 0.913 . S
H2698 C2716 0.951 . S
H2699 C2718 0.951 . S
H2700 C2720 0.950 1_455 S
H2701 C2721 0.950 . S
H2702 C2723 0.950 . S
H2703 C2726 0.950 . S
H2704 C2727 0.950 . S
H2705 C2729 0.950 . S
H2706 C2730 0.950 . S
H2707 C2731 0.951 . S
H2708 C2733 0.951 . S
H2709 C2735 0.950 1_655 S
H2710 C2736 0.950 . S
H2711 C2738 0.950 . S
H2712 C2741 0.950 . S
H2713 C2742 0.950 . S
H2714 C2744 0.950 . S
H2715 C2745 0.950 . S
C2716 H2698 0.951 . S
C2716 C2717 1.366 . S
C2716 C2718 1.388 . S
C2717 C2716 1.366 . S
C2717 C2721 1.385 . S
C2718 H2699 0.951 . S
C2718 C2716 1.388 . S
C2718 C2719 1.366 . S
C2719 C2718 1.366 . S
C2719 C2720 1.414 . S
C2719 C2722 1.499 . S
C2720 H2700 0.950 1_655 S
C2720 C2719 1.414 . S
C2720 C2721 1.374 . S
C2721 H2701 0.950 . S
C2721 C2717 1.385 . S
C2721 C2720 1.374 . S
C2722 C2719 1.499 . S
C2722 C2723 1.373 1_655 S
C2722 C2724 1.389 . S
C2723 H2702 0.950 . S
C2723 C2722 1.373 1_455 S
C2723 C2739 1.377 . S
C2724 C2722 1.389 . S
C2724 C2725 1.524 . S
C2724 C2738 1.377 . S
C2725 C2724 1.524 . S
C2725 C2726 1.397 . S
C2725 C2730 1.363 . S
C2726 H2703 0.950 . S
C2726 C2725 1.397 . S
C2726 C2727 1.334 . S
C2727 H2704 0.950 . S
C2727 C2726 1.334 . S
C2727 C2728 1.287 . S
C2728 C2727 1.287 . S
C2728 C2729 1.524 . S
C2728 H2747 0.913 . S
C2729 H2705 0.950 . S
C2729 C2728 1.524 . S
C2729 C2730 1.415 . S
C2730 H2706 0.950 . S
C2730 C2725 1.363 . S
C2730 C2729 1.415 . S
C2731 H2707 0.951 . S
C2731 C2732 1.366 . S
C2731 C2733 1.388 . S
C2732 C2731 1.366 . S
C2732 C2736 1.385 . S
C2733 H2708 0.951 . S
C2733 C2731 1.388 . S
C2733 C2734 1.366 . S
C2734 C2733 1.366 . S
C2734 C2735 1.414 . S
C2734 C2737 1.499 . S
C2735 H2709 0.950 1_455 S
C2735 C2734 1.414 . S
C2735 C2736 1.374 . S
C2736 H2710 0.950 . S
C2736 C2732 1.385 . S
C2736 C2735 1.374 . S
C2737 C2734 1.499 . S
C2737 C2738 1.373 1_455 S
C2737 C2739 1.389 . S
C2738 H2711 0.950 . S
C2738 C2724 1.377 . S
C2738 C2737 1.373 1_655 S
C2739 C2723 1.377 . S
C2739 C2737 1.389 . S
C2739 C2740 1.524 . S
C2740 C2739 1.524 . S
C2740 C2741 1.397 . S
C2740 C2745 1.363 . S
C2741 H2712 0.950 . S
C2741 C2740 1.397 . S
C2741 C2742 1.334 . S
C2742 H2713 0.950 . S
C2742 C2741 1.334 . S
C2742 C2743 1.287 . S
C2743 C2742 1.287 . S
C2743 C2744 1.524 . S
C2743 H2746 0.999 . S
C2744 H2714 0.950 . S
C2744 C2743 1.524 . S
C2744 C2745 1.415 . S
C2745 H2715 0.950 . S
C2745 C2740 1.363 . S
C2745 C2744 1.415 . S
H2746 C2743 0.999 . S
H2747 C2728 0.913 . S
H2748 C2766 0.951 . S
H2749 C2768 0.951 . S
H2750 C2770 0.950 . S
H2751 C2771 0.950 . S
H2752 C2773 0.950 . S
H2753 C2776 0.950 . S
H2754 C2777 0.950 . S
H2755 C2779 0.950 . S
H2756 C2780 0.950 . S
H2757 C2781 0.951 . S
H2758 C2783 0.951 . S
H2759 C2785 0.950 . S
H2760 C2786 0.950 . S
H2761 C2788 0.950 . S
H2762 C2791 0.950 . S
H2763 C2792 0.950 . S
H2764 C2794 0.950 . S
H2765 C2795 0.950 . S
C2766 H2748 0.951 . S
C2766 C2767 1.366 . S
C2766 C2768 1.388 . S
C2767 C2766 1.366 . S
C2767 C2771 1.385 . S
C2768 H2749 0.951 . S
C2768 C2766 1.388 . S
C2768 C2769 1.366 . S
C2769 C2768 1.366 . S
C2769 C2770 1.414 . S
C2769 C2772 1.499 . S
C2770 H2750 0.950 . S
C2770 C2769 1.414 . S
C2770 C2771 1.374 . S
C2771 H2751 0.950 . S
C2771 C2767 1.385 . S
C2771 C2770 1.374 . S
C2772 C2769 1.499 . S
C2772 C2773 1.373 . S
C2772 C2774 1.389 . S
C2773 H2752 0.950 . S
C2773 C2772 1.373 . S
C2773 C2789 1.377 . S
C2774 C2772 1.389 . S
C2774 C2775 1.524 . S
C2774 C2788 1.377 . S
C2775 C2774 1.524 . S
C2775 C2776 1.397 . S
C2775 C2780 1.363 . S
C2776 H2753 0.950 . S
C2776 C2775 1.397 . S
C2776 C2777 1.334 . S
C2777 H2754 0.950 . S
C2777 C2776 1.334 . S
C2777 C2778 1.287 . S
C2778 C2777 1.287 . S
C2778 C2779 1.524 . S
C2778 H2797 0.913 . S
C2779 H2755 0.950 . S
C2779 C2778 1.524 . S
C2779 C2780 1.415 . S
C2780 H2756 0.950 . S
C2780 C2775 1.363 . S
C2780 C2779 1.415 . S
C2781 H2757 0.951 . S
C2781 C2782 1.366 . S
C2781 C2783 1.388 . S
C2782 C2781 1.366 . S
C2782 C2786 1.385 . S
C2783 H2758 0.951 . S
C2783 C2781 1.388 . S
C2783 C2784 1.366 . S
C2784 C2783 1.366 . S
C2784 C2785 1.414 . S
C2784 C2787 1.499 . S
C2785 H2759 0.950 . S
C2785 C2784 1.414 . S
C2785 C2786 1.374 . S
C2786 H2760 0.950 . S
C2786 C2782 1.385 . S
C2786 C2785 1.374 . S
C2787 C2784 1.499 . S
C2787 C2788 1.373 . S
C2787 C2789 1.389 . S
C2788 H2761 0.950 . S
C2788 C2774 1.377 . S
C2788 C2787 1.373 . S
C2789 C2773 1.377 . S
C2789 C2787 1.389 . S
C2789 C2790 1.524 . S
C2790 C2789 1.524 . S
C2790 C2791 1.397 . S
C2790 C2795 1.363 . S
C2791 H2762 0.950 . S
C2791 C2790 1.397 . S
C2791 C2792 1.334 . S
C2792 H2763 0.950 . S
C2792 C2791 1.334 . S
C2792 C2793 1.287 . S
C2793 C2792 1.287 . S
C2793 C2794 1.524 . S
C2793 H2796 0.999 . S
C2794 H2764 0.950 . S
C2794 C2793 1.524 . S
C2794 C2795 1.415 . S
C2795 H2765 0.950 . S
C2795 C2790 1.363 . S
C2795 C2794 1.415 . S
H2796 C2793 0.999 . S
H2797 C2778 0.913 . S
H2798 C2816 0.951 . S
H2799 C2818 0.951 . S
H2800 C2820 0.950 . S
H2801 C2821 0.950 . S
H2802 C2823 0.950 . S
H2803 C2826 0.950 . S
H2804 C2827 0.950 . S
H2805 C2829 0.950 . S
H2806 C2830 0.950 . S
H2807 C2831 0.951 . S
H2808 C2833 0.951 . S
H2809 C2835 0.950 . S
H2810 C2836 0.950 . S
H2811 C2838 0.950 . S
H2812 C2841 0.950 . S
H2813 C2842 0.948 1_556 S
H2814 C2844 0.950 . S
H2815 C2845 0.950 . S
C2816 H2798 0.951 . S
C2816 C2817 1.366 . S
C2816 C2818 1.388 . S
C2817 C2816 1.366 . S
C2817 C2821 1.385 . S
C2818 H2799 0.951 . S
C2818 C2816 1.388 . S
C2818 C2819 1.366 . S
C2819 C2818 1.366 . S
C2819 C2820 1.414 . S
C2819 C2822 1.499 . S
C2820 H2800 0.950 . S
C2820 C2819 1.414 . S
C2820 C2821 1.374 . S
C2821 H2801 0.950 . S
C2821 C2817 1.385 . S
C2821 C2820 1.374 . S
C2822 C2819 1.499 . S
C2822 C2823 1.373 . S
C2822 C2824 1.389 . S
C2823 H2802 0.950 . S
C2823 C2822 1.373 . S
C2823 C2839 1.377 . S
C2824 C2822 1.389 . S
C2824 C2825 1.524 . S
C2824 C2838 1.377 . S
C2825 C2824 1.524 . S
C2825 C2826 1.397 . S
C2825 C2830 1.363 . S
C2826 H2803 0.950 . S
C2826 C2825 1.397 . S
C2826 C2827 1.334 . S
C2827 H2804 0.950 . S
C2827 C2826 1.334 . S
C2827 C2828 1.287 . S
C2828 C2827 1.287 . S
C2828 C2829 1.524 . S
C2828 H2847 0.913 . S
C2829 H2805 0.950 . S
C2829 C2828 1.524 . S
C2829 C2830 1.415 . S
C2830 H2806 0.950 . S
C2830 C2825 1.363 . S
C2830 C2829 1.415 . S
C2831 H2807 0.951 . S
C2831 C2832 1.366 . S
C2831 C2833 1.388 . S
C2832 C2831 1.366 . S
C2832 C2836 1.385 . S
C2833 H2808 0.951 . S
C2833 C2831 1.388 . S
C2833 C2834 1.366 . S
C2834 C2833 1.366 . S
C2834 C2835 1.414 . S
C2834 C2837 1.499 1_556 S
C2835 H2809 0.950 . S
C2835 C2834 1.414 . S
C2835 C2836 1.374 . S
C2836 H2810 0.950 . S
C2836 C2832 1.385 . S
C2836 C2835 1.374 . S
C2837 C2834 1.499 1_554 S
C2837 C2838 1.373 . S
C2837 C2839 1.389 . S
C2838 H2811 0.950 . S
C2838 C2824 1.377 . S
C2838 C2837 1.373 . S
C2839 C2823 1.377 . S
C2839 C2837 1.389 . S
C2839 C2840 1.524 . S
C2840 C2839 1.524 . S
C2840 C2841 1.397 . S
C2840 C2845 1.363 . S
C2841 H2812 0.950 . S
C2841 C2840 1.397 . S
C2841 C2842 1.334 . S
C2842 H2813 0.948 1_554 S
C2842 C2841 1.334 . S
C2842 C2843 1.287 . S
C2843 C2842 1.287 . S
C2843 C2844 1.524 . S
C2843 H2846 0.999 1_554 S
C2844 H2814 0.950 . S
C2844 C2843 1.524 . S
C2844 C2845 1.415 . S
C2845 H2815 0.950 . S
C2845 C2840 1.363 . S
C2845 C2844 1.415 . S
H2846 C2843 0.999 1_556 S
H2847 C2828 0.913 . S
H2848 C2866 0.951 . S
H2849 C2868 0.951 . S
H2850 C2870 0.950 . S
H2851 C2871 0.950 . S
H2852 C2873 0.950 . S
H2853 C2876 0.950 . S
H2854 C2877 0.950 . S
H2855 C2879 0.950 . S
H2856 C2880 0.950 . S
H2857 C2881 0.951 . S
H2858 C2883 0.951 . S
H2859 C2885 0.950 . S
H2860 C2886 0.950 . S
H2861 C2888 0.950 . S
H2862 C2891 0.950 . S
H2863 C2892 0.950 . S
H2864 C2894 0.950 . S
H2865 C2895 0.950 . S
C2866 H2848 0.951 . S
C2866 C2867 1.366 . S
C2866 C2868 1.388 . S
C2867 C2866 1.366 . S
C2867 C2871 1.385 . S
C2868 H2849 0.951 . S
C2868 C2866 1.388 . S
C2868 C2869 1.366 . S
C2869 C2868 1.366 . S
C2869 C2870 1.414 . S
C2869 C2872 1.499 . S
C2870 H2850 0.950 . S
C2870 C2869 1.414 . S
C2870 C2871 1.374 . S
C2871 H2851 0.950 . S
C2871 C2867 1.385 . S
C2871 C2870 1.374 . S
C2872 C2869 1.499 . S
C2872 C2873 1.373 . S
C2872 C2874 1.389 . S
C2873 H2852 0.950 . S
C2873 C2872 1.373 . S
C2873 C2889 1.377 . S
C2874 C2872 1.389 . S
C2874 C2875 1.524 . S
C2874 C2888 1.377 . S
C2875 C2874 1.524 . S
C2875 C2876 1.397 . S
C2875 C2880 1.363 . S
C2876 H2853 0.950 . S
C2876 C2875 1.397 . S
C2876 C2877 1.334 . S
C2877 H2854 0.950 . S
C2877 C2876 1.334 . S
C2877 C2878 1.287 . S
C2878 C2877 1.287 . S
C2878 C2879 1.524 . S
C2878 H2897 0.913 . S
C2879 H2855 0.950 . S
C2879 C2878 1.524 . S
C2879 C2880 1.415 . S
C2880 H2856 0.950 . S
C2880 C2875 1.363 . S
C2880 C2879 1.415 . S
C2881 H2857 0.951 . S
C2881 C2882 1.366 . S
C2881 C2883 1.388 . S
C2882 C2881 1.366 . S
C2882 C2886 1.385 . S
C2883 H2858 0.951 . S
C2883 C2881 1.388 . S
C2883 C2884 1.366 . S
C2884 C2883 1.366 . S
C2884 C2885 1.414 . S
C2884 C2887 1.499 . S
C2885 H2859 0.950 . S
C2885 C2884 1.414 . S
C2885 C2886 1.374 . S
C2886 H2860 0.950 . S
C2886 C2882 1.385 . S
C2886 C2885 1.374 . S
C2887 C2884 1.499 . S
C2887 C2888 1.373 . S
C2887 C2889 1.389 . S
C2888 H2861 0.950 . S
C2888 C2874 1.377 . S
C2888 C2887 1.373 . S
C2889 C2873 1.377 . S
C2889 C2887 1.389 . S
C2889 C2890 1.524 . S
C2890 C2889 1.524 . S
C2890 C2891 1.397 . S
C2890 C2895 1.363 . S
C2891 H2862 0.950 . S
C2891 C2890 1.397 . S
C2891 C2892 1.334 . S
C2892 H2863 0.950 . S
C2892 C2891 1.334 . S
C2892 C2893 1.287 . S
C2893 C2892 1.287 . S
C2893 C2894 1.524 . S
C2893 H2896 0.999 1_554 S
C2894 H2864 0.950 . S
C2894 C2893 1.524 . S
C2894 C2895 1.415 . S
C2895 H2865 0.950 . S
C2895 C2890 1.363 . S
C2895 C2894 1.415 . S
H2896 C2893 0.999 1_556 S
H2897 C2878 0.913 . S
H2898 C2916 0.951 . S
H2899 C2918 0.951 . S
H2900 C2920 0.950 . S
H2901 C2921 0.950 . S
H2902 C2923 0.950 . S
H2903 C2926 0.950 . S
H2904 C2927 0.950 . S
H2905 C2929 0.950 . S
H2906 C2930 0.950 . S
H2907 C2931 0.951 . S
H2908 C2933 0.951 . S
H2909 C2935 0.950 . S
H2910 C2936 0.950 . S
H2911 C2938 0.950 . S
H2912 C2941 0.950 . S
H2913 C2942 0.950 . S
H2914 C2944 0.950 . S
H2915 C2945 0.950 . S
C2916 H2898 0.951 . S
C2916 C2917 1.366 . S
C2916 C2918 1.388 . S
C2917 C2916 1.366 . S
C2917 C2921 1.385 . S
C2918 H2899 0.951 . S
C2918 C2916 1.388 . S
C2918 C2919 1.366 . S
C2919 C2918 1.366 . S
C2919 C2920 1.414 . S
C2919 C2922 1.499 . S
C2920 H2900 0.950 . S
C2920 C2919 1.414 . S
C2920 C2921 1.374 . S
C2921 H2901 0.950 . S
C2921 C2917 1.385 . S
C2921 C2920 1.374 . S
C2922 C2919 1.499 . S
C2922 C2923 1.373 . S
C2922 C2924 1.389 . S
C2923 H2902 0.950 . S
C2923 C2922 1.373 . S
C2923 C2939 1.377 . S
C2924 C2922 1.389 . S
C2924 C2925 1.524 . S
C2924 C2938 1.377 . S
C2925 C2924 1.524 . S
C2925 C2926 1.397 . S
C2925 C2930 1.363 . S
C2926 H2903 0.950 . S
C2926 C2925 1.397 . S
C2926 C2927 1.334 . S
C2927 H2904 0.950 . S
C2927 C2926 1.334 . S
C2927 C2928 1.287 . S
C2928 C2927 1.287 . S
C2928 C2929 1.524 . S
C2928 H2947 0.913 . S
C2929 H2905 0.950 . S
C2929 C2928 1.524 . S
C2929 C2930 1.415 . S
C2930 H2906 0.950 . S
C2930 C2925 1.363 . S
C2930 C2929 1.415 . S
C2931 H2907 0.951 . S
C2931 C2932 1.366 . S
C2931 C2933 1.388 . S
C2932 C2931 1.366 . S
C2932 C2936 1.385 . S
C2933 H2908 0.951 . S
C2933 C2931 1.388 . S
C2933 C2934 1.366 . S
C2934 C2933 1.366 . S
C2934 C2935 1.414 . S
C2934 C2937 1.499 . S
C2935 H2909 0.950 . S
C2935 C2934 1.414 . S
C2935 C2936 1.374 . S
C2936 H2910 0.950 . S
C2936 C2932 1.385 . S
C2936 C2935 1.374 . S
C2937 C2934 1.499 . S
C2937 C2938 1.373 . S
C2937 C2939 1.389 . S
C2938 H2911 0.950 . S
C2938 C2924 1.377 . S
C2938 C2937 1.373 . S
C2939 C2923 1.377 . S
C2939 C2937 1.389 . S
C2939 C2940 1.524 . S
C2940 C2939 1.524 . S
C2940 C2941 1.397 . S
C2940 C2945 1.363 . S
C2941 H2912 0.950 . S
C2941 C2940 1.397 . S
C2941 C2942 1.334 . S
C2942 H2913 0.950 . S
C2942 C2941 1.334 . S
C2942 C2943 1.287 . S
C2943 C2942 1.287 . S
C2943 C2944 1.524 . S
C2943 H2946 0.999 . S
C2944 H2914 0.950 . S
C2944 C2943 1.524 . S
C2944 C2945 1.415 . S
C2945 H2915 0.950 . S
C2945 C2940 1.363 . S
C2945 C2944 1.415 . S
H2946 C2943 0.999 . S
H2947 C2928 0.913 . S
H2948 C2966 0.951 . S
H2949 C2968 0.951 . S
H2950 C2970 0.950 . S
H2951 C2971 0.950 . S
H2952 C2973 0.950 . S
H2953 C2976 0.950 . S
H2954 C2977 0.950 . S
H2955 C2979 0.950 . S
H2956 C2980 0.950 . S
H2957 C2981 0.951 . S
H2958 C2983 0.951 . S
H2959 C2985 0.950 . S
H2960 C2986 0.950 . S
H2961 C2988 0.950 . S
H2962 C2991 0.950 . S
H2963 C2992 0.950 . S
H2964 C2994 0.950 . S
H2965 C2995 0.950 . S
C2966 H2948 0.951 . S
C2966 C2967 1.366 . S
C2966 C2968 1.388 . S
C2967 C2966 1.366 . S
C2967 C2971 1.385 . S
C2968 H2949 0.951 . S
C2968 C2966 1.388 . S
C2968 C2969 1.366 . S
C2969 C2968 1.366 . S
C2969 C2970 1.414 . S
C2969 C2972 1.499 . S
C2970 H2950 0.950 . S
C2970 C2969 1.414 . S
C2970 C2971 1.374 . S
C2971 H2951 0.950 . S
C2971 C2967 1.385 . S
C2971 C2970 1.374 . S
C2972 C2969 1.499 . S
C2972 C2973 1.373 . S
C2972 C2974 1.389 . S
C2973 H2952 0.950 . S
C2973 C2972 1.373 . S
C2973 C2989 1.377 . S
C2974 C2972 1.389 . S
C2974 C2975 1.524 . S
C2974 C2988 1.377 . S
C2975 C2974 1.524 . S
C2975 C2976 1.397 . S
C2975 C2980 1.363 . S
C2976 H2953 0.950 . S
C2976 C2975 1.397 . S
C2976 C2977 1.334 . S
C2977 H2954 0.950 . S
C2977 C2976 1.334 . S
C2977 C2978 1.287 . S
C2978 C2977 1.287 . S
C2978 C2979 1.524 . S
C2978 H2997 0.913 . S
C2979 H2955 0.950 . S
C2979 C2978 1.524 . S
C2979 C2980 1.415 . S
C2980 H2956 0.950 . S
C2980 C2975 1.363 . S
C2980 C2979 1.415 . S
C2981 H2957 0.951 . S
C2981 C2982 1.366 . S
C2981 C2983 1.388 . S
C2982 C2981 1.366 . S
C2982 C2986 1.385 . S
C2983 H2958 0.951 . S
C2983 C2981 1.388 . S
C2983 C2984 1.366 . S
C2984 C2983 1.366 . S
C2984 C2985 1.414 . S
C2984 C2987 1.499 . S
C2985 H2959 0.950 . S
C2985 C2984 1.414 . S
C2985 C2986 1.374 . S
C2986 H2960 0.950 . S
C2986 C2982 1.385 . S
C2986 C2985 1.374 . S
C2987 C2984 1.499 . S
C2987 C2988 1.373 . S
C2987 C2989 1.389 . S
C2988 H2961 0.950 . S
C2988 C2974 1.377 . S
C2988 C2987 1.373 . S
C2989 C2973 1.377 . S
C2989 C2987 1.389 . S
C2989 C2990 1.524 . S
C2990 C2989 1.524 . S
C2990 C2991 1.397 . S
C2990 C2995 1.363 . S
C2991 H2962 0.950 . S
C2991 C2990 1.397 . S
C2991 C2992 1.334 . S
C2992 H2963 0.950 . S
C2992 C2991 1.334 . S
C2992 C2993 1.287 . S
C2993 C2992 1.287 . S
C2993 C2994 1.524 . S
C2993 H2996 0.999 . S
C2994 H2964 0.950 . S
C2994 C2993 1.524 . S
C2994 C2995 1.415 . S
C2995 H2965 0.950 . S
C2995 C2990 1.363 . S
C2995 C2994 1.415 . S
H2996 C2993 0.999 . S
H2997 C2978 0.913 . S
H2998 C3016 0.951 . S
H2999 C3018 0.951 . S
H3000 C3020 0.950 . S
H3001 C3021 0.950 . S
H3002 C3023 0.950 . S
H3003 C3026 0.950 . S
H3004 C3027 0.950 . S
H3005 C3029 0.950 . S
H3006 C3030 0.950 . S
H3007 C3031 0.951 . S
H3008 C3033 0.951 . S
H3009 C3035 0.950 . S
H3010 C3036 0.950 . S
H3011 C3038 0.950 . S
H3012 C3041 0.950 . S
H3013 C3042 0.950 . S
H3014 C3044 0.950 . S
H3015 C3045 0.950 . S
C3016 H2998 0.951 . S
C3016 C3017 1.366 . S
C3016 C3018 1.388 . S
C3017 C3016 1.366 . S
C3017 C3021 1.385 . S
C3018 H2999 0.951 . S
C3018 C3016 1.388 . S
C3018 C3019 1.366 . S
C3019 C3018 1.366 . S
C3019 C3020 1.414 . S
C3019 C3022 1.499 . S
C3020 H3000 0.950 . S
C3020 C3019 1.414 . S
C3020 C3021 1.374 . S
C3021 H3001 0.950 . S
C3021 C3017 1.385 . S
C3021 C3020 1.374 . S
C3022 C3019 1.499 . S
C3022 C3023 1.373 . S
C3022 C3024 1.389 . S
C3023 H3002 0.950 . S
C3023 C3022 1.373 . S
C3023 C3039 1.377 . S
C3024 C3022 1.389 . S
C3024 C3025 1.524 . S
C3024 C3038 1.377 . S
C3025 C3024 1.524 . S
C3025 C3026 1.397 . S
C3025 C3030 1.363 . S
C3026 H3003 0.950 . S
C3026 C3025 1.397 . S
C3026 C3027 1.334 . S
C3027 H3004 0.950 . S
C3027 C3026 1.334 . S
C3027 C3028 1.287 . S
C3028 C3027 1.287 . S
C3028 C3029 1.524 . S
C3028 H3047 0.913 . S
C3029 H3005 0.950 . S
C3029 C3028 1.524 . S
C3029 C3030 1.415 . S
C3030 H3006 0.950 . S
C3030 C3025 1.363 . S
C3030 C3029 1.415 . S
C3031 H3007 0.951 . S
C3031 C3032 1.366 . S
C3031 C3033 1.388 . S
C3032 C3031 1.366 . S
C3032 C3036 1.385 . S
C3033 H3008 0.951 . S
C3033 C3031 1.388 . S
C3033 C3034 1.366 . S
C3034 C3033 1.366 . S
C3034 C3035 1.414 . S
C3034 C3037 1.499 . S
C3035 H3009 0.950 . S
C3035 C3034 1.414 . S
C3035 C3036 1.374 . S
C3036 H3010 0.950 . S
C3036 C3032 1.385 . S
C3036 C3035 1.374 . S
C3037 C3034 1.499 . S
C3037 C3038 1.373 . S
C3037 C3039 1.389 . S
C3038 H3011 0.950 . S
C3038 C3024 1.377 . S
C3038 C3037 1.373 . S
C3039 C3023 1.377 . S
C3039 C3037 1.389 . S
C3039 C3040 1.524 . S
C3040 C3039 1.524 . S
C3040 C3041 1.397 . S
C3040 C3045 1.363 . S
C3041 H3012 0.950 . S
C3041 C3040 1.397 . S
C3041 C3042 1.334 . S
C3042 H3013 0.950 . S
C3042 C3041 1.334 . S
C3042 C3043 1.287 . S
C3043 C3042 1.287 . S
C3043 C3044 1.524 . S
C3043 H3046 0.999 . S
C3044 H3014 0.950 . S
C3044 C3043 1.524 . S
C3044 C3045 1.415 . S
C3045 H3015 0.950 . S
C3045 C3040 1.363 . S
C3045 C3044 1.415 . S
H3046 C3043 0.999 . S
H3047 C3028 0.913 . S
H3048 C3066 0.951 . S
H3049 C3068 0.951 . S
H3050 C3070 0.950 . S
H3051 C3071 0.950 . S
H3052 C3073 0.950 . S
H3053 C3076 0.950 . S
H3054 C3077 0.950 . S
H3055 C3079 0.950 . S
H3056 C3080 0.950 . S
H3057 C3081 0.951 . S
H3058 C3083 0.951 . S
H3059 C3085 0.950 . S
H3060 C3086 0.950 . S
H3061 C3088 0.950 . S
H3062 C3091 0.950 . S
H3063 C3092 0.950 . S
H3064 C3094 0.950 . S
H3065 C3095 0.950 . S
C3066 H3048 0.951 . S
C3066 C3067 1.366 . S
C3066 C3068 1.388 . S
C3067 C3066 1.366 . S
C3067 C3071 1.385 . S
C3068 H3049 0.951 . S
C3068 C3066 1.388 . S
C3068 C3069 1.366 . S
C3069 C3068 1.366 . S
C3069 C3070 1.414 . S
C3069 C3072 1.499 . S
C3070 H3050 0.950 . S
C3070 C3069 1.414 . S
C3070 C3071 1.374 . S
C3071 H3051 0.950 . S
C3071 C3067 1.385 . S
C3071 C3070 1.374 . S
C3072 C3069 1.499 . S
C3072 C3073 1.373 . S
C3072 C3074 1.389 . S
C3073 H3052 0.950 . S
C3073 C3072 1.373 . S
C3073 C3089 1.377 . S
C3074 C3072 1.389 . S
C3074 C3075 1.524 . S
C3074 C3088 1.377 . S
C3075 C3074 1.524 . S
C3075 C3076 1.397 . S
C3075 C3080 1.363 . S
C3076 H3053 0.950 . S
C3076 C3075 1.397 . S
C3076 C3077 1.334 . S
C3077 H3054 0.950 . S
C3077 C3076 1.334 . S
C3077 C3078 1.287 . S
C3078 C3077 1.287 . S
C3078 C3079 1.524 . S
C3078 H3097 0.913 . S
C3079 H3055 0.950 . S
C3079 C3078 1.524 . S
C3079 C3080 1.415 . S
C3080 H3056 0.950 . S
C3080 C3075 1.363 . S
C3080 C3079 1.415 . S
C3081 H3057 0.951 . S
C3081 C3082 1.366 . S
C3081 C3083 1.388 . S
C3082 C3081 1.366 . S
C3082 C3086 1.385 . S
C3083 H3058 0.951 . S
C3083 C3081 1.388 . S
C3083 C3084 1.366 . S
C3084 C3083 1.366 . S
C3084 C3085 1.414 . S
C3084 C3087 1.499 . S
C3085 H3059 0.950 . S
C3085 C3084 1.414 . S
C3085 C3086 1.374 . S
C3086 H3060 0.950 . S
C3086 C3082 1.385 . S
C3086 C3085 1.374 . S
C3087 C3084 1.499 . S
C3087 C3088 1.373 . S
C3087 C3089 1.389 . S
C3088 H3061 0.950 . S
C3088 C3074 1.377 . S
C3088 C3087 1.373 . S
C3089 C3073 1.377 . S
C3089 C3087 1.389 . S
C3089 C3090 1.524 . S
C3090 C3089 1.524 . S
C3090 C3091 1.397 . S
C3090 C3095 1.363 . S
C3091 H3062 0.950 . S
C3091 C3090 1.397 . S
C3091 C3092 1.334 . S
C3092 H3063 0.950 . S
C3092 C3091 1.334 . S
C3092 C3093 1.287 . S
C3093 C3092 1.287 . S
C3093 C3094 1.524 . S
C3093 H3096 0.999 . S
C3094 H3064 0.950 . S
C3094 C3093 1.524 . S
C3094 C3095 1.415 . S
C3095 H3065 0.950 . S
C3095 C3090 1.363 . S
C3095 C3094 1.415 . S
H3096 C3093 0.999 . S
H3097 C3078 0.913 . S
H3098 C3116 0.951 . S
H3099 C3118 0.951 . S
H3100 C3120 0.950 . S
H3101 C3121 0.950 . S
H3102 C3123 0.950 . S
H3103 C3126 0.950 . S
H3104 C3127 0.950 . S
H3105 C3129 0.950 . S
H3106 C3130 0.950 . S
H3107 C3131 0.951 . S
H3108 C3133 0.951 . S
H3109 C3135 0.950 . S
H3110 C3136 0.950 . S
H3111 C3138 0.950 . S
H3112 C3141 0.950 . S
H3113 C3142 0.950 . S
H3114 C3144 0.950 . S
H3115 C3145 0.950 . S
C3116 H3098 0.951 . S
C3116 C3117 1.366 . S
C3116 C3118 1.388 . S
C3117 C3116 1.366 . S
C3117 C3121 1.385 . S
C3118 H3099 0.951 . S
C3118 C3116 1.388 . S
C3118 C3119 1.366 . S
C3119 C3118 1.366 . S
C3119 C3120 1.414 . S
C3119 C3122 1.499 . S
C3120 H3100 0.950 . S
C3120 C3119 1.414 . S
C3120 C3121 1.374 . S
C3121 H3101 0.950 . S
C3121 C3117 1.385 . S
C3121 C3120 1.374 . S
C3122 C3119 1.499 . S
C3122 C3123 1.373 . S
C3122 C3124 1.389 . S
C3123 H3102 0.950 . S
C3123 C3122 1.373 . S
C3123 C3139 1.377 . S
C3124 C3122 1.389 . S
C3124 C3125 1.524 . S
C3124 C3138 1.377 . S
C3125 C3124 1.524 . S
C3125 C3126 1.397 . S
C3125 C3130 1.363 . S
C3126 H3103 0.950 . S
C3126 C3125 1.397 . S
C3126 C3127 1.334 . S
C3127 H3104 0.950 . S
C3127 C3126 1.334 . S
C3127 C3128 1.287 . S
C3128 C3127 1.287 . S
C3128 C3129 1.524 . S
C3128 H3147 0.913 . S
C3129 H3105 0.950 . S
C3129 C3128 1.524 . S
C3129 C3130 1.415 . S
C3130 H3106 0.950 . S
C3130 C3125 1.363 . S
C3130 C3129 1.415 . S
C3131 H3107 0.951 . S
C3131 C3132 1.366 . S
C3131 C3133 1.388 . S
C3132 C3131 1.366 . S
C3132 C3136 1.385 . S
C3133 H3108 0.951 . S
C3133 C3131 1.388 . S
C3133 C3134 1.366 . S
C3134 C3133 1.366 . S
C3134 C3135 1.414 . S
C3134 C3137 1.499 . S
C3135 H3109 0.950 . S
C3135 C3134 1.414 . S
C3135 C3136 1.374 . S
C3136 H3110 0.950 . S
C3136 C3132 1.385 . S
C3136 C3135 1.374 . S
C3137 C3134 1.499 . S
C3137 C3138 1.373 . S
C3137 C3139 1.389 . S
C3138 H3111 0.950 . S
C3138 C3124 1.377 . S
C3138 C3137 1.373 . S
C3139 C3123 1.377 . S
C3139 C3137 1.389 . S
C3139 C3140 1.524 . S
C3140 C3139 1.524 . S
C3140 C3141 1.397 . S
C3140 C3145 1.363 . S
C3141 H3112 0.950 . S
C3141 C3140 1.397 . S
C3141 C3142 1.334 . S
C3142 H3113 0.950 . S
C3142 C3141 1.334 . S
C3142 C3143 1.287 . S
C3143 C3142 1.287 . S
C3143 C3144 1.524 . S
C3143 H3146 0.999 . S
C3144 H3114 0.950 . S
C3144 C3143 1.524 . S
C3144 C3145 1.415 . S
C3145 H3115 0.950 . S
C3145 C3140 1.363 . S
C3145 C3144 1.415 . S
H3146 C3143 0.999 . S
H3147 C3128 0.913 . S
H3148 C3166 0.951 . S
H3149 C3168 0.951 . S
H3150 C3170 0.950 . S
H3151 C3171 0.950 . S
H3152 C3173 0.950 . S
H3153 C3176 0.950 . S
H3154 C3177 0.950 . S
H3155 C3179 0.950 . S
H3156 C3180 0.950 . S
H3157 C3181 0.951 . S
H3158 C3183 0.951 . S
H3159 C3185 0.950 . S
H3160 C3186 0.950 . S
H3161 C3188 0.950 . S
H3162 C3191 0.950 . S
H3163 C3192 0.950 . S
H3164 C3194 0.950 . S
H3165 C3195 0.950 . S
C3166 H3148 0.951 . S
C3166 C3167 1.366 . S
C3166 C3168 1.388 . S
C3167 C3166 1.366 . S
C3167 C3171 1.385 . S
C3168 H3149 0.951 . S
C3168 C3166 1.388 . S
C3168 C3169 1.366 . S
C3169 C3168 1.366 . S
C3169 C3170 1.414 . S
C3169 C3172 1.499 . S
C3170 H3150 0.950 . S
C3170 C3169 1.414 . S
C3170 C3171 1.374 . S
C3171 H3151 0.950 . S
C3171 C3167 1.385 . S
C3171 C3170 1.374 . S
C3172 C3169 1.499 . S
C3172 C3173 1.373 . S
C3172 C3174 1.389 . S
C3173 H3152 0.950 . S
C3173 C3172 1.373 . S
C3173 C3189 1.377 . S
C3174 C3172 1.389 . S
C3174 C3175 1.524 . S
C3174 C3188 1.377 . S
C3175 C3174 1.524 . S
C3175 C3176 1.397 . S
C3175 C3180 1.363 . S
C3176 H3153 0.950 . S
C3176 C3175 1.397 . S
C3176 C3177 1.334 . S
C3177 H3154 0.950 . S
C3177 C3176 1.334 . S
C3177 C3178 1.287 . S
C3178 C3177 1.287 . S
C3178 C3179 1.524 . S
C3178 H3197 0.913 . S
C3179 H3155 0.950 . S
C3179 C3178 1.524 . S
C3179 C3180 1.415 . S
C3180 H3156 0.950 . S
C3180 C3175 1.363 . S
C3180 C3179 1.415 . S
C3181 H3157 0.951 . S
C3181 C3182 1.366 . S
C3181 C3183 1.388 . S
C3182 C3181 1.366 . S
C3182 C3186 1.385 . S
C3183 H3158 0.951 . S
C3183 C3181 1.388 . S
C3183 C3184 1.366 . S
C3184 C3183 1.366 . S
C3184 C3185 1.414 . S
C3184 C3187 1.499 . S
C3185 H3159 0.950 . S
C3185 C3184 1.414 . S
C3185 C3186 1.374 . S
C3186 H3160 0.950 . S
C3186 C3182 1.385 . S
C3186 C3185 1.374 . S
C3187 C3184 1.499 . S
C3187 C3188 1.373 . S
C3187 C3189 1.389 . S
C3188 H3161 0.950 . S
C3188 C3174 1.377 . S
C3188 C3187 1.373 . S
C3189 C3173 1.377 . S
C3189 C3187 1.389 . S
C3189 C3190 1.524 . S
C3190 C3189 1.524 . S
C3190 C3191 1.397 . S
C3190 C3195 1.363 . S
C3191 H3162 0.950 . S
C3191 C3190 1.397 . S
C3191 C3192 1.334 . S
C3192 H3163 0.950 . S
C3192 C3191 1.334 . S
C3192 C3193 1.287 . S
C3193 C3192 1.287 . S
C3193 C3194 1.524 . S
C3193 H3196 0.999 . S
C3194 H3164 0.950 . S
C3194 C3193 1.524 . S
C3194 C3195 1.415 . S
C3195 H3165 0.950 . S
C3195 C3190 1.363 . S
C3195 C3194 1.415 . S
H3196 C3193 0.999 . S
H3197 C3178 0.913 . S
H3198 C3216 0.951 . S
H3199 C3218 0.951 . S
H3200 C3220 0.950 . S
H3201 C3221 0.950 . S
H3202 C3223 0.950 . S
H3203 C3226 0.950 . S
H3204 C3227 0.950 . S
H3205 C3229 0.950 . S
H3206 C3230 0.950 . S
H3207 C3231 0.951 . S
H3208 C3233 0.951 . S
H3209 C3235 0.950 . S
H3210 C3236 0.950 . S
H3211 C3238 0.950 . S
H3212 C3241 0.950 . S
H3213 C3242 0.950 . S
H3214 C3244 0.950 . S
H3215 C3245 0.950 . S
C3216 H3198 0.951 . S
C3216 C3217 1.366 . S
C3216 C3218 1.388 . S
C3217 C3216 1.366 . S
C3217 C3221 1.385 . S
C3218 H3199 0.951 . S
C3218 C3216 1.388 . S
C3218 C3219 1.366 . S
C3219 C3218 1.366 . S
C3219 C3220 1.414 . S
C3219 C3222 1.499 . S
C3220 H3200 0.950 . S
C3220 C3219 1.414 . S
C3220 C3221 1.374 . S
C3221 H3201 0.950 . S
C3221 C3217 1.385 . S
C3221 C3220 1.374 . S
C3222 C3219 1.499 . S
C3222 C3223 1.373 . S
C3222 C3224 1.389 . S
C3223 H3202 0.950 . S
C3223 C3222 1.373 . S
C3223 C3239 1.377 . S
C3224 C3222 1.389 . S
C3224 C3225 1.524 . S
C3224 C3238 1.377 . S
C3225 C3224 1.524 . S
C3225 C3226 1.397 . S
C3225 C3230 1.363 . S
C3226 H3203 0.950 . S
C3226 C3225 1.397 . S
C3226 C3227 1.334 . S
C3227 H3204 0.950 . S
C3227 C3226 1.334 . S
C3227 C3228 1.287 . S
C3228 C3227 1.287 . S
C3228 C3229 1.524 . S
C3228 H3247 0.913 . S
C3229 H3205 0.950 . S
C3229 C3228 1.524 . S
C3229 C3230 1.415 . S
C3230 H3206 0.950 . S
C3230 C3225 1.363 . S
C3230 C3229 1.415 . S
C3231 H3207 0.951 . S
C3231 C3232 1.366 . S
C3231 C3233 1.388 . S
C3232 C3231 1.366 . S
C3232 C3236 1.385 . S
C3233 H3208 0.951 . S
C3233 C3231 1.388 . S
C3233 C3234 1.366 . S
C3234 C3233 1.366 . S
C3234 C3235 1.414 . S
C3234 C3237 1.499 . S
C3235 H3209 0.950 . S
C3235 C3234 1.414 . S
C3235 C3236 1.374 . S
C3236 H3210 0.950 . S
C3236 C3232 1.385 . S
C3236 C3235 1.374 . S
C3237 C3234 1.499 . S
C3237 C3238 1.373 . S
C3237 C3239 1.389 . S
C3238 H3211 0.950 . S
C3238 C3224 1.377 . S
C3238 C3237 1.373 . S
C3239 C3223 1.377 . S
C3239 C3237 1.389 . S
C3239 C3240 1.524 . S
C3240 C3239 1.524 . S
C3240 C3241 1.397 . S
C3240 C3245 1.363 . S
C3241 H3212 0.950 . S
C3241 C3240 1.397 . S
C3241 C3242 1.334 . S
C3242 H3213 0.950 . S
C3242 C3241 1.334 . S
C3242 C3243 1.287 . S
C3243 C3242 1.287 . S
C3243 C3244 1.524 1_554 S
C3243 H3246 0.999 1_554 S
C3244 H3214 0.950 . S
C3244 C3243 1.524 1_556 S
C3244 C3245 1.415 1_556 S
C3245 H3215 0.950 . S
C3245 C3240 1.363 . S
C3245 C3244 1.415 1_554 S
H3246 C3243 0.999 1_556 S
H3247 C3228 0.913 . S
H3248 C3266 0.951 . S
H3249 C3268 0.951 . S
H3250 C3270 0.950 . S
H3251 C3271 0.950 . S
H3252 C3273 0.950 . S
H3253 C3276 0.950 . S
H3254 C3277 0.950 . S
H3255 C3279 0.950 . S
H3256 C3280 0.950 . S
H3257 C3281 0.951 . S
H3258 C3283 0.951 . S
H3259 C3285 0.950 . S
H3260 C3286 0.950 . S
H3261 C3288 0.950 . S
H3262 C3291 0.950 . S
H3263 C3292 0.950 . S
H3264 C3294 0.950 . S
H3265 C3295 0.950 . S
C3266 H3248 0.951 . S
C3266 C3267 1.366 . S
C3266 C3268 1.388 . S
C3267 C3266 1.366 . S
C3267 C3271 1.385 . S
C3268 H3249 0.951 . S
C3268 C3266 1.388 . S
C3268 C3269 1.366 . S
C3269 C3268 1.366 . S
C3269 C3270 1.414 . S
C3269 C3272 1.499 . S
C3270 H3250 0.950 . S
C3270 C3269 1.414 . S
C3270 C3271 1.374 . S
C3271 H3251 0.950 . S
C3271 C3267 1.385 . S
C3271 C3270 1.374 . S
C3272 C3269 1.499 . S
C3272 C3273 1.373 . S
C3272 C3274 1.389 . S
C3273 H3252 0.950 . S
C3273 C3272 1.373 . S
C3273 C3289 1.377 . S
C3274 C3272 1.389 . S
C3274 C3275 1.524 . S
C3274 C3288 1.377 . S
C3275 C3274 1.524 . S
C3275 C3276 1.397 . S
C3275 C3280 1.363 . S
C3276 H3253 0.950 . S
C3276 C3275 1.397 . S
C3276 C3277 1.334 . S
C3277 H3254 0.950 . S
C3277 C3276 1.334 . S
C3277 C3278 1.287 . S
C3278 C3277 1.287 . S
C3278 C3279 1.524 . S
C3278 H3297 0.913 . S
C3279 H3255 0.950 . S
C3279 C3278 1.524 . S
C3279 C3280 1.415 . S
C3280 H3256 0.950 . S
C3280 C3275 1.363 . S
C3280 C3279 1.415 . S
C3281 H3257 0.951 . S
C3281 C3282 1.366 . S
C3281 C3283 1.388 . S
C3282 C3281 1.366 . S
C3282 C3286 1.385 . S
C3283 H3258 0.951 . S
C3283 C3281 1.388 . S
C3283 C3284 1.366 . S
C3284 C3283 1.366 . S
C3284 C3285 1.414 . S
C3284 C3287 1.499 . S
C3285 H3259 0.950 . S
C3285 C3284 1.414 . S
C3285 C3286 1.374 . S
C3286 H3260 0.950 . S
C3286 C3282 1.385 . S
C3286 C3285 1.374 . S
C3287 C3284 1.499 . S
C3287 C3288 1.373 . S
C3287 C3289 1.389 . S
C3288 H3261 0.950 . S
C3288 C3274 1.377 . S
C3288 C3287 1.373 . S
C3289 C3273 1.377 . S
C3289 C3287 1.389 . S
C3289 C3290 1.524 . S
C3290 C3289 1.524 . S
C3290 C3291 1.397 . S
C3290 C3295 1.363 . S
C3291 H3262 0.950 . S
C3291 C3290 1.397 . S
C3291 C3292 1.334 . S
C3292 H3263 0.950 . S
C3292 C3291 1.334 . S
C3292 C3293 1.287 . S
C3293 C3292 1.287 . S
C3293 C3294 1.524 . S
C3293 H3296 0.999 . S
C3294 H3264 0.950 . S
C3294 C3293 1.524 . S
C3294 C3295 1.415 . S
C3295 H3265 0.950 . S
C3295 C3290 1.363 . S
C3295 C3294 1.415 . S
H3296 C3293 0.999 . S
H3297 C3278 0.913 . S
H3298 C3316 0.951 . S
H3299 C3318 0.951 . S
H3300 C3320 0.950 . S
H3301 C3321 0.950 . S
H3302 C3323 0.950 . S
H3303 C3326 0.950 . S
H3304 C3327 0.950 . S
H3305 C3329 0.950 . S
H3306 C3330 0.950 . S
H3307 C3331 0.951 . S
H3308 C3333 0.951 . S
H3309 C3335 0.950 . S
H3310 C3336 0.950 . S
H3311 C3338 0.950 . S
H3312 C3341 0.950 . S
H3313 C3342 0.950 . S
H3314 C3344 0.950 . S
H3315 C3345 0.950 . S
C3316 H3298 0.951 . S
C3316 C3317 1.366 . S
C3316 C3318 1.388 . S
C3317 C3316 1.366 . S
C3317 C3321 1.385 . S
C3318 H3299 0.951 . S
C3318 C3316 1.388 . S
C3318 C3319 1.366 . S
C3319 C3318 1.366 . S
C3319 C3320 1.414 . S
C3319 C3322 1.499 . S
C3320 H3300 0.950 . S
C3320 C3319 1.414 . S
C3320 C3321 1.374 . S
C3321 H3301 0.950 . S
C3321 C3317 1.385 . S
C3321 C3320 1.374 . S
C3322 C3319 1.499 . S
C3322 C3323 1.373 . S
C3322 C3324 1.389 . S
C3323 H3302 0.950 . S
C3323 C3322 1.373 . S
C3323 C3339 1.377 . S
C3324 C3322 1.389 . S
C3324 C3325 1.524 . S
C3324 C3338 1.377 . S
C3325 C3324 1.524 . S
C3325 C3326 1.397 . S
C3325 C3330 1.363 . S
C3326 H3303 0.950 . S
C3326 C3325 1.397 . S
C3326 C3327 1.334 . S
C3327 H3304 0.950 . S
C3327 C3326 1.334 . S
C3327 C3328 1.287 . S
C3328 C3327 1.287 . S
C3328 C3329 1.524 . S
C3328 H3347 0.913 . S
C3329 H3305 0.950 . S
C3329 C3328 1.524 . S
C3329 C3330 1.415 . S
C3330 H3306 0.950 . S
C3330 C3325 1.363 . S
C3330 C3329 1.415 . S
C3331 H3307 0.951 . S
C3331 C3332 1.366 . S
C3331 C3333 1.388 . S
C3332 C3331 1.366 . S
C3332 C3336 1.385 . S
C3333 H3308 0.951 . S
C3333 C3331 1.388 . S
C3333 C3334 1.366 . S
C3334 C3333 1.366 . S
C3334 C3335 1.414 . S
C3334 C3337 1.499 . S
C3335 H3309 0.950 . S
C3335 C3334 1.414 . S
C3335 C3336 1.374 . S
C3336 H3310 0.950 . S
C3336 C3332 1.385 . S
C3336 C3335 1.374 . S
C3337 C3334 1.499 . S
C3337 C3338 1.373 . S
C3337 C3339 1.389 . S
C3338 H3311 0.950 . S
C3338 C3324 1.377 . S
C3338 C3337 1.373 . S
C3339 C3323 1.377 . S
C3339 C3337 1.389 . S
C3339 C3340 1.524 . S
C3340 C3339 1.524 . S
C3340 C3341 1.397 . S
C3340 C3345 1.363 . S
C3341 H3312 0.950 . S
C3341 C3340 1.397 . S
C3341 C3342 1.334 . S
C3342 H3313 0.950 . S
C3342 C3341 1.334 . S
C3342 C3343 1.287 . S
C3343 C3342 1.287 . S
C3343 C3344 1.524 . S
C3343 H3346 0.999 . S
C3344 H3314 0.950 . S
C3344 C3343 1.524 . S
C3344 C3345 1.415 . S
C3345 H3315 0.950 . S
C3345 C3340 1.363 . S
C3345 C3344 1.415 . S
H3346 C3343 0.999 . S
H3347 C3328 0.913 . S
H3348 C3366 0.951 . S
H3349 C3368 0.951 . S
H3350 C3370 0.950 . S
H3351 C3371 0.950 . S
H3352 C3373 0.950 . S
H3353 C3376 0.950 . S
H3354 C3377 0.950 . S
H3355 C3379 0.950 . S
H3356 C3380 0.950 . S
H3357 C3381 0.951 . S
H3358 C3383 0.951 . S
H3359 C3385 0.950 . S
H3360 C3386 0.950 . S
H3361 C3388 0.950 . S
H3362 C3391 0.950 . S
H3363 C3392 0.950 . S
H3364 C3394 0.950 . S
H3365 C3395 0.950 . S
C3366 H3348 0.951 . S
C3366 C3367 1.366 . S
C3366 C3368 1.388 . S
C3367 C3366 1.366 . S
C3367 C3371 1.385 . S
C3368 H3349 0.951 . S
C3368 C3366 1.388 . S
C3368 C3369 1.366 . S
C3369 C3368 1.366 . S
C3369 C3370 1.414 . S
C3369 C3372 1.499 . S
C3370 H3350 0.950 . S
C3370 C3369 1.414 . S
C3370 C3371 1.374 . S
C3371 H3351 0.950 . S
C3371 C3367 1.385 . S
C3371 C3370 1.374 . S
C3372 C3369 1.499 . S
C3372 C3373 1.373 . S
C3372 C3374 1.389 . S
C3373 H3352 0.950 . S
C3373 C3372 1.373 . S
C3373 C3389 1.377 . S
C3374 C3372 1.389 . S
C3374 C3375 1.524 . S
C3374 C3388 1.377 . S
C3375 C3374 1.524 . S
C3375 C3376 1.397 . S
C3375 C3380 1.363 . S
C3376 H3353 0.950 . S
C3376 C3375 1.397 . S
C3376 C3377 1.334 . S
C3377 H3354 0.950 . S
C3377 C3376 1.334 . S
C3377 C3378 1.287 . S
C3378 C3377 1.287 . S
C3378 C3379 1.524 . S
C3378 H3397 0.913 . S
C3379 H3355 0.950 . S
C3379 C3378 1.524 . S
C3379 C3380 1.415 . S
C3380 H3356 0.950 . S
C3380 C3375 1.363 . S
C3380 C3379 1.415 . S
C3381 H3357 0.951 . S
C3381 C3382 1.366 . S
C3381 C3383 1.388 . S
C3382 C3381 1.366 . S
C3382 C3386 1.385 . S
C3383 H3358 0.951 . S
C3383 C3381 1.388 . S
C3383 C3384 1.366 . S
C3384 C3383 1.366 . S
C3384 C3385 1.414 . S
C3384 C3387 1.499 . S
C3385 H3359 0.950 . S
C3385 C3384 1.414 . S
C3385 C3386 1.374 . S
C3386 H3360 0.950 . S
C3386 C3382 1.385 . S
C3386 C3385 1.374 . S
C3387 C3384 1.499 . S
C3387 C3388 1.373 . S
C3387 C3389 1.389 . S
C3388 H3361 0.950 . S
C3388 C3374 1.377 . S
C3388 C3387 1.373 . S
C3389 C3373 1.377 . S
C3389 C3387 1.389 . S
C3389 C3390 1.524 . S
C3390 C3389 1.524 . S
C3390 C3391 1.397 . S
C3390 C3395 1.363 . S
C3391 H3362 0.950 . S
C3391 C3390 1.397 . S
C3391 C3392 1.334 . S
C3392 H3363 0.950 . S
C3392 C3391 1.334 . S
C3392 C3393 1.287 . S
C3393 C3392 1.287 . S
C3393 C3394 1.524 . S
C3393 H3396 0.999 . S
C3394 H3364 0.950 . S
C3394 C3393 1.524 . S
C3394 C3395 1.415 . S
C3395 H3365 0.950 . S
C3395 C3390 1.363 . S
C3395 C3394 1.415 . S
H3396 C3393 0.999 . S
H3397 C3378 0.913 . S
H3398 C3416 0.951 . S
H3399 C3418 0.951 . S
H3400 C3420 0.950 . S
H3401 C3421 0.950 . S
H3402 C3423 0.950 . S
H3403 C3426 0.950 . S
H3404 C3427 0.950 . S
H3405 C3429 0.950 . S
H3406 C3430 0.950 . S
H3407 C3431 0.951 . S
H3408 C3433 0.951 . S
H3409 C3435 0.950 . S
H3410 C3436 0.950 . S
H3411 C3438 0.950 . S
H3412 C3441 0.950 . S
H3413 C3442 0.950 . S
H3414 C3444 0.950 . S
H3415 C3445 0.950 . S
C3416 H3398 0.951 . S
C3416 C3417 1.366 . S
C3416 C3418 1.388 . S
C3417 C3416 1.366 . S
C3417 C3421 1.385 . S
C3418 H3399 0.951 . S
C3418 C3416 1.388 . S
C3418 C3419 1.366 . S
C3419 C3418 1.366 . S
C3419 C3420 1.414 . S
C3419 C3422 1.499 . S
C3420 H3400 0.950 . S
C3420 C3419 1.414 . S
C3420 C3421 1.374 . S
C3421 H3401 0.950 . S
C3421 C3417 1.385 . S
C3421 C3420 1.374 . S
C3422 C3419 1.499 . S
C3422 C3423 1.373 . S
C3422 C3424 1.389 . S
C3423 H3402 0.950 . S
C3423 C3422 1.373 . S
C3423 C3439 1.377 . S
C3424 C3422 1.389 . S
C3424 C3425 1.524 . S
C3424 C3438 1.377 . S
C3425 C3424 1.524 . S
C3425 C3426 1.397 . S
C3425 C3430 1.363 . S
C3426 H3403 0.950 . S
C3426 C3425 1.397 . S
C3426 C3427 1.334 . S
C3427 H3404 0.950 . S
C3427 C3426 1.334 . S
C3427 C3428 1.287 . S
C3428 C3427 1.287 . S
C3428 C3429 1.524 . S
C3428 H3447 0.913 . S
C3429 H3405 0.950 . S
C3429 C3428 1.524 . S
C3429 C3430 1.415 . S
C3430 H3406 0.950 . S
C3430 C3425 1.363 . S
C3430 C3429 1.415 . S
C3431 H3407 0.951 . S
C3431 C3432 1.366 . S
C3431 C3433 1.388 . S
C3432 C3431 1.366 . S
C3432 C3436 1.385 . S
C3433 H3408 0.951 . S
C3433 C3431 1.388 . S
C3433 C3434 1.366 . S
C3434 C3433 1.366 . S
C3434 C3435 1.414 . S
C3434 C3437 1.499 . S
C3435 H3409 0.950 . S
C3435 C3434 1.414 . S
C3435 C3436 1.374 . S
C3436 H3410 0.950 . S
C3436 C3432 1.385 . S
C3436 C3435 1.374 . S
C3437 C3434 1.499 . S
C3437 C3438 1.373 . S
C3437 C3439 1.389 . S
C3438 H3411 0.950 . S
C3438 C3424 1.377 . S
C3438 C3437 1.373 . S
C3439 C3423 1.377 . S
C3439 C3437 1.389 . S
C3439 C3440 1.524 . S
C3440 C3439 1.524 . S
C3440 C3441 1.397 . S
C3440 C3445 1.363 . S
C3441 H3412 0.950 . S
C3441 C3440 1.397 . S
C3441 C3442 1.334 . S
C3442 H3413 0.950 . S
C3442 C3441 1.334 . S
C3442 C3443 1.287 . S
C3443 C3442 1.287 . S
C3443 C3444 1.524 . S
C3443 H3446 0.999 . S
C3444 H3414 0.950 . S
C3444 C3443 1.524 . S
C3444 C3445 1.415 . S
C3445 H3415 0.950 . S
C3445 C3440 1.363 . S
C3445 C3444 1.415 . S
H3446 C3443 0.999 . S
H3447 C3428 0.913 . S
H3448 C3466 0.951 . S
H3449 C3468 0.951 . S
H3450 C3470 0.950 . S
H3451 C3471 0.950 . S
H3452 C3473 0.950 . S
H3453 C3476 0.950 . S
H3454 C3477 0.950 . S
H3455 C3479 0.950 . S
H3456 C3480 0.950 . S
H3457 C3481 0.951 . S
H3458 C3483 0.951 . S
H3459 C3485 0.950 . S
H3460 C3486 0.950 . S
H3461 C3488 0.950 . S
H3462 C3491 0.950 . S
H3463 C3492 0.950 . S
H3464 C3494 0.950 . S
H3465 C3495 0.950 . S
C3466 H3448 0.951 . S
C3466 C3467 1.366 . S
C3466 C3468 1.388 . S
C3467 C3466 1.366 . S
C3467 C3471 1.385 . S
C3468 H3449 0.951 . S
C3468 C3466 1.388 . S
C3468 C3469 1.366 . S
C3469 C3468 1.366 . S
C3469 C3470 1.414 . S
C3469 C3472 1.499 . S
C3470 H3450 0.950 . S
C3470 C3469 1.414 . S
C3470 C3471 1.374 . S
C3471 H3451 0.950 . S
C3471 C3467 1.385 . S
C3471 C3470 1.374 . S
C3472 C3469 1.499 . S
C3472 C3473 1.373 . S
C3472 C3474 1.389 . S
C3473 H3452 0.950 . S
C3473 C3472 1.373 . S
C3473 C3489 1.377 . S
C3474 C3472 1.389 . S
C3474 C3475 1.524 . S
C3474 C3488 1.377 . S
C3475 C3474 1.524 . S
C3475 C3476 1.397 . S
C3475 C3480 1.363 . S
C3476 H3453 0.950 . S
C3476 C3475 1.397 . S
C3476 C3477 1.334 . S
C3477 H3454 0.950 . S
C3477 C3476 1.334 . S
C3477 C3478 1.287 . S
C3478 C3477 1.287 . S
C3478 C3479 1.524 . S
C3478 H3497 0.913 . S
C3479 H3455 0.950 . S
C3479 C3478 1.524 . S
C3479 C3480 1.415 . S
C3480 H3456 0.950 . S
C3480 C3475 1.363 . S
C3480 C3479 1.415 . S
C3481 H3457 0.951 . S
C3481 C3482 1.366 . S
C3481 C3483 1.388 . S
C3482 C3481 1.366 . S
C3482 C3486 1.385 . S
C3483 H3458 0.951 . S
C3483 C3481 1.388 . S
C3483 C3484 1.366 . S
C3484 C3483 1.366 . S
C3484 C3485 1.414 . S
C3484 C3487 1.499 . S
C3485 H3459 0.950 . S
C3485 C3484 1.414 . S
C3485 C3486 1.374 . S
C3486 H3460 0.950 . S
C3486 C3482 1.385 . S
C3486 C3485 1.374 . S
C3487 C3484 1.499 . S
C3487 C3488 1.373 . S
C3487 C3489 1.389 . S
C3488 H3461 0.950 . S
C3488 C3474 1.377 . S
C3488 C3487 1.373 . S
C3489 C3473 1.377 . S
C3489 C3487 1.389 . S
C3489 C3490 1.524 . S
C3490 C3489 1.524 . S
C3490 C3491 1.397 . S
C3490 C3495 1.363 . S
C3491 H3462 0.950 . S
C3491 C3490 1.397 . S
C3491 C3492 1.334 . S
C3492 H3463 0.950 . S
C3492 C3491 1.334 . S
C3492 C3493 1.287 . S
C3493 C3492 1.287 . S
C3493 C3494 1.524 . S
C3493 H3496 0.999 . S
C3494 H3464 0.950 . S
C3494 C3493 1.524 . S
C3494 C3495 1.415 . S
C3495 H3465 0.950 . S
C3495 C3490 1.363 . S
C3495 C3494 1.415 . S
H3496 C3493 0.999 . S
H3497 C3478 0.913 . S
H3498 C3516 0.951 . S
H3499 C3518 0.951 . S
H3500 C3520 0.950 . S
H3501 C3521 0.950 . S
H3502 C3523 0.950 . S
H3503 C3526 0.950 . S
H3504 C3527 0.950 . S
H3505 C3529 0.950 . S
H3506 C3530 0.950 . S
H3507 C3531 0.951 . S
H3508 C3533 0.951 . S
H3509 C3535 0.950 . S
H3510 C3536 0.950 . S
H3511 C3538 0.950 . S
H3512 C3541 0.950 . S
H3513 C3542 0.950 . S
H3514 C3544 0.950 . S
H3515 C3545 0.950 . S
C3516 H3498 0.951 . S
C3516 C3517 1.366 . S
C3516 C3518 1.388 . S
C3517 C3516 1.366 . S
C3517 C3521 1.385 . S
C3518 H3499 0.951 . S
C3518 C3516 1.388 . S
C3518 C3519 1.366 . S
C3519 C3518 1.366 . S
C3519 C3520 1.414 . S
C3519 C3522 1.499 . S
C3520 H3500 0.950 . S
C3520 C3519 1.414 . S
C3520 C3521 1.374 . S
C3521 H3501 0.950 . S
C3521 C3517 1.385 . S
C3521 C3520 1.374 . S
C3522 C3519 1.499 . S
C3522 C3523 1.373 . S
C3522 C3524 1.389 . S
C3523 H3502 0.950 . S
C3523 C3522 1.373 . S
C3523 C3539 1.377 . S
C3524 C3522 1.389 . S
C3524 C3525 1.524 . S
C3524 C3538 1.377 . S
C3525 C3524 1.524 . S
C3525 C3526 1.397 . S
C3525 C3530 1.363 . S
C3526 H3503 0.950 . S
C3526 C3525 1.397 . S
C3526 C3527 1.334 . S
C3527 H3504 0.950 . S
C3527 C3526 1.334 . S
C3527 C3528 1.287 . S
C3528 C3527 1.287 . S
C3528 C3529 1.524 . S
C3528 H3547 0.913 . S
C3529 H3505 0.950 . S
C3529 C3528 1.524 . S
C3529 C3530 1.415 . S
C3530 H3506 0.950 . S
C3530 C3525 1.363 . S
C3530 C3529 1.415 . S
C3531 H3507 0.951 . S
C3531 C3532 1.366 . S
C3531 C3533 1.388 . S
C3532 C3531 1.366 . S
C3532 C3536 1.385 . S
C3533 H3508 0.951 . S
C3533 C3531 1.388 . S
C3533 C3534 1.366 . S
C3534 C3533 1.366 . S
C3534 C3535 1.414 . S
C3534 C3537 1.499 . S
C3535 H3509 0.950 . S
C3535 C3534 1.414 . S
C3535 C3536 1.374 . S
C3536 H3510 0.950 . S
C3536 C3532 1.385 . S
C3536 C3535 1.374 . S
C3537 C3534 1.499 . S
C3537 C3538 1.373 . S
C3537 C3539 1.389 . S
C3538 H3511 0.950 . S
C3538 C3524 1.377 . S
C3538 C3537 1.373 . S
C3539 C3523 1.377 . S
C3539 C3537 1.389 . S
C3539 C3540 1.524 . S
C3540 C3539 1.524 . S
C3540 C3541 1.397 . S
C3540 C3545 1.363 . S
C3541 H3512 0.950 . S
C3541 C3540 1.397 . S
C3541 C3542 1.334 . S
C3542 H3513 0.950 . S
C3542 C3541 1.334 . S
C3542 C3543 1.287 . S
C3543 C3542 1.287 . S
C3543 C3544 1.524 . S
C3543 H3546 0.999 . S
C3544 H3514 0.950 . S
C3544 C3543 1.524 . S
C3544 C3545 1.415 . S
C3545 H3515 0.950 . S
C3545 C3540 1.363 . S
C3545 C3544 1.415 . S
H3546 C3543 0.999 . S
H3547 C3528 0.913 . S
H3548 C3566 0.951 . S
H3549 C3568 0.951 . S
H3550 C3570 0.950 . S
H3551 C3571 0.950 . S
H3552 C3573 0.950 . S
H3553 C3576 0.950 . S
H3554 C3577 0.950 . S
H3555 C3579 0.950 . S
H3556 C3580 0.950 . S
H3557 C3581 0.951 . S
H3558 C3583 0.951 . S
H3559 C3585 0.950 . S
H3560 C3586 0.950 . S
H3561 C3588 0.950 . S
H3562 C3591 0.950 . S
H3563 C3592 0.950 . S
H3564 C3594 0.950 . S
H3565 C3595 0.950 . S
C3566 H3548 0.951 . S
C3566 C3567 1.366 . S
C3566 C3568 1.388 . S
C3567 C3566 1.366 . S
C3567 C3571 1.385 . S
C3568 H3549 0.951 . S
C3568 C3566 1.388 . S
C3568 C3569 1.366 . S
C3569 C3568 1.366 . S
C3569 C3570 1.414 . S
C3569 C3572 1.499 . S
C3570 H3550 0.950 . S
C3570 C3569 1.414 . S
C3570 C3571 1.374 . S
C3571 H3551 0.950 . S
C3571 C3567 1.385 . S
C3571 C3570 1.374 . S
C3572 C3569 1.499 . S
C3572 C3573 1.373 . S
C3572 C3574 1.389 . S
C3573 H3552 0.950 . S
C3573 C3572 1.373 . S
C3573 C3589 1.377 . S
C3574 C3572 1.389 . S
C3574 C3575 1.524 . S
C3574 C3588 1.377 . S
C3575 C3574 1.524 . S
C3575 C3576 1.397 . S
C3575 C3580 1.363 . S
C3576 H3553 0.950 . S
C3576 C3575 1.397 . S
C3576 C3577 1.334 . S
C3577 H3554 0.950 . S
C3577 C3576 1.334 . S
C3577 C3578 1.287 . S
C3578 C3577 1.287 . S
C3578 C3579 1.524 . S
C3578 H3597 0.913 . S
C3579 H3555 0.950 . S
C3579 C3578 1.524 . S
C3579 C3580 1.415 . S
C3580 H3556 0.950 . S
C3580 C3575 1.363 . S
C3580 C3579 1.415 . S
C3581 H3557 0.951 . S
C3581 C3582 1.366 . S
C3581 C3583 1.388 . S
C3582 C3581 1.366 . S
C3582 C3586 1.385 . S
C3583 H3558 0.951 . S
C3583 C3581 1.388 . S
C3583 C3584 1.366 . S
C3584 C3583 1.366 . S
C3584 C3585 1.414 . S
C3584 C3587 1.499 . S
C3585 H3559 0.950 . S
C3585 C3584 1.414 . S
C3585 C3586 1.374 . S
C3586 H3560 0.950 . S
C3586 C3582 1.385 . S
C3586 C3585 1.374 . S
C3587 C3584 1.499 . S
C3587 C3588 1.373 . S
C3587 C3589 1.389 . S
C3588 H3561 0.950 . S
C3588 C3574 1.377 . S
C3588 C3587 1.373 . S
C3589 C3573 1.377 . S
C3589 C3587 1.389 . S
C3589 C3590 1.524 . S
C3590 C3589 1.524 . S
C3590 C3591 1.397 . S
C3590 C3595 1.363 . S
C3591 H3562 0.950 . S
C3591 C3590 1.397 . S
C3591 C3592 1.334 . S
C3592 H3563 0.950 . S
C3592 C3591 1.334 . S
C3592 C3593 1.287 . S
C3593 C3592 1.287 . S
C3593 C3594 1.524 . S
C3593 H3596 0.999 . S
C3594 H3564 0.950 . S
C3594 C3593 1.524 . S
C3594 C3595 1.415 . S
C3595 H3565 0.950 . S
C3595 C3590 1.363 . S
C3595 C3594 1.415 . S
H3596 C3593 0.999 . S
H3597 C3578 0.913 . S
H3598 C3616 0.951 . S
H3599 C3618 0.951 . S
H3600 C3620 0.950 . S
H3601 C3621 0.950 . S
H3602 C3623 0.950 . S
H3603 C3626 0.950 . S
H3604 C3627 0.950 . S
H3605 C3629 0.950 . S
H3606 C3630 0.950 . S
H3607 C3631 0.951 . S
H3608 C3633 0.951 . S
H3609 C3635 0.950 . S
H3610 C3636 0.950 . S
H3611 C3638 0.950 . S
H3612 C3641 0.950 . S
H3613 C3642 0.950 . S
H3614 C3644 0.950 . S
H3615 C3645 0.950 . S
C3616 H3598 0.951 . S
C3616 C3617 1.366 . S
C3616 C3618 1.388 . S
C3617 C3616 1.366 . S
C3617 C3621 1.385 . S
C3618 H3599 0.951 . S
C3618 C3616 1.388 . S
C3618 C3619 1.366 . S
C3619 C3618 1.366 . S
C3619 C3620 1.414 . S
C3619 C3622 1.499 . S
C3620 H3600 0.950 . S
C3620 C3619 1.414 . S
C3620 C3621 1.374 . S
C3621 H3601 0.950 . S
C3621 C3617 1.385 . S
C3621 C3620 1.374 . S
C3622 C3619 1.499 . S
C3622 C3623 1.373 . S
C3622 C3624 1.389 . S
C3623 H3602 0.950 . S
C3623 C3622 1.373 . S
C3623 C3639 1.377 . S
C3624 C3622 1.389 . S
C3624 C3625 1.524 . S
C3624 C3638 1.377 . S
C3625 C3624 1.524 . S
C3625 C3626 1.397 . S
C3625 C3630 1.363 . S
C3626 H3603 0.950 . S
C3626 C3625 1.397 . S
C3626 C3627 1.334 . S
C3627 H3604 0.950 . S
C3627 C3626 1.334 . S
C3627 C3628 1.287 . S
C3628 C3627 1.287 . S
C3628 C3629 1.524 . S
C3628 H3647 0.913 . S
C3629 H3605 0.950 . S
C3629 C3628 1.524 . S
C3629 C3630 1.415 . S
C3630 H3606 0.950 . S
C3630 C3625 1.363 . S
C3630 C3629 1.415 . S
C3631 H3607 0.951 . S
C3631 C3632 1.366 . S
C3631 C3633 1.388 . S
C3632 C3631 1.366 . S
C3632 C3636 1.385 . S
C3633 H3608 0.951 . S
C3633 C3631 1.388 . S
C3633 C3634 1.366 . S
C3634 C3633 1.366 . S
C3634 C3635 1.414 . S
C3634 C3637 1.499 . S
C3635 H3609 0.950 . S
C3635 C3634 1.414 . S
C3635 C3636 1.374 . S
C3636 H3610 0.950 . S
C3636 C3632 1.385 . S
C3636 C3635 1.374 . S
C3637 C3634 1.499 . S
C3637 C3638 1.373 . S
C3637 C3639 1.389 . S
C3638 H3611 0.950 . S
C3638 C3624 1.377 . S
C3638 C3637 1.373 . S
C3639 C3623 1.377 . S
C3639 C3637 1.389 . S
C3639 C3640 1.524 . S
C3640 C3639 1.524 . S
C3640 C3641 1.397 . S
C3640 C3645 1.363 . S
C3641 H3612 0.950 . S
C3641 C3640 1.397 . S
C3641 C3642 1.334 1_556 S
C3642 H3613 0.950 . S
C3642 C3641 1.334 1_554 S
C3642 C3643 1.287 . S
C3643 C3642 1.287 . S
C3643 C3644 1.524 . S
C3643 H3646 0.999 . S
C3644 H3614 0.950 . S
C3644 C3643 1.524 . S
C3644 C3645 1.415 1_554 S
C3645 H3615 0.950 . S
C3645 C3640 1.363 . S
C3645 C3644 1.415 1_556 S
H3646 C3643 0.999 . S
H3647 C3628 0.913 . S
C467 C93 1.460 . S
C482 C9 1.460 . S
C517 C23 1.460 . S
C532 C107 1.460 . S
C567 C65 1.460 . S
C582 C37 1.461 . S
C617 C51 1.460 . S
C632 C79 1.460 . S
C667 C205 1.461 . S
C682 C121 1.460 . S
C717 C219 1.460 . S
C732 C135 1.460 . S
C767 C149 1.460 . S
C782 C177 1.461 . S
C817 C163 1.461 . S
C832 C191 1.460 . S
C867 C233 1.460 . S
C882 C317 1.460 . S
C917 C247 1.460 . S
C932 C331 1.460 . S
C967 C289 1.460 . S
C982 C261 1.460 . S
C1017 C303 1.460 . S
C1032 C275 1.460 . S
C1067 C345 1.461 . S
C1082 C429 1.460 . S
C1117 C443 1.460 . S
C1132 C359 1.461 . S
C1167 C401 1.460 . S
C1182 C373 1.461 . S
C1217 C387 1.460 . S
C1232 C415 1.460 . S
C1267 C3 1.150 . S
C1282 C427 1.146 . S
C1317 C217 1.146 . S
C1332 C17 1.150 . S
C1367 C31 1.150 . S
C1382 C399 1.145 . S
C1417 C45 1.150 . S
C1432 C189 1.145 . S
C1467 C371 1.145 . S
C1482 C59 1.150 . S
C1517 C161 1.145 . S
C1532 C73 1.150 . S
C1567 C87 1.149 . S
C1582 C343 1.146 . S
C1617 C133 1.146 . S
C1632 C101 1.149 . S
C1667 C115 1.150 . S
C1682 C315 1.145 . S
C1717 C105 1.145 . S
C1732 C129 1.150 . S
C1767 C143 1.150 . S
C1782 C287 1.145 . S
C1817 C157 1.149 . S
C1832 C77 1.146 . S
C1867 C259 1.145 . S
C1882 C171 1.150 . S
C1917 C185 1.150 . S
C1932 C49 1.145 . S
C1967 C199 1.150 . S
C1982 C231 1.145 . S
C2017 C21 1.146 . S
C2032 C213 1.149 . S
C2067 C227 1.150 . S
C2082 C203 1.145 . S
C2117 C241 1.150 . S
C2132 C441 1.145 . S
C2167 C175 1.145 . S
C2182 C255 1.150 . S
C2217 C269 1.150 . S
C2232 C413 1.146 . S
C2267 C147 1.146 . S
C2282 C283 1.149 . S
C2317 C385 1.146 . S
C2332 C297 1.149 . S
C2367 C119 1.145 . S
C2382 C311 1.150 . S
C2417 C357 1.145 . S
C2432 C325 1.150 . S
C2467 C339 1.149 . S
C2482 C91 1.145 . S
C2517 C329 1.146 . S
C2532 C353 1.149 . S
C2567 C63 1.145 . S
C2582 C367 1.150 . S
C2617 C381 1.149 . S
C2632 C301 1.146 . S
C2667 C395 1.150 . S
C2682 C35 1.146 . S
C2717 C409 1.150 . S
C2732 C273 1.145 . S
C2767 C7 1.145 . S
C2782 C423 1.150 . S
C2817 C437 1.149 . S
C2832 C245 1.146 . S
C2867 C8 1.382 . S
C2882 C302 1.382 . S
C2917 C316 1.382 . S
C2932 C22 1.382 . S
C2967 C36 1.381 . S
C2982 C330 1.381 . S
C3017 C288 1.381 . S
C3032 C50 1.381 . S
C3067 C274 1.382 . S
C3082 C64 1.382 . S
C3117 C232 1.381 . S
C3132 C78 1.381 . S
C3167 C246 1.381 . S
C3182 C92 1.381 . S
C3217 C260 1.382 . S
C3232 C106 1.382 . S
C3267 C120 1.381 . S
C3282 C414 1.382 . S
C3317 C428 1.382 . S
C3332 C134 1.381 . S
C3367 C442 1.381 . S
C3382 C148 1.381 . S
C3417 C400 1.381 . S
C3432 C162 1.381 . S
C3467 C386 1.381 . S
C3482 C176 1.381 . S
C3517 C344 1.381 . S
C3532 C190 1.381 . S
C3567 C204 1.381 . S
C3582 C358 1.381 . S
C3617 C218 1.381 . S
C3632 C372 1.381 . S
