# Generated by pormake.
# Topology sml, (6)-cn, num edge types: 1
# Building blocks:
#     Node 0, Type 0, BuildingBlock: NUHQIS_clean_sbu_0, # of connection points: 6
#     Node 1, Type 0, BuildingBlock: NUHQIS_clean_sbu_0, # of connection points: 6
#     Node 2, Type 0, BuildingBlock: NUHQIS_clean_sbu_0, # of connection points: 6
#     Node 3, Type 0, BuildingBlock: NUHQIS_clean_sbu_0, # of connection points: 6
#     Node 4, Type 0, BuildingBlock: NUHQIS_clean_sbu_0, # of connection points: 6
#     Node 5, Type 0, BuildingBlock: NUHQIS_clean_sbu_0, # of connection points: 6
#     Edge 6, Type (0, 0), BuildingBlock: AJUNOK_clean_linker_0, # of connection points: 2
#     Edge 7, Type (0, 0), BuildingBlock: AJUNOK_clean_linker_0, # of connection points: 2
#     Edge 8, Type (0, 0), BuildingBlock: AJUNOK_clean_linker_0, # of connection points: 2
#     Edge 9, Type (0, 0), BuildingBlock: AJUNOK_clean_linker_0, # of connection points: 2
#     Edge 10, Type (0, 0), BuildingBlock: AJUNOK_clean_linker_0, # of connection points: 2
#     Edge 11, Type (0, 0), BuildingBlock: AJUNOK_clean_linker_0, # of connection points: 2
#     Edge 12, Type (0, 0), BuildingBlock: AJUNOK_clean_linker_0, # of connection points: 2
#     Edge 13, Type (0, 0), BuildingBlock: AJUNOK_clean_linker_0, # of connection points: 2
#     Edge 14, Type (0, 0), BuildingBlock: AJUNOK_clean_linker_0, # of connection points: 2
#     Edge 15, Type (0, 0), BuildingBlock: AJUNOK_clean_linker_0, # of connection points: 2
#     Edge 16, Type (0, 0), BuildingBlock: AJUNOK_clean_linker_0, # of connection points: 2
#     Edge 17, Type (0, 0), BuildingBlock: AJUNOK_clean_linker_0, # of connection points: 2
#     Edge 18, Type (0, 0), BuildingBlock: AJUNOK_clean_linker_0, # of connection points: 2
#     Edge 19, Type (0, 0), BuildingBlock: AJUNOK_clean_linker_0, # of connection points: 2
#     Edge 20, Type (0, 0), BuildingBlock: AJUNOK_clean_linker_0, # of connection points: 2
#     Edge 21, Type (0, 0), BuildingBlock: AJUNOK_clean_linker_0, # of connection points: 2
#     Edge 22, Type (0, 0), BuildingBlock: AJUNOK_clean_linker_0, # of connection points: 2
#     Edge 23, Type (0, 0), BuildingBlock: AJUNOK_clean_linker_0, # of connection points: 2
# Relax obj value: 0.237
# Max RMSD: 0.268
# Mean RMSD: 0.268
data_MOF--net-sml--node1-NUHQIS_clean_sbu_0--edge1-AJUNOK_clean_linker_0
_symmetry_space_group_name_H-M    P1
_symmetry_Int_Tables_number       1
_symmetry_cell_setting            triclinic
loop_
_symmetry_equiv_pos_as_xyz
'x, y, z'
_cell_length_a     22.857166
_cell_length_b     22.750396
_cell_length_c     19.517001
_cell_angle_alpha  90.153398
_cell_angle_beta   89.694098
_cell_angle_gamma 119.70251
loop_
_atom_site_label
_atom_site_type_symbol
_atom_site_fract_x
_atom_site_fract_y
_atom_site_fract_z
_atom_type_partial_charge
Tb0 Tb 0.22936 0.40669 0.24955 0.0
Eu1 Eu 0.11538 0.39281 0.13512 0.0
C2 C 0.17456 0.29298 0.13855 0.0
C3 C 0.27158 0.47788 0.10943 0.0
C4 C 0.29284 0.43212 0.41995 0.0
C5 C 0.30458 0.42243 0.54272 0.0
C6 C 0.32593 0.4218 0.4751 0.0
C7 C 0.23982 0.44495 0.43343 0.0
C8 C 0.21831 0.44509 0.50024 0.0
C9 C 0.24948 0.43259 0.55553 0.0
C10 C 0.3063 0.42187 0.34813 0.0
O11 O 0.21271 0.49308 0.25905 0.0
O12 O 0.10453 0.45181 0.22078 0.0
O13 O 0.0551 0.32026 0.21908 0.0
O14 O 0.13516 0.36453 0.30446 0.0
C15 C 0.15513 0.49325 0.2593 0.0
O16 O 0.07972 0.44264 0.06488 0.0
O17 O 0.03715 0.33387 0.06036 0.0
O18 O 0.16228 0.33231 0.09978 0.0
O19 O 0.19068 0.3074 0.20327 0.0
O20 O 0.28333 0.44059 0.15234 0.0
O21 O 0.21673 0.48194 0.11523 0.0
C22 C 0.07305 0.32625 0.28385 0.0
O23 O 0.26315 0.36302 0.3231 0.0
O24 O 0.3167 0.47049 0.3058 0.0
C25 C 0.06644 0.39356 0.95463 0.0
C26 C 0.12465 0.40709 0.82315 0.0
C27 C 0.13058 0.46398 0.85778 0.0
C28 C 0.10152 0.45729 0.92264 0.0
C29 C 0.05801 0.33631 0.91842 0.0
C30 C 0.08643 0.34298 0.85327 0.0
C31 C 0.04626 0.38803 1.02792 0.0
H32 H 0.32911 0.41216 0.58462 0.0
H33 H 0.36646 0.41104 0.46583 0.0
H34 H 0.21312 0.45238 0.39192 0.0
H35 H 0.17603 0.45336 0.50863 0.0
H36 H 0.15831 0.51378 0.83499 0.0
H37 H 0.10864 0.50246 0.9487 0.0
H38 H 0.03102 0.28639 0.94116 0.0
H39 H 0.08044 0.29816 0.82739 0.0
Tb40 Tb 0.73799 0.18031 0.54857 0.0
Eu41 Eu 0.85076 0.2784 0.6643 0.0
C42 C 0.79773 0.1211 0.65209 0.0
C43 C 0.69031 0.18607 0.69557 0.0
C44 C 0.67908 0.13846 0.37336 0.0
C45 C 0.71779 0.122 0.26219 0.0
C46 C 0.69268 0.09856 0.32805 0.0
C47 C 0.68751 0.20073 0.34995 0.0
C48 C 0.71168 0.22366 0.28371 0.0
C49 C 0.72878 0.18535 0.23985 0.0
C50 C 0.66595 0.11933 0.44675 0.0
O51 O 0.73283 0.27184 0.56671 0.0
O52 O 0.84319 0.34715 0.58685 0.0
O53 O 0.90829 0.26914 0.57384 0.0
O54 O 0.82739 0.25002 0.49432 0.0
C55 C 0.78474 0.333 0.56146 0.0
O56 O 0.88575 0.36251 0.73658 0.0
O57 O 0.93599 0.30296 0.73143 0.0
O58 O 0.81116 0.1707 0.69455 0.0
O59 O 0.78716 0.12626 0.58699 0.0
O60 O 0.68233 0.14612 0.64346 0.0
O61 O 0.74583 0.24454 0.70416 0.0
C62 C 0.88911 0.26652 0.50982 0.0
O63 O 0.70784 0.10341 0.47472 0.0
O64 O 0.65414 0.15822 0.48695 0.0
C65 C 0.91178 0.33052 0.84196 0.0
C66 C 0.86166 0.29157 0.97686 0.0
C67 C 0.87574 0.35492 0.95101 0.0
C68 C 0.90085 0.37432 0.88428 0.0
C69 C 0.90046 0.26848 0.86916 0.0
C70 C 0.87618 0.2495 0.936 0.0
C71 C 0.92557 0.34539 0.76775 0.0
H72 H 0.72999 0.09121 0.22915 0.0
H73 H 0.68682 0.05053 0.34472 0.0
H74 H 0.67829 0.23323 0.38362 0.0
H75 H 0.72024 0.27296 0.26806 0.0
H76 H 0.86587 0.38874 0.98188 0.0
H77 H 0.90897 0.42233 0.86472 0.0
H78 H 0.90831 0.23343 0.83819 0.0
H79 H 0.86596 0.20051 0.95472 0.0
Tb80 Tb 0.5434 0.80268 0.89006 0.0
Eu81 Eu 0.5555 0.70182 0.77386 0.0
C82 C 0.65363 0.86087 0.77585 0.0
C83 C 0.46991 0.77684 0.75284 0.0
C84 C 0.52132 0.84346 0.06297 0.0
C85 C 0.56222 0.86441 0.18033 0.0
C86 C 0.56254 0.88806 0.11404 0.0
C87 C 0.47812 0.77511 0.07998 0.0
C88 C 0.47738 0.7516 0.14627 0.0
C89 C 0.52024 0.79566 0.197 0.0
C90 C 0.53166 0.86544 0.99053 0.0
O91 O 0.45395 0.70273 0.89351 0.0
O92 O 0.49473 0.63317 0.85983 0.0
O93 O 0.62884 0.71523 0.85748 0.0
O94 O 0.58035 0.74577 0.9441 0.0
C95 C 0.45244 0.64425 0.89551 0.0
O96 O 0.50532 0.61855 0.7008 0.0
O97 O 0.61424 0.67679 0.70339 0.0
O98 O 0.61559 0.80867 0.7373 0.0
O99 O 0.64113 0.86136 0.8414 0.0
O100 O 0.5084 0.82493 0.79571 0.0
O101 O 0.46901 0.71883 0.75051 0.0
C102 C 0.62158 0.7253 0.92272 0.0
O103 O 0.5896 0.87848 0.96489 0.0
O104 O 0.48247 0.82961 0.94833 0.0
C105 C 0.56163 0.65224 0.59443 0.0
C106 C 0.54819 0.69375 0.46189 0.0
C107 C 0.50331 0.62784 0.4849 0.0
C108 C 0.50974 0.60739 0.55086 0.0
C109 C 0.6085 0.7169 0.56966 0.0
C110 C 0.60183 0.7373 0.50417 0.0
C111 C 0.56131 0.63542 0.6678 0.0
H112 H 0.5971 0.89943 0.21758 0.0
H113 H 0.59735 0.94055 0.10182 0.0
H114 H 0.44669 0.73906 1.04141 0.0
H115 H 0.44431 0.69847 0.15741 0.0
H116 H 0.46171 0.59317 0.45301 0.0
H117 H 0.47277 0.55746 0.56875 0.0
H118 H 0.64897 0.75299 0.60176 0.0
H119 H 0.63777 0.78794 0.48712 0.0
Tb120 Tb 0.76869 0.53372 0.19288 0.0
Eu121 Eu 0.67123 0.5597 0.3048 0.0
C122 C 0.82913 0.65523 0.29297 0.0
C123 C 0.74569 0.47697 0.34008 0.0
C124 C 0.81649 0.51471 1.01872 0.0
C125 C 0.84106 0.57907 0.9122 0.0
C126 C 0.85821 0.57255 0.97955 0.0
C127 C 0.75983 0.46146 0.98681 0.0
C128 C 0.74234 0.46817 0.91966 0.0
C129 C 0.78128 0.5282 0.8823 0.0
C130 C 0.82835 0.51367 0.09384 0.0
O131 O 0.66827 0.44618 0.20169 0.0
O132 O 0.59999 0.49093 0.22538 0.0
O133 O 0.68285 0.62533 0.21296 0.0
O134 O 0.71296 0.56878 0.13433 0.0
C135 C 0.61089 0.44589 0.19478 0.0
O136 O 0.58996 0.51655 0.38081 0.0
O137 O 0.65523 0.62529 0.37542 0.0
O138 O 0.77876 0.62001 0.33451 0.0
O139 O 0.8275 0.63723 0.22892 0.0
O140 O 0.79208 0.50699 0.29231 0.0
O141 O 0.68736 0.47425 0.33532 0.0
C142 C 0.69243 0.61172 0.14937 0.0
O143 O 0.85167 0.57146 0.12542 0.0
O144 O 0.78095 0.46496 0.12989 0.0
C145 C 0.63286 0.57374 0.48626 0.0
C146 C 0.67946 0.56305 0.61812 0.0
C147 C 0.61689 0.51208 0.59346 0.0
C148 C 0.59384 0.51742 0.52847 0.0
C149 C 0.6945 0.62565 0.51187 0.0
C150 C 0.7175 0.62026 0.57671 0.0
C151 C 0.61335 0.57408 0.41342 0.0
H152 H 0.87393 0.62483 0.88414 0.0
H153 H 0.90296 0.61406 1.00191 0.0
H154 H 0.72735 0.41551 1.0145 0.0
H155 H 0.69634 0.42752 0.89832 0.0
H156 H 0.58603 0.46757 0.62417 0.0
H157 H 0.54627 0.47645 0.51036 0.0
H158 H 0.72634 0.66963 0.48096 0.0
H159 H 0.76639 0.65998 0.59335 0.0
Tb160 Tb 0.11258 0.74099 0.57887 0.0
Eu161 Eu 0.22237 0.84271 0.45947 0.0
C162 C 0.06353 0.78438 0.45082 0.0
C163 C 0.13859 0.68199 0.44405 0.0
C164 C 0.05707 0.70036 0.75285 0.0
C165 C 0.03594 0.68235 0.87525 0.0
C166 C 0.01629 0.66126 0.80742 0.0
C167 C 0.11719 0.76023 0.76668 0.0
C168 C 0.13662 0.78121 0.8337 0.0
C169 C 0.09635 0.74274 0.88872 0.0
C170 C 0.03998 0.67999 0.68097 0.0
O171 O 0.21193 0.7769 0.62048 0.0
O172 O 0.27748 0.80316 0.52306 0.0
O173 O 0.24716 0.90144 0.5572 0.0
O174 O 0.13789 0.84587 0.58995 0.0
C175 C 0.26662 0.78698 0.58834 0.0
O176 O 0.30009 0.86242 0.38353 0.0
O177 O 0.26359 0.9336 0.3959 0.0
O178 O 0.123 0.83835 0.44356 0.0
O179 O 0.05202 0.73409 0.49185 0.0
O180 O 0.12817 0.67418 0.51052 0.0
O181 O 0.16057 0.74015 0.41307 0.0
C182 C 0.19977 0.89394 0.60007 0.0
O183 O 0.03126 0.72237 0.64349 0.0
O184 O 0.07939 0.66183 0.65047 0.0
C185 C 0.27482 0.90124 0.28268 0.0
C186 C 0.21599 0.853 0.15319 0.0
C187 C 0.26988 0.8447 0.17512 0.0
C188 C 0.2991 0.86871 0.23917 0.0
C189 C 0.22394 0.91357 0.25863 0.0
C190 C 0.19521 0.89012 0.19426 0.0
C191 C 0.29473 0.91169 0.35567 0.0
H192 H 0.00396 0.65193 0.91696 0.0
H193 H -0.03024 0.61472 0.79766 0.0
H194 H 0.14951 0.79062 0.72535 0.0
H195 H 0.18386 0.82717 0.84266 0.0
H196 H 0.2885 0.81837 0.14331 0.0
H197 H 0.33869 0.8591 0.256 0.0
H198 H 0.20409 0.93866 0.29059 0.0
H199 H 0.15436 0.89803 0.17812 0.0
Tb200 Tb 0.36114 0.17757 0.8791 0.0
Eu201 Eu 0.36509 0.0744 0.99695 0.0
C202 C 0.25836 0.12658 1.00055 0.0
C203 C 0.4281 0.23537 1.01654 0.0
C204 C 0.38453 0.24088 0.70617 0.0
C205 C 0.36549 0.23633 0.58354 0.0
C206 C 0.35305 0.25131 0.64982 0.0
C207 C 0.4305 0.21764 0.69521 0.0
C208 C 0.44313 0.20295 0.62912 0.0
C209 C 0.40967 0.21072 0.57272 0.0
C210 C 0.36289 0.24488 0.77637 0.0
O211 O 0.46019 0.1857 0.8786 0.0
O212 O 0.43193 0.07794 0.91059 0.0
O213 O 0.28614 0.00717 0.9214 0.0
O214 O 0.33515 0.08192 0.83253 0.0
C215 C 0.47178 0.13472 0.87876 0.0
O216 O 0.42801 0.05301 0.06484 0.0
O217 O 0.31931 -0.00709 0.07204 0.0
O218 O 0.29846 0.11289 1.03634 0.0
O219 O 0.26585 0.13594 0.93397 0.0
O220 O 0.38825 0.23859 0.97075 0.0
O221 O 0.43806 0.18342 1.02103 0.0
C222 C 0.29159 0.02213 0.85605 0.0
O223 O 0.30919 0.1903 0.79716 0.0
O224 O 0.40999 0.2681 0.82279 0.0
C225 C 0.3806 0.03424 0.17472 0.0
C226 C 0.40112 0.09522 0.30494 0.0
C227 C 0.43736 0.06285 0.28497 0.0
C228 C 0.42755 0.03303 0.21995 0.0
C229 C 0.34314 0.0649 0.19579 0.0
C230 C 0.35307 0.09474 0.26021 0.0
C231 C 0.37667 0.01235 0.10289 0.0
H232 H 0.3379 0.24152 0.54124 0.0
H233 H 0.31664 0.26812 0.65734 0.0
H234 H 0.45473 0.20824 0.738 0.0
H235 H 0.47753 0.18353 0.62232 0.0
H236 H 0.47441 0.06223 0.31889 0.0
H237 H 0.45759 0.01046 0.20441 0.0
H238 H 0.30692 0.06707 0.16195 0.0
H239 H 0.32332 0.11788 0.27494 0.0
C240 C 0.22741 0.16217 0.10902 0.0
C241 C 0.21782 0.1506 1.03795 0.0
C242 C 0.20878 0.20473 0.14255 0.0
C243 C 0.1795 0.2368 0.10632 0.0
H244 H 0.25458 0.14304 0.13823 0.0
H245 H 0.22183 0.21604 0.1961 0.0
S246 S 0.12479 0.20635 0.92451 0.0
N247 N 0.16362 0.16234 0.93597 0.0
N248 N 0.12793 0.24205 0.99915 0.0
C249 C 0.16143 0.21843 1.03742 0.0
C250 C 0.1806 0.17515 1.0032 0.0
C251 C 0.03468 0.28399 0.40182 0.0
C252 C 0.02152 0.30303 0.33764 0.0
C253 C -0.00745 0.27362 0.45821 0.0
C254 C 0.93636 0.28261 0.45215 0.0
H255 H 0.07863 0.27829 0.40874 0.0
H256 H 0.0038 0.25808 0.5065 0.0
S257 S 0.88553 0.34095 0.29716 0.0
N258 N 0.95175 0.33543 0.27248 0.0
N259 N 0.87266 0.31669 0.37802 0.0
C260 C 0.92345 0.30288 0.38832 0.0
C261 C -0.03408 0.31272 0.33103 0.0
C262 C 0.73754 -0.0043 0.64101 0.0
C263 C 0.77779 0.05366 0.68047 0.0
C264 C 0.70141 0.93207 0.67168 0.0
C265 C 0.70427 0.92425 0.74286 0.0
H266 H 0.72951 -0.00011 0.587 0.0
H267 H 0.66739 0.88983 0.63991 0.0
S268 S 0.81669 0.05704 0.86534 0.0
N269 N 0.82922 0.09703 0.79162 0.0
N270 N 0.76093 -0.02279 0.8495 0.0
C271 C 0.75049 -0.01968 0.7814 0.0
C272 C 0.78747 0.04515 0.75008 0.0
C273 C 0.66471 0.73297 1.04048 0.0
C274 C 0.64924 0.70093 0.97598 0.0
C275 C 0.67825 0.70383 0.09687 0.0
C276 C 0.67638 0.64155 0.09052 0.0
H277 H 0.66461 0.78017 1.04781 0.0
H278 H 0.68999 0.7301 0.14559 0.0
S279 S 0.63152 0.5342 0.93391 0.0
N280 N 0.62949 0.60253 0.90962 0.0
N281 N 0.65388 0.54669 1.01518 0.0
C282 C 0.66086 0.60896 1.02599 0.0
C283 C 0.64782 0.63908 0.96866 0.0
C284 C 0.9482 0.76088 0.43059 0.0
C285 C 0.01019 0.77367 0.40368 0.0
C286 C 0.89023 0.72912 0.39079 0.0
C287 C 0.89242 0.7073 0.32367 0.0
H288 H 0.94372 0.77106 0.48408 0.0
H289 H 0.84264 0.71659 0.41491 0.0
S290 S 0.0456 0.73788 0.22789 0.0
N291 N 0.0732 0.77062 0.30452 0.0
N292 N -0.03646 0.70883 0.22941 0.0
C293 C 0.95551 0.72595 0.29414 0.0
C294 C 0.01479 0.75947 0.33457 0.0
C295 C 0.29362 0.94829 0.76683 0.0
C296 C 0.2561 0.97063 0.80451 0.0
C297 C 0.27586 0.92524 0.69977 0.0
C298 C 0.21846 0.92148 0.66943 0.0
H299 H 0.33941 0.95285 0.78785 0.0
H300 H 0.30758 0.91065 0.67155 0.0
S301 S 0.09794 0.96427 0.75161 0.0
N302 N 0.1566 -0.01723 0.81007 0.0
N303 N 0.1197 0.93418 0.685 0.0
C304 C 0.17715 0.93795 0.70897 0.0
C305 C 0.19664 0.96352 0.7766 0.0
C306 C 0.12121 0.37384 0.70022 0.0
C307 C 0.15838 0.41424 0.75585 0.0
C308 C 0.15149 0.37978 0.63607 0.0
C309 C 0.22041 0.42559 0.62526 0.0
H310 H 0.06803 0.33799 0.70604 0.0
H311 H 0.12066 0.34819 0.59442 0.0
S312 S 0.34071 0.54101 0.75476 0.0
N313 N 0.26833 0.5004 0.79651 0.0
N314 N 0.32527 0.51124 0.67565 0.0
C315 C 0.25855 0.46544 0.68064 0.0
C316 C 0.2275 0.45997 0.74593 0.0
C317 C 0.82286 0.21518 0.1559 0.0
C318 C 0.76186 0.21312 0.17263 0.0
C319 C 0.85545 0.24162 0.09306 0.0
C320 C 0.82842 0.26727 1.04469 0.0
H321 H 0.84589 0.1967 0.19197 0.0
H322 H 0.90212 0.24195 0.08221 0.0
S323 S 0.66693 0.26757 0.06103 0.0
N324 N 0.67394 0.23548 0.13425 0.0
N325 N 0.73505 0.28508 1.01607 0.0
C326 C 0.76721 0.26496 0.06054 0.0
C327 C 0.73401 0.23797 0.1245 0.0
C328 C 0.53391 0.68394 0.33416 0.0
C329 C 0.53791 0.7186 0.39521 0.0
C330 C 0.5275 0.70883 0.27051 0.0
C331 C 0.52407 0.76894 0.26558 0.0
H332 H 0.53735 0.63815 0.33547 0.0
H333 H 0.52673 0.68151 0.22467 0.0
S334 S 0.52437 0.87398 0.41164 0.0
N335 N 0.53325 0.81323 0.44759 0.0
N336 N 0.51973 0.85922 0.32839 0.0
C337 C 0.52577 0.80272 0.32669 0.0
C338 C 0.53292 0.77771 0.39133 0.0
C339 C 0.72914 0.48615 0.76558 0.0
C340 C 0.75753 0.53883 0.81426 0.0
C341 C 0.70389 0.49426 0.70277 0.0
C342 C 0.70602 0.55547 0.68566 0.0
H343 H 0.72673 0.43824 0.77586 0.0
H344 H 0.68326 0.45241 0.6669 0.0
S345 S 0.77063 0.70762 0.79668 0.0
N346 N 0.78266 0.65336 0.8419 0.0
N347 N 0.73676 0.66882 0.72391 0.0
C348 C 0.73402 0.60843 0.73387 0.0
C349 C 0.75934 0.60009 0.79795 0.0
C350 C 0.14009 0.83446 0.97662 0.0
C351 C 0.11925 0.76678 0.95939 0.0
C352 C 0.16972 0.86144 1.04002 0.0
C353 C 0.18074 0.82211 0.0881 0.0
H354 H 0.13451 0.8672 0.94018 0.0
H355 H 0.18578 0.91402 1.05061 0.0
S356 S 0.13043 0.64059 0.07019 0.0
N357 N 0.10817 0.65994 0.99694 0.0
N358 N 0.16376 0.71058 0.11648 0.0
C359 C 0.15794 0.75365 0.07256 0.0
C360 C 0.12711 0.72597 1.00817 0.0
C361 C 0.40788 0.12056 0.49743 0.0
C362 C 0.41563 0.18576 0.50405 0.0
C363 C 0.40631 0.09269 0.43285 0.0
C364 C 0.41195 0.1288 0.37259 0.0
H365 H 0.40029 0.08971 0.54239 0.0
H366 H 0.39786 0.0415 0.43005 0.0
S367 S 0.44354 0.30506 0.36207 0.0
N368 N 0.43658 0.28839 0.44499 0.0
N369 N 0.43305 0.23577 0.32352 0.0
C370 C 0.42325 0.1953 0.37851 0.0
C371 C 0.4251 0.22378 0.44424 0.0
C372 C 0.19554 0.57187 0.35885 0.0
C373 C 0.14726 0.53943 0.30701 0.0
C374 C 0.18936 0.61442 0.40635 0.0
C375 C 0.13551 0.62708 0.40291 0.0
H376 H 0.23904 0.56508 0.36272 0.0
H377 H 0.22855 0.63987 0.44426 0.0
S378 S -0.00444 0.55617 0.27838 0.0
N379 N 0.04258 0.52255 0.25652 0.0
N380 N 0.03311 0.60534 0.34497 0.0
C381 C 0.08671 0.59542 0.35205 0.0
C382 C 0.09204 0.55081 0.30425 0.0
C383 C 0.6465 0.20124 0.8077 0.0
C384 C 0.63427 0.16702 0.7445 0.0
C385 C 0.59361 0.1885 0.85266 0.0
C386 C 0.52715 0.14047 0.83631 0.0
H387 H 0.69708 0.23919 0.8221 0.0
H388 H 0.60455 0.2173 0.89979 0.0
S389 S 0.46714 0.03908 0.67733 0.0
N390 N 0.54972 0.08367 0.66797 0.0
N391 N 0.45091 0.0603 0.75309 0.0
C392 C 0.51408 0.10524 0.77428 0.0
C393 C 0.56761 0.11823 0.7282 0.0
C394 C 0.29916 0.55029 1.00598 0.0
C395 C 0.318 0.51524 1.05237 0.0
C396 C 0.3417 0.58872 0.95283 0.0
C397 C 0.40444 0.59305 0.94308 0.0
H398 H 0.25154 0.54946 1.01118 0.0
H399 H 0.32596 0.61671 0.92004 0.0
S400 S 0.47667 0.50816 1.04658 0.0
N401 N 0.40288 0.48498 0.08272 0.0
N402 N 0.48293 0.55725 0.98147 0.0
C403 C 0.42307 0.55605 0.98664 0.0
C404 C 0.37984 0.51719 1.04171 0.0
C405 C 0.83108 0.41777 0.46717 0.0
C406 C 0.77884 0.37963 0.51393 0.0
C407 C 0.82032 0.44954 0.411 0.0
C408 C 0.75719 0.44461 0.40033 0.0
H409 H 0.87935 0.41999 0.47179 0.0
H410 H 0.8613 0.47688 0.37511 0.0
S411 S 0.60666 0.35655 0.51427 0.0
N412 N 0.66421 0.34317 0.55004 0.0
N413 N 0.64328 0.40278 0.44571 0.0
C414 C 0.70573 0.40946 0.44944 0.0
C415 C 0.71682 0.37711 0.50603 0.0
C416 C 0.38752 0.82977 0.61785 0.0
C417 C 0.31877 0.78411 0.62957 0.0
C418 C 0.43699 0.82943 0.65993 0.0
C419 C 0.41873 0.78266 0.71374 0.0
H420 H 0.40302 0.86647 0.57674 0.0
H421 H 0.48961 0.86468 0.64944 0.0
S422 S 0.24638 0.65272 0.76523 0.0
N423 N 0.23544 0.6914 0.69919 0.0
N424 N 0.32858 0.69015 0.7769 0.0
C425 C 0.35053 0.7369 0.72579 0.0
C426 C 0.30037 0.73781 0.68398 0.0
C427 C 0.58509 0.37012 0.09584 0.0
C428 C 0.5613 0.39615 0.14751 0.0
C429 C 0.5411 0.32045 1.05121 0.0
C430 C 0.47175 0.29505 1.05658 0.0
H431 H 0.63827 0.38755 0.09028 0.0
H432 H 0.56132 0.30055 1.01306 0.0
S433 S 0.38312 0.3484 0.17948 0.0
N434 N 0.46367 0.39546 0.19909 0.0
N435 N 0.38013 0.30063 0.1141 0.0
C436 C 0.44676 0.32234 0.10549 0.0
C437 C 0.49189 0.37342 0.15141 0.0
loop_
_geom_bond_atom_site_label_1
_geom_bond_atom_site_label_2
_geom_bond_distance
_geom_bond_site_symmetry_2
_ccdc_geom_bond_type
Tb0 C10 2.825 . S
Tb0 O11 2.347 . S
Tb0 O14 2.366 . S
Tb0 O19 2.418 . S
Tb0 O20 2.384 . S
Tb0 O23 2.479 . S
Tb0 O24 2.471 . S
Eu1 O12 2.418 . S
Eu1 O13 2.384 . S
Eu1 O16 2.479 1_554 S
Eu1 O17 2.471 1_554 S
Eu1 O18 2.347 . S
Eu1 O21 2.366 . S
Eu1 C31 2.825 1_554 S
C2 O18 1.259 . S
C2 O19 1.265 . S
C3 O20 1.255 . S
C3 O21 1.265 . S
C4 C6 1.380 . S
C4 C7 1.374 . S
C4 C10 1.507 . S
C5 C6 1.384 . S
C5 C9 1.387 . S
C5 H32 0.930 . S
C6 C4 1.380 . S
C6 C5 1.384 . S
C6 H33 0.931 . S
C7 C4 1.374 . S
C7 C8 1.390 . S
C7 H34 0.930 . S
C8 C7 1.390 . S
C8 C9 1.391 . S
C8 H35 0.930 . S
C9 C5 1.387 . S
C9 C8 1.391 . S
C10 Tb0 2.825 . S
C10 C4 1.507 . S
C10 O23 1.238 . S
C10 O24 1.247 . S
O11 Tb0 2.347 . S
O11 C15 1.259 . S
O12 Eu1 2.418 . S
O12 C15 1.265 . S
O13 Eu1 2.384 . S
O13 C22 1.255 . S
O14 Tb0 2.366 . S
O14 C22 1.265 . S
C15 O11 1.259 . S
C15 O12 1.265 . S
O16 Eu1 2.479 1_556 S
O16 C31 1.238 . S
O17 Eu1 2.471 1_556 S
O17 C31 1.247 . S
O18 Eu1 2.347 . S
O18 C2 1.259 . S
O19 Tb0 2.418 . S
O19 C2 1.265 . S
O20 Tb0 2.384 . S
O20 C3 1.255 . S
O21 Eu1 2.366 . S
O21 C3 1.265 . S
C22 O13 1.255 . S
C22 O14 1.265 . S
O23 Tb0 2.479 . S
O23 C10 1.238 . S
O24 Tb0 2.471 . S
O24 C10 1.247 . S
C25 C28 1.380 . S
C25 C29 1.374 . S
C25 C31 1.507 . S
C26 C27 1.387 . S
C26 C30 1.391 . S
C27 C26 1.387 . S
C27 C28 1.384 . S
C27 H36 0.930 . S
C28 C25 1.380 . S
C28 C27 1.384 . S
C28 H37 0.931 . S
C29 C25 1.374 . S
C29 C30 1.390 . S
C29 H38 0.930 . S
C30 C26 1.391 . S
C30 C29 1.390 . S
C30 H39 0.930 . S
C31 Eu1 2.825 1_556 S
C31 O16 1.238 . S
C31 O17 1.247 . S
C31 C25 1.507 . S
H32 C5 0.930 . S
H33 C6 0.931 . S
H34 C7 0.930 . S
H35 C8 0.930 . S
H36 C27 0.930 . S
H37 C28 0.931 . S
H38 C29 0.930 . S
H39 C30 0.930 . S
Tb40 C50 2.825 . S
Tb40 O51 2.347 . S
Tb40 O54 2.366 . S
Tb40 O59 2.418 . S
Tb40 O60 2.384 . S
Tb40 O63 2.479 . S
Tb40 O64 2.471 . S
Eu41 O52 2.418 . S
Eu41 O53 2.384 . S
Eu41 O56 2.479 . S
Eu41 O57 2.471 . S
Eu41 O58 2.347 . S
Eu41 O61 2.366 . S
Eu41 C71 2.825 . S
C42 O58 1.259 . S
C42 O59 1.265 . S
C43 O60 1.255 . S
C43 O61 1.265 . S
C44 C46 1.380 . S
C44 C47 1.374 . S
C44 C50 1.507 . S
C45 C46 1.384 . S
C45 C49 1.387 . S
C45 H72 0.930 . S
C46 C44 1.380 . S
C46 C45 1.384 . S
C46 H73 0.931 . S
C47 C44 1.374 . S
C47 C48 1.390 . S
C47 H74 0.930 . S
C48 C47 1.390 . S
C48 C49 1.391 . S
C48 H75 0.930 . S
C49 C45 1.387 . S
C49 C48 1.391 . S
C50 Tb40 2.825 . S
C50 C44 1.507 . S
C50 O63 1.238 . S
C50 O64 1.247 . S
O51 Tb40 2.347 . S
O51 C55 1.259 . S
O52 Eu41 2.418 . S
O52 C55 1.265 . S
O53 Eu41 2.384 . S
O53 C62 1.255 . S
O54 Tb40 2.366 . S
O54 C62 1.265 . S
C55 O51 1.259 . S
C55 O52 1.265 . S
O56 Eu41 2.479 . S
O56 C71 1.238 . S
O57 Eu41 2.471 . S
O57 C71 1.247 . S
O58 Eu41 2.347 . S
O58 C42 1.259 . S
O59 Tb40 2.418 . S
O59 C42 1.265 . S
O60 Tb40 2.384 . S
O60 C43 1.255 . S
O61 Eu41 2.366 . S
O61 C43 1.265 . S
C62 O53 1.255 . S
C62 O54 1.265 . S
O63 Tb40 2.479 . S
O63 C50 1.238 . S
O64 Tb40 2.471 . S
O64 C50 1.247 . S
C65 C68 1.380 . S
C65 C69 1.374 . S
C65 C71 1.507 . S
C66 C67 1.387 . S
C66 C70 1.391 . S
C67 C66 1.387 . S
C67 C68 1.384 . S
C67 H76 0.930 . S
C68 C65 1.380 . S
C68 C67 1.384 . S
C68 H77 0.931 . S
C69 C65 1.374 . S
C69 C70 1.390 . S
C69 H78 0.930 . S
C70 C66 1.391 . S
C70 C69 1.390 . S
C70 H79 0.930 . S
C71 Eu41 2.825 . S
C71 O56 1.238 . S
C71 O57 1.247 . S
C71 C65 1.507 . S
H72 C45 0.930 . S
H73 C46 0.931 . S
H74 C47 0.930 . S
H75 C48 0.930 . S
H76 C67 0.930 . S
H77 C68 0.931 . S
H78 C69 0.930 . S
H79 C70 0.930 . S
Tb80 C90 2.825 . S
Tb80 O91 2.347 . S
Tb80 O94 2.366 . S
Tb80 O99 2.418 . S
Tb80 O100 2.384 . S
Tb80 O103 2.479 . S
Tb80 O104 2.471 . S
Eu81 O92 2.418 . S
Eu81 O93 2.384 . S
Eu81 O96 2.479 . S
Eu81 O97 2.471 . S
Eu81 O98 2.347 . S
Eu81 O101 2.366 . S
Eu81 C111 2.825 . S
C82 O98 1.259 . S
C82 O99 1.265 . S
C83 O100 1.255 . S
C83 O101 1.265 . S
C84 C86 1.380 . S
C84 C87 1.374 . S
C84 C90 1.507 1_554 S
C85 C86 1.384 . S
C85 C89 1.387 . S
C85 H112 0.930 . S
C86 C84 1.380 . S
C86 C85 1.384 . S
C86 H113 0.931 . S
C87 C84 1.374 . S
C87 C88 1.390 . S
C87 H114 0.930 . S
C88 C87 1.390 . S
C88 C89 1.391 . S
C88 H115 0.930 . S
C89 C85 1.387 . S
C89 C88 1.391 . S
C90 Tb80 2.825 . S
C90 C84 1.507 1_556 S
C90 O103 1.238 . S
C90 O104 1.247 . S
O91 Tb80 2.347 . S
O91 C95 1.259 . S
O92 Eu81 2.418 . S
O92 C95 1.265 . S
O93 Eu81 2.384 . S
O93 C102 1.255 . S
O94 Tb80 2.366 . S
O94 C102 1.265 . S
C95 O91 1.259 . S
C95 O92 1.265 . S
O96 Eu81 2.479 . S
O96 C111 1.238 . S
O97 Eu81 2.471 . S
O97 C111 1.247 . S
O98 Eu81 2.347 . S
O98 C82 1.259 . S
O99 Tb80 2.418 . S
O99 C82 1.265 . S
O100 Tb80 2.384 . S
O100 C83 1.255 . S
O101 Eu81 2.366 . S
O101 C83 1.265 . S
C102 O93 1.255 . S
C102 O94 1.265 . S
O103 Tb80 2.479 . S
O103 C90 1.238 . S
O104 Tb80 2.471 . S
O104 C90 1.247 . S
C105 C108 1.380 . S
C105 C109 1.374 . S
C105 C111 1.507 . S
C106 C107 1.387 . S
C106 C110 1.391 . S
C107 C106 1.387 . S
C107 C108 1.384 . S
C107 H116 0.930 . S
C108 C105 1.380 . S
C108 C107 1.384 . S
C108 H117 0.931 . S
C109 C105 1.374 . S
C109 C110 1.390 . S
C109 H118 0.930 . S
C110 C106 1.391 . S
C110 C109 1.390 . S
C110 H119 0.930 . S
C111 Eu81 2.825 . S
C111 O96 1.238 . S
C111 O97 1.247 . S
C111 C105 1.507 . S
H112 C85 0.930 . S
H113 C86 0.931 . S
H114 C87 0.930 . S
H115 C88 0.930 . S
H116 C107 0.930 . S
H117 C108 0.931 . S
H118 C109 0.930 . S
H119 C110 0.930 . S
Tb120 C130 2.825 . S
Tb120 O131 2.347 . S
Tb120 O134 2.366 . S
Tb120 O139 2.418 . S
Tb120 O140 2.384 . S
Tb120 O143 2.479 . S
Tb120 O144 2.471 . S
Eu121 O132 2.418 . S
Eu121 O133 2.384 . S
Eu121 O136 2.479 . S
Eu121 O137 2.471 . S
Eu121 O138 2.347 . S
Eu121 O141 2.366 . S
Eu121 C151 2.825 . S
C122 O138 1.259 . S
C122 O139 1.265 . S
C123 O140 1.255 . S
C123 O141 1.265 . S
C124 C126 1.380 . S
C124 C127 1.374 . S
C124 C130 1.507 1_556 S
C125 C126 1.384 . S
C125 C129 1.387 . S
C125 H152 0.930 . S
C126 C124 1.380 . S
C126 C125 1.384 . S
C126 H153 0.931 . S
C127 C124 1.374 . S
C127 C128 1.390 . S
C127 H154 0.930 . S
C128 C127 1.390 . S
C128 C129 1.391 . S
C128 H155 0.930 . S
C129 C125 1.387 . S
C129 C128 1.391 . S
C130 Tb120 2.825 . S
C130 C124 1.507 1_554 S
C130 O143 1.238 . S
C130 O144 1.247 . S
O131 Tb120 2.347 . S
O131 C135 1.259 . S
O132 Eu121 2.418 . S
O132 C135 1.265 . S
O133 Eu121 2.384 . S
O133 C142 1.255 . S
O134 Tb120 2.366 . S
O134 C142 1.265 . S
C135 O131 1.259 . S
C135 O132 1.265 . S
O136 Eu121 2.479 . S
O136 C151 1.238 . S
O137 Eu121 2.471 . S
O137 C151 1.247 . S
O138 Eu121 2.347 . S
O138 C122 1.259 . S
O139 Tb120 2.418 . S
O139 C122 1.265 . S
O140 Tb120 2.384 . S
O140 C123 1.255 . S
O141 Eu121 2.366 . S
O141 C123 1.265 . S
C142 O133 1.255 . S
C142 O134 1.265 . S
O143 Tb120 2.479 . S
O143 C130 1.238 . S
O144 Tb120 2.471 . S
O144 C130 1.247 . S
C145 C148 1.380 . S
C145 C149 1.374 . S
C145 C151 1.507 . S
C146 C147 1.387 . S
C146 C150 1.391 . S
C147 C146 1.387 . S
C147 C148 1.384 . S
C147 H156 0.930 . S
C148 C145 1.380 . S
C148 C147 1.384 . S
C148 H157 0.931 . S
C149 C145 1.374 . S
C149 C150 1.390 . S
C149 H158 0.930 . S
C150 C146 1.391 . S
C150 C149 1.390 . S
C150 H159 0.930 . S
C151 Eu121 2.825 . S
C151 O136 1.238 . S
C151 O137 1.247 . S
C151 C145 1.507 . S
H152 C125 0.930 . S
H153 C126 0.931 . S
H154 C127 0.930 . S
H155 C128 0.930 . S
H156 C147 0.930 . S
H157 C148 0.931 . S
H158 C149 0.930 . S
H159 C150 0.930 . S
Tb160 C170 2.825 . S
Tb160 O171 2.347 . S
Tb160 O174 2.366 . S
Tb160 O179 2.418 . S
Tb160 O180 2.384 . S
Tb160 O183 2.479 . S
Tb160 O184 2.471 . S
Eu161 O172 2.418 . S
Eu161 O173 2.384 . S
Eu161 O176 2.479 . S
Eu161 O177 2.471 . S
Eu161 O178 2.347 . S
Eu161 O181 2.366 . S
Eu161 C191 2.825 . S
C162 O178 1.259 . S
C162 O179 1.265 . S
C163 O180 1.255 . S
C163 O181 1.265 . S
C164 C166 1.380 . S
C164 C167 1.374 . S
C164 C170 1.507 . S
C165 C166 1.384 . S
C165 C169 1.387 . S
C165 H192 0.930 . S
C166 C164 1.380 . S
C166 C165 1.384 . S
C166 H193 0.931 . S
C167 C164 1.374 . S
C167 C168 1.390 . S
C167 H194 0.930 . S
C168 C167 1.390 . S
C168 C169 1.391 . S
C168 H195 0.930 . S
C169 C165 1.387 . S
C169 C168 1.391 . S
C170 Tb160 2.825 . S
C170 C164 1.507 . S
C170 O183 1.238 . S
C170 O184 1.247 . S
O171 Tb160 2.347 . S
O171 C175 1.259 . S
O172 Eu161 2.418 . S
O172 C175 1.265 . S
O173 Eu161 2.384 . S
O173 C182 1.255 . S
O174 Tb160 2.366 . S
O174 C182 1.265 . S
C175 O171 1.259 . S
C175 O172 1.265 . S
O176 Eu161 2.479 . S
O176 C191 1.238 . S
O177 Eu161 2.471 . S
O177 C191 1.247 . S
O178 Eu161 2.347 . S
O178 C162 1.259 . S
O179 Tb160 2.418 . S
O179 C162 1.265 . S
O180 Tb160 2.384 . S
O180 C163 1.255 . S
O181 Eu161 2.366 . S
O181 C163 1.265 . S
C182 O173 1.255 . S
C182 O174 1.265 . S
O183 Tb160 2.479 . S
O183 C170 1.238 . S
O184 Tb160 2.471 . S
O184 C170 1.247 . S
C185 C188 1.380 . S
C185 C189 1.374 . S
C185 C191 1.507 . S
C186 C187 1.387 . S
C186 C190 1.391 . S
C187 C186 1.387 . S
C187 C188 1.384 . S
C187 H196 0.930 . S
C188 C185 1.380 . S
C188 C187 1.384 . S
C188 H197 0.931 . S
C189 C185 1.374 . S
C189 C190 1.390 . S
C189 H198 0.930 . S
C190 C186 1.391 . S
C190 C189 1.390 . S
C190 H199 0.930 . S
C191 Eu161 2.825 . S
C191 O176 1.238 . S
C191 O177 1.247 . S
C191 C185 1.507 . S
H192 C165 0.930 . S
H193 C166 0.931 . S
H194 C167 0.930 . S
H195 C168 0.930 . S
H196 C187 0.930 . S
H197 C188 0.931 . S
H198 C189 0.930 . S
H199 C190 0.930 . S
Tb200 C210 2.825 . S
Tb200 O211 2.347 . S
Tb200 O214 2.366 . S
Tb200 O219 2.418 . S
Tb200 O220 2.384 . S
Tb200 O223 2.479 . S
Tb200 O224 2.471 . S
Eu201 O212 2.418 . S
Eu201 O213 2.384 . S
Eu201 O216 2.479 1_556 S
Eu201 O217 2.471 1_556 S
Eu201 O218 2.347 . S
Eu201 O221 2.366 . S
Eu201 C231 2.825 1_556 S
C202 O218 1.259 . S
C202 O219 1.265 . S
C203 O220 1.255 . S
C203 O221 1.265 . S
C204 C206 1.380 . S
C204 C207 1.374 . S
C204 C210 1.507 . S
C205 C206 1.384 . S
C205 C209 1.387 . S
C205 H232 0.930 . S
C206 C204 1.380 . S
C206 C205 1.384 . S
C206 H233 0.931 . S
C207 C204 1.374 . S
C207 C208 1.390 . S
C207 H234 0.930 . S
C208 C207 1.390 . S
C208 C209 1.391 . S
C208 H235 0.930 . S
C209 C205 1.387 . S
C209 C208 1.391 . S
C210 Tb200 2.825 . S
C210 C204 1.507 . S
C210 O223 1.238 . S
C210 O224 1.247 . S
O211 Tb200 2.347 . S
O211 C215 1.259 . S
O212 Eu201 2.418 . S
O212 C215 1.265 . S
O213 Eu201 2.384 . S
O213 C222 1.255 . S
O214 Tb200 2.366 . S
O214 C222 1.265 . S
C215 O211 1.259 . S
C215 O212 1.265 . S
O216 Eu201 2.479 1_554 S
O216 C231 1.238 . S
O217 Eu201 2.471 1_554 S
O217 C231 1.247 . S
O218 Eu201 2.347 . S
O218 C202 1.259 . S
O219 Tb200 2.418 . S
O219 C202 1.265 . S
O220 Tb200 2.384 . S
O220 C203 1.255 . S
O221 Eu201 2.366 . S
O221 C203 1.265 . S
C222 O213 1.255 . S
C222 O214 1.265 . S
O223 Tb200 2.479 . S
O223 C210 1.238 . S
O224 Tb200 2.471 . S
O224 C210 1.247 . S
C225 C228 1.380 . S
C225 C229 1.374 . S
C225 C231 1.507 . S
C226 C227 1.387 . S
C226 C230 1.391 . S
C227 C226 1.387 . S
C227 C228 1.384 . S
C227 H236 0.930 . S
C228 C225 1.380 . S
C228 C227 1.384 . S
C228 H237 0.931 . S
C229 C225 1.374 . S
C229 C230 1.390 . S
C229 H238 0.930 . S
C230 C226 1.391 . S
C230 C229 1.390 . S
C230 H239 0.930 . S
C231 Eu201 2.825 1_554 S
C231 O216 1.238 . S
C231 O217 1.247 . S
C231 C225 1.507 . S
H232 C205 0.930 . S
H233 C206 0.931 . S
H234 C207 0.930 . S
H235 C208 0.930 . S
H236 C227 0.930 . S
H237 C228 0.931 . S
H238 C229 0.930 . S
H239 C230 0.930 . S
C240 C241 1.369 . S
C240 C242 1.419 1_556 S
C240 H244 0.930 . S
C241 C240 1.369 . S
C241 C250 1.429 . S
C242 C240 1.419 1_554 S
C242 C243 1.363 . S
C242 H245 0.929 . S
C243 C242 1.363 . S
C243 C249 1.424 1_554 S
H244 C240 0.930 . S
H245 C242 0.929 . S
S246 N247 1.613 . S
S246 N248 1.610 . S
N247 S246 1.613 . S
N247 C250 1.350 . S
N248 S246 1.610 . S
N248 C249 1.352 . S
C249 C243 1.424 1_556 S
C249 N248 1.352 . S
C249 C250 1.439 . S
C250 C241 1.429 . S
C250 N247 1.350 . S
C250 C249 1.439 . S
C251 C252 1.369 . S
C251 C253 1.419 . S
C251 H255 0.930 . S
C252 C251 1.369 . S
C252 C261 1.429 1_455 S
C253 C251 1.419 . S
C253 C254 1.363 1_455 S
C253 H256 0.929 . S
C254 C253 1.363 1_655 S
C254 C260 1.428 . S
H255 C251 0.930 . S
H256 C253 0.929 . S
S257 N258 1.613 . S
S257 N259 1.610 . S
N258 S257 1.613 . S
N258 C261 1.350 . S
N259 S257 1.610 . S
N259 C260 1.351 . S
C260 C254 1.428 . S
C260 N259 1.351 . S
C260 C261 1.434 . S
C261 C252 1.429 1_655 S
C261 N258 1.350 . S
C261 C260 1.434 . S
C262 C263 1.369 . S
C262 C264 1.419 1_545 S
C262 H266 0.930 . S
C263 C262 1.369 . S
C263 C272 1.429 . S
C264 C262 1.419 1_565 S
C264 C265 1.363 . S
C264 H267 0.929 . S
C265 C264 1.363 . S
C265 C271 1.428 . S
H266 C262 0.930 . S
H267 C264 0.929 . S
S268 N269 1.613 . S
S268 N270 1.610 1_545 S
N269 S268 1.613 . S
N269 C272 1.350 . S
N270 S268 1.610 1_565 S
N270 C271 1.351 . S
C271 C265 1.428 . S
C271 N270 1.351 . S
C271 C272 1.434 1_565 S
C272 C263 1.429 . S
C272 N269 1.350 . S
C272 C271 1.434 1_545 S
C273 C274 1.369 . S
C273 C275 1.419 1_556 S
C273 H277 0.930 . S
C274 C273 1.369 . S
C274 C283 1.429 . S
C275 C273 1.419 1_554 S
C275 C276 1.363 . S
C275 H278 0.929 . S
C276 C275 1.363 . S
C276 C282 1.428 . S
H277 C273 0.930 . S
H278 C275 0.929 . S
S279 N280 1.613 1_554 S
S279 N281 1.610 . S
N280 S279 1.613 1_556 S
N280 C283 1.350 . S
N281 S279 1.610 . S
N281 C282 1.351 . S
C282 C276 1.428 . S
C282 N281 1.351 . S
C282 C283 1.434 1_554 S
C283 C274 1.429 . S
C283 N280 1.350 . S
C283 C282 1.434 1_556 S
C284 C285 1.369 1_655 S
C284 C286 1.419 . S
C284 H288 0.930 . S
C285 C284 1.369 1_455 S
C285 C294 1.429 . S
C286 C284 1.419 . S
C286 C287 1.363 . S
C286 H289 0.929 . S
C287 C286 1.363 . S
C287 C293 1.428 1_655 S
H288 C284 0.930 . S
H289 C286 0.929 . S
S290 N291 1.613 . S
S290 N292 1.610 . S
N291 S290 1.613 . S
N291 C294 1.350 . S
N292 S290 1.610 . S
N292 C293 1.351 . S
C293 C287 1.428 1_455 S
C293 N292 1.351 . S
C293 C294 1.434 . S
C294 C285 1.429 . S
C294 N291 1.350 . S
C294 C293 1.434 . S
C295 C296 1.369 . S
C295 C297 1.419 . S
C295 H299 0.930 . S
C296 C295 1.369 . S
C296 C305 1.429 1_545 S
C297 C295 1.419 . S
C297 C298 1.363 1_545 S
C297 H300 0.929 . S
C298 C297 1.363 1_565 S
C298 C304 1.428 . S
H299 C295 0.930 . S
H300 C297 0.929 . S
S301 N302 1.613 . S
S301 N303 1.610 . S
N302 S301 1.613 . S
N302 C305 1.350 . S
N303 S301 1.610 . S
N303 C304 1.351 . S
C304 C298 1.428 . S
C304 N303 1.351 . S
C304 C305 1.434 . S
C305 C296 1.429 1_565 S
C305 N302 1.350 . S
C305 C304 1.434 . S
C306 C307 1.369 . S
C306 C308 1.419 . S
C306 H310 0.930 . S
C307 C306 1.369 . S
C307 C316 1.429 . S
C308 C306 1.419 . S
C308 C309 1.363 . S
C308 H311 0.929 . S
C309 C308 1.363 . S
C309 C315 1.428 . S
H310 C306 0.930 . S
H311 C308 0.929 . S
S312 N313 1.613 . S
S312 N314 1.610 . S
N313 S312 1.613 . S
N313 C316 1.350 . S
N314 S312 1.610 . S
N314 C315 1.351 . S
C315 C309 1.428 . S
C315 N314 1.351 . S
C315 C316 1.434 . S
C316 C307 1.429 . S
C316 N313 1.350 . S
C316 C315 1.434 . S
C317 C318 1.369 . S
C317 C319 1.419 . S
C317 H321 0.930 . S
C318 C317 1.369 . S
C318 C327 1.429 . S
C319 C317 1.419 . S
C319 C320 1.363 . S
C319 H322 0.929 1_554 S
C320 C319 1.363 . S
C320 C326 1.428 . S
H321 C317 0.930 . S
H322 C319 0.929 1_556 S
S323 N324 1.613 . S
S323 N325 1.610 . S
N324 S323 1.613 . S
N324 C327 1.350 . S
N325 S323 1.610 . S
N325 C326 1.351 . S
C326 C320 1.428 . S
C326 N325 1.351 . S
C326 C327 1.434 . S
C327 C318 1.429 . S
C327 N324 1.350 . S
C327 C326 1.434 . S
C328 C329 1.369 . S
C328 C330 1.419 . S
C328 H332 0.930 . S
C329 C328 1.369 . S
C329 C338 1.429 . S
C330 C328 1.419 . S
C330 C331 1.363 . S
C330 H333 0.929 . S
C331 C330 1.363 . S
C331 C337 1.428 . S
H332 C328 0.930 . S
H333 C330 0.929 . S
S334 N335 1.613 . S
S334 N336 1.610 . S
N335 S334 1.613 . S
N335 C338 1.350 . S
N336 S334 1.610 . S
N336 C337 1.351 . S
C337 C331 1.428 . S
C337 N336 1.351 . S
C337 C338 1.434 . S
C338 C329 1.429 . S
C338 N335 1.350 . S
C338 C337 1.434 . S
C339 C340 1.369 . S
C339 C341 1.419 . S
C339 H343 0.930 . S
C340 C339 1.369 . S
C340 C349 1.429 . S
C341 C339 1.419 . S
C341 C342 1.363 . S
C341 H344 0.929 . S
C342 C341 1.363 . S
C342 C348 1.428 . S
H343 C339 0.930 . S
H344 C341 0.929 . S
S345 N346 1.613 . S
S345 N347 1.610 . S
N346 S345 1.613 . S
N346 C349 1.350 . S
N347 S345 1.610 . S
N347 C348 1.351 . S
C348 C342 1.428 . S
C348 N347 1.351 . S
C348 C349 1.434 . S
C349 C340 1.429 . S
C349 N346 1.350 . S
C349 C348 1.434 . S
C350 C351 1.369 . S
C350 C352 1.419 . S
C350 H354 0.930 . S
C351 C350 1.369 . S
C351 C360 1.429 . S
C352 C350 1.419 . S
C352 C353 1.363 . S
C352 H355 0.929 . S
C353 C352 1.363 . S
C353 C359 1.428 . S
H354 C350 0.930 . S
H355 C352 0.929 . S
S356 N357 1.613 . S
S356 N358 1.610 . S
N357 S356 1.613 . S
N357 C360 1.350 . S
N358 S356 1.610 . S
N358 C359 1.351 . S
C359 C353 1.428 . S
C359 N358 1.351 . S
C359 C360 1.434 . S
C360 C351 1.429 . S
C360 N357 1.350 . S
C360 C359 1.434 . S
C361 C362 1.369 . S
C361 C363 1.419 . S
C361 H365 0.930 . S
C362 C361 1.369 . S
C362 C371 1.429 . S
C363 C361 1.419 . S
C363 C364 1.363 . S
C363 H366 0.929 . S
C364 C363 1.363 . S
C364 C370 1.428 . S
H365 C361 0.930 . S
H366 C363 0.929 . S
S367 N368 1.613 . S
S367 N369 1.610 . S
N368 S367 1.613 . S
N368 C371 1.350 . S
N369 S367 1.610 . S
N369 C370 1.351 . S
C370 C364 1.428 . S
C370 N369 1.351 . S
C370 C371 1.434 . S
C371 C362 1.429 . S
C371 N368 1.350 . S
C371 C370 1.434 . S
C372 C373 1.369 . S
C372 C374 1.419 . S
C372 H376 0.930 . S
C373 C372 1.369 . S
C373 C382 1.429 . S
C374 C372 1.419 . S
C374 C375 1.363 . S
C374 H377 0.929 . S
C375 C374 1.363 . S
C375 C381 1.428 . S
H376 C372 0.930 . S
H377 C374 0.929 . S
S378 N379 1.613 . S
S378 N380 1.610 . S
N379 S378 1.613 . S
N379 C382 1.350 . S
N380 S378 1.610 . S
N380 C381 1.351 . S
C381 C375 1.428 . S
C381 N380 1.351 . S
C381 C382 1.434 . S
C382 C373 1.429 . S
C382 N379 1.350 . S
C382 C381 1.434 . S
C383 C384 1.369 . S
C383 C385 1.419 . S
C383 H387 0.930 . S
C384 C383 1.369 . S
C384 C393 1.429 . S
C385 C383 1.419 . S
C385 C386 1.363 . S
C385 H388 0.929 . S
C386 C385 1.363 . S
C386 C392 1.428 . S
H387 C383 0.930 . S
H388 C385 0.929 . S
S389 N390 1.613 . S
S389 N391 1.610 . S
N390 S389 1.613 . S
N390 C393 1.350 . S
N391 S389 1.610 . S
N391 C392 1.351 . S
C392 C386 1.428 . S
C392 N391 1.351 . S
C392 C393 1.434 . S
C393 C384 1.429 . S
C393 N390 1.350 . S
C393 C392 1.434 . S
C394 C395 1.369 . S
C394 C396 1.419 . S
C394 H398 0.930 . S
C395 C394 1.369 . S
C395 C404 1.429 . S
C396 C394 1.419 . S
C396 C397 1.363 . S
C396 H399 0.929 . S
C397 C396 1.363 . S
C397 C403 1.428 . S
H398 C394 0.930 . S
H399 C396 0.929 . S
S400 N401 1.613 . S
S400 N402 1.610 1_554 S
N401 S400 1.613 . S
N401 C404 1.350 1_554 S
N402 S400 1.610 1_556 S
N402 C403 1.351 . S
C403 C397 1.428 . S
C403 N402 1.351 . S
C403 C404 1.434 . S
C404 C395 1.429 . S
C404 N401 1.350 1_556 S
C404 C403 1.434 . S
C405 C406 1.369 . S
C405 C407 1.419 . S
C405 H409 0.930 . S
C406 C405 1.369 . S
C406 C415 1.429 . S
C407 C405 1.419 . S
C407 C408 1.363 . S
C407 H410 0.929 . S
C408 C407 1.363 . S
C408 C414 1.428 . S
H409 C405 0.930 . S
H410 C407 0.929 . S
S411 N412 1.613 . S
S411 N413 1.610 . S
N412 S411 1.613 . S
N412 C415 1.350 . S
N413 S411 1.610 . S
N413 C414 1.351 . S
C414 C408 1.428 . S
C414 N413 1.351 . S
C414 C415 1.434 . S
C415 C406 1.429 . S
C415 N412 1.350 . S
C415 C414 1.434 . S
C416 C417 1.369 . S
C416 C418 1.419 . S
C416 H420 0.930 . S
C417 C416 1.369 . S
C417 C426 1.429 . S
C418 C416 1.419 . S
C418 C419 1.363 . S
C418 H421 0.929 . S
C419 C418 1.363 . S
C419 C425 1.428 . S
H420 C416 0.930 . S
H421 C418 0.929 . S
S422 N423 1.613 . S
S422 N424 1.610 . S
N423 S422 1.613 . S
N423 C426 1.350 . S
N424 S422 1.610 . S
N424 C425 1.351 . S
C425 C419 1.428 . S
C425 N424 1.351 . S
C425 C426 1.434 . S
C426 C417 1.429 . S
C426 N423 1.350 . S
C426 C425 1.434 . S
C427 C428 1.369 . S
C427 C429 1.419 . S
C427 H431 0.930 . S
C428 C427 1.369 . S
C428 C437 1.429 . S
C429 C427 1.419 . S
C429 C430 1.363 . S
C429 H432 0.929 . S
C430 C429 1.363 . S
C430 C436 1.428 . S
H431 C427 0.930 . S
H432 C429 0.929 . S
S433 N434 1.613 . S
S433 N435 1.610 . S
N434 S433 1.613 . S
N434 C437 1.350 . S
N435 S433 1.610 . S
N435 C436 1.351 . S
C436 C430 1.428 . S
C436 N435 1.351 . S
C436 C437 1.434 . S
C437 C428 1.429 . S
C437 N434 1.350 . S
C437 C436 1.434 . S
C241 C202 1.453 . S
C243 C2 1.454 . S
C252 C22 1.909 . S
C254 C62 1.910 . S
C263 C42 1.455 . S
C265 C82 1.454 . S
C274 C102 1.908 . S
C276 C142 1.912 . S
C285 C162 1.453 . S
C287 C122 1.450 . S
C296 C222 1.916 . S
C298 C182 1.911 . S
C307 C26 1.703 . S
C309 C9 1.696 . S
C318 C49 1.695 . S
C320 C66 1.702 1_554 S
C329 C106 1.693 . S
C331 C89 1.704 . S
C340 C129 1.695 . S
C342 C146 1.701 . S
C351 C169 1.698 . S
C353 C186 1.700 1_556 S
C362 C209 1.705 . S
C364 C226 1.695 . S
C373 C15 1.951 . S
C375 C163 1.952 . S
C384 C43 1.954 . S
C386 C215 1.948 . S
C395 C3 1.954 1_556 S
C397 C95 1.948 . S
C406 C55 1.949 . S
C408 C123 1.954 . S
C417 C175 1.947 . S
C419 C83 1.955 . S
C428 C135 1.951 . S
C430 C203 1.952 1_554 S
