# Generated by pormake.
# Topology sxa, (6)-cn, num edge types: 1
# Building blocks:
#     Node 0, Type 0, BuildingBlock: IZENUY_clean_sbu_0, # of connection points: 6
#     Node 1, Type 0, BuildingBlock: IZENUY_clean_sbu_0, # of connection points: 6
#     Node 2, Type 0, BuildingBlock: IZENUY_clean_sbu_0, # of connection points: 6
#     Node 3, Type 0, BuildingBlock: IZENUY_clean_sbu_0, # of connection points: 6
#     Edge 4, Type (0, 0), BuildingBlock: MIFKUJ_clean_linker_0, # of connection points: 2
#     Edge 5, Type (0, 0), BuildingBlock: MIFKUJ_clean_linker_0, # of connection points: 2
#     Edge 6, Type (0, 0), BuildingBlock: MIFKUJ_clean_linker_0, # of connection points: 2
#     Edge 7, Type (0, 0), BuildingBlock: MIFKUJ_clean_linker_0, # of connection points: 2
#     Edge 8, Type (0, 0), BuildingBlock: MIFKUJ_clean_linker_0, # of connection points: 2
#     Edge 9, Type (0, 0), BuildingBlock: MIFKUJ_clean_linker_0, # of connection points: 2
#     Edge 10, Type (0, 0), BuildingBlock: MIFKUJ_clean_linker_0, # of connection points: 2
#     Edge 11, Type (0, 0), BuildingBlock: MIFKUJ_clean_linker_0, # of connection points: 2
#     Edge 12, Type (0, 0), BuildingBlock: MIFKUJ_clean_linker_0, # of connection points: 2
#     Edge 13, Type (0, 0), BuildingBlock: MIFKUJ_clean_linker_0, # of connection points: 2
#     Edge 14, Type (0, 0), BuildingBlock: MIFKUJ_clean_linker_0, # of connection points: 2
#     Edge 15, Type (0, 0), BuildingBlock: MIFKUJ_clean_linker_0, # of connection points: 2
# Relax obj value: 0.274
# Max RMSD: 0.267
# Mean RMSD: 0.267
data_MOF--net-sxa--node1-IZENUY_clean_sbu_0--edge1-MIFKUJ_clean_linker_0
_symmetry_space_group_name_H-M    P1
_symmetry_Int_Tables_number       1
_symmetry_cell_setting            triclinic
loop_
_symmetry_equiv_pos_as_xyz
'x, y, z'
_cell_length_a     30.375346
_cell_length_b     35.137182
_cell_length_c     23.062974
_cell_angle_alpha  89.622541
_cell_angle_beta   90.051486
_cell_angle_gamma 89.655249
loop_
_atom_site_label
_atom_site_type_symbol
_atom_site_fract_x
_atom_site_fract_y
_atom_site_fract_z
_atom_type_partial_charge
Fe0 Fe 0.0456 0.83668 0.28055 0.0
Fe1 Fe 0.02831 0.74882 0.28391 0.0
O2 O 0.03382 0.79276 0.24527 0.0
Fe3 Fe 0.02724 0.79249 0.16888 0.0
O4 O 0.08439 0.80412 0.16002 0.0
O5 O 0.08496 0.85148 0.22349 0.0
O6 O 0.09262 0.81707 0.31876 0.0
C7 C 0.0989 0.78538 0.34326 0.0
C8 C -0.00398 0.86709 0.19253 0.0
O9 O 0.07272 0.75791 0.33607 0.0
C10 C 0.95687 0.75127 0.20378 0.0
O11 O 0.00813 0.82793 0.34223 0.0
O12 O 0.98706 0.76826 0.33167 0.0
O13 O 0.0119 0.84245 0.15928 0.0
O14 O 7e-05 0.86286 0.24648 0.0
C15 C 0.06481 0.71933 0.18568 0.0
O16 O 0.98218 0.7329 0.23811 0.0
O17 O 0.96983 0.7808 0.17715 0.0
C18 C 0.98326 0.80027 0.35559 0.0
O19 O 0.06924 0.72373 0.23957 0.0
O20 O 0.04131 0.74247 0.15746 0.0
C21 C 0.10266 0.83293 0.18214 0.0
Fe22 Fe 0.54242 0.28492 0.17117 0.0
Fe23 Fe 0.5475 0.33197 0.28277 0.0
O24 O 0.54023 0.28688 0.24824 0.0
Fe25 Fe 0.53115 0.24375 0.28824 0.0
O26 O 0.57428 0.21649 0.25114 0.0
O27 O 0.55753 0.23508 0.16406 0.0
O28 O 0.59997 0.29708 0.1728 0.0
C29 C 0.61469 0.32706 0.19598 0.0
C30 C 0.46882 0.2438 0.1946 0.0
O31 O 0.59242 0.34566 0.23321 0.0
C32 C 0.4799 0.29695 0.35051 0.0
O33 O 0.52807 0.33443 0.15623 0.0
O34 O 0.50589 0.35685 0.23848 0.0
O35 O 0.48838 0.22782 0.2373 0.0
O36 O 0.48494 0.27235 0.16824 0.0
C37 C 0.59619 0.28211 0.35566 0.0
O38 O 0.504 0.32491 0.33698 0.0
O39 O 0.4869 0.26411 0.33078 0.0
C40 C 0.50868 0.36001 0.1842 0.0
O41 O 0.58997 0.31393 0.33126 0.0
O42 O 0.5724 0.25359 0.34438 0.0
C43 C 0.57543 0.21128 0.19725 0.0
Fe44 Fe 0.04794 0.29786 0.9052 0.0
Fe45 Fe 0.03297 0.33985 0.7894 0.0
O46 O 0.04299 0.29659 0.82855 0.0
Fe47 Fe 0.04861 0.25185 0.79269 0.0
O48 O 0.0053 0.22908 0.83569 0.0
O49 O 0.02989 0.24898 0.91888 0.0
O50 O 0.9916 0.31353 0.91232 0.0
C51 C 0.97611 0.34321 0.88824 0.0
C52 C 0.11662 0.25162 0.87791 0.0
O53 O -0.00548 0.35841 0.84435 0.0
C54 C 0.09629 0.30036 0.71988 0.0
O55 O 0.06701 0.34682 0.91058 0.0
O56 O 0.07951 0.36504 0.82168 0.0
O57 O 0.09197 0.23429 0.84236 0.0
O58 O 0.10463 0.28264 0.90061 0.0
C59 C 0.97951 0.28901 0.72914 0.0
O60 O 0.06989 0.32792 0.72845 0.0
O61 O 0.09262 0.26937 0.74728 0.0
C62 C 0.08428 0.36979 0.87545 0.0
O63 O 0.98508 0.32066 0.75334 0.0
O64 O 0.00653 0.2618 0.73678 0.0
C65 C 0.00775 0.22544 0.89011 0.0
Fe66 Fe 0.52693 0.83158 0.7797 0.0
Fe67 Fe 0.54463 0.74354 0.78252 0.0
O68 O 0.53048 0.78709 0.81794 0.0
Fe69 Fe 0.51884 0.78646 0.89364 0.0
O70 O 0.46211 0.79932 0.87897 0.0
O71 O 0.47805 0.8474 0.82025 0.0
O72 O 0.48902 0.81286 0.72666 0.0
C73 C 0.48637 0.78074 0.70283 0.0
C74 C 0.55699 0.85972 0.88248 0.0
O75 O 0.51016 0.75277 0.71854 0.0
C76 C 0.59464 0.74443 0.88797 0.0
O77 O 0.57444 0.82307 0.73252 0.0
O78 O 0.59324 0.76329 0.74827 0.0
O79 O 0.53259 0.83609 0.90783 0.0
O80 O 0.56457 0.85599 0.82909 0.0
C81 C 0.49018 0.71222 0.86481 0.0
O82 O 0.58091 0.7283 0.84214 0.0
O83 O 0.57509 0.77301 0.90979 0.0
C84 C 0.60065 0.79539 0.7258 0.0
O85 O 0.49809 0.71672 0.8117 0.0
O86 O 0.50247 0.73688 0.90021 0.0
C87 C 0.45066 0.82884 0.85078 0.0
H88 H 0.12144 0.3803 0.98122 0.0
H89 H 0.13146 0.44033 1.03201 0.0
H90 H 0.09307 0.5022 0.87793 0.0
H91 H 0.08334 0.44176 0.8263 0.0
H92 H 0.15872 0.54071 0.94537 0.0
H93 H 0.01658 0.48421 0.9717 0.0
H94 H 0.96897 0.42944 0.99222 0.0
H95 H 0.02391 0.4195 0.16332 0.0
H96 H 0.07255 0.47412 0.14333 0.0
H97 H 0.0688 0.70757 0.06936 0.0
H98 H 0.08367 0.64874 1.01792 0.0
H99 H 0.10903 0.59116 0.1803 0.0
H100 H 0.09334 0.65053 0.2328 0.0
H101 H 0.05499 0.54945 0.11117 0.0
H102 H 0.19271 0.61252 0.0858 0.0
H103 H 0.24062 0.66656 0.06079 0.0
H104 H 0.19343 0.66464 0.88531 0.0
H105 H 0.14455 0.61105 0.90951 0.0
C106 C 0.11634 0.40667 0.95746 0.0
C107 C 0.10131 0.40612 0.89969 0.0
C108 C 0.12197 0.44106 0.98672 0.0
C109 C 0.11224 0.47591 0.95931 0.0
C110 C 0.10074 0.47572 0.90014 0.0
C111 C 0.09532 0.44111 0.87053 0.0
C112 C 0.10893 0.51154 0.99444 0.0
C113 C 0.13582 0.54279 0.98128 0.0
C114 C 0.07959 0.51416 0.04209 0.0
C115 C 0.04852 0.48296 0.0558 0.0
C116 C 0.01867 0.47023 1.01362 0.0
C117 C -0.00833 0.43905 1.02503 0.0
C118 C -0.00626 0.42061 0.07882 0.0
C119 C 0.02257 0.43363 0.12151 0.0
C120 C 0.04983 0.46476 0.1102 0.0
C121 C 0.07808 0.68262 0.09446 0.0
C122 C 0.07993 0.68404 0.15551 0.0
C123 C 0.08675 0.64884 0.06472 0.0
C124 C 0.09793 0.61532 0.09488 0.0
C125 C 0.10061 0.61661 0.15586 0.0
C126 C 0.09198 0.65067 0.18588 0.0
C127 C 0.10487 0.57894 0.06233 0.0
C128 C 0.07836 0.54744 0.07576 0.0
C129 C 0.13441 0.5763 1.01474 0.0
C130 C 0.16463 0.60793 0.99964 0.0
C131 C 0.19227 0.6238 0.04198 0.0
C132 C 0.21957 0.6544 1.02797 0.0
C133 C 0.21992 0.66915 0.97157 0.0
C134 C 0.19307 0.65323 0.92901 0.0
C135 C 0.16557 0.62272 0.94285 0.0
H136 H 0.24113 0.69279 0.96077 0.0
H137 H 0.97265 0.39655 0.08767 0.0
H138 H 0.52523 0.37696 0.07086 0.0
H139 H 0.51571 0.43696 1.01965 0.0
H140 H 0.45881 0.48703 0.17248 0.0
H141 H 0.46906 0.42635 0.22545 0.0
H142 H 0.41256 0.50559 0.06724 0.0
H143 H 0.55992 0.5096 0.13951 0.0
H144 H 0.6373 0.49159 0.15776 0.0
H145 H 0.66167 0.48805 0.97457 0.0
H146 H 0.58421 0.50504 0.9551 0.0
H147 H 0.44476 0.69868 0.96465 0.0
H148 H 0.43835 0.63817 1.01708 0.0
H149 H 0.50154 0.58031 0.8752 0.0
H150 H 0.50746 0.64085 0.8221 0.0
H151 H 0.54311 0.56761 0.97987 0.0
H152 H 0.3973 0.5608 0.90588 0.0
H153 H 0.32112 0.58094 0.88448 0.0
H154 H 0.2944 0.59052 0.06657 0.0
H155 H 0.37074 0.57092 0.08915 0.0
C156 C 0.51034 0.40044 0.09407 0.0
C157 C 0.49793 0.39644 0.15279 0.0
C158 C 0.50517 0.43501 0.06444 0.0
C159 C 0.48705 0.46684 0.09213 0.0
C160 C 0.47309 0.46293 0.15014 0.0
C161 C 0.47886 0.42817 0.1804 0.0
C162 C 0.48316 0.50381 0.05967 0.0
C163 C 0.4412 0.51954 0.04903 0.0
C164 C 0.52033 0.52155 0.03418 0.0
C165 C 0.56602 0.50827 0.04586 0.0
C166 C 0.58151 0.50425 0.10309 0.0
C167 C 0.62549 0.4944 0.11364 0.0
C168 C 0.6544 0.48883 0.06733 0.0
C169 C 0.63926 0.49252 1.01038 0.0
C170 C 0.5953 0.50209 0.99957 0.0
C171 C 0.45599 0.67287 0.94374 0.0
C172 C 0.47638 0.67465 0.88892 0.0
C173 C 0.45236 0.63823 0.9739 0.0
C174 C 0.46956 0.60451 0.95037 0.0
C175 C 0.48796 0.60587 0.89436 0.0
C176 C 0.49094 0.64048 0.8637 0.0
C177 C 0.47256 0.56899 0.98651 0.0
C178 C 0.51445 0.55366 0.99808 0.0
C179 C 0.43537 0.55162 1.01243 0.0
C180 C 0.38994 0.56478 0.99919 0.0
C181 C 0.37541 0.56772 0.94139 0.0
C182 C 0.33215 0.57889 0.92904 0.0
C183 C 0.30298 0.58699 0.97412 0.0
C184 C 0.31707 0.58421 1.0317 0.0
C185 C 0.36034 0.57305 0.0443 0.0
H186 H 0.2694 0.59516 0.96436 0.0
H187 H 0.68857 0.48172 0.07544 0.0
H188 H 0.55338 0.87102 0.99908 0.0
H189 H 0.56307 0.92993 0.05234 0.0
H190 H 0.59655 0.98832 0.89357 0.0
H191 H 0.58706 0.92879 0.83943 0.0
H192 H 0.64833 1.01175 0.98097 0.0
H193 H 0.49382 0.99719 0.95441 0.0
H194 H 0.42115 0.96628 0.9577 0.0
H195 H 0.42929 0.95841 0.14323 0.0
H196 H 0.50242 0.98853 0.14104 0.0
H197 H 0.60481 0.19899 0.08779 0.0
H198 H 0.60998 0.13858 0.0368 0.0
H199 H 0.57891 0.07854 0.19506 0.0
H200 H 0.57323 0.13947 0.24652 0.0
H201 H 0.52644 0.05652 0.10671 0.0
H202 H 0.68273 0.07283 0.13051 0.0
H203 H 0.75362 0.10646 0.12349 0.0
H204 H 0.73908 0.11472 0.93865 0.0
H205 H 0.66787 0.08158 0.94458 0.0
C206 C 0.56316 0.89623 0.97521 0.0
C207 C 0.56913 0.895 0.91462 0.0
C208 C 0.56841 0.93012 1.0059 0.0
C209 C 0.57954 0.96402 0.97708 0.0
C210 C 0.58758 0.96268 0.91693 0.0
C211 C 0.58233 0.92855 0.88596 0.0
C212 C 0.58235 1.00057 1.01008 0.0
C213 C 0.62144 1.02173 1.00791 0.0
C214 C 0.54758 1.01357 0.04618 0.0
C215 C 0.50395 0.99468 0.04747 0.0
C216 C 0.48041 0.98842 0.99587 0.0
C217 C 0.43906 0.97114 0.99755 0.0
C218 C 0.42074 0.96029 0.05064 0.0
C219 C 0.44363 0.96674 0.10215 0.0
C220 C 0.48503 0.98389 0.1007 0.0
C221 C 0.60022 0.17289 0.11227 0.0
C222 C 0.58882 0.17417 0.17145 0.0
C223 C 0.60323 0.13823 0.08291 0.0
C224 C 0.59499 0.10372 0.11184 0.0
C225 C 0.5855 0.10471 0.17164 0.0
C226 C 0.58275 0.13955 0.20127 0.0
C227 C 0.59272 0.06727 0.07852 0.0
C228 C 0.55349 0.04631 0.08023 0.0
C229 C 0.62712 0.05475 0.04155 0.0
C230 C 0.66978 0.07496 0.03806 0.0
C231 C 0.69446 0.0821 0.08843 0.0
C232 C 0.73474 0.10101 0.08463 0.0
C233 C 0.75077 0.11274 1.03067 0.0
C234 C 0.7266 0.10561 0.9804 0.0
C235 C 0.68631 0.08673 0.98395 0.0
H236 H 0.78196 0.12726 1.02773 0.0
H237 H 0.38879 0.94695 0.05198 0.0
H238 H 0.96272 0.87928 0.08427 0.0
H239 H 0.95345 0.93988 0.03319 0.0
H240 H 0.99106 0.99986 0.18788 0.0
H241 H -0.00082 0.93899 0.23987 0.0
H242 H 0.92976 1.03967 0.13164 0.0
H243 H 0.06529 0.97866 0.07515 0.0
H244 H 0.11191 0.9271 0.03643 0.0
H245 H 0.04223 0.9322 0.87471 0.0
H246 H -0.00543 0.9834 0.91265 0.0
H247 H 0.00993 0.21025 1.00627 0.0
H248 H -0.00264 0.15013 0.05588 0.0
H249 H 0.96072 0.09854 0.89386 0.0
H250 H 0.97463 0.159 0.84304 0.0
H251 H 0.01603 0.05354 0.95029 0.0
H252 H 0.88533 0.12018 1.00489 0.0
H253 H 0.84208 0.17386 0.04363 0.0
H254 H 0.90367 0.15914 0.20989 0.0
H255 H 0.94854 0.10627 0.1717 0.0
C256 C 0.96814 0.90539 0.10789 0.0
C257 C 0.98184 0.90415 0.16625 0.0
C258 C 0.96322 0.94014 0.07836 0.0
C259 C 0.97276 0.9747 0.1059 0.0
C260 C 0.98379 0.97372 0.16527 0.0
C261 C 0.98822 0.93883 0.19517 0.0
C262 C 0.97333 1.01141 0.07211 0.0
C263 C 0.94897 0.04278 0.09229 0.0
C264 C -0.00252 1.01552 1.01974 0.0
C265 C 0.02603 0.98461 0.99699 0.0
C266 C 0.05964 0.96859 1.0315 0.0
C267 C 0.08631 0.93946 1.00968 0.0
C268 C 0.08004 0.92634 0.95326 0.0
C269 C 0.04703 0.94235 0.91846 0.0
C270 C 0.02016 0.97142 0.94008 0.0
C271 C -0.00146 0.1864 0.98091 0.0
C272 C -0.00676 0.1898 0.9203 0.0
C273 C 0.99114 0.15184 1.00968 0.0
C274 C 0.9775 0.11954 0.9791 0.0
C275 C 0.97108 0.12295 0.91872 0.0
C276 C 0.97873 0.15768 0.88966 0.0
C277 C 0.97264 0.08198 1.00989 0.0
C278 C -0.00364 0.05041 0.98925 0.0
C279 C 0.94806 0.07782 0.06192 0.0
C280 C 0.92062 0.10936 0.08521 0.0
C281 C 0.88998 0.12856 0.04958 0.0
C282 C 0.86515 0.15886 0.07145 0.0
C283 C 0.87003 0.16982 0.12919 0.0
C284 C 0.89989 0.15059 0.16516 0.0
C285 C 0.92512 0.12051 0.14339 0.0
H286 H 0.85068 0.19322 0.14605 0.0
H287 H 0.10082 0.90382 0.9365 0.0
H288 H 0.45161 0.83491 0.63096 0.0
H289 H 0.38782 0.82932 0.56733 0.0
H290 H 0.37768 0.71013 0.61078 0.0
H291 H 0.44291 0.71527 0.67328 0.0
H292 H 0.35488 0.72405 0.49647 0.0
H293 H 0.31296 0.77316 0.68276 0.0
H294 H 0.32694 0.81602 0.76485 0.0
H295 H 0.30776 0.91314 0.65357 0.0
H296 H 0.29385 0.87079 0.57061 0.0
H297 H 0.12967 0.72067 0.39911 0.0
H298 H 0.19536 0.7144 0.46057 0.0
H299 H 0.22289 0.8336 0.43539 0.0
H300 H 0.15762 0.84021 0.37476 0.0
H301 H 0.2343 0.81385 0.54716 0.0
H302 H 0.27868 0.7646 0.36063 0.0
H303 H 0.27352 0.72202 0.27633 0.0
H304 H 0.29094 0.62471 0.3878 0.0
H305 H 0.29561 0.66673 0.4729 0.0
C306 C 0.43633 0.80732 0.62625 0.0
C307 C 0.45209 0.77562 0.65764 0.0
C308 C 0.39971 0.80417 0.58997 0.0
C309 C 0.37715 0.76953 0.58538 0.0
C310 C 0.39434 0.73721 0.61387 0.0
C311 C 0.43163 0.74019 0.64956 0.0
C312 C 0.33393 0.76822 0.55466 0.0
C313 C 0.32821 0.74317 0.50813 0.0
C314 C 0.29912 0.79332 0.5696 0.0
C315 C 0.30264 0.81882 0.62044 0.0
C316 C 0.3115 0.80367 0.67589 0.0
C317 C 0.31971 0.82786 0.72248 0.0
C318 C 0.31893 0.86728 0.71424 0.0
C319 C 0.30879 0.88259 0.65972 0.0
C320 C 0.30048 0.85851 0.61296 0.0
C321 C 0.14962 0.74557 0.4068 0.0
C322 C 0.1382 0.78092 0.38167 0.0
C323 C 0.1873 0.74191 0.44183 0.0
C324 C 0.21437 0.77349 0.45242 0.0
C325 C 0.20261 0.80882 0.4281 0.0
C326 C 0.16521 0.81248 0.39309 0.0
C327 C 0.25534 0.77008 0.48798 0.0
C328 C 0.26062 0.79427 0.5358 0.0
C329 C 0.28957 0.74402 0.4743 0.0
C330 C 0.28698 0.71877 0.42318 0.0
C331 C 0.28106 0.7341 0.36721 0.0
C332 C 0.27828 0.71008 0.31928 0.0
C333 C 0.28176 0.67068 0.32673 0.0
C334 C 0.28816 0.65523 0.38211 0.0
C335 C 0.2909 0.67913 0.4302 0.0
H336 H 0.2796 0.65212 0.28957 0.0
H337 H 0.32558 0.88596 0.75028 0.0
H338 H 0.15741 0.24631 0.69112 0.0
H339 H 0.22125 0.2526 0.6284 0.0
H340 H 0.18515 0.3689 0.59022 0.0
H341 H 0.12029 0.36284 0.65335 0.0
H342 H 0.21468 0.33003 0.49191 0.0
H343 H 0.26598 0.35218 0.68414 0.0
H344 H 0.27416 0.339 0.78873 0.0
H345 H 0.33937 0.23325 0.75126 0.0
H346 H 0.33095 0.24549 0.64637 0.0
H347 H 0.43223 0.36236 0.37216 0.0
H348 H 0.3666 0.36903 0.43382 0.0
H349 H 0.37612 0.25037 0.48098 0.0
H350 H 0.44079 0.24331 0.41894 0.0
H351 H 0.36094 0.29908 0.57662 0.0
H352 H 0.30332 0.27396 0.38618 0.0
H353 H 0.29323 0.28527 0.28137 0.0
H354 H 0.23987 0.39628 0.31583 0.0
H355 H 0.25023 0.3858 0.42093 0.0
C356 C 0.1626 0.2733 0.66931 0.0
C357 C 0.1335 0.30416 0.67785 0.0
C358 C 0.19943 0.27685 0.63345 0.0
C359 C 0.20858 0.31139 0.60515 0.0
C360 C 0.17895 0.34199 0.61177 0.0
C361 C 0.14187 0.33848 0.64797 0.0
C362 C 0.24976 0.31523 0.57012 0.0
C363 C 0.24675 0.32407 0.51072 0.0
C364 C 0.29171 0.30686 0.59425 0.0
C365 C 0.29754 0.29964 0.65733 0.0
C366 C 0.28183 0.326 0.69818 0.0
C367 C 0.28653 0.3187 0.75753 0.0
C368 C 0.30719 0.28527 0.77663 0.0
C369 C 0.32334 0.25912 0.73639 0.0
C370 C 0.31866 0.26624 0.67697 0.0
C371 C 0.4205 0.33778 0.396 0.0
C372 C 0.44182 0.30229 0.39048 0.0
C373 C 0.38286 0.34159 0.43101 0.0
C374 C 0.36628 0.31016 0.46195 0.0
C375 C 0.38823 0.27503 0.45763 0.0
C376 C 0.42519 0.27104 0.42193 0.0
C377 C 0.32578 0.31333 0.49834 0.0
C378 C 0.32896 0.3057 0.55803 0.0
C379 C 0.28411 0.32284 0.47447 0.0
C380 C 0.27812 0.32931 0.41135 0.0
C381 C 0.2899 0.30095 0.37138 0.0
C382 C 0.28402 0.30716 0.31193 0.0
C383 C 0.26607 0.34153 0.29194 0.0
C384 C 0.25387 0.36971 0.33138 0.0
C385 C 0.25973 0.36365 0.39089 0.0
H386 H 0.26149 0.34627 0.2459 0.0
H387 H 0.31074 0.27965 0.82261 0.0
H388 H 0.95156 0.22473 0.67131 0.0
H389 H 0.88588 0.21793 0.61031 0.0
H390 H 0.85305 0.33596 0.63823 0.0
H391 H 0.91765 0.34276 0.6997 0.0
H392 H 0.7818 0.29583 0.64827 0.0
H393 H 0.89895 0.30167 0.50828 0.0
H394 H 0.96851 0.282 0.46192 0.0
H395 H 0.91523 0.17122 0.42962 0.0
H396 H 0.84551 0.19008 0.47654 0.0
H397 H 0.63808 0.33904 0.41385 0.0
H398 H 0.70106 0.33399 0.47945 0.0
H399 H 0.70295 0.21224 0.45821 0.0
H400 H 0.63916 0.21698 0.39276 0.0
H401 H 0.78764 0.24688 0.44719 0.0
H402 H 0.66759 0.24444 0.58065 0.0
H403 H 0.59808 0.26616 0.62489 0.0
H404 H 0.6574 0.37299 0.66764 0.0
H405 H 0.72711 0.35215 0.62279 0.0
C406 C 0.93044 0.24928 0.66433 0.0
C407 C 0.94026 0.28433 0.69057 0.0
C408 C 0.89286 0.24539 0.62917 0.0
C409 C 0.86436 0.27651 0.61899 0.0
C410 C 0.87418 0.31141 0.64526 0.0
C411 C 0.91147 0.31529 0.68041 0.0
C412 C 0.82403 0.27311 0.58177 0.0
C413 C 0.78333 0.28543 0.60413 0.0
C414 C 0.8253 0.25858 0.52452 0.0
C415 C 0.86723 0.24713 0.49657 0.0
C416 C 0.90221 0.273 0.49177 0.0
C417 C 0.94164 0.26202 0.4653 0.0
C418 C 0.94634 0.22534 0.44302 0.0
C419 C 0.91157 0.19959 0.44703 0.0
C420 C 0.87209 0.21041 0.47354 0.0
C421 C 0.6516 0.31109 0.42327 0.0
C422 C 0.63328 0.2784 0.39799 0.0
C423 C 0.68767 0.30826 0.46098 0.0
C424 C 0.70681 0.27273 0.47406 0.0
C425 C 0.68879 0.23997 0.44886 0.0
C426 C 0.65213 0.24271 0.41172 0.0
C427 C 0.74589 0.27029 0.51348 0.0
C428 C 0.78621 0.25692 0.49153 0.0
C429 C 0.7444 0.28413 0.57098 0.0
C430 C 0.70248 0.29684 0.59784 0.0
C431 C 0.66571 0.27271 0.59898 0.0
C432 C 0.62628 0.28483 0.62427 0.0
C433 C 0.62329 0.32097 0.64893 0.0
C434 C 0.65975 0.34502 0.64844 0.0
C435 C 0.69924 0.33306 0.62313 0.0
H436 H 0.59275 0.33029 0.66854 0.0
H437 H 0.97687 0.2169 0.4225 0.0
H438 H 0.93287 0.74435 0.40346 0.0
H439 H 0.86953 0.75072 0.46684 0.0
H440 H 0.88691 0.87233 0.47064 0.0
H441 H 0.95139 0.86623 0.40658 0.0
H442 H 0.86355 0.84147 0.57974 0.0
H443 H 0.80998 0.83793 0.38576 0.0
H444 H 0.80501 0.81343 0.28605 0.0
H445 H 0.75668 0.70682 0.35105 0.0
H446 H 0.76214 0.73041 0.4513 0.0
H447 H 0.64149 0.8618 0.69222 0.0
H448 H 0.70727 0.8687 0.63121 0.0
H449 H 0.71568 0.7468 0.61429 0.0
H450 H 0.65071 0.7396 0.67574 0.0
H451 H 0.7239 0.7863 0.50773 0.0
H452 H 0.78438 0.7879 0.70094 0.0
H453 H 0.79206 0.81113 0.80106 0.0
H454 H 0.82726 0.92177 0.73664 0.0
H455 H 0.81919 0.8993 0.63603 0.0
C456 C 0.92369 0.7726 0.41781 0.0
C457 C 0.94728 0.80486 0.39916 0.0
C458 C 0.8872 0.77614 0.45416 0.0
C459 C 0.87281 0.81203 0.47278 0.0
C460 C 0.89723 0.84431 0.45658 0.0
C461 C 0.93409 0.84079 0.41993 0.0
C462 C 0.83133 0.81519 0.50724 0.0
C463 C 0.83278 0.83017 0.56353 0.0
C464 C 0.79119 0.79993 0.48655 0.0
C465 C 0.78677 0.78588 0.42617 0.0
C466 C 0.79852 0.80918 0.37886 0.0
C467 C 0.79562 0.79546 0.32222 0.0
C468 C 0.78064 0.75856 0.31222 0.0
C469 C 0.76833 0.73538 0.35886 0.0
C470 C 0.77128 0.74894 0.41562 0.0
C471 C 0.65738 0.83646 0.67558 0.0
C472 C 0.64072 0.80013 0.68908 0.0
C473 C 0.69506 0.84045 0.64081 0.0
C474 C 0.71651 0.80826 0.61813 0.0
C475 C 0.69972 0.77206 0.63115 0.0
C476 C 0.6626 0.76801 0.66658 0.0
C477 C 0.7563 0.81196 0.58058 0.0
C478 C 0.75447 0.79819 0.5236 0.0
C479 C 0.79593 0.82845 0.60059 0.0
C480 C 0.8006 0.84207 0.66098 0.0
C481 C 0.79329 0.8173 0.70812 0.0
C482 C 0.79783 0.8303 0.76495 0.0
C483 C 0.80998 0.86795 0.77521 0.0
C484 C 0.81774 0.89264 0.72863 0.0
C485 C 0.81321 0.87978 0.67169 0.0
H486 H 0.81351 0.87795 0.81924 0.0
H487 H 0.77851 0.74796 0.26835 0.0
H488 H 0.37663 0.79081 0.88053 0.0
H489 H 0.30711 0.8181 0.91256 0.0
H490 H 0.35586 0.9311 0.87787 0.0
H491 H 0.4258 0.90368 0.8447 0.0
H492 H 0.33279 0.91973 0.99086 0.0
H493 H 0.24653 0.91513 0.81665 0.0
H494 H 0.22044 0.88994 0.72309 0.0
H495 H 0.18911 0.78343 0.80499 0.0
H496 H 0.21356 0.80846 0.89935 0.0
H497 H 0.12912 0.90745 0.17343 0.0
H498 H 0.18349 0.93262 0.10412 0.0
H499 H 0.21586 0.818 0.05265 0.0
H500 H 0.16254 0.79291 0.12122 0.0
H501 H 0.18378 0.86662 0.96175 0.0
H502 H 0.2847 0.86794 0.13062 0.0
H503 H 0.31211 0.89251 0.22375 0.0
H504 H 0.32019 1.00493 0.15049 0.0
H505 H 0.29203 0.98109 0.0572 0.0
C506 C 0.37214 0.8214 0.8783 0.0
C507 C 0.40665 0.84515 0.86097 0.0
C508 C 0.33214 0.83701 0.89571 0.0
C509 C 0.32607 0.87667 0.89676 0.0
C510 C 0.35967 0.90045 0.87644 0.0
C511 C 0.39959 0.88473 0.85788 0.0
C512 C 0.2891 0.892 0.93107 0.0
C513 C 0.2996 0.90959 0.98377 0.0
C514 C 0.2458 0.87926 0.92148 0.0
C515 C 0.23196 0.86364 0.86487 0.0
C516 C 0.23408 0.88634 0.81463 0.0
C517 C 0.21925 0.87219 0.76158 0.0
C518 C 0.20334 0.83505 0.75803 0.0
C519 C 0.2015 0.81218 0.80775 0.0
C520 C 0.21539 0.82646 0.86112 0.0
C521 C 0.14888 0.88772 0.14846 0.0
C522 C 0.14123 0.84829 0.15173 0.0
C523 C 0.17964 0.90213 0.10886 0.0
C524 C 0.20262 0.87711 0.07252 0.0
C525 C 0.19763 0.83773 0.07961 0.0
C526 C 0.16726 0.82344 0.11883 0.0
C527 C 0.22918 0.8906 1.02323 0.0
C528 C 0.21617 0.87888 0.96778 0.0
C529 C 0.27021 0.90856 1.03059 0.0
C530 C 0.28532 0.92291 0.08739 0.0
C531 C 0.29153 0.89802 0.13469 0.0
C532 C 0.30741 0.91178 0.18743 0.0
C533 C 0.31762 0.95031 0.19315 0.0
C534 C 0.31199 0.97515 0.14614 0.0
C535 C 0.29598 0.96155 0.09339 0.0
H536 H 0.33009 0.96087 0.23393 0.0
H537 H 0.19244 0.82402 0.71677 0.0
H538 H 0.13245 0.17477 0.88359 0.0
H539 H 0.18808 0.14263 0.94434 0.0
H540 H 0.24162 0.2517 0.99073 0.0
H541 H 0.18648 0.28382 0.93098 0.0
H542 H 0.28631 0.14702 0.95514 0.0
H543 H 0.23375 0.25586 0.13453 0.0
H544 H 0.16495 0.28622 0.16749 0.0
H545 H 0.09 0.19431 0.09658 0.0
H546 H 0.15839 0.1629 0.06433 0.0
H547 H 0.44012 0.24915 0.08341 0.0
H548 H 0.37838 0.2165 0.03953 0.0
H549 H 0.34888 0.16208 0.2031 0.0
H550 H 0.41175 0.19459 0.24769 0.0
H551 H 0.27775 0.19801 0.15514 0.0
H552 H 0.36903 0.10155 0.0985 0.0
H553 H 0.43584 0.06723 0.06737 0.0
H554 H 0.42987 0.12328 0.90159 0.0
H555 H 0.36334 0.15834 0.93178 0.0
C556 C 0.15689 0.19176 0.90558 0.0
C557 C 0.15491 0.23181 0.90335 0.0
C558 C 0.18843 0.17335 0.94026 0.0
C559 C 0.21809 0.19494 0.97269 0.0
C560 C 0.21835 0.23468 0.96661 0.0
C561 C 0.18693 0.25299 0.93247 0.0
C562 C 0.24686 0.1775 1.01705 0.0
C563 C 0.2843 0.15722 0.99932 0.0
C564 C 0.24252 0.1887 0.07556 0.0
C565 C 0.20136 0.20694 0.09701 0.0
C566 C 0.20269 0.24182 0.12659 0.0
C567 C 0.16371 0.25929 0.14502 0.0
C568 C 0.12314 0.24221 0.13415 0.0
C569 C 0.12145 0.20753 0.10498 0.0
C570 C 0.16033 0.18988 0.08662 0.0
C571 C 0.42068 0.23018 0.11018 0.0
C572 C 0.43043 0.22473 0.16911 0.0
C573 C 0.38586 0.21097 0.08478 0.0
C574 C 0.35976 0.18616 0.11779 0.0
C575 C 0.36923 0.18055 0.17676 0.0
C576 C 0.40477 0.19938 0.20214 0.0
C577 C 0.31916 0.17138 0.09127 0.0
C578 C 0.27913 0.18567 0.11219 0.0
C579 C 0.32065 0.15335 0.03665 0.0
C580 C 0.3609 0.13259 1.01749 0.0
C581 C 0.38202 0.10675 0.05546 0.0
C582 C 0.41987 0.08711 0.03797 0.0
C583 C 0.43707 0.09306 0.98254 0.0
C584 C 0.41641 0.11863 0.94448 0.0
C585 C 0.37849 0.13831 0.9617 0.0
H586 H 0.46641 0.07787 0.96911 0.0
H587 H 0.093 0.25585 0.1483 0.0
H588 H 0.64173 0.4011 0.20484 0.0
H589 H 0.69943 0.43195 0.14771 0.0
H590 H 0.73324 0.32388 0.07143 0.0
H591 H 0.67609 0.2929 0.12804 0.0
H592 H 0.78545 0.42696 0.13236 0.0
H593 H 0.74564 0.33037 0.92952 0.0
H594 H 0.67963 0.30293 0.8845 0.0
H595 H 0.59809 0.38539 0.97022 0.0
H596 H 0.66361 0.41369 1.01503 0.0
H597 H 0.9484 0.33495 0.99952 0.0
H598 H 0.88637 0.3661 0.046 0.0
H599 H 0.85795 0.42819 0.88817 0.0
H600 H 0.92115 0.3973 0.84109 0.0
H601 H 0.78848 0.3882 0.92588 0.0
H602 H 0.86949 0.48384 1.00308 0.0
H603 H 0.9287 0.522 0.04631 0.0
H604 H 0.9212 0.45584 0.20305 0.0
H605 H 0.86212 0.41706 0.16079 0.0
C606 C 0.66194 0.38384 0.1765 0.0
C607 C 0.65393 0.34466 0.17006 0.0
C608 C 0.69456 0.40162 0.14355 0.0
C609 C 0.7191 0.38049 0.10352 0.0
C610 C 0.71341 0.34094 0.10054 0.0
C611 C 0.68097 0.32321 0.13321 0.0
C612 C 0.75058 0.3989 0.06369 0.0
C613 C 0.78607 0.41898 0.08705 0.0
C614 C 0.7494 0.39122 1.00352 0.0
C615 C 0.70982 0.37449 0.97546 0.0
C616 C 0.71377 0.34306 0.93823 0.0
C617 C 0.67635 0.32719 0.91288 0.0
C618 C 0.6347 0.34244 0.92436 0.0
C619 C 0.63037 0.37361 0.96122 0.0
C620 C 0.66767 0.3896 0.98658 0.0
C621 C 0.92929 0.35545 0.97467 0.0
C622 C 0.93918 0.36324 0.91637 0.0
C623 C 0.8943 0.37383 1.00167 0.0
C624 C 0.86805 0.4 0.97082 0.0
C625 C 0.87835 0.40859 0.91293 0.0
C626 C 0.91408 0.39065 0.88604 0.0
C627 C 0.82564 0.41159 0.99656 0.0
C628 C 0.7874 0.39749 0.9706 0.0
C629 C 0.82374 0.42602 0.05356 0.0
C630 C 0.86108 0.44757 0.07869 0.0
C631 C 0.88062 0.4772 0.04664 0.0
C632 C 0.91398 0.49915 0.07114 0.0
C633 C 0.92842 0.49157 0.12757 0.0
C634 C 0.90969 0.46189 0.15951 0.0
C635 C 0.87615 0.43997 0.13534 0.0
H636 H 0.95442 0.50847 0.14633 0.0
H637 H 0.60578 0.33005 0.90479 0.0
H638 H 0.93479 0.67586 0.20614 0.0
H639 H 0.87285 0.64667 0.15474 0.0
H640 H 0.82437 0.75828 0.10757 0.0
H641 H 0.88597 0.78752 0.15791 0.0
H642 H 0.77309 0.65857 0.15094 0.0
H643 H 0.82944 0.75873 0.96268 0.0
H644 H 0.89929 0.78463 0.92559 0.0
H645 H 0.96983 0.6894 0.99837 0.0
H646 H 0.90031 0.66248 0.0348 0.0
H647 H 0.61707 0.75501 1.00108 0.0
H648 H 0.67759 0.72527 0.0541 0.0
H649 H 0.71525 0.66289 0.90122 0.0
H650 H 0.65433 0.69256 0.84753 0.0
H651 H 0.78267 0.70086 0.94546 0.0
H652 H 0.68757 0.61102 1.01396 0.0
H653 H 0.61967 0.58099 0.04934 0.0
H654 H 0.62942 0.64271 0.20878 0.0
H655 H 0.69683 0.67401 0.17389 0.0
C656 C 0.91017 0.69412 0.18617 0.0
C657 C 0.91544 0.73391 0.18486 0.0
C658 C 0.87492 0.67739 0.15701 0.0
C659 C 0.84483 0.70043 0.1268 0.0
C660 C 0.84782 0.74016 0.13023 0.0
C661 C 0.88299 0.7568 0.15877 0.0
C662 C 0.81353 0.68428 0.08515 0.0
C663 C 0.77512 0.667 0.10572 0.0
C664 C 0.81782 0.6932 1.02559 0.0
C665 C 0.85956 0.70859 1.00158 0.0
C666 C 0.85975 0.74306 0.97021 0.0
C667 C 0.89933 0.75798 0.94941 0.0
C668 C 0.93897 0.73869 0.95965 0.0
C669 C 0.93911 0.70434 0.99051 0.0
C670 C 0.89962 0.68925 1.01124 0.0
C671 C 0.63802 0.73483 0.97873 0.0
C672 C 0.63127 0.72644 0.92001 0.0
C673 C 0.67214 0.71733 1.00935 0.0
C674 C 0.7003 0.69131 0.9818 0.0
C675 C 0.6934 0.68247 0.92336 0.0
C676 C 0.65887 0.69967 0.89277 0.0
C677 C 0.74043 0.67856 1.01241 0.0
C678 C 0.78087 0.69049 0.98979 0.0
C679 C 0.73832 0.66334 0.06928 0.0
C680 C 0.6975 0.64494 0.09115 0.0
C681 C 0.67515 0.61847 0.05644 0.0
C682 C 0.63671 0.60115 0.07645 0.0
C683 C 0.6203 0.60981 0.13136 0.0
C684 C 0.64226 0.63593 0.1663 0.0
C685 C 0.68067 0.65347 0.14642 0.0
H686 H 0.59056 0.59629 0.14679 0.0
H687 H 0.96958 0.75036 0.94367 0.0
loop_
_geom_bond_atom_site_label_1
_geom_bond_atom_site_label_2
_geom_bond_distance
_geom_bond_site_symmetry_2
_ccdc_geom_bond_type
Fe0 O2 1.918 . S
Fe0 O5 1.997 . S
Fe0 O6 2.002 . S
Fe0 O11 1.976 . S
Fe0 O14 1.996 . S
Fe1 O2 1.918 . S
Fe1 O9 1.997 . S
Fe1 O12 1.996 1_455 S
Fe1 O16 1.976 1_455 S
Fe1 O19 2.002 . S
O2 Fe0 1.918 . S
O2 Fe1 1.918 . S
O2 Fe3 1.918 . S
Fe3 O2 1.918 . S
Fe3 O4 2.002 . S
Fe3 O13 1.976 . S
Fe3 O17 1.996 1_455 S
Fe3 O20 1.997 . S
O4 Fe3 2.002 . S
O4 C21 1.295 . S
O5 Fe0 1.997 . S
O5 C21 1.235 . S
O6 Fe0 2.002 . S
O6 C7 1.295 . S
C7 O6 1.295 . S
C7 O9 1.235 . S
C8 O13 1.287 . S
C8 O14 1.255 . S
O9 Fe1 1.997 . S
O9 C7 1.235 . S
C10 O16 1.287 . S
C10 O17 1.255 . S
O11 Fe0 1.976 . S
O11 C18 1.287 1_455 S
O12 Fe1 1.996 1_655 S
O12 C18 1.255 . S
O13 Fe3 1.976 . S
O13 C8 1.287 . S
O14 Fe0 1.996 . S
O14 C8 1.255 . S
C15 O19 1.295 . S
C15 O20 1.235 . S
O16 Fe1 1.976 1_655 S
O16 C10 1.287 . S
O17 Fe3 1.996 1_655 S
O17 C10 1.255 . S
C18 O11 1.287 1_655 S
C18 O12 1.255 . S
O19 Fe1 2.002 . S
O19 C15 1.295 . S
O20 Fe3 1.997 . S
O20 C15 1.235 . S
C21 O4 1.295 . S
C21 O5 1.235 . S
Fe22 O24 1.918 . S
Fe22 O27 1.997 . S
Fe22 O28 2.002 . S
Fe22 O33 1.976 . S
Fe22 O36 1.996 . S
Fe23 O24 1.918 . S
Fe23 O31 1.997 . S
Fe23 O34 1.996 . S
Fe23 O38 1.976 . S
Fe23 O41 2.002 . S
O24 Fe22 1.918 . S
O24 Fe23 1.918 . S
O24 Fe25 1.918 . S
Fe25 O24 1.918 . S
Fe25 O26 2.002 . S
Fe25 O35 1.976 . S
Fe25 O39 1.996 . S
Fe25 O42 1.997 . S
O26 Fe25 2.002 . S
O26 C43 1.295 . S
O27 Fe22 1.997 . S
O27 C43 1.235 . S
O28 Fe22 2.002 . S
O28 C29 1.295 . S
C29 O28 1.295 . S
C29 O31 1.235 . S
C30 O35 1.287 . S
C30 O36 1.255 . S
O31 Fe23 1.997 . S
O31 C29 1.235 . S
C32 O38 1.287 . S
C32 O39 1.255 . S
O33 Fe22 1.976 . S
O33 C40 1.287 . S
O34 Fe23 1.996 . S
O34 C40 1.255 . S
O35 Fe25 1.976 . S
O35 C30 1.287 . S
O36 Fe22 1.996 . S
O36 C30 1.255 . S
C37 O41 1.295 . S
C37 O42 1.235 . S
O38 Fe23 1.976 . S
O38 C32 1.287 . S
O39 Fe25 1.996 . S
O39 C32 1.255 . S
C40 O33 1.287 . S
C40 O34 1.255 . S
O41 Fe23 2.002 . S
O41 C37 1.295 . S
O42 Fe25 1.997 . S
O42 C37 1.235 . S
C43 O26 1.295 . S
C43 O27 1.235 . S
Fe44 O46 1.918 . S
Fe44 O49 1.997 . S
Fe44 O50 2.002 1_455 S
Fe44 O55 1.976 . S
Fe44 O58 1.996 . S
Fe45 O46 1.918 . S
Fe45 O53 1.997 1_455 S
Fe45 O56 1.996 . S
Fe45 O60 1.976 . S
Fe45 O63 2.002 1_455 S
O46 Fe44 1.918 . S
O46 Fe45 1.918 . S
O46 Fe47 1.918 . S
Fe47 O46 1.918 . S
Fe47 O48 2.002 . S
Fe47 O57 1.976 . S
Fe47 O61 1.996 . S
Fe47 O64 1.997 . S
O48 Fe47 2.002 . S
O48 C65 1.295 . S
O49 Fe44 1.997 . S
O49 C65 1.235 . S
O50 Fe44 2.002 1_655 S
O50 C51 1.295 . S
C51 O50 1.295 . S
C51 O53 1.235 . S
C52 O57 1.287 . S
C52 O58 1.255 . S
O53 Fe45 1.997 1_655 S
O53 C51 1.235 . S
C54 O60 1.287 . S
C54 O61 1.255 . S
O55 Fe44 1.976 . S
O55 C62 1.287 . S
O56 Fe45 1.996 . S
O56 C62 1.255 . S
O57 Fe47 1.976 . S
O57 C52 1.287 . S
O58 Fe44 1.996 . S
O58 C52 1.255 . S
C59 O63 1.295 . S
C59 O64 1.235 1_655 S
O60 Fe45 1.976 . S
O60 C54 1.287 . S
O61 Fe47 1.996 . S
O61 C54 1.255 . S
C62 O55 1.287 . S
C62 O56 1.255 . S
O63 Fe45 2.002 1_655 S
O63 C59 1.295 . S
O64 Fe47 1.997 . S
O64 C59 1.235 1_455 S
C65 O48 1.295 . S
C65 O49 1.235 . S
Fe66 O68 1.918 . S
Fe66 O71 1.997 . S
Fe66 O72 2.002 . S
Fe66 O77 1.976 . S
Fe66 O80 1.996 . S
Fe67 O68 1.918 . S
Fe67 O75 1.997 . S
Fe67 O78 1.996 . S
Fe67 O82 1.976 . S
Fe67 O85 2.002 . S
O68 Fe66 1.918 . S
O68 Fe67 1.918 . S
O68 Fe69 1.918 . S
Fe69 O68 1.918 . S
Fe69 O70 2.002 . S
Fe69 O79 1.976 . S
Fe69 O83 1.996 . S
Fe69 O86 1.997 . S
O70 Fe69 2.002 . S
O70 C87 1.295 . S
O71 Fe66 1.997 . S
O71 C87 1.235 . S
O72 Fe66 2.002 . S
O72 C73 1.295 . S
C73 O72 1.295 . S
C73 O75 1.235 . S
C74 O79 1.287 . S
C74 O80 1.255 . S
O75 Fe67 1.997 . S
O75 C73 1.235 . S
C76 O82 1.287 . S
C76 O83 1.255 . S
O77 Fe66 1.976 . S
O77 C84 1.287 . S
O78 Fe67 1.996 . S
O78 C84 1.255 . S
O79 Fe69 1.976 . S
O79 C74 1.287 . S
O80 Fe66 1.996 . S
O80 C74 1.255 . S
C81 O85 1.295 . S
C81 O86 1.235 . S
O82 Fe67 1.976 . S
O82 C76 1.287 . S
O83 Fe69 1.996 . S
O83 C76 1.255 . S
C84 O77 1.287 . S
C84 O78 1.255 . S
O85 Fe67 2.002 . S
O85 C81 1.295 . S
O86 Fe69 1.997 . S
O86 C81 1.235 . S
C87 O70 1.295 . S
C87 O71 1.235 . S
H88 C106 0.951 . S
H89 C108 0.951 . S
H90 C110 0.950 1_655 S
H91 C111 0.950 1_655 S
H92 C113 0.950 . S
H93 C116 0.950 1_655 S
H94 C117 0.950 1_655 S
H95 C119 0.950 . S
H96 C120 0.950 . S
H97 C121 0.953 . S
H98 C123 0.951 . S
H99 C125 0.950 . S
H100 C126 0.950 . S
H101 C128 0.950 . S
H102 C131 0.950 . S
H103 C132 0.950 . S
H104 C134 0.945 1_655 S
H105 C135 0.950 1_655 S
C106 H88 0.951 . S
C106 C107 1.366 . S
C106 C108 1.388 . S
C107 C106 1.366 . S
C107 C111 1.385 . S
C108 H89 0.951 . S
C108 C106 1.388 . S
C108 C109 1.366 . S
C109 C108 1.366 . S
C109 C110 1.414 . S
C109 C112 1.499 . S
C110 H90 0.950 1_455 S
C110 C109 1.414 . S
C110 C111 1.374 . S
C111 H91 0.950 1_455 S
C111 C107 1.385 . S
C111 C110 1.374 . S
C112 C109 1.499 . S
C112 C113 1.373 . S
C112 C114 1.389 1_556 S
C113 H92 0.950 . S
C113 C112 1.373 . S
C113 C129 1.377 . S
C114 C112 1.389 1_554 S
C114 C115 1.524 . S
C114 C128 1.377 . S
C115 C114 1.524 . S
C115 C116 1.397 . S
C115 C120 1.363 . S
C116 H93 0.950 1_455 S
C116 C115 1.397 . S
C116 C117 1.334 . S
C117 H94 0.950 1_455 S
C117 C116 1.334 . S
C117 C118 1.287 . S
C118 C117 1.287 . S
C118 C119 1.524 . S
C118 H137 0.913 . S
C119 H95 0.950 . S
C119 C118 1.524 . S
C119 C120 1.415 . S
C120 H96 0.950 . S
C120 C115 1.363 . S
C120 C119 1.415 . S
C121 H97 0.953 . S
C121 C122 1.366 . S
C121 C123 1.388 . S
C122 C121 1.366 . S
C122 C126 1.385 . S
C123 H98 0.951 . S
C123 C121 1.388 . S
C123 C124 1.366 . S
C124 C123 1.366 . S
C124 C125 1.414 . S
C124 C127 1.499 . S
C125 H99 0.950 . S
C125 C124 1.414 . S
C125 C126 1.374 . S
C126 H100 0.950 . S
C126 C122 1.385 . S
C126 C125 1.374 . S
C127 C124 1.499 . S
C127 C128 1.373 . S
C127 C129 1.389 1_554 S
C128 H101 0.950 . S
C128 C114 1.377 . S
C128 C127 1.373 . S
C129 C113 1.377 . S
C129 C127 1.389 1_556 S
C129 C130 1.524 . S
C130 C129 1.524 . S
C130 C131 1.397 . S
C130 C135 1.363 . S
C131 H102 0.950 . S
C131 C130 1.397 . S
C131 C132 1.334 . S
C132 H103 0.950 . S
C132 C131 1.334 . S
C132 C133 1.287 . S
C133 C132 1.287 . S
C133 C134 1.524 . S
C133 H136 0.999 . S
C134 H104 0.945 1_455 S
C134 C133 1.524 . S
C134 C135 1.415 . S
C135 H105 0.950 1_455 S
C135 C130 1.363 . S
C135 C134 1.415 . S
H136 C133 0.999 . S
H137 C118 0.913 . S
H138 C156 0.951 . S
H139 C158 0.951 1_556 S
H140 C160 0.950 . S
H141 C161 0.950 . S
H142 C163 0.950 . S
H143 C166 0.950 . S
H144 C167 0.950 . S
H145 C169 0.950 . S
H146 C170 0.950 . S
H147 C171 0.951 . S
H148 C173 0.951 1_554 S
H149 C175 0.950 . S
H150 C176 0.950 . S
H151 C178 0.950 . S
H152 C181 0.950 . S
H153 C182 0.950 . S
H154 C184 0.950 . S
H155 C185 0.950 . S
C156 H138 0.951 . S
C156 C157 1.366 . S
C156 C158 1.388 . S
C157 C156 1.366 . S
C157 C161 1.385 . S
C158 H139 0.951 1_554 S
C158 C156 1.388 . S
C158 C159 1.366 . S
C159 C158 1.366 . S
C159 C160 1.414 . S
C159 C162 1.499 . S
C160 H140 0.950 . S
C160 C159 1.414 . S
C160 C161 1.374 . S
C161 H141 0.950 . S
C161 C157 1.385 . S
C161 C160 1.374 . S
C162 C159 1.499 . S
C162 C163 1.373 . S
C162 C164 1.389 1_554 S
C163 H142 0.950 . S
C163 C162 1.373 . S
C163 C179 1.377 . S
C164 C162 1.389 1_556 S
C164 C165 1.524 . S
C164 C178 1.377 . S
C165 C164 1.524 . S
C165 C166 1.397 1_556 S
C165 C170 1.363 . S
C166 H143 0.950 . S
C166 C165 1.397 1_554 S
C166 C167 1.334 . S
C167 H144 0.950 . S
C167 C166 1.334 . S
C167 C168 1.287 1_554 S
C168 C167 1.287 1_556 S
C168 C169 1.524 . S
C168 H187 0.913 . S
C169 H145 0.950 . S
C169 C168 1.524 . S
C169 C170 1.415 . S
C170 H146 0.950 . S
C170 C165 1.363 . S
C170 C169 1.415 . S
C171 H147 0.951 . S
C171 C172 1.366 . S
C171 C173 1.388 . S
C172 C171 1.366 . S
C172 C176 1.385 . S
C173 H148 0.951 1_556 S
C173 C171 1.388 . S
C173 C174 1.366 . S
C174 C173 1.366 . S
C174 C175 1.414 . S
C174 C177 1.499 . S
C175 H149 0.950 . S
C175 C174 1.414 . S
C175 C176 1.374 . S
C176 H150 0.950 . S
C176 C172 1.385 . S
C176 C175 1.374 . S
C177 C174 1.499 . S
C177 C178 1.373 . S
C177 C179 1.389 1_556 S
C178 H151 0.950 . S
C178 C164 1.377 . S
C178 C177 1.373 . S
C179 C163 1.377 . S
C179 C177 1.389 1_554 S
C179 C180 1.524 . S
C180 C179 1.524 . S
C180 C181 1.397 1_554 S
C180 C185 1.363 . S
C181 H152 0.950 . S
C181 C180 1.397 1_556 S
C181 C182 1.334 . S
C182 H153 0.950 . S
C182 C181 1.334 . S
C182 C183 1.287 1_556 S
C183 C182 1.287 1_554 S
C183 C184 1.524 . S
C183 H186 0.999 . S
C184 H154 0.950 . S
C184 C183 1.524 . S
C184 C185 1.415 . S
C185 H155 0.950 . S
C185 C180 1.363 . S
C185 C184 1.415 . S
H186 C183 0.999 . S
H187 C168 0.913 . S
H188 C206 0.951 . S
H189 C208 0.951 1_554 S
H190 C210 0.950 . S
H191 C211 0.950 . S
H192 C213 0.950 . S
H193 C216 0.950 . S
H194 C217 0.950 . S
H195 C219 0.950 . S
H196 C220 0.950 . S
H197 C221 0.951 . S
H198 C223 0.951 1_556 S
H199 C225 0.950 . S
H200 C226 0.950 . S
H201 C228 0.950 . S
H202 C231 0.950 . S
H203 C232 0.950 . S
H204 C234 0.950 . S
H205 C235 0.950 . S
C206 H188 0.951 . S
C206 C207 1.366 . S
C206 C208 1.388 . S
C207 C206 1.366 . S
C207 C211 1.385 . S
C208 H189 0.951 1_556 S
C208 C206 1.388 . S
C208 C209 1.366 . S
C209 C208 1.366 . S
C209 C210 1.414 . S
C209 C212 1.499 . S
C210 H190 0.950 . S
C210 C209 1.414 . S
C210 C211 1.374 . S
C211 H191 0.950 . S
C211 C207 1.385 . S
C211 C210 1.374 . S
C212 C209 1.499 . S
C212 C213 1.373 . S
C212 C214 1.389 1_556 S
C213 H192 0.950 . S
C213 C212 1.373 . S
C213 C229 1.377 1_565 S
C214 C212 1.389 1_554 S
C214 C215 1.524 . S
C214 C228 1.377 1_565 S
C215 C214 1.524 . S
C215 C216 1.397 1_554 S
C215 C220 1.363 . S
C216 H193 0.950 . S
C216 C215 1.397 1_556 S
C216 C217 1.334 . S
C217 H194 0.950 . S
C217 C216 1.334 . S
C217 C218 1.287 1_556 S
C218 C217 1.287 1_554 S
C218 C219 1.524 . S
C218 H237 0.913 . S
C219 H195 0.950 . S
C219 C218 1.524 . S
C219 C220 1.415 . S
C220 H196 0.950 . S
C220 C215 1.363 . S
C220 C219 1.415 . S
C221 H197 0.951 . S
C221 C222 1.366 . S
C221 C223 1.388 . S
C222 C221 1.366 . S
C222 C226 1.385 . S
C223 H198 0.951 1_554 S
C223 C221 1.388 . S
C223 C224 1.366 . S
C224 C223 1.366 . S
C224 C225 1.414 . S
C224 C227 1.499 . S
C225 H199 0.950 . S
C225 C224 1.414 . S
C225 C226 1.374 . S
C226 H200 0.950 . S
C226 C222 1.385 . S
C226 C225 1.374 . S
C227 C224 1.499 . S
C227 C228 1.373 . S
C227 C229 1.389 1_554 S
C228 H201 0.950 . S
C228 C214 1.377 1_545 S
C228 C227 1.373 . S
C229 C213 1.377 1_545 S
C229 C227 1.389 1_556 S
C229 C230 1.524 . S
C230 C229 1.524 . S
C230 C231 1.397 1_556 S
C230 C235 1.363 . S
C231 H202 0.950 . S
C231 C230 1.397 1_554 S
C231 C232 1.334 . S
C232 H203 0.950 . S
C232 C231 1.334 . S
C232 C233 1.287 1_554 S
C233 C232 1.287 1_556 S
C233 C234 1.524 . S
C233 H236 0.999 . S
C234 H204 0.950 . S
C234 C233 1.524 . S
C234 C235 1.415 . S
C235 H205 0.950 . S
C235 C230 1.363 . S
C235 C234 1.415 . S
H236 C233 0.999 . S
H237 C218 0.913 . S
H238 C256 0.951 . S
H239 C258 0.951 . S
H240 C260 0.950 . S
H241 C261 0.950 . S
H242 C263 0.950 . S
H243 C266 0.950 . S
H244 C267 0.950 . S
H245 C269 0.950 . S
H246 C270 0.950 . S
H247 C271 0.951 . S
H248 C273 0.951 . S
H249 C275 0.950 . S
H250 C276 0.950 . S
H251 C278 0.950 . S
H252 C281 0.950 1_655 S
H253 C282 0.950 1_655 S
H254 C284 0.950 . S
H255 C285 0.950 . S
C256 H238 0.951 . S
C256 C257 1.366 1_655 S
C256 C258 1.388 . S
C257 C256 1.366 1_455 S
C257 C261 1.385 . S
C258 H239 0.951 . S
C258 C256 1.388 . S
C258 C259 1.366 1_655 S
C259 C258 1.366 1_455 S
C259 C260 1.414 . S
C259 C262 1.499 . S
C260 H240 0.950 . S
C260 C259 1.414 . S
C260 C261 1.374 . S
C261 H241 0.950 . S
C261 C257 1.385 . S
C261 C260 1.374 . S
C262 C259 1.499 . S
C262 C263 1.373 . S
C262 C264 1.389 1_554 S
C263 H242 0.950 . S
C263 C262 1.373 . S
C263 C279 1.377 1_565 S
C264 C262 1.389 1_556 S
C264 C265 1.524 . S
C264 C278 1.377 1_565 S
C265 C264 1.524 . S
C265 C266 1.397 . S
C265 C270 1.363 1_455 S
C266 H243 0.950 . S
C266 C265 1.397 . S
C266 C267 1.334 . S
C267 H244 0.950 . S
C267 C266 1.334 . S
C267 C268 1.287 . S
C268 C267 1.287 . S
C268 C269 1.524 1_455 S
C268 H287 0.913 . S
C269 H245 0.950 . S
C269 C268 1.524 1_655 S
C269 C270 1.415 . S
C270 H246 0.950 . S
C270 C265 1.363 1_655 S
C270 C269 1.415 . S
C271 H247 0.951 . S
C271 C272 1.366 . S
C271 C273 1.388 . S
C272 C271 1.366 . S
C272 C276 1.385 1_455 S
C273 H248 0.951 . S
C273 C271 1.388 . S
C273 C274 1.366 . S
C274 C273 1.366 . S
C274 C275 1.414 1_455 S
C274 C277 1.499 . S
C275 H249 0.950 . S
C275 C274 1.414 1_655 S
C275 C276 1.374 . S
C276 H250 0.950 . S
C276 C272 1.385 1_655 S
C276 C275 1.374 . S
C277 C274 1.499 . S
C277 C278 1.373 . S
C277 C279 1.389 1_556 S
C278 H251 0.950 . S
C278 C264 1.377 1_545 S
C278 C277 1.373 . S
C279 C263 1.377 1_545 S
C279 C277 1.389 1_554 S
C279 C280 1.524 . S
C280 C279 1.524 . S
C280 C281 1.397 . S
C280 C285 1.363 . S
C281 H252 0.950 1_455 S
C281 C280 1.397 . S
C281 C282 1.334 . S
C282 H253 0.950 1_455 S
C282 C281 1.334 . S
C282 C283 1.287 . S
C283 C282 1.287 . S
C283 C284 1.524 . S
C283 H286 0.999 . S
C284 H254 0.950 . S
C284 C283 1.524 . S
C284 C285 1.415 . S
C285 H255 0.950 . S
C285 C280 1.363 . S
C285 C284 1.415 . S
H286 C283 0.999 . S
H287 C268 0.913 . S
H288 C306 0.951 . S
H289 C308 0.951 . S
H290 C310 0.950 . S
H291 C311 0.950 . S
H292 C313 0.950 . S
H293 C316 0.950 . S
H294 C317 0.950 . S
H295 C319 0.950 . S
H296 C320 0.950 . S
H297 C321 0.951 . S
H298 C323 0.951 . S
H299 C325 0.950 . S
H300 C326 0.950 . S
H301 C328 0.950 . S
H302 C331 0.950 . S
H303 C332 0.950 . S
H304 C334 0.950 . S
H305 C335 0.950 . S
C306 H288 0.951 . S
C306 C307 1.366 . S
C306 C308 1.388 . S
C307 C306 1.366 . S
C307 C311 1.385 . S
C308 H289 0.951 . S
C308 C306 1.388 . S
C308 C309 1.366 . S
C309 C308 1.366 . S
C309 C310 1.414 . S
C309 C312 1.499 . S
C310 H290 0.950 . S
C310 C309 1.414 . S
C310 C311 1.374 . S
C311 H291 0.950 . S
C311 C307 1.385 . S
C311 C310 1.374 . S
C312 C309 1.499 . S
C312 C313 1.373 . S
C312 C314 1.389 . S
C313 H292 0.950 . S
C313 C312 1.373 . S
C313 C329 1.377 . S
C314 C312 1.389 . S
C314 C315 1.524 . S
C314 C328 1.377 . S
C315 C314 1.524 . S
C315 C316 1.397 . S
C315 C320 1.363 . S
C316 H293 0.950 . S
C316 C315 1.397 . S
C316 C317 1.334 . S
C317 H294 0.950 . S
C317 C316 1.334 . S
C317 C318 1.287 . S
C318 C317 1.287 . S
C318 C319 1.524 . S
C318 H337 0.913 . S
C319 H295 0.950 . S
C319 C318 1.524 . S
C319 C320 1.415 . S
C320 H296 0.950 . S
C320 C315 1.363 . S
C320 C319 1.415 . S
C321 H297 0.951 . S
C321 C322 1.366 . S
C321 C323 1.388 . S
C322 C321 1.366 . S
C322 C326 1.385 . S
C323 H298 0.951 . S
C323 C321 1.388 . S
C323 C324 1.366 . S
C324 C323 1.366 . S
C324 C325 1.414 . S
C324 C327 1.499 . S
C325 H299 0.950 . S
C325 C324 1.414 . S
C325 C326 1.374 . S
C326 H300 0.950 . S
C326 C322 1.385 . S
C326 C325 1.374 . S
C327 C324 1.499 . S
C327 C328 1.373 . S
C327 C329 1.389 . S
C328 H301 0.950 . S
C328 C314 1.377 . S
C328 C327 1.373 . S
C329 C313 1.377 . S
C329 C327 1.389 . S
C329 C330 1.524 . S
C330 C329 1.524 . S
C330 C331 1.397 . S
C330 C335 1.363 . S
C331 H302 0.950 . S
C331 C330 1.397 . S
C331 C332 1.334 . S
C332 H303 0.950 . S
C332 C331 1.334 . S
C332 C333 1.287 . S
C333 C332 1.287 . S
C333 C334 1.524 . S
C333 H336 0.999 . S
C334 H304 0.950 . S
C334 C333 1.524 . S
C334 C335 1.415 . S
C335 H305 0.950 . S
C335 C330 1.363 . S
C335 C334 1.415 . S
H336 C333 0.999 . S
H337 C318 0.913 . S
H338 C356 0.951 . S
H339 C358 0.951 . S
H340 C360 0.950 . S
H341 C361 0.950 . S
H342 C363 0.950 . S
H343 C366 0.950 . S
H344 C367 0.950 . S
H345 C369 0.950 . S
H346 C370 0.950 . S
H347 C371 0.951 . S
H348 C373 0.951 . S
H349 C375 0.950 . S
H350 C376 0.950 . S
H351 C378 0.950 . S
H352 C381 0.950 . S
H353 C382 0.950 . S
H354 C384 0.950 . S
H355 C385 0.950 . S
C356 H338 0.951 . S
C356 C357 1.366 . S
C356 C358 1.388 . S
C357 C356 1.366 . S
C357 C361 1.385 . S
C358 H339 0.951 . S
C358 C356 1.388 . S
C358 C359 1.366 . S
C359 C358 1.366 . S
C359 C360 1.414 . S
C359 C362 1.499 . S
C360 H340 0.950 . S
C360 C359 1.414 . S
C360 C361 1.374 . S
C361 H341 0.950 . S
C361 C357 1.385 . S
C361 C360 1.374 . S
C362 C359 1.499 . S
C362 C363 1.373 . S
C362 C364 1.389 . S
C363 H342 0.950 . S
C363 C362 1.373 . S
C363 C379 1.377 . S
C364 C362 1.389 . S
C364 C365 1.524 . S
C364 C378 1.377 . S
C365 C364 1.524 . S
C365 C366 1.397 . S
C365 C370 1.363 . S
C366 H343 0.950 . S
C366 C365 1.397 . S
C366 C367 1.334 . S
C367 H344 0.950 . S
C367 C366 1.334 . S
C367 C368 1.287 . S
C368 C367 1.287 . S
C368 C369 1.524 . S
C368 H387 0.913 . S
C369 H345 0.950 . S
C369 C368 1.524 . S
C369 C370 1.415 . S
C370 H346 0.950 . S
C370 C365 1.363 . S
C370 C369 1.415 . S
C371 H347 0.951 . S
C371 C372 1.366 . S
C371 C373 1.388 . S
C372 C371 1.366 . S
C372 C376 1.385 . S
C373 H348 0.951 . S
C373 C371 1.388 . S
C373 C374 1.366 . S
C374 C373 1.366 . S
C374 C375 1.414 . S
C374 C377 1.499 . S
C375 H349 0.950 . S
C375 C374 1.414 . S
C375 C376 1.374 . S
C376 H350 0.950 . S
C376 C372 1.385 . S
C376 C375 1.374 . S
C377 C374 1.499 . S
C377 C378 1.373 . S
C377 C379 1.389 . S
C378 H351 0.950 . S
C378 C364 1.377 . S
C378 C377 1.373 . S
C379 C363 1.377 . S
C379 C377 1.389 . S
C379 C380 1.524 . S
C380 C379 1.524 . S
C380 C381 1.397 . S
C380 C385 1.363 . S
C381 H352 0.950 . S
C381 C380 1.397 . S
C381 C382 1.334 . S
C382 H353 0.950 . S
C382 C381 1.334 . S
C382 C383 1.287 . S
C383 C382 1.287 . S
C383 C384 1.524 . S
C383 H386 0.999 . S
C384 H354 0.950 . S
C384 C383 1.524 . S
C384 C385 1.415 . S
C385 H355 0.950 . S
C385 C380 1.363 . S
C385 C384 1.415 . S
H386 C383 0.999 . S
H387 C368 0.913 . S
H388 C406 0.951 . S
H389 C408 0.951 . S
H390 C410 0.950 . S
H391 C411 0.950 . S
H392 C413 0.950 . S
H393 C416 0.950 . S
H394 C417 0.950 . S
H395 C419 0.950 . S
H396 C420 0.950 . S
H397 C421 0.951 . S
H398 C423 0.951 . S
H399 C425 0.950 . S
H400 C426 0.950 . S
H401 C428 0.950 . S
H402 C431 0.950 . S
H403 C432 0.950 . S
H404 C434 0.950 . S
H405 C435 0.950 . S
C406 H388 0.951 . S
C406 C407 1.366 . S
C406 C408 1.388 . S
C407 C406 1.366 . S
C407 C411 1.385 . S
C408 H389 0.951 . S
C408 C406 1.388 . S
C408 C409 1.366 . S
C409 C408 1.366 . S
C409 C410 1.414 . S
C409 C412 1.499 . S
C410 H390 0.950 . S
C410 C409 1.414 . S
C410 C411 1.374 . S
C411 H391 0.950 . S
C411 C407 1.385 . S
C411 C410 1.374 . S
C412 C409 1.499 . S
C412 C413 1.373 . S
C412 C414 1.389 . S
C413 H392 0.950 . S
C413 C412 1.373 . S
C413 C429 1.377 . S
C414 C412 1.389 . S
C414 C415 1.524 . S
C414 C428 1.377 . S
C415 C414 1.524 . S
C415 C416 1.397 . S
C415 C420 1.363 . S
C416 H393 0.950 . S
C416 C415 1.397 . S
C416 C417 1.334 . S
C417 H394 0.950 . S
C417 C416 1.334 . S
C417 C418 1.287 . S
C418 C417 1.287 . S
C418 C419 1.524 . S
C418 H437 0.913 . S
C419 H395 0.950 . S
C419 C418 1.524 . S
C419 C420 1.415 . S
C420 H396 0.950 . S
C420 C415 1.363 . S
C420 C419 1.415 . S
C421 H397 0.951 . S
C421 C422 1.366 . S
C421 C423 1.388 . S
C422 C421 1.366 . S
C422 C426 1.385 . S
C423 H398 0.951 . S
C423 C421 1.388 . S
C423 C424 1.366 . S
C424 C423 1.366 . S
C424 C425 1.414 . S
C424 C427 1.499 . S
C425 H399 0.950 . S
C425 C424 1.414 . S
C425 C426 1.374 . S
C426 H400 0.950 . S
C426 C422 1.385 . S
C426 C425 1.374 . S
C427 C424 1.499 . S
C427 C428 1.373 . S
C427 C429 1.389 . S
C428 H401 0.950 . S
C428 C414 1.377 . S
C428 C427 1.373 . S
C429 C413 1.377 . S
C429 C427 1.389 . S
C429 C430 1.524 . S
C430 C429 1.524 . S
C430 C431 1.397 . S
C430 C435 1.363 . S
C431 H402 0.950 . S
C431 C430 1.397 . S
C431 C432 1.334 . S
C432 H403 0.950 . S
C432 C431 1.334 . S
C432 C433 1.287 . S
C433 C432 1.287 . S
C433 C434 1.524 . S
C433 H436 0.999 . S
C434 H404 0.950 . S
C434 C433 1.524 . S
C434 C435 1.415 . S
C435 H405 0.950 . S
C435 C430 1.363 . S
C435 C434 1.415 . S
H436 C433 0.999 . S
H437 C418 0.913 . S
H438 C456 0.951 . S
H439 C458 0.951 . S
H440 C460 0.950 . S
H441 C461 0.950 . S
H442 C463 0.950 . S
H443 C466 0.950 . S
H444 C467 0.950 . S
H445 C469 0.950 . S
H446 C470 0.950 . S
H447 C471 0.951 . S
H448 C473 0.951 . S
H449 C475 0.950 . S
H450 C476 0.950 . S
H451 C478 0.950 . S
H452 C481 0.950 . S
H453 C482 0.950 . S
H454 C484 0.950 . S
H455 C485 0.950 . S
C456 H438 0.951 . S
C456 C457 1.366 . S
C456 C458 1.388 . S
C457 C456 1.366 . S
C457 C461 1.385 . S
C458 H439 0.951 . S
C458 C456 1.388 . S
C458 C459 1.366 . S
C459 C458 1.366 . S
C459 C460 1.414 . S
C459 C462 1.499 . S
C460 H440 0.950 . S
C460 C459 1.414 . S
C460 C461 1.374 . S
C461 H441 0.950 . S
C461 C457 1.385 . S
C461 C460 1.374 . S
C462 C459 1.499 . S
C462 C463 1.373 . S
C462 C464 1.389 . S
C463 H442 0.950 . S
C463 C462 1.373 . S
C463 C479 1.377 . S
C464 C462 1.389 . S
C464 C465 1.524 . S
C464 C478 1.377 . S
C465 C464 1.524 . S
C465 C466 1.397 . S
C465 C470 1.363 . S
C466 H443 0.950 . S
C466 C465 1.397 . S
C466 C467 1.334 . S
C467 H444 0.950 . S
C467 C466 1.334 . S
C467 C468 1.287 . S
C468 C467 1.287 . S
C468 C469 1.524 . S
C468 H487 0.913 . S
C469 H445 0.950 . S
C469 C468 1.524 . S
C469 C470 1.415 . S
C470 H446 0.950 . S
C470 C465 1.363 . S
C470 C469 1.415 . S
C471 H447 0.951 . S
C471 C472 1.366 . S
C471 C473 1.388 . S
C472 C471 1.366 . S
C472 C476 1.385 . S
C473 H448 0.951 . S
C473 C471 1.388 . S
C473 C474 1.366 . S
C474 C473 1.366 . S
C474 C475 1.414 . S
C474 C477 1.499 . S
C475 H449 0.950 . S
C475 C474 1.414 . S
C475 C476 1.374 . S
C476 H450 0.950 . S
C476 C472 1.385 . S
C476 C475 1.374 . S
C477 C474 1.499 . S
C477 C478 1.373 . S
C477 C479 1.389 . S
C478 H451 0.950 . S
C478 C464 1.377 . S
C478 C477 1.373 . S
C479 C463 1.377 . S
C479 C477 1.389 . S
C479 C480 1.524 . S
C480 C479 1.524 . S
C480 C481 1.397 . S
C480 C485 1.363 . S
C481 H452 0.950 . S
C481 C480 1.397 . S
C481 C482 1.334 . S
C482 H453 0.950 . S
C482 C481 1.334 . S
C482 C483 1.287 . S
C483 C482 1.287 . S
C483 C484 1.524 . S
C483 H486 0.999 . S
C484 H454 0.950 . S
C484 C483 1.524 . S
C484 C485 1.415 . S
C485 H455 0.950 . S
C485 C480 1.363 . S
C485 C484 1.415 . S
H486 C483 0.999 . S
H487 C468 0.913 . S
H488 C506 0.951 . S
H489 C508 0.951 . S
H490 C510 0.950 . S
H491 C511 0.950 . S
H492 C513 0.950 . S
H493 C516 0.950 . S
H494 C517 0.950 . S
H495 C519 0.950 . S
H496 C520 0.950 . S
H497 C521 0.951 . S
H498 C523 0.951 . S
H499 C525 0.950 . S
H500 C526 0.950 . S
H501 C528 0.950 . S
H502 C531 0.950 . S
H503 C532 0.950 . S
H504 C534 0.950 . S
H505 C535 0.950 . S
C506 H488 0.951 . S
C506 C507 1.366 . S
C506 C508 1.388 . S
C507 C506 1.366 . S
C507 C511 1.385 . S
C508 H489 0.951 . S
C508 C506 1.388 . S
C508 C509 1.366 . S
C509 C508 1.366 . S
C509 C510 1.414 . S
C509 C512 1.499 . S
C510 H490 0.950 . S
C510 C509 1.414 . S
C510 C511 1.374 . S
C511 H491 0.950 . S
C511 C507 1.385 . S
C511 C510 1.374 . S
C512 C509 1.499 . S
C512 C513 1.373 1_556 S
C512 C514 1.389 . S
C513 H492 0.950 . S
C513 C512 1.373 1_554 S
C513 C529 1.377 . S
C514 C512 1.389 . S
C514 C515 1.524 . S
C514 C528 1.377 . S
C515 C514 1.524 . S
C515 C516 1.397 . S
C515 C520 1.363 . S
C516 H493 0.950 . S
C516 C515 1.397 . S
C516 C517 1.334 . S
C517 H494 0.950 . S
C517 C516 1.334 . S
C517 C518 1.287 . S
C518 C517 1.287 . S
C518 C519 1.524 . S
C518 H537 0.913 . S
C519 H495 0.950 . S
C519 C518 1.524 . S
C519 C520 1.415 . S
C520 H496 0.950 . S
C520 C515 1.363 . S
C520 C519 1.415 . S
C521 H497 0.951 . S
C521 C522 1.366 . S
C521 C523 1.388 . S
C522 C521 1.366 . S
C522 C526 1.385 . S
C523 H498 0.951 . S
C523 C521 1.388 . S
C523 C524 1.366 . S
C524 C523 1.366 . S
C524 C525 1.414 . S
C524 C527 1.499 . S
C525 H499 0.950 . S
C525 C524 1.414 . S
C525 C526 1.374 . S
C526 H500 0.950 . S
C526 C522 1.385 . S
C526 C525 1.374 . S
C527 C524 1.499 . S
C527 C528 1.373 1_554 S
C527 C529 1.389 . S
C528 H501 0.950 . S
C528 C514 1.377 . S
C528 C527 1.373 1_556 S
C529 C513 1.377 . S
C529 C527 1.389 . S
C529 C530 1.524 . S
C530 C529 1.524 . S
C530 C531 1.397 . S
C530 C535 1.363 . S
C531 H502 0.950 . S
C531 C530 1.397 . S
C531 C532 1.334 . S
C532 H503 0.950 . S
C532 C531 1.334 . S
C532 C533 1.287 . S
C533 C532 1.287 . S
C533 C534 1.524 . S
C533 H536 0.999 . S
C534 H504 0.950 . S
C534 C533 1.524 . S
C534 C535 1.415 . S
C535 H505 0.950 . S
C535 C530 1.363 . S
C535 C534 1.415 . S
H536 C533 0.999 . S
H537 C518 0.913 . S
H538 C556 0.951 . S
H539 C558 0.951 . S
H540 C560 0.950 . S
H541 C561 0.950 . S
H542 C563 0.950 . S
H543 C566 0.950 . S
H544 C567 0.950 . S
H545 C569 0.950 . S
H546 C570 0.950 . S
H547 C571 0.951 . S
H548 C573 0.951 . S
H549 C575 0.950 . S
H550 C576 0.950 . S
H551 C578 0.950 . S
H552 C581 0.950 . S
H553 C582 0.950 . S
H554 C584 0.950 . S
H555 C585 0.950 . S
C556 H538 0.951 . S
C556 C557 1.366 . S
C556 C558 1.388 . S
C557 C556 1.366 . S
C557 C561 1.385 . S
C558 H539 0.951 . S
C558 C556 1.388 . S
C558 C559 1.366 . S
C559 C558 1.366 . S
C559 C560 1.414 . S
C559 C562 1.499 . S
C560 H540 0.950 . S
C560 C559 1.414 . S
C560 C561 1.374 . S
C561 H541 0.950 . S
C561 C557 1.385 . S
C561 C560 1.374 . S
C562 C559 1.499 . S
C562 C563 1.373 . S
C562 C564 1.389 1_556 S
C563 H542 0.950 . S
C563 C562 1.373 . S
C563 C579 1.377 . S
C564 C562 1.389 1_554 S
C564 C565 1.524 . S
C564 C578 1.377 . S
C565 C564 1.524 . S
C565 C566 1.397 1_554 S
C565 C570 1.363 . S
C566 H543 0.950 . S
C566 C565 1.397 1_556 S
C566 C567 1.334 . S
C567 H544 0.950 . S
C567 C566 1.334 . S
C567 C568 1.287 1_556 S
C568 C567 1.287 1_554 S
C568 C569 1.524 . S
C568 H587 0.913 . S
C569 H545 0.950 . S
C569 C568 1.524 . S
C569 C570 1.415 . S
C570 H546 0.950 . S
C570 C565 1.363 . S
C570 C569 1.415 . S
C571 H547 0.951 . S
C571 C572 1.366 . S
C571 C573 1.388 . S
C572 C571 1.366 . S
C572 C576 1.385 . S
C573 H548 0.951 . S
C573 C571 1.388 . S
C573 C574 1.366 . S
C574 C573 1.366 . S
C574 C575 1.414 . S
C574 C577 1.499 . S
C575 H549 0.950 . S
C575 C574 1.414 . S
C575 C576 1.374 . S
C576 H550 0.950 . S
C576 C572 1.385 . S
C576 C575 1.374 . S
C577 C574 1.499 . S
C577 C578 1.373 . S
C577 C579 1.389 1_554 S
C578 H551 0.950 . S
C578 C564 1.377 . S
C578 C577 1.373 . S
C579 C563 1.377 . S
C579 C577 1.389 1_556 S
C579 C580 1.524 . S
C580 C579 1.524 . S
C580 C581 1.397 1_556 S
C580 C585 1.363 . S
C581 H552 0.950 . S
C581 C580 1.397 1_554 S
C581 C582 1.334 . S
C582 H553 0.950 . S
C582 C581 1.334 . S
C582 C583 1.287 1_554 S
C583 C582 1.287 1_556 S
C583 C584 1.524 . S
C583 H586 0.999 . S
C584 H554 0.950 . S
C584 C583 1.524 . S
C584 C585 1.415 . S
C585 H555 0.950 . S
C585 C580 1.363 . S
C585 C584 1.415 . S
H586 C583 0.999 . S
H587 C568 0.913 . S
H588 C606 0.951 . S
H589 C608 0.951 . S
H590 C610 0.950 . S
H591 C611 0.950 . S
H592 C613 0.950 . S
H593 C616 0.950 . S
H594 C617 0.950 1_554 S
H595 C619 0.950 . S
H596 C620 0.950 . S
H597 C621 0.951 . S
H598 C623 0.951 . S
H599 C625 0.950 . S
H600 C626 0.950 . S
H601 C628 0.950 . S
H602 C631 0.950 . S
H603 C632 0.950 1_556 S
H604 C634 0.950 . S
H605 C635 0.950 . S
C606 H588 0.951 . S
C606 C607 1.366 . S
C606 C608 1.388 . S
C607 C606 1.366 . S
C607 C611 1.385 . S
C608 H589 0.951 . S
C608 C606 1.388 . S
C608 C609 1.366 . S
C609 C608 1.366 . S
C609 C610 1.414 . S
C609 C612 1.499 . S
C610 H590 0.950 . S
C610 C609 1.414 . S
C610 C611 1.374 . S
C611 H591 0.950 . S
C611 C607 1.385 . S
C611 C610 1.374 . S
C612 C609 1.499 . S
C612 C613 1.373 . S
C612 C614 1.389 1_554 S
C613 H592 0.950 . S
C613 C612 1.373 . S
C613 C629 1.377 . S
C614 C612 1.389 1_556 S
C614 C615 1.524 . S
C614 C628 1.377 . S
C615 C614 1.524 . S
C615 C616 1.397 1_556 S
C615 C620 1.363 . S
C616 H593 0.950 . S
C616 C615 1.397 1_554 S
C616 C617 1.334 1_554 S
C617 H594 0.950 1_556 S
C617 C616 1.334 1_556 S
C617 C618 1.287 . S
C618 C617 1.287 . S
C618 C619 1.524 . S
C618 H637 0.913 . S
C619 H595 0.950 . S
C619 C618 1.524 . S
C619 C620 1.415 . S
C620 H596 0.950 . S
C620 C615 1.363 . S
C620 C619 1.415 . S
C621 H597 0.951 . S
C621 C622 1.366 . S
C621 C623 1.388 . S
C622 C621 1.366 . S
C622 C626 1.385 . S
C623 H598 0.951 . S
C623 C621 1.388 . S
C623 C624 1.366 . S
C624 C623 1.366 . S
C624 C625 1.414 . S
C624 C627 1.499 . S
C625 H599 0.950 . S
C625 C624 1.414 . S
C625 C626 1.374 . S
C626 H600 0.950 . S
C626 C622 1.385 . S
C626 C625 1.374 . S
C627 C624 1.499 . S
C627 C628 1.373 . S
C627 C629 1.389 1_556 S
C628 H601 0.950 . S
C628 C614 1.377 . S
C628 C627 1.373 . S
C629 C613 1.377 . S
C629 C627 1.389 1_554 S
C629 C630 1.524 . S
C630 C629 1.524 . S
C630 C631 1.397 1_554 S
C630 C635 1.363 . S
C631 H602 0.950 . S
C631 C630 1.397 1_556 S
C631 C632 1.334 1_556 S
C632 H603 0.950 1_554 S
C632 C631 1.334 1_554 S
C632 C633 1.287 . S
C633 C632 1.287 . S
C633 C634 1.524 . S
C633 H636 0.999 . S
C634 H604 0.950 . S
C634 C633 1.524 . S
C634 C635 1.415 . S
C635 H605 0.950 . S
C635 C630 1.363 . S
C635 C634 1.415 . S
H636 C633 0.999 . S
H637 C618 0.913 . S
H638 C656 0.951 . S
H639 C658 0.951 . S
H640 C660 0.950 . S
H641 C661 0.950 . S
H642 C663 0.950 . S
H643 C666 0.950 . S
H644 C667 0.950 1_554 S
H645 C669 0.950 . S
H646 C670 0.950 . S
H647 C671 0.951 . S
H648 C673 0.951 . S
H649 C675 0.950 . S
H650 C676 0.950 . S
H651 C678 0.950 . S
H652 C681 0.950 . S
H653 C682 0.950 1_556 S
H654 C684 0.950 . S
H655 C685 0.950 . S
C656 H638 0.951 . S
C656 C657 1.366 . S
C656 C658 1.388 . S
C657 C656 1.366 . S
C657 C661 1.385 . S
C658 H639 0.951 . S
C658 C656 1.388 . S
C658 C659 1.366 . S
C659 C658 1.366 . S
C659 C660 1.414 . S
C659 C662 1.499 . S
C660 H640 0.950 . S
C660 C659 1.414 . S
C660 C661 1.374 . S
C661 H641 0.950 . S
C661 C657 1.385 . S
C661 C660 1.374 . S
C662 C659 1.499 . S
C662 C663 1.373 . S
C662 C664 1.389 1_554 S
C663 H642 0.950 . S
C663 C662 1.373 . S
C663 C679 1.377 . S
C664 C662 1.389 1_556 S
C664 C665 1.524 . S
C664 C678 1.377 . S
C665 C664 1.524 . S
C665 C666 1.397 1_556 S
C665 C670 1.363 . S
C666 H643 0.950 . S
C666 C665 1.397 1_554 S
C666 C667 1.334 1_554 S
C667 H644 0.950 1_556 S
C667 C666 1.334 1_556 S
C667 C668 1.287 . S
C668 C667 1.287 . S
C668 C669 1.524 . S
C668 H687 0.913 . S
C669 H645 0.950 . S
C669 C668 1.524 . S
C669 C670 1.415 . S
C670 H646 0.950 . S
C670 C665 1.363 . S
C670 C669 1.415 . S
C671 H647 0.951 . S
C671 C672 1.366 . S
C671 C673 1.388 . S
C672 C671 1.366 . S
C672 C676 1.385 . S
C673 H648 0.951 . S
C673 C671 1.388 . S
C673 C674 1.366 . S
C674 C673 1.366 . S
C674 C675 1.414 . S
C674 C677 1.499 . S
C675 H649 0.950 . S
C675 C674 1.414 . S
C675 C676 1.374 . S
C676 H650 0.950 . S
C676 C672 1.385 . S
C676 C675 1.374 . S
C677 C674 1.499 . S
C677 C678 1.373 . S
C677 C679 1.389 1_556 S
C678 H651 0.950 . S
C678 C664 1.377 . S
C678 C677 1.373 . S
C679 C663 1.377 . S
C679 C677 1.389 1_554 S
C679 C680 1.524 . S
C680 C679 1.524 . S
C680 C681 1.397 1_554 S
C680 C685 1.363 . S
C681 H652 0.950 . S
C681 C680 1.397 1_556 S
C681 C682 1.334 1_556 S
C682 H653 0.950 1_554 S
C682 C681 1.334 1_554 S
C682 C683 1.287 . S
C683 C682 1.287 . S
C683 C684 1.524 . S
C683 H686 0.999 . S
C684 H654 0.950 . S
C684 C683 1.524 . S
C684 C685 1.415 . S
C685 H655 0.950 . S
C685 C680 1.363 . S
C685 C684 1.415 . S
H686 C683 0.999 . S
H687 C668 0.913 . S
C107 C62 1.609 . S
C122 C15 1.592 . S
C157 C40 1.609 . S
C172 C81 1.591 . S
C207 C74 1.609 . S
C222 C43 1.591 . S
C257 C8 1.609 . S
C272 C65 1.592 . S
C307 C73 2.303 . S
C322 C7 2.302 . S
C357 C54 2.227 . S
C372 C32 2.227 . S
C407 C59 2.302 . S
C422 C37 2.302 . S
C457 C18 2.227 . S
C472 C84 2.227 . S
C507 C87 0.255 . S
C522 C21 0.255 . S
C557 C52 0.300 . S
C572 C30 0.299 . S
C607 C29 0.258 . S
C622 C51 0.258 . S
C657 C10 0.300 . S
C672 C76 0.299 . S
