# Generated by pormake.
# Topology umj, (4)-cn, num edge types: 1
# Building blocks:
#     Node 0, Type 0, BuildingBlock: ICAMEG_clean_sbu_1, # of connection points: 4
#     Node 1, Type 0, BuildingBlock: ICAMEG_clean_sbu_1, # of connection points: 4
#     Node 2, Type 0, BuildingBlock: ICAMEG_clean_sbu_1, # of connection points: 4
#     Node 3, Type 0, BuildingBlock: ICAMEG_clean_sbu_1, # of connection points: 4
#     Node 4, Type 0, BuildingBlock: ICAMEG_clean_sbu_1, # of connection points: 4
#     Node 5, Type 0, BuildingBlock: ICAMEG_clean_sbu_1, # of connection points: 4
#     Node 6, Type 0, BuildingBlock: ICAMEG_clean_sbu_1, # of connection points: 4
#     Node 7, Type 0, BuildingBlock: ICAMEG_clean_sbu_1, # of connection points: 4
#     Node 8, Type 0, BuildingBlock: ICAMEG_clean_sbu_1, # of connection points: 4
#     Node 9, Type 0, BuildingBlock: ICAMEG_clean_sbu_1, # of connection points: 4
#     Node 10, Type 0, BuildingBlock: ICAMEG_clean_sbu_1, # of connection points: 4
#     Node 11, Type 0, BuildingBlock: ICAMEG_clean_sbu_1, # of connection points: 4
#     Edge 12, Type (0, 0), None
#     Edge 13, Type (0, 0), None
#     Edge 14, Type (0, 0), None
#     Edge 15, Type (0, 0), None
#     Edge 16, Type (0, 0), None
#     Edge 17, Type (0, 0), None
#     Edge 18, Type (0, 0), None
#     Edge 19, Type (0, 0), None
#     Edge 20, Type (0, 0), None
#     Edge 21, Type (0, 0), None
#     Edge 22, Type (0, 0), None
#     Edge 23, Type (0, 0), None
#     Edge 24, Type (0, 0), None
#     Edge 25, Type (0, 0), None
#     Edge 26, Type (0, 0), None
#     Edge 27, Type (0, 0), None
#     Edge 28, Type (0, 0), None
#     Edge 29, Type (0, 0), None
#     Edge 30, Type (0, 0), None
#     Edge 31, Type (0, 0), None
#     Edge 32, Type (0, 0), None
#     Edge 33, Type (0, 0), None
#     Edge 34, Type (0, 0), None
#     Edge 35, Type (0, 0), None
# Relax obj value: 0.072
# Max RMSD: 0.257
# Mean RMSD: 0.226
data_MOF--net-umj--node1-ICAMEG_clean_sbu_1--edge1-none
_symmetry_space_group_name_H-M    P1
_symmetry_Int_Tables_number       1
_symmetry_cell_setting            triclinic
loop_
_symmetry_equiv_pos_as_xyz
'x, y, z'
_cell_length_a     14.813282
_cell_length_b     14.848144
_cell_length_c     41.503194
_cell_angle_alpha  90.177188
_cell_angle_beta   89.747868
_cell_angle_gamma 120.25305
loop_
_atom_site_label
_atom_site_type_symbol
_atom_site_fract_x
_atom_site_fract_y
_atom_site_fract_z
_atom_type_partial_charge
Co0 Co 0.13819 0.24644 0.10392 0.0
Co1 Co 0.90877 0.1872 0.06999 0.0
O2 O 0.01469 0.25031 0.09999 0.0
C3 C 0.01185 0.15768 0.16439 0.0
O4 O 0.93923 0.09077 0.14515 0.0
C5 C 0.9846 0.42165 0.06298 0.0
O6 O 0.07355 0.43192 0.05371 0.0
O7 O 0.00762 0.23998 0.03346 0.0
O8 O 0.15781 0.25872 0.05441 0.0
H9 H 0.72313 0.00028 0.97019 0.0
H10 H 0.11199 0.38855 0.14863 0.0
O11 O 0.10302 0.22351 0.15271 0.0
H12 H 0.32424 0.6088 0.05873 0.0
H13 H 0.52355 0.41689 0.12749 0.0
H14 H 0.1849 0.09637 0.13475 0.0
H15 H 0.28373 0.42977 0.06218 0.0
H16 H 0.37795 0.40398 0.09862 0.0
O17 O 0.90637 0.32835 0.06934 0.0
H18 H 0.87064 0.07869 1.00737 0.0
H19 H 0.6981 0.16551 0.06915 0.0
H20 H 0.33875 0.0959 0.15425 0.0
H21 H 0.16404 0.57273 0.14803 0.0
H22 H 0.51021 0.25958 0.15312 0.0
H23 H 0.2753 0.68611 0.10235 0.0
O24 O 0.07134 0.09332 0.09664 0.0
H25 H 0.74514 0.22315 0.1733 0.0
H26 H 0.80004 0.08752 0.09834 0.0
H27 H 0.62269 0.91052 0.1417 0.0
H28 H 0.62445 0.03649 0.18054 0.0
H29 H 0.87452 0.28691 0.12861 0.0
H30 H 0.54279 0.07024 0.0345 0.0
H31 H 0.55787 0.99412 0.98305 0.0
O32 O 0.92443 0.05152 0.0694 0.0
C33 C 0.10089 0.25838 0.03039 0.0
C34 C 0.71677 0.03581 0.99166 0.0
C35 C 0.61619 0.07709 0.02764 0.0
N36 N 0.79308 0.12619 0.04039 0.0
C37 C 0.80069 0.08157 1.01276 0.0
C38 C 0.70354 0.12777 0.04753 0.0
C39 C 0.62387 0.03273 0.99908 0.0
C40 C 0.16625 0.43801 0.13039 0.0
N41 N 0.20197 0.39767 0.10735 0.0
C42 C 0.19277 0.54247 0.12953 0.0
C43 C 0.25225 0.6051 0.10392 0.0
C44 C 0.28209 0.56244 0.07943 0.0
C45 C 0.25762 0.45919 0.08168 0.0
C46 C 0.45134 0.34319 0.12666 0.0
C47 C 0.25988 0.16412 0.12984 0.0
C48 C 0.36517 0.33597 0.1109 0.0
N49 N 0.26881 0.24802 0.11315 0.0
C50 C 0.34712 0.16439 0.14233 0.0
C51 C 0.44316 0.25588 0.1416 0.0
C52 C -0.00516 0.02899 0.07953 0.0
C53 C 0.74839 0.16928 0.15681 0.0
C54 C 0.74215 0.02503 0.11108 0.0
C55 C 0.67669 0.99284 0.13816 0.0
C56 C 0.6783 0.06372 0.16037 0.0
N57 N 0.81192 0.13293 0.10719 0.0
C58 C 0.81764 0.20514 0.13093 0.0
Co59 Co 0.87867 0.1536 0.43885 0.0
Co60 Co 0.70447 0.93056 0.39986 0.0
O61 O 0.74798 0.02663 0.43415 0.0
C62 C 0.85959 0.03586 0.49993 0.0
O63 O 0.87159 0.9702 0.4818 0.0
C64 C 0.54575 0.00206 0.39815 0.0
O65 O 0.62373 0.09747 0.39439 0.0
O66 O 0.75375 0.04255 0.36796 0.0
O67 O 0.89294 0.18069 0.38973 0.0
H68 H 0.76018 0.85563 0.28771 0.0
H69 H 0.68798 0.11251 0.47585 0.0
O70 O 0.86478 0.11819 0.48739 0.0
H71 H 0.77562 0.41251 0.40517 0.0
H72 H 0.09092 0.4973 0.49598 0.0
H73 H 0.10616 0.24257 0.42383 0.0
H74 H 0.89128 0.33848 0.408 0.0
H75 H 0.93064 0.34192 0.47827 0.0
O76 O 0.56351 0.92598 0.40071 0.0
H77 H 0.81461 0.92138 0.34271 0.0
H78 H 0.49599 0.7669 0.372 0.0
H79 H 0.2695 0.39018 0.44464 0.0
H80 H 0.5708 0.1857 0.4741 0.0
H81 H 0.26224 0.52077 0.47993 0.0
H82 H 0.61454 0.3351 0.4378 0.0
O83 O 0.96063 0.08257 0.43188 0.0
H84 H 0.62341 0.76992 0.51252 0.0
H85 H 0.5667 0.6864 0.39828 0.0
H86 H 0.46643 0.55602 0.43716 0.0
H87 H 0.50535 0.59005 0.49512 0.0
H88 H 0.68623 0.90975 0.47371 0.0
H89 H 0.44435 0.68212 0.31977 0.0
H90 H 0.57338 0.73563 0.27582 0.0
O91 O 0.85554 0.94334 0.40064 0.0
C92 C 0.83461 0.13049 0.3653 0.0
C93 C 0.70281 0.83289 0.30662 0.0
C94 C 0.52483 0.73769 0.32419 0.0
N95 N 0.66002 0.84209 0.3619 0.0
C96 C 0.73296 0.86763 0.33806 0.0
C97 C 0.55613 0.78299 0.35437 0.0
C98 C 0.59795 0.76597 0.29982 0.0
C99 C 0.70848 0.17959 0.46085 0.0
N100 N 0.79682 0.22183 0.44231 0.0
C101 C 0.64155 0.22011 0.45978 0.0
C102 C 0.6655 0.30354 0.43936 0.0
C103 C 0.75628 0.34717 0.42091 0.0
C104 C 0.82133 0.30496 0.42266 0.0
C105 C 0.09491 0.44196 0.47986 0.0
C106 C 0.10215 0.29872 0.43893 0.0
C107 C 0.00388 0.35443 0.469 0.0
N108 N 0.0075 0.28448 0.44817 0.0
C109 C 0.19506 0.38273 0.45054 0.0
C110 C 0.19107 0.45531 0.47079 0.0
C111 C 0.94794 0.00899 0.41308 0.0
C112 C 0.61023 0.75311 0.48723 0.0
C113 C 0.57999 0.7109 0.42265 0.0
C114 C 0.52597 0.63158 0.44507 0.0
C115 C 0.54458 0.65169 0.47755 0.0
N116 N 0.64459 0.81273 0.43172 0.0
C117 C 0.65277 0.83289 0.46428 0.0
Co118 Co 0.73496 0.89235 0.77227 0.0
Co119 Co 0.7878 0.73012 0.72882 0.0
O120 O 0.7362 0.76721 0.76477 0.0
C121 C 0.83774 0.8506 0.82834 0.0
O122 O 0.89541 0.8387 0.80666 0.0
C123 C 0.55629 0.5724 0.72786 0.0
O124 O 0.53981 0.65109 0.72765 0.0
O125 O 0.72481 0.7816 0.69849 0.0
O126 O 0.70817 0.90601 0.72375 0.0
H127 H 0.89997 0.77641 0.61508 0.0
H128 H 0.60538 0.71742 0.81777 0.0
O129 O 0.77235 0.87972 0.81951 0.0
H130 H 0.35623 0.75613 0.74948 0.0
H131 H 0.61115 0.09242 0.83918 0.0
H132 H 0.83611 0.10917 0.74937 0.0
H133 H 0.54419 0.87613 0.74353 0.0
H134 H 0.61592 0.93595 0.82118 0.0
O135 O 0.6504 0.58905 0.72831 0.0
H136 H 0.90438 0.8392 0.67037 0.0
H137 H 0.76039 0.52841 0.70508 0.0
H138 H 0.84563 0.27271 0.76981 0.0
H139 H 0.41732 0.60573 0.8275 0.0
H140 H 0.73181 0.26236 0.81469 0.0
H141 H 0.2906 0.62501 0.79259 0.0
O142 O 0.88693 0.9831 0.7624 0.0
H143 H 0.79012 0.5492 0.83076 0.0
H144 H 0.95864 0.67549 0.72558 0.0
H145 H 0.02475 0.59302 0.76207 0.0
H146 H 0.94167 0.53096 0.81571 0.0
H147 H 0.72306 0.62643 0.79311 0.0
H148 H 0.75047 0.46324 0.64992 0.0
H149 H 0.81444 0.5867 0.60444 0.0
O150 O 0.9258 0.88228 0.73072 0.0
C151 C 0.70408 0.85364 0.69807 0.0
C152 C 0.86818 0.72184 0.6347 0.0
C153 C 0.78618 0.54591 0.65433 0.0
N154 N 0.83297 0.68785 0.69093 0.0
C155 C 0.87479 0.75718 0.66618 0.0
C156 C 0.79318 0.58367 0.68551 0.0
C157 C 0.82142 0.61534 0.62876 0.0
C158 C 0.55129 0.72819 0.80325 0.0
N159 N 0.58653 0.80382 0.78011 0.0
C160 C 0.44438 0.66318 0.80849 0.0
C161 C 0.37363 0.67301 0.78888 0.0
C162 C 0.41027 0.74711 0.76454 0.0
C163 C 0.51733 0.81463 0.76118 0.0
C164 C 0.66165 0.097 0.81961 0.0
C165 C 0.78818 0.10692 0.769 0.0
C166 C 0.66356 0.00871 0.80893 0.0
N167 N 0.72616 0.01439 0.7838 0.0
C168 C 0.79239 0.19804 0.78012 0.0
C169 C 0.72841 0.19256 0.80551 0.0
C170 C 0.94985 0.97371 0.74347 0.0
C171 C 0.8307 0.58105 0.8083 0.0
C172 C 0.92548 0.65434 0.74926 0.0
C173 C 0.96218 0.60554 0.76976 0.0
C174 C 0.91559 0.57052 0.79974 0.0
N175 N 0.84493 0.66874 0.75822 0.0
C176 C 0.79388 0.6267 0.78672 0.0
Co177 Co 0.83965 0.70133 0.10353 0.0
Co178 Co 0.06348 0.75809 0.06505 0.0
O179 O 0.96735 0.70478 0.09872 0.0
C180 C 0.97847 0.81015 0.16212 0.0
O181 O 0.05215 0.86801 0.14146 0.0
C182 C 0.97673 0.51978 0.06376 0.0
O183 O 0.8838 0.50886 0.06158 0.0
O184 O 0.95905 0.70377 0.03049 0.0
O185 O 0.81094 0.6742 0.05437 0.0
H186 H 0.25577 0.99515 0.97503 0.0
H187 H 0.89411 0.5778 0.1469 0.0
O188 O 0.88616 0.74122 0.15161 0.0
H189 H 0.5945 0.32303 0.08324 0.0
H190 H 0.5358 0.63647 0.17399 0.0
H191 H 0.65384 0.66102 0.06208 0.0
H192 H 0.66543 0.50837 0.07476 0.0
H193 H 0.71946 0.69821 0.16266 0.0
O194 O 0.05875 0.61362 0.06443 0.0
H195 H 0.11185 0.90772 1.01266 0.0
H196 H 0.23149 0.71533 0.04245 0.0
H197 H 0.47399 0.59938 0.07288 0.0
H198 H 0.82619 0.39205 0.15515 0.0
H199 H 0.41109 0.58575 0.12999 0.0
H200 H 0.66978 0.26125 0.12348 0.0
O201 O 0.89824 0.85111 0.09382 0.0
H202 H 0.23644 0.74661 0.16941 0.0
H203 H 0.19408 0.85426 0.08628 0.0
H204 H 0.42722 0.00455 0.10956 0.0
H205 H 0.40104 0.90779 0.15942 0.0
H206 H 0.09094 0.68322 0.13102 0.0
H207 H 0.36438 0.7883 0.99913 0.0
H208 H 0.38526 0.9385 0.96754 0.0
O209 O 0.0502 0.89633 0.06755 0.0
C210 C 0.86442 0.67874 0.02893 0.0
C211 C 0.25112 0.93374 0.98905 0.0
C212 C 0.31322 0.81885 1.00356 0.0
N213 N 0.1661 0.81048 0.03084 0.0
C214 C 0.17024 0.88483 1.01108 0.0
C215 C 0.23504 0.77537 0.02706 0.0
C216 C 0.32424 0.90228 0.98551 0.0
C217 C 0.82691 0.52219 0.13327 0.0
N218 N 0.78045 0.55483 0.11166 0.0
C219 C 0.78882 0.41638 0.13794 0.0
C220 C 0.70376 0.34389 0.11994 0.0
C221 C 0.66059 0.37811 0.097 0.0
C222 C 0.6996 0.48414 0.09313 0.0
C223 C 0.5632 0.64486 0.1494 0.0
C224 C 0.63206 0.65929 0.08685 0.0
C225 C 0.6682 0.68042 0.14251 0.0
N226 N 0.70228 0.68615 0.11144 0.0
C227 C 0.52706 0.62323 0.09291 0.0
C228 C 0.49242 0.61591 0.12447 0.0
C229 C 0.97873 0.91795 0.07837 0.0
C230 C 0.24305 0.79215 0.14874 0.0
C231 C 0.27139 0.90723 0.09153 0.0
C232 C 0.35121 0.93757 0.11429 0.0
C233 C 0.33704 0.88225 0.14258 0.0
N234 N 0.17541 0.8151 0.09797 0.0
C235 C 0.16184 0.75646 0.12671 0.0
Co236 Co 0.10394 0.84125 0.43982 0.0
Co237 Co 0.28174 0.06014 0.39993 0.0
O238 O 0.23592 0.96536 0.43445 0.0
C239 C 0.13547 0.97279 0.49872 0.0
O240 O 0.13763 0.04141 0.47849 0.0
C241 C 0.43705 0.98348 0.39826 0.0
O242 O 0.35848 0.88823 0.39481 0.0
O243 O 0.22963 0.94764 0.36814 0.0
O244 O 0.09062 0.81044 0.39053 0.0
H245 H 0.23424 0.14029 0.28805 0.0
H246 H 0.29209 0.87939 0.47773 0.0
O247 O 0.11789 0.88286 0.48813 0.0
H248 H 0.20216 0.57861 0.40673 0.0
H249 H 0.87973 0.50285 0.4985 0.0
H250 H 0.88087 0.75195 0.42068 0.0
H251 H 0.08571 0.65146 0.41102 0.0
H252 H 0.04401 0.65834 0.48286 0.0
O253 O 0.42036 0.06031 0.40054 0.0
H254 H 0.17571 0.07218 0.34249 0.0
H255 H 0.49161 0.22302 0.37375 0.0
H256 H 0.71277 0.60618 0.4404 0.0
H257 H 0.41207 0.80917 0.47353 0.0
H258 H 0.71203 0.47826 0.47813 0.0
H259 H 0.3669 0.65947 0.43739 0.0
O260 O 0.02471 0.91404 0.43211 0.0
H261 H 0.39946 0.22445 0.5107 0.0
H262 H 0.4038 0.30285 0.39695 0.0
H263 H 0.50612 0.43899 0.43378 0.0
H264 H 0.49507 0.4059 0.4923 0.0
H265 H 0.32709 0.08305 0.47253 0.0
H266 H 0.54953 0.30502 0.32139 0.0
H267 H 0.42338 0.26027 0.27736 0.0
O268 O 0.13254 0.05204 0.40083 0.0
C269 C 0.14889 0.85962 0.36577 0.0
C270 C 0.29065 0.16149 0.30709 0.0
C271 C 0.46789 0.25227 0.3255 0.0
N272 N 0.32899 0.14837 0.36225 0.0
C273 C 0.25789 0.12517 0.33822 0.0
C274 C 0.43358 0.20717 0.35553 0.0
C275 C 0.39642 0.22763 0.30094 0.0
C276 C 0.27095 0.81191 0.46277 0.0
N277 N 0.18224 0.76973 0.44456 0.0
C278 C 0.33914 0.7729 0.46049 0.0
C279 C 0.31472 0.68953 0.4399 0.0
C280 C 0.22206 0.64412 0.42254 0.0
C281 C 0.15632 0.6854 0.42522 0.0
C282 C 0.87943 0.55674 0.48115 0.0
C283 C 0.88107 0.69746 0.43745 0.0
C284 C 0.9727 0.6446 0.47165 0.0
N285 N 0.9733 0.71295 0.44939 0.0
C286 C 0.78581 0.61423 0.44812 0.0
C287 C 0.78528 0.54274 0.46969 0.0
C288 C 0.03941 0.98781 0.41329 0.0
C289 C 0.4003 0.24061 0.48565 0.0
C290 C 0.39927 0.28042 0.42142 0.0
C291 C 0.45558 0.36214 0.44283 0.0
C292 C 0.45283 0.34279 0.47538 0.0
N293 N 0.34548 0.17835 0.43126 0.0
C294 C 0.35329 0.15963 0.46327 0.0
Co295 Co 0.27694 0.13474 0.76955 0.0
Co296 Co 0.23166 0.31087 0.73169 0.0
O297 O 0.28895 0.26612 0.76364 0.0
C298 C 0.17596 0.17345 0.82658 0.0
O299 O 0.11742 0.1858 0.80557 0.0
C300 C 0.46456 0.46463 0.72735 0.0
O301 O 0.47966 0.38567 0.72359 0.0
O302 O 0.28307 0.25499 0.6978 0.0
O303 O 0.29517 0.12318 0.72075 0.0
H304 H 0.09927 0.28515 0.62152 0.0
H305 H 0.42316 0.28792 0.81912 0.0
O306 O 0.24442 0.14925 0.81697 0.0
H307 H 0.65031 0.27779 0.73368 0.0
H308 H 0.42622 0.90597 0.79611 0.0
H309 H 0.12363 0.9539 0.80527 0.0
H310 H 0.46335 0.16527 0.73065 0.0
H311 H 0.41278 0.02793 0.76103 0.0
O312 O 0.37123 0.44891 0.73026 0.0
H313 H 0.11121 0.21476 0.67348 0.0
H314 H 0.25759 0.51852 0.71429 0.0
H315 H 0.12095 0.81009 0.83327 0.0
H316 H 0.61377 0.40684 0.82123 0.0
H317 H 0.2762 0.78647 0.83047 0.0
H318 H 0.72779 0.39908 0.77892 0.0
O319 O 0.12519 0.05334 0.76021 0.0
H320 H 0.2515 0.45677 0.84285 0.0
H321 H 0.0821 0.39833 0.73902 0.0
H322 H 0.00814 0.44172 0.78457 0.0
H323 H 0.0953 0.47541 0.83755 0.0
H324 H 0.31334 0.39931 0.79744 0.0
H325 H 0.23399 0.5896 0.66363 0.0
H326 H 0.15764 0.47403 0.61653 0.0
O327 O 0.08832 0.16281 0.73351 0.0
C328 C 0.29851 0.17871 0.69599 0.0
C329 C 0.12815 0.33609 0.64228 0.0
C330 C 0.20532 0.50713 0.66583 0.0
N331 N 0.18149 0.36141 0.69735 0.0
C332 C 0.13531 0.29648 0.67181 0.0
C333 C 0.21733 0.46596 0.69453 0.0
C334 C 0.16186 0.4419 0.6394 0.0
C335 C 0.47184 0.28223 0.80077 0.0
N336 N 0.42893 0.214 0.77564 0.0
C337 C 0.57988 0.35071 0.80216 0.0
C338 C 0.6443 0.34854 0.77807 0.0
C339 C 0.60102 0.27973 0.75268 0.0
C340 C 0.49328 0.21488 0.75147 0.0
C341 C 0.3561 0.91081 0.79639 0.0
C342 C 0.18733 0.93974 0.801 0.0
C343 C 0.34987 0.98476 0.77739 0.0
N344 N 0.26868 0.00313 0.78099 0.0
C345 C 0.18645 0.85857 0.8179 0.0
C346 C 0.27297 0.84573 0.81628 0.0
C347 C 0.06227 0.06842 0.74366 0.0
C348 C 0.20834 0.43594 0.82072 0.0
C349 C 0.1104 0.39656 0.76219 0.0
C350 C 0.0728 0.42881 0.78794 0.0
C351 C 0.12147 0.44738 0.8176 0.0
N352 N 0.18764 0.37311 0.76608 0.0
C353 C 0.24244 0.40198 0.79446 0.0
Co354 Co 0.72393 0.86749 0.59083 0.0
Co355 Co 0.77575 0.08835 0.62847 0.0
O356 O 0.72039 0.98974 0.59625 0.0
C357 C 0.83593 0.00958 0.53464 0.0
O358 O 0.89363 0.08028 0.55597 0.0
C359 C 0.53983 0.00498 0.63339 0.0
O360 O 0.52827 0.91434 0.6408 0.0
O361 O 0.72353 0.98386 0.663 0.0
O362 O 0.69603 0.83432 0.63966 0.0
H363 H 0.96761 0.24792 0.7278 0.0
H364 H 0.60178 0.90061 0.53919 0.0
O365 O 0.76683 0.91661 0.54387 0.0
H366 H 0.33728 0.66163 0.61606 0.0
H367 H 0.54999 0.48231 0.57389 0.0
H368 H 0.86306 0.82178 0.55357 0.0
H369 H 0.52102 0.72522 0.62602 0.0
H370 H 0.58283 0.63328 0.60577 0.0
O371 O 0.63302 0.08449 0.62902 0.0
H372 H 0.90531 0.12428 0.68455 0.0
H373 H 0.7488 0.26955 0.64362 0.0
H374 H 0.84561 0.6675 0.52677 0.0
H375 H 0.41666 0.83332 0.52816 0.0
H376 H 0.68402 0.49501 0.53512 0.0
H377 H 0.28281 0.7036 0.56543 0.0
O378 O 0.87365 0.9281 0.60221 0.0
H379 H 0.76715 0.23738 0.52035 0.0
H380 H 0.95753 0.30357 0.62156 0.0
H381 H 0.02936 0.43595 0.5789 0.0
H382 H 0.93236 0.40372 0.52829 0.0
H383 H 0.69645 0.10835 0.56387 0.0
H384 H 0.81297 0.39967 0.6877 0.0
H385 H 0.92791 0.39534 0.72898 0.0
O386 O 0.91718 0.07975 0.62718 0.0
C387 C 0.70054 0.8897 0.6648 0.0
C388 C 0.9243 0.25866 0.70909 0.0
C389 C 0.8351 0.34103 0.68649 0.0
N390 N 0.82676 0.19195 0.6613 0.0
C391 C 0.88722 0.18628 0.68458 0.0
C392 C 0.7982 0.26637 0.66214 0.0
C393 C 0.89988 0.33802 0.70987 0.0
C394 C 0.545 0.84258 0.5552 0.0
N395 N 0.57487 0.80755 0.5813 0.0
C396 C 0.43966 0.80644 0.549 0.0
C397 C 0.3645 0.73726 0.57037 0.0
C398 C 0.3951 0.71084 0.5985 0.0
C399 C 0.50058 0.74609 0.60354 0.0
C400 C 0.62112 0.55537 0.57024 0.0
C401 C 0.79598 0.74673 0.55915 0.0
C402 C 0.63815 0.64312 0.5875 0.0
N403 N 0.72128 0.73879 0.58035 0.0
C404 C 0.7855 0.6593 0.54327 0.0
C405 C 0.69555 0.56323 0.5481 0.0
C406 C 0.93937 0.00747 0.61803 0.0
C407 C 0.81134 0.25053 0.54207 0.0
C408 C 0.91827 0.28658 0.59906 0.0
C409 C 0.95819 0.36256 0.57512 0.0
C410 C 0.90411 0.34409 0.54648 0.0
N411 N 0.82718 0.19469 0.59488 0.0
C412 C 0.7716 0.17801 0.56708 0.0
Co413 Co 0.86835 0.72012 0.92147 0.0
Co414 Co 0.70448 0.76857 0.96543 0.0
O415 O 0.74257 0.72268 0.92838 0.0
C416 C 0.85789 0.84011 0.863 0.0
O417 O 0.88525 0.92047 0.88168 0.0
C418 C 0.54532 0.53519 0.96376 0.0
O419 O 0.62402 0.5184 0.96296 0.0
O420 O 0.75142 0.69975 0.99562 0.0
O421 O 0.87734 0.6867 0.9698 0.0
H422 H 0.75339 0.88983 0.07798 0.0
H423 H 0.68222 0.60474 0.88072 0.0
O424 O 0.85958 0.75935 0.87389 0.0
H425 H 0.73766 0.33852 0.93197 0.0
H426 H 0.08015 0.62124 0.85159 0.0
H427 H 0.07471 0.79133 0.9531 0.0
H428 H 0.85895 0.52453 0.94251 0.0
H429 H 0.9246 0.6298 0.86787 0.0
O430 O 0.56258 0.62976 0.96498 0.0
H431 H 0.81063 0.87044 0.02473 0.0
H432 H 0.50063 0.74532 0.99059 0.0
H433 H 0.23376 0.78531 0.93706 0.0
H434 H 0.55945 0.42019 0.86999 0.0
H435 H 0.23739 0.70427 0.88553 0.0
H436 H 0.59751 0.28818 0.89052 0.0
O437 O 0.95818 0.86897 0.93312 0.0
H438 H 0.42959 0.79596 0.90025 0.0
H439 H 0.80336 0.96103 0.92292 0.0
H440 H 0.74397 0.02412 0.87854 0.0
H441 H 0.55308 0.94807 0.86993 0.0
H442 H 0.49311 0.71939 0.94028 0.0
H443 H 0.4462 0.77984 0.04279 0.0
H444 H 0.57109 0.85273 0.08669 0.0
O445 O 0.85622 0.90279 0.96612 0.0
C446 C 0.82525 0.68103 0.99575 0.0
C447 C 0.70031 0.8688 0.05811 0.0
C448 C 0.52677 0.8033 0.03825 0.0
N449 N 0.66139 0.81342 1.0033 0.0
C450 C 0.73144 0.85433 0.02788 0.0
C451 C 0.55925 0.78562 1.00849 0.0
C452 C 0.59785 0.84535 0.06313 0.0
C453 C 0.69667 0.54685 0.89132 0.0
N454 N 0.77978 0.57515 0.91135 0.0
C455 C 0.62739 0.44263 0.88481 0.0
C456 C 0.64647 0.36782 0.89764 0.0
C457 C 0.72753 0.39655 0.9196 0.0
C458 C 0.79497 0.50174 0.92591 0.0
C459 C 0.0792 0.65751 0.87406 0.0
C460 C 0.07596 0.75383 0.93097 0.0
C461 C 0.99189 0.66346 0.88326 0.0
N462 N 0.99126 0.71177 0.91123 0.0
C463 C 0.16546 0.75052 0.92218 0.0
C464 C 0.16747 0.70392 0.89326 0.0
C465 C 0.94678 0.92885 0.95276 0.0
C466 C 0.51179 0.83099 0.90544 0.0
C467 C 0.72178 0.91998 0.9177 0.0
C468 C 0.68799 0.9595 0.89305 0.0
C469 C 0.5819 0.9166 0.88779 0.0
N470 N 0.65294 0.83515 0.93543 0.0
C471 C 0.54882 0.78945 0.92858 0.0
Co472 Co 0.1395 0.87121 0.25726 0.0
Co473 Co 0.91656 0.70027 0.29542 0.0
O474 O 0.01557 0.74328 0.26261 0.0
C475 C 0.00383 0.82916 0.19757 0.0
O476 O 0.92999 0.81843 0.21741 0.0
C477 C -0.00281 0.54633 0.29935 0.0
O478 O 0.08936 0.6268 0.30496 0.0
O479 O 0.02108 0.75098 0.32956 0.0
O480 O 0.16807 0.88062 0.30692 0.0
H481 H 0.74507 0.73897 0.39288 0.0
H482 H 0.10391 0.70302 0.21068 0.0
O483 O 0.09663 0.85876 0.20877 0.0
H484 H 0.3561 0.71362 0.2883 0.0
H485 H 0.52919 0.10584 0.24206 0.0
H486 H 0.18255 0.0593 0.22257 0.0
H487 H 0.28777 0.82823 0.29487 0.0
H488 H 0.37993 0.96969 0.26951 0.0
O489 O 0.91753 0.55977 0.29587 0.0
H490 H 0.87981 0.79768 0.3514 0.0
H491 H 0.73711 0.49135 0.31283 0.0
H492 H 0.3366 0.21908 0.20424 0.0
H493 H 0.16996 0.58228 0.20449 0.0
H494 H 0.51292 0.2407 0.21156 0.0
H495 H 0.30617 0.59428 0.24266 0.0
O496 O 0.07592 0.95761 0.26637 0.0
H497 H 0.7568 0.52853 0.18941 0.0
H498 H 0.70084 0.66759 0.28957 0.0
H499 H 0.56094 0.59225 0.24912 0.0
H500 H 0.58891 0.52078 0.19858 0.0
H501 H 0.89314 0.60015 0.23074 0.0
H502 H 0.60701 0.42818 0.3573 0.0
H503 H 0.60411 0.55169 0.39508 0.0
O504 O 0.92949 0.85193 0.29438 0.0
C505 C 0.11356 0.82592 0.33181 0.0
C506 C 0.74127 0.68385 0.37535 0.0
C507 C 0.66438 0.50933 0.35496 0.0
N508 N 0.81344 0.64937 0.32899 0.0
C509 C 0.81762 0.71725 0.35169 0.0
C510 C 0.73963 0.54573 0.33065 0.0
C511 C 0.66365 0.57941 0.37677 0.0
C512 C 0.16398 0.71034 0.22685 0.0
N513 N 0.20207 0.78448 0.25058 0.0
C514 C 0.19948 0.63959 0.22355 0.0
C515 C 0.27303 0.64385 0.2451 0.0
C516 C 0.30311 0.71201 0.27078 0.0
C517 C 0.26575 0.78038 0.27357 0.0
C518 C 0.45441 0.10036 0.23943 0.0
C519 C 0.25864 0.07193 0.22894 0.0
C520 C 0.36654 0.01813 0.25381 0.0
N521 N 0.26869 0.00094 0.24733 0.0
C522 C 0.34603 0.16182 0.21748 0.0
C523 C 0.4446 0.17412 0.22171 0.0
C524 C 0.00061 0.94567 0.28391 0.0
C525 C 0.74592 0.56287 0.21075 0.0
C526 C 0.71559 0.64182 0.26719 0.0
C527 C 0.63543 0.59779 0.24446 0.0
C528 C 0.65098 0.55795 0.21606 0.0
N529 N 0.80835 0.64511 0.26223 0.0
C530 C 0.82282 0.60368 0.23454 0.0
Co531 Co 0.26547 0.15107 0.58926 0.0
Co532 Co 0.20894 0.93417 0.63119 0.0
O533 O 0.25962 0.02302 0.59591 0.0
C534 C 0.15345 0.00296 0.53354 0.0
O535 O 0.08963 0.93636 0.55494 0.0
C536 C 0.44366 0.01453 0.6318 0.0
O537 O 0.45651 0.1083 0.63218 0.0
O538 O 0.27239 0.04641 0.6621 0.0
O539 O 0.29537 0.18979 0.63751 0.0
H540 H 0.10103 0.8681 0.74469 0.0
H541 H 0.38881 0.08764 0.54709 0.0
O542 O 0.22439 0.09581 0.5425 0.0
H543 H 0.64775 0.40212 0.60463 0.0
H544 H 0.32033 0.43102 0.5117 0.0
H545 H 0.31725 0.34932 0.62625 0.0
H546 H 0.46221 0.3265 0.61611 0.0
H547 H 0.24865 0.25246 0.52814 0.0
O548 O 0.34971 0.9338 0.63128 0.0
H549 H 0.09587 0.9273 0.69014 0.0
H550 H 0.23208 0.75629 0.65303 0.0
H551 H 0.38283 0.52682 0.6104 0.0
H552 H 0.57549 0.16557 0.53372 0.0
H553 H 0.38916 0.572 0.55201 0.0
H554 H 0.70539 0.33114 0.56139 0.0
O555 O 0.11572 0.09652 0.60019 0.0
H556 H 0.17798 0.75711 0.52439 0.0
H557 H 0.03513 0.7076 0.63406 0.0
H558 H 0.95895 0.56164 0.59595 0.0
H559 H 0.02542 0.58774 0.53997 0.0
H560 H 0.26241 0.89575 0.56424 0.0
H561 H 0.23426 0.69124 0.70745 0.0
H562 H 0.17882 0.75592 0.75411 0.0
O563 O 0.0722 0.95134 0.62979 0.0
C564 C 0.29565 0.13971 0.6629 0.0
C565 C 0.13099 0.84389 0.72489 0.0
C566 C 0.20386 0.74301 0.7038 0.0
N567 N 0.16343 0.84525 0.66852 0.0
C568 C 0.12369 0.87336 0.69372 0.0
C569 C 0.20017 0.7782 0.67303 0.0
C570 C 0.17279 0.77948 0.73 0.0
C571 C 0.44504 0.15815 0.55927 0.0
N572 N 0.41288 0.20715 0.58043 0.0
C573 C 0.55086 0.20145 0.55176 0.0
C574 C 0.6238 0.29204 0.56753 0.0
C575 C 0.59135 0.33405 0.5916 0.0
C576 C 0.48519 0.29133 0.59756 0.0
C577 C 0.31611 0.41293 0.53698 0.0
C578 C 0.31387 0.36386 0.60108 0.0
C579 C 0.27675 0.31025 0.54681 0.0
N580 N 0.28036 0.28633 0.57849 0.0
C581 C 0.35209 0.46709 0.59212 0.0
C582 C 0.35507 0.49203 0.55972 0.0
C583 C 0.05074 0.02196 0.61814 0.0
C584 C 0.14456 0.74657 0.54822 0.0
C585 C 0.06604 0.72076 0.61 0.0
C586 C 0.02195 0.63706 0.5884 0.0
C587 C 0.05959 0.65126 0.55704 0.0
N588 N 0.14791 0.81563 0.6011 0.0
C589 C 0.1914 0.82594 0.57113 0.0
Co590 Co 0.10138 0.24533 0.92292 0.0
Co591 Co 0.27566 0.20974 0.96438 0.0
O592 O 0.23498 0.25549 0.92787 0.0
C593 C 0.1499 0.17116 0.86124 0.0
O594 O 0.14094 0.09352 0.8781 0.0
C595 C 0.43645 0.44323 0.96467 0.0
O596 O 0.35919 0.46051 0.96992 0.0
O597 O 0.23005 0.28132 0.99396 0.0
O598 O 0.07913 0.24895 0.9722 0.0
H599 H 0.2286 0.06214 0.07497 0.0
H600 H 0.29419 0.41561 0.8915 0.0
O601 O 0.12707 0.23636 0.87423 0.0
H602 H 0.1571 0.58237 0.96439 0.0
H603 H 0.87257 0.3203 0.85434 0.0
H604 H 0.88937 0.14894 0.95375 0.0
H605 H 0.05683 0.39451 0.95412 0.0
H606 H 0.03621 0.3324 0.87176 0.0
O607 O 0.41799 0.34848 0.9615 0.0
H608 H 0.17025 0.09446 0.02351 0.0
H609 H 0.48516 0.25813 0.99092 0.0
H610 H 0.72124 0.1388 0.93816 0.0
H611 H 0.39173 0.60631 0.89784 0.0
H612 H 0.71158 0.21562 0.88661 0.0
H613 H 0.32592 0.68878 0.93783 0.0
O614 O 0.02729 0.09253 0.92772 0.0
H615 H 0.54432 0.13282 0.91429 0.0
H616 H 0.1724 0.01506 0.92219 0.0
H617 H 0.22915 0.92686 0.8857 0.0
H618 H 0.41586 0.97902 0.88323 0.0
H619 H 0.48804 0.24269 0.94154 0.0
H620 H 0.54443 0.22525 0.04039 0.0
H621 H 0.41866 0.13233 0.08432 0.0
O622 O 0.12313 0.07459 0.96691 0.0
C623 C 0.13979 0.2683 0.99676 0.0
C624 C 0.28487 0.10327 0.05622 0.0
C625 C 0.46175 0.19413 0.03694 0.0
N626 N 0.32217 0.17037 1.00246 0.0
C627 C 0.25197 0.12018 0.02667 0.0
C628 C 0.42638 0.20936 1.00785 0.0
C629 C 0.39075 0.14124 0.06137 0.0
C630 C 0.26215 0.45288 0.90629 0.0
N631 N 0.16995 0.39472 0.92211 0.0
C632 C 0.31871 0.56056 0.91056 0.0
C633 C 0.28217 0.6067 0.93252 0.0
C634 C 0.18671 0.54695 0.94777 0.0
C635 C 0.1304 0.44074 0.94174 0.0
C636 C 0.87441 0.28149 0.87612 0.0
C637 C 0.8848 0.18676 0.93233 0.0
C638 C 0.96695 0.28791 0.88602 0.0
N639 N 0.97071 0.23873 0.91329 0.0
C640 C 0.79059 0.18043 0.92353 0.0
C641 C 0.78491 0.22451 0.89456 0.0
C642 C 0.03489 0.04107 0.95117 0.0
C643 C 0.46264 0.11022 0.91481 0.0
C644 C 0.25456 0.04844 0.91909 0.0
C645 C 0.28627 0.99383 0.89909 0.0
C646 C 0.39089 0.02333 0.89762 0.0
N647 N 0.32494 0.13678 0.93529 0.0
C648 C 0.42905 0.16998 0.93171 0.0
Co649 Co 0.84785 0.11603 0.25762 0.0
Co650 Co 0.0699 0.2876 0.29524 0.0
O651 O 0.97172 0.24371 0.26275 0.0
C652 C 0.98665 0.15155 0.19956 0.0
O653 O 0.05896 0.16505 0.22024 0.0
C654 C 0.98695 0.44003 0.29902 0.0
O655 O 0.89431 0.35898 0.30375 0.0
O656 O 0.96444 0.23606 0.32928 0.0
O657 O 0.81636 0.10818 0.30679 0.0
H658 H 0.23356 0.25432 0.39437 0.0
H659 H 0.8942 0.29037 0.21291 0.0
O660 O 0.89401 0.1269 0.20977 0.0
H661 H 0.62069 0.26543 0.28513 0.0
H662 H 0.45784 0.87703 0.24412 0.0
H663 H 0.80783 0.93701 0.21966 0.0
H664 H 0.69224 0.15423 0.29313 0.0
H665 H 0.60658 0.00598 0.2742 0.0
O666 O 0.06718 0.4272 0.29587 0.0
H667 H 0.1061 0.19204 0.35121 0.0
H668 H 0.24803 0.49716 0.31196 0.0
H669 H 0.65807 0.79275 0.1945 0.0
H670 H 0.83485 0.41737 0.20823 0.0
H671 H 0.47892 0.76236 0.20492 0.0
H672 H 0.68695 0.39653 0.24306 0.0
O673 O 0.91001 0.02911 0.2673 0.0
H674 H 0.23084 0.4602 0.18928 0.0
H675 H 0.28618 0.32125 0.28898 0.0
H676 H 0.42292 0.3888 0.24711 0.0
H677 H 0.39291 0.45439 0.19596 0.0
H678 H 0.09523 0.39115 0.23128 0.0
H679 H 0.37049 0.56478 0.35804 0.0
H680 H 0.36938 0.44372 0.39775 0.0
O681 O 0.05845 0.13642 0.29405 0.0
C682 C 0.871 0.16282 0.3315 0.0
C683 C 0.23873 0.30881 0.37651 0.0
C684 C 0.31525 0.48282 0.35566 0.0
N685 N 0.17228 0.33982 0.32862 0.0
C686 C 0.16677 0.27308 0.35177 0.0
C687 C 0.24443 0.44396 0.3303 0.0
C688 C 0.31352 0.41431 0.37847 0.0
C689 C 0.83082 0.28138 0.22808 0.0
N690 N 0.78618 0.20277 0.25029 0.0
C691 C 0.79807 0.35435 0.22532 0.0
C692 C 0.7184 0.34565 0.2452 0.0
C693 C 0.67981 0.27135 0.26912 0.0
C694 C 0.71681 0.20288 0.2721 0.0
C695 C 0.53375 0.88697 0.23957 0.0
C696 C 0.73109 0.92275 0.2262 0.0
C697 C 0.62083 0.96503 0.25561 0.0
N698 N 0.7193 0.98689 0.24738 0.0
C699 C 0.64548 0.8403 0.21131 0.0
C700 C 0.54598 0.82381 0.2173 0.0
C701 C 0.98674 0.04212 0.28409 0.0
C702 C 0.24042 0.42374 0.2102 0.0
C703 C 0.27088 0.34567 0.26654 0.0
C704 C 0.34932 0.38551 0.24304 0.0
C705 C 0.33291 0.42294 0.21439 0.0
N706 N 0.17863 0.34352 0.26199 0.0
C707 C 0.16454 0.38551 0.23451 0.0
loop_
_geom_bond_atom_site_label_1
_geom_bond_atom_site_label_2
_geom_bond_distance
_geom_bond_site_symmetry_2
_ccdc_geom_bond_type
Co0 O2 2.143 . S
Co0 O8 2.074 . S
Co0 O11 2.093 . S
Co0 O24 2.097 . S
Co0 N41 2.151 . S
Co0 N49 2.214 . S
Co1 O2 2.160 1_655 S
Co1 O7 2.058 1_655 S
Co1 O17 2.057 . S
Co1 O32 2.037 . S
Co1 N36 2.145 . S
Co1 N57 2.257 . S
O2 Co0 2.143 . S
O2 Co1 2.160 1_455 S
C3 O4 1.278 1_455 S
C3 O11 1.224 . S
O4 C3 1.278 1_655 S
C5 O6 1.245 1_655 S
C5 O17 1.232 . S
O6 C5 1.245 1_455 S
O7 Co1 2.058 1_455 S
O7 C33 1.269 . S
O8 Co0 2.074 . S
O8 C33 1.257 . S
H9 C34 0.930 1_565 S
H10 C40 0.930 . S
O11 Co0 2.093 . S
O11 C3 1.224 . S
H12 C44 0.929 . S
H13 C46 0.930 . S
H14 C47 0.930 . S
H15 C45 0.929 . S
H16 C48 0.928 . S
O17 Co1 2.057 . S
O17 C5 1.232 . S
H18 C37 0.929 . S
H19 C38 0.929 1_554 S
H20 C50 0.931 1_565 S
H21 C42 0.929 . S
H22 C51 0.930 . S
H23 C43 0.931 . S
O24 Co0 2.097 . S
O24 C52 1.214 1_455 S
H25 C53 0.929 . S
H26 C54 0.929 1_565 S
H27 C55 0.930 . S
H28 C56 0.929 . S
H29 C58 0.930 . S
H30 C35 0.930 . S
H31 C39 0.930 . S
O32 Co1 2.037 . S
O32 C52 1.234 . S
C33 O7 1.269 . S
C33 O8 1.257 . S
C34 H9 0.930 1_545 S
C34 C37 1.388 . S
C34 C39 1.418 . S
C35 H30 0.930 . S
C35 C38 1.404 . S
C35 C39 1.353 . S
N36 Co1 2.145 . S
N36 C37 1.397 1_554 S
N36 C38 1.334 1_554 S
C37 H18 0.929 . S
C37 C34 1.388 . S
C37 N36 1.397 1_556 S
C38 H19 0.929 1_556 S
C38 C35 1.404 . S
C38 N36 1.334 1_556 S
C39 H31 0.930 . S
C39 C34 1.418 . S
C39 C35 1.353 . S
C40 H10 0.930 . S
C40 N41 1.330 . S
C40 C42 1.446 . S
N41 Co0 2.151 . S
N41 C40 1.330 . S
N41 C45 1.418 . S
C42 H21 0.929 . S
C42 C40 1.446 . S
C42 C43 1.332 . S
C43 H23 0.931 . S
C43 C42 1.332 . S
C43 C44 1.267 . S
C44 H12 0.929 . S
C44 C43 1.267 . S
C44 C45 1.251 . S
C45 H15 0.929 . S
C45 N41 1.418 . S
C45 C44 1.251 . S
C46 H13 0.930 . S
C46 C48 1.406 . S
C46 C51 1.261 . S
C47 H14 0.930 . S
C47 N49 1.325 . S
C47 C50 1.357 . S
C48 H16 0.928 . S
C48 C46 1.406 . S
C48 N49 1.261 . S
N49 Co0 2.214 . S
N49 C47 1.325 . S
N49 C48 1.261 . S
C50 H20 0.931 1_545 S
C50 C47 1.357 . S
C50 C51 1.312 . S
C51 H22 0.930 . S
C51 C46 1.261 . S
C51 C50 1.312 . S
C52 O24 1.214 1_655 S
C52 O32 1.234 . S
C53 H25 0.929 . S
C53 C56 1.391 . S
C53 C58 1.391 . S
C54 H26 0.929 1_545 S
C54 C55 1.390 1_545 S
C54 N57 1.391 . S
C55 H27 0.930 . S
C55 C54 1.390 1_565 S
C55 C56 1.392 1_565 S
C56 H28 0.929 . S
C56 C53 1.391 . S
C56 C55 1.392 1_545 S
N57 Co1 2.257 . S
N57 C54 1.391 . S
N57 C58 1.388 . S
C58 H29 0.930 . S
C58 C53 1.391 . S
C58 N57 1.388 . S
Co59 O61 2.143 . S
Co59 O67 2.074 . S
Co59 O70 2.093 . S
Co59 O83 2.097 . S
Co59 N100 2.151 . S
Co59 N108 2.214 1_655 S
Co60 O61 2.160 1_565 S
Co60 O66 2.058 1_565 S
Co60 O76 2.057 . S
Co60 O91 2.037 . S
Co60 N95 2.145 . S
Co60 N116 2.257 . S
O61 Co59 2.143 . S
O61 Co60 2.160 1_545 S
C62 O63 1.278 1_545 S
C62 O70 1.224 . S
O63 C62 1.278 1_565 S
C64 O65 1.245 1_565 S
C64 O76 1.232 . S
O65 C64 1.245 1_545 S
O66 Co60 2.058 1_545 S
O66 C92 1.269 . S
O67 Co59 2.074 . S
O67 C92 1.257 . S
H68 C93 0.930 . S
H69 C99 0.930 . S
O70 Co59 2.093 . S
O70 C62 1.224 . S
H71 C103 0.929 . S
H72 C105 0.930 . S
H73 C106 0.930 . S
H74 C104 0.929 1_455 S
H75 C107 0.928 . S
O76 Co60 2.057 . S
O76 C64 1.232 . S
H77 C96 0.929 . S
H78 C97 0.929 . S
H79 C109 0.931 . S
H80 C101 0.929 . S
H81 C110 0.930 . S
H82 C102 0.931 . S
O83 Co59 2.097 . S
O83 C111 1.214 1_545 S
H84 C112 0.929 . S
H85 C113 0.929 . S
H86 C114 0.930 . S
H87 C115 0.929 . S
H88 C117 0.930 . S
H89 C94 0.930 . S
H90 C98 0.930 . S
O91 Co60 2.037 . S
O91 C111 1.234 . S
C92 O66 1.269 . S
C92 O67 1.257 . S
C93 H68 0.930 . S
C93 C96 1.388 . S
C93 C98 1.418 . S
C94 H89 0.930 . S
C94 C97 1.404 . S
C94 C98 1.353 . S
N95 Co60 2.145 . S
N95 C96 1.397 . S
N95 C97 1.334 . S
C96 H77 0.929 . S
C96 C93 1.388 . S
C96 N95 1.397 . S
C97 H78 0.929 . S
C97 C94 1.404 . S
C97 N95 1.334 . S
C98 H90 0.930 . S
C98 C93 1.418 . S
C98 C94 1.353 . S
C99 H69 0.930 . S
C99 N100 1.330 . S
C99 C101 1.446 . S
N100 Co59 2.151 . S
N100 C99 1.330 . S
N100 C104 1.418 . S
C101 H80 0.929 . S
C101 C99 1.446 . S
C101 C102 1.332 . S
C102 H82 0.931 . S
C102 C101 1.332 . S
C102 C103 1.267 . S
C103 H71 0.929 . S
C103 C102 1.267 . S
C103 C104 1.251 . S
C104 H74 0.929 1_655 S
C104 N100 1.418 . S
C104 C103 1.251 . S
C105 H72 0.930 . S
C105 C107 1.406 . S
C105 C110 1.261 . S
C106 H73 0.930 . S
C106 N108 1.325 . S
C106 C109 1.357 . S
C107 H75 0.928 . S
C107 C105 1.406 . S
C107 N108 1.261 . S
N108 Co59 2.214 1_455 S
N108 C106 1.325 . S
N108 C107 1.261 . S
C109 H79 0.931 . S
C109 C106 1.357 . S
C109 C110 1.312 . S
C110 H81 0.930 . S
C110 C105 1.261 . S
C110 C109 1.312 . S
C111 O83 1.214 1_565 S
C111 O91 1.234 . S
C112 H84 0.929 . S
C112 C115 1.391 . S
C112 C117 1.391 . S
C113 H85 0.929 . S
C113 C114 1.390 . S
C113 N116 1.391 . S
C114 H86 0.930 . S
C114 C113 1.390 . S
C114 C115 1.392 . S
C115 H87 0.929 . S
C115 C112 1.391 . S
C115 C114 1.392 . S
N116 Co60 2.257 . S
N116 C113 1.391 . S
N116 C117 1.388 . S
C117 H88 0.930 . S
C117 C112 1.391 . S
C117 N116 1.388 . S
Co118 O120 2.143 . S
Co118 O126 2.074 . S
Co118 O129 2.093 . S
Co118 O142 2.097 . S
Co118 N159 2.151 . S
Co118 N167 2.214 1_565 S
Co119 O120 2.160 . S
Co119 O125 2.058 . S
Co119 O135 2.057 . S
Co119 O150 2.037 . S
Co119 N154 2.145 . S
Co119 N175 2.257 . S
O120 Co118 2.143 . S
O120 Co119 2.160 . S
C121 O122 1.278 . S
C121 O129 1.224 . S
O122 C121 1.278 . S
C123 O124 1.245 . S
C123 O135 1.232 . S
O124 C123 1.245 . S
O125 Co119 2.058 . S
O125 C151 1.269 . S
O126 Co118 2.074 . S
O126 C151 1.257 . S
H127 C152 0.930 1_455 S
H128 C158 0.930 . S
O129 Co118 2.093 . S
O129 C121 1.224 . S
H130 C162 0.929 . S
H131 C164 0.930 . S
H132 C165 0.930 . S
H133 C163 0.929 . S
H134 C166 0.928 . S
O135 Co119 2.057 . S
O135 C123 1.232 . S
H136 C155 0.929 . S
H137 C156 0.929 . S
H138 C168 0.931 1_455 S
H139 C160 0.929 . S
H140 C169 0.930 . S
H141 C161 0.931 . S
O142 Co118 2.097 . S
O142 C170 1.221 . S
H143 C171 0.929 . S
H144 C172 0.929 1_455 S
H145 C173 0.930 . S
H146 C174 0.929 1_455 S
H147 C176 0.930 . S
H148 C153 0.930 . S
H149 C157 0.930 . S
O150 Co119 2.037 . S
O150 C170 1.234 . S
C151 O125 1.269 . S
C151 O126 1.257 . S
C152 H127 0.930 1_655 S
C152 C155 1.388 . S
C152 C157 1.418 . S
C153 H148 0.930 . S
C153 C156 1.404 . S
C153 C157 1.353 . S
N154 Co119 2.145 . S
N154 C155 1.397 . S
N154 C156 1.334 . S
C155 H136 0.929 . S
C155 C152 1.388 . S
C155 N154 1.397 . S
C156 H137 0.929 . S
C156 C153 1.404 . S
C156 N154 1.334 . S
C157 H149 0.930 . S
C157 C152 1.418 . S
C157 C153 1.353 . S
C158 H128 0.930 . S
C158 N159 1.330 . S
C158 C160 1.446 . S
N159 Co118 2.151 . S
N159 C158 1.330 . S
N159 C163 1.418 . S
C160 H139 0.929 . S
C160 C158 1.446 . S
C160 C161 1.332 . S
C161 H141 0.931 . S
C161 C160 1.332 . S
C161 C162 1.267 . S
C162 H130 0.929 . S
C162 C161 1.267 . S
C162 C163 1.251 . S
C163 H133 0.929 . S
C163 N159 1.418 . S
C163 C162 1.251 . S
C164 H131 0.930 . S
C164 C166 1.406 . S
C164 C169 1.261 . S
C165 H132 0.930 . S
C165 N167 1.325 . S
C165 C168 1.357 . S
C166 H134 0.928 . S
C166 C164 1.406 . S
C166 N167 1.261 . S
N167 Co118 2.214 1_545 S
N167 C165 1.325 . S
N167 C166 1.261 . S
C168 H138 0.931 1_655 S
C168 C165 1.357 . S
C168 C169 1.312 . S
C169 H140 0.930 . S
C169 C164 1.261 . S
C169 C168 1.312 . S
C170 O142 1.221 . S
C170 O150 1.234 . S
C171 H143 0.929 . S
C171 C174 1.391 . S
C171 C176 1.391 . S
C172 H144 0.929 1_655 S
C172 C173 1.390 1_655 S
C172 N175 1.391 . S
C173 H145 0.930 . S
C173 C172 1.390 1_455 S
C173 C174 1.392 1_455 S
C174 H146 0.929 1_655 S
C174 C171 1.391 . S
C174 C173 1.392 1_655 S
N175 Co119 2.257 . S
N175 C172 1.391 . S
N175 C176 1.388 . S
C176 H147 0.930 . S
C176 C171 1.391 . S
C176 N175 1.388 . S
Co177 O179 2.143 . S
Co177 O185 2.074 . S
Co177 O188 2.093 . S
Co177 O201 2.097 . S
Co177 N218 2.151 . S
Co177 N226 2.214 . S
Co178 O179 2.160 1_455 S
Co178 O184 2.058 1_455 S
Co178 O194 2.057 . S
Co178 O209 2.037 . S
Co178 N213 2.145 . S
Co178 N234 2.257 . S
O179 Co177 2.143 . S
O179 Co178 2.160 1_655 S
C180 O181 1.278 1_655 S
C180 O188 1.224 . S
O181 C180 1.278 1_455 S
C182 O183 1.245 1_455 S
C182 O194 1.232 . S
O183 C182 1.245 1_655 S
O184 Co178 2.058 1_655 S
O184 C210 1.269 . S
O185 Co177 2.074 . S
O185 C210 1.257 . S
H186 C211 0.930 1_545 S
H187 C217 0.930 . S
O188 Co177 2.093 . S
O188 C180 1.224 . S
H189 C221 0.929 . S
H190 C223 0.930 . S
H191 C224 0.930 . S
H192 C222 0.929 . S
H193 C225 0.928 . S
O194 Co178 2.057 . S
O194 C182 1.232 . S
H195 C214 0.929 . S
H196 C215 0.929 1_554 S
H197 C227 0.931 1_545 S
H198 C219 0.929 . S
H199 C228 0.930 . S
H200 C220 0.931 . S
O201 Co177 2.097 . S
O201 C229 1.214 1_655 S
H202 C230 0.929 . S
H203 C231 0.929 1_545 S
H204 C232 0.930 . S
H205 C233 0.929 . S
H206 C235 0.930 . S
H207 C212 0.930 . S
H208 C216 0.930 . S
O209 Co178 2.037 . S
O209 C229 1.234 . S
C210 O184 1.269 . S
C210 O185 1.257 . S
C211 H186 0.930 1_565 S
C211 C214 1.388 . S
C211 C216 1.418 . S
C212 H207 0.930 . S
C212 C215 1.404 . S
C212 C216 1.353 . S
N213 Co178 2.145 . S
N213 C214 1.397 1_554 S
N213 C215 1.334 1_554 S
C214 H195 0.929 . S
C214 C211 1.388 . S
C214 N213 1.397 1_556 S
C215 H196 0.929 1_556 S
C215 C212 1.404 . S
C215 N213 1.334 1_556 S
C216 H208 0.930 . S
C216 C211 1.418 . S
C216 C212 1.353 . S
C217 H187 0.930 . S
C217 N218 1.330 . S
C217 C219 1.446 . S
N218 Co177 2.151 . S
N218 C217 1.330 . S
N218 C222 1.418 . S
C219 H198 0.929 . S
C219 C217 1.446 . S
C219 C220 1.332 . S
C220 H200 0.931 . S
C220 C219 1.332 . S
C220 C221 1.267 . S
C221 H189 0.929 . S
C221 C220 1.267 . S
C221 C222 1.251 . S
C222 H192 0.929 . S
C222 N218 1.418 . S
C222 C221 1.251 . S
C223 H190 0.930 . S
C223 C225 1.406 . S
C223 C228 1.261 . S
C224 H191 0.930 . S
C224 N226 1.325 . S
C224 C227 1.357 . S
C225 H193 0.928 . S
C225 C223 1.406 . S
C225 N226 1.261 . S
N226 Co177 2.214 . S
N226 C224 1.325 . S
N226 C225 1.261 . S
C227 H197 0.931 1_565 S
C227 C224 1.357 . S
C227 C228 1.312 . S
C228 H199 0.930 . S
C228 C223 1.261 . S
C228 C227 1.312 . S
C229 O201 1.214 1_455 S
C229 O209 1.234 . S
C230 H202 0.929 . S
C230 C233 1.391 . S
C230 C235 1.391 . S
C231 H203 0.929 1_565 S
C231 C232 1.390 1_565 S
C231 N234 1.391 . S
C232 H204 0.930 . S
C232 C231 1.390 1_545 S
C232 C233 1.392 1_545 S
C233 H205 0.929 . S
C233 C230 1.391 . S
C233 C232 1.392 1_565 S
N234 Co178 2.257 . S
N234 C231 1.391 . S
N234 C235 1.388 . S
C235 H206 0.930 . S
C235 C230 1.391 . S
C235 N234 1.388 . S
Co236 O238 2.143 . S
Co236 O244 2.074 . S
Co236 O247 2.093 . S
Co236 O260 2.097 . S
Co236 N277 2.151 . S
Co236 N285 2.214 1_455 S
Co237 O238 2.160 1_545 S
Co237 O243 2.058 1_545 S
Co237 O253 2.057 . S
Co237 O268 2.037 . S
Co237 N272 2.145 . S
Co237 N293 2.257 . S
O238 Co236 2.143 . S
O238 Co237 2.160 1_565 S
C239 O240 1.278 1_565 S
C239 O247 1.224 . S
O240 C239 1.278 1_545 S
C241 O242 1.245 1_545 S
C241 O253 1.232 . S
O242 C241 1.245 1_565 S
O243 Co237 2.058 1_565 S
O243 C269 1.269 . S
O244 Co236 2.074 . S
O244 C269 1.257 . S
H245 C270 0.930 . S
H246 C276 0.930 . S
O247 Co236 2.093 . S
O247 C239 1.224 . S
H248 C280 0.929 . S
H249 C282 0.930 . S
H250 C283 0.930 . S
H251 C281 0.929 1_655 S
H252 C284 0.928 . S
O253 Co237 2.057 . S
O253 C241 1.232 . S
H254 C273 0.929 . S
H255 C274 0.929 . S
H256 C286 0.931 . S
H257 C278 0.929 . S
H258 C287 0.930 . S
H259 C279 0.931 . S
O260 Co236 2.097 . S
O260 C288 1.214 1_565 S
H261 C289 0.929 . S
H262 C290 0.929 . S
H263 C291 0.930 . S
H264 C292 0.929 . S
H265 C294 0.930 . S
H266 C271 0.930 . S
H267 C275 0.930 . S
O268 Co237 2.037 . S
O268 C288 1.234 . S
C269 O243 1.269 . S
C269 O244 1.257 . S
C270 H245 0.930 . S
C270 C273 1.388 . S
C270 C275 1.418 . S
C271 H266 0.930 . S
C271 C274 1.404 . S
C271 C275 1.353 . S
N272 Co237 2.145 . S
N272 C273 1.397 . S
N272 C274 1.334 . S
C273 H254 0.929 . S
C273 C270 1.388 . S
C273 N272 1.397 . S
C274 H255 0.929 . S
C274 C271 1.404 . S
C274 N272 1.334 . S
C275 H267 0.930 . S
C275 C270 1.418 . S
C275 C271 1.353 . S
C276 H246 0.930 . S
C276 N277 1.330 . S
C276 C278 1.446 . S
N277 Co236 2.151 . S
N277 C276 1.330 . S
N277 C281 1.418 . S
C278 H257 0.929 . S
C278 C276 1.446 . S
C278 C279 1.332 . S
C279 H259 0.931 . S
C279 C278 1.332 . S
C279 C280 1.267 . S
C280 H248 0.929 . S
C280 C279 1.267 . S
C280 C281 1.251 . S
C281 H251 0.929 1_455 S
C281 N277 1.418 . S
C281 C280 1.251 . S
C282 H249 0.930 . S
C282 C284 1.406 . S
C282 C287 1.261 . S
C283 H250 0.930 . S
C283 N285 1.325 . S
C283 C286 1.357 . S
C284 H252 0.928 . S
C284 C282 1.406 . S
C284 N285 1.261 . S
N285 Co236 2.214 1_655 S
N285 C283 1.325 . S
N285 C284 1.261 . S
C286 H256 0.931 . S
C286 C283 1.357 . S
C286 C287 1.312 . S
C287 H258 0.930 . S
C287 C282 1.261 . S
C287 C286 1.312 . S
C288 O260 1.214 1_545 S
C288 O268 1.234 . S
C289 H261 0.929 . S
C289 C292 1.391 . S
C289 C294 1.391 . S
C290 H262 0.929 . S
C290 C291 1.390 . S
C290 N293 1.391 . S
C291 H263 0.930 . S
C291 C290 1.390 . S
C291 C292 1.392 . S
C292 H264 0.929 . S
C292 C289 1.391 . S
C292 C291 1.392 . S
N293 Co237 2.257 . S
N293 C290 1.391 . S
N293 C294 1.388 . S
C294 H265 0.930 . S
C294 C289 1.391 . S
C294 N293 1.388 . S
Co295 O297 2.143 . S
Co295 O303 2.074 . S
Co295 O306 2.093 . S
Co295 O319 2.097 . S
Co295 N336 2.151 . S
Co295 N344 2.214 1_545 S
Co296 O297 2.160 . S
Co296 O302 2.058 . S
Co296 O312 2.057 . S
Co296 O327 2.037 . S
Co296 N331 2.145 . S
Co296 N352 2.257 . S
O297 Co295 2.143 . S
O297 Co296 2.160 . S
C298 O299 1.278 . S
C298 O306 1.224 . S
O299 C298 1.278 . S
C300 O301 1.245 . S
C300 O312 1.232 . S
O301 C300 1.245 . S
O302 Co296 2.058 . S
O302 C328 1.269 . S
O303 Co295 2.074 . S
O303 C328 1.257 . S
H304 C329 0.930 1_655 S
H305 C335 0.930 . S
O306 Co295 2.093 . S
O306 C298 1.224 . S
H307 C339 0.929 . S
H308 C341 0.930 . S
H309 C342 0.930 . S
H310 C340 0.929 . S
H311 C343 0.928 . S
O312 Co296 2.057 . S
O312 C300 1.232 . S
H313 C332 0.929 . S
H314 C333 0.929 . S
H315 C345 0.931 1_655 S
H316 C337 0.929 . S
H317 C346 0.930 . S
H318 C338 0.931 . S
O319 Co295 2.097 . S
O319 C347 1.214 . S
H320 C348 0.929 . S
H321 C349 0.929 1_655 S
H322 C350 0.930 . S
H323 C351 0.929 1_655 S
H324 C353 0.930 . S
H325 C330 0.930 . S
H326 C334 0.930 . S
O327 Co296 2.037 . S
O327 C347 1.234 . S
C328 O302 1.269 . S
C328 O303 1.257 . S
C329 H304 0.930 1_455 S
C329 C332 1.388 . S
C329 C334 1.418 . S
C330 H325 0.930 . S
C330 C333 1.404 . S
C330 C334 1.353 . S
N331 Co296 2.145 . S
N331 C332 1.397 . S
N331 C333 1.334 . S
C332 H313 0.929 . S
C332 C329 1.388 . S
C332 N331 1.397 . S
C333 H314 0.929 . S
C333 C330 1.404 . S
C333 N331 1.334 . S
C334 H326 0.930 . S
C334 C329 1.418 . S
C334 C330 1.353 . S
C335 H305 0.930 . S
C335 N336 1.330 . S
C335 C337 1.446 . S
N336 Co295 2.151 . S
N336 C335 1.330 . S
N336 C340 1.418 . S
C337 H316 0.929 . S
C337 C335 1.446 . S
C337 C338 1.332 . S
C338 H318 0.931 . S
C338 C337 1.332 . S
C338 C339 1.267 . S
C339 H307 0.929 . S
C339 C338 1.267 . S
C339 C340 1.251 . S
C340 H310 0.929 . S
C340 N336 1.418 . S
C340 C339 1.251 . S
C341 H308 0.930 . S
C341 C343 1.406 . S
C341 C346 1.261 . S
C342 H309 0.930 . S
C342 N344 1.325 . S
C342 C345 1.357 . S
C343 H311 0.928 . S
C343 C341 1.406 . S
C343 N344 1.261 . S
N344 Co295 2.214 1_565 S
N344 C342 1.325 . S
N344 C343 1.261 . S
C345 H315 0.931 1_455 S
C345 C342 1.357 . S
C345 C346 1.312 . S
C346 H317 0.930 . S
C346 C341 1.261 . S
C346 C345 1.312 . S
C347 O319 1.214 . S
C347 O327 1.234 . S
C348 H320 0.929 . S
C348 C351 1.391 . S
C348 C353 1.391 . S
C349 H321 0.929 1_455 S
C349 C350 1.390 1_455 S
C349 N352 1.391 . S
C350 H322 0.930 . S
C350 C349 1.390 1_655 S
C350 C351 1.392 1_655 S
C351 H323 0.929 1_455 S
C351 C348 1.391 . S
C351 C350 1.392 1_455 S
N352 Co296 2.257 . S
N352 C349 1.391 . S
N352 C353 1.388 . S
C353 H324 0.930 . S
C353 C348 1.391 . S
C353 N352 1.388 . S
Co354 O356 2.143 . S
Co354 O362 2.074 . S
Co354 O365 2.093 . S
Co354 O378 2.097 1_565 S
Co354 N395 2.151 . S
Co354 N403 2.214 . S
Co355 O356 2.160 1_545 S
Co355 O361 2.058 1_545 S
Co355 O371 2.057 . S
Co355 O386 2.037 . S
Co355 N390 2.145 . S
Co355 N411 2.257 . S
O356 Co354 2.143 . S
O356 Co355 2.160 1_565 S
C357 O358 1.278 1_565 S
C357 O365 1.224 . S
O358 C357 1.278 1_545 S
C359 O360 1.245 1_545 S
C359 O371 1.232 . S
O360 C359 1.245 1_565 S
O361 Co355 2.058 1_565 S
O361 C387 1.269 . S
O362 Co354 2.074 . S
O362 C387 1.257 . S
H363 C388 0.930 1_455 S
H364 C394 0.930 . S
O365 Co354 2.093 . S
O365 C357 1.224 . S
H366 C398 0.929 . S
H367 C400 0.930 . S
H368 C401 0.930 . S
H369 C399 0.929 . S
H370 C402 0.928 . S
O371 Co355 2.057 . S
O371 C359 1.232 . S
H372 C391 0.929 . S
H373 C392 0.929 . S
H374 C404 0.931 1_455 S
H375 C396 0.929 . S
H376 C405 0.930 . S
H377 C397 0.931 . S
O378 Co354 2.097 1_545 S
O378 C406 1.214 . S
H379 C407 0.929 . S
H380 C408 0.929 1_455 S
H381 C409 0.930 . S
H382 C410 0.929 . S
H383 C412 0.930 . S
H384 C389 0.930 . S
H385 C393 0.930 . S
O386 Co355 2.037 . S
O386 C406 1.234 . S
C387 O361 1.269 . S
C387 O362 1.257 . S
C388 H363 0.930 1_655 S
C388 C391 1.388 . S
C388 C393 1.418 . S
C389 H384 0.930 . S
C389 C392 1.404 . S
C389 C393 1.353 . S
N390 Co355 2.145 . S
N390 C391 1.397 . S
N390 C392 1.334 . S
C391 H372 0.929 . S
C391 C388 1.388 . S
C391 N390 1.397 . S
C392 H373 0.929 . S
C392 C389 1.404 . S
C392 N390 1.334 . S
C393 H385 0.930 . S
C393 C388 1.418 . S
C393 C389 1.353 . S
C394 H364 0.930 . S
C394 N395 1.330 . S
C394 C396 1.446 . S
N395 Co354 2.151 . S
N395 C394 1.330 . S
N395 C399 1.418 . S
C396 H375 0.929 . S
C396 C394 1.446 . S
C396 C397 1.332 . S
C397 H377 0.931 . S
C397 C396 1.332 . S
C397 C398 1.267 . S
C398 H366 0.929 . S
C398 C397 1.267 . S
C398 C399 1.251 . S
C399 H369 0.929 . S
C399 N395 1.418 . S
C399 C398 1.251 . S
C400 H367 0.930 . S
C400 C402 1.406 . S
C400 C405 1.261 . S
C401 H368 0.930 . S
C401 N403 1.325 . S
C401 C404 1.357 . S
C402 H370 0.928 . S
C402 C400 1.406 . S
C402 N403 1.261 . S
N403 Co354 2.214 . S
N403 C401 1.325 . S
N403 C402 1.261 . S
C404 H374 0.931 1_655 S
C404 C401 1.357 . S
C404 C405 1.312 . S
C405 H376 0.930 . S
C405 C400 1.261 . S
C405 C404 1.312 . S
C406 O378 1.214 . S
C406 O386 1.234 . S
C407 H379 0.929 . S
C407 C410 1.391 . S
C407 C412 1.391 . S
C408 H380 0.929 1_655 S
C408 C409 1.390 1_655 S
C408 N411 1.391 . S
C409 H381 0.930 . S
C409 C408 1.390 1_455 S
C409 C410 1.392 1_455 S
C410 H382 0.929 . S
C410 C407 1.391 . S
C410 C409 1.392 1_655 S
N411 Co355 2.257 . S
N411 C408 1.391 . S
N411 C412 1.388 . S
C412 H383 0.930 . S
C412 C407 1.391 . S
C412 N411 1.388 . S
Co413 O415 2.143 . S
Co413 O421 2.074 . S
Co413 O424 2.093 . S
Co413 O437 2.097 . S
Co413 N454 2.151 . S
Co413 N462 2.214 1_655 S
Co414 O415 2.160 . S
Co414 O420 2.058 . S
Co414 O430 2.057 . S
Co414 O445 2.037 . S
Co414 N449 2.145 . S
Co414 N470 2.257 . S
O415 Co413 2.143 . S
O415 Co414 2.160 . S
C416 O417 1.278 . S
C416 O424 1.224 . S
O417 C416 1.278 . S
C418 O419 1.245 . S
C418 O430 1.232 . S
O419 C418 1.245 . S
O420 Co414 2.058 . S
O420 C446 1.269 . S
O421 Co413 2.074 . S
O421 C446 1.257 . S
H422 C447 0.930 1_545 S
H423 C453 0.930 . S
O424 Co413 2.093 . S
O424 C416 1.224 . S
H425 C457 0.929 . S
H426 C459 0.930 . S
H427 C460 0.930 . S
H428 C458 0.929 1_455 S
H429 C461 0.928 . S
O430 Co414 2.057 . S
O430 C418 1.232 . S
H431 C450 0.929 . S
H432 C451 0.940 . S
H433 C463 0.931 . S
H434 C455 0.929 . S
H435 C464 0.930 . S
H436 C456 0.931 . S
O437 Co413 2.097 . S
O437 C465 1.214 . S
H438 C466 0.929 . S
H439 C467 0.929 1_545 S
H440 C468 0.930 . S
H441 C469 0.929 . S
H442 C471 0.930 . S
H443 C448 0.930 . S
H444 C452 0.930 . S
O445 Co414 2.037 . S
O445 C465 1.234 . S
C446 O420 1.269 . S
C446 O421 1.257 . S
C447 H422 0.930 1_565 S
C447 C450 1.388 . S
C447 C452 1.418 . S
C448 H443 0.930 . S
C448 C451 1.389 1_554 S
C448 C452 1.353 . S
N449 Co414 2.145 . S
N449 C450 1.397 1_556 S
N449 C451 1.339 . S
C450 H431 0.929 . S
C450 C447 1.388 . S
C450 N449 1.397 1_554 S
C451 H432 0.940 . S
C451 C448 1.389 1_556 S
C451 N449 1.339 . S
C452 H444 0.930 . S
C452 C447 1.418 . S
C452 C448 1.353 . S
C453 H423 0.930 . S
C453 N454 1.330 . S
C453 C455 1.446 . S
N454 Co413 2.151 . S
N454 C453 1.330 . S
N454 C458 1.418 . S
C455 H434 0.929 . S
C455 C453 1.446 . S
C455 C456 1.332 . S
C456 H436 0.931 . S
C456 C455 1.332 . S
C456 C457 1.267 . S
C457 H425 0.929 . S
C457 C456 1.267 . S
C457 C458 1.251 . S
C458 H428 0.929 1_655 S
C458 N454 1.418 . S
C458 C457 1.251 . S
C459 H426 0.930 . S
C459 C461 1.406 . S
C459 C464 1.261 . S
C460 H427 0.930 . S
C460 N462 1.325 . S
C460 C463 1.357 . S
C461 H429 0.928 . S
C461 C459 1.406 . S
C461 N462 1.261 . S
N462 Co413 2.214 1_455 S
N462 C460 1.325 . S
N462 C461 1.261 . S
C463 H433 0.931 . S
C463 C460 1.357 . S
C463 C464 1.312 . S
C464 H435 0.930 . S
C464 C459 1.261 . S
C464 C463 1.312 . S
C465 O437 1.214 . S
C465 O445 1.234 . S
C466 H438 0.929 . S
C466 C469 1.391 . S
C466 C471 1.391 . S
C467 H439 0.929 1_565 S
C467 C468 1.390 1_565 S
C467 N470 1.391 . S
C468 H440 0.930 . S
C468 C467 1.390 1_545 S
C468 C469 1.392 1_545 S
C469 H441 0.929 . S
C469 C466 1.391 . S
C469 C468 1.392 1_565 S
N470 Co414 2.257 . S
N470 C467 1.391 . S
N470 C471 1.388 . S
C471 H442 0.930 . S
C471 C466 1.391 . S
C471 N470 1.388 . S
Co472 O474 2.143 . S
Co472 O480 2.074 . S
Co472 O483 2.093 . S
Co472 O496 2.097 1_455 S
Co472 N513 2.151 . S
Co472 N521 2.214 1_565 S
Co473 O474 2.160 1_655 S
Co473 O479 2.058 1_655 S
Co473 O489 2.057 . S
Co473 O504 2.037 . S
Co473 N508 2.145 . S
Co473 N529 2.257 . S
O474 Co472 2.143 . S
O474 Co473 2.160 1_455 S
C475 O476 1.278 1_455 S
C475 O483 1.224 . S
O476 C475 1.278 1_655 S
C477 O478 1.245 1_655 S
C477 O489 1.232 . S
O478 C477 1.245 1_455 S
O479 Co473 2.058 1_455 S
O479 C505 1.269 . S
O480 Co472 2.074 . S
O480 C505 1.257 . S
H481 C506 0.930 . S
H482 C512 0.930 . S
O483 Co472 2.093 . S
O483 C475 1.224 . S
H484 C516 0.929 . S
H485 C518 0.930 . S
H486 C519 0.930 . S
H487 C517 0.929 . S
H488 C520 0.928 . S
O489 Co473 2.057 . S
O489 C477 1.232 . S
H490 C509 0.929 . S
H491 C510 0.929 . S
H492 C522 0.931 . S
H493 C514 0.929 . S
H494 C523 0.930 . S
H495 C515 0.931 . S
O496 Co472 2.097 1_655 S
O496 C524 1.214 . S
H497 C525 0.929 . S
H498 C526 0.929 . S
H499 C527 0.930 . S
H500 C528 0.929 . S
H501 C530 0.930 . S
H502 C507 0.930 . S
H503 C511 0.930 . S
O504 Co473 2.037 . S
O504 C524 1.234 . S
C505 O479 1.269 . S
C505 O480 1.257 . S
C506 H481 0.930 . S
C506 C509 1.388 . S
C506 C511 1.418 . S
C507 H502 0.930 . S
C507 C510 1.404 . S
C507 C511 1.353 . S
N508 Co473 2.145 . S
N508 C509 1.397 . S
N508 C510 1.334 . S
C509 H490 0.929 . S
C509 C506 1.388 . S
C509 N508 1.397 . S
C510 H491 0.929 . S
C510 C507 1.404 . S
C510 N508 1.334 . S
C511 H503 0.930 . S
C511 C506 1.418 . S
C511 C507 1.353 . S
C512 H482 0.930 . S
C512 N513 1.330 . S
C512 C514 1.446 . S
N513 Co472 2.151 . S
N513 C512 1.330 . S
N513 C517 1.418 . S
C514 H493 0.929 . S
C514 C512 1.446 . S
C514 C515 1.332 . S
C515 H495 0.931 . S
C515 C514 1.332 . S
C515 C516 1.267 . S
C516 H484 0.929 . S
C516 C515 1.267 . S
C516 C517 1.251 . S
C517 H487 0.929 . S
C517 N513 1.418 . S
C517 C516 1.251 . S
C518 H485 0.930 . S
C518 C520 1.406 . S
C518 C523 1.261 . S
C519 H486 0.930 . S
C519 N521 1.325 . S
C519 C522 1.357 . S
C520 H488 0.928 . S
C520 C518 1.406 . S
C520 N521 1.261 . S
N521 Co472 2.214 1_545 S
N521 C519 1.325 . S
N521 C520 1.261 . S
C522 H492 0.931 . S
C522 C519 1.357 . S
C522 C523 1.312 . S
C523 H494 0.930 . S
C523 C518 1.261 . S
C523 C522 1.312 . S
C524 O496 1.214 . S
C524 O504 1.234 . S
C525 H497 0.929 . S
C525 C528 1.391 . S
C525 C530 1.391 . S
C526 H498 0.929 . S
C526 C527 1.390 . S
C526 N529 1.391 . S
C527 H499 0.930 . S
C527 C526 1.390 . S
C527 C528 1.392 . S
C528 H500 0.929 . S
C528 C525 1.391 . S
C528 C527 1.392 . S
N529 Co473 2.257 . S
N529 C526 1.391 . S
N529 C530 1.388 . S
C530 H501 0.930 . S
C530 C525 1.391 . S
C530 N529 1.388 . S
Co531 O533 2.143 . S
Co531 O539 2.074 . S
Co531 O542 2.093 . S
Co531 O555 2.097 1_545 S
Co531 N572 2.151 . S
Co531 N580 2.214 . S
Co532 O533 2.160 1_565 S
Co532 O538 2.058 1_565 S
Co532 O548 2.057 . S
Co532 O563 2.037 . S
Co532 N567 2.145 . S
Co532 N588 2.257 . S
O533 Co531 2.143 . S
O533 Co532 2.160 1_545 S
C534 O535 1.278 1_545 S
C534 O542 1.224 . S
O535 C534 1.278 1_565 S
C536 O537 1.245 1_565 S
C536 O548 1.232 . S
O537 C536 1.245 1_545 S
O538 Co532 2.058 1_545 S
O538 C564 1.269 . S
O539 Co531 2.074 . S
O539 C564 1.257 . S
H540 C565 0.930 1_655 S
H541 C571 0.930 . S
O542 Co531 2.093 . S
O542 C534 1.224 . S
H543 C575 0.929 . S
H544 C577 0.930 . S
H545 C578 0.930 . S
H546 C576 0.929 . S
H547 C579 0.928 . S
O548 Co532 2.057 . S
O548 C536 1.232 . S
H549 C568 0.929 . S
H550 C569 0.929 . S
H551 C581 0.931 1_655 S
H552 C573 0.929 . S
H553 C582 0.930 . S
H554 C574 0.931 . S
O555 Co531 2.097 1_565 S
O555 C583 1.214 . S
H556 C584 0.929 . S
H557 C585 0.929 1_655 S
H558 C586 0.930 . S
H559 C587 0.929 . S
H560 C589 0.930 . S
H561 C566 0.930 . S
H562 C570 0.930 . S
O563 Co532 2.037 . S
O563 C583 1.234 . S
C564 O538 1.269 . S
C564 O539 1.257 . S
C565 H540 0.930 1_455 S
C565 C568 1.388 . S
C565 C570 1.418 . S
C566 H561 0.930 . S
C566 C569 1.404 . S
C566 C570 1.353 . S
N567 Co532 2.145 . S
N567 C568 1.397 . S
N567 C569 1.334 . S
C568 H549 0.929 . S
C568 C565 1.388 . S
C568 N567 1.397 . S
C569 H550 0.929 . S
C569 C566 1.404 . S
C569 N567 1.334 . S
C570 H562 0.930 . S
C570 C565 1.418 . S
C570 C566 1.353 . S
C571 H541 0.930 . S
C571 N572 1.330 . S
C571 C573 1.446 . S
N572 Co531 2.151 . S
N572 C571 1.330 . S
N572 C576 1.418 . S
C573 H552 0.929 . S
C573 C571 1.446 . S
C573 C574 1.332 . S
C574 H554 0.931 . S
C574 C573 1.332 . S
C574 C575 1.267 . S
C575 H543 0.929 . S
C575 C574 1.267 . S
C575 C576 1.251 . S
C576 H546 0.929 . S
C576 N572 1.418 . S
C576 C575 1.251 . S
C577 H544 0.930 . S
C577 C579 1.406 . S
C577 C582 1.261 . S
C578 H545 0.930 . S
C578 N580 1.325 . S
C578 C581 1.357 . S
C579 H547 0.928 . S
C579 C577 1.406 . S
C579 N580 1.261 . S
N580 Co531 2.214 . S
N580 C578 1.325 . S
N580 C579 1.261 . S
C581 H551 0.931 1_455 S
C581 C578 1.357 . S
C581 C582 1.312 . S
C582 H553 0.930 . S
C582 C577 1.261 . S
C582 C581 1.312 . S
C583 O555 1.214 . S
C583 O563 1.234 . S
C584 H556 0.929 . S
C584 C587 1.391 . S
C584 C589 1.391 . S
C585 H557 0.929 1_455 S
C585 C586 1.390 1_455 S
C585 N588 1.391 . S
C586 H558 0.930 . S
C586 C585 1.390 1_655 S
C586 C587 1.392 1_655 S
C587 H559 0.929 . S
C587 C584 1.391 . S
C587 C586 1.392 1_455 S
N588 Co532 2.257 . S
N588 C585 1.391 . S
N588 C589 1.388 . S
C589 H560 0.930 . S
C589 C584 1.391 . S
C589 N588 1.388 . S
Co590 O592 2.143 . S
Co590 O598 2.074 . S
Co590 O601 2.093 . S
Co590 O614 2.097 . S
Co590 N631 2.151 . S
Co590 N639 2.214 1_455 S
Co591 O592 2.160 . S
Co591 O597 2.058 . S
Co591 O607 2.057 . S
Co591 O622 2.037 . S
Co591 N626 2.145 . S
Co591 N647 2.257 . S
O592 Co590 2.143 . S
O592 Co591 2.160 . S
C593 O594 1.278 . S
C593 O601 1.224 . S
O594 C593 1.278 . S
C595 O596 1.245 . S
C595 O607 1.232 . S
O596 C595 1.245 . S
O597 Co591 2.058 . S
O597 C623 1.269 . S
O598 Co590 2.074 . S
O598 C623 1.257 . S
H599 C624 0.930 1_565 S
H600 C630 0.930 . S
O601 Co590 2.093 . S
O601 C593 1.224 . S
H602 C634 0.929 . S
H603 C636 0.930 . S
H604 C637 0.930 . S
H605 C635 0.929 1_655 S
H606 C638 0.928 . S
O607 Co591 2.057 . S
O607 C595 1.232 . S
H608 C627 0.929 . S
H609 C628 0.933 . S
H610 C640 0.931 . S
H611 C632 0.929 . S
H612 C641 0.930 . S
H613 C633 0.931 . S
O614 Co590 2.097 . S
O614 C642 1.214 . S
H615 C643 0.929 . S
H616 C644 0.929 . S
H617 C645 0.930 . S
H618 C646 0.929 . S
H619 C648 0.930 . S
H620 C625 0.930 . S
H621 C629 0.930 . S
O622 Co591 2.037 . S
O622 C642 1.234 . S
C623 O597 1.269 . S
C623 O598 1.257 . S
C624 H599 0.930 1_545 S
C624 C627 1.388 . S
C624 C629 1.418 . S
C625 H620 0.930 . S
C625 C628 1.398 1_554 S
C625 C629 1.353 . S
N626 Co591 2.145 . S
N626 C627 1.397 1_556 S
N626 C628 1.336 . S
C627 H608 0.929 . S
C627 C624 1.388 . S
C627 N626 1.397 1_554 S
C628 H609 0.933 . S
C628 C625 1.398 1_556 S
C628 N626 1.336 . S
C629 H621 0.930 . S
C629 C624 1.418 . S
C629 C625 1.353 . S
C630 H600 0.930 . S
C630 N631 1.330 . S
C630 C632 1.446 . S
N631 Co590 2.151 . S
N631 C630 1.330 . S
N631 C635 1.418 . S
C632 H611 0.929 . S
C632 C630 1.446 . S
C632 C633 1.332 . S
C633 H613 0.931 . S
C633 C632 1.332 . S
C633 C634 1.267 . S
C634 H602 0.929 . S
C634 C633 1.267 . S
C634 C635 1.251 . S
C635 H605 0.929 1_455 S
C635 N631 1.418 . S
C635 C634 1.251 . S
C636 H603 0.930 . S
C636 C638 1.406 . S
C636 C641 1.261 . S
C637 H604 0.930 . S
C637 N639 1.325 . S
C637 C640 1.357 . S
C638 H606 0.928 . S
C638 C636 1.406 . S
C638 N639 1.261 . S
N639 Co590 2.214 1_655 S
N639 C637 1.325 . S
N639 C638 1.261 . S
C640 H610 0.931 . S
C640 C637 1.357 . S
C640 C641 1.312 . S
C641 H612 0.930 . S
C641 C636 1.261 . S
C641 C640 1.312 . S
C642 O614 1.214 . S
C642 O622 1.234 . S
C643 H615 0.929 . S
C643 C646 1.391 . S
C643 C648 1.391 . S
C644 H616 0.929 . S
C644 C645 1.390 1_545 S
C644 N647 1.391 . S
C645 H617 0.930 . S
C645 C644 1.390 1_565 S
C645 C646 1.392 1_565 S
C646 H618 0.929 . S
C646 C643 1.391 . S
C646 C645 1.392 1_545 S
N647 Co591 2.257 . S
N647 C644 1.391 . S
N647 C648 1.388 . S
C648 H619 0.930 . S
C648 C643 1.391 . S
C648 N647 1.388 . S
Co649 O651 2.143 . S
Co649 O657 2.074 . S
Co649 O660 2.093 . S
Co649 O673 2.097 1_655 S
Co649 N690 2.151 . S
Co649 N698 2.214 1_545 S
Co650 O651 2.160 1_455 S
Co650 O656 2.058 1_455 S
Co650 O666 2.057 . S
Co650 O681 2.037 . S
Co650 N685 2.145 . S
Co650 N706 2.257 . S
O651 Co649 2.143 . S
O651 Co650 2.160 1_655 S
C652 O653 1.278 1_655 S
C652 O660 1.224 . S
O653 C652 1.278 1_455 S
C654 O655 1.245 1_455 S
C654 O666 1.232 . S
O655 C654 1.245 1_655 S
O656 Co650 2.058 1_655 S
O656 C682 1.269 . S
O657 Co649 2.074 . S
O657 C682 1.257 . S
H658 C683 0.930 . S
H659 C689 0.930 . S
O660 Co649 2.093 . S
O660 C652 1.224 . S
H661 C693 0.929 . S
H662 C695 0.930 . S
H663 C696 0.930 . S
H664 C694 0.929 . S
H665 C697 0.928 . S
O666 Co650 2.057 . S
O666 C654 1.232 . S
H667 C686 0.929 . S
H668 C687 0.929 . S
H669 C699 0.931 . S
H670 C691 0.929 . S
H671 C700 0.930 . S
H672 C692 0.931 . S
O673 Co649 2.097 1_455 S
O673 C701 1.214 . S
H674 C702 0.929 . S
H675 C703 0.929 . S
H676 C704 0.930 . S
H677 C705 0.929 . S
H678 C707 0.930 . S
H679 C684 0.930 . S
H680 C688 0.930 . S
O681 Co650 2.037 . S
O681 C701 1.234 . S
C682 O656 1.269 . S
C682 O657 1.257 . S
C683 H658 0.930 . S
C683 C686 1.388 . S
C683 C688 1.418 . S
C684 H679 0.930 . S
C684 C687 1.404 . S
C684 C688 1.353 . S
N685 Co650 2.145 . S
N685 C686 1.397 . S
N685 C687 1.334 . S
C686 H667 0.929 . S
C686 C683 1.388 . S
C686 N685 1.397 . S
C687 H668 0.929 . S
C687 C684 1.404 . S
C687 N685 1.334 . S
C688 H680 0.930 . S
C688 C683 1.418 . S
C688 C684 1.353 . S
C689 H659 0.930 . S
C689 N690 1.330 . S
C689 C691 1.446 . S
N690 Co649 2.151 . S
N690 C689 1.330 . S
N690 C694 1.418 . S
C691 H670 0.929 . S
C691 C689 1.446 . S
C691 C692 1.332 . S
C692 H672 0.931 . S
C692 C691 1.332 . S
C692 C693 1.267 . S
C693 H661 0.929 . S
C693 C692 1.267 . S
C693 C694 1.251 . S
C694 H664 0.929 . S
C694 N690 1.418 . S
C694 C693 1.251 . S
C695 H662 0.930 . S
C695 C697 1.406 . S
C695 C700 1.261 . S
C696 H663 0.930 . S
C696 N698 1.325 . S
C696 C699 1.357 . S
C697 H665 0.928 . S
C697 C695 1.406 . S
C697 N698 1.261 . S
N698 Co649 2.214 1_565 S
N698 C696 1.325 . S
N698 C697 1.261 . S
C699 H669 0.931 . S
C699 C696 1.357 . S
C699 C700 1.312 . S
C700 H671 0.930 . S
C700 C695 1.261 . S
C700 C699 1.312 . S
C701 O673 1.214 . S
C701 O681 1.234 . S
C702 H674 0.929 . S
C702 C705 1.391 . S
C702 C707 1.391 . S
C703 H675 0.929 . S
C703 C704 1.390 . S
C703 N706 1.391 . S
C704 H676 0.930 . S
C704 C703 1.390 . S
C704 C705 1.392 . S
C705 H677 0.929 . S
C705 C702 1.391 . S
C705 C704 1.392 . S
N706 Co650 2.257 . S
N706 C703 1.391 . S
N706 C707 1.388 . S
C707 H678 0.930 . S
C707 C702 1.391 . S
C707 N706 1.388 . S
C652 C3 1.737 1_655 S
C62 C357 1.648 1_545 S
C121 C416 1.694 . S
C180 C475 1.739 1_655 S
C534 C239 1.653 1_545 S
C298 C593 1.711 . S
C33 C623 1.415 1_554 S
C92 C682 1.359 . S
C151 C387 1.354 . S
C210 C446 1.407 1_554 S
C505 C269 1.361 . S
C564 C328 1.358 . S
C182 C5 2.035 1_455 S
C64 C241 2.048 1_565 S
C300 C123 2.619 . S
C536 C359 2.302 1_565 S
C595 C418 1.782 . S
C477 C654 2.331 1_655 S
C52 C229 1.992 1_645 S
C111 C288 2.042 1_665 S
C347 C170 2.738 1_445 S
C406 C583 2.376 1_645 S
C465 C642 1.703 1_665 S
C524 C701 2.370 1_665 S
