# Generated by pormake.
# Topology snp, (6)-cn, num edge types: 1
# Building blocks:
#     Node 0, Type 0, BuildingBlock: KUMBOL_clean_sbu_0, # of connection points: 6
#     Node 1, Type 0, BuildingBlock: KUMBOL_clean_sbu_0, # of connection points: 6
#     Node 2, Type 0, BuildingBlock: KUMBOL_clean_sbu_0, # of connection points: 6
#     Node 3, Type 0, BuildingBlock: KUMBOL_clean_sbu_0, # of connection points: 6
#     Edge 4, Type (0, 0), BuildingBlock: MIFKUJ_clean_linker_0, # of connection points: 2
#     Edge 5, Type (0, 0), BuildingBlock: MIFKUJ_clean_linker_0, # of connection points: 2
#     Edge 6, Type (0, 0), BuildingBlock: MIFKUJ_clean_linker_0, # of connection points: 2
#     Edge 7, Type (0, 0), BuildingBlock: MIFKUJ_clean_linker_0, # of connection points: 2
#     Edge 8, Type (0, 0), BuildingBlock: MIFKUJ_clean_linker_0, # of connection points: 2
#     Edge 9, Type (0, 0), BuildingBlock: MIFKUJ_clean_linker_0, # of connection points: 2
#     Edge 10, Type (0, 0), BuildingBlock: MIFKUJ_clean_linker_0, # of connection points: 2
#     Edge 11, Type (0, 0), BuildingBlock: MIFKUJ_clean_linker_0, # of connection points: 2
#     Edge 12, Type (0, 0), BuildingBlock: MIFKUJ_clean_linker_0, # of connection points: 2
#     Edge 13, Type (0, 0), BuildingBlock: MIFKUJ_clean_linker_0, # of connection points: 2
#     Edge 14, Type (0, 0), BuildingBlock: MIFKUJ_clean_linker_0, # of connection points: 2
#     Edge 15, Type (0, 0), BuildingBlock: MIFKUJ_clean_linker_0, # of connection points: 2
# Relax obj value: 0.224
# Max RMSD: 0.242
# Mean RMSD: 0.223
data_MOF--net-snp--node1-KUMBOL_clean_sbu_0--edge1-MIFKUJ_clean_linker_0
_symmetry_space_group_name_H-M    P1
_symmetry_Int_Tables_number       1
_symmetry_cell_setting            triclinic
loop_
_symmetry_equiv_pos_as_xyz
'x, y, z'
_cell_length_a     31.616502
_cell_length_b     33.147339
_cell_length_c     41.672302
_cell_angle_alpha  115.53044
_cell_angle_beta   100.71482
_cell_angle_gamma 93.179142
loop_
_atom_site_label
_atom_site_type_symbol
_atom_site_fract_x
_atom_site_fract_y
_atom_site_fract_z
_atom_type_partial_charge
Gd0 Gd 0.3465 0.97727 0.19559 0.0
Gd1 Gd 0.33149 0.07636 0.17738 0.0
C2 C 0.39046 0.22057 0.2642 0.0
C3 C 0.32913 0.26089 0.26165 0.0
C4 C 0.32029 0.17928 0.22494 0.0
C5 C 0.36378 0.17963 0.23807 0.0
C6 C 0.30238 0.21989 0.23676 0.0
C7 C 0.37308 0.26121 0.27543 0.0
C8 C 0.43362 0.2194 0.27879 0.0
C9 C 0.44886 0.17803 0.26805 0.0
N10 N 0.37941 0.13966 0.22663 0.0
C11 C 0.42126 0.13844 0.24211 0.0
H12 H 0.43396 0.10712 0.23537 0.0
C13 C 0.25214 0.13719 0.18713 0.0
N14 N 0.29525 0.13905 0.20095 0.0
C15 C 0.23293 0.17655 0.19847 0.0
C16 C 0.25813 0.21808 0.22312 0.0
H17 H 0.23286 0.10534 0.1668 0.0
H18 H 0.39321 0.29298 0.29514 0.0
H19 H 0.24653 0.91185 0.16333 0.0
H20 H 0.45511 0.25004 0.29893 0.0
H21 H 0.48192 0.17652 0.27981 0.0
H22 H 0.31601 0.29244 0.27075 0.0
H23 H 0.44822 0.95523 0.21711 0.0
H24 H 0.2496 0.79282 0.06728 0.0
H25 H 0.20879 0.84139 0.11072 0.0
H26 H 0.402 0.79276 0.07391 0.0
H27 H 0.19887 0.17519 0.18814 0.0
H28 H 0.24309 0.24848 0.23144 0.0
H29 H 0.32217 0.77612 0.05263 0.0
H30 H 0.4963 0.90168 0.18684 0.0
N31 N 0.30766 0.90723 0.14804 0.0
C32 C 0.26625 0.82453 0.09001 0.0
C33 C 0.24312 0.85183 0.11443 0.0
C34 C 0.31126 0.83691 0.09695 0.0
C35 C 0.33138 0.87846 0.12716 0.0
C36 C 0.26463 0.89277 0.14382 0.0
N37 N 0.39332 0.92389 0.17197 0.0
C38 C 0.37602 0.88734 0.1395 0.0
C39 C 0.46261 0.89748 0.17305 0.0
C40 C 0.44619 0.86208 0.13803 0.0
C41 C 0.43528 0.92751 0.19015 0.0
C42 C 0.402 0.85563 0.12139 0.0
H43 H 0.46726 0.83856 0.12498 0.0
O44 O 0.36822 0.95576 0.23782 0.0
O45 O 0.34144 0.05001 0.21821 0.0
O46 O 0.39841 0.06084 0.17369 0.0
O47 O 0.40861 0.99544 0.18061 0.0
O48 O 0.38854 0.0329 0.24825 0.0
O49 O 0.30152 0.96546 0.22548 0.0
O50 O 0.29805 0.08376 0.13016 0.0
O51 O 0.33462 1.0019 0.1528 0.0
O52 O 0.27612 0.9874 0.18427 0.0
O53 O 0.27617 0.06413 0.20071 0.0
O54 O 0.2815 0.02205 0.13048 0.0
O55 O 0.36847 0.09938 0.14761 0.0
C56 C 0.36751 0.06553 0.24889 0.0
C57 C 0.38249 0.81699 0.08867 0.0
C58 C 0.33705 0.80754 0.0765 0.0
C59 C 0.32971 0.95222 0.24433 0.0
C60 C 0.31427 0.9108 0.24681 0.0
C61 C 0.32217 0.8686 0.22225 0.0
C62 C 0.29149 0.91313 0.27373 0.0
C63 C 0.27816 0.87351 0.27662 0.0
C64 C 0.30859 0.82952 0.22472 0.0
C65 C 0.28698 0.83189 0.25161 0.0
C66 C 0.42193 0.02953 0.17437 0.0
C67 C 0.30166 0.98788 0.1262 0.0
C68 C 0.33379 0.09829 0.1245 0.0
C69 C 0.3326 0.13635 0.11509 0.0
C70 C 0.31867 0.1764 0.1372 0.0
C71 C 0.34446 0.1322 0.08299 0.0
C72 C 0.34326 0.16843 0.07391 0.0
C73 C 0.31711 0.21209 0.128 0.0
C74 C 0.3295 0.20827 0.09662 0.0
C75 C 0.2572 0.02414 0.19491 0.0
H76 H 0.33902 0.86587 0.20118 0.0
H77 H 0.2851 0.94559 0.29274 0.0
H78 H 0.31496 0.79712 0.20573 0.0
H79 H 0.27675 0.80082 0.25265 0.0
H80 H 0.3085 0.18014 0.16132 0.0
H81 H 0.35452 0.10112 0.06525 0.0
H82 H 0.30599 0.2427 0.14514 0.0
H83 H 0.32755 0.23615 0.08961 0.0
Gd84 Gd 0.2361 0.32461 0.65997 0.0
Gd85 Gd 0.13209 0.28418 0.59195 0.0
C86 C 0.9998 0.30948 0.61799 0.0
C87 C 0.95843 0.23369 0.58501 0.0
C88 C 0.03545 0.24581 0.5863 0.0
C89 C 0.03693 0.29204 0.6063 0.0
C90 C 0.99607 0.21616 0.57517 0.0
C91 C 0.96043 0.28018 0.60673 0.0
C92 C 0.00396 0.35542 0.64224 0.0
C93 C 0.04437 0.3827 0.65426 0.0
N94 N 0.07564 0.3195 0.61716 0.0
C95 C 0.07965 0.36454 0.64064 0.0
H96 H 0.11034 0.38658 0.65087 0.0
C97 C 0.07284 0.18454 0.55867 0.0
N98 N 0.07272 0.22975 0.57851 0.0
C99 C 0.0344 0.15381 0.54658 0.0
C100 C 0.99585 0.1697 0.55489 0.0
H101 H 0.10236 0.17244 0.55122 0.0
H102 H 0.93154 0.29302 0.61524 0.0
H103 H 0.28403 0.23198 0.61759 0.0
H104 H 0.9766 0.36982 0.65273 0.0
H105 H 0.04866 0.4177 0.67436 0.0
H106 H 0.92788 0.21146 0.57675 0.0
H107 H 0.26128 0.43378 0.72054 0.0
H108 H 0.40336 0.27616 0.60174 0.0
H109 H 0.34914 0.21464 0.59431 0.0
H110 H 0.41719 0.43699 0.66187 0.0
H111 H 0.03445 0.11801 0.53061 0.0
H112 H 0.96618 0.14586 0.54563 0.0
H113 H 0.42634 0.3588 0.6233 0.0
H114 H 0.31687 0.49952 0.73712 0.0
N115 N 0.29779 0.30346 0.63552 0.0
C116 C 0.37343 0.28404 0.6103 0.0
C117 C 0.34325 0.24934 0.60668 0.0
C118 C 0.36625 0.32882 0.62753 0.0
C119 C 0.32812 0.33764 0.6408 0.0
C120 C 0.30577 0.25967 0.61984 0.0
N121 N 0.28899 0.38814 0.67885 0.0
C122 C 0.32344 0.38146 0.66305 0.0
C123 C 0.31887 0.46659 0.71597 0.0
C124 C 0.35279 0.46094 0.69794 0.0
C125 C 0.28759 0.42942 0.70662 0.0
C126 C 0.35611 0.41777 0.67188 0.0
H127 H 0.37721 0.48968 0.70543 0.0
O128 O 0.24689 0.34608 0.71776 0.0
O129 O 0.16399 0.30709 0.65088 0.0
O130 O 0.15422 0.35765 0.60947 0.0
O131 O 0.22452 0.38296 0.64737 0.0
O132 O 0.19272 0.36359 0.69677 0.0
O133 O 0.27016 0.28535 0.68485 0.0
O134 O 0.12437 0.25029 0.53337 0.0
O135 O 0.20418 0.3007 0.60029 0.0
O136 O 0.21763 0.24931 0.62914 0.0
O137 O 0.14306 0.23694 0.61819 0.0
O138 O 0.17292 0.23699 0.55948 0.0
O139 O 0.09498 0.31054 0.55703 0.0
C140 C 0.15627 0.33639 0.68032 0.0
C141 C 0.39213 0.40947 0.65593 0.0
C142 C 0.39732 0.36498 0.63395 0.0
C143 C 0.26675 0.3128 0.71749 0.0
C144 C 0.30392 0.32481 0.7485 0.0
C145 C 0.33387 0.36407 0.76081 0.0
C146 C 0.3054 0.30069 0.76926 0.0
C147 C 0.33541 0.31688 0.80338 0.0
C148 C 0.36358 0.38042 0.7944 0.0
C149 C 0.36382 0.35773 0.81585 0.0
C150 C 0.18873 0.38883 0.62898 0.0
C151 C 0.20922 0.26465 0.57363 0.0
C152 C 0.10023 0.27771 0.52689 0.0
C153 C 0.06245 0.25582 0.49504 0.0
C154 C 0.04259 0.21182 0.48504 0.0
C155 C 0.04951 0.27597 0.47171 0.0
C156 C 0.01657 0.25217 0.43925 0.0
C157 C 0.01035 0.18838 0.45316 0.0
C158 C 0.99747 0.20825 0.43042 0.0
C159 C 0.18182 0.22634 0.62751 0.0
H160 H 0.33307 0.38309 0.74519 0.0
H161 H 0.28243 0.26998 0.75892 0.0
H162 H 0.38574 0.41157 0.80437 0.0
H163 H 0.38593 0.37303 0.84255 0.0
H164 H 0.0532 0.19447 0.50092 0.0
H165 H 0.06544 0.30932 0.47836 0.0
H166 H 0.99601 0.15417 0.44558 0.0
H167 H 0.97321 0.18855 0.40521 0.0
Gd168 Gd 0.86744 0.04935 0.02525 0.0
Gd169 Gd 0.85502 0.14875 1.00607 0.0
C170 C 0.89093 0.27989 0.11269 0.0
C171 C 0.81998 0.30136 0.12047 0.0
C172 C 0.82645 0.23619 0.06553 0.0
C173 C 0.87065 0.24249 0.0791 0.0
C174 C 0.80083 0.26696 0.08517 0.0
C175 C 0.86511 0.3078 0.13427 0.0
C176 C 0.93642 0.28986 0.12224 0.0
C177 C 0.96007 0.26491 0.09717 0.0
N178 N 0.89429 0.21541 0.05705 0.0
C179 C 0.93821 0.22823 0.06418 0.0
H180 H 0.95674 0.21088 0.04448 0.0
C181 C 0.76879 0.20294 0.0128 0.0
N182 N 0.80966 0.20325 0.03109 0.0
C183 C 0.74183 0.23253 0.03116 0.0
C184 C 0.75753 0.26385 0.06786 0.0
H185 H 0.75622 0.17793 0.98469 0.0
H186 H 0.87994 0.33601 0.1606 0.0
H187 H 0.76393 0.02019 0.97045 0.0
H188 H 0.95333 0.31831 0.14775 0.0
H189 H 0.99506 0.27392 0.10315 0.0
H190 H 0.80065 0.32468 0.13643 0.0
H191 H 0.96439 0.01807 0.03767 0.0
H192 H 0.74195 0.87812 0.90278 0.0
H193 H 0.71478 0.95149 0.92606 0.0
H194 H 0.88134 0.83403 0.92658 0.0
H195 H 0.70887 0.2309 0.01711 0.0
H196 H 0.73669 0.28681 0.08198 0.0
H197 H 0.80427 0.83477 0.90287 0.0
H198 H 0.99756 0.94792 0.01461 0.0
N199 N 0.8189 0.98706 0.97593 0.0
C200 C 0.76378 0.90839 0.92312 0.0
C201 C 0.74828 0.9496 0.93637 0.0
C202 C 0.80749 0.90686 0.93581 0.0
C203 C 0.83464 0.94732 0.96228 0.0
C204 C 0.77643 0.98872 0.96248 0.0
N205 N 0.9029 0.98636 1.00087 0.0
C206 C 0.87806 0.94705 0.97493 0.0
C207 C 0.96401 0.94743 1.00364 0.0
C208 C 0.93905 0.9068 0.977 0.0
C209 C 0.94525 0.98698 0.01595 0.0
C210 C 0.89542 0.90612 0.9624 0.0
H211 H 0.9537 0.87617 0.96815 0.0
O212 O 0.89898 0.04277 0.07348 0.0
O213 O 0.86828 0.12442 0.04916 0.0
O214 O 0.92434 0.13405 0.01378 0.0
O215 O 0.92217 0.05761 1.00002 0.0
O216 O 0.92055 0.10115 0.07053 0.0
O217 O 0.82886 0.0269 0.05429 0.0
O218 O 0.83547 0.17011 0.96343 0.0
O219 O 0.85544 0.07578 0.98487 0.0
O220 O 0.80227 0.06948 0.03121 0.0
O221 O 0.79108 0.13115 0.01887 0.0
O222 O 0.81461 0.09332 0.9516 0.0
O223 O 0.90284 0.16498 0.98018 0.0
C224 C 0.90268 0.13655 0.07433 0.0
C225 C 0.86855 0.86575 0.93638 0.0
C226 C 0.82469 0.86615 0.92299 0.0
C227 C 0.86266 0.02831 0.07833 0.0
C228 C 0.86306 0.9898 0.08718 0.0
C229 C 0.86662 0.94676 0.06087 0.0
C230 C 0.86018 0.99598 0.12232 0.0
C231 C 0.86085 0.95907 0.13061 0.0
C232 C 0.86769 0.91038 0.06928 0.0
C233 C 0.86478 0.91644 0.10394 0.0
C234 C 0.94231 0.09665 1.00488 0.0
C235 C 0.83126 0.05938 0.95333 0.0
C236 C 0.87484 0.17507 0.95881 0.0
C237 C 0.88914 0.21439 0.95303 0.0
C238 C 0.87499 0.25599 0.97103 0.0
C239 C 0.91565 0.20983 0.92797 0.0
C240 C 0.92583 0.24601 0.91981 0.0
C241 C 0.88575 0.29195 0.96354 0.0
C242 C 0.91048 0.2869 0.93792 0.0
C243 C 0.77851 0.09969 0.02829 0.0
H244 H 0.86846 0.94112 0.03382 0.0
H245 H 0.85743 0.02908 0.14297 0.0
H246 H 0.87067 0.87734 0.04882 0.0
H247 H 0.86557 0.8878 0.11004 0.0
H248 H 0.85511 0.26049 0.99054 0.0
H249 H 0.92711 0.17799 0.91415 0.0
H250 H 0.87429 0.32379 0.97727 0.0
H251 H 0.91757 0.31507 0.93208 0.0
Gd252 Gd 0.05833 0.8319 0.60344 0.0
Gd253 Gd 0.95542 0.79704 0.53812 0.0
C254 C 0.83959 0.80233 0.59059 0.0
C255 C 0.81519 0.72285 0.5707 0.0
C256 C 0.87743 0.74567 0.55221 0.0
C257 C 0.87345 0.79081 0.57184 0.0
C258 C 0.84726 0.71127 0.5505 0.0
C259 C 0.81144 0.76827 0.59076 0.0
C260 C 0.83392 0.84766 0.60767 0.0
C261 C 0.86024 0.88009 0.60448 0.0
N262 N 0.90071 0.82324 0.57085 0.0
C263 C 0.89291 0.86724 0.58534 0.0
H264 H 0.91136 0.89346 0.58281 0.0
C265 C 0.90727 0.69126 0.50728 0.0
N266 N 0.90823 0.73518 0.53236 0.0
C267 C 0.87836 0.65622 0.50495 0.0
C268 C 0.84876 0.66617 0.52718 0.0
H269 H 0.92893 0.68276 0.48885 0.0
H270 H 0.78565 0.77664 0.60532 0.0
H271 H 0.07501 0.73192 0.54242 0.0
H272 H 0.80839 0.85774 0.62234 0.0
H273 H 0.85517 0.91509 0.61652 0.0
H274 H 0.79214 0.69686 0.56997 0.0
H275 H 0.09548 0.942 0.65603 0.0
H276 H 0.2061 0.74495 0.53181 0.0
H277 H 0.13463 0.69765 0.51554 0.0
H278 H 0.26251 0.90015 0.61472 0.0
H279 H 0.87858 0.6216 0.48564 0.0
H280 H 0.826 0.63894 0.52502 0.0
H281 H 0.25386 0.8202 0.56979 0.0
H282 H 0.16488 0.99392 0.6772 0.0
N283 N 0.11052 0.79817 0.57157 0.0
C284 C 0.17962 0.76016 0.54332 0.0
C285 C 0.13949 0.73335 0.53422 0.0
C286 C 0.18541 0.80612 0.56782 0.0
C287 C 0.14962 0.8245 0.58137 0.0
C288 C 0.10547 0.75288 0.54936 0.0
N289 N 0.11932 0.88592 0.61891 0.0
C290 C 0.15433 0.86964 0.60621 0.0
C291 C 0.16236 0.95907 0.65717 0.0
C292 C 0.19873 0.94282 0.64429 0.0
C293 C 0.12291 0.92977 0.64464 0.0
C294 C 0.19517 0.89749 0.61881 0.0
H295 H 0.22937 0.96543 0.65428 0.0
O296 O 0.07947 0.86026 0.66275 0.0
O297 O 0.98593 0.82188 0.59864 0.0
O298 O 0.97038 0.87174 0.56054 0.0
O299 O 0.04416 0.89067 0.59141 0.0
O300 O 0.02432 0.88402 0.63712 0.0
O301 O 0.09004 0.79273 0.62895 0.0
O302 O 0.93227 0.75363 0.47964 0.0
O303 O 0.02895 0.80071 0.54249 0.0
O304 O 0.01892 0.76872 0.59553 0.0
O305 O 0.98844 0.73678 0.53459 0.0
O306 O 0.99114 0.82336 0.50886 0.0
O307 O 0.90777 0.81823 0.50584 0.0
C308 C 0.98591 0.86036 0.62553 0.0
C309 C 0.23095 0.87928 0.60551 0.0
C310 C 0.22598 0.8338 0.57983 0.0
C311 C 0.09551 0.82479 0.6622 0.0
C312 C 0.13771 0.83305 0.68809 0.0
C313 C 0.17721 0.83714 0.67821 0.0
C314 C 0.13856 0.83673 0.72326 0.0
C315 C 0.17865 0.84383 0.74782 0.0
C316 C 0.21687 0.84541 0.70291 0.0
C317 C 0.21765 0.84853 0.73743 0.0
C318 C 0.00671 0.90026 0.57781 0.0
C319 C 0.0298 0.81731 0.51969 0.0
C320 C 0.90794 0.78249 0.47573 0.0
C321 C 0.88087 0.77417 0.44018 0.0
C322 C 0.85135 0.73397 0.42019 0.0
C323 C 0.88383 0.80581 0.42608 0.0
C324 C 0.85671 0.79706 0.39209 0.0
C325 C 0.82449 0.72531 0.38669 0.0
C326 C 0.82708 0.7565 0.37271 0.0
C327 C 0.00407 0.73272 0.56435 0.0
H328 H 0.17757 0.83348 0.65134 0.0
H329 H 0.10831 0.83332 0.73123 0.0
H330 H 0.24716 0.84895 0.69513 0.0
H331 H 0.24879 0.85465 0.75617 0.0
H332 H 0.84875 0.70945 0.43075 0.0
H333 H 0.9068 0.83692 0.44146 0.0
H334 H 0.80158 0.69424 0.37146 0.0
H335 H 0.80619 0.74858 0.34635 0.0
H336 H 0.99609 0.16578 0.06064 0.0
H337 H 0.05933 0.15551 0.09345 0.0
H338 H 0.0646 0.03135 0.99947 0.0
H339 H 0.9941 0.0383 0.96802 0.0
H340 H 0.04557 0.01092 0.04449 0.0
H341 H 0.16695 0.12912 0.06954 0.0
H342 H 0.19324 0.20743 0.08246 0.0
H343 H 0.13901 0.25902 0.17707 0.0
H344 H 0.11248 0.18125 0.16465 0.0
H345 H 0.20114 0.95187 0.14256 0.0
H346 H 0.13438 0.96018 0.1115 0.0
H347 H 0.13596 0.08921 0.20313 0.0
H348 H 0.20775 0.08332 0.23242 0.0
H349 H 0.15454 0.10801 0.15817 0.0
H350 H 0.03335 0.99957 0.13854 0.0
H351 H 0.99765 0.92543 0.12814 0.0
H352 H 0.03878 0.86064 0.02762 0.0
H353 H 0.07393 0.93449 0.03719 0.0
C354 C 0.01177 0.13778 0.04574 0.0
C355 C 0.98956 0.10217 0.01239 0.0
C356 C 0.04957 0.13211 0.06481 0.0
C357 C 0.06723 0.09202 0.04954 0.0
C358 C 0.05084 0.06201 0.01224 0.0
C359 C 0.01074 0.06597 0.99411 0.0
C360 C 0.08879 0.07454 0.0745 0.0
C361 C 0.07033 0.03167 0.06888 0.0
C362 C 0.11918 0.10265 0.10755 0.0
C363 C 0.13827 0.14928 0.11642 0.0
C364 C 0.16106 0.15718 0.09328 0.0
C365 C 0.17588 0.20149 0.10046 0.0
C366 C 0.16791 0.23816 0.13061 0.0
C367 C 0.14542 0.23064 0.15385 0.0
C368 C 0.13074 0.18646 0.14688 0.0
C369 C 0.18626 0.98077 0.15738 0.0
C370 C 0.21011 0.01784 0.18919 0.0
C371 C 0.14696 0.98552 0.13936 0.0
C372 C 0.13109 0.02689 0.15383 0.0
C373 C 0.14882 0.05793 0.19061 0.0
C374 C 0.1897 0.05455 0.20766 0.0
C375 C 0.11143 0.04409 0.12804 0.0
C376 C 0.13021 0.08685 0.13357 0.0
C377 C 0.0802 0.01656 0.09547 0.0
C378 C 0.05684 0.97249 0.08882 0.0
C379 C 0.03481 0.96951 0.11425 0.0
C380 C 0.01454 0.92755 0.10845 0.0
C381 C 0.01619 0.88829 0.07737 0.0
C382 C 0.03764 0.89099 0.05178 0.0
C383 C 0.05775 0.93288 0.0574 0.0
H384 H 1.00074 0.85582 0.07305 0.0
H385 H 0.17903 0.2724 0.1359 0.0
H386 H 0.98712 0.92309 0.52228 0.0
H387 H 0.03633 0.98547 0.52483 0.0
H388 H 0.06735 0.04302 0.64291 0.0
H389 H 0.02451 0.97804 0.63953 0.0
H390 H 0.05835 0.09683 0.58926 0.0
H391 H 0.09918 0.94522 0.57299 0.0
H392 H 0.13456 0.87995 0.54332 0.0
H393 H 0.24996 0.96517 0.55872 0.0
H394 H 0.21639 0.03232 0.58993 0.0
H395 H 0.14946 0.24122 0.68632 0.0
H396 H 0.15397 0.19527 0.71928 0.0
H397 H 0.23837 0.11889 0.65663 0.0
H398 H 0.2372 0.16552 0.62429 0.0
H399 H 0.18927 0.05826 0.64919 0.0
H400 H 0.07233 0.18356 0.62256 0.0
H401 H 0.0148 0.22476 0.6485 0.0
H402 H 0.02682 0.16928 0.72508 0.0
H403 H 0.08318 0.12649 0.69854 0.0
C404 C 0.00457 0.94973 0.54849 0.0
C405 C 0.00653 0.94487 0.58048 0.0
C406 C 0.03199 0.98509 0.54988 0.0
C407 C 0.0575 0.01641 0.58386 0.0
C408 C 0.04944 0.01739 0.61629 0.0
C409 C 0.02438 0.98095 0.61458 0.0
C410 C 0.09611 0.04537 0.58753 0.0
C411 C 0.08877 0.08997 0.6016 0.0
C412 C 0.13566 0.03541 0.60249 0.0
C413 C 0.15419 0.99426 0.58234 0.0
C414 C 0.1312 0.95065 0.56876 0.0
C415 C 0.15097 0.91304 0.55146 0.0
C416 C 0.19322 0.918 0.54708 0.0
C417 C 0.21685 0.9611 0.5615 0.0
C418 C 0.19757 0.99904 0.57918 0.0
C419 C 0.16916 0.21472 0.67956 0.0
C420 C 0.18784 0.20237 0.64933 0.0
C421 C 0.17235 0.18877 0.69856 0.0
C422 C 0.1845 0.14619 0.68071 0.0
C423 C 0.21926 0.14629 0.66375 0.0
C424 C 0.21769 0.17167 0.64429 0.0
C425 C 0.14788 0.1093 0.65513 0.0
C426 C 0.15945 0.06634 0.6372 0.0
C427 C 0.10918 0.11943 0.63789 0.0
C428 C 0.08215 0.15198 0.65853 0.0
C429 C 0.0628 0.18041 0.64497 0.0
C430 C 0.03007 0.20358 0.65951 0.0
C431 C 0.01705 0.1995 0.68833 0.0
C432 C 0.03703 0.17251 0.70281 0.0
C433 C 0.06938 0.14875 0.68798 0.0
H434 H 0.9917 0.21752 0.69963 0.0
H435 H 0.20805 0.88841 0.53361 0.0
H436 H 0.73165 0.16749 0.06354 0.0
H437 H 0.66874 0.15805 0.08829 0.0
H438 H 0.67024 0.01389 0.04075 0.0
H439 H 0.72963 0.02274 0.01522 0.0
H440 H 0.59366 0.02247 0.03458 0.0
H441 H 0.72134 0.0985 0.13789 0.0
H442 H 0.78006 0.16115 0.18096 0.0
H443 H 0.68625 0.25207 0.20744 0.0
H444 H 0.62707 0.19002 0.16444 0.0
H445 H 0.46906 0.96252 0.13851 0.0
H446 H 0.53161 0.97296 0.11384 0.0
H447 H 0.52903 0.11698 0.16223 0.0
H448 H 0.47032 0.10721 0.1885 0.0
H449 H 0.60564 0.10886 0.16765 0.0
H450 H 0.47766 0.03077 0.06351 0.0
H451 H 0.41993 0.96654 0.02125 0.0
H452 H 0.51591 0.87784 0.99707 0.0
H453 H 0.57408 0.94145 0.03924 0.0
C454 C 0.71721 0.1338 0.05728 0.0
C455 C 0.73549 0.0959 0.03691 0.0
C456 C 0.68186 0.12841 0.07204 0.0
C457 C 0.66497 0.08516 0.06695 0.0
C458 C 0.68206 0.04758 0.04506 0.0
C459 C 0.7164 0.05281 0.03019 0.0
C460 C 0.63089 0.07754 0.08495 0.0
C461 C 0.59648 0.04137 0.06378 0.0
C462 C 0.63397 0.10218 0.12294 0.0
C463 C 0.66986 0.13973 0.1477 0.0
C464 C 0.71332 0.13195 0.15266 0.0
C465 C 0.74667 0.16733 0.17713 0.0
C466 C 0.73691 0.21058 0.19686 0.0
C467 C 0.6938 0.21858 0.19212 0.0
C468 C 0.66035 0.18333 0.16773 0.0
C469 C 0.48311 0.9964 0.14489 0.0
C470 C 0.46466 0.03397 0.16554 0.0
C471 C 0.51824 1.00235 0.13015 0.0
C472 C 0.5346 0.04581 0.13536 0.0
C473 C 0.51744 0.08312 0.15765 0.0
C474 C 0.48347 0.07736 0.17276 0.0
C475 C 0.5684 0.05384 0.11728 0.0
C476 C 0.60275 0.09006 0.13843 0.0
C477 C 0.56541 0.02909 0.07931 0.0
C478 C 0.53014 0.99078 0.05471 0.0
C479 C 0.48637 0.99751 0.04934 0.0
C480 C 0.45359 0.96123 0.02535 0.0
C481 C 0.46425 0.91815 1.00653 0.0
C482 C 0.50768 0.91121 0.01167 0.0
C483 C 0.54055 0.94735 0.03556 0.0
H484 H 0.43887 0.89017 0.98791 0.0
H485 H 0.76274 0.23785 0.2159 0.0
H486 H 0.17529 0.46636 0.68334 0.0
H487 H 0.14373 0.52782 0.674 0.0
H488 H 0.15797 0.4663 0.56253 0.0
H489 H 0.18992 0.40597 0.57219 0.0
H490 H 0.17466 0.55389 0.58983 0.0
H491 H 0.04288 0.45036 0.58058 0.0
H492 H 0.99315 0.41447 0.60328 0.0
H493 H 0.01453 0.53709 0.70368 0.0
H494 H 0.06314 0.57396 0.68087 0.0
H495 H 0.0259 0.65754 0.5109 0.0
H496 H 0.05931 0.59761 0.52137 0.0
H497 H 0.03316 0.65255 0.62913 0.0
H498 H 0.99903 0.71059 0.61829 0.0
H499 H 0.0238 0.56944 0.60524 0.0
H500 H 0.14647 0.67646 0.61523 0.0
H501 H 0.19637 0.71763 0.59649 0.0
H502 H 0.19571 0.59492 0.50056 0.0
H503 H 0.14669 0.55304 0.51932 0.0
C504 C 0.17331 0.46739 0.65746 0.0
C505 C 0.18546 0.43225 0.62853 0.0
C506 C 0.15439 0.50174 0.65186 0.0
C507 C 0.14731 0.50084 0.61721 0.0
C508 C 0.16279 0.46753 0.58939 0.0
C509 C 0.18154 0.43342 0.59498 0.0
C510 C 0.12272 0.53323 0.60884 0.0
C511 C 0.14154 0.55711 0.59305 0.0
C512 C 0.08 0.5385 0.6137 0.0
C513 C 0.05704 0.51441 0.62942 0.0
C514 C 0.03748 0.46924 0.60773 0.0
C515 C 0.00902 0.44902 0.62038 0.0
C516 C 1.00061 0.47353 0.65489 0.0
C517 C 0.021 0.51816 0.67697 0.0
C518 C 0.04884 0.53876 0.66416 0.0
C519 C 0.02614 0.65567 0.53625 0.0
C520 C 0.01087 0.68911 0.56417 0.0
C521 C 0.04599 0.62209 0.54254 0.0
C522 C 0.05037 0.62166 0.57665 0.0
C523 C 0.03096 0.65242 0.60282 0.0
C524 C 0.01124 0.68557 0.59656 0.0
C525 C 0.07568 0.59031 0.58612 0.0
C526 C 0.05697 0.56648 0.60205 0.0
C527 C 0.1188 0.58578 0.58199 0.0
C528 C 0.14264 0.61196 0.5683 0.0
C529 C 0.15646 0.65858 0.58985 0.0
C530 C 0.18503 0.68184 0.5795 0.0
C531 C 0.19935 0.65883 0.54742 0.0
C532 C 0.1847 0.61267 0.52541 0.0
C533 C 0.15668 0.58916 0.53592 0.0
H534 H 0.22176 0.67675 0.53957 0.0
H535 H 0.97849 0.45783 0.66461 0.0
H536 H 0.25357 0.1955 0.54748 0.0
H537 H 0.28451 0.17299 0.49403 0.0
H538 H 0.25614 0.29484 0.48657 0.0
H539 H 0.22651 0.31838 0.54158 0.0
H540 H 0.22517 0.21702 0.4205 0.0
H541 H 0.36806 0.28197 0.50513 0.0
H542 H 0.43041 0.29449 0.55552 0.0
H543 H 0.42735 0.15093 0.51477 0.0
H544 H 0.36595 0.13775 0.46344 0.0
H545 H 0.31502 0.1325 0.26108 0.0
H546 H 0.29264 0.17847 0.31673 0.0
H547 H 0.35532 0.0998 0.36633 0.0
H548 H 0.3845 0.06095 0.31343 0.0
H549 H 0.37109 0.17183 0.41359 0.0
H550 H 0.22545 0.10163 0.33048 0.0
H551 H 0.1641 0.08615 0.27844 0.0
H552 H 0.16747 0.22865 0.31279 0.0
H553 H 0.22794 0.24498 0.36569 0.0
C554 C 0.2563 0.2188 0.53578 0.0
C555 C 0.23993 0.2599 0.54998 0.0
C556 C 0.27343 0.20558 0.50482 0.0
C557 C 0.27329 0.23242 0.4864 0.0
C558 C 0.25732 0.2739 0.50065 0.0
C559 C 0.24117 0.28777 0.53245 0.0
C560 C 0.28718 0.21504 0.4511 0.0
C561 C 0.25721 0.20734 0.41881 0.0
C562 C 0.32834 0.20133 0.44853 0.0
C563 C 0.3623 0.20899 0.48092 0.0
C564 C 0.38048 0.25316 0.50721 0.0
C565 C 0.41597 0.26033 0.5356 0.0
C566 C 0.43274 0.22352 0.53843 0.0
C567 C 0.41428 0.17941 0.51264 0.0
C568 C 0.37939 0.17209 0.48376 0.0
C569 C 0.32619 0.12707 0.28449 0.0
C570 C 0.35404 0.09497 0.28306 0.0
C571 C 0.31159 0.15211 0.3162 0.0
C572 C 0.3216 0.14302 0.34654 0.0
C573 C 0.34765 0.10909 0.34423 0.0
C574 C 0.36452 0.08651 0.31359 0.0
C575 C 0.30809 0.16972 0.38167 0.0
C576 C 0.33851 0.18024 0.4144 0.0
C577 C 0.26675 0.18436 0.38412 0.0
C578 C 0.23165 0.17444 0.35161 0.0
C579 C 0.21332 0.12961 0.32673 0.0
C580 C 0.17854 0.12073 0.29724 0.0
C581 C 0.16228 0.15637 0.29204 0.0
C582 C 0.1803 0.20106 0.31668 0.0
C583 C 0.2146 0.21015 0.34656 0.0
H584 H 0.13551 0.14936 0.26909 0.0
H585 H 0.46001 0.22921 0.56065 0.0
H586 H 0.06672 0.31212 0.67209 0.0
H587 H 0.02972 0.29667 0.71157 0.0
H588 H 0.15307 0.31315 0.78358 0.0
H589 H 0.19008 0.33315 0.74528 0.0
H590 H 0.10454 0.24093 0.77495 0.0
H591 H 0.07536 0.39308 0.80165 0.0
H592 H 0.0481 0.45255 0.78649 0.0
H593 H 0.92028 0.37402 0.73975 0.0
H594 H 0.94692 0.3138 0.75414 0.0
H595 H 0.01337 0.2439 0.9224 0.0
H596 H 0.0538 0.25494 0.88104 0.0
H597 H 0.93252 0.25189 0.81174 0.0
H598 H 0.89286 0.24308 0.85391 0.0
H599 H 0.98164 0.31663 0.81903 0.0
H600 H 0.00376 0.16684 0.79305 0.0
H601 H 0.02605 0.1029 0.80384 0.0
H602 H 0.15973 0.16562 0.83952 0.0
H603 H 0.13815 0.23111 0.83068 0.0
C604 C 0.08651 0.31333 0.69593 0.0
C605 C 0.13202 0.32439 0.70413 0.0
C606 C 0.06493 0.30415 0.71914 0.0
C607 C 0.08818 0.30334 0.75097 0.0
C608 C 0.1338 0.31335 0.75928 0.0
C609 C 0.15514 0.32491 0.73692 0.0
C610 C 0.0651 0.29185 0.77524 0.0
C611 C 0.07814 0.25803 0.78518 0.0
C612 C 0.0292 0.3125 0.78738 0.0
C613 C 0.01327 0.34878 0.77872 0.0
C614 C 0.04153 0.38837 0.78792 0.0
C615 C 0.02617 0.42221 0.77947 0.0
C616 C 0.98252 0.41702 0.76209 0.0
C617 C 0.9541 0.37798 0.75316 0.0
C618 C 0.96931 0.344 0.76148 0.0
C619 C 0.99545 0.24444 0.8978 0.0
C620 C 0.94988 0.24206 0.89115 0.0
C621 C 0.01857 0.25083 0.87407 0.0
C622 C 0.99655 0.25418 0.84276 0.0
C623 C 0.95075 0.24977 0.83555 0.0
C624 C 0.92788 0.24416 0.85948 0.0
C625 C 0.02069 0.26526 0.81878 0.0
C626 C 0.00802 0.29928 0.80901 0.0
C627 C 0.05603 0.24372 0.80598 0.0
C628 C 0.06913 0.20453 0.81187 0.0
C629 C 0.03785 0.16754 0.80387 0.0
C630 C 0.05037 0.13095 0.80965 0.0
C631 C 0.09425 0.13038 0.82264 0.0
C632 C 0.1257 0.16632 0.82977 0.0
C633 C 0.1133 0.20331 0.82455 0.0
H634 H 0.10392 0.10196 0.82698 0.0
H635 H 0.97071 0.44327 0.75559 0.0
H636 H 0.78877 0.82804 0.36409 0.0
H637 H 0.78918 0.86877 0.32738 0.0
H638 H 0.92891 0.87783 0.34507 0.0
H639 H 0.92873 0.83748 0.38269 0.0
H640 H 0.89921 0.95554 0.34441 0.0
H641 H 0.86371 0.79218 0.26645 0.0
H642 H 0.82104 0.71766 0.24738 0.0
H643 H 0.70284 0.76771 0.22352 0.0
H644 H 0.74481 0.84259 0.24261 0.0
H645 H 0.92767 0.97927 0.18858 0.0
H646 H 0.92546 0.9639 0.2406 0.0
H647 H 0.78529 0.93027 0.20478 0.0
H648 H 0.7881 0.94379 0.15177 0.0
H649 H 0.81289 0.86763 0.21665 0.0
H650 H 0.84139 0.02687 0.2896 0.0
H651 H 0.87732 0.10528 0.31267 0.0
H652 H 0.99902 0.06972 0.34962 0.0
H653 H 0.96388 0.99092 0.32652 0.0
C654 C 0.81969 0.83933 0.36067 0.0
C655 C 0.85864 0.82898 0.3758 0.0
C656 C 0.81987 0.8625 0.3396 0.0
C657 C 0.85892 0.87529 0.33268 0.0
C658 C 0.89834 0.86791 0.34983 0.0
C659 C 0.89823 0.84498 0.37136 0.0
C660 C 0.85784 0.89323 0.30547 0.0
C661 C 0.88082 0.93622 0.31634 0.0
C662 C 0.83243 0.86866 0.26921 0.0
C663 C 0.8074 0.82301 0.25606 0.0
C664 C 0.82863 0.78725 0.25708 0.0
C665 C 0.80456 0.74497 0.2463 0.0
C666 C 0.75925 0.73798 0.23428 0.0
C667 C 0.73794 0.77316 0.23278 0.0
C668 C 0.76186 0.81548 0.24346 0.0
C669 C 0.89637 0.97024 0.19273 0.0
C670 C 0.858 0.96342 0.16679 0.0
C671 C 0.89501 0.96141 0.22245 0.0
C672 C 0.85513 0.94621 0.22701 0.0
C673 C 0.81647 0.94195 0.20201 0.0
C674 C 0.81794 0.95025 0.17203 0.0
C675 C 0.85433 0.93037 0.25542 0.0
C676 C 0.83114 0.88743 0.24471 0.0
C677 C 0.87863 0.95555 0.29203 0.0
C678 C 0.90004 1.0029 0.30611 0.0
C679 C 0.87587 0.03569 0.30247 0.0
C680 C 0.89607 0.08022 0.3156 0.0
C681 C 0.94045 0.09242 0.33247 0.0
C682 C 0.96465 0.06018 0.33649 0.0
C683 C 0.94458 0.0156 0.32348 0.0
H684 H 0.95607 0.12682 0.34237 0.0
H685 H 0.74067 0.7053 0.22612 0.0
H686 H 0.15596 0.90986 0.80608 0.0
H687 H 0.17765 0.9234 0.8702 0.0
H688 H 0.23056 0.7983 0.83607 0.0
H689 H 0.20993 0.7853 0.77228 0.0
H690 H 0.16442 0.86271 0.90814 0.0
H691 H 0.31284 0.82344 0.86816 0.0
H692 H 0.35632 0.83019 0.8267 0.0
H693 H 0.33737 0.96893 0.86199 0.0
H694 H 0.2932 0.96246 0.90311 0.0
H695 H 0.25911 0.90236 0.08193 0.0
H696 H 0.24907 0.86059 0.01611 0.0
H697 H 0.32388 0.97413 0.01686 0.0
H698 H 0.34394 0.00921 0.08351 0.0
H699 H 0.32412 0.91063 0.95846 0.0
H700 H 0.19878 0.9579 0.01281 0.0
H701 H 0.16041 0.95475 0.05819 0.0
H702 H 0.1293 0.8101 0.99638 0.0
H703 H 0.1681 0.81256 0.9509 0.0
C704 C 0.17103 0.88471 0.8123 0.0
C705 C 0.18132 0.84657 0.78449 0.0
C706 C 0.18357 0.89252 0.84881 0.0
C707 C 0.20632 0.86217 0.85775 0.0
C708 C 0.21361 0.82239 0.82968 0.0
C709 C 0.20153 0.81483 0.79335 0.0
C710 C 0.22606 0.87399 0.89638 0.0
C711 C 0.1993 0.8729 0.91917 0.0
C712 C 0.27133 0.8878 0.91092 0.0
C713 C 0.3 0.89247 0.88838 0.0
C714 C 0.3183 0.85536 0.86709 0.0
C715 C 0.3428 0.85907 0.84359 0.0
C716 C 0.34957 0.89996 0.84168 0.0
C717 C 0.33205 0.93728 0.86343 0.0
C718 C 0.30724 0.93359 0.88676 0.0
C719 C 0.27697 0.91602 0.06844 0.0
C720 C 0.30367 0.95802 0.08823 0.0
C721 C 0.2693 0.89338 0.03034 0.0
C722 C 0.28278 0.91546 1.0109 0.0
C723 C 0.31202 0.95628 0.03071 0.0
C724 C 0.32326 0.97665 0.06899 0.0
C725 C 0.26267 0.89928 0.97107 0.0
C726 C 0.28925 0.90001 0.94781 0.0
C727 C 0.21691 0.88582 0.95625 0.0
C728 C 0.18661 0.88538 0.97898 0.0
C729 C 0.18297 0.9256 1.00865 0.0
C730 C 0.16163 0.92384 0.03456 0.0
C731 C 0.14308 0.88211 0.03049 0.0
C732 C 0.14406 0.84229 0.99965 0.0
C733 C 0.16558 0.84385 0.97374 0.0
H734 H 0.128 0.88057 0.05125 0.0
H735 H 0.3684 0.90272 0.82333 0.0
H736 H 0.90777 0.07201 0.9365 0.0
H737 H 0.9323 0.02681 0.88187 0.0
H738 H 0.81184 0.93415 0.83913 0.0
H739 H 0.78765 0.97925 0.89498 0.0
H740 H 0.88651 0.89054 0.8199 0.0
H741 H 0.82035 0.02123 0.8185 0.0
H742 H 0.81444 0.10233 0.84076 0.0
H743 H 0.94735 0.13094 0.83772 0.0
H744 H 0.95421 0.05004 0.8158 0.0
H745 H 0.92681 0.80418 0.63761 0.0
H746 H 0.89308 0.82787 0.69043 0.0
H747 H 0.96619 0.96216 0.73486 0.0
H748 H 0.98973 0.94177 0.67967 0.0
H749 H 0.9038 0.97895 0.7519 0.0
H750 H 0.98168 0.85851 0.7607 0.0
H751 H 0.99748 0.78064 0.74315 0.0
H752 H 0.86587 0.73681 0.74027 0.0
H753 H 0.84917 0.81423 0.7574 0.0
C754 C 0.88751 0.04065 0.91668 0.0
C755 C 0.84678 0.02791 0.92134 0.0
C756 C 0.90128 0.01517 0.88494 0.0
C757 C 0.87397 0.97698 0.85632 0.0
C758 C 0.8337 0.96319 0.86108 0.0
C759 C 0.81995 0.98886 0.89313 0.0
C760 C 0.88512 0.95539 0.82006 0.0
C761 C 0.89068 0.90963 0.80482 0.0
C762 C 0.89138 0.98063 0.80089 0.0
C763 C 0.8877 0.02955 0.8155 0.0
C764 C 0.84839 0.04484 0.82286 0.0
C765 C 0.84486 0.09074 0.83531 0.0
C766 C 0.88034 0.12161 0.84029 0.0
C767 C 0.91978 0.10687 0.83354 0.0
C768 C 0.92349 0.06102 0.8211 0.0
C769 C 0.93312 0.83931 0.65776 0.0
C770 C 0.95967 0.87135 0.65356 0.0
C771 C 0.91529 0.85263 0.68889 0.0
C772 C 0.92683 0.89725 0.71768 0.0
C773 C 0.9547 0.92809 0.71333 0.0
C774 C 0.96889 0.91605 0.68142 0.0
C775 C 0.91 0.91421 0.75206 0.0
C776 C 0.90175 0.95933 0.76686 0.0
C777 C 0.90428 0.88896 0.77166 0.0
C778 C 0.91402 0.84208 0.75987 0.0
C779 C 0.956 0.83217 0.75594 0.0
C780 C 0.96514 0.78812 0.74615 0.0
C781 C 0.93267 0.75378 0.74049 0.0
C782 C 0.89096 0.76339 0.74455 0.0
C783 C 0.88164 0.80732 0.75427 0.0
H784 H 0.93985 0.71977 0.73307 0.0
H785 H 0.87721 0.15694 0.84939 0.0
H786 H 0.29739 0.83221 0.32047 0.0
H787 H 0.2561 0.82339 0.36153 0.0
H788 H 0.16558 0.90553 0.33857 0.0
H789 H 0.20766 0.91509 0.29762 0.0
H790 H 0.17997 0.92708 0.40593 0.0
H791 H 0.13894 0.78369 0.30237 0.0
H792 H 0.14986 0.71313 0.25244 0.0
H793 H 0.22245 0.67612 0.3309 0.0
H794 H 0.21214 0.74668 0.38134 0.0
H795 H 0.02884 0.87714 0.49334 0.0
H796 H 0.06755 0.88606 0.45298 0.0
H797 H 0.14813 0.78928 0.4615 0.0
H798 H 0.10078 0.77239 0.49581 0.0
H799 H 0.13842 0.77713 0.39977 0.0
H800 H 0.21224 0.95071 0.48767 0.0
H801 H 0.21004 0.03101 0.5272 0.0
H802 H 0.07594 0.01508 0.47442 0.0
H803 H 0.07927 0.9365 0.4316 0.0
C804 C 0.26869 0.8485 0.32416 0.0
C805 C 0.25561 0.87392 0.30533 0.0
C806 C 0.24475 0.84299 0.34743 0.0
C807 C 0.20663 0.86234 0.35239 0.0
C808 C 0.19447 0.88956 0.33491 0.0
C809 C 0.21873 0.89536 0.31168 0.0
C810 C 0.18092 0.85592 0.37718 0.0
C811 C 0.17039 0.89417 0.40434 0.0
C812 C 0.16886 0.81317 0.37565 0.0
C813 C 0.17512 0.77064 0.34557 0.0
C814 C 0.15747 0.76063 0.30895 0.0
C815 C 0.16347 0.7206 0.28058 0.0
C816 C 0.18695 0.69022 0.2885 0.0
C817 C 0.2043 0.69971 0.32482 0.0
C818 C 0.1983 0.73967 0.35332 0.0
C819 C 0.05589 0.8589 0.48845 0.0
C820 C 0.06392 0.82709 0.50205 0.0
C821 C 0.07938 0.86529 0.46545 0.0
C822 C 0.11447 0.84245 0.45635 0.0
C823 C 0.12265 0.80954 0.46909 0.0
C824 C 0.09661 0.80084 0.49041 0.0
C825 C 0.13831 0.8489 0.43009 0.0
C826 C 0.14824 0.8103 0.40206 0.0
C827 C 0.14953 0.89168 0.43058 0.0
C828 C 0.14452 0.9361 0.45909 0.0
C829 C 0.18181 0.96391 0.48544 0.0
C830 C 0.18082 0.00956 0.50763 0.0
C831 C 0.14229 0.0276 0.50454 0.0
C832 C 0.10535 1.00066 0.47775 0.0
C833 C 0.10698 0.95567 0.45418 0.0
H834 H 0.14142 0.06274 0.52223 0.0
H835 H 0.19162 0.65929 0.26648 0.0
H836 H 0.26888 0.26046 0.80616 0.0
H837 H 0.27285 0.22221 0.84471 0.0
H838 H 0.40707 0.2843 0.89523 0.0
H839 H 0.40563 0.3163 0.85319 0.0
H840 H 0.40497 0.21078 0.89142 0.0
H841 H 0.30915 0.31918 0.92966 0.0
H842 H 0.24548 0.3583 0.92719 0.0
H843 H 0.16064 0.23902 0.90473 0.0
H844 H 0.22351 0.19826 0.90514 0.0
H845 H 0.40878 0.21899 0.06793 0.0
H846 H 0.41221 0.23046 0.01415 0.0
H847 H 0.30199 0.12505 0.95052 0.0
H848 H 0.29882 0.11327 1.00433 0.0
H849 H 0.28973 0.21228 0.95758 0.0
H850 H 0.39744 0.11051 0.92649 0.0
H851 H 0.46722 0.08249 0.93552 0.0
H852 H 0.53737 0.21104 0.9605 0.0
H853 H 0.46811 0.23997 0.95195 0.0
C854 C 0.29972 0.2651 0.82465 0.0
C855 C 0.33681 0.2925 0.82652 0.0
C856 C 0.30161 0.24382 0.84741 0.0
C857 C 0.33996 0.25112 0.87374 0.0
C858 C 0.37693 0.27795 0.87534 0.0
C859 C 0.37569 0.29735 0.85157 0.0
C860 C 0.34243 0.23089 0.89963 0.0
C861 C 0.37985 0.21183 0.90617 0.0
C862 C 0.30945 0.23138 0.91867 0.0
C863 C 0.27121 0.25531 0.91681 0.0
C864 C 0.27688 0.30089 0.92344 0.0
C865 C 0.24087 0.32336 0.92234 0.0
C866 C 0.199 0.30097 0.9154 0.0
C867 C 0.19305 0.25608 0.90958 0.0
C868 C 0.22886 0.2332 0.91005 0.0
C869 C 0.38657 0.19701 0.042 0.0
C870 C 0.35364 0.16521 0.03997 0.0
C871 C 0.3885 0.20358 0.01138 0.0
C872 C 0.35726 0.17862 0.97849 0.0
C873 C 0.32644 0.14442 0.9757 0.0
C874 C 0.32482 0.1375 1.00626 0.0
C875 C 0.3523 0.19327 0.94938 0.0
C876 C 0.31444 0.21131 0.94244 0.0
C877 C 0.38582 0.19421 0.93152 0.0
C878 C 0.42747 0.17746 0.93871 0.0
C879 C 0.42772 0.13299 0.93436 0.0
C880 C 0.46721 0.11689 0.93926 0.0
C881 C 0.50669 0.14496 0.94858 0.0
C882 C 0.50679 0.1893 0.95326 0.0
C883 C 0.46742 0.20554 0.94834 0.0
H884 H 0.53719 0.13233 0.95212 0.0
H885 H 0.17118 0.31849 0.91479 0.0
H886 H 0.97699 0.19138 0.1187 0.0
H887 H 0.99236 0.23416 0.18494 0.0
H888 H 0.85819 0.19767 0.1825 0.0
H889 H 0.84184 0.15882 0.11539 0.0
H890 H 0.8871 0.27186 0.24032 0.0
H891 H 0.9404 0.1329 0.19369 0.0
H892 H 0.97936 0.07239 0.15882 0.0
H893 H 0.10104 0.16194 0.2132 0.0
H894 H 0.06273 0.22336 0.24784 0.0
H895 H 0.93416 0.25182 0.40598 0.0
H896 H 0.91185 0.25334 0.34777 0.0
H897 H 0.04569 0.29521 0.35272 0.0
H898 H 0.06854 0.28977 0.41005 0.0
H899 H 0.01545 0.22348 0.29465 0.0
H900 H 0.95069 0.36226 0.34638 0.0
H901 H 0.90395 0.40883 0.38446 0.0
H902 H 0.79467 0.30279 0.32312 0.0
H903 H 0.8407 0.25582 0.28458 0.0
C904 C 0.95029 0.19459 0.13211 0.0
C905 C 0.90812 0.17269 0.11186 0.0
C906 C 0.95924 0.21828 0.17013 0.0
C907 C 0.92692 0.21766 0.189 0.0
C908 C 0.88388 0.19847 0.16874 0.0
C909 C 0.87447 0.17645 0.13035 0.0
C910 C 0.93944 0.2327 0.22925 0.0
C911 C 0.91521 0.26131 0.25219 0.0
C912 C 0.97568 0.21863 0.24512 0.0
C913 C 0.99865 0.18282 0.22292 0.0
C914 C 0.97537 0.1399 0.19775 0.0
C915 C 0.99731 0.10547 0.17811 0.0
C916 C 0.04249 0.1135 0.18376 0.0
C917 C 0.06596 0.15597 0.20877 0.0
C918 C 0.04417 0.19061 0.22836 0.0
C919 C 0.95875 0.26274 0.39524 0.0
C920 C 0.00315 0.26987 0.41225 0.0
C921 C 0.94581 0.26425 0.36198 0.0
C922 C 0.97684 0.27479 0.34559 0.0
C923 C 0.02097 0.28699 0.36472 0.0
C924 C 0.03408 0.28434 0.39772 0.0
C925 C 0.96456 0.26445 0.30619 0.0
C926 C 0.98834 0.23559 0.28311 0.0
C927 C 0.92698 0.2769 0.29035 0.0
C928 C 0.89913 0.30563 0.31276 0.0
C929 C 0.91669 0.34898 0.34107 0.0
C930 C 0.89031 0.37543 0.36267 0.0
C931 C 0.84639 0.35876 0.35625 0.0
C932 C 0.82865 0.31572 0.32801 0.0
C933 C 0.85479 0.28929 0.30616 0.0
H934 H 0.8261 0.3792 0.37314 0.0
H935 H 0.05917 0.08654 0.16903 0.0
loop_
_geom_bond_atom_site_label_1
_geom_bond_atom_site_label_2
_geom_bond_distance
_geom_bond_site_symmetry_2
_ccdc_geom_bond_type
Gd0 N31 2.661 . S
Gd0 N37 2.601 . S
Gd0 O44 2.545 . S
Gd0 O45 2.606 1_565 S
Gd0 O47 2.429 . S
Gd0 O48 2.545 1_565 S
Gd0 O49 2.412 . S
Gd0 O51 2.362 . S
Gd0 O52 2.324 . S
Gd0 C59 2.828 . S
Gd1 N10 2.661 . S
Gd1 N14 2.601 . S
Gd1 O45 2.362 . S
Gd1 O46 2.324 . S
Gd1 O50 2.545 . S
Gd1 O51 2.606 1_545 S
Gd1 O53 2.429 . S
Gd1 O54 2.545 . S
Gd1 O55 2.412 . S
Gd1 C68 2.828 . S
C2 C5 1.417 . S
C2 C7 1.431 . S
C2 C8 1.412 . S
C3 C6 1.437 . S
C3 C7 1.317 . S
C3 H22 0.929 . S
C4 C5 1.426 . S
C4 C6 1.413 . S
C4 N14 1.359 . S
C5 C2 1.417 . S
C5 C4 1.426 . S
C5 N10 1.350 . S
C6 C3 1.437 . S
C6 C4 1.413 . S
C6 C16 1.391 . S
C7 C2 1.431 . S
C7 C3 1.317 . S
C7 H18 0.930 . S
C8 C2 1.412 . S
C8 C9 1.355 . S
C8 H20 0.930 . S
C9 C8 1.355 . S
C9 C11 1.402 . S
C9 H21 0.930 . S
N10 Gd1 2.661 . S
N10 C5 1.350 . S
N10 C11 1.307 . S
C11 C9 1.402 . S
C11 N10 1.307 . S
C11 H12 0.930 . S
H12 C11 0.930 . S
C13 N14 1.334 . S
C13 C15 1.394 . S
C13 H17 0.930 . S
N14 Gd1 2.601 . S
N14 C4 1.359 . S
N14 C13 1.334 . S
C15 C13 1.394 . S
C15 C16 1.359 . S
C15 H27 0.930 . S
C16 C6 1.391 . S
C16 C15 1.359 . S
C16 H28 0.929 . S
H17 C13 0.930 . S
H18 C7 0.930 . S
H19 C36 0.930 . S
H20 C8 0.930 . S
H21 C9 0.930 . S
H22 C3 0.929 . S
H23 C41 0.930 . S
H24 C32 0.930 . S
H25 C33 0.930 . S
H26 C57 0.929 . S
H27 C15 0.930 . S
H28 C16 0.929 . S
H29 C58 0.922 1_556 S
H30 C39 0.930 . S
N31 Gd0 2.661 . S
N31 C35 1.350 . S
N31 C36 1.307 . S
C32 H24 0.930 . S
C32 C33 1.355 . S
C32 C34 1.412 . S
C33 H25 0.930 . S
C33 C32 1.355 . S
C33 C36 1.402 . S
C34 C32 1.412 . S
C34 C35 1.417 . S
C34 C58 1.431 . S
C35 N31 1.350 . S
C35 C34 1.417 . S
C35 C38 1.426 . S
C36 H19 0.930 . S
C36 N31 1.307 . S
C36 C33 1.402 . S
N37 Gd0 2.601 . S
N37 C38 1.359 . S
N37 C41 1.334 . S
C38 C35 1.426 . S
C38 N37 1.359 . S
C38 C42 1.413 . S
C39 H30 0.930 . S
C39 C40 1.359 . S
C39 C41 1.394 . S
C40 C39 1.359 . S
C40 C42 1.391 . S
C40 H43 0.929 . S
C41 H23 0.930 . S
C41 N37 1.334 . S
C41 C39 1.394 . S
C42 C38 1.413 . S
C42 C40 1.391 . S
C42 C57 1.437 . S
H43 C40 0.929 . S
O44 Gd0 2.545 . S
O44 C59 1.258 . S
O45 Gd0 2.606 1_545 S
O45 Gd1 2.362 . S
O45 C56 1.284 . S
O46 Gd1 2.324 . S
O46 C66 1.254 . S
O47 Gd0 2.429 . S
O47 C66 1.268 1_565 S
O48 Gd0 2.545 1_545 S
O48 C56 1.250 . S
O49 Gd0 2.412 . S
O49 C59 1.252 . S
O50 Gd1 2.545 . S
O50 C68 1.258 . S
O51 Gd0 2.362 . S
O51 Gd1 2.606 1_565 S
O51 C67 1.284 . S
O52 Gd0 2.324 . S
O52 C75 1.254 1_565 S
O53 Gd1 2.429 . S
O53 C75 1.268 . S
O54 Gd1 2.545 . S
O54 C67 1.250 1_545 S
O55 Gd1 2.412 . S
O55 C68 1.252 . S
C56 O45 1.284 . S
C56 O48 1.250 . S
C57 H26 0.929 . S
C57 C42 1.437 . S
C57 C58 1.317 . S
C58 H29 0.922 1_554 S
C58 C34 1.431 . S
C58 C57 1.317 . S
C59 Gd0 2.828 . S
C59 O44 1.258 . S
C59 O49 1.252 . S
C59 C60 1.497 . S
C60 C59 1.497 . S
C60 C61 1.395 . S
C60 C62 1.380 . S
C61 C60 1.395 . S
C61 C64 1.398 . S
C61 H76 0.930 . S
C62 C60 1.380 . S
C62 C63 1.391 . S
C62 H77 0.930 . S
C63 C62 1.391 . S
C63 C65 1.387 . S
C64 C61 1.398 . S
C64 C65 1.380 . S
C64 H78 0.930 . S
C65 C63 1.387 . S
C65 C64 1.380 . S
C65 H79 0.930 . S
C66 O46 1.254 . S
C66 O47 1.268 1_545 S
C67 O51 1.284 . S
C67 O54 1.250 1_565 S
C68 Gd1 2.828 . S
C68 O50 1.258 . S
C68 O55 1.252 . S
C68 C69 1.497 . S
C69 C68 1.497 . S
C69 C70 1.395 . S
C69 C71 1.380 . S
C70 C69 1.395 . S
C70 C73 1.398 . S
C70 H80 0.930 . S
C71 C69 1.380 . S
C71 C72 1.391 . S
C71 H81 0.930 . S
C72 C71 1.391 . S
C72 C74 1.387 . S
C73 C70 1.398 . S
C73 C74 1.380 . S
C73 H82 0.930 . S
C74 C72 1.387 . S
C74 C73 1.380 . S
C74 H83 0.930 . S
C75 O52 1.254 1_545 S
C75 O53 1.268 . S
H76 C61 0.930 . S
H77 C62 0.930 . S
H78 C64 0.930 . S
H79 C65 0.930 . S
H80 C70 0.930 . S
H81 C71 0.930 . S
H82 C73 0.930 . S
H83 C74 0.930 . S
Gd84 N115 2.661 . S
Gd84 N121 2.601 . S
Gd84 O128 2.545 . S
Gd84 O129 2.606 . S
Gd84 O131 2.429 . S
Gd84 O132 2.545 . S
Gd84 O133 2.412 . S
Gd84 O135 2.362 . S
Gd84 O136 2.324 . S
Gd84 C143 2.828 . S
Gd85 N94 2.661 . S
Gd85 N98 2.601 . S
Gd85 O129 2.362 . S
Gd85 O130 2.324 . S
Gd85 O134 2.545 . S
Gd85 O135 2.606 . S
Gd85 O137 2.429 . S
Gd85 O138 2.545 . S
Gd85 O139 2.412 . S
Gd85 C152 2.828 . S
C86 C89 1.417 1_655 S
C86 C91 1.431 . S
C86 C92 1.412 . S
C87 C90 1.437 . S
C87 C91 1.317 . S
C87 H106 0.929 . S
C88 C89 1.426 . S
C88 C90 1.413 1_455 S
C88 N98 1.359 . S
C89 C86 1.417 1_455 S
C89 C88 1.426 . S
C89 N94 1.350 . S
C90 C87 1.437 . S
C90 C88 1.413 1_655 S
C90 C100 1.391 . S
C91 C86 1.431 . S
C91 C87 1.317 . S
C91 H102 0.930 . S
C92 C86 1.412 . S
C92 C93 1.355 1_655 S
C92 H104 0.930 . S
C93 C92 1.355 1_455 S
C93 C95 1.402 . S
C93 H105 0.930 . S
N94 Gd85 2.661 . S
N94 C89 1.350 . S
N94 C95 1.307 . S
C95 C93 1.402 . S
C95 N94 1.307 . S
C95 H96 0.930 . S
H96 C95 0.930 . S
C97 N98 1.334 . S
C97 C99 1.394 . S
C97 H101 0.930 . S
N98 Gd85 2.601 . S
N98 C88 1.359 . S
N98 C97 1.334 . S
C99 C97 1.394 . S
C99 C100 1.359 1_455 S
C99 H111 0.930 . S
C100 C90 1.391 . S
C100 C99 1.359 1_655 S
C100 H112 0.929 . S
H101 C97 0.930 . S
H102 C91 0.930 . S
H103 C120 0.930 . S
H104 C92 0.930 . S
H105 C93 0.930 . S
H106 C87 0.929 . S
H107 C125 0.930 . S
H108 C116 0.930 . S
H109 C117 0.930 . S
H110 C141 0.929 . S
H111 C99 0.930 . S
H112 C100 0.929 . S
H113 C142 0.930 . S
H114 C123 0.930 . S
N115 Gd84 2.661 . S
N115 C119 1.350 . S
N115 C120 1.307 . S
C116 H108 0.930 . S
C116 C117 1.355 . S
C116 C118 1.412 . S
C117 H109 0.930 . S
C117 C116 1.355 . S
C117 C120 1.402 . S
C118 C116 1.412 . S
C118 C119 1.417 . S
C118 C142 1.431 . S
C119 N115 1.350 . S
C119 C118 1.417 . S
C119 C122 1.426 . S
C120 H103 0.930 . S
C120 N115 1.307 . S
C120 C117 1.402 . S
N121 Gd84 2.601 . S
N121 C122 1.359 . S
N121 C125 1.334 . S
C122 C119 1.426 . S
C122 N121 1.359 . S
C122 C126 1.413 . S
C123 H114 0.930 . S
C123 C124 1.359 . S
C123 C125 1.394 . S
C124 C123 1.359 . S
C124 C126 1.391 . S
C124 H127 0.929 . S
C125 H107 0.930 . S
C125 N121 1.334 . S
C125 C123 1.394 . S
C126 C122 1.413 . S
C126 C124 1.391 . S
C126 C141 1.437 . S
H127 C124 0.929 . S
O128 Gd84 2.545 . S
O128 C143 1.258 . S
O129 Gd84 2.606 . S
O129 Gd85 2.362 . S
O129 C140 1.284 . S
O130 Gd85 2.324 . S
O130 C150 1.254 . S
O131 Gd84 2.429 . S
O131 C150 1.268 . S
O132 Gd84 2.545 . S
O132 C140 1.250 . S
O133 Gd84 2.412 . S
O133 C143 1.252 . S
O134 Gd85 2.545 . S
O134 C152 1.258 . S
O135 Gd84 2.362 . S
O135 Gd85 2.606 . S
O135 C151 1.284 . S
O136 Gd84 2.324 . S
O136 C159 1.254 . S
O137 Gd85 2.429 . S
O137 C159 1.268 . S
O138 Gd85 2.545 . S
O138 C151 1.250 . S
O139 Gd85 2.412 . S
O139 C152 1.252 . S
C140 O129 1.284 . S
C140 O132 1.250 . S
C141 H110 0.929 . S
C141 C126 1.437 . S
C141 C142 1.317 . S
C142 H113 0.930 . S
C142 C118 1.431 . S
C142 C141 1.317 . S
C143 Gd84 2.828 . S
C143 O128 1.258 . S
C143 O133 1.252 . S
C143 C144 1.497 . S
C144 C143 1.497 . S
C144 C145 1.395 . S
C144 C146 1.380 . S
C145 C144 1.395 . S
C145 C148 1.398 . S
C145 H160 0.930 . S
C146 C144 1.380 . S
C146 C147 1.391 . S
C146 H161 0.930 . S
C147 C146 1.391 . S
C147 C149 1.387 . S
C148 C145 1.398 . S
C148 C149 1.380 . S
C148 H162 0.930 . S
C149 C147 1.387 . S
C149 C148 1.380 . S
C149 H163 0.930 . S
C150 O130 1.254 . S
C150 O131 1.268 . S
C151 O135 1.284 . S
C151 O138 1.250 . S
C152 Gd85 2.828 . S
C152 O134 1.258 . S
C152 O139 1.252 . S
C152 C153 1.497 . S
C153 C152 1.497 . S
C153 C154 1.395 . S
C153 C155 1.380 . S
C154 C153 1.395 . S
C154 C157 1.392 1_455 S
C154 H164 0.930 . S
C155 C153 1.380 . S
C155 C156 1.391 . S
C155 H165 0.930 . S
C156 C155 1.391 . S
C156 C158 1.387 . S
C157 C154 1.392 1_655 S
C157 C158 1.376 1_655 S
C157 H166 0.940 . S
C158 C156 1.387 . S
C158 C157 1.376 1_455 S
C158 H167 0.930 1_455 S
C159 O136 1.254 . S
C159 O137 1.268 . S
H160 C145 0.930 . S
H161 C146 0.930 . S
H162 C148 0.930 . S
H163 C149 0.930 . S
H164 C154 0.930 . S
H165 C155 0.930 . S
H166 C157 0.940 . S
H167 C158 0.930 1_655 S
Gd168 N199 2.661 1_544 S
Gd168 N205 2.601 1_545 S
Gd168 O212 2.545 . S
Gd168 O213 2.606 . S
Gd168 O215 2.429 . S
Gd168 O216 2.545 . S
Gd168 O217 2.412 . S
Gd168 O219 2.362 . S
Gd168 O220 2.324 . S
Gd168 C227 2.828 1_545 S
Gd169 N178 2.661 . S
Gd169 N182 2.601 . S
Gd169 O213 2.362 . S
Gd169 O214 2.324 . S
Gd169 O218 2.517 1_554 S
Gd169 O219 2.606 . S
Gd169 O221 2.429 . S
Gd169 O222 2.545 1_554 S
Gd169 O223 2.412 . S
Gd169 C236 2.828 1_554 S
C170 C173 1.417 . S
C170 C175 1.431 . S
C170 C176 1.412 . S
C171 C174 1.437 . S
C171 C175 1.317 . S
C171 H190 0.929 . S
C172 C173 1.426 . S
C172 C174 1.413 . S
C172 N182 1.359 . S
C173 C170 1.417 . S
C173 C172 1.426 . S
C173 N178 1.350 . S
C174 C171 1.437 . S
C174 C172 1.413 . S
C174 C184 1.391 . S
C175 C170 1.431 . S
C175 C171 1.317 . S
C175 H186 0.930 . S
C176 C170 1.412 . S
C176 C177 1.355 . S
C176 H188 0.930 . S
C177 C176 1.355 . S
C177 C179 1.402 . S
C177 H189 0.930 1_655 S
N178 Gd169 2.661 . S
N178 C173 1.350 . S
N178 C179 1.307 . S
C179 C177 1.402 . S
C179 N178 1.307 . S
C179 H180 0.930 . S
H180 C179 0.930 . S
C181 N182 1.334 . S
C181 C183 1.394 . S
C181 H185 0.930 . S
N182 Gd169 2.601 . S
N182 C172 1.359 . S
N182 C181 1.334 . S
C183 C181 1.394 . S
C183 C184 1.359 . S
C183 H195 0.930 . S
C184 C174 1.391 . S
C184 C183 1.359 . S
C184 H196 0.929 . S
H185 C181 0.930 . S
H186 C175 0.930 . S
H187 C204 0.930 1_545 S
H188 C176 0.930 . S
H189 C177 0.930 1_455 S
H190 C171 0.929 . S
H191 C209 0.930 . S
H192 C200 0.930 . S
H193 C201 0.930 . S
H194 C225 0.929 . S
H195 C183 0.930 . S
H196 C184 0.929 . S
H197 C226 0.930 . S
H198 C207 0.930 . S
N199 Gd168 2.661 1_566 S
N199 C203 1.350 . S
N199 C204 1.307 . S
C200 H192 0.930 . S
C200 C201 1.355 . S
C200 C202 1.412 . S
C201 H193 0.930 . S
C201 C200 1.355 . S
C201 C204 1.402 . S
C202 C200 1.412 . S
C202 C203 1.417 . S
C202 C226 1.431 . S
C203 N199 1.350 . S
C203 C202 1.417 . S
C203 C206 1.426 . S
C204 H187 0.930 1_565 S
C204 N199 1.307 . S
C204 C201 1.402 . S
N205 Gd168 2.601 1_565 S
N205 C206 1.359 1_554 S
N205 C209 1.334 . S
C206 C203 1.426 . S
C206 N205 1.359 1_556 S
C206 C210 1.413 . S
C207 H198 0.930 . S
C207 C208 1.359 1_554 S
C207 C209 1.394 . S
C208 C207 1.359 1_556 S
C208 C210 1.391 . S
C208 H211 0.929 . S
C209 H191 0.930 . S
C209 N205 1.334 . S
C209 C207 1.394 . S
C210 C206 1.413 . S
C210 C208 1.391 . S
C210 C225 1.437 . S
H211 C208 0.929 . S
O212 Gd168 2.545 . S
O212 C227 1.258 1_545 S
O213 Gd168 2.606 . S
O213 Gd169 2.362 . S
O213 C224 1.284 . S
O214 Gd169 2.324 . S
O214 C234 1.254 . S
O215 Gd168 2.429 . S
O215 C234 1.268 . S
O216 Gd168 2.545 . S
O216 C224 1.250 . S
O217 Gd168 2.412 . S
O217 C227 1.252 1_545 S
O218 Gd169 2.517 1_556 S
O218 C236 1.272 . S
O219 Gd168 2.362 . S
O219 Gd169 2.606 . S
O219 C235 1.284 1_554 S
O220 Gd168 2.324 . S
O220 C243 1.254 . S
O221 Gd169 2.429 . S
O221 C243 1.268 . S
O222 Gd169 2.545 1_556 S
O222 C235 1.250 . S
O223 Gd169 2.412 . S
O223 C236 1.252 1_554 S
C224 O213 1.284 . S
C224 O216 1.250 . S
C225 H194 0.929 . S
C225 C210 1.437 . S
C225 C226 1.317 . S
C226 H197 0.930 . S
C226 C202 1.431 . S
C226 C225 1.317 . S
C227 Gd168 2.828 1_565 S
C227 O212 1.258 1_565 S
C227 O217 1.252 1_565 S
C227 C228 1.497 . S
C228 C227 1.497 . S
C228 C229 1.395 . S
C228 C230 1.380 . S
C229 C228 1.395 . S
C229 C232 1.398 . S
C229 H244 0.930 . S
C230 C228 1.380 . S
C230 C231 1.391 . S
C230 H245 0.950 . S
C231 C230 1.391 . S
C231 C233 1.387 . S
C232 C229 1.398 . S
C232 C233 1.380 . S
C232 H246 0.930 . S
C233 C231 1.387 . S
C233 C232 1.380 . S
C233 H247 0.930 . S
C234 O214 1.254 . S
C234 O215 1.268 . S
C235 O219 1.284 1_556 S
C235 O222 1.250 . S
C236 Gd169 2.828 1_556 S
C236 O218 1.272 . S
C236 O223 1.252 1_556 S
C236 C237 1.497 . S
C237 C236 1.497 . S
C237 C238 1.395 . S
C237 C239 1.380 . S
C238 C237 1.395 . S
C238 C241 1.398 . S
C238 H248 0.930 . S
C239 C237 1.380 . S
C239 C240 1.391 . S
C239 H249 0.930 . S
C240 C239 1.391 . S
C240 C242 1.387 . S
C241 C238 1.398 . S
C241 C242 1.380 . S
C241 H250 0.930 . S
C242 C240 1.387 . S
C242 C241 1.380 . S
C242 H251 0.930 . S
C243 O220 1.254 . S
C243 O221 1.268 . S
H244 C229 0.930 . S
H245 C230 0.950 . S
H246 C232 0.930 . S
H247 C233 0.930 . S
H248 C238 0.930 . S
H249 C239 0.930 . S
H250 C241 0.930 . S
H251 C242 0.930 . S
Gd252 N283 2.661 . S
Gd252 N289 2.601 . S
Gd252 O296 2.545 . S
Gd252 O297 2.606 1_455 S
Gd252 O299 2.429 . S
Gd252 O300 2.545 . S
Gd252 O301 2.412 . S
Gd252 O303 2.362 . S
Gd252 O304 2.324 . S
Gd252 C311 2.828 . S
Gd253 N262 2.661 . S
Gd253 N266 2.601 . S
Gd253 O297 2.362 . S
Gd253 O298 2.324 . S
Gd253 O302 2.545 . S
Gd253 O303 2.606 1_655 S
Gd253 O305 2.429 . S
Gd253 O306 2.545 1_655 S
Gd253 O307 2.412 . S
Gd253 C320 2.828 . S
C254 C257 1.417 . S
C254 C259 1.431 . S
C254 C260 1.412 . S
C255 C258 1.437 . S
C255 C259 1.317 . S
C255 H274 0.929 . S
C256 C257 1.426 . S
C256 C258 1.413 . S
C256 N266 1.359 . S
C257 C254 1.417 . S
C257 C256 1.426 . S
C257 N262 1.350 . S
C258 C255 1.437 . S
C258 C256 1.413 . S
C258 C268 1.391 . S
C259 C254 1.431 . S
C259 C255 1.317 . S
C259 H270 0.930 . S
C260 C254 1.412 . S
C260 C261 1.355 . S
C260 H272 0.930 . S
C261 C260 1.355 . S
C261 C263 1.402 . S
C261 H273 0.930 . S
N262 Gd253 2.661 . S
N262 C257 1.350 . S
N262 C263 1.307 . S
C263 C261 1.402 . S
C263 N262 1.307 . S
C263 H264 0.930 . S
H264 C263 0.930 . S
C265 N266 1.334 . S
C265 C267 1.394 . S
C265 H269 0.930 . S
N266 Gd253 2.601 . S
N266 C256 1.359 . S
N266 C265 1.334 . S
C267 C265 1.394 . S
C267 C268 1.359 . S
C267 H279 0.930 . S
C268 C258 1.391 . S
C268 C267 1.359 . S
C268 H280 0.929 . S
H269 C265 0.930 . S
H270 C259 0.930 . S
H271 C288 0.930 . S
H272 C260 0.930 . S
H273 C261 0.930 . S
H274 C255 0.929 . S
H275 C293 0.930 . S
H276 C284 0.930 . S
H277 C285 0.930 . S
H278 C309 0.929 . S
H279 C267 0.930 . S
H280 C268 0.929 . S
H281 C310 0.930 . S
H282 C291 0.930 . S
N283 Gd252 2.661 . S
N283 C287 1.350 . S
N283 C288 1.307 . S
C284 H276 0.930 . S
C284 C285 1.355 . S
C284 C286 1.412 . S
C285 H277 0.930 . S
C285 C284 1.355 . S
C285 C288 1.402 . S
C286 C284 1.412 . S
C286 C287 1.417 . S
C286 C310 1.431 . S
C287 N283 1.350 . S
C287 C286 1.417 . S
C287 C290 1.426 . S
C288 H271 0.930 . S
C288 N283 1.307 . S
C288 C285 1.402 . S
N289 Gd252 2.601 . S
N289 C290 1.359 . S
N289 C293 1.334 . S
C290 C287 1.426 . S
C290 N289 1.359 . S
C290 C294 1.413 . S
C291 H282 0.930 . S
C291 C292 1.359 . S
C291 C293 1.394 . S
C292 C291 1.359 . S
C292 C294 1.391 . S
C292 H295 0.929 . S
C293 H275 0.930 . S
C293 N289 1.334 . S
C293 C291 1.394 . S
C294 C290 1.413 . S
C294 C292 1.391 . S
C294 C309 1.437 . S
H295 C292 0.929 . S
O296 Gd252 2.545 . S
O296 C311 1.258 . S
O297 Gd252 2.606 1_655 S
O297 Gd253 2.362 . S
O297 C308 1.284 . S
O298 Gd253 2.324 . S
O298 C318 1.254 1_655 S
O299 Gd252 2.429 . S
O299 C318 1.268 . S
O300 Gd252 2.545 . S
O300 C308 1.250 1_455 S
O301 Gd252 2.412 . S
O301 C311 1.252 . S
O302 Gd253 2.545 . S
O302 C320 1.258 . S
O303 Gd252 2.362 . S
O303 Gd253 2.606 1_455 S
O303 C319 1.284 . S
O304 Gd252 2.324 . S
O304 C327 1.254 . S
O305 Gd253 2.429 . S
O305 C327 1.268 1_655 S
O306 Gd253 2.545 1_455 S
O306 C319 1.250 . S
O307 Gd253 2.412 . S
O307 C320 1.252 . S
C308 O297 1.284 . S
C308 O300 1.250 1_655 S
C309 H278 0.929 . S
C309 C294 1.437 . S
C309 C310 1.317 . S
C310 H281 0.930 . S
C310 C286 1.431 . S
C310 C309 1.317 . S
C311 Gd252 2.828 . S
C311 O296 1.258 . S
C311 O301 1.252 . S
C311 C312 1.497 . S
C312 C311 1.497 . S
C312 C313 1.395 . S
C312 C314 1.380 . S
C313 C312 1.395 . S
C313 C316 1.398 . S
C313 H328 0.930 . S
C314 C312 1.380 . S
C314 C315 1.391 . S
C314 H329 0.930 . S
C315 C314 1.391 . S
C315 C317 1.387 . S
C316 C313 1.398 . S
C316 C317 1.380 . S
C316 H330 0.930 . S
C317 C315 1.387 . S
C317 C316 1.380 . S
C317 H331 0.930 . S
C318 O298 1.254 1_455 S
C318 O299 1.268 . S
C319 O303 1.284 . S
C319 O306 1.250 . S
C320 Gd253 2.828 . S
C320 O302 1.258 . S
C320 O307 1.252 . S
C320 C321 1.497 . S
C321 C320 1.497 . S
C321 C322 1.395 . S
C321 C323 1.380 . S
C322 C321 1.395 . S
C322 C325 1.398 . S
C322 H332 0.930 . S
C323 C321 1.380 . S
C323 C324 1.391 . S
C323 H333 0.930 . S
C324 C323 1.391 . S
C324 C326 1.387 . S
C325 C322 1.398 . S
C325 C326 1.380 . S
C325 H334 0.930 . S
C326 C324 1.387 . S
C326 C325 1.380 . S
C326 H335 0.930 . S
C327 O304 1.254 . S
C327 O305 1.268 1_455 S
H328 C313 0.930 . S
H329 C314 0.930 . S
H330 C316 0.930 . S
H331 C317 0.930 . S
H332 C322 0.930 . S
H333 C323 0.930 . S
H334 C325 0.930 . S
H335 C326 0.930 . S
H336 C354 0.951 . S
H337 C356 0.952 . S
H338 C358 0.950 . S
H339 C359 0.950 1_556 S
H340 C361 0.950 . S
H341 C364 0.950 . S
H342 C365 0.950 . S
H343 C367 0.950 . S
H344 C368 0.950 . S
H345 C369 0.951 . S
H346 C371 0.951 1_565 S
H347 C373 0.950 . S
H348 C374 0.950 . S
H349 C376 0.950 . S
H350 C379 0.950 . S
H351 C380 0.950 . S
H352 C382 0.950 . S
H353 C383 0.950 . S
C354 H336 0.951 . S
C354 C355 1.366 . S
C354 C356 1.375 1_655 S
C355 C354 1.366 . S
C355 C359 1.385 . S
C356 H337 0.952 . S
C356 C354 1.375 1_455 S
C356 C357 1.377 . S
C357 C356 1.377 . S
C357 C358 1.414 . S
C357 C360 1.499 . S
C358 H338 0.950 . S
C358 C357 1.414 . S
C358 C359 1.374 1_455 S
C359 H339 0.950 1_554 S
C359 C355 1.385 . S
C359 C358 1.374 1_655 S
C360 C357 1.499 . S
C360 C361 1.373 . S
C360 C362 1.389 . S
C361 H340 0.950 . S
C361 C360 1.373 . S
C361 C377 1.377 . S
C362 C360 1.389 . S
C362 C363 1.524 . S
C362 C376 1.377 . S
C363 C362 1.524 . S
C363 C364 1.397 . S
C363 C368 1.363 . S
C364 H341 0.950 . S
C364 C363 1.397 . S
C364 C365 1.334 . S
C365 H342 0.950 . S
C365 C364 1.334 . S
C365 C366 1.287 . S
C366 C365 1.287 . S
C366 C367 1.524 . S
C366 H385 0.913 . S
C367 H343 0.950 . S
C367 C366 1.524 . S
C367 C368 1.415 . S
C368 H344 0.950 . S
C368 C363 1.363 . S
C368 C367 1.415 . S
C369 H345 0.951 . S
C369 C370 1.366 1_565 S
C369 C371 1.377 1_565 S
C370 C369 1.366 1_545 S
C370 C374 1.385 . S
C371 H346 0.951 1_545 S
C371 C369 1.377 1_545 S
C371 C372 1.376 . S
C372 C371 1.376 . S
C372 C373 1.414 . S
C372 C375 1.499 . S
C373 H347 0.950 . S
C373 C372 1.414 . S
C373 C374 1.374 . S
C374 H348 0.950 . S
C374 C370 1.385 . S
C374 C373 1.374 . S
C375 C372 1.499 . S
C375 C376 1.373 . S
C375 C377 1.389 . S
C376 H349 0.950 . S
C376 C362 1.377 . S
C376 C375 1.373 . S
C377 C361 1.377 . S
C377 C375 1.389 . S
C377 C378 1.524 1_545 S
C378 C377 1.524 1_565 S
C378 C379 1.397 . S
C378 C383 1.363 . S
C379 H350 0.950 . S
C379 C378 1.397 . S
C379 C380 1.334 . S
C380 H351 0.950 . S
C380 C379 1.334 . S
C380 C381 1.287 . S
C381 C380 1.287 . S
C381 C382 1.524 . S
C381 H384 0.999 . S
C382 H352 0.950 . S
C382 C381 1.524 . S
C382 C383 1.415 . S
C383 H353 0.950 . S
C383 C378 1.363 . S
C383 C382 1.415 . S
H384 C381 0.999 . S
H385 C366 0.913 . S
H386 C404 0.951 . S
H387 C406 0.951 . S
H388 C408 0.950 . S
H389 C409 0.950 . S
H390 C411 0.950 . S
H391 C414 0.950 . S
H392 C415 0.950 . S
H393 C417 0.950 . S
H394 C418 0.950 . S
H395 C419 0.951 . S
H396 C421 0.951 . S
H397 C423 0.950 . S
H398 C424 0.950 . S
H399 C426 0.950 . S
H400 C429 0.950 . S
H401 C430 0.950 . S
H402 C432 0.950 1_655 S
H403 C433 0.950 . S
C404 H386 0.951 . S
C404 C405 1.366 . S
C404 C406 1.388 . S
C405 C404 1.366 . S
C405 C409 1.385 . S
C406 H387 0.951 . S
C406 C404 1.388 . S
C406 C407 1.366 . S
C407 C406 1.366 . S
C407 C408 1.414 . S
C407 C410 1.499 1_565 S
C408 H388 0.950 . S
C408 C407 1.414 . S
C408 C409 1.374 . S
C409 H389 0.950 . S
C409 C405 1.385 . S
C409 C408 1.374 . S
C410 C407 1.499 1_545 S
C410 C411 1.373 . S
C410 C412 1.389 . S
C411 H390 0.950 . S
C411 C410 1.373 . S
C411 C427 1.377 . S
C412 C410 1.389 . S
C412 C413 1.524 1_545 S
C412 C426 1.377 . S
C413 C412 1.524 1_565 S
C413 C414 1.397 . S
C413 C418 1.363 . S
C414 H391 0.950 . S
C414 C413 1.397 . S
C414 C415 1.334 . S
C415 H392 0.950 . S
C415 C414 1.334 . S
C415 C416 1.287 . S
C416 C415 1.287 . S
C416 C417 1.524 . S
C416 H435 0.913 . S
C417 H393 0.950 . S
C417 C416 1.524 . S
C417 C418 1.415 . S
C418 H394 0.950 . S
C418 C413 1.363 . S
C418 C417 1.415 . S
C419 H395 0.951 . S
C419 C420 1.366 . S
C419 C421 1.388 . S
C420 C419 1.366 . S
C420 C424 1.385 . S
C421 H396 0.951 . S
C421 C419 1.388 . S
C421 C422 1.366 . S
C422 C421 1.366 . S
C422 C423 1.414 . S
C422 C425 1.499 . S
C423 H397 0.950 . S
C423 C422 1.414 . S
C423 C424 1.374 . S
C424 H398 0.950 . S
C424 C420 1.385 . S
C424 C423 1.374 . S
C425 C422 1.499 . S
C425 C426 1.373 . S
C425 C427 1.389 . S
C426 H399 0.950 . S
C426 C412 1.377 . S
C426 C425 1.373 . S
C427 C411 1.377 . S
C427 C425 1.389 . S
C427 C428 1.524 . S
C428 C427 1.524 . S
C428 C429 1.397 . S
C428 C433 1.363 . S
C429 H400 0.950 . S
C429 C428 1.397 . S
C429 C430 1.334 . S
C430 H401 0.950 . S
C430 C429 1.334 . S
C430 C431 1.287 1_455 S
C431 C430 1.287 1_655 S
C431 C432 1.524 1_655 S
C431 H434 0.999 . S
C432 H402 0.950 1_455 S
C432 C431 1.524 1_455 S
C432 C433 1.415 . S
C433 H403 0.950 . S
C433 C428 1.363 . S
C433 C432 1.415 . S
H434 C431 0.999 . S
H435 C416 0.913 . S
H436 C454 0.951 . S
H437 C456 0.951 . S
H438 C458 0.950 . S
H439 C459 0.950 . S
H440 C461 0.950 . S
H441 C464 0.950 . S
H442 C465 0.950 . S
H443 C467 0.950 . S
H444 C468 0.950 . S
H445 C469 0.951 . S
H446 C471 0.951 . S
H447 C473 0.950 . S
H448 C474 0.950 . S
H449 C476 0.950 . S
H450 C479 0.950 1_545 S
H451 C480 0.950 . S
H452 C482 0.950 . S
H453 C483 0.950 . S
C454 H436 0.951 . S
C454 C455 1.366 . S
C454 C456 1.388 . S
C455 C454 1.366 . S
C455 C459 1.385 . S
C456 H437 0.951 . S
C456 C454 1.388 . S
C456 C457 1.366 . S
C457 C456 1.366 . S
C457 C458 1.414 . S
C457 C460 1.499 . S
C458 H438 0.950 . S
C458 C457 1.414 . S
C458 C459 1.374 . S
C459 H439 0.950 . S
C459 C455 1.385 . S
C459 C458 1.374 . S
C460 C457 1.499 . S
C460 C461 1.373 . S
C460 C462 1.389 . S
C461 H440 0.950 . S
C461 C460 1.373 . S
C461 C477 1.377 . S
C462 C460 1.389 . S
C462 C463 1.524 . S
C462 C476 1.377 . S
C463 C462 1.524 . S
C463 C464 1.397 . S
C463 C468 1.363 . S
C464 H441 0.950 . S
C464 C463 1.397 . S
C464 C465 1.334 . S
C465 H442 0.950 . S
C465 C464 1.334 . S
C465 C466 1.287 . S
C466 C465 1.287 . S
C466 C467 1.524 . S
C466 H485 0.913 . S
C467 H443 0.950 . S
C467 C466 1.524 . S
C467 C468 1.415 . S
C468 H444 0.950 . S
C468 C463 1.363 . S
C468 C467 1.415 . S
C469 H445 0.951 . S
C469 C470 1.366 1_565 S
C469 C471 1.388 . S
C470 C469 1.366 1_545 S
C470 C474 1.385 . S
C471 H446 0.951 . S
C471 C469 1.388 . S
C471 C472 1.366 1_565 S
C472 C471 1.366 1_545 S
C472 C473 1.414 . S
C472 C475 1.499 . S
C473 H447 0.950 . S
C473 C472 1.414 . S
C473 C474 1.374 . S
C474 H448 0.950 . S
C474 C470 1.385 . S
C474 C473 1.374 . S
C475 C472 1.499 . S
C475 C476 1.373 . S
C475 C477 1.389 . S
C476 H449 0.950 . S
C476 C462 1.377 . S
C476 C475 1.373 . S
C477 C461 1.377 . S
C477 C475 1.389 . S
C477 C478 1.524 1_545 S
C478 C477 1.524 1_565 S
C478 C479 1.397 . S
C478 C483 1.363 . S
C479 H450 0.950 1_565 S
C479 C478 1.397 . S
C479 C480 1.334 1_554 S
C480 H451 0.950 . S
C480 C479 1.334 1_556 S
C480 C481 1.287 . S
C481 C480 1.287 . S
C481 C482 1.524 . S
C481 H484 0.999 . S
C482 H452 0.950 . S
C482 C481 1.524 . S
C482 C483 1.415 1_556 S
C483 H453 0.950 . S
C483 C478 1.363 . S
C483 C482 1.415 1_554 S
H484 C481 0.999 . S
H485 C466 0.913 . S
H486 C504 0.951 . S
H487 C506 0.951 . S
H488 C508 0.950 . S
H489 C509 0.950 . S
H490 C511 0.950 . S
H491 C514 0.950 . S
H492 C515 0.950 . S
H493 C517 0.950 . S
H494 C518 0.950 . S
H495 C519 0.951 . S
H496 C521 0.951 . S
H497 C523 0.950 . S
H498 C524 0.950 . S
H499 C526 0.950 . S
H500 C529 0.950 . S
H501 C530 0.950 . S
H502 C532 0.950 . S
H503 C533 0.950 . S
C504 H486 0.951 . S
C504 C505 1.366 . S
C504 C506 1.388 . S
C505 C504 1.366 . S
C505 C509 1.385 . S
C506 H487 0.951 . S
C506 C504 1.388 . S
C506 C507 1.366 . S
C507 C506 1.366 . S
C507 C508 1.414 . S
C507 C510 1.499 . S
C508 H488 0.950 . S
C508 C507 1.414 . S
C508 C509 1.374 . S
C509 H489 0.950 . S
C509 C505 1.385 . S
C509 C508 1.374 . S
C510 C507 1.499 . S
C510 C511 1.373 . S
C510 C512 1.389 . S
C511 H490 0.950 . S
C511 C510 1.373 . S
C511 C527 1.377 . S
C512 C510 1.389 . S
C512 C513 1.524 . S
C512 C526 1.377 . S
C513 C512 1.524 . S
C513 C514 1.397 . S
C513 C518 1.363 . S
C514 H491 0.950 . S
C514 C513 1.397 . S
C514 C515 1.334 . S
C515 H492 0.950 . S
C515 C514 1.334 . S
C515 C516 1.287 . S
C516 C515 1.287 . S
C516 C517 1.524 . S
C516 H535 0.913 1_455 S
C517 H493 0.950 . S
C517 C516 1.524 . S
C517 C518 1.415 . S
C518 H494 0.950 . S
C518 C513 1.363 . S
C518 C517 1.415 . S
C519 H495 0.951 . S
C519 C520 1.366 . S
C519 C521 1.388 . S
C520 C519 1.366 . S
C520 C524 1.385 . S
C521 H496 0.951 . S
C521 C519 1.388 . S
C521 C522 1.366 . S
C522 C521 1.366 . S
C522 C523 1.414 . S
C522 C525 1.499 . S
C523 H497 0.950 . S
C523 C522 1.414 . S
C523 C524 1.374 . S
C524 H498 0.950 . S
C524 C520 1.385 . S
C524 C523 1.374 . S
C525 C522 1.499 . S
C525 C526 1.373 . S
C525 C527 1.389 . S
C526 H499 0.950 . S
C526 C512 1.377 . S
C526 C525 1.373 . S
C527 C511 1.377 . S
C527 C525 1.389 . S
C527 C528 1.524 . S
C528 C527 1.524 . S
C528 C529 1.397 . S
C528 C533 1.363 . S
C529 H500 0.950 . S
C529 C528 1.397 . S
C529 C530 1.334 . S
C530 H501 0.950 . S
C530 C529 1.334 . S
C530 C531 1.287 . S
C531 C530 1.287 . S
C531 C532 1.524 . S
C531 H534 0.999 . S
C532 H502 0.950 . S
C532 C531 1.524 . S
C532 C533 1.415 . S
C533 H503 0.950 . S
C533 C528 1.363 . S
C533 C532 1.415 . S
H534 C531 0.999 . S
H535 C516 0.913 1_655 S
H536 C554 0.951 . S
H537 C556 0.951 . S
H538 C558 0.950 . S
H539 C559 0.950 . S
H540 C561 0.950 . S
H541 C564 0.950 . S
H542 C565 0.950 . S
H543 C567 0.950 . S
H544 C568 0.950 . S
H545 C569 0.951 . S
H546 C571 0.951 . S
H547 C573 0.950 . S
H548 C574 0.950 . S
H549 C576 0.950 . S
H550 C579 0.950 . S
H551 C580 0.950 . S
H552 C582 0.950 . S
H553 C583 0.950 . S
C554 H536 0.951 . S
C554 C555 1.366 . S
C554 C556 1.388 . S
C555 C554 1.366 . S
C555 C559 1.385 . S
C556 H537 0.951 . S
C556 C554 1.388 . S
C556 C557 1.366 . S
C557 C556 1.366 . S
C557 C558 1.414 . S
C557 C560 1.499 . S
C558 H538 0.950 . S
C558 C557 1.414 . S
C558 C559 1.374 . S
C559 H539 0.950 . S
C559 C555 1.385 . S
C559 C558 1.374 . S
C560 C557 1.499 . S
C560 C561 1.373 . S
C560 C562 1.389 . S
C561 H540 0.950 . S
C561 C560 1.373 . S
C561 C577 1.377 . S
C562 C560 1.389 . S
C562 C563 1.524 . S
C562 C576 1.377 . S
C563 C562 1.524 . S
C563 C564 1.397 . S
C563 C568 1.363 . S
C564 H541 0.950 . S
C564 C563 1.397 . S
C564 C565 1.334 . S
C565 H542 0.950 . S
C565 C564 1.334 . S
C565 C566 1.287 . S
C566 C565 1.287 . S
C566 C567 1.524 . S
C566 H585 0.913 . S
C567 H543 0.950 . S
C567 C566 1.524 . S
C567 C568 1.415 . S
C568 H544 0.950 . S
C568 C563 1.363 . S
C568 C567 1.415 . S
C569 H545 0.951 . S
C569 C570 1.366 . S
C569 C571 1.388 . S
C570 C569 1.366 . S
C570 C574 1.385 . S
C571 H546 0.951 . S
C571 C569 1.388 . S
C571 C572 1.366 . S
C572 C571 1.366 . S
C572 C573 1.414 . S
C572 C575 1.499 . S
C573 H547 0.950 . S
C573 C572 1.414 . S
C573 C574 1.374 . S
C574 H548 0.950 . S
C574 C570 1.385 . S
C574 C573 1.374 . S
C575 C572 1.499 . S
C575 C576 1.373 . S
C575 C577 1.389 . S
C576 H549 0.950 . S
C576 C562 1.377 . S
C576 C575 1.373 . S
C577 C561 1.377 . S
C577 C575 1.389 . S
C577 C578 1.524 . S
C578 C577 1.524 . S
C578 C579 1.397 . S
C578 C583 1.363 . S
C579 H550 0.950 . S
C579 C578 1.397 . S
C579 C580 1.334 . S
C580 H551 0.950 . S
C580 C579 1.334 . S
C580 C581 1.287 . S
C581 C580 1.287 . S
C581 C582 1.524 . S
C581 H584 0.999 . S
C582 H552 0.950 . S
C582 C581 1.524 . S
C582 C583 1.415 . S
C583 H553 0.950 . S
C583 C578 1.363 . S
C583 C582 1.415 . S
H584 C581 0.999 . S
H585 C566 0.913 . S
H586 C604 0.951 . S
H587 C606 0.951 . S
H588 C608 0.950 . S
H589 C609 0.950 . S
H590 C611 0.950 . S
H591 C614 0.950 . S
H592 C615 0.950 . S
H593 C617 0.950 . S
H594 C618 0.950 . S
H595 C619 0.951 . S
H596 C621 0.951 . S
H597 C623 0.950 . S
H598 C624 0.950 . S
H599 C626 0.950 . S
H600 C629 0.950 . S
H601 C630 0.950 . S
H602 C632 0.950 . S
H603 C633 0.950 . S
C604 H586 0.951 . S
C604 C605 1.366 . S
C604 C606 1.388 . S
C605 C604 1.366 . S
C605 C609 1.385 . S
C606 H587 0.951 . S
C606 C604 1.388 . S
C606 C607 1.366 . S
C607 C606 1.366 . S
C607 C608 1.414 . S
C607 C610 1.499 . S
C608 H588 0.950 . S
C608 C607 1.414 . S
C608 C609 1.374 . S
C609 H589 0.950 . S
C609 C605 1.385 . S
C609 C608 1.374 . S
C610 C607 1.499 . S
C610 C611 1.373 . S
C610 C612 1.389 . S
C611 H590 0.950 . S
C611 C610 1.373 . S
C611 C627 1.377 . S
C612 C610 1.389 . S
C612 C613 1.524 1_455 S
C612 C626 1.377 1_455 S
C613 C612 1.524 1_655 S
C613 C614 1.397 1_655 S
C613 C618 1.363 . S
C614 H591 0.950 . S
C614 C613 1.397 1_455 S
C614 C615 1.334 . S
C615 H592 0.950 . S
C615 C614 1.334 . S
C615 C616 1.287 1_455 S
C616 C615 1.287 1_655 S
C616 C617 1.524 . S
C616 H635 0.913 . S
C617 H593 0.950 . S
C617 C616 1.524 . S
C617 C618 1.415 . S
C618 H594 0.950 . S
C618 C613 1.363 . S
C618 C617 1.415 . S
C619 H595 0.951 . S
C619 C620 1.366 1_455 S
C619 C621 1.388 . S
C620 C619 1.366 1_655 S
C620 C624 1.385 . S
C621 H596 0.951 . S
C621 C619 1.388 . S
C621 C622 1.366 1_455 S
C622 C621 1.366 1_655 S
C622 C623 1.414 . S
C622 C625 1.499 1_655 S
C623 H597 0.950 . S
C623 C622 1.414 . S
C623 C624 1.374 . S
C624 H598 0.950 . S
C624 C620 1.385 . S
C624 C623 1.374 . S
C625 C622 1.499 1_455 S
C625 C626 1.373 1_455 S
C625 C627 1.389 . S
C626 H599 0.950 . S
C626 C612 1.377 1_655 S
C626 C625 1.373 1_655 S
C627 C611 1.377 . S
C627 C625 1.389 . S
C627 C628 1.524 . S
C628 C627 1.524 . S
C628 C629 1.397 . S
C628 C633 1.363 . S
C629 H600 0.950 . S
C629 C628 1.397 . S
C629 C630 1.334 . S
C630 H601 0.950 . S
C630 C629 1.334 . S
C630 C631 1.287 . S
C631 C630 1.287 . S
C631 C632 1.524 . S
C631 H634 0.999 . S
C632 H602 0.950 . S
C632 C631 1.524 . S
C632 C633 1.415 . S
C633 H603 0.950 . S
C633 C628 1.363 . S
C633 C632 1.415 . S
H634 C631 0.999 . S
H635 C616 0.913 . S
H636 C654 0.951 . S
H637 C656 0.951 . S
H638 C658 0.950 . S
H639 C659 0.950 . S
H640 C661 0.950 . S
H641 C664 0.950 . S
H642 C665 0.950 . S
H643 C667 0.950 . S
H644 C668 0.950 . S
H645 C669 0.951 . S
H646 C671 0.951 . S
H647 C673 0.950 . S
H648 C674 0.950 . S
H649 C676 0.950 . S
H650 C679 0.950 . S
H651 C680 0.950 . S
H652 C682 0.950 . S
H653 C683 0.950 . S
C654 H636 0.951 . S
C654 C655 1.366 . S
C654 C656 1.388 . S
C655 C654 1.366 . S
C655 C659 1.385 . S
C656 H637 0.951 . S
C656 C654 1.388 . S
C656 C657 1.366 . S
C657 C656 1.366 . S
C657 C658 1.414 . S
C657 C660 1.499 . S
C658 H638 0.950 . S
C658 C657 1.414 . S
C658 C659 1.374 . S
C659 H639 0.950 . S
C659 C655 1.385 . S
C659 C658 1.374 . S
C660 C657 1.499 . S
C660 C661 1.373 . S
C660 C662 1.389 . S
C661 H640 0.950 . S
C661 C660 1.373 . S
C661 C677 1.377 . S
C662 C660 1.389 . S
C662 C663 1.524 . S
C662 C676 1.377 . S
C663 C662 1.524 . S
C663 C664 1.397 . S
C663 C668 1.363 . S
C664 H641 0.950 . S
C664 C663 1.397 . S
C664 C665 1.334 . S
C665 H642 0.950 . S
C665 C664 1.334 . S
C665 C666 1.287 . S
C666 C665 1.287 . S
C666 C667 1.524 . S
C666 H685 0.913 . S
C667 H643 0.950 . S
C667 C666 1.524 . S
C667 C668 1.415 . S
C668 H644 0.950 . S
C668 C663 1.363 . S
C668 C667 1.415 . S
C669 H645 0.951 . S
C669 C670 1.366 . S
C669 C671 1.388 . S
C670 C669 1.366 . S
C670 C674 1.385 . S
C671 H646 0.951 . S
C671 C669 1.388 . S
C671 C672 1.366 . S
C672 C671 1.366 . S
C672 C673 1.414 . S
C672 C675 1.499 . S
C673 H647 0.950 . S
C673 C672 1.414 . S
C673 C674 1.374 . S
C674 H648 0.950 . S
C674 C670 1.385 . S
C674 C673 1.374 . S
C675 C672 1.499 . S
C675 C676 1.373 . S
C675 C677 1.389 . S
C676 H649 0.950 . S
C676 C662 1.377 . S
C676 C675 1.373 . S
C677 C661 1.377 . S
C677 C675 1.389 . S
C677 C678 1.524 . S
C678 C677 1.524 . S
C678 C679 1.397 1_565 S
C678 C683 1.363 . S
C679 H650 0.950 . S
C679 C678 1.397 1_545 S
C679 C680 1.334 . S
C680 H651 0.950 . S
C680 C679 1.334 . S
C680 C681 1.287 . S
C681 C680 1.287 . S
C681 C682 1.524 . S
C681 H684 0.999 . S
C682 H652 0.950 . S
C682 C681 1.524 . S
C682 C683 1.415 1_545 S
C683 H653 0.950 . S
C683 C678 1.363 . S
C683 C682 1.415 1_565 S
H684 C681 0.999 . S
H685 C666 0.913 . S
H686 C704 0.951 . S
H687 C706 0.951 . S
H688 C708 0.950 . S
H689 C709 0.950 . S
H690 C711 0.950 . S
H691 C714 0.950 . S
H692 C715 0.950 . S
H693 C717 0.950 . S
H694 C718 0.950 . S
H695 C719 0.951 . S
H696 C721 0.951 . S
H697 C723 0.952 . S
H698 C724 0.950 1_545 S
H699 C726 0.950 . S
H700 C729 0.950 . S
H701 C730 0.950 1_554 S
H702 C732 0.950 . S
H703 C733 0.950 . S
C704 H686 0.951 . S
C704 C705 1.366 . S
C704 C706 1.388 . S
C705 C704 1.366 . S
C705 C709 1.385 . S
C706 H687 0.951 . S
C706 C704 1.388 . S
C706 C707 1.366 . S
C707 C706 1.366 . S
C707 C708 1.414 . S
C707 C710 1.499 . S
C708 H688 0.950 . S
C708 C707 1.414 . S
C708 C709 1.374 . S
C709 H689 0.950 . S
C709 C705 1.385 . S
C709 C708 1.374 . S
C710 C707 1.499 . S
C710 C711 1.373 . S
C710 C712 1.389 . S
C711 H690 0.950 . S
C711 C710 1.373 . S
C711 C727 1.377 . S
C712 C710 1.389 . S
C712 C713 1.524 . S
C712 C726 1.377 . S
C713 C712 1.524 . S
C713 C714 1.397 . S
C713 C718 1.363 . S
C714 H691 0.950 . S
C714 C713 1.397 . S
C714 C715 1.334 . S
C715 H692 0.950 . S
C715 C714 1.334 . S
C715 C716 1.287 . S
C716 C715 1.287 . S
C716 C717 1.524 . S
C716 H735 0.913 . S
C717 H693 0.950 . S
C717 C716 1.524 . S
C717 C718 1.415 . S
C718 H694 0.950 . S
C718 C713 1.363 . S
C718 C717 1.415 . S
C719 H695 0.951 . S
C719 C720 1.366 . S
C719 C721 1.388 1_554 S
C720 C719 1.366 . S
C720 C724 1.385 . S
C721 H696 0.951 . S
C721 C719 1.388 1_556 S
C721 C722 1.366 . S
C722 C721 1.366 . S
C722 C723 1.414 . S
C722 C725 1.499 . S
C723 H697 0.952 . S
C723 C722 1.414 . S
C723 C724 1.372 1_556 S
C724 H698 0.950 1_565 S
C724 C720 1.385 . S
C724 C723 1.372 1_554 S
C725 C722 1.499 . S
C725 C726 1.373 . S
C725 C727 1.389 . S
C726 H699 0.950 . S
C726 C712 1.377 . S
C726 C725 1.373 . S
C727 C711 1.377 . S
C727 C725 1.389 . S
C727 C728 1.524 . S
C728 C727 1.524 . S
C728 C729 1.397 . S
C728 C733 1.363 . S
C729 H700 0.950 . S
C729 C728 1.397 . S
C729 C730 1.334 . S
C730 H701 0.950 1_556 S
C730 C729 1.334 . S
C730 C731 1.287 . S
C731 C730 1.287 . S
C731 C732 1.524 . S
C731 H734 0.999 1_556 S
C732 H702 0.950 . S
C732 C731 1.524 . S
C732 C733 1.415 . S
C733 H703 0.950 . S
C733 C728 1.363 . S
C733 C732 1.415 . S
H734 C731 0.999 1_554 S
H735 C716 0.913 . S
H736 C754 0.951 . S
H737 C756 0.951 . S
H738 C758 0.950 . S
H739 C759 0.950 . S
H740 C761 0.950 . S
H741 C764 0.950 . S
H742 C765 0.950 . S
H743 C767 0.950 . S
H744 C768 0.950 . S
H745 C769 0.951 . S
H746 C771 0.951 . S
H747 C773 0.950 . S
H748 C774 0.950 1_455 S
H749 C776 0.950 . S
H750 C779 0.950 . S
H751 C780 0.950 . S
H752 C782 0.950 . S
H753 C783 0.950 . S
C754 H736 0.951 . S
C754 C755 1.366 . S
C754 C756 1.388 . S
C755 C754 1.366 . S
C755 C759 1.385 1_545 S
C756 H737 0.951 . S
C756 C754 1.388 . S
C756 C757 1.366 1_545 S
C757 C756 1.366 1_565 S
C757 C758 1.414 . S
C757 C760 1.499 . S
C758 H738 0.950 . S
C758 C757 1.414 . S
C758 C759 1.374 . S
C759 H739 0.950 . S
C759 C755 1.385 1_565 S
C759 C758 1.374 . S
C760 C757 1.499 . S
C760 C761 1.373 . S
C760 C762 1.389 . S
C761 H740 0.950 . S
C761 C760 1.373 . S
C761 C777 1.377 . S
C762 C760 1.389 . S
C762 C763 1.524 1_565 S
C762 C776 1.377 . S
C763 C762 1.524 1_545 S
C763 C764 1.397 . S
C763 C768 1.363 . S
C764 H741 0.950 . S
C764 C763 1.397 . S
C764 C765 1.334 . S
C765 H742 0.950 . S
C765 C764 1.334 . S
C765 C766 1.287 . S
C766 C765 1.287 . S
C766 C767 1.524 . S
C766 H785 0.913 . S
C767 H743 0.950 . S
C767 C766 1.524 . S
C767 C768 1.415 . S
C768 H744 0.950 . S
C768 C763 1.363 . S
C768 C767 1.415 . S
C769 H745 0.951 . S
C769 C770 1.366 . S
C769 C771 1.388 . S
C770 C769 1.366 . S
C770 C774 1.385 . S
C771 H746 0.951 . S
C771 C769 1.388 . S
C771 C772 1.366 . S
C772 C771 1.366 . S
C772 C773 1.414 . S
C772 C775 1.499 . S
C773 H747 0.950 . S
C773 C772 1.414 . S
C773 C774 1.374 . S
C774 H748 0.950 1_655 S
C774 C770 1.385 . S
C774 C773 1.374 . S
C775 C772 1.499 . S
C775 C776 1.373 . S
C775 C777 1.389 . S
C776 H749 0.950 . S
C776 C762 1.377 . S
C776 C775 1.373 . S
C777 C761 1.377 . S
C777 C775 1.389 . S
C777 C778 1.524 . S
C778 C777 1.524 . S
C778 C779 1.397 . S
C778 C783 1.363 . S
C779 H750 0.950 . S
C779 C778 1.397 . S
C779 C780 1.334 . S
C780 H751 0.950 . S
C780 C779 1.334 . S
C780 C781 1.287 . S
C781 C780 1.287 . S
C781 C782 1.524 . S
C781 H784 0.999 . S
C782 H752 0.950 . S
C782 C781 1.524 . S
C782 C783 1.415 . S
C783 H753 0.950 . S
C783 C778 1.363 . S
C783 C782 1.415 . S
H784 C781 0.999 . S
H785 C766 0.913 . S
H786 C804 0.951 . S
H787 C806 0.951 . S
H788 C808 0.950 . S
H789 C809 0.950 . S
H790 C811 0.950 . S
H791 C814 0.950 . S
H792 C815 0.950 . S
H793 C817 0.950 . S
H794 C818 0.950 . S
H795 C819 0.951 . S
H796 C821 0.951 . S
H797 C823 0.950 . S
H798 C824 0.950 . S
H799 C826 0.950 . S
H800 C829 0.950 . S
H801 C830 0.950 . S
H802 C832 0.940 1_545 S
H803 C833 0.950 . S
C804 H786 0.951 . S
C804 C805 1.366 . S
C804 C806 1.388 . S
C805 C804 1.366 . S
C805 C809 1.385 . S
C806 H787 0.951 . S
C806 C804 1.388 . S
C806 C807 1.366 . S
C807 C806 1.366 . S
C807 C808 1.414 . S
C807 C810 1.499 . S
C808 H788 0.950 . S
C808 C807 1.414 . S
C808 C809 1.374 . S
C809 H789 0.950 . S
C809 C805 1.385 . S
C809 C808 1.374 . S
C810 C807 1.499 . S
C810 C811 1.373 . S
C810 C812 1.389 . S
C811 H790 0.950 . S
C811 C810 1.373 . S
C811 C827 1.377 . S
C812 C810 1.389 . S
C812 C813 1.524 . S
C812 C826 1.377 . S
C813 C812 1.524 . S
C813 C814 1.397 . S
C813 C818 1.363 . S
C814 H791 0.950 . S
C814 C813 1.397 . S
C814 C815 1.334 . S
C815 H792 0.950 . S
C815 C814 1.334 . S
C815 C816 1.287 . S
C816 C815 1.287 . S
C816 C817 1.524 . S
C816 H835 0.913 . S
C817 H793 0.950 . S
C817 C816 1.524 . S
C817 C818 1.415 . S
C818 H794 0.950 . S
C818 C813 1.363 . S
C818 C817 1.415 . S
C819 H795 0.951 . S
C819 C820 1.366 . S
C819 C821 1.388 . S
C820 C819 1.366 . S
C820 C824 1.385 . S
C821 H796 0.951 . S
C821 C819 1.388 . S
C821 C822 1.366 . S
C822 C821 1.366 . S
C822 C823 1.414 . S
C822 C825 1.499 . S
C823 H797 0.950 . S
C823 C822 1.414 . S
C823 C824 1.374 . S
C824 H798 0.950 . S
C824 C820 1.385 . S
C824 C823 1.374 . S
C825 C822 1.499 . S
C825 C826 1.373 . S
C825 C827 1.389 . S
C826 H799 0.950 . S
C826 C812 1.377 . S
C826 C825 1.373 . S
C827 C811 1.377 . S
C827 C825 1.389 . S
C827 C828 1.524 . S
C828 C827 1.524 . S
C828 C829 1.397 . S
C828 C833 1.363 . S
C829 H800 0.950 . S
C829 C828 1.397 . S
C829 C830 1.334 . S
C830 H801 0.950 . S
C830 C829 1.334 . S
C830 C831 1.287 1_565 S
C831 C830 1.287 1_545 S
C831 C832 1.528 1_545 S
C831 H834 0.999 . S
C832 H802 0.940 1_565 S
C832 C831 1.528 1_565 S
C832 C833 1.422 . S
C833 H803 0.950 . S
C833 C828 1.363 . S
C833 C832 1.422 . S
H834 C831 0.999 . S
H835 C816 0.913 . S
H836 C854 0.951 . S
H837 C856 0.951 . S
H838 C858 0.950 . S
H839 C859 0.950 . S
H840 C861 0.950 . S
H841 C864 0.950 . S
H842 C865 0.950 . S
H843 C867 0.950 . S
H844 C868 0.950 . S
H845 C869 0.951 . S
H846 C871 0.951 . S
H847 C873 0.950 . S
H848 C874 0.950 . S
H849 C876 0.950 . S
H850 C879 0.950 . S
H851 C880 0.950 . S
H852 C882 0.950 . S
H853 C883 0.950 . S
C854 H836 0.951 . S
C854 C855 1.366 . S
C854 C856 1.388 . S
C855 C854 1.366 . S
C855 C859 1.385 . S
C856 H837 0.951 . S
C856 C854 1.388 . S
C856 C857 1.366 . S
C857 C856 1.366 . S
C857 C858 1.414 . S
C857 C860 1.499 . S
C858 H838 0.950 . S
C858 C857 1.414 . S
C858 C859 1.374 . S
C859 H839 0.950 . S
C859 C855 1.385 . S
C859 C858 1.374 . S
C860 C857 1.499 . S
C860 C861 1.373 . S
C860 C862 1.389 . S
C861 H840 0.950 . S
C861 C860 1.373 . S
C861 C877 1.377 . S
C862 C860 1.389 . S
C862 C863 1.524 . S
C862 C876 1.377 . S
C863 C862 1.524 . S
C863 C864 1.397 . S
C863 C868 1.363 . S
C864 H841 0.950 . S
C864 C863 1.397 . S
C864 C865 1.334 . S
C865 H842 0.950 . S
C865 C864 1.334 . S
C865 C866 1.287 . S
C866 C865 1.287 . S
C866 C867 1.524 . S
C866 H885 0.913 . S
C867 H843 0.950 . S
C867 C866 1.524 . S
C867 C868 1.415 . S
C868 H844 0.950 . S
C868 C863 1.363 . S
C868 C867 1.415 . S
C869 H845 0.951 . S
C869 C870 1.366 . S
C869 C871 1.388 1_554 S
C870 C869 1.366 . S
C870 C874 1.385 1_554 S
C871 H846 0.951 . S
C871 C869 1.388 1_556 S
C871 C872 1.366 . S
C872 C871 1.366 . S
C872 C873 1.414 . S
C872 C875 1.499 . S
C873 H847 0.950 . S
C873 C872 1.414 . S
C873 C874 1.374 . S
C874 H848 0.950 . S
C874 C870 1.385 1_556 S
C874 C873 1.374 . S
C875 C872 1.499 . S
C875 C876 1.373 . S
C875 C877 1.389 . S
C876 H849 0.950 . S
C876 C862 1.377 . S
C876 C875 1.373 . S
C877 C861 1.377 . S
C877 C875 1.389 . S
C877 C878 1.524 . S
C878 C877 1.524 . S
C878 C879 1.397 . S
C878 C883 1.363 . S
C879 H850 0.950 . S
C879 C878 1.397 . S
C879 C880 1.334 . S
C880 H851 0.950 . S
C880 C879 1.334 . S
C880 C881 1.287 . S
C881 C880 1.287 . S
C881 C882 1.524 . S
C881 H884 0.999 . S
C882 H852 0.950 . S
C882 C881 1.524 . S
C882 C883 1.415 . S
C883 H853 0.950 . S
C883 C878 1.363 . S
C883 C882 1.415 . S
H884 C881 0.999 . S
H885 C866 0.913 . S
H886 C904 0.951 . S
H887 C906 0.951 . S
H888 C908 0.950 . S
H889 C909 0.950 . S
H890 C911 0.950 . S
H891 C914 0.950 . S
H892 C915 0.950 . S
H893 C917 0.950 . S
H894 C918 0.950 . S
H895 C919 0.951 1_655 S
H896 C921 0.951 . S
H897 C923 0.950 . S
H898 C924 0.950 . S
H899 C926 0.950 . S
H900 C929 0.950 . S
H901 C930 0.950 . S
H902 C932 0.950 . S
H903 C933 0.950 . S
C904 H886 0.951 . S
C904 C905 1.366 . S
C904 C906 1.388 . S
C905 C904 1.366 . S
C905 C909 1.385 . S
C906 H887 0.951 . S
C906 C904 1.388 . S
C906 C907 1.366 . S
C907 C906 1.366 . S
C907 C908 1.414 . S
C907 C910 1.499 . S
C908 H888 0.950 . S
C908 C907 1.414 . S
C908 C909 1.374 . S
C909 H889 0.950 . S
C909 C905 1.385 . S
C909 C908 1.374 . S
C910 C907 1.499 . S
C910 C911 1.373 . S
C910 C912 1.389 . S
C911 H890 0.950 . S
C911 C910 1.373 . S
C911 C927 1.377 . S
C912 C910 1.389 . S
C912 C913 1.524 1_655 S
C912 C926 1.377 1_655 S
C913 C912 1.524 1_455 S
C913 C914 1.397 1_455 S
C913 C918 1.363 . S
C914 H891 0.950 . S
C914 C913 1.397 1_655 S
C914 C915 1.334 1_655 S
C915 H892 0.950 . S
C915 C914 1.334 1_455 S
C915 C916 1.287 . S
C916 C915 1.287 . S
C916 C917 1.524 . S
C916 H935 0.913 . S
C917 H893 0.950 . S
C917 C916 1.524 . S
C917 C918 1.415 . S
C918 H894 0.950 . S
C918 C913 1.363 . S
C918 C917 1.415 . S
C919 H895 0.951 1_455 S
C919 C920 1.366 . S
C919 C921 1.388 1_455 S
C920 C919 1.366 . S
C920 C924 1.385 . S
C921 H896 0.951 . S
C921 C919 1.388 1_655 S
C921 C922 1.366 1_655 S
C922 C921 1.366 1_455 S
C922 C923 1.414 . S
C922 C925 1.499 1_455 S
C923 H897 0.950 . S
C923 C922 1.414 . S
C923 C924 1.374 . S
C924 H898 0.950 . S
C924 C920 1.385 . S
C924 C923 1.374 . S
C925 C922 1.499 1_655 S
C925 C926 1.373 1_655 S
C925 C927 1.389 . S
C926 H899 0.950 . S
C926 C912 1.377 1_455 S
C926 C925 1.373 1_455 S
C927 C911 1.377 . S
C927 C925 1.389 . S
C927 C928 1.524 . S
C928 C927 1.524 . S
C928 C929 1.397 . S
C928 C933 1.363 . S
C929 H900 0.950 . S
C929 C928 1.397 . S
C929 C930 1.334 . S
C930 H901 0.950 . S
C930 C929 1.334 . S
C930 C931 1.287 . S
C931 C930 1.287 . S
C931 C932 1.524 . S
C931 H934 0.999 . S
C932 H902 0.950 . S
C932 C931 1.524 . S
C932 C933 1.415 . S
C933 H903 0.950 . S
C933 C928 1.363 . S
C933 C932 1.415 . S
H934 C931 0.999 . S
H935 C916 0.913 . S
C355 C234 0.976 . S
C370 C75 0.976 . S
C405 C318 0.485 . S
C420 C159 0.485 . S
C455 C243 1.144 . S
C470 C66 1.144 . S
C505 C150 1.217 . S
C520 C327 1.217 . S
C555 C151 1.929 . S
C570 C56 2.067 . S
C605 C140 2.243 . S
C620 C240 2.254 . S
C655 C324 1.057 . S
C670 C231 0.905 . S
C705 C315 0.740 . S
C720 C67 0.718 . S
C755 C235 2.068 . S
C770 C308 1.930 . S
C805 C63 2.254 . S
C820 C319 2.243 . S
C855 C147 1.056 . S
C870 C72 0.903 . S
C905 C224 0.719 . S
C920 C156 0.738 . S
