# Generated by pormake.
# Topology umh, (4)-cn, num edge types: 1
# Building blocks:
#     Node 0, Type 0, BuildingBlock: MUDLON_clean_sbu_0, # of connection points: 4
#     Node 1, Type 0, BuildingBlock: MUDLON_clean_sbu_0, # of connection points: 4
#     Node 2, Type 0, BuildingBlock: MUDLON_clean_sbu_0, # of connection points: 4
#     Node 3, Type 0, BuildingBlock: MUDLON_clean_sbu_0, # of connection points: 4
#     Node 4, Type 0, BuildingBlock: MUDLON_clean_sbu_0, # of connection points: 4
#     Node 5, Type 0, BuildingBlock: MUDLON_clean_sbu_0, # of connection points: 4
#     Node 6, Type 0, BuildingBlock: MUDLON_clean_sbu_0, # of connection points: 4
#     Node 7, Type 0, BuildingBlock: MUDLON_clean_sbu_0, # of connection points: 4
#     Node 8, Type 0, BuildingBlock: MUDLON_clean_sbu_0, # of connection points: 4
#     Node 9, Type 0, BuildingBlock: MUDLON_clean_sbu_0, # of connection points: 4
#     Node 10, Type 0, BuildingBlock: MUDLON_clean_sbu_0, # of connection points: 4
#     Node 11, Type 0, BuildingBlock: MUDLON_clean_sbu_0, # of connection points: 4
#     Node 12, Type 0, BuildingBlock: MUDLON_clean_sbu_0, # of connection points: 4
#     Node 13, Type 0, BuildingBlock: MUDLON_clean_sbu_0, # of connection points: 4
#     Node 14, Type 0, BuildingBlock: MUDLON_clean_sbu_0, # of connection points: 4
#     Node 15, Type 0, BuildingBlock: MUDLON_clean_sbu_0, # of connection points: 4
#     Edge 16, Type (0, 0), BuildingBlock: TEMPAE_clean_linker_10, # of connection points: 2
#     Edge 17, Type (0, 0), BuildingBlock: TEMPAE_clean_linker_10, # of connection points: 2
#     Edge 18, Type (0, 0), BuildingBlock: TEMPAE_clean_linker_10, # of connection points: 2
#     Edge 19, Type (0, 0), BuildingBlock: TEMPAE_clean_linker_10, # of connection points: 2
#     Edge 20, Type (0, 0), BuildingBlock: TEMPAE_clean_linker_10, # of connection points: 2
#     Edge 21, Type (0, 0), BuildingBlock: TEMPAE_clean_linker_10, # of connection points: 2
#     Edge 22, Type (0, 0), BuildingBlock: TEMPAE_clean_linker_10, # of connection points: 2
#     Edge 23, Type (0, 0), BuildingBlock: TEMPAE_clean_linker_10, # of connection points: 2
#     Edge 24, Type (0, 0), BuildingBlock: TEMPAE_clean_linker_10, # of connection points: 2
#     Edge 25, Type (0, 0), BuildingBlock: TEMPAE_clean_linker_10, # of connection points: 2
#     Edge 26, Type (0, 0), BuildingBlock: TEMPAE_clean_linker_10, # of connection points: 2
#     Edge 27, Type (0, 0), BuildingBlock: TEMPAE_clean_linker_10, # of connection points: 2
#     Edge 28, Type (0, 0), BuildingBlock: TEMPAE_clean_linker_10, # of connection points: 2
#     Edge 29, Type (0, 0), BuildingBlock: TEMPAE_clean_linker_10, # of connection points: 2
#     Edge 30, Type (0, 0), BuildingBlock: TEMPAE_clean_linker_10, # of connection points: 2
#     Edge 31, Type (0, 0), BuildingBlock: TEMPAE_clean_linker_10, # of connection points: 2
#     Edge 32, Type (0, 0), BuildingBlock: TEMPAE_clean_linker_10, # of connection points: 2
#     Edge 33, Type (0, 0), BuildingBlock: TEMPAE_clean_linker_10, # of connection points: 2
#     Edge 34, Type (0, 0), BuildingBlock: TEMPAE_clean_linker_10, # of connection points: 2
#     Edge 35, Type (0, 0), BuildingBlock: TEMPAE_clean_linker_10, # of connection points: 2
#     Edge 36, Type (0, 0), BuildingBlock: TEMPAE_clean_linker_10, # of connection points: 2
#     Edge 37, Type (0, 0), BuildingBlock: TEMPAE_clean_linker_10, # of connection points: 2
#     Edge 38, Type (0, 0), BuildingBlock: TEMPAE_clean_linker_10, # of connection points: 2
#     Edge 39, Type (0, 0), BuildingBlock: TEMPAE_clean_linker_10, # of connection points: 2
#     Edge 40, Type (0, 0), BuildingBlock: TEMPAE_clean_linker_10, # of connection points: 2
#     Edge 41, Type (0, 0), BuildingBlock: TEMPAE_clean_linker_10, # of connection points: 2
#     Edge 42, Type (0, 0), BuildingBlock: TEMPAE_clean_linker_10, # of connection points: 2
#     Edge 43, Type (0, 0), BuildingBlock: TEMPAE_clean_linker_10, # of connection points: 2
#     Edge 44, Type (0, 0), BuildingBlock: TEMPAE_clean_linker_10, # of connection points: 2
#     Edge 45, Type (0, 0), BuildingBlock: TEMPAE_clean_linker_10, # of connection points: 2
#     Edge 46, Type (0, 0), BuildingBlock: TEMPAE_clean_linker_10, # of connection points: 2
#     Edge 47, Type (0, 0), BuildingBlock: TEMPAE_clean_linker_10, # of connection points: 2
# Relax obj value: 0.037
# Max RMSD: 0.081
# Mean RMSD: 0.081
data_MOF--net-umh--node1-MUDLON_clean_sbu_0--edge1-TEMPAE_clean_linker_10
_symmetry_space_group_name_H-M    P1
_symmetry_Int_Tables_number       1
_symmetry_cell_setting            triclinic
loop_
_symmetry_equiv_pos_as_xyz
'x, y, z'
_cell_length_a     42.483263
_cell_length_b     42.42425
_cell_length_c     56.401967
_cell_angle_alpha  90.161515
_cell_angle_beta   90.018803
_cell_angle_gamma 90.13284
loop_
_atom_site_label
_atom_site_type_symbol
_atom_site_fract_x
_atom_site_fract_y
_atom_site_fract_z
_atom_type_partial_charge
Mg0 Mg 0.337 0.07761 0.14945 0.0
C1 C 0.34926 0.07979 0.09883 0.0
O2 O 0.37268 0.09455 0.10933 0.0
C3 C 0.30596 0.07519 0.19548 0.0
O4 O 0.32262 0.10131 0.19528 0.0
C5 C 0.39615 0.05827 0.17717 0.0
O6 O 0.37626 0.0576 0.19497 0.0
O7 O 0.38646 0.06709 0.15689 0.0
O8 O 0.32851 0.06674 0.11189 0.0
O9 O 0.32376 0.127 0.15061 0.0
C10 C 0.29502 0.13013 0.14466 0.0
O11 O 0.27914 0.1048 0.13842 0.0
O12 O 0.30713 0.05721 0.17732 0.0
Mg13 Mg 0.37474 0.35552 0.66033 0.0
C14 C 0.36373 0.37968 0.61179 0.0
O15 O 0.35865 0.40428 0.62546 0.0
C16 C 0.38995 0.31659 0.7011 0.0
O17 O 0.38594 0.34516 0.70961 0.0
C18 C 0.43405 0.39061 0.67284 0.0
O19 O 0.44422 0.36138 0.67306 0.0
O20 O 0.40495 0.39557 0.66909 0.0
O21 O 0.37122 0.3537 0.62156 0.0
O22 O 0.32834 0.35711 0.67594 0.0
C23 C 0.30581 0.34539 0.664 0.0
O24 O 0.30886 0.34304 0.6409 0.0
O25 O 0.38964 0.31278 0.67867 0.0
Mg26 Mg 0.15195 0.3985 0.15012 0.0
C27 C 0.13586 0.39625 0.09956 0.0
O28 O 0.11185 0.38304 0.1104 0.0
C29 C 0.17866 0.40825 0.19657 0.0
O30 O 0.15557 0.38781 0.19885 0.0
C31 C 0.09786 0.44072 0.15007 0.0
O32 O 0.11876 0.4542 0.13621 0.0
O33 O 0.10472 0.41432 0.15938 0.0
O34 O 0.15826 0.40733 0.11214 0.0
O35 O 0.16207 0.34856 0.15341 0.0
C36 C 0.18703 0.34139 0.14216 0.0
O37 O 0.20171 0.36357 0.13025 0.0
O38 O 0.18386 0.41972 0.17607 0.0
Mg39 Mg 0.11246 0.15065 0.65963 0.0
C40 C 0.13382 0.13096 0.61212 0.0
O41 O 0.14857 0.11198 0.62676 0.0
C42 C 0.07412 0.18723 0.69581 0.0
O43 O 0.06624 0.15843 0.70195 0.0
C44 C 0.08806 0.08797 0.68374 0.0
O45 O 0.10673 0.09387 0.7018 0.0
O46 O 0.08718 0.10697 0.66637 0.0
O47 O 0.1161 0.15221 0.62089 0.0
O48 O 0.16007 0.15502 0.67323 0.0
C49 C 0.16361 0.16684 0.69383 0.0
O50 O 0.13954 0.16668 0.70843 0.0
O51 O 0.09006 0.19116 0.6769 0.0
Mg52 Mg 0.35101 0.40463 0.38189 0.0
C53 C 0.36613 0.40757 0.43355 0.0
O54 O 0.39404 0.40562 0.42367 0.0
C55 C 0.3259 0.41871 0.33588 0.0
O56 O 0.35254 0.40352 0.33285 0.0
C57 C 0.42375 0.4145 0.37334 0.0
O58 O 0.42729 0.38436 0.37789 0.0
O59 O 0.39631 0.42643 0.37359 0.0
O60 O 0.34203 0.40923 0.42013 0.0
O61 O 0.34356 0.35527 0.37304 0.0
C62 C 0.33934 0.33459 0.389 0.0
O63 O 0.34684 0.34137 0.41103 0.0
O64 O 0.31769 0.42559 0.35701 0.0
Mg65 Mg 0.1337 0.37484 0.86966 0.0
C66 C 0.13687 0.39046 0.92011 0.0
O67 O 0.14413 0.41662 0.90894 0.0
C68 C 0.09405 0.34526 0.82925 0.0
O69 O 0.08323 0.37411 0.82732 0.0
C70 C 0.10605 0.43933 0.84948 0.0
O71 O 0.12204 0.43518 0.82979 0.0
O72 O 0.10836 0.41931 0.86612 0.0
O73 O 0.13044 0.366 0.90782 0.0
O74 O 0.18446 0.37365 0.8632 0.0
C75 C 0.19396 0.34565 0.8593 0.0
O76 O 0.17289 0.32298 0.85824 0.0
O77 O 0.11304 0.33886 0.84605 0.0
Mg78 Mg 0.15177 0.0997 0.38357 0.0
C79 C 0.14214 0.08201 0.43618 0.0
O80 O 0.12079 0.06278 0.42743 0.0
C81 C 0.1695 0.06889 0.3392 0.0
O82 O 0.1418 0.08156 0.33525 0.0
C83 C 0.07882 0.09478 0.38766 0.0
O84 O 0.08219 0.11267 0.40655 0.0
O85 O 0.10285 0.08815 0.37517 0.0
O86 O 0.15954 0.09752 0.42199 0.0
O87 O 0.16852 0.14605 0.37322 0.0
C88 C 0.17126 0.16849 0.38807 0.0
O89 O 0.15851 0.16555 0.40917 0.0
O90 O 0.18058 0.07027 0.36019 0.0
Mg91 Mg 0.38783 0.15816 0.88633 0.0
C92 C 0.34641 0.14661 0.92937 0.0
O93 O 0.3442 0.17742 0.92788 0.0
C94 C 0.39371 0.16031 0.83345 0.0
O95 O 0.42283 0.1547 0.83995 0.0
C96 C 0.43454 0.10834 0.87999 0.0
O97 O 0.40833 0.09635 0.87143 0.0
O98 O 0.43417 0.13646 0.88795 0.0
O99 O 0.36054 0.13178 0.91283 0.0
O100 O 0.38443 0.20795 0.89548 0.0
C101 C 0.39014 0.22884 0.87989 0.0
O102 O 0.40633 0.22076 0.861 0.0
O103 O 0.3722 0.15944 0.84921 0.0
Mg104 Mg 0.67376 0.92358 0.90502 0.0
C105 C 0.65522 0.92581 0.95521 0.0
O106 O 0.62861 0.92217 0.94364 0.0
C107 C 0.70003 0.92976 0.85863 0.0
O108 O 0.67443 0.9124 0.85714 0.0
C109 C 0.62857 0.97177 0.88716 0.0
O110 O 0.65571 0.98464 0.88158 0.0
O111 O 0.62832 0.9445 0.89652 0.0
O112 O 0.68048 0.92946 0.94332 0.0
O113 O 0.67866 0.87307 0.89963 0.0
C114 C 0.7022 0.86211 0.91085 0.0
O115 O 0.71802 0.88105 0.92498 0.0
O116 O 0.70753 0.94103 0.87885 0.0
Mg117 Mg 0.62751 0.63881 0.38115 0.0
C118 C 0.67601 0.66774 0.34887 0.0
O119 O 0.65177 0.66783 0.33444 0.0
C120 C 0.58912 0.58177 0.38782 0.0
O121 O 0.58349 0.5991 0.40668 0.0
C122 C 0.58199 0.666 0.3457 0.0
O123 O 0.57843 0.63583 0.3411 0.0
O124 O 0.59813 0.67411 0.36377 0.0
O125 O 0.67405 0.65225 0.36814 0.0
O126 O 0.63109 0.64155 0.41993 0.0
C127 C 0.65281 0.62466 0.42889 0.0
O128 O 0.67095 0.60848 0.41446 0.0
O129 O 0.60879 0.59198 0.37261 0.0
Mg130 Mg 0.85756 0.60484 0.88627 0.0
C131 C 0.8597 0.62102 0.93745 0.0
O132 O 0.86661 0.64757 0.92672 0.0
C133 C 0.82459 0.59333 0.84177 0.0
O134 O 0.84075 0.61947 0.83882 0.0
C135 C 0.90945 0.56632 0.86771 0.0
O136 O 0.88464 0.54782 0.86675 0.0
O137 O 0.90583 0.59442 0.87523 0.0
O138 O 0.85427 0.59658 0.92481 0.0
O139 O 0.84029 0.65288 0.88226 0.0
C140 C 0.81111 0.65411 0.88737 0.0
O141 O 0.79682 0.62787 0.89355 0.0
O142 O 0.82661 0.57912 0.86161 0.0
Mg143 Mg 0.88656 0.86463 0.38719 0.0
C144 C 0.81859 0.84597 0.38452 0.0
O145 O 0.82369 0.84116 0.40717 0.0
C146 C 0.90469 0.93514 0.37573 0.0
O147 O 0.87482 0.94028 0.37114 0.0
C148 C 0.90245 0.83464 0.34336 0.0
O149 O 0.88958 0.86203 0.33853 0.0
O150 O 0.90787 0.82804 0.36504 0.0
O151 O 0.83924 0.86066 0.37251 0.0
O152 O 0.88418 0.859 0.42585 0.0
C153 C 0.86953 0.88128 0.43629 0.0
O154 O 0.85782 0.90407 0.42327 0.0
O155 O 0.91365 0.90762 0.38148 0.0
Mg156 Mg 0.66696 0.58484 0.65677 0.0
C157 C 0.684 0.60504 0.60654 0.0
O158 O 0.69342 0.63017 0.61821 0.0
C159 C 0.68879 0.55125 0.70009 0.0
O160 O 0.6582 0.55273 0.70327 0.0
C161 C 0.6082 0.54728 0.64916 0.0
O162 O 0.62444 0.54088 0.62993 0.0
O163 O 0.61961 0.56679 0.66407 0.0
O164 O 0.67422 0.58126 0.61821 0.0
O165 O 0.6746 0.63454 0.66526 0.0
C166 C 0.69002 0.64276 0.68364 0.0
O167 O 0.69678 0.62144 0.69965 0.0
O168 O 0.69992 0.56013 0.68019 0.0
Mg169 Mg 0.88238 0.64322 0.16718 0.0
C170 C 0.81868 0.67223 0.16759 0.0
O171 O 0.8294 0.68238 0.14716 0.0
C172 C 0.92907 0.59582 0.18452 0.0
O173 O 0.94221 0.62235 0.19143 0.0
C174 C 0.89589 0.67328 0.21173 0.0
O175 O 0.87885 0.64804 0.21602 0.0
O176 O 0.90482 0.67818 0.19044 0.0
O177 O 0.83434 0.65165 0.17888 0.0
O178 O 0.88481 0.64787 0.12838 0.0
C179 C 0.86494 0.63103 0.11702 0.0
O180 O 0.84475 0.614 0.12918 0.0
O181 O 0.90204 0.59683 0.17482 0.0
Mg182 Mg 0.85292 0.89899 0.66578 0.0
C183 C 0.83601 0.8857 0.61423 0.0
O184 O 0.82516 0.8598 0.62398 0.0
C185 C 0.83462 0.91797 0.71292 0.0
O186 O 0.85881 0.89888 0.71485 0.0
C187 C 0.90342 0.94247 0.67693 0.0
O188 O 0.87769 0.95939 0.67498 0.0
O189 O 0.90139 0.9128 0.67371 0.0
O190 O 0.84679 0.90749 0.6276 0.0
O191 O 0.83855 0.85042 0.67297 0.0
C192 C 0.80914 0.84821 0.6772 0.0
O193 O 0.79204 0.87395 0.67661 0.0
O194 O 0.82534 0.92522 0.69213 0.0
Mg195 Mg 0.61498 0.85509 0.17641 0.0
C196 C 0.66504 0.83674 0.21083 0.0
O197 O 0.64016 0.83237 0.22424 0.0
C198 C 0.59003 0.92378 0.1873 0.0
O199 O 0.61933 0.93371 0.18679 0.0
C200 C 0.57346 0.81603 0.20807 0.0
O201 O 0.56232 0.84431 0.21243 0.0
O202 O 0.5933 0.81268 0.19131 0.0
O203 O 0.66192 0.85238 0.19174 0.0
O204 O 0.62176 0.85624 0.13791 0.0
C205 C 0.63703 0.8802 0.13056 0.0
O206 O 0.64751 0.90055 0.14631 0.0
O207 O 0.58411 0.89458 0.1847 0.0
C208 C 0.3255 0.14828 0.97087 0.0
C209 C 0.33843 0.1307 0.95213 0.0
C210 C 0.32342 0.13584 0.99388 0.0
C211 C 0.3343 0.10489 0.99839 0.0
C212 C 0.34499 0.08611 0.97919 0.0
C213 C 0.34704 0.09925 0.95631 0.0
C214 C 0.31181 0.15678 1.01372 0.0
C215 C 0.35631 0.05284 0.98308 0.0
C216 C 0.37077 0.09525 0.05938 0.0
C217 C 0.34609 0.08196 0.07258 0.0
C218 C 0.36753 0.1016 0.03512 0.0
C219 C 0.33889 0.09433 1.02346 0.0
C220 C 0.31437 0.07941 0.03633 0.0
C221 C 0.3182 0.07347 0.06079 0.0
C222 C 0.39438 0.11751 1.02223 0.0
C223 C 0.28365 0.07087 0.0245 0.0
H224 H 0.31846 0.17248 0.96787 0.0
H225 H 0.35686 0.08533 0.94199 0.0
H226 H 0.29433 0.14412 0.02478 0.0
H227 H 0.33186 0.1633 0.02538 0.0
H228 H 0.30089 0.17878 1.00699 0.0
H229 H 0.3586 0.03963 0.96613 0.0
H230 H 0.37968 0.05343 0.99186 0.0
H231 H 0.33998 0.03986 0.99493 0.0
H232 H 0.39255 0.10166 0.06819 0.0
H233 H 0.299 0.06318 0.07079 0.0
H234 H 0.38693 0.14125 1.01625 0.0
H235 H 0.40087 0.10377 1.00621 0.0
H236 H 0.41563 0.12019 0.03354 0.0
H237 H 0.27032 0.09266 1.0205 0.0
H238 H 0.26879 0.05555 0.03589 0.0
H239 H 0.288 0.0586 1.00742 0.0
C240 C 0.33441 0.39808 0.47065 0.0
C241 C 0.36332 0.40486 0.45976 0.0
C242 C 0.33247 0.39316 0.49532 0.0
C243 C 0.36003 0.39534 0.50943 0.0
C244 C 0.38914 0.40269 0.49853 0.0
C245 C 0.39042 0.40724 0.47391 0.0
C246 C 0.30102 0.38528 0.50626 0.0
C247 C 0.41904 0.40562 0.51288 0.0
C248 C 0.35495 0.41251 0.57556 0.0
C249 C 0.36128 0.3829 0.58557 0.0
C250 C 0.35365 0.41667 0.55089 0.0
C251 C 0.35864 0.39057 0.53567 0.0
C252 C 0.36429 0.36044 0.54561 0.0
C253 C 0.36562 0.35696 0.57043 0.0
C254 C 0.34777 0.44923 0.5411 0.0
C255 C 0.36959 0.33198 0.53001 0.0
H256 H 0.3134 0.39595 0.45986 0.0
H257 H 0.41288 0.41254 0.46571 0.0
H258 H 0.30231 0.36209 0.51525 0.0
H259 H 0.29493 0.40306 0.51996 0.0
H260 H 0.28181 0.38444 0.49291 0.0
H261 H 0.43975 0.41165 0.50174 0.0
H262 H 0.41627 0.42412 0.52666 0.0
H263 H 0.4239 0.38313 0.52216 0.0
H264 H 0.35148 0.43274 0.58703 0.0
H265 H 0.37037 0.33398 0.57796 0.0
H266 H 0.32762 0.44873 0.52859 0.0
H267 H 0.36869 0.45729 0.53101 0.0
H268 H 0.34275 0.46675 0.55527 0.0
H269 H 0.34993 0.32937 0.51719 0.0
H270 H 0.37164 0.30989 0.54041 0.0
H271 H 0.39149 0.33521 0.51957 0.0
C272 C 0.1387 0.36221 0.95934 0.0
C273 C 0.13655 0.39032 0.94644 0.0
C274 C 0.1398 0.36261 0.98432 0.0
C275 C 0.1381 0.39176 0.99665 0.0
C276 C 0.13554 0.42012 0.98366 0.0
C277 C 0.13505 0.41906 0.9588 0.0
C278 C 0.14291 0.33189 0.99753 0.0
C279 C 0.133 0.45165 0.99603 0.0
C280 C 0.10887 0.39214 0.06037 0.0
C281 C 0.13682 0.39643 0.07326 0.0
C282 C 0.109 0.39053 0.03551 0.0
C283 C 0.13789 0.39274 1.02313 0.0
C284 C 0.16626 0.39701 0.03602 0.0
C285 C 0.16536 0.3991 0.06095 0.0
C286 C 0.07815 0.38667 1.0225 0.0
C287 C 0.19757 0.39911 1.02349 0.0
H288 H 0.1401 0.33995 0.94992 0.0
H289 H 0.13319 0.44092 0.94899 0.0
H290 H 0.16394 0.33268 1.0092 0.0
H291 H 0.12211 0.32827 1.0091 0.0
H292 H 0.14503 0.31136 0.98538 0.0
H293 H 0.13108 0.47153 0.98334 0.0
H294 H 0.11202 0.45186 1.00774 0.0
H295 H 0.15391 0.45564 1.00744 0.0
H296 H 0.08668 0.39017 0.06975 0.0
H297 H 0.18708 0.40208 0.07081 0.0
H298 H 0.07858 0.36487 1.0116 0.0
H299 H 0.0746 0.40674 1.01022 0.0
H300 H 0.05771 0.38543 0.03475 0.0
H301 H 0.20124 0.37777 1.01241 0.0
H302 H 0.21757 0.40142 0.03607 0.0
H303 H 0.19778 0.4197 1.01141 0.0
C304 C 0.11841 0.14304 0.5699 0.0
C305 C 0.13675 0.12596 0.58606 0.0
C306 C 0.11999 0.13679 0.54537 0.0
C307 C 0.14042 0.11296 0.53677 0.0
C308 C 0.15944 0.09615 0.55297 0.0
C309 C 0.15737 0.10283 0.57733 0.0
C310 C 0.09934 0.15528 0.52867 0.0
C311 C 0.18161 0.07064 0.54463 0.0
C312 C 0.12206 0.07348 0.47754 0.0
C313 C 0.14307 0.0887 0.46211 0.0
C314 C 0.1209 0.08124 0.50178 0.0
C315 C 0.14126 0.1048 0.51096 0.0
C316 C 0.16279 0.11999 0.49556 0.0
C317 C 0.16345 0.11178 0.47137 0.0
C318 C 0.09767 0.06435 0.51757 0.0
C319 C 0.185 0.14512 0.50462 0.0
H320 H 0.10241 0.16092 0.57643 0.0
H321 H 0.17176 0.08952 0.58959 0.0
H322 H 0.11391 0.1666 0.51476 0.0
H323 H 0.08266 0.13911 0.51958 0.0
H324 H 0.08562 0.17381 0.538 0.0
H325 H 0.19564 0.06053 0.55938 0.0
H326 H 0.16803 0.05135 0.53608 0.0
H327 H 0.19802 0.08018 0.53113 0.0
H328 H 0.10612 0.05572 0.47062 0.0
H329 H 0.17968 0.12382 0.45964 0.0
H330 H 0.08155 0.08164 0.52593 0.0
H331 H 0.11034 0.05214 0.53208 0.0
H332 H 0.08338 0.0467 0.50771 0.0
H333 H 0.17139 0.1648 0.51254 0.0
H334 H 0.20031 0.15472 0.4904 0.0
H335 H 0.20016 0.13534 0.51882 0.0
C336 C 0.65279 0.91608 0.0975 0.0
C337 C 0.64207 0.88633 0.10489 0.0
C338 C 0.65686 0.92311 0.07338 0.0
C339 C 0.65049 0.89972 0.05609 0.0
C340 C 0.6404 0.86938 0.06342 0.0
C341 C 0.63607 0.86311 0.08772 0.0
C342 C 0.66715 0.95589 0.06638 0.0
C343 C 0.63371 0.84368 0.04555 0.0
C344 C 0.62726 0.92581 0.99407 0.0
C345 C 0.65538 0.92194 0.98135 0.0
C346 C 0.62555 0.91907 1.01838 0.0
C347 C 0.65251 0.90769 0.03034 0.0
C348 C 0.68117 0.90421 1.01771 0.0
C349 C 0.68234 0.91161 0.99338 0.0
C350 C 0.59468 0.92375 0.0312 0.0
C351 C 0.71036 0.89189 0.02977 0.0
H352 H 0.65742 0.93427 0.11058 0.0
H353 H 0.62798 0.84003 0.09326 0.0
H354 H 0.6885 0.95474 0.05511 0.0
H355 H 0.64839 0.96727 0.05574 0.0
H356 H 0.67231 0.97106 0.08201 0.0
H357 H 0.62811 0.8208 0.05413 0.0
H358 H 0.61352 0.85057 0.03422 0.0
H359 H 0.65431 0.8404 0.03371 0.0
H360 H 0.60635 0.93387 0.98491 0.0
H361 H 0.70403 0.90821 0.9836 0.0
H362 H 0.59805 0.93982 0.04655 0.0
H363 H 0.58615 0.9009 0.03825 0.0
H364 H 0.57619 0.93374 1.01951 0.0
H365 H 0.71649 0.90705 0.04516 0.0
H366 H 0.73088 0.89093 1.01759 0.0
H367 H 0.70582 0.86786 0.0367 0.0
C368 C 0.66428 0.58312 0.56772 0.0
C369 C 0.68124 0.60623 0.58024 0.0
C370 C 0.65918 0.58576 0.54313 0.0
C371 C 0.6715 0.61203 0.53068 0.0
C372 C 0.68916 0.63507 0.54314 0.0
C373 C 0.69372 0.63194 0.56771 0.0
C374 C 0.6402 0.56069 0.53052 0.0
C375 C 0.70301 0.66325 0.53056 0.0
C376 C 0.68339 0.60545 0.46394 0.0
C377 C 0.65743 0.62208 0.45499 0.0
C378 C 0.68815 0.60195 0.48844 0.0
C379 C 0.66636 0.61526 0.50456 0.0
C380 C 0.64006 0.63208 0.49569 0.0
C381 C 0.63596 0.63538 0.47103 0.0
C382 C 0.71663 0.58408 0.49707 0.0
C383 C 0.61622 0.64653 0.51229 0.0
H384 H 0.65434 0.56328 0.57723 0.0
H385 H 0.70687 0.64994 0.57715 0.0
H386 H 0.61919 0.57145 0.52215 0.0
H387 H 0.65441 0.54995 0.51613 0.0
H388 H 0.63228 0.54172 0.5427 0.0
H389 H 0.71648 0.67888 0.54274 0.0
H390 H 0.71892 0.6553 0.51615 0.0
H391 H 0.68396 0.67721 0.52222 0.0
H392 H 0.70019 0.5951 0.45175 0.0
H393 H 0.61578 0.64814 0.46432 0.0
H394 H 0.70911 0.56384 0.50813 0.0
H395 H 0.73139 0.59959 0.5084 0.0
H396 H 0.73131 0.57506 0.48224 0.0
H397 H 0.60595 0.62804 0.52383 0.0
H398 H 0.59683 0.65846 0.50263 0.0
H399 H 0.62792 0.664 0.52404 0.0
C400 C 0.86643 0.59351 0.97672 0.0
C401 C 0.8587 0.62057 0.96378 0.0
C402 C 0.86819 0.5944 1.0017 0.0
C403 C 0.86129 0.6228 1.014 0.0
C404 C 0.85257 0.64987 1.00096 0.0
C405 C 0.85176 0.6485 0.97609 0.0
C406 C 0.87805 0.56516 1.01491 0.0
C407 C 0.84416 0.68038 1.01326 0.0
C408 C 0.83704 0.6191 0.07898 0.0
C409 C 0.86427 0.62974 0.09066 0.0
C410 C 0.83582 0.61662 0.05414 0.0
C411 C 0.86271 0.62435 0.04051 0.0
C412 C 0.89042 0.63486 0.0522 0.0
C413 C 0.89076 0.63777 0.07711 0.0
C414 C 0.80555 0.6061 0.04247 0.0
C415 C 0.91975 0.64292 0.03838 0.0
H416 H 0.87211 0.57196 0.96729 0.0
H417 H 0.84555 0.66948 0.96621 0.0
H418 H 0.89954 0.57019 0.02548 0.0
H419 H 0.85936 0.55804 0.02754 0.0
H420 H 0.88294 0.54507 1.0028 0.0
H421 H 0.83682 0.69896 1.00058 0.0
H422 H 0.82471 0.67633 0.02602 0.0
H423 H 0.86464 0.68922 1.02353 0.0
H424 H 0.81639 0.61297 0.08928 0.0
H425 H 0.91197 0.64572 0.08601 0.0
H426 H 0.80972 0.58467 0.03162 0.0
H427 H 0.79701 0.62473 0.0303 0.0
H428 H 0.78674 0.60089 0.05557 0.0
H429 H 0.92673 0.62261 0.02712 0.0
H430 H 0.9398 0.64928 0.05011 0.0
H431 H 0.915 0.66302 0.02636 0.0
C432 C 0.84247 0.90248 0.47232 0.0
C433 C 0.86465 0.88176 0.46241 0.0
C434 C 0.83736 0.90387 0.4969 0.0
C435 C 0.85516 0.88438 0.51216 0.0
C436 C 0.87773 0.8635 0.50233 0.0
C437 C 0.88204 0.86225 0.47756 0.0
C438 C 0.8127 0.92607 0.50652 0.0
C439 C 0.89743 0.84257 0.518 0.0
C440 C 0.86064 0.9082 0.57739 0.0
C441 C 0.83923 0.88732 0.588 0.0
C442 C 0.86622 0.90739 0.55277 0.0
C443 C 0.84965 0.88552 0.53834 0.0
C444 C 0.8274 0.865 0.5489 0.0
C445 C 0.82265 0.86599 0.57355 0.0
C446 C 0.89032 0.9295 0.54227 0.0
C447 C 0.80874 0.84178 0.53416 0.0
H448 H 0.82875 0.91755 0.46079 0.0
H449 H 0.89931 0.8463 0.47009 0.0
H450 H 0.7947 0.9126 0.51655 0.0
H451 H 0.82363 0.94305 0.51905 0.0
H452 H 0.8007 0.93952 0.49228 0.0
H453 H 0.9145 0.82822 0.50771 0.0
H454 H 0.9106 0.85714 0.53105 0.0
H455 H 0.88198 0.82644 0.5282 0.0
H456 H 0.87379 0.92454 0.58841 0.0
H457 H 0.80601 0.84981 0.58157 0.0
H458 H 0.87918 0.94452 0.52857 0.0
H459 H 0.90911 0.91573 0.53337 0.0
H460 H 0.90131 0.94501 0.55586 0.0
H461 H 0.79554 0.8544 0.52014 0.0
H462 H 0.79178 0.82799 0.54498 0.0
H463 H 0.82494 0.82513 0.52516 0.0
C464 C 0.19449 0.28901 0.16189 0.0
C465 C 0.20071 0.30943 0.14297 0.0
C466 C 0.20969 0.25966 0.16345 0.0
C467 C 0.23108 0.25046 0.14544 0.0
C468 C 0.23683 0.27077 0.12606 0.0
C469 C 0.22177 0.30007 0.12517 0.0
C470 C 0.20324 0.23871 0.18449 0.0
C471 C 0.25895 0.26157 0.10625 0.0
C472 C 0.29305 0.18741 0.15592 0.0
C473 C 0.27896 0.16105 0.14524 0.0
C474 C 0.27734 0.21654 0.15674 0.0
C475 C 0.24706 0.21934 0.14641 0.0
C476 C 0.23272 0.19274 0.13574 0.0
C477 C 0.24878 0.16394 0.13537 0.0
C478 C 0.29325 0.24438 0.16843 0.0
C479 C 0.20065 0.19484 0.12426 0.0
H480 H 0.17843 0.29632 0.17578 0.0
H481 H 0.22651 0.31572 0.11043 0.0
H482 H 0.19374 0.21569 0.17841 0.0
H483 H 0.22552 0.23389 0.19408 0.0
H484 H 0.18621 0.24943 0.19708 0.0
H485 H 0.26049 0.27991 0.09227 0.0
H486 H 0.28288 0.25745 0.11345 0.0
H487 H 0.25095 0.2392 0.09796 0.0
H488 H 0.31625 0.18526 0.16374 0.0
H489 H 0.2377 0.14369 0.12706 0.0
H490 H 0.27763 0.25463 0.18219 0.0
H491 H 0.2977 0.26304 0.15509 0.0
H492 H 0.316 0.2379 0.17679 0.0
H493 H 0.18314 0.20382 0.13719 0.0
H494 H 0.19235 0.17171 0.11739 0.0
H495 H 0.20145 0.21179 0.10932 0.0
C496 C 0.29303 0.30621 0.69543 0.0
C497 C 0.28325 0.32416 0.67589 0.0
C498 C 0.27537 0.28015 0.70315 0.0
C499 C 0.24696 0.27241 0.69136 0.0
C500 C 0.23576 0.2921 0.67293 0.0
C501 C 0.25429 0.31747 0.66518 0.0
C502 C 0.2884 0.25963 0.72262 0.0
C503 C 0.2051 0.28521 0.66035 0.0
C504 C 0.21587 0.18959 0.68279 0.0
C505 C 0.18952 0.18971 0.69772 0.0
C506 C 0.23649 0.21547 0.68207 0.0
C507 C 0.2303 0.24226 0.69638 0.0
C508 C 0.20541 0.24133 0.71302 0.0
C509 C 0.18538 0.21497 0.71359 0.0
C510 C 0.26346 0.21509 0.66464 0.0
C511 C 0.19822 0.26922 0.72876 0.0
H512 H 0.31567 0.31099 0.70357 0.0
H513 H 0.24677 0.33128 0.65006 0.0
H514 H 0.2698 0.25335 0.73557 0.0
H515 H 0.29724 0.23732 0.71481 0.0
H516 H 0.30813 0.27128 0.7322 0.0
H517 H 0.19816 0.30455 0.64819 0.0
H518 H 0.2074 0.26319 0.64984 0.0
H519 H 0.18593 0.28152 0.67342 0.0
H520 H 0.21941 0.17002 0.67068 0.0
H521 H 0.1651 0.21533 0.72525 0.0
H522 H 0.28541 0.22361 0.67321 0.0
H523 H 0.25813 0.23123 0.64973 0.0
H524 H 0.26768 0.19116 0.65728 0.0
H525 H 0.2201 0.2793 0.7364 0.0
H526 H 0.1821 0.26279 0.74347 0.0
H527 H 0.18694 0.28794 0.71803 0.0
C528 C 0.29598 0.309 0.36593 0.0
C529 C 0.31846 0.3073 0.38414 0.0
C530 C 0.27184 0.28644 0.36399 0.0
C531 C 0.27064 0.26114 0.38028 0.0
C532 C 0.29451 0.25819 0.39769 0.0
C533 C 0.31788 0.28154 0.39962 0.0
C534 C 0.24657 0.29082 0.34547 0.0
C535 C 0.29462 0.23105 0.41496 0.0
C536 C 0.1932 0.222 0.397 0.0
C537 C 0.1942 0.19416 0.3836 0.0
C538 C 0.21727 0.24465 0.39526 0.0
C539 C 0.24339 0.23893 0.38022 0.0
C540 C 0.24405 0.21128 0.36612 0.0
C541 C 0.21926 0.18942 0.36777 0.0
C542 C 0.21522 0.27426 0.41009 0.0
C543 C 0.27171 0.20397 0.35024 0.0
H544 H 0.29603 0.32904 0.35404 0.0
H545 H 0.33523 0.2801 0.41368 0.0
H546 H 0.24303 0.26878 0.33518 0.0
H547 H 0.22391 0.29635 0.35432 0.0
H548 H 0.25226 0.3102 0.33295 0.0
H549 H 0.31653 0.23034 0.4257 0.0
H550 H 0.27427 0.23318 0.42717 0.0
H551 H 0.29209 0.20833 0.40533 0.0
H552 H 0.17386 0.22581 0.40921 0.0
H553 H 0.22038 0.16779 0.35752 0.0
H554 H 0.21896 0.29535 0.39884 0.0
H555 H 0.23404 0.27418 0.42373 0.0
H556 H 0.19213 0.27649 0.41918 0.0
H557 H 0.27674 0.22414 0.33835 0.0
H558 H 0.26767 0.1826 0.33922 0.0
H559 H 0.29301 0.20018 0.36125 0.0
C560 C 0.34793 0.26302 0.89702 0.0
C561 C 0.37033 0.25765 0.87921 0.0
C562 C 0.32305 0.28421 0.89351 0.0
C563 C 0.32071 0.30072 0.87177 0.0
C564 C 0.34531 0.2982 0.85494 0.0
C565 C 0.3698 0.2766 0.85881 0.0
C566 C 0.29749 0.28625 0.91205 0.0
C567 C 0.3443 0.31589 0.83178 0.0
C568 C 0.23635 0.30694 0.851 0.0
C569 C 0.22779 0.33714 0.85883 0.0
C570 C 0.267 0.2956 0.85398 0.0
C571 C 0.28995 0.31497 0.86499 0.0
C572 C 0.28217 0.34636 0.87135 0.0
C573 C 0.25105 0.3571 0.86827 0.0
C574 C 0.27425 0.2621 0.84659 0.0
C575 C 0.30624 0.36803 0.88244 0.0
H576 H 0.34835 0.24888 0.91299 0.0
H577 H 0.38721 0.27301 0.84502 0.0
H578 H 0.29074 0.31112 0.91528 0.0
H579 H 0.27624 0.27358 0.90559 0.0
H580 H 0.30483 0.27557 0.92914 0.0
H581 H 0.36826 0.31885 0.8242 0.0
H582 H 0.32994 0.30239 0.81882 0.0
H583 H 0.33343 0.33947 0.834 0.0
H584 H 0.21867 0.29153 0.84332 0.0
H585 H 0.24465 0.38053 0.87425 0.0
H586 H 0.2799 0.24783 0.86248 0.0
H587 H 0.29513 0.26158 0.8348 0.0
H588 H 0.25425 0.25074 0.83715 0.0
H589 H 0.31034 0.36092 0.90109 0.0
H590 H 0.29837 0.39298 0.88233 0.0
H591 H 0.32908 0.36629 0.87298 0.0
C592 C 0.73395 0.81598 0.9234 0.0
C593 C 0.71427 0.82997 0.90651 0.0
C594 C 0.74866 0.78706 0.9189 0.0
C595 C 0.74395 0.77191 0.89679 0.0
C596 C 0.72367 0.78563 0.87976 0.0
C597 C 0.70882 0.81447 0.88491 0.0
C598 C 0.76959 0.77293 0.93773 0.0
C599 C 0.7183 0.77026 0.85593 0.0
C600 C 0.80755 0.71259 0.88078 0.0
C601 C 0.79348 0.68421 0.88784 0.0
C602 C 0.79115 0.74127 0.88257 0.0
C603 C 0.76014 0.74151 0.89186 0.0
C604 C 0.74555 0.71282 0.89834 0.0
C605 C 0.76233 0.68456 0.89616 0.0
C606 C 0.80734 0.77141 0.87524 0.0
C607 C 0.71267 0.71207 0.90852 0.0
H608 H 0.73813 0.82785 0.94016 0.0
H609 H 0.69392 0.82543 0.8717 0.0
H610 H 0.7613 0.74886 0.94225 0.0
H611 H 0.79398 0.77073 0.93092 0.0
H612 H 0.77012 0.78733 0.95421 0.0
H613 H 0.70142 0.78366 0.84481 0.0
H614 H 0.74098 0.7684 0.84628 0.0
H615 H 0.70919 0.74595 0.8583 0.0
H616 H 0.83151 0.71248 0.87418 0.0
H617 H 0.75116 0.66276 0.9016 0.0
H618 H 0.81158 0.78637 0.89109 0.0
H619 H 0.79207 0.78498 0.86302 0.0
H620 H 0.83026 0.76695 0.86638 0.0
H621 H 0.71242 0.72443 0.92589 0.0
H622 H 0.70389 0.68764 0.91115 0.0
H623 H 0.6961 0.72467 0.89668 0.0
C624 C 0.69459 0.71936 0.33271 0.0
C625 C 0.70059 0.69243 0.34643 0.0
C626 C 0.71396 0.74618 0.33434 0.0
C627 C 0.74026 0.74587 0.34975 0.0
C628 C 0.74798 0.71775 0.36197 0.0
C629 C 0.72787 0.69149 0.36037 0.0
C630 C 0.70467 0.77557 0.32106 0.0
C631 C 0.77639 0.71606 0.378 0.0
C632 C 0.80277 0.81032 0.35125 0.0
C633 C 0.79498 0.82595 0.37242 0.0
C634 C 0.78436 0.78503 0.34284 0.0
C635 C 0.75726 0.77568 0.35569 0.0
C636 C 0.74796 0.79322 0.37594 0.0
C637 C 0.76719 0.81782 0.38424 0.0
C638 C 0.79536 0.76688 0.32134 0.0
C639 C 0.71871 0.78473 0.38975 0.0
H640 H 0.67351 0.72041 0.3219 0.0
H641 H 0.73281 0.67069 0.37084 0.0
H642 H 0.6933 0.79229 0.33354 0.0
H643 H 0.72558 0.78754 0.31347 0.0
H644 H 0.68778 0.77032 0.30651 0.0
H645 H 0.7815 0.69153 0.38365 0.0
H646 H 0.79745 0.72574 0.36892 0.0
H647 H 0.77223 0.73058 0.39409 0.0
H648 H 0.82453 0.81621 0.34223 0.0
H649 H 0.76119 0.82985 0.40061 0.0
H650 H 0.77538 0.7613 0.30937 0.0
H651 H 0.80571 0.74417 0.32713 0.0
H652 H 0.81351 0.78006 0.31118 0.0
H653 H 0.69834 0.78189 0.3776 0.0
H654 H 0.71279 0.80284 0.40329 0.0
H655 H 0.7223 0.76189 0.39888 0.0
C656 C 0.76287 0.81706 0.69082 0.0
C657 C 0.79333 0.81754 0.68119 0.0
C658 C 0.74586 0.78886 0.69287 0.0
C659 C 0.7595 0.76037 0.68492 0.0
C660 C 0.79064 0.76048 0.67585 0.0
C661 C 0.8073 0.78911 0.6742 0.0
C662 C 0.71292 0.78974 0.70292 0.0
C663 C 0.80594 0.73053 0.66715 0.0
C664 C 0.72352 0.68258 0.70469 0.0
C665 C 0.70519 0.67424 0.68491 0.0
C666 C 0.74117 0.71062 0.70503 0.0
C667 C 0.74056 0.73078 0.68509 0.0
C668 C 0.72154 0.72288 0.6653 0.0
C669 C 0.704 0.69479 0.66548 0.0
C670 C 0.76086 0.71839 0.72657 0.0
C671 C 0.7202 0.74381 0.64371 0.0
H672 H 0.75203 0.83893 0.6965 0.0
H673 H 0.83078 0.78936 0.6667 0.0
H674 H 0.69573 0.78294 0.68899 0.0
H675 H 0.71055 0.77248 0.71755 0.0
H676 H 0.70653 0.81347 0.70975 0.0
H677 H 0.83079 0.7343 0.66172 0.0
H678 H 0.80527 0.71231 0.68121 0.0
H679 H 0.79263 0.7211 0.65175 0.0
H680 H 0.72463 0.66687 0.71979 0.0
H681 H 0.69004 0.68852 0.65008 0.0
H682 H 0.75404 0.74174 0.73379 0.0
H683 H 0.78605 0.7199 0.72152 0.0
H684 H 0.7583 0.70051 0.74081 0.0
H685 H 0.71203 0.76771 0.64881 0.0
H686 H 0.70421 0.73435 0.6298 0.0
H687 H 0.7441 0.74643 0.63602 0.0
C688 C 0.80133 0.7045 0.20208 0.0
C689 C 0.79461 0.69115 0.17985 0.0
C690 C 0.78211 0.7283 0.21165 0.0
C691 C 0.75513 0.7382 0.19893 0.0
C692 C 0.7472 0.72311 0.17725 0.0
C693 C 0.76744 0.70026 0.16773 0.0
C694 C 0.7918 0.74415 0.23453 0.0
C695 C 0.71804 0.73209 0.16354 0.0
C696 C 0.68811 0.78599 0.22488 0.0
C697 C 0.69202 0.8148 0.21298 0.0
C698 C 0.70975 0.76132 0.22191 0.0
C699 C 0.7362 0.76576 0.20704 0.0
C700 C 0.74197 0.79587 0.19708 0.0
C701 C 0.71961 0.81993 0.19993 0.0
C702 C 0.70245 0.72973 0.23289 0.0
C703 C 0.77061 0.80202 0.18193 0.0
H704 H 0.82278 0.69789 0.21121 0.0
H705 H 0.76248 0.69006 0.15047 0.0
H706 H 0.79978 0.76855 0.23073 0.0
H707 H 0.77155 0.74586 0.24687 0.0
H708 H 0.81127 0.73144 0.24352 0.0
H709 H 0.7135 0.71588 0.14841 0.0
H710 H 0.69718 0.73195 0.17538 0.0
H711 H 0.72071 0.75635 0.15651 0.0
H712 H 0.66687 0.7817 0.23504 0.0
H713 H 0.72296 0.84223 0.19091 0.0
H714 H 0.72416 0.7171 0.23817 0.0
H715 H 0.68989 0.71489 0.21968 0.0
H716 H 0.6871 0.7323 0.24872 0.0
H717 H 0.792 0.79216 0.19039 0.0
H718 H 0.77434 0.8276 0.1788 0.0
H719 H 0.76765 0.79018 0.1645 0.0
C720 C 0.22097 0.05139 0.32121 0.0
C721 C 0.189 0.05888 0.31863 0.0
C722 C 0.24053 0.04778 0.30121 0.0
C723 C 0.22789 0.05218 0.27818 0.0
C724 C 0.1952 0.05735 0.2755 0.0
C725 C 0.17619 0.06038 0.29569 0.0
C726 C 0.27514 0.04151 0.30483 0.0
C727 C 0.18066 0.06253 0.25138 0.0
C728 C 0.27916 0.09267 0.2324 0.0
C729 C 0.28614 0.06817 0.2165 0.0
C730 C 0.26072 0.0875 0.2526 0.0
C731 C 0.24916 0.05686 0.2574 0.0
C732 C 0.25649 0.03178 0.24166 0.0
C733 C 0.27468 0.03779 0.22122 0.0
C734 C 0.25311 0.11514 0.26857 0.0
C735 C 0.24503 0.99871 0.24641 0.0
H736 H 0.23108 0.04989 0.33882 0.0
H737 H 0.15144 0.06574 0.29342 0.0
H738 H 0.2838 0.02395 0.29178 0.0
H739 H 0.2886 0.06363 0.30204 0.0
H740 H 0.28017 0.03283 0.32301 0.0
H741 H 0.15452 0.06225 0.25204 0.0
H742 H 0.18838 0.08573 0.2444 0.0
H743 H 0.1886 0.04426 0.23865 0.0
H744 H 0.28775 0.11628 0.22889 0.0
H745 H 0.2802 0.0187 0.20911 0.0
H746 H 0.26133 0.11037 0.28688 0.0
H747 H 0.22725 0.11859 0.26936 0.0
H748 H 0.26415 0.13742 0.26242 0.0
H749 H 0.2521 0.9913 0.26449 0.0
H750 H 0.25442 0.98147 0.23336 0.0
H751 H 0.21895 0.99799 0.24571 0.0
C752 C 0.40034 0.29464 0.74124 0.0
C753 C 0.39063 0.28961 0.71777 0.0
C754 C 0.39838 0.27065 0.75824 0.0
C755 C 0.38593 0.24082 0.75179 0.0
C756 C 0.37595 0.23555 0.72811 0.0
C757 C 0.3787 0.25994 0.71129 0.0
C758 C 0.40961 0.27729 0.78319 0.0
C759 C 0.362 0.20432 0.72064 0.0
C760 C 0.41242 0.17574 0.79315 0.0
C761 C 0.38813 0.17534 0.81003 0.0
C762 C 0.41105 0.19546 0.77323 0.0
C763 C 0.38461 0.21519 0.7699 0.0
C764 C 0.35891 0.21314 0.78589 0.0
C765 C 0.36097 0.19323 0.80578 0.0
C766 C 0.4391 0.19698 0.75683 0.0
C767 C 0.33001 0.2333 0.78272 0.0
H768 H 0.40943 0.31757 0.74638 0.0
H769 H 0.37051 0.25613 0.6933 0.0
H770 H 0.39018 0.27332 0.79599 0.0
H771 H 0.42888 0.26084 0.78789 0.0
H772 H 0.41833 0.30183 0.78541 0.0
H773 H 0.35337 0.20467 0.70205 0.0
H774 H 0.37993 0.1855 0.72234 0.0
H775 H 0.34213 0.19798 0.73248 0.0
H776 H 0.43343 0.16185 0.79616 0.0
H777 H 0.34207 0.19312 0.81869 0.0
H778 H 0.4514 0.21987 0.7593 0.0
H779 H 0.43147 0.19565 0.73805 0.0
H780 H 0.45616 0.1777 0.76023 0.0
H781 H 0.33641 0.2586 0.78423 0.0
H782 H 0.31152 0.22797 0.79605 0.0
H783 H 0.32006 0.22956 0.76475 0.0
C784 C 0.19711 0.39611 0.2375 0.0
C785 C 0.19906 0.41535 0.21733 0.0
C786 C 0.21711 0.40066 0.25699 0.0
C787 C 0.23941 0.42548 0.25664 0.0
C788 C 0.24071 0.44586 0.23676 0.0
C789 C 0.22074 0.44035 0.2172 0.0
C790 C 0.21526 0.37793 0.27754 0.0
C791 C 0.26374 0.47296 0.23592 0.0
C792 C 0.27717 0.44157 0.31689 0.0
C793 C 0.30491 0.42384 0.31515 0.0
C794 C 0.25638 0.44399 0.29748 0.0
C795 C 0.26321 0.42776 0.27607 0.0
C796 C 0.29166 0.4107 0.27405 0.0
C797 C 0.3122 0.40922 0.29347 0.0
C798 C 0.22662 0.46299 0.30014 0.0
C799 C 0.29969 0.39249 0.2518 0.0
H800 H 0.1805 0.37669 0.23783 0.0
H801 H 0.22221 0.45548 0.20178 0.0
H802 H 0.23769 0.3647 0.27898 0.0
H803 H 0.21196 0.39097 0.29442 0.0
H804 H 0.1957 0.3607 0.27554 0.0
H805 H 0.25931 0.48878 0.22062 0.0
H806 H 0.26243 0.48697 0.25253 0.0
H807 H 0.28807 0.46372 0.2345 0.0
H808 H 0.27146 0.45313 0.33349 0.0
H809 H 0.33355 0.39545 0.29184 0.0
H810 H 0.20603 0.44689 0.30084 0.0
H811 H 0.22334 0.47864 0.28461 0.0
H812 H 0.22678 0.4776 0.31652 0.0
H813 H 0.28223 0.3733 0.24911 0.0
H814 H 0.32354 0.38187 0.25258 0.0
H815 H 0.29848 0.40808 0.23608 0.0
C816 C 0.08997 0.24048 0.71148 0.0
C817 C 0.07141 0.21318 0.71351 0.0
C818 C 0.09164 0.26267 0.73003 0.0
C819 C 0.07409 0.25771 0.75107 0.0
C820 C 0.05415 0.23101 0.75274 0.0
C821 C 0.05316 0.20904 0.73402 0.0
C822 C 0.11299 0.29094 0.7274 0.0
C823 C 0.03475 0.22498 0.77469 0.0
C824 C 0.10553 0.29424 0.80825 0.0
C825 C 0.08724 0.32162 0.81035 0.0
C826 C 0.10136 0.27325 0.78914 0.0
C827 C 0.078 0.27944 0.77182 0.0
C828 C 0.05888 0.30657 0.77419 0.0
C829 C 0.06386 0.32741 0.7933 0.0
C830 C 0.12247 0.24476 0.78719 0.0
C831 C 0.03345 0.31385 0.75634 0.0
H832 H 0.10432 0.24386 0.6958 0.0
H833 H 0.03872 0.18808 0.73578 0.0
H834 H 0.09884 0.31286 0.72805 0.0
H835 H 0.12993 0.29201 0.74236 0.0
H836 H 0.12637 0.29052 0.71049 0.0
H837 H 0.01844 0.20468 0.77243 0.0
H838 H 0.05056 0.22004 0.78989 0.0
H839 H 0.02079 0.24618 0.77933 0.0
H840 H 0.12381 0.28963 0.82119 0.0
H841 H 0.04956 0.34845 0.79475 0.0
H842 H 0.1354 0.24529 0.7701 0.0
H843 H 0.10807 0.22292 0.78732 0.0
H844 H 0.13985 0.24354 0.80188 0.0
H845 H 0.04416 0.31802 0.73869 0.0
H846 H 0.01949 0.33494 0.76137 0.0
H847 H 0.01726 0.29343 0.75449 0.0
C848 C 0.74311 0.95725 0.83569 0.0
C849 C 0.72004 0.93364 0.83726 0.0
C850 C 0.76205 0.96006 0.81526 0.0
C851 C 0.75827 0.9383 0.79631 0.0
C852 C 0.73476 0.91471 0.79781 0.0
C853 C 0.71584 0.91289 0.81809 0.0
C854 C 0.78644 0.98591 0.81409 0.0
C855 C 0.7303 0.89055 0.77834 0.0
C856 C 0.79056 0.94687 0.73364 0.0
C857 C 0.81704 0.92723 0.73461 0.0
C858 C 0.7723 0.95264 0.75406 0.0
C859 C 0.78042 0.93796 0.77578 0.0
C860 C 0.80793 0.91932 0.77702 0.0
C861 C 0.82597 0.91443 0.75655 0.0
C862 C 0.74351 0.97322 0.75213 0.0
C863 C 0.81726 0.90273 0.79963 0.0
H864 H 0.74629 0.97352 0.85035 0.0
H865 H 0.69818 0.89446 0.81914 0.0
H866 H 0.81035 0.97551 0.81459 0.0
H867 H 0.7843 0.99895 0.79714 0.0
H868 H 0.7842 1.00287 0.82904 0.0
H869 H 0.71035 0.87428 0.78194 0.0
H870 H 0.72597 0.90244 0.76116 0.0
H871 H 0.75205 0.87634 0.77634 0.0
H872 H 0.78363 0.95708 0.71684 0.0
H873 H 0.84648 0.89936 0.75762 0.0
H874 H 0.74238 0.98995 0.76727 0.0
H875 H 0.72205 0.95832 0.75281 0.0
H876 H 0.74319 0.98681 0.73532 0.0
H877 H 0.81788 0.91958 0.81468 0.0
H878 H 0.84065 0.89122 0.7982 0.0
H879 H 0.79948 0.8844 0.80392 0.0
C880 C 0.55486 0.68103 0.30797 0.0
C881 C 0.57468 0.68934 0.32691 0.0
C882 C 0.55165 0.70068 0.28808 0.0
C883 C 0.56897 0.72918 0.28693 0.0
C884 C 0.5883 0.73817 0.30631 0.0
C885 C 0.5907 0.7183 0.32614 0.0
C886 C 0.53058 0.69037 0.26793 0.0
C887 C 0.60747 0.76819 0.30572 0.0
C888 C 0.58998 0.76531 0.2272 0.0
C889 C 0.56909 0.79085 0.22605 0.0
C890 C 0.58961 0.74453 0.24659 0.0
C891 C 0.5677 0.74922 0.26522 0.0
C892 C 0.54557 0.77401 0.26356 0.0
C893 C 0.54658 0.79453 0.24406 0.0
C894 C 0.61362 0.71839 0.24765 0.0
C895 C 0.52166 0.77969 0.2829 0.0
H896 H 0.54244 0.65869 0.30841 0.0
H897 H 0.60638 0.72478 0.34052 0.0
H898 H 0.51373 0.70937 0.26343 0.0
H899 H 0.545 0.68579 0.25189 0.0
H900 H 0.5171 0.66865 0.27222 0.0
H901 H 0.62073 0.7722 0.32245 0.0
H902 H 0.62453 0.76721 0.29084 0.0
H903 H 0.59188 0.78869 0.30257 0.0
H904 H 0.60765 0.76238 0.21351 0.0
H905 H 0.53031 0.81415 0.24333 0.0
H906 H 0.60174 0.6954 0.2505 0.0
H907 H 0.62966 0.72235 0.2629 0.0
H908 H 0.62794 0.71688 0.23121 0.0
H909 H 0.50852 0.75768 0.28678 0.0
H910 H 0.50454 0.79838 0.27811 0.0
H911 H 0.53391 0.78685 0.29945 0.0
C912 C 0.7984 0.54996 0.81825 0.0
C913 C 0.80402 0.58211 0.82224 0.0
C914 C 0.78079 0.5398 0.79842 0.0
C915 C 0.76789 0.56239 0.78268 0.0
C916 C 0.77296 0.59489 0.78707 0.0
C917 C 0.79122 0.60426 0.80657 0.0
C918 C 0.7765 0.50496 0.79402 0.0
C919 C 0.75904 0.61991 0.77119 0.0
C920 C 0.74257 0.54828 0.71882 0.0
C921 C 0.70969 0.54743 0.72108 0.0
C922 C 0.7621 0.55055 0.73895 0.0
C923 C 0.7484 0.55267 0.76183 0.0
C924 C 0.71537 0.54982 0.76426 0.0
C925 C 0.6965 0.5469 0.74392 0.0
C926 C 0.79727 0.55268 0.7356 0.0
C927 C 0.69963 0.5525 0.78819 0.0
H928 H 0.80857 0.53277 0.83018 0.0
H929 H 0.79533 0.62917 0.80967 0.0
H930 H 0.75109 0.49895 0.79348 0.0
H931 H 0.78654 0.49859 0.77649 0.0
H932 H 0.78803 0.4904 0.80786 0.0
H933 H 0.76441 0.64417 0.77749 0.0
H934 H 0.76833 0.61728 0.75291 0.0
H935 H 0.7331 0.61706 0.77023 0.0
H936 H 0.75305 0.54847 0.7013 0.0
H937 H 0.67115 0.54613 0.74597 0.0
H938 H 0.80963 0.53769 0.74872 0.0
H939 H 0.80511 0.57734 0.73853 0.0
H940 H 0.80451 0.54538 0.71747 0.0
H941 H 0.71137 0.53709 0.80132 0.0
H942 H 0.67426 0.54616 0.78742 0.0
H943 H 0.70173 0.57711 0.79473 0.0
C944 C 0.88884 0.81514 0.30294 0.0
C945 C 0.90609 0.81115 0.32397 0.0
C946 C 0.88999 0.79285 0.28457 0.0
C947 C 0.90939 0.766 0.28695 0.0
C948 C 0.92758 0.76215 0.30786 0.0
C949 C 0.92544 0.78462 0.32627 0.0
C950 C 0.86942 0.7975 0.26299 0.0
C951 C 0.94871 0.73393 0.31096 0.0
C952 C 0.88264 0.69449 0.2517 0.0
C953 C 0.90131 0.69633 0.2312 0.0
C954 C 0.88568 0.71648 0.27015 0.0
C955 C 0.90831 0.74086 0.26837 0.0
C956 C 0.92785 0.74248 0.248 0.0
C957 C 0.92392 0.72035 0.22951 0.0
C958 C 0.86364 0.71433 0.29112 0.0
C959 C 0.95241 0.768 0.24553 0.0
H960 H 0.87349 0.83536 0.30105 0.0
H961 H 0.93886 0.78141 0.34243 0.0
H962 H 0.88374 0.79616 0.24659 0.0
H963 H 0.85158 0.77839 0.26203 0.0
H964 H 0.85694 0.82048 0.2633 0.0
H965 H 0.96337 0.73573 0.32722 0.0
H966 H 0.93422 0.7122 0.31206 0.0
H967 H 0.96444 0.73135 0.29537 0.0
H968 H 0.86483 0.67627 0.25312 0.0
H969 H 0.93846 0.72187 0.21376 0.0
H970 H 0.84775 0.73504 0.29122 0.0
H971 H 0.8771 0.71478 0.30797 0.0
H972 H 0.84896 0.69264 0.29068 0.0
H973 H 0.94075 0.79128 0.24409 0.0
H974 H 0.96751 0.76446 0.22968 0.0
H975 H 0.96758 0.76873 0.26155 0.0
C976 C 0.44718 0.03896 0.16016 0.0
C977 C 0.42819 0.04484 0.18003 0.0
C978 C 0.47558 0.02227 0.16228 0.0
C979 C 0.48536 0.01139 0.18483 0.0
C980 C 0.46726 0.01893 0.20513 0.0
C981 C 0.43886 0.03545 0.20248 0.0
C982 C 0.49415 0.01469 0.14017 0.0
C983 C 0.47701 0.00808 0.22952 0.0
C984 C 0.53242 0.93547 0.18575 0.0
C985 C 0.56344 0.94645 0.18837 0.0
C986 C 0.50695 0.95637 0.18481 0.0
C987 C 0.51241 0.9892 0.18678 0.0
C988 C 0.54353 1.0005 0.19008 0.0
C989 C 0.56872 0.97898 0.19073 0.0
C990 C 0.47418 0.94328 0.18117 0.0
C991 C 0.55022 0.0353 0.19255 0.0
H992 H 0.43924 0.0462 0.14275 0.0
H993 H 0.42451 0.04012 0.21799 0.0
H994 H 0.51933 0.02078 0.14269 0.0
H995 H 0.49283 0.989 0.13656 0.0
H996 H 0.48515 0.02745 0.1244 0.0
H997 H 0.46262 0.01911 0.24373 0.0
H998 H 0.47432 0.98212 0.23074 0.0
H999 H 0.50216 0.01367 0.23279 0.0
H1000 H 0.52798 0.91041 0.18391 0.0
H1001 H 0.59256 0.98771 0.1928 0.0
H1002 H 0.46406 0.9527 0.1645 0.0
H1003 H 0.45859 0.95085 0.19589 0.0
H1004 H 0.47388 0.91713 0.18021 0.0
H1005 H 0.5435 0.04764 0.176 0.0
H1006 H 0.57545 0.04018 0.19626 0.0
H1007 H 0.53584 0.04547 0.20708 0.0
C1008 C 0.56491 0.5298 0.67669 0.0
C1009 C 0.57884 0.5294 0.65412 0.0
C1010 C 0.53917 0.51005 0.68199 0.0
C1011 C 0.52711 0.48952 0.66431 0.0
C1012 C 0.54023 0.4901 0.64124 0.0
C1013 C 0.56587 0.50997 0.63646 0.0
C1014 C 0.52573 0.51022 0.70676 0.0
C1015 C 0.52803 0.46877 0.6218 0.0
C1016 C 0.48868 0.41116 0.67901 0.0
C1017 C 0.45691 0.41713 0.67396 0.0
C1018 C 0.5115 0.43501 0.67719 0.0
C1019 C 0.50242 0.46566 0.67007 0.0
C1020 C 0.47017 0.47229 0.66617 0.0
C1021 C 0.44777 0.44795 0.66818 0.0
C1022 C 0.54558 0.42694 0.68168 0.0
C1023 C 0.4595 0.50466 0.65863 0.0
H1024 H 0.57476 0.54473 0.69045 0.0
H1025 H 0.57626 0.50966 0.61891 0.0
H1026 H 0.49973 0.51243 0.70615 0.0
H1027 H 0.53119 0.48755 0.71559 0.0
H1028 H 0.53545 0.52974 0.71772 0.0
H1029 H 0.53946 0.47351 0.60445 0.0
H1030 H 0.53236 0.4438 0.62659 0.0
H1031 H 0.50223 0.47169 0.61974 0.0
H1032 H 0.49596 0.38752 0.6837 0.0
H1033 H 0.42328 0.45284 0.6643 0.0
H1034 H 0.55632 0.44423 0.69407 0.0
H1035 H 0.55891 0.42818 0.66479 0.0
H1036 H 0.54843 0.40293 0.68919 0.0
H1037 H 0.47011 0.52304 0.67019 0.0
H1038 H 0.43348 0.50706 0.65917 0.0
H1039 H 0.46757 0.50929 0.64026 0.0
C1040 C 0.04859 0.44798 0.17433 0.0
C1041 C 0.06813 0.45745 0.15559 0.0
C1042 C 0.02219 0.46606 0.18089 0.0
C1043 C 0.01529 0.49414 0.16839 0.0
C1044 C 0.03413 0.50289 0.14877 0.0
C1045 C 0.06023 0.48448 0.14265 0.0
C1046 C 0.00251 0.45583 0.20177 0.0
C1047 C 0.0276 0.53254 0.13483 0.0
C1048 C 0.93898 0.54044 0.17049 0.0
C1049 C 0.94803 0.56649 0.1843 0.0
C1050 C 0.95981 0.51521 0.16658 0.0
C1051 C 0.99032 0.51615 0.17672 0.0
C1052 C 0.99852 0.54115 0.19223 0.0
C1053 C 0.97729 0.56597 0.19583 0.0
C1054 C 0.95001 0.4888 0.15018 0.0
C1055 C 0.03069 0.54304 0.20356 0.0
H1056 H 0.05449 0.42707 0.18438 0.0
H1057 H 0.07494 0.4918 0.12795 0.0
H1058 H 0.00669 0.47209 0.2169 0.0
H1059 H 0.97708 0.45702 0.19737 0.0
H1060 H 0.00823 0.43149 0.20753 0.0
H1061 H 0.04331 0.53496 0.11919 0.0
H1062 H 0.00283 0.53269 0.1286 0.0
H1063 H 0.03092 0.55347 0.14641 0.0
H1064 H 0.91634 0.54052 0.16162 0.0
H1065 H 0.98433 0.58578 0.20681 0.0
H1066 H 0.95734 0.46564 0.15739 0.0
H1067 H 0.96181 0.49181 0.13278 0.0
H1068 H 0.92416 0.48846 0.14721 0.0
H1069 H 0.03703 0.52018 0.21173 0.0
H1070 H 0.032 0.56174 0.21736 0.0
H1071 H 0.04856 0.54825 0.18975 0.0
C1072 C 0.9334 0.99007 0.6895 0.0
C1073 C 0.93375 0.95861 0.68178 0.0
C1074 C 0.96126 0.0075 0.69181 0.0
C1075 C 0.9904 0.99322 0.68621 0.0
C1076 C 0.99118 0.96095 0.67961 0.0
C1077 C 0.96276 0.94395 0.67749 0.0
C1078 C 0.95926 0.04177 0.69903 0.0
C1079 C 0.02181 0.94485 0.67367 0.0
C1080 C 0.04897 0.05317 0.66338 0.0
C1081 C 0.06619 0.06061 0.6839 0.0
C1082 C 0.0256 0.02981 0.66357 0.0
C1083 C 0.01916 0.01334 0.68481 0.0
C1084 C 0.03768 0.01936 0.70524 0.0
C1085 C 0.06102 0.04297 0.70455 0.0
C1086 C 0.00653 0.02413 0.64134 0.0
C1087 C 0.0317 1.00212 0.72817 0.0
H1088 H 0.91113 1.00149 0.69321 0.0
H1089 H 0.96321 0.91961 0.67161 0.0
H1090 H 0.97572 0.04678 0.71384 0.0
H1091 H 0.96631 0.0569 0.6839 0.0
H1092 H 0.93514 0.04859 0.70462 0.0
H1093 H 0.01902 0.91887 0.67224 0.0
H1094 H 0.03076 0.95386 0.6565 0.0
H1095 H 0.03988 0.95021 0.68731 0.0
H1096 H 0.05306 0.06631 0.64721 0.0
H1097 H 0.07435 0.04838 0.72045 0.0
H1098 H 0.98208 0.03252 0.64413 0.0
H1099 H 0.00529 0.99857 0.63727 0.0
H1100 H 0.0165 0.03656 0.62573 0.0
H1101 H 0.00941 0.01065 0.73614 0.0
H1102 H 0.05098 0.00586 0.74119 0.0
H1103 H 0.02897 0.97646 0.72489 0.0
C1104 C 0.56885 0.53799 0.36156 0.0
C1105 C 0.57041 0.55261 0.38388 0.0
C1106 C 0.548 0.51267 0.3574 0.0
C1107 C 0.52835 0.50181 0.376 0.0
C1108 C 0.53106 0.51551 0.39882 0.0
C1109 C 0.55199 0.54064 0.40246 0.0
C1110 C 0.54598 0.49853 0.33288 0.0
C1111 C 0.51071 0.50466 0.41921 0.0
C1112 C 0.44711 0.46755 0.36512 0.0
C1113 C 0.4515 0.43563 0.37071 0.0
C1114 C 0.47234 0.48894 0.36542 0.0
C1115 C 0.50286 0.47828 0.37144 0.0
C1116 C 0.50784 0.44578 0.37577 0.0
C1117 C 0.48209 0.42482 0.37536 0.0
C1118 C 0.46593 0.52335 0.36061 0.0
C1119 C 0.54004 0.43342 0.38208 0.0
H1120 H 0.58303 0.54705 0.34712 0.0
H1121 H 0.55325 0.55152 0.41984 0.0
H1122 H 0.54654 0.47242 0.3338 0.0
H1123 H 0.52328 0.50523 0.32459 0.0
H1124 H 0.56544 0.5067 0.32125 0.0
H1125 H 0.51725 0.51622 0.43622 0.0
H1126 H 0.48568 0.51006 0.41537 0.0
H1127 H 0.5126 0.47876 0.42144 0.0
H1128 H 0.42367 0.47614 0.36123 0.0
H1129 H 0.48579 0.4002 0.37959 0.0
H1130 H 0.48283 0.53266 0.34737 0.0
H1131 H 0.46918 0.53715 0.37718 0.0
H1132 H 0.44163 0.52736 0.354 0.0
H1133 H 0.55806 0.44287 0.36975 0.0
H1134 H 0.54093 0.40726 0.38163 0.0
H1135 H 0.54644 0.44144 0.4002 0.0
C1136 C 0.06557 0.4686 0.87294 0.0
C1137 C 0.0822 0.4648 0.85161 0.0
C1138 C 0.04 0.48935 0.87462 0.0
C1139 C 0.0308 0.50701 0.85453 0.0
C1140 C 0.04871 0.50486 0.83339 0.0
C1141 C 0.07418 0.4837 0.83214 0.0
C1142 C 0.02163 0.49082 0.89753 0.0
C1143 C 0.03994 0.52361 0.81169 0.0
C1144 C 0.94306 0.52263 0.85245 0.0
C1145 C 0.94093 0.55322 0.86184 0.0
C1146 C 0.97224 0.50799 0.849 0.0
C1147 C 1.00025 0.52431 0.85498 0.0
C1148 C 0.99845 0.5558 0.86336 0.0
C1149 C 0.96876 0.56991 0.86674 0.0
C1150 C 0.97296 0.47441 0.84 0.0
C1151 C 0.02778 0.5741 0.86968 0.0
H1152 H 0.07175 0.45444 0.8882 0.0
H1153 H 0.08698 0.48114 0.81564 0.0
H1154 H 0.01818 0.51565 0.90312 0.0
H1155 H 0.99796 0.48029 0.8948 0.0
H1156 H 0.03351 0.47794 0.91212 0.0
H1157 H 0.05877 0.52309 0.79803 0.0
H1158 H 0.01813 0.51369 0.80378 0.0
H1159 H 0.03504 0.54849 0.8165 0.0
H1160 H 0.92175 0.5096 0.84834 0.0
H1161 H 0.96737 0.59359 0.8739 0.0
H1162 H 0.98226 0.4587 0.85405 0.0
H1163 H 0.98893 0.47243 0.82452 0.0
H1164 H 0.94927 0.46575 0.83471 0.0
H1165 H 0.0384 0.56408 0.88596 0.0
H1166 H 0.02276 0.59944 0.8729 0.0
H1167 H 0.04552 0.57209 0.85533 0.0
C1168 C 0.92009 0.9914 0.36716 0.0
C1169 C 0.92797 0.96137 0.37567 0.0
C1170 C 0.94214 0.01627 0.36758 0.0
C1171 C 0.97262 0.01104 0.37698 0.0
C1172 C 0.98062 0.9808 0.38562 0.0
C1173 C 0.95833 0.95639 0.38474 0.0
C1174 C 0.93287 0.04809 0.35798 0.0
C1175 C 0.01276 0.97419 0.39594 0.0
C1176 C 0.0447 0.06024 0.36225 0.0
C1177 C 0.0488 0.07774 0.38319 0.0
C1178 C 0.0188 0.03996 0.35932 0.0
C1179 C 0.99654 0.03685 0.37785 0.0
C1180 C 0.99951 0.05586 0.39843 0.0
C1181 C 0.02553 0.07619 0.4008 0.0
C1182 C 0.01633 0.02045 0.33696 0.0
C1183 C 0.97639 0.05321 0.41864 0.0
H1184 H 0.89674 0.99547 0.36009 0.0
H1185 H 0.96469 0.93337 0.39149 0.0
H1186 H 0.93497 0.06622 0.37211 0.0
H1187 H 0.94912 0.05503 0.3435 0.0
H1188 H 0.90839 0.04826 0.35105 0.0
H1189 H 0.0151 0.9495 0.40221 0.0
H1190 H 0.0312 0.97868 0.38244 0.0
H1191 H 0.01738 0.99029 0.4111 0.0
H1192 H 0.06239 0.06149 0.34843 0.0
H1193 H 0.02843 0.08962 0.41704 0.0
H1194 H 0.99205 0.02131 0.32975 0.0
H1195 H 0.02162 0.99546 0.34108 0.0
H1196 H 0.03297 0.02856 0.32305 0.0
H1197 H 0.95186 0.05431 0.41196 0.0
H1198 H 0.97979 0.07211 0.43209 0.0
H1199 H 0.97935 0.03007 0.42748 0.0
C1200 C 0.59859 0.01649 0.86953 0.0
C1201 C 0.59929 0.99032 0.88465 0.0
C1202 C 0.57192 0.03586 0.86815 0.0
C1203 C 0.54548 0.02923 0.88258 0.0
C1204 C 0.54592 1.00266 0.89775 0.0
C1205 C 0.57273 0.98333 0.89844 0.0
C1206 C 0.57212 0.06355 0.85138 0.0
C1207 C 0.51832 0.99503 0.91361 0.0
C1208 C 0.48857 0.09635 0.89548 0.0
C1209 C 0.46353 0.08904 0.88022 0.0
C1210 C 0.51534 0.07696 0.89657 0.0
C1211 C 0.51731 0.05003 0.88171 0.0
C1212 C 0.49236 0.04298 0.86592 0.0
C1213 C 0.46569 0.06239 0.86553 0.0
C1214 C 0.5413 0.08502 0.91385 0.0
C1215 C 0.49382 0.01488 0.84945 0.0
H1216 H 0.61901 0.02193 0.85876 0.0
H1217 H 0.57325 0.9633 0.91033 0.0
H1218 H 0.55183 0.06191 0.83904 0.0
H1219 H 0.56953 0.08583 0.86152 0.0
H1220 H 0.59413 0.06485 0.8408 0.0
H1221 H 0.52244 0.97363 0.92448 0.0
H1222 H 0.51362 0.01519 0.92568 0.0
H1223 H 0.49683 0.99131 0.90278 0.0
H1224 H 0.48692 0.11681 0.90697 0.0
H1225 H 0.44651 0.05673 0.85357 0.0
H1226 H 0.56373 0.08872 0.90419 0.0
H1227 H 0.54497 0.06509 0.92624 0.0
H1228 H 0.53603 0.10656 0.92435 0.0
H1229 H 0.51514 0.0164 0.83815 0.0
H1230 H 0.47281 0.01315 0.83779 0.0
H1231 H 0.49566 0.99285 0.8599 0.0
loop_
_geom_bond_atom_site_label_1
_geom_bond_atom_site_label_2
_geom_bond_distance
_geom_bond_site_symmetry_2
_ccdc_geom_bond_type
Mg0 O7 2.141 . S
Mg0 O8 2.048 . S
Mg0 O9 2.048 . S
Mg0 O12 2.141 . S
C1 O2 1.313 . S
C1 O8 1.195 . S
O2 C1 1.313 . S
C3 O4 1.245 . S
C3 O12 1.289 . S
O4 C3 1.245 . S
C5 O6 1.245 . S
C5 O7 1.289 . S
O6 C5 1.245 . S
O7 Mg0 2.141 . S
O7 C5 1.289 . S
O8 Mg0 2.048 . S
O8 C1 1.195 . S
O9 Mg0 2.048 . S
O9 C10 1.195 . S
C10 O9 1.195 . S
C10 O11 1.313 . S
O11 C10 1.313 . S
O12 Mg0 2.141 . S
O12 C3 1.289 . S
Mg13 O20 2.141 . S
Mg13 O21 2.048 . S
Mg13 O22 2.048 . S
Mg13 O25 2.141 . S
C14 O15 1.313 . S
C14 O21 1.195 . S
O15 C14 1.313 . S
C16 O17 1.245 . S
C16 O25 1.289 . S
O17 C16 1.245 . S
C18 O19 1.245 . S
C18 O20 1.289 . S
O19 C18 1.245 . S
O20 Mg13 2.141 . S
O20 C18 1.289 . S
O21 Mg13 2.048 . S
O21 C14 1.195 . S
O22 Mg13 2.048 . S
O22 C23 1.195 . S
C23 O22 1.195 . S
C23 O24 1.313 . S
O24 C23 1.313 . S
O25 Mg13 2.141 . S
O25 C16 1.289 . S
Mg26 O33 2.141 . S
Mg26 O34 2.048 . S
Mg26 O35 2.048 . S
Mg26 O38 2.141 . S
C27 O28 1.313 . S
C27 O34 1.195 . S
O28 C27 1.313 . S
C29 O30 1.245 . S
C29 O38 1.289 . S
O30 C29 1.245 . S
C31 O32 1.245 . S
C31 O33 1.289 . S
O32 C31 1.245 . S
O33 Mg26 2.141 . S
O33 C31 1.289 . S
O34 Mg26 2.048 . S
O34 C27 1.195 . S
O35 Mg26 2.048 . S
O35 C36 1.195 . S
C36 O35 1.195 . S
C36 O37 1.313 . S
O37 C36 1.313 . S
O38 Mg26 2.141 . S
O38 C29 1.289 . S
Mg39 O46 2.141 . S
Mg39 O47 2.048 . S
Mg39 O48 2.048 . S
Mg39 O51 2.141 . S
C40 O41 1.313 . S
C40 O47 1.195 . S
O41 C40 1.313 . S
C42 O43 1.245 . S
C42 O51 1.289 . S
O43 C42 1.245 . S
C44 O45 1.245 . S
C44 O46 1.289 . S
O45 C44 1.245 . S
O46 Mg39 2.141 . S
O46 C44 1.289 . S
O47 Mg39 2.048 . S
O47 C40 1.195 . S
O48 Mg39 2.048 . S
O48 C49 1.195 . S
C49 O48 1.195 . S
C49 O50 1.313 . S
O50 C49 1.313 . S
O51 Mg39 2.141 . S
O51 C42 1.289 . S
Mg52 O59 2.141 . S
Mg52 O60 2.048 . S
Mg52 O61 2.048 . S
Mg52 O64 2.141 . S
C53 O54 1.313 . S
C53 O60 1.195 . S
O54 C53 1.313 . S
C55 O56 1.245 . S
C55 O64 1.289 . S
O56 C55 1.245 . S
C57 O58 1.245 . S
C57 O59 1.289 . S
O58 C57 1.245 . S
O59 Mg52 2.141 . S
O59 C57 1.289 . S
O60 Mg52 2.048 . S
O60 C53 1.195 . S
O61 Mg52 2.048 . S
O61 C62 1.195 . S
C62 O61 1.195 . S
C62 O63 1.313 . S
O63 C62 1.313 . S
O64 Mg52 2.141 . S
O64 C55 1.289 . S
Mg65 O72 2.141 . S
Mg65 O73 2.048 . S
Mg65 O74 2.048 . S
Mg65 O77 2.141 . S
C66 O67 1.313 . S
C66 O73 1.195 . S
O67 C66 1.313 . S
C68 O69 1.245 . S
C68 O77 1.289 . S
O69 C68 1.245 . S
C70 O71 1.245 . S
C70 O72 1.289 . S
O71 C70 1.245 . S
O72 Mg65 2.141 . S
O72 C70 1.289 . S
O73 Mg65 2.048 . S
O73 C66 1.195 . S
O74 Mg65 2.048 . S
O74 C75 1.195 . S
C75 O74 1.195 . S
C75 O76 1.313 . S
O76 C75 1.313 . S
O77 Mg65 2.141 . S
O77 C68 1.289 . S
Mg78 O85 2.141 . S
Mg78 O86 2.048 . S
Mg78 O87 2.048 . S
Mg78 O90 2.141 . S
C79 O80 1.313 . S
C79 O86 1.195 . S
O80 C79 1.313 . S
C81 O82 1.245 . S
C81 O90 1.289 . S
O82 C81 1.245 . S
C83 O84 1.245 . S
C83 O85 1.289 . S
O84 C83 1.245 . S
O85 Mg78 2.141 . S
O85 C83 1.289 . S
O86 Mg78 2.048 . S
O86 C79 1.195 . S
O87 Mg78 2.048 . S
O87 C88 1.195 . S
C88 O87 1.195 . S
C88 O89 1.313 . S
O89 C88 1.313 . S
O90 Mg78 2.141 . S
O90 C81 1.289 . S
Mg91 O98 2.141 . S
Mg91 O99 2.048 . S
Mg91 O100 2.048 . S
Mg91 O103 2.141 . S
C92 O93 1.313 . S
C92 O99 1.195 . S
O93 C92 1.313 . S
C94 O95 1.245 . S
C94 O103 1.289 . S
O95 C94 1.245 . S
C96 O97 1.245 . S
C96 O98 1.289 . S
O97 C96 1.245 . S
O98 Mg91 2.141 . S
O98 C96 1.289 . S
O99 Mg91 2.048 . S
O99 C92 1.195 . S
O100 Mg91 2.048 . S
O100 C101 1.195 . S
C101 O100 1.195 . S
C101 O102 1.313 . S
O102 C101 1.313 . S
O103 Mg91 2.141 . S
O103 C94 1.289 . S
Mg104 O111 2.141 . S
Mg104 O112 2.048 . S
Mg104 O113 2.048 . S
Mg104 O116 2.141 . S
C105 O106 1.313 . S
C105 O112 1.195 . S
O106 C105 1.313 . S
C107 O108 1.245 . S
C107 O116 1.289 . S
O108 C107 1.245 . S
C109 O110 1.245 . S
C109 O111 1.289 . S
O110 C109 1.245 . S
O111 Mg104 2.141 . S
O111 C109 1.289 . S
O112 Mg104 2.048 . S
O112 C105 1.195 . S
O113 Mg104 2.048 . S
O113 C114 1.195 . S
C114 O113 1.195 . S
C114 O115 1.313 . S
O115 C114 1.313 . S
O116 Mg104 2.141 . S
O116 C107 1.289 . S
Mg117 O124 2.141 . S
Mg117 O125 2.048 . S
Mg117 O126 2.048 . S
Mg117 O129 2.141 . S
C118 O119 1.313 . S
C118 O125 1.195 . S
O119 C118 1.313 . S
C120 O121 1.245 . S
C120 O129 1.289 . S
O121 C120 1.245 . S
C122 O123 1.245 . S
C122 O124 1.289 . S
O123 C122 1.245 . S
O124 Mg117 2.141 . S
O124 C122 1.289 . S
O125 Mg117 2.048 . S
O125 C118 1.195 . S
O126 Mg117 2.048 . S
O126 C127 1.195 . S
C127 O126 1.195 . S
C127 O128 1.313 . S
O128 C127 1.313 . S
O129 Mg117 2.141 . S
O129 C120 1.289 . S
Mg130 O137 2.141 . S
Mg130 O138 2.048 . S
Mg130 O139 2.048 . S
Mg130 O142 2.141 . S
C131 O132 1.313 . S
C131 O138 1.195 . S
O132 C131 1.313 . S
C133 O134 1.245 . S
C133 O142 1.289 . S
O134 C133 1.245 . S
C135 O136 1.245 . S
C135 O137 1.289 . S
O136 C135 1.245 . S
O137 Mg130 2.141 . S
O137 C135 1.289 . S
O138 Mg130 2.048 . S
O138 C131 1.195 . S
O139 Mg130 2.048 . S
O139 C140 1.195 . S
C140 O139 1.195 . S
C140 O141 1.313 . S
O141 C140 1.313 . S
O142 Mg130 2.141 . S
O142 C133 1.289 . S
Mg143 O150 2.141 . S
Mg143 O151 2.048 . S
Mg143 O152 2.048 . S
Mg143 O155 2.141 . S
C144 O145 1.313 . S
C144 O151 1.195 . S
O145 C144 1.313 . S
C146 O147 1.245 . S
C146 O155 1.289 . S
O147 C146 1.245 . S
C148 O149 1.245 . S
C148 O150 1.289 . S
O149 C148 1.245 . S
O150 Mg143 2.141 . S
O150 C148 1.289 . S
O151 Mg143 2.048 . S
O151 C144 1.195 . S
O152 Mg143 2.048 . S
O152 C153 1.195 . S
C153 O152 1.195 . S
C153 O154 1.313 . S
O154 C153 1.313 . S
O155 Mg143 2.141 . S
O155 C146 1.289 . S
Mg156 O163 2.141 . S
Mg156 O164 2.048 . S
Mg156 O165 2.048 . S
Mg156 O168 2.141 . S
C157 O158 1.313 . S
C157 O164 1.195 . S
O158 C157 1.313 . S
C159 O160 1.245 . S
C159 O168 1.289 . S
O160 C159 1.245 . S
C161 O162 1.245 . S
C161 O163 1.289 . S
O162 C161 1.245 . S
O163 Mg156 2.141 . S
O163 C161 1.289 . S
O164 Mg156 2.048 . S
O164 C157 1.195 . S
O165 Mg156 2.048 . S
O165 C166 1.195 . S
C166 O165 1.195 . S
C166 O167 1.313 . S
O167 C166 1.313 . S
O168 Mg156 2.141 . S
O168 C159 1.289 . S
Mg169 O176 2.141 . S
Mg169 O177 2.048 . S
Mg169 O178 2.048 . S
Mg169 O181 2.141 . S
C170 O171 1.313 . S
C170 O177 1.195 . S
O171 C170 1.313 . S
C172 O173 1.245 . S
C172 O181 1.289 . S
O173 C172 1.245 . S
C174 O175 1.245 . S
C174 O176 1.289 . S
O175 C174 1.245 . S
O176 Mg169 2.141 . S
O176 C174 1.289 . S
O177 Mg169 2.048 . S
O177 C170 1.195 . S
O178 Mg169 2.048 . S
O178 C179 1.195 . S
C179 O178 1.195 . S
C179 O180 1.313 . S
O180 C179 1.313 . S
O181 Mg169 2.141 . S
O181 C172 1.289 . S
Mg182 O189 2.141 . S
Mg182 O190 2.048 . S
Mg182 O191 2.048 . S
Mg182 O194 2.141 . S
C183 O184 1.313 . S
C183 O190 1.195 . S
O184 C183 1.313 . S
C185 O186 1.245 . S
C185 O194 1.289 . S
O186 C185 1.245 . S
C187 O188 1.245 . S
C187 O189 1.289 . S
O188 C187 1.245 . S
O189 Mg182 2.141 . S
O189 C187 1.289 . S
O190 Mg182 2.048 . S
O190 C183 1.195 . S
O191 Mg182 2.048 . S
O191 C192 1.195 . S
C192 O191 1.195 . S
C192 O193 1.313 . S
O193 C192 1.313 . S
O194 Mg182 2.141 . S
O194 C185 1.289 . S
Mg195 O202 2.141 . S
Mg195 O203 2.048 . S
Mg195 O204 2.048 . S
Mg195 O207 2.141 . S
C196 O197 1.313 . S
C196 O203 1.195 . S
O197 C196 1.313 . S
C198 O199 1.245 . S
C198 O207 1.289 . S
O199 C198 1.245 . S
C200 O201 1.245 . S
C200 O202 1.289 . S
O201 C200 1.245 . S
O202 Mg195 2.141 . S
O202 C200 1.289 . S
O203 Mg195 2.048 . S
O203 C196 1.195 . S
O204 Mg195 2.048 . S
O204 C205 1.195 . S
C205 O204 1.195 . S
C205 O206 1.313 . S
O206 C205 1.313 . S
O207 Mg195 2.141 . S
O207 C198 1.289 . S
C208 C209 1.391 . S
C208 C210 1.394 . S
C208 H224 0.931 . S
C209 C208 1.391 . S
C209 C213 1.376 . S
C210 C208 1.394 . S
C210 C211 1.369 . S
C210 C214 1.531 . S
C211 C210 1.369 . S
C211 C212 1.410 . S
C211 C219 1.503 1_556 S
C212 C211 1.410 . S
C212 C213 1.392 . S
C212 C215 1.511 . S
C213 C209 1.376 . S
C213 C212 1.392 . S
C213 H225 0.929 . S
C214 C210 1.531 . S
C214 H226 0.960 . S
C214 H227 0.962 . S
C214 H228 0.960 . S
C215 C212 1.511 . S
C215 H229 0.961 . S
C215 H230 0.961 1_556 S
C215 H231 0.961 . S
C216 C217 1.370 . S
C216 C218 1.363 . S
C216 H232 0.931 . S
C217 C216 1.370 . S
C217 C221 1.408 . S
C218 C216 1.363 . S
C218 C219 1.370 . S
C218 C222 1.524 . S
C219 C211 1.503 1_554 S
C219 C218 1.370 . S
C219 C220 1.403 . S
C220 C219 1.403 . S
C220 C221 1.404 . S
C220 C223 1.539 1_554 S
C221 C217 1.408 . S
C221 C220 1.404 . S
C221 H233 0.930 . S
C222 C218 1.524 . S
C222 H234 0.956 . S
C222 H235 0.961 . S
C222 H236 0.961 . S
C223 C220 1.539 1_556 S
C223 H237 0.958 . S
C223 H238 0.961 . S
C223 H239 0.960 . S
H224 C208 0.931 . S
H225 C213 0.929 . S
H226 C214 0.960 . S
H227 C214 0.962 . S
H228 C214 0.960 . S
H229 C215 0.961 . S
H230 C215 0.961 1_554 S
H231 C215 0.961 . S
H232 C216 0.931 . S
H233 C221 0.930 . S
H234 C222 0.956 . S
H235 C222 0.961 . S
H236 C222 0.961 . S
H237 C223 0.958 . S
H238 C223 0.961 . S
H239 C223 0.960 . S
C240 C241 1.391 . S
C240 C242 1.394 . S
C240 H256 0.931 . S
C241 C240 1.391 . S
C241 C245 1.376 . S
C242 C240 1.394 . S
C242 C243 1.369 . S
C242 C246 1.531 . S
C243 C242 1.369 . S
C243 C244 1.410 . S
C243 C251 1.503 . S
C244 C243 1.410 . S
C244 C245 1.392 . S
C244 C247 1.511 . S
C245 C241 1.376 . S
C245 C244 1.392 . S
C245 H257 0.929 . S
C246 C242 1.531 . S
C246 H258 0.960 . S
C246 H259 0.962 . S
C246 H260 0.960 . S
C247 C244 1.511 . S
C247 H261 0.961 . S
C247 H262 0.961 . S
C247 H263 0.961 . S
C248 C249 1.370 . S
C248 C250 1.363 . S
C248 H264 0.931 . S
C249 C248 1.370 . S
C249 C253 1.408 . S
C250 C248 1.363 . S
C250 C251 1.370 . S
C250 C254 1.524 . S
C251 C243 1.503 . S
C251 C250 1.370 . S
C251 C252 1.403 . S
C252 C251 1.403 . S
C252 C253 1.404 . S
C252 C255 1.539 . S
C253 C249 1.408 . S
C253 C252 1.404 . S
C253 H265 0.930 . S
C254 C250 1.524 . S
C254 H266 0.956 . S
C254 H267 0.961 . S
C254 H268 0.961 . S
C255 C252 1.539 . S
C255 H269 0.958 . S
C255 H270 0.961 . S
C255 H271 0.960 . S
H256 C240 0.931 . S
H257 C245 0.929 . S
H258 C246 0.960 . S
H259 C246 0.962 . S
H260 C246 0.960 . S
H261 C247 0.961 . S
H262 C247 0.961 . S
H263 C247 0.961 . S
H264 C248 0.931 . S
H265 C253 0.930 . S
H266 C254 0.956 . S
H267 C254 0.961 . S
H268 C254 0.961 . S
H269 C255 0.958 . S
H270 C255 0.961 . S
H271 C255 0.960 . S
C272 C273 1.391 . S
C272 C274 1.394 . S
C272 H288 0.931 . S
C273 C272 1.391 . S
C273 C277 1.376 . S
C274 C272 1.394 . S
C274 C275 1.369 . S
C274 C278 1.531 . S
C275 C274 1.369 . S
C275 C276 1.410 . S
C275 C283 1.503 1_556 S
C276 C275 1.410 . S
C276 C277 1.392 . S
C276 C279 1.511 . S
C277 C273 1.376 . S
C277 C276 1.392 . S
C277 H289 0.929 . S
C278 C274 1.531 . S
C278 H290 0.960 . S
C278 H291 0.962 . S
C278 H292 0.960 . S
C279 C276 1.511 . S
C279 H293 0.961 . S
C279 H294 0.961 1_556 S
C279 H295 0.961 . S
C280 C281 1.370 . S
C280 C282 1.363 . S
C280 H296 0.931 . S
C281 C280 1.370 . S
C281 C285 1.408 . S
C282 C280 1.363 . S
C282 C283 1.370 . S
C282 C286 1.524 . S
C283 C275 1.503 1_554 S
C283 C282 1.370 . S
C283 C284 1.403 . S
C284 C283 1.403 . S
C284 C285 1.404 . S
C284 C287 1.539 1_554 S
C285 C281 1.408 . S
C285 C284 1.404 . S
C285 H297 0.930 . S
C286 C282 1.524 . S
C286 H298 0.956 . S
C286 H299 0.961 . S
C286 H300 0.961 . S
C287 C284 1.539 1_556 S
C287 H301 0.958 . S
C287 H302 0.961 . S
C287 H303 0.960 . S
H288 C272 0.931 . S
H289 C277 0.929 . S
H290 C278 0.960 . S
H291 C278 0.962 . S
H292 C278 0.960 . S
H293 C279 0.961 . S
H294 C279 0.961 1_554 S
H295 C279 0.961 . S
H296 C280 0.931 . S
H297 C285 0.930 . S
H298 C286 0.956 . S
H299 C286 0.961 . S
H300 C286 0.961 . S
H301 C287 0.958 . S
H302 C287 0.961 . S
H303 C287 0.960 . S
C304 C305 1.391 . S
C304 C306 1.394 . S
C304 H320 0.931 . S
C305 C304 1.391 . S
C305 C309 1.376 . S
C306 C304 1.394 . S
C306 C307 1.369 . S
C306 C310 1.531 . S
C307 C306 1.369 . S
C307 C308 1.410 . S
C307 C315 1.503 . S
C308 C307 1.410 . S
C308 C309 1.392 . S
C308 C311 1.511 . S
C309 C305 1.376 . S
C309 C308 1.392 . S
C309 H321 0.929 . S
C310 C306 1.531 . S
C310 H322 0.960 . S
C310 H323 0.962 . S
C310 H324 0.960 . S
C311 C308 1.511 . S
C311 H325 0.961 . S
C311 H326 0.961 . S
C311 H327 0.961 . S
C312 C313 1.370 . S
C312 C314 1.363 . S
C312 H328 0.931 . S
C313 C312 1.370 . S
C313 C317 1.408 . S
C314 C312 1.363 . S
C314 C315 1.370 . S
C314 C318 1.524 . S
C315 C307 1.503 . S
C315 C314 1.370 . S
C315 C316 1.403 . S
C316 C315 1.403 . S
C316 C317 1.404 . S
C316 C319 1.539 . S
C317 C313 1.408 . S
C317 C316 1.404 . S
C317 H329 0.930 . S
C318 C314 1.524 . S
C318 H330 0.956 . S
C318 H331 0.961 . S
C318 H332 0.961 . S
C319 C316 1.539 . S
C319 H333 0.958 . S
C319 H334 0.961 . S
C319 H335 0.960 . S
H320 C304 0.931 . S
H321 C309 0.929 . S
H322 C310 0.960 . S
H323 C310 0.962 . S
H324 C310 0.960 . S
H325 C311 0.961 . S
H326 C311 0.961 . S
H327 C311 0.961 . S
H328 C312 0.931 . S
H329 C317 0.930 . S
H330 C318 0.956 . S
H331 C318 0.961 . S
H332 C318 0.961 . S
H333 C319 0.958 . S
H334 C319 0.961 . S
H335 C319 0.960 . S
C336 C337 1.391 . S
C336 C338 1.394 . S
C336 H352 0.931 . S
C337 C336 1.391 . S
C337 C341 1.376 . S
C338 C336 1.394 . S
C338 C339 1.369 . S
C338 C342 1.531 . S
C339 C338 1.369 . S
C339 C340 1.410 . S
C339 C347 1.503 1_554 S
C340 C339 1.410 . S
C340 C341 1.392 . S
C340 C343 1.511 1_554 S
C341 C337 1.376 . S
C341 C340 1.392 . S
C341 H353 0.929 . S
C342 C338 1.531 . S
C342 H354 0.960 . S
C342 H355 0.962 . S
C342 H356 0.960 . S
C343 C340 1.511 1_556 S
C343 H357 0.961 . S
C343 H358 0.961 . S
C343 H359 0.961 . S
C344 C345 1.370 . S
C344 C346 1.363 . S
C344 H360 0.931 . S
C345 C344 1.370 . S
C345 C349 1.408 . S
C346 C344 1.363 . S
C346 C347 1.370 . S
C346 C350 1.524 1_556 S
C347 C339 1.503 1_556 S
C347 C346 1.370 . S
C347 C348 1.403 . S
C348 C347 1.403 . S
C348 C349 1.404 . S
C348 C351 1.539 . S
C349 C345 1.408 . S
C349 C348 1.404 . S
C349 H361 0.930 . S
C350 C346 1.524 1_554 S
C350 H362 0.956 . S
C350 H363 0.961 . S
C350 H364 0.952 1_554 S
C351 C348 1.539 . S
C351 H365 0.958 . S
C351 H366 0.961 . S
C351 H367 0.960 . S
H352 C336 0.931 . S
H353 C341 0.929 . S
H354 C342 0.960 . S
H355 C342 0.962 . S
H356 C342 0.960 . S
H357 C343 0.961 . S
H358 C343 0.961 . S
H359 C343 0.961 . S
H360 C344 0.931 . S
H361 C349 0.930 . S
H362 C350 0.956 . S
H363 C350 0.961 . S
H364 C350 0.952 1_556 S
H365 C351 0.958 . S
H366 C351 0.961 . S
H367 C351 0.960 . S
C368 C369 1.391 . S
C368 C370 1.394 . S
C368 H384 0.931 . S
C369 C368 1.391 . S
C369 C373 1.376 . S
C370 C368 1.394 . S
C370 C371 1.369 . S
C370 C374 1.531 . S
C371 C370 1.369 . S
C371 C372 1.410 . S
C371 C379 1.503 . S
C372 C371 1.410 . S
C372 C373 1.392 . S
C372 C375 1.511 . S
C373 C369 1.376 . S
C373 C372 1.392 . S
C373 H385 0.929 . S
C374 C370 1.531 . S
C374 H386 0.960 . S
C374 H387 0.962 . S
C374 H388 0.960 . S
C375 C372 1.511 . S
C375 H389 0.961 . S
C375 H390 0.961 . S
C375 H391 0.961 . S
C376 C377 1.370 . S
C376 C378 1.363 . S
C376 H392 0.931 . S
C377 C376 1.370 . S
C377 C381 1.408 . S
C378 C376 1.363 . S
C378 C379 1.370 . S
C378 C382 1.524 . S
C379 C371 1.503 . S
C379 C378 1.370 . S
C379 C380 1.403 . S
C380 C379 1.403 . S
C380 C381 1.404 . S
C380 C383 1.539 . S
C381 C377 1.408 . S
C381 C380 1.404 . S
C381 H393 0.930 . S
C382 C378 1.524 . S
C382 H394 0.956 . S
C382 H395 0.961 . S
C382 H396 0.961 . S
C383 C380 1.539 . S
C383 H397 0.958 . S
C383 H398 0.961 . S
C383 H399 0.960 . S
H384 C368 0.931 . S
H385 C373 0.929 . S
H386 C374 0.960 . S
H387 C374 0.962 . S
H388 C374 0.960 . S
H389 C375 0.961 . S
H390 C375 0.961 . S
H391 C375 0.961 . S
H392 C376 0.931 . S
H393 C381 0.930 . S
H394 C382 0.956 . S
H395 C382 0.961 . S
H396 C382 0.961 . S
H397 C383 0.958 . S
H398 C383 0.961 . S
H399 C383 0.960 . S
C400 C401 1.391 . S
C400 C402 1.394 . S
C400 H416 0.931 . S
C401 C400 1.391 . S
C401 C405 1.376 . S
C402 C400 1.394 . S
C402 C403 1.369 . S
C402 C406 1.531 . S
C403 C402 1.369 . S
C403 C404 1.410 . S
C403 C411 1.503 1_556 S
C404 C403 1.410 . S
C404 C405 1.392 . S
C404 C407 1.511 1_556 S
C405 C401 1.376 . S
C405 C404 1.392 . S
C405 H417 0.929 . S
C406 C402 1.531 . S
C406 H418 0.960 . S
C406 H419 0.962 . S
C406 H420 0.960 . S
C407 C404 1.511 1_554 S
C407 H421 0.961 . S
C407 H422 0.961 . S
C407 H423 0.961 . S
C408 C409 1.370 . S
C408 C410 1.363 . S
C408 H424 0.931 . S
C409 C408 1.370 . S
C409 C413 1.408 . S
C410 C408 1.363 . S
C410 C411 1.370 . S
C410 C414 1.524 . S
C411 C403 1.503 1_554 S
C411 C410 1.370 . S
C411 C412 1.403 . S
C412 C411 1.403 . S
C412 C413 1.404 . S
C412 C415 1.539 . S
C413 C409 1.408 . S
C413 C412 1.404 . S
C413 H425 0.930 . S
C414 C410 1.524 . S
C414 H426 0.956 1_554 S
C414 H427 0.961 . S
C414 H428 0.961 . S
C415 C412 1.539 . S
C415 H429 0.958 . S
C415 H430 0.961 . S
C415 H431 0.960 . S
H416 C400 0.931 . S
H417 C405 0.929 . S
H418 C406 0.960 . S
H419 C406 0.962 . S
H420 C406 0.960 . S
H421 C407 0.961 . S
H422 C407 0.961 . S
H423 C407 0.961 . S
H424 C408 0.931 . S
H425 C413 0.930 . S
H426 C414 0.956 1_556 S
H427 C414 0.961 . S
H428 C414 0.961 . S
H429 C415 0.958 . S
H430 C415 0.961 . S
H431 C415 0.960 . S
C432 C433 1.391 . S
C432 C434 1.394 . S
C432 H448 0.931 . S
C433 C432 1.391 . S
C433 C437 1.376 . S
C434 C432 1.394 . S
C434 C435 1.369 . S
C434 C438 1.531 . S
C435 C434 1.369 . S
C435 C436 1.410 . S
C435 C443 1.503 . S
C436 C435 1.410 . S
C436 C437 1.392 . S
C436 C439 1.511 . S
C437 C433 1.376 . S
C437 C436 1.392 . S
C437 H449 0.929 . S
C438 C434 1.531 . S
C438 H450 0.960 . S
C438 H451 0.962 . S
C438 H452 0.960 . S
C439 C436 1.511 . S
C439 H453 0.961 . S
C439 H454 0.961 . S
C439 H455 0.961 . S
C440 C441 1.370 . S
C440 C442 1.363 . S
C440 H456 0.931 . S
C441 C440 1.370 . S
C441 C445 1.408 . S
C442 C440 1.363 . S
C442 C443 1.370 . S
C442 C446 1.524 . S
C443 C435 1.503 . S
C443 C442 1.370 . S
C443 C444 1.403 . S
C444 C443 1.403 . S
C444 C445 1.404 . S
C444 C447 1.539 . S
C445 C441 1.408 . S
C445 C444 1.404 . S
C445 H457 0.930 . S
C446 C442 1.524 . S
C446 H458 0.956 . S
C446 H459 0.961 . S
C446 H460 0.961 . S
C447 C444 1.539 . S
C447 H461 0.958 . S
C447 H462 0.961 . S
C447 H463 0.960 . S
H448 C432 0.931 . S
H449 C437 0.929 . S
H450 C438 0.960 . S
H451 C438 0.962 . S
H452 C438 0.960 . S
H453 C439 0.961 . S
H454 C439 0.961 . S
H455 C439 0.961 . S
H456 C440 0.931 . S
H457 C445 0.930 . S
H458 C446 0.956 . S
H459 C446 0.961 . S
H460 C446 0.961 . S
H461 C447 0.958 . S
H462 C447 0.961 . S
H463 C447 0.960 . S
C464 C465 1.391 . S
C464 C466 1.394 . S
C464 H480 0.931 . S
C465 C464 1.391 . S
C465 C469 1.376 . S
C466 C464 1.394 . S
C466 C467 1.369 . S
C466 C470 1.531 . S
C467 C466 1.369 . S
C467 C468 1.410 . S
C467 C475 1.503 . S
C468 C467 1.410 . S
C468 C469 1.392 . S
C468 C471 1.511 . S
C469 C465 1.376 . S
C469 C468 1.392 . S
C469 H481 0.929 . S
C470 C466 1.531 . S
C470 H482 0.960 . S
C470 H483 0.962 . S
C470 H484 0.960 . S
C471 C468 1.511 . S
C471 H485 0.961 . S
C471 H486 0.961 . S
C471 H487 0.961 . S
C472 C473 1.370 . S
C472 C474 1.363 . S
C472 H488 0.931 . S
C473 C472 1.370 . S
C473 C477 1.408 . S
C474 C472 1.363 . S
C474 C475 1.370 . S
C474 C478 1.524 . S
C475 C467 1.503 . S
C475 C474 1.370 . S
C475 C476 1.403 . S
C476 C475 1.403 . S
C476 C477 1.404 . S
C476 C479 1.539 . S
C477 C473 1.408 . S
C477 C476 1.404 . S
C477 H489 0.930 . S
C478 C474 1.524 . S
C478 H490 0.956 . S
C478 H491 0.961 . S
C478 H492 0.961 . S
C479 C476 1.539 . S
C479 H493 0.958 . S
C479 H494 0.961 . S
C479 H495 0.960 . S
H480 C464 0.931 . S
H481 C469 0.929 . S
H482 C470 0.960 . S
H483 C470 0.962 . S
H484 C470 0.960 . S
H485 C471 0.961 . S
H486 C471 0.961 . S
H487 C471 0.961 . S
H488 C472 0.931 . S
H489 C477 0.930 . S
H490 C478 0.956 . S
H491 C478 0.961 . S
H492 C478 0.961 . S
H493 C479 0.958 . S
H494 C479 0.961 . S
H495 C479 0.960 . S
C496 C497 1.391 . S
C496 C498 1.394 . S
C496 H512 0.931 . S
C497 C496 1.391 . S
C497 C501 1.376 . S
C498 C496 1.394 . S
C498 C499 1.369 . S
C498 C502 1.531 . S
C499 C498 1.369 . S
C499 C500 1.410 . S
C499 C507 1.503 . S
C500 C499 1.410 . S
C500 C501 1.392 . S
C500 C503 1.511 . S
C501 C497 1.376 . S
C501 C500 1.392 . S
C501 H513 0.929 . S
C502 C498 1.531 . S
C502 H514 0.960 . S
C502 H515 0.962 . S
C502 H516 0.960 . S
C503 C500 1.511 . S
C503 H517 0.961 . S
C503 H518 0.961 . S
C503 H519 0.961 . S
C504 C505 1.370 . S
C504 C506 1.363 . S
C504 H520 0.931 . S
C505 C504 1.370 . S
C505 C509 1.408 . S
C506 C504 1.363 . S
C506 C507 1.370 . S
C506 C510 1.524 . S
C507 C499 1.503 . S
C507 C506 1.370 . S
C507 C508 1.403 . S
C508 C507 1.403 . S
C508 C509 1.404 . S
C508 C511 1.539 . S
C509 C505 1.408 . S
C509 C508 1.404 . S
C509 H521 0.930 . S
C510 C506 1.524 . S
C510 H522 0.956 . S
C510 H523 0.961 . S
C510 H524 0.961 . S
C511 C508 1.539 . S
C511 H525 0.958 . S
C511 H526 0.961 . S
C511 H527 0.960 . S
H512 C496 0.931 . S
H513 C501 0.929 . S
H514 C502 0.960 . S
H515 C502 0.962 . S
H516 C502 0.960 . S
H517 C503 0.961 . S
H518 C503 0.961 . S
H519 C503 0.961 . S
H520 C504 0.931 . S
H521 C509 0.930 . S
H522 C510 0.956 . S
H523 C510 0.961 . S
H524 C510 0.961 . S
H525 C511 0.958 . S
H526 C511 0.961 . S
H527 C511 0.960 . S
C528 C529 1.391 . S
C528 C530 1.394 . S
C528 H544 0.931 . S
C529 C528 1.391 . S
C529 C533 1.376 . S
C530 C528 1.394 . S
C530 C531 1.369 . S
C530 C534 1.531 . S
C531 C530 1.369 . S
C531 C532 1.410 . S
C531 C539 1.503 . S
C532 C531 1.410 . S
C532 C533 1.392 . S
C532 C535 1.511 . S
C533 C529 1.376 . S
C533 C532 1.392 . S
C533 H545 0.929 . S
C534 C530 1.531 . S
C534 H546 0.960 . S
C534 H547 0.962 . S
C534 H548 0.960 . S
C535 C532 1.511 . S
C535 H549 0.961 . S
C535 H550 0.961 . S
C535 H551 0.961 . S
C536 C537 1.370 . S
C536 C538 1.363 . S
C536 H552 0.931 . S
C537 C536 1.370 . S
C537 C541 1.408 . S
C538 C536 1.363 . S
C538 C539 1.370 . S
C538 C542 1.524 . S
C539 C531 1.503 . S
C539 C538 1.370 . S
C539 C540 1.403 . S
C540 C539 1.403 . S
C540 C541 1.404 . S
C540 C543 1.539 . S
C541 C537 1.408 . S
C541 C540 1.404 . S
C541 H553 0.930 . S
C542 C538 1.524 . S
C542 H554 0.956 . S
C542 H555 0.961 . S
C542 H556 0.961 . S
C543 C540 1.539 . S
C543 H557 0.958 . S
C543 H558 0.961 . S
C543 H559 0.960 . S
H544 C528 0.931 . S
H545 C533 0.929 . S
H546 C534 0.960 . S
H547 C534 0.962 . S
H548 C534 0.960 . S
H549 C535 0.961 . S
H550 C535 0.961 . S
H551 C535 0.961 . S
H552 C536 0.931 . S
H553 C541 0.930 . S
H554 C542 0.956 . S
H555 C542 0.961 . S
H556 C542 0.961 . S
H557 C543 0.958 . S
H558 C543 0.961 . S
H559 C543 0.960 . S
C560 C561 1.391 . S
C560 C562 1.394 . S
C560 H576 0.931 . S
C561 C560 1.391 . S
C561 C565 1.376 . S
C562 C560 1.394 . S
C562 C563 1.369 . S
C562 C566 1.531 . S
C563 C562 1.369 . S
C563 C564 1.410 . S
C563 C571 1.503 . S
C564 C563 1.410 . S
C564 C565 1.392 . S
C564 C567 1.511 . S
C565 C561 1.376 . S
C565 C564 1.392 . S
C565 H577 0.929 . S
C566 C562 1.531 . S
C566 H578 0.960 . S
C566 H579 0.962 . S
C566 H580 0.960 . S
C567 C564 1.511 . S
C567 H581 0.961 . S
C567 H582 0.961 . S
C567 H583 0.961 . S
C568 C569 1.370 . S
C568 C570 1.363 . S
C568 H584 0.931 . S
C569 C568 1.370 . S
C569 C573 1.408 . S
C570 C568 1.363 . S
C570 C571 1.370 . S
C570 C574 1.524 . S
C571 C563 1.503 . S
C571 C570 1.370 . S
C571 C572 1.403 . S
C572 C571 1.403 . S
C572 C573 1.404 . S
C572 C575 1.539 . S
C573 C569 1.408 . S
C573 C572 1.404 . S
C573 H585 0.930 . S
C574 C570 1.524 . S
C574 H586 0.956 . S
C574 H587 0.961 . S
C574 H588 0.961 . S
C575 C572 1.539 . S
C575 H589 0.958 . S
C575 H590 0.961 . S
C575 H591 0.960 . S
H576 C560 0.931 . S
H577 C565 0.929 . S
H578 C566 0.960 . S
H579 C566 0.962 . S
H580 C566 0.960 . S
H581 C567 0.961 . S
H582 C567 0.961 . S
H583 C567 0.961 . S
H584 C568 0.931 . S
H585 C573 0.930 . S
H586 C574 0.956 . S
H587 C574 0.961 . S
H588 C574 0.961 . S
H589 C575 0.958 . S
H590 C575 0.961 . S
H591 C575 0.960 . S
C592 C593 1.391 . S
C592 C594 1.394 . S
C592 H608 0.931 . S
C593 C592 1.391 . S
C593 C597 1.376 . S
C594 C592 1.394 . S
C594 C595 1.369 . S
C594 C598 1.531 . S
C595 C594 1.369 . S
C595 C596 1.410 . S
C595 C603 1.503 . S
C596 C595 1.410 . S
C596 C597 1.392 . S
C596 C599 1.511 . S
C597 C593 1.376 . S
C597 C596 1.392 . S
C597 H609 0.929 . S
C598 C594 1.531 . S
C598 H610 0.960 . S
C598 H611 0.962 . S
C598 H612 0.960 . S
C599 C596 1.511 . S
C599 H613 0.961 . S
C599 H614 0.961 . S
C599 H615 0.961 . S
C600 C601 1.370 . S
C600 C602 1.363 . S
C600 H616 0.931 . S
C601 C600 1.370 . S
C601 C605 1.408 . S
C602 C600 1.363 . S
C602 C603 1.370 . S
C602 C606 1.524 . S
C603 C595 1.503 . S
C603 C602 1.370 . S
C603 C604 1.403 . S
C604 C603 1.403 . S
C604 C605 1.404 . S
C604 C607 1.539 . S
C605 C601 1.408 . S
C605 C604 1.404 . S
C605 H617 0.930 . S
C606 C602 1.524 . S
C606 H618 0.956 . S
C606 H619 0.961 . S
C606 H620 0.961 . S
C607 C604 1.539 . S
C607 H621 0.958 . S
C607 H622 0.961 . S
C607 H623 0.960 . S
H608 C592 0.931 . S
H609 C597 0.929 . S
H610 C598 0.960 . S
H611 C598 0.962 . S
H612 C598 0.960 . S
H613 C599 0.961 . S
H614 C599 0.961 . S
H615 C599 0.961 . S
H616 C600 0.931 . S
H617 C605 0.930 . S
H618 C606 0.956 . S
H619 C606 0.961 . S
H620 C606 0.961 . S
H621 C607 0.958 . S
H622 C607 0.961 . S
H623 C607 0.960 . S
C624 C625 1.391 . S
C624 C626 1.394 . S
C624 H640 0.931 . S
C625 C624 1.391 . S
C625 C629 1.376 . S
C626 C624 1.394 . S
C626 C627 1.369 . S
C626 C630 1.531 . S
C627 C626 1.369 . S
C627 C628 1.410 . S
C627 C635 1.503 . S
C628 C627 1.410 . S
C628 C629 1.392 . S
C628 C631 1.511 . S
C629 C625 1.376 . S
C629 C628 1.392 . S
C629 H641 0.929 . S
C630 C626 1.531 . S
C630 H642 0.960 . S
C630 H643 0.962 . S
C630 H644 0.960 . S
C631 C628 1.511 . S
C631 H645 0.961 . S
C631 H646 0.961 . S
C631 H647 0.961 . S
C632 C633 1.370 . S
C632 C634 1.363 . S
C632 H648 0.931 . S
C633 C632 1.370 . S
C633 C637 1.408 . S
C634 C632 1.363 . S
C634 C635 1.370 . S
C634 C638 1.524 . S
C635 C627 1.503 . S
C635 C634 1.370 . S
C635 C636 1.403 . S
C636 C635 1.403 . S
C636 C637 1.404 . S
C636 C639 1.539 . S
C637 C633 1.408 . S
C637 C636 1.404 . S
C637 H649 0.930 . S
C638 C634 1.524 . S
C638 H650 0.956 . S
C638 H651 0.961 . S
C638 H652 0.961 . S
C639 C636 1.539 . S
C639 H653 0.958 . S
C639 H654 0.961 . S
C639 H655 0.960 . S
H640 C624 0.931 . S
H641 C629 0.929 . S
H642 C630 0.960 . S
H643 C630 0.962 . S
H644 C630 0.960 . S
H645 C631 0.961 . S
H646 C631 0.961 . S
H647 C631 0.961 . S
H648 C632 0.931 . S
H649 C637 0.930 . S
H650 C638 0.956 . S
H651 C638 0.961 . S
H652 C638 0.961 . S
H653 C639 0.958 . S
H654 C639 0.961 . S
H655 C639 0.960 . S
C656 C657 1.391 . S
C656 C658 1.394 . S
C656 H672 0.931 . S
C657 C656 1.391 . S
C657 C661 1.376 . S
C658 C656 1.394 . S
C658 C659 1.369 . S
C658 C662 1.531 . S
C659 C658 1.369 . S
C659 C660 1.410 . S
C659 C667 1.503 . S
C660 C659 1.410 . S
C660 C661 1.392 . S
C660 C663 1.511 . S
C661 C657 1.376 . S
C661 C660 1.392 . S
C661 H673 0.929 . S
C662 C658 1.531 . S
C662 H674 0.960 . S
C662 H675 0.962 . S
C662 H676 0.960 . S
C663 C660 1.511 . S
C663 H677 0.961 . S
C663 H678 0.961 . S
C663 H679 0.961 . S
C664 C665 1.370 . S
C664 C666 1.363 . S
C664 H680 0.931 . S
C665 C664 1.370 . S
C665 C669 1.408 . S
C666 C664 1.363 . S
C666 C667 1.370 . S
C666 C670 1.524 . S
C667 C659 1.503 . S
C667 C666 1.370 . S
C667 C668 1.403 . S
C668 C667 1.403 . S
C668 C669 1.404 . S
C668 C671 1.539 . S
C669 C665 1.408 . S
C669 C668 1.404 . S
C669 H681 0.930 . S
C670 C666 1.524 . S
C670 H682 0.956 . S
C670 H683 0.961 . S
C670 H684 0.961 . S
C671 C668 1.539 . S
C671 H685 0.958 . S
C671 H686 0.961 . S
C671 H687 0.960 . S
H672 C656 0.931 . S
H673 C661 0.929 . S
H674 C662 0.960 . S
H675 C662 0.962 . S
H676 C662 0.960 . S
H677 C663 0.961 . S
H678 C663 0.961 . S
H679 C663 0.961 . S
H680 C664 0.931 . S
H681 C669 0.930 . S
H682 C670 0.956 . S
H683 C670 0.961 . S
H684 C670 0.961 . S
H685 C671 0.958 . S
H686 C671 0.961 . S
H687 C671 0.960 . S
C688 C689 1.391 . S
C688 C690 1.394 . S
C688 H704 0.931 . S
C689 C688 1.391 . S
C689 C693 1.376 . S
C690 C688 1.394 . S
C690 C691 1.369 . S
C690 C694 1.531 . S
C691 C690 1.369 . S
C691 C692 1.410 . S
C691 C699 1.503 . S
C692 C691 1.410 . S
C692 C693 1.392 . S
C692 C695 1.511 . S
C693 C689 1.376 . S
C693 C692 1.392 . S
C693 H705 0.929 . S
C694 C690 1.531 . S
C694 H706 0.960 . S
C694 H707 0.962 . S
C694 H708 0.960 . S
C695 C692 1.511 . S
C695 H709 0.961 . S
C695 H710 0.961 . S
C695 H711 0.961 . S
C696 C697 1.370 . S
C696 C698 1.363 . S
C696 H712 0.931 . S
C697 C696 1.370 . S
C697 C701 1.408 . S
C698 C696 1.363 . S
C698 C699 1.370 . S
C698 C702 1.524 . S
C699 C691 1.503 . S
C699 C698 1.370 . S
C699 C700 1.403 . S
C700 C699 1.403 . S
C700 C701 1.404 . S
C700 C703 1.539 . S
C701 C697 1.408 . S
C701 C700 1.404 . S
C701 H713 0.930 . S
C702 C698 1.524 . S
C702 H714 0.956 . S
C702 H715 0.961 . S
C702 H716 0.961 . S
C703 C700 1.539 . S
C703 H717 0.958 . S
C703 H718 0.961 . S
C703 H719 0.960 . S
H704 C688 0.931 . S
H705 C693 0.929 . S
H706 C694 0.960 . S
H707 C694 0.962 . S
H708 C694 0.960 . S
H709 C695 0.961 . S
H710 C695 0.961 . S
H711 C695 0.961 . S
H712 C696 0.931 . S
H713 C701 0.930 . S
H714 C702 0.956 . S
H715 C702 0.961 . S
H716 C702 0.961 . S
H717 C703 0.958 . S
H718 C703 0.961 . S
H719 C703 0.960 . S
C720 C721 1.391 . S
C720 C722 1.394 . S
C720 H736 0.931 . S
C721 C720 1.391 . S
C721 C725 1.376 . S
C722 C720 1.394 . S
C722 C723 1.369 . S
C722 C726 1.531 . S
C723 C722 1.369 . S
C723 C724 1.410 . S
C723 C731 1.503 . S
C724 C723 1.410 . S
C724 C725 1.392 . S
C724 C727 1.511 . S
C725 C721 1.376 . S
C725 C724 1.392 . S
C725 H737 0.929 . S
C726 C722 1.531 . S
C726 H738 0.960 . S
C726 H739 0.962 . S
C726 H740 0.960 . S
C727 C724 1.511 . S
C727 H741 0.961 . S
C727 H742 0.961 . S
C727 H743 0.961 . S
C728 C729 1.370 . S
C728 C730 1.363 . S
C728 H744 0.931 . S
C729 C728 1.370 . S
C729 C733 1.408 . S
C730 C728 1.363 . S
C730 C731 1.370 . S
C730 C734 1.524 . S
C731 C723 1.503 . S
C731 C730 1.370 . S
C731 C732 1.403 . S
C732 C731 1.403 . S
C732 C733 1.404 . S
C732 C735 1.539 . S
C733 C729 1.408 . S
C733 C732 1.404 . S
C733 H745 0.930 . S
C734 C730 1.524 . S
C734 H746 0.956 . S
C734 H747 0.961 . S
C734 H748 0.961 . S
C735 C732 1.539 . S
C735 H749 0.958 1_545 S
C735 H750 0.961 . S
C735 H751 0.960 . S
H736 C720 0.931 . S
H737 C725 0.929 . S
H738 C726 0.960 . S
H739 C726 0.962 . S
H740 C726 0.960 . S
H741 C727 0.961 . S
H742 C727 0.961 . S
H743 C727 0.961 . S
H744 C728 0.931 . S
H745 C733 0.930 . S
H746 C734 0.956 . S
H747 C734 0.961 . S
H748 C734 0.961 . S
H749 C735 0.958 1_565 S
H750 C735 0.961 . S
H751 C735 0.960 . S
C752 C753 1.391 . S
C752 C754 1.394 . S
C752 H768 0.931 . S
C753 C752 1.391 . S
C753 C757 1.376 . S
C754 C752 1.394 . S
C754 C755 1.369 . S
C754 C758 1.531 . S
C755 C754 1.369 . S
C755 C756 1.410 . S
C755 C763 1.503 . S
C756 C755 1.410 . S
C756 C757 1.392 . S
C756 C759 1.511 . S
C757 C753 1.376 . S
C757 C756 1.392 . S
C757 H769 0.929 . S
C758 C754 1.531 . S
C758 H770 0.960 . S
C758 H771 0.962 . S
C758 H772 0.960 . S
C759 C756 1.511 . S
C759 H773 0.961 . S
C759 H774 0.961 . S
C759 H775 0.961 . S
C760 C761 1.370 . S
C760 C762 1.363 . S
C760 H776 0.931 . S
C761 C760 1.370 . S
C761 C765 1.408 . S
C762 C760 1.363 . S
C762 C763 1.370 . S
C762 C766 1.524 . S
C763 C755 1.503 . S
C763 C762 1.370 . S
C763 C764 1.403 . S
C764 C763 1.403 . S
C764 C765 1.404 . S
C764 C767 1.539 . S
C765 C761 1.408 . S
C765 C764 1.404 . S
C765 H777 0.930 . S
C766 C762 1.524 . S
C766 H778 0.956 . S
C766 H779 0.961 . S
C766 H780 0.961 . S
C767 C764 1.539 . S
C767 H781 0.958 . S
C767 H782 0.961 . S
C767 H783 0.960 . S
H768 C752 0.931 . S
H769 C757 0.929 . S
H770 C758 0.960 . S
H771 C758 0.962 . S
H772 C758 0.960 . S
H773 C759 0.961 . S
H774 C759 0.961 . S
H775 C759 0.961 . S
H776 C760 0.931 . S
H777 C765 0.930 . S
H778 C766 0.956 . S
H779 C766 0.961 . S
H780 C766 0.961 . S
H781 C767 0.958 . S
H782 C767 0.961 . S
H783 C767 0.960 . S
C784 C785 1.391 . S
C784 C786 1.394 . S
C784 H800 0.931 . S
C785 C784 1.391 . S
C785 C789 1.376 . S
C786 C784 1.394 . S
C786 C787 1.369 . S
C786 C790 1.531 . S
C787 C786 1.369 . S
C787 C788 1.410 . S
C787 C795 1.503 . S
C788 C787 1.410 . S
C788 C789 1.392 . S
C788 C791 1.511 . S
C789 C785 1.376 . S
C789 C788 1.392 . S
C789 H801 0.929 . S
C790 C786 1.531 . S
C790 H802 0.960 . S
C790 H803 0.962 . S
C790 H804 0.960 . S
C791 C788 1.511 . S
C791 H805 0.961 . S
C791 H806 0.961 . S
C791 H807 0.961 . S
C792 C793 1.370 . S
C792 C794 1.363 . S
C792 H808 0.931 . S
C793 C792 1.370 . S
C793 C797 1.408 . S
C794 C792 1.363 . S
C794 C795 1.370 . S
C794 C798 1.524 . S
C795 C787 1.503 . S
C795 C794 1.370 . S
C795 C796 1.403 . S
C796 C795 1.403 . S
C796 C797 1.404 . S
C796 C799 1.539 . S
C797 C793 1.408 . S
C797 C796 1.404 . S
C797 H809 0.930 . S
C798 C794 1.524 . S
C798 H810 0.956 . S
C798 H811 0.961 . S
C798 H812 0.961 . S
C799 C796 1.539 . S
C799 H813 0.958 . S
C799 H814 0.961 . S
C799 H815 0.960 . S
H800 C784 0.931 . S
H801 C789 0.929 . S
H802 C790 0.960 . S
H803 C790 0.962 . S
H804 C790 0.960 . S
H805 C791 0.961 . S
H806 C791 0.961 . S
H807 C791 0.961 . S
H808 C792 0.931 . S
H809 C797 0.930 . S
H810 C798 0.956 . S
H811 C798 0.961 . S
H812 C798 0.961 . S
H813 C799 0.958 . S
H814 C799 0.961 . S
H815 C799 0.960 . S
C816 C817 1.391 . S
C816 C818 1.394 . S
C816 H832 0.931 . S
C817 C816 1.391 . S
C817 C821 1.376 . S
C818 C816 1.394 . S
C818 C819 1.369 . S
C818 C822 1.531 . S
C819 C818 1.369 . S
C819 C820 1.410 . S
C819 C827 1.503 . S
C820 C819 1.410 . S
C820 C821 1.392 . S
C820 C823 1.511 . S
C821 C817 1.376 . S
C821 C820 1.392 . S
C821 H833 0.929 . S
C822 C818 1.531 . S
C822 H834 0.960 . S
C822 H835 0.962 . S
C822 H836 0.960 . S
C823 C820 1.511 . S
C823 H837 0.961 . S
C823 H838 0.961 . S
C823 H839 0.959 1_455 S
C824 C825 1.370 . S
C824 C826 1.363 . S
C824 H840 0.931 . S
C825 C824 1.370 . S
C825 C829 1.408 . S
C826 C824 1.363 . S
C826 C827 1.370 . S
C826 C830 1.524 . S
C827 C819 1.503 . S
C827 C826 1.370 . S
C827 C828 1.403 . S
C828 C827 1.403 . S
C828 C829 1.404 . S
C828 C831 1.539 . S
C829 C825 1.408 . S
C829 C828 1.404 . S
C829 H841 0.930 . S
C830 C826 1.524 . S
C830 H842 0.956 . S
C830 H843 0.961 . S
C830 H844 0.961 . S
C831 C828 1.539 . S
C831 H845 0.958 . S
C831 H846 0.961 1_455 S
C831 H847 0.960 . S
H832 C816 0.931 . S
H833 C821 0.929 . S
H834 C822 0.960 . S
H835 C822 0.962 . S
H836 C822 0.960 . S
H837 C823 0.961 . S
H838 C823 0.961 . S
H839 C823 0.959 1_655 S
H840 C824 0.931 . S
H841 C829 0.930 . S
H842 C830 0.956 . S
H843 C830 0.961 . S
H844 C830 0.961 . S
H845 C831 0.958 . S
H846 C831 0.961 1_655 S
H847 C831 0.960 . S
C848 C849 1.391 . S
C848 C850 1.394 . S
C848 H864 0.931 . S
C849 C848 1.391 . S
C849 C853 1.376 . S
C850 C848 1.394 . S
C850 C851 1.369 . S
C850 C854 1.531 . S
C851 C850 1.369 . S
C851 C852 1.410 . S
C851 C859 1.503 . S
C852 C851 1.410 . S
C852 C853 1.392 . S
C852 C855 1.511 . S
C853 C849 1.376 . S
C853 C852 1.392 . S
C853 H865 0.929 . S
C854 C850 1.531 . S
C854 H866 0.960 . S
C854 H867 0.962 . S
C854 H868 0.960 . S
C855 C852 1.511 . S
C855 H869 0.961 . S
C855 H870 0.961 . S
C855 H871 0.961 . S
C856 C857 1.370 . S
C856 C858 1.363 . S
C856 H872 0.931 . S
C857 C856 1.370 . S
C857 C861 1.408 . S
C858 C856 1.363 . S
C858 C859 1.370 . S
C858 C862 1.524 . S
C859 C851 1.503 . S
C859 C858 1.370 . S
C859 C860 1.403 . S
C860 C859 1.403 . S
C860 C861 1.404 . S
C860 C863 1.539 . S
C861 C857 1.408 . S
C861 C860 1.404 . S
C861 H873 0.930 . S
C862 C858 1.524 . S
C862 H874 0.956 . S
C862 H875 0.961 . S
C862 H876 0.961 . S
C863 C860 1.539 . S
C863 H877 0.958 1_565 S
C863 H878 0.961 . S
C863 H879 0.960 . S
H864 C848 0.931 . S
H865 C853 0.929 . S
H866 C854 0.960 . S
H867 C854 0.962 . S
H868 C854 0.960 . S
H869 C855 0.961 . S
H870 C855 0.961 . S
H871 C855 0.961 . S
H872 C856 0.931 . S
H873 C861 0.930 . S
H874 C862 0.956 . S
H875 C862 0.961 . S
H876 C862 0.961 . S
H877 C863 0.958 1_545 S
H878 C863 0.961 . S
H879 C863 0.960 . S
C880 C881 1.391 . S
C880 C882 1.394 . S
C880 H896 0.931 . S
C881 C880 1.391 . S
C881 C885 1.376 . S
C882 C880 1.394 . S
C882 C883 1.369 . S
C882 C886 1.531 . S
C883 C882 1.369 . S
C883 C884 1.410 . S
C883 C891 1.503 . S
C884 C883 1.410 . S
C884 C885 1.392 . S
C884 C887 1.511 . S
C885 C881 1.376 . S
C885 C884 1.392 . S
C885 H897 0.929 . S
C886 C882 1.531 . S
C886 H898 0.960 . S
C886 H899 0.962 . S
C886 H900 0.960 . S
C887 C884 1.511 . S
C887 H901 0.961 . S
C887 H902 0.961 . S
C887 H903 0.961 . S
C888 C889 1.370 . S
C888 C890 1.363 . S
C888 H904 0.931 . S
C889 C888 1.370 . S
C889 C893 1.408 . S
C890 C888 1.363 . S
C890 C891 1.370 . S
C890 C894 1.524 . S
C891 C883 1.503 . S
C891 C890 1.370 . S
C891 C892 1.403 . S
C892 C891 1.403 . S
C892 C893 1.404 . S
C892 C895 1.539 . S
C893 C889 1.408 . S
C893 C892 1.404 . S
C893 H905 0.930 . S
C894 C890 1.524 . S
C894 H906 0.956 . S
C894 H907 0.961 . S
C894 H908 0.961 . S
C895 C892 1.539 . S
C895 H909 0.958 . S
C895 H910 0.961 . S
C895 H911 0.960 . S
H896 C880 0.931 . S
H897 C885 0.929 . S
H898 C886 0.960 . S
H899 C886 0.962 . S
H900 C886 0.960 . S
H901 C887 0.961 . S
H902 C887 0.961 . S
H903 C887 0.961 . S
H904 C888 0.931 . S
H905 C893 0.930 . S
H906 C894 0.956 . S
H907 C894 0.961 . S
H908 C894 0.961 . S
H909 C895 0.958 . S
H910 C895 0.961 . S
H911 C895 0.960 . S
C912 C913 1.391 . S
C912 C914 1.394 . S
C912 H928 0.931 . S
C913 C912 1.391 . S
C913 C917 1.376 . S
C914 C912 1.394 . S
C914 C915 1.369 . S
C914 C918 1.531 . S
C915 C914 1.369 . S
C915 C916 1.410 . S
C915 C923 1.503 . S
C916 C915 1.410 . S
C916 C917 1.392 . S
C916 C919 1.511 . S
C917 C913 1.376 . S
C917 C916 1.392 . S
C917 H929 0.929 . S
C918 C914 1.531 . S
C918 H930 0.960 . S
C918 H931 0.962 . S
C918 H932 0.960 . S
C919 C916 1.511 . S
C919 H933 0.961 . S
C919 H934 0.961 . S
C919 H935 0.961 . S
C920 C921 1.370 . S
C920 C922 1.363 . S
C920 H936 0.931 . S
C921 C920 1.370 . S
C921 C925 1.408 . S
C922 C920 1.363 . S
C922 C923 1.370 . S
C922 C926 1.524 . S
C923 C915 1.503 . S
C923 C922 1.370 . S
C923 C924 1.403 . S
C924 C923 1.403 . S
C924 C925 1.404 . S
C924 C927 1.539 . S
C925 C921 1.408 . S
C925 C924 1.404 . S
C925 H937 0.930 . S
C926 C922 1.524 . S
C926 H938 0.956 . S
C926 H939 0.961 . S
C926 H940 0.961 . S
C927 C924 1.539 . S
C927 H941 0.958 . S
C927 H942 0.961 . S
C927 H943 0.960 . S
H928 C912 0.931 . S
H929 C917 0.929 . S
H930 C918 0.960 . S
H931 C918 0.962 . S
H932 C918 0.960 . S
H933 C919 0.961 . S
H934 C919 0.961 . S
H935 C919 0.961 . S
H936 C920 0.931 . S
H937 C925 0.930 . S
H938 C926 0.956 . S
H939 C926 0.961 . S
H940 C926 0.961 . S
H941 C927 0.958 . S
H942 C927 0.961 . S
H943 C927 0.960 . S
C944 C945 1.391 . S
C944 C946 1.394 . S
C944 H960 0.931 . S
C945 C944 1.391 . S
C945 C949 1.376 . S
C946 C944 1.394 . S
C946 C947 1.369 . S
C946 C950 1.531 . S
C947 C946 1.369 . S
C947 C948 1.410 . S
C947 C955 1.503 . S
C948 C947 1.410 . S
C948 C949 1.392 . S
C948 C951 1.511 . S
C949 C945 1.376 . S
C949 C948 1.392 . S
C949 H961 0.929 . S
C950 C946 1.531 . S
C950 H962 0.960 . S
C950 H963 0.962 . S
C950 H964 0.960 . S
C951 C948 1.511 . S
C951 H965 0.961 1_655 S
C951 H966 0.961 . S
C951 H967 0.961 1_655 S
C952 C953 1.370 . S
C952 C954 1.363 . S
C952 H968 0.931 . S
C953 C952 1.370 . S
C953 C957 1.408 . S
C954 C952 1.363 . S
C954 C955 1.370 . S
C954 C958 1.524 . S
C955 C947 1.503 . S
C955 C954 1.370 . S
C955 C956 1.403 . S
C956 C955 1.403 . S
C956 C957 1.404 . S
C956 C959 1.539 . S
C957 C953 1.408 . S
C957 C956 1.404 . S
C957 H969 0.930 . S
C958 C954 1.524 . S
C958 H970 0.956 . S
C958 H971 0.961 . S
C958 H972 0.961 . S
C959 C956 1.539 . S
C959 H973 0.958 . S
C959 H974 0.961 . S
C959 H975 0.960 . S
H960 C944 0.931 . S
H961 C949 0.929 . S
H962 C950 0.960 . S
H963 C950 0.962 . S
H964 C950 0.960 . S
H965 C951 0.961 1_455 S
H966 C951 0.961 . S
H967 C951 0.961 1_455 S
H968 C952 0.931 . S
H969 C957 0.930 . S
H970 C958 0.956 . S
H971 C958 0.961 . S
H972 C958 0.961 . S
H973 C959 0.958 . S
H974 C959 0.961 . S
H975 C959 0.960 . S
C976 C977 1.391 . S
C976 C978 1.394 . S
C976 H992 0.931 . S
C977 C976 1.391 . S
C977 C981 1.376 . S
C978 C976 1.394 . S
C978 C979 1.369 . S
C978 C982 1.531 . S
C979 C978 1.369 . S
C979 C980 1.410 . S
C979 C987 1.503 . S
C980 C979 1.410 . S
C980 C981 1.392 . S
C980 C983 1.511 . S
C981 C977 1.376 . S
C981 C980 1.392 . S
C981 H993 0.929 . S
C982 C978 1.531 . S
C982 H994 0.960 . S
C982 H995 0.962 . S
C982 H996 0.960 . S
C983 C980 1.511 . S
C983 H997 0.961 . S
C983 H998 0.961 . S
C983 H999 0.961 . S
C984 C985 1.370 . S
C984 C986 1.363 . S
C984 H1000 0.931 . S
C985 C984 1.370 . S
C985 C989 1.408 . S
C986 C984 1.363 . S
C986 C987 1.370 . S
C986 C990 1.524 . S
C987 C979 1.503 . S
C987 C986 1.370 . S
C987 C988 1.403 . S
C988 C987 1.403 . S
C988 C989 1.404 . S
C988 C991 1.539 . S
C989 C985 1.408 . S
C989 C988 1.404 . S
C989 H1001 0.930 . S
C990 C986 1.524 . S
C990 H1002 0.956 . S
C990 H1003 0.961 . S
C990 H1004 0.961 . S
C991 C988 1.539 . S
C991 H1005 0.958 . S
C991 H1006 0.961 . S
C991 H1007 0.960 . S
H992 C976 0.931 . S
H993 C981 0.929 . S
H994 C982 0.960 . S
H995 C982 0.962 . S
H996 C982 0.960 . S
H997 C983 0.961 . S
H998 C983 0.961 . S
H999 C983 0.961 . S
H1000 C984 0.931 . S
H1001 C989 0.930 . S
H1002 C990 0.956 . S
H1003 C990 0.961 . S
H1004 C990 0.961 . S
H1005 C991 0.958 . S
H1006 C991 0.961 . S
H1007 C991 0.960 . S
C1008 C1009 1.391 . S
C1008 C1010 1.394 . S
C1008 H1024 0.931 . S
C1009 C1008 1.391 . S
C1009 C1013 1.376 . S
C1010 C1008 1.394 . S
C1010 C1011 1.369 . S
C1010 C1014 1.531 . S
C1011 C1010 1.369 . S
C1011 C1012 1.410 . S
C1011 C1019 1.503 . S
C1012 C1011 1.410 . S
C1012 C1013 1.392 . S
C1012 C1015 1.511 . S
C1013 C1009 1.376 . S
C1013 C1012 1.392 . S
C1013 H1025 0.929 . S
C1014 C1010 1.531 . S
C1014 H1026 0.960 . S
C1014 H1027 0.962 . S
C1014 H1028 0.960 . S
C1015 C1012 1.511 . S
C1015 H1029 0.961 . S
C1015 H1030 0.961 . S
C1015 H1031 0.961 . S
C1016 C1017 1.370 . S
C1016 C1018 1.363 . S
C1016 H1032 0.931 . S
C1017 C1016 1.370 . S
C1017 C1021 1.408 . S
C1018 C1016 1.363 . S
C1018 C1019 1.370 . S
C1018 C1022 1.524 . S
C1019 C1011 1.503 . S
C1019 C1018 1.370 . S
C1019 C1020 1.403 . S
C1020 C1019 1.403 . S
C1020 C1021 1.404 . S
C1020 C1023 1.539 . S
C1021 C1017 1.408 . S
C1021 C1020 1.404 . S
C1021 H1033 0.930 . S
C1022 C1018 1.524 . S
C1022 H1034 0.956 . S
C1022 H1035 0.961 . S
C1022 H1036 0.961 . S
C1023 C1020 1.539 . S
C1023 H1037 0.958 . S
C1023 H1038 0.961 . S
C1023 H1039 0.960 . S
H1024 C1008 0.931 . S
H1025 C1013 0.929 . S
H1026 C1014 0.960 . S
H1027 C1014 0.962 . S
H1028 C1014 0.960 . S
H1029 C1015 0.961 . S
H1030 C1015 0.961 . S
H1031 C1015 0.961 . S
H1032 C1016 0.931 . S
H1033 C1021 0.930 . S
H1034 C1022 0.956 . S
H1035 C1022 0.961 . S
H1036 C1022 0.961 . S
H1037 C1023 0.958 . S
H1038 C1023 0.961 . S
H1039 C1023 0.960 . S
C1040 C1041 1.391 . S
C1040 C1042 1.394 . S
C1040 H1056 0.931 . S
C1041 C1040 1.391 . S
C1041 C1045 1.376 . S
C1042 C1040 1.394 . S
C1042 C1043 1.369 . S
C1042 C1046 1.531 . S
C1043 C1042 1.369 . S
C1043 C1044 1.410 . S
C1043 C1051 1.503 . S
C1044 C1043 1.410 . S
C1044 C1045 1.392 . S
C1044 C1047 1.511 . S
C1045 C1041 1.376 . S
C1045 C1044 1.392 . S
C1045 H1057 0.929 . S
C1046 C1042 1.531 . S
C1046 H1058 0.960 . S
C1046 H1059 0.962 . S
C1046 H1060 0.960 . S
C1047 C1044 1.511 . S
C1047 H1061 0.961 . S
C1047 H1062 0.961 . S
C1047 H1063 0.961 . S
C1048 C1049 1.370 . S
C1048 C1050 1.363 . S
C1048 H1064 0.931 . S
C1049 C1048 1.370 . S
C1049 C1053 1.408 . S
C1050 C1048 1.363 . S
C1050 C1051 1.370 . S
C1050 C1054 1.524 . S
C1051 C1043 1.503 . S
C1051 C1050 1.370 . S
C1051 C1052 1.403 . S
C1052 C1051 1.403 . S
C1052 C1053 1.404 . S
C1052 C1055 1.539 . S
C1053 C1049 1.408 . S
C1053 C1052 1.404 . S
C1053 H1065 0.930 . S
C1054 C1050 1.524 . S
C1054 H1066 0.956 . S
C1054 H1067 0.961 . S
C1054 H1068 0.961 . S
C1055 C1052 1.539 . S
C1055 H1069 0.958 . S
C1055 H1070 0.961 . S
C1055 H1071 0.960 . S
H1056 C1040 0.931 . S
H1057 C1045 0.929 . S
H1058 C1046 0.960 . S
H1059 C1046 0.962 . S
H1060 C1046 0.960 . S
H1061 C1047 0.961 . S
H1062 C1047 0.961 . S
H1063 C1047 0.961 . S
H1064 C1048 0.931 . S
H1065 C1053 0.930 . S
H1066 C1054 0.956 . S
H1067 C1054 0.961 . S
H1068 C1054 0.961 . S
H1069 C1055 0.958 . S
H1070 C1055 0.961 . S
H1071 C1055 0.960 . S
C1072 C1073 1.391 . S
C1072 C1074 1.394 . S
C1072 H1088 0.931 . S
C1073 C1072 1.391 . S
C1073 C1077 1.376 . S
C1074 C1072 1.394 . S
C1074 C1075 1.369 . S
C1074 C1078 1.531 . S
C1075 C1074 1.369 . S
C1075 C1076 1.410 . S
C1075 C1083 1.503 . S
C1076 C1075 1.410 . S
C1076 C1077 1.392 . S
C1076 C1079 1.511 . S
C1077 C1073 1.376 . S
C1077 C1076 1.392 . S
C1077 H1089 0.916 1_545 S
C1078 C1074 1.531 . S
C1078 H1090 0.960 . S
C1078 H1091 0.962 . S
C1078 H1092 0.960 . S
C1079 C1076 1.511 . S
C1079 H1093 0.961 . S
C1079 H1094 0.961 . S
C1079 H1095 0.961 . S
C1080 C1081 1.370 . S
C1080 C1082 1.363 . S
C1080 H1096 0.931 . S
C1081 C1080 1.370 . S
C1081 C1085 1.413 . S
C1082 C1080 1.363 . S
C1082 C1083 1.370 . S
C1082 C1086 1.524 . S
C1083 C1075 1.503 . S
C1083 C1082 1.370 . S
C1083 C1084 1.403 . S
C1084 C1083 1.403 . S
C1084 C1085 1.415 . S
C1084 C1087 1.539 . S
C1085 C1081 1.413 . S
C1085 C1084 1.415 . S
C1085 H1097 0.914 1_655 S
C1086 C1082 1.524 . S
C1086 H1098 0.956 . S
C1086 H1099 0.961 . S
C1086 H1100 0.961 . S
C1087 C1084 1.539 . S
C1087 H1101 0.958 . S
C1087 H1102 0.961 1_655 S
C1087 H1103 0.960 . S
H1088 C1072 0.931 . S
H1089 C1077 0.916 1_565 S
H1090 C1078 0.960 . S
H1091 C1078 0.962 . S
H1092 C1078 0.960 . S
H1093 C1079 0.961 . S
H1094 C1079 0.961 . S
H1095 C1079 0.961 . S
H1096 C1080 0.931 . S
H1097 C1085 0.914 1_455 S
H1098 C1086 0.956 . S
H1099 C1086 0.961 . S
H1100 C1086 0.961 . S
H1101 C1087 0.958 . S
H1102 C1087 0.961 1_455 S
H1103 C1087 0.960 . S
C1104 C1105 1.391 . S
C1104 C1106 1.394 . S
C1104 H1120 0.931 . S
C1105 C1104 1.391 . S
C1105 C1109 1.376 . S
C1106 C1104 1.394 . S
C1106 C1107 1.369 . S
C1106 C1110 1.531 . S
C1107 C1106 1.369 . S
C1107 C1108 1.410 . S
C1107 C1115 1.503 . S
C1108 C1107 1.410 . S
C1108 C1109 1.392 . S
C1108 C1111 1.511 . S
C1109 C1105 1.376 . S
C1109 C1108 1.392 . S
C1109 H1121 0.929 . S
C1110 C1106 1.531 . S
C1110 H1122 0.960 . S
C1110 H1123 0.962 . S
C1110 H1124 0.960 . S
C1111 C1108 1.511 . S
C1111 H1125 0.961 . S
C1111 H1126 0.961 . S
C1111 H1127 0.961 . S
C1112 C1113 1.370 . S
C1112 C1114 1.363 . S
C1112 H1128 0.931 . S
C1113 C1112 1.370 . S
C1113 C1117 1.408 . S
C1114 C1112 1.363 . S
C1114 C1115 1.370 . S
C1114 C1118 1.524 . S
C1115 C1107 1.503 . S
C1115 C1114 1.370 . S
C1115 C1116 1.403 . S
C1116 C1115 1.403 . S
C1116 C1117 1.404 . S
C1116 C1119 1.539 . S
C1117 C1113 1.408 . S
C1117 C1116 1.404 . S
C1117 H1129 0.930 . S
C1118 C1114 1.524 . S
C1118 H1130 0.956 . S
C1118 H1131 0.961 . S
C1118 H1132 0.961 . S
C1119 C1116 1.539 . S
C1119 H1133 0.958 . S
C1119 H1134 0.961 . S
C1119 H1135 0.960 . S
H1120 C1104 0.931 . S
H1121 C1109 0.929 . S
H1122 C1110 0.960 . S
H1123 C1110 0.962 . S
H1124 C1110 0.960 . S
H1125 C1111 0.961 . S
H1126 C1111 0.961 . S
H1127 C1111 0.961 . S
H1128 C1112 0.931 . S
H1129 C1117 0.930 . S
H1130 C1118 0.956 . S
H1131 C1118 0.961 . S
H1132 C1118 0.961 . S
H1133 C1119 0.958 . S
H1134 C1119 0.961 . S
H1135 C1119 0.960 . S
C1136 C1137 1.391 . S
C1136 C1138 1.394 . S
C1136 H1152 0.931 . S
C1137 C1136 1.391 . S
C1137 C1141 1.376 . S
C1138 C1136 1.394 . S
C1138 C1139 1.369 . S
C1138 C1142 1.531 . S
C1139 C1138 1.369 . S
C1139 C1140 1.410 . S
C1139 C1147 1.503 . S
C1140 C1139 1.410 . S
C1140 C1141 1.392 . S
C1140 C1143 1.511 . S
C1141 C1137 1.376 . S
C1141 C1140 1.392 . S
C1141 H1153 0.929 1_655 S
C1142 C1138 1.531 . S
C1142 H1154 0.960 . S
C1142 H1155 0.962 . S
C1142 H1156 0.960 . S
C1143 C1140 1.511 . S
C1143 H1157 0.961 . S
C1143 H1158 0.961 . S
C1143 H1159 0.961 . S
C1144 C1145 1.370 . S
C1144 C1146 1.363 . S
C1144 H1160 0.931 . S
C1145 C1144 1.370 . S
C1145 C1149 1.408 . S
C1146 C1144 1.363 . S
C1146 C1147 1.370 . S
C1146 C1150 1.524 . S
C1147 C1139 1.503 . S
C1147 C1146 1.370 . S
C1147 C1148 1.403 . S
C1148 C1147 1.403 . S
C1148 C1149 1.404 . S
C1148 C1151 1.539 . S
C1149 C1145 1.408 . S
C1149 C1148 1.404 . S
C1149 H1161 0.930 . S
C1150 C1146 1.524 . S
C1150 H1162 0.956 . S
C1150 H1163 0.961 . S
C1150 H1164 0.961 . S
C1151 C1148 1.539 . S
C1151 H1165 0.958 . S
C1151 H1166 0.961 . S
C1151 H1167 0.960 . S
H1152 C1136 0.931 . S
H1153 C1141 0.929 1_455 S
H1154 C1142 0.960 . S
H1155 C1142 0.962 . S
H1156 C1142 0.960 . S
H1157 C1143 0.961 . S
H1158 C1143 0.961 . S
H1159 C1143 0.961 . S
H1160 C1144 0.931 . S
H1161 C1149 0.930 . S
H1162 C1150 0.956 . S
H1163 C1150 0.961 . S
H1164 C1150 0.961 . S
H1165 C1151 0.958 . S
H1166 C1151 0.961 . S
H1167 C1151 0.960 . S
C1168 C1169 1.391 . S
C1168 C1170 1.394 . S
C1168 H1184 0.931 1_455 S
C1169 C1168 1.391 . S
C1169 C1173 1.376 . S
C1170 C1168 1.394 . S
C1170 C1171 1.369 . S
C1170 C1174 1.531 . S
C1171 C1170 1.369 . S
C1171 C1172 1.410 . S
C1171 C1179 1.503 . S
C1172 C1171 1.410 . S
C1172 C1173 1.392 . S
C1172 C1175 1.511 . S
C1173 C1169 1.376 . S
C1173 C1172 1.392 . S
C1173 H1185 0.929 . S
C1174 C1170 1.531 . S
C1174 H1186 0.960 . S
C1174 H1187 0.962 . S
C1174 H1188 0.984 . S
C1175 C1172 1.511 . S
C1175 H1189 0.961 . S
C1175 H1190 0.961 . S
C1175 H1191 0.961 . S
C1176 C1177 1.370 . S
C1176 C1178 1.363 . S
C1176 H1192 0.931 . S
C1177 C1176 1.370 . S
C1177 C1181 1.408 . S
C1178 C1176 1.363 . S
C1178 C1179 1.370 . S
C1178 C1182 1.524 . S
C1179 C1171 1.503 . S
C1179 C1178 1.370 . S
C1179 C1180 1.403 . S
C1180 C1179 1.403 . S
C1180 C1181 1.404 . S
C1180 C1183 1.539 . S
C1181 C1177 1.408 . S
C1181 C1180 1.404 . S
C1181 H1193 0.930 1_565 S
C1182 C1178 1.524 . S
C1182 H1194 0.956 . S
C1182 H1195 0.961 . S
C1182 H1196 0.961 . S
C1183 C1180 1.539 . S
C1183 H1197 0.958 . S
C1183 H1198 0.961 . S
C1183 H1199 0.960 . S
H1184 C1168 0.931 1_655 S
H1185 C1173 0.929 . S
H1186 C1174 0.960 . S
H1187 C1174 0.962 . S
H1188 C1174 0.984 . S
H1189 C1175 0.961 . S
H1190 C1175 0.961 . S
H1191 C1175 0.961 . S
H1192 C1176 0.931 . S
H1193 C1181 0.930 1_545 S
H1194 C1182 0.956 . S
H1195 C1182 0.961 . S
H1196 C1182 0.961 . S
H1197 C1183 0.958 . S
H1198 C1183 0.961 . S
H1199 C1183 0.960 . S
C1200 C1201 1.391 . S
C1200 C1202 1.394 . S
C1200 H1216 0.931 . S
C1201 C1200 1.391 . S
C1201 C1205 1.376 . S
C1202 C1200 1.394 . S
C1202 C1203 1.369 . S
C1202 C1206 1.531 . S
C1203 C1202 1.369 . S
C1203 C1204 1.410 . S
C1203 C1211 1.503 . S
C1204 C1203 1.410 . S
C1204 C1205 1.392 . S
C1204 C1207 1.511 . S
C1205 C1201 1.376 . S
C1205 C1204 1.392 . S
C1205 H1217 0.929 1_545 S
C1206 C1202 1.531 . S
C1206 H1218 0.960 . S
C1206 H1219 0.962 . S
C1206 H1220 0.960 . S
C1207 C1204 1.511 . S
C1207 H1221 0.961 . S
C1207 H1222 0.961 . S
C1207 H1223 0.961 . S
C1208 C1209 1.370 . S
C1208 C1210 1.363 . S
C1208 H1224 0.931 . S
C1209 C1208 1.370 . S
C1209 C1213 1.408 . S
C1210 C1208 1.363 . S
C1210 C1211 1.370 . S
C1210 C1214 1.524 . S
C1211 C1203 1.503 . S
C1211 C1210 1.370 . S
C1211 C1212 1.403 . S
C1212 C1211 1.403 . S
C1212 C1213 1.404 . S
C1212 C1215 1.539 . S
C1213 C1209 1.408 . S
C1213 C1212 1.404 . S
C1213 H1225 0.930 . S
C1214 C1210 1.524 . S
C1214 H1226 0.956 . S
C1214 H1227 0.961 . S
C1214 H1228 0.961 . S
C1215 C1212 1.539 . S
C1215 H1229 0.958 . S
C1215 H1230 0.961 . S
C1215 H1231 0.960 . S
H1216 C1200 0.931 . S
H1217 C1205 0.929 1_565 S
H1218 C1206 0.960 . S
H1219 C1206 0.962 . S
H1220 C1206 0.960 . S
H1221 C1207 0.961 . S
H1222 C1207 0.961 . S
H1223 C1207 0.961 . S
H1224 C1208 0.931 . S
H1225 C1213 0.930 . S
H1226 C1214 0.956 . S
H1227 C1214 0.961 . S
H1228 C1214 0.961 . S
H1229 C1215 0.958 . S
H1230 C1215 0.961 . S
H1231 C1215 0.960 . S
C209 C92 1.559 . S
C217 C1 1.587 . S
C241 C53 1.561 . S
C249 C14 1.580 . S
C273 C66 1.559 . S
C281 C27 1.587 . S
C305 C40 1.575 . S
C313 C79 1.574 . S
C337 C205 1.583 . S
C345 C105 1.597 . S
C369 C157 1.593 . S
C377 C127 1.585 . S
C401 C131 1.585 . S
C409 C179 1.575 . S
C433 C153 1.555 . S
C441 C183 1.600 . S
C465 C36 1.500 . S
C473 C10 1.511 . S
C497 C23 1.489 . S
C505 C49 1.516 . S
C529 C62 1.485 . S
C537 C88 1.517 . S
C561 C101 1.528 . S
C569 C75 1.497 . S
C593 C114 1.543 . S
C601 C140 1.562 . S
C625 C118 1.536 . S
C633 C144 1.494 . S
C657 C192 1.556 . S
C665 C166 1.556 . S
C689 C170 1.497 . S
C697 C196 1.514 . S
C721 C81 1.575 . S
C729 C3 1.581 . S
C753 C16 1.584 . S
C761 C94 1.571 . S
C785 C29 1.563 . S
C793 C55 1.567 . S
C817 C42 1.588 . S
C825 C68 1.576 . S
C849 C107 1.576 . S
C857 C185 1.590 . S
C881 C122 1.582 . S
C889 C200 1.568 . S
C913 C133 1.575 . S
C921 C159 1.591 . S
C945 C148 1.563 . S
C953 C174 1.581 . S
C977 C5 1.605 1_565 S
C985 C198 1.622 . S
C1009 C161 1.667 . S
C1017 C18 1.641 . S
C1041 C31 1.637 . S
C1049 C172 1.634 1_455 S
C1073 C187 1.671 1_545 S
C1081 C44 1.622 1_655 S
C1105 C120 1.605 . S
C1113 C57 1.622 . S
C1137 C70 1.620 1_655 S
C1145 C135 1.673 . S
C1169 C146 1.618 1_455 S
C1177 C83 1.630 1_565 S
C1201 C109 1.671 1_545 S
C1209 C96 1.622 . S
