# Generated by pormake.
# Topology xfa, (7)-cn, num edge types: 1
# Building blocks:
#     Node 0, Type 0, BuildingBlock: HICVOG_clean_sbu_0, # of connection points: 7
#     Node 1, Type 0, BuildingBlock: HICVOG_clean_sbu_0, # of connection points: 7
#     Node 2, Type 0, BuildingBlock: HICVOG_clean_sbu_0, # of connection points: 7
#     Node 3, Type 0, BuildingBlock: HICVOG_clean_sbu_0, # of connection points: 7
#     Node 4, Type 0, BuildingBlock: HICVOG_clean_sbu_0, # of connection points: 7
#     Node 5, Type 0, BuildingBlock: HICVOG_clean_sbu_0, # of connection points: 7
#     Node 6, Type 0, BuildingBlock: HICVOG_clean_sbu_0, # of connection points: 7
#     Node 7, Type 0, BuildingBlock: HICVOG_clean_sbu_0, # of connection points: 7
#     Edge 8, Type (0, 0), BuildingBlock: EZIPEK_clean_linker_0, # of connection points: 2
#     Edge 9, Type (0, 0), BuildingBlock: EZIPEK_clean_linker_0, # of connection points: 2
#     Edge 10, Type (0, 0), BuildingBlock: EZIPEK_clean_linker_0, # of connection points: 2
#     Edge 11, Type (0, 0), BuildingBlock: EZIPEK_clean_linker_0, # of connection points: 2
#     Edge 12, Type (0, 0), BuildingBlock: EZIPEK_clean_linker_0, # of connection points: 2
#     Edge 13, Type (0, 0), BuildingBlock: EZIPEK_clean_linker_0, # of connection points: 2
#     Edge 14, Type (0, 0), BuildingBlock: EZIPEK_clean_linker_0, # of connection points: 2
#     Edge 15, Type (0, 0), BuildingBlock: EZIPEK_clean_linker_0, # of connection points: 2
#     Edge 16, Type (0, 0), BuildingBlock: EZIPEK_clean_linker_0, # of connection points: 2
#     Edge 17, Type (0, 0), BuildingBlock: EZIPEK_clean_linker_0, # of connection points: 2
#     Edge 18, Type (0, 0), BuildingBlock: EZIPEK_clean_linker_0, # of connection points: 2
#     Edge 19, Type (0, 0), BuildingBlock: EZIPEK_clean_linker_0, # of connection points: 2
#     Edge 20, Type (0, 0), BuildingBlock: EZIPEK_clean_linker_0, # of connection points: 2
#     Edge 21, Type (0, 0), BuildingBlock: EZIPEK_clean_linker_0, # of connection points: 2
#     Edge 22, Type (0, 0), BuildingBlock: EZIPEK_clean_linker_0, # of connection points: 2
#     Edge 23, Type (0, 0), BuildingBlock: EZIPEK_clean_linker_0, # of connection points: 2
#     Edge 24, Type (0, 0), BuildingBlock: EZIPEK_clean_linker_0, # of connection points: 2
#     Edge 25, Type (0, 0), BuildingBlock: EZIPEK_clean_linker_0, # of connection points: 2
#     Edge 26, Type (0, 0), BuildingBlock: EZIPEK_clean_linker_0, # of connection points: 2
#     Edge 27, Type (0, 0), BuildingBlock: EZIPEK_clean_linker_0, # of connection points: 2
#     Edge 28, Type (0, 0), BuildingBlock: EZIPEK_clean_linker_0, # of connection points: 2
#     Edge 29, Type (0, 0), BuildingBlock: EZIPEK_clean_linker_0, # of connection points: 2
#     Edge 30, Type (0, 0), BuildingBlock: EZIPEK_clean_linker_0, # of connection points: 2
#     Edge 31, Type (0, 0), BuildingBlock: EZIPEK_clean_linker_0, # of connection points: 2
#     Edge 32, Type (0, 0), BuildingBlock: EZIPEK_clean_linker_0, # of connection points: 2
#     Edge 33, Type (0, 0), BuildingBlock: EZIPEK_clean_linker_0, # of connection points: 2
#     Edge 34, Type (0, 0), BuildingBlock: EZIPEK_clean_linker_0, # of connection points: 2
#     Edge 35, Type (0, 0), BuildingBlock: EZIPEK_clean_linker_0, # of connection points: 2
# Relax obj value: 0.178
# Max RMSD: 0.225
# Mean RMSD: 0.217
data_MOF--net-xfa--node1-HICVOG_clean_sbu_0--edge1-EZIPEK_clean_linker_0
_symmetry_space_group_name_H-M    P1
_symmetry_Int_Tables_number       1
_symmetry_cell_setting            triclinic
loop_
_symmetry_equiv_pos_as_xyz
'x, y, z'
_cell_length_a     35.131198
_cell_length_b     34.770025
_cell_length_c     13.811343
_cell_angle_alpha  90.469025
_cell_angle_beta   90.039751
_cell_angle_gamma 90.297177
loop_
_atom_site_label
_atom_site_type_symbol
_atom_site_fract_x
_atom_site_fract_y
_atom_site_fract_z
_atom_type_partial_charge
Zn0 Zn 0.11186 0.2982 0.3604 0.0
C1 C 0.16228 0.22204 0.17735 0.0
N2 N 0.18863 0.221 0.24725 0.0
C3 C 0.17242 0.23993 0.32101 0.0
N4 N 0.13782 0.25393 0.29635 0.0
N5 N 0.13073 0.24118 0.20707 0.0
C6 C 0.08367 0.25824 0.97369 0.0
O7 O 0.08631 0.28963 0.02684 0.0
O8 O 0.11072 0.2952 0.50836 0.0
Zn9 Zn 0.07926 0.22903 0.16232 0.0
N10 N 0.14087 0.34404 0.32375 0.0
C11 C 0.16759 0.37764 0.19025 0.0
C12 C 0.14809 0.34607 0.22727 0.0
C13 C 0.15239 0.37283 0.38542 0.0
N14 N 0.179 0.40627 0.25107 0.0
C15 C 0.17205 0.40498 0.34784 0.0
O16 O 0.04062 0.2697 0.19333 0.0
C17 C 0.03373 0.29779 0.24991 0.0
O18 O 0.05747 0.30906 0.31417 0.0
H19 H 0.1384 0.32332 0.17926 0.0
H20 H 0.14615 0.37097 0.46196 0.0
C21 C 0.02693 0.16446 0.21192 0.0
C22 C 1.01668 0.13158 0.26577 0.0
C23 C 0.07561 0.13477 0.3484 0.0
C24 C 0.08581 0.16685 0.2948 0.0
N25 N 0.06159 0.18146 0.22758 0.0
N26 N 0.04144 0.1178 0.33246 0.0
H27 H 1.00779 0.17608 0.15827 0.0
C28 C 0.08605 0.27563 0.55454 0.0
O29 O 0.06004 0.2566 0.50489 0.0
O30 O 0.08015 0.22579 0.01518 0.0
H31 H 0.11374 0.17902 0.30406 0.0
H32 H 0.17347 0.37949 0.11355 0.0
H33 H 0.09501 0.12304 0.40125 0.0
Zn34 Zn 0.31247 0.58674 0.40707 0.0
C35 C 0.29805 0.68798 0.54469 0.0
N36 N 0.31299 0.70201 0.46283 0.0
C37 C 0.31488 0.67097 0.40536 0.0
N38 N 0.30104 0.63916 0.44851 0.0
N39 N 0.28907 0.64996 0.53554 0.0
C40 C 0.28644 0.61718 0.7975 0.0
O41 O 0.31729 0.62835 0.75272 0.0
O42 O 0.32069 0.58949 0.26133 0.0
Zn43 Zn 0.24722 0.62229 0.60543 0.0
N44 N 0.35667 0.56871 0.48154 0.0
C45 C 0.38934 0.57578 0.63232 0.0
C46 C 0.36022 0.58601 0.56966 0.0
C47 C 0.38062 0.5396 0.45545 0.0
N48 N 0.41313 0.54702 0.60672 0.0
C49 C 0.40941 0.52821 0.52065 0.0
O50 O 0.23305 0.5685 0.5512 0.0
C51 C 0.24232 0.54373 0.48685 0.0
O52 O 0.2706 0.5488 0.43122 0.0
H53 H 0.3402 0.60733 0.5919 0.0
H54 H 0.37686 0.52501 0.38655 0.0
C55 C 0.17384 0.66212 0.65067 0.0
C56 C 0.14061 0.68127 0.61958 0.0
C57 C 0.16335 0.67912 0.45795 0.0
C58 C 0.19573 0.65979 0.48836 0.0
N59 N 0.20074 0.65192 0.58367 0.0
N60 N 0.1366 0.68925 0.52391 0.0
H61 H 0.17781 0.65494 0.72609 0.0
C62 C 0.29627 0.57514 0.20298 0.0
O63 O 0.26856 0.55363 0.2367 0.0
O64 O 0.25546 0.61405 0.75031 0.0
H65 H 0.21663 0.65035 0.43609 0.0
H66 H 0.39257 0.59004 0.70175 0.0
H67 H 0.15922 0.68558 0.38219 0.0
Zn68 Zn 0.92668 0.75579 0.87516 0.0
C69 C 0.87803 0.82945 0.68661 0.0
N70 N 0.85112 0.83179 0.75477 0.0
C71 C 0.86646 0.8134 0.82966 0.0
N72 N 0.90139 0.79921 0.80777 0.0
N73 N 0.90925 0.81032 0.71813 0.0
C74 C 0.96755 0.78993 0.47653 0.0
O75 O 0.96971 0.7571 0.5224 0.0
O76 O 0.93064 0.76543 0.02007 0.0
Zn77 Zn 0.96181 0.81585 0.67206 0.0
N78 N 0.89518 0.71049 0.84736 0.0
C79 C 0.86036 0.67837 0.72235 0.0
C80 C 0.88204 0.70949 0.75474 0.0
C81 C 0.88799 0.68079 0.90912 0.0
N82 N 0.85316 0.64888 0.78329 0.0
C83 C 0.86635 0.64897 0.87586 0.0
O84 O 0.99696 0.7723 0.69984 0.0
C85 C 1.00315 0.74611 0.76094 0.0
O86 O 0.98006 0.73929 0.82981 0.0
H87 H 0.88879 0.73261 0.70581 0.0
H88 H 0.89929 0.68161 0.98202 0.0
C89 C 1.01051 0.88461 0.71625 0.0
C90 C 0.02739 0.9102 0.78387 0.0
C91 C 0.99332 0.88039 0.91061 0.0
C92 C 0.97767 0.85443 0.84456 0.0
N93 N 0.98547 0.85743 0.74842 0.0
N94 N 1.01797 0.90751 0.87895 0.0
H95 H 1.01799 0.88562 0.64031 0.0
C96 C 0.96174 0.77729 0.05792 0.0
O97 O 0.99086 0.78525 0.00186 0.0
O98 O 0.96328 0.82111 0.52483 0.0
H99 H 0.95968 0.83161 0.87049 0.0
H100 H 0.84969 0.67742 0.64888 0.0
H101 H 0.98667 0.87839 0.98689 0.0
Zn102 Zn 0.79456 0.42973 0.11555 0.0
C103 C 0.71967 0.38343 0.92832 0.0
N104 N 0.71785 0.35566 -0.00561 0.0
C105 C 0.73649 0.37105 0.0697 0.0
N106 N 0.75003 0.40664 0.05019 0.0
N107 N 0.73855 0.41494 0.96147 0.0
C108 C 0.75636 0.4596 0.72139 0.0
O109 O 0.78923 0.45903 0.7667 0.0
O110 O 0.78936 0.43033 0.26204 0.0
Zn111 Zn 0.73456 0.46707 0.91357 0.0
N112 N 0.83777 0.39756 0.08034 0.0
C113 C 0.86951 0.36634 0.94954 0.0
C114 C 0.83947 0.38834 0.98464 0.0
C115 C 0.86548 0.3859 0.14292 0.0
N116 N 0.89719 0.35489 0.01126 0.0
C117 C 0.89626 0.3641 0.10711 0.0
O118 O 0.78041 0.50067 0.93685 0.0
C119 C 0.80534 0.50684 0.00189 0.0
O120 O 0.81035 0.48408 0.07273 0.0
H121 H 0.81771 0.3984 0.93574 0.0
H122 H 0.86396 0.39392 0.21868 0.0
C123 C 0.66432 0.51379 0.95794 0.0
C124 C 0.642 0.53347 0.02748 0.0
C125 C 0.68285 0.51203 0.15185 0.0
C126 C 0.70532 0.49349 0.08326 0.0
N127 N 0.69539 0.49373 0.98836 0.0
N128 N 0.65189 0.53171 0.1224 0.0
H129 H 0.65773 0.51536 0.88153 0.0
C130 C 0.75872 0.43862 0.30621 0.0
O131 O 0.7278 0.44577 0.25697 0.0
O132 O 0.72593 0.46432 0.76988 0.0
H133 H 0.73134 0.47964 0.10443 0.0
H134 H 0.87106 0.35874 0.87353 0.0
H135 H 0.69043 0.51178 0.22768 0.0
Zn136 Zn 0.61819 0.25325 0.37485 0.0
C137 C 0.6662 0.32714 0.56376 0.0
N138 N 0.69367 0.32876 0.49712 0.0
C139 C 0.67812 0.31048 0.4213 0.0
N140 N 0.64273 0.29724 0.44122 0.0
N141 N 0.6347 0.30872 0.53046 0.0
C142 C 0.59092 0.29095 0.77012 0.0
O143 O 0.59165 0.25776 0.7241 0.0
O144 O 0.61972 0.25779 0.22845 0.0
Zn145 Zn 0.58311 0.31251 0.57915 0.0
N146 N 0.64635 0.20769 0.41295 0.0
C147 C 0.67745 0.17587 0.54267 0.0
C148 C 0.65853 0.20774 0.50639 0.0
C149 C 0.65176 0.17639 0.35425 0.0
N150 N 0.68301 0.14481 0.4845 0.0
C151 C 0.67078 0.14401 0.39104 0.0
O152 O 0.54989 0.26614 0.55722 0.0
C153 C 0.54192 0.2437 0.48696 0.0
O154 O 0.56321 0.24038 0.41268 0.0
H155 H 0.65301 0.23217 0.55296 0.0
H156 H 0.64111 0.1765 0.28071 0.0
C157 C 0.53458 0.38154 0.53611 0.0
C158 C 0.51491 0.40364 0.46693 0.0
C159 C 0.53996 0.3649 0.34109 0.0
C160 C 0.55855 0.34256 0.40923 0.0
N161 N 0.55645 0.35157 0.50479 0.0
N162 N 0.5185 0.39478 0.37148 0.0
H163 H 0.53172 0.38742 0.61282 0.0
C164 C 0.61261 0.28884 0.1842 0.0
O165 O 0.60592 0.32037 0.23333 0.0
O166 O 0.58589 0.32167 0.72246 0.0
H167 H 0.57373 0.31721 0.38712 0.0
H168 H 0.68726 0.17563 0.61692 0.0
H169 H 0.54164 0.35805 0.26478 0.0
Zn170 Zn 0.237 0.08957 0.82704 0.0
C171 C 0.24193 0.18512 0.66709 0.0
N172 N 0.22587 0.20221 0.74388 0.0
C173 C 0.2271 0.17518 0.81207 0.0
N174 N 0.24321 0.14221 0.77914 0.0
N175 N 0.25393 0.14915 0.6888 0.0
C176 C 0.27686 0.086 0.43959 0.0
O177 O 0.27179 0.05578 0.49457 0.0
O178 O 0.23026 0.08818 0.97396 0.0
Zn179 Zn 0.29645 0.12288 0.62219 0.0
N180 N 0.19743 0.06429 0.74896 0.0
C181 C 0.18006 0.05137 0.58477 0.0
C182 C 0.20399 0.06865 0.65262 0.0
C183 C 0.16864 0.04103 0.78035 0.0
N184 N 0.15133 0.0285 0.61553 0.0
C185 C 0.14508 1.02246 0.71127 0.0
O186 O 0.31264 0.06961 0.66958 0.0
C187 C 0.30623 0.04743 0.74063 0.0
O188 O 0.28053 0.05444 0.80234 0.0
H189 H 0.22791 0.08547 0.6284 0.0
H190 H 0.16481 0.03618 0.85703 0.0
C191 C 0.36981 0.1621 0.58476 0.0
C192 C 0.40142 0.18405 0.61618 0.0
C193 C 0.37334 0.19059 0.7714 0.0
C194 C 0.34239 0.16854 0.74084 0.0
N195 N 0.34094 0.1549 0.64833 0.0
N196 N 0.40209 0.19774 0.70866 0.0
H197 H 0.36849 0.15057 0.51181 0.0
C198 C 0.26103 0.08485 0.0225 0.0
O199 O 0.29382 0.08458 0.97702 0.0
O200 O 0.2867 0.11802 0.47804 0.0
H201 H 0.31978 0.16191 0.79109 0.0
H202 H 0.18481 0.05539 0.50812 0.0
H203 H 0.37471 0.20164 0.84477 0.0
Zn204 Zn 0.4219 0.79912 0.868 0.0
C205 C 0.36107 0.72683 0.03711 0.0
N206 N 0.33576 0.73607 0.96938 0.0
C207 C 0.35568 0.7525 0.89975 0.0
N208 N 0.39235 0.75697 0.92678 0.0
N209 N 0.39669 0.73996 0.01228 0.0
C210 C 0.43782 0.75577 0.25432 0.0
O211 O 0.43119 0.78697 0.2042 0.0
O212 O 0.42086 0.79643 0.72022 0.0
Zn213 Zn 0.44866 0.73081 0.06553 0.0
N214 N 0.39587 0.846 0.90673 0.0
C215 C 0.37095 0.88186 0.03963 0.0
C216 C 0.38843 0.84897 0.00302 0.0
C217 C 0.38644 0.87487 0.84485 0.0
N218 N 0.3616 0.91063 0.97846 0.0
C219 C 0.36878 0.90818 0.88187 0.0
O220 O 0.48681 0.77389 0.04706 0.0
C221 C 0.49693 0.79946 0.98692 0.0
O222 O 0.47655 0.80814 0.91407 0.0
H223 H 0.39633 0.82593 0.05102 0.0
H224 H 0.39272 0.87209 0.76842 0.0
C225 C 0.49967 0.66252 0.02864 0.0
C226 C 0.51666 0.63662 0.96213 0.0
C227 C 0.48023 0.66314 0.83535 0.0
C228 C 0.46481 0.68958 0.90013 0.0
N229 N 0.47345 0.68819 -0.00446 0.0
N230 N 0.50599 0.63749 0.86763 0.0
H231 H 0.50816 0.66313 0.10397 0.0
C232 C 0.43304 0.7678 0.67172 0.0
O233 O 0.44805 0.73871 0.71723 0.0
O234 O 0.44611 0.72473 0.21006 0.0
H235 H 0.44648 0.71186 0.87516 0.0
H236 H 0.36495 0.88457 0.11619 0.0
H237 H 0.47271 0.66376 0.75941 0.0
Zn238 Zn 0.74143 0.92485 0.13855 0.0
C239 C 0.8178 0.88206 0.32728 0.0
N240 N 0.82172 0.85494 0.25885 0.0
C241 C 0.80204 0.86902 0.18431 0.0
N242 N 0.78517 0.90277 0.2076 0.0
N243 N 0.7962 0.91171 0.29675 0.0
C244 C 0.78091 0.94916 0.53432 0.0
O245 O 0.75621 0.92816 0.48537 0.0
O246 O 0.75338 0.92534 -0.00474 0.0
Zn247 Zn 0.79701 0.96441 0.34338 0.0
N248 N 0.69779 0.89101 0.16371 0.0
C249 C 0.66651 0.85522 0.28694 0.0
C250 C 0.69668 0.87815 0.25632 0.0
C251 C 0.66909 0.88223 0.10006 0.0
N252 N 0.63798 0.84653 0.22426 0.0
C253 C 0.63808 0.85945 0.13161 0.0
O254 O 0.74823 0.99279 0.3278 0.0
C255 C 0.72523 0.99965 0.2593 0.0
O256 O 0.72325 0.97858 0.18335 0.0
H257 H 0.7189 0.88627 0.30662 0.0
H258 H 0.66995 0.8933 0.02708 0.0
C259 C 0.86232 1.01574 0.28919 0.0
C260 C 0.88188 0.03751 0.21881 0.0
C261 C 0.83926 1.01477 0.09831 0.0
C262 C 0.82012 0.99318 0.1673 0.0
N263 N 0.83173 0.9939 0.26131 0.0
N264 N 0.86971 0.03625 0.12546 0.0
H265 H 0.87113 1.01637 0.36428 0.0
C266 C 0.74727 0.95486 0.94395 0.0
O267 O 0.73215 0.98562 0.98356 0.0
O268 O 0.8062 0.96774 0.48775 0.0
H269 H 0.79577 0.97609 0.14602 0.0
H270 H 0.6655 0.84479 0.36048 0.0
H271 H 0.8299 1.0147 0.02374 0.0
C272 C 0.22227 0.43711 0.45119 0.0
C273 C 0.18546 0.43799 0.40889 0.0
C274 C 0.18272 0.50805 0.43474 0.0
C275 C 0.22002 0.50734 0.47455 0.0
N276 N 0.27136 0.47093 0.54304 0.0
N277 N 0.12698 0.47176 0.38154 0.0
C278 C 0.23845 0.47165 0.49015 0.0
C279 C 0.16444 0.47272 0.4082 0.0
N280 N 0.24246 0.4036 0.44981 0.0
N281 N 0.16575 0.54255 0.41653 0.0
H282 H 0.11311 0.4463 0.36145 0.0
H283 H 0.10884 0.49524 0.38753 0.0
H284 H 0.17791 0.56892 0.43597 0.0
H285 H 0.14069 0.54533 0.37703 0.0
H286 H 0.27112 0.40183 0.46825 0.0
H287 H 0.23088 0.37757 0.42549 0.0
H288 H 0.28468 0.44575 0.56461 0.0
H289 H 0.28361 0.49574 0.57296 0.0
C290 C 0.07442 0.74532 0.76612 0.0
C291 C 0.03975 0.7248 0.75233 0.0
C292 C 0.07558 0.66966 0.68811 0.0
C293 C 0.109 0.69276 0.68568 0.0
N294 N 0.14135 0.75203 0.72448 0.0
N295 N 1.0066 0.66715 0.70279 0.0
C296 C 0.10889 0.73022 0.72713 0.0
C297 C 0.0402 0.6865 0.71602 0.0
N298 N 0.07415 0.77925 0.81683 0.0
N299 N 0.07788 0.6317 0.66256 0.0
H300 H 0.98043 0.67826 0.72469 0.0
H301 H 1.00424 0.64096 0.66623 0.0
H302 H 0.10348 0.61896 0.64176 0.0
H303 H 0.05555 0.61216 0.66983 0.0
H304 H 0.09864 0.79425 0.83702 0.0
H305 H 0.04929 0.79078 0.8463 0.0
H306 H 0.14236 0.78117 0.74218 0.0
H307 H 0.16731 0.74111 0.70041 0.0
C308 C 0.86219 0.5442 0.94358 0.0
C309 C 0.82748 0.54329 -0.00421 0.0
C310 C 0.82433 0.61386 0.99338 0.0
C311 C 0.85784 0.61466 0.9361 0.0
N312 N 0.91383 0.58277 0.87711 0.0
N313 N 0.78076 0.57628 0.09222 0.0
C314 C 0.87858 0.5804 0.91855 0.0
C315 C 0.81042 0.57795 0.02834 0.0
N316 N 0.87836 0.51041 0.91404 0.0
N317 N 0.80478 0.64718 0.00962 0.0
H318 H 0.77028 0.5503 0.1189 0.0
H319 H 0.76871 0.60032 0.12516 0.0
H320 H 0.81507 0.67399 0.98823 0.0
H321 H 0.7778 0.64827 0.04054 0.0
H322 H 0.90119 0.50869 0.86629 0.0
H323 H 0.86779 0.4836 0.93478 0.0
H324 H 0.932 0.55946 0.86856 0.0
H325 H 0.92625 0.60902 0.85848 0.0
C326 C 0.99713 0.35677 0.20027 0.0
C327 C 0.99713 0.31857 0.23626 0.0
C328 C 0.9282 0.31346 0.20703 0.0
C329 C 0.92843 0.35124 0.16901 0.0
N330 N 0.96014 0.41221 0.15106 0.0
N331 N 0.96198 0.26414 0.2961 0.0
C332 C 0.96197 0.37405 0.1735 0.0
C333 C 0.96231 0.2981 0.2469 0.0
N334 N 0.03088 0.37556 0.18509 0.0
N335 N 0.8957 0.29178 0.2013 0.0
H336 H 0.98648 0.25252 0.32683 0.0
H337 H 0.93725 0.24921 0.31394 0.0
H338 H 0.86989 0.30285 0.17689 0.0
H339 H 0.89456 0.26252 0.21649 0.0
H340 H 0.03314 0.40143 0.1481 0.0
H341 H 0.05723 0.36413 0.20363 0.0
H342 H 0.98258 0.43145 0.16168 0.0
H343 H 0.93489 0.42541 0.12994 0.0
C344 C 0.65721 0.07432 0.35997 0.0
C345 C 0.67711 0.10824 0.33329 0.0
C346 C 0.71832 0.06991 0.22658 0.0
C347 C 0.70303 0.0358 0.26722 0.0
N348 N 0.6575 1.00455 0.37032 0.0
N349 N 0.72703 0.13903 0.24223 0.0
C350 C 0.67188 0.03773 0.33218 0.0
C351 C 0.70728 0.10636 0.26511 0.0
N352 N 0.62426 0.07735 0.412 0.0
N353 N 0.74393 0.0673 0.15245 0.0
H354 H 0.71939 0.16624 0.26754 0.0
H355 H 0.75225 0.13908 0.20271 0.0
H356 H 0.75272 0.04101 0.12367 0.0
H357 H 0.75381 0.09088 0.11372 0.0
H358 H 0.60654 0.05412 0.42743 0.0
H359 H 0.61288 0.10387 0.43246 0.0
H360 H 0.63807 1.00385 0.42714 0.0
H361 H 0.66639 0.97737 0.34727 0.0
C362 C 0.43579 0.22903 0.50542 0.0
C363 C 0.43445 0.19309 0.55313 0.0
C364 C 0.50345 0.18557 0.53245 0.0
C365 C 0.50509 0.22275 0.49128 0.0
N366 N 0.4732 0.27525 0.41399 0.0
N367 N 0.46402 0.1329 0.59128 0.0
C368 C 0.47121 0.24287 0.46925 0.0
C369 C 0.4674 0.16981 0.55899 0.0
N370 N 0.4035 0.25066 0.49931 0.0
N371 N 0.53653 0.16634 0.55033 0.0
H372 H 0.43788 0.121 0.61132 0.0
H373 H 0.48616 0.11316 0.59115 0.0
H374 H 0.56305 0.17662 0.52798 0.0
H375 H 0.5381 0.14103 0.58973 0.0
H376 H 0.40309 0.27907 0.47629 0.0
H377 H 0.37689 0.24041 0.52102 0.0
H378 H 0.44954 0.29006 0.38904 0.0
H379 H 0.49884 0.28544 0.38574 0.0
C380 C 0.30643 0.97565 0.73643 0.0
C381 C 0.32696 1.01053 0.75034 0.0
C382 C 0.38049 0.97448 0.81825 0.0
C383 C 0.35734 0.94091 0.81973 0.0
N384 N 0.29859 0.9085 0.77973 0.0
N385 N 0.38363 0.04404 0.80195 0.0
C386 C 0.32061 0.94102 0.77697 0.0
C387 C 0.3644 1.01011 0.78874 0.0
N388 N 0.27336 0.97591 0.68418 0.0
N389 N 0.41778 0.97207 0.84568 0.0
H390 H 0.37308 0.07035 0.77837 0.0
H391 H 0.40913 0.04654 0.8399 0.0
H392 H 0.43004 0.94631 0.86779 0.0
H393 H 0.43731 0.99448 0.83897 0.0
H394 H 0.25846 0.95117 0.66389 0.0
H395 H 0.26252 1.00091 0.65353 0.0
H396 H 0.2699 0.90773 0.76091 0.0
H397 H 0.30865 0.88232 0.80545 0.0
C398 C 0.60351 0.81225 0.02388 0.0
C399 C 0.60489 0.84905 0.06904 0.0
C400 C 0.53592 0.85643 0.04421 0.0
C401 C 0.53435 0.81896 0.00262 0.0
N402 N 0.56705 0.76542 0.93002 0.0
N403 N 0.57506 0.90977 0.10271 0.0
C404 C 0.56839 0.79826 0.98502 0.0
C405 C 0.57188 0.8724 0.07215 0.0
N406 N 0.63549 0.79003 0.02217 0.0
N407 N 0.50283 0.87584 0.06157 0.0
H408 H 0.60096 0.92192 0.12428 0.0
H409 H 0.55304 0.9296 0.09921 0.0
H410 H 0.47625 0.86543 0.03979 0.0
H411 H 0.50129 0.90125 0.10165 0.0
H412 H 0.63556 0.76114 0.00176 0.0
H413 H 0.66198 0.80022 0.04545 0.0
H414 H 0.59116 0.75095 0.90593 0.0
H415 H 0.54173 0.75446 0.90109 0.0
C416 C 0.17663 0.1659 0.93977 0.0
C417 C 0.21094 0.18338 0.90877 0.0
C418 C 0.20456 0.23223 0.03662 0.0
C419 C 0.17321 0.21179 0.07607 0.0
N420 N 0.13445 0.15439 0.07387 0.0
N421 N 0.26136 0.22936 0.938 0.0
C422 C 0.16046 0.17736 0.02981 0.0
C423 C 0.22591 0.21556 0.96015 0.0
N424 N 0.15878 0.13923 0.88241 0.0
N425 N 0.21354 0.26809 0.07143 0.0
H426 H 0.27842 0.21707 0.88433 0.0
H427 H 0.2754 0.25023 0.97933 0.0
H428 H 0.1978 0.28171 0.12568 0.0
H429 H 0.23373 0.28594 0.03936 0.0
H430 H 0.13161 0.12858 0.8969 0.0
H431 H 0.16985 0.13017 0.81627 0.0
H432 H 0.12724 0.1269 0.04914 0.0
H433 H 0.12273 0.16189 0.13973 0.0
C434 C 0.30871 0.70137 0.1463 0.0
C435 C 0.34816 0.7023 0.1207 0.0
C436 C 0.36241 0.66683 0.26876 0.0
C437 C 0.32506 0.67477 0.3027 0.0
N438 N 0.26282 0.70184 0.27539 0.0
N439 N 0.40425 0.66395 0.12906 0.0
C440 C 0.2983 0.69262 0.24187 0.0
C441 C 0.37313 0.67885 0.17404 0.0
N442 N 0.28069 0.7039 0.07798 0.0
N443 N 0.3878 0.64896 0.32776 0.0
H444 H 0.40856 0.66801 0.05526 0.0
H445 H 0.4223 0.64394 0.16052 0.0
H446 H 0.3799 0.63764 0.39442 0.0
H447 H 0.41667 0.64663 0.3118 0.0
H448 H 0.25177 0.70274 0.09429 0.0
H449 H 0.2854 0.69818 0.00502 0.0
H450 H 0.24445 0.72002 0.23833 0.0
H451 H 0.25265 0.69367 0.34302 0.0
C452 C 0.83473 0.8246 0.54784 0.0
C453 C 0.86841 0.84117 0.58684 0.0
C454 C 0.86813 0.88889 0.45655 0.0
C455 C 0.83196 0.87495 0.42616 0.0
N456 N 0.77738 0.83452 0.45519 0.0
N457 N 0.91463 0.8925 0.58683 0.0
C458 C 0.81417 0.84449 0.47626 0.0
C459 C 0.8847 0.8742 0.54325 0.0
N460 N 0.82298 0.78907 0.57776 0.0
N461 N 0.88678 0.91554 0.40199 0.0
H462 H 0.92678 0.88245 0.65051 0.0
H463 H 0.92541 0.91885 0.56386 0.0
H464 H 0.87454 0.92779 0.34075 0.0
H465 H 0.91488 0.92387 0.41468 0.0
H466 H 0.80062 0.77393 0.54539 0.0
H467 H 0.83828 0.77297 0.6278 0.0
H468 H 0.76171 0.81493 0.49584 0.0
H469 H 0.76134 0.8488 0.40322 0.0
C470 C 0.70646 0.32314 0.70793 0.0
C471 C 0.67449 0.34021 0.66325 0.0
C472 C 0.67322 0.38977 0.79039 0.0
C473 C 0.70755 0.37485 0.82843 0.0
N474 N 0.76084 0.3318 0.81295 0.0
N475 N 0.63154 0.39375 0.6507 0.0
C476 C 0.72537 0.34292 0.78358 0.0
C477 C 0.65889 0.37472 0.70122 0.0
N478 N 0.71839 0.28747 0.67868 0.0
N479 N 0.6537 0.41719 0.84087 0.0
H480 H 0.62036 0.38315 0.5858 0.0
H481 H 0.62191 0.42105 0.66995 0.0
H482 H 0.66383 0.42892 0.9057 0.0
H483 H 0.62654 0.42631 0.82164 0.0
H484 H 0.73911 0.27184 0.71494 0.0
H485 H 0.70454 0.27156 0.62474 0.0
H486 H 0.77695 0.31117 0.77668 0.0
H487 H 0.77604 0.34631 0.86705 0.0
C488 C 0.05114 0.27096 0.71364 0.0
C489 C 0.08643 0.27327 0.66309 0.0
C490 C 0.11974 0.27028 0.8198 0.0
C491 C 0.08491 0.26149 0.86663 0.0
N492 N 1.01752 0.24889 0.85606 0.0
N493 N 0.15553 0.2694 0.6711 0.0
C494 C 0.05069 0.26001 0.81264 0.0
C495 C 0.12114 0.27149 0.71687 0.0
N496 N 1.01817 0.2821 0.66957 0.0
N497 N 0.15147 0.27834 0.87362 0.0
H498 H 0.15904 0.26995 0.59667 0.0
H499 H 0.18089 0.26379 0.70721 0.0
H500 H 0.15152 0.27784 0.94896 0.0
H501 H 0.17663 0.2891 0.84423 0.0
H502 H 0.99225 0.28414 0.70581 0.0
H503 H 1.01752 0.29428 0.60087 0.0
H504 H 0.99255 0.24341 0.81744 0.0
H505 H 1.01574 0.2421 0.92936 0.0
C506 C 0.2628 0.60892 0.0674 0.0
C507 C 0.29484 0.58782 0.10056 0.0
C508 C 0.31856 0.58264 0.93436 0.0
C509 C 0.2884 0.60644 0.90172 0.0
N510 N 0.23426 0.64646 0.93897 0.0
N511 N 0.35667 0.5607 0.06907 0.0
C512 C 0.26088 0.62042 0.96856 0.0
C513 C 0.32397 0.57695 0.03523 0.0
N514 N 0.2347 0.61893 0.13123 0.0
N515 N 0.34023 0.56285 0.86875 0.0
H516 H 0.36101 0.55415 0.14175 0.0
H517 H 0.3807 0.55654 0.02612 0.0
H518 H 0.33498 0.5632 0.7945 0.0
H519 H 0.36029 0.54236 0.88822 0.0
H520 H 0.20825 0.62937 0.11044 0.0
H521 H 0.2372 0.61568 0.20594 0.0
H522 H 0.21473 0.65967 0.98475 0.0
H523 H 0.23373 0.65815 0.86981 0.0
C524 C 0.99936 0.77417 0.31811 0.0
C525 C 0.96772 0.78942 0.36909 0.0
C526 C 0.93626 0.80265 0.21543 0.0
C527 C 0.96501 0.78253 0.16466 0.0
N528 N 0.02117 0.74263 0.17141 0.0
N529 N 0.90152 0.80673 0.36491 0.0
C530 C 0.99607 0.76665 0.21681 0.0
C531 C 0.93495 0.80073 0.31751 0.0
N532 N 0.03262 0.76722 0.36609 0.0
N533 N 0.91095 0.82493 0.16691 0.0
H534 H 0.89876 0.80231 0.43894 0.0
H535 H 0.87589 0.81072 0.32854 0.0
H536 H 0.91229 0.82876 0.0923 0.0
H537 H 0.89225 0.84324 0.20289 0.0
H538 H 0.05775 0.75962 0.33096 0.0
H539 H 0.03597 0.77254 0.44009 0.0
H540 H 0.042 0.72734 0.20824 0.0
H541 H 1.01883 0.73482 0.09864 0.0
C542 C 0.74882 0.48012 0.45248 0.0
C543 C 0.75841 0.44371 0.41247 0.0
C544 C 0.76821 0.41815 0.57512 0.0
C545 C 0.75532 0.45357 0.61528 0.0
N546 N 0.72891 0.51688 0.59311 0.0
N547 N 0.77175 0.3764 0.43404 0.0
C548 C 0.7439 0.48401 0.55417 0.0
C549 C 0.76666 0.41223 0.47332 0.0
N550 N 0.74681 0.51157 0.39382 0.0
N551 N 0.78253 0.39033 0.63406 0.0
H552 H 0.77147 0.37109 0.35971 0.0
H553 H 0.77332 0.35142 0.47487 0.0
H554 H 0.78295 0.39277 0.7092 0.0
H555 H 0.79638 0.36587 0.60855 0.0
H556 H 0.74385 0.53961 0.41966 0.0
H557 H 0.75199 0.51029 0.31952 0.0
H558 H 0.71578 0.53795 0.55183 0.0
H559 H 0.72722 0.52215 0.66737 0.0
C560 C 0.63828 0.28019 0.01627 0.0
C561 C 0.60734 0.28882 0.07821 0.0
C562 C 0.56721 0.30369 0.93824 0.0
C563 C 0.59715 0.29202 0.87595 0.0
N564 N 0.65961 0.26433 0.85442 0.0
N565 N 0.54029 0.30092 0.09943 0.0
C566 C 0.63224 0.27881 0.91462 0.0
C567 C 0.57126 0.29871 0.03965 0.0
N568 N 0.67373 0.27457 0.0544 0.0
N569 N 0.53464 0.31899 0.90072 0.0
H570 H 0.5417 0.29562 0.17357 0.0
H571 H 0.5125 0.30409 0.07465 0.0
H572 H 0.52919 0.32064 0.82669 0.0
H573 H 0.51398 0.33241 0.94295 0.0
H574 H 0.6984 0.27294 0.01288 0.0
H575 H 0.679 0.27434 0.1286 0.0
H576 H 0.68379 0.25016 0.87876 0.0
H577 H 0.65715 0.26418 0.77932 0.0
C578 C 0.28668 0.0533 0.27694 0.0
C579 C 0.27 0.08314 0.33361 0.0
C580 C 0.24826 0.11417 0.18596 0.0
C581 C 0.26107 0.08268 0.12979 0.0
N582 N 0.28626 1.01834 0.12405 0.0
N583 N 0.22458 0.1349 0.34123 0.0
C584 C 0.27823 0.05088 0.17612 0.0
C585 C 0.24761 0.11141 0.28796 0.0
N586 N 0.3123 0.02875 0.31743 0.0
N587 N 0.23984 0.14812 0.14303 0.0
H588 H 0.22171 0.13252 0.41607 0.0
H589 H 0.2049 0.15307 0.30902 0.0
H590 H 0.24197 0.15195 0.06872 0.0
H591 H 0.23624 0.17331 0.18303 0.0
H592 H 0.32806 1.00904 0.27704 0.0
H593 H 0.3208 0.03059 0.38961 0.0
H594 H 0.29548 0.99295 0.15579 0.0
H595 H 0.2802 1.01563 0.05031 0.0
C596 C 0.47002 0.75431 0.41584 0.0
C597 C 0.43602 0.75762 0.36123 0.0
C598 C 0.39963 0.77111 0.50969 0.0
C599 C 0.43388 0.76805 0.56415 0.0
N600 N 0.50244 0.76644 0.56806 0.0
N601 N 0.36851 0.76861 0.35181 0.0
C602 C 0.46927 0.76206 0.51694 0.0
C603 C 0.4008 0.76609 0.40704 0.0
N604 N 0.50315 0.74378 0.37103 0.0
N605 N 0.3661 0.77834 0.55647 0.0
H606 H 0.36804 0.76256 0.27774 0.0
H607 H 0.34188 0.77654 0.37746 0.0
H608 H 0.36438 0.78331 0.63059 0.0
H609 H 0.33956 0.77944 0.52359 0.0
H610 H 0.52765 0.73592 0.4082 0.0
H611 H 0.50573 0.74041 0.29628 0.0
H612 H 0.52935 0.76651 0.53662 0.0
H613 H 0.50317 0.77409 0.64124 0.0
C614 C 0.72752 0.96024 0.77045 0.0
C615 C 0.75678 0.95466 0.8395 0.0
C616 C 0.80374 0.94864 0.70864 0.0
C617 C 0.77456 0.95544 0.63978 0.0
N618 N 0.71164 0.97988 0.60781 0.0
N619 N 0.82377 0.95174 0.87638 0.0
C620 C 0.73729 0.96486 0.67156 0.0
C621 C 0.79521 0.95111 0.80923 0.0
N622 N 0.69022 0.95961 0.7986 0.0
N623 N 0.83931 0.93855 0.67849 0.0
H624 H 0.81878 0.95211 0.95075 0.0
H625 H 0.85229 0.95539 0.85815 0.0
H626 H 0.84748 0.9392 0.60625 0.0
H627 H 0.8601 0.92786 0.72472 0.0
H628 H 0.66761 0.95936 0.74975 0.0
H629 H 0.68178 0.95561 0.87024 0.0
H630 H 0.68526 0.99066 0.62877 0.0
H631 H 0.71842 0.98575 0.53586 0.0
C632 C 0.18895 0.18645 0.54934 0.0
C633 C 0.22726 0.19657 0.57111 0.0
C634 C 0.22662 0.24311 0.43819 0.0
C635 C 0.18768 0.23411 0.42004 0.0
N636 N 0.12969 0.20452 0.47637 0.0
N637 N 0.28142 0.23767 0.54536 0.0
C638 C 0.16833 0.20785 0.48066 0.0
C639 C 0.24582 0.22588 0.51802 0.0
N640 N 0.17183 0.15624 0.59492 0.0
N641 N 0.24523 0.26777 0.37773 0.0
H642 H 0.29662 0.22416 0.60031 0.0
H643 H 0.29522 0.26157 0.51681 0.0
H644 H 0.23107 0.28296 0.32373 0.0
H645 H 0.27453 0.27232 0.37898 0.0
H646 H 0.14641 0.14369 0.5715 0.0
H647 H 0.18428 0.14155 0.65156 0.0
H648 H 0.11345 0.18941 0.52653 0.0
H649 H 0.11316 0.22064 0.42995 0.0
C650 C 0.36045 0.70775 0.75936 0.0
C651 C 0.34395 0.74102 0.80121 0.0
C652 C 0.29173 0.73532 0.68309 0.0
C653 C 0.31199 0.70548 0.63554 0.0
N654 N 0.37425 0.67646 0.61007 0.0
N655 N 0.29482 0.78898 0.79774 0.0
C656 C 0.34928 0.69642 0.66666 0.0
C657 C 0.30975 0.75574 0.76118 0.0
N658 N 0.38289 0.6835 0.81118 0.0
N659 N 0.25563 0.74388 0.65407 0.0
H660 H 0.30789 0.80424 0.85421 0.0
H661 H 0.2716 0.80291 0.76732 0.0
H662 H 0.24232 0.72951 0.59657 0.0
H663 H 0.23817 0.76321 0.69074 0.0
H664 H 0.39294 0.65761 0.78254 0.0
H665 H 0.38649 0.68571 0.88553 0.0
H666 H 0.40251 0.67227 0.63083 0.0
H667 H 0.36824 0.66728 0.54016 0.0
C668 C 0.86403 0.86186 0.96198 0.0
C669 C 0.85331 0.82476 0.92714 0.0
C670 C 0.80128 0.82267 0.04575 0.0
C671 C 0.81437 0.85797 0.08589 0.0
N672 N 0.86322 0.90734 0.09444 0.0
N673 N 0.81382 0.76838 0.938 0.0
C674 C 0.84694 0.87669 0.04698 0.0
C675 C 0.82249 0.80468 0.96992 0.0
N676 N 0.88992 0.88365 0.91231 0.0
N677 N 0.76826 0.80684 0.07976 0.0
H678 H 0.82893 0.75495 0.88233 0.0
H679 H 0.79374 0.75059 0.97054 0.0
H680 H 0.75221 0.81998 0.13425 0.0
H681 H 0.75517 0.78266 0.04954 0.0
H682 H 0.89616 0.91222 0.92917 0.0
H683 H 0.90343 0.87441 0.84944 0.0
H684 H 0.89001 0.91833 0.07758 0.0
H685 H 0.85181 0.91998 0.15628 0.0
C686 C 0.72263 0.30557 0.28202 0.0
C687 C 0.69042 0.3229 0.32541 0.0
C688 C 0.6904 0.37307 0.20375 0.0
C689 C 0.72496 0.35836 0.16593 0.0
N690 N 0.77607 0.31276 0.1714 0.0
N691 N 0.65029 0.37925 0.3431 0.0
C692 C 0.74178 0.32514 0.2059 0.0
C693 C 0.67633 0.35845 0.2911 0.0
N694 N 0.73433 0.27034 0.31298 0.0
N695 N 0.66985 0.40004 0.15471 0.0
H696 H 0.63739 0.36962 0.4062 0.0
H697 H 0.64343 0.40761 0.3267 0.0
H698 H 0.67905 0.41322 0.09152 0.0
H699 H 0.64209 0.40742 0.17362 0.0
H700 H 0.75575 0.2545 0.27958 0.0
H701 H 0.72033 0.25555 0.36812 0.0
H702 H 0.79155 0.29052 0.20214 0.0
H703 H 0.79047 0.32692 0.1159 0.0
C704 C 0.98379 0.0723 0.20583 0.0
C705 C 0.98105 0.10945 0.24849 0.0
C706 C 0.91269 0.09915 0.27611 0.0
C707 C 0.91629 0.06087 0.24076 0.0
N708 N 0.95592 1.00873 0.18619 0.0
N709 N 0.94456 0.15669 0.33651 0.0
C710 C 0.95211 0.04679 0.20989 0.0
C711 C 0.94591 0.12254 0.28694 0.0
N712 N 1.01644 0.06188 0.15876 0.0
N713 N 0.87741 0.11349 0.29643 0.0
H714 H 0.96811 0.17487 0.34411 0.0
H715 H 0.92089 0.16587 0.3755 0.0
H716 H 0.85266 0.09684 0.29223 0.0
H717 H 0.87234 0.14241 0.3115 0.0
H718 H 1.01898 0.03681 0.11759 0.0
H719 H 0.04006 0.08005 0.15323 0.0
H720 H 0.98202 0.99571 0.17256 0.0
H721 H 0.93327 0.98922 0.1887 0.0
C722 C 0.50154 0.47355 0.4874 0.0
C723 C 0.48849 0.43502 0.49306 0.0
C724 C 0.42289 0.4574 0.51522 0.0
C725 C 0.43555 0.49579 0.50102 0.0
N726 N 0.48561 0.54055 0.46149 0.0
N727 N 0.43674 0.38931 0.50063 0.0
C728 C 0.47459 0.50391 0.48391 0.0
C729 C 0.44913 0.42666 0.50394 0.0
N730 N 0.5398 0.48099 0.48658 0.0
N731 N 0.38614 0.45043 0.54298 0.0
H732 H 0.45522 0.36595 0.49703 0.0
H733 H 0.40815 0.38148 0.49578 0.0
H734 H 0.36583 0.47204 0.5501 0.0
H735 H 0.37635 0.42363 0.5654 0.0
H736 H 0.55147 0.5085 0.4919 0.0
H737 H 0.56016 0.45926 0.48888 0.0
H738 H 0.51293 0.5479 0.43894 0.0
H739 H 0.46646 0.56334 0.45741 0.0
C740 C 0.07688 1.00586 0.74271 0.0
C741 C 0.11542 0.99409 0.73799 0.0
C742 C 0.09605 0.92675 0.75893 0.0
C743 C 0.05734 0.93827 0.75716 0.0
N744 N 1.01007 0.98735 0.73644 0.0
N745 N 0.16211 0.94356 0.72933 0.0
C746 C 0.04751 0.97749 0.74593 0.0
C747 C 0.12514 0.95457 0.74286 0.0
N748 N 0.06856 0.04424 0.74586 0.0
N749 N 0.105 0.88941 0.77904 0.0
H750 H 0.18449 0.96314 0.72171 0.0
H751 H 0.17045 0.91509 0.71995 0.0
H752 H 0.08452 0.86786 0.78737 0.0
H753 H 0.13253 0.88008 0.79325 0.0
H754 H 0.04145 0.05506 0.75846 0.0
H755 H 0.08951 0.0656 0.74325 0.0
H756 H 1.00086 1.01483 0.71899 0.0
H757 H 0.98801 0.96716 0.73865 0.0
C758 C 0.61744 0.59936 0.99391 0.0
C759 C 0.61021 0.55928 0.00152 0.0
C760 C 0.54134 0.57117 0.00163 0.0
C761 C 0.54859 0.61094 0.98804 0.0
N762 N 0.59286 0.66276 0.95853 0.0
N763 N 0.56628 0.50599 0.0024 0.0
C764 C 0.58649 0.62502 0.98098 0.0
C765 C 0.57236 0.54487 0.00233 0.0
N766 N 0.65395 0.61297 0.00158 0.0
N767 N 0.50474 0.55884 0.01577 0.0
H768 H 0.58848 0.48618 0.00341 0.0
H769 H 0.53965 0.49317 -0.00576 0.0
H770 H 0.48159 0.57753 0.0158 0.0
H771 H 0.4974 0.53088 0.03472 0.0
H772 H 0.66081 0.64199 0.00929 0.0
H773 H 0.6776 0.59502 0.00567 0.0
H774 H 0.61945 0.67387 0.94026 0.0
H775 H 0.57104 0.6828 0.95247 0.0
loop_
_geom_bond_atom_site_label_1
_geom_bond_atom_site_label_2
_geom_bond_distance
_geom_bond_site_symmetry_2
_ccdc_geom_bond_type
Zn0 N4 2.020 . S
Zn0 O8 2.019 . S
Zn0 N10 2.119 . S
Zn0 O18 1.975 . S
C1 N2 1.334 . S
C1 N5 1.336 . S
N2 C1 1.334 . S
N2 C3 1.334 . S
C3 N2 1.334 . S
C3 N4 1.336 . S
N4 Zn0 2.020 . S
N4 C3 1.336 . S
N4 N5 1.354 . S
N5 C1 1.336 . S
N5 N4 1.354 . S
N5 Zn9 2.020 . S
C6 O7 1.244 . S
C6 O30 1.257 . S
O7 C6 1.244 . S
O8 Zn0 2.019 . S
O8 C28 1.257 . S
Zn9 N5 2.020 . S
Zn9 O16 1.975 . S
Zn9 N25 2.119 . S
Zn9 O30 2.019 . S
N10 Zn0 2.119 . S
N10 C12 1.334 . S
N10 C13 1.328 . S
C11 C12 1.391 . S
C11 N14 1.329 . S
C11 H32 0.930 . S
C12 N10 1.334 . S
C12 C11 1.391 . S
C12 H19 0.930 . S
C13 N10 1.328 . S
C13 C15 1.392 . S
C13 H20 0.930 . S
N14 C11 1.329 . S
N14 C15 1.331 . S
C15 C13 1.392 . S
C15 N14 1.331 . S
O16 Zn9 1.975 . S
O16 C17 1.252 . S
C17 O16 1.252 . S
C17 O18 1.252 . S
O18 Zn0 1.975 . S
O18 C17 1.252 . S
H19 C12 0.930 . S
H20 C13 0.930 . S
C21 C22 1.392 . S
C21 N25 1.328 1_655 S
C21 H27 0.930 . S
C22 C21 1.392 . S
C22 N26 1.331 . S
C23 C24 1.391 . S
C23 N26 1.329 . S
C23 H33 0.930 . S
C24 C23 1.391 . S
C24 N25 1.334 1_655 S
C24 H31 0.930 1_655 S
N25 Zn9 2.119 . S
N25 C21 1.328 1_455 S
N25 C24 1.334 1_455 S
N26 C22 1.331 . S
N26 C23 1.329 . S
H27 C21 0.930 . S
C28 O8 1.257 . S
C28 O29 1.244 . S
O29 C28 1.244 . S
O30 C6 1.257 . S
O30 Zn9 2.019 . S
H31 C24 0.930 1_455 S
H32 C11 0.930 . S
H33 C23 0.930 . S
Zn34 N38 2.020 . S
Zn34 O42 2.019 . S
Zn34 N44 2.119 . S
Zn34 O52 1.975 . S
C35 N36 1.334 . S
C35 N39 1.336 . S
N36 C35 1.334 . S
N36 C37 1.334 . S
C37 N36 1.334 . S
C37 N38 1.336 . S
N38 Zn34 2.020 . S
N38 C37 1.336 . S
N38 N39 1.354 . S
N39 C35 1.336 . S
N39 N38 1.354 . S
N39 Zn43 2.020 . S
C40 O41 1.244 . S
C40 O64 1.257 . S
O41 C40 1.244 . S
O42 Zn34 2.019 . S
O42 C62 1.257 . S
Zn43 N39 2.020 . S
Zn43 O50 1.975 . S
Zn43 N59 2.119 . S
Zn43 O64 2.019 . S
N44 Zn34 2.119 . S
N44 C46 1.334 . S
N44 C47 1.328 . S
C45 C46 1.391 . S
C45 N48 1.329 . S
C45 H66 0.930 . S
C46 N44 1.334 . S
C46 C45 1.391 . S
C46 H53 0.930 . S
C47 N44 1.328 . S
C47 C49 1.392 . S
C47 H54 0.930 . S
N48 C45 1.329 . S
N48 C49 1.331 . S
C49 C47 1.392 . S
C49 N48 1.331 . S
O50 Zn43 1.975 . S
O50 C51 1.252 . S
C51 O50 1.252 . S
C51 O52 1.252 . S
O52 Zn34 1.975 . S
O52 C51 1.252 . S
H53 C46 0.930 . S
H54 C47 0.930 . S
C55 C56 1.392 . S
C55 N59 1.328 . S
C55 H61 0.930 . S
C56 C55 1.392 . S
C56 N60 1.331 . S
C57 C58 1.391 . S
C57 N60 1.329 . S
C57 H67 0.930 . S
C58 C57 1.391 . S
C58 N59 1.334 . S
C58 H65 0.930 . S
N59 Zn43 2.119 . S
N59 C55 1.328 . S
N59 C58 1.334 . S
N60 C56 1.331 . S
N60 C57 1.329 . S
H61 C55 0.930 . S
C62 O42 1.257 . S
C62 O63 1.244 . S
O63 C62 1.244 . S
O64 C40 1.257 . S
O64 Zn43 2.019 . S
H65 C58 0.930 . S
H66 C45 0.930 . S
H67 C57 0.930 . S
Zn68 N72 2.020 . S
Zn68 O76 2.019 1_556 S
Zn68 N78 2.119 . S
Zn68 O86 1.975 . S
C69 N70 1.334 . S
C69 N73 1.336 . S
N70 C69 1.334 . S
N70 C71 1.334 . S
C71 N70 1.334 . S
C71 N72 1.336 . S
N72 Zn68 2.020 . S
N72 C71 1.336 . S
N72 N73 1.354 . S
N73 C69 1.336 . S
N73 N72 1.354 . S
N73 Zn77 2.020 . S
C74 O75 1.244 . S
C74 O98 1.257 . S
O75 C74 1.244 . S
O76 Zn68 2.019 1_554 S
O76 C96 1.257 . S
Zn77 N73 2.020 . S
Zn77 O84 1.975 . S
Zn77 N93 2.119 . S
Zn77 O98 2.019 . S
N78 Zn68 2.119 . S
N78 C80 1.334 . S
N78 C81 1.328 . S
C79 C80 1.391 . S
C79 N82 1.329 . S
C79 H100 0.930 . S
C80 N78 1.334 . S
C80 C79 1.391 . S
C80 H87 0.930 . S
C81 N78 1.328 . S
C81 C83 1.392 . S
C81 H88 0.930 1_556 S
N82 C79 1.329 . S
N82 C83 1.331 . S
C83 C81 1.392 . S
C83 N82 1.331 . S
O84 Zn77 1.975 . S
O84 C85 1.252 . S
C85 O84 1.252 . S
C85 O86 1.252 . S
O86 Zn68 1.975 . S
O86 C85 1.252 . S
H87 C80 0.930 . S
H88 C81 0.930 1_554 S
C89 C90 1.392 . S
C89 N93 1.328 1_455 S
C89 H95 0.930 . S
C90 C89 1.392 . S
C90 N94 1.331 . S
C91 C92 1.391 . S
C91 N94 1.329 . S
C91 H101 0.930 . S
C92 C91 1.391 . S
C92 N93 1.334 1_455 S
C92 H99 0.930 1_455 S
N93 Zn77 2.119 . S
N93 C89 1.328 1_655 S
N93 C92 1.334 1_655 S
N94 C90 1.331 . S
N94 C91 1.329 . S
H95 C89 0.930 . S
C96 O76 1.257 . S
C96 O97 1.244 . S
O97 C96 1.244 . S
O98 C74 1.257 . S
O98 Zn77 2.019 . S
H99 C92 0.930 1_655 S
H100 C79 0.930 . S
H101 C91 0.930 . S
Zn102 N106 2.020 . S
Zn102 O110 2.019 . S
Zn102 N112 2.119 . S
Zn102 O120 1.975 . S
C103 N104 1.334 . S
C103 N107 1.336 . S
N104 C103 1.334 . S
N104 C105 1.334 1_556 S
C105 N104 1.334 1_554 S
C105 N106 1.336 . S
N106 Zn102 2.020 . S
N106 C105 1.336 . S
N106 N107 1.354 1_554 S
N107 C103 1.336 . S
N107 N106 1.354 1_556 S
N107 Zn111 2.020 . S
C108 O109 1.244 . S
C108 O132 1.257 . S
O109 C108 1.244 . S
O110 Zn102 2.019 . S
O110 C130 1.257 . S
Zn111 N107 2.020 . S
Zn111 O118 1.975 . S
Zn111 N127 2.119 . S
Zn111 O132 2.019 . S
N112 Zn102 2.119 . S
N112 C114 1.334 1_554 S
N112 C115 1.328 . S
C113 C114 1.391 . S
C113 N116 1.329 1_556 S
C113 H134 0.930 . S
C114 N112 1.334 1_556 S
C114 C113 1.391 . S
C114 H121 0.930 . S
C115 N112 1.328 . S
C115 C117 1.392 . S
C115 H122 0.930 . S
N116 C113 1.329 1_554 S
N116 C117 1.331 . S
C117 C115 1.392 . S
C117 N116 1.331 . S
O118 Zn111 1.975 . S
O118 C119 1.242 1_556 S
C119 O118 1.242 1_554 S
C119 O120 1.262 . S
O120 Zn102 1.975 . S
O120 C119 1.262 . S
H121 C114 0.930 . S
H122 C115 0.930 . S
C123 C124 1.392 . S
C123 N127 1.328 . S
C123 H129 0.930 . S
C124 C123 1.392 . S
C124 N128 1.331 . S
C125 C126 1.391 . S
C125 N128 1.329 1_554 S
C125 H135 0.930 . S
C126 C125 1.391 . S
C126 N127 1.334 1_554 S
C126 H133 0.930 . S
N127 Zn111 2.119 . S
N127 C123 1.328 . S
N127 C126 1.334 1_556 S
N128 C124 1.331 . S
N128 C125 1.329 1_556 S
H129 C123 0.930 . S
C130 O110 1.257 . S
C130 O131 1.244 . S
O131 C130 1.244 . S
O132 C108 1.257 . S
O132 Zn111 2.019 . S
H133 C126 0.930 . S
H134 C113 0.930 . S
H135 C125 0.930 . S
Zn136 N140 2.020 . S
Zn136 O144 2.019 . S
Zn136 N146 2.119 . S
Zn136 O154 1.975 . S
C137 N138 1.334 . S
C137 N141 1.336 . S
N138 C137 1.334 . S
N138 C139 1.334 . S
C139 N138 1.334 . S
C139 N140 1.336 . S
N140 Zn136 2.020 . S
N140 C139 1.336 . S
N140 N141 1.354 . S
N141 C137 1.336 . S
N141 N140 1.354 . S
N141 Zn145 2.020 . S
C142 O143 1.244 . S
C142 O166 1.257 . S
O143 C142 1.244 . S
O144 Zn136 2.019 . S
O144 C164 1.257 . S
Zn145 N141 2.020 . S
Zn145 O152 1.975 . S
Zn145 N161 2.119 . S
Zn145 O166 2.019 . S
N146 Zn136 2.119 . S
N146 C148 1.334 . S
N146 C149 1.328 . S
C147 C148 1.391 . S
C147 N150 1.329 . S
C147 H168 0.930 . S
C148 N146 1.334 . S
C148 C147 1.391 . S
C148 H155 0.930 . S
C149 N146 1.328 . S
C149 C151 1.392 . S
C149 H156 0.930 . S
N150 C147 1.329 . S
N150 C151 1.331 . S
C151 C149 1.392 . S
C151 N150 1.331 . S
O152 Zn145 1.975 . S
O152 C153 1.252 . S
C153 O152 1.252 . S
C153 O154 1.252 . S
O154 Zn136 1.975 . S
O154 C153 1.252 . S
H155 C148 0.930 . S
H156 C149 0.930 . S
C157 C158 1.392 . S
C157 N161 1.328 . S
C157 H163 0.930 . S
C158 C157 1.392 . S
C158 N162 1.331 . S
C159 C160 1.391 . S
C159 N162 1.329 . S
C159 H169 0.930 . S
C160 C159 1.391 . S
C160 N161 1.334 . S
C160 H167 0.930 . S
N161 Zn145 2.119 . S
N161 C157 1.328 . S
N161 C160 1.334 . S
N162 C158 1.331 . S
N162 C159 1.329 . S
H163 C157 0.930 . S
C164 O144 1.257 . S
C164 O165 1.244 . S
O165 C164 1.244 . S
O166 C142 1.257 . S
O166 Zn145 2.019 . S
H167 C160 0.930 . S
H168 C147 0.930 . S
H169 C159 0.930 . S
Zn170 N174 2.020 . S
Zn170 O178 2.019 . S
Zn170 N180 2.119 . S
Zn170 O188 1.975 . S
C171 N172 1.334 . S
C171 N175 1.336 . S
N172 C171 1.334 . S
N172 C173 1.334 . S
C173 N172 1.334 . S
C173 N174 1.336 . S
N174 Zn170 2.020 . S
N174 C173 1.336 . S
N174 N175 1.354 . S
N175 C171 1.336 . S
N175 N174 1.354 . S
N175 Zn179 2.020 . S
C176 O177 1.244 . S
C176 O200 1.257 . S
O177 C176 1.244 . S
O178 Zn170 2.019 . S
O178 C198 1.257 . S
Zn179 N175 2.020 . S
Zn179 O186 1.975 . S
Zn179 N195 2.119 . S
Zn179 O200 2.019 . S
N180 Zn170 2.119 . S
N180 C182 1.334 1_545 S
N180 C183 1.328 1_545 S
C181 C182 1.391 . S
C181 N184 1.329 . S
C181 H202 0.930 . S
C182 N180 1.334 1_565 S
C182 C181 1.391 . S
C182 H189 0.930 1_565 S
C183 N180 1.328 1_565 S
C183 C185 1.392 . S
C183 H190 0.930 . S
N184 C181 1.329 . S
N184 C185 1.331 . S
C185 C183 1.392 . S
C185 N184 1.331 . S
O186 Zn179 1.975 . S
O186 C187 1.252 . S
C187 O186 1.252 . S
C187 O188 1.252 . S
O188 Zn170 1.975 . S
O188 C187 1.252 . S
H189 C182 0.930 1_545 S
H190 C183 0.930 . S
C191 C192 1.392 . S
C191 N195 1.328 . S
C191 H197 0.930 . S
C192 C191 1.392 . S
C192 N196 1.331 . S
C193 C194 1.391 . S
C193 N196 1.329 . S
C193 H203 0.930 . S
C194 C193 1.391 . S
C194 N195 1.334 . S
C194 H201 0.930 . S
N195 Zn179 2.119 . S
N195 C191 1.328 . S
N195 C194 1.334 . S
N196 C192 1.331 . S
N196 C193 1.329 . S
H197 C191 0.930 . S
C198 O178 1.257 . S
C198 O199 1.244 . S
O199 C198 1.244 . S
O200 C176 1.257 . S
O200 Zn179 2.019 . S
H201 C194 0.930 . S
H202 C181 0.930 . S
H203 C193 0.930 . S
Zn204 N208 2.020 . S
Zn204 O212 2.019 . S
Zn204 N214 2.119 . S
Zn204 O222 1.975 . S
C205 N206 1.334 . S
C205 N209 1.336 . S
N206 C205 1.334 . S
N206 C207 1.334 1_554 S
C207 N206 1.334 1_556 S
C207 N208 1.336 . S
N208 Zn204 2.020 . S
N208 C207 1.336 . S
N208 N209 1.354 1_556 S
N209 C205 1.336 . S
N209 N208 1.354 1_554 S
N209 Zn213 2.020 . S
C210 O211 1.244 . S
C210 O234 1.257 . S
O211 C210 1.244 . S
O212 Zn204 2.019 . S
O212 C232 1.257 . S
Zn213 N209 2.020 . S
Zn213 O220 1.975 . S
Zn213 N229 2.119 . S
Zn213 O234 2.019 . S
N214 Zn204 2.119 . S
N214 C216 1.334 1_556 S
N214 C217 1.328 . S
C215 C216 1.391 . S
C215 N218 1.329 1_554 S
C215 H236 0.930 . S
C216 N214 1.334 1_554 S
C216 C215 1.391 . S
C216 H223 0.930 . S
C217 N214 1.328 . S
C217 C219 1.392 . S
C217 H224 0.930 . S
N218 C215 1.329 1_556 S
N218 C219 1.331 . S
C219 C217 1.392 . S
C219 N218 1.331 . S
O220 Zn213 1.975 . S
O220 C221 1.242 1_554 S
C221 O220 1.242 1_556 S
C221 O222 1.262 . S
O222 Zn204 1.975 . S
O222 C221 1.262 . S
H223 C216 0.930 . S
H224 C217 0.930 . S
C225 C226 1.392 . S
C225 N229 1.328 . S
C225 H231 0.930 . S
C226 C225 1.392 . S
C226 N230 1.331 . S
C227 C228 1.391 . S
C227 N230 1.329 1_556 S
C227 H237 0.930 . S
C228 C227 1.391 . S
C228 N229 1.334 1_556 S
C228 H235 0.930 . S
N229 Zn213 2.119 . S
N229 C225 1.328 . S
N229 C228 1.334 1_554 S
N230 C226 1.331 . S
N230 C227 1.329 1_554 S
H231 C225 0.930 . S
C232 O212 1.257 . S
C232 O233 1.244 . S
O233 C232 1.244 . S
O234 C210 1.257 . S
O234 Zn213 2.019 . S
H235 C228 0.930 . S
H236 C215 0.930 . S
H237 C227 0.930 . S
Zn238 N242 2.020 . S
Zn238 O246 2.019 1_554 S
Zn238 N248 2.119 . S
Zn238 O256 1.975 . S
C239 N240 1.334 . S
C239 N243 1.336 . S
N240 C239 1.334 . S
N240 C241 1.334 . S
C241 N240 1.334 . S
C241 N242 1.336 . S
N242 Zn238 2.020 . S
N242 C241 1.336 . S
N242 N243 1.354 . S
N243 C239 1.336 . S
N243 N242 1.354 . S
N243 Zn247 2.020 . S
C244 O245 1.244 . S
C244 O268 1.257 . S
O245 C244 1.244 . S
O246 Zn238 2.019 1_556 S
O246 C266 1.257 . S
Zn247 N243 2.020 . S
Zn247 O254 1.975 . S
Zn247 N263 2.119 . S
Zn247 O268 2.019 . S
N248 Zn238 2.119 . S
N248 C250 1.334 . S
N248 C251 1.328 . S
C249 C250 1.391 . S
C249 N252 1.329 . S
C249 H270 0.930 . S
C250 N248 1.334 . S
C250 C249 1.391 . S
C250 H257 0.930 . S
C251 N248 1.328 . S
C251 C253 1.392 . S
C251 H258 0.930 1_554 S
N252 C249 1.329 . S
N252 C253 1.331 . S
C253 C251 1.392 . S
C253 N252 1.331 . S
O254 Zn247 1.975 . S
O254 C255 1.252 . S
C255 O254 1.252 . S
C255 O256 1.252 . S
O256 Zn238 1.975 . S
O256 C255 1.252 . S
H257 C250 0.930 . S
H258 C251 0.930 1_556 S
C259 C260 1.392 . S
C259 N263 1.328 1_545 S
C259 H265 0.930 . S
C260 C259 1.392 . S
C260 N264 1.331 . S
C261 C262 1.391 . S
C261 N264 1.329 . S
C261 H271 0.930 . S
C262 C261 1.391 . S
C262 N263 1.334 1_545 S
C262 H269 0.930 1_545 S
N263 Zn247 2.119 . S
N263 C259 1.328 1_565 S
N263 C262 1.334 1_565 S
N264 C260 1.331 . S
N264 C261 1.329 . S
H265 C259 0.930 . S
C266 O246 1.257 . S
C266 O267 1.244 . S
O267 C266 1.244 . S
O268 C244 1.257 . S
O268 Zn247 2.019 . S
H269 C262 0.930 1_565 S
H270 C249 0.930 . S
H271 C261 0.930 . S
C272 C273 1.363 . S
C272 C278 1.379 . S
C272 N280 1.356 . S
C273 C272 1.363 . S
C273 C279 1.363 . S
C274 C275 1.363 . S
C274 C279 1.379 . S
C274 N281 1.356 . S
C275 C274 1.363 . S
C275 C278 1.363 . S
N276 C278 1.356 . S
N276 H288 0.984 . S
N276 H289 0.985 . S
N277 C279 1.356 . S
N277 H282 0.984 . S
N277 H283 0.985 . S
C278 C272 1.379 . S
C278 C275 1.363 . S
C278 N276 1.356 . S
C279 C273 1.363 . S
C279 C274 1.379 . S
C279 N277 1.356 . S
N280 C272 1.356 . S
N280 H286 0.984 . S
N280 H287 0.984 . S
N281 C274 1.356 . S
N281 H284 0.984 . S
N281 H285 0.985 . S
H282 N277 0.984 . S
H283 N277 0.985 . S
H284 N281 0.984 . S
H285 N281 0.985 . S
H286 N280 0.984 . S
H287 N280 0.984 . S
H288 N276 0.984 . S
H289 N276 0.985 . S
C290 C291 1.363 . S
C290 C296 1.379 . S
C290 N298 1.356 . S
C291 C290 1.363 . S
C291 C297 1.363 . S
C292 C293 1.363 . S
C292 C297 1.379 . S
C292 N299 1.356 . S
C293 C292 1.363 . S
C293 C296 1.363 . S
N294 C296 1.356 . S
N294 H306 0.984 . S
N294 H307 0.985 . S
N295 C297 1.356 . S
N295 H300 0.984 1_455 S
N295 H301 0.985 . S
C296 C290 1.379 . S
C296 C293 1.363 . S
C296 N294 1.356 . S
C297 C291 1.363 . S
C297 C292 1.379 . S
C297 N295 1.356 . S
N298 C290 1.356 . S
N298 H304 0.984 1_556 S
N298 H305 0.984 . S
N299 C292 1.356 . S
N299 H302 0.984 . S
N299 H303 0.985 . S
H300 N295 0.984 1_655 S
H301 N295 0.985 . S
H302 N299 0.984 . S
H303 N299 0.985 . S
H304 N298 0.984 1_554 S
H305 N298 0.984 . S
H306 N294 0.984 . S
H307 N294 0.985 . S
C308 C309 1.363 . S
C308 C314 1.379 . S
C308 N316 1.356 . S
C309 C308 1.363 . S
C309 C315 1.363 1_556 S
C310 C311 1.363 1_554 S
C310 C315 1.379 . S
C310 N317 1.356 . S
C311 C310 1.363 1_556 S
C311 C314 1.363 . S
N312 C314 1.356 . S
N312 H324 0.984 . S
N312 H325 0.985 . S
N313 C315 1.356 . S
N313 H318 0.984 . S
N313 H319 0.985 . S
C314 C308 1.379 . S
C314 C311 1.363 . S
C314 N312 1.356 . S
C315 C309 1.363 1_554 S
C315 C310 1.379 . S
C315 N313 1.356 . S
N316 C308 1.356 . S
N316 H322 0.984 . S
N316 H323 0.984 . S
N317 C310 1.356 . S
N317 H320 0.984 . S
N317 H321 0.985 . S
H318 N313 0.984 . S
H319 N313 0.985 . S
H320 N317 0.984 . S
H321 N317 0.985 . S
H322 N316 0.984 . S
H323 N316 0.984 . S
H324 N312 0.984 . S
H325 N312 0.985 . S
C326 C327 1.363 . S
C326 C332 1.379 . S
C326 N334 1.356 . S
C327 C326 1.363 . S
C327 C333 1.363 . S
C328 C329 1.363 . S
C328 C333 1.379 . S
C328 N335 1.356 . S
C329 C328 1.363 . S
C329 C332 1.363 . S
N330 C332 1.356 . S
N330 H342 0.984 . S
N330 H343 0.985 . S
N331 C333 1.356 . S
N331 H336 0.984 1_655 S
N331 H337 0.985 . S
C332 C326 1.379 . S
C332 C329 1.363 . S
C332 N330 1.356 . S
C333 C327 1.363 . S
C333 C328 1.379 . S
C333 N331 1.356 . S
N334 C326 1.356 . S
N334 H340 0.984 . S
N334 H341 0.984 . S
N335 C328 1.356 . S
N335 H338 0.984 . S
N335 H339 0.985 . S
H336 N331 0.984 1_455 S
H337 N331 0.985 . S
H338 N335 0.984 . S
H339 N335 0.985 . S
H340 N334 0.984 . S
H341 N334 0.984 . S
H342 N330 0.984 . S
H343 N330 0.985 . S
C344 C345 1.363 . S
C344 C350 1.379 . S
C344 N352 1.356 . S
C345 C344 1.363 . S
C345 C351 1.363 . S
C346 C347 1.363 . S
C346 C351 1.379 . S
C346 N353 1.356 . S
C347 C346 1.363 . S
C347 C350 1.363 . S
N348 C350 1.356 . S
N348 H360 0.984 . S
N348 H361 0.985 1_545 S
N349 C351 1.356 . S
N349 H354 0.984 . S
N349 H355 0.985 . S
C350 C344 1.379 . S
C350 C347 1.363 . S
C350 N348 1.356 . S
C351 C345 1.363 . S
C351 C346 1.379 . S
C351 N349 1.356 . S
N352 C344 1.356 . S
N352 H358 0.984 . S
N352 H359 0.984 . S
N353 C346 1.356 . S
N353 H356 0.984 . S
N353 H357 0.985 . S
H354 N349 0.984 . S
H355 N349 0.985 . S
H356 N353 0.984 . S
H357 N353 0.985 . S
H358 N352 0.984 . S
H359 N352 0.984 . S
H360 N348 0.984 . S
H361 N348 0.985 1_565 S
C362 C363 1.363 . S
C362 C368 1.379 . S
C362 N370 1.356 . S
C363 C362 1.363 . S
C363 C369 1.363 . S
C364 C365 1.363 . S
C364 C369 1.379 . S
C364 N371 1.356 . S
C365 C364 1.363 . S
C365 C368 1.363 . S
N366 C368 1.356 . S
N366 H378 0.984 . S
N366 H379 0.985 . S
N367 C369 1.356 . S
N367 H372 0.984 . S
N367 H373 0.985 . S
C368 C362 1.379 . S
C368 C365 1.363 . S
C368 N366 1.356 . S
C369 C363 1.363 . S
C369 C364 1.379 . S
C369 N367 1.356 . S
N370 C362 1.356 . S
N370 H376 0.984 . S
N370 H377 0.984 . S
N371 C364 1.356 . S
N371 H374 0.984 . S
N371 H375 0.985 . S
H372 N367 0.984 . S
H373 N367 0.985 . S
H374 N371 0.984 . S
H375 N371 0.985 . S
H376 N370 0.984 . S
H377 N370 0.984 . S
H378 N366 0.984 . S
H379 N366 0.985 . S
C380 C381 1.363 . S
C380 C386 1.379 . S
C380 N388 1.356 . S
C381 C380 1.363 . S
C381 C387 1.363 . S
C382 C383 1.363 . S
C382 C387 1.379 . S
C382 N389 1.356 . S
C383 C382 1.363 . S
C383 C386 1.363 . S
N384 C386 1.356 . S
N384 H396 0.984 . S
N384 H397 0.985 . S
N385 C387 1.356 . S
N385 H390 0.984 . S
N385 H391 0.985 . S
C386 C380 1.379 . S
C386 C383 1.363 . S
C386 N384 1.356 . S
C387 C381 1.363 . S
C387 C382 1.379 . S
C387 N385 1.356 . S
N388 C380 1.356 . S
N388 H394 0.984 . S
N388 H395 0.984 1_565 S
N389 C382 1.356 . S
N389 H392 0.984 . S
N389 H393 0.985 . S
H390 N385 0.984 . S
H391 N385 0.985 . S
H392 N389 0.984 . S
H393 N389 0.985 . S
H394 N388 0.984 . S
H395 N388 0.984 1_545 S
H396 N384 0.984 . S
H397 N384 0.985 . S
C398 C399 1.363 . S
C398 C404 1.379 . S
C398 N406 1.356 . S
C399 C398 1.363 . S
C399 C405 1.363 1_554 S
C400 C401 1.363 1_556 S
C400 C405 1.379 . S
C400 N407 1.356 . S
C401 C400 1.363 1_554 S
C401 C404 1.363 . S
N402 C404 1.356 . S
N402 H414 0.984 . S
N402 H415 0.985 . S
N403 C405 1.356 . S
N403 H408 0.984 . S
N403 H409 0.985 . S
C404 C398 1.379 . S
C404 C401 1.363 . S
C404 N402 1.356 . S
C405 C399 1.363 1_556 S
C405 C400 1.379 . S
C405 N403 1.356 . S
N406 C398 1.356 . S
N406 H412 0.984 . S
N406 H413 0.984 . S
N407 C400 1.356 . S
N407 H410 0.984 . S
N407 H411 0.985 . S
H408 N403 0.984 . S
H409 N403 0.985 . S
H410 N407 0.984 . S
H411 N407 0.985 . S
H412 N406 0.984 . S
H413 N406 0.984 . S
H414 N402 0.984 . S
H415 N402 0.985 . S
C416 C417 1.363 1_554 S
C416 C422 1.379 . S
C416 N424 1.356 1_554 S
C417 C416 1.363 1_556 S
C417 C423 1.363 . S
C418 C419 1.363 1_556 S
C418 C423 1.379 . S
C418 N425 1.356 1_556 S
C419 C418 1.363 1_554 S
C419 C422 1.363 . S
N420 C422 1.356 . S
N420 H432 0.984 . S
N420 H433 0.985 . S
N421 C423 1.356 . S
N421 H426 0.984 . S
N421 H427 0.985 . S
C422 C416 1.379 . S
C422 C419 1.363 . S
C422 N420 1.356 . S
C423 C417 1.363 . S
C423 C418 1.379 . S
C423 N421 1.356 . S
N424 C416 1.356 1_556 S
N424 H430 0.984 1_556 S
N424 H431 0.984 . S
N425 C418 1.356 1_554 S
N425 H428 0.984 . S
N425 H429 0.985 1_554 S
H426 N421 0.984 . S
H427 N421 0.985 . S
H428 N425 0.984 . S
H429 N425 0.985 1_556 S
H430 N424 0.984 1_554 S
H431 N424 0.984 . S
H432 N420 0.984 . S
H433 N420 0.985 . S
C434 C435 1.363 . S
C434 C440 1.379 . S
C434 N442 1.356 . S
C435 C434 1.363 . S
C435 C441 1.363 . S
C436 C437 1.363 . S
C436 C441 1.379 . S
C436 N443 1.356 . S
C437 C436 1.363 . S
C437 C440 1.363 . S
N438 C440 1.356 . S
N438 H450 0.984 . S
N438 H451 0.985 . S
N439 C441 1.356 . S
N439 H444 0.984 . S
N439 H445 0.985 . S
C440 C434 1.379 . S
C440 C437 1.363 . S
C440 N438 1.356 . S
C441 C435 1.363 . S
C441 C436 1.379 . S
C441 N439 1.356 . S
N442 C434 1.356 . S
N442 H448 0.984 . S
N442 H449 0.984 . S
N443 C436 1.356 . S
N443 H446 0.984 . S
N443 H447 0.985 . S
H444 N439 0.984 . S
H445 N439 0.985 . S
H446 N443 0.984 . S
H447 N443 0.985 . S
H448 N442 0.984 . S
H449 N442 0.984 . S
H450 N438 0.984 . S
H451 N438 0.985 . S
C452 C453 1.363 . S
C452 C458 1.379 . S
C452 N460 1.356 . S
C453 C452 1.363 . S
C453 C459 1.363 . S
C454 C455 1.363 . S
C454 C459 1.379 . S
C454 N461 1.356 . S
C455 C454 1.363 . S
C455 C458 1.363 . S
N456 C458 1.356 . S
N456 H468 0.984 . S
N456 H469 0.985 . S
N457 C459 1.356 . S
N457 H462 0.984 . S
N457 H463 0.985 . S
C458 C452 1.379 . S
C458 C455 1.363 . S
C458 N456 1.356 . S
C459 C453 1.363 . S
C459 C454 1.379 . S
C459 N457 1.356 . S
N460 C452 1.356 . S
N460 H466 0.984 . S
N460 H467 0.984 . S
N461 C454 1.356 . S
N461 H464 0.984 . S
N461 H465 0.985 . S
H462 N457 0.984 . S
H463 N457 0.985 . S
H464 N461 0.984 . S
H465 N461 0.985 . S
H466 N460 0.984 . S
H467 N460 0.984 . S
H468 N456 0.984 . S
H469 N456 0.985 . S
C470 C471 1.363 . S
C470 C476 1.379 . S
C470 N478 1.356 . S
C471 C470 1.363 . S
C471 C477 1.363 . S
C472 C473 1.363 . S
C472 C477 1.379 . S
C472 N479 1.356 . S
C473 C472 1.363 . S
C473 C476 1.363 . S
N474 C476 1.356 . S
N474 H486 0.984 . S
N474 H487 0.985 . S
N475 C477 1.356 . S
N475 H480 0.984 . S
N475 H481 0.985 . S
C476 C470 1.379 . S
C476 C473 1.363 . S
C476 N474 1.356 . S
C477 C471 1.363 . S
C477 C472 1.379 . S
C477 N475 1.356 . S
N478 C470 1.356 . S
N478 H484 0.984 . S
N478 H485 0.984 . S
N479 C472 1.356 . S
N479 H482 0.984 . S
N479 H483 0.985 . S
H480 N475 0.984 . S
H481 N475 0.985 . S
H482 N479 0.984 . S
H483 N479 0.985 . S
H484 N478 0.984 . S
H485 N478 0.984 . S
H486 N474 0.984 . S
H487 N474 0.985 . S
C488 C489 1.363 . S
C488 C494 1.379 . S
C488 N496 1.356 . S
C489 C488 1.363 . S
C489 C495 1.363 . S
C490 C491 1.363 . S
C490 C495 1.379 . S
C490 N497 1.356 . S
C491 C490 1.363 . S
C491 C494 1.363 . S
N492 C494 1.356 . S
N492 H504 0.984 1_455 S
N492 H505 0.985 . S
N493 C495 1.356 . S
N493 H498 0.984 . S
N493 H499 0.985 . S
C494 C488 1.379 . S
C494 C491 1.363 . S
C494 N492 1.356 . S
C495 C489 1.363 . S
C495 C490 1.379 . S
C495 N493 1.356 . S
N496 C488 1.356 . S
N496 H502 0.984 1_455 S
N496 H503 0.984 . S
N497 C490 1.356 . S
N497 H500 0.984 1_556 S
N497 H501 0.985 . S
H498 N493 0.984 . S
H499 N493 0.985 . S
H500 N497 0.984 1_554 S
H501 N497 0.985 . S
H502 N496 0.984 1_655 S
H503 N496 0.984 . S
H504 N492 0.984 1_655 S
H505 N492 0.985 . S
C506 C507 1.363 . S
C506 C512 1.379 . S
C506 N514 1.356 . S
C507 C506 1.363 . S
C507 C513 1.363 . S
C508 C509 1.363 1_554 S
C508 C513 1.379 . S
C508 N515 1.356 1_554 S
C509 C508 1.363 1_556 S
C509 C512 1.363 1_556 S
N510 C512 1.356 1_556 S
N510 H522 0.984 1_556 S
N510 H523 0.985 . S
N511 C513 1.356 . S
N511 H516 0.984 . S
N511 H517 0.985 . S
C512 C506 1.379 . S
C512 C509 1.363 1_554 S
C512 N510 1.356 1_554 S
C513 C507 1.363 . S
C513 C508 1.379 . S
C513 N511 1.356 . S
N514 C506 1.356 . S
N514 H520 0.984 . S
N514 H521 0.984 . S
N515 C508 1.356 1_556 S
N515 H518 0.984 . S
N515 H519 0.985 . S
H516 N511 0.984 . S
H517 N511 0.985 . S
H518 N515 0.984 . S
H519 N515 0.985 . S
H520 N514 0.984 . S
H521 N514 0.984 . S
H522 N510 0.984 1_554 S
H523 N510 0.985 . S
C524 C525 1.363 . S
C524 C530 1.379 . S
C524 N532 1.356 . S
C525 C524 1.363 . S
C525 C531 1.363 . S
C526 C527 1.363 . S
C526 C531 1.379 . S
C526 N533 1.356 . S
C527 C526 1.363 . S
C527 C530 1.363 . S
N528 C530 1.356 . S
N528 H540 0.984 . S
N528 H541 0.985 . S
N529 C531 1.356 . S
N529 H534 0.984 . S
N529 H535 0.985 . S
C530 C524 1.379 . S
C530 C527 1.363 . S
C530 N528 1.356 . S
C531 C525 1.363 . S
C531 C526 1.379 . S
C531 N529 1.356 . S
N532 C524 1.356 . S
N532 H538 0.984 . S
N532 H539 0.984 . S
N533 C526 1.356 . S
N533 H536 0.984 . S
N533 H537 0.985 . S
H534 N529 0.984 . S
H535 N529 0.985 . S
H536 N533 0.984 . S
H537 N533 0.985 . S
H538 N532 0.984 . S
H539 N532 0.984 . S
H540 N528 0.984 . S
H541 N528 0.985 . S
C542 C543 1.363 . S
C542 C548 1.379 . S
C542 N550 1.356 . S
C543 C542 1.363 . S
C543 C549 1.363 . S
C544 C545 1.363 . S
C544 C549 1.379 . S
C544 N551 1.356 . S
C545 C544 1.363 . S
C545 C548 1.363 . S
N546 C548 1.356 . S
N546 H558 0.984 . S
N546 H559 0.985 . S
N547 C549 1.356 . S
N547 H552 0.984 . S
N547 H553 0.985 . S
C548 C542 1.379 . S
C548 C545 1.363 . S
C548 N546 1.356 . S
C549 C543 1.363 . S
C549 C544 1.379 . S
C549 N547 1.356 . S
N550 C542 1.356 . S
N550 H556 0.984 . S
N550 H557 0.984 . S
N551 C544 1.356 . S
N551 H554 0.984 . S
N551 H555 0.985 . S
H552 N547 0.984 . S
H553 N547 0.985 . S
H554 N551 0.984 . S
H555 N551 0.985 . S
H556 N550 0.984 . S
H557 N550 0.984 . S
H558 N546 0.984 . S
H559 N546 0.985 . S
C560 C561 1.363 1_556 S
C560 C566 1.379 . S
C560 N568 1.356 1_556 S
C561 C560 1.363 1_554 S
C561 C567 1.363 1_554 S
C562 C563 1.363 . S
C562 C567 1.379 . S
C562 N569 1.356 . S
C563 C562 1.363 . S
C563 C566 1.363 . S
N564 C566 1.356 . S
N564 H576 0.984 . S
N564 H577 0.985 . S
N565 C567 1.356 1_554 S
N565 H570 0.984 . S
N565 H571 0.985 . S
C566 C560 1.379 . S
C566 C563 1.363 . S
C566 N564 1.356 . S
C567 C561 1.363 1_556 S
C567 C562 1.379 . S
C567 N565 1.356 1_556 S
N568 C560 1.356 1_554 S
N568 H574 0.984 1_554 S
N568 H575 0.984 . S
N569 C562 1.356 . S
N569 H572 0.984 . S
N569 H573 0.985 . S
H570 N565 0.984 . S
H571 N565 0.985 . S
H572 N569 0.984 . S
H573 N569 0.985 . S
H574 N568 0.984 1_556 S
H575 N568 0.984 . S
H576 N564 0.984 . S
H577 N564 0.985 . S
C578 C579 1.363 . S
C578 C584 1.379 . S
C578 N586 1.356 . S
C579 C578 1.363 . S
C579 C585 1.363 . S
C580 C581 1.363 . S
C580 C585 1.379 . S
C580 N587 1.356 . S
C581 C580 1.363 . S
C581 C584 1.363 . S
N582 C584 1.356 . S
N582 H594 0.984 1_545 S
N582 H595 0.985 1_554 S
N583 C585 1.356 . S
N583 H588 0.984 . S
N583 H589 0.985 . S
C584 C578 1.379 . S
C584 C581 1.363 . S
C584 N582 1.356 . S
C585 C579 1.363 . S
C585 C580 1.379 . S
C585 N583 1.356 . S
N586 C578 1.356 . S
N586 H592 0.984 1_545 S
N586 H593 0.984 . S
N587 C580 1.356 . S
N587 H590 0.984 . S
N587 H591 0.985 . S
H588 N583 0.984 . S
H589 N583 0.985 . S
H590 N587 0.984 . S
H591 N587 0.985 . S
H592 N586 0.984 1_565 S
H593 N586 0.984 . S
H594 N582 0.984 1_565 S
H595 N582 0.985 1_556 S
C596 C597 1.363 . S
C596 C602 1.379 . S
C596 N604 1.356 . S
C597 C596 1.363 . S
C597 C603 1.363 . S
C598 C599 1.363 . S
C598 C603 1.379 . S
C598 N605 1.356 . S
C599 C598 1.363 . S
C599 C602 1.363 . S
N600 C602 1.356 . S
N600 H612 0.984 . S
N600 H613 0.985 . S
N601 C603 1.356 . S
N601 H606 0.984 . S
N601 H607 0.985 . S
C602 C596 1.379 . S
C602 C599 1.363 . S
C602 N600 1.356 . S
C603 C597 1.363 . S
C603 C598 1.379 . S
C603 N601 1.356 . S
N604 C596 1.356 . S
N604 H610 0.984 . S
N604 H611 0.984 . S
N605 C598 1.356 . S
N605 H608 0.984 . S
N605 H609 0.985 . S
H606 N601 0.984 . S
H607 N601 0.985 . S
H608 N605 0.984 . S
H609 N605 0.985 . S
H610 N604 0.984 . S
H611 N604 0.984 . S
H612 N600 0.984 . S
H613 N600 0.985 . S
C614 C615 1.363 . S
C614 C620 1.379 . S
C614 N622 1.356 . S
C615 C614 1.363 . S
C615 C621 1.363 . S
C616 C617 1.363 . S
C616 C621 1.379 . S
C616 N623 1.356 . S
C617 C616 1.363 . S
C617 C620 1.363 . S
N618 C620 1.375 . S
N618 H630 0.963 1_565 S
N618 H631 0.989 . S
N619 C621 1.356 . S
N619 H624 0.984 . S
N619 H625 0.985 . S
C620 C614 1.379 . S
C620 C617 1.363 . S
C620 N618 1.375 . S
C621 C615 1.363 . S
C621 C616 1.379 . S
C621 N619 1.356 . S
N622 C614 1.356 . S
N622 H628 0.984 1_565 S
N622 H629 0.984 . S
N623 C616 1.356 . S
N623 H626 0.984 . S
N623 H627 0.985 . S
H624 N619 0.984 . S
H625 N619 0.985 . S
H626 N623 0.984 . S
H627 N623 0.985 . S
H628 N622 0.984 1_545 S
H629 N622 0.984 . S
H630 N618 0.963 1_545 S
H631 N618 0.989 . S
C632 C633 1.363 . S
C632 C638 1.379 . S
C632 N640 1.356 . S
C633 C632 1.363 . S
C633 C639 1.363 . S
C634 C635 1.363 . S
C634 C639 1.379 . S
C634 N641 1.356 . S
C635 C634 1.363 . S
C635 C638 1.363 . S
N636 C638 1.356 . S
N636 H648 0.984 . S
N636 H649 0.985 . S
N637 C639 1.356 . S
N637 H642 0.984 . S
N637 H643 0.985 . S
C638 C632 1.379 . S
C638 C635 1.363 . S
C638 N636 1.356 . S
C639 C633 1.363 . S
C639 C634 1.379 . S
C639 N637 1.356 . S
N640 C632 1.356 . S
N640 H646 0.984 . S
N640 H647 0.984 . S
N641 C634 1.356 . S
N641 H644 0.984 . S
N641 H645 0.985 . S
H642 N637 0.984 . S
H643 N637 0.985 . S
H644 N641 0.984 . S
H645 N641 0.985 . S
H646 N640 0.984 . S
H647 N640 0.984 . S
H648 N636 0.984 . S
H649 N636 0.985 . S
C650 C651 1.363 . S
C650 C656 1.379 . S
C650 N658 1.356 . S
C651 C650 1.363 . S
C651 C657 1.363 . S
C652 C653 1.363 . S
C652 C657 1.379 . S
C652 N659 1.356 . S
C653 C652 1.363 . S
C653 C656 1.363 . S
N654 C656 1.356 . S
N654 H666 0.984 . S
N654 H667 0.985 . S
N655 C657 1.356 . S
N655 H660 0.984 . S
N655 H661 0.985 . S
C656 C650 1.379 . S
C656 C653 1.363 . S
C656 N654 1.356 . S
C657 C651 1.363 . S
C657 C652 1.379 . S
C657 N655 1.356 . S
N658 C650 1.356 . S
N658 H664 0.984 . S
N658 H665 0.984 . S
N659 C652 1.356 . S
N659 H662 0.984 . S
N659 H663 0.985 . S
H660 N655 0.984 . S
H661 N655 0.985 . S
H662 N659 0.984 . S
H663 N659 0.985 . S
H664 N658 0.984 . S
H665 N658 0.984 . S
H666 N654 0.984 . S
H667 N654 0.985 . S
C668 C669 1.363 . S
C668 C674 1.379 . S
C668 N676 1.356 . S
C669 C668 1.363 . S
C669 C675 1.363 1_556 S
C670 C671 1.363 . S
C670 C675 1.379 . S
C670 N677 1.356 . S
C671 C670 1.363 . S
C671 C674 1.363 1_554 S
N672 C674 1.356 . S
N672 H684 0.984 . S
N672 H685 0.985 . S
N673 C675 1.356 . S
N673 H678 0.984 . S
N673 H679 0.985 . S
C674 C668 1.379 . S
C674 C671 1.363 1_556 S
C674 N672 1.356 . S
C675 C669 1.363 1_554 S
C675 C670 1.379 . S
C675 N673 1.356 . S
N676 C668 1.356 . S
N676 H682 0.984 . S
N676 H683 0.984 . S
N677 C670 1.356 . S
N677 H680 0.984 . S
N677 H681 0.985 . S
H678 N673 0.984 . S
H679 N673 0.985 . S
H680 N677 0.984 . S
H681 N677 0.985 . S
H682 N676 0.984 . S
H683 N676 0.984 . S
H684 N672 0.984 . S
H685 N672 0.985 . S
C686 C687 1.363 . S
C686 C692 1.379 . S
C686 N694 1.356 . S
C687 C686 1.363 . S
C687 C693 1.363 . S
C688 C689 1.363 . S
C688 C693 1.379 . S
C688 N695 1.356 . S
C689 C688 1.363 . S
C689 C692 1.363 . S
N690 C692 1.356 . S
N690 H702 0.984 1_554 S
N690 H703 0.985 . S
N691 C693 1.356 . S
N691 H696 0.984 . S
N691 H697 0.985 . S
C692 C686 1.379 . S
C692 C689 1.363 . S
C692 N690 1.356 . S
C693 C687 1.363 . S
C693 C688 1.379 . S
C693 N691 1.356 . S
N694 C686 1.356 . S
N694 H700 0.984 . S
N694 H701 0.984 . S
N695 C688 1.356 . S
N695 H698 0.984 . S
N695 H699 0.985 . S
H696 N691 0.984 . S
H697 N691 0.985 . S
H698 N695 0.984 . S
H699 N695 0.985 . S
H700 N694 0.984 . S
H701 N694 0.984 . S
H702 N690 0.984 1_556 S
H703 N690 0.985 . S
C704 C705 1.363 . S
C704 C710 1.379 . S
C704 N712 1.356 . S
C705 C704 1.363 . S
C705 C711 1.363 . S
C706 C707 1.363 . S
C706 C711 1.379 . S
C706 N713 1.356 . S
C707 C706 1.363 . S
C707 C710 1.363 . S
N708 C710 1.356 . S
N708 H720 0.984 . S
N708 H721 0.985 . S
N709 C711 1.356 . S
N709 H714 0.984 . S
N709 H715 0.985 . S
C710 C704 1.379 . S
C710 C707 1.363 . S
C710 N708 1.356 . S
C711 C705 1.363 . S
C711 C706 1.379 . S
C711 N709 1.356 . S
N712 C704 1.356 . S
N712 H718 0.984 . S
N712 H719 0.984 . S
N713 C706 1.356 . S
N713 H716 0.984 . S
N713 H717 0.985 . S
H714 N709 0.984 . S
H715 N709 0.985 . S
H716 N713 0.984 . S
H717 N713 0.985 . S
H718 N712 0.984 . S
H719 N712 0.984 . S
H720 N708 0.984 . S
H721 N708 0.985 . S
C722 C723 1.363 . S
C722 C728 1.379 . S
C722 N730 1.356 . S
C723 C722 1.363 . S
C723 C729 1.363 . S
C724 C725 1.363 . S
C724 C729 1.379 . S
C724 N731 1.356 . S
C725 C724 1.363 . S
C725 C728 1.363 . S
N726 C728 1.356 . S
N726 H738 0.984 . S
N726 H739 0.985 . S
N727 C729 1.356 . S
N727 H732 0.984 . S
N727 H733 0.985 . S
C728 C722 1.379 . S
C728 C725 1.363 . S
C728 N726 1.356 . S
C729 C723 1.363 . S
C729 C724 1.379 . S
C729 N727 1.356 . S
N730 C722 1.356 . S
N730 H736 0.984 . S
N730 H737 0.984 . S
N731 C724 1.356 . S
N731 H734 0.984 . S
N731 H735 0.985 . S
H732 N727 0.984 . S
H733 N727 0.985 . S
H734 N731 0.984 . S
H735 N731 0.985 . S
H736 N730 0.984 . S
H737 N730 0.984 . S
H738 N726 0.984 . S
H739 N726 0.985 . S
C740 C741 1.363 . S
C740 C746 1.379 . S
C740 N748 1.356 . S
C741 C740 1.363 . S
C741 C747 1.363 . S
C742 C743 1.363 . S
C742 C747 1.379 . S
C742 N749 1.356 . S
C743 C742 1.363 . S
C743 C746 1.363 . S
N744 C746 1.356 . S
N744 H756 0.984 . S
N744 H757 0.985 . S
N745 C747 1.356 . S
N745 H750 0.984 . S
N745 H751 0.985 . S
C746 C740 1.379 . S
C746 C743 1.363 . S
C746 N744 1.356 . S
C747 C741 1.363 . S
C747 C742 1.379 . S
C747 N745 1.356 . S
N748 C740 1.356 . S
N748 H754 0.984 . S
N748 H755 0.984 . S
N749 C742 1.356 . S
N749 H752 0.984 . S
N749 H753 0.985 . S
H750 N745 0.984 . S
H751 N745 0.985 . S
H752 N749 0.984 . S
H753 N749 0.985 . S
H754 N748 0.984 . S
H755 N748 0.984 . S
H756 N744 0.984 . S
H757 N744 0.985 . S
C758 C759 1.363 . S
C758 C764 1.379 1_556 S
C758 N766 1.356 . S
C759 C758 1.363 . S
C759 C765 1.363 . S
C760 C761 1.363 . S
C760 C765 1.379 1_554 S
C760 N767 1.356 . S
C761 C760 1.363 . S
C761 C764 1.363 . S
N762 C764 1.356 . S
N762 H774 0.984 . S
N762 H775 0.985 . S
N763 C765 1.356 . S
N763 H768 0.984 . S
N763 H769 0.985 . S
C764 C758 1.379 1_554 S
C764 C761 1.363 . S
C764 N762 1.356 . S
C765 C759 1.363 . S
C765 C760 1.379 1_556 S
C765 N763 1.356 . S
N766 C758 1.356 . S
N766 H772 0.984 . S
N766 H773 0.984 . S
N767 C760 1.356 . S
N767 H770 0.984 . S
N767 H771 0.985 . S
H768 N763 0.984 . S
H769 N763 0.985 . S
H770 N767 0.984 . S
H771 N767 0.985 . S
H772 N766 0.984 . S
H773 N766 0.984 . S
H774 N762 0.984 . S
H775 N762 0.985 . S
C273 C15 1.671 . S
C275 C51 1.695 . S
C291 C85 1.639 1_455 S
C293 C56 1.564 . S
C309 C119 1.631 1_556 S
C311 C83 1.541 . S
C327 C17 1.745 1_655 S
C329 C117 1.771 . S
C345 C151 1.564 . S
C347 C255 1.639 1_545 S
C363 C192 1.671 . S
C365 C153 1.695 . S
C381 C187 1.745 1_565 S
C383 C219 1.771 . S
C399 C253 1.542 . S
C401 C221 1.631 1_554 S
C417 C173 2.595 . S
C419 C1 2.595 . S
C435 C205 2.416 . S
C437 C37 2.415 . S
C453 C69 2.613 . S
C455 C239 2.613 . S
C471 C137 2.416 . S
C473 C103 2.415 . S
C489 C28 1.205 . S
C491 C6 1.209 1_556 S
C507 C62 1.214 . S
C509 C40 1.208 . S
C525 C74 1.219 . S
C527 C96 1.220 . S
C543 C130 1.218 . S
C545 C108 1.217 . S
C561 C164 1.208 . S
C563 C142 1.214 . S
C579 C176 1.205 . S
C581 C198 1.209 1_554 S
C597 C210 1.217 . S
C599 C232 1.218 . S
C615 C266 1.220 . S
C617 C244 1.219 . S
C633 C171 1.437 . S
C635 C3 1.437 . S
C651 C207 1.527 . S
C653 C35 1.533 . S
C669 C71 1.352 . S
C671 C241 1.352 . S
C687 C139 1.532 . S
C689 C105 1.528 . S
C705 C22 1.580 . S
C707 C260 1.591 . S
C723 C158 1.502 . S
C725 C49 1.502 . S
C741 C185 1.580 . S
C743 C90 1.591 . S
C759 C124 1.924 . S
C761 C226 1.924 . S
