# Generated by pormake.
# Topology wne, (6)-cn, num edge types: 1
# Building blocks:
#     Node 0, Type 0, BuildingBlock: BETDAH_clean_sbu_0, # of connection points: 6
#     Node 1, Type 0, BuildingBlock: BETDAH_clean_sbu_0, # of connection points: 6
#     Node 2, Type 0, BuildingBlock: BETDAH_clean_sbu_0, # of connection points: 6
#     Node 3, Type 0, BuildingBlock: BETDAH_clean_sbu_0, # of connection points: 6
#     Node 4, Type 0, BuildingBlock: BETDAH_clean_sbu_0, # of connection points: 6
#     Node 5, Type 0, BuildingBlock: BETDAH_clean_sbu_0, # of connection points: 6
#     Node 6, Type 0, BuildingBlock: BETDAH_clean_sbu_0, # of connection points: 6
#     Node 7, Type 0, BuildingBlock: BETDAH_clean_sbu_0, # of connection points: 6
#     Node 8, Type 0, BuildingBlock: BETDAH_clean_sbu_0, # of connection points: 6
#     Node 9, Type 0, BuildingBlock: BETDAH_clean_sbu_0, # of connection points: 6
#     Node 10, Type 0, BuildingBlock: BETDAH_clean_sbu_0, # of connection points: 6
#     Node 11, Type 0, BuildingBlock: BETDAH_clean_sbu_0, # of connection points: 6
#     Node 12, Type 0, BuildingBlock: BETDAH_clean_sbu_0, # of connection points: 6
#     Node 13, Type 0, BuildingBlock: BETDAH_clean_sbu_0, # of connection points: 6
#     Node 14, Type 0, BuildingBlock: BETDAH_clean_sbu_0, # of connection points: 6
#     Node 15, Type 0, BuildingBlock: BETDAH_clean_sbu_0, # of connection points: 6
#     Node 16, Type 0, BuildingBlock: BETDAH_clean_sbu_0, # of connection points: 6
#     Node 17, Type 0, BuildingBlock: BETDAH_clean_sbu_0, # of connection points: 6
#     Node 18, Type 0, BuildingBlock: BETDAH_clean_sbu_0, # of connection points: 6
#     Node 19, Type 0, BuildingBlock: BETDAH_clean_sbu_0, # of connection points: 6
#     Node 20, Type 0, BuildingBlock: BETDAH_clean_sbu_0, # of connection points: 6
#     Node 21, Type 0, BuildingBlock: BETDAH_clean_sbu_0, # of connection points: 6
#     Node 22, Type 0, BuildingBlock: BETDAH_clean_sbu_0, # of connection points: 6
#     Node 23, Type 0, BuildingBlock: BETDAH_clean_sbu_0, # of connection points: 6
#     Node 24, Type 0, BuildingBlock: BETDAH_clean_sbu_0, # of connection points: 6
#     Node 25, Type 0, BuildingBlock: BETDAH_clean_sbu_0, # of connection points: 6
#     Node 26, Type 0, BuildingBlock: BETDAH_clean_sbu_0, # of connection points: 6
#     Node 27, Type 0, BuildingBlock: BETDAH_clean_sbu_0, # of connection points: 6
#     Node 28, Type 0, BuildingBlock: BETDAH_clean_sbu_0, # of connection points: 6
#     Node 29, Type 0, BuildingBlock: BETDAH_clean_sbu_0, # of connection points: 6
#     Node 30, Type 0, BuildingBlock: BETDAH_clean_sbu_0, # of connection points: 6
#     Node 31, Type 0, BuildingBlock: BETDAH_clean_sbu_0, # of connection points: 6
#     Node 32, Type 0, BuildingBlock: BETDAH_clean_sbu_0, # of connection points: 6
#     Node 33, Type 0, BuildingBlock: BETDAH_clean_sbu_0, # of connection points: 6
#     Node 34, Type 0, BuildingBlock: BETDAH_clean_sbu_0, # of connection points: 6
#     Node 35, Type 0, BuildingBlock: BETDAH_clean_sbu_0, # of connection points: 6
#     Edge 36, Type (0, 0), BuildingBlock: CIFDUS_clean_linker_0, # of connection points: 2
#     Edge 37, Type (0, 0), BuildingBlock: CIFDUS_clean_linker_0, # of connection points: 2
#     Edge 38, Type (0, 0), BuildingBlock: CIFDUS_clean_linker_0, # of connection points: 2
#     Edge 39, Type (0, 0), BuildingBlock: CIFDUS_clean_linker_0, # of connection points: 2
#     Edge 40, Type (0, 0), BuildingBlock: CIFDUS_clean_linker_0, # of connection points: 2
#     Edge 41, Type (0, 0), BuildingBlock: CIFDUS_clean_linker_0, # of connection points: 2
#     Edge 42, Type (0, 0), BuildingBlock: CIFDUS_clean_linker_0, # of connection points: 2
#     Edge 43, Type (0, 0), BuildingBlock: CIFDUS_clean_linker_0, # of connection points: 2
#     Edge 44, Type (0, 0), BuildingBlock: CIFDUS_clean_linker_0, # of connection points: 2
#     Edge 45, Type (0, 0), BuildingBlock: CIFDUS_clean_linker_0, # of connection points: 2
#     Edge 46, Type (0, 0), BuildingBlock: CIFDUS_clean_linker_0, # of connection points: 2
#     Edge 47, Type (0, 0), BuildingBlock: CIFDUS_clean_linker_0, # of connection points: 2
#     Edge 48, Type (0, 0), BuildingBlock: CIFDUS_clean_linker_0, # of connection points: 2
#     Edge 49, Type (0, 0), BuildingBlock: CIFDUS_clean_linker_0, # of connection points: 2
#     Edge 50, Type (0, 0), BuildingBlock: CIFDUS_clean_linker_0, # of connection points: 2
#     Edge 51, Type (0, 0), BuildingBlock: CIFDUS_clean_linker_0, # of connection points: 2
#     Edge 52, Type (0, 0), BuildingBlock: CIFDUS_clean_linker_0, # of connection points: 2
#     Edge 53, Type (0, 0), BuildingBlock: CIFDUS_clean_linker_0, # of connection points: 2
#     Edge 54, Type (0, 0), BuildingBlock: CIFDUS_clean_linker_0, # of connection points: 2
#     Edge 55, Type (0, 0), BuildingBlock: CIFDUS_clean_linker_0, # of connection points: 2
#     Edge 56, Type (0, 0), BuildingBlock: CIFDUS_clean_linker_0, # of connection points: 2
#     Edge 57, Type (0, 0), BuildingBlock: CIFDUS_clean_linker_0, # of connection points: 2
#     Edge 58, Type (0, 0), BuildingBlock: CIFDUS_clean_linker_0, # of connection points: 2
#     Edge 59, Type (0, 0), BuildingBlock: CIFDUS_clean_linker_0, # of connection points: 2
#     Edge 60, Type (0, 0), BuildingBlock: CIFDUS_clean_linker_0, # of connection points: 2
#     Edge 61, Type (0, 0), BuildingBlock: CIFDUS_clean_linker_0, # of connection points: 2
#     Edge 62, Type (0, 0), BuildingBlock: CIFDUS_clean_linker_0, # of connection points: 2
#     Edge 63, Type (0, 0), BuildingBlock: CIFDUS_clean_linker_0, # of connection points: 2
#     Edge 64, Type (0, 0), BuildingBlock: CIFDUS_clean_linker_0, # of connection points: 2
#     Edge 65, Type (0, 0), BuildingBlock: CIFDUS_clean_linker_0, # of connection points: 2
#     Edge 66, Type (0, 0), BuildingBlock: CIFDUS_clean_linker_0, # of connection points: 2
#     Edge 67, Type (0, 0), BuildingBlock: CIFDUS_clean_linker_0, # of connection points: 2
#     Edge 68, Type (0, 0), BuildingBlock: CIFDUS_clean_linker_0, # of connection points: 2
#     Edge 69, Type (0, 0), BuildingBlock: CIFDUS_clean_linker_0, # of connection points: 2
#     Edge 70, Type (0, 0), BuildingBlock: CIFDUS_clean_linker_0, # of connection points: 2
#     Edge 71, Type (0, 0), BuildingBlock: CIFDUS_clean_linker_0, # of connection points: 2
#     Edge 72, Type (0, 0), BuildingBlock: CIFDUS_clean_linker_0, # of connection points: 2
#     Edge 73, Type (0, 0), BuildingBlock: CIFDUS_clean_linker_0, # of connection points: 2
#     Edge 74, Type (0, 0), BuildingBlock: CIFDUS_clean_linker_0, # of connection points: 2
#     Edge 75, Type (0, 0), BuildingBlock: CIFDUS_clean_linker_0, # of connection points: 2
#     Edge 76, Type (0, 0), BuildingBlock: CIFDUS_clean_linker_0, # of connection points: 2
#     Edge 77, Type (0, 0), BuildingBlock: CIFDUS_clean_linker_0, # of connection points: 2
#     Edge 78, Type (0, 0), BuildingBlock: CIFDUS_clean_linker_0, # of connection points: 2
#     Edge 79, Type (0, 0), BuildingBlock: CIFDUS_clean_linker_0, # of connection points: 2
#     Edge 80, Type (0, 0), BuildingBlock: CIFDUS_clean_linker_0, # of connection points: 2
#     Edge 81, Type (0, 0), BuildingBlock: CIFDUS_clean_linker_0, # of connection points: 2
#     Edge 82, Type (0, 0), BuildingBlock: CIFDUS_clean_linker_0, # of connection points: 2
#     Edge 83, Type (0, 0), BuildingBlock: CIFDUS_clean_linker_0, # of connection points: 2
#     Edge 84, Type (0, 0), BuildingBlock: CIFDUS_clean_linker_0, # of connection points: 2
#     Edge 85, Type (0, 0), BuildingBlock: CIFDUS_clean_linker_0, # of connection points: 2
#     Edge 86, Type (0, 0), BuildingBlock: CIFDUS_clean_linker_0, # of connection points: 2
#     Edge 87, Type (0, 0), BuildingBlock: CIFDUS_clean_linker_0, # of connection points: 2
#     Edge 88, Type (0, 0), BuildingBlock: CIFDUS_clean_linker_0, # of connection points: 2
#     Edge 89, Type (0, 0), BuildingBlock: CIFDUS_clean_linker_0, # of connection points: 2
#     Edge 90, Type (0, 0), BuildingBlock: CIFDUS_clean_linker_0, # of connection points: 2
#     Edge 91, Type (0, 0), BuildingBlock: CIFDUS_clean_linker_0, # of connection points: 2
#     Edge 92, Type (0, 0), BuildingBlock: CIFDUS_clean_linker_0, # of connection points: 2
#     Edge 93, Type (0, 0), BuildingBlock: CIFDUS_clean_linker_0, # of connection points: 2
#     Edge 94, Type (0, 0), BuildingBlock: CIFDUS_clean_linker_0, # of connection points: 2
#     Edge 95, Type (0, 0), BuildingBlock: CIFDUS_clean_linker_0, # of connection points: 2
#     Edge 96, Type (0, 0), BuildingBlock: CIFDUS_clean_linker_0, # of connection points: 2
#     Edge 97, Type (0, 0), BuildingBlock: CIFDUS_clean_linker_0, # of connection points: 2
#     Edge 98, Type (0, 0), BuildingBlock: CIFDUS_clean_linker_0, # of connection points: 2
#     Edge 99, Type (0, 0), BuildingBlock: CIFDUS_clean_linker_0, # of connection points: 2
#     Edge 100, Type (0, 0), BuildingBlock: CIFDUS_clean_linker_0, # of connection points: 2
#     Edge 101, Type (0, 0), BuildingBlock: CIFDUS_clean_linker_0, # of connection points: 2
#     Edge 102, Type (0, 0), BuildingBlock: CIFDUS_clean_linker_0, # of connection points: 2
#     Edge 103, Type (0, 0), BuildingBlock: CIFDUS_clean_linker_0, # of connection points: 2
#     Edge 104, Type (0, 0), BuildingBlock: CIFDUS_clean_linker_0, # of connection points: 2
#     Edge 105, Type (0, 0), BuildingBlock: CIFDUS_clean_linker_0, # of connection points: 2
#     Edge 106, Type (0, 0), BuildingBlock: CIFDUS_clean_linker_0, # of connection points: 2
#     Edge 107, Type (0, 0), BuildingBlock: CIFDUS_clean_linker_0, # of connection points: 2
#     Edge 108, Type (0, 0), BuildingBlock: CIFDUS_clean_linker_0, # of connection points: 2
#     Edge 109, Type (0, 0), BuildingBlock: CIFDUS_clean_linker_0, # of connection points: 2
#     Edge 110, Type (0, 0), BuildingBlock: CIFDUS_clean_linker_0, # of connection points: 2
#     Edge 111, Type (0, 0), BuildingBlock: CIFDUS_clean_linker_0, # of connection points: 2
#     Edge 112, Type (0, 0), BuildingBlock: CIFDUS_clean_linker_0, # of connection points: 2
#     Edge 113, Type (0, 0), BuildingBlock: CIFDUS_clean_linker_0, # of connection points: 2
#     Edge 114, Type (0, 0), BuildingBlock: CIFDUS_clean_linker_0, # of connection points: 2
#     Edge 115, Type (0, 0), BuildingBlock: CIFDUS_clean_linker_0, # of connection points: 2
#     Edge 116, Type (0, 0), BuildingBlock: CIFDUS_clean_linker_0, # of connection points: 2
#     Edge 117, Type (0, 0), BuildingBlock: CIFDUS_clean_linker_0, # of connection points: 2
#     Edge 118, Type (0, 0), BuildingBlock: CIFDUS_clean_linker_0, # of connection points: 2
#     Edge 119, Type (0, 0), BuildingBlock: CIFDUS_clean_linker_0, # of connection points: 2
#     Edge 120, Type (0, 0), BuildingBlock: CIFDUS_clean_linker_0, # of connection points: 2
#     Edge 121, Type (0, 0), BuildingBlock: CIFDUS_clean_linker_0, # of connection points: 2
#     Edge 122, Type (0, 0), BuildingBlock: CIFDUS_clean_linker_0, # of connection points: 2
#     Edge 123, Type (0, 0), BuildingBlock: CIFDUS_clean_linker_0, # of connection points: 2
#     Edge 124, Type (0, 0), BuildingBlock: CIFDUS_clean_linker_0, # of connection points: 2
#     Edge 125, Type (0, 0), BuildingBlock: CIFDUS_clean_linker_0, # of connection points: 2
#     Edge 126, Type (0, 0), BuildingBlock: CIFDUS_clean_linker_0, # of connection points: 2
#     Edge 127, Type (0, 0), BuildingBlock: CIFDUS_clean_linker_0, # of connection points: 2
#     Edge 128, Type (0, 0), BuildingBlock: CIFDUS_clean_linker_0, # of connection points: 2
#     Edge 129, Type (0, 0), BuildingBlock: CIFDUS_clean_linker_0, # of connection points: 2
#     Edge 130, Type (0, 0), BuildingBlock: CIFDUS_clean_linker_0, # of connection points: 2
#     Edge 131, Type (0, 0), BuildingBlock: CIFDUS_clean_linker_0, # of connection points: 2
#     Edge 132, Type (0, 0), BuildingBlock: CIFDUS_clean_linker_0, # of connection points: 2
#     Edge 133, Type (0, 0), BuildingBlock: CIFDUS_clean_linker_0, # of connection points: 2
#     Edge 134, Type (0, 0), BuildingBlock: CIFDUS_clean_linker_0, # of connection points: 2
#     Edge 135, Type (0, 0), BuildingBlock: CIFDUS_clean_linker_0, # of connection points: 2
#     Edge 136, Type (0, 0), BuildingBlock: CIFDUS_clean_linker_0, # of connection points: 2
#     Edge 137, Type (0, 0), BuildingBlock: CIFDUS_clean_linker_0, # of connection points: 2
#     Edge 138, Type (0, 0), BuildingBlock: CIFDUS_clean_linker_0, # of connection points: 2
#     Edge 139, Type (0, 0), BuildingBlock: CIFDUS_clean_linker_0, # of connection points: 2
#     Edge 140, Type (0, 0), BuildingBlock: CIFDUS_clean_linker_0, # of connection points: 2
#     Edge 141, Type (0, 0), BuildingBlock: CIFDUS_clean_linker_0, # of connection points: 2
#     Edge 142, Type (0, 0), BuildingBlock: CIFDUS_clean_linker_0, # of connection points: 2
#     Edge 143, Type (0, 0), BuildingBlock: CIFDUS_clean_linker_0, # of connection points: 2
# Relax obj value: 0.416
# Max RMSD: 0.263
# Mean RMSD: 0.263
data_MOF--net-wne--node1-BETDAH_clean_sbu_0--edge1-CIFDUS_clean_linker_0
_symmetry_space_group_name_H-M    P1
_symmetry_Int_Tables_number       1
_symmetry_cell_setting            triclinic
loop_
_symmetry_equiv_pos_as_xyz
'x, y, z'
_cell_length_a     78.045415
_cell_length_b     77.963004
_cell_length_c     27.348175
_cell_angle_alpha  89.917415
_cell_angle_beta   90.111408
_cell_angle_gamma 120.19979
loop_
_atom_site_label
_atom_site_type_symbol
_atom_site_fract_x
_atom_site_fract_y
_atom_site_fract_z
_atom_type_partial_charge
Ho0 Ho 0.30006 0.20836 0.08775 0.0
Ho1 Ho 0.32801 0.24731 0.11941 0.0
C2 C 0.34016 0.2147 0.14353 0.0
C3 C 0.27956 0.17075 0.06123 0.0
C4 C 0.27804 0.15066 0.05507 0.0
C5 C 0.28753 0.1464 0.01694 0.0
C6 C 0.28356 0.12676 1.00837 0.0
C7 C 0.2697 0.11057 0.03705 0.0
C8 C 0.26064 0.11504 0.07576 0.0
C9 C 0.2647 0.13459 0.08451 0.0
C10 C 0.28686 0.22249 0.16529 0.0
C11 C 0.28942 0.23997 0.05148 0.0
C12 C 0.34364 0.28211 0.15865 0.0
C13 C 0.33604 0.29561 0.16745 0.0
C14 C 0.3158 0.28915 0.16103 0.0
C15 C 0.30951 0.30301 0.15627 0.0
C16 C 0.32334 0.32335 0.15969 0.0
C17 C 0.34313 0.32951 0.17175 0.0
C18 C 0.3495 0.31576 0.17458 0.0
C19 C 0.34341 0.23892 0.03884 0.0
O20 O 0.3249 0.20353 0.11491 0.0
O21 O 0.34367 0.23259 0.15604 0.0
O22 O 0.27972 0.17723 0.10534 0.0
O23 O 0.29027 0.18537 0.03121 0.0
O24 O 0.27636 0.21249 0.12795 0.0
O25 O 0.30365 0.22361 0.16053 0.0
O26 O 0.30306 0.25126 0.08436 0.0
O27 O 0.28746 0.22266 0.03957 0.0
O28 O 0.34568 0.27917 0.11255 0.0
O29 O 0.33552 0.26571 0.18409 0.0
O30 O 0.35296 0.24788 0.07812 0.0
O31 O 0.32501 0.23399 0.04438 0.0
H32 H 0.29767 0.15816 0.99283 0.0
H33 H 0.29085 0.12418 0.97798 0.0
H34 H 0.25014 0.10333 0.09945 0.0
H35 H 0.25686 0.13703 0.11382 0.0
H36 H 0.30514 0.27357 0.15606 0.0
H37 H 0.29425 0.29797 0.14641 0.0
H38 H 0.35415 0.34516 0.17362 0.0
H39 H 0.36518 0.32103 0.1787 0.0
Ho40 Ho 0.87717 0.11366 0.09439 0.0
Ho41 Ho 0.83283 0.09829 0.11717 0.0
C42 C 0.86508 0.14395 0.14883 0.0
C43 C 0.914 0.13257 0.06287 0.0
C44 C 0.93262 0.15193 0.049 0.0
C45 C 0.93733 0.15803 0.99987 0.0
C46 C 0.95588 0.17457 0.98665 0.0
C47 C 0.97074 0.18572 0.02187 0.0
C48 C 0.96593 0.17963 0.07107 0.0
C49 C 0.94735 0.16315 0.08428 0.0
C50 C 0.8632 0.08587 0.17334 0.0
C51 C 0.84489 0.06832 0.06313 0.0
C52 C 0.79962 0.08141 0.16188 0.0
C53 C 0.78643 0.05979 0.16699 0.0
C54 C 0.78488 0.05025 0.21178 0.0
C55 C 0.77417 1.02951 0.21485 0.0
C56 C 0.7649 1.01793 0.17319 0.0
C57 C 0.76674 1.02769 0.12845 0.0
C58 C 0.7773 0.04823 0.12542 0.0
C59 C 0.84268 0.11573 0.02685 0.0
O60 O 0.87925 0.14126 0.12993 0.0
O61 O 0.84634 0.12926 0.14976 0.0
O62 O 0.90879 0.12959 0.10898 0.0
O63 O 0.89851 0.12411 0.03354 0.0
O64 O 0.8813 0.09544 0.15715 0.0
O65 O 0.85511 0.09333 0.14777 0.0
O66 O 0.83199 0.07036 0.09063 0.0
O67 O 0.86258 0.08403 0.05232 0.0
O68 O 0.80162 0.08856 0.11751 0.0
O69 O 0.81653 0.08875 0.18517 0.0
O70 O 0.82606 0.10002 0.03877 0.0
O71 O 0.85414 0.12141 0.06487 0.0
H72 H 0.92681 0.14969 0.9712 0.0
H73 H 0.95874 0.17825 0.94824 0.0
H74 H 0.97654 0.18765 0.0998 0.0
H75 H 0.94472 0.15892 0.12246 0.0
H76 H 0.79214 0.05882 0.24423 0.0
H77 H 0.77307 1.02255 0.24977 0.0
H78 H 0.75929 1.0196 0.09564 0.0
H79 H 0.77832 0.05497 0.09009 0.0
Ho80 Ho 0.97256 0.78576 0.09235 0.0
Ho81 Ho 0.98715 0.75656 0.1155 0.0
C82 C 0.94153 0.74455 0.14819 0.0
C83 C 0.95396 0.80363 0.05889 0.0
C84 C 0.93436 0.80227 0.04588 0.0
C85 C 0.92757 0.79981 0.99715 0.0
C86 C 0.91075 0.80125 0.98427 0.0
C87 C 0.90004 0.80543 0.01947 0.0
C88 C 0.90677 0.80769 0.06831 0.0
C89 C 0.92354 0.80617 0.08119 0.0
C90 C 1.001 0.80026 0.17004 0.0
C91 C 1.01661 0.79833 0.05741 0.0
C92 C 1.00235 0.73872 0.16268 0.0
C93 C 1.02317 0.74632 0.17596 0.0
C94 C 1.02926 0.73422 0.19875 0.0
C95 C 1.0495 0.74067 0.20282 0.0
C96 C 0.06381 0.75923 0.18346 0.0
C97 C 0.05756 0.7719 0.16468 0.0
C98 C 1.03744 0.76537 0.16062 0.0
C99 C 0.96915 0.74818 0.02597 0.0
O100 O 0.94568 0.76227 0.13246 0.0
O101 O 0.95505 0.73886 0.14542 0.0
O102 O 0.95772 0.80256 0.1051 0.0
O103 O 0.96168 0.79567 0.03048 0.0
O104 O 0.99156 0.80882 0.15334 0.0
O105 O 0.9934 0.78447 0.1452 0.0
O106 O 1.01527 0.78415 0.08715 0.0
O107 O 1.00055 0.79937 0.04636 0.0
O108 O 0.99885 0.73668 0.1156 0.0
O109 O 0.9938 0.74742 0.18436 0.0
O110 O 0.98477 0.74718 0.03784 0.0
O111 O 0.96378 0.75441 0.0637 0.0
H112 H 0.93559 0.79727 0.96849 0.0
H113 H 0.90651 0.79967 0.94611 0.0
H114 H 0.89907 0.81065 0.09699 0.0
H115 H 0.92829 0.80853 0.11902 0.0
H116 H 1.01842 0.71934 0.21021 0.0
H117 H 0.0538 0.73037 0.2168 0.0
H118 H 0.06814 0.78611 0.14899 0.0
H119 H 1.033 0.77461 0.14197 0.0
Ho120 Ho 0.22331 0.2844 0.42809 0.0
Ho121 Ho 0.26668 0.31511 0.40266 0.0
C122 C 0.23204 0.3259 0.37522 0.0
C123 C 0.18672 0.26528 0.46116 0.0
C124 C 0.16739 0.26511 0.47044 0.0
C125 C 0.16231 0.26942 0.5166 0.0
C126 C 0.143 0.26621 0.5261 0.0
C127 C 0.1279 0.25819 0.49012 0.0
C128 C 0.13324 0.25441 0.44376 0.0
C129 C 0.15245 0.25779 0.43418 0.0
C130 C 0.23735 0.27107 0.34881 0.0
C131 C 0.25684 0.27371 0.45817 0.0
C132 C 0.29817 0.33391 0.35024 0.0
C133 C 0.31012 0.32595 0.32996 0.0
C134 C 0.32913 0.33846 0.31144 0.0
C135 C 0.34202 0.33111 0.30439 0.0
C136 C 0.33607 0.31132 0.31683 0.0
C137 C 0.3163 0.29842 0.3299 0.0
C138 C 0.30345 0.30572 0.33622 0.0
C139 C 0.25711 0.32271 0.4934 0.0
O140 O 0.21886 0.30766 0.38941 0.0
O141 O 0.25137 0.33225 0.37732 0.0
O142 O 0.19187 0.26545 0.41559 0.0
O143 O 0.20228 0.27496 0.48978 0.0
O144 O 0.21953 0.26169 0.3667 0.0
O145 O 0.24522 0.28697 0.37329 0.0
O146 O 0.26889 0.2885 0.42864 0.0
O147 O 0.23924 0.27125 0.47082 0.0
O148 O 0.29837 0.33483 0.39812 0.0
O149 O 0.28026 0.32614 0.33209 0.0
O150 O 0.27376 0.32385 0.48108 0.0
O151 O 0.24548 0.31613 0.45571 0.0
H152 H 0.1731 0.27473 0.54596 0.0
H153 H 0.13967 0.26925 0.56239 0.0
H154 H 0.12238 0.24852 0.41459 0.0
H155 H 0.15537 0.25396 0.39833 0.0
H156 H 0.3345 0.35413 0.30616 0.0
H157 H 0.35728 0.34147 0.29467 0.0
H158 H 0.31148 0.28329 0.34048 0.0
H159 H 0.28881 0.296 0.35043 0.0
Ho160 Ho 0.798 0.95767 0.43007 0.0
Ho161 Ho 0.77102 0.97169 0.4073 0.0
C162 C 0.7547 0.92553 0.38239 0.0
C163 C 0.8168 0.93871 0.45478 0.0
C164 C 0.81685 0.91963 0.46719 0.0
C165 C 0.8106 0.91019 0.51307 0.0
C166 C 0.81303 0.89392 0.52622 0.0
C167 C 0.82199 0.88636 0.49436 0.0
C168 C 0.8282 0.89585 0.44841 0.0
C169 C 0.82569 0.91207 0.43521 0.0
C170 C 0.81117 0.98589 0.35358 0.0
C171 C 0.81205 1.00268 0.46107 0.0
C172 C 0.75238 0.98649 0.36209 0.0
C173 C 0.76001 1.00738 0.34978 0.0
C174 C 0.78052 1.02086 0.35226 0.0
C175 C 0.78773 0.04125 0.35198 0.0
C176 C 0.7745 0.04834 0.34821 0.0
C177 C 0.75419 1.03484 0.34073 0.0
C178 C 0.74695 1.01445 0.34225 0.0
C179 C 0.76424 0.95752 0.50127 0.0
O180 O 0.77267 0.92924 0.3954 0.0
O181 O 0.75024 0.93977 0.38531 0.0
O182 O 0.81369 0.94207 0.40961 0.0
O183 O 0.80996 0.9465 0.48624 0.0
O184 O 0.82232 0.98447 0.38664 0.0
O185 O 0.79385 0.9713 0.36148 0.0
O186 O 0.79813 1.00049 0.42989 0.0
O187 O 0.81286 0.98669 0.47485 0.0
O188 O 0.75043 0.98262 0.40883 0.0
O189 O 0.76094 0.97808 0.33961 0.0
O190 O 0.76587 0.97412 0.48681 0.0
O191 O 0.76809 0.9496 0.46477 0.0
H192 H 0.80415 0.91562 0.5395 0.0
H193 H 0.80826 0.88759 0.5623 0.0
H194 H 0.83498 0.89069 0.4222 0.0
H195 H 0.8311 0.91902 0.39992 0.0
H196 H 0.79086 1.01567 0.35757 0.0
H197 H 0.80338 0.05138 0.35829 0.0
H198 H 0.74366 0.04002 0.33866 0.0
H199 H 0.7311 1.00427 0.34041 0.0
Ho200 Ho 0.12752 0.86094 0.43149 0.0
Ho201 Ho 0.11668 0.8217 0.40171 0.0
C202 C 0.16194 0.85534 0.37889 0.0
C203 C 0.14518 0.89804 0.46169 0.0
C204 C 0.16467 0.9168 0.47356 0.0
C205 C 0.17162 0.92152 0.52211 0.0
C206 C 0.18831 0.94006 0.53435 0.0
C207 C 0.19883 0.95489 0.49869 0.0
C208 C 0.19193 0.95009 0.44998 0.0
C209 C 0.17522 0.93149 0.43773 0.0
C210 C 0.09934 0.84652 0.35533 0.0
C211 C 0.08376 0.82716 0.46065 0.0
C212 C 0.10447 0.78964 0.35129 0.0
C213 C 0.08402 0.7745 0.33952 0.0
C214 C 0.06881 0.77917 0.34176 0.0
C215 C 1.04898 0.76408 0.3427 0.0
C216 C 1.04417 0.74419 0.34047 0.0
C217 C 0.05933 0.73969 0.33357 0.0
C218 C 0.07915 0.75474 0.33399 0.0
C219 C 0.13077 0.82691 0.4955 0.0
O220 O 0.156 0.86781 0.39226 0.0
O221 O 0.14937 0.83599 0.38121 0.0
O222 O 0.14095 0.89256 0.41599 0.0
O223 O 0.1383 0.88267 0.49109 0.0
O224 O 0.09986 0.8576 0.39124 0.0
O225 O 0.11471 0.84488 0.36041 0.0
O226 O 0.08681 0.81684 0.42685 0.0
O227 O 0.09908 0.84406 0.47655 0.0
O228 O 0.10896 0.7909 0.39759 0.0
O229 O 0.11076 0.80701 0.33148 0.0
O230 O 0.11445 0.8119 0.47951 0.0
O231 O 0.1379 0.8401 0.46129 0.0
H232 H 0.16381 0.91101 0.55119 0.0
H233 H 0.19258 0.94292 0.57245 0.0
H234 H 0.19945 0.9607 0.42095 0.0
H235 H 0.17033 0.9288 0.40002 0.0
H236 H 0.07228 0.79436 0.3465 0.0
H237 H 1.03754 0.76783 0.34884 0.0
H238 H 0.05597 0.72441 0.33275 0.0
H239 H 0.09067 0.75086 0.33291 0.0
Ho240 Ho 0.77313 0.82201 0.89998 0.0
Ho241 Ho 0.79958 0.86192 0.92968 0.0
C242 C 0.8126 0.83183 0.96604 0.0
C243 C 0.75874 0.78792 0.85769 0.0
C244 C 0.76784 0.77664 0.83996 0.0
C245 C 0.78801 0.78348 0.84856 0.0
C246 C 0.79543 0.77061 0.84349 0.0
C247 C 0.78267 0.75079 0.82984 0.0
C248 C 0.76332 0.74506 0.81401 0.0
C249 C 0.75589 0.75789 0.81952 0.0
C250 C 0.75679 0.82967 0.98019 0.0
C251 C 0.75847 0.85255 0.87494 0.0
C252 C 0.819 0.89983 0.95389 0.0
C253 C 0.81991 0.91958 0.96195 0.0
C254 C 0.81441 0.92461 1.00657 0.0
C255 C 0.81828 0.94418 0.01581 0.0
C256 C 0.82813 0.9596 0.98117 0.0
C257 C 0.83314 0.95435 0.93621 0.0
C258 C 0.82915 0.93485 0.92688 0.0
C259 C 0.8137 0.84814 0.85286 0.0
O260 O 0.79906 0.81982 0.93399 0.0
O261 O 0.81371 0.84885 0.97738 0.0
O262 O 0.759 0.79009 0.90516 0.0
O263 O 0.76374 0.80432 0.83415 0.0
O264 O 0.7474 0.81945 0.94205 0.0
O265 O 0.77549 0.83596 0.97427 0.0
O266 O 0.7729 0.86446 0.90484 0.0
O267 O 0.75704 0.83559 0.8617 0.0
O268 O 0.81732 0.89312 0.90934 0.0
O269 O 0.81025 0.88532 0.98551 0.0
O270 O 0.82416 0.85915 0.88908 0.0
O271 O 0.79658 0.84612 0.8582 0.0
H272 H 0.79759 0.79818 0.86296 0.0
H273 H 0.81041 0.77544 0.85558 0.0
H274 H 0.75308 0.72988 0.80331 0.0
H275 H 0.7404 0.75255 0.81173 0.0
H276 H 0.80761 0.91355 0.03508 0.0
H277 H 0.81423 0.94737 0.05105 0.0
H278 H 0.84043 0.96543 0.90796 0.0
H279 H 0.83394 0.93189 0.89235 0.0
Ho280 Ho 0.26933 0.97366 0.90879 0.0
Ho281 Ho 0.22479 0.95704 0.92743 0.0
C282 C 0.25562 1.0024 0.96164 0.0
C283 C 0.30386 0.98991 0.86828 0.0
C284 C 0.31857 1.01095 0.86102 0.0
C285 C 0.31411 1.02549 0.87573 0.0
C286 C 0.32896 0.04531 0.87908 0.0
C287 C 0.34864 0.05086 0.86846 0.0
C288 C 0.35277 0.03657 0.84917 0.0
C289 C 0.33779 1.01668 0.84563 0.0
C290 C 0.25821 0.95439 0.9973 0.0
C291 C 0.23793 0.92764 0.87432 0.0
C292 C 0.18792 0.93778 0.95852 0.0
C293 C 0.16932 0.91845 0.9724 0.0
C294 C 0.16552 0.91121 0.02082 0.0
C295 C 0.14702 0.89466 0.03434 0.0
C296 C 0.13135 0.88475 1.00021 0.0
C297 C 0.13527 0.89198 0.95172 0.0
C298 C 0.15379 0.90842 0.93819 0.0
C299 C 0.23838 0.98481 0.84863 0.0
O300 O 0.26907 1.00101 0.93507 0.0
O301 O 0.238 0.98635 0.97057 0.0
O302 O 0.30072 0.98429 0.91405 0.0
O303 O 0.2874 0.98325 0.84342 0.0
O304 O 0.27401 0.97142 0.98885 0.0
O305 O 0.24779 0.9493 0.95759 0.0
O306 O 0.22333 0.9299 0.8918 0.0
O307 O 0.25661 0.94264 0.87516 0.0
O308 O 0.19319 0.94072 0.91244 0.0
O309 O 0.20336 0.94632 0.98798 0.0
O310 O 0.22018 0.97439 0.86376 0.0
O311 O 0.24716 0.97832 0.87514 0.0
H312 H 0.29946 1.02136 0.88809 0.0
H313 H 0.32535 0.05599 0.89395 0.0
H314 H 0.36787 0.04035 0.84123 0.0
H315 H 0.3415 1.00564 0.83419 0.0
H316 H 0.17672 0.91861 0.04876 0.0
H317 H 0.14484 0.89002 0.07223 0.0
H318 H 0.124 0.88491 0.92381 0.0
H319 H 0.15575 0.91359 0.90073 0.0
Ho320 Ho 0.11438 0.31364 0.90624 0.0
Ho321 Ho 0.12896 0.28725 0.93405 0.0
C322 C 0.08511 0.27424 0.96895 0.0
C323 C 0.0991 0.33001 0.85314 0.0
C324 C 0.07858 0.3214 0.83596 0.0
C325 C 0.06485 0.30137 0.84571 0.0
C326 C 1.04453 0.29434 0.84245 0.0
C327 C 1.03779 0.30728 0.82889 0.0
C328 C 0.05162 0.32655 0.81273 0.0
C329 C 0.07194 0.33364 0.81678 0.0
C330 C 0.13048 0.32411 0.99837 0.0
C331 C 0.16077 0.32958 0.88247 0.0
C332 C 0.14794 0.26873 0.9603 0.0
C333 C 0.16718 0.26902 0.97088 0.0
C334 C 0.18325 0.28449 0.99627 0.0
C335 C 0.20032 0.28327 1.00839 0.0
C336 C 0.20197 0.26646 0.99602 0.0
C337 C 0.18584 0.25118 0.97003 0.0
C338 C 0.16891 0.25248 0.95775 0.0
C339 C 0.10023 0.27281 0.85871 0.0
O340 O 0.08604 0.28658 0.93429 0.0
O341 O 0.10173 0.27491 0.98328 0.0
O342 O 0.10134 0.33235 0.90042 0.0
O343 O 0.10896 0.32211 0.83497 0.0
O344 O 0.11482 0.32418 0.98262 0.0
O345 O 0.13705 0.31784 0.96357 0.0
O346 O 0.15724 0.31201 0.89839 0.0
O347 O 0.14638 0.33393 0.88295 0.0
O348 O 0.14353 0.27044 0.91504 0.0
O349 O 0.14132 0.27693 0.99111 0.0
O350 O 0.10133 0.26223 0.89385 0.0
O351 O 0.11507 0.29005 0.86481 0.0
H352 H 0.06974 0.29161 0.85985 0.0
H353 H 1.0342 0.27949 0.85529 0.0
H354 H 1.04682 0.33692 0.80259 0.0
H355 H 0.08233 0.3491 0.80891 0.0
H356 H 0.18259 0.29749 1.00717 0.0
H357 H 0.21227 0.29566 0.02752 0.0
H358 H 0.18591 0.23778 0.96015 0.0
H359 H 0.15682 0.24015 0.93867 0.0
Ho360 Ho 0.83359 0.7572 0.6136 0.0
Ho361 Ho 0.87864 0.78421 0.598 0.0
C362 C 0.85006 0.80019 0.55838 0.0
C363 C 0.79894 0.74068 0.65356 0.0
C364 C 0.7866 0.74958 0.66361 0.0
C365 C 0.76813 0.73891 0.68642 0.0
C366 C 0.75568 0.74701 0.68895 0.0
C367 C 0.76168 0.76598 0.66909 0.0
C368 C 0.78089 0.7771 0.65027 0.0
C369 C 0.79292 0.76879 0.64669 0.0
C370 C 0.84483 0.74802 0.52704 0.0
C371 C 0.86352 0.74093 0.65013 0.0
C372 C 0.91602 0.80177 0.57128 0.0
C373 C 0.93519 0.80176 0.56124 0.0
C374 C 0.941 0.79972 0.51367 0.0
C375 C 0.96035 0.80304 0.50416 0.0
C376 C 0.97474 0.80893 0.54167 0.0
C377 C 0.96865 0.81041 0.58929 0.0
C378 C 0.94938 0.8069 0.59882 0.0
C379 C 0.86455 0.7989 0.67473 0.0
O380 O 0.83596 0.78597 0.58549 0.0
O381 O 0.86699 0.80034 0.55041 0.0
O382 O 0.80175 0.73901 0.60707 0.0
O383 O 0.81539 0.74803 0.67883 0.0
O384 O 0.82879 0.74876 0.53479 0.0
O385 O 0.85523 0.75362 0.56686 0.0
O386 O 0.87862 0.75773 0.6334 0.0
O387 O 0.84504 0.73782 0.64833 0.0
O388 O 0.90982 0.79951 0.61656 0.0
O389 O 0.90123 0.79459 0.53984 0.0
O390 O 0.88291 0.80625 0.66163 0.0
O391 O 0.85594 0.7838 0.64753 0.0
H392 H 0.76292 0.724 0.69974 0.0
H393 H 0.74084 0.73774 0.70307 0.0
H394 H 0.78616 0.79174 0.63501 0.0
H395 H 0.80678 0.77703 0.62813 0.0
H396 H 0.93081 0.79617 0.48337 0.0
H397 H 0.96428 0.80181 0.46691 0.0
H398 H 0.97895 0.81461 0.61955 0.0
H399 H 0.94586 0.80897 0.63585 0.0
Ho400 Ho 0.32782 0.09918 0.61366 0.0
Ho401 Ho 0.30071 0.11199 0.5893 0.0
C402 C 0.2865 0.06959 0.55075 0.0
C403 C 0.34165 0.07667 0.64046 0.0
C404 C 0.33152 0.05481 0.64354 0.0
C405 C 0.33681 0.04538 0.67914 0.0
C406 C 0.32842 1.0247 0.6782 0.0
C407 C 0.31414 1.0131 0.64244 0.0
C408 C 0.30725 1.02256 0.61105 0.0
C409 C 0.31652 0.04312 0.60996 0.0
C410 C 0.34294 0.12395 0.53479 0.0
C411 C 0.34199 0.14401 0.64377 0.0
C412 C 0.28156 0.13084 0.56729 0.0
C413 C 0.28122 0.14997 0.55972 0.0
C414 C 0.28662 0.16044 0.5149 0.0
C415 C 0.28313 0.17636 0.50586 0.0
C416 C 0.2738 0.18223 0.54096 0.0
C417 C 0.26897 0.17208 0.5862 0.0
C418 C 0.27257 0.15633 0.5953 0.0
C419 C 0.28816 0.08423 0.66688 0.0
O420 O 0.30033 0.07132 0.58197 0.0
O421 O 0.28542 0.08548 0.54021 0.0
O422 O 0.3437 0.08391 0.59637 0.0
O423 O 0.33582 0.08537 0.67155 0.0
O424 O 0.3527 0.12389 0.57295 0.0
O425 O 0.32436 0.11089 0.54108 0.0
O426 O 0.32685 0.1409 0.61593 0.0
O427 O 0.34484 0.12895 0.65389 0.0
O428 O 0.28336 0.12558 0.61152 0.0
O429 O 0.28992 0.12503 0.53499 0.0
O430 O 0.27697 0.08474 0.63247 0.0
O431 O 0.30522 0.09936 0.6598 0.0
H432 H 0.34822 0.05406 0.70577 0.0
H433 H 0.33431 1.01813 0.7031 0.0
H434 H 0.29591 1.01425 0.584 0.0
H435 H 0.31269 0.04973 0.58059 0.0
H436 H 0.29298 0.15593 0.48602 0.0
H437 H 0.28701 0.18352 0.47042 0.0
H438 H 0.26208 0.17613 0.61477 0.0
H439 H 0.26789 0.14863 0.63 0.0
Ho440 Ho 0.98722 0.25193 0.61969 0.0
Ho441 Ho 0.97446 0.20871 0.59513 0.0
C442 C 1.01919 0.24208 0.56721 0.0
C443 C 1.00008 0.28483 0.66663 0.0
C444 C 1.02046 0.29938 0.6806 0.0
C445 C 1.03511 0.29403 0.6781 0.0
C446 C 0.05513 0.30853 0.6776 0.0
C447 C 0.0607 0.32862 0.68019 0.0
C448 C 1.04606 0.33382 0.68798 0.0
C449 C 1.02601 0.31928 0.68745 0.0
C450 C 0.97111 0.24293 0.52808 0.0
C451 C 0.94165 0.21732 0.64713 0.0
C452 C 0.95706 0.17183 0.56331 0.0
C453 C 0.9381 0.15205 0.55456 0.0
C454 C 0.92792 0.14676 0.50931 0.0
C455 C 0.91197 0.12717 0.50039 0.0
C456 C 0.90583 0.11198 0.536 0.0
C457 C 0.9158 0.1175 0.58141 0.0
C458 C 0.93148 0.13698 0.59043 0.0
C459 C 1.00136 0.2225 0.67579 0.0
O460 O 1.01632 0.25419 0.59604 0.0
O461 O 1.00396 0.22451 0.55396 0.0
O462 O 0.99702 0.28323 0.6194 0.0
O463 O 0.99241 0.26756 0.6884 0.0
O464 O 0.98699 0.25915 0.54126 0.0
O465 O 0.96518 0.23081 0.56506 0.0
O466 O 0.94656 0.20419 0.63237 0.0
O467 O 0.95485 0.23665 0.64596 0.0
O468 O 0.96205 0.17734 0.6087 0.0
O469 O 0.96275 0.1872 0.53412 0.0
O470 O 0.9927 0.20469 0.65782 0.0
O471 O 0.99382 0.23067 0.65064 0.0
H472 H 1.03093 0.27878 0.67199 0.0
H473 H 0.0661 0.30423 0.67056 0.0
H474 H 1.04999 0.34927 0.68917 0.0
H475 H 1.0149 0.3237 0.68891 0.0
H476 H 0.9326 0.15763 0.4802 0.0
H477 H 0.90493 0.12375 0.46479 0.0
H478 H 0.9116 0.10662 0.61034 0.0
H479 H 0.93888 0.14005 0.62555 0.0
Ho480 Ho 0.96786 0.54168 0.42766 0.0
Ho481 Ho 0.99577 0.58127 0.45138 0.0
C482 C 1.00834 0.54853 0.47913 0.0
C483 C 0.94729 0.50385 0.40371 0.0
C484 C 0.9463 0.48402 0.39691 0.0
C485 C 0.95402 0.47948 0.35536 0.0
C486 C 0.95038 0.45995 0.34683 0.0
C487 C 0.93859 0.44412 0.37905 0.0
C488 C 0.93133 0.44889 0.42109 0.0
C489 C 0.93509 0.46834 0.42975 0.0
C490 C 0.95451 0.55785 0.50087 0.0
C491 C 0.95751 0.57346 0.38801 0.0
C492 C 1.01563 0.61448 0.49756 0.0
C493 C 1.00992 0.62941 0.50693 0.0
C494 C 0.99002 0.62444 0.50127 0.0
C495 C 0.98508 0.63931 0.49888 0.0
C496 C 0.99994 0.65927 0.5031 0.0
C497 C 1.01952 0.66401 0.5134 0.0
C498 C 1.02453 0.64918 0.51443 0.0
C499 C 1.00477 0.57433 0.35959 0.0
O500 O 0.98979 0.53566 0.46754 0.0
O501 O 1.01488 0.56779 0.47417 0.0
O502 O 0.94863 0.51067 0.44804 0.0
O503 O 0.95671 0.51825 0.37209 0.0
O504 O 0.94391 0.54657 0.46513 0.0
O505 O 0.97136 0.55913 0.49658 0.0
O506 O 0.96994 0.58464 0.42286 0.0
O507 O 0.95734 0.557 0.37514 0.0
O508 O 1.01849 0.61231 0.45161 0.0
O509 O 1.00496 0.59752 0.51959 0.0
O510 O 1.00295 0.58935 0.37243 0.0
O511 O 0.99902 0.56197 0.3957 0.0
H512 H 0.96247 0.4909 0.32861 0.0
H513 H 0.9562 0.45712 0.31384 0.0
H514 H 0.92247 0.43747 0.44747 0.0
H515 H 0.92861 0.47098 0.46183 0.0
H516 H 0.9785 0.60919 0.49565 0.0
H517 H 0.96997 0.63536 0.49025 0.0
H518 H 1.03131 0.67936 0.51576 0.0
H519 H 1.03994 0.65325 0.51844 0.0
Ho520 Ho 0.54301 0.44517 0.43177 0.0
Ho521 Ho 0.50178 0.42943 0.45404 0.0
C522 C 0.5313 0.47589 0.48144 0.0
C523 C 0.58102 0.46447 0.40946 0.0
C524 C 0.60036 0.48325 0.39779 0.0
C525 C 0.61821 0.48283 0.39971 0.0
C526 C 0.63668 0.49964 0.38779 0.0
C527 C 0.63823 0.51778 0.37337 0.0
C528 C 0.62023 0.51821 0.37202 0.0
C529 C 0.60168 0.50128 0.38392 0.0
C530 C 0.52844 0.41605 0.50686 0.0
C531 C 0.51362 0.40137 0.39263 0.0
C532 C 0.46714 0.41314 0.49357 0.0
C533 C 0.45021 0.39301 0.48515 0.0
C534 C 0.44643 0.3773 0.51717 0.0
C535 C 0.43273 0.35765 0.50444 0.0
C536 C 0.4228 0.35354 0.4594 0.0
C537 C 0.42586 0.36938 0.42891 0.0
C538 C 0.43934 0.38882 0.4416 0.0
C539 C 0.50848 0.44346 0.36033 0.0
O540 O 0.54559 0.47344 0.46323 0.0
O541 O 0.51294 0.46065 0.48333 0.0
O542 O 0.57416 0.46134 0.45418 0.0
O543 O 0.56668 0.45693 0.37705 0.0
O544 O 0.54107 0.41822 0.47333 0.0
O545 O 0.52511 0.43027 0.49981 0.0
O546 O 0.50104 0.40158 0.42481 0.0
O547 O 0.52986 0.41832 0.38129 0.0
O548 O 0.47234 0.42555 0.45695 0.0
O549 O 0.48243 0.41385 0.51488 0.0
O550 O 0.49437 0.42622 0.37456 0.0
O551 O 0.52026 0.45204 0.39675 0.0
H552 H 0.61787 0.46924 0.40999 0.0
H553 H 0.64972 0.49814 0.38884 0.0
H554 H 0.62039 0.53172 0.36205 0.0
H555 H 0.58836 0.50231 0.38213 0.0
H556 H 0.45453 0.38015 0.55122 0.0
H557 H 0.43018 0.34573 0.52917 0.0
H558 H 0.41771 0.36675 0.39499 0.0
H559 H 0.44163 0.40051 0.41635 0.0
Ho560 Ho 0.63884 0.11741 0.42917 0.0
Ho561 Ho 0.65694 0.09069 0.44721 0.0
C562 C 0.61044 0.07461 0.48212 0.0
C563 C 0.61873 0.13419 0.39859 0.0
C564 C 0.5991 0.13281 0.38521 0.0
C565 C 0.59192 0.1296 0.33673 0.0
C566 C 0.57507 0.13103 0.32363 0.0
C567 C 0.56474 0.13596 0.35828 0.0
C568 C 0.57191 0.13901 0.40684 0.0
C569 C 0.58866 0.13748 0.41994 0.0
C570 C 0.66734 0.13243 0.50666 0.0
C571 C 0.68401 0.13336 0.39244 0.0
C572 C 0.67377 0.07342 0.48981 0.0
C573 C 0.69474 0.08103 0.50131 0.0
C574 C 0.70889 0.10021 0.48632 0.0
C575 C 0.72903 0.1066 0.48872 0.0
C576 C 0.73535 0.09354 0.50439 0.0
C577 C 0.72121 0.07494 0.52376 0.0
C578 C 0.70099 0.06871 0.52211 0.0
C579 C 0.63704 0.08152 0.35984 0.0
O580 O 0.61233 0.09146 0.46561 0.0
O581 O 0.62567 0.07132 0.48011 0.0
O582 O 0.62207 0.13212 0.44458 0.0
O583 O 0.62737 0.12755 0.36895 0.0
O584 O 0.65647 0.13981 0.49255 0.0
O585 O 0.66085 0.11723 0.47999 0.0
O586 O 0.68386 0.11932 0.42038 0.0
O587 O 0.66719 0.13336 0.38327 0.0
O588 O 0.66966 0.07173 0.44303 0.0
O589 O 0.66534 0.08172 0.51377 0.0
O590 O 0.65428 0.08324 0.36757 0.0
O591 O 0.63188 0.08673 0.39952 0.0
H592 H 0.59961 0.12645 0.3084 0.0
H593 H 0.57052 0.12881 0.28567 0.0
H594 H 0.56454 0.14259 0.43515 0.0
H595 H 0.59374 0.14047 0.4575 0.0
H596 H 0.70433 0.10966 0.46904 0.0
H597 H 0.7395 0.12098 0.4736 0.0
H598 H 0.72551 0.06438 0.53565 0.0
H599 H 0.69027 0.05381 0.5337 0.0
Ho600 Ho 0.89 0.61929 0.76328 0.0
Ho601 Ho 0.92932 0.64529 0.73822 0.0
C602 C 0.89994 0.66101 0.71084 0.0
C603 C 0.85194 0.5995 0.78479 0.0
C604 C 0.83233 0.59749 0.79973 0.0
C605 C 0.82041 0.58269 0.83375 0.0
C606 C 0.80094 0.57828 0.84448 0.0
C607 C 0.79245 0.58856 0.82185 0.0
C608 C 0.80463 0.60393 0.78891 0.0
C609 C 0.82418 0.6082 0.77766 0.0
C610 C 0.90428 0.6055 0.6864 0.0
C611 C 0.9188 0.6051 0.80209 0.0
C612 C 0.96418 0.65772 0.70419 0.0
C613 C 0.97429 0.64625 0.69614 0.0
C614 C 0.97744 0.64166 0.64857 0.0
C615 C 0.98804 0.63181 0.64118 0.0
C616 C 0.99621 0.62694 0.68113 0.0
C617 C 0.99095 0.62951 0.72867 0.0
C618 C 0.9802 0.6391 0.73604 0.0
C619 C 0.92109 0.66179 0.81683 0.0
O620 O 0.88796 0.64661 0.74079 0.0
O621 O 0.91682 0.66211 0.69797 0.0
O622 O 0.85899 0.60568 0.74093 0.0
O623 O 0.86606 0.60439 0.81698 0.0
O624 O 0.89289 0.5949 0.72179 0.0
O625 O 0.9063 0.62262 0.69191 0.0
O626 O 0.93124 0.61904 0.77159 0.0
O627 O 0.90172 0.60403 0.81168 0.0
O628 O 0.96095 0.6604 0.7497 0.0
O629 O 0.94895 0.65309 0.67595 0.0
O630 O 0.93146 0.67112 0.77882 0.0
O631 O 0.91479 0.643 0.81148 0.0
H632 H 0.826 0.574 0.85127 0.0
H633 H 0.79241 0.56658 0.87054 0.0
H634 H 0.79881 0.61221 0.77041 0.0
H635 H 0.83272 0.61959 0.75091 0.0
H636 H 0.97233 0.64629 0.61707 0.0
H637 H 0.99116 0.62942 0.60415 0.0
H638 H 0.99667 0.62595 0.76077 0.0
H639 H 0.97736 0.64166 0.77329 0.0
Ho640 Ho 0.4688 0.29005 0.7719 0.0
Ho641 Ho 0.44213 0.30304 0.73976 0.0
C642 C 0.42874 0.25702 0.71616 0.0
C643 C 0.48685 0.27126 0.80314 0.0
C644 C 0.48556 0.25157 0.81497 0.0
C645 C 0.48258 0.24432 0.86332 0.0
C646 C 0.48399 0.22745 0.87579 0.0
C647 C 0.48859 0.21708 0.84055 0.0
C648 C 0.49144 0.2243 0.79204 0.0
C649 C 0.48999 0.24118 0.77957 0.0
C650 C 0.48572 0.32025 0.70067 0.0
C651 C 0.47951 0.33315 0.80739 0.0
C652 C 0.42488 0.31666 0.68416 0.0
C653 C 0.43262 0.33708 0.66717 0.0
C654 C 0.45216 0.35153 0.67892 0.0
C655 C 0.45832 0.37162 0.67515 0.0
C656 C 0.44478 0.3775 0.66079 0.0
C657 C 0.42601 0.36304 0.64307 0.0
C658 C 0.41992 0.34288 0.64652 0.0
C659 C 0.43073 0.28727 0.83153 0.0
O660 O 0.44685 0.26225 0.73086 0.0
O661 O 0.42278 0.27025 0.71776 0.0
O662 O 0.48618 0.2758 0.75737 0.0
O663 O 0.4784 0.27825 0.83204 0.0
O664 O 0.49483 0.31774 0.73722 0.0
O665 O 0.4681 0.30541 0.70188 0.0
O666 O 0.46773 0.33199 0.77093 0.0
O667 O 0.47909 0.3167 0.82212 0.0
O668 O 0.42204 0.31434 0.73127 0.0
O669 O 0.43397 0.30774 0.66732 0.0
O670 O 0.43094 0.30299 0.81502 0.0
O671 O 0.4375 0.28066 0.79797 0.0
H672 H 0.47965 0.25202 0.89211 0.0
H673 H 0.48201 0.22291 0.91374 0.0
H674 H 0.49478 0.21688 0.76336 0.0
H675 H 0.49277 0.24633 0.74207 0.0
H676 H 0.46215 0.34731 0.69501 0.0
H677 H 0.47288 0.38243 0.6887 0.0
H678 H 0.41519 0.3671 0.63192 0.0
H679 H 0.40481 0.33191 0.63705 0.0
Ho680 Ho 0.79358 0.19535 0.76692 0.0
Ho681 Ho 0.7836 0.15664 0.73288 0.0
C682 C 0.82832 0.19014 0.71219 0.0
C683 C 0.81103 0.23273 0.79542 0.0
C684 C 0.83025 0.25243 0.80155 0.0
C685 C 0.8413 0.25783 0.84554 0.0
C686 C 0.85749 0.27735 0.85313 0.0
C687 C 0.86308 0.29237 0.81737 0.0
C688 C 0.8523 0.28673 0.773 0.0
C689 C 0.8363 0.26728 0.76534 0.0
C690 C 0.76667 0.18148 0.68831 0.0
C691 C 0.75065 0.16232 0.79813 0.0
C692 C 0.76554 0.12304 0.68762 0.0
C693 C 0.74495 0.11099 0.67118 0.0
C694 C 0.73143 0.11758 0.67907 0.0
C695 C 0.71108 0.10433 0.67574 0.0
C696 C 0.70411 0.08436 0.6643 0.0
C697 C 0.71778 0.07858 0.64975 0.0
C698 C 0.73812 0.09181 0.65358 0.0
C699 C 0.80657 0.16472 0.81524 0.0
O700 O 0.82364 0.20107 0.73976 0.0
O701 O 0.8144 0.17208 0.69945 0.0
O702 O 0.80458 0.22655 0.75115 0.0
O703 O 0.80663 0.21783 0.82499 0.0
O704 O 0.76624 0.19171 0.72512 0.0
O705 O 0.78238 0.18042 0.69368 0.0
O706 O 0.7544 0.15134 0.76753 0.0
O707 O 0.76509 0.18028 0.81028 0.0
O708 O 0.76795 0.12459 0.73509 0.0
O709 O 0.77594 0.14003 0.66533 0.0
O710 O 0.80742 0.15579 0.77628 0.0
O711 O 0.79304 0.16951 0.80881 0.0
H712 H 0.83708 0.24711 0.87488 0.0
H713 H 0.86511 0.28085 0.88798 0.0
H714 H 0.85607 0.29748 0.74394 0.0
H715 H 0.82821 0.26407 0.73118 0.0
H716 H 0.73648 0.1325 0.6916 0.0
H717 H 0.70087 0.10916 0.68699 0.0
H718 H 0.71286 0.06324 0.64098 0.0
H719 H 0.74839 0.08658 0.64665 0.0
Ho720 Ho 0.43965 0.15531 0.23506 0.0
Ho721 Ho 0.4675 0.19512 0.26419 0.0
C722 C 0.47738 0.16252 0.30137 0.0
C723 C 0.42164 0.12286 0.18512 0.0
C724 C 0.42734 0.10768 0.17934 0.0
C725 C 0.44714 0.11265 0.18708 0.0
C726 C 0.4519 0.0978 0.19431 0.0
C727 C 0.43695 0.07782 0.19266 0.0
C728 C 0.4175 0.0729 0.1803 0.0
C729 C 0.41267 0.08775 0.17443 0.0
C730 C 0.42985 0.16086 0.32751 0.0
C731 C 0.42653 0.18798 0.21208 0.0
C732 C 0.4876 0.2326 0.29128 0.0
C733 C 0.48759 0.25163 0.30229 0.0
C734 C 0.47046 0.25222 0.3156 0.0
C735 C 0.47149 0.27043 0.32768 0.0
C736 C 0.48969 0.28877 0.3271 0.0
C737 C 0.50669 0.28798 0.31303 0.0
C738 C 0.50563 0.26984 0.30092 0.0
C739 C 0.48144 0.18013 0.18993 0.0
O740 O 0.4651 0.15166 0.26582 0.0
O741 O 0.4776 0.17894 0.31518 0.0
O742 O 0.41648 0.12452 0.22938 0.0
O743 O 0.43362 0.14007 0.16553 0.0
O744 O 0.42984 0.14516 0.31183 0.0
O745 O 0.43643 0.17395 0.29316 0.0
O746 O 0.44447 0.20082 0.22843 0.0
O747 O 0.42073 0.16879 0.21103 0.0
O748 O 0.48557 0.2266 0.24591 0.0
O749 O 0.47892 0.21763 0.32171 0.0
O750 O 0.49174 0.19087 0.22663 0.0
O751 O 0.46458 0.17885 0.19369 0.0
H752 H 0.45868 0.12798 0.19114 0.0
H753 H 0.46691 0.10189 0.20444 0.0
H754 H 0.40566 0.05754 0.1798 0.0
H755 H 0.39729 0.08362 0.16935 0.0
H756 H 0.45627 0.2386 0.31692 0.0
H757 H 0.45786 0.27005 0.33729 0.0
H758 H 0.52108 0.30135 0.31253 0.0
H759 H 0.51916 0.27003 0.29109 0.0
Ho760 Ho 0.93414 0.30604 0.24301 0.0
Ho761 Ho 0.89339 0.29181 0.26441 0.0
C762 C 0.92394 0.33616 0.29975 0.0
C763 C 0.96965 0.32357 0.20977 0.0
C764 C 0.98554 0.34314 0.22705 0.0
C765 C 0.9891 0.3606 0.20282 0.0
C766 C 1.00042 0.37914 0.22517 0.0
C767 C 1.00829 0.38048 0.27212 0.0
C768 C 1.00559 0.36314 0.29502 0.0
C769 C 0.99442 0.34472 0.27277 0.0
C770 C 0.92665 0.29202 0.33726 0.0
C771 C 0.90445 0.26037 0.21408 0.0
C772 C 0.85539 0.27268 0.28719 0.0
C773 C 0.8364 0.25347 0.29984 0.0
C774 C 0.83344 0.24416 0.34584 0.0
C775 C 0.81483 0.22775 0.35923 0.0
C776 C 0.79819 0.21991 0.32747 0.0
C777 C 0.80125 0.22923 0.28135 0.0
C778 C 0.8199 0.24561 0.26792 0.0
C779 C 0.90871 0.32009 0.18781 0.0
O780 O 0.93598 0.33446 0.26883 0.0
O781 O 0.90692 0.32003 0.31154 0.0
O782 O 0.96324 0.30889 0.24102 0.0
O783 O 0.95512 0.32394 0.18715 0.0
O784 O 0.94102 0.30911 0.32324 0.0
O785 O 0.91507 0.28386 0.30053 0.0
O786 O 0.89044 0.26321 0.23299 0.0
O787 O 0.9229 0.27534 0.21157 0.0
O788 O 0.86215 0.27576 0.24233 0.0
O789 O 0.86984 0.28093 0.31921 0.0
O790 O 0.89647 0.3189 0.22135 0.0
O791 O 0.91115 0.30532 0.19536 0.0
H792 H 0.98241 0.35987 0.16755 0.0
H793 H 1.00265 0.39233 0.20629 0.0
H794 H 1.01219 0.36379 0.33036 0.0
H795 H 0.9921 0.33166 0.29246 0.0
H796 H 0.84542 0.24982 0.3722 0.0
H797 H 0.81343 0.22155 0.39542 0.0
H798 H 0.78922 0.22384 0.25519 0.0
H799 H 0.82128 0.25243 0.23253 0.0
Ho800 Ho 0.78328 0.64513 0.25554 0.0
Ho801 Ho 0.79566 0.61763 0.27283 0.0
C802 C 0.75265 0.6045 0.31228 0.0
C803 C 0.76885 0.66717 0.23282 0.0
C804 C 0.75395 0.66823 0.26345 0.0
C805 C 0.73784 0.65062 0.28192 0.0
C806 C 0.7272 0.6511 0.32221 0.0
C807 C 0.73224 0.66924 0.34443 0.0
C808 C 0.74744 0.68696 0.3237 0.0
C809 C 0.75827 0.68644 0.28378 0.0
C810 C 0.79742 0.65059 0.34915 0.0
C811 C 0.82839 0.65861 0.22172 0.0
C812 C 0.81351 0.59752 0.29433 0.0
C813 C 0.83281 0.59805 0.30483 0.0
C814 C 0.8493 0.61436 0.32671 0.0
C815 C 0.86658 0.61358 0.33886 0.0
C816 C 0.86802 0.59642 0.32986 0.0
C817 C 0.85149 0.58028 0.30723 0.0
C818 C 0.83431 0.58111 0.29501 0.0
C819 C 0.76711 0.60586 0.19725 0.0
O820 O 0.75406 0.61812 0.28094 0.0
O821 O 0.76896 0.60409 0.32332 0.0
O822 O 0.78614 0.67423 0.25371 0.0
O823 O 0.76314 0.65017 0.21144 0.0
O824 O 0.78015 0.64747 0.33628 0.0
O825 O 0.8053 0.64731 0.31172 0.0
O826 O 0.82412 0.64106 0.23846 0.0
O827 O 0.81453 0.66374 0.22228 0.0
O828 O 0.80989 0.60092 0.24975 0.0
O829 O 0.80647 0.60467 0.32685 0.0
O830 O 0.76801 0.59436 0.23017 0.0
O831 O 0.78223 0.62297 0.20454 0.0
H832 H 0.73409 0.63628 0.2671 0.0
H833 H 0.7155 0.63721 0.33688 0.0
H834 H 0.75121 0.70127 0.33876 0.0
H835 H 0.7707 0.70017 0.27051 0.0
H836 H 0.84879 0.62769 0.33485 0.0
H837 H 0.87886 0.62658 0.35531 0.0
H838 H 0.85147 0.56663 0.30005 0.0
H839 H 0.8219 0.56819 0.27857 0.0
Ho840 Ho 0.50393 0.08996 0.95999 0.0
Ho841 Ho 0.54401 0.11556 0.93231 0.0
C842 C 0.51337 0.1286 0.8965 0.0
C843 C 0.47241 0.07292 1.01363 0.0
C844 C 0.46013 0.081 0.03098 0.0
C845 C 0.44094 0.06828 0.04805 0.0
C846 C 0.4275 0.07508 0.05138 0.0
C847 C 0.43308 0.09453 0.0366 0.0
C848 C 0.45308 0.10793 0.02628 0.0
C849 C 0.46652 0.10115 0.0234 0.0
C850 C 0.50849 0.08045 0.86636 0.0
C851 C 0.53359 0.07321 0.9819 0.0
C852 C 0.58171 0.13439 0.90699 0.0
C853 C 0.60117 0.13475 0.89856 0.0
C854 C 0.60624 0.12988 0.85307 0.0
C855 C 0.62568 0.13341 0.84375 0.0
C856 C 0.64091 0.14229 0.8792 0.0
C857 C 0.63557 0.14657 0.92501 0.0
C858 C 0.61622 0.1429 0.93442 0.0
C859 C 0.5304 0.13069 1.00728 0.0
O860 O 0.50222 0.1167 0.93211 0.0
O861 O 0.52921 0.12774 0.88234 0.0
O862 O 0.47218 0.0705 0.96637 0.0
O863 O 0.49031 0.08145 0.03143 0.0
O864 O 0.49387 0.08229 0.88247 0.0
O865 O 0.52134 0.08511 0.90094 0.0
O866 O 0.54778 0.09102 0.96794 0.0
O867 O 0.51488 0.06885 0.98011 0.0
O868 O 0.57527 0.13295 0.95176 0.0
O869 O 0.56704 0.12587 0.87563 0.0
O870 O 0.5413 0.14076 0.97056 0.0
O871 O 0.5281 0.11346 1.0026 0.0
H872 H 0.43586 0.05274 0.05459 0.0
H873 H 0.41216 0.06439 0.05948 0.0
H874 H 0.45778 0.12299 0.01497 0.0
H875 H 0.48141 0.11122 1.01085 0.0
H876 H 0.59536 0.12392 0.82397 0.0
H877 H 0.62898 0.12995 0.80788 0.0
H878 H 0.64653 0.15313 0.95383 0.0
H879 H 0.61325 0.14717 0.96966 0.0
Ho880 Ho 0.99558 0.43407 0.95142 0.0
Ho881 Ho 0.96763 0.44567 0.92352 0.0
C882 C 0.95623 0.40167 0.89242 0.0
C883 C 1.01447 0.41948 0.99566 0.0
C884 C 1.01195 0.39959 0.98818 0.0
C885 C 1.00189 0.38452 0.02319 0.0
C886 C 0.9965 0.36486 1.01266 0.0
C887 C 1.00094 0.35999 0.96681 0.0
C888 C 1.01149 0.3752 0.93259 0.0
C889 C 1.01691 0.39471 0.94307 0.0
C890 C 1.00257 0.44636 0.85619 0.0
C891 C 1.00833 0.47953 0.97602 0.0
C892 C 0.94859 0.46397 0.89523 0.0
C893 C 0.94947 0.48355 0.88365 0.0
C894 C 0.95441 0.49218 0.83664 0.0
C895 C 0.95278 0.509 0.82442 0.0
C896 C 0.94597 0.51793 0.85846 0.0
C897 C 0.94115 0.50931 0.90561 0.0
C898 C 0.94284 0.49253 0.91785 0.0
C899 C 0.95426 0.41746 0.99962 0.0
O900 O 0.97029 0.40455 0.92412 0.0
O901 O 0.95442 0.41705 0.87863 0.0
O902 O 1.02213 0.43206 0.95945 0.0
O903 O 0.99912 0.41942 0.01457 0.0
O904 O 1.00089 0.43003 0.87309 0.0
O905 O 0.99812 0.45472 0.89057 0.0
O906 O 0.99037 0.47432 0.96015 0.0
O907 O 1.01424 0.46631 0.97641 0.0
O908 O 0.9503 0.45982 0.94072 0.0
O909 O 0.95647 0.45676 0.8651 0.0
O910 O 0.94338 0.41849 0.9652 0.0
O911 O 0.97134 0.43286 0.99448 0.0
H912 H 0.99771 0.38786 0.05811 0.0
H913 H 0.98866 0.35346 0.03995 0.0
H914 H 1.0158 0.37206 0.89759 0.0
H915 H 1.02457 0.40585 0.91513 0.0
H916 H 0.95913 0.48566 0.80862 0.0
H917 H 0.95639 0.51463 0.78743 0.0
H918 H 0.93607 0.51554 0.93349 0.0
H919 H 0.93851 0.48629 0.95419 0.0
Ho920 Ho 0.65571 0.5838 0.95817 0.0
Ho921 Ho 0.64014 0.54171 0.93542 0.0
C922 C 0.68385 0.57223 0.89608 0.0
C923 C 0.67286 0.61818 1.0005 0.0
C924 C 0.69389 0.63372 1.00045 0.0
C925 C 0.70813 0.62953 0.98184 0.0
C926 C 0.72773 0.64452 0.97577 0.0
C927 C 0.73343 0.66415 0.98757 0.0
C928 C 0.71944 0.66822 1.00903 0.0
C929 C 0.69976 0.65306 0.01537 0.0
C930 C 0.63913 0.57577 0.86643 0.0
C931 C 0.60967 0.55389 0.98734 0.0
C932 C 0.61988 0.50397 0.91038 0.0
C933 C 0.60036 0.48543 0.89705 0.0
C934 C 0.59349 0.48139 0.84831 0.0
C935 C 0.57691 0.46295 0.83469 0.0
C936 C 0.56641 0.44751 0.86904 0.0
C937 C 0.57324 0.45165 0.91795 0.0
C938 C 0.58983 0.47015 0.93157 0.0
C939 C 0.6701 0.55686 1.00772 0.0
O940 O 0.68302 0.58467 0.92736 0.0
O941 O 0.66755 0.5551 0.88602 0.0
O942 O 0.66392 0.61483 0.9583 0.0
O943 O 0.66885 0.60177 0.02272 0.0
O944 O 0.65549 0.59151 0.87926 0.0
O945 O 0.63254 0.56409 0.90359 0.0
O946 O 0.61247 0.53949 0.97077 0.0
O947 O 0.62451 0.57253 0.98705 0.0
O948 O 0.62325 0.51031 0.95568 0.0
O949 O 0.62845 0.51869 0.87909 0.0
O950 O 0.66654 0.54291 0.97668 0.0
O951 O 0.65581 0.56024 1.00227 0.0
H952 H 0.70404 0.61482 0.97003 0.0
H953 H 0.73816 0.64094 0.95929 0.0
H954 H 0.72334 0.6833 0.01777 0.0
H955 H 0.68899 0.65661 0.02973 0.0
H956 H 0.60127 0.49234 0.82007 0.0
H957 H 0.57274 0.46066 0.79648 0.0
H958 H 0.56575 0.44059 0.94609 0.0
H959 H 0.59471 0.47229 0.96931 0.0
Ho960 Ho 0.63629 0.87467 0.76428 0.0
Ho961 Ho 0.66341 0.91981 0.78088 0.0
C962 C 0.67949 0.88968 0.81574 0.0
C963 C 0.61795 0.83718 0.73806 0.0
C964 C 0.61585 0.81706 0.72792 0.0
C965 C 0.62537 0.81315 0.6892 0.0
C966 C 0.62119 0.79348 0.67917 0.0
C967 C 0.60704 0.77705 0.70679 0.0
C968 C 0.59789 0.78121 0.7458 0.0
C969 C 0.60225 0.80071 0.75615 0.0
C970 C 0.62199 0.88859 0.84208 0.0
C971 C 0.62069 0.90377 0.72674 0.0
C972 C 0.68063 0.95459 0.82042 0.0
C973 C 0.67351 0.96862 0.8274 0.0
C974 C 0.68617 0.98763 0.84587 0.0
C975 C 0.68065 1.00212 0.84334 0.0
C976 C 0.6624 0.99773 0.82206 0.0
C977 C 0.64903 0.97813 0.80807 0.0
C978 C 0.65465 0.96379 0.8103 0.0
C979 C 0.67131 0.90871 0.69235 0.0
O980 O 0.66276 0.87462 0.7987 0.0
O981 O 0.68263 0.90817 0.81476 0.0
O982 O 0.62054 0.84342 0.78332 0.0
O983 O 0.62574 0.85191 0.70643 0.0
O984 O 0.6143 0.87033 0.82767 0.0
O985 O 0.63712 0.89722 0.81515 0.0
O986 O 0.6348 0.91781 0.75425 0.0
O987 O 0.62054 0.88688 0.71785 0.0
O988 O 0.68317 0.95144 0.77475 0.0
O989 O 0.67146 0.93816 0.84577 0.0
O990 O 0.67043 0.92463 0.7013 0.0
O991 O 0.66653 0.89833 0.73219 0.0
H992 H 0.6358 0.82519 0.66618 0.0
H993 H 0.62854 0.79106 0.64866 0.0
H994 H 0.58712 0.76926 0.7685 0.0
H995 H 0.59445 0.80293 0.78597 0.0
H996 H 0.70079 0.99163 0.85924 0.0
H997 H 0.69142 1.01715 0.85392 0.0
H998 H 0.63487 0.97428 0.79179 0.0
H999 H 0.64472 0.94928 0.79568 0.0
Ho1000 Ho 0.2106 0.78011 0.76163 0.0
Ho1001 Ho 0.17083 0.76463 0.78502 0.0
C1002 C 0.19944 0.81111 0.81128 0.0
C1003 C 0.24851 0.79921 0.73826 0.0
C1004 C 0.26767 0.81787 0.72505 0.0
C1005 C 0.28483 0.8166 0.71693 0.0
C1006 C 0.30321 0.83347 0.70487 0.0
C1007 C 0.30531 0.85248 0.70024 0.0
C1008 C 0.288 0.85372 0.70857 0.0
C1009 C 0.26954 0.83676 0.72085 0.0
C1010 C 0.19717 0.7524 0.83997 0.0
C1011 C 0.18198 0.73565 0.7269 0.0
C1012 C 0.13517 0.7466 0.81711 0.0
C1013 C 0.11948 0.72739 0.79792 0.0
C1014 C 0.12183 0.71057 0.79885 0.0
C1015 C 0.10986 0.69404 0.76988 0.0
C1016 C 0.09551 0.69414 0.73929 0.0
C1017 C 0.09237 0.7104 0.74066 0.0
C1018 C 0.1042 0.72683 0.7698 0.0
C1019 C 0.17581 0.77789 0.69026 0.0
O1020 O 0.21346 0.80878 0.79093 0.0
O1021 O 0.18134 0.79557 0.81573 0.0
O1022 O 0.24182 0.79685 0.78301 0.0
O1023 O 0.23406 0.79103 0.70632 0.0
O1024 O 0.2085 0.75327 0.80439 0.0
O1025 O 0.19426 0.76684 0.83279 0.0
O1026 O 0.17014 0.73633 0.76033 0.0
O1027 O 0.19771 0.75257 0.7131 0.0
O1028 O 0.14159 0.76139 0.78636 0.0
O1029 O 0.14965 0.74625 0.84017 0.0
O1030 O 0.16412 0.7599 0.70514 0.0
O1031 O 0.18784 0.78697 0.72584 0.0
H1032 H 0.28403 0.80236 0.7198 0.0
H1033 H 0.31573 0.83142 0.69823 0.0
H1034 H 0.28869 0.86792 0.7062 0.0
H1035 H 0.25676 0.83843 0.72713 0.0
H1036 H 0.13356 0.71052 0.81996 0.0
H1037 H 0.1123 0.68153 0.76999 0.0
H1038 H 0.0809 0.71053 0.71851 0.0
H1039 H 0.10211 0.73955 0.76827 0.0
Ho1040 Ho 0.30521 0.44889 0.76093 0.0
Ho1041 Ho 0.32322 0.42205 0.77703 0.0
C1042 C 0.27711 0.40611 0.8141 0.0
C1043 C 0.28532 0.46591 0.73085 0.0
C1044 C 0.26583 0.46471 0.71723 0.0
C1045 C 0.25852 0.46114 0.66886 0.0
C1046 C 0.24183 0.46276 0.65546 0.0
C1047 C 0.23183 0.46826 0.68968 0.0
C1048 C 0.2391 0.47164 0.73814 0.0
C1049 C 0.2557 0.46992 0.75155 0.0
C1050 C 0.33354 0.46334 0.83868 0.0
C1051 C 0.35027 0.46493 0.72371 0.0
C1052 C 0.34031 0.40445 0.81647 0.0
C1053 C 0.36141 0.41153 0.82456 0.0
C1054 C 0.36751 0.39891 0.84433 0.0
C1055 C 0.38748 0.40421 0.84194 0.0
C1056 C 0.40145 0.42212 0.81938 0.0
C1057 C 0.39556 0.43563 0.80481 0.0
C1058 C 0.37566 0.43026 0.80698 0.0
C1059 C 0.30283 0.41337 0.68972 0.0
O1060 O 0.27889 0.42292 0.7976 0.0
O1061 O 0.29229 0.40278 0.81148 0.0
O1062 O 0.28845 0.46356 0.77681 0.0
O1063 O 0.29399 0.45937 0.70105 0.0
O1064 O 0.32289 0.47097 0.82456 0.0
O1065 O 0.32709 0.44829 0.81151 0.0
O1066 O 0.35012 0.45075 0.751 0.0
O1067 O 0.33348 0.46501 0.71499 0.0
O1068 O 0.335 0.40236 0.77045 0.0
O1069 O 0.33292 0.41338 0.84193 0.0
O1070 O 0.32027 0.41544 0.69674 0.0
O1071 O 0.29804 0.41835 0.73029 0.0
H1072 H 0.266 0.45756 0.64085 0.0
H1073 H 0.23714 0.46025 0.61759 0.0
H1074 H 0.23195 0.47564 0.76611 0.0
H1075 H 0.26091 0.47318 0.78898 0.0
H1076 H 0.35671 0.38442 0.85825 0.0
H1077 H 0.39154 0.3934 0.85324 0.0
H1078 H 0.40601 0.44956 0.78761 0.0
H1079 H 0.37127 0.44017 0.79155 0.0
Ho1080 Ho 0.5585 0.95299 0.09786 0.0
Ho1081 Ho 0.60045 0.97827 0.08153 0.0
C1082 C 0.57263 0.99623 0.04777 0.0
C1083 C 0.52052 0.9357 0.11977 0.0
C1084 C 0.50228 0.93707 0.13289 0.0
C1085 C 0.49866 0.94067 0.18128 0.0
C1086 C 0.48044 0.93917 0.19485 0.0
C1087 C 0.46486 0.93386 0.1608 0.0
C1088 C 0.4686 0.93043 0.11222 0.0
C1089 C 0.48686 0.93196 0.09865 0.0
C1090 C 0.5739 0.93985 0.0223 0.0
C1091 C 0.58603 0.93641 0.13571 0.0
C1092 C 0.63656 0.99485 0.05154 0.0
C1093 C 0.64941 0.98637 0.05962 0.0
C1094 C 0.66475 0.99 0.02734 0.0
C1095 C 0.67623 0.98105 0.03535 0.0
C1096 C 0.6721 0.96784 0.07494 0.0
C1097 C 0.65562 0.96313 0.10452 0.0
C1098 C 0.64494 0.97282 0.09802 0.0
C1099 C 0.59088 0.9867 0.1722 0.0
O1100 O 0.55767 0.97921 0.06368 0.0
O1101 O 0.59104 0.99942 0.0496 0.0
O1102 O 0.52742 0.93941 0.075 0.0
O1103 O 0.53476 0.94095 0.15201 0.0
O1104 O 0.56034 0.92855 0.05337 0.0
O1105 O 0.57752 0.95732 0.03163 0.0
O1106 O 0.59867 0.9493 0.10401 0.0
O1107 O 0.57025 0.93768 0.14791 0.0
O1108 O 0.63142 1.00063 0.09081 0.0
O1109 O 0.62146 0.98425 0.02317 0.0
O1110 O 0.60437 0.98206 0.16318 0.0
O1111 O 0.58067 0.98277 0.13267 0.0
H1112 H 0.50975 0.94417 0.20932 0.0
H1113 H 0.47844 0.94162 0.23282 0.0
H1114 H 0.45739 0.92653 0.08431 0.0
H1115 H 0.48872 0.92866 0.06124 0.0
H1116 H 0.66818 1.0001 0.99685 0.0
H1117 H 0.68894 0.98537 1.01198 0.0
H1118 H 0.65155 0.95273 0.13452 0.0
H1119 H 0.63338 0.96997 0.12392 0.0
Ho1120 Ho 0.13472 0.6255 0.10108 0.0
Ho1121 Ho 0.10894 0.6384 0.07164 0.0
C1122 C 0.09483 0.59259 0.04594 0.0
C1123 C 0.15372 0.6071 0.12853 0.0
C1124 C 0.15388 0.58781 0.13546 0.0
C1125 C 0.14882 0.57737 0.18033 0.0
C1126 C 0.15212 0.56125 0.1885 0.0
C1127 C 0.16095 0.55518 0.15245 0.0
C1128 C 0.16541 0.56531 0.10722 0.0
C1129 C 0.16198 0.58121 0.09896 0.0
C1130 C 0.15001 0.65424 0.0258 0.0
C1131 C 0.1468 0.66873 0.13733 0.0
C1132 C 0.0911 0.65365 0.02507 0.0
C1133 C 0.09481 0.67411 0.02923 0.0
C1134 C 0.10927 0.6895 0.99994 0.0
C1135 C 0.11565 0.70936 1.01078 0.0
C1136 C 0.10782 0.71399 0.05135 0.0
C1137 C 0.09254 0.69859 0.0785 0.0
C1138 C 0.08604 0.6789 0.06746 0.0
C1139 C 0.09849 0.62431 0.16519 0.0
O1140 O 0.11253 0.59732 0.06251 0.0
O1141 O 0.0894 0.60619 0.04601 0.0
O1142 O 0.15349 0.6131 0.08403 0.0
O1143 O 0.14406 0.61224 0.15875 0.0
O1144 O 0.15982 0.65355 0.06325 0.0
O1145 O 0.13285 0.63893 0.02915 0.0
O1146 O 0.13469 0.66756 0.10173 0.0
O1147 O 0.14636 0.65223 0.15136 0.0
O1148 O 0.08354 0.64234 0.0635 0.0
O1149 O 0.10557 0.65206 1.00629 0.0
O1150 O 0.10333 0.64199 0.14998 0.0
O1151 O 0.10353 0.61627 0.13102 0.0
H1152 H 0.14289 0.58205 0.20986 0.0
H1153 H 0.14854 0.5541 0.22396 0.0
H1154 H 0.17193 0.56113 0.078 0.0
H1155 H 0.16638 0.58884 0.06412 0.0
H1156 H 0.11618 0.68623 0.96983 0.0
H1157 H 0.12694 0.72104 0.98843 0.0
H1158 H 0.08563 0.70181 0.10873 0.0
H1159 H 0.07469 0.66748 0.09029 0.0
Ho1160 Ho 0.46064 0.52452 0.09799 0.0
Ho1161 Ho 0.44667 0.48319 0.07436 0.0
C1162 C 0.49286 0.5139 0.04973 0.0
C1163 C 0.4794 0.56246 0.12156 0.0
C1164 C 0.49826 0.58226 0.13073 0.0
C1165 C 0.5075 0.5878 0.17713 0.0
C1166 C 0.52319 0.60743 0.18669 0.0
C1167 C 0.53007 0.62246 0.15052 0.0
C1168 C 0.52108 0.61669 0.10391 0.0
C1169 C 0.50559 0.59713 0.09431 0.0
C1170 C 0.43226 0.50934 0.02203 0.0
C1171 C 0.41607 0.49317 0.13015 0.0
C1172 C 0.43252 0.45008 0.027 0.0
C1173 C 0.41224 0.43679 1.00962 0.0
C1174 C 0.39771 0.44218 0.01586 0.0
C1175 C 0.37765 0.42803 1.01112 0.0
C1176 C 0.37189 0.40826 1.00026 0.0
C1177 C 0.38659 0.40354 0.98812 0.0
C1178 C 0.40667 0.41772 0.99314 0.0
C1179 C 0.4624 0.4905 0.16723 0.0
O1180 O 0.48909 0.52803 0.0633 0.0
O1181 O 0.47866 0.49505 0.05198 0.0
O1182 O 0.47502 0.55566 0.0768 0.0
O1183 O 0.4728 0.54801 0.15377 0.0
O1184 O 0.43376 0.52192 0.05507 0.0
O1185 O 0.44682 0.50663 0.02968 0.0
O1186 O 0.41803 0.48148 0.09834 0.0
O1187 O 0.43213 0.50995 0.14402 0.0
O1188 O 0.43447 0.45137 0.07444 0.0
O1189 O 0.44187 0.46741 1.006 0.0
O1190 O 0.44616 0.47496 0.15296 0.0
O1191 O 0.4691 0.50269 0.1309 0.0
H1192 H 0.50223 0.5771 0.20668 0.0
H1193 H 0.5294 0.61099 0.22318 0.0
H1194 H 0.52588 0.62741 0.07447 0.0
H1195 H 0.49888 0.59382 0.05832 0.0
H1196 H 0.40176 0.45694 0.02796 0.0
H1197 H 0.36667 0.43211 0.02034 0.0
H1198 H 0.38264 0.3884 0.97989 0.0
H1199 H 0.41771 0.41337 0.98778 0.0
Ho1200 Ho 0.10449 0.48529 0.57478 0.0
Ho1201 Ho 0.1339 0.52861 0.59923 0.0
C1202 C 0.14555 0.49616 0.63252 0.0
C1203 C 0.08524 0.45269 0.5261 0.0
C1204 C 0.0916 0.43876 0.51087 0.0
C1205 C 0.11164 0.44435 0.51533 0.0
C1206 C 0.11738 0.43007 0.51469 0.0
C1207 C 0.10305 0.40998 0.50937 0.0
C1208 C 0.08329 0.4047 0.4992 0.0
C1209 C 0.07755 0.41901 0.50062 0.0
C1210 C 0.09584 0.49416 0.66465 0.0
C1211 C 0.09323 0.5195 0.5435 0.0
C1212 C 0.15242 0.56506 0.63365 0.0
C1213 C 0.15169 0.58368 0.64639 0.0
C1214 C 0.14847 0.58775 0.69464 0.0
C1215 C 0.15036 0.60624 0.7074 0.0
C1216 C 0.15579 0.62162 0.6726 0.0
C1217 C 0.15891 0.61744 0.62426 0.0
C1218 C 0.15692 0.59893 0.61149 0.0
C1219 C 0.14871 0.51515 0.52169 0.0
O1220 O 0.13156 0.48367 0.6017 0.0
O1221 O 0.14662 0.51321 0.64466 0.0
O1222 O 0.08374 0.45377 0.5735 0.0
O1223 O 0.09449 0.47018 0.50529 0.0
O1224 O 0.09577 0.47801 0.65259 0.0
O1225 O 0.10229 0.5062 0.62751 0.0
O1226 O 0.11116 0.5329 0.5585 0.0
O1227 O 0.08716 0.5002 0.54658 0.0
O1228 O 0.15155 0.56037 0.58744 0.0
O1229 O 0.14383 0.54919 0.66165 0.0
O1230 O 0.15729 0.53305 0.53926 0.0
O1231 O 0.1327 0.50672 0.54558 0.0
H1232 H 0.12246 0.45949 0.52402 0.0
H1233 H 0.13258 0.43444 0.52347 0.0
H1234 H 0.07188 0.38925 0.49573 0.0
H1235 H 0.06198 0.41442 0.49738 0.0
H1236 H 0.14491 0.57678 0.72306 0.0
H1237 H 0.14809 0.60863 0.74523 0.0
H1238 H 0.16286 0.6285 0.59588 0.0
H1239 H 0.15995 0.59676 0.57408 0.0
Ho1240 Ho 0.59943 0.63626 0.57646 0.0
Ho1241 Ho 0.55959 0.62362 0.60028 0.0
C1242 C 0.58943 0.66712 0.637 0.0
C1243 C 0.63562 0.65786 0.5489 0.0
C1244 C 0.64784 0.6795 0.55239 0.0
C1245 C 0.63942 0.69165 0.54547 0.0
C1246 C 0.64927 0.71126 0.56214 0.0
C1247 C 0.66746 0.71867 0.58609 0.0
C1248 C 0.67654 0.70706 0.58928 0.0
C1249 C 0.66678 0.68758 0.57265 0.0
C1250 C 0.58943 0.61157 0.65567 0.0
C1251 C 0.56938 0.59225 0.54413 0.0
C1252 C 0.52157 0.60443 0.62305 0.0
C1253 C 0.50261 0.58513 0.63472 0.0
C1254 C 0.49962 0.57534 0.68002 0.0
C1255 C 0.481 0.55884 0.6927 0.0
C1256 C 0.46441 0.55141 0.66089 0.0
C1257 C 0.46751 0.5612 0.61545 0.0
C1258 C 0.48616 0.57768 0.60273 0.0
C1259 C 0.57468 0.65138 0.52304 0.0
O1260 O 0.60218 0.66432 0.61119 0.0
O1261 O 0.5712 0.65214 0.64351 0.0
O1262 O 0.63067 0.64896 0.59122 0.0
O1263 O 0.62074 0.65093 0.51837 0.0
O1264 O 0.59901 0.6113 0.61743 0.0
O1265 O 0.58415 0.62473 0.64907 0.0
O1266 O 0.55733 0.59453 0.57399 0.0
O1267 O 0.58665 0.60789 0.53289 0.0
O1268 O 0.52834 0.60796 0.57827 0.0
O1269 O 0.53602 0.61219 0.65506 0.0
O1270 O 0.5628 0.65062 0.55709 0.0
O1271 O 0.57667 0.6363 0.52991 0.0
H1272 H 0.6247 0.68564 0.53033 0.0
H1273 H 0.64222 0.72016 0.55898 0.0
H1274 H 0.69081 0.71278 0.6071 0.0
H1275 H 0.67345 0.67846 0.57849 0.0
H1276 H 0.51158 0.58069 0.70638 0.0
H1277 H 0.47953 0.55223 0.7284 0.0
H1278 H 0.45549 0.55612 0.58932 0.0
H1279 H 0.48759 0.5849 0.56789 0.0
Ho1280 Ho 0.44761 0.98132 0.5798 0.0
Ho1281 Ho 0.46401 0.95362 0.59837 0.0
C1282 C 0.41909 0.93912 0.63425 0.0
C1283 C 0.43079 0.99862 0.53889 0.0
C1284 C 0.40932 0.99144 0.53735 0.0
C1285 C 0.39775 0.98109 0.49645 0.0
C1286 C 0.37704 0.97193 0.49825 0.0
C1287 C 0.3676 0.97273 0.54122 0.0
C1288 C 0.37936 0.98355 0.5814 0.0
C1289 C 0.39985 0.9928 0.57944 0.0
C1290 C 0.46532 0.98886 0.66976 0.0
C1291 C 0.49399 0.99646 0.54766 0.0
C1292 C 0.48175 0.93454 0.62857 0.0
C1293 C 0.50013 0.93434 0.64467 0.0
C1294 C 0.51942 0.95062 0.63852 0.0
C1295 C 0.5363 0.94904 0.64987 0.0
C1296 C 0.53449 0.93103 0.66704 0.0
C1297 C 0.5151 0.91484 0.67316 0.0
C1298 C 0.4983 0.9165 0.66232 0.0
C1299 C 0.43619 0.9395 0.51933 0.0
O1300 O 0.41974 0.95345 0.60643 0.0
O1301 O 0.43558 0.93856 0.64354 0.0
O1302 O 0.43914 1.00369 0.58207 0.0
O1303 O 0.43656 0.98807 0.51417 0.0
O1304 O 0.44854 0.98779 0.65926 0.0
O1305 O 0.47143 0.98399 0.63098 0.0
O1306 O 0.49168 0.97964 0.5656 0.0
O1307 O 0.47885 0.99986 0.54708 0.0
O1308 O 0.48074 0.93896 0.58287 0.0
O1309 O 0.4728 0.94081 0.65819 0.0
O1310 O 0.44649 0.93163 0.53432 0.0
O1311 O 0.44287 0.95466 0.54612 0.0
H1312 H 0.40466 0.97979 0.46344 0.0
H1313 H 0.36846 0.96428 0.46615 0.0
H1314 H 0.37283 0.98548 0.61432 0.0
H1315 H 0.40821 1.00077 0.61153 0.0
H1316 H 0.52146 0.9645 0.62424 0.0
H1317 H 0.55084 0.96188 0.64408 0.0
H1318 H 0.51282 0.9008 0.6868 0.0
H1319 H 0.48371 0.90358 0.66699 0.0
Ho1320 Ho 0.17313 0.425 0.29361 0.0
Ho1321 Ho 0.21171 0.45333 0.25903 0.0
C1322 C 0.17931 0.46393 0.22828 0.0
C1323 C 0.13993 0.41061 0.33997 0.0
C1324 C 0.1289 0.42022 0.35624 0.0
C1325 C 0.1368 0.44067 0.34897 0.0
C1326 C 0.12477 0.4491 0.35301 0.0
C1327 C 0.10462 0.43708 0.3643 0.0
C1328 C 0.09747 0.41712 0.37772 0.0
C1329 C 0.10953 0.40873 0.3734 0.0
C1330 C 0.1801 0.40968 0.21068 0.0
C1331 C 0.20586 0.41287 0.31299 0.0
C1332 C 0.24908 0.47299 0.23038 0.0
C1333 C 0.26864 0.47331 0.22377 0.0
C1334 C 0.27369 0.46739 0.17979 0.0
C1335 C 0.29305 0.47052 0.17175 0.0
C1336 C 0.3083 0.48001 0.20701 0.0
C1337 C 0.30301 0.48545 0.25135 0.0
C1338 C 0.28371 0.48221 0.25946 0.0
C1339 C 0.19847 0.46649 0.3385 0.0
O1340 O 0.16825 0.44914 0.2588 0.0
O1341 O 0.19715 0.46732 0.21604 0.0
O1342 O 0.14108 0.40931 0.29253 0.0
O1343 O 0.15691 0.41662 0.36173 0.0
O1344 O 0.17123 0.39993 0.24986 0.0
O1345 O 0.18548 0.42819 0.21721 0.0
O1346 O 0.2169 0.42855 0.28543 0.0
O1347 O 0.18796 0.40892 0.32612 0.0
O1348 O 0.24302 0.4732 0.27475 0.0
O1349 O 0.23409 0.4627 0.20086 0.0
O1350 O 0.20836 0.47714 0.30124 0.0
O1351 O 0.19733 0.44969 0.33282 0.0
H1352 H 0.15182 0.44983 0.33642 0.0
H1353 H 0.13068 0.46448 0.34261 0.0
H1354 H 0.08196 0.40734 0.3862 0.0
H1355 H 0.10325 0.39297 0.37971 0.0
H1356 H 0.26281 0.46082 0.15081 0.0
H1357 H 0.29626 0.46617 0.13693 0.0
H1358 H 0.31391 0.49247 0.28009 0.0
H1359 H 0.28078 0.48729 0.29358 0.0
Ho1360 Ho 0.66433 0.76297 0.28429 0.0
Ho1361 Ho 0.63514 0.77769 0.2605 0.0
C1362 C 0.62182 0.732 0.23296 0.0
C1363 C 0.68251 0.75086 0.34 0.0
C1364 C 0.67542 0.73321 0.37115 0.0
C1365 C 0.68061 0.73539 0.42077 0.0
C1366 C 0.67598 0.71873 0.44924 0.0
C1367 C 0.66665 0.69968 0.42802 0.0
C1368 C 0.65917 0.69755 0.38001 0.0
C1369 C 0.66351 0.71414 0.35193 0.0
C1370 C 0.6726 0.78014 0.19383 0.0
C1371 C 0.67782 0.80911 0.31234 0.0
C1372 C 0.61653 0.79576 0.22835 0.0
C1373 C 0.61685 0.81494 0.21542 0.0
C1374 C 0.62046 0.82266 0.16748 0.0
C1375 C 0.61827 0.8391 0.15484 0.0
C1376 C 0.61213 0.84847 0.18942 0.0
C1377 C 0.60856 0.84072 0.23739 0.0
C1378 C 0.61086 0.82436 0.25004 0.0
C1379 C 0.62161 0.75049 0.34062 0.0
O1380 O 0.63673 0.73441 0.26148 0.0
O1381 O 0.62008 0.74764 0.22002 0.0
O1382 O 0.68109 0.74801 0.29248 0.0
O1383 O 0.67727 0.76355 0.35439 0.0
O1384 O 0.67463 0.76527 0.20757 0.0
O1385 O 0.66601 0.78564 0.23059 0.0
O1386 O 0.66026 0.80574 0.29653 0.0
O1387 O 0.68242 0.79489 0.31075 0.0
O1388 O 0.61846 0.79252 0.27445 0.0
O1389 O 0.6243 0.78804 0.19922 0.0
O1390 O 0.61289 0.75972 0.32359 0.0
O1391 O 0.6371 0.75784 0.31494 0.0
H1392 H 0.68913 0.75002 0.43689 0.0
H1393 H 0.68144 0.72104 0.48639 0.0
H1394 H 0.65167 0.6833 0.36184 0.0
H1395 H 0.65849 0.712 0.31429 0.0
H1396 H 0.62461 0.81572 0.13922 0.0
H1397 H 0.62092 0.84414 0.11726 0.0
H1398 H 0.60405 0.84735 0.26559 0.0
H1399 H 0.60749 0.81881 0.28717 0.0
Ho1400 Ho 0.32109 0.91621 0.28454 0.0
Ho1401 Ho 0.30834 0.87601 0.26043 0.0
C1402 C 0.35134 0.90766 0.22295 0.0
C1403 C 0.33402 0.94888 0.33311 0.0
C1404 C 0.35408 0.96271 0.35071 0.0
C1405 C 0.35886 0.98159 0.36689 0.0
C1406 C 0.3787 0.99641 0.37143 0.0
C1407 C 0.39393 0.99254 0.3588 0.0
C1408 C 0.38902 0.97294 0.34863 0.0
C1409 C 0.36918 0.95811 0.34449 0.0
C1410 C 0.30419 0.90881 0.19271 0.0
C1411 C 0.27547 0.88383 0.31219 0.0
C1412 C 0.29009 0.83842 0.23382 0.0
C1413 C 0.27079 0.81938 0.22369 0.0
C1414 C 0.25387 0.81891 0.20388 0.0
C1415 C 0.23663 0.80066 0.19186 0.0
C1416 C 0.23561 0.7821 0.19882 0.0
C1417 C 0.25257 0.78278 0.2194 0.0
C1418 C 0.26971 0.80098 0.23154 0.0
C1419 C 0.3376 0.89167 0.33462 0.0
O1420 O 0.35024 0.91902 0.25745 0.0
O1421 O 0.33486 0.89133 0.20966 0.0
O1422 O 0.33213 0.94782 0.28564 0.0
O1423 O 0.32533 0.93142 0.35352 0.0
O1424 O 0.32103 0.92399 0.20548 0.0
O1425 O 0.29814 0.89686 0.22955 0.0
O1426 O 0.28078 0.8707 0.30081 0.0
O1427 O 0.28842 0.90303 0.30664 0.0
O1428 O 0.29476 0.84451 0.27899 0.0
O1429 O 0.29622 0.85335 0.20332 0.0
O1430 O 0.33648 0.87979 0.29997 0.0
O1431 O 0.32243 0.8935 0.32904 0.0
H1432 H 0.34735 0.98531 0.37219 0.0
H1433 H 0.382 1.0114 0.37914 0.0
H1434 H 0.40045 0.96955 0.33893 0.0
H1435 H 0.3657 0.9435 0.3324 0.0
H1436 H 0.25401 0.83268 0.19726 0.0
H1437 H 0.22404 0.8012 0.17711 0.0
H1438 H 0.25296 0.76924 0.22499 0.0
H1439 H 0.28243 0.80065 0.24631 0.0
H1440 H 0.29336 0.09531 1.00557 0.0
H1441 H 0.23283 0.07672 0.04291 0.0
H1442 H 0.22309 0.04226 0.02596 0.0
H1443 H 0.23137 1.01664 0.99829 0.0
H1444 H 0.29218 0.03581 0.96193 0.0
H1445 H 0.30175 0.06993 0.98023 0.0
C1446 C 0.27799 0.08381 1.00987 0.0
C1447 C 0.264 0.0891 0.02596 0.0
C1448 C 0.27235 0.06366 1.00007 0.0
C1449 C 0.2442 0.07352 0.03149 0.0
C1450 C 0.23851 0.0536 0.02147 0.0
C1451 C 0.24675 1.02821 0.99487 0.0
C1452 C 0.26088 1.02314 0.97834 0.0
C1453 C 0.25241 0.04835 1.00567 0.0
C1454 C 0.28073 0.03877 0.97406 0.0
C1455 C 0.28634 0.05855 0.98462 0.0
H1456 H 1.04757 0.26197 0.93137 0.0
H1457 H 0.07687 0.24856 0.04642 0.0
H1458 H 1.04495 0.22084 0.07303 0.0
H1459 H 1.00838 0.19945 0.06299 0.0
H1460 H 0.97927 0.21286 0.94723 0.0
H1461 H 1.01102 0.24085 0.92191 0.0
C1462 C 1.04705 0.25316 0.96264 0.0
C1463 C 0.06501 0.25781 0.98693 0.0
C1464 C 1.02842 0.23683 0.97761 0.0
C1465 C 0.06362 0.24572 0.02688 0.0
C1466 C 1.04521 0.22969 0.04216 0.0
C1467 C 1.0088 0.20852 0.03248 0.0
C1468 C 0.99088 0.20349 1.00727 0.0
C1469 C 1.02744 0.22497 0.01777 0.0
C1470 C 0.9924 0.21569 0.96731 0.0
C1471 C 1.01073 0.23199 0.95283 0.0
H1472 H 0.82313 0.80482 0.93135 0.0
H1473 H 0.83894 0.84997 0.04129 0.0
H1474 H 0.86654 0.84577 0.06762 0.0
H1475 H 0.88732 0.83022 0.05827 0.0
H1476 H 0.87175 0.78518 0.94802 0.0
H1477 H 0.84356 0.78863 0.92327 0.0
C1478 C 0.83241 0.81359 0.96151 0.0
C1479 C 0.82854 0.82765 0.98435 0.0
C1480 C 0.84871 0.81131 0.97631 0.0
C1481 C 0.84122 0.83899 0.02286 0.0
C1482 C 0.85717 0.83663 0.03799 0.0
C1483 C 0.87771 0.82093 0.02915 0.0
C1484 C 0.88216 0.80745 1.00524 0.0
C1485 C 0.86123 0.82295 0.01484 0.0
C1486 C 0.86932 0.79594 0.967 0.0
C1487 C 0.85293 0.7978 0.95287 0.0
H1488 H 1.03371 0.22177 0.51244 0.0
H1489 H 0.05342 0.27602 0.59333 0.0
H1490 H 0.08783 0.28546 0.57886 0.0
H1491 H 0.11322 0.27862 0.54356 0.0
H1492 H 0.09361 0.22484 0.46089 0.0
H1493 H 0.05911 0.21533 0.47542 0.0
C1494 C 1.04547 0.23574 0.52663 0.0
C1495 C 1.04046 0.24803 0.55411 0.0
C1496 C 0.06568 0.24133 0.51785 0.0
C1497 C 0.05634 0.26606 0.57204 0.0
C1498 C 0.07626 0.27155 0.56385 0.0
C1499 C 0.10145 0.26477 0.5288 0.0
C1500 C 0.10648 0.25263 0.50072 0.0
C1501 C 0.08124 0.25932 0.53697 0.0
C1502 C 0.09062 0.2348 0.48194 0.0
C1503 C 0.07068 0.22922 0.49046 0.0
H1504 H 0.85204 0.87793 0.47013 0.0
H1505 H 0.7975 0.85398 0.55194 0.0
H1506 H 0.80112 0.82606 0.57771 0.0
H1507 H 0.81966 0.80791 0.57841 0.0
H1508 H 0.87414 0.83139 0.49696 0.0
H1509 H 0.87042 0.85932 0.46984 0.0
C1510 C 0.84078 0.86659 0.49327 0.0
C1511 C 0.82451 0.86868 0.509 0.0
C1512 C 0.8429 0.85013 0.50825 0.0
C1513 C 0.81042 0.85351 0.53956 0.0
C1514 C 0.81239 0.83723 0.55423 0.0
C1515 C 0.83072 0.81899 0.55441 0.0
C1516 C 0.84718 0.81708 0.53981 0.0
C1517 C 0.82858 0.83533 0.53905 0.0
C1518 C 0.86128 0.83206 0.509 0.0
C1519 C 0.85915 0.8482 0.49341 0.0
H1520 H 0.21197 0.99248 0.45805 0.0
H1521 H 0.22687 0.96346 0.57105 0.0
H1522 H 0.25474 0.99534 0.59612 0.0
H1523 H 0.27496 1.03209 0.5881 0.0
H1524 H 0.26053 0.06108 0.47439 0.0
H1525 H 0.23297 1.02903 0.44802 0.0
C1526 C 0.22136 0.99294 0.48784 0.0
C1527 C 0.21673 0.97504 0.51253 0.0
C1528 C 0.23777 1.01163 0.50228 0.0
C1529 C 0.22936 0.9766 0.55152 0.0
C1530 C 0.24559 0.995 0.56586 0.0
C1531 C 0.26611 1.03143 0.55685 0.0
C1532 C 0.27035 0.04934 0.53299 0.0
C1533 C 0.24996 1.0127 0.54178 0.0
C1534 C 0.25799 0.04784 0.49357 0.0
C1535 C 0.24207 1.02937 0.47839 0.0
H1536 H 0.86592 0.05409 1.00899 0.0
H1537 H 0.81063 1.03401 0.08525 0.0
H1538 H 0.80087 0.99977 0.06826 0.0
H1539 H 0.80753 0.97453 0.03239 0.0
H1540 H 0.86238 0.99398 0.95507 0.0
H1541 H 0.87231 1.02854 0.97135 0.0
C1542 C 0.85167 0.04228 0.02162 0.0
C1543 C 0.83918 0.04721 0.04847 0.0
C1544 C 0.84585 1.02204 1.01149 0.0
C1545 C 0.82078 1.03125 0.0644 0.0
C1546 C 0.81508 1.01137 0.05479 0.0
C1547 C 0.82172 0.98625 0.01917 0.0
C1548 C 0.834 0.98114 0.99208 0.0
C1549 C 0.82745 1.00645 0.02855 0.0
C1550 C 0.85226 0.997 0.97525 0.0
C1551 C 0.85809 1.01699 0.98484 0.0
H1552 H 0.09336 0.87369 0.96622 0.0
H1553 H 0.12323 0.85528 0.06831 0.0
H1554 H 0.09138 0.8273 0.0936 0.0
H1555 H 0.0545 0.80763 0.08785 0.0
H1556 H 1.02474 0.82643 0.98653 0.0
H1557 H 0.05667 0.85393 0.95989 0.0
C1558 C 0.09308 0.86353 0.99368 0.0
C1559 C 0.11121 0.86709 0.01508 0.0
C1560 C 0.07443 0.84717 1.00838 0.0
C1561 C 0.10991 0.85353 0.05127 0.0
C1562 C 0.09153 0.83726 0.06569 0.0
C1563 C 0.05491 0.8176 0.05965 0.0
C1564 C 1.03679 0.81454 0.03932 0.0
C1565 C 0.0736 0.83386 0.04468 0.0
C1566 C 1.03809 0.82805 1.0031 0.0
C1567 C 0.05651 0.84396 0.98776 0.0
H1568 H 0.27657 0.26437 0.09244 0.0
H1569 H 0.26701 0.22653 0.96832 0.0
H1570 H 0.24021 0.23162 0.93991 0.0
H1571 H 0.2185 0.24596 0.95056 0.0
H1572 H 0.2266 0.28236 0.0771 0.0
H1573 H 0.25463 0.27892 0.10301 0.0
C1574 C 0.26886 0.25746 0.05874 0.0
C1575 C 0.27425 0.24516 0.03251 0.0
C1576 C 0.25289 0.26014 0.04278 0.0
C1577 C 0.26353 0.23611 0.98946 0.0
C1578 C 0.24803 0.23899 0.97312 0.0
C1579 C 0.22616 0.2531 0.98409 0.0
C1580 C 0.21992 0.26455 1.01126 0.0
C1581 C 0.24235 0.25079 0.99965 0.0
C1582 C 0.2308 0.27377 0.05423 0.0
C1583 C 0.24694 0.27167 0.06956 0.0
H1584 H 0.06903 0.84487 0.52428 0.0
H1585 H 1.04974 0.79516 0.42626 0.0
H1586 H 1.01529 0.78549 0.44073 0.0
H1587 H 0.98977 0.79096 0.48046 0.0
H1588 H 1.00879 0.84013 0.57993 0.0
H1589 H 1.04338 0.8498 0.56587 0.0
C1590 C 0.05733 0.83181 0.5064 0.0
C1591 C 0.06247 0.82085 0.4742 0.0
C1592 C 1.03708 0.82609 0.51506 0.0
C1593 C 1.04671 0.80402 0.45142 0.0
C1594 C 1.02676 0.79842 0.45954 0.0
C1595 C 1.00143 0.80384 0.49902 0.0
C1596 C 0.99622 0.81463 0.53159 0.0
C1597 C 1.02165 0.80936 0.49108 0.0
C1598 C 1.01193 0.8312 0.55526 0.0
C1599 C 1.03191 0.83687 0.54703 0.0
H1600 H 0.29442 0.21772 0.48869 0.0
H1601 H 0.23997 0.18252 0.56818 0.0
H1602 H 0.2302 0.20719 0.55191 0.0
H1603 H 0.2365 0.2389 0.51362 0.0
H1604 H 0.29122 0.27414 0.43497 0.0
H1605 H 0.30106 0.24967 0.45205 0.0
C1606 C 0.28036 0.21532 0.50241 0.0
C1607 C 0.26813 0.19799 0.53014 0.0
C1608 C 0.27471 0.22981 0.49298 0.0
C1609 C 0.25004 0.19563 0.54757 0.0
C1610 C 0.2443 0.2098 0.53797 0.0
C1611 C 0.25066 0.24137 0.50052 0.0
C1612 C 0.26297 0.25872 0.47292 0.0
C1613 C 0.25646 0.22702 0.5107 0.0
C1614 C 0.28125 0.26123 0.45637 0.0
C1615 C 0.28697 0.24708 0.46604 0.0
H1616 H 0.86996 0.09676 0.48523 0.0
H1617 H 0.90541 0.07775 0.56394 0.0
H1618 H 0.88027 0.04307 0.55017 0.0
H1619 H 0.84776 1.01723 0.51456 0.0
H1620 H 0.81233 0.03686 0.43773 0.0
H1621 H 0.83741 0.07123 0.45175 0.0
C1622 C 0.87232 0.0851 0.49928 0.0
C1623 C 0.8899 0.09038 0.52599 0.0
C1624 C 0.8575 0.06481 0.49155 0.0
C1625 C 0.89216 0.07461 0.54392 0.0
C1626 C 0.87769 0.05454 0.53583 0.0
C1627 C 0.84539 1.02897 0.50124 0.0
C1628 C 0.82775 1.02388 0.47488 0.0
C1629 C 0.86017 0.04931 0.50973 0.0
C1630 C 0.82545 0.03977 0.45799 0.0
C1631 C 0.83996 0.05972 0.46597 0.0
H1632 H 0.96137 0.42939 0.33818 0.0
H1633 H 0.90291 0.40979 0.39527 0.0
H1634 H 0.89337 0.37533 0.37897 0.0
H1635 H 0.90107 0.35 0.34622 0.0
H1636 H 0.95977 0.37005 0.28979 0.0
H1637 H 0.96936 0.40424 0.3079 0.0
C1638 C 0.94649 0.41766 0.34698 0.0
C1639 C 0.93304 0.42267 0.36837 0.0
C1640 C 0.94097 0.39751 0.33755 0.0
C1641 C 0.91389 0.40681 0.37962 0.0
C1642 C 0.9083 0.3869 0.36999 0.0
C1643 C 0.91603 0.36178 0.33837 0.0
C1644 C 0.92954 0.35697 0.31644 0.0
C1645 C 0.92166 0.38193 0.34888 0.0
C1646 C 0.94882 0.37285 0.30644 0.0
C1647 C 0.95442 0.39266 0.31675 0.0
H1648 H 0.71452 0.59527 0.28398 0.0
H1649 H 0.745 0.57644 0.38282 0.0
H1650 H 0.71328 0.54893 0.41055 0.0
H1651 H 0.67658 0.52938 0.40651 0.0
H1652 H 0.64594 0.54742 0.30575 0.0
H1653 H 0.67751 0.57567 0.28039 0.0
C1654 C 0.71429 0.58529 0.31193 0.0
C1655 C 0.73257 0.58832 0.33114 0.0
C1656 C 0.6957 0.56906 0.32772 0.0
C1657 C 0.73153 0.57483 0.36707 0.0
C1658 C 0.71323 0.55892 0.38304 0.0
C1659 C 0.67661 0.5393 0.3787 0.0
C1660 C 0.65825 0.53576 0.35863 0.0
C1661 C 0.69515 0.5557 0.36346 0.0
C1662 C 0.6593 0.54945 0.3231 0.0
C1663 C 0.67758 0.56573 0.30805 0.0
H1664 H 0.48707 0.13426 0.27052 0.0
H1665 H 0.5042 0.18143 0.37541 0.0
H1666 H 0.53178 0.17736 0.40238 0.0
H1667 H 0.5524 0.16152 0.39461 0.0
H1668 H 0.53581 0.11476 0.28872 0.0
H1669 H 0.50748 0.11794 0.26375 0.0
C1670 C 0.49673 0.14363 0.29948 0.0
C1671 C 0.4932 0.15823 0.32059 0.0
C1672 C 0.51312 0.14148 0.31452 0.0
C1673 C 0.50619 0.17006 0.35815 0.0
C1674 C 0.52217 0.16778 0.37363 0.0
C1675 C 0.54256 0.15181 0.36639 0.0
C1676 C 0.54678 0.13791 0.3438 0.0
C1677 C 0.52599 0.15369 0.35186 0.0
C1678 C 0.53358 0.12585 0.30669 0.0
C1679 C 0.51711 0.12755 0.29244 0.0
H1680 H 0.7753 0.61215 0.83566 0.0
H1681 H 0.76027 0.55088 0.82985 0.0
H1682 H 0.72574 0.54024 0.84826 0.0
H1683 H 0.69928 0.54805 0.86955 0.0
H1684 H 0.71482 0.6094 0.87893 0.0
H1685 H 0.74886 0.61994 0.85552 0.0
C1686 C 0.76449 0.59645 0.83797 0.0
C1687 C 0.77084 0.58246 0.83146 0.0
C1688 C 0.74435 0.59028 0.84932 0.0
C1689 C 0.75626 0.56217 0.83526 0.0
C1690 C 0.7363 0.55599 0.84562 0.0
C1691 C 0.71 0.56372 0.86562 0.0
C1692 C 0.70407 0.57781 0.87564 0.0
C1693 C 0.73007 0.56986 0.85316 0.0
C1694 C 0.71861 0.59807 0.87134 0.0
C1695 C 0.73827 0.60419 0.858 0.0
H1696 H 0.48654 0.13953 0.92899 0.0
H1697 H 0.53255 0.15517 0.82179 0.0
H1698 H 0.52888 0.18307 0.7947 0.0
H1699 H 0.5135 0.20418 0.80288 0.0
H1700 H 0.46754 0.18845 0.91049 0.0
H1701 H 0.47063 0.16014 0.93584 0.0
C1702 C 0.49569 0.14889 0.89935 0.0
C1703 C 0.50982 0.14489 0.87755 0.0
C1704 C 0.4937 0.16531 0.88415 0.0
C1705 C 0.52152 0.15756 0.83946 0.0
C1706 C 0.51946 0.17369 0.82393 0.0
C1707 C 0.50394 0.19451 0.83153 0.0
C1708 C 0.49035 0.199 0.85462 0.0
C1709 C 0.50571 0.17788 0.84617 0.0
C1710 C 0.47844 0.18604 0.89222 0.0
C1711 C 0.48007 0.16956 0.90667 0.0
H1712 H 0.89924 0.30757 0.86697 0.0
H1713 H 0.86357 0.32658 0.78908 0.0
H1714 H 0.88875 0.36121 0.80255 0.0
H1715 H 0.92104 0.38692 0.83826 0.0
H1716 H 0.95667 0.36772 0.91569 0.0
H1717 H 0.93181 0.33318 0.90072 0.0
C1718 C 0.89686 0.31922 0.85298 0.0
C1719 C 0.87919 0.31395 0.82656 0.0
C1720 C 0.91166 0.3395 0.86078 0.0
C1721 C 0.87689 0.3297 0.80874 0.0
C1722 C 0.89137 0.34973 0.81672 0.0
C1723 C 0.92353 0.37524 0.85145 0.0
C1724 C 0.94111 0.38042 0.8781 0.0
C1725 C 0.90889 0.35495 0.84272 0.0
C1726 C 0.94359 0.36466 0.89497 0.0
C1727 C 0.92921 0.34466 0.88654 0.0
H1728 H 0.51556 0.32757 0.29493 0.0
H1729 H 0.46713 0.29497 0.39534 0.0
H1730 H 0.46939 0.32587 0.42195 0.0
H1731 H 0.48576 0.36275 0.41962 0.0
H1732 H 0.53479 0.39537 0.3211 0.0
H1733 H 0.53169 0.36429 0.29202 0.0
C1734 C 0.5055 0.32705 0.3229 0.0
C1735 C 0.49107 0.30836 0.34252 0.0
C1736 C 0.507 0.34519 0.33885 0.0
C1737 C 0.47817 0.30863 0.37833 0.0
C1738 C 0.47956 0.32651 0.3941 0.0
C1739 C 0.49569 0.36314 0.39143 0.0
C1740 C 0.5105 0.38178 0.37268 0.0
C1741 C 0.49395 0.34496 0.37487 0.0
C1742 C 0.52322 0.38156 0.33645 0.0
C1743 C 0.52147 0.36364 0.31973 0.0
H1744 H 0.72228 0.1414 0.41313 0.0
H1745 H 0.69097 0.16414 0.33011 0.0
H1746 H 0.72257 0.19211 0.30266 0.0
H1747 H 0.75957 0.21099 0.30305 0.0
H1748 H 0.79063 0.18786 0.38601 0.0
H1749 H 0.75911 0.15986 0.41232 0.0
C1750 C 0.72224 0.15234 0.38872 0.0
C1751 C 0.7038 0.15023 0.37379 0.0
C1752 C 0.74071 0.16872 0.37308 0.0
C1753 C 0.70456 0.16499 0.34243 0.0
C1754 C 0.7228 0.18115 0.32664 0.0
C1755 C 0.7596 0.1998 0.32653 0.0
C1756 C 0.77806 0.20214 0.34243 0.0
C1757 C 0.74107 0.18331 0.34176 0.0
C1758 C 0.77714 0.18718 0.37348 0.0
C1759 C 0.75892 0.17087 0.38846 0.0
H1760 H 0.88436 0.57532 0.2871 0.0
H1761 H 0.89328 0.61424 0.40867 0.0
H1762 H 0.92185 0.61181 0.43505 0.0
H1763 H 0.94417 0.59775 0.42608 0.0
H1764 H 0.93412 0.55761 0.3068 0.0
H1765 H 0.90652 0.56136 0.27806 0.0
C1766 C 0.89236 0.58324 0.31961 0.0
C1767 C 0.88622 0.59508 0.34528 0.0
C1768 C 0.90889 0.58157 0.33536 0.0
C1769 C 0.89743 0.6053 0.38699 0.0
C1770 C 0.91387 0.6038 0.40257 0.0
C1771 C 0.93613 0.58999 0.39341 0.0
C1772 C 0.94161 0.57747 0.36862 0.0
C1773 C 0.91979 0.59194 0.37723 0.0
C1774 C 0.93055 0.56739 0.3268 0.0
C1775 C 0.91461 0.5695 0.31028 0.0
H1776 H 0.73525 0.1815 0.85338 0.0
H1777 H 0.71712 0.12702 0.77506 0.0
H1778 H 0.6824 0.11625 0.79116 0.0
H1779 H 0.65636 0.12221 0.82679 0.0
H1780 H 0.67475 0.17646 0.90646 0.0
H1781 H 0.70941 0.18698 0.89089 0.0
C1782 C 0.72377 0.16716 0.84018 0.0
C1783 C 0.72927 0.15521 0.81286 0.0
C1784 C 0.70347 0.16086 0.84982 0.0
C1785 C 0.71378 0.13672 0.79612 0.0
C1786 C 0.6937 0.13048 0.80528 0.0
C1787 C 0.6679 0.13637 0.84072 0.0
C1788 C 0.66246 0.14834 0.8683 0.0
C1789 C 0.68823 0.14245 0.83184 0.0
C1790 C 0.67804 0.1666 0.88593 0.0
C1791 C 0.69807 0.17276 0.87678 0.0
H1792 H 0.94818 0.5965 0.77462 0.0
H1793 H 0.89784 0.57625 0.8706 0.0
H1794 H 0.90174 0.54842 0.89661 0.0
H1795 H 0.91857 0.52864 0.89073 0.0
H1796 H 0.9689 0.54875 0.79464 0.0
H1797 H 0.9656 0.57707 0.77026 0.0
C1798 C 0.93813 0.58615 0.80158 0.0
C1799 C 0.9227 0.58889 0.82051 0.0
C1800 C 0.94029 0.56972 0.81626 0.0
C1801 C 0.90988 0.5749 0.85515 0.0
C1802 C 0.91208 0.55879 0.8701 0.0
C1803 C 0.92903 0.53924 0.86483 0.0
C1804 C 0.94396 0.53597 0.8447 0.0
C1805 C 0.92712 0.55586 0.85074 0.0
C1806 C 0.95699 0.55018 0.81055 0.0
C1807 C 0.95522 0.56667 0.79667 0.0
H1808 H 0.55311 0.40934 0.90663 0.0
H1809 H 0.53869 0.43966 0.79611 0.0
H1810 H 0.51109 0.40807 0.76855 0.0
H1811 H 0.49075 0.3712 0.77393 0.0
H1812 H 0.50488 0.34091 0.88498 0.0
H1813 H 0.53211 0.37266 0.91387 0.0
C1814 C 0.54389 0.40923 0.87683 0.0
C1815 C 0.54863 0.42746 0.85362 0.0
C1816 C 0.52761 0.39069 0.86093 0.0
C1817 C 0.53618 0.42631 0.81458 0.0
C1818 C 0.52008 0.40806 0.79879 0.0
C1819 C 0.4996 0.37147 0.80486 0.0
C1820 C 0.49532 0.35325 0.82718 0.0
C1821 C 0.51563 0.39005 0.8214 0.0
C1822 C 0.50743 0.35435 0.86684 0.0
C1823 C 0.52319 0.37266 0.88347 0.0
H1824 H 0.63034 0.76039 0.68238 0.0
H1825 H 0.56943 0.7447 0.70332 0.0
H1826 H 0.55856 0.70996 0.68627 0.0
H1827 H 0.56599 0.68334 0.66399 0.0
H1828 H 0.62696 0.69878 0.64715 0.0
H1829 H 0.63778 0.73364 0.66307 0.0
C1830 C 0.61467 0.74943 0.68301 0.0
C1831 C 0.60084 0.75558 0.69443 0.0
C1832 C 0.60836 0.72906 0.67371 0.0
C1833 C 0.5806 0.74076 0.69532 0.0
C1834 C 0.57429 0.7207 0.68538 0.0
C1835 C 0.58168 0.69423 0.66445 0.0
C1836 C 0.59556 0.68809 0.65345 0.0
C1837 C 0.58798 0.71454 0.67466 0.0
C1838 C 0.61581 0.7028 0.65425 0.0
C1839 C 0.62208 0.72287 0.66375 0.0
H1840 H 0.34391 0.8614 0.72253 0.0
H1841 H 0.3123 0.88508 0.64427 0.0
H1842 H 0.34374 0.91366 0.619 0.0
H1843 H 0.38076 0.932 0.61636 0.0
H1844 H 0.41209 0.9079 0.6941 0.0
H1845 H 0.38064 0.87987 0.72117 0.0
C1846 C 0.34372 0.87266 0.69967 0.0
C1847 C 0.32519 0.8706 0.68574 0.0
C1848 C 0.36212 0.88929 0.68472 0.0
C1849 C 0.32589 0.88594 0.65664 0.0
C1850 C 0.34406 0.90241 0.64168 0.0
C1851 C 0.38081 0.92074 0.63956 0.0
C1852 C 0.39924 0.92246 0.65298 0.0
C1853 C 0.36235 0.90429 0.65524 0.0
C1854 C 0.39851 0.90735 0.6829 0.0
C1855 C 0.38036 0.89113 0.69849 0.0
H1856 H 0.15452 0.46729 0.6025 0.0
H1857 H 0.17349 0.51601 0.70357 0.0
H1858 H 0.20093 0.51169 0.73019 0.0
H1859 H 0.22071 0.49498 0.72367 0.0
H1860 H 0.20234 0.44662 0.62175 0.0
H1861 H 0.17427 0.45024 0.59658 0.0
C1862 C 0.16456 0.47695 0.63053 0.0
C1863 C 0.16158 0.49204 0.65075 0.0
C1864 C 0.18083 0.47461 0.64545 0.0
C1865 C 0.17507 0.50427 0.68701 0.0
C1866 C 0.19095 0.50184 0.70234 0.0
C1867 C 0.21053 0.48501 0.69629 0.0
C1868 C 0.21411 0.47051 0.6749 0.0
C1869 C 0.19415 0.48716 0.68168 0.0
C1870 C 0.20054 0.45814 0.63878 0.0
C1871 C 0.18423 0.46011 0.62444 0.0
H1872 H 0.3896 0.93497 0.25459 0.0
H1873 H 0.35848 0.88879 0.14776 0.0
H1874 H 0.38989 0.89276 0.1191 0.0
H1875 H 0.42649 0.90847 0.12534 0.0
H1876 H 0.45776 0.95496 0.23153 0.0
H1877 H 0.42648 0.95149 0.25897 0.0
C1878 C 0.38963 0.92589 0.22464 0.0
C1879 C 0.37128 0.9116 0.20346 0.0
C1880 C 0.40803 0.92812 0.20822 0.0
C1881 C 0.37204 0.89994 0.16503 0.0
C1882 C 0.39016 0.90218 0.14852 0.0
C1883 C 0.42666 0.91808 0.15413 0.0
C1884 C 0.44503 0.93191 0.17618 0.0
C1885 C 0.40832 0.91612 0.16994 0.0
C1886 C 0.44426 0.94386 0.214 0.0
C1887 C 0.42619 0.942 0.2297 0.0
H1888 H 0.14043 0.51912 0.20301 0.0
H1889 H 0.19487 0.55545 0.12444 0.0
H1890 H 0.20491 0.53086 0.13842 0.0
H1891 H 0.19894 0.49901 0.17437 0.0
H1892 H 0.14424 0.46225 0.25147 0.0
H1893 H 0.13397 0.48666 0.23693 0.0
C1894 C 0.15452 0.52175 0.18898 0.0
C1895 C 0.1667 0.53941 0.16221 0.0
C1896 C 0.16032 0.50724 0.19692 0.0
C1897 C 0.18486 0.5421 0.14437 0.0
C1898 C 0.19075 0.52797 0.15261 0.0
C1899 C 0.18466 0.49615 0.18758 0.0
C1900 C 0.1725 0.47846 0.21416 0.0
C1901 C 0.17865 0.51042 0.17881 0.0
C1902 C 0.15409 0.47548 0.231 0.0
C1903 C 0.14815 0.48958 0.22272 0.0
H1904 H 0.58786 0.71729 0.17257 0.0
H1905 H 0.61977 0.69772 0.26452 0.0
H1906 H 0.59505 0.66334 0.24891 0.0
H1907 H 0.56398 0.63782 0.20937 0.0
H1908 H 0.53194 0.65676 0.11631 0.0
H1909 H 0.55667 0.69142 0.13173 0.0
C1910 C 0.58953 0.70556 0.18904 0.0
C1911 C 0.60614 0.7107 0.21976 0.0
C1912 C 0.57499 0.68522 0.17961 0.0
C1913 C 0.60755 0.69481 0.24052 0.0
C1914 C 0.59323 0.67485 0.2317 0.0
C1915 C 0.56225 0.64944 0.1925 0.0
C1916 C 0.54578 0.64412 0.16122 0.0
C1917 C 0.5768 0.66974 0.20139 0.0
C1918 C 0.54435 0.65989 0.13982 0.0
C1919 C 0.55858 0.67996 0.14891 0.0
H1920 H 0.15461 0.6978 0.75875 0.0
H1921 H 0.20228 0.7282 0.65543 0.0
H1922 H 0.19843 0.69641 0.62938 0.0
H1923 H 0.1821 0.65966 0.6369 0.0
H1924 H 0.13441 0.62944 0.74051 0.0
H1925 H 0.13791 0.66109 0.76517 0.0
C1926 C 0.1641 0.69756 0.73019 0.0
C1927 C 0.17871 0.71575 0.70907 0.0
C1928 C 0.16193 0.67902 0.7155 0.0
C1929 C 0.19086 0.71473 0.67248 0.0
C1930 C 0.18868 0.69642 0.65753 0.0
C1931 C 0.17228 0.65984 0.66459 0.0
C1932 C 0.15802 0.64166 0.68671 0.0
C1933 C 0.17433 0.67839 0.67886 0.0
C1934 C 0.14579 0.6428 0.72304 0.0
C1935 C 0.14768 0.66106 0.7371 0.0
H1936 H 0.42596 0.54316 0.63772 0.0
H1937 H 0.45674 0.51863 0.71635 0.0
H1938 H 0.42514 0.49046 0.74158 0.0
H1939 H 0.38838 0.47234 0.74273 0.0
H1940 H 0.3573 0.49643 0.66393 0.0
H1941 H 0.38898 0.52454 0.63743 0.0
C1942 C 0.4259 0.53163 0.66 0.0
C1943 C 0.44428 0.53359 0.67509 0.0
C1944 C 0.40734 0.51506 0.67456 0.0
C1945 C 0.44328 0.51821 0.70457 0.0
C1946 C 0.42503 0.50182 0.7189 0.0
C1947 C 0.3884 0.48361 0.71944 0.0
C1948 C 0.37003 0.48185 0.70542 0.0
C1949 C 0.4069 0.50004 0.70437 0.0
C1950 C 0.37086 0.49701 0.67549 0.0
C1951 C 0.38913 0.51325 0.66027 0.0
H1952 H 0.61559 0.93633 0.73701 0.0
H1953 H 0.58684 0.87707 0.67743 0.0
H1954 H 0.55824 0.88011 0.65407 0.0
H1955 H 0.54065 0.89926 0.65163 0.0
H1956 H 0.56957 0.95862 0.71055 0.0
H1957 H 0.59846 0.95584 0.73232 0.0
C1958 C 0.60317 0.92406 0.71861 0.0
C1959 C 0.6037 0.90643 0.70917 0.0
C1960 C 0.58654 0.92591 0.70504 0.0
C1961 C 0.58719 0.89085 0.68524 0.0
C1962 C 0.57067 0.89256 0.67192 0.0
C1963 C 0.5532 0.91162 0.66942 0.0
C1964 C 0.55258 0.92919 0.67924 0.0
C1965 C 0.57004 0.90995 0.6819 0.0
C1966 C 0.56938 0.94499 0.70175 0.0
C1967 C 0.586 0.94337 0.71457 0.0
H1968 H 0.32253 0.4585 0.15663 0.0
H1969 H 0.34316 0.51339 0.23512 0.0
H1970 H 0.37747 0.52208 0.22101 0.0
H1971 H 0.40251 0.51469 0.18468 0.0
H1972 H 0.38139 0.45953 0.10681 0.0
H1973 H 0.34729 0.45081 0.12211 0.0
C1974 C 0.33445 0.47243 0.1706 0.0
C1975 C 0.32971 0.48508 0.1974 0.0
C1976 C 0.35454 0.47747 0.16241 0.0
C1977 C 0.34584 0.50298 0.21518 0.0
C1978 C 0.36571 0.50811 0.20682 0.0
C1979 C 0.39051 0.50067 0.17144 0.0
C1980 C 0.39507 0.48789 0.14454 0.0
C1981 C 0.37038 0.49551 0.18045 0.0
C1982 C 0.37887 0.46985 0.12765 0.0
C1983 C 0.35909 0.46476 0.13631 0.0
H1984 H 0.5849 0.8592 0.22341 0.0
H1985 H 0.63412 0.87863 0.12386 0.0
H1986 H 0.63064 0.90683 0.09973 0.0
H1987 H 0.61357 0.9263 0.10533 0.0
H1988 H 0.56444 0.90737 0.20457 0.0
H1989 H 0.5681 0.8792 0.23006 0.0
C1990 C 0.59503 0.86962 0.19669 0.0
C1991 C 0.60975 0.86624 0.17554 0.0
C1992 C 0.59298 0.88618 0.18266 0.0
C1993 C 0.6224 0.88018 0.1405 0.0
C1994 C 0.62051 0.89657 0.12675 0.0
C1995 C 0.60372 0.91618 0.13295 0.0
C1996 C 0.58878 0.91938 0.1531 0.0
C1997 C 0.60583 0.89976 0.14735 0.0
C1998 C 0.57612 0.90564 0.18831 0.0
C1999 C 0.57821 0.88939 0.20293 0.0
H2000 H 0.22055 0.74395 0.23811 0.0
H2001 H 0.20898 0.77487 0.12326 0.0
H2002 H 0.18046 0.74372 0.09674 0.0
H2003 H 0.1589 0.70696 0.10339 0.0
H2004 H 0.17151 0.67602 0.21584 0.0
H2005 H 0.19907 0.70746 0.24498 0.0
C2006 C 0.212 0.74406 0.20701 0.0
C2007 C 0.21742 0.76238 0.18333 0.0
C2008 C 0.19547 0.72576 0.19106 0.0
C2009 C 0.20545 0.76155 0.14347 0.0
C2010 C 0.18902 0.74351 0.12775 0.0
C2011 C 0.16753 0.70703 0.13454 0.0
C2012 C 0.16275 0.68872 0.15718 0.0
C2013 C 0.18385 0.72542 0.15102 0.0
C2014 C 0.17449 0.68954 0.19737 0.0
C2015 C 0.19044 0.70767 0.21414 0.0
H2016 H 0.37977 0.23529 0.17464 0.0
H2017 H 0.33192 0.1762 0.14346 0.0
H2018 H 0.35357 0.16273 0.16027 0.0
H2019 H 0.38655 0.16729 0.18336 0.0
H2020 H 0.43462 0.22653 0.21264 0.0
H2021 H 0.41283 0.23988 0.19709 0.0
C2022 C 0.37397 0.21944 0.17199 0.0
C2023 C 0.3539 0.20692 0.15797 0.0
C2024 C 0.38679 0.2116 0.18106 0.0
C2025 C 0.3471 0.18641 0.15417 0.0
C2026 C 0.35958 0.17858 0.16374 0.0
C2027 C 0.39237 0.18314 0.18608 0.0
C2028 C 0.41256 0.19569 0.19916 0.0
C2029 C 0.37955 0.19098 0.17696 0.0
C2030 C 0.41938 0.21624 0.20256 0.0
C2031 C 0.40681 0.22401 0.19377 0.0
H2032 H 0.90025 0.18018 0.14001 0.0
H2033 H 0.84063 0.15459 0.19551 0.0
H2034 H 0.84704 0.18749 0.21913 0.0
H2035 H 0.86944 0.22408 0.22401 0.0
H2036 H 0.92904 0.24967 0.16849 0.0
H2037 H 0.9227 0.21674 0.14524 0.0
C2038 C 0.88864 0.18169 0.1576 0.0
C2039 C 0.8699 0.16448 0.16589 0.0
C2040 C 0.89238 0.20096 0.17102 0.0
C2041 C 0.8552 0.16721 0.18847 0.0
C2042 C 0.85885 0.18619 0.20202 0.0
C2043 C 0.88106 0.22255 0.20659 0.0
C2044 C 0.89977 0.23977 0.19806 0.0
C2045 C 0.87735 0.20327 0.19333 0.0
C2046 C 0.9145 0.23703 0.17567 0.0
C2047 C 0.91088 0.21804 0.16233 0.0
H2048 H 0.84952 0.70009 0.21042 0.0
H2049 H 0.85601 0.64858 0.1957 0.0
H2050 H 0.89083 0.66962 0.17448 0.0
H2051 H 0.9204 0.70305 0.15969 0.0
H2052 H 0.91396 0.75458 0.17505 0.0
H2053 H 0.87915 0.73353 0.19618 0.0
C2054 C 0.85844 0.6934 0.20206 0.0
C2055 C 0.84961 0.67246 0.20459 0.0
C2056 C 0.87899 0.7058 0.19022 0.0
C2057 C 0.86194 0.66447 0.19418 0.0
C2058 C 0.8821 0.67659 0.18204 0.0
C2059 C 0.9115 0.70975 0.16817 0.0
C2060 C 0.92035 0.7307 0.16569 0.0
C2061 C 0.89097 0.69735 0.18016 0.0
C2062 C 0.90803 0.73869 0.17641 0.0
C2063 C 0.88787 0.72656 0.1885 0.0
H2064 H 0.18514 0.37279 0.3377 0.0
H2065 H 0.24451 0.4216 0.31578 0.0
H2066 H 0.25791 0.39974 0.33156 0.0
H2067 H 0.25309 0.36635 0.35159 0.0
H2068 H 0.19345 0.31737 0.37015 0.0
H2069 H 0.18028 0.33934 0.35561 0.0
C2070 C 0.20103 0.37873 0.33681 0.0
C2071 C 0.21368 0.3991 0.32592 0.0
C2072 C 0.20878 0.36583 0.34498 0.0
C2073 C 0.23425 0.40616 0.32418 0.0
C2074 C 0.242 0.39357 0.33314 0.0
C2075 C 0.23719 0.36039 0.35206 0.0
C2076 C 0.22447 0.3399 0.362 0.0
C2077 C 0.22946 0.37329 0.34338 0.0
C2078 C 0.20387 0.33284 0.36258 0.0
C2079 C 0.19619 0.34552 0.35438 0.0
H2080 H 0.67763 0.84493 0.31138 0.0
H2081 H 0.71452 0.82045 0.35085 0.0
H2082 H 0.74115 0.85331 0.37447 0.0
H2083 H 0.75474 0.88968 0.38407 0.0
H2084 H 0.71781 0.91416 0.34518 0.0
H2085 H 0.69113 0.88128 0.32166 0.0
C2086 C 0.69142 0.84668 0.32541 0.0
C2087 C 0.69367 0.82975 0.32912 0.0
C2088 C 0.70705 0.86598 0.33907 0.0
C2089 C 0.71197 0.83282 0.3473 0.0
C2090 C 0.7274 0.8518 0.3609 0.0
C2091 C 0.74092 0.88791 0.37026 0.0
C2092 C 0.73867 0.90484 0.36653 0.0
C2093 C 0.72525 0.8686 0.35683 0.0
C2094 C 0.72033 0.90177 0.34871 0.0
C2095 C 0.70489 0.88278 0.33516 0.0
H2096 H 0.25471 0.90425 0.32475 0.0
H2097 H 0.24714 0.84555 0.33274 0.0
H2098 H 0.2122 0.83164 0.35188 0.0
H2099 H 0.18296 0.83553 0.36638 0.0
H2100 H 0.1902 0.89407 0.35972 0.0
H2101 H 0.2253 0.90819 0.34026 0.0
C2102 C 0.24551 0.88844 0.33107 0.0
C2103 C 0.25406 0.87616 0.32726 0.0
C2104 C 0.22494 0.88026 0.34213 0.0
C2105 C 0.24143 0.85562 0.3353 0.0
C2106 C 0.22121 0.84751 0.34625 0.0
C2107 C 0.19212 0.85137 0.36037 0.0
C2108 C 0.18349 0.86353 0.36441 0.0
C2109 C 0.21267 0.8596 0.34957 0.0
C2110 C 0.19604 0.88411 0.35687 0.0
C2111 C 0.21632 0.8923 0.34576 0.0
H2112 H 0.7559 0.88652 0.89233 0.0
H2113 H 0.72449 0.82908 0.82296 0.0
H2114 H 0.69767 0.83505 0.80073 0.0
H2115 H 0.68253 0.8563 0.80051 0.0
H2116 H 0.71398 0.91429 0.86673 0.0
H2117 H 0.74088 0.90834 0.89035 0.0
C2118 C 0.74325 0.87531 0.87213 0.0
C2119 C 0.74255 0.85727 0.85949 0.0
C2120 C 0.7276 0.87889 0.85893 0.0
C2121 C 0.7258 0.8431 0.8333 0.0
C2122 C 0.71027 0.84648 0.82057 0.0
C2123 C 0.69517 0.86768 0.82042 0.0
C2124 C 0.69585 0.88575 0.83203 0.0
C2125 C 0.7109 0.86427 0.83326 0.0
C2126 C 0.71273 0.90023 0.85727 0.0
C2127 C 0.72825 0.89681 0.87079 0.0
H2128 H 0.23441 0.84745 0.80226 0.0
H2129 H 0.17432 0.82183 0.85436 0.0
H2130 H 0.18046 0.85482 0.87651 0.0
H2131 H 0.20285 0.89139 0.8817 0.0
H2132 H 0.26306 0.91704 0.83048 0.0
H2133 H 0.25684 0.88407 0.80759 0.0
C2134 C 0.22261 0.84898 0.81865 0.0
C2135 C 0.20382 0.83172 0.82656 0.0
C2136 C 0.22625 0.86829 0.83141 0.0
C2137 C 0.18891 0.83447 0.84773 0.0
C2138 C 0.19242 0.8535 0.86041 0.0
C2139 C 0.21465 0.88989 0.86519 0.0
C2140 C 0.23348 0.90714 0.85776 0.0
C2141 C 0.21101 0.8706 0.85238 0.0
C2142 C 0.24842 0.9044 0.8367 0.0
C2143 C 0.24487 0.88538 0.82361 0.0
H2144 H 0.19638 0.32899 0.88522 0.0
H2145 H 0.17264 0.3665 0.84499 0.0
H2146 H 0.20569 0.39294 0.82245 0.0
H2147 H 0.24164 0.40602 0.81353 0.0
H2148 H 0.26602 0.36899 0.85237 0.0
H2149 H 0.2329 0.3423 0.8759 0.0
C2150 C 0.19836 0.34289 0.87131 0.0
C2151 C 0.18156 0.34539 0.86694 0.0
C2152 C 0.21779 0.35842 0.85824 0.0
C2153 C 0.18488 0.36379 0.84896 0.0
C2154 C 0.20396 0.37909 0.83601 0.0
C2155 C 0.23987 0.39219 0.82742 0.0
C2156 C 0.25676 0.38988 0.83123 0.0
C2157 C 0.22058 0.37668 0.84055 0.0
C2158 C 0.25365 0.37154 0.84905 0.0
C2159 C 0.23455 0.35613 0.86246 0.0
H2160 H 0.89705 0.73779 0.6367 0.0
H2161 H 0.8386 0.70615 0.69993 0.0
H2162 H 0.8443 0.67908 0.7238 0.0
H2163 H 0.86598 0.66386 0.72679 0.0
H2164 H 0.9239 0.69539 0.66039 0.0
H2165 H 0.91823 0.72245 0.63804 0.0
C2166 C 0.88552 0.72507 0.65601 0.0
C2167 C 0.86737 0.72444 0.66667 0.0
C2168 C 0.88879 0.7092 0.66903 0.0
C2169 C 0.85273 0.70742 0.69118 0.0
C2170 C 0.856 0.69179 0.70485 0.0
C2171 C 0.87739 0.67659 0.70725 0.0
C2172 C 0.89546 0.6772 0.69548 0.0
C2173 C 0.87396 0.6924 0.69393 0.0
C2174 C 0.90985 0.69409 0.67007 0.0
C2175 C 0.90663 0.70977 0.65727 0.0
H2176 H 0.38247 0.16327 0.669 0.0
H2177 H 0.33331 0.17352 0.65462 0.0
H2178 H 0.3549 0.20851 0.67385 0.0
H2179 H 0.38815 0.23716 0.69404 0.0
H2180 H 0.43758 0.22726 0.70707 0.0
H2181 H 0.41591 0.19212 0.68923 0.0
C2182 C 0.3764 0.17306 0.67065 0.0
C2183 C 0.35596 0.16527 0.66046 0.0
C2184 C 0.38918 0.19372 0.68115 0.0
C2185 C 0.34879 0.17868 0.66218 0.0
C2186 C 0.36123 0.19892 0.67315 0.0
C2187 C 0.39429 0.22741 0.69269 0.0
C2188 C 0.41481 0.2354 0.7019 0.0
C2189 C 0.38154 0.20678 0.68237 0.0
C2190 C 0.42206 0.22203 0.70014 0.0
C2191 C 0.40955 0.20168 0.69 0.0
H2192 H 0.92231 0.23815 0.67293 0.0
H2193 H 0.91142 0.17867 0.65088 0.0
H2194 H 0.87625 0.16525 0.66604 0.0
H2195 H 0.8477 0.16981 0.68545 0.0
H2196 H 0.85838 0.22895 0.71068 0.0
H2197 H 0.89369 0.24265 0.69439 0.0
C2198 C 0.91233 0.22224 0.67179 0.0
C2199 C 0.92004 0.20964 0.66066 0.0
C2200 C 0.89164 0.21434 0.68082 0.0
C2201 C 0.90641 0.18901 0.65932 0.0
C2202 C 0.88604 0.18118 0.66789 0.0
C2203 C 0.85768 0.18572 0.68696 0.0
C2204 C 0.84996 0.19821 0.69894 0.0
C2205 C 0.87835 0.19363 0.67843 0.0
C2206 C 0.86353 0.2188 0.70143 0.0
C2207 C 0.88392 0.22673 0.69218 0.0
H2208 H 1.04973 0.56801 0.48475 0.0
H2209 H 0.99768 0.51054 0.50565 0.0
H2210 H 1.01843 0.49623 0.52453 0.0
H2211 H 0.05175 0.4996 0.53594 0.0
H2212 H 0.10372 0.55714 0.51483 0.0
H2213 H 0.08295 0.57131 0.49533 0.0
C2214 C 1.04286 0.55239 0.49384 0.0
C2215 C 1.02189 0.54059 0.4939 0.0
C2216 C 0.05505 0.54398 0.50441 0.0
C2217 C 1.01362 0.52025 0.50528 0.0
C2218 C 1.02557 0.51192 0.51604 0.0
C2219 C 0.05859 0.51518 0.5265 0.0
C2220 C 0.07957 0.52707 0.52686 0.0
C2221 C 1.04637 0.52355 0.51559 0.0
C2222 C 0.08779 0.54737 0.51504 0.0
C2223 C 0.07583 0.55563 0.5039 0.0
H2224 H 0.53556 0.5555 0.56107 0.0
H2225 H 0.5925 0.58211 0.48967 0.0
H2226 H 0.58628 0.54931 0.46567 0.0
H2227 H 0.56485 0.5126 0.46478 0.0
H2228 H 0.50752 0.48587 0.53405 0.0
H2229 H 0.51376 0.51869 0.55864 0.0
C2230 C 0.54661 0.55421 0.54002 0.0
C2231 C 0.56457 0.57168 0.52737 0.0
C2232 C 0.54291 0.535 0.52594 0.0
C2233 C 0.57854 0.56928 0.50009 0.0
C2234 C 0.57501 0.55036 0.48634 0.0
C2235 C 0.5537 0.51386 0.48548 0.0
C2236 C 0.53569 0.49637 0.4976 0.0
C2237 C 0.55729 0.53304 0.49914 0.0
C2238 C 0.52152 0.49874 0.52404 0.0
C2239 C 0.52509 0.51766 0.53819 0.0
H2240 H 0.57448 0.07379 0.47838 0.0
H2241 H 0.59955 0.03783 0.52176 0.0
H2242 H 0.5665 1.01086 0.54436 0.0
H2243 H 0.52999 0.99701 0.55195 0.0
H2244 H 0.50512 1.03309 0.50775 0.0
H2245 H 0.53814 0.05997 0.48548 0.0
C2246 C 0.57286 0.06014 0.49306 0.0
C2247 C 0.58998 0.05824 0.49846 0.0
C2248 C 0.55355 0.04441 0.50571 0.0
C2249 C 0.58705 0.04009 0.51721 0.0
C2250 C 0.56798 1.02451 0.5301 0.0
C2251 C 0.53167 1.01068 0.53717 0.0
C2252 C 0.51459 1.01264 0.53158 0.0
C2253 C 0.55102 1.0264 0.52442 0.0
C2254 C 0.51758 1.03077 0.51256 0.0
C2255 C 0.53664 0.04632 0.49983 0.0
H2256 H 0.53716 0.99616 0.0475 0.0
H2257 H 0.59903 1.0337 1.01239 0.0
H2258 H 0.59287 0.06059 0.99001 0.0
H2259 H 0.56979 0.07392 0.98057 0.0
H2260 H 0.50802 0.03589 0.01645 0.0
H2261 H 0.51435 1.00925 0.03815 0.0
C2262 C 0.54937 1.01015 0.03471 0.0
C2263 C 0.56862 1.01257 0.03162 0.0
C2264 C 0.54574 1.02576 0.0221 0.0
C2265 C 0.58406 1.03109 0.01514 0.0
C2266 C 0.58053 0.04661 1.00238 0.0
C2267 C 0.55769 0.05985 0.99333 0.0
C2268 C 0.53835 0.05725 0.99677 0.0
C2269 C 0.56143 0.04422 1.00583 0.0
C2270 C 0.52303 0.03866 1.01325 0.0
C2271 C 0.52664 1.02325 0.02571 0.0
H2272 H 1.04907 0.49963 0.99432 0.0
H2273 H 0.99894 0.50869 0.9898 0.0
H2274 H 1.0205 0.54377 1.00872 0.0
H2275 H 0.05398 0.57269 0.02695 0.0
H2276 H 0.10402 0.56346 0.03106 0.0
H2277 H 0.08246 0.52847 1.012 0.0
C2278 C 1.04277 0.50919 0.99781 0.0
C2279 C 1.02211 0.50104 0.99071 0.0
C2280 C 0.05544 0.52976 1.00844 0.0
C2281 C 1.0146 0.51412 0.99504 0.0
C2282 C 1.02702 0.5344 1.00583 0.0
C2283 C 0.06024 0.56312 0.02328 0.0
C2284 C 0.0809 0.5712 0.03048 0.0
C2285 C 1.04754 0.54254 1.01247 0.0
C2286 C 0.08837 0.5581 0.02585 0.0
C2287 C 0.07594 0.53786 0.01497 0.0
H2288 H 0.52873 0.55 0.05424 0.0
H2289 H 0.50448 0.4888 1.0119 0.0
H2290 H 0.53753 0.49527 0.99058 0.0
H2291 H 0.57385 0.51816 0.98348 0.0
H2292 H 0.59839 0.57937 0.02579 0.0
H2293 H 0.5653 0.57299 0.04731 0.0
C2294 C 0.53059 0.53806 0.0401 0.0
C2295 C 0.51366 0.51884 0.03478 0.0
C2296 C 0.55001 0.54186 0.02795 0.0
C2297 C 0.51685 0.50373 0.01661 0.0
C2298 C 0.53593 0.50742 1.00435 0.0
C2299 C 0.57208 0.53015 0.99769 0.0
C2300 C 0.58905 0.54931 1.00297 0.0
C2301 C 0.55271 0.52639 1.00994 0.0
C2302 C 0.58597 0.56447 0.02123 0.0
C2303 C 0.56687 0.56083 0.03354 0.0
H2304 H 0.37896 0.2405 0.02055 0.0
H2305 H 0.33598 0.25148 0.95015 0.0
H2306 H 0.35865 0.26677 0.88068 0.0
H2307 H 0.39205 0.27953 0.84188 0.0
H2308 H 0.43407 0.26643 0.90946 0.0
H2309 H 0.4107 0.24961 0.97694 0.0
C2310 C 0.37427 0.24579 0.98949 0.0
C2311 C 0.35534 0.24446 0.99121 0.0
C2312 C 0.38751 0.25452 0.94894 0.0
C2313 C 0.35 0.25178 0.95032 0.0
C2314 C 0.3632 0.26079 0.91052 0.0
C2315 C 0.39607 0.27277 0.87099 0.0
C2316 C 0.41519 0.2745 0.86991 0.0
C2317 C 0.38218 0.26262 0.90965 0.0
C2318 C 0.41972 0.26543 0.90843 0.0
C2319 C 0.40626 0.25582 0.94741 0.0
H2320 H 0.81491 0.12783 0.01858 0.0
H2321 H 0.86654 0.13363 0.94627 0.0
H2322 H 0.86062 0.1501 0.87689 0.0
H2323 H 0.83908 0.16049 0.83288 0.0
H2324 H 0.78821 0.15596 0.9065 0.0
H2325 H 0.79557 0.14179 0.97843 0.0
C2326 C 0.8252 0.13309 0.98816 0.0
C2327 C 0.84144 0.12948 0.98869 0.0
C2328 C 0.82167 0.14276 0.94798 0.0
C2329 C 0.85423 0.13632 0.94807 0.0
C2330 C 0.85067 0.14565 0.90792 0.0
C2331 C 0.82977 0.15681 0.86503 0.0
C2332 C 0.81301 0.15959 0.86348 0.0
C2333 C 0.83423 0.14866 0.90688 0.0
C2334 C 0.80126 0.15444 0.90596 0.0
C2335 C 0.80543 0.14609 0.94726 0.0
H2336 H 0.92707 0.6995 0.83031 0.0
H2337 H 0.92663 0.65189 0.91144 0.0
H2338 H 0.93987 0.67367 0.98333 0.0
H2339 H 0.95462 0.70753 0.02171 0.0
H2340 H 0.95376 0.75464 0.94139 0.0
H2341 H 0.93801 0.73204 0.87196 0.0
C2342 C 0.92943 0.69365 0.86403 0.0
C2343 C 0.92553 0.67365 0.8646 0.0
C2344 C 0.93704 0.70642 0.90586 0.0
C2345 C 0.92902 0.6668 0.90914 0.0
C2346 C 0.93684 0.67947 0.95047 0.0
C2347 C 0.95051 0.71279 0.98955 0.0
C2348 C 0.95528 0.73307 0.98798 0.0
C2349 C 0.94128 0.69946 0.94918 0.0
C2350 C 0.95006 0.73931 0.94497 0.0
C2351 C 0.94117 0.7263 0.90474 0.0
H2352 H 0.26008 0.3265 0.59497 0.0
H2353 H 0.26236 0.35881 0.46511 0.0
H2354 H 0.27552 0.38947 0.51296 0.0
H2355 H 0.29008 0.40836 0.5914 0.0
H2356 H 0.28498 0.37529 0.72216 0.0
H2357 H 0.26932 0.34436 0.67535 0.0
C2358 C 0.26274 0.34007 0.57727 0.0
C2359 C 0.25963 0.33983 0.52588 0.0
C2360 C 0.27019 0.35792 0.60562 0.0
C2361 C 0.26392 0.35803 0.5043 0.0
C2362 C 0.27177 0.3758 0.53185 0.0
C2363 C 0.28495 0.39435 0.6101 0.0
C2364 C 0.28864 0.39455 0.66126 0.0
C2365 C 0.27544 0.37615 0.58254 0.0
C2366 C 0.28215 0.37594 0.68359 0.0
C2367 C 0.27328 0.35808 0.65647 0.0
H2368 H 0.71076 0.93762 0.69322 0.0
H2369 H 0.669 0.88743 0.60832 0.0
H2370 H 0.69403 0.89643 0.54355 0.0
H2371 H 0.72756 0.92088 0.5066 0.0
H2372 H 0.76824 0.9712 0.59337 0.0
H2373 H 0.74445 0.95987 0.66045 0.0
C2374 C 0.7072 0.92826 0.66115 0.0
C2375 C 0.68777 0.91146 0.65698 0.0
C2376 C 0.72175 0.93377 0.62343 0.0
C2377 C 0.68369 0.90007 0.61395 0.0
C2378 C 0.69811 0.90542 0.57635 0.0
C2379 C 0.7315 0.92905 0.54072 0.0
C2380 C 0.75032 0.94691 0.54447 0.0
C2381 C 0.71721 0.9225 0.58 0.0
C2382 C 0.75438 0.95737 0.58896 0.0
C2383 C 0.74056 0.95093 0.62759 0.0
H2384 H 0.11814 0.79444 0.55504 0.0
H2385 H 0.17128 0.84941 0.52193 0.0
H2386 H 0.19014 0.84032 0.57858 0.0
H2387 H 0.19177 0.81544 0.63778 0.0
H2388 H 0.13719 0.76019 0.66322 0.0
H2389 H 0.11951 0.77071 0.61075 0.0
C2390 C 0.13386 0.80468 0.5601 0.0
C2391 C 0.14293 0.82283 0.53357 0.0
C2392 C 0.14474 0.79912 0.59207 0.0
C2393 C 0.16349 0.83547 0.54151 0.0
C2394 C 0.1744 0.83014 0.57408 0.0
C2395 C 0.17603 0.80567 0.63201 0.0
C2396 C 0.16631 0.78668 0.65585 0.0
C2397 C 0.16528 0.8118 0.59968 0.0
C2398 C 0.14571 0.77468 0.64646 0.0
C2399 C 0.13526 0.78073 0.61596 0.0
H2400 H 0.71313 0.79506 0.18647 0.0
H2401 H 0.66484 0.7951 0.11014 0.0
H2402 H 0.68664 0.81117 0.03959 0.0
H2403 H 0.71889 0.82277 0.99597 0.0
H2404 H 0.76765 0.82412 0.07351 0.0
H2405 H 0.74657 0.81036 0.14627 0.0
C2406 C 0.70742 0.799 0.15489 0.0
C2407 C 0.68706 0.79388 0.15471 0.0
C2408 C 0.72027 0.80845 0.11399 0.0
C2409 C 0.68024 0.799 0.11255 0.0
C2410 C 0.69279 0.8081 0.07171 0.0
C2411 C 0.72513 0.82047 0.02909 0.0
C2412 C 0.74523 0.82477 0.02841 0.0
C2413 C 0.71276 0.81258 0.07146 0.0
C2414 C 0.75261 0.82139 0.0722 0.0
C2415 C 0.74036 0.81329 0.11402 0.0
H2416 H 0.25954 0.95128 0.09889 0.0
H2417 H 0.26748 0.92662 0.966 0.0
H2418 H 0.28146 0.90967 1.01282 0.0
H2419 H 0.29462 0.90405 0.09204 0.0
H2420 H 0.28411 0.92668 0.22524 0.0
H2421 H 0.26805 0.94159 0.17885 0.0
C2422 C 0.26369 0.94168 0.08016 0.0
C2423 C 0.26187 0.94013 0.02828 0.0
C2424 C 0.27161 0.93156 0.10787 0.0
C2425 C 0.26803 0.92789 1.00549 0.0
C2426 C 0.27633 0.91828 0.03251 0.0
C2427 C 0.28832 0.91173 0.1112 0.0
C2428 C 0.29055 0.9138 0.16301 0.0
C2429 C 0.27861 0.92024 0.0838 0.0
C2430 C 0.2825 0.92436 0.18606 0.0
C2431 C 0.27337 0.93312 0.15922 0.0
H2432 H 0.17756 0.37378 0.18994 0.0
H2433 H 0.16779 0.41817 0.12292 0.0
H2434 H 0.15221 0.39618 0.05233 0.0
H2435 H 0.13892 0.36301 1.01139 0.0
H2436 H 0.15087 0.31962 0.0756 0.0
H2437 H 0.16787 0.34225 0.14432 0.0
C2438 C 0.17246 0.37892 0.15941 0.0
C2439 C 0.17423 0.39805 0.16245 0.0
C2440 C 0.16357 0.36607 0.11815 0.0
C2441 C 0.16716 0.40397 0.12214 0.0
C2442 C 0.15797 0.39117 0.08167 0.0
C2443 C 0.14547 0.35853 0.04004 0.0
C2444 C 0.14336 0.33923 0.03758 0.0
C2445 C 0.15573 0.372 0.07946 0.0
C2446 C 0.15215 0.33411 0.07557 0.0
C2447 C 0.16187 0.34715 0.11528 0.0
H2448 H 0.81692 0.70825 0.53302 0.0
H2449 H 0.86565 0.7492 0.44319 0.0
H2450 H 0.85701 0.72286 0.38211 0.0
H2451 H 0.83324 0.68819 0.34974 0.0
H2452 H 0.78441 0.64828 0.44138 0.0
H2453 H 0.79541 0.6736 0.50487 0.0
C2454 C 0.82605 0.71139 0.5007 0.0
C2455 C 0.84233 0.73098 0.49401 0.0
C2456 C 0.82076 0.69604 0.46512 0.0
C2457 C 0.85341 0.73445 0.45071 0.0
C2458 C 0.84828 0.71926 0.41523 0.0
C2459 C 0.82535 0.68477 0.38419 0.0
C2460 C 0.80801 0.66568 0.39039 0.0
C2461 C 0.83171 0.69995 0.42137 0.0
C2462 C 0.79788 0.66232 0.43517 0.0
C2463 C 0.80412 0.67702 0.47173 0.0
H2464 H 0.37864 0.15772 0.51537 0.0
H2465 H 0.33475 0.10359 0.44653 0.0
H2466 H 0.35727 0.11028 0.37719 0.0
H2467 H 0.39084 0.13029 0.33832 0.0
H2468 H 0.43382 0.18555 0.40455 0.0
H2469 H 0.41055 0.17976 0.4716 0.0
C2470 C 0.3737 0.14759 0.4846 0.0
C2471 C 0.35455 0.13016 0.48671 0.0
C2472 C 0.38689 0.15167 0.44422 0.0
C2473 C 0.34892 0.11724 0.44629 0.0
C2474 C 0.36205 0.12101 0.40661 0.0
C2475 C 0.3951 0.14125 0.36707 0.0
C2476 C 0.41446 0.15844 0.36579 0.0
C2477 C 0.38127 0.13797 0.40546 0.0
C2478 C 0.4193 0.17232 0.40376 0.0
C2479 C 0.40589 0.16891 0.44246 0.0
H2480 H 0.96283 0.27325 0.5263 0.0
H2481 H 0.94965 0.22048 0.44651 0.0
H2482 H 0.93327 0.22948 0.38235 0.0
H2483 H 0.92501 0.25448 0.34443 0.0
H2484 H 0.93938 0.30713 0.42699 0.0
H2485 H 0.9525 0.29609 0.49313 0.0
C2486 C 0.95605 0.26338 0.49541 0.0
C2487 C 0.9575 0.2459 0.49248 0.0
C2488 C 0.94678 0.26884 0.45818 0.0
C2489 C 0.94867 0.23375 0.45115 0.0
C2490 C 0.93938 0.23908 0.41389 0.0
C2491 C 0.93048 0.26328 0.37744 0.0
C2492 C 0.93067 0.28174 0.38017 0.0
C2493 C 0.93856 0.25684 0.41632 0.0
C2494 C 0.93857 0.2929 0.42329 0.0
C2495 C 0.94629 0.2866 0.46141 0.0
H2496 H 0.08378 0.59251 0.23693 0.0
H2497 H 0.06822 0.63188 0.16324 0.0
H2498 H 1.03881 0.61969 0.2128 0.0
H2499 H 1.01745 0.59946 0.28041 0.0
H2500 H 1.03079 0.5592 0.35622 0.0
H2501 H 0.06005 0.56973 0.30355 0.0
C2502 C 0.07388 0.59828 0.23115 0.0
C2503 C 0.07904 0.61357 0.19532 0.0
C2504 C 0.05615 0.59098 0.26088 0.0
C2505 C 0.06548 0.62049 0.1899 0.0
C2506 C 1.0483 0.61343 0.2186 0.0
C2507 C 1.0265 0.59265 0.28524 0.0
C2508 C 1.02133 0.57824 0.32282 0.0
C2509 C 1.04351 0.59892 0.2547 0.0
C2510 C 1.03378 0.57001 0.32774 0.0
C2511 C 1.05081 0.57625 0.2975 0.0
H2512 H 0.51084 0.48132 0.34947 0.0
H2513 H 0.49371 0.42659 0.27341 0.0
H2514 H 0.47908 0.43626 0.20805 0.0
H2515 H 0.46842 0.45869 0.17377 0.0
H2516 H 0.48543 0.51409 0.24543 0.0
H2517 H 0.50256 0.50595 0.30946 0.0
C2518 C 0.50444 0.47175 0.31797 0.0
C2519 C 0.50386 0.45309 0.317 0.0
C2520 C 0.49559 0.47745 0.27934 0.0
C2521 C 0.49481 0.44099 0.27577 0.0
C2522 C 0.4862 0.44648 0.23811 0.0
C2523 C 0.47607 0.46922 0.20298 0.0
C2524 C 0.47541 0.48714 0.20388 0.0
C2525 C 0.48607 0.46444 0.23973 0.0
C2526 C 0.4856 0.50032 0.24271 0.0
C2527 C 0.49539 0.49554 0.2798 0.0
H2528 H 0.64276 0.07375 0.26476 0.0
H2529 H 0.60027 0.04864 0.38149 0.0
H2530 H 0.58173 1.01757 0.33505 0.0
H2531 H 0.57889 0.99589 0.26243 0.0
H2532 H 0.62077 1.02276 0.14468 0.0
H2533 H 0.63769 0.05402 0.18934 0.0
C2534 C 0.62913 0.06171 0.2797 0.0
C2535 C 0.62301 0.0641 0.32696 0.0
C2536 C 0.61834 0.0437 0.25231 0.0
C2537 C 0.60538 0.04783 0.34524 0.0
C2538 C 0.5948 1.02978 0.31861 0.0
C2539 C 0.59147 1.00867 0.24602 0.0
C2540 C 0.59838 1.00648 0.19938 0.0
C2541 C 0.60127 1.02727 0.27223 0.0
C2542 C 0.61492 1.02355 0.17993 0.0
C2543 C 0.62474 0.04163 0.20575 0.0
H2544 H 0.47165 1.02679 0.67571 0.0
H2545 H 0.48825 0.98828 0.74813 0.0
H2546 H 0.50458 1.01324 0.81329 0.0
H2547 H 0.5119 0.04568 0.85441 0.0
H2548 H 0.49434 0.083 0.77891 0.0
H2549 H 0.48117 0.05939 0.71162 0.0
C2550 C 0.47916 1.02387 0.70518 0.0
C2551 C 0.47868 1.00537 0.70581 0.0
C2552 C 0.48847 0.03838 0.74293 0.0
C2553 C 0.48845 1.00223 0.74533 0.0
C2554 C 0.49773 1.01661 0.78315 0.0
C2555 C 0.50573 0.04896 0.82264 0.0
C2556 C 0.50462 0.06675 0.82228 0.0
C2557 C 0.49763 1.03475 0.78306 0.0
C2558 C 0.49584 0.06993 0.78076 0.0
C2559 C 0.48808 0.05622 0.74199 0.0
H2560 H 0.05746 0.46314 0.66842 0.0
H2561 H 0.09642 0.51774 0.74299 0.0
H2562 H 0.071 0.50927 0.80666 0.0
H2563 H 1.03796 0.48432 0.84598 0.0
H2564 H 1.00024 0.42994 0.76843 0.0
H2565 H 1.02438 0.44032 0.70245 0.0
C2566 C 0.0604 0.4735 0.69803 0.0
C2567 C 0.07918 0.49132 0.69969 0.0
C2568 C 1.04563 0.46839 0.73492 0.0
C2569 C 0.0823 0.50415 0.73936 0.0
C2570 C 0.06765 0.49914 0.77634 0.0
C2571 C 1.03471 0.47499 0.81401 0.0
C2572 C 1.01662 0.45625 0.81266 0.0
C2573 C 1.04923 0.48106 0.77524 0.0
C2574 C 1.01351 0.44441 0.77097 0.0
C2575 C 1.02753 0.45033 0.73298 0.0
H2576 H 0.59236 0.57845 0.67519 0.0
H2577 H 0.60031 0.6315 0.74479 0.0
H2578 H 0.61565 0.62493 0.81557 0.0
H2579 H 0.62948 0.60541 0.8557 0.0
H2580 H 0.61969 0.55135 0.78804 0.0
H2581 H 0.60256 0.55689 0.71964 0.0
C2582 C 0.59698 0.58838 0.70635 0.0
C2583 C 0.59477 0.60547 0.70404 0.0
C2584 C 0.60581 0.58438 0.74752 0.0
C2585 C 0.60126 0.61811 0.74507 0.0
C2586 C 0.61032 0.61441 0.78562 0.0
C2587 C 0.62334 0.59462 0.82638 0.0
C2588 C 0.62606 0.57783 0.82773 0.0
C2589 C 0.61306 0.5978 0.78704 0.0
C2590 C 0.61787 0.56423 0.78887 0.0
C2591 C 0.60809 0.56751 0.74937 0.0
H2592 H 0.2682 0.26165 0.35334 0.0
H2593 H 0.22498 0.26096 0.25416 0.0
H2594 H 0.23585 0.24647 0.19044 0.0
H2595 H 0.2573 0.23296 0.16157 0.0
H2596 H 0.30161 0.23489 0.25906 0.0
H2597 H 0.29067 0.24924 0.32317 0.0
C2598 C 0.2615 0.25895 0.31743 0.0
C2599 C 0.24599 0.26338 0.30908 0.0
C2600 C 0.26799 0.2504 0.27998 0.0
C2601 C 0.23707 0.25837 0.26237 0.0
C2602 C 0.24332 0.24991 0.22554 0.0
C2603 C 0.26476 0.23664 0.19668 0.0
C2604 C 0.28043 0.23246 0.20453 0.0
C2605 C 0.25872 0.24571 0.23365 0.0
C2606 C 0.28968 0.23773 0.25086 0.0
C2607 C 0.28341 0.24615 0.28789 0.0
H2608 H 0.82529 0.05002 0.18135 0.0
H2609 H 0.88219 0.08211 0.2525 0.0
H2610 H 0.87174 0.05558 0.31293 0.0
H2611 H 0.8468 1.02238 0.34663 0.0
H2612 H 0.79066 0.98875 0.27327 0.0
H2613 H 0.80064 1.01561 0.21347 0.0
C2614 C 0.83541 0.05141 0.21027 0.0
C2615 C 0.85473 0.06885 0.21175 0.0
C2616 C 0.82941 0.03533 0.24515 0.0
C2617 C 0.86734 0.06944 0.24967 0.0
C2618 C 0.86132 0.05403 0.28465 0.0
C2619 C 0.83657 1.02084 0.31783 0.0
C2620 C 0.81767 1.00303 0.3159 0.0
C2621 C 0.84244 0.03675 0.28294 0.0
C2622 C 0.80508 1.00193 0.27725 0.0
C2623 C 0.81081 1.01759 0.24275 0.0
H2624 H 1.03891 0.80311 0.17278 0.0
H2625 H 1.00198 0.81836 0.25656 0.0
H2626 H 1.02781 0.8334 0.31939 0.0
H2627 H 0.06158 0.84288 0.35217 0.0
H2628 H 0.09859 0.82735 0.26897 0.0
H2629 H 0.0726 0.81189 0.20656 0.0
C2630 C 1.03606 0.8089 0.20554 0.0
C2631 C 1.01757 0.80849 0.20967 0.0
C2632 C 0.05144 0.81787 0.24237 0.0
C2633 C 1.01547 0.81782 0.25165 0.0
C2634 C 1.03045 0.82658 0.28803 0.0
C2635 C 0.06407 0.83609 0.32049 0.0
C2636 C 0.08262 0.8366 0.3164 0.0
C2637 C 1.04863 0.82682 0.28407 0.0
C2638 C 0.08489 0.82742 0.27436 0.0
C2639 C 0.06978 0.81841 0.23821 0.0
H2640 H 0.82838 0.79965 0.67945 0.0
H2641 H 0.88314 0.82008 0.75709 0.0
H2642 H 0.87295 0.83636 0.81745 0.0
H2643 H 0.84857 0.84577 0.84935 0.0
H2644 H 0.79394 0.82603 0.77076 0.0
H2645 H 0.80365 0.80886 0.71184 0.0
C2646 C 0.83785 0.80708 0.71016 0.0
C2647 C 0.85648 0.80774 0.71326 0.0
C2648 C 0.83186 0.81695 0.74528 0.0
C2649 C 0.86871 0.81875 0.75293 0.0
C2650 C 0.86284 0.82824 0.78788 0.0
C2651 C 0.83867 0.83773 0.81936 0.0
C2652 C 0.82025 0.8375 0.81566 0.0
C2653 C 0.84448 0.82764 0.78461 0.0
C2654 C 0.80803 0.82671 0.77583 0.0
C2655 C 0.81366 0.81672 0.74163 0.0
H2656 H 0.27659 1.01941 0.83432 0.0
H2657 H 0.21749 0.9895 0.77511 0.0
H2658 H 0.22703 1.01608 0.71529 0.0
H2659 H 0.2519 0.04876 0.67894 0.0
H2660 H 0.31057 0.08021 0.74081 0.0
H2661 H 0.30172 0.0528 0.79837 0.0
C2662 C 0.26583 1.01851 0.80812 0.0
C2663 C 0.24616 1.00172 0.81001 0.0
C2664 C 0.27142 1.03456 0.77352 0.0
C2665 C 0.23266 1.00169 0.77544 0.0
C2666 C 0.23815 1.01714 0.74081 0.0
C2667 C 0.26286 0.04978 0.70498 0.0
C2668 C 0.2822 0.06705 0.70408 0.0
C2669 C 0.25744 1.03382 0.73941 0.0
C2670 C 0.29577 0.06745 0.73905 0.0
C2671 C 0.2906 0.05159 0.77261 0.0
H2672 H 1.04036 0.25623 0.67577 0.0
H2673 H 1.00087 0.20654 0.76524 0.0
H2674 H 1.02668 0.21692 0.82798 0.0
H2675 H 0.06127 0.23996 0.8587 0.0
H2676 H 0.10042 0.2905 0.77072 0.0
H2677 H 0.07444 0.28041 0.70844 0.0
C2678 C 1.03696 0.24812 0.70978 0.0
C2679 C 1.01779 0.23087 0.71558 0.0
C2680 C 0.05226 0.25433 0.74665 0.0
C2681 C 1.01492 0.21998 0.75913 0.0
C2682 C 1.0299 0.22595 0.79541 0.0
C2683 C 0.06423 0.24887 0.82598 0.0
C2684 C 0.08338 0.26616 0.82036 0.0
C2685 C 1.04877 0.24306 0.78979 0.0
C2686 C 0.08624 0.27726 0.77716 0.0
C2687 C 0.07118 0.27143 0.74109 0.0
H2688 H 0.93602 0.59772 0.68838 0.0
H2689 H 0.89167 0.59562 0.59076 0.0
H2690 H 0.90247 0.58099 0.52692 0.0
H2691 H 0.92396 0.56733 0.49789 0.0
H2692 H 0.97001 0.57181 0.59324 0.0
H2693 H 0.9592 0.58638 0.65712 0.0
C2694 C 0.92872 0.59422 0.65309 0.0
C2695 C 0.91276 0.59805 0.64549 0.0
C2696 C 0.93534 0.58586 0.61539 0.0
C2697 C 0.9039 0.5932 0.59868 0.0
C2698 C 0.9101 0.58464 0.5618 0.0
C2699 C 0.93174 0.57149 0.53256 0.0
C2700 C 0.94786 0.56787 0.53985 0.0
C2701 C 0.9257 0.58064 0.56952 0.0
C2702 C 0.95762 0.57398 0.58551 0.0
C2703 C 0.95136 0.58246 0.62251 0.0
H2704 H 0.54235 0.40276 0.58496 0.0
H2705 H 0.48868 0.38568 0.50462 0.0
H2706 H 0.47111 0.35555 0.55331 0.0
H2707 H 0.47043 0.3324 0.61953 0.0
H2708 H 0.52385 0.3508 0.70278 0.0
H2709 H 0.5413 0.3807 0.6532 0.0
C2710 C 0.52675 0.39262 0.57814 0.0
C2711 C 0.51716 0.3975 0.54053 0.0
C2712 C 0.51634 0.3748 0.60731 0.0
C2713 C 0.49684 0.38344 0.53322 0.0
C2714 C 0.48662 0.36571 0.56124 0.0
C2715 C 0.48586 0.3429 0.62719 0.0
C2716 C 0.49547 0.33863 0.66611 0.0
C2717 C 0.49611 0.36099 0.59858 0.0
C2718 C 0.51565 0.35301 0.67387 0.0
C2719 C 0.52582 0.37045 0.64521 0.0
H2720 H 0.70472 0.13413 0.5108 0.0
H2721 H 0.66928 0.15259 0.59011 0.0
H2722 H 0.69554 0.16862 0.65146 0.0
H2723 H 0.72926 0.17821 0.68395 0.0
H2724 H 0.76547 0.16073 0.60403 0.0
H2725 H 0.7388 0.14368 0.5437 0.0
C2726 C 0.70241 0.14108 0.54209 0.0
C2727 C 0.6842 0.14127 0.54544 0.0
C2728 C 0.71814 0.15081 0.5778 0.0
C2729 C 0.68258 0.15166 0.58579 0.0
C2730 C 0.69782 0.16099 0.62129 0.0
C2731 C 0.73147 0.17072 0.65336 0.0
C2732 C 0.74992 0.17103 0.64974 0.0
C2733 C 0.7158 0.16084 0.61788 0.0
C2734 C 0.75185 0.16097 0.60905 0.0
C2735 C 0.73637 0.15108 0.57408 0.0
H2736 H 0.49838 0.15579 0.19816 0.0
H2737 H 0.48163 0.18453 0.08932 0.0
H2738 H 0.49562 0.17317 0.02507 0.0
H2739 H 0.51386 0.15556 0.99858 0.0
H2740 H 0.52531 0.12215 0.10604 0.0
H2741 H 0.51233 0.13444 0.17042 0.0
C2742 C 0.49757 0.15947 0.16041 0.0
C2743 C 0.48883 0.17139 0.14971 0.0
C2744 C 0.50496 0.15197 0.12266 0.0
C2745 C 0.48805 0.17556 0.09975 0.0
C2746 C 0.49621 0.16903 0.06261 0.0
C2747 C 0.51351 0.15086 0.03601 0.0
C2748 C 0.52117 0.13797 0.04655 0.0
C2749 C 0.50493 0.15733 0.07335 0.0
C2750 C 0.51992 0.13202 0.09584 0.0
C2751 C 0.51241 0.13914 0.13308 0.0
H2752 H 0.90811 0.35576 0.17724 0.0
H2753 H 0.93338 0.3236 0.1102 0.0
H2754 H 0.95039 0.35037 0.05013 0.0
H2755 H 0.95779 0.38323 1.01328 0.0
H2756 H 0.93146 0.41464 0.079 0.0
H2757 H 0.91567 0.38853 0.14106 0.0
C2758 C 0.9173 0.35446 0.14957 0.0
C2759 C 0.9192 0.33711 0.14961 0.0
C2760 C 0.92715 0.3702 0.11403 0.0
C2761 C 0.93144 0.33638 0.11256 0.0
C2762 C 0.94126 0.35189 0.07762 0.0
C2763 C 0.94888 0.38463 0.04157 0.0
C2764 C 0.94647 0.40171 0.04109 0.0
C2765 C 0.93929 0.36898 0.07758 0.0
C2766 C 0.93418 0.40232 0.07802 0.0
C2767 C 0.92493 0.38712 0.11377 0.0
H2768 H 0.7342 0.5683 0.17552 0.0
H2769 H 0.76058 0.62954 0.1323 0.0
H2770 H 0.73299 0.6208 0.07555 0.0
H2771 H 0.70089 0.59537 0.03549 0.0
H2772 H 0.6767 0.53385 0.07234 0.0
H2773 H 0.70309 0.5429 0.13287 0.0
C2774 C 0.73407 0.57985 0.15376 0.0
C2775 C 0.74995 0.59987 0.15983 0.0
C2776 C 0.71807 0.57454 0.1194 0.0
C2777 C 0.74893 0.61417 0.13004 0.0
C2778 C 0.73295 0.60909 0.09702 0.0
C2779 C 0.70116 0.58392 0.05694 0.0
C2780 C 0.68595 0.56374 0.04894 0.0
C2781 C 0.71728 0.58929 0.09112 0.0
C2782 C 0.68752 0.54942 0.07728 0.0
C2783 C 0.70289 0.55465 0.11213 0.0
H2784 H 0.62728 0.92734 0.85801 0.0
H2785 H 0.59483 0.86752 0.91255 0.0
H2786 H 0.57786 0.87733 0.97148 0.0
H2787 H 0.57112 0.90273 1.00854 0.0
H2788 H 0.60148 0.96213 0.95062 0.0
H2789 H 0.61983 0.9529 0.894 0.0
C2790 C 0.61663 0.91645 0.88283 0.0
C2791 C 0.6128 0.89649 0.87992 0.0
C2792 C 0.60622 0.92221 0.91689 0.0
C2793 C 0.59849 0.88289 0.91299 0.0
C2794 C 0.58859 0.88854 0.94712 0.0
C2795 C 0.58171 0.91377 0.98358 0.0
C2796 C 0.58483 0.93346 0.98557 0.0
C2797 C 0.59212 0.90813 0.94953 0.0
C2798 C 0.59876 0.9471 0.95185 0.0
C2799 C 0.6093 0.9417 0.91872 0.0
H2800 H 0.15187 0.69142 0.02043 0.0
H2801 H 0.16777 0.65437 0.93865 0.0
H2802 H 0.18338 0.68032 0.87598 0.0
H2803 H 0.19364 0.71448 0.84357 0.0
H2804 H 0.17709 0.75126 0.92454 0.0
H2805 H 0.16129 0.72521 0.98682 0.0
C2806 C 0.15862 0.68886 0.98885 0.0
C2807 C 0.15825 0.67034 0.98517 0.0
C2808 C 0.16781 0.70422 0.95211 0.0
C2809 C 0.16739 0.66797 0.94326 0.0
C2810 C 0.17651 0.68304 0.9071 0.0
C2811 C 0.18661 0.71693 0.87478 0.0
C2812 C 0.18702 0.73548 0.87843 0.0
C2813 C 0.17702 0.7014 0.91096 0.0
C2814 C 0.17736 0.73761 0.91967 0.0
C2815 C 0.16816 0.7225 0.9557 0.0
H2816 H 0.39796 0.51197 1.00904 0.0
H2817 H 0.42735 0.48285 0.94749 0.0
H2818 H 0.39997 0.46527 0.88939 0.0
H2819 H 0.36703 0.45819 0.85327 0.0
H2820 H 0.3394 0.48957 0.91153 0.0
H2821 H 0.366 0.50574 0.97177 0.0
C2822 C 0.39854 0.50183 0.98294 0.0
C2823 C 0.41517 0.49885 0.98425 0.0
C2824 C 0.38262 0.49191 0.94807 0.0
C2825 C 0.41506 0.48554 0.94902 0.0
C2826 C 0.39921 0.47541 0.91515 0.0
C2827 C 0.36669 0.46843 0.87921 0.0
C2828 C 0.35054 0.4722 0.877 0.0
C2829 C 0.38276 0.47838 0.91398 0.0
C2830 C 0.35112 0.48599 0.91142 0.0
C2831 C 0.36656 0.49541 0.94629 0.0
H2832 H 0.15487 0.48199 0.52249 0.0
H2833 H 0.16407 0.53113 0.43226 0.0
H2834 H 0.17973 0.5211 0.36977 0.0
H2835 H 0.19157 0.49851 0.33919 0.0
H2836 H 0.18181 0.44873 0.4279 0.0
H2837 H 0.16574 0.45846 0.49041 0.0
C2838 C 0.15951 0.4901 0.48847 0.0
C2839 C 0.1572 0.50709 0.48236 0.0
C2840 C 0.16883 0.48413 0.45176 0.0
C2841 C 0.165 0.51791 0.43866 0.0
C2842 C 0.17413 0.51213 0.40251 0.0
C2843 C 0.18598 0.48969 0.37217 0.0
C2844 C 0.18833 0.47273 0.37787 0.0
C2845 C 0.17629 0.49531 0.40841 0.0
C2846 C 0.18054 0.46175 0.42142 0.0
C2847 C 0.17116 0.46736 0.45755 0.0
H2848 H 0.62569 0.71603 0.35271 0.0
H2849 H 0.59692 0.74556 0.41601 0.0
H2850 H 0.58076 0.71901 0.4763 0.0
H2851 H 0.57363 0.68657 0.51208 0.0
H2852 H 0.59993 0.6552 0.44617 0.0
H2853 H 0.61738 0.68238 0.38733 0.0
C2854 C 0.61607 0.71685 0.37989 0.0
C2855 C 0.61305 0.73355 0.37916 0.0
C2856 C 0.60599 0.70075 0.41467 0.0
C2857 C 0.59995 0.73345 0.41488 0.0
C2858 C 0.59052 0.71803 0.44977 0.0
C2859 C 0.58317 0.68554 0.48495 0.0
C2860 C 0.58527 0.66835 0.48499 0.0
C2861 C 0.59322 0.70145 0.45015 0.0
C2862 C 0.59787 0.66789 0.44853 0.0
C2863 C 0.60803 0.68369 0.41446 0.0
H2864 H 0.40056 0.94147 0.50911 0.0
H2865 H 0.43295 0.91671 0.44062 0.0
H2866 H 0.40689 0.90064 0.37901 0.0
H2867 H 0.37398 0.89241 0.3434 0.0
H2868 H 0.34014 0.91494 0.41434 0.0
H2869 H 0.36666 0.932 0.4748 0.0
C2870 C 0.40211 0.93275 0.48051 0.0
C2871 C 0.41946 0.93086 0.4802 0.0
C2872 C 0.38633 0.92272 0.44488 0.0
C2873 C 0.4203 0.91887 0.44262 0.0
C2874 C 0.40517 0.9095 0.40695 0.0
C2875 C 0.3723 0.9011 0.3719 0.0
C2876 C 0.35455 0.90218 0.37285 0.0
C2877 C 0.38795 0.9111 0.40752 0.0
C2878 C 0.35327 0.91368 0.41112 0.0
C2879 C 0.36871 0.92367 0.4461 0.0
H2880 H 0.31391 0.3245 0.06638 0.0
H2881 H 0.32567 0.35604 0.20272 0.0
H2882 H 0.33658 0.38713 0.1586 0.0
H2883 H 0.35308 0.40549 0.08474 0.0
H2884 H 0.34683 0.37417 0.95005 0.0
H2885 H 0.3231 0.34289 0.98915 0.0
C2886 C 0.31781 0.33803 0.08625 0.0
C2887 C 0.31934 0.33821 0.13749 0.0
C2888 C 0.32572 0.356 0.06059 0.0
C2889 C 0.32449 0.35571 0.16321 0.0
C2890 C 0.33103 0.3735 0.1379 0.0
C2891 C 0.34577 0.39198 0.0632 0.0
C2892 C 0.35203 0.392 0.01494 0.0
C2893 C 0.33333 0.37398 0.08691 0.0
C2894 C 0.34246 0.37441 0.9875 0.0
C2895 C 0.32904 0.35652 1.01003 0.0
H2896 H 0.68123 0.96367 0.16875 0.0
H2897 H 0.69729 0.96032 0.01944 0.0
H2898 H 0.73029 0.96832 0.04662 0.0
H2899 H 0.75633 0.98844 0.1062 0.0
H2900 H 0.73966 0.99792 0.24927 0.0
H2901 H 0.70546 0.97343 0.23332 0.0
C2902 C 0.69142 0.96365 0.14197 0.0
C2903 C 0.68717 0.96271 0.09159 0.0
C2904 C 0.71065 0.96946 0.15744 0.0
C2905 C 0.70058 0.96215 0.05821 0.0
C2906 C 0.71947 0.96668 0.07378 0.0
C2907 C 0.74523 0.98459 0.13442 0.0
C2908 C 0.75016 0.99635 0.17693 0.0
C2909 C 0.72517 0.97243 0.12244 0.0
C2910 C 0.73621 0.99 0.21502 0.0
C2911 C 0.71642 0.97617 0.20547 0.0
H2912 H 0.08217 0.77131 0.09637 0.0
H2913 H 0.08967 0.75396 0.24085 0.0
H2914 H 0.11354 0.7453 0.2096 0.0
H2915 H 0.12121 0.73133 0.13878 0.0
H2916 H 0.10709 0.7422 0.99402 0.0
H2917 H 0.09814 0.76573 0.02679 0.0
C2918 C 0.08976 0.7666 0.12154 0.0
C2919 C 0.08372 0.76265 0.17074 0.0
C2920 C 0.10216 0.76014 0.10244 0.0
C2921 C 0.09379 0.75669 0.20282 0.0
C2922 C 0.10734 0.7516 0.18474 0.0
C2923 C 0.11714 0.73971 0.1144 0.0
C2924 C 0.11389 0.73456 0.06467 0.0
C2925 C 0.11006 0.7515 0.13411 0.0
C2926 C 0.10923 0.74569 0.03268 0.0
C2927 C 0.10377 0.75886 0.0516 0.0
H2928 H 0.41956 0.33597 0.37234 0.0
H2929 H 0.39168 0.32597 0.51339 0.0
H2930 H 0.35959 0.30301 0.47701 0.0
H2931 H 0.33951 0.29775 0.40414 0.0
H2932 H 0.36753 0.31527 0.26308 0.0
H2933 H 0.39917 0.32282 0.29903 0.0
C2934 C 0.40652 0.328 0.39522 0.0
C2935 C 0.40762 0.33326 0.44476 0.0
C2936 C 0.38794 0.31665 0.37322 0.0
C2937 C 0.39103 0.32249 0.47485 0.0
C2938 C 0.37261 0.30961 0.45383 0.0
C2939 C 0.35233 0.30223 0.38086 0.0
C2940 C 0.35142 0.30651 0.33123 0.0
C2941 C 0.37074 0.30833 0.40269 0.0
C2942 C 0.36802 0.31221 0.30139 0.0
C2943 C 0.38615 0.31672 0.32218 0.0
H2944 H 0.7883 0.06282 0.43701 0.0
H2945 H 0.77203 0.07762 0.29944 0.0
H2946 H 0.76471 0.10098 0.34067 0.0
H2947 H 0.75172 0.10657 0.41564 0.0
H2948 H 0.7618 0.0862 0.55364 0.0
H2949 H 0.78324 0.07612 0.51316 0.0
C2950 C 0.78419 0.07202 0.41591 0.0
C2951 C 0.78024 0.06835 0.36567 0.0
C2952 C 0.77826 0.0839 0.44049 0.0
C2953 C 0.77495 0.08019 0.33828 0.0
C2954 C 0.7705 0.09329 0.36203 0.0
C2955 C 0.75938 0.10086 0.43747 0.0
C2956 C 0.75463 0.09644 0.48728 0.0
C2957 C 0.77033 0.09375 0.41335 0.0
C2958 C 0.76484 0.08923 0.51498 0.0
C2959 C 0.77696 0.08333 0.49172 0.0
H2960 H 1.0289 0.74231 0.42884 0.0
H2961 H 1.01768 0.71005 0.2938 0.0
H2962 H 0.99507 0.67912 0.33559 0.0
H2963 H 0.98827 0.66109 0.41261 0.0
H2964 H 1.00621 0.69317 0.54865 0.0
H2965 H 1.01579 0.72422 0.50547 0.0
C2966 C 1.02066 0.72862 0.40829 0.0
C2967 C 1.02489 0.72829 0.3585 0.0
C2968 C 1.00926 0.71074 0.43351 0.0
C2969 C 1.01447 0.71056 0.33205 0.0
C2970 C 1.0018 0.69285 0.3562 0.0
C2971 C 0.99331 0.67476 0.43294 0.0
C2972 C 0.99681 0.67507 0.48341 0.0
C2973 C 1.00044 0.69263 0.40738 0.0
C2974 C 1.00352 0.69276 0.50967 0.0
C2975 C 1.00922 0.71049 0.48485 0.0
H2976 H 0.74881 0.66738 0.8975 0.0
H2977 H 0.76018 0.69804 0.03543 0.0
H2978 H 0.7846 0.72898 0.99624 0.0
H2979 H 0.79396 0.74795 0.9206 0.0
H2980 H 0.77799 0.71775 0.78174 0.0
H2981 H 0.76523 0.68586 0.82331 0.0
C2982 C 0.75726 0.68063 0.91944 0.0
C2983 C 0.7524 0.68063 0.969 0.0
C2984 C 0.77039 0.69849 0.89612 0.0
C2985 C 0.76341 0.69788 0.99698 0.0
C2986 C 0.77733 0.71553 0.97454 0.0
C2987 C 0.78867 0.73449 0.89923 0.0
C2988 C 0.78622 0.73503 0.84836 0.0
C2989 C 0.77976 0.71623 0.92361 0.0
C2990 C 0.77963 0.71757 0.82105 0.0
C2991 C 0.77202 0.69933 0.84494 0.0
H2992 H 0.35078 0.06511 0.95917 0.0
H2993 H 0.38356 0.0777 0.82436 0.0
H2994 H 0.41427 0.09993 0.86785 0.0
H2995 H 0.43182 0.10657 0.94555 0.0
H2996 H 0.39901 0.08886 0.08052 0.0
H2997 H 0.36826 0.07871 0.03602 0.0
C2998 C 0.36449 0.07343 0.93886 0.0
C2999 C 0.36506 0.06949 0.88886 0.0
C3000 C 0.38214 0.08508 0.96461 0.0
C3001 C 0.3829 0.08029 0.86304 0.0
C3002 C 0.40044 0.09289 0.88798 0.0
C3003 C 0.41808 0.10145 0.9655 0.0
C3004 C 0.41754 0.098 0.01615 0.0
C3005 C 0.40036 0.09411 0.93918 0.0
C3006 C 0.3997 0.0914 0.04155 0.0
C3007 C 0.38209 0.08534 0.01591 0.0
H3008 H 0.98534 0.33948 0.88303 0.0
H3009 H 1.0075 0.3352 0.0243 0.0
H3010 H 1.01423 0.30989 0.99315 0.0
H3011 H 1.0247 0.2992 0.92096 0.0
H3012 H 1.00833 0.30882 0.77753 0.0
H3013 H 0.98801 0.32117 0.81354 0.0
C3014 C 0.99099 0.33244 0.9073 0.0
C3015 C 0.99673 0.33971 0.95515 0.0
C3016 C 0.99628 0.31911 0.8881 0.0
C3017 C 1.00333 0.3301 0.98702 0.0
C3018 C 1.00741 0.31579 0.969 0.0
C3019 C 1.0158 0.30298 0.89766 0.0
C3020 C 1.01845 0.30379 0.84669 0.0
C3021 C 1.00559 0.3116 0.91874 0.0
C3022 C 1.00681 0.30854 0.81679 0.0
C3023 C 0.99539 0.31581 0.8375 0.0
H3024 H 0.72993 0.76043 0.72376 0.0
H3025 H 0.75951 0.78474 0.58634 0.0
H3026 H 0.72885 0.7789 0.55021 0.0
H3027 H 0.69356 0.75412 0.5484 0.0
H3028 H 0.66393 0.72515 0.68152 0.0
H3029 H 0.69387 0.74588 0.72846 0.0
C3030 C 0.72976 0.76511 0.68648 0.0
C3031 C 0.7467 0.77177 0.65716 0.0
C3032 C 0.71167 0.76041 0.66454 0.0
C3033 C 0.74662 0.77892 0.60977 0.0
C3034 C 0.72891 0.77539 0.58856 0.0
C3035 C 0.69338 0.75344 0.58807 0.0
C3036 C 0.67708 0.73781 0.61151 0.0
C3037 C 0.71116 0.76417 0.61402 0.0
C3038 C 0.67657 0.73704 0.66283 0.0
C3039 C 0.69388 0.74859 0.68956 0.0
H3040 H 0.34203 0.95451 0.61694 0.0
H3041 H 0.34428 0.97484 0.46918 0.0
H3042 H 0.31857 0.98258 0.48779 0.0
H3043 H 0.30845 0.99691 0.5514 0.0
H3044 H 0.31207 0.98361 0.70327 0.0
H3045 H 0.32254 0.96021 0.67842 0.0
C3046 C 0.33629 0.95996 0.58844 0.0
C3047 C 0.34604 0.96555 0.54293 0.0
C3048 C 0.32329 0.96669 0.6011 0.0
C3049 C 0.33766 0.97119 0.50519 0.0
C3050 C 0.32314 0.976 0.51615 0.0
C3051 C 0.31053 0.98833 0.57953 0.0
C3052 C 0.31065 0.99301 0.62943 0.0
C3053 C 0.31779 0.976 0.5651 0.0
C3054 C 0.3129 0.98111 0.66462 0.0
C3055 C 0.31889 0.9677 0.65039 0.0
H3056 H 0.11663 0.40982 0.59886 0.0
H3057 H 0.09619 0.37531 0.46659 0.0
H3058 H 0.08708 0.34504 0.51285 0.0
H3059 H 0.07479 0.32851 0.59148 0.0
H3060 H 0.08852 0.36322 0.72324 0.0
H3061 H 0.11094 0.39324 0.67763 0.0
C3062 C 0.11115 0.39579 0.57988 0.0
C3063 C 0.10672 0.39459 0.5297 0.0
C3064 C 0.10425 0.37839 0.60734 0.0
C3065 C 0.09955 0.37643 0.5053 0.0
C3066 C 0.0941 0.35914 0.53192 0.0
C3067 C 0.08351 0.34252 0.61051 0.0
C3068 C 0.07995 0.34386 0.66033 0.0
C3069 C 0.09481 0.35984 0.58324 0.0
C3070 C 0.09108 0.36198 0.68484 0.0
C3071 C 0.10367 0.37913 0.65857 0.0
H3072 H 1.02489 0.64512 0.61269 0.0
H3073 H 1.00932 0.60558 0.73578 0.0
H3074 H 1.04406 0.62202 0.76069 0.0
H3075 H 0.07454 0.65512 0.76395 0.0
H3076 H 0.08845 0.69531 0.64251 0.0
H3077 H 0.05879 0.67086 0.59953 0.0
C3078 C 1.02903 0.63912 0.64316 0.0
C3079 C 1.01436 0.62539 0.67488 0.0
C3080 C 1.04878 0.64939 0.65852 0.0
C3081 C 1.02029 0.6172 0.71266 0.0
C3082 C 1.04016 0.62676 0.72729 0.0
C3083 C 0.07153 0.65809 0.72712 0.0
C3084 C 0.08297 0.67719 0.70716 0.0
C3085 C 0.05402 0.64422 0.70342 0.0
C3086 C 0.0793 0.68086 0.65909 0.0
C3087 C 0.06237 0.66689 0.63453 0.0
H3088 H 0.4564 0.39285 0.75073 0.0
H3089 H 0.43777 0.40412 0.61167 0.0
H3090 H 0.42758 0.42559 0.65172 0.0
H3091 H 0.41475 0.43163 0.727 0.0
H3092 H 0.42881 0.41566 0.86629 0.0
H3093 H 0.4505 0.40592 0.82559 0.0
C3094 C 0.45102 0.40077 0.72875 0.0
C3095 C 0.44734 0.39656 0.67851 0.0
C3096 C 0.44389 0.4118 0.75251 0.0
C3097 C 0.4404 0.40693 0.65053 0.0
C3098 C 0.43439 0.41901 0.67355 0.0
C3099 C 0.42328 0.42691 0.74877 0.0
C3100 C 0.4199 0.42392 0.79945 0.0
C3101 C 0.43461 0.42017 0.72481 0.0
C3102 C 0.43097 0.41773 0.82713 0.0
C3103 C 0.44324 0.41206 0.8038 0.0
H3104 H 0.68979 0.08185 0.75459 0.0
H3105 H 0.67556 0.05151 0.616 0.0
H3106 H 0.65447 1.0199 0.65714 0.0
H3107 H 0.65041 1.00114 0.73186 0.0
H3108 H 0.66936 1.03152 0.87029 0.0
H3109 H 0.67798 0.06289 0.8303 0.0
C3110 C 0.68123 0.06846 0.73316 0.0
C3111 C 0.68462 0.06879 0.68256 0.0
C3112 C 0.67054 0.05027 0.75748 0.0
C3113 C 0.67339 0.05145 0.65509 0.0
C3114 C 0.66157 1.03337 0.67877 0.0
C3115 C 0.65552 1.01443 0.75377 0.0
C3116 C 0.65981 1.01417 0.80372 0.0
C3117 C 0.66156 1.0325 0.73005 0.0
C3118 C 0.6664 1.0315 0.83157 0.0
C3119 C 0.6714 0.04943 0.80864 0.0
H3120 H 0.44659 0.07661 0.28589 0.0
H3121 H 0.4324 0.04411 0.15049 0.0
H3122 H 0.42371 1.0136 0.19513 0.0
H3123 H 0.4106 0.99554 0.27127 0.0
H3124 H 0.41901 1.02741 0.40612 0.0
H3125 H 0.44013 0.05883 0.36391 0.0
C3126 C 0.44253 0.063 0.26622 0.0
C3127 C 0.43994 0.06238 0.21525 0.0
C3128 C 0.43608 0.04533 0.29242 0.0
C3129 C 0.43444 0.04476 0.18978 0.0
C3130 C 0.42927 1.02733 0.21539 0.0
C3131 C 0.41786 1.00927 0.29197 0.0
C3132 C 0.41297 1.00929 0.34146 0.0
C3133 C 0.42859 1.02723 0.2667 0.0
C3134 C 0.42242 1.02715 0.36783 0.0
C3135 C 0.43428 0.0451 0.34353 0.0
H3136 H 1.03839 0.41358 0.23117 0.0
H3137 H 1.00708 0.39072 0.36697 0.0
H3138 H 1.03599 0.41513 0.41265 0.0
H3139 H 0.07231 0.4332 0.41264 0.0
H3140 H 0.10382 0.45298 0.2764 0.0
H3141 H 0.07283 0.44107 0.2325 0.0
C3142 C 1.03755 0.41463 0.27055 0.0
C3143 C 1.02113 0.39984 0.296 0.0
C3144 C 0.0545 0.42816 0.29661 0.0
C3145 C 1.01998 0.40157 0.34691 0.0
C3146 C 1.03651 0.41549 0.37304 0.0
C3147 C 0.07237 0.43581 0.37376 0.0
C3148 C 0.09007 0.4427 0.34748 0.0
C3149 C 0.05435 0.42748 0.34834 0.0
C3150 C 0.09027 0.44704 0.29745 0.0
C3151 C 0.07244 0.43985 0.27202 0.0
H3152 H 0.69806 0.7044 0.48347 0.0
H3153 H 0.6437 0.6585 0.41957 0.0
H3154 H 0.66047 0.64073 0.39408 0.0
H3155 H 0.69254 0.64646 0.36234 0.0
H3156 H 0.74693 0.69335 0.42449 0.0
H3157 H 0.72808 0.70263 0.47817 0.0
C3158 C 0.68946 0.69009 0.46586 0.0
C3159 C 0.67033 0.68396 0.44777 0.0
C3160 C 0.69951 0.68065 0.44907 0.0
C3161 C 0.65908 0.66445 0.42981 0.0
C3162 C 0.66872 0.65437 0.41471 0.0
C3163 C 0.70031 0.65815 0.38901 0.0
C3164 C 0.72111 0.67003 0.38736 0.0
C3165 C 0.68939 0.66363 0.41925 0.0
C3166 C 0.73089 0.68474 0.42319 0.0
C3167 C 0.72013 0.68995 0.45421 0.0
loop_
_geom_bond_atom_site_label_1
_geom_bond_atom_site_label_2
_geom_bond_distance
_geom_bond_site_symmetry_2
_ccdc_geom_bond_type
Ho0 C3 2.811 . S
Ho0 O20 2.322 . S
Ho0 O22 2.378 . S
Ho0 O23 2.524 . S
Ho0 O24 2.381 . S
Ho0 O25 2.669 . S
Ho0 O27 2.346 . S
Ho0 O31 2.305 . S
Ho1 C12 2.811 . S
Ho1 O21 2.346 . S
Ho1 O25 2.305 . S
Ho1 O26 2.322 . S
Ho1 O28 2.378 . S
Ho1 O29 2.524 . S
Ho1 O30 2.381 . S
Ho1 O31 2.669 . S
C2 O20 1.259 . S
C2 O21 1.268 . S
C3 Ho0 2.811 . S
C3 C4 1.488 . S
C3 O22 1.215 . S
C3 O23 1.289 . S
C4 C3 1.488 . S
C4 C5 1.348 . S
C4 C9 1.413 . S
C5 C4 1.348 . S
C5 C6 1.442 . S
C5 H32 0.930 . S
C6 C5 1.442 . S
C6 C7 1.381 . S
C6 H33 0.931 . S
C7 C6 1.381 . S
C7 C8 1.321 . S
C8 C7 1.321 . S
C8 C9 1.403 . S
C8 H34 0.934 . S
C9 C4 1.413 . S
C9 C8 1.403 . S
C9 H35 0.930 . S
C10 O24 1.275 . S
C10 O25 1.256 . S
C11 O26 1.259 . S
C11 O27 1.268 . S
C12 Ho1 2.811 . S
C12 C13 1.488 . S
C12 O28 1.215 . S
C12 O29 1.289 . S
C13 C12 1.488 . S
C13 C14 1.348 . S
C13 C18 1.413 . S
C14 C13 1.348 . S
C14 C15 1.442 . S
C14 H36 0.930 . S
C15 C14 1.442 . S
C15 C16 1.381 . S
C15 H37 0.931 . S
C16 C15 1.381 . S
C16 C17 1.321 . S
C17 C16 1.321 . S
C17 C18 1.403 . S
C17 H38 0.934 . S
C18 C13 1.413 . S
C18 C17 1.403 . S
C18 H39 0.930 . S
C19 O30 1.275 . S
C19 O31 1.256 . S
O20 Ho0 2.322 . S
O20 C2 1.259 . S
O21 Ho1 2.346 . S
O21 C2 1.268 . S
O22 Ho0 2.378 . S
O22 C3 1.215 . S
O23 Ho0 2.524 . S
O23 C3 1.289 . S
O24 Ho0 2.381 . S
O24 C10 1.275 . S
O25 Ho0 2.669 . S
O25 Ho1 2.305 . S
O25 C10 1.256 . S
O26 Ho1 2.322 . S
O26 C11 1.259 . S
O27 Ho0 2.346 . S
O27 C11 1.268 . S
O28 Ho1 2.378 . S
O28 C12 1.215 . S
O29 Ho1 2.524 . S
O29 C12 1.289 . S
O30 Ho1 2.381 . S
O30 C19 1.275 . S
O31 Ho0 2.305 . S
O31 Ho1 2.669 . S
O31 C19 1.256 . S
H32 C5 0.930 . S
H33 C6 0.931 . S
H34 C8 0.934 . S
H35 C9 0.930 . S
H36 C14 0.930 . S
H37 C15 0.931 . S
H38 C17 0.934 . S
H39 C18 0.930 . S
Ho40 C43 2.811 . S
Ho40 O60 2.322 . S
Ho40 O62 2.378 . S
Ho40 O63 2.524 . S
Ho40 O64 2.381 . S
Ho40 O65 2.669 . S
Ho40 O67 2.346 . S
Ho40 O71 2.305 . S
Ho41 C52 2.811 . S
Ho41 O61 2.346 . S
Ho41 O65 2.305 . S
Ho41 O66 2.322 . S
Ho41 O68 2.378 . S
Ho41 O69 2.524 . S
Ho41 O70 2.381 . S
Ho41 O71 2.669 . S
C42 O60 1.259 . S
C42 O61 1.268 . S
C43 Ho40 2.811 . S
C43 C44 1.488 . S
C43 O62 1.215 . S
C43 O63 1.289 . S
C44 C43 1.488 . S
C44 C45 1.348 . S
C44 C49 1.413 . S
C45 C44 1.348 . S
C45 C46 1.442 . S
C45 H72 0.930 . S
C46 C45 1.442 . S
C46 C47 1.381 . S
C46 H73 0.931 . S
C47 C46 1.381 . S
C47 C48 1.321 . S
C48 C47 1.321 . S
C48 C49 1.403 . S
C48 H74 0.934 . S
C49 C44 1.413 . S
C49 C48 1.403 . S
C49 H75 0.930 . S
C50 O64 1.275 . S
C50 O65 1.256 . S
C51 O66 1.259 . S
C51 O67 1.268 . S
C52 Ho41 2.811 . S
C52 C53 1.488 . S
C52 O68 1.215 . S
C52 O69 1.289 . S
C53 C52 1.488 . S
C53 C54 1.348 . S
C53 C58 1.413 . S
C54 C53 1.348 . S
C54 C55 1.442 1_545 S
C54 H76 0.930 . S
C55 C54 1.442 1_565 S
C55 C56 1.381 . S
C55 H77 0.931 . S
C56 C55 1.381 . S
C56 C57 1.321 1_565 S
C57 C56 1.321 1_545 S
C57 C58 1.403 . S
C57 H78 0.934 . S
C58 C53 1.413 . S
C58 C57 1.403 . S
C58 H79 0.930 . S
C59 O70 1.275 . S
C59 O71 1.256 . S
O60 Ho40 2.322 . S
O60 C42 1.259 . S
O61 Ho41 2.346 . S
O61 C42 1.268 . S
O62 Ho40 2.378 . S
O62 C43 1.215 . S
O63 Ho40 2.524 . S
O63 C43 1.289 . S
O64 Ho40 2.381 . S
O64 C50 1.275 . S
O65 Ho40 2.669 . S
O65 Ho41 2.305 . S
O65 C50 1.256 . S
O66 Ho41 2.322 . S
O66 C51 1.259 . S
O67 Ho40 2.346 . S
O67 C51 1.268 . S
O68 Ho41 2.378 . S
O68 C52 1.215 . S
O69 Ho41 2.524 . S
O69 C52 1.289 . S
O70 Ho41 2.381 . S
O70 C59 1.275 . S
O71 Ho40 2.305 . S
O71 Ho41 2.669 . S
O71 C59 1.256 . S
H72 C45 0.930 . S
H73 C46 0.931 . S
H74 C48 0.934 . S
H75 C49 0.930 . S
H76 C54 0.930 . S
H77 C55 0.931 . S
H78 C57 0.934 . S
H79 C58 0.930 . S
Ho80 C83 2.811 . S
Ho80 O100 2.322 . S
Ho80 O102 2.378 . S
Ho80 O103 2.524 . S
Ho80 O104 2.381 . S
Ho80 O105 2.669 . S
Ho80 O107 2.346 . S
Ho80 O111 2.305 . S
Ho81 C92 2.811 . S
Ho81 O101 2.346 . S
Ho81 O105 2.305 . S
Ho81 O106 2.322 . S
Ho81 O108 2.378 . S
Ho81 O109 2.524 . S
Ho81 O110 2.381 . S
Ho81 O111 2.669 . S
C82 O100 1.259 . S
C82 O101 1.268 . S
C83 Ho80 2.811 . S
C83 C84 1.488 . S
C83 O102 1.215 . S
C83 O103 1.289 . S
C84 C83 1.488 . S
C84 C85 1.348 . S
C84 C89 1.413 . S
C85 C84 1.348 . S
C85 C86 1.442 . S
C85 H112 0.930 . S
C86 C85 1.442 . S
C86 C87 1.381 . S
C86 H113 0.931 . S
C87 C86 1.381 . S
C87 C88 1.321 . S
C88 C87 1.321 . S
C88 C89 1.403 . S
C88 H114 0.934 . S
C89 C84 1.413 . S
C89 C88 1.403 . S
C89 H115 0.930 . S
C90 O104 1.275 . S
C90 O105 1.256 . S
C91 O106 1.259 . S
C91 O107 1.268 . S
C92 Ho81 2.811 . S
C92 C93 1.488 . S
C92 O108 1.215 . S
C92 O109 1.289 . S
C93 C92 1.488 . S
C93 C94 1.348 . S
C93 C98 1.413 . S
C94 C93 1.348 . S
C94 C95 1.442 1_655 S
C94 H116 0.930 . S
C95 C94 1.442 1_455 S
C95 C96 1.381 . S
C95 H117 0.931 . S
C96 C95 1.381 . S
C96 C97 1.321 1_455 S
C97 C96 1.321 1_655 S
C97 C98 1.403 . S
C97 H118 0.934 . S
C98 C93 1.413 . S
C98 C97 1.403 . S
C98 H119 0.930 . S
C99 O110 1.275 . S
C99 O111 1.256 . S
O100 Ho80 2.322 . S
O100 C82 1.259 . S
O101 Ho81 2.346 . S
O101 C82 1.268 . S
O102 Ho80 2.378 . S
O102 C83 1.215 . S
O103 Ho80 2.524 . S
O103 C83 1.289 . S
O104 Ho80 2.381 . S
O104 C90 1.275 . S
O105 Ho80 2.669 . S
O105 Ho81 2.305 . S
O105 C90 1.256 . S
O106 Ho81 2.322 . S
O106 C91 1.259 . S
O107 Ho80 2.346 . S
O107 C91 1.268 . S
O108 Ho81 2.378 . S
O108 C92 1.215 . S
O109 Ho81 2.524 . S
O109 C92 1.289 . S
O110 Ho81 2.381 . S
O110 C99 1.275 . S
O111 Ho80 2.305 . S
O111 Ho81 2.669 . S
O111 C99 1.256 . S
H112 C85 0.930 . S
H113 C86 0.931 . S
H114 C88 0.934 . S
H115 C89 0.930 . S
H116 C94 0.930 . S
H117 C95 0.931 . S
H118 C97 0.934 . S
H119 C98 0.930 . S
Ho120 C123 2.811 . S
Ho120 O140 2.322 . S
Ho120 O142 2.378 . S
Ho120 O143 2.524 . S
Ho120 O144 2.381 . S
Ho120 O145 2.669 . S
Ho120 O147 2.346 . S
Ho120 O151 2.305 . S
Ho121 C132 2.811 . S
Ho121 O141 2.346 . S
Ho121 O145 2.305 . S
Ho121 O146 2.322 . S
Ho121 O148 2.378 . S
Ho121 O149 2.524 . S
Ho121 O150 2.381 . S
Ho121 O151 2.669 . S
C122 O140 1.259 . S
C122 O141 1.268 . S
C123 Ho120 2.811 . S
C123 C124 1.488 . S
C123 O142 1.215 . S
C123 O143 1.289 . S
C124 C123 1.488 . S
C124 C125 1.348 . S
C124 C129 1.413 . S
C125 C124 1.348 . S
C125 C126 1.442 . S
C125 H152 0.930 . S
C126 C125 1.442 . S
C126 C127 1.381 . S
C126 H153 0.931 . S
C127 C126 1.381 . S
C127 C128 1.321 . S
C128 C127 1.321 . S
C128 C129 1.403 . S
C128 H154 0.934 . S
C129 C124 1.413 . S
C129 C128 1.403 . S
C129 H155 0.930 . S
C130 O144 1.275 . S
C130 O145 1.256 . S
C131 O146 1.259 . S
C131 O147 1.268 . S
C132 Ho121 2.811 . S
C132 C133 1.488 . S
C132 O148 1.215 . S
C132 O149 1.289 . S
C133 C132 1.488 . S
C133 C134 1.348 . S
C133 C138 1.413 . S
C134 C133 1.348 . S
C134 C135 1.442 . S
C134 H156 0.930 . S
C135 C134 1.442 . S
C135 C136 1.381 . S
C135 H157 0.931 . S
C136 C135 1.381 . S
C136 C137 1.321 . S
C137 C136 1.321 . S
C137 C138 1.403 . S
C137 H158 0.934 . S
C138 C133 1.413 . S
C138 C137 1.403 . S
C138 H159 0.930 . S
C139 O150 1.275 . S
C139 O151 1.256 . S
O140 Ho120 2.322 . S
O140 C122 1.259 . S
O141 Ho121 2.346 . S
O141 C122 1.268 . S
O142 Ho120 2.378 . S
O142 C123 1.215 . S
O143 Ho120 2.524 . S
O143 C123 1.289 . S
O144 Ho120 2.381 . S
O144 C130 1.275 . S
O145 Ho120 2.669 . S
O145 Ho121 2.305 . S
O145 C130 1.256 . S
O146 Ho121 2.322 . S
O146 C131 1.259 . S
O147 Ho120 2.346 . S
O147 C131 1.268 . S
O148 Ho121 2.378 . S
O148 C132 1.215 . S
O149 Ho121 2.524 . S
O149 C132 1.289 . S
O150 Ho121 2.381 . S
O150 C139 1.275 . S
O151 Ho120 2.305 . S
O151 Ho121 2.669 . S
O151 C139 1.256 . S
H152 C125 0.930 . S
H153 C126 0.931 . S
H154 C128 0.934 . S
H155 C129 0.930 . S
H156 C134 0.930 . S
H157 C135 0.931 . S
H158 C137 0.934 . S
H159 C138 0.930 . S
Ho160 C163 2.811 . S
Ho160 O180 2.322 . S
Ho160 O182 2.378 . S
Ho160 O183 2.524 . S
Ho160 O184 2.381 . S
Ho160 O185 2.669 . S
Ho160 O187 2.346 . S
Ho160 O191 2.305 . S
Ho161 C172 2.811 . S
Ho161 O181 2.346 . S
Ho161 O185 2.305 . S
Ho161 O186 2.322 . S
Ho161 O188 2.378 . S
Ho161 O189 2.524 . S
Ho161 O190 2.381 . S
Ho161 O191 2.669 . S
C162 O180 1.259 . S
C162 O181 1.268 . S
C163 Ho160 2.811 . S
C163 C164 1.488 . S
C163 O182 1.215 . S
C163 O183 1.289 . S
C164 C163 1.488 . S
C164 C165 1.348 . S
C164 C169 1.413 . S
C165 C164 1.348 . S
C165 C166 1.442 . S
C165 H192 0.930 . S
C166 C165 1.442 . S
C166 C167 1.381 . S
C166 H193 0.931 . S
C167 C166 1.381 . S
C167 C168 1.321 . S
C168 C167 1.321 . S
C168 C169 1.403 . S
C168 H194 0.934 . S
C169 C164 1.413 . S
C169 C168 1.403 . S
C169 H195 0.930 . S
C170 O184 1.275 . S
C170 O185 1.256 . S
C171 O186 1.259 . S
C171 O187 1.268 . S
C172 Ho161 2.811 . S
C172 C173 1.488 . S
C172 O188 1.215 . S
C172 O189 1.289 . S
C173 C172 1.488 . S
C173 C174 1.348 . S
C173 C178 1.413 . S
C174 C173 1.348 . S
C174 C175 1.442 1_565 S
C174 H196 0.930 . S
C175 C174 1.442 1_545 S
C175 C176 1.381 . S
C175 H197 0.931 . S
C176 C175 1.381 . S
C176 C177 1.321 1_545 S
C177 C176 1.321 1_565 S
C177 C178 1.403 . S
C177 H198 0.934 . S
C178 C173 1.413 . S
C178 C177 1.403 . S
C178 H199 0.930 . S
C179 O190 1.275 . S
C179 O191 1.256 . S
O180 Ho160 2.322 . S
O180 C162 1.259 . S
O181 Ho161 2.346 . S
O181 C162 1.268 . S
O182 Ho160 2.378 . S
O182 C163 1.215 . S
O183 Ho160 2.524 . S
O183 C163 1.289 . S
O184 Ho160 2.381 . S
O184 C170 1.275 . S
O185 Ho160 2.669 . S
O185 Ho161 2.305 . S
O185 C170 1.256 . S
O186 Ho161 2.322 . S
O186 C171 1.259 . S
O187 Ho160 2.346 . S
O187 C171 1.268 . S
O188 Ho161 2.378 . S
O188 C172 1.215 . S
O189 Ho161 2.524 . S
O189 C172 1.289 . S
O190 Ho161 2.381 . S
O190 C179 1.275 . S
O191 Ho160 2.305 . S
O191 Ho161 2.669 . S
O191 C179 1.256 . S
H192 C165 0.930 . S
H193 C166 0.931 . S
H194 C168 0.934 . S
H195 C169 0.930 . S
H196 C174 0.930 . S
H197 C175 0.931 . S
H198 C177 0.934 . S
H199 C178 0.930 . S
Ho200 C203 2.811 . S
Ho200 O220 2.322 . S
Ho200 O222 2.378 . S
Ho200 O223 2.524 . S
Ho200 O224 2.381 . S
Ho200 O225 2.669 . S
Ho200 O227 2.346 . S
Ho200 O231 2.305 . S
Ho201 C212 2.811 . S
Ho201 O221 2.346 . S
Ho201 O225 2.305 . S
Ho201 O226 2.322 . S
Ho201 O228 2.378 . S
Ho201 O229 2.524 . S
Ho201 O230 2.381 . S
Ho201 O231 2.669 . S
C202 O220 1.259 . S
C202 O221 1.268 . S
C203 Ho200 2.811 . S
C203 C204 1.488 . S
C203 O222 1.215 . S
C203 O223 1.289 . S
C204 C203 1.488 . S
C204 C205 1.348 . S
C204 C209 1.413 . S
C205 C204 1.348 . S
C205 C206 1.442 . S
C205 H232 0.930 . S
C206 C205 1.442 . S
C206 C207 1.381 . S
C206 H233 0.931 . S
C207 C206 1.381 . S
C207 C208 1.321 . S
C208 C207 1.321 . S
C208 C209 1.403 . S
C208 H234 0.934 . S
C209 C204 1.413 . S
C209 C208 1.403 . S
C209 H235 0.930 . S
C210 O224 1.275 . S
C210 O225 1.256 . S
C211 O226 1.259 . S
C211 O227 1.268 . S
C212 Ho201 2.811 . S
C212 C213 1.488 . S
C212 O228 1.215 . S
C212 O229 1.289 . S
C213 C212 1.488 . S
C213 C214 1.348 . S
C213 C218 1.413 . S
C214 C213 1.348 . S
C214 C215 1.442 1_455 S
C214 H236 0.930 . S
C215 C214 1.442 1_655 S
C215 C216 1.381 . S
C215 H237 0.931 . S
C216 C215 1.381 . S
C216 C217 1.321 1_655 S
C217 C216 1.321 1_455 S
C217 C218 1.403 . S
C217 H238 0.934 . S
C218 C213 1.413 . S
C218 C217 1.403 . S
C218 H239 0.930 . S
C219 O230 1.275 . S
C219 O231 1.256 . S
O220 Ho200 2.322 . S
O220 C202 1.259 . S
O221 Ho201 2.346 . S
O221 C202 1.268 . S
O222 Ho200 2.378 . S
O222 C203 1.215 . S
O223 Ho200 2.524 . S
O223 C203 1.289 . S
O224 Ho200 2.381 . S
O224 C210 1.275 . S
O225 Ho200 2.669 . S
O225 Ho201 2.305 . S
O225 C210 1.256 . S
O226 Ho201 2.322 . S
O226 C211 1.259 . S
O227 Ho200 2.346 . S
O227 C211 1.268 . S
O228 Ho201 2.378 . S
O228 C212 1.215 . S
O229 Ho201 2.524 . S
O229 C212 1.289 . S
O230 Ho201 2.381 . S
O230 C219 1.275 . S
O231 Ho200 2.305 . S
O231 Ho201 2.669 . S
O231 C219 1.256 . S
H232 C205 0.930 . S
H233 C206 0.931 . S
H234 C208 0.934 . S
H235 C209 0.930 . S
H236 C214 0.930 . S
H237 C215 0.931 . S
H238 C217 0.934 . S
H239 C218 0.930 . S
Ho240 C243 2.811 . S
Ho240 O260 2.322 . S
Ho240 O262 2.378 . S
Ho240 O263 2.524 . S
Ho240 O264 2.381 . S
Ho240 O265 2.669 . S
Ho240 O267 2.346 . S
Ho240 O271 2.305 . S
Ho241 C252 2.811 . S
Ho241 O261 2.346 . S
Ho241 O265 2.305 . S
Ho241 O266 2.322 . S
Ho241 O268 2.378 . S
Ho241 O269 2.524 . S
Ho241 O270 2.381 . S
Ho241 O271 2.669 . S
C242 O260 1.259 . S
C242 O261 1.268 . S
C243 Ho240 2.811 . S
C243 C244 1.488 . S
C243 O262 1.215 . S
C243 O263 1.289 . S
C244 C243 1.488 . S
C244 C245 1.348 . S
C244 C249 1.413 . S
C245 C244 1.348 . S
C245 C246 1.442 . S
C245 H272 0.930 . S
C246 C245 1.442 . S
C246 C247 1.381 . S
C246 H273 0.931 . S
C247 C246 1.381 . S
C247 C248 1.321 . S
C248 C247 1.321 . S
C248 C249 1.403 . S
C248 H274 0.934 . S
C249 C244 1.413 . S
C249 C248 1.403 . S
C249 H275 0.930 . S
C250 O264 1.275 . S
C250 O265 1.256 . S
C251 O266 1.259 . S
C251 O267 1.268 . S
C252 Ho241 2.811 . S
C252 C253 1.488 . S
C252 O268 1.215 . S
C252 O269 1.289 . S
C253 C252 1.488 . S
C253 C254 1.348 . S
C253 C258 1.413 . S
C254 C253 1.348 . S
C254 C255 1.442 . S
C254 H276 0.930 . S
C255 C254 1.442 . S
C255 C256 1.381 . S
C255 H277 0.931 . S
C256 C255 1.381 . S
C256 C257 1.321 . S
C257 C256 1.321 . S
C257 C258 1.403 . S
C257 H278 0.934 . S
C258 C253 1.413 . S
C258 C257 1.403 . S
C258 H279 0.930 . S
C259 O270 1.275 . S
C259 O271 1.256 . S
O260 Ho240 2.322 . S
O260 C242 1.259 . S
O261 Ho241 2.346 . S
O261 C242 1.268 . S
O262 Ho240 2.378 . S
O262 C243 1.215 . S
O263 Ho240 2.524 . S
O263 C243 1.289 . S
O264 Ho240 2.381 . S
O264 C250 1.275 . S
O265 Ho240 2.669 . S
O265 Ho241 2.305 . S
O265 C250 1.256 . S
O266 Ho241 2.322 . S
O266 C251 1.259 . S
O267 Ho240 2.346 . S
O267 C251 1.268 . S
O268 Ho241 2.378 . S
O268 C252 1.215 . S
O269 Ho241 2.524 . S
O269 C252 1.289 . S
O270 Ho241 2.381 . S
O270 C259 1.275 . S
O271 Ho240 2.305 . S
O271 Ho241 2.669 . S
O271 C259 1.256 . S
H272 C245 0.930 . S
H273 C246 0.931 . S
H274 C248 0.934 . S
H275 C249 0.930 . S
H276 C254 0.930 . S
H277 C255 0.931 . S
H278 C257 0.934 . S
H279 C258 0.930 . S
Ho280 C283 2.811 . S
Ho280 O300 2.322 . S
Ho280 O302 2.378 . S
Ho280 O303 2.524 . S
Ho280 O304 2.381 . S
Ho280 O305 2.669 . S
Ho280 O307 2.346 . S
Ho280 O311 2.305 . S
Ho281 C292 2.811 . S
Ho281 O301 2.346 . S
Ho281 O305 2.305 . S
Ho281 O306 2.322 . S
Ho281 O308 2.378 . S
Ho281 O309 2.524 . S
Ho281 O310 2.381 . S
Ho281 O311 2.669 . S
C282 O300 1.259 . S
C282 O301 1.268 . S
C283 Ho280 2.811 . S
C283 C284 1.488 . S
C283 O302 1.215 . S
C283 O303 1.289 . S
C284 C283 1.488 . S
C284 C285 1.348 . S
C284 C289 1.413 . S
C285 C284 1.348 . S
C285 C286 1.442 1_565 S
C285 H312 0.930 . S
C286 C285 1.442 1_545 S
C286 C287 1.381 . S
C286 H313 0.931 . S
C287 C286 1.381 . S
C287 C288 1.321 1_545 S
C288 C287 1.321 1_565 S
C288 C289 1.403 . S
C288 H314 0.934 . S
C289 C284 1.413 . S
C289 C288 1.403 . S
C289 H315 0.930 . S
C290 O304 1.275 . S
C290 O305 1.256 . S
C291 O306 1.259 . S
C291 O307 1.268 . S
C292 Ho281 2.811 . S
C292 C293 1.488 . S
C292 O308 1.215 . S
C292 O309 1.289 . S
C293 C292 1.488 . S
C293 C294 1.348 . S
C293 C298 1.413 . S
C294 C293 1.348 . S
C294 C295 1.442 . S
C294 H316 0.930 . S
C295 C294 1.442 . S
C295 C296 1.381 . S
C295 H317 0.931 . S
C296 C295 1.381 . S
C296 C297 1.321 . S
C297 C296 1.321 . S
C297 C298 1.403 . S
C297 H318 0.934 . S
C298 C293 1.413 . S
C298 C297 1.403 . S
C298 H319 0.930 . S
C299 O310 1.275 . S
C299 O311 1.256 . S
O300 Ho280 2.322 . S
O300 C282 1.259 . S
O301 Ho281 2.346 . S
O301 C282 1.268 . S
O302 Ho280 2.378 . S
O302 C283 1.215 . S
O303 Ho280 2.524 . S
O303 C283 1.289 . S
O304 Ho280 2.381 . S
O304 C290 1.275 . S
O305 Ho280 2.669 . S
O305 Ho281 2.305 . S
O305 C290 1.256 . S
O306 Ho281 2.322 . S
O306 C291 1.259 . S
O307 Ho280 2.346 . S
O307 C291 1.268 . S
O308 Ho281 2.378 . S
O308 C292 1.215 . S
O309 Ho281 2.524 . S
O309 C292 1.289 . S
O310 Ho281 2.381 . S
O310 C299 1.275 . S
O311 Ho280 2.305 . S
O311 Ho281 2.669 . S
O311 C299 1.256 . S
H312 C285 0.930 . S
H313 C286 0.931 . S
H314 C288 0.934 . S
H315 C289 0.930 . S
H316 C294 0.930 . S
H317 C295 0.931 . S
H318 C297 0.934 . S
H319 C298 0.930 . S
Ho320 C323 2.811 . S
Ho320 O340 2.322 . S
Ho320 O342 2.378 . S
Ho320 O343 2.524 . S
Ho320 O344 2.381 . S
Ho320 O345 2.669 . S
Ho320 O347 2.346 . S
Ho320 O351 2.305 . S
Ho321 C332 2.811 . S
Ho321 O341 2.346 . S
Ho321 O345 2.305 . S
Ho321 O346 2.322 . S
Ho321 O348 2.378 . S
Ho321 O349 2.524 . S
Ho321 O350 2.381 . S
Ho321 O351 2.669 . S
C322 O340 1.259 . S
C322 O341 1.268 . S
C323 Ho320 2.811 . S
C323 C324 1.488 . S
C323 O342 1.215 . S
C323 O343 1.289 . S
C324 C323 1.488 . S
C324 C325 1.348 . S
C324 C329 1.413 . S
C325 C324 1.348 . S
C325 C326 1.442 1_455 S
C325 H352 0.930 . S
C326 C325 1.442 1_655 S
C326 C327 1.381 . S
C326 H353 0.931 . S
C327 C326 1.381 . S
C327 C328 1.321 1_655 S
C328 C327 1.321 1_455 S
C328 C329 1.403 . S
C328 H354 0.934 . S
C329 C324 1.413 . S
C329 C328 1.403 . S
C329 H355 0.930 . S
C330 O344 1.275 . S
C330 O345 1.256 . S
C331 O346 1.259 . S
C331 O347 1.268 . S
C332 Ho321 2.811 . S
C332 C333 1.488 . S
C332 O348 1.215 . S
C332 O349 1.289 . S
C333 C332 1.488 . S
C333 C334 1.348 . S
C333 C338 1.413 . S
C334 C333 1.348 . S
C334 C335 1.442 . S
C334 H356 0.930 . S
C335 C334 1.442 . S
C335 C336 1.381 . S
C335 H357 0.931 . S
C336 C335 1.381 . S
C336 C337 1.321 . S
C337 C336 1.321 . S
C337 C338 1.403 . S
C337 H358 0.934 . S
C338 C333 1.413 . S
C338 C337 1.403 . S
C338 H359 0.930 . S
C339 O350 1.275 . S
C339 O351 1.256 . S
O340 Ho320 2.322 . S
O340 C322 1.259 . S
O341 Ho321 2.346 . S
O341 C322 1.268 . S
O342 Ho320 2.378 . S
O342 C323 1.215 . S
O343 Ho320 2.524 . S
O343 C323 1.289 . S
O344 Ho320 2.381 . S
O344 C330 1.275 . S
O345 Ho320 2.669 . S
O345 Ho321 2.305 . S
O345 C330 1.256 . S
O346 Ho321 2.322 . S
O346 C331 1.259 . S
O347 Ho320 2.346 . S
O347 C331 1.268 . S
O348 Ho321 2.378 . S
O348 C332 1.215 . S
O349 Ho321 2.524 . S
O349 C332 1.289 . S
O350 Ho321 2.381 . S
O350 C339 1.275 . S
O351 Ho320 2.305 . S
O351 Ho321 2.669 . S
O351 C339 1.256 . S
H352 C325 0.930 . S
H353 C326 0.931 . S
H354 C328 0.934 . S
H355 C329 0.930 . S
H356 C334 0.930 . S
H357 C335 0.931 . S
H358 C337 0.934 . S
H359 C338 0.930 . S
Ho360 C363 2.811 . S
Ho360 O380 2.322 . S
Ho360 O382 2.378 . S
Ho360 O383 2.524 . S
Ho360 O384 2.381 . S
Ho360 O385 2.669 . S
Ho360 O387 2.346 . S
Ho360 O391 2.305 . S
Ho361 C372 2.811 . S
Ho361 O381 2.346 . S
Ho361 O385 2.305 . S
Ho361 O386 2.322 . S
Ho361 O388 2.378 . S
Ho361 O389 2.524 . S
Ho361 O390 2.381 . S
Ho361 O391 2.669 . S
C362 O380 1.259 . S
C362 O381 1.268 . S
C363 Ho360 2.811 . S
C363 C364 1.488 . S
C363 O382 1.215 . S
C363 O383 1.289 . S
C364 C363 1.488 . S
C364 C365 1.348 . S
C364 C369 1.413 . S
C365 C364 1.348 . S
C365 C366 1.442 . S
C365 H392 0.930 . S
C366 C365 1.442 . S
C366 C367 1.381 . S
C366 H393 0.931 . S
C367 C366 1.381 . S
C367 C368 1.321 . S
C368 C367 1.321 . S
C368 C369 1.403 . S
C368 H394 0.934 . S
C369 C364 1.413 . S
C369 C368 1.403 . S
C369 H395 0.930 . S
C370 O384 1.275 . S
C370 O385 1.256 . S
C371 O386 1.259 . S
C371 O387 1.268 . S
C372 Ho361 2.811 . S
C372 C373 1.488 . S
C372 O388 1.215 . S
C372 O389 1.289 . S
C373 C372 1.488 . S
C373 C374 1.348 . S
C373 C378 1.413 . S
C374 C373 1.348 . S
C374 C375 1.442 . S
C374 H396 0.930 . S
C375 C374 1.442 . S
C375 C376 1.381 . S
C375 H397 0.931 . S
C376 C375 1.381 . S
C376 C377 1.321 . S
C377 C376 1.321 . S
C377 C378 1.403 . S
C377 H398 0.934 . S
C378 C373 1.413 . S
C378 C377 1.403 . S
C378 H399 0.930 . S
C379 O390 1.275 . S
C379 O391 1.256 . S
O380 Ho360 2.322 . S
O380 C362 1.259 . S
O381 Ho361 2.346 . S
O381 C362 1.268 . S
O382 Ho360 2.378 . S
O382 C363 1.215 . S
O383 Ho360 2.524 . S
O383 C363 1.289 . S
O384 Ho360 2.381 . S
O384 C370 1.275 . S
O385 Ho360 2.669 . S
O385 Ho361 2.305 . S
O385 C370 1.256 . S
O386 Ho361 2.322 . S
O386 C371 1.259 . S
O387 Ho360 2.346 . S
O387 C371 1.268 . S
O388 Ho361 2.378 . S
O388 C372 1.215 . S
O389 Ho361 2.524 . S
O389 C372 1.289 . S
O390 Ho361 2.381 . S
O390 C379 1.275 . S
O391 Ho360 2.305 . S
O391 Ho361 2.669 . S
O391 C379 1.256 . S
H392 C365 0.930 . S
H393 C366 0.931 . S
H394 C368 0.934 . S
H395 C369 0.930 . S
H396 C374 0.930 . S
H397 C375 0.931 . S
H398 C377 0.934 . S
H399 C378 0.930 . S
Ho400 C403 2.811 . S
Ho400 O420 2.322 . S
Ho400 O422 2.378 . S
Ho400 O423 2.524 . S
Ho400 O424 2.381 . S
Ho400 O425 2.669 . S
Ho400 O427 2.346 . S
Ho400 O431 2.305 . S
Ho401 C412 2.811 . S
Ho401 O421 2.346 . S
Ho401 O425 2.305 . S
Ho401 O426 2.322 . S
Ho401 O428 2.378 . S
Ho401 O429 2.524 . S
Ho401 O430 2.381 . S
Ho401 O431 2.669 . S
C402 O420 1.259 . S
C402 O421 1.268 . S
C403 Ho400 2.811 . S
C403 C404 1.488 . S
C403 O422 1.215 . S
C403 O423 1.289 . S
C404 C403 1.488 . S
C404 C405 1.348 . S
C404 C409 1.413 . S
C405 C404 1.348 . S
C405 C406 1.442 1_545 S
C405 H432 0.930 . S
C406 C405 1.442 1_565 S
C406 C407 1.381 . S
C406 H433 0.931 . S
C407 C406 1.381 . S
C407 C408 1.321 1_565 S
C408 C407 1.321 1_545 S
C408 C409 1.403 . S
C408 H434 0.934 . S
C409 C404 1.413 . S
C409 C408 1.403 . S
C409 H435 0.930 . S
C410 O424 1.275 . S
C410 O425 1.256 . S
C411 O426 1.259 . S
C411 O427 1.268 . S
C412 Ho401 2.811 . S
C412 C413 1.488 . S
C412 O428 1.215 . S
C412 O429 1.289 . S
C413 C412 1.488 . S
C413 C414 1.348 . S
C413 C418 1.413 . S
C414 C413 1.348 . S
C414 C415 1.442 . S
C414 H436 0.930 . S
C415 C414 1.442 . S
C415 C416 1.381 . S
C415 H437 0.931 . S
C416 C415 1.381 . S
C416 C417 1.321 . S
C417 C416 1.321 . S
C417 C418 1.403 . S
C417 H438 0.934 . S
C418 C413 1.413 . S
C418 C417 1.403 . S
C418 H439 0.930 . S
C419 O430 1.275 . S
C419 O431 1.256 . S
O420 Ho400 2.322 . S
O420 C402 1.259 . S
O421 Ho401 2.346 . S
O421 C402 1.268 . S
O422 Ho400 2.378 . S
O422 C403 1.215 . S
O423 Ho400 2.524 . S
O423 C403 1.289 . S
O424 Ho400 2.381 . S
O424 C410 1.275 . S
O425 Ho400 2.669 . S
O425 Ho401 2.305 . S
O425 C410 1.256 . S
O426 Ho401 2.322 . S
O426 C411 1.259 . S
O427 Ho400 2.346 . S
O427 C411 1.268 . S
O428 Ho401 2.378 . S
O428 C412 1.215 . S
O429 Ho401 2.524 . S
O429 C412 1.289 . S
O430 Ho401 2.381 . S
O430 C419 1.275 . S
O431 Ho400 2.305 . S
O431 Ho401 2.669 . S
O431 C419 1.256 . S
H432 C405 0.930 . S
H433 C406 0.931 . S
H434 C408 0.934 . S
H435 C409 0.930 . S
H436 C414 0.930 . S
H437 C415 0.931 . S
H438 C417 0.934 . S
H439 C418 0.930 . S
Ho440 C443 2.811 . S
Ho440 O460 2.322 . S
Ho440 O462 2.378 . S
Ho440 O463 2.524 . S
Ho440 O464 2.381 . S
Ho440 O465 2.669 . S
Ho440 O467 2.346 . S
Ho440 O471 2.305 . S
Ho441 C452 2.811 . S
Ho441 O461 2.346 . S
Ho441 O465 2.305 . S
Ho441 O466 2.322 . S
Ho441 O468 2.378 . S
Ho441 O469 2.524 . S
Ho441 O470 2.381 . S
Ho441 O471 2.669 . S
C442 O460 1.259 . S
C442 O461 1.268 . S
C443 Ho440 2.811 . S
C443 C444 1.488 . S
C443 O462 1.215 . S
C443 O463 1.289 . S
C444 C443 1.488 . S
C444 C445 1.348 . S
C444 C449 1.413 . S
C445 C444 1.348 . S
C445 C446 1.442 1_655 S
C445 H472 0.930 . S
C446 C445 1.442 1_455 S
C446 C447 1.381 . S
C446 H473 0.931 . S
C447 C446 1.381 . S
C447 C448 1.321 1_455 S
C448 C447 1.321 1_655 S
C448 C449 1.403 . S
C448 H474 0.934 . S
C449 C444 1.413 . S
C449 C448 1.403 . S
C449 H475 0.930 . S
C450 O464 1.275 . S
C450 O465 1.256 . S
C451 O466 1.259 . S
C451 O467 1.268 . S
C452 Ho441 2.811 . S
C452 C453 1.488 . S
C452 O468 1.215 . S
C452 O469 1.289 . S
C453 C452 1.488 . S
C453 C454 1.348 . S
C453 C458 1.413 . S
C454 C453 1.348 . S
C454 C455 1.442 . S
C454 H476 0.930 . S
C455 C454 1.442 . S
C455 C456 1.381 . S
C455 H477 0.931 . S
C456 C455 1.381 . S
C456 C457 1.321 . S
C457 C456 1.321 . S
C457 C458 1.403 . S
C457 H478 0.934 . S
C458 C453 1.413 . S
C458 C457 1.403 . S
C458 H479 0.930 . S
C459 O470 1.275 . S
C459 O471 1.256 . S
O460 Ho440 2.322 . S
O460 C442 1.259 . S
O461 Ho441 2.346 . S
O461 C442 1.268 . S
O462 Ho440 2.378 . S
O462 C443 1.215 . S
O463 Ho440 2.524 . S
O463 C443 1.289 . S
O464 Ho440 2.381 . S
O464 C450 1.275 . S
O465 Ho440 2.669 . S
O465 Ho441 2.305 . S
O465 C450 1.256 . S
O466 Ho441 2.322 . S
O466 C451 1.259 . S
O467 Ho440 2.346 . S
O467 C451 1.268 . S
O468 Ho441 2.378 . S
O468 C452 1.215 . S
O469 Ho441 2.524 . S
O469 C452 1.289 . S
O470 Ho441 2.381 . S
O470 C459 1.275 . S
O471 Ho440 2.305 . S
O471 Ho441 2.669 . S
O471 C459 1.256 . S
H472 C445 0.930 . S
H473 C446 0.931 . S
H474 C448 0.934 . S
H475 C449 0.930 . S
H476 C454 0.930 . S
H477 C455 0.931 . S
H478 C457 0.934 . S
H479 C458 0.930 . S
Ho480 C483 2.811 . S
Ho480 O500 2.322 . S
Ho480 O502 2.378 . S
Ho480 O503 2.524 . S
Ho480 O504 2.381 . S
Ho480 O505 2.669 . S
Ho480 O507 2.346 . S
Ho480 O511 2.305 . S
Ho481 C492 2.811 . S
Ho481 O501 2.346 . S
Ho481 O505 2.305 . S
Ho481 O506 2.322 . S
Ho481 O508 2.378 . S
Ho481 O509 2.524 . S
Ho481 O510 2.381 . S
Ho481 O511 2.669 . S
C482 O500 1.259 . S
C482 O501 1.268 . S
C483 Ho480 2.811 . S
C483 C484 1.488 . S
C483 O502 1.215 . S
C483 O503 1.289 . S
C484 C483 1.488 . S
C484 C485 1.348 . S
C484 C489 1.413 . S
C485 C484 1.348 . S
C485 C486 1.442 . S
C485 H512 0.930 . S
C486 C485 1.442 . S
C486 C487 1.381 . S
C486 H513 0.931 . S
C487 C486 1.381 . S
C487 C488 1.321 . S
C488 C487 1.321 . S
C488 C489 1.403 . S
C488 H514 0.934 . S
C489 C484 1.413 . S
C489 C488 1.403 . S
C489 H515 0.930 . S
C490 O504 1.275 . S
C490 O505 1.256 . S
C491 O506 1.259 . S
C491 O507 1.268 . S
C492 Ho481 2.811 . S
C492 C493 1.488 . S
C492 O508 1.215 . S
C492 O509 1.289 . S
C493 C492 1.488 . S
C493 C494 1.348 . S
C493 C498 1.413 . S
C494 C493 1.348 . S
C494 C495 1.442 . S
C494 H516 0.930 . S
C495 C494 1.442 . S
C495 C496 1.381 . S
C495 H517 0.931 . S
C496 C495 1.381 . S
C496 C497 1.321 . S
C497 C496 1.321 . S
C497 C498 1.403 . S
C497 H518 0.934 . S
C498 C493 1.413 . S
C498 C497 1.403 . S
C498 H519 0.930 . S
C499 O510 1.275 . S
C499 O511 1.256 . S
O500 Ho480 2.322 . S
O500 C482 1.259 . S
O501 Ho481 2.346 . S
O501 C482 1.268 . S
O502 Ho480 2.378 . S
O502 C483 1.215 . S
O503 Ho480 2.524 . S
O503 C483 1.289 . S
O504 Ho480 2.381 . S
O504 C490 1.275 . S
O505 Ho480 2.669 . S
O505 Ho481 2.305 . S
O505 C490 1.256 . S
O506 Ho481 2.322 . S
O506 C491 1.259 . S
O507 Ho480 2.346 . S
O507 C491 1.268 . S
O508 Ho481 2.378 . S
O508 C492 1.215 . S
O509 Ho481 2.524 . S
O509 C492 1.289 . S
O510 Ho481 2.381 . S
O510 C499 1.275 . S
O511 Ho480 2.305 . S
O511 Ho481 2.669 . S
O511 C499 1.256 . S
H512 C485 0.930 . S
H513 C486 0.931 . S
H514 C488 0.934 . S
H515 C489 0.930 . S
H516 C494 0.930 . S
H517 C495 0.931 . S
H518 C497 0.934 . S
H519 C498 0.930 . S
Ho520 C523 2.811 . S
Ho520 O540 2.322 . S
Ho520 O542 2.378 . S
Ho520 O543 2.524 . S
Ho520 O544 2.381 . S
Ho520 O545 2.669 . S
Ho520 O547 2.346 . S
Ho520 O551 2.305 . S
Ho521 C532 2.811 . S
Ho521 O541 2.346 . S
Ho521 O545 2.305 . S
Ho521 O546 2.322 . S
Ho521 O548 2.378 . S
Ho521 O549 2.524 . S
Ho521 O550 2.381 . S
Ho521 O551 2.669 . S
C522 O540 1.259 . S
C522 O541 1.268 . S
C523 Ho520 2.811 . S
C523 C524 1.488 . S
C523 O542 1.215 . S
C523 O543 1.289 . S
C524 C523 1.488 . S
C524 C525 1.348 . S
C524 C529 1.413 . S
C525 C524 1.348 . S
C525 C526 1.442 . S
C525 H552 0.930 . S
C526 C525 1.442 . S
C526 C527 1.381 . S
C526 H553 0.931 . S
C527 C526 1.381 . S
C527 C528 1.321 . S
C528 C527 1.321 . S
C528 C529 1.403 . S
C528 H554 0.934 . S
C529 C524 1.413 . S
C529 C528 1.403 . S
C529 H555 0.930 . S
C530 O544 1.275 . S
C530 O545 1.256 . S
C531 O546 1.259 . S
C531 O547 1.268 . S
C532 Ho521 2.811 . S
C532 C533 1.488 . S
C532 O548 1.215 . S
C532 O549 1.289 . S
C533 C532 1.488 . S
C533 C534 1.348 . S
C533 C538 1.413 . S
C534 C533 1.348 . S
C534 C535 1.442 . S
C534 H556 0.930 . S
C535 C534 1.442 . S
C535 C536 1.381 . S
C535 H557 0.931 . S
C536 C535 1.381 . S
C536 C537 1.321 . S
C537 C536 1.321 . S
C537 C538 1.403 . S
C537 H558 0.934 . S
C538 C533 1.413 . S
C538 C537 1.403 . S
C538 H559 0.930 . S
C539 O550 1.275 . S
C539 O551 1.256 . S
O540 Ho520 2.322 . S
O540 C522 1.259 . S
O541 Ho521 2.346 . S
O541 C522 1.268 . S
O542 Ho520 2.378 . S
O542 C523 1.215 . S
O543 Ho520 2.524 . S
O543 C523 1.289 . S
O544 Ho520 2.381 . S
O544 C530 1.275 . S
O545 Ho520 2.669 . S
O545 Ho521 2.305 . S
O545 C530 1.256 . S
O546 Ho521 2.322 . S
O546 C531 1.259 . S
O547 Ho520 2.346 . S
O547 C531 1.268 . S
O548 Ho521 2.378 . S
O548 C532 1.215 . S
O549 Ho521 2.524 . S
O549 C532 1.289 . S
O550 Ho521 2.381 . S
O550 C539 1.275 . S
O551 Ho520 2.305 . S
O551 Ho521 2.669 . S
O551 C539 1.256 . S
H552 C525 0.930 . S
H553 C526 0.931 . S
H554 C528 0.934 . S
H555 C529 0.930 . S
H556 C534 0.930 . S
H557 C535 0.931 . S
H558 C537 0.934 . S
H559 C538 0.930 . S
Ho560 C563 2.811 . S
Ho560 O580 2.322 . S
Ho560 O582 2.378 . S
Ho560 O583 2.524 . S
Ho560 O584 2.381 . S
Ho560 O585 2.669 . S
Ho560 O587 2.346 . S
Ho560 O591 2.305 . S
Ho561 C572 2.811 . S
Ho561 O581 2.346 . S
Ho561 O585 2.305 . S
Ho561 O586 2.322 . S
Ho561 O588 2.378 . S
Ho561 O589 2.524 . S
Ho561 O590 2.381 . S
Ho561 O591 2.669 . S
C562 O580 1.259 . S
C562 O581 1.268 . S
C563 Ho560 2.811 . S
C563 C564 1.488 . S
C563 O582 1.215 . S
C563 O583 1.289 . S
C564 C563 1.488 . S
C564 C565 1.348 . S
C564 C569 1.413 . S
C565 C564 1.348 . S
C565 C566 1.442 . S
C565 H592 0.930 . S
C566 C565 1.442 . S
C566 C567 1.381 . S
C566 H593 0.931 . S
C567 C566 1.381 . S
C567 C568 1.321 . S
C568 C567 1.321 . S
C568 C569 1.403 . S
C568 H594 0.934 . S
C569 C564 1.413 . S
C569 C568 1.403 . S
C569 H595 0.930 . S
C570 O584 1.275 . S
C570 O585 1.256 . S
C571 O586 1.259 . S
C571 O587 1.268 . S
C572 Ho561 2.811 . S
C572 C573 1.488 . S
C572 O588 1.215 . S
C572 O589 1.289 . S
C573 C572 1.488 . S
C573 C574 1.348 . S
C573 C578 1.413 . S
C574 C573 1.348 . S
C574 C575 1.442 . S
C574 H596 0.930 . S
C575 C574 1.442 . S
C575 C576 1.381 . S
C575 H597 0.931 . S
C576 C575 1.381 . S
C576 C577 1.321 . S
C577 C576 1.321 . S
C577 C578 1.403 . S
C577 H598 0.934 . S
C578 C573 1.413 . S
C578 C577 1.403 . S
C578 H599 0.930 . S
C579 O590 1.275 . S
C579 O591 1.256 . S
O580 Ho560 2.322 . S
O580 C562 1.259 . S
O581 Ho561 2.346 . S
O581 C562 1.268 . S
O582 Ho560 2.378 . S
O582 C563 1.215 . S
O583 Ho560 2.524 . S
O583 C563 1.289 . S
O584 Ho560 2.381 . S
O584 C570 1.275 . S
O585 Ho560 2.669 . S
O585 Ho561 2.305 . S
O585 C570 1.256 . S
O586 Ho561 2.322 . S
O586 C571 1.259 . S
O587 Ho560 2.346 . S
O587 C571 1.268 . S
O588 Ho561 2.378 . S
O588 C572 1.215 . S
O589 Ho561 2.524 . S
O589 C572 1.289 . S
O590 Ho561 2.381 . S
O590 C579 1.275 . S
O591 Ho560 2.305 . S
O591 Ho561 2.669 . S
O591 C579 1.256 . S
H592 C565 0.930 . S
H593 C566 0.931 . S
H594 C568 0.934 . S
H595 C569 0.930 . S
H596 C574 0.930 . S
H597 C575 0.931 . S
H598 C577 0.934 . S
H599 C578 0.930 . S
Ho600 C603 2.811 . S
Ho600 O620 2.322 . S
Ho600 O622 2.378 . S
Ho600 O623 2.524 . S
Ho600 O624 2.381 . S
Ho600 O625 2.669 . S
Ho600 O627 2.346 . S
Ho600 O631 2.305 . S
Ho601 C612 2.811 . S
Ho601 O621 2.346 . S
Ho601 O625 2.305 . S
Ho601 O626 2.322 . S
Ho601 O628 2.378 . S
Ho601 O629 2.524 . S
Ho601 O630 2.381 . S
Ho601 O631 2.669 . S
C602 O620 1.259 . S
C602 O621 1.268 . S
C603 Ho600 2.811 . S
C603 C604 1.488 . S
C603 O622 1.215 . S
C603 O623 1.289 . S
C604 C603 1.488 . S
C604 C605 1.348 . S
C604 C609 1.413 . S
C605 C604 1.348 . S
C605 C606 1.442 . S
C605 H632 0.930 . S
C606 C605 1.442 . S
C606 C607 1.381 . S
C606 H633 0.931 . S
C607 C606 1.381 . S
C607 C608 1.321 . S
C608 C607 1.321 . S
C608 C609 1.403 . S
C608 H634 0.934 . S
C609 C604 1.413 . S
C609 C608 1.403 . S
C609 H635 0.930 . S
C610 O624 1.275 . S
C610 O625 1.256 . S
C611 O626 1.259 . S
C611 O627 1.268 . S
C612 Ho601 2.811 . S
C612 C613 1.488 . S
C612 O628 1.215 . S
C612 O629 1.289 . S
C613 C612 1.488 . S
C613 C614 1.348 . S
C613 C618 1.413 . S
C614 C613 1.348 . S
C614 C615 1.442 . S
C614 H636 0.930 . S
C615 C614 1.442 . S
C615 C616 1.381 . S
C615 H637 0.931 . S
C616 C615 1.381 . S
C616 C617 1.321 . S
C617 C616 1.321 . S
C617 C618 1.403 . S
C617 H638 0.934 . S
C618 C613 1.413 . S
C618 C617 1.403 . S
C618 H639 0.930 . S
C619 O630 1.275 . S
C619 O631 1.256 . S
O620 Ho600 2.322 . S
O620 C602 1.259 . S
O621 Ho601 2.346 . S
O621 C602 1.268 . S
O622 Ho600 2.378 . S
O622 C603 1.215 . S
O623 Ho600 2.524 . S
O623 C603 1.289 . S
O624 Ho600 2.381 . S
O624 C610 1.275 . S
O625 Ho600 2.669 . S
O625 Ho601 2.305 . S
O625 C610 1.256 . S
O626 Ho601 2.322 . S
O626 C611 1.259 . S
O627 Ho600 2.346 . S
O627 C611 1.268 . S
O628 Ho601 2.378 . S
O628 C612 1.215 . S
O629 Ho601 2.524 . S
O629 C612 1.289 . S
O630 Ho601 2.381 . S
O630 C619 1.275 . S
O631 Ho600 2.305 . S
O631 Ho601 2.669 . S
O631 C619 1.256 . S
H632 C605 0.930 . S
H633 C606 0.931 . S
H634 C608 0.934 . S
H635 C609 0.930 . S
H636 C614 0.930 . S
H637 C615 0.931 . S
H638 C617 0.934 . S
H639 C618 0.930 . S
Ho640 C643 2.811 . S
Ho640 O660 2.322 . S
Ho640 O662 2.378 . S
Ho640 O663 2.524 . S
Ho640 O664 2.381 . S
Ho640 O665 2.669 . S
Ho640 O667 2.346 . S
Ho640 O671 2.305 . S
Ho641 C652 2.811 . S
Ho641 O661 2.346 . S
Ho641 O665 2.305 . S
Ho641 O666 2.322 . S
Ho641 O668 2.378 . S
Ho641 O669 2.524 . S
Ho641 O670 2.381 . S
Ho641 O671 2.669 . S
C642 O660 1.259 . S
C642 O661 1.268 . S
C643 Ho640 2.811 . S
C643 C644 1.488 . S
C643 O662 1.215 . S
C643 O663 1.289 . S
C644 C643 1.488 . S
C644 C645 1.348 . S
C644 C649 1.413 . S
C645 C644 1.348 . S
C645 C646 1.442 . S
C645 H672 0.930 . S
C646 C645 1.442 . S
C646 C647 1.381 . S
C646 H673 0.931 . S
C647 C646 1.381 . S
C647 C648 1.321 . S
C648 C647 1.321 . S
C648 C649 1.403 . S
C648 H674 0.934 . S
C649 C644 1.413 . S
C649 C648 1.403 . S
C649 H675 0.930 . S
C650 O664 1.275 . S
C650 O665 1.256 . S
C651 O666 1.259 . S
C651 O667 1.268 . S
C652 Ho641 2.811 . S
C652 C653 1.488 . S
C652 O668 1.215 . S
C652 O669 1.289 . S
C653 C652 1.488 . S
C653 C654 1.348 . S
C653 C658 1.413 . S
C654 C653 1.348 . S
C654 C655 1.442 . S
C654 H676 0.930 . S
C655 C654 1.442 . S
C655 C656 1.381 . S
C655 H677 0.931 . S
C656 C655 1.381 . S
C656 C657 1.321 . S
C657 C656 1.321 . S
C657 C658 1.403 . S
C657 H678 0.934 . S
C658 C653 1.413 . S
C658 C657 1.403 . S
C658 H679 0.930 . S
C659 O670 1.275 . S
C659 O671 1.256 . S
O660 Ho640 2.322 . S
O660 C642 1.259 . S
O661 Ho641 2.346 . S
O661 C642 1.268 . S
O662 Ho640 2.378 . S
O662 C643 1.215 . S
O663 Ho640 2.524 . S
O663 C643 1.289 . S
O664 Ho640 2.381 . S
O664 C650 1.275 . S
O665 Ho640 2.669 . S
O665 Ho641 2.305 . S
O665 C650 1.256 . S
O666 Ho641 2.322 . S
O666 C651 1.259 . S
O667 Ho640 2.346 . S
O667 C651 1.268 . S
O668 Ho641 2.378 . S
O668 C652 1.215 . S
O669 Ho641 2.524 . S
O669 C652 1.289 . S
O670 Ho641 2.381 . S
O670 C659 1.275 . S
O671 Ho640 2.305 . S
O671 Ho641 2.669 . S
O671 C659 1.256 . S
H672 C645 0.930 . S
H673 C646 0.931 . S
H674 C648 0.934 . S
H675 C649 0.930 . S
H676 C654 0.930 . S
H677 C655 0.931 . S
H678 C657 0.934 . S
H679 C658 0.930 . S
Ho680 C683 2.811 . S
Ho680 O700 2.322 . S
Ho680 O702 2.378 . S
Ho680 O703 2.524 . S
Ho680 O704 2.381 . S
Ho680 O705 2.669 . S
Ho680 O707 2.346 . S
Ho680 O711 2.305 . S
Ho681 C692 2.811 . S
Ho681 O701 2.346 . S
Ho681 O705 2.305 . S
Ho681 O706 2.322 . S
Ho681 O708 2.378 . S
Ho681 O709 2.524 . S
Ho681 O710 2.381 . S
Ho681 O711 2.669 . S
C682 O700 1.259 . S
C682 O701 1.268 . S
C683 Ho680 2.811 . S
C683 C684 1.488 . S
C683 O702 1.215 . S
C683 O703 1.289 . S
C684 C683 1.488 . S
C684 C685 1.348 . S
C684 C689 1.413 . S
C685 C684 1.348 . S
C685 C686 1.442 . S
C685 H712 0.930 . S
C686 C685 1.442 . S
C686 C687 1.381 . S
C686 H713 0.931 . S
C687 C686 1.381 . S
C687 C688 1.321 . S
C688 C687 1.321 . S
C688 C689 1.403 . S
C688 H714 0.934 . S
C689 C684 1.413 . S
C689 C688 1.403 . S
C689 H715 0.930 . S
C690 O704 1.275 . S
C690 O705 1.256 . S
C691 O706 1.259 . S
C691 O707 1.268 . S
C692 Ho681 2.811 . S
C692 C693 1.488 . S
C692 O708 1.215 . S
C692 O709 1.289 . S
C693 C692 1.488 . S
C693 C694 1.348 . S
C693 C698 1.413 . S
C694 C693 1.348 . S
C694 C695 1.442 . S
C694 H716 0.930 . S
C695 C694 1.442 . S
C695 C696 1.381 . S
C695 H717 0.931 . S
C696 C695 1.381 . S
C696 C697 1.321 . S
C697 C696 1.321 . S
C697 C698 1.403 . S
C697 H718 0.934 . S
C698 C693 1.413 . S
C698 C697 1.403 . S
C698 H719 0.930 . S
C699 O710 1.275 . S
C699 O711 1.256 . S
O700 Ho680 2.322 . S
O700 C682 1.259 . S
O701 Ho681 2.346 . S
O701 C682 1.268 . S
O702 Ho680 2.378 . S
O702 C683 1.215 . S
O703 Ho680 2.524 . S
O703 C683 1.289 . S
O704 Ho680 2.381 . S
O704 C690 1.275 . S
O705 Ho680 2.669 . S
O705 Ho681 2.305 . S
O705 C690 1.256 . S
O706 Ho681 2.322 . S
O706 C691 1.259 . S
O707 Ho680 2.346 . S
O707 C691 1.268 . S
O708 Ho681 2.378 . S
O708 C692 1.215 . S
O709 Ho681 2.524 . S
O709 C692 1.289 . S
O710 Ho681 2.381 . S
O710 C699 1.275 . S
O711 Ho680 2.305 . S
O711 Ho681 2.669 . S
O711 C699 1.256 . S
H712 C685 0.930 . S
H713 C686 0.931 . S
H714 C688 0.934 . S
H715 C689 0.930 . S
H716 C694 0.930 . S
H717 C695 0.931 . S
H718 C697 0.934 . S
H719 C698 0.930 . S
Ho720 C723 2.811 . S
Ho720 O740 2.322 . S
Ho720 O742 2.378 . S
Ho720 O743 2.524 . S
Ho720 O744 2.381 . S
Ho720 O745 2.669 . S
Ho720 O747 2.346 . S
Ho720 O751 2.305 . S
Ho721 C732 2.811 . S
Ho721 O741 2.346 . S
Ho721 O745 2.305 . S
Ho721 O746 2.322 . S
Ho721 O748 2.378 . S
Ho721 O749 2.524 . S
Ho721 O750 2.381 . S
Ho721 O751 2.669 . S
C722 O740 1.259 . S
C722 O741 1.268 . S
C723 Ho720 2.811 . S
C723 C724 1.488 . S
C723 O742 1.215 . S
C723 O743 1.289 . S
C724 C723 1.488 . S
C724 C725 1.348 . S
C724 C729 1.413 . S
C725 C724 1.348 . S
C725 C726 1.442 . S
C725 H752 0.930 . S
C726 C725 1.442 . S
C726 C727 1.381 . S
C726 H753 0.931 . S
C727 C726 1.381 . S
C727 C728 1.321 . S
C728 C727 1.321 . S
C728 C729 1.403 . S
C728 H754 0.934 . S
C729 C724 1.413 . S
C729 C728 1.403 . S
C729 H755 0.930 . S
C730 O744 1.275 . S
C730 O745 1.256 . S
C731 O746 1.259 . S
C731 O747 1.268 . S
C732 Ho721 2.811 . S
C732 C733 1.488 . S
C732 O748 1.215 . S
C732 O749 1.289 . S
C733 C732 1.488 . S
C733 C734 1.348 . S
C733 C738 1.413 . S
C734 C733 1.348 . S
C734 C735 1.442 . S
C734 H756 0.930 . S
C735 C734 1.442 . S
C735 C736 1.381 . S
C735 H757 0.931 . S
C736 C735 1.381 . S
C736 C737 1.321 . S
C737 C736 1.321 . S
C737 C738 1.403 . S
C737 H758 0.934 . S
C738 C733 1.413 . S
C738 C737 1.403 . S
C738 H759 0.930 . S
C739 O750 1.275 . S
C739 O751 1.256 . S
O740 Ho720 2.322 . S
O740 C722 1.259 . S
O741 Ho721 2.346 . S
O741 C722 1.268 . S
O742 Ho720 2.378 . S
O742 C723 1.215 . S
O743 Ho720 2.524 . S
O743 C723 1.289 . S
O744 Ho720 2.381 . S
O744 C730 1.275 . S
O745 Ho720 2.669 . S
O745 Ho721 2.305 . S
O745 C730 1.256 . S
O746 Ho721 2.322 . S
O746 C731 1.259 . S
O747 Ho720 2.346 . S
O747 C731 1.268 . S
O748 Ho721 2.378 . S
O748 C732 1.215 . S
O749 Ho721 2.524 . S
O749 C732 1.289 . S
O750 Ho721 2.381 . S
O750 C739 1.275 . S
O751 Ho720 2.305 . S
O751 Ho721 2.669 . S
O751 C739 1.256 . S
H752 C725 0.930 . S
H753 C726 0.931 . S
H754 C728 0.934 . S
H755 C729 0.930 . S
H756 C734 0.930 . S
H757 C735 0.931 . S
H758 C737 0.934 . S
H759 C738 0.930 . S
Ho760 C763 2.811 . S
Ho760 O780 2.322 . S
Ho760 O782 2.378 . S
Ho760 O783 2.524 . S
Ho760 O784 2.381 . S
Ho760 O785 2.669 . S
Ho760 O787 2.346 . S
Ho760 O791 2.305 . S
Ho761 C772 2.811 . S
Ho761 O781 2.346 . S
Ho761 O785 2.305 . S
Ho761 O786 2.322 . S
Ho761 O788 2.378 . S
Ho761 O789 2.524 . S
Ho761 O790 2.381 . S
Ho761 O791 2.669 . S
C762 O780 1.259 . S
C762 O781 1.268 . S
C763 Ho760 2.811 . S
C763 C764 1.488 . S
C763 O782 1.215 . S
C763 O783 1.289 . S
C764 C763 1.488 . S
C764 C765 1.348 . S
C764 C769 1.413 . S
C765 C764 1.348 . S
C765 C766 1.442 . S
C765 H792 0.930 . S
C766 C765 1.442 . S
C766 C767 1.381 . S
C766 H793 0.931 . S
C767 C766 1.381 . S
C767 C768 1.321 . S
C768 C767 1.321 . S
C768 C769 1.403 . S
C768 H794 0.934 . S
C769 C764 1.413 . S
C769 C768 1.403 . S
C769 H795 0.930 . S
C770 O784 1.275 . S
C770 O785 1.256 . S
C771 O786 1.259 . S
C771 O787 1.268 . S
C772 Ho761 2.811 . S
C772 C773 1.488 . S
C772 O788 1.215 . S
C772 O789 1.289 . S
C773 C772 1.488 . S
C773 C774 1.348 . S
C773 C778 1.413 . S
C774 C773 1.348 . S
C774 C775 1.442 . S
C774 H796 0.930 . S
C775 C774 1.442 . S
C775 C776 1.381 . S
C775 H797 0.931 . S
C776 C775 1.381 . S
C776 C777 1.321 . S
C777 C776 1.321 . S
C777 C778 1.403 . S
C777 H798 0.934 . S
C778 C773 1.413 . S
C778 C777 1.403 . S
C778 H799 0.930 . S
C779 O790 1.275 . S
C779 O791 1.256 . S
O780 Ho760 2.322 . S
O780 C762 1.259 . S
O781 Ho761 2.346 . S
O781 C762 1.268 . S
O782 Ho760 2.378 . S
O782 C763 1.215 . S
O783 Ho760 2.524 . S
O783 C763 1.289 . S
O784 Ho760 2.381 . S
O784 C770 1.275 . S
O785 Ho760 2.669 . S
O785 Ho761 2.305 . S
O785 C770 1.256 . S
O786 Ho761 2.322 . S
O786 C771 1.259 . S
O787 Ho760 2.346 . S
O787 C771 1.268 . S
O788 Ho761 2.378 . S
O788 C772 1.215 . S
O789 Ho761 2.524 . S
O789 C772 1.289 . S
O790 Ho761 2.381 . S
O790 C779 1.275 . S
O791 Ho760 2.305 . S
O791 Ho761 2.669 . S
O791 C779 1.256 . S
H792 C765 0.930 . S
H793 C766 0.931 . S
H794 C768 0.934 . S
H795 C769 0.930 . S
H796 C774 0.930 . S
H797 C775 0.931 . S
H798 C777 0.934 . S
H799 C778 0.930 . S
Ho800 C803 2.811 . S
Ho800 O820 2.322 . S
Ho800 O822 2.378 . S
Ho800 O823 2.524 . S
Ho800 O824 2.381 . S
Ho800 O825 2.669 . S
Ho800 O827 2.346 . S
Ho800 O831 2.305 . S
Ho801 C812 2.811 . S
Ho801 O821 2.346 . S
Ho801 O825 2.305 . S
Ho801 O826 2.322 . S
Ho801 O828 2.378 . S
Ho801 O829 2.524 . S
Ho801 O830 2.381 . S
Ho801 O831 2.669 . S
C802 O820 1.259 . S
C802 O821 1.268 . S
C803 Ho800 2.811 . S
C803 C804 1.488 . S
C803 O822 1.215 . S
C803 O823 1.289 . S
C804 C803 1.488 . S
C804 C805 1.348 . S
C804 C809 1.413 . S
C805 C804 1.348 . S
C805 C806 1.442 . S
C805 H832 0.930 . S
C806 C805 1.442 . S
C806 C807 1.381 . S
C806 H833 0.931 . S
C807 C806 1.381 . S
C807 C808 1.321 . S
C808 C807 1.321 . S
C808 C809 1.403 . S
C808 H834 0.934 . S
C809 C804 1.413 . S
C809 C808 1.403 . S
C809 H835 0.930 . S
C810 O824 1.275 . S
C810 O825 1.256 . S
C811 O826 1.259 . S
C811 O827 1.268 . S
C812 Ho801 2.811 . S
C812 C813 1.488 . S
C812 O828 1.215 . S
C812 O829 1.289 . S
C813 C812 1.488 . S
C813 C814 1.348 . S
C813 C818 1.413 . S
C814 C813 1.348 . S
C814 C815 1.442 . S
C814 H836 0.930 . S
C815 C814 1.442 . S
C815 C816 1.381 . S
C815 H837 0.931 . S
C816 C815 1.381 . S
C816 C817 1.321 . S
C817 C816 1.321 . S
C817 C818 1.403 . S
C817 H838 0.934 . S
C818 C813 1.413 . S
C818 C817 1.403 . S
C818 H839 0.930 . S
C819 O830 1.275 . S
C819 O831 1.256 . S
O820 Ho800 2.322 . S
O820 C802 1.259 . S
O821 Ho801 2.346 . S
O821 C802 1.268 . S
O822 Ho800 2.378 . S
O822 C803 1.215 . S
O823 Ho800 2.524 . S
O823 C803 1.289 . S
O824 Ho800 2.381 . S
O824 C810 1.275 . S
O825 Ho800 2.669 . S
O825 Ho801 2.305 . S
O825 C810 1.256 . S
O826 Ho801 2.322 . S
O826 C811 1.259 . S
O827 Ho800 2.346 . S
O827 C811 1.268 . S
O828 Ho801 2.378 . S
O828 C812 1.215 . S
O829 Ho801 2.524 . S
O829 C812 1.289 . S
O830 Ho801 2.381 . S
O830 C819 1.275 . S
O831 Ho800 2.305 . S
O831 Ho801 2.669 . S
O831 C819 1.256 . S
H832 C805 0.930 . S
H833 C806 0.931 . S
H834 C808 0.934 . S
H835 C809 0.930 . S
H836 C814 0.930 . S
H837 C815 0.931 . S
H838 C817 0.934 . S
H839 C818 0.930 . S
Ho840 C843 2.811 . S
Ho840 O860 2.322 . S
Ho840 O862 2.378 . S
Ho840 O863 2.524 . S
Ho840 O864 2.381 . S
Ho840 O865 2.669 . S
Ho840 O867 2.346 . S
Ho840 O871 2.305 . S
Ho841 C852 2.811 . S
Ho841 O861 2.346 . S
Ho841 O865 2.305 . S
Ho841 O866 2.322 . S
Ho841 O868 2.378 . S
Ho841 O869 2.524 . S
Ho841 O870 2.381 . S
Ho841 O871 2.669 . S
C842 O860 1.259 . S
C842 O861 1.268 . S
C843 Ho840 2.811 . S
C843 C844 1.488 . S
C843 O862 1.215 . S
C843 O863 1.289 . S
C844 C843 1.488 . S
C844 C845 1.348 . S
C844 C849 1.413 . S
C845 C844 1.348 . S
C845 C846 1.442 . S
C845 H872 0.930 . S
C846 C845 1.442 . S
C846 C847 1.381 . S
C846 H873 0.931 . S
C847 C846 1.381 . S
C847 C848 1.321 . S
C848 C847 1.321 . S
C848 C849 1.403 . S
C848 H874 0.934 . S
C849 C844 1.413 . S
C849 C848 1.403 . S
C849 H875 0.930 . S
C850 O864 1.275 . S
C850 O865 1.256 . S
C851 O866 1.259 . S
C851 O867 1.268 . S
C852 Ho841 2.811 . S
C852 C853 1.488 . S
C852 O868 1.215 . S
C852 O869 1.289 . S
C853 C852 1.488 . S
C853 C854 1.348 . S
C853 C858 1.413 . S
C854 C853 1.348 . S
C854 C855 1.442 . S
C854 H876 0.930 . S
C855 C854 1.442 . S
C855 C856 1.381 . S
C855 H877 0.931 . S
C856 C855 1.381 . S
C856 C857 1.321 . S
C857 C856 1.321 . S
C857 C858 1.403 . S
C857 H878 0.934 . S
C858 C853 1.413 . S
C858 C857 1.403 . S
C858 H879 0.930 . S
C859 O870 1.275 . S
C859 O871 1.256 . S
O860 Ho840 2.322 . S
O860 C842 1.259 . S
O861 Ho841 2.346 . S
O861 C842 1.268 . S
O862 Ho840 2.378 . S
O862 C843 1.215 . S
O863 Ho840 2.524 . S
O863 C843 1.289 . S
O864 Ho840 2.381 . S
O864 C850 1.275 . S
O865 Ho840 2.669 . S
O865 Ho841 2.305 . S
O865 C850 1.256 . S
O866 Ho841 2.322 . S
O866 C851 1.259 . S
O867 Ho840 2.346 . S
O867 C851 1.268 . S
O868 Ho841 2.378 . S
O868 C852 1.215 . S
O869 Ho841 2.524 . S
O869 C852 1.289 . S
O870 Ho841 2.381 . S
O870 C859 1.275 . S
O871 Ho840 2.305 . S
O871 Ho841 2.669 . S
O871 C859 1.256 . S
H872 C845 0.930 . S
H873 C846 0.931 . S
H874 C848 0.934 . S
H875 C849 0.930 . S
H876 C854 0.930 . S
H877 C855 0.931 . S
H878 C857 0.934 . S
H879 C858 0.930 . S
Ho880 C883 2.811 . S
Ho880 O900 2.322 . S
Ho880 O902 2.378 . S
Ho880 O903 2.524 . S
Ho880 O904 2.381 . S
Ho880 O905 2.669 . S
Ho880 O907 2.346 . S
Ho880 O911 2.305 . S
Ho881 C892 2.811 . S
Ho881 O901 2.346 . S
Ho881 O905 2.305 . S
Ho881 O906 2.322 . S
Ho881 O908 2.378 . S
Ho881 O909 2.524 . S
Ho881 O910 2.381 . S
Ho881 O911 2.669 . S
C882 O900 1.259 . S
C882 O901 1.268 . S
C883 Ho880 2.811 . S
C883 C884 1.488 . S
C883 O902 1.215 . S
C883 O903 1.289 . S
C884 C883 1.488 . S
C884 C885 1.348 . S
C884 C889 1.413 . S
C885 C884 1.348 . S
C885 C886 1.442 . S
C885 H912 0.930 . S
C886 C885 1.442 . S
C886 C887 1.381 . S
C886 H913 0.931 . S
C887 C886 1.381 . S
C887 C888 1.321 . S
C888 C887 1.321 . S
C888 C889 1.403 . S
C888 H914 0.934 . S
C889 C884 1.413 . S
C889 C888 1.403 . S
C889 H915 0.930 . S
C890 O904 1.275 . S
C890 O905 1.256 . S
C891 O906 1.259 . S
C891 O907 1.268 . S
C892 Ho881 2.811 . S
C892 C893 1.488 . S
C892 O908 1.215 . S
C892 O909 1.289 . S
C893 C892 1.488 . S
C893 C894 1.348 . S
C893 C898 1.413 . S
C894 C893 1.348 . S
C894 C895 1.442 . S
C894 H916 0.930 . S
C895 C894 1.442 . S
C895 C896 1.381 . S
C895 H917 0.931 . S
C896 C895 1.381 . S
C896 C897 1.321 . S
C897 C896 1.321 . S
C897 C898 1.403 . S
C897 H918 0.934 . S
C898 C893 1.413 . S
C898 C897 1.403 . S
C898 H919 0.930 . S
C899 O910 1.275 . S
C899 O911 1.256 . S
O900 Ho880 2.322 . S
O900 C882 1.259 . S
O901 Ho881 2.346 . S
O901 C882 1.268 . S
O902 Ho880 2.378 . S
O902 C883 1.215 . S
O903 Ho880 2.524 . S
O903 C883 1.289 . S
O904 Ho880 2.381 . S
O904 C890 1.275 . S
O905 Ho880 2.669 . S
O905 Ho881 2.305 . S
O905 C890 1.256 . S
O906 Ho881 2.322 . S
O906 C891 1.259 . S
O907 Ho880 2.346 . S
O907 C891 1.268 . S
O908 Ho881 2.378 . S
O908 C892 1.215 . S
O909 Ho881 2.524 . S
O909 C892 1.289 . S
O910 Ho881 2.381 . S
O910 C899 1.275 . S
O911 Ho880 2.305 . S
O911 Ho881 2.669 . S
O911 C899 1.256 . S
H912 C885 0.930 . S
H913 C886 0.931 . S
H914 C888 0.934 . S
H915 C889 0.930 . S
H916 C894 0.930 . S
H917 C895 0.931 . S
H918 C897 0.934 . S
H919 C898 0.930 . S
Ho920 C923 2.811 . S
Ho920 O940 2.322 . S
Ho920 O942 2.378 . S
Ho920 O943 2.524 . S
Ho920 O944 2.381 . S
Ho920 O945 2.669 . S
Ho920 O947 2.346 . S
Ho920 O951 2.305 . S
Ho921 C932 2.811 . S
Ho921 O941 2.346 . S
Ho921 O945 2.305 . S
Ho921 O946 2.322 . S
Ho921 O948 2.378 . S
Ho921 O949 2.524 . S
Ho921 O950 2.381 . S
Ho921 O951 2.669 . S
C922 O940 1.259 . S
C922 O941 1.268 . S
C923 Ho920 2.811 . S
C923 C924 1.488 . S
C923 O942 1.215 . S
C923 O943 1.289 . S
C924 C923 1.488 . S
C924 C925 1.348 . S
C924 C929 1.413 . S
C925 C924 1.348 . S
C925 C926 1.442 . S
C925 H952 0.930 . S
C926 C925 1.442 . S
C926 C927 1.381 . S
C926 H953 0.931 . S
C927 C926 1.381 . S
C927 C928 1.321 . S
C928 C927 1.321 . S
C928 C929 1.403 . S
C928 H954 0.934 . S
C929 C924 1.413 . S
C929 C928 1.403 . S
C929 H955 0.930 . S
C930 O944 1.275 . S
C930 O945 1.256 . S
C931 O946 1.259 . S
C931 O947 1.268 . S
C932 Ho921 2.811 . S
C932 C933 1.488 . S
C932 O948 1.215 . S
C932 O949 1.289 . S
C933 C932 1.488 . S
C933 C934 1.348 . S
C933 C938 1.413 . S
C934 C933 1.348 . S
C934 C935 1.442 . S
C934 H956 0.930 . S
C935 C934 1.442 . S
C935 C936 1.381 . S
C935 H957 0.931 . S
C936 C935 1.381 . S
C936 C937 1.321 . S
C937 C936 1.321 . S
C937 C938 1.403 . S
C937 H958 0.934 . S
C938 C933 1.413 . S
C938 C937 1.403 . S
C938 H959 0.930 . S
C939 O950 1.275 . S
C939 O951 1.256 . S
O940 Ho920 2.322 . S
O940 C922 1.259 . S
O941 Ho921 2.346 . S
O941 C922 1.268 . S
O942 Ho920 2.378 . S
O942 C923 1.215 . S
O943 Ho920 2.524 . S
O943 C923 1.289 . S
O944 Ho920 2.381 . S
O944 C930 1.275 . S
O945 Ho920 2.669 . S
O945 Ho921 2.305 . S
O945 C930 1.256 . S
O946 Ho921 2.322 . S
O946 C931 1.259 . S
O947 Ho920 2.346 . S
O947 C931 1.268 . S
O948 Ho921 2.378 . S
O948 C932 1.215 . S
O949 Ho921 2.524 . S
O949 C932 1.289 . S
O950 Ho921 2.381 . S
O950 C939 1.275 . S
O951 Ho920 2.305 . S
O951 Ho921 2.669 . S
O951 C939 1.256 . S
H952 C925 0.930 . S
H953 C926 0.931 . S
H954 C928 0.934 . S
H955 C929 0.930 . S
H956 C934 0.930 . S
H957 C935 0.931 . S
H958 C937 0.934 . S
H959 C938 0.930 . S
Ho960 C963 2.811 . S
Ho960 O980 2.322 . S
Ho960 O982 2.378 . S
Ho960 O983 2.524 . S
Ho960 O984 2.381 . S
Ho960 O985 2.669 . S
Ho960 O987 2.346 . S
Ho960 O991 2.305 . S
Ho961 C972 2.811 . S
Ho961 O981 2.346 . S
Ho961 O985 2.305 . S
Ho961 O986 2.322 . S
Ho961 O988 2.378 . S
Ho961 O989 2.524 . S
Ho961 O990 2.381 . S
Ho961 O991 2.669 . S
C962 O980 1.259 . S
C962 O981 1.268 . S
C963 Ho960 2.811 . S
C963 C964 1.488 . S
C963 O982 1.215 . S
C963 O983 1.289 . S
C964 C963 1.488 . S
C964 C965 1.348 . S
C964 C969 1.413 . S
C965 C964 1.348 . S
C965 C966 1.442 . S
C965 H992 0.930 . S
C966 C965 1.442 . S
C966 C967 1.381 . S
C966 H993 0.931 . S
C967 C966 1.381 . S
C967 C968 1.321 . S
C968 C967 1.321 . S
C968 C969 1.403 . S
C968 H994 0.934 . S
C969 C964 1.413 . S
C969 C968 1.403 . S
C969 H995 0.930 . S
C970 O984 1.275 . S
C970 O985 1.256 . S
C971 O986 1.259 . S
C971 O987 1.268 . S
C972 Ho961 2.811 . S
C972 C973 1.488 . S
C972 O988 1.215 . S
C972 O989 1.289 . S
C973 C972 1.488 . S
C973 C974 1.348 . S
C973 C978 1.413 . S
C974 C973 1.348 . S
C974 C975 1.442 . S
C974 H996 0.930 . S
C975 C974 1.442 . S
C975 C976 1.381 . S
C975 H997 0.931 . S
C976 C975 1.381 . S
C976 C977 1.321 . S
C977 C976 1.321 . S
C977 C978 1.403 . S
C977 H998 0.934 . S
C978 C973 1.413 . S
C978 C977 1.403 . S
C978 H999 0.930 . S
C979 O990 1.275 . S
C979 O991 1.256 . S
O980 Ho960 2.322 . S
O980 C962 1.259 . S
O981 Ho961 2.346 . S
O981 C962 1.268 . S
O982 Ho960 2.378 . S
O982 C963 1.215 . S
O983 Ho960 2.524 . S
O983 C963 1.289 . S
O984 Ho960 2.381 . S
O984 C970 1.275 . S
O985 Ho960 2.669 . S
O985 Ho961 2.305 . S
O985 C970 1.256 . S
O986 Ho961 2.322 . S
O986 C971 1.259 . S
O987 Ho960 2.346 . S
O987 C971 1.268 . S
O988 Ho961 2.378 . S
O988 C972 1.215 . S
O989 Ho961 2.524 . S
O989 C972 1.289 . S
O990 Ho961 2.381 . S
O990 C979 1.275 . S
O991 Ho960 2.305 . S
O991 Ho961 2.669 . S
O991 C979 1.256 . S
H992 C965 0.930 . S
H993 C966 0.931 . S
H994 C968 0.934 . S
H995 C969 0.930 . S
H996 C974 0.930 . S
H997 C975 0.931 . S
H998 C977 0.934 . S
H999 C978 0.930 . S
Ho1000 C1003 2.811 . S
Ho1000 O1020 2.322 . S
Ho1000 O1022 2.378 . S
Ho1000 O1023 2.524 . S
Ho1000 O1024 2.381 . S
Ho1000 O1025 2.669 . S
Ho1000 O1027 2.346 . S
Ho1000 O1031 2.305 . S
Ho1001 C1012 2.811 . S
Ho1001 O1021 2.346 . S
Ho1001 O1025 2.305 . S
Ho1001 O1026 2.322 . S
Ho1001 O1028 2.378 . S
Ho1001 O1029 2.524 . S
Ho1001 O1030 2.381 . S
Ho1001 O1031 2.669 . S
C1002 O1020 1.259 . S
C1002 O1021 1.268 . S
C1003 Ho1000 2.811 . S
C1003 C1004 1.488 . S
C1003 O1022 1.215 . S
C1003 O1023 1.289 . S
C1004 C1003 1.488 . S
C1004 C1005 1.348 . S
C1004 C1009 1.413 . S
C1005 C1004 1.348 . S
C1005 C1006 1.442 . S
C1005 H1032 0.930 . S
C1006 C1005 1.442 . S
C1006 C1007 1.381 . S
C1006 H1033 0.931 . S
C1007 C1006 1.381 . S
C1007 C1008 1.321 . S
C1008 C1007 1.321 . S
C1008 C1009 1.403 . S
C1008 H1034 0.934 . S
C1009 C1004 1.413 . S
C1009 C1008 1.403 . S
C1009 H1035 0.930 . S
C1010 O1024 1.275 . S
C1010 O1025 1.256 . S
C1011 O1026 1.259 . S
C1011 O1027 1.268 . S
C1012 Ho1001 2.811 . S
C1012 C1013 1.488 . S
C1012 O1028 1.215 . S
C1012 O1029 1.289 . S
C1013 C1012 1.488 . S
C1013 C1014 1.348 . S
C1013 C1018 1.413 . S
C1014 C1013 1.348 . S
C1014 C1015 1.442 . S
C1014 H1036 0.930 . S
C1015 C1014 1.442 . S
C1015 C1016 1.381 . S
C1015 H1037 0.931 . S
C1016 C1015 1.381 . S
C1016 C1017 1.321 . S
C1017 C1016 1.321 . S
C1017 C1018 1.403 . S
C1017 H1038 0.934 . S
C1018 C1013 1.413 . S
C1018 C1017 1.403 . S
C1018 H1039 0.930 . S
C1019 O1030 1.275 . S
C1019 O1031 1.256 . S
O1020 Ho1000 2.322 . S
O1020 C1002 1.259 . S
O1021 Ho1001 2.346 . S
O1021 C1002 1.268 . S
O1022 Ho1000 2.378 . S
O1022 C1003 1.215 . S
O1023 Ho1000 2.524 . S
O1023 C1003 1.289 . S
O1024 Ho1000 2.381 . S
O1024 C1010 1.275 . S
O1025 Ho1000 2.669 . S
O1025 Ho1001 2.305 . S
O1025 C1010 1.256 . S
O1026 Ho1001 2.322 . S
O1026 C1011 1.259 . S
O1027 Ho1000 2.346 . S
O1027 C1011 1.268 . S
O1028 Ho1001 2.378 . S
O1028 C1012 1.215 . S
O1029 Ho1001 2.524 . S
O1029 C1012 1.289 . S
O1030 Ho1001 2.381 . S
O1030 C1019 1.275 . S
O1031 Ho1000 2.305 . S
O1031 Ho1001 2.669 . S
O1031 C1019 1.256 . S
H1032 C1005 0.930 . S
H1033 C1006 0.931 . S
H1034 C1008 0.934 . S
H1035 C1009 0.930 . S
H1036 C1014 0.930 . S
H1037 C1015 0.931 . S
H1038 C1017 0.934 . S
H1039 C1018 0.930 . S
Ho1040 C1043 2.811 . S
Ho1040 O1060 2.322 . S
Ho1040 O1062 2.378 . S
Ho1040 O1063 2.524 . S
Ho1040 O1064 2.381 . S
Ho1040 O1065 2.669 . S
Ho1040 O1067 2.346 . S
Ho1040 O1071 2.305 . S
Ho1041 C1052 2.811 . S
Ho1041 O1061 2.346 . S
Ho1041 O1065 2.305 . S
Ho1041 O1066 2.322 . S
Ho1041 O1068 2.378 . S
Ho1041 O1069 2.524 . S
Ho1041 O1070 2.381 . S
Ho1041 O1071 2.669 . S
C1042 O1060 1.259 . S
C1042 O1061 1.268 . S
C1043 Ho1040 2.811 . S
C1043 C1044 1.488 . S
C1043 O1062 1.215 . S
C1043 O1063 1.289 . S
C1044 C1043 1.488 . S
C1044 C1045 1.348 . S
C1044 C1049 1.413 . S
C1045 C1044 1.348 . S
C1045 C1046 1.442 . S
C1045 H1072 0.930 . S
C1046 C1045 1.442 . S
C1046 C1047 1.381 . S
C1046 H1073 0.931 . S
C1047 C1046 1.381 . S
C1047 C1048 1.321 . S
C1048 C1047 1.321 . S
C1048 C1049 1.403 . S
C1048 H1074 0.934 . S
C1049 C1044 1.413 . S
C1049 C1048 1.403 . S
C1049 H1075 0.930 . S
C1050 O1064 1.275 . S
C1050 O1065 1.256 . S
C1051 O1066 1.259 . S
C1051 O1067 1.268 . S
C1052 Ho1041 2.811 . S
C1052 C1053 1.488 . S
C1052 O1068 1.215 . S
C1052 O1069 1.289 . S
C1053 C1052 1.488 . S
C1053 C1054 1.348 . S
C1053 C1058 1.413 . S
C1054 C1053 1.348 . S
C1054 C1055 1.442 . S
C1054 H1076 0.930 . S
C1055 C1054 1.442 . S
C1055 C1056 1.381 . S
C1055 H1077 0.931 . S
C1056 C1055 1.381 . S
C1056 C1057 1.321 . S
C1057 C1056 1.321 . S
C1057 C1058 1.403 . S
C1057 H1078 0.934 . S
C1058 C1053 1.413 . S
C1058 C1057 1.403 . S
C1058 H1079 0.930 . S
C1059 O1070 1.275 . S
C1059 O1071 1.256 . S
O1060 Ho1040 2.322 . S
O1060 C1042 1.259 . S
O1061 Ho1041 2.346 . S
O1061 C1042 1.268 . S
O1062 Ho1040 2.378 . S
O1062 C1043 1.215 . S
O1063 Ho1040 2.524 . S
O1063 C1043 1.289 . S
O1064 Ho1040 2.381 . S
O1064 C1050 1.275 . S
O1065 Ho1040 2.669 . S
O1065 Ho1041 2.305 . S
O1065 C1050 1.256 . S
O1066 Ho1041 2.322 . S
O1066 C1051 1.259 . S
O1067 Ho1040 2.346 . S
O1067 C1051 1.268 . S
O1068 Ho1041 2.378 . S
O1068 C1052 1.215 . S
O1069 Ho1041 2.524 . S
O1069 C1052 1.289 . S
O1070 Ho1041 2.381 . S
O1070 C1059 1.275 . S
O1071 Ho1040 2.305 . S
O1071 Ho1041 2.669 . S
O1071 C1059 1.256 . S
H1072 C1045 0.930 . S
H1073 C1046 0.931 . S
H1074 C1048 0.934 . S
H1075 C1049 0.930 . S
H1076 C1054 0.930 . S
H1077 C1055 0.931 . S
H1078 C1057 0.934 . S
H1079 C1058 0.930 . S
Ho1080 C1083 2.811 . S
Ho1080 O1100 2.322 . S
Ho1080 O1102 2.378 . S
Ho1080 O1103 2.524 . S
Ho1080 O1104 2.381 . S
Ho1080 O1105 2.669 . S
Ho1080 O1107 2.346 . S
Ho1080 O1111 2.305 . S
Ho1081 C1092 2.811 . S
Ho1081 O1101 2.346 . S
Ho1081 O1105 2.305 . S
Ho1081 O1106 2.322 . S
Ho1081 O1108 2.378 . S
Ho1081 O1109 2.524 . S
Ho1081 O1110 2.381 . S
Ho1081 O1111 2.669 . S
C1082 O1100 1.259 . S
C1082 O1101 1.268 . S
C1083 Ho1080 2.811 . S
C1083 C1084 1.488 . S
C1083 O1102 1.215 . S
C1083 O1103 1.289 . S
C1084 C1083 1.488 . S
C1084 C1085 1.348 . S
C1084 C1089 1.413 . S
C1085 C1084 1.348 . S
C1085 C1086 1.442 . S
C1085 H1112 0.930 . S
C1086 C1085 1.442 . S
C1086 C1087 1.381 . S
C1086 H1113 0.931 . S
C1087 C1086 1.381 . S
C1087 C1088 1.321 . S
C1088 C1087 1.321 . S
C1088 C1089 1.403 . S
C1088 H1114 0.934 . S
C1089 C1084 1.413 . S
C1089 C1088 1.403 . S
C1089 H1115 0.930 . S
C1090 O1104 1.275 . S
C1090 O1105 1.256 . S
C1091 O1106 1.259 . S
C1091 O1107 1.268 . S
C1092 Ho1081 2.811 . S
C1092 C1093 1.488 . S
C1092 O1108 1.215 . S
C1092 O1109 1.289 . S
C1093 C1092 1.488 . S
C1093 C1094 1.348 . S
C1093 C1098 1.413 . S
C1094 C1093 1.348 . S
C1094 C1095 1.442 . S
C1094 H1116 0.930 . S
C1095 C1094 1.442 . S
C1095 C1096 1.381 . S
C1095 H1117 0.931 . S
C1096 C1095 1.381 . S
C1096 C1097 1.321 . S
C1097 C1096 1.321 . S
C1097 C1098 1.403 . S
C1097 H1118 0.934 . S
C1098 C1093 1.413 . S
C1098 C1097 1.403 . S
C1098 H1119 0.930 . S
C1099 O1110 1.275 . S
C1099 O1111 1.256 . S
O1100 Ho1080 2.322 . S
O1100 C1082 1.259 . S
O1101 Ho1081 2.346 . S
O1101 C1082 1.268 . S
O1102 Ho1080 2.378 . S
O1102 C1083 1.215 . S
O1103 Ho1080 2.524 . S
O1103 C1083 1.289 . S
O1104 Ho1080 2.381 . S
O1104 C1090 1.275 . S
O1105 Ho1080 2.669 . S
O1105 Ho1081 2.305 . S
O1105 C1090 1.256 . S
O1106 Ho1081 2.322 . S
O1106 C1091 1.259 . S
O1107 Ho1080 2.346 . S
O1107 C1091 1.268 . S
O1108 Ho1081 2.378 . S
O1108 C1092 1.215 . S
O1109 Ho1081 2.524 . S
O1109 C1092 1.289 . S
O1110 Ho1081 2.381 . S
O1110 C1099 1.275 . S
O1111 Ho1080 2.305 . S
O1111 Ho1081 2.669 . S
O1111 C1099 1.256 . S
H1112 C1085 0.930 . S
H1113 C1086 0.931 . S
H1114 C1088 0.934 . S
H1115 C1089 0.930 . S
H1116 C1094 0.930 . S
H1117 C1095 0.931 . S
H1118 C1097 0.934 . S
H1119 C1098 0.930 . S
Ho1120 C1123 2.811 . S
Ho1120 O1140 2.322 . S
Ho1120 O1142 2.378 . S
Ho1120 O1143 2.524 . S
Ho1120 O1144 2.381 . S
Ho1120 O1145 2.669 . S
Ho1120 O1147 2.346 . S
Ho1120 O1151 2.305 . S
Ho1121 C1132 2.811 . S
Ho1121 O1141 2.346 . S
Ho1121 O1145 2.305 . S
Ho1121 O1146 2.322 . S
Ho1121 O1148 2.378 . S
Ho1121 O1149 2.524 . S
Ho1121 O1150 2.381 . S
Ho1121 O1151 2.669 . S
C1122 O1140 1.259 . S
C1122 O1141 1.268 . S
C1123 Ho1120 2.811 . S
C1123 C1124 1.488 . S
C1123 O1142 1.215 . S
C1123 O1143 1.289 . S
C1124 C1123 1.488 . S
C1124 C1125 1.348 . S
C1124 C1129 1.413 . S
C1125 C1124 1.348 . S
C1125 C1126 1.442 . S
C1125 H1152 0.930 . S
C1126 C1125 1.442 . S
C1126 C1127 1.381 . S
C1126 H1153 0.931 . S
C1127 C1126 1.381 . S
C1127 C1128 1.321 . S
C1128 C1127 1.321 . S
C1128 C1129 1.403 . S
C1128 H1154 0.934 . S
C1129 C1124 1.413 . S
C1129 C1128 1.403 . S
C1129 H1155 0.930 . S
C1130 O1144 1.275 . S
C1130 O1145 1.256 . S
C1131 O1146 1.259 . S
C1131 O1147 1.268 . S
C1132 Ho1121 2.811 . S
C1132 C1133 1.488 . S
C1132 O1148 1.215 . S
C1132 O1149 1.289 . S
C1133 C1132 1.488 . S
C1133 C1134 1.348 . S
C1133 C1138 1.413 . S
C1134 C1133 1.348 . S
C1134 C1135 1.442 . S
C1134 H1156 0.930 . S
C1135 C1134 1.442 . S
C1135 C1136 1.381 . S
C1135 H1157 0.931 . S
C1136 C1135 1.381 . S
C1136 C1137 1.321 . S
C1137 C1136 1.321 . S
C1137 C1138 1.403 . S
C1137 H1158 0.934 . S
C1138 C1133 1.413 . S
C1138 C1137 1.403 . S
C1138 H1159 0.930 . S
C1139 O1150 1.275 . S
C1139 O1151 1.256 . S
O1140 Ho1120 2.322 . S
O1140 C1122 1.259 . S
O1141 Ho1121 2.346 . S
O1141 C1122 1.268 . S
O1142 Ho1120 2.378 . S
O1142 C1123 1.215 . S
O1143 Ho1120 2.524 . S
O1143 C1123 1.289 . S
O1144 Ho1120 2.381 . S
O1144 C1130 1.275 . S
O1145 Ho1120 2.669 . S
O1145 Ho1121 2.305 . S
O1145 C1130 1.256 . S
O1146 Ho1121 2.322 . S
O1146 C1131 1.259 . S
O1147 Ho1120 2.346 . S
O1147 C1131 1.268 . S
O1148 Ho1121 2.378 . S
O1148 C1132 1.215 . S
O1149 Ho1121 2.524 . S
O1149 C1132 1.289 . S
O1150 Ho1121 2.381 . S
O1150 C1139 1.275 . S
O1151 Ho1120 2.305 . S
O1151 Ho1121 2.669 . S
O1151 C1139 1.256 . S
H1152 C1125 0.930 . S
H1153 C1126 0.931 . S
H1154 C1128 0.934 . S
H1155 C1129 0.930 . S
H1156 C1134 0.930 . S
H1157 C1135 0.931 . S
H1158 C1137 0.934 . S
H1159 C1138 0.930 . S
Ho1160 C1163 2.811 . S
Ho1160 O1180 2.322 . S
Ho1160 O1182 2.378 . S
Ho1160 O1183 2.524 . S
Ho1160 O1184 2.381 . S
Ho1160 O1185 2.669 . S
Ho1160 O1187 2.346 . S
Ho1160 O1191 2.305 . S
Ho1161 C1172 2.811 . S
Ho1161 O1181 2.346 . S
Ho1161 O1185 2.305 . S
Ho1161 O1186 2.322 . S
Ho1161 O1188 2.378 . S
Ho1161 O1189 2.524 . S
Ho1161 O1190 2.381 . S
Ho1161 O1191 2.669 . S
C1162 O1180 1.259 . S
C1162 O1181 1.268 . S
C1163 Ho1160 2.811 . S
C1163 C1164 1.488 . S
C1163 O1182 1.215 . S
C1163 O1183 1.289 . S
C1164 C1163 1.488 . S
C1164 C1165 1.348 . S
C1164 C1169 1.413 . S
C1165 C1164 1.348 . S
C1165 C1166 1.442 . S
C1165 H1192 0.930 . S
C1166 C1165 1.442 . S
C1166 C1167 1.381 . S
C1166 H1193 0.931 . S
C1167 C1166 1.381 . S
C1167 C1168 1.321 . S
C1168 C1167 1.321 . S
C1168 C1169 1.403 . S
C1168 H1194 0.934 . S
C1169 C1164 1.413 . S
C1169 C1168 1.403 . S
C1169 H1195 0.930 . S
C1170 O1184 1.275 . S
C1170 O1185 1.256 . S
C1171 O1186 1.259 . S
C1171 O1187 1.268 . S
C1172 Ho1161 2.811 . S
C1172 C1173 1.488 . S
C1172 O1188 1.215 . S
C1172 O1189 1.289 . S
C1173 C1172 1.488 . S
C1173 C1174 1.348 . S
C1173 C1178 1.413 . S
C1174 C1173 1.348 . S
C1174 C1175 1.442 . S
C1174 H1196 0.930 . S
C1175 C1174 1.442 . S
C1175 C1176 1.381 . S
C1175 H1197 0.931 . S
C1176 C1175 1.381 . S
C1176 C1177 1.321 . S
C1177 C1176 1.321 . S
C1177 C1178 1.403 . S
C1177 H1198 0.934 . S
C1178 C1173 1.413 . S
C1178 C1177 1.403 . S
C1178 H1199 0.930 . S
C1179 O1190 1.275 . S
C1179 O1191 1.256 . S
O1180 Ho1160 2.322 . S
O1180 C1162 1.259 . S
O1181 Ho1161 2.346 . S
O1181 C1162 1.268 . S
O1182 Ho1160 2.378 . S
O1182 C1163 1.215 . S
O1183 Ho1160 2.524 . S
O1183 C1163 1.289 . S
O1184 Ho1160 2.381 . S
O1184 C1170 1.275 . S
O1185 Ho1160 2.669 . S
O1185 Ho1161 2.305 . S
O1185 C1170 1.256 . S
O1186 Ho1161 2.322 . S
O1186 C1171 1.259 . S
O1187 Ho1160 2.346 . S
O1187 C1171 1.268 . S
O1188 Ho1161 2.378 . S
O1188 C1172 1.215 . S
O1189 Ho1161 2.524 . S
O1189 C1172 1.289 . S
O1190 Ho1161 2.381 . S
O1190 C1179 1.275 . S
O1191 Ho1160 2.305 . S
O1191 Ho1161 2.669 . S
O1191 C1179 1.256 . S
H1192 C1165 0.930 . S
H1193 C1166 0.931 . S
H1194 C1168 0.934 . S
H1195 C1169 0.930 . S
H1196 C1174 0.930 . S
H1197 C1175 0.931 . S
H1198 C1177 0.934 . S
H1199 C1178 0.930 . S
Ho1200 C1203 2.811 . S
Ho1200 O1220 2.322 . S
Ho1200 O1222 2.378 . S
Ho1200 O1223 2.524 . S
Ho1200 O1224 2.381 . S
Ho1200 O1225 2.669 . S
Ho1200 O1227 2.346 . S
Ho1200 O1231 2.305 . S
Ho1201 C1212 2.811 . S
Ho1201 O1221 2.346 . S
Ho1201 O1225 2.305 . S
Ho1201 O1226 2.322 . S
Ho1201 O1228 2.378 . S
Ho1201 O1229 2.524 . S
Ho1201 O1230 2.381 . S
Ho1201 O1231 2.669 . S
C1202 O1220 1.259 . S
C1202 O1221 1.268 . S
C1203 Ho1200 2.811 . S
C1203 C1204 1.488 . S
C1203 O1222 1.215 . S
C1203 O1223 1.289 . S
C1204 C1203 1.488 . S
C1204 C1205 1.348 . S
C1204 C1209 1.413 . S
C1205 C1204 1.348 . S
C1205 C1206 1.442 . S
C1205 H1232 0.930 . S
C1206 C1205 1.442 . S
C1206 C1207 1.381 . S
C1206 H1233 0.931 . S
C1207 C1206 1.381 . S
C1207 C1208 1.321 . S
C1208 C1207 1.321 . S
C1208 C1209 1.403 . S
C1208 H1234 0.934 . S
C1209 C1204 1.413 . S
C1209 C1208 1.403 . S
C1209 H1235 0.930 . S
C1210 O1224 1.275 . S
C1210 O1225 1.256 . S
C1211 O1226 1.259 . S
C1211 O1227 1.268 . S
C1212 Ho1201 2.811 . S
C1212 C1213 1.488 . S
C1212 O1228 1.215 . S
C1212 O1229 1.289 . S
C1213 C1212 1.488 . S
C1213 C1214 1.348 . S
C1213 C1218 1.413 . S
C1214 C1213 1.348 . S
C1214 C1215 1.442 . S
C1214 H1236 0.930 . S
C1215 C1214 1.442 . S
C1215 C1216 1.381 . S
C1215 H1237 0.931 . S
C1216 C1215 1.381 . S
C1216 C1217 1.321 . S
C1217 C1216 1.321 . S
C1217 C1218 1.403 . S
C1217 H1238 0.934 . S
C1218 C1213 1.413 . S
C1218 C1217 1.403 . S
C1218 H1239 0.930 . S
C1219 O1230 1.275 . S
C1219 O1231 1.256 . S
O1220 Ho1200 2.322 . S
O1220 C1202 1.259 . S
O1221 Ho1201 2.346 . S
O1221 C1202 1.268 . S
O1222 Ho1200 2.378 . S
O1222 C1203 1.215 . S
O1223 Ho1200 2.524 . S
O1223 C1203 1.289 . S
O1224 Ho1200 2.381 . S
O1224 C1210 1.275 . S
O1225 Ho1200 2.669 . S
O1225 Ho1201 2.305 . S
O1225 C1210 1.256 . S
O1226 Ho1201 2.322 . S
O1226 C1211 1.259 . S
O1227 Ho1200 2.346 . S
O1227 C1211 1.268 . S
O1228 Ho1201 2.378 . S
O1228 C1212 1.215 . S
O1229 Ho1201 2.524 . S
O1229 C1212 1.289 . S
O1230 Ho1201 2.381 . S
O1230 C1219 1.275 . S
O1231 Ho1200 2.305 . S
O1231 Ho1201 2.669 . S
O1231 C1219 1.256 . S
H1232 C1205 0.930 . S
H1233 C1206 0.931 . S
H1234 C1208 0.934 . S
H1235 C1209 0.930 . S
H1236 C1214 0.930 . S
H1237 C1215 0.931 . S
H1238 C1217 0.934 . S
H1239 C1218 0.930 . S
Ho1240 C1243 2.811 . S
Ho1240 O1260 2.322 . S
Ho1240 O1262 2.378 . S
Ho1240 O1263 2.524 . S
Ho1240 O1264 2.381 . S
Ho1240 O1265 2.669 . S
Ho1240 O1267 2.346 . S
Ho1240 O1271 2.305 . S
Ho1241 C1252 2.811 . S
Ho1241 O1261 2.346 . S
Ho1241 O1265 2.305 . S
Ho1241 O1266 2.322 . S
Ho1241 O1268 2.378 . S
Ho1241 O1269 2.524 . S
Ho1241 O1270 2.381 . S
Ho1241 O1271 2.669 . S
C1242 O1260 1.259 . S
C1242 O1261 1.268 . S
C1243 Ho1240 2.811 . S
C1243 C1244 1.488 . S
C1243 O1262 1.215 . S
C1243 O1263 1.289 . S
C1244 C1243 1.488 . S
C1244 C1245 1.348 . S
C1244 C1249 1.413 . S
C1245 C1244 1.348 . S
C1245 C1246 1.442 . S
C1245 H1272 0.930 . S
C1246 C1245 1.442 . S
C1246 C1247 1.381 . S
C1246 H1273 0.931 . S
C1247 C1246 1.381 . S
C1247 C1248 1.321 . S
C1248 C1247 1.321 . S
C1248 C1249 1.403 . S
C1248 H1274 0.934 . S
C1249 C1244 1.413 . S
C1249 C1248 1.403 . S
C1249 H1275 0.930 . S
C1250 O1264 1.275 . S
C1250 O1265 1.256 . S
C1251 O1266 1.259 . S
C1251 O1267 1.268 . S
C1252 Ho1241 2.811 . S
C1252 C1253 1.488 . S
C1252 O1268 1.215 . S
C1252 O1269 1.289 . S
C1253 C1252 1.488 . S
C1253 C1254 1.348 . S
C1253 C1258 1.413 . S
C1254 C1253 1.348 . S
C1254 C1255 1.442 . S
C1254 H1276 0.930 . S
C1255 C1254 1.442 . S
C1255 C1256 1.381 . S
C1255 H1277 0.931 . S
C1256 C1255 1.381 . S
C1256 C1257 1.321 . S
C1257 C1256 1.321 . S
C1257 C1258 1.403 . S
C1257 H1278 0.934 . S
C1258 C1253 1.413 . S
C1258 C1257 1.403 . S
C1258 H1279 0.930 . S
C1259 O1270 1.275 . S
C1259 O1271 1.256 . S
O1260 Ho1240 2.322 . S
O1260 C1242 1.259 . S
O1261 Ho1241 2.346 . S
O1261 C1242 1.268 . S
O1262 Ho1240 2.378 . S
O1262 C1243 1.215 . S
O1263 Ho1240 2.524 . S
O1263 C1243 1.289 . S
O1264 Ho1240 2.381 . S
O1264 C1250 1.275 . S
O1265 Ho1240 2.669 . S
O1265 Ho1241 2.305 . S
O1265 C1250 1.256 . S
O1266 Ho1241 2.322 . S
O1266 C1251 1.259 . S
O1267 Ho1240 2.346 . S
O1267 C1251 1.268 . S
O1268 Ho1241 2.378 . S
O1268 C1252 1.215 . S
O1269 Ho1241 2.524 . S
O1269 C1252 1.289 . S
O1270 Ho1241 2.381 . S
O1270 C1259 1.275 . S
O1271 Ho1240 2.305 . S
O1271 Ho1241 2.669 . S
O1271 C1259 1.256 . S
H1272 C1245 0.930 . S
H1273 C1246 0.931 . S
H1274 C1248 0.934 . S
H1275 C1249 0.930 . S
H1276 C1254 0.930 . S
H1277 C1255 0.931 . S
H1278 C1257 0.934 . S
H1279 C1258 0.930 . S
Ho1280 C1283 2.811 . S
Ho1280 O1300 2.322 . S
Ho1280 O1302 2.378 . S
Ho1280 O1303 2.524 . S
Ho1280 O1304 2.381 . S
Ho1280 O1305 2.669 . S
Ho1280 O1307 2.346 . S
Ho1280 O1311 2.305 . S
Ho1281 C1292 2.811 . S
Ho1281 O1301 2.346 . S
Ho1281 O1305 2.305 . S
Ho1281 O1306 2.322 . S
Ho1281 O1308 2.378 . S
Ho1281 O1309 2.524 . S
Ho1281 O1310 2.381 . S
Ho1281 O1311 2.669 . S
C1282 O1300 1.259 . S
C1282 O1301 1.268 . S
C1283 Ho1280 2.811 . S
C1283 C1284 1.488 . S
C1283 O1302 1.215 . S
C1283 O1303 1.289 . S
C1284 C1283 1.488 . S
C1284 C1285 1.348 . S
C1284 C1289 1.413 . S
C1285 C1284 1.348 . S
C1285 C1286 1.442 . S
C1285 H1312 0.930 . S
C1286 C1285 1.442 . S
C1286 C1287 1.381 . S
C1286 H1313 0.931 . S
C1287 C1286 1.381 . S
C1287 C1288 1.321 . S
C1288 C1287 1.321 . S
C1288 C1289 1.403 . S
C1288 H1314 0.934 . S
C1289 C1284 1.413 . S
C1289 C1288 1.403 . S
C1289 H1315 0.930 . S
C1290 O1304 1.275 . S
C1290 O1305 1.256 . S
C1291 O1306 1.259 . S
C1291 O1307 1.268 . S
C1292 Ho1281 2.811 . S
C1292 C1293 1.488 . S
C1292 O1308 1.215 . S
C1292 O1309 1.289 . S
C1293 C1292 1.488 . S
C1293 C1294 1.348 . S
C1293 C1298 1.413 . S
C1294 C1293 1.348 . S
C1294 C1295 1.442 . S
C1294 H1316 0.930 . S
C1295 C1294 1.442 . S
C1295 C1296 1.381 . S
C1295 H1317 0.931 . S
C1296 C1295 1.381 . S
C1296 C1297 1.321 . S
C1297 C1296 1.321 . S
C1297 C1298 1.403 . S
C1297 H1318 0.934 . S
C1298 C1293 1.413 . S
C1298 C1297 1.403 . S
C1298 H1319 0.930 . S
C1299 O1310 1.275 . S
C1299 O1311 1.256 . S
O1300 Ho1280 2.322 . S
O1300 C1282 1.259 . S
O1301 Ho1281 2.346 . S
O1301 C1282 1.268 . S
O1302 Ho1280 2.378 . S
O1302 C1283 1.215 . S
O1303 Ho1280 2.524 . S
O1303 C1283 1.289 . S
O1304 Ho1280 2.381 . S
O1304 C1290 1.275 . S
O1305 Ho1280 2.669 . S
O1305 Ho1281 2.305 . S
O1305 C1290 1.256 . S
O1306 Ho1281 2.322 . S
O1306 C1291 1.259 . S
O1307 Ho1280 2.346 . S
O1307 C1291 1.268 . S
O1308 Ho1281 2.378 . S
O1308 C1292 1.215 . S
O1309 Ho1281 2.524 . S
O1309 C1292 1.289 . S
O1310 Ho1281 2.381 . S
O1310 C1299 1.275 . S
O1311 Ho1280 2.305 . S
O1311 Ho1281 2.669 . S
O1311 C1299 1.256 . S
H1312 C1285 0.930 . S
H1313 C1286 0.931 . S
H1314 C1288 0.934 . S
H1315 C1289 0.930 . S
H1316 C1294 0.930 . S
H1317 C1295 0.931 . S
H1318 C1297 0.934 . S
H1319 C1298 0.930 . S
Ho1320 C1323 2.811 . S
Ho1320 O1340 2.322 . S
Ho1320 O1342 2.378 . S
Ho1320 O1343 2.524 . S
Ho1320 O1344 2.381 . S
Ho1320 O1345 2.669 . S
Ho1320 O1347 2.346 . S
Ho1320 O1351 2.305 . S
Ho1321 C1332 2.811 . S
Ho1321 O1341 2.346 . S
Ho1321 O1345 2.305 . S
Ho1321 O1346 2.322 . S
Ho1321 O1348 2.378 . S
Ho1321 O1349 2.524 . S
Ho1321 O1350 2.381 . S
Ho1321 O1351 2.669 . S
C1322 O1340 1.259 . S
C1322 O1341 1.268 . S
C1323 Ho1320 2.811 . S
C1323 C1324 1.488 . S
C1323 O1342 1.215 . S
C1323 O1343 1.289 . S
C1324 C1323 1.488 . S
C1324 C1325 1.348 . S
C1324 C1329 1.413 . S
C1325 C1324 1.348 . S
C1325 C1326 1.442 . S
C1325 H1352 0.930 . S
C1326 C1325 1.442 . S
C1326 C1327 1.381 . S
C1326 H1353 0.931 . S
C1327 C1326 1.381 . S
C1327 C1328 1.321 . S
C1328 C1327 1.321 . S
C1328 C1329 1.403 . S
C1328 H1354 0.934 . S
C1329 C1324 1.413 . S
C1329 C1328 1.403 . S
C1329 H1355 0.930 . S
C1330 O1344 1.275 . S
C1330 O1345 1.256 . S
C1331 O1346 1.259 . S
C1331 O1347 1.268 . S
C1332 Ho1321 2.811 . S
C1332 C1333 1.488 . S
C1332 O1348 1.215 . S
C1332 O1349 1.289 . S
C1333 C1332 1.488 . S
C1333 C1334 1.348 . S
C1333 C1338 1.413 . S
C1334 C1333 1.348 . S
C1334 C1335 1.442 . S
C1334 H1356 0.930 . S
C1335 C1334 1.442 . S
C1335 C1336 1.381 . S
C1335 H1357 0.931 . S
C1336 C1335 1.381 . S
C1336 C1337 1.321 . S
C1337 C1336 1.321 . S
C1337 C1338 1.403 . S
C1337 H1358 0.934 . S
C1338 C1333 1.413 . S
C1338 C1337 1.403 . S
C1338 H1359 0.930 . S
C1339 O1350 1.275 . S
C1339 O1351 1.256 . S
O1340 Ho1320 2.322 . S
O1340 C1322 1.259 . S
O1341 Ho1321 2.346 . S
O1341 C1322 1.268 . S
O1342 Ho1320 2.378 . S
O1342 C1323 1.215 . S
O1343 Ho1320 2.524 . S
O1343 C1323 1.289 . S
O1344 Ho1320 2.381 . S
O1344 C1330 1.275 . S
O1345 Ho1320 2.669 . S
O1345 Ho1321 2.305 . S
O1345 C1330 1.256 . S
O1346 Ho1321 2.322 . S
O1346 C1331 1.259 . S
O1347 Ho1320 2.346 . S
O1347 C1331 1.268 . S
O1348 Ho1321 2.378 . S
O1348 C1332 1.215 . S
O1349 Ho1321 2.524 . S
O1349 C1332 1.289 . S
O1350 Ho1321 2.381 . S
O1350 C1339 1.275 . S
O1351 Ho1320 2.305 . S
O1351 Ho1321 2.669 . S
O1351 C1339 1.256 . S
H1352 C1325 0.930 . S
H1353 C1326 0.931 . S
H1354 C1328 0.934 . S
H1355 C1329 0.930 . S
H1356 C1334 0.930 . S
H1357 C1335 0.931 . S
H1358 C1337 0.934 . S
H1359 C1338 0.930 . S
Ho1360 C1363 2.811 . S
Ho1360 O1380 2.322 . S
Ho1360 O1382 2.378 . S
Ho1360 O1383 2.524 . S
Ho1360 O1384 2.381 . S
Ho1360 O1385 2.669 . S
Ho1360 O1387 2.346 . S
Ho1360 O1391 2.305 . S
Ho1361 C1372 2.811 . S
Ho1361 O1381 2.346 . S
Ho1361 O1385 2.305 . S
Ho1361 O1386 2.322 . S
Ho1361 O1388 2.378 . S
Ho1361 O1389 2.524 . S
Ho1361 O1390 2.381 . S
Ho1361 O1391 2.669 . S
C1362 O1380 1.259 . S
C1362 O1381 1.268 . S
C1363 Ho1360 2.811 . S
C1363 C1364 1.488 . S
C1363 O1382 1.215 . S
C1363 O1383 1.289 . S
C1364 C1363 1.488 . S
C1364 C1365 1.348 . S
C1364 C1369 1.413 . S
C1365 C1364 1.348 . S
C1365 C1366 1.442 . S
C1365 H1392 0.930 . S
C1366 C1365 1.442 . S
C1366 C1367 1.381 . S
C1366 H1393 0.931 . S
C1367 C1366 1.381 . S
C1367 C1368 1.321 . S
C1368 C1367 1.321 . S
C1368 C1369 1.403 . S
C1368 H1394 0.934 . S
C1369 C1364 1.413 . S
C1369 C1368 1.403 . S
C1369 H1395 0.930 . S
C1370 O1384 1.275 . S
C1370 O1385 1.256 . S
C1371 O1386 1.259 . S
C1371 O1387 1.268 . S
C1372 Ho1361 2.811 . S
C1372 C1373 1.488 . S
C1372 O1388 1.215 . S
C1372 O1389 1.289 . S
C1373 C1372 1.488 . S
C1373 C1374 1.348 . S
C1373 C1378 1.413 . S
C1374 C1373 1.348 . S
C1374 C1375 1.442 . S
C1374 H1396 0.930 . S
C1375 C1374 1.442 . S
C1375 C1376 1.381 . S
C1375 H1397 0.931 . S
C1376 C1375 1.381 . S
C1376 C1377 1.321 . S
C1377 C1376 1.321 . S
C1377 C1378 1.403 . S
C1377 H1398 0.934 . S
C1378 C1373 1.413 . S
C1378 C1377 1.403 . S
C1378 H1399 0.930 . S
C1379 O1390 1.275 . S
C1379 O1391 1.256 . S
O1380 Ho1360 2.322 . S
O1380 C1362 1.259 . S
O1381 Ho1361 2.346 . S
O1381 C1362 1.268 . S
O1382 Ho1360 2.378 . S
O1382 C1363 1.215 . S
O1383 Ho1360 2.524 . S
O1383 C1363 1.289 . S
O1384 Ho1360 2.381 . S
O1384 C1370 1.275 . S
O1385 Ho1360 2.669 . S
O1385 Ho1361 2.305 . S
O1385 C1370 1.256 . S
O1386 Ho1361 2.322 . S
O1386 C1371 1.259 . S
O1387 Ho1360 2.346 . S
O1387 C1371 1.268 . S
O1388 Ho1361 2.378 . S
O1388 C1372 1.215 . S
O1389 Ho1361 2.524 . S
O1389 C1372 1.289 . S
O1390 Ho1361 2.381 . S
O1390 C1379 1.275 . S
O1391 Ho1360 2.305 . S
O1391 Ho1361 2.669 . S
O1391 C1379 1.256 . S
H1392 C1365 0.930 . S
H1393 C1366 0.931 . S
H1394 C1368 0.934 . S
H1395 C1369 0.930 . S
H1396 C1374 0.930 . S
H1397 C1375 0.931 . S
H1398 C1377 0.934 . S
H1399 C1378 0.930 . S
Ho1400 C1403 2.811 . S
Ho1400 O1420 2.322 . S
Ho1400 O1422 2.378 . S
Ho1400 O1423 2.524 . S
Ho1400 O1424 2.381 . S
Ho1400 O1425 2.669 . S
Ho1400 O1427 2.346 . S
Ho1400 O1431 2.305 . S
Ho1401 C1412 2.811 . S
Ho1401 O1421 2.346 . S
Ho1401 O1425 2.305 . S
Ho1401 O1426 2.322 . S
Ho1401 O1428 2.378 . S
Ho1401 O1429 2.524 . S
Ho1401 O1430 2.381 . S
Ho1401 O1431 2.669 . S
C1402 O1420 1.259 . S
C1402 O1421 1.268 . S
C1403 Ho1400 2.811 . S
C1403 C1404 1.488 . S
C1403 O1422 1.215 . S
C1403 O1423 1.289 . S
C1404 C1403 1.488 . S
C1404 C1405 1.348 . S
C1404 C1409 1.413 . S
C1405 C1404 1.348 . S
C1405 C1406 1.442 . S
C1405 H1432 0.930 . S
C1406 C1405 1.442 . S
C1406 C1407 1.381 . S
C1406 H1433 0.931 . S
C1407 C1406 1.381 . S
C1407 C1408 1.321 . S
C1408 C1407 1.321 . S
C1408 C1409 1.403 . S
C1408 H1434 0.934 . S
C1409 C1404 1.413 . S
C1409 C1408 1.403 . S
C1409 H1435 0.930 . S
C1410 O1424 1.275 . S
C1410 O1425 1.256 . S
C1411 O1426 1.259 . S
C1411 O1427 1.268 . S
C1412 Ho1401 2.811 . S
C1412 C1413 1.488 . S
C1412 O1428 1.215 . S
C1412 O1429 1.289 . S
C1413 C1412 1.488 . S
C1413 C1414 1.348 . S
C1413 C1418 1.413 . S
C1414 C1413 1.348 . S
C1414 C1415 1.442 . S
C1414 H1436 0.930 . S
C1415 C1414 1.442 . S
C1415 C1416 1.381 . S
C1415 H1437 0.931 . S
C1416 C1415 1.381 . S
C1416 C1417 1.321 . S
C1417 C1416 1.321 . S
C1417 C1418 1.403 . S
C1417 H1438 0.934 . S
C1418 C1413 1.413 . S
C1418 C1417 1.403 . S
C1418 H1439 0.930 . S
C1419 O1430 1.275 . S
C1419 O1431 1.256 . S
O1420 Ho1400 2.322 . S
O1420 C1402 1.259 . S
O1421 Ho1401 2.346 . S
O1421 C1402 1.268 . S
O1422 Ho1400 2.378 . S
O1422 C1403 1.215 . S
O1423 Ho1400 2.524 . S
O1423 C1403 1.289 . S
O1424 Ho1400 2.381 . S
O1424 C1410 1.275 . S
O1425 Ho1400 2.669 . S
O1425 Ho1401 2.305 . S
O1425 C1410 1.256 . S
O1426 Ho1401 2.322 . S
O1426 C1411 1.259 . S
O1427 Ho1400 2.346 . S
O1427 C1411 1.268 . S
O1428 Ho1401 2.378 . S
O1428 C1412 1.215 . S
O1429 Ho1401 2.524 . S
O1429 C1412 1.289 . S
O1430 Ho1401 2.381 . S
O1430 C1419 1.275 . S
O1431 Ho1400 2.305 . S
O1431 Ho1401 2.669 . S
O1431 C1419 1.256 . S
H1432 C1405 0.930 . S
H1433 C1406 0.931 . S
H1434 C1408 0.934 . S
H1435 C1409 0.930 . S
H1436 C1414 0.930 . S
H1437 C1415 0.931 . S
H1438 C1417 0.934 . S
H1439 C1418 0.930 . S
H1440 C1446 0.930 . S
H1441 C1449 0.930 . S
H1442 C1450 0.930 . S
H1443 C1451 0.930 . S
H1444 C1454 0.930 . S
H1445 C1455 0.930 . S
C1446 H1440 0.930 . S
C1446 C1447 1.355 . S
C1446 C1448 1.415 . S
C1447 C1446 1.355 . S
C1447 C1449 1.419 . S
C1448 C1446 1.415 . S
C1448 C1453 1.425 . S
C1448 C1455 1.409 1_554 S
C1449 H1441 0.930 . S
C1449 C1447 1.419 . S
C1449 C1450 1.362 . S
C1450 H1442 0.930 . S
C1450 C1449 1.362 . S
C1450 C1453 1.409 . S
C1451 H1443 0.930 . S
C1451 C1452 1.355 1_554 S
C1451 C1453 1.415 1_565 S
C1452 C1451 1.355 1_556 S
C1452 C1454 1.419 . S
C1453 C1448 1.425 . S
C1453 C1450 1.409 . S
C1453 C1451 1.415 1_545 S
C1454 H1444 0.930 . S
C1454 C1452 1.419 . S
C1454 C1455 1.362 1_565 S
C1455 H1445 0.930 . S
C1455 C1448 1.409 1_556 S
C1455 C1454 1.362 1_545 S
H1456 C1462 0.930 . S
H1457 C1465 0.930 . S
H1458 C1466 0.930 . S
H1459 C1467 0.930 . S
H1460 C1470 0.930 . S
H1461 C1471 0.930 . S
C1462 H1456 0.930 . S
C1462 C1463 1.355 . S
C1462 C1464 1.415 1_456 S
C1463 C1462 1.355 . S
C1463 C1465 1.419 1_556 S
C1464 C1462 1.415 1_654 S
C1464 C1469 1.425 . S
C1464 C1471 1.409 1_554 S
C1465 H1457 0.930 . S
C1465 C1463 1.419 1_554 S
C1465 C1466 1.362 . S
C1466 H1458 0.930 . S
C1466 C1465 1.362 . S
C1466 C1469 1.409 1_455 S
C1467 H1459 0.930 . S
C1467 C1468 1.355 . S
C1467 C1469 1.415 . S
C1468 C1467 1.355 . S
C1468 C1470 1.419 . S
C1469 C1464 1.425 . S
C1469 C1466 1.409 1_655 S
C1469 C1467 1.415 . S
C1470 H1460 0.930 . S
C1470 C1468 1.419 . S
C1470 C1471 1.362 1_554 S
C1471 H1461 0.930 . S
C1471 C1464 1.409 1_556 S
C1471 C1470 1.362 1_556 S
H1472 C1478 0.930 . S
H1473 C1481 0.930 . S
H1474 C1482 0.930 . S
H1475 C1483 0.930 . S
H1476 C1486 0.930 1_556 S
H1477 C1487 0.930 . S
C1478 H1472 0.930 . S
C1478 C1479 1.355 . S
C1478 C1480 1.415 . S
C1479 C1478 1.355 . S
C1479 C1481 1.419 1_556 S
C1480 C1478 1.415 . S
C1480 C1485 1.425 1_556 S
C1480 C1487 1.409 . S
C1481 H1473 0.930 . S
C1481 C1479 1.419 1_554 S
C1481 C1482 1.362 . S
C1482 H1474 0.930 . S
C1482 C1481 1.362 . S
C1482 C1485 1.409 . S
C1483 H1475 0.930 . S
C1483 C1484 1.355 . S
C1483 C1485 1.415 . S
C1484 C1483 1.355 . S
C1484 C1486 1.419 . S
C1485 C1480 1.425 1_554 S
C1485 C1482 1.409 . S
C1485 C1483 1.415 . S
C1486 H1476 0.930 1_554 S
C1486 C1484 1.419 . S
C1486 C1487 1.362 1_554 S
C1487 H1477 0.930 . S
C1487 C1480 1.409 . S
C1487 C1486 1.362 1_556 S
H1488 C1494 0.930 . S
H1489 C1497 0.930 . S
H1490 C1498 0.930 . S
H1491 C1499 0.930 . S
H1492 C1502 0.930 . S
H1493 C1503 0.930 . S
C1494 H1488 0.930 . S
C1494 C1495 1.355 . S
C1494 C1496 1.415 1_655 S
C1495 C1494 1.355 . S
C1495 C1497 1.419 . S
C1496 C1494 1.415 1_455 S
C1496 C1501 1.425 . S
C1496 C1503 1.409 . S
C1497 H1489 0.930 . S
C1497 C1495 1.419 . S
C1497 C1498 1.362 1_655 S
C1498 H1490 0.930 . S
C1498 C1497 1.362 1_455 S
C1498 C1501 1.409 . S
C1499 H1491 0.930 . S
C1499 C1500 1.355 . S
C1499 C1501 1.415 . S
C1500 C1499 1.355 . S
C1500 C1502 1.419 . S
C1501 C1496 1.425 . S
C1501 C1498 1.409 . S
C1501 C1499 1.415 . S
C1502 H1492 0.930 . S
C1502 C1500 1.419 . S
C1502 C1503 1.362 . S
C1503 H1493 0.930 . S
C1503 C1496 1.409 . S
C1503 C1502 1.362 . S
H1504 C1510 0.930 . S
H1505 C1513 0.930 . S
H1506 C1514 0.930 . S
H1507 C1515 0.930 . S
H1508 C1518 0.930 . S
H1509 C1519 0.930 . S
C1510 H1504 0.930 . S
C1510 C1511 1.355 . S
C1510 C1512 1.415 . S
C1511 C1510 1.355 . S
C1511 C1513 1.419 . S
C1512 C1510 1.415 . S
C1512 C1517 1.425 . S
C1512 C1519 1.409 . S
C1513 H1505 0.930 . S
C1513 C1511 1.419 . S
C1513 C1514 1.362 . S
C1514 H1506 0.930 . S
C1514 C1513 1.362 . S
C1514 C1517 1.409 . S
C1515 H1507 0.930 . S
C1515 C1516 1.355 . S
C1515 C1517 1.415 . S
C1516 C1515 1.355 . S
C1516 C1518 1.419 . S
C1517 C1512 1.425 . S
C1517 C1514 1.409 . S
C1517 C1515 1.415 . S
C1518 H1508 0.930 . S
C1518 C1516 1.419 . S
C1518 C1519 1.362 . S
C1519 H1509 0.930 . S
C1519 C1512 1.409 . S
C1519 C1518 1.362 . S
H1520 C1526 0.930 . S
H1521 C1529 0.930 . S
H1522 C1530 0.930 . S
H1523 C1531 0.930 . S
H1524 C1534 0.930 . S
H1525 C1535 0.915 . S
C1526 H1520 0.930 . S
C1526 C1527 1.355 . S
C1526 C1528 1.415 . S
C1527 C1526 1.355 . S
C1527 C1529 1.419 . S
C1528 C1526 1.415 . S
C1528 C1533 1.425 . S
C1528 C1535 1.409 1_565 S
C1529 H1521 0.930 . S
C1529 C1527 1.419 . S
C1529 C1530 1.362 . S
C1530 H1522 0.930 . S
C1530 C1529 1.362 . S
C1530 C1533 1.409 . S
C1531 H1523 0.930 . S
C1531 C1532 1.355 . S
C1531 C1533 1.415 1_545 S
C1532 C1531 1.355 . S
C1532 C1534 1.419 . S
C1533 C1528 1.425 . S
C1533 C1530 1.409 . S
C1533 C1531 1.415 1_565 S
C1534 H1524 0.930 . S
C1534 C1532 1.419 . S
C1534 C1535 1.362 . S
C1535 H1525 0.915 . S
C1535 C1528 1.409 1_545 S
C1535 C1534 1.362 . S
H1536 C1542 0.930 . S
H1537 C1545 0.930 . S
H1538 C1546 0.930 . S
H1539 C1547 0.930 . S
H1540 C1550 0.930 . S
H1541 C1551 0.930 . S
C1542 H1536 0.930 . S
C1542 C1543 1.356 . S
C1542 C1544 1.413 1_544 S
C1543 C1542 1.356 . S
C1543 C1545 1.419 . S
C1544 C1542 1.413 1_566 S
C1544 C1549 1.425 . S
C1544 C1551 1.409 . S
C1545 H1537 0.930 . S
C1545 C1543 1.419 . S
C1545 C1546 1.362 1_544 S
C1546 H1538 0.930 . S
C1546 C1545 1.362 1_566 S
C1546 C1549 1.409 . S
C1547 H1539 0.930 . S
C1547 C1548 1.355 . S
C1547 C1549 1.415 . S
C1548 C1547 1.355 . S
C1548 C1550 1.419 . S
C1549 C1544 1.425 . S
C1549 C1546 1.409 . S
C1549 C1547 1.415 . S
C1550 H1540 0.930 . S
C1550 C1548 1.419 . S
C1550 C1551 1.362 . S
C1551 H1541 0.930 . S
C1551 C1544 1.409 . S
C1551 C1550 1.362 . S
H1552 C1558 0.930 . S
H1553 C1561 0.930 1_554 S
H1554 C1562 0.930 . S
H1555 C1563 0.930 . S
H1556 C1566 0.930 . S
H1557 C1567 0.930 . S
C1558 H1552 0.930 . S
C1558 C1559 1.355 . S
C1558 C1560 1.415 . S
C1559 C1558 1.355 . S
C1559 C1561 1.419 . S
C1560 C1558 1.415 . S
C1560 C1565 1.425 1_556 S
C1560 C1567 1.409 1_455 S
C1561 H1553 0.930 1_556 S
C1561 C1559 1.419 . S
C1561 C1562 1.362 1_556 S
C1562 H1554 0.930 . S
C1562 C1561 1.362 1_554 S
C1562 C1565 1.409 . S
C1563 H1555 0.930 . S
C1563 C1564 1.355 . S
C1563 C1565 1.415 1_655 S
C1564 C1563 1.355 . S
C1564 C1566 1.419 1_554 S
C1565 C1560 1.425 1_554 S
C1565 C1562 1.409 . S
C1565 C1563 1.415 1_455 S
C1566 H1556 0.930 . S
C1566 C1564 1.419 1_556 S
C1566 C1567 1.362 . S
C1567 H1557 0.930 . S
C1567 C1560 1.409 1_655 S
C1567 C1566 1.362 . S
H1568 C1574 0.930 . S
H1569 C1577 0.930 . S
H1570 C1578 0.930 . S
H1571 C1579 0.930 . S
H1572 C1582 0.930 1_554 S
H1573 C1583 0.930 . S
C1574 H1568 0.930 . S
C1574 C1575 1.355 . S
C1574 C1576 1.415 . S
C1575 C1574 1.355 . S
C1575 C1577 1.419 1_554 S
C1576 C1574 1.415 . S
C1576 C1581 1.425 1_554 S
C1576 C1583 1.409 . S
C1577 H1569 0.930 . S
C1577 C1575 1.419 1_556 S
C1577 C1578 1.362 . S
C1578 H1570 0.930 . S
C1578 C1577 1.362 . S
C1578 C1581 1.409 . S
C1579 H1571 0.930 . S
C1579 C1580 1.355 . S
C1579 C1581 1.415 . S
C1580 C1579 1.355 . S
C1580 C1582 1.419 . S
C1581 C1576 1.425 1_556 S
C1581 C1578 1.409 . S
C1581 C1579 1.415 . S
C1582 H1572 0.930 1_556 S
C1582 C1580 1.419 . S
C1582 C1583 1.362 1_556 S
C1583 H1573 0.930 . S
C1583 C1576 1.409 . S
C1583 C1582 1.362 1_554 S
H1584 C1590 0.930 . S
H1585 C1593 0.930 . S
H1586 C1594 0.930 . S
H1587 C1595 0.930 . S
H1588 C1598 0.930 . S
H1589 C1599 0.930 . S
C1590 H1584 0.930 . S
C1590 C1591 1.355 . S
C1590 C1592 1.415 1_455 S
C1591 C1590 1.355 . S
C1591 C1593 1.419 . S
C1592 C1590 1.415 1_655 S
C1592 C1597 1.425 . S
C1592 C1599 1.409 . S
C1593 H1585 0.930 . S
C1593 C1591 1.419 . S
C1593 C1594 1.362 1_455 S
C1594 H1586 0.930 . S
C1594 C1593 1.362 1_655 S
C1594 C1597 1.409 . S
C1595 H1587 0.930 . S
C1595 C1596 1.355 . S
C1595 C1597 1.415 . S
C1596 C1595 1.355 . S
C1596 C1598 1.419 . S
C1597 C1592 1.425 . S
C1597 C1594 1.409 . S
C1597 C1595 1.415 . S
C1598 H1588 0.930 . S
C1598 C1596 1.419 . S
C1598 C1599 1.362 . S
C1599 H1589 0.930 . S
C1599 C1592 1.409 . S
C1599 C1598 1.362 . S
H1600 C1606 0.930 . S
H1601 C1609 0.930 . S
H1602 C1610 0.930 . S
H1603 C1611 0.930 . S
H1604 C1614 0.930 . S
H1605 C1615 0.930 . S
C1606 H1600 0.930 . S
C1606 C1607 1.355 . S
C1606 C1608 1.415 . S
C1607 C1606 1.355 . S
C1607 C1609 1.419 . S
C1608 C1606 1.415 . S
C1608 C1613 1.425 . S
C1608 C1615 1.409 . S
C1609 H1601 0.930 . S
C1609 C1607 1.419 . S
C1609 C1610 1.362 . S
C1610 H1602 0.930 . S
C1610 C1609 1.362 . S
C1610 C1613 1.409 . S
C1611 H1603 0.930 . S
C1611 C1612 1.355 . S
C1611 C1613 1.415 . S
C1612 C1611 1.355 . S
C1612 C1614 1.419 . S
C1613 C1608 1.425 . S
C1613 C1610 1.409 . S
C1613 C1611 1.415 . S
C1614 H1604 0.930 . S
C1614 C1612 1.419 . S
C1614 C1615 1.362 . S
C1615 H1605 0.930 . S
C1615 C1608 1.409 . S
C1615 C1614 1.362 . S
H1616 C1622 0.930 . S
H1617 C1625 0.930 . S
H1618 C1626 0.930 . S
H1619 C1627 0.930 . S
H1620 C1630 0.930 . S
H1621 C1631 0.930 . S
C1622 H1616 0.930 . S
C1622 C1623 1.355 . S
C1622 C1624 1.415 . S
C1623 C1622 1.355 . S
C1623 C1625 1.419 . S
C1624 C1622 1.415 . S
C1624 C1629 1.425 . S
C1624 C1631 1.409 . S
C1625 H1617 0.930 . S
C1625 C1623 1.419 . S
C1625 C1626 1.362 . S
C1626 H1618 0.930 . S
C1626 C1625 1.362 . S
C1626 C1629 1.409 . S
C1627 H1619 0.930 . S
C1627 C1628 1.355 . S
C1627 C1629 1.415 1_565 S
C1628 C1627 1.355 . S
C1628 C1630 1.419 . S
C1629 C1624 1.425 . S
C1629 C1626 1.409 . S
C1629 C1627 1.415 1_545 S
C1630 H1620 0.930 . S
C1630 C1628 1.419 . S
C1630 C1631 1.362 1_565 S
C1631 H1621 0.930 . S
C1631 C1624 1.409 . S
C1631 C1630 1.362 1_545 S
H1632 C1638 0.930 . S
H1633 C1641 0.930 . S
H1634 C1642 0.930 . S
H1635 C1643 0.930 . S
H1636 C1646 0.930 . S
H1637 C1647 0.930 . S
C1638 H1632 0.930 . S
C1638 C1639 1.355 . S
C1638 C1640 1.415 . S
C1639 C1638 1.355 . S
C1639 C1641 1.419 . S
C1640 C1638 1.415 . S
C1640 C1645 1.425 . S
C1640 C1647 1.409 . S
C1641 H1633 0.930 . S
C1641 C1639 1.419 . S
C1641 C1642 1.362 . S
C1642 H1634 0.930 . S
C1642 C1641 1.362 . S
C1642 C1645 1.409 . S
C1643 H1635 0.930 . S
C1643 C1644 1.355 . S
C1643 C1645 1.415 . S
C1644 C1643 1.355 . S
C1644 C1646 1.419 . S
C1645 C1640 1.425 . S
C1645 C1642 1.409 . S
C1645 C1643 1.415 . S
C1646 H1636 0.930 . S
C1646 C1644 1.419 . S
C1646 C1647 1.362 . S
C1647 H1637 0.930 . S
C1647 C1640 1.409 . S
C1647 C1646 1.362 . S
H1648 C1654 0.930 . S
H1649 C1657 0.930 . S
H1650 C1658 0.930 . S
H1651 C1659 0.930 . S
H1652 C1662 0.930 . S
H1653 C1663 0.930 . S
C1654 H1648 0.930 . S
C1654 C1655 1.355 . S
C1654 C1656 1.415 . S
C1655 C1654 1.355 . S
C1655 C1657 1.419 . S
C1656 C1654 1.415 . S
C1656 C1661 1.425 . S
C1656 C1663 1.409 . S
C1657 H1649 0.930 . S
C1657 C1655 1.419 . S
C1657 C1658 1.362 . S
C1658 H1650 0.930 . S
C1658 C1657 1.362 . S
C1658 C1661 1.409 . S
C1659 H1651 0.930 . S
C1659 C1660 1.355 . S
C1659 C1661 1.415 . S
C1660 C1659 1.355 . S
C1660 C1662 1.419 . S
C1661 C1656 1.425 . S
C1661 C1658 1.409 . S
C1661 C1659 1.415 . S
C1662 H1652 0.930 . S
C1662 C1660 1.419 . S
C1662 C1663 1.362 . S
C1663 H1653 0.930 . S
C1663 C1656 1.409 . S
C1663 C1662 1.362 . S
H1664 C1670 0.930 . S
H1665 C1673 0.930 . S
H1666 C1674 0.930 . S
H1667 C1675 0.930 . S
H1668 C1678 0.930 . S
H1669 C1679 0.930 . S
C1670 H1664 0.930 . S
C1670 C1671 1.355 . S
C1670 C1672 1.415 . S
C1671 C1670 1.355 . S
C1671 C1673 1.419 . S
C1672 C1670 1.415 . S
C1672 C1677 1.425 . S
C1672 C1679 1.409 . S
C1673 H1665 0.930 . S
C1673 C1671 1.419 . S
C1673 C1674 1.362 . S
C1674 H1666 0.930 . S
C1674 C1673 1.362 . S
C1674 C1677 1.409 . S
C1675 H1667 0.930 . S
C1675 C1676 1.355 . S
C1675 C1677 1.415 . S
C1676 C1675 1.355 . S
C1676 C1678 1.419 . S
C1677 C1672 1.425 . S
C1677 C1674 1.409 . S
C1677 C1675 1.415 . S
C1678 H1668 0.930 . S
C1678 C1676 1.419 . S
C1678 C1679 1.362 . S
C1679 H1669 0.930 . S
C1679 C1672 1.409 . S
C1679 C1678 1.362 . S
H1680 C1686 0.930 . S
H1681 C1689 0.930 . S
H1682 C1690 0.930 . S
H1683 C1691 0.930 . S
H1684 C1694 0.930 . S
H1685 C1695 0.930 . S
C1686 H1680 0.930 . S
C1686 C1687 1.355 . S
C1686 C1688 1.415 . S
C1687 C1686 1.355 . S
C1687 C1689 1.419 . S
C1688 C1686 1.415 . S
C1688 C1693 1.425 . S
C1688 C1695 1.409 . S
C1689 H1681 0.930 . S
C1689 C1687 1.419 . S
C1689 C1690 1.362 . S
C1690 H1682 0.930 . S
C1690 C1689 1.362 . S
C1690 C1693 1.409 . S
C1691 H1683 0.930 . S
C1691 C1692 1.355 . S
C1691 C1693 1.415 . S
C1692 C1691 1.355 . S
C1692 C1694 1.419 . S
C1693 C1688 1.425 . S
C1693 C1690 1.409 . S
C1693 C1691 1.415 . S
C1694 H1684 0.930 . S
C1694 C1692 1.419 . S
C1694 C1695 1.362 . S
C1695 H1685 0.930 . S
C1695 C1688 1.409 . S
C1695 C1694 1.362 . S
H1696 C1702 0.930 . S
H1697 C1705 0.930 . S
H1698 C1706 0.930 . S
H1699 C1707 0.930 . S
H1700 C1710 0.930 . S
H1701 C1711 0.930 . S
C1702 H1696 0.930 . S
C1702 C1703 1.355 . S
C1702 C1704 1.415 . S
C1703 C1702 1.355 . S
C1703 C1705 1.419 . S
C1704 C1702 1.415 . S
C1704 C1709 1.425 . S
C1704 C1711 1.409 . S
C1705 H1697 0.930 . S
C1705 C1703 1.419 . S
C1705 C1706 1.362 . S
C1706 H1698 0.930 . S
C1706 C1705 1.362 . S
C1706 C1709 1.409 . S
C1707 H1699 0.930 . S
C1707 C1708 1.355 . S
C1707 C1709 1.415 . S
C1708 C1707 1.355 . S
C1708 C1710 1.419 . S
C1709 C1704 1.425 . S
C1709 C1706 1.409 . S
C1709 C1707 1.415 . S
C1710 H1700 0.930 . S
C1710 C1708 1.419 . S
C1710 C1711 1.362 . S
C1711 H1701 0.930 . S
C1711 C1704 1.409 . S
C1711 C1710 1.362 . S
H1712 C1718 0.930 . S
H1713 C1721 0.930 . S
H1714 C1722 0.930 . S
H1715 C1723 0.930 . S
H1716 C1726 0.930 . S
H1717 C1727 0.930 . S
C1718 H1712 0.930 . S
C1718 C1719 1.355 . S
C1718 C1720 1.415 . S
C1719 C1718 1.355 . S
C1719 C1721 1.419 . S
C1720 C1718 1.415 . S
C1720 C1725 1.425 . S
C1720 C1727 1.409 . S
C1721 H1713 0.930 . S
C1721 C1719 1.419 . S
C1721 C1722 1.362 . S
C1722 H1714 0.930 . S
C1722 C1721 1.362 . S
C1722 C1725 1.409 . S
C1723 H1715 0.930 . S
C1723 C1724 1.355 . S
C1723 C1725 1.415 . S
C1724 C1723 1.355 . S
C1724 C1726 1.419 . S
C1725 C1720 1.425 . S
C1725 C1722 1.409 . S
C1725 C1723 1.415 . S
C1726 H1716 0.930 . S
C1726 C1724 1.419 . S
C1726 C1727 1.362 . S
C1727 H1717 0.930 . S
C1727 C1720 1.409 . S
C1727 C1726 1.362 . S
H1728 C1734 0.930 . S
H1729 C1737 0.930 . S
H1730 C1738 0.930 . S
H1731 C1739 0.930 . S
H1732 C1742 0.930 . S
H1733 C1743 0.930 . S
C1734 H1728 0.930 . S
C1734 C1735 1.355 . S
C1734 C1736 1.415 . S
C1735 C1734 1.355 . S
C1735 C1737 1.419 . S
C1736 C1734 1.415 . S
C1736 C1741 1.425 . S
C1736 C1743 1.409 . S
C1737 H1729 0.930 . S
C1737 C1735 1.419 . S
C1737 C1738 1.362 . S
C1738 H1730 0.930 . S
C1738 C1737 1.362 . S
C1738 C1741 1.409 . S
C1739 H1731 0.930 . S
C1739 C1740 1.355 . S
C1739 C1741 1.415 . S
C1740 C1739 1.355 . S
C1740 C1742 1.419 . S
C1741 C1736 1.425 . S
C1741 C1738 1.409 . S
C1741 C1739 1.415 . S
C1742 H1732 0.930 . S
C1742 C1740 1.419 . S
C1742 C1743 1.362 . S
C1743 H1733 0.930 . S
C1743 C1736 1.409 . S
C1743 C1742 1.362 . S
H1744 C1750 0.930 . S
H1745 C1753 0.930 . S
H1746 C1754 0.930 . S
H1747 C1755 0.930 . S
H1748 C1758 0.930 . S
H1749 C1759 0.930 . S
C1750 H1744 0.930 . S
C1750 C1751 1.355 . S
C1750 C1752 1.415 . S
C1751 C1750 1.355 . S
C1751 C1753 1.419 . S
C1752 C1750 1.415 . S
C1752 C1757 1.425 . S
C1752 C1759 1.409 . S
C1753 H1745 0.930 . S
C1753 C1751 1.419 . S
C1753 C1754 1.362 . S
C1754 H1746 0.930 . S
C1754 C1753 1.362 . S
C1754 C1757 1.409 . S
C1755 H1747 0.930 . S
C1755 C1756 1.355 . S
C1755 C1757 1.415 . S
C1756 C1755 1.355 . S
C1756 C1758 1.419 . S
C1757 C1752 1.425 . S
C1757 C1754 1.409 . S
C1757 C1755 1.415 . S
C1758 H1748 0.930 . S
C1758 C1756 1.419 . S
C1758 C1759 1.362 . S
C1759 H1749 0.930 . S
C1759 C1752 1.409 . S
C1759 C1758 1.362 . S
H1760 C1766 0.930 . S
H1761 C1769 0.930 . S
H1762 C1770 0.930 . S
H1763 C1771 0.930 . S
H1764 C1774 0.930 . S
H1765 C1775 0.930 . S
C1766 H1760 0.930 . S
C1766 C1767 1.355 . S
C1766 C1768 1.415 . S
C1767 C1766 1.355 . S
C1767 C1769 1.419 . S
C1768 C1766 1.415 . S
C1768 C1773 1.425 . S
C1768 C1775 1.409 . S
C1769 H1761 0.930 . S
C1769 C1767 1.419 . S
C1769 C1770 1.362 . S
C1770 H1762 0.930 . S
C1770 C1769 1.362 . S
C1770 C1773 1.409 . S
C1771 H1763 0.930 . S
C1771 C1772 1.355 . S
C1771 C1773 1.415 . S
C1772 C1771 1.355 . S
C1772 C1774 1.419 . S
C1773 C1768 1.425 . S
C1773 C1770 1.409 . S
C1773 C1771 1.415 . S
C1774 H1764 0.930 . S
C1774 C1772 1.419 . S
C1774 C1775 1.362 . S
C1775 H1765 0.930 . S
C1775 C1768 1.409 . S
C1775 C1774 1.362 . S
H1776 C1782 0.930 . S
H1777 C1785 0.930 . S
H1778 C1786 0.930 . S
H1779 C1787 0.930 . S
H1780 C1790 0.930 . S
H1781 C1791 0.930 . S
C1782 H1776 0.930 . S
C1782 C1783 1.355 . S
C1782 C1784 1.415 . S
C1783 C1782 1.355 . S
C1783 C1785 1.419 . S
C1784 C1782 1.415 . S
C1784 C1789 1.425 . S
C1784 C1791 1.409 . S
C1785 H1777 0.930 . S
C1785 C1783 1.419 . S
C1785 C1786 1.362 . S
C1786 H1778 0.930 . S
C1786 C1785 1.362 . S
C1786 C1789 1.409 . S
C1787 H1779 0.930 . S
C1787 C1788 1.355 . S
C1787 C1789 1.415 . S
C1788 C1787 1.355 . S
C1788 C1790 1.419 . S
C1789 C1784 1.425 . S
C1789 C1786 1.409 . S
C1789 C1787 1.415 . S
C1790 H1780 0.930 . S
C1790 C1788 1.419 . S
C1790 C1791 1.362 . S
C1791 H1781 0.930 . S
C1791 C1784 1.409 . S
C1791 C1790 1.362 . S
H1792 C1798 0.930 . S
H1793 C1801 0.930 . S
H1794 C1802 0.930 . S
H1795 C1803 0.930 . S
H1796 C1806 0.930 . S
H1797 C1807 0.930 . S
C1798 H1792 0.930 . S
C1798 C1799 1.355 . S
C1798 C1800 1.415 . S
C1799 C1798 1.355 . S
C1799 C1801 1.419 . S
C1800 C1798 1.415 . S
C1800 C1805 1.425 . S
C1800 C1807 1.409 . S
C1801 H1793 0.930 . S
C1801 C1799 1.419 . S
C1801 C1802 1.362 . S
C1802 H1794 0.930 . S
C1802 C1801 1.362 . S
C1802 C1805 1.409 . S
C1803 H1795 0.930 . S
C1803 C1804 1.355 . S
C1803 C1805 1.415 . S
C1804 C1803 1.355 . S
C1804 C1806 1.419 . S
C1805 C1800 1.425 . S
C1805 C1802 1.409 . S
C1805 C1803 1.415 . S
C1806 H1796 0.930 . S
C1806 C1804 1.419 . S
C1806 C1807 1.362 . S
C1807 H1797 0.930 . S
C1807 C1800 1.409 . S
C1807 C1806 1.362 . S
H1808 C1814 0.930 . S
H1809 C1817 0.930 . S
H1810 C1818 0.930 . S
H1811 C1819 0.930 . S
H1812 C1822 0.930 . S
H1813 C1823 0.930 . S
C1814 H1808 0.930 . S
C1814 C1815 1.355 . S
C1814 C1816 1.415 . S
C1815 C1814 1.355 . S
C1815 C1817 1.419 . S
C1816 C1814 1.415 . S
C1816 C1821 1.425 . S
C1816 C1823 1.409 . S
C1817 H1809 0.930 . S
C1817 C1815 1.419 . S
C1817 C1818 1.362 . S
C1818 H1810 0.930 . S
C1818 C1817 1.362 . S
C1818 C1821 1.409 . S
C1819 H1811 0.930 . S
C1819 C1820 1.355 . S
C1819 C1821 1.415 . S
C1820 C1819 1.355 . S
C1820 C1822 1.419 . S
C1821 C1816 1.425 . S
C1821 C1818 1.409 . S
C1821 C1819 1.415 . S
C1822 H1812 0.930 . S
C1822 C1820 1.419 . S
C1822 C1823 1.362 . S
C1823 H1813 0.930 . S
C1823 C1816 1.409 . S
C1823 C1822 1.362 . S
H1824 C1830 0.930 . S
H1825 C1833 0.930 . S
H1826 C1834 0.930 . S
H1827 C1835 0.930 . S
H1828 C1838 0.930 . S
H1829 C1839 0.930 . S
C1830 H1824 0.930 . S
C1830 C1831 1.355 . S
C1830 C1832 1.415 . S
C1831 C1830 1.355 . S
C1831 C1833 1.419 . S
C1832 C1830 1.415 . S
C1832 C1837 1.425 . S
C1832 C1839 1.409 . S
C1833 H1825 0.930 . S
C1833 C1831 1.419 . S
C1833 C1834 1.362 . S
C1834 H1826 0.930 . S
C1834 C1833 1.362 . S
C1834 C1837 1.409 . S
C1835 H1827 0.930 . S
C1835 C1836 1.355 . S
C1835 C1837 1.415 . S
C1836 C1835 1.355 . S
C1836 C1838 1.419 . S
C1837 C1832 1.425 . S
C1837 C1834 1.409 . S
C1837 C1835 1.415 . S
C1838 H1828 0.930 . S
C1838 C1836 1.419 . S
C1838 C1839 1.362 . S
C1839 H1829 0.930 . S
C1839 C1832 1.409 . S
C1839 C1838 1.362 . S
H1840 C1846 0.930 . S
H1841 C1849 0.930 . S
H1842 C1850 0.930 . S
H1843 C1851 0.930 . S
H1844 C1854 0.930 . S
H1845 C1855 0.930 . S
C1846 H1840 0.930 . S
C1846 C1847 1.355 . S
C1846 C1848 1.415 . S
C1847 C1846 1.355 . S
C1847 C1849 1.419 . S
C1848 C1846 1.415 . S
C1848 C1853 1.425 . S
C1848 C1855 1.409 . S
C1849 H1841 0.930 . S
C1849 C1847 1.419 . S
C1849 C1850 1.362 . S
C1850 H1842 0.930 . S
C1850 C1849 1.362 . S
C1850 C1853 1.409 . S
C1851 H1843 0.930 . S
C1851 C1852 1.355 . S
C1851 C1853 1.415 . S
C1852 C1851 1.355 . S
C1852 C1854 1.419 . S
C1853 C1848 1.425 . S
C1853 C1850 1.409 . S
C1853 C1851 1.415 . S
C1854 H1844 0.930 . S
C1854 C1852 1.419 . S
C1854 C1855 1.362 . S
C1855 H1845 0.930 . S
C1855 C1848 1.409 . S
C1855 C1854 1.362 . S
H1856 C1862 0.930 . S
H1857 C1865 0.930 . S
H1858 C1866 0.930 . S
H1859 C1867 0.930 . S
H1860 C1870 0.930 . S
H1861 C1871 0.930 . S
C1862 H1856 0.930 . S
C1862 C1863 1.355 . S
C1862 C1864 1.415 . S
C1863 C1862 1.355 . S
C1863 C1865 1.419 . S
C1864 C1862 1.415 . S
C1864 C1869 1.425 . S
C1864 C1871 1.409 . S
C1865 H1857 0.930 . S
C1865 C1863 1.419 . S
C1865 C1866 1.362 . S
C1866 H1858 0.930 . S
C1866 C1865 1.362 . S
C1866 C1869 1.409 . S
C1867 H1859 0.930 . S
C1867 C1868 1.355 . S
C1867 C1869 1.415 . S
C1868 C1867 1.355 . S
C1868 C1870 1.419 . S
C1869 C1864 1.425 . S
C1869 C1866 1.409 . S
C1869 C1867 1.415 . S
C1870 H1860 0.930 . S
C1870 C1868 1.419 . S
C1870 C1871 1.362 . S
C1871 H1861 0.930 . S
C1871 C1864 1.409 . S
C1871 C1870 1.362 . S
H1872 C1878 0.930 . S
H1873 C1881 0.930 . S
H1874 C1882 0.930 . S
H1875 C1883 0.930 . S
H1876 C1886 0.930 . S
H1877 C1887 0.930 . S
C1878 H1872 0.930 . S
C1878 C1879 1.355 . S
C1878 C1880 1.415 . S
C1879 C1878 1.355 . S
C1879 C1881 1.419 . S
C1880 C1878 1.415 . S
C1880 C1885 1.425 . S
C1880 C1887 1.409 . S
C1881 H1873 0.930 . S
C1881 C1879 1.419 . S
C1881 C1882 1.362 . S
C1882 H1874 0.930 . S
C1882 C1881 1.362 . S
C1882 C1885 1.409 . S
C1883 H1875 0.930 . S
C1883 C1884 1.355 . S
C1883 C1885 1.415 . S
C1884 C1883 1.355 . S
C1884 C1886 1.419 . S
C1885 C1880 1.425 . S
C1885 C1882 1.409 . S
C1885 C1883 1.415 . S
C1886 H1876 0.930 . S
C1886 C1884 1.419 . S
C1886 C1887 1.362 . S
C1887 H1877 0.930 . S
C1887 C1880 1.409 . S
C1887 C1886 1.362 . S
H1888 C1894 0.930 . S
H1889 C1897 0.930 . S
H1890 C1898 0.930 . S
H1891 C1899 0.930 . S
H1892 C1902 0.930 . S
H1893 C1903 0.930 . S
C1894 H1888 0.930 . S
C1894 C1895 1.355 . S
C1894 C1896 1.415 . S
C1895 C1894 1.355 . S
C1895 C1897 1.419 . S
C1896 C1894 1.415 . S
C1896 C1901 1.425 . S
C1896 C1903 1.409 . S
C1897 H1889 0.930 . S
C1897 C1895 1.419 . S
C1897 C1898 1.362 . S
C1898 H1890 0.930 . S
C1898 C1897 1.362 . S
C1898 C1901 1.409 . S
C1899 H1891 0.930 . S
C1899 C1900 1.355 . S
C1899 C1901 1.415 . S
C1900 C1899 1.355 . S
C1900 C1902 1.419 . S
C1901 C1896 1.425 . S
C1901 C1898 1.409 . S
C1901 C1899 1.415 . S
C1902 H1892 0.930 . S
C1902 C1900 1.419 . S
C1902 C1903 1.362 . S
C1903 H1893 0.930 . S
C1903 C1896 1.409 . S
C1903 C1902 1.362 . S
H1904 C1910 0.930 . S
H1905 C1913 0.930 . S
H1906 C1914 0.930 . S
H1907 C1915 0.930 . S
H1908 C1918 0.930 . S
H1909 C1919 0.930 . S
C1910 H1904 0.930 . S
C1910 C1911 1.355 . S
C1910 C1912 1.415 . S
C1911 C1910 1.355 . S
C1911 C1913 1.419 . S
C1912 C1910 1.415 . S
C1912 C1917 1.425 . S
C1912 C1919 1.409 . S
C1913 H1905 0.930 . S
C1913 C1911 1.419 . S
C1913 C1914 1.362 . S
C1914 H1906 0.930 . S
C1914 C1913 1.362 . S
C1914 C1917 1.409 . S
C1915 H1907 0.930 . S
C1915 C1916 1.355 . S
C1915 C1917 1.415 . S
C1916 C1915 1.355 . S
C1916 C1918 1.419 . S
C1917 C1912 1.425 . S
C1917 C1914 1.409 . S
C1917 C1915 1.415 . S
C1918 H1908 0.930 . S
C1918 C1916 1.419 . S
C1918 C1919 1.362 . S
C1919 H1909 0.930 . S
C1919 C1912 1.409 . S
C1919 C1918 1.362 . S
H1920 C1926 0.930 . S
H1921 C1929 0.930 . S
H1922 C1930 0.930 . S
H1923 C1931 0.930 . S
H1924 C1934 0.930 . S
H1925 C1935 0.930 . S
C1926 H1920 0.930 . S
C1926 C1927 1.355 . S
C1926 C1928 1.415 . S
C1927 C1926 1.355 . S
C1927 C1929 1.419 . S
C1928 C1926 1.415 . S
C1928 C1933 1.425 . S
C1928 C1935 1.409 . S
C1929 H1921 0.930 . S
C1929 C1927 1.419 . S
C1929 C1930 1.362 . S
C1930 H1922 0.930 . S
C1930 C1929 1.362 . S
C1930 C1933 1.409 . S
C1931 H1923 0.930 . S
C1931 C1932 1.355 . S
C1931 C1933 1.415 . S
C1932 C1931 1.355 . S
C1932 C1934 1.419 . S
C1933 C1928 1.425 . S
C1933 C1930 1.409 . S
C1933 C1931 1.415 . S
C1934 H1924 0.930 . S
C1934 C1932 1.419 . S
C1934 C1935 1.362 . S
C1935 H1925 0.930 . S
C1935 C1928 1.409 . S
C1935 C1934 1.362 . S
H1936 C1942 0.930 . S
H1937 C1945 0.930 . S
H1938 C1946 0.930 . S
H1939 C1947 0.930 . S
H1940 C1950 0.930 . S
H1941 C1951 0.930 . S
C1942 H1936 0.930 . S
C1942 C1943 1.355 . S
C1942 C1944 1.415 . S
C1943 C1942 1.355 . S
C1943 C1945 1.419 . S
C1944 C1942 1.415 . S
C1944 C1949 1.425 . S
C1944 C1951 1.409 . S
C1945 H1937 0.930 . S
C1945 C1943 1.419 . S
C1945 C1946 1.362 . S
C1946 H1938 0.930 . S
C1946 C1945 1.362 . S
C1946 C1949 1.409 . S
C1947 H1939 0.930 . S
C1947 C1948 1.355 . S
C1947 C1949 1.415 . S
C1948 C1947 1.355 . S
C1948 C1950 1.419 . S
C1949 C1944 1.425 . S
C1949 C1946 1.409 . S
C1949 C1947 1.415 . S
C1950 H1940 0.930 . S
C1950 C1948 1.419 . S
C1950 C1951 1.362 . S
C1951 H1941 0.930 . S
C1951 C1944 1.409 . S
C1951 C1950 1.362 . S
H1952 C1958 0.930 . S
H1953 C1961 0.930 . S
H1954 C1962 0.930 . S
H1955 C1963 0.930 . S
H1956 C1966 0.930 . S
H1957 C1967 0.930 . S
C1958 H1952 0.930 . S
C1958 C1959 1.355 . S
C1958 C1960 1.415 . S
C1959 C1958 1.355 . S
C1959 C1961 1.419 . S
C1960 C1958 1.415 . S
C1960 C1965 1.425 . S
C1960 C1967 1.409 . S
C1961 H1953 0.930 . S
C1961 C1959 1.419 . S
C1961 C1962 1.362 . S
C1962 H1954 0.930 . S
C1962 C1961 1.362 . S
C1962 C1965 1.409 . S
C1963 H1955 0.930 . S
C1963 C1964 1.355 . S
C1963 C1965 1.415 . S
C1964 C1963 1.355 . S
C1964 C1966 1.419 . S
C1965 C1960 1.425 . S
C1965 C1962 1.409 . S
C1965 C1963 1.415 . S
C1966 H1956 0.930 . S
C1966 C1964 1.419 . S
C1966 C1967 1.362 . S
C1967 H1957 0.930 . S
C1967 C1960 1.409 . S
C1967 C1966 1.362 . S
H1968 C1974 0.930 . S
H1969 C1977 0.930 . S
H1970 C1978 0.930 . S
H1971 C1979 0.930 . S
H1972 C1982 0.930 . S
H1973 C1983 0.930 . S
C1974 H1968 0.930 . S
C1974 C1975 1.355 . S
C1974 C1976 1.415 . S
C1975 C1974 1.355 . S
C1975 C1977 1.419 . S
C1976 C1974 1.415 . S
C1976 C1981 1.425 . S
C1976 C1983 1.409 . S
C1977 H1969 0.930 . S
C1977 C1975 1.419 . S
C1977 C1978 1.362 . S
C1978 H1970 0.930 . S
C1978 C1977 1.362 . S
C1978 C1981 1.409 . S
C1979 H1971 0.930 . S
C1979 C1980 1.355 . S
C1979 C1981 1.415 . S
C1980 C1979 1.355 . S
C1980 C1982 1.419 . S
C1981 C1976 1.425 . S
C1981 C1978 1.409 . S
C1981 C1979 1.415 . S
C1982 H1972 0.930 . S
C1982 C1980 1.419 . S
C1982 C1983 1.362 . S
C1983 H1973 0.930 . S
C1983 C1976 1.409 . S
C1983 C1982 1.362 . S
H1984 C1990 0.930 . S
H1985 C1993 0.930 . S
H1986 C1994 0.930 . S
H1987 C1995 0.930 . S
H1988 C1998 0.930 . S
H1989 C1999 0.930 . S
C1990 H1984 0.930 . S
C1990 C1991 1.355 . S
C1990 C1992 1.415 . S
C1991 C1990 1.355 . S
C1991 C1993 1.419 . S
C1992 C1990 1.415 . S
C1992 C1997 1.425 . S
C1992 C1999 1.409 . S
C1993 H1985 0.930 . S
C1993 C1991 1.419 . S
C1993 C1994 1.362 . S
C1994 H1986 0.930 . S
C1994 C1993 1.362 . S
C1994 C1997 1.409 . S
C1995 H1987 0.930 . S
C1995 C1996 1.355 . S
C1995 C1997 1.415 . S
C1996 C1995 1.355 . S
C1996 C1998 1.419 . S
C1997 C1992 1.425 . S
C1997 C1994 1.409 . S
C1997 C1995 1.415 . S
C1998 H1988 0.930 . S
C1998 C1996 1.419 . S
C1998 C1999 1.362 . S
C1999 H1989 0.930 . S
C1999 C1992 1.409 . S
C1999 C1998 1.362 . S
H2000 C2006 0.930 . S
H2001 C2009 0.930 . S
H2002 C2010 0.930 . S
H2003 C2011 0.930 . S
H2004 C2014 0.930 . S
H2005 C2015 0.930 . S
C2006 H2000 0.930 . S
C2006 C2007 1.355 . S
C2006 C2008 1.415 . S
C2007 C2006 1.355 . S
C2007 C2009 1.419 . S
C2008 C2006 1.415 . S
C2008 C2013 1.425 . S
C2008 C2015 1.409 . S
C2009 H2001 0.930 . S
C2009 C2007 1.419 . S
C2009 C2010 1.362 . S
C2010 H2002 0.930 . S
C2010 C2009 1.362 . S
C2010 C2013 1.409 . S
C2011 H2003 0.930 . S
C2011 C2012 1.355 . S
C2011 C2013 1.415 . S
C2012 C2011 1.355 . S
C2012 C2014 1.419 . S
C2013 C2008 1.425 . S
C2013 C2010 1.409 . S
C2013 C2011 1.415 . S
C2014 H2004 0.930 . S
C2014 C2012 1.419 . S
C2014 C2015 1.362 . S
C2015 H2005 0.930 . S
C2015 C2008 1.409 . S
C2015 C2014 1.362 . S
H2016 C2022 0.930 . S
H2017 C2025 0.930 . S
H2018 C2026 0.930 . S
H2019 C2027 0.930 . S
H2020 C2030 0.930 . S
H2021 C2031 0.930 . S
C2022 H2016 0.930 . S
C2022 C2023 1.355 . S
C2022 C2024 1.415 . S
C2023 C2022 1.355 . S
C2023 C2025 1.419 . S
C2024 C2022 1.415 . S
C2024 C2029 1.425 . S
C2024 C2031 1.409 . S
C2025 H2017 0.930 . S
C2025 C2023 1.419 . S
C2025 C2026 1.362 . S
C2026 H2018 0.930 . S
C2026 C2025 1.362 . S
C2026 C2029 1.409 . S
C2027 H2019 0.930 . S
C2027 C2028 1.355 . S
C2027 C2029 1.415 . S
C2028 C2027 1.355 . S
C2028 C2030 1.419 . S
C2029 C2024 1.425 . S
C2029 C2026 1.409 . S
C2029 C2027 1.415 . S
C2030 H2020 0.930 . S
C2030 C2028 1.419 . S
C2030 C2031 1.362 . S
C2031 H2021 0.930 . S
C2031 C2024 1.409 . S
C2031 C2030 1.362 . S
H2032 C2038 0.930 . S
H2033 C2041 0.930 . S
H2034 C2042 0.930 . S
H2035 C2043 0.930 . S
H2036 C2046 0.930 . S
H2037 C2047 0.930 . S
C2038 H2032 0.930 . S
C2038 C2039 1.355 . S
C2038 C2040 1.415 . S
C2039 C2038 1.355 . S
C2039 C2041 1.419 . S
C2040 C2038 1.415 . S
C2040 C2045 1.425 . S
C2040 C2047 1.409 . S
C2041 H2033 0.930 . S
C2041 C2039 1.419 . S
C2041 C2042 1.362 . S
C2042 H2034 0.930 . S
C2042 C2041 1.362 . S
C2042 C2045 1.409 . S
C2043 H2035 0.930 . S
C2043 C2044 1.355 . S
C2043 C2045 1.415 . S
C2044 C2043 1.355 . S
C2044 C2046 1.419 . S
C2045 C2040 1.425 . S
C2045 C2042 1.409 . S
C2045 C2043 1.415 . S
C2046 H2036 0.930 . S
C2046 C2044 1.419 . S
C2046 C2047 1.362 . S
C2047 H2037 0.930 . S
C2047 C2040 1.409 . S
C2047 C2046 1.362 . S
H2048 C2054 0.930 . S
H2049 C2057 0.930 . S
H2050 C2058 0.930 . S
H2051 C2059 0.930 . S
H2052 C2062 0.930 . S
H2053 C2063 0.930 . S
C2054 H2048 0.930 . S
C2054 C2055 1.355 . S
C2054 C2056 1.415 . S
C2055 C2054 1.355 . S
C2055 C2057 1.419 . S
C2056 C2054 1.415 . S
C2056 C2061 1.425 . S
C2056 C2063 1.409 . S
C2057 H2049 0.930 . S
C2057 C2055 1.419 . S
C2057 C2058 1.362 . S
C2058 H2050 0.930 . S
C2058 C2057 1.362 . S
C2058 C2061 1.409 . S
C2059 H2051 0.930 . S
C2059 C2060 1.355 . S
C2059 C2061 1.415 . S
C2060 C2059 1.355 . S
C2060 C2062 1.419 . S
C2061 C2056 1.425 . S
C2061 C2058 1.409 . S
C2061 C2059 1.415 . S
C2062 H2052 0.930 . S
C2062 C2060 1.419 . S
C2062 C2063 1.362 . S
C2063 H2053 0.930 . S
C2063 C2056 1.409 . S
C2063 C2062 1.362 . S
H2064 C2070 0.930 . S
H2065 C2073 0.930 . S
H2066 C2074 0.930 . S
H2067 C2075 0.930 . S
H2068 C2078 0.930 . S
H2069 C2079 0.930 . S
C2070 H2064 0.930 . S
C2070 C2071 1.355 . S
C2070 C2072 1.415 . S
C2071 C2070 1.355 . S
C2071 C2073 1.419 . S
C2072 C2070 1.415 . S
C2072 C2077 1.425 . S
C2072 C2079 1.409 . S
C2073 H2065 0.930 . S
C2073 C2071 1.419 . S
C2073 C2074 1.362 . S
C2074 H2066 0.930 . S
C2074 C2073 1.362 . S
C2074 C2077 1.409 . S
C2075 H2067 0.930 . S
C2075 C2076 1.355 . S
C2075 C2077 1.415 . S
C2076 C2075 1.355 . S
C2076 C2078 1.419 . S
C2077 C2072 1.425 . S
C2077 C2074 1.409 . S
C2077 C2075 1.415 . S
C2078 H2068 0.930 . S
C2078 C2076 1.419 . S
C2078 C2079 1.362 . S
C2079 H2069 0.930 . S
C2079 C2072 1.409 . S
C2079 C2078 1.362 . S
H2080 C2086 0.930 . S
H2081 C2089 0.930 . S
H2082 C2090 0.930 . S
H2083 C2091 0.930 . S
H2084 C2094 0.930 . S
H2085 C2095 0.930 . S
C2086 H2080 0.930 . S
C2086 C2087 1.355 . S
C2086 C2088 1.415 . S
C2087 C2086 1.355 . S
C2087 C2089 1.419 . S
C2088 C2086 1.415 . S
C2088 C2093 1.425 . S
C2088 C2095 1.409 . S
C2089 H2081 0.930 . S
C2089 C2087 1.419 . S
C2089 C2090 1.362 . S
C2090 H2082 0.930 . S
C2090 C2089 1.362 . S
C2090 C2093 1.409 . S
C2091 H2083 0.930 . S
C2091 C2092 1.355 . S
C2091 C2093 1.415 . S
C2092 C2091 1.355 . S
C2092 C2094 1.419 . S
C2093 C2088 1.425 . S
C2093 C2090 1.409 . S
C2093 C2091 1.415 . S
C2094 H2084 0.930 . S
C2094 C2092 1.419 . S
C2094 C2095 1.362 . S
C2095 H2085 0.930 . S
C2095 C2088 1.409 . S
C2095 C2094 1.362 . S
H2096 C2102 0.930 . S
H2097 C2105 0.930 . S
H2098 C2106 0.930 . S
H2099 C2107 0.930 . S
H2100 C2110 0.930 . S
H2101 C2111 0.930 . S
C2102 H2096 0.930 . S
C2102 C2103 1.355 . S
C2102 C2104 1.415 . S
C2103 C2102 1.355 . S
C2103 C2105 1.419 . S
C2104 C2102 1.415 . S
C2104 C2109 1.425 . S
C2104 C2111 1.409 . S
C2105 H2097 0.930 . S
C2105 C2103 1.419 . S
C2105 C2106 1.362 . S
C2106 H2098 0.930 . S
C2106 C2105 1.362 . S
C2106 C2109 1.409 . S
C2107 H2099 0.930 . S
C2107 C2108 1.355 . S
C2107 C2109 1.415 . S
C2108 C2107 1.355 . S
C2108 C2110 1.419 . S
C2109 C2104 1.425 . S
C2109 C2106 1.409 . S
C2109 C2107 1.415 . S
C2110 H2100 0.930 . S
C2110 C2108 1.419 . S
C2110 C2111 1.362 . S
C2111 H2101 0.930 . S
C2111 C2104 1.409 . S
C2111 C2110 1.362 . S
H2112 C2118 0.930 . S
H2113 C2121 0.930 . S
H2114 C2122 0.930 . S
H2115 C2123 0.930 . S
H2116 C2126 0.930 . S
H2117 C2127 0.930 . S
C2118 H2112 0.930 . S
C2118 C2119 1.355 . S
C2118 C2120 1.415 . S
C2119 C2118 1.355 . S
C2119 C2121 1.419 . S
C2120 C2118 1.415 . S
C2120 C2125 1.425 . S
C2120 C2127 1.409 . S
C2121 H2113 0.930 . S
C2121 C2119 1.419 . S
C2121 C2122 1.362 . S
C2122 H2114 0.930 . S
C2122 C2121 1.362 . S
C2122 C2125 1.409 . S
C2123 H2115 0.930 . S
C2123 C2124 1.355 . S
C2123 C2125 1.415 . S
C2124 C2123 1.355 . S
C2124 C2126 1.419 . S
C2125 C2120 1.425 . S
C2125 C2122 1.409 . S
C2125 C2123 1.415 . S
C2126 H2116 0.930 . S
C2126 C2124 1.419 . S
C2126 C2127 1.362 . S
C2127 H2117 0.930 . S
C2127 C2120 1.409 . S
C2127 C2126 1.362 . S
H2128 C2134 0.930 . S
H2129 C2137 0.930 . S
H2130 C2138 0.930 . S
H2131 C2139 0.930 . S
H2132 C2142 0.930 . S
H2133 C2143 0.930 . S
C2134 H2128 0.930 . S
C2134 C2135 1.355 . S
C2134 C2136 1.415 . S
C2135 C2134 1.355 . S
C2135 C2137 1.419 . S
C2136 C2134 1.415 . S
C2136 C2141 1.425 . S
C2136 C2143 1.409 . S
C2137 H2129 0.930 . S
C2137 C2135 1.419 . S
C2137 C2138 1.362 . S
C2138 H2130 0.930 . S
C2138 C2137 1.362 . S
C2138 C2141 1.409 . S
C2139 H2131 0.930 . S
C2139 C2140 1.355 . S
C2139 C2141 1.415 . S
C2140 C2139 1.355 . S
C2140 C2142 1.419 . S
C2141 C2136 1.425 . S
C2141 C2138 1.409 . S
C2141 C2139 1.415 . S
C2142 H2132 0.930 . S
C2142 C2140 1.419 . S
C2142 C2143 1.362 . S
C2143 H2133 0.930 . S
C2143 C2136 1.409 . S
C2143 C2142 1.362 . S
H2144 C2150 0.930 . S
H2145 C2153 0.930 . S
H2146 C2154 0.930 . S
H2147 C2155 0.930 . S
H2148 C2158 0.930 . S
H2149 C2159 0.930 . S
C2150 H2144 0.930 . S
C2150 C2151 1.355 . S
C2150 C2152 1.415 . S
C2151 C2150 1.355 . S
C2151 C2153 1.419 . S
C2152 C2150 1.415 . S
C2152 C2157 1.425 . S
C2152 C2159 1.409 . S
C2153 H2145 0.930 . S
C2153 C2151 1.419 . S
C2153 C2154 1.362 . S
C2154 H2146 0.930 . S
C2154 C2153 1.362 . S
C2154 C2157 1.409 . S
C2155 H2147 0.930 . S
C2155 C2156 1.355 . S
C2155 C2157 1.415 . S
C2156 C2155 1.355 . S
C2156 C2158 1.419 . S
C2157 C2152 1.425 . S
C2157 C2154 1.409 . S
C2157 C2155 1.415 . S
C2158 H2148 0.930 . S
C2158 C2156 1.419 . S
C2158 C2159 1.362 . S
C2159 H2149 0.930 . S
C2159 C2152 1.409 . S
C2159 C2158 1.362 . S
H2160 C2166 0.930 . S
H2161 C2169 0.930 . S
H2162 C2170 0.930 . S
H2163 C2171 0.930 . S
H2164 C2174 0.930 . S
H2165 C2175 0.930 . S
C2166 H2160 0.930 . S
C2166 C2167 1.355 . S
C2166 C2168 1.415 . S
C2167 C2166 1.355 . S
C2167 C2169 1.419 . S
C2168 C2166 1.415 . S
C2168 C2173 1.425 . S
C2168 C2175 1.409 . S
C2169 H2161 0.930 . S
C2169 C2167 1.419 . S
C2169 C2170 1.362 . S
C2170 H2162 0.930 . S
C2170 C2169 1.362 . S
C2170 C2173 1.409 . S
C2171 H2163 0.930 . S
C2171 C2172 1.355 . S
C2171 C2173 1.415 . S
C2172 C2171 1.355 . S
C2172 C2174 1.419 . S
C2173 C2168 1.425 . S
C2173 C2170 1.409 . S
C2173 C2171 1.415 . S
C2174 H2164 0.930 . S
C2174 C2172 1.419 . S
C2174 C2175 1.362 . S
C2175 H2165 0.930 . S
C2175 C2168 1.409 . S
C2175 C2174 1.362 . S
H2176 C2182 0.930 . S
H2177 C2185 0.930 . S
H2178 C2186 0.930 . S
H2179 C2187 0.930 . S
H2180 C2190 0.930 . S
H2181 C2191 0.930 . S
C2182 H2176 0.930 . S
C2182 C2183 1.355 . S
C2182 C2184 1.415 . S
C2183 C2182 1.355 . S
C2183 C2185 1.419 . S
C2184 C2182 1.415 . S
C2184 C2189 1.425 . S
C2184 C2191 1.409 . S
C2185 H2177 0.930 . S
C2185 C2183 1.419 . S
C2185 C2186 1.362 . S
C2186 H2178 0.930 . S
C2186 C2185 1.362 . S
C2186 C2189 1.409 . S
C2187 H2179 0.930 . S
C2187 C2188 1.355 . S
C2187 C2189 1.415 . S
C2188 C2187 1.355 . S
C2188 C2190 1.419 . S
C2189 C2184 1.425 . S
C2189 C2186 1.409 . S
C2189 C2187 1.415 . S
C2190 H2180 0.930 . S
C2190 C2188 1.419 . S
C2190 C2191 1.362 . S
C2191 H2181 0.930 . S
C2191 C2184 1.409 . S
C2191 C2190 1.362 . S
H2192 C2198 0.930 . S
H2193 C2201 0.930 . S
H2194 C2202 0.930 . S
H2195 C2203 0.930 . S
H2196 C2206 0.930 . S
H2197 C2207 0.930 . S
C2198 H2192 0.930 . S
C2198 C2199 1.355 . S
C2198 C2200 1.415 . S
C2199 C2198 1.355 . S
C2199 C2201 1.419 . S
C2200 C2198 1.415 . S
C2200 C2205 1.425 . S
C2200 C2207 1.409 . S
C2201 H2193 0.930 . S
C2201 C2199 1.419 . S
C2201 C2202 1.362 . S
C2202 H2194 0.930 . S
C2202 C2201 1.362 . S
C2202 C2205 1.409 . S
C2203 H2195 0.930 . S
C2203 C2204 1.355 . S
C2203 C2205 1.415 . S
C2204 C2203 1.355 . S
C2204 C2206 1.419 . S
C2205 C2200 1.425 . S
C2205 C2202 1.409 . S
C2205 C2203 1.415 . S
C2206 H2196 0.930 . S
C2206 C2204 1.419 . S
C2206 C2207 1.362 . S
C2207 H2197 0.930 . S
C2207 C2200 1.409 . S
C2207 C2206 1.362 . S
H2208 C2214 0.930 . S
H2209 C2217 0.930 . S
H2210 C2218 0.930 . S
H2211 C2219 0.930 . S
H2212 C2222 0.930 . S
H2213 C2223 0.930 . S
C2214 H2208 0.930 . S
C2214 C2215 1.355 . S
C2214 C2216 1.415 . S
C2215 C2214 1.355 . S
C2215 C2217 1.419 . S
C2216 C2214 1.415 . S
C2216 C2221 1.425 1_655 S
C2216 C2223 1.409 1_655 S
C2217 H2209 0.930 . S
C2217 C2215 1.419 . S
C2217 C2218 1.362 . S
C2218 H2210 0.930 . S
C2218 C2217 1.362 . S
C2218 C2221 1.409 1_655 S
C2219 H2211 0.930 . S
C2219 C2220 1.355 . S
C2219 C2221 1.415 . S
C2220 C2219 1.355 . S
C2220 C2222 1.419 . S
C2221 C2216 1.425 1_455 S
C2221 C2218 1.409 1_455 S
C2221 C2219 1.415 . S
C2222 H2212 0.930 . S
C2222 C2220 1.419 . S
C2222 C2223 1.362 . S
C2223 H2213 0.930 . S
C2223 C2216 1.409 1_455 S
C2223 C2222 1.362 . S
H2224 C2230 0.930 . S
H2225 C2233 0.930 . S
H2226 C2234 0.930 . S
H2227 C2235 0.930 . S
H2228 C2238 0.930 . S
H2229 C2239 0.930 . S
C2230 H2224 0.930 . S
C2230 C2231 1.355 . S
C2230 C2232 1.415 . S
C2231 C2230 1.355 . S
C2231 C2233 1.419 . S
C2232 C2230 1.415 . S
C2232 C2237 1.425 . S
C2232 C2239 1.409 . S
C2233 H2225 0.930 . S
C2233 C2231 1.419 . S
C2233 C2234 1.362 . S
C2234 H2226 0.930 . S
C2234 C2233 1.362 . S
C2234 C2237 1.409 . S
C2235 H2227 0.930 . S
C2235 C2236 1.355 . S
C2235 C2237 1.415 . S
C2236 C2235 1.355 . S
C2236 C2238 1.419 . S
C2237 C2232 1.425 . S
C2237 C2234 1.409 . S
C2237 C2235 1.415 . S
C2238 H2228 0.930 . S
C2238 C2236 1.419 . S
C2238 C2239 1.362 . S
C2239 H2229 0.930 . S
C2239 C2232 1.409 . S
C2239 C2238 1.362 . S
H2240 C2246 0.930 . S
H2241 C2249 0.930 . S
H2242 C2250 0.930 . S
H2243 C2251 0.930 . S
H2244 C2254 0.930 . S
H2245 C2255 0.930 . S
C2246 H2240 0.930 . S
C2246 C2247 1.355 . S
C2246 C2248 1.415 . S
C2247 C2246 1.355 . S
C2247 C2249 1.419 . S
C2248 C2246 1.415 . S
C2248 C2253 1.425 1_545 S
C2248 C2255 1.409 . S
C2249 H2241 0.930 . S
C2249 C2247 1.419 . S
C2249 C2250 1.362 1_545 S
C2250 H2242 0.930 . S
C2250 C2249 1.362 1_565 S
C2250 C2253 1.409 . S
C2251 H2243 0.930 . S
C2251 C2252 1.355 . S
C2251 C2253 1.415 . S
C2252 C2251 1.355 . S
C2252 C2254 1.419 . S
C2253 C2248 1.425 1_565 S
C2253 C2250 1.409 . S
C2253 C2251 1.415 . S
C2254 H2244 0.930 . S
C2254 C2252 1.419 . S
C2254 C2255 1.362 1_565 S
C2255 H2245 0.930 . S
C2255 C2248 1.409 . S
C2255 C2254 1.362 1_545 S
H2256 C2262 0.930 . S
H2257 C2265 0.930 . S
H2258 C2266 0.930 . S
H2259 C2267 0.930 . S
H2260 C2270 0.930 . S
H2261 C2271 0.930 . S
C2262 H2256 0.930 . S
C2262 C2263 1.355 . S
C2262 C2264 1.416 . S
C2263 C2262 1.355 . S
C2263 C2265 1.419 . S
C2264 C2262 1.416 . S
C2264 C2269 1.425 1_564 S
C2264 C2271 1.408 1_554 S
C2265 H2257 0.930 . S
C2265 C2263 1.419 . S
C2265 C2266 1.362 1_565 S
C2266 H2258 0.930 . S
C2266 C2265 1.362 1_545 S
C2266 C2269 1.408 1_554 S
C2267 H2259 0.930 . S
C2267 C2268 1.355 . S
C2267 C2269 1.416 . S
C2268 C2267 1.355 . S
C2268 C2270 1.419 . S
C2269 C2264 1.425 1_546 S
C2269 C2266 1.408 1_556 S
C2269 C2267 1.416 . S
C2270 H2260 0.930 . S
C2270 C2268 1.419 . S
C2270 C2271 1.362 1_545 S
C2271 H2261 0.930 . S
C2271 C2264 1.408 1_556 S
C2271 C2270 1.362 1_565 S
H2272 C2278 0.930 . S
H2273 C2281 0.930 . S
H2274 C2282 0.930 . S
H2275 C2283 0.930 . S
H2276 C2286 0.930 . S
H2277 C2287 0.930 . S
C2278 H2272 0.930 . S
C2278 C2279 1.355 . S
C2278 C2280 1.438 . S
C2279 C2278 1.355 . S
C2279 C2281 1.419 1_556 S
C2280 C2278 1.438 . S
C2280 C2285 1.431 1_656 S
C2280 C2287 1.386 1_655 S
C2281 H2273 0.930 . S
C2281 C2279 1.419 1_554 S
C2281 C2282 1.362 . S
C2282 H2274 0.930 . S
C2282 C2281 1.362 . S
C2282 C2285 1.386 1_655 S
C2283 H2275 0.930 . S
C2283 C2284 1.355 . S
C2283 C2285 1.438 . S
C2284 C2283 1.355 . S
C2284 C2286 1.419 1_554 S
C2285 C2280 1.431 1_454 S
C2285 C2282 1.386 1_455 S
C2285 C2283 1.438 . S
C2286 H2276 0.930 . S
C2286 C2284 1.419 1_556 S
C2286 C2287 1.362 . S
C2287 H2277 0.930 . S
C2287 C2280 1.386 1_455 S
C2287 C2286 1.362 . S
H2288 C2294 0.930 . S
H2289 C2297 0.930 . S
H2290 C2298 0.930 . S
H2291 C2299 0.930 . S
H2292 C2302 0.930 . S
H2293 C2303 0.930 . S
C2294 H2288 0.930 . S
C2294 C2295 1.355 . S
C2294 C2296 1.415 . S
C2295 C2294 1.355 . S
C2295 C2297 1.419 . S
C2296 C2294 1.415 . S
C2296 C2301 1.425 1_554 S
C2296 C2303 1.409 . S
C2297 H2289 0.930 . S
C2297 C2295 1.419 . S
C2297 C2298 1.362 1_554 S
C2298 H2290 0.930 . S
C2298 C2297 1.362 1_556 S
C2298 C2301 1.409 . S
C2299 H2291 0.930 . S
C2299 C2300 1.355 . S
C2299 C2301 1.415 . S
C2300 C2299 1.355 . S
C2300 C2302 1.419 . S
C2301 C2296 1.425 1_556 S
C2301 C2298 1.409 . S
C2301 C2299 1.415 . S
C2302 H2292 0.930 . S
C2302 C2300 1.419 . S
C2302 C2303 1.362 1_556 S
C2303 H2293 0.930 . S
C2303 C2296 1.409 . S
C2303 C2302 1.362 1_554 S
H2304 C2310 0.930 . S
H2305 C2313 0.930 . S
H2306 C2314 0.930 . S
H2307 C2315 0.930 . S
H2308 C2318 0.930 . S
H2309 C2319 0.930 . S
C2310 H2304 0.930 . S
C2310 C2311 1.355 . S
C2310 C2312 1.415 . S
C2311 C2310 1.355 . S
C2311 C2313 1.419 . S
C2312 C2310 1.415 . S
C2312 C2317 1.425 . S
C2312 C2319 1.409 . S
C2313 H2305 0.930 . S
C2313 C2311 1.419 . S
C2313 C2314 1.362 . S
C2314 H2306 0.930 . S
C2314 C2313 1.362 . S
C2314 C2317 1.409 . S
C2315 H2307 0.930 . S
C2315 C2316 1.355 . S
C2315 C2317 1.415 . S
C2316 C2315 1.355 . S
C2316 C2318 1.419 . S
C2317 C2312 1.425 . S
C2317 C2314 1.409 . S
C2317 C2315 1.415 . S
C2318 H2308 0.930 . S
C2318 C2316 1.419 . S
C2318 C2319 1.362 . S
C2319 H2309 0.930 . S
C2319 C2312 1.409 . S
C2319 C2318 1.362 . S
H2320 C2326 0.930 . S
H2321 C2329 0.930 . S
H2322 C2330 0.930 . S
H2323 C2331 0.930 . S
H2324 C2334 0.930 . S
H2325 C2335 0.930 . S
C2326 H2320 0.930 . S
C2326 C2327 1.355 . S
C2326 C2328 1.415 . S
C2327 C2326 1.355 . S
C2327 C2329 1.419 . S
C2328 C2326 1.415 . S
C2328 C2333 1.425 . S
C2328 C2335 1.409 . S
C2329 H2321 0.930 . S
C2329 C2327 1.419 . S
C2329 C2330 1.362 . S
C2330 H2322 0.930 . S
C2330 C2329 1.362 . S
C2330 C2333 1.409 . S
C2331 H2323 0.930 . S
C2331 C2332 1.355 . S
C2331 C2333 1.415 . S
C2332 C2331 1.355 . S
C2332 C2334 1.419 . S
C2333 C2328 1.425 . S
C2333 C2330 1.409 . S
C2333 C2331 1.415 . S
C2334 H2324 0.930 . S
C2334 C2332 1.419 . S
C2334 C2335 1.362 . S
C2335 H2325 0.930 . S
C2335 C2328 1.409 . S
C2335 C2334 1.362 . S
H2336 C2342 0.930 . S
H2337 C2345 0.930 . S
H2338 C2346 0.930 . S
H2339 C2347 0.930 . S
H2340 C2350 0.930 . S
H2341 C2351 0.930 . S
C2342 H2336 0.930 . S
C2342 C2343 1.355 . S
C2342 C2344 1.415 . S
C2343 C2342 1.355 . S
C2343 C2345 1.419 . S
C2344 C2342 1.415 . S
C2344 C2349 1.425 . S
C2344 C2351 1.409 . S
C2345 H2337 0.930 . S
C2345 C2343 1.419 . S
C2345 C2346 1.362 . S
C2346 H2338 0.930 . S
C2346 C2345 1.362 . S
C2346 C2349 1.409 . S
C2347 H2339 0.930 . S
C2347 C2348 1.355 . S
C2347 C2349 1.415 . S
C2348 C2347 1.355 . S
C2348 C2350 1.419 . S
C2349 C2344 1.425 . S
C2349 C2346 1.409 . S
C2349 C2347 1.415 . S
C2350 H2340 0.930 . S
C2350 C2348 1.419 . S
C2350 C2351 1.362 . S
C2351 H2341 0.930 . S
C2351 C2344 1.409 . S
C2351 C2350 1.362 . S
H2352 C2358 0.930 . S
H2353 C2361 0.930 . S
H2354 C2362 0.930 . S
H2355 C2363 0.930 . S
H2356 C2366 0.930 . S
H2357 C2367 0.930 . S
C2358 H2352 0.930 . S
C2358 C2359 1.355 . S
C2358 C2360 1.415 . S
C2359 C2358 1.355 . S
C2359 C2361 1.419 . S
C2360 C2358 1.415 . S
C2360 C2365 1.425 . S
C2360 C2367 1.409 . S
C2361 H2353 0.930 . S
C2361 C2359 1.419 . S
C2361 C2362 1.362 . S
C2362 H2354 0.930 . S
C2362 C2361 1.362 . S
C2362 C2365 1.409 . S
C2363 H2355 0.930 . S
C2363 C2364 1.355 . S
C2363 C2365 1.415 . S
C2364 C2363 1.355 . S
C2364 C2366 1.419 . S
C2365 C2360 1.425 . S
C2365 C2362 1.409 . S
C2365 C2363 1.415 . S
C2366 H2356 0.930 . S
C2366 C2364 1.419 . S
C2366 C2367 1.362 . S
C2367 H2357 0.930 . S
C2367 C2360 1.409 . S
C2367 C2366 1.362 . S
H2368 C2374 0.930 . S
H2369 C2377 0.930 . S
H2370 C2378 0.930 . S
H2371 C2379 0.930 . S
H2372 C2382 0.930 . S
H2373 C2383 0.930 . S
C2374 H2368 0.930 . S
C2374 C2375 1.355 . S
C2374 C2376 1.415 . S
C2375 C2374 1.355 . S
C2375 C2377 1.419 . S
C2376 C2374 1.415 . S
C2376 C2381 1.425 . S
C2376 C2383 1.409 . S
C2377 H2369 0.930 . S
C2377 C2375 1.419 . S
C2377 C2378 1.362 . S
C2378 H2370 0.930 . S
C2378 C2377 1.362 . S
C2378 C2381 1.409 . S
C2379 H2371 0.930 . S
C2379 C2380 1.355 . S
C2379 C2381 1.415 . S
C2380 C2379 1.355 . S
C2380 C2382 1.419 . S
C2381 C2376 1.425 . S
C2381 C2378 1.409 . S
C2381 C2379 1.415 . S
C2382 H2372 0.930 . S
C2382 C2380 1.419 . S
C2382 C2383 1.362 . S
C2383 H2373 0.930 . S
C2383 C2376 1.409 . S
C2383 C2382 1.362 . S
H2384 C2390 0.930 . S
H2385 C2393 0.930 . S
H2386 C2394 0.930 . S
H2387 C2395 0.930 . S
H2388 C2398 0.930 . S
H2389 C2399 0.930 . S
C2390 H2384 0.930 . S
C2390 C2391 1.355 . S
C2390 C2392 1.415 . S
C2391 C2390 1.355 . S
C2391 C2393 1.419 . S
C2392 C2390 1.415 . S
C2392 C2397 1.425 . S
C2392 C2399 1.409 . S
C2393 H2385 0.930 . S
C2393 C2391 1.419 . S
C2393 C2394 1.362 . S
C2394 H2386 0.930 . S
C2394 C2393 1.362 . S
C2394 C2397 1.409 . S
C2395 H2387 0.930 . S
C2395 C2396 1.355 . S
C2395 C2397 1.415 . S
C2396 C2395 1.355 . S
C2396 C2398 1.419 . S
C2397 C2392 1.425 . S
C2397 C2394 1.409 . S
C2397 C2395 1.415 . S
C2398 H2388 0.930 . S
C2398 C2396 1.419 . S
C2398 C2399 1.362 . S
C2399 H2389 0.930 . S
C2399 C2392 1.409 . S
C2399 C2398 1.362 . S
H2400 C2406 0.930 . S
H2401 C2409 0.930 . S
H2402 C2410 0.930 . S
H2403 C2411 0.930 . S
H2404 C2414 0.930 . S
H2405 C2415 0.930 . S
C2406 H2400 0.930 . S
C2406 C2407 1.355 . S
C2406 C2408 1.415 . S
C2407 C2406 1.355 . S
C2407 C2409 1.419 . S
C2408 C2406 1.415 . S
C2408 C2413 1.425 . S
C2408 C2415 1.409 . S
C2409 H2401 0.930 . S
C2409 C2407 1.419 . S
C2409 C2410 1.362 . S
C2410 H2402 0.930 . S
C2410 C2409 1.362 . S
C2410 C2413 1.409 . S
C2411 H2403 0.930 . S
C2411 C2412 1.355 . S
C2411 C2413 1.415 . S
C2412 C2411 1.355 . S
C2412 C2414 1.419 . S
C2413 C2408 1.425 . S
C2413 C2410 1.409 . S
C2413 C2411 1.415 . S
C2414 H2404 0.930 . S
C2414 C2412 1.419 . S
C2414 C2415 1.362 . S
C2415 H2405 0.930 . S
C2415 C2408 1.409 . S
C2415 C2414 1.362 . S
H2416 C2422 0.930 . S
H2417 C2425 0.930 1_556 S
H2418 C2426 0.930 . S
H2419 C2427 0.930 . S
H2420 C2430 0.930 . S
H2421 C2431 0.930 . S
C2422 H2416 0.930 . S
C2422 C2423 1.355 . S
C2422 C2424 1.415 . S
C2423 C2422 1.355 . S
C2423 C2425 1.419 . S
C2424 C2422 1.415 . S
C2424 C2429 1.425 . S
C2424 C2431 1.409 . S
C2425 H2417 0.930 1_554 S
C2425 C2423 1.419 . S
C2425 C2426 1.362 . S
C2426 H2418 0.930 . S
C2426 C2425 1.362 . S
C2426 C2429 1.409 . S
C2427 H2419 0.930 . S
C2427 C2428 1.355 . S
C2427 C2429 1.415 . S
C2428 C2427 1.355 . S
C2428 C2430 1.419 . S
C2429 C2424 1.425 . S
C2429 C2426 1.409 . S
C2429 C2427 1.415 . S
C2430 H2420 0.930 . S
C2430 C2428 1.419 . S
C2430 C2431 1.362 . S
C2431 H2421 0.930 . S
C2431 C2424 1.409 . S
C2431 C2430 1.362 . S
H2432 C2438 0.930 . S
H2433 C2441 0.930 . S
H2434 C2442 0.930 . S
H2435 C2443 0.930 . S
H2436 C2446 0.930 . S
H2437 C2447 0.930 . S
C2438 H2432 0.930 . S
C2438 C2439 1.355 . S
C2438 C2440 1.415 . S
C2439 C2438 1.355 . S
C2439 C2441 1.419 . S
C2440 C2438 1.415 . S
C2440 C2445 1.425 . S
C2440 C2447 1.409 . S
C2441 H2433 0.930 . S
C2441 C2439 1.419 . S
C2441 C2442 1.362 . S
C2442 H2434 0.930 . S
C2442 C2441 1.362 . S
C2442 C2445 1.409 . S
C2443 H2435 0.930 . S
C2443 C2444 1.355 . S
C2443 C2445 1.415 . S
C2444 C2443 1.355 . S
C2444 C2446 1.419 . S
C2445 C2440 1.425 . S
C2445 C2442 1.409 . S
C2445 C2443 1.415 . S
C2446 H2436 0.930 . S
C2446 C2444 1.419 . S
C2446 C2447 1.362 . S
C2447 H2437 0.930 . S
C2447 C2440 1.409 . S
C2447 C2446 1.362 . S
H2448 C2454 0.930 . S
H2449 C2457 0.930 . S
H2450 C2458 0.930 . S
H2451 C2459 0.930 . S
H2452 C2462 0.930 . S
H2453 C2463 0.930 . S
C2454 H2448 0.930 . S
C2454 C2455 1.355 . S
C2454 C2456 1.415 . S
C2455 C2454 1.355 . S
C2455 C2457 1.419 . S
C2456 C2454 1.415 . S
C2456 C2461 1.425 . S
C2456 C2463 1.409 . S
C2457 H2449 0.930 . S
C2457 C2455 1.419 . S
C2457 C2458 1.362 . S
C2458 H2450 0.930 . S
C2458 C2457 1.362 . S
C2458 C2461 1.409 . S
C2459 H2451 0.930 . S
C2459 C2460 1.355 . S
C2459 C2461 1.415 . S
C2460 C2459 1.355 . S
C2460 C2462 1.419 . S
C2461 C2456 1.425 . S
C2461 C2458 1.409 . S
C2461 C2459 1.415 . S
C2462 H2452 0.930 . S
C2462 C2460 1.419 . S
C2462 C2463 1.362 . S
C2463 H2453 0.930 . S
C2463 C2456 1.409 . S
C2463 C2462 1.362 . S
H2464 C2470 0.930 . S
H2465 C2473 0.930 . S
H2466 C2474 0.930 . S
H2467 C2475 0.930 . S
H2468 C2478 0.930 . S
H2469 C2479 0.930 . S
C2470 H2464 0.930 . S
C2470 C2471 1.355 . S
C2470 C2472 1.415 . S
C2471 C2470 1.355 . S
C2471 C2473 1.419 . S
C2472 C2470 1.415 . S
C2472 C2477 1.425 . S
C2472 C2479 1.409 . S
C2473 H2465 0.930 . S
C2473 C2471 1.419 . S
C2473 C2474 1.362 . S
C2474 H2466 0.930 . S
C2474 C2473 1.362 . S
C2474 C2477 1.409 . S
C2475 H2467 0.930 . S
C2475 C2476 1.355 . S
C2475 C2477 1.415 . S
C2476 C2475 1.355 . S
C2476 C2478 1.419 . S
C2477 C2472 1.425 . S
C2477 C2474 1.409 . S
C2477 C2475 1.415 . S
C2478 H2468 0.930 . S
C2478 C2476 1.419 . S
C2478 C2479 1.362 . S
C2479 H2469 0.930 . S
C2479 C2472 1.409 . S
C2479 C2478 1.362 . S
H2480 C2486 0.930 . S
H2481 C2489 0.930 . S
H2482 C2490 0.930 . S
H2483 C2491 0.930 . S
H2484 C2494 0.930 . S
H2485 C2495 0.930 . S
C2486 H2480 0.930 . S
C2486 C2487 1.355 . S
C2486 C2488 1.415 . S
C2487 C2486 1.355 . S
C2487 C2489 1.419 . S
C2488 C2486 1.415 . S
C2488 C2493 1.425 . S
C2488 C2495 1.409 . S
C2489 H2481 0.930 . S
C2489 C2487 1.419 . S
C2489 C2490 1.362 . S
C2490 H2482 0.930 . S
C2490 C2489 1.362 . S
C2490 C2493 1.409 . S
C2491 H2483 0.930 . S
C2491 C2492 1.355 . S
C2491 C2493 1.415 . S
C2492 C2491 1.355 . S
C2492 C2494 1.419 . S
C2493 C2488 1.425 . S
C2493 C2490 1.409 . S
C2493 C2491 1.415 . S
C2494 H2484 0.930 . S
C2494 C2492 1.419 . S
C2494 C2495 1.362 . S
C2495 H2485 0.930 . S
C2495 C2488 1.409 . S
C2495 C2494 1.362 . S
H2496 C2502 0.930 . S
H2497 C2505 0.930 . S
H2498 C2506 0.930 . S
H2499 C2507 0.930 . S
H2500 C2510 0.930 . S
H2501 C2511 0.930 . S
C2502 H2496 0.930 . S
C2502 C2503 1.355 . S
C2502 C2504 1.415 . S
C2503 C2502 1.355 . S
C2503 C2505 1.419 . S
C2504 C2502 1.415 . S
C2504 C2509 1.425 1_455 S
C2504 C2511 1.409 . S
C2505 H2497 0.930 . S
C2505 C2503 1.419 . S
C2505 C2506 1.362 1_455 S
C2506 H2498 0.930 . S
C2506 C2505 1.362 1_655 S
C2506 C2509 1.409 . S
C2507 H2499 0.930 . S
C2507 C2508 1.355 . S
C2507 C2509 1.415 . S
C2508 C2507 1.355 . S
C2508 C2510 1.419 . S
C2509 C2504 1.425 1_655 S
C2509 C2506 1.409 . S
C2509 C2507 1.415 . S
C2510 H2500 0.930 . S
C2510 C2508 1.419 . S
C2510 C2511 1.362 1_655 S
C2511 H2501 0.930 . S
C2511 C2504 1.409 . S
C2511 C2510 1.362 1_455 S
H2512 C2518 0.930 . S
H2513 C2521 0.930 . S
H2514 C2522 0.930 . S
H2515 C2523 0.930 . S
H2516 C2526 0.930 . S
H2517 C2527 0.930 . S
C2518 H2512 0.930 . S
C2518 C2519 1.355 . S
C2518 C2520 1.415 . S
C2519 C2518 1.355 . S
C2519 C2521 1.419 . S
C2520 C2518 1.415 . S
C2520 C2525 1.425 . S
C2520 C2527 1.409 . S
C2521 H2513 0.930 . S
C2521 C2519 1.419 . S
C2521 C2522 1.362 . S
C2522 H2514 0.930 . S
C2522 C2521 1.362 . S
C2522 C2525 1.409 . S
C2523 H2515 0.930 . S
C2523 C2524 1.355 . S
C2523 C2525 1.415 . S
C2524 C2523 1.355 . S
C2524 C2526 1.419 . S
C2525 C2520 1.425 . S
C2525 C2522 1.409 . S
C2525 C2523 1.415 . S
C2526 H2516 0.930 . S
C2526 C2524 1.419 . S
C2526 C2527 1.362 . S
C2527 H2517 0.930 . S
C2527 C2520 1.409 . S
C2527 C2526 1.362 . S
H2528 C2534 0.930 . S
H2529 C2537 0.930 . S
H2530 C2538 0.930 . S
H2531 C2539 0.930 . S
H2532 C2542 0.930 . S
H2533 C2543 0.930 . S
C2534 H2528 0.930 . S
C2534 C2535 1.355 . S
C2534 C2536 1.415 . S
C2535 C2534 1.355 . S
C2535 C2537 1.419 . S
C2536 C2534 1.415 . S
C2536 C2541 1.425 1_545 S
C2536 C2543 1.409 . S
C2537 H2529 0.930 . S
C2537 C2535 1.419 . S
C2537 C2538 1.362 1_545 S
C2538 H2530 0.930 . S
C2538 C2537 1.362 1_565 S
C2538 C2541 1.409 . S
C2539 H2531 0.930 . S
C2539 C2540 1.355 . S
C2539 C2541 1.415 . S
C2540 C2539 1.355 . S
C2540 C2542 1.419 . S
C2541 C2536 1.425 1_565 S
C2541 C2538 1.409 . S
C2541 C2539 1.415 . S
C2542 H2532 0.930 . S
C2542 C2540 1.419 . S
C2542 C2543 1.362 1_565 S
C2543 H2533 0.930 . S
C2543 C2536 1.409 . S
C2543 C2542 1.362 1_545 S
H2544 C2550 0.930 . S
H2545 C2553 0.930 . S
H2546 C2554 0.930 . S
H2547 C2555 0.930 . S
H2548 C2558 0.930 . S
H2549 C2559 0.930 . S
C2550 H2544 0.930 . S
C2550 C2551 1.355 . S
C2550 C2552 1.415 1_565 S
C2551 C2550 1.355 . S
C2551 C2553 1.419 . S
C2552 C2550 1.415 1_545 S
C2552 C2557 1.425 1_545 S
C2552 C2559 1.409 . S
C2553 H2545 0.930 . S
C2553 C2551 1.419 . S
C2553 C2554 1.362 . S
C2554 H2546 0.930 . S
C2554 C2553 1.362 . S
C2554 C2557 1.409 . S
C2555 H2547 0.930 . S
C2555 C2556 1.355 . S
C2555 C2557 1.415 1_545 S
C2556 C2555 1.355 . S
C2556 C2558 1.419 . S
C2557 C2552 1.425 1_565 S
C2557 C2554 1.409 . S
C2557 C2555 1.415 1_565 S
C2558 H2548 0.930 . S
C2558 C2556 1.419 . S
C2558 C2559 1.362 . S
C2559 H2549 0.930 . S
C2559 C2552 1.409 . S
C2559 C2558 1.362 . S
H2560 C2566 0.930 . S
H2561 C2569 0.930 . S
H2562 C2570 0.930 . S
H2563 C2571 0.930 . S
H2564 C2574 0.930 . S
H2565 C2575 0.930 . S
C2566 H2560 0.930 . S
C2566 C2567 1.355 . S
C2566 C2568 1.415 1_455 S
C2567 C2566 1.355 . S
C2567 C2569 1.419 . S
C2568 C2566 1.415 1_655 S
C2568 C2573 1.425 1_655 S
C2568 C2575 1.409 . S
C2569 H2561 0.930 . S
C2569 C2567 1.419 . S
C2569 C2570 1.362 . S
C2570 H2562 0.930 . S
C2570 C2569 1.362 . S
C2570 C2573 1.409 . S
C2571 H2563 0.930 . S
C2571 C2572 1.355 . S
C2571 C2573 1.415 1_655 S
C2572 C2571 1.355 . S
C2572 C2574 1.419 . S
C2573 C2568 1.425 1_455 S
C2573 C2570 1.409 . S
C2573 C2571 1.415 1_455 S
C2574 H2564 0.930 . S
C2574 C2572 1.419 . S
C2574 C2575 1.362 . S
C2575 H2565 0.930 . S
C2575 C2568 1.409 . S
C2575 C2574 1.362 . S
H2576 C2582 0.930 . S
H2577 C2585 0.930 . S
H2578 C2586 0.930 . S
H2579 C2587 0.930 . S
H2580 C2590 0.930 . S
H2581 C2591 0.930 . S
C2582 H2576 0.930 . S
C2582 C2583 1.355 . S
C2582 C2584 1.415 . S
C2583 C2582 1.355 . S
C2583 C2585 1.419 . S
C2584 C2582 1.415 . S
C2584 C2589 1.425 . S
C2584 C2591 1.409 . S
C2585 H2577 0.930 . S
C2585 C2583 1.419 . S
C2585 C2586 1.362 . S
C2586 H2578 0.930 . S
C2586 C2585 1.362 . S
C2586 C2589 1.409 . S
C2587 H2579 0.930 . S
C2587 C2588 1.355 . S
C2587 C2589 1.415 . S
C2588 C2587 1.355 . S
C2588 C2590 1.419 . S
C2589 C2584 1.425 . S
C2589 C2586 1.409 . S
C2589 C2587 1.415 . S
C2590 H2580 0.930 . S
C2590 C2588 1.419 . S
C2590 C2591 1.362 . S
C2591 H2581 0.930 . S
C2591 C2584 1.409 . S
C2591 C2590 1.362 . S
H2592 C2598 0.930 . S
H2593 C2601 0.930 . S
H2594 C2602 0.930 . S
H2595 C2603 0.930 . S
H2596 C2606 0.930 . S
H2597 C2607 0.930 . S
C2598 H2592 0.930 . S
C2598 C2599 1.355 . S
C2598 C2600 1.415 . S
C2599 C2598 1.355 . S
C2599 C2601 1.419 . S
C2600 C2598 1.415 . S
C2600 C2605 1.425 . S
C2600 C2607 1.409 . S
C2601 H2593 0.930 . S
C2601 C2599 1.419 . S
C2601 C2602 1.362 . S
C2602 H2594 0.930 . S
C2602 C2601 1.362 . S
C2602 C2605 1.409 . S
C2603 H2595 0.930 . S
C2603 C2604 1.355 . S
C2603 C2605 1.415 . S
C2604 C2603 1.355 . S
C2604 C2606 1.419 . S
C2605 C2600 1.425 . S
C2605 C2602 1.409 . S
C2605 C2603 1.415 . S
C2606 H2596 0.930 . S
C2606 C2604 1.419 . S
C2606 C2607 1.362 . S
C2607 H2597 0.930 . S
C2607 C2600 1.409 . S
C2607 C2606 1.362 . S
H2608 C2614 0.930 . S
H2609 C2617 0.930 . S
H2610 C2618 0.930 . S
H2611 C2619 0.930 . S
H2612 C2622 0.930 . S
H2613 C2623 0.930 . S
C2614 H2608 0.930 . S
C2614 C2615 1.355 . S
C2614 C2616 1.415 . S
C2615 C2614 1.355 . S
C2615 C2617 1.419 . S
C2616 C2614 1.415 . S
C2616 C2621 1.425 1_545 S
C2616 C2623 1.409 1_545 S
C2617 H2609 0.930 . S
C2617 C2615 1.419 . S
C2617 C2618 1.362 . S
C2618 H2610 0.930 . S
C2618 C2617 1.362 . S
C2618 C2621 1.409 1_545 S
C2619 H2611 0.930 . S
C2619 C2620 1.355 . S
C2619 C2621 1.415 . S
C2620 C2619 1.355 . S
C2620 C2622 1.419 . S
C2621 C2616 1.425 1_565 S
C2621 C2618 1.409 1_565 S
C2621 C2619 1.415 . S
C2622 H2612 0.930 . S
C2622 C2620 1.419 . S
C2622 C2623 1.362 . S
C2623 H2613 0.930 . S
C2623 C2616 1.409 1_565 S
C2623 C2622 1.362 . S
H2624 C2630 0.930 . S
H2625 C2633 0.930 . S
H2626 C2634 0.930 . S
H2627 C2635 0.930 . S
H2628 C2638 0.930 . S
H2629 C2639 0.930 . S
C2630 H2624 0.930 . S
C2630 C2631 1.355 . S
C2630 C2632 1.415 . S
C2631 C2630 1.355 . S
C2631 C2633 1.419 . S
C2632 C2630 1.415 . S
C2632 C2637 1.426 1_655 S
C2632 C2639 1.409 1_655 S
C2633 H2625 0.930 . S
C2633 C2631 1.419 . S
C2633 C2634 1.362 . S
C2634 H2626 0.930 . S
C2634 C2633 1.362 . S
C2634 C2637 1.408 1_655 S
C2635 H2627 0.930 . S
C2635 C2636 1.355 . S
C2635 C2637 1.415 . S
C2636 C2635 1.355 . S
C2636 C2638 1.419 . S
C2637 C2632 1.426 1_455 S
C2637 C2634 1.408 1_455 S
C2637 C2635 1.415 . S
C2638 H2628 0.930 . S
C2638 C2636 1.419 . S
C2638 C2639 1.362 . S
C2639 H2629 0.930 . S
C2639 C2632 1.409 1_455 S
C2639 C2638 1.362 . S
H2640 C2646 0.930 . S
H2641 C2649 0.930 . S
H2642 C2650 0.930 . S
H2643 C2651 0.930 . S
H2644 C2654 0.930 . S
H2645 C2655 0.930 . S
C2646 H2640 0.930 . S
C2646 C2647 1.355 . S
C2646 C2648 1.415 . S
C2647 C2646 1.355 . S
C2647 C2649 1.419 . S
C2648 C2646 1.415 . S
C2648 C2653 1.425 . S
C2648 C2655 1.409 . S
C2649 H2641 0.930 . S
C2649 C2647 1.419 . S
C2649 C2650 1.362 . S
C2650 H2642 0.930 . S
C2650 C2649 1.362 . S
C2650 C2653 1.409 . S
C2651 H2643 0.930 . S
C2651 C2652 1.355 . S
C2651 C2653 1.415 . S
C2652 C2651 1.355 . S
C2652 C2654 1.419 . S
C2653 C2648 1.425 . S
C2653 C2650 1.409 . S
C2653 C2651 1.415 . S
C2654 H2644 0.930 . S
C2654 C2652 1.419 . S
C2654 C2655 1.362 . S
C2655 H2645 0.930 . S
C2655 C2648 1.409 . S
C2655 C2654 1.362 . S
H2656 C2662 0.930 . S
H2657 C2665 0.930 . S
H2658 C2666 0.931 . S
H2659 C2667 0.930 . S
H2660 C2670 0.930 . S
H2661 C2671 0.930 . S
C2662 H2656 0.930 . S
C2662 C2663 1.355 . S
C2662 C2664 1.415 . S
C2663 C2662 1.355 . S
C2663 C2665 1.419 . S
C2664 C2662 1.415 . S
C2664 C2669 1.425 1_565 S
C2664 C2671 1.409 1_565 S
C2665 H2657 0.930 . S
C2665 C2663 1.419 . S
C2665 C2666 1.362 . S
C2666 H2658 0.931 . S
C2666 C2665 1.362 . S
C2666 C2669 1.409 1_565 S
C2667 H2659 0.930 . S
C2667 C2668 1.355 . S
C2667 C2669 1.415 . S
C2668 C2667 1.355 . S
C2668 C2670 1.419 . S
C2669 C2664 1.425 1_545 S
C2669 C2666 1.409 1_545 S
C2669 C2667 1.415 . S
C2670 H2660 0.930 . S
C2670 C2668 1.419 . S
C2670 C2671 1.362 . S
C2671 H2661 0.930 . S
C2671 C2664 1.409 1_545 S
C2671 C2670 1.362 . S
H2672 C2678 0.930 . S
H2673 C2681 0.930 . S
H2674 C2682 0.930 . S
H2675 C2683 0.930 . S
H2676 C2686 0.930 . S
H2677 C2687 0.930 . S
C2678 H2672 0.930 . S
C2678 C2679 1.355 . S
C2678 C2680 1.407 1_655 S
C2679 C2678 1.355 . S
C2679 C2681 1.419 . S
C2680 C2678 1.407 1_455 S
C2680 C2685 1.431 1_455 S
C2680 C2687 1.414 . S
C2681 H2673 0.930 . S
C2681 C2679 1.419 . S
C2681 C2682 1.362 . S
C2682 H2674 0.930 . S
C2682 C2681 1.362 . S
C2682 C2685 1.414 . S
C2683 H2675 0.930 . S
C2683 C2684 1.355 . S
C2683 C2685 1.407 1_455 S
C2684 C2683 1.355 . S
C2684 C2686 1.419 . S
C2685 C2680 1.431 1_655 S
C2685 C2682 1.414 . S
C2685 C2683 1.407 1_655 S
C2686 H2676 0.930 . S
C2686 C2684 1.419 . S
C2686 C2687 1.362 . S
C2687 H2677 0.930 . S
C2687 C2680 1.414 . S
C2687 C2686 1.362 . S
H2688 C2694 0.930 . S
H2689 C2697 0.930 . S
H2690 C2698 0.930 . S
H2691 C2699 0.930 . S
H2692 C2702 0.930 . S
H2693 C2703 0.930 . S
C2694 H2688 0.930 . S
C2694 C2695 1.355 . S
C2694 C2696 1.415 . S
C2695 C2694 1.355 . S
C2695 C2697 1.419 . S
C2696 C2694 1.415 . S
C2696 C2701 1.425 . S
C2696 C2703 1.409 . S
C2697 H2689 0.930 . S
C2697 C2695 1.419 . S
C2697 C2698 1.362 . S
C2698 H2690 0.930 . S
C2698 C2697 1.362 . S
C2698 C2701 1.409 . S
C2699 H2691 0.930 . S
C2699 C2700 1.355 . S
C2699 C2701 1.415 . S
C2700 C2699 1.355 . S
C2700 C2702 1.419 . S
C2701 C2696 1.425 . S
C2701 C2698 1.409 . S
C2701 C2699 1.415 . S
C2702 H2692 0.930 . S
C2702 C2700 1.419 . S
C2702 C2703 1.362 . S
C2703 H2693 0.930 . S
C2703 C2696 1.409 . S
C2703 C2702 1.362 . S
H2704 C2710 0.930 . S
H2705 C2713 0.930 . S
H2706 C2714 0.930 . S
H2707 C2715 0.930 . S
H2708 C2718 0.930 . S
H2709 C2719 0.930 . S
C2710 H2704 0.930 . S
C2710 C2711 1.355 . S
C2710 C2712 1.415 . S
C2711 C2710 1.355 . S
C2711 C2713 1.419 . S
C2712 C2710 1.415 . S
C2712 C2717 1.425 . S
C2712 C2719 1.409 . S
C2713 H2705 0.930 . S
C2713 C2711 1.419 . S
C2713 C2714 1.362 . S
C2714 H2706 0.930 . S
C2714 C2713 1.362 . S
C2714 C2717 1.409 . S
C2715 H2707 0.930 . S
C2715 C2716 1.355 . S
C2715 C2717 1.415 . S
C2716 C2715 1.355 . S
C2716 C2718 1.419 . S
C2717 C2712 1.425 . S
C2717 C2714 1.409 . S
C2717 C2715 1.415 . S
C2718 H2708 0.930 . S
C2718 C2716 1.419 . S
C2718 C2719 1.362 . S
C2719 H2709 0.930 . S
C2719 C2712 1.409 . S
C2719 C2718 1.362 . S
H2720 C2726 0.930 . S
H2721 C2729 0.930 . S
H2722 C2730 0.930 . S
H2723 C2731 0.930 . S
H2724 C2734 0.930 . S
H2725 C2735 0.930 . S
C2726 H2720 0.930 . S
C2726 C2727 1.355 . S
C2726 C2728 1.415 . S
C2727 C2726 1.355 . S
C2727 C2729 1.419 . S
C2728 C2726 1.415 . S
C2728 C2733 1.425 . S
C2728 C2735 1.409 . S
C2729 H2721 0.930 . S
C2729 C2727 1.419 . S
C2729 C2730 1.362 . S
C2730 H2722 0.930 . S
C2730 C2729 1.362 . S
C2730 C2733 1.409 . S
C2731 H2723 0.930 . S
C2731 C2732 1.355 . S
C2731 C2733 1.415 . S
C2732 C2731 1.355 . S
C2732 C2734 1.419 . S
C2733 C2728 1.425 . S
C2733 C2730 1.409 . S
C2733 C2731 1.415 . S
C2734 H2724 0.930 . S
C2734 C2732 1.419 . S
C2734 C2735 1.362 . S
C2735 H2725 0.930 . S
C2735 C2728 1.409 . S
C2735 C2734 1.362 . S
H2736 C2742 0.930 . S
H2737 C2745 0.930 . S
H2738 C2746 0.930 . S
H2739 C2747 0.930 . S
H2740 C2750 0.930 1_556 S
H2741 C2751 0.930 . S
C2742 H2736 0.930 . S
C2742 C2743 1.355 . S
C2742 C2744 1.415 . S
C2743 C2742 1.355 . S
C2743 C2745 1.419 . S
C2744 C2742 1.415 . S
C2744 C2749 1.425 . S
C2744 C2751 1.409 . S
C2745 H2737 0.930 . S
C2745 C2743 1.419 . S
C2745 C2746 1.362 . S
C2746 H2738 0.930 . S
C2746 C2745 1.362 . S
C2746 C2749 1.409 . S
C2747 H2739 0.930 . S
C2747 C2748 1.355 . S
C2747 C2749 1.415 . S
C2748 C2747 1.355 . S
C2748 C2750 1.419 . S
C2749 C2744 1.425 . S
C2749 C2746 1.409 . S
C2749 C2747 1.415 . S
C2750 H2740 0.930 1_554 S
C2750 C2748 1.419 . S
C2750 C2751 1.362 . S
C2751 H2741 0.930 . S
C2751 C2744 1.409 . S
C2751 C2750 1.362 . S
H2752 C2758 0.930 . S
H2753 C2761 0.930 . S
H2754 C2762 0.930 . S
H2755 C2763 0.930 . S
H2756 C2766 0.930 1_556 S
H2757 C2767 0.930 . S
C2758 H2752 0.930 . S
C2758 C2759 1.355 . S
C2758 C2760 1.415 . S
C2759 C2758 1.355 . S
C2759 C2761 1.419 . S
C2760 C2758 1.415 . S
C2760 C2765 1.425 . S
C2760 C2767 1.409 . S
C2761 H2753 0.930 . S
C2761 C2759 1.419 . S
C2761 C2762 1.362 . S
C2762 H2754 0.930 . S
C2762 C2761 1.362 . S
C2762 C2765 1.409 . S
C2763 H2755 0.930 . S
C2763 C2764 1.355 . S
C2763 C2765 1.415 . S
C2764 C2763 1.355 . S
C2764 C2766 1.419 . S
C2765 C2760 1.425 . S
C2765 C2762 1.409 . S
C2765 C2763 1.415 . S
C2766 H2756 0.930 1_554 S
C2766 C2764 1.419 . S
C2766 C2767 1.362 . S
C2767 H2757 0.930 . S
C2767 C2760 1.409 . S
C2767 C2766 1.362 . S
H2768 C2774 0.930 . S
H2769 C2777 0.930 . S
H2770 C2778 0.930 . S
H2771 C2779 0.930 . S
H2772 C2782 0.930 1_556 S
H2773 C2783 0.930 1_556 S
C2774 H2768 0.930 . S
C2774 C2775 1.355 . S
C2774 C2776 1.415 . S
C2775 C2774 1.355 . S
C2775 C2777 1.419 . S
C2776 C2774 1.415 . S
C2776 C2781 1.425 . S
C2776 C2783 1.409 . S
C2777 H2769 0.930 . S
C2777 C2775 1.419 . S
C2777 C2778 1.362 . S
C2778 H2770 0.930 . S
C2778 C2777 1.362 . S
C2778 C2781 1.409 . S
C2779 H2771 0.930 . S
C2779 C2780 1.355 . S
C2779 C2781 1.415 . S
C2780 C2779 1.355 . S
C2780 C2782 1.419 . S
C2781 C2776 1.425 . S
C2781 C2778 1.409 . S
C2781 C2779 1.415 . S
C2782 H2772 0.930 1_554 S
C2782 C2780 1.419 . S
C2782 C2783 1.362 . S
C2783 H2773 0.930 1_554 S
C2783 C2776 1.409 . S
C2783 C2782 1.362 . S
H2784 C2790 0.930 . S
H2785 C2793 0.930 . S
H2786 C2794 0.930 . S
H2787 C2795 0.913 1_554 S
H2788 C2798 0.930 . S
H2789 C2799 0.930 . S
C2790 H2784 0.930 . S
C2790 C2791 1.355 . S
C2790 C2792 1.415 . S
C2791 C2790 1.355 . S
C2791 C2793 1.419 . S
C2792 C2790 1.415 . S
C2792 C2797 1.425 . S
C2792 C2799 1.409 . S
C2793 H2785 0.930 . S
C2793 C2791 1.419 . S
C2793 C2794 1.362 . S
C2794 H2786 0.930 . S
C2794 C2793 1.362 . S
C2794 C2797 1.409 . S
C2795 H2787 0.913 1_556 S
C2795 C2796 1.355 . S
C2795 C2797 1.415 . S
C2796 C2795 1.355 . S
C2796 C2798 1.419 . S
C2797 C2792 1.425 . S
C2797 C2794 1.409 . S
C2797 C2795 1.415 . S
C2798 H2788 0.930 . S
C2798 C2796 1.419 . S
C2798 C2799 1.362 . S
C2799 H2789 0.930 . S
C2799 C2792 1.409 . S
C2799 C2798 1.362 . S
H2800 C2806 0.930 . S
H2801 C2809 0.930 1_554 S
H2802 C2810 0.930 . S
H2803 C2811 0.930 . S
H2804 C2814 0.930 . S
H2805 C2815 0.930 . S
C2806 H2800 0.930 . S
C2806 C2807 1.355 . S
C2806 C2808 1.415 . S
C2807 C2806 1.355 . S
C2807 C2809 1.419 . S
C2808 C2806 1.415 . S
C2808 C2813 1.425 . S
C2808 C2815 1.409 . S
C2809 H2801 0.930 1_556 S
C2809 C2807 1.419 . S
C2809 C2810 1.362 . S
C2810 H2802 0.930 . S
C2810 C2809 1.362 . S
C2810 C2813 1.409 . S
C2811 H2803 0.930 . S
C2811 C2812 1.355 . S
C2811 C2813 1.415 . S
C2812 C2811 1.355 . S
C2812 C2814 1.419 . S
C2813 C2808 1.425 . S
C2813 C2810 1.409 . S
C2813 C2811 1.415 . S
C2814 H2804 0.930 . S
C2814 C2812 1.419 . S
C2814 C2815 1.362 . S
C2815 H2805 0.930 . S
C2815 C2808 1.409 . S
C2815 C2814 1.362 . S
H2816 C2822 0.930 . S
H2817 C2825 0.930 . S
H2818 C2826 0.930 . S
H2819 C2827 0.930 . S
H2820 C2830 0.930 . S
H2821 C2831 0.930 . S
C2822 H2816 0.930 . S
C2822 C2823 1.355 . S
C2822 C2824 1.415 . S
C2823 C2822 1.355 . S
C2823 C2825 1.419 . S
C2824 C2822 1.415 . S
C2824 C2829 1.425 . S
C2824 C2831 1.409 . S
C2825 H2817 0.930 . S
C2825 C2823 1.419 . S
C2825 C2826 1.362 . S
C2826 H2818 0.930 . S
C2826 C2825 1.362 . S
C2826 C2829 1.409 . S
C2827 H2819 0.930 . S
C2827 C2828 1.355 . S
C2827 C2829 1.415 . S
C2828 C2827 1.355 . S
C2828 C2830 1.419 . S
C2829 C2824 1.425 . S
C2829 C2826 1.409 . S
C2829 C2827 1.415 . S
C2830 H2820 0.930 . S
C2830 C2828 1.419 . S
C2830 C2831 1.362 . S
C2831 H2821 0.930 . S
C2831 C2824 1.409 . S
C2831 C2830 1.362 . S
H2832 C2838 0.930 . S
H2833 C2841 0.930 . S
H2834 C2842 0.930 . S
H2835 C2843 0.930 . S
H2836 C2846 0.930 . S
H2837 C2847 0.930 . S
C2838 H2832 0.930 . S
C2838 C2839 1.355 . S
C2838 C2840 1.415 . S
C2839 C2838 1.355 . S
C2839 C2841 1.419 . S
C2840 C2838 1.415 . S
C2840 C2845 1.425 . S
C2840 C2847 1.409 . S
C2841 H2833 0.930 . S
C2841 C2839 1.419 . S
C2841 C2842 1.362 . S
C2842 H2834 0.930 . S
C2842 C2841 1.362 . S
C2842 C2845 1.409 . S
C2843 H2835 0.930 . S
C2843 C2844 1.355 . S
C2843 C2845 1.415 . S
C2844 C2843 1.355 . S
C2844 C2846 1.419 . S
C2845 C2840 1.425 . S
C2845 C2842 1.409 . S
C2845 C2843 1.415 . S
C2846 H2836 0.930 . S
C2846 C2844 1.419 . S
C2846 C2847 1.362 . S
C2847 H2837 0.930 . S
C2847 C2840 1.409 . S
C2847 C2846 1.362 . S
H2848 C2854 0.930 . S
H2849 C2857 0.930 . S
H2850 C2858 0.930 . S
H2851 C2859 0.930 . S
H2852 C2862 0.930 . S
H2853 C2863 0.930 . S
C2854 H2848 0.930 . S
C2854 C2855 1.355 . S
C2854 C2856 1.415 . S
C2855 C2854 1.355 . S
C2855 C2857 1.419 . S
C2856 C2854 1.415 . S
C2856 C2861 1.425 . S
C2856 C2863 1.409 . S
C2857 H2849 0.930 . S
C2857 C2855 1.419 . S
C2857 C2858 1.362 . S
C2858 H2850 0.930 . S
C2858 C2857 1.362 . S
C2858 C2861 1.409 . S
C2859 H2851 0.930 . S
C2859 C2860 1.355 . S
C2859 C2861 1.415 . S
C2860 C2859 1.355 . S
C2860 C2862 1.419 . S
C2861 C2856 1.425 . S
C2861 C2858 1.409 . S
C2861 C2859 1.415 . S
C2862 H2852 0.930 . S
C2862 C2860 1.419 . S
C2862 C2863 1.362 . S
C2863 H2853 0.930 . S
C2863 C2856 1.409 . S
C2863 C2862 1.362 . S
H2864 C2870 0.930 . S
H2865 C2873 0.930 . S
H2866 C2874 0.930 . S
H2867 C2875 0.930 . S
H2868 C2878 0.930 . S
H2869 C2879 0.930 . S
C2870 H2864 0.930 . S
C2870 C2871 1.355 . S
C2870 C2872 1.415 . S
C2871 C2870 1.355 . S
C2871 C2873 1.419 . S
C2872 C2870 1.415 . S
C2872 C2877 1.425 . S
C2872 C2879 1.409 . S
C2873 H2865 0.930 . S
C2873 C2871 1.419 . S
C2873 C2874 1.362 . S
C2874 H2866 0.930 . S
C2874 C2873 1.362 . S
C2874 C2877 1.409 . S
C2875 H2867 0.930 . S
C2875 C2876 1.355 . S
C2875 C2877 1.415 . S
C2876 C2875 1.355 . S
C2876 C2878 1.419 . S
C2877 C2872 1.425 . S
C2877 C2874 1.409 . S
C2877 C2875 1.415 . S
C2878 H2868 0.930 . S
C2878 C2876 1.419 . S
C2878 C2879 1.362 . S
C2879 H2869 0.930 . S
C2879 C2872 1.409 . S
C2879 C2878 1.362 . S
H2880 C2886 0.930 . S
H2881 C2889 0.930 . S
H2882 C2890 0.930 . S
H2883 C2891 0.930 . S
H2884 C2894 0.930 1_556 S
H2885 C2895 0.930 1_556 S
C2886 H2880 0.930 . S
C2886 C2887 1.355 . S
C2886 C2888 1.415 . S
C2887 C2886 1.355 . S
C2887 C2889 1.419 . S
C2888 C2886 1.415 . S
C2888 C2893 1.425 . S
C2888 C2895 1.409 . S
C2889 H2881 0.930 . S
C2889 C2887 1.419 . S
C2889 C2890 1.362 . S
C2890 H2882 0.930 . S
C2890 C2889 1.362 . S
C2890 C2893 1.409 . S
C2891 H2883 0.930 . S
C2891 C2892 1.355 . S
C2891 C2893 1.415 . S
C2892 C2891 1.355 . S
C2892 C2894 1.419 . S
C2893 C2888 1.425 . S
C2893 C2890 1.409 . S
C2893 C2891 1.415 . S
C2894 H2884 0.930 1_554 S
C2894 C2892 1.419 . S
C2894 C2895 1.362 . S
C2895 H2885 0.930 1_554 S
C2895 C2888 1.409 . S
C2895 C2894 1.362 . S
H2896 C2902 0.930 . S
H2897 C2905 0.930 . S
H2898 C2906 0.930 . S
H2899 C2907 0.930 . S
H2900 C2910 0.930 . S
H2901 C2911 0.930 1_545 S
C2902 H2896 0.930 . S
C2902 C2903 1.355 . S
C2902 C2904 1.415 . S
C2903 C2902 1.355 . S
C2903 C2905 1.419 . S
C2904 C2902 1.415 . S
C2904 C2909 1.425 . S
C2904 C2911 1.409 . S
C2905 H2897 0.930 . S
C2905 C2903 1.419 . S
C2905 C2906 1.362 . S
C2906 H2898 0.930 . S
C2906 C2905 1.362 . S
C2906 C2909 1.409 . S
C2907 H2899 0.930 . S
C2907 C2908 1.355 . S
C2907 C2909 1.415 . S
C2908 C2907 1.355 . S
C2908 C2910 1.419 1_565 S
C2909 C2904 1.425 . S
C2909 C2906 1.409 . S
C2909 C2907 1.415 . S
C2910 H2900 0.930 . S
C2910 C2908 1.419 1_545 S
C2910 C2911 1.362 1_545 S
C2911 H2901 0.930 1_565 S
C2911 C2904 1.409 . S
C2911 C2910 1.362 1_565 S
H2912 C2918 0.930 1_655 S
H2913 C2921 0.930 . S
H2914 C2922 0.930 . S
H2915 C2923 0.930 . S
H2916 C2926 0.930 . S
H2917 C2927 0.930 1_655 S
C2918 H2912 0.930 1_455 S
C2918 C2919 1.355 . S
C2918 C2920 1.415 . S
C2919 C2918 1.355 . S
C2919 C2921 1.419 . S
C2920 C2918 1.415 . S
C2920 C2925 1.425 . S
C2920 C2927 1.409 . S
C2921 H2913 0.930 . S
C2921 C2919 1.419 . S
C2921 C2922 1.362 . S
C2922 H2914 0.930 . S
C2922 C2921 1.362 . S
C2922 C2925 1.409 . S
C2923 H2915 0.930 . S
C2923 C2924 1.355 . S
C2923 C2925 1.415 . S
C2924 C2923 1.355 . S
C2924 C2926 1.419 . S
C2925 C2920 1.425 . S
C2925 C2922 1.409 . S
C2925 C2923 1.415 . S
C2926 H2916 0.930 . S
C2926 C2924 1.419 . S
C2926 C2927 1.362 . S
C2927 H2917 0.930 1_455 S
C2927 C2920 1.409 . S
C2927 C2926 1.362 . S
H2928 C2934 0.930 . S
H2929 C2937 0.930 . S
H2930 C2938 0.930 . S
H2931 C2939 0.930 . S
H2932 C2942 0.930 . S
H2933 C2943 0.930 . S
C2934 H2928 0.930 . S
C2934 C2935 1.355 . S
C2934 C2936 1.415 . S
C2935 C2934 1.355 . S
C2935 C2937 1.419 . S
C2936 C2934 1.415 . S
C2936 C2941 1.425 . S
C2936 C2943 1.409 . S
C2937 H2929 0.930 . S
C2937 C2935 1.419 . S
C2937 C2938 1.362 . S
C2938 H2930 0.930 . S
C2938 C2937 1.362 . S
C2938 C2941 1.409 . S
C2939 H2931 0.930 . S
C2939 C2940 1.355 . S
C2939 C2941 1.415 . S
C2940 C2939 1.355 . S
C2940 C2942 1.419 . S
C2941 C2936 1.425 . S
C2941 C2938 1.409 . S
C2941 C2939 1.415 . S
C2942 H2932 0.930 . S
C2942 C2940 1.419 . S
C2942 C2943 1.362 . S
C2943 H2933 0.930 . S
C2943 C2936 1.409 . S
C2943 C2942 1.362 . S
H2944 C2950 0.930 1_565 S
H2945 C2953 0.930 . S
H2946 C2954 0.930 . S
H2947 C2955 0.930 . S
H2948 C2958 0.930 . S
H2949 C2959 0.930 . S
C2950 H2944 0.930 1_545 S
C2950 C2951 1.355 . S
C2950 C2952 1.415 . S
C2951 C2950 1.355 . S
C2951 C2953 1.419 . S
C2952 C2950 1.415 . S
C2952 C2957 1.425 . S
C2952 C2959 1.409 . S
C2953 H2945 0.930 . S
C2953 C2951 1.419 . S
C2953 C2954 1.362 . S
C2954 H2946 0.930 . S
C2954 C2953 1.362 . S
C2954 C2957 1.409 . S
C2955 H2947 0.930 . S
C2955 C2956 1.355 . S
C2955 C2957 1.415 . S
C2956 C2955 1.355 . S
C2956 C2958 1.419 . S
C2957 C2952 1.425 . S
C2957 C2954 1.409 . S
C2957 C2955 1.415 . S
C2958 H2948 0.930 . S
C2958 C2956 1.419 . S
C2958 C2959 1.362 . S
C2959 H2949 0.930 . S
C2959 C2952 1.409 . S
C2959 C2958 1.362 . S
H2960 C2966 0.917 1_455 S
H2961 C2969 0.930 . S
H2962 C2970 0.930 . S
H2963 C2971 0.930 . S
H2964 C2974 0.930 . S
H2965 C2975 0.930 . S
C2966 H2960 0.917 1_655 S
C2966 C2967 1.355 . S
C2966 C2968 1.415 . S
C2967 C2966 1.355 . S
C2967 C2969 1.419 . S
C2968 C2966 1.415 . S
C2968 C2973 1.425 . S
C2968 C2975 1.409 . S
C2969 H2961 0.930 . S
C2969 C2967 1.419 . S
C2969 C2970 1.362 . S
C2970 H2962 0.930 . S
C2970 C2969 1.362 . S
C2970 C2973 1.409 . S
C2971 H2963 0.930 . S
C2971 C2972 1.355 . S
C2971 C2973 1.415 . S
C2972 C2971 1.355 . S
C2972 C2974 1.419 . S
C2973 C2968 1.425 . S
C2973 C2970 1.409 . S
C2973 C2971 1.415 . S
C2974 H2964 0.930 . S
C2974 C2972 1.419 . S
C2974 C2975 1.362 . S
C2975 H2965 0.930 . S
C2975 C2968 1.409 . S
C2975 C2974 1.362 . S
H2976 C2982 0.930 . S
H2977 C2985 0.930 . S
H2978 C2986 0.930 . S
H2979 C2987 0.930 . S
H2980 C2990 0.930 . S
H2981 C2991 0.930 . S
C2982 H2976 0.930 . S
C2982 C2983 1.355 . S
C2982 C2984 1.415 . S
C2983 C2982 1.355 . S
C2983 C2985 1.419 . S
C2984 C2982 1.415 . S
C2984 C2989 1.425 . S
C2984 C2991 1.409 . S
C2985 H2977 0.930 . S
C2985 C2983 1.419 . S
C2985 C2986 1.362 . S
C2986 H2978 0.930 . S
C2986 C2985 1.362 . S
C2986 C2989 1.409 . S
C2987 H2979 0.930 . S
C2987 C2988 1.355 . S
C2987 C2989 1.415 . S
C2988 C2987 1.355 . S
C2988 C2990 1.419 . S
C2989 C2984 1.425 . S
C2989 C2986 1.409 . S
C2989 C2987 1.415 . S
C2990 H2980 0.930 . S
C2990 C2988 1.419 . S
C2990 C2991 1.362 . S
C2991 H2981 0.930 . S
C2991 C2984 1.409 . S
C2991 C2990 1.362 . S
H2992 C2998 0.930 . S
H2993 C3001 0.930 . S
H2994 C3002 0.895 1_565 S
H2995 C3003 0.930 . S
H2996 C3006 0.930 . S
H2997 C3007 0.930 . S
C2998 H2992 0.930 . S
C2998 C2999 1.355 . S
C2998 C3000 1.415 . S
C2999 C2998 1.355 . S
C2999 C3001 1.419 1_545 S
C3000 C2998 1.415 . S
C3000 C3005 1.425 . S
C3000 C3007 1.409 . S
C3001 H2993 0.930 . S
C3001 C2999 1.419 1_565 S
C3001 C3002 1.370 1_565 S
C3002 H2994 0.895 1_545 S
C3002 C3001 1.370 1_545 S
C3002 C3005 1.437 . S
C3003 H2995 0.930 . S
C3003 C3004 1.355 . S
C3003 C3005 1.415 . S
C3004 C3003 1.355 . S
C3004 C3006 1.419 . S
C3005 C3000 1.425 . S
C3005 C3002 1.437 . S
C3005 C3003 1.415 . S
C3006 H2996 0.930 . S
C3006 C3004 1.419 . S
C3006 C3007 1.362 . S
C3007 H2997 0.930 . S
C3007 C3000 1.409 . S
C3007 C3006 1.362 . S
H3008 C3014 0.930 . S
H3009 C3017 0.930 . S
H3010 C3018 0.930 . S
H3011 C3019 0.930 1_455 S
H3012 C3022 0.930 . S
H3013 C3023 0.930 . S
C3014 H3008 0.930 . S
C3014 C3015 1.355 . S
C3014 C3016 1.415 . S
C3015 C3014 1.355 . S
C3015 C3017 1.419 . S
C3016 C3014 1.415 . S
C3016 C3021 1.425 . S
C3016 C3023 1.409 . S
C3017 H3009 0.930 . S
C3017 C3015 1.419 . S
C3017 C3018 1.362 . S
C3018 H3010 0.930 . S
C3018 C3017 1.362 . S
C3018 C3021 1.409 . S
C3019 H3011 0.930 1_655 S
C3019 C3020 1.355 . S
C3019 C3021 1.415 . S
C3020 C3019 1.355 . S
C3020 C3022 1.419 . S
C3021 C3016 1.425 . S
C3021 C3018 1.409 . S
C3021 C3019 1.415 . S
C3022 H3012 0.930 . S
C3022 C3020 1.419 . S
C3022 C3023 1.362 . S
C3023 H3013 0.930 . S
C3023 C3016 1.409 . S
C3023 C3022 1.362 . S
H3024 C3030 0.930 . S
H3025 C3033 0.930 . S
H3026 C3034 0.930 . S
H3027 C3035 0.930 . S
H3028 C3038 0.930 . S
H3029 C3039 0.930 . S
C3030 H3024 0.930 . S
C3030 C3031 1.355 . S
C3030 C3032 1.415 . S
C3031 C3030 1.355 . S
C3031 C3033 1.419 . S
C3032 C3030 1.415 . S
C3032 C3037 1.425 . S
C3032 C3039 1.409 . S
C3033 H3025 0.930 . S
C3033 C3031 1.419 . S
C3033 C3034 1.362 . S
C3034 H3026 0.930 . S
C3034 C3033 1.362 . S
C3034 C3037 1.409 . S
C3035 H3027 0.930 . S
C3035 C3036 1.355 . S
C3035 C3037 1.415 . S
C3036 C3035 1.355 . S
C3036 C3038 1.419 . S
C3037 C3032 1.425 . S
C3037 C3034 1.409 . S
C3037 C3035 1.415 . S
C3038 H3028 0.930 . S
C3038 C3036 1.419 . S
C3038 C3039 1.362 . S
C3039 H3029 0.930 . S
C3039 C3032 1.409 . S
C3039 C3038 1.362 . S
H3040 C3046 0.930 . S
H3041 C3049 0.930 . S
H3042 C3050 0.930 1_545 S
H3043 C3051 0.930 1_545 S
H3044 C3054 0.930 . S
H3045 C3055 0.930 . S
C3046 H3040 0.930 . S
C3046 C3047 1.355 . S
C3046 C3048 1.415 . S
C3047 C3046 1.355 . S
C3047 C3049 1.419 . S
C3048 C3046 1.415 . S
C3048 C3053 1.425 . S
C3048 C3055 1.409 . S
C3049 H3041 0.930 . S
C3049 C3047 1.419 . S
C3049 C3050 1.362 . S
C3050 H3042 0.930 1_565 S
C3050 C3049 1.362 . S
C3050 C3053 1.409 . S
C3051 H3043 0.930 1_565 S
C3051 C3052 1.355 . S
C3051 C3053 1.415 . S
C3052 C3051 1.355 . S
C3052 C3054 1.419 . S
C3053 C3048 1.425 . S
C3053 C3050 1.409 . S
C3053 C3051 1.415 . S
C3054 H3044 0.930 . S
C3054 C3052 1.419 . S
C3054 C3055 1.362 . S
C3055 H3045 0.930 . S
C3055 C3048 1.409 . S
C3055 C3054 1.362 . S
H3056 C3062 0.930 . S
H3057 C3065 0.930 . S
H3058 C3066 0.930 . S
H3059 C3067 0.930 . S
H3060 C3070 0.930 . S
H3061 C3071 0.930 . S
C3062 H3056 0.930 . S
C3062 C3063 1.355 . S
C3062 C3064 1.415 . S
C3063 C3062 1.355 . S
C3063 C3065 1.419 . S
C3064 C3062 1.415 . S
C3064 C3069 1.425 . S
C3064 C3071 1.409 . S
C3065 H3057 0.930 . S
C3065 C3063 1.419 . S
C3065 C3066 1.362 . S
C3066 H3058 0.930 . S
C3066 C3065 1.362 . S
C3066 C3069 1.409 . S
C3067 H3059 0.930 . S
C3067 C3068 1.355 . S
C3067 C3069 1.415 . S
C3068 C3067 1.355 . S
C3068 C3070 1.419 . S
C3069 C3064 1.425 . S
C3069 C3066 1.409 . S
C3069 C3067 1.415 . S
C3070 H3060 0.930 . S
C3070 C3068 1.419 . S
C3070 C3071 1.362 . S
C3071 H3061 0.930 . S
C3071 C3064 1.409 . S
C3071 C3070 1.362 . S
H3072 C3078 0.930 . S
H3073 C3081 0.930 . S
H3074 C3082 0.930 . S
H3075 C3083 0.930 . S
H3076 C3086 0.930 . S
H3077 C3087 0.930 . S
C3078 H3072 0.930 . S
C3078 C3079 1.355 . S
C3078 C3080 1.415 . S
C3079 C3078 1.355 . S
C3079 C3081 1.419 . S
C3080 C3078 1.415 . S
C3080 C3085 1.425 1_655 S
C3080 C3087 1.409 1_655 S
C3081 H3073 0.930 . S
C3081 C3079 1.419 . S
C3081 C3082 1.362 . S
C3082 H3074 0.930 . S
C3082 C3081 1.362 . S
C3082 C3085 1.409 1_655 S
C3083 H3075 0.930 . S
C3083 C3084 1.355 . S
C3083 C3085 1.415 . S
C3084 C3083 1.355 . S
C3084 C3086 1.419 . S
C3085 C3080 1.425 1_455 S
C3085 C3082 1.409 1_455 S
C3085 C3083 1.415 . S
C3086 H3076 0.930 . S
C3086 C3084 1.419 . S
C3086 C3087 1.362 . S
C3087 H3077 0.930 . S
C3087 C3080 1.409 1_455 S
C3087 C3086 1.362 . S
H3088 C3094 0.930 . S
H3089 C3097 0.930 . S
H3090 C3098 0.930 . S
H3091 C3099 0.930 . S
H3092 C3102 0.930 . S
H3093 C3103 0.930 . S
C3094 H3088 0.930 . S
C3094 C3095 1.355 . S
C3094 C3096 1.415 . S
C3095 C3094 1.355 . S
C3095 C3097 1.419 . S
C3096 C3094 1.415 . S
C3096 C3101 1.425 . S
C3096 C3103 1.409 . S
C3097 H3089 0.930 . S
C3097 C3095 1.419 . S
C3097 C3098 1.362 . S
C3098 H3090 0.930 . S
C3098 C3097 1.362 . S
C3098 C3101 1.409 . S
C3099 H3091 0.930 . S
C3099 C3100 1.355 . S
C3099 C3101 1.415 . S
C3100 C3099 1.355 . S
C3100 C3102 1.419 . S
C3101 C3096 1.425 . S
C3101 C3098 1.409 . S
C3101 C3099 1.415 . S
C3102 H3092 0.930 . S
C3102 C3100 1.419 . S
C3102 C3103 1.362 . S
C3103 H3093 0.930 . S
C3103 C3096 1.409 . S
C3103 C3102 1.362 . S
H3104 C3110 0.930 . S
H3105 C3113 0.930 . S
H3106 C3114 0.930 . S
H3107 C3115 0.930 . S
H3108 C3118 0.930 . S
H3109 C3119 0.930 . S
C3110 H3104 0.930 . S
C3110 C3111 1.355 . S
C3110 C3112 1.415 . S
C3111 C3110 1.355 . S
C3111 C3113 1.419 . S
C3112 C3110 1.415 . S
C3112 C3117 1.425 1_545 S
C3112 C3119 1.409 1_545 S
C3113 H3105 0.930 . S
C3113 C3111 1.419 . S
C3113 C3114 1.362 . S
C3114 H3106 0.930 . S
C3114 C3113 1.362 . S
C3114 C3117 1.409 1_545 S
C3115 H3107 0.930 . S
C3115 C3116 1.355 . S
C3115 C3117 1.415 . S
C3116 C3115 1.355 . S
C3116 C3118 1.419 . S
C3117 C3112 1.425 1_565 S
C3117 C3114 1.409 1_565 S
C3117 C3115 1.415 . S
C3118 H3108 0.930 . S
C3118 C3116 1.419 . S
C3118 C3119 1.362 . S
C3119 H3109 0.930 . S
C3119 C3112 1.409 1_565 S
C3119 C3118 1.362 . S
H3120 C3126 0.930 . S
H3121 C3129 0.930 . S
H3122 C3130 0.930 . S
H3123 C3131 0.930 . S
H3124 C3134 0.930 . S
H3125 C3135 0.930 . S
C3126 H3120 0.930 . S
C3126 C3127 1.355 . S
C3126 C3128 1.415 . S
C3127 C3126 1.355 . S
C3127 C3129 1.419 . S
C3128 C3126 1.415 . S
C3128 C3133 1.425 1_545 S
C3128 C3135 1.409 1_545 S
C3129 H3121 0.930 . S
C3129 C3127 1.419 . S
C3129 C3130 1.362 . S
C3130 H3122 0.930 . S
C3130 C3129 1.362 . S
C3130 C3133 1.409 1_545 S
C3131 H3123 0.930 . S
C3131 C3132 1.355 . S
C3131 C3133 1.415 . S
C3132 C3131 1.355 . S
C3132 C3134 1.419 . S
C3133 C3128 1.425 1_565 S
C3133 C3130 1.409 1_565 S
C3133 C3131 1.415 . S
C3134 H3124 0.930 . S
C3134 C3132 1.419 . S
C3134 C3135 1.362 . S
C3135 H3125 0.930 . S
C3135 C3128 1.409 1_565 S
C3135 C3134 1.362 . S
H3136 C3142 0.930 . S
H3137 C3145 0.930 . S
H3138 C3146 0.930 . S
H3139 C3147 0.930 . S
H3140 C3150 0.930 . S
H3141 C3151 0.930 . S
C3142 H3136 0.930 . S
C3142 C3143 1.355 . S
C3142 C3144 1.415 . S
C3143 C3142 1.355 . S
C3143 C3145 1.419 . S
C3144 C3142 1.415 . S
C3144 C3149 1.425 1_655 S
C3144 C3151 1.409 1_655 S
C3145 H3137 0.930 . S
C3145 C3143 1.419 . S
C3145 C3146 1.362 . S
C3146 H3138 0.930 . S
C3146 C3145 1.362 . S
C3146 C3149 1.409 1_655 S
C3147 H3139 0.930 . S
C3147 C3148 1.355 . S
C3147 C3149 1.415 . S
C3148 C3147 1.355 . S
C3148 C3150 1.419 . S
C3149 C3144 1.425 1_455 S
C3149 C3146 1.409 1_455 S
C3149 C3147 1.415 . S
C3150 H3140 0.930 . S
C3150 C3148 1.419 . S
C3150 C3151 1.362 . S
C3151 H3141 0.930 . S
C3151 C3144 1.409 1_455 S
C3151 C3150 1.362 . S
H3152 C3158 0.930 . S
H3153 C3161 0.930 . S
H3154 C3162 0.930 . S
H3155 C3163 0.930 . S
H3156 C3166 0.930 . S
H3157 C3167 0.930 . S
C3158 H3152 0.930 . S
C3158 C3159 1.355 . S
C3158 C3160 1.415 . S
C3159 C3158 1.355 . S
C3159 C3161 1.419 . S
C3160 C3158 1.415 . S
C3160 C3165 1.425 . S
C3160 C3167 1.409 . S
C3161 H3153 0.930 . S
C3161 C3159 1.419 . S
C3161 C3162 1.362 . S
C3162 H3154 0.930 . S
C3162 C3161 1.362 . S
C3162 C3165 1.409 . S
C3163 H3155 0.930 . S
C3163 C3164 1.355 . S
C3163 C3165 1.415 . S
C3164 C3163 1.355 . S
C3164 C3166 1.419 . S
C3165 C3160 1.425 . S
C3165 C3162 1.409 . S
C3165 C3163 1.415 . S
C3166 H3156 0.930 . S
C3166 C3164 1.419 . S
C3166 C3167 1.362 . S
C3167 H3157 0.930 . S
C3167 C3160 1.409 . S
C3167 C3166 1.362 . S
C1447 C7 1.949 . S
C1452 C282 1.976 . S
C1463 C322 1.948 . S
C1468 C47 1.934 . S
C1479 C242 1.965 . S
C1484 C87 1.936 . S
C1495 C442 1.969 . S
C1500 C127 1.970 . S
C1511 C167 1.958 . S
C1516 C362 1.954 . S
C1527 C207 1.962 . S
C1532 C402 1.957 . S
C1543 C51 1.973 . S
C1548 C256 1.944 . S
C1559 C296 1.931 . S
C1564 C91 1.957 . S
C1575 C11 1.948 . S
C1580 C336 1.936 . S
C1591 C211 1.977 . S
C1596 C376 1.968 . S
C1607 C416 1.966 . S
C1612 C131 1.979 . S
C1623 C456 1.961 . S
C1628 C171 1.979 . S
C1639 C487 1.968 . S
C1644 C762 1.977 . S
C1655 C802 1.965 . S
C1660 C527 1.969 . S
C1671 C722 1.966 . S
C1676 C567 1.936 . S
C1687 C607 1.931 . S
C1692 C922 1.955 . S
C1703 C842 1.948 . S
C1708 C647 1.946 . S
C1719 C687 1.939 . S
C1724 C882 1.969 . S
C1735 C736 1.933 . S
C1740 C531 1.961 . S
C1751 C571 1.949 . S
C1756 C776 1.950 . S
C1767 C816 1.933 . S
C1772 C491 1.961 . S
C1783 C691 1.969 . S
C1788 C856 1.939 . S
C1799 C611 1.955 . S
C1804 C896 1.931 . S
C1815 C936 1.956 . S
C1820 C651 1.952 . S
C1831 C967 1.940 . S
C1836 C1242 1.970 . S
C1847 C1007 1.970 . S
C1852 C1282 1.970 . S
C1863 C1202 1.966 . S
C1868 C1047 1.936 . S
C1879 C1402 1.966 . S
C1884 C1087 1.936 . S
C1895 C1127 1.934 . S
C1900 C1322 1.963 . S
C1911 C1362 1.968 . S
C1916 C1167 1.938 . S
C1927 C1011 1.959 . S
C1932 C1216 1.964 . S
C1943 C1256 1.958 . S
C1948 C1051 1.954 . S
C1959 C971 1.948 . S
C1964 C1296 1.935 . S
C1975 C1336 1.969 . S
C1980 C1171 1.966 . S
C1991 C1376 1.953 . S
C1996 C1091 1.951 . S
C2007 C1416 1.931 . S
C2012 C1131 1.954 . S
C2023 C2 2.285 . S
C2028 C731 2.285 . S
C2039 C42 2.266 . S
C2044 C771 2.266 . S
C2055 C811 2.295 . S
C2060 C82 2.295 . S
C2071 C1331 2.305 . S
C2076 C122 2.305 . S
C2087 C1371 2.264 . S
C2092 C162 2.264 . S
C2103 C1411 2.285 . S
C2108 C202 2.285 . S
C2119 C251 2.262 . S
C2124 C962 2.262 . S
C2135 C1002 2.269 . S
C2140 C291 2.269 . S
C2151 C331 2.263 . S
C2156 C1042 2.263 . S
C2167 C371 2.265 . S
C2172 C602 2.265 . S
C2183 C411 2.309 . S
C2188 C642 2.309 . S
C2199 C451 2.303 . S
C2204 C682 2.303 . S
C2215 C482 2.286 . S
C2220 C1211 2.286 . S
C2231 C1251 2.262 . S
C2236 C522 2.262 . S
C2247 C562 2.264 . S
C2252 C1291 2.264 . S
C2263 C1082 2.264 . S
C2268 C851 2.264 . S
C2279 C891 2.283 . S
C2284 C1122 2.283 . S
C2295 C1162 2.267 . S
C2300 C931 2.267 . S
C2311 C19 2.205 1_556 S
C2316 C659 2.244 . S
C2327 C59 2.245 1_556 S
C2332 C699 2.233 . S
C2343 C619 2.172 . S
C2348 C99 2.207 1_556 S
C2359 C139 2.171 . S
C2364 C1059 2.197 . S
C2375 C979 2.178 . S
C2380 C179 2.221 . S
C2391 C219 2.212 . S
C2396 C1019 2.174 . S
C2407 C1370 2.228 . S
C2412 C250 2.183 1_554 S
C2423 C290 2.173 1_554 S
C2428 C1410 2.209 . S
C2439 C1330 2.182 . S
C2444 C330 2.226 1_554 S
C2455 C370 2.245 . S
C2460 C810 2.232 . S
C2471 C410 2.210 . S
C2476 C730 2.246 . S
C2487 C450 2.237 . S
C2492 C770 2.242 . S
C2503 C1139 2.185 . S
C2508 C499 2.175 . S
C2519 C539 2.223 . S
C2524 C1179 2.247 . S
C2535 C579 2.175 . S
C2540 C1099 2.184 . S
C2551 C1290 2.239 . S
C2556 C850 2.240 . S
C2567 C1210 2.246 . S
C2572 C890 2.231 . S
C2583 C1250 2.225 . S
C2588 C930 2.247 . S
C2599 C130 2.765 . S
C2604 C10 2.767 . S
C2615 C50 2.749 . S
C2620 C170 2.757 . S
C2631 C90 2.763 . S
C2636 C210 2.766 . S
C2647 C379 2.744 . S
C2652 C259 2.752 . S
C2663 C299 2.730 . S
C2668 C419 2.737 . S
C2679 C459 2.753 . S
C2684 C339 2.760 . S
C2695 C610 2.729 . S
C2700 C490 2.735 . S
C2711 C530 2.728 . S
C2716 C650 2.725 . S
C2727 C570 2.747 . S
C2732 C690 2.754 . S
C2743 C739 2.725 . S
C2748 C859 2.728 1_554 S
C2759 C779 2.736 . S
C2764 C899 2.730 1_554 S
C2775 C819 2.729 . S
C2780 C939 2.725 1_554 S
C2791 C970 2.766 . S
C2796 C1090 2.766 1_556 S
C2807 C1130 2.732 1_556 S
C2812 C1010 2.739 . S
C2823 C1170 2.758 1_556 S
C2828 C1050 2.751 . S
C2839 C1219 2.744 . S
C2844 C1339 2.752 . S
C2855 C1379 2.761 . S
C2860 C1259 2.765 . S
C2871 C1299 2.735 . S
C2876 C1419 2.743 . S
C2887 C16 0.322 . S
C2892 C1176 0.431 . S
C2903 C1096 0.433 . S
C2908 C56 0.290 . S
C2919 C96 0.433 . S
C2924 C1136 0.287 . S
C2935 C536 0.202 . S
C2940 C136 0.406 . S
C2951 C176 0.427 . S
C2956 C576 0.342 . S
C2967 C216 0.406 . S
C2972 C496 0.382 . S
C2983 C927 0.431 . S
C2988 C247 0.266 . S
C2999 C287 0.259 . S
C3004 C847 0.430 . S
C3015 C887 0.332 . S
C3020 C327 0.429 . S
C3031 C367 0.208 . S
C3036 C1247 0.410 . S
C3047 C1287 0.277 . S
C3052 C407 0.433 . S
C3063 C1207 0.401 . S
C3068 C447 0.388 . S
C3079 C616 0.393 . S
C3084 C1016 0.190 . S
C3095 C656 0.229 . S
C3100 C1056 0.421 . S
C3111 C696 0.182 . S
C3116 C976 0.379 . S
C3127 C727 0.270 . S
C3132 C1407 0.432 . S
C3143 C767 0.182 . S
C3148 C1327 0.351 . S
C3159 C1367 0.324 . S
C3164 C807 0.195 . S
