# Generated by pormake.
# Topology uks, (4)-cn, num edge types: 1
# Building blocks:
#     Node 0, Type 0, BuildingBlock: MUDLON_clean_sbu_0, # of connection points: 4
#     Node 1, Type 0, BuildingBlock: MUDLON_clean_sbu_0, # of connection points: 4
#     Node 2, Type 0, BuildingBlock: MUDLON_clean_sbu_0, # of connection points: 4
#     Node 3, Type 0, BuildingBlock: MUDLON_clean_sbu_0, # of connection points: 4
#     Node 4, Type 0, BuildingBlock: MUDLON_clean_sbu_0, # of connection points: 4
#     Node 5, Type 0, BuildingBlock: MUDLON_clean_sbu_0, # of connection points: 4
#     Node 6, Type 0, BuildingBlock: MUDLON_clean_sbu_0, # of connection points: 4
#     Node 7, Type 0, BuildingBlock: MUDLON_clean_sbu_0, # of connection points: 4
#     Node 8, Type 0, BuildingBlock: MUDLON_clean_sbu_0, # of connection points: 4
#     Node 9, Type 0, BuildingBlock: MUDLON_clean_sbu_0, # of connection points: 4
#     Node 10, Type 0, BuildingBlock: MUDLON_clean_sbu_0, # of connection points: 4
#     Node 11, Type 0, BuildingBlock: MUDLON_clean_sbu_0, # of connection points: 4
#     Node 12, Type 0, BuildingBlock: MUDLON_clean_sbu_0, # of connection points: 4
#     Node 13, Type 0, BuildingBlock: MUDLON_clean_sbu_0, # of connection points: 4
#     Node 14, Type 0, BuildingBlock: MUDLON_clean_sbu_0, # of connection points: 4
#     Node 15, Type 0, BuildingBlock: MUDLON_clean_sbu_0, # of connection points: 4
#     Node 16, Type 0, BuildingBlock: MUDLON_clean_sbu_0, # of connection points: 4
#     Node 17, Type 0, BuildingBlock: MUDLON_clean_sbu_0, # of connection points: 4
#     Node 18, Type 0, BuildingBlock: MUDLON_clean_sbu_0, # of connection points: 4
#     Node 19, Type 0, BuildingBlock: MUDLON_clean_sbu_0, # of connection points: 4
#     Node 20, Type 0, BuildingBlock: MUDLON_clean_sbu_0, # of connection points: 4
#     Node 21, Type 0, BuildingBlock: MUDLON_clean_sbu_0, # of connection points: 4
#     Node 22, Type 0, BuildingBlock: MUDLON_clean_sbu_0, # of connection points: 4
#     Node 23, Type 0, BuildingBlock: MUDLON_clean_sbu_0, # of connection points: 4
#     Edge 24, Type (0, 0), BuildingBlock: FUNLAD_clean_linker_0, # of connection points: 2
#     Edge 25, Type (0, 0), BuildingBlock: FUNLAD_clean_linker_0, # of connection points: 2
#     Edge 26, Type (0, 0), BuildingBlock: FUNLAD_clean_linker_0, # of connection points: 2
#     Edge 27, Type (0, 0), BuildingBlock: FUNLAD_clean_linker_0, # of connection points: 2
#     Edge 28, Type (0, 0), BuildingBlock: FUNLAD_clean_linker_0, # of connection points: 2
#     Edge 29, Type (0, 0), BuildingBlock: FUNLAD_clean_linker_0, # of connection points: 2
#     Edge 30, Type (0, 0), BuildingBlock: FUNLAD_clean_linker_0, # of connection points: 2
#     Edge 31, Type (0, 0), BuildingBlock: FUNLAD_clean_linker_0, # of connection points: 2
#     Edge 32, Type (0, 0), BuildingBlock: FUNLAD_clean_linker_0, # of connection points: 2
#     Edge 33, Type (0, 0), BuildingBlock: FUNLAD_clean_linker_0, # of connection points: 2
#     Edge 34, Type (0, 0), BuildingBlock: FUNLAD_clean_linker_0, # of connection points: 2
#     Edge 35, Type (0, 0), BuildingBlock: FUNLAD_clean_linker_0, # of connection points: 2
#     Edge 36, Type (0, 0), BuildingBlock: FUNLAD_clean_linker_0, # of connection points: 2
#     Edge 37, Type (0, 0), BuildingBlock: FUNLAD_clean_linker_0, # of connection points: 2
#     Edge 38, Type (0, 0), BuildingBlock: FUNLAD_clean_linker_0, # of connection points: 2
#     Edge 39, Type (0, 0), BuildingBlock: FUNLAD_clean_linker_0, # of connection points: 2
#     Edge 40, Type (0, 0), BuildingBlock: FUNLAD_clean_linker_0, # of connection points: 2
#     Edge 41, Type (0, 0), BuildingBlock: FUNLAD_clean_linker_0, # of connection points: 2
#     Edge 42, Type (0, 0), BuildingBlock: FUNLAD_clean_linker_0, # of connection points: 2
#     Edge 43, Type (0, 0), BuildingBlock: FUNLAD_clean_linker_0, # of connection points: 2
#     Edge 44, Type (0, 0), BuildingBlock: FUNLAD_clean_linker_0, # of connection points: 2
#     Edge 45, Type (0, 0), BuildingBlock: FUNLAD_clean_linker_0, # of connection points: 2
#     Edge 46, Type (0, 0), BuildingBlock: FUNLAD_clean_linker_0, # of connection points: 2
#     Edge 47, Type (0, 0), BuildingBlock: FUNLAD_clean_linker_0, # of connection points: 2
#     Edge 48, Type (0, 0), BuildingBlock: FUNLAD_clean_linker_0, # of connection points: 2
#     Edge 49, Type (0, 0), BuildingBlock: FUNLAD_clean_linker_0, # of connection points: 2
#     Edge 50, Type (0, 0), BuildingBlock: FUNLAD_clean_linker_0, # of connection points: 2
#     Edge 51, Type (0, 0), BuildingBlock: FUNLAD_clean_linker_0, # of connection points: 2
#     Edge 52, Type (0, 0), BuildingBlock: FUNLAD_clean_linker_0, # of connection points: 2
#     Edge 53, Type (0, 0), BuildingBlock: FUNLAD_clean_linker_0, # of connection points: 2
#     Edge 54, Type (0, 0), BuildingBlock: FUNLAD_clean_linker_0, # of connection points: 2
#     Edge 55, Type (0, 0), BuildingBlock: FUNLAD_clean_linker_0, # of connection points: 2
#     Edge 56, Type (0, 0), BuildingBlock: FUNLAD_clean_linker_0, # of connection points: 2
#     Edge 57, Type (0, 0), BuildingBlock: FUNLAD_clean_linker_0, # of connection points: 2
#     Edge 58, Type (0, 0), BuildingBlock: FUNLAD_clean_linker_0, # of connection points: 2
#     Edge 59, Type (0, 0), BuildingBlock: FUNLAD_clean_linker_0, # of connection points: 2
#     Edge 60, Type (0, 0), BuildingBlock: FUNLAD_clean_linker_0, # of connection points: 2
#     Edge 61, Type (0, 0), BuildingBlock: FUNLAD_clean_linker_0, # of connection points: 2
#     Edge 62, Type (0, 0), BuildingBlock: FUNLAD_clean_linker_0, # of connection points: 2
#     Edge 63, Type (0, 0), BuildingBlock: FUNLAD_clean_linker_0, # of connection points: 2
#     Edge 64, Type (0, 0), BuildingBlock: FUNLAD_clean_linker_0, # of connection points: 2
#     Edge 65, Type (0, 0), BuildingBlock: FUNLAD_clean_linker_0, # of connection points: 2
#     Edge 66, Type (0, 0), BuildingBlock: FUNLAD_clean_linker_0, # of connection points: 2
#     Edge 67, Type (0, 0), BuildingBlock: FUNLAD_clean_linker_0, # of connection points: 2
#     Edge 68, Type (0, 0), BuildingBlock: FUNLAD_clean_linker_0, # of connection points: 2
#     Edge 69, Type (0, 0), BuildingBlock: FUNLAD_clean_linker_0, # of connection points: 2
#     Edge 70, Type (0, 0), BuildingBlock: FUNLAD_clean_linker_0, # of connection points: 2
#     Edge 71, Type (0, 0), BuildingBlock: FUNLAD_clean_linker_0, # of connection points: 2
# Relax obj value: 0.065
# Max RMSD: 0.060
# Mean RMSD: 0.060
data_MOF--net-uks--node1-MUDLON_clean_sbu_0--edge1-FUNLAD_clean_linker_0
_symmetry_space_group_name_H-M    P1
_symmetry_Int_Tables_number       1
_symmetry_cell_setting            triclinic
loop_
_symmetry_equiv_pos_as_xyz
'x, y, z'
_cell_length_a     64.283287
_cell_length_b     64.544393
_cell_length_c     64.263104
_cell_angle_alpha  90.39416
_cell_angle_beta   89.778447
_cell_angle_gamma 90.529872
loop_
_atom_site_label
_atom_site_type_symbol
_atom_site_fract_x
_atom_site_fract_y
_atom_site_fract_z
_atom_type_partial_charge
Mg0 Mg 0.15452 0.3905 0.70138 0.0
C1 C 0.19121 0.371 0.67379 0.0
O2 O 0.19644 0.36179 0.65626 0.0
C3 C 0.11203 0.37461 0.68673 0.0
O4 O 0.12247 0.35724 0.68546 0.0
C5 C 0.15988 0.43316 0.68647 0.0
O6 O 0.14785 0.42405 0.6726 0.0
O7 O 0.16556 0.42275 0.70219 0.0
O8 O 0.17208 0.37566 0.67635 0.0
O9 O 0.15875 0.37113 0.72896 0.0
C10 C 0.14334 0.36556 0.74017 0.0
O11 O 0.12497 0.37342 0.73637 0.0
O12 O 0.12143 0.39092 0.693 0.0
Mg13 Mg 0.62517 0.62587 0.24334 0.0
C14 C 0.64242 0.66884 0.23398 0.0
O15 O 0.65694 0.6624 0.24666 0.0
C16 C 0.63919 0.59579 0.20766 0.0
O17 O 0.64902 0.61206 0.20014 0.0
C18 C 0.57908 0.61799 0.24246 0.0
O19 O 0.5853 0.6065 0.22672 0.0
O20 O 0.59276 0.62694 0.25376 0.0
O21 O 0.62845 0.65601 0.22799 0.0
O22 O 0.64842 0.62575 0.26824 0.0
C23 C 0.66407 0.61386 0.26669 0.0
O24 O 0.66465 0.60035 0.25133 0.0
O25 O 0.62864 0.5977 0.22433 0.0
Mg26 Mg 0.39821 0.14856 0.71141 0.0
C27 C 0.38563 0.16935 0.75296 0.0
O28 O 0.36956 0.15667 0.75174 0.0
C29 C 0.40541 0.10453 0.69969 0.0
O30 O 0.40773 0.11424 0.68191 0.0
C31 C 0.44066 0.15354 0.69266 0.0
O32 O 0.4436 0.13906 0.70658 0.0
O33 O 0.42235 0.16053 0.69028 0.0
O34 O 0.39999 0.16808 0.73932 0.0
O35 O 0.3662 0.14959 0.70027 0.0
C36 C 0.35363 0.16419 0.70438 0.0
O37 O 0.36086 0.18137 0.71285 0.0
O38 O 0.40236 0.11527 0.71612 0.0
Mg39 Mg 0.87698 0.89032 0.21799 0.0
C40 C 0.84396 0.90313 0.24944 0.0
O41 O 0.84127 0.91776 0.23563 0.0
C42 C 0.92222 0.88199 0.2282 0.0
O43 O 0.9138 0.86468 0.23501 0.0
C44 C 0.87523 0.92961 0.19265 0.0
O45 O 0.89457 0.93029 0.19913 0.0
O46 O 0.86403 0.91388 0.19723 0.0
O47 O 0.859 0.89063 0.24699 0.0
O48 O 0.87485 0.85803 0.20741 0.0
C49 C 0.85991 0.84663 0.2138 0.0
O50 O 0.84443 0.85537 0.22385 0.0
O51 O 0.91037 0.89612 0.22147 0.0
Mg52 Mg 0.15342 0.14694 0.80983 0.0
C53 C 0.14696 0.19298 0.81917 0.0
O54 O 0.12778 0.18653 0.82234 0.0
C55 C 0.15604 0.10724 0.83316 0.0
O56 O 0.13783 0.10595 0.82403 0.0
C57 C 0.10523 0.14977 0.80064 0.0
O58 O 0.11013 0.16047 0.78398 0.0
O59 O 0.11963 0.14284 0.81213 0.0
O60 O 0.16109 0.17959 0.81605 0.0
O61 O 0.16766 0.1431 0.77914 0.0
C62 C 0.18296 0.13088 0.77692 0.0
O63 O 0.18725 0.11805 0.79205 0.0
O64 O 0.16691 0.12368 0.83071 0.0
Mg65 Mg 0.8883 0.63135 0.29894 0.0
C66 C 0.88955 0.67411 0.28394 0.0
O67 O 0.89578 0.67494 0.30339 0.0
C68 C 0.90391 0.58703 0.29295 0.0
O69 O 0.91965 0.59445 0.30369 0.0
C70 C 0.9248 0.63227 0.33255 0.0
O71 O 0.91458 0.6182 0.34329 0.0
O72 O 0.91699 0.63921 0.31584 0.0
O73 O 0.88548 0.65637 0.27603 0.0
O74 O 0.85858 0.63044 0.31595 0.0
C75 C 0.84478 0.64423 0.31331 0.0
O76 O 0.84988 0.66121 0.30332 0.0
O77 O 0.88984 0.59942 0.28699 0.0
Mg78 Mg 0.37614 0.38431 0.82255 0.0
C79 C 0.33857 0.39393 0.79708 0.0
O80 O 0.33214 0.39829 0.81602 0.0
C81 C 0.42147 0.39341 0.83175 0.0
O82 O 0.4127 0.40235 0.84794 0.0
C83 C 0.36581 0.42675 0.8375 0.0
O84 O 0.3704 0.42944 0.81775 0.0
O85 O 0.3669 0.40852 0.84492 0.0
O86 O 0.35731 0.38812 0.79447 0.0
O87 O 0.37164 0.3519 0.83161 0.0
C88 C 0.3561 0.34129 0.82523 0.0
O89 O 0.34077 0.35085 0.81603 0.0
O90 O 0.40985 0.38581 0.81755 0.0
Mg91 Mg 0.62969 0.88962 0.30144 0.0
C92 C 0.61811 0.85214 0.27484 0.0
O93 O 0.60172 0.85282 0.28708 0.0
C94 C 0.62506 0.93565 0.30487 0.0
O95 O 0.61125 0.92914 0.31851 0.0
C96 C 0.5943 0.87399 0.33129 0.0
O97 O 0.60844 0.86154 0.33878 0.0
O98 O 0.59935 0.88659 0.31697 0.0
O99 O 0.63157 0.86672 0.27603 0.0
O100 O 0.65798 0.88533 0.31958 0.0
C101 C 0.67063 0.87108 0.31447 0.0
O102 O 0.66404 0.85605 0.30223 0.0
O103 O 0.63415 0.9223 0.29339 0.0
Mg104 Mg 0.73937 0.12937 0.3779 0.0
C105 C 0.78167 0.13318 0.35662 0.0
O106 O 0.78129 0.15176 0.36507 0.0
C107 C 0.72244 0.12568 0.42182 0.0
O108 O 0.70613 0.1197 0.41101 0.0
C109 C 0.72254 0.08857 0.3663 0.0
O110 O 0.74051 0.08493 0.3752 0.0
O111 O 0.71637 0.10725 0.36552 0.0
O112 O 0.7678 0.11998 0.36187 0.0
O113 O 0.73682 0.16132 0.36739 0.0
C114 C 0.73821 0.17593 0.38072 0.0
O115 O 0.73732 0.17136 0.40059 0.0
O116 O 0.73937 0.12961 0.41216 0.0
Mg117 Mg 0.89485 0.20949 0.87359 0.0
C118 C 0.89751 0.25186 0.85254 0.0
O119 O 0.8792 0.25456 0.86118 0.0
C120 C 0.89759 0.21802 0.92224 0.0
O121 O 0.89917 0.2378 0.91774 0.0
C122 C 0.92848 0.1782 0.86765 0.0
O123 O 0.93091 0.18302 0.88739 0.0
O124 O 0.91287 0.18539 0.85803 0.0
O125 O 0.90839 0.23644 0.85794 0.0
O126 O 0.86189 0.21073 0.8655 0.0
C127 C 0.85089 0.22166 0.87783 0.0
O128 O 0.85967 0.2293 0.89467 0.0
O129 O 0.8966 0.20474 0.90751 0.0
Mg130 Mg 0.83238 0.3816 0.36408 0.0
C131 C 0.82396 0.34213 0.33956 0.0
O132 O 0.81584 0.35536 0.32652 0.0
C133 C 0.85951 0.40622 0.33333 0.0
O134 O 0.84882 0.39538 0.3196 0.0
C135 C 0.84817 0.36916 0.40506 0.0
O136 O 0.86064 0.36045 0.39138 0.0
O137 O 0.83352 0.38047 0.3983 0.0
O138 O 0.83415 0.34904 0.35511 0.0
O139 O 0.80353 0.3911 0.34892 0.0
C140 C 0.80293 0.40764 0.33826 0.0
O141 O 0.81741 0.42184 0.34111 0.0
O142 O 0.85703 0.40233 0.3526 0.0
Mg143 Mg 0.63103 0.29805 0.87737 0.0
C144 C 0.61878 0.26891 0.84357 0.0
O145 O 0.61373 0.28702 0.83599 0.0
C146 C 0.6301 0.31748 0.91972 0.0
O147 O 0.62369 0.33258 0.9078 0.0
C148 C 0.58859 0.31175 0.86895 0.0
O149 O 0.58663 0.29363 0.87799 0.0
O150 O 0.60685 0.31919 0.86642 0.0
O151 O 0.62466 0.26798 0.86245 0.0
O152 O 0.66325 0.30178 0.86714 0.0
C153 C 0.67256 0.28504 0.87163 0.0
O154 O 0.66216 0.27065 0.88175 0.0
O155 O 0.63337 0.29981 0.91143 0.0
Mg156 Mg 0.68863 0.3757 0.14003 0.0
C157 C 0.72869 0.37447 0.16562 0.0
O158 O 0.72771 0.35455 0.16135 0.0
C159 C 0.69894 0.35977 0.0961 0.0
O160 O 0.71102 0.34733 0.1066 0.0
C161 C 0.67194 0.41736 0.14153 0.0
O162 O 0.68715 0.41772 0.12782 0.0
O163 O 0.66688 0.39997 0.14948 0.0
O164 O 0.71612 0.38666 0.15675 0.0
O165 O 0.68413 0.34387 0.15083 0.0
C166 C 0.6768 0.32967 0.13903 0.0
O167 O 0.6676 0.33496 0.12166 0.0
O168 O 0.68937 0.37407 0.10587 0.0
Mg169 Mg 0.65683 0.21171 0.63178 0.0
C170 C 0.69563 0.23586 0.63227 0.0
O171 O 0.70105 0.21659 0.62855 0.0
C172 C 0.61344 0.19969 0.62162 0.0
O173 O 0.62449 0.18415 0.61449 0.0
C174 C 0.67148 0.17508 0.60242 0.0
O175 O 0.66682 0.16269 0.61793 0.0
O176 O 0.66882 0.1945 0.60459 0.0
O177 O 0.67631 0.23982 0.63398 0.0
O178 O 0.65745 0.19691 0.66242 0.0
C179 C 0.66854 0.20409 0.67726 0.0
O180 O 0.68296 0.21798 0.67308 0.0
O181 O 0.62307 0.21561 0.6286 0.0
Mg182 Mg 0.8218 0.14727 0.13588 0.0
C183 C 0.79379 0.18134 0.14824 0.0
O184 O 0.81141 0.18547 0.15774 0.0
C185 C 0.83266 0.10319 0.12534 0.0
O186 O 0.84738 0.11344 0.11545 0.0
C187 C 0.83712 0.17606 0.1014 0.0
O188 O 0.8227 0.18769 0.1099 0.0
O189 O 0.84092 0.15854 0.10952 0.0
O190 O 0.7927 0.16515 0.13676 0.0
O191 O 0.8342 0.15228 0.16719 0.0
C192 C 0.84419 0.13905 0.1777 0.0
O193 O 0.85101 0.1222 0.16846 0.0
O194 O 0.81831 0.11343 0.13432 0.0
Mg195 Mg 0.89067 0.33984 0.63509 0.0
C196 C 0.84862 0.34405 0.65653 0.0
O197 O 0.85875 0.33514 0.67168 0.0
C198 C 0.92303 0.37572 0.64809 0.0
O199 O 0.90854 0.38434 0.65963 0.0
C200 C 0.90019 0.33862 0.58863 0.0
O201 O 0.91646 0.34924 0.59513 0.0
O202 O 0.8878 0.33086 0.60207 0.0
O203 O 0.85891 0.35076 0.64094 0.0
O204 O 0.89662 0.31588 0.65874 0.0
C205 C 0.90355 0.3237 0.67568 0.0
O206 O 0.90633 0.34383 0.67664 0.0
O207 O 0.91854 0.35984 0.63708 0.0
Mg208 Mg 0.38401 0.7152 0.16954 0.0
C209 C 0.34336 0.73352 0.15966 0.0
O210 O 0.35552 0.7389 0.14411 0.0
C211 C 0.41772 0.69218 0.18609 0.0
O212 O 0.42535 0.70685 0.17414 0.0
C213 C 0.39395 0.71856 0.12133 0.0
O214 O 0.39703 0.73851 0.12431 0.0
O215 O 0.38939 0.70708 0.13675 0.0
O216 O 0.35081 0.72195 0.17375 0.0
O217 O 0.4013 0.74079 0.18389 0.0
C218 C 0.39199 0.7542 0.19504 0.0
O219 O 0.37176 0.7561 0.19324 0.0
O220 O 0.398 0.69003 0.18719 0.0
Mg221 Mg 0.38357 0.81573 0.39905 0.0
C222 C 0.41598 0.78991 0.37715 0.0
O223 O 0.42847 0.8044 0.38449 0.0
C224 C 0.38038 0.83629 0.44015 0.0
O225 O 0.38043 0.85168 0.42687 0.0
C226 C 0.40804 0.84233 0.36828 0.0
O227 O 0.39788 0.83072 0.35477 0.0
O228 O 0.40309 0.84114 0.38744 0.0
O229 O 0.39759 0.78855 0.38446 0.0
O230 O 0.35083 0.81413 0.38984 0.0
C231 C 0.34499 0.80131 0.37582 0.0
O232 O 0.35919 0.79175 0.3647 0.0
O233 O 0.38258 0.81793 0.4331 0.0
Mg234 Mg 0.19227 0.88881 0.89472 0.0
C235 C 0.18896 0.89789 0.84841 0.0
O236 O 0.19117 0.91691 0.85549 0.0
C237 C 0.16694 0.86158 0.92443 0.0
O238 O 0.17737 0.84707 0.91463 0.0
C239 C 0.1848 0.9337 0.90543 0.0
O240 O 0.16847 0.92478 0.914 0.0
O241 O 0.19878 0.92224 0.89742 0.0
O242 O 0.18641 0.88324 0.86141 0.0
O243 O 0.21788 0.8679 0.90201 0.0
C244 C 0.21826 0.85125 0.89122 0.0
O245 O 0.20501 0.8491 0.87584 0.0
O246 O 0.16851 0.88019 0.91804 0.0
Mg247 Mg 0.13104 0.71817 0.40467 0.0
C248 C 0.1056 0.74346 0.3737 0.0
O249 O 0.09126 0.72938 0.37759 0.0
C250 C 0.13208 0.70793 0.45009 0.0
O251 O 0.12717 0.68997 0.4416 0.0
C252 C 0.10427 0.68579 0.38117 0.0
O253 O 0.1155 0.6919 0.36518 0.0
O254 O 0.10862 0.69293 0.39917 0.0
O255 O 0.12194 0.74405 0.38486 0.0
O256 O 0.1634 0.71388 0.39522 0.0
C257 C 0.16955 0.71997 0.3774 0.0
O258 O 0.1556 0.72484 0.36342 0.0
O259 O 0.13353 0.72374 0.43835 0.0
Mg260 Mg 0.32315 0.6439 0.91269 0.0
C261 C 0.33507 0.63883 0.86738 0.0
O262 O 0.33777 0.61965 0.87343 0.0
C263 C 0.36037 0.66138 0.93952 0.0
O264 O 0.36711 0.6702 0.92237 0.0
C265 C 0.32919 0.59783 0.91635 0.0
O266 O 0.34607 0.60496 0.92549 0.0
O267 O 0.31546 0.61072 0.91065 0.0
O268 O 0.33186 0.65277 0.88108 0.0
O269 O 0.29786 0.66573 0.9181 0.0
C270 C 0.30514 0.6841 0.91983 0.0
O271 O 0.3254 0.68672 0.91915 0.0
O272 O 0.34435 0.64967 0.93883 0.0
Mg273 Mg 0.12986 0.82761 0.15526 0.0
C274 C 0.12058 0.81283 0.19557 0.0
O275 O 0.12952 0.83119 0.19679 0.0
C276 C 0.1279 0.84261 0.11225 0.0
O277 O 0.13105 0.85906 0.12403 0.0
C278 C 0.0931 0.85464 0.15697 0.0
O279 O 0.08884 0.84155 0.1418 0.0
O280 O 0.11098 0.854 0.16541 0.0
O281 O 0.1181 0.80473 0.17755 0.0
O282 O 0.16334 0.82728 0.1619 0.0
C283 C 0.1766 0.82648 0.14715 0.0
O284 O 0.17023 0.82889 0.12795 0.0
O285 O 0.12605 0.82506 0.12115 0.0
Mg286 Mg 0.24195 0.65363 0.65114 0.0
C287 C 0.28883 0.66828 0.64062 0.0
O288 O 0.29628 0.64982 0.64446 0.0
C289 C 0.22333 0.61319 0.6569 0.0
O290 O 0.20969 0.62693 0.66323 0.0
C291 C 0.2217 0.67291 0.61455 0.0
O292 O 0.24149 0.6725 0.60946 0.0
O293 O 0.21626 0.66609 0.63239 0.0
O294 O 0.26932 0.6713 0.64136 0.0
O295 O 0.24356 0.65966 0.68471 0.0
C296 C 0.2598 0.65085 0.69158 0.0
O297 O 0.27052 0.6392 0.67868 0.0
O298 O 0.24045 0.61978 0.64925 0.0
Mg299 Mg 0.3297 0.88372 0.6657 0.0
C300 C 0.35287 0.84346 0.65854 0.0
O301 O 0.35679 0.85209 0.64048 0.0
C302 C 0.33719 0.92712 0.6807 0.0
O303 O 0.31682 0.92548 0.68107 0.0
C304 C 0.3364 0.89339 0.62009 0.0
O305 O 0.34831 0.9078 0.6285 0.0
O306 O 0.32525 0.88207 0.63194 0.0
O307 O 0.34415 0.8542 0.67274 0.0
O308 O 0.30154 0.88266 0.68511 0.0
C309 C 0.28369 0.89035 0.68185 0.0
O310 O 0.28022 0.90008 0.66433 0.0
O311 O 0.3477 0.91152 0.67471 0.0
C312 C 0.13493 0.22977 0.81686 0.0
C313 C 0.15109 0.21532 0.81511 0.0
C314 C 0.13759 0.25011 0.80984 0.0
C315 C 0.15662 0.25663 0.80094 0.0
C316 C 0.17305 0.2424 0.80005 0.0
C317 C 0.17038 0.22204 0.80711 0.0
C318 C 0.15935 0.27724 0.79068 0.0
C319 C 0.14657 0.29352 0.79372 0.0
C320 C 0.1472 0.31295 0.78115 0.0
C321 C 0.12926 0.32521 0.78063 0.0
C322 C 0.1283 0.34266 0.76789 0.0
C323 C 0.14537 0.34848 0.75544 0.0
H324 H 0.17905 0.31075 0.76977 0.0
C325 C 0.16373 0.33686 0.75669 0.0
C326 C 0.16466 0.31928 0.76939 0.0
H327 H 0.17724 0.34099 0.74742 0.0
H328 H 0.11983 0.22515 0.82286 0.0
H329 H 0.12429 0.26021 0.81052 0.0
H330 H 0.18787 0.24686 0.79326 0.0
H331 H 0.18317 0.21135 0.80544 0.0
H332 H 0.17192 0.27851 0.77944 0.0
H333 H 0.13414 0.29229 0.80511 0.0
H334 H 0.11562 0.32092 0.78963 0.0
H335 H 0.11394 0.35129 0.76745 0.0
C336 C 0.69989 0.60387 0.27789 0.0
C337 C 0.6828 0.61721 0.27983 0.0
C338 C 0.71869 0.60842 0.28789 0.0
C339 C 0.72089 0.62644 0.30022 0.0
C340 C 0.70353 0.63933 0.30278 0.0
C341 C 0.68468 0.63474 0.29281 0.0
C342 C 0.74146 0.63343 0.3086 0.0
C343 C 0.75793 0.62082 0.31105 0.0
C344 C 0.77962 0.62821 0.31536 0.0
C345 C 0.7947 0.61365 0.32099 0.0
C346 C 0.81583 0.61914 0.32184 0.0
C347 C 0.82241 0.63935 0.31691 0.0
H348 H 0.77529 0.66052 0.30696 0.0
C349 C 0.80723 0.65425 0.31253 0.0
C350 C 0.78613 0.64878 0.31169 0.0
H351 H 0.81171 0.66998 0.30866 0.0
H352 H 0.69903 0.59025 0.26798 0.0
H353 H 0.73168 0.59827 0.28498 0.0
H354 H 0.70474 0.65339 0.31204 0.0
H355 H 0.67187 0.64541 0.29459 0.0
H356 H 0.74307 0.64979 0.31233 0.0
H357 H 0.75574 0.60423 0.30913 0.0
H358 H 0.79024 0.59769 0.32389 0.0
H359 H 0.82707 0.60724 0.32525 0.0
C360 C 0.37571 0.30787 0.82857 0.0
C361 C 0.35711 0.3183 0.82425 0.0
C362 C 0.37763 0.28667 0.82416 0.0
C363 C 0.36095 0.27542 0.81529 0.0
C364 C 0.34196 0.28558 0.81234 0.0
C365 C 0.34008 0.30675 0.81665 0.0
C366 C 0.36278 0.25345 0.8081 0.0
C367 C 0.38097 0.24463 0.80253 0.0
C368 C 0.38251 0.22407 0.7918 0.0
C369 C 0.40035 0.2199 0.77984 0.0
C370 C 0.40176 0.20174 0.76792 0.0
C371 C 0.38538 0.18715 0.76777 0.0
H372 H 0.3529 0.21108 0.80214 0.0
C373 C 0.36801 0.19072 0.78065 0.0
C374 C 0.36659 0.20893 0.79257 0.0
H375 H 0.35518 0.17973 0.78109 0.0
H376 H 0.3891 0.31625 0.83459 0.0
H377 H 0.39229 0.2793 0.82742 0.0
H378 H 0.32874 0.27731 0.80582 0.0
H379 H 0.32545 0.3142 0.81329 0.0
H380 H 0.34832 0.24513 0.80521 0.0
H381 H 0.39526 0.25361 0.80387 0.0
H382 H 0.413 0.23109 0.7791 0.0
H383 H 0.41544 0.19947 0.75832 0.0
C384 C 0.70752 0.86007 0.30879 0.0
C385 C 0.69339 0.87455 0.31696 0.0
C386 C 0.72861 0.86517 0.30648 0.0
C387 C 0.73616 0.88489 0.31244 0.0
C388 C 0.72228 0.89877 0.32199 0.0
C389 C 0.70118 0.89366 0.32431 0.0
C390 C 0.75739 0.89253 0.30654 0.0
C391 C 0.77304 0.88018 0.30014 0.0
C392 C 0.79249 0.88797 0.28993 0.0
C393 C 0.8097 0.87476 0.28835 0.0
C394 C 0.82704 0.8802 0.27623 0.0
C395 C 0.82748 0.89893 0.26518 0.0
H396 H 0.7804 0.91769 0.27998 0.0
C397 C 0.8107 0.91259 0.26751 0.0
C398 C 0.79341 0.90719 0.27968 0.0
H399 H 0.81048 0.92712 0.25919 0.0
H400 H 0.70209 0.84519 0.30297 0.0
H401 H 0.7385 0.85401 0.29879 0.0
H402 H 0.72757 0.91406 0.32676 0.0
H403 H 0.69079 0.90522 0.33068 0.0
H404 H 0.7598 0.9092 0.30668 0.0
H405 H 0.77146 0.86352 0.30174 0.0
H406 H 0.80943 0.85982 0.29594 0.0
H407 H 0.83964 0.86926 0.27474 0.0
C408 C 0.82803 0.1515 0.2109 0.0
C409 C 0.8439 0.14041 0.20075 0.0
C410 C 0.82553 0.15031 0.23247 0.0
C411 C 0.83913 0.13842 0.24444 0.0
C412 C 0.85573 0.12831 0.23456 0.0
C413 C 0.8579 0.129 0.21283 0.0
C414 C 0.83554 0.13611 0.26713 0.0
C415 C 0.81689 0.12975 0.27439 0.0
C416 C 0.81134 0.12839 0.29681 0.0
C417 C 0.79639 0.11368 0.30302 0.0
C418 C 0.78805 0.11413 0.32314 0.0
C419 C 0.79408 0.12969 0.33737 0.0
H420 H 0.82985 0.15477 0.30707 0.0
C421 C 0.80988 0.14376 0.33152 0.0
C422 C 0.81855 0.14303 0.31146 0.0
H423 H 0.81483 0.15597 0.34208 0.0
H424 H 0.8169 0.16035 0.20209 0.0
H425 H 0.81277 0.15848 0.23979 0.0
H426 H 0.86647 0.11916 0.24354 0.0
H427 H 0.87026 0.1203 0.20545 0.0
H428 H 0.84839 0.13891 0.27774 0.0
H429 H 0.80496 0.12517 0.26325 0.0
H430 H 0.79054 0.10227 0.29201 0.0
H431 H 0.77588 0.10309 0.32703 0.0
C432 C 0.91627 0.32105 0.71215 0.0
C433 C 0.90663 0.31146 0.69491 0.0
C434 C 0.91751 0.31099 0.73124 0.0
C435 C 0.90905 0.29101 0.73373 0.0
C436 C 0.90037 0.28092 0.71627 0.0
C437 C 0.89906 0.29108 0.69703 0.0
C438 C 0.90911 0.2806 0.7544 0.0
C439 C 0.90769 0.29131 0.7725 0.0
C440 C 0.9066 0.28147 0.79337 0.0
C441 C 0.89524 0.29129 0.80928 0.0
C442 C 0.89307 0.28214 0.82886 0.0
C443 C 0.90269 0.2632 0.83316 0.0
H444 H 0.9262 0.25519 0.78612 0.0
C445 C 0.91503 0.25392 0.81759 0.0
C446 C 0.91685 0.26287 0.79785 0.0
H447 H 0.92255 0.23924 0.82035 0.0
H448 H 0.92263 0.3366 0.71105 0.0
H449 H 0.92507 0.31898 0.74404 0.0
H450 H 0.894 0.26539 0.71767 0.0
H451 H 0.89162 0.28324 0.68406 0.0
H452 H 0.90893 0.26377 0.75464 0.0
H453 H 0.90568 0.308 0.77205 0.0
H454 H 0.88742 0.30577 0.80635 0.0
H455 H 0.88345 0.28966 0.84048 0.0
C456 C 0.79772 0.41854 0.3014 0.0
C457 C 0.79026 0.40794 0.31902 0.0
C458 C 0.78782 0.41627 0.28215 0.0
C459 C 0.76999 0.40367 0.2802 0.0
C460 C 0.76187 0.39396 0.29801 0.0
C461 C 0.77211 0.39577 0.31718 0.0
C462 C 0.75973 0.40042 0.25973 0.0
C463 C 0.77066 0.39701 0.2421 0.0
C464 C 0.76049 0.39227 0.22186 0.0
C465 C 0.76857 0.37663 0.20895 0.0
C466 C 0.75862 0.37118 0.19031 0.0
C467 C 0.74082 0.38181 0.18386 0.0
H468 H 0.73663 0.41562 0.22468 0.0
C469 C 0.73336 0.39819 0.1963 0.0
C470 C 0.74295 0.40321 0.21522 0.0
H471 H 0.71957 0.40658 0.19185 0.0
H472 H 0.81178 0.42789 0.30221 0.0
H473 H 0.7942 0.42426 0.26877 0.0
H474 H 0.74803 0.3843 0.29692 0.0
H475 H 0.76606 0.38735 0.33044 0.0
H476 H 0.74286 0.39914 0.25945 0.0
H477 H 0.78751 0.396 0.24283 0.0
H478 H 0.7822 0.36811 0.21366 0.0
H479 H 0.76467 0.35847 0.18109 0.0
C480 C 0.67424 0.20902 0.71553 0.0
C481 C 0.66194 0.20106 0.69923 0.0
C482 C 0.66627 0.21054 0.73579 0.0
C483 C 0.64574 0.20411 0.74024 0.0
C484 C 0.63397 0.19489 0.72421 0.0
C485 C 0.642 0.19323 0.70398 0.0
C486 C 0.63521 0.20957 0.76026 0.0
C487 C 0.6454 0.21435 0.77801 0.0
C488 C 0.63545 0.22504 0.79611 0.0
C489 C 0.64514 0.2245 0.81569 0.0
C490 C 0.6385 0.23747 0.83197 0.0
C491 C 0.62226 0.25153 0.82883 0.0
H492 H 0.61057 0.23943 0.77865 0.0
C493 C 0.61179 0.2512 0.80968 0.0
C494 C 0.61824 0.23811 0.79353 0.0
H495 H 0.5993 0.26195 0.80677 0.0
H496 H 0.68967 0.21519 0.71244 0.0
H497 H 0.67581 0.21807 0.74748 0.0
H498 H 0.6181 0.18986 0.72712 0.0
H499 H 0.63205 0.18706 0.69182 0.0
H500 H 0.61837 0.21073 0.75993 0.0
H501 H 0.66195 0.21135 0.77908 0.0
H502 H 0.65852 0.21474 0.81811 0.0
H503 H 0.64707 0.23754 0.84645 0.0
C504 C 0.31432 0.75376 0.14438 0.0
C505 C 0.32223 0.74255 0.16123 0.0
C506 C 0.29526 0.76385 0.14589 0.0
C507 C 0.28356 0.76323 0.16443 0.0
C508 C 0.29104 0.75136 0.18105 0.0
C509 C 0.31023 0.74119 0.17953 0.0
C510 C 0.26326 0.77419 0.16644 0.0
C511 C 0.25874 0.79128 0.15535 0.0
C512 C 0.23799 0.80144 0.15488 0.0
C513 C 0.23306 0.8134 0.13742 0.0
C514 C 0.21341 0.82219 0.13537 0.0
C515 C 0.19823 0.8196 0.15092 0.0
H516 H 0.22644 0.79088 0.18486 0.0
C517 C 0.20343 0.80856 0.16896 0.0
C518 C 0.22309 0.79947 0.1709 0.0
H519 H 0.19206 0.80626 0.18123 0.0
H520 H 0.32295 0.7549 0.12991 0.0
H521 H 0.28971 0.77193 0.13233 0.0
H522 H 0.28221 0.75028 0.19541 0.0
H523 H 0.31584 0.73264 0.19279 0.0
H524 H 0.25183 0.76778 0.17713 0.0
H525 H 0.27054 0.79774 0.14508 0.0
H526 H 0.24425 0.81539 0.12492 0.0
H527 H 0.20996 0.83067 0.12132 0.0
C528 C 0.317 0.77858 0.36052 0.0
C529 C 0.32294 0.7942 0.37474 0.0
C530 C 0.29712 0.76956 0.3614 0.0
C531 C 0.28258 0.77605 0.3765 0.0
C532 C 0.28831 0.79217 0.39022 0.0
C533 C 0.30819 0.8012 0.38932 0.0
C534 C 0.26192 0.76562 0.37937 0.0
C535 C 0.25248 0.75365 0.36483 0.0
C536 C 0.23186 0.74345 0.36826 0.0
C537 C 0.21859 0.74018 0.35122 0.0
C538 C 0.19867 0.73168 0.35404 0.0
C539 C 0.19169 0.72587 0.37395 0.0
H540 H 0.23532 0.73838 0.40144 0.0
C541 C 0.20542 0.72803 0.39084 0.0
C542 C 0.22526 0.73678 0.38805 0.0
H543 H 0.20059 0.72369 0.40639 0.0
H544 H 0.32797 0.77271 0.34914 0.0
H545 H 0.29364 0.75697 0.35076 0.0
H546 H 0.2775 0.79751 0.40203 0.0
H547 H 0.31222 0.81313 0.40057 0.0
H548 H 0.25392 0.76845 0.39402 0.0
H549 H 0.25932 0.7522 0.34944 0.0
H550 H 0.22338 0.74486 0.33575 0.0
H551 H 0.18853 0.73018 0.34068 0.0
C552 C 0.23051 0.81513 0.885 0.0
C553 C 0.23084 0.83317 0.89742 0.0
C554 C 0.24045 0.79717 0.89145 0.0
C555 C 0.25095 0.7967 0.91059 0.0
C556 C 0.25198 0.81494 0.92266 0.0
C557 C 0.24193 0.83298 0.91622 0.0
C558 C 0.26183 0.77775 0.91773 0.0
C559 C 0.25615 0.75837 0.9118 0.0
C560 C 0.26822 0.73936 0.9166 0.0
C561 C 0.25894 0.71975 0.91334 0.0
C562 C 0.27052 0.70156 0.91534 0.0
C563 C 0.29171 0.70265 0.92046 0.0
H564 H 0.2973 0.7549 0.92476 0.0
C565 C 0.30077 0.72219 0.92448 0.0
C566 C 0.28926 0.74029 0.92251 0.0
H567 H 0.31707 0.72362 0.9285 0.0
H568 H 0.22232 0.81475 0.8703 0.0
H569 H 0.24002 0.78377 0.88124 0.0
H570 H 0.26028 0.81513 0.9373 0.0
H571 H 0.24249 0.8466 0.92615 0.0
H572 H 0.27467 0.78003 0.92842 0.0
H573 H 0.24207 0.7562 0.90274 0.0
H574 H 0.24279 0.71852 0.90867 0.0
H575 H 0.2631 0.68677 0.91206 0.0
C576 C 0.29408 0.7066 0.63898 0.0
C577 C 0.30281 0.68669 0.63925 0.0
C578 C 0.30663 0.72423 0.64065 0.0
C579 C 0.3283 0.7225 0.64238 0.0
C580 C 0.33727 0.70276 0.64135 0.0
C581 C 0.32461 0.68494 0.64005 0.0
C582 C 0.3413 0.74142 0.64525 0.0
C583 C 0.33544 0.75634 0.65877 0.0
C584 C 0.34476 0.77748 0.66011 0.0
C585 C 0.34044 0.7896 0.6778 0.0
C586 C 0.34476 0.81085 0.67802 0.0
C587 C 0.35331 0.82054 0.66038 0.0
H588 H 0.35834 0.77806 0.6291 0.0
C589 C 0.35921 0.80813 0.64329 0.0
C590 C 0.35496 0.7868 0.64312 0.0
H591 H 0.36587 0.81507 0.62946 0.0
H592 H 0.2774 0.70867 0.63818 0.0
H593 H 0.29932 0.73929 0.64076 0.0
H594 H 0.35399 0.7011 0.64235 0.0
H595 H 0.33183 0.66985 0.64019 0.0
H596 H 0.35547 0.74306 0.63614 0.0
H597 H 0.32221 0.75323 0.66893 0.0
H598 H 0.33261 0.78283 0.69112 0.0
H599 H 0.34013 0.81987 0.69151 0.0
C600 C 0.84621 0.81141 0.22314 0.0
C601 C 0.86178 0.82367 0.21375 0.0
C602 C 0.84933 0.79029 0.22654 0.0
C603 C 0.86813 0.78087 0.22064 0.0
C604 C 0.88303 0.79271 0.20982 0.0
C605 C 0.87997 0.81394 0.20651 0.0
C606 C 0.87299 0.75922 0.22684 0.0
C607 C 0.8671 0.75181 0.24554 0.0
C608 C 0.87382 0.73166 0.25424 0.0
C609 C 0.87639 0.73042 0.27583 0.0
C610 C 0.88193 0.71184 0.28513 0.0
C611 C 0.88459 0.69374 0.27316 0.0
H612 H 0.87458 0.71411 0.22533 0.0
C613 C 0.88192 0.69481 0.25146 0.0
C614 C 0.87677 0.71371 0.24202 0.0
H615 H 0.8838 0.68111 0.24184 0.0
H616 H 0.83189 0.81827 0.22868 0.0
H617 H 0.83721 0.78148 0.23429 0.0
H618 H 0.89754 0.7858 0.20488 0.0
H619 H 0.89224 0.82287 0.19912 0.0
H620 H 0.88341 0.75022 0.21705 0.0
H621 H 0.85851 0.7619 0.25604 0.0
H622 H 0.87413 0.74395 0.28563 0.0
H623 H 0.88367 0.71164 0.30188 0.0
C624 C 0.22807 0.36817 0.68609 0.0
C625 C 0.20769 0.37533 0.6896 0.0
C626 C 0.24391 0.37192 0.70056 0.0
C627 C 0.23984 0.38307 0.71899 0.0
C628 C 0.21952 0.39013 0.72256 0.0
C629 C 0.20372 0.38643 0.70803 0.0
C630 C 0.25594 0.38689 0.73528 0.0
C631 C 0.27669 0.38646 0.73176 0.0
C632 C 0.29265 0.38967 0.74835 0.0
C633 C 0.31298 0.38244 0.74496 0.0
C634 C 0.32818 0.38434 0.76047 0.0
C635 C 0.32339 0.3936 0.77973 0.0
H636 H 0.27309 0.40636 0.77041 0.0
C637 C 0.30332 0.40156 0.78282 0.0
C638 C 0.28818 0.39975 0.76733 0.0
H639 H 0.29916 0.40907 0.79736 0.0
H640 H 0.23186 0.35942 0.67216 0.0
H641 H 0.25912 0.36562 0.69737 0.0
H642 H 0.21582 0.39866 0.73666 0.0
H643 H 0.18855 0.39236 0.71139 0.0
H644 H 0.25018 0.39017 0.75082 0.0
H645 H 0.28243 0.38314 0.7162 0.0
H646 H 0.31701 0.37485 0.73043 0.0
H647 H 0.3435 0.37807 0.75755 0.0
C648 C 0.60743 0.81695 0.26172 0.0
C649 C 0.62243 0.83293 0.26271 0.0
C650 C 0.61231 0.79758 0.25317 0.0
C651 C 0.63238 0.79367 0.24525 0.0
C652 C 0.64711 0.80993 0.2455 0.0
C653 C 0.64219 0.82935 0.25401 0.0
C654 C 0.63913 0.77245 0.23878 0.0
C655 C 0.62587 0.75684 0.23372 0.0
C656 C 0.63214 0.73472 0.23085 0.0
C657 C 0.6179 0.72067 0.22182 0.0
C658 C 0.62178 0.69933 0.22157 0.0
C659 C 0.63998 0.69147 0.23051 0.0
H660 H 0.66219 0.73695 0.24627 0.0
C661 C 0.65474 0.70559 0.23857 0.0
C662 C 0.65088 0.72691 0.23881 0.0
H663 H 0.66893 0.70013 0.24562 0.0
H664 H 0.59206 0.81911 0.26832 0.0
H665 H 0.60056 0.78551 0.25382 0.0
H666 H 0.66272 0.80742 0.23965 0.0
H667 H 0.65418 0.84124 0.25459 0.0
H668 H 0.65574 0.76965 0.23865 0.0
H669 H 0.60945 0.76014 0.23206 0.0
H670 H 0.60331 0.72613 0.2156 0.0
H671 H 0.61003 0.68894 0.21527 0.0
C672 C 0.31688 0.1742 0.71288 0.0
C673 C 0.33087 0.15994 0.70411 0.0
C674 C 0.29602 0.16867 0.7163 0.0
C675 C 0.28862 0.14874 0.71087 0.0
C676 C 0.30235 0.13496 0.701 0.0
C677 C 0.32318 0.14049 0.69759 0.0
C678 C 0.26773 0.14085 0.71749 0.0
C679 C 0.25187 0.15305 0.7236 0.0
C680 C 0.23276 0.14512 0.73429 0.0
C681 C 0.21512 0.1578 0.7354 0.0
C682 C 0.19814 0.15244 0.74806 0.0
C683 C 0.19855 0.13437 0.76016 0.0
H684 H 0.24593 0.11633 0.74549 0.0
C685 C 0.21567 0.1211 0.75816 0.0
C686 C 0.23258 0.1264 0.74544 0.0
H687 H 0.21653 0.10708 0.76727 0.0
H688 H 0.32225 0.18929 0.71817 0.0
H689 H 0.28621 0.1797 0.72428 0.0
H690 H 0.29717 0.11951 0.69667 0.0
H691 H 0.33347 0.1291 0.69075 0.0
H692 H 0.26571 0.12414 0.71797 0.0
H693 H 0.25305 0.16967 0.72137 0.0
H694 H 0.2148 0.17233 0.72707 0.0
H695 H 0.18525 0.16307 0.74927 0.0
C696 C 0.27126 0.87882 0.71709 0.0
C697 C 0.26772 0.88992 0.69868 0.0
C698 C 0.2571 0.87967 0.73368 0.0
C699 C 0.23895 0.89163 0.7323 0.0
C700 C 0.23525 0.90242 0.71376 0.0
C701 C 0.24937 0.90148 0.6971 0.0
C702 C 0.22463 0.8947 0.75042 0.0
C703 C 0.22303 0.88143 0.76655 0.0
C704 C 0.21111 0.88576 0.78611 0.0
C705 C 0.20663 0.86931 0.79971 0.0
C706 C 0.19809 0.87302 0.81949 0.0
C707 C 0.19401 0.89335 0.82623 0.0
H708 H 0.20948 0.91924 0.78282 0.0
C709 C 0.19752 0.90971 0.81226 0.0
C710 C 0.20599 0.90601 0.79249 0.0
H711 H 0.19461 0.92559 0.81692 0.0
H712 H 0.28526 0.86981 0.71891 0.0
H713 H 0.26094 0.87157 0.74782 0.0
H714 H 0.22153 0.9119 0.71227 0.0
H715 H 0.24615 0.91028 0.68321 0.0
H716 H 0.21517 0.90853 0.75034 0.0
H717 H 0.23107 0.86673 0.76565 0.0
H718 H 0.21043 0.85355 0.79532 0.0
H719 H 0.1957 0.86003 0.82984 0.0
C720 C 0.09022 0.75007 0.3385 0.0
C721 C 0.10499 0.75517 0.35388 0.0
C722 C 0.09138 0.75894 0.31868 0.0
C723 C 0.10733 0.77321 0.31382 0.0
C724 C 0.1215 0.77896 0.32949 0.0
C725 C 0.12047 0.76995 0.34921 0.0
C726 C 0.1095 0.78283 0.2929 0.0
C727 C 0.10237 0.77427 0.27498 0.0
C728 C 0.10557 0.78425 0.25429 0.0
C729 C 0.10654 0.77204 0.23606 0.0
C730 C 0.11073 0.78114 0.21663 0.0
C731 C 0.11396 0.80264 0.21518 0.0
H732 H 0.10604 0.81597 0.26588 0.0
C733 C 0.11192 0.81486 0.23327 0.0
C734 C 0.10766 0.80586 0.25249 0.0
H735 H 0.11382 0.83154 0.23267 0.0
H736 H 0.07808 0.73873 0.34153 0.0
H737 H 0.07978 0.75459 0.30728 0.0
H738 H 0.13379 0.79011 0.3263 0.0
H739 H 0.1321 0.77424 0.36064 0.0
H740 H 0.11855 0.7971 0.2922 0.0
H741 H 0.0951 0.75903 0.27523 0.0
H742 H 0.10464 0.75538 0.23692 0.0
H743 H 0.11209 0.77134 0.20296 0.0
C744 C 0.31989 0.66067 0.83899 0.0
C745 C 0.33091 0.64297 0.84509 0.0
C746 C 0.31285 0.66269 0.81847 0.0
C747 C 0.3168 0.64706 0.80361 0.0
C748 C 0.32879 0.63 0.8095 0.0
C749 C 0.33564 0.62789 0.82998 0.0
C750 C 0.30895 0.64779 0.78182 0.0
C751 C 0.29232 0.65879 0.77554 0.0
C752 C 0.28425 0.65787 0.75374 0.0
C753 C 0.26332 0.66272 0.7497 0.0
C754 C 0.25518 0.66096 0.72947 0.0
C755 C 0.26785 0.65421 0.71296 0.0
H756 H 0.31346 0.64926 0.73895 0.0
C757 C 0.28892 0.65016 0.71691 0.0
C758 C 0.29705 0.65216 0.73691 0.0
H759 H 0.29929 0.64544 0.70446 0.0
H760 H 0.31597 0.67258 0.85025 0.0
H761 H 0.30423 0.67639 0.81442 0.0
H762 H 0.33236 0.61786 0.79835 0.0
H763 H 0.34413 0.61411 0.8341 0.0
H764 H 0.31649 0.63745 0.77081 0.0
H765 H 0.28351 0.66769 0.78687 0.0
H766 H 0.25313 0.66747 0.76228 0.0
H767 H 0.23893 0.66436 0.72686 0.0
C768 C 0.43363 0.79118 0.3424 0.0
C769 C 0.42021 0.78082 0.35632 0.0
C770 C 0.43435 0.78546 0.32137 0.0
C771 C 0.42197 0.76899 0.3139 0.0
C772 C 0.40974 0.75767 0.32807 0.0
C773 C 0.40862 0.76371 0.34902 0.0
C774 C 0.42088 0.76381 0.29136 0.0
C775 C 0.42014 0.77854 0.27659 0.0
C776 C 0.41533 0.77358 0.25451 0.0
C777 C 0.40139 0.78614 0.24366 0.0
C778 C 0.39463 0.7805 0.22372 0.0
C779 C 0.40223 0.76254 0.21396 0.0
H780 H 0.43481 0.74643 0.25224 0.0
C781 C 0.41739 0.75082 0.22422 0.0
C782 C 0.42372 0.75616 0.2444 0.0
H783 H 0.42343 0.73679 0.21719 0.0
H784 H 0.44272 0.80449 0.34745 0.0
H785 H 0.44426 0.7942 0.31089 0.0
H786 H 0.4002 0.74479 0.32271 0.0
H787 H 0.39811 0.75546 0.35933 0.0
H788 H 0.41811 0.74771 0.28702 0.0
H789 H 0.42052 0.79477 0.2812 0.0
H790 H 0.39485 0.79975 0.25107 0.0
H791 H 0.3829 0.78977 0.21622 0.0
C792 C 0.70111 0.26041 0.86438 0.0
C793 C 0.6945 0.28105 0.86604 0.0
C794 C 0.7221 0.25576 0.862 0.0
C795 C 0.73714 0.2717 0.8612 0.0
C796 C 0.73046 0.29241 0.86202 0.0
C797 C 0.70926 0.29708 0.86422 0.0
C798 C 0.75978 0.26707 0.86213 0.0
C799 C 0.76793 0.24864 0.85646 0.0
C800 C 0.78957 0.24248 0.8615 0.0
C801 C 0.79946 0.22721 0.8494 0.0
C802 C 0.81936 0.22024 0.85463 0.0
C803 C 0.82956 0.22816 0.87232 0.0
H804 H 0.79241 0.26149 0.8894 0.0
C805 C 0.81949 0.24321 0.88455 0.0
C806 C 0.79978 0.25029 0.87923 0.0
H807 H 0.82684 0.24965 0.89832 0.0
H808 H 0.69005 0.24769 0.86561 0.0
H809 H 0.72646 0.23962 0.86196 0.0
H810 H 0.74171 0.305 0.86162 0.0
H811 H 0.70459 0.31312 0.86555 0.0
H812 H 0.76991 0.27906 0.86851 0.0
H813 H 0.75838 0.23738 0.84816 0.0
H814 H 0.79179 0.22067 0.83585 0.0
H815 H 0.82669 0.20864 0.84488 0.0
C816 C 0.81488 0.3315 0.67166 0.0
C817 C 0.82573 0.34077 0.65505 0.0
C818 C 0.79472 0.32366 0.6689 0.0
C819 C 0.78489 0.32487 0.64942 0.0
C820 C 0.79489 0.3359 0.63342 0.0
C821 C 0.81516 0.3437 0.63615 0.0
C822 C 0.76515 0.31331 0.64502 0.0
C823 C 0.7616 0.29434 0.65305 0.0
C824 C 0.74421 0.28025 0.64686 0.0
C825 C 0.74773 0.25887 0.64748 0.0
C826 C 0.73201 0.24474 0.64237 0.0
C827 C 0.71206 0.25154 0.63694 0.0
H828 H 0.72103 0.30369 0.64092 0.0
C829 C 0.7083 0.27299 0.63648 0.0
C830 C 0.72433 0.28728 0.64122 0.0
H831 H 0.69307 0.2787 0.63242 0.0
H832 H 0.82236 0.32926 0.68654 0.0
H833 H 0.78715 0.31595 0.68183 0.0
H834 H 0.78757 0.33733 0.61835 0.0
H835 H 0.82297 0.35086 0.62304 0.0
H836 H 0.7548 0.31923 0.63318 0.0
H837 H 0.77326 0.28778 0.66322 0.0
H838 H 0.76282 0.25299 0.65187 0.0
H839 H 0.73547 0.22837 0.64308 0.0
C840 C 0.69431 0.30218 0.16001 0.0
C841 C 0.68321 0.30784 0.14215 0.0
C842 C 0.70365 0.28272 0.16127 0.0
C843 C 0.70237 0.26851 0.14453 0.0
C844 C 0.69003 0.27363 0.12736 0.0
C845 C 0.68059 0.29306 0.12615 0.0
C846 C 0.71431 0.24872 0.14402 0.0
C847 C 0.73217 0.24621 0.15468 0.0
C848 C 0.74612 0.22784 0.15335 0.0
C849 C 0.76256 0.22691 0.1676 0.0
C850 C 0.77744 0.2114 0.16619 0.0
C851 C 0.77641 0.19622 0.15043 0.0
H852 H 0.73232 0.21235 0.12644 0.0
C853 C 0.75957 0.19651 0.13653 0.0
C854 C 0.74457 0.21222 0.1379 0.0
H855 H 0.75839 0.18506 0.12418 0.0
H856 H 0.69641 0.31306 0.17276 0.0
H857 H 0.71213 0.2791 0.17526 0.0
H858 H 0.68844 0.26294 0.11438 0.0
H859 H 0.67208 0.29682 0.11218 0.0
H860 H 0.70891 0.23661 0.13353 0.0
H861 H 0.73759 0.25879 0.16461 0.0
H862 H 0.76422 0.23856 0.17972 0.0
H863 H 0.79005 0.21159 0.17732 0.0
C864 C 0.82062 0.30717 0.35613 0.0
C865 C 0.8171 0.32011 0.339 0.0
C866 C 0.81086 0.28776 0.35741 0.0
C867 C 0.7974 0.28082 0.34156 0.0
C868 C 0.7951 0.29306 0.32376 0.0
C869 C 0.80471 0.31258 0.32255 0.0
C870 C 0.7853 0.26112 0.3434 0.0
C871 C 0.77799 0.25431 0.36186 0.0
C872 C 0.76564 0.23487 0.36499 0.0
C873 C 0.75622 0.23172 0.38449 0.0
C874 C 0.74623 0.213 0.38914 0.0
C875 C 0.74538 0.19687 0.37438 0.0
H876 H 0.77123 0.22059 0.33471 0.0
C877 C 0.75392 0.20029 0.35449 0.0
C878 C 0.76403 0.21904 0.34985 0.0
H879 H 0.75372 0.1881 0.34282 0.0
H880 H 0.83019 0.31238 0.36901 0.0
H881 H 0.81364 0.27837 0.371 0.0
H882 H 0.78511 0.28793 0.31117 0.0
H883 H 0.80177 0.32207 0.30906 0.0
H884 H 0.78126 0.25303 0.32912 0.0
H885 H 0.78083 0.26377 0.37564 0.0
H886 H 0.75709 0.2436 0.39647 0.0
H887 H 0.73981 0.21092 0.4046 0.0
C888 C 0.19899 0.58461 0.66706 0.0
C889 C 0.21878 0.59078 0.65989 0.0
C890 C 0.19445 0.56382 0.67102 0.0
C891 C 0.20955 0.54848 0.66781 0.0
C892 C 0.22942 0.5546 0.66079 0.0
C893 C 0.23398 0.57553 0.65672 0.0
C894 C 0.20498 0.52622 0.67229 0.0
C895 C 0.18568 0.518 0.67047 0.0
C896 C 0.18008 0.496 0.67482 0.0
C897 C 0.16261 0.48747 0.6648 0.0
C898 C 0.15616 0.46717 0.66874 0.0
C899 C 0.16676 0.4549 0.68315 0.0
H900 H 0.20403 0.49004 0.69771 0.0
C901 C 0.1841 0.46346 0.69353 0.0
C902 C 0.19078 0.48381 0.68932 0.0
H903 H 0.19261 0.45437 0.70469 0.0
H904 H 0.18692 0.5959 0.66989 0.0
H905 H 0.17918 0.55995 0.67708 0.0
H906 H 0.24143 0.54316 0.65836 0.0
H907 H 0.24943 0.57978 0.6514 0.0
H908 H 0.2179 0.5163 0.6763 0.0
H909 H 0.17332 0.5276 0.66445 0.0
H910 H 0.15393 0.49654 0.65372 0.0
H911 H 0.1427 0.46114 0.66052 0.0
C912 C 0.45201 0.68811 0.20312 0.0
C913 C 0.43232 0.67969 0.19849 0.0
C914 C 0.46699 0.67638 0.21315 0.0
C915 C 0.46275 0.65577 0.21885 0.0
C916 C 0.4429 0.64739 0.21458 0.0
C917 C 0.42768 0.65934 0.20472 0.0
C918 C 0.47958 0.64236 0.22705 0.0
C919 C 0.49588 0.6501 0.23792 0.0
C920 C 0.51566 0.63886 0.24182 0.0
C921 C 0.53006 0.64752 0.25589 0.0
C922 C 0.55034 0.63989 0.2572 0.0
C923 C 0.55674 0.62347 0.24429 0.0
H924 H 0.51132 0.6145 0.21861 0.0
C925 C 0.54196 0.61393 0.23116 0.0
C926 C 0.52169 0.62153 0.22989 0.0
H927 H 0.54633 0.6012 0.22103 0.0
H928 H 0.45608 0.70378 0.19861 0.0
H929 H 0.48221 0.68329 0.21551 0.0
H930 H 0.43929 0.63147 0.21856 0.0
H931 H 0.41266 0.65243 0.20126 0.0
H932 H 0.47885 0.62598 0.22318 0.0
H933 H 0.49529 0.66608 0.24332 0.0
H934 H 0.52593 0.6609 0.26525 0.0
H935 H 0.56127 0.6476 0.2675 0.0
C936 C 0.36852 0.951 0.68351 0.0
C937 C 0.34723 0.94704 0.68696 0.0
C938 C 0.37734 0.97034 0.68878 0.0
C939 C 0.365 0.98607 0.69769 0.0
C940 C 0.34392 0.98179 0.70163 0.0
C941 C 0.33513 0.96265 0.69624 0.0
C942 C 0.37317 1.00718 0.70305 0.0
C943 C 0.3899 0.01607 0.69391 0.0
C944 C 0.39564 0.03837 0.69698 0.0
C945 C 0.40582 0.04882 0.68073 0.0
C946 C 0.40969 0.07014 0.68202 0.0
C947 C 0.40377 0.08155 0.69977 0.0
H948 H 0.38344 0.04195 0.72839 0.0
C949 C 0.39472 0.07093 0.7166 0.0
C950 C 0.39067 0.04956 0.71523 0.0
H951 H 0.39009 0.07922 0.73055 0.0
H952 H 0.3783 0.93927 0.67651 0.0
H953 H 0.39377 0.9728 0.68596 0.0
H954 H 0.33403 0.99347 0.70858 0.0
H955 H 0.31872 0.96015 0.6993 0.0
H956 H 0.36371 0.01644 0.71354 0.0
H957 H 0.39838 1.00752 0.68206 0.0
H958 H 0.41008 0.04062 0.6666 0.0
H959 H 0.41688 0.07778 0.66883 0.0
C960 C 0.07444 0.87053 0.18749 0.0
C961 C 0.07597 0.86704 0.16592 0.0
C962 C 0.05602 0.87834 0.1962 0.0
C963 C 0.03894 0.88301 0.18342 0.0
C964 C 0.04118 0.88095 0.16178 0.0
C965 C 0.05936 0.87282 0.15314 0.0
C966 C 0.01821 0.88897 0.19192 0.0
C967 C 1.01061 0.88178 0.21013 0.0
C968 C 0.98832 0.88371 0.21639 0.0
C969 C 0.97948 0.86837 0.22915 0.0
C970 C 0.95817 0.86827 0.23363 0.0
C971 C 0.94517 0.8837 0.22568 0.0
H972 H 0.98186 0.91228 0.20002 0.0
C973 C 0.9542 0.89978 0.21394 0.0
C974 C 0.97554 0.8998 0.20933 0.0
H975 H 0.94469 0.91202 0.20771 0.0
H976 H 0.08698 0.86612 0.19772 0.0
H977 H 0.05505 0.88027 0.21292 0.0
H978 H 0.0284 0.88462 0.15153 0.0
H979 H 0.06013 0.87035 0.13646 0.0
H980 H 1.00795 0.89719 0.18151 0.0
H981 H 0.02033 0.87193 0.21959 0.0
H982 H 0.98895 0.85591 0.23502 0.0
H983 H 0.9518 0.85574 0.24287 0.0
C984 C 0.198 0.96597 0.88745 0.0
C985 C 0.18491 0.95653 0.9023 0.0
C986 C 0.19552 0.98693 0.88226 0.0
C987 C 0.17996 0.99891 0.89197 0.0
C988 C 0.1677 0.98964 0.90754 0.0
C989 C 0.17012 0.96879 0.91264 0.0
C990 C 0.17436 0.02022 0.88509 0.0
C991 C 0.18607 0.03252 0.87267 0.0
C992 C 0.17816 0.05242 0.86407 0.0
C993 C 0.19214 0.06846 0.85877 0.0
C994 C 0.18504 0.08671 0.84945 0.0
C995 C 0.16382 0.08909 0.84486 0.0
H996 H 0.14566 0.04288 0.86291 0.0
C997 C 0.14988 0.0731 0.85031 0.0
C998 C 0.1569 0.05505 0.85975 0.0
H999 H 0.13344 0.07432 0.84693 0.0
H1000 H 0.20947 0.95694 0.87908 0.0
H1001 H 0.20514 0.99328 0.86999 0.0
H1002 H 0.15561 0.99838 0.91534 0.0
H1003 H 0.15983 0.96211 0.92422 0.0
H1004 H 0.1594 0.02595 0.89041 0.0
H1005 H 0.20181 0.02806 0.86861 0.0
H1006 H 0.20863 0.0668 0.8617 0.0
H1007 H 0.19621 0.09865 0.84527 0.0
C1008 C 0.95687 0.62916 0.35489 0.0
C1009 C 0.94624 0.63882 0.33855 0.0
C1010 C 0.97759 0.63455 0.35942 0.0
C1011 C 0.98812 0.64986 0.34775 0.0
C1012 C 0.97731 0.65963 0.33165 0.0
C1013 C 0.9567 0.65425 0.32713 0.0
C1014 C 1.01041 0.65578 0.35111 0.0
C1015 C 0.02172 0.65102 0.36807 0.0
C1016 C 0.04367 0.65823 0.37103 0.0
C1017 C 0.05125 0.66125 0.39132 0.0
C1018 C 0.07126 0.66937 0.39467 0.0
C1019 C 0.0843 0.67445 0.37778 0.0
H1020 H 0.05221 0.65945 0.33829 0.0
C1021 C 0.07715 0.67034 0.3575 0.0
C1022 C 0.05711 0.66231 0.35415 0.0
H1023 H 0.08679 0.6739 0.34411 0.0
H1024 H 0.94934 0.6171 0.36391 0.0
H1025 H 0.98532 0.6263 0.37171 0.0
H1026 H 0.98489 0.67145 0.32234 0.0
H1027 H 0.94907 0.66207 0.31444 0.0
H1028 H 0.01756 0.66541 0.33923 0.0
H1029 H 1.0144 0.64286 0.3809 0.0
H1030 H 0.04141 0.65797 0.40464 0.0
H1031 H 0.07627 0.67222 0.41052 0.0
C1032 C 0.34335 0.5617 0.91628 0.0
C1033 C 0.32819 0.57574 0.90958 0.0
C1034 C 0.34448 0.54172 0.90772 0.0
C1035 C 0.33042 0.53523 0.89219 0.0
C1036 C 0.31478 0.54901 0.88608 0.0
C1037 C 0.31359 0.56897 0.89473 0.0
C1038 C 0.3328 0.51523 0.88057 0.0
C1039 C 0.34371 0.49884 0.88749 0.0
C1040 C 0.34807 0.48011 0.87444 0.0
C1041 C 0.35232 0.4611 0.88407 0.0
C1042 C 0.35769 0.44358 0.87219 0.0
C1043 C 0.35931 0.44481 0.85041 0.0
H1044 H 0.34704 0.49565 0.84457 0.0
C1045 C 0.35506 0.46383 0.84081 0.0
C1046 C 0.34952 0.48122 0.85262 0.0
H1047 H 0.35619 0.46541 0.82408 0.0
H1048 H 0.35489 0.56639 0.92765 0.0
H1049 H 0.35703 0.53187 0.91264 0.0
H1050 H 0.30378 0.54454 0.87409 0.0
H1051 H 0.30178 0.57937 0.88909 0.0
H1052 H 0.32528 0.51412 0.86549 0.0
H1053 H 0.34965 0.49896 0.90327 0.0
H1054 H 0.35157 0.45981 0.90085 0.0
H1055 H 0.36094 0.42921 0.8801 0.0
C1056 C 0.44237 0.85897 0.37745 0.0
C1057 C 0.42823 0.85203 0.36219 0.0
C1058 C 0.46273 0.86477 0.37201 0.0
C1059 C 0.46942 0.86383 0.35114 0.0
C1060 C 0.45493 0.85807 0.33579 0.0
C1061 C 0.43464 0.85209 0.34124 0.0
C1062 C 0.49132 0.86855 0.34482 0.0
C1063 C 0.50784 0.86529 0.35728 0.0
C1064 C 0.52994 0.86824 0.35055 0.0
C1065 C 0.54559 0.85713 0.36069 0.0
C1066 C 0.56647 0.85911 0.35461 0.0
C1067 C 0.57227 0.87248 0.33838 0.0
H1068 H 0.52434 0.89129 0.32677 0.0
C1069 C 0.55667 0.88404 0.32858 0.0
C1070 C 0.53578 0.88196 0.33457 0.0
H1071 H 0.56056 0.89461 0.31611 0.0
H1072 H 0.438 0.85919 0.39374 0.0
H1073 H 0.47322 0.86979 0.38422 0.0
H1074 H 0.45953 0.85744 0.31956 0.0
H1075 H 0.4242 0.84684 0.32907 0.0
H1076 H 0.49392 0.87319 0.32881 0.0
H1077 H 0.50524 0.85876 0.37262 0.0
H1078 H 0.54163 0.84659 0.37318 0.0
H1079 H 0.57804 0.85004 0.36258 0.0
C1080 C 0.68623 0.17976 0.56636 0.0
C1081 C 0.67891 0.16652 0.58215 0.0
C1082 C 0.69249 0.17181 0.54698 0.0
C1083 C 0.69154 0.15036 0.54287 0.0
C1084 C 0.68429 0.13715 0.55867 0.0
C1085 C 0.67822 0.14508 0.57811 0.0
C1086 C 0.69655 0.1414 0.52194 0.0
C1087 C 0.70963 0.1504 0.50809 0.0
C1088 C 0.7135 0.14214 0.48662 0.0
C1089 C 0.73185 0.1479 0.47605 0.0
C1090 C 0.73524 0.14184 0.45531 0.0
C1091 C 0.72018 0.13012 0.44449 0.0
H1092 H 0.6841 0.12557 0.48321 0.0
C1093 C 0.70199 0.12404 0.45516 0.0
C1094 C 0.69867 0.12994 0.47593 0.0
H1095 H 0.68999 0.1151 0.44731 0.0
H1096 H 0.68692 0.19637 0.56887 0.0
H1097 H 0.69744 0.18261 0.53511 0.0
H1098 H 0.68319 0.1206 0.55594 0.0
H1099 H 0.6726 0.13441 0.58984 0.0
H1100 H 0.68947 0.12653 0.51809 0.0
H1101 H 0.7182 0.16425 0.51268 0.0
H1102 H 0.74349 0.1574 0.48378 0.0
H1103 H 0.74936 0.14694 0.44756 0.0
C1104 C 0.86054 0.16967 0.07027 0.0
C1105 C 0.84745 0.18289 0.08176 0.0
C1106 C 0.86893 0.17596 0.05104 0.0
C1107 C 0.86437 0.19564 0.04286 0.0
C1108 C 0.85181 0.20896 0.05474 0.0
C1109 C 0.84342 0.20269 0.07382 0.0
C1110 C 0.87215 0.20314 0.02218 0.0
C1111 C 0.87979 0.19084 1.00689 0.0
C1112 C 0.8856 0.19837 0.98559 0.0
C1113 C 0.88695 0.18386 0.96923 0.0
C1114 C 0.89135 0.19017 0.94885 0.0
C1115 C 0.89465 0.21122 0.94421 0.0
H1116 H 0.88954 0.23111 0.99318 0.0
C1117 C 0.89405 0.22571 0.96065 0.0
C1118 C 0.88967 0.2194 0.98108 0.0
H1119 H 0.8967 0.24203 0.95773 0.0
H1120 H 0.86406 0.15435 0.07596 0.0
H1121 H 0.87896 0.16532 0.04279 0.0
H1122 H 0.8481 0.22426 0.04907 0.0
H1123 H 0.83352 0.21338 0.08222 0.0
H1124 H 0.87008 0.21948 0.01907 0.0
H1125 H 0.88054 0.17427 1.00941 0.0
H1126 H 0.88415 0.16756 0.97213 0.0
H1127 H 0.89177 0.17851 0.93666 0.0
C1128 C 0.87443 0.33563 0.55913 0.0
C1129 C 0.895 0.33861 0.56608 0.0
C1130 C 0.86936 0.33839 0.53807 0.0
C1131 C 0.88482 0.34398 0.52349 0.0
C1132 C 0.90545 0.34609 0.53039 0.0
C1133 C 0.91045 0.34364 0.55138 0.0
C1134 C 0.88044 0.34727 0.50094 0.0
C1135 C 0.86186 0.35309 0.49318 0.0
C1136 C 0.85838 0.35706 0.4705 0.0
C1137 C 0.84225 0.37025 0.46427 0.0
C1138 C 0.8388 0.37435 0.4431 0.0
C1139 C 0.85134 0.36521 0.42766 0.0
H1140 H 0.88268 0.33678 0.45886 0.0
C1141 C 0.8672 0.35173 0.43392 0.0
C1142 C 0.87061 0.34763 0.45496 0.0
H1143 H 0.87703 0.34415 0.42252 0.0
H1144 H 0.86214 0.33182 0.57006 0.0
H1145 H 0.85338 0.33607 0.53329 0.0
H1146 H 0.91776 0.35013 0.51954 0.0
H1147 H 0.92645 0.34601 0.55615 0.0
H1148 H 0.89367 0.34612 0.49047 0.0
H1149 H 0.84906 0.35615 0.5038 0.0
H1150 H 0.8324 0.37758 0.47583 0.0
H1151 H 0.82636 0.38469 0.43885 0.0
C1152 C 0.64878 0.30908 0.95309 0.0
C1153 C 0.63543 0.32197 0.94181 0.0
C1154 C 0.65536 0.31475 0.97319 0.0
C1155 C 0.6486 0.33339 0.98246 0.0
C1156 C 0.63464 0.34577 0.97143 0.0
C1157 C 0.6283 0.34026 0.95134 0.0
C1158 C 0.65528 0.34042 1.00364 0.0
C1159 C 0.67341 0.33508 1.01263 0.0
C1160 C 0.6803 0.34257 0.03364 0.0
C1161 C 0.69581 0.33154 0.04408 0.0
C1162 C 0.70236 0.33753 0.06401 0.0
C1163 C 0.69367 0.35487 0.07404 0.0
H1164 H 0.66075 0.36989 0.03573 0.0
C1165 C 0.67871 0.36642 0.06333 0.0
C1166 C 0.67214 0.3604 0.04337 0.0
H1167 H 0.67177 0.37994 0.0705 0.0
H1168 H 0.65455 0.29488 0.94621 0.0
H1169 H 0.66562 0.30444 0.98138 0.0
H1170 H 0.62895 0.36006 0.97821 0.0
H1171 H 0.61793 0.35051 0.94317 0.0
H1172 H 0.64492 0.35095 1.01173 0.0
H1173 H 0.68371 0.32456 1.00442 0.0
H1174 H 0.70262 0.31791 0.03696 0.0
H1175 H 0.71392 0.32825 0.07173 0.0
C1176 C 0.91547 0.55063 0.29969 0.0
C1177 C 0.90074 0.5642 0.29128 0.0
C1178 C 0.91131 0.52934 0.30097 0.0
C1179 C 0.89223 0.52106 0.29396 0.0
C1180 C 0.87804 0.53446 0.28446 0.0
C1181 C 0.88219 0.55577 0.2832 0.0
C1182 C 0.88636 0.49876 0.29661 0.0
C1183 C 0.89423 0.48661 0.31168 0.0
C1184 C 0.88666 0.46513 0.31613 0.0
C1185 C 0.88954 0.45709 0.33618 0.0
C1186 C 0.8815 0.43761 0.34156 0.0
C1187 C 0.87056 0.42551 0.3269 0.0
H1188 H 0.87458 0.45788 0.28535 0.0
C1189 C 0.86859 0.43306 0.30651 0.0
C1190 C 0.87654 0.45263 0.30117 0.0
H1191 H 0.86032 0.42415 0.29478 0.0
H1192 H 0.93004 0.55651 0.30586 0.0
H1193 H 0.92305 0.51951 0.30765 0.0
H1194 H 0.86334 0.52853 0.27864 0.0
H1195 H 0.87051 0.56571 0.27655 0.0
H1196 H 0.87381 0.49281 0.28695 0.0
H1197 H 0.90546 0.49319 0.32248 0.0
H1198 H 0.89749 0.46621 0.34799 0.0
H1199 H 0.88339 0.43229 0.35738 0.0
C1200 C 0.45298 0.37443 0.81858 0.0
C1201 C 0.44421 0.38938 0.8319 0.0
C1202 C 0.47375 0.36845 0.82095 0.0
C1203 C 0.48623 0.37738 0.83667 0.0
C1204 C 0.47784 0.39327 0.84903 0.0
C1205 C 0.45704 0.39909 0.84681 0.0
C1206 C 0.50765 0.36991 0.8412 0.0
C1207 C 0.51308 0.34991 0.83867 0.0
C1208 C 0.533 0.34099 0.84616 0.0
C1209 C 0.53316 0.31993 0.85136 0.0
C1210 C 0.55118 0.3107 0.85879 0.0
C1211 C 0.56977 0.32216 0.86088 0.0
H1212 H 0.55219 0.36877 0.84381 0.0
C1213 C 0.56987 0.34319 0.85526 0.0
C1214 C 0.55161 0.35259 0.84808 0.0
H1215 H 0.58397 0.35241 0.8566 0.0
H1216 H 0.4436 0.36672 0.80683 0.0
H1217 H 0.47987 0.35663 0.81066 0.0
H1218 H 0.48713 0.4006 0.86109 0.0
H1219 H 0.45086 0.4108 0.85723 0.0
H1220 H 0.51829 0.38055 0.84899 0.0
H1221 H 0.50158 0.33898 0.8327 0.0
H1222 H 0.51915 0.31056 0.84994 0.0
H1223 H 0.55053 0.29442 0.86276 0.0
C1224 C 0.69143 0.07399 0.34681 0.0
C1225 C 0.71081 0.07114 0.35644 0.0
C1226 C 0.68107 0.05727 0.33709 0.0
C1227 C 0.68997 0.03736 0.33679 0.0
C1228 C 0.70933 0.03469 0.34636 0.0
C1229 C 0.71953 0.05124 0.35612 0.0
C1230 C 0.68005 0.01893 0.32659 0.0
C1231 C 0.65952 0.01688 0.32269 0.0
C1232 C 0.65001 0.99696 0.31533 0.0
C1233 C 0.62974 0.99182 0.32178 0.0
C1234 C 0.62121 0.97226 0.31737 0.0
C1235 C 0.63263 0.95745 0.30607 0.0
H1236 H 0.67634 0.98629 0.29697 0.0
C1237 C 0.65233 0.9631 0.29826 0.0
C1238 C 0.66095 0.98264 0.30286 0.0
H1239 H 0.66151 0.95212 0.28942 0.0
H1240 H 0.68434 0.08915 0.34665 0.0
H1241 H 0.66637 0.06012 0.32955 0.0
H1242 H 0.71664 0.01962 0.34638 0.0
H1243 H 0.73446 0.04838 0.36326 0.0
H1244 H 0.69003 1.0057 0.32377 0.0
H1245 H 0.64905 0.02927 0.32711 0.0
H1246 H 0.62082 1.00261 0.33115 0.0
H1247 H 0.60593 0.96849 0.32349 0.0
C1248 C 0.06698 0.15722 0.7967 0.0
C1249 C 0.08323 0.14781 0.80767 0.0
C1250 C 0.04661 0.15704 0.80466 0.0
C1251 C 0.04207 0.14738 0.82377 0.0
C1252 C 0.05823 0.13749 0.83434 0.0
C1253 C 0.07848 0.13759 0.82637 0.0
C1254 C 0.02139 0.14885 0.83429 0.0
C1255 C 1.00328 0.15269 0.8245 0.0
C1256 C 0.98306 0.15638 0.83555 0.0
C1257 C 0.96653 0.16507 0.8244 0.0
C1258 C 0.94814 0.17096 0.83453 0.0
C1259 C 0.94588 0.16837 0.85612 0.0
H1260 H 0.9918 0.14497 0.86618 0.0
C1261 C 0.9618 0.15849 0.86706 0.0
C1262 C 0.98007 0.1524 0.85692 0.0
H1263 H 0.96042 0.15599 0.88366 0.0
H1264 H 0.07009 0.1653 0.78229 0.0
H1265 H 0.03476 0.16524 0.79621 0.0
H1266 H 0.05528 0.12999 0.84911 0.0
H1267 H 0.09054 0.13013 0.83527 0.0
H1268 H 0.02156 0.14707 0.85103 0.0
H1269 H 1.00331 0.15415 0.80768 0.0
H1270 H 0.96814 0.1681 0.80791 0.0
H1271 H 0.93617 0.17854 0.82561 0.0
C1272 C 0.82334 0.07003 0.14399 0.0
C1273 C 0.83487 0.08051 0.12859 0.0
C1274 C 0.82778 0.04936 0.14894 0.0
C1275 C 0.84379 0.03868 0.13843 0.0
C1276 C 0.8546 0.04898 0.12245 0.0
C1277 C 0.85022 0.06955 0.11758 0.0
C1278 C 0.85112 0.01769 0.14464 0.0
C1279 C 0.84071 1.00446 0.15722 0.0
C1280 C 0.84984 0.98464 0.16473 0.0
C1281 C 0.83663 0.96828 0.1709 0.0
C1282 C 0.84479 0.95004 0.17927 0.0
C1283 C 0.86637 0.94789 0.18194 0.0
H1284 H 0.88221 0.99467 0.16324 0.0
C1285 C 0.87957 0.96417 0.17557 0.0
C1286 C 0.87145 0.98228 0.16713 0.0
H1287 H 0.89626 0.96314 0.17752 0.0
H1288 H 0.81151 0.07806 0.15289 0.0
H1289 H 0.81924 0.04224 0.16156 0.0
H1290 H 0.86699 0.04126 0.11405 0.0
H1291 H 0.85938 0.07706 0.10558 0.0
H1292 H 0.86611 1.01299 0.13845 0.0
H1293 H 0.82497 1.008 0.16214 0.0
H1294 H 0.81992 0.9697 0.16945 0.0
H1295 H 0.83416 0.93789 0.18417 0.0
C1296 C 0.07823 0.39355 0.68167 0.0
C1297 C 0.08966 0.37506 0.68086 0.0
C1298 C 0.05718 0.39379 0.67587 0.0
C1299 C 0.04705 0.37546 0.66921 0.0
C1300 C 0.05858 0.35707 0.66838 0.0
C1301 C 0.07952 0.35684 0.67416 0.0
C1302 C 0.02481 0.37463 0.66243 0.0
C1303 C 1.01054 0.38946 0.66624 0.0
C1304 C 0.9882 0.38728 0.66005 0.0
C1305 C 0.97286 0.39783 0.67149 0.0
C1306 C 0.95167 0.39492 0.66704 0.0
C1307 C 0.94534 0.38146 0.65091 0.0
H1308 H 0.99316 0.36705 0.63332 0.0
C1309 C 0.96076 0.37184 0.6387 0.0
C1310 C 0.98188 0.37477 0.64313 0.0
H1311 H 0.95651 0.36159 0.62596 0.0
H1312 H 0.08557 0.40791 0.68664 0.0
H1313 H 0.04914 0.40842 0.67636 0.0
H1314 H 0.05134 0.3427 0.66325 0.0
H1315 H 0.08777 0.3423 0.67329 0.0
H1316 H 0.01978 0.36043 0.65474 0.0
H1317 H 1.01482 0.40301 0.6754 0.0
H1318 H 0.97722 0.40783 0.68439 0.0
H1319 H 0.94027 0.40263 0.67675 0.0
C1320 C 0.66928 0.45593 0.13953 0.0
C1321 C 0.6632 0.43731 0.14915 0.0
C1322 C 0.66343 0.47511 0.14778 0.0
C1323 C 0.65109 0.47631 0.16591 0.0
C1324 C 0.6445 0.45764 0.1752 0.0
C1325 C 0.65042 0.43837 0.16691 0.0
C1326 C 0.64598 0.49652 0.17632 0.0
C1327 C 0.64841 0.51529 0.16727 0.0
C1328 C 0.64534 0.53566 0.17805 0.0
C1329 C 0.65428 0.55351 0.16913 0.0
C1330 C 0.65222 0.57296 0.17864 0.0
C1331 C 0.64097 0.57518 0.19729 0.0
H1332 H 0.62616 0.52478 0.20379 0.0
C1333 C 0.63166 0.55742 0.20608 0.0
C1334 C 0.63379 0.5379 0.19659 0.0
H1335 H 0.62275 0.55855 0.22037 0.0
H1336 H 0.67919 0.45577 0.12586 0.0
H1337 H 0.66941 0.4888 0.14018 0.0
H1338 H 0.63507 0.45796 0.1892 0.0
H1339 H 0.64553 0.42436 0.1748 0.0
H1340 H 0.64061 0.49572 0.19231 0.0
H1341 H 0.65362 0.51611 0.15124 0.0
H1342 H 0.66316 0.55238 0.15481 0.0
H1343 H 0.65954 0.58626 0.17137 0.0
C1344 C 0.4777 0.1514 0.6808 0.0
C1345 C 0.45878 0.16217 0.68106 0.0
C1346 C 0.49537 0.15985 0.67122 0.0
C1347 C 0.49466 0.17939 0.66168 0.0
C1348 C 0.47577 0.19019 0.66191 0.0
C1349 C 0.45793 0.18158 0.67129 0.0
C1350 C 0.51375 0.1891 0.6525 0.0
C1351 C 0.52877 0.17773 0.64334 0.0
C1352 C 0.54912 0.18601 0.63561 0.0
C1353 C 0.56043 0.17382 0.62147 0.0
C1354 C 0.58082 0.17912 0.61598 0.0
C1355 C 0.59064 0.19671 0.62464 0.0
H1356 H 0.55038 0.21395 0.65465 0.0
C1357 C 0.57902 0.2096 0.63799 0.0
C1358 C 0.55845 0.2043 0.64346 0.0
H1359 H 0.58615 0.22319 0.64504 0.0
H1360 H 0.47896 0.13647 0.68827 0.0
H1361 H 0.50974 0.15127 0.67191 0.0
H1362 H 0.47481 0.20535 0.65486 0.0
H1363 H 0.44365 0.19036 0.67138 0.0
H1364 H 0.51519 0.20587 0.65303 0.0
H1365 H 0.52606 0.1612 0.64126 0.0
H1366 H 0.55371 0.15968 0.61514 0.0
H1367 H 0.58919 0.16886 0.60557 0.0
C1368 C 0.37648 0.8611 0.46996 0.0
C1369 C 0.3761 0.84056 0.46252 0.0
C1370 C 0.37094 0.86576 0.49051 0.0
C1371 C 0.36454 0.84998 0.50424 0.0
C1372 C 0.36479 0.82935 0.49696 0.0
C1373 C 0.3705 0.82467 0.47635 0.0
C1374 C 0.35798 0.85434 0.52624 0.0
C1375 C 0.35267 0.87333 0.53341 0.0
C1376 C 0.34733 0.87805 0.55554 0.0
C1377 C 0.35133 0.89812 0.56322 0.0
C1378 C 0.34722 0.90322 0.58401 0.0
C1379 C 0.33854 0.8885 0.59758 0.0
H1380 H 0.3343 0.84794 0.56348 0.0
C1381 C 0.3337 0.86862 0.58974 0.0
C1382 C 0.33815 0.86339 0.56896 0.0
H1383 H 0.32707 0.85689 0.59982 0.0
H1384 H 0.38099 0.87373 0.45983 0.0
H1385 H 0.37192 0.88177 0.49541 0.0
H1386 H 0.36024 0.8168 0.50717 0.0
H1387 H 0.37004 0.80868 0.47115 0.0
H1388 H 0.35766 0.84135 0.53688 0.0
H1389 H 0.35294 0.88644 0.52297 0.0
H1390 H 0.35817 0.90981 0.55321 0.0
H1391 H 0.3511 0.91867 0.58952 0.0
C1392 C 0.13005 0.82803 0.07552 0.0
C1393 C 0.12806 0.84501 0.08921 0.0
C1394 C 0.13221 0.83116 0.05395 0.0
C1395 C 0.13231 0.85138 0.04564 0.0
C1396 C 0.12966 0.86815 0.0594 0.0
C1397 C 0.12755 0.86504 0.08077 0.0
C1398 C 0.13638 0.85621 0.02321 0.0
C1399 C 0.13626 0.84231 1.0074 0.0
C1400 C 0.14212 0.84766 0.98546 0.0
C1401 C 0.14905 0.8318 0.97214 0.0
C1402 C 0.15622 0.83623 0.95205 0.0
C1403 C 0.15653 0.85669 0.9446 0.0
H1404 H 0.13537 0.88065 0.98692 0.0
C1405 C 0.14854 0.87246 0.95746 0.0
C1406 C 0.14135 0.86802 0.97761 0.0
H1407 H 0.14836 0.88836 0.95219 0.0
H1408 H 0.13061 0.81241 0.08152 0.0
H1409 H 0.13447 0.81774 0.04407 0.0
H1410 H 0.1296 0.88389 0.05363 0.0
H1411 H 0.1259 0.87853 0.09075 0.0
H1412 H 0.14023 0.87223 0.01981 0.0
H1413 H 0.13282 0.82616 1.01062 0.0
H1414 H 0.14958 0.81594 0.97754 0.0
H1415 H 0.16213 0.82363 0.94258 0.0
C1416 C 0.21352 0.69059 0.58111 0.0
C1417 C 0.20639 0.67997 0.59885 0.0
C1418 C 0.19996 0.69553 0.56497 0.0
C1419 C 0.17877 0.69001 0.56608 0.0
C1420 C 0.1715 0.67981 0.58404 0.0
C1421 C 0.18511 0.67498 0.60034 0.0
C1422 C 0.1645 0.69285 0.54799 0.0
C1423 C 0.16781 0.70701 0.53286 0.0
C1424 C 0.1559 0.70789 0.51292 0.0
C1425 C 0.15755 0.72576 0.50056 0.0
C1426 C 0.14892 0.72627 0.48055 0.0
C1427 C 0.13859 0.70879 0.4723 0.0
H1428 H 0.14344 0.67645 0.51362 0.0
C1429 C 0.13624 0.69119 0.48495 0.0
C1430 C 0.14478 0.69071 0.50496 0.0
H1431 H 0.1284 0.67742 0.47913 0.0
H1432 H 0.22982 0.69468 0.57938 0.0
H1433 H 0.20646 0.70285 0.55129 0.0
H1434 H 0.1553 0.67517 0.58529 0.0
H1435 H 0.17913 0.66669 0.61371 0.0
H1436 H 0.15102 0.68264 0.54708 0.0
H1437 H 0.18017 0.71841 0.53486 0.0
H1438 H 0.1661 0.73921 0.50616 0.0
H1439 H 0.1511 0.74006 0.47125 0.0
C1440 C 0.3948 0.72229 0.08228 0.0
C1441 C 0.39376 0.70956 0.09994 0.0
C1442 C 0.39274 0.7138 0.06221 0.0
C1443 C 0.38977 0.69228 0.05934 0.0
C1444 C 0.3893 0.6796 0.07702 0.0
C1445 C 0.39128 0.68807 0.097 0.0
C1446 C 0.38563 0.68246 0.03858 0.0
C1447 C 0.38868 0.69177 0.02003 0.0
C1448 C 0.38261 0.68223 0.99962 0.0
C1449 C 0.39131 0.69017 0.98117 0.0
C1450 C 0.38477 0.68284 0.96165 0.0
C1451 C 0.36921 0.66745 0.96008 0.0
H1452 H 0.35976 0.66022 1.01165 0.0
C1453 C 0.36086 0.65914 0.97853 0.0
C1454 C 0.36738 0.66646 0.99801 0.0
H1455 H 0.34875 0.64737 0.97796 0.0
H1456 H 0.39657 0.73892 0.08395 0.0
H1457 H 0.39282 0.7243 0.04919 0.0
H1458 H 0.387 0.66301 0.07542 0.0
H1459 H 0.39045 0.67774 0.1102 0.0
H1460 H 0.37983 0.66663 0.03879 0.0
H1461 H 0.39603 0.70695 0.01953 0.0
H1462 H 0.40296 0.70239 0.98183 0.0
H1463 H 0.39149 0.68968 0.9478 0.0
loop_
_geom_bond_atom_site_label_1
_geom_bond_atom_site_label_2
_geom_bond_distance
_geom_bond_site_symmetry_2
_ccdc_geom_bond_type
Mg0 O7 2.141 . S
Mg0 O8 2.048 . S
Mg0 O9 2.048 . S
Mg0 O12 2.141 . S
C1 O2 1.313 . S
C1 O8 1.195 . S
O2 C1 1.313 . S
C3 O4 1.245 . S
C3 O12 1.289 . S
O4 C3 1.245 . S
C5 O6 1.245 . S
C5 O7 1.289 . S
O6 C5 1.245 . S
O7 Mg0 2.141 . S
O7 C5 1.289 . S
O8 Mg0 2.048 . S
O8 C1 1.195 . S
O9 Mg0 2.048 . S
O9 C10 1.195 . S
C10 O9 1.195 . S
C10 O11 1.313 . S
O11 C10 1.313 . S
O12 Mg0 2.141 . S
O12 C3 1.289 . S
Mg13 O20 2.141 . S
Mg13 O21 2.048 . S
Mg13 O22 2.048 . S
Mg13 O25 2.141 . S
C14 O15 1.313 . S
C14 O21 1.195 . S
O15 C14 1.313 . S
C16 O17 1.245 . S
C16 O25 1.289 . S
O17 C16 1.245 . S
C18 O19 1.245 . S
C18 O20 1.289 . S
O19 C18 1.245 . S
O20 Mg13 2.141 . S
O20 C18 1.289 . S
O21 Mg13 2.048 . S
O21 C14 1.195 . S
O22 Mg13 2.048 . S
O22 C23 1.195 . S
C23 O22 1.195 . S
C23 O24 1.313 . S
O24 C23 1.313 . S
O25 Mg13 2.141 . S
O25 C16 1.289 . S
Mg26 O33 2.141 . S
Mg26 O34 2.048 . S
Mg26 O35 2.048 . S
Mg26 O38 2.141 . S
C27 O28 1.313 . S
C27 O34 1.195 . S
O28 C27 1.313 . S
C29 O30 1.245 . S
C29 O38 1.289 . S
O30 C29 1.245 . S
C31 O32 1.245 . S
C31 O33 1.289 . S
O32 C31 1.245 . S
O33 Mg26 2.141 . S
O33 C31 1.289 . S
O34 Mg26 2.048 . S
O34 C27 1.195 . S
O35 Mg26 2.048 . S
O35 C36 1.195 . S
C36 O35 1.195 . S
C36 O37 1.313 . S
O37 C36 1.313 . S
O38 Mg26 2.141 . S
O38 C29 1.289 . S
Mg39 O46 2.141 . S
Mg39 O47 2.048 . S
Mg39 O48 2.048 . S
Mg39 O51 2.141 . S
C40 O41 1.313 . S
C40 O47 1.195 . S
O41 C40 1.313 . S
C42 O43 1.245 . S
C42 O51 1.289 . S
O43 C42 1.245 . S
C44 O45 1.245 . S
C44 O46 1.289 . S
O45 C44 1.245 . S
O46 Mg39 2.141 . S
O46 C44 1.289 . S
O47 Mg39 2.048 . S
O47 C40 1.195 . S
O48 Mg39 2.048 . S
O48 C49 1.195 . S
C49 O48 1.195 . S
C49 O50 1.313 . S
O50 C49 1.313 . S
O51 Mg39 2.141 . S
O51 C42 1.289 . S
Mg52 O59 2.141 . S
Mg52 O60 2.048 . S
Mg52 O61 2.048 . S
Mg52 O64 2.141 . S
C53 O54 1.313 . S
C53 O60 1.195 . S
O54 C53 1.313 . S
C55 O56 1.245 . S
C55 O64 1.289 . S
O56 C55 1.245 . S
C57 O58 1.245 . S
C57 O59 1.289 . S
O58 C57 1.245 . S
O59 Mg52 2.141 . S
O59 C57 1.289 . S
O60 Mg52 2.048 . S
O60 C53 1.195 . S
O61 Mg52 2.048 . S
O61 C62 1.195 . S
C62 O61 1.195 . S
C62 O63 1.313 . S
O63 C62 1.313 . S
O64 Mg52 2.141 . S
O64 C55 1.289 . S
Mg65 O72 2.141 . S
Mg65 O73 2.048 . S
Mg65 O74 2.048 . S
Mg65 O77 2.141 . S
C66 O67 1.313 . S
C66 O73 1.195 . S
O67 C66 1.313 . S
C68 O69 1.245 . S
C68 O77 1.289 . S
O69 C68 1.245 . S
C70 O71 1.245 . S
C70 O72 1.289 . S
O71 C70 1.245 . S
O72 Mg65 2.141 . S
O72 C70 1.289 . S
O73 Mg65 2.048 . S
O73 C66 1.195 . S
O74 Mg65 2.048 . S
O74 C75 1.195 . S
C75 O74 1.195 . S
C75 O76 1.313 . S
O76 C75 1.313 . S
O77 Mg65 2.141 . S
O77 C68 1.289 . S
Mg78 O85 2.141 . S
Mg78 O86 2.048 . S
Mg78 O87 2.048 . S
Mg78 O90 2.141 . S
C79 O80 1.313 . S
C79 O86 1.195 . S
O80 C79 1.313 . S
C81 O82 1.245 . S
C81 O90 1.289 . S
O82 C81 1.245 . S
C83 O84 1.245 . S
C83 O85 1.289 . S
O84 C83 1.245 . S
O85 Mg78 2.141 . S
O85 C83 1.289 . S
O86 Mg78 2.048 . S
O86 C79 1.195 . S
O87 Mg78 2.048 . S
O87 C88 1.195 . S
C88 O87 1.195 . S
C88 O89 1.313 . S
O89 C88 1.313 . S
O90 Mg78 2.141 . S
O90 C81 1.289 . S
Mg91 O98 2.141 . S
Mg91 O99 2.048 . S
Mg91 O100 2.048 . S
Mg91 O103 2.141 . S
C92 O93 1.313 . S
C92 O99 1.195 . S
O93 C92 1.313 . S
C94 O95 1.245 . S
C94 O103 1.289 . S
O95 C94 1.245 . S
C96 O97 1.245 . S
C96 O98 1.289 . S
O97 C96 1.245 . S
O98 Mg91 2.141 . S
O98 C96 1.289 . S
O99 Mg91 2.048 . S
O99 C92 1.195 . S
O100 Mg91 2.048 . S
O100 C101 1.195 . S
C101 O100 1.195 . S
C101 O102 1.313 . S
O102 C101 1.313 . S
O103 Mg91 2.141 . S
O103 C94 1.289 . S
Mg104 O111 2.141 . S
Mg104 O112 2.048 . S
Mg104 O113 2.048 . S
Mg104 O116 2.141 . S
C105 O106 1.313 . S
C105 O112 1.195 . S
O106 C105 1.313 . S
C107 O108 1.245 . S
C107 O116 1.289 . S
O108 C107 1.245 . S
C109 O110 1.245 . S
C109 O111 1.289 . S
O110 C109 1.245 . S
O111 Mg104 2.141 . S
O111 C109 1.289 . S
O112 Mg104 2.048 . S
O112 C105 1.195 . S
O113 Mg104 2.048 . S
O113 C114 1.195 . S
C114 O113 1.195 . S
C114 O115 1.313 . S
O115 C114 1.313 . S
O116 Mg104 2.141 . S
O116 C107 1.289 . S
Mg117 O124 2.141 . S
Mg117 O125 2.048 . S
Mg117 O126 2.048 . S
Mg117 O129 2.141 . S
C118 O119 1.313 . S
C118 O125 1.195 . S
O119 C118 1.313 . S
C120 O121 1.245 . S
C120 O129 1.289 . S
O121 C120 1.245 . S
C122 O123 1.245 . S
C122 O124 1.289 . S
O123 C122 1.245 . S
O124 Mg117 2.141 . S
O124 C122 1.289 . S
O125 Mg117 2.048 . S
O125 C118 1.195 . S
O126 Mg117 2.048 . S
O126 C127 1.195 . S
C127 O126 1.195 . S
C127 O128 1.313 . S
O128 C127 1.313 . S
O129 Mg117 2.141 . S
O129 C120 1.289 . S
Mg130 O137 2.141 . S
Mg130 O138 2.048 . S
Mg130 O139 2.048 . S
Mg130 O142 2.141 . S
C131 O132 1.313 . S
C131 O138 1.195 . S
O132 C131 1.313 . S
C133 O134 1.245 . S
C133 O142 1.289 . S
O134 C133 1.245 . S
C135 O136 1.245 . S
C135 O137 1.289 . S
O136 C135 1.245 . S
O137 Mg130 2.141 . S
O137 C135 1.289 . S
O138 Mg130 2.048 . S
O138 C131 1.195 . S
O139 Mg130 2.048 . S
O139 C140 1.195 . S
C140 O139 1.195 . S
C140 O141 1.313 . S
O141 C140 1.313 . S
O142 Mg130 2.141 . S
O142 C133 1.289 . S
Mg143 O150 2.141 . S
Mg143 O151 2.048 . S
Mg143 O152 2.048 . S
Mg143 O155 2.141 . S
C144 O145 1.313 . S
C144 O151 1.195 . S
O145 C144 1.313 . S
C146 O147 1.245 . S
C146 O155 1.289 . S
O147 C146 1.245 . S
C148 O149 1.245 . S
C148 O150 1.289 . S
O149 C148 1.245 . S
O150 Mg143 2.141 . S
O150 C148 1.289 . S
O151 Mg143 2.048 . S
O151 C144 1.195 . S
O152 Mg143 2.048 . S
O152 C153 1.195 . S
C153 O152 1.195 . S
C153 O154 1.313 . S
O154 C153 1.313 . S
O155 Mg143 2.141 . S
O155 C146 1.289 . S
Mg156 O163 2.141 . S
Mg156 O164 2.048 . S
Mg156 O165 2.048 . S
Mg156 O168 2.141 . S
C157 O158 1.313 . S
C157 O164 1.195 . S
O158 C157 1.313 . S
C159 O160 1.245 . S
C159 O168 1.289 . S
O160 C159 1.245 . S
C161 O162 1.245 . S
C161 O163 1.289 . S
O162 C161 1.245 . S
O163 Mg156 2.141 . S
O163 C161 1.289 . S
O164 Mg156 2.048 . S
O164 C157 1.195 . S
O165 Mg156 2.048 . S
O165 C166 1.195 . S
C166 O165 1.195 . S
C166 O167 1.313 . S
O167 C166 1.313 . S
O168 Mg156 2.141 . S
O168 C159 1.289 . S
Mg169 O176 2.141 . S
Mg169 O177 2.048 . S
Mg169 O178 2.048 . S
Mg169 O181 2.141 . S
C170 O171 1.313 . S
C170 O177 1.195 . S
O171 C170 1.313 . S
C172 O173 1.245 . S
C172 O181 1.289 . S
O173 C172 1.245 . S
C174 O175 1.245 . S
C174 O176 1.289 . S
O175 C174 1.245 . S
O176 Mg169 2.141 . S
O176 C174 1.289 . S
O177 Mg169 2.048 . S
O177 C170 1.195 . S
O178 Mg169 2.048 . S
O178 C179 1.195 . S
C179 O178 1.195 . S
C179 O180 1.313 . S
O180 C179 1.313 . S
O181 Mg169 2.141 . S
O181 C172 1.289 . S
Mg182 O189 2.141 . S
Mg182 O190 2.048 . S
Mg182 O191 2.048 . S
Mg182 O194 2.141 . S
C183 O184 1.313 . S
C183 O190 1.195 . S
O184 C183 1.313 . S
C185 O186 1.245 . S
C185 O194 1.289 . S
O186 C185 1.245 . S
C187 O188 1.245 . S
C187 O189 1.289 . S
O188 C187 1.245 . S
O189 Mg182 2.141 . S
O189 C187 1.289 . S
O190 Mg182 2.048 . S
O190 C183 1.195 . S
O191 Mg182 2.048 . S
O191 C192 1.195 . S
C192 O191 1.195 . S
C192 O193 1.313 . S
O193 C192 1.313 . S
O194 Mg182 2.141 . S
O194 C185 1.289 . S
Mg195 O202 2.141 . S
Mg195 O203 2.048 . S
Mg195 O204 2.048 . S
Mg195 O207 2.141 . S
C196 O197 1.313 . S
C196 O203 1.195 . S
O197 C196 1.313 . S
C198 O199 1.245 . S
C198 O207 1.289 . S
O199 C198 1.245 . S
C200 O201 1.245 . S
C200 O202 1.289 . S
O201 C200 1.245 . S
O202 Mg195 2.141 . S
O202 C200 1.289 . S
O203 Mg195 2.048 . S
O203 C196 1.195 . S
O204 Mg195 2.048 . S
O204 C205 1.195 . S
C205 O204 1.195 . S
C205 O206 1.313 . S
O206 C205 1.313 . S
O207 Mg195 2.141 . S
O207 C198 1.289 . S
Mg208 O215 2.141 . S
Mg208 O216 2.048 . S
Mg208 O217 2.048 . S
Mg208 O220 2.141 . S
C209 O210 1.313 . S
C209 O216 1.195 . S
O210 C209 1.313 . S
C211 O212 1.245 . S
C211 O220 1.289 . S
O212 C211 1.245 . S
C213 O214 1.245 . S
C213 O215 1.289 . S
O214 C213 1.245 . S
O215 Mg208 2.141 . S
O215 C213 1.289 . S
O216 Mg208 2.048 . S
O216 C209 1.195 . S
O217 Mg208 2.048 . S
O217 C218 1.195 . S
C218 O217 1.195 . S
C218 O219 1.313 . S
O219 C218 1.313 . S
O220 Mg208 2.141 . S
O220 C211 1.289 . S
Mg221 O228 2.141 . S
Mg221 O229 2.048 . S
Mg221 O230 2.048 . S
Mg221 O233 2.141 . S
C222 O223 1.313 . S
C222 O229 1.195 . S
O223 C222 1.313 . S
C224 O225 1.245 . S
C224 O233 1.289 . S
O225 C224 1.245 . S
C226 O227 1.245 . S
C226 O228 1.289 . S
O227 C226 1.245 . S
O228 Mg221 2.141 . S
O228 C226 1.289 . S
O229 Mg221 2.048 . S
O229 C222 1.195 . S
O230 Mg221 2.048 . S
O230 C231 1.195 . S
C231 O230 1.195 . S
C231 O232 1.313 . S
O232 C231 1.313 . S
O233 Mg221 2.141 . S
O233 C224 1.289 . S
Mg234 O241 2.141 . S
Mg234 O242 2.048 . S
Mg234 O243 2.048 . S
Mg234 O246 2.141 . S
C235 O236 1.313 . S
C235 O242 1.195 . S
O236 C235 1.313 . S
C237 O238 1.245 . S
C237 O246 1.289 . S
O238 C237 1.245 . S
C239 O240 1.245 . S
C239 O241 1.289 . S
O240 C239 1.245 . S
O241 Mg234 2.141 . S
O241 C239 1.289 . S
O242 Mg234 2.048 . S
O242 C235 1.195 . S
O243 Mg234 2.048 . S
O243 C244 1.195 . S
C244 O243 1.195 . S
C244 O245 1.313 . S
O245 C244 1.313 . S
O246 Mg234 2.141 . S
O246 C237 1.289 . S
Mg247 O254 2.141 . S
Mg247 O255 2.048 . S
Mg247 O256 2.048 . S
Mg247 O259 2.141 . S
C248 O249 1.313 . S
C248 O255 1.195 . S
O249 C248 1.313 . S
C250 O251 1.245 . S
C250 O259 1.289 . S
O251 C250 1.245 . S
C252 O253 1.245 . S
C252 O254 1.289 . S
O253 C252 1.245 . S
O254 Mg247 2.141 . S
O254 C252 1.289 . S
O255 Mg247 2.048 . S
O255 C248 1.195 . S
O256 Mg247 2.048 . S
O256 C257 1.195 . S
C257 O256 1.195 . S
C257 O258 1.313 . S
O258 C257 1.313 . S
O259 Mg247 2.141 . S
O259 C250 1.289 . S
Mg260 O267 2.141 . S
Mg260 O268 2.048 . S
Mg260 O269 2.048 . S
Mg260 O272 2.141 . S
C261 O262 1.313 . S
C261 O268 1.195 . S
O262 C261 1.313 . S
C263 O264 1.245 . S
C263 O272 1.289 . S
O264 C263 1.245 . S
C265 O266 1.245 . S
C265 O267 1.289 . S
O266 C265 1.245 . S
O267 Mg260 2.141 . S
O267 C265 1.289 . S
O268 Mg260 2.048 . S
O268 C261 1.195 . S
O269 Mg260 2.048 . S
O269 C270 1.195 . S
C270 O269 1.195 . S
C270 O271 1.313 . S
O271 C270 1.313 . S
O272 Mg260 2.141 . S
O272 C263 1.289 . S
Mg273 O280 2.141 . S
Mg273 O281 2.048 . S
Mg273 O282 2.048 . S
Mg273 O285 2.141 . S
C274 O275 1.313 . S
C274 O281 1.195 . S
O275 C274 1.313 . S
C276 O277 1.245 . S
C276 O285 1.289 . S
O277 C276 1.245 . S
C278 O279 1.245 . S
C278 O280 1.289 . S
O279 C278 1.245 . S
O280 Mg273 2.141 . S
O280 C278 1.289 . S
O281 Mg273 2.048 . S
O281 C274 1.195 . S
O282 Mg273 2.048 . S
O282 C283 1.195 . S
C283 O282 1.195 . S
C283 O284 1.313 . S
O284 C283 1.313 . S
O285 Mg273 2.141 . S
O285 C276 1.289 . S
Mg286 O293 2.141 . S
Mg286 O294 2.048 . S
Mg286 O295 2.048 . S
Mg286 O298 2.141 . S
C287 O288 1.313 . S
C287 O294 1.195 . S
O288 C287 1.313 . S
C289 O290 1.245 . S
C289 O298 1.289 . S
O290 C289 1.245 . S
C291 O292 1.245 . S
C291 O293 1.289 . S
O292 C291 1.245 . S
O293 Mg286 2.141 . S
O293 C291 1.289 . S
O294 Mg286 2.048 . S
O294 C287 1.195 . S
O295 Mg286 2.048 . S
O295 C296 1.195 . S
C296 O295 1.195 . S
C296 O297 1.313 . S
O297 C296 1.313 . S
O298 Mg286 2.141 . S
O298 C289 1.289 . S
Mg299 O306 2.141 . S
Mg299 O307 2.048 . S
Mg299 O308 2.048 . S
Mg299 O311 2.141 . S
C300 O301 1.313 . S
C300 O307 1.195 . S
O301 C300 1.313 . S
C302 O303 1.245 . S
C302 O311 1.289 . S
O303 C302 1.245 . S
C304 O305 1.245 . S
C304 O306 1.289 . S
O305 C304 1.245 . S
O306 Mg299 2.141 . S
O306 C304 1.289 . S
O307 Mg299 2.048 . S
O307 C300 1.195 . S
O308 Mg299 2.048 . S
O308 C309 1.195 . S
C309 O308 1.195 . S
C309 O310 1.313 . S
O310 C309 1.313 . S
O311 Mg299 2.141 . S
O311 C302 1.289 . S
C312 C313 1.386 . S
C312 C314 1.383 . S
C312 H328 0.951 . S
C313 C312 1.386 . S
C313 C317 1.383 . S
C314 C312 1.383 . S
C314 C315 1.402 . S
C314 H329 0.951 . S
C315 C314 1.402 . S
C315 C316 1.375 . S
C315 C318 1.481 . S
C316 C315 1.375 . S
C316 C317 1.367 . S
C316 H330 0.951 . S
C317 C313 1.383 . S
C317 C316 1.367 . S
C317 H331 0.950 . S
C318 C315 1.481 . S
C318 C319 1.297 . S
C318 H332 0.950 . S
C319 C318 1.297 . S
C319 C320 1.479 . S
C319 H333 0.950 . S
C320 C319 1.479 . S
C320 C321 1.375 . S
C320 C326 1.404 . S
C321 C320 1.375 . S
C321 C322 1.369 . S
C321 H334 0.950 . S
C322 C321 1.369 . S
C322 C323 1.392 . S
C322 H335 0.951 . S
C323 C322 1.392 . S
C323 C325 1.384 . S
H324 C326 0.949 . S
C325 C323 1.384 . S
C325 C326 1.385 . S
C325 H327 0.950 . S
C326 C320 1.404 . S
C326 H324 0.949 . S
C326 C325 1.385 . S
H327 C325 0.950 . S
H328 C312 0.951 . S
H329 C314 0.951 . S
H330 C316 0.951 . S
H331 C317 0.950 . S
H332 C318 0.950 . S
H333 C319 0.950 . S
H334 C321 0.950 . S
H335 C322 0.951 . S
C336 C337 1.386 . S
C336 C338 1.383 . S
C336 H352 0.951 . S
C337 C336 1.386 . S
C337 C341 1.383 . S
C338 C336 1.383 . S
C338 C339 1.402 . S
C338 H353 0.951 . S
C339 C338 1.402 . S
C339 C340 1.375 . S
C339 C342 1.481 . S
C340 C339 1.375 . S
C340 C341 1.367 . S
C340 H354 0.951 . S
C341 C337 1.383 . S
C341 C340 1.367 . S
C341 H355 0.950 . S
C342 C339 1.481 . S
C342 C343 1.297 . S
C342 H356 0.950 . S
C343 C342 1.297 . S
C343 C344 1.479 . S
C343 H357 0.950 . S
C344 C343 1.479 . S
C344 C345 1.375 . S
C344 C350 1.404 . S
C345 C344 1.375 . S
C345 C346 1.369 . S
C345 H358 0.950 . S
C346 C345 1.369 . S
C346 C347 1.392 . S
C346 H359 0.951 . S
C347 C346 1.392 . S
C347 C349 1.384 . S
H348 C350 0.949 . S
C349 C347 1.384 . S
C349 C350 1.385 . S
C349 H351 0.950 . S
C350 C344 1.404 . S
C350 H348 0.949 . S
C350 C349 1.385 . S
H351 C349 0.950 . S
H352 C336 0.951 . S
H353 C338 0.951 . S
H354 C340 0.951 . S
H355 C341 0.950 . S
H356 C342 0.950 . S
H357 C343 0.950 . S
H358 C345 0.950 . S
H359 C346 0.951 . S
C360 C361 1.386 . S
C360 C362 1.383 . S
C360 H376 0.951 . S
C361 C360 1.386 . S
C361 C365 1.383 . S
C362 C360 1.383 . S
C362 C363 1.402 . S
C362 H377 0.951 . S
C363 C362 1.402 . S
C363 C364 1.375 . S
C363 C366 1.481 . S
C364 C363 1.375 . S
C364 C365 1.367 . S
C364 H378 0.951 . S
C365 C361 1.383 . S
C365 C364 1.367 . S
C365 H379 0.950 . S
C366 C363 1.481 . S
C366 C367 1.297 . S
C366 H380 0.950 . S
C367 C366 1.297 . S
C367 C368 1.479 . S
C367 H381 0.950 . S
C368 C367 1.479 . S
C368 C369 1.375 . S
C368 C374 1.404 . S
C369 C368 1.375 . S
C369 C370 1.369 . S
C369 H382 0.950 . S
C370 C369 1.369 . S
C370 C371 1.392 . S
C370 H383 0.951 . S
C371 C370 1.392 . S
C371 C373 1.384 . S
H372 C374 0.949 . S
C373 C371 1.384 . S
C373 C374 1.385 . S
C373 H375 0.950 . S
C374 C368 1.404 . S
C374 H372 0.949 . S
C374 C373 1.385 . S
H375 C373 0.950 . S
H376 C360 0.951 . S
H377 C362 0.951 . S
H378 C364 0.951 . S
H379 C365 0.950 . S
H380 C366 0.950 . S
H381 C367 0.950 . S
H382 C369 0.950 . S
H383 C370 0.951 . S
C384 C385 1.386 . S
C384 C386 1.383 . S
C384 H400 0.951 . S
C385 C384 1.386 . S
C385 C389 1.383 . S
C386 C384 1.383 . S
C386 C387 1.402 . S
C386 H401 0.951 . S
C387 C386 1.402 . S
C387 C388 1.375 . S
C387 C390 1.481 . S
C388 C387 1.375 . S
C388 C389 1.367 . S
C388 H402 0.951 . S
C389 C385 1.383 . S
C389 C388 1.367 . S
C389 H403 0.950 . S
C390 C387 1.481 . S
C390 C391 1.297 . S
C390 H404 0.950 . S
C391 C390 1.297 . S
C391 C392 1.479 . S
C391 H405 0.950 . S
C392 C391 1.479 . S
C392 C393 1.375 . S
C392 C398 1.404 . S
C393 C392 1.375 . S
C393 C394 1.369 . S
C393 H406 0.950 . S
C394 C393 1.369 . S
C394 C395 1.392 . S
C394 H407 0.951 . S
C395 C394 1.392 . S
C395 C397 1.384 . S
H396 C398 0.949 . S
C397 C395 1.384 . S
C397 C398 1.385 . S
C397 H399 0.950 . S
C398 C392 1.404 . S
C398 H396 0.949 . S
C398 C397 1.385 . S
H399 C397 0.950 . S
H400 C384 0.951 . S
H401 C386 0.951 . S
H402 C388 0.951 . S
H403 C389 0.950 . S
H404 C390 0.950 . S
H405 C391 0.950 . S
H406 C393 0.950 . S
H407 C394 0.951 . S
C408 C409 1.386 . S
C408 C410 1.383 . S
C408 H424 0.951 . S
C409 C408 1.386 . S
C409 C413 1.383 . S
C410 C408 1.383 . S
C410 C411 1.402 . S
C410 H425 0.951 . S
C411 C410 1.402 . S
C411 C412 1.375 . S
C411 C414 1.481 . S
C412 C411 1.375 . S
C412 C413 1.367 . S
C412 H426 0.951 . S
C413 C409 1.383 . S
C413 C412 1.367 . S
C413 H427 0.950 . S
C414 C411 1.481 . S
C414 C415 1.297 . S
C414 H428 0.950 . S
C415 C414 1.297 . S
C415 C416 1.479 . S
C415 H429 0.950 . S
C416 C415 1.479 . S
C416 C417 1.375 . S
C416 C422 1.404 . S
C417 C416 1.375 . S
C417 C418 1.369 . S
C417 H430 0.950 . S
C418 C417 1.369 . S
C418 C419 1.392 . S
C418 H431 0.951 . S
C419 C418 1.392 . S
C419 C421 1.384 . S
H420 C422 0.949 . S
C421 C419 1.384 . S
C421 C422 1.385 . S
C421 H423 0.950 . S
C422 C416 1.404 . S
C422 H420 0.949 . S
C422 C421 1.385 . S
H423 C421 0.950 . S
H424 C408 0.951 . S
H425 C410 0.951 . S
H426 C412 0.951 . S
H427 C413 0.950 . S
H428 C414 0.950 . S
H429 C415 0.950 . S
H430 C417 0.950 . S
H431 C418 0.951 . S
C432 C433 1.386 . S
C432 C434 1.383 . S
C432 H448 0.951 . S
C433 C432 1.386 . S
C433 C437 1.383 . S
C434 C432 1.383 . S
C434 C435 1.402 . S
C434 H449 0.951 . S
C435 C434 1.402 . S
C435 C436 1.375 . S
C435 C438 1.481 . S
C436 C435 1.375 . S
C436 C437 1.367 . S
C436 H450 0.951 . S
C437 C433 1.383 . S
C437 C436 1.367 . S
C437 H451 0.950 . S
C438 C435 1.481 . S
C438 C439 1.297 . S
C438 H452 0.950 . S
C439 C438 1.297 . S
C439 C440 1.479 . S
C439 H453 0.950 . S
C440 C439 1.479 . S
C440 C441 1.375 . S
C440 C446 1.404 . S
C441 C440 1.375 . S
C441 C442 1.369 . S
C441 H454 0.950 . S
C442 C441 1.369 . S
C442 C443 1.392 . S
C442 H455 0.951 . S
C443 C442 1.392 . S
C443 C445 1.384 . S
H444 C446 0.949 . S
C445 C443 1.384 . S
C445 C446 1.385 . S
C445 H447 0.950 . S
C446 C440 1.404 . S
C446 H444 0.949 . S
C446 C445 1.385 . S
H447 C445 0.950 . S
H448 C432 0.951 . S
H449 C434 0.951 . S
H450 C436 0.951 . S
H451 C437 0.950 . S
H452 C438 0.950 . S
H453 C439 0.950 . S
H454 C441 0.950 . S
H455 C442 0.951 . S
C456 C457 1.386 . S
C456 C458 1.383 . S
C456 H472 0.951 . S
C457 C456 1.386 . S
C457 C461 1.383 . S
C458 C456 1.383 . S
C458 C459 1.402 . S
C458 H473 0.951 . S
C459 C458 1.402 . S
C459 C460 1.375 . S
C459 C462 1.481 . S
C460 C459 1.375 . S
C460 C461 1.367 . S
C460 H474 0.951 . S
C461 C457 1.383 . S
C461 C460 1.367 . S
C461 H475 0.950 . S
C462 C459 1.481 . S
C462 C463 1.297 . S
C462 H476 0.950 . S
C463 C462 1.297 . S
C463 C464 1.479 . S
C463 H477 0.950 . S
C464 C463 1.479 . S
C464 C465 1.375 . S
C464 C470 1.404 . S
C465 C464 1.375 . S
C465 C466 1.369 . S
C465 H478 0.950 . S
C466 C465 1.369 . S
C466 C467 1.392 . S
C466 H479 0.951 . S
C467 C466 1.392 . S
C467 C469 1.384 . S
H468 C470 0.949 . S
C469 C467 1.384 . S
C469 C470 1.385 . S
C469 H471 0.950 . S
C470 C464 1.404 . S
C470 H468 0.949 . S
C470 C469 1.385 . S
H471 C469 0.950 . S
H472 C456 0.951 . S
H473 C458 0.951 . S
H474 C460 0.951 . S
H475 C461 0.950 . S
H476 C462 0.950 . S
H477 C463 0.950 . S
H478 C465 0.950 . S
H479 C466 0.951 . S
C480 C481 1.386 . S
C480 C482 1.383 . S
C480 H496 0.951 . S
C481 C480 1.386 . S
C481 C485 1.383 . S
C482 C480 1.383 . S
C482 C483 1.402 . S
C482 H497 0.951 . S
C483 C482 1.402 . S
C483 C484 1.375 . S
C483 C486 1.481 . S
C484 C483 1.375 . S
C484 C485 1.367 . S
C484 H498 0.951 . S
C485 C481 1.383 . S
C485 C484 1.367 . S
C485 H499 0.950 . S
C486 C483 1.481 . S
C486 C487 1.297 . S
C486 H500 0.950 . S
C487 C486 1.297 . S
C487 C488 1.479 . S
C487 H501 0.950 . S
C488 C487 1.479 . S
C488 C489 1.375 . S
C488 C494 1.404 . S
C489 C488 1.375 . S
C489 C490 1.369 . S
C489 H502 0.950 . S
C490 C489 1.369 . S
C490 C491 1.392 . S
C490 H503 0.951 . S
C491 C490 1.392 . S
C491 C493 1.384 . S
H492 C494 0.949 . S
C493 C491 1.384 . S
C493 C494 1.385 . S
C493 H495 0.950 . S
C494 C488 1.404 . S
C494 H492 0.949 . S
C494 C493 1.385 . S
H495 C493 0.950 . S
H496 C480 0.951 . S
H497 C482 0.951 . S
H498 C484 0.951 . S
H499 C485 0.950 . S
H500 C486 0.950 . S
H501 C487 0.950 . S
H502 C489 0.950 . S
H503 C490 0.951 . S
C504 C505 1.386 . S
C504 C506 1.383 . S
C504 H520 0.951 . S
C505 C504 1.386 . S
C505 C509 1.383 . S
C506 C504 1.383 . S
C506 C507 1.402 . S
C506 H521 0.951 . S
C507 C506 1.402 . S
C507 C508 1.375 . S
C507 C510 1.481 . S
C508 C507 1.375 . S
C508 C509 1.367 . S
C508 H522 0.951 . S
C509 C505 1.383 . S
C509 C508 1.367 . S
C509 H523 0.950 . S
C510 C507 1.481 . S
C510 C511 1.297 . S
C510 H524 0.950 . S
C511 C510 1.297 . S
C511 C512 1.479 . S
C511 H525 0.950 . S
C512 C511 1.479 . S
C512 C513 1.375 . S
C512 C518 1.404 . S
C513 C512 1.375 . S
C513 C514 1.369 . S
C513 H526 0.950 . S
C514 C513 1.369 . S
C514 C515 1.392 . S
C514 H527 0.951 . S
C515 C514 1.392 . S
C515 C517 1.384 . S
H516 C518 0.949 . S
C517 C515 1.384 . S
C517 C518 1.385 . S
C517 H519 0.950 . S
C518 C512 1.404 . S
C518 H516 0.949 . S
C518 C517 1.385 . S
H519 C517 0.950 . S
H520 C504 0.951 . S
H521 C506 0.951 . S
H522 C508 0.951 . S
H523 C509 0.950 . S
H524 C510 0.950 . S
H525 C511 0.950 . S
H526 C513 0.950 . S
H527 C514 0.951 . S
C528 C529 1.386 . S
C528 C530 1.383 . S
C528 H544 0.951 . S
C529 C528 1.386 . S
C529 C533 1.383 . S
C530 C528 1.383 . S
C530 C531 1.402 . S
C530 H545 0.951 . S
C531 C530 1.402 . S
C531 C532 1.375 . S
C531 C534 1.481 . S
C532 C531 1.375 . S
C532 C533 1.367 . S
C532 H546 0.951 . S
C533 C529 1.383 . S
C533 C532 1.367 . S
C533 H547 0.950 . S
C534 C531 1.481 . S
C534 C535 1.297 . S
C534 H548 0.950 . S
C535 C534 1.297 . S
C535 C536 1.479 . S
C535 H549 0.950 . S
C536 C535 1.479 . S
C536 C537 1.375 . S
C536 C542 1.404 . S
C537 C536 1.375 . S
C537 C538 1.369 . S
C537 H550 0.950 . S
C538 C537 1.369 . S
C538 C539 1.392 . S
C538 H551 0.951 . S
C539 C538 1.392 . S
C539 C541 1.384 . S
H540 C542 0.949 . S
C541 C539 1.384 . S
C541 C542 1.385 . S
C541 H543 0.950 . S
C542 C536 1.404 . S
C542 H540 0.949 . S
C542 C541 1.385 . S
H543 C541 0.950 . S
H544 C528 0.951 . S
H545 C530 0.951 . S
H546 C532 0.951 . S
H547 C533 0.950 . S
H548 C534 0.950 . S
H549 C535 0.950 . S
H550 C537 0.950 . S
H551 C538 0.951 . S
C552 C553 1.386 . S
C552 C554 1.383 . S
C552 H568 0.951 . S
C553 C552 1.386 . S
C553 C557 1.383 . S
C554 C552 1.383 . S
C554 C555 1.402 . S
C554 H569 0.951 . S
C555 C554 1.402 . S
C555 C556 1.375 . S
C555 C558 1.481 . S
C556 C555 1.375 . S
C556 C557 1.367 . S
C556 H570 0.951 . S
C557 C553 1.383 . S
C557 C556 1.367 . S
C557 H571 0.950 . S
C558 C555 1.481 . S
C558 C559 1.297 . S
C558 H572 0.950 . S
C559 C558 1.297 . S
C559 C560 1.479 . S
C559 H573 0.950 . S
C560 C559 1.479 . S
C560 C561 1.375 . S
C560 C566 1.404 . S
C561 C560 1.375 . S
C561 C562 1.369 . S
C561 H574 0.950 . S
C562 C561 1.369 . S
C562 C563 1.392 . S
C562 H575 0.951 . S
C563 C562 1.392 . S
C563 C565 1.384 . S
H564 C566 0.949 . S
C565 C563 1.384 . S
C565 C566 1.385 . S
C565 H567 0.950 . S
C566 C560 1.404 . S
C566 H564 0.949 . S
C566 C565 1.385 . S
H567 C565 0.950 . S
H568 C552 0.951 . S
H569 C554 0.951 . S
H570 C556 0.951 . S
H571 C557 0.950 . S
H572 C558 0.950 . S
H573 C559 0.950 . S
H574 C561 0.950 . S
H575 C562 0.951 . S
C576 C577 1.386 . S
C576 C578 1.383 . S
C576 H592 0.951 . S
C577 C576 1.386 . S
C577 C581 1.383 . S
C578 C576 1.383 . S
C578 C579 1.402 . S
C578 H593 0.951 . S
C579 C578 1.402 . S
C579 C580 1.375 . S
C579 C582 1.481 . S
C580 C579 1.375 . S
C580 C581 1.367 . S
C580 H594 0.951 . S
C581 C577 1.383 . S
C581 C580 1.367 . S
C581 H595 0.950 . S
C582 C579 1.481 . S
C582 C583 1.297 . S
C582 H596 0.950 . S
C583 C582 1.297 . S
C583 C584 1.479 . S
C583 H597 0.950 . S
C584 C583 1.479 . S
C584 C585 1.375 . S
C584 C590 1.404 . S
C585 C584 1.375 . S
C585 C586 1.369 . S
C585 H598 0.950 . S
C586 C585 1.369 . S
C586 C587 1.392 . S
C586 H599 0.951 . S
C587 C586 1.392 . S
C587 C589 1.384 . S
H588 C590 0.949 . S
C589 C587 1.384 . S
C589 C590 1.385 . S
C589 H591 0.950 . S
C590 C584 1.404 . S
C590 H588 0.949 . S
C590 C589 1.385 . S
H591 C589 0.950 . S
H592 C576 0.951 . S
H593 C578 0.951 . S
H594 C580 0.951 . S
H595 C581 0.950 . S
H596 C582 0.950 . S
H597 C583 0.950 . S
H598 C585 0.950 . S
H599 C586 0.951 . S
C600 C601 1.386 . S
C600 C602 1.383 . S
C600 H616 0.951 . S
C601 C600 1.386 . S
C601 C605 1.383 . S
C602 C600 1.383 . S
C602 C603 1.402 . S
C602 H617 0.951 . S
C603 C602 1.402 . S
C603 C604 1.375 . S
C603 C606 1.481 . S
C604 C603 1.375 . S
C604 C605 1.367 . S
C604 H618 0.951 . S
C605 C601 1.383 . S
C605 C604 1.367 . S
C605 H619 0.950 . S
C606 C603 1.481 . S
C606 C607 1.297 . S
C606 H620 0.950 . S
C607 C606 1.297 . S
C607 C608 1.479 . S
C607 H621 0.950 . S
C608 C607 1.479 . S
C608 C609 1.375 . S
C608 C614 1.404 . S
C609 C608 1.375 . S
C609 C610 1.369 . S
C609 H622 0.950 . S
C610 C609 1.369 . S
C610 C611 1.392 . S
C610 H623 0.951 . S
C611 C610 1.392 . S
C611 C613 1.384 . S
H612 C614 0.949 . S
C613 C611 1.384 . S
C613 C614 1.385 . S
C613 H615 0.950 . S
C614 C608 1.404 . S
C614 H612 0.949 . S
C614 C613 1.385 . S
H615 C613 0.950 . S
H616 C600 0.951 . S
H617 C602 0.951 . S
H618 C604 0.951 . S
H619 C605 0.950 . S
H620 C606 0.950 . S
H621 C607 0.950 . S
H622 C609 0.950 . S
H623 C610 0.951 . S
C624 C625 1.386 . S
C624 C626 1.383 . S
C624 H640 0.951 . S
C625 C624 1.386 . S
C625 C629 1.383 . S
C626 C624 1.383 . S
C626 C627 1.402 . S
C626 H641 0.951 . S
C627 C626 1.402 . S
C627 C628 1.375 . S
C627 C630 1.481 . S
C628 C627 1.375 . S
C628 C629 1.367 . S
C628 H642 0.951 . S
C629 C625 1.383 . S
C629 C628 1.367 . S
C629 H643 0.950 . S
C630 C627 1.481 . S
C630 C631 1.297 . S
C630 H644 0.950 . S
C631 C630 1.297 . S
C631 C632 1.479 . S
C631 H645 0.950 . S
C632 C631 1.479 . S
C632 C633 1.375 . S
C632 C638 1.404 . S
C633 C632 1.375 . S
C633 C634 1.369 . S
C633 H646 0.950 . S
C634 C633 1.369 . S
C634 C635 1.392 . S
C634 H647 0.951 . S
C635 C634 1.392 . S
C635 C637 1.384 . S
H636 C638 0.949 . S
C637 C635 1.384 . S
C637 C638 1.385 . S
C637 H639 0.950 . S
C638 C632 1.404 . S
C638 H636 0.949 . S
C638 C637 1.385 . S
H639 C637 0.950 . S
H640 C624 0.951 . S
H641 C626 0.951 . S
H642 C628 0.951 . S
H643 C629 0.950 . S
H644 C630 0.950 . S
H645 C631 0.950 . S
H646 C633 0.950 . S
H647 C634 0.951 . S
C648 C649 1.386 . S
C648 C650 1.383 . S
C648 H664 0.951 . S
C649 C648 1.386 . S
C649 C653 1.383 . S
C650 C648 1.383 . S
C650 C651 1.402 . S
C650 H665 0.951 . S
C651 C650 1.402 . S
C651 C652 1.375 . S
C651 C654 1.481 . S
C652 C651 1.375 . S
C652 C653 1.367 . S
C652 H666 0.951 . S
C653 C649 1.383 . S
C653 C652 1.367 . S
C653 H667 0.950 . S
C654 C651 1.481 . S
C654 C655 1.297 . S
C654 H668 0.950 . S
C655 C654 1.297 . S
C655 C656 1.479 . S
C655 H669 0.950 . S
C656 C655 1.479 . S
C656 C657 1.375 . S
C656 C662 1.404 . S
C657 C656 1.375 . S
C657 C658 1.369 . S
C657 H670 0.950 . S
C658 C657 1.369 . S
C658 C659 1.392 . S
C658 H671 0.951 . S
C659 C658 1.392 . S
C659 C661 1.384 . S
H660 C662 0.949 . S
C661 C659 1.384 . S
C661 C662 1.385 . S
C661 H663 0.950 . S
C662 C656 1.404 . S
C662 H660 0.949 . S
C662 C661 1.385 . S
H663 C661 0.950 . S
H664 C648 0.951 . S
H665 C650 0.951 . S
H666 C652 0.951 . S
H667 C653 0.950 . S
H668 C654 0.950 . S
H669 C655 0.950 . S
H670 C657 0.950 . S
H671 C658 0.951 . S
C672 C673 1.386 . S
C672 C674 1.383 . S
C672 H688 0.951 . S
C673 C672 1.386 . S
C673 C677 1.383 . S
C674 C672 1.383 . S
C674 C675 1.402 . S
C674 H689 0.951 . S
C675 C674 1.402 . S
C675 C676 1.375 . S
C675 C678 1.481 . S
C676 C675 1.375 . S
C676 C677 1.367 . S
C676 H690 0.951 . S
C677 C673 1.383 . S
C677 C676 1.367 . S
C677 H691 0.950 . S
C678 C675 1.481 . S
C678 C679 1.297 . S
C678 H692 0.950 . S
C679 C678 1.297 . S
C679 C680 1.479 . S
C679 H693 0.950 . S
C680 C679 1.479 . S
C680 C681 1.375 . S
C680 C686 1.404 . S
C681 C680 1.375 . S
C681 C682 1.369 . S
C681 H694 0.950 . S
C682 C681 1.369 . S
C682 C683 1.392 . S
C682 H695 0.951 . S
C683 C682 1.392 . S
C683 C685 1.384 . S
H684 C686 0.949 . S
C685 C683 1.384 . S
C685 C686 1.385 . S
C685 H687 0.950 . S
C686 C680 1.404 . S
C686 H684 0.949 . S
C686 C685 1.385 . S
H687 C685 0.950 . S
H688 C672 0.951 . S
H689 C674 0.951 . S
H690 C676 0.951 . S
H691 C677 0.950 . S
H692 C678 0.950 . S
H693 C679 0.950 . S
H694 C681 0.950 . S
H695 C682 0.951 . S
C696 C697 1.386 . S
C696 C698 1.383 . S
C696 H712 0.951 . S
C697 C696 1.386 . S
C697 C701 1.383 . S
C698 C696 1.383 . S
C698 C699 1.402 . S
C698 H713 0.951 . S
C699 C698 1.402 . S
C699 C700 1.375 . S
C699 C702 1.481 . S
C700 C699 1.375 . S
C700 C701 1.367 . S
C700 H714 0.951 . S
C701 C697 1.383 . S
C701 C700 1.367 . S
C701 H715 0.950 . S
C702 C699 1.481 . S
C702 C703 1.297 . S
C702 H716 0.950 . S
C703 C702 1.297 . S
C703 C704 1.479 . S
C703 H717 0.950 . S
C704 C703 1.479 . S
C704 C705 1.375 . S
C704 C710 1.404 . S
C705 C704 1.375 . S
C705 C706 1.369 . S
C705 H718 0.950 . S
C706 C705 1.369 . S
C706 C707 1.392 . S
C706 H719 0.951 . S
C707 C706 1.392 . S
C707 C709 1.384 . S
H708 C710 0.949 . S
C709 C707 1.384 . S
C709 C710 1.385 . S
C709 H711 0.950 . S
C710 C704 1.404 . S
C710 H708 0.949 . S
C710 C709 1.385 . S
H711 C709 0.950 . S
H712 C696 0.951 . S
H713 C698 0.951 . S
H714 C700 0.951 . S
H715 C701 0.950 . S
H716 C702 0.950 . S
H717 C703 0.950 . S
H718 C705 0.950 . S
H719 C706 0.951 . S
C720 C721 1.386 . S
C720 C722 1.383 . S
C720 H736 0.951 . S
C721 C720 1.386 . S
C721 C725 1.383 . S
C722 C720 1.383 . S
C722 C723 1.402 . S
C722 H737 0.951 . S
C723 C722 1.402 . S
C723 C724 1.375 . S
C723 C726 1.481 . S
C724 C723 1.375 . S
C724 C725 1.367 . S
C724 H738 0.951 . S
C725 C721 1.383 . S
C725 C724 1.367 . S
C725 H739 0.950 . S
C726 C723 1.481 . S
C726 C727 1.297 . S
C726 H740 0.950 . S
C727 C726 1.297 . S
C727 C728 1.479 . S
C727 H741 0.950 . S
C728 C727 1.479 . S
C728 C729 1.375 . S
C728 C734 1.404 . S
C729 C728 1.375 . S
C729 C730 1.369 . S
C729 H742 0.950 . S
C730 C729 1.369 . S
C730 C731 1.392 . S
C730 H743 0.951 . S
C731 C730 1.392 . S
C731 C733 1.384 . S
H732 C734 0.949 . S
C733 C731 1.384 . S
C733 C734 1.385 . S
C733 H735 0.950 . S
C734 C728 1.404 . S
C734 H732 0.949 . S
C734 C733 1.385 . S
H735 C733 0.950 . S
H736 C720 0.951 . S
H737 C722 0.951 . S
H738 C724 0.951 . S
H739 C725 0.950 . S
H740 C726 0.950 . S
H741 C727 0.950 . S
H742 C729 0.950 . S
H743 C730 0.951 . S
C744 C745 1.386 . S
C744 C746 1.383 . S
C744 H760 0.951 . S
C745 C744 1.386 . S
C745 C749 1.383 . S
C746 C744 1.383 . S
C746 C747 1.402 . S
C746 H761 0.951 . S
C747 C746 1.402 . S
C747 C748 1.375 . S
C747 C750 1.481 . S
C748 C747 1.375 . S
C748 C749 1.367 . S
C748 H762 0.951 . S
C749 C745 1.383 . S
C749 C748 1.367 . S
C749 H763 0.950 . S
C750 C747 1.481 . S
C750 C751 1.297 . S
C750 H764 0.950 . S
C751 C750 1.297 . S
C751 C752 1.479 . S
C751 H765 0.950 . S
C752 C751 1.479 . S
C752 C753 1.375 . S
C752 C758 1.404 . S
C753 C752 1.375 . S
C753 C754 1.369 . S
C753 H766 0.950 . S
C754 C753 1.369 . S
C754 C755 1.392 . S
C754 H767 0.951 . S
C755 C754 1.392 . S
C755 C757 1.384 . S
H756 C758 0.949 . S
C757 C755 1.384 . S
C757 C758 1.385 . S
C757 H759 0.950 . S
C758 C752 1.404 . S
C758 H756 0.949 . S
C758 C757 1.385 . S
H759 C757 0.950 . S
H760 C744 0.951 . S
H761 C746 0.951 . S
H762 C748 0.951 . S
H763 C749 0.950 . S
H764 C750 0.950 . S
H765 C751 0.950 . S
H766 C753 0.950 . S
H767 C754 0.951 . S
C768 C769 1.386 . S
C768 C770 1.383 . S
C768 H784 0.951 . S
C769 C768 1.386 . S
C769 C773 1.383 . S
C770 C768 1.383 . S
C770 C771 1.402 . S
C770 H785 0.951 . S
C771 C770 1.402 . S
C771 C772 1.375 . S
C771 C774 1.481 . S
C772 C771 1.375 . S
C772 C773 1.367 . S
C772 H786 0.951 . S
C773 C769 1.383 . S
C773 C772 1.367 . S
C773 H787 0.950 . S
C774 C771 1.481 . S
C774 C775 1.297 . S
C774 H788 0.950 . S
C775 C774 1.297 . S
C775 C776 1.479 . S
C775 H789 0.950 . S
C776 C775 1.479 . S
C776 C777 1.375 . S
C776 C782 1.404 . S
C777 C776 1.375 . S
C777 C778 1.369 . S
C777 H790 0.950 . S
C778 C777 1.369 . S
C778 C779 1.392 . S
C778 H791 0.951 . S
C779 C778 1.392 . S
C779 C781 1.384 . S
H780 C782 0.949 . S
C781 C779 1.384 . S
C781 C782 1.385 . S
C781 H783 0.950 . S
C782 C776 1.404 . S
C782 H780 0.949 . S
C782 C781 1.385 . S
H783 C781 0.950 . S
H784 C768 0.951 . S
H785 C770 0.951 . S
H786 C772 0.951 . S
H787 C773 0.950 . S
H788 C774 0.950 . S
H789 C775 0.950 . S
H790 C777 0.950 . S
H791 C778 0.951 . S
C792 C793 1.386 . S
C792 C794 1.383 . S
C792 H808 0.951 . S
C793 C792 1.386 . S
C793 C797 1.383 . S
C794 C792 1.383 . S
C794 C795 1.402 . S
C794 H809 0.951 . S
C795 C794 1.402 . S
C795 C796 1.375 . S
C795 C798 1.481 . S
C796 C795 1.375 . S
C796 C797 1.367 . S
C796 H810 0.951 . S
C797 C793 1.383 . S
C797 C796 1.367 . S
C797 H811 0.950 . S
C798 C795 1.481 . S
C798 C799 1.297 . S
C798 H812 0.950 . S
C799 C798 1.297 . S
C799 C800 1.479 . S
C799 H813 0.950 . S
C800 C799 1.479 . S
C800 C801 1.375 . S
C800 C806 1.404 . S
C801 C800 1.375 . S
C801 C802 1.369 . S
C801 H814 0.950 . S
C802 C801 1.369 . S
C802 C803 1.392 . S
C802 H815 0.951 . S
C803 C802 1.392 . S
C803 C805 1.384 . S
H804 C806 0.949 . S
C805 C803 1.384 . S
C805 C806 1.385 . S
C805 H807 0.950 . S
C806 C800 1.404 . S
C806 H804 0.949 . S
C806 C805 1.385 . S
H807 C805 0.950 . S
H808 C792 0.951 . S
H809 C794 0.951 . S
H810 C796 0.951 . S
H811 C797 0.950 . S
H812 C798 0.950 . S
H813 C799 0.950 . S
H814 C801 0.950 . S
H815 C802 0.951 . S
C816 C817 1.386 . S
C816 C818 1.383 . S
C816 H832 0.951 . S
C817 C816 1.386 . S
C817 C821 1.383 . S
C818 C816 1.383 . S
C818 C819 1.402 . S
C818 H833 0.951 . S
C819 C818 1.402 . S
C819 C820 1.375 . S
C819 C822 1.481 . S
C820 C819 1.375 . S
C820 C821 1.367 . S
C820 H834 0.951 . S
C821 C817 1.383 . S
C821 C820 1.367 . S
C821 H835 0.950 . S
C822 C819 1.481 . S
C822 C823 1.297 . S
C822 H836 0.950 . S
C823 C822 1.297 . S
C823 C824 1.479 . S
C823 H837 0.950 . S
C824 C823 1.479 . S
C824 C825 1.375 . S
C824 C830 1.404 . S
C825 C824 1.375 . S
C825 C826 1.369 . S
C825 H838 0.950 . S
C826 C825 1.369 . S
C826 C827 1.392 . S
C826 H839 0.951 . S
C827 C826 1.392 . S
C827 C829 1.384 . S
H828 C830 0.949 . S
C829 C827 1.384 . S
C829 C830 1.385 . S
C829 H831 0.950 . S
C830 C824 1.404 . S
C830 H828 0.949 . S
C830 C829 1.385 . S
H831 C829 0.950 . S
H832 C816 0.951 . S
H833 C818 0.951 . S
H834 C820 0.951 . S
H835 C821 0.950 . S
H836 C822 0.950 . S
H837 C823 0.950 . S
H838 C825 0.950 . S
H839 C826 0.951 . S
C840 C841 1.386 . S
C840 C842 1.383 . S
C840 H856 0.951 . S
C841 C840 1.386 . S
C841 C845 1.383 . S
C842 C840 1.383 . S
C842 C843 1.402 . S
C842 H857 0.951 . S
C843 C842 1.402 . S
C843 C844 1.375 . S
C843 C846 1.481 . S
C844 C843 1.375 . S
C844 C845 1.367 . S
C844 H858 0.951 . S
C845 C841 1.383 . S
C845 C844 1.367 . S
C845 H859 0.950 . S
C846 C843 1.481 . S
C846 C847 1.297 . S
C846 H860 0.950 . S
C847 C846 1.297 . S
C847 C848 1.479 . S
C847 H861 0.950 . S
C848 C847 1.479 . S
C848 C849 1.375 . S
C848 C854 1.404 . S
C849 C848 1.375 . S
C849 C850 1.369 . S
C849 H862 0.950 . S
C850 C849 1.369 . S
C850 C851 1.392 . S
C850 H863 0.951 . S
C851 C850 1.392 . S
C851 C853 1.384 . S
H852 C854 0.949 . S
C853 C851 1.384 . S
C853 C854 1.385 . S
C853 H855 0.950 . S
C854 C848 1.404 . S
C854 H852 0.949 . S
C854 C853 1.385 . S
H855 C853 0.950 . S
H856 C840 0.951 . S
H857 C842 0.951 . S
H858 C844 0.951 . S
H859 C845 0.950 . S
H860 C846 0.950 . S
H861 C847 0.950 . S
H862 C849 0.950 . S
H863 C850 0.951 . S
C864 C865 1.386 . S
C864 C866 1.383 . S
C864 H880 0.951 . S
C865 C864 1.386 . S
C865 C869 1.383 . S
C866 C864 1.383 . S
C866 C867 1.402 . S
C866 H881 0.951 . S
C867 C866 1.402 . S
C867 C868 1.375 . S
C867 C870 1.481 . S
C868 C867 1.375 . S
C868 C869 1.367 . S
C868 H882 0.951 . S
C869 C865 1.383 . S
C869 C868 1.367 . S
C869 H883 0.950 . S
C870 C867 1.481 . S
C870 C871 1.297 . S
C870 H884 0.950 . S
C871 C870 1.297 . S
C871 C872 1.479 . S
C871 H885 0.950 . S
C872 C871 1.479 . S
C872 C873 1.375 . S
C872 C878 1.404 . S
C873 C872 1.375 . S
C873 C874 1.369 . S
C873 H886 0.950 . S
C874 C873 1.369 . S
C874 C875 1.392 . S
C874 H887 0.951 . S
C875 C874 1.392 . S
C875 C877 1.384 . S
H876 C878 0.949 . S
C877 C875 1.384 . S
C877 C878 1.385 . S
C877 H879 0.950 . S
C878 C872 1.404 . S
C878 H876 0.949 . S
C878 C877 1.385 . S
H879 C877 0.950 . S
H880 C864 0.951 . S
H881 C866 0.951 . S
H882 C868 0.951 . S
H883 C869 0.950 . S
H884 C870 0.950 . S
H885 C871 0.950 . S
H886 C873 0.950 . S
H887 C874 0.951 . S
C888 C889 1.386 . S
C888 C890 1.383 . S
C888 H904 0.951 . S
C889 C888 1.386 . S
C889 C893 1.383 . S
C890 C888 1.383 . S
C890 C891 1.402 . S
C890 H905 0.951 . S
C891 C890 1.402 . S
C891 C892 1.375 . S
C891 C894 1.481 . S
C892 C891 1.375 . S
C892 C893 1.367 . S
C892 H906 0.951 . S
C893 C889 1.383 . S
C893 C892 1.367 . S
C893 H907 0.950 . S
C894 C891 1.481 . S
C894 C895 1.297 . S
C894 H908 0.950 . S
C895 C894 1.297 . S
C895 C896 1.479 . S
C895 H909 0.950 . S
C896 C895 1.479 . S
C896 C897 1.375 . S
C896 C902 1.404 . S
C897 C896 1.375 . S
C897 C898 1.369 . S
C897 H910 0.950 . S
C898 C897 1.369 . S
C898 C899 1.392 . S
C898 H911 0.951 . S
C899 C898 1.392 . S
C899 C901 1.384 . S
H900 C902 0.949 . S
C901 C899 1.384 . S
C901 C902 1.385 . S
C901 H903 0.950 . S
C902 C896 1.404 . S
C902 H900 0.949 . S
C902 C901 1.385 . S
H903 C901 0.950 . S
H904 C888 0.951 . S
H905 C890 0.951 . S
H906 C892 0.951 . S
H907 C893 0.950 . S
H908 C894 0.950 . S
H909 C895 0.950 . S
H910 C897 0.950 . S
H911 C898 0.951 . S
C912 C913 1.386 . S
C912 C914 1.383 . S
C912 H928 0.951 . S
C913 C912 1.386 . S
C913 C917 1.383 . S
C914 C912 1.383 . S
C914 C915 1.402 . S
C914 H929 0.951 . S
C915 C914 1.402 . S
C915 C916 1.375 . S
C915 C918 1.481 . S
C916 C915 1.375 . S
C916 C917 1.367 . S
C916 H930 0.951 . S
C917 C913 1.383 . S
C917 C916 1.367 . S
C917 H931 0.950 . S
C918 C915 1.481 . S
C918 C919 1.297 . S
C918 H932 0.950 . S
C919 C918 1.297 . S
C919 C920 1.479 . S
C919 H933 0.950 . S
C920 C919 1.479 . S
C920 C921 1.375 . S
C920 C926 1.404 . S
C921 C920 1.375 . S
C921 C922 1.369 . S
C921 H934 0.950 . S
C922 C921 1.369 . S
C922 C923 1.392 . S
C922 H935 0.951 . S
C923 C922 1.392 . S
C923 C925 1.384 . S
H924 C926 0.949 . S
C925 C923 1.384 . S
C925 C926 1.385 . S
C925 H927 0.950 . S
C926 C920 1.404 . S
C926 H924 0.949 . S
C926 C925 1.385 . S
H927 C925 0.950 . S
H928 C912 0.951 . S
H929 C914 0.951 . S
H930 C916 0.951 . S
H931 C917 0.950 . S
H932 C918 0.950 . S
H933 C919 0.950 . S
H934 C921 0.950 . S
H935 C922 0.951 . S
C936 C937 1.386 . S
C936 C938 1.383 . S
C936 H952 0.951 . S
C937 C936 1.386 . S
C937 C941 1.383 . S
C938 C936 1.383 . S
C938 C939 1.402 . S
C938 H953 0.951 . S
C939 C938 1.402 . S
C939 C940 1.375 . S
C939 C942 1.481 . S
C940 C939 1.375 . S
C940 C941 1.367 . S
C940 H954 0.951 . S
C941 C937 1.383 . S
C941 C940 1.367 . S
C941 H955 0.950 . S
C942 C939 1.481 . S
C942 C943 1.297 1_565 S
C942 H956 0.950 1_565 S
C943 C942 1.297 1_545 S
C943 C944 1.479 . S
C943 H957 0.950 1_545 S
C944 C943 1.479 . S
C944 C945 1.375 . S
C944 C950 1.404 . S
C945 C944 1.375 . S
C945 C946 1.369 . S
C945 H958 0.950 . S
C946 C945 1.369 . S
C946 C947 1.392 . S
C946 H959 0.951 . S
C947 C946 1.392 . S
C947 C949 1.384 . S
H948 C950 0.949 . S
C949 C947 1.384 . S
C949 C950 1.385 . S
C949 H951 0.950 . S
C950 C944 1.404 . S
C950 H948 0.949 . S
C950 C949 1.385 . S
H951 C949 0.950 . S
H952 C936 0.951 . S
H953 C938 0.951 . S
H954 C940 0.951 . S
H955 C941 0.950 . S
H956 C942 0.950 1_545 S
H957 C943 0.950 1_565 S
H958 C945 0.950 . S
H959 C946 0.951 . S
C960 C961 1.386 . S
C960 C962 1.383 . S
C960 H976 0.951 . S
C961 C960 1.386 . S
C961 C965 1.383 . S
C962 C960 1.383 . S
C962 C963 1.402 . S
C962 H977 0.951 . S
C963 C962 1.402 . S
C963 C964 1.375 . S
C963 C966 1.481 . S
C964 C963 1.375 . S
C964 C965 1.367 . S
C964 H978 0.951 . S
C965 C961 1.383 . S
C965 C964 1.367 . S
C965 H979 0.950 . S
C966 C963 1.481 . S
C966 C967 1.297 1_455 S
C966 H980 0.950 . S
C967 C966 1.297 1_655 S
C967 C968 1.479 . S
C967 H981 0.948 1_655 S
C968 C967 1.479 . S
C968 C969 1.375 . S
C968 C974 1.404 . S
C969 C968 1.375 . S
C969 C970 1.369 . S
C969 H982 0.950 . S
C970 C969 1.369 . S
C970 C971 1.392 . S
C970 H983 0.951 . S
C971 C970 1.392 . S
C971 C973 1.384 . S
H972 C974 0.949 . S
C973 C971 1.384 . S
C973 C974 1.385 . S
C973 H975 0.950 . S
C974 C968 1.404 . S
C974 H972 0.949 . S
C974 C973 1.385 . S
H975 C973 0.950 . S
H976 C960 0.951 . S
H977 C962 0.951 . S
H978 C964 0.951 . S
H979 C965 0.950 . S
H980 C966 0.950 . S
H981 C967 0.948 1_455 S
H982 C969 0.950 . S
H983 C970 0.951 . S
C984 C985 1.386 . S
C984 C986 1.383 . S
C984 H1000 0.951 . S
C985 C984 1.386 . S
C985 C989 1.383 . S
C986 C984 1.383 . S
C986 C987 1.402 . S
C986 H1001 0.951 . S
C987 C986 1.402 . S
C987 C988 1.375 . S
C987 C990 1.481 . S
C988 C987 1.375 . S
C988 C989 1.367 . S
C988 H1002 0.951 . S
C989 C985 1.383 . S
C989 C988 1.367 . S
C989 H1003 0.950 . S
C990 C987 1.481 . S
C990 C991 1.297 1_565 S
C990 H1004 0.950 . S
C991 C990 1.297 1_545 S
C991 C992 1.479 . S
C991 H1005 0.950 . S
C992 C991 1.479 . S
C992 C993 1.375 . S
C992 C998 1.404 . S
C993 C992 1.375 . S
C993 C994 1.369 . S
C993 H1006 0.950 . S
C994 C993 1.369 . S
C994 C995 1.392 . S
C994 H1007 0.951 . S
C995 C994 1.392 . S
C995 C997 1.384 . S
H996 C998 0.949 . S
C997 C995 1.384 . S
C997 C998 1.385 . S
C997 H999 0.950 . S
C998 C992 1.404 . S
C998 H996 0.949 . S
C998 C997 1.385 . S
H999 C997 0.950 . S
H1000 C984 0.951 . S
H1001 C986 0.951 . S
H1002 C988 0.951 . S
H1003 C989 0.950 . S
H1004 C990 0.950 . S
H1005 C991 0.950 . S
H1006 C993 0.950 . S
H1007 C994 0.951 . S
C1008 C1009 1.386 . S
C1008 C1010 1.383 . S
C1008 H1024 0.951 . S
C1009 C1008 1.386 . S
C1009 C1013 1.383 . S
C1010 C1008 1.383 . S
C1010 C1011 1.402 . S
C1010 H1025 0.951 . S
C1011 C1010 1.402 . S
C1011 C1012 1.375 . S
C1011 C1014 1.481 . S
C1012 C1011 1.375 . S
C1012 C1013 1.367 . S
C1012 H1026 0.951 . S
C1013 C1009 1.383 . S
C1013 C1012 1.367 . S
C1013 H1027 0.950 . S
C1014 C1011 1.481 . S
C1014 C1015 1.297 1_655 S
C1014 H1028 0.950 1_655 S
C1015 C1014 1.297 1_455 S
C1015 C1016 1.479 . S
C1015 H1029 0.927 1_455 S
C1016 C1015 1.479 . S
C1016 C1017 1.375 . S
C1016 C1022 1.404 . S
C1017 C1016 1.375 . S
C1017 C1018 1.369 . S
C1017 H1030 0.950 . S
C1018 C1017 1.369 . S
C1018 C1019 1.392 . S
C1018 H1031 0.951 . S
C1019 C1018 1.392 . S
C1019 C1021 1.384 . S
H1020 C1022 0.949 . S
C1021 C1019 1.384 . S
C1021 C1022 1.385 . S
C1021 H1023 0.950 . S
C1022 C1016 1.404 . S
C1022 H1020 0.949 . S
C1022 C1021 1.385 . S
H1023 C1021 0.950 . S
H1024 C1008 0.951 . S
H1025 C1010 0.951 . S
H1026 C1012 0.951 . S
H1027 C1013 0.950 . S
H1028 C1014 0.950 1_455 S
H1029 C1015 0.927 1_655 S
H1030 C1017 0.950 . S
H1031 C1018 0.951 . S
C1032 C1033 1.386 . S
C1032 C1034 1.383 . S
C1032 H1048 0.951 . S
C1033 C1032 1.386 . S
C1033 C1037 1.383 . S
C1034 C1032 1.383 . S
C1034 C1035 1.402 . S
C1034 H1049 0.951 . S
C1035 C1034 1.402 . S
C1035 C1036 1.375 . S
C1035 C1038 1.481 . S
C1036 C1035 1.375 . S
C1036 C1037 1.367 . S
C1036 H1050 0.951 . S
C1037 C1033 1.383 . S
C1037 C1036 1.367 . S
C1037 H1051 0.950 . S
C1038 C1035 1.481 . S
C1038 C1039 1.297 . S
C1038 H1052 0.950 . S
C1039 C1038 1.297 . S
C1039 C1040 1.479 . S
C1039 H1053 0.950 . S
C1040 C1039 1.479 . S
C1040 C1041 1.375 . S
C1040 C1046 1.404 . S
C1041 C1040 1.375 . S
C1041 C1042 1.369 . S
C1041 H1054 0.950 . S
C1042 C1041 1.369 . S
C1042 C1043 1.392 . S
C1042 H1055 0.951 . S
C1043 C1042 1.392 . S
C1043 C1045 1.384 . S
H1044 C1046 0.949 . S
C1045 C1043 1.384 . S
C1045 C1046 1.385 . S
C1045 H1047 0.950 . S
C1046 C1040 1.404 . S
C1046 H1044 0.949 . S
C1046 C1045 1.385 . S
H1047 C1045 0.950 . S
H1048 C1032 0.951 . S
H1049 C1034 0.951 . S
H1050 C1036 0.951 . S
H1051 C1037 0.950 . S
H1052 C1038 0.950 . S
H1053 C1039 0.950 . S
H1054 C1041 0.950 . S
H1055 C1042 0.951 . S
C1056 C1057 1.386 . S
C1056 C1058 1.383 . S
C1056 H1072 0.951 . S
C1057 C1056 1.386 . S
C1057 C1061 1.383 . S
C1058 C1056 1.383 . S
C1058 C1059 1.402 . S
C1058 H1073 0.951 . S
C1059 C1058 1.402 . S
C1059 C1060 1.375 . S
C1059 C1062 1.481 . S
C1060 C1059 1.375 . S
C1060 C1061 1.367 . S
C1060 H1074 0.951 . S
C1061 C1057 1.383 . S
C1061 C1060 1.367 . S
C1061 H1075 0.950 . S
C1062 C1059 1.481 . S
C1062 C1063 1.297 . S
C1062 H1076 0.950 . S
C1063 C1062 1.297 . S
C1063 C1064 1.479 . S
C1063 H1077 0.950 . S
C1064 C1063 1.479 . S
C1064 C1065 1.375 . S
C1064 C1070 1.404 . S
C1065 C1064 1.375 . S
C1065 C1066 1.369 . S
C1065 H1078 0.950 . S
C1066 C1065 1.369 . S
C1066 C1067 1.392 . S
C1066 H1079 0.951 . S
C1067 C1066 1.392 . S
C1067 C1069 1.384 . S
H1068 C1070 0.949 . S
C1069 C1067 1.384 . S
C1069 C1070 1.385 . S
C1069 H1071 0.950 . S
C1070 C1064 1.404 . S
C1070 H1068 0.949 . S
C1070 C1069 1.385 . S
H1071 C1069 0.950 . S
H1072 C1056 0.951 . S
H1073 C1058 0.951 . S
H1074 C1060 0.951 . S
H1075 C1061 0.950 . S
H1076 C1062 0.950 . S
H1077 C1063 0.950 . S
H1078 C1065 0.950 . S
H1079 C1066 0.951 . S
C1080 C1081 1.386 . S
C1080 C1082 1.383 . S
C1080 H1096 0.951 . S
C1081 C1080 1.386 . S
C1081 C1085 1.383 . S
C1082 C1080 1.383 . S
C1082 C1083 1.402 . S
C1082 H1097 0.951 . S
C1083 C1082 1.402 . S
C1083 C1084 1.375 . S
C1083 C1086 1.481 . S
C1084 C1083 1.375 . S
C1084 C1085 1.367 . S
C1084 H1098 0.951 . S
C1085 C1081 1.383 . S
C1085 C1084 1.367 . S
C1085 H1099 0.950 . S
C1086 C1083 1.481 . S
C1086 C1087 1.297 . S
C1086 H1100 0.950 . S
C1087 C1086 1.297 . S
C1087 C1088 1.479 . S
C1087 H1101 0.950 . S
C1088 C1087 1.479 . S
C1088 C1089 1.375 . S
C1088 C1094 1.404 . S
C1089 C1088 1.375 . S
C1089 C1090 1.369 . S
C1089 H1102 0.950 . S
C1090 C1089 1.369 . S
C1090 C1091 1.392 . S
C1090 H1103 0.951 . S
C1091 C1090 1.392 . S
C1091 C1093 1.384 . S
H1092 C1094 0.949 . S
C1093 C1091 1.384 . S
C1093 C1094 1.385 . S
C1093 H1095 0.950 . S
C1094 C1088 1.404 . S
C1094 H1092 0.949 . S
C1094 C1093 1.385 . S
H1095 C1093 0.950 . S
H1096 C1080 0.951 . S
H1097 C1082 0.951 . S
H1098 C1084 0.951 . S
H1099 C1085 0.950 . S
H1100 C1086 0.950 . S
H1101 C1087 0.950 . S
H1102 C1089 0.950 . S
H1103 C1090 0.951 . S
C1104 C1105 1.386 . S
C1104 C1106 1.383 . S
C1104 H1120 0.951 . S
C1105 C1104 1.386 . S
C1105 C1109 1.383 . S
C1106 C1104 1.383 . S
C1106 C1107 1.402 . S
C1106 H1121 0.951 . S
C1107 C1106 1.402 . S
C1107 C1108 1.375 . S
C1107 C1110 1.481 . S
C1108 C1107 1.375 . S
C1108 C1109 1.367 . S
C1108 H1122 0.951 . S
C1109 C1105 1.383 . S
C1109 C1108 1.367 . S
C1109 H1123 0.950 . S
C1110 C1107 1.481 . S
C1110 C1111 1.297 1_554 S
C1110 H1124 0.950 . S
C1111 C1110 1.297 1_556 S
C1111 C1112 1.479 . S
C1111 H1125 0.950 . S
C1112 C1111 1.479 . S
C1112 C1113 1.375 . S
C1112 C1118 1.404 . S
C1113 C1112 1.375 . S
C1113 C1114 1.369 . S
C1113 H1126 0.950 . S
C1114 C1113 1.369 . S
C1114 C1115 1.392 . S
C1114 H1127 0.951 . S
C1115 C1114 1.392 . S
C1115 C1117 1.384 . S
H1116 C1118 0.949 . S
C1117 C1115 1.384 . S
C1117 C1118 1.385 . S
C1117 H1119 0.950 . S
C1118 C1112 1.404 . S
C1118 H1116 0.949 . S
C1118 C1117 1.385 . S
H1119 C1117 0.950 . S
H1120 C1104 0.951 . S
H1121 C1106 0.951 . S
H1122 C1108 0.951 . S
H1123 C1109 0.950 . S
H1124 C1110 0.950 . S
H1125 C1111 0.950 . S
H1126 C1113 0.950 . S
H1127 C1114 0.951 . S
C1128 C1129 1.386 . S
C1128 C1130 1.383 . S
C1128 H1144 0.951 . S
C1129 C1128 1.386 . S
C1129 C1133 1.383 . S
C1130 C1128 1.383 . S
C1130 C1131 1.402 . S
C1130 H1145 0.951 . S
C1131 C1130 1.402 . S
C1131 C1132 1.375 . S
C1131 C1134 1.481 . S
C1132 C1131 1.375 . S
C1132 C1133 1.367 . S
C1132 H1146 0.951 . S
C1133 C1129 1.383 . S
C1133 C1132 1.367 . S
C1133 H1147 0.950 . S
C1134 C1131 1.481 . S
C1134 C1135 1.297 . S
C1134 H1148 0.950 . S
C1135 C1134 1.297 . S
C1135 C1136 1.479 . S
C1135 H1149 0.950 . S
C1136 C1135 1.479 . S
C1136 C1137 1.375 . S
C1136 C1142 1.404 . S
C1137 C1136 1.375 . S
C1137 C1138 1.369 . S
C1137 H1150 0.950 . S
C1138 C1137 1.369 . S
C1138 C1139 1.392 . S
C1138 H1151 0.951 . S
C1139 C1138 1.392 . S
C1139 C1141 1.384 . S
H1140 C1142 0.949 . S
C1141 C1139 1.384 . S
C1141 C1142 1.385 . S
C1141 H1143 0.950 . S
C1142 C1136 1.404 . S
C1142 H1140 0.949 . S
C1142 C1141 1.385 . S
H1143 C1141 0.950 . S
H1144 C1128 0.951 . S
H1145 C1130 0.951 . S
H1146 C1132 0.951 . S
H1147 C1133 0.950 . S
H1148 C1134 0.950 . S
H1149 C1135 0.950 . S
H1150 C1137 0.950 . S
H1151 C1138 0.951 . S
C1152 C1153 1.386 . S
C1152 C1154 1.383 . S
C1152 H1168 0.951 . S
C1153 C1152 1.386 . S
C1153 C1157 1.383 . S
C1154 C1152 1.383 . S
C1154 C1155 1.402 . S
C1154 H1169 0.951 . S
C1155 C1154 1.402 . S
C1155 C1156 1.375 . S
C1155 C1158 1.481 . S
C1156 C1155 1.375 . S
C1156 C1157 1.367 . S
C1156 H1170 0.951 . S
C1157 C1153 1.383 . S
C1157 C1156 1.367 . S
C1157 H1171 0.950 . S
C1158 C1155 1.481 . S
C1158 C1159 1.297 1_556 S
C1158 H1172 0.950 1_556 S
C1159 C1158 1.297 1_554 S
C1159 C1160 1.479 . S
C1159 H1173 0.950 1_554 S
C1160 C1159 1.479 . S
C1160 C1161 1.375 . S
C1160 C1166 1.404 . S
C1161 C1160 1.375 . S
C1161 C1162 1.369 . S
C1161 H1174 0.950 . S
C1162 C1161 1.369 . S
C1162 C1163 1.392 . S
C1162 H1175 0.951 . S
C1163 C1162 1.392 . S
C1163 C1165 1.384 . S
H1164 C1166 0.949 . S
C1165 C1163 1.384 . S
C1165 C1166 1.385 . S
C1165 H1167 0.950 . S
C1166 C1160 1.404 . S
C1166 H1164 0.949 . S
C1166 C1165 1.385 . S
H1167 C1165 0.950 . S
H1168 C1152 0.951 . S
H1169 C1154 0.951 . S
H1170 C1156 0.951 . S
H1171 C1157 0.950 . S
H1172 C1158 0.950 1_554 S
H1173 C1159 0.950 1_556 S
H1174 C1161 0.950 . S
H1175 C1162 0.951 . S
C1176 C1177 1.386 . S
C1176 C1178 1.383 . S
C1176 H1192 0.951 . S
C1177 C1176 1.386 . S
C1177 C1181 1.383 . S
C1178 C1176 1.383 . S
C1178 C1179 1.402 . S
C1178 H1193 0.951 . S
C1179 C1178 1.402 . S
C1179 C1180 1.375 . S
C1179 C1182 1.481 . S
C1180 C1179 1.375 . S
C1180 C1181 1.367 . S
C1180 H1194 0.951 . S
C1181 C1177 1.383 . S
C1181 C1180 1.367 . S
C1181 H1195 0.950 . S
C1182 C1179 1.481 . S
C1182 C1183 1.297 . S
C1182 H1196 0.950 . S
C1183 C1182 1.297 . S
C1183 C1184 1.479 . S
C1183 H1197 0.950 . S
C1184 C1183 1.479 . S
C1184 C1185 1.375 . S
C1184 C1190 1.404 . S
C1185 C1184 1.375 . S
C1185 C1186 1.369 . S
C1185 H1198 0.950 . S
C1186 C1185 1.369 . S
C1186 C1187 1.392 . S
C1186 H1199 0.951 . S
C1187 C1186 1.392 . S
C1187 C1189 1.384 . S
H1188 C1190 0.949 . S
C1189 C1187 1.384 . S
C1189 C1190 1.385 . S
C1189 H1191 0.950 . S
C1190 C1184 1.404 . S
C1190 H1188 0.949 . S
C1190 C1189 1.385 . S
H1191 C1189 0.950 . S
H1192 C1176 0.951 . S
H1193 C1178 0.951 . S
H1194 C1180 0.951 . S
H1195 C1181 0.950 . S
H1196 C1182 0.950 . S
H1197 C1183 0.950 . S
H1198 C1185 0.950 . S
H1199 C1186 0.951 . S
C1200 C1201 1.386 . S
C1200 C1202 1.383 . S
C1200 H1216 0.951 . S
C1201 C1200 1.386 . S
C1201 C1205 1.383 . S
C1202 C1200 1.383 . S
C1202 C1203 1.402 . S
C1202 H1217 0.951 . S
C1203 C1202 1.402 . S
C1203 C1204 1.375 . S
C1203 C1206 1.481 . S
C1204 C1203 1.375 . S
C1204 C1205 1.367 . S
C1204 H1218 0.951 . S
C1205 C1201 1.383 . S
C1205 C1204 1.367 . S
C1205 H1219 0.950 . S
C1206 C1203 1.481 . S
C1206 C1207 1.297 . S
C1206 H1220 0.950 . S
C1207 C1206 1.297 . S
C1207 C1208 1.479 . S
C1207 H1221 0.950 . S
C1208 C1207 1.479 . S
C1208 C1209 1.375 . S
C1208 C1214 1.404 . S
C1209 C1208 1.375 . S
C1209 C1210 1.369 . S
C1209 H1222 0.950 . S
C1210 C1209 1.369 . S
C1210 C1211 1.392 . S
C1210 H1223 0.951 . S
C1211 C1210 1.392 . S
C1211 C1213 1.384 . S
H1212 C1214 0.949 . S
C1213 C1211 1.384 . S
C1213 C1214 1.385 . S
C1213 H1215 0.950 . S
C1214 C1208 1.404 . S
C1214 H1212 0.949 . S
C1214 C1213 1.385 . S
H1215 C1213 0.950 . S
H1216 C1200 0.951 . S
H1217 C1202 0.951 . S
H1218 C1204 0.951 . S
H1219 C1205 0.950 . S
H1220 C1206 0.950 . S
H1221 C1207 0.950 . S
H1222 C1209 0.950 . S
H1223 C1210 0.951 . S
C1224 C1225 1.386 . S
C1224 C1226 1.383 . S
C1224 H1240 0.951 . S
C1225 C1224 1.386 . S
C1225 C1229 1.383 . S
C1226 C1224 1.383 . S
C1226 C1227 1.402 . S
C1226 H1241 0.951 . S
C1227 C1226 1.402 . S
C1227 C1228 1.375 . S
C1227 C1230 1.481 . S
C1228 C1227 1.375 . S
C1228 C1229 1.367 . S
C1228 H1242 0.951 . S
C1229 C1225 1.383 . S
C1229 C1228 1.367 . S
C1229 H1243 0.950 . S
C1230 C1227 1.481 . S
C1230 C1231 1.297 1_545 S
C1230 H1244 0.950 . S
C1231 C1230 1.297 1_565 S
C1231 C1232 1.479 . S
C1231 H1245 0.929 1_565 S
C1232 C1231 1.479 . S
C1232 C1233 1.375 . S
C1232 C1238 1.404 . S
C1233 C1232 1.375 . S
C1233 C1234 1.369 . S
C1233 H1246 0.950 . S
C1234 C1233 1.369 . S
C1234 C1235 1.392 . S
C1234 H1247 0.951 . S
C1235 C1234 1.392 . S
C1235 C1237 1.384 . S
H1236 C1238 0.949 . S
C1237 C1235 1.384 . S
C1237 C1238 1.385 . S
C1237 H1239 0.950 . S
C1238 C1232 1.404 . S
C1238 H1236 0.949 . S
C1238 C1237 1.385 . S
H1239 C1237 0.950 . S
H1240 C1224 0.951 . S
H1241 C1226 0.951 . S
H1242 C1228 0.951 . S
H1243 C1229 0.950 . S
H1244 C1230 0.950 . S
H1245 C1231 0.929 1_545 S
H1246 C1233 0.950 . S
H1247 C1234 0.951 . S
C1248 C1249 1.386 . S
C1248 C1250 1.383 . S
C1248 H1264 0.951 . S
C1249 C1248 1.386 . S
C1249 C1253 1.383 . S
C1250 C1248 1.383 . S
C1250 C1251 1.402 . S
C1250 H1265 0.951 . S
C1251 C1250 1.402 . S
C1251 C1252 1.375 . S
C1251 C1254 1.481 . S
C1252 C1251 1.375 . S
C1252 C1253 1.367 . S
C1252 H1266 0.951 . S
C1253 C1249 1.383 . S
C1253 C1252 1.367 . S
C1253 H1267 0.950 . S
C1254 C1251 1.481 . S
C1254 C1255 1.297 1_455 S
C1254 H1268 0.950 . S
C1255 C1254 1.297 1_655 S
C1255 C1256 1.479 . S
C1255 H1269 0.950 . S
C1256 C1255 1.479 . S
C1256 C1257 1.375 . S
C1256 C1262 1.404 . S
C1257 C1256 1.375 . S
C1257 C1258 1.369 . S
C1257 H1270 0.950 . S
C1258 C1257 1.369 . S
C1258 C1259 1.392 . S
C1258 H1271 0.951 . S
C1259 C1258 1.392 . S
C1259 C1261 1.384 . S
H1260 C1262 0.949 . S
C1261 C1259 1.384 . S
C1261 C1262 1.385 . S
C1261 H1263 0.950 . S
C1262 C1256 1.404 . S
C1262 H1260 0.949 . S
C1262 C1261 1.385 . S
H1263 C1261 0.950 . S
H1264 C1248 0.951 . S
H1265 C1250 0.951 . S
H1266 C1252 0.951 . S
H1267 C1253 0.950 . S
H1268 C1254 0.950 . S
H1269 C1255 0.950 . S
H1270 C1257 0.950 . S
H1271 C1258 0.951 . S
C1272 C1273 1.386 . S
C1272 C1274 1.383 . S
C1272 H1288 0.951 . S
C1273 C1272 1.386 . S
C1273 C1277 1.383 . S
C1274 C1272 1.383 . S
C1274 C1275 1.402 . S
C1274 H1289 0.951 . S
C1275 C1274 1.402 . S
C1275 C1276 1.375 . S
C1275 C1278 1.481 . S
C1276 C1275 1.375 . S
C1276 C1277 1.367 . S
C1276 H1290 0.951 . S
C1277 C1273 1.383 . S
C1277 C1276 1.367 . S
C1277 H1291 0.950 . S
C1278 C1275 1.481 . S
C1278 C1279 1.297 1_545 S
C1278 H1292 0.950 . S
C1279 C1278 1.297 1_565 S
C1279 C1280 1.479 . S
C1279 H1293 0.950 . S
C1280 C1279 1.479 . S
C1280 C1281 1.375 . S
C1280 C1286 1.404 . S
C1281 C1280 1.375 . S
C1281 C1282 1.369 . S
C1281 H1294 0.950 . S
C1282 C1281 1.369 . S
C1282 C1283 1.392 . S
C1282 H1295 0.951 . S
C1283 C1282 1.392 . S
C1283 C1285 1.384 . S
H1284 C1286 0.949 . S
C1285 C1283 1.384 . S
C1285 C1286 1.385 . S
C1285 H1287 0.950 . S
C1286 C1280 1.404 . S
C1286 H1284 0.949 . S
C1286 C1285 1.385 . S
H1287 C1285 0.950 . S
H1288 C1272 0.951 . S
H1289 C1274 0.951 . S
H1290 C1276 0.951 . S
H1291 C1277 0.950 . S
H1292 C1278 0.950 . S
H1293 C1279 0.950 . S
H1294 C1281 0.950 . S
H1295 C1282 0.951 . S
C1296 C1297 1.386 . S
C1296 C1298 1.383 . S
C1296 H1312 0.951 . S
C1297 C1296 1.386 . S
C1297 C1301 1.383 . S
C1298 C1296 1.383 . S
C1298 C1299 1.402 . S
C1298 H1313 0.951 . S
C1299 C1298 1.402 . S
C1299 C1300 1.375 . S
C1299 C1302 1.481 . S
C1300 C1299 1.375 . S
C1300 C1301 1.367 . S
C1300 H1314 0.951 . S
C1301 C1297 1.383 . S
C1301 C1300 1.367 . S
C1301 H1315 0.950 . S
C1302 C1299 1.481 . S
C1302 C1303 1.297 1_455 S
C1302 H1316 0.950 . S
C1303 C1302 1.297 1_655 S
C1303 C1304 1.479 . S
C1303 H1317 0.950 . S
C1304 C1303 1.479 . S
C1304 C1305 1.375 . S
C1304 C1310 1.404 . S
C1305 C1304 1.375 . S
C1305 C1306 1.369 . S
C1305 H1318 0.950 . S
C1306 C1305 1.369 . S
C1306 C1307 1.392 . S
C1306 H1319 0.951 . S
C1307 C1306 1.392 . S
C1307 C1309 1.384 . S
H1308 C1310 0.949 . S
C1309 C1307 1.384 . S
C1309 C1310 1.385 . S
C1309 H1311 0.950 . S
C1310 C1304 1.404 . S
C1310 H1308 0.949 . S
C1310 C1309 1.385 . S
H1311 C1309 0.950 . S
H1312 C1296 0.951 . S
H1313 C1298 0.951 . S
H1314 C1300 0.951 . S
H1315 C1301 0.950 . S
H1316 C1302 0.950 . S
H1317 C1303 0.950 . S
H1318 C1305 0.950 . S
H1319 C1306 0.951 . S
C1320 C1321 1.386 . S
C1320 C1322 1.383 . S
C1320 H1336 0.951 . S
C1321 C1320 1.386 . S
C1321 C1325 1.383 . S
C1322 C1320 1.383 . S
C1322 C1323 1.402 . S
C1322 H1337 0.951 . S
C1323 C1322 1.402 . S
C1323 C1324 1.375 . S
C1323 C1326 1.481 . S
C1324 C1323 1.375 . S
C1324 C1325 1.367 . S
C1324 H1338 0.951 . S
C1325 C1321 1.383 . S
C1325 C1324 1.367 . S
C1325 H1339 0.950 . S
C1326 C1323 1.481 . S
C1326 C1327 1.297 . S
C1326 H1340 0.950 . S
C1327 C1326 1.297 . S
C1327 C1328 1.479 . S
C1327 H1341 0.950 . S
C1328 C1327 1.479 . S
C1328 C1329 1.375 . S
C1328 C1334 1.404 . S
C1329 C1328 1.375 . S
C1329 C1330 1.369 . S
C1329 H1342 0.950 . S
C1330 C1329 1.369 . S
C1330 C1331 1.392 . S
C1330 H1343 0.951 . S
C1331 C1330 1.392 . S
C1331 C1333 1.384 . S
H1332 C1334 0.949 . S
C1333 C1331 1.384 . S
C1333 C1334 1.385 . S
C1333 H1335 0.950 . S
C1334 C1328 1.404 . S
C1334 H1332 0.949 . S
C1334 C1333 1.385 . S
H1335 C1333 0.950 . S
H1336 C1320 0.951 . S
H1337 C1322 0.951 . S
H1338 C1324 0.951 . S
H1339 C1325 0.950 . S
H1340 C1326 0.950 . S
H1341 C1327 0.950 . S
H1342 C1329 0.950 . S
H1343 C1330 0.951 . S
C1344 C1345 1.386 . S
C1344 C1346 1.383 . S
C1344 H1360 0.951 . S
C1345 C1344 1.386 . S
C1345 C1349 1.383 . S
C1346 C1344 1.383 . S
C1346 C1347 1.402 . S
C1346 H1361 0.951 . S
C1347 C1346 1.402 . S
C1347 C1348 1.375 . S
C1347 C1350 1.481 . S
C1348 C1347 1.375 . S
C1348 C1349 1.367 . S
C1348 H1362 0.951 . S
C1349 C1345 1.383 . S
C1349 C1348 1.367 . S
C1349 H1363 0.950 . S
C1350 C1347 1.481 . S
C1350 C1351 1.297 . S
C1350 H1364 0.950 . S
C1351 C1350 1.297 . S
C1351 C1352 1.479 . S
C1351 H1365 0.950 . S
C1352 C1351 1.479 . S
C1352 C1353 1.375 . S
C1352 C1358 1.404 . S
C1353 C1352 1.375 . S
C1353 C1354 1.369 . S
C1353 H1366 0.950 . S
C1354 C1353 1.369 . S
C1354 C1355 1.392 . S
C1354 H1367 0.951 . S
C1355 C1354 1.392 . S
C1355 C1357 1.384 . S
H1356 C1358 0.949 . S
C1357 C1355 1.384 . S
C1357 C1358 1.385 . S
C1357 H1359 0.950 . S
C1358 C1352 1.404 . S
C1358 H1356 0.949 . S
C1358 C1357 1.385 . S
H1359 C1357 0.950 . S
H1360 C1344 0.951 . S
H1361 C1346 0.951 . S
H1362 C1348 0.951 . S
H1363 C1349 0.950 . S
H1364 C1350 0.950 . S
H1365 C1351 0.950 . S
H1366 C1353 0.950 . S
H1367 C1354 0.951 . S
C1368 C1369 1.386 . S
C1368 C1370 1.383 . S
C1368 H1384 0.951 . S
C1369 C1368 1.386 . S
C1369 C1373 1.383 . S
C1370 C1368 1.383 . S
C1370 C1371 1.402 . S
C1370 H1385 0.951 . S
C1371 C1370 1.402 . S
C1371 C1372 1.375 . S
C1371 C1374 1.481 . S
C1372 C1371 1.375 . S
C1372 C1373 1.367 . S
C1372 H1386 0.951 . S
C1373 C1369 1.383 . S
C1373 C1372 1.367 . S
C1373 H1387 0.950 . S
C1374 C1371 1.481 . S
C1374 C1375 1.297 . S
C1374 H1388 0.950 . S
C1375 C1374 1.297 . S
C1375 C1376 1.479 . S
C1375 H1389 0.950 . S
C1376 C1375 1.479 . S
C1376 C1377 1.375 . S
C1376 C1382 1.404 . S
C1377 C1376 1.375 . S
C1377 C1378 1.369 . S
C1377 H1390 0.950 . S
C1378 C1377 1.369 . S
C1378 C1379 1.392 . S
C1378 H1391 0.951 . S
C1379 C1378 1.392 . S
C1379 C1381 1.384 . S
H1380 C1382 0.949 . S
C1381 C1379 1.384 . S
C1381 C1382 1.385 . S
C1381 H1383 0.950 . S
C1382 C1376 1.404 . S
C1382 H1380 0.949 . S
C1382 C1381 1.385 . S
H1383 C1381 0.950 . S
H1384 C1368 0.951 . S
H1385 C1370 0.951 . S
H1386 C1372 0.951 . S
H1387 C1373 0.950 . S
H1388 C1374 0.950 . S
H1389 C1375 0.950 . S
H1390 C1377 0.950 . S
H1391 C1378 0.951 . S
C1392 C1393 1.386 . S
C1392 C1394 1.383 . S
C1392 H1408 0.951 . S
C1393 C1392 1.386 . S
C1393 C1397 1.383 . S
C1394 C1392 1.383 . S
C1394 C1395 1.402 . S
C1394 H1409 0.951 . S
C1395 C1394 1.402 . S
C1395 C1396 1.375 . S
C1395 C1398 1.481 . S
C1396 C1395 1.375 . S
C1396 C1397 1.367 . S
C1396 H1410 0.951 . S
C1397 C1393 1.383 . S
C1397 C1396 1.367 . S
C1397 H1411 0.950 . S
C1398 C1395 1.481 . S
C1398 C1399 1.297 1_554 S
C1398 H1412 0.950 . S
C1399 C1398 1.297 1_556 S
C1399 C1400 1.479 . S
C1399 H1413 0.950 . S
C1400 C1399 1.479 . S
C1400 C1401 1.375 . S
C1400 C1406 1.404 . S
C1401 C1400 1.375 . S
C1401 C1402 1.369 . S
C1401 H1414 0.950 . S
C1402 C1401 1.369 . S
C1402 C1403 1.392 . S
C1402 H1415 0.951 . S
C1403 C1402 1.392 . S
C1403 C1405 1.384 . S
H1404 C1406 0.949 . S
C1405 C1403 1.384 . S
C1405 C1406 1.385 . S
C1405 H1407 0.950 . S
C1406 C1400 1.404 . S
C1406 H1404 0.949 . S
C1406 C1405 1.385 . S
H1407 C1405 0.950 . S
H1408 C1392 0.951 . S
H1409 C1394 0.951 . S
H1410 C1396 0.951 . S
H1411 C1397 0.950 . S
H1412 C1398 0.950 . S
H1413 C1399 0.950 . S
H1414 C1401 0.950 . S
H1415 C1402 0.951 . S
C1416 C1417 1.386 . S
C1416 C1418 1.383 . S
C1416 H1432 0.951 . S
C1417 C1416 1.386 . S
C1417 C1421 1.383 . S
C1418 C1416 1.383 . S
C1418 C1419 1.402 . S
C1418 H1433 0.951 . S
C1419 C1418 1.402 . S
C1419 C1420 1.375 . S
C1419 C1422 1.481 . S
C1420 C1419 1.375 . S
C1420 C1421 1.367 . S
C1420 H1434 0.951 . S
C1421 C1417 1.383 . S
C1421 C1420 1.367 . S
C1421 H1435 0.950 . S
C1422 C1419 1.481 . S
C1422 C1423 1.297 . S
C1422 H1436 0.950 . S
C1423 C1422 1.297 . S
C1423 C1424 1.479 . S
C1423 H1437 0.950 . S
C1424 C1423 1.479 . S
C1424 C1425 1.375 . S
C1424 C1430 1.404 . S
C1425 C1424 1.375 . S
C1425 C1426 1.369 . S
C1425 H1438 0.950 . S
C1426 C1425 1.369 . S
C1426 C1427 1.392 . S
C1426 H1439 0.951 . S
C1427 C1426 1.392 . S
C1427 C1429 1.384 . S
H1428 C1430 0.949 . S
C1429 C1427 1.384 . S
C1429 C1430 1.385 . S
C1429 H1431 0.950 . S
C1430 C1424 1.404 . S
C1430 H1428 0.949 . S
C1430 C1429 1.385 . S
H1431 C1429 0.950 . S
H1432 C1416 0.951 . S
H1433 C1418 0.951 . S
H1434 C1420 0.951 . S
H1435 C1421 0.950 . S
H1436 C1422 0.950 . S
H1437 C1423 0.950 . S
H1438 C1425 0.950 . S
H1439 C1426 0.951 . S
C1440 C1441 1.386 . S
C1440 C1442 1.383 . S
C1440 H1456 0.951 . S
C1441 C1440 1.386 . S
C1441 C1445 1.383 . S
C1442 C1440 1.383 . S
C1442 C1443 1.402 . S
C1442 H1457 0.951 . S
C1443 C1442 1.402 . S
C1443 C1444 1.375 . S
C1443 C1446 1.481 . S
C1444 C1443 1.375 . S
C1444 C1445 1.367 . S
C1444 H1458 0.951 . S
C1445 C1441 1.383 . S
C1445 C1444 1.367 . S
C1445 H1459 0.950 . S
C1446 C1443 1.481 . S
C1446 C1447 1.297 1_554 S
C1446 H1460 0.950 . S
C1447 C1446 1.297 1_556 S
C1447 C1448 1.479 . S
C1447 H1461 0.950 . S
C1448 C1447 1.479 . S
C1448 C1449 1.375 . S
C1448 C1454 1.404 . S
C1449 C1448 1.375 . S
C1449 C1450 1.369 . S
C1449 H1462 0.950 . S
C1450 C1449 1.369 . S
C1450 C1451 1.392 . S
C1450 H1463 0.951 . S
C1451 C1450 1.392 . S
C1451 C1453 1.384 . S
H1452 C1454 0.949 . S
C1453 C1451 1.384 . S
C1453 C1454 1.385 . S
C1453 H1455 0.950 . S
C1454 C1448 1.404 . S
C1454 H1452 0.949 . S
C1454 C1453 1.385 . S
H1455 C1453 0.950 . S
H1456 C1440 0.951 . S
H1457 C1442 0.951 . S
H1458 C1444 0.951 . S
H1459 C1445 0.950 . S
H1460 C1446 0.950 . S
H1461 C1447 0.950 . S
H1462 C1449 0.950 . S
H1463 C1450 0.951 . S
C313 C53 1.521 . S
C323 C10 1.530 . S
C337 C23 1.518 . S
C347 C75 1.499 . S
C361 C88 1.541 . S
C371 C27 1.493 . S
C385 C101 1.524 . S
C395 C40 1.516 . S
C409 C192 1.542 . S
C419 C105 1.505 . S
C433 C205 1.517 . S
C443 C118 1.454 . S
C457 C140 1.517 . S
C467 C157 1.480 . S
C481 C179 1.533 . S
C491 C144 1.530 . S
C505 C209 1.508 . S
C515 C283 1.543 . S
C529 C231 1.532 . S
C539 C257 1.532 . S
C553 C244 1.521 . S
C563 C270 1.512 . S
C577 C287 1.469 . S
C587 C300 1.504 . S
C601 C49 1.520 . S
C611 C66 1.500 . S
C625 C1 1.535 . S
C635 C79 1.530 . S
C649 C92 1.519 . S
C659 C14 1.543 . S
C673 C36 1.521 . S
C683 C62 1.454 . S
C697 C309 1.491 . S
C707 C235 1.526 . S
C721 C248 1.528 . S
C731 C274 1.540 . S
C745 C261 1.530 . S
C755 C296 1.483 . S
C769 C222 1.535 . S
C779 C218 1.471 . S
C793 C153 1.520 . S
C803 C127 1.460 . S
C817 C196 1.542 . S
C827 C170 1.508 . S
C841 C166 1.510 . S
C851 C183 1.510 . S
C865 C131 1.520 . S
C875 C114 1.516 . S
C889 C289 1.604 . S
C899 C5 1.616 . S
C913 C211 1.615 . S
C923 C18 1.624 . S
C937 C302 1.582 . S
C947 C29 1.609 . S
C961 C278 1.628 . S
C971 C42 1.551 . S
C985 C239 1.624 . S
C995 C55 1.575 . S
C1009 C70 1.634 . S
C1019 C252 1.624 . S
C1033 C265 1.634 . S
C1043 C83 1.627 . S
C1057 C226 1.624 . S
C1067 C96 1.618 . S
C1081 C174 1.624 . S
C1091 C107 1.561 . S
C1105 C187 1.624 . S
C1115 C120 1.571 . S
C1129 C200 1.629 . S
C1139 C135 1.627 . S
C1153 C146 1.590 . S
C1163 C159 1.596 . S
C1177 C68 1.632 . S
C1187 C133 1.613 . S
C1201 C81 1.634 . S
C1211 C148 1.607 . S
C1225 C109 1.592 . S
C1235 C94 1.627 . S
C1249 C57 1.615 . S
C1259 C122 1.610 . S
C1273 C185 1.631 . S
C1283 C44 1.621 . S
C1297 C3 1.627 . S
C1307 C198 1.626 . S
C1321 C161 1.613 . S
C1331 C16 1.623 . S
C1345 C31 1.612 . S
C1355 C172 1.622 . S
C1369 C224 1.628 . S
C1379 C304 1.552 . S
C1393 C276 1.628 . S
C1403 C237 1.625 . S
C1417 C291 1.600 . S
C1427 C250 1.616 . S
C1441 C213 1.611 . S
C1451 C263 1.621 . S
