# Generated by pormake.
# Topology zfx, (5)-cn, num edge types: 1
# Building blocks:
#     Node 0, Type 0, BuildingBlock: XOMCOT_clean_sbu_0, # of connection points: 5
#     Node 1, Type 0, BuildingBlock: XOMCOT_clean_sbu_0, # of connection points: 5
#     Node 2, Type 0, BuildingBlock: XOMCOT_clean_sbu_0, # of connection points: 5
#     Node 3, Type 0, BuildingBlock: XOMCOT_clean_sbu_0, # of connection points: 5
#     Node 4, Type 0, BuildingBlock: XOMCOT_clean_sbu_0, # of connection points: 5
#     Node 5, Type 0, BuildingBlock: XOMCOT_clean_sbu_0, # of connection points: 5
#     Node 6, Type 0, BuildingBlock: XOMCOT_clean_sbu_0, # of connection points: 5
#     Node 7, Type 0, BuildingBlock: XOMCOT_clean_sbu_0, # of connection points: 5
#     Node 8, Type 0, BuildingBlock: XOMCOT_clean_sbu_0, # of connection points: 5
#     Node 9, Type 0, BuildingBlock: XOMCOT_clean_sbu_0, # of connection points: 5
#     Node 10, Type 0, BuildingBlock: XOMCOT_clean_sbu_0, # of connection points: 5
#     Node 11, Type 0, BuildingBlock: XOMCOT_clean_sbu_0, # of connection points: 5
#     Node 12, Type 0, BuildingBlock: XOMCOT_clean_sbu_0, # of connection points: 5
#     Node 13, Type 0, BuildingBlock: XOMCOT_clean_sbu_0, # of connection points: 5
#     Node 14, Type 0, BuildingBlock: XOMCOT_clean_sbu_0, # of connection points: 5
#     Node 15, Type 0, BuildingBlock: XOMCOT_clean_sbu_0, # of connection points: 5
#     Edge 16, Type (0, 0), BuildingBlock: AJUNOK_clean_linker_0, # of connection points: 2
#     Edge 17, Type (0, 0), BuildingBlock: AJUNOK_clean_linker_0, # of connection points: 2
#     Edge 18, Type (0, 0), BuildingBlock: AJUNOK_clean_linker_0, # of connection points: 2
#     Edge 19, Type (0, 0), BuildingBlock: AJUNOK_clean_linker_0, # of connection points: 2
#     Edge 20, Type (0, 0), BuildingBlock: AJUNOK_clean_linker_0, # of connection points: 2
#     Edge 21, Type (0, 0), BuildingBlock: AJUNOK_clean_linker_0, # of connection points: 2
#     Edge 22, Type (0, 0), BuildingBlock: AJUNOK_clean_linker_0, # of connection points: 2
#     Edge 23, Type (0, 0), BuildingBlock: AJUNOK_clean_linker_0, # of connection points: 2
#     Edge 24, Type (0, 0), BuildingBlock: AJUNOK_clean_linker_0, # of connection points: 2
#     Edge 25, Type (0, 0), BuildingBlock: AJUNOK_clean_linker_0, # of connection points: 2
#     Edge 26, Type (0, 0), BuildingBlock: AJUNOK_clean_linker_0, # of connection points: 2
#     Edge 27, Type (0, 0), BuildingBlock: AJUNOK_clean_linker_0, # of connection points: 2
#     Edge 28, Type (0, 0), BuildingBlock: AJUNOK_clean_linker_0, # of connection points: 2
#     Edge 29, Type (0, 0), BuildingBlock: AJUNOK_clean_linker_0, # of connection points: 2
#     Edge 30, Type (0, 0), BuildingBlock: AJUNOK_clean_linker_0, # of connection points: 2
#     Edge 31, Type (0, 0), BuildingBlock: AJUNOK_clean_linker_0, # of connection points: 2
#     Edge 32, Type (0, 0), BuildingBlock: AJUNOK_clean_linker_0, # of connection points: 2
#     Edge 33, Type (0, 0), BuildingBlock: AJUNOK_clean_linker_0, # of connection points: 2
#     Edge 34, Type (0, 0), BuildingBlock: AJUNOK_clean_linker_0, # of connection points: 2
#     Edge 35, Type (0, 0), BuildingBlock: AJUNOK_clean_linker_0, # of connection points: 2
#     Edge 36, Type (0, 0), BuildingBlock: AJUNOK_clean_linker_0, # of connection points: 2
#     Edge 37, Type (0, 0), BuildingBlock: AJUNOK_clean_linker_0, # of connection points: 2
#     Edge 38, Type (0, 0), BuildingBlock: AJUNOK_clean_linker_0, # of connection points: 2
#     Edge 39, Type (0, 0), BuildingBlock: AJUNOK_clean_linker_0, # of connection points: 2
#     Edge 40, Type (0, 0), BuildingBlock: AJUNOK_clean_linker_0, # of connection points: 2
#     Edge 41, Type (0, 0), BuildingBlock: AJUNOK_clean_linker_0, # of connection points: 2
#     Edge 42, Type (0, 0), BuildingBlock: AJUNOK_clean_linker_0, # of connection points: 2
#     Edge 43, Type (0, 0), BuildingBlock: AJUNOK_clean_linker_0, # of connection points: 2
#     Edge 44, Type (0, 0), BuildingBlock: AJUNOK_clean_linker_0, # of connection points: 2
#     Edge 45, Type (0, 0), BuildingBlock: AJUNOK_clean_linker_0, # of connection points: 2
#     Edge 46, Type (0, 0), BuildingBlock: AJUNOK_clean_linker_0, # of connection points: 2
#     Edge 47, Type (0, 0), BuildingBlock: AJUNOK_clean_linker_0, # of connection points: 2
#     Edge 48, Type (0, 0), BuildingBlock: AJUNOK_clean_linker_0, # of connection points: 2
#     Edge 49, Type (0, 0), BuildingBlock: AJUNOK_clean_linker_0, # of connection points: 2
#     Edge 50, Type (0, 0), BuildingBlock: AJUNOK_clean_linker_0, # of connection points: 2
#     Edge 51, Type (0, 0), BuildingBlock: AJUNOK_clean_linker_0, # of connection points: 2
#     Edge 52, Type (0, 0), BuildingBlock: AJUNOK_clean_linker_0, # of connection points: 2
#     Edge 53, Type (0, 0), BuildingBlock: AJUNOK_clean_linker_0, # of connection points: 2
#     Edge 54, Type (0, 0), BuildingBlock: AJUNOK_clean_linker_0, # of connection points: 2
#     Edge 55, Type (0, 0), BuildingBlock: AJUNOK_clean_linker_0, # of connection points: 2
# Relax obj value: 0.395
# Max RMSD: 0.229
# Mean RMSD: 0.229
data_MOF--net-zfx--node1-XOMCOT_clean_sbu_0--edge1-AJUNOK_clean_linker_0
_symmetry_space_group_name_H-M    P1
_symmetry_Int_Tables_number       1
_symmetry_cell_setting            triclinic
loop_
_symmetry_equiv_pos_as_xyz
'x, y, z'
_cell_length_a     48.141019
_cell_length_b     48.71538
_cell_length_c     17.956367
_cell_angle_alpha  89.848875
_cell_angle_beta   89.986982
_cell_angle_gamma 89.873786
loop_
_atom_site_label
_atom_site_type_symbol
_atom_site_fract_x
_atom_site_fract_y
_atom_site_fract_z
_atom_type_partial_charge
Co0 Co 0.54005 0.16854 0.42709 0.0
C1 C 0.59619 0.16183 0.49489 0.0
C2 C 0.5932 0.19619 0.42128 0.0
C3 C 0.62056 0.19272 0.44042 0.0
N4 N 0.57794 0.1765 0.45444 0.0
N5 N 0.62256 0.17102 0.48706 0.0
H6 H 0.59025 0.14591 0.533 0.0
H7 H 0.58502 0.21162 0.38372 0.0
C8 C 0.57435 0.16624 0.28227 0.0
O9 O 0.59077 0.1484 0.31528 0.0
N10 N 0.50264 0.16215 0.39295 0.0
C11 C 0.48676 0.13946 0.39873 0.0
C12 C 0.46647 0.14054 0.34412 0.0
C13 C 0.49142 0.17687 0.33683 0.0
N14 N 0.46949 0.16419 0.3059 0.0
C15 C 0.5474 0.11744 0.505 0.0
C16 C 0.5489 0.08048 0.3897 0.0
C17 C 0.54934 0.07012 0.46351 0.0
C18 C 0.54871 0.08936 0.52063 0.0
C19 C 0.5473 0.10941 0.37597 0.0
N20 N 0.54698 0.12785 0.43374 0.0
H21 H 0.5467 0.13071 0.55264 0.0
H22 H 0.54535 0.11667 0.31929 0.0
H23 H 0.49107 0.12219 0.43488 0.0
H24 H 0.50106 0.19502 0.31348 0.0
O25 O 0.52726 0.17253 0.53025 0.0
O26 O 0.52926 0.20719 0.45414 0.0
O27 O 0.55214 0.17414 0.31646 0.0
C28 C 0.52338 0.19845 0.52123 0.0
H29 H 0.63746 0.20596 0.42355 0.0
H30 H 0.4521 0.12433 0.32987 0.0
H31 H 0.54881 0.0664 0.34317 0.0
H32 H 0.5489 0.0827 0.57828 0.0
Co33 Co 0.12571 0.26572 0.67313 0.0
C34 C 0.14202 0.31563 0.75568 0.0
C35 C 0.09994 0.31739 0.71667 0.0
C36 C 0.10604 0.34165 0.75147 0.0
N37 N 0.12265 0.30127 0.71851 0.0
N38 N 0.13267 0.34072 0.77552 0.0
H39 H 0.16208 0.30745 0.77085 0.0
H40 H 0.08032 0.3119 0.69154 0.0
C41 C 0.1197 0.30896 0.54598 0.0
O42 O 0.13164 0.3277 0.58731 0.0
N43 N 0.1281 0.23004 0.62514 0.0
C44 C 0.12546 0.20474 0.65514 0.0
C45 C 0.12469 0.18569 0.59827 0.0
C46 C 0.12929 0.22584 0.55092 0.0
N47 N 0.12718 0.19909 0.53276 0.0
C48 C 0.1793 0.24834 0.72019 0.0
C49 C 0.21245 0.28977 0.66575 0.0
C50 C 0.2245 0.27121 0.71763 0.0
C51 C 0.20712 0.25002 0.74288 0.0
C52 C 0.18393 0.28753 0.64475 0.0
N53 N 0.16723 0.2675 0.67452 0.0
H54 H 0.16702 0.23185 0.74297 0.0
H55 H 0.17534 0.30261 0.60735 0.0
H56 H 0.12305 0.20035 0.71381 0.0
H57 H 0.12988 0.24209 0.51012 0.0
O58 O 0.12155 0.24909 0.77239 0.0
O59 O 0.08629 0.25813 0.69936 0.0
O60 O 0.11919 0.28375 0.56868 0.0
C61 C 0.09489 0.24867 0.76338 0.0
H62 H 0.09121 0.35782 0.76274 0.0
H63 H 0.12144 0.16383 0.60452 0.0
H64 H 0.22478 0.30605 0.64159 0.0
H65 H 0.21455 0.23497 0.78262 0.0
Co66 Co 0.02245 0.86431 0.93143 0.0
C67 C 0.97465 0.87945 0.02281 0.0
C68 C 0.96284 0.85297 0.93348 0.0
C69 C 0.93917 0.86289 0.96647 0.0
N70 N 0.9851 0.86347 0.96878 0.0
N71 N 0.94652 0.87959 0.02298 0.0
H72 H 0.98762 0.89017 0.06229 0.0
H73 H 0.96351 0.83925 0.88633 0.0
C74 C 1.01121 0.85977 0.75714 0.0
O75 O 0.03191 0.87592 0.73871 0.0
N76 N 0.05978 0.86514 0.89085 0.0
C77 C 0.08013 0.88386 0.90073 0.0
C78 C 0.10073 0.87928 0.84925 0.0
C79 C 0.06917 0.84856 0.83641 0.0
N80 N 0.0935 0.85739 0.80823 0.0
C81 C 0.03244 0.91874 0.98394 0.0
C82 C 0.99556 0.94818 0.89819 0.0
C83 C 1.00869 0.96164 0.9585 0.0
C84 C 0.02758 0.94631 1.00007 0.0
C85 C 1.00085 0.91977 0.88401 0.0
N86 N 0.01928 0.90518 0.92704 0.0
H87 H 0.04649 0.90827 1.02081 0.0
H88 H 0.98925 0.90941 0.84092 0.0
H89 H 0.07995 0.90068 0.93925 0.0
H90 H 0.05712 0.83202 0.81269 0.0
O91 O 0.03791 0.86248 0.0324 0.0
O92 O 0.02937 0.82584 0.96727 0.0
O93 O 1.0055 0.8557 0.82655 0.0
C94 C 0.03907 0.8361 0.02915 0.0
H95 H 0.91816 0.85724 0.95176 0.0
H96 H 0.11869 0.89212 0.83934 0.0
H97 H 0.98057 0.95912 0.86433 0.0
H98 H 0.03844 0.95552 0.04657 0.0
Co99 Co 0.44608 0.75572 0.18342 0.0
C100 C 0.43012 0.70447 0.26079 0.0
C101 C 0.4713 0.70284 0.21562 0.0
C102 C 0.46469 0.67743 0.24321 0.0
N103 N 0.44934 0.71953 0.22512 0.0
N104 N 0.43861 0.67824 0.27147 0.0
H105 H 0.41076 0.71298 0.27996 0.0
H106 H 0.49042 0.70851 0.18797 0.0
C107 C 0.45042 0.71409 0.05193 0.0
O108 O 0.43648 0.69589 0.09063 0.0
N109 N 0.44388 0.79206 0.13851 0.0
C110 C 0.44484 0.81692 0.17146 0.0
C111 C 0.44585 0.83695 0.11694 0.0
C112 C 0.44421 0.79747 0.06474 0.0
N113 N 0.44572 0.82457 0.04979 0.0
C114 C 0.39273 0.77348 0.23103 0.0
C115 C 0.35876 0.73253 0.1785 0.0
C116 C 0.34722 0.75143 0.22981 0.0
C117 C 0.36495 0.77235 0.25412 0.0
C118 C 0.3872 0.73439 0.15639 0.0
N119 N 0.40441 0.75417 0.18517 0.0
H120 H 0.40525 0.78972 0.25372 0.0
H121 H 0.39509 0.7193 0.11854 0.0
H122 H 0.44549 0.82043 0.23084 0.0
H123 H 0.44465 0.78195 0.022 0.0
O124 O 0.44978 0.771 0.28415 0.0
O125 O 0.48541 0.76325 0.21169 0.0
O126 O 0.45295 0.73883 0.07732 0.0
C127 C 0.47642 0.77192 0.27611 0.0
H128 H 0.4787 0.66007 0.24479 0.0
H129 H 0.44695 0.85884 0.12639 0.0
H130 H 0.34602 0.71638 0.15545 0.0
H131 H 0.35772 0.78764 0.29331 0.0
Co132 Co 0.54633 0.85821 0.62201 0.0
C133 C 0.59643 0.87571 0.53893 0.0
C134 C 0.60125 0.83622 0.59022 0.0
C135 C 0.62556 0.84287 0.55483 0.0
N136 N 0.58326 0.85708 0.58151 0.0
N137 N 0.62273 0.8679 0.52265 0.0
H138 H 0.58635 0.89383 0.51704 0.0
H139 H 0.59686 0.81736 0.61986 0.0
C140 C 0.58679 0.85315 0.7585 0.0
O141 O 0.60604 0.86663 0.72209 0.0
N142 N 0.50932 0.8584 0.66572 0.0
C143 C 0.48461 0.85243 0.6342 0.0
C144 C 0.46462 0.85137 0.68927 0.0
C145 C 0.5038 0.8612 0.73903 0.0
N146 N 0.47679 0.85685 0.75526 0.0
C147 C 0.52484 0.91139 0.58901 0.0
C148 C 0.57009 0.94365 0.62176 0.0
C149 C 0.54841 0.95559 0.57959 0.0
C150 C 0.52519 0.93903 0.56628 0.0
C151 C 0.56866 0.91575 0.64527 0.0
N152 N 0.54669 0.89932 0.62577 0.0
H153 H 0.50739 0.89912 0.57171 0.0
H154 H 0.58628 0.90726 0.67374 0.0
H155 H 0.48129 0.84811 0.57589 0.0
H156 H 0.51954 0.8646 0.78072 0.0
O157 O 0.53139 0.85609 0.52038 0.0
O158 O 0.54037 0.81978 0.58817 0.0
O159 O 0.56252 0.85013 0.72858 0.0
C160 C 0.53155 0.82954 0.52455 0.0
H161 H 0.64301 0.82908 0.54857 0.0
H162 H 0.44304 0.84584 0.68167 0.0
H163 H 0.58833 0.95558 0.63534 0.0
H164 H 0.50777 0.94693 0.53458 0.0
Co165 Co 0.4403 0.26901 0.87508 0.0
C166 C 0.42176 0.31943 0.79705 0.0
C167 C 0.46405 0.32159 0.83405 0.0
C168 C 0.45705 0.34619 0.80201 0.0
N169 N 0.44182 0.30498 0.83158 0.0
N170 N 0.43029 0.34502 0.77906 0.0
H171 H 0.4018 0.31099 0.78235 0.0
H172 H 0.48398 0.31618 0.85778 0.0
C173 C 0.44622 0.3115 1.00375 0.0
O174 O 0.43154 0.32921 0.96514 0.0
N175 N 0.43968 0.23295 0.92216 0.0
C176 C 0.44227 0.20786 0.89128 0.0
C177 C 0.44309 0.18843 0.9475 0.0
C178 C 0.43884 0.22827 0.99636 0.0
N179 N 0.44088 0.20135 1.01368 0.0
C180 C 0.3867 0.2501 0.83484 0.0
C181 C 0.35287 0.29116 0.88818 0.0
C182 C 0.34103 0.27222 0.83746 0.0
C183 C 0.35874 0.25116 0.81301 0.0
C184 C 0.38153 0.28953 0.90838 0.0
N185 N 0.39865 0.26979 0.87872 0.0
H186 H 0.39919 0.23373 0.81226 0.0
H187 H 0.38971 0.30485 0.94511 0.0
H188 H 0.44415 0.20384 0.83232 0.0
H189 H 0.43816 0.24433 0.03747 0.0
O190 O 0.44254 0.25332 0.77408 0.0
O191 O 0.47926 0.26212 0.841 0.0
O192 O 0.44871 0.28658 0.97957 0.0
C193 C 0.46933 0.25329 0.77777 0.0
H194 H 0.47144 0.36277 0.7915 0.0
H195 H 0.44578 0.16654 0.94016 0.0
H196 H 0.34026 0.30731 0.912 0.0
H197 H 0.35149 0.23577 0.7743 0.0
Co198 Co 0.01916 0.17079 0.1155 0.0
C199 C 0.96965 0.15831 0.02665 0.0
C200 C 0.96008 0.18545 0.11659 0.0
C201 C 0.9356 0.17708 0.08499 0.0
N202 N 0.9814 0.17324 0.08077 0.0
N203 N 0.94158 0.15969 0.02891 0.0
H204 H 0.98163 0.14658 0.9869 0.0
H205 H 0.96191 0.19934 0.16311 0.0
C206 C 0.99313 0.17 0.27582 0.0
O207 O 0.99187 0.14315 0.27818 0.0
N208 N 0.05685 0.16922 0.15523 0.0
C209 C 0.08134 0.17221 0.1194 0.0
C210 C 0.10245 0.17312 0.17134 0.0
C211 C 0.06362 0.16819 0.22815 0.0
N212 N 0.09115 0.17091 0.23985 0.0
C213 C 0.03688 0.11558 0.09212 0.0
C214 C 0.98698 0.08896 0.11257 0.0
C215 C 1.00827 0.07486 0.0746 0.0
C216 C 0.03371 0.08845 0.06722 0.0
C217 C 0.99087 0.11649 0.13611 0.0
N218 N 1.01552 0.13005 0.12411 0.0
H219 H 0.0561 0.12568 0.07852 0.0
H220 H 0.9731 0.12738 0.15796 0.0
H221 H 0.08391 0.17411 0.05983 0.0
H222 H 0.0487 0.16677 0.27272 0.0
O223 O 0.03286 0.17022 1.01246 0.0
O224 O 0.0268 0.20806 0.07598 0.0
O225 O 1.00455 0.1821 0.21993 0.0
C226 C 0.03449 0.19678 1.01333 0.0
H227 H 0.91504 0.18386 0.10101 0.0
H228 H 0.12432 0.17562 0.1593 0.0
H229 H 0.96688 0.0794 0.11998 0.0
H230 H 0.05099 0.0785 0.03951 0.0
Co231 Co 0.12996 0.762 0.36877 0.0
C232 C 0.1495 0.71228 0.29258 0.0
C233 C 0.10624 0.71041 0.32081 0.0
C234 C 0.1141 0.6857 0.29116 0.0
N235 N 0.12851 0.72694 0.32182 0.0
N236 N 0.14145 0.68676 0.27381 0.0
H237 H 0.17002 0.72029 0.28251 0.0
H238 H 0.08586 0.71583 0.34147 0.0
C239 C 0.12303 0.71788 0.49501 0.0
O240 O 0.13635 0.69947 0.45544 0.0
N241 N 0.13054 0.79694 0.41902 0.0
C242 C 0.14504 0.82002 0.40446 0.0
C243 C 0.14206 0.83772 0.46391 0.0
C244 C 0.11832 0.80135 0.48526 0.0
N245 N 0.12542 0.82567 0.51474 0.0
C246 C 0.18473 0.77558 0.31841 0.0
C247 C 0.21691 0.7392 0.39796 0.0
C248 C 0.2299 0.7544 0.34011 0.0
C249 C 0.21294 0.77295 0.30172 0.0
C250 C 0.18791 0.74253 0.4135 0.0
N251 N 0.17172 0.76019 0.37221 0.0
H252 H 0.17338 0.78975 0.28417 0.0
H253 H 0.17863 0.73023 0.45675 0.0
H254 H 0.15762 0.8237 0.35582 0.0
H255 H 0.10488 0.78675 0.51272 0.0
O256 O 0.1275 0.78009 0.27139 0.0
O257 O 0.09074 0.76967 0.33556 0.0
O258 O 0.12183 0.74303 0.47174 0.0
C259 C 0.10079 0.78074 0.27498 0.0
H260 H 0.10014 0.66897 0.27873 0.0
H261 H 0.1525 0.8572 0.47072 0.0
H262 H 0.22894 0.72485 0.43095 0.0
H263 H 0.22118 0.78512 0.25627 0.0
Co264 Co 0.94633 0.76894 0.36415 0.0
C265 C 0.93041 0.82117 0.2922 0.0
C266 C 0.97285 0.82085 0.32824 0.0
C267 C 0.96664 0.84648 0.30105 0.0
N268 N 0.95004 0.80511 0.32301 0.0
N269 N 0.93972 0.84689 0.27927 0.0
H270 H 0.90999 0.81393 0.27757 0.0
H271 H 0.99253 0.81422 0.35121 0.0
C272 C 0.95275 0.8097 0.49934 0.0
O273 O 0.93952 0.82913 0.46307 0.0
N274 N 0.943 0.73288 0.4092 0.0
C275 C 0.95047 0.70807 0.38257 0.0
C276 C 0.951 0.68958 0.44099 0.0
C277 C 0.93804 0.72875 0.48225 0.0
N278 N 0.94323 0.70274 0.50356 0.0
C279 C 0.89208 0.75308 0.32017 0.0
C280 C 0.85971 0.79405 0.38033 0.0
C281 C 0.84736 0.77654 0.32706 0.0
C282 C 0.86404 0.75529 0.29957 0.0
C283 C 0.88839 0.79127 0.39924 0.0
N284 N 0.90478 0.7717 0.366 0.0
H285 H 0.90394 0.73648 0.29627 0.0
H286 H 0.89723 0.80565 0.43768 0.0
H287 H 0.95734 0.70394 0.32644 0.0
H288 H 0.93359 0.74503 0.52132 0.0
O289 O 0.94891 0.75344 0.26249 0.0
O290 O 0.9852 0.76001 0.33261 0.0
O291 O 0.95502 0.78542 0.47015 0.0
C292 C 0.97562 0.75159 0.2686 0.0
H293 H 0.98148 0.8629 0.29413 0.0
H294 H 0.95938 0.66895 0.43914 0.0
H295 H 0.84763 0.81043 0.40508 0.0
H296 H 0.85553 0.7404 0.26117 0.0
Co297 Co 0.62669 0.25749 0.87525 0.0
C298 C 0.64714 0.21211 0.78391 0.0
C299 C 0.60539 0.20479 0.82046 0.0
C300 C 0.61384 0.18316 0.7768 0.0
N301 N 0.62655 0.22267 0.82553 0.0
N302 N 0.64024 0.18775 0.75412 0.0
H303 H 0.66611 0.22292 0.77116 0.0
H304 H 0.58509 0.20767 0.84505 0.0
C305 C 0.62031 0.21281 1.00001 0.0
O306 O 0.63197 0.19442 0.95679 0.0
N307 N 0.62695 0.29263 0.92593 0.0
C308 C 0.62634 0.31816 0.89659 0.0
C309 C 0.62675 0.33698 0.95389 0.0
C310 C 0.62792 0.29637 1.00026 0.0
N311 N 0.62794 0.32316 1.019 0.0
C312 C 0.6811 0.27637 0.83844 0.0
C313 C 0.71251 0.23294 0.89012 0.0
C314 C 0.72526 0.25195 0.84166 0.0
C315 C 0.70923 0.27432 0.81823 0.0
C316 C 0.68401 0.23583 0.90966 0.0
N317 N 0.66812 0.2567 0.8806 0.0
H318 H 0.66928 0.29325 0.81567 0.0
H319 H 0.67466 0.22027 0.94391 0.0
H320 H 0.6254 0.32298 0.83786 0.0
H321 H 0.62752 0.27989 0.04043 0.0
O322 O 0.62381 0.27545 0.77701 0.0
O323 O 0.58759 0.2641 0.84399 0.0
O324 O 0.61895 0.23809 0.97775 0.0
C325 C 0.59697 0.27496 0.78244 0.0
H326 H 0.60061 0.16668 0.75766 0.0
H327 H 0.62583 0.35909 0.94812 0.0
H328 H 0.72417 0.21547 0.91069 0.0
H329 H 0.71812 0.28975 0.78185 0.0
Co330 Co 0.63118 0.76573 0.17973 0.0
C331 C 0.64574 0.81766 0.25488 0.0
C332 C 0.60376 0.81713 0.21481 0.0
C333 C 0.60945 0.84282 0.24156 0.0
N334 N 0.62665 0.80155 0.22219 0.0
N335 N 0.63601 0.84338 0.2665 0.0
H336 H 0.66607 0.81043 0.27036 0.0
H337 H 0.58456 0.81053 0.1893 0.0
C338 C 0.62706 0.8079 0.04823 0.0
O339 O 0.63894 0.82665 0.0897 0.0
N340 N 0.6349 0.72979 0.13409 0.0
C341 C 0.63669 0.70485 0.16666 0.0
C342 C 0.63579 0.68493 0.1119 0.0
C343 C 0.63319 0.72461 0.06042 0.0
N344 N 0.63349 0.69756 0.0452 0.0
C345 C 0.68539 0.75252 0.23463 0.0
C346 C 0.71768 0.79075 0.1623 0.0
C347 C 0.73015 0.77538 0.22044 0.0
C348 C 0.71336 0.75568 0.25498 0.0
C349 C 0.6891 0.78713 0.14385 0.0
N350 N 0.67274 0.7689 0.1823 0.0
H351 H 0.67376 0.7369 0.26337 0.0
H352 H 0.68043 0.79949 0.10003 0.0
H353 H 0.63776 0.70118 0.22599 0.0
H354 H 0.63044 0.7401 1.01801 0.0
O355 O 0.62719 0.74974 0.28015 0.0
O356 O 0.59187 0.7567 0.20641 0.0
O357 O 0.62471 0.78309 0.07367 0.0
C358 C 0.60065 0.74796 0.2711 0.0
H359 H 0.59454 0.8594 0.24494 0.0
H360 H 0.63637 0.66296 0.12073 0.0
H361 H 0.72963 0.80605 0.13257 0.0
H362 H 0.72183 0.74252 0.29813 0.0
Co363 Co 0.93769 0.25665 0.67378 0.0
C364 C 0.92314 0.20818 0.76348 0.0
C365 C 0.95188 0.19829 0.67673 0.0
C366 C 0.94286 0.17427 0.70837 0.0
N367 N 0.93907 0.2195 0.71041 0.0
N368 N 0.9245 0.18038 0.76277 0.0
H369 H 0.91048 0.22028 0.80084 0.0
H370 H 0.96634 0.19992 0.63091 0.0
C371 C 0.93383 0.23097 0.51401 0.0
O372 O 0.9067 0.23328 0.51212 0.0
N373 N 0.93727 0.29369 0.63207 0.0
C374 C 0.94087 0.31805 0.66643 0.0
C375 C 0.94172 0.3386 0.6133 0.0
C376 C 0.93598 0.29996 0.55888 0.0
N377 N 0.93893 0.32706 0.54544 0.0
C378 C 0.88243 0.27672 0.69818 0.0
C379 C 0.85309 0.22872 0.67941 0.0
C380 C 0.83933 0.25086 0.71445 0.0
C381 C 0.85452 0.2753 0.72093 0.0
C382 C 0.88128 0.23106 0.65651 0.0
N383 N 0.89617 0.25474 0.66783 0.0
H384 H 0.89355 0.29523 0.71135 0.0
H385 H 0.89152 0.21295 0.63519 0.0
H386 H 0.94304 0.3209 0.72581 0.0
H387 H 0.93412 0.28498 0.51528 0.0
O388 O 0.93895 0.27072 0.77634 0.0
O389 O 0.97616 0.26279 0.70931 0.0
O390 O 0.94734 0.24088 0.56955 0.0
C391 C 0.96587 0.27095 0.7728 0.0
H392 H 0.94961 0.15406 0.69183 0.0
H393 H 0.94436 0.36025 0.62428 0.0
H394 H 0.8428 0.20912 0.67357 0.0
H395 H 0.84522 0.29323 0.74638 0.0
Co396 Co 0.04956 0.66555 0.92228 0.0
C397 C 0.10107 0.66876 1.0156 0.0
C398 C 0.10854 0.65709 0.9026 0.0
C399 C 0.13283 0.6535 0.94089 0.0
N400 N 0.08848 0.6666 0.94913 0.0
N401 N 0.1278 0.66041 1.01151 0.0
H402 H 0.09045 0.67369 0.06703 0.0
H403 H 0.10532 0.65034 0.84604 0.0
C404 C 0.05865 0.66887 0.74696 0.0
O405 O 0.03854 0.65158 0.73245 0.0
N406 N 1.01157 0.66484 0.88759 0.0
C407 C 0.99304 0.64424 0.88726 0.0
C408 C 0.97399 0.64931 0.83131 0.0
C409 C 1.00242 0.68286 0.83635 0.0
N410 N 0.98041 0.67335 0.79745 0.0
C411 C 0.06244 0.61433 0.98805 0.0
C412 C 0.0424 0.57733 0.88657 0.0
C413 C 0.05158 0.56703 0.95653 0.0
C414 C 0.06272 0.58641 1.00534 0.0
C415 C 0.04375 0.60599 0.86961 0.0
N416 N 0.05311 0.62452 0.9213 0.0
H417 H 0.06867 0.62793 0.03189 0.0
H418 H 0.0354 0.61304 0.81739 0.0
H419 H 0.99461 0.62567 0.92007 0.0
H420 H 1.0135 0.70158 0.82487 0.0
O421 O 0.03636 0.66719 0.02633 0.0
O422 O 0.04284 0.70379 0.95859 0.0
O423 O 0.064 0.67486 0.8153 0.0
C424 C 0.03466 0.69365 0.02237 0.0
H425 H 0.15191 0.6445 0.92026 0.0
H426 H 0.95834 0.63497 0.81275 0.0
H427 H 0.03304 0.56376 0.84624 0.0
H428 H 0.07098 0.58035 0.05898 0.0
Co429 Co 0.52435 0.35764 0.43173 0.0
C430 C 0.4741 0.37097 0.51894 0.0
C431 C 0.46492 0.34548 0.42525 0.0
C432 C 0.44033 0.3537 0.45648 0.0
N433 N 0.48611 0.35675 0.46354 0.0
N434 N 0.44602 0.36991 0.51523 0.0
H435 H 0.48582 0.38164 0.5613 0.0
H436 H 0.46689 0.33211 0.3777 0.0
C437 C 0.50167 0.36126 0.26856 0.0
O438 O 0.50349 0.38811 0.27021 0.0
N439 N 0.56248 0.35743 0.39512 0.0
C440 C 0.58639 0.35215 0.43203 0.0
C441 C 0.60784 0.35039 0.38123 0.0
C442 C 0.56999 0.35915 0.32295 0.0
N443 N 0.5973 0.35452 0.31254 0.0
C444 C 0.54541 0.41259 0.44947 0.0
C445 C 0.49628 0.44133 0.43713 0.0
C446 C 0.51929 0.4553 0.4679 0.0
C447 C 0.5443 0.44038 0.47042 0.0
C448 C 0.49848 0.41346 0.4143 0.0
N449 N 0.52267 0.39874 0.42315 0.0
H450 H 0.56452 0.40185 0.46067 0.0
H451 H 0.47994 0.40341 0.39441 0.0
H452 H 0.5883 0.34913 0.49142 0.0
H453 H 0.55568 0.36226 0.2777 0.0
O454 O 0.53717 0.35717 0.53578 0.0
O455 O 0.53007 0.31989 0.47087 0.0
O456 O 0.5103 0.34744 0.32527 0.0
C457 C 0.5379 0.33054 0.53418 0.0
H458 H 0.41985 0.3473 0.43892 0.0
H459 H 0.62931 0.34581 0.39399 0.0
H460 H 0.47614 0.45114 0.43425 0.0
H461 H 0.56307 0.44973 0.49159 0.0
Co462 Co 0.03705 0.3558 0.11964 0.0
C463 C 0.08918 0.37035 0.04199 0.0
C464 C 0.09228 0.33272 0.10341 0.0
C465 C 0.11795 0.33901 0.07553 0.0
N466 N 0.07448 0.35272 0.08396 0.0
N467 N 0.11622 0.36275 0.03631 0.0
H468 H 0.07976 0.38768 1.01424 0.0
H469 H 0.08705 0.31513 0.13751 0.0
C470 C 0.07511 0.35153 0.26205 0.0
O471 O 0.09566 0.36456 0.22988 0.0
N472 N 0.99961 0.35825 0.15987 0.0
C473 C 0.97495 0.352 0.12861 0.0
C474 C 0.95475 0.35239 0.18336 0.0
C475 C 0.99383 0.36285 0.23231 0.0
N476 N 0.96676 0.35912 0.24879 0.0
C477 C 0.01916 0.4087 0.07436 0.0
C478 C 0.06248 0.44083 0.12272 0.0
C479 C 0.04346 0.4524 0.07165 0.0
C480 C 0.02124 0.43595 0.04943 0.0
C481 C 0.05996 0.41296 0.1454 0.0
N482 N 0.0389 0.39673 0.11907 0.0
H483 H 1.00209 0.39665 0.05347 0.0
H484 H 0.07581 0.40452 0.18053 0.0
H485 H 0.97185 0.34621 0.07116 0.0
H486 H 1.00953 0.36688 0.27363 0.0
O487 O 0.02343 0.35292 1.01688 0.0
O488 O 0.02978 0.31717 0.0886 0.0
O489 O 0.05158 0.34858 0.2281 0.0
C490 C 0.02215 0.32652 0.02341 0.0
H491 H 0.1361 0.32606 0.08099 0.0
H492 H 0.93319 0.34675 0.17615 0.0
H493 H 0.07985 0.45286 0.14249 0.0
H494 H 1.00566 0.44397 1.01163 0.0
Co495 Co 0.52857 0.66587 0.62489 0.0
C496 C 0.48012 0.6522 0.53266 0.0
C497 C 0.4693 0.67965 0.62089 0.0
C498 C 0.44532 0.67133 0.58649 0.0
N499 N 0.49107 0.66731 0.58772 0.0
N500 N 0.45201 0.65379 0.53113 0.0
H501 H 0.49269 0.64007 0.49512 0.0
H502 H 0.4705 0.69348 0.66767 0.0
C503 C 0.50447 0.66374 0.78681 0.0
O504 O 0.50695 0.63692 0.78779 0.0
N505 N 0.56608 0.66525 0.66637 0.0
C506 C 0.59058 0.67066 0.63271 0.0
C507 C 0.61125 0.6714 0.68601 0.0
C508 C 0.5725 0.66245 0.73921 0.0
N509 N 0.59975 0.66619 0.75305 0.0
C510 C 0.54807 0.61022 0.61014 0.0
C511 C 0.49793 0.58341 0.62406 0.0
C512 C 0.52055 0.56855 0.59478 0.0
C513 C 0.54607 0.58227 0.59096 0.0
C514 C 0.50101 0.61131 0.64517 0.0
N515 N 0.52571 0.62502 0.63552 0.0
H516 H 0.56746 0.62037 0.59836 0.0
H517 H 0.48281 0.62224 0.66432 0.0
H518 H 0.59339 0.67473 0.57403 0.0
H519 H 0.55743 0.65944 0.78247 0.0
O520 O 0.54297 0.66538 0.52219 0.0
O521 O 0.53554 0.70324 0.58448 0.0
O522 O 0.51292 0.67705 0.72903 0.0
C523 C 0.54361 0.69203 0.52208 0.0
H524 H 0.42473 0.67817 0.60139 0.0
H525 H 0.63285 0.67646 0.67652 0.0
H526 H 0.47777 0.57376 0.62895 0.0
H527 H 0.56416 0.57191 0.56861 0.0
C528 C 0.52618 0.02935 0.52568 0.0
C529 C 0.54881 0.03992 0.48458 0.0
C530 C 0.52634 1.00245 0.5558 0.0
C531 C 0.54943 0.9847 0.54831 0.0
H532 H 0.50819 0.04223 0.5356 0.0
H533 H 0.50826 0.99568 0.58665 0.0
S534 S 0.61416 1.00204 0.4456 0.0
N535 N 0.595 0.0301 0.4377 0.0
N536 N 0.59553 0.97995 0.4945 0.0
C537 C 0.57223 0.99499 0.50713 0.0
C538 C 0.57186 0.02233 0.47535 0.0
C539 C 0.29642 0.24878 0.79387 0.0
C540 C 0.31092 0.27336 0.80926 0.0
C541 C 0.26944 0.24854 0.76284 0.0
C542 C 0.25454 0.27287 0.74613 0.0
H543 H 0.30592 0.22913 0.80613 0.0
H544 H 0.26028 0.22872 0.75156 0.0
S545 S 0.28214 0.34332 0.77592 0.0
N546 N 0.30781 0.32316 0.80346 0.0
N547 N 0.25682 0.32272 0.74943 0.0
C548 C 0.26857 0.29775 0.76168 0.0
C549 C 0.29648 0.298 0.79249 0.0
C550 C 0.99611 0.02409 0.085 0.0
C551 C 1.00434 0.04662 0.04088 0.0
C552 C 0.99594 0.997 0.05646 0.0
C553 C 1.00337 0.99106 0.98188 0.0
H554 H 0.99106 0.02721 0.14315 0.0
H555 H 0.99085 0.98032 0.09406 0.0
S556 S 0.02378 0.04293 0.84073 0.0
N557 N 1.01823 0.06117 0.91678 0.0
N558 N 1.01748 1.01066 0.8636 0.0
C559 C 1.01012 0.01358 0.93615 0.0
C560 C 1.01073 0.04113 0.96545 0.0
C561 C 0.30241 0.77549 0.26817 0.0
C562 C 0.31718 0.75068 0.25774 0.0
C563 C 0.2752 0.77624 0.29744 0.0
C564 C 0.26051 0.75223 0.31767 0.0
H565 H 0.31186 0.79484 0.25284 0.0
H566 H 0.26549 0.79617 0.30377 0.0
S567 S 0.28935 0.68154 0.30435 0.0
N568 N 0.31487 0.70114 0.27341 0.0
N569 N 0.26352 0.70251 0.32564 0.0
C570 C 0.27499 0.72715 0.30846 0.0
C571 C 0.30306 0.72638 0.27887 0.0
C572 C 0.79482 0.78035 0.34866 0.0
C573 C 0.81759 0.77965 0.29918 0.0
C574 C 0.76694 0.77976 0.32276 0.0
C575 C 0.76019 0.77893 0.24589 0.0
H576 H 0.79855 0.78027 0.40814 0.0
H577 H 0.75041 0.77959 0.3637 0.0
S578 S 0.81198 0.77893 0.09255 0.0
N579 N 0.83114 0.7796 0.16881 0.0
N580 N 0.77933 0.77869 0.12087 0.0
C581 C 0.78279 0.77939 0.1959 0.0
C582 C 0.81116 0.77965 0.22224 0.0
C583 C 0.80419 0.26132 0.81747 0.0
C584 C 0.81025 0.24876 0.74813 0.0
C585 C 0.77714 0.26134 0.84868 0.0
C586 C 0.75461 0.24863 0.81269 0.0
H587 H 0.82054 0.27151 0.84812 0.0
H588 H 0.77372 0.27192 0.90087 0.0
S589 S 0.75815 0.21285 0.63072 0.0
N590 N 0.7904 0.22316 0.64499 0.0
N591 N 0.74009 0.22309 0.70384 0.0
C592 C 0.76024 0.23561 0.74425 0.0
C593 C 0.7878 0.23558 0.71224 0.0
C594 C 0.04449 0.53123 0.0595 0.0
C595 C 0.04887 0.53719 0.9828 0.0
C596 C 0.04364 0.50413 0.08779 0.0
C597 C 0.04629 0.48122 0.04098 0.0
H598 H 0.04134 0.5477 0.09894 0.0
H599 H 0.04021 0.5011 0.14687 0.0
S600 S 0.05734 0.48396 0.83638 0.0
N601 N 0.05611 0.51658 0.86105 0.0
N602 N 0.05277 0.46603 0.91362 0.0
C603 C 0.04995 0.48651 0.96422 0.0
C604 C 0.05154 0.51421 0.93538 0.0
C605 C 0.53426 0.49136 0.5635 0.0
C606 C 0.51768 0.48428 0.50111 0.0
C607 C 0.53464 0.51815 0.59389 0.0
C608 C 0.5179 0.53947 0.56526 0.0
H609 H 0.5473 0.47602 0.58976 0.0
H610 H 0.54828 0.52224 0.64051 0.0
S611 S 0.47076 0.53327 0.40264 0.0
N612 N 0.48431 0.50223 0.41131 0.0
N613 N 0.48424 0.55178 0.47049 0.0
C614 C 0.50073 0.53283 0.50427 0.0
C615 C 0.50072 0.5056 0.47207 0.0
C616 C 0.46906 0.15759 0.17011 0.0
C617 C 0.45848 0.17071 0.23366 0.0
C618 C 0.46223 0.16691 0.09824 0.0
C619 C 0.44455 0.18971 0.08743 0.0
H620 H 0.48376 0.14088 0.17632 0.0
H621 H 0.47198 0.15701 0.0511 0.0
S622 S 0.40914 0.22891 0.2375 0.0
N623 N 0.42843 0.20618 0.28241 0.0
N624 N 0.41437 0.22316 0.14795 0.0
C625 C 0.4327 0.20196 0.15119 0.0
C626 C 0.44002 0.19263 0.22413 0.0
C627 C 0.09324 0.16141 0.375 0.0
C628 C 0.10415 0.17472 0.31168 0.0
C629 C 0.10212 0.16817 0.44706 0.0
C630 C 0.12231 0.18853 0.45877 0.0
H631 H 0.07691 0.14634 0.36892 0.0
H632 H 0.09194 0.15848 0.49397 0.0
S633 S 0.16002 0.22716 0.312 0.0
N634 N 0.13784 0.20786 0.26572 0.0
N635 N 0.1553 0.21964 0.40077 0.0
C636 C 0.13481 0.20059 0.39584 0.0
C637 C 0.12561 0.19389 0.32243 0.0
C638 C 0.11686 0.81493 0.64701 0.0
C639 C 0.11919 0.83449 0.5893 0.0
C640 C 0.10922 0.82265 0.71913 0.0
C641 C 0.10416 0.85022 0.73638 0.0
H642 H 0.12077 0.79341 0.63629 0.0
H643 H 0.10694 0.80701 0.76165 0.0
S644 S 0.10604 0.90919 0.60557 0.0
N645 N 0.11487 0.88249 0.55418 0.0
N646 N 0.101 0.89708 0.69048 0.0
C647 C 0.10672 0.87006 0.67981 0.0
C648 C 0.1142 0.86217 0.60609 0.0
C649 C 0.43852 0.82354 0.91368 0.0
C650 C 0.45 0.83639 0.97672 0.0
C651 C 0.44605 0.83141 0.84131 0.0
C652 C 0.46536 0.85256 0.82884 0.0
H653 H 0.42431 0.80651 0.92037 0.0
H654 H 0.43783 0.81977 0.79507 0.0
S655 S 0.49867 0.89542 0.97404 0.0
N656 N 0.48003 0.87295 1.02134 0.0
N657 N 0.49316 0.88852 0.88533 0.0
C658 C 0.47545 0.86695 0.89112 0.0
C659 C 0.46798 0.85875 0.96499 0.0
C660 C 0.61787 0.85201 0.87194 0.0
C661 C 0.59489 0.84088 0.83365 0.0
C662 C 0.62806 0.84069 0.939 0.0
C663 C 0.61633 0.8171 0.97231 0.0
H664 H 0.6283 0.86998 0.84998 0.0
H665 H 0.64558 0.85074 0.96508 0.0
S666 S 0.55577 0.77919 0.89594 0.0
N667 N 0.56055 0.80435 0.83526 0.0
N668 N 0.5799 0.7829 0.96067 0.0
C669 C 0.59339 0.80541 0.93473 0.0
C670 C 0.58263 0.81732 0.86617 0.0
C671 C 0.96691 0.84582 0.68738 0.0
C672 C 0.99602 0.84417 0.69602 0.0
C673 C 0.95303 0.83356 0.62586 0.0
C674 C 0.96726 0.81794 0.57127 0.0
H675 H 0.95485 0.85775 0.72668 0.0
H676 H 0.93088 0.83686 0.62012 0.0
S677 S 0.04344 0.80578 0.56993 0.0
N678 N 0.03846 0.82496 0.64458 0.0
N679 N 1.01243 0.80105 0.53261 0.0
C680 C 0.9962 0.81514 0.58123 0.0
C681 C 1.01047 0.82839 0.64236 0.0
C682 C 0.99149 0.20648 0.3782 0.0
C683 C 0.97809 0.18634 0.33474 0.0
C684 C 0.97732 0.22073 0.43597 0.0
C685 C 0.94886 0.2161 0.45151 0.0
H686 H 1.01326 0.21082 0.36867 0.0
H687 H 0.98875 0.23561 0.46844 0.0
S688 S 0.90403 0.16628 0.35106 0.0
N689 N 0.93467 0.16296 0.31069 0.0
N690 N 0.90801 0.18991 0.4159 0.0
C691 C 0.93524 0.1964 0.40692 0.0
C692 C 0.94981 0.18154 0.34968 0.0
C693 C 0.60408 0.165 0.16593 0.0
C694 C 0.58401 0.17892 0.20905 0.0
C695 C 0.61559 0.17642 0.10046 0.0
C696 C 0.60818 0.20279 0.07379 0.0
H697 H 0.61115 0.1448 0.18287 0.0
H698 H 0.6307 0.1642 0.07049 0.0
S699 S 0.55698 0.24879 0.166 0.0
N700 N 0.55741 0.22122 0.21988 0.0
N701 N 0.57917 0.24272 0.09769 0.0
C702 C 0.58825 0.21723 0.1165 0.0
C703 C 0.57616 0.20534 0.18335 0.0
C704 C 0.94489 0.67289 0.69676 0.0
C705 C 0.97047 0.68264 0.72501 0.0
C706 C 0.936 0.67917 0.62403 0.0
C707 C 0.95226 0.6956 0.57717 0.0
H708 H 0.93159 0.66016 0.73089 0.0
H709 H 0.91633 0.67128 0.60432 0.0
S710 S 0.01983 0.72767 0.62035 0.0
N711 N 1.01146 0.71065 0.69659 0.0
N712 N 0.99409 0.72223 0.56185 0.0
C713 C 0.97733 0.70599 0.60404 0.0
C714 C 0.98658 0.69967 0.6775 0.0
C715 C 0.63953 0.69902 0.90885 0.0
C716 C 0.62879 0.68583 0.9725 0.0
C717 C 0.63136 0.69133 0.83694 0.0
C718 C 0.61202 0.67015 0.8257 0.0
H719 H 0.65357 0.71621 0.9149 0.0
H720 H 0.63902 0.70317 0.79019 0.0
S721 S 0.58017 0.62686 0.97307 0.0
N722 N 0.59939 0.64912 1.01917 0.0
N723 N 0.58472 0.63404 0.88399 0.0
C724 C 0.60257 0.65553 0.8886 0.0
C725 C 0.61082 0.66346 0.96196 0.0
C726 C 0.60788 0.35696 0.10596 0.0
C727 C 0.62509 0.3341 0.09321 0.0
C728 C 0.60059 0.36476 0.1784 0.0
C729 C 0.61012 0.35 0.24095 0.0
H730 H 0.59859 0.36789 0.05969 0.0
H731 H 0.58626 0.38172 0.18543 0.0
S732 S 0.65923 0.29117 0.2378 0.0
N733 N 0.65471 0.29922 0.14929 0.0
N734 N 0.63992 0.31302 0.28528 0.0
C735 C 0.62901 0.32837 0.22918 0.0
C736 C 0.63668 0.3206 0.15533 0.0
C737 C 0.92909 0.3272 0.41028 0.0
C738 C 0.94203 0.33937 0.47237 0.0
C739 C 0.93576 0.33505 0.33727 0.0
C740 C 0.95551 0.35565 0.32303 0.0
H741 H 0.91449 0.31057 0.41801 0.0
H742 H 0.9266 0.32367 0.29186 0.0
S743 S 0.99178 0.39753 0.46543 0.0
N744 N 0.9735 0.3752 0.51423 0.0
N745 N 0.98466 0.39107 0.37731 0.0
C746 C 0.96666 0.36978 0.38454 0.0
C747 C 0.96024 0.36144 0.45905 0.0
C748 C 0.09123 0.31177 0.34375 0.0
C749 C 0.08093 0.33891 0.33719 0.0
C750 C 0.10274 0.3016 0.41149 0.0
C751 C 0.10508 0.31836 0.47532 0.0
H752 H 0.09146 0.29863 0.29519 0.0
H753 H 0.11095 0.28088 0.41277 0.0
S754 S 0.07903 0.39025 0.48893 0.0
N755 N 0.07242 0.38157 0.4019 0.0
N756 N 0.09368 0.36306 0.5277 0.0
C757 C 0.09384 0.3452 0.46967 0.0
C758 C 0.082 0.35532 0.40124 0.0
C759 C 0.46747 0.30744 0.13619 0.0
C760 C 0.46245 0.32255 0.0701 0.0
C761 C 0.48064 0.31956 0.19943 0.0
C762 C 0.48961 0.34732 0.19959 0.0
H763 H 0.46043 0.28638 0.14002 0.0
H764 H 0.4832 0.30721 0.24918 0.0
S765 S 0.48512 0.39456 0.03669 0.0
N766 N 0.47028 0.3661 1.00737 0.0
N767 N 0.49457 0.38833 0.12338 0.0
C768 C 0.48578 0.36202 0.13241 0.0
C769 C 0.47242 0.34984 0.06882 0.0
C770 C 0.46845 0.71736 0.91623 0.0
C771 C 0.46675 0.7035 0.9854 0.0
C772 C 0.48125 0.70502 0.85272 0.0
C773 C 0.49301 0.67829 0.85545 0.0
H774 H 0.45897 0.73743 0.91031 0.0
H775 H 0.48117 0.71622 0.80056 0.0
S776 S 0.49815 0.63528 0.02653 0.0
N777 N 0.48093 0.66278 0.05384 0.0
N778 N 0.5046 0.64011 0.93723 0.0
C779 C 0.49266 0.66508 0.92556 0.0
C780 C 0.47971 0.67749 0.98943 0.0
C781 C 0.09331 0.70436 0.69347 0.0
C782 C 0.07463 0.6822 0.68257 0.0
C783 C 0.10809 0.71683 0.63328 0.0
C784 C 0.10528 0.70749 0.55918 0.0
H785 H 0.09661 0.71219 0.74913 0.0
H786 H 0.12239 0.73336 0.64525 0.0
S787 S 0.05815 0.6517 0.49773 0.0
N788 N 0.05356 0.65287 0.58875 0.0
N789 N 0.08136 0.67555 0.47848 0.0
C790 C 0.08643 0.68581 0.54748 0.0
C791 C 0.07119 0.67342 0.60801 0.0
C792 C 0.50375 0.21933 0.72199 0.0
C793 C 0.48669 0.24265 0.71348 0.0
C794 C 0.51611 0.20611 0.65988 0.0
C795 C 0.51262 0.21572 0.58579 0.0
H796 H 0.50645 0.21035 0.77676 0.0
H797 H 0.5281 0.18765 0.67012 0.0
S798 S 0.4725 0.27805 0.53375 0.0
N799 N 0.46848 0.2759 0.62502 0.0
N800 N 0.49242 0.25185 0.50966 0.0
C801 C 0.49696 0.24002 0.57711 0.0
C802 C 0.48381 0.25314 0.64031 0.0
C803 C 0.04702 0.20075 0.87582 0.0
C804 C 0.04681 0.2124 0.94803 0.0
C805 C 0.06105 0.21333 0.81513 0.0
C806 C 0.07606 0.23791 0.82396 0.0
H807 H 0.03669 0.18135 0.86629 0.0
H808 H 0.06119 0.20304 0.76173 0.0
S809 S 0.08178 0.27741 0.99932 0.0
N810 N 0.06223 0.25093 0.0226 0.0
N811 N 0.08918 0.27375 0.91014 0.0
C812 C 0.07553 0.25006 0.89508 0.0
C813 C 0.06075 0.23762 0.95642 0.0
C814 C 0.04265 0.79877 0.13124 0.0
C815 C 0.05461 0.82023 0.08889 0.0
C816 C 0.05695 0.78631 0.19247 0.0
C817 C 0.08405 0.79457 0.21337 0.0
H818 H 0.02181 0.79214 0.11821 0.0
H819 H 0.04686 0.76996 0.22302 0.0
S820 S 0.12428 0.8504 0.12171 0.0
N821 N 0.09493 0.84942 0.07438 0.0
N822 N 0.12164 0.82627 0.18598 0.0
C823 C 0.096 0.81603 0.17104 0.0
C824 C 0.08138 0.82877 0.11013 0.0
C825 C 0.50904 0.80841 0.32638 0.0
C826 C 0.49452 0.78362 0.33695 0.0
C827 C 0.52157 0.82248 0.38676 0.0
C828 C 0.52077 0.81222 0.46063 0.0
H829 H 0.50951 0.81779 0.27163 0.0
H830 H 0.53151 0.84198 0.37556 0.0
S831 S 0.48684 0.74705 0.51749 0.0
N832 N 0.4809 0.74896 0.42699 0.0
N833 N 0.50521 0.77455 0.53895 0.0
C834 C 0.50747 0.78672 0.47111 0.0
C835 C 0.49414 0.77275 0.40992 0.0
C836 C 0.62673 0.89415 0.40629 0.0
C837 C 0.63961 0.87847 0.46264 0.0
C838 C 0.63105 0.88718 0.33174 0.0
C839 C 0.64763 0.86421 0.31443 0.0
H840 H 0.60994 0.90817 0.41878 0.0
H841 H 0.61743 0.89617 0.29037 0.0
S842 S 0.70413 0.83825 0.43611 0.0
N843 N 0.68301 0.85512 0.49246 0.0
N844 N 0.69075 0.84148 0.35178 0.0
C845 C 0.66815 0.8572 0.36696 0.0
C846 C 0.66408 0.86463 0.44255 0.0
C847 C 0.90706 0.85834 0.17878 0.0
C848 C 0.92686 0.86706 0.23143 0.0
C849 C 0.90817 0.86846 0.10608 0.0
C850 C 0.9295 0.88674 0.08596 0.0
H851 H 0.89401 0.84071 0.18887 0.0
H852 H 0.8963 0.85774 0.06417 0.0
S853 S 0.96778 0.93113 0.21697 0.0
N854 N 0.95462 0.90642 0.26943 0.0
N855 N 0.95683 0.92512 0.13131 0.0
C856 C 0.94108 0.90245 0.14341 0.0
C857 C 0.94003 0.89228 0.21748 0.0
C858 C 0.89618 0.17398 0.87452 0.0
C859 C 0.91384 0.16253 0.82026 0.0
C860 C 0.90131 0.16887 0.94977 0.0
C861 C 0.92321 0.15128 0.9703 0.0
H862 H 0.88215 0.19057 0.86031 0.0
H863 H 0.89148 0.18219 0.99006 0.0
S864 S 0.95626 0.09963 0.84855 0.0
N865 N 0.9407 0.12126 0.79101 0.0
N866 N 0.94894 0.11057 0.9333 0.0
C867 C 0.93264 0.13256 0.91679 0.0
C868 C 0.92823 0.13841 0.84027 0.0
C869 C 0.6615 0.18781 0.56058 0.0
C870 C 0.64484 0.16558 0.53864 0.0
C871 C 0.66527 0.19309 0.63618 0.0
C872 C 0.65302 0.1757 0.6897 0.0
H873 H 0.66678 0.20399 0.52178 0.0
H874 H 0.67339 0.213 0.65115 0.0
S875 S 0.6286 0.10498 0.65505 0.0
N876 N 0.63216 0.11871 0.5713 0.0
N877 N 0.63824 0.1289 0.71481 0.0
C878 C 0.64548 0.14926 0.66686 0.0
C879 C 0.64212 0.14385 0.58979 0.0
C880 C 1.00385 0.73251 0.07278 0.0
C881 C 0.02226 0.71039 0.08608 0.0
C882 C 0.98921 0.74576 0.13165 0.0
C883 C 0.99319 0.73862 0.20741 0.0
H884 H 0.99971 0.73888 1.01603 0.0
H885 H 0.97459 0.76188 0.11755 0.0
S886 S 0.03843 0.68186 0.27356 0.0
N887 N 0.04263 0.68149 0.18222 0.0
N888 N 1.0169 0.70744 0.29142 0.0
C889 C 1.01203 0.71704 0.22157 0.0
C890 C 0.02606 0.7028 0.16161 0.0
C891 C 0.58419 0.74567 0.40581 0.0
C892 C 0.58241 0.7359 0.3318 0.0
C893 C 0.5704 0.73246 0.46606 0.0
C894 C 0.55498 0.70811 0.45601 0.0
H895 H 0.5968 0.76352 0.41758 0.0
H896 H 0.57296 0.74073 0.52156 0.0
S897 S 0.54303 0.67425 0.27338 0.0
N898 N 0.56269 0.70091 0.2522 0.0
N899 N 0.53805 0.67554 0.36438 0.0
C900 C 0.55261 0.69847 0.38197 0.0
C901 C 0.56594 0.71242 0.32042 0.0
C902 C 0.55111 0.32553 0.67125 0.0
C903 C 0.54993 0.3141 0.59885 0.0
C904 C 0.56489 0.31215 0.73122 0.0
C905 C 0.57869 0.28683 0.72174 0.0
H906 H 0.54171 0.34539 0.68152 0.0
H907 H 0.56571 0.32231 0.78477 0.0
S908 S 0.5817 0.24745 0.54548 0.0
N909 N 0.56328 0.27494 0.52332 0.0
N910 N 0.58971 0.25058 0.63446 0.0
C911 C 0.57725 0.27489 0.6504 0.0
C912 C 0.56274 0.28821 0.58968 0.0
C913 C 1.01419 0.31807 0.88551 0.0
C914 C 1.01086 0.30921 0.96015 0.0
C915 C 1.00107 0.30464 0.82503 0.0
C916 C 0.98322 0.28209 0.83612 0.0
H917 H 0.02671 0.33601 0.87368 0.0
H918 H 1.00386 0.31286 0.76942 0.0
S919 S 0.96851 0.24937 1.01892 0.0
N920 N 0.98964 0.27489 0.04004 0.0
N921 N 0.96413 0.25064 0.92769 0.0
C922 C 0.9803 0.27251 0.91002 0.0
C923 C 0.99432 0.28571 0.97144 0.0
C924 C 0.1615 0.34642 0.88707 0.0
C925 C 0.14442 0.35817 0.83184 0.0
C926 C 0.15777 0.35383 0.96146 0.0
C927 C 0.1359 0.37176 0.98055 0.0
H928 H 0.17426 0.32864 0.87566 0.0
H929 H 0.16812 0.34155 1.00337 0.0
S930 S 0.10629 0.42369 0.85214 0.0
N931 N 0.1203 0.40026 0.79727 0.0
N932 N 0.11284 0.41366 0.93839 0.0
C933 C 0.12749 0.39035 0.92491 0.0
C934 C 0.13162 0.38326 0.8491 0.0
C935 C 0.40165 0.3506 0.66764 0.0
C936 C 0.41799 0.36269 0.72366 0.0
C937 C 0.40653 0.35727 0.59325 0.0
C938 C 0.42736 0.37636 0.57509 0.0
H939 H 0.38921 0.33261 0.67877 0.0
H940 H 0.39775 0.34394 0.55139 0.0
S941 S 0.45728 0.42747 0.70377 0.0
N942 N 0.44196 0.4047 0.75842 0.0
N943 N 0.45131 0.41733 0.61747 0.0
C944 C 0.43565 0.39469 0.63083 0.0
C945 C 0.43065 0.38787 0.70649 0.0
C946 C 0.44669 0.62806 0.41502 0.0
C947 C 0.43466 0.64459 0.47065 0.0
C948 C 0.44268 0.63484 0.34013 0.0
C949 C 0.42675 0.65816 0.32156 0.0
H950 H 0.46281 0.61338 0.4288 0.0
H951 H 0.45593 0.62511 0.29925 0.0
S952 S 0.37137 0.68688 0.44182 0.0
N953 N 0.39233 0.67024 0.49924 0.0
N954 N 0.38432 0.68221 0.35762 0.0
C955 C 0.40665 0.66622 0.37393 0.0
C956 C 0.41089 0.65964 0.45014 0.0
C957 C 0.17074 0.68226 0.16406 0.0
C958 C 0.15514 0.66936 0.22073 0.0
C959 C 0.1652 0.67606 0.08981 0.0
C960 C 0.14564 0.65589 0.07303 0.0
H961 H 0.18243 0.70074 0.1749 0.0
H962 H 0.17252 0.68985 0.04667 0.0
S963 S 0.11554 0.60495 0.202 0.0
N964 N 0.13177 0.62711 0.25625 0.0
N965 N 0.12107 0.61543 0.11566 0.0
C966 C 0.13742 0.63757 0.12874 0.0
C967 C 0.14309 0.64393 0.20402 0.0
loop_
_geom_bond_atom_site_label_1
_geom_bond_atom_site_label_2
_geom_bond_distance
_geom_bond_site_symmetry_2
_ccdc_geom_bond_type
Co0 N4 2.148 . S
Co0 N10 2.128 . S
Co0 N20 2.194 . S
Co0 O25 2.351 . S
Co0 O26 2.155 . S
Co0 O27 2.096 . S
C1 N4 1.301 . S
C1 N5 1.328 . S
C1 H6 0.930 . S
C2 C3 1.333 . S
C2 N4 1.317 . S
C2 H7 0.930 . S
C3 C2 1.333 . S
C3 N5 1.350 . S
C3 H29 0.931 . S
N4 Co0 2.148 . S
N4 C1 1.301 . S
N4 C2 1.317 . S
N5 C1 1.328 . S
N5 C3 1.350 . S
H6 C1 0.930 . S
H7 C2 0.930 . S
C8 O9 1.224 . S
C8 O27 1.247 . S
O9 C8 1.224 . S
N10 Co0 2.128 . S
N10 C11 1.355 . S
N10 C13 1.311 . S
C11 N10 1.355 . S
C11 C12 1.363 . S
C11 H23 0.929 . S
C12 C11 1.363 . S
C12 N14 1.375 . S
C12 H30 0.931 . S
C13 N10 1.311 . S
C13 N14 1.347 . S
C13 H24 0.929 . S
N14 C12 1.375 . S
N14 C13 1.347 . S
C15 C18 1.365 . S
C15 N20 1.328 . S
C15 H21 0.929 . S
C16 C17 1.362 . S
C16 C19 1.378 . S
C16 H31 0.929 . S
C17 C16 1.362 . S
C17 C18 1.366 . S
C18 C15 1.365 . S
C18 C17 1.366 . S
C18 H32 0.930 . S
C19 C16 1.378 . S
C19 N20 1.315 . S
C19 H22 0.930 . S
N20 Co0 2.194 . S
N20 C15 1.328 . S
N20 C19 1.315 . S
H21 C15 0.929 . S
H22 C19 0.930 . S
H23 C11 0.929 . S
H24 C13 0.929 . S
O25 Co0 2.351 . S
O25 C28 1.244 . S
O26 Co0 2.155 . S
O26 C28 1.240 . S
O27 Co0 2.096 . S
O27 C8 1.247 . S
C28 O25 1.244 . S
C28 O26 1.240 . S
H29 C3 0.931 . S
H30 C12 0.931 . S
H31 C16 0.929 . S
H32 C18 0.930 . S
Co33 N37 2.148 . S
Co33 N43 2.128 . S
Co33 N53 2.194 . S
Co33 O58 2.351 . S
Co33 O59 2.155 . S
Co33 O60 2.096 . S
C34 N37 1.301 . S
C34 N38 1.328 . S
C34 H39 0.930 . S
C35 C36 1.333 . S
C35 N37 1.317 . S
C35 H40 0.930 . S
C36 C35 1.333 . S
C36 N38 1.350 . S
C36 H62 0.931 . S
N37 Co33 2.148 . S
N37 C34 1.301 . S
N37 C35 1.317 . S
N38 C34 1.328 . S
N38 C36 1.350 . S
H39 C34 0.930 . S
H40 C35 0.930 . S
C41 O42 1.224 . S
C41 O60 1.247 . S
O42 C41 1.224 . S
N43 Co33 2.128 . S
N43 C44 1.355 . S
N43 C46 1.311 . S
C44 N43 1.355 . S
C44 C45 1.363 . S
C44 H56 0.929 . S
C45 C44 1.363 . S
C45 N47 1.375 . S
C45 H63 0.931 . S
C46 N43 1.311 . S
C46 N47 1.347 . S
C46 H57 0.929 . S
N47 C45 1.375 . S
N47 C46 1.347 . S
C48 C51 1.365 . S
C48 N53 1.328 . S
C48 H54 0.929 . S
C49 C50 1.362 . S
C49 C52 1.378 . S
C49 H64 0.929 . S
C50 C49 1.362 . S
C50 C51 1.366 . S
C51 C48 1.365 . S
C51 C50 1.366 . S
C51 H65 0.930 . S
C52 C49 1.378 . S
C52 N53 1.315 . S
C52 H55 0.930 . S
N53 Co33 2.194 . S
N53 C48 1.328 . S
N53 C52 1.315 . S
H54 C48 0.929 . S
H55 C52 0.930 . S
H56 C44 0.929 . S
H57 C46 0.929 . S
O58 Co33 2.351 . S
O58 C61 1.244 . S
O59 Co33 2.155 . S
O59 C61 1.240 . S
O60 Co33 2.096 . S
O60 C41 1.247 . S
C61 O58 1.244 . S
C61 O59 1.240 . S
H62 C36 0.931 . S
H63 C45 0.931 . S
H64 C49 0.929 . S
H65 C51 0.930 . S
Co66 N70 2.148 1_455 S
Co66 N76 2.128 . S
Co66 N86 2.194 . S
Co66 O91 2.351 . S
Co66 O92 2.155 . S
Co66 O93 2.096 1_455 S
C67 N70 1.301 1_554 S
C67 N71 1.328 . S
C67 H72 0.930 . S
C68 C69 1.328 1_556 S
C68 N70 1.317 . S
C68 H73 0.930 . S
C69 C68 1.328 1_554 S
C69 N71 1.355 . S
C69 H95 0.932 . S
N70 Co66 2.148 1_655 S
N70 C67 1.301 1_556 S
N70 C68 1.317 . S
N71 C67 1.328 . S
N71 C69 1.355 . S
H72 C67 0.930 . S
H73 C68 0.930 . S
C74 O75 1.224 . S
C74 O93 1.247 . S
O75 C74 1.224 . S
N76 Co66 2.128 . S
N76 C77 1.355 . S
N76 C79 1.311 . S
C77 N76 1.355 . S
C77 C78 1.363 . S
C77 H89 0.929 . S
C78 C77 1.363 . S
C78 N80 1.375 . S
C78 H96 0.931 . S
C79 N76 1.311 . S
C79 N80 1.347 . S
C79 H90 0.929 . S
N80 C78 1.375 . S
N80 C79 1.347 . S
C81 C84 1.365 . S
C81 N86 1.328 . S
C81 H87 0.929 . S
C82 C83 1.362 1_655 S
C82 C85 1.378 . S
C82 H97 0.929 . S
C83 C82 1.362 1_455 S
C83 C84 1.366 . S
C84 C81 1.365 . S
C84 C83 1.366 . S
C84 H98 0.930 . S
C85 C82 1.378 . S
C85 N86 1.315 1_655 S
C85 H88 0.930 . S
N86 Co66 2.194 . S
N86 C81 1.328 . S
N86 C85 1.315 1_455 S
H87 C81 0.929 . S
H88 C85 0.930 . S
H89 C77 0.929 . S
H90 C79 0.929 . S
O91 Co66 2.351 . S
O91 C94 1.244 . S
O92 Co66 2.155 . S
O92 C94 1.240 . S
O93 Co66 2.096 1_655 S
O93 C74 1.247 . S
C94 O91 1.244 . S
C94 O92 1.240 . S
H95 C69 0.932 . S
H96 C78 0.931 . S
H97 C82 0.929 . S
H98 C84 0.930 . S
Co99 N103 2.148 . S
Co99 N109 2.128 . S
Co99 N119 2.194 . S
Co99 O124 2.351 . S
Co99 O125 2.155 . S
Co99 O126 2.096 . S
C100 N103 1.301 . S
C100 N104 1.328 . S
C100 H105 0.930 . S
C101 C102 1.333 . S
C101 N103 1.317 . S
C101 H106 0.930 . S
C102 C101 1.333 . S
C102 N104 1.350 . S
C102 H128 0.931 . S
N103 Co99 2.148 . S
N103 C100 1.301 . S
N103 C101 1.317 . S
N104 C100 1.328 . S
N104 C102 1.350 . S
H105 C100 0.930 . S
H106 C101 0.930 . S
C107 O108 1.224 . S
C107 O126 1.247 . S
O108 C107 1.224 . S
N109 Co99 2.128 . S
N109 C110 1.355 . S
N109 C112 1.311 1_554 S
C110 N109 1.355 . S
C110 C111 1.363 . S
C110 H122 0.929 . S
C111 C110 1.363 . S
C111 N113 1.375 1_554 S
C111 H129 0.931 . S
C112 N109 1.311 1_556 S
C112 N113 1.347 . S
C112 H123 0.929 . S
N113 C111 1.375 1_556 S
N113 C112 1.347 . S
C114 C117 1.365 . S
C114 N119 1.328 . S
C114 H120 0.929 . S
C115 C116 1.362 . S
C115 C118 1.378 . S
C115 H130 0.929 . S
C116 C115 1.362 . S
C116 C117 1.366 . S
C117 C114 1.365 . S
C117 C116 1.366 . S
C117 H131 0.930 . S
C118 C115 1.378 . S
C118 N119 1.315 . S
C118 H121 0.930 . S
N119 Co99 2.194 . S
N119 C114 1.328 . S
N119 C118 1.315 . S
H120 C114 0.929 . S
H121 C118 0.930 . S
H122 C110 0.929 . S
H123 C112 0.929 . S
O124 Co99 2.351 . S
O124 C127 1.244 . S
O125 Co99 2.155 . S
O125 C127 1.240 . S
O126 Co99 2.096 . S
O126 C107 1.247 . S
C127 O124 1.244 . S
C127 O125 1.240 . S
H128 C102 0.931 . S
H129 C111 0.931 . S
H130 C115 0.929 . S
H131 C117 0.930 . S
Co132 N136 2.148 . S
Co132 N142 2.128 . S
Co132 N152 2.194 . S
Co132 O157 2.351 . S
Co132 O158 2.155 . S
Co132 O159 2.096 . S
C133 N136 1.301 . S
C133 N137 1.328 . S
C133 H138 0.930 . S
C134 C135 1.333 . S
C134 N136 1.317 . S
C134 H139 0.930 . S
C135 C134 1.333 . S
C135 N137 1.350 . S
C135 H161 0.931 . S
N136 Co132 2.148 . S
N136 C133 1.301 . S
N136 C134 1.317 . S
N137 C133 1.328 . S
N137 C135 1.350 . S
H138 C133 0.930 . S
H139 C134 0.930 . S
C140 O141 1.224 . S
C140 O159 1.247 . S
O141 C140 1.224 . S
N142 Co132 2.128 . S
N142 C143 1.355 . S
N142 C145 1.311 . S
C143 N142 1.355 . S
C143 C144 1.363 . S
C143 H155 0.929 . S
C144 C143 1.363 . S
C144 N146 1.375 . S
C144 H162 0.931 . S
C145 N142 1.311 . S
C145 N146 1.347 . S
C145 H156 0.929 . S
N146 C144 1.375 . S
N146 C145 1.347 . S
C147 C150 1.365 . S
C147 N152 1.328 . S
C147 H153 0.929 . S
C148 C149 1.362 . S
C148 C151 1.378 . S
C148 H163 0.929 . S
C149 C148 1.362 . S
C149 C150 1.366 . S
C150 C147 1.365 . S
C150 C149 1.366 . S
C150 H164 0.930 . S
C151 C148 1.378 . S
C151 N152 1.315 . S
C151 H154 0.930 . S
N152 Co132 2.194 . S
N152 C147 1.328 . S
N152 C151 1.315 . S
H153 C147 0.929 . S
H154 C151 0.930 . S
H155 C143 0.929 . S
H156 C145 0.929 . S
O157 Co132 2.351 . S
O157 C160 1.244 . S
O158 Co132 2.155 . S
O158 C160 1.240 . S
O159 Co132 2.096 . S
O159 C140 1.247 . S
C160 O157 1.244 . S
C160 O158 1.240 . S
H161 C135 0.931 . S
H162 C144 0.931 . S
H163 C148 0.929 . S
H164 C150 0.930 . S
Co165 N169 2.148 . S
Co165 N175 2.128 . S
Co165 N185 2.194 . S
Co165 O190 2.351 . S
Co165 O191 2.155 . S
Co165 O192 2.096 . S
C166 N169 1.301 . S
C166 N170 1.328 . S
C166 H171 0.930 . S
C167 C168 1.333 . S
C167 N169 1.317 . S
C167 H172 0.930 . S
C168 C167 1.333 . S
C168 N170 1.350 . S
C168 H194 0.931 . S
N169 Co165 2.148 . S
N169 C166 1.301 . S
N169 C167 1.317 . S
N170 C166 1.328 . S
N170 C168 1.350 . S
H171 C166 0.930 . S
H172 C167 0.930 . S
C173 O174 1.224 . S
C173 O192 1.247 . S
O174 C173 1.224 . S
N175 Co165 2.128 . S
N175 C176 1.355 . S
N175 C178 1.311 1_556 S
C176 N175 1.355 . S
C176 C177 1.363 . S
C176 H188 0.929 . S
C177 C176 1.363 . S
C177 N179 1.375 1_556 S
C177 H195 0.931 . S
C178 N175 1.311 1_554 S
C178 N179 1.347 . S
C178 H189 0.929 . S
N179 C177 1.375 1_554 S
N179 C178 1.347 . S
C180 C183 1.365 . S
C180 N185 1.328 . S
C180 H186 0.929 . S
C181 C182 1.362 . S
C181 C184 1.378 . S
C181 H196 0.929 . S
C182 C181 1.362 . S
C182 C183 1.366 . S
C183 C180 1.365 . S
C183 C182 1.366 . S
C183 H197 0.930 . S
C184 C181 1.378 . S
C184 N185 1.315 . S
C184 H187 0.930 . S
N185 Co165 2.194 . S
N185 C180 1.328 . S
N185 C184 1.315 . S
H186 C180 0.929 . S
H187 C184 0.930 . S
H188 C176 0.929 . S
H189 C178 0.929 . S
O190 Co165 2.351 . S
O190 C193 1.244 . S
O191 Co165 2.155 . S
O191 C193 1.240 . S
O192 Co165 2.096 . S
O192 C173 1.247 . S
C193 O190 1.244 . S
C193 O191 1.240 . S
H194 C168 0.931 . S
H195 C177 0.931 . S
H196 C181 0.929 . S
H197 C183 0.930 . S
Co198 N202 2.148 1_455 S
Co198 N208 2.128 . S
Co198 N218 2.194 . S
Co198 O223 2.351 . S
Co198 O224 2.155 . S
Co198 O225 2.096 1_455 S
C199 N202 1.301 1_556 S
C199 N203 1.328 . S
C199 H204 0.930 . S
C200 C201 1.328 1_554 S
C200 N202 1.317 . S
C200 H205 0.930 . S
C201 C200 1.328 1_556 S
C201 N203 1.355 . S
C201 H227 0.932 . S
N202 Co198 2.148 1_655 S
N202 C199 1.301 1_554 S
N202 C200 1.317 . S
N203 C199 1.328 . S
N203 C201 1.355 . S
H204 C199 0.930 . S
H205 C200 0.930 . S
C206 O207 1.224 . S
C206 O225 1.247 . S
O207 C206 1.224 . S
N208 Co198 2.128 . S
N208 C209 1.355 . S
N208 C211 1.311 . S
C209 N208 1.355 . S
C209 C210 1.363 . S
C209 H221 0.929 . S
C210 C209 1.363 . S
C210 N212 1.375 . S
C210 H228 0.931 . S
C211 N208 1.311 . S
C211 N212 1.347 . S
C211 H222 0.929 . S
N212 C210 1.375 . S
N212 C211 1.347 . S
C213 C216 1.365 . S
C213 N218 1.328 . S
C213 H219 0.929 . S
C214 C215 1.362 1_655 S
C214 C217 1.378 . S
C214 H229 0.929 . S
C215 C214 1.362 1_455 S
C215 C216 1.366 . S
C216 C213 1.365 . S
C216 C215 1.366 . S
C216 H230 0.930 . S
C217 C214 1.378 . S
C217 N218 1.315 1_655 S
C217 H220 0.930 . S
N218 Co198 2.194 . S
N218 C213 1.328 . S
N218 C217 1.315 1_455 S
H219 C213 0.929 . S
H220 C217 0.930 . S
H221 C209 0.929 . S
H222 C211 0.929 . S
O223 Co198 2.351 . S
O223 C226 1.244 . S
O224 Co198 2.155 . S
O224 C226 1.240 . S
O225 Co198 2.096 1_655 S
O225 C206 1.247 . S
C226 O223 1.244 . S
C226 O224 1.240 . S
H227 C201 0.932 . S
H228 C210 0.931 . S
H229 C214 0.929 . S
H230 C216 0.930 . S
Co231 N235 2.148 . S
Co231 N241 2.128 . S
Co231 N251 2.194 . S
Co231 O256 2.351 . S
Co231 O257 2.155 . S
Co231 O258 2.096 . S
C232 N235 1.301 . S
C232 N236 1.328 . S
C232 H237 0.930 . S
C233 C234 1.333 . S
C233 N235 1.317 . S
C233 H238 0.930 . S
C234 C233 1.333 . S
C234 N236 1.350 . S
C234 H260 0.931 . S
N235 Co231 2.148 . S
N235 C232 1.301 . S
N235 C233 1.317 . S
N236 C232 1.328 . S
N236 C234 1.350 . S
H237 C232 0.930 . S
H238 C233 0.930 . S
C239 O240 1.224 . S
C239 O258 1.247 . S
O240 C239 1.224 . S
N241 Co231 2.128 . S
N241 C242 1.355 . S
N241 C244 1.311 . S
C242 N241 1.355 . S
C242 C243 1.363 . S
C242 H254 0.929 . S
C243 C242 1.363 . S
C243 N245 1.375 . S
C243 H261 0.931 . S
C244 N241 1.311 . S
C244 N245 1.347 . S
C244 H255 0.929 . S
N245 C243 1.375 . S
N245 C244 1.347 . S
C246 C249 1.365 . S
C246 N251 1.328 . S
C246 H252 0.929 . S
C247 C248 1.362 . S
C247 C250 1.378 . S
C247 H262 0.929 . S
C248 C247 1.362 . S
C248 C249 1.366 . S
C249 C246 1.365 . S
C249 C248 1.366 . S
C249 H263 0.930 . S
C250 C247 1.378 . S
C250 N251 1.315 . S
C250 H253 0.930 . S
N251 Co231 2.194 . S
N251 C246 1.328 . S
N251 C250 1.315 . S
H252 C246 0.929 . S
H253 C250 0.930 . S
H254 C242 0.929 . S
H255 C244 0.929 . S
O256 Co231 2.351 . S
O256 C259 1.244 . S
O257 Co231 2.155 . S
O257 C259 1.240 . S
O258 Co231 2.096 . S
O258 C239 1.247 . S
C259 O256 1.244 . S
C259 O257 1.240 . S
H260 C234 0.931 . S
H261 C243 0.931 . S
H262 C247 0.929 . S
H263 C249 0.930 . S
Co264 N268 2.148 . S
Co264 N274 2.128 . S
Co264 N284 2.194 . S
Co264 O289 2.351 . S
Co264 O290 2.155 . S
Co264 O291 2.096 . S
C265 N268 1.301 . S
C265 N269 1.328 . S
C265 H270 0.930 . S
C266 C267 1.333 . S
C266 N268 1.317 . S
C266 H271 0.930 . S
C267 C266 1.333 . S
C267 N269 1.350 . S
C267 H293 0.931 . S
N268 Co264 2.148 . S
N268 C265 1.301 . S
N268 C266 1.317 . S
N269 C265 1.328 . S
N269 C267 1.350 . S
H270 C265 0.930 . S
H271 C266 0.930 . S
C272 O273 1.224 . S
C272 O291 1.247 . S
O273 C272 1.224 . S
N274 Co264 2.128 . S
N274 C275 1.355 . S
N274 C277 1.311 . S
C275 N274 1.355 . S
C275 C276 1.363 . S
C275 H287 0.929 . S
C276 C275 1.363 . S
C276 N278 1.375 . S
C276 H294 0.931 . S
C277 N274 1.311 . S
C277 N278 1.347 . S
C277 H288 0.929 . S
N278 C276 1.375 . S
N278 C277 1.347 . S
C279 C282 1.365 . S
C279 N284 1.328 . S
C279 H285 0.929 . S
C280 C281 1.362 . S
C280 C283 1.378 . S
C280 H295 0.929 . S
C281 C280 1.362 . S
C281 C282 1.366 . S
C282 C279 1.365 . S
C282 C281 1.366 . S
C282 H296 0.930 . S
C283 C280 1.378 . S
C283 N284 1.315 . S
C283 H286 0.930 . S
N284 Co264 2.194 . S
N284 C279 1.328 . S
N284 C283 1.315 . S
H285 C279 0.929 . S
H286 C283 0.930 . S
H287 C275 0.929 . S
H288 C277 0.929 . S
O289 Co264 2.351 . S
O289 C292 1.244 . S
O290 Co264 2.155 . S
O290 C292 1.240 . S
O291 Co264 2.096 . S
O291 C272 1.247 . S
C292 O289 1.244 . S
C292 O290 1.240 . S
H293 C267 0.931 . S
H294 C276 0.931 . S
H295 C280 0.929 . S
H296 C282 0.930 . S
Co297 N301 2.148 . S
Co297 N307 2.128 . S
Co297 N317 2.194 . S
Co297 O322 2.351 . S
Co297 O323 2.155 . S
Co297 O324 2.096 . S
C298 N301 1.301 . S
C298 N302 1.328 . S
C298 H303 0.930 . S
C299 C300 1.333 . S
C299 N301 1.317 . S
C299 H304 0.930 . S
C300 C299 1.333 . S
C300 N302 1.350 . S
C300 H326 0.931 . S
N301 Co297 2.148 . S
N301 C298 1.301 . S
N301 C299 1.317 . S
N302 C298 1.328 . S
N302 C300 1.350 . S
H303 C298 0.930 . S
H304 C299 0.930 . S
C305 O306 1.224 . S
C305 O324 1.247 . S
O306 C305 1.224 . S
N307 Co297 2.128 . S
N307 C308 1.355 . S
N307 C310 1.311 1_556 S
C308 N307 1.355 . S
C308 C309 1.363 . S
C308 H320 0.929 . S
C309 C308 1.363 . S
C309 N311 1.375 1_556 S
C309 H327 0.931 . S
C310 N307 1.311 1_554 S
C310 N311 1.347 . S
C310 H321 0.929 . S
N311 C309 1.375 1_554 S
N311 C310 1.347 . S
C312 C315 1.365 . S
C312 N317 1.328 . S
C312 H318 0.929 . S
C313 C314 1.362 . S
C313 C316 1.378 . S
C313 H328 0.929 . S
C314 C313 1.362 . S
C314 C315 1.366 . S
C315 C312 1.365 . S
C315 C314 1.366 . S
C315 H329 0.930 . S
C316 C313 1.378 . S
C316 N317 1.315 . S
C316 H319 0.930 . S
N317 Co297 2.194 . S
N317 C312 1.328 . S
N317 C316 1.315 . S
H318 C312 0.929 . S
H319 C316 0.930 . S
H320 C308 0.929 . S
H321 C310 0.929 . S
O322 Co297 2.351 . S
O322 C325 1.244 . S
O323 Co297 2.155 . S
O323 C325 1.240 . S
O324 Co297 2.096 . S
O324 C305 1.247 . S
C325 O322 1.244 . S
C325 O323 1.240 . S
H326 C300 0.931 . S
H327 C309 0.931 . S
H328 C313 0.929 . S
H329 C315 0.930 . S
Co330 N334 2.148 . S
Co330 N340 2.128 . S
Co330 N350 2.194 . S
Co330 O355 2.351 . S
Co330 O356 2.155 . S
Co330 O357 2.096 . S
C331 N334 1.301 . S
C331 N335 1.328 . S
C331 H336 0.930 . S
C332 C333 1.333 . S
C332 N334 1.317 . S
C332 H337 0.930 . S
C333 C332 1.333 . S
C333 N335 1.350 . S
C333 H359 0.931 . S
N334 Co330 2.148 . S
N334 C331 1.301 . S
N334 C332 1.317 . S
N335 C331 1.328 . S
N335 C333 1.350 . S
H336 C331 0.930 . S
H337 C332 0.930 . S
C338 O339 1.224 . S
C338 O357 1.247 . S
O339 C338 1.224 . S
N340 Co330 2.128 . S
N340 C341 1.355 . S
N340 C343 1.311 1_554 S
C341 N340 1.355 . S
C341 C342 1.363 . S
C341 H353 0.929 . S
C342 C341 1.363 . S
C342 N344 1.375 1_554 S
C342 H360 0.931 . S
C343 N340 1.311 1_556 S
C343 N344 1.347 . S
C343 H354 0.929 . S
N344 C342 1.375 1_556 S
N344 C343 1.347 . S
C345 C348 1.365 . S
C345 N350 1.328 . S
C345 H351 0.929 . S
C346 C347 1.362 . S
C346 C349 1.378 . S
C346 H361 0.929 . S
C347 C346 1.362 . S
C347 C348 1.366 . S
C348 C345 1.365 . S
C348 C347 1.366 . S
C348 H362 0.930 . S
C349 C346 1.378 . S
C349 N350 1.315 . S
C349 H352 0.930 . S
N350 Co330 2.194 . S
N350 C345 1.328 . S
N350 C349 1.315 . S
H351 C345 0.929 . S
H352 C349 0.930 . S
H353 C341 0.929 . S
H354 C343 0.929 . S
O355 Co330 2.351 . S
O355 C358 1.244 . S
O356 Co330 2.155 . S
O356 C358 1.240 . S
O357 Co330 2.096 . S
O357 C338 1.247 . S
C358 O355 1.244 . S
C358 O356 1.240 . S
H359 C333 0.931 . S
H360 C342 0.931 . S
H361 C346 0.929 . S
H362 C348 0.930 . S
Co363 N367 2.148 . S
Co363 N373 2.128 . S
Co363 N383 2.194 . S
Co363 O388 2.351 . S
Co363 O389 2.155 . S
Co363 O390 2.096 . S
C364 N367 1.301 . S
C364 N368 1.328 . S
C364 H369 0.930 . S
C365 C366 1.333 . S
C365 N367 1.317 . S
C365 H370 0.930 . S
C366 C365 1.333 . S
C366 N368 1.350 . S
C366 H392 0.931 . S
N367 Co363 2.148 . S
N367 C364 1.301 . S
N367 C365 1.317 . S
N368 C364 1.328 . S
N368 C366 1.350 . S
H369 C364 0.930 . S
H370 C365 0.930 . S
C371 O372 1.224 . S
C371 O390 1.247 . S
O372 C371 1.224 . S
N373 Co363 2.128 . S
N373 C374 1.355 . S
N373 C376 1.311 . S
C374 N373 1.355 . S
C374 C375 1.363 . S
C374 H386 0.929 . S
C375 C374 1.363 . S
C375 N377 1.375 . S
C375 H393 0.931 . S
C376 N373 1.311 . S
C376 N377 1.347 . S
C376 H387 0.929 . S
N377 C375 1.375 . S
N377 C376 1.347 . S
C378 C381 1.365 . S
C378 N383 1.328 . S
C378 H384 0.929 . S
C379 C380 1.362 . S
C379 C382 1.378 . S
C379 H394 0.929 . S
C380 C379 1.362 . S
C380 C381 1.366 . S
C381 C378 1.365 . S
C381 C380 1.366 . S
C381 H395 0.930 . S
C382 C379 1.378 . S
C382 N383 1.315 . S
C382 H385 0.930 . S
N383 Co363 2.194 . S
N383 C378 1.328 . S
N383 C382 1.315 . S
H384 C378 0.929 . S
H385 C382 0.930 . S
H386 C374 0.929 . S
H387 C376 0.929 . S
O388 Co363 2.351 . S
O388 C391 1.244 . S
O389 Co363 2.155 . S
O389 C391 1.240 . S
O390 Co363 2.096 . S
O390 C371 1.247 . S
C391 O388 1.244 . S
C391 O389 1.240 . S
H392 C366 0.931 . S
H393 C375 0.931 . S
H394 C379 0.929 . S
H395 C381 0.930 . S
Co396 N400 2.148 . S
Co396 N406 2.128 1_455 S
Co396 N416 2.194 . S
Co396 O421 2.351 1_455 S
Co396 O422 2.155 1_455 S
Co396 O423 2.096 . S
C397 N400 1.301 1_554 S
C397 N401 1.328 . S
C397 H402 0.930 . S
C398 C399 1.328 1_556 S
C398 N400 1.317 . S
C398 H403 0.930 . S
C399 C398 1.328 1_554 S
C399 N401 1.355 . S
C399 H425 0.932 . S
N400 Co396 2.148 . S
N400 C397 1.301 1_556 S
N400 C398 1.317 . S
N401 C397 1.328 . S
N401 C399 1.355 . S
H402 C397 0.930 . S
H403 C398 0.930 . S
C404 O405 1.224 . S
C404 O423 1.247 . S
O405 C404 1.224 . S
N406 Co396 2.128 1_655 S
N406 C407 1.355 . S
N406 C409 1.311 . S
C407 N406 1.355 . S
C407 C408 1.363 . S
C407 H419 0.929 . S
C408 C407 1.363 . S
C408 N410 1.375 . S
C408 H426 0.931 . S
C409 N406 1.311 . S
C409 N410 1.347 . S
C409 H420 0.929 . S
N410 C408 1.375 . S
N410 C409 1.347 . S
C411 C414 1.365 . S
C411 N416 1.328 . S
C411 H417 0.913 1_455 S
C412 C413 1.362 . S
C412 C415 1.378 . S
C412 H427 0.929 . S
C413 C412 1.362 . S
C413 C414 1.366 . S
C414 C411 1.365 . S
C414 C413 1.366 . S
C414 H428 0.930 1_455 S
C415 C412 1.378 . S
C415 N416 1.315 . S
C415 H418 0.930 . S
N416 Co396 2.194 . S
N416 C411 1.328 . S
N416 C415 1.315 . S
H417 C411 0.913 1_655 S
H418 C415 0.930 . S
H419 C407 0.929 . S
H420 C409 0.929 . S
O421 Co396 2.351 1_655 S
O421 C424 1.244 . S
O422 Co396 2.155 1_655 S
O422 C424 1.240 . S
O423 Co396 2.096 . S
O423 C404 1.247 . S
C424 O421 1.244 . S
C424 O422 1.240 . S
H425 C399 0.932 . S
H426 C408 0.931 . S
H427 C412 0.929 . S
H428 C414 0.930 1_655 S
Co429 N433 2.148 . S
Co429 N439 2.128 . S
Co429 N449 2.194 . S
Co429 O454 2.351 . S
Co429 O455 2.155 . S
Co429 O456 2.096 . S
C430 N433 1.301 . S
C430 N434 1.328 . S
C430 H435 0.930 . S
C431 C432 1.333 . S
C431 N433 1.317 . S
C431 H436 0.930 . S
C432 C431 1.333 . S
C432 N434 1.350 . S
C432 H458 0.931 . S
N433 Co429 2.148 . S
N433 C430 1.301 . S
N433 C431 1.317 . S
N434 C430 1.328 . S
N434 C432 1.350 . S
H435 C430 0.930 . S
H436 C431 0.930 . S
C437 O438 1.224 . S
C437 O456 1.247 . S
O438 C437 1.224 . S
N439 Co429 2.128 . S
N439 C440 1.355 . S
N439 C442 1.311 . S
C440 N439 1.355 . S
C440 C441 1.363 . S
C440 H452 0.929 . S
C441 C440 1.363 . S
C441 N443 1.375 . S
C441 H459 0.931 . S
C442 N439 1.311 . S
C442 N443 1.347 . S
C442 H453 0.929 . S
N443 C441 1.375 . S
N443 C442 1.347 . S
C444 C447 1.365 . S
C444 N449 1.328 . S
C444 H450 0.929 . S
C445 C446 1.362 . S
C445 C448 1.378 . S
C445 H460 0.929 . S
C446 C445 1.362 . S
C446 C447 1.366 . S
C447 C444 1.365 . S
C447 C446 1.366 . S
C447 H461 0.930 . S
C448 C445 1.378 . S
C448 N449 1.315 . S
C448 H451 0.930 . S
N449 Co429 2.194 . S
N449 C444 1.328 . S
N449 C448 1.315 . S
H450 C444 0.929 . S
H451 C448 0.930 . S
H452 C440 0.929 . S
H453 C442 0.929 . S
O454 Co429 2.351 . S
O454 C457 1.244 . S
O455 Co429 2.155 . S
O455 C457 1.240 . S
O456 Co429 2.096 . S
O456 C437 1.247 . S
C457 O454 1.244 . S
C457 O455 1.240 . S
H458 C432 0.931 . S
H459 C441 0.931 . S
H460 C445 0.929 . S
H461 C447 0.930 . S
Co462 N466 2.148 . S
Co462 N472 2.128 1_455 S
Co462 N482 2.194 . S
Co462 O487 2.351 1_455 S
Co462 O488 2.155 1_455 S
Co462 O489 2.096 . S
C463 N466 1.301 1_556 S
C463 N467 1.328 . S
C463 H468 0.930 . S
C464 C465 1.328 1_554 S
C464 N466 1.317 . S
C464 H469 0.930 . S
C465 C464 1.328 1_556 S
C465 N467 1.355 . S
C465 H491 0.932 . S
N466 Co462 2.148 . S
N466 C463 1.301 1_554 S
N466 C464 1.317 . S
N467 C463 1.328 . S
N467 C465 1.355 . S
H468 C463 0.930 . S
H469 C464 0.930 . S
C470 O471 1.224 . S
C470 O489 1.247 . S
O471 C470 1.224 . S
N472 Co462 2.128 1_655 S
N472 C473 1.355 . S
N472 C475 1.311 . S
C473 N472 1.355 . S
C473 C474 1.363 . S
C473 H485 0.929 . S
C474 C473 1.363 . S
C474 N476 1.375 . S
C474 H492 0.931 . S
C475 N472 1.311 . S
C475 N476 1.347 . S
C475 H486 0.929 . S
N476 C474 1.375 . S
N476 C475 1.347 . S
C477 C480 1.365 . S
C477 N482 1.328 . S
C477 H483 0.913 1_455 S
C478 C479 1.362 . S
C478 C481 1.378 . S
C478 H493 0.929 . S
C479 C478 1.362 . S
C479 C480 1.366 . S
C480 C477 1.365 . S
C480 C479 1.366 . S
C480 H494 0.930 1_455 S
C481 C478 1.378 . S
C481 N482 1.315 . S
C481 H484 0.930 . S
N482 Co462 2.194 . S
N482 C477 1.328 . S
N482 C481 1.315 . S
H483 C477 0.913 1_655 S
H484 C481 0.930 . S
H485 C473 0.929 . S
H486 C475 0.929 . S
O487 Co462 2.351 1_655 S
O487 C490 1.244 . S
O488 Co462 2.155 1_655 S
O488 C490 1.240 . S
O489 Co462 2.096 . S
O489 C470 1.247 . S
C490 O487 1.244 . S
C490 O488 1.240 . S
H491 C465 0.932 . S
H492 C474 0.931 . S
H493 C478 0.929 . S
H494 C480 0.930 1_655 S
Co495 N499 2.148 . S
Co495 N505 2.128 . S
Co495 N515 2.194 . S
Co495 O520 2.351 . S
Co495 O521 2.155 . S
Co495 O522 2.096 . S
C496 N499 1.301 . S
C496 N500 1.328 . S
C496 H501 0.930 . S
C497 C498 1.333 . S
C497 N499 1.317 . S
C497 H502 0.930 . S
C498 C497 1.333 . S
C498 N500 1.350 . S
C498 H524 0.931 . S
N499 Co495 2.148 . S
N499 C496 1.301 . S
N499 C497 1.317 . S
N500 C496 1.328 . S
N500 C498 1.350 . S
H501 C496 0.930 . S
H502 C497 0.930 . S
C503 O504 1.224 . S
C503 O522 1.247 . S
O504 C503 1.224 . S
N505 Co495 2.128 . S
N505 C506 1.355 . S
N505 C508 1.311 . S
C506 N505 1.355 . S
C506 C507 1.363 . S
C506 H518 0.929 . S
C507 C506 1.363 . S
C507 N509 1.375 . S
C507 H525 0.931 . S
C508 N505 1.311 . S
C508 N509 1.347 . S
C508 H519 0.929 . S
N509 C507 1.375 . S
N509 C508 1.347 . S
C510 C513 1.365 . S
C510 N515 1.328 . S
C510 H516 0.929 . S
C511 C512 1.362 . S
C511 C514 1.378 . S
C511 H526 0.929 . S
C512 C511 1.362 . S
C512 C513 1.366 . S
C513 C510 1.365 . S
C513 C512 1.366 . S
C513 H527 0.930 . S
C514 C511 1.378 . S
C514 N515 1.315 . S
C514 H517 0.930 . S
N515 Co495 2.194 . S
N515 C510 1.328 . S
N515 C514 1.315 . S
H516 C510 0.929 . S
H517 C514 0.930 . S
H518 C506 0.929 . S
H519 C508 0.929 . S
O520 Co495 2.351 . S
O520 C523 1.244 . S
O521 Co495 2.155 . S
O521 C523 1.240 . S
O522 Co495 2.096 . S
O522 C503 1.247 . S
C523 O520 1.244 . S
C523 O521 1.240 . S
H524 C498 0.931 . S
H525 C507 0.931 . S
H526 C511 0.929 . S
H527 C513 0.930 . S
C528 C529 1.369 . S
C528 C530 1.419 . S
C528 H532 0.930 . S
C529 C528 1.369 . S
C529 C538 1.429 1_545 S
C530 C528 1.419 . S
C530 C531 1.363 1_545 S
C530 H533 0.929 . S
C531 C530 1.363 1_565 S
C531 C537 1.428 . S
H532 C528 0.930 . S
H533 C530 0.929 . S
S534 N535 1.613 . S
S534 N536 1.610 . S
N535 S534 1.613 . S
N535 C538 1.350 . S
N536 S534 1.610 . S
N536 C537 1.351 . S
C537 C531 1.428 . S
C537 N536 1.351 . S
C537 C538 1.434 . S
C538 C529 1.429 1_565 S
C538 N535 1.350 . S
C538 C537 1.434 . S
C539 C540 1.369 . S
C539 C541 1.419 . S
C539 H543 0.930 . S
C540 C539 1.369 . S
C540 C549 1.429 . S
C541 C539 1.419 . S
C541 C542 1.363 . S
C541 H544 0.929 . S
C542 C541 1.363 . S
C542 C548 1.428 . S
H543 C539 0.930 . S
H544 C541 0.929 . S
S545 N546 1.613 . S
S545 N547 1.610 . S
N546 S545 1.613 . S
N546 C549 1.350 . S
N547 S545 1.610 . S
N547 C548 1.351 . S
C548 C542 1.428 . S
C548 N547 1.351 . S
C548 C549 1.434 . S
C549 C540 1.429 . S
C549 N546 1.350 . S
C549 C548 1.434 . S
C550 C551 1.369 1_565 S
C550 C552 1.419 . S
C550 H554 0.930 1_455 S
C551 C550 1.369 1_545 S
C551 C560 1.429 1_554 S
C552 C550 1.419 . S
C552 C553 1.363 1_554 S
C552 H555 0.929 1_455 S
C553 C552 1.363 1_556 S
C553 C559 1.428 1_565 S
H554 C550 0.930 1_655 S
H555 C552 0.929 1_655 S
S556 N557 1.613 . S
S556 N558 1.610 . S
N557 S556 1.613 . S
N557 C560 1.350 . S
N558 S556 1.610 . S
N558 C559 1.351 . S
C559 C553 1.428 1_545 S
C559 N558 1.351 . S
C559 C560 1.434 . S
C560 C551 1.429 1_556 S
C560 N557 1.350 . S
C560 C559 1.434 . S
C561 C562 1.369 . S
C561 C563 1.419 . S
C561 H565 0.930 . S
C562 C561 1.369 . S
C562 C571 1.429 . S
C563 C561 1.419 . S
C563 C564 1.363 . S
C563 H566 0.929 . S
C564 C563 1.363 . S
C564 C570 1.428 . S
H565 C561 0.930 . S
H566 C563 0.929 . S
S567 N568 1.613 . S
S567 N569 1.610 . S
N568 S567 1.613 . S
N568 C571 1.350 . S
N569 S567 1.610 . S
N569 C570 1.351 . S
C570 C564 1.428 . S
C570 N569 1.351 . S
C570 C571 1.434 . S
C571 C562 1.429 . S
C571 N568 1.350 . S
C571 C570 1.434 . S
C572 C573 1.369 . S
C572 C574 1.419 . S
C572 H576 0.930 . S
C573 C572 1.369 . S
C573 C582 1.429 . S
C574 C572 1.419 . S
C574 C575 1.363 . S
C574 H577 0.929 . S
C575 C574 1.363 . S
C575 C581 1.428 . S
H576 C572 0.930 . S
H577 C574 0.929 . S
S578 N579 1.613 . S
S578 N580 1.610 . S
N579 S578 1.613 . S
N579 C582 1.350 . S
N580 S578 1.610 . S
N580 C581 1.351 . S
C581 C575 1.428 . S
C581 N580 1.351 . S
C581 C582 1.434 . S
C582 C573 1.429 . S
C582 N579 1.350 . S
C582 C581 1.434 . S
C583 C584 1.369 . S
C583 C585 1.419 . S
C583 H587 0.930 . S
C584 C583 1.369 . S
C584 C593 1.429 . S
C585 C583 1.419 . S
C585 C586 1.363 . S
C585 H588 0.929 . S
C586 C585 1.363 . S
C586 C592 1.428 . S
H587 C583 0.930 . S
H588 C585 0.929 . S
S589 N590 1.613 . S
S589 N591 1.610 . S
N590 S589 1.613 . S
N590 C593 1.350 . S
N591 S589 1.610 . S
N591 C592 1.351 . S
C592 C586 1.428 . S
C592 N591 1.351 . S
C592 C593 1.434 . S
C593 C584 1.429 . S
C593 N590 1.350 . S
C593 C592 1.434 . S
C594 C595 1.369 1_554 S
C594 C596 1.419 . S
C594 H598 0.930 1_455 S
C595 C594 1.369 1_556 S
C595 C604 1.429 . S
C596 C594 1.419 . S
C596 C597 1.363 . S
C596 H599 0.929 1_455 S
C597 C596 1.363 . S
C597 C603 1.428 1_554 S
H598 C594 0.930 1_655 S
H599 C596 0.929 1_655 S
S600 N601 1.613 . S
S600 N602 1.610 . S
N601 S600 1.613 . S
N601 C604 1.350 . S
N602 S600 1.610 . S
N602 C603 1.351 . S
C603 C597 1.428 1_556 S
C603 N602 1.351 . S
C603 C604 1.434 . S
C604 C595 1.429 . S
C604 N601 1.350 . S
C604 C603 1.434 . S
C605 C606 1.369 . S
C605 C607 1.419 . S
C605 H609 0.930 . S
C606 C605 1.369 . S
C606 C615 1.429 . S
C607 C605 1.419 . S
C607 C608 1.363 . S
C607 H610 0.929 . S
C608 C607 1.363 . S
C608 C614 1.428 . S
H609 C605 0.930 . S
H610 C607 0.929 . S
S611 N612 1.613 . S
S611 N613 1.610 . S
N612 S611 1.613 . S
N612 C615 1.350 . S
N613 S611 1.610 . S
N613 C614 1.351 . S
C614 C608 1.428 . S
C614 N613 1.351 . S
C614 C615 1.434 . S
C615 C606 1.429 . S
C615 N612 1.350 . S
C615 C614 1.434 . S
C616 C617 1.369 . S
C616 C618 1.419 . S
C616 H620 0.930 . S
C617 C616 1.369 . S
C617 C626 1.429 . S
C618 C616 1.419 . S
C618 C619 1.363 . S
C618 H621 0.929 . S
C619 C618 1.363 . S
C619 C625 1.428 . S
H620 C616 0.930 . S
H621 C618 0.929 . S
S622 N623 1.613 . S
S622 N624 1.610 . S
N623 S622 1.613 . S
N623 C626 1.350 . S
N624 S622 1.610 . S
N624 C625 1.351 . S
C625 C619 1.428 . S
C625 N624 1.351 . S
C625 C626 1.434 . S
C626 C617 1.429 . S
C626 N623 1.350 . S
C626 C625 1.434 . S
C627 C628 1.369 . S
C627 C629 1.419 . S
C627 H631 0.930 . S
C628 C627 1.369 . S
C628 C637 1.429 . S
C629 C627 1.419 . S
C629 C630 1.363 . S
C629 H632 0.929 . S
C630 C629 1.363 . S
C630 C636 1.428 . S
H631 C627 0.930 . S
H632 C629 0.929 . S
S633 N634 1.613 . S
S633 N635 1.610 . S
N634 S633 1.613 . S
N634 C637 1.350 . S
N635 S633 1.610 . S
N635 C636 1.351 . S
C636 C630 1.428 . S
C636 N635 1.351 . S
C636 C637 1.434 . S
C637 C628 1.429 . S
C637 N634 1.350 . S
C637 C636 1.434 . S
C638 C639 1.369 . S
C638 C640 1.419 . S
C638 H642 0.930 . S
C639 C638 1.369 . S
C639 C648 1.429 . S
C640 C638 1.419 . S
C640 C641 1.363 . S
C640 H643 0.929 . S
C641 C640 1.363 . S
C641 C647 1.428 . S
H642 C638 0.930 . S
H643 C640 0.929 . S
S644 N645 1.613 . S
S644 N646 1.610 . S
N645 S644 1.613 . S
N645 C648 1.350 . S
N646 S644 1.610 . S
N646 C647 1.351 . S
C647 C641 1.428 . S
C647 N646 1.351 . S
C647 C648 1.434 . S
C648 C639 1.429 . S
C648 N645 1.350 . S
C648 C647 1.434 . S
C649 C650 1.369 . S
C649 C651 1.419 . S
C649 H653 0.930 . S
C650 C649 1.369 . S
C650 C659 1.429 . S
C651 C649 1.419 . S
C651 C652 1.363 . S
C651 H654 0.929 . S
C652 C651 1.363 . S
C652 C658 1.428 . S
H653 C649 0.930 . S
H654 C651 0.929 . S
S655 N656 1.613 . S
S655 N657 1.610 . S
N656 S655 1.613 . S
N656 C659 1.350 . S
N657 S655 1.610 . S
N657 C658 1.351 . S
C658 C652 1.428 . S
C658 N657 1.351 . S
C658 C659 1.434 . S
C659 C650 1.429 . S
C659 N656 1.350 . S
C659 C658 1.434 . S
C660 C661 1.369 . S
C660 C662 1.419 . S
C660 H664 0.930 . S
C661 C660 1.369 . S
C661 C670 1.429 . S
C662 C660 1.419 . S
C662 C663 1.363 . S
C662 H665 0.929 . S
C663 C662 1.363 . S
C663 C669 1.428 . S
H664 C660 0.930 . S
H665 C662 0.929 . S
S666 N667 1.613 . S
S666 N668 1.610 . S
N667 S666 1.613 . S
N667 C670 1.350 . S
N668 S666 1.610 . S
N668 C669 1.351 . S
C669 C663 1.428 . S
C669 N668 1.351 . S
C669 C670 1.434 . S
C670 C661 1.429 . S
C670 N667 1.350 . S
C670 C669 1.434 . S
C671 C672 1.369 . S
C671 C673 1.419 . S
C671 H675 0.930 . S
C672 C671 1.369 . S
C672 C681 1.429 . S
C673 C671 1.419 . S
C673 C674 1.363 . S
C673 H676 0.929 . S
C674 C673 1.363 . S
C674 C680 1.428 . S
H675 C671 0.930 . S
H676 C673 0.929 . S
S677 N678 1.613 . S
S677 N679 1.610 1_455 S
N678 S677 1.613 . S
N678 C681 1.350 1_455 S
N679 S677 1.610 1_655 S
N679 C680 1.351 . S
C680 C674 1.428 . S
C680 N679 1.351 . S
C680 C681 1.434 . S
C681 C672 1.429 . S
C681 N678 1.350 1_655 S
C681 C680 1.434 . S
C682 C683 1.369 . S
C682 C684 1.419 . S
C682 H686 0.930 . S
C683 C682 1.369 . S
C683 C692 1.429 . S
C684 C682 1.419 . S
C684 C685 1.363 . S
C684 H687 0.929 . S
C685 C684 1.363 . S
C685 C691 1.428 . S
H686 C682 0.930 . S
H687 C684 0.929 . S
S688 N689 1.613 . S
S688 N690 1.610 . S
N689 S688 1.613 . S
N689 C692 1.350 . S
N690 S688 1.610 . S
N690 C691 1.351 . S
C691 C685 1.428 . S
C691 N690 1.351 . S
C691 C692 1.434 . S
C692 C683 1.429 . S
C692 N689 1.350 . S
C692 C691 1.434 . S
C693 C694 1.369 . S
C693 C695 1.419 . S
C693 H697 0.930 . S
C694 C693 1.369 . S
C694 C703 1.429 . S
C695 C693 1.419 . S
C695 C696 1.363 . S
C695 H698 0.929 . S
C696 C695 1.363 . S
C696 C702 1.428 . S
H697 C693 0.930 . S
H698 C695 0.929 . S
S699 N700 1.613 . S
S699 N701 1.610 1_554 S
N700 S699 1.613 . S
N700 C703 1.350 . S
N701 S699 1.610 1_556 S
N701 C702 1.351 1_556 S
C702 C696 1.428 . S
C702 N701 1.351 1_554 S
C702 C703 1.434 . S
C703 C694 1.429 . S
C703 N700 1.350 . S
C703 C702 1.434 . S
C704 C705 1.369 . S
C704 C706 1.419 . S
C704 H708 0.930 . S
C705 C704 1.369 . S
C705 C714 1.429 . S
C706 C704 1.419 . S
C706 C707 1.363 . S
C706 H709 0.929 . S
C707 C706 1.363 . S
C707 C713 1.428 . S
H708 C704 0.930 . S
H709 C706 0.929 . S
S710 N711 1.613 . S
S710 N712 1.610 . S
N711 S710 1.613 . S
N711 C714 1.350 . S
N712 S710 1.610 . S
N712 C713 1.351 . S
C713 C707 1.428 . S
C713 N712 1.351 . S
C713 C714 1.434 . S
C714 C705 1.429 . S
C714 N711 1.350 . S
C714 C713 1.434 . S
C715 C716 1.369 . S
C715 C717 1.419 . S
C715 H719 0.930 . S
C716 C715 1.369 . S
C716 C725 1.429 . S
C717 C715 1.419 . S
C717 C718 1.363 . S
C717 H720 0.929 . S
C718 C717 1.363 . S
C718 C724 1.428 . S
H719 C715 0.930 . S
H720 C717 0.929 . S
S721 N722 1.613 . S
S721 N723 1.610 1_554 S
N722 S721 1.613 . S
N722 C725 1.350 1_554 S
N723 S721 1.610 1_556 S
N723 C724 1.351 . S
C724 C718 1.428 . S
C724 N723 1.351 . S
C724 C725 1.434 . S
C725 C716 1.429 . S
C725 N722 1.350 1_556 S
C725 C724 1.434 . S
C726 C727 1.369 . S
C726 C728 1.419 . S
C726 H730 0.930 . S
C727 C726 1.369 . S
C727 C736 1.429 . S
C728 C726 1.419 . S
C728 C729 1.363 . S
C728 H731 0.929 . S
C729 C728 1.363 . S
C729 C735 1.428 . S
H730 C726 0.930 . S
H731 C728 0.929 . S
S732 N733 1.613 . S
S732 N734 1.610 . S
N733 S732 1.613 . S
N733 C736 1.350 . S
N734 S732 1.610 . S
N734 C735 1.351 . S
C735 C729 1.428 . S
C735 N734 1.351 . S
C735 C736 1.434 . S
C736 C727 1.429 . S
C736 N733 1.350 . S
C736 C735 1.434 . S
C737 C738 1.369 . S
C737 C739 1.419 . S
C737 H741 0.930 . S
C738 C737 1.369 . S
C738 C747 1.429 . S
C739 C737 1.419 . S
C739 C740 1.363 . S
C739 H742 0.929 . S
C740 C739 1.363 . S
C740 C746 1.428 . S
H741 C737 0.930 . S
H742 C739 0.929 . S
S743 N744 1.613 . S
S743 N745 1.610 . S
N744 S743 1.613 . S
N744 C747 1.350 . S
N745 S743 1.610 . S
N745 C746 1.351 . S
C746 C740 1.428 . S
C746 N745 1.351 . S
C746 C747 1.434 . S
C747 C738 1.429 . S
C747 N744 1.350 . S
C747 C746 1.434 . S
C748 C749 1.369 . S
C748 C750 1.419 . S
C748 H752 0.930 . S
C749 C748 1.369 . S
C749 C758 1.429 . S
C750 C748 1.419 . S
C750 C751 1.363 . S
C750 H753 0.929 . S
C751 C750 1.363 . S
C751 C757 1.428 . S
H752 C748 0.930 . S
H753 C750 0.929 . S
S754 N755 1.613 . S
S754 N756 1.610 . S
N755 S754 1.613 . S
N755 C758 1.350 . S
N756 S754 1.610 . S
N756 C757 1.351 . S
C757 C751 1.428 . S
C757 N756 1.351 . S
C757 C758 1.434 . S
C758 C749 1.429 . S
C758 N755 1.350 . S
C758 C757 1.434 . S
C759 C760 1.369 . S
C759 C761 1.419 . S
C759 H763 0.930 . S
C760 C759 1.369 . S
C760 C769 1.429 . S
C761 C759 1.419 . S
C761 C762 1.363 . S
C761 H764 0.929 . S
C762 C761 1.363 . S
C762 C768 1.428 . S
H763 C759 0.930 . S
H764 C761 0.929 . S
S765 N766 1.613 . S
S765 N767 1.610 . S
N766 S765 1.613 . S
N766 C769 1.350 . S
N767 S765 1.610 . S
N767 C768 1.351 . S
C768 C762 1.428 . S
C768 N767 1.351 . S
C768 C769 1.434 . S
C769 C760 1.429 . S
C769 N766 1.350 . S
C769 C768 1.434 . S
C770 C771 1.369 . S
C770 C772 1.419 . S
C770 H774 0.930 . S
C771 C770 1.369 . S
C771 C780 1.429 . S
C772 C770 1.419 . S
C772 C773 1.363 . S
C772 H775 0.929 . S
C773 C772 1.363 . S
C773 C779 1.428 . S
H774 C770 0.930 . S
H775 C772 0.929 . S
S776 N777 1.613 . S
S776 N778 1.610 . S
N777 S776 1.613 . S
N777 C780 1.350 . S
N778 S776 1.610 . S
N778 C779 1.351 . S
C779 C773 1.428 . S
C779 N778 1.351 . S
C779 C780 1.434 . S
C780 C771 1.429 . S
C780 N777 1.350 . S
C780 C779 1.434 . S
C781 C782 1.369 . S
C781 C783 1.419 . S
C781 H785 0.930 . S
C782 C781 1.369 . S
C782 C791 1.429 . S
C783 C781 1.419 . S
C783 C784 1.363 . S
C783 H786 0.929 . S
C784 C783 1.363 . S
C784 C790 1.428 . S
H785 C781 0.930 . S
H786 C783 0.929 . S
S787 N788 1.613 . S
S787 N789 1.610 . S
N788 S787 1.613 . S
N788 C791 1.350 . S
N789 S787 1.610 . S
N789 C790 1.351 . S
C790 C784 1.428 . S
C790 N789 1.351 . S
C790 C791 1.434 . S
C791 C782 1.429 . S
C791 N788 1.350 . S
C791 C790 1.434 . S
C792 C793 1.369 . S
C792 C794 1.419 . S
C792 H796 0.930 . S
C793 C792 1.369 . S
C793 C802 1.429 . S
C794 C792 1.419 . S
C794 C795 1.363 . S
C794 H797 0.929 . S
C795 C794 1.363 . S
C795 C801 1.428 . S
H796 C792 0.930 . S
H797 C794 0.929 . S
S798 N799 1.613 . S
S798 N800 1.610 . S
N799 S798 1.613 . S
N799 C802 1.350 . S
N800 S798 1.610 . S
N800 C801 1.351 . S
C801 C795 1.428 . S
C801 N800 1.351 . S
C801 C802 1.434 . S
C802 C793 1.429 . S
C802 N799 1.350 . S
C802 C801 1.434 . S
C803 C804 1.369 . S
C803 C805 1.419 . S
C803 H807 0.930 . S
C804 C803 1.369 . S
C804 C813 1.429 . S
C805 C803 1.419 . S
C805 C806 1.363 . S
C805 H808 0.929 . S
C806 C805 1.363 . S
C806 C812 1.428 . S
H807 C803 0.930 . S
H808 C805 0.929 . S
S809 N810 1.613 . S
S809 N811 1.610 . S
N810 S809 1.613 . S
N810 C813 1.350 . S
N811 S809 1.610 . S
N811 C812 1.351 . S
C812 C806 1.428 . S
C812 N811 1.351 . S
C812 C813 1.434 . S
C813 C804 1.429 . S
C813 N810 1.350 . S
C813 C812 1.434 . S
C814 C815 1.369 . S
C814 C816 1.419 . S
C814 H818 0.930 . S
C815 C814 1.369 . S
C815 C824 1.429 . S
C816 C814 1.419 . S
C816 C817 1.363 . S
C816 H819 0.929 . S
C817 C816 1.363 . S
C817 C823 1.428 . S
H818 C814 0.930 . S
H819 C816 0.929 . S
S820 N821 1.613 . S
S820 N822 1.610 . S
N821 S820 1.613 . S
N821 C824 1.350 . S
N822 S820 1.610 . S
N822 C823 1.351 . S
C823 C817 1.428 . S
C823 N822 1.351 . S
C823 C824 1.434 . S
C824 C815 1.429 . S
C824 N821 1.350 . S
C824 C823 1.434 . S
C825 C826 1.369 . S
C825 C827 1.419 . S
C825 H829 0.930 . S
C826 C825 1.369 . S
C826 C835 1.429 . S
C827 C825 1.419 . S
C827 C828 1.363 . S
C827 H830 0.929 . S
C828 C827 1.363 . S
C828 C834 1.428 . S
H829 C825 0.930 . S
H830 C827 0.929 . S
S831 N832 1.613 . S
S831 N833 1.610 . S
N832 S831 1.613 . S
N832 C835 1.350 . S
N833 S831 1.610 . S
N833 C834 1.351 . S
C834 C828 1.428 . S
C834 N833 1.351 . S
C834 C835 1.434 . S
C835 C826 1.429 . S
C835 N832 1.350 . S
C835 C834 1.434 . S
C836 C837 1.369 . S
C836 C838 1.419 . S
C836 H840 0.930 . S
C837 C836 1.369 . S
C837 C846 1.429 . S
C838 C836 1.419 . S
C838 C839 1.363 . S
C838 H841 0.929 . S
C839 C838 1.363 . S
C839 C845 1.428 . S
H840 C836 0.930 . S
H841 C838 0.929 . S
S842 N843 1.613 . S
S842 N844 1.610 . S
N843 S842 1.613 . S
N843 C846 1.350 . S
N844 S842 1.610 . S
N844 C845 1.351 . S
C845 C839 1.428 . S
C845 N844 1.351 . S
C845 C846 1.434 . S
C846 C837 1.429 . S
C846 N843 1.350 . S
C846 C845 1.434 . S
C847 C848 1.369 . S
C847 C849 1.419 . S
C847 H851 0.930 . S
C848 C847 1.369 . S
C848 C857 1.429 . S
C849 C847 1.419 . S
C849 C850 1.363 . S
C849 H852 0.929 . S
C850 C849 1.363 . S
C850 C856 1.428 . S
H851 C847 0.930 . S
H852 C849 0.929 . S
S853 N854 1.613 . S
S853 N855 1.610 . S
N854 S853 1.613 . S
N854 C857 1.350 . S
N855 S853 1.610 . S
N855 C856 1.351 . S
C856 C850 1.428 . S
C856 N855 1.351 . S
C856 C857 1.434 . S
C857 C848 1.429 . S
C857 N854 1.350 . S
C857 C856 1.434 . S
C858 C859 1.369 . S
C858 C860 1.419 . S
C858 H862 0.930 . S
C859 C858 1.369 . S
C859 C868 1.429 . S
C860 C858 1.419 . S
C860 C861 1.363 . S
C860 H863 0.929 . S
C861 C860 1.363 . S
C861 C867 1.428 . S
H862 C858 0.930 . S
H863 C860 0.929 . S
S864 N865 1.613 . S
S864 N866 1.610 . S
N865 S864 1.613 . S
N865 C868 1.350 . S
N866 S864 1.610 . S
N866 C867 1.351 . S
C867 C861 1.428 . S
C867 N866 1.351 . S
C867 C868 1.434 . S
C868 C859 1.429 . S
C868 N865 1.350 . S
C868 C867 1.434 . S
C869 C870 1.369 . S
C869 C871 1.419 . S
C869 H873 0.930 . S
C870 C869 1.369 . S
C870 C879 1.429 . S
C871 C869 1.419 . S
C871 C872 1.363 . S
C871 H874 0.929 . S
C872 C871 1.363 . S
C872 C878 1.428 . S
H873 C869 0.930 . S
H874 C871 0.929 . S
S875 N876 1.613 . S
S875 N877 1.610 . S
N876 S875 1.613 . S
N876 C879 1.350 . S
N877 S875 1.610 . S
N877 C878 1.351 . S
C878 C872 1.428 . S
C878 N877 1.351 . S
C878 C879 1.434 . S
C879 C870 1.429 . S
C879 N876 1.350 . S
C879 C878 1.434 . S
C880 C881 1.369 . S
C880 C882 1.419 . S
C880 H884 0.930 . S
C881 C880 1.369 . S
C881 C890 1.429 . S
C882 C880 1.419 . S
C882 C883 1.363 . S
C882 H885 0.929 . S
C883 C882 1.363 . S
C883 C889 1.428 . S
H884 C880 0.930 . S
H885 C882 0.929 . S
S886 N887 1.613 1_455 S
S886 N888 1.610 1_455 S
N887 S886 1.613 1_655 S
N887 C890 1.350 . S
N888 S886 1.610 1_655 S
N888 C889 1.351 . S
C889 C883 1.428 . S
C889 N888 1.351 . S
C889 C890 1.434 . S
C890 C881 1.429 . S
C890 N887 1.350 . S
C890 C889 1.434 . S
C891 C892 1.369 . S
C891 C893 1.419 . S
C891 H895 0.930 . S
C892 C891 1.369 . S
C892 C901 1.429 . S
C893 C891 1.419 . S
C893 C894 1.363 . S
C893 H896 0.929 . S
C894 C893 1.363 . S
C894 C900 1.428 . S
H895 C891 0.930 . S
H896 C893 0.929 . S
S897 N898 1.613 . S
S897 N899 1.610 . S
N898 S897 1.613 . S
N898 C901 1.350 . S
N899 S897 1.610 . S
N899 C900 1.351 . S
C900 C894 1.428 . S
C900 N899 1.351 . S
C900 C901 1.434 . S
C901 C892 1.429 . S
C901 N898 1.350 . S
C901 C900 1.434 . S
C902 C903 1.369 . S
C902 C904 1.419 . S
C902 H906 0.930 . S
C903 C902 1.369 . S
C903 C912 1.429 . S
C904 C902 1.419 . S
C904 C905 1.363 . S
C904 H907 0.929 . S
C905 C904 1.363 . S
C905 C911 1.428 . S
H906 C902 0.930 . S
H907 C904 0.929 . S
S908 N909 1.613 . S
S908 N910 1.610 . S
N909 S908 1.613 . S
N909 C912 1.350 . S
N910 S908 1.610 . S
N910 C911 1.351 . S
C911 C905 1.428 . S
C911 N910 1.351 . S
C911 C912 1.434 . S
C912 C903 1.429 . S
C912 N909 1.350 . S
C912 C911 1.434 . S
C913 C914 1.369 . S
C913 C915 1.419 . S
C913 H917 0.930 . S
C914 C913 1.369 . S
C914 C923 1.429 . S
C915 C913 1.419 . S
C915 C916 1.363 . S
C915 H918 0.929 . S
C916 C915 1.363 . S
C916 C922 1.428 . S
H917 C913 0.930 . S
H918 C915 0.929 . S
S919 N920 1.613 . S
S919 N921 1.610 . S
N920 S919 1.613 . S
N920 C923 1.350 . S
N921 S919 1.610 . S
N921 C922 1.351 . S
C922 C916 1.428 . S
C922 N921 1.351 . S
C922 C923 1.434 . S
C923 C914 1.429 . S
C923 N920 1.350 . S
C923 C922 1.434 . S
C924 C925 1.369 . S
C924 C926 1.419 . S
C924 H928 0.930 . S
C925 C924 1.369 . S
C925 C934 1.429 . S
C926 C924 1.419 . S
C926 C927 1.363 . S
C926 H929 0.929 . S
C927 C926 1.363 . S
C927 C933 1.428 . S
H928 C924 0.930 . S
H929 C926 0.929 . S
S930 N931 1.613 . S
S930 N932 1.610 . S
N931 S930 1.613 . S
N931 C934 1.350 . S
N932 S930 1.610 . S
N932 C933 1.351 . S
C933 C927 1.428 . S
C933 N932 1.351 . S
C933 C934 1.434 . S
C934 C925 1.429 . S
C934 N931 1.350 . S
C934 C933 1.434 . S
C935 C936 1.369 . S
C935 C937 1.419 . S
C935 H939 0.930 . S
C936 C935 1.369 . S
C936 C945 1.429 . S
C937 C935 1.419 . S
C937 C938 1.363 . S
C937 H940 0.929 . S
C938 C937 1.363 . S
C938 C944 1.428 . S
H939 C935 0.930 . S
H940 C937 0.929 . S
S941 N942 1.613 . S
S941 N943 1.610 . S
N942 S941 1.613 . S
N942 C945 1.350 . S
N943 S941 1.610 . S
N943 C944 1.351 . S
C944 C938 1.428 . S
C944 N943 1.351 . S
C944 C945 1.434 . S
C945 C936 1.429 . S
C945 N942 1.350 . S
C945 C944 1.434 . S
C946 C947 1.369 . S
C946 C948 1.419 . S
C946 H950 0.930 . S
C947 C946 1.369 . S
C947 C956 1.429 . S
C948 C946 1.419 . S
C948 C949 1.363 . S
C948 H951 0.929 . S
C949 C948 1.363 . S
C949 C955 1.428 . S
H950 C946 0.930 . S
H951 C948 0.929 . S
S952 N953 1.613 . S
S952 N954 1.610 . S
N953 S952 1.613 . S
N953 C956 1.350 . S
N954 S952 1.610 . S
N954 C955 1.351 . S
C955 C949 1.428 . S
C955 N954 1.351 . S
C955 C956 1.434 . S
C956 C947 1.429 . S
C956 N953 1.350 . S
C956 C955 1.434 . S
C957 C958 1.369 . S
C957 C959 1.419 . S
C957 H961 0.930 . S
C958 C957 1.369 . S
C958 C967 1.429 . S
C959 C957 1.419 . S
C959 C960 1.363 . S
C959 H962 0.929 . S
C960 C959 1.363 . S
C960 C966 1.428 . S
H961 C957 0.930 . S
H962 C959 0.929 . S
S963 N964 1.613 . S
S963 N965 1.610 . S
N964 S963 1.613 . S
N964 C967 1.350 . S
N965 S963 1.610 . S
N965 C966 1.351 . S
C966 C960 1.428 . S
C966 N965 1.351 . S
C966 C967 1.434 . S
C967 C958 1.429 . S
C967 N964 1.350 . S
C967 C966 1.434 . S
C529 C17 1.427 . S
C531 C149 1.415 . S
C540 C182 1.426 . S
C542 C50 1.417 . S
C551 C215 1.414 . S
C553 C83 1.426 . S
C562 C116 1.422 . S
C564 C248 1.419 . S
C573 C281 1.414 . S
C575 C347 1.426 . S
C584 C380 1.427 . S
C586 C314 1.415 . S
C595 C413 1.427 . S
C597 C479 1.416 . S
C606 C446 1.427 . S
C608 C512 1.415 . S
C617 N14 1.346 . S
C619 N179 1.356 . S
C628 N212 1.346 . S
C630 N47 1.358 . S
C639 N245 1.352 . S
C641 N80 1.355 . S
C650 N113 1.347 . S
C652 N146 1.355 . S
C661 C140 2.008 . S
C663 C338 2.006 1_556 S
C672 C74 2.005 . S
C674 C272 2.007 . S
C683 C206 2.007 . S
C685 C371 2.007 . S
C694 C8 2.005 . S
C696 C305 2.007 1_554 S
C705 N410 1.353 . S
C707 N278 1.351 . S
C716 N344 1.345 . S
C718 N509 1.358 . S
C727 N311 1.350 . S
C729 N443 1.352 . S
C738 N377 1.348 . S
C740 N476 1.357 . S
C749 C470 2.006 . S
C751 C41 2.008 . S
C760 C173 2.008 1_554 S
C762 C437 2.006 . S
C771 C107 2.008 1_556 S
C773 C503 2.006 . S
C782 C404 2.005 . S
C784 C239 2.008 . S
C793 C193 1.839 . S
C795 C28 1.842 . S
C804 C226 1.842 1_556 S
C806 C61 1.840 . S
C815 C94 1.843 1_554 S
C817 C259 1.839 . S
C826 C127 1.840 . S
C828 C160 1.841 . S
C837 N137 0.753 . S
C839 N335 0.776 . S
C848 N269 0.757 . S
C850 N71 0.776 . S
C859 N368 0.761 . S
C861 N203 0.761 . S
C870 N5 0.779 . S
C872 N302 0.762 . S
C881 C424 1.839 1_554 S
C883 C292 1.842 . S
C892 C358 1.841 . S
C894 C523 1.841 . S
C903 C457 1.841 . S
C905 C325 1.840 . S
C914 C490 1.842 1_556 S
C916 C391 1.839 . S
C925 N38 0.772 . S
C927 N467 0.768 . S
C936 N170 0.757 . S
C938 N434 0.777 . S
C947 N500 0.754 . S
C949 N104 0.767 . S
C958 N236 0.760 . S
C960 N401 0.776 . S
